# Generated by pormake.
# Topology fng, (5)-cn, num edge types: 1
# Building blocks:
#     Node 0, Type 0, BuildingBlock: BEQFEK_clean_sbu_0, # of connection points: 5
#     Node 1, Type 0, BuildingBlock: BEQFEK_clean_sbu_0, # of connection points: 5
#     Node 2, Type 0, BuildingBlock: BEQFEK_clean_sbu_0, # of connection points: 5
#     Node 3, Type 0, BuildingBlock: BEQFEK_clean_sbu_0, # of connection points: 5
#     Node 4, Type 0, BuildingBlock: BEQFEK_clean_sbu_0, # of connection points: 5
#     Node 5, Type 0, BuildingBlock: BEQFEK_clean_sbu_0, # of connection points: 5
#     Node 6, Type 0, BuildingBlock: BEQFEK_clean_sbu_0, # of connection points: 5
#     Node 7, Type 0, BuildingBlock: BEQFEK_clean_sbu_0, # of connection points: 5
#     Node 8, Type 0, BuildingBlock: BEQFEK_clean_sbu_0, # of connection points: 5
#     Node 9, Type 0, BuildingBlock: BEQFEK_clean_sbu_0, # of connection points: 5
#     Node 10, Type 0, BuildingBlock: BEQFEK_clean_sbu_0, # of connection points: 5
#     Node 11, Type 0, BuildingBlock: BEQFEK_clean_sbu_0, # of connection points: 5
#     Node 12, Type 0, BuildingBlock: BEQFEK_clean_sbu_0, # of connection points: 5
#     Node 13, Type 0, BuildingBlock: BEQFEK_clean_sbu_0, # of connection points: 5
#     Node 14, Type 0, BuildingBlock: BEQFEK_clean_sbu_0, # of connection points: 5
#     Node 15, Type 0, BuildingBlock: BEQFEK_clean_sbu_0, # of connection points: 5
#     Node 16, Type 0, BuildingBlock: BEQFEK_clean_sbu_0, # of connection points: 5
#     Node 17, Type 0, BuildingBlock: BEQFEK_clean_sbu_0, # of connection points: 5
#     Edge 18, Type (0, 0), BuildingBlock: MIFKUJ_clean_linker_0, # of connection points: 2
#     Edge 19, Type (0, 0), BuildingBlock: MIFKUJ_clean_linker_0, # of connection points: 2
#     Edge 20, Type (0, 0), BuildingBlock: MIFKUJ_clean_linker_0, # of connection points: 2
#     Edge 21, Type (0, 0), BuildingBlock: MIFKUJ_clean_linker_0, # of connection points: 2
#     Edge 22, Type (0, 0), BuildingBlock: MIFKUJ_clean_linker_0, # of connection points: 2
#     Edge 23, Type (0, 0), BuildingBlock: MIFKUJ_clean_linker_0, # of connection points: 2
#     Edge 24, Type (0, 0), BuildingBlock: MIFKUJ_clean_linker_0, # of connection points: 2
#     Edge 25, Type (0, 0), BuildingBlock: MIFKUJ_clean_linker_0, # of connection points: 2
#     Edge 26, Type (0, 0), BuildingBlock: MIFKUJ_clean_linker_0, # of connection points: 2
#     Edge 27, Type (0, 0), BuildingBlock: MIFKUJ_clean_linker_0, # of connection points: 2
#     Edge 28, Type (0, 0), BuildingBlock: MIFKUJ_clean_linker_0, # of connection points: 2
#     Edge 29, Type (0, 0), BuildingBlock: MIFKUJ_clean_linker_0, # of connection points: 2
#     Edge 30, Type (0, 0), BuildingBlock: MIFKUJ_clean_linker_0, # of connection points: 2
#     Edge 31, Type (0, 0), BuildingBlock: MIFKUJ_clean_linker_0, # of connection points: 2
#     Edge 32, Type (0, 0), BuildingBlock: MIFKUJ_clean_linker_0, # of connection points: 2
#     Edge 33, Type (0, 0), BuildingBlock: MIFKUJ_clean_linker_0, # of connection points: 2
#     Edge 34, Type (0, 0), BuildingBlock: MIFKUJ_clean_linker_0, # of connection points: 2
#     Edge 35, Type (0, 0), BuildingBlock: MIFKUJ_clean_linker_0, # of connection points: 2
#     Edge 36, Type (0, 0), BuildingBlock: MIFKUJ_clean_linker_0, # of connection points: 2
#     Edge 37, Type (0, 0), BuildingBlock: MIFKUJ_clean_linker_0, # of connection points: 2
#     Edge 38, Type (0, 0), BuildingBlock: MIFKUJ_clean_linker_0, # of connection points: 2
#     Edge 39, Type (0, 0), BuildingBlock: MIFKUJ_clean_linker_0, # of connection points: 2
#     Edge 40, Type (0, 0), BuildingBlock: MIFKUJ_clean_linker_0, # of connection points: 2
#     Edge 41, Type (0, 0), BuildingBlock: MIFKUJ_clean_linker_0, # of connection points: 2
#     Edge 42, Type (0, 0), BuildingBlock: MIFKUJ_clean_linker_0, # of connection points: 2
#     Edge 43, Type (0, 0), BuildingBlock: MIFKUJ_clean_linker_0, # of connection points: 2
#     Edge 44, Type (0, 0), BuildingBlock: MIFKUJ_clean_linker_0, # of connection points: 2
#     Edge 45, Type (0, 0), BuildingBlock: MIFKUJ_clean_linker_0, # of connection points: 2
#     Edge 46, Type (0, 0), BuildingBlock: MIFKUJ_clean_linker_0, # of connection points: 2
#     Edge 47, Type (0, 0), BuildingBlock: MIFKUJ_clean_linker_0, # of connection points: 2
#     Edge 48, Type (0, 0), BuildingBlock: MIFKUJ_clean_linker_0, # of connection points: 2
#     Edge 49, Type (0, 0), BuildingBlock: MIFKUJ_clean_linker_0, # of connection points: 2
#     Edge 50, Type (0, 0), BuildingBlock: MIFKUJ_clean_linker_0, # of connection points: 2
#     Edge 51, Type (0, 0), BuildingBlock: MIFKUJ_clean_linker_0, # of connection points: 2
#     Edge 52, Type (0, 0), BuildingBlock: MIFKUJ_clean_linker_0, # of connection points: 2
#     Edge 53, Type (0, 0), BuildingBlock: MIFKUJ_clean_linker_0, # of connection points: 2
#     Edge 54, Type (0, 0), BuildingBlock: MIFKUJ_clean_linker_0, # of connection points: 2
#     Edge 55, Type (0, 0), BuildingBlock: MIFKUJ_clean_linker_0, # of connection points: 2
#     Edge 56, Type (0, 0), BuildingBlock: MIFKUJ_clean_linker_0, # of connection points: 2
#     Edge 57, Type (0, 0), BuildingBlock: MIFKUJ_clean_linker_0, # of connection points: 2
#     Edge 58, Type (0, 0), BuildingBlock: MIFKUJ_clean_linker_0, # of connection points: 2
#     Edge 59, Type (0, 0), BuildingBlock: MIFKUJ_clean_linker_0, # of connection points: 2
#     Edge 60, Type (0, 0), BuildingBlock: MIFKUJ_clean_linker_0, # of connection points: 2
#     Edge 61, Type (0, 0), BuildingBlock: MIFKUJ_clean_linker_0, # of connection points: 2
#     Edge 62, Type (0, 0), BuildingBlock: MIFKUJ_clean_linker_0, # of connection points: 2
# Relax obj value: 0.311
# Max RMSD: 0.241
# Mean RMSD: 0.241
data_MOF--net-fng--node1-BEQFEK_clean_sbu_0--edge1-MIFKUJ_clean_linker_0
_symmetry_space_group_name_H-M    P1
_symmetry_Int_Tables_number       1
_symmetry_cell_setting            triclinic
loop_
_symmetry_equiv_pos_as_xyz
'x, y, z'
_cell_length_a     98.446578
_cell_length_b     98.434373
_cell_length_c     22.322415
_cell_angle_alpha  89.976374
_cell_angle_beta   90.031563
_cell_angle_gamma 119.99898
loop_
_atom_site_label
_atom_site_type_symbol
_atom_site_fract_x
_atom_site_fract_y
_atom_site_fract_z
_atom_type_partial_charge
Co0 Co 0.11204 0.2255 0.04971 0.0
Co1 Co 0.10361 0.2103 0.17743 0.0
C2 C 0.07948 0.20018 0.08226 0.0
O3 O 0.0898 0.20962 0.04601 0.0
O4 O 0.08291 0.19929 0.13649 0.0
C5 C 0.10522 0.2397 0.9554 0.0
O6 O 0.09397 0.23733 0.99299 0.0
C7 C 0.0906 0.2066 0.2973 0.0
C8 C 0.10512 0.19954 0.34955 0.0
C9 C 0.09376 0.20385 0.35528 0.0
N10 N 0.10006 0.20454 0.25961 0.0
N11 N 0.10844 0.19994 0.29088 0.0
C12 C 0.07879 0.21102 0.27736 0.0
H13 H 0.07257 0.20417 0.23701 0.0
H14 H 0.08482 0.22359 0.26471 0.0
H15 H 0.07008 0.20878 0.31308 0.0
C16 C 0.12363 0.2546 0.12106 0.0
N17 N 0.11639 0.23886 0.11633 0.0
N18 N 0.11349 0.2326 0.1703 0.0
C19 C 0.11924 0.24428 0.21112 0.0
C20 C 0.12547 0.25849 0.18132 0.0
C21 C 0.12877 0.26556 0.06872 0.0
H22 H 0.13565 0.26261 0.03732 0.0
H23 H 0.11827 0.26403 0.04454 0.0
H24 H 0.13585 0.27799 0.08269 0.0
O25 O 0.12438 0.21467 0.05429 0.0
O26 O 0.11763 0.2032 0.14376 0.0
H27 H 0.12315 0.23234 0.28404 0.0
H28 H 0.13117 0.25302 0.29577 0.0
C29 C 0.12112 0.24229 0.27664 0.0
H30 H 0.11043 0.24017 0.30089 0.0
H31 H 0.117 0.19789 0.27255 0.0
O32 O 0.11576 0.23667 0.97239 0.0
C33 C 0.12521 0.20596 0.09473 0.0
Co34 Co 0.77316 0.88791 0.07365 0.0
Co35 Co 0.78935 0.89625 0.20005 0.0
C36 C 0.79782 0.87992 0.10851 0.0
O37 O 0.78817 0.8804 0.07218 0.0
O38 O 0.79956 0.8855 0.16115 0.0
C39 C 0.75878 0.86686 0.97874 0.0
O40 O 0.76063 0.85756 0.01594 0.0
C41 C 0.79787 0.89127 0.32141 0.0
C42 C 0.79972 0.91179 0.369 0.0
C43 C 0.80007 0.89803 0.37792 0.0
N44 N 0.7958 0.90039 0.28177 0.0
N45 N 0.79731 0.91282 0.3103 0.0
C46 C 0.79793 0.87657 0.30469 0.0
H47 H 0.80445 0.87838 0.26236 0.0
H48 H 0.78572 0.86695 0.29744 0.0
H49 H 0.80361 0.87312 0.3398 0.0
C50 C 0.74462 0.87255 0.14846 0.0
N51 N 0.7603 0.8805 0.14214 0.0
N52 N 0.76695 0.88399 0.19543 0.0
C53 C 0.75558 0.87841 0.23751 0.0
C54 C 0.74109 0.87095 0.20909 0.0
C55 C 0.73333 0.86766 0.09721 0.0
H56 H 0.73781 0.87705 0.06281 0.0
H57 H 0.73234 0.85698 0.07635 0.0
H58 H 0.72153 0.86509 0.11214 0.0
O59 O 0.78496 0.91097 0.07201 0.0
O60 O 0.79675 0.9169 0.16083 0.0
H61 H 0.76519 0.89275 0.3154 0.0
H62 H 0.74743 0.87441 0.32959 0.0
C63 C 0.7585 0.88013 0.30363 0.0
H64 H 0.76555 0.87468 0.3165 0.0
H65 H 0.79597 0.92165 0.29013 0.0
O66 O 0.76167 0.88027 0.99718 0.0
C67 C 0.79407 0.92104 0.1101 0.0
Co68 Co 0.11171 0.88192 0.03214 0.0
Co69 Co 0.10315 0.88965 0.1575 0.0
C70 C 0.12147 0.91483 0.0689 0.0
O71 O 0.12074 0.90473 0.03176 0.0
O72 O 0.11525 0.91076 0.12051 0.0
C73 C 0.13278 0.88715 0.93847 0.0
O74 O 0.14247 0.8983 0.97482 0.0
C75 C 0.10953 0.90261 0.27849 0.0
C76 C 0.08814 0.88558 0.32671 0.0
C77 C 0.10297 0.89845 0.33526 0.0
N78 N 0.09928 0.89231 0.23884 0.0
N79 N 0.08634 0.88243 0.26767 0.0
C80 C 0.12524 0.9161 0.2615 0.0
H81 H 0.12367 0.92306 0.22598 0.0
H82 H 0.13271 0.91165 0.24268 0.0
H83 H 0.13121 0.92394 0.30008 0.0
C84 C 0.12511 0.86678 0.10699 0.0
N85 N 0.11785 0.8752 0.10056 0.0
N86 N 0.11424 0.87828 0.15371 0.0
C87 C 0.11906 0.87177 0.19587 0.0
C88 C 0.1261 0.86431 0.16754 0.0
C89 C 0.13021 0.86057 0.05583 0.0
H90 H 0.12104 0.85596 0.02056 0.0
H91 H 0.14109 0.87029 0.0362 0.0
H92 H 0.1325 0.85113 0.07054 0.0
O93 O 0.08873 0.87185 0.02825 0.0
O94 O 0.08252 0.87754 0.11675 0.0
H95 H 0.10497 0.8687 0.27336 0.0
H96 H 0.12183 0.86658 0.28854 0.0
C97 C 0.11745 0.87311 0.26204 0.0
H98 H 0.12436 0.88557 0.27529 0.0
H99 H 0.07665 0.873 0.24752 0.0
O100 O 0.11907 0.87741 0.95687 0.0
C101 C 0.07857 0.87114 0.06525 0.0
Co102 Co 0.2249 0.1093 0.95353 0.0
Co103 Co 0.20886 0.10517 0.82919 0.0
C104 C 0.20125 0.07769 0.90671 0.0
O105 O 0.21037 0.08663 0.94737 0.0
O106 O 0.19971 0.08309 0.85694 0.0
C107 C 0.2397 0.10264 0.05016 0.0
O108 O 0.23472 0.08923 0.02216 0.0
C109 C 0.20472 0.0983 0.70182 0.0
C110 C 0.19664 0.11441 0.67094 0.0
C111 C 0.20164 0.10432 0.65069 0.0
N112 N 0.20211 0.10492 0.74968 0.0
N113 N 0.19678 0.11413 0.73111 0.0
C114 C 0.21203 0.08813 0.70555 0.0
H115 H 0.21713 0.08894 0.75065 0.0
H116 H 0.22121 0.09144 0.67081 0.0
H117 H 0.20284 0.07577 0.69745 0.0
C118 C 0.2535 0.12475 0.87896 0.0
N119 N 0.23779 0.11711 0.88522 0.0
N120 N 0.23122 0.11618 0.83284 0.0
C121 C 0.24267 0.12372 0.79184 0.0
C122 C 0.25705 0.12904 0.81948 0.0
C123 C 0.26472 0.12751 0.92892 0.0
H124 H 0.26373 0.13514 0.96315 0.0
H125 H 0.26151 0.11615 0.9506 0.0
H126 H 0.277 0.13304 0.91284 0.0
O127 O 0.21255 0.1199 0.96534 0.0
O128 O 0.20079 0.11639 0.87724 0.0
H129 H 0.25065 0.13871 0.71393 0.0
H130 H 0.23888 0.11822 0.69839 0.0
C131 C 0.24029 0.12764 0.72926 0.0
H132 H 0.22984 0.12904 0.72689 0.0
H133 H 0.19437 0.12111 0.75929 0.0
O134 O 0.23745 0.11311 0.02671 0.0
C135 C 0.20331 0.12166 0.93053 0.0
Co136 Co 0.88807 0.11473 0.92781 0.0
Co137 Co 0.893 0.10202 0.80662 0.0
C138 C 0.92007 0.12421 0.88347 0.0
O139 O 0.91094 0.12496 0.92179 0.0
O140 O 0.91476 0.11569 0.83686 0.0
C141 C 0.89297 0.13563 0.02498 0.0
O142 O 0.90579 0.14528 0.99562 0.0
C143 C 0.90156 0.10592 0.68095 0.0
C144 C 0.88822 0.0816 0.64722 0.0
C145 C 0.89749 0.09705 0.6288 0.0
N146 N 0.8947 0.09618 0.72736 0.0
N147 N 0.88709 0.08162 0.70724 0.0
C148 C 0.91019 0.12343 0.68669 0.0
H149 H 0.90809 0.12702 0.73127 0.0
H150 H 0.90659 0.12882 0.65095 0.0
H151 H 0.92295 0.12789 0.68187 0.0
C152 C 0.87109 0.12543 0.84957 0.0
N153 N 0.87951 0.11825 0.8583 0.0
N154 N 0.88083 0.11227 0.80736 0.0
C155 C 0.87272 0.115 0.76487 0.0
C156 C 0.86655 0.12362 0.79 0.0
C157 C 0.86811 0.13433 0.8971 0.0
H158 H 0.87917 0.14203 0.92139 0.0
H159 H 0.86345 0.14161 0.8781 0.0
H160 H 0.85958 0.12591 0.92988 0.0
O161 O 0.87913 0.09191 0.94143 0.0
O162 O 0.88238 0.08277 0.85499 0.0
H163 H 0.85795 0.10642 0.68661 0.0
H164 H 0.87858 0.11622 0.67199 0.0
C165 C 0.86933 0.1081 0.70319 0.0
H166 H 0.86885 0.09663 0.70311 0.0
H167 H 0.88037 0.07181 0.73401 0.0
O168 O 0.88317 0.12268 0.00086 0.0
C169 C 0.87754 0.08058 0.90888 0.0
Co170 Co 0.88348 0.77404 0.93582 0.0
Co171 Co 0.89099 0.7894 0.80863 0.0
C172 C 0.87536 0.79841 0.90244 0.0
O173 O 0.87577 0.7889 0.93976 0.0
O174 O 0.88065 0.79968 0.84962 0.0
C175 C 0.86349 0.75848 0.03314 0.0
O176 O 0.85342 0.75989 -0.00121 0.0
C177 C 0.88095 0.79316 0.69075 0.0
C178 C 0.90261 0.80216 0.63715 0.0
C179 C 0.88671 0.79706 0.63285 0.0
N180 N 0.8928 0.79546 0.72708 0.0
N181 N 0.90579 0.80117 0.6951 0.0
C182 C 0.86451 0.78741 0.71184 0.0
H183 H 0.86469 0.79347 0.75382 0.0
H184 H 0.85872 0.77469 0.7219 0.0
H185 H 0.85756 0.78953 0.6778 0.0
C186 C 0.86819 0.74499 0.86324 0.0
N187 N 0.87566 0.76072 0.8684 0.0
N188 N 0.87922 0.76708 0.81464 0.0
C189 C 0.87435 0.75551 0.77351 0.0
C190 C 0.86704 0.7412 0.80293 0.0
C191 C 0.8626 0.73394 0.91535 0.0
H192 H 0.87256 0.73695 0.94618 0.0
H193 H 0.85366 0.73535 0.9403 0.0
H194 H 0.85731 0.72153 0.9011 0.0
O195 O 0.90658 0.78612 0.93331 0.0
O196 O 0.91222 0.79714 0.84289 0.0
H197 H 0.89033 0.76834 0.70205 0.0
H198 H 0.87852 0.74757 0.68875 0.0
C199 C 0.87855 0.75795 0.70831 0.0
H200 H 0.86981 0.75974 0.68361 0.0
H201 H 0.91668 0.80373 0.71238 0.0
O202 O 0.87706 0.76261 0.01263 0.0
C203 C 0.91651 0.79479 0.89393 0.0
Co204 Co 0.78292 0.55655 0.39858 0.0
Co205 Co 0.77494 0.54103 0.525 0.0
C206 C 0.75015 0.53237 0.43392 0.0
O207 O 0.76037 0.54125 0.39615 0.0
O208 O 0.7539 0.53145 0.48761 0.0
C209 C 0.77662 0.57161 0.30579 0.0
O210 O 0.76553 0.56969 0.34339 0.0
C211 C 0.76255 0.53662 0.64574 0.0
C212 C 0.77524 0.52665 0.69321 0.0
C213 C 0.76462 0.53182 0.70155 0.0
N214 N 0.7716 0.53451 0.60623 0.0
N215 N 0.77893 0.52824 0.63453 0.0
C216 C 0.75222 0.54323 0.63 0.0
H217 H 0.74004 0.53339 0.62408 0.0
H218 H 0.75608 0.54991 0.58739 0.0
H219 H 0.75209 0.55083 0.66642 0.0
C220 C 0.79634 0.58552 0.4706 0.0
N221 N 0.78849 0.56979 0.46573 0.0
N222 N 0.78596 0.56347 0.5195 0.0
C223 C 0.79253 0.57513 0.56035 0.0
C224 C 0.7991 0.5894 0.53065 0.0
C225 C 0.80198 0.59657 0.41854 0.0
H226 H 0.80723 0.5924 0.38436 0.0
H227 H 0.79186 0.59681 0.39785 0.0
H228 H 0.81079 0.60865 0.43254 0.0
O229 O 0.79467 0.54521 0.39918 0.0
O230 O 0.78747 0.53269 0.48657 0.0
H231 H 0.79381 0.56252 0.63671 0.0
H232 H 0.80178 0.58318 0.64965 0.0
C233 C 0.79239 0.57275 0.62657 0.0
H234 H 0.78106 0.57072 0.64457 0.0
H235 H 0.78692 0.52566 0.61436 0.0
O236 O 0.7868 0.56806 0.32265 0.0
C237 C 0.79494 0.5357 0.43721 0.0
Co238 Co 0.43605 0.21977 0.37388 0.0
Co239 Co 0.45073 0.22683 0.50241 0.0
C240 C 0.45806 0.20885 0.41399 0.0
O241 O 0.44933 0.21016 0.37537 0.0
O242 O 0.45971 0.21468 0.46609 0.0
C243 C 0.41986 0.19899 0.27996 0.0
O244 O 0.42044 0.18907 0.31782 0.0
C245 C 0.45467 0.21827 0.6232 0.0
C246 C 0.46051 0.23968 0.67457 0.0
C247 C 0.45697 0.22423 0.68094 0.0
N248 N 0.45622 0.22949 0.58491 0.0
N249 N 0.46013 0.2424 0.61565 0.0
C250 C 0.45102 0.2022 0.60397 0.0
H251 H 0.46022 0.20332 0.57246 0.0
H252 H 0.43972 0.19633 0.57937 0.0
H253 H 0.45067 0.1949 0.64241 0.0
C254 C 0.40666 0.20683 0.44358 0.0
N255 N 0.42235 0.2134 0.43993 0.0
N256 N 0.42839 0.21646 0.49424 0.0
C257 C 0.41665 0.21203 0.53429 0.0
C258 C 0.40255 0.20578 0.50341 0.0
C259 C 0.39599 0.20261 0.3906 0.0
H260 H 0.40136 0.21197 0.35622 0.0
H261 H 0.39436 0.19157 0.37067 0.0
H262 H 0.38435 0.20092 0.40345 0.0
O263 O 0.4495 0.24278 0.37372 0.0
O264 O 0.46017 0.24787 0.46466 0.0
H265 H 0.42765 0.22569 0.61276 0.0
H266 H 0.4078 0.21009 0.62528 0.0
C267 C 0.41882 0.21347 0.60088 0.0
H268 H 0.42305 0.20556 0.61614 0.0
H269 H 0.46169 0.25278 0.59677 0.0
O270 O 0.42487 0.21306 0.29664 0.0
C271 C 0.45855 0.25245 0.41308 0.0
Co272 Co 0.775 0.22247 0.41832 0.0
Co273 Co 0.76901 0.22762 0.55123 0.0
C274 C 0.78339 0.25408 0.4673 0.0
O275 O 0.78196 0.24483 0.42522 0.0
O276 O 0.77936 0.24931 0.52055 0.0
C277 C 0.79615 0.23004 0.32305 0.0
O278 O 0.80633 0.23843 0.36477 0.0
C279 C 0.77887 0.23941 0.67098 0.0
C280 C 0.75881 0.22295 0.72682 0.0
C281 C 0.77394 0.23565 0.72972 0.0
N282 N 0.76735 0.2292 0.63505 0.0
N283 N 0.75525 0.21956 0.66846 0.0
C284 C 0.7942 0.25251 0.64853 0.0
H285 H 0.7921 0.26142 0.62669 0.0
H286 H 0.79909 0.24804 0.61399 0.0
H287 H 0.80282 0.25836 0.68507 0.0
C288 C 0.79078 0.20705 0.47576 0.0
N289 N 0.78352 0.21554 0.47827 0.0
N290 N 0.78095 0.21752 0.53461 0.0
C291 C 0.78663 0.21038 0.56991 0.0
C292 C 0.79303 0.20353 0.5337 0.0
C293 C 0.79391 0.20099 0.41902 0.0
H294 H 0.7845 0.19832 0.38591 0.0
H295 H 0.80523 0.21013 0.3999 0.0
H296 H 0.79467 0.19027 0.42732 0.0
O297 O 0.75211 0.21043 0.42309 0.0
O298 O 0.74751 0.21533 0.51607 0.0
H299 H 0.77375 0.20537 0.65209 0.0
H300 H 0.79094 0.20327 0.65706 0.0
C301 C 0.78604 0.21018 0.63698 0.0
H302 H 0.79309 0.22232 0.65377 0.0
H303 H 0.74483 0.21031 0.65157 0.0
O304 O 0.78189 0.22098 0.33731 0.0
C305 C 0.74267 0.20896 0.46484 0.0
Co306 Co 0.89029 0.43716 0.25328 0.0
Co307 Co 0.87186 0.43273 0.134 0.0
C308 C 0.86675 0.40534 0.2077 0.0
O309 O 0.87682 0.4144 0.24569 0.0
O310 O 0.86338 0.41069 0.16157 0.0
C311 C 0.90444 0.43079 0.35322 0.0
O312 O 0.89926 0.41712 0.32715 0.0
C313 C 0.86607 0.4256 0.00704 0.0
C314 C 0.85652 0.44076 0.9798 0.0
C315 C 0.86168 0.431 0.95731 0.0
N316 N 0.86394 0.43219 0.0561 0.0
N317 N 0.85779 0.44087 0.0398 0.0
C318 C 0.87404 0.41602 0.00803 0.0
H319 H 0.8799 0.41722 0.05179 0.0
H320 H 0.88275 0.41957 0.97128 0.0
H321 H 0.86512 0.4035 0.00134 0.0
C322 C 0.91749 0.45347 0.17356 0.0
N323 N 0.90194 0.44543 0.1832 0.0
N324 N 0.89444 0.44438 0.13296 0.0
C325 C 0.9052 0.45228 0.08992 0.0
C326 C 0.92005 0.45801 0.11406 0.0
C327 C 0.9295 0.4563 0.22042 0.0
H328 H 0.9258 0.44535 0.24607 0.0
H329 H 0.94122 0.46033 0.20048 0.0
H330 H 0.93025 0.46532 0.25219 0.0
O331 O 0.87762 0.44719 0.26934 0.0
O332 O 0.8638 0.44326 0.18614 0.0
H333 H 0.91156 0.46724 0.01214 0.0
H334 H 0.90009 0.44668 0.99704 0.0
C335 C 0.90167 0.456 0.0288 0.0
H336 H 0.89095 0.45696 0.02974 0.0
H337 H 0.85547 0.4477 0.06918 0.0
O338 O 0.90334 0.44151 0.32573 0.0
C339 C 0.86744 0.4486 0.23915 0.0
Co340 Co 0.55749 0.44915 0.28937 0.0
Co341 Co 0.56307 0.43954 0.16225 0.0
C342 C 0.58931 0.45621 0.24924 0.0
O343 O 0.58001 0.45656 0.28773 0.0
O344 O 0.5844 0.45002 0.19807 0.0
C345 C 0.56452 0.47084 0.38216 0.0
O346 O 0.57589 0.47975 0.34504 0.0
C347 C 0.57451 0.44737 0.04043 0.0
C348 C 0.55895 0.42553 0.9913 0.0
C349 C 0.57045 0.44109 0.98323 0.0
N350 N 0.56541 0.43623 0.08001 0.0
N351 N 0.55642 0.42308 0.05059 0.0
C352 C 0.58671 0.46369 0.05788 0.0
H353 H 0.59346 0.46328 0.09683 0.0
H354 H 0.58095 0.47042 0.07161 0.0
H355 H 0.59497 0.46985 0.02056 0.0
C356 C 0.54337 0.46418 0.21753 0.0
N357 N 0.55119 0.45625 0.22239 0.0
N358 N 0.55313 0.45192 0.16874 0.0
C359 C 0.54634 0.45679 0.12807 0.0
C360 C 0.54023 0.46491 0.15754 0.0
C361 C 0.53883 0.47065 0.26953 0.0
H362 H 0.5496 0.47997 0.29131 0.0
H363 H 0.53147 0.4757 0.2555 0.0
H364 H 0.53241 0.46123 0.303 0.0
O365 O 0.54597 0.42599 0.29226 0.0
O366 O 0.54984 0.41903 0.20181 0.0
H367 H 0.54121 0.43979 0.05866 0.0
H368 H 0.53366 0.45277 0.04467 0.0
C369 C 0.54368 0.452 0.06352 0.0
H370 H 0.55426 0.45994 0.0373 0.0
H371 H 0.54791 0.41268 0.07072 0.0
O372 O 0.55412 0.45721 0.36527 0.0
C373 C 0.54394 0.41549 0.25422 0.0
Co374 Co 0.55159 0.10838 0.27617 0.0
Co375 Co 0.56122 0.12441 0.15093 0.0
C376 C 0.54259 0.13182 0.23458 0.0
O377 O 0.54351 0.123 0.27386 0.0
O378 O 0.54841 0.13318 0.18266 0.0
C379 C 0.52954 0.09321 0.36735 0.0
O380 O 0.5208 0.09615 0.33114 0.0
C381 C 0.5552 0.12962 0.02868 0.0
C382 C 0.57778 0.1369 0.98369 0.0
C383 C 0.56241 0.13312 0.97307 0.0
N384 N 0.56569 0.13088 0.06988 0.0
N385 N 0.57929 0.1356 0.04308 0.0
C386 C 0.53862 0.12517 0.04326 0.0
H387 H 0.53877 0.1346 0.07093 0.0
H388 H 0.53306 0.1143 0.07059 0.0
H389 H 0.53157 0.12369 0.00254 0.0
C390 C 0.53882 0.07975 0.20338 0.0
N391 N 0.54584 0.09543 0.20858 0.0
N392 N 0.55033 0.10195 0.15542 0.0
C393 C 0.54642 0.09048 0.11447 0.0
C394 C 0.5389 0.07608 0.14359 0.0
C395 C 0.53332 0.06868 0.25543 0.0
H396 H 0.54246 0.07318 0.2908 0.0
H397 H 0.5226 0.06802 0.27446 0.0
H398 H 0.53068 0.05674 0.24216 0.0
O399 O 0.57448 0.1205 0.28244 0.0
O400 O 0.58139 0.13344 0.19586 0.0
H401 H 0.56196 0.10249 0.04134 0.0
H402 H 0.54725 0.08251 0.02433 0.0
C403 C 0.5496 0.09325 0.04876 0.0
H404 H 0.54183 0.09725 0.02982 0.0
H405 H 0.58936 0.13718 0.0648 0.0
O406 O 0.54312 0.09635 0.35039 0.0
C407 C 0.58489 0.13042 0.2473 0.0
Co408 Co 0.44746 0.89347 0.72516 0.0
Co409 Co 0.43886 0.87771 0.85187 0.0
C410 C 0.41451 0.86935 0.75838 0.0
O411 O 0.42484 0.87861 0.72168 0.0
O412 O 0.41814 0.86796 0.81177 0.0
C413 C 0.44209 0.90887 0.6309 0.0
O414 O 0.43084 0.90699 0.66755 0.0
C415 C 0.42632 0.87433 0.97232 0.0
C416 C 0.44007 0.86606 0.02304 0.0
C417 C 0.42937 0.87121 0.02992 0.0
N418 N 0.43524 0.8717 0.93381 0.0
N419 N 0.44313 0.86637 0.96415 0.0
C420 C 0.41515 0.8797 0.95348 0.0
H421 H 0.40873 0.87327 0.91271 0.0
H422 H 0.42176 0.89234 0.94197 0.0
H423 H 0.40656 0.87769 0.98939 0.0
C424 C 0.46105 0.92233 0.79815 0.0
N425 N 0.45281 0.90661 0.79258 0.0
N426 N 0.4499 0.90012 0.84612 0.0
C427 C 0.45658 0.91161 0.88751 0.0
C428 C 0.46356 0.92596 0.85853 0.0
C429 C 0.46648 0.93349 0.74641 0.0
H430 H 0.47324 0.93044 0.71485 0.0
H431 H 0.45612 0.9323 0.72214 0.0
H432 H 0.47377 0.94586 0.76098 0.0
O433 O 0.45884 0.8817 0.72786 0.0
O434 O 0.45163 0.86943 0.81583 0.0
H435 H 0.45982 0.89872 0.95848 0.0
H436 H 0.4688 0.91946 0.97206 0.0
C437 C 0.4584 0.90911 0.95255 0.0
H438 H 0.44794 0.90736 0.97745 0.0
H439 H 0.45124 0.86377 0.94507 0.0
O440 O 0.45202 0.90507 0.64871 0.0
C441 C 0.45912 0.87233 0.76658 0.0
Co442 Co 0.10477 0.5526 0.70383 0.0
Co443 Co 0.11847 0.55878 0.83359 0.0
C444 C 0.12765 0.54268 0.74364 0.0
O445 O 0.119 0.54412 0.70499 0.0
O446 O 0.12856 0.54766 0.79687 0.0
C447 C 0.08943 0.53168 0.6102 0.0
O448 O 0.0902 0.52205 0.64904 0.0
C449 C 0.12214 0.54984 0.95405 0.0
C450 C 0.12711 0.57082 0.00674 0.0
C451 C 0.12412 0.55553 0.01213 0.0
N452 N 0.12341 0.56107 0.91646 0.0
N453 N 0.12677 0.57372 0.948 0.0
C454 C 0.1192 0.53408 0.93381 0.0
H455 H 0.12889 0.53574 0.9038 0.0
H456 H 0.10823 0.52813 0.90718 0.0
H457 H 0.11864 0.52659 0.9719 0.0
C458 C 0.07483 0.53802 0.77017 0.0
N459 N 0.09058 0.54504 0.7683 0.0
N460 N 0.09617 0.54764 0.82329 0.0
C461 C 0.08405 0.54242 0.86205 0.0
C462 C 0.07018 0.53612 0.82954 0.0
C463 C 0.06458 0.53437 0.71612 0.0
H464 H 0.07025 0.54402 0.68304 0.0
H465 H 0.06299 0.52346 0.69506 0.0
H466 H 0.05289 0.53266 0.7281 0.0
O467 O 0.11719 0.57565 0.70652 0.0
O468 O 0.12727 0.58008 0.79843 0.0
H469 H 0.09405 0.55553 0.94252 0.0
H470 H 0.07437 0.53928 0.95202 0.0
C471 C 0.08569 0.54331 0.92885 0.0
H472 H 0.09028 0.53567 0.94369 0.0
H473 H 0.12803 0.58405 0.92972 0.0
O474 O 0.0941 0.54575 0.62588 0.0
C475 C 0.1257 0.58505 0.74759 0.0
Co476 Co 0.44733 0.55128 0.71531 0.0
Co477 Co 0.43821 0.55761 0.84218 0.0
C478 C 0.45668 0.58376 0.75783 0.0
O479 O 0.45594 0.57396 0.71925 0.0
O480 O 0.4505 0.57928 0.80933 0.0
C481 C 0.46921 0.55809 0.62275 0.0
O482 O 0.47832 0.56926 0.6602 0.0
C483 C 0.44398 0.56751 0.96699 0.0
C484 C 0.42093 0.55174 0.0081 0.0
C485 C 0.43634 0.56278 0.02179 0.0
N486 N 0.43366 0.55929 0.92354 0.0
N487 N 0.4198 0.55025 0.94817 0.0
C488 C 0.46115 0.57812 0.95594 0.0
H489 H 0.46441 0.57612 0.91056 0.0
H490 H 0.46826 0.57628 0.99013 0.0
H491 H 0.46388 0.59049 0.95899 0.0
C492 C 0.46038 0.53531 0.78711 0.0
N493 N 0.45327 0.54391 0.7825 0.0
N494 N 0.44905 0.54601 0.83614 0.0
C495 C 0.453 0.53836 0.87655 0.0
C496 C 0.46043 0.5315 0.84678 0.0
C497 C 0.46613 0.5301 0.73482 0.0
H498 H 0.45706 0.52546 0.69918 0.0
H499 H 0.47679 0.54035 0.71631 0.0
H500 H 0.469 0.52094 0.74781 0.0
O501 O 0.42424 0.54094 0.70996 0.0
O502 O 0.41793 0.54597 0.79959 0.0
H503 H 0.43765 0.53533 0.94986 0.0
H504 H 0.45095 0.52824 0.96512 0.0
C505 C 0.4497 0.53754 0.94237 0.0
H506 H 0.45819 0.5488 0.96342 0.0
H507 H 0.40981 0.54231 0.92443 0.0
O508 O 0.45547 0.5479 0.63939 0.0
C509 C 0.41404 0.53993 0.74754 0.0
Co510 Co 0.55581 0.77522 0.59571 0.0
Co511 Co 0.53849 0.7691 0.47303 0.0
C512 C 0.53049 0.74311 0.55738 0.0
O513 O 0.54005 0.75284 0.59512 0.0
O514 O 0.52901 0.74739 0.50513 0.0
C515 C 0.57021 0.76791 0.69099 0.0
O516 O 0.56527 0.7548 0.66087 0.0
C517 C 0.53337 0.76101 0.34637 0.0
C518 C 0.52545 0.77714 0.31415 0.0
C519 C 0.53011 0.76671 0.29475 0.0
N520 N 0.53117 0.76811 0.3937 0.0
N521 N 0.52593 0.77733 0.37433 0.0
C522 C 0.54045 0.75067 0.35071 0.0
H523 H 0.54579 0.75173 0.39551 0.0
H524 H 0.54938 0.75358 0.31522 0.0
H525 H 0.53109 0.73831 0.34404 0.0
C526 C 0.5836 0.7895 0.51828 0.0
N527 N 0.56796 0.78141 0.52574 0.0
N528 N 0.56097 0.77979 0.47375 0.0
C529 C 0.57213 0.78723 0.43153 0.0
C530 C 0.58672 0.79336 0.45834 0.0
C531 C 0.59519 0.79378 0.56818 0.0
H532 H 0.59392 0.80181 0.59958 0.0
H533 H 0.59261 0.78304 0.59338 0.0
H534 H 0.60742 0.79948 0.55136 0.0
O535 O 0.54499 0.78728 0.60457 0.0
O536 O 0.53099 0.78106 0.52067 0.0
H537 H 0.55883 0.79213 0.36742 0.0
H538 H 0.57947 0.8014 0.35126 0.0
C539 C 0.56921 0.79059 0.36886 0.0
H540 H 0.5673 0.78077 0.33924 0.0
H541 H 0.52385 0.78466 0.40185 0.0
O542 O 0.5685 0.77883 0.6685 0.0
C543 C 0.53488 0.78797 0.5712 0.0
Co544 Co 0.22226 0.78191 0.61455 0.0
Co545 Co 0.22662 0.77009 0.4906 0.0
C546 C 0.25367 0.78804 0.57163 0.0
O547 O 0.24461 0.78853 0.61092 0.0
O548 O 0.24855 0.78169 0.52081 0.0
C549 C 0.23035 0.80394 0.70908 0.0
O550 O 0.24306 0.81221 0.67694 0.0
C551 C 0.23522 0.77327 0.36484 0.0
C552 C 0.21911 0.74943 0.33066 0.0
C553 C 0.23012 0.76447 0.31262 0.0
N554 N 0.22733 0.7639 0.41104 0.0
N555 N 0.21803 0.74957 0.39064 0.0
C556 C 0.24598 0.7906 0.37077 0.0
H557 H 0.24452 0.79479 0.41513 0.0
H558 H 0.24378 0.797 0.33463 0.0
H559 H 0.25829 0.79321 0.36671 0.0
C560 C 0.2084 0.79648 0.53916 0.0
N561 N 0.21562 0.78803 0.54576 0.0
N562 N 0.21676 0.78259 0.49327 0.0
C563 C 0.20989 0.78714 0.45166 0.0
C564 C 0.20465 0.79627 0.47925 0.0
C565 C 0.20531 0.80461 0.58947 0.0
H566 H 0.19748 0.79576 0.62272 0.0
H567 H 0.21652 0.81262 0.61231 0.0
H568 H 0.19988 0.81148 0.57353 0.0
O569 O 0.21024 0.75893 0.62465 0.0
O570 O 0.21412 0.75065 0.53729 0.0
H571 H 0.19602 0.78146 0.37086 0.0
H572 H 0.2166 0.7892 0.35955 0.0
C573 C 0.20654 0.78136 0.38832 0.0
H574 H 0.20448 0.76926 0.38547 0.0
H575 H 0.21029 0.74013 0.41721 0.0
O576 O 0.21935 0.79114 0.68804 0.0
C577 C 0.20825 0.74787 0.5897 0.0
Co578 Co 0.21758 0.43898 0.62103 0.0
Co579 Co 0.22681 0.45284 0.49208 0.0
C580 C 0.20946 0.46259 0.57317 0.0
O581 O 0.20998 0.45397 0.61438 0.0
O582 O 0.21519 0.46313 0.52162 0.0
C583 C 0.19539 0.4247 0.71348 0.0
O584 O 0.18663 0.42722 0.67575 0.0
C585 C 0.22132 0.45663 0.36691 0.0
C586 C 0.24374 0.46174 0.32532 0.0
C587 C 0.22867 0.45858 0.31198 0.0
N588 N 0.23146 0.45816 0.41021 0.0
N589 N 0.24499 0.46167 0.38528 0.0
C590 C 0.20441 0.45144 0.37839 0.0
H591 H 0.20091 0.44634 0.42393 0.0
H592 H 0.19674 0.44267 0.34462 0.0
H593 H 0.20272 0.46174 0.37513 0.0
C594 C 0.20319 0.4091 0.55371 0.0
N595 N 0.21094 0.42488 0.5559 0.0
N596 N 0.2151 0.43055 0.50133 0.0
C597 C 0.21034 0.41846 0.46268 0.0
C598 C 0.20258 0.40452 0.49467 0.0
C599 C 0.19738 0.39869 0.6076 0.0
H600 H 0.20656 0.40325 0.64282 0.0
H601 H 0.18692 0.39877 0.62568 0.0
H602 H 0.19414 0.38645 0.5965 0.0
O603 O 0.2407 0.45078 0.62575 0.0
O604 O 0.24707 0.46122 0.53467 0.0
H605 H 0.2253 0.42909 0.38667 0.0
H606 H 0.2103 0.40904 0.37425 0.0
C607 C 0.21297 0.42016 0.3963 0.0
H608 H 0.20512 0.42392 0.37622 0.0
H609 H 0.25473 0.46303 0.40896 0.0
O610 O 0.20912 0.42803 0.69772 0.0
C611 C 0.25096 0.45935 0.58716 0.0
H612 H 0.08905 0.18905 0.46215 0.0
H613 H 0.08668 0.19864 0.56033 0.0
H614 H 0.08715 0.23838 0.4766 0.0
H615 H 0.09001 0.22914 0.37882 0.0
H616 H 0.10786 0.24783 0.56185 0.0
H617 H 0.05403 0.21034 0.54848 0.0
H618 H 0.03046 0.1847 0.5296 0.0
H619 H 0.0436 0.16411 0.67151 0.0
H620 H 0.06739 0.18956 0.69069 0.0
H621 H 0.08094 0.24082 0.90102 0.0
H622 H 0.07588 0.23987 0.79362 0.0
H623 H 0.12067 0.24359 0.75738 0.0
H624 H 0.12586 0.24462 0.86468 0.0
H625 H 0.07243 0.21622 0.72689 0.0
H626 H 0.13339 0.25884 0.61701 0.0
H627 H 0.15567 0.28555 0.63198 0.0
H628 H 0.1263 0.29776 0.73359 0.0
H629 H 0.10374 0.27123 0.71811 0.0
C630 C 0.08824 0.19962 0.46464 0.0
C631 C 0.08939 0.20814 0.41262 0.0
C632 C 0.08682 0.20505 0.5207 0.0
C633 C 0.08653 0.21913 0.52575 0.0
C634 C 0.08717 0.22741 0.47367 0.0
C635 C 0.08861 0.22197 0.4176 0.0
C636 C 0.08737 0.226 0.58564 0.0
C637 C 0.10006 0.24099 0.59793 0.0
C638 C 0.07686 0.21726 0.63215 0.0
C639 C 0.06256 0.20188 0.62082 0.0
C640 C 0.05197 0.20033 0.57539 0.0
C641 C 0.03855 0.18582 0.56468 0.0
C642 C 0.03554 0.17278 0.59929 0.0
C643 C 0.04594 0.17422 0.64475 0.0
C644 C 0.05939 0.1887 0.65562 0.0
C645 C 0.08992 0.24188 0.87023 0.0
C646 C 0.10373 0.24259 0.89138 0.0
C647 C 0.08698 0.24131 0.80882 0.0
C648 C 0.09787 0.24163 0.7675 0.0
C649 C 0.11217 0.2435 0.78841 0.0
C650 C 0.11509 0.244 0.84983 0.0
C651 C 0.09347 0.2377 0.70374 0.0
C652 C 0.0801 0.22322 0.6907 0.0
C653 C 0.10326 0.24701 0.65644 0.0
C654 C 0.11687 0.26295 0.6668 0.0
C655 C 0.13165 0.26722 0.64239 0.0
C656 C 0.14434 0.28235 0.65094 0.0
C657 C 0.14242 0.29333 0.68389 0.0
C658 C 0.12779 0.28922 0.70827 0.0
C659 C 0.11504 0.27412 0.69969 0.0
H660 H 0.15226 0.30504 0.69044 0.0
H661 H 0.02514 0.16157 0.59093 0.0
H662 H 0.78398 0.86685 0.41107 0.0
H663 H 0.7787 0.85645 0.51206 0.0
H664 H 0.80659 0.9032 0.58295 0.0
H665 H 0.81328 0.91364 0.48122 0.0
H666 H 0.80669 0.88073 0.65828 0.0
H667 H 0.76728 0.88992 0.55431 0.0
H668 H 0.75249 0.8858 0.46018 0.0
H669 H 0.73207 0.83596 0.47934 0.0
H670 H 0.74657 0.8398 0.57395 0.0
H671 H 0.75283 0.88218 0.8894 0.0
H672 H 0.75847 0.88195 0.78281 0.0
H673 H 0.7695 0.84532 0.81427 0.0
H674 H 0.76375 0.84533 0.92069 0.0
H675 H 0.74947 0.85938 0.68661 0.0
H676 H 0.80605 0.85937 0.7453 0.0
H677 H 0.82394 0.86485 0.83099 0.0
H678 H 0.8118 0.8981 0.90007 0.0
H679 H 0.79405 0.89301 0.81438 0.0
C680 C 0.7899 0.87489 0.4475 0.0
C681 C 0.79932 0.89112 0.43766 0.0
C682 C 0.78659 0.8689 0.50564 0.0
C683 C 0.79195 0.87909 0.55495 0.0
C684 C 0.80231 0.89512 0.5455 0.0
C685 C 0.806 0.90108 0.4873 0.0
C686 C 0.78464 0.87364 0.6146 0.0
C687 C 0.79417 0.87584 0.66447 0.0
C688 C 0.76832 0.86748 0.62267 0.0
C689 C 0.75791 0.86513 0.57113 0.0
C690 C 0.7594 0.87808 0.5389 0.0
C691 C 0.75116 0.87581 0.48533 0.0
C692 C 0.74142 0.86063 0.46366 0.0
C693 C 0.73964 0.8477 0.49617 0.0
C694 C 0.74773 0.84991 0.55004 0.0
C695 C 0.75597 0.87373 0.87333 0.0
C696 C 0.75805 0.86393 0.91357 0.0
C697 C 0.75915 0.87359 0.81242 0.0
C698 C 0.76461 0.86379 0.79107 0.0
C699 C 0.76539 0.85304 0.83014 0.0
C700 C 0.76205 0.85304 0.89093 0.0
C701 C 0.77153 0.86641 0.73047 0.0
C702 C 0.76193 0.86386 0.68043 0.0
C703 C 0.78782 0.87234 0.72241 0.0
C704 C 0.7986 0.87567 0.77379 0.0
C705 C 0.80724 0.86788 0.77871 0.0
C706 C 0.81737 0.87094 0.82722 0.0
C707 C 0.81901 0.88182 0.87089 0.0
C708 C 0.81051 0.88966 0.86622 0.0
C709 C 0.80041 0.88669 0.81773 0.0
H710 H 0.8269 0.88421 0.90828 0.0
H711 H 0.73512 0.85887 0.42202 0.0
H712 H 0.15639 0.91185 0.87814 0.0
H713 H 0.15727 0.91679 0.77049 0.0
H714 H 0.11694 0.87083 0.74448 0.0
H715 H 0.11602 0.86574 0.85175 0.0
H716 H 0.13716 0.87925 0.65091 0.0
H717 H 0.11223 0.90149 0.7713 0.0
H718 H 0.11101 0.9183 0.85056 0.0
H719 H 0.1481 0.95911 0.76519 0.0
H720 H 0.14975 0.94248 0.68599 0.0
H721 H 0.09047 0.9007 0.44043 0.0
H722 H 0.10129 0.90258 0.54076 0.0
H723 H 0.14384 0.90793 0.4633 0.0
H724 H 0.13282 0.90528 0.36347 0.0
H725 H 0.12641 0.92242 0.60658 0.0
H726 H 0.15425 0.88455 0.54834 0.0
H727 H 0.15249 0.86582 0.47127 0.0
H728 H 0.10486 0.85343 0.43406 0.0
H729 H 0.10615 0.87165 0.51261 0.0
C730 C 0.14801 0.90259 0.84931 0.0
C731 C 0.13595 0.88849 0.8735 0.0
C732 C 0.14849 0.90549 0.78785 0.0
C733 C 0.13697 0.89431 0.7499 0.0
C734 C 0.12589 0.87965 0.77315 0.0
C735 C 0.12536 0.87676 0.8345 0.0
C736 C 0.13516 0.89837 0.68777 0.0
C737 C 0.13506 0.88884 0.64098 0.0
C738 C 0.13215 0.91073 0.67523 0.0
C739 C 0.13125 0.92072 0.72314 0.0
C740 C 0.12024 0.91402 0.76977 0.0
C741 C 0.11945 0.92352 0.81463 0.0
C742 C 0.12948 0.93975 0.81292 0.0
C743 C 0.14036 0.94652 0.76647 0.0
C744 C 0.14124 0.93707 0.72163 0.0
C745 C 0.10228 0.90268 0.44488 0.0
C746 C 0.11087 0.90311 0.39404 0.0
C747 C 0.10848 0.90382 0.50213 0.0
C748 C 0.12331 0.90526 0.50939 0.0
C749 C 0.13235 0.90676 0.45862 0.0
C750 C 0.1261 0.90548 0.40141 0.0
C751 C 0.12838 0.90327 0.56962 0.0
C752 C 0.12899 0.91314 0.61613 0.0
C753 C 0.13151 0.89098 0.58215 0.0
C754 C 0.13041 0.87969 0.53565 0.0
C755 C 0.14338 0.87779 0.52386 0.0
C756 C 0.14245 0.86724 0.47994 0.0
C757 C 0.12861 0.85854 0.44729 0.0
C758 C 0.1156 0.86024 0.45911 0.0
C759 C 0.11641 0.87064 0.50348 0.0
H760 H 0.12794 0.85044 0.41308 0.0
H761 H 0.12876 0.9471 0.84739 0.0
H762 H 0.19895 0.07954 0.58524 0.0
H763 H 0.21047 0.08074 0.48654 0.0
H764 H 0.22924 0.13084 0.4819 0.0
H765 H 0.21766 0.12967 0.57962 0.0
H766 H 0.21613 0.11834 0.37984 0.0
H767 H 0.25157 0.11472 0.51269 0.0
H768 H 0.2607 0.10416 0.59327 0.0
H769 H 0.24624 0.06213 0.49122 0.0
H770 H 0.23688 0.07242 0.41013 0.0
H771 H 0.25589 0.12957 0.11467 0.0
H772 H 0.25575 0.13168 0.22371 0.0
H773 H 0.23238 0.08127 0.23857 0.0
H774 H 0.23292 0.07909 0.12982 0.0
H775 H 0.25059 0.09604 0.33828 0.0
H776 H 0.21136 0.09943 0.21347 0.0
H777 H 0.20311 0.11129 0.1343 0.0
H778 H 0.22611 0.15549 0.22649 0.0
H779 H 0.23471 0.14395 0.30561 0.0
C780 C 0.20554 0.09077 0.56296 0.0
C781 C 0.20745 0.1045 0.5898 0.0
C782 C 0.21217 0.09146 0.5069 0.0
C783 C 0.22089 0.10592 0.4774 0.0
C784 C 0.22256 0.11958 0.50393 0.0
C785 C 0.21587 0.11887 0.55954 0.0
C786 C 0.22786 0.10684 0.41786 0.0
C787 C 0.22388 0.11369 0.3711 0.0
C788 C 0.23787 0.10064 0.4065 0.0
C789 C 0.24345 0.09435 0.4553 0.0
C790 C 0.25027 0.10321 0.50744 0.0
C791 C 0.2555 0.09727 0.55326 0.0
C792 C 0.25404 0.08247 0.54741 0.0
C793 C 0.24737 0.0736 0.49568 0.0
C794 C 0.24212 0.0795 0.44972 0.0
C795 C 0.25126 0.11898 0.14135 0.0
C796 C 0.24405 0.10415 0.11391 0.0
C797 C 0.25119 0.1202 0.20356 0.0
C798 C 0.2436 0.1066 0.23882 0.0
C799 C 0.23816 0.09189 0.21199 0.0
C800 C 0.23845 0.09067 0.14977 0.0
C801 C 0.23874 0.10744 0.30068 0.0
C802 C 0.24301 0.10085 0.34762 0.0
C803 C 0.22911 0.11403 0.31269 0.0
C804 C 0.22382 0.12088 0.26509 0.0
C805 C 0.21474 0.11171 0.2166 0.0
C806 C 0.21 0.11838 0.17174 0.0
C807 C 0.21411 0.13416 0.17528 0.0
C808 C 0.22296 0.14329 0.2237 0.0
C809 C 0.22777 0.13669 0.26853 0.0
H810 H 0.21043 0.13932 0.14065 0.0
H811 H 0.25808 0.07787 0.58293 0.0
H812 H 0.87528 0.08416 0.54269 0.0
H813 H 0.87587 0.09402 0.44218 0.0
H814 H 0.92276 0.1324 0.47294 0.0
H815 H 0.92232 0.12242 0.57411 0.0
H816 H 0.90359 0.14219 0.42095 0.0
H817 H 0.91807 0.10352 0.38455 0.0
H818 H 0.91641 0.07774 0.39147 0.0
H819 H 0.87114 0.05592 0.30726 0.0
H820 H 0.87241 0.08155 0.30065 0.0
H821 H 0.91593 0.1567 0.0997 0.0
H822 H 0.91696 0.15392 0.20819 0.0
H823 H 0.86927 0.11549 0.20646 0.0
H824 H 0.86809 0.11815 0.09828 0.0
H825 H 0.89152 0.10754 0.244 0.0
H826 H 0.87742 0.14703 0.28276 0.0
H827 H 0.88007 0.17323 0.27464 0.0
H828 H 0.92618 0.19411 0.35149 0.0
H829 H 0.92389 0.16804 0.35929 0.0
C830 C 0.88582 0.09459 0.52794 0.0
C831 C 0.8987 0.10261 0.56651 0.0
C832 C 0.88611 0.10024 0.47054 0.0
C833 C 0.89937 0.11392 0.45017 0.0
C834 C 0.91238 0.12188 0.48814 0.0
C835 C 0.91209 0.1162 0.54586 0.0
C836 C 0.8994 0.11974 0.3891 0.0
C837 C 0.90122 0.13475 0.38199 0.0
C838 C 0.89613 0.10992 0.33861 0.0
C839 C 0.89529 0.09445 0.34256 0.0
C840 C 0.9077 0.09321 0.36796 0.0
C841 C 0.90684 0.07862 0.37175 0.0
C842 C 0.89366 0.06519 0.34994 0.0
C843 C 0.88133 0.06633 0.32419 0.0
C844 C 0.88212 0.08089 0.32036 0.0
C845 C 0.90546 0.14804 0.12266 0.0
C846 C 0.89204 0.13738 0.0903 0.0
C847 C 0.90608 0.14648 0.1847 0.0
C848 C 0.89327 0.13435 0.21494 0.0
C849 C 0.87932 0.12483 0.18364 0.0
C850 C 0.87867 0.12639 0.12182 0.0
C851 C 0.89522 0.12978 0.27597 0.0
C852 C 0.89392 0.11502 0.28289 0.0
C853 C 0.89914 0.13991 0.32582 0.0
C854 C 0.90055 0.15559 0.32096 0.0
C855 C 0.88819 0.15722 0.29734 0.0
C856 C 0.88961 0.17204 0.29295 0.0
C857 C 0.90331 0.18533 0.31236 0.0
C858 C 0.91559 0.18381 0.33637 0.0
C859 C 0.91423 0.16901 0.34084 0.0
H860 H 0.90438 0.19679 0.30895 0.0
H861 H 0.89302 0.05391 0.35288 0.0
H862 H 0.83624 0.75031 0.09327 0.0
H863 H 0.83334 0.75202 0.20137 0.0
H864 H 0.88116 0.76285 0.22757 0.0
H865 H 0.884 0.76073 0.12023 0.0
H866 H 0.86375 0.74676 0.32094 0.0
H867 H 0.87158 0.79197 0.20221 0.0
H868 H 0.86411 0.80466 0.12381 0.0
H869 H 0.82005 0.78956 0.21171 0.0
H870 H 0.82721 0.77663 0.29041 0.0
H871 H 0.89549 0.81355 0.52886 0.0
H872 H 0.8842 0.80394 0.4295 0.0
H873 H 0.84714 0.76169 0.50899 0.0
H874 H 0.85856 0.77088 0.60757 0.0
H875 H 0.8542 0.79066 0.36738 0.0
H876 H 0.84793 0.73302 0.44009 0.0
H877 H 0.85647 0.72336 0.5263 0.0
H878 H 0.90037 0.76667 0.53111 0.0
H879 H 0.89217 0.77645 0.44451 0.0
C880 C 0.84599 0.75262 0.12223 0.0
C881 C 0.86046 0.75572 0.09809 0.0
C882 C 0.84433 0.75363 0.18398 0.0
C883 C 0.85717 0.75797 0.22229 0.0
C884 C 0.87112 0.75959 0.19882 0.0
C885 C 0.87274 0.75842 0.13727 0.0
C886 C 0.85696 0.76285 0.28491 0.0
C887 C 0.86139 0.75616 0.33108 0.0
C888 C 0.85404 0.77525 0.29842 0.0
C889 C 0.84984 0.78319 0.25167 0.0
C890 C 0.86027 0.7913 0.20461 0.0
C891 C 0.85609 0.79853 0.16015 0.0
C892 C 0.84159 0.79786 0.16265 0.0
C893 C 0.83126 0.79004 0.20979 0.0
C894 C 0.83537 0.78276 0.25432 0.0
C895 C 0.88465 0.80245 0.52522 0.0
C896 C 0.87786 0.79307 0.57606 0.0
C897 C 0.87815 0.79704 0.4686 0.0
C898 C 0.86489 0.7821 0.46217 0.0
C899 C 0.85733 0.77329 0.51328 0.0
C900 C 0.86384 0.77865 0.5698 0.0
C901 C 0.86101 0.77461 0.40257 0.0
C902 C 0.85599 0.78089 0.35725 0.0
C903 C 0.86361 0.76203 0.38956 0.0
C904 C 0.86941 0.75545 0.43612 0.0
C905 C 0.8595 0.74034 0.45892 0.0
C906 C 0.86426 0.73489 0.508 0.0
C907 C 0.87891 0.74444 0.53432 0.0
C908 C 0.88901 0.7593 0.51075 0.0
C909 C 0.88434 0.76478 0.4616 0.0
H910 H 0.88239 0.74038 0.57324 0.0
H911 H 0.83836 0.80341 0.12815 0.0
H912 H 0.75073 0.56847 0.24804 0.0
H913 H 0.74528 0.5637 0.14096 0.0
H914 H 0.79278 0.57408 0.11051 0.0
H915 H 0.79826 0.57856 0.21757 0.0
H916 H 0.75674 0.57726 0.02835 0.0
H917 H 0.79085 0.54351 0.03748 0.0
H918 H 0.79894 0.5307 0.11327 0.0
H919 H 0.7596 0.52193 0.22326 0.0
H920 H 0.75112 0.53443 0.14768 0.0
H921 H 0.77494 0.56104 0.74338 0.0
H922 H 0.7725 0.56868 0.84455 0.0
H923 H 0.74394 0.51986 0.89324 0.0
H924 H 0.74709 0.51224 0.79159 0.0
H925 H 0.76495 0.53316 0.97103 0.0
H926 H 0.72917 0.54673 0.88595 0.0
H927 H 0.71934 0.55853 0.81273 0.0
H928 H 0.75715 0.60444 0.85702 0.0
H929 H 0.76735 0.59292 0.9299 0.0
C930 C 0.76018 0.57025 0.21834 0.0
C931 C 0.77483 0.57351 0.24127 0.0
C932 C 0.75703 0.56754 0.15713 0.0
C933 C 0.76851 0.56816 0.11836 0.0
C934 C 0.78369 0.57328 0.14014 0.0
C935 C 0.78681 0.57584 0.20127 0.0
C936 C 0.76411 0.56115 0.05799 0.0
C937 C 0.75848 0.56761 0.01549 0.0
C938 C 0.76575 0.54812 0.04243 0.0
C939 C 0.77043 0.54003 0.0871 0.0
C940 C 0.78386 0.53874 0.07762 0.0
C941 C 0.78853 0.53155 0.12058 0.0
C942 C 0.77982 0.52554 0.17311 0.0
C943 C 0.76636 0.52662 0.18263 0.0
C944 C 0.76162 0.53376 0.13974 0.0
C945 C 0.76778 0.55197 0.7752 0.0
C946 C 0.76095 0.53609 0.75982 0.0
C947 C 0.76631 0.55634 0.83307 0.0
C948 C 0.75776 0.54487 0.87645 0.0
C949 C 0.75051 0.52893 0.86044 0.0
C950 C 0.75224 0.52456 0.80259 0.0
C951 C 0.75808 0.5496 0.93976 0.0
C952 C 0.76294 0.54266 0.98338 0.0
C953 C 0.75529 0.5619 0.95646 0.0
C954 C 0.74906 0.56893 0.91329 0.0
C955 C 0.73544 0.55934 0.87989 0.0
C956 C 0.7298 0.56598 0.83844 0.0
C957 C 0.73763 0.58222 0.83016 0.0
C958 C 0.75109 0.59186 0.86347 0.0
C959 C 0.75679 0.58528 0.90497 0.0
H960 H 0.73326 0.58735 0.79798 0.0
H961 H 0.78348 0.52003 0.2064 0.0
H962 H 0.41679 0.2162 0.19046 0.0
H963 H 0.41791 0.21242 0.08296 0.0
H964 H 0.4178 0.16919 0.11628 0.0
H965 H 0.4167 0.17289 0.22404 0.0
H966 H 0.44269 0.18914 0.05138 0.0
H967 H 0.38801 0.16833 0.04135 0.0
H968 H 0.36223 0.16613 0.05762 0.0
H969 H 0.37701 0.20863 0.95841 0.0
H970 H 0.40298 0.21128 0.94249 0.0
H971 H 0.43095 0.19587 0.70372 0.0
H972 H 0.42128 0.1837 0.80123 0.0
H973 H 0.46197 0.2217 0.88591 0.0
H974 H 0.47191 0.23373 0.78788 0.0
H975 H 0.4128 0.19587 0.88665 0.0
H976 H 0.4699 0.20999 0.01689 0.0
H977 H 0.49471 0.21024 0.99832 0.0
H978 H 0.47324 0.17753 0.85384 0.0
H979 H 0.44822 0.17687 0.87212 0.0
C980 C 0.41658 0.20567 0.17491 0.0
C981 C 0.41687 0.19496 0.21576 0.0
C982 C 0.41714 0.20348 0.1134 0.0
C983 C 0.41799 0.19054 0.09171 0.0
C984 C 0.41718 0.17926 0.1322 0.0
C985 C 0.4165 0.18139 0.19376 0.0
C986 C 0.42194 0.1901 0.02805 0.0
C987 C 0.43606 0.19043 0.01518 0.0
C988 C 0.4131 0.19143 0.98084 0.0
C989 C 0.39754 0.19006 0.99116 0.0
C990 C 0.38585 0.17731 0.02357 0.0
C991 C 0.37117 0.17597 0.03262 0.0
C992 C 0.36799 0.18725 0.00918 0.0
C993 C 0.37949 0.1999 0.97662 0.0
C994 C 0.3942 0.20133 0.96754 0.0
C995 C 0.43819 0.20129 0.74273 0.0
C996 C 0.45242 0.21556 0.73811 0.0
C997 C 0.43254 0.1944 0.79857 0.0
C998 C 0.44098 0.20167 0.85079 0.0
C999 C 0.45542 0.21569 0.84611 0.0
C1000 C 0.46107 0.2226 0.79022 0.0
C1001 C 0.43392 0.19573 0.91045 0.0
C1002 C 0.41925 0.19425 0.9226 0.0
C1003 C 0.44217 0.19318 0.95685 0.0
C1004 C 0.45719 0.19346 0.94568 0.0
C1005 C 0.47043 0.20278 0.98135 0.0
C1006 C 0.48454 0.20301 0.97084 0.0
C1007 C 0.48556 0.19394 0.92484 0.0
C1008 C 0.47245 0.18459 0.88933 0.0
C1009 C 0.45831 0.18431 0.89969 0.0
H1010 H 0.49649 0.19413 0.91678 0.0
H1011 H 0.35662 0.18617 0.01614 0.0
H1012 H 0.80243 0.23826 0.74934 0.0
H1013 H 0.81648 0.2437 0.84471 0.0
H1014 H 0.78038 0.24956 0.92965 0.0
H1015 H 0.76637 0.24427 0.83403 0.0
H1016 H 0.8118 0.27103 0.97074 0.0
H1017 H 0.77667 0.21458 0.92873 0.0
H1018 H 0.76866 0.19114 0.86598 0.0
H1019 H 0.81475 0.19697 0.88249 0.0
H1020 H 0.82306 0.22058 0.94475 0.0
H1021 H 0.77702 0.2274 0.23127 0.0
H1022 H 0.78428 0.2352 0.12731 0.0
H1023 H 0.83207 0.24778 0.16599 0.0
H1024 H 0.82504 0.24075 0.27194 0.0
H1025 H 0.80724 0.22246 0.05704 0.0
H1026 H 0.83903 0.27371 0.12822 0.0
H1027 H 0.84842 0.29821 0.18504 0.0
H1028 H 0.81186 0.30444 0.10912 0.0
H1029 H 0.80163 0.27948 0.05452 0.0
C1030 C 0.79781 0.24129 0.78788 0.0
C1031 C 0.78348 0.24114 0.78446 0.0
C1032 C 0.8058 0.2443 0.84227 0.0
C1033 C 0.79947 0.24707 0.89393 0.0
C1034 C 0.78552 0.24762 0.88996 0.0
C1035 C 0.77749 0.24451 0.83566 0.0
C1036 C 0.80599 0.24726 0.9536 0.0
C1037 C 0.81095 0.26051 0.98994 0.0
C1038 C 0.80562 0.23374 0.97707 0.0
C1039 C 0.80052 0.21941 0.94071 0.0
C1040 C 0.7851 0.2109 0.91866 0.0
C1041 C 0.78051 0.19759 0.88323 0.0
C1042 C 0.79121 0.1926 0.87009 0.0
C1043 C 0.80649 0.20087 0.89259 0.0
C1044 C 0.81115 0.21421 0.92794 0.0
C1045 C 0.78908 0.23179 0.2178 0.0
C1046 C 0.80047 0.2334 0.25948 0.0
C1047 C 0.79324 0.23642 0.15863 0.0
C1048 C 0.80876 0.24242 0.13966 0.0
C1049 C 0.82013 0.24359 0.18045 0.0
C1050 C 0.81606 0.2394 0.2405 0.0
C1051 C 0.81219 0.24598 0.07558 0.0
C1052 C 0.80886 0.23331 0.03784 0.0
C1053 C 0.81419 0.26011 0.05098 0.0
C1054 C 0.81938 0.27446 0.08788 0.0
C1055 C 0.83265 0.27999 0.12501 0.0
C1056 C 0.8382 0.29405 0.1566 0.0
C1057 C 0.83075 0.30288 0.15065 0.0
C1058 C 0.81764 0.29759 0.11361 0.0
C1059 C 0.81188 0.28341 0.08266 0.0
H1060 H 0.83513 0.31381 0.17483 0.0
H1061 H 0.78764 0.1823 0.84261 0.0
H1062 H 0.85945 0.40611 0.89358 0.0
H1063 H 0.8696 0.40688 0.79265 0.0
H1064 H 0.88383 0.45595 0.7786 0.0
H1065 H 0.87374 0.45524 0.87899 0.0
H1066 H 0.87086 0.4412 0.6777 0.0
H1067 H 0.91036 0.44466 0.81094 0.0
H1068 H 0.92073 0.43655 0.89575 0.0
H1069 H 0.90768 0.39297 0.80727 0.0
H1070 H 0.89697 0.40072 0.72229 0.0
H1071 H 0.916 0.45737 0.42096 0.0
H1072 H 0.91239 0.45845 0.5287 0.0
H1073 H 0.89405 0.40855 0.54146 0.0
H1074 H 0.89776 0.40735 0.4339 0.0
H1075 H 0.91033 0.42463 0.64432 0.0
H1076 H 0.86957 0.42179 0.51316 0.0
H1077 H 0.85911 0.4306 0.43082 0.0
H1078 H 0.87559 0.47488 0.51897 0.0
H1079 H 0.88639 0.46638 0.60129 0.0
C1080 C 0.86477 0.41704 0.86889 0.0
C1081 C 0.86603 0.43066 0.89434 0.0
C1082 C 0.87056 0.41748 0.81137 0.0
C1083 C 0.87775 0.43156 0.7787 0.0
C1084 C 0.8784 0.44499 0.80315 0.0
C1085 C 0.87256 0.44454 0.86041 0.0
C1086 C 0.88471 0.43241 0.71913 0.0
C1087 C 0.87966 0.43779 0.6706 0.0
C1088 C 0.89608 0.42782 0.70991 0.0
C1089 C 0.90273 0.42321 0.76047 0.0
C1090 C 0.9096 0.4333 0.80973 0.0
C1091 C 0.91555 0.42877 0.85783 0.0
C1092 C 0.91483 0.41423 0.85696 0.0
C1093 C 0.90821 0.40422 0.80789 0.0
C1094 C 0.90221 0.40868 0.75972 0.0
C1095 C 0.91167 0.4467 0.44696 0.0
C1096 C 0.90684 0.43222 0.41874 0.0
C1097 C 0.90958 0.44734 0.50848 0.0
C1098 C 0.90254 0.4335 0.54249 0.0
C1099 C 0.89938 0.41933 0.51575 0.0
C1100 C 0.90152 0.41868 0.45419 0.0
C1101 C 0.89647 0.43342 0.60313 0.0
C1102 C 0.90163 0.42814 0.65171 0.0
C1103 C 0.88533 0.43831 0.6127 0.0
C1104 C 0.87894 0.44349 0.56299 0.0
C1105 C 0.8711 0.43344 0.51462 0.0
C1106 C 0.86509 0.43838 0.46802 0.0
C1107 C 0.86671 0.4533 0.46964 0.0
C1108 C 0.87437 0.46333 0.51776 0.0
C1109 C 0.88044 0.45846 0.56438 0.0
H1110 H 0.86194 0.45706 0.4338 0.0
H1111 H 0.91943 0.41074 0.89424 0.0
H1112 H 0.57325 0.43002 0.87533 0.0
H1113 H 0.57603 0.44219 0.77718 0.0
H1114 H 0.57848 0.48277 0.86171 0.0
H1115 H 0.57493 0.47039 0.95918 0.0
H1116 H 0.55862 0.47369 0.77398 0.0
H1117 H 0.61113 0.485 0.79431 0.0
H1118 H 0.63278 0.47995 0.81571 0.0
H1119 H 0.6179 0.44689 0.67081 0.0
H1120 H 0.59601 0.45155 0.64907 0.0
H1121 H 0.58945 0.49485 0.43973 0.0
H1122 H 0.59378 0.4978 0.54792 0.0
H1123 H 0.54711 0.4589 0.57742 0.0
H1124 H 0.54266 0.45591 0.4696 0.0
H1125 H 0.59431 0.47541 0.61366 0.0
H1126 H 0.53363 0.46203 0.71196 0.0
H1127 H 0.51335 0.469 0.6892 0.0
H1128 H 0.54754 0.51068 0.59874 0.0
H1129 H 0.56808 0.50415 0.62188 0.0
C1130 C 0.57467 0.44166 0.87295 0.0
C1131 C 0.57433 0.44941 0.92518 0.0
C1132 C 0.57634 0.44864 0.81695 0.0
C1133 C 0.57774 0.46353 0.81221 0.0
C1134 C 0.5776 0.47137 0.86438 0.0
C1135 C 0.57584 0.46435 0.9203 0.0
C1136 C 0.57805 0.47025 0.75253 0.0
C1137 C 0.56652 0.47423 0.73905 0.0
C1138 C 0.58869 0.47144 0.70748 0.0
C1139 C 0.60187 0.46859 0.72025 0.0
C1140 C 0.61241 0.47657 0.76725 0.0
C1141 C 0.62474 0.47379 0.77941 0.0
C1142 C 0.62671 0.46309 0.74468 0.0
C1143 C 0.61636 0.45517 0.69766 0.0
C1144 C 0.604 0.4579 0.68534 0.0
C1145 C 0.57994 0.48722 0.46928 0.0
C1146 C 0.56578 0.475 0.4462 0.0
C1147 C 0.58247 0.4889 0.53105 0.0
C1148 C 0.57081 0.47854 0.57058 0.0
C1149 C 0.55623 0.46712 0.54772 0.0
C1150 C 0.55372 0.46537 0.48603 0.0
C1151 C 0.57442 0.47809 0.63462 0.0
C1152 C 0.58665 0.47525 0.64893 0.0
C1153 C 0.56465 0.47828 0.6806 0.0
C1154 C 0.55239 0.4825 0.66825 0.0
C1155 C 0.53686 0.47274 0.68762 0.0
C1156 C 0.5253 0.4766 0.67453 0.0
C1157 C 0.52914 0.49021 0.64218 0.0
C1158 C 0.54457 0.50009 0.62346 0.0
C1159 C 0.55616 0.4963 0.63652 0.0
H1160 H 0.52018 0.49314 0.63165 0.0
H1161 H 0.63626 0.46095 0.75417 0.0
H1162 H 0.53857 0.07856 0.44803 0.0
H1163 H 0.53875 0.08122 0.55697 0.0
H1164 H 0.51422 0.10714 0.53963 0.0
H1165 H 0.51321 0.10367 0.43151 0.0
H1166 H 0.55486 0.10738 0.60687 0.0
H1167 H 0.49881 0.11009 0.66892 0.0
H1168 H 0.47068 0.09647 0.6432 0.0
H1169 H 0.47266 0.05538 0.59314 0.0
H1170 H 0.50074 0.06868 0.61926 0.0
H1171 H 0.57226 0.15061 0.87132 0.0
H1172 H 0.56219 0.14196 0.76958 0.0
H1173 H 0.52655 0.09735 0.83972 0.0
H1174 H 0.53619 0.10612 0.94068 0.0
H1175 H 0.51494 0.10469 0.7493 0.0
H1176 H 0.56198 0.10287 0.78736 0.0
H1177 H 0.58963 0.11344 0.81658 0.0
H1178 H 0.60441 0.14666 0.67224 0.0
H1179 H 0.57681 0.13638 0.64244 0.0
C1180 C 0.53267 0.08425 0.46788 0.0
C1181 C 0.52595 0.09097 0.43164 0.0
C1182 C 0.53285 0.08586 0.52998 0.0
C1183 C 0.52662 0.0945 0.55659 0.0
C1184 C 0.51887 0.10019 0.52053 0.0
C1185 C 0.51833 0.09823 0.45854 0.0
C1186 C 0.53031 0.09956 0.61991 0.0
C1187 C 0.54605 0.10663 0.63802 0.0
C1188 C 0.51888 0.09862 0.66078 0.0
C1189 C 0.50193 0.09044 0.64562 0.0
C1190 C 0.49323 0.09813 0.65271 0.0
C1191 C 0.47729 0.09047 0.63798 0.0
C1192 C 0.4699 0.07509 0.6164 0.0
C1193 C 0.47841 0.06732 0.60965 0.0
C1194 C 0.49435 0.07492 0.62432 0.0
C1195 C 0.56202 0.13914 0.86486 0.0
C1196 C 0.55488 0.12912 0.91375 0.0
C1197 C 0.55634 0.13417 0.80692 0.0
C1198 C 0.54378 0.1189 0.79706 0.0
C1199 C 0.53619 0.10919 0.84624 0.0
C1200 C 0.5417 0.11425 0.90407 0.0
C1201 C 0.53943 0.11246 0.73569 0.0
C1202 C 0.52364 0.10528 0.71796 0.0
C1203 C 0.55071 0.1128 0.6956 0.0
C1204 C 0.56733 0.11896 0.71309 0.0
C1205 C 0.57112 0.11249 0.76206 0.0
C1206 C 0.58678 0.11841 0.77866 0.0
C1207 C 0.59876 0.13073 0.74631 0.0
C1208 C 0.59511 0.13712 0.69719 0.0
C1209 C 0.57946 0.13124 0.68041 0.0
H1210 H 0.61088 0.13531 0.75924 0.0
H1211 H 0.45756 0.06918 0.60499 0.0
H1212 H 0.46285 0.91277 0.54201 0.0
H1213 H 0.45807 0.91154 0.43433 0.0
H1214 H 0.41415 0.91007 0.46635 0.0
H1215 H 0.41881 0.91128 0.57416 0.0
H1216 H 0.41007 0.88536 0.40265 0.0
H1217 H 0.44219 0.94025 0.38981 0.0
H1218 H 0.46514 0.96653 0.40561 0.0
H1219 H 0.49428 0.95288 0.31028 0.0
H1220 H 0.47158 0.92642 0.29474 0.0
H1221 H 0.427 0.89727 0.05458 0.0
H1222 H 0.42499 0.90687 0.15266 0.0
H1223 H 0.42336 0.86649 0.23561 0.0
H1224 H 0.42476 0.85647 0.13699 0.0
H1225 H 0.44605 0.9158 0.23706 0.0
H1226 H 0.40451 0.85831 0.36776 0.0
H1227 H 0.38029 0.83313 0.34989 0.0
H1228 H 0.36767 0.85392 0.20706 0.0
H1229 H 0.39167 0.8793 0.22466 0.0
C1230 C 0.45238 0.91263 0.52614 0.0
C1231 C 0.4411 0.91188 0.56664 0.0
C1232 C 0.4497 0.912 0.46451 0.0
C1233 C 0.43572 0.91064 0.44241 0.0
C1234 C 0.42499 0.91107 0.48257 0.0
C1235 C 0.42771 0.9118 0.54419 0.0
C1236 C 0.43138 0.90647 0.37882 0.0
C1237 C 0.41784 0.89209 0.36628 0.0
C1238 C 0.44135 0.91544 0.3314 0.0
C1239 C 0.45516 0.93127 0.34148 0.0
C1240 C 0.45352 0.94278 0.37274 0.0
C1241 C 0.46649 0.95773 0.38154 0.0
C1242 C 0.48116 0.96136 0.35909 0.0
C1243 C 0.4829 0.95005 0.3277 0.0
C1244 C 0.46998 0.93507 0.31883 0.0
C1245 C 0.4255 0.89003 0.09324 0.0
C1246 C 0.42564 0.87587 0.08783 0.0
C1247 C 0.42459 0.89569 0.14952 0.0
C1248 C 0.42389 0.88735 0.20145 0.0
C1249 C 0.42358 0.87298 0.19609 0.0
C1250 C 0.42444 0.8673 0.13978 0.0
C1251 C 0.42511 0.89436 0.26135 0.0
C1252 C 0.43811 0.90921 0.27322 0.0
C1253 C 0.41451 0.88594 0.30805 0.0
C1254 C 0.39997 0.87071 0.29732 0.0
C1255 C 0.39653 0.85755 0.33274 0.0
C1256 C 0.38284 0.84322 0.32262 0.0
C1257 C 0.37246 0.84192 0.27728 0.0
C1258 C 0.37574 0.85494 0.24204 0.0
C1259 C 0.3894 0.86929 0.25202 0.0
H1260 H 0.36187 0.83082 0.26952 0.0
H1261 H 0.49118 0.97293 0.36597 0.0
H1262 H 0.08619 0.54833 0.51915 0.0
H1263 H 0.08686 0.54382 0.41216 0.0
H1264 H 0.08681 0.50078 0.44932 0.0
H1265 H 0.08627 0.50527 0.55677 0.0
H1266 H 0.11099 0.51973 0.38048 0.0
H1267 H 0.05626 0.49936 0.37384 0.0
H1268 H 0.03098 0.49791 0.39454 0.0
H1269 H 0.04617 0.54094 0.29855 0.0
H1270 H 0.07164 0.54279 0.278 0.0
H1271 H 0.09858 0.52677 0.03381 0.0
H1272 H 0.08908 0.51425 0.13109 0.0
H1273 H 0.12937 0.55251 0.21655 0.0
H1274 H 0.13911 0.56492 0.11892 0.0
H1275 H 0.08051 0.52666 0.21839 0.0
H1276 H 0.13807 0.5403 0.344 0.0
H1277 H 0.16268 0.54039 0.32279 0.0
H1278 H 0.14024 0.50758 0.17931 0.0
H1279 H 0.11541 0.50709 0.2002 0.0
C1280 C 0.08592 0.5377 0.5046 0.0
C1281 C 0.08637 0.52726 0.54639 0.0
C1282 C 0.08621 0.53509 0.44336 0.0
C1283 C 0.08688 0.52195 0.42281 0.0
C1284 C 0.0863 0.51098 0.46433 0.0
C1285 C 0.08595 0.51356 0.52569 0.0
C1286 C 0.09029 0.52097 0.35893 0.0
C1287 C 0.10421 0.52101 0.34487 0.0
C1288 C 0.08125 0.52227 0.31249 0.0
C1289 C 0.06591 0.52123 0.32454 0.0
C1290 C 0.05426 0.50857 0.35745 0.0
C1291 C 0.03988 0.50767 0.36912 0.0
C1292 C 0.03697 0.51933 0.34791 0.0
C1293 C 0.04843 0.53191 0.31491 0.0
C1294 C 0.06284 0.53287 0.30314 0.0
C1295 C 0.10577 0.53218 0.07296 0.0
C1296 C 0.1198 0.54664 0.06877 0.0
C1297 C 0.10021 0.5251 0.12861 0.0
C1298 C 0.10858 0.53236 0.18093 0.0
C1299 C 0.12288 0.54654 0.1766 0.0
C1300 C 0.12841 0.55365 0.12096 0.0
C1301 C 0.10161 0.52624 0.2405 0.0
C1302 C 0.08706 0.52494 0.25375 0.0
C1303 C 0.10999 0.52359 0.28607 0.0
C1304 C 0.12488 0.52373 0.27352 0.0
C1305 C 0.13834 0.53303 0.30815 0.0
C1306 C 0.15235 0.53317 0.29613 0.0
C1307 C 0.15303 0.52402 0.24966 0.0
C1308 C 0.13971 0.5147 0.21518 0.0
C1309 C 0.12567 0.51451 0.22704 0.0
H1310 H 0.16389 0.52415 0.24042 0.0
H1311 H 0.02583 0.51861 0.357 0.0
H1312 H 0.4554 0.53573 0.53625 0.0
H1313 H 0.45783 0.53996 0.42815 0.0
H1314 H 0.494 0.58805 0.45556 0.0
H1315 H 0.4917 0.58389 0.56396 0.0
H1316 H 0.46929 0.58548 0.39109 0.0
H1317 H 0.50337 0.56505 0.38028 0.0
H1318 H 0.51329 0.54702 0.40193 0.0
H1319 H 0.47302 0.50943 0.31582 0.0
H1320 H 0.46271 0.52717 0.29439 0.0
H1321 H 0.46021 0.58981 0.07172 0.0
H1322 H 0.47295 0.5923 0.16893 0.0
H1323 H 0.44105 0.54327 0.2041 0.0
H1324 H 0.4286 0.54064 0.10716 0.0
H1325 H 0.47145 0.5517 0.23094 0.0
H1326 H 0.43525 0.57122 0.26529 0.0
H1327 H 0.42489 0.5891 0.24771 0.0
H1328 H 0.4698 0.62864 0.29159 0.0
H1329 H 0.48047 0.61098 0.30871 0.0
C1330 C 0.46419 0.54707 0.51924 0.0
C1331 C 0.47324 0.55951 0.55854 0.0
C1332 C 0.46562 0.54946 0.45743 0.0
C1333 C 0.47608 0.56434 0.43392 0.0
C1334 C 0.48588 0.5765 0.47291 0.0
C1335 C 0.48458 0.57406 0.53481 0.0
C1336 C 0.47499 0.56755 0.36988 0.0
C1337 C 0.47022 0.57843 0.35573 0.0
C1338 C 0.47604 0.55822 0.32405 0.0
C1339 C 0.48222 0.54745 0.33605 0.0
C1340 C 0.49657 0.55292 0.36628 0.0
C1341 C 0.50227 0.54275 0.37845 0.0
C1342 C 0.49378 0.52709 0.36039 0.0
C1343 C 0.47959 0.52157 0.32978 0.0
C1344 C 0.47382 0.53169 0.31752 0.0
C1345 C 0.45603 0.57957 0.10009 0.0
C1346 C 0.44351 0.565 0.08173 0.0
C1347 C 0.46326 0.58102 0.15559 0.0
C1348 C 0.45799 0.56793 0.19343 0.0
C1349 C 0.44539 0.55347 0.1753 0.0
C1350 C 0.43817 0.55203 0.1202 0.0
C1351 C 0.46513 0.56913 0.25294 0.0
C1352 C 0.47101 0.55908 0.26608 0.0
C1353 C 0.46512 0.57923 0.29793 0.0
C1354 C 0.45871 0.58982 0.28742 0.0
C1355 C 0.44295 0.58374 0.27063 0.0
C1356 C 0.43702 0.59383 0.26087 0.0
C1357 C 0.4467 0.61 0.26829 0.0
C1358 C 0.46233 0.61611 0.28568 0.0
C1359 C 0.46832 0.60608 0.29542 0.0
H1360 H 0.44208 0.61779 0.26076 0.0
H1361 H 0.49819 0.51924 0.37023 0.0
H1362 H 0.54714 0.79159 0.22289 0.0
H1363 H 0.55753 0.79176 0.1237 0.0
H1364 H 0.53588 0.7413 0.12923 0.0
H1365 H 0.52576 0.74116 0.23007 0.0
H1366 H 0.5649 0.75423 0.08383 0.0
H1367 H 0.51961 0.75939 0.04725 0.0
H1368 H 0.50228 0.77064 0.05786 0.0
H1369 H 0.53925 0.81526 0.99641 0.0
H1370 H 0.55686 0.80432 0.98598 0.0
H1371 H 0.56275 0.74319 0.76566 0.0
H1372 H 0.56068 0.74347 0.87443 0.0
H1373 H 0.58282 0.79396 0.87159 0.0
H1374 H 0.58456 0.79373 0.76254 0.0
H1375 H 0.55427 0.78092 0.91707 0.0
H1376 H 0.59914 0.77484 0.9475 0.0
H1377 H 0.61566 0.76279 0.93346 0.0
H1378 H 0.57881 0.71912 0.00268 0.0
H1379 H 0.56198 0.73084 0.01641 0.0
C1380 C 0.54445 0.78051 0.2027 0.0
C1381 C 0.53552 0.76633 0.23362 0.0
C1382 C 0.55042 0.78062 0.14611 0.0
C1383 C 0.54726 0.76652 0.11866 0.0
C1384 C 0.53842 0.75231 0.14964 0.0
C1385 C 0.53261 0.75222 0.20692 0.0
C1386 C 0.5531 0.76675 0.05735 0.0
C1387 C 0.56244 0.7599 0.04708 0.0
C1388 C 0.55015 0.77444 0.00982 0.0
C1389 C 0.5396 0.78107 0.01642 0.0
C1390 C 0.52408 0.77164 0.03647 0.0
C1391 C 0.5142 0.77795 0.04233 0.0
C1392 C 0.51968 0.79367 0.02799 0.0
C1393 C 0.53504 0.8031 0.00766 0.0
C1394 C 0.54496 0.79684 0.00164 0.0
C1395 C 0.56772 0.7544 0.78832 0.0
C1396 C 0.57353 0.76843 0.75561 0.0
C1397 C 0.56656 0.75454 0.85065 0.0
C1398 C 0.57145 0.76873 0.88104 0.0
C1399 C 0.57886 0.78287 0.84888 0.0
C1400 C 0.57986 0.78273 0.78661 0.0
C1401 C 0.5663 0.76862 0.94341 0.0
C1402 C 0.55691 0.77539 0.95381 0.0
C1403 C 0.56913 0.76076 0.99059 0.0
C1404 C 0.57925 0.75369 0.98252 0.0
C1405 C 0.5945 0.76263 0.95927 0.0
C1406 C 0.60394 0.75587 0.95147 0.0
C1407 C 0.59828 0.74019 0.96704 0.0
C1408 C 0.58318 0.73126 0.9906 0.0
C1409 C 0.5737 0.73796 -0.00151 0.0
H1410 H 0.6056 0.73498 0.96095 0.0
H1411 H 0.512 0.79853 0.03244 0.0
H1412 H 0.20763 0.7551 0.22788 0.0
H1413 H 0.2099 0.76558 0.12738 0.0
H1414 H 0.25924 0.7976 0.15604 0.0
H1415 H 0.25702 0.78705 0.25758 0.0
H1416 H 0.24466 0.81213 0.1031 0.0
H1417 H 0.24856 0.76658 0.06852 0.0
H1418 H 0.24157 0.73886 0.07707 0.0
H1419 H 0.19682 0.72447 0.99613 0.0
H1420 H 0.20344 0.7521 0.98791 0.0
H1421 H 0.25559 0.82293 0.77936 0.0
H1422 H 0.25698 0.82079 0.88802 0.0
H1423 H 0.20703 0.78903 0.89402 0.0
H1424 H 0.20552 0.79103 0.7856 0.0
H1425 H 0.22525 0.77597 0.92912 0.0
H1426 H 0.222 0.82256 0.96687 0.0
H1427 H 0.23023 0.85057 0.9566 0.0
H1428 H 0.2756 0.86336 0.02789 0.0
H1429 H 0.26771 0.8354 0.03782 0.0
C1430 C 0.21903 0.76424 0.21265 0.0
C1431 C 0.23215 0.77032 0.25058 0.0
C1432 C 0.22029 0.77026 0.15528 0.0
C1433 C 0.23476 0.78229 0.13423 0.0
C1434 C 0.24796 0.78835 0.17172 0.0
C1435 C 0.24668 0.78234 0.22955 0.0
C1436 C 0.23583 0.78837 0.07286 0.0
C1437 C 0.24068 0.80431 0.06476 0.0
C1438 C 0.23052 0.7781 0.02315 0.0
C1439 C 0.22646 0.76143 0.02801 0.0
C1440 C 0.23718 0.75751 0.05298 0.0
C1441 C 0.23329 0.74181 0.05769 0.0
C1442 C 0.21875 0.72991 0.03726 0.0
C1443 C 0.20807 0.73369 0.01197 0.0
C1444 C 0.2119 0.74938 0.00721 0.0
C1445 C 0.24481 0.81598 0.80405 0.0
C1446 C 0.23049 0.80683 0.77393 0.0
C1447 C 0.24563 0.81478 0.86618 0.0
C1448 C 0.23214 0.80457 0.89863 0.0
C1449 C 0.21758 0.79687 0.86945 0.0
C1450 C 0.21675 0.79802 0.80753 0.0
C1451 C 0.2335 0.79959 0.95962 0.0
C1452 C 0.22927 0.78382 0.96739 0.0
C1453 C 0.23958 0.81008 0.00847 0.0
C1454 C 0.24432 0.82688 0.00246 0.0
C1455 C 0.23379 0.83134 0.9798 0.0
C1456 C 0.23838 0.84721 0.97417 0.0
C1457 C 0.25345 0.85874 0.99141 0.0
C1458 C 0.26394 0.85442 0.01447 0.0
C1459 C 0.25941 0.83856 0.02016 0.0
H1460 H 0.25697 0.87102 0.98703 0.0
H1461 H 0.21576 0.71776 0.04093 0.0
H1462 H 0.20799 0.41443 0.79868 0.0
H1463 H 0.20479 0.41495 0.90691 0.0
H1464 H 0.16974 0.42846 0.88051 0.0
H1465 H 0.17278 0.42784 0.77198 0.0
H1466 H 0.19512 0.4499 0.94486 0.0
H1467 H 0.15954 0.39548 0.95205 0.0
H1468 H 0.14862 0.36727 0.93263 0.0
H1469 H 0.18731 0.36831 0.02565 0.0
H1470 H 0.19867 0.39659 0.04457 0.0
H1471 H 0.20629 0.46407 0.26213 0.0
H1472 H 0.19284 0.45412 0.16595 0.0
H1473 H 0.22116 0.43277 0.1317 0.0
H1474 H 0.23419 0.4422 0.22792 0.0
H1475 H 0.19091 0.41298 0.10461 0.0
H1476 H 0.22962 0.46782 0.06893 0.0
H1477 H 0.24186 0.49633 0.0857 0.0
H1478 H 0.19829 0.49427 0.04387 0.0
H1479 H 0.18574 0.46569 0.02756 0.0
C1480 C 0.19926 0.41704 0.81588 0.0
C1481 C 0.1908 0.42132 0.77699 0.0
C1482 C 0.19736 0.41723 0.87773 0.0
C1483 C 0.18704 0.42177 0.90162 0.0
C1484 C 0.17772 0.42489 0.86282 0.0
C1485 C 0.17947 0.42451 0.80086 0.0
C1486 C 0.1882 0.42591 0.96579 0.0
C1487 C 0.19375 0.44171 0.98012 0.0
C1488 C 0.18668 0.41527 0.01141 0.0
C1489 C 0.18003 0.39825 -0.00065 0.0
C1490 C 0.16583 0.38976 0.96779 0.0
C1491 C 0.15954 0.37373 0.95696 0.0
C1492 C 0.16728 0.36601 0.97777 0.0
C1493 C 0.18133 0.37431 0.00948 0.0
C1494 C 0.1877 0.39035 0.02029 0.0
C1495 C 0.20952 0.45714 0.23419 0.0
C1496 C 0.22119 0.45381 0.25256 0.0
C1497 C 0.20189 0.45153 0.17927 0.0
C1498 C 0.20598 0.44267 0.14188 0.0
C1499 C 0.21774 0.43948 0.1601 0.0
C1500 C 0.22531 0.44505 0.21474 0.0
C1501 C 0.19856 0.43704 0.08262 0.0
C1502 C 0.19182 0.42101 0.06946 0.0
C1503 C 0.19919 0.44747 0.03775 0.0
C1504 C 0.20669 0.46461 0.04792 0.0
C1505 C 0.22262 0.47343 0.06389 0.0
C1506 C 0.22962 0.4896 0.07318 0.0
C1507 C 0.22084 0.49709 0.0661 0.0
C1508 C 0.20506 0.48844 0.04953 0.0
C1509 C 0.198 0.47226 0.04026 0.0
H1510 H 0.22628 0.50961 0.07326 0.0
H1511 H 0.16237 0.3536 0.96942 0.0
H1512 H 0.21606 0.39111 0.42938 0.0
H1513 H 0.20263 0.36575 0.37759 0.0
H1514 H 0.1587 0.35628 0.45606 0.0
H1515 H 0.17208 0.38188 0.50658 0.0
H1516 H 0.1642 0.33012 0.45452 0.0
H1517 H 0.16561 0.36983 0.32493 0.0
H1518 H 0.1782 0.39488 0.26979 0.0
H1519 H 0.20529 0.37977 0.16838 0.0
H1520 H 0.1932 0.35478 0.22415 0.0
H1521 H 0.11265 0.26903 0.26268 0.0
H1522 H 0.12572 0.29385 0.31784 0.0
H1523 H 0.16849 0.30741 0.2203 0.0
H1524 H 0.1553 0.2826 0.16456 0.0
H1525 H 0.16358 0.33165 0.23227 0.0
H1526 H 0.16269 0.29225 0.35989 0.0
H1527 H 0.15087 0.26724 0.41516 0.0
H1528 H 0.12377 0.28161 0.52049 0.0
H1529 H 0.13513 0.30659 0.46474 0.0
C1530 C 0.20355 0.38355 0.43557 0.0
C1531 C 0.19497 0.38845 0.47059 0.0
C1532 C 0.19593 0.36912 0.40627 0.0
C1533 C 0.17968 0.35933 0.41243 0.0
C1534 C 0.17125 0.36376 0.45066 0.0
C1535 C 0.17886 0.3783 0.47941 0.0
C1536 C 0.17137 0.34489 0.37637 0.0
C1537 C 0.16386 0.3304 0.40596 0.0
C1538 C 0.17133 0.34541 0.31302 0.0
C1539 C 0.17864 0.36048 0.27941 0.0
C1540 C 0.17441 0.37191 0.29146 0.0
C1541 C 0.18144 0.3861 0.26001 0.0
C1542 C 0.19258 0.38894 0.21576 0.0
C1543 C 0.1967 0.37758 0.20282 0.0
C1544 C 0.18978 0.3634 0.23441 0.0
C1545 C 0.12478 0.27745 0.25265 0.0
C1546 C 0.133 0.2741 0.20931 0.0
C1547 C 0.13225 0.29153 0.2843 0.0
C1548 C 0.14813 0.30235 0.27375 0.0
C1549 C 0.15622 0.29921 0.22907 0.0
C1550 C 0.14871 0.28513 0.19714 0.0
C1551 C 0.15639 0.31678 0.3103 0.0
C1552 C 0.16389 0.33131 0.28081 0.0
C1553 C 0.15651 0.31627 0.37377 0.0
C1554 C 0.14964 0.30124 0.40751 0.0
C1555 C 0.15409 0.29003 0.39435 0.0
C1556 C 0.14747 0.27586 0.42581 0.0
C1557 C 0.13654 0.27282 0.47114 0.0
C1558 C 0.13221 0.28397 0.4852 0.0
C1559 C 0.13872 0.29813 0.45362 0.0
H1560 H 0.13147 0.26185 0.49546 0.0
H1561 H 0.198 0.39992 0.19143 0.0
H1562 H 0.73012 0.88505 0.2839 0.0
H1563 H 0.70369 0.87375 0.32613 0.0
H1564 H 0.69049 0.82978 0.23848 0.0
H1565 H 0.71683 0.84127 0.19485 0.0
H1566 H 0.66896 0.83899 0.22156 0.0
H1567 H 0.68767 0.82628 0.4226 0.0
H1568 H 0.70559 0.83388 0.50928 0.0
H1569 H 0.70918 0.87919 0.5128 0.0
H1570 H 0.69065 0.8715 0.42788 0.0
H1571 H 0.59893 0.78449 0.36821 0.0
H1572 H 0.62497 0.79975 0.32297 0.0
H1573 H 0.63452 0.83903 0.43688 0.0
H1574 H 0.60873 0.82342 0.48396 0.0
H1575 H 0.65797 0.83481 0.43959 0.0
H1576 H 0.62743 0.83808 0.28025 0.0
H1577 H 0.60595 0.82799 0.20631 0.0
H1578 H 0.62423 0.80137 0.12123 0.0
H1579 H 0.64569 0.8111 0.19523 0.0
C1580 C 0.72159 0.87292 0.27447 0.0
C1581 C 0.72542 0.86393 0.23675 0.0
C1582 C 0.70656 0.86643 0.29894 0.0
C1583 C 0.69521 0.85081 0.28661 0.0
C1584 C 0.69909 0.84183 0.2489 0.0
C1585 C 0.71408 0.84836 0.22404 0.0
C1586 C 0.67904 0.84402 0.3101 0.0
C1587 C 0.6665 0.83799 0.26924 0.0
C1588 C 0.67584 0.84318 0.37206 0.0
C1589 C 0.6882 0.8485 0.41812 0.0
C1590 C 0.69249 0.83793 0.44141 0.0
C1591 C 0.70257 0.84218 0.49065 0.0
C1592 C 0.70863 0.85707 0.51623 0.0
C1593 C 0.70454 0.8677 0.49278 0.0
C1594 C 0.69418 0.86337 0.44436 0.0
C1595 C 0.60664 0.79642 0.38315 0.0
C1596 C 0.60208 0.80284 0.42963 0.0
C1597 C 0.62141 0.80518 0.357 0.0
C1598 C 0.63164 0.82064 0.37586 0.0
C1599 C 0.62685 0.82714 0.42158 0.0
C1600 C 0.61219 0.81826 0.44848 0.0
C1601 C 0.64775 0.8296 0.35122 0.0
C1602 C 0.6603 0.83599 0.39179 0.0
C1603 C 0.65088 0.83093 0.28891 0.0
C1604 C 0.63813 0.82525 0.24362 0.0
C1605 C 0.62683 0.83001 0.24599 0.0
C1606 C 0.61466 0.82435 0.20404 0.0
C1607 C 0.61371 0.81402 0.15917 0.0
C1608 C 0.62498 0.80937 0.15603 0.0
C1609 C 0.63716 0.81497 0.19792 0.0
H1610 H 0.60427 0.80964 0.12679 0.0
H1611 H 0.71648 0.86035 0.55426 0.0
H1612 H 0.17585 0.79219 0.50569 0.0
H1613 H 0.162 0.80358 0.45264 0.0
H1614 H 0.20165 0.82832 0.33454 0.0
H1615 H 0.21542 0.81684 0.38715 0.0
H1616 H 0.18876 0.84676 0.38086 0.0
H1617 H 0.17272 0.79711 0.2839 0.0
H1618 H 0.16183 0.76847 0.28201 0.0
H1619 H 0.11842 0.7615 0.35474 0.0
H1620 H 0.12916 0.79014 0.35802 0.0
H1621 H 0.15578 0.86998 0.15119 0.0
H1622 H 0.16872 0.85765 0.2036 0.0
H1623 H 0.12595 0.82808 0.30061 0.0
H1624 H 0.11287 0.84003 0.24651 0.0
H1625 H 0.14002 0.81194 0.26822 0.0
H1626 H 0.1547 0.86069 0.36138 0.0
H1627 H 0.16502 0.88916 0.36909 0.0
H1628 H 0.21022 0.89796 0.30995 0.0
H1629 H 0.20008 0.8695 0.30122 0.0
C1630 C 0.1816 0.8002 0.46881 0.0
C1631 C 0.19664 0.80377 0.45034 0.0
C1632 C 0.17371 0.80662 0.43851 0.0
C1633 C 0.18083 0.81673 0.38971 0.0
C1634 C 0.19602 0.82056 0.37221 0.0
C1635 C 0.20382 0.814 0.402 0.0
C1636 C 0.17231 0.82298 0.35566 0.0
C1637 C 0.17822 0.83922 0.35556 0.0
C1638 C 0.15832 0.813 0.3243 0.0
C1639 C 0.1518 0.79577 0.32181 0.0
C1640 C 0.1609 0.78948 0.29999 0.0
C1641 C 0.15475 0.77325 0.29858 0.0
C1642 C 0.13946 0.76317 0.31838 0.0
C1643 C 0.13027 0.76932 0.3395 0.0
C1644 C 0.13638 0.78555 0.34112 0.0
C1645 C 0.14914 0.86069 0.18311 0.0
C1646 C 0.13346 0.85606 0.19574 0.0
C1647 C 0.15652 0.85374 0.21322 0.0
C1648 C 0.14836 0.84216 0.25675 0.0
C1649 C 0.13247 0.83705 0.26743 0.0
C1650 C 0.12506 0.84393 0.23697 0.0
C1651 C 0.15656 0.83581 0.29272 0.0
C1652 C 0.15057 0.81954 0.29339 0.0
C1653 C 0.1704 0.84578 0.32519 0.0
C1654 C 0.17657 0.86294 0.33025 0.0
C1655 C 0.16681 0.86869 0.34968 0.0
C1656 C 0.17263 0.88483 0.35427 0.0
C1657 C 0.18826 0.89537 0.33991 0.0
C1658 C 0.1981 0.88978 0.32102 0.0
C1659 C 0.19232 0.87363 0.31631 0.0
H1660 H 0.19276 0.90787 0.3435 0.0
H1661 H 0.13471 0.7506 0.31724 0.0
H1662 H 0.39184 0.22022 0.57777 0.0
H1663 H 0.3666 0.20809 0.63049 0.0
H1664 H 0.35237 0.16455 0.53773 0.0
H1665 H 0.37775 0.1766 0.48586 0.0
H1666 H 0.3286 0.17289 0.54756 0.0
H1667 H 0.36708 0.16899 0.67007 0.0
H1668 H 0.39242 0.18005 0.72293 0.0
H1669 H 0.37972 0.20756 0.83393 0.0
H1670 H 0.35445 0.19697 0.78071 0.0
H1671 H 0.26654 0.1186 0.72566 0.0
H1672 H 0.29137 0.13261 0.67129 0.0
H1673 H 0.30671 0.17198 0.79157 0.0
H1674 H 0.28196 0.15765 0.84722 0.0
H1675 H 0.33015 0.16731 0.76811 0.0
H1676 H 0.29173 0.17124 0.6515 0.0
H1677 H 0.26686 0.16199 0.59696 0.0
H1678 H 0.2795 0.13652 0.47454 0.0
H1679 H 0.30423 0.1452 0.52941 0.0
C1680 C 0.38325 0.20809 0.56859 0.0
C1681 C 0.38671 0.19918 0.52896 0.0
C1682 C 0.36889 0.20121 0.59846 0.0
C1683 C 0.35779 0.18539 0.58852 0.0
C1684 C 0.36086 0.17676 0.54605 0.0
C1685 C 0.37529 0.18362 0.51654 0.0
C1686 C 0.34336 0.17757 0.62481 0.0
C1687 C 0.32887 0.1715 0.59569 0.0
C1688 C 0.34389 0.17626 0.68779 0.0
C1689 C 0.35894 0.18233 0.7208 0.0
C1690 C 0.36974 0.1775 0.70537 0.0
C1691 C 0.38409 0.18368 0.73543 0.0
C1692 C 0.38769 0.19454 0.78157 0.0
C1693 C 0.37692 0.19917 0.79804 0.0
C1694 C 0.36259 0.1931 0.7679 0.0
C1695 C 0.27532 0.13019 0.74064 0.0
C1696 C 0.27249 0.13714 0.79031 0.0
C1697 C 0.28942 0.13822 0.70947 0.0
C1698 C 0.30076 0.15347 0.72664 0.0
C1699 C 0.2981 0.16024 0.77748 0.0
C1700 C 0.28403 0.1521 0.80921 0.0
C1701 C 0.31525 0.16241 0.69086 0.0
C1702 C 0.3298 0.16873 0.72003 0.0
C1703 C 0.31477 0.16412 0.62795 0.0
C1704 C 0.29981 0.15878 0.59497 0.0
C1705 C 0.28915 0.16353 0.61334 0.0
C1706 C 0.27506 0.15838 0.58236 0.0
C1707 C 0.27159 0.14866 0.53236 0.0
C1708 C 0.28219 0.14403 0.51333 0.0
C1709 C 0.29623 0.14904 0.54444 0.0
H1710 H 0.2607 0.14474 0.50831 0.0
H1711 H 0.39884 0.19938 0.8045 0.0
H1712 H 0.87576 0.14151 0.68996 0.0
H1713 H 0.86235 0.1536 0.63934 0.0
H1714 H 0.82485 0.13274 0.76875 0.0
H1715 H 0.8383 0.12059 0.81958 0.0
H1716 H 0.81499 0.13091 0.64503 0.0
H1717 H 0.85031 0.16843 0.78991 0.0
H1718 H 0.87604 0.1845 0.83835 0.0
H1719 H 0.89557 0.20793 0.67156 0.0
H1720 H 0.86999 0.19179 0.62188 0.0
H1721 H 0.77985 0.17787 0.60614 0.0
H1722 H 0.79192 0.16295 0.64281 0.0
H1723 H 0.8331 0.19176 0.53621 0.0
H1724 H 0.82129 0.20721 0.50193 0.0
H1725 H 0.8414 0.18905 0.64444 0.0
H1726 H 0.80645 0.15302 0.49911 0.0
H1727 H 0.78122 0.13677 0.44756 0.0
H1728 H 0.76149 0.11042 0.60892 0.0
H1729 H 0.78655 0.12667 0.66173 0.0
C1730 C 0.86458 0.13941 0.70713 0.0
C1731 C 0.85804 0.13028 0.75868 0.0
C1732 C 0.85698 0.14631 0.67838 0.0
C1733 C 0.84269 0.14409 0.70065 0.0
C1734 C 0.83588 0.13455 0.75106 0.0
C1735 C 0.84358 0.12775 0.78018 0.0
C1736 C 0.83529 0.1524 0.67296 0.0
C1737 C 0.82063 0.14361 0.64531 0.0
C1738 C 0.84295 0.16896 0.67208 0.0
C1739 C 0.85829 0.17879 0.70205 0.0
C1740 C 0.86013 0.17691 0.76345 0.0
C1741 C 0.87467 0.18605 0.79115 0.0
C1742 C 0.88744 0.1972 0.75802 0.0
C1743 C 0.88567 0.19927 0.69715 0.0
C1744 C 0.87115 0.19014 0.6692 0.0
C1745 C 0.79152 0.18103 0.59092 0.0
C1746 C 0.79982 0.19381 0.55227 0.0
C1747 C 0.79831 0.17239 0.61119 0.0
C1748 C 0.81337 0.17615 0.59187 0.0
C1749 C 0.82148 0.18867 0.55174 0.0
C1750 C 0.81474 0.19742 0.532 0.0
C1751 C 0.82098 0.1676 0.61622 0.0
C1752 C 0.83572 0.17635 0.64353 0.0
C1753 C 0.81343 0.15101 0.6162 0.0
C1754 C 0.79835 0.14116 0.58453 0.0
C1755 C 0.7967 0.14384 0.52375 0.0
C1756 C 0.78244 0.13461 0.49427 0.0
C1757 C 0.76975 0.12259 0.52498 0.0
C1758 C 0.77132 0.11975 0.5852 0.0
C1759 C 0.78556 0.12895 0.61492 0.0
H1760 H 0.75872 0.11546 0.50208 0.0
H1761 H 0.8987 0.20427 0.77955 0.0
H1762 H 0.87538 0.7191 0.82395 0.0
H1763 H 0.86447 0.69321 0.77646 0.0
H1764 H 0.83326 0.70263 0.67159 0.0
H1765 H 0.84421 0.72853 0.71892 0.0
H1766 H 0.81861 0.6728 0.7312 0.0
H1767 H 0.86348 0.7046 0.60151 0.0
H1768 H 0.89153 0.72241 0.57919 0.0
H1769 H 0.90323 0.69023 0.66174 0.0
H1770 H 0.87529 0.67217 0.68424 0.0
H1771 H 0.7902 0.61123 0.52061 0.0
H1772 H 0.80237 0.63717 0.56802 0.0
H1773 H 0.8375 0.62879 0.64763 0.0
H1774 H 0.82554 0.60302 0.59883 0.0
H1775 H 0.85047 0.65778 0.60486 0.0
H1776 H 0.80755 0.62553 0.73146 0.0
H1777 H 0.78019 0.60647 0.75818 0.0
H1778 H 0.76539 0.63814 0.69397 0.0
H1779 H 0.79265 0.65733 0.66611 0.0
C1780 C 0.86612 0.71553 0.79104 0.0
C1781 C 0.86042 0.72557 0.7754 0.0
C1782 C 0.86 0.70086 0.76372 0.0
C1783 C 0.8481 0.69608 0.72056 0.0
C1784 C 0.84242 0.70614 0.70492 0.0
C1785 C 0.84865 0.72086 0.7318 0.0
C1786 C 0.84134 0.68046 0.69248 0.0
C1787 C 0.82549 0.66955 0.70288 0.0
C1788 C 0.85053 0.6761 0.65765 0.0
C1789 C 0.86733 0.68711 0.64508 0.0
C1790 C 0.87205 0.70139 0.61537 0.0
C1791 C 0.88791 0.71151 0.60255 0.0
C1792 C 0.89913 0.70751 0.6194 0.0
C1793 C 0.89453 0.69333 0.64884 0.0
C1794 C 0.87869 0.68313 0.66145 0.0
C1795 C 0.80056 0.61503 0.54804 0.0
C1796 C 0.80686 0.60519 0.55715 0.0
C1797 C 0.80743 0.62974 0.57535 0.0
C1798 C 0.82066 0.63476 0.61222 0.0
C1799 C 0.82723 0.62508 0.61973 0.0
C1800 C 0.82037 0.61038 0.5923 0.0
C1801 C 0.82764 0.65014 0.64276 0.0
C1802 C 0.84355 0.66099 0.6331 0.0
C1803 C 0.81857 0.65431 0.67941 0.0
C1804 C 0.80214 0.64281 0.69609 0.0
C1805 C 0.79845 0.62838 0.72254 0.0
C1806 C 0.78296 0.61756 0.738 0.0
C1807 C 0.77105 0.62107 0.72758 0.0
C1808 C 0.77462 0.63543 0.70191 0.0
C1809 C 0.79009 0.64629 0.68633 0.0
H1810 H 0.75906 0.61268 0.73951 0.0
H1811 H 0.91139 0.71537 0.60943 0.0
H1812 H 0.94513 0.48634 0.14296 0.0
H1813 H 0.9703 0.50034 0.08958 0.0
H1814 H 0.95383 0.46262 0.96116 0.0
H1815 H 0.92863 0.44873 0.01395 0.0
H1816 H 0.98475 0.47303 0.01486 0.0
H1817 H 0.95459 0.49288 0.91539 0.0
H1818 H 0.93814 0.50525 0.91253 0.0
H1819 H 0.97504 0.54666 0.99554 0.0
H1820 H 0.99162 0.53443 -0.00022 0.0
H1821 H 0.04589 0.50714 0.80479 0.0
H1822 H 0.01955 0.49445 0.84867 0.0
H1823 H 0.03212 0.5363 0.95114 0.0
H1824 H 0.05826 0.54919 0.90534 0.0
H1825 H 0.00293 0.52387 0.9112 0.0
H1826 H 0.03291 0.5054 0.01488 0.0
H1827 H 0.04999 0.49387 0.02568 0.0
H1828 H 0.01452 0.45102 0.94567 0.0
H1829 H 0.99732 0.4624 0.93354 0.0
C1830 C 0.94697 0.48111 0.10334 0.0
C1831 C 0.93512 0.46653 0.08234 0.0
C1832 C 0.96124 0.48909 0.0729 0.0
C1833 C 0.96382 0.48247 0.02157 0.0
C1834 C 0.95199 0.46786 0.00075 0.0
C1835 C 0.93766 0.46 0.03065 0.0
C1836 C 0.97899 0.49068 0.99008 0.0
C1837 C 0.98867 0.48403 0.99138 0.0
C1838 C 0.98419 0.50526 0.96145 0.0
C1839 C 0.97428 0.51268 0.95845 0.0
C1840 C 0.95914 0.50457 0.93353 0.0
C1841 C 0.9498 0.51156 0.93157 0.0
C1842 C 0.95553 0.52672 0.95398 0.0
C1843 C 0.97062 0.53492 0.97826 0.0
C1844 C 0.97999 0.52797 0.98042 0.0
C1845 C 0.0429 0.51364 0.83614 0.0
C1846 C 0.05406 0.52896 0.85284 0.0
C1847 C 0.02794 0.50638 0.86141 0.0
C1848 C 0.02401 0.51433 0.90413 0.0
C1849 C 0.03496 0.52993 0.91864 0.0
C1850 C 0.04988 0.53721 0.89297 0.0
C1851 C 0.00872 0.50616 0.93534 0.0
C1852 C -0.00097 0.51284 0.93436 0.0
C1853 C 0.00361 0.49172 0.96533 0.0
C1854 C 0.01389 0.48481 0.97273 0.0
C1855 C 0.0288 0.49356 -0.00086 0.0
C1856 C 0.0385 0.48705 0.00557 0.0
C1857 C 0.03336 0.47174 0.98622 0.0
C1858 C 0.01849 0.46289 0.96054 0.0
C1859 C 0.00876 0.46936 0.95391 0.0
H1860 H 0.04088 0.46671 0.99126 0.0
H1861 H 0.94828 0.53212 0.95241 0.0
H1862 H 0.49075 0.53866 0.83976 0.0
H1863 H 0.50306 0.52551 0.89105 0.0
H1864 H 0.45819 0.49166 0.96493 0.0
H1865 H 0.44582 0.50463 0.91257 0.0
H1866 H 0.48199 0.5053 0.05063 0.0
H1867 H 0.47288 0.47991 0.86058 0.0
H1868 H 0.47363 0.47867 0.75044 0.0
H1869 H 0.52397 0.50472 0.75426 0.0
H1870 H 0.52352 0.5063 0.86445 0.0
H1871 H 0.50987 0.45705 0.1766 0.0
H1872 H 0.49495 0.46702 0.12245 0.0
H1873 H 0.53649 0.49832 0.02189 0.0
H1874 H 0.55116 0.48789 0.07454 0.0
H1875 H 0.51261 0.48439 0.9496 0.0
H1876 H 0.52165 0.51089 0.13995 0.0
H1877 H 0.52077 0.51187 0.25023 0.0
H1878 H 0.47053 0.4839 0.24601 0.0
H1879 H 0.47112 0.48256 0.13573 0.0
C1880 C 0.48354 0.52828 0.86631 0.0
C1881 C 0.46745 0.52273 0.87323 0.0
C1882 C 0.49054 0.52081 0.89555 0.0
C1883 C 0.48151 0.50767 0.93189 0.0
C1884 C 0.46534 0.50186 0.93742 0.0
C1885 C 0.45832 0.50925 0.90772 0.0
C1886 C 0.48912 0.50041 0.9659 0.0
C1887 C 0.48851 0.5005 0.02866 0.0
C1888 C 0.49781 0.49446 0.937 0.0
C1889 C 0.49816 0.49336 0.87076 0.0
C1890 C 0.48411 0.48548 0.83792 0.0
C1891 C 0.48448 0.48468 0.77548 0.0
C1892 C 0.49883 0.49164 0.74536 0.0
C1893 C 0.51286 0.49934 0.77764 0.0
C1894 C 0.51255 0.50017 0.84011 0.0
C1895 C 0.51578 0.46622 0.14353 0.0
C1896 C 0.53162 0.47193 0.12996 0.0
C1897 C 0.5073 0.47191 0.11264 0.0
C1898 C 0.51466 0.48356 0.06858 0.0
C1899 C 0.53057 0.48934 0.05566 0.0
C1900 C 0.53896 0.48349 0.0859 0.0
C1901 C 0.50575 0.4895 0.03463 0.0
C1902 C 0.50608 0.48915 0.97175 0.0
C1903 C 0.49684 0.49526 0.06349 0.0
C1904 C 0.49645 0.49647 0.12965 0.0
C1905 C 0.51042 0.50489 0.16257 0.0
C1906 C 0.50997 0.50551 0.22506 0.0
C1907 C 0.49561 0.49786 0.25508 0.0
C1908 C 0.48165 0.48975 0.22267 0.0
C1909 C 0.48203 0.48907 0.16018 0.0
H1910 H 0.49528 0.4982 0.30346 0.0
H1911 H 0.49906 0.49104 0.69702 0.0
H1912 H 0.50914 0.05189 0.1539 0.0
H1913 H 0.4979 0.0258 0.10835 0.0
H1914 H 0.54273 0.03884 0.02876 0.0
H1915 H 0.55406 0.06485 0.0754 0.0
H1916 H 0.51794 0.02548 0.94794 0.0
H1917 H 0.5307 0.01481 0.14239 0.0
H1918 H 0.53096 0.01437 0.25275 0.0
H1919 H 0.48082 0.98533 0.25514 0.0
H1920 H 0.4802 0.98588 0.14472 0.0
H1921 H 0.49388 0.9487 0.83953 0.0
H1922 H 0.50826 0.97417 0.89026 0.0
H1923 H 0.4668 0.96323 0.99258 0.0
H1924 H 0.45258 0.93768 0.9427 0.0
H1925 H 0.49177 0.97562 0.06252 0.0
H1926 H 0.47841 0.98815 0.87095 0.0
H1927 H 0.47745 0.98849 0.7606 0.0
H1928 H 0.52778 0.01395 0.75334 0.0
H1929 H 0.52904 0.01354 0.86371 0.0
C1930 C 0.51657 0.04908 0.12704 0.0
C1931 C 0.53236 0.06032 0.11726 0.0
C1932 C 0.51019 0.03423 0.10123 0.0
C1933 C 0.51952 0.03043 0.0654 0.0
C1934 C 0.53535 0.04161 0.05614 0.0
C1935 C 0.54177 0.05642 0.0824 0.0
C1936 C 0.51255 0.01499 0.03572 0.0
C1937 C 0.51244 0.01456 0.97292 0.0
C1938 C 0.50508 0.00081 0.06861 0.0
C1939 C 0.5054 0.00054 0.13515 0.0
C1940 C 0.5197 0.00848 0.16639 0.0
C1941 C 0.51992 0.00819 0.22899 0.0
C1942 C 0.50591 -0.00012 0.26093 0.0
C1943 C 0.49166 0.9918 0.23033 0.0
C1944 C 0.49137 0.99211 0.16772 0.0
C1945 C 0.48787 0.95189 0.87242 0.0
C1946 C 0.47214 0.9415 0.88683 0.0
C1947 C 0.49606 0.96636 0.9014 0.0
C1948 C 0.48853 0.97066 0.94464 0.0
C1949 C 0.47282 0.96015 0.95935 0.0
C1950 C 0.4647 0.94565 0.93076 0.0
C1951 C 0.49695 0.9861 0.97468 0.0
C1952 C 0.49735 0.98654 0.03753 0.0
C1953 C 0.50455 0.0003 0.9419 0.0
C1954 C 0.50382 0.00067 0.87556 0.0
C1955 C 0.48928 0.99371 0.84581 0.0
C1956 C 0.48868 0.99393 0.78327 0.0
C1957 C 0.50255 0.0012 0.74998 0.0
C1958 C 0.51705 0.0083 0.77919 0.0
C1959 C 0.51771 0.00809 0.84173 0.0
H1960 H 0.50206 0.00135 0.70156 0.0
H1961 H 0.50611 -0.00033 0.30939 0.0
H1962 H 0.13932 0.20534 0.99016 0.0
H1963 H 0.15303 0.19093 0.96963 0.0
H1964 H 0.14609 0.17475 0.15261 0.0
H1965 H 0.13233 0.18915 0.17384 0.0
H1966 H 0.17645 0.18413 0.10744 0.0
H1967 H 0.12244 0.15059 0.05421 0.0
H1968 H 0.09748 0.14388 0.00451 0.0
H1969 H 0.11984 0.15249 0.83255 0.0
H1970 H 0.14501 0.15948 0.88131 0.0
H1971 H 0.19626 0.12502 0.04582 0.0
H1972 H 0.18294 0.13891 0.0806 0.0
H1973 H 0.17974 0.15161 0.89805 0.0
H1974 H 0.19244 0.13721 0.86313 0.0
H1975 H 0.15343 0.14278 0.95129 0.0
H1976 H 0.20779 0.17798 0.00377 0.0
H1977 H 0.23286 0.18463 0.05257 0.0
H1978 H 0.21018 0.173 0.22427 0.0
H1979 H 0.18493 0.16614 0.17638 0.0
C1980 C 0.14082 0.19885 0.02628 0.0
C1981 C 0.1346 0.19828 0.08352 0.0
C1982 C 0.14863 0.1906 0.0144 0.0
C1983 C 0.15039 0.18167 0.05948 0.0
C1984 C 0.14479 0.18157 0.11727 0.0
C1985 C 0.13688 0.18975 0.12917 0.0
C1986 C 0.15741 0.17185 0.04518 0.0
C1987 C 0.17135 0.17495 0.07387 0.0
C1988 C 0.15079 0.16001 0.00096 0.0
C1989 C 0.13564 0.15569 0.97146 0.0
C1990 C 0.12207 0.15117 0.00582 0.0
C1991 C 0.10788 0.1473 0.97782 0.0
C1992 C 0.10709 0.1478 0.91542 0.0
C1993 C 0.12048 0.15213 0.88089 0.0
C1994 C 0.1347 0.15603 0.90868 0.0
C1995 C 0.19276 0.13084 0.01331 0.0
C1996 C 0.19544 0.13013 0.9519 0.0
C1997 C 0.18519 0.13881 0.03316 0.0
C1998 C 0.18055 0.14652 0.992 0.0
C1999 C 0.1832 0.14574 0.93064 0.0
C2000 C 0.19048 0.13754 0.91073 0.0
C2001 C 0.17278 0.1553 0.01224 0.0
C2002 C 0.15859 0.15194 0.98493 0.0
C2003 C 0.17923 0.16693 0.05748 0.0
C2004 C 0.19447 0.17144 0.08646 0.0
C2005 C 0.20815 0.1768 0.05191 0.0
C2006 C 0.22238 0.18061 0.0794 0.0
C2007 C 0.2231 0.17922 0.14146 0.0
C2008 C 0.2096 0.17408 0.1762 0.0
C2009 C 0.19533 0.17025 0.14893 0.0
H2010 H 0.23413 0.18214 0.16264 0.0
H2011 H 0.09609 0.14479 0.89382 0.0
H2012 H 0.80904 0.94639 0.18475 0.0
H2013 H 0.82369 0.97414 0.15615 0.0
H2014 H 0.81269 0.96129 0.9704 0.0
H2015 H 0.79789 0.93361 0.99836 0.0
H2016 H 0.84529 0.9825 0.99615 0.0
H2017 H 0.79377 0.97554 0.03545 0.0
H2018 H 0.77041 0.96818 0.09773 0.0
H2019 H 0.79911 0.00225 0.22977 0.0
H2020 H 0.82268 0.00966 0.16861 0.0
H2021 H 0.86625 0.05304 0.84765 0.0
H2022 H 0.85281 0.02652 0.88836 0.0
H2023 H 0.85794 0.04519 0.06712 0.0
H2024 H 0.87098 0.07182 0.02643 0.0
H2025 H 0.82968 0.02146 0.05372 0.0
H2026 H 0.88087 0.02992 0.01593 0.0
H2027 H 0.90495 0.03748 0.95812 0.0
H2028 H 0.87849 0.00102 0.83048 0.0
H2029 H 0.85419 0.99338 0.88706 0.0
C2030 C 0.80967 0.94949 0.13785 0.0
C2031 C 0.8023 0.93782 0.09379 0.0
C2032 C 0.81801 0.96532 0.12168 0.0
C2033 C 0.81923 0.96967 0.06125 0.0
C2034 C 0.81186 0.95809 0.01727 0.0
C2035 C 0.80336 0.94231 0.0334 0.0
C2036 C 0.82843 0.98631 0.04337 0.0
C2037 C 0.84185 0.99103 0.00818 0.0
C2038 C 0.82417 0.99744 0.06113 0.0
C2039 C 0.81 0.99302 0.0978 0.0
C2040 C 0.79512 0.98136 0.07804 0.0
C2041 C 0.78184 0.9772 0.11307 0.0
C2042 C 0.78328 0.98471 0.16777 0.0
C2043 C 0.79801 0.99642 0.18745 0.0
C2044 C 0.81133 0.00061 0.15261 0.0
C2045 C 0.8646 0.05153 0.89567 0.0
C2046 C 0.86973 0.06454 0.93384 0.0
C2047 C 0.85697 0.03635 0.91893 0.0
C2048 C 0.8546 0.03387 0.98091 0.0
C2049 C 0.85967 0.04683 0.01916 0.0
C2050 C 0.86714 0.06204 0.99584 0.0
C2051 C 0.84649 0.01771 0.00536 0.0
C2052 C 0.83328 0.01303 0.04197 0.0
C2053 C 0.85108 0.00665 0.98965 0.0
C2054 C 0.86568 0.01116 0.95552 0.0
C2055 C 0.88016 0.02359 0.9753 0.0
C2056 C 0.89386 0.02787 0.94278 0.0
C2057 C 0.89324 0.01975 0.89059 0.0
C2058 C 0.87894 0.0073 0.87089 0.0
C2059 C 0.8652 0.00298 0.90321 0.0
H2060 H 0.90386 0.02309 0.86548 0.0
H2061 H 0.77299 0.98148 0.19482 0.0
H2062 H 0.92958 0.80036 0.00506 0.0
H2063 H 0.95743 0.81363 0.03058 0.0
H2064 H 0.96941 0.81993 0.84295 0.0
H2065 H 0.94146 0.80685 0.81671 0.0
H2066 H 0.98523 0.80725 0.92036 0.0
H2067 H 0.97481 0.85003 0.90539 0.0
H2068 H 0.96016 0.86373 0.92701 0.0
H2069 H 0.96976 0.86387 0.11474 0.0
H2070 H 0.98427 0.84994 0.09431 0.0
H2071 H 0.06641 0.86012 0.95424 0.0
H2072 H 0.03897 0.84708 0.92386 0.0
H2073 H 0.02543 0.85031 0.10479 0.0
H2074 H 0.05297 0.86376 0.13543 0.0
H2075 H 0.01023 0.8582 0.02793 0.0
H2076 H 0.01996 0.81547 0.04717 0.0
H2077 H 0.03379 0.80073 0.03042 0.0
H2078 H 0.02472 0.79911 0.84163 0.0
H2079 H 0.01101 0.81405 0.85715 0.0
C2080 C 0.93812 0.80452 0.96913 0.0
C2081 C 0.93335 0.80258 0.90884 0.0
C2082 C 0.95399 0.81213 0.98384 0.0
C2083 C 0.96537 0.81776 0.93859 0.0
C2084 C 0.96072 0.81564 0.87834 0.0
C2085 C 0.9448 0.80824 0.86352 0.0
C2086 C 0.98213 0.82593 0.95477 0.0
C2087 C 0.99083 0.81851 0.94297 0.0
C2088 C 0.98914 0.84035 0.98597 0.0
C2089 C 0.98049 0.8488 0.99836 0.0
C2090 C 0.97367 0.85285 0.95134 0.0
C2091 C 0.96542 0.86069 0.96336 0.0
C2092 C 0.96399 0.86463 0.02223 0.0
C2093 C 0.97086 0.86078 0.06917 0.0
C2094 C 0.97911 0.85293 0.05739 0.0
C2095 C 0.05761 0.85801 0.98774 0.0
C2096 C 0.06188 0.86294 0.04735 0.0
C2097 C 0.04191 0.8505 0.97028 0.0
C2098 C 0.03014 0.84753 0.01222 0.0
C2099 C 0.03434 0.85247 0.07173 0.0
C2100 C 0.05008 0.86012 0.08918 0.0
C2101 C 0.01347 0.83954 0.99363 0.0
C2102 C 0.00473 0.84697 0.00509 0.0
C2103 C 0.00637 0.82502 0.96279 0.0
C2104 C 0.0146 0.81602 0.95326 0.0
C2105 C 0.02103 0.81209 0.00201 0.0
C2106 C 0.02882 0.80367 0.99276 0.0
C2107 C 0.03017 0.79902 0.93498 0.0
C2108 C 0.02369 0.80274 0.88635 0.0
C2109 C 0.01589 0.81117 0.89536 0.0
H2110 H 0.03621 0.7925 0.9279 0.0
H2111 H 0.9576 0.8707 0.03145 0.0
H2112 H 0.86153 0.8111 0.83346 0.0
H2113 H 0.84975 0.8265 0.86798 0.0
H2114 H 0.86383 0.82422 0.04925 0.0
H2115 H 0.87479 0.80815 0.01544 0.0
H2116 H 0.83558 0.81792 0.05075 0.0
H2117 H 0.88216 0.85866 0.9575 0.0
H2118 H 0.90123 0.87166 0.87585 0.0
H2119 H 0.86531 0.87177 0.76697 0.0
H2120 H 0.84598 0.85856 0.84767 0.0
H2121 H 0.81883 0.8751 0.17304 0.0
H2122 H 0.83355 0.86262 0.13801 0.0
H2123 H 0.81232 0.85592 0.96347 0.0
H2124 H 0.79772 0.8684 0.99741 0.0
H2125 H 0.84463 0.8676 0.95883 0.0
H2126 H 0.7985 0.82638 0.05749 0.0
H2127 H 0.78039 0.8139 0.14229 0.0
H2128 H 0.81794 0.81604 0.24757 0.0
H2129 H 0.83633 0.82879 0.16374 0.0
C2130 C 0.86214 0.81396 0.88059 0.0
C2131 C 0.86895 0.80836 0.92189 0.0
C2132 C 0.85552 0.82285 0.90024 0.0
C2133 C 0.85604 0.82666 0.96121 0.0
C2134 C 0.86319 0.82135 0.00211 0.0
C2135 C 0.86945 0.81218 0.98275 0.0
C2136 C 0.8484 0.8354 0.98341 0.0
C2137 C 0.8379 0.82899 0.03158 0.0
C2138 C 0.85098 0.84958 0.95707 0.0
C2139 C 0.86259 0.8575 0.90845 0.0
C2140 C 0.8783 0.86135 0.91597 0.0
C2141 C 0.88916 0.86877 0.86989 0.0
C2142 C 0.88447 0.8725 0.8162 0.0
C2143 C 0.86892 0.86886 0.80854 0.0
C2144 C 0.85801 0.86142 0.85446 0.0
C2145 C 0.81733 0.87102 0.12719 0.0
C2146 C 0.80705 0.8727 0.08818 0.0
C2147 C 0.82574 0.86389 0.1073 0.0
C2148 C 0.82396 0.85837 0.04823 0.0
C2149 C 0.8139 0.86021 0.00908 0.0
C2150 C 0.8055 0.86728 0.02881 0.0
C2151 C 0.83228 0.85028 0.02714 0.0
C2152 C 0.84268 0.85671 0.97876 0.0
C2153 C 0.82989 0.83627 0.05407 0.0
C2154 C 0.81883 0.82872 0.10459 0.0
C2155 C 0.80293 0.82435 0.09894 0.0
C2156 C 0.79261 0.8172 0.14681 0.0
C2157 C 0.79802 0.81423 0.20036 0.0
C2158 C 0.81377 0.81839 0.20614 0.0
C2159 C 0.82414 0.82558 0.15847 0.0
H2160 H 0.79001 0.80867 0.23732 0.0
H2161 H 0.8929 0.87825 0.78058 0.0
H2162 H 0.19181 0.0534 0.82737 0.0
H2163 H 0.1781 0.0253 0.85094 0.0
H2164 H 0.17573 0.03597 0.03706 0.0
H2165 H 0.1902 0.06389 0.0142 0.0
H2166 H 0.18402 0.01568 0.03352 0.0
H2167 H 0.14323 0.02037 0.93266 0.0
H2168 H 0.13099 0.02695 0.84964 0.0
H2169 H 0.13619 0.99495 0.73422 0.0
H2170 H 0.14864 0.98833 0.81634 0.0
H2171 H 0.12603 0.94023 0.13518 0.0
H2172 H 0.13949 0.96774 0.10388 0.0
H2173 H 0.14881 0.95466 0.93092 0.0
H2174 H 0.13527 0.92718 0.96117 0.0
H2175 H 0.13738 0.97538 0.92387 0.0
H2176 H 0.17742 0.97039 0.02873 0.0
H2177 H 0.18851 0.96338 0.11445 0.0
H2178 H 0.18322 0.99595 0.22607 0.0
H2179 H 0.17189 0.003 0.14119 0.0
C2180 C 0.18826 0.04966 0.87316 0.0
C2181 C 0.19209 0.06075 0.91904 0.0
C2182 C 0.18035 0.03363 0.8866 0.0
C2183 C 0.17571 0.02846 0.94578 0.0
C2184 C 0.17926 0.03961 0.99117 0.0
C2185 C 0.18749 0.05557 0.97806 0.0
C2186 C 0.16774 0.01154 0.96157 0.0
C2187 C 0.17368 0.00695 0.00995 0.0
C2188 C 0.1545 -0.0 0.9299 0.0
C2189 C 0.14705 0.00401 0.88046 0.0
C2190 C 0.14189 0.01484 0.88943 0.0
C2191 C 0.13489 0.01856 0.84255 0.0
C2192 C 0.13286 0.01142 0.78663 0.0
C2193 C 0.1378 0.0005 0.77751 0.0
C2194 C 0.14482 0.99676 0.82421 0.0
C2195 C 0.13094 0.94319 0.0905 0.0
C2196 C 0.12961 0.9315 0.05082 0.0
C2197 C 0.13863 0.9589 0.07274 0.0
C2198 C 0.14514 0.96317 0.01516 0.0
C2199 C 0.14375 0.95155 0.97537 0.0
C2200 C 0.13608 0.93586 0.99299 0.0
C2201 C 0.15348 0.97978 0.99639 0.0
C2202 C 0.14768 0.98423 0.94731 0.0
C2203 C 0.16672 0.99124 0.0278 0.0
C2204 C 0.17367 0.98712 0.07873 0.0
C2205 C 0.17851 0.97597 0.07167 0.0
C2206 C 0.18486 0.972 0.12009 0.0
C2207 C 0.18653 0.97919 0.17571 0.0
C2208 C 0.1819 0.99039 0.18298 0.0
C2209 C 0.17553 0.99438 0.13471 0.0
H2210 H 0.19145 0.97609 0.21314 0.0
H2211 H 0.12744 0.01431 0.75041 0.0
H2212 H 0.94262 0.11883 0.83613 0.0
H2213 H 0.9703 0.13142 0.86563 0.0
H2214 H 0.9635 0.16145 0.9877 0.0
H2215 H 0.93591 0.14891 0.9591 0.0
H2216 H 0.99157 0.17711 0.92015 0.0
H2217 H 0.9624 0.13086 0.04361 0.0
H2218 H 0.94453 0.10258 0.05997 0.0
H2219 H 0.9759 0.09205 0.9637 0.0
H2220 H 0.99386 0.12028 0.94603 0.0
H2221 H 0.05269 0.18234 0.14778 0.0
H2222 H 0.02566 0.16844 0.11007 0.0
H2223 H 0.04271 0.18211 0.92959 0.0
H2224 H 0.06955 0.19615 0.96651 0.0
H2225 H 0.00944 0.14452 0.02659 0.0
H2226 H 0.01971 0.1929 0.85914 0.0
H2227 H 0.03807 0.22118 0.84428 0.0
H2228 H 0.04413 0.22773 0.03462 0.0
H2229 H 0.02571 0.19953 0.05058 0.0
C2230 C 0.94708 0.12826 0.86863 0.0
C2231 C 0.93708 0.13281 0.89565 0.0
C2232 C 0.96285 0.13538 0.88554 0.0
C2233 C 0.96883 0.14725 0.92911 0.0
C2234 C 0.95906 0.1523 0.95403 0.0
C2235 C 0.9433 0.14507 0.93779 0.0
C2236 C 0.98506 0.15392 0.95128 0.0
C2237 C 0.99551 0.16998 0.94314 0.0
C2238 C 0.99009 0.14461 0.98184 0.0
C2239 C 0.97938 0.12766 0.99298 0.0
C2240 C 0.96542 0.12251 0.02554 0.0
C2241 C 0.95529 0.10649 0.03511 0.0
C2242 C 0.95905 0.09552 0.01275 0.0
C2243 C 0.97299 0.10055 0.98092 0.0
C2244 C 0.98315 0.11656 0.97115 0.0
C2245 C 0.05067 0.18225 0.10005 0.0
C2246 C 0.06324 0.19052 0.06027 0.0
C2247 C 0.03525 0.17427 0.07859 0.0
C2248 C 0.03224 0.17448 0.01721 0.0
C2249 C 0.0448 0.18204 0.97722 0.0
C2250 C 0.06014 0.19006 -0.00148 0.0
C2251 C 0.01597 0.16768 0.99508 0.0
C2252 C 0.00553 0.15161 0.00325 0.0
C2253 C 0.0109 0.177 0.96484 0.0
C2254 C 0.02141 0.1941 0.95597 0.0
C2255 C 0.02487 0.20041 0.8978 0.0
C2256 C 0.03531 0.21641 0.88919 0.0
C2257 C 0.04229 0.22624 0.93847 0.0
C2258 C 0.03875 0.2201 0.99648 0.0
C2259 C 0.02832 0.20411 0.00533 0.0
H2260 H 0.05042 0.23861 0.93169 0.0
H2261 H 0.95119 0.08312 0.02019 0.0
H2262 H 0.83898 0.44532 0.21177 0.0
H2263 H 0.8275 0.46042 0.25181 0.0
H2264 H 0.86835 0.48679 0.36318 0.0
H2265 H 0.8795 0.47115 0.32551 0.0
H2266 H 0.84434 0.48196 0.42298 0.0
H2267 H 0.86286 0.50132 0.22667 0.0
H2268 H 0.86586 0.49986 0.11757 0.0
H2269 H 0.81642 0.48141 0.09339 0.0
H2270 H 0.81309 0.48255 0.20248 0.0
H2271 H 0.8194 0.54538 0.3596 0.0
H2272 H 0.83352 0.53173 0.333 0.0
H2273 H 0.80405 0.49395 0.45316 0.0
H2274 H 0.79044 0.50796 0.48211 0.0
H2275 H 0.82464 0.5064 0.2784 0.0
H2276 H 0.82207 0.47468 0.50238 0.0
H2277 H 0.82289 0.4795 0.61111 0.0
H2278 H 0.84733 0.5292 0.57987 0.0
H2279 H 0.84686 0.52469 0.47106 0.0
C2280 C 0.84545 0.45428 0.24506 0.0
C2281 C 0.86016 0.45717 0.26525 0.0
C2282 C 0.83892 0.46295 0.26771 0.0
C2283 C 0.84723 0.475 0.30947 0.0
C2284 C 0.86175 0.4776 0.33082 0.0
C2285 C 0.86812 0.46869 0.30916 0.0
C2286 C 0.84094 0.48512 0.32973 0.0
C2287 C 0.84004 0.48733 0.39142 0.0
C2288 C 0.83576 0.49251 0.28852 0.0
C2289 C 0.83771 0.49189 0.22281 0.0
C2290 C 0.85262 0.49685 0.19812 0.0
C2291 C 0.85437 0.49609 0.13629 0.0
C2292 C 0.84133 0.49051 0.09859 0.0
C2293 C 0.82651 0.48571 0.12265 0.0
C2294 C 0.82468 0.48642 0.18448 0.0
C2295 C 0.81605 0.53424 0.38079 0.0
C2296 C 0.80384 0.52773 0.42296 0.0
C2297 C 0.8241 0.52643 0.36549 0.0
C2298 C 0.81996 0.51186 0.39138 0.0
C2299 C 0.80774 0.50535 0.43359 0.0
C2300 C 0.7999 0.51331 0.44986 0.0
C2301 C 0.82786 0.50314 0.37181 0.0
C2302 C 0.829 0.50112 0.31013 0.0
C2303 C 0.83384 0.49649 0.41302 0.0
C2304 C 0.83428 0.49932 0.47849 0.0
C2305 C 0.82767 0.48663 0.51872 0.0
C2306 C 0.82806 0.48931 0.58037 0.0
C2307 C 0.83511 0.50464 0.60237 0.0
C2308 C 0.84182 0.51733 0.56277 0.0
C2309 C 0.84147 0.51472 0.50109 0.0
H2310 H 0.83539 0.50669 0.65011 0.0
H2311 H 0.84271 0.48992 0.05073 0.0
H2312 H 0.53038 0.38982 0.18093 0.0
H2313 H 0.51544 0.36222 0.21089 0.0
H2314 H 0.52213 0.3759 0.39686 0.0
H2315 H 0.5369 0.40353 0.36749 0.0
H2316 H 0.52896 0.35149 0.36582 0.0
H2317 H 0.48841 0.36485 0.34447 0.0
H2318 H 0.47362 0.37539 0.29195 0.0
H2319 H 0.46184 0.34143 0.15176 0.0
H2320 H 0.47677 0.33083 0.20304 0.0
H2321 H 0.47535 0.27711 0.48914 0.0
H2322 H 0.48971 0.30501 0.46408 0.0
H2323 H 0.47634 0.29385 0.27864 0.0
H2324 H 0.46164 0.26601 0.30347 0.0
H2325 H 0.47291 0.31749 0.31193 0.0
H2326 H 0.51355 0.30436 0.32896 0.0
H2327 H 0.52886 0.29384 0.3776 0.0
H2328 H 0.54118 0.32713 0.52064 0.0
H2329 H 0.52576 0.33772 0.47324 0.0
C2330 C 0.52865 0.38696 0.2282 0.0
C2331 C 0.53477 0.39883 0.27188 0.0
C2332 C 0.5201 0.37121 0.24516 0.0
C2333 C 0.51769 0.36711 0.30599 0.0
C2334 C 0.52389 0.3789 0.3497 0.0
C2335 C 0.53225 0.39465 0.3328 0.0
C2336 C 0.50877 0.35048 0.32397 0.0
C2337 C 0.51665 0.34406 0.35488 0.0
C2338 C 0.49285 0.34082 0.30817 0.0
C2339 C 0.48385 0.34716 0.27728 0.0
C2340 C 0.4828 0.35972 0.30215 0.0
C2341 C 0.47436 0.36569 0.27267 0.0
C2342 C 0.46683 0.35911 0.21847 0.0
C2343 C 0.4677 0.34653 0.19371 0.0
C2344 C 0.47613 0.34053 0.22298 0.0
C2345 C 0.47548 0.28059 0.443 0.0
C2346 C 0.46737 0.26934 0.39827 0.0
C2347 C 0.48375 0.29654 0.42872 0.0
C2348 C 0.48425 0.30149 0.36936 0.0
C2349 C 0.4761 0.29029 0.32474 0.0
C2350 C 0.46773 0.27437 0.33903 0.0
C2351 C 0.4931 0.31836 0.35362 0.0
C2352 C 0.48522 0.32486 0.3231 0.0
C2353 C 0.50908 0.32806 0.36924 0.0
C2354 C 0.51836 0.32172 0.39787 0.0
C2355 C 0.51941 0.30935 0.37104 0.0
C2356 C 0.52813 0.30339 0.39834 0.0
C2357 C 0.53595 0.30978 0.45226 0.0
C2358 C 0.53509 0.32218 0.47892 0.0
C2359 C 0.52638 0.32817 0.45184 0.0
H2360 H 0.54269 0.30516 0.47331 0.0
H2361 H 0.4603 0.36374 0.19572 0.0
H2362 H 0.72752 0.1843 0.38933 0.0
H2363 H 0.70017 0.17174 0.35766 0.0
H2364 H 0.69251 0.20192 0.4762 0.0
H2365 H 0.71982 0.21404 0.51027 0.0
H2366 H 0.66751 0.17452 0.47474 0.0
H2367 H 0.69957 0.2102 0.32472 0.0
H2368 H 0.72171 0.22283 0.25401 0.0
H2369 H 0.70418 0.17952 0.1576 0.0
H2370 H 0.68205 0.16655 0.22827 0.0
H2371 H 0.6082 0.15934 0.21186 0.0
H2372 H 0.63471 0.17427 0.25342 0.0
H2373 H 0.62513 0.13533 0.36924 0.0
H2374 H 0.59849 0.12073 0.32999 0.0
H2375 H 0.65875 0.17115 0.2549 0.0
H2376 H 0.64367 0.14689 0.4996 0.0
H2377 H 0.62138 0.13752 0.56967 0.0
H2378 H 0.60479 0.16462 0.47679 0.0
H2379 H 0.62709 0.17435 0.40681 0.0
C2380 C 0.71994 0.18811 0.4092 0.0
C2381 C 0.72576 0.20024 0.4517 0.0
C2382 C 0.70435 0.181 0.39084 0.0
C2383 C 0.69443 0.18622 0.4132 0.0
C2384 C 0.7 0.1978 0.458 0.0
C2385 C 0.71557 0.2047 0.47743 0.0
C2386 C 0.67849 0.17997 0.38784 0.0
C2387 C 0.66558 0.17382 0.42672 0.0
C2388 C 0.67601 0.1796 0.32519 0.0
C2389 C 0.68921 0.18738 0.28208 0.0
C2390 C 0.70048 0.20334 0.28864 0.0
C2391 C 0.71303 0.21057 0.24855 0.0
C2392 C 0.71437 0.20198 0.20141 0.0
C2393 C 0.70314 0.18615 0.19416 0.0
C2394 C 0.69058 0.17886 0.23418 0.0
C2395 C 0.6118 0.15399 0.24608 0.0
C2396 C 0.60128 0.13896 0.26815 0.0
C2397 C 0.62692 0.16252 0.26983 0.0
C2398 C 0.6318 0.15607 0.31543 0.0
C2399 C 0.62149 0.14077 0.33548 0.0
C2400 C 0.6063 0.13238 0.3127 0.0
C2401 C 0.64771 0.16518 0.3417 0.0
C2402 C 0.66065 0.17194 0.30296 0.0
C2403 C 0.6502 0.16668 0.40448 0.0
C2404 C 0.63699 0.16123 0.4476 0.0
C2405 C 0.63533 0.15093 0.49438 0.0
C2406 C 0.62267 0.14554 0.53403 0.0
C2407 C 0.61164 0.15042 0.5275 0.0
C2408 C 0.6133 0.1608 0.48163 0.0
C2409 C 0.62594 0.16625 0.44195 0.0
H2410 H 0.6018 0.14616 0.55796 0.0
H2411 H 0.7241 0.20759 0.17044 0.0
H2412 H 0.52653 0.14119 0.16131 0.0
H2413 H 0.51234 0.15465 0.19106 0.0
H2414 H 0.52767 0.15658 0.37382 0.0
H2415 H 0.54102 0.14238 0.34484 0.0
H2416 H 0.49897 0.14823 0.3759 0.0
H2417 H 0.54332 0.18958 0.27295 0.0
H2418 H 0.56154 0.20214 0.1885 0.0
H2419 H 0.52344 0.19675 0.07798 0.0
H2420 H 0.50495 0.18397 0.16154 0.0
H2421 H 0.47848 0.20404 0.48227 0.0
H2422 H 0.49323 0.19127 0.45137 0.0
H2423 H 0.47193 0.18262 0.27627 0.0
H2424 H 0.45725 0.19539 0.30632 0.0
H2425 H 0.50361 0.1947 0.27029 0.0
H2426 H 0.45955 0.15344 0.37667 0.0
H2427 H 0.442 0.14164 0.46343 0.0
H2428 H 0.48097 0.14807 0.57093 0.0
H2429 H 0.4988 0.16013 0.48501 0.0
C2430 C 0.52691 0.1446 0.20768 0.0
C2431 C 0.53482 0.14075 0.25081 0.0
C2432 C 0.51889 0.15236 0.22464 0.0
C2433 C 0.5191 0.15683 0.28464 0.0
C2434 C 0.52727 0.15321 0.32736 0.0
C2435 C 0.53492 0.14513 0.31074 0.0
C2436 C 0.51033 0.16472 0.30382 0.0
C2437 C 0.50021 0.15855 0.35327 0.0
C2438 C 0.51162 0.17797 0.2736 0.0
C2439 C 0.52273 0.18568 0.22334 0.0
C2440 C 0.53881 0.19097 0.23051 0.0
C2441 C 0.54919 0.19815 0.18282 0.0
C2442 C 0.54365 0.2002 0.12787 0.0
C2443 C 0.52772 0.19513 0.12054 0.0
C2444 C 0.51729 0.18793 0.16806 0.0
C2445 C 0.47689 0.19937 0.43729 0.0
C2446 C 0.46668 0.20073 0.39681 0.0
C2447 C 0.4853 0.19206 0.41975 0.0
C2448 C 0.48359 0.18596 0.36163 0.0
C2449 C 0.47342 0.1873 0.32126 0.0
C2450 C 0.46501 0.19456 0.33868 0.0
C2451 C 0.49247 0.17827 0.34242 0.0
C2452 C 0.50251 0.18444 0.29292 0.0
C2453 C 0.49127 0.16514 0.37298 0.0
C2454 C 0.48053 0.15783 0.42457 0.0
C2455 C 0.4644 0.15246 0.41894 0.0
C2456 C 0.4544 0.1457 0.46795 0.0
C2457 C 0.46037 0.14414 0.52271 0.0
C2458 C 0.47636 0.1493 0.52852 0.0
C2459 C 0.48642 0.15609 0.47968 0.0
H2460 H 0.45261 0.1389 0.56059 0.0
H2461 H 0.5517 0.20576 0.09101 0.0
H2462 H 0.76963 0.2668 0.40168 0.0
H2463 H 0.78239 0.29331 0.35942 0.0
H2464 H 0.82513 0.30433 0.45287 0.0
H2465 H 0.81199 0.27804 0.49779 0.0
H2466 H 0.82229 0.3295 0.44597 0.0
H2467 H 0.81903 0.29075 0.30636 0.0
H2468 H 0.80462 0.26555 0.25297 0.0
H2469 H 0.77528 0.28088 0.1696 0.0
H2470 H 0.78957 0.30625 0.22264 0.0
H2471 H 0.87767 0.3888 0.26741 0.0
H2472 H 0.8623 0.36229 0.30741 0.0
H2473 H 0.82089 0.35735 0.22064 0.0
H2474 H 0.83642 0.38387 0.17882 0.0
H2475 H 0.82178 0.32932 0.22338 0.0
H2476 H 0.8288 0.37033 0.36284 0.0
H2477 H 0.84488 0.39483 0.41935 0.0
H2478 H 0.86935 0.3743 0.50535 0.0
H2479 H 0.85357 0.34976 0.44883 0.0
C2480 C 0.78159 0.27512 0.41451 0.0
C2481 C 0.78993 0.27062 0.45272 0.0
C2482 C 0.7889 0.29015 0.39007 0.0
C2483 C 0.80483 0.30061 0.4017 0.0
C2484 C 0.81285 0.29641 0.44312 0.0
C2485 C 0.80539 0.28147 0.46874 0.0
C2486 C 0.81348 0.31527 0.36669 0.0
C2487 C 0.82226 0.32946 0.39736 0.0
C2488 C 0.81335 0.31518 0.3032 0.0
C2489 C 0.80528 0.30033 0.26874 0.0
C2490 C 0.80948 0.28872 0.27672 0.0
C2491 C 0.80131 0.2744 0.24663 0.0
C2492 C 0.78893 0.27154 0.20834 0.0
C2493 C 0.78481 0.28308 0.19956 0.0
C2494 C 0.793 0.29747 0.22938 0.0
C2495 C 0.86536 0.38194 0.25581 0.0
C2496 C 0.85814 0.38843 0.22093 0.0
C2497 C 0.8566 0.36683 0.27871 0.0
C2498 C 0.8404 0.35808 0.26832 0.0
C2499 C 0.83337 0.36401 0.22951 0.0
C2500 C 0.84223 0.37912 0.20568 0.0
C2501 C 0.83068 0.34355 0.30279 0.0
C2502 C 0.8217 0.32938 0.27198 0.0
C2503 C 0.83087 0.34361 0.36629 0.0
C2504 C 0.84005 0.35824 0.40138 0.0
C2505 C 0.83764 0.37106 0.39366 0.0
C2506 C 0.84671 0.38495 0.42567 0.0
C2507 C 0.85812 0.38609 0.46584 0.0
C2508 C 0.86049 0.37337 0.47423 0.0
C2509 C 0.85148 0.35947 0.4423 0.0
H2510 H 0.86512 0.3968 0.49061 0.0
H2511 H 0.78262 0.26044 0.18505 0.0
H2512 H 0.72368 0.52012 0.50287 0.0
H2513 H 0.69646 0.50567 0.46834 0.0
H2514 H 0.71245 0.50846 0.28622 0.0
H2515 H 0.73958 0.52353 0.32013 0.0
H2516 H 0.69054 0.51493 0.28612 0.0
H2517 H 0.69589 0.4735 0.37341 0.0
H2518 H 0.7023 0.45992 0.45168 0.0
H2519 H 0.66765 0.46014 0.56778 0.0
H2520 H 0.66117 0.47392 0.4905 0.0
H2521 H 0.61368 0.46048 0.17685 0.0
H2522 H 0.64133 0.47188 0.20502 0.0
H2523 H 0.63026 0.47855 0.38569 0.0
H2524 H 0.60275 0.46722 0.35834 0.0
H2525 H 0.64974 0.46576 0.38099 0.0
H2526 H 0.64592 0.50873 0.29208 0.0
H2527 H 0.63951 0.52162 0.211 0.0
H2528 H 0.67163 0.51722 0.09359 0.0
H2529 H 0.67807 0.50409 0.17379 0.0
C2530 C 0.72135 0.51755 0.45556 0.0
C2531 C 0.73371 0.52295 0.4142 0.0
C2532 C 0.7058 0.50921 0.43586 0.0
C2533 C 0.70238 0.50576 0.3747 0.0
C2534 C 0.71477 0.51099 0.33357 0.0
C2535 C 0.73027 0.51958 0.35304 0.0
C2536 C 0.68592 0.49732 0.35311 0.0
C2537 C 0.68171 0.50402 0.30625 0.0
C2538 C 0.6743 0.4832 0.37978 0.0
C2539 C 0.67814 0.47487 0.42632 0.0
C2540 C 0.68971 0.47076 0.41579 0.0
C2541 C 0.69335 0.463 0.45996 0.0
C2542 C 0.68542 0.4592 0.51472 0.0
C2543 C 0.6738 0.46311 0.52537 0.0
C2544 C 0.67013 0.47087 0.48137 0.0
C2545 C 0.61714 0.46435 0.22258 0.0
C2546 C 0.60603 0.46299 0.26528 0.0
C2547 C 0.63292 0.47087 0.23853 0.0
C2548 C 0.63779 0.47608 0.29736 0.0
C2549 C 0.6267 0.47454 0.34013 0.0
C2550 C 0.611 0.46813 0.32424 0.0
C2551 C 0.65448 0.48346 0.31461 0.0
C2552 C 0.65869 0.47657 0.36063 0.0
C2553 C 0.66614 0.49729 0.28673 0.0
C2554 C 0.66234 0.50528 0.2387 0.0
C2555 C 0.65152 0.5104 0.24882 0.0
C2556 C 0.6479 0.51776 0.20306 0.0
C2557 C 0.65512 0.52019 0.14712 0.0
C2558 C 0.66602 0.5153 0.1369 0.0
C2559 C 0.66967 0.50791 0.1825 0.0
H2560 H 0.6523 0.5259 0.11175 0.0
H2561 H 0.68825 0.4532 0.54885 0.0
H2562 H 0.5459 0.81156 0.65358 0.0
H2563 H 0.533 0.8257 0.68951 0.0
H2564 H 0.49339 0.79762 0.57455 0.0
H2565 H 0.50659 0.784 0.53634 0.0
H2566 H 0.4991 0.82556 0.56915 0.0
H2567 H 0.49291 0.79142 0.7303 0.0
H2568 H 0.50109 0.77879 0.80641 0.0
H2569 H 0.52989 0.82332 0.89151 0.0
H2570 H 0.52205 0.83627 0.81533 0.0
H2571 H 0.4541 0.84445 0.8118 0.0
H2572 H 0.46698 0.82978 0.78162 0.0
H2573 H 0.49723 0.86751 0.66275 0.0
H2574 H 0.48388 0.88185 0.69057 0.0
H2575 H 0.49447 0.83305 0.78645 0.0
H2576 H 0.50482 0.85406 0.53834 0.0
H2577 H 0.49267 0.86278 0.46203 0.0
H2578 H 0.44823 0.83725 0.55129 0.0
H2579 H 0.46005 0.82821 0.62762 0.0
C2580 C 0.53445 0.80844 0.63594 0.0
C2581 C 0.52722 0.79667 0.59229 0.0
C2582 C 0.52705 0.81645 0.65678 0.0
C2583 C 0.51209 0.81253 0.63557 0.0
C2584 C 0.50492 0.80085 0.5916 0.0
C2585 C 0.51246 0.79307 0.56983 0.0
C2586 C 0.50403 0.82079 0.65836 0.0
C2587 C 0.49808 0.82716 0.61668 0.0
C2588 C 0.50233 0.82257 0.72043 0.0
C2589 C 0.507 0.81484 0.76672 0.0
C2590 C 0.50107 0.79854 0.765 0.0
C2591 C 0.50564 0.79132 0.80818 0.0
C2592 C 0.51604 0.80025 0.85364 0.0
C2593 C 0.52185 0.81642 0.85619 0.0
C2594 C 0.51733 0.82371 0.81304 0.0
C2595 C 0.46356 0.84963 0.77946 0.0
C2596 C 0.46786 0.86417 0.75284 0.0
C2597 C 0.47093 0.84127 0.76238 0.0
C2598 C 0.48285 0.8474 0.71903 0.0
C2599 C 0.48776 0.86235 0.69504 0.0
C2600 C 0.48017 0.87055 0.7111 0.0
C2601 C 0.48974 0.83795 0.69715 0.0
C2602 C 0.49549 0.8314 0.73896 0.0
C2603 C 0.49063 0.83539 0.63522 0.0
C2604 C 0.48337 0.8406 0.58901 0.0
C2605 C 0.49244 0.85026 0.54152 0.0
C2606 C 0.48561 0.85526 0.4983 0.0
C2607 C 0.4697 0.85062 0.50192 0.0
C2608 C 0.46057 0.84089 0.54865 0.0
C2609 C 0.46733 0.83584 0.59193 0.0
H2610 H 0.46445 0.85452 0.46846 0.0
H2611 H 0.51958 0.79463 0.8869 0.0
H2612 H 0.19575 0.72134 0.52153 0.0
H2613 H 0.18085 0.69417 0.55588 0.0
H2614 H 0.18523 0.71003 0.73865 0.0
H2615 H 0.20007 0.73733 0.70472 0.0
H2616 H 0.19267 0.68568 0.71943 0.0
H2617 H 0.15167 0.69719 0.6781 0.0
H2618 H 0.13731 0.70683 0.61726 0.0
H2619 H 0.12877 0.67235 0.48242 0.0
H2620 H 0.14329 0.66266 0.54207 0.0
H2621 H 0.13963 0.609 0.82886 0.0
H2622 H 0.15297 0.63717 0.80857 0.0
H2623 H 0.14405 0.62774 0.61948 0.0
H2624 H 0.13031 0.59964 0.63952 0.0
H2625 H 0.13824 0.64981 0.65054 0.0
H2626 H 0.1806 0.63957 0.68447 0.0
H2627 H 0.19581 0.63009 0.74071 0.0
H2628 H 0.20269 0.66202 0.88393 0.0
H2629 H 0.18734 0.67155 0.82885 0.0
C2630 C 0.19354 0.71907 0.56904 0.0
C2631 C 0.19906 0.73147 0.61043 0.0
C2632 C 0.18498 0.70356 0.58851 0.0
C2633 C 0.18191 0.70017 0.64967 0.0
C2634 C 0.1875 0.71247 0.69124 0.0
C2635 C 0.1959 0.72802 0.67174 0.0
C2636 C 0.173 0.68371 0.6699 0.0
C2637 C 0.18067 0.67785 0.70537 0.0
C2638 C 0.1575 0.67354 0.65021 0.0
C2639 C 0.14869 0.67929 0.61435 0.0
C2640 C 0.14685 0.69175 0.63525 0.0
C2641 C 0.13865 0.6972 0.60102 0.0
C2642 C 0.13216 0.69023 0.54595 0.0
C2643 C 0.13382 0.67775 0.52507 0.0
C2644 C 0.14201 0.67226 0.5591 0.0
C2645 C 0.14054 0.61294 0.78295 0.0
C2646 C 0.13394 0.60209 0.73576 0.0
C2647 C 0.14821 0.62904 0.77142 0.0
C2648 C 0.14966 0.63456 0.71243 0.0
C2649 C 0.14304 0.62374 0.66536 0.0
C2650 C 0.13522 0.60768 0.67689 0.0
C2651 C 0.15798 0.65159 0.69931 0.0
C2652 C 0.15019 0.6576 0.66518 0.0
C2653 C 0.17344 0.66186 0.71967 0.0
C2654 C 0.18267 0.65614 0.75285 0.0
C2655 C 0.18525 0.64447 0.72818 0.0
C2656 C 0.19391 0.63911 0.7598 0.0
C2657 C 0.20017 0.64541 0.81594 0.0
C2658 C 0.19781 0.65713 0.8405 0.0
C2659 C 0.18914 0.66252 0.80909 0.0
H2660 H 0.20688 0.64125 0.84034 0.0
H2661 H 0.12583 0.69446 0.51951 0.0
H2662 H 0.27622 0.47419 0.51247 0.0
H2663 H 0.30397 0.48765 0.53979 0.0
H2664 H 0.2915 0.47628 0.72565 0.0
H2665 H 0.26368 0.46273 0.69889 0.0
H2666 H 0.31427 0.5079 0.70506 0.0
H2667 H 0.30416 0.45611 0.65212 0.0
H2668 H 0.29493 0.43309 0.58604 0.0
H2669 H 0.32813 0.46174 0.45153 0.0
H2670 H 0.33741 0.48499 0.51651 0.0
H2671 H 0.38868 0.52851 0.82179 0.0
H2672 H 0.36102 0.51468 0.79371 0.0
H2673 H 0.3739 0.51907 0.60692 0.0
H2674 H 0.40161 0.5324 0.63486 0.0
H2675 H 0.35072 0.49107 0.62667 0.0
H2676 H 0.36103 0.5427 0.67476 0.0
H2677 H 0.3703 0.56653 0.73627 0.0
H2678 H 0.33702 0.53964 0.87337 0.0
H2679 H 0.32769 0.5156 0.81301 0.0
C2680 C 0.27936 0.47453 0.55919 0.0
C2681 C 0.26774 0.46737 0.60354 0.0
C2682 C 0.29521 0.48218 0.57463 0.0
C2683 C 0.29972 0.48284 0.63462 0.0
C2684 C 0.2882 0.47584 0.67908 0.0
C2685 C 0.27233 0.46807 0.66366 0.0
C2686 C 0.31649 0.491 0.65108 0.0
C2687 C 0.32224 0.50413 0.68866 0.0
C2688 C 0.32688 0.48631 0.62793 0.0
C2689 C 0.32137 0.47232 0.58896 0.0
C2690 C 0.3094 0.45753 0.60825 0.0
C2691 C 0.30418 0.44443 0.57103 0.0
C2692 C 0.31091 0.44596 0.51456 0.0
C2693 C 0.32291 0.46058 0.49525 0.0
C2694 C 0.32817 0.47372 0.53228 0.0
C2695 C 0.38563 0.52655 0.77472 0.0
C2696 C 0.39732 0.53159 0.73049 0.0
C2697 C 0.36981 0.51871 0.75871 0.0
C2698 C 0.36539 0.51608 0.69815 0.0
C2699 C 0.37704 0.52099 0.65393 0.0
C2700 C 0.39287 0.52863 0.66995 0.0
C2701 C 0.3486 0.50803 0.68098 0.0
C2702 C 0.34281 0.49491 0.64316 0.0
C2703 C 0.33821 0.51287 0.70323 0.0
C2704 C 0.34376 0.52732 0.73959 0.0
C2705 C 0.35577 0.54184 0.71822 0.0
C2706 C 0.36102 0.55539 0.75284 0.0
C2707 C 0.35428 0.55459 0.80875 0.0
C2708 C 0.34224 0.54024 0.83008 0.0
C2709 C 0.33696 0.52665 0.79566 0.0
H2710 H 0.35836 0.56509 0.83549 0.0
H2711 H 0.30686 0.4358 0.48581 0.0
H2712 H 0.12984 0.53296 0.63167 0.0
H2713 H 0.14471 0.52056 0.60026 0.0
H2714 H 0.16091 0.52277 0.78154 0.0
H2715 H 0.14626 0.53559 0.8135 0.0
H2716 H 0.18437 0.53108 0.70173 0.0
H2717 H 0.13171 0.48849 0.72467 0.0
H2718 H 0.10307 0.47433 0.7092 0.0
H2719 H 0.10976 0.47295 0.51971 0.0
H2720 H 0.13847 0.48728 0.53398 0.0
H2721 H 0.20498 0.47166 0.68281 0.0
H2722 H 0.19236 0.48694 0.70625 0.0
H2723 H 0.18452 0.49029 0.51809 0.0
H2724 H 0.19746 0.47515 0.49387 0.0
H2725 H 0.15734 0.47978 0.59665 0.0
H2726 H 0.21038 0.52145 0.57608 0.0
H2727 H 0.23891 0.53532 0.59378 0.0
H2728 H 0.23132 0.53784 0.78186 0.0
H2729 H 0.2027 0.52377 0.76542 0.0
C2730 C 0.13655 0.53084 0.66509 0.0
C2731 C 0.13678 0.53519 0.72529 0.0
C2732 C 0.14501 0.52369 0.64697 0.0
C2733 C 0.15372 0.52054 0.68871 0.0
C2734 C 0.15421 0.52507 0.74868 0.0
C2735 C 0.14579 0.53233 0.7669 0.0
C2736 C 0.16221 0.51243 0.66947 0.0
C2737 C 0.17843 0.51977 0.67944 0.0
C2738 C 0.1545 0.49786 0.63904 0.0
C2739 C 0.13724 0.48909 0.63035 0.0
C2740 C 0.12707 0.48526 0.67966 0.0
C2741 C 0.11083 0.47719 0.67112 0.0
C2742 C 0.1046 0.47278 0.61349 0.0
C2743 C 0.11461 0.47639 0.56431 0.0
C2744 C 0.13086 0.48447 0.57261 0.0
C2745 C 0.20064 0.47569 0.64629 0.0
C2746 C 0.20218 0.4722 0.58647 0.0
C2747 C 0.1935 0.48447 0.6598 0.0
C2748 C 0.18761 0.48976 0.61385 0.0
C2749 C 0.18907 0.48631 0.55403 0.0
C2750 C 0.19648 0.47772 0.54032 0.0
C2751 C 0.17944 0.49841 0.62915 0.0
C2752 C 0.16327 0.49113 0.6186 0.0
C2753 C 0.18717 0.51297 0.65943 0.0
C2754 C 0.20438 0.52141 0.66958 0.0
C2755 C 0.21478 0.52482 0.62131 0.0
C2756 C 0.23097 0.53275 0.63109 0.0
C2757 C 0.23693 0.53742 0.68893 0.0
C2758 C 0.22669 0.5342 0.73709 0.0
C2759 C 0.21048 0.52626 0.72755 0.0
H2760 H 0.24947 0.54357 0.69642 0.0
H2761 H 0.09202 0.46655 0.60696 0.0
H2762 H 0.45972 0.60873 0.82389 0.0
H2763 H 0.47158 0.63613 0.79133 0.0
H2764 H 0.48261 0.62376 0.61997 0.0
H2765 H 0.47117 0.59666 0.65212 0.0
H2766 H 0.50661 0.65002 0.65942 0.0
H2767 H 0.45112 0.62916 0.63754 0.0
H2768 H 0.42356 0.61611 0.67085 0.0
H2769 H 0.43516 0.65244 0.80088 0.0
H2770 H 0.46285 0.66559 0.7689 0.0
H2771 H 0.51931 0.71671 0.48809 0.0
H2772 H 0.50553 0.68937 0.5234 0.0
H2773 H 0.50611 0.70528 0.70385 0.0
H2774 H 0.52019 0.73249 0.66945 0.0
H2775 H 0.47611 0.67772 0.66111 0.0
H2776 H 0.53192 0.69798 0.68268 0.0
H2777 H 0.55917 0.71108 0.64588 0.0
H2778 H 0.54625 0.67538 0.51192 0.0
H2779 H 0.51883 0.66221 0.54734 0.0
C2780 C 0.46476 0.61189 0.77945 0.0
C2781 C 0.46442 0.60049 0.74058 0.0
C2782 C 0.47145 0.62751 0.76079 0.0
C2783 C 0.4778 0.63192 0.70295 0.0
C2784 C 0.47777 0.62062 0.66474 0.0
C2785 C 0.47116 0.60509 0.68328 0.0
C2786 C 0.48446 0.64826 0.68149 0.0
C2787 C 0.49986 0.65599 0.65927 0.0
C2788 C 0.47573 0.65613 0.68202 0.0
C2789 C 0.45909 0.64826 0.70129 0.0
C2790 C 0.44782 0.63429 0.67359 0.0
C2791 C 0.43217 0.62689 0.69216 0.0
C2792 C 0.42762 0.63341 0.73808 0.0
C2793 C 0.4387 0.64738 0.7654 0.0
C2794 C 0.45438 0.65482 0.74705 0.0
C2795 C 0.51631 0.71431 0.53508 0.0
C2796 C 0.5209 0.72664 0.57617 0.0
C2797 C 0.50848 0.69877 0.55513 0.0
C2798 C 0.50488 0.69543 0.61614 0.0
C2799 C 0.50878 0.70769 0.65662 0.0
C2800 C 0.51689 0.72318 0.63693 0.0
C2801 C 0.4981 0.67926 0.63878 0.0
C2802 C 0.48276 0.67165 0.66132 0.0
C2803 C 0.50681 0.67142 0.6382 0.0
C2804 C 0.5233 0.67923 0.61716 0.0
C2805 C 0.53486 0.69301 0.64498 0.0
C2806 C 0.55034 0.70043 0.62446 0.0
C2807 C 0.55443 0.69409 0.57646 0.0
C2808 C 0.54305 0.68029 0.54901 0.0
C2809 C 0.52754 0.67285 0.5693 0.0
H2810 H 0.56643 0.69984 0.56064 0.0
H2811 H 0.41549 0.62767 0.75238 0.0
H2812 H 0.27898 0.80155 0.49613 0.0
H2813 H 0.30675 0.8146 0.52462 0.0
H2814 H 0.29347 0.80202 0.70952 0.0
H2815 H 0.26592 0.78982 0.6817 0.0
H2816 H 0.31449 0.83063 0.70576 0.0
H2817 H 0.30927 0.78388 0.61417 0.0
H2818 H 0.30289 0.76452 0.53335 0.0
H2819 H 0.33685 0.80055 0.41881 0.0
H2820 H 0.3433 0.82016 0.49871 0.0
H2821 H 0.38863 0.84918 0.82397 0.0
H2822 H 0.36146 0.83426 0.78909 0.0
H2823 H 0.37607 0.8537 0.61199 0.0
H2824 H 0.4032 0.86854 0.64602 0.0
H2825 H 0.35497 0.82205 0.60938 0.0
H2826 H 0.36 0.86852 0.70277 0.0
H2827 H 0.36658 0.88751 0.7851 0.0
H2828 H 0.33273 0.85102 0.89841 0.0
H2829 H 0.3261 0.83176 0.81698 0.0
C2830 C 0.28206 0.80151 0.54269 0.0
C2831 C 0.27037 0.79479 0.58679 0.0
C2832 C 0.29791 0.80887 0.55894 0.0
C2833 C 0.30223 0.8092 0.61925 0.0
C2834 C 0.29046 0.80204 0.66282 0.0
C2835 C 0.27472 0.79504 0.64686 0.0
C2836 C 0.31891 0.81766 0.63811 0.0
C2837 C 0.32326 0.82853 0.68518 0.0
C2838 C 0.3305 0.8153 0.61025 0.0
C2839 C 0.32665 0.80351 0.56223 0.0
C2840 C 0.31529 0.78769 0.5716 0.0
C2841 C 0.31168 0.77667 0.52598 0.0
C2842 C 0.31943 0.78131 0.47093 0.0
C2843 C 0.33084 0.79698 0.46144 0.0
C2844 C 0.33449 0.80805 0.50689 0.0
C2845 C 0.38607 0.85025 0.77758 0.0
C2846 C 0.39807 0.8601 0.73789 0.0
C2847 C 0.37055 0.84174 0.75776 0.0
C2848 C 0.36679 0.843 0.69809 0.0
C2849 C 0.37876 0.85258 0.65817 0.0
C2850 C 0.39425 0.8611 0.67788 0.0
C2851 C 0.35032 0.83467 0.67752 0.0
C2852 C 0.3461 0.82398 0.62998 0.0
C2853 C 0.33879 0.83707 0.70516 0.0
C2854 C 0.34267 0.84867 0.75397 0.0
C2855 C 0.35404 0.86452 0.74538 0.0
C2856 C 0.35777 0.87534 0.79186 0.0
C2857 C 0.35011 0.87047 0.847 0.0
C2858 C 0.33867 0.85477 0.85571 0.0
C2859 C 0.33491 0.84391 0.8094 0.0
H2860 H 0.35301 0.87886 0.88293 0.0
H2861 H 0.31661 0.77276 0.43567 0.0
loop_
_geom_bond_atom_site_label_1
_geom_bond_atom_site_label_2
_geom_bond_distance
_geom_bond_site_symmetry_2
_ccdc_geom_bond_type
Co0 O3 1.970 . S
Co0 N17 1.989 . S
Co0 O25 1.967 . S
Co0 O32 1.920 1_554 S
Co1 O4 1.966 . S
Co1 N10 2.022 . S
Co1 N18 1.993 . S
Co1 O26 1.941 . S
C2 O3 1.258 . S
C2 O4 1.263 . S
O3 Co0 1.970 . S
O3 C2 1.258 . S
O4 Co1 1.966 . S
O4 C2 1.263 . S
C5 O6 1.235 . S
C5 O32 1.289 . S
O6 C5 1.235 . S
C7 C9 1.400 . S
C7 N10 1.351 . S
C7 C12 1.501 . S
C8 C9 1.387 . S
C8 N11 1.341 . S
C9 C7 1.400 . S
C9 C8 1.387 . S
N10 Co1 2.022 . S
N10 C7 1.351 . S
N10 N11 1.365 . S
N11 C8 1.341 . S
N11 N10 1.365 . S
N11 H31 0.862 . S
C12 C7 1.501 . S
C12 H13 0.961 . S
C12 H14 0.961 . S
C12 H15 0.960 . S
H13 C12 0.961 . S
H14 C12 0.961 . S
H15 C12 0.960 . S
C16 N17 1.342 . S
C16 C20 1.401 . S
C16 C21 1.499 . S
N17 Co0 1.989 . S
N17 C16 1.342 . S
N17 N18 1.388 . S
N18 Co1 1.993 . S
N18 N17 1.388 . S
N18 C19 1.346 . S
C19 N18 1.346 . S
C19 C20 1.396 . S
C19 C29 1.510 . S
C20 C16 1.401 . S
C20 C19 1.396 . S
C21 C16 1.499 . S
C21 H22 0.959 . S
C21 H23 0.960 . S
C21 H24 0.961 . S
H22 C21 0.959 . S
H23 C21 0.960 . S
H24 C21 0.961 . S
O25 Co0 1.967 . S
O25 C33 1.258 . S
O26 Co1 1.941 . S
O26 C33 1.266 . S
H27 C29 0.959 . S
H28 C29 0.961 . S
C29 C19 1.510 . S
C29 H27 0.959 . S
C29 H28 0.961 . S
C29 H30 0.960 . S
H30 C29 0.960 . S
H31 N11 0.862 . S
O32 Co0 1.920 1_556 S
O32 C5 1.289 . S
C33 O25 1.258 . S
C33 O26 1.266 . S
Co34 O37 1.970 . S
Co34 N51 1.989 . S
Co34 O59 1.967 . S
Co34 O66 1.920 1_554 S
Co35 O38 1.966 . S
Co35 N44 2.022 . S
Co35 N52 1.993 . S
Co35 O60 1.941 . S
C36 O37 1.258 . S
C36 O38 1.263 . S
O37 Co34 1.970 . S
O37 C36 1.258 . S
O38 Co35 1.966 . S
O38 C36 1.263 . S
C39 O40 1.235 . S
C39 O66 1.289 . S
O40 C39 1.235 . S
C41 C43 1.400 . S
C41 N44 1.351 . S
C41 C46 1.501 . S
C42 C43 1.387 . S
C42 N45 1.341 . S
C43 C41 1.400 . S
C43 C42 1.387 . S
N44 Co35 2.022 . S
N44 C41 1.351 . S
N44 N45 1.365 . S
N45 C42 1.341 . S
N45 N44 1.365 . S
N45 H65 0.862 . S
C46 C41 1.501 . S
C46 H47 0.961 . S
C46 H48 0.961 . S
C46 H49 0.960 . S
H47 C46 0.961 . S
H48 C46 0.961 . S
H49 C46 0.960 . S
C50 N51 1.342 . S
C50 C54 1.401 . S
C50 C55 1.499 . S
N51 Co34 1.989 . S
N51 C50 1.342 . S
N51 N52 1.388 . S
N52 Co35 1.993 . S
N52 N51 1.388 . S
N52 C53 1.346 . S
C53 N52 1.346 . S
C53 C54 1.396 . S
C53 C63 1.510 . S
C54 C50 1.401 . S
C54 C53 1.396 . S
C55 C50 1.499 . S
C55 H56 0.959 . S
C55 H57 0.960 . S
C55 H58 0.961 . S
H56 C55 0.959 . S
H57 C55 0.960 . S
H58 C55 0.961 . S
O59 Co34 1.967 . S
O59 C67 1.258 . S
O60 Co35 1.941 . S
O60 C67 1.266 . S
H61 C63 0.959 . S
H62 C63 0.961 . S
C63 C53 1.510 . S
C63 H61 0.959 . S
C63 H62 0.961 . S
C63 H64 0.960 . S
H64 C63 0.960 . S
H65 N45 0.862 . S
O66 Co34 1.920 1_556 S
O66 C39 1.289 . S
C67 O59 1.258 . S
C67 O60 1.266 . S
Co68 O71 1.970 . S
Co68 N85 1.989 . S
Co68 O93 1.967 . S
Co68 O100 1.920 1_554 S
Co69 O72 1.966 . S
Co69 N78 2.022 . S
Co69 N86 1.993 . S
Co69 O94 1.941 . S
C70 O71 1.258 . S
C70 O72 1.263 . S
O71 Co68 1.970 . S
O71 C70 1.258 . S
O72 Co69 1.966 . S
O72 C70 1.263 . S
C73 O74 1.235 . S
C73 O100 1.289 . S
O74 C73 1.235 . S
C75 C77 1.400 . S
C75 N78 1.351 . S
C75 C80 1.501 . S
C76 C77 1.387 . S
C76 N79 1.341 . S
C77 C75 1.400 . S
C77 C76 1.387 . S
N78 Co69 2.022 . S
N78 C75 1.351 . S
N78 N79 1.365 . S
N79 C76 1.341 . S
N79 N78 1.365 . S
N79 H99 0.862 . S
C80 C75 1.501 . S
C80 H81 0.961 . S
C80 H82 0.961 . S
C80 H83 0.960 . S
H81 C80 0.961 . S
H82 C80 0.961 . S
H83 C80 0.960 . S
C84 N85 1.342 . S
C84 C88 1.401 . S
C84 C89 1.499 . S
N85 Co68 1.989 . S
N85 C84 1.342 . S
N85 N86 1.388 . S
N86 Co69 1.993 . S
N86 N85 1.388 . S
N86 C87 1.346 . S
C87 N86 1.346 . S
C87 C88 1.396 . S
C87 C97 1.510 . S
C88 C84 1.401 . S
C88 C87 1.396 . S
C89 C84 1.499 . S
C89 H90 0.959 . S
C89 H91 0.960 . S
C89 H92 0.961 . S
H90 C89 0.959 . S
H91 C89 0.960 . S
H92 C89 0.961 . S
O93 Co68 1.967 . S
O93 C101 1.258 . S
O94 Co69 1.941 . S
O94 C101 1.266 . S
H95 C97 0.959 . S
H96 C97 0.961 . S
C97 C87 1.510 . S
C97 H95 0.959 . S
C97 H96 0.961 . S
C97 H98 0.960 . S
H98 C97 0.960 . S
H99 N79 0.862 . S
O100 Co68 1.920 1_556 S
O100 C73 1.289 . S
C101 O93 1.258 . S
C101 O94 1.266 . S
Co102 O105 1.970 . S
Co102 N119 1.989 . S
Co102 O127 1.967 . S
Co102 O134 1.920 1_556 S
Co103 O106 1.966 . S
Co103 N112 2.022 . S
Co103 N120 1.993 . S
Co103 O128 1.941 . S
C104 O105 1.258 . S
C104 O106 1.263 . S
O105 Co102 1.970 . S
O105 C104 1.258 . S
O106 Co103 1.966 . S
O106 C104 1.263 . S
C107 O108 1.235 . S
C107 O134 1.289 . S
O108 C107 1.235 . S
C109 C111 1.400 . S
C109 N112 1.351 . S
C109 C114 1.501 . S
C110 C111 1.387 . S
C110 N113 1.341 . S
C111 C109 1.400 . S
C111 C110 1.387 . S
N112 Co103 2.022 . S
N112 C109 1.351 . S
N112 N113 1.365 . S
N113 C110 1.341 . S
N113 N112 1.365 . S
N113 H133 0.862 . S
C114 C109 1.501 . S
C114 H115 0.961 . S
C114 H116 0.961 . S
C114 H117 0.960 . S
H115 C114 0.961 . S
H116 C114 0.961 . S
H117 C114 0.960 . S
C118 N119 1.342 . S
C118 C122 1.401 . S
C118 C123 1.499 . S
N119 Co102 1.989 . S
N119 C118 1.342 . S
N119 N120 1.388 . S
N120 Co103 1.993 . S
N120 N119 1.388 . S
N120 C121 1.346 . S
C121 N120 1.346 . S
C121 C122 1.396 . S
C121 C131 1.510 . S
C122 C118 1.401 . S
C122 C121 1.396 . S
C123 C118 1.499 . S
C123 H124 0.959 . S
C123 H125 0.960 . S
C123 H126 0.961 . S
H124 C123 0.959 . S
H125 C123 0.960 . S
H126 C123 0.961 . S
O127 Co102 1.967 . S
O127 C135 1.258 . S
O128 Co103 1.941 . S
O128 C135 1.266 . S
H129 C131 0.959 . S
H130 C131 0.961 . S
C131 C121 1.510 . S
C131 H129 0.959 . S
C131 H130 0.961 . S
C131 H132 0.960 . S
H132 C131 0.960 . S
H133 N113 0.862 . S
O134 Co102 1.920 1_554 S
O134 C107 1.289 . S
C135 O127 1.258 . S
C135 O128 1.266 . S
Co136 O139 1.970 . S
Co136 N153 1.989 . S
Co136 O161 1.967 . S
Co136 O168 1.920 1_556 S
Co137 O140 1.966 . S
Co137 N146 2.022 . S
Co137 N154 1.993 . S
Co137 O162 1.941 . S
C138 O139 1.258 . S
C138 O140 1.263 . S
O139 Co136 1.970 . S
O139 C138 1.258 . S
O140 Co137 1.966 . S
O140 C138 1.263 . S
C141 O142 1.235 . S
C141 O168 1.289 . S
O142 C141 1.235 . S
C143 C145 1.400 . S
C143 N146 1.351 . S
C143 C148 1.501 . S
C144 C145 1.387 . S
C144 N147 1.341 . S
C145 C143 1.400 . S
C145 C144 1.387 . S
N146 Co137 2.022 . S
N146 C143 1.351 . S
N146 N147 1.365 . S
N147 C144 1.341 . S
N147 N146 1.365 . S
N147 H167 0.862 . S
C148 C143 1.501 . S
C148 H149 0.961 . S
C148 H150 0.961 . S
C148 H151 0.960 . S
H149 C148 0.961 . S
H150 C148 0.961 . S
H151 C148 0.960 . S
C152 N153 1.342 . S
C152 C156 1.401 . S
C152 C157 1.499 . S
N153 Co136 1.989 . S
N153 C152 1.342 . S
N153 N154 1.388 . S
N154 Co137 1.993 . S
N154 N153 1.388 . S
N154 C155 1.346 . S
C155 N154 1.346 . S
C155 C156 1.396 . S
C155 C165 1.510 . S
C156 C152 1.401 . S
C156 C155 1.396 . S
C157 C152 1.499 . S
C157 H158 0.959 . S
C157 H159 0.960 . S
C157 H160 0.961 . S
H158 C157 0.959 . S
H159 C157 0.960 . S
H160 C157 0.961 . S
O161 Co136 1.967 . S
O161 C169 1.258 . S
O162 Co137 1.941 . S
O162 C169 1.266 . S
H163 C165 0.959 . S
H164 C165 0.961 . S
C165 C155 1.510 . S
C165 H163 0.959 . S
C165 H164 0.961 . S
C165 H166 0.960 . S
H166 C165 0.960 . S
H167 N147 0.862 . S
O168 Co136 1.920 1_554 S
O168 C141 1.289 . S
C169 O161 1.258 . S
C169 O162 1.266 . S
Co170 O173 1.970 . S
Co170 N187 1.989 . S
Co170 O195 1.967 . S
Co170 O202 1.920 1_556 S
Co171 O174 1.966 . S
Co171 N180 2.022 . S
Co171 N188 1.993 . S
Co171 O196 1.941 . S
C172 O173 1.258 . S
C172 O174 1.263 . S
O173 Co170 1.970 . S
O173 C172 1.258 . S
O174 Co171 1.966 . S
O174 C172 1.263 . S
C175 O176 1.235 . S
C175 O202 1.289 . S
O176 C175 1.235 . S
C177 C179 1.400 . S
C177 N180 1.351 . S
C177 C182 1.501 . S
C178 C179 1.387 . S
C178 N181 1.341 . S
C179 C177 1.400 . S
C179 C178 1.387 . S
N180 Co171 2.022 . S
N180 C177 1.351 . S
N180 N181 1.365 . S
N181 C178 1.341 . S
N181 N180 1.365 . S
N181 H201 0.862 . S
C182 C177 1.501 . S
C182 H183 0.961 . S
C182 H184 0.961 . S
C182 H185 0.960 . S
H183 C182 0.961 . S
H184 C182 0.961 . S
H185 C182 0.960 . S
C186 N187 1.342 . S
C186 C190 1.401 . S
C186 C191 1.499 . S
N187 Co170 1.989 . S
N187 C186 1.342 . S
N187 N188 1.388 . S
N188 Co171 1.993 . S
N188 N187 1.388 . S
N188 C189 1.346 . S
C189 N188 1.346 . S
C189 C190 1.396 . S
C189 C199 1.510 . S
C190 C186 1.401 . S
C190 C189 1.396 . S
C191 C186 1.499 . S
C191 H192 0.959 . S
C191 H193 0.960 . S
C191 H194 0.961 . S
H192 C191 0.959 . S
H193 C191 0.960 . S
H194 C191 0.961 . S
O195 Co170 1.967 . S
O195 C203 1.258 . S
O196 Co171 1.941 . S
O196 C203 1.266 . S
H197 C199 0.959 . S
H198 C199 0.961 . S
C199 C189 1.510 . S
C199 H197 0.959 . S
C199 H198 0.961 . S
C199 H200 0.960 . S
H200 C199 0.960 . S
H201 N181 0.862 . S
O202 Co170 1.920 1_554 S
O202 C175 1.289 . S
C203 O195 1.258 . S
C203 O196 1.266 . S
Co204 O207 1.970 . S
Co204 N221 1.989 . S
Co204 O229 1.967 . S
Co204 O236 1.920 . S
Co205 O208 1.966 . S
Co205 N214 2.022 . S
Co205 N222 1.993 . S
Co205 O230 1.941 . S
C206 O207 1.258 . S
C206 O208 1.263 . S
O207 Co204 1.970 . S
O207 C206 1.258 . S
O208 Co205 1.966 . S
O208 C206 1.263 . S
C209 O210 1.235 . S
C209 O236 1.289 . S
O210 C209 1.235 . S
C211 C213 1.400 . S
C211 N214 1.351 . S
C211 C216 1.501 . S
C212 C213 1.387 . S
C212 N215 1.341 . S
C213 C211 1.400 . S
C213 C212 1.387 . S
N214 Co205 2.022 . S
N214 C211 1.351 . S
N214 N215 1.365 . S
N215 C212 1.341 . S
N215 N214 1.365 . S
N215 H235 0.862 . S
C216 C211 1.501 . S
C216 H217 0.961 . S
C216 H218 0.961 . S
C216 H219 0.960 . S
H217 C216 0.961 . S
H218 C216 0.961 . S
H219 C216 0.960 . S
C220 N221 1.342 . S
C220 C224 1.401 . S
C220 C225 1.499 . S
N221 Co204 1.989 . S
N221 C220 1.342 . S
N221 N222 1.388 . S
N222 Co205 1.993 . S
N222 N221 1.388 . S
N222 C223 1.346 . S
C223 N222 1.346 . S
C223 C224 1.396 . S
C223 C233 1.510 . S
C224 C220 1.401 . S
C224 C223 1.396 . S
C225 C220 1.499 . S
C225 H226 0.959 . S
C225 H227 0.960 . S
C225 H228 0.961 . S
H226 C225 0.959 . S
H227 C225 0.960 . S
H228 C225 0.961 . S
O229 Co204 1.967 . S
O229 C237 1.258 . S
O230 Co205 1.941 . S
O230 C237 1.266 . S
H231 C233 0.959 . S
H232 C233 0.961 . S
C233 C223 1.510 . S
C233 H231 0.959 . S
C233 H232 0.961 . S
C233 H234 0.960 . S
H234 C233 0.960 . S
H235 N215 0.862 . S
O236 Co204 1.920 . S
O236 C209 1.289 . S
C237 O229 1.258 . S
C237 O230 1.266 . S
Co238 O241 1.970 . S
Co238 N255 1.989 . S
Co238 O263 1.967 . S
Co238 O270 1.920 . S
Co239 O242 1.966 . S
Co239 N248 2.022 . S
Co239 N256 1.993 . S
Co239 O264 1.941 . S
C240 O241 1.258 . S
C240 O242 1.263 . S
O241 Co238 1.970 . S
O241 C240 1.258 . S
O242 Co239 1.966 . S
O242 C240 1.263 . S
C243 O244 1.235 . S
C243 O270 1.289 . S
O244 C243 1.235 . S
C245 C247 1.400 . S
C245 N248 1.351 . S
C245 C250 1.501 . S
C246 C247 1.387 . S
C246 N249 1.341 . S
C247 C245 1.400 . S
C247 C246 1.387 . S
N248 Co239 2.022 . S
N248 C245 1.351 . S
N248 N249 1.365 . S
N249 C246 1.341 . S
N249 N248 1.365 . S
N249 H269 0.862 . S
C250 C245 1.501 . S
C250 H251 0.961 . S
C250 H252 0.961 . S
C250 H253 0.960 . S
H251 C250 0.961 . S
H252 C250 0.961 . S
H253 C250 0.960 . S
C254 N255 1.342 . S
C254 C258 1.401 . S
C254 C259 1.499 . S
N255 Co238 1.989 . S
N255 C254 1.342 . S
N255 N256 1.388 . S
N256 Co239 1.993 . S
N256 N255 1.388 . S
N256 C257 1.346 . S
C257 N256 1.346 . S
C257 C258 1.396 . S
C257 C267 1.510 . S
C258 C254 1.401 . S
C258 C257 1.396 . S
C259 C254 1.499 . S
C259 H260 0.959 . S
C259 H261 0.960 . S
C259 H262 0.961 . S
H260 C259 0.959 . S
H261 C259 0.960 . S
H262 C259 0.961 . S
O263 Co238 1.967 . S
O263 C271 1.258 . S
O264 Co239 1.941 . S
O264 C271 1.266 . S
H265 C267 0.959 . S
H266 C267 0.961 . S
C267 C257 1.510 . S
C267 H265 0.959 . S
C267 H266 0.961 . S
C267 H268 0.960 . S
H268 C267 0.960 . S
H269 N249 0.862 . S
O270 Co238 1.920 . S
O270 C243 1.289 . S
C271 O263 1.258 . S
C271 O264 1.266 . S
Co272 O275 1.970 . S
Co272 N289 1.989 . S
Co272 O297 1.967 . S
Co272 O304 1.920 . S
Co273 O276 1.966 . S
Co273 N282 2.022 . S
Co273 N290 1.993 . S
Co273 O298 1.941 . S
C274 O275 1.258 . S
C274 O276 1.263 . S
O275 Co272 1.970 . S
O275 C274 1.258 . S
O276 Co273 1.966 . S
O276 C274 1.263 . S
C277 O278 1.235 . S
C277 O304 1.289 . S
O278 C277 1.235 . S
C279 C281 1.400 . S
C279 N282 1.351 . S
C279 C284 1.501 . S
C280 C281 1.387 . S
C280 N283 1.341 . S
C281 C279 1.400 . S
C281 C280 1.387 . S
N282 Co273 2.022 . S
N282 C279 1.351 . S
N282 N283 1.365 . S
N283 C280 1.341 . S
N283 N282 1.365 . S
N283 H303 0.862 . S
C284 C279 1.501 . S
C284 H285 0.961 . S
C284 H286 0.961 . S
C284 H287 0.960 . S
H285 C284 0.961 . S
H286 C284 0.961 . S
H287 C284 0.960 . S
C288 N289 1.342 . S
C288 C292 1.401 . S
C288 C293 1.499 . S
N289 Co272 1.989 . S
N289 C288 1.342 . S
N289 N290 1.388 . S
N290 Co273 1.993 . S
N290 N289 1.388 . S
N290 C291 1.346 . S
C291 N290 1.346 . S
C291 C292 1.396 . S
C291 C301 1.510 . S
C292 C288 1.401 . S
C292 C291 1.396 . S
C293 C288 1.499 . S
C293 H294 0.959 . S
C293 H295 0.960 . S
C293 H296 0.961 . S
H294 C293 0.959 . S
H295 C293 0.960 . S
H296 C293 0.961 . S
O297 Co272 1.967 . S
O297 C305 1.258 . S
O298 Co273 1.941 . S
O298 C305 1.266 . S
H299 C301 0.959 . S
H300 C301 0.961 . S
C301 C291 1.510 . S
C301 H299 0.959 . S
C301 H300 0.961 . S
C301 H302 0.960 . S
H302 C301 0.960 . S
H303 N283 0.862 . S
O304 Co272 1.920 . S
O304 C277 1.289 . S
C305 O297 1.258 . S
C305 O298 1.266 . S
Co306 O309 1.970 . S
Co306 N323 1.989 . S
Co306 O331 1.967 . S
Co306 O338 1.920 . S
Co307 O310 1.966 . S
Co307 N316 2.022 . S
Co307 N324 1.993 . S
Co307 O332 1.941 . S
C308 O309 1.258 . S
C308 O310 1.263 . S
O309 Co306 1.970 . S
O309 C308 1.258 . S
O310 Co307 1.966 . S
O310 C308 1.263 . S
C311 O312 1.235 . S
C311 O338 1.289 . S
O312 C311 1.235 . S
C313 C315 1.400 . S
C313 N316 1.351 1_556 S
C313 C318 1.501 1_556 S
C314 C315 1.387 . S
C314 N317 1.341 . S
C315 C313 1.400 . S
C315 C314 1.387 . S
N316 Co307 2.022 . S
N316 C313 1.351 1_554 S
N316 N317 1.365 1_554 S
N317 C314 1.341 . S
N317 N316 1.365 1_556 S
N317 H337 0.862 1_556 S
C318 C313 1.501 1_554 S
C318 H319 0.961 . S
C318 H320 0.961 . S
C318 H321 0.960 1_554 S
H319 C318 0.961 . S
H320 C318 0.961 . S
H321 C318 0.960 1_556 S
C322 N323 1.342 . S
C322 C326 1.401 . S
C322 C327 1.499 . S
N323 Co306 1.989 . S
N323 C322 1.342 . S
N323 N324 1.388 . S
N324 Co307 1.993 . S
N324 N323 1.388 . S
N324 C325 1.346 . S
C325 N324 1.346 . S
C325 C326 1.396 . S
C325 C335 1.510 . S
C326 C322 1.401 . S
C326 C325 1.396 . S
C327 C322 1.499 . S
C327 H328 0.959 . S
C327 H329 0.960 . S
C327 H330 0.961 . S
H328 C327 0.959 . S
H329 C327 0.960 . S
H330 C327 0.961 . S
O331 Co306 1.967 . S
O331 C339 1.258 . S
O332 Co307 1.941 . S
O332 C339 1.266 . S
H333 C335 0.959 . S
H334 C335 0.961 . S
C335 C325 1.510 . S
C335 H333 0.959 . S
C335 H334 0.961 . S
C335 H336 0.960 . S
H336 C335 0.960 . S
H337 N317 0.862 1_554 S
O338 Co306 1.920 . S
O338 C311 1.289 . S
C339 O331 1.258 . S
C339 O332 1.266 . S
Co340 O343 1.970 . S
Co340 N357 1.989 . S
Co340 O365 1.967 . S
Co340 O372 1.920 . S
Co341 O344 1.966 . S
Co341 N350 2.022 . S
Co341 N358 1.993 . S
Co341 O366 1.941 . S
C342 O343 1.258 . S
C342 O344 1.263 . S
O343 Co340 1.970 . S
O343 C342 1.258 . S
O344 Co341 1.966 . S
O344 C342 1.263 . S
C345 O346 1.235 . S
C345 O372 1.289 . S
O346 C345 1.235 . S
C347 C349 1.400 . S
C347 N350 1.351 1_556 S
C347 C352 1.501 1_556 S
C348 C349 1.387 . S
C348 N351 1.341 . S
C349 C347 1.400 . S
C349 C348 1.387 . S
N350 Co341 2.022 . S
N350 C347 1.351 1_554 S
N350 N351 1.365 1_554 S
N351 C348 1.341 . S
N351 N350 1.365 1_556 S
N351 H371 0.862 1_556 S
C352 C347 1.501 1_554 S
C352 H353 0.961 . S
C352 H354 0.961 . S
C352 H355 0.960 1_554 S
H353 C352 0.961 . S
H354 C352 0.961 . S
H355 C352 0.960 1_556 S
C356 N357 1.342 . S
C356 C360 1.401 . S
C356 C361 1.499 . S
N357 Co340 1.989 . S
N357 C356 1.342 . S
N357 N358 1.388 . S
N358 Co341 1.993 . S
N358 N357 1.388 . S
N358 C359 1.346 . S
C359 N358 1.346 . S
C359 C360 1.396 . S
C359 C369 1.510 . S
C360 C356 1.401 . S
C360 C359 1.396 . S
C361 C356 1.499 . S
C361 H362 0.959 . S
C361 H363 0.960 . S
C361 H364 0.961 . S
H362 C361 0.959 . S
H363 C361 0.960 . S
H364 C361 0.961 . S
O365 Co340 1.967 . S
O365 C373 1.258 . S
O366 Co341 1.941 . S
O366 C373 1.266 . S
H367 C369 0.959 . S
H368 C369 0.961 . S
C369 C359 1.510 . S
C369 H367 0.959 . S
C369 H368 0.961 . S
C369 H370 0.960 . S
H370 C369 0.960 . S
H371 N351 0.862 1_554 S
O372 Co340 1.920 . S
O372 C345 1.289 . S
C373 O365 1.258 . S
C373 O366 1.266 . S
Co374 O377 1.970 . S
Co374 N391 1.989 . S
Co374 O399 1.967 . S
Co374 O406 1.920 . S
Co375 O378 1.966 . S
Co375 N384 2.022 . S
Co375 N392 1.993 . S
Co375 O400 1.941 . S
C376 O377 1.258 . S
C376 O378 1.263 . S
O377 Co374 1.970 . S
O377 C376 1.258 . S
O378 Co375 1.966 . S
O378 C376 1.263 . S
C379 O380 1.235 . S
C379 O406 1.289 . S
O380 C379 1.235 . S
C381 C383 1.400 . S
C381 N384 1.351 1_556 S
C381 C386 1.501 1_556 S
C382 C383 1.387 . S
C382 N385 1.341 . S
C383 C381 1.400 . S
C383 C382 1.387 . S
N384 Co375 2.022 . S
N384 C381 1.351 1_554 S
N384 N385 1.365 1_554 S
N385 C382 1.341 . S
N385 N384 1.365 1_556 S
N385 H405 0.862 1_556 S
C386 C381 1.501 1_554 S
C386 H387 0.961 . S
C386 H388 0.961 . S
C386 H389 0.960 1_554 S
H387 C386 0.961 . S
H388 C386 0.961 . S
H389 C386 0.960 1_556 S
C390 N391 1.342 . S
C390 C394 1.401 . S
C390 C395 1.499 . S
N391 Co374 1.989 . S
N391 C390 1.342 . S
N391 N392 1.388 . S
N392 Co375 1.993 . S
N392 N391 1.388 . S
N392 C393 1.346 . S
C393 N392 1.346 . S
C393 C394 1.396 . S
C393 C403 1.510 . S
C394 C390 1.401 . S
C394 C393 1.396 . S
C395 C390 1.499 . S
C395 H396 0.959 . S
C395 H397 0.960 . S
C395 H398 0.961 . S
H396 C395 0.959 . S
H397 C395 0.960 . S
H398 C395 0.961 . S
O399 Co374 1.967 . S
O399 C407 1.258 . S
O400 Co375 1.941 . S
O400 C407 1.266 . S
H401 C403 0.959 . S
H402 C403 0.961 . S
C403 C393 1.510 . S
C403 H401 0.959 . S
C403 H402 0.961 . S
C403 H404 0.960 . S
H404 C403 0.960 . S
H405 N385 0.862 1_554 S
O406 Co374 1.920 . S
O406 C379 1.289 . S
C407 O399 1.258 . S
C407 O400 1.266 . S
Co408 O411 1.970 . S
Co408 N425 1.989 . S
Co408 O433 1.967 . S
Co408 O440 1.920 . S
Co409 O412 1.966 . S
Co409 N418 2.022 . S
Co409 N426 1.993 . S
Co409 O434 1.941 . S
C410 O411 1.258 . S
C410 O412 1.263 . S
O411 Co408 1.970 . S
O411 C410 1.258 . S
O412 Co409 1.966 . S
O412 C410 1.263 . S
C413 O414 1.235 . S
C413 O440 1.289 . S
O414 C413 1.235 . S
C415 C417 1.400 . S
C415 N418 1.351 1_554 S
C415 C420 1.501 1_554 S
C416 C417 1.387 . S
C416 N419 1.341 . S
C417 C415 1.400 . S
C417 C416 1.387 . S
N418 Co409 2.022 . S
N418 C415 1.351 1_556 S
N418 N419 1.365 1_556 S
N419 C416 1.341 . S
N419 N418 1.365 1_554 S
N419 H439 0.862 1_554 S
C420 C415 1.501 1_556 S
C420 H421 0.961 . S
C420 H422 0.961 . S
C420 H423 0.960 1_556 S
H421 C420 0.961 . S
H422 C420 0.961 . S
H423 C420 0.960 1_554 S
C424 N425 1.342 . S
C424 C428 1.401 . S
C424 C429 1.499 . S
N425 Co408 1.989 . S
N425 C424 1.342 . S
N425 N426 1.388 . S
N426 Co409 1.993 . S
N426 N425 1.388 . S
N426 C427 1.346 . S
C427 N426 1.346 . S
C427 C428 1.396 . S
C427 C437 1.510 . S
C428 C424 1.401 . S
C428 C427 1.396 . S
C429 C424 1.499 . S
C429 H430 0.959 . S
C429 H431 0.960 . S
C429 H432 0.961 . S
H430 C429 0.959 . S
H431 C429 0.960 . S
H432 C429 0.961 . S
O433 Co408 1.967 . S
O433 C441 1.258 . S
O434 Co409 1.941 . S
O434 C441 1.266 . S
H435 C437 0.959 . S
H436 C437 0.961 . S
C437 C427 1.510 . S
C437 H435 0.959 . S
C437 H436 0.961 . S
C437 H438 0.960 . S
H438 C437 0.960 . S
H439 N419 0.862 1_556 S
O440 Co408 1.920 . S
O440 C413 1.289 . S
C441 O433 1.258 . S
C441 O434 1.266 . S
Co442 O445 1.970 . S
Co442 N459 1.989 . S
Co442 O467 1.967 . S
Co442 O474 1.920 . S
Co443 O446 1.966 . S
Co443 N452 2.022 . S
Co443 N460 1.993 . S
Co443 O468 1.941 . S
C444 O445 1.258 . S
C444 O446 1.263 . S
O445 Co442 1.970 . S
O445 C444 1.258 . S
O446 Co443 1.966 . S
O446 C444 1.263 . S
C447 O448 1.235 . S
C447 O474 1.289 . S
O448 C447 1.235 . S
C449 C451 1.400 . S
C449 N452 1.351 1_554 S
C449 C454 1.501 1_554 S
C450 C451 1.387 . S
C450 N453 1.341 . S
C451 C449 1.400 . S
C451 C450 1.387 . S
N452 Co443 2.022 . S
N452 C449 1.351 1_556 S
N452 N453 1.365 1_556 S
N453 C450 1.341 . S
N453 N452 1.365 1_554 S
N453 H473 0.862 1_554 S
C454 C449 1.501 1_556 S
C454 H455 0.961 . S
C454 H456 0.961 . S
C454 H457 0.960 1_556 S
H455 C454 0.961 . S
H456 C454 0.961 . S
H457 C454 0.960 1_554 S
C458 N459 1.342 . S
C458 C462 1.401 . S
C458 C463 1.499 . S
N459 Co442 1.989 . S
N459 C458 1.342 . S
N459 N460 1.388 . S
N460 Co443 1.993 . S
N460 N459 1.388 . S
N460 C461 1.346 . S
C461 N460 1.346 . S
C461 C462 1.396 . S
C461 C471 1.510 . S
C462 C458 1.401 . S
C462 C461 1.396 . S
C463 C458 1.499 . S
C463 H464 0.959 . S
C463 H465 0.960 . S
C463 H466 0.961 . S
H464 C463 0.959 . S
H465 C463 0.960 . S
H466 C463 0.961 . S
O467 Co442 1.967 . S
O467 C475 1.258 . S
O468 Co443 1.941 . S
O468 C475 1.266 . S
H469 C471 0.959 . S
H470 C471 0.961 . S
C471 C461 1.510 . S
C471 H469 0.959 . S
C471 H470 0.961 . S
C471 H472 0.960 . S
H472 C471 0.960 . S
H473 N453 0.862 1_556 S
O474 Co442 1.920 . S
O474 C447 1.289 . S
C475 O467 1.258 . S
C475 O468 1.266 . S
Co476 O479 1.970 . S
Co476 N493 1.989 . S
Co476 O501 1.967 . S
Co476 O508 1.920 . S
Co477 O480 1.966 . S
Co477 N486 2.022 . S
Co477 N494 1.993 . S
Co477 O502 1.941 . S
C478 O479 1.258 . S
C478 O480 1.263 . S
O479 Co476 1.970 . S
O479 C478 1.258 . S
O480 Co477 1.966 . S
O480 C478 1.263 . S
C481 O482 1.235 . S
C481 O508 1.289 . S
O482 C481 1.235 . S
C483 C485 1.400 . S
C483 N486 1.351 1_554 S
C483 C488 1.501 1_554 S
C484 C485 1.387 . S
C484 N487 1.341 . S
C485 C483 1.400 . S
C485 C484 1.387 . S
N486 Co477 2.022 . S
N486 C483 1.351 1_556 S
N486 N487 1.365 1_556 S
N487 C484 1.341 . S
N487 N486 1.365 1_554 S
N487 H507 0.862 1_554 S
C488 C483 1.501 1_556 S
C488 H489 0.961 . S
C488 H490 0.961 . S
C488 H491 0.960 1_556 S
H489 C488 0.961 . S
H490 C488 0.961 . S
H491 C488 0.960 1_554 S
C492 N493 1.342 . S
C492 C496 1.401 . S
C492 C497 1.499 . S
N493 Co476 1.989 . S
N493 C492 1.342 . S
N493 N494 1.388 . S
N494 Co477 1.993 . S
N494 N493 1.388 . S
N494 C495 1.346 . S
C495 N494 1.346 . S
C495 C496 1.396 . S
C495 C505 1.510 . S
C496 C492 1.401 . S
C496 C495 1.396 . S
C497 C492 1.499 . S
C497 H498 0.959 . S
C497 H499 0.960 . S
C497 H500 0.961 . S
H498 C497 0.959 . S
H499 C497 0.960 . S
H500 C497 0.961 . S
O501 Co476 1.967 . S
O501 C509 1.258 . S
O502 Co477 1.941 . S
O502 C509 1.266 . S
H503 C505 0.959 . S
H504 C505 0.961 . S
C505 C495 1.510 . S
C505 H503 0.959 . S
C505 H504 0.961 . S
C505 H506 0.960 . S
H506 C505 0.960 . S
H507 N487 0.862 1_556 S
O508 Co476 1.920 . S
O508 C481 1.289 . S
C509 O501 1.258 . S
C509 O502 1.266 . S
Co510 O513 1.970 . S
Co510 N527 1.989 . S
Co510 O535 1.967 . S
Co510 O542 1.920 . S
Co511 O514 1.966 . S
Co511 N520 2.022 . S
Co511 N528 1.993 . S
Co511 O536 1.941 . S
C512 O513 1.258 . S
C512 O514 1.263 . S
O513 Co510 1.970 . S
O513 C512 1.258 . S
O514 Co511 1.966 . S
O514 C512 1.263 . S
C515 O516 1.235 . S
C515 O542 1.289 . S
O516 C515 1.235 . S
C517 C519 1.400 . S
C517 N520 1.351 . S
C517 C522 1.501 . S
C518 C519 1.387 . S
C518 N521 1.341 . S
C519 C517 1.400 . S
C519 C518 1.387 . S
N520 Co511 2.022 . S
N520 C517 1.351 . S
N520 N521 1.365 . S
N521 C518 1.341 . S
N521 N520 1.365 . S
N521 H541 0.862 . S
C522 C517 1.501 . S
C522 H523 0.961 . S
C522 H524 0.961 . S
C522 H525 0.960 . S
H523 C522 0.961 . S
H524 C522 0.961 . S
H525 C522 0.960 . S
C526 N527 1.342 . S
C526 C530 1.401 . S
C526 C531 1.499 . S
N527 Co510 1.989 . S
N527 C526 1.342 . S
N527 N528 1.388 . S
N528 Co511 1.993 . S
N528 N527 1.388 . S
N528 C529 1.346 . S
C529 N528 1.346 . S
C529 C530 1.396 . S
C529 C539 1.510 . S
C530 C526 1.401 . S
C530 C529 1.396 . S
C531 C526 1.499 . S
C531 H532 0.959 . S
C531 H533 0.960 . S
C531 H534 0.961 . S
H532 C531 0.959 . S
H533 C531 0.960 . S
H534 C531 0.961 . S
O535 Co510 1.967 . S
O535 C543 1.258 . S
O536 Co511 1.941 . S
O536 C543 1.266 . S
H537 C539 0.959 . S
H538 C539 0.961 . S
C539 C529 1.510 . S
C539 H537 0.959 . S
C539 H538 0.961 . S
C539 H540 0.960 . S
H540 C539 0.960 . S
H541 N521 0.862 . S
O542 Co510 1.920 . S
O542 C515 1.289 . S
C543 O535 1.258 . S
C543 O536 1.266 . S
Co544 O547 1.970 . S
Co544 N561 1.989 . S
Co544 O569 1.967 . S
Co544 O576 1.920 . S
Co545 O548 1.966 . S
Co545 N554 2.022 . S
Co545 N562 1.993 . S
Co545 O570 1.941 . S
C546 O547 1.258 . S
C546 O548 1.263 . S
O547 Co544 1.970 . S
O547 C546 1.258 . S
O548 Co545 1.966 . S
O548 C546 1.263 . S
C549 O550 1.235 . S
C549 O576 1.289 . S
O550 C549 1.235 . S
C551 C553 1.400 . S
C551 N554 1.351 . S
C551 C556 1.501 . S
C552 C553 1.387 . S
C552 N555 1.341 . S
C553 C551 1.400 . S
C553 C552 1.387 . S
N554 Co545 2.022 . S
N554 C551 1.351 . S
N554 N555 1.365 . S
N555 C552 1.341 . S
N555 N554 1.365 . S
N555 H575 0.862 . S
C556 C551 1.501 . S
C556 H557 0.961 . S
C556 H558 0.961 . S
C556 H559 0.960 . S
H557 C556 0.961 . S
H558 C556 0.961 . S
H559 C556 0.960 . S
C560 N561 1.342 . S
C560 C564 1.401 . S
C560 C565 1.499 . S
N561 Co544 1.989 . S
N561 C560 1.342 . S
N561 N562 1.388 . S
N562 Co545 1.993 . S
N562 N561 1.388 . S
N562 C563 1.346 . S
C563 N562 1.346 . S
C563 C564 1.396 . S
C563 C573 1.510 . S
C564 C560 1.401 . S
C564 C563 1.396 . S
C565 C560 1.499 . S
C565 H566 0.959 . S
C565 H567 0.960 . S
C565 H568 0.961 . S
H566 C565 0.959 . S
H567 C565 0.960 . S
H568 C565 0.961 . S
O569 Co544 1.967 . S
O569 C577 1.258 . S
O570 Co545 1.941 . S
O570 C577 1.266 . S
H571 C573 0.959 . S
H572 C573 0.961 . S
C573 C563 1.510 . S
C573 H571 0.959 . S
C573 H572 0.961 . S
C573 H574 0.960 . S
H574 C573 0.960 . S
H575 N555 0.862 . S
O576 Co544 1.920 . S
O576 C549 1.289 . S
C577 O569 1.258 . S
C577 O570 1.266 . S
Co578 O581 1.970 . S
Co578 N595 1.989 . S
Co578 O603 1.967 . S
Co578 O610 1.920 . S
Co579 O582 1.966 . S
Co579 N588 2.022 . S
Co579 N596 1.993 . S
Co579 O604 1.941 . S
C580 O581 1.258 . S
C580 O582 1.263 . S
O581 Co578 1.970 . S
O581 C580 1.258 . S
O582 Co579 1.966 . S
O582 C580 1.263 . S
C583 O584 1.235 . S
C583 O610 1.289 . S
O584 C583 1.235 . S
C585 C587 1.400 . S
C585 N588 1.351 . S
C585 C590 1.501 . S
C586 C587 1.387 . S
C586 N589 1.341 . S
C587 C585 1.400 . S
C587 C586 1.387 . S
N588 Co579 2.022 . S
N588 C585 1.351 . S
N588 N589 1.365 . S
N589 C586 1.341 . S
N589 N588 1.365 . S
N589 H609 0.862 . S
C590 C585 1.501 . S
C590 H591 0.961 . S
C590 H592 0.961 . S
C590 H593 0.960 . S
H591 C590 0.961 . S
H592 C590 0.961 . S
H593 C590 0.960 . S
C594 N595 1.342 . S
C594 C598 1.401 . S
C594 C599 1.499 . S
N595 Co578 1.989 . S
N595 C594 1.342 . S
N595 N596 1.388 . S
N596 Co579 1.993 . S
N596 N595 1.388 . S
N596 C597 1.346 . S
C597 N596 1.346 . S
C597 C598 1.396 . S
C597 C607 1.510 . S
C598 C594 1.401 . S
C598 C597 1.396 . S
C599 C594 1.499 . S
C599 H600 0.959 . S
C599 H601 0.960 . S
C599 H602 0.961 . S
H600 C599 0.959 . S
H601 C599 0.960 . S
H602 C599 0.961 . S
O603 Co578 1.967 . S
O603 C611 1.258 . S
O604 Co579 1.941 . S
O604 C611 1.266 . S
H605 C607 0.959 . S
H606 C607 0.961 . S
C607 C597 1.510 . S
C607 H605 0.959 . S
C607 H606 0.961 . S
C607 H608 0.960 . S
H608 C607 0.960 . S
H609 N589 0.862 . S
O610 Co578 1.920 . S
O610 C583 1.289 . S
C611 O603 1.258 . S
C611 O604 1.266 . S
H612 C630 0.951 . S
H613 C632 0.951 . S
H614 C634 0.950 . S
H615 C635 0.950 . S
H616 C637 0.950 . S
H617 C640 0.950 . S
H618 C641 0.950 . S
H619 C643 0.950 . S
H620 C644 0.950 . S
H621 C645 0.951 . S
H622 C647 0.951 . S
H623 C649 0.950 . S
H624 C650 0.950 . S
H625 C652 0.950 . S
H626 C655 0.950 . S
H627 C656 0.950 . S
H628 C658 0.950 . S
H629 C659 0.950 . S
C630 H612 0.951 . S
C630 C631 1.366 . S
C630 C632 1.388 . S
C631 C630 1.366 . S
C631 C635 1.385 . S
C632 H613 0.951 . S
C632 C630 1.388 . S
C632 C633 1.366 . S
C633 C632 1.366 . S
C633 C634 1.414 . S
C633 C636 1.499 . S
C634 H614 0.950 . S
C634 C633 1.414 . S
C634 C635 1.374 . S
C635 H615 0.950 . S
C635 C631 1.385 . S
C635 C634 1.374 . S
C636 C633 1.499 . S
C636 C637 1.373 . S
C636 C638 1.389 . S
C637 H616 0.950 . S
C637 C636 1.373 . S
C637 C653 1.377 . S
C638 C636 1.389 . S
C638 C639 1.524 . S
C638 C652 1.377 . S
C639 C638 1.524 . S
C639 C640 1.397 . S
C639 C644 1.363 . S
C640 H617 0.950 . S
C640 C639 1.397 . S
C640 C641 1.334 . S
C641 H618 0.950 . S
C641 C640 1.334 . S
C641 C642 1.287 . S
C642 C641 1.287 . S
C642 C643 1.524 . S
C642 H661 0.913 . S
C643 H619 0.950 . S
C643 C642 1.524 . S
C643 C644 1.415 . S
C644 H620 0.950 . S
C644 C639 1.363 . S
C644 C643 1.415 . S
C645 H621 0.951 . S
C645 C646 1.366 . S
C645 C647 1.388 . S
C646 C645 1.366 . S
C646 C650 1.385 . S
C647 H622 0.951 . S
C647 C645 1.388 . S
C647 C648 1.366 . S
C648 C647 1.366 . S
C648 C649 1.414 . S
C648 C651 1.499 . S
C649 H623 0.950 . S
C649 C648 1.414 . S
C649 C650 1.374 . S
C650 H624 0.950 . S
C650 C646 1.385 . S
C650 C649 1.374 . S
C651 C648 1.499 . S
C651 C652 1.373 . S
C651 C653 1.389 . S
C652 H625 0.950 . S
C652 C638 1.377 . S
C652 C651 1.373 . S
C653 C637 1.377 . S
C653 C651 1.389 . S
C653 C654 1.524 . S
C654 C653 1.524 . S
C654 C655 1.397 . S
C654 C659 1.363 . S
C655 H626 0.950 . S
C655 C654 1.397 . S
C655 C656 1.334 . S
C656 H627 0.950 . S
C656 C655 1.334 . S
C656 C657 1.287 . S
C657 C656 1.287 . S
C657 C658 1.524 . S
C657 H660 0.999 . S
C658 H628 0.950 . S
C658 C657 1.524 . S
C658 C659 1.415 . S
C659 H629 0.950 . S
C659 C654 1.363 . S
C659 C658 1.415 . S
H660 C657 0.999 . S
H661 C642 0.913 . S
H662 C680 0.951 . S
H663 C682 0.951 . S
H664 C684 0.950 . S
H665 C685 0.950 . S
H666 C687 0.950 . S
H667 C690 0.950 . S
H668 C691 0.950 . S
H669 C693 0.950 . S
H670 C694 0.950 . S
H671 C695 0.951 . S
H672 C697 0.951 . S
H673 C699 0.950 . S
H674 C700 0.950 . S
H675 C702 0.950 . S
H676 C705 0.950 . S
H677 C706 0.950 . S
H678 C708 0.950 . S
H679 C709 0.950 . S
C680 H662 0.951 . S
C680 C681 1.366 . S
C680 C682 1.388 . S
C681 C680 1.366 . S
C681 C685 1.385 . S
C682 H663 0.951 . S
C682 C680 1.388 . S
C682 C683 1.366 . S
C683 C682 1.366 . S
C683 C684 1.414 . S
C683 C686 1.499 . S
C684 H664 0.950 . S
C684 C683 1.414 . S
C684 C685 1.374 . S
C685 H665 0.950 . S
C685 C681 1.385 . S
C685 C684 1.374 . S
C686 C683 1.499 . S
C686 C687 1.373 . S
C686 C688 1.389 . S
C687 H666 0.950 . S
C687 C686 1.373 . S
C687 C703 1.377 . S
C688 C686 1.389 . S
C688 C689 1.524 . S
C688 C702 1.377 . S
C689 C688 1.524 . S
C689 C690 1.397 . S
C689 C694 1.363 . S
C690 H667 0.950 . S
C690 C689 1.397 . S
C690 C691 1.334 . S
C691 H668 0.950 . S
C691 C690 1.334 . S
C691 C692 1.287 . S
C692 C691 1.287 . S
C692 C693 1.524 . S
C692 H711 0.913 . S
C693 H669 0.950 . S
C693 C692 1.524 . S
C693 C694 1.415 . S
C694 H670 0.950 . S
C694 C689 1.363 . S
C694 C693 1.415 . S
C695 H671 0.951 . S
C695 C696 1.366 . S
C695 C697 1.388 . S
C696 C695 1.366 . S
C696 C700 1.385 . S
C697 H672 0.951 . S
C697 C695 1.388 . S
C697 C698 1.366 . S
C698 C697 1.366 . S
C698 C699 1.414 . S
C698 C701 1.499 . S
C699 H673 0.950 . S
C699 C698 1.414 . S
C699 C700 1.374 . S
C700 H674 0.950 . S
C700 C696 1.385 . S
C700 C699 1.374 . S
C701 C698 1.499 . S
C701 C702 1.373 . S
C701 C703 1.389 . S
C702 H675 0.950 . S
C702 C688 1.377 . S
C702 C701 1.373 . S
C703 C687 1.377 . S
C703 C701 1.389 . S
C703 C704 1.524 . S
C704 C703 1.524 . S
C704 C705 1.397 . S
C704 C709 1.363 . S
C705 H676 0.950 . S
C705 C704 1.397 . S
C705 C706 1.334 . S
C706 H677 0.950 . S
C706 C705 1.334 . S
C706 C707 1.287 . S
C707 C706 1.287 . S
C707 C708 1.524 . S
C707 H710 0.999 . S
C708 H678 0.950 . S
C708 C707 1.524 . S
C708 C709 1.415 . S
C709 H679 0.950 . S
C709 C704 1.363 . S
C709 C708 1.415 . S
H710 C707 0.999 . S
H711 C692 0.913 . S
H712 C730 0.951 . S
H713 C732 0.951 . S
H714 C734 0.950 . S
H715 C735 0.950 . S
H716 C737 0.950 . S
H717 C740 0.950 . S
H718 C741 0.950 . S
H719 C743 0.950 . S
H720 C744 0.950 . S
H721 C745 0.951 . S
H722 C747 0.951 . S
H723 C749 0.950 . S
H724 C750 0.950 . S
H725 C752 0.950 . S
H726 C755 0.950 . S
H727 C756 0.950 . S
H728 C758 0.950 . S
H729 C759 0.950 . S
C730 H712 0.951 . S
C730 C731 1.366 . S
C730 C732 1.388 . S
C731 C730 1.366 . S
C731 C735 1.385 . S
C732 H713 0.951 . S
C732 C730 1.388 . S
C732 C733 1.366 . S
C733 C732 1.366 . S
C733 C734 1.414 . S
C733 C736 1.499 . S
C734 H714 0.950 . S
C734 C733 1.414 . S
C734 C735 1.374 . S
C735 H715 0.950 . S
C735 C731 1.385 . S
C735 C734 1.374 . S
C736 C733 1.499 . S
C736 C737 1.373 . S
C736 C738 1.389 . S
C737 H716 0.950 . S
C737 C736 1.373 . S
C737 C753 1.377 . S
C738 C736 1.389 . S
C738 C739 1.524 . S
C738 C752 1.377 . S
C739 C738 1.524 . S
C739 C740 1.397 . S
C739 C744 1.363 . S
C740 H717 0.950 . S
C740 C739 1.397 . S
C740 C741 1.334 . S
C741 H718 0.950 . S
C741 C740 1.334 . S
C741 C742 1.287 . S
C742 C741 1.287 . S
C742 C743 1.524 . S
C742 H761 0.913 . S
C743 H719 0.950 . S
C743 C742 1.524 . S
C743 C744 1.415 . S
C744 H720 0.950 . S
C744 C739 1.363 . S
C744 C743 1.415 . S
C745 H721 0.951 . S
C745 C746 1.366 . S
C745 C747 1.388 . S
C746 C745 1.366 . S
C746 C750 1.385 . S
C747 H722 0.951 . S
C747 C745 1.388 . S
C747 C748 1.366 . S
C748 C747 1.366 . S
C748 C749 1.414 . S
C748 C751 1.499 . S
C749 H723 0.950 . S
C749 C748 1.414 . S
C749 C750 1.374 . S
C750 H724 0.950 . S
C750 C746 1.385 . S
C750 C749 1.374 . S
C751 C748 1.499 . S
C751 C752 1.373 . S
C751 C753 1.389 . S
C752 H725 0.950 . S
C752 C738 1.377 . S
C752 C751 1.373 . S
C753 C737 1.377 . S
C753 C751 1.389 . S
C753 C754 1.524 . S
C754 C753 1.524 . S
C754 C755 1.397 . S
C754 C759 1.363 . S
C755 H726 0.950 . S
C755 C754 1.397 . S
C755 C756 1.334 . S
C756 H727 0.950 . S
C756 C755 1.334 . S
C756 C757 1.287 . S
C757 C756 1.287 . S
C757 C758 1.524 . S
C757 H760 0.999 . S
C758 H728 0.950 . S
C758 C757 1.524 . S
C758 C759 1.415 . S
C759 H729 0.950 . S
C759 C754 1.363 . S
C759 C758 1.415 . S
H760 C757 0.999 . S
H761 C742 0.913 . S
H762 C780 0.951 . S
H763 C782 0.951 . S
H764 C784 0.950 . S
H765 C785 0.950 . S
H766 C787 0.950 . S
H767 C790 0.950 . S
H768 C791 0.950 . S
H769 C793 0.950 . S
H770 C794 0.950 . S
H771 C795 0.951 . S
H772 C797 0.951 . S
H773 C799 0.950 . S
H774 C800 0.950 . S
H775 C802 0.950 . S
H776 C805 0.950 . S
H777 C806 0.950 . S
H778 C808 0.950 . S
H779 C809 0.950 . S
C780 H762 0.951 . S
C780 C781 1.366 . S
C780 C782 1.388 . S
C781 C780 1.366 . S
C781 C785 1.385 . S
C782 H763 0.951 . S
C782 C780 1.388 . S
C782 C783 1.366 . S
C783 C782 1.366 . S
C783 C784 1.414 . S
C783 C786 1.499 . S
C784 H764 0.950 . S
C784 C783 1.414 . S
C784 C785 1.374 . S
C785 H765 0.950 . S
C785 C781 1.385 . S
C785 C784 1.374 . S
C786 C783 1.499 . S
C786 C787 1.373 . S
C786 C788 1.389 . S
C787 H766 0.950 . S
C787 C786 1.373 . S
C787 C803 1.377 . S
C788 C786 1.389 . S
C788 C789 1.524 . S
C788 C802 1.377 . S
C789 C788 1.524 . S
C789 C790 1.397 . S
C789 C794 1.363 . S
C790 H767 0.950 . S
C790 C789 1.397 . S
C790 C791 1.334 . S
C791 H768 0.950 . S
C791 C790 1.334 . S
C791 C792 1.287 . S
C792 C791 1.287 . S
C792 C793 1.524 . S
C792 H811 0.913 . S
C793 H769 0.950 . S
C793 C792 1.524 . S
C793 C794 1.415 . S
C794 H770 0.950 . S
C794 C789 1.363 . S
C794 C793 1.415 . S
C795 H771 0.951 . S
C795 C796 1.366 . S
C795 C797 1.388 . S
C796 C795 1.366 . S
C796 C800 1.385 . S
C797 H772 0.951 . S
C797 C795 1.388 . S
C797 C798 1.366 . S
C798 C797 1.366 . S
C798 C799 1.414 . S
C798 C801 1.499 . S
C799 H773 0.950 . S
C799 C798 1.414 . S
C799 C800 1.374 . S
C800 H774 0.950 . S
C800 C796 1.385 . S
C800 C799 1.374 . S
C801 C798 1.499 . S
C801 C802 1.373 . S
C801 C803 1.389 . S
C802 H775 0.950 . S
C802 C788 1.377 . S
C802 C801 1.373 . S
C803 C787 1.377 . S
C803 C801 1.389 . S
C803 C804 1.524 . S
C804 C803 1.524 . S
C804 C805 1.397 . S
C804 C809 1.363 . S
C805 H776 0.950 . S
C805 C804 1.397 . S
C805 C806 1.334 . S
C806 H777 0.950 . S
C806 C805 1.334 . S
C806 C807 1.287 . S
C807 C806 1.287 . S
C807 C808 1.524 . S
C807 H810 0.999 . S
C808 H778 0.950 . S
C808 C807 1.524 . S
C808 C809 1.415 . S
C809 H779 0.950 . S
C809 C804 1.363 . S
C809 C808 1.415 . S
H810 C807 0.999 . S
H811 C792 0.913 . S
H812 C830 0.951 . S
H813 C832 0.951 . S
H814 C834 0.950 . S
H815 C835 0.950 . S
H816 C837 0.950 . S
H817 C840 0.950 . S
H818 C841 0.950 . S
H819 C843 0.950 . S
H820 C844 0.950 . S
H821 C845 0.951 . S
H822 C847 0.951 . S
H823 C849 0.950 . S
H824 C850 0.950 . S
H825 C852 0.950 . S
H826 C855 0.950 . S
H827 C856 0.950 . S
H828 C858 0.950 . S
H829 C859 0.950 . S
C830 H812 0.951 . S
C830 C831 1.366 . S
C830 C832 1.388 . S
C831 C830 1.366 . S
C831 C835 1.385 . S
C832 H813 0.951 . S
C832 C830 1.388 . S
C832 C833 1.366 . S
C833 C832 1.366 . S
C833 C834 1.414 . S
C833 C836 1.499 . S
C834 H814 0.950 . S
C834 C833 1.414 . S
C834 C835 1.374 . S
C835 H815 0.950 . S
C835 C831 1.385 . S
C835 C834 1.374 . S
C836 C833 1.499 . S
C836 C837 1.373 . S
C836 C838 1.389 . S
C837 H816 0.950 . S
C837 C836 1.373 . S
C837 C853 1.377 . S
C838 C836 1.389 . S
C838 C839 1.524 . S
C838 C852 1.377 . S
C839 C838 1.524 . S
C839 C840 1.397 . S
C839 C844 1.363 . S
C840 H817 0.950 . S
C840 C839 1.397 . S
C840 C841 1.334 . S
C841 H818 0.950 . S
C841 C840 1.334 . S
C841 C842 1.287 . S
C842 C841 1.287 . S
C842 C843 1.524 . S
C842 H861 0.913 . S
C843 H819 0.950 . S
C843 C842 1.524 . S
C843 C844 1.415 . S
C844 H820 0.950 . S
C844 C839 1.363 . S
C844 C843 1.415 . S
C845 H821 0.951 . S
C845 C846 1.366 . S
C845 C847 1.388 . S
C846 C845 1.366 . S
C846 C850 1.385 . S
C847 H822 0.951 . S
C847 C845 1.388 . S
C847 C848 1.366 . S
C848 C847 1.366 . S
C848 C849 1.414 . S
C848 C851 1.499 . S
C849 H823 0.950 . S
C849 C848 1.414 . S
C849 C850 1.374 . S
C850 H824 0.950 . S
C850 C846 1.385 . S
C850 C849 1.374 . S
C851 C848 1.499 . S
C851 C852 1.373 . S
C851 C853 1.389 . S
C852 H825 0.950 . S
C852 C838 1.377 . S
C852 C851 1.373 . S
C853 C837 1.377 . S
C853 C851 1.389 . S
C853 C854 1.524 . S
C854 C853 1.524 . S
C854 C855 1.397 . S
C854 C859 1.363 . S
C855 H826 0.950 . S
C855 C854 1.397 . S
C855 C856 1.334 . S
C856 H827 0.950 . S
C856 C855 1.334 . S
C856 C857 1.287 . S
C857 C856 1.287 . S
C857 C858 1.524 . S
C857 H860 0.999 . S
C858 H828 0.950 . S
C858 C857 1.524 . S
C858 C859 1.415 . S
C859 H829 0.950 . S
C859 C854 1.363 . S
C859 C858 1.415 . S
H860 C857 0.999 . S
H861 C842 0.913 . S
H862 C880 0.951 . S
H863 C882 0.951 . S
H864 C884 0.950 . S
H865 C885 0.950 . S
H866 C887 0.950 . S
H867 C890 0.950 . S
H868 C891 0.950 . S
H869 C893 0.950 . S
H870 C894 0.950 . S
H871 C895 0.951 . S
H872 C897 0.951 . S
H873 C899 0.950 . S
H874 C900 0.950 . S
H875 C902 0.950 . S
H876 C905 0.950 . S
H877 C906 0.950 . S
H878 C908 0.950 . S
H879 C909 0.950 . S
C880 H862 0.951 . S
C880 C881 1.366 . S
C880 C882 1.388 . S
C881 C880 1.366 . S
C881 C885 1.385 . S
C882 H863 0.951 . S
C882 C880 1.388 . S
C882 C883 1.366 . S
C883 C882 1.366 . S
C883 C884 1.414 . S
C883 C886 1.499 . S
C884 H864 0.950 . S
C884 C883 1.414 . S
C884 C885 1.374 . S
C885 H865 0.950 . S
C885 C881 1.385 . S
C885 C884 1.374 . S
C886 C883 1.499 . S
C886 C887 1.373 . S
C886 C888 1.389 . S
C887 H866 0.950 . S
C887 C886 1.373 . S
C887 C903 1.377 . S
C888 C886 1.389 . S
C888 C889 1.524 . S
C888 C902 1.377 . S
C889 C888 1.524 . S
C889 C890 1.397 . S
C889 C894 1.363 . S
C890 H867 0.950 . S
C890 C889 1.397 . S
C890 C891 1.334 . S
C891 H868 0.950 . S
C891 C890 1.334 . S
C891 C892 1.287 . S
C892 C891 1.287 . S
C892 C893 1.524 . S
C892 H911 0.913 . S
C893 H869 0.950 . S
C893 C892 1.524 . S
C893 C894 1.415 . S
C894 H870 0.950 . S
C894 C889 1.363 . S
C894 C893 1.415 . S
C895 H871 0.951 . S
C895 C896 1.366 . S
C895 C897 1.388 . S
C896 C895 1.366 . S
C896 C900 1.385 . S
C897 H872 0.951 . S
C897 C895 1.388 . S
C897 C898 1.366 . S
C898 C897 1.366 . S
C898 C899 1.414 . S
C898 C901 1.499 . S
C899 H873 0.950 . S
C899 C898 1.414 . S
C899 C900 1.374 . S
C900 H874 0.950 . S
C900 C896 1.385 . S
C900 C899 1.374 . S
C901 C898 1.499 . S
C901 C902 1.373 . S
C901 C903 1.389 . S
C902 H875 0.950 . S
C902 C888 1.377 . S
C902 C901 1.373 . S
C903 C887 1.377 . S
C903 C901 1.389 . S
C903 C904 1.524 . S
C904 C903 1.524 . S
C904 C905 1.397 . S
C904 C909 1.363 . S
C905 H876 0.950 . S
C905 C904 1.397 . S
C905 C906 1.334 . S
C906 H877 0.950 . S
C906 C905 1.334 . S
C906 C907 1.287 . S
C907 C906 1.287 . S
C907 C908 1.524 . S
C907 H910 0.999 . S
C908 H878 0.950 . S
C908 C907 1.524 . S
C908 C909 1.415 . S
C909 H879 0.950 . S
C909 C904 1.363 . S
C909 C908 1.415 . S
H910 C907 0.999 . S
H911 C892 0.913 . S
H912 C930 0.951 . S
H913 C932 0.951 . S
H914 C934 0.950 . S
H915 C935 0.950 . S
H916 C937 0.950 . S
H917 C940 0.950 . S
H918 C941 0.950 . S
H919 C943 0.950 . S
H920 C944 0.950 . S
H921 C945 0.951 . S
H922 C947 0.951 . S
H923 C949 0.950 . S
H924 C950 0.950 . S
H925 C952 0.950 . S
H926 C955 0.950 . S
H927 C956 0.950 . S
H928 C958 0.950 . S
H929 C959 0.950 . S
C930 H912 0.951 . S
C930 C931 1.366 . S
C930 C932 1.388 . S
C931 C930 1.366 . S
C931 C935 1.385 . S
C932 H913 0.951 . S
C932 C930 1.388 . S
C932 C933 1.366 . S
C933 C932 1.366 . S
C933 C934 1.414 . S
C933 C936 1.499 . S
C934 H914 0.950 . S
C934 C933 1.414 . S
C934 C935 1.374 . S
C935 H915 0.950 . S
C935 C931 1.385 . S
C935 C934 1.374 . S
C936 C933 1.499 . S
C936 C937 1.373 . S
C936 C938 1.389 . S
C937 H916 0.950 . S
C937 C936 1.373 . S
C937 C953 1.377 1_554 S
C938 C936 1.389 . S
C938 C939 1.524 . S
C938 C952 1.377 1_554 S
C939 C938 1.524 . S
C939 C940 1.397 . S
C939 C944 1.363 . S
C940 H917 0.950 . S
C940 C939 1.397 . S
C940 C941 1.334 . S
C941 H918 0.950 . S
C941 C940 1.334 . S
C941 C942 1.287 . S
C942 C941 1.287 . S
C942 C943 1.524 . S
C942 H961 0.913 . S
C943 H919 0.950 . S
C943 C942 1.524 . S
C943 C944 1.415 . S
C944 H920 0.950 . S
C944 C939 1.363 . S
C944 C943 1.415 . S
C945 H921 0.951 . S
C945 C946 1.366 . S
C945 C947 1.388 . S
C946 C945 1.366 . S
C946 C950 1.385 . S
C947 H922 0.951 . S
C947 C945 1.388 . S
C947 C948 1.366 . S
C948 C947 1.366 . S
C948 C949 1.414 . S
C948 C951 1.499 . S
C949 H923 0.950 . S
C949 C948 1.414 . S
C949 C950 1.374 . S
C950 H924 0.950 . S
C950 C946 1.385 . S
C950 C949 1.374 . S
C951 C948 1.499 . S
C951 C952 1.373 . S
C951 C953 1.389 . S
C952 H925 0.950 . S
C952 C938 1.377 1_556 S
C952 C951 1.373 . S
C953 C937 1.377 1_556 S
C953 C951 1.389 . S
C953 C954 1.524 . S
C954 C953 1.524 . S
C954 C955 1.397 . S
C954 C959 1.363 . S
C955 H926 0.950 . S
C955 C954 1.397 . S
C955 C956 1.334 . S
C956 H927 0.950 . S
C956 C955 1.334 . S
C956 C957 1.287 . S
C957 C956 1.287 . S
C957 C958 1.524 . S
C957 H960 0.999 . S
C958 H928 0.950 . S
C958 C957 1.524 . S
C958 C959 1.415 . S
C959 H929 0.950 . S
C959 C954 1.363 . S
C959 C958 1.415 . S
H960 C957 0.999 . S
H961 C942 0.913 . S
H962 C980 0.951 . S
H963 C982 0.951 . S
H964 C984 0.950 . S
H965 C985 0.950 . S
H966 C987 0.950 . S
H967 C990 0.950 . S
H968 C991 0.950 . S
H969 C993 0.950 . S
H970 C994 0.950 . S
H971 C995 0.951 . S
H972 C997 0.951 . S
H973 C999 0.950 . S
H974 C1000 0.950 . S
H975 C1002 0.950 . S
H976 C1005 0.950 . S
H977 C1006 0.950 . S
H978 C1008 0.950 . S
H979 C1009 0.950 1_554 S
C980 H962 0.951 . S
C980 C981 1.366 . S
C980 C982 1.388 . S
C981 C980 1.366 . S
C981 C985 1.385 . S
C982 H963 0.951 . S
C982 C980 1.388 . S
C982 C983 1.366 . S
C983 C982 1.366 . S
C983 C984 1.414 . S
C983 C986 1.499 . S
C984 H964 0.950 . S
C984 C983 1.414 . S
C984 C985 1.374 . S
C985 H965 0.950 . S
C985 C981 1.385 . S
C985 C984 1.374 . S
C986 C983 1.499 . S
C986 C987 1.373 . S
C986 C988 1.389 . S
C987 H966 0.950 . S
C987 C986 1.373 . S
C987 C1003 1.377 1_554 S
C988 C986 1.389 . S
C988 C989 1.524 . S
C988 C1002 1.377 1_554 S
C989 C988 1.524 . S
C989 C990 1.397 . S
C989 C994 1.363 . S
C990 H967 0.950 . S
C990 C989 1.397 . S
C990 C991 1.334 . S
C991 H968 0.950 . S
C991 C990 1.334 . S
C991 C992 1.287 . S
C992 C991 1.287 . S
C992 C993 1.524 . S
C992 H1011 0.913 . S
C993 H969 0.950 . S
C993 C992 1.524 . S
C993 C994 1.415 . S
C994 H970 0.950 . S
C994 C989 1.363 . S
C994 C993 1.415 . S
C995 H971 0.951 . S
C995 C996 1.366 . S
C995 C997 1.388 . S
C996 C995 1.366 . S
C996 C1000 1.385 . S
C997 H972 0.951 . S
C997 C995 1.388 . S
C997 C998 1.366 . S
C998 C997 1.366 . S
C998 C999 1.414 . S
C998 C1001 1.499 . S
C999 H973 0.950 . S
C999 C998 1.414 . S
C999 C1000 1.374 . S
C1000 H974 0.950 . S
C1000 C996 1.385 . S
C1000 C999 1.374 . S
C1001 C998 1.499 . S
C1001 C1002 1.373 . S
C1001 C1003 1.389 . S
C1002 H975 0.950 . S
C1002 C988 1.377 1_556 S
C1002 C1001 1.373 . S
C1003 C987 1.377 1_556 S
C1003 C1001 1.389 . S
C1003 C1004 1.524 . S
C1004 C1003 1.524 . S
C1004 C1005 1.397 . S
C1004 C1009 1.363 . S
C1005 H976 0.950 . S
C1005 C1004 1.397 . S
C1005 C1006 1.334 . S
C1006 H977 0.950 . S
C1006 C1005 1.334 . S
C1006 C1007 1.287 . S
C1007 C1006 1.287 . S
C1007 C1008 1.524 . S
C1007 H1010 0.999 . S
C1008 H978 0.950 . S
C1008 C1007 1.524 . S
C1008 C1009 1.415 . S
C1009 H979 0.950 1_556 S
C1009 C1004 1.363 . S
C1009 C1008 1.415 . S
H1010 C1007 0.999 . S
H1011 C992 0.913 . S
H1012 C1030 0.951 . S
H1013 C1032 0.951 . S
H1014 C1034 0.950 . S
H1015 C1035 0.950 . S
H1016 C1037 0.950 . S
H1017 C1040 0.950 . S
H1018 C1041 0.950 . S
H1019 C1043 0.950 . S
H1020 C1044 0.950 . S
H1021 C1045 0.951 . S
H1022 C1047 0.951 . S
H1023 C1049 0.950 . S
H1024 C1050 0.950 . S
H1025 C1052 0.950 . S
H1026 C1055 0.950 . S
H1027 C1056 0.950 . S
H1028 C1058 0.950 . S
H1029 C1059 0.950 . S
C1030 H1012 0.951 . S
C1030 C1031 1.366 . S
C1030 C1032 1.388 . S
C1031 C1030 1.366 . S
C1031 C1035 1.385 . S
C1032 H1013 0.951 . S
C1032 C1030 1.388 . S
C1032 C1033 1.366 . S
C1033 C1032 1.366 . S
C1033 C1034 1.414 . S
C1033 C1036 1.499 . S
C1034 H1014 0.950 . S
C1034 C1033 1.414 . S
C1034 C1035 1.374 . S
C1035 H1015 0.950 . S
C1035 C1031 1.385 . S
C1035 C1034 1.374 . S
C1036 C1033 1.499 . S
C1036 C1037 1.373 . S
C1036 C1038 1.389 . S
C1037 H1016 0.950 . S
C1037 C1036 1.373 . S
C1037 C1053 1.377 1_556 S
C1038 C1036 1.389 . S
C1038 C1039 1.524 . S
C1038 C1052 1.377 1_556 S
C1039 C1038 1.524 . S
C1039 C1040 1.397 . S
C1039 C1044 1.363 . S
C1040 H1017 0.950 . S
C1040 C1039 1.397 . S
C1040 C1041 1.334 . S
C1041 H1018 0.950 . S
C1041 C1040 1.334 . S
C1041 C1042 1.287 . S
C1042 C1041 1.287 . S
C1042 C1043 1.524 . S
C1042 H1061 0.913 . S
C1043 H1019 0.950 . S
C1043 C1042 1.524 . S
C1043 C1044 1.415 . S
C1044 H1020 0.950 . S
C1044 C1039 1.363 . S
C1044 C1043 1.415 . S
C1045 H1021 0.951 . S
C1045 C1046 1.366 . S
C1045 C1047 1.388 . S
C1046 C1045 1.366 . S
C1046 C1050 1.385 . S
C1047 H1022 0.951 . S
C1047 C1045 1.388 . S
C1047 C1048 1.366 . S
C1048 C1047 1.366 . S
C1048 C1049 1.414 . S
C1048 C1051 1.499 . S
C1049 H1023 0.950 . S
C1049 C1048 1.414 . S
C1049 C1050 1.374 . S
C1050 H1024 0.950 . S
C1050 C1046 1.385 . S
C1050 C1049 1.374 . S
C1051 C1048 1.499 . S
C1051 C1052 1.373 . S
C1051 C1053 1.389 . S
C1052 H1025 0.950 . S
C1052 C1038 1.377 1_554 S
C1052 C1051 1.373 . S
C1053 C1037 1.377 1_554 S
C1053 C1051 1.389 . S
C1053 C1054 1.524 . S
C1054 C1053 1.524 . S
C1054 C1055 1.397 . S
C1054 C1059 1.363 . S
C1055 H1026 0.950 . S
C1055 C1054 1.397 . S
C1055 C1056 1.334 . S
C1056 H1027 0.950 . S
C1056 C1055 1.334 . S
C1056 C1057 1.287 . S
C1057 C1056 1.287 . S
C1057 C1058 1.524 . S
C1057 H1060 0.999 . S
C1058 H1028 0.950 . S
C1058 C1057 1.524 . S
C1058 C1059 1.415 . S
C1059 H1029 0.950 . S
C1059 C1054 1.363 . S
C1059 C1058 1.415 . S
H1060 C1057 0.999 . S
H1061 C1042 0.913 . S
H1062 C1080 0.951 . S
H1063 C1082 0.951 . S
H1064 C1084 0.950 . S
H1065 C1085 0.950 . S
H1066 C1087 0.950 . S
H1067 C1090 0.950 . S
H1068 C1091 0.950 . S
H1069 C1093 0.950 . S
H1070 C1094 0.950 . S
H1071 C1095 0.951 . S
H1072 C1097 0.951 . S
H1073 C1099 0.950 . S
H1074 C1100 0.950 . S
H1075 C1102 0.950 . S
H1076 C1105 0.950 . S
H1077 C1106 0.950 . S
H1078 C1108 0.950 . S
H1079 C1109 0.950 . S
C1080 H1062 0.951 . S
C1080 C1081 1.366 . S
C1080 C1082 1.388 . S
C1081 C1080 1.366 . S
C1081 C1085 1.385 . S
C1082 H1063 0.951 . S
C1082 C1080 1.388 . S
C1082 C1083 1.366 . S
C1083 C1082 1.366 . S
C1083 C1084 1.414 . S
C1083 C1086 1.499 . S
C1084 H1064 0.950 . S
C1084 C1083 1.414 . S
C1084 C1085 1.374 . S
C1085 H1065 0.950 . S
C1085 C1081 1.385 . S
C1085 C1084 1.374 . S
C1086 C1083 1.499 . S
C1086 C1087 1.373 . S
C1086 C1088 1.389 . S
C1087 H1066 0.950 . S
C1087 C1086 1.373 . S
C1087 C1103 1.377 . S
C1088 C1086 1.389 . S
C1088 C1089 1.524 . S
C1088 C1102 1.377 . S
C1089 C1088 1.524 . S
C1089 C1090 1.397 . S
C1089 C1094 1.363 . S
C1090 H1067 0.950 . S
C1090 C1089 1.397 . S
C1090 C1091 1.334 . S
C1091 H1068 0.950 . S
C1091 C1090 1.334 . S
C1091 C1092 1.287 . S
C1092 C1091 1.287 . S
C1092 C1093 1.524 . S
C1092 H1111 0.913 . S
C1093 H1069 0.950 . S
C1093 C1092 1.524 . S
C1093 C1094 1.415 . S
C1094 H1070 0.950 . S
C1094 C1089 1.363 . S
C1094 C1093 1.415 . S
C1095 H1071 0.951 . S
C1095 C1096 1.366 . S
C1095 C1097 1.388 . S
C1096 C1095 1.366 . S
C1096 C1100 1.385 . S
C1097 H1072 0.951 . S
C1097 C1095 1.388 . S
C1097 C1098 1.366 . S
C1098 C1097 1.366 . S
C1098 C1099 1.414 . S
C1098 C1101 1.499 . S
C1099 H1073 0.950 . S
C1099 C1098 1.414 . S
C1099 C1100 1.374 . S
C1100 H1074 0.950 . S
C1100 C1096 1.385 . S
C1100 C1099 1.374 . S
C1101 C1098 1.499 . S
C1101 C1102 1.373 . S
C1101 C1103 1.389 . S
C1102 H1075 0.950 . S
C1102 C1088 1.377 . S
C1102 C1101 1.373 . S
C1103 C1087 1.377 . S
C1103 C1101 1.389 . S
C1103 C1104 1.524 . S
C1104 C1103 1.524 . S
C1104 C1105 1.397 . S
C1104 C1109 1.363 . S
C1105 H1076 0.950 . S
C1105 C1104 1.397 . S
C1105 C1106 1.334 . S
C1106 H1077 0.950 . S
C1106 C1105 1.334 . S
C1106 C1107 1.287 . S
C1107 C1106 1.287 . S
C1107 C1108 1.524 . S
C1107 H1110 0.999 . S
C1108 H1078 0.950 . S
C1108 C1107 1.524 . S
C1108 C1109 1.415 . S
C1109 H1079 0.950 . S
C1109 C1104 1.363 . S
C1109 C1108 1.415 . S
H1110 C1107 0.999 . S
H1111 C1092 0.913 . S
H1112 C1130 0.951 . S
H1113 C1132 0.951 . S
H1114 C1134 0.950 . S
H1115 C1135 0.950 . S
H1116 C1137 0.950 . S
H1117 C1140 0.950 . S
H1118 C1141 0.950 . S
H1119 C1143 0.950 . S
H1120 C1144 0.950 . S
H1121 C1145 0.951 . S
H1122 C1147 0.951 . S
H1123 C1149 0.950 . S
H1124 C1150 0.950 . S
H1125 C1152 0.950 . S
H1126 C1155 0.950 . S
H1127 C1156 0.950 . S
H1128 C1158 0.950 . S
H1129 C1159 0.950 . S
C1130 H1112 0.951 . S
C1130 C1131 1.366 . S
C1130 C1132 1.388 . S
C1131 C1130 1.366 . S
C1131 C1135 1.385 . S
C1132 H1113 0.951 . S
C1132 C1130 1.388 . S
C1132 C1133 1.366 . S
C1133 C1132 1.366 . S
C1133 C1134 1.414 . S
C1133 C1136 1.499 . S
C1134 H1114 0.950 . S
C1134 C1133 1.414 . S
C1134 C1135 1.374 . S
C1135 H1115 0.950 . S
C1135 C1131 1.385 . S
C1135 C1134 1.374 . S
C1136 C1133 1.499 . S
C1136 C1137 1.373 . S
C1136 C1138 1.389 . S
C1137 H1116 0.950 . S
C1137 C1136 1.373 . S
C1137 C1153 1.377 . S
C1138 C1136 1.389 . S
C1138 C1139 1.524 . S
C1138 C1152 1.377 . S
C1139 C1138 1.524 . S
C1139 C1140 1.397 . S
C1139 C1144 1.363 . S
C1140 H1117 0.950 . S
C1140 C1139 1.397 . S
C1140 C1141 1.334 . S
C1141 H1118 0.950 . S
C1141 C1140 1.334 . S
C1141 C1142 1.287 . S
C1142 C1141 1.287 . S
C1142 C1143 1.524 . S
C1142 H1161 0.913 . S
C1143 H1119 0.950 . S
C1143 C1142 1.524 . S
C1143 C1144 1.415 . S
C1144 H1120 0.950 . S
C1144 C1139 1.363 . S
C1144 C1143 1.415 . S
C1145 H1121 0.951 . S
C1145 C1146 1.366 . S
C1145 C1147 1.388 . S
C1146 C1145 1.366 . S
C1146 C1150 1.385 . S
C1147 H1122 0.951 . S
C1147 C1145 1.388 . S
C1147 C1148 1.366 . S
C1148 C1147 1.366 . S
C1148 C1149 1.414 . S
C1148 C1151 1.499 . S
C1149 H1123 0.950 . S
C1149 C1148 1.414 . S
C1149 C1150 1.374 . S
C1150 H1124 0.950 . S
C1150 C1146 1.385 . S
C1150 C1149 1.374 . S
C1151 C1148 1.499 . S
C1151 C1152 1.373 . S
C1151 C1153 1.389 . S
C1152 H1125 0.950 . S
C1152 C1138 1.377 . S
C1152 C1151 1.373 . S
C1153 C1137 1.377 . S
C1153 C1151 1.389 . S
C1153 C1154 1.524 . S
C1154 C1153 1.524 . S
C1154 C1155 1.397 . S
C1154 C1159 1.363 . S
C1155 H1126 0.950 . S
C1155 C1154 1.397 . S
C1155 C1156 1.334 . S
C1156 H1127 0.950 . S
C1156 C1155 1.334 . S
C1156 C1157 1.287 . S
C1157 C1156 1.287 . S
C1157 C1158 1.524 . S
C1157 H1160 0.999 . S
C1158 H1128 0.950 . S
C1158 C1157 1.524 . S
C1158 C1159 1.415 . S
C1159 H1129 0.950 . S
C1159 C1154 1.363 . S
C1159 C1158 1.415 . S
H1160 C1157 0.999 . S
H1161 C1142 0.913 . S
H1162 C1180 0.951 . S
H1163 C1182 0.951 . S
H1164 C1184 0.950 . S
H1165 C1185 0.950 . S
H1166 C1187 0.950 . S
H1167 C1190 0.950 . S
H1168 C1191 0.950 . S
H1169 C1193 0.950 . S
H1170 C1194 0.950 . S
H1171 C1195 0.951 . S
H1172 C1197 0.951 . S
H1173 C1199 0.950 . S
H1174 C1200 0.950 . S
H1175 C1202 0.950 . S
H1176 C1205 0.950 . S
H1177 C1206 0.950 . S
H1178 C1208 0.950 . S
H1179 C1209 0.950 . S
C1180 H1162 0.951 . S
C1180 C1181 1.366 . S
C1180 C1182 1.388 . S
C1181 C1180 1.366 . S
C1181 C1185 1.385 . S
C1182 H1163 0.951 . S
C1182 C1180 1.388 . S
C1182 C1183 1.366 . S
C1183 C1182 1.366 . S
C1183 C1184 1.414 . S
C1183 C1186 1.499 . S
C1184 H1164 0.950 . S
C1184 C1183 1.414 . S
C1184 C1185 1.374 . S
C1185 H1165 0.950 . S
C1185 C1181 1.385 . S
C1185 C1184 1.374 . S
C1186 C1183 1.499 . S
C1186 C1187 1.373 . S
C1186 C1188 1.389 . S
C1187 H1166 0.950 . S
C1187 C1186 1.373 . S
C1187 C1203 1.377 . S
C1188 C1186 1.389 . S
C1188 C1189 1.524 . S
C1188 C1202 1.377 . S
C1189 C1188 1.524 . S
C1189 C1190 1.397 . S
C1189 C1194 1.363 . S
C1190 H1167 0.950 . S
C1190 C1189 1.397 . S
C1190 C1191 1.334 . S
C1191 H1168 0.950 . S
C1191 C1190 1.334 . S
C1191 C1192 1.287 . S
C1192 C1191 1.287 . S
C1192 C1193 1.524 . S
C1192 H1211 0.913 . S
C1193 H1169 0.950 . S
C1193 C1192 1.524 . S
C1193 C1194 1.415 . S
C1194 H1170 0.950 . S
C1194 C1189 1.363 . S
C1194 C1193 1.415 . S
C1195 H1171 0.951 . S
C1195 C1196 1.366 . S
C1195 C1197 1.388 . S
C1196 C1195 1.366 . S
C1196 C1200 1.385 . S
C1197 H1172 0.951 . S
C1197 C1195 1.388 . S
C1197 C1198 1.366 . S
C1198 C1197 1.366 . S
C1198 C1199 1.414 . S
C1198 C1201 1.499 . S
C1199 H1173 0.950 . S
C1199 C1198 1.414 . S
C1199 C1200 1.374 . S
C1200 H1174 0.950 . S
C1200 C1196 1.385 . S
C1200 C1199 1.374 . S
C1201 C1198 1.499 . S
C1201 C1202 1.373 . S
C1201 C1203 1.389 . S
C1202 H1175 0.950 . S
C1202 C1188 1.377 . S
C1202 C1201 1.373 . S
C1203 C1187 1.377 . S
C1203 C1201 1.389 . S
C1203 C1204 1.524 . S
C1204 C1203 1.524 . S
C1204 C1205 1.397 . S
C1204 C1209 1.363 . S
C1205 H1176 0.950 . S
C1205 C1204 1.397 . S
C1205 C1206 1.334 . S
C1206 H1177 0.950 . S
C1206 C1205 1.334 . S
C1206 C1207 1.287 . S
C1207 C1206 1.287 . S
C1207 C1208 1.524 . S
C1207 H1210 0.999 . S
C1208 H1178 0.950 . S
C1208 C1207 1.524 . S
C1208 C1209 1.415 . S
C1209 H1179 0.950 . S
C1209 C1204 1.363 . S
C1209 C1208 1.415 . S
H1210 C1207 0.999 . S
H1211 C1192 0.913 . S
H1212 C1230 0.951 . S
H1213 C1232 0.951 . S
H1214 C1234 0.950 . S
H1215 C1235 0.950 . S
H1216 C1237 0.950 . S
H1217 C1240 0.950 . S
H1218 C1241 0.950 . S
H1219 C1243 0.950 . S
H1220 C1244 0.950 . S
H1221 C1245 0.951 . S
H1222 C1247 0.951 . S
H1223 C1249 0.950 . S
H1224 C1250 0.950 . S
H1225 C1252 0.950 . S
H1226 C1255 0.950 . S
H1227 C1256 0.950 . S
H1228 C1258 0.950 . S
H1229 C1259 0.950 . S
C1230 H1212 0.951 . S
C1230 C1231 1.366 . S
C1230 C1232 1.388 . S
C1231 C1230 1.366 . S
C1231 C1235 1.385 . S
C1232 H1213 0.951 . S
C1232 C1230 1.388 . S
C1232 C1233 1.366 . S
C1233 C1232 1.366 . S
C1233 C1234 1.414 . S
C1233 C1236 1.499 . S
C1234 H1214 0.950 . S
C1234 C1233 1.414 . S
C1234 C1235 1.374 . S
C1235 H1215 0.950 . S
C1235 C1231 1.385 . S
C1235 C1234 1.374 . S
C1236 C1233 1.499 . S
C1236 C1237 1.373 . S
C1236 C1238 1.389 . S
C1237 H1216 0.950 . S
C1237 C1236 1.373 . S
C1237 C1253 1.377 . S
C1238 C1236 1.389 . S
C1238 C1239 1.524 . S
C1238 C1252 1.377 . S
C1239 C1238 1.524 . S
C1239 C1240 1.397 . S
C1239 C1244 1.363 . S
C1240 H1217 0.950 . S
C1240 C1239 1.397 . S
C1240 C1241 1.334 . S
C1241 H1218 0.950 . S
C1241 C1240 1.334 . S
C1241 C1242 1.287 . S
C1242 C1241 1.287 . S
C1242 C1243 1.524 . S
C1242 H1261 0.913 . S
C1243 H1219 0.950 . S
C1243 C1242 1.524 . S
C1243 C1244 1.415 . S
C1244 H1220 0.950 . S
C1244 C1239 1.363 . S
C1244 C1243 1.415 . S
C1245 H1221 0.951 . S
C1245 C1246 1.366 . S
C1245 C1247 1.388 . S
C1246 C1245 1.366 . S
C1246 C1250 1.385 . S
C1247 H1222 0.951 . S
C1247 C1245 1.388 . S
C1247 C1248 1.366 . S
C1248 C1247 1.366 . S
C1248 C1249 1.414 . S
C1248 C1251 1.499 . S
C1249 H1223 0.950 . S
C1249 C1248 1.414 . S
C1249 C1250 1.374 . S
C1250 H1224 0.950 . S
C1250 C1246 1.385 . S
C1250 C1249 1.374 . S
C1251 C1248 1.499 . S
C1251 C1252 1.373 . S
C1251 C1253 1.389 . S
C1252 H1225 0.950 . S
C1252 C1238 1.377 . S
C1252 C1251 1.373 . S
C1253 C1237 1.377 . S
C1253 C1251 1.389 . S
C1253 C1254 1.524 . S
C1254 C1253 1.524 . S
C1254 C1255 1.397 . S
C1254 C1259 1.363 . S
C1255 H1226 0.950 . S
C1255 C1254 1.397 . S
C1255 C1256 1.334 . S
C1256 H1227 0.950 . S
C1256 C1255 1.334 . S
C1256 C1257 1.287 . S
C1257 C1256 1.287 . S
C1257 C1258 1.524 . S
C1257 H1260 0.999 . S
C1258 H1228 0.950 . S
C1258 C1257 1.524 . S
C1258 C1259 1.415 . S
C1259 H1229 0.950 . S
C1259 C1254 1.363 . S
C1259 C1258 1.415 . S
H1260 C1257 0.999 . S
H1261 C1242 0.913 . S
H1262 C1280 0.951 . S
H1263 C1282 0.951 . S
H1264 C1284 0.950 . S
H1265 C1285 0.950 . S
H1266 C1287 0.950 . S
H1267 C1290 0.950 . S
H1268 C1291 0.950 . S
H1269 C1293 0.950 . S
H1270 C1294 0.950 . S
H1271 C1295 0.951 . S
H1272 C1297 0.951 . S
H1273 C1299 0.950 . S
H1274 C1300 0.950 . S
H1275 C1302 0.950 . S
H1276 C1305 0.950 . S
H1277 C1306 0.950 . S
H1278 C1308 0.950 . S
H1279 C1309 0.950 . S
C1280 H1262 0.951 . S
C1280 C1281 1.366 . S
C1280 C1282 1.388 . S
C1281 C1280 1.366 . S
C1281 C1285 1.385 . S
C1282 H1263 0.951 . S
C1282 C1280 1.388 . S
C1282 C1283 1.366 . S
C1283 C1282 1.366 . S
C1283 C1284 1.414 . S
C1283 C1286 1.499 . S
C1284 H1264 0.950 . S
C1284 C1283 1.414 . S
C1284 C1285 1.374 . S
C1285 H1265 0.950 . S
C1285 C1281 1.385 . S
C1285 C1284 1.374 . S
C1286 C1283 1.499 . S
C1286 C1287 1.373 . S
C1286 C1288 1.389 . S
C1287 H1266 0.950 . S
C1287 C1286 1.373 . S
C1287 C1303 1.377 . S
C1288 C1286 1.389 . S
C1288 C1289 1.524 . S
C1288 C1302 1.377 . S
C1289 C1288 1.524 . S
C1289 C1290 1.397 . S
C1289 C1294 1.363 . S
C1290 H1267 0.950 . S
C1290 C1289 1.397 . S
C1290 C1291 1.334 . S
C1291 H1268 0.950 . S
C1291 C1290 1.334 . S
C1291 C1292 1.287 . S
C1292 C1291 1.287 . S
C1292 C1293 1.524 . S
C1292 H1311 0.913 . S
C1293 H1269 0.950 . S
C1293 C1292 1.524 . S
C1293 C1294 1.415 . S
C1294 H1270 0.950 . S
C1294 C1289 1.363 . S
C1294 C1293 1.415 . S
C1295 H1271 0.951 . S
C1295 C1296 1.366 . S
C1295 C1297 1.388 . S
C1296 C1295 1.366 . S
C1296 C1300 1.385 . S
C1297 H1272 0.951 . S
C1297 C1295 1.388 . S
C1297 C1298 1.366 . S
C1298 C1297 1.366 . S
C1298 C1299 1.414 . S
C1298 C1301 1.499 . S
C1299 H1273 0.950 . S
C1299 C1298 1.414 . S
C1299 C1300 1.374 . S
C1300 H1274 0.950 . S
C1300 C1296 1.385 . S
C1300 C1299 1.374 . S
C1301 C1298 1.499 . S
C1301 C1302 1.373 . S
C1301 C1303 1.389 . S
C1302 H1275 0.950 . S
C1302 C1288 1.377 . S
C1302 C1301 1.373 . S
C1303 C1287 1.377 . S
C1303 C1301 1.389 . S
C1303 C1304 1.524 . S
C1304 C1303 1.524 . S
C1304 C1305 1.397 . S
C1304 C1309 1.363 . S
C1305 H1276 0.950 . S
C1305 C1304 1.397 . S
C1305 C1306 1.334 . S
C1306 H1277 0.950 . S
C1306 C1305 1.334 . S
C1306 C1307 1.287 . S
C1307 C1306 1.287 . S
C1307 C1308 1.524 . S
C1307 H1310 0.999 . S
C1308 H1278 0.950 . S
C1308 C1307 1.524 . S
C1308 C1309 1.415 . S
C1309 H1279 0.950 . S
C1309 C1304 1.363 . S
C1309 C1308 1.415 . S
H1310 C1307 0.999 . S
H1311 C1292 0.913 . S
H1312 C1330 0.951 . S
H1313 C1332 0.951 . S
H1314 C1334 0.950 . S
H1315 C1335 0.950 . S
H1316 C1337 0.950 . S
H1317 C1340 0.950 . S
H1318 C1341 0.950 . S
H1319 C1343 0.950 . S
H1320 C1344 0.950 . S
H1321 C1345 0.951 . S
H1322 C1347 0.951 . S
H1323 C1349 0.950 . S
H1324 C1350 0.950 . S
H1325 C1352 0.950 . S
H1326 C1355 0.950 . S
H1327 C1356 0.950 . S
H1328 C1358 0.950 . S
H1329 C1359 0.950 . S
C1330 H1312 0.951 . S
C1330 C1331 1.366 . S
C1330 C1332 1.388 . S
C1331 C1330 1.366 . S
C1331 C1335 1.385 . S
C1332 H1313 0.951 . S
C1332 C1330 1.388 . S
C1332 C1333 1.366 . S
C1333 C1332 1.366 . S
C1333 C1334 1.414 . S
C1333 C1336 1.499 . S
C1334 H1314 0.950 . S
C1334 C1333 1.414 . S
C1334 C1335 1.374 . S
C1335 H1315 0.950 . S
C1335 C1331 1.385 . S
C1335 C1334 1.374 . S
C1336 C1333 1.499 . S
C1336 C1337 1.373 . S
C1336 C1338 1.389 . S
C1337 H1316 0.950 . S
C1337 C1336 1.373 . S
C1337 C1353 1.377 . S
C1338 C1336 1.389 . S
C1338 C1339 1.524 . S
C1338 C1352 1.377 . S
C1339 C1338 1.524 . S
C1339 C1340 1.397 . S
C1339 C1344 1.363 . S
C1340 H1317 0.950 . S
C1340 C1339 1.397 . S
C1340 C1341 1.334 . S
C1341 H1318 0.950 . S
C1341 C1340 1.334 . S
C1341 C1342 1.287 . S
C1342 C1341 1.287 . S
C1342 C1343 1.524 . S
C1342 H1361 0.913 . S
C1343 H1319 0.950 . S
C1343 C1342 1.524 . S
C1343 C1344 1.415 . S
C1344 H1320 0.950 . S
C1344 C1339 1.363 . S
C1344 C1343 1.415 . S
C1345 H1321 0.951 . S
C1345 C1346 1.366 . S
C1345 C1347 1.388 . S
C1346 C1345 1.366 . S
C1346 C1350 1.385 . S
C1347 H1322 0.951 . S
C1347 C1345 1.388 . S
C1347 C1348 1.366 . S
C1348 C1347 1.366 . S
C1348 C1349 1.414 . S
C1348 C1351 1.499 . S
C1349 H1323 0.950 . S
C1349 C1348 1.414 . S
C1349 C1350 1.374 . S
C1350 H1324 0.950 . S
C1350 C1346 1.385 . S
C1350 C1349 1.374 . S
C1351 C1348 1.499 . S
C1351 C1352 1.373 . S
C1351 C1353 1.389 . S
C1352 H1325 0.950 . S
C1352 C1338 1.377 . S
C1352 C1351 1.373 . S
C1353 C1337 1.377 . S
C1353 C1351 1.389 . S
C1353 C1354 1.524 . S
C1354 C1353 1.524 . S
C1354 C1355 1.397 . S
C1354 C1359 1.363 . S
C1355 H1326 0.950 . S
C1355 C1354 1.397 . S
C1355 C1356 1.334 . S
C1356 H1327 0.950 . S
C1356 C1355 1.334 . S
C1356 C1357 1.287 . S
C1357 C1356 1.287 . S
C1357 C1358 1.524 . S
C1357 H1360 0.999 . S
C1358 H1328 0.950 . S
C1358 C1357 1.524 . S
C1358 C1359 1.415 . S
C1359 H1329 0.950 . S
C1359 C1354 1.363 . S
C1359 C1358 1.415 . S
H1360 C1357 0.999 . S
H1361 C1342 0.913 . S
H1362 C1380 0.951 . S
H1363 C1382 0.951 . S
H1364 C1384 0.950 . S
H1365 C1385 0.950 . S
H1366 C1387 0.950 . S
H1367 C1390 0.950 . S
H1368 C1391 0.950 . S
H1369 C1393 0.950 . S
H1370 C1394 0.950 . S
H1371 C1395 0.951 . S
H1372 C1397 0.951 . S
H1373 C1399 0.950 . S
H1374 C1400 0.950 . S
H1375 C1402 0.950 . S
H1376 C1405 0.950 . S
H1377 C1406 0.950 . S
H1378 C1408 0.950 . S
H1379 C1409 0.950 . S
C1380 H1362 0.951 . S
C1380 C1381 1.366 . S
C1380 C1382 1.388 . S
C1381 C1380 1.366 . S
C1381 C1385 1.385 . S
C1382 H1363 0.951 . S
C1382 C1380 1.388 . S
C1382 C1383 1.366 . S
C1383 C1382 1.366 . S
C1383 C1384 1.414 . S
C1383 C1386 1.499 . S
C1384 H1364 0.950 . S
C1384 C1383 1.414 . S
C1384 C1385 1.374 . S
C1385 H1365 0.950 . S
C1385 C1381 1.385 . S
C1385 C1384 1.374 . S
C1386 C1383 1.499 . S
C1386 C1387 1.373 . S
C1386 C1388 1.389 . S
C1387 H1366 0.950 . S
C1387 C1386 1.373 . S
C1387 C1403 1.377 1_554 S
C1388 C1386 1.389 . S
C1388 C1389 1.524 . S
C1388 C1402 1.377 1_554 S
C1389 C1388 1.524 . S
C1389 C1390 1.397 . S
C1389 C1394 1.363 . S
C1390 H1367 0.950 . S
C1390 C1389 1.397 . S
C1390 C1391 1.334 . S
C1391 H1368 0.950 . S
C1391 C1390 1.334 . S
C1391 C1392 1.287 . S
C1392 C1391 1.287 . S
C1392 C1393 1.524 . S
C1392 H1411 0.913 . S
C1393 H1369 0.950 . S
C1393 C1392 1.524 . S
C1393 C1394 1.415 . S
C1394 H1370 0.950 . S
C1394 C1389 1.363 . S
C1394 C1393 1.415 . S
C1395 H1371 0.951 . S
C1395 C1396 1.366 . S
C1395 C1397 1.388 . S
C1396 C1395 1.366 . S
C1396 C1400 1.385 . S
C1397 H1372 0.951 . S
C1397 C1395 1.388 . S
C1397 C1398 1.366 . S
C1398 C1397 1.366 . S
C1398 C1399 1.414 . S
C1398 C1401 1.499 . S
C1399 H1373 0.950 . S
C1399 C1398 1.414 . S
C1399 C1400 1.374 . S
C1400 H1374 0.950 . S
C1400 C1396 1.385 . S
C1400 C1399 1.374 . S
C1401 C1398 1.499 . S
C1401 C1402 1.373 . S
C1401 C1403 1.389 . S
C1402 H1375 0.950 . S
C1402 C1388 1.377 1_556 S
C1402 C1401 1.373 . S
C1403 C1387 1.377 1_556 S
C1403 C1401 1.389 . S
C1403 C1404 1.524 . S
C1404 C1403 1.524 . S
C1404 C1405 1.397 . S
C1404 C1409 1.363 . S
C1405 H1376 0.950 . S
C1405 C1404 1.397 . S
C1405 C1406 1.334 . S
C1406 H1377 0.950 . S
C1406 C1405 1.334 . S
C1406 C1407 1.287 . S
C1407 C1406 1.287 . S
C1407 C1408 1.524 . S
C1407 H1410 0.999 . S
C1408 H1378 0.950 . S
C1408 C1407 1.524 . S
C1408 C1409 1.415 . S
C1409 H1379 0.950 . S
C1409 C1404 1.363 . S
C1409 C1408 1.415 . S
H1410 C1407 0.999 . S
H1411 C1392 0.913 . S
H1412 C1430 0.951 . S
H1413 C1432 0.951 . S
H1414 C1434 0.950 . S
H1415 C1435 0.950 . S
H1416 C1437 0.950 . S
H1417 C1440 0.950 . S
H1418 C1441 0.950 . S
H1419 C1443 0.950 . S
H1420 C1444 0.944 1_556 S
H1421 C1445 0.951 . S
H1422 C1447 0.951 . S
H1423 C1449 0.950 . S
H1424 C1450 0.950 . S
H1425 C1452 0.950 . S
H1426 C1455 0.950 . S
H1427 C1456 0.950 . S
H1428 C1458 0.950 . S
H1429 C1459 0.950 . S
C1430 H1412 0.951 . S
C1430 C1431 1.366 . S
C1430 C1432 1.388 . S
C1431 C1430 1.366 . S
C1431 C1435 1.385 . S
C1432 H1413 0.951 . S
C1432 C1430 1.388 . S
C1432 C1433 1.366 . S
C1433 C1432 1.366 . S
C1433 C1434 1.414 . S
C1433 C1436 1.499 . S
C1434 H1414 0.950 . S
C1434 C1433 1.414 . S
C1434 C1435 1.374 . S
C1435 H1415 0.950 . S
C1435 C1431 1.385 . S
C1435 C1434 1.374 . S
C1436 C1433 1.499 . S
C1436 C1437 1.373 . S
C1436 C1438 1.389 . S
C1437 H1416 0.950 . S
C1437 C1436 1.373 . S
C1437 C1453 1.377 1_554 S
C1438 C1436 1.389 . S
C1438 C1439 1.524 . S
C1438 C1452 1.377 1_554 S
C1439 C1438 1.524 . S
C1439 C1440 1.397 . S
C1439 C1444 1.363 . S
C1440 H1417 0.950 . S
C1440 C1439 1.397 . S
C1440 C1441 1.334 . S
C1441 H1418 0.950 . S
C1441 C1440 1.334 . S
C1441 C1442 1.287 . S
C1442 C1441 1.287 . S
C1442 C1443 1.524 . S
C1442 H1461 0.913 . S
C1443 H1419 0.950 . S
C1443 C1442 1.524 . S
C1443 C1444 1.415 . S
C1444 H1420 0.944 1_554 S
C1444 C1439 1.363 . S
C1444 C1443 1.415 . S
C1445 H1421 0.951 . S
C1445 C1446 1.366 . S
C1445 C1447 1.388 . S
C1446 C1445 1.366 . S
C1446 C1450 1.385 . S
C1447 H1422 0.951 . S
C1447 C1445 1.388 . S
C1447 C1448 1.366 . S
C1448 C1447 1.366 . S
C1448 C1449 1.414 . S
C1448 C1451 1.499 . S
C1449 H1423 0.950 . S
C1449 C1448 1.414 . S
C1449 C1450 1.374 . S
C1450 H1424 0.950 . S
C1450 C1446 1.385 . S
C1450 C1449 1.374 . S
C1451 C1448 1.499 . S
C1451 C1452 1.373 . S
C1451 C1453 1.389 . S
C1452 H1425 0.950 . S
C1452 C1438 1.377 1_556 S
C1452 C1451 1.373 . S
C1453 C1437 1.377 1_556 S
C1453 C1451 1.389 . S
C1453 C1454 1.524 . S
C1454 C1453 1.524 . S
C1454 C1455 1.397 . S
C1454 C1459 1.363 . S
C1455 H1426 0.950 . S
C1455 C1454 1.397 . S
C1455 C1456 1.334 . S
C1456 H1427 0.950 . S
C1456 C1455 1.334 . S
C1456 C1457 1.287 . S
C1457 C1456 1.287 . S
C1457 C1458 1.524 . S
C1457 H1460 0.999 . S
C1458 H1428 0.950 . S
C1458 C1457 1.524 . S
C1458 C1459 1.415 . S
C1459 H1429 0.950 . S
C1459 C1454 1.363 . S
C1459 C1458 1.415 . S
H1460 C1457 0.999 . S
H1461 C1442 0.913 . S
H1462 C1480 0.951 . S
H1463 C1482 0.951 . S
H1464 C1484 0.950 . S
H1465 C1485 0.950 . S
H1466 C1487 0.950 . S
H1467 C1490 0.950 . S
H1468 C1491 0.950 . S
H1469 C1493 0.950 . S
H1470 C1494 0.950 1_554 S
H1471 C1495 0.951 . S
H1472 C1497 0.951 . S
H1473 C1499 0.950 . S
H1474 C1500 0.950 . S
H1475 C1502 0.950 . S
H1476 C1505 0.950 . S
H1477 C1506 0.950 . S
H1478 C1508 0.948 1_556 S
H1479 C1509 0.959 . S
C1480 H1462 0.951 . S
C1480 C1481 1.366 . S
C1480 C1482 1.388 . S
C1481 C1480 1.366 . S
C1481 C1485 1.385 . S
C1482 H1463 0.951 . S
C1482 C1480 1.388 . S
C1482 C1483 1.366 . S
C1483 C1482 1.366 . S
C1483 C1484 1.414 . S
C1483 C1486 1.499 . S
C1484 H1464 0.950 . S
C1484 C1483 1.414 . S
C1484 C1485 1.374 . S
C1485 H1465 0.950 . S
C1485 C1481 1.385 . S
C1485 C1484 1.374 . S
C1486 C1483 1.499 . S
C1486 C1487 1.373 . S
C1486 C1488 1.389 . S
C1487 H1466 0.950 . S
C1487 C1486 1.373 . S
C1487 C1503 1.377 1_556 S
C1488 C1486 1.389 . S
C1488 C1489 1.524 . S
C1488 C1502 1.377 1_556 S
C1489 C1488 1.524 . S
C1489 C1490 1.397 . S
C1489 C1494 1.363 . S
C1490 H1467 0.950 . S
C1490 C1489 1.397 . S
C1490 C1491 1.334 . S
C1491 H1468 0.950 . S
C1491 C1490 1.334 . S
C1491 C1492 1.287 . S
C1492 C1491 1.287 . S
C1492 C1493 1.524 . S
C1492 H1511 0.913 . S
C1493 H1469 0.950 . S
C1493 C1492 1.524 . S
C1493 C1494 1.415 . S
C1494 H1470 0.950 1_556 S
C1494 C1489 1.363 . S
C1494 C1493 1.415 . S
C1495 H1471 0.951 . S
C1495 C1496 1.366 . S
C1495 C1497 1.388 . S
C1496 C1495 1.366 . S
C1496 C1500 1.385 . S
C1497 H1472 0.951 . S
C1497 C1495 1.388 . S
C1497 C1498 1.366 . S
C1498 C1497 1.366 . S
C1498 C1499 1.414 . S
C1498 C1501 1.499 . S
C1499 H1473 0.950 . S
C1499 C1498 1.414 . S
C1499 C1500 1.374 . S
C1500 H1474 0.950 . S
C1500 C1496 1.385 . S
C1500 C1499 1.374 . S
C1501 C1498 1.499 . S
C1501 C1502 1.373 . S
C1501 C1503 1.389 . S
C1502 H1475 0.950 . S
C1502 C1488 1.377 1_554 S
C1502 C1501 1.373 . S
C1503 C1487 1.377 1_554 S
C1503 C1501 1.389 . S
C1503 C1504 1.524 . S
C1504 C1503 1.524 . S
C1504 C1505 1.397 . S
C1504 C1509 1.357 1_554 S
C1505 H1476 0.950 . S
C1505 C1504 1.397 . S
C1505 C1506 1.334 . S
C1506 H1477 0.950 . S
C1506 C1505 1.334 . S
C1506 C1507 1.287 . S
C1507 C1506 1.287 . S
C1507 C1508 1.524 . S
C1507 H1510 0.999 . S
C1508 H1478 0.948 1_554 S
C1508 C1507 1.524 . S
C1508 C1509 1.412 1_554 S
C1509 H1479 0.959 . S
C1509 C1504 1.357 1_556 S
C1509 C1508 1.412 1_556 S
H1510 C1507 0.999 . S
H1511 C1492 0.913 . S
H1512 C1530 0.951 . S
H1513 C1532 0.951 . S
H1514 C1534 0.950 . S
H1515 C1535 0.950 . S
H1516 C1537 0.950 . S
H1517 C1540 0.950 . S
H1518 C1541 0.950 . S
H1519 C1543 0.950 . S
H1520 C1544 0.950 . S
H1521 C1545 0.951 . S
H1522 C1547 0.951 . S
H1523 C1549 0.950 . S
H1524 C1550 0.950 . S
H1525 C1552 0.950 . S
H1526 C1555 0.950 . S
H1527 C1556 0.950 . S
H1528 C1558 0.950 . S
H1529 C1559 0.950 . S
C1530 H1512 0.951 . S
C1530 C1531 1.366 . S
C1530 C1532 1.388 . S
C1531 C1530 1.366 . S
C1531 C1535 1.385 . S
C1532 H1513 0.951 . S
C1532 C1530 1.388 . S
C1532 C1533 1.366 . S
C1533 C1532 1.366 . S
C1533 C1534 1.414 . S
C1533 C1536 1.499 . S
C1534 H1514 0.950 . S
C1534 C1533 1.414 . S
C1534 C1535 1.374 . S
C1535 H1515 0.950 . S
C1535 C1531 1.385 . S
C1535 C1534 1.374 . S
C1536 C1533 1.499 . S
C1536 C1537 1.373 . S
C1536 C1538 1.389 . S
C1537 H1516 0.950 . S
C1537 C1536 1.373 . S
C1537 C1553 1.377 . S
C1538 C1536 1.389 . S
C1538 C1539 1.524 . S
C1538 C1552 1.377 . S
C1539 C1538 1.524 . S
C1539 C1540 1.397 . S
C1539 C1544 1.363 . S
C1540 H1517 0.950 . S
C1540 C1539 1.397 . S
C1540 C1541 1.334 . S
C1541 H1518 0.950 . S
C1541 C1540 1.334 . S
C1541 C1542 1.287 . S
C1542 C1541 1.287 . S
C1542 C1543 1.524 . S
C1542 H1561 0.913 . S
C1543 H1519 0.950 . S
C1543 C1542 1.524 . S
C1543 C1544 1.415 . S
C1544 H1520 0.950 . S
C1544 C1539 1.363 . S
C1544 C1543 1.415 . S
C1545 H1521 0.951 . S
C1545 C1546 1.366 . S
C1545 C1547 1.388 . S
C1546 C1545 1.366 . S
C1546 C1550 1.385 . S
C1547 H1522 0.951 . S
C1547 C1545 1.388 . S
C1547 C1548 1.366 . S
C1548 C1547 1.366 . S
C1548 C1549 1.414 . S
C1548 C1551 1.499 . S
C1549 H1523 0.950 . S
C1549 C1548 1.414 . S
C1549 C1550 1.374 . S
C1550 H1524 0.950 . S
C1550 C1546 1.385 . S
C1550 C1549 1.374 . S
C1551 C1548 1.499 . S
C1551 C1552 1.373 . S
C1551 C1553 1.389 . S
C1552 H1525 0.950 . S
C1552 C1538 1.377 . S
C1552 C1551 1.373 . S
C1553 C1537 1.377 . S
C1553 C1551 1.389 . S
C1553 C1554 1.524 . S
C1554 C1553 1.524 . S
C1554 C1555 1.397 . S
C1554 C1559 1.363 . S
C1555 H1526 0.950 . S
C1555 C1554 1.397 . S
C1555 C1556 1.334 . S
C1556 H1527 0.950 . S
C1556 C1555 1.334 . S
C1556 C1557 1.287 . S
C1557 C1556 1.287 . S
C1557 C1558 1.524 . S
C1557 H1560 0.999 . S
C1558 H1528 0.950 . S
C1558 C1557 1.524 . S
C1558 C1559 1.415 . S
C1559 H1529 0.950 . S
C1559 C1554 1.363 . S
C1559 C1558 1.415 . S
H1560 C1557 0.999 . S
H1561 C1542 0.913 . S
H1562 C1580 0.951 . S
H1563 C1582 0.951 . S
H1564 C1584 0.950 . S
H1565 C1585 0.950 . S
H1566 C1587 0.950 . S
H1567 C1590 0.950 . S
H1568 C1591 0.950 . S
H1569 C1593 0.950 . S
H1570 C1594 0.950 . S
H1571 C1595 0.951 . S
H1572 C1597 0.951 . S
H1573 C1599 0.950 . S
H1574 C1600 0.950 . S
H1575 C1602 0.950 . S
H1576 C1605 0.950 . S
H1577 C1606 0.950 . S
H1578 C1608 0.950 . S
H1579 C1609 0.950 . S
C1580 H1562 0.951 . S
C1580 C1581 1.366 . S
C1580 C1582 1.388 . S
C1581 C1580 1.366 . S
C1581 C1585 1.385 . S
C1582 H1563 0.951 . S
C1582 C1580 1.388 . S
C1582 C1583 1.366 . S
C1583 C1582 1.366 . S
C1583 C1584 1.414 . S
C1583 C1586 1.499 . S
C1584 H1564 0.950 . S
C1584 C1583 1.414 . S
C1584 C1585 1.374 . S
C1585 H1565 0.950 . S
C1585 C1581 1.385 . S
C1585 C1584 1.374 . S
C1586 C1583 1.499 . S
C1586 C1587 1.373 . S
C1586 C1588 1.389 . S
C1587 H1566 0.950 . S
C1587 C1586 1.373 . S
C1587 C1603 1.377 . S
C1588 C1586 1.389 . S
C1588 C1589 1.524 . S
C1588 C1602 1.377 . S
C1589 C1588 1.524 . S
C1589 C1590 1.397 . S
C1589 C1594 1.363 . S
C1590 H1567 0.950 . S
C1590 C1589 1.397 . S
C1590 C1591 1.334 . S
C1591 H1568 0.950 . S
C1591 C1590 1.334 . S
C1591 C1592 1.287 . S
C1592 C1591 1.287 . S
C1592 C1593 1.524 . S
C1592 H1611 0.913 . S
C1593 H1569 0.950 . S
C1593 C1592 1.524 . S
C1593 C1594 1.415 . S
C1594 H1570 0.950 . S
C1594 C1589 1.363 . S
C1594 C1593 1.415 . S
C1595 H1571 0.951 . S
C1595 C1596 1.366 . S
C1595 C1597 1.388 . S
C1596 C1595 1.366 . S
C1596 C1600 1.385 . S
C1597 H1572 0.951 . S
C1597 C1595 1.388 . S
C1597 C1598 1.366 . S
C1598 C1597 1.366 . S
C1598 C1599 1.414 . S
C1598 C1601 1.499 . S
C1599 H1573 0.950 . S
C1599 C1598 1.414 . S
C1599 C1600 1.374 . S
C1600 H1574 0.950 . S
C1600 C1596 1.385 . S
C1600 C1599 1.374 . S
C1601 C1598 1.499 . S
C1601 C1602 1.373 . S
C1601 C1603 1.389 . S
C1602 H1575 0.950 . S
C1602 C1588 1.377 . S
C1602 C1601 1.373 . S
C1603 C1587 1.377 . S
C1603 C1601 1.389 . S
C1603 C1604 1.524 . S
C1604 C1603 1.524 . S
C1604 C1605 1.397 . S
C1604 C1609 1.363 . S
C1605 H1576 0.950 . S
C1605 C1604 1.397 . S
C1605 C1606 1.334 . S
C1606 H1577 0.950 . S
C1606 C1605 1.334 . S
C1606 C1607 1.287 . S
C1607 C1606 1.287 . S
C1607 C1608 1.524 . S
C1607 H1610 0.999 . S
C1608 H1578 0.950 . S
C1608 C1607 1.524 . S
C1608 C1609 1.415 . S
C1609 H1579 0.950 . S
C1609 C1604 1.363 . S
C1609 C1608 1.415 . S
H1610 C1607 0.999 . S
H1611 C1592 0.913 . S
H1612 C1630 0.951 . S
H1613 C1632 0.951 . S
H1614 C1634 0.950 . S
H1615 C1635 0.950 . S
H1616 C1637 0.950 . S
H1617 C1640 0.950 . S
H1618 C1641 0.950 . S
H1619 C1643 0.950 . S
H1620 C1644 0.950 . S
H1621 C1645 0.951 . S
H1622 C1647 0.951 . S
H1623 C1649 0.950 . S
H1624 C1650 0.950 . S
H1625 C1652 0.950 . S
H1626 C1655 0.950 . S
H1627 C1656 0.950 . S
H1628 C1658 0.950 . S
H1629 C1659 0.950 . S
C1630 H1612 0.951 . S
C1630 C1631 1.366 . S
C1630 C1632 1.388 . S
C1631 C1630 1.366 . S
C1631 C1635 1.385 . S
C1632 H1613 0.951 . S
C1632 C1630 1.388 . S
C1632 C1633 1.366 . S
C1633 C1632 1.366 . S
C1633 C1634 1.414 . S
C1633 C1636 1.499 . S
C1634 H1614 0.950 . S
C1634 C1633 1.414 . S
C1634 C1635 1.374 . S
C1635 H1615 0.950 . S
C1635 C1631 1.385 . S
C1635 C1634 1.374 . S
C1636 C1633 1.499 . S
C1636 C1637 1.373 . S
C1636 C1638 1.389 . S
C1637 H1616 0.950 . S
C1637 C1636 1.373 . S
C1637 C1653 1.377 . S
C1638 C1636 1.389 . S
C1638 C1639 1.524 . S
C1638 C1652 1.377 . S
C1639 C1638 1.524 . S
C1639 C1640 1.397 . S
C1639 C1644 1.363 . S
C1640 H1617 0.950 . S
C1640 C1639 1.397 . S
C1640 C1641 1.334 . S
C1641 H1618 0.950 . S
C1641 C1640 1.334 . S
C1641 C1642 1.287 . S
C1642 C1641 1.287 . S
C1642 C1643 1.524 . S
C1642 H1661 0.913 . S
C1643 H1619 0.950 . S
C1643 C1642 1.524 . S
C1643 C1644 1.415 . S
C1644 H1620 0.950 . S
C1644 C1639 1.363 . S
C1644 C1643 1.415 . S
C1645 H1621 0.951 . S
C1645 C1646 1.366 . S
C1645 C1647 1.388 . S
C1646 C1645 1.366 . S
C1646 C1650 1.385 . S
C1647 H1622 0.951 . S
C1647 C1645 1.388 . S
C1647 C1648 1.366 . S
C1648 C1647 1.366 . S
C1648 C1649 1.414 . S
C1648 C1651 1.499 . S
C1649 H1623 0.950 . S
C1649 C1648 1.414 . S
C1649 C1650 1.374 . S
C1650 H1624 0.950 . S
C1650 C1646 1.385 . S
C1650 C1649 1.374 . S
C1651 C1648 1.499 . S
C1651 C1652 1.373 . S
C1651 C1653 1.389 . S
C1652 H1625 0.950 . S
C1652 C1638 1.377 . S
C1652 C1651 1.373 . S
C1653 C1637 1.377 . S
C1653 C1651 1.389 . S
C1653 C1654 1.524 . S
C1654 C1653 1.524 . S
C1654 C1655 1.397 . S
C1654 C1659 1.363 . S
C1655 H1626 0.950 . S
C1655 C1654 1.397 . S
C1655 C1656 1.334 . S
C1656 H1627 0.950 . S
C1656 C1655 1.334 . S
C1656 C1657 1.287 . S
C1657 C1656 1.287 . S
C1657 C1658 1.524 . S
C1657 H1660 0.999 . S
C1658 H1628 0.950 . S
C1658 C1657 1.524 . S
C1658 C1659 1.415 . S
C1659 H1629 0.950 . S
C1659 C1654 1.363 . S
C1659 C1658 1.415 . S
H1660 C1657 0.999 . S
H1661 C1642 0.913 . S
H1662 C1680 0.951 . S
H1663 C1682 0.951 . S
H1664 C1684 0.950 . S
H1665 C1685 0.950 . S
H1666 C1687 0.950 . S
H1667 C1690 0.950 . S
H1668 C1691 0.950 . S
H1669 C1693 0.950 . S
H1670 C1694 0.950 . S
H1671 C1695 0.951 . S
H1672 C1697 0.951 . S
H1673 C1699 0.950 . S
H1674 C1700 0.950 . S
H1675 C1702 0.950 . S
H1676 C1705 0.950 . S
H1677 C1706 0.950 . S
H1678 C1708 0.950 . S
H1679 C1709 0.950 . S
C1680 H1662 0.951 . S
C1680 C1681 1.366 . S
C1680 C1682 1.388 . S
C1681 C1680 1.366 . S
C1681 C1685 1.385 . S
C1682 H1663 0.951 . S
C1682 C1680 1.388 . S
C1682 C1683 1.366 . S
C1683 C1682 1.366 . S
C1683 C1684 1.414 . S
C1683 C1686 1.499 . S
C1684 H1664 0.950 . S
C1684 C1683 1.414 . S
C1684 C1685 1.374 . S
C1685 H1665 0.950 . S
C1685 C1681 1.385 . S
C1685 C1684 1.374 . S
C1686 C1683 1.499 . S
C1686 C1687 1.373 . S
C1686 C1688 1.389 . S
C1687 H1666 0.950 . S
C1687 C1686 1.373 . S
C1687 C1703 1.377 . S
C1688 C1686 1.389 . S
C1688 C1689 1.524 . S
C1688 C1702 1.377 . S
C1689 C1688 1.524 . S
C1689 C1690 1.397 . S
C1689 C1694 1.363 . S
C1690 H1667 0.950 . S
C1690 C1689 1.397 . S
C1690 C1691 1.334 . S
C1691 H1668 0.950 . S
C1691 C1690 1.334 . S
C1691 C1692 1.287 . S
C1692 C1691 1.287 . S
C1692 C1693 1.524 . S
C1692 H1711 0.913 . S
C1693 H1669 0.950 . S
C1693 C1692 1.524 . S
C1693 C1694 1.415 . S
C1694 H1670 0.950 . S
C1694 C1689 1.363 . S
C1694 C1693 1.415 . S
C1695 H1671 0.951 . S
C1695 C1696 1.366 . S
C1695 C1697 1.388 . S
C1696 C1695 1.366 . S
C1696 C1700 1.385 . S
C1697 H1672 0.951 . S
C1697 C1695 1.388 . S
C1697 C1698 1.366 . S
C1698 C1697 1.366 . S
C1698 C1699 1.414 . S
C1698 C1701 1.499 . S
C1699 H1673 0.950 . S
C1699 C1698 1.414 . S
C1699 C1700 1.374 . S
C1700 H1674 0.950 . S
C1700 C1696 1.385 . S
C1700 C1699 1.374 . S
C1701 C1698 1.499 . S
C1701 C1702 1.373 . S
C1701 C1703 1.389 . S
C1702 H1675 0.950 . S
C1702 C1688 1.377 . S
C1702 C1701 1.373 . S
C1703 C1687 1.377 . S
C1703 C1701 1.389 . S
C1703 C1704 1.524 . S
C1704 C1703 1.524 . S
C1704 C1705 1.397 . S
C1704 C1709 1.363 . S
C1705 H1676 0.950 . S
C1705 C1704 1.397 . S
C1705 C1706 1.334 . S
C1706 H1677 0.950 . S
C1706 C1705 1.334 . S
C1706 C1707 1.287 . S
C1707 C1706 1.287 . S
C1707 C1708 1.524 . S
C1707 H1710 0.999 . S
C1708 H1678 0.950 . S
C1708 C1707 1.524 . S
C1708 C1709 1.415 . S
C1709 H1679 0.950 . S
C1709 C1704 1.363 . S
C1709 C1708 1.415 . S
H1710 C1707 0.999 . S
H1711 C1692 0.913 . S
H1712 C1730 0.951 . S
H1713 C1732 0.951 . S
H1714 C1734 0.950 . S
H1715 C1735 0.950 . S
H1716 C1737 0.950 . S
H1717 C1740 0.950 . S
H1718 C1741 0.950 . S
H1719 C1743 0.950 . S
H1720 C1744 0.950 . S
H1721 C1745 0.951 . S
H1722 C1747 0.951 . S
H1723 C1749 0.950 . S
H1724 C1750 0.950 . S
H1725 C1752 0.950 . S
H1726 C1755 0.950 . S
H1727 C1756 0.950 . S
H1728 C1758 0.950 . S
H1729 C1759 0.950 . S
C1730 H1712 0.951 . S
C1730 C1731 1.366 . S
C1730 C1732 1.388 . S
C1731 C1730 1.366 . S
C1731 C1735 1.385 . S
C1732 H1713 0.951 . S
C1732 C1730 1.388 . S
C1732 C1733 1.366 . S
C1733 C1732 1.366 . S
C1733 C1734 1.414 . S
C1733 C1736 1.499 . S
C1734 H1714 0.950 . S
C1734 C1733 1.414 . S
C1734 C1735 1.374 . S
C1735 H1715 0.950 . S
C1735 C1731 1.385 . S
C1735 C1734 1.374 . S
C1736 C1733 1.499 . S
C1736 C1737 1.373 . S
C1736 C1738 1.389 . S
C1737 H1716 0.950 . S
C1737 C1736 1.373 . S
C1737 C1753 1.377 . S
C1738 C1736 1.389 . S
C1738 C1739 1.524 . S
C1738 C1752 1.377 . S
C1739 C1738 1.524 . S
C1739 C1740 1.397 . S
C1739 C1744 1.363 . S
C1740 H1717 0.950 . S
C1740 C1739 1.397 . S
C1740 C1741 1.334 . S
C1741 H1718 0.950 . S
C1741 C1740 1.334 . S
C1741 C1742 1.287 . S
C1742 C1741 1.287 . S
C1742 C1743 1.524 . S
C1742 H1761 0.913 . S
C1743 H1719 0.950 . S
C1743 C1742 1.524 . S
C1743 C1744 1.415 . S
C1744 H1720 0.950 . S
C1744 C1739 1.363 . S
C1744 C1743 1.415 . S
C1745 H1721 0.951 . S
C1745 C1746 1.366 . S
C1745 C1747 1.388 . S
C1746 C1745 1.366 . S
C1746 C1750 1.385 . S
C1747 H1722 0.951 . S
C1747 C1745 1.388 . S
C1747 C1748 1.366 . S
C1748 C1747 1.366 . S
C1748 C1749 1.414 . S
C1748 C1751 1.499 . S
C1749 H1723 0.950 . S
C1749 C1748 1.414 . S
C1749 C1750 1.374 . S
C1750 H1724 0.950 . S
C1750 C1746 1.385 . S
C1750 C1749 1.374 . S
C1751 C1748 1.499 . S
C1751 C1752 1.373 . S
C1751 C1753 1.389 . S
C1752 H1725 0.950 . S
C1752 C1738 1.377 . S
C1752 C1751 1.373 . S
C1753 C1737 1.377 . S
C1753 C1751 1.389 . S
C1753 C1754 1.524 . S
C1754 C1753 1.524 . S
C1754 C1755 1.397 . S
C1754 C1759 1.363 . S
C1755 H1726 0.950 . S
C1755 C1754 1.397 . S
C1755 C1756 1.334 . S
C1756 H1727 0.950 . S
C1756 C1755 1.334 . S
C1756 C1757 1.287 . S
C1757 C1756 1.287 . S
C1757 C1758 1.524 . S
C1757 H1760 0.999 . S
C1758 H1728 0.950 . S
C1758 C1757 1.524 . S
C1758 C1759 1.415 . S
C1759 H1729 0.950 . S
C1759 C1754 1.363 . S
C1759 C1758 1.415 . S
H1760 C1757 0.999 . S
H1761 C1742 0.913 . S
H1762 C1780 0.951 . S
H1763 C1782 0.951 . S
H1764 C1784 0.950 . S
H1765 C1785 0.950 . S
H1766 C1787 0.950 . S
H1767 C1790 0.950 . S
H1768 C1791 0.950 . S
H1769 C1793 0.950 . S
H1770 C1794 0.950 . S
H1771 C1795 0.951 . S
H1772 C1797 0.951 . S
H1773 C1799 0.950 . S
H1774 C1800 0.950 . S
H1775 C1802 0.950 . S
H1776 C1805 0.950 . S
H1777 C1806 0.950 . S
H1778 C1808 0.950 . S
H1779 C1809 0.950 . S
C1780 H1762 0.951 . S
C1780 C1781 1.366 . S
C1780 C1782 1.388 . S
C1781 C1780 1.366 . S
C1781 C1785 1.385 . S
C1782 H1763 0.951 . S
C1782 C1780 1.388 . S
C1782 C1783 1.366 . S
C1783 C1782 1.366 . S
C1783 C1784 1.414 . S
C1783 C1786 1.499 . S
C1784 H1764 0.950 . S
C1784 C1783 1.414 . S
C1784 C1785 1.374 . S
C1785 H1765 0.950 . S
C1785 C1781 1.385 . S
C1785 C1784 1.374 . S
C1786 C1783 1.499 . S
C1786 C1787 1.373 . S
C1786 C1788 1.389 . S
C1787 H1766 0.950 . S
C1787 C1786 1.373 . S
C1787 C1803 1.377 . S
C1788 C1786 1.389 . S
C1788 C1789 1.524 . S
C1788 C1802 1.377 . S
C1789 C1788 1.524 . S
C1789 C1790 1.397 . S
C1789 C1794 1.363 . S
C1790 H1767 0.950 . S
C1790 C1789 1.397 . S
C1790 C1791 1.334 . S
C1791 H1768 0.950 . S
C1791 C1790 1.334 . S
C1791 C1792 1.287 . S
C1792 C1791 1.287 . S
C1792 C1793 1.524 . S
C1792 H1811 0.913 . S
C1793 H1769 0.950 . S
C1793 C1792 1.524 . S
C1793 C1794 1.415 . S
C1794 H1770 0.950 . S
C1794 C1789 1.363 . S
C1794 C1793 1.415 . S
C1795 H1771 0.951 . S
C1795 C1796 1.366 . S
C1795 C1797 1.388 . S
C1796 C1795 1.366 . S
C1796 C1800 1.385 . S
C1797 H1772 0.951 . S
C1797 C1795 1.388 . S
C1797 C1798 1.366 . S
C1798 C1797 1.366 . S
C1798 C1799 1.414 . S
C1798 C1801 1.499 . S
C1799 H1773 0.950 . S
C1799 C1798 1.414 . S
C1799 C1800 1.374 . S
C1800 H1774 0.950 . S
C1800 C1796 1.385 . S
C1800 C1799 1.374 . S
C1801 C1798 1.499 . S
C1801 C1802 1.373 . S
C1801 C1803 1.389 . S
C1802 H1775 0.950 . S
C1802 C1788 1.377 . S
C1802 C1801 1.373 . S
C1803 C1787 1.377 . S
C1803 C1801 1.389 . S
C1803 C1804 1.524 . S
C1804 C1803 1.524 . S
C1804 C1805 1.397 . S
C1804 C1809 1.363 . S
C1805 H1776 0.950 . S
C1805 C1804 1.397 . S
C1805 C1806 1.334 . S
C1806 H1777 0.950 . S
C1806 C1805 1.334 . S
C1806 C1807 1.287 . S
C1807 C1806 1.287 . S
C1807 C1808 1.524 . S
C1807 H1810 0.999 . S
C1808 H1778 0.950 . S
C1808 C1807 1.524 . S
C1808 C1809 1.415 . S
C1809 H1779 0.950 . S
C1809 C1804 1.363 . S
C1809 C1808 1.415 . S
H1810 C1807 0.999 . S
H1811 C1792 0.913 . S
H1812 C1830 0.951 . S
H1813 C1832 0.951 . S
H1814 C1834 0.950 1_556 S
H1815 C1835 0.950 . S
H1816 C1837 0.950 . S
H1817 C1840 0.950 1_556 S
H1818 C1841 0.950 . S
H1819 C1843 0.950 . S
H1820 C1844 0.950 1_455 S
H1821 C1845 0.951 . S
H1822 C1847 0.951 . S
H1823 C1849 0.950 1_554 S
H1824 C1850 0.950 . S
H1825 C1852 0.950 . S
H1826 C1855 0.950 1_554 S
H1827 C1856 0.950 . S
H1828 C1858 0.950 . S
H1829 C1859 0.950 1_655 S
C1830 H1812 0.951 . S
C1830 C1831 1.366 . S
C1830 C1832 1.388 . S
C1831 C1830 1.366 . S
C1831 C1835 1.385 . S
C1832 H1813 0.951 . S
C1832 C1830 1.388 . S
C1832 C1833 1.366 . S
C1833 C1832 1.366 . S
C1833 C1834 1.414 . S
C1833 C1836 1.499 . S
C1834 H1814 0.950 1_554 S
C1834 C1833 1.414 . S
C1834 C1835 1.374 . S
C1835 H1815 0.950 . S
C1835 C1831 1.385 . S
C1835 C1834 1.374 . S
C1836 C1833 1.499 . S
C1836 C1837 1.373 . S
C1836 C1838 1.389 . S
C1837 H1816 0.950 . S
C1837 C1836 1.373 . S
C1837 C1853 1.377 1_654 S
C1838 C1836 1.389 . S
C1838 C1839 1.524 . S
C1838 C1852 1.377 1_654 S
C1839 C1838 1.524 . S
C1839 C1840 1.397 . S
C1839 C1844 1.363 . S
C1840 H1817 0.950 1_554 S
C1840 C1839 1.397 . S
C1840 C1841 1.334 . S
C1841 H1818 0.950 . S
C1841 C1840 1.334 . S
C1841 C1842 1.287 . S
C1842 C1841 1.287 . S
C1842 C1843 1.524 . S
C1842 H1861 0.913 . S
C1843 H1819 0.950 . S
C1843 C1842 1.524 . S
C1843 C1844 1.415 . S
C1844 H1820 0.950 1_655 S
C1844 C1839 1.363 . S
C1844 C1843 1.415 . S
C1845 H1821 0.951 . S
C1845 C1846 1.366 . S
C1845 C1847 1.388 . S
C1846 C1845 1.366 . S
C1846 C1850 1.385 . S
C1847 H1822 0.951 . S
C1847 C1845 1.388 . S
C1847 C1848 1.366 . S
C1848 C1847 1.366 . S
C1848 C1849 1.414 . S
C1848 C1851 1.499 . S
C1849 H1823 0.950 1_556 S
C1849 C1848 1.414 . S
C1849 C1850 1.374 . S
C1850 H1824 0.950 . S
C1850 C1846 1.385 . S
C1850 C1849 1.374 . S
C1851 C1848 1.499 . S
C1851 C1852 1.373 . S
C1851 C1853 1.389 . S
C1852 H1825 0.950 . S
C1852 C1838 1.377 1_456 S
C1852 C1851 1.373 . S
C1853 C1837 1.377 1_456 S
C1853 C1851 1.389 . S
C1853 C1854 1.524 . S
C1854 C1853 1.524 . S
C1854 C1855 1.397 . S
C1854 C1859 1.363 . S
C1855 H1826 0.950 1_556 S
C1855 C1854 1.397 . S
C1855 C1856 1.334 . S
C1856 H1827 0.950 . S
C1856 C1855 1.334 . S
C1856 C1857 1.287 . S
C1857 C1856 1.287 . S
C1857 C1858 1.524 . S
C1857 H1860 0.999 . S
C1858 H1828 0.950 . S
C1858 C1857 1.524 . S
C1858 C1859 1.415 . S
C1859 H1829 0.950 1_455 S
C1859 C1854 1.363 . S
C1859 C1858 1.415 . S
H1860 C1857 0.999 . S
H1861 C1842 0.913 . S
H1862 C1880 0.951 . S
H1863 C1882 0.951 . S
H1864 C1884 0.950 . S
H1865 C1885 0.950 . S
H1866 C1887 0.950 . S
H1867 C1890 0.950 . S
H1868 C1891 0.950 . S
H1869 C1893 0.950 . S
H1870 C1894 0.950 . S
H1871 C1895 0.951 . S
H1872 C1897 0.951 . S
H1873 C1899 0.950 . S
H1874 C1900 0.950 . S
H1875 C1902 0.950 . S
H1876 C1905 0.950 . S
H1877 C1906 0.950 . S
H1878 C1908 0.950 . S
H1879 C1909 0.950 . S
C1880 H1862 0.951 . S
C1880 C1881 1.366 . S
C1880 C1882 1.388 . S
C1881 C1880 1.366 . S
C1881 C1885 1.385 . S
C1882 H1863 0.951 . S
C1882 C1880 1.388 . S
C1882 C1883 1.366 . S
C1883 C1882 1.366 . S
C1883 C1884 1.414 . S
C1883 C1886 1.499 . S
C1884 H1864 0.950 . S
C1884 C1883 1.414 . S
C1884 C1885 1.374 . S
C1885 H1865 0.950 . S
C1885 C1881 1.385 . S
C1885 C1884 1.374 . S
C1886 C1883 1.499 . S
C1886 C1887 1.373 1_556 S
C1886 C1888 1.389 . S
C1887 H1866 0.950 . S
C1887 C1886 1.373 1_554 S
C1887 C1903 1.377 . S
C1888 C1886 1.389 . S
C1888 C1889 1.524 . S
C1888 C1902 1.377 . S
C1889 C1888 1.524 . S
C1889 C1890 1.397 . S
C1889 C1894 1.363 . S
C1890 H1867 0.950 . S
C1890 C1889 1.397 . S
C1890 C1891 1.334 . S
C1891 H1868 0.950 . S
C1891 C1890 1.334 . S
C1891 C1892 1.287 . S
C1892 C1891 1.287 . S
C1892 C1893 1.524 . S
C1892 H1911 0.913 . S
C1893 H1869 0.950 . S
C1893 C1892 1.524 . S
C1893 C1894 1.415 . S
C1894 H1870 0.950 . S
C1894 C1889 1.363 . S
C1894 C1893 1.415 . S
C1895 H1871 0.951 . S
C1895 C1896 1.366 . S
C1895 C1897 1.388 . S
C1896 C1895 1.366 . S
C1896 C1900 1.385 . S
C1897 H1872 0.951 . S
C1897 C1895 1.388 . S
C1897 C1898 1.366 . S
C1898 C1897 1.366 . S
C1898 C1899 1.414 . S
C1898 C1901 1.499 . S
C1899 H1873 0.950 . S
C1899 C1898 1.414 . S
C1899 C1900 1.374 . S
C1900 H1874 0.950 . S
C1900 C1896 1.385 . S
C1900 C1899 1.374 . S
C1901 C1898 1.499 . S
C1901 C1902 1.373 1_554 S
C1901 C1903 1.389 . S
C1902 H1875 0.950 . S
C1902 C1888 1.377 . S
C1902 C1901 1.373 1_556 S
C1903 C1887 1.377 . S
C1903 C1901 1.389 . S
C1903 C1904 1.524 . S
C1904 C1903 1.524 . S
C1904 C1905 1.397 . S
C1904 C1909 1.363 . S
C1905 H1876 0.950 . S
C1905 C1904 1.397 . S
C1905 C1906 1.334 . S
C1906 H1877 0.950 . S
C1906 C1905 1.334 . S
C1906 C1907 1.287 . S
C1907 C1906 1.287 . S
C1907 C1908 1.524 . S
C1907 H1910 0.999 . S
C1908 H1878 0.950 . S
C1908 C1907 1.524 . S
C1908 C1909 1.415 . S
C1909 H1879 0.950 . S
C1909 C1904 1.363 . S
C1909 C1908 1.415 . S
H1910 C1907 0.999 . S
H1911 C1892 0.913 . S
H1912 C1930 0.951 . S
H1913 C1932 0.951 . S
H1914 C1934 0.950 . S
H1915 C1935 0.950 . S
H1916 C1937 0.950 . S
H1917 C1940 0.950 . S
H1918 C1941 0.950 . S
H1919 C1943 0.950 . S
H1920 C1944 0.950 . S
H1921 C1945 0.951 . S
H1922 C1947 0.951 . S
H1923 C1949 0.950 . S
H1924 C1950 0.950 . S
H1925 C1952 0.950 . S
H1926 C1955 0.950 . S
H1927 C1956 0.950 . S
H1928 C1958 0.950 . S
H1929 C1959 0.950 . S
C1930 H1912 0.951 . S
C1930 C1931 1.366 . S
C1930 C1932 1.388 . S
C1931 C1930 1.366 . S
C1931 C1935 1.385 . S
C1932 H1913 0.951 . S
C1932 C1930 1.388 . S
C1932 C1933 1.366 . S
C1933 C1932 1.366 . S
C1933 C1934 1.414 . S
C1933 C1936 1.499 . S
C1934 H1914 0.950 . S
C1934 C1933 1.414 . S
C1934 C1935 1.374 . S
C1935 H1915 0.950 . S
C1935 C1931 1.385 . S
C1935 C1934 1.374 . S
C1936 C1933 1.499 . S
C1936 C1937 1.373 1_554 S
C1936 C1938 1.427 . S
C1937 H1916 0.950 . S
C1937 C1936 1.373 1_556 S
C1937 C1953 1.330 1_545 S
C1938 C1936 1.427 . S
C1938 C1939 1.529 . S
C1938 C1952 1.330 1_545 S
C1939 C1938 1.529 . S
C1939 C1940 1.396 . S
C1939 C1944 1.363 1_545 S
C1940 H1917 0.950 . S
C1940 C1939 1.396 . S
C1940 C1941 1.334 . S
C1941 H1918 0.950 . S
C1941 C1940 1.334 . S
C1941 C1942 1.287 1_545 S
C1942 C1941 1.287 1_565 S
C1942 C1943 1.524 . S
C1942 H1961 0.913 . S
C1943 H1919 0.950 . S
C1943 C1942 1.524 . S
C1943 C1944 1.415 . S
C1944 H1920 0.950 . S
C1944 C1939 1.363 1_565 S
C1944 C1943 1.415 . S
C1945 H1921 0.951 . S
C1945 C1946 1.366 . S
C1945 C1947 1.388 . S
C1946 C1945 1.366 . S
C1946 C1950 1.385 . S
C1947 H1922 0.951 . S
C1947 C1945 1.388 . S
C1947 C1948 1.366 . S
C1948 C1947 1.366 . S
C1948 C1949 1.414 . S
C1948 C1951 1.499 . S
C1949 H1923 0.950 . S
C1949 C1948 1.414 . S
C1949 C1950 1.374 . S
C1950 H1924 0.950 . S
C1950 C1946 1.385 . S
C1950 C1949 1.374 . S
C1951 C1948 1.499 . S
C1951 C1952 1.373 1_556 S
C1951 C1953 1.428 . S
C1952 H1925 0.950 . S
C1952 C1938 1.330 1_565 S
C1952 C1951 1.373 1_554 S
C1953 C1937 1.330 1_565 S
C1953 C1951 1.428 . S
C1953 C1954 1.529 . S
C1954 C1953 1.529 . S
C1954 C1955 1.396 . S
C1954 C1959 1.363 1_565 S
C1955 H1926 0.950 . S
C1955 C1954 1.396 . S
C1955 C1956 1.334 . S
C1956 H1927 0.950 . S
C1956 C1955 1.334 . S
C1956 C1957 1.287 1_565 S
C1957 C1956 1.287 1_545 S
C1957 C1958 1.524 . S
C1957 H1960 0.999 . S
C1958 H1928 0.950 . S
C1958 C1957 1.524 . S
C1958 C1959 1.415 . S
C1959 H1929 0.950 . S
C1959 C1954 1.363 1_545 S
C1959 C1958 1.415 . S
H1960 C1957 0.999 . S
H1961 C1942 0.913 . S
H1962 C1980 0.951 . S
H1963 C1982 0.951 1_556 S
H1964 C1984 0.950 . S
H1965 C1985 0.950 . S
H1966 C1987 0.950 . S
H1967 C1990 0.950 . S
H1968 C1991 0.950 1_554 S
H1969 C1993 0.950 . S
H1970 C1994 0.950 . S
H1971 C1995 0.951 . S
H1972 C1997 0.951 1_554 S
H1973 C1999 0.950 . S
H1974 C2000 0.950 . S
H1975 C2002 0.950 . S
H1976 C2005 0.950 . S
H1977 C2006 0.950 1_556 S
H1978 C2008 0.950 . S
H1979 C2009 0.950 . S
C1980 H1962 0.951 . S
C1980 C1981 1.366 . S
C1980 C1982 1.388 . S
C1981 C1980 1.366 . S
C1981 C1985 1.385 . S
C1982 H1963 0.951 1_554 S
C1982 C1980 1.388 . S
C1982 C1983 1.366 . S
C1983 C1982 1.366 . S
C1983 C1984 1.414 . S
C1983 C1986 1.499 . S
C1984 H1964 0.950 . S
C1984 C1983 1.414 . S
C1984 C1985 1.374 . S
C1985 H1965 0.950 . S
C1985 C1981 1.385 . S
C1985 C1984 1.374 . S
C1986 C1983 1.499 . S
C1986 C1987 1.373 . S
C1986 C1988 1.389 1_554 S
C1987 H1966 0.950 . S
C1987 C1986 1.373 . S
C1987 C2003 1.377 . S
C1988 C1986 1.389 1_556 S
C1988 C1989 1.524 . S
C1988 C2002 1.377 . S
C1989 C1988 1.524 . S
C1989 C1990 1.397 1_556 S
C1989 C1994 1.363 . S
C1990 H1967 0.950 . S
C1990 C1989 1.397 1_554 S
C1990 C1991 1.334 1_554 S
C1991 H1968 0.950 1_556 S
C1991 C1990 1.334 1_556 S
C1991 C1992 1.287 . S
C1992 C1991 1.287 . S
C1992 C1993 1.524 . S
C1992 H2011 0.913 . S
C1993 H1969 0.950 . S
C1993 C1992 1.524 . S
C1993 C1994 1.415 . S
C1994 H1970 0.950 . S
C1994 C1989 1.363 . S
C1994 C1993 1.415 . S
C1995 H1971 0.951 . S
C1995 C1996 1.366 . S
C1995 C1997 1.388 . S
C1996 C1995 1.366 . S
C1996 C2000 1.385 . S
C1997 H1972 0.951 1_556 S
C1997 C1995 1.388 . S
C1997 C1998 1.366 . S
C1998 C1997 1.366 . S
C1998 C1999 1.414 . S
C1998 C2001 1.499 . S
C1999 H1973 0.950 . S
C1999 C1998 1.414 . S
C1999 C2000 1.374 . S
C2000 H1974 0.950 . S
C2000 C1996 1.385 . S
C2000 C1999 1.374 . S
C2001 C1998 1.499 . S
C2001 C2002 1.373 . S
C2001 C2003 1.389 1_556 S
C2002 H1975 0.950 . S
C2002 C1988 1.377 . S
C2002 C2001 1.373 . S
C2003 C1987 1.377 . S
C2003 C2001 1.389 1_554 S
C2003 C2004 1.524 . S
C2004 C2003 1.524 . S
C2004 C2005 1.397 1_554 S
C2004 C2009 1.363 . S
C2005 H1976 0.950 . S
C2005 C2004 1.397 1_556 S
C2005 C2006 1.334 1_556 S
C2006 H1977 0.950 1_554 S
C2006 C2005 1.334 1_554 S
C2006 C2007 1.287 . S
C2007 C2006 1.287 . S
C2007 C2008 1.524 . S
C2007 H2010 0.999 . S
C2008 H1978 0.950 . S
C2008 C2007 1.524 . S
C2008 C2009 1.415 . S
C2009 H1979 0.950 . S
C2009 C2004 1.363 . S
C2009 C2008 1.415 . S
H2010 C2007 0.999 . S
H2011 C1992 0.913 . S
H2012 C2030 0.951 . S
H2013 C2032 0.951 . S
H2014 C2034 0.950 1_556 S
H2015 C2035 0.950 . S
H2016 C2037 0.950 . S
H2017 C2040 0.950 . S
H2018 C2041 0.950 . S
H2019 C2043 0.919 1_545 S
H2020 C2044 0.950 . S
H2021 C2045 0.951 . S
H2022 C2047 0.951 . S
H2023 C2049 0.950 1_554 S
H2024 C2050 0.950 . S
H2025 C2052 0.950 . S
H2026 C2055 0.950 . S
H2027 C2056 0.950 . S
H2028 C2058 0.919 1_565 S
H2029 C2059 0.950 . S
C2030 H2012 0.951 . S
C2030 C2031 1.366 . S
C2030 C2032 1.388 . S
C2031 C2030 1.366 . S
C2031 C2035 1.385 . S
C2032 H2013 0.951 . S
C2032 C2030 1.388 . S
C2032 C2033 1.366 . S
C2033 C2032 1.366 . S
C2033 C2034 1.414 . S
C2033 C2036 1.499 . S
C2034 H2014 0.950 1_554 S
C2034 C2033 1.414 . S
C2034 C2035 1.374 . S
C2035 H2015 0.950 . S
C2035 C2031 1.385 . S
C2035 C2034 1.374 . S
C2036 C2033 1.499 . S
C2036 C2037 1.373 1_554 S
C2036 C2038 1.389 . S
C2037 H2016 0.950 . S
C2037 C2036 1.373 1_556 S
C2037 C2053 1.377 1_565 S
C2038 C2036 1.389 . S
C2038 C2039 1.524 . S
C2038 C2052 1.377 1_565 S
C2039 C2038 1.524 . S
C2039 C2040 1.397 . S
C2039 C2044 1.363 1_565 S
C2040 H2017 0.950 . S
C2040 C2039 1.397 . S
C2040 C2041 1.334 . S
C2041 H2018 0.950 . S
C2041 C2040 1.334 . S
C2041 C2042 1.287 . S
C2042 C2041 1.287 . S
C2042 C2043 1.548 . S
C2042 H2061 0.913 . S
C2043 H2019 0.919 1_565 S
C2043 C2042 1.548 . S
C2043 C2044 1.429 1_565 S
C2044 H2020 0.950 . S
C2044 C2039 1.363 1_545 S
C2044 C2043 1.429 1_545 S
C2045 H2021 0.951 . S
C2045 C2046 1.366 . S
C2045 C2047 1.388 . S
C2046 C2045 1.366 . S
C2046 C2050 1.385 . S
C2047 H2022 0.951 . S
C2047 C2045 1.388 . S
C2047 C2048 1.366 . S
C2048 C2047 1.366 . S
C2048 C2049 1.414 . S
C2048 C2051 1.499 . S
C2049 H2023 0.950 1_556 S
C2049 C2048 1.414 . S
C2049 C2050 1.374 . S
C2050 H2024 0.950 . S
C2050 C2046 1.385 . S
C2050 C2049 1.374 . S
C2051 C2048 1.499 . S
C2051 C2052 1.373 1_556 S
C2051 C2053 1.389 . S
C2052 H2025 0.950 . S
C2052 C2038 1.377 1_545 S
C2052 C2051 1.373 1_554 S
C2053 C2037 1.377 1_545 S
C2053 C2051 1.389 . S
C2053 C2054 1.524 . S
C2054 C2053 1.524 . S
C2054 C2055 1.397 . S
C2054 C2059 1.363 1_545 S
C2055 H2026 0.950 . S
C2055 C2054 1.397 . S
C2055 C2056 1.334 . S
C2056 H2027 0.950 . S
C2056 C2055 1.334 . S
C2056 C2057 1.287 . S
C2057 C2056 1.287 . S
C2057 C2058 1.547 . S
C2057 H2060 0.999 . S
C2058 H2028 0.919 1_545 S
C2058 C2057 1.547 . S
C2058 C2059 1.428 1_545 S
C2059 H2029 0.950 . S
C2059 C2054 1.363 1_565 S
C2059 C2058 1.428 1_565 S
H2060 C2057 0.999 . S
H2061 C2042 0.913 . S
H2062 C2080 0.951 . S
H2063 C2082 0.951 . S
H2064 C2084 0.950 . S
H2065 C2085 0.950 . S
H2066 C2087 0.950 . S
H2067 C2090 0.950 . S
H2068 C2091 0.950 . S
H2069 C2093 0.950 1_554 S
H2070 C2094 0.950 . S
H2071 C2095 0.951 . S
H2072 C2097 0.951 . S
H2073 C2099 0.950 . S
H2074 C2100 0.950 . S
H2075 C2102 0.950 . S
H2076 C2105 0.950 . S
H2077 C2106 0.950 . S
H2078 C2108 0.950 1_556 S
H2079 C2109 0.950 . S
C2080 H2062 0.951 . S
C2080 C2081 1.366 . S
C2080 C2082 1.388 . S
C2081 C2080 1.366 . S
C2081 C2085 1.385 . S
C2082 H2063 0.951 . S
C2082 C2080 1.388 . S
C2082 C2083 1.366 . S
C2083 C2082 1.366 . S
C2083 C2084 1.414 . S
C2083 C2086 1.499 . S
C2084 H2064 0.950 . S
C2084 C2083 1.414 . S
C2084 C2085 1.374 . S
C2085 H2065 0.950 . S
C2085 C2081 1.385 . S
C2085 C2084 1.374 . S
C2086 C2083 1.499 . S
C2086 C2087 1.373 . S
C2086 C2088 1.389 . S
C2087 H2066 0.950 . S
C2087 C2086 1.373 . S
C2087 C2103 1.377 1_656 S
C2088 C2086 1.389 . S
C2088 C2089 1.524 . S
C2088 C2102 1.377 1_656 S
C2089 C2088 1.524 . S
C2089 C2090 1.397 . S
C2089 C2094 1.363 1_556 S
C2090 H2067 0.950 . S
C2090 C2089 1.397 . S
C2090 C2091 1.334 . S
C2091 H2068 0.950 . S
C2091 C2090 1.334 . S
C2091 C2092 1.287 . S
C2092 C2091 1.287 . S
C2092 C2093 1.524 . S
C2092 H2111 0.913 . S
C2093 H2069 0.950 1_556 S
C2093 C2092 1.524 . S
C2093 C2094 1.415 1_556 S
C2094 H2070 0.950 . S
C2094 C2089 1.363 1_554 S
C2094 C2093 1.415 1_554 S
C2095 H2071 0.951 . S
C2095 C2096 1.366 . S
C2095 C2097 1.388 . S
C2096 C2095 1.366 . S
C2096 C2100 1.385 . S
C2097 H2072 0.951 . S
C2097 C2095 1.388 . S
C2097 C2098 1.366 . S
C2098 C2097 1.366 . S
C2098 C2099 1.414 . S
C2098 C2101 1.499 . S
C2099 H2073 0.950 . S
C2099 C2098 1.414 . S
C2099 C2100 1.374 . S
C2100 H2074 0.950 . S
C2100 C2096 1.385 . S
C2100 C2099 1.374 . S
C2101 C2098 1.499 . S
C2101 C2102 1.373 . S
C2101 C2103 1.389 . S
C2102 H2075 0.950 . S
C2102 C2088 1.377 1_454 S
C2102 C2101 1.373 . S
C2103 C2087 1.377 1_454 S
C2103 C2101 1.389 . S
C2103 C2104 1.524 . S
C2104 C2103 1.524 . S
C2104 C2105 1.397 . S
C2104 C2109 1.363 1_554 S
C2105 H2076 0.950 . S
C2105 C2104 1.397 . S
C2105 C2106 1.334 . S
C2106 H2077 0.950 . S
C2106 C2105 1.334 . S
C2106 C2107 1.287 . S
C2107 C2106 1.287 . S
C2107 C2108 1.524 . S
C2107 H2110 0.999 . S
C2108 H2078 0.950 1_554 S
C2108 C2107 1.524 . S
C2108 C2109 1.415 1_554 S
C2109 H2079 0.950 . S
C2109 C2104 1.363 1_556 S
C2109 C2108 1.415 1_556 S
H2110 C2107 0.999 . S
H2111 C2092 0.913 . S
H2112 C2130 0.951 . S
H2113 C2132 0.951 . S
H2114 C2134 0.950 1_554 S
H2115 C2135 0.950 . S
H2116 C2137 0.950 . S
H2117 C2140 0.950 . S
H2118 C2141 0.950 . S
H2119 C2143 0.950 . S
H2120 C2144 0.950 . S
H2121 C2145 0.951 . S
H2122 C2147 0.951 . S
H2123 C2149 0.950 1_556 S
H2124 C2150 0.950 . S
H2125 C2152 0.950 . S
H2126 C2155 0.950 . S
H2127 C2156 0.950 . S
H2128 C2158 0.950 . S
H2129 C2159 0.950 . S
C2130 H2112 0.951 . S
C2130 C2131 1.366 . S
C2130 C2132 1.388 . S
C2131 C2130 1.366 . S
C2131 C2135 1.385 . S
C2132 H2113 0.951 . S
C2132 C2130 1.388 . S
C2132 C2133 1.366 . S
C2133 C2132 1.366 . S
C2133 C2134 1.414 . S
C2133 C2136 1.499 . S
C2134 H2114 0.950 1_556 S
C2134 C2133 1.414 . S
C2134 C2135 1.374 . S
C2135 H2115 0.950 . S
C2135 C2131 1.385 . S
C2135 C2134 1.374 . S
C2136 C2133 1.499 . S
C2136 C2137 1.373 1_556 S
C2136 C2138 1.389 . S
C2137 H2116 0.950 . S
C2137 C2136 1.373 1_554 S
C2137 C2153 1.377 . S
C2138 C2136 1.389 . S
C2138 C2139 1.524 . S
C2138 C2152 1.377 . S
C2139 C2138 1.524 . S
C2139 C2140 1.397 . S
C2139 C2144 1.363 . S
C2140 H2117 0.950 . S
C2140 C2139 1.397 . S
C2140 C2141 1.334 . S
C2141 H2118 0.950 . S
C2141 C2140 1.334 . S
C2141 C2142 1.287 . S
C2142 C2141 1.287 . S
C2142 C2143 1.524 . S
C2142 H2161 0.913 . S
C2143 H2119 0.950 . S
C2143 C2142 1.524 . S
C2143 C2144 1.415 . S
C2144 H2120 0.950 . S
C2144 C2139 1.363 . S
C2144 C2143 1.415 . S
C2145 H2121 0.951 . S
C2145 C2146 1.366 . S
C2145 C2147 1.388 . S
C2146 C2145 1.366 . S
C2146 C2150 1.385 . S
C2147 H2122 0.951 . S
C2147 C2145 1.388 . S
C2147 C2148 1.366 . S
C2148 C2147 1.366 . S
C2148 C2149 1.414 . S
C2148 C2151 1.499 . S
C2149 H2123 0.950 1_554 S
C2149 C2148 1.414 . S
C2149 C2150 1.374 . S
C2150 H2124 0.950 . S
C2150 C2146 1.385 . S
C2150 C2149 1.374 . S
C2151 C2148 1.499 . S
C2151 C2152 1.373 1_554 S
C2151 C2153 1.389 . S
C2152 H2125 0.950 . S
C2152 C2138 1.377 . S
C2152 C2151 1.373 1_556 S
C2153 C2137 1.377 . S
C2153 C2151 1.389 . S
C2153 C2154 1.524 . S
C2154 C2153 1.524 . S
C2154 C2155 1.397 . S
C2154 C2159 1.363 . S
C2155 H2126 0.950 . S
C2155 C2154 1.397 . S
C2155 C2156 1.334 . S
C2156 H2127 0.950 . S
C2156 C2155 1.334 . S
C2156 C2157 1.287 . S
C2157 C2156 1.287 . S
C2157 C2158 1.524 . S
C2157 H2160 0.999 . S
C2158 H2128 0.950 . S
C2158 C2157 1.524 . S
C2158 C2159 1.415 . S
C2159 H2129 0.950 . S
C2159 C2154 1.363 . S
C2159 C2158 1.415 . S
H2160 C2157 0.999 . S
H2161 C2142 0.913 . S
H2162 C2180 0.951 . S
H2163 C2182 0.951 . S
H2164 C2184 0.950 1_554 S
H2165 C2185 0.950 . S
H2166 C2187 0.950 . S
H2167 C2190 0.950 . S
H2168 C2191 0.950 . S
H2169 C2193 0.950 . S
H2170 C2194 0.950 . S
H2171 C2195 0.951 . S
H2172 C2197 0.951 . S
H2173 C2199 0.950 1_556 S
H2174 C2200 0.950 . S
H2175 C2202 0.950 . S
H2176 C2205 0.950 . S
H2177 C2206 0.950 . S
H2178 C2208 0.950 . S
H2179 C2209 0.950 . S
C2180 H2162 0.951 . S
C2180 C2181 1.366 . S
C2180 C2182 1.388 . S
C2181 C2180 1.366 . S
C2181 C2185 1.385 . S
C2182 H2163 0.951 . S
C2182 C2180 1.388 . S
C2182 C2183 1.366 . S
C2183 C2182 1.366 . S
C2183 C2184 1.414 . S
C2183 C2186 1.499 . S
C2184 H2164 0.950 1_556 S
C2184 C2183 1.414 . S
C2184 C2185 1.374 . S
C2185 H2165 0.950 . S
C2185 C2181 1.385 . S
C2185 C2184 1.374 . S
C2186 C2183 1.499 . S
C2186 C2187 1.373 1_556 S
C2186 C2188 1.389 . S
C2187 H2166 0.950 . S
C2187 C2186 1.373 1_554 S
C2187 C2203 1.377 1_545 S
C2188 C2186 1.389 . S
C2188 C2189 1.524 . S
C2188 C2202 1.377 1_545 S
C2189 C2188 1.524 . S
C2189 C2190 1.397 . S
C2189 C2194 1.363 1_545 S
C2190 H2167 0.950 . S
C2190 C2189 1.397 . S
C2190 C2191 1.334 . S
C2191 H2168 0.950 . S
C2191 C2190 1.334 . S
C2191 C2192 1.287 . S
C2192 C2191 1.287 . S
C2192 C2193 1.524 1_545 S
C2192 H2211 0.913 . S
C2193 H2169 0.950 . S
C2193 C2192 1.524 1_565 S
C2193 C2194 1.415 . S
C2194 H2170 0.950 . S
C2194 C2189 1.363 1_565 S
C2194 C2193 1.415 . S
C2195 H2171 0.951 . S
C2195 C2196 1.366 . S
C2195 C2197 1.388 . S
C2196 C2195 1.366 . S
C2196 C2200 1.385 . S
C2197 H2172 0.951 . S
C2197 C2195 1.388 . S
C2197 C2198 1.366 . S
C2198 C2197 1.366 . S
C2198 C2199 1.414 . S
C2198 C2201 1.499 . S
C2199 H2173 0.950 1_554 S
C2199 C2198 1.414 . S
C2199 C2200 1.374 . S
C2200 H2174 0.950 . S
C2200 C2196 1.385 . S
C2200 C2199 1.374 . S
C2201 C2198 1.499 . S
C2201 C2202 1.373 1_554 S
C2201 C2203 1.389 . S
C2202 H2175 0.950 . S
C2202 C2188 1.377 1_565 S
C2202 C2201 1.373 1_556 S
C2203 C2187 1.377 1_565 S
C2203 C2201 1.389 . S
C2203 C2204 1.524 . S
C2204 C2203 1.524 . S
C2204 C2205 1.397 . S
C2204 C2209 1.363 1_565 S
C2205 H2176 0.950 . S
C2205 C2204 1.397 . S
C2205 C2206 1.334 . S
C2206 H2177 0.950 . S
C2206 C2205 1.334 . S
C2206 C2207 1.287 . S
C2207 C2206 1.287 . S
C2207 C2208 1.524 1_565 S
C2207 H2210 0.999 . S
C2208 H2178 0.950 . S
C2208 C2207 1.524 1_545 S
C2208 C2209 1.415 . S
C2209 H2179 0.950 . S
C2209 C2204 1.363 1_545 S
C2209 C2208 1.415 . S
H2210 C2207 0.999 . S
H2211 C2192 0.913 . S
H2212 C2230 0.951 . S
H2213 C2232 0.951 . S
H2214 C2234 0.950 . S
H2215 C2235 0.950 . S
H2216 C2237 0.950 . S
H2217 C2240 0.950 . S
H2218 C2241 0.950 . S
H2219 C2243 0.950 . S
H2220 C2244 0.942 1_455 S
H2221 C2245 0.951 . S
H2222 C2247 0.951 . S
H2223 C2249 0.950 . S
H2224 C2250 0.950 . S
H2225 C2252 0.950 . S
H2226 C2255 0.950 . S
H2227 C2256 0.950 . S
H2228 C2258 0.950 . S
H2229 C2259 0.942 1_655 S
C2230 H2212 0.951 . S
C2230 C2231 1.366 . S
C2230 C2232 1.388 . S
C2231 C2230 1.366 . S
C2231 C2235 1.385 . S
C2232 H2213 0.951 . S
C2232 C2230 1.388 . S
C2232 C2233 1.366 . S
C2233 C2232 1.366 . S
C2233 C2234 1.414 . S
C2233 C2236 1.499 . S
C2234 H2214 0.950 . S
C2234 C2233 1.414 . S
C2234 C2235 1.374 . S
C2235 H2215 0.950 . S
C2235 C2231 1.385 . S
C2235 C2234 1.374 . S
C2236 C2233 1.499 . S
C2236 C2237 1.373 . S
C2236 C2238 1.389 . S
C2237 H2216 0.950 . S
C2237 C2236 1.373 . S
C2237 C2253 1.377 1_656 S
C2238 C2236 1.389 . S
C2238 C2239 1.524 1_556 S
C2238 C2252 1.377 1_656 S
C2239 C2238 1.524 1_554 S
C2239 C2240 1.397 . S
C2239 C2244 1.363 1_554 S
C2240 H2217 0.950 . S
C2240 C2239 1.397 . S
C2240 C2241 1.334 . S
C2241 H2218 0.950 . S
C2241 C2240 1.334 . S
C2241 C2242 1.287 . S
C2242 C2241 1.287 . S
C2242 C2243 1.524 1_554 S
C2242 H2261 0.913 . S
C2243 H2219 0.950 . S
C2243 C2242 1.524 1_556 S
C2243 C2244 1.415 . S
C2244 H2220 0.942 1_655 S
C2244 C2239 1.363 1_556 S
C2244 C2243 1.415 . S
C2245 H2221 0.951 . S
C2245 C2246 1.366 . S
C2245 C2247 1.388 . S
C2246 C2245 1.366 . S
C2246 C2250 1.385 . S
C2247 H2222 0.951 . S
C2247 C2245 1.388 . S
C2247 C2248 1.366 . S
C2248 C2247 1.366 . S
C2248 C2249 1.414 . S
C2248 C2251 1.499 . S
C2249 H2223 0.950 . S
C2249 C2248 1.414 . S
C2249 C2250 1.374 . S
C2250 H2224 0.950 . S
C2250 C2246 1.385 . S
C2250 C2249 1.374 . S
C2251 C2248 1.499 . S
C2251 C2252 1.373 . S
C2251 C2253 1.389 . S
C2252 H2225 0.950 . S
C2252 C2238 1.377 1_454 S
C2252 C2251 1.373 . S
C2253 C2237 1.377 1_454 S
C2253 C2251 1.389 . S
C2253 C2254 1.524 1_554 S
C2254 C2253 1.524 1_556 S
C2254 C2255 1.397 . S
C2254 C2259 1.363 1_556 S
C2255 H2226 0.950 . S
C2255 C2254 1.397 . S
C2255 C2256 1.334 . S
C2256 H2227 0.950 . S
C2256 C2255 1.334 . S
C2256 C2257 1.287 . S
C2257 C2256 1.287 . S
C2257 C2258 1.524 1_556 S
C2257 H2260 0.999 . S
C2258 H2228 0.950 . S
C2258 C2257 1.524 1_554 S
C2258 C2259 1.415 . S
C2259 H2229 0.942 1_455 S
C2259 C2254 1.363 1_554 S
C2259 C2258 1.415 . S
H2260 C2257 0.999 . S
H2261 C2242 0.913 . S
H2262 C2280 0.951 . S
H2263 C2282 0.951 . S
H2264 C2284 0.950 . S
H2265 C2285 0.950 . S
H2266 C2287 0.950 . S
H2267 C2290 0.950 . S
H2268 C2291 0.950 . S
H2269 C2293 0.950 . S
H2270 C2294 0.950 . S
H2271 C2295 0.951 . S
H2272 C2297 0.951 . S
H2273 C2299 0.950 . S
H2274 C2300 0.950 . S
H2275 C2302 0.950 . S
H2276 C2305 0.950 . S
H2277 C2306 0.950 . S
H2278 C2308 0.950 . S
H2279 C2309 0.950 . S
C2280 H2262 0.951 . S
C2280 C2281 1.366 . S
C2280 C2282 1.388 . S
C2281 C2280 1.366 . S
C2281 C2285 1.385 . S
C2282 H2263 0.951 . S
C2282 C2280 1.388 . S
C2282 C2283 1.366 . S
C2283 C2282 1.366 . S
C2283 C2284 1.414 . S
C2283 C2286 1.499 . S
C2284 H2264 0.950 . S
C2284 C2283 1.414 . S
C2284 C2285 1.374 . S
C2285 H2265 0.950 . S
C2285 C2281 1.385 . S
C2285 C2284 1.374 . S
C2286 C2283 1.499 . S
C2286 C2287 1.373 . S
C2286 C2288 1.389 . S
C2287 H2266 0.950 . S
C2287 C2286 1.373 . S
C2287 C2303 1.377 . S
C2288 C2286 1.389 . S
C2288 C2289 1.524 . S
C2288 C2302 1.377 . S
C2289 C2288 1.524 . S
C2289 C2290 1.397 . S
C2289 C2294 1.363 . S
C2290 H2267 0.950 . S
C2290 C2289 1.397 . S
C2290 C2291 1.334 . S
C2291 H2268 0.950 . S
C2291 C2290 1.334 . S
C2291 C2292 1.287 . S
C2292 C2291 1.287 . S
C2292 C2293 1.524 . S
C2292 H2311 0.913 . S
C2293 H2269 0.950 . S
C2293 C2292 1.524 . S
C2293 C2294 1.415 . S
C2294 H2270 0.950 . S
C2294 C2289 1.363 . S
C2294 C2293 1.415 . S
C2295 H2271 0.951 . S
C2295 C2296 1.366 . S
C2295 C2297 1.388 . S
C2296 C2295 1.366 . S
C2296 C2300 1.385 . S
C2297 H2272 0.951 . S
C2297 C2295 1.388 . S
C2297 C2298 1.366 . S
C2298 C2297 1.366 . S
C2298 C2299 1.414 . S
C2298 C2301 1.499 . S
C2299 H2273 0.950 . S
C2299 C2298 1.414 . S
C2299 C2300 1.374 . S
C2300 H2274 0.950 . S
C2300 C2296 1.385 . S
C2300 C2299 1.374 . S
C2301 C2298 1.499 . S
C2301 C2302 1.373 . S
C2301 C2303 1.389 . S
C2302 H2275 0.950 . S
C2302 C2288 1.377 . S
C2302 C2301 1.373 . S
C2303 C2287 1.377 . S
C2303 C2301 1.389 . S
C2303 C2304 1.524 . S
C2304 C2303 1.524 . S
C2304 C2305 1.397 . S
C2304 C2309 1.363 . S
C2305 H2276 0.950 . S
C2305 C2304 1.397 . S
C2305 C2306 1.334 . S
C2306 H2277 0.950 . S
C2306 C2305 1.334 . S
C2306 C2307 1.287 . S
C2307 C2306 1.287 . S
C2307 C2308 1.524 . S
C2307 H2310 0.999 . S
C2308 H2278 0.950 . S
C2308 C2307 1.524 . S
C2308 C2309 1.415 . S
C2309 H2279 0.950 . S
C2309 C2304 1.363 . S
C2309 C2308 1.415 . S
H2310 C2307 0.999 . S
H2311 C2292 0.913 . S
H2312 C2330 0.951 . S
H2313 C2332 0.951 . S
H2314 C2334 0.950 . S
H2315 C2335 0.950 . S
H2316 C2337 0.950 . S
H2317 C2340 0.950 . S
H2318 C2341 0.950 . S
H2319 C2343 0.950 . S
H2320 C2344 0.950 . S
H2321 C2345 0.951 . S
H2322 C2347 0.951 . S
H2323 C2349 0.950 . S
H2324 C2350 0.950 . S
H2325 C2352 0.950 . S
H2326 C2355 0.950 . S
H2327 C2356 0.950 . S
H2328 C2358 0.950 . S
H2329 C2359 0.950 . S
C2330 H2312 0.951 . S
C2330 C2331 1.366 . S
C2330 C2332 1.388 . S
C2331 C2330 1.366 . S
C2331 C2335 1.385 . S
C2332 H2313 0.951 . S
C2332 C2330 1.388 . S
C2332 C2333 1.366 . S
C2333 C2332 1.366 . S
C2333 C2334 1.414 . S
C2333 C2336 1.499 . S
C2334 H2314 0.950 . S
C2334 C2333 1.414 . S
C2334 C2335 1.374 . S
C2335 H2315 0.950 . S
C2335 C2331 1.385 . S
C2335 C2334 1.374 . S
C2336 C2333 1.499 . S
C2336 C2337 1.373 . S
C2336 C2338 1.389 . S
C2337 H2316 0.950 . S
C2337 C2336 1.373 . S
C2337 C2353 1.377 . S
C2338 C2336 1.389 . S
C2338 C2339 1.524 . S
C2338 C2352 1.377 . S
C2339 C2338 1.524 . S
C2339 C2340 1.397 . S
C2339 C2344 1.363 . S
C2340 H2317 0.950 . S
C2340 C2339 1.397 . S
C2340 C2341 1.334 . S
C2341 H2318 0.950 . S
C2341 C2340 1.334 . S
C2341 C2342 1.287 . S
C2342 C2341 1.287 . S
C2342 C2343 1.524 . S
C2342 H2361 0.913 . S
C2343 H2319 0.950 . S
C2343 C2342 1.524 . S
C2343 C2344 1.415 . S
C2344 H2320 0.950 . S
C2344 C2339 1.363 . S
C2344 C2343 1.415 . S
C2345 H2321 0.951 . S
C2345 C2346 1.366 . S
C2345 C2347 1.388 . S
C2346 C2345 1.366 . S
C2346 C2350 1.385 . S
C2347 H2322 0.951 . S
C2347 C2345 1.388 . S
C2347 C2348 1.366 . S
C2348 C2347 1.366 . S
C2348 C2349 1.414 . S
C2348 C2351 1.499 . S
C2349 H2323 0.950 . S
C2349 C2348 1.414 . S
C2349 C2350 1.374 . S
C2350 H2324 0.950 . S
C2350 C2346 1.385 . S
C2350 C2349 1.374 . S
C2351 C2348 1.499 . S
C2351 C2352 1.373 . S
C2351 C2353 1.389 . S
C2352 H2325 0.950 . S
C2352 C2338 1.377 . S
C2352 C2351 1.373 . S
C2353 C2337 1.377 . S
C2353 C2351 1.389 . S
C2353 C2354 1.524 . S
C2354 C2353 1.524 . S
C2354 C2355 1.397 . S
C2354 C2359 1.363 . S
C2355 H2326 0.950 . S
C2355 C2354 1.397 . S
C2355 C2356 1.334 . S
C2356 H2327 0.950 . S
C2356 C2355 1.334 . S
C2356 C2357 1.287 . S
C2357 C2356 1.287 . S
C2357 C2358 1.524 . S
C2357 H2360 0.999 . S
C2358 H2328 0.950 . S
C2358 C2357 1.524 . S
C2358 C2359 1.415 . S
C2359 H2329 0.950 . S
C2359 C2354 1.363 . S
C2359 C2358 1.415 . S
H2360 C2357 0.999 . S
H2361 C2342 0.913 . S
H2362 C2380 0.951 . S
H2363 C2382 0.951 . S
H2364 C2384 0.950 . S
H2365 C2385 0.950 . S
H2366 C2387 0.950 . S
H2367 C2390 0.950 . S
H2368 C2391 0.950 . S
H2369 C2393 0.950 . S
H2370 C2394 0.950 . S
H2371 C2395 0.951 . S
H2372 C2397 0.951 . S
H2373 C2399 0.950 . S
H2374 C2400 0.950 . S
H2375 C2402 0.950 . S
H2376 C2405 0.950 . S
H2377 C2406 0.950 . S
H2378 C2408 0.950 . S
H2379 C2409 0.950 . S
C2380 H2362 0.951 . S
C2380 C2381 1.366 . S
C2380 C2382 1.388 . S
C2381 C2380 1.366 . S
C2381 C2385 1.385 . S
C2382 H2363 0.951 . S
C2382 C2380 1.388 . S
C2382 C2383 1.366 . S
C2383 C2382 1.366 . S
C2383 C2384 1.414 . S
C2383 C2386 1.499 . S
C2384 H2364 0.950 . S
C2384 C2383 1.414 . S
C2384 C2385 1.374 . S
C2385 H2365 0.950 . S
C2385 C2381 1.385 . S
C2385 C2384 1.374 . S
C2386 C2383 1.499 . S
C2386 C2387 1.373 . S
C2386 C2388 1.389 . S
C2387 H2366 0.950 . S
C2387 C2386 1.373 . S
C2387 C2403 1.377 . S
C2388 C2386 1.389 . S
C2388 C2389 1.524 . S
C2388 C2402 1.377 . S
C2389 C2388 1.524 . S
C2389 C2390 1.397 . S
C2389 C2394 1.363 . S
C2390 H2367 0.950 . S
C2390 C2389 1.397 . S
C2390 C2391 1.334 . S
C2391 H2368 0.950 . S
C2391 C2390 1.334 . S
C2391 C2392 1.287 . S
C2392 C2391 1.287 . S
C2392 C2393 1.524 . S
C2392 H2411 0.913 . S
C2393 H2369 0.950 . S
C2393 C2392 1.524 . S
C2393 C2394 1.415 . S
C2394 H2370 0.950 . S
C2394 C2389 1.363 . S
C2394 C2393 1.415 . S
C2395 H2371 0.951 . S
C2395 C2396 1.366 . S
C2395 C2397 1.388 . S
C2396 C2395 1.366 . S
C2396 C2400 1.385 . S
C2397 H2372 0.951 . S
C2397 C2395 1.388 . S
C2397 C2398 1.366 . S
C2398 C2397 1.366 . S
C2398 C2399 1.414 . S
C2398 C2401 1.499 . S
C2399 H2373 0.950 . S
C2399 C2398 1.414 . S
C2399 C2400 1.374 . S
C2400 H2374 0.950 . S
C2400 C2396 1.385 . S
C2400 C2399 1.374 . S
C2401 C2398 1.499 . S
C2401 C2402 1.373 . S
C2401 C2403 1.389 . S
C2402 H2375 0.950 . S
C2402 C2388 1.377 . S
C2402 C2401 1.373 . S
C2403 C2387 1.377 . S
C2403 C2401 1.389 . S
C2403 C2404 1.524 . S
C2404 C2403 1.524 . S
C2404 C2405 1.397 . S
C2404 C2409 1.363 . S
C2405 H2376 0.950 . S
C2405 C2404 1.397 . S
C2405 C2406 1.334 . S
C2406 H2377 0.950 . S
C2406 C2405 1.334 . S
C2406 C2407 1.287 . S
C2407 C2406 1.287 . S
C2407 C2408 1.524 . S
C2407 H2410 0.999 . S
C2408 H2378 0.950 . S
C2408 C2407 1.524 . S
C2408 C2409 1.415 . S
C2409 H2379 0.950 . S
C2409 C2404 1.363 . S
C2409 C2408 1.415 . S
H2410 C2407 0.999 . S
H2411 C2392 0.913 . S
H2412 C2430 0.951 . S
H2413 C2432 0.951 . S
H2414 C2434 0.950 . S
H2415 C2435 0.950 . S
H2416 C2437 0.950 . S
H2417 C2440 0.950 . S
H2418 C2441 0.950 . S
H2419 C2443 0.950 . S
H2420 C2444 0.950 . S
H2421 C2445 0.951 . S
H2422 C2447 0.951 . S
H2423 C2449 0.950 . S
H2424 C2450 0.950 . S
H2425 C2452 0.950 . S
H2426 C2455 0.950 . S
H2427 C2456 0.950 . S
H2428 C2458 0.950 . S
H2429 C2459 0.950 . S
C2430 H2412 0.951 . S
C2430 C2431 1.366 . S
C2430 C2432 1.388 . S
C2431 C2430 1.366 . S
C2431 C2435 1.385 . S
C2432 H2413 0.951 . S
C2432 C2430 1.388 . S
C2432 C2433 1.366 . S
C2433 C2432 1.366 . S
C2433 C2434 1.414 . S
C2433 C2436 1.499 . S
C2434 H2414 0.950 . S
C2434 C2433 1.414 . S
C2434 C2435 1.374 . S
C2435 H2415 0.950 . S
C2435 C2431 1.385 . S
C2435 C2434 1.374 . S
C2436 C2433 1.499 . S
C2436 C2437 1.373 . S
C2436 C2438 1.389 . S
C2437 H2416 0.950 . S
C2437 C2436 1.373 . S
C2437 C2453 1.377 . S
C2438 C2436 1.389 . S
C2438 C2439 1.524 . S
C2438 C2452 1.377 . S
C2439 C2438 1.524 . S
C2439 C2440 1.397 . S
C2439 C2444 1.363 . S
C2440 H2417 0.950 . S
C2440 C2439 1.397 . S
C2440 C2441 1.334 . S
C2441 H2418 0.950 . S
C2441 C2440 1.334 . S
C2441 C2442 1.287 . S
C2442 C2441 1.287 . S
C2442 C2443 1.524 . S
C2442 H2461 0.913 . S
C2443 H2419 0.950 . S
C2443 C2442 1.524 . S
C2443 C2444 1.415 . S
C2444 H2420 0.950 . S
C2444 C2439 1.363 . S
C2444 C2443 1.415 . S
C2445 H2421 0.951 . S
C2445 C2446 1.366 . S
C2445 C2447 1.388 . S
C2446 C2445 1.366 . S
C2446 C2450 1.385 . S
C2447 H2422 0.951 . S
C2447 C2445 1.388 . S
C2447 C2448 1.366 . S
C2448 C2447 1.366 . S
C2448 C2449 1.414 . S
C2448 C2451 1.499 . S
C2449 H2423 0.950 . S
C2449 C2448 1.414 . S
C2449 C2450 1.374 . S
C2450 H2424 0.950 . S
C2450 C2446 1.385 . S
C2450 C2449 1.374 . S
C2451 C2448 1.499 . S
C2451 C2452 1.373 . S
C2451 C2453 1.389 . S
C2452 H2425 0.950 . S
C2452 C2438 1.377 . S
C2452 C2451 1.373 . S
C2453 C2437 1.377 . S
C2453 C2451 1.389 . S
C2453 C2454 1.524 . S
C2454 C2453 1.524 . S
C2454 C2455 1.397 . S
C2454 C2459 1.363 . S
C2455 H2426 0.950 . S
C2455 C2454 1.397 . S
C2455 C2456 1.334 . S
C2456 H2427 0.950 . S
C2456 C2455 1.334 . S
C2456 C2457 1.287 . S
C2457 C2456 1.287 . S
C2457 C2458 1.524 . S
C2457 H2460 0.999 . S
C2458 H2428 0.950 . S
C2458 C2457 1.524 . S
C2458 C2459 1.415 . S
C2459 H2429 0.950 . S
C2459 C2454 1.363 . S
C2459 C2458 1.415 . S
H2460 C2457 0.999 . S
H2461 C2442 0.913 . S
H2462 C2480 0.951 . S
H2463 C2482 0.951 . S
H2464 C2484 0.950 . S
H2465 C2485 0.950 . S
H2466 C2487 0.950 . S
H2467 C2490 0.950 . S
H2468 C2491 0.950 . S
H2469 C2493 0.950 . S
H2470 C2494 0.950 . S
H2471 C2495 0.951 . S
H2472 C2497 0.951 . S
H2473 C2499 0.950 . S
H2474 C2500 0.950 . S
H2475 C2502 0.950 . S
H2476 C2505 0.950 . S
H2477 C2506 0.950 . S
H2478 C2508 0.950 . S
H2479 C2509 0.950 . S
C2480 H2462 0.951 . S
C2480 C2481 1.366 . S
C2480 C2482 1.388 . S
C2481 C2480 1.366 . S
C2481 C2485 1.385 . S
C2482 H2463 0.951 . S
C2482 C2480 1.388 . S
C2482 C2483 1.366 . S
C2483 C2482 1.366 . S
C2483 C2484 1.414 . S
C2483 C2486 1.499 . S
C2484 H2464 0.950 . S
C2484 C2483 1.414 . S
C2484 C2485 1.374 . S
C2485 H2465 0.950 . S
C2485 C2481 1.385 . S
C2485 C2484 1.374 . S
C2486 C2483 1.499 . S
C2486 C2487 1.373 . S
C2486 C2488 1.389 . S
C2487 H2466 0.950 . S
C2487 C2486 1.373 . S
C2487 C2503 1.377 . S
C2488 C2486 1.389 . S
C2488 C2489 1.524 . S
C2488 C2502 1.377 . S
C2489 C2488 1.524 . S
C2489 C2490 1.397 . S
C2489 C2494 1.363 . S
C2490 H2467 0.950 . S
C2490 C2489 1.397 . S
C2490 C2491 1.334 . S
C2491 H2468 0.950 . S
C2491 C2490 1.334 . S
C2491 C2492 1.287 . S
C2492 C2491 1.287 . S
C2492 C2493 1.524 . S
C2492 H2511 0.913 . S
C2493 H2469 0.950 . S
C2493 C2492 1.524 . S
C2493 C2494 1.415 . S
C2494 H2470 0.950 . S
C2494 C2489 1.363 . S
C2494 C2493 1.415 . S
C2495 H2471 0.951 . S
C2495 C2496 1.366 . S
C2495 C2497 1.388 . S
C2496 C2495 1.366 . S
C2496 C2500 1.385 . S
C2497 H2472 0.951 . S
C2497 C2495 1.388 . S
C2497 C2498 1.366 . S
C2498 C2497 1.366 . S
C2498 C2499 1.414 . S
C2498 C2501 1.499 . S
C2499 H2473 0.950 . S
C2499 C2498 1.414 . S
C2499 C2500 1.374 . S
C2500 H2474 0.950 . S
C2500 C2496 1.385 . S
C2500 C2499 1.374 . S
C2501 C2498 1.499 . S
C2501 C2502 1.373 . S
C2501 C2503 1.389 . S
C2502 H2475 0.950 . S
C2502 C2488 1.377 . S
C2502 C2501 1.373 . S
C2503 C2487 1.377 . S
C2503 C2501 1.389 . S
C2503 C2504 1.524 . S
C2504 C2503 1.524 . S
C2504 C2505 1.397 . S
C2504 C2509 1.363 . S
C2505 H2476 0.950 . S
C2505 C2504 1.397 . S
C2505 C2506 1.334 . S
C2506 H2477 0.950 . S
C2506 C2505 1.334 . S
C2506 C2507 1.287 . S
C2507 C2506 1.287 . S
C2507 C2508 1.524 . S
C2507 H2510 0.999 . S
C2508 H2478 0.950 . S
C2508 C2507 1.524 . S
C2508 C2509 1.415 . S
C2509 H2479 0.950 . S
C2509 C2504 1.363 . S
C2509 C2508 1.415 . S
H2510 C2507 0.999 . S
H2511 C2492 0.913 . S
H2512 C2530 0.951 . S
H2513 C2532 0.951 . S
H2514 C2534 0.950 . S
H2515 C2535 0.950 . S
H2516 C2537 0.950 . S
H2517 C2540 0.950 . S
H2518 C2541 0.950 . S
H2519 C2543 0.950 . S
H2520 C2544 0.950 . S
H2521 C2545 0.951 . S
H2522 C2547 0.951 . S
H2523 C2549 0.950 . S
H2524 C2550 0.950 . S
H2525 C2552 0.950 . S
H2526 C2555 0.950 . S
H2527 C2556 0.950 . S
H2528 C2558 0.950 . S
H2529 C2559 0.950 . S
C2530 H2512 0.951 . S
C2530 C2531 1.366 . S
C2530 C2532 1.388 . S
C2531 C2530 1.366 . S
C2531 C2535 1.385 . S
C2532 H2513 0.951 . S
C2532 C2530 1.388 . S
C2532 C2533 1.366 . S
C2533 C2532 1.366 . S
C2533 C2534 1.414 . S
C2533 C2536 1.499 . S
C2534 H2514 0.950 . S
C2534 C2533 1.414 . S
C2534 C2535 1.374 . S
C2535 H2515 0.950 . S
C2535 C2531 1.385 . S
C2535 C2534 1.374 . S
C2536 C2533 1.499 . S
C2536 C2537 1.373 . S
C2536 C2538 1.389 . S
C2537 H2516 0.950 . S
C2537 C2536 1.373 . S
C2537 C2553 1.377 . S
C2538 C2536 1.389 . S
C2538 C2539 1.524 . S
C2538 C2552 1.377 . S
C2539 C2538 1.524 . S
C2539 C2540 1.397 . S
C2539 C2544 1.363 . S
C2540 H2517 0.950 . S
C2540 C2539 1.397 . S
C2540 C2541 1.334 . S
C2541 H2518 0.950 . S
C2541 C2540 1.334 . S
C2541 C2542 1.287 . S
C2542 C2541 1.287 . S
C2542 C2543 1.524 . S
C2542 H2561 0.913 . S
C2543 H2519 0.950 . S
C2543 C2542 1.524 . S
C2543 C2544 1.415 . S
C2544 H2520 0.950 . S
C2544 C2539 1.363 . S
C2544 C2543 1.415 . S
C2545 H2521 0.951 . S
C2545 C2546 1.366 . S
C2545 C2547 1.388 . S
C2546 C2545 1.366 . S
C2546 C2550 1.385 . S
C2547 H2522 0.951 . S
C2547 C2545 1.388 . S
C2547 C2548 1.366 . S
C2548 C2547 1.366 . S
C2548 C2549 1.414 . S
C2548 C2551 1.499 . S
C2549 H2523 0.950 . S
C2549 C2548 1.414 . S
C2549 C2550 1.374 . S
C2550 H2524 0.950 . S
C2550 C2546 1.385 . S
C2550 C2549 1.374 . S
C2551 C2548 1.499 . S
C2551 C2552 1.373 . S
C2551 C2553 1.389 . S
C2552 H2525 0.950 . S
C2552 C2538 1.377 . S
C2552 C2551 1.373 . S
C2553 C2537 1.377 . S
C2553 C2551 1.389 . S
C2553 C2554 1.524 . S
C2554 C2553 1.524 . S
C2554 C2555 1.397 . S
C2554 C2559 1.363 . S
C2555 H2526 0.950 . S
C2555 C2554 1.397 . S
C2555 C2556 1.334 . S
C2556 H2527 0.950 . S
C2556 C2555 1.334 . S
C2556 C2557 1.287 . S
C2557 C2556 1.287 . S
C2557 C2558 1.524 . S
C2557 H2560 0.999 . S
C2558 H2528 0.950 . S
C2558 C2557 1.524 . S
C2558 C2559 1.415 . S
C2559 H2529 0.950 . S
C2559 C2554 1.363 . S
C2559 C2558 1.415 . S
H2560 C2557 0.999 . S
H2561 C2542 0.913 . S
H2562 C2580 0.951 . S
H2563 C2582 0.951 . S
H2564 C2584 0.950 . S
H2565 C2585 0.950 . S
H2566 C2587 0.950 . S
H2567 C2590 0.950 . S
H2568 C2591 0.950 . S
H2569 C2593 0.950 . S
H2570 C2594 0.950 . S
H2571 C2595 0.951 . S
H2572 C2597 0.951 . S
H2573 C2599 0.950 . S
H2574 C2600 0.950 . S
H2575 C2602 0.950 . S
H2576 C2605 0.950 . S
H2577 C2606 0.950 . S
H2578 C2608 0.950 . S
H2579 C2609 0.950 . S
C2580 H2562 0.951 . S
C2580 C2581 1.366 . S
C2580 C2582 1.388 . S
C2581 C2580 1.366 . S
C2581 C2585 1.385 . S
C2582 H2563 0.951 . S
C2582 C2580 1.388 . S
C2582 C2583 1.366 . S
C2583 C2582 1.366 . S
C2583 C2584 1.414 . S
C2583 C2586 1.499 . S
C2584 H2564 0.950 . S
C2584 C2583 1.414 . S
C2584 C2585 1.374 . S
C2585 H2565 0.950 . S
C2585 C2581 1.385 . S
C2585 C2584 1.374 . S
C2586 C2583 1.499 . S
C2586 C2587 1.373 . S
C2586 C2588 1.389 . S
C2587 H2566 0.950 . S
C2587 C2586 1.373 . S
C2587 C2603 1.377 . S
C2588 C2586 1.389 . S
C2588 C2589 1.524 . S
C2588 C2602 1.377 . S
C2589 C2588 1.524 . S
C2589 C2590 1.397 . S
C2589 C2594 1.363 . S
C2590 H2567 0.950 . S
C2590 C2589 1.397 . S
C2590 C2591 1.334 . S
C2591 H2568 0.950 . S
C2591 C2590 1.334 . S
C2591 C2592 1.287 . S
C2592 C2591 1.287 . S
C2592 C2593 1.524 . S
C2592 H2611 0.913 . S
C2593 H2569 0.950 . S
C2593 C2592 1.524 . S
C2593 C2594 1.415 . S
C2594 H2570 0.950 . S
C2594 C2589 1.363 . S
C2594 C2593 1.415 . S
C2595 H2571 0.951 . S
C2595 C2596 1.366 . S
C2595 C2597 1.388 . S
C2596 C2595 1.366 . S
C2596 C2600 1.385 . S
C2597 H2572 0.951 . S
C2597 C2595 1.388 . S
C2597 C2598 1.366 . S
C2598 C2597 1.366 . S
C2598 C2599 1.414 . S
C2598 C2601 1.499 . S
C2599 H2573 0.950 . S
C2599 C2598 1.414 . S
C2599 C2600 1.374 . S
C2600 H2574 0.950 . S
C2600 C2596 1.385 . S
C2600 C2599 1.374 . S
C2601 C2598 1.499 . S
C2601 C2602 1.373 . S
C2601 C2603 1.389 . S
C2602 H2575 0.950 . S
C2602 C2588 1.377 . S
C2602 C2601 1.373 . S
C2603 C2587 1.377 . S
C2603 C2601 1.389 . S
C2603 C2604 1.524 . S
C2604 C2603 1.524 . S
C2604 C2605 1.397 . S
C2604 C2609 1.363 . S
C2605 H2576 0.950 . S
C2605 C2604 1.397 . S
C2605 C2606 1.334 . S
C2606 H2577 0.950 . S
C2606 C2605 1.334 . S
C2606 C2607 1.287 . S
C2607 C2606 1.287 . S
C2607 C2608 1.524 . S
C2607 H2610 0.999 . S
C2608 H2578 0.950 . S
C2608 C2607 1.524 . S
C2608 C2609 1.415 . S
C2609 H2579 0.950 . S
C2609 C2604 1.363 . S
C2609 C2608 1.415 . S
H2610 C2607 0.999 . S
H2611 C2592 0.913 . S
H2612 C2630 0.951 . S
H2613 C2632 0.951 . S
H2614 C2634 0.950 . S
H2615 C2635 0.950 . S
H2616 C2637 0.950 . S
H2617 C2640 0.950 . S
H2618 C2641 0.950 . S
H2619 C2643 0.950 . S
H2620 C2644 0.950 . S
H2621 C2645 0.951 . S
H2622 C2647 0.951 . S
H2623 C2649 0.950 . S
H2624 C2650 0.950 . S
H2625 C2652 0.950 . S
H2626 C2655 0.950 . S
H2627 C2656 0.950 . S
H2628 C2658 0.950 . S
H2629 C2659 0.950 . S
C2630 H2612 0.951 . S
C2630 C2631 1.366 . S
C2630 C2632 1.388 . S
C2631 C2630 1.366 . S
C2631 C2635 1.385 . S
C2632 H2613 0.951 . S
C2632 C2630 1.388 . S
C2632 C2633 1.366 . S
C2633 C2632 1.366 . S
C2633 C2634 1.414 . S
C2633 C2636 1.499 . S
C2634 H2614 0.950 . S
C2634 C2633 1.414 . S
C2634 C2635 1.374 . S
C2635 H2615 0.950 . S
C2635 C2631 1.385 . S
C2635 C2634 1.374 . S
C2636 C2633 1.499 . S
C2636 C2637 1.373 . S
C2636 C2638 1.389 . S
C2637 H2616 0.950 . S
C2637 C2636 1.373 . S
C2637 C2653 1.377 . S
C2638 C2636 1.389 . S
C2638 C2639 1.524 . S
C2638 C2652 1.377 . S
C2639 C2638 1.524 . S
C2639 C2640 1.397 . S
C2639 C2644 1.363 . S
C2640 H2617 0.950 . S
C2640 C2639 1.397 . S
C2640 C2641 1.334 . S
C2641 H2618 0.950 . S
C2641 C2640 1.334 . S
C2641 C2642 1.287 . S
C2642 C2641 1.287 . S
C2642 C2643 1.524 . S
C2642 H2661 0.913 . S
C2643 H2619 0.950 . S
C2643 C2642 1.524 . S
C2643 C2644 1.415 . S
C2644 H2620 0.950 . S
C2644 C2639 1.363 . S
C2644 C2643 1.415 . S
C2645 H2621 0.951 . S
C2645 C2646 1.366 . S
C2645 C2647 1.388 . S
C2646 C2645 1.366 . S
C2646 C2650 1.385 . S
C2647 H2622 0.951 . S
C2647 C2645 1.388 . S
C2647 C2648 1.366 . S
C2648 C2647 1.366 . S
C2648 C2649 1.414 . S
C2648 C2651 1.499 . S
C2649 H2623 0.950 . S
C2649 C2648 1.414 . S
C2649 C2650 1.374 . S
C2650 H2624 0.950 . S
C2650 C2646 1.385 . S
C2650 C2649 1.374 . S
C2651 C2648 1.499 . S
C2651 C2652 1.373 . S
C2651 C2653 1.389 . S
C2652 H2625 0.950 . S
C2652 C2638 1.377 . S
C2652 C2651 1.373 . S
C2653 C2637 1.377 . S
C2653 C2651 1.389 . S
C2653 C2654 1.524 . S
C2654 C2653 1.524 . S
C2654 C2655 1.397 . S
C2654 C2659 1.363 . S
C2655 H2626 0.950 . S
C2655 C2654 1.397 . S
C2655 C2656 1.334 . S
C2656 H2627 0.950 . S
C2656 C2655 1.334 . S
C2656 C2657 1.287 . S
C2657 C2656 1.287 . S
C2657 C2658 1.524 . S
C2657 H2660 0.999 . S
C2658 H2628 0.950 . S
C2658 C2657 1.524 . S
C2658 C2659 1.415 . S
C2659 H2629 0.950 . S
C2659 C2654 1.363 . S
C2659 C2658 1.415 . S
H2660 C2657 0.999 . S
H2661 C2642 0.913 . S
H2662 C2680 0.951 . S
H2663 C2682 0.951 . S
H2664 C2684 0.950 . S
H2665 C2685 0.950 . S
H2666 C2687 0.950 . S
H2667 C2690 0.950 . S
H2668 C2691 0.950 . S
H2669 C2693 0.950 . S
H2670 C2694 0.950 . S
H2671 C2695 0.951 . S
H2672 C2697 0.951 . S
H2673 C2699 0.950 . S
H2674 C2700 0.950 . S
H2675 C2702 0.950 . S
H2676 C2705 0.950 . S
H2677 C2706 0.950 . S
H2678 C2708 0.950 . S
H2679 C2709 0.950 . S
C2680 H2662 0.951 . S
C2680 C2681 1.366 . S
C2680 C2682 1.388 . S
C2681 C2680 1.366 . S
C2681 C2685 1.385 . S
C2682 H2663 0.951 . S
C2682 C2680 1.388 . S
C2682 C2683 1.366 . S
C2683 C2682 1.366 . S
C2683 C2684 1.414 . S
C2683 C2686 1.499 . S
C2684 H2664 0.950 . S
C2684 C2683 1.414 . S
C2684 C2685 1.374 . S
C2685 H2665 0.950 . S
C2685 C2681 1.385 . S
C2685 C2684 1.374 . S
C2686 C2683 1.499 . S
C2686 C2687 1.373 . S
C2686 C2688 1.389 . S
C2687 H2666 0.950 . S
C2687 C2686 1.373 . S
C2687 C2703 1.377 . S
C2688 C2686 1.389 . S
C2688 C2689 1.524 . S
C2688 C2702 1.377 . S
C2689 C2688 1.524 . S
C2689 C2690 1.397 . S
C2689 C2694 1.363 . S
C2690 H2667 0.950 . S
C2690 C2689 1.397 . S
C2690 C2691 1.334 . S
C2691 H2668 0.950 . S
C2691 C2690 1.334 . S
C2691 C2692 1.287 . S
C2692 C2691 1.287 . S
C2692 C2693 1.524 . S
C2692 H2711 0.913 . S
C2693 H2669 0.950 . S
C2693 C2692 1.524 . S
C2693 C2694 1.415 . S
C2694 H2670 0.950 . S
C2694 C2689 1.363 . S
C2694 C2693 1.415 . S
C2695 H2671 0.951 . S
C2695 C2696 1.366 . S
C2695 C2697 1.388 . S
C2696 C2695 1.366 . S
C2696 C2700 1.385 . S
C2697 H2672 0.951 . S
C2697 C2695 1.388 . S
C2697 C2698 1.366 . S
C2698 C2697 1.366 . S
C2698 C2699 1.414 . S
C2698 C2701 1.499 . S
C2699 H2673 0.950 . S
C2699 C2698 1.414 . S
C2699 C2700 1.374 . S
C2700 H2674 0.950 . S
C2700 C2696 1.385 . S
C2700 C2699 1.374 . S
C2701 C2698 1.499 . S
C2701 C2702 1.373 . S
C2701 C2703 1.389 . S
C2702 H2675 0.950 . S
C2702 C2688 1.377 . S
C2702 C2701 1.373 . S
C2703 C2687 1.377 . S
C2703 C2701 1.389 . S
C2703 C2704 1.524 . S
C2704 C2703 1.524 . S
C2704 C2705 1.397 . S
C2704 C2709 1.363 . S
C2705 H2676 0.950 . S
C2705 C2704 1.397 . S
C2705 C2706 1.334 . S
C2706 H2677 0.950 . S
C2706 C2705 1.334 . S
C2706 C2707 1.287 . S
C2707 C2706 1.287 . S
C2707 C2708 1.524 . S
C2707 H2710 0.999 . S
C2708 H2678 0.950 . S
C2708 C2707 1.524 . S
C2708 C2709 1.415 . S
C2709 H2679 0.950 . S
C2709 C2704 1.363 . S
C2709 C2708 1.415 . S
H2710 C2707 0.999 . S
H2711 C2692 0.913 . S
H2712 C2730 0.951 . S
H2713 C2732 0.951 . S
H2714 C2734 0.950 . S
H2715 C2735 0.950 . S
H2716 C2737 0.950 . S
H2717 C2740 0.950 . S
H2718 C2741 0.950 . S
H2719 C2743 0.950 . S
H2720 C2744 0.950 . S
H2721 C2745 0.951 . S
H2722 C2747 0.951 . S
H2723 C2749 0.950 . S
H2724 C2750 0.950 . S
H2725 C2752 0.950 . S
H2726 C2755 0.950 . S
H2727 C2756 0.950 . S
H2728 C2758 0.950 . S
H2729 C2759 0.950 . S
C2730 H2712 0.951 . S
C2730 C2731 1.366 . S
C2730 C2732 1.388 . S
C2731 C2730 1.366 . S
C2731 C2735 1.385 . S
C2732 H2713 0.951 . S
C2732 C2730 1.388 . S
C2732 C2733 1.366 . S
C2733 C2732 1.366 . S
C2733 C2734 1.414 . S
C2733 C2736 1.499 . S
C2734 H2714 0.950 . S
C2734 C2733 1.414 . S
C2734 C2735 1.374 . S
C2735 H2715 0.950 . S
C2735 C2731 1.385 . S
C2735 C2734 1.374 . S
C2736 C2733 1.499 . S
C2736 C2737 1.373 . S
C2736 C2738 1.389 . S
C2737 H2716 0.950 . S
C2737 C2736 1.373 . S
C2737 C2753 1.377 . S
C2738 C2736 1.389 . S
C2738 C2739 1.524 . S
C2738 C2752 1.377 . S
C2739 C2738 1.524 . S
C2739 C2740 1.397 . S
C2739 C2744 1.363 . S
C2740 H2717 0.950 . S
C2740 C2739 1.397 . S
C2740 C2741 1.334 . S
C2741 H2718 0.950 . S
C2741 C2740 1.334 . S
C2741 C2742 1.287 . S
C2742 C2741 1.287 . S
C2742 C2743 1.524 . S
C2742 H2761 0.913 . S
C2743 H2719 0.950 . S
C2743 C2742 1.524 . S
C2743 C2744 1.415 . S
C2744 H2720 0.950 . S
C2744 C2739 1.363 . S
C2744 C2743 1.415 . S
C2745 H2721 0.951 . S
C2745 C2746 1.366 . S
C2745 C2747 1.388 . S
C2746 C2745 1.366 . S
C2746 C2750 1.385 . S
C2747 H2722 0.951 . S
C2747 C2745 1.388 . S
C2747 C2748 1.366 . S
C2748 C2747 1.366 . S
C2748 C2749 1.414 . S
C2748 C2751 1.499 . S
C2749 H2723 0.950 . S
C2749 C2748 1.414 . S
C2749 C2750 1.374 . S
C2750 H2724 0.950 . S
C2750 C2746 1.385 . S
C2750 C2749 1.374 . S
C2751 C2748 1.499 . S
C2751 C2752 1.373 . S
C2751 C2753 1.389 . S
C2752 H2725 0.950 . S
C2752 C2738 1.377 . S
C2752 C2751 1.373 . S
C2753 C2737 1.377 . S
C2753 C2751 1.389 . S
C2753 C2754 1.524 . S
C2754 C2753 1.524 . S
C2754 C2755 1.397 . S
C2754 C2759 1.363 . S
C2755 H2726 0.950 . S
C2755 C2754 1.397 . S
C2755 C2756 1.334 . S
C2756 H2727 0.950 . S
C2756 C2755 1.334 . S
C2756 C2757 1.287 . S
C2757 C2756 1.287 . S
C2757 C2758 1.524 . S
C2757 H2760 0.999 . S
C2758 H2728 0.950 . S
C2758 C2757 1.524 . S
C2758 C2759 1.415 . S
C2759 H2729 0.950 . S
C2759 C2754 1.363 . S
C2759 C2758 1.415 . S
H2760 C2757 0.999 . S
H2761 C2742 0.913 . S
H2762 C2780 0.951 . S
H2763 C2782 0.951 . S
H2764 C2784 0.950 . S
H2765 C2785 0.950 . S
H2766 C2787 0.950 . S
H2767 C2790 0.950 . S
H2768 C2791 0.950 . S
H2769 C2793 0.950 . S
H2770 C2794 0.950 . S
H2771 C2795 0.951 . S
H2772 C2797 0.951 . S
H2773 C2799 0.950 . S
H2774 C2800 0.950 . S
H2775 C2802 0.950 . S
H2776 C2805 0.950 . S
H2777 C2806 0.950 . S
H2778 C2808 0.950 . S
H2779 C2809 0.950 . S
C2780 H2762 0.951 . S
C2780 C2781 1.366 . S
C2780 C2782 1.388 . S
C2781 C2780 1.366 . S
C2781 C2785 1.385 . S
C2782 H2763 0.951 . S
C2782 C2780 1.388 . S
C2782 C2783 1.366 . S
C2783 C2782 1.366 . S
C2783 C2784 1.414 . S
C2783 C2786 1.499 . S
C2784 H2764 0.950 . S
C2784 C2783 1.414 . S
C2784 C2785 1.374 . S
C2785 H2765 0.950 . S
C2785 C2781 1.385 . S
C2785 C2784 1.374 . S
C2786 C2783 1.499 . S
C2786 C2787 1.373 . S
C2786 C2788 1.389 . S
C2787 H2766 0.950 . S
C2787 C2786 1.373 . S
C2787 C2803 1.377 . S
C2788 C2786 1.389 . S
C2788 C2789 1.524 . S
C2788 C2802 1.377 . S
C2789 C2788 1.524 . S
C2789 C2790 1.397 . S
C2789 C2794 1.363 . S
C2790 H2767 0.950 . S
C2790 C2789 1.397 . S
C2790 C2791 1.334 . S
C2791 H2768 0.950 . S
C2791 C2790 1.334 . S
C2791 C2792 1.287 . S
C2792 C2791 1.287 . S
C2792 C2793 1.524 . S
C2792 H2811 0.913 . S
C2793 H2769 0.950 . S
C2793 C2792 1.524 . S
C2793 C2794 1.415 . S
C2794 H2770 0.950 . S
C2794 C2789 1.363 . S
C2794 C2793 1.415 . S
C2795 H2771 0.951 . S
C2795 C2796 1.366 . S
C2795 C2797 1.388 . S
C2796 C2795 1.366 . S
C2796 C2800 1.385 . S
C2797 H2772 0.951 . S
C2797 C2795 1.388 . S
C2797 C2798 1.366 . S
C2798 C2797 1.366 . S
C2798 C2799 1.414 . S
C2798 C2801 1.499 . S
C2799 H2773 0.950 . S
C2799 C2798 1.414 . S
C2799 C2800 1.374 . S
C2800 H2774 0.950 . S
C2800 C2796 1.385 . S
C2800 C2799 1.374 . S
C2801 C2798 1.499 . S
C2801 C2802 1.373 . S
C2801 C2803 1.389 . S
C2802 H2775 0.950 . S
C2802 C2788 1.377 . S
C2802 C2801 1.373 . S
C2803 C2787 1.377 . S
C2803 C2801 1.389 . S
C2803 C2804 1.524 . S
C2804 C2803 1.524 . S
C2804 C2805 1.397 . S
C2804 C2809 1.363 . S
C2805 H2776 0.950 . S
C2805 C2804 1.397 . S
C2805 C2806 1.334 . S
C2806 H2777 0.950 . S
C2806 C2805 1.334 . S
C2806 C2807 1.287 . S
C2807 C2806 1.287 . S
C2807 C2808 1.524 . S
C2807 H2810 0.999 . S
C2808 H2778 0.950 . S
C2808 C2807 1.524 . S
C2808 C2809 1.415 . S
C2809 H2779 0.950 . S
C2809 C2804 1.363 . S
C2809 C2808 1.415 . S
H2810 C2807 0.999 . S
H2811 C2792 0.913 . S
H2812 C2830 0.951 . S
H2813 C2832 0.951 . S
H2814 C2834 0.950 . S
H2815 C2835 0.950 . S
H2816 C2837 0.950 . S
H2817 C2840 0.950 . S
H2818 C2841 0.950 . S
H2819 C2843 0.950 . S
H2820 C2844 0.950 . S
H2821 C2845 0.951 . S
H2822 C2847 0.951 . S
H2823 C2849 0.950 . S
H2824 C2850 0.950 . S
H2825 C2852 0.950 . S
H2826 C2855 0.950 . S
H2827 C2856 0.950 . S
H2828 C2858 0.950 . S
H2829 C2859 0.950 . S
C2830 H2812 0.951 . S
C2830 C2831 1.366 . S
C2830 C2832 1.388 . S
C2831 C2830 1.366 . S
C2831 C2835 1.385 . S
C2832 H2813 0.951 . S
C2832 C2830 1.388 . S
C2832 C2833 1.366 . S
C2833 C2832 1.366 . S
C2833 C2834 1.414 . S
C2833 C2836 1.499 . S
C2834 H2814 0.950 . S
C2834 C2833 1.414 . S
C2834 C2835 1.374 . S
C2835 H2815 0.950 . S
C2835 C2831 1.385 . S
C2835 C2834 1.374 . S
C2836 C2833 1.499 . S
C2836 C2837 1.373 . S
C2836 C2838 1.389 . S
C2837 H2816 0.950 . S
C2837 C2836 1.373 . S
C2837 C2853 1.377 . S
C2838 C2836 1.389 . S
C2838 C2839 1.524 . S
C2838 C2852 1.377 . S
C2839 C2838 1.524 . S
C2839 C2840 1.397 . S
C2839 C2844 1.363 . S
C2840 H2817 0.950 . S
C2840 C2839 1.397 . S
C2840 C2841 1.334 . S
C2841 H2818 0.950 . S
C2841 C2840 1.334 . S
C2841 C2842 1.287 . S
C2842 C2841 1.287 . S
C2842 C2843 1.524 . S
C2842 H2861 0.913 . S
C2843 H2819 0.950 . S
C2843 C2842 1.524 . S
C2843 C2844 1.415 . S
C2844 H2820 0.950 . S
C2844 C2839 1.363 . S
C2844 C2843 1.415 . S
C2845 H2821 0.951 . S
C2845 C2846 1.366 . S
C2845 C2847 1.388 . S
C2846 C2845 1.366 . S
C2846 C2850 1.385 . S
C2847 H2822 0.951 . S
C2847 C2845 1.388 . S
C2847 C2848 1.366 . S
C2848 C2847 1.366 . S
C2848 C2849 1.414 . S
C2848 C2851 1.499 . S
C2849 H2823 0.950 . S
C2849 C2848 1.414 . S
C2849 C2850 1.374 . S
C2850 H2824 0.950 . S
C2850 C2846 1.385 . S
C2850 C2849 1.374 . S
C2851 C2848 1.499 . S
C2851 C2852 1.373 . S
C2851 C2853 1.389 . S
C2852 H2825 0.950 . S
C2852 C2838 1.377 . S
C2852 C2851 1.373 . S
C2853 C2837 1.377 . S
C2853 C2851 1.389 . S
C2853 C2854 1.524 . S
C2854 C2853 1.524 . S
C2854 C2855 1.397 . S
C2854 C2859 1.363 . S
C2855 H2826 0.950 . S
C2855 C2854 1.397 . S
C2855 C2856 1.334 . S
C2856 H2827 0.950 . S
C2856 C2855 1.334 . S
C2856 C2857 1.287 . S
C2857 C2856 1.287 . S
C2857 C2858 1.524 . S
C2857 H2860 0.999 . S
C2858 H2828 0.950 . S
C2858 C2857 1.524 . S
C2858 C2859 1.415 . S
C2859 H2829 0.950 . S
C2859 C2854 1.363 . S
C2859 C2858 1.415 . S
H2860 C2857 0.999 . S
H2861 C2842 0.913 . S
C631 C9 0.796 . S
C646 C5 0.807 . S
C681 C43 0.798 . S
C696 C39 0.808 . S
C731 C73 0.808 . S
C746 C77 0.798 . S
C781 C111 0.797 . S
C796 C107 0.808 . S
C831 C145 0.797 . S
C846 C141 0.807 . S
C881 C175 0.808 . S
C896 C179 0.798 . S
C931 C209 0.807 . S
C946 C213 0.796 . S
C981 C243 0.807 . S
C996 C247 0.796 . S
C1031 C281 0.799 . S
C1046 C277 0.808 . S
C1081 C315 0.796 . S
C1096 C311 0.807 . S
C1131 C349 0.797 . S
C1146 C345 0.807 . S
C1181 C379 0.807 . S
C1196 C383 0.798 . S
C1231 C413 0.807 . S
C1246 C417 0.797 . S
C1281 C447 0.807 . S
C1296 C451 0.796 . S
C1331 C481 0.807 . S
C1346 C485 0.798 . S
C1381 C519 0.798 . S
C1396 C515 0.808 . S
C1431 C553 0.797 . S
C1446 C549 0.807 . S
C1481 C583 0.807 . S
C1496 C587 0.798 . S
C1531 C598 1.846 . S
C1546 C20 1.846 . S
C1581 C54 1.846 . S
C1596 C530 1.846 . S
C1631 C564 1.846 . S
C1646 C88 1.846 . S
C1681 C258 1.846 . S
C1696 C122 1.846 . S
C1731 C156 1.846 . S
C1746 C292 1.846 . S
C1781 C190 1.846 . S
C1796 C224 1.846 . S
C1831 C326 1.846 . S
C1846 C462 1.846 . S
C1881 C496 1.846 . S
C1896 C360 1.846 . S
C1931 C394 1.846 . S
C1946 C428 1.846 . S
C1981 C33 1.155 . S
C1996 C135 1.155 . S
C2031 C67 1.155 . S
C2046 C169 1.155 . S
C2081 C203 1.155 . S
C2096 C101 1.155 . S
C2131 C172 1.730 . S
C2146 C36 1.730 . S
C2181 C104 1.730 . S
C2196 C70 1.730 . S
C2231 C138 1.730 . S
C2246 C2 1.731 . S
C2281 C339 1.155 . S
C2296 C237 1.155 . S
C2331 C373 1.156 . S
C2346 C271 1.155 . S
C2381 C305 1.156 . S
C2396 C407 1.156 . S
C2431 C376 1.730 . S
C2446 C240 1.730 . S
C2481 C274 1.731 . S
C2496 C308 1.731 . S
C2531 C206 1.730 . S
C2546 C342 1.730 . S
C2581 C543 1.156 . S
C2596 C441 1.155 . S
C2631 C577 1.155 . S
C2646 C475 1.155 . S
C2681 C611 1.155 . S
C2696 C509 1.155 . S
C2731 C444 1.730 . S
C2746 C580 1.730 . S
C2781 C478 1.730 . S
C2796 C512 1.731 . S
C2831 C546 1.730 . S
C2846 C410 1.730 . S
