# Generated by pormake.
# Topology fnw, (5)-cn, num edge types: 1
# Building blocks:
#     Node 0, Type 0, BuildingBlock: XOMCOT_clean_sbu_1, # of connection points: 5
#     Node 1, Type 0, BuildingBlock: XOMCOT_clean_sbu_1, # of connection points: 5
#     Node 2, Type 0, BuildingBlock: XOMCOT_clean_sbu_1, # of connection points: 5
#     Node 3, Type 0, BuildingBlock: XOMCOT_clean_sbu_1, # of connection points: 5
#     Node 4, Type 0, BuildingBlock: XOMCOT_clean_sbu_1, # of connection points: 5
#     Node 5, Type 0, BuildingBlock: XOMCOT_clean_sbu_1, # of connection points: 5
#     Node 6, Type 0, BuildingBlock: XOMCOT_clean_sbu_1, # of connection points: 5
#     Node 7, Type 0, BuildingBlock: XOMCOT_clean_sbu_1, # of connection points: 5
#     Node 8, Type 0, BuildingBlock: XOMCOT_clean_sbu_1, # of connection points: 5
#     Node 9, Type 0, BuildingBlock: XOMCOT_clean_sbu_1, # of connection points: 5
#     Node 10, Type 0, BuildingBlock: XOMCOT_clean_sbu_1, # of connection points: 5
#     Node 11, Type 0, BuildingBlock: XOMCOT_clean_sbu_1, # of connection points: 5
#     Edge 12, Type (0, 0), BuildingBlock: EZIPEK_clean_linker_0, # of connection points: 2
#     Edge 13, Type (0, 0), BuildingBlock: EZIPEK_clean_linker_0, # of connection points: 2
#     Edge 14, Type (0, 0), BuildingBlock: EZIPEK_clean_linker_0, # of connection points: 2
#     Edge 15, Type (0, 0), BuildingBlock: EZIPEK_clean_linker_0, # of connection points: 2
#     Edge 16, Type (0, 0), BuildingBlock: EZIPEK_clean_linker_0, # of connection points: 2
#     Edge 17, Type (0, 0), BuildingBlock: EZIPEK_clean_linker_0, # of connection points: 2
#     Edge 18, Type (0, 0), BuildingBlock: EZIPEK_clean_linker_0, # of connection points: 2
#     Edge 19, Type (0, 0), BuildingBlock: EZIPEK_clean_linker_0, # of connection points: 2
#     Edge 20, Type (0, 0), BuildingBlock: EZIPEK_clean_linker_0, # of connection points: 2
#     Edge 21, Type (0, 0), BuildingBlock: EZIPEK_clean_linker_0, # of connection points: 2
#     Edge 22, Type (0, 0), BuildingBlock: EZIPEK_clean_linker_0, # of connection points: 2
#     Edge 23, Type (0, 0), BuildingBlock: EZIPEK_clean_linker_0, # of connection points: 2
#     Edge 24, Type (0, 0), BuildingBlock: EZIPEK_clean_linker_0, # of connection points: 2
#     Edge 25, Type (0, 0), BuildingBlock: EZIPEK_clean_linker_0, # of connection points: 2
#     Edge 26, Type (0, 0), BuildingBlock: EZIPEK_clean_linker_0, # of connection points: 2
#     Edge 27, Type (0, 0), BuildingBlock: EZIPEK_clean_linker_0, # of connection points: 2
#     Edge 28, Type (0, 0), BuildingBlock: EZIPEK_clean_linker_0, # of connection points: 2
#     Edge 29, Type (0, 0), BuildingBlock: EZIPEK_clean_linker_0, # of connection points: 2
#     Edge 30, Type (0, 0), BuildingBlock: EZIPEK_clean_linker_0, # of connection points: 2
#     Edge 31, Type (0, 0), BuildingBlock: EZIPEK_clean_linker_0, # of connection points: 2
#     Edge 32, Type (0, 0), BuildingBlock: EZIPEK_clean_linker_0, # of connection points: 2
#     Edge 33, Type (0, 0), BuildingBlock: EZIPEK_clean_linker_0, # of connection points: 2
#     Edge 34, Type (0, 0), BuildingBlock: EZIPEK_clean_linker_0, # of connection points: 2
#     Edge 35, Type (0, 0), BuildingBlock: EZIPEK_clean_linker_0, # of connection points: 2
#     Edge 36, Type (0, 0), BuildingBlock: EZIPEK_clean_linker_0, # of connection points: 2
#     Edge 37, Type (0, 0), BuildingBlock: EZIPEK_clean_linker_0, # of connection points: 2
#     Edge 38, Type (0, 0), BuildingBlock: EZIPEK_clean_linker_0, # of connection points: 2
#     Edge 39, Type (0, 0), BuildingBlock: EZIPEK_clean_linker_0, # of connection points: 2
#     Edge 40, Type (0, 0), BuildingBlock: EZIPEK_clean_linker_0, # of connection points: 2
#     Edge 41, Type (0, 0), BuildingBlock: EZIPEK_clean_linker_0, # of connection points: 2
# Relax obj value: 0.362
# Max RMSD: 0.158
# Mean RMSD: 0.158
data_MOF--net-fnw--node1-XOMCOT_clean_sbu_1--edge1-EZIPEK_clean_linker_0
_symmetry_space_group_name_H-M    P1
_symmetry_Int_Tables_number       1
_symmetry_cell_setting            triclinic
loop_
_symmetry_equiv_pos_as_xyz
'x, y, z'
_cell_length_a     41.775827
_cell_length_b     41.645733
_cell_length_c     19.678003
_cell_angle_alpha  90.51981
_cell_angle_beta   89.486983
_cell_angle_gamma 119.95603
loop_
_atom_site_label
_atom_site_type_symbol
_atom_site_fract_x
_atom_site_fract_y
_atom_site_fract_z
_atom_type_partial_charge
C0 C 0.18715 0.4614 0.20063 0.0
C1 C 0.17268 0.48378 0.21701 0.0
N2 N 0.18546 0.49883 0.27854 0.0
N3 N 0.20898 0.46242 0.25166 0.0
C4 C 0.2072 0.48534 0.29883 0.0
H5 H 0.18398 0.44736 0.15259 0.0
Co6 Co 0.24073 0.44315 0.24671 0.0
C7 C 0.19639 0.40644 0.37094 0.0
O8 O 0.16655 0.39628 0.33463 0.0
N9 N 0.27343 0.42524 0.24051 0.0
C10 C 0.32411 0.42412 0.20941 0.0
C11 C 0.3046 0.44229 0.2026 0.0
C12 C 0.27457 0.39674 0.27041 0.0
N13 N 0.30517 0.39556 0.25178 0.0
O14 O 0.20044 0.39755 0.20665 0.0
H15 H 0.3128 0.46672 0.17224 0.0
H16 H 0.25342 0.37714 0.30434 0.0
O17 O 0.22774 0.42513 0.34144 0.0
C18 C 0.20341 0.38206 0.15214 0.0
O19 O 0.22974 0.3737 0.14755 0.0
N20 N 0.27962 0.48796 0.27732 0.0
C21 C 0.3429 0.55511 0.30164 0.0
C22 C 0.33234 0.52569 0.34664 0.0
C23 C 0.30052 0.49198 0.33311 0.0
C24 C 0.28992 0.51635 0.23283 0.0
C25 C 0.32141 0.55045 0.2444 0.0
H26 H 0.29392 0.46873 0.36514 0.0
H27 H 0.274 0.5121 0.18719 0.0
H28 H 0.2239 0.49442 0.34431 0.0
H29 H 0.15623 0.4906 0.18437 0.0
H30 H 0.35002 0.43099 0.18475 0.0
H31 H 0.34898 0.52855 0.39062 0.0
H32 H 0.3293 0.57278 0.20851 0.0
C33 C 0.74157 0.25255 0.67341 0.0
C34 C 0.70431 0.23801 0.68287 0.0
N35 N 0.69351 0.21455 0.7359 0.0
N36 N 0.75446 0.23902 0.72121 0.0
C37 C 0.7243 0.21482 0.75696 0.0
H38 H 0.75871 0.27393 0.63755 0.0
Co39 Co 0.80432 0.26106 0.74155 0.0
C40 C 0.80674 0.2499 0.89052 0.0
O41 O 0.82936 0.28578 0.89567 0.0
N42 N 0.85537 0.28358 0.76169 0.0
C43 C 0.91373 0.32377 0.78799 0.0
C44 C 0.87941 0.31926 0.77877 0.0
C45 C 0.87615 0.26687 0.7628 0.0
N46 N 0.91177 0.29095 0.77767 0.0
O47 O 0.80548 0.22006 0.69789 0.0
H48 H 0.87305 0.3411 0.78642 0.0
H49 H 0.8655 0.23765 0.75345 0.0
O50 O 0.79305 0.23667 0.83194 0.0
C51 C 0.81251 0.22835 0.63501 0.0
O52 O 0.82011 0.26174 0.6168 0.0
N53 N 0.80188 0.30256 0.77253 0.0
C54 C 0.77892 0.35481 0.7655 0.0
C55 C 0.76536 0.3279 0.81683 0.0
C56 C 0.77768 0.3022 0.82009 0.0
C57 C 0.81592 0.3293 0.72378 0.0
C58 C 0.80611 0.35659 0.72122 0.0
H59 H 0.76508 0.28008 0.85638 0.0
H60 H 0.833 0.32788 0.68357 0.0
H61 H 0.72513 0.19979 0.80063 0.0
H62 H 0.68671 0.24538 0.65496 0.0
H63 H 0.93851 0.34935 0.80133 0.0
H64 H 0.74393 0.32543 0.85138 0.0
H65 H 0.81697 0.37677 0.68065 0.0
C66 C 0.47723 0.75876 0.26226 0.0
C67 C 0.45155 0.72218 0.2531 0.0
N68 N 0.45983 0.70237 0.29542 0.0
N69 N 0.50103 0.76213 0.31163 0.0
C70 C 0.49051 0.72689 0.32885 0.0
H71 H 0.47795 0.78152 0.23515 0.0
Co72 Co 0.53811 0.80824 0.34226 0.0
C73 C 0.52587 0.76451 0.47895 0.0
O74 O 0.49043 0.74077 0.47335 0.0
N75 N 0.57471 0.85475 0.37012 0.0
C76 C 0.60964 0.90518 0.4319 0.0
C77 C 0.58783 0.86726 0.43324 0.0
C78 C 0.58929 0.88535 0.33125 0.0
N79 N 0.61027 0.91628 0.3678 0.0
O80 O 0.57432 0.79859 0.2992 0.0
H81 H 0.58073 0.85051 0.47837 0.0
H82 H 0.58281 0.88532 0.27812 0.0
O83 O 0.54337 0.78821 0.43182 0.0
C84 C 0.57443 0.80453 0.23537 0.0
O85 O 0.55472 0.81912 0.21445 0.0
N86 N 0.50182 0.81924 0.37354 0.0
C87 C 0.43332 0.81459 0.36526 0.0
C88 C 0.44328 0.803 0.4242 0.0
C89 C 0.4779 0.8054 0.42718 0.0
C90 C 0.49492 0.83667 0.32215 0.0
C91 C 0.46046 0.83401 0.31615 0.0
H92 H 0.48371 0.79379 0.47016 0.0
H93 H 0.51416 0.84797 0.28017 0.0
H94 H 0.50429 0.71909 0.36581 0.0
H95 H 0.42774 0.71097 0.22006 0.0
H96 H 0.62278 0.92336 0.47489 0.0
H97 H 0.42318 0.7888 0.46416 0.0
H98 H 0.454 0.84385 0.27038 0.0
C99 C 0.68851 0.47474 0.66162 0.0
C100 C 0.69125 0.44321 0.66528 0.0
N101 N 0.72223 0.45156 0.69969 0.0
N102 N 0.71684 0.50236 0.69562 0.0
C103 C 0.73754 0.48774 0.71639 0.0
H104 H 0.66655 0.47719 0.63821 0.0
Co105 Co 0.71979 0.54705 0.71889 0.0
C106 C 0.75445 0.56865 0.85323 0.0
O107 O 0.72706 0.57452 0.86801 0.0
N108 N 0.72407 0.59329 0.74105 0.0
C109 C 0.75227 0.65396 0.76426 0.0
C110 C 0.75719 0.62507 0.74404 0.0
C111 C 0.6994 0.6038 0.7592 0.0
N112 N 0.71594 0.64028 0.77346 0.0
O113 O 0.75816 0.57085 0.65089 0.0
H114 H 0.78356 0.6269 0.7343 0.0
H115 H 0.67003 0.58542 0.76424 0.0
O116 O 0.75545 0.55595 0.79381 0.0
C117 C 0.74807 0.58171 0.59874 0.0
O118 O 0.7181 0.58444 0.60308 0.0
N119 N 0.67831 0.51982 0.77729 0.0
C120 C 0.61386 0.45212 0.80125 0.0
C121 C 0.64692 0.46097 0.83405 0.0
C122 C 0.67858 0.49525 0.82279 0.0
C123 C 0.64546 0.51311 0.75044 0.0
C124 C 0.61251 0.48023 0.76476 0.0
H125 H 0.70418 0.49888 0.84224 0.0
H126 H 0.64528 0.53059 0.71035 0.0
H127 H 0.76241 0.50261 0.74593 0.0
H128 H 0.6718 0.41612 0.64515 0.0
H129 H 0.7735 0.68246 0.77287 0.0
H130 H 0.64923 0.4403 0.8633 0.0
H131 H 0.58734 0.47469 0.7394 0.0
C132 C 0.23013 0.72373 0.23121 0.0
C133 C 0.26729 0.73519 0.23072 0.0
N134 N 0.28353 0.76063 0.2804 0.0
N135 N 0.22305 0.74152 0.28158 0.0
C136 C 0.25636 0.76455 0.30932 0.0
H137 H 0.20941 0.70284 0.19846 0.0
Co138 Co 0.17673 0.73374 0.30709 0.0
C139 C 0.18437 0.75634 0.45426 0.0
O140 O 0.15069 0.72927 0.46676 0.0
N141 N 0.13038 0.72692 0.33088 0.0
C142 C 0.08633 0.74045 0.35609 0.0
C143 C 0.12375 0.75356 0.35514 0.0
C144 C 0.09672 0.69836 0.31538 0.0
N145 N 0.0697 0.70595 0.33018 0.0
O146 O 0.18733 0.77796 0.25981 0.0
H147 H 0.14494 0.78151 0.36756 0.0
H148 H 0.0919 0.67341 0.28942 0.0
O149 O 0.1977 0.76092 0.39388 0.0
C150 C 0.17172 0.76708 0.20195 0.0
O151 O 0.15223 0.7311 0.19164 0.0
N152 N 0.16526 0.68716 0.34294 0.0
C153 C 0.16452 0.61997 0.3503 0.0
C154 C 0.1783 0.64531 0.40434 0.0
C155 C 0.1782 0.67884 0.39985 0.0
C156 C 0.14939 0.66133 0.29252 0.0
C157 C 0.14827 0.6274 0.29553 0.0
H158 H 0.1908 0.69844 0.44013 0.0
H159 H 0.14082 0.66852 0.2462 0.0
H160 H 0.2609 0.78358 0.35065 0.0
H161 H 0.28105 0.72443 0.19879 0.0
H162 H 0.0726 0.7558 0.36991 0.0
H163 H 0.19136 0.64041 0.4472 0.0
H164 H 0.13801 0.60867 0.25236 0.0
C165 C 0.51566 0.24145 0.7473 0.0
C166 C 0.5385 0.27919 0.74588 0.0
N167 N 0.52363 0.29482 0.78581 0.0
N168 N 0.48674 0.23319 0.78884 0.0
C169 C 0.49194 0.26639 0.81066 0.0
H170 H 0.51984 0.22115 0.72007 0.0
Co171 Co 0.4484 0.18489 0.80576 0.0
C172 C 0.44124 0.18722 0.9549 0.0
O173 O 0.44565 0.15814 0.95822 0.0
N174 N 0.40842 0.13618 0.818 0.0
C175 C 0.35965 0.08356 0.85186 0.0
C176 C 0.38308 0.11998 0.86809 0.0
C177 C 0.39722 0.10957 0.76932 0.0
N178 N 0.36886 0.07678 0.78993 0.0
O179 O 0.41499 0.19706 0.76411 0.0
H180 H 0.38058 0.1332 0.91339 0.0
H181 H 0.40998 0.11438 0.71969 0.0
O182 O 0.44077 0.20061 0.89671 0.0
C183 C 0.4182 0.19382 0.70026 0.0
O184 O 0.44086 0.18253 0.67888 0.0
N185 N 0.48356 0.17256 0.84069 0.0
C186 C 0.54883 0.17023 0.83667 0.0
C187 C 0.54728 0.19891 0.87152 0.0
C188 C 0.51387 0.19887 0.87501 0.0
C189 C 0.48374 0.14197 0.81549 0.0
C190 C 0.5158 0.13957 0.81548 0.0
H191 H 0.5139 0.22275 0.8971 0.0
H192 H 0.46069 0.12092 0.78849 0.0
H193 H 0.47282 0.26972 0.84335 0.0
H194 H 0.5638 0.29421 0.71672 0.0
H195 H 0.3376 0.06332 0.88362 0.0
H196 H 0.57218 0.22272 0.89042 0.0
H197 H 0.51587 0.1164 0.79009 0.0
C198 C 0.50001 0.73855 0.96785 0.0
C199 C 0.48077 0.75728 0.96324 0.0
N200 N 0.4834 0.76876 0.89871 0.0
N201 N 0.51432 0.73819 0.90633 0.0
C202 C 0.504 0.75718 0.86542 0.0
H203 H 0.50169 0.72432 1.01216 0.0
Co204 Co 0.538 0.7121 0.88493 0.0
C205 C 0.55569 0.72481 0.73679 0.0
O206 O 0.54369 0.68911 0.73224 0.0
N207 N 0.56294 0.68562 0.86439 0.0
C208 C 0.57834 0.64329 0.83465 0.0
C209 C 0.54965 0.64959 0.84664 0.0
C210 C 0.6001 0.70044 0.8625 0.0
N211 N 0.60983 0.67524 0.84455 0.0
O212 O 0.58057 0.74945 0.93382 0.0
H213 H 0.52117 0.62888 0.83929 0.0
H214 H 0.61982 0.72926 0.87258 0.0
O215 O 0.55484 0.73828 0.79545 0.0
C216 C 0.57872 0.73739 0.99423 0.0
O217 O 0.55356 0.70264 1.00546 0.0
N218 N 0.49346 0.6744 0.84894 0.0
C219 C 0.41965 0.61988 0.83328 0.0
C220 C 0.43605 0.65032 0.7892 0.0
C221 C 0.4733 0.6771 0.79718 0.0
C222 C 0.47732 0.64562 0.89332 0.0
C223 C 0.44141 0.61688 0.88373 0.0
H224 H 0.4848 0.70108 0.76477 0.0
H225 H 0.49266 0.64509 0.93688 0.0
H226 H 0.50892 0.76019 0.81128 0.0
H227 H 0.464 0.75998 1.00264 0.0
H228 H 0.57638 0.61742 0.81871 0.0
H229 H 0.41985 0.6541 0.75072 0.0
H230 H 0.42974 0.59396 0.91908 0.0
C231 C 0.76078 0.47119 0.31478 0.0
C232 C 0.72334 0.44933 0.32276 0.0
N233 N 0.70687 0.46373 0.28531 0.0
N234 N 0.76809 0.49862 0.2706 0.0
C235 C 0.73456 0.49412 0.25531 0.0
H236 H 0.78144 0.46729 0.33996 0.0
Co237 Co 0.81645 0.53429 0.24768 0.0
C238 C 0.77992 0.52805 0.10687 0.0
O239 O 0.75089 0.49496 0.11248 0.0
N240 N 0.86464 0.56939 0.22598 0.0
C241 C 0.91819 0.59883 0.17059 0.0
C242 C 0.88131 0.57319 0.165 0.0
C243 C 0.89178 0.59295 0.26774 0.0
N244 N 0.9245 0.611 0.23521 0.0
O245 O 0.80754 0.57159 0.28672 0.0
H246 H 0.86791 0.55706 0.12004 0.0
H247 H 0.88834 0.5954 0.32158 0.0
O248 O 0.80308 0.54233 0.1555 0.0
C249 C 0.8121 0.57111 0.35088 0.0
O250 O 0.8246 0.54989 0.37372 0.0
N251 N 0.82605 0.4968 0.21996 0.0
C252 C 0.82137 0.42865 0.23592 0.0
C253 C 0.80587 0.43535 0.17876 0.0
C254 C 0.80764 0.46959 0.17279 0.0
C255 C 0.84646 0.49246 0.26893 0.0
C256 C 0.84408 0.45827 0.27854 0.0
H257 H 0.79074 0.47204 0.13542 0.0
H258 H 0.8604 0.51393 0.30679 0.0
H259 H 0.7304 0.51281 0.22363 0.0
H260 H 0.70917 0.42494 0.35434 0.0
H261 H 0.93902 0.60707 0.13115 0.0
H262 H 0.78832 0.41289 0.14471 0.0
H263 H 0.85672 0.45404 0.32285 0.0
C264 C 0.28361 0.76157 0.90799 0.0
C265 C 0.26879 0.72392 0.90147 0.0
N266 N 0.2428 0.71184 0.85301 0.0
N267 N 0.26721 0.77324 0.86353 0.0
C268 C 0.24199 0.74208 0.83118 0.0
H269 H 0.30578 0.77955 0.94173 0.0
Co270 Co 0.28199 0.82324 0.85234 0.0
C271 C 0.26555 0.82259 0.70096 0.0
O272 O 0.29946 0.84869 0.68687 0.0
N273 N 0.29741 0.87386 0.84547 0.0
C274 C 0.32427 0.93233 0.88199 0.0
C275 C 0.31511 0.8969 0.8981 0.0
C276 C 0.29506 0.89618 0.79846 0.0
N277 N 0.31166 0.93173 0.8194 0.0
O278 O 0.23814 0.81588 0.89821 0.0
H279 H 0.32164 0.88874 0.94552 0.0
H280 H 0.282 0.88744 0.74981 0.0
O281 O 0.25634 0.81129 0.76229 0.0
C282 C 0.24398 0.81764 0.96214 0.0
O283 O 0.27604 0.82285 0.98291 0.0
N284 N 0.32738 0.83091 0.81677 0.0
C285 C 0.38841 0.82104 0.81102 0.0
C286 C 0.36324 0.8088 0.75743 0.0
C287 C 0.33225 0.81314 0.76236 0.0
C288 C 0.35413 0.84646 0.86521 0.0
C289 C 0.38495 0.84197 0.86323 0.0
H290 H 0.31091 0.7987 0.72631 0.0
H291 H 0.34937 0.85785 0.91085 0.0
H292 H 0.22377 0.74146 0.79186 0.0
H293 H 0.27703 0.7068 0.92884 0.0
H294 H 0.34019 0.95695 0.91266 0.0
H295 H 0.36503 0.79203 0.7168 0.0
H296 H 0.40376 0.85135 0.90591 0.0
C297 C 0.51527 0.29746 0.40662 0.0
C298 C 0.54357 0.28952 0.40364 0.0
N299 N 0.53311 0.25995 0.36249 0.0
N300 N 0.48743 0.27361 0.36632 0.0
C301 C 0.4988 0.25053 0.3415 0.0
H302 H 0.51541 0.32006 0.43431 0.0
Co303 Co 0.44676 0.27895 0.34406 0.0
C304 C 0.42392 0.24857 0.20645 0.0
O305 O 0.42349 0.27927 0.19362 0.0
N306 N 0.40483 0.28341 0.32376 0.0
C307 C 0.345 0.2638 0.30717 0.0
C308 C 0.37072 0.25314 0.31793 0.0
C309 C 0.39887 0.3123 0.31609 0.0
N310 N 0.36287 0.30092 0.30609 0.0
O311 O 0.41677 0.23972 0.40497 0.0
H312 H 0.36483 0.22479 0.32113 0.0
H313 H 0.41995 0.34112 0.31732 0.0
O314 O 0.43426 0.24457 0.26553 0.0
C315 C 0.41292 0.25414 0.4597 0.0
O316 O 0.43096 0.29054 0.4636 0.0
N317 N 0.47899 0.3204 0.29157 0.0
C318 C 0.54916 0.38107 0.27047 0.0
C319 C 0.53749 0.34807 0.23392 0.0
C320 C 0.50203 0.31819 0.24429 0.0
C321 C 0.48893 0.35339 0.32309 0.0
C322 C 0.52322 0.38473 0.31035 0.0
H323 H 0.49571 0.29196 0.22197 0.0
H324 H 0.47273 0.35435 0.36531 0.0
H325 H 0.4832 0.22828 0.30645 0.0
H326 H 0.57006 0.30467 0.42864 0.0
H327 H 0.31559 0.24587 0.30002 0.0
H328 H 0.55675 0.34416 0.20255 0.0
H329 H 0.53135 0.40986 0.33934 0.0
C330 C 0.20523 0.50437 0.86712 0.0
C331 C 0.2414 0.53053 0.87681 0.0
N332 N 0.26242 0.52169 0.83739 0.0
N333 N 0.20309 0.47981 0.81984 0.0
C334 C 0.23849 0.49044 0.80362 0.0
H335 H 0.1816 0.50408 0.89053 0.0
Co336 Co 0.15717 0.44617 0.78561 0.0
C337 C 0.17104 0.43765 0.63885 0.0
O338 O 0.15019 0.45176 0.62336 0.0
N339 N 0.10914 0.41161 0.7538 0.0
C340 C 0.05293 0.38667 0.70869 0.0
C341 C 0.08726 0.41744 0.71113 0.0
C342 C 0.08714 0.37626 0.77509 0.0
N343 N 0.05273 0.36104 0.74964 0.0
O344 O 0.16015 0.40798 0.83629 0.0
H345 H 0.09469 0.4429 0.68503 0.0
H346 H 0.09521 0.36229 0.81125 0.0
O347 O 0.17829 0.43535 0.70159 0.0
C348 C 0.15132 0.40814 0.89881 0.0
O349 O 0.13541 0.42745 0.91576 0.0
N350 N 0.15576 0.48685 0.74598 0.0
C351 C 0.17321 0.56065 0.75837 0.0
C352 C 0.1964 0.55121 0.7219 0.0
C353 C 0.18653 0.51405 0.71413 0.0
C354 C 0.13132 0.49533 0.7763 0.0
C355 C 0.13859 0.53192 0.77958 0.0
H356 H 0.20671 0.50794 0.69233 0.0
H357 H 0.10808 0.47438 0.80471 0.0
H358 H 0.2465 0.47644 0.76643 0.0
H359 H 0.25163 0.5545 0.91 0.0
H360 H 0.02922 0.38392 0.6816 0.0
H361 H 0.2234 0.57241 0.70445 0.0
H362 H 0.11962 0.53803 0.80692 0.0
C363 C 0.74035 0.23151 0.39628 0.0
C364 C 0.75847 0.26958 0.40176 0.0
N365 N 0.77256 0.28355 0.34022 0.0
N366 N 0.74304 0.222 0.33159 0.0
C367 C 0.76322 0.25441 0.29911 0.0
H368 H 0.72485 0.21204 0.4361 0.0
Co369 Co 0.72169 0.17424 0.29736 0.0
C370 C 0.73611 0.18757 0.14666 0.0
O371 O 0.70017 0.16919 0.13757 0.0
N372 N 0.70117 0.12509 0.26518 0.0
C373 C 0.69896 0.07519 0.2174 0.0
C374 C 0.71583 0.11306 0.21633 0.0
C375 C 0.67658 0.09365 0.29741 0.0
N376 N 0.67461 0.0632 0.26888 0.0
O377 O 0.762 0.17085 0.33612 0.0
H378 H 0.74031 0.13035 0.18687 0.0
H379 H 0.66339 0.09302 0.34523 0.0
O380 O 0.74849 0.19246 0.2078 0.0
C381 C 0.75304 0.15837 0.39661 0.0
O382 O 0.71832 0.145 0.41463 0.0
N383 N 0.68003 0.17825 0.26968 0.0
C384 C 0.62567 0.19867 0.28427 0.0
C385 C 0.65663 0.21915 0.24271 0.0
C386 C 0.68336 0.2084 0.23575 0.0
C387 C 0.6488 0.15691 0.3069 0.0
C388 C 0.62088 0.16599 0.3133 0.0
H389 H 0.70816 0.2265 0.2079 0.0
H390 H 0.64693 0.1351 0.33834 0.0
H391 H 0.76844 0.25704 0.24516 0.0
H392 H 0.75902 0.28566 0.44573 0.0
H393 H 0.70682 0.05813 0.18786 0.0
H394 H 0.66138 0.24466 0.2195 0.0
H395 H 0.59744 0.14958 0.3462 0.0
C396 C 0.33402 0.32457 0.22785 0.0
C397 C 0.34669 0.32365 0.29378 0.0
C398 C 0.32976 0.369 0.33395 0.0
C399 C 0.31545 0.3685 0.26877 0.0
N400 N 0.29717 0.34121 0.15776 0.0
N401 N 0.35132 0.33928 0.41244 0.0
C402 C 0.31545 0.34471 0.21697 0.0
C403 C 0.34294 0.3442 0.34785 0.0
N404 N 0.34128 0.30748 0.17526 0.0
N405 N 0.33221 0.39434 0.38122 0.0
H406 H 0.36101 0.32119 0.42361 0.0
H407 H 0.34602 0.35079 0.45526 0.0
H408 H 0.32269 0.41277 0.3722 0.0
H409 H 0.34581 0.39879 0.42739 0.0
H410 H 0.33596 0.31004 0.12461 0.0
H411 H 0.3556 0.29318 0.18173 0.0
H412 H 0.29316 0.32186 0.1201 0.0
H413 H 0.28309 0.35557 0.14908 0.0
C414 C 0.95993 0.2838 0.71901 0.0
C415 C 0.94327 0.28581 0.78049 0.0
C416 C 0.00323 0.32371 0.83277 0.0
C417 C 0.01985 0.32725 0.76791 0.0
N418 N 0.01725 0.30076 0.65837 0.0
N419 N 0.94732 0.29094 0.90106 0.0
C420 C -0.0009 0.30303 0.7145 0.0
C421 C 0.96479 0.29897 0.8396 0.0
N422 N 0.9384 0.26658 0.66394 0.0
N423 N 0.02272 0.34681 0.88503 0.0
H424 H 0.91866 0.27395 0.90443 0.0
H425 H 0.96124 0.298 0.94728 0.0
H426 H 0.05057 0.36652 0.88155 0.0
H427 H 0.01068 0.34797 0.93087 0.0
H428 H 0.94876 0.26785 0.61514 0.0
H429 H 0.90973 0.25097 0.66768 0.0
H430 H 0.00428 0.28243 0.61825 0.0
H431 H 0.04608 0.31552 0.65539 0.0
C432 C 0.68061 0.01479 0.32836 0.0
C433 C 0.65792 0.02696 0.2982 0.0
C434 C 0.60308 0.96754 0.32348 0.0
C435 C 0.62628 0.95383 0.34506 0.0
N436 N 0.68706 0.96224 0.35984 0.0
N437 N 0.59838 0.01489 0.26071 0.0
C438 C 0.6651 0.97693 0.34551 0.0
C439 C 0.61927 0.00333 0.29417 0.0
N440 N 0.71668 0.03975 0.34235 0.0
N441 N 0.5658 0.94687 0.33353 0.0
H442 H 0.60974 0.04124 0.23944 0.0
H443 H 0.57049 -0.00237 0.24989 0.0
H444 H 0.55334 0.92111 0.35729 0.0
H445 H 0.54767 0.95665 0.32427 0.0
H446 H 0.73377 0.03319 0.36998 0.0
H447 H 0.72843 0.06798 0.33227 0.0
H448 H 0.71571 0.9769 0.35454 0.0
H449 H 0.67634 0.93429 0.37125 0.0
C450 C 0.68572 0.65483 0.86619 0.0
C451 C 0.69788 0.65963 0.79787 0.0
C452 C 0.66394 0.69166 0.77303 0.0
C453 C 0.64594 0.67983 0.83648 0.0
N454 N 0.64145 0.65476 0.94736 0.0
N455 N 0.70108 0.68376 0.68613 0.0
C456 C 0.65809 0.66353 0.88496 0.0
C457 C 0.68844 0.67926 0.75154 0.0
N458 N 0.70033 0.64131 0.91195 0.0
N459 N 0.6567 0.71393 0.73337 0.0
H460 H 0.71936 0.67507 0.66968 0.0
H461 H 0.69229 0.69443 0.64754 0.0
H462 H 0.63922 0.7236 0.74972 0.0
H463 H 0.67037 0.72553 0.68791 0.0
H464 H 0.69438 0.63882 0.96373 0.0
H465 H 0.72075 0.63503 0.89822 0.0
H466 H 0.64605 0.63952 0.98365 0.0
H467 H 0.62213 0.66246 0.96208 0.0
C468 C 0.01715 0.69536 0.25832 0.0
C469 C 0.03174 0.68359 0.31105 0.0
C470 C 0.97545 0.62314 0.31294 0.0
C471 C 0.9598 0.636 0.26414 0.0
N472 N 0.9621 0.6863 0.20126 0.0
N473 N 0.02306 0.63967 0.39763 0.0
C474 C 0.97957 0.67284 0.24032 0.0
C475 C 0.0102 0.64847 0.34138 0.0
N476 N 0.03969 0.7268 0.22274 0.0
N477 N 0.95816 0.58638 0.329 0.0
H478 H 0.04847 0.65809 0.41951 0.0
H479 H 0.00724 0.61573 0.42588 0.0
H480 H 0.93341 0.56676 0.30678 0.0
H481 H 0.97003 0.57482 0.35941 0.0
H482 H 0.03127 0.73463 0.17932 0.0
H483 H 0.06783 0.7432 0.23253 0.0
H484 H 0.97415 0.71404 0.18738 0.0
H485 H 0.93425 0.67037 0.18839 0.0
C486 C 0.29864 0.97945 0.77778 0.0
C487 C 0.32205 0.96417 0.77978 0.0
C488 C 0.37536 0.02356 0.74932 0.0
C489 C 0.35315 0.04029 0.75962 0.0
N490 N 0.29304 0.03377 0.75495 0.0
N491 N 0.37802 0.96651 0.74434 0.0
C492 C 0.31427 0.01766 0.76266 0.0
C493 C 0.3589 0.98464 0.75686 0.0
N494 N 0.26236 0.95796 0.79534 0.0
N495 N 0.4123 0.04478 0.73702 0.0
H496 H 0.36595 0.93791 0.75055 0.0
H497 H 0.40429 0.97885 0.72267 0.0
H498 H 0.42432 0.07179 0.71987 0.0
H499 H 0.43095 0.03524 0.74136 0.0
H500 H 0.24422 0.96808 0.80152 0.0
H501 H 0.2508 0.92974 0.80547 0.0
H502 H 0.2643 0.01905 0.75348 0.0
H503 H 0.305 0.06203 0.74442 0.0
C504 C 0.20235 0.41112 0.96979 0.0
C505 C 0.16407 0.39342 0.95533 0.0
C506 C 0.15084 0.36509 0.06958 0.0
C507 C 0.1887 0.38726 0.08658 0.0
N508 N 0.24872 0.43822 0.05725 0.0
N509 N 0.1013 0.35314 0.99126 0.0
C510 C 0.21398 0.41208 1.03774 0.0
C511 C 0.13815 0.37015 1.00534 0.0
N512 N 0.22779 0.42691 0.91884 0.0
N513 N 0.12723 0.3388 0.1142 0.0
H514 H 0.09159 0.35358 0.94285 0.0
H515 H 0.08058 0.33959 1.02746 0.0
H516 H 0.13556 0.33531 0.16209 0.0
H517 H 0.1001 0.31909 0.10249 0.0
H518 H 0.25606 0.43793 0.92606 0.0
H519 H 0.22045 0.42448 0.86794 0.0
H520 H 0.2674 0.45919 1.02544 0.0
H521 H 0.25709 0.44172 0.1077 0.0
C522 C 0.81468 0.2005 0.45484 0.0
C523 C 0.78033 0.16694 0.45286 0.0
C524 C 0.77873 0.16443 0.57779 0.0
C525 C 0.80847 0.2016 0.5794 0.0
N526 N 0.86457 0.24663 0.52469 0.0
N527 N 0.7418 0.10923 0.50903 0.0
C528 C 0.82979 0.21676 0.51929 0.0
C529 C 0.76662 0.14626 0.51361 0.0
N530 N 0.83218 0.21735 0.39588 0.0
N531 N 0.76084 0.14708 0.63618 0.0
H532 H 0.73364 0.0958 0.46199 0.0
H533 H 0.73243 0.09153 0.55064 0.0
H534 H 0.77135 0.15701 0.68433 0.0
H535 H 0.73555 0.1225 0.63679 0.0
H536 H 0.85389 0.24457 0.39339 0.0
H537 H 0.82544 0.20351 0.3493 0.0
H538 H 0.88292 0.25782 0.48407 0.0
H539 H 0.87618 0.25796 0.57183 0.0
C540 C 0.58842 0.75694 0.17983 0.0
C541 C 0.59249 0.79293 0.1817 0.0
C542 C 0.6065 0.79956 0.05863 0.0
C543 C 0.59669 0.76167 0.05565 0.0
N544 N 0.59979 0.71342 0.11598 0.0
N545 N 0.62101 0.85314 0.13016 0.0
C546 C 0.59503 0.74355 0.11745 0.0
C547 C 0.6068 0.81579 0.12319 0.0
N548 N 0.57595 0.73438 0.23526 0.0
N549 N 0.61484 0.81985 1.00051 0.0
H550 H 0.62264 0.86546 0.17745 0.0
H551 H 0.63436 0.87206 0.09121 0.0
H552 H 0.62128 0.81131 0.95507 0.0
H553 H 0.61626 0.84549 0.99783 0.0
H554 H 0.56759 0.70626 0.23284 0.0
H555 H 0.57252 0.74301 0.2831 0.0
H556 H 0.60169 0.70053 0.15968 0.0
H557 H 0.60618 0.70434 0.07089 0.0
C558 C 0.75986 0.57396 0.40725 0.0
C559 C 0.79829 0.58776 0.40253 0.0
C560 C 0.80466 0.60732 0.52259 0.0
C561 C 0.76578 0.58552 0.53072 0.0
N562 N 0.7062 0.54393 0.48026 0.0
N563 N 0.85843 0.62159 0.45296 0.0
C564 C 0.74319 0.5682 0.47268 0.0
C565 C 0.82105 0.60612 0.45941 0.0
N566 N 0.73924 0.56548 0.34954 0.0
N567 N 0.82574 0.62985 0.57436 0.0
H568 H 0.87104 0.624 0.40582 0.0
H569 H 0.87656 0.63107 0.49386 0.0
H570 H 0.81445 0.63201 0.62047 0.0
H571 H 0.85382 0.64885 0.5696 0.0
H572 H 0.71135 0.55767 0.3495 0.0
H573 H 0.75113 0.57107 0.30125 0.0
H574 H 0.68865 0.53001 0.43995 0.0
H575 H 0.69341 0.53432 0.52725 0.0
C576 C 0.23083 0.83883 0.07213 0.0
C577 C 0.21691 0.81455 1.01509 0.0
C578 C 0.16114 0.77533 0.08056 0.0
C579 C 0.18092 0.7917 0.1412 0.0
N580 N 0.22902 0.84686 0.1944 0.0
N581 N 0.16559 0.76089 0.96286 0.0
C582 C 0.21388 0.82635 0.13704 0.0
C583 C 0.18058 0.78372 1.01777 0.0
N584 N 0.25998 0.87377 0.06327 0.0
N585 N 0.12395 0.75155 0.08377 0.0
H586 H 0.1782 0.76638 0.91527 0.0
H587 H 0.14112 0.7355 0.96559 0.0
H588 H 0.10939 0.74646 0.12955 0.0
H589 H 0.10747 0.74059 1.04083 0.0
H590 H 0.27057 0.89389 0.10133 0.0
H591 H 0.27107 0.88361 1.01519 0.0
H592 H 0.25562 0.86962 0.19654 0.0
H593 H 0.21419 0.84144 0.23979 0.0
C594 C 0.38404 0.17906 0.59156 0.0
C595 C 0.39898 0.2034 0.6482 0.0
C596 C 0.39648 0.2515 0.583 0.0
C597 C 0.39506 0.23211 0.52254 0.0
N598 N 0.37195 0.1722 0.46995 0.0
N599 N 0.41564 0.26263 0.70021 0.0
C600 C 0.38347 0.1939 0.52689 0.0
C601 C 0.40307 0.23926 0.64551 0.0
N602 N 0.37065 0.14202 0.60057 0.0
N603 N 0.39069 0.28094 0.58053 0.0
H604 H 0.41936 0.2546 0.748 0.0
H605 H 0.42377 0.29066 0.69705 0.0
H606 H 0.38269 0.28816 0.5357 0.0
H607 H 0.389 0.29463 0.62384 0.0
H608 H 0.35803 0.12205 0.56275 0.0
H609 H 0.36966 0.13101 0.64852 0.0
H610 H 0.36743 0.14529 0.46741 0.0
H611 H 0.36547 0.18102 0.42535 0.0
C612 C 0.78134 0.57842 1.03523 0.0
C613 C 0.78677 0.54757 1.04084 0.0
C614 C 0.7917 0.54532 0.91623 0.0
C615 C 0.77818 0.57024 0.91137 0.0
N616 N 0.78009 0.62403 0.96074 0.0
N617 N 0.80439 0.5061 0.98863 0.0
C618 C 0.77963 0.59131 0.96946 0.0
C619 C 0.7946 0.53263 0.98175 0.0
N620 N 0.77529 0.59366 0.09224 0.0
N621 N 0.80404 0.53604 0.85909 0.0
H622 H 0.81076 0.49951 1.03559 0.0
H623 H 0.80622 0.49069 0.94846 0.0
H624 H 0.80762 0.54995 0.81342 0.0
H625 H 0.81518 0.5186 0.85829 0.0
H626 H 0.76672 0.61322 0.09101 0.0
H627 H 0.77707 0.58538 0.14125 0.0
H628 H 0.78372 0.64236 1.00017 0.0
H629 H 0.78092 0.63452 0.91233 0.0
C630 C 0.2171 0.81569 0.61609 0.0
C631 C 0.24028 0.80312 0.64294 0.0
C632 C 0.23447 0.76925 0.53759 0.0
C633 C 0.20773 0.77767 0.51321 0.0
N634 N 0.1706 0.80644 0.53274 0.0
N635 N 0.25779 0.75641 0.63837 0.0
C636 C 0.19808 0.80018 0.55365 0.0
C637 C 0.24528 0.7767 0.60621 0.0
N638 N 0.21339 0.84239 0.64997 0.0
N639 N 0.2498 0.75414 0.49608 0.0
H640 H 0.2593 0.75673 0.69098 0.0
H641 H 0.25995 0.73507 0.6147 0.0
H642 H 0.24384 0.74934 0.44478 0.0
H643 H 0.27171 0.75058 0.51105 0.0
H644 H 0.20041 0.85588 0.62948 0.0
H645 H 0.22468 0.85199 0.69796 0.0
H646 H 0.15947 0.81906 0.56315 0.0
H647 H 0.1577 0.79735 0.48579 0.0
C648 C 0.4045 0.20924 1.02613 0.0
C649 C 0.43426 0.20185 1.01945 0.0
C650 C 0.44164 0.20692 0.14291 0.0
C651 C 0.41934 0.22342 0.14767 0.0
N652 N 0.37348 0.23407 0.09575 0.0
N653 N 0.48605 0.20132 0.07305 0.0
C654 C 0.39896 0.22278 0.08958 0.0
C655 C 0.45427 0.20293 0.07832 0.0
N656 N 0.38028 0.20143 0.97391 0.0
N657 N 0.44849 0.19239 0.19887 0.0
H658 H 0.49821 0.20133 1.02653 0.0
H659 H 0.50243 0.20448 0.11507 0.0
H660 H 0.4338 0.18865 0.244 0.0
H661 H 0.46342 0.17845 0.19676 0.0
H662 H 0.35603 0.20257 0.97846 0.0
H663 H 0.38233 0.19066 0.92727 0.0
H664 H 0.3618 0.23987 0.05446 0.0
H665 H 0.3643 0.23792 0.143 0.0
C666 C 0.22349 0.42495 0.49087 0.0
C667 C 0.19304 0.40302 0.44779 0.0
C668 C 0.15135 0.39028 0.54553 0.0
C669 C 0.18067 0.41992 0.58194 0.0
N670 N 0.24554 0.46451 0.59082 0.0
N671 N 0.13202 0.34991 0.44594 0.0
C672 C 0.21718 0.43651 0.55569 0.0
C673 C 0.15795 0.38103 0.47876 0.0
N674 N 0.25781 0.43165 0.47272 0.0
N675 N 0.11692 0.37197 0.57426 0.0
H676 H 0.13805 0.34056 0.40087 0.0
H677 H 0.10641 0.33111 0.46642 0.0
H678 H 0.11216 0.376 0.6249 0.0
H679 H 0.09311 0.35349 0.5482 0.0
H680 H 0.28086 0.44561 0.50384 0.0
H681 H 0.26163 0.41795 0.43151 0.0
H682 H 0.27196 0.48055 0.57042 0.0
H683 H 0.24194 0.47285 0.63905 0.0
C684 C 0.76219 0.19145 0.95918 0.0
C685 C 0.79448 0.22702 0.95511 0.0
C686 C 0.79603 0.23134 0.0804 0.0
C687 C 0.76077 0.19852 0.08415 0.0
N688 N 0.72145 0.13941 1.03017 0.0
N689 N 0.85144 0.26707 1.01317 0.0
C690 C 0.74704 0.17622 1.02427 0.0
C691 C 0.81425 0.24296 1.0162 0.0
N692 N 0.74641 0.17136 0.90171 0.0
N693 N 0.81259 0.25192 0.13703 0.0
H694 H 0.86638 0.2725 0.96787 0.0
H695 H 0.86812 0.27728 0.05603 0.0
H696 H 0.80508 0.2421 0.18613 0.0
H697 H 0.83455 0.27908 0.13467 0.0
H698 H 0.71922 0.14955 0.90002 0.0
H699 H 0.76097 0.17538 0.85647 0.0
H700 H 0.71257 0.12075 0.98964 0.0
H701 H 0.71242 0.12634 0.07696 0.0
C702 C 0.55619 0.77635 0.66509 0.0
C703 C 0.56226 0.74585 0.67089 0.0
C704 C 0.55864 0.73854 0.546 0.0
C705 C 0.54503 0.76354 0.54214 0.0
N706 N 0.5328 0.80834 0.5968 0.0
N707 N 0.58721 0.71158 0.61446 0.0
C708 C 0.54492 0.78348 0.60122 0.0
C709 C 0.56902 0.73111 0.61033 0.0
N710 N 0.56379 0.80008 0.71868 0.0
N711 N 0.55996 0.72055 0.48851 0.0
H712 H 0.59738 0.70813 0.6603 0.0
H713 H 0.59593 0.70251 0.57253 0.0
H714 H 0.55483 0.72711 0.44027 0.0
H715 H 0.56469 0.69827 0.48858 0.0
H716 H 0.56212 0.82416 0.71651 0.0
H717 H 0.57702 0.79874 0.76225 0.0
H718 H 0.52681 0.81978 0.63893 0.0
H719 H 0.52735 0.81648 0.55051 0.0
C720 C 0.21055 0.56621 0.28786 0.0
C721 C 0.1836 0.52982 0.30694 0.0
C722 C 0.14885 0.55396 0.36929 0.0
C723 C 0.17343 0.58973 0.34333 0.0
N724 N 0.22754 0.63078 0.27771 0.0
N725 N 0.12785 0.48783 0.36551 0.0
C726 C 0.20464 0.59621 0.30346 0.0
C727 C 0.15314 0.52342 0.34839 0.0
N728 N 0.24164 0.57179 0.25416 0.0
N729 N 0.12151 0.54943 0.41354 0.0
H730 H 0.13134 0.46544 0.35226 0.0
H731 H 0.103 0.48014 0.3904 0.0
H732 H 0.11771 0.57136 0.42883 0.0
H733 H 0.10408 0.52476 0.43846 0.0
H734 H 0.26455 0.59775 0.2453 0.0
H735 H 0.24557 0.55008 0.23838 0.0
H736 H 0.24819 0.63672 0.24186 0.0
H737 H 0.22486 0.65374 0.28978 0.0
C738 C 0.65061 0.20012 0.83568 0.0
C739 C 0.65687 0.19629 0.76549 0.0
C740 C 0.59202 0.17432 0.74218 0.0
C741 C 0.58497 0.17526 0.8129 0.0
N742 N 0.60593 0.17837 0.92779 0.0
N743 N 0.63058 0.16692 0.65864 0.0
C744 C 0.61373 0.18439 0.86002 0.0
C745 C 0.62639 0.17872 0.72125 0.0
N746 N 0.67923 0.2211 0.87828 0.0
N747 N 0.56764 0.17256 0.69437 0.0
H748 H 0.65544 0.16883 0.64312 0.0
H749 H 0.6084 0.15162 0.62611 0.0
H750 H 0.54369 0.17333 0.70608 0.0
H751 H 0.57366 0.17506 0.64248 0.0
H752 H 0.67543 0.22748 0.92797 0.0
H753 H 0.7065 0.23545 0.86239 0.0
H754 H 0.62563 0.18173 0.96361 0.0
H755 H 0.57902 0.16629 0.94689 0.0
C756 C 0.43803 0.63686 0.27106 0.0
C757 C 0.43569 0.66406 0.31055 0.0
C758 C 0.37516 0.61808 0.35467 0.0
C759 C 0.37679 0.591 0.31299 0.0
N760 N 0.41195 0.57154 0.24369 0.0
N761 N 0.40753 0.68047 0.40098 0.0
C762 C 0.40916 0.59941 0.27535 0.0
C763 C 0.40607 0.65443 0.35652 0.0
N764 N 0.46711 0.64749 0.22727 0.0
N765 N 0.34332 0.60954 0.38914 0.0
H766 H 0.42952 0.70761 0.40172 0.0
H767 H 0.38857 0.67473 0.44019 0.0
H768 H 0.32041 0.58287 0.39027 0.0
H769 H 0.33869 0.62909 0.41371 0.0
H770 H 0.46894 0.63001 0.19129 0.0
H771 H 0.48901 0.67476 0.22536 0.0
H772 H 0.43583 0.57526 0.21962 0.0
H773 H 0.39102 0.54386 0.24596 0.0
C774 C 0.74667 0.37626 0.68631 0.0
C775 C 0.76186 0.37811 0.75155 0.0
C776 C 0.74416 0.42373 0.78612 0.0
C777 C 0.7353 0.42654 0.71765 0.0
N778 N 0.73685 0.41104 0.59975 0.0
N779 N 0.78048 0.40867 0.86079 0.0
C780 C 0.73894 0.4043 0.66685 0.0
C781 C 0.76215 0.40329 0.80091 0.0
N782 N 0.73854 0.34717 0.64357 0.0
N783 N 0.73382 0.43896 0.83734 0.0
H784 H 0.79486 0.39502 0.87277 0.0
H785 H 0.78423 0.42923 0.89565 0.0
H786 H 0.7179 0.45133 0.82873 0.0
H787 H 0.7371 0.43529 0.88861 0.0
H788 H 0.72464 0.34323 0.5978 0.0
H789 H 0.74173 0.32483 0.65747 0.0
H790 H 0.74247 0.39743 0.56075 0.0
H791 H 0.73388 0.43312 0.58326 0.0
C792 C 0.3311 0.74979 0.33042 0.0
C793 C 0.32035 0.77484 0.30638 0.0
C794 C 0.38151 0.82672 0.33542 0.0
C795 C 0.39381 0.80118 0.34906 0.0
N796 N 0.38149 0.73785 0.34166 0.0
N797 N 0.33618 0.83713 0.27835 0.0
C798 C 0.36892 0.76249 0.3419 0.0
C799 C 0.34576 0.81343 0.30709 0.0
N800 N 0.30498 0.71404 0.34432 0.0
N801 N 0.40366 0.8634 0.35063 0.0
H802 H 0.31042 0.82797 0.25626 0.0
H803 H 0.35473 0.86524 0.27134 0.0
H804 H 0.42968 0.87379 0.37249 0.0
H805 H 0.39491 0.88278 0.34741 0.0
H806 H 0.3112 0.69532 0.36713 0.0
H807 H 0.27679 0.70469 0.34082 0.0
H808 H 0.36462 0.70982 0.33015 0.0
H809 H 0.40936 0.74593 0.34495 0.0
C810 C 0.57036 0.39356 0.73474 0.0
C811 C 0.58324 0.41239 0.79834 0.0
C812 C 0.55129 0.35224 0.85661 0.0
C813 C 0.53795 0.33417 0.7933 0.0
N814 N 0.52375 0.33841 0.67724 0.0
N815 N 0.5759 0.40985 0.9203 0.0
C816 C 0.54362 0.3553 0.73428 0.0
C817 C 0.57024 0.39173 0.85956 0.0
N818 N 0.58565 0.41075 0.67463 0.0
N819 N 0.54786 0.33195 0.91306 0.0
H820 H 0.58871 0.43867 0.92367 0.0
H821 H 0.56457 0.39625 0.96596 0.0
H822 H 0.53463 0.3031 0.9124 0.0
H823 H 0.56059 0.34388 0.95906 0.0
H824 H 0.57976 0.39663 0.62832 0.0
H825 H 0.60694 0.43795 0.67087 0.0
H826 H 0.52438 0.353 0.63399 0.0
H827 H 0.50363 0.31036 0.67642 0.0
C828 C 0.39835 0.76842 0.84171 0.0
C829 C 0.41344 0.80593 0.821 0.0
C830 C 0.47573 0.81826 0.84755 0.0
C831 C 0.46047 0.78092 0.86759 0.0
N832 N 0.40996 0.71821 0.86546 0.0
N833 N 0.46629 0.86436 0.79045 0.0
C834 C 0.42258 0.75526 0.85855 0.0
C835 C 0.45222 0.83019 0.81933 0.0
N836 N 0.36104 0.74598 0.84972 0.0
N837 N 0.51243 0.84236 0.85794 0.0
H838 H 0.44947 0.87347 0.76907 0.0
H839 H 0.49438 0.88233 0.78259 0.0
H840 H 0.53009 0.83387 0.87778 0.0
H841 H 0.52491 0.87084 0.85074 0.0
H842 H 0.34913 0.72006 0.87263 0.0
H843 H 0.34185 0.75413 0.83866 0.0
H844 H 0.38329 0.69775 0.85247 0.0
H845 H 0.42722 0.70776 0.87787 0.0
C846 C 0.61055 0.42214 0.2144 0.0
C847 C 0.58948 0.40854 0.27498 0.0
C848 C 0.64657 0.44191 0.34078 0.0
C849 C 0.66756 0.44894 0.28049 0.0
N850 N 0.66845 0.4372 0.16065 0.0
N851 N 0.58989 0.39935 0.39692 0.0
C852 C 0.64938 0.43727 0.2171 0.0
C853 C 0.60799 0.4171 0.33883 0.0
N854 N 0.5935 0.42003 0.15432 0.0
N855 N 0.6637 0.45836 0.40023 0.0
H856 H 0.56234 0.37866 0.39836 0.0
H857 H 0.60342 0.40216 0.44272 0.0
H858 H 0.69204 0.47697 0.40275 0.0
H859 H 0.64927 0.45658 0.44485 0.0
H860 H 0.60811 0.43201 0.10967 0.0
H861 H 0.56508 0.40971 0.15108 0.0
H862 H 0.65583 0.42618 0.11411 0.0
H863 H 0.69582 0.44343 0.1631 0.0
C864 C 0.2059 0.6295 0.73504 0.0
C865 C 0.18744 0.59985 0.78169 0.0
C866 C 0.1989 0.64556 0.87173 0.0
C867 C 0.22231 0.67443 0.82751 0.0
N868 N 0.25703 0.6918 0.72312 0.0
N869 N 0.17667 0.5819 0.9008 0.0
C870 C 0.2282 0.66597 0.76052 0.0
C871 C 0.18636 0.60832 0.85196 0.0
N872 N 0.20197 0.62312 0.66665 0.0
N873 N 0.18911 0.65376 0.933 0.0
H874 H 0.17122 0.55512 0.89054 0.0
H875 H 0.17874 0.58798 0.95263 0.0
H876 H 0.1978 0.68096 0.94824 0.0
H877 H 0.16956 0.63351 0.96499 0.0
H878 H 0.21318 0.64456 0.6313 0.0
H879 H 0.18429 0.597 0.64604 0.0
H880 H 0.26449 0.68563 0.67614 0.0
H881 H 0.27592 0.71773 0.74296 0.0
C882 C 0.56247 0.2405 0.27253 0.0
C883 C 0.55514 0.24342 0.34228 0.0
C884 C 0.59757 0.22145 0.37339 0.0
C885 C 0.60088 0.21366 0.30392 0.0
N886 N 0.58018 0.20936 0.18833 0.0
N887 N 0.5591 0.22817 0.45842 0.0
C888 C 0.58138 0.22123 0.25368 0.0
C889 C 0.57073 0.23133 0.39254 0.0
N890 N 0.55333 0.25792 0.22451 0.0
N891 N 0.62123 0.22137 0.42082 0.0
H892 H 0.53823 0.23356 0.47357 0.0
H893 H 0.56721 0.21634 0.49615 0.0
H894 H 0.64289 0.21666 0.40866 0.0
H895 H 0.62194 0.23015 0.47084 0.0
H896 H 0.56109 0.25956 0.17362 0.0
H897 H 0.54185 0.27438 0.23688 0.0
H898 H 0.56362 0.21127 0.15114 0.0
H899 H 0.59289 0.19436 0.17299 0.0
C900 C 0.35845 0.58568 0.8937 0.0
C901 C 0.37909 0.59332 0.83233 0.0
C902 C 0.32143 0.5543 0.77118 0.0
C903 C 0.30222 0.54258 0.83413 0.0
N904 N 0.3064 0.53857 0.95556 0.0
N905 N 0.38036 0.5765 0.71465 0.0
C906 C 0.32211 0.55543 0.89551 0.0
C907 C 0.3607 0.57501 0.77147 0.0
N908 N 0.37243 0.60839 0.94913 0.0
N909 N 0.30265 0.548 0.7117 0.0
H910 H 0.40914 0.58985 0.7138 0.0
H911 H 0.36788 0.56104 0.67098 0.0
H912 H 0.27405 0.53587 0.70963 0.0
H913 H 0.31586 0.55882 0.66541 0.0
H914 H 0.35682 0.6048 0.99301 0.0
H915 H 0.39753 0.63326 0.94813 0.0
H916 H 0.32103 0.54573 1.00111 0.0
H917 H 0.28044 0.51474 0.95792 0.0
C918 C 0.8226 0.34313 0.29848 0.0
C919 C 0.78507 0.32035 0.31664 0.0
C920 C 0.77116 0.36799 0.28164 0.0
C921 C 0.80838 0.39024 0.25902 0.0
N922 N 0.8682 0.39696 0.23621 0.0
N923 N 0.72203 0.30689 0.31215 0.0
C924 C 0.83383 0.37722 0.26475 0.0
C925 C 0.7589 0.33159 0.30444 0.0
N926 N 0.84735 0.33208 0.31456 0.0
N927 N 0.74776 0.382 0.28434 0.0
H928 H 0.71188 0.27995 0.32951 0.0
H929 H 0.70134 0.31199 0.29575 0.0
H930 H 0.75474 0.40811 0.26676 0.0
H931 H 0.72221 0.36876 0.30892 0.0
H932 H 0.8758 0.34866 0.3085 0.0
H933 H 0.83937 0.30698 0.33884 0.0
H934 H 0.88699 0.38749 0.23334 0.0
H935 H 0.87689 0.42173 0.21025 0.0
loop_
_geom_bond_atom_site_label_1
_geom_bond_atom_site_label_2
_geom_bond_distance
_geom_bond_site_symmetry_2
_ccdc_geom_bond_type
C0 C1 1.351 . S
C0 N3 1.368 . S
C0 H5 0.931 . S
C1 C0 1.351 . S
C1 N2 1.373 . S
C1 H29 0.930 . S
N2 C1 1.373 . S
N2 C4 1.340 . S
N3 C0 1.368 . S
N3 C4 1.321 . S
N3 Co6 2.135 . S
C4 N2 1.340 . S
C4 N3 1.321 . S
C4 H28 0.930 . S
H5 C0 0.931 . S
Co6 N3 2.135 . S
Co6 N9 2.121 . S
Co6 O14 2.055 . S
Co6 O17 2.039 . S
Co6 N20 2.140 . S
C7 O8 1.227 . S
C7 O17 1.265 . S
O8 C7 1.227 . S
N9 Co6 2.121 . S
N9 C11 1.375 . S
N9 C12 1.313 . S
C10 C11 1.338 . S
C10 N13 1.377 . S
C10 H30 0.930 . S
C11 N9 1.375 . S
C11 C10 1.338 . S
C11 H15 0.931 . S
C12 N9 1.313 . S
C12 N13 1.344 . S
C12 H16 0.930 . S
N13 C10 1.377 . S
N13 C12 1.344 . S
O14 Co6 2.055 . S
O14 C18 1.253 . S
H15 C11 0.931 . S
H16 C12 0.930 . S
O17 Co6 2.039 . S
O17 C7 1.265 . S
C18 O14 1.253 . S
C18 O19 1.227 . S
O19 C18 1.227 . S
N20 Co6 2.140 . S
N20 C23 1.346 . S
N20 C24 1.345 . S
C21 C22 1.387 . S
C21 C25 1.391 . S
C22 C21 1.387 . S
C22 C23 1.369 . S
C22 H31 0.929 . S
C23 N20 1.346 . S
C23 C22 1.369 . S
C23 H26 0.928 . S
C24 N20 1.345 . S
C24 C25 1.371 . S
C24 H27 0.931 . S
C25 C21 1.391 . S
C25 C24 1.371 . S
C25 H32 0.930 . S
H26 C23 0.928 . S
H27 C24 0.931 . S
H28 C4 0.930 . S
H29 C1 0.930 . S
H30 C10 0.930 . S
H31 C22 0.929 . S
H32 C25 0.930 . S
C33 C34 1.351 . S
C33 N36 1.368 . S
C33 H38 0.931 . S
C34 C33 1.351 . S
C34 N35 1.373 . S
C34 H62 0.930 . S
N35 C34 1.373 . S
N35 C37 1.340 . S
N36 C33 1.368 . S
N36 C37 1.321 . S
N36 Co39 2.135 . S
C37 N35 1.340 . S
C37 N36 1.321 . S
C37 H61 0.930 . S
H38 C33 0.931 . S
Co39 N36 2.135 . S
Co39 N42 2.121 . S
Co39 O47 2.055 . S
Co39 O50 2.039 . S
Co39 N53 2.140 . S
C40 O41 1.227 . S
C40 O50 1.265 . S
O41 C40 1.227 . S
N42 Co39 2.121 . S
N42 C44 1.375 . S
N42 C45 1.313 . S
C43 C44 1.338 . S
C43 N46 1.377 . S
C43 H63 0.930 . S
C44 N42 1.375 . S
C44 C43 1.338 . S
C44 H48 0.931 . S
C45 N42 1.313 . S
C45 N46 1.344 . S
C45 H49 0.930 . S
N46 C43 1.377 . S
N46 C45 1.344 . S
O47 Co39 2.055 . S
O47 C51 1.253 . S
H48 C44 0.931 . S
H49 C45 0.930 . S
O50 Co39 2.039 . S
O50 C40 1.265 . S
C51 O47 1.253 . S
C51 O52 1.227 . S
O52 C51 1.227 . S
N53 Co39 2.140 . S
N53 C56 1.346 . S
N53 C57 1.345 . S
C54 C55 1.387 . S
C54 C58 1.391 . S
C55 C54 1.387 . S
C55 C56 1.369 . S
C55 H64 0.929 . S
C56 N53 1.346 . S
C56 C55 1.369 . S
C56 H59 0.928 . S
C57 N53 1.345 . S
C57 C58 1.371 . S
C57 H60 0.931 . S
C58 C54 1.391 . S
C58 C57 1.371 . S
C58 H65 0.930 . S
H59 C56 0.928 . S
H60 C57 0.931 . S
H61 C37 0.930 . S
H62 C34 0.930 . S
H63 C43 0.930 . S
H64 C55 0.929 . S
H65 C58 0.930 . S
C66 C67 1.351 . S
C66 N69 1.368 . S
C66 H71 0.931 . S
C67 C66 1.351 . S
C67 N68 1.373 . S
C67 H95 0.930 . S
N68 C67 1.373 . S
N68 C70 1.340 . S
N69 C66 1.368 . S
N69 C70 1.321 . S
N69 Co72 2.135 . S
C70 N68 1.340 . S
C70 N69 1.321 . S
C70 H94 0.930 . S
H71 C66 0.931 . S
Co72 N69 2.135 . S
Co72 N75 2.121 . S
Co72 O80 2.055 . S
Co72 O83 2.039 . S
Co72 N86 2.140 . S
C73 O74 1.227 . S
C73 O83 1.265 . S
O74 C73 1.227 . S
N75 Co72 2.121 . S
N75 C77 1.375 . S
N75 C78 1.313 . S
C76 C77 1.338 . S
C76 N79 1.377 . S
C76 H96 0.930 . S
C77 N75 1.375 . S
C77 C76 1.338 . S
C77 H81 0.931 . S
C78 N75 1.313 . S
C78 N79 1.344 . S
C78 H82 0.930 . S
N79 C76 1.377 . S
N79 C78 1.344 . S
O80 Co72 2.055 . S
O80 C84 1.253 . S
H81 C77 0.931 . S
H82 C78 0.930 . S
O83 Co72 2.039 . S
O83 C73 1.265 . S
C84 O80 1.253 . S
C84 O85 1.227 . S
O85 C84 1.227 . S
N86 Co72 2.140 . S
N86 C89 1.346 . S
N86 C90 1.345 . S
C87 C88 1.387 . S
C87 C91 1.391 . S
C88 C87 1.387 . S
C88 C89 1.369 . S
C88 H97 0.929 . S
C89 N86 1.346 . S
C89 C88 1.369 . S
C89 H92 0.928 . S
C90 N86 1.345 . S
C90 C91 1.371 . S
C90 H93 0.931 . S
C91 C87 1.391 . S
C91 C90 1.371 . S
C91 H98 0.930 . S
H92 C89 0.928 . S
H93 C90 0.931 . S
H94 C70 0.930 . S
H95 C67 0.930 . S
H96 C76 0.930 . S
H97 C88 0.929 . S
H98 C91 0.930 . S
C99 C100 1.351 . S
C99 N102 1.368 . S
C99 H104 0.931 . S
C100 C99 1.351 . S
C100 N101 1.373 . S
C100 H128 0.930 . S
N101 C100 1.373 . S
N101 C103 1.340 . S
N102 C99 1.368 . S
N102 C103 1.321 . S
N102 Co105 2.135 . S
C103 N101 1.340 . S
C103 N102 1.321 . S
C103 H127 0.930 . S
H104 C99 0.931 . S
Co105 N102 2.135 . S
Co105 N108 2.121 . S
Co105 O113 2.055 . S
Co105 O116 2.039 . S
Co105 N119 2.140 . S
C106 O107 1.227 . S
C106 O116 1.265 . S
O107 C106 1.227 . S
N108 Co105 2.121 . S
N108 C110 1.375 . S
N108 C111 1.313 . S
C109 C110 1.338 . S
C109 N112 1.377 . S
C109 H129 0.930 . S
C110 N108 1.375 . S
C110 C109 1.338 . S
C110 H114 0.931 . S
C111 N108 1.313 . S
C111 N112 1.344 . S
C111 H115 0.930 . S
N112 C109 1.377 . S
N112 C111 1.344 . S
O113 Co105 2.055 . S
O113 C117 1.253 . S
H114 C110 0.931 . S
H115 C111 0.930 . S
O116 Co105 2.039 . S
O116 C106 1.265 . S
C117 O113 1.253 . S
C117 O118 1.227 . S
O118 C117 1.227 . S
N119 Co105 2.140 . S
N119 C122 1.346 . S
N119 C123 1.345 . S
C120 C121 1.387 . S
C120 C124 1.391 . S
C121 C120 1.387 . S
C121 C122 1.369 . S
C121 H130 0.929 . S
C122 N119 1.346 . S
C122 C121 1.369 . S
C122 H125 0.928 . S
C123 N119 1.345 . S
C123 C124 1.371 . S
C123 H126 0.931 . S
C124 C120 1.391 . S
C124 C123 1.371 . S
C124 H131 0.930 . S
H125 C122 0.928 . S
H126 C123 0.931 . S
H127 C103 0.930 . S
H128 C100 0.930 . S
H129 C109 0.930 . S
H130 C121 0.929 . S
H131 C124 0.930 . S
C132 C133 1.351 . S
C132 N135 1.368 . S
C132 H137 0.931 . S
C133 C132 1.351 . S
C133 N134 1.373 . S
C133 H161 0.930 . S
N134 C133 1.373 . S
N134 C136 1.340 . S
N135 C132 1.368 . S
N135 C136 1.321 . S
N135 Co138 2.135 . S
C136 N134 1.340 . S
C136 N135 1.321 . S
C136 H160 0.930 . S
H137 C132 0.931 . S
Co138 N135 2.135 . S
Co138 N141 2.121 . S
Co138 O146 2.055 . S
Co138 O149 2.039 . S
Co138 N152 2.140 . S
C139 O140 1.227 . S
C139 O149 1.265 . S
O140 C139 1.227 . S
N141 Co138 2.121 . S
N141 C143 1.375 . S
N141 C144 1.313 . S
C142 C143 1.338 . S
C142 N145 1.377 . S
C142 H162 0.930 . S
C143 N141 1.375 . S
C143 C142 1.338 . S
C143 H147 0.931 . S
C144 N141 1.313 . S
C144 N145 1.344 . S
C144 H148 0.930 . S
N145 C142 1.377 . S
N145 C144 1.344 . S
O146 Co138 2.055 . S
O146 C150 1.253 . S
H147 C143 0.931 . S
H148 C144 0.930 . S
O149 Co138 2.039 . S
O149 C139 1.265 . S
C150 O146 1.253 . S
C150 O151 1.227 . S
O151 C150 1.227 . S
N152 Co138 2.140 . S
N152 C155 1.346 . S
N152 C156 1.345 . S
C153 C154 1.387 . S
C153 C157 1.391 . S
C154 C153 1.387 . S
C154 C155 1.369 . S
C154 H163 0.929 . S
C155 N152 1.346 . S
C155 C154 1.369 . S
C155 H158 0.928 . S
C156 N152 1.345 . S
C156 C157 1.371 . S
C156 H159 0.931 . S
C157 C153 1.391 . S
C157 C156 1.371 . S
C157 H164 0.930 . S
H158 C155 0.928 . S
H159 C156 0.931 . S
H160 C136 0.930 . S
H161 C133 0.930 . S
H162 C142 0.930 . S
H163 C154 0.929 . S
H164 C157 0.930 . S
C165 C166 1.351 . S
C165 N168 1.368 . S
C165 H170 0.931 . S
C166 C165 1.351 . S
C166 N167 1.373 . S
C166 H194 0.930 . S
N167 C166 1.373 . S
N167 C169 1.340 . S
N168 C165 1.368 . S
N168 C169 1.321 . S
N168 Co171 2.135 . S
C169 N167 1.340 . S
C169 N168 1.321 . S
C169 H193 0.930 . S
H170 C165 0.931 . S
Co171 N168 2.135 . S
Co171 N174 2.121 . S
Co171 O179 2.055 . S
Co171 O182 2.039 . S
Co171 N185 2.140 . S
C172 O173 1.227 . S
C172 O182 1.265 . S
O173 C172 1.227 . S
N174 Co171 2.121 . S
N174 C176 1.375 . S
N174 C177 1.313 . S
C175 C176 1.338 . S
C175 N178 1.377 . S
C175 H195 0.930 . S
C176 N174 1.375 . S
C176 C175 1.338 . S
C176 H180 0.931 . S
C177 N174 1.313 . S
C177 N178 1.344 . S
C177 H181 0.930 . S
N178 C175 1.377 . S
N178 C177 1.344 . S
O179 Co171 2.055 . S
O179 C183 1.253 . S
H180 C176 0.931 . S
H181 C177 0.930 . S
O182 Co171 2.039 . S
O182 C172 1.265 . S
C183 O179 1.253 . S
C183 O184 1.227 . S
O184 C183 1.227 . S
N185 Co171 2.140 . S
N185 C188 1.346 . S
N185 C189 1.345 . S
C186 C187 1.387 . S
C186 C190 1.391 . S
C187 C186 1.387 . S
C187 C188 1.369 . S
C187 H196 0.929 . S
C188 N185 1.346 . S
C188 C187 1.369 . S
C188 H191 0.928 . S
C189 N185 1.345 . S
C189 C190 1.371 . S
C189 H192 0.931 . S
C190 C186 1.391 . S
C190 C189 1.371 . S
C190 H197 0.930 . S
H191 C188 0.928 . S
H192 C189 0.931 . S
H193 C169 0.930 . S
H194 C166 0.930 . S
H195 C175 0.930 . S
H196 C187 0.929 . S
H197 C190 0.930 . S
C198 C199 1.351 . S
C198 N201 1.368 . S
C198 H203 0.931 . S
C199 C198 1.351 . S
C199 N200 1.373 . S
C199 H227 0.930 . S
N200 C199 1.373 . S
N200 C202 1.340 . S
N201 C198 1.368 . S
N201 C202 1.321 . S
N201 Co204 2.135 . S
C202 N200 1.340 . S
C202 N201 1.321 . S
C202 H226 0.930 . S
H203 C198 0.931 . S
Co204 N201 2.135 . S
Co204 N207 2.121 . S
Co204 O212 2.055 . S
Co204 O215 2.039 . S
Co204 N218 2.140 . S
C205 O206 1.227 . S
C205 O215 1.265 . S
O206 C205 1.227 . S
N207 Co204 2.121 . S
N207 C209 1.375 . S
N207 C210 1.313 . S
C208 C209 1.338 . S
C208 N211 1.377 . S
C208 H228 0.930 . S
C209 N207 1.375 . S
C209 C208 1.338 . S
C209 H213 0.931 . S
C210 N207 1.313 . S
C210 N211 1.344 . S
C210 H214 0.930 . S
N211 C208 1.377 . S
N211 C210 1.344 . S
O212 Co204 2.055 . S
O212 C216 1.253 . S
H213 C209 0.931 . S
H214 C210 0.930 . S
O215 Co204 2.039 . S
O215 C205 1.265 . S
C216 O212 1.253 . S
C216 O217 1.227 . S
O217 C216 1.227 . S
N218 Co204 2.140 . S
N218 C221 1.346 . S
N218 C222 1.345 . S
C219 C220 1.387 . S
C219 C223 1.391 . S
C220 C219 1.387 . S
C220 C221 1.369 . S
C220 H229 0.929 . S
C221 N218 1.346 . S
C221 C220 1.369 . S
C221 H224 0.928 . S
C222 N218 1.345 . S
C222 C223 1.371 . S
C222 H225 0.931 . S
C223 C219 1.391 . S
C223 C222 1.371 . S
C223 H230 0.930 . S
H224 C221 0.928 . S
H225 C222 0.931 . S
H226 C202 0.930 . S
H227 C199 0.930 . S
H228 C208 0.930 . S
H229 C220 0.929 . S
H230 C223 0.930 . S
C231 C232 1.351 . S
C231 N234 1.368 . S
C231 H236 0.931 . S
C232 C231 1.351 . S
C232 N233 1.373 . S
C232 H260 0.930 . S
N233 C232 1.373 . S
N233 C235 1.340 . S
N234 C231 1.368 . S
N234 C235 1.321 . S
N234 Co237 2.135 . S
C235 N233 1.340 . S
C235 N234 1.321 . S
C235 H259 0.930 . S
H236 C231 0.931 . S
Co237 N234 2.135 . S
Co237 N240 2.121 . S
Co237 O245 2.055 . S
Co237 O248 2.039 . S
Co237 N251 2.140 . S
C238 O239 1.227 . S
C238 O248 1.265 . S
O239 C238 1.227 . S
N240 Co237 2.121 . S
N240 C242 1.375 . S
N240 C243 1.313 . S
C241 C242 1.338 . S
C241 N244 1.377 . S
C241 H261 0.930 . S
C242 N240 1.375 . S
C242 C241 1.338 . S
C242 H246 0.931 . S
C243 N240 1.313 . S
C243 N244 1.344 . S
C243 H247 0.930 . S
N244 C241 1.377 . S
N244 C243 1.344 . S
O245 Co237 2.055 . S
O245 C249 1.253 . S
H246 C242 0.931 . S
H247 C243 0.930 . S
O248 Co237 2.039 . S
O248 C238 1.265 . S
C249 O245 1.253 . S
C249 O250 1.227 . S
O250 C249 1.227 . S
N251 Co237 2.140 . S
N251 C254 1.346 . S
N251 C255 1.345 . S
C252 C253 1.387 . S
C252 C256 1.391 . S
C253 C252 1.387 . S
C253 C254 1.369 . S
C253 H262 0.929 . S
C254 N251 1.346 . S
C254 C253 1.369 . S
C254 H257 0.928 . S
C255 N251 1.345 . S
C255 C256 1.371 . S
C255 H258 0.931 . S
C256 C252 1.391 . S
C256 C255 1.371 . S
C256 H263 0.930 . S
H257 C254 0.928 . S
H258 C255 0.931 . S
H259 C235 0.930 . S
H260 C232 0.930 . S
H261 C241 0.930 . S
H262 C253 0.929 . S
H263 C256 0.930 . S
C264 C265 1.351 . S
C264 N267 1.368 . S
C264 H269 0.931 . S
C265 C264 1.351 . S
C265 N266 1.373 . S
C265 H293 0.930 . S
N266 C265 1.373 . S
N266 C268 1.340 . S
N267 C264 1.368 . S
N267 C268 1.321 . S
N267 Co270 2.135 . S
C268 N266 1.340 . S
C268 N267 1.321 . S
C268 H292 0.930 . S
H269 C264 0.931 . S
Co270 N267 2.135 . S
Co270 N273 2.121 . S
Co270 O278 2.055 . S
Co270 O281 2.039 . S
Co270 N284 2.140 . S
C271 O272 1.227 . S
C271 O281 1.265 . S
O272 C271 1.227 . S
N273 Co270 2.121 . S
N273 C275 1.375 . S
N273 C276 1.313 . S
C274 C275 1.338 . S
C274 N277 1.377 . S
C274 H294 0.930 . S
C275 N273 1.375 . S
C275 C274 1.338 . S
C275 H279 0.931 . S
C276 N273 1.313 . S
C276 N277 1.344 . S
C276 H280 0.930 . S
N277 C274 1.377 . S
N277 C276 1.344 . S
O278 Co270 2.055 . S
O278 C282 1.253 . S
H279 C275 0.931 . S
H280 C276 0.930 . S
O281 Co270 2.039 . S
O281 C271 1.265 . S
C282 O278 1.253 . S
C282 O283 1.227 . S
O283 C282 1.227 . S
N284 Co270 2.140 . S
N284 C287 1.346 . S
N284 C288 1.345 . S
C285 C286 1.387 . S
C285 C289 1.391 . S
C286 C285 1.387 . S
C286 C287 1.369 . S
C286 H295 0.929 . S
C287 N284 1.346 . S
C287 C286 1.369 . S
C287 H290 0.928 . S
C288 N284 1.345 . S
C288 C289 1.371 . S
C288 H291 0.931 . S
C289 C285 1.391 . S
C289 C288 1.371 . S
C289 H296 0.930 . S
H290 C287 0.928 . S
H291 C288 0.931 . S
H292 C268 0.930 . S
H293 C265 0.930 . S
H294 C274 0.930 . S
H295 C286 0.929 . S
H296 C289 0.930 . S
C297 C298 1.351 . S
C297 N300 1.368 . S
C297 H302 0.931 . S
C298 C297 1.351 . S
C298 N299 1.373 . S
C298 H326 0.930 . S
N299 C298 1.373 . S
N299 C301 1.340 . S
N300 C297 1.368 . S
N300 C301 1.321 . S
N300 Co303 2.135 . S
C301 N299 1.340 . S
C301 N300 1.321 . S
C301 H325 0.930 . S
H302 C297 0.931 . S
Co303 N300 2.135 . S
Co303 N306 2.121 . S
Co303 O311 2.055 . S
Co303 O314 2.039 . S
Co303 N317 2.140 . S
C304 O305 1.227 . S
C304 O314 1.265 . S
O305 C304 1.227 . S
N306 Co303 2.121 . S
N306 C308 1.375 . S
N306 C309 1.313 . S
C307 C308 1.338 . S
C307 N310 1.377 . S
C307 H327 0.930 . S
C308 N306 1.375 . S
C308 C307 1.338 . S
C308 H312 0.931 . S
C309 N306 1.313 . S
C309 N310 1.344 . S
C309 H313 0.930 . S
N310 C307 1.377 . S
N310 C309 1.344 . S
O311 Co303 2.055 . S
O311 C315 1.253 . S
H312 C308 0.931 . S
H313 C309 0.930 . S
O314 Co303 2.039 . S
O314 C304 1.265 . S
C315 O311 1.253 . S
C315 O316 1.227 . S
O316 C315 1.227 . S
N317 Co303 2.140 . S
N317 C320 1.346 . S
N317 C321 1.345 . S
C318 C319 1.387 . S
C318 C322 1.391 . S
C319 C318 1.387 . S
C319 C320 1.369 . S
C319 H328 0.929 . S
C320 N317 1.346 . S
C320 C319 1.369 . S
C320 H323 0.928 . S
C321 N317 1.345 . S
C321 C322 1.371 . S
C321 H324 0.931 . S
C322 C318 1.391 . S
C322 C321 1.371 . S
C322 H329 0.930 . S
H323 C320 0.928 . S
H324 C321 0.931 . S
H325 C301 0.930 . S
H326 C298 0.930 . S
H327 C307 0.930 . S
H328 C319 0.929 . S
H329 C322 0.930 . S
C330 C331 1.351 . S
C330 N333 1.368 . S
C330 H335 0.931 . S
C331 C330 1.351 . S
C331 N332 1.373 . S
C331 H359 0.930 . S
N332 C331 1.373 . S
N332 C334 1.340 . S
N333 C330 1.368 . S
N333 C334 1.321 . S
N333 Co336 2.135 . S
C334 N332 1.340 . S
C334 N333 1.321 . S
C334 H358 0.930 . S
H335 C330 0.931 . S
Co336 N333 2.135 . S
Co336 N339 2.121 . S
Co336 O344 2.055 . S
Co336 O347 2.039 . S
Co336 N350 2.140 . S
C337 O338 1.227 . S
C337 O347 1.265 . S
O338 C337 1.227 . S
N339 Co336 2.121 . S
N339 C341 1.375 . S
N339 C342 1.313 . S
C340 C341 1.338 . S
C340 N343 1.377 . S
C340 H360 0.930 . S
C341 N339 1.375 . S
C341 C340 1.338 . S
C341 H345 0.931 . S
C342 N339 1.313 . S
C342 N343 1.344 . S
C342 H346 0.930 . S
N343 C340 1.377 . S
N343 C342 1.344 . S
O344 Co336 2.055 . S
O344 C348 1.253 . S
H345 C341 0.931 . S
H346 C342 0.930 . S
O347 Co336 2.039 . S
O347 C337 1.265 . S
C348 O344 1.253 . S
C348 O349 1.227 . S
O349 C348 1.227 . S
N350 Co336 2.140 . S
N350 C353 1.346 . S
N350 C354 1.345 . S
C351 C352 1.387 . S
C351 C355 1.391 . S
C352 C351 1.387 . S
C352 C353 1.369 . S
C352 H361 0.929 . S
C353 N350 1.346 . S
C353 C352 1.369 . S
C353 H356 0.928 . S
C354 N350 1.345 . S
C354 C355 1.371 . S
C354 H357 0.931 . S
C355 C351 1.391 . S
C355 C354 1.371 . S
C355 H362 0.930 . S
H356 C353 0.928 . S
H357 C354 0.931 . S
H358 C334 0.930 . S
H359 C331 0.930 . S
H360 C340 0.930 . S
H361 C352 0.929 . S
H362 C355 0.930 . S
C363 C364 1.351 . S
C363 N366 1.368 . S
C363 H368 0.931 . S
C364 C363 1.351 . S
C364 N365 1.373 . S
C364 H392 0.930 . S
N365 C364 1.373 . S
N365 C367 1.340 . S
N366 C363 1.368 . S
N366 C367 1.321 . S
N366 Co369 2.135 . S
C367 N365 1.340 . S
C367 N366 1.321 . S
C367 H391 0.930 . S
H368 C363 0.931 . S
Co369 N366 2.135 . S
Co369 N372 2.121 . S
Co369 O377 2.055 . S
Co369 O380 2.039 . S
Co369 N383 2.140 . S
C370 O371 1.227 . S
C370 O380 1.265 . S
O371 C370 1.227 . S
N372 Co369 2.121 . S
N372 C374 1.375 . S
N372 C375 1.313 . S
C373 C374 1.338 . S
C373 N376 1.377 . S
C373 H393 0.930 . S
C374 N372 1.375 . S
C374 C373 1.338 . S
C374 H378 0.931 . S
C375 N372 1.313 . S
C375 N376 1.344 . S
C375 H379 0.930 . S
N376 C373 1.377 . S
N376 C375 1.344 . S
O377 Co369 2.055 . S
O377 C381 1.253 . S
H378 C374 0.931 . S
H379 C375 0.930 . S
O380 Co369 2.039 . S
O380 C370 1.265 . S
C381 O377 1.253 . S
C381 O382 1.227 . S
O382 C381 1.227 . S
N383 Co369 2.140 . S
N383 C386 1.346 . S
N383 C387 1.345 . S
C384 C385 1.387 . S
C384 C388 1.391 . S
C385 C384 1.387 . S
C385 C386 1.369 . S
C385 H394 0.929 . S
C386 N383 1.346 . S
C386 C385 1.369 . S
C386 H389 0.928 . S
C387 N383 1.345 . S
C387 C388 1.371 . S
C387 H390 0.931 . S
C388 C384 1.391 . S
C388 C387 1.371 . S
C388 H395 0.930 . S
H389 C386 0.928 . S
H390 C387 0.931 . S
H391 C367 0.930 . S
H392 C364 0.930 . S
H393 C373 0.930 . S
H394 C385 0.929 . S
H395 C388 0.930 . S
C396 C397 1.363 . S
C396 C402 1.379 . S
C396 N404 1.356 . S
C397 C396 1.363 . S
C397 C403 1.363 . S
C398 C399 1.363 . S
C398 C403 1.379 . S
C398 N405 1.356 . S
C399 C398 1.363 . S
C399 C402 1.363 . S
N400 C402 1.356 . S
N400 H412 0.984 . S
N400 H413 0.985 . S
N401 C403 1.356 . S
N401 H406 0.984 . S
N401 H407 0.985 . S
C402 C396 1.379 . S
C402 C399 1.363 . S
C402 N400 1.356 . S
C403 C397 1.363 . S
C403 C398 1.379 . S
C403 N401 1.356 . S
N404 C396 1.356 . S
N404 H410 0.984 . S
N404 H411 0.984 . S
N405 C398 1.356 . S
N405 H408 0.984 . S
N405 H409 0.985 . S
H406 N401 0.984 . S
H407 N401 0.985 . S
H408 N405 0.984 . S
H409 N405 0.985 . S
H410 N404 0.984 . S
H411 N404 0.984 . S
H412 N400 0.984 . S
H413 N400 0.985 . S
C414 C415 1.363 . S
C414 C420 1.379 1_655 S
C414 N422 1.356 . S
C415 C414 1.363 . S
C415 C421 1.363 . S
C416 C417 1.363 . S
C416 C421 1.379 1_455 S
C416 N423 1.356 . S
C417 C416 1.363 . S
C417 C420 1.363 . S
N418 C420 1.356 . S
N418 H430 0.984 . S
N418 H431 0.985 . S
N419 C421 1.356 . S
N419 H424 0.984 . S
N419 H425 0.985 . S
C420 C414 1.379 1_455 S
C420 C417 1.363 . S
C420 N418 1.356 . S
C421 C415 1.363 . S
C421 C416 1.379 1_655 S
C421 N419 1.356 . S
N422 C414 1.356 . S
N422 H428 0.984 . S
N422 H429 0.984 . S
N423 C416 1.356 . S
N423 H426 0.984 . S
N423 H427 0.985 . S
H424 N419 0.984 . S
H425 N419 0.985 . S
H426 N423 0.984 . S
H427 N423 0.985 . S
H428 N422 0.984 . S
H429 N422 0.984 . S
H430 N418 0.984 . S
H431 N418 0.985 . S
C432 C433 1.363 . S
C432 C438 1.379 1_545 S
C432 N440 1.356 . S
C433 C432 1.363 . S
C433 C439 1.363 . S
C434 C435 1.363 . S
C434 C439 1.379 1_565 S
C434 N441 1.356 . S
C435 C434 1.363 . S
C435 C438 1.363 . S
N436 C438 1.356 . S
N436 H448 0.984 . S
N436 H449 0.985 . S
N437 C439 1.356 . S
N437 H442 0.984 . S
N437 H443 0.985 . S
C438 C432 1.379 1_565 S
C438 C435 1.363 . S
C438 N436 1.356 . S
C439 C433 1.363 . S
C439 C434 1.379 1_545 S
C439 N437 1.356 . S
N440 C432 1.356 . S
N440 H446 0.984 . S
N440 H447 0.984 . S
N441 C434 1.356 . S
N441 H444 0.984 . S
N441 H445 0.985 . S
H442 N437 0.984 . S
H443 N437 0.985 . S
H444 N441 0.984 . S
H445 N441 0.985 . S
H446 N440 0.984 . S
H447 N440 0.984 . S
H448 N436 0.984 . S
H449 N436 0.985 . S
C450 C451 1.363 . S
C450 C456 1.379 . S
C450 N458 1.356 . S
C451 C450 1.363 . S
C451 C457 1.363 . S
C452 C453 1.363 . S
C452 C457 1.379 . S
C452 N459 1.356 . S
C453 C452 1.363 . S
C453 C456 1.363 . S
N454 C456 1.356 . S
N454 H466 0.984 . S
N454 H467 0.985 . S
N455 C457 1.356 . S
N455 H460 0.984 . S
N455 H461 0.985 . S
C456 C450 1.379 . S
C456 C453 1.363 . S
C456 N454 1.356 . S
C457 C451 1.363 . S
C457 C452 1.379 . S
C457 N455 1.356 . S
N458 C450 1.356 . S
N458 H464 0.984 . S
N458 H465 0.984 . S
N459 C452 1.356 . S
N459 H462 0.984 . S
N459 H463 0.985 . S
H460 N455 0.984 . S
H461 N455 0.985 . S
H462 N459 0.984 . S
H463 N459 0.985 . S
H464 N458 0.984 . S
H465 N458 0.984 . S
H466 N454 0.984 . S
H467 N454 0.985 . S
C468 C469 1.363 . S
C468 C474 1.379 1_455 S
C468 N476 1.356 . S
C469 C468 1.363 . S
C469 C475 1.363 . S
C470 C471 1.363 . S
C470 C475 1.379 1_655 S
C470 N477 1.356 . S
C471 C470 1.363 . S
C471 C474 1.363 . S
N472 C474 1.356 . S
N472 H484 0.984 . S
N472 H485 0.985 . S
N473 C475 1.356 . S
N473 H478 0.984 . S
N473 H479 0.985 . S
C474 C468 1.379 1_655 S
C474 C471 1.363 . S
C474 N472 1.356 . S
C475 C469 1.363 . S
C475 C470 1.379 1_455 S
C475 N473 1.356 . S
N476 C468 1.356 . S
N476 H482 0.984 . S
N476 H483 0.984 . S
N477 C470 1.356 . S
N477 H480 0.984 . S
N477 H481 0.985 . S
H478 N473 0.984 . S
H479 N473 0.985 . S
H480 N477 0.984 . S
H481 N477 0.985 . S
H482 N476 0.984 . S
H483 N476 0.984 . S
H484 N472 0.984 . S
H485 N472 0.985 . S
C486 C487 1.363 . S
C486 C492 1.379 1_565 S
C486 N494 1.356 . S
C487 C486 1.363 . S
C487 C493 1.363 . S
C488 C489 1.363 . S
C488 C493 1.379 1_545 S
C488 N495 1.356 . S
C489 C488 1.363 . S
C489 C492 1.363 . S
N490 C492 1.356 . S
N490 H502 0.984 . S
N490 H503 0.985 . S
N491 C493 1.356 . S
N491 H496 0.984 . S
N491 H497 0.985 . S
C492 C486 1.379 1_545 S
C492 C489 1.363 . S
C492 N490 1.356 . S
C493 C487 1.363 . S
C493 C488 1.379 1_565 S
C493 N491 1.356 . S
N494 C486 1.356 . S
N494 H500 0.984 . S
N494 H501 0.984 . S
N495 C488 1.356 . S
N495 H498 0.984 . S
N495 H499 0.985 . S
H496 N491 0.984 . S
H497 N491 0.985 . S
H498 N495 0.984 . S
H499 N495 0.985 . S
H500 N494 0.984 . S
H501 N494 0.984 . S
H502 N490 0.984 . S
H503 N490 0.985 . S
C504 C505 1.363 . S
C504 C510 1.379 1_556 S
C504 N512 1.356 . S
C505 C504 1.363 . S
C505 C511 1.363 . S
C506 C507 1.363 . S
C506 C511 1.379 1_554 S
C506 N513 1.356 . S
C507 C506 1.363 . S
C507 C510 1.363 . S
N508 C510 1.356 . S
N508 H520 0.984 . S
N508 H521 0.985 . S
N509 C511 1.356 . S
N509 H514 0.984 . S
N509 H515 0.985 . S
C510 C504 1.379 1_554 S
C510 C507 1.363 . S
C510 N508 1.356 . S
C511 C505 1.363 . S
C511 C506 1.379 1_556 S
C511 N509 1.356 . S
N512 C504 1.356 . S
N512 H518 0.984 . S
N512 H519 0.984 . S
N513 C506 1.356 . S
N513 H516 0.984 . S
N513 H517 0.985 . S
H514 N509 0.984 . S
H515 N509 0.985 . S
H516 N513 0.984 . S
H517 N513 0.985 . S
H518 N512 0.984 . S
H519 N512 0.984 . S
H520 N508 0.984 . S
H521 N508 0.985 . S
C522 C523 1.363 . S
C522 C528 1.379 . S
C522 N530 1.356 . S
C523 C522 1.363 . S
C523 C529 1.363 . S
C524 C525 1.363 . S
C524 C529 1.379 . S
C524 N531 1.356 . S
C525 C524 1.363 . S
C525 C528 1.363 . S
N526 C528 1.356 . S
N526 H538 0.984 . S
N526 H539 0.985 . S
N527 C529 1.356 . S
N527 H532 0.984 . S
N527 H533 0.985 . S
C528 C522 1.379 . S
C528 C525 1.363 . S
C528 N526 1.356 . S
C529 C523 1.363 . S
C529 C524 1.379 . S
C529 N527 1.356 . S
N530 C522 1.356 . S
N530 H536 0.984 . S
N530 H537 0.984 . S
N531 C524 1.356 . S
N531 H534 0.984 . S
N531 H535 0.985 . S
H532 N527 0.984 . S
H533 N527 0.985 . S
H534 N531 0.984 . S
H535 N531 0.985 . S
H536 N530 0.984 . S
H537 N530 0.984 . S
H538 N526 0.984 . S
H539 N526 0.985 . S
C540 C541 1.363 . S
C540 C546 1.379 1_554 S
C540 N548 1.356 . S
C541 C540 1.363 . S
C541 C547 1.363 . S
C542 C543 1.363 . S
C542 C547 1.379 1_556 S
C542 N549 1.356 . S
C543 C542 1.363 . S
C543 C546 1.363 . S
N544 C546 1.356 . S
N544 H556 0.984 . S
N544 H557 0.985 . S
N545 C547 1.356 . S
N545 H550 0.984 . S
N545 H551 0.985 . S
C546 C540 1.379 1_556 S
C546 C543 1.363 . S
C546 N544 1.356 . S
C547 C541 1.363 . S
C547 C542 1.379 1_554 S
C547 N545 1.356 . S
N548 C540 1.356 . S
N548 H554 0.984 . S
N548 H555 0.984 . S
N549 C542 1.356 . S
N549 H552 0.984 . S
N549 H553 0.985 . S
H550 N545 0.984 . S
H551 N545 0.985 . S
H552 N549 0.984 . S
H553 N549 0.985 . S
H554 N548 0.984 . S
H555 N548 0.984 . S
H556 N544 0.984 . S
H557 N544 0.985 . S
C558 C559 1.363 . S
C558 C564 1.379 . S
C558 N566 1.356 . S
C559 C558 1.363 . S
C559 C565 1.363 . S
C560 C561 1.363 . S
C560 C565 1.379 . S
C560 N567 1.356 . S
C561 C560 1.363 . S
C561 C564 1.363 . S
N562 C564 1.356 . S
N562 H574 0.984 . S
N562 H575 0.985 . S
N563 C565 1.356 . S
N563 H568 0.984 . S
N563 H569 0.985 . S
C564 C558 1.379 . S
C564 C561 1.363 . S
C564 N562 1.356 . S
C565 C559 1.363 . S
C565 C560 1.379 . S
C565 N563 1.356 . S
N566 C558 1.356 . S
N566 H572 0.984 . S
N566 H573 0.984 . S
N567 C560 1.356 . S
N567 H570 0.984 . S
N567 H571 0.985 . S
H568 N563 0.984 . S
H569 N563 0.985 . S
H570 N567 0.984 . S
H571 N567 0.985 . S
H572 N566 0.984 . S
H573 N566 0.984 . S
H574 N562 0.984 . S
H575 N562 0.985 . S
C576 C577 1.363 . S
C576 C582 1.379 1_556 S
C576 N584 1.356 . S
C577 C576 1.363 . S
C577 C583 1.363 . S
C578 C579 1.363 . S
C578 C583 1.379 1_554 S
C578 N585 1.356 . S
C579 C578 1.363 . S
C579 C582 1.363 . S
N580 C582 1.356 . S
N580 H592 0.984 . S
N580 H593 0.985 . S
N581 C583 1.356 . S
N581 H586 0.984 . S
N581 H587 0.985 . S
C582 C576 1.379 1_554 S
C582 C579 1.363 . S
C582 N580 1.356 . S
C583 C577 1.363 . S
C583 C578 1.379 1_556 S
C583 N581 1.356 . S
N584 C576 1.356 . S
N584 H590 0.984 . S
N584 H591 0.984 . S
N585 C578 1.356 . S
N585 H588 0.984 . S
N585 H589 0.985 . S
H586 N581 0.984 . S
H587 N581 0.985 . S
H588 N585 0.984 . S
H589 N585 0.985 . S
H590 N584 0.984 . S
H591 N584 0.984 . S
H592 N580 0.984 . S
H593 N580 0.985 . S
C594 C595 1.363 . S
C594 C600 1.379 . S
C594 N602 1.356 . S
C595 C594 1.363 . S
C595 C601 1.363 . S
C596 C597 1.363 . S
C596 C601 1.379 . S
C596 N603 1.356 . S
C597 C596 1.363 . S
C597 C600 1.363 . S
N598 C600 1.356 . S
N598 H610 0.984 . S
N598 H611 0.985 . S
N599 C601 1.356 . S
N599 H604 0.984 . S
N599 H605 0.985 . S
C600 C594 1.379 . S
C600 C597 1.363 . S
C600 N598 1.356 . S
C601 C595 1.363 . S
C601 C596 1.379 . S
C601 N599 1.356 . S
N602 C594 1.356 . S
N602 H608 0.984 . S
N602 H609 0.984 . S
N603 C596 1.356 . S
N603 H606 0.984 . S
N603 H607 0.985 . S
H604 N599 0.984 . S
H605 N599 0.985 . S
H606 N603 0.984 . S
H607 N603 0.985 . S
H608 N602 0.984 . S
H609 N602 0.984 . S
H610 N598 0.984 . S
H611 N598 0.985 . S
C612 C613 1.363 . S
C612 C618 1.379 1_554 S
C612 N620 1.356 . S
C613 C612 1.363 . S
C613 C619 1.363 . S
C614 C615 1.363 . S
C614 C619 1.379 1_556 S
C614 N621 1.356 . S
C615 C614 1.363 . S
C615 C618 1.363 . S
N616 C618 1.356 . S
N616 H628 0.984 . S
N616 H629 0.985 . S
N617 C619 1.356 . S
N617 H622 0.984 . S
N617 H623 0.985 . S
C618 C612 1.379 1_556 S
C618 C615 1.363 . S
C618 N616 1.356 . S
C619 C613 1.363 . S
C619 C614 1.379 1_554 S
C619 N617 1.356 . S
N620 C612 1.356 . S
N620 H626 0.984 . S
N620 H627 0.984 . S
N621 C614 1.356 . S
N621 H624 0.984 . S
N621 H625 0.985 . S
H622 N617 0.984 . S
H623 N617 0.985 . S
H624 N621 0.984 . S
H625 N621 0.985 . S
H626 N620 0.984 . S
H627 N620 0.984 . S
H628 N616 0.984 . S
H629 N616 0.985 . S
C630 C631 1.363 . S
C630 C636 1.379 . S
C630 N638 1.356 . S
C631 C630 1.363 . S
C631 C637 1.363 . S
C632 C633 1.363 . S
C632 C637 1.379 . S
C632 N639 1.356 . S
C633 C632 1.363 . S
C633 C636 1.363 . S
N634 C636 1.356 . S
N634 H646 0.984 . S
N634 H647 0.985 . S
N635 C637 1.356 . S
N635 H640 0.984 . S
N635 H641 0.985 . S
C636 C630 1.379 . S
C636 C633 1.363 . S
C636 N634 1.356 . S
C637 C631 1.363 . S
C637 C632 1.379 . S
C637 N635 1.356 . S
N638 C630 1.356 . S
N638 H644 0.984 . S
N638 H645 0.984 . S
N639 C632 1.356 . S
N639 H642 0.984 . S
N639 H643 0.985 . S
H640 N635 0.984 . S
H641 N635 0.985 . S
H642 N639 0.984 . S
H643 N639 0.985 . S
H644 N638 0.984 . S
H645 N638 0.984 . S
H646 N634 0.984 . S
H647 N634 0.985 . S
C648 C649 1.363 . S
C648 C654 1.379 1_556 S
C648 N656 1.356 . S
C649 C648 1.363 . S
C649 C655 1.363 . S
C650 C651 1.363 . S
C650 C655 1.379 1_554 S
C650 N657 1.356 . S
C651 C650 1.363 . S
C651 C654 1.363 . S
N652 C654 1.356 . S
N652 H664 0.984 . S
N652 H665 0.985 . S
N653 C655 1.356 . S
N653 H658 0.984 . S
N653 H659 0.985 . S
C654 C648 1.379 1_554 S
C654 C651 1.363 . S
C654 N652 1.356 . S
C655 C649 1.363 . S
C655 C650 1.379 1_556 S
C655 N653 1.356 . S
N656 C648 1.356 . S
N656 H662 0.984 . S
N656 H663 0.984 . S
N657 C650 1.356 . S
N657 H660 0.984 . S
N657 H661 0.985 . S
H658 N653 0.984 . S
H659 N653 0.985 . S
H660 N657 0.984 . S
H661 N657 0.985 . S
H662 N656 0.984 . S
H663 N656 0.984 . S
H664 N652 0.984 . S
H665 N652 0.985 . S
C666 C667 1.363 . S
C666 C672 1.379 . S
C666 N674 1.356 . S
C667 C666 1.363 . S
C667 C673 1.363 . S
C668 C669 1.363 . S
C668 C673 1.379 . S
C668 N675 1.356 . S
C669 C668 1.363 . S
C669 C672 1.363 . S
N670 C672 1.356 . S
N670 H682 0.984 . S
N670 H683 0.985 . S
N671 C673 1.356 . S
N671 H676 0.984 . S
N671 H677 0.985 . S
C672 C666 1.379 . S
C672 C669 1.363 . S
C672 N670 1.356 . S
C673 C667 1.363 . S
C673 C668 1.379 . S
C673 N671 1.356 . S
N674 C666 1.356 . S
N674 H680 0.984 . S
N674 H681 0.984 . S
N675 C668 1.356 . S
N675 H678 0.984 . S
N675 H679 0.985 . S
H676 N671 0.984 . S
H677 N671 0.985 . S
H678 N675 0.984 . S
H679 N675 0.985 . S
H680 N674 0.984 . S
H681 N674 0.984 . S
H682 N670 0.984 . S
H683 N670 0.985 . S
C684 C685 1.363 . S
C684 C690 1.379 1_556 S
C684 N692 1.356 . S
C685 C684 1.363 . S
C685 C691 1.363 . S
C686 C687 1.363 . S
C686 C691 1.379 1_554 S
C686 N693 1.356 . S
C687 C686 1.363 . S
C687 C690 1.363 . S
N688 C690 1.356 . S
N688 H700 0.984 . S
N688 H701 0.985 . S
N689 C691 1.356 . S
N689 H694 0.984 . S
N689 H695 0.985 . S
C690 C684 1.379 1_554 S
C690 C687 1.363 . S
C690 N688 1.356 . S
C691 C685 1.363 . S
C691 C686 1.379 1_556 S
C691 N689 1.356 . S
N692 C684 1.356 . S
N692 H698 0.984 . S
N692 H699 0.984 . S
N693 C686 1.356 . S
N693 H696 0.984 . S
N693 H697 0.985 . S
H694 N689 0.984 . S
H695 N689 0.985 . S
H696 N693 0.984 . S
H697 N693 0.985 . S
H698 N692 0.984 . S
H699 N692 0.984 . S
H700 N688 0.984 . S
H701 N688 0.985 . S
C702 C703 1.363 . S
C702 C708 1.379 . S
C702 N710 1.356 . S
C703 C702 1.363 . S
C703 C709 1.363 . S
C704 C705 1.363 . S
C704 C709 1.379 . S
C704 N711 1.356 . S
C705 C704 1.363 . S
C705 C708 1.363 . S
N706 C708 1.356 . S
N706 H718 0.984 . S
N706 H719 0.985 . S
N707 C709 1.356 . S
N707 H712 0.984 . S
N707 H713 0.985 . S
C708 C702 1.379 . S
C708 C705 1.363 . S
C708 N706 1.356 . S
C709 C703 1.363 . S
C709 C704 1.379 . S
C709 N707 1.356 . S
N710 C702 1.356 . S
N710 H716 0.984 . S
N710 H717 0.984 . S
N711 C704 1.356 . S
N711 H714 0.984 . S
N711 H715 0.985 . S
H712 N707 0.984 . S
H713 N707 0.985 . S
H714 N711 0.984 . S
H715 N711 0.985 . S
H716 N710 0.984 . S
H717 N710 0.984 . S
H718 N706 0.984 . S
H719 N706 0.985 . S
C720 C721 1.363 . S
C720 C726 1.379 . S
C720 N728 1.356 . S
C721 C720 1.363 . S
C721 C727 1.363 . S
C722 C723 1.363 . S
C722 C727 1.379 . S
C722 N729 1.356 . S
C723 C722 1.363 . S
C723 C726 1.363 . S
N724 C726 1.356 . S
N724 H736 0.984 . S
N724 H737 0.985 . S
N725 C727 1.356 . S
N725 H730 0.984 . S
N725 H731 0.985 . S
C726 C720 1.379 . S
C726 C723 1.363 . S
C726 N724 1.356 . S
C727 C721 1.363 . S
C727 C722 1.379 . S
C727 N725 1.356 . S
N728 C720 1.356 . S
N728 H734 0.984 . S
N728 H735 0.984 . S
N729 C722 1.356 . S
N729 H732 0.984 . S
N729 H733 0.985 . S
H730 N725 0.984 . S
H731 N725 0.985 . S
H732 N729 0.984 . S
H733 N729 0.985 . S
H734 N728 0.984 . S
H735 N728 0.984 . S
H736 N724 0.984 . S
H737 N724 0.985 . S
C738 C739 1.363 . S
C738 C744 1.379 . S
C738 N746 1.356 . S
C739 C738 1.363 . S
C739 C745 1.363 . S
C740 C741 1.363 . S
C740 C745 1.379 . S
C740 N747 1.356 . S
C741 C740 1.363 . S
C741 C744 1.363 . S
N742 C744 1.356 . S
N742 H754 0.984 . S
N742 H755 0.985 . S
N743 C745 1.356 . S
N743 H748 0.984 . S
N743 H749 0.985 . S
C744 C738 1.379 . S
C744 C741 1.363 . S
C744 N742 1.356 . S
C745 C739 1.363 . S
C745 C740 1.379 . S
C745 N743 1.356 . S
N746 C738 1.356 . S
N746 H752 0.984 . S
N746 H753 0.984 . S
N747 C740 1.356 . S
N747 H750 0.984 . S
N747 H751 0.985 . S
H748 N743 0.984 . S
H749 N743 0.985 . S
H750 N747 0.984 . S
H751 N747 0.985 . S
H752 N746 0.984 . S
H753 N746 0.984 . S
H754 N742 0.984 . S
H755 N742 0.985 . S
C756 C757 1.363 . S
C756 C762 1.379 . S
C756 N764 1.356 . S
C757 C756 1.363 . S
C757 C763 1.363 . S
C758 C759 1.363 . S
C758 C763 1.379 . S
C758 N765 1.356 . S
C759 C758 1.363 . S
C759 C762 1.363 . S
N760 C762 1.356 . S
N760 H772 0.984 . S
N760 H773 0.985 . S
N761 C763 1.356 . S
N761 H766 0.984 . S
N761 H767 0.985 . S
C762 C756 1.379 . S
C762 C759 1.363 . S
C762 N760 1.356 . S
C763 C757 1.363 . S
C763 C758 1.379 . S
C763 N761 1.356 . S
N764 C756 1.356 . S
N764 H770 0.984 . S
N764 H771 0.984 . S
N765 C758 1.356 . S
N765 H768 0.984 . S
N765 H769 0.985 . S
H766 N761 0.984 . S
H767 N761 0.985 . S
H768 N765 0.984 . S
H769 N765 0.985 . S
H770 N764 0.984 . S
H771 N764 0.984 . S
H772 N760 0.984 . S
H773 N760 0.985 . S
C774 C775 1.363 . S
C774 C780 1.379 . S
C774 N782 1.356 . S
C775 C774 1.363 . S
C775 C781 1.363 . S
C776 C777 1.363 . S
C776 C781 1.379 . S
C776 N783 1.356 . S
C777 C776 1.363 . S
C777 C780 1.363 . S
N778 C780 1.356 . S
N778 H790 0.984 . S
N778 H791 0.985 . S
N779 C781 1.356 . S
N779 H784 0.984 . S
N779 H785 0.985 . S
C780 C774 1.379 . S
C780 C777 1.363 . S
C780 N778 1.356 . S
C781 C775 1.363 . S
C781 C776 1.379 . S
C781 N779 1.356 . S
N782 C774 1.356 . S
N782 H788 0.984 . S
N782 H789 0.984 . S
N783 C776 1.356 . S
N783 H786 0.984 . S
N783 H787 0.985 . S
H784 N779 0.984 . S
H785 N779 0.985 . S
H786 N783 0.984 . S
H787 N783 0.985 . S
H788 N782 0.984 . S
H789 N782 0.984 . S
H790 N778 0.984 . S
H791 N778 0.985 . S
C792 C793 1.363 . S
C792 C798 1.379 . S
C792 N800 1.356 . S
C793 C792 1.363 . S
C793 C799 1.363 . S
C794 C795 1.363 . S
C794 C799 1.379 . S
C794 N801 1.356 . S
C795 C794 1.363 . S
C795 C798 1.363 . S
N796 C798 1.356 . S
N796 H808 0.984 . S
N796 H809 0.985 . S
N797 C799 1.356 . S
N797 H802 0.984 . S
N797 H803 0.985 . S
C798 C792 1.379 . S
C798 C795 1.363 . S
C798 N796 1.356 . S
C799 C793 1.363 . S
C799 C794 1.379 . S
C799 N797 1.356 . S
N800 C792 1.356 . S
N800 H806 0.984 . S
N800 H807 0.984 . S
N801 C794 1.356 . S
N801 H804 0.984 . S
N801 H805 0.985 . S
H802 N797 0.984 . S
H803 N797 0.985 . S
H804 N801 0.984 . S
H805 N801 0.985 . S
H806 N800 0.984 . S
H807 N800 0.984 . S
H808 N796 0.984 . S
H809 N796 0.985 . S
C810 C811 1.363 . S
C810 C816 1.379 . S
C810 N818 1.356 . S
C811 C810 1.363 . S
C811 C817 1.363 . S
C812 C813 1.363 . S
C812 C817 1.379 . S
C812 N819 1.356 . S
C813 C812 1.363 . S
C813 C816 1.363 . S
N814 C816 1.356 . S
N814 H826 0.984 . S
N814 H827 0.985 . S
N815 C817 1.356 . S
N815 H820 0.984 . S
N815 H821 0.985 . S
C816 C810 1.379 . S
C816 C813 1.363 . S
C816 N814 1.356 . S
C817 C811 1.363 . S
C817 C812 1.379 . S
C817 N815 1.356 . S
N818 C810 1.356 . S
N818 H824 0.984 . S
N818 H825 0.984 . S
N819 C812 1.356 . S
N819 H822 0.984 . S
N819 H823 0.985 . S
H820 N815 0.984 . S
H821 N815 0.985 . S
H822 N819 0.984 . S
H823 N819 0.985 . S
H824 N818 0.984 . S
H825 N818 0.984 . S
H826 N814 0.984 . S
H827 N814 0.985 . S
C828 C829 1.363 . S
C828 C834 1.379 . S
C828 N836 1.356 . S
C829 C828 1.363 . S
C829 C835 1.363 . S
C830 C831 1.363 . S
C830 C835 1.379 . S
C830 N837 1.356 . S
C831 C830 1.363 . S
C831 C834 1.363 . S
N832 C834 1.356 . S
N832 H844 0.984 . S
N832 H845 0.985 . S
N833 C835 1.356 . S
N833 H838 0.984 . S
N833 H839 0.985 . S
C834 C828 1.379 . S
C834 C831 1.363 . S
C834 N832 1.356 . S
C835 C829 1.363 . S
C835 C830 1.379 . S
C835 N833 1.356 . S
N836 C828 1.356 . S
N836 H842 0.984 . S
N836 H843 0.984 . S
N837 C830 1.356 . S
N837 H840 0.984 . S
N837 H841 0.985 . S
H838 N833 0.984 . S
H839 N833 0.985 . S
H840 N837 0.984 . S
H841 N837 0.985 . S
H842 N836 0.984 . S
H843 N836 0.984 . S
H844 N832 0.984 . S
H845 N832 0.985 . S
C846 C847 1.363 . S
C846 C852 1.379 . S
C846 N854 1.356 . S
C847 C846 1.363 . S
C847 C853 1.363 . S
C848 C849 1.363 . S
C848 C853 1.379 . S
C848 N855 1.356 . S
C849 C848 1.363 . S
C849 C852 1.363 . S
N850 C852 1.356 . S
N850 H862 0.984 . S
N850 H863 0.985 . S
N851 C853 1.356 . S
N851 H856 0.984 . S
N851 H857 0.985 . S
C852 C846 1.379 . S
C852 C849 1.363 . S
C852 N850 1.356 . S
C853 C847 1.363 . S
C853 C848 1.379 . S
C853 N851 1.356 . S
N854 C846 1.356 . S
N854 H860 0.984 . S
N854 H861 0.984 . S
N855 C848 1.356 . S
N855 H858 0.984 . S
N855 H859 0.985 . S
H856 N851 0.984 . S
H857 N851 0.985 . S
H858 N855 0.984 . S
H859 N855 0.985 . S
H860 N854 0.984 . S
H861 N854 0.984 . S
H862 N850 0.984 . S
H863 N850 0.985 . S
C864 C865 1.363 . S
C864 C870 1.379 . S
C864 N872 1.356 . S
C865 C864 1.363 . S
C865 C871 1.363 . S
C866 C867 1.363 . S
C866 C871 1.379 . S
C866 N873 1.356 . S
C867 C866 1.363 . S
C867 C870 1.363 . S
N868 C870 1.356 . S
N868 H880 0.984 . S
N868 H881 0.985 . S
N869 C871 1.356 . S
N869 H874 0.984 . S
N869 H875 0.985 . S
C870 C864 1.379 . S
C870 C867 1.363 . S
C870 N868 1.356 . S
C871 C865 1.363 . S
C871 C866 1.379 . S
C871 N869 1.356 . S
N872 C864 1.356 . S
N872 H878 0.984 . S
N872 H879 0.984 . S
N873 C866 1.356 . S
N873 H876 0.984 . S
N873 H877 0.985 . S
H874 N869 0.984 . S
H875 N869 0.985 . S
H876 N873 0.984 . S
H877 N873 0.985 . S
H878 N872 0.984 . S
H879 N872 0.984 . S
H880 N868 0.984 . S
H881 N868 0.985 . S
C882 C883 1.363 . S
C882 C888 1.379 . S
C882 N890 1.356 . S
C883 C882 1.363 . S
C883 C889 1.363 . S
C884 C885 1.363 . S
C884 C889 1.379 . S
C884 N891 1.356 . S
C885 C884 1.363 . S
C885 C888 1.363 . S
N886 C888 1.356 . S
N886 H898 0.984 . S
N886 H899 0.985 . S
N887 C889 1.356 . S
N887 H892 0.984 . S
N887 H893 0.985 . S
C888 C882 1.379 . S
C888 C885 1.363 . S
C888 N886 1.356 . S
C889 C883 1.363 . S
C889 C884 1.379 . S
C889 N887 1.356 . S
N890 C882 1.356 . S
N890 H896 0.984 . S
N890 H897 0.984 . S
N891 C884 1.356 . S
N891 H894 0.984 . S
N891 H895 0.985 . S
H892 N887 0.984 . S
H893 N887 0.985 . S
H894 N891 0.984 . S
H895 N891 0.985 . S
H896 N890 0.984 . S
H897 N890 0.984 . S
H898 N886 0.984 . S
H899 N886 0.985 . S
C900 C901 1.363 . S
C900 C906 1.379 . S
C900 N908 1.356 . S
C901 C900 1.363 . S
C901 C907 1.363 . S
C902 C903 1.363 . S
C902 C907 1.379 . S
C902 N909 1.356 . S
C903 C902 1.363 . S
C903 C906 1.363 . S
N904 C906 1.356 . S
N904 H916 0.984 . S
N904 H917 0.985 . S
N905 C907 1.356 . S
N905 H910 0.984 . S
N905 H911 0.985 . S
C906 C900 1.379 . S
C906 C903 1.363 . S
C906 N904 1.356 . S
C907 C901 1.363 . S
C907 C902 1.379 . S
C907 N905 1.356 . S
N908 C900 1.356 . S
N908 H914 0.984 . S
N908 H915 0.984 . S
N909 C902 1.356 . S
N909 H912 0.984 . S
N909 H913 0.985 . S
H910 N905 0.984 . S
H911 N905 0.985 . S
H912 N909 0.984 . S
H913 N909 0.985 . S
H914 N908 0.984 . S
H915 N908 0.984 . S
H916 N904 0.984 . S
H917 N904 0.985 . S
C918 C919 1.363 . S
C918 C924 1.379 . S
C918 N926 1.356 . S
C919 C918 1.363 . S
C919 C925 1.363 . S
C920 C921 1.363 . S
C920 C925 1.379 . S
C920 N927 1.356 . S
C921 C920 1.363 . S
C921 C924 1.363 . S
N922 C924 1.356 . S
N922 H934 0.984 . S
N922 H935 0.985 . S
N923 C925 1.356 . S
N923 H928 0.984 . S
N923 H929 0.985 . S
C924 C918 1.379 . S
C924 C921 1.363 . S
C924 N922 1.356 . S
C925 C919 1.363 . S
C925 C920 1.379 . S
C925 N923 1.356 . S
N926 C918 1.356 . S
N926 H932 0.984 . S
N926 H933 0.984 . S
N927 C920 1.356 . S
N927 H930 0.984 . S
N927 H931 0.985 . S
H928 N923 0.984 . S
H929 N923 0.985 . S
H930 N927 0.984 . S
H931 N927 0.985 . S
H932 N926 0.984 . S
H933 N926 0.984 . S
H934 N922 0.984 . S
H935 N922 0.985 . S
C397 N310 1.682 . S
C399 N13 1.682 . S
C415 N46 1.682 . S
C417 N343 1.682 . S
C433 N376 1.682 . S
C435 N79 1.682 . S
C451 N112 1.682 . S
C453 N211 1.682 . S
C469 N145 1.682 . S
C471 N244 1.682 . S
C487 N277 1.682 . S
C489 N178 1.682 . S
C505 C348 1.780 . S
C507 C18 1.780 . S
C523 C381 1.780 . S
C525 C51 1.780 . S
C541 C84 1.780 . S
C543 C216 1.780 . S
C559 C249 1.780 . S
C561 C117 1.780 . S
C577 C282 1.780 . S
C579 C150 1.780 . S
C595 C183 1.780 . S
C597 C315 1.780 . S
C613 C238 1.064 . S
C615 C106 1.064 . S
C631 C271 1.064 . S
C633 C139 1.064 . S
C649 C172 1.064 . S
C651 C304 1.064 . S
C667 C7 1.064 . S
C669 C337 1.064 . S
C685 C40 1.064 . S
C687 C370 1.064 . S
C703 C205 1.064 . S
C705 C73 1.064 . S
C721 N2 1.365 . S
C723 C153 1.451 . S
C739 N35 1.365 . S
C741 C186 1.452 . S
C757 N68 1.365 . S
C759 C21 1.451 . S
C775 C54 1.451 . S
C777 N101 1.365 . S
C793 N134 1.365 . S
C795 C87 1.452 . S
C811 C120 1.451 . S
C813 N167 1.365 . S
C829 C285 1.451 . S
C831 N200 1.365 . S
C847 C318 1.452 . S
C849 N233 1.365 . S
C865 C351 1.452 . S
C867 N266 1.365 . S
C883 N299 1.365 . S
C885 C384 1.452 . S
C901 C219 1.451 . S
C903 N332 1.365 . S
C919 N365 1.365 . S
C921 C252 1.452 . S
