# Generated by pormake.
# Topology bcg, (8)-cn, num edge types: 1
# Building blocks:
#     Node 0, Type 0, BuildingBlock: TAGTUT_clean_sbu_1, # of connection points: 8
#     Node 1, Type 0, BuildingBlock: TAGTUT_clean_sbu_1, # of connection points: 8
#     Node 2, Type 0, BuildingBlock: TAGTUT_clean_sbu_1, # of connection points: 8
#     Node 3, Type 0, BuildingBlock: TAGTUT_clean_sbu_1, # of connection points: 8
#     Edge 4, Type (0, 0), BuildingBlock: XUDNAN_clean_linker_2, # of connection points: 2
#     Edge 5, Type (0, 0), BuildingBlock: XUDNAN_clean_linker_2, # of connection points: 2
#     Edge 6, Type (0, 0), BuildingBlock: XUDNAN_clean_linker_2, # of connection points: 2
#     Edge 7, Type (0, 0), BuildingBlock: XUDNAN_clean_linker_2, # of connection points: 2
#     Edge 8, Type (0, 0), BuildingBlock: XUDNAN_clean_linker_2, # of connection points: 2
#     Edge 9, Type (0, 0), BuildingBlock: XUDNAN_clean_linker_2, # of connection points: 2
#     Edge 10, Type (0, 0), BuildingBlock: XUDNAN_clean_linker_2, # of connection points: 2
#     Edge 11, Type (0, 0), BuildingBlock: XUDNAN_clean_linker_2, # of connection points: 2
#     Edge 12, Type (0, 0), BuildingBlock: XUDNAN_clean_linker_2, # of connection points: 2
#     Edge 13, Type (0, 0), BuildingBlock: XUDNAN_clean_linker_2, # of connection points: 2
#     Edge 14, Type (0, 0), BuildingBlock: XUDNAN_clean_linker_2, # of connection points: 2
#     Edge 15, Type (0, 0), BuildingBlock: XUDNAN_clean_linker_2, # of connection points: 2
#     Edge 16, Type (0, 0), BuildingBlock: XUDNAN_clean_linker_2, # of connection points: 2
#     Edge 17, Type (0, 0), BuildingBlock: XUDNAN_clean_linker_2, # of connection points: 2
#     Edge 18, Type (0, 0), BuildingBlock: XUDNAN_clean_linker_2, # of connection points: 2
#     Edge 19, Type (0, 0), BuildingBlock: XUDNAN_clean_linker_2, # of connection points: 2
# Relax obj value: 0.095
# Max RMSD: 0.205
# Mean RMSD: 0.205
data_MOF--net-bcg--node1-TAGTUT_clean_sbu_1--edge1-XUDNAN_clean_linker_2
_symmetry_space_group_name_H-M    P1
_symmetry_Int_Tables_number       1
_symmetry_cell_setting            triclinic
loop_
_symmetry_equiv_pos_as_xyz
'x, y, z'
_cell_length_a     15.075978
_cell_length_b     27.049514
_cell_length_c     33.245712
_cell_angle_alpha  84.631367
_cell_angle_beta   89.920375
_cell_angle_gamma 90.19354
loop_
_atom_site_label
_atom_site_type_symbol
_atom_site_fract_x
_atom_site_fract_y
_atom_site_fract_z
_atom_type_partial_charge
C0 C 0.21822 0.21884 0.1574 0.0
C1 C 0.44196 0.24967 0.08521 0.0
C2 C 0.28367 0.38001 0.99019 0.0
Mg3 Mg 0.28271 0.18203 0.07662 0.0
O4 O 0.22004 0.23744 0.0544 0.0
Mg5 Mg 0.23746 0.30276 0.07569 0.0
Mg6 Mg 0.23895 0.25963 -0.00392 0.0
O7 O 0.25874 0.28079 0.93788 0.0
Mg8 Mg 0.19636 0.33603 0.9153 0.0
Mg9 Mg 0.24075 0.2148 0.91716 0.0
C10 C 0.19812 0.13794 0.0009 0.0
C11 C 0.42754 0.22113 0.96777 0.0
O12 O 0.2114 0.26297 0.13962 0.0
O13 O 0.24102 0.18166 0.13857 0.0
O14 O 0.38684 0.28535 0.08795 0.0
O15 O 0.41712 0.20718 0.07539 0.0
O16 O 0.22661 0.12942 0.03731 0.0
O17 O 0.20563 0.18141 0.98181 0.0
C18 C 0.04914 0.29249 0.0261 0.0
O19 O 0.09628 0.27893 -0.00278 0.0
O20 O 0.08437 0.30544 0.05895 0.0
O21 O 0.27257 0.25401 0.85367 0.0
O22 O 0.24134 0.33528 0.85421 0.0
O23 O 0.0928 0.23389 0.90322 0.0
C24 C 0.26678 0.29822 0.8359 0.0
O25 O 0.06132 0.3117 0.91606 0.0
O26 O 0.2561 0.38812 0.95364 0.0
C27 C 0.03717 0.26933 0.90573 0.0
O28 O 0.26958 0.33778 0.01054 0.0
O29 O 0.38238 0.24061 -0.00536 0.0
O30 O 0.39137 0.20593 0.93595 0.0
C31 C 0.74685 0.74701 0.15203 0.0
C32 C 0.9697 0.77805 0.08121 0.0
C33 C 0.77522 0.86835 0.96521 0.0
Mg34 Mg 0.83052 0.69718 0.08023 0.0
O35 O 0.75463 0.74105 0.0509 0.0
Mg36 Mg 0.75692 0.81272 0.06016 0.0
Mg37 Mg 0.76781 0.74663 0.9912 0.0
O38 O 0.7801 0.75151 0.93145 0.0
Mg39 Mg 0.70197 0.79552 0.90327 0.0
Mg40 Mg 0.76783 0.67884 0.92399 0.0
C41 C 0.75471 0.62527 0.01839 0.0
C42 C 0.9557 0.70406 0.96758 0.0
O43 O 0.73129 0.78686 0.12871 0.0
O44 O 0.78156 0.70837 0.13904 0.0
O45 O 0.90607 0.80945 0.0766 0.0
O46 O 0.95809 0.73195 0.07713 0.0
O47 O 0.79226 0.63011 0.05252 0.0
O48 O 0.74177 0.6632 0.99269 0.0
C49 C 0.57539 0.78193 0.01493 0.0
O50 O 0.62526 0.76135 0.99058 0.0
O51 O 0.60661 0.80544 0.0437 0.0
O52 O 0.78899 0.70258 0.85505 0.0
O53 O 0.74623 0.78264 0.84377 0.0
O54 O 0.61706 0.68458 0.91029 0.0
C55 C 0.77597 0.74241 0.83136 0.0
O56 O 0.57245 0.76324 0.91024 0.0
O57 O 0.73989 0.86277 0.93074 0.0
C58 C 0.55561 0.71733 0.90779 0.0
O59 O 0.78979 0.83059 0.991 0.0
O60 O 0.91189 0.7303 0.99066 0.0
O61 O 0.91841 0.68001 0.94044 0.0
C62 C 0.23691 0.79805 0.33489 0.0
C63 C 0.46866 0.77275 0.40314 0.0
C64 C 0.30578 0.64225 0.50275 0.0
Mg65 Mg 0.30912 0.83938 0.41263 0.0
O66 O 0.25212 0.78361 0.43773 0.0
Mg67 Mg 0.2659 0.71718 0.41784 0.0
Mg68 Mg 0.27069 0.76434 0.49643 0.0
O69 O 0.28701 0.74367 0.55519 0.0
Mg70 Mg 0.22449 0.68848 0.57859 0.0
Mg71 Mg 0.26857 0.80988 0.57498 0.0
C72 C 0.21859 0.88251 0.48734 0.0
C73 C 0.46053 0.79829 0.52786 0.0
O74 O 0.23341 0.75407 0.35327 0.0
O75 O 0.2608 0.83592 0.35257 0.0
O76 O 0.41367 0.73637 0.40316 0.0
O77 O 0.44483 0.81617 0.41111 0.0
O78 O 0.24291 0.88996 0.45022 0.0
O79 O 0.24321 0.84336 0.50936 0.0
C80 C 0.07986 0.72539 0.46868 0.0
O81 O 0.12539 0.74606 0.49485 0.0
O82 O 0.11553 0.7092 0.43715 0.0
O83 O 0.28918 0.77192 0.63991 0.0
O84 O 0.26761 0.68943 0.64048 0.0
O85 O 0.11795 0.79438 0.58538 0.0
C86 C 0.28575 0.72809 0.65846 0.0
O87 O 0.0901 0.7144 0.5771 0.0
O88 O 0.27849 0.6346 0.5395 0.0
C89 C 0.06377 0.75776 0.58404 0.0
O90 O 0.29997 0.68554 0.48331 0.0
O91 O 0.41637 0.78276 0.49865 0.0
O92 O 0.42204 0.81184 0.5598 0.0
C93 C 0.72961 0.24179 0.33411 0.0
C94 C 0.95602 0.23017 0.40771 0.0
C95 C 0.76681 0.13351 0.52609 0.0
Mg96 Mg 0.79864 0.30083 0.40266 0.0
O97 O 0.73014 0.25454 0.4342 0.0
Mg98 Mg 0.749 0.18264 0.42843 0.0
Mg99 Mg 0.74643 0.253 0.4934 0.0
O100 O 0.76532 0.25273 0.55258 0.0
Mg101 Mg 0.69478 0.20952 0.58542 0.0
Mg102 Mg 0.75512 0.3257 0.55779 0.0
C103 C 0.7246 0.3738 0.4628 0.0
C104 C 0.93849 0.3006 0.50966 0.0
O105 O 0.72461 0.20243 0.35905 0.0
O106 O 0.75266 0.28415 0.34491 0.0
O107 O 0.90077 0.19384 0.4139 0.0
O108 O 0.93127 0.27526 0.40715 0.0
O109 O 0.75699 0.36811 0.42782 0.0
O110 O 0.71637 0.33665 0.48979 0.0
C111 C 0.55693 0.20712 0.4713 0.0
O112 O 0.59955 0.2325 0.4957 0.0
O113 O 0.5969 0.18448 0.44399 0.0
O114 O 0.78642 0.30716 0.62622 0.0
O115 O 0.74596 0.22736 0.64244 0.0
O116 O 0.60742 0.31843 0.57738 0.0
C117 C 0.77648 0.26893 0.652 0.0
O118 O 0.56449 0.23895 0.58119 0.0
O119 O 0.73243 0.14153 0.56025 0.0
C120 C 0.54769 0.28474 0.58381 0.0
O121 O 0.77709 0.16939 0.4979 0.0
O122 O 0.89117 0.27282 0.48926 0.0
O123 O 0.9051 0.32507 0.53745 0.0
H124 H 0.52658 0.30087 0.98257 0.0
H125 H 0.54564 0.14417 0.96606 0.0
H126 H 0.70515 0.14589 0.98467 0.0
H127 H 0.742 0.33388 0.93885 0.0
H128 H 0.76423 0.38077 0.97265 0.0
H129 H 0.65159 0.36713 0.9594 0.0
H130 H 0.60912 0.34716 0.03583 0.0
H131 H 0.72074 0.36511 0.04741 0.0
H132 H 0.67917 0.30525 0.06688 0.0
H133 H 0.85725 0.16355 0.00933 0.0
H134 H 1.00226 0.19789 0.02619 0.0
H135 H 0.88986 0.34575 0.02126 0.0
C136 C 0.56487 0.26704 0.98249 0.0
C137 C 0.52457 0.22224 0.97289 0.0
C138 C 0.57594 0.17875 0.97292 0.0
C139 C 0.66598 0.17942 0.98387 0.0
C140 C 0.7032 0.22403 0.99403 0.0
C141 C 0.65492 0.26736 0.99249 0.0
C142 C 0.7122 0.31098 0.0025 0.0
C143 C 0.71786 0.35051 0.96618 0.0
C144 C 0.6781 0.33345 0.04038 0.0
C145 C 0.80045 0.28524 0.0106 0.0
C146 C 0.7928 0.23493 0.00617 0.0
C147 C 0.86399 0.2028 0.01268 0.0
C148 C 0.94582 0.22267 0.02263 0.0
C149 C 0.95681 0.27433 0.02554 0.0
C150 C 0.88284 0.30607 0.02004 0.0
H151 H 0.05462 0.78547 0.9759 0.0
H152 H 0.07298 0.62654 0.96886 0.0
H153 H 0.23373 0.63019 0.98487 0.0
H154 H 0.26287 0.81845 0.92903 0.0
H155 H 0.28739 0.86674 0.96125 0.0
H156 H 0.1739 0.85169 0.95065 0.0
H157 H 0.13726 0.83006 0.02856 0.0
H158 H 0.24711 0.85426 0.03623 0.0
H159 H 0.21591 0.7935 0.05875 0.0
H160 H 0.38357 0.65059 0.01042 0.0
H161 H 0.52945 0.68666 0.02308 0.0
H162 H 0.41721 0.83475 0.0075 0.0
C163 C 0.09289 0.75151 0.97734 0.0
C164 C 0.05237 0.70559 0.97145 0.0
C165 C 0.10366 0.66192 0.97317 0.0
C166 C 0.19428 0.66368 0.98262 0.0
C167 C 0.23153 0.70951 0.9895 0.0
C168 C 0.18315 0.75278 0.98592 0.0
C169 C 0.23972 0.79738 0.99351 0.0
C170 C 0.2411 0.83582 0.95638 0.0
C171 C 0.20826 0.8203 0.03152 0.0
C172 C 0.32854 0.77277 0.0009 0.0
C173 C 0.32101 0.72184 1e-05 0.0
C174 C 0.39145 0.69026 0.00941 0.0
C175 C 0.47325 0.71122 0.01731 0.0
C176 C 0.48408 0.76347 0.01577 0.0
C177 C 0.41041 0.79478 0.00867 0.0
H178 H 0.6114 0.85281 0.50329 0.0
H179 H 0.51851 0.7076 0.55193 0.0
H180 H 0.6652 0.6719 0.5394 0.0
H181 H 0.7425 0.81525 0.42563 0.0
H182 H 0.83417 0.85714 0.43082 0.0
H183 H 0.7246 0.87366 0.44638 0.0
H184 H 0.78195 0.88589 0.51802 0.0
H185 H 0.89254 0.87017 0.50316 0.0
H186 H 0.84106 0.83629 0.54627 0.0
H187 H 0.81613 0.64979 0.51477 0.0
H188 H 0.97219 0.64609 0.49123 0.0
H189 H 0.97232 0.80564 0.46277 0.0
C190 C 0.62342 0.81401 0.51268 0.0
C191 C 0.55448 0.78305 0.52945 0.0
C192 C 0.57138 0.73203 0.54002 0.0
C193 C 0.65414 0.71131 0.53262 0.0
C194 C 0.72018 0.74223 0.51502 0.0
C195 C 0.70699 0.79277 0.50633 0.0
C196 C 0.79007 0.8174 0.48779 0.0
C197 C 0.77168 0.84232 0.44513 0.0
C198 C 0.82865 0.85464 0.51545 0.0
C199 C 0.85025 0.77265 0.48634 0.0
C200 C 0.80836 0.72957 0.50183 0.0
C201 C 0.84993 0.68334 0.50279 0.0
C202 C 0.93794 0.68138 0.48892 0.0
C203 C 0.98297 0.72533 0.47446 0.0
C204 C 0.9383 0.77138 0.47295 0.0
H205 H 0.06344 0.24552 0.55219 0.0
H206 H 0.02598 0.34925 0.44637 0.0
H207 H 0.17694 0.3305 0.4225 0.0
H208 H 0.29628 0.27 0.56887 0.0
H209 H 0.32032 0.20528 0.58349 0.0
H210 H 0.21162 0.22946 0.5919 0.0
H211 H 0.1464 0.16029 0.55175 0.0
H212 H 0.25601 0.13774 0.54208 0.0
H213 H 0.18251 0.15553 0.50056 0.0
H214 H 0.32566 0.29403 0.40712 0.0
H215 H 0.47599 0.25771 0.40848 0.0
H216 H 0.4232 0.18241 0.52696 0.0
C217 C 0.0886 0.2656 0.5248 0.0
C218 C 0.03463 0.3001 0.5017 0.0
C219 C 0.0677 0.32392 0.46503 0.0
C220 C 0.15264 0.31286 0.45097 0.0
C221 C 0.20323 0.2774 0.47377 0.0
C222 C 0.17323 0.25485 0.5103 0.0
C223 C 0.24082 0.21812 0.52891 0.0
C224 C 0.26903 0.23162 0.57081 0.0
C225 C 0.20422 0.16477 0.53094 0.0
C226 C 0.31574 0.22545 0.4983 0.0
C227 C 0.29074 0.25812 0.46582 0.0
C228 C 0.3463 0.26889 0.43261 0.0
C229 C 0.43113 0.24759 0.43342 0.0
C230 C 0.46064 0.21685 0.46755 0.0
C231 C 0.40178 0.20526 0.50028 0.0
H232 H 0.63251 0.60383 0.96009 0.0
H233 H 0.76165 0.53987 0.06939 0.0
H234 H 0.6525 0.47184 0.07505 0.0
H235 H 0.40935 0.57663 0.98865 0.0
H236 H 0.37874 0.56349 0.93856 0.0
H237 H 0.47015 0.60486 0.94551 0.0
H238 H 0.56518 0.54536 0.90376 0.0
H239 H 0.47223 0.5037 0.90143 0.0
H240 H 0.57583 0.48097 0.92277 0.0
H241 H 0.51382 0.41919 0.07586 0.0
H242 H 0.37727 0.37325 0.0617 0.0
H243 H 0.34458 0.46681 0.94951 0.0
C244 C 0.63969 0.5748 0.98448 0.0
C245 C 0.70568 0.57792 0.01446 0.0
C246 C 0.71187 0.53886 0.04602 0.0
C247 C 0.6496 0.50005 0.04976 0.0
C248 C 0.58219 0.49992 0.02123 0.0
C249 C 0.57857 0.53522 0.98838 0.0
C250 C 0.49932 0.52608 0.96187 0.0
C251 C 0.43582 0.57056 0.95838 0.0
C252 C 0.53 0.51323 0.91998 0.0
C253 C 0.45718 0.48164 0.98601 0.0
C254 C 0.50559 0.46735 0.02029 0.0
C255 C 0.47661 0.42925 0.0485 0.0
C256 C 0.39851 0.40345 0.04039 0.0
C257 C 0.35061 0.41528 0.0042 0.0
C258 C 0.37942 0.45618 0.97742 0.0
H259 H 0.59885 0.3952 0.51952 0.0
H260 H 0.74534 0.46098 0.41529 0.0
H261 H 0.64706 0.53368 0.41146 0.0
H262 H 0.38212 0.43603 0.48692 0.0
H263 H 0.34873 0.44582 0.53762 0.0
H264 H 0.43295 0.40081 0.52901 0.0
H265 H 0.54344 0.45163 0.57646 0.0
H266 H 0.44935 0.49128 0.58259 0.0
H267 H 0.55317 0.51724 0.56362 0.0
H268 H 0.52244 0.59495 0.41394 0.0
H269 H 0.40113 0.64944 0.43206 0.0
H270 H 0.34023 0.54727 0.53693 0.0
C271 C 0.61207 0.42549 0.49668 0.0
C272 C 0.68002 0.42195 0.46766 0.0
C273 C 0.69381 0.46244 0.43788 0.0
C274 C 0.6378 0.50389 0.4352 0.0
C275 C 0.56861 0.50491 0.46283 0.0
C276 C 0.55706 0.46758 0.49373 0.0
C277 C 0.47789 0.47835 0.51972 0.0
C278 C 0.40626 0.43787 0.51834 0.0
C279 C 0.50749 0.48493 0.56318 0.0
C280 C 0.44644 0.52714 0.49839 0.0
C281 C 0.49895 0.5414 0.46527 0.0
C282 C 0.48187 0.58456 0.44029 0.0
C283 C 0.41227 0.61528 0.4507 0.0
C284 C 0.36149 0.60346 0.48622 0.0
C285 C 0.37742 0.55776 0.50955 0.0
H286 H 0.15987 0.04396 0.0356 0.0
H287 H 0.09626 0.14677 0.93181 0.0
H288 H 0.97111 0.09315 0.9155 0.0
H289 H 0.11324 0.93489 0.98729 0.0
H290 H 0.06233 0.90014 0.02971 0.0
H291 H 0.14803 0.94471 0.03788 0.0
H292 H 0.05014 0.9915 0.08299 0.0
H293 H 0.95865 0.94918 0.07891 0.0
H294 H 0.94349 0.01445 0.06552 0.0
H295 H 0.84618 0.02979 0.91357 0.0
H296 H 0.7507 0.95548 0.91772 0.0
H297 H 0.89951 0.89229 0.02168 0.0
C298 C 0.12092 0.055 0.00894 0.0
C299 C 0.13795 0.10031 0.98519 0.0
C300 C 0.08469 0.11275 0.95064 0.0
C301 C 0.01279 0.08257 0.94134 0.0
C302 C 0.99535 0.03955 0.96667 0.0
C303 C 0.04926 0.02528 -0.00084 0.0
C304 C 0.01828 0.9766 0.02089 0.0
C305 C 0.09003 0.93682 0.01887 0.0
C306 C 0.99121 0.9833 0.06468 0.0
C307 C 0.93832 0.96534 -0.00429 0.0
C308 C 0.92545 1.00256 0.96489 0.0
C309 C 0.85631 1.0003 0.93743 0.0
C310 C 0.80194 0.95785 0.94027 0.0
C311 C 0.81734 0.91752 0.97001 0.0
C312 C 0.88494 0.92236 -0.00112 0.0
H313 H 0.8426 0.0903 0.46065 0.0
H314 H 0.80391 0.0676 0.5907 0.0
H315 H 0.90942 0.99915 0.59494 0.0
H316 H 0.86716 0.94794 0.45413 0.0
H317 H 0.94406 0.95769 0.41259 0.0
H318 H 0.85563 1.00134 0.41797 0.0
H319 H 0.96819 0.0709 0.41611 0.0
H320 H 0.06049 0.02978 0.41255 0.0
H321 H 0.05691 0.0698 0.45301 0.0
H322 H 0.0382 0.94188 0.58747 0.0
H323 H 0.16447 0.8921 0.56587 0.0
H324 H 0.11357 0.94696 0.44118 0.0
C325 C 0.85419 0.06993 0.48976 0.0
C326 C 0.81491 0.08532 0.5252 0.0
C327 C 0.83244 0.05728 0.56279 0.0
C328 C 0.89282 0.01797 0.56576 0.0
C329 C 0.93332 1.00522 0.53075 0.0
C330 C 0.91206 0.02879 0.49321 0.0
C331 C 0.96534 0.0068 0.46052 0.0
C332 C 0.90448 0.97664 0.43478 0.0
C333 C 0.01602 0.0468 0.43404 0.0
C334 C 0.02741 0.97281 0.48601 0.0
C335 C 0.00589 0.97093 0.52639 0.0
C336 C 0.05498 0.94255 0.55576 0.0
C337 C 0.12715 0.91473 0.54333 0.0
C338 C 0.1503 0.91612 0.50197 0.0
C339 C 0.09934 0.94578 0.47319 0.0
H340 H 0.66031 0.31362 0.28092 0.0
H341 H 0.75925 0.16274 0.29011 0.0
H342 H 0.733 0.15914 0.21695 0.0
H343 H 0.48305 0.29161 0.22218 0.0
H344 H 0.48463 0.35123 0.19296 0.0
H345 H 0.53054 0.34501 0.24286 0.0
H346 H 0.67939 0.38144 0.21351 0.0
H347 H 0.63385 0.38611 0.16315 0.0
H348 H 0.73474 0.35193 0.17406 0.0
H349 H 0.68069 0.16836 0.14571 0.0
H350 H 0.57499 0.18037 0.08943 0.0
H351 H 0.50447 0.32439 0.12721 0.0
C352 C 0.67825 0.28023 0.26726 0.0
C353 C 0.71227 0.23856 0.29087 0.0
C354 C 0.73279 0.19499 0.27241 0.0
C355 C 0.71962 0.19299 0.23081 0.0
C356 C 0.68584 0.23485 0.20825 0.0
C357 C 0.66407 0.27739 0.22607 0.0
C358 C 0.61391 0.31377 0.19726 0.0
C359 C 0.52267 0.32604 0.21484 0.0
C360 C 0.66879 0.36112 0.18636 0.0
C361 C 0.60545 0.28367 0.16133 0.0
C362 C 0.65119 0.23933 0.16747 0.0
C363 C 0.64529 0.2031 0.14043 0.0
C364 C 0.58503 0.21034 0.10842 0.0
C365 C 0.5296 0.25274 0.10468 0.0
C366 C 0.54562 0.29153 0.12937 0.0
H367 H 0.68714 0.82273 0.19504 0.0
H368 H 0.76637 0.66783 0.20877 0.0
H369 H 0.73688 0.66434 0.28163 0.0
H370 H 0.77198 0.85453 0.296 0.0
H371 H 0.67878 0.89447 0.30283 0.0
H372 H 0.72032 0.88778 0.25273 0.0
H373 H 0.56393 0.86088 0.23007 0.0
H374 H 0.52221 0.8689 0.27958 0.0
H375 H 0.50802 0.81016 0.25883 0.0
H376 H 0.67537 0.67255 0.34956 0.0
H377 H 0.5746 0.69079 0.40482 0.0
H378 H 0.54462 0.8414 0.34992 0.0
C379 C 0.69961 0.78831 0.21346 0.0
C380 C 0.72901 0.74564 0.19598 0.0
C381 C 0.74385 0.70118 0.22124 0.0
C382 C 0.72824 0.69888 0.26287 0.0
C383 C 0.69901 0.74149 0.27914 0.0
C384 C 0.68486 0.78542 0.25524 0.0
C385 C 0.6435 0.8241 0.2794 0.0
C386 C 0.70749 0.86781 0.28295 0.0
C387 C 0.55415 0.84199 0.26089 0.0
C388 C 0.63134 0.79401 0.31985 0.0
C389 C 0.66584 0.74676 0.31939 0.0
C390 C 0.65041 0.70983 0.35086 0.0
C391 C 0.5935 0.72049 0.38227 0.0
C392 C 0.55324 0.76765 0.38185 0.0
C393 C 0.57718 0.80563 0.35173 0.0
H394 H 0.37461 0.65607 0.70557 0.0
H395 H 0.21758 0.78915 0.71074 0.0
H396 H 0.23512 0.7832 0.78481 0.0
H397 H 0.31143 0.59276 0.80925 0.0
H398 H 0.42338 0.57136 0.81822 0.0
H399 H 0.37941 0.57745 0.76755 0.0
H400 H 0.51048 0.63544 0.74324 0.0
H401 H 0.55549 0.62789 0.79327 0.0
H402 H 0.53366 0.68933 0.76959 0.0
H403 H 0.28968 0.77239 0.85473 0.0
H404 H 0.39923 0.76807 0.90976 0.0
H405 H 0.52314 0.64205 0.86127 0.0
C406 C 0.34202 0.68299 0.72265 0.0
C407 C 0.29455 0.72289 0.70277 0.0
C408 C 0.25465 0.75842 0.7256 0.0
C409 C 0.26302 0.75484 0.76771 0.0
C410 C 0.31174 0.71558 0.78661 0.0
C411 C 0.35149 0.68051 0.76474 0.0
C412 C 0.4142 0.64796 0.79096 0.0
C413 C 0.38003 0.59419 0.79683 0.0
C414 C 0.50897 0.65038 0.77324 0.0
C415 C 0.4084 0.67249 0.83007 0.0
C416 C 0.34586 0.70999 0.8275 0.0
C417 C 0.3376 0.74257 0.85744 0.0
C418 C 0.39987 0.73973 0.88879 0.0
C419 C 0.47011 0.70511 0.88943 0.0
C420 C 0.46941 0.66844 0.86183 0.0
H421 H 0.29353 0.2278 0.78334 0.0
H422 H 0.28279 0.38725 0.78971 0.0
H423 H 0.31875 0.40062 0.71719 0.0
H424 H 0.47683 0.22645 0.72573 0.0
H425 H 0.44167 0.17719 0.69634 0.0
H426 H 0.39685 0.18093 0.74589 0.0
H427 H 0.23772 0.18235 0.71573 0.0
H428 H 0.28321 0.17959 0.66578 0.0
H429 H 0.20899 0.22912 0.6757 0.0
H430 H 0.38254 0.39705 0.64892 0.0
H431 H 0.48005 0.3764 0.59361 0.0
H432 H 0.44419 0.21993 0.63026 0.0
C433 C 0.29715 0.26555 0.76935 0.0
C434 C 0.28572 0.30642 0.79222 0.0
C435 C 0.29127 0.35526 0.7728 0.0
C436 C 0.31066 0.36326 0.73149 0.0
C437 C 0.32267 0.32209 0.70988 0.0
C438 C 0.31581 0.27415 0.72816 0.0
C439 C 0.34334 0.23644 0.69983 0.0
C440 C 0.41918 0.2034 0.71802 0.0
C441 C 0.26354 0.20503 0.6886 0.0
C442 C 0.37394 0.27083 0.664 0.0
C443 C 0.35841 0.32003 0.6697 0.0
C444 C 0.39228 0.35865 0.64338 0.0
C445 C 0.44722 0.34669 0.61173 0.0
C446 C 0.4679 0.29672 0.60671 0.0
C447 C 0.42733 0.25849 0.63223 0.0
H448 H 0.21985 0.72697 0.2815 0.0
H449 H 0.21111 0.88623 0.28932 0.0
H450 H 0.17816 0.89929 0.21672 0.0
H451 H 0.31304 0.73405 0.175 0.0
H452 H 0.24631 0.68204 0.16296 0.0
H453 H 0.28605 0.68524 0.21381 0.0
H454 H 0.12481 0.67681 0.2413 0.0
H455 H 0.08561 0.67242 0.19086 0.0
H456 H 0.04138 0.71933 0.22033 0.0
H457 H 0.11714 0.89462 0.14901 0.0
H458 H 0.02353 0.87165 0.09355 0.0
H459 H 0.08482 0.71653 0.12457 0.0
C460 C 0.21234 0.76462 0.26779 0.0
C461 C 0.21775 0.8055 0.29116 0.0
C462 C 0.20735 0.85423 0.2721 0.0
C463 C 0.18958 0.86212 0.23072 0.0
C464 C 0.18412 0.82104 0.20855 0.0
C465 C 0.19556 0.77321 0.22634 0.0
C466 C 0.17576 0.73529 0.19684 0.0
C467 C 0.26035 0.70752 0.18655 0.0
C468 C 0.10252 0.69889 0.2133 0.0
C469 C 0.14438 0.76914 0.1608 0.0
C470 C 0.15222 0.81857 0.16782 0.0
C471 C 0.11378 0.85627 0.14232 0.0
C472 C 0.06123 0.84297 0.11041 0.0
C473 C 0.04852 0.79254 0.1038 0.0
C474 C 0.0954 0.75554 0.12789 0.0
H475 H 0.06258 0.29816 0.36559 0.0
H476 H 0.04298 0.14221 0.40555 0.0
H477 H 0.1401 0.12238 0.34961 0.0
H478 H 0.02305 0.29069 0.27418 0.0
H479 H 0.09828 0.33632 0.25018 0.0
H480 H 0.06269 0.34138 0.301 0.0
H481 H 0.22459 0.34056 0.32663 0.0
H482 H 0.26215 0.33796 0.27531 0.0
H483 H 0.29862 0.29195 0.31446 0.0
H484 H 0.19077 0.11832 0.27909 0.0
H485 H 0.21298 0.13049 0.20535 0.0
H486 H 0.19604 0.29004 0.20985 0.0
C487 C 0.08305 0.26007 0.36411 0.0
C488 C 0.04308 0.22108 0.38914 0.0
C489 C 0.07141 0.17199 0.38608 0.0
C490 C 0.1269 0.1607 0.3544 0.0
C491 C 0.15543 0.19947 0.32677 0.0
C492 C 0.13731 0.24856 0.33222 0.0
C493 C 0.16104 0.2826 0.29493 0.0
C494 C 0.08151 0.31453 0.27919 0.0
C495 C 0.24141 0.31519 0.30332 0.0
C496 C 0.18528 0.24463 0.26624 0.0
C497 C 0.18475 0.19705 0.28548 0.0
C498 C 0.19452 0.15551 0.26403 0.0
C499 C 0.20591 0.16279 0.22202 0.0
C500 C 0.20584 0.21126 0.20173 0.0
C501 C 0.19656 0.25253 0.22441 0.0
H502 H 0.974 0.19237 0.86643 0.0
H503 H 0.90734 0.34035 0.89662 0.0
H504 H 0.80867 0.3509 0.83779 0.0
H505 H 0.01009 0.21924 0.7731 0.0
H506 H 0.96259 0.16627 0.75185 0.0
H507 H 0.99936 0.16054 0.80331 0.0
H508 H 0.84436 0.13083 0.82887 0.0
H509 H 0.80721 0.13384 0.77715 0.0
H510 H 0.7476 0.16664 0.8134 0.0
H511 H 0.76655 0.35747 0.76558 0.0
H512 H 0.74904 0.35081 0.69236 0.0
H513 H 0.83803 0.19803 0.70864 0.0
C514 C 0.93463 0.22584 0.86207 0.0
C515 C 0.95049 0.26608 0.88533 0.0
C516 C 0.89753 0.30924 0.87881 0.0
C517 C 0.84127 0.31566 0.84528 0.0
C518 C 0.83664 0.2779 0.81957 0.0
C519 C 0.87865 0.23279 0.82856 0.0
C520 C 0.87396 0.20116 0.79332 0.0
C521 C 0.96701 0.18599 0.77962 0.0
C522 C 0.81472 0.15541 0.80381 0.0
C523 C 0.83072 0.23735 0.76197 0.0
C524 C 0.80857 0.28116 0.7778 0.0
C525 C 0.78013 0.32267 0.7532 0.0
C526 C 0.77202 0.31889 0.71159 0.0
C527 C 0.79206 0.27388 0.69512 0.0
C528 C 0.821 0.23261 0.72072 0.0
H529 H 1.00048 0.83247 0.62557 0.0
H530 H 0.92824 0.68978 0.58554 0.0
H531 H 0.81936 0.67743 0.64056 0.0
H532 H 0.02103 0.79701 0.71835 0.0
H533 H 0.97524 0.84901 0.7414 0.0
H534 H 0.01935 0.85794 0.69118 0.0
H535 H 0.87077 0.89382 0.66307 0.0
H536 H 0.82637 0.88748 0.71372 0.0
H537 H 0.76921 0.85974 0.67382 0.0
H538 H 0.76575 0.66622 0.71126 0.0
H539 H 0.74182 0.66652 0.78489 0.0
H540 H 0.84465 0.81675 0.77975 0.0
C541 C 0.95789 0.80005 0.62683 0.0
C542 C 0.97433 0.7616 0.60187 0.0
C543 C 0.91753 0.71959 0.60457 0.0
C544 C 0.85551 0.71214 0.63595 0.0
C545 C 0.84958 0.74768 0.66359 0.0
C546 C 0.89647 0.79195 0.65836 0.0
C547 C 0.88954 0.82038 0.69542 0.0
C548 C 0.98173 0.83167 0.71255 0.0
C549 C 0.83573 0.86818 0.68594 0.0
C550 C 0.83909 0.7831 0.72357 0.0
C551 C 0.81537 0.74171 0.70452 0.0
C552 C 0.78067 0.69921 0.72608 0.0
C553 C 0.76877 0.69933 0.76794 0.0
C554 C 0.79121 0.74172 0.78767 0.0
C555 C 0.82549 0.78424 0.76507 0.0
loop_
_geom_bond_atom_site_label_1
_geom_bond_atom_site_label_2
_geom_bond_distance
_geom_bond_site_symmetry_2
_ccdc_geom_bond_type
C0 O12 1.241 . S
C0 O13 1.280 . S
C1 O14 1.277 . S
C1 O15 1.245 . S
C2 O26 1.247 . S
C2 O28 1.289 1_556 S
Mg3 O4 1.926 . S
Mg3 O13 1.984 . S
Mg3 O15 1.988 . S
Mg3 O16 2.061 . S
O4 Mg3 1.926 . S
O4 Mg5 1.986 . S
O4 Mg6 1.939 . S
Mg5 O4 1.986 . S
Mg5 O12 2.042 . S
Mg5 O14 2.041 . S
Mg5 O20 2.038 . S
Mg5 O28 2.238 . S
Mg6 O4 1.939 . S
Mg6 O7 1.895 1_554 S
Mg6 O17 2.098 1_554 S
Mg6 O19 2.075 1_554 S
Mg6 O28 2.115 . S
Mg6 O29 2.083 . S
O7 Mg6 1.895 1_556 S
O7 Mg8 1.926 . S
O7 Mg9 1.986 . S
Mg8 O7 1.926 . S
Mg8 O22 1.984 . S
Mg8 O25 1.988 . S
Mg8 O26 2.061 . S
Mg9 O7 1.986 . S
Mg9 O17 2.238 . S
Mg9 O21 2.042 . S
Mg9 O23 2.041 . S
Mg9 O30 2.038 . S
C10 O16 1.247 . S
C10 O17 1.289 1_554 S
C11 O29 1.245 1_556 S
C11 O30 1.274 . S
O12 C0 1.241 . S
O12 Mg5 2.042 . S
O13 C0 1.280 . S
O13 Mg3 1.984 . S
O14 C1 1.277 . S
O14 Mg5 2.041 . S
O15 C1 1.245 . S
O15 Mg3 1.988 . S
O16 Mg3 2.061 . S
O16 C10 1.247 . S
O17 Mg6 2.098 1_556 S
O17 Mg9 2.238 . S
O17 C10 1.289 1_556 S
C18 O19 1.245 1_554 S
C18 O20 1.274 . S
O19 Mg6 2.075 1_556 S
O19 C18 1.245 1_556 S
O20 Mg5 2.038 . S
O20 C18 1.274 . S
O21 Mg9 2.042 . S
O21 C24 1.241 . S
O22 Mg8 1.984 . S
O22 C24 1.280 . S
O23 Mg9 2.041 . S
O23 C27 1.277 . S
C24 O21 1.241 . S
C24 O22 1.280 . S
O25 Mg8 1.988 . S
O25 C27 1.245 . S
O26 C2 1.247 . S
O26 Mg8 2.061 . S
C27 O23 1.277 . S
C27 O25 1.245 . S
O28 C2 1.289 1_554 S
O28 Mg5 2.238 . S
O28 Mg6 2.115 . S
O29 Mg6 2.083 . S
O29 C11 1.245 1_554 S
O30 Mg9 2.038 . S
O30 C11 1.274 . S
C31 O43 1.241 . S
C31 O44 1.280 . S
C32 O45 1.277 . S
C32 O46 1.245 . S
C33 O57 1.247 . S
C33 O59 1.289 1_556 S
Mg34 O35 1.926 . S
Mg34 O44 1.984 . S
Mg34 O46 1.988 . S
Mg34 O47 2.061 . S
O35 Mg34 1.926 . S
O35 Mg36 1.986 . S
O35 Mg37 1.939 . S
Mg36 O35 1.986 . S
Mg36 O43 2.042 . S
Mg36 O45 2.041 . S
Mg36 O51 2.038 . S
Mg36 O59 2.238 . S
Mg37 O35 1.939 . S
Mg37 O38 1.894 1_554 S
Mg37 O48 2.098 1_554 S
Mg37 O50 2.075 1_554 S
Mg37 O59 2.115 . S
Mg37 O60 2.083 . S
O38 Mg37 1.894 1_556 S
O38 Mg39 1.926 . S
O38 Mg40 1.986 . S
Mg39 O38 1.926 . S
Mg39 O53 1.984 . S
Mg39 O56 1.988 . S
Mg39 O57 2.061 . S
Mg40 O38 1.986 . S
Mg40 O48 2.238 . S
Mg40 O52 2.042 . S
Mg40 O54 2.041 . S
Mg40 O61 2.038 . S
C41 O47 1.247 . S
C41 O48 1.289 1_554 S
C42 O60 1.245 1_556 S
C42 O61 1.274 . S
O43 C31 1.241 . S
O43 Mg36 2.042 . S
O44 C31 1.280 . S
O44 Mg34 1.984 . S
O45 C32 1.277 . S
O45 Mg36 2.041 . S
O46 C32 1.245 . S
O46 Mg34 1.988 . S
O47 Mg34 2.061 . S
O47 C41 1.247 . S
O48 Mg37 2.098 1_556 S
O48 Mg40 2.238 . S
O48 C41 1.289 1_556 S
C49 O50 1.245 1_554 S
C49 O51 1.274 . S
O50 Mg37 2.075 1_556 S
O50 C49 1.245 1_556 S
O51 Mg36 2.038 . S
O51 C49 1.274 . S
O52 Mg40 2.042 . S
O52 C55 1.241 . S
O53 Mg39 1.984 . S
O53 C55 1.280 . S
O54 Mg40 2.041 . S
O54 C58 1.277 . S
C55 O52 1.241 . S
C55 O53 1.280 . S
O56 Mg39 1.988 . S
O56 C58 1.245 . S
O57 C33 1.247 . S
O57 Mg39 2.061 . S
C58 O54 1.277 . S
C58 O56 1.245 . S
O59 C33 1.289 1_554 S
O59 Mg36 2.238 . S
O59 Mg37 2.115 . S
O60 Mg37 2.083 . S
O60 C42 1.245 1_554 S
O61 Mg40 2.038 . S
O61 C42 1.274 . S
C62 O74 1.241 . S
C62 O75 1.280 . S
C63 O76 1.277 . S
C63 O77 1.245 . S
C64 O88 1.247 . S
C64 O90 1.289 . S
Mg65 O66 1.926 . S
Mg65 O75 1.984 . S
Mg65 O77 1.988 . S
Mg65 O78 2.061 . S
O66 Mg65 1.926 . S
O66 Mg67 1.986 . S
O66 Mg68 1.917 . S
Mg67 O66 1.986 . S
Mg67 O74 2.042 . S
Mg67 O76 2.041 . S
Mg67 O82 2.038 . S
Mg67 O90 2.238 . S
Mg68 O66 1.917 . S
Mg68 O69 1.917 . S
Mg68 O79 2.106 . S
Mg68 O81 2.079 . S
Mg68 O90 2.106 . S
Mg68 O91 2.079 . S
O69 Mg68 1.917 . S
O69 Mg70 1.926 . S
O69 Mg71 1.986 . S
Mg70 O69 1.926 . S
Mg70 O84 1.984 . S
Mg70 O87 1.988 . S
Mg70 O88 2.061 . S
Mg71 O69 1.986 . S
Mg71 O79 2.238 . S
Mg71 O83 2.042 . S
Mg71 O85 2.041 . S
Mg71 O92 2.038 . S
C72 O78 1.247 . S
C72 O79 1.289 . S
C73 O91 1.245 . S
C73 O92 1.274 . S
O74 C62 1.241 . S
O74 Mg67 2.042 . S
O75 C62 1.280 . S
O75 Mg65 1.984 . S
O76 C63 1.277 . S
O76 Mg67 2.041 . S
O77 C63 1.245 . S
O77 Mg65 1.988 . S
O78 Mg65 2.061 . S
O78 C72 1.247 . S
O79 Mg68 2.106 . S
O79 Mg71 2.238 . S
O79 C72 1.289 . S
C80 O81 1.245 . S
C80 O82 1.274 . S
O81 Mg68 2.079 . S
O81 C80 1.245 . S
O82 Mg67 2.038 . S
O82 C80 1.274 . S
O83 Mg71 2.042 . S
O83 C86 1.241 . S
O84 Mg70 1.984 . S
O84 C86 1.280 . S
O85 Mg71 2.041 . S
O85 C89 1.277 . S
C86 O83 1.241 . S
C86 O84 1.280 . S
O87 Mg70 1.988 . S
O87 C89 1.245 . S
O88 C64 1.247 . S
O88 Mg70 2.061 . S
C89 O85 1.277 . S
C89 O87 1.245 . S
O90 C64 1.289 . S
O90 Mg67 2.238 . S
O90 Mg68 2.106 . S
O91 Mg68 2.079 . S
O91 C73 1.245 . S
O92 Mg71 2.038 . S
O92 C73 1.274 . S
C93 O105 1.241 . S
C93 O106 1.280 . S
C94 O107 1.277 . S
C94 O108 1.245 . S
C95 O119 1.247 . S
C95 O121 1.289 . S
Mg96 O97 1.926 . S
Mg96 O106 1.984 . S
Mg96 O108 1.988 . S
Mg96 O109 2.061 . S
O97 Mg96 1.926 . S
O97 Mg98 1.986 . S
O97 Mg99 1.917 . S
Mg98 O97 1.986 . S
Mg98 O105 2.042 . S
Mg98 O107 2.041 . S
Mg98 O113 2.038 . S
Mg98 O121 2.238 . S
Mg99 O97 1.917 . S
Mg99 O100 1.917 . S
Mg99 O110 2.106 . S
Mg99 O112 2.079 . S
Mg99 O121 2.106 . S
Mg99 O122 2.079 . S
O100 Mg99 1.917 . S
O100 Mg101 1.926 . S
O100 Mg102 1.986 . S
Mg101 O100 1.926 . S
Mg101 O115 1.984 . S
Mg101 O118 1.988 . S
Mg101 O119 2.061 . S
Mg102 O100 1.986 . S
Mg102 O110 2.238 . S
Mg102 O114 2.042 . S
Mg102 O116 2.041 . S
Mg102 O123 2.038 . S
C103 O109 1.247 . S
C103 O110 1.289 . S
C104 O122 1.245 . S
C104 O123 1.274 . S
O105 C93 1.241 . S
O105 Mg98 2.042 . S
O106 C93 1.280 . S
O106 Mg96 1.984 . S
O107 C94 1.277 . S
O107 Mg98 2.041 . S
O108 C94 1.245 . S
O108 Mg96 1.988 . S
O109 Mg96 2.061 . S
O109 C103 1.247 . S
O110 Mg99 2.106 . S
O110 Mg102 2.238 . S
O110 C103 1.289 . S
C111 O112 1.245 . S
C111 O113 1.274 . S
O112 Mg99 2.079 . S
O112 C111 1.245 . S
O113 Mg98 2.038 . S
O113 C111 1.274 . S
O114 Mg102 2.042 . S
O114 C117 1.241 . S
O115 Mg101 1.984 . S
O115 C117 1.280 . S
O116 Mg102 2.041 . S
O116 C120 1.277 . S
C117 O114 1.241 . S
C117 O115 1.280 . S
O118 Mg101 1.988 . S
O118 C120 1.245 . S
O119 C95 1.247 . S
O119 Mg101 2.061 . S
C120 O116 1.277 . S
C120 O118 1.245 . S
O121 C95 1.289 . S
O121 Mg98 2.238 . S
O121 Mg99 2.106 . S
O122 Mg99 2.079 . S
O122 C104 1.245 . S
O123 Mg102 2.038 . S
O123 C104 1.274 . S
H124 C136 0.930 . S
H125 C138 0.930 . S
H126 C139 0.930 . S
H127 C143 0.959 . S
H128 C143 0.959 . S
H129 C143 0.961 . S
H130 C144 0.960 . S
H131 C144 0.961 . S
H132 C144 0.959 . S
H133 C147 0.929 . S
H134 C148 0.931 . S
H135 C150 0.930 . S
C136 H124 0.930 . S
C136 C137 1.399 1_556 S
C136 C141 1.399 . S
C137 C136 1.399 1_554 S
C137 C138 1.376 . S
C138 H125 0.930 . S
C138 C137 1.376 . S
C138 C139 1.388 . S
C139 H126 0.930 . S
C139 C138 1.388 . S
C139 C140 1.390 . S
C140 C139 1.390 . S
C140 C141 1.394 1_554 S
C140 C146 1.465 . S
C141 C136 1.399 . S
C141 C140 1.394 1_556 S
C141 C142 1.516 . S
C142 C141 1.516 . S
C142 C143 1.502 . S
C142 C144 1.561 . S
C142 C145 1.526 . S
C143 H127 0.959 . S
C143 H128 0.959 . S
C143 H129 0.961 . S
C143 C142 1.502 . S
C144 H130 0.960 . S
C144 H131 0.961 . S
C144 H132 0.959 . S
C144 C142 1.561 . S
C145 C142 1.526 . S
C145 C146 1.396 1_556 S
C145 C150 1.390 . S
C146 C140 1.465 . S
C146 C145 1.396 1_554 S
C146 C147 1.399 . S
C147 H133 0.929 . S
C147 C146 1.399 . S
C147 C148 1.385 . S
C148 H134 0.931 . S
C148 C147 1.385 . S
C148 C149 1.389 . S
C149 C148 1.389 . S
C149 C150 1.387 1_554 S
C150 H135 0.930 . S
C150 C145 1.390 . S
C150 C149 1.387 1_556 S
H151 C163 0.930 . S
H152 C165 0.930 . S
H153 C166 0.930 . S
H154 C170 0.959 . S
H155 C170 0.959 . S
H156 C170 0.961 . S
H157 C171 0.960 . S
H158 C171 0.961 . S
H159 C171 0.959 . S
H160 C174 0.929 . S
H161 C175 0.931 . S
H162 C177 0.930 . S
C163 H151 0.930 . S
C163 C164 1.399 1_556 S
C163 C168 1.399 . S
C164 C163 1.399 1_554 S
C164 C165 1.376 . S
C165 H152 0.930 . S
C165 C164 1.376 . S
C165 C166 1.388 . S
C166 H153 0.930 . S
C166 C165 1.388 . S
C166 C167 1.390 . S
C167 C166 1.390 . S
C167 C168 1.394 1_554 S
C167 C173 1.465 . S
C168 C163 1.399 . S
C168 C167 1.394 1_556 S
C168 C169 1.516 . S
C169 C168 1.516 . S
C169 C170 1.502 . S
C169 C171 1.561 . S
C169 C172 1.526 . S
C170 H154 0.959 . S
C170 H155 0.959 . S
C170 H156 0.961 . S
C170 C169 1.502 . S
C171 H157 0.960 . S
C171 H158 0.961 . S
C171 H159 0.959 . S
C171 C169 1.561 . S
C172 C169 1.526 . S
C172 C173 1.396 1_556 S
C172 C177 1.390 . S
C173 C167 1.465 . S
C173 C172 1.396 1_554 S
C173 C174 1.399 . S
C174 H160 0.929 . S
C174 C173 1.399 . S
C174 C175 1.385 . S
C175 H161 0.931 . S
C175 C174 1.385 . S
C175 C176 1.389 . S
C176 C175 1.389 . S
C176 C177 1.387 1_554 S
C177 H162 0.930 . S
C177 C172 1.390 . S
C177 C176 1.387 1_556 S
H178 C190 0.930 . S
H179 C192 0.930 . S
H180 C193 0.930 . S
H181 C197 0.959 . S
H182 C197 0.959 . S
H183 C197 0.961 . S
H184 C198 0.960 . S
H185 C198 0.961 . S
H186 C198 0.959 . S
H187 C201 0.929 . S
H188 C202 0.931 . S
H189 C204 0.930 . S
C190 H178 0.930 . S
C190 C191 1.399 . S
C190 C195 1.399 . S
C191 C190 1.399 . S
C191 C192 1.376 . S
C192 H179 0.930 . S
C192 C191 1.376 . S
C192 C193 1.388 . S
C193 H180 0.930 . S
C193 C192 1.388 . S
C193 C194 1.390 . S
C194 C193 1.390 . S
C194 C195 1.394 . S
C194 C200 1.465 . S
C195 C190 1.399 . S
C195 C194 1.394 . S
C195 C196 1.516 . S
C196 C195 1.516 . S
C196 C197 1.502 . S
C196 C198 1.561 . S
C196 C199 1.526 . S
C197 H181 0.959 . S
C197 H182 0.959 . S
C197 H183 0.961 . S
C197 C196 1.502 . S
C198 H184 0.960 . S
C198 H185 0.961 . S
C198 H186 0.959 . S
C198 C196 1.561 . S
C199 C196 1.526 . S
C199 C200 1.396 . S
C199 C204 1.390 . S
C200 C194 1.465 . S
C200 C199 1.396 . S
C200 C201 1.399 . S
C201 H187 0.929 . S
C201 C200 1.399 . S
C201 C202 1.385 . S
C202 H188 0.931 . S
C202 C201 1.385 . S
C202 C203 1.389 . S
C203 C202 1.389 . S
C203 C204 1.387 . S
C204 H189 0.930 . S
C204 C199 1.390 . S
C204 C203 1.387 . S
H205 C217 0.930 . S
H206 C219 0.930 . S
H207 C220 0.930 . S
H208 C224 0.959 . S
H209 C224 0.959 . S
H210 C224 0.961 . S
H211 C225 0.960 . S
H212 C225 0.961 . S
H213 C225 0.959 . S
H214 C228 0.929 . S
H215 C229 0.931 . S
H216 C231 0.930 . S
C217 H205 0.930 . S
C217 C218 1.399 . S
C217 C222 1.399 . S
C218 C217 1.399 . S
C218 C219 1.376 . S
C219 H206 0.930 . S
C219 C218 1.376 . S
C219 C220 1.388 . S
C220 H207 0.930 . S
C220 C219 1.388 . S
C220 C221 1.390 . S
C221 C220 1.390 . S
C221 C222 1.394 . S
C221 C227 1.465 . S
C222 C217 1.399 . S
C222 C221 1.394 . S
C222 C223 1.516 . S
C223 C222 1.516 . S
C223 C224 1.502 . S
C223 C225 1.561 . S
C223 C226 1.526 . S
C224 H208 0.959 . S
C224 H209 0.959 . S
C224 H210 0.961 . S
C224 C223 1.502 . S
C225 H211 0.960 . S
C225 H212 0.961 . S
C225 H213 0.959 . S
C225 C223 1.561 . S
C226 C223 1.526 . S
C226 C227 1.396 . S
C226 C231 1.390 . S
C227 C221 1.465 . S
C227 C226 1.396 . S
C227 C228 1.399 . S
C228 H214 0.929 . S
C228 C227 1.399 . S
C228 C229 1.385 . S
C229 H215 0.931 . S
C229 C228 1.385 . S
C229 C230 1.389 . S
C230 C229 1.389 . S
C230 C231 1.387 . S
C231 H216 0.930 . S
C231 C226 1.390 . S
C231 C230 1.387 . S
H232 C244 0.930 . S
H233 C246 0.930 . S
H234 C247 0.930 . S
H235 C251 0.959 . S
H236 C251 0.959 . S
H237 C251 0.961 . S
H238 C252 0.960 . S
H239 C252 0.961 1_554 S
H240 C252 0.959 . S
H241 C255 0.929 . S
H242 C256 0.931 . S
H243 C258 0.930 . S
C244 H232 0.930 . S
C244 C245 1.399 1_554 S
C244 C249 1.399 . S
C245 C244 1.399 1_556 S
C245 C246 1.376 . S
C246 H233 0.930 . S
C246 C245 1.376 . S
C246 C247 1.388 . S
C247 H234 0.930 . S
C247 C246 1.388 . S
C247 C248 1.390 . S
C248 C247 1.390 . S
C248 C249 1.394 1_556 S
C248 C254 1.465 . S
C249 C244 1.399 . S
C249 C248 1.394 1_554 S
C249 C250 1.516 . S
C250 C249 1.516 . S
C250 C251 1.502 . S
C250 C252 1.561 1_554 S
C250 C253 1.526 . S
C251 H235 0.959 . S
C251 H236 0.959 . S
C251 H237 0.961 . S
C251 C250 1.502 . S
C252 H238 0.960 . S
C252 H239 0.961 1_556 S
C252 H240 0.959 . S
C252 C250 1.561 1_556 S
C253 C250 1.526 . S
C253 C254 1.396 1_554 S
C253 C258 1.390 . S
C254 C248 1.465 . S
C254 C253 1.396 1_556 S
C254 C255 1.399 . S
C255 H241 0.929 . S
C255 C254 1.399 . S
C255 C256 1.385 . S
C256 H242 0.931 . S
C256 C255 1.385 . S
C256 C257 1.389 . S
C257 C256 1.389 . S
C257 C258 1.387 1_556 S
C258 H243 0.930 . S
C258 C253 1.390 . S
C258 C257 1.387 1_554 S
H259 C271 0.930 . S
H260 C273 0.930 . S
H261 C274 0.930 . S
H262 C278 0.959 . S
H263 C278 0.959 . S
H264 C278 0.961 . S
H265 C279 0.960 . S
H266 C279 0.961 . S
H267 C279 0.959 . S
H268 C282 0.929 . S
H269 C283 0.931 . S
H270 C285 0.930 . S
C271 H259 0.930 . S
C271 C272 1.399 . S
C271 C276 1.399 . S
C272 C271 1.399 . S
C272 C273 1.376 . S
C273 H260 0.930 . S
C273 C272 1.376 . S
C273 C274 1.388 . S
C274 H261 0.930 . S
C274 C273 1.388 . S
C274 C275 1.390 . S
C275 C274 1.390 . S
C275 C276 1.394 . S
C275 C281 1.465 . S
C276 C271 1.399 . S
C276 C275 1.394 . S
C276 C277 1.516 . S
C277 C276 1.516 . S
C277 C278 1.502 . S
C277 C279 1.561 . S
C277 C280 1.526 . S
C278 H262 0.959 . S
C278 H263 0.959 . S
C278 H264 0.961 . S
C278 C277 1.502 . S
C279 H265 0.960 . S
C279 H266 0.961 . S
C279 H267 0.959 . S
C279 C277 1.561 . S
C280 C277 1.526 . S
C280 C281 1.396 . S
C280 C285 1.390 . S
C281 C275 1.465 . S
C281 C280 1.396 . S
C281 C282 1.399 . S
C282 H268 0.929 . S
C282 C281 1.399 . S
C282 C283 1.385 . S
C283 H269 0.931 . S
C283 C282 1.385 . S
C283 C284 1.389 . S
C284 C283 1.389 . S
C284 C285 1.387 . S
C285 H270 0.930 . S
C285 C280 1.390 . S
C285 C284 1.387 . S
H286 C298 0.930 . S
H287 C300 0.930 . S
H288 C301 0.930 . S
H289 C305 0.959 . S
H290 C305 0.959 . S
H291 C305 0.961 . S
H292 C306 0.960 . S
H293 C306 0.961 1_565 S
H294 C306 0.959 . S
H295 C309 0.929 . S
H296 C310 0.931 . S
H297 C312 0.930 . S
C298 H286 0.930 . S
C298 C299 1.399 1_554 S
C298 C303 1.399 . S
C299 C298 1.399 1_556 S
C299 C300 1.376 . S
C300 H287 0.930 . S
C300 C299 1.376 . S
C300 C301 1.388 . S
C301 H288 0.930 . S
C301 C300 1.388 . S
C301 C302 1.390 . S
C302 C301 1.390 . S
C302 C303 1.394 1_556 S
C302 C308 1.465 1_445 S
C303 C298 1.399 . S
C303 C302 1.394 1_554 S
C303 C304 1.516 1_545 S
C304 C303 1.516 1_565 S
C304 C305 1.502 . S
C304 C306 1.561 1_465 S
C304 C307 1.526 1_455 S
C305 H289 0.959 . S
C305 H290 0.959 . S
C305 H291 0.961 . S
C305 C304 1.502 . S
C306 H292 0.960 . S
C306 H293 0.961 1_545 S
C306 H294 0.959 . S
C306 C304 1.561 1_645 S
C307 C304 1.526 1_655 S
C307 C308 1.396 1_554 S
C307 C312 1.390 . S
C308 C302 1.465 1_665 S
C308 C307 1.396 1_556 S
C308 C309 1.399 . S
C309 H295 0.929 . S
C309 C308 1.399 . S
C309 C310 1.385 . S
C310 H296 0.931 . S
C310 C309 1.385 . S
C310 C311 1.389 . S
C311 C310 1.389 . S
C311 C312 1.387 1_556 S
C312 H297 0.930 . S
C312 C307 1.390 . S
C312 C311 1.387 1_554 S
H313 C325 0.930 . S
H314 C327 0.930 . S
H315 C328 0.930 1_455 S
H316 C332 0.959 . S
H317 C332 0.959 . S
H318 C332 0.961 . S
H319 C333 0.960 1_655 S
H320 C333 0.961 1_565 S
H321 C333 0.959 . S
H322 C336 0.929 . S
H323 C337 0.931 . S
H324 C339 0.930 . S
C325 H313 0.930 . S
C325 C326 1.399 . S
C325 C330 1.399 . S
C326 C325 1.399 . S
C326 C327 1.376 . S
C327 H314 0.930 . S
C327 C326 1.376 . S
C327 C328 1.388 . S
C328 H315 0.930 1_655 S
C328 C327 1.388 . S
C328 C329 1.390 . S
C329 C328 1.390 . S
C329 C330 1.394 . S
C329 C335 1.465 1_645 S
C330 C325 1.399 . S
C330 C329 1.394 . S
C330 C331 1.516 1_545 S
C331 C330 1.516 1_565 S
C331 C332 1.502 . S
C331 C333 1.561 1_665 S
C331 C334 1.526 1_655 S
C332 H316 0.959 . S
C332 H317 0.959 . S
C332 H318 0.961 . S
C332 C331 1.502 . S
C333 H319 0.960 1_455 S
C333 H320 0.961 1_545 S
C333 H321 0.959 . S
C333 C331 1.561 1_445 S
C334 C331 1.526 1_455 S
C334 C335 1.396 . S
C334 C339 1.390 . S
C335 C329 1.465 1_465 S
C335 C334 1.396 . S
C335 C336 1.399 . S
C336 H322 0.929 . S
C336 C335 1.399 . S
C336 C337 1.385 . S
C337 H323 0.931 . S
C337 C336 1.385 . S
C337 C338 1.389 . S
C338 C337 1.389 . S
C338 C339 1.387 . S
C339 H324 0.930 . S
C339 C334 1.390 . S
C339 C338 1.387 . S
H340 C352 0.930 . S
H341 C354 0.930 . S
H342 C355 0.930 . S
H343 C359 0.959 . S
H344 C359 0.959 . S
H345 C359 0.961 . S
H346 C360 0.960 . S
H347 C360 0.961 . S
H348 C360 0.959 . S
H349 C363 0.929 . S
H350 C364 0.931 . S
H351 C366 0.930 . S
C352 H340 0.930 . S
C352 C353 1.399 . S
C352 C357 1.399 . S
C353 C352 1.399 . S
C353 C354 1.376 . S
C354 H341 0.930 . S
C354 C353 1.376 . S
C354 C355 1.388 . S
C355 H342 0.930 . S
C355 C354 1.388 . S
C355 C356 1.390 . S
C356 C355 1.390 . S
C356 C357 1.394 . S
C356 C362 1.465 . S
C357 C352 1.399 . S
C357 C356 1.394 . S
C357 C358 1.516 . S
C358 C357 1.516 . S
C358 C359 1.502 . S
C358 C360 1.561 . S
C358 C361 1.526 . S
C359 H343 0.959 . S
C359 H344 0.959 . S
C359 H345 0.961 . S
C359 C358 1.502 . S
C360 H346 0.960 . S
C360 H347 0.961 . S
C360 H348 0.959 . S
C360 C358 1.561 . S
C361 C358 1.526 . S
C361 C362 1.396 . S
C361 C366 1.390 . S
C362 C356 1.465 . S
C362 C361 1.396 . S
C362 C363 1.399 . S
C363 H349 0.929 . S
C363 C362 1.399 . S
C363 C364 1.385 . S
C364 H350 0.931 . S
C364 C363 1.385 . S
C364 C365 1.389 . S
C365 C364 1.389 . S
C365 C366 1.387 . S
C366 H351 0.930 . S
C366 C361 1.390 . S
C366 C365 1.387 . S
H367 C379 0.930 . S
H368 C381 0.930 . S
H369 C382 0.930 . S
H370 C386 0.959 . S
H371 C386 0.959 . S
H372 C386 0.961 . S
H373 C387 0.960 . S
H374 C387 0.961 . S
H375 C387 0.959 . S
H376 C390 0.929 . S
H377 C391 0.931 . S
H378 C393 0.930 . S
C379 H367 0.930 . S
C379 C380 1.399 . S
C379 C384 1.399 . S
C380 C379 1.399 . S
C380 C381 1.376 . S
C381 H368 0.930 . S
C381 C380 1.376 . S
C381 C382 1.388 . S
C382 H369 0.930 . S
C382 C381 1.388 . S
C382 C383 1.390 . S
C383 C382 1.390 . S
C383 C384 1.394 . S
C383 C389 1.465 . S
C384 C379 1.399 . S
C384 C383 1.394 . S
C384 C385 1.516 . S
C385 C384 1.516 . S
C385 C386 1.502 . S
C385 C387 1.561 . S
C385 C388 1.526 . S
C386 H370 0.959 . S
C386 H371 0.959 . S
C386 H372 0.961 . S
C386 C385 1.502 . S
C387 H373 0.960 . S
C387 H374 0.961 . S
C387 H375 0.959 . S
C387 C385 1.561 . S
C388 C385 1.526 . S
C388 C389 1.396 . S
C388 C393 1.390 . S
C389 C383 1.465 . S
C389 C388 1.396 . S
C389 C390 1.399 . S
C390 H376 0.929 . S
C390 C389 1.399 . S
C390 C391 1.385 . S
C391 H377 0.931 . S
C391 C390 1.385 . S
C391 C392 1.389 . S
C392 C391 1.389 . S
C392 C393 1.387 . S
C393 H378 0.930 . S
C393 C388 1.390 . S
C393 C392 1.387 . S
H394 C406 0.930 . S
H395 C408 0.930 . S
H396 C409 0.930 . S
H397 C413 0.959 . S
H398 C413 0.959 . S
H399 C413 0.961 . S
H400 C414 0.960 . S
H401 C414 0.961 . S
H402 C414 0.959 . S
H403 C417 0.929 . S
H404 C418 0.931 . S
H405 C420 0.930 . S
C406 H394 0.930 . S
C406 C407 1.399 . S
C406 C411 1.399 . S
C407 C406 1.399 . S
C407 C408 1.376 . S
C408 H395 0.930 . S
C408 C407 1.376 . S
C408 C409 1.388 . S
C409 H396 0.930 . S
C409 C408 1.388 . S
C409 C410 1.390 . S
C410 C409 1.390 . S
C410 C411 1.394 . S
C410 C416 1.465 . S
C411 C406 1.399 . S
C411 C410 1.394 . S
C411 C412 1.516 . S
C412 C411 1.516 . S
C412 C413 1.502 . S
C412 C414 1.561 . S
C412 C415 1.526 . S
C413 H397 0.959 . S
C413 H398 0.959 . S
C413 H399 0.961 . S
C413 C412 1.502 . S
C414 H400 0.960 . S
C414 H401 0.961 . S
C414 H402 0.959 . S
C414 C412 1.561 . S
C415 C412 1.526 . S
C415 C416 1.396 . S
C415 C420 1.390 . S
C416 C410 1.465 . S
C416 C415 1.396 . S
C416 C417 1.399 . S
C417 H403 0.929 . S
C417 C416 1.399 . S
C417 C418 1.385 . S
C418 H404 0.931 . S
C418 C417 1.385 . S
C418 C419 1.389 . S
C419 C418 1.389 . S
C419 C420 1.387 . S
C420 H405 0.930 . S
C420 C415 1.390 . S
C420 C419 1.387 . S
H421 C433 0.930 . S
H422 C435 0.930 . S
H423 C436 0.930 . S
H424 C440 0.959 . S
H425 C440 0.959 . S
H426 C440 0.961 . S
H427 C441 0.960 . S
H428 C441 0.961 . S
H429 C441 0.959 . S
H430 C444 0.929 . S
H431 C445 0.931 . S
H432 C447 0.930 . S
C433 H421 0.930 . S
C433 C434 1.399 . S
C433 C438 1.399 . S
C434 C433 1.399 . S
C434 C435 1.376 . S
C435 H422 0.930 . S
C435 C434 1.376 . S
C435 C436 1.388 . S
C436 H423 0.930 . S
C436 C435 1.388 . S
C436 C437 1.390 . S
C437 C436 1.390 . S
C437 C438 1.394 . S
C437 C443 1.465 . S
C438 C433 1.399 . S
C438 C437 1.394 . S
C438 C439 1.516 . S
C439 C438 1.516 . S
C439 C440 1.502 . S
C439 C441 1.561 . S
C439 C442 1.526 . S
C440 H424 0.959 . S
C440 H425 0.959 . S
C440 H426 0.961 . S
C440 C439 1.502 . S
C441 H427 0.960 . S
C441 H428 0.961 . S
C441 H429 0.959 . S
C441 C439 1.561 . S
C442 C439 1.526 . S
C442 C443 1.396 . S
C442 C447 1.390 . S
C443 C437 1.465 . S
C443 C442 1.396 . S
C443 C444 1.399 . S
C444 H430 0.929 . S
C444 C443 1.399 . S
C444 C445 1.385 . S
C445 H431 0.931 . S
C445 C444 1.385 . S
C445 C446 1.389 . S
C446 C445 1.389 . S
C446 C447 1.387 . S
C447 H432 0.930 . S
C447 C442 1.390 . S
C447 C446 1.387 . S
H448 C460 0.930 . S
H449 C462 0.930 . S
H450 C463 0.930 . S
H451 C467 0.959 . S
H452 C467 0.959 . S
H453 C467 0.961 . S
H454 C468 0.960 . S
H455 C468 0.961 . S
H456 C468 0.959 . S
H457 C471 0.929 . S
H458 C472 0.931 . S
H459 C474 0.930 1_455 S
C460 H448 0.930 . S
C460 C461 1.399 . S
C460 C465 1.399 . S
C461 C460 1.399 . S
C461 C462 1.376 1_455 S
C462 H449 0.930 . S
C462 C461 1.376 1_655 S
C462 C463 1.388 . S
C463 H450 0.930 . S
C463 C462 1.388 . S
C463 C464 1.390 . S
C464 C463 1.390 . S
C464 C465 1.394 1_655 S
C464 C470 1.465 . S
C465 C460 1.399 . S
C465 C464 1.394 1_455 S
C465 C466 1.516 . S
C466 C465 1.516 . S
C466 C467 1.502 . S
C466 C468 1.561 . S
C466 C469 1.526 1_455 S
C467 H451 0.959 . S
C467 H452 0.959 . S
C467 H453 0.961 . S
C467 C466 1.502 . S
C468 H454 0.960 . S
C468 H455 0.961 . S
C468 H456 0.959 . S
C468 C466 1.561 . S
C469 C466 1.526 1_655 S
C469 C470 1.396 . S
C469 C474 1.390 . S
C470 C464 1.465 . S
C470 C469 1.396 . S
C470 C471 1.399 . S
C471 H457 0.929 . S
C471 C470 1.399 . S
C471 C472 1.385 . S
C472 H458 0.931 . S
C472 C471 1.385 . S
C472 C473 1.389 . S
C473 C472 1.389 . S
C473 C474 1.387 . S
C474 H459 0.930 1_655 S
C474 C469 1.390 . S
C474 C473 1.387 . S
H475 C487 0.930 . S
H476 C489 0.930 . S
H477 C490 0.930 . S
H478 C494 0.959 . S
H479 C494 0.959 . S
H480 C494 0.961 . S
H481 C495 0.957 1_655 S
H482 C495 0.961 . S
H483 C495 0.959 . S
H484 C498 0.929 . S
H485 C499 0.931 . S
H486 C501 0.930 . S
C487 H475 0.930 . S
C487 C488 1.399 . S
C487 C492 1.399 . S
C488 C487 1.399 . S
C488 C489 1.376 . S
C489 H476 0.930 . S
C489 C488 1.376 . S
C489 C490 1.388 1_655 S
C490 H477 0.930 . S
C490 C489 1.388 1_455 S
C490 C491 1.390 1_455 S
C491 C490 1.390 1_655 S
C491 C492 1.394 . S
C491 C497 1.465 1_655 S
C492 C487 1.399 . S
C492 C491 1.394 . S
C492 C493 1.516 . S
C493 C492 1.516 . S
C493 C494 1.502 . S
C493 C495 1.561 1_655 S
C493 C496 1.526 1_655 S
C494 H478 0.959 . S
C494 H479 0.959 . S
C494 H480 0.961 . S
C494 C493 1.502 . S
C495 H481 0.957 1_455 S
C495 H482 0.961 . S
C495 H483 0.959 . S
C495 C493 1.561 1_455 S
C496 C493 1.526 1_455 S
C496 C497 1.396 . S
C496 C501 1.390 . S
C497 C491 1.465 1_455 S
C497 C496 1.396 . S
C497 C498 1.399 . S
C498 H484 0.929 . S
C498 C497 1.399 . S
C498 C499 1.385 . S
C499 H485 0.931 . S
C499 C498 1.385 . S
C499 C500 1.389 . S
C500 C499 1.389 . S
C500 C501 1.387 . S
C501 H486 0.930 . S
C501 C496 1.390 . S
C501 C500 1.387 . S
H502 C514 0.930 . S
H503 C516 0.930 . S
H504 C517 0.930 . S
H505 C521 0.959 . S
H506 C521 0.959 . S
H507 C521 0.961 . S
H508 C522 0.956 1_455 S
H509 C522 0.961 . S
H510 C522 0.959 . S
H511 C525 0.929 . S
H512 C526 0.931 . S
H513 C528 0.930 . S
C514 H502 0.930 . S
C514 C515 1.399 . S
C514 C519 1.399 . S
C515 C514 1.399 . S
C515 C516 1.376 . S
C516 H503 0.930 . S
C516 C515 1.376 . S
C516 C517 1.388 1_455 S
C517 H504 0.930 . S
C517 C516 1.388 1_655 S
C517 C518 1.390 1_655 S
C518 C517 1.390 1_455 S
C518 C519 1.394 . S
C518 C524 1.465 1_455 S
C519 C514 1.399 . S
C519 C518 1.394 . S
C519 C520 1.516 . S
C520 C519 1.516 . S
C520 C521 1.502 . S
C520 C522 1.561 1_455 S
C520 C523 1.526 1_455 S
C521 H505 0.959 . S
C521 H506 0.959 . S
C521 H507 0.961 . S
C521 C520 1.502 . S
C522 H508 0.956 1_655 S
C522 H509 0.961 . S
C522 H510 0.959 . S
C522 C520 1.561 1_655 S
C523 C520 1.526 1_655 S
C523 C524 1.396 . S
C523 C528 1.390 . S
C524 C518 1.465 1_655 S
C524 C523 1.396 . S
C524 C525 1.399 . S
C525 H511 0.929 . S
C525 C524 1.399 . S
C525 C526 1.385 . S
C526 H512 0.931 . S
C526 C525 1.385 . S
C526 C527 1.389 . S
C527 C526 1.389 . S
C527 C528 1.387 . S
C528 H513 0.930 . S
C528 C523 1.390 . S
C528 C527 1.387 . S
H529 C541 0.930 . S
H530 C543 0.930 . S
H531 C544 0.930 . S
H532 C548 0.959 . S
H533 C548 0.959 . S
H534 C548 0.961 . S
H535 C549 0.960 1_455 S
H536 C549 0.961 . S
H537 C549 0.959 . S
H538 C552 0.929 . S
H539 C553 0.931 . S
H540 C555 0.931 . S
C541 H529 0.930 . S
C541 C542 1.399 . S
C541 C546 1.399 . S
C542 C541 1.399 . S
C542 C543 1.376 . S
C543 H530 0.930 . S
C543 C542 1.376 . S
C543 C544 1.388 1_455 S
C544 H531 0.930 . S
C544 C543 1.388 1_655 S
C544 C545 1.390 1_655 S
C545 C544 1.390 1_455 S
C545 C546 1.394 . S
C545 C551 1.465 1_455 S
C546 C541 1.399 . S
C546 C545 1.394 . S
C546 C547 1.516 . S
C547 C546 1.516 . S
C547 C548 1.502 . S
C547 C549 1.561 1_455 S
C547 C550 1.526 1_455 S
C548 H532 0.959 . S
C548 H533 0.959 . S
C548 H534 0.961 . S
C548 C547 1.502 . S
C549 H535 0.960 1_655 S
C549 H536 0.961 . S
C549 H537 0.959 . S
C549 C547 1.561 1_655 S
C550 C547 1.526 1_655 S
C550 C551 1.396 . S
C550 C555 1.389 . S
C551 C545 1.465 1_655 S
C551 C550 1.396 . S
C551 C552 1.399 . S
C552 H538 0.929 . S
C552 C551 1.399 . S
C552 C553 1.385 . S
C553 H539 0.931 . S
C553 C552 1.385 . S
C553 C554 1.389 . S
C554 C553 1.389 . S
C554 C555 1.387 . S
C555 H540 0.931 . S
C555 C550 1.389 . S
C555 C554 1.387 . S
C137 C11 1.552 1_554 S
C149 C18 1.520 1_655 S
C164 C42 1.546 1_454 S
C176 C49 1.525 . S
C191 C73 1.540 . S
C203 C80 1.529 1_655 S
C218 C104 1.558 1_455 S
C230 C111 1.525 . S
C245 C41 1.608 1_556 S
C257 C2 1.576 . S
C272 C103 1.574 . S
C284 C64 1.609 . S
C299 C10 1.607 1_556 S
C311 C33 1.568 . S
C326 C95 1.574 . S
C338 C72 1.609 . S
C353 C93 1.050 . S
C365 C1 1.157 . S
C380 C31 1.180 . S
C392 C63 1.130 . S
C407 C86 1.153 . S
C419 C58 1.081 . S
C434 C24 1.081 . S
C446 C120 1.184 . S
C461 C62 1.185 . S
C473 C32 1.076 . S
C488 C94 1.193 . S
C500 C0 1.104 . S
C515 C27 1.157 . S
C527 C117 1.072 . S
C542 C89 1.160 . S
C554 C55 1.070 . S
