# Generated by pormake.
# Topology sxb, (6)-cn, num edge types: 1
# Building blocks:
#     Node 0, Type 0, BuildingBlock: BETDEL_clean_sbu_0, # of connection points: 6
#     Node 1, Type 0, BuildingBlock: BETDEL_clean_sbu_0, # of connection points: 6
#     Node 2, Type 0, BuildingBlock: BETDEL_clean_sbu_0, # of connection points: 6
#     Node 3, Type 0, BuildingBlock: BETDEL_clean_sbu_0, # of connection points: 6
#     Edge 4, Type (0, 0), BuildingBlock: UVAHIK_clean_linker_0, # of connection points: 2
#     Edge 5, Type (0, 0), BuildingBlock: UVAHIK_clean_linker_0, # of connection points: 2
#     Edge 6, Type (0, 0), BuildingBlock: UVAHIK_clean_linker_0, # of connection points: 2
#     Edge 7, Type (0, 0), BuildingBlock: UVAHIK_clean_linker_0, # of connection points: 2
#     Edge 8, Type (0, 0), BuildingBlock: UVAHIK_clean_linker_0, # of connection points: 2
#     Edge 9, Type (0, 0), BuildingBlock: UVAHIK_clean_linker_0, # of connection points: 2
#     Edge 10, Type (0, 0), BuildingBlock: UVAHIK_clean_linker_0, # of connection points: 2
#     Edge 11, Type (0, 0), BuildingBlock: UVAHIK_clean_linker_0, # of connection points: 2
#     Edge 12, Type (0, 0), BuildingBlock: UVAHIK_clean_linker_0, # of connection points: 2
#     Edge 13, Type (0, 0), BuildingBlock: UVAHIK_clean_linker_0, # of connection points: 2
#     Edge 14, Type (0, 0), BuildingBlock: UVAHIK_clean_linker_0, # of connection points: 2
#     Edge 15, Type (0, 0), BuildingBlock: UVAHIK_clean_linker_0, # of connection points: 2
# Relax obj value: 0.037
# Max RMSD: 0.029
# Mean RMSD: 0.029
data_MOF--net-sxb--node1-BETDEL_clean_sbu_0--edge1-UVAHIK_clean_linker_0
_symmetry_space_group_name_H-M    P1
_symmetry_Int_Tables_number       1
_symmetry_cell_setting            triclinic
loop_
_symmetry_equiv_pos_as_xyz
'x, y, z'
_cell_length_a     21.104922
_cell_length_b     37.19122
_cell_length_c     39.050978
_cell_angle_alpha  91.723688
_cell_angle_beta   94.768088
_cell_angle_gamma 84.178354
loop_
_atom_site_label
_atom_site_type_symbol
_atom_site_fract_x
_atom_site_fract_y
_atom_site_fract_z
_atom_type_partial_charge
Dy0 Dy 0.95074 0.98107 0.98934 0.0
C1 C 0.17438 0.0376 0.97516 0.0
C2 C 0.8368 0.95957 0.00413 0.0
Dy3 Dy 0.05999 0.01553 0.98844 0.0
O4 O 0.86425 0.95149 0.97608 0.0
O5 O 0.8718 0.97931 0.02414 0.0
O6 O 0.96366 0.9555 0.93758 0.0
O7 O 0.98669 0.00878 0.9461 0.0
C8 C 0.98583 0.98269 0.92432 0.0
C9 C 0.02357 0.01305 0.05314 0.0
O10 O 0.99405 0.06544 0.97626 0.0
O11 O 0.90769 0.03971 -0.00737 0.0
O12 O 0.14636 0.04476 0.00317 0.0
O13 O 0.1397 0.01846 0.95435 0.0
O14 O 0.04352 0.04107 0.04017 0.0
O15 O 0.02477 0.98719 0.0312 0.0
O16 O 0.01679 0.93115 0.00128 0.0
O17 O 0.10316 0.9569 0.98494 0.0
C18 C 0.93401 0.06872 0.98406 0.0
C19 C 0.07681 0.92786 -0.00655 0.0
Dy20 Dy 1.00437 0.95797 0.48896 0.0
C21 C 0.03843 0.109 0.49054 0.0
C22 C 0.96879 0.89144 0.50514 0.0
Dy23 Dy 0.99991 0.04004 0.49207 0.0
O24 O 0.01081 0.8966 0.48352 0.0
O25 O 0.95136 0.92224 0.51987 0.0
O26 O 0.99515 0.9472 0.43184 0.0
O27 O 0.99479 0.00035 0.45027 0.0
C28 C 0.99134 0.98073 0.42317 0.0
C29 C 0.987 0.00978 0.55274 0.0
O30 O 0.89044 0.03701 0.48104 0.0
O31 O 0.89688 0.97579 0.49134 0.0
O32 O 0.03702 0.08987 0.51762 0.0
O33 O 0.01432 0.09131 0.46402 0.0
O34 O 0.95579 0.03974 0.54195 0.0
O35 O 0.02551 0.99736 0.53075 0.0
O36 O 0.11445 0.9611 0.49514 0.0
O37 O 0.1073 0.02303 0.48784 0.0
C38 C 0.86128 0.00711 0.48557 0.0
C39 C 0.14311 0.99137 0.4914 0.0
Dy40 Dy 0.4511 0.481 -0.00929 0.0
C41 C 0.67476 0.53815 0.97896 0.0
C42 C 0.33655 0.45819 0.00258 0.0
Dy43 Dy 0.56022 0.51554 -0.00886 0.0
O44 O 0.3653 0.45175 0.97473 0.0
O45 O 0.37051 0.47709 0.02402 0.0
O46 O 0.46791 0.45555 0.93913 0.0
O47 O 0.48816 0.50919 0.94826 0.0
C48 C 0.4891 0.48328 0.92632 0.0
C49 C 0.52211 0.51378 0.05552 0.0
O50 O 0.49437 0.56541 0.97865 0.0
O51 O 0.40743 0.53953 -0.00596 0.0
O52 O 0.64648 0.54446 0.00699 0.0
O53 O 0.64032 0.51952 0.95753 0.0
O54 O 0.5437 0.54126 0.04246 0.0
O55 O 0.52291 0.48762 0.03378 0.0
O56 O 0.51702 0.43113 0.00312 0.0
O57 O 0.60379 0.45706 0.98763 0.0
C58 C 0.434 0.56861 0.98587 0.0
C59 C 0.57732 0.42796 -0.00421 0.0
Dy60 Dy 0.50794 0.46052 0.48893 0.0
C61 C 0.53824 0.60778 0.47263 0.0
C62 C 0.46986 0.39146 0.49117 0.0
Dy63 Dy 0.50263 0.54169 0.49018 0.0
O64 O 0.47124 0.41032 0.46393 0.0
O65 O 0.49375 0.40949 0.51752 0.0
O66 O 0.55271 0.45966 0.43915 0.0
O67 O 0.48167 0.50184 0.44897 0.0
C68 C 0.52047 0.48889 0.42736 0.0
C69 C 0.51462 0.52195 0.55684 0.0
O70 O 0.39266 0.53859 0.48374 0.0
O71 O 0.40033 0.47707 0.49291 0.0
O72 O 0.49542 0.60316 0.49394 0.0
O73 O 0.55648 0.57661 0.45887 0.0
O74 O 0.50941 0.55494 0.54649 0.0
O75 O 0.51201 0.5007 0.53073 0.0
O76 O 0.61727 0.46347 0.50003 0.0
O77 O 0.61044 0.52431 0.48849 0.0
C78 C 0.36419 0.50848 0.48838 0.0
C79 C 0.64629 0.49323 0.49492 0.0
C80 C 0.42463 0.63644 0.9777 0.0
C81 C 0.39632 0.60526 0.98553 0.0
C82 C 0.39035 0.67094 0.97848 0.0
C83 C 0.22388 0.71822 0.97835 0.0
H84 H 0.31244 0.80081 0.01011 0.0
C85 C 0.08621 0.86004 0.00164 0.0
C86 C 0.11443 0.8912 -0.00635 0.0
C87 C 0.12045 0.82553 0.00081 0.0
C88 C 0.28679 0.77824 0.00074 0.0
H89 H 0.30863 0.58664 0.00026 0.0
H90 H 0.24922 0.64649 0.00185 0.0
H91 H 0.37096 0.74093 0.00816 0.0
H92 H 0.20192 0.90977 0.97859 0.0
H93 H 0.26129 0.84991 0.97695 0.0
H94 H 0.1397 0.75553 0.97096 0.0
C95 C 0.29792 0.64434 -0.00535 0.0
C96 C 0.32062 0.74361 -0.0004 0.0
C97 C 0.33227 0.6098 -0.00609 0.0
C98 C 0.17834 0.88663 0.98506 0.0
C99 C 0.21268 0.85209 0.98428 0.0
C100 C 0.19004 0.75285 0.9795 0.0
C101 C 0.32637 0.67565 0.98711 0.0
C102 C 0.28988 0.71288 0.98837 0.0
C103 C 0.18432 0.8208 -0.00801 0.0
C104 C 0.22079 0.78358 -0.00927 0.0
H105 H 0.47369 0.6343 0.97106 0.0
H106 H 0.41412 0.69396 0.97192 0.0
H107 H 0.19822 0.69566 0.96897 0.0
H108 H 0.03724 0.8622 0.00845 0.0
H109 H 0.09677 0.80251 0.00748 0.0
C110 C 0.67875 0.38686 0.98692 0.0
C111 C 0.61502 0.39131 -0.00417 0.0
C112 C 0.71311 0.35235 0.98576 0.0
C113 C 0.71271 0.2567 0.01502 0.0
H114 H 0.8313 0.23442 0.945 0.0
C115 C 0.83283 0.10992 -0.00678 0.0
C116 C 0.89643 0.1054 0.9841 0.0
C117 C 0.79858 0.14446 -0.00557 0.0
C118 C 0.79905 0.24011 0.96507 0.0
H119 H 0.53809 0.36211 0.01061 0.0
H120 H 0.59729 0.30239 0.00838 0.0
H121 H 0.77317 0.29433 0.94799 0.0
H122 H 0.97324 0.1345 0.96902 0.0
H123 H 0.91426 0.19427 0.97136 0.0
H124 H 0.73861 0.20249 0.03212 0.0
C125 C 0.62138 0.32558 0.00268 0.0
C126 C 0.76544 0.27476 0.96681 0.0
C127 C 0.58705 0.36007 0.00379 0.0
C128 C 0.92438 0.1366 0.97599 0.0
C129 C 0.89016 0.17111 0.97717 0.0
C130 C 0.74633 0.22205 0.01329 0.0
C131 C 0.68504 0.32098 -0.00649 0.0
C132 C 0.72155 0.28378 -0.00819 0.0
C133 C 0.82662 0.17579 0.98654 0.0
C134 C 0.79019 0.21302 0.98828 0.0
H135 H 0.70225 0.41009 0.98062 0.0
H136 H 0.76211 0.35038 0.97907 0.0
H137 H 0.68042 0.26239 0.03507 0.0
H138 H 0.80935 0.08673 -0.00036 0.0
H139 H 0.74966 0.14647 0.00126 0.0
C140 C 0.10163 0.15588 0.52098 0.0
C141 C 0.07533 0.14128 0.48994 0.0
C142 C 0.14349 0.18295 0.52114 0.0
C143 C 0.20268 0.25149 0.46616 0.0
H144 H 0.34559 0.247 0.53556 0.0
C145 C 0.407 0.34429 0.46105 0.0
C146 C 0.43309 0.35916 0.49201 0.0
C147 C 0.36514 0.31724 0.46103 0.0
C148 C 0.30567 0.24905 0.5162 0.0
H149 H 0.07206 0.14441 0.43458 0.0
H150 H 0.14509 0.19167 0.43468 0.0
H151 H 0.26849 0.20235 0.53464 0.0
H152 H 0.43606 0.35648 0.54739 0.0
H153 H 0.36307 0.30918 0.54754 0.0
H154 H 0.23989 0.29817 0.44769 0.0
C155 C 0.13285 0.18246 0.45909 0.0
C156 C 0.26108 0.2233 0.51566 0.0
C157 C 0.09077 0.15529 0.45897 0.0
C158 C 0.4175 0.3454 0.52307 0.0
C159 C 0.37544 0.31822 0.52308 0.0
C160 C 0.24729 0.27723 0.46669 0.0
C161 C 0.16083 0.19636 0.49023 0.0
C162 C 0.20866 0.22404 0.49065 0.0
C163 C 0.34762 0.3041 0.49201 0.0
C164 C 0.29971 0.27648 0.49168 0.0
H165 H 0.09099 0.14576 0.54536 0.0
H166 H 0.16253 0.19324 0.54568 0.0
H167 H 0.16276 0.25357 0.44679 0.0
H168 H 0.41776 0.3542 0.4366 0.0
H169 H 0.34623 0.30676 0.43653 0.0
C170 C 0.88051 0.85943 0.52628 0.0
C171 C 0.93189 0.85912 0.50544 0.0
C172 C 0.83866 0.83222 0.52294 0.0
C173 C 0.81848 0.7394 0.48563 0.0
H174 H 0.63849 0.76878 0.49307 0.0
C175 C 0.62679 0.63944 0.45131 0.0
C176 C 0.5751 0.64008 0.47197 0.0
C177 C 0.66863 0.66667 0.45446 0.0
C178 C 0.68856 0.75984 0.49127 0.0
H179 H 0.98002 0.82912 0.46514 0.0
H180 H 0.90745 0.78154 0.45932 0.0
H181 H 0.71559 0.81341 0.50146 0.0
H182 H 0.52643 0.67064 0.51176 0.0
H183 H 0.59904 0.71817 0.51731 0.0
H184 H 0.7915 0.68582 0.4755 0.0
C185 C 0.8996 0.80271 0.47858 0.0
C186 C 0.73314 0.7856 0.49615 0.0
C187 C 0.94151 0.83005 0.48193 0.0
C188 C 0.56517 0.66947 0.4951 0.0
C189 C 0.60712 0.69678 0.49829 0.0
C190 C 0.77391 0.71363 0.48077 0.0
C191 C 0.84661 0.8037 0.49856 0.0
C192 C 0.79898 0.77588 0.49347 0.0
C193 C 0.66041 0.6955 0.4785 0.0
C194 C 0.70806 0.72334 0.48346 0.0
H195 H 0.87131 0.88145 0.54456 0.0
H196 H 0.79954 0.83379 0.53935 0.0
H197 H 0.86856 0.73049 0.48381 0.0
H198 H 0.63623 0.61717 0.43333 0.0
H199 H 0.70796 0.66485 0.43817 0.0
C200 C 0.27876 0.05542 -0.0003 0.0
C201 C 0.24205 0.04093 0.97207 0.0
C202 C 0.34507 0.04887 0.0018 0.0
C203 C 0.46019 0.97629 0.97692 0.0
H204 H 0.58592 0.03882 0.01466 0.0
C205 C 0.73185 0.94156 0.98077 0.0
C206 C 0.76932 0.95636 0.0079 0.0
C207 C 0.66557 0.94812 0.97922 0.0
C208 C 0.55101 0.02092 0.00469 0.0
H209 H 0.24483 0.01235 0.92293 0.0
H210 H 0.36114 0.00126 0.92638 0.0
H211 H 0.47583 0.06413 0.00109 0.0
H212 H 0.76801 0.98551 0.05679 0.0
H213 H 0.65177 0.99654 0.05436 0.0
H214 H 0.5353 0.93307 0.98054 0.0
C215 C 0.33868 0.01686 0.94677 0.0
C216 C 0.48835 0.0355 -0.0034 0.0
C217 C 0.27236 0.02345 0.94467 0.0
C218 C 0.73987 0.97418 0.03542 0.0
C219 C 0.67357 0.98074 0.03389 0.0
C220 C 0.52282 0.9617 0.98505 0.0
C221 C 0.37516 0.02782 0.97623 0.0
C222 C 0.44252 0.01332 0.98254 0.0
C223 C 0.63624 0.96946 0.00487 0.0
C224 C 0.56874 0.98389 -0.00101 0.0
H225 H 0.2562 0.0692 0.02104 0.0
H226 H 0.37217 0.05769 0.02475 0.0
H227 H 0.42528 0.95842 0.96689 0.0
H228 H 0.75373 0.92752 0.95936 0.0
H229 H 0.63788 0.93905 0.95658 0.0
C230 C 0.24518 0.02421 0.48664 0.0
C231 C 0.21733 0.99155 0.49095 0.0
C232 C 0.31253 0.0258 0.48592 0.0
C233 C 0.47881 0.97047 0.50332 0.0
H234 H 0.54034 0.05088 0.45985 0.0
C235 C 0.75907 0.97446 0.49015 0.0
C236 C 0.78695 0.00701 0.4853 0.0
C237 C 0.6917 0.97291 0.49069 0.0
C238 C 0.52533 0.02816 0.47262 0.0
H239 H 0.2446 0.93442 0.49794 0.0
H240 H 0.36035 0.93687 0.49654 0.0
H241 H 0.42607 0.0471 0.46079 0.0
H242 H 0.75971 0.06396 0.47723 0.0
H243 H 0.64389 0.06157 0.47837 0.0
H244 H 0.57798 0.95155 0.51521 0.0
C245 C 0.32981 0.96196 0.49395 0.0
C246 C 0.45789 0.02591 0.47321 0.0
C247 C 0.26199 0.96038 0.49461 0.0
C248 C 0.74229 0.03808 0.48092 0.0
C249 C 0.67442 0.03654 0.48146 0.0
C250 C 0.54623 0.97274 0.50276 0.0
C251 C 0.35768 0.99479 0.48948 0.0
C252 C 0.43189 0.99699 0.48861 0.0
C253 C 0.64652 0.00383 0.48649 0.0
C254 C 0.57226 0.00165 0.48734 0.0
H255 H 0.21454 0.04929 0.4838 0.0
H256 H 0.32895 0.05205 0.483 0.0
H257 H 0.46376 0.94775 0.51609 0.0
H258 H 0.7897 0.94945 0.4936 0.0
H259 H 0.67536 0.94671 0.49405 0.0
C260 C 0.77912 0.5549 0.00457 0.0
C261 C 0.74241 0.54179 0.97622 0.0
C262 C 0.84541 0.54836 0.00652 0.0
C263 C 0.98397 0.51408 0.95933 0.0
H264 H 0.04292 0.46785 0.04566 0.0
C265 C 0.23272 0.44089 0.97671 0.0
C266 C 0.26895 0.45425 0.00512 0.0
C267 C 0.16637 0.44705 0.9746 0.0
C268 C 0.02705 0.48074 0.02151 0.0
H269 H 0.74512 0.51572 0.9259 0.0
H270 H 0.86112 0.50422 0.92928 0.0
H271 H 0.9333 0.4958 0.03716 0.0
H272 H 0.26539 0.48038 0.05538 0.0
H273 H 0.14931 0.4912 0.05173 0.0
H274 H 0.07775 0.49907 0.94369 0.0
C275 C 0.83901 0.5193 0.95006 0.0
C276 C 0.96472 0.49705 0.01675 0.0
C277 C 0.77269 0.52584 0.94813 0.0
C278 C 0.23819 0.47007 0.03311 0.0
C279 C 0.17183 0.47621 0.03103 0.0
C280 C 0.04631 0.49778 0.96409 0.0
C281 C 0.87548 0.52874 0.98009 0.0
C282 C 0.94277 0.51393 0.98566 0.0
C283 C 0.13576 0.46651 0.00094 0.0
C284 C 0.06831 0.48097 -0.00479 0.0
H285 H 0.7566 0.56763 0.0264 0.0
H286 H 0.87285 0.55661 0.02959 0.0
H287 H 0.96811 0.527 0.93519 0.0
H288 H 0.25562 0.42826 0.95496 0.0
H289 H 0.13928 0.43861 0.95148 0.0
C290 C 0.24529 0.53932 0.48443 0.0
C291 C 0.29001 0.50827 0.48881 0.0
C292 C 0.17749 0.53778 0.48516 0.0
C293 C 0.04626 0.4701 0.48529 0.0
H294 H 0.93527 0.55599 0.50512 0.0
C295 C 0.76525 0.46237 0.50021 0.0
C296 C 0.72058 0.49335 0.49519 0.0
C297 C 0.8331 0.46385 0.49961 0.0
C298 C 0.96434 0.53136 0.49906 0.0
H299 H 0.29304 0.45083 0.49765 0.0
H300 H 0.17878 0.44824 0.49929 0.0
H301 H 0.0494 0.55952 0.50334 0.0
H302 H 0.71768 0.55058 0.48528 0.0
H303 H 0.83201 0.55306 0.48398 0.0
H304 H 0.96116 0.44195 0.48105 0.0
C305 C 0.19493 0.4742 0.49467 0.0
C306 C 0.03171 0.53347 0.49803 0.0
C307 C 0.26228 0.47576 0.49395 0.0
C308 C 0.7484 0.52572 0.48957 0.0
C309 C 0.81577 0.52723 0.48902 0.0
C310 C 0.9789 0.46799 0.48634 0.0
C311 C 0.14967 0.50508 0.49027 0.0
C312 C 0.07544 0.50293 0.49113 0.0
C313 C 0.86097 0.49643 0.49402 0.0
C314 C 0.93519 0.49854 0.49322 0.0
H315 H 0.2626 0.56515 0.48033 0.0
H316 H 0.14682 0.56265 0.48121 0.0
H317 H 0.0753 0.44547 0.47921 0.0
H318 H 0.74786 0.43664 0.50462 0.0
H319 H 0.86379 0.43906 0.504 0.0
C320 C 0.94665 0.97342 0.36254 0.0
C321 C 0.98586 0.99177 0.38649 0.0
C322 C 0.94783 0.97801 0.32708 0.0
C323 C 0.0147 0.03268 0.2603 0.0
H324 H 0.97095 0.95146 0.20177 0.0
C325 C 0.00468 0.04174 0.11103 0.0
C326 C 0.01589 0.01021 0.09073 0.0
C327 C 0.99987 0.04001 0.14664 0.0
C328 C 0.98438 0.97439 0.21741 0.0
H329 H 0.05735 0.02967 0.39177 0.0
H330 H 0.06191 0.0368 0.32982 0.0
H331 H 0.96743 0.94811 0.26313 0.0
H332 H 0.03119 0.9519 0.09233 0.0
H333 H 0.02597 0.94862 0.15438 0.0
H334 H 0.0359 0.05792 0.21465 0.0
C335 C 0.02812 0.01961 0.33825 0.0
C336 C 0.98094 0.9728 0.25315 0.0
C337 C 0.02559 0.01566 0.37401 0.0
C338 C 0.02202 0.97674 0.10709 0.0
C339 C 0.01856 0.97498 0.14293 0.0
C340 C 0.01936 0.03399 0.22455 0.0
C341 C 0.99011 0.00023 0.31397 0.0
C342 C 0.99527 0.00205 0.27544 0.0
C343 C 0.00747 0.00663 0.16356 0.0
C344 C 1.00377 0.00498 0.20221 0.0
H345 H 0.91549 0.95477 0.37129 0.0
H346 H 0.91574 0.96353 0.31004 0.0
H347 H 0.02586 0.05607 0.27592 0.0
H348 H 0.99922 0.06802 0.09929 0.0
H349 H 0.98955 0.06513 0.1607 0.0
C350 C 0.01268 0.0151 0.87142 0.0
C351 C 0.99129 0.98499 0.88637 0.0
C352 C 0.01612 0.01636 0.83546 0.0
C353 C 0.94699 0.97722 0.75326 0.0
H354 H 0.08913 0.0122 0.71189 0.0
C355 C 0.93611 0.01025 0.60835 0.0
C356 C 0.98988 0.00031 0.58988 0.0
C357 C 0.93866 0.00631 0.64408 0.0
C358 C 0.04923 0.0021 0.72299 0.0
H359 H 0.95783 0.9324 0.87483 0.0
H360 H 0.96296 0.93481 0.81295 0.0
H361 H 0.0893 0.01092 0.77477 0.0
H362 H 0.08899 0.97818 0.59491 0.0
H363 H 0.09391 0.97161 0.65777 0.0
H364 H 0.90648 0.96872 0.70178 0.0
C365 C 0.9768 0.95763 0.8287 0.0
C366 C 0.049 0.00174 0.75913 0.0
C367 C 0.97411 0.9562 0.86442 0.0
C368 C 0.04644 0.98569 0.60822 0.0
C369 C 0.04939 0.98234 0.64432 0.0
C370 C 0.9468 0.97806 0.71729 0.0
C371 C 0.99745 0.98775 0.81348 0.0
C372 C 0.99789 0.98917 0.77488 0.0
C373 C 0.99551 0.99284 0.66284 0.0
C374 C 0.99783 0.99051 0.70147 0.0
H375 H 0.02653 0.03771 0.88747 0.0
H376 H 0.03206 0.04011 0.82479 0.0
H377 H 0.90647 0.96761 0.76419 0.0
H378 H 0.8919 0.02184 0.59514 0.0
H379 H 0.89631 0.01501 0.65719 0.0
C380 C 0.57112 0.48683 0.37152 0.0
C381 C 0.51747 0.49728 0.38995 0.0
C382 C 0.56853 0.49027 0.33573 0.0
C383 C 0.45834 0.49383 0.25678 0.0
H384 H 0.60023 0.52915 0.21545 0.0
C385 C 0.49602 0.48089 0.10834 0.0
C386 C 0.51611 0.5114 0.09342 0.0
C387 C 0.4924 0.47956 0.14429 0.0
C388 C 0.55999 0.51928 0.22642 0.0
H389 H 0.41853 0.51971 0.38476 0.0
H390 H 0.41351 0.52531 0.32179 0.0
H391 H 0.60036 0.52807 0.27789 0.0
H392 H 0.54693 0.56461 0.105 0.0
H393 H 0.5416 0.56204 0.16684 0.0
H394 H 0.41847 0.48465 0.20501 0.0
C395 C 0.45797 0.5146 0.33532 0.0
C396 C 0.56025 0.51848 0.26239 0.0
C397 C 0.46097 0.51178 0.37147 0.0
C398 C 0.5317 0.54051 0.11537 0.0
C399 C 0.52889 0.539 0.15107 0.0
C400 C 0.45855 0.4941 0.22063 0.0
C401 C 0.51176 0.50371 0.31688 0.0
C402 C 0.50948 0.50579 0.27825 0.0
C403 C 0.50964 0.50847 0.16627 0.0
C404 C 0.50933 0.50699 0.20485 0.0
H405 H 0.61529 0.47533 0.38484 0.0
H406 H 0.6108 0.48132 0.32265 0.0
H407 H 0.41866 0.48355 0.26793 0.0
H408 H 0.48339 0.45803 0.09228 0.0
H409 H 0.47753 0.45552 0.15496 0.0
C410 C 0.51179 0.47872 0.60658 0.0
C411 C 0.51804 0.51327 0.59427 0.0
C412 C 0.51207 0.47306 0.64233 0.0
C413 C 0.55726 0.51624 0.72856 0.0
H414 H 0.43995 0.45527 0.76321 0.0
C415 C 0.50852 0.51858 0.87396 0.0
C416 C 0.49692 0.48605 0.88868 0.0
C417 C 0.51357 0.52057 0.83826 0.0
C418 C 0.47371 0.47213 0.75415 0.0
H419 H 0.53 0.5687 0.61028 0.0
H420 H 0.53012 0.55907 0.67124 0.0
H421 H 0.44592 0.45942 0.70129 0.0
H422 H 0.48289 0.42992 0.87709 0.0
H423 H 0.4924 0.43319 0.81557 0.0
H424 H 0.58491 0.52915 0.78124 0.0
C425 C 0.52586 0.53603 0.65389 0.0
C426 C 0.47718 0.47444 0.71839 0.0
C427 C 0.5253 0.54162 0.61857 0.0
C428 C 0.49137 0.45555 0.86676 0.0
C429 C 0.49639 0.45751 0.83121 0.0
C430 C 0.5538 0.51394 0.76424 0.0
C431 C 0.51917 0.50175 0.6666 0.0
C432 C 0.51852 0.49688 0.7049 0.0
C433 C 0.50721 0.49007 0.81616 0.0
C434 C 0.5116 0.49208 0.77778 0.0
H435 H 0.50587 0.45627 0.58868 0.0
H436 H 0.50714 0.44617 0.65094 0.0
H437 H 0.59079 0.53327 0.71953 0.0
H438 H 0.51299 0.54262 0.88997 0.0
H439 H 0.52125 0.54631 0.82792 0.0
loop_
_geom_bond_atom_site_label_1
_geom_bond_atom_site_label_2
_geom_bond_distance
_geom_bond_site_symmetry_2
_ccdc_geom_bond_type
Dy0 O4 2.398 . S
Dy0 O5 2.491 1_566 S
Dy0 O6 2.403 . S
Dy0 O7 2.677 1_655 S
Dy0 O11 2.326 1_565 S
Dy0 O15 2.310 1_566 S
Dy0 O16 2.351 1_655 S
C1 O12 1.185 . S
C1 O13 1.355 1_544 S
C2 O4 1.185 . S
C2 O5 1.355 1_566 S
Dy3 O7 2.296 1_544 S
Dy3 O10 2.351 1_455 S
Dy3 O12 2.398 . S
Dy3 O13 2.491 1_544 S
Dy3 O14 2.403 . S
Dy3 O15 2.664 1_455 S
Dy3 O17 2.326 1_545 S
O4 Dy0 2.398 . S
O4 C2 1.185 . S
O5 Dy0 2.491 1_544 S
O5 C2 1.355 1_544 S
O6 Dy0 2.403 . S
O6 C8 1.254 . S
O7 Dy0 2.677 1_455 S
O7 Dy3 2.296 1_566 S
O7 C8 1.274 1_455 S
C8 O6 1.254 . S
C8 O7 1.274 1_655 S
C9 O14 1.254 . S
C9 O15 1.268 1_455 S
O10 Dy3 2.351 1_655 S
O10 C18 1.249 1_554 S
O11 Dy0 2.326 1_545 S
O11 C18 1.267 . S
O12 C1 1.185 . S
O12 Dy3 2.398 . S
O13 C1 1.355 1_566 S
O13 Dy3 2.491 1_566 S
O14 Dy3 2.403 . S
O14 C9 1.254 . S
O15 Dy0 2.310 1_544 S
O15 Dy3 2.664 1_655 S
O15 C9 1.268 1_655 S
O16 Dy0 2.351 1_455 S
O16 C19 1.249 1_556 S
O17 Dy3 2.326 1_565 S
O17 C19 1.267 . S
C18 O10 1.249 1_556 S
C18 O11 1.267 . S
C19 O16 1.249 1_554 S
C19 O17 1.267 . S
Dy20 O24 2.398 1_455 S
Dy20 O25 2.491 1_455 S
Dy20 O26 2.403 1_455 S
Dy20 O27 2.664 1_565 S
Dy20 O31 2.326 1_455 S
Dy20 O35 2.310 1_455 S
Dy20 O36 2.351 . S
C21 O32 1.185 . S
C21 O33 1.355 . S
C22 O24 1.185 . S
C22 O25 1.355 . S
Dy23 O27 2.310 1_655 S
Dy23 O30 2.351 . S
Dy23 O32 2.398 1_655 S
Dy23 O33 2.491 1_655 S
Dy23 O34 2.403 1_655 S
Dy23 O35 2.664 1_545 S
Dy23 O37 2.326 1_655 S
O24 Dy20 2.398 1_655 S
O24 C22 1.185 . S
O25 Dy20 2.491 1_655 S
O25 C22 1.355 . S
O26 Dy20 2.403 1_655 S
O26 C28 1.250 1_655 S
O27 Dy20 2.664 1_545 S
O27 Dy23 2.310 1_455 S
O27 C28 1.270 1_545 S
C28 O26 1.250 1_455 S
C28 O27 1.270 1_565 S
C29 O34 1.251 1_655 S
C29 O35 1.269 1_545 S
O30 Dy23 2.351 . S
O30 C38 1.249 . S
O31 Dy20 2.326 1_655 S
O31 C38 1.267 1_565 S
O32 C21 1.185 . S
O32 Dy23 2.398 1_455 S
O33 C21 1.355 . S
O33 Dy23 2.491 1_455 S
O34 Dy23 2.403 1_455 S
O34 C29 1.251 1_455 S
O35 Dy20 2.310 1_655 S
O35 Dy23 2.664 1_565 S
O35 C29 1.269 1_565 S
O36 Dy20 2.351 . S
O36 C39 1.249 . S
O37 Dy23 2.326 1_455 S
O37 C39 1.267 1_545 S
C38 O30 1.249 . S
C38 O31 1.267 1_545 S
C39 O36 1.249 . S
C39 O37 1.267 1_565 S
Dy40 O44 2.398 . S
Dy40 O45 2.491 1_556 S
Dy40 O46 2.403 . S
Dy40 O47 2.664 . S
Dy40 O51 2.326 . S
Dy40 O55 2.310 1_556 S
Dy40 O56 2.351 . S
C41 O52 1.185 . S
C41 O53 1.355 1_554 S
C42 O44 1.185 . S
C42 O45 1.355 1_556 S
Dy43 O47 2.310 1_554 S
Dy43 O50 2.351 . S
Dy43 O52 2.398 . S
Dy43 O53 2.491 1_554 S
Dy43 O54 2.403 . S
Dy43 O55 2.664 . S
Dy43 O57 2.326 . S
O44 Dy40 2.398 . S
O44 C42 1.185 . S
O45 Dy40 2.491 1_554 S
O45 C42 1.355 1_554 S
O46 Dy40 2.403 . S
O46 C48 1.254 . S
O47 Dy40 2.664 . S
O47 Dy43 2.310 1_556 S
O47 C48 1.268 . S
C48 O46 1.254 . S
C48 O47 1.268 . S
C49 O54 1.254 . S
C49 O55 1.268 . S
O50 Dy43 2.351 . S
O50 C58 1.249 1_554 S
O51 Dy40 2.326 . S
O51 C58 1.267 . S
O52 C41 1.185 . S
O52 Dy43 2.398 . S
O53 C41 1.355 1_556 S
O53 Dy43 2.491 1_556 S
O54 Dy43 2.403 . S
O54 C49 1.254 . S
O55 Dy40 2.310 1_554 S
O55 Dy43 2.664 . S
O55 C49 1.268 . S
O56 Dy40 2.351 . S
O56 C59 1.249 1_556 S
O57 Dy43 2.326 . S
O57 C59 1.267 . S
C58 O50 1.249 1_556 S
C58 O51 1.267 . S
C59 O56 1.249 1_554 S
C59 O57 1.267 . S
Dy60 O64 2.398 . S
Dy60 O65 2.491 . S
Dy60 O66 2.403 . S
Dy60 O67 2.664 . S
Dy60 O71 2.326 . S
Dy60 O75 2.310 . S
Dy60 O76 2.351 . S
C61 O72 1.185 . S
C61 O73 1.355 . S
C62 O64 1.185 . S
C62 O65 1.355 . S
Dy63 O67 2.310 . S
Dy63 O70 2.351 . S
Dy63 O72 2.398 . S
Dy63 O73 2.491 . S
Dy63 O74 2.403 . S
Dy63 O75 2.664 . S
Dy63 O77 2.326 . S
O64 Dy60 2.398 . S
O64 C62 1.185 . S
O65 Dy60 2.491 . S
O65 C62 1.355 . S
O66 Dy60 2.403 . S
O66 C68 1.254 . S
O67 Dy60 2.664 . S
O67 Dy63 2.310 . S
O67 C68 1.268 . S
C68 O66 1.254 . S
C68 O67 1.268 . S
C69 O74 1.254 . S
C69 O75 1.268 . S
O70 Dy63 2.351 . S
O70 C78 1.249 . S
O71 Dy60 2.326 . S
O71 C78 1.267 . S
O72 C61 1.185 . S
O72 Dy63 2.398 . S
O73 C61 1.355 . S
O73 Dy63 2.491 . S
O74 Dy63 2.403 . S
O74 C69 1.254 . S
O75 Dy60 2.310 . S
O75 Dy63 2.664 . S
O75 C69 1.268 . S
O76 Dy60 2.351 . S
O76 C79 1.249 . S
O77 Dy63 2.326 . S
O77 C79 1.267 . S
C78 O70 1.249 . S
C78 O71 1.267 . S
C79 O76 1.249 . S
C79 O77 1.267 . S
C80 C81 1.349 . S
C80 C82 1.327 . S
C80 H105 0.950 . S
C81 C80 1.349 . S
C81 C97 1.349 1_554 S
C82 C80 1.327 . S
C82 C101 1.442 . S
C82 H106 0.950 . S
C83 C100 1.574 . S
C83 C102 1.361 1_556 S
C83 H107 0.949 . S
H84 C88 0.949 . S
C85 C86 1.372 . S
C85 C87 1.327 . S
C85 H108 0.950 . S
C86 C85 1.372 . S
C86 C98 1.326 1_556 S
C87 C85 1.327 . S
C87 C103 1.437 . S
C87 H109 0.950 . S
C88 H84 0.949 . S
C88 C96 1.574 . S
C88 C104 1.367 1_554 S
H89 C97 0.950 . S
H90 C95 0.950 . S
H91 C96 0.949 . S
H92 C98 0.950 . S
H93 C99 0.950 . S
H94 C100 0.949 . S
C95 H90 0.950 . S
C95 C97 1.327 . S
C95 C101 1.415 1_556 S
C96 C88 1.574 . S
C96 H91 0.949 . S
C96 C102 1.375 . S
C97 C81 1.349 1_556 S
C97 H89 0.950 . S
C97 C95 1.327 . S
C98 C86 1.326 1_554 S
C98 H92 0.950 . S
C98 C99 1.327 . S
C99 H93 0.950 . S
C99 C98 1.327 . S
C99 C103 1.420 1_554 S
C100 C83 1.574 . S
C100 H94 0.949 . S
C100 C104 1.370 . S
C101 C82 1.442 . S
C101 C95 1.415 1_554 S
C101 C102 1.523 . S
C102 C83 1.361 1_554 S
C102 C96 1.375 . S
C102 C101 1.523 . S
C103 C87 1.437 . S
C103 C99 1.420 1_556 S
C103 C104 1.523 . S
C104 C88 1.367 1_556 S
C104 C100 1.370 . S
C104 C103 1.523 . S
H105 C80 0.950 . S
H106 C82 0.950 . S
H107 C83 0.949 . S
H108 C85 0.950 . S
H109 C87 0.950 . S
C110 C111 1.373 . S
C110 C112 1.327 . S
C110 H135 0.950 . S
C111 C110 1.373 . S
C111 C127 1.325 1_556 S
C112 C110 1.327 . S
C112 C131 1.438 . S
C112 H136 0.950 . S
C113 C130 1.574 . S
C113 C132 1.367 1_554 S
C113 H137 0.949 . S
H114 C118 0.949 . S
C115 C116 1.349 . S
C115 C117 1.327 . S
C115 H138 0.950 . S
C116 C115 1.349 . S
C116 C128 1.349 1_554 S
C117 C115 1.327 . S
C117 C133 1.443 . S
C117 H139 0.950 . S
C118 H114 0.949 . S
C118 C126 1.574 . S
C118 C134 1.361 1_556 S
H119 C127 0.950 . S
H120 C125 0.950 . S
H121 C126 0.949 . S
H122 C128 0.950 . S
H123 C129 0.950 . S
H124 C130 0.949 . S
C125 H120 0.950 . S
C125 C127 1.327 . S
C125 C131 1.419 1_554 S
C126 C118 1.574 . S
C126 H121 0.949 . S
C126 C132 1.370 . S
C127 C111 1.325 1_554 S
C127 H119 0.950 . S
C127 C125 1.327 . S
C128 C116 1.349 1_556 S
C128 H122 0.950 . S
C128 C129 1.327 . S
C129 H123 0.950 . S
C129 C128 1.327 . S
C129 C133 1.414 1_556 S
C130 C113 1.574 . S
C130 H124 0.949 . S
C130 C134 1.376 . S
C131 C112 1.438 . S
C131 C125 1.419 1_556 S
C131 C132 1.523 . S
C132 C113 1.367 1_556 S
C132 C126 1.370 . S
C132 C131 1.523 . S
C133 C117 1.443 . S
C133 C129 1.414 1_554 S
C133 C134 1.523 . S
C134 C118 1.361 1_554 S
C134 C130 1.376 . S
C134 C133 1.523 . S
H135 C110 0.950 . S
H136 C112 0.950 . S
H137 C113 0.949 . S
H138 C115 0.950 . S
H139 C117 0.950 . S
C140 C141 1.349 . S
C140 C142 1.327 . S
C140 H165 0.950 . S
C141 C140 1.349 . S
C141 C157 1.349 . S
C142 C140 1.327 . S
C142 C161 1.429 . S
C142 H166 0.950 . S
C143 C160 1.574 . S
C143 C162 1.368 . S
C143 H167 0.949 . S
H144 C148 0.949 . S
C145 C146 1.349 . S
C145 C147 1.327 . S
C145 H168 0.950 . S
C146 C145 1.349 . S
C146 C158 1.349 . S
C147 C145 1.327 . S
C147 C163 1.429 . S
C147 H169 0.950 . S
C148 H144 0.949 . S
C148 C156 1.574 . S
C148 C164 1.368 . S
H149 C157 0.950 . S
H150 C155 0.950 . S
H151 C156 0.949 . S
H152 C158 0.950 . S
H153 C159 0.950 . S
H154 C160 0.949 . S
C155 H150 0.950 . S
C155 C157 1.327 . S
C155 C161 1.429 . S
C156 C148 1.574 . S
C156 H151 0.949 . S
C156 C162 1.368 . S
C157 C141 1.349 . S
C157 H149 0.950 . S
C157 C155 1.327 . S
C158 C146 1.349 . S
C158 H152 0.950 . S
C158 C159 1.327 . S
C159 H153 0.950 . S
C159 C158 1.327 . S
C159 C163 1.429 . S
C160 C143 1.574 . S
C160 H154 0.949 . S
C160 C164 1.368 . S
C161 C142 1.429 . S
C161 C155 1.429 . S
C161 C162 1.523 . S
C162 C143 1.368 . S
C162 C156 1.368 . S
C162 C161 1.523 . S
C163 C147 1.429 . S
C163 C159 1.429 . S
C163 C164 1.523 . S
C164 C148 1.368 . S
C164 C160 1.368 . S
C164 C163 1.523 . S
H165 C140 0.950 . S
H166 C142 0.950 . S
H167 C143 0.949 . S
H168 C145 0.950 . S
H169 C147 0.950 . S
C170 C171 1.349 . S
C170 C172 1.327 . S
C170 H195 0.950 . S
C171 C170 1.349 . S
C171 C187 1.349 . S
C172 C170 1.327 . S
C172 C191 1.429 . S
C172 H196 0.950 . S
C173 C190 1.574 . S
C173 C192 1.368 . S
C173 H197 0.949 . S
H174 C178 0.949 . S
C175 C176 1.349 . S
C175 C177 1.327 . S
C175 H198 0.950 . S
C176 C175 1.349 . S
C176 C188 1.349 . S
C177 C175 1.327 . S
C177 C193 1.429 . S
C177 H199 0.950 . S
C178 H174 0.949 . S
C178 C186 1.574 . S
C178 C194 1.368 . S
H179 C187 0.950 . S
H180 C185 0.950 . S
H181 C186 0.949 . S
H182 C188 0.950 . S
H183 C189 0.950 . S
H184 C190 0.949 . S
C185 H180 0.950 . S
C185 C187 1.327 . S
C185 C191 1.429 . S
C186 C178 1.574 . S
C186 H181 0.949 . S
C186 C192 1.368 . S
C187 C171 1.349 . S
C187 H179 0.950 . S
C187 C185 1.327 . S
C188 C176 1.349 . S
C188 H182 0.950 . S
C188 C189 1.327 . S
C189 H183 0.950 . S
C189 C188 1.327 . S
C189 C193 1.429 . S
C190 C173 1.574 . S
C190 H184 0.949 . S
C190 C194 1.368 . S
C191 C172 1.429 . S
C191 C185 1.429 . S
C191 C192 1.523 . S
C192 C173 1.368 . S
C192 C186 1.368 . S
C192 C191 1.523 . S
C193 C177 1.429 . S
C193 C189 1.429 . S
C193 C194 1.523 . S
C194 C178 1.368 . S
C194 C190 1.368 . S
C194 C193 1.523 . S
H195 C170 0.950 . S
H196 C172 0.950 . S
H197 C173 0.949 . S
H198 C175 0.950 . S
H199 C177 0.950 . S
C200 C201 1.354 1_545 S
C200 C202 1.327 . S
C200 H225 0.950 . S
C201 C200 1.354 1_565 S
C201 C217 1.342 1_554 S
C202 C200 1.327 . S
C202 C221 1.432 1_545 S
C202 H226 0.950 . S
C203 C220 1.574 . S
C203 C222 1.393 1_556 S
C203 H227 0.949 . S
H204 C208 0.949 . S
C205 C206 1.353 1_565 S
C205 C207 1.327 . S
C205 H228 0.950 . S
C206 C205 1.353 1_545 S
C206 C218 1.344 1_556 S
C207 C205 1.327 . S
C207 C223 1.430 1_565 S
C207 H229 0.950 . S
C208 H204 0.949 . S
C208 C216 1.574 . S
C208 C224 1.369 1_554 S
H209 C217 0.950 . S
H210 C215 0.950 . S
H211 C216 0.949 . S
H212 C218 0.950 . S
H213 C219 0.950 . S
H214 C220 0.949 . S
C215 H210 0.950 . S
C215 C217 1.327 . S
C215 C221 1.426 1_556 S
C216 C208 1.574 . S
C216 H211 0.949 . S
C216 C222 1.341 1_545 S
C217 C201 1.342 1_556 S
C217 H209 0.950 . S
C217 C215 1.327 . S
C218 C206 1.344 1_554 S
C218 H212 0.950 . S
C218 C219 1.327 . S
C219 H213 0.950 . S
C219 C218 1.327 . S
C219 C223 1.428 1_554 S
C220 C203 1.574 . S
C220 H214 0.949 . S
C220 C224 1.368 1_565 S
C221 C202 1.432 1_565 S
C221 C215 1.426 1_554 S
C221 C222 1.526 . S
C222 C203 1.393 1_554 S
C222 C216 1.341 1_565 S
C222 C221 1.526 . S
C223 C207 1.430 1_545 S
C223 C219 1.428 1_556 S
C223 C224 1.522 . S
C224 C208 1.369 1_556 S
C224 C220 1.368 1_545 S
C224 C223 1.522 . S
H225 C200 0.950 . S
H226 C202 0.950 . S
H227 C203 0.949 . S
H228 C205 0.950 . S
H229 C207 0.950 . S
C230 C231 1.349 1_545 S
C230 C232 1.327 . S
C230 H255 0.950 . S
C231 C230 1.349 1_565 S
C231 C247 1.349 . S
C232 C230 1.327 . S
C232 C251 1.420 1_545 S
C232 H256 0.950 . S
C233 C250 1.574 . S
C233 C252 1.372 . S
C233 H257 0.949 . S
H234 C238 0.949 . S
C235 C236 1.349 1_565 S
C235 C237 1.327 . S
C235 H258 0.950 . S
C236 C235 1.349 1_545 S
C236 C248 1.349 . S
C237 C235 1.327 . S
C237 C253 1.429 1_565 S
C237 H259 0.950 . S
C238 H234 0.949 . S
C238 C246 1.574 . S
C238 C254 1.375 . S
H239 C247 0.950 . S
H240 C245 0.950 . S
H241 C246 0.949 . S
H242 C248 0.950 . S
H243 C249 0.950 . S
H244 C250 0.949 . S
C245 H240 0.950 . S
C245 C247 1.327 . S
C245 C251 1.442 . S
C246 C238 1.574 . S
C246 H241 0.949 . S
C246 C252 1.364 1_545 S
C247 C231 1.349 . S
C247 H239 0.950 . S
C247 C245 1.327 . S
C248 C236 1.349 . S
C248 H242 0.950 . S
C248 C249 1.327 . S
C249 H243 0.950 . S
C249 C248 1.327 . S
C249 C253 1.429 . S
C250 C233 1.574 . S
C250 H244 0.949 . S
C250 C254 1.361 1_565 S
C251 C232 1.420 1_565 S
C251 C245 1.442 . S
C251 C252 1.521 . S
C252 C233 1.372 . S
C252 C246 1.364 1_565 S
C252 C251 1.521 . S
C253 C237 1.429 1_545 S
C253 C249 1.429 . S
C253 C254 1.525 . S
C254 C238 1.375 . S
C254 C250 1.361 1_545 S
C254 C253 1.525 . S
H255 C230 0.950 . S
H256 C232 0.950 . S
H257 C233 0.949 . S
H258 C235 0.950 . S
H259 C237 0.950 . S
C260 C261 1.365 . S
C260 C262 1.327 . S
C260 H285 0.950 . S
C261 C260 1.365 . S
C261 C277 1.331 1_554 S
C262 C260 1.327 . S
C262 C281 1.437 . S
C262 H286 0.950 . S
C263 C280 1.574 1_655 S
C263 C282 1.364 1_556 S
C263 H287 0.949 . S
H264 C268 0.949 . S
C265 C266 1.360 . S
C265 C267 1.327 . S
C265 H288 0.950 . S
C266 C265 1.360 . S
C266 C278 1.337 1_556 S
C267 C265 1.327 . S
C267 C283 1.432 . S
C267 H289 0.950 . S
C268 H264 0.949 . S
C268 C276 1.574 1_455 S
C268 C284 1.370 1_554 S
H269 C277 0.950 . S
H270 C275 0.950 . S
H271 C276 0.949 . S
H272 C278 0.950 . S
H273 C279 0.950 . S
H274 C280 0.949 . S
C275 H270 0.950 . S
C275 C277 1.327 . S
C275 C281 1.421 1_556 S
C276 C268 1.574 1_655 S
C276 H271 0.949 . S
C276 C282 1.372 . S
C277 C261 1.331 1_556 S
C277 H269 0.950 . S
C277 C275 1.327 . S
C278 C266 1.337 1_554 S
C278 H272 0.950 . S
C278 C279 1.327 . S
C279 H273 0.950 . S
C279 C278 1.327 . S
C279 C283 1.426 1_554 S
C280 C263 1.574 1_455 S
C280 H274 0.949 . S
C280 C284 1.367 . S
C281 C262 1.437 . S
C281 C275 1.421 1_554 S
C281 C282 1.522 . S
C282 C263 1.364 1_554 S
C282 C276 1.372 . S
C282 C281 1.522 . S
C283 C267 1.432 . S
C283 C279 1.426 1_556 S
C283 C284 1.522 . S
C284 C268 1.370 1_556 S
C284 C280 1.367 . S
C284 C283 1.522 . S
H285 C260 0.950 . S
H286 C262 0.950 . S
H287 C263 0.949 . S
H288 C265 0.950 . S
H289 C267 0.950 . S
C290 C291 1.349 . S
C290 C292 1.327 . S
C290 H315 0.950 . S
C291 C290 1.349 . S
C291 C307 1.349 . S
C292 C290 1.327 . S
C292 C311 1.429 . S
C292 H316 0.950 . S
C293 C310 1.574 1_455 S
C293 C312 1.368 . S
C293 H317 0.949 . S
H294 C298 0.949 . S
C295 C296 1.349 . S
C295 C297 1.327 . S
C295 H318 0.950 . S
C296 C295 1.349 . S
C296 C308 1.349 . S
C297 C295 1.327 . S
C297 C313 1.429 . S
C297 H319 0.950 . S
C298 H294 0.949 . S
C298 C306 1.574 1_655 S
C298 C314 1.368 . S
H299 C307 0.950 . S
H300 C305 0.950 . S
H301 C306 0.949 . S
H302 C308 0.950 . S
H303 C309 0.950 . S
H304 C310 0.949 . S
C305 H300 0.950 . S
C305 C307 1.327 . S
C305 C311 1.429 . S
C306 C298 1.574 1_455 S
C306 H301 0.949 . S
C306 C312 1.368 . S
C307 C291 1.349 . S
C307 H299 0.950 . S
C307 C305 1.327 . S
C308 C296 1.349 . S
C308 H302 0.950 . S
C308 C309 1.327 . S
C309 H303 0.950 . S
C309 C308 1.327 . S
C309 C313 1.429 . S
C310 C293 1.574 1_655 S
C310 H304 0.949 . S
C310 C314 1.368 . S
C311 C292 1.429 . S
C311 C305 1.429 . S
C311 C312 1.523 . S
C312 C293 1.368 . S
C312 C306 1.368 . S
C312 C311 1.523 . S
C313 C297 1.429 . S
C313 C309 1.429 . S
C313 C314 1.523 . S
C314 C298 1.368 . S
C314 C310 1.368 . S
C314 C313 1.523 . S
H315 C290 0.950 . S
H316 C292 0.950 . S
H317 C293 0.949 . S
H318 C295 0.950 . S
H319 C297 0.950 . S
C320 C321 1.349 1_565 S
C320 C322 1.327 . S
C320 H345 0.950 . S
C321 C320 1.349 1_545 S
C321 C337 1.349 1_655 S
C322 C320 1.327 . S
C322 C341 1.439 1_565 S
C322 H346 0.950 . S
C323 C340 1.574 . S
C323 C342 1.359 1_455 S
C323 H347 0.949 . S
H324 C328 0.949 . S
C325 C326 1.346 1_455 S
C325 C327 1.327 . S
C325 H348 0.950 . S
C326 C325 1.346 1_655 S
C326 C338 1.353 1_545 S
C327 C325 1.327 . S
C327 C343 1.423 1_455 S
C327 H349 0.950 . S
C328 H324 0.949 . S
C328 C336 1.574 . S
C328 C344 1.376 1_565 S
H329 C337 0.950 . S
H330 C335 0.950 . S
H331 C336 0.949 . S
H332 C338 0.950 . S
H333 C339 0.950 . S
H334 C340 0.949 . S
C335 H330 0.950 . S
C335 C337 1.327 . S
C335 C341 1.420 1_455 S
C336 C328 1.574 . S
C336 H331 0.949 . S
C336 C342 1.377 1_565 S
C337 C321 1.349 1_455 S
C337 H329 0.950 . S
C337 C335 1.327 . S
C338 C326 1.353 1_565 S
C338 H332 0.950 . S
C338 C339 1.327 . S
C339 H333 0.950 . S
C339 C338 1.327 . S
C339 C343 1.434 1_565 S
C340 C323 1.574 . S
C340 H334 0.949 . S
C340 C344 1.362 1_455 S
C341 C322 1.439 1_545 S
C341 C335 1.420 1_655 S
C341 C342 1.523 . S
C342 C323 1.359 1_655 S
C342 C336 1.377 1_545 S
C342 C341 1.523 . S
C343 C327 1.423 1_655 S
C343 C339 1.434 1_545 S
C343 C344 1.523 . S
C344 C328 1.376 1_545 S
C344 C340 1.362 1_655 S
C344 C343 1.523 . S
H345 C320 0.950 . S
H346 C322 0.950 . S
H347 C323 0.949 . S
H348 C325 0.950 . S
H349 C327 0.950 . S
C350 C351 1.355 1_545 S
C350 C352 1.327 . S
C350 H375 0.950 . S
C351 C350 1.355 1_565 S
C351 C367 1.343 1_455 S
C352 C350 1.327 . S
C352 C371 1.436 1_545 S
C352 H376 0.950 . S
C353 C370 1.574 . S
C353 C372 1.359 1_655 S
C353 H377 0.949 . S
H354 C358 0.949 . S
C355 C356 1.349 1_655 S
C355 C357 1.327 . S
C355 H378 0.950 . S
C356 C355 1.349 1_455 S
C356 C368 1.349 1_565 S
C357 C355 1.327 . S
C357 C373 1.429 1_655 S
C357 H379 0.950 . S
C358 H354 0.949 . S
C358 C366 1.574 . S
C358 C374 1.368 1_545 S
H359 C367 0.950 . S
H360 C365 0.950 . S
H361 C366 0.949 . S
H362 C368 0.950 . S
H363 C369 0.950 . S
H364 C370 0.949 . S
C365 H360 0.950 . S
C365 C367 1.327 . S
C365 C371 1.420 1_655 S
C366 C358 1.574 . S
C366 H361 0.949 . S
C366 C372 1.379 1_545 S
C367 C351 1.343 1_655 S
C367 H359 0.950 . S
C367 C365 1.327 . S
C368 C356 1.349 1_545 S
C368 H362 0.950 . S
C368 C369 1.327 . S
C369 H363 0.950 . S
C369 C368 1.327 . S
C369 C373 1.429 1_545 S
C370 C353 1.574 . S
C370 H364 0.949 . S
C370 C374 1.368 1_655 S
C371 C352 1.436 1_565 S
C371 C365 1.420 1_455 S
C371 C372 1.523 . S
C372 C353 1.359 1_455 S
C372 C366 1.379 1_565 S
C372 C371 1.523 . S
C373 C357 1.429 1_455 S
C373 C369 1.429 1_565 S
C373 C374 1.523 . S
C374 C358 1.368 1_565 S
C374 C370 1.368 1_455 S
C374 C373 1.523 . S
H375 C350 0.950 . S
H376 C352 0.950 . S
H377 C353 0.949 . S
H378 C355 0.950 . S
H379 C357 0.950 . S
C380 C381 1.349 . S
C380 C382 1.327 . S
C380 H405 0.950 . S
C381 C380 1.349 . S
C381 C397 1.349 . S
C382 C380 1.327 . S
C382 C401 1.429 . S
C382 H406 0.950 . S
C383 C400 1.574 . S
C383 C402 1.368 . S
C383 H407 0.949 . S
H384 C388 0.949 . S
C385 C386 1.349 . S
C385 C387 1.327 . S
C385 H408 0.950 . S
C386 C385 1.349 . S
C386 C398 1.349 . S
C387 C385 1.327 . S
C387 C403 1.429 . S
C387 H409 0.950 . S
C388 H384 0.949 . S
C388 C396 1.574 . S
C388 C404 1.368 . S
H389 C397 0.950 . S
H390 C395 0.950 . S
H391 C396 0.949 . S
H392 C398 0.950 . S
H393 C399 0.950 . S
H394 C400 0.949 . S
C395 H390 0.950 . S
C395 C397 1.327 . S
C395 C401 1.429 . S
C396 C388 1.574 . S
C396 H391 0.949 . S
C396 C402 1.368 . S
C397 C381 1.349 . S
C397 H389 0.950 . S
C397 C395 1.327 . S
C398 C386 1.349 . S
C398 H392 0.950 . S
C398 C399 1.327 . S
C399 H393 0.950 . S
C399 C398 1.327 . S
C399 C403 1.429 . S
C400 C383 1.574 . S
C400 H394 0.949 . S
C400 C404 1.368 . S
C401 C382 1.429 . S
C401 C395 1.429 . S
C401 C402 1.523 . S
C402 C383 1.368 . S
C402 C396 1.368 . S
C402 C401 1.523 . S
C403 C387 1.429 . S
C403 C399 1.429 . S
C403 C404 1.523 . S
C404 C388 1.368 . S
C404 C400 1.368 . S
C404 C403 1.523 . S
H405 C380 0.950 . S
H406 C382 0.950 . S
H407 C383 0.949 . S
H408 C385 0.950 . S
H409 C387 0.950 . S
C410 C411 1.349 . S
C410 C412 1.327 . S
C410 H435 0.950 . S
C411 C410 1.349 . S
C411 C427 1.349 . S
C412 C410 1.327 . S
C412 C431 1.429 . S
C412 H436 0.950 . S
C413 C430 1.574 . S
C413 C432 1.368 . S
C413 H437 0.949 . S
H414 C418 0.949 . S
C415 C416 1.349 . S
C415 C417 1.327 . S
C415 H438 0.950 . S
C416 C415 1.349 . S
C416 C428 1.349 . S
C417 C415 1.327 . S
C417 C433 1.429 . S
C417 H439 0.950 . S
C418 H414 0.949 . S
C418 C426 1.574 . S
C418 C434 1.368 . S
H419 C427 0.950 . S
H420 C425 0.950 . S
H421 C426 0.949 . S
H422 C428 0.950 . S
H423 C429 0.950 . S
H424 C430 0.949 . S
C425 H420 0.950 . S
C425 C427 1.327 . S
C425 C431 1.429 . S
C426 C418 1.574 . S
C426 H421 0.949 . S
C426 C432 1.368 . S
C427 C411 1.349 . S
C427 H419 0.950 . S
C427 C425 1.327 . S
C428 C416 1.349 . S
C428 H422 0.950 . S
C428 C429 1.327 . S
C429 H423 0.950 . S
C429 C428 1.327 . S
C429 C433 1.429 . S
C430 C413 1.574 . S
C430 H424 0.949 . S
C430 C434 1.368 . S
C431 C412 1.429 . S
C431 C425 1.429 . S
C431 C432 1.523 . S
C432 C413 1.368 . S
C432 C426 1.368 . S
C432 C431 1.523 . S
C433 C417 1.429 . S
C433 C429 1.429 . S
C433 C434 1.523 . S
C434 C418 1.368 . S
C434 C430 1.368 . S
C434 C433 1.523 . S
H435 C410 0.950 . S
H436 C412 0.950 . S
H437 C413 0.949 . S
H438 C415 0.950 . S
H439 C417 0.950 . S
C81 C58 2.029 1_554 S
C86 C19 2.027 1_556 S
C111 C59 2.026 1_556 S
C116 C18 2.028 1_554 S
C141 C21 1.017 . S
C146 C62 1.015 . S
C171 C22 1.017 . S
C176 C61 1.020 . S
C201 C1 0.646 1_565 S
C206 C2 0.644 1_545 S
C231 C39 2.407 . S
C236 C38 2.407 . S
C261 C41 0.646 . S
C266 C42 0.644 . S
C291 C78 2.407 . S
C296 C79 2.407 . S
C321 C28 1.456 1_645 S
C326 C9 1.456 1_655 S
C351 C8 1.456 1_455 S
C356 C29 1.458 1_465 S
C381 C68 1.455 . S
C386 C49 1.457 . S
C411 C69 1.455 . S
C416 C48 1.460 . S
