# Generated by pormake.
# Topology zfr, (5)-cn, num edge types: 1
# Building blocks:
#     Node 0, Type 0, BuildingBlock: XOMCOT_clean_sbu_0, # of connection points: 5
#     Node 1, Type 0, BuildingBlock: XOMCOT_clean_sbu_0, # of connection points: 5
#     Node 2, Type 0, BuildingBlock: XOMCOT_clean_sbu_0, # of connection points: 5
#     Node 3, Type 0, BuildingBlock: XOMCOT_clean_sbu_0, # of connection points: 5
#     Node 4, Type 0, BuildingBlock: XOMCOT_clean_sbu_0, # of connection points: 5
#     Node 5, Type 0, BuildingBlock: XOMCOT_clean_sbu_0, # of connection points: 5
#     Node 6, Type 0, BuildingBlock: XOMCOT_clean_sbu_0, # of connection points: 5
#     Node 7, Type 0, BuildingBlock: XOMCOT_clean_sbu_0, # of connection points: 5
#     Edge 8, Type (0, 0), BuildingBlock: OJICUG_clean_linker_0, # of connection points: 2
#     Edge 9, Type (0, 0), BuildingBlock: OJICUG_clean_linker_0, # of connection points: 2
#     Edge 10, Type (0, 0), BuildingBlock: OJICUG_clean_linker_0, # of connection points: 2
#     Edge 11, Type (0, 0), BuildingBlock: OJICUG_clean_linker_0, # of connection points: 2
#     Edge 12, Type (0, 0), BuildingBlock: OJICUG_clean_linker_0, # of connection points: 2
#     Edge 13, Type (0, 0), BuildingBlock: OJICUG_clean_linker_0, # of connection points: 2
#     Edge 14, Type (0, 0), BuildingBlock: OJICUG_clean_linker_0, # of connection points: 2
#     Edge 15, Type (0, 0), BuildingBlock: OJICUG_clean_linker_0, # of connection points: 2
#     Edge 16, Type (0, 0), BuildingBlock: OJICUG_clean_linker_0, # of connection points: 2
#     Edge 17, Type (0, 0), BuildingBlock: OJICUG_clean_linker_0, # of connection points: 2
#     Edge 18, Type (0, 0), BuildingBlock: OJICUG_clean_linker_0, # of connection points: 2
#     Edge 19, Type (0, 0), BuildingBlock: OJICUG_clean_linker_0, # of connection points: 2
#     Edge 20, Type (0, 0), BuildingBlock: OJICUG_clean_linker_0, # of connection points: 2
#     Edge 21, Type (0, 0), BuildingBlock: OJICUG_clean_linker_0, # of connection points: 2
#     Edge 22, Type (0, 0), BuildingBlock: OJICUG_clean_linker_0, # of connection points: 2
#     Edge 23, Type (0, 0), BuildingBlock: OJICUG_clean_linker_0, # of connection points: 2
#     Edge 24, Type (0, 0), BuildingBlock: OJICUG_clean_linker_0, # of connection points: 2
#     Edge 25, Type (0, 0), BuildingBlock: OJICUG_clean_linker_0, # of connection points: 2
#     Edge 26, Type (0, 0), BuildingBlock: OJICUG_clean_linker_0, # of connection points: 2
#     Edge 27, Type (0, 0), BuildingBlock: OJICUG_clean_linker_0, # of connection points: 2
# Relax obj value: 0.179
# Max RMSD: 0.175
# Mean RMSD: 0.175
data_MOF--net-zfr--node1-XOMCOT_clean_sbu_0--edge1-OJICUG_clean_linker_0
_symmetry_space_group_name_H-M    P1
_symmetry_Int_Tables_number       1
_symmetry_cell_setting            triclinic
loop_
_symmetry_equiv_pos_as_xyz
'x, y, z'
_cell_length_a     38.009634
_cell_length_b     38.004716
_cell_length_c     13.42584
_cell_angle_alpha  89.990433
_cell_angle_beta   90.001253
_cell_angle_gamma 90.01065
loop_
_atom_site_label
_atom_site_type_symbol
_atom_site_fract_x
_atom_site_fract_y
_atom_site_fract_z
_atom_type_partial_charge
Co0 Co 0.12701 0.30379 0.22994 0.0
C1 C 0.12305 0.30863 0.44925 0.0
C2 C 0.07461 0.28954 0.38906 0.0
C3 C 0.07273 0.28805 0.49167 0.0
N4 N 0.10601 0.30322 0.36229 0.0
N5 N 0.10332 0.30017 0.52902 0.0
H6 H 0.15051 0.31553 0.45489 0.0
H7 H 0.05513 0.27925 0.33823 0.0
C8 C 0.05202 0.32105 0.1717 0.0
O9 O 0.05077 0.34605 0.23922 0.0
N10 N 0.14781 0.30354 0.09884 0.0
C11 C 0.17833 0.3187 0.07152 0.0
C12 C 0.18044 0.31835 0.96903 0.0
C13 C 0.13203 0.2938 0.01323 0.0
N14 N 0.15109 0.30297 0.93253 0.0
C15 C 0.14648 0.37238 0.29964 0.0
C16 C 0.11223 0.41118 0.1553 0.0
C17 C 0.12921 0.4288 0.23338 0.0
C18 C 0.14729 0.40899 0.30446 0.0
C19 C 0.11285 0.37432 0.15203 0.0
N20 N 0.12771 0.35529 0.22771 0.0
H21 H 0.16172 0.35796 0.35309 0.0
H22 H 0.10103 0.36117 0.08906 0.0
H23 H 0.19678 0.33091 0.12219 0.0
H24 H 0.10606 0.28231 0.00952 0.0
O25 O 0.17277 0.29621 0.28781 0.0
O26 O 0.13608 0.25366 0.24403 0.0
O27 O 0.07904 0.30128 0.16463 0.0
C28 C 0.16606 0.26273 0.28373 0.0
H29 H 0.05105 0.27773 0.53503 0.0
H30 H 0.20139 0.32974 0.92501 0.0
H31 H 0.09915 0.42575 0.09667 0.0
H32 H 0.16173 0.4217 0.36403 0.0
Co33 Co 0.70501 0.12714 0.48032 0.0
C34 C 0.70024 0.1232 0.69964 0.0
C35 C 0.71927 0.07473 0.63947 0.0
C36 C 0.72076 0.07285 0.74208 0.0
N37 N 0.70563 0.10615 0.61269 0.0
N38 N 0.70868 0.10346 0.77942 0.0
H39 H 0.69338 0.15067 0.70527 0.0
H40 H 0.72952 0.05524 0.58865 0.0
C41 C 0.68769 0.05212 0.42226 0.0
O42 O 0.6627 0.05088 0.48981 0.0
N43 N 0.70522 0.14793 0.3492 0.0
C44 C 0.69008 0.17845 0.32188 0.0
C45 C 0.69044 0.18056 0.21938 0.0
C46 C 0.71496 0.13214 0.26361 0.0
N47 N 0.70581 0.15121 0.1829 0.0
C48 C 0.63651 0.14673 0.55024 0.0
C49 C 0.59757 0.11245 0.40629 0.0
C50 C 0.58004 0.12952 0.48435 0.0
C51 C 0.59992 0.14761 0.55523 0.0
C52 C 0.63443 0.11299 0.40283 0.0
N53 N 0.65353 0.12787 0.47833 0.0
H54 H 0.65099 0.16198 0.60351 0.0
H55 H 0.64751 0.10112 0.33986 0.0
H56 H 0.67788 0.19691 0.37254 0.0
H57 H 0.72644 0.10617 0.25992 0.0
O58 O 0.71266 0.17291 0.53807 0.0
O59 O 0.75516 0.13619 0.49419 0.0
O60 O 0.70746 0.07915 0.41508 0.0
C61 C 0.74612 0.16619 0.53385 0.0
H62 H 0.73104 0.05116 0.78546 0.0
H63 H 0.67907 0.20152 0.17535 0.0
H64 H 0.58294 0.09936 0.3478 0.0
H65 H 0.58728 0.16212 0.61477 0.0
Co66 Co 0.88266 0.70526 0.73275 0.0
C67 C 0.88603 0.70216 0.95211 0.0
C68 C 0.93541 0.71849 0.89159 0.0
C69 C 0.93704 0.72107 0.994 0.0
N70 N 0.90354 0.70585 0.8652 0.0
N71 N 0.90574 0.71102 0.03161 0.0
H72 H 0.85862 0.69511 0.95736 0.0
H73 H 0.95538 0.72763 0.84057 0.0
C74 C 0.95737 0.68751 0.67254 0.0
O75 O 0.95855 0.6621 0.73881 0.0
N76 N 0.86211 0.70572 0.60161 0.0
C77 C 0.83219 0.68989 0.5719 0.0
C78 C 0.83054 0.69134 0.46929 0.0
C79 C 0.87796 0.71689 0.51765 0.0
N80 N 0.85961 0.70795 0.43572 0.0
C81 C 0.86393 0.63667 0.80382 0.0
C82 C 0.89649 0.59792 0.65628 0.0
C83 C 0.88015 0.58027 0.73541 0.0
C84 C 0.86295 0.60006 0.80823 0.0
C85 C 0.89605 0.63479 0.65348 0.0
N86 N 0.88197 0.65378 0.73043 0.0
H87 H 0.84942 0.65109 0.85882 0.0
H88 H 0.90743 0.648 0.58994 0.0
H89 H 0.81403 0.67642 0.6208 0.0
H90 H 0.90314 0.73012 0.51586 0.0
O91 O 0.83677 0.71274 0.78993 0.0
O92 O 0.87351 0.75538 0.74695 0.0
O93 O 0.93066 0.70778 0.66755 0.0
C94 C 0.84345 0.74624 0.78609 0.0
H95 H 0.95877 0.7316 0.03673 0.0
H96 H 0.81072 0.67911 0.42286 0.0
H97 H 0.90894 0.58336 0.59654 0.0
H98 H 0.84906 0.58732 0.8688 0.0
Co99 Co 0.30392 0.88184 0.98037 0.0
C100 C 0.30869 0.88577 0.19968 0.0
C101 C 0.28974 0.93427 0.13946 0.0
C102 C 0.28827 0.93615 0.24207 0.0
N103 N 0.30332 0.90282 0.11272 0.0
N104 N 0.3003 0.90553 0.27944 0.0
H105 H 0.31552 0.85829 0.20534 0.0
H106 H 0.27953 0.95378 0.08862 0.0
C107 C 0.32133 0.95684 0.92213 0.0
O108 O 0.34633 0.95808 0.98963 0.0
N109 N 0.3037 0.86105 0.84928 0.0
C110 C 0.31882 0.83051 0.82198 0.0
C111 C 0.31847 0.82841 0.71949 0.0
C112 C 0.29398 0.87685 0.76366 0.0
N113 N 0.30312 0.85778 0.68297 0.0
C114 C 0.37241 0.86214 0.05035 0.0
C115 C 0.4114 0.8964 0.90645 0.0
C116 C 0.42892 0.8793 0.98451 0.0
C117 C 0.409 0.86122 0.05537 0.0
C118 C 0.37454 0.8959 0.90297 0.0
N119 N 0.35542 0.88103 0.97844 0.0
H120 H 0.3579 0.8469 0.10361 0.0
H121 H 0.36148 0.9078 0.83998 0.0
H122 H 0.331 0.81205 0.87266 0.0
H123 H 0.28252 0.90283 0.75995 0.0
O124 O 0.29618 0.83607 0.03817 0.0
O125 O 0.25376 0.87287 0.99416 0.0
O126 O 0.30154 0.92982 0.91506 0.0
C127 C 0.26273 0.84285 0.03385 0.0
H128 H 0.27803 0.95786 0.28543 0.0
H129 H 0.32982 0.80744 0.67548 0.0
H130 H 0.42605 0.90949 0.84798 0.0
H131 H 0.42162 0.84669 0.11491 0.0
Co132 Co 0.12645 0.70519 0.27598 0.0
C133 C 0.12251 0.70044 0.05666 0.0
C134 C 0.07408 0.71955 0.11686 0.0
C135 C 0.07219 0.72103 0.01425 0.0
N136 N 0.10548 0.70587 0.14362 0.0
N137 N 0.10278 0.7089 0.9769 0.0
H138 H 0.14996 0.69352 0.05102 0.0
H139 H 0.0546 0.72983 0.16769 0.0
C140 C 0.0514 0.688 0.33406 0.0
O141 O 0.05008 0.66308 0.26633 0.0
N142 N 0.14723 0.70534 0.40709 0.0
C143 C 0.17772 0.69012 0.43442 0.0
C144 C 0.17982 0.69047 0.53692 0.0
C145 C 0.13147 0.71511 0.49269 0.0
N146 N 0.1505 0.7059 0.57339 0.0
C147 C 0.14596 0.63665 0.2061 0.0
C148 C 0.11167 0.59775 0.35016 0.0
C149 C 0.1288 0.58018 0.27226 0.0
C150 C 0.14687 0.60005 0.20129 0.0
C151 C 0.11218 0.63461 0.35344 0.0
N152 N 0.12709 0.65369 0.27793 0.0
H153 H 0.16122 0.65111 0.15279 0.0
H154 H 0.1003 0.64772 0.41636 0.0
H155 H 0.19615 0.67789 0.38376 0.0
H156 H 0.10553 0.72666 0.49637 0.0
O157 O 0.17224 0.71276 0.21824 0.0
O158 O 0.13562 0.75533 0.26216 0.0
O159 O 0.07848 0.70771 0.34125 0.0
C160 C 0.16561 0.74624 0.22255 0.0
H161 H 0.05051 0.73133 0.97088 0.0
H162 H 0.20075 0.67905 0.58095 0.0
H163 H 0.09859 0.58313 0.4087 0.0
H164 H 0.16142 0.58739 0.14185 0.0
Co165 Co 0.30374 0.12708 0.52808 0.0
C166 C 0.30852 0.12315 0.30876 0.0
C167 C 0.28958 0.07464 0.36898 0.0
C168 C 0.28809 0.07276 0.26638 0.0
N169 N 0.30316 0.10609 0.39573 0.0
N170 N 0.30012 0.10339 0.22901 0.0
H171 H 0.31535 0.15063 0.3031 0.0
H172 H 0.27936 0.05512 0.41983 0.0
C173 C 0.32113 0.05211 0.58634 0.0
O174 O 0.34612 0.0509 0.5188 0.0
N175 N 0.30348 0.14788 0.65918 0.0
C176 C 0.31859 0.17843 0.68648 0.0
C177 C 0.31823 0.18053 0.78897 0.0
C178 C 0.29376 0.13208 0.74479 0.0
N179 N 0.30289 0.15115 0.82548 0.0
C180 C 0.37226 0.14666 0.45819 0.0
C181 C 0.41117 0.1125 0.60244 0.0
C182 C 0.42872 0.12953 0.5243 0.0
C183 C 0.40885 0.14756 0.45326 0.0
C184 C 0.37431 0.11304 0.60582 0.0
N185 N 0.35523 0.12785 0.53018 0.0
H186 H 0.35779 0.16187 0.40478 0.0
H187 H 0.36121 0.10119 0.66883 0.0
H188 H 0.33077 0.1969 0.63581 0.0
H189 H 0.28232 0.10608 0.7485 0.0
O190 O 0.29611 0.17285 0.47026 0.0
O191 O 0.2536 0.13611 0.51407 0.0
O192 O 0.3013 0.07909 0.5934 0.0
C193 C 0.26264 0.16611 0.47439 0.0
H194 H 0.27785 0.05104 0.22302 0.0
H195 H 0.32957 0.20151 0.83299 0.0
H196 H 0.42579 0.09946 0.66103 0.0
H197 H 0.4215 0.16203 0.39364 0.0
Co198 Co 0.88191 0.30391 0.77749 0.0
C199 C 0.88587 0.30874 0.55818 0.0
C200 C 0.93428 0.28956 0.61839 0.0
C201 C 0.93615 0.28807 0.51579 0.0
N202 N 0.9029 0.30329 0.64515 0.0
N203 N 0.90559 0.30025 0.47842 0.0
H204 H 0.85843 0.31569 0.55254 0.0
H205 H 0.95373 0.27924 0.66924 0.0
C206 C 0.95694 0.3211 0.83562 0.0
O207 O 0.95822 0.34608 0.76802 0.0
N208 N 0.86111 0.30369 0.90859 0.0
C209 C 0.83062 0.31889 0.93589 0.0
C210 C 0.82851 0.31855 0.03839 0.0
C211 C 0.87688 0.29394 0.99421 0.0
N212 N 0.85784 0.30313 0.0749 0.0
C213 C 0.86242 0.37249 0.70772 0.0
C214 C 0.89681 0.4113 0.85175 0.0
C215 C 0.87977 0.42891 0.77375 0.0
C216 C 0.86161 0.40909 0.70284 0.0
C217 C 0.89617 0.37444 0.85512 0.0
N218 N 0.88125 0.3554 0.77957 0.0
H219 H 0.84714 0.35806 0.65441 0.0
H220 H 0.90802 0.36131 0.91807 0.0
H221 H 0.81218 0.33112 0.88522 0.0
H222 H 0.90283 0.28242 0.99793 0.0
O223 O 0.83614 0.29633 0.71966 0.0
O224 O 0.8728 0.25377 0.76356 0.0
O225 O 0.92988 0.30138 0.84279 0.0
C226 C 0.84282 0.26285 0.72386 0.0
H227 H 0.95781 0.27772 0.47243 0.0
H228 H 0.80758 0.32996 0.0824 0.0
H229 H 0.90994 0.42589 0.91026 0.0
H230 H 0.84712 0.4218 0.64338 0.0
Co231 Co 0.70525 0.88166 0.02912 0.0
C232 C 0.7005 0.88558 0.8098 0.0
C233 C 0.71951 0.93406 0.86998 0.0
C234 C 0.721 0.93594 0.76737 0.0
N235 N 0.70588 0.90263 0.89675 0.0
N236 N 0.70893 0.90532 0.73003 0.0
H237 H 0.69364 0.85811 0.80418 0.0
H238 H 0.72975 0.95356 0.92081 0.0
C239 C 0.68782 0.95666 0.08703 0.0
O240 O 0.66287 0.95786 0.01937 0.0
N241 N 0.70545 0.86088 0.16024 0.0
C242 C 0.69034 0.83033 0.18756 0.0
C243 C 0.6907 0.82822 0.29006 0.0
C244 C 0.71518 0.87668 0.24583 0.0
N245 N 0.70605 0.8576 0.32654 0.0
C246 C 0.63677 0.86196 0.95908 0.0
C247 C 0.59777 0.89627 0.10282 0.0
C248 C 0.58026 0.87918 0.02473 0.0
C249 C 0.60017 0.86107 0.95396 0.0
C250 C 0.63463 0.89573 0.1064 0.0
N251 N 0.65376 0.88084 0.03099 0.0
H252 H 0.65127 0.8467 0.90588 0.0
H253 H 0.64769 0.90762 0.1694 0.0
H254 H 0.67816 0.81186 0.1369 0.0
H255 H 0.72664 0.90266 0.24952 0.0
O256 O 0.713 0.83588 0.97141 0.0
O257 O 0.75541 0.8727 0.01542 0.0
O258 O 0.70761 0.92965 0.09434 0.0
C259 C 0.74645 0.84267 0.97577 0.0
H260 H 0.73127 0.95764 0.72399 0.0
H261 H 0.67936 0.80725 0.3341 0.0
H262 H 0.58312 0.90937 0.16124 0.0
H263 H 0.58755 0.84655 0.8944 0.0
C264 C 0.20269 0.17973 0.40381 0.0
C265 C 0.23698 0.19057 0.4286 0.0
H266 H 0.15336 0.19387 0.33628 0.0
C267 C 0.24768 0.22481 0.40338 0.0
H268 H 0.19384 0.15336 0.42142 0.0
C269 C 0.2247 0.2478 0.35514 0.0
C270 C 0.19051 0.23707 0.32961 0.0
H271 H 0.27394 0.23396 0.42104 0.0
H272 H 0.23382 0.2741 0.33772 0.0
C273 C 0.17969 0.20274 0.35413 0.0
C274 C 0.78414 0.24791 0.65274 0.0
C275 C 0.81834 0.23718 0.67814 0.0
H276 H 0.73485 0.23404 0.5871 0.0
C277 C 0.82914 0.20285 0.65367 0.0
H278 H 0.77503 0.27421 0.67014 0.0
C279 C 0.8061 0.17983 0.60416 0.0
C280 C 0.77181 0.19066 0.57949 0.0
H281 H 0.85548 0.19398 0.67143 0.0
H282 H 0.81494 0.15346 0.58658 0.0
C283 C 0.76113 0.2249 0.60467 0.0
C284 C 0.78473 0.761 0.85733 0.0
C285 C 0.8189 0.77183 0.83186 0.0
H286 H 0.7354 0.77473 0.92288 0.0
C287 C 0.8296 0.8062 0.85629 0.0
H288 H 0.7757 0.73466 0.84003 0.0
C289 C 0.80649 0.82917 0.9057 0.0
C290 C 0.77222 0.81824 0.93033 0.0
H291 H 0.85591 0.81515 0.83852 0.0
H292 H 0.81525 0.85557 0.9232 0.0
C293 C 0.76164 0.78395 0.9053 0.0
C294 C 0.22443 0.76115 0.15229 0.0
C295 C 0.19019 0.7719 0.17722 0.0
H296 H 0.27385 0.77498 0.08736 0.0
C297 C 0.17948 0.80625 0.15268 0.0
H298 H 0.23348 0.73484 0.16978 0.0
C299 C 0.20263 0.82927 0.10352 0.0
C300 C 0.23695 0.81841 0.0793 0.0
H301 H 0.15312 0.81515 0.17009 0.0
H302 H 0.19385 0.85565 0.08584 0.0
C303 C 0.24756 0.78415 0.10459 0.0
C304 C 0.10158 0.27687 0.70134 0.0
C305 C 0.11475 0.30099 0.63139 0.0
H306 H 0.10359 0.25783 0.85116 0.0
C307 C 0.14032 0.32543 0.66198 0.0
H308 H 0.08225 0.25739 0.67984 0.0
C309 C 0.15261 0.3257 0.75992 0.0
C310 C 0.13962 0.30153 0.83008 0.0
H311 H 0.15058 0.34475 0.61033 0.0
H312 H 0.17174 0.34542 0.78089 0.0
C313 C 0.11395 0.27707 0.79951 0.0
C314 C 0.68313 0.15275 0.01026 0.0
C315 C 0.70727 0.13975 0.08045 0.0
H316 H 0.66411 0.15073 0.86065 0.0
C317 C 0.73172 0.11408 0.04993 0.0
H318 H 0.66341 0.17188 0.03121 0.0
C319 C 0.73194 0.10171 0.95176 0.0
C320 C 0.70784 0.11488 0.88178 0.0
H321 H 0.75094 0.1037 0.10161 0.0
H322 H 0.7514 0.08237 0.93029 0.0
C323 C 0.68341 0.14047 0.91233 0.0
C324 C 0.85837 0.71535 0.15774 0.0
C325 C 0.89434 0.71201 0.13406 0.0
H326 H 0.81924 0.7168 0.27254 0.0
C327 C 0.91878 0.70881 0.21199 0.0
H328 H 0.8388 0.71885 0.10014 0.0
C329 C 0.90745 0.70814 0.311 0.0
C330 C 0.87141 0.71057 0.33417 0.0
H331 H 0.94656 0.70587 0.19645 0.0
H332 H 0.92685 0.70461 0.36918 0.0
C333 C 0.84705 0.7144 0.2566 0.0
C334 C 0.32553 0.86849 0.41238 0.0
C335 C 0.30113 0.89411 0.38181 0.0
H336 H 0.34549 0.83705 0.53128 0.0
C337 C 0.27706 0.90731 0.45179 0.0
H338 H 0.34481 0.8582 0.36071 0.0
C339 C 0.27726 0.89495 0.54997 0.0
C340 C 0.30168 0.86924 0.58052 0.0
H341 H 0.25762 0.92668 0.4303 0.0
H342 H 0.25806 0.90534 0.60164 0.0
C343 C 0.3258 0.85621 0.51033 0.0
C344 C 0.10105 0.73213 0.80452 0.0
C345 C 0.11418 0.70802 0.87453 0.0
H346 H 0.10307 0.75112 0.65465 0.0
C347 C 0.13972 0.68354 0.844 0.0
H348 H 0.08174 0.75163 0.82598 0.0
C349 C 0.152 0.68323 0.74606 0.0
C350 C 0.13904 0.70739 0.67584 0.0
H351 H 0.14996 0.66424 0.8957 0.0
H352 H 0.1711 0.66348 0.72513 0.0
C353 C 0.11341 0.73189 0.70635 0.0
C354 C 0.32532 0.14045 0.09606 0.0
C355 C 0.30094 0.11481 0.12664 0.0
H356 H 0.34526 0.17191 0.97716 0.0
C357 C 0.27686 0.10159 0.05667 0.0
H358 H 0.3446 0.15076 0.14773 0.0
C359 C 0.27705 0.11396 0.95849 0.0
C360 C 0.30145 0.13969 0.92794 0.0
H361 H 0.25743 0.08221 0.07816 0.0
H362 H 0.25785 0.10355 0.90682 0.0
C363 C 0.32557 0.15274 0.99812 0.0
C364 C 0.90728 0.27695 0.30612 0.0
C365 C 0.89417 0.30109 0.37605 0.0
H366 H 0.90524 0.25792 0.15631 0.0
C367 C 0.86864 0.32557 0.34543 0.0
H368 H 0.92657 0.25744 0.32763 0.0
C369 C 0.85636 0.32586 0.24749 0.0
C370 C 0.8693 0.30167 0.17736 0.0
H371 H 0.85842 0.34491 0.39707 0.0
H372 H 0.83727 0.34562 0.2265 0.0
C373 C 0.89492 0.27717 0.20794 0.0
C374 C 0.68338 0.85603 0.49918 0.0
C375 C 0.70752 0.86905 0.42899 0.0
H376 H 0.66438 0.85802 0.6488 0.0
C377 C 0.73196 0.89474 0.45951 0.0
H378 H 0.66367 0.83688 0.47824 0.0
C379 C 0.73218 0.9071 0.55768 0.0
C380 C 0.70809 0.8939 0.62767 0.0
H381 H 0.75117 0.90513 0.40782 0.0
H382 H 0.75164 0.92646 0.57915 0.0
C383 C 0.68367 0.8683 0.59712 0.0
C384 C 0.01515 0.3526 0.04618 0.0
C385 C 0.02637 0.32075 0.08883 0.0
H386 H 0.98548 0.37755 0.93002 0.0
C387 C 0.01561 0.2889 0.04526 0.0
H388 H 0.02361 0.37753 0.07714 0.0
C389 C 0.99329 0.28891 0.96209 0.0
C390 C 0.9826 0.32078 0.91845 0.0
H391 H 0.02426 0.26401 0.07606 0.0
H392 H 0.98459 0.26403 0.93134 0.0
C393 C 0.99388 0.35261 0.96102 0.0
C394 C 0.65625 0.99369 0.21208 0.0
C395 C 0.6881 0.98241 0.16967 0.0
H396 H 0.63127 0.02352 0.32787 0.0
C397 C 0.71994 0.9932 0.21324 0.0
H398 H 0.63133 0.98521 0.18113 0.0
C399 C 0.71991 0.01563 0.29617 0.0
C400 C 0.68803 0.02639 0.3396 0.0
H401 H 0.74483 0.98451 0.1826 0.0
H402 H 0.74477 0.02435 0.32692 0.0
C403 C 0.65622 0.01507 0.29703 0.0
C404 C 0.01419 0.65633 0.45858 0.0
C405 C 0.02581 0.68823 0.41712 0.0
H406 H 0.98452 0.63119 0.57444 0.0
C407 C 0.01565 0.72 0.4623 0.0
H408 H 0.02216 0.63144 0.42636 0.0
C409 C 0.99362 0.71986 0.54609 0.0
C410 C 0.98263 0.68793 0.58871 0.0
H411 H 0.02459 0.74492 0.43241 0.0
H412 H 0.98543 0.74469 0.57819 0.0
C413 C 0.99321 0.65617 0.54431 0.0
C414 C 0.28909 0.99327 0.79589 0.0
C415 C 0.32097 0.98255 0.83938 0.0
H416 H 0.26414 0.02429 0.68212 0.0
C417 C 0.35278 0.99387 0.79676 0.0
H418 H 0.26423 0.98454 0.82668 0.0
C419 C 0.35273 0.0152 0.71168 0.0
C420 C 0.32087 0.02643 0.66918 0.0
H421 H 0.37773 0.98546 0.82765 0.0
H422 H 0.37765 0.02368 0.68068 0.0
C423 C 0.28904 0.01564 0.71282 0.0
C424 C 0.09695 0.48612 0.24611 0.0
C425 C 0.1289 0.46764 0.24074 0.0
H426 H 0.07195 0.53648 0.26315 0.0
C427 C 0.1607 0.4863 0.24762 0.0
H428 H 0.07213 0.47219 0.24191 0.0
C429 C 0.1606 0.52285 0.25855 0.0
C430 C 0.12869 0.54133 0.26501 0.0
H431 H 0.18565 0.47257 0.24385 0.0
H432 H 0.18547 0.53671 0.2626 0.0
C433 C 0.09685 0.52269 0.25927 0.0
C434 C 0.52265 0.16117 0.49862 0.0
C435 C 0.5412 0.12931 0.4919 0.0
H436 H 0.47233 0.18609 0.51378 0.0
C437 C 0.52265 0.09741 0.49773 0.0
H438 H 0.53644 0.18608 0.49452 0.0
C439 C 0.4861 0.09742 0.51119 0.0
C440 C 0.46755 0.12932 0.51679 0.0
H441 H 0.5365 0.07255 0.49367 0.0
H442 H 0.47224 0.07255 0.51542 0.0
C443 C 0.48611 0.16118 0.50986 0.0
C444 C 0.91209 0.52275 0.74648 0.0
C445 C 0.88024 0.54143 0.74224 0.0
H446 H 0.93684 0.47223 0.76265 0.0
C447 C 0.84835 0.52298 0.75008 0.0
H448 H 0.93698 0.53654 0.74153 0.0
C449 C 0.84826 0.48642 0.76089 0.0
C450 C 0.88007 0.46774 0.76635 0.0
H451 H 0.82348 0.53687 0.74726 0.0
H452 H 0.82333 0.4727 0.76572 0.0
C453 C 0.91201 0.48619 0.75956 0.0
C454 C 0.52283 0.84757 0.01014 0.0
C455 C 0.54142 0.87942 0.01704 0.0
H456 H 0.47248 0.8227 0.99483 0.0
C457 C 0.52289 0.91133 0.01135 0.0
H458 H 0.53659 0.82265 0.01414 0.0
C459 C 0.48634 0.91136 0.99786 0.0
C460 C 0.46776 0.87947 0.9921 0.0
H461 H 0.53677 0.93619 0.01556 0.0
H462 H 0.47251 0.93624 0.99374 0.0
C463 C 0.48629 0.8476 0.99889 0.0
loop_
_geom_bond_atom_site_label_1
_geom_bond_atom_site_label_2
_geom_bond_distance
_geom_bond_site_symmetry_2
_ccdc_geom_bond_type
Co0 N4 2.148 . S
Co0 N10 2.128 . S
Co0 N20 2.194 . S
Co0 O25 2.351 . S
Co0 O26 2.155 . S
Co0 O27 2.096 . S
C1 N4 1.301 . S
C1 N5 1.328 . S
C1 H6 0.930 . S
C2 C3 1.333 . S
C2 N4 1.317 . S
C2 H7 0.930 . S
C3 C2 1.333 . S
C3 N5 1.350 . S
C3 H29 0.931 . S
N4 Co0 2.148 . S
N4 C1 1.301 . S
N4 C2 1.317 . S
N5 C1 1.328 . S
N5 C3 1.350 . S
H6 C1 0.930 . S
H7 C2 0.930 . S
C8 O9 1.224 . S
C8 O27 1.247 . S
O9 C8 1.224 . S
N10 Co0 2.128 . S
N10 C11 1.355 . S
N10 C13 1.311 1_554 S
C11 N10 1.355 . S
C11 C12 1.363 1_554 S
C11 H23 0.929 . S
C12 C11 1.363 1_556 S
C12 N14 1.375 . S
C12 H30 0.931 . S
C13 N10 1.311 1_556 S
C13 N14 1.347 . S
C13 H24 0.929 . S
N14 C12 1.375 . S
N14 C13 1.347 . S
C15 C18 1.365 . S
C15 N20 1.328 . S
C15 H21 0.929 . S
C16 C17 1.362 . S
C16 C19 1.378 . S
C16 H31 0.929 . S
C17 C16 1.362 . S
C17 C18 1.366 . S
C18 C15 1.365 . S
C18 C17 1.366 . S
C18 H32 0.930 . S
C19 C16 1.378 . S
C19 N20 1.315 . S
C19 H22 0.930 . S
N20 Co0 2.194 . S
N20 C15 1.328 . S
N20 C19 1.315 . S
H21 C15 0.929 . S
H22 C19 0.930 . S
H23 C11 0.929 . S
H24 C13 0.929 . S
O25 Co0 2.351 . S
O25 C28 1.244 . S
O26 Co0 2.155 . S
O26 C28 1.240 . S
O27 Co0 2.096 . S
O27 C8 1.247 . S
C28 O25 1.244 . S
C28 O26 1.240 . S
H29 C3 0.931 . S
H30 C12 0.931 . S
H31 C16 0.929 . S
H32 C18 0.930 . S
Co33 N37 2.148 . S
Co33 N43 2.128 . S
Co33 N53 2.194 . S
Co33 O58 2.351 . S
Co33 O59 2.155 . S
Co33 O60 2.096 . S
C34 N37 1.301 . S
C34 N38 1.328 . S
C34 H39 0.930 . S
C35 C36 1.333 . S
C35 N37 1.317 . S
C35 H40 0.930 . S
C36 C35 1.333 . S
C36 N38 1.350 . S
C36 H62 0.931 . S
N37 Co33 2.148 . S
N37 C34 1.301 . S
N37 C35 1.317 . S
N38 C34 1.328 . S
N38 C36 1.350 . S
H39 C34 0.930 . S
H40 C35 0.930 . S
C41 O42 1.224 . S
C41 O60 1.247 . S
O42 C41 1.224 . S
N43 Co33 2.128 . S
N43 C44 1.355 . S
N43 C46 1.311 . S
C44 N43 1.355 . S
C44 C45 1.363 . S
C44 H56 0.929 . S
C45 C44 1.363 . S
C45 N47 1.375 . S
C45 H63 0.931 . S
C46 N43 1.311 . S
C46 N47 1.347 . S
C46 H57 0.929 . S
N47 C45 1.375 . S
N47 C46 1.347 . S
C48 C51 1.365 . S
C48 N53 1.328 . S
C48 H54 0.929 . S
C49 C50 1.362 . S
C49 C52 1.378 . S
C49 H64 0.929 . S
C50 C49 1.362 . S
C50 C51 1.366 . S
C51 C48 1.365 . S
C51 C50 1.366 . S
C51 H65 0.930 . S
C52 C49 1.378 . S
C52 N53 1.315 . S
C52 H55 0.930 . S
N53 Co33 2.194 . S
N53 C48 1.328 . S
N53 C52 1.315 . S
H54 C48 0.929 . S
H55 C52 0.930 . S
H56 C44 0.929 . S
H57 C46 0.929 . S
O58 Co33 2.351 . S
O58 C61 1.244 . S
O59 Co33 2.155 . S
O59 C61 1.240 . S
O60 Co33 2.096 . S
O60 C41 1.247 . S
C61 O58 1.244 . S
C61 O59 1.240 . S
H62 C36 0.931 . S
H63 C45 0.931 . S
H64 C49 0.929 . S
H65 C51 0.930 . S
Co66 N70 2.148 . S
Co66 N76 2.128 . S
Co66 N86 2.194 . S
Co66 O91 2.351 . S
Co66 O92 2.155 . S
Co66 O93 2.096 . S
C67 N70 1.301 . S
C67 N71 1.328 1_556 S
C67 H72 0.930 . S
C68 C69 1.333 . S
C68 N70 1.317 . S
C68 H73 0.930 . S
C69 C68 1.333 . S
C69 N71 1.350 1_556 S
C69 H95 0.931 1_556 S
N70 Co66 2.148 . S
N70 C67 1.301 . S
N70 C68 1.317 . S
N71 C67 1.328 1_554 S
N71 C69 1.350 1_554 S
H72 C67 0.930 . S
H73 C68 0.930 . S
C74 O75 1.224 . S
C74 O93 1.247 . S
O75 C74 1.224 . S
N76 Co66 2.128 . S
N76 C77 1.355 . S
N76 C79 1.311 . S
C77 N76 1.355 . S
C77 C78 1.363 . S
C77 H89 0.929 . S
C78 C77 1.363 . S
C78 N80 1.375 . S
C78 H96 0.931 . S
C79 N76 1.311 . S
C79 N80 1.347 . S
C79 H90 0.929 . S
N80 C78 1.375 . S
N80 C79 1.347 . S
C81 C84 1.365 . S
C81 N86 1.328 . S
C81 H87 0.929 . S
C82 C83 1.362 . S
C82 C85 1.378 . S
C82 H97 0.929 . S
C83 C82 1.362 . S
C83 C84 1.366 . S
C84 C81 1.365 . S
C84 C83 1.366 . S
C84 H98 0.930 . S
C85 C82 1.378 . S
C85 N86 1.315 . S
C85 H88 0.930 . S
N86 Co66 2.194 . S
N86 C81 1.328 . S
N86 C85 1.315 . S
H87 C81 0.929 . S
H88 C85 0.930 . S
H89 C77 0.929 . S
H90 C79 0.929 . S
O91 Co66 2.351 . S
O91 C94 1.244 . S
O92 Co66 2.155 . S
O92 C94 1.240 . S
O93 Co66 2.096 . S
O93 C74 1.247 . S
C94 O91 1.244 . S
C94 O92 1.240 . S
H95 C69 0.931 1_554 S
H96 C78 0.931 . S
H97 C82 0.929 . S
H98 C84 0.930 . S
Co99 N103 2.148 1_556 S
Co99 N109 2.128 . S
Co99 N119 2.194 . S
Co99 O124 2.351 1_556 S
Co99 O125 2.155 . S
Co99 O126 2.096 . S
C100 N103 1.301 . S
C100 N104 1.328 . S
C100 H105 0.930 . S
C101 C102 1.333 . S
C101 N103 1.317 . S
C101 H106 0.930 . S
C102 C101 1.333 . S
C102 N104 1.350 . S
C102 H128 0.931 . S
N103 Co99 2.148 1_554 S
N103 C100 1.301 . S
N103 C101 1.317 . S
N104 C100 1.328 . S
N104 C102 1.350 . S
H105 C100 0.930 . S
H106 C101 0.930 . S
C107 O108 1.224 . S
C107 O126 1.247 . S
O108 C107 1.224 . S
N109 Co99 2.128 . S
N109 C110 1.355 . S
N109 C112 1.311 . S
C110 N109 1.355 . S
C110 C111 1.363 . S
C110 H122 0.929 . S
C111 C110 1.363 . S
C111 N113 1.375 . S
C111 H129 0.931 . S
C112 N109 1.311 . S
C112 N113 1.347 . S
C112 H123 0.929 . S
N113 C111 1.375 . S
N113 C112 1.347 . S
C114 C117 1.365 . S
C114 N119 1.328 1_554 S
C114 H120 0.929 . S
C115 C116 1.362 . S
C115 C118 1.378 . S
C115 H130 0.929 . S
C116 C115 1.362 . S
C116 C117 1.366 1_556 S
C117 C114 1.365 . S
C117 C116 1.366 1_554 S
C117 H131 0.930 . S
C118 C115 1.378 . S
C118 N119 1.315 . S
C118 H121 0.930 . S
N119 Co99 2.194 . S
N119 C114 1.328 1_556 S
N119 C118 1.315 . S
H120 C114 0.929 . S
H121 C118 0.930 . S
H122 C110 0.929 . S
H123 C112 0.929 . S
O124 Co99 2.351 1_554 S
O124 C127 1.244 . S
O125 Co99 2.155 . S
O125 C127 1.239 1_556 S
O126 Co99 2.096 . S
O126 C107 1.247 . S
C127 O124 1.244 . S
C127 O125 1.239 1_554 S
H128 C102 0.931 . S
H129 C111 0.931 . S
H130 C115 0.929 . S
H131 C117 0.930 . S
Co132 N136 2.148 . S
Co132 N142 2.128 . S
Co132 N152 2.194 . S
Co132 O157 2.351 . S
Co132 O158 2.155 . S
Co132 O159 2.096 . S
C133 N136 1.301 . S
C133 N137 1.328 1_554 S
C133 H138 0.930 . S
C134 C135 1.333 . S
C134 N136 1.317 . S
C134 H139 0.930 . S
C135 C134 1.333 . S
C135 N137 1.350 1_554 S
C135 H161 0.931 1_554 S
N136 Co132 2.148 . S
N136 C133 1.301 . S
N136 C134 1.317 . S
N137 C133 1.328 1_556 S
N137 C135 1.350 1_556 S
H138 C133 0.930 . S
H139 C134 0.930 . S
C140 O141 1.224 . S
C140 O159 1.247 . S
O141 C140 1.224 . S
N142 Co132 2.128 . S
N142 C143 1.355 . S
N142 C145 1.311 . S
C143 N142 1.355 . S
C143 C144 1.363 . S
C143 H155 0.929 . S
C144 C143 1.363 . S
C144 N146 1.375 . S
C144 H162 0.931 . S
C145 N142 1.311 . S
C145 N146 1.347 . S
C145 H156 0.929 . S
N146 C144 1.375 . S
N146 C145 1.347 . S
C147 C150 1.365 . S
C147 N152 1.328 . S
C147 H153 0.929 . S
C148 C149 1.362 . S
C148 C151 1.378 . S
C148 H163 0.929 . S
C149 C148 1.362 . S
C149 C150 1.366 . S
C150 C147 1.365 . S
C150 C149 1.366 . S
C150 H164 0.930 . S
C151 C148 1.378 . S
C151 N152 1.315 . S
C151 H154 0.930 . S
N152 Co132 2.194 . S
N152 C147 1.328 . S
N152 C151 1.315 . S
H153 C147 0.929 . S
H154 C151 0.930 . S
H155 C143 0.929 . S
H156 C145 0.929 . S
O157 Co132 2.351 . S
O157 C160 1.244 . S
O158 Co132 2.155 . S
O158 C160 1.240 . S
O159 Co132 2.096 . S
O159 C140 1.247 . S
C160 O157 1.244 . S
C160 O158 1.240 . S
H161 C135 0.931 1_556 S
H162 C144 0.931 . S
H163 C148 0.929 . S
H164 C150 0.930 . S
Co165 N169 2.148 . S
Co165 N175 2.128 . S
Co165 N185 2.194 . S
Co165 O190 2.351 . S
Co165 O191 2.155 . S
Co165 O192 2.096 . S
C166 N169 1.301 . S
C166 N170 1.328 . S
C166 H171 0.930 . S
C167 C168 1.333 . S
C167 N169 1.317 . S
C167 H172 0.930 . S
C168 C167 1.333 . S
C168 N170 1.350 . S
C168 H194 0.931 . S
N169 Co165 2.148 . S
N169 C166 1.301 . S
N169 C167 1.317 . S
N170 C166 1.328 . S
N170 C168 1.350 . S
H171 C166 0.930 . S
H172 C167 0.930 . S
C173 O174 1.224 . S
C173 O192 1.247 . S
O174 C173 1.224 . S
N175 Co165 2.128 . S
N175 C176 1.355 . S
N175 C178 1.311 . S
C176 N175 1.355 . S
C176 C177 1.363 . S
C176 H188 0.929 . S
C177 C176 1.363 . S
C177 N179 1.375 . S
C177 H195 0.931 . S
C178 N175 1.311 . S
C178 N179 1.347 . S
C178 H189 0.929 . S
N179 C177 1.375 . S
N179 C178 1.347 . S
C180 C183 1.365 . S
C180 N185 1.328 . S
C180 H186 0.929 . S
C181 C182 1.362 . S
C181 C184 1.378 . S
C181 H196 0.929 . S
C182 C181 1.362 . S
C182 C183 1.366 . S
C183 C180 1.365 . S
C183 C182 1.366 . S
C183 H197 0.930 . S
C184 C181 1.378 . S
C184 N185 1.315 . S
C184 H187 0.930 . S
N185 Co165 2.194 . S
N185 C180 1.328 . S
N185 C184 1.315 . S
H186 C180 0.929 . S
H187 C184 0.930 . S
H188 C176 0.929 . S
H189 C178 0.929 . S
O190 Co165 2.351 . S
O190 C193 1.244 . S
O191 Co165 2.155 . S
O191 C193 1.240 . S
O192 Co165 2.096 . S
O192 C173 1.247 . S
C193 O190 1.244 . S
C193 O191 1.240 . S
H194 C168 0.931 . S
H195 C177 0.931 . S
H196 C181 0.929 . S
H197 C183 0.930 . S
Co198 N202 2.148 . S
Co198 N208 2.128 . S
Co198 N218 2.194 . S
Co198 O223 2.351 . S
Co198 O224 2.155 . S
Co198 O225 2.096 . S
C199 N202 1.301 . S
C199 N203 1.328 . S
C199 H204 0.930 . S
C200 C201 1.333 . S
C200 N202 1.317 . S
C200 H205 0.930 . S
C201 C200 1.333 . S
C201 N203 1.350 . S
C201 H227 0.931 . S
N202 Co198 2.148 . S
N202 C199 1.301 . S
N202 C200 1.317 . S
N203 C199 1.328 . S
N203 C201 1.350 . S
H204 C199 0.930 . S
H205 C200 0.930 . S
C206 O207 1.224 . S
C206 O225 1.247 . S
O207 C206 1.224 . S
N208 Co198 2.128 . S
N208 C209 1.355 . S
N208 C211 1.311 1_556 S
C209 N208 1.355 . S
C209 C210 1.363 1_556 S
C209 H221 0.929 . S
C210 C209 1.363 1_554 S
C210 N212 1.375 . S
C210 H228 0.931 . S
C211 N208 1.311 1_554 S
C211 N212 1.347 . S
C211 H222 0.929 . S
N212 C210 1.375 . S
N212 C211 1.347 . S
C213 C216 1.365 . S
C213 N218 1.328 . S
C213 H219 0.929 . S
C214 C215 1.362 . S
C214 C217 1.378 . S
C214 H229 0.929 . S
C215 C214 1.362 . S
C215 C216 1.366 . S
C216 C213 1.365 . S
C216 C215 1.366 . S
C216 H230 0.930 . S
C217 C214 1.378 . S
C217 N218 1.315 . S
C217 H220 0.930 . S
N218 Co198 2.194 . S
N218 C213 1.328 . S
N218 C217 1.315 . S
H219 C213 0.929 . S
H220 C217 0.930 . S
H221 C209 0.929 . S
H222 C211 0.929 . S
O223 Co198 2.351 . S
O223 C226 1.244 . S
O224 Co198 2.155 . S
O224 C226 1.240 . S
O225 Co198 2.096 . S
O225 C206 1.247 . S
C226 O223 1.244 . S
C226 O224 1.240 . S
H227 C201 0.931 . S
H228 C210 0.931 . S
H229 C214 0.929 . S
H230 C216 0.930 . S
Co231 N235 2.148 1_554 S
Co231 N241 2.128 . S
Co231 N251 2.194 . S
Co231 O256 2.351 1_554 S
Co231 O257 2.155 . S
Co231 O258 2.096 . S
C232 N235 1.301 . S
C232 N236 1.328 . S
C232 H237 0.930 . S
C233 C234 1.333 . S
C233 N235 1.317 . S
C233 H238 0.930 . S
C234 C233 1.333 . S
C234 N236 1.350 . S
C234 H260 0.931 . S
N235 Co231 2.148 1_556 S
N235 C232 1.301 . S
N235 C233 1.317 . S
N236 C232 1.328 . S
N236 C234 1.350 . S
H237 C232 0.930 . S
H238 C233 0.930 . S
C239 O240 1.224 . S
C239 O258 1.247 . S
O240 C239 1.224 . S
N241 Co231 2.128 . S
N241 C242 1.355 . S
N241 C244 1.311 . S
C242 N241 1.355 . S
C242 C243 1.363 . S
C242 H254 0.929 . S
C243 C242 1.363 . S
C243 N245 1.375 . S
C243 H261 0.931 . S
C244 N241 1.311 . S
C244 N245 1.347 . S
C244 H255 0.929 . S
N245 C243 1.375 . S
N245 C244 1.347 . S
C246 C249 1.365 . S
C246 N251 1.328 1_556 S
C246 H252 0.929 . S
C247 C248 1.362 . S
C247 C250 1.378 . S
C247 H262 0.929 . S
C248 C247 1.362 . S
C248 C249 1.366 1_554 S
C249 C246 1.365 . S
C249 C248 1.366 1_556 S
C249 H263 0.930 . S
C250 C247 1.378 . S
C250 N251 1.315 . S
C250 H253 0.930 . S
N251 Co231 2.194 . S
N251 C246 1.328 1_554 S
N251 C250 1.315 . S
H252 C246 0.929 . S
H253 C250 0.930 . S
H254 C242 0.929 . S
H255 C244 0.929 . S
O256 Co231 2.351 1_556 S
O256 C259 1.244 . S
O257 Co231 2.155 . S
O257 C259 1.239 1_554 S
O258 Co231 2.096 . S
O258 C239 1.247 . S
C259 O256 1.244 . S
C259 O257 1.239 1_556 S
H260 C234 0.931 . S
H261 C243 0.931 . S
H262 C247 0.929 . S
H263 C249 0.930 . S
C264 C265 1.387 . S
C264 H268 0.950 . S
C264 C273 1.390 . S
C265 C264 1.387 . S
C265 C267 1.387 . S
H266 C273 0.950 . S
C267 C265 1.387 . S
C267 C269 1.390 . S
C267 H271 0.950 . S
H268 C264 0.950 . S
C269 C267 1.390 . S
C269 C270 1.387 . S
C269 H272 0.950 . S
C270 C269 1.387 . S
C270 C273 1.387 . S
H271 C267 0.950 . S
H272 C269 0.950 . S
C273 C264 1.390 . S
C273 H266 0.950 . S
C273 C270 1.387 . S
C274 C275 1.387 . S
C274 H278 0.950 . S
C274 C283 1.390 . S
C275 C274 1.387 . S
C275 C277 1.387 . S
H276 C283 0.950 . S
C277 C275 1.387 . S
C277 C279 1.390 . S
C277 H281 0.950 . S
H278 C274 0.950 . S
C279 C277 1.390 . S
C279 C280 1.387 . S
C279 H282 0.950 . S
C280 C279 1.387 . S
C280 C283 1.387 . S
H281 C277 0.950 . S
H282 C279 0.950 . S
C283 C274 1.390 . S
C283 H276 0.950 . S
C283 C280 1.387 . S
C284 C285 1.387 . S
C284 H288 0.950 . S
C284 C293 1.390 . S
C285 C284 1.387 . S
C285 C287 1.387 . S
H286 C293 0.950 . S
C287 C285 1.387 . S
C287 C289 1.390 . S
C287 H291 0.950 . S
H288 C284 0.950 . S
C289 C287 1.390 . S
C289 C290 1.387 . S
C289 H292 0.950 . S
C290 C289 1.387 . S
C290 C293 1.387 . S
H291 C287 0.950 . S
H292 C289 0.950 . S
C293 C284 1.390 . S
C293 H286 0.950 . S
C293 C290 1.387 . S
C294 C295 1.387 . S
C294 H298 0.950 . S
C294 C303 1.390 . S
C295 C294 1.387 . S
C295 C297 1.387 . S
H296 C303 0.950 . S
C297 C295 1.387 . S
C297 C299 1.390 . S
C297 H301 0.950 . S
H298 C294 0.950 . S
C299 C297 1.390 . S
C299 C300 1.387 . S
C299 H302 0.950 1_554 S
C300 C299 1.387 . S
C300 C303 1.387 . S
H301 C297 0.950 . S
H302 C299 0.950 1_556 S
C303 C294 1.390 . S
C303 H296 0.950 . S
C303 C300 1.387 . S
C304 C305 1.387 . S
C304 H308 0.950 . S
C304 C313 1.390 . S
C305 C304 1.387 . S
C305 C307 1.387 . S
H306 C313 0.950 . S
C307 C305 1.387 . S
C307 C309 1.390 . S
C307 H311 0.950 . S
H308 C304 0.950 . S
C309 C307 1.390 . S
C309 C310 1.387 . S
C309 H312 0.950 . S
C310 C309 1.387 . S
C310 C313 1.387 . S
H311 C307 0.950 . S
H312 C309 0.950 . S
C313 C304 1.390 . S
C313 H306 0.950 . S
C313 C310 1.387 . S
C314 C315 1.387 1_556 S
C314 H318 0.950 1_556 S
C314 C323 1.390 . S
C315 C314 1.387 1_554 S
C315 C317 1.390 . S
H316 C323 0.950 . S
C317 C315 1.390 . S
C317 C319 1.386 1_554 S
C317 H321 0.952 . S
H318 C314 0.950 1_554 S
C319 C317 1.386 1_556 S
C319 C320 1.387 . S
C319 H322 0.950 . S
C320 C319 1.387 . S
C320 C323 1.387 . S
H321 C317 0.952 . S
H322 C319 0.950 . S
C323 C314 1.390 . S
C323 H316 0.950 . S
C323 C320 1.387 . S
C324 C325 1.387 . S
C324 H328 0.950 . S
C324 C333 1.390 . S
C325 C324 1.387 . S
C325 C327 1.387 . S
H326 C333 0.950 . S
C327 C325 1.387 . S
C327 C329 1.390 . S
C327 H331 0.950 . S
H328 C324 0.950 . S
C329 C327 1.390 . S
C329 C330 1.387 . S
C329 H332 0.950 . S
C330 C329 1.387 . S
C330 C333 1.387 . S
H331 C327 0.950 . S
H332 C329 0.950 . S
C333 C324 1.390 . S
C333 H326 0.950 . S
C333 C330 1.387 . S
C334 C335 1.387 . S
C334 H338 0.950 . S
C334 C343 1.390 . S
C335 C334 1.387 . S
C335 C337 1.387 . S
H336 C343 0.950 . S
C337 C335 1.387 . S
C337 C339 1.390 . S
C337 H341 0.950 . S
H338 C334 0.950 . S
C339 C337 1.390 . S
C339 C340 1.387 . S
C339 H342 0.950 . S
C340 C339 1.387 . S
C340 C343 1.387 . S
H341 C337 0.950 . S
H342 C339 0.950 . S
C343 C334 1.390 . S
C343 H336 0.950 . S
C343 C340 1.387 . S
C344 C345 1.387 . S
C344 H348 0.950 . S
C344 C353 1.390 . S
C345 C344 1.387 . S
C345 C347 1.387 . S
H346 C353 0.950 . S
C347 C345 1.387 . S
C347 C349 1.390 . S
C347 H351 0.950 . S
H348 C344 0.950 . S
C349 C347 1.390 . S
C349 C350 1.387 . S
C349 H352 0.950 . S
C350 C349 1.387 . S
C350 C353 1.387 . S
H351 C347 0.950 . S
H352 C349 0.950 . S
C353 C344 1.390 . S
C353 H346 0.950 . S
C353 C350 1.387 . S
C354 C355 1.387 . S
C354 H358 0.950 . S
C354 C363 1.390 . S
C355 C354 1.387 . S
C355 C357 1.387 . S
H356 C363 0.950 1_556 S
C357 C355 1.387 . S
C357 C359 1.390 1_554 S
C357 H361 0.950 . S
H358 C354 0.950 . S
C359 C357 1.390 1_556 S
C359 C360 1.387 . S
C359 H362 0.950 . S
C360 C359 1.387 . S
C360 C363 1.387 1_556 S
H361 C357 0.950 . S
H362 C359 0.950 . S
C363 C354 1.390 . S
C363 H356 0.950 1_554 S
C363 C360 1.387 1_554 S
C364 C365 1.387 . S
C364 H368 0.950 . S
C364 C373 1.390 . S
C365 C364 1.387 . S
C365 C367 1.387 . S
H366 C373 0.950 . S
C367 C365 1.387 . S
C367 C369 1.390 . S
C367 H371 0.950 . S
H368 C364 0.950 . S
C369 C367 1.390 . S
C369 C370 1.387 . S
C369 H372 0.950 . S
C370 C369 1.387 . S
C370 C373 1.387 . S
H371 C367 0.950 . S
H372 C369 0.950 . S
C373 C364 1.390 . S
C373 H366 0.950 . S
C373 C370 1.387 . S
C374 C375 1.387 . S
C374 H378 0.950 . S
C374 C383 1.390 . S
C375 C374 1.387 . S
C375 C377 1.387 . S
H376 C383 0.950 . S
C377 C375 1.387 . S
C377 C379 1.390 . S
C377 H381 0.950 . S
H378 C374 0.950 . S
C379 C377 1.390 . S
C379 C380 1.387 . S
C379 H382 0.950 . S
C380 C379 1.387 . S
C380 C383 1.387 . S
H381 C377 0.950 . S
H382 C379 0.950 . S
C383 C374 1.390 . S
C383 H376 0.950 . S
C383 C380 1.387 . S
C384 C385 1.387 . S
C384 H388 0.950 . S
C384 C393 1.390 1_454 S
C385 C384 1.387 . S
C385 C387 1.387 . S
H386 C393 0.950 . S
C387 C385 1.387 . S
C387 C389 1.390 1_454 S
C387 H391 0.950 . S
H388 C384 0.950 . S
C389 C387 1.390 1_656 S
C389 C390 1.387 . S
C389 H392 0.950 . S
C390 C389 1.387 . S
C390 C393 1.387 . S
H391 C387 0.950 . S
H392 C389 0.950 . S
C393 C384 1.390 1_656 S
C393 H386 0.950 . S
C393 C390 1.387 . S
C394 C395 1.387 . S
C394 H398 0.950 . S
C394 C403 1.390 1_565 S
C395 C394 1.387 . S
C395 C397 1.387 . S
H396 C403 0.950 . S
C397 C395 1.387 . S
C397 C399 1.390 1_565 S
C397 H401 0.950 . S
H398 C394 0.950 . S
C399 C397 1.390 1_545 S
C399 C400 1.387 . S
C399 H402 0.950 . S
C400 C399 1.387 . S
C400 C403 1.387 . S
H401 C397 0.950 . S
H402 C399 0.950 . S
C403 C394 1.390 1_545 S
C403 H396 0.950 . S
C403 C400 1.387 . S
C404 C405 1.387 . S
C404 H408 0.950 . S
C404 C413 1.390 1_455 S
C405 C404 1.387 . S
C405 C407 1.387 . S
H406 C413 0.950 . S
C407 C405 1.387 . S
C407 C409 1.390 1_455 S
C407 H411 0.950 . S
H408 C404 0.950 . S
C409 C407 1.390 1_655 S
C409 C410 1.387 . S
C409 H412 0.950 . S
C410 C409 1.387 . S
C410 C413 1.387 . S
H411 C407 0.950 . S
H412 C409 0.950 . S
C413 C404 1.390 1_655 S
C413 H406 0.950 . S
C413 C410 1.387 . S
C414 C415 1.387 . S
C414 H418 0.950 . S
C414 C423 1.390 1_565 S
C415 C414 1.387 . S
C415 C417 1.387 . S
H416 C423 0.950 . S
C417 C415 1.387 . S
C417 C419 1.390 1_565 S
C417 H421 0.950 . S
H418 C414 0.950 . S
C419 C417 1.390 1_545 S
C419 C420 1.387 . S
C419 H422 0.950 . S
C420 C419 1.387 . S
C420 C423 1.387 . S
H421 C417 0.950 . S
H422 C419 0.950 . S
C423 C414 1.390 1_545 S
C423 H416 0.950 . S
C423 C420 1.387 . S
C424 C425 1.387 . S
C424 H428 0.950 . S
C424 C433 1.390 . S
C425 C424 1.387 . S
C425 C427 1.387 . S
H426 C433 0.950 . S
C427 C425 1.387 . S
C427 C429 1.390 . S
C427 H431 0.950 . S
H428 C424 0.950 . S
C429 C427 1.390 . S
C429 C430 1.387 . S
C429 H432 0.950 . S
C430 C429 1.387 . S
C430 C433 1.387 . S
H431 C427 0.950 . S
H432 C429 0.950 . S
C433 C424 1.390 . S
C433 H426 0.950 . S
C433 C430 1.387 . S
C434 C435 1.387 . S
C434 H438 0.950 . S
C434 C443 1.390 . S
C435 C434 1.387 . S
C435 C437 1.387 . S
H436 C443 0.950 . S
C437 C435 1.387 . S
C437 C439 1.390 . S
C437 H441 0.950 . S
H438 C434 0.950 . S
C439 C437 1.390 . S
C439 C440 1.387 . S
C439 H442 0.950 . S
C440 C439 1.387 . S
C440 C443 1.387 . S
H441 C437 0.950 . S
H442 C439 0.950 . S
C443 C434 1.390 . S
C443 H436 0.950 . S
C443 C440 1.387 . S
C444 C445 1.387 . S
C444 H448 0.950 . S
C444 C453 1.390 . S
C445 C444 1.387 . S
C445 C447 1.387 . S
H446 C453 0.950 . S
C447 C445 1.387 . S
C447 C449 1.390 . S
C447 H451 0.950 . S
H448 C444 0.950 . S
C449 C447 1.390 . S
C449 C450 1.387 . S
C449 H452 0.950 . S
C450 C449 1.387 . S
C450 C453 1.387 . S
H451 C447 0.950 . S
H452 C449 0.950 . S
C453 C444 1.390 . S
C453 H446 0.950 . S
C453 C450 1.387 . S
C454 C455 1.387 . S
C454 H458 0.950 . S
C454 C463 1.390 1_554 S
C455 C454 1.387 . S
C455 C457 1.387 . S
H456 C463 0.950 . S
C457 C455 1.387 . S
C457 C459 1.390 1_554 S
C457 H461 0.950 . S
H458 C454 0.950 . S
C459 C457 1.390 1_556 S
C459 C460 1.387 . S
C459 H462 0.950 . S
C460 C459 1.387 . S
C460 C463 1.387 . S
H461 C457 0.950 . S
H462 C459 0.950 . S
C463 C454 1.390 1_556 S
C463 H456 0.950 . S
C463 C460 1.387 . S
C265 C193 1.359 . S
C270 C28 1.359 . S
C275 C226 1.360 . S
C280 C61 1.359 . S
C285 C94 1.360 . S
C290 C259 1.361 . S
C295 C160 1.359 . S
C300 C127 1.361 . S
C305 N5 1.335 . S
C310 N14 1.335 . S
C315 N47 1.334 . S
C320 N38 1.334 . S
C325 N71 1.334 . S
C330 N80 1.334 . S
C335 N104 1.334 . S
C340 N113 1.334 . S
C345 N137 1.335 . S
C350 N146 1.335 . S
C355 N170 1.334 . S
C360 N179 1.334 . S
C365 N203 1.335 . S
C370 N212 1.335 . S
C375 N245 1.334 . S
C380 N236 1.334 . S
C385 C8 1.450 . S
C390 C206 1.450 . S
C395 C239 1.450 . S
C400 C41 1.450 . S
C405 C140 1.450 . S
C410 C74 1.451 . S
C415 C107 1.448 . S
C420 C173 1.448 . S
C425 C17 1.572 . S
C430 C149 1.572 . S
C435 C50 1.571 . S
C440 C182 1.571 . S
C445 C83 1.572 . S
C450 C215 1.572 . S
C455 C248 1.571 . S
C460 C116 1.571 . S
