# Generated by pormake.
# Topology zfu, (5)-cn, num edge types: 1
# Building blocks:
#     Node 0, Type 0, BuildingBlock: BEQFEK_clean_sbu_0, # of connection points: 5
#     Node 1, Type 0, BuildingBlock: BEQFEK_clean_sbu_0, # of connection points: 5
#     Node 2, Type 0, BuildingBlock: BEQFEK_clean_sbu_0, # of connection points: 5
#     Node 3, Type 0, BuildingBlock: BEQFEK_clean_sbu_0, # of connection points: 5
#     Node 4, Type 0, BuildingBlock: BEQFEK_clean_sbu_0, # of connection points: 5
#     Node 5, Type 0, BuildingBlock: BEQFEK_clean_sbu_0, # of connection points: 5
#     Node 6, Type 0, BuildingBlock: BEQFEK_clean_sbu_0, # of connection points: 5
#     Node 7, Type 0, BuildingBlock: BEQFEK_clean_sbu_0, # of connection points: 5
#     Edge 8, Type (0, 0), BuildingBlock: XUDNAN_clean_linker_2, # of connection points: 2
#     Edge 9, Type (0, 0), BuildingBlock: XUDNAN_clean_linker_2, # of connection points: 2
#     Edge 10, Type (0, 0), BuildingBlock: XUDNAN_clean_linker_2, # of connection points: 2
#     Edge 11, Type (0, 0), BuildingBlock: XUDNAN_clean_linker_2, # of connection points: 2
#     Edge 12, Type (0, 0), BuildingBlock: XUDNAN_clean_linker_2, # of connection points: 2
#     Edge 13, Type (0, 0), BuildingBlock: XUDNAN_clean_linker_2, # of connection points: 2
#     Edge 14, Type (0, 0), BuildingBlock: XUDNAN_clean_linker_2, # of connection points: 2
#     Edge 15, Type (0, 0), BuildingBlock: XUDNAN_clean_linker_2, # of connection points: 2
#     Edge 16, Type (0, 0), BuildingBlock: XUDNAN_clean_linker_2, # of connection points: 2
#     Edge 17, Type (0, 0), BuildingBlock: XUDNAN_clean_linker_2, # of connection points: 2
#     Edge 18, Type (0, 0), BuildingBlock: XUDNAN_clean_linker_2, # of connection points: 2
#     Edge 19, Type (0, 0), BuildingBlock: XUDNAN_clean_linker_2, # of connection points: 2
#     Edge 20, Type (0, 0), BuildingBlock: XUDNAN_clean_linker_2, # of connection points: 2
#     Edge 21, Type (0, 0), BuildingBlock: XUDNAN_clean_linker_2, # of connection points: 2
#     Edge 22, Type (0, 0), BuildingBlock: XUDNAN_clean_linker_2, # of connection points: 2
#     Edge 23, Type (0, 0), BuildingBlock: XUDNAN_clean_linker_2, # of connection points: 2
#     Edge 24, Type (0, 0), BuildingBlock: XUDNAN_clean_linker_2, # of connection points: 2
#     Edge 25, Type (0, 0), BuildingBlock: XUDNAN_clean_linker_2, # of connection points: 2
#     Edge 26, Type (0, 0), BuildingBlock: XUDNAN_clean_linker_2, # of connection points: 2
#     Edge 27, Type (0, 0), BuildingBlock: XUDNAN_clean_linker_2, # of connection points: 2
# Relax obj value: 0.066
# Max RMSD: 0.102
# Mean RMSD: 0.102
data_MOF--net-zfu--node1-BEQFEK_clean_sbu_0--edge1-XUDNAN_clean_linker_2
_symmetry_space_group_name_H-M    P1
_symmetry_Int_Tables_number       1
_symmetry_cell_setting            triclinic
loop_
_symmetry_equiv_pos_as_xyz
'x, y, z'
_cell_length_a     41.408608
_cell_length_b     41.407822
_cell_length_c     26.679285
_cell_angle_alpha  90.054685
_cell_angle_beta   90.006817
_cell_angle_gamma 89.776436
loop_
_atom_site_label
_atom_site_type_symbol
_atom_site_fract_x
_atom_site_fract_y
_atom_site_fract_z
_atom_type_partial_charge
Co0 Co 0.44649 0.70608 0.07714 0.0
Co1 Co 0.40362 0.76629 0.05085 0.0
C2 C 0.47091 0.7748 0.08662 0.0
O3 O 0.47396 0.74425 0.08905 0.0
O4 O 0.44458 0.78771 0.07186 0.0
C5 C 0.49757 0.66281 0.05029 0.0
O6 O 0.50021 0.68214 0.0115 0.0
C7 C 0.37951 0.82546 1.00067 0.0
C8 C 0.32723 0.81519 0.99786 0.0
C9 C 0.35032 0.83717 0.98257 0.0
N10 N 0.37386 0.79768 0.02534 0.0
N11 N 0.34247 0.79209 0.02433 0.0
C12 C 0.4125 0.83832 0.98989 0.0
H13 H 0.42972 0.81806 0.98397 0.0
H14 H 0.41232 0.85436 0.95658 0.0
H15 H 0.42089 0.85238 0.0228 0.0
C16 C 0.42135 0.68413 0.97969 0.0
N17 N 0.4256 0.70722 0.01449 0.0
N18 N 0.41078 0.73379 1.00033 0.0
C19 C 0.3987 0.72916 0.95377 0.0
C20 C 0.4047 0.69727 0.93904 0.0
C21 C 0.42811 0.6491 0.98957 0.0
H22 H 0.42821 0.6443 0.03046 0.0
H23 H 0.45211 0.64251 0.97416 0.0
H24 H 0.40958 0.6336 0.97167 0.0
O25 O 0.41387 0.70394 0.12942 0.0
O26 O 0.38246 0.74609 0.11192 0.0
H27 H 0.35707 0.75678 0.93292 0.0
H28 H 0.38574 0.75053 0.88265 0.0
C29 C 0.38311 0.75526 0.92338 0.0
H30 H 0.39452 0.77875 0.93183 0.0
H31 H 0.33167 0.7716 0.03957 0.0
O32 O 0.47568 0.66814 0.0827 0.0
C33 C 0.38937 0.72151 0.13895 0.0
Co34 Co 0.8032 0.94943 0.31292 0.0
Co35 Co 0.74009 0.90793 0.31267 0.0
C36 C 0.73894 0.98099 0.31598 0.0
O37 O 0.76938 0.98248 0.31084 0.0
O38 O 0.72445 0.95397 0.31916 0.0
C39 C 0.85168 0.99535 0.28126 0.0
O40 O 0.83189 1.0018 0.24407 0.0
C41 C 0.67896 0.88842 0.26685 0.0
C42 C 0.66998 0.84092 0.30157 0.0
C43 C 0.65752 0.86263 0.26692 0.0
N44 N 0.70282 0.88208 0.29967 0.0
N45 N 0.69715 0.85379 0.32068 0.0
C46 C 0.6789 0.91719 0.23296 0.0
H47 H 0.70365 0.92714 0.22944 0.0
H48 H 0.66957 0.91067 0.1953 0.0
H49 H 0.66309 0.93619 0.24921 0.0
C50 C 0.81767 0.90941 0.22326 0.0
N51 N 0.79796 0.91932 0.26045 0.0
N52 N 0.77138 0.90193 0.25991 0.0
C53 C 0.77356 0.88016 0.22231 0.0
C54 C 0.80288 0.88429 0.19774 0.0
C55 C 0.85126 0.92164 0.21551 0.0
H56 H 0.86305 0.92587 0.25224 0.0
H57 H 0.85011 0.94495 0.19512 0.0
H58 H 0.86605 0.9044 0.19333 0.0
O59 O 0.80165 0.92731 0.37841 0.0
O60 O 0.75947 0.89423 0.37807 0.0
H61 H 0.74332 0.84092 0.24462 0.0
H62 H 0.75554 0.83935 0.1795 0.0
C63 C 0.74828 0.85552 0.21068 0.0
H64 H 0.72569 0.86801 0.19966 0.0
H65 H 0.71219 0.84297 0.34723 0.0
O66 O 0.84478 0.97292 0.31187 0.0
C67 C 0.78433 0.90593 0.39951 0.0
Co68 Co 0.56233 0.3034 0.57471 0.0
Co69 Co 0.60528 0.24315 0.5481 0.0
C70 C 0.53817 0.23452 0.58411 0.0
O71 O 0.53514 0.26508 0.58643 0.0
O72 O 0.56446 0.22151 0.5693 0.0
C73 C 0.51131 0.3469 0.54792 0.0
O74 O 0.50874 0.32786 0.50872 0.0
C75 C 0.63115 0.18487 0.4963 0.0
C76 C 0.68316 0.19659 0.49567 0.0
C77 C 0.66089 0.17433 0.47847 0.0
N78 N 0.63572 0.21236 0.52243 0.0
N79 N 0.66696 0.21876 0.5227 0.0
C80 C 0.59872 0.1713 0.48375 0.0
H81 H 0.58009 0.19064 0.48426 0.0
H82 H 0.5991 0.15934 0.4465 0.0
H83 H 0.59222 0.153 0.51234 0.0
C84 C 0.58763 0.32543 0.47761 0.0
N85 N 0.58329 0.30231 0.51224 0.0
N86 N 0.59784 0.27565 0.4978 0.0
C87 C 0.60972 0.28022 0.45114 0.0
C88 C 0.604 0.3122 0.43671 0.0
C89 C 0.58122 0.36048 0.48791 0.0
H90 H 0.58112 0.36511 0.52886 0.0
H91 H 0.55728 0.36738 0.47256 0.0
H92 H 0.59991 0.37587 0.47025 0.0
O93 O 0.59471 0.30554 0.62717 0.0
O94 O 0.62619 0.26346 0.60943 0.0
H95 H 0.65067 0.25186 0.42932 0.0
H96 H 0.62172 0.25874 0.37962 0.0
C97 C 0.6246 0.25391 0.42026 0.0
H98 H 0.61277 0.23065 0.42872 0.0
H99 H 0.67702 0.23925 0.5392 0.0
O100 O 0.53307 0.34127 0.58041 0.0
C101 C 0.61917 0.28792 0.6367 0.0
Co102 Co 0.2091 0.06057 0.80878 0.0
Co103 Co 0.2706 0.10454 0.8147 0.0
C104 C 0.27396 0.03152 0.82192 0.0
O105 O 0.24388 0.02884 0.81403 0.0
O106 O 0.28746 0.05907 0.82492 0.0
C107 C 0.16796 0.00842 0.78105 0.0
O108 O 0.19529 0.9958 0.76535 0.0
C109 C 0.3321 0.12403 0.772 0.0
C110 C 0.34013 0.17232 0.80472 0.0
C111 C 0.35326 0.15 0.77152 0.0
N112 N 0.30778 0.13077 0.80376 0.0
N113 N 0.31285 0.15954 0.82364 0.0
C114 C 0.33289 0.0946 0.73939 0.0
H115 H 0.30831 0.0843 0.73548 0.0
H116 H 0.34266 0.10046 0.70176 0.0
H117 H 0.34866 0.07609 0.75697 0.0
C118 C 0.2011 0.09386 0.71221 0.0
N119 N 0.21713 0.08881 0.75535 0.0
N120 N 0.24232 0.10807 0.75754 0.0
C121 C 0.24246 0.1267 0.71589 0.0
C122 C 0.21655 0.11802 0.68583 0.0
C123 C 0.17146 0.07584 0.69679 0.0
H124 H 0.15307 0.0776 0.72691 0.0
H125 H 0.17764 0.04996 0.69169 0.0
H126 H 0.16112 0.08546 0.66141 0.0
O127 O 0.20606 0.08454 0.87256 0.0
O128 O 0.24734 0.1187 0.877 0.0
H129 H 0.27271 0.16594 0.73886 0.0
H130 H 0.25808 0.16891 0.67512 0.0
C131 C 0.26696 0.1521 0.70446 0.0
H132 H 0.28935 0.1404 0.69056 0.0
H133 H 0.29728 0.17079 0.84903 0.0
O134 O 0.16796 0.0367 0.79968 0.0
C135 C 0.22155 0.1067 0.89525 0.0
Co136 Co 0.94219 0.80487 0.7597 0.0
Co137 Co 0.89503 0.74578 0.75346 0.0
C138 C 0.9645 0.74101 0.72032 0.0
O139 O 0.96955 0.77051 0.73068 0.0
O140 O 0.93701 0.72825 0.72786 0.0
C141 C 1.00012 0.84193 0.77006 0.0
O142 O 0.01407 0.81388 0.76189 0.0
C143 C 0.87593 0.68297 0.79128 0.0
C144 C 0.82566 0.67791 0.76501 0.0
C145 C 0.84937 0.66258 0.79323 0.0
N146 N 0.86818 0.70895 0.76353 0.0
N147 N 0.83821 0.70565 0.74741 0.0
C148 C 0.90723 0.67975 0.81897 0.0
H149 H 0.91926 0.70354 0.82244 0.0
H150 H 0.90321 0.66941 0.85681 0.0
H151 H 0.92356 0.66341 0.79776 0.0
C152 C 0.92029 0.80474 0.86509 0.0
N153 N 0.92153 0.79138 0.81908 0.0
N154 N 0.90021 0.76798 0.8161 0.0
C155 C 0.88417 0.7662 0.86008 0.0
C156 C 0.89651 0.78927 0.89276 0.0
C157 C 0.94101 0.83235 0.8814 0.0
H158 H 0.9661 0.82849 0.86808 0.0
H159 H 0.94114 0.83498 0.92279 0.0
H160 H 0.93176 0.85497 0.86426 0.0
O161 O 0.90856 0.81752 0.71115 0.0
O162 O 0.87513 0.77586 0.70291 0.0
H163 H 0.84052 0.74426 0.83332 0.0
H164 H 0.83908 0.75638 0.89811 0.0
C165 C 0.85472 0.746 0.86839 0.0
H166 H 0.86221 0.72139 0.88003 0.0
H167 H 0.82605 0.72273 0.72564 0.0
O168 O 0.96947 0.84358 0.77185 0.0
C169 C 0.88372 0.80452 0.69154 0.0
Co170 Co 0.7036 0.44745 0.99315 0.0
Co171 Co 0.76577 0.40611 0.01513 0.0
C172 C 0.77123 0.47317 0.97711 0.0
O173 O 0.74061 0.47553 0.97687 0.0
O174 O 0.78515 0.44736 0.99163 0.0
C175 C 0.66734 0.49777 0.03169 0.0
O176 O 0.69255 0.4974 0.06159 0.0
C177 C 0.82789 0.38554 0.05884 0.0
C178 C 0.82488 0.33247 0.05221 0.0
C179 C 0.84471 0.35711 0.06917 0.0
N180 N 0.79968 0.37787 0.03685 0.0
N181 N 0.79812 0.34612 0.03282 0.0
C182 C 0.83675 0.41927 0.07344 0.0
H183 H 0.81473 0.43443 0.07734 0.0
H184 H 0.85033 0.41942 0.10931 0.0
H185 H 0.8521 0.42992 0.04371 0.0
C186 C 0.686 0.42217 0.09196 0.0
N187 N 0.70792 0.4265 0.05552 0.0
N188 N 0.7352 0.41247 0.0682 0.0
C189 C 0.7322 0.40077 0.11531 0.0
C190 C 0.70071 0.40658 0.1322 0.0
C191 C 0.65048 0.42738 0.08408 0.0
H192 H 0.6446 0.42667 0.04353 0.0
H193 H 0.64327 0.45127 0.09913 0.0
H194 H 0.63626 0.40852 0.10361 0.0
O195 O 0.69957 0.41445 0.94112 0.0
O196 O 0.7435 0.38473 0.95622 0.0
H197 H 0.76002 0.35886 0.13372 0.0
H198 H 0.75582 0.38754 0.18456 0.0
C199 C 0.75913 0.3849 0.14351 0.0
H200 H 0.78244 0.39595 0.13309 0.0
H201 H 0.7786 0.33376 0.01731 0.0
O202 O 0.66582 0.47731 0.99616 0.0
C203 C 0.71782 0.39044 0.93095 0.0
Co204 Co 0.06227 0.20629 0.26022 0.0
Co205 Co 0.11111 0.2639 0.25555 0.0
C206 C 0.0405 0.27181 0.22927 0.0
O207 O 0.03454 0.24252 0.23967 0.0
O208 O 0.06898 0.28299 0.23334 0.0
C209 C 0.00961 0.17017 0.29968 0.0
O210 O 0.00527 0.19615 0.32718 0.0
C211 C 0.13159 0.3253 0.29707 0.0
C212 C 0.18122 0.3312 0.2685 0.0
C213 C 0.15809 0.3458 0.29877 0.0
N214 N 0.13877 0.30002 0.26739 0.0
N215 N 0.16839 0.30378 0.25003 0.0
C216 C 0.10092 0.32771 0.32657 0.0
H217 H 0.0895 0.30363 0.33022 0.0
H218 H 0.10562 0.33787 0.36438 0.0
H219 H 0.08377 0.34382 0.30659 0.0
C220 C 0.09291 0.19727 0.35925 0.0
N221 N 0.08673 0.21539 0.31838 0.0
N222 N 0.1077 0.23919 0.31625 0.0
C223 C 0.12779 0.23694 0.35602 0.0
C224 C 0.11901 0.21039 0.38464 0.0
C225 C 0.07691 0.16566 0.37019 0.0
H226 H 0.05166 0.17026 0.38188 0.0
H227 H 0.08905 0.15234 0.40095 0.0
H228 H 0.07663 0.15049 0.33592 0.0
O229 O 0.09316 0.19527 0.20672 0.0
O230 O 0.129 0.2351 0.20127 0.0
H231 H 0.17145 0.25641 0.3256 0.0
H232 H 0.17408 0.24614 0.39134 0.0
C233 C 0.15815 0.25613 0.36167 0.0
H234 H 0.15183 0.28135 0.37173 0.0
H235 H 0.18007 0.28732 0.22648 0.0
O236 O 0.03312 0.16883 0.2692 0.0
C237 C 0.11833 0.20763 0.18712 0.0
Co238 Co 0.30492 0.56225 0.49465 0.0
Co239 Co 0.24265 0.60359 0.51802 0.0
C240 C 0.23717 0.53615 0.48055 0.0
O241 O 0.26781 0.53403 0.47938 0.0
O242 O 0.22324 0.5619 0.49551 0.0
C243 C 0.34157 0.51209 0.53239 0.0
O244 O 0.31653 0.51239 0.56262 0.0
C245 C 0.17816 0.62759 0.55088 0.0
C246 C 0.19055 0.67652 0.57743 0.0
C247 C 0.16519 0.65486 0.57424 0.0
N248 N 0.2098 0.63273 0.54228 0.0
N249 N 0.21682 0.66225 0.5575 0.0
C250 C 0.16058 0.59822 0.53316 0.0
H251 H 0.16985 0.59095 0.49585 0.0
H252 H 0.16492 0.57807 0.55975 0.0
H253 H 0.13428 0.60278 0.52969 0.0
C254 C 0.32317 0.5874 0.59338 0.0
N255 N 0.30114 0.58331 0.557 0.0
N256 N 0.27374 0.59679 0.57043 0.0
C257 C 0.27671 0.60753 0.61813 0.0
C258 C 0.30838 0.60209 0.63444 0.0
C259 C 0.35868 0.58251 0.58505 0.0
H260 H 0.36436 0.58347 0.54445 0.0
H261 H 0.36615 0.55858 0.59962 0.0
H262 H 0.37283 0.60137 0.60475 0.0
O263 O 0.30825 0.59501 0.4425 0.0
O264 O 0.26451 0.62488 0.45837 0.0
H265 H 0.24932 0.64781 0.64509 0.0
H266 H 0.25201 0.61459 0.68834 0.0
C267 C 0.24935 0.62111 0.64821 0.0
H268 H 0.22598 0.61177 0.63415 0.0
H269 H 0.23984 0.67234 0.55549 0.0
O270 O 0.34284 0.53254 0.4969 0.0
C271 C 0.28995 0.619 0.43255 0.0
H272 H 0.62966 0.53216 0.96585 0.0
H273 H 0.6443 0.51251 0.12385 0.0
H274 H 0.59976 0.54989 0.14522 0.0
H275 H 0.61663 0.61648 0.98226 0.0
H276 H 0.58686 0.62004 0.93326 0.0
H277 H 0.6174 0.58906 0.92973 0.0
H278 H 0.57299 0.54541 0.92188 0.0
H279 H 0.54229 0.5763 0.92534 0.0
H280 H 0.54183 0.54305 0.9689 0.0
H281 H 0.55432 0.5895 0.1497 0.0
H282 H 0.51423 0.63314 0.13775 0.0
H283 H 0.53206 0.63106 0.97747 0.0
C284 C 0.62302 0.53543 1.00479 0.0
C285 C 0.63995 0.51926 0.04326 0.0
C286 C 0.6314 0.52466 0.09393 0.0
C287 C 0.6061 0.5457 0.10639 0.0
C288 C 0.59002 0.56159 0.06774 0.0
C289 C 0.59834 0.55709 0.018 0.0
C290 C 0.579 0.57934 0.98419 0.0
C291 C 0.60131 0.60261 0.95569 0.0
C292 C 0.55777 0.55985 0.94794 0.0
C293 C 0.55871 0.59708 0.02275 0.0
C294 C 0.56504 0.58601 0.07059 0.0
C295 C 0.54917 0.59845 0.11244 0.0
C296 C 0.52642 0.62316 0.10529 0.0
C297 C 0.52024 0.63555 0.05678 0.0
C298 C 0.53652 0.62219 0.01502 0.0
H299 H 0.97849 0.13613 0.22684 0.0
H300 H 0.99295 0.14171 0.38748 0.0
H301 H 0.95758 0.0942 0.39919 0.0
H302 H 0.8944 0.11825 0.23514 0.0
H303 H 0.89404 0.09196 0.18126 0.0
H304 H 0.92309 0.12409 0.18517 0.0
H305 H 0.96954 0.08269 0.1731 0.0
H306 H 0.94061 0.05038 0.16942 0.0
H307 H 0.97273 0.04867 0.21495 0.0
H308 H 0.92124 0.04622 0.39319 0.0
H309 H 0.87998 0.00568 0.37198 0.0
H310 H 0.88455 0.03456 0.21578 0.0
C311 C 0.97441 0.12698 0.26433 0.0
C312 C 0.98859 0.14202 0.30633 0.0
C313 C 0.98227 0.13022 0.355 0.0
C314 C 0.96243 0.10322 0.3619 0.0
C315 C 0.94868 0.08886 0.31974 0.0
C316 C 0.95389 0.10065 0.27197 0.0
C317 C 0.93379 0.08266 0.2336 0.0
C318 C 0.90991 0.10561 0.20726 0.0
C319 C 0.95547 0.06505 0.19552 0.0
C320 C 0.91641 0.05897 0.26729 0.0
C321 C 0.92593 0.06252 0.31665 0.0
C322 C 0.9135 0.04326 0.35471 0.0
C323 C 0.89019 0.0202 0.34222 0.0
C324 C 0.87903 0.01705 0.29225 0.0
C325 C 0.89259 0.03651 0.25429 0.0
H326 H 0.47668 0.37897 0.47565 0.0
H327 H 0.49489 0.37628 0.63581 0.0
H328 H 0.45493 0.41993 0.6485 0.0
H329 H 0.46702 0.46696 0.46811 0.0
H330 H 0.43583 0.46468 0.42113 0.0
H331 H 0.46649 0.43374 0.42439 0.0
H332 H 0.42214 0.39005 0.43206 0.0
H333 H 0.39137 0.42081 0.42896 0.0
H334 H 0.39245 0.3933 0.48125 0.0
H335 H 0.40959 0.45965 0.64479 0.0
H336 H 0.36499 0.4971 0.62418 0.0
H337 H 0.37908 0.47795 0.46585 0.0
C338 C 0.47234 0.38773 0.51333 0.0
C339 C 0.48869 0.37418 0.55483 0.0
C340 C 0.48266 0.3864 0.60352 0.0
C341 C 0.45998 0.41113 0.6111 0.0
C342 C 0.44404 0.42376 0.56949 0.0
C343 C 0.45025 0.41288 0.52146 0.0
C344 C 0.42977 0.43075 0.48327 0.0
C345 C 0.45105 0.45019 0.44709 0.0
C346 C 0.40762 0.40733 0.45472 0.0
C347 C 0.41054 0.45283 0.5175 0.0
C348 C 0.41905 0.44818 0.56711 0.0
C349 C 0.40311 0.46396 0.60606 0.0
C350 C 0.37777 0.48505 0.59403 0.0
C351 C 0.36904 0.4906 0.54349 0.0
C352 C 0.38584 0.47456 0.50471 0.0
H353 H 0.06511 0.84743 0.75465 0.0
H354 H 0.98004 0.903 0.79595 0.0
H355 H 0.01348 0.95225 0.80185 0.0
H356 H 0.12092 0.88795 0.83569 0.0
H357 H 0.15365 0.88612 0.79123 0.0
H358 H 0.12289 0.85551 0.79066 0.0
H359 H 0.11152 0.86754 0.69696 0.0
H360 H 0.14214 0.89831 0.69728 0.0
H361 H 0.10156 0.90815 0.67798 0.0
H362 H 0.05674 0.99535 0.80391 0.0
H363 H 0.1062 0.02863 0.80224 0.0
H364 H 0.16209 0.9444 0.75788 0.0
C365 C 0.05345 0.86989 0.76515 0.0
C366 C 0.01996 0.87137 0.77493 0.0
C367 C 0.00567 0.90132 0.78825 0.0
C368 C 0.02445 0.9294 0.79168 0.0
C369 C 0.0574 0.92709 0.78146 0.0
C370 C 0.07173 0.89808 0.76846 0.0
C371 C 0.10753 0.90196 0.75913 0.0
C372 C 0.12741 0.88169 0.79641 0.0
C373 C 0.11618 0.89349 0.70459 0.0
C374 C 0.11119 0.93771 0.76909 0.0
C375 C 0.08205 0.95183 0.78197 0.0
C376 C 0.07967 0.98456 0.79373 0.0
C377 C 0.10787 1.00326 0.79267 0.0
C378 C 0.13799 0.98915 0.77979 0.0
C379 C 0.13944 0.95599 0.76752 0.0
H380 H 0.34234 0.61258 0.3715 0.0
H381 H 0.25789 0.67298 0.39622 0.0
H382 H 0.27374 0.70693 0.32374 0.0
H383 H 0.39653 0.67566 0.33702 0.0
H384 H 0.41702 0.65125 0.29088 0.0
H385 H 0.39873 0.63245 0.3446 0.0
H386 H 0.36515 0.59555 0.28593 0.0
H387 H 0.38333 0.61423 0.23205 0.0
H388 H 0.33999 0.61357 0.23833 0.0
H389 H 0.29993 0.73404 0.24623 0.0
H390 H 0.33324 0.75083 0.17343 0.0
H391 H 0.39924 0.67141 0.2032 0.0
C392 C 0.32704 0.63294 0.36201 0.0
C393 C 0.29883 0.64005 0.38971 0.0
C394 C 0.27964 0.66701 0.37562 0.0
C395 C 0.28846 0.68643 0.3345 0.0
C396 C 0.3165 0.67854 0.308 0.0
C397 C 0.3354 0.65237 0.32146 0.0
C398 C 0.36423 0.6485 0.28737 0.0
C399 C 0.396 0.6522 0.31673 0.0
C400 C 0.36308 0.61604 0.25926 0.0
C401 C 0.35875 0.67655 0.25231 0.0
C402 C 0.3312 0.69377 0.26446 0.0
C403 C 0.32156 0.72067 0.23655 0.0
C404 C 0.34062 0.73005 0.19528 0.0
C405 C 0.36891 0.71251 0.18244 0.0
C406 C 0.37783 0.68549 0.21169 0.0
H407 H 0.78602 0.84437 0.43945 0.0
H408 H 0.80458 0.94502 0.47374 0.0
H409 H 0.82626 0.92955 0.55624 0.0
H410 H 0.76636 0.81801 0.57053 0.0
H411 H 0.78721 0.77999 0.56333 0.0
H412 H 0.7684 0.7989 0.50986 0.0
H413 H 0.82288 0.79695 0.46231 0.0
H414 H 0.84187 0.77823 0.51561 0.0
H415 H 0.85807 0.8151 0.49022 0.0
H416 H 0.8512 0.90414 0.62924 0.0
H417 H 0.87883 0.86966 0.69072 0.0
H418 H 0.84586 0.78415 0.61177 0.0
C419 C 0.79378 0.86307 0.46513 0.0
C420 C 0.79334 0.89593 0.45069 0.0
C421 C 0.80462 0.91977 0.48434 0.0
C422 C 0.81685 0.91122 0.53132 0.0
C423 C 0.81782 0.87867 0.54409 0.0
C424 C 0.80661 0.85485 0.51226 0.0
C425 C 0.81356 0.82152 0.53374 0.0
C426 C 0.78199 0.80354 0.54504 0.0
C427 C 0.83539 0.8018 0.49836 0.0
C428 C 0.83116 0.83047 0.58176 0.0
C429 C 0.83289 0.86364 0.58695 0.0
C430 C 0.84965 0.87813 0.62607 0.0
C431 C 0.86543 0.8583 0.66066 0.0
C432 C 0.86444 0.82423 0.65614 0.0
C433 C 0.84658 0.81011 0.61657 0.0
H434 H 0.66314 0.39398 0.87423 0.0
H435 H 0.75184 0.33883 0.8911 0.0
H436 H 0.73627 0.30495 0.81837 0.0
H437 H 0.61223 0.32743 0.83932 0.0
H438 H 0.58909 0.35139 0.79574 0.0
H439 H 0.60722 0.37019 0.84967 0.0
H440 H 0.63678 0.41071 0.79168 0.0
H441 H 0.61879 0.39203 0.73761 0.0
H442 H 0.66207 0.39561 0.74182 0.0
H443 H 0.71039 0.27789 0.74078 0.0
H444 H 0.67723 0.26102 0.66781 0.0
H445 H 0.60667 0.33502 0.70529 0.0
C446 C 0.67939 0.37475 0.86299 0.0
C447 C 0.70877 0.36915 0.88846 0.0
C448 C 0.72917 0.3436 0.87223 0.0
C449 C 0.72052 0.32423 0.83096 0.0
C450 C 0.69138 0.33067 0.80654 0.0
C451 C 0.67118 0.35532 0.82227 0.0
C452 C 0.64143 0.35794 0.78983 0.0
C453 C 0.61068 0.35133 0.82047 0.0
C454 C 0.63969 0.39103 0.76369 0.0
C455 C 0.64806 0.33114 0.75285 0.0
C456 C 0.67683 0.31544 0.76287 0.0
C457 C 0.68777 0.29001 0.7328 0.0
C458 C 0.6688 0.28057 0.69146 0.0
C459 C 0.63934 0.29667 0.68062 0.0
C460 C 0.62904 0.32214 0.71216 0.0
H461 H 0.22109 0.16783 0.93827 0.0
H462 H 0.19416 0.068 0.964 0.0
H463 H 0.16922 0.0832 0.04419 0.0
H464 H 0.23646 0.18914 0.07208 0.0
H465 H 0.21886 0.22884 0.06607 0.0
H466 H 0.23823 0.21007 0.01293 0.0
H467 H 0.18599 0.2176 0.96084 0.0
H468 H 0.16643 0.23622 0.01382 0.0
H469 H 0.14849 0.20152 0.98415 0.0
H470 H 0.14336 0.10828 0.11617 0.0
H471 H 0.11721 0.14262 0.17914 0.0
H472 H 0.15914 0.22778 0.11028 0.0
C473 C 0.21056 0.14921 0.9615 0.0
C474 C 0.20965 0.11669 0.94513 0.0
C475 C 0.19503 0.09303 0.97581 0.0
C476 C 0.18093 0.10139 0.02154 0.0
C477 C 0.18147 0.1336 0.03618 0.0
C478 C 0.19586 0.15727 0.00745 0.0
C479 C 0.19063 0.19041 0.03094 0.0
C480 C 0.22298 0.2055 0.04643 0.0
C481 C 0.17176 0.21275 0.99531 0.0
C482 C 0.17053 0.18151 0.07659 0.0
C483 C 0.16593 0.14851 0.07869 0.0
C484 C 0.147 0.13414 0.11534 0.0
C485 C 0.13207 0.15396 0.1508 0.0
C486 C 0.13604 0.18793 0.14967 0.0
C487 C 0.15594 0.20188 0.11238 0.0
H488 H 0.29641 0.65449 0.69796 0.0
H489 H 0.35515 0.56782 0.68364 0.0
H490 H 0.38787 0.58504 0.75541 0.0
H491 H 0.35389 0.70923 0.74235 0.0
H492 H 0.32886 0.7274 0.79 0.0
H493 H 0.3106 0.70994 0.73506 0.0
H494 H 0.27534 0.67278 0.79048 0.0
H495 H 0.29293 0.69068 0.84564 0.0
H496 H 0.29441 0.64753 0.83695 0.0
H497 H 0.41912 0.6161 0.81943 0.0
H498 H 0.43773 0.64959 0.88954 0.0
H499 H 0.3495 0.70647 0.88043 0.0
C500 C 0.31557 0.63863 0.71037 0.0
C501 C 0.32408 0.61047 0.68309 0.0
C502 C 0.34937 0.59055 0.70148 0.0
C503 C 0.36792 0.59991 0.74276 0.0
C504 C 0.35979 0.6284 0.7673 0.0
C505 C 0.33329 0.64665 0.75349 0.0
C506 C 0.32819 0.67453 0.78973 0.0
C507 C 0.33053 0.7072 0.76264 0.0
C508 C 0.2958 0.67117 0.81735 0.0
C509 C 0.35657 0.66945 0.82498 0.0
C510 C 0.37493 0.64326 0.81019 0.0
C511 C 0.40418 0.63574 0.833 0.0
C512 C 0.41437 0.65477 0.87332 0.0
C513 C 0.39467 0.68002 0.89241 0.0
C514 C 0.36541 0.68754 0.86728 0.0
H515 H 0.8251 0.90459 0.10674 0.0
H516 H 0.81282 0.81919 0.19836 0.0
H517 H 0.83676 0.78555 0.131 0.0
H518 H 0.80529 0.86731 0.98907 0.0
H519 H 0.83467 0.88984 0.95376 0.0
H520 H 0.81716 0.90703 0.00955 0.0
H521 H 0.8744 0.91549 0.0465 0.0
H522 H 0.89209 0.89817 0.99088 0.0
H523 H 0.90158 0.88153 0.05154 0.0
H524 H 0.86169 0.76135 0.05338 0.0
H525 H 0.88481 0.7481 0.97023 0.0
H526 H 0.87995 0.84919 0.92867 0.0
C527 C 0.82755 0.8788 0.11242 0.0
C528 C 0.81694 0.86427 0.15727 0.0
C529 C 0.82047 0.83055 0.1638 0.0
C530 C 0.83416 0.81136 0.12594 0.0
C531 C 0.84425 0.82635 0.08191 0.0
C532 C 0.84105 0.8593 0.07491 0.0
C533 C 0.85329 0.86931 0.02373 0.0
C534 C 0.82597 0.88425 0.99217 0.0
C535 C 0.88205 0.8925 0.02847 0.0
C536 C 0.86378 0.83686 1.00298 0.0
C537 C 0.8585 0.81241 0.03721 0.0
C538 C 0.86597 0.7803 0.02632 0.0
C539 C 0.87899 0.77299 0.97908 0.0
C540 C 0.8843 0.79763 0.94336 0.0
C541 C 0.87666 0.82995 0.95564 0.0
H542 H 0.71108 0.35278 0.19357 0.0
H543 H 0.65548 0.44172 0.18297 0.0
H544 H 0.6227 0.42492 0.25483 0.0
H545 H 0.65241 0.29966 0.23886 0.0
H546 H 0.67737 0.28051 0.28562 0.0
H547 H 0.69558 0.29762 0.23043 0.0
H548 H 0.73259 0.33341 0.28538 0.0
H549 H 0.71506 0.31582 0.34076 0.0
H550 H 0.71483 0.35904 0.33268 0.0
H551 H 0.59079 0.39422 0.31839 0.0
H552 H 0.57178 0.3609 0.38826 0.0
H553 H 0.65852 0.30187 0.37699 0.0
C554 C 0.69267 0.36924 0.20691 0.0
C555 C 0.68501 0.39802 0.18069 0.0
C556 C 0.66057 0.41861 0.20008 0.0
C557 C 0.642 0.40949 0.24139 0.0
C558 C 0.64934 0.38052 0.26502 0.0
C559 C 0.67509 0.36149 0.25025 0.0
C560 C 0.6797 0.33332 0.286 0.0
C561 C 0.67604 0.30086 0.25856 0.0
C562 C 0.71249 0.33554 0.31281 0.0
C563 C 0.65188 0.33914 0.32203 0.0
C564 C 0.63415 0.3659 0.30799 0.0
C565 C 0.60531 0.37413 0.33145 0.0
C566 C 0.59491 0.3552 0.37167 0.0
C567 C 0.61411 0.3294 0.39013 0.0
C568 C 0.64296 0.32121 0.36435 0.0
H569 H 0.13092 0.22962 0.48113 0.0
H570 H 0.15193 0.1542 0.37318 0.0
H571 H 0.18298 0.12427 0.43745 0.0
H572 H 0.20929 0.22579 0.54748 0.0
H573 H 0.19126 0.23282 0.60803 0.0
H574 H 0.17287 0.24958 0.55254 0.0
H575 H 0.11895 0.22148 0.57485 0.0
H576 H 0.13715 0.20465 0.63029 0.0
H577 H 0.11851 0.17842 0.58485 0.0
H578 H 0.20741 0.10045 0.51441 0.0
H579 H 0.22484 0.08459 0.59974 0.0
H580 H 0.1894 0.17563 0.65828 0.0
C581 C 0.14249 0.20701 0.47117 0.0
C582 C 0.13904 0.19391 0.42267 0.0
C583 C 0.15427 0.16431 0.41048 0.0
C584 C 0.17199 0.14728 0.44659 0.0
C585 C 0.17449 0.16042 0.49451 0.0
C586 C 0.16035 0.18968 0.5069 0.0
C587 C 0.16555 0.19758 0.56183 0.0
C588 C 0.18596 0.22827 0.56781 0.0
C589 C 0.13311 0.2007 0.58957 0.0
C590 C 0.1841 0.16784 0.57857 0.0
C591 C 0.18916 0.14683 0.53899 0.0
C592 C 0.20408 0.1169 0.54554 0.0
C593 C 0.21388 0.10809 0.59391 0.0
C594 C 0.20881 0.12917 0.63481 0.0
C595 C 0.19404 0.1595 0.6271 0.0
H596 H 0.36223 0.90208 0.99294 0.0
H597 H 0.3242 0.83038 0.8906 0.0
H598 H 0.30891 0.87343 0.83112 0.0
H599 H 0.29967 0.95675 0.97741 0.0
H600 H 0.32374 0.99284 0.98129 0.0
H601 H 0.33722 0.95646 0.01165 0.0
H602 H 0.39122 0.95916 0.96284 0.0
H603 H 0.37782 0.99563 0.93219 0.0
H604 H 0.39066 0.9614 0.89537 0.0
H605 H 0.29088 0.92301 0.78898 0.0
H606 H 0.26917 0.97675 0.76756 0.0
H607 H 0.31822 0.01809 0.89585 0.0
C608 C 0.35157 0.89562 0.95726 0.0
C609 C 0.34469 0.86308 0.94572 0.0
C610 C 0.32978 0.85526 0.89967 0.0
C611 C 0.32122 0.8795 0.86561 0.0
C612 C 0.32764 0.91148 0.8783 0.0
C613 C 0.34244 0.91971 0.92298 0.0
C614 C 0.34292 0.95613 0.92988 0.0
C615 C 0.3248 0.96612 0.97788 0.0
C616 C 0.37773 0.96883 0.93007 0.0
C617 C 0.32496 0.96691 0.88312 0.0
C618 C 0.31694 0.94068 0.85355 0.0
C619 C 0.29762 0.94383 0.81111 0.0
C620 C 0.28538 0.97441 0.79924 0.0
C621 C 0.29257 1.0015 0.82952 0.0
C622 C 0.31332 0.99789 0.87121 0.0
H623 H 0.52875 0.75425 0.12464 0.0
H624 H 0.47375 0.8413 0.0925 0.0
H625 H 0.51681 0.87407 0.13177 0.0
H626 H 0.55511 0.77741 0.24394 0.0
H627 H 0.59442 0.7589 0.23833 0.0
H628 H 0.5608 0.74281 0.20379 0.0
H629 H 0.59255 0.74922 0.12071 0.0
H630 H 0.62643 0.76512 0.15503 0.0
H631 H 0.60898 0.78807 0.10437 0.0
H632 H 0.56457 0.89675 0.1808 0.0
H633 H 0.61282 0.90727 0.23269 0.0
H634 H 0.63589 0.805 0.23135 0.0
C635 C 0.52583 0.78025 0.12502 0.0
C636 C 0.4978 0.79517 0.10528 0.0
C637 C 0.49502 0.82928 0.10715 0.0
C638 C 0.51935 0.84809 0.12944 0.0
C639 C 0.54632 0.83243 0.1495 0.0
C640 C 0.5497 0.79926 0.14714 0.0
C641 C 0.58012 0.78797 0.17334 0.0
C642 C 0.57212 0.76545 0.21746 0.0
C643 C 0.6034 0.77164 0.13613 0.0
C644 C 0.59324 0.81992 0.1915 0.0
C645 C 0.57358 0.84536 0.17723 0.0
C646 C 0.5804 0.87705 0.19136 0.0
C647 C 0.60807 0.88283 0.22052 0.0
C648 C 0.62864 0.85707 0.23512 0.0
C649 C 0.62084 0.82526 0.22048 0.0
H650 H 0.69068 0.9946 0.3833 0.0
H651 H 0.74947 0.03693 0.26633 0.0
H652 H 0.7288 0.09101 0.2884 0.0
H653 H 0.62106 0.05478 0.37626 0.0
H654 H 0.61639 0.05484 0.44343 0.0
H655 H 0.63005 0.01881 0.41172 0.0
H656 H 0.68066 0.01725 0.46868 0.0
H657 H 0.66743 0.05337 0.50011 0.0
H658 H 0.70678 0.05195 0.47127 0.0
H659 H 0.71031 0.14022 0.33143 0.0
H660 H 0.69314 0.18223 0.39148 0.0
H661 H 0.64572 0.10967 0.48203 0.0
C662 C 0.69796 0.01516 0.361 0.0
C663 C 0.72117 0.01166 0.32249 0.0
C664 C 0.73138 0.03916 0.29548 0.0
C665 C 0.71974 0.06994 0.30773 0.0
C666 C 0.69793 0.07287 0.34723 0.0
C667 C 0.68683 0.04627 0.37329 0.0
C668 C 0.6666 0.05663 0.41809 0.0
C669 C 0.63143 0.04561 0.41199 0.0
C670 C 0.68126 0.04406 0.46743 0.0
C671 C 0.66927 0.0931 0.41425 0.0
C672 C 0.68711 0.10184 0.37262 0.0
C673 C 0.69566 0.13378 0.36345 0.0
C674 C 0.68599 0.15743 0.39786 0.0
C675 C 0.66785 0.14911 0.44081 0.0
C676 C 0.6589 0.11663 0.44872 0.0
H677 H 0.47976 0.25536 0.61951 0.0
H678 H 0.53626 0.16823 0.59467 0.0
H679 H 0.49381 0.13622 0.63682 0.0
H680 H 0.45422 0.23648 0.7405 0.0
H681 H 0.41451 0.25392 0.73373 0.0
H682 H 0.44761 0.26931 0.6973 0.0
H683 H 0.41568 0.25893 0.61535 0.0
H684 H 0.38227 0.24381 0.65155 0.0
H685 H 0.39993 0.21919 0.60291 0.0
H686 H 0.44685 0.11465 0.6885 0.0
H687 H 0.39898 0.10522 0.74168 0.0
H688 H 0.37386 0.20678 0.73149 0.0
C689 C 0.48311 0.22946 0.62203 0.0
C690 C 0.51142 0.21433 0.60361 0.0
C691 C 0.51476 0.18039 0.60823 0.0
C692 C 0.4908 0.16201 0.63221 0.0
C693 C 0.46362 0.17794 0.65112 0.0
C694 C 0.45961 0.21089 0.64585 0.0
C695 C 0.4291 0.22262 0.67136 0.0
C696 C 0.43684 0.24701 0.7132 0.0
C697 C 0.40534 0.23698 0.63299 0.0
C698 C 0.4167 0.1912 0.69262 0.0
C699 C 0.43677 0.16563 0.68038 0.0
C700 C 0.43068 0.13443 0.69746 0.0
C701 C 0.40326 0.12925 0.72738 0.0
C702 C 0.3822 0.15511 0.73978 0.0
C703 C 0.38933 0.18646 0.72235 0.0
H704 H 0.79398 0.64114 0.837 0.0
H705 H 0.89438 0.61487 0.81363 0.0
H706 H 0.88656 0.56564 0.86407 0.0
H707 H 0.78655 0.61132 0.9639 0.0
H708 H 0.74616 0.59642 0.95445 0.0
H709 H 0.76026 0.63059 0.91901 0.0
H710 H 0.74642 0.60102 0.83609 0.0
H711 H 0.73208 0.5669 0.87129 0.0
H712 H 0.76304 0.5614 0.82454 0.0
H713 H 0.86704 0.51808 0.91569 0.0
H714 H 0.83672 0.47502 0.95918 0.0
H715 H 0.74898 0.53224 0.94633 0.0
C716 C 0.81439 0.62512 0.84263 0.0
C717 C 0.84505 0.63245 0.82255 0.0
C718 C 0.871 0.61059 0.83026 0.0
C719 C 0.86671 0.58234 0.85855 0.0
C720 C 0.83626 0.57615 0.87854 0.0
C721 C 0.8105 0.59685 0.87059 0.0
C722 C 0.77989 0.58404 0.89415 0.0
C723 C 0.7675 0.60696 0.93532 0.0
C724 C 0.75383 0.57797 0.85413 0.0
C725 C 0.79234 0.55271 0.91614 0.0
C726 C 0.82495 0.54864 0.90718 0.0
C727 C 0.8415 0.52107 0.92305 0.0
C728 C 0.82409 0.49678 0.94784 0.0
C729 C 0.79045 0.50016 0.9562 0.0
C730 C 0.77467 0.52882 0.94072 0.0
H731 H 0.97664 0.25606 0.21926 0.0
H732 H 0.04457 0.33382 0.19269 0.0
H733 H 1.00119 0.3657 0.15224 0.0
H734 H 0.93587 0.26164 0.10458 0.0
H735 H 0.89656 0.25285 0.13004 0.0
H736 H 0.93221 0.23737 0.16036 0.0
H737 H 0.91484 0.26449 0.24373 0.0
H738 H 0.87897 0.27991 0.21377 0.0
H739 H 0.90623 0.3072 0.24489 0.0
H740 H 0.95116 0.3869 0.10782 0.0
H741 H 0.89858 0.39655 0.06699 0.0
H742 H 0.86337 0.30556 0.12569 0.0
C743 C 0.98242 0.27997 0.2056 0.0
C744 C 0.0141 0.2924 0.20918 0.0
C745 C 0.0205 0.32378 0.19054 0.0
C746 C 0.99601 0.34206 0.16745 0.0
C747 C 0.96521 0.32875 0.16367 0.0
C748 C 0.95833 0.29852 0.18268 0.0
C749 C 0.92367 0.28912 0.17242 0.0
C750 C 0.922 0.25844 0.13991 0.0
C751 C 0.90482 0.28495 0.22164 0.0
C752 C 0.9122 0.31852 0.14382 0.0
C753 C 0.93642 0.3412 0.13925 0.0
C754 C 0.93181 0.36964 0.1122 0.0
C755 C 0.90165 0.37508 0.08951 0.0
C756 C 0.87636 0.35233 0.09438 0.0
C757 C 0.882 0.32367 0.12178 0.0
H758 H 0.25967 0.47741 0.44829 0.0
H759 H 0.17136 0.53323 0.46553 0.0
H760 H 0.14088 0.48974 0.42338 0.0
H761 H 0.24375 0.44833 0.32744 0.0
H762 H 0.26125 0.40897 0.33779 0.0
H763 H 0.27561 0.44318 0.37285 0.0
H764 H 0.26359 0.41346 0.45615 0.0
H765 H 0.24946 0.37898 0.42137 0.0
H766 H 0.22367 0.39781 0.46742 0.0
H767 H 0.12101 0.4419 0.37269 0.0
H768 H 0.11289 0.39269 0.32222 0.0
H769 H 0.21409 0.36784 0.34035 0.0
C770 C 0.23383 0.48043 0.44394 0.0
C771 C 0.21795 0.50887 0.46031 0.0
C772 C 0.18411 0.51171 0.45354 0.0
C773 C 0.16659 0.48713 0.42952 0.0
C774 C 0.18321 0.45979 0.41281 0.0
C775 C 0.21604 0.45621 0.4202 0.0
C776 C 0.22848 0.42506 0.39735 0.0
C777 C 0.25376 0.43181 0.35643 0.0
C778 C 0.2421 0.40249 0.43801 0.0
C779 C 0.19761 0.41184 0.37516 0.0
C780 C 0.17173 0.43213 0.38457 0.0
C781 C 0.14099 0.42551 0.36607 0.0
C782 C 0.13653 0.39725 0.33776 0.0
C783 C 0.16261 0.37579 0.32854 0.0
C784 C 0.19357 0.38353 0.34719 0.0
H785 H 0.13427 0.71273 0.58568 0.0
H786 H 0.12292 0.61032 0.61486 0.0
H787 H 0.06913 0.62078 0.65092 0.0
H788 H 0.09958 0.73812 0.7017 0.0
H789 H 0.08074 0.77369 0.67577 0.0
H790 H 0.11708 0.75777 0.64796 0.0
H791 H 0.08828 0.75391 0.5619 0.0
H792 H 0.05186 0.76988 0.58946 0.0
H793 H 0.05103 0.73174 0.55686 0.0
H794 H 0.01616 0.6428 0.68475 0.0
H795 H 0.97054 0.67493 0.71861 0.0
H796 H 0.01893 0.76306 0.67359 0.0
C797 C 0.12033 0.69241 0.59908 0.0
C798 C 0.13232 0.66049 0.59505 0.0
C799 C 0.11365 0.63475 0.61454 0.0
C800 C 0.08317 0.64053 0.63591 0.0
C801 C 0.07195 0.67225 0.63861 0.0
C802 C 0.09016 0.69779 0.62123 0.0
C803 C 0.07354 0.72979 0.63125 0.0
C804 C 0.09395 0.75109 0.66626 0.0
C805 C 0.06571 0.74736 0.58193 0.0
C806 C 0.04313 0.71828 0.65702 0.0
C807 C 0.04245 0.685 0.6605 0.0
C808 C 0.01649 0.66889 0.68236 0.0
C809 C 0.99067 0.68731 0.70137 0.0
C810 C 0.99123 0.72148 0.69898 0.0
C811 C 0.01787 0.73699 0.67639 0.0
loop_
_geom_bond_atom_site_label_1
_geom_bond_atom_site_label_2
_geom_bond_distance
_geom_bond_site_symmetry_2
_ccdc_geom_bond_type
Co0 O3 1.970 . S
Co0 N17 1.989 1_554 S
Co0 O25 1.967 . S
Co0 O32 1.920 . S
Co1 O4 1.966 . S
Co1 N10 2.022 . S
Co1 N18 1.993 1_554 S
Co1 O26 1.941 . S
C2 O3 1.258 . S
C2 O4 1.263 . S
O3 Co0 1.970 . S
O3 C2 1.258 . S
O4 Co1 1.966 . S
O4 C2 1.263 . S
C5 O6 1.235 . S
C5 O32 1.289 . S
O6 C5 1.235 . S
C7 C9 1.400 . S
C7 N10 1.351 . S
C7 C12 1.501 . S
C8 C9 1.387 . S
C8 N11 1.341 . S
C9 C7 1.400 . S
C9 C8 1.387 . S
N10 Co1 2.022 . S
N10 C7 1.351 . S
N10 N11 1.365 . S
N11 C8 1.341 . S
N11 N10 1.365 . S
N11 H31 0.862 . S
C12 C7 1.501 . S
C12 H13 0.961 . S
C12 H14 0.961 1_554 S
C12 H15 0.960 . S
H13 C12 0.961 . S
H14 C12 0.961 1_556 S
H15 C12 0.960 . S
C16 N17 1.342 . S
C16 C20 1.401 . S
C16 C21 1.499 . S
N17 Co0 1.989 1_556 S
N17 C16 1.342 . S
N17 N18 1.388 . S
N18 Co1 1.993 1_556 S
N18 N17 1.388 . S
N18 C19 1.346 . S
C19 N18 1.346 . S
C19 C20 1.396 . S
C19 C29 1.510 . S
C20 C16 1.401 . S
C20 C19 1.396 . S
C21 C16 1.499 . S
C21 H22 0.959 . S
C21 H23 0.960 . S
C21 H24 0.961 . S
H22 C21 0.959 . S
H23 C21 0.960 . S
H24 C21 0.961 . S
O25 Co0 1.967 . S
O25 C33 1.258 . S
O26 Co1 1.941 . S
O26 C33 1.266 . S
H27 C29 0.959 . S
H28 C29 0.961 . S
C29 C19 1.510 . S
C29 H27 0.959 . S
C29 H28 0.961 . S
C29 H30 0.960 . S
H30 C29 0.960 . S
H31 N11 0.862 . S
O32 Co0 1.920 . S
O32 C5 1.289 . S
C33 O25 1.258 . S
C33 O26 1.266 . S
Co34 O37 1.970 . S
Co34 N51 1.989 . S
Co34 O59 1.967 . S
Co34 O66 1.920 . S
Co35 O38 1.966 . S
Co35 N44 2.022 . S
Co35 N52 1.993 . S
Co35 O60 1.941 . S
C36 O37 1.258 . S
C36 O38 1.263 . S
O37 Co34 1.970 . S
O37 C36 1.258 . S
O38 Co35 1.966 . S
O38 C36 1.263 . S
C39 O40 1.247 . S
C39 O66 1.289 . S
O40 C39 1.247 . S
C41 C43 1.400 . S
C41 N44 1.351 . S
C41 C46 1.501 . S
C42 C43 1.387 . S
C42 N45 1.341 . S
C43 C41 1.400 . S
C43 C42 1.387 . S
N44 Co35 2.022 . S
N44 C41 1.351 . S
N44 N45 1.365 . S
N45 C42 1.341 . S
N45 N44 1.365 . S
N45 H65 0.862 . S
C46 C41 1.501 . S
C46 H47 0.961 . S
C46 H48 0.961 . S
C46 H49 0.960 . S
H47 C46 0.961 . S
H48 C46 0.961 . S
H49 C46 0.960 . S
C50 N51 1.342 . S
C50 C54 1.401 . S
C50 C55 1.499 . S
N51 Co34 1.989 . S
N51 C50 1.342 . S
N51 N52 1.388 . S
N52 Co35 1.993 . S
N52 N51 1.388 . S
N52 C53 1.346 . S
C53 N52 1.346 . S
C53 C54 1.396 . S
C53 C63 1.510 . S
C54 C50 1.401 . S
C54 C53 1.396 . S
C55 C50 1.499 . S
C55 H56 0.959 . S
C55 H57 0.960 . S
C55 H58 0.961 . S
H56 C55 0.959 . S
H57 C55 0.960 . S
H58 C55 0.961 . S
O59 Co34 1.967 . S
O59 C67 1.258 . S
O60 Co35 1.941 . S
O60 C67 1.266 . S
H61 C63 0.959 . S
H62 C63 0.961 . S
C63 C53 1.510 . S
C63 H61 0.959 . S
C63 H62 0.961 . S
C63 H64 0.960 . S
H64 C63 0.960 . S
H65 N45 0.862 . S
O66 Co34 1.920 . S
O66 C39 1.289 . S
C67 O59 1.258 . S
C67 O60 1.266 . S
Co68 O71 1.970 . S
Co68 N85 1.989 . S
Co68 O93 1.967 . S
Co68 O100 1.920 . S
Co69 O72 1.966 . S
Co69 N78 2.022 . S
Co69 N86 1.993 . S
Co69 O94 1.941 . S
C70 O71 1.258 . S
C70 O72 1.263 . S
O71 Co68 1.970 . S
O71 C70 1.258 . S
O72 Co69 1.966 . S
O72 C70 1.263 . S
C73 O74 1.235 . S
C73 O100 1.289 . S
O74 C73 1.235 . S
C75 C77 1.400 . S
C75 N78 1.351 . S
C75 C80 1.501 . S
C76 C77 1.387 . S
C76 N79 1.341 . S
C77 C75 1.400 . S
C77 C76 1.387 . S
N78 Co69 2.022 . S
N78 C75 1.351 . S
N78 N79 1.365 . S
N79 C76 1.341 . S
N79 N78 1.365 . S
N79 H99 0.862 . S
C80 C75 1.501 . S
C80 H81 0.961 . S
C80 H82 0.961 . S
C80 H83 0.960 . S
H81 C80 0.961 . S
H82 C80 0.961 . S
H83 C80 0.960 . S
C84 N85 1.342 . S
C84 C88 1.401 . S
C84 C89 1.499 . S
N85 Co68 1.989 . S
N85 C84 1.342 . S
N85 N86 1.388 . S
N86 Co69 1.993 . S
N86 N85 1.388 . S
N86 C87 1.346 . S
C87 N86 1.346 . S
C87 C88 1.396 . S
C87 C97 1.510 . S
C88 C84 1.401 . S
C88 C87 1.396 . S
C89 C84 1.499 . S
C89 H90 0.959 . S
C89 H91 0.960 . S
C89 H92 0.961 . S
H90 C89 0.959 . S
H91 C89 0.960 . S
H92 C89 0.961 . S
O93 Co68 1.967 . S
O93 C101 1.258 . S
O94 Co69 1.941 . S
O94 C101 1.266 . S
H95 C97 0.959 . S
H96 C97 0.961 . S
C97 C87 1.510 . S
C97 H95 0.959 . S
C97 H96 0.961 . S
C97 H98 0.960 . S
H98 C97 0.960 . S
H99 N79 0.862 . S
O100 Co68 1.920 . S
O100 C73 1.289 . S
C101 O93 1.258 . S
C101 O94 1.266 . S
Co102 O105 1.970 . S
Co102 N119 1.989 . S
Co102 O127 1.967 . S
Co102 O134 1.920 . S
Co103 O106 1.966 . S
Co103 N112 2.022 . S
Co103 N120 1.993 . S
Co103 O128 1.941 . S
C104 O105 1.258 . S
C104 O106 1.263 . S
O105 Co102 1.970 . S
O105 C104 1.258 . S
O106 Co103 1.966 . S
O106 C104 1.263 . S
C107 O108 1.247 . S
C107 O134 1.289 . S
O108 C107 1.247 . S
C109 C111 1.400 . S
C109 N112 1.351 . S
C109 C114 1.501 . S
C110 C111 1.387 . S
C110 N113 1.341 . S
C111 C109 1.400 . S
C111 C110 1.387 . S
N112 Co103 2.022 . S
N112 C109 1.351 . S
N112 N113 1.365 . S
N113 C110 1.341 . S
N113 N112 1.365 . S
N113 H133 0.862 . S
C114 C109 1.501 . S
C114 H115 0.961 . S
C114 H116 0.961 . S
C114 H117 0.960 . S
H115 C114 0.961 . S
H116 C114 0.961 . S
H117 C114 0.960 . S
C118 N119 1.342 . S
C118 C122 1.401 . S
C118 C123 1.499 . S
N119 Co102 1.989 . S
N119 C118 1.342 . S
N119 N120 1.388 . S
N120 Co103 1.993 . S
N120 N119 1.388 . S
N120 C121 1.346 . S
C121 N120 1.346 . S
C121 C122 1.396 . S
C121 C131 1.510 . S
C122 C118 1.401 . S
C122 C121 1.396 . S
C123 C118 1.499 . S
C123 H124 0.959 . S
C123 H125 0.960 . S
C123 H126 0.961 . S
H124 C123 0.959 . S
H125 C123 0.960 . S
H126 C123 0.961 . S
O127 Co102 1.967 . S
O127 C135 1.258 . S
O128 Co103 1.941 . S
O128 C135 1.266 . S
H129 C131 0.959 . S
H130 C131 0.961 . S
C131 C121 1.510 . S
C131 H129 0.959 . S
C131 H130 0.961 . S
C131 H132 0.960 . S
H132 C131 0.960 . S
H133 N113 0.862 . S
O134 Co102 1.920 . S
O134 C107 1.289 . S
C135 O127 1.258 . S
C135 O128 1.266 . S
Co136 O139 1.970 . S
Co136 N153 1.989 . S
Co136 O161 1.967 . S
Co136 O168 1.920 . S
Co137 O140 1.966 . S
Co137 N146 2.022 . S
Co137 N154 1.993 . S
Co137 O162 1.941 . S
C138 O139 1.258 . S
C138 O140 1.263 . S
O139 Co136 1.970 . S
O139 C138 1.258 . S
O140 Co137 1.966 . S
O140 C138 1.263 . S
C141 O142 1.247 . S
C141 O168 1.289 . S
O142 C141 1.247 . S
C143 C145 1.400 . S
C143 N146 1.351 . S
C143 C148 1.501 . S
C144 C145 1.387 . S
C144 N147 1.341 . S
C145 C143 1.400 . S
C145 C144 1.387 . S
N146 Co137 2.022 . S
N146 C143 1.351 . S
N146 N147 1.365 . S
N147 C144 1.341 . S
N147 N146 1.365 . S
N147 H167 0.862 . S
C148 C143 1.501 . S
C148 H149 0.961 . S
C148 H150 0.961 . S
C148 H151 0.960 . S
H149 C148 0.961 . S
H150 C148 0.961 . S
H151 C148 0.960 . S
C152 N153 1.342 . S
C152 C156 1.401 . S
C152 C157 1.499 . S
N153 Co136 1.989 . S
N153 C152 1.342 . S
N153 N154 1.388 . S
N154 Co137 1.993 . S
N154 N153 1.388 . S
N154 C155 1.346 . S
C155 N154 1.346 . S
C155 C156 1.396 . S
C155 C165 1.510 . S
C156 C152 1.401 . S
C156 C155 1.396 . S
C157 C152 1.499 . S
C157 H158 0.959 . S
C157 H159 0.960 . S
C157 H160 0.961 . S
H158 C157 0.959 . S
H159 C157 0.960 . S
H160 C157 0.961 . S
O161 Co136 1.967 . S
O161 C169 1.258 . S
O162 Co137 1.941 . S
O162 C169 1.266 . S
H163 C165 0.959 . S
H164 C165 0.961 . S
C165 C155 1.510 . S
C165 H163 0.959 . S
C165 H164 0.961 . S
C165 H166 0.960 . S
H166 C165 0.960 . S
H167 N147 0.862 . S
O168 Co136 1.920 . S
O168 C141 1.289 . S
C169 O161 1.258 . S
C169 O162 1.266 . S
Co170 O173 1.970 . S
Co170 N187 1.989 1_556 S
Co170 O195 1.967 . S
Co170 O202 1.920 . S
Co171 O174 1.966 . S
Co171 N180 2.022 1_556 S
Co171 N188 1.993 1_556 S
Co171 O196 1.941 . S
C172 O173 1.258 . S
C172 O174 1.263 . S
O173 Co170 1.970 . S
O173 C172 1.258 . S
O174 Co171 1.966 . S
O174 C172 1.263 . S
C175 O176 1.235 . S
C175 O202 1.289 1_554 S
O176 C175 1.235 . S
C177 C179 1.400 . S
C177 N180 1.351 . S
C177 C182 1.501 . S
C178 C179 1.387 . S
C178 N181 1.341 . S
C179 C177 1.400 . S
C179 C178 1.387 . S
N180 Co171 2.022 1_554 S
N180 C177 1.351 . S
N180 N181 1.365 . S
N181 C178 1.341 . S
N181 N180 1.365 . S
N181 H201 0.862 . S
C182 C177 1.501 . S
C182 H183 0.961 . S
C182 H184 0.961 . S
C182 H185 0.960 . S
H183 C182 0.961 . S
H184 C182 0.961 . S
H185 C182 0.960 . S
C186 N187 1.342 . S
C186 C190 1.401 . S
C186 C191 1.499 . S
N187 Co170 1.989 1_554 S
N187 C186 1.342 . S
N187 N188 1.388 . S
N188 Co171 1.993 1_554 S
N188 N187 1.388 . S
N188 C189 1.346 . S
C189 N188 1.346 . S
C189 C190 1.396 . S
C189 C199 1.510 . S
C190 C186 1.401 . S
C190 C189 1.396 . S
C191 C186 1.499 . S
C191 H192 0.959 . S
C191 H193 0.960 . S
C191 H194 0.961 . S
H192 C191 0.959 . S
H193 C191 0.960 . S
H194 C191 0.961 . S
O195 Co170 1.967 . S
O195 C203 1.258 . S
O196 Co171 1.941 . S
O196 C203 1.266 . S
H197 C199 0.959 . S
H198 C199 0.961 . S
C199 C189 1.510 . S
C199 H197 0.959 . S
C199 H198 0.961 . S
C199 H200 0.960 . S
H200 C199 0.960 . S
H201 N181 0.862 . S
O202 Co170 1.920 . S
O202 C175 1.289 1_556 S
C203 O195 1.258 . S
C203 O196 1.266 . S
Co204 O207 1.970 . S
Co204 N221 1.989 . S
Co204 O229 1.967 . S
Co204 O236 1.920 . S
Co205 O208 1.966 . S
Co205 N214 2.022 . S
Co205 N222 1.993 . S
Co205 O230 1.941 . S
C206 O207 1.258 . S
C206 O208 1.263 . S
O207 Co204 1.970 . S
O207 C206 1.258 . S
O208 Co205 1.966 . S
O208 C206 1.263 . S
C209 O210 1.247 . S
C209 O236 1.289 . S
O210 C209 1.247 . S
C211 C213 1.400 . S
C211 N214 1.351 . S
C211 C216 1.501 . S
C212 C213 1.387 . S
C212 N215 1.341 . S
C213 C211 1.400 . S
C213 C212 1.387 . S
N214 Co205 2.022 . S
N214 C211 1.351 . S
N214 N215 1.365 . S
N215 C212 1.341 . S
N215 N214 1.365 . S
N215 H235 0.862 . S
C216 C211 1.501 . S
C216 H217 0.961 . S
C216 H218 0.961 . S
C216 H219 0.960 . S
H217 C216 0.961 . S
H218 C216 0.961 . S
H219 C216 0.960 . S
C220 N221 1.342 . S
C220 C224 1.401 . S
C220 C225 1.499 . S
N221 Co204 1.989 . S
N221 C220 1.342 . S
N221 N222 1.388 . S
N222 Co205 1.993 . S
N222 N221 1.388 . S
N222 C223 1.346 . S
C223 N222 1.346 . S
C223 C224 1.396 . S
C223 C233 1.510 . S
C224 C220 1.401 . S
C224 C223 1.396 . S
C225 C220 1.499 . S
C225 H226 0.959 . S
C225 H227 0.960 . S
C225 H228 0.961 . S
H226 C225 0.959 . S
H227 C225 0.960 . S
H228 C225 0.961 . S
O229 Co204 1.967 . S
O229 C237 1.258 . S
O230 Co205 1.941 . S
O230 C237 1.266 . S
H231 C233 0.959 . S
H232 C233 0.961 . S
C233 C223 1.510 . S
C233 H231 0.959 . S
C233 H232 0.961 . S
C233 H234 0.960 . S
H234 C233 0.960 . S
H235 N215 0.862 . S
O236 Co204 1.920 . S
O236 C209 1.289 . S
C237 O229 1.258 . S
C237 O230 1.266 . S
Co238 O241 1.970 . S
Co238 N255 1.989 . S
Co238 O263 1.967 . S
Co238 O270 1.920 . S
Co239 O242 1.966 . S
Co239 N248 2.022 . S
Co239 N256 1.993 . S
Co239 O264 1.941 . S
C240 O241 1.258 . S
C240 O242 1.263 . S
O241 Co238 1.970 . S
O241 C240 1.258 . S
O242 Co239 1.966 . S
O242 C240 1.263 . S
C243 O244 1.235 . S
C243 O270 1.289 . S
O244 C243 1.235 . S
C245 C247 1.400 . S
C245 N248 1.351 . S
C245 C250 1.501 . S
C246 C247 1.387 . S
C246 N249 1.341 . S
C247 C245 1.400 . S
C247 C246 1.387 . S
N248 Co239 2.022 . S
N248 C245 1.351 . S
N248 N249 1.365 . S
N249 C246 1.341 . S
N249 N248 1.365 . S
N249 H269 0.862 . S
C250 C245 1.501 . S
C250 H251 0.961 . S
C250 H252 0.961 . S
C250 H253 0.960 . S
H251 C250 0.961 . S
H252 C250 0.961 . S
H253 C250 0.960 . S
C254 N255 1.342 . S
C254 C258 1.401 . S
C254 C259 1.499 . S
N255 Co238 1.989 . S
N255 C254 1.342 . S
N255 N256 1.388 . S
N256 Co239 1.993 . S
N256 N255 1.388 . S
N256 C257 1.346 . S
C257 N256 1.346 . S
C257 C258 1.396 . S
C257 C267 1.510 . S
C258 C254 1.401 . S
C258 C257 1.396 . S
C259 C254 1.499 . S
C259 H260 0.959 . S
C259 H261 0.960 . S
C259 H262 0.961 . S
H260 C259 0.959 . S
H261 C259 0.960 . S
H262 C259 0.961 . S
O263 Co238 1.967 . S
O263 C271 1.258 . S
O264 Co239 1.941 . S
O264 C271 1.266 . S
H265 C267 0.959 . S
H266 C267 0.961 . S
C267 C257 1.510 . S
C267 H265 0.959 . S
C267 H266 0.961 . S
C267 H268 0.960 . S
H268 C267 0.960 . S
H269 N249 0.862 . S
O270 Co238 1.920 . S
O270 C243 1.289 . S
C271 O263 1.258 . S
C271 O264 1.266 . S
H272 C284 0.930 . S
H273 C286 0.930 . S
H274 C287 0.930 . S
H275 C291 0.959 . S
H276 C291 0.959 . S
H277 C291 0.961 . S
H278 C292 0.960 . S
H279 C292 0.961 . S
H280 C292 0.959 . S
H281 C295 0.929 . S
H282 C296 0.931 . S
H283 C298 0.930 1_556 S
C284 H272 0.930 . S
C284 C285 1.399 1_556 S
C284 C289 1.399 . S
C285 C284 1.399 1_554 S
C285 C286 1.376 . S
C286 H273 0.930 . S
C286 C285 1.376 . S
C286 C287 1.388 . S
C287 H274 0.930 . S
C287 C286 1.388 . S
C287 C288 1.390 . S
C288 C287 1.390 . S
C288 C289 1.394 1_554 S
C288 C294 1.465 . S
C289 C284 1.399 . S
C289 C288 1.394 1_556 S
C289 C290 1.516 . S
C290 C289 1.516 . S
C290 C291 1.502 . S
C290 C292 1.561 . S
C290 C293 1.526 1_556 S
C291 H275 0.959 . S
C291 H276 0.959 . S
C291 H277 0.961 . S
C291 C290 1.502 . S
C292 H278 0.960 . S
C292 H279 0.961 . S
C292 H280 0.959 . S
C292 C290 1.561 . S
C293 C290 1.526 1_554 S
C293 C294 1.396 . S
C293 C298 1.390 . S
C294 C288 1.465 . S
C294 C293 1.396 . S
C294 C295 1.399 . S
C295 H281 0.929 . S
C295 C294 1.399 . S
C295 C296 1.385 . S
C296 H282 0.931 . S
C296 C295 1.385 . S
C296 C297 1.389 . S
C297 C296 1.389 . S
C297 C298 1.387 . S
C298 H283 0.930 1_554 S
C298 C293 1.390 . S
C298 C297 1.387 . S
H299 C311 0.930 . S
H300 C313 0.930 . S
H301 C314 0.930 . S
H302 C318 0.959 . S
H303 C318 0.959 . S
H304 C318 0.961 . S
H305 C319 0.960 . S
H306 C319 0.961 . S
H307 C319 0.959 . S
H308 C322 0.929 . S
H309 C323 0.931 . S
H310 C325 0.930 . S
C311 H299 0.930 . S
C311 C312 1.399 . S
C311 C316 1.399 . S
C312 C311 1.399 . S
C312 C313 1.376 . S
C313 H300 0.930 . S
C313 C312 1.376 . S
C313 C314 1.388 . S
C314 H301 0.930 . S
C314 C313 1.388 . S
C314 C315 1.390 . S
C315 C314 1.390 . S
C315 C316 1.394 . S
C315 C321 1.465 . S
C316 C311 1.399 . S
C316 C315 1.394 . S
C316 C317 1.516 . S
C317 C316 1.516 . S
C317 C318 1.502 . S
C317 C319 1.561 . S
C317 C320 1.526 . S
C318 H302 0.959 . S
C318 H303 0.959 . S
C318 H304 0.961 . S
C318 C317 1.502 . S
C319 H305 0.960 . S
C319 H306 0.961 . S
C319 H307 0.959 . S
C319 C317 1.561 . S
C320 C317 1.526 . S
C320 C321 1.396 . S
C320 C325 1.390 . S
C321 C315 1.465 . S
C321 C320 1.396 . S
C321 C322 1.399 . S
C322 H308 0.929 . S
C322 C321 1.399 . S
C322 C323 1.385 . S
C323 H309 0.931 . S
C323 C322 1.385 . S
C323 C324 1.389 . S
C324 C323 1.389 . S
C324 C325 1.387 . S
C325 H310 0.930 . S
C325 C320 1.390 . S
C325 C324 1.387 . S
H326 C338 0.930 . S
H327 C340 0.930 . S
H328 C341 0.930 . S
H329 C345 0.959 . S
H330 C345 0.959 . S
H331 C345 0.961 . S
H332 C346 0.960 . S
H333 C346 0.961 . S
H334 C346 0.959 . S
H335 C349 0.929 . S
H336 C350 0.931 . S
H337 C352 0.930 . S
C338 H326 0.930 . S
C338 C339 1.399 . S
C338 C343 1.399 . S
C339 C338 1.399 . S
C339 C340 1.376 . S
C340 H327 0.930 . S
C340 C339 1.376 . S
C340 C341 1.388 . S
C341 H328 0.930 . S
C341 C340 1.388 . S
C341 C342 1.390 . S
C342 C341 1.390 . S
C342 C343 1.394 . S
C342 C348 1.465 . S
C343 C338 1.399 . S
C343 C342 1.394 . S
C343 C344 1.516 . S
C344 C343 1.516 . S
C344 C345 1.502 . S
C344 C346 1.561 . S
C344 C347 1.526 . S
C345 H329 0.959 . S
C345 H330 0.959 . S
C345 H331 0.961 . S
C345 C344 1.502 . S
C346 H332 0.960 . S
C346 H333 0.961 . S
C346 H334 0.959 . S
C346 C344 1.561 . S
C347 C344 1.526 . S
C347 C348 1.396 . S
C347 C352 1.390 . S
C348 C342 1.465 . S
C348 C347 1.396 . S
C348 C349 1.399 . S
C349 H335 0.929 . S
C349 C348 1.399 . S
C349 C350 1.385 . S
C350 H336 0.931 . S
C350 C349 1.385 . S
C350 C351 1.389 . S
C351 C350 1.389 . S
C351 C352 1.387 . S
C352 H337 0.930 . S
C352 C347 1.390 . S
C352 C351 1.387 . S
H353 C365 0.930 . S
H354 C367 0.930 . S
H355 C368 0.930 . S
H356 C372 0.959 . S
H357 C372 0.959 . S
H358 C372 0.961 . S
H359 C373 0.960 . S
H360 C373 0.961 . S
H361 C373 0.959 . S
H362 C376 0.929 1_545 S
H363 C377 0.931 . S
H364 C379 0.930 . S
C365 H353 0.930 . S
C365 C366 1.399 . S
C365 C370 1.399 . S
C366 C365 1.399 . S
C366 C367 1.376 1_455 S
C367 H354 0.930 . S
C367 C366 1.376 1_655 S
C367 C368 1.388 1_655 S
C368 H355 0.930 . S
C368 C367 1.388 1_455 S
C368 C369 1.390 . S
C369 C368 1.390 . S
C369 C370 1.394 . S
C369 C375 1.465 . S
C370 C365 1.399 . S
C370 C369 1.394 . S
C370 C371 1.516 . S
C371 C370 1.516 . S
C371 C372 1.502 . S
C371 C373 1.561 . S
C371 C374 1.526 . S
C372 H356 0.959 . S
C372 H357 0.959 . S
C372 H358 0.961 . S
C372 C371 1.502 . S
C373 H359 0.960 . S
C373 H360 0.961 . S
C373 H361 0.959 . S
C373 C371 1.561 . S
C374 C371 1.526 . S
C374 C375 1.396 . S
C374 C379 1.390 . S
C375 C369 1.465 . S
C375 C374 1.396 . S
C375 C376 1.399 . S
C376 H362 0.929 1_565 S
C376 C375 1.399 . S
C376 C377 1.385 1_565 S
C377 H363 0.931 . S
C377 C376 1.385 1_545 S
C377 C378 1.389 1_545 S
C378 C377 1.389 1_565 S
C378 C379 1.387 . S
C379 H364 0.930 . S
C379 C374 1.390 . S
C379 C378 1.387 . S
H380 C392 0.930 . S
H381 C394 0.930 . S
H382 C395 0.930 . S
H383 C399 0.959 . S
H384 C399 0.959 . S
H385 C399 0.961 . S
H386 C400 0.960 . S
H387 C400 0.961 . S
H388 C400 0.959 . S
H389 C403 0.929 . S
H390 C404 0.931 . S
H391 C406 0.930 . S
C392 H380 0.930 . S
C392 C393 1.399 . S
C392 C397 1.399 . S
C393 C392 1.399 . S
C393 C394 1.376 . S
C394 H381 0.930 . S
C394 C393 1.376 . S
C394 C395 1.388 . S
C395 H382 0.930 . S
C395 C394 1.388 . S
C395 C396 1.390 . S
C396 C395 1.390 . S
C396 C397 1.394 . S
C396 C402 1.465 . S
C397 C392 1.399 . S
C397 C396 1.394 . S
C397 C398 1.516 . S
C398 C397 1.516 . S
C398 C399 1.502 . S
C398 C400 1.561 . S
C398 C401 1.526 . S
C399 H383 0.959 . S
C399 H384 0.959 . S
C399 H385 0.961 . S
C399 C398 1.502 . S
C400 H386 0.960 . S
C400 H387 0.961 . S
C400 H388 0.959 . S
C400 C398 1.561 . S
C401 C398 1.526 . S
C401 C402 1.396 . S
C401 C406 1.390 . S
C402 C396 1.465 . S
C402 C401 1.396 . S
C402 C403 1.399 . S
C403 H389 0.929 . S
C403 C402 1.399 . S
C403 C404 1.385 . S
C404 H390 0.931 . S
C404 C403 1.385 . S
C404 C405 1.389 . S
C405 C404 1.389 . S
C405 C406 1.387 . S
C406 H391 0.930 . S
C406 C401 1.390 . S
C406 C405 1.387 . S
H407 C419 0.930 . S
H408 C421 0.930 . S
H409 C422 0.930 . S
H410 C426 0.959 . S
H411 C426 0.959 . S
H412 C426 0.961 . S
H413 C427 0.960 . S
H414 C427 0.961 . S
H415 C427 0.959 . S
H416 C430 0.929 . S
H417 C431 0.931 . S
H418 C433 0.930 . S
C419 H407 0.930 . S
C419 C420 1.399 . S
C419 C424 1.399 . S
C420 C419 1.399 . S
C420 C421 1.376 . S
C421 H408 0.930 . S
C421 C420 1.376 . S
C421 C422 1.388 . S
C422 H409 0.930 . S
C422 C421 1.388 . S
C422 C423 1.390 . S
C423 C422 1.390 . S
C423 C424 1.394 . S
C423 C429 1.465 . S
C424 C419 1.399 . S
C424 C423 1.394 . S
C424 C425 1.516 . S
C425 C424 1.516 . S
C425 C426 1.502 . S
C425 C427 1.561 . S
C425 C428 1.526 . S
C426 H410 0.959 . S
C426 H411 0.959 . S
C426 H412 0.961 . S
C426 C425 1.502 . S
C427 H413 0.960 . S
C427 H414 0.961 . S
C427 H415 0.959 . S
C427 C425 1.561 . S
C428 C425 1.526 . S
C428 C429 1.396 . S
C428 C433 1.390 . S
C429 C423 1.465 . S
C429 C428 1.396 . S
C429 C430 1.399 . S
C430 H416 0.929 . S
C430 C429 1.399 . S
C430 C431 1.385 . S
C431 H417 0.931 . S
C431 C430 1.385 . S
C431 C432 1.389 . S
C432 C431 1.389 . S
C432 C433 1.387 . S
C433 H418 0.930 . S
C433 C428 1.390 . S
C433 C432 1.387 . S
H434 C446 0.930 . S
H435 C448 0.930 . S
H436 C449 0.930 . S
H437 C453 0.959 . S
H438 C453 0.959 . S
H439 C453 0.961 . S
H440 C454 0.960 . S
H441 C454 0.961 . S
H442 C454 0.959 . S
H443 C457 0.929 . S
H444 C458 0.931 . S
H445 C460 0.930 . S
C446 H434 0.930 . S
C446 C447 1.399 . S
C446 C451 1.399 . S
C447 C446 1.399 . S
C447 C448 1.376 . S
C448 H435 0.930 . S
C448 C447 1.376 . S
C448 C449 1.388 . S
C449 H436 0.930 . S
C449 C448 1.388 . S
C449 C450 1.390 . S
C450 C449 1.390 . S
C450 C451 1.394 . S
C450 C456 1.465 . S
C451 C446 1.399 . S
C451 C450 1.394 . S
C451 C452 1.516 . S
C452 C451 1.516 . S
C452 C453 1.502 . S
C452 C454 1.561 . S
C452 C455 1.526 . S
C453 H437 0.959 . S
C453 H438 0.959 . S
C453 H439 0.961 . S
C453 C452 1.502 . S
C454 H440 0.960 . S
C454 H441 0.961 . S
C454 H442 0.959 . S
C454 C452 1.561 . S
C455 C452 1.526 . S
C455 C456 1.396 . S
C455 C460 1.390 . S
C456 C450 1.465 . S
C456 C455 1.396 . S
C456 C457 1.399 . S
C457 H443 0.929 . S
C457 C456 1.399 . S
C457 C458 1.385 . S
C458 H444 0.931 . S
C458 C457 1.385 . S
C458 C459 1.389 . S
C459 C458 1.389 . S
C459 C460 1.387 . S
C460 H445 0.930 . S
C460 C455 1.390 . S
C460 C459 1.387 . S
H461 C473 0.930 . S
H462 C475 0.930 . S
H463 C476 0.930 . S
H464 C480 0.959 . S
H465 C480 0.959 . S
H466 C480 0.961 . S
H467 C481 0.960 . S
H468 C481 0.961 . S
H469 C481 0.959 . S
H470 C484 0.929 . S
H471 C485 0.931 . S
H472 C487 0.930 . S
C473 H461 0.930 . S
C473 C474 1.399 . S
C473 C478 1.399 . S
C474 C473 1.399 . S
C474 C475 1.376 . S
C475 H462 0.930 . S
C475 C474 1.376 . S
C475 C476 1.388 . S
C476 H463 0.930 . S
C476 C475 1.388 . S
C476 C477 1.390 1_556 S
C477 C476 1.390 1_554 S
C477 C478 1.394 1_554 S
C477 C483 1.465 . S
C478 C473 1.399 . S
C478 C477 1.394 1_556 S
C478 C479 1.516 1_556 S
C479 C478 1.516 1_554 S
C479 C480 1.502 . S
C479 C481 1.561 1_554 S
C479 C482 1.526 . S
C480 H464 0.959 . S
C480 H465 0.959 . S
C480 H466 0.961 . S
C480 C479 1.502 . S
C481 H467 0.960 . S
C481 H468 0.961 . S
C481 H469 0.959 . S
C481 C479 1.561 1_556 S
C482 C479 1.526 . S
C482 C483 1.396 . S
C482 C487 1.390 . S
C483 C477 1.465 . S
C483 C482 1.396 . S
C483 C484 1.399 . S
C484 H470 0.929 . S
C484 C483 1.399 . S
C484 C485 1.385 . S
C485 H471 0.931 . S
C485 C484 1.385 . S
C485 C486 1.389 . S
C486 C485 1.389 . S
C486 C487 1.387 . S
C487 H472 0.930 . S
C487 C482 1.390 . S
C487 C486 1.387 . S
H488 C500 0.930 . S
H489 C502 0.930 . S
H490 C503 0.930 . S
H491 C507 0.959 . S
H492 C507 0.959 . S
H493 C507 0.961 . S
H494 C508 0.960 . S
H495 C508 0.961 . S
H496 C508 0.959 . S
H497 C511 0.929 . S
H498 C512 0.931 . S
H499 C514 0.930 . S
C500 H488 0.930 . S
C500 C501 1.399 . S
C500 C505 1.399 . S
C501 C500 1.399 . S
C501 C502 1.376 . S
C502 H489 0.930 . S
C502 C501 1.376 . S
C502 C503 1.388 . S
C503 H490 0.930 . S
C503 C502 1.388 . S
C503 C504 1.390 . S
C504 C503 1.390 . S
C504 C505 1.394 . S
C504 C510 1.465 . S
C505 C500 1.399 . S
C505 C504 1.394 . S
C505 C506 1.516 . S
C506 C505 1.516 . S
C506 C507 1.502 . S
C506 C508 1.561 . S
C506 C509 1.526 . S
C507 H491 0.959 . S
C507 H492 0.959 . S
C507 H493 0.961 . S
C507 C506 1.502 . S
C508 H494 0.960 . S
C508 H495 0.961 . S
C508 H496 0.959 . S
C508 C506 1.561 . S
C509 C506 1.526 . S
C509 C510 1.396 . S
C509 C514 1.390 . S
C510 C504 1.465 . S
C510 C509 1.396 . S
C510 C511 1.399 . S
C511 H497 0.929 . S
C511 C510 1.399 . S
C511 C512 1.385 . S
C512 H498 0.931 . S
C512 C511 1.385 . S
C512 C513 1.389 . S
C513 C512 1.389 . S
C513 C514 1.387 . S
C514 H499 0.930 . S
C514 C509 1.390 . S
C514 C513 1.387 . S
H515 C527 0.930 . S
H516 C529 0.930 . S
H517 C530 0.930 . S
H518 C534 0.959 . S
H519 C534 0.959 . S
H520 C534 0.961 . S
H521 C535 0.960 . S
H522 C535 0.961 1_556 S
H523 C535 0.959 . S
H524 C538 0.929 . S
H525 C539 0.931 . S
H526 C541 0.930 . S
C527 H515 0.930 . S
C527 C528 1.399 . S
C527 C532 1.399 . S
C528 C527 1.399 . S
C528 C529 1.376 . S
C529 H516 0.930 . S
C529 C528 1.376 . S
C529 C530 1.388 . S
C530 H517 0.930 . S
C530 C529 1.388 . S
C530 C531 1.390 . S
C531 C530 1.390 . S
C531 C532 1.394 . S
C531 C537 1.465 . S
C532 C527 1.399 . S
C532 C531 1.394 . S
C532 C533 1.522 . S
C533 C532 1.522 . S
C533 C534 1.498 1_554 S
C533 C535 1.561 . S
C533 C536 1.523 1_554 S
C534 H518 0.959 . S
C534 H519 0.959 . S
C534 H520 0.961 . S
C534 C533 1.498 1_556 S
C535 H521 0.960 . S
C535 H522 0.961 1_554 S
C535 H523 0.959 . S
C535 C533 1.561 . S
C536 C533 1.523 1_556 S
C536 C537 1.396 1_556 S
C536 C541 1.390 . S
C537 C531 1.465 . S
C537 C536 1.396 1_554 S
C537 C538 1.399 . S
C538 H524 0.929 . S
C538 C537 1.399 . S
C538 C539 1.385 1_554 S
C539 H525 0.931 . S
C539 C538 1.385 1_556 S
C539 C540 1.389 . S
C540 C539 1.389 . S
C540 C541 1.387 . S
C541 H526 0.930 . S
C541 C536 1.390 . S
C541 C540 1.387 . S
H542 C554 0.930 . S
H543 C556 0.930 . S
H544 C557 0.930 . S
H545 C561 0.959 . S
H546 C561 0.959 . S
H547 C561 0.961 . S
H548 C562 0.960 . S
H549 C562 0.961 . S
H550 C562 0.959 . S
H551 C565 0.929 . S
H552 C566 0.931 . S
H553 C568 0.930 . S
C554 H542 0.930 . S
C554 C555 1.399 . S
C554 C559 1.399 . S
C555 C554 1.399 . S
C555 C556 1.376 . S
C556 H543 0.930 . S
C556 C555 1.376 . S
C556 C557 1.388 . S
C557 H544 0.930 . S
C557 C556 1.388 . S
C557 C558 1.390 . S
C558 C557 1.390 . S
C558 C559 1.394 . S
C558 C564 1.465 . S
C559 C554 1.399 . S
C559 C558 1.394 . S
C559 C560 1.516 . S
C560 C559 1.516 . S
C560 C561 1.502 . S
C560 C562 1.561 . S
C560 C563 1.526 . S
C561 H545 0.959 . S
C561 H546 0.959 . S
C561 H547 0.961 . S
C561 C560 1.502 . S
C562 H548 0.960 . S
C562 H549 0.961 . S
C562 H550 0.959 . S
C562 C560 1.561 . S
C563 C560 1.526 . S
C563 C564 1.396 . S
C563 C568 1.390 . S
C564 C558 1.465 . S
C564 C563 1.396 . S
C564 C565 1.399 . S
C565 H551 0.929 . S
C565 C564 1.399 . S
C565 C566 1.385 . S
C566 H552 0.931 . S
C566 C565 1.385 . S
C566 C567 1.389 . S
C567 C566 1.389 . S
C567 C568 1.387 . S
C568 H553 0.930 . S
C568 C563 1.390 . S
C568 C567 1.387 . S
H569 C581 0.930 . S
H570 C583 0.930 . S
H571 C584 0.930 . S
H572 C588 0.959 . S
H573 C588 0.959 . S
H574 C588 0.961 . S
H575 C589 0.960 . S
H576 C589 0.961 . S
H577 C589 0.959 . S
H578 C592 0.929 . S
H579 C593 0.931 . S
H580 C595 0.930 . S
C581 H569 0.930 . S
C581 C582 1.399 . S
C581 C586 1.399 . S
C582 C581 1.399 . S
C582 C583 1.376 . S
C583 H570 0.930 . S
C583 C582 1.376 . S
C583 C584 1.388 . S
C584 H571 0.930 . S
C584 C583 1.388 . S
C584 C585 1.390 . S
C585 C584 1.390 . S
C585 C586 1.394 . S
C585 C591 1.465 . S
C586 C581 1.399 . S
C586 C585 1.394 . S
C586 C587 1.516 . S
C587 C586 1.516 . S
C587 C588 1.502 . S
C587 C589 1.561 . S
C587 C590 1.526 . S
C588 H572 0.959 . S
C588 H573 0.959 . S
C588 H574 0.961 . S
C588 C587 1.502 . S
C589 H575 0.960 . S
C589 H576 0.961 . S
C589 H577 0.959 . S
C589 C587 1.561 . S
C590 C587 1.526 . S
C590 C591 1.396 . S
C590 C595 1.390 . S
C591 C585 1.465 . S
C591 C590 1.396 . S
C591 C592 1.399 . S
C592 H578 0.929 . S
C592 C591 1.399 . S
C592 C593 1.385 . S
C593 H579 0.931 . S
C593 C592 1.385 . S
C593 C594 1.389 . S
C594 C593 1.389 . S
C594 C595 1.387 . S
C595 H580 0.930 . S
C595 C590 1.390 . S
C595 C594 1.387 . S
H596 C608 0.930 . S
H597 C610 0.930 . S
H598 C611 0.930 . S
H599 C615 0.959 . S
H600 C615 0.959 . S
H601 C615 0.961 . S
H602 C616 0.960 . S
H603 C616 0.961 . S
H604 C616 0.959 . S
H605 C619 0.929 . S
H606 C620 0.931 . S
H607 C622 0.906 1_545 S
C608 H596 0.930 . S
C608 C609 1.399 . S
C608 C613 1.399 . S
C609 C608 1.399 . S
C609 C610 1.376 . S
C610 H597 0.930 . S
C610 C609 1.376 . S
C610 C611 1.388 . S
C611 H598 0.930 . S
C611 C610 1.388 . S
C611 C612 1.390 . S
C612 C611 1.390 . S
C612 C613 1.394 . S
C612 C618 1.465 . S
C613 C608 1.399 . S
C613 C612 1.394 . S
C613 C614 1.516 . S
C614 C613 1.516 . S
C614 C615 1.502 . S
C614 C616 1.561 . S
C614 C617 1.526 . S
C615 H599 0.959 . S
C615 H600 0.959 . S
C615 H601 0.961 . S
C615 C614 1.502 . S
C616 H602 0.960 . S
C616 H603 0.961 . S
C616 H604 0.959 . S
C616 C614 1.561 . S
C617 C614 1.526 . S
C617 C618 1.396 . S
C617 C622 1.419 . S
C618 C612 1.465 . S
C618 C617 1.396 . S
C618 C619 1.399 . S
C619 H605 0.929 . S
C619 C618 1.399 . S
C619 C620 1.385 . S
C620 H606 0.931 . S
C620 C619 1.385 . S
C620 C621 1.389 1_565 S
C621 C620 1.389 1_545 S
C621 C622 1.381 1_545 S
C622 H607 0.906 1_565 S
C622 C617 1.419 . S
C622 C621 1.381 1_565 S
H623 C635 0.930 . S
H624 C637 0.930 . S
H625 C638 0.930 . S
H626 C642 0.959 . S
H627 C642 0.959 . S
H628 C642 0.961 . S
H629 C643 0.960 . S
H630 C643 0.961 . S
H631 C643 0.959 . S
H632 C646 0.929 . S
H633 C647 0.931 . S
H634 C649 0.930 . S
C635 H623 0.930 . S
C635 C636 1.399 . S
C635 C640 1.399 . S
C636 C635 1.399 . S
C636 C637 1.376 . S
C637 H624 0.930 . S
C637 C636 1.376 . S
C637 C638 1.388 . S
C638 H625 0.930 . S
C638 C637 1.388 . S
C638 C639 1.390 . S
C639 C638 1.390 . S
C639 C640 1.394 . S
C639 C645 1.465 . S
C640 C635 1.399 . S
C640 C639 1.394 . S
C640 C641 1.516 . S
C641 C640 1.516 . S
C641 C642 1.502 . S
C641 C643 1.561 . S
C641 C644 1.526 . S
C642 H626 0.959 . S
C642 H627 0.959 . S
C642 H628 0.961 . S
C642 C641 1.502 . S
C643 H629 0.960 . S
C643 H630 0.961 . S
C643 H631 0.959 . S
C643 C641 1.561 . S
C644 C641 1.526 . S
C644 C645 1.396 . S
C644 C649 1.390 . S
C645 C639 1.465 . S
C645 C644 1.396 . S
C645 C646 1.399 . S
C646 H632 0.929 . S
C646 C645 1.399 . S
C646 C647 1.385 . S
C647 H633 0.931 . S
C647 C646 1.385 . S
C647 C648 1.389 . S
C648 C647 1.389 . S
C648 C649 1.387 . S
C649 H634 0.930 . S
C649 C644 1.390 . S
C649 C648 1.387 . S
H650 C662 0.930 . S
H651 C664 0.930 . S
H652 C665 0.930 . S
H653 C669 0.959 . S
H654 C669 0.959 . S
H655 C669 0.953 1_565 S
H656 C670 0.960 . S
H657 C670 0.961 . S
H658 C670 0.959 . S
H659 C673 0.929 . S
H660 C674 0.931 . S
H661 C676 0.930 . S
C662 H650 0.930 . S
C662 C663 1.399 . S
C662 C667 1.399 1_565 S
C663 C662 1.399 . S
C663 C664 1.376 1_565 S
C664 H651 0.930 . S
C664 C663 1.376 1_545 S
C664 C665 1.388 . S
C665 H652 0.930 . S
C665 C664 1.388 . S
C665 C666 1.390 . S
C666 C665 1.390 . S
C666 C667 1.394 . S
C666 C672 1.465 . S
C667 C662 1.399 1_545 S
C667 C666 1.394 . S
C667 C668 1.516 . S
C668 C667 1.516 . S
C668 C669 1.502 . S
C668 C670 1.561 . S
C668 C671 1.526 . S
C669 H653 0.959 . S
C669 H654 0.959 . S
C669 H655 0.953 1_545 S
C669 C668 1.502 . S
C670 H656 0.960 . S
C670 H657 0.961 . S
C670 H658 0.959 . S
C670 C668 1.561 . S
C671 C668 1.526 . S
C671 C672 1.396 . S
C671 C676 1.390 . S
C672 C666 1.465 . S
C672 C671 1.396 . S
C672 C673 1.399 . S
C673 H659 0.929 . S
C673 C672 1.399 . S
C673 C674 1.385 . S
C674 H660 0.931 . S
C674 C673 1.385 . S
C674 C675 1.389 . S
C675 C674 1.389 . S
C675 C676 1.387 . S
C676 H661 0.930 . S
C676 C671 1.390 . S
C676 C675 1.387 . S
H677 C689 0.930 . S
H678 C691 0.930 . S
H679 C692 0.930 . S
H680 C696 0.959 . S
H681 C696 0.959 . S
H682 C696 0.961 . S
H683 C697 0.960 . S
H684 C697 0.961 . S
H685 C697 0.959 . S
H686 C700 0.929 . S
H687 C701 0.931 . S
H688 C703 0.930 . S
C689 H677 0.930 . S
C689 C690 1.399 . S
C689 C694 1.399 . S
C690 C689 1.399 . S
C690 C691 1.376 . S
C691 H678 0.930 . S
C691 C690 1.376 . S
C691 C692 1.388 . S
C692 H679 0.930 . S
C692 C691 1.388 . S
C692 C693 1.390 . S
C693 C692 1.390 . S
C693 C694 1.394 . S
C693 C699 1.465 . S
C694 C689 1.399 . S
C694 C693 1.394 . S
C694 C695 1.516 . S
C695 C694 1.516 . S
C695 C696 1.502 . S
C695 C697 1.561 . S
C695 C698 1.526 . S
C696 H680 0.959 . S
C696 H681 0.959 . S
C696 H682 0.961 . S
C696 C695 1.502 . S
C697 H683 0.960 . S
C697 H684 0.961 . S
C697 H685 0.959 . S
C697 C695 1.561 . S
C698 C695 1.526 . S
C698 C699 1.396 . S
C698 C703 1.390 . S
C699 C693 1.465 . S
C699 C698 1.396 . S
C699 C700 1.399 . S
C700 H686 0.929 . S
C700 C699 1.399 . S
C700 C701 1.385 . S
C701 H687 0.931 . S
C701 C700 1.385 . S
C701 C702 1.389 . S
C702 C701 1.389 . S
C702 C703 1.387 . S
C703 H688 0.930 . S
C703 C698 1.390 . S
C703 C702 1.387 . S
H704 C716 0.930 . S
H705 C718 0.930 . S
H706 C719 0.930 . S
H707 C723 0.959 . S
H708 C723 0.959 1_554 S
H709 C723 0.961 . S
H710 C724 0.960 . S
H711 C724 0.961 . S
H712 C724 0.959 . S
H713 C727 0.929 . S
H714 C728 0.931 . S
H715 C730 0.930 . S
C716 H704 0.930 . S
C716 C717 1.399 . S
C716 C721 1.399 . S
C717 C716 1.399 . S
C717 C718 1.376 . S
C718 H705 0.930 . S
C718 C717 1.376 . S
C718 C719 1.388 . S
C719 H706 0.930 . S
C719 C718 1.388 . S
C719 C720 1.390 . S
C720 C719 1.390 . S
C720 C721 1.394 . S
C720 C726 1.465 . S
C721 C716 1.399 . S
C721 C720 1.394 . S
C721 C722 1.516 . S
C722 C721 1.516 . S
C722 C723 1.502 . S
C722 C724 1.561 . S
C722 C725 1.526 . S
C723 H707 0.959 . S
C723 H708 0.959 1_556 S
C723 H709 0.961 . S
C723 C722 1.502 . S
C724 H710 0.960 . S
C724 H711 0.961 . S
C724 H712 0.959 . S
C724 C722 1.561 . S
C725 C722 1.526 . S
C725 C726 1.396 . S
C725 C730 1.390 . S
C726 C720 1.465 . S
C726 C725 1.396 . S
C726 C727 1.399 . S
C727 H713 0.929 . S
C727 C726 1.399 . S
C727 C728 1.385 . S
C728 H714 0.931 . S
C728 C727 1.385 . S
C728 C729 1.389 . S
C729 C728 1.389 . S
C729 C730 1.387 . S
C730 H715 0.930 . S
C730 C725 1.390 . S
C730 C729 1.387 . S
H731 C743 0.930 . S
H732 C745 0.930 . S
H733 C746 0.930 . S
H734 C750 0.959 . S
H735 C750 0.959 . S
H736 C750 0.961 . S
H737 C751 0.960 . S
H738 C751 0.961 . S
H739 C751 0.959 . S
H740 C754 0.929 . S
H741 C755 0.931 . S
H742 C757 0.930 . S
C743 H731 0.930 . S
C743 C744 1.399 1_655 S
C743 C748 1.399 . S
C744 C743 1.399 1_455 S
C744 C745 1.376 . S
C745 H732 0.930 . S
C745 C744 1.376 . S
C745 C746 1.388 1_455 S
C746 H733 0.930 . S
C746 C745 1.388 1_655 S
C746 C747 1.390 . S
C747 C746 1.390 . S
C747 C748 1.394 . S
C747 C753 1.465 . S
C748 C743 1.399 . S
C748 C747 1.394 . S
C748 C749 1.516 . S
C749 C748 1.516 . S
C749 C750 1.502 . S
C749 C751 1.561 . S
C749 C752 1.526 . S
C750 H734 0.959 . S
C750 H735 0.959 . S
C750 H736 0.961 . S
C750 C749 1.502 . S
C751 H737 0.960 . S
C751 H738 0.961 . S
C751 H739 0.959 . S
C751 C749 1.561 . S
C752 C749 1.526 . S
C752 C753 1.396 . S
C752 C757 1.390 . S
C753 C747 1.465 . S
C753 C752 1.396 . S
C753 C754 1.399 . S
C754 H740 0.929 . S
C754 C753 1.399 . S
C754 C755 1.385 . S
C755 H741 0.931 . S
C755 C754 1.385 . S
C755 C756 1.389 . S
C756 C755 1.389 . S
C756 C757 1.387 . S
C757 H742 0.930 . S
C757 C752 1.390 . S
C757 C756 1.387 . S
H758 C770 0.930 . S
H759 C772 0.930 . S
H760 C773 0.930 . S
H761 C777 0.959 . S
H762 C777 0.959 . S
H763 C777 0.961 . S
H764 C778 0.960 . S
H765 C778 0.961 . S
H766 C778 0.959 . S
H767 C781 0.929 . S
H768 C782 0.931 . S
H769 C784 0.930 . S
C770 H758 0.930 . S
C770 C771 1.399 . S
C770 C775 1.399 . S
C771 C770 1.399 . S
C771 C772 1.376 . S
C772 H759 0.930 . S
C772 C771 1.376 . S
C772 C773 1.388 . S
C773 H760 0.930 . S
C773 C772 1.388 . S
C773 C774 1.390 . S
C774 C773 1.390 . S
C774 C775 1.394 . S
C774 C780 1.465 . S
C775 C770 1.399 . S
C775 C774 1.394 . S
C775 C776 1.516 . S
C776 C775 1.516 . S
C776 C777 1.502 . S
C776 C778 1.561 . S
C776 C779 1.526 . S
C777 H761 0.959 . S
C777 H762 0.959 . S
C777 H763 0.961 . S
C777 C776 1.502 . S
C778 H764 0.960 . S
C778 H765 0.961 . S
C778 H766 0.959 . S
C778 C776 1.561 . S
C779 C776 1.526 . S
C779 C780 1.396 . S
C779 C784 1.390 . S
C780 C774 1.465 . S
C780 C779 1.396 . S
C780 C781 1.399 . S
C781 H767 0.929 . S
C781 C780 1.399 . S
C781 C782 1.385 . S
C782 H768 0.931 . S
C782 C781 1.385 . S
C782 C783 1.389 . S
C783 C782 1.389 . S
C783 C784 1.387 . S
C784 H769 0.930 . S
C784 C779 1.390 . S
C784 C783 1.387 . S
H785 C797 0.930 . S
H786 C799 0.930 . S
H787 C800 0.930 . S
H788 C804 0.959 . S
H789 C804 0.959 . S
H790 C804 0.961 . S
H791 C805 0.960 . S
H792 C805 0.961 . S
H793 C805 0.959 . S
H794 C808 0.929 . S
H795 C809 0.931 . S
H796 C811 0.930 . S
C797 H785 0.930 . S
C797 C798 1.399 . S
C797 C802 1.399 . S
C798 C797 1.399 . S
C798 C799 1.376 . S
C799 H786 0.930 . S
C799 C798 1.376 . S
C799 C800 1.388 . S
C800 H787 0.930 . S
C800 C799 1.388 . S
C800 C801 1.390 . S
C801 C800 1.390 . S
C801 C802 1.394 . S
C801 C807 1.465 . S
C802 C797 1.399 . S
C802 C801 1.394 . S
C802 C803 1.516 . S
C803 C802 1.516 . S
C803 C804 1.502 . S
C803 C805 1.561 . S
C803 C806 1.526 . S
C804 H788 0.959 . S
C804 H789 0.959 . S
C804 H790 0.961 . S
C804 C803 1.502 . S
C805 H791 0.960 . S
C805 H792 0.961 . S
C805 H793 0.959 . S
C805 C803 1.561 . S
C806 C803 1.526 . S
C806 C807 1.396 . S
C806 C811 1.390 . S
C807 C801 1.465 . S
C807 C806 1.396 . S
C807 C808 1.399 . S
C808 H794 0.929 . S
C808 C807 1.399 . S
C808 C809 1.385 1_455 S
C809 H795 0.931 . S
C809 C808 1.385 1_655 S
C809 C810 1.389 . S
C810 C809 1.389 . S
C810 C811 1.387 1_655 S
C811 H796 0.930 . S
C811 C806 1.390 . S
C811 C810 1.387 1_455 S
C285 C175 1.384 . S
C297 C5 1.412 . S
C312 C209 1.359 1_655 S
C324 C39 1.397 1_545 S
C339 C73 1.370 . S
C351 C243 1.346 . S
C366 C141 1.413 1_455 S
C378 C107 1.395 1_565 S
C393 C271 1.450 . S
C405 C33 1.437 . S
C420 C67 1.445 . S
C432 C169 1.438 . S
C447 C203 1.441 . S
C459 C101 1.441 . S
C474 C135 1.441 . S
C486 C237 1.442 . S
C501 C258 1.387 . S
C513 C20 1.388 . S
C528 C54 1.397 . S
C540 C156 1.392 . S
C555 C190 1.387 . S
C567 C88 1.390 . S
C582 C224 1.389 . S
C594 C122 1.387 . S
C609 C9 1.611 1_556 S
C621 C104 1.634 . S
C636 C2 1.635 . S
C648 C43 1.614 . S
C663 C36 1.635 . S
C675 C77 1.615 . S
C690 C70 1.663 . S
C702 C111 1.654 . S
C717 C145 1.621 . S
C729 C172 1.644 . S
C744 C206 1.666 . S
C756 C179 1.657 . S
C771 C240 1.664 . S
C783 C213 1.652 . S
C798 C247 1.656 . S
C810 C138 1.666 . S
