# Generated by pormake.
# Topology fnl, (5)-cn, num edge types: 1
# Building blocks:
#     Node 0, Type 0, BuildingBlock: XOMCOT_clean_sbu_0, # of connection points: 5
#     Node 1, Type 0, BuildingBlock: XOMCOT_clean_sbu_0, # of connection points: 5
#     Node 2, Type 0, BuildingBlock: XOMCOT_clean_sbu_0, # of connection points: 5
#     Node 3, Type 0, BuildingBlock: XOMCOT_clean_sbu_0, # of connection points: 5
#     Node 4, Type 0, BuildingBlock: XOMCOT_clean_sbu_0, # of connection points: 5
#     Node 5, Type 0, BuildingBlock: XOMCOT_clean_sbu_0, # of connection points: 5
#     Node 6, Type 0, BuildingBlock: XOMCOT_clean_sbu_0, # of connection points: 5
#     Node 7, Type 0, BuildingBlock: XOMCOT_clean_sbu_0, # of connection points: 5
#     Node 8, Type 0, BuildingBlock: XOMCOT_clean_sbu_0, # of connection points: 5
#     Node 9, Type 0, BuildingBlock: XOMCOT_clean_sbu_0, # of connection points: 5
#     Node 10, Type 0, BuildingBlock: XOMCOT_clean_sbu_0, # of connection points: 5
#     Node 11, Type 0, BuildingBlock: XOMCOT_clean_sbu_0, # of connection points: 5
#     Node 12, Type 0, BuildingBlock: XOMCOT_clean_sbu_0, # of connection points: 5
#     Node 13, Type 0, BuildingBlock: XOMCOT_clean_sbu_0, # of connection points: 5
#     Node 14, Type 0, BuildingBlock: XOMCOT_clean_sbu_0, # of connection points: 5
#     Node 15, Type 0, BuildingBlock: XOMCOT_clean_sbu_0, # of connection points: 5
#     Edge 16, Type (0, 0), BuildingBlock: AJUNOK_clean_linker_0, # of connection points: 2
#     Edge 17, Type (0, 0), BuildingBlock: AJUNOK_clean_linker_0, # of connection points: 2
#     Edge 18, Type (0, 0), BuildingBlock: AJUNOK_clean_linker_0, # of connection points: 2
#     Edge 19, Type (0, 0), BuildingBlock: AJUNOK_clean_linker_0, # of connection points: 2
#     Edge 20, Type (0, 0), BuildingBlock: AJUNOK_clean_linker_0, # of connection points: 2
#     Edge 21, Type (0, 0), BuildingBlock: AJUNOK_clean_linker_0, # of connection points: 2
#     Edge 22, Type (0, 0), BuildingBlock: AJUNOK_clean_linker_0, # of connection points: 2
#     Edge 23, Type (0, 0), BuildingBlock: AJUNOK_clean_linker_0, # of connection points: 2
#     Edge 24, Type (0, 0), BuildingBlock: AJUNOK_clean_linker_0, # of connection points: 2
#     Edge 25, Type (0, 0), BuildingBlock: AJUNOK_clean_linker_0, # of connection points: 2
#     Edge 26, Type (0, 0), BuildingBlock: AJUNOK_clean_linker_0, # of connection points: 2
#     Edge 27, Type (0, 0), BuildingBlock: AJUNOK_clean_linker_0, # of connection points: 2
#     Edge 28, Type (0, 0), BuildingBlock: AJUNOK_clean_linker_0, # of connection points: 2
#     Edge 29, Type (0, 0), BuildingBlock: AJUNOK_clean_linker_0, # of connection points: 2
#     Edge 30, Type (0, 0), BuildingBlock: AJUNOK_clean_linker_0, # of connection points: 2
#     Edge 31, Type (0, 0), BuildingBlock: AJUNOK_clean_linker_0, # of connection points: 2
#     Edge 32, Type (0, 0), BuildingBlock: AJUNOK_clean_linker_0, # of connection points: 2
#     Edge 33, Type (0, 0), BuildingBlock: AJUNOK_clean_linker_0, # of connection points: 2
#     Edge 34, Type (0, 0), BuildingBlock: AJUNOK_clean_linker_0, # of connection points: 2
#     Edge 35, Type (0, 0), BuildingBlock: AJUNOK_clean_linker_0, # of connection points: 2
#     Edge 36, Type (0, 0), BuildingBlock: AJUNOK_clean_linker_0, # of connection points: 2
#     Edge 37, Type (0, 0), BuildingBlock: AJUNOK_clean_linker_0, # of connection points: 2
#     Edge 38, Type (0, 0), BuildingBlock: AJUNOK_clean_linker_0, # of connection points: 2
#     Edge 39, Type (0, 0), BuildingBlock: AJUNOK_clean_linker_0, # of connection points: 2
#     Edge 40, Type (0, 0), BuildingBlock: AJUNOK_clean_linker_0, # of connection points: 2
#     Edge 41, Type (0, 0), BuildingBlock: AJUNOK_clean_linker_0, # of connection points: 2
#     Edge 42, Type (0, 0), BuildingBlock: AJUNOK_clean_linker_0, # of connection points: 2
#     Edge 43, Type (0, 0), BuildingBlock: AJUNOK_clean_linker_0, # of connection points: 2
#     Edge 44, Type (0, 0), BuildingBlock: AJUNOK_clean_linker_0, # of connection points: 2
#     Edge 45, Type (0, 0), BuildingBlock: AJUNOK_clean_linker_0, # of connection points: 2
#     Edge 46, Type (0, 0), BuildingBlock: AJUNOK_clean_linker_0, # of connection points: 2
#     Edge 47, Type (0, 0), BuildingBlock: AJUNOK_clean_linker_0, # of connection points: 2
#     Edge 48, Type (0, 0), BuildingBlock: AJUNOK_clean_linker_0, # of connection points: 2
#     Edge 49, Type (0, 0), BuildingBlock: AJUNOK_clean_linker_0, # of connection points: 2
#     Edge 50, Type (0, 0), BuildingBlock: AJUNOK_clean_linker_0, # of connection points: 2
#     Edge 51, Type (0, 0), BuildingBlock: AJUNOK_clean_linker_0, # of connection points: 2
#     Edge 52, Type (0, 0), BuildingBlock: AJUNOK_clean_linker_0, # of connection points: 2
#     Edge 53, Type (0, 0), BuildingBlock: AJUNOK_clean_linker_0, # of connection points: 2
#     Edge 54, Type (0, 0), BuildingBlock: AJUNOK_clean_linker_0, # of connection points: 2
#     Edge 55, Type (0, 0), BuildingBlock: AJUNOK_clean_linker_0, # of connection points: 2
# Relax obj value: 0.549
# Max RMSD: 0.272
# Mean RMSD: 0.272
data_MOF--net-fnl--node1-XOMCOT_clean_sbu_0--edge1-AJUNOK_clean_linker_0
_symmetry_space_group_name_H-M    P1
_symmetry_Int_Tables_number       1
_symmetry_cell_setting            triclinic
loop_
_symmetry_equiv_pos_as_xyz
'x, y, z'
_cell_length_a     26.738928
_cell_length_b     26.746471
_cell_length_c     71.610043
_cell_angle_alpha  89.975768
_cell_angle_beta   89.760023
_cell_angle_gamma 90.017925
loop_
_atom_site_label
_atom_site_type_symbol
_atom_site_fract_x
_atom_site_fract_y
_atom_site_fract_z
_atom_type_partial_charge
Co0 Co 0.03577 0.06071 0.07711 0.0
C1 C 0.02976 0.17061 0.08194 0.0
C2 C 0.10577 0.14659 0.07906 0.0
C3 C 0.10483 0.19825 0.07999 0.0
N4 N 0.05857 0.12923 0.08048 0.0
N5 N 0.05679 0.21321 0.08169 0.0
H6 H 0.98956 0.17034 0.0823 0.0
H7 H 0.1385 0.12336 0.07715 0.0
C8 C 0.10147 0.05501 0.11157 0.0
O9 O 0.08831 0.10073 0.11612 0.0
N10 N 0.01078 0.9936 0.07323 0.0
C11 C 0.96387 0.98312 0.06753 0.0
C12 C 0.95939 0.93267 0.06491 0.0
C13 C 0.03455 0.94909 0.07382 0.0
N14 N 0.00348 0.91142 0.06904 0.0
C15 C 0.93671 0.09 0.08736 0.0
C16 C 0.93304 0.03293 0.11938 0.0
C17 C 0.88844 0.04593 0.11049 0.0
C18 C 0.89028 0.07785 0.09513 0.0
C19 C 0.97851 0.04473 0.11096 0.0
N20 N 0.98006 0.07056 0.09448 0.0
H21 H 0.93677 0.10916 0.07411 0.0
H22 H 0.011 0.02681 0.11659 0.0
H23 H 0.93519 0.01042 0.06467 0.0
H24 H 0.07396 0.9446 0.07659 0.0
O25 O 0.00365 0.07999 0.0541 0.0
O26 O 0.08135 0.05214 0.05628 0.0
O27 O 0.08266 0.03445 0.09708 0.0
C28 C 0.04443 0.06578 0.04569 0.0
H29 H 0.13702 0.2227 0.07935 0.0
H30 H 0.92675 0.91304 0.05982 0.0
H31 H 0.9327 0.0078 0.13127 0.0
H32 H 0.8564 0.08809 0.08781 0.0
Co33 Co 0.2587 0.84057 0.32308 0.0
C34 C 0.15253 0.82241 0.33049 0.0
C35 C 0.17195 0.89581 0.33978 0.0
C36 C 0.12192 0.88736 0.34366 0.0
N37 N 0.19144 0.85417 0.33206 0.0
N38 N 0.10997 0.84073 0.33794 0.0
H39 H 0.15437 0.78797 0.32283 0.0
H40 H 0.19229 0.9301 0.34227 0.0
C41 C 0.27971 0.89637 0.35919 0.0
O42 O 0.24561 0.86933 0.36777 0.0
N43 N 0.32497 0.82423 0.31371 0.0
C44 C 0.33449 0.78928 0.30052 0.0
C45 C 0.38454 0.77937 0.30008 0.0
C46 C 0.37003 0.83475 0.32125 0.0
N47 N 0.40666 0.80709 0.31334 0.0
C48 C 0.24328 0.73839 0.3333 0.0
C49 C 0.31836 0.73492 0.35948 0.0
C50 C 0.29951 0.69017 0.3523 0.0
C51 C 0.25992 0.69203 0.33972 0.0
C52 C 0.30134 0.78028 0.35251 0.0
N53 N 0.26479 0.78207 0.33923 0.0
H54 H 0.2172 0.73801 0.32193 0.0
H55 H 0.32237 0.81283 0.35635 0.0
H56 H 0.30703 0.76969 0.29231 0.0
H57 H 0.37574 0.85961 0.33295 0.0
O58 O 0.23035 0.80847 0.30157 0.0
O59 O 0.25063 0.88837 0.30295 0.0
O60 O 0.28911 0.88873 0.34189 0.0
C61 C 0.23563 0.85073 0.2929 0.0
H62 H 0.09636 0.91375 0.35002 0.0
H63 H 0.40314 0.75304 0.29092 0.0
H64 H 0.34943 0.73483 0.36916 0.0
H65 H 0.24519 0.65815 0.33354 0.0
Co66 Co 0.46266 0.04409 0.57502 0.0
C67 C 0.45806 0.93806 0.58461 0.0
C68 C 0.38633 0.96328 0.57538 0.0
C69 C 0.38541 0.91166 0.57692 0.0
N70 N 0.43199 0.97984 0.58038 0.0
N71 N 0.4307 0.896 0.58278 0.0
H72 H 0.49778 0.93771 0.58715 0.0
H73 H 0.35693 0.98662 0.5698 0.0
C74 C 0.38352 0.07061 0.60491 0.0
O75 O 0.37768 0.02364 0.60977 0.0
N76 N 0.49682 0.10631 0.56918 0.0
C77 C 0.54236 0.10974 0.56102 0.0
C78 C 0.55394 0.15911 0.55827 0.0
C79 C 0.48155 0.15402 0.57139 0.0
N80 N 0.51587 0.18683 0.5649 0.0
C81 C 0.55898 0.01601 0.58801 0.0
C82 C 0.5502 0.06181 0.62231 0.0
C83 C 0.59763 0.0546 0.61447 0.0
C84 C 0.60211 0.02756 0.59794 0.0
C85 C 0.50809 0.05051 0.61176 0.0
N86 N 0.51317 0.0323 0.59405 0.0
H87 H 0.56339 0.99942 0.57439 0.0
H88 H 0.4725 0.06144 0.61734 0.0
H89 H 0.56559 0.07852 0.557 0.0
H90 H 0.44577 0.16465 0.57698 0.0
O91 O 0.49558 0.01388 0.55374 0.0
O92 O 0.42245 0.05224 0.55281 0.0
O93 O 0.41639 0.08268 0.59263 0.0
C94 C 0.45898 0.0311 0.54375 0.0
H95 H 0.35468 0.88743 0.5731 0.0
H96 H 0.58764 0.17364 0.55183 0.0
H97 H 0.54575 0.08247 0.63523 0.0
H98 H 0.63839 0.02131 0.59156 0.0
Co99 Co 0.25112 0.27415 0.82534 0.0
C100 C 0.35918 0.27495 0.83444 0.0
C101 C 0.33895 0.20711 0.82063 0.0
C102 C 0.39056 0.2093 0.82194 0.0
N103 N 0.31918 0.24883 0.82828 0.0
N104 N 0.40298 0.25241 0.8305 0.0
H105 H 0.35738 0.3107 0.84123 0.0
H106 H 0.3178 0.17865 0.81342 0.0
C107 C 0.24567 0.20817 0.85979 0.0
O108 O 0.29211 0.22052 0.8635 0.0
N109 N 0.1851 0.30204 0.82207 0.0
C110 C 0.17637 0.3481 0.81516 0.0
C111 C 0.12628 0.35812 0.81645 0.0
C112 C 0.14005 0.28467 0.82755 0.0
N113 N 0.10339 0.31836 0.82427 0.0
C114 C 0.28681 0.37022 0.83635 0.0
C115 C 0.23272 0.37546 0.86915 0.0
C116 C 0.25526 0.41895 0.86214 0.0
C117 C 0.28399 0.41563 0.84585 0.0
C118 C 0.23647 0.33084 0.85926 0.0
N119 N 0.26282 0.32847 0.8429 0.0
H120 H 0.30649 0.36932 0.82316 0.0
H121 H 0.21361 0.30018 0.86393 0.0
H122 H 0.20466 0.37325 0.80981 0.0
H123 H 0.13439 0.24893 0.8341 0.0
O124 O 0.27163 0.30714 0.80249 0.0
O125 O 0.24039 0.23087 0.80384 0.0
O126 O 0.22425 0.22682 0.84541 0.0
C127 C 0.25616 0.26786 0.79356 0.0
H128 H 0.41678 0.18315 0.81582 0.0
H129 H 0.10795 0.39187 0.8117 0.0
H130 H 0.20813 0.37682 0.88121 0.0
H131 H 0.30126 0.44858 0.83983 0.0
Co132 Co 0.04458 0.04873 0.93436 0.0
C133 C 0.03047 0.94285 0.92872 0.0
C134 C 0.10532 0.96251 0.92063 0.0
C135 C 0.09785 0.91208 0.91721 0.0
N136 N 0.06282 0.98137 0.92786 0.0
N137 N 0.05045 0.90012 0.92214 0.0
H138 H 0.99296 0.94626 0.93427 0.0
H139 H 0.13897 0.9837 0.91785 0.0
C140 C 0.13578 0.0935 0.91693 0.0
O141 O 0.15674 0.0892 0.93339 0.0
N142 N 0.0225 0.11575 0.94095 0.0
C143 C 0.9846 0.12643 0.95281 0.0
C144 C 0.97345 0.17614 0.95162 0.0
C145 C 0.03407 0.15983 0.9328 0.0
N146 N 0.00444 0.19742 0.93904 0.0
C147 C 0.94273 0.04788 0.92314 0.0
C148 C 0.96205 0.06234 0.8856 0.0
C149 C 0.91467 0.07389 0.89282 0.0
C150 C 0.90399 0.06269 0.91148 0.0
C151 C 0.99967 0.04722 0.89779 0.0
N152 N 0.99056 0.04524 0.91653 0.0
H153 H 0.93497 0.04324 0.93783 0.0
H154 H 0.03669 0.04065 0.89227 0.0
H155 H 0.96433 0.09982 0.96128 0.0
H156 H 0.06334 0.16424 0.92257 0.0
O157 O 0.01054 0.02303 0.95616 0.0
O158 O 0.08895 0.04851 0.95579 0.0
O159 O 0.09117 0.07744 0.9146 0.0
C160 C 0.05087 0.03273 0.96549 0.0
H161 H 0.12491 0.88641 0.9113 0.0
H162 H 0.94355 0.19473 0.9591 0.0
H163 H 0.97097 0.06904 0.87104 0.0
H164 H 0.86746 0.07031 0.91743 0.0
Co165 Co 0.26509 0.84971 0.18139 0.0
C166 C 0.37209 0.84177 0.17693 0.0
C167 C 0.35286 0.91921 0.17947 0.0
C168 C 0.40454 0.91472 0.17877 0.0
N169 N 0.33284 0.87315 0.17818 0.0
N170 N 0.41631 0.86572 0.17718 0.0
H171 H 0.36845 0.80164 0.17643 0.0
H172 H 0.33188 0.95326 0.18159 0.0
C173 C 0.22529 0.94317 0.16456 0.0
O174 O 0.23331 0.96443 0.18079 0.0
N175 N 0.19869 0.82188 0.18473 0.0
C176 C 0.19007 0.77563 0.1915 0.0
C177 C 0.14055 0.76467 0.18993 0.0
C178 C 0.15341 0.83896 0.17941 0.0
N179 N 0.11708 0.80436 0.1824 0.0
C180 C 0.28476 0.75057 0.16839 0.0
C181 C 0.25593 0.76937 0.13212 0.0
C182 C 0.25329 0.72058 0.13911 0.0
C183 C 0.27216 0.71058 0.15687 0.0
C184 C 0.26906 0.80813 0.14409 0.0
N185 N 0.27731 0.79863 0.16256 0.0
H186 H 0.29499 0.74279 0.18265 0.0
H187 H 0.26828 0.8457 0.13871 0.0
H188 H 0.21796 0.75052 0.19695 0.0
H189 H 0.14732 0.87587 0.17379 0.0
O190 O 0.28572 0.81446 0.20374 0.0
O191 O 0.2555 0.89129 0.20316 0.0
O192 O 0.23848 0.89773 0.16197 0.0
C193 C 0.27044 0.85349 0.21296 0.0
H194 H 0.43111 0.94495 0.18026 0.0
H195 H 0.12342 0.72949 0.19379 0.0
H196 H 0.24294 0.77801 0.11817 0.0
H197 H 0.27139 0.67308 0.16259 0.0
Co198 Co 0.4823 0.04894 0.43233 0.0
C199 C 0.48741 0.15605 0.42401 0.0
C200 C 0.41223 0.13498 0.43068 0.0
C201 C 0.41477 0.18661 0.42941 0.0
N202 N 0.45802 0.11591 0.42722 0.0
N203 N 0.46237 0.19956 0.42532 0.0
H204 H 0.52709 0.15426 0.42169 0.0
H205 H 0.38007 0.11324 0.43499 0.0
C206 C 0.41047 0.03413 0.39971 0.0
O207 O 0.4188 0.07946 0.39336 0.0
N208 N 0.50967 0.98381 0.43781 0.0
C209 C 0.55551 0.97643 0.44509 0.0
C210 C 0.56609 0.92641 0.44489 0.0
C211 C 0.49276 0.93792 0.43333 0.0
N212 N 0.52655 0.90211 0.43764 0.0
C213 C 0.58106 0.07633 0.42063 0.0
C214 C 0.57843 0.0289 0.38648 0.0
C215 C 0.62436 0.04591 0.3933 0.0
C216 C 0.62519 0.07132 0.41033 0.0
C217 C 0.53535 0.03416 0.39726 0.0
N218 N 0.53685 0.0569 0.41434 0.0
H219 H 0.58323 0.09332 0.43427 0.0
H220 H 0.50242 0.01569 0.39231 0.0
H221 H 0.58073 0.00563 0.44952 0.0
H222 H 0.45715 0.93085 0.42675 0.0
O223 O 0.51404 0.07373 0.45481 0.0
O224 O 0.43735 0.04294 0.45333 0.0
O225 O 0.43484 0.01757 0.41373 0.0
C226 C 0.47349 0.05995 0.46354 0.0
H227 H 0.38478 0.21248 0.43254 0.0
H228 H 0.6013 0.9097 0.44888 0.0
H229 H 0.57645 0.00725 0.37371 0.0
H230 H 0.66016 0.08422 0.41621 0.0
Co231 Co 0.23063 0.27299 0.68096 0.0
C232 C 0.12207 0.2683 0.68285 0.0
C233 C 0.15033 0.21026 0.66519 0.0
C234 C 0.09962 0.21531 0.66216 0.0
N235 N 0.1646 0.24387 0.67811 0.0
N236 N 0.08164 0.25221 0.67322 0.0
H237 H 0.12172 0.30048 0.69195 0.0
H238 H 0.17541 0.18736 0.65699 0.0
C239 C 0.29442 0.23236 0.64898 0.0
O240 O 0.31375 0.27706 0.6465 0.0
N241 N 0.2951 0.30604 0.684 0.0
C242 C 0.30047 0.35497 0.68826 0.0
C243 C 0.35007 0.36593 0.69023 0.0
C244 C 0.34222 0.28742 0.68415 0.0
N245 N 0.37624 0.3237 0.68757 0.0
C246 C 0.19416 0.36894 0.66951 0.0
C247 C 0.22027 0.35882 0.63247 0.0
C248 C 0.21733 0.40685 0.64029 0.0
C249 C 0.19753 0.41148 0.65834 0.0
C250 C 0.21453 0.31729 0.64409 0.0
N251 N 0.21032 0.32383 0.66292 0.0
H252 H 0.18429 0.37361 0.68403 0.0
H253 H 0.21769 0.28055 0.63808 0.0
H254 H 0.27054 0.3811 0.69068 0.0
H255 H 0.35141 0.2484 0.68209 0.0
O256 O 0.20957 0.30539 0.7039 0.0
O257 O 0.24508 0.23098 0.70244 0.0
O258 O 0.25977 0.22558 0.6612 0.0
C259 C 0.22777 0.26711 0.71274 0.0
H260 H 0.07925 0.19651 0.65122 0.0
H261 H 0.36585 0.40203 0.6937 0.0
H262 H 0.23222 0.35317 0.61816 0.0
H263 H 0.19093 0.44788 0.6645 0.0
Co264 Co 0.73843 0.34903 0.68083 0.0
C265 C 0.8432 0.3314 0.67207 0.0
C266 C 0.82969 0.41021 0.67294 0.0
C267 C 0.88049 0.40202 0.67075 0.0
N268 N 0.80619 0.3657 0.67318 0.0
N269 N 0.88909 0.35216 0.67023 0.0
H270 H 0.83661 0.29206 0.67438 0.0
H271 H 0.81153 0.44593 0.67501 0.0
C272 C 0.71968 0.41676 0.64654 0.0
O273 O 0.76707 0.41798 0.64176 0.0
N274 N 0.67155 0.32901 0.68936 0.0
C275 C 0.66198 0.29905 0.70421 0.0
C276 C 0.61161 0.29258 0.70617 0.0
C277 C 0.62576 0.33984 0.68234 0.0
N278 N 0.58889 0.31815 0.69251 0.0
C279 C 0.73457 0.24484 0.67376 0.0
C280 C 0.74268 0.24971 0.63541 0.0
C281 C 0.72762 0.20474 0.64382 0.0
C282 C 0.72686 0.20183 0.66332 0.0
C283 C 0.74837 0.29232 0.64641 0.0
N284 N 0.74084 0.29001 0.66523 0.0
H285 H 0.73274 0.24214 0.68875 0.0
H286 H 0.75761 0.32698 0.63969 0.0
H287 H 0.68944 0.28186 0.71309 0.0
H288 H 0.61918 0.3635 0.67035 0.0
O289 O 0.76682 0.32128 0.70309 0.0
O290 O 0.73972 0.39921 0.70029 0.0
O291 O 0.70496 0.39097 0.6606 0.0
C292 C 0.75705 0.36395 0.71101 0.0
H293 H 0.90892 0.43077 0.67028 0.0
H294 H 0.59286 0.27072 0.71684 0.0
H295 H 0.74648 0.2528 0.62039 0.0
H296 H 0.71645 0.16771 0.6705 0.0
Co297 Co 0.7566 0.78236 0.17746 0.0
C298 C 0.64987 0.78619 0.18163 0.0
C299 C 0.66993 0.71521 0.16985 0.0
C300 C 0.61831 0.72034 0.16934 0.0
N301 N 0.68931 0.75684 0.17755 0.0
N302 N 0.60634 0.76545 0.17651 0.0
H303 H 0.65324 0.82377 0.18708 0.0
H304 H 0.69161 0.685 0.16389 0.0
C305 C 0.80584 0.74446 0.14203 0.0
O306 O 0.82251 0.79004 0.13918 0.0
N307 N 0.82326 0.81153 0.17782 0.0
C308 C 0.8343 0.8598 0.18164 0.0
C309 C 0.8847 0.86704 0.18004 0.0
C310 C 0.8681 0.78934 0.17516 0.0
N311 N 0.90571 0.82298 0.17578 0.0
C312 C 0.72769 0.88223 0.16752 0.0
C313 C 0.72301 0.8657 0.12969 0.0
C314 C 0.73458 0.91387 0.1362 0.0
C315 C 0.7301 0.92286 0.15541 0.0
C316 C 0.72221 0.82613 0.14244 0.0
N317 N 0.73315 0.83492 0.16075 0.0
H318 H 0.72737 0.88909 0.18237 0.0
H319 H 0.7175 0.78847 0.13733 0.0
H320 H 0.80856 0.88794 0.18637 0.0
H321 H 0.87317 0.74969 0.17278 0.0
O322 O 0.74391 0.81384 0.20142 0.0
O323 O 0.77515 0.73795 0.19763 0.0
O324 O 0.77681 0.73566 0.156 0.0
C325 C 0.76149 0.77328 0.20901 0.0
H326 H 0.59207 0.69465 0.16302 0.0
H327 H 0.90483 0.90136 0.18285 0.0
H328 H 0.72137 0.85772 0.11487 0.0
H329 H 0.73531 0.95983 0.16124 0.0
Co330 Co 0.74469 0.35133 0.82182 0.0
C331 C 0.63943 0.33032 0.82822 0.0
C332 C 0.65505 0.40648 0.83564 0.0
C333 C 0.60475 0.39707 0.83859 0.0
N334 N 0.67649 0.36442 0.82914 0.0
N335 N 0.59518 0.34898 0.83401 0.0
H336 H 0.6447 0.29293 0.8228 0.0
H337 H 0.67417 0.44154 0.8379 0.0
C338 C 0.78155 0.44284 0.84051 0.0
O339 O 0.76903 0.46643 0.82516 0.0
N340 N 0.81297 0.33475 0.81459 0.0
C341 C 0.82665 0.30543 0.80006 0.0
C342 C 0.87607 0.2931 0.80167 0.0
C343 C 0.85487 0.3392 0.82498 0.0
N344 N 0.89356 0.31376 0.81744 0.0
C345 C 0.74919 0.24786 0.82983 0.0
C346 C 0.76749 0.25827 0.86756 0.0
C347 C 0.7778 0.21275 0.8587 0.0
C348 C 0.76543 0.20663 0.83995 0.0
C349 C 0.75035 0.29847 0.85696 0.0
N350 N 0.74545 0.29371 0.83809 0.0
H351 H 0.74436 0.24379 0.81496 0.0
H352 H 0.7447 0.33405 0.86374 0.0
H353 H 0.80229 0.2911 0.78941 0.0
H354 H 0.85682 0.35852 0.83818 0.0
O355 O 0.72005 0.32015 0.79936 0.0
O356 O 0.74092 0.39966 0.80168 0.0
O357 O 0.77165 0.39626 0.84219 0.0
C358 C 0.72674 0.36293 0.79113 0.0
H359 H 0.57731 0.42361 0.84365 0.0
H360 H 0.8975 0.27039 0.79202 0.0
H361 H 0.77649 0.26378 0.88216 0.0
H362 H 0.77319 0.17184 0.83275 0.0
Co363 Co 0.76528 0.76797 0.32119 0.0
C364 C 0.87408 0.7737 0.32675 0.0
C365 C 0.84824 0.69932 0.33184 0.0
C366 C 0.89871 0.70164 0.33577 0.0
N367 N 0.83248 0.74524 0.32691 0.0
N368 N 0.9151 0.74877 0.33253 0.0
H369 H 0.87482 0.81169 0.32193 0.0
H370 H 0.82454 0.66671 0.33307 0.0
C371 C 0.75026 0.70674 0.35642 0.0
O372 O 0.78986 0.72915 0.36331 0.0
N373 N 0.69965 0.79322 0.31511 0.0
C374 C 0.69164 0.837 0.30624 0.0
C375 C 0.64159 0.84738 0.30652 0.0
C376 C 0.65415 0.77787 0.32094 0.0
N377 N 0.61802 0.8104 0.3158 0.0
C378 C 0.79483 0.86483 0.33458 0.0
C379 C 0.73026 0.86649 0.3647 0.0
C380 C 0.75547 0.9103 0.35972 0.0
C381 C 0.78887 0.90911 0.3447 0.0
C382 C 0.73652 0.82353 0.35405 0.0
N383 N 0.76928 0.82227 0.33934 0.0
H384 H 0.81633 0.8667 0.32186 0.0
H385 H 0.71089 0.79337 0.35669 0.0
H386 H 0.72036 0.86105 0.30053 0.0
H387 H 0.64785 0.74516 0.32945 0.0
O388 O 0.79131 0.80228 0.2994 0.0
O389 O 0.76349 0.7245 0.29949 0.0
O390 O 0.735 0.71874 0.34005 0.0
C391 C 0.78059 0.76229 0.28994 0.0
H392 H 0.92049 0.67094 0.34117 0.0
H393 H 0.62386 0.87986 0.30042 0.0
H394 H 0.7021 0.86672 0.37563 0.0
H395 H 0.80746 0.94289 0.34002 0.0
Co396 Co 0.51464 0.54824 0.56783 0.0
C397 C 0.49515 0.65549 0.57631 0.0
C398 C 0.57217 0.63655 0.58034 0.0
C399 C 0.56603 0.687 0.58379 0.0
N400 N 0.52746 0.61652 0.57597 0.0
N401 N 0.51743 0.69876 0.5813 0.0
H402 H 0.45635 0.65314 0.5725 0.0
H403 H 0.60712 0.6162 0.58049 0.0
C404 C 0.57285 0.53195 0.60385 0.0
O405 O 0.54585 0.56614 0.61236 0.0
N406 N 0.50034 0.48085 0.55941 0.0
C407 C 0.46314 0.46825 0.54758 0.0
C408 C 0.46117 0.4172 0.54602 0.0
C409 C 0.51986 0.43694 0.56522 0.0
N410 N 0.49646 0.39787 0.55717 0.0
C411 C 0.41307 0.564 0.57953 0.0
C412 C 0.4145 0.4965 0.60865 0.0
C413 C 0.36957 0.5204 0.60422 0.0
C414 C 0.36889 0.55426 0.58938 0.0
C415 C 0.45748 0.50691 0.59838 0.0
N416 N 0.45721 0.54183 0.58446 0.0
H417 H 0.41082 0.58714 0.56725 0.0
H418 H 0.48976 0.48397 0.60093 0.0
H419 H 0.43781 0.49414 0.54094 0.0
H420 H 0.54966 0.43328 0.57529 0.0
O421 O 0.48165 0.57388 0.54575 0.0
O422 O 0.56222 0.5561 0.54769 0.0
O423 O 0.56392 0.52079 0.58681 0.0
C424 C 0.52475 0.56984 0.53738 0.0
H425 H 0.59548 0.71328 0.58709 0.0
H426 H 0.4349 0.39572 0.53781 0.0
H427 H 0.4158 0.46769 0.61929 0.0
H428 H 0.33428 0.57173 0.58504 0.0
Co429 Co 0.97456 0.55664 0.0669 0.0
C430 C 0.98834 0.45436 0.07984 0.0
C431 C 0.91099 0.46774 0.07399 0.0
C432 C 0.91775 0.41712 0.07699 0.0
N433 N 0.95525 0.49122 0.07611 0.0
N434 N 0.96662 0.40882 0.08038 0.0
H435 H 0.02826 0.4603 0.08077 0.0
H436 H 0.87699 0.48555 0.06928 0.0
C437 C 0.8972 0.58357 0.09774 0.0
O438 O 0.89215 0.53699 0.10317 0.0
N439 N 0.99708 0.62115 0.05729 0.0
C440 C 0.02231 0.63005 0.04121 0.0
C441 C 0.03485 0.67966 0.04033 0.0
C442 C 0.9962 0.66573 0.06618 0.0
N443 N 0.01847 0.7021 0.05601 0.0
C444 C 0.07661 0.56105 0.07662 0.0
C445 C 0.0627 0.57826 0.1143 0.0
C446 C 0.10987 0.58636 0.10626 0.0
C447 C 0.11735 0.5749 0.08744 0.0
C448 C 0.02297 0.56372 0.10298 0.0
N449 N 0.02976 0.55869 0.0842 0.0
H450 H 0.08209 0.55636 0.06178 0.0
H451 H 0.98662 0.55927 0.10922 0.0
H452 H 0.03257 0.60266 0.03085 0.0
H453 H 0.97989 0.67148 0.07982 0.0
O454 O 0.00725 0.52306 0.04642 0.0
O455 O 0.92926 0.55037 0.04596 0.0
O456 O 0.9282 0.5948 0.08468 0.0
C457 C 0.96642 0.52989 0.03696 0.0
H458 H 0.88973 0.38825 0.07533 0.0
H459 H 0.05488 0.69785 0.02905 0.0
H460 H 0.05593 0.58643 0.12892 0.0
H461 H 0.15321 0.58123 0.08074 0.0
Co462 Co 0.54032 0.54407 0.42487 0.0
C463 C 0.53407 0.43708 0.42848 0.0
C464 C 0.6083 0.45631 0.41959 0.0
C465 C 0.60312 0.40475 0.41917 0.0
N466 N 0.56472 0.47627 0.42545 0.0
N467 N 0.55602 0.39315 0.42447 0.0
H468 H 0.49544 0.44085 0.43279 0.0
H469 H 0.64059 0.47731 0.41499 0.0
C470 C 0.63568 0.5808 0.40849 0.0
O471 O 0.65383 0.57642 0.42541 0.0
N472 N 0.51254 0.61083 0.42426 0.0
C473 C 0.46374 0.62291 0.42629 0.0
C474 C 0.45874 0.67379 0.42575 0.0
C475 C 0.5368 0.65495 0.42316 0.0
N476 N 0.50454 0.6937 0.42383 0.0
C477 C 0.44467 0.51556 0.41062 0.0
C478 C 0.47076 0.52268 0.37347 0.0
C479 C 0.42046 0.52935 0.37864 0.0
C480 C 0.40716 0.52015 0.39731 0.0
C481 C 0.50705 0.52022 0.38738 0.0
N482 N 0.49337 0.52322 0.40572 0.0
H483 H 0.43397 0.51256 0.42512 0.0
H484 H 0.54583 0.51957 0.38324 0.0
H485 H 0.4337 0.59726 0.42922 0.0
H486 H 0.57704 0.65888 0.42264 0.0
O487 O 0.50103 0.53089 0.44731 0.0
O488 O 0.57761 0.56134 0.44705 0.0
O489 O 0.59113 0.56566 0.40525 0.0
C490 C 0.53867 0.54831 0.45672 0.0
H491 H 0.6308 0.37813 0.41436 0.0
H492 H 0.42458 0.69478 0.42794 0.0
H493 H 0.48255 0.52616 0.35904 0.0
H494 H 0.36899 0.52341 0.4022 0.0
Co495 Co 0.98122 0.55488 0.92506 0.0
C496 C 0.97808 0.66402 0.91795 0.0
C497 C 0.91541 0.6411 0.9345 0.0
C498 C 0.9168 0.6928 0.93401 0.0
N499 N 0.95454 0.6229 0.92462 0.0
N500 N 0.95671 0.70681 0.92374 0.0
H501 H 0.01139 0.66375 0.90949 0.0
H502 H 0.88954 0.61877 0.94261 0.0
C503 C 0.90731 0.55412 0.89287 0.0
O504 O 0.90944 0.60301 0.89144 0.0
N505 N 0.00992 0.48867 0.92572 0.0
C506 C 0.05928 0.47804 0.92635 0.0
C507 C 0.06552 0.42728 0.92554 0.0
C508 C 0.98664 0.44406 0.92526 0.0
N509 N 0.01997 0.40625 0.92474 0.0
C510 C 0.07563 0.59641 0.91466 0.0
C511 C 0.08133 0.5478 0.88074 0.0
C512 C 0.12531 0.56553 0.88902 0.0
C513 C 0.1216 0.59354 0.90545 0.0
C514 C 0.03612 0.55171 0.89032 0.0
N515 N 0.03424 0.57303 0.90762 0.0
H516 H 0.07428 0.61367 0.92829 0.0
H517 H 0.00455 0.53203 0.88464 0.0
H518 H 0.08897 0.50504 0.92775 0.0
H519 H 0.94651 0.43927 0.92576 0.0
O520 O 0.0144 0.56892 0.94845 0.0
O521 O 0.93798 0.53755 0.94574 0.0
O522 O 0.93444 0.53141 0.90478 0.0
C523 C 0.97456 0.55083 0.95652 0.0
H524 H 0.89275 0.7179 0.94179 0.0
H525 H 0.10057 0.40713 0.92638 0.0
H526 H 0.08259 0.52564 0.86809 0.0
H527 H 0.15469 0.60855 0.91209 0.0
C528 C 0.97051 0.32169 0.09183 0.0
C529 C 0.99129 0.36078 0.08123 0.0
C530 C 0.99287 0.27414 0.09228 0.0
C531 C 0.03674 0.26355 0.08201 0.0
H532 H 0.93669 0.32803 0.09986 0.0
H533 H 0.97552 0.2453 0.10072 0.0
S534 S 0.10345 0.35212 0.05069 0.0
N535 N 0.05687 0.38522 0.05947 0.0
N536 N 0.09853 0.296 0.06015 0.0
C537 C 0.05776 0.30239 0.07126 0.0
C538 C 0.0351 0.35089 0.07089 0.0
C539 C 0.0175 0.84526 0.33777 0.0
C540 C 0.06144 0.81657 0.33813 0.0
C541 C 0.97033 0.82273 0.33647 0.0
C542 C 0.96459 0.7703 0.33505 0.0
H543 H 0.01942 0.88566 0.33807 0.0
H544 H 0.93818 0.8472 0.33651 0.0
S545 S 0.06806 0.67764 0.33754 0.0
N546 N 0.09598 0.73237 0.33937 0.0
N547 N 0.00806 0.69026 0.33519 0.0
C548 C 0.00833 0.74098 0.33601 0.0
C549 C 0.05642 0.764 0.33791 0.0
C550 C 0.43489 0.80953 0.57026 0.0
C551 C 0.44979 0.84535 0.58352 0.0
C552 C 0.45671 0.76167 0.56973 0.0
C553 C 0.49439 0.74769 0.58242 0.0
H554 H 0.40734 0.81906 0.55982 0.0
H555 H 0.44494 0.73588 0.55897 0.0
S556 S 0.54229 0.82553 0.62131 0.0
N557 N 0.5015 0.86191 0.61065 0.0
N558 N 0.54245 0.77233 0.60961 0.0
C559 C 0.50841 0.7826 0.59612 0.0
C560 C 0.48613 0.83123 0.59669 0.0
C561 C 0.45706 0.32716 0.82819 0.0
C562 C 0.45171 0.27558 0.83172 0.0
C563 C 0.50375 0.35085 0.82921 0.0
C564 C 0.54719 0.32401 0.83379 0.0
H565 H 0.42496 0.34937 0.82423 0.0
H566 H 0.50598 0.39032 0.82598 0.0
S567 S 0.55288 0.18898 0.84579 0.0
N568 N 0.49341 0.1989 0.84085 0.0
N569 N 0.58129 0.24334 0.843 0.0
C570 C 0.54231 0.2725 0.83766 0.0
C571 C 0.49462 0.24833 0.83654 0.0
C572 C 0.0313 0.76104 0.92545 0.0
C573 C 0.97942 0.75565 0.92271 0.0
C574 C 0.05435 0.80811 0.92486 0.0
C575 C 0.02649 0.8517 0.92146 0.0
H576 H 0.05412 0.72864 0.9285 0.0
H577 H 0.09407 0.81052 0.92758 0.0
S578 S 0.89036 0.8569 0.91129 0.0
N579 N 0.90144 0.79711 0.91531 0.0
N580 N 0.94462 0.88568 0.91369 0.0
C581 C 0.97473 0.84658 0.91812 0.0
C582 C 0.95125 0.79858 0.91891 0.0
C583 C 0.47055 0.79341 0.18478 0.0
C584 C 0.46488 0.84182 0.17713 0.0
C585 C 0.51649 0.76811 0.18414 0.0
C586 C 0.55875 0.7905 0.17611 0.0
H587 H 0.43936 0.77493 0.19154 0.0
H588 H 0.51936 0.73127 0.19032 0.0
S589 S 0.56429 0.91472 0.15316 0.0
N590 N 0.50576 0.90974 0.16042 0.0
N591 N 0.59233 0.86261 0.15969 0.0
C592 C 0.55392 0.83859 0.16835 0.0
C593 C 0.50702 0.86421 0.1688 0.0
C594 C 0.53366 0.25588 0.432 0.0
C595 C 0.48476 0.24879 0.4251 0.0
C596 C 0.55697 0.30287 0.4315 0.0
C597 C 0.53216 0.34479 0.42428 0.0
H598 H 0.554 0.22496 0.43808 0.0
H599 H 0.5943 0.30672 0.43712 0.0
S600 S 0.40555 0.34604 0.40319 0.0
N601 N 0.41356 0.28753 0.40994 0.0
N602 N 0.45714 0.37594 0.40912 0.0
C603 C 0.48352 0.33832 0.41717 0.0
C604 C 0.45985 0.29037 0.4176 0.0
C605 C 0.98049 0.35121 0.67667 0.0
C606 C 0.9372 0.32656 0.67033 0.0
C607 C 0.02699 0.32686 0.67757 0.0
C608 C 0.03274 0.27621 0.67241 0.0
H609 H 0.97863 0.38968 0.68125 0.0
H610 H 0.0587 0.34855 0.68219 0.0
S611 S 0.93155 0.19431 0.6543 0.0
N612 N 0.90411 0.24878 0.6577 0.0
N613 N 0.99011 0.20212 0.66084 0.0
C614 C 0.98974 0.25096 0.66603 0.0
C615 C 0.9425 0.2762 0.66468 0.0
C616 C 0.09127 0.05949 0.01537 0.0
C617 C 0.04583 0.0573 0.0253 0.0
C618 C 0.09313 0.04958 0.9961 0.0
C619 C 0.04984 0.03587 0.98619 0.0
H620 H 0.12545 0.06976 0.02248 0.0
H621 H 0.12861 0.0535 0.98889 0.0
S622 S 0.92252 0.01946 0.00637 0.0
N623 N 0.95721 0.03747 0.02413 0.0
N624 N 0.96074 0.01731 0.98824 0.0
C625 C 0.00458 0.03148 0.99622 0.0
C626 C 0.00254 0.04268 0.01567 0.0
C627 C 0.25043 0.89667 0.26288 0.0
C628 C 0.23776 0.85207 0.27222 0.0
C629 C 0.26162 0.89682 0.24371 0.0
C630 C 0.26188 0.85221 0.23332 0.0
H631 H 0.25286 0.93157 0.2705 0.0
H632 H 0.27093 0.932 0.23704 0.0
S633 S 0.22731 0.72606 0.25062 0.0
N634 N 0.2221 0.76265 0.26907 0.0
N635 N 0.24564 0.76286 0.23342 0.0
C636 C 0.24831 0.80761 0.24235 0.0
C637 C 0.23542 0.80761 0.26168 0.0
C638 C 0.42049 0.046 0.51246 0.0
C639 C 0.46315 0.0355 0.52319 0.0
C640 C 0.42427 0.05513 0.49321 0.0
C641 C 0.47098 0.05554 0.48409 0.0
H642 H 0.38386 0.04713 0.51897 0.0
H643 H 0.39033 0.06201 0.4854 0.0
S644 S 0.59419 0.03059 0.5058 0.0
N645 N 0.55369 0.02558 0.52316 0.0
N646 N 0.56075 0.04435 0.48718 0.0
C647 C 0.51397 0.04563 0.49467 0.0
C648 C 0.51005 0.03508 0.51416 0.0
C649 C 0.23652 0.22265 0.74355 0.0
C650 C 0.23425 0.26756 0.73333 0.0
C651 C 0.24409 0.22282 0.76301 0.0
C652 C 0.25109 0.26784 0.77287 0.0
H653 H 0.23182 0.18713 0.7365 0.0
H654 H 0.24459 0.18742 0.77036 0.0
S655 S 0.25114 0.39551 0.75235 0.0
N656 N 0.24096 0.35813 0.73444 0.0
N657 N 0.2563 0.35853 0.77069 0.0
C658 C 0.24994 0.31291 0.76268 0.0
C659 C 0.2412 0.31275 0.74301 0.0
C660 C 0.73834 0.3212 0.7606 0.0
C661 C 0.73073 0.36574 0.77058 0.0
C662 C 0.75068 0.3218 0.74169 0.0
C663 C 0.75303 0.3668 0.73157 0.0
H664 H 0.73632 0.28522 0.76751 0.0
H665 H 0.75686 0.28616 0.73489 0.0
S666 S 0.73417 0.49404 0.75093 0.0
N667 N 0.72684 0.45651 0.76907 0.0
N668 N 0.74603 0.4574 0.73287 0.0
C669 C 0.74447 0.41181 0.74122 0.0
C670 C 0.73393 0.41132 0.76083 0.0
C671 C 0.77125 0.81225 0.24049 0.0
C672 C 0.7679 0.7688 0.22952 0.0
C673 C 0.77759 0.80952 0.25989 0.0
C674 C 0.77996 0.7632 0.26921 0.0
H675 H 0.7691 0.84884 0.23403 0.0
H676 H 0.77914 0.84418 0.26769 0.0
S677 S 0.77387 0.63818 0.24692 0.0
N678 N 0.7687 0.67787 0.22935 0.0
N679 N 0.77931 0.67277 0.26591 0.0
C680 C 0.77711 0.71939 0.25841 0.0
C681 C 0.77147 0.72218 0.23856 0.0
C682 C 0.48966 0.5545 0.48648 0.0
C683 C 0.53613 0.55603 0.47722 0.0
C684 C 0.48606 0.56202 0.50583 0.0
C685 C 0.52888 0.57069 0.51674 0.0
H686 H 0.45567 0.54725 0.47876 0.0
H687 H 0.44954 0.55913 0.51235 0.0
S688 S 0.65922 0.58099 0.49919 0.0
N689 N 0.62576 0.56939 0.48036 0.0
N690 N 0.61898 0.58257 0.51674 0.0
C691 C 0.57544 0.57353 0.50761 0.0
C692 C 0.57908 0.56644 0.48787 0.0
C693 C 0.92694 0.54847 0.98661 0.0
C694 C 0.97216 0.54201 0.97683 0.0
C695 C 0.92443 0.54143 0.00603 0.0
C696 C 0.96678 0.52654 0.01625 0.0
H697 H 0.89372 0.56073 0.97931 0.0
H698 H 0.88949 0.54944 0.01312 0.0
S699 S 0.09203 0.49695 0.99638 0.0
N700 N 0.05874 0.51523 0.97827 0.0
N701 N 0.054 0.50022 0.01456 0.0
C702 C 0.01134 0.51663 0.00631 0.0
C703 C 0.01409 0.52499 0.98665 0.0
C704 C 0.18756 0.02252 0.15221 0.0
C705 C 0.19641 0.97089 0.15006 0.0
C706 C 0.15751 0.04923 0.13962 0.0
C707 C 0.13473 0.02563 0.12427 0.0
H708 H 0.20359 0.04266 0.16386 0.0
H709 H 0.15187 0.08878 0.14209 0.0
S710 S 0.14591 0.89077 0.1122 0.0
N711 N 0.17985 0.89711 0.13123 0.0
N712 N 0.12372 0.94701 0.10765 0.0
C713 C 0.14378 0.97403 0.12181 0.0
C714 C 0.17447 0.94681 0.13464 0.0
C715 C 0.33549 0.97212 0.36076 0.0
C716 C 0.31137 0.93209 0.36992 0.0
C717 C 0.36654 0.00563 0.3705 0.0
C718 C 0.37564 0.99983 0.38973 0.0
H719 H 0.33024 0.97775 0.34591 0.0
H720 H 0.38437 0.03564 0.3628 0.0
S721 S 0.32178 0.90118 0.42032 0.0
N722 N 0.29873 0.88895 0.39947 0.0
N723 N 0.35721 0.95122 0.41763 0.0
C724 C 0.35167 0.96003 0.39906 0.0
C725 C 0.31952 0.92642 0.38922 0.0
C726 C 0.33986 0.10295 0.63392 0.0
C727 C 0.3565 0.1109 0.61542 0.0
C728 C 0.31804 0.14179 0.64452 0.0
C729 C 0.3125 0.19025 0.63711 0.0
H730 H 0.34502 0.06684 0.64048 0.0
H731 H 0.30716 0.13426 0.65883 0.0
S732 S 0.34186 0.22877 0.58852 0.0
N733 N 0.35881 0.16949 0.58948 0.0
N734 N 0.32078 0.24265 0.60958 0.0
C735 C 0.32698 0.19813 0.61844 0.0
C736 C 0.34815 0.15847 0.60757 0.0
C737 C 0.21335 0.13462 0.90406 0.0
C738 C 0.16304 0.12039 0.90158 0.0
C739 C 0.23956 0.162 0.8904 0.0
C740 C 0.21691 0.17667 0.87352 0.0
H741 H 0.23283 0.12496 0.91679 0.0
H742 H 0.27793 0.17225 0.89331 0.0
S743 S 0.08604 0.14785 0.85974 0.0
N744 N 0.0916 0.12291 0.8807 0.0
N745 N 0.14105 0.17283 0.85492 0.0
C746 C 0.16683 0.16182 0.87067 0.0
C747 C 0.13995 0.13417 0.88468 0.0
C748 C 0.82975 0.0945 0.88033 0.0
C749 C 0.88054 0.10697 0.88249 0.0
C750 C 0.79598 0.12884 0.87259 0.0
C751 C 0.81205 0.17683 0.86735 0.0
H752 H 0.81612 0.05827 0.88482 0.0
H753 H 0.75716 0.11821 0.87093 0.0
S754 S 0.94064 0.22768 0.87013 0.0
N755 N 0.945 0.17051 0.87868 0.0
N756 N 0.88144 0.23484 0.86427 0.0
C757 C 0.86262 0.1895 0.86929 0.0
C758 C 0.89695 0.15459 0.87685 0.0
C759 C 0.6767 0.07716 0.63115 0.0
C760 C 0.63707 0.0902 0.61939 0.0
C761 C 0.70943 0.11409 0.63778 0.0
C762 C 0.70297 0.16484 0.63289 0.0
H763 H 0.68095 0.03893 0.63587 0.0
H764 H 0.73826 0.10333 0.64757 0.0
S765 S 0.60601 0.21589 0.60113 0.0
N766 N 0.59508 0.15524 0.60183 0.0
N767 N 0.65494 0.22489 0.61465 0.0
C768 C 0.66499 0.17727 0.62016 0.0
C769 C 0.63231 0.13981 0.61337 0.0
C770 C 0.73545 0.96256 0.3874 0.0
C771 C 0.73798 0.95783 0.36789 0.0
C772 C 0.70259 0.99669 0.39573 0.0
C773 C 0.67096 0.02666 0.38477 0.0
H774 H 0.75533 0.93644 0.39624 0.0
H775 H 0.69809 0.99552 0.41077 0.0
S776 S 0.67078 0.03526 0.33316 0.0
N777 N 0.71205 0.99112 0.33785 0.0
N778 N 0.65036 0.05558 0.35359 0.0
C779 C 0.67769 0.02654 0.36532 0.0
C780 C 0.71129 0.99197 0.35683 0.0
C781 C 0.76139 0.00092 0.12729 0.0
C782 C 0.76567 0.94867 0.12485 0.0
C783 C 0.80008 0.03342 0.12177 0.0
C784 C 0.84404 0.01444 0.11373 0.0
H785 H 0.72937 0.0164 0.13458 0.0
H786 H 0.79682 0.07299 0.12475 0.0
S787 S 0.87209 0.88254 0.10203 0.0
N788 N 0.81652 0.88085 0.11209 0.0
N789 N 0.88782 0.94208 0.10155 0.0
C790 C 0.84705 0.96323 0.10977 0.0
C791 C 0.80812 0.93026 0.11532 0.0
C792 C 0.64038 0.467 0.64406 0.0
C793 C 0.68241 0.44529 0.63534 0.0
C794 C 0.60568 0.49564 0.63388 0.0
C795 C 0.61085 0.50268 0.61446 0.0
H796 H 0.63468 0.46258 0.65896 0.0
H797 H 0.57415 0.51177 0.64126 0.0
S798 S 0.71314 0.45193 0.58481 0.0
N799 N 0.72669 0.43223 0.60605 0.0
N800 N 0.66099 0.48455 0.58689 0.0
C801 C 0.65224 0.48038 0.60553 0.0
C802 C 0.68811 0.45217 0.61596 0.0
C803 C 0.84666 0.54912 0.86618 0.0
C804 C 0.87411 0.52468 0.88021 0.0
C805 C 0.81598 0.52243 0.85382 0.0
C806 C 0.81087 0.47005 0.85499 0.0
H807 H 0.84924 0.58928 0.86451 0.0
H808 H 0.79646 0.54324 0.84312 0.0
S809 S 0.87334 0.38774 0.88957 0.0
N810 N 0.89332 0.44448 0.89465 0.0
N811 N 0.83494 0.39481 0.87179 0.0
C812 C 0.83707 0.44513 0.86924 0.0
C813 C 0.86886 0.47226 0.8817 0.0
C814 C 0.84867 0.61495 0.12581 0.0
C815 C 0.87032 0.62432 0.10813 0.0
C816 C 0.82611 0.65339 0.13638 0.0
C817 C 0.8244 0.703 0.1298 0.0
H818 H 0.85023 0.57782 0.13182 0.0
H819 H 0.81147 0.6444 0.15011 0.0
S820 S 0.86972 0.74656 0.08342 0.0
N821 N 0.88355 0.68645 0.0838 0.0
N822 N 0.84273 0.75837 0.10371 0.0
C823 C 0.8441 0.71247 0.11185 0.0
C824 C 0.86659 0.67333 0.10103 0.0
C825 C 0.73867 0.66066 0.38668 0.0
C826 C 0.72122 0.67134 0.36858 0.0
C827 C 0.71154 0.63021 0.39906 0.0
C828 C 0.66529 0.60885 0.39407 0.0
H829 H 0.77347 0.67657 0.39158 0.0
H830 H 0.72676 0.62439 0.41289 0.0
S831 S 0.60404 0.62167 0.34787 0.0
N832 N 0.65568 0.65515 0.34587 0.0
N833 N 0.60429 0.59877 0.36927 0.0
C834 C 0.64786 0.61792 0.37583 0.0
C835 C 0.67583 0.64883 0.36309 0.0
C836 C 0.4087 0.60342 0.35829 0.0
C837 C 0.38735 0.56106 0.36693 0.0
C838 C 0.37929 0.64357 0.3527 0.0
C839 C 0.32735 0.64336 0.35555 0.0
H840 H 0.44885 0.60804 0.35726 0.0
H841 H 0.39778 0.67629 0.34698 0.0
S842 S 0.25148 0.53738 0.37316 0.0
N843 N 0.30986 0.51754 0.37457 0.0
N844 N 0.25446 0.59461 0.36452 0.0
C845 C 0.30467 0.5995 0.36221 0.0
C846 C 0.33474 0.558 0.3678 0.0
C847 C 0.16832 0.6983 0.12895 0.0
C848 C 0.21889 0.6847 0.13044 0.0
C849 C 0.1331 0.665 0.12191 0.0
C850 C 0.14724 0.61699 0.116 0.0
H851 H 0.15578 0.73497 0.13342 0.0
H852 H 0.09472 0.67748 0.12058 0.0
S853 S 0.27467 0.56282 0.11756 0.0
N854 N 0.28136 0.61979 0.12614 0.0
N855 N 0.21479 0.55694 0.11231 0.0
C856 C 0.19758 0.60261 0.11756 0.0
C857 C 0.23352 0.6365 0.12502 0.0
C858 C 0.18432 0.53946 0.86383 0.0
C859 C 0.17349 0.54341 0.883 0.0
C860 C 0.21664 0.50234 0.85716 0.0
C861 C 0.23909 0.46809 0.86948 0.0
H862 H 0.16373 0.56172 0.85383 0.0
H863 H 0.21953 0.49713 0.84219 0.0
S864 S 0.23244 0.47028 0.92111 0.0
N865 N 0.19472 0.51563 0.91439 0.0
N866 N 0.25641 0.44671 0.90174 0.0
C867 C 0.23411 0.47621 0.88874 0.0
C868 C 0.20109 0.51382 0.89556 0.0
C869 C 0.24619 0.45555 0.61229 0.0
C870 C 0.2465 0.44829 0.63176 0.0
C871 C 0.28391 0.4834 0.60343 0.0
C872 C 0.32313 0.50461 0.61378 0.0
H873 H 0.21866 0.43675 0.60375 0.0
H874 H 0.28459 0.48484 0.58831 0.0
S875 S 0.3378 0.50275 0.66515 0.0
N876 N 0.28714 0.46922 0.66121 0.0
N877 N 0.35684 0.52227 0.64445 0.0
C878 C 0.3213 0.50169 0.6333 0.0
C879 C 0.2832 0.47338 0.64234 0.0
C880 C 0.01047 0.84022 0.04793 0.0
C881 C 0.01503 0.85989 0.06597 0.0
C882 C 0.01305 0.78876 0.04481 0.0
C883 C 0.01963 0.755 0.05968 0.0
H884 H 0.00323 0.86493 0.03626 0.0
H885 H 0.00778 0.77519 0.03072 0.0
S886 S 0.03537 0.78865 0.10957 0.0
N887 N 0.02762 0.84285 0.09885 0.0
N888 N 0.03307 0.74544 0.0931 0.0
C889 C 0.02553 0.77445 0.0778 0.0
C890 C 0.02319 0.82714 0.08092 0.0
C891 C 0.48472 0.8512 0.32054 0.0
C892 C 0.45882 0.80625 0.31786 0.0
C893 C 0.537 0.85182 0.32107 0.0
C894 C 0.56498 0.80751 0.31894 0.0
H895 H 0.46461 0.88631 0.32106 0.0
H896 H 0.55575 0.88752 0.32236 0.0
S897 S 0.51362 0.67918 0.31497 0.0
N898 N 0.46394 0.71567 0.31601 0.0
N899 N 0.56238 0.71691 0.31622 0.0
C900 C 0.5392 0.76188 0.31785 0.0
C901 C 0.486 0.76127 0.31746 0.0
C902 C 0.52637 0.26448 0.54699 0.0
C903 C 0.51172 0.24021 0.56356 0.0
C904 C 0.52247 0.31638 0.54519 0.0
C905 C 0.50505 0.34573 0.56005 0.0
H906 H 0.53978 0.24296 0.53519 0.0
H907 H 0.53257 0.33384 0.53206 0.0
S908 S 0.4634 0.30103 0.60649 0.0
N909 N 0.4796 0.2496 0.59518 0.0
N910 N 0.47346 0.34781 0.59184 0.0
C911 C 0.49116 0.32234 0.5768 0.0
C912 C 0.49412 0.2693 0.57854 0.0
C913 C 0.0212 0.35637 0.83066 0.0
C914 C 0.05023 0.31345 0.82701 0.0
C915 C 0.96905 0.35539 0.82909 0.0
C916 C 0.94432 0.31145 0.82379 0.0
H917 H 0.03917 0.39167 0.83376 0.0
H918 H 0.94837 0.38996 0.83065 0.0
S919 S 0.00129 0.18656 0.81688 0.0
N920 N 0.04925 0.22405 0.8207 0.0
N921 N 0.951 0.22217 0.81826 0.0
C922 C 0.97218 0.26717 0.82211 0.0
C923 C 0.02527 0.26811 0.82365 0.0
C924 C 0.98683 0.28534 0.94705 0.0
C925 C 0.00546 0.24982 0.9342 0.0
C926 C 0.98882 0.33649 0.9433 0.0
C927 C 0.01032 0.35412 0.92676 0.0
H928 H 0.97212 0.27393 0.96047 0.0
H929 H 0.97584 0.36265 0.9538 0.0
S930 S 0.06111 0.27889 0.88773 0.0
N931 N 0.04239 0.23717 0.90329 0.0
N932 N 0.04863 0.33406 0.897 0.0
C933 C 0.02808 0.31982 0.91356 0.0
C934 C 0.02512 0.26745 0.9171 0.0
C935 C 0.03109 0.77767 0.19005 0.0
C936 C 0.06387 0.80778 0.17935 0.0
C937 C 0.97935 0.78037 0.18789 0.0
C938 C 0.9583 0.81402 0.17526 0.0
H939 H 0.04513 0.75285 0.20073 0.0
H940 H 0.95548 0.75804 0.19686 0.0
S941 S 0.02552 0.89896 0.14294 0.0
N942 N 0.0703 0.86985 0.15447 0.0
N943 N 0.97238 0.87655 0.15129 0.0
C944 C 0.9899 0.8436 0.16415 0.0
C945 C 0.04285 0.84022 0.16601 0.0
C946 C 0.49238 0.7809 0.41458 0.0
C947 C 0.51558 0.74553 0.42612 0.0
C948 C 0.49648 0.83208 0.4183 0.0
C949 C 0.52321 0.84938 0.4339 0.0
H950 H 0.47028 0.76863 0.40279 0.0
H951 H 0.47849 0.8582 0.40893 0.0
S952 S 0.5869 0.77035 0.46925 0.0
N953 N 0.56439 0.73017 0.45394 0.0
N954 N 0.5709 0.82627 0.46153 0.0
C955 C 0.54631 0.81396 0.44561 0.0
C956 C 0.54278 0.762 0.44158 0.0
C957 C 0.51126 0.30524 0.67456 0.0
C958 C 0.53574 0.32266 0.69064 0.0
C959 C 0.45866 0.30357 0.67382 0.0
C960 C 0.42953 0.31979 0.68906 0.0
H961 H 0.53292 0.29184 0.66278 0.0
H962 H 0.44061 0.29054 0.66121 0.0
S963 S 0.47608 0.36883 0.73409 0.0
N964 N 0.5272 0.35629 0.72194 0.0
N965 N 0.42876 0.35372 0.72045 0.0
C966 C 0.45378 0.33749 0.70505 0.0
C967 C 0.50683 0.3388 0.70587 0.0
loop_
_geom_bond_atom_site_label_1
_geom_bond_atom_site_label_2
_geom_bond_distance
_geom_bond_site_symmetry_2
_ccdc_geom_bond_type
Co0 N4 2.148 . S
Co0 N10 2.128 1_545 S
Co0 N20 2.194 1_455 S
Co0 O25 2.351 1_455 S
Co0 O26 2.155 . S
Co0 O27 2.096 . S
C1 N4 1.301 . S
C1 N5 1.328 . S
C1 H6 0.930 1_455 S
C2 C3 1.333 . S
C2 N4 1.317 . S
C2 H7 0.930 . S
C3 C2 1.333 . S
C3 N5 1.350 . S
C3 H29 0.931 . S
N4 Co0 2.148 . S
N4 C1 1.301 . S
N4 C2 1.317 . S
N5 C1 1.328 . S
N5 C3 1.350 . S
H6 C1 0.930 1_655 S
H7 C2 0.930 . S
C8 O9 1.224 . S
C8 O27 1.247 . S
O9 C8 1.224 . S
N10 Co0 2.128 1_565 S
N10 C11 1.355 1_455 S
N10 C13 1.311 . S
C11 N10 1.355 1_655 S
C11 C12 1.363 . S
C11 H23 0.929 . S
C12 C11 1.363 . S
C12 N14 1.375 1_655 S
C12 H30 0.931 . S
C13 N10 1.311 . S
C13 N14 1.347 . S
C13 H24 0.929 . S
N14 C12 1.375 1_455 S
N14 C13 1.347 . S
C15 C18 1.365 . S
C15 N20 1.328 . S
C15 H21 0.929 . S
C16 C17 1.362 . S
C16 C19 1.378 . S
C16 H31 0.929 . S
C17 C16 1.362 . S
C17 C18 1.366 . S
C18 C15 1.365 . S
C18 C17 1.366 . S
C18 H32 0.930 . S
C19 C16 1.378 . S
C19 N20 1.315 . S
C19 H22 0.930 . S
N20 Co0 2.194 1_655 S
N20 C15 1.328 . S
N20 C19 1.315 . S
H21 C15 0.929 . S
H22 C19 0.930 . S
H23 C11 0.929 . S
H24 C13 0.929 . S
O25 Co0 2.351 1_655 S
O25 C28 1.244 1_655 S
O26 Co0 2.155 . S
O26 C28 1.240 . S
O27 Co0 2.096 . S
O27 C8 1.247 . S
C28 O25 1.244 1_455 S
C28 O26 1.240 . S
H29 C3 0.931 . S
H30 C12 0.931 . S
H31 C16 0.929 . S
H32 C18 0.930 . S
Co33 N37 2.148 . S
Co33 N43 2.128 . S
Co33 N53 2.194 . S
Co33 O58 2.351 . S
Co33 O59 2.155 . S
Co33 O60 2.096 . S
C34 N37 1.301 . S
C34 N38 1.328 . S
C34 H39 0.930 . S
C35 C36 1.333 . S
C35 N37 1.317 . S
C35 H40 0.930 . S
C36 C35 1.333 . S
C36 N38 1.350 . S
C36 H62 0.931 . S
N37 Co33 2.148 . S
N37 C34 1.301 . S
N37 C35 1.317 . S
N38 C34 1.328 . S
N38 C36 1.350 . S
H39 C34 0.930 . S
H40 C35 0.930 . S
C41 O42 1.224 . S
C41 O60 1.247 . S
O42 C41 1.224 . S
N43 Co33 2.128 . S
N43 C44 1.355 . S
N43 C46 1.311 . S
C44 N43 1.355 . S
C44 C45 1.363 . S
C44 H56 0.929 . S
C45 C44 1.363 . S
C45 N47 1.375 . S
C45 H63 0.931 . S
C46 N43 1.311 . S
C46 N47 1.347 . S
C46 H57 0.929 . S
N47 C45 1.375 . S
N47 C46 1.347 . S
C48 C51 1.365 . S
C48 N53 1.328 . S
C48 H54 0.929 . S
C49 C50 1.362 . S
C49 C52 1.378 . S
C49 H64 0.929 . S
C50 C49 1.362 . S
C50 C51 1.366 . S
C51 C48 1.365 . S
C51 C50 1.366 . S
C51 H65 0.930 . S
C52 C49 1.378 . S
C52 N53 1.315 . S
C52 H55 0.930 . S
N53 Co33 2.194 . S
N53 C48 1.328 . S
N53 C52 1.315 . S
H54 C48 0.929 . S
H55 C52 0.930 . S
H56 C44 0.929 . S
H57 C46 0.929 . S
O58 Co33 2.351 . S
O58 C61 1.244 . S
O59 Co33 2.155 . S
O59 C61 1.240 . S
O60 Co33 2.096 . S
O60 C41 1.247 . S
C61 O58 1.244 . S
C61 O59 1.240 . S
H62 C36 0.931 . S
H63 C45 0.931 . S
H64 C49 0.929 . S
H65 C51 0.930 . S
Co66 N70 2.148 1_545 S
Co66 N76 2.128 . S
Co66 N86 2.194 . S
Co66 O91 2.351 . S
Co66 O92 2.155 . S
Co66 O93 2.096 . S
C67 N70 1.301 . S
C67 N71 1.328 . S
C67 H72 0.930 . S
C68 C69 1.333 . S
C68 N70 1.317 . S
C68 H73 0.930 . S
C69 C68 1.333 . S
C69 N71 1.350 . S
C69 H95 0.931 . S
N70 Co66 2.148 1_565 S
N70 C67 1.301 . S
N70 C68 1.317 . S
N71 C67 1.328 . S
N71 C69 1.350 . S
H72 C67 0.930 . S
H73 C68 0.930 . S
C74 O75 1.224 . S
C74 O93 1.247 . S
O75 C74 1.224 . S
N76 Co66 2.128 . S
N76 C77 1.355 . S
N76 C79 1.311 . S
C77 N76 1.355 . S
C77 C78 1.363 . S
C77 H89 0.929 . S
C78 C77 1.363 . S
C78 N80 1.375 . S
C78 H96 0.931 . S
C79 N76 1.311 . S
C79 N80 1.347 . S
C79 H90 0.929 . S
N80 C78 1.375 . S
N80 C79 1.347 . S
C81 C84 1.365 . S
C81 N86 1.328 . S
C81 H87 0.929 . S
C82 C83 1.362 . S
C82 C85 1.378 . S
C82 H97 0.929 . S
C83 C82 1.362 . S
C83 C84 1.366 . S
C84 C81 1.365 . S
C84 C83 1.366 . S
C84 H98 0.930 . S
C85 C82 1.378 . S
C85 N86 1.315 . S
C85 H88 0.930 . S
N86 Co66 2.194 . S
N86 C81 1.328 . S
N86 C85 1.315 . S
H87 C81 0.929 . S
H88 C85 0.930 . S
H89 C77 0.929 . S
H90 C79 0.929 . S
O91 Co66 2.351 . S
O91 C94 1.244 . S
O92 Co66 2.155 . S
O92 C94 1.240 . S
O93 Co66 2.096 . S
O93 C74 1.247 . S
C94 O91 1.244 . S
C94 O92 1.240 . S
H95 C69 0.931 . S
H96 C78 0.931 . S
H97 C82 0.929 . S
H98 C84 0.930 . S
Co99 N103 2.148 . S
Co99 N109 2.128 . S
Co99 N119 2.194 . S
Co99 O124 2.351 . S
Co99 O125 2.155 . S
Co99 O126 2.096 . S
C100 N103 1.301 . S
C100 N104 1.328 . S
C100 H105 0.930 . S
C101 C102 1.333 . S
C101 N103 1.317 . S
C101 H106 0.930 . S
C102 C101 1.333 . S
C102 N104 1.350 . S
C102 H128 0.931 . S
N103 Co99 2.148 . S
N103 C100 1.301 . S
N103 C101 1.317 . S
N104 C100 1.328 . S
N104 C102 1.350 . S
H105 C100 0.930 . S
H106 C101 0.930 . S
C107 O108 1.224 . S
C107 O126 1.247 . S
O108 C107 1.224 . S
N109 Co99 2.128 . S
N109 C110 1.355 . S
N109 C112 1.311 . S
C110 N109 1.355 . S
C110 C111 1.363 . S
C110 H122 0.929 . S
C111 C110 1.363 . S
C111 N113 1.375 . S
C111 H129 0.931 . S
C112 N109 1.311 . S
C112 N113 1.347 . S
C112 H123 0.929 . S
N113 C111 1.375 . S
N113 C112 1.347 . S
C114 C117 1.365 . S
C114 N119 1.328 . S
C114 H120 0.929 . S
C115 C116 1.362 . S
C115 C118 1.378 . S
C115 H130 0.929 . S
C116 C115 1.362 . S
C116 C117 1.366 . S
C117 C114 1.365 . S
C117 C116 1.366 . S
C117 H131 0.930 . S
C118 C115 1.378 . S
C118 N119 1.315 . S
C118 H121 0.930 . S
N119 Co99 2.194 . S
N119 C114 1.328 . S
N119 C118 1.315 . S
H120 C114 0.929 . S
H121 C118 0.930 . S
H122 C110 0.929 . S
H123 C112 0.929 . S
O124 Co99 2.351 . S
O124 C127 1.244 . S
O125 Co99 2.155 . S
O125 C127 1.240 . S
O126 Co99 2.096 . S
O126 C107 1.247 . S
C127 O124 1.244 . S
C127 O125 1.240 . S
H128 C102 0.931 . S
H129 C111 0.931 . S
H130 C115 0.929 . S
H131 C117 0.930 . S
Co132 N136 2.148 1_545 S
Co132 N142 2.128 . S
Co132 N152 2.194 1_455 S
Co132 O157 2.351 1_455 S
Co132 O158 2.155 . S
Co132 O159 2.096 . S
C133 N136 1.301 . S
C133 N137 1.328 . S
C133 H138 0.930 1_455 S
C134 C135 1.333 . S
C134 N136 1.317 . S
C134 H139 0.930 . S
C135 C134 1.333 . S
C135 N137 1.350 . S
C135 H161 0.931 . S
N136 Co132 2.148 1_565 S
N136 C133 1.301 . S
N136 C134 1.317 . S
N137 C133 1.328 . S
N137 C135 1.350 . S
H138 C133 0.930 1_655 S
H139 C134 0.930 . S
C140 O141 1.224 . S
C140 O159 1.247 . S
O141 C140 1.224 . S
N142 Co132 2.128 . S
N142 C143 1.355 1_455 S
N142 C145 1.311 . S
C143 N142 1.355 1_655 S
C143 C144 1.363 . S
C143 H155 0.929 . S
C144 C143 1.363 . S
C144 N146 1.375 1_655 S
C144 H162 0.931 . S
C145 N142 1.311 . S
C145 N146 1.347 . S
C145 H156 0.929 . S
N146 C144 1.375 1_455 S
N146 C145 1.347 . S
C147 C150 1.365 . S
C147 N152 1.328 . S
C147 H153 0.929 . S
C148 C149 1.362 . S
C148 C151 1.378 . S
C148 H163 0.929 . S
C149 C148 1.362 . S
C149 C150 1.366 . S
C150 C147 1.365 . S
C150 C149 1.366 . S
C150 H164 0.930 . S
C151 C148 1.378 . S
C151 N152 1.315 . S
C151 H154 0.930 . S
N152 Co132 2.194 1_655 S
N152 C147 1.328 . S
N152 C151 1.315 . S
H153 C147 0.929 . S
H154 C151 0.930 . S
H155 C143 0.929 . S
H156 C145 0.929 . S
O157 Co132 2.351 1_655 S
O157 C160 1.244 1_655 S
O158 Co132 2.155 . S
O158 C160 1.240 . S
O159 Co132 2.096 . S
O159 C140 1.247 . S
C160 O157 1.244 1_455 S
C160 O158 1.240 . S
H161 C135 0.931 . S
H162 C144 0.931 . S
H163 C148 0.929 . S
H164 C150 0.930 . S
Co165 N169 2.148 . S
Co165 N175 2.128 . S
Co165 N185 2.194 . S
Co165 O190 2.351 . S
Co165 O191 2.155 . S
Co165 O192 2.096 . S
C166 N169 1.301 . S
C166 N170 1.328 . S
C166 H171 0.930 . S
C167 C168 1.333 . S
C167 N169 1.317 . S
C167 H172 0.930 . S
C168 C167 1.333 . S
C168 N170 1.350 . S
C168 H194 0.931 . S
N169 Co165 2.148 . S
N169 C166 1.301 . S
N169 C167 1.317 . S
N170 C166 1.328 . S
N170 C168 1.350 . S
H171 C166 0.930 . S
H172 C167 0.930 . S
C173 O174 1.224 . S
C173 O192 1.247 . S
O174 C173 1.224 . S
N175 Co165 2.128 . S
N175 C176 1.355 . S
N175 C178 1.311 . S
C176 N175 1.355 . S
C176 C177 1.363 . S
C176 H188 0.929 . S
C177 C176 1.363 . S
C177 N179 1.375 . S
C177 H195 0.931 . S
C178 N175 1.311 . S
C178 N179 1.347 . S
C178 H189 0.929 . S
N179 C177 1.375 . S
N179 C178 1.347 . S
C180 C183 1.365 . S
C180 N185 1.328 . S
C180 H186 0.929 . S
C181 C182 1.362 . S
C181 C184 1.378 . S
C181 H196 0.929 . S
C182 C181 1.362 . S
C182 C183 1.366 . S
C183 C180 1.365 . S
C183 C182 1.366 . S
C183 H197 0.930 . S
C184 C181 1.378 . S
C184 N185 1.315 . S
C184 H187 0.930 . S
N185 Co165 2.194 . S
N185 C180 1.328 . S
N185 C184 1.315 . S
H186 C180 0.929 . S
H187 C184 0.930 . S
H188 C176 0.929 . S
H189 C178 0.929 . S
O190 Co165 2.351 . S
O190 C193 1.244 . S
O191 Co165 2.155 . S
O191 C193 1.240 . S
O192 Co165 2.096 . S
O192 C173 1.247 . S
C193 O190 1.244 . S
C193 O191 1.240 . S
H194 C168 0.931 . S
H195 C177 0.931 . S
H196 C181 0.929 . S
H197 C183 0.930 . S
Co198 N202 2.148 . S
Co198 N208 2.128 1_545 S
Co198 N218 2.194 . S
Co198 O223 2.351 . S
Co198 O224 2.155 . S
Co198 O225 2.096 . S
C199 N202 1.301 . S
C199 N203 1.328 . S
C199 H204 0.930 . S
C200 C201 1.333 . S
C200 N202 1.317 . S
C200 H205 0.930 . S
C201 C200 1.333 . S
C201 N203 1.350 . S
C201 H227 0.931 . S
N202 Co198 2.148 . S
N202 C199 1.301 . S
N202 C200 1.317 . S
N203 C199 1.328 . S
N203 C201 1.350 . S
H204 C199 0.930 . S
H205 C200 0.930 . S
C206 O207 1.224 . S
C206 O225 1.247 . S
O207 C206 1.224 . S
N208 Co198 2.128 1_565 S
N208 C209 1.355 . S
N208 C211 1.311 . S
C209 N208 1.355 . S
C209 C210 1.363 . S
C209 H221 0.929 . S
C210 C209 1.363 . S
C210 N212 1.375 . S
C210 H228 0.931 . S
C211 N208 1.311 . S
C211 N212 1.347 . S
C211 H222 0.929 . S
N212 C210 1.375 . S
N212 C211 1.347 . S
C213 C216 1.365 . S
C213 N218 1.328 . S
C213 H219 0.929 . S
C214 C215 1.362 . S
C214 C217 1.378 . S
C214 H229 0.929 . S
C215 C214 1.362 . S
C215 C216 1.366 . S
C216 C213 1.365 . S
C216 C215 1.366 . S
C216 H230 0.930 . S
C217 C214 1.378 . S
C217 N218 1.315 . S
C217 H220 0.930 . S
N218 Co198 2.194 . S
N218 C213 1.328 . S
N218 C217 1.315 . S
H219 C213 0.929 . S
H220 C217 0.930 . S
H221 C209 0.929 . S
H222 C211 0.929 . S
O223 Co198 2.351 . S
O223 C226 1.244 . S
O224 Co198 2.155 . S
O224 C226 1.240 . S
O225 Co198 2.096 . S
O225 C206 1.247 . S
C226 O223 1.244 . S
C226 O224 1.240 . S
H227 C201 0.931 . S
H228 C210 0.931 . S
H229 C214 0.929 . S
H230 C216 0.930 . S
Co231 N235 2.148 . S
Co231 N241 2.128 . S
Co231 N251 2.194 . S
Co231 O256 2.351 . S
Co231 O257 2.155 . S
Co231 O258 2.096 . S
C232 N235 1.301 . S
C232 N236 1.328 . S
C232 H237 0.930 . S
C233 C234 1.333 . S
C233 N235 1.317 . S
C233 H238 0.930 . S
C234 C233 1.333 . S
C234 N236 1.350 . S
C234 H260 0.931 . S
N235 Co231 2.148 . S
N235 C232 1.301 . S
N235 C233 1.317 . S
N236 C232 1.328 . S
N236 C234 1.350 . S
H237 C232 0.930 . S
H238 C233 0.930 . S
C239 O240 1.224 . S
C239 O258 1.247 . S
O240 C239 1.224 . S
N241 Co231 2.128 . S
N241 C242 1.355 . S
N241 C244 1.311 . S
C242 N241 1.355 . S
C242 C243 1.363 . S
C242 H254 0.929 . S
C243 C242 1.363 . S
C243 N245 1.375 . S
C243 H261 0.931 . S
C244 N241 1.311 . S
C244 N245 1.347 . S
C244 H255 0.929 . S
N245 C243 1.375 . S
N245 C244 1.347 . S
C246 C249 1.365 . S
C246 N251 1.328 . S
C246 H252 0.929 . S
C247 C248 1.362 . S
C247 C250 1.378 . S
C247 H262 0.929 . S
C248 C247 1.362 . S
C248 C249 1.366 . S
C249 C246 1.365 . S
C249 C248 1.366 . S
C249 H263 0.930 . S
C250 C247 1.378 . S
C250 N251 1.315 . S
C250 H253 0.930 . S
N251 Co231 2.194 . S
N251 C246 1.328 . S
N251 C250 1.315 . S
H252 C246 0.929 . S
H253 C250 0.930 . S
H254 C242 0.929 . S
H255 C244 0.929 . S
O256 Co231 2.351 . S
O256 C259 1.244 . S
O257 Co231 2.155 . S
O257 C259 1.240 . S
O258 Co231 2.096 . S
O258 C239 1.247 . S
C259 O256 1.244 . S
C259 O257 1.240 . S
H260 C234 0.931 . S
H261 C243 0.931 . S
H262 C247 0.929 . S
H263 C249 0.930 . S
Co264 N268 2.148 . S
Co264 N274 2.128 . S
Co264 N284 2.194 . S
Co264 O289 2.351 . S
Co264 O290 2.155 . S
Co264 O291 2.096 . S
C265 N268 1.301 . S
C265 N269 1.328 . S
C265 H270 0.930 . S
C266 C267 1.333 . S
C266 N268 1.317 . S
C266 H271 0.930 . S
C267 C266 1.333 . S
C267 N269 1.350 . S
C267 H293 0.931 . S
N268 Co264 2.148 . S
N268 C265 1.301 . S
N268 C266 1.317 . S
N269 C265 1.328 . S
N269 C267 1.350 . S
H270 C265 0.930 . S
H271 C266 0.930 . S
C272 O273 1.224 . S
C272 O291 1.247 . S
O273 C272 1.224 . S
N274 Co264 2.128 . S
N274 C275 1.355 . S
N274 C277 1.311 . S
C275 N274 1.355 . S
C275 C276 1.363 . S
C275 H287 0.929 . S
C276 C275 1.363 . S
C276 N278 1.375 . S
C276 H294 0.931 . S
C277 N274 1.311 . S
C277 N278 1.347 . S
C277 H288 0.929 . S
N278 C276 1.375 . S
N278 C277 1.347 . S
C279 C282 1.365 . S
C279 N284 1.328 . S
C279 H285 0.929 . S
C280 C281 1.362 . S
C280 C283 1.378 . S
C280 H295 0.929 . S
C281 C280 1.362 . S
C281 C282 1.366 . S
C282 C279 1.365 . S
C282 C281 1.366 . S
C282 H296 0.930 . S
C283 C280 1.378 . S
C283 N284 1.315 . S
C283 H286 0.930 . S
N284 Co264 2.194 . S
N284 C279 1.328 . S
N284 C283 1.315 . S
H285 C279 0.929 . S
H286 C283 0.930 . S
H287 C275 0.929 . S
H288 C277 0.929 . S
O289 Co264 2.351 . S
O289 C292 1.244 . S
O290 Co264 2.155 . S
O290 C292 1.240 . S
O291 Co264 2.096 . S
O291 C272 1.247 . S
C292 O289 1.244 . S
C292 O290 1.240 . S
H293 C267 0.931 . S
H294 C276 0.931 . S
H295 C280 0.929 . S
H296 C282 0.930 . S
Co297 N301 2.148 . S
Co297 N307 2.128 . S
Co297 N317 2.194 . S
Co297 O322 2.351 . S
Co297 O323 2.155 . S
Co297 O324 2.096 . S
C298 N301 1.301 . S
C298 N302 1.328 . S
C298 H303 0.930 . S
C299 C300 1.333 . S
C299 N301 1.317 . S
C299 H304 0.930 . S
C300 C299 1.333 . S
C300 N302 1.350 . S
C300 H326 0.931 . S
N301 Co297 2.148 . S
N301 C298 1.301 . S
N301 C299 1.317 . S
N302 C298 1.328 . S
N302 C300 1.350 . S
H303 C298 0.930 . S
H304 C299 0.930 . S
C305 O306 1.224 . S
C305 O324 1.247 . S
O306 C305 1.224 . S
N307 Co297 2.128 . S
N307 C308 1.355 . S
N307 C310 1.311 . S
C308 N307 1.355 . S
C308 C309 1.363 . S
C308 H320 0.929 . S
C309 C308 1.363 . S
C309 N311 1.375 . S
C309 H327 0.931 . S
C310 N307 1.311 . S
C310 N311 1.347 . S
C310 H321 0.929 . S
N311 C309 1.375 . S
N311 C310 1.347 . S
C312 C315 1.365 . S
C312 N317 1.328 . S
C312 H318 0.929 . S
C313 C314 1.362 . S
C313 C316 1.378 . S
C313 H328 0.929 . S
C314 C313 1.362 . S
C314 C315 1.366 . S
C315 C312 1.365 . S
C315 C314 1.366 . S
C315 H329 0.930 . S
C316 C313 1.378 . S
C316 N317 1.315 . S
C316 H319 0.930 . S
N317 Co297 2.194 . S
N317 C312 1.328 . S
N317 C316 1.315 . S
H318 C312 0.929 . S
H319 C316 0.930 . S
H320 C308 0.929 . S
H321 C310 0.929 . S
O322 Co297 2.351 . S
O322 C325 1.244 . S
O323 Co297 2.155 . S
O323 C325 1.240 . S
O324 Co297 2.096 . S
O324 C305 1.247 . S
C325 O322 1.244 . S
C325 O323 1.240 . S
H326 C300 0.931 . S
H327 C309 0.931 . S
H328 C313 0.929 . S
H329 C315 0.930 . S
Co330 N334 2.148 . S
Co330 N340 2.128 . S
Co330 N350 2.194 . S
Co330 O355 2.351 . S
Co330 O356 2.155 . S
Co330 O357 2.096 . S
C331 N334 1.301 . S
C331 N335 1.328 . S
C331 H336 0.930 . S
C332 C333 1.333 . S
C332 N334 1.317 . S
C332 H337 0.930 . S
C333 C332 1.333 . S
C333 N335 1.350 . S
C333 H359 0.931 . S
N334 Co330 2.148 . S
N334 C331 1.301 . S
N334 C332 1.317 . S
N335 C331 1.328 . S
N335 C333 1.350 . S
H336 C331 0.930 . S
H337 C332 0.930 . S
C338 O339 1.224 . S
C338 O357 1.247 . S
O339 C338 1.224 . S
N340 Co330 2.128 . S
N340 C341 1.355 . S
N340 C343 1.311 . S
C341 N340 1.355 . S
C341 C342 1.363 . S
C341 H353 0.929 . S
C342 C341 1.363 . S
C342 N344 1.375 . S
C342 H360 0.931 . S
C343 N340 1.311 . S
C343 N344 1.347 . S
C343 H354 0.929 . S
N344 C342 1.375 . S
N344 C343 1.347 . S
C345 C348 1.365 . S
C345 N350 1.328 . S
C345 H351 0.929 . S
C346 C347 1.362 . S
C346 C349 1.378 . S
C346 H361 0.929 . S
C347 C346 1.362 . S
C347 C348 1.366 . S
C348 C345 1.365 . S
C348 C347 1.366 . S
C348 H362 0.930 . S
C349 C346 1.378 . S
C349 N350 1.315 . S
C349 H352 0.930 . S
N350 Co330 2.194 . S
N350 C345 1.328 . S
N350 C349 1.315 . S
H351 C345 0.929 . S
H352 C349 0.930 . S
H353 C341 0.929 . S
H354 C343 0.929 . S
O355 Co330 2.351 . S
O355 C358 1.244 . S
O356 Co330 2.155 . S
O356 C358 1.240 . S
O357 Co330 2.096 . S
O357 C338 1.247 . S
C358 O355 1.244 . S
C358 O356 1.240 . S
H359 C333 0.931 . S
H360 C342 0.931 . S
H361 C346 0.929 . S
H362 C348 0.930 . S
Co363 N367 2.148 . S
Co363 N373 2.128 . S
Co363 N383 2.194 . S
Co363 O388 2.351 . S
Co363 O389 2.155 . S
Co363 O390 2.096 . S
C364 N367 1.301 . S
C364 N368 1.328 . S
C364 H369 0.930 . S
C365 C366 1.333 . S
C365 N367 1.317 . S
C365 H370 0.930 . S
C366 C365 1.333 . S
C366 N368 1.350 . S
C366 H392 0.931 . S
N367 Co363 2.148 . S
N367 C364 1.301 . S
N367 C365 1.317 . S
N368 C364 1.328 . S
N368 C366 1.350 . S
H369 C364 0.930 . S
H370 C365 0.930 . S
C371 O372 1.224 . S
C371 O390 1.247 . S
O372 C371 1.224 . S
N373 Co363 2.128 . S
N373 C374 1.355 . S
N373 C376 1.311 . S
C374 N373 1.355 . S
C374 C375 1.363 . S
C374 H386 0.929 . S
C375 C374 1.363 . S
C375 N377 1.375 . S
C375 H393 0.931 . S
C376 N373 1.311 . S
C376 N377 1.347 . S
C376 H387 0.929 . S
N377 C375 1.375 . S
N377 C376 1.347 . S
C378 C381 1.365 . S
C378 N383 1.328 . S
C378 H384 0.929 . S
C379 C380 1.362 . S
C379 C382 1.378 . S
C379 H394 0.929 . S
C380 C379 1.362 . S
C380 C381 1.366 . S
C381 C378 1.365 . S
C381 C380 1.366 . S
C381 H395 0.930 . S
C382 C379 1.378 . S
C382 N383 1.315 . S
C382 H385 0.930 . S
N383 Co363 2.194 . S
N383 C378 1.328 . S
N383 C382 1.315 . S
H384 C378 0.929 . S
H385 C382 0.930 . S
H386 C374 0.929 . S
H387 C376 0.929 . S
O388 Co363 2.351 . S
O388 C391 1.244 . S
O389 Co363 2.155 . S
O389 C391 1.240 . S
O390 Co363 2.096 . S
O390 C371 1.247 . S
C391 O388 1.244 . S
C391 O389 1.240 . S
H392 C366 0.931 . S
H393 C375 0.931 . S
H394 C379 0.929 . S
H395 C381 0.930 . S
Co396 N400 2.148 . S
Co396 N406 2.128 . S
Co396 N416 2.194 . S
Co396 O421 2.351 . S
Co396 O422 2.155 . S
Co396 O423 2.096 . S
C397 N400 1.301 . S
C397 N401 1.328 . S
C397 H402 0.930 . S
C398 C399 1.333 . S
C398 N400 1.317 . S
C398 H403 0.930 . S
C399 C398 1.333 . S
C399 N401 1.350 . S
C399 H425 0.931 . S
N400 Co396 2.148 . S
N400 C397 1.301 . S
N400 C398 1.317 . S
N401 C397 1.328 . S
N401 C399 1.350 . S
H402 C397 0.930 . S
H403 C398 0.930 . S
C404 O405 1.224 . S
C404 O423 1.247 . S
O405 C404 1.224 . S
N406 Co396 2.128 . S
N406 C407 1.355 . S
N406 C409 1.311 . S
C407 N406 1.355 . S
C407 C408 1.363 . S
C407 H419 0.929 . S
C408 C407 1.363 . S
C408 N410 1.375 . S
C408 H426 0.931 . S
C409 N406 1.311 . S
C409 N410 1.347 . S
C409 H420 0.929 . S
N410 C408 1.375 . S
N410 C409 1.347 . S
C411 C414 1.365 . S
C411 N416 1.328 . S
C411 H417 0.929 . S
C412 C413 1.362 . S
C412 C415 1.378 . S
C412 H427 0.929 . S
C413 C412 1.362 . S
C413 C414 1.366 . S
C414 C411 1.365 . S
C414 C413 1.366 . S
C414 H428 0.930 . S
C415 C412 1.378 . S
C415 N416 1.315 . S
C415 H418 0.930 . S
N416 Co396 2.194 . S
N416 C411 1.328 . S
N416 C415 1.315 . S
H417 C411 0.929 . S
H418 C415 0.930 . S
H419 C407 0.929 . S
H420 C409 0.929 . S
O421 Co396 2.351 . S
O421 C424 1.244 . S
O422 Co396 2.155 . S
O422 C424 1.240 . S
O423 Co396 2.096 . S
O423 C404 1.247 . S
C424 O421 1.244 . S
C424 O422 1.240 . S
H425 C399 0.931 . S
H426 C408 0.931 . S
H427 C412 0.929 . S
H428 C414 0.930 . S
Co429 N433 2.148 . S
Co429 N439 2.131 . S
Co429 N449 2.194 1_655 S
Co429 O454 2.351 1_655 S
Co429 O455 2.155 . S
Co429 O456 2.096 . S
C430 N433 1.301 1_455 S
C430 N434 1.328 1_455 S
C430 H435 0.930 . S
C431 C432 1.333 . S
C431 N433 1.317 . S
C431 H436 0.930 . S
C432 C431 1.333 . S
C432 N434 1.350 . S
C432 H458 0.931 . S
N433 Co429 2.148 . S
N433 C430 1.301 1_655 S
N433 C431 1.317 . S
N434 C430 1.328 1_655 S
N434 C432 1.350 . S
H435 C430 0.930 . S
H436 C431 0.930 . S
C437 O438 1.224 . S
C437 O456 1.247 . S
O438 C437 1.224 . S
N439 Co429 2.131 . S
N439 C440 1.340 1_655 S
N439 C442 1.321 . S
C440 N439 1.340 1_455 S
C440 C441 1.363 . S
C440 H452 0.929 . S
C441 C440 1.363 . S
C441 N443 1.375 1_455 S
C441 H459 0.931 . S
C442 N439 1.321 . S
C442 N443 1.347 . S
C442 H453 0.929 . S
N443 C441 1.375 1_655 S
N443 C442 1.347 . S
C444 C447 1.365 . S
C444 N449 1.328 . S
C444 H450 0.929 . S
C445 C446 1.362 . S
C445 C448 1.378 . S
C445 H460 0.929 . S
C446 C445 1.362 . S
C446 C447 1.366 . S
C447 C444 1.365 . S
C447 C446 1.366 . S
C447 H461 0.930 . S
C448 C445 1.378 . S
C448 N449 1.315 . S
C448 H451 0.930 . S
N449 Co429 2.194 1_455 S
N449 C444 1.328 . S
N449 C448 1.315 . S
H450 C444 0.929 . S
H451 C448 0.930 . S
H452 C440 0.929 . S
H453 C442 0.929 . S
O454 Co429 2.351 1_455 S
O454 C457 1.231 1_455 S
O455 Co429 2.155 . S
O455 C457 1.254 . S
O456 Co429 2.096 . S
O456 C437 1.247 . S
C457 O454 1.231 1_655 S
C457 O455 1.254 . S
H458 C432 0.931 . S
H459 C441 0.931 . S
H460 C445 0.929 . S
H461 C447 0.930 . S
Co462 N466 2.148 . S
Co462 N472 2.128 . S
Co462 N482 2.194 . S
Co462 O487 2.351 . S
Co462 O488 2.155 . S
Co462 O489 2.096 . S
C463 N466 1.301 . S
C463 N467 1.328 . S
C463 H468 0.930 . S
C464 C465 1.333 . S
C464 N466 1.317 . S
C464 H469 0.930 . S
C465 C464 1.333 . S
C465 N467 1.350 . S
C465 H491 0.931 . S
N466 Co462 2.148 . S
N466 C463 1.301 . S
N466 C464 1.317 . S
N467 C463 1.328 . S
N467 C465 1.350 . S
H468 C463 0.930 . S
H469 C464 0.930 . S
C470 O471 1.224 . S
C470 O489 1.247 . S
O471 C470 1.224 . S
N472 Co462 2.128 . S
N472 C473 1.355 . S
N472 C475 1.311 . S
C473 N472 1.355 . S
C473 C474 1.363 . S
C473 H485 0.929 . S
C474 C473 1.363 . S
C474 N476 1.375 . S
C474 H492 0.931 . S
C475 N472 1.311 . S
C475 N476 1.347 . S
C475 H486 0.929 . S
N476 C474 1.375 . S
N476 C475 1.347 . S
C477 C480 1.365 . S
C477 N482 1.328 . S
C477 H483 0.929 . S
C478 C479 1.362 . S
C478 C481 1.378 . S
C478 H493 0.929 . S
C479 C478 1.362 . S
C479 C480 1.366 . S
C480 C477 1.365 . S
C480 C479 1.366 . S
C480 H494 0.930 . S
C481 C478 1.378 . S
C481 N482 1.315 . S
C481 H484 0.930 . S
N482 Co462 2.194 . S
N482 C477 1.328 . S
N482 C481 1.315 . S
H483 C477 0.929 . S
H484 C481 0.930 . S
H485 C473 0.929 . S
H486 C475 0.929 . S
O487 Co462 2.351 . S
O487 C490 1.244 . S
O488 Co462 2.155 . S
O488 C490 1.240 . S
O489 Co462 2.096 . S
O489 C470 1.247 . S
C490 O487 1.244 . S
C490 O488 1.240 . S
H491 C465 0.931 . S
H492 C474 0.931 . S
H493 C478 0.929 . S
H494 C480 0.930 . S
Co495 N499 2.148 . S
Co495 N505 2.131 . S
Co495 N515 2.194 1_655 S
Co495 O520 2.351 1_655 S
Co495 O521 2.155 . S
Co495 O522 2.096 . S
C496 N499 1.301 1_455 S
C496 N500 1.328 1_455 S
C496 H501 0.930 . S
C497 C498 1.333 . S
C497 N499 1.317 . S
C497 H502 0.930 . S
C498 C497 1.333 . S
C498 N500 1.350 . S
C498 H524 0.931 . S
N499 Co495 2.148 . S
N499 C496 1.301 1_655 S
N499 C497 1.317 . S
N500 C496 1.328 1_655 S
N500 C498 1.350 . S
H501 C496 0.930 . S
H502 C497 0.930 . S
C503 O504 1.224 . S
C503 O522 1.247 . S
O504 C503 1.224 . S
N505 Co495 2.131 . S
N505 C506 1.342 1_655 S
N505 C508 1.320 . S
C506 N505 1.342 1_455 S
C506 C507 1.363 . S
C506 H518 0.929 . S
C507 C506 1.363 . S
C507 N509 1.375 1_455 S
C507 H525 0.931 . S
C508 N505 1.320 . S
C508 N509 1.347 . S
C508 H519 0.929 . S
N509 C507 1.375 1_655 S
N509 C508 1.347 . S
C510 C513 1.365 . S
C510 N515 1.328 . S
C510 H516 0.929 . S
C511 C512 1.362 . S
C511 C514 1.378 . S
C511 H526 0.929 . S
C512 C511 1.362 . S
C512 C513 1.366 . S
C513 C510 1.365 . S
C513 C512 1.366 . S
C513 H527 0.930 . S
C514 C511 1.378 . S
C514 N515 1.315 . S
C514 H517 0.930 . S
N515 Co495 2.194 1_455 S
N515 C510 1.328 . S
N515 C514 1.315 . S
H516 C510 0.929 . S
H517 C514 0.930 . S
H518 C506 0.929 . S
H519 C508 0.929 . S
O520 Co495 2.351 1_455 S
O520 C523 1.232 1_455 S
O521 Co495 2.155 . S
O521 C523 1.252 . S
O522 Co495 2.096 . S
O522 C503 1.247 . S
C523 O520 1.232 1_655 S
C523 O521 1.252 . S
H524 C498 0.931 . S
H525 C507 0.931 . S
H526 C511 0.929 . S
H527 C513 0.930 . S
C528 C529 1.367 1_655 S
C528 C530 1.419 . S
C528 H532 0.930 . S
C529 C528 1.367 1_455 S
C529 C538 1.432 . S
C530 C528 1.419 . S
C530 C531 1.363 1_655 S
C530 H533 0.929 . S
C531 C530 1.363 1_455 S
C531 C537 1.428 . S
H532 C528 0.930 . S
H533 C530 0.929 . S
S534 N535 1.613 . S
S534 N536 1.610 . S
N535 S534 1.613 . S
N535 C538 1.350 . S
N536 S534 1.610 . S
N536 C537 1.351 . S
C537 C531 1.428 . S
C537 N536 1.351 . S
C537 C538 1.434 . S
C538 C529 1.432 . S
C538 N535 1.350 . S
C538 C537 1.434 . S
C539 C540 1.369 . S
C539 C541 1.419 1_455 S
C539 H543 0.930 . S
C540 C539 1.369 . S
C540 C549 1.429 . S
C541 C539 1.419 1_655 S
C541 C542 1.363 . S
C541 H544 0.929 . S
C542 C541 1.363 . S
C542 C548 1.428 . S
H543 C539 0.930 . S
H544 C541 0.929 . S
S545 N546 1.613 . S
S545 N547 1.610 1_455 S
N546 S545 1.613 . S
N546 C549 1.350 . S
N547 S545 1.610 1_655 S
N547 C548 1.351 . S
C548 C542 1.428 . S
C548 N547 1.351 . S
C548 C549 1.434 1_655 S
C549 C540 1.429 . S
C549 N546 1.350 . S
C549 C548 1.434 1_455 S
C550 C551 1.369 . S
C550 C552 1.419 . S
C550 H554 0.930 . S
C551 C550 1.369 . S
C551 C560 1.429 . S
C552 C550 1.419 . S
C552 C553 1.363 . S
C552 H555 0.929 . S
C553 C552 1.363 . S
C553 C559 1.428 . S
H554 C550 0.930 . S
H555 C552 0.929 . S
S556 N557 1.613 . S
S556 N558 1.610 . S
N557 S556 1.613 . S
N557 C560 1.350 . S
N558 S556 1.610 . S
N558 C559 1.351 . S
C559 C553 1.428 . S
C559 N558 1.351 . S
C559 C560 1.434 . S
C560 C551 1.429 . S
C560 N557 1.350 . S
C560 C559 1.434 . S
C561 C562 1.369 . S
C561 C563 1.419 . S
C561 H565 0.930 . S
C562 C561 1.369 . S
C562 C571 1.429 . S
C563 C561 1.419 . S
C563 C564 1.363 . S
C563 H566 0.929 . S
C564 C563 1.363 . S
C564 C570 1.428 . S
H565 C561 0.930 . S
H566 C563 0.929 . S
S567 N568 1.613 . S
S567 N569 1.610 . S
N568 S567 1.613 . S
N568 C571 1.350 . S
N569 S567 1.610 . S
N569 C570 1.351 . S
C570 C564 1.428 . S
C570 N569 1.351 . S
C570 C571 1.434 . S
C571 C562 1.429 . S
C571 N568 1.350 . S
C571 C570 1.434 . S
C572 C573 1.358 1_455 S
C572 C574 1.419 . S
C572 H576 0.930 . S
C573 C572 1.358 1_655 S
C573 C582 1.438 . S
C574 C572 1.419 . S
C574 C575 1.363 . S
C574 H577 0.929 . S
C575 C574 1.363 . S
C575 C581 1.428 1_455 S
H576 C572 0.930 . S
H577 C574 0.929 . S
S578 N579 1.613 . S
S578 N580 1.610 . S
N579 S578 1.613 . S
N579 C582 1.350 . S
N580 S578 1.610 . S
N580 C581 1.351 . S
C581 C575 1.428 1_655 S
C581 N580 1.351 . S
C581 C582 1.434 . S
C582 C573 1.438 . S
C582 N579 1.350 . S
C582 C581 1.434 . S
C583 C584 1.369 . S
C583 C585 1.419 . S
C583 H587 0.930 . S
C584 C583 1.369 . S
C584 C593 1.429 . S
C585 C583 1.419 . S
C585 C586 1.363 . S
C585 H588 0.929 . S
C586 C585 1.363 . S
C586 C592 1.428 . S
H587 C583 0.930 . S
H588 C585 0.929 . S
S589 N590 1.613 . S
S589 N591 1.610 . S
N590 S589 1.613 . S
N590 C593 1.350 . S
N591 S589 1.610 . S
N591 C592 1.351 . S
C592 C586 1.428 . S
C592 N591 1.351 . S
C592 C593 1.434 . S
C593 C584 1.429 . S
C593 N590 1.350 . S
C593 C592 1.434 . S
C594 C595 1.369 . S
C594 C596 1.419 . S
C594 H598 0.930 . S
C595 C594 1.369 . S
C595 C604 1.429 . S
C596 C594 1.419 . S
C596 C597 1.363 . S
C596 H599 0.929 . S
C597 C596 1.363 . S
C597 C603 1.428 . S
H598 C594 0.930 . S
H599 C596 0.929 . S
S600 N601 1.613 . S
S600 N602 1.610 . S
N601 S600 1.613 . S
N601 C604 1.350 . S
N602 S600 1.610 . S
N602 C603 1.351 . S
C603 C597 1.428 . S
C603 N602 1.351 . S
C603 C604 1.434 . S
C604 C595 1.429 . S
C604 N601 1.350 . S
C604 C603 1.434 . S
C605 C606 1.369 . S
C605 C607 1.419 1_655 S
C605 H609 0.930 . S
C606 C605 1.369 . S
C606 C615 1.429 . S
C607 C605 1.419 1_455 S
C607 C608 1.363 . S
C607 H610 0.929 . S
C608 C607 1.363 . S
C608 C614 1.428 . S
H609 C605 0.930 . S
H610 C607 0.929 . S
S611 N612 1.613 . S
S611 N613 1.610 1_655 S
N612 S611 1.613 . S
N612 C615 1.350 . S
N613 S611 1.610 1_455 S
N613 C614 1.351 . S
C614 C608 1.428 . S
C614 N613 1.351 . S
C614 C615 1.434 1_455 S
C615 C606 1.429 . S
C615 N612 1.350 . S
C615 C614 1.434 1_655 S
C616 C617 1.369 . S
C616 C618 1.419 1_554 S
C616 H620 0.930 . S
C617 C616 1.369 . S
C617 C626 1.429 . S
C618 C616 1.419 1_556 S
C618 C619 1.363 . S
C618 H621 0.929 . S
C619 C618 1.363 . S
C619 C625 1.428 . S
H620 C616 0.930 . S
H621 C618 0.929 . S
S622 N623 1.613 . S
S622 N624 1.610 1_554 S
N623 S622 1.613 . S
N623 C626 1.350 1_565 S
N624 S622 1.610 1_556 S
N624 C625 1.351 1_565 S
C625 C619 1.428 . S
C625 N624 1.351 1_545 S
C625 C626 1.434 1_556 S
C626 C617 1.429 . S
C626 N623 1.350 1_545 S
C626 C625 1.434 1_554 S
C627 C628 1.369 . S
C627 C629 1.419 . S
C627 H631 0.930 . S
C628 C627 1.369 . S
C628 C637 1.429 . S
C629 C627 1.419 . S
C629 C630 1.363 . S
C629 H632 0.929 . S
C630 C629 1.363 . S
C630 C636 1.428 . S
H631 C627 0.930 . S
H632 C629 0.929 . S
S633 N634 1.613 . S
S633 N635 1.610 . S
N634 S633 1.613 . S
N634 C637 1.350 . S
N635 S633 1.610 . S
N635 C636 1.351 . S
C636 C630 1.428 . S
C636 N635 1.351 . S
C636 C637 1.434 . S
C637 C628 1.429 . S
C637 N634 1.350 . S
C637 C636 1.434 . S
C638 C639 1.369 . S
C638 C640 1.419 . S
C638 H642 0.930 1_545 S
C639 C638 1.369 . S
C639 C648 1.429 . S
C640 C638 1.419 . S
C640 C641 1.363 . S
C640 H643 0.929 . S
C641 C640 1.363 . S
C641 C647 1.428 . S
H642 C638 0.930 1_565 S
H643 C640 0.929 . S
S644 N645 1.613 . S
S644 N646 1.610 . S
N645 S644 1.613 . S
N645 C648 1.350 . S
N646 S644 1.610 . S
N646 C647 1.351 . S
C647 C641 1.428 . S
C647 N646 1.351 . S
C647 C648 1.434 . S
C648 C639 1.429 . S
C648 N645 1.350 . S
C648 C647 1.434 . S
C649 C650 1.369 . S
C649 C651 1.419 . S
C649 H653 0.930 . S
C650 C649 1.369 . S
C650 C659 1.429 . S
C651 C649 1.419 . S
C651 C652 1.363 . S
C651 H654 0.929 . S
C652 C651 1.363 . S
C652 C658 1.428 . S
H653 C649 0.930 . S
H654 C651 0.929 . S
S655 N656 1.613 . S
S655 N657 1.610 . S
N656 S655 1.613 . S
N656 C659 1.350 . S
N657 S655 1.610 . S
N657 C658 1.351 . S
C658 C652 1.428 . S
C658 N657 1.351 . S
C658 C659 1.434 . S
C659 C650 1.429 . S
C659 N656 1.350 . S
C659 C658 1.434 . S
C660 C661 1.369 . S
C660 C662 1.419 . S
C660 H664 0.930 . S
C661 C660 1.369 . S
C661 C670 1.429 . S
C662 C660 1.419 . S
C662 C663 1.363 . S
C662 H665 0.929 . S
C663 C662 1.363 . S
C663 C669 1.428 . S
H664 C660 0.930 . S
H665 C662 0.929 . S
S666 N667 1.613 . S
S666 N668 1.610 . S
N667 S666 1.613 . S
N667 C670 1.350 . S
N668 S666 1.610 . S
N668 C669 1.351 . S
C669 C663 1.428 . S
C669 N668 1.351 . S
C669 C670 1.434 . S
C670 C661 1.429 . S
C670 N667 1.350 . S
C670 C669 1.434 . S
C671 C672 1.369 . S
C671 C673 1.419 . S
C671 H675 0.930 . S
C672 C671 1.369 . S
C672 C681 1.429 . S
C673 C671 1.419 . S
C673 C674 1.363 . S
C673 H676 0.929 . S
C674 C673 1.363 . S
C674 C680 1.428 . S
H675 C671 0.930 . S
H676 C673 0.929 . S
S677 N678 1.613 . S
S677 N679 1.610 . S
N678 S677 1.613 . S
N678 C681 1.350 . S
N679 S677 1.610 . S
N679 C680 1.351 . S
C680 C674 1.428 . S
C680 N679 1.351 . S
C680 C681 1.434 . S
C681 C672 1.429 . S
C681 N678 1.350 . S
C681 C680 1.434 . S
C682 C683 1.369 . S
C682 C684 1.419 . S
C682 H686 0.930 . S
C683 C682 1.369 . S
C683 C692 1.429 . S
C684 C682 1.419 . S
C684 C685 1.363 . S
C684 H687 0.929 . S
C685 C684 1.363 . S
C685 C691 1.428 . S
H686 C682 0.930 . S
H687 C684 0.929 . S
S688 N689 1.613 . S
S688 N690 1.610 . S
N689 S688 1.613 . S
N689 C692 1.350 . S
N690 S688 1.610 . S
N690 C691 1.351 . S
C691 C685 1.428 . S
C691 N690 1.351 . S
C691 C692 1.434 . S
C692 C683 1.429 . S
C692 N689 1.350 . S
C692 C691 1.434 . S
C693 C694 1.360 1_655 S
C693 C695 1.419 1_556 S
C693 H697 0.930 . S
C694 C693 1.360 1_455 S
C694 C703 1.438 . S
C695 C693 1.419 1_554 S
C695 C696 1.354 1_655 S
C695 H698 0.929 . S
C696 C695 1.354 1_455 S
C696 C702 1.438 . S
H697 C693 0.930 . S
H698 C695 0.929 . S
S699 N700 1.613 . S
S699 N701 1.610 1_556 S
N700 S699 1.613 . S
N700 C703 1.350 . S
N701 S699 1.610 1_554 S
N701 C702 1.351 . S
C702 C696 1.438 . S
C702 N701 1.351 . S
C702 C703 1.434 1_554 S
C703 C694 1.438 . S
C703 N700 1.350 . S
C703 C702 1.434 1_556 S
C704 C705 1.369 . S
C704 C706 1.419 1_565 S
C704 H708 0.930 1_565 S
C705 C704 1.369 . S
C705 C714 1.429 . S
C706 C704 1.419 1_545 S
C706 C707 1.363 1_545 S
C706 H709 0.929 . S
C707 C706 1.363 1_565 S
C707 C713 1.428 . S
H708 C704 0.930 1_545 S
H709 C706 0.929 . S
S710 N711 1.613 . S
S710 N712 1.610 . S
N711 S710 1.613 . S
N711 C714 1.350 . S
N712 S710 1.610 . S
N712 C713 1.351 . S
C713 C707 1.428 . S
C713 N712 1.351 . S
C713 C714 1.434 . S
C714 C705 1.429 . S
C714 N711 1.350 . S
C714 C713 1.434 . S
C715 C716 1.369 . S
C715 C717 1.419 . S
C715 H719 0.930 . S
C716 C715 1.369 . S
C716 C725 1.429 . S
C717 C715 1.419 . S
C717 C718 1.363 . S
C717 H720 0.929 . S
C718 C717 1.363 . S
C718 C724 1.428 . S
H719 C715 0.930 . S
H720 C717 0.929 . S
S721 N722 1.613 . S
S721 N723 1.610 1_565 S
N722 S721 1.613 . S
N722 C725 1.350 . S
N723 S721 1.610 1_545 S
N723 C724 1.351 1_545 S
C724 C718 1.428 . S
C724 N723 1.351 1_565 S
C724 C725 1.434 . S
C725 C716 1.429 . S
C725 N722 1.350 . S
C725 C724 1.434 . S
C726 C727 1.369 . S
C726 C728 1.419 . S
C726 H730 0.930 . S
C727 C726 1.369 . S
C727 C736 1.429 . S
C728 C726 1.419 . S
C728 C729 1.363 . S
C728 H731 0.929 . S
C729 C728 1.363 . S
C729 C735 1.428 . S
H730 C726 0.930 . S
H731 C728 0.929 . S
S732 N733 1.613 . S
S732 N734 1.610 . S
N733 S732 1.613 . S
N733 C736 1.350 . S
N734 S732 1.610 . S
N734 C735 1.351 . S
C735 C729 1.428 . S
C735 N734 1.351 . S
C735 C736 1.434 . S
C736 C727 1.429 . S
C736 N733 1.350 . S
C736 C735 1.434 . S
C737 C738 1.369 . S
C737 C739 1.419 . S
C737 H741 0.930 . S
C738 C737 1.369 . S
C738 C747 1.429 . S
C739 C737 1.419 . S
C739 C740 1.363 . S
C739 H742 0.929 . S
C740 C739 1.363 . S
C740 C746 1.428 . S
H741 C737 0.930 . S
H742 C739 0.929 . S
S743 N744 1.613 . S
S743 N745 1.610 . S
N744 S743 1.613 . S
N744 C747 1.350 . S
N745 S743 1.610 . S
N745 C746 1.351 . S
C746 C740 1.428 . S
C746 N745 1.351 . S
C746 C747 1.434 . S
C747 C738 1.429 . S
C747 N744 1.350 . S
C747 C746 1.434 . S
C748 C749 1.369 . S
C748 C750 1.419 . S
C748 H752 0.930 . S
C749 C748 1.369 . S
C749 C758 1.429 . S
C750 C748 1.419 . S
C750 C751 1.363 . S
C750 H753 0.929 . S
C751 C750 1.363 . S
C751 C757 1.428 . S
H752 C748 0.930 . S
H753 C750 0.929 . S
S754 N755 1.613 . S
S754 N756 1.610 . S
N755 S754 1.613 . S
N755 C758 1.350 . S
N756 S754 1.610 . S
N756 C757 1.351 . S
C757 C751 1.428 . S
C757 N756 1.351 . S
C757 C758 1.434 . S
C758 C749 1.429 . S
C758 N755 1.350 . S
C758 C757 1.434 . S
C759 C760 1.369 . S
C759 C761 1.419 . S
C759 H763 0.930 . S
C760 C759 1.369 . S
C760 C769 1.429 . S
C761 C759 1.419 . S
C761 C762 1.363 . S
C761 H764 0.929 . S
C762 C761 1.363 . S
C762 C768 1.428 . S
H763 C759 0.930 . S
H764 C761 0.929 . S
S765 N766 1.613 . S
S765 N767 1.610 . S
N766 S765 1.613 . S
N766 C769 1.350 . S
N767 S765 1.610 . S
N767 C768 1.351 . S
C768 C762 1.428 . S
C768 N767 1.351 . S
C768 C769 1.434 . S
C769 C760 1.429 . S
C769 N766 1.350 . S
C769 C768 1.434 . S
C770 C771 1.369 . S
C770 C772 1.419 1_565 S
C770 H774 0.930 . S
C771 C770 1.369 . S
C771 C780 1.429 . S
C772 C770 1.419 1_545 S
C772 C773 1.363 . S
C772 H775 0.929 . S
C773 C772 1.363 . S
C773 C779 1.428 . S
H774 C770 0.930 . S
H775 C772 0.929 . S
S776 N777 1.613 1_545 S
S776 N778 1.610 . S
N777 S776 1.613 1_565 S
N777 C780 1.350 . S
N778 S776 1.610 . S
N778 C779 1.351 . S
C779 C773 1.428 . S
C779 N778 1.351 . S
C779 C780 1.434 1_545 S
C780 C771 1.429 . S
C780 N777 1.350 . S
C780 C779 1.434 1_565 S
C781 C782 1.369 1_545 S
C781 C783 1.419 . S
C781 H785 0.930 . S
C782 C781 1.369 1_565 S
C782 C791 1.429 . S
C783 C781 1.419 . S
C783 C784 1.363 . S
C783 H786 0.929 . S
C784 C783 1.363 . S
C784 C790 1.428 1_545 S
H785 C781 0.930 . S
H786 C783 0.929 . S
S787 N788 1.613 . S
S787 N789 1.610 . S
N788 S787 1.613 . S
N788 C791 1.350 . S
N789 S787 1.610 . S
N789 C790 1.351 . S
C790 C784 1.428 1_565 S
C790 N789 1.351 . S
C790 C791 1.434 . S
C791 C782 1.429 . S
C791 N788 1.350 . S
C791 C790 1.434 . S
C792 C793 1.369 . S
C792 C794 1.419 . S
C792 H796 0.930 . S
C793 C792 1.369 . S
C793 C802 1.429 . S
C794 C792 1.419 . S
C794 C795 1.363 . S
C794 H797 0.929 . S
C795 C794 1.363 . S
C795 C801 1.428 . S
H796 C792 0.930 . S
H797 C794 0.929 . S
S798 N799 1.613 . S
S798 N800 1.610 . S
N799 S798 1.613 . S
N799 C802 1.350 . S
N800 S798 1.610 . S
N800 C801 1.351 . S
C801 C795 1.428 . S
C801 N800 1.351 . S
C801 C802 1.434 . S
C802 C793 1.429 . S
C802 N799 1.350 . S
C802 C801 1.434 . S
C803 C804 1.369 . S
C803 C805 1.419 . S
C803 H807 0.930 . S
C804 C803 1.369 . S
C804 C813 1.429 . S
C805 C803 1.419 . S
C805 C806 1.363 . S
C805 H808 0.929 . S
C806 C805 1.363 . S
C806 C812 1.428 . S
H807 C803 0.930 . S
H808 C805 0.929 . S
S809 N810 1.613 . S
S809 N811 1.610 . S
N810 S809 1.613 . S
N810 C813 1.350 . S
N811 S809 1.610 . S
N811 C812 1.351 . S
C812 C806 1.428 . S
C812 N811 1.351 . S
C812 C813 1.434 . S
C813 C804 1.429 . S
C813 N810 1.350 . S
C813 C812 1.434 . S
C814 C815 1.369 . S
C814 C816 1.419 . S
C814 H818 0.930 . S
C815 C814 1.369 . S
C815 C824 1.429 . S
C816 C814 1.419 . S
C816 C817 1.363 . S
C816 H819 0.929 . S
C817 C816 1.363 . S
C817 C823 1.428 . S
H818 C814 0.930 . S
H819 C816 0.929 . S
S820 N821 1.613 . S
S820 N822 1.610 . S
N821 S820 1.613 . S
N821 C824 1.350 . S
N822 S820 1.610 . S
N822 C823 1.351 . S
C823 C817 1.428 . S
C823 N822 1.351 . S
C823 C824 1.434 . S
C824 C815 1.429 . S
C824 N821 1.350 . S
C824 C823 1.434 . S
C825 C826 1.369 . S
C825 C827 1.419 . S
C825 H829 0.930 . S
C826 C825 1.369 . S
C826 C835 1.429 . S
C827 C825 1.419 . S
C827 C828 1.363 . S
C827 H830 0.929 . S
C828 C827 1.363 . S
C828 C834 1.428 . S
H829 C825 0.930 . S
H830 C827 0.929 . S
S831 N832 1.613 . S
S831 N833 1.610 . S
N832 S831 1.613 . S
N832 C835 1.350 . S
N833 S831 1.610 . S
N833 C834 1.351 . S
C834 C828 1.428 . S
C834 N833 1.351 . S
C834 C835 1.434 . S
C835 C826 1.429 . S
C835 N832 1.350 . S
C835 C834 1.434 . S
C836 C837 1.369 . S
C836 C838 1.419 . S
C836 H840 0.930 . S
C837 C836 1.369 . S
C837 C846 1.429 . S
C838 C836 1.419 . S
C838 C839 1.363 . S
C838 H841 0.929 . S
C839 C838 1.363 . S
C839 C845 1.428 . S
H840 C836 0.930 . S
H841 C838 0.929 . S
S842 N843 1.613 . S
S842 N844 1.610 . S
N843 S842 1.613 . S
N843 C846 1.350 . S
N844 S842 1.610 . S
N844 C845 1.351 . S
C845 C839 1.428 . S
C845 N844 1.351 . S
C845 C846 1.434 . S
C846 C837 1.429 . S
C846 N843 1.350 . S
C846 C845 1.434 . S
C847 C848 1.369 . S
C847 C849 1.419 . S
C847 H851 0.930 . S
C848 C847 1.369 . S
C848 C857 1.429 . S
C849 C847 1.419 . S
C849 C850 1.363 . S
C849 H852 0.929 . S
C850 C849 1.363 . S
C850 C856 1.428 . S
H851 C847 0.930 . S
H852 C849 0.929 . S
S853 N854 1.613 . S
S853 N855 1.610 . S
N854 S853 1.613 . S
N854 C857 1.350 . S
N855 S853 1.610 . S
N855 C856 1.351 . S
C856 C850 1.428 . S
C856 N855 1.351 . S
C856 C857 1.434 . S
C857 C848 1.429 . S
C857 N854 1.350 . S
C857 C856 1.434 . S
C858 C859 1.369 . S
C858 C860 1.419 . S
C858 H862 0.930 . S
C859 C858 1.369 . S
C859 C868 1.429 . S
C860 C858 1.419 . S
C860 C861 1.363 . S
C860 H863 0.929 . S
C861 C860 1.363 . S
C861 C867 1.428 . S
H862 C858 0.930 . S
H863 C860 0.929 . S
S864 N865 1.613 . S
S864 N866 1.610 . S
N865 S864 1.613 . S
N865 C868 1.350 . S
N866 S864 1.610 . S
N866 C867 1.351 . S
C867 C861 1.428 . S
C867 N866 1.351 . S
C867 C868 1.434 . S
C868 C859 1.429 . S
C868 N865 1.350 . S
C868 C867 1.434 . S
C869 C870 1.369 . S
C869 C871 1.419 . S
C869 H873 0.930 . S
C870 C869 1.369 . S
C870 C879 1.429 . S
C871 C869 1.419 . S
C871 C872 1.363 . S
C871 H874 0.929 . S
C872 C871 1.363 . S
C872 C878 1.428 . S
H873 C869 0.930 . S
H874 C871 0.929 . S
S875 N876 1.613 . S
S875 N877 1.610 . S
N876 S875 1.613 . S
N876 C879 1.350 . S
N877 S875 1.610 . S
N877 C878 1.351 . S
C878 C872 1.428 . S
C878 N877 1.351 . S
C878 C879 1.434 . S
C879 C870 1.429 . S
C879 N876 1.350 . S
C879 C878 1.434 . S
C880 C881 1.369 . S
C880 C882 1.419 . S
C880 H884 0.930 . S
C881 C880 1.369 . S
C881 C890 1.429 1_455 S
C882 C880 1.419 . S
C882 C883 1.363 1_455 S
C882 H885 0.929 . S
C883 C882 1.363 1_655 S
C883 C889 1.428 . S
H884 C880 0.930 . S
H885 C882 0.929 . S
S886 N887 1.613 . S
S886 N888 1.610 . S
N887 S886 1.613 . S
N887 C890 1.350 . S
N888 S886 1.610 . S
N888 C889 1.351 . S
C889 C883 1.428 . S
C889 N888 1.351 . S
C889 C890 1.434 . S
C890 C881 1.429 1_655 S
C890 N887 1.350 . S
C890 C889 1.434 . S
C891 C892 1.369 . S
C891 C893 1.419 . S
C891 H895 0.930 . S
C892 C891 1.369 . S
C892 C901 1.429 . S
C893 C891 1.419 . S
C893 C894 1.363 . S
C893 H896 0.929 . S
C894 C893 1.363 . S
C894 C900 1.428 . S
H895 C891 0.930 . S
H896 C893 0.929 . S
S897 N898 1.613 . S
S897 N899 1.610 . S
N898 S897 1.613 . S
N898 C901 1.350 . S
N899 S897 1.610 . S
N899 C900 1.351 . S
C900 C894 1.428 . S
C900 N899 1.351 . S
C900 C901 1.434 . S
C901 C892 1.429 . S
C901 N898 1.350 . S
C901 C900 1.434 . S
C902 C903 1.369 . S
C902 C904 1.419 . S
C902 H906 0.930 . S
C903 C902 1.369 . S
C903 C912 1.429 . S
C904 C902 1.419 . S
C904 C905 1.363 . S
C904 H907 0.929 . S
C905 C904 1.363 . S
C905 C911 1.428 . S
H906 C902 0.930 . S
H907 C904 0.929 . S
S908 N909 1.613 . S
S908 N910 1.610 . S
N909 S908 1.613 . S
N909 C912 1.350 . S
N910 S908 1.610 . S
N910 C911 1.351 . S
C911 C905 1.428 . S
C911 N910 1.351 . S
C911 C912 1.434 . S
C912 C903 1.429 . S
C912 N909 1.350 . S
C912 C911 1.434 . S
C913 C914 1.369 . S
C913 C915 1.419 1_455 S
C913 H917 0.930 . S
C914 C913 1.369 . S
C914 C923 1.429 . S
C915 C913 1.419 1_655 S
C915 C916 1.363 . S
C915 H918 0.929 . S
C916 C915 1.363 . S
C916 C922 1.428 . S
H917 C913 0.930 . S
H918 C915 0.929 . S
S919 N920 1.613 1_655 S
S919 N921 1.610 . S
N920 S919 1.613 1_455 S
N920 C923 1.350 . S
N921 S919 1.610 . S
N921 C922 1.351 . S
C922 C916 1.428 . S
C922 N921 1.351 . S
C922 C923 1.434 1_655 S
C923 C914 1.429 . S
C923 N920 1.350 . S
C923 C922 1.434 1_455 S
C924 C925 1.369 1_655 S
C924 C926 1.419 . S
C924 H928 0.930 . S
C925 C924 1.369 1_455 S
C925 C934 1.429 . S
C926 C924 1.419 . S
C926 C927 1.363 . S
C926 H929 0.929 . S
C927 C926 1.363 . S
C927 C933 1.428 1_655 S
H928 C924 0.930 . S
H929 C926 0.929 . S
S930 N931 1.613 . S
S930 N932 1.610 . S
N931 S930 1.613 . S
N931 C934 1.350 . S
N932 S930 1.610 . S
N932 C933 1.351 . S
C933 C927 1.428 1_455 S
C933 N932 1.351 . S
C933 C934 1.434 . S
C934 C925 1.429 . S
C934 N931 1.350 . S
C934 C933 1.434 . S
C935 C936 1.369 . S
C935 C937 1.419 1_455 S
C935 H939 0.930 . S
C936 C935 1.369 . S
C936 C945 1.429 . S
C937 C935 1.419 1_655 S
C937 C938 1.363 . S
C937 H940 0.929 . S
C938 C937 1.363 . S
C938 C944 1.428 . S
H939 C935 0.930 . S
H940 C937 0.929 . S
S941 N942 1.613 1_655 S
S941 N943 1.610 . S
N942 S941 1.613 1_455 S
N942 C945 1.350 . S
N943 S941 1.610 . S
N943 C944 1.351 . S
C944 C938 1.428 . S
C944 N943 1.351 . S
C944 C945 1.434 1_655 S
C945 C936 1.429 . S
C945 N942 1.350 . S
C945 C944 1.434 1_455 S
C946 C947 1.369 . S
C946 C948 1.419 . S
C946 H950 0.930 . S
C947 C946 1.369 . S
C947 C956 1.429 . S
C948 C946 1.419 . S
C948 C949 1.363 . S
C948 H951 0.929 . S
C949 C948 1.363 . S
C949 C955 1.428 . S
H950 C946 0.930 . S
H951 C948 0.929 . S
S952 N953 1.613 . S
S952 N954 1.610 . S
N953 S952 1.613 . S
N953 C956 1.350 . S
N954 S952 1.610 . S
N954 C955 1.351 . S
C955 C949 1.428 . S
C955 N954 1.351 . S
C955 C956 1.434 . S
C956 C947 1.429 . S
C956 N953 1.350 . S
C956 C955 1.434 . S
C957 C958 1.369 . S
C957 C959 1.419 . S
C957 H961 0.930 . S
C958 C957 1.369 . S
C958 C967 1.429 . S
C959 C957 1.419 . S
C959 C960 1.363 . S
C959 H962 0.929 . S
C960 C959 1.363 . S
C960 C966 1.428 . S
H961 C957 0.930 . S
H962 C959 0.929 . S
S963 N964 1.613 . S
S963 N965 1.610 . S
N964 S963 1.613 . S
N964 C967 1.350 . S
N965 S963 1.610 . S
N965 C966 1.351 . S
C966 C960 1.428 . S
C966 N965 1.351 . S
C966 C967 1.434 . S
C967 C958 1.429 . S
C967 N964 1.350 . S
C967 C966 1.434 . S
C529 N434 1.344 1_455 S
C531 N5 1.343 . S
C540 N38 1.346 . S
C542 N368 1.341 . S
C551 N71 1.343 . S
C553 N401 1.342 . S
C562 N104 1.341 . S
C564 N335 1.343 . S
C573 N500 1.343 . S
C575 N137 1.344 . S
C584 N170 1.340 . S
C586 N302 1.345 . S
C595 N203 1.340 . S
C597 N467 1.344 . S
C606 N269 1.346 . S
C608 N236 1.341 . S
C617 C28 1.656 . S
C619 C160 1.663 . S
C628 C61 1.656 . S
C630 C193 1.664 . S
C639 C94 1.656 . S
C641 C226 1.664 . S
C650 C259 1.664 . S
C652 C127 1.658 . S
C661 C358 1.665 . S
C663 C292 1.657 . S
C672 C325 1.657 . S
C674 C391 1.661 . S
C683 C490 1.663 . S
C685 C424 1.658 . S
C694 C523 1.655 1_455 S
C696 C457 1.663 1_455 S
C705 C173 1.377 . S
C707 C8 1.379 1_565 S
C716 C41 1.385 . S
C718 C206 1.385 1_565 S
C727 C74 1.380 . S
C729 C239 1.378 . S
C738 C140 1.376 . S
C740 C107 1.378 . S
C749 C149 0.538 . S
C751 C347 0.546 . S
C760 C83 0.536 . S
C762 C281 0.544 . S
C771 C380 0.546 . S
C773 C215 0.553 . S
C782 C314 0.536 . S
C784 C17 0.544 . S
C793 C272 1.385 . S
C795 C404 1.384 . S
C804 C503 1.376 . S
C806 C338 1.378 . S
C815 C437 1.380 . S
C817 C305 1.379 . S
C826 C371 1.377 . S
C828 C470 1.379 . S
C837 C479 0.560 . S
C839 C50 0.555 . S
C848 C182 0.560 . S
C850 C446 0.555 . S
C859 C512 0.544 . S
C861 C116 0.551 . S
C870 C248 0.542 . S
C872 C413 0.549 . S
C881 N14 0.855 . S
C883 N443 0.871 . S
C892 N47 0.863 . S
C894 N377 0.865 . S
C903 N80 0.874 . S
C905 N410 0.854 . S
C914 N113 0.873 . S
C916 N344 0.853 . S
C925 N146 0.873 . S
C927 N509 0.853 . S
C936 N179 0.874 . S
C938 N311 0.854 . S
C947 N476 0.865 . S
C949 N212 0.857 . S
C958 N278 0.853 . S
C960 N245 0.868 . S
