# Generated by pormake.
# Topology fnd, (5)-cn, num edge types: 1
# Building blocks:
#     Node 0, Type 0, BuildingBlock: XOMCOT_clean_sbu_1, # of connection points: 5
#     Node 1, Type 0, BuildingBlock: XOMCOT_clean_sbu_1, # of connection points: 5
#     Node 2, Type 0, BuildingBlock: XOMCOT_clean_sbu_1, # of connection points: 5
#     Node 3, Type 0, BuildingBlock: XOMCOT_clean_sbu_1, # of connection points: 5
#     Node 4, Type 0, BuildingBlock: XOMCOT_clean_sbu_1, # of connection points: 5
#     Node 5, Type 0, BuildingBlock: XOMCOT_clean_sbu_1, # of connection points: 5
#     Node 6, Type 0, BuildingBlock: XOMCOT_clean_sbu_1, # of connection points: 5
#     Node 7, Type 0, BuildingBlock: XOMCOT_clean_sbu_1, # of connection points: 5
#     Node 8, Type 0, BuildingBlock: XOMCOT_clean_sbu_1, # of connection points: 5
#     Node 9, Type 0, BuildingBlock: XOMCOT_clean_sbu_1, # of connection points: 5
#     Node 10, Type 0, BuildingBlock: XOMCOT_clean_sbu_1, # of connection points: 5
#     Node 11, Type 0, BuildingBlock: XOMCOT_clean_sbu_1, # of connection points: 5
#     Node 12, Type 0, BuildingBlock: XOMCOT_clean_sbu_1, # of connection points: 5
#     Node 13, Type 0, BuildingBlock: XOMCOT_clean_sbu_1, # of connection points: 5
#     Node 14, Type 0, BuildingBlock: XOMCOT_clean_sbu_1, # of connection points: 5
#     Node 15, Type 0, BuildingBlock: XOMCOT_clean_sbu_1, # of connection points: 5
#     Node 16, Type 0, BuildingBlock: XOMCOT_clean_sbu_1, # of connection points: 5
#     Node 17, Type 0, BuildingBlock: XOMCOT_clean_sbu_1, # of connection points: 5
#     Edge 18, Type (0, 0), BuildingBlock: CIFDUS_clean_linker_0, # of connection points: 2
#     Edge 19, Type (0, 0), BuildingBlock: CIFDUS_clean_linker_0, # of connection points: 2
#     Edge 20, Type (0, 0), BuildingBlock: CIFDUS_clean_linker_0, # of connection points: 2
#     Edge 21, Type (0, 0), BuildingBlock: CIFDUS_clean_linker_0, # of connection points: 2
#     Edge 22, Type (0, 0), BuildingBlock: CIFDUS_clean_linker_0, # of connection points: 2
#     Edge 23, Type (0, 0), BuildingBlock: CIFDUS_clean_linker_0, # of connection points: 2
#     Edge 24, Type (0, 0), BuildingBlock: CIFDUS_clean_linker_0, # of connection points: 2
#     Edge 25, Type (0, 0), BuildingBlock: CIFDUS_clean_linker_0, # of connection points: 2
#     Edge 26, Type (0, 0), BuildingBlock: CIFDUS_clean_linker_0, # of connection points: 2
#     Edge 27, Type (0, 0), BuildingBlock: CIFDUS_clean_linker_0, # of connection points: 2
#     Edge 28, Type (0, 0), BuildingBlock: CIFDUS_clean_linker_0, # of connection points: 2
#     Edge 29, Type (0, 0), BuildingBlock: CIFDUS_clean_linker_0, # of connection points: 2
#     Edge 30, Type (0, 0), BuildingBlock: CIFDUS_clean_linker_0, # of connection points: 2
#     Edge 31, Type (0, 0), BuildingBlock: CIFDUS_clean_linker_0, # of connection points: 2
#     Edge 32, Type (0, 0), BuildingBlock: CIFDUS_clean_linker_0, # of connection points: 2
#     Edge 33, Type (0, 0), BuildingBlock: CIFDUS_clean_linker_0, # of connection points: 2
#     Edge 34, Type (0, 0), BuildingBlock: CIFDUS_clean_linker_0, # of connection points: 2
#     Edge 35, Type (0, 0), BuildingBlock: CIFDUS_clean_linker_0, # of connection points: 2
#     Edge 36, Type (0, 0), BuildingBlock: CIFDUS_clean_linker_0, # of connection points: 2
#     Edge 37, Type (0, 0), BuildingBlock: CIFDUS_clean_linker_0, # of connection points: 2
#     Edge 38, Type (0, 0), BuildingBlock: CIFDUS_clean_linker_0, # of connection points: 2
#     Edge 39, Type (0, 0), BuildingBlock: CIFDUS_clean_linker_0, # of connection points: 2
#     Edge 40, Type (0, 0), BuildingBlock: CIFDUS_clean_linker_0, # of connection points: 2
#     Edge 41, Type (0, 0), BuildingBlock: CIFDUS_clean_linker_0, # of connection points: 2
#     Edge 42, Type (0, 0), BuildingBlock: CIFDUS_clean_linker_0, # of connection points: 2
#     Edge 43, Type (0, 0), BuildingBlock: CIFDUS_clean_linker_0, # of connection points: 2
#     Edge 44, Type (0, 0), BuildingBlock: CIFDUS_clean_linker_0, # of connection points: 2
#     Edge 45, Type (0, 0), BuildingBlock: CIFDUS_clean_linker_0, # of connection points: 2
#     Edge 46, Type (0, 0), BuildingBlock: CIFDUS_clean_linker_0, # of connection points: 2
#     Edge 47, Type (0, 0), BuildingBlock: CIFDUS_clean_linker_0, # of connection points: 2
#     Edge 48, Type (0, 0), BuildingBlock: CIFDUS_clean_linker_0, # of connection points: 2
#     Edge 49, Type (0, 0), BuildingBlock: CIFDUS_clean_linker_0, # of connection points: 2
#     Edge 50, Type (0, 0), BuildingBlock: CIFDUS_clean_linker_0, # of connection points: 2
#     Edge 51, Type (0, 0), BuildingBlock: CIFDUS_clean_linker_0, # of connection points: 2
#     Edge 52, Type (0, 0), BuildingBlock: CIFDUS_clean_linker_0, # of connection points: 2
#     Edge 53, Type (0, 0), BuildingBlock: CIFDUS_clean_linker_0, # of connection points: 2
#     Edge 54, Type (0, 0), BuildingBlock: CIFDUS_clean_linker_0, # of connection points: 2
#     Edge 55, Type (0, 0), BuildingBlock: CIFDUS_clean_linker_0, # of connection points: 2
#     Edge 56, Type (0, 0), BuildingBlock: CIFDUS_clean_linker_0, # of connection points: 2
#     Edge 57, Type (0, 0), BuildingBlock: CIFDUS_clean_linker_0, # of connection points: 2
#     Edge 58, Type (0, 0), BuildingBlock: CIFDUS_clean_linker_0, # of connection points: 2
#     Edge 59, Type (0, 0), BuildingBlock: CIFDUS_clean_linker_0, # of connection points: 2
#     Edge 60, Type (0, 0), BuildingBlock: CIFDUS_clean_linker_0, # of connection points: 2
#     Edge 61, Type (0, 0), BuildingBlock: CIFDUS_clean_linker_0, # of connection points: 2
#     Edge 62, Type (0, 0), BuildingBlock: CIFDUS_clean_linker_0, # of connection points: 2
# Relax obj value: 0.034
# Max RMSD: 0.082
# Mean RMSD: 0.082
data_MOF--net-fnd--node1-XOMCOT_clean_sbu_1--edge1-CIFDUS_clean_linker_0
_symmetry_space_group_name_H-M    P1
_symmetry_Int_Tables_number       1
_symmetry_cell_setting            triclinic
loop_
_symmetry_equiv_pos_as_xyz
'x, y, z'
_cell_length_a     73.830443
_cell_length_b     73.985316
_cell_length_c     15.826487
_cell_angle_alpha  90.057948
_cell_angle_beta   90.019822
_cell_angle_gamma 119.97503
loop_
_atom_site_label
_atom_site_type_symbol
_atom_site_fract_x
_atom_site_fract_y
_atom_site_fract_z
_atom_type_partial_charge
C0 C 0.13931 0.27487 0.57648 0.0
C1 C 0.13754 0.27519 0.66301 0.0
N2 N 0.12165 0.25656 0.6878 0.0
N3 N 0.12452 0.25618 0.54675 0.0
C4 C 0.11395 0.24541 0.61597 0.0
H5 H 0.15115 0.28719 0.5381 0.0
Co6 Co 0.12189 0.24716 0.43543 0.0
C7 C 0.07887 0.21063 0.42219 0.0
O8 O 0.08566 0.20134 0.37112 0.0
N9 N 0.11959 0.23822 0.32003 0.0
C10 C 0.12266 0.224 0.20022 0.0
C11 C 0.12517 0.22486 0.28621 0.0
C12 C 0.11351 0.24503 0.25189 0.0
N13 N 0.11551 0.23685 0.17846 0.0
O14 O 0.11759 0.26986 0.40264 0.0
H15 H 0.13088 0.21615 0.32059 0.0
H16 H 0.10802 0.25608 0.25524 0.0
O17 O 0.09163 0.22864 0.45247 0.0
C18 C 0.13413 0.28473 0.3698 0.0
O19 O 0.15007 0.28187 0.35561 0.0
N20 N 0.12896 0.22717 0.47099 0.0
C21 C 0.14855 0.20515 0.52551 0.0
C22 C 0.12705 0.19719 0.53907 0.0
C23 C 0.11754 0.20856 0.51199 0.0
C24 C 0.14988 0.23532 0.45949 0.0
C25 C 0.15985 0.22444 0.48425 0.0
H26 H 0.10131 0.20263 0.52699 0.0
H27 H 0.15884 0.25037 0.42937 0.0
H28 H 0.10119 0.22948 0.61408 0.0
H29 H 0.14791 0.28773 0.70475 0.0
H30 H 0.12676 0.21532 0.15668 0.0
H31 H 0.11777 0.18267 0.57266 0.0
H32 H 0.17636 0.23121 0.47087 0.0
C33 C 0.77228 0.89972 0.57431 0.0
C34 C 0.77076 0.89867 0.66099 0.0
N35 N 0.77558 0.8843 0.68805 0.0
N36 N 0.77799 0.88608 0.54658 0.0
C37 C 0.7797 0.87678 0.61716 0.0
H38 H 0.77027 0.91042 0.53416 0.0
Co39 Co 0.78473 0.88393 0.43497 0.0
C40 C 0.79964 0.85374 0.45211 0.0
O41 O 0.78602 0.84163 0.39509 0.0
N42 N 0.79153 0.88209 0.3231 0.0
C43 C 0.80909 0.88389 0.20668 0.0
C44 C 0.80992 0.88503 0.29336 0.0
C45 C 0.77984 0.87941 0.25355 0.0
N46 N 0.79015 0.88038 0.1815 0.0
O47 O 0.75933 0.85723 0.42458 0.0
H48 H 0.82335 0.88849 0.3321 0.0
H49 H 0.76421 0.87718 0.2559 0.0
O50 O 0.80061 0.87089 0.47268 0.0
C51 C 0.74313 0.85911 0.4183 0.0
O52 O 0.74546 0.87791 0.41947 0.0
N53 N 0.80838 0.91066 0.44376 0.0
C54 C 0.8388 0.95274 0.46106 0.0
C55 C 0.83933 0.93743 0.51187 0.0
C56 C 0.82394 0.91641 0.5022 0.0
C57 C 0.8077 0.92527 0.39364 0.0
C58 C 0.82284 0.94632 0.40058 0.0
H59 H 0.82406 0.90494 0.54397 0.0
H60 H 0.79489 0.9206 0.34967 0.0
H61 H 0.78445 0.86512 0.61683 0.0
H62 H 0.76751 0.90857 0.70104 0.0
H63 H 0.82182 0.8864 0.16541 0.0
H64 H 0.85132 0.9417 0.55954 0.0
H65 H 0.8215 0.95757 0.36131 0.0
C66 C 0.12349 0.88171 0.55201 0.0
C67 C 0.12358 0.8806 0.63877 0.0
N68 N 0.14024 0.89813 0.66799 0.0
N69 N 0.13989 0.89998 0.52672 0.0
C70 C 0.14997 0.90951 0.59875 0.0
H71 H 0.11202 0.87008 0.51004 0.0
Co72 Co 0.14571 0.90961 0.41582 0.0
C73 C 0.16144 0.95535 0.43004 0.0
O74 O 0.15144 0.95499 0.36077 0.0
N75 N 0.15204 0.919 0.30303 0.0
C76 C 0.17156 0.93543 0.19079 0.0
C77 C 0.17101 0.93431 0.27735 0.0
C78 C 0.1416 0.91059 0.23005 0.0
N79 N 0.15304 0.92038 0.16074 0.0
O80 O 0.17129 0.90863 0.41912 0.0
H81 H 0.18399 0.94371 0.31903 0.0
H82 H 0.12644 0.89674 0.22686 0.0
O83 O 0.16026 0.93855 0.45772 0.0
C84 C 0.16763 0.89005 0.40799 0.0
O85 O 0.14814 0.87502 0.39954 0.0
N86 N 0.11949 0.90845 0.41264 0.0
C87 C 0.07695 0.89515 0.43679 0.0
C88 C 0.09254 0.91327 0.47657 0.0
C89 C 0.1137 0.91951 0.4646 0.0
C90 C 0.1045 0.89105 0.37265 0.0
C91 C 0.08331 0.88448 0.38186 0.0
H92 H 0.12508 0.93201 0.50351 0.0
H93 H 0.10881 0.88095 0.33993 0.0
H94 H 0.16389 0.92474 0.60068 0.0
H95 H 0.11227 0.86787 0.67732 0.0
H96 H 0.18481 0.94625 0.15326 0.0
H97 H 0.08846 0.92166 0.52168 0.0
H98 H 0.07197 0.87036 0.34992 0.0
C99 C 0.2572 0.14373 0.50877 0.0
C100 C 0.25837 0.14473 0.42185 0.0
N101 N 0.25691 0.12691 0.39289 0.0
N102 N 0.25472 0.12526 0.53438 0.0
C103 C 0.25494 0.1155 0.46243 0.0
H104 H 0.25769 0.15555 0.55054 0.0
Co105 Co 0.25049 0.11525 0.6448 0.0
C106 C 0.21882 0.06998 0.62823 0.0
O107 O 0.20933 0.0705 0.6976 0.0
N108 N 0.24682 0.1052 0.75787 0.0
C109 C 0.24871 0.08792 0.86989 0.0
C110 C 0.24947 0.08923 0.7832 0.0
C111 C 0.24501 0.11364 0.83127 0.0
N112 N 0.24599 0.1034 0.90034 0.0
O113 O 0.27631 0.11482 0.63816 0.0
H114 H 0.25258 0.07955 0.74125 0.0
H115 H 0.24447 0.12787 0.8352 0.0
O116 O 0.23489 0.08653 0.60148 0.0
C117 C 0.29122 0.1277 0.68535 0.0
O118 O 0.28777 0.13926 0.73871 0.0
N119 N 0.22632 0.11785 0.64975 0.0
C120 C 0.19814 0.13274 0.63356 0.0
C121 C 0.19498 0.11488 0.58933 0.0
C122 C 0.20929 0.10775 0.59787 0.0
C123 C 0.22963 0.13523 0.69243 0.0
C124 C 0.21542 0.14237 0.68822 0.0
H125 H 0.20755 0.09532 0.55689 0.0
H126 H 0.24433 0.14475 0.72438 0.0
H127 H 0.25312 0.10007 0.46076 0.0
H128 H 0.26013 0.15755 0.38304 0.0
H129 H 0.25052 0.0767 0.90727 0.0
H130 H 0.1824 0.10724 0.54399 0.0
H131 H 0.21872 0.1561 0.72444 0.0
C132 C 0.88807 0.12241 0.47648 0.0
C133 C 0.88751 0.12178 0.38954 0.0
N134 N 0.90653 0.13605 0.36025 0.0
N135 N 0.90737 0.13688 0.50182 0.0
C136 C 0.91814 0.14513 0.42989 0.0
H137 H 0.87547 0.11245 0.51863 0.0
Co138 Co 0.91682 0.14202 0.61217 0.0
C139 C 0.96176 0.15432 0.59755 0.0
O140 O 0.95937 0.14102 0.65748 0.0
N141 N 0.92631 0.14766 0.72528 0.0
C142 C 0.94362 0.16595 0.83904 0.0
C143 C 0.94317 0.16548 0.75231 0.0
C144 C 0.91646 0.13787 0.7974 0.0
N145 N 0.92669 0.14862 0.8672 0.0
O146 O 0.91717 0.16823 0.60789 0.0
H147 H 0.95384 0.17807 0.71168 0.0
H148 H 0.90146 0.12382 0.79966 0.0
O149 O 0.9461 0.15593 0.57317 0.0
C150 C 0.90418 0.17015 0.65483 0.0
O151 O 0.89235 0.15499 0.70694 0.0
N152 N 0.91418 0.11517 0.61438 0.0
C153 C 0.9006 0.07244 0.60085 0.0
C154 C 0.91794 0.08721 0.55469 0.0
C155 C 0.92428 0.10848 0.56126 0.0
C156 C 0.89678 0.10085 0.65643 0.0
C157 C 0.89009 0.07959 0.65257 0.0
H158 H 0.9364 0.11925 0.51939 0.0
H159 H 0.88692 0.1057 0.6876 0.0
H160 H 0.9343 0.15744 0.42867 0.0
H161 H 0.87432 0.11106 0.35133 0.0
H162 H 0.95472 0.17871 0.87816 0.0
H163 H 0.9261 0.08233 0.51171 0.0
H164 H 0.87592 0.06871 0.6855 0.0
C165 C 0.89484 0.75672 0.49021 0.0
C166 C 0.89528 0.75647 0.40302 0.0
N167 N 0.89092 0.771 0.37394 0.0
N168 N 0.89024 0.77134 0.51567 0.0
C169 C 0.88805 0.77979 0.44358 0.0
H170 H 0.89748 0.74678 0.53239 0.0
Co171 Co 0.8874 0.77796 0.62625 0.0
C172 C 0.8734 0.80938 0.60678 0.0
O173 O 0.88655 0.82133 0.66552 0.0
N174 N 0.88399 0.78411 0.73911 0.0
C175 C 0.86663 0.78347 0.85501 0.0
C176 C 0.86605 0.78245 0.7686 0.0
C177 C 0.89509 0.78576 0.80979 0.0
N178 N 0.88485 0.78539 0.88126 0.0
O179 O 0.86115 0.75216 0.63421 0.0
H180 H 0.85261 0.77906 0.73011 0.0
H181 H 0.90973 0.78583 0.8096 0.0
O182 O 0.87275 0.79235 0.58593 0.0
C183 C 0.86212 0.73881 0.6821 0.0
O184 O 0.87985 0.74386 0.72006 0.0
N185 N 0.91424 0.80174 0.61827 0.0
C186 C 0.95686 0.8265 0.5806 0.0
C187 C 0.94219 0.83141 0.54743 0.0
C188 C 0.92083 0.81865 0.56624 0.0
C189 C 0.92843 0.79726 0.65271 0.0
C190 C 0.94972 0.80964 0.63662 0.0
H191 H 0.90973 0.82145 0.53299 0.0
H192 H 0.92305 0.78286 0.68709 0.0
H193 H 0.88467 0.79241 0.44191 0.0
H194 H 0.89811 0.74607 0.36431 0.0
H195 H 0.85383 0.78122 0.89534 0.0
H196 H 0.94692 0.84398 0.50236 0.0
H197 H 0.96038 0.80518 0.66389 0.0
C198 C 0.81931 0.6009 0.85921 0.0
C199 C 0.82002 0.60124 0.94644 0.0
N200 N 0.80128 0.58633 0.9756 0.0
N201 N 0.80025 0.58586 0.83379 0.0
C202 C 0.78973 0.57724 0.90598 0.0
H203 H 0.83177 0.61108 0.81699 0.0
Co204 Co 0.79066 0.57893 0.72326 0.0
C205 C 0.7453 0.54703 0.74618 0.0
O206 O 0.74608 0.5348 0.68779 0.0
N207 N 0.78095 0.57242 0.61059 0.0
C208 C 0.76385 0.57241 0.49473 0.0
C209 C 0.76424 0.57333 0.5812 0.0
C210 C 0.79068 0.5713 0.53982 0.0
N211 N 0.7806 0.5713 0.46835 0.0
O212 O 0.78966 0.60441 0.71464 0.0
H213 H 0.75386 0.57622 0.61972 0.0
H214 H 0.80558 0.57192 0.53996 0.0
O215 O 0.76176 0.56423 0.76453 0.0
C216 C 0.8038 0.61787 0.6664 0.0
O217 O 0.81675 0.61314 0.6288 0.0
N218 N 0.79421 0.55548 0.73164 0.0
C219 C 0.81262 0.53117 0.76792 0.0
C220 C 0.79304 0.52603 0.80199 0.0
C221 C 0.78416 0.53854 0.78376 0.0
C222 C 0.81288 0.56021 0.69651 0.0
C223 C 0.82204 0.54803 0.71173 0.0
H224 H 0.77024 0.53553 0.81744 0.0
H225 H 0.8217 0.57463 0.6621 0.0
H226 H 0.77389 0.56431 0.90778 0.0
H227 H 0.83312 0.61194 0.98511 0.0
H228 H 0.753 0.5742 0.45449 0.0
H229 H 0.78542 0.51345 0.84718 0.0
H230 H 0.8371 0.55264 0.68357 0.0
C231 C 0.43536 0.22465 0.88239 0.0
C232 C 0.43535 0.2253 0.96951 0.0
N233 N 0.44941 0.2202 0.99829 0.0
N234 N 0.44935 0.21919 0.85669 0.0
C235 C 0.45773 0.21674 0.92853 0.0
H236 H 0.42548 0.22749 0.84042 0.0
Co237 Co 0.45441 0.21479 0.74611 0.0
C238 C 0.48435 0.19873 0.76245 0.0
O239 O 0.4958 0.21043 0.6995 0.0
N240 N 0.45896 0.2099 0.63322 0.0
C241 C 0.45675 0.1918 0.51753 0.0
C242 C 0.45587 0.1914 0.60407 0.0
C243 C 0.46134 0.22116 0.5625 0.0
N244 N 0.46006 0.2105 0.49119 0.0
O245 O 0.42802 0.18906 0.74574 0.0
H246 H 0.45186 0.17792 0.64305 0.0
H247 H 0.46281 0.2364 0.56253 0.0
O248 O 0.46826 0.19962 0.78609 0.0
C249 C 0.41357 0.18759 0.69706 0.0
O250 O 0.41762 0.20291 0.64467 0.0
N251 N 0.479 0.2411 0.74815 0.0
C252 C 0.50725 0.28365 0.77433 0.0
C253 C 0.51107 0.26833 0.80847 0.0
C254 C 0.4966 0.2471 0.79562 0.0
C255 C 0.47525 0.2558 0.71406 0.0
C256 C 0.48932 0.27703 0.72436 0.0
H257 H 0.4989 0.23578 0.82952 0.0
H258 H 0.46045 0.25103 0.68341 0.0
H259 H 0.46976 0.21249 0.92994 0.0
H260 H 0.42526 0.22855 1.00841 0.0
H261 H 0.45367 0.17874 0.47717 0.0
H262 H 0.52436 0.27263 0.84952 0.0
H263 H 0.48561 0.28814 0.69648 0.0
C264 C 0.80992 0.21257 0.85679 0.0
C265 C 0.80921 0.20929 0.94256 0.0
N266 N 0.81182 0.22649 0.98334 0.0
N267 N 0.81316 0.23184 0.84147 0.0
C268 C 0.81431 0.24002 0.92001 0.0
H269 H 0.80806 0.20146 0.80837 0.0
Co270 Co 0.81455 0.24203 0.72954 0.0
C271 C 0.84459 0.28665 0.75449 0.0
O272 O 0.85638 0.28576 0.69436 0.0
N273 N 0.81563 0.2521 0.61586 0.0
C274 C 0.81385 0.27136 0.51099 0.0
C275 C 0.81291 0.2684 0.59705 0.0
C276 C 0.81762 0.24508 0.53842 0.0
N277 N 0.81681 0.2567 0.47346 0.0
O278 O 0.84144 0.24416 0.71632 0.0
H279 H 0.81003 0.27747 0.64311 0.0
H280 H 0.8196 0.23172 0.52912 0.0
O281 O 0.82746 0.2703 0.77395 0.0
C282 C 0.84142 0.22877 0.67992 0.0
O283 O 0.82369 0.21342 0.65116 0.0
N284 N 0.78767 0.23807 0.74233 0.0
C285 C 0.74522 0.22361 0.76853 0.0
C286 C 0.76051 0.24171 0.80955 0.0
C287 C 0.78175 0.24868 0.79582 0.0
C288 C 0.7731 0.22104 0.69934 0.0
C289 C 0.75182 0.21362 0.71103 0.0
H290 H 0.79327 0.26196 0.83111 0.0
H291 H 0.77809 0.21272 0.65796 0.0
H292 H 0.81651 0.25543 0.93052 0.0
H293 H 0.80703 0.19518 0.97216 0.0
H294 H 0.81194 0.28315 0.47837 0.0
H295 H 0.75613 0.24979 0.85505 0.0
H296 H 0.74061 0.19981 0.67698 0.0
C297 C 0.93753 0.47807 0.8062 0.0
C298 C 0.93764 0.47873 0.71909 0.0
N299 N 0.92433 0.45938 0.69002 0.0
N300 N 0.9242 0.45844 0.83158 0.0
C301 C 0.91635 0.44748 0.75959 0.0
H302 H 0.94684 0.49094 0.8484 0.0
Co303 Co 0.91922 0.44905 0.94208 0.0
C304 C 0.88957 0.40321 0.92681 0.0
O305 O 0.87812 0.40381 0.98918 0.0
N306 N 0.91478 0.43966 0.05501 0.0
C307 C 0.91741 0.42394 0.17031 0.0
C308 C 0.91826 0.42448 0.0838 0.0
C309 C 0.91217 0.44834 0.12596 0.0
N310 N 0.91371 0.43907 0.19704 0.0
O311 O 0.94588 0.45012 0.9427 0.0
H312 H 0.92253 0.41522 0.04457 0.0
H313 H 0.91035 0.46191 0.12631 0.0
O314 O 0.90571 0.42003 0.90254 0.0
C315 C 0.96011 0.46318 0.99192 0.0
O316 O 0.95571 0.47431 0.04385 0.0
N317 N 0.8943 0.4503 0.93956 0.0
C318 C 0.86532 0.46373 0.91205 0.0
C319 C 0.86231 0.44503 0.87628 0.0
C320 C 0.87711 0.43871 0.8899 0.0
C321 C 0.89729 0.46836 0.97509 0.0
C322 C 0.8828 0.47502 0.96437 0.0
H323 H 0.87545 0.42548 0.85473 0.0
H324 H 0.91184 0.47854 1.00706 0.0
H325 H 0.9049 0.43105 0.75792 0.0
H326 H 0.94727 0.49224 0.68041 0.0
H327 H 0.9208 0.41414 0.21034 0.0
H328 H 0.84945 0.4361 0.83332 0.0
H329 H 0.88591 0.48953 0.99365 0.0
C330 C 0.55603 0.47172 0.80746 0.0
C331 C 0.555 0.47115 0.72041 0.0
N332 N 0.57297 0.4731 0.69051 0.0
N333 N 0.57463 0.47423 0.83215 0.0
C334 C 0.58457 0.47503 0.75934 0.0
H335 H 0.54381 0.47 0.84995 0.0
Co336 Co 0.58355 0.4751 0.94318 0.0
C337 C 0.62897 0.50309 0.92267 0.0
O338 O 0.62833 0.51573 0.97947 0.0
N339 N 0.59231 0.4757 0.05511 0.0
C340 C 0.60864 0.47319 0.16877 0.0
C341 C 0.60793 0.47264 0.08193 0.0
C342 C 0.5835 0.47759 0.12696 0.0
N343 N 0.59319 0.47629 0.19725 0.0
O344 O 0.5875 0.50285 0.95438 0.0
H345 H 0.61797 0.46977 0.04108 0.0
H346 H 0.56969 0.47905 0.1281 0.0
O347 O 0.61224 0.48624 0.90356 0.0
C348 C 0.57178 0.50362 0.98339 0.0
O349 O 0.55486 0.48616 1.00381 0.0
N350 N 0.57765 0.44748 0.93264 0.0
C351 C 0.55903 0.40453 0.90468 0.0
C352 C 0.57802 0.41852 0.86524 0.0
C353 C 0.58715 0.44005 0.88022 0.0
C354 C 0.55993 0.43408 0.97499 0.0
C355 C 0.55052 0.4126 0.96284 0.0
H356 H 0.60113 0.45066 0.8461 0.0
H357 H 0.5525 0.44022 0.01566 0.0
H358 H 0.60001 0.47685 0.75633 0.0
H359 H 0.54182 0.4688 0.68227 0.0
H360 H 0.61969 0.47138 0.20753 0.0
H361 H 0.58514 0.41305 0.81967 0.0
H362 H 0.5362 0.40247 0.99645 0.0
C363 C 0.5614 0.08449 0.82395 0.0
C364 C 0.5612 0.08155 0.73804 0.0
N365 N 0.55436 0.09324 0.69895 0.0
N366 N 0.55464 0.09795 0.84113 0.0
C367 C 0.55054 0.10312 0.76343 0.0
H368 H 0.56687 0.07774 0.87097 0.0
Co369 Co 0.55495 0.10777 0.95324 0.0
C370 C 0.52673 0.12482 0.93497 0.0
O371 O 0.5155 0.11323 0.99853 0.0
N372 N 0.55572 0.11795 0.06678 0.0
C373 C 0.5618 0.14091 0.16978 0.0
C374 C 0.56186 0.13806 0.08397 0.0
C375 C 0.55216 0.10892 0.1449 0.0
N376 N 0.55562 0.12257 0.20923 0.0
O377 O 0.52785 0.08378 0.97421 0.0
H378 H 0.56652 0.15015 0.03678 0.0
H379 H 0.54728 0.0927 0.15477 0.0
O380 O 0.54282 0.12403 0.91113 0.0
C381 C 0.53054 0.06965 1.00792 0.0
O382 O 0.54975 0.07367 0.02181 0.0
N383 N 0.58211 0.12956 0.93448 0.0
C384 C 0.62457 0.15404 0.89796 0.0
C385 C 0.60978 0.15746 0.85596 0.0
C386 C 0.58845 0.14488 0.87484 0.0
C387 C 0.59634 0.12679 0.97864 0.0
C388 C 0.61763 0.13892 0.96184 0.0
H389 H 0.57709 0.14668 0.83837 0.0
H390 H 0.591 0.11433 0.02449 0.0
H391 H 0.54521 0.1142 0.75422 0.0
H392 H 0.56654 0.07203 0.70694 0.0
H393 H 0.56657 0.1557 0.20032 0.0
H394 H 0.61451 0.16886 0.80569 0.0
H395 H 0.62852 0.13591 0.99639 0.0
C396 C 0.48139 0.92278 0.20581 0.0
C397 C 0.48182 0.92414 0.29267 0.0
N398 N 0.4624 0.91845 0.32008 0.0
N399 N 0.4618 0.91625 0.17842 0.0
C400 C 0.45066 0.914 0.2493 0.0
H401 H 0.4943 0.92547 0.16534 0.0
Co402 Co 0.45254 0.90931 0.06703 0.0
C403 C 0.40744 0.89272 0.09051 0.0
O404 O 0.40827 0.90624 0.03471 0.0
N405 N 0.44345 0.9024 0.95533 0.0
C406 C 0.42796 0.88463 0.83884 0.0
C407 C 0.4283 0.88386 0.92558 0.0
C408 C 0.4522 0.9141 0.88572 0.0
N409 N 0.44307 0.90366 0.81361 0.0
O410 O 0.4493 0.93352 0.05999 0.0
H411 H 0.41869 0.87035 0.96424 0.0
H412 H 0.46542 0.92979 0.88801 0.0
O413 O 0.42394 0.89189 0.10748 0.0
C414 C 0.4669 0.94998 0.04854 0.0
O415 O 0.48381 0.9484 0.04419 0.0
N416 N 0.4579 0.88704 0.072 0.0
C417 C 0.47656 0.86233 0.08858 0.0
C418 C 0.46007 0.85934 0.14216 0.0
C419 C 0.45088 0.87192 0.13275 0.0
C420 C 0.47313 0.8894 0.0172 0.0
C421 C 0.48231 0.87698 0.02318 0.0
H422 H 0.43921 0.87051 0.1777 0.0
H423 H 0.47906 0.90182 0.97106 0.0
H424 H 0.43412 0.9087 0.24926 0.0
H425 H 0.49518 0.92794 0.33251 0.0
H426 H 0.41803 0.87176 0.79759 0.0
H427 H 0.45521 0.84835 0.19398 0.0
H428 H 0.49461 0.87961 0.97911 0.0
C429 C 0.10662 0.566 0.20203 0.0
C430 C 0.10552 0.56538 0.28891 0.0
N431 N 0.11306 0.55322 0.31713 0.0
N432 N 0.11484 0.55433 0.17557 0.0
C433 C 0.11834 0.54654 0.24685 0.0
H434 H 0.10257 0.5751 0.16084 0.0
Co435 Co 0.12205 0.55263 0.06473 0.0
C436 C 0.13752 0.52312 0.08257 0.0
O437 O 0.12334 0.51072 0.02787 0.0
N438 N 0.12932 0.5512 0.95273 0.0
C439 C 0.14785 0.55434 0.83753 0.0
C440 C 0.14811 0.55493 0.92434 0.0
C441 C 0.11799 0.54857 0.8821 0.0
N442 N 0.12887 0.55038 0.81087 0.0
O443 O 0.09739 0.52564 0.05579 0.0
H444 H 0.16145 0.55865 0.96414 0.0
H445 H 0.10221 0.54586 0.8827 0.0
O446 O 0.13881 0.54048 0.10232 0.0
C447 C 0.08132 0.5266 0.03333 0.0
O448 O 0.08331 0.54492 0.01728 0.0
N449 N 0.14479 0.57977 0.0739 0.0
C450 C 0.16986 0.62242 0.10529 0.0
C451 C 0.17295 0.60783 0.15041 0.0
C452 C 0.16012 0.58643 0.13393 0.0
C453 C 0.1425 0.59377 0.02606 0.0
C454 C 0.15499 0.61514 0.04004 0.0
H455 H 0.16147 0.57529 0.17361 0.0
H456 H 0.12995 0.58828 0.98034 0.0
H457 H 0.12515 0.53657 0.24744 0.0
H458 H 0.10058 0.57411 0.3281 0.0
H459 H 0.16098 0.55755 0.79736 0.0
H460 H 0.1841 0.61277 0.20189 0.0
H461 H 0.15222 0.62583 1.00304 0.0
C462 C 0.4816 0.55024 0.20699 0.0
C463 C 0.48116 0.54958 0.29409 0.0
N464 N 0.48357 0.56781 0.32301 0.0
N465 N 0.48426 0.56876 0.18146 0.0
C466 C 0.48527 0.57904 0.25335 0.0
H467 H 0.48053 0.53821 0.16491 0.0
Co468 Co 0.48718 0.57793 0.07097 0.0
C469 C 0.4937 0.62085 0.08558 0.0
O470 O 0.47996 0.61657 0.02498 0.0
N471 N 0.4907 0.58726 0.95801 0.0
C472 C 0.50745 0.60508 0.8431 0.0
C473 C 0.50781 0.60461 0.92968 0.0
C474 C 0.48033 0.57731 0.88682 0.0
N475 N 0.4902 0.58779 0.816 0.0
O476 O 0.51513 0.58192 0.07045 0.0
H477 H 0.52049 0.61562 0.96929 0.0
H478 H 0.46646 0.56215 0.88606 0.0
O479 O 0.4979 0.6069 0.1105 0.0
C480 C 0.5174 0.56919 0.02314 0.0
O481 O 0.50176 0.55633 0.97481 0.0
N482 N 0.45886 0.57114 0.07273 0.0
C483 C 0.41526 0.54999 0.09256 0.0
C484 C 0.42788 0.5695 0.13099 0.0
C485 C 0.44972 0.57964 0.12172 0.0
C486 C 0.44675 0.55217 0.03587 0.0
C487 C 0.42504 0.54165 0.04288 0.0
H488 H 0.45909 0.59346 0.15892 0.0
H489 H 0.45409 0.54441 1.00538 0.0
H490 H 0.48719 0.5945 0.25485 0.0
H491 H 0.47986 0.53695 0.33286 0.0
H492 H 0.51973 0.61653 0.80331 0.0
H493 H 0.4211 0.57618 0.17245 0.0
H494 H 0.41608 0.52657 1.01263 0.0
C495 C 0.61155 0.80218 0.14399 0.0
C496 C 0.61206 0.80088 0.05728 0.0
N497 N 0.59476 0.78334 0.03209 0.0
N498 N 0.59408 0.78548 0.17345 0.0
C499 C 0.58425 0.77426 0.10382 0.0
H500 H 0.62278 0.81496 0.18252 0.0
Co501 Co 0.58441 0.78073 0.28441 0.0
C502 C 0.55352 0.73492 0.28986 0.0
O503 O 0.5414 0.73788 0.34192 0.0
N504 N 0.57457 0.77613 0.39905 0.0
C505 C 0.55766 0.77498 0.51773 0.0
C506 C 0.55813 0.77717 0.4316 0.0
C507 C 0.58357 0.77296 0.46804 0.0
N508 N 0.57381 0.77253 0.54084 0.0
O509 O 0.6098 0.7812 0.31933 0.0
H510 H 0.54708 0.77966 0.39621 0.0
H511 H 0.59731 0.77132 0.46585 0.0
O512 O 0.57052 0.75051 0.26349 0.0
C513 C 0.62224 0.79934 0.349 0.0
O514 O 0.61573 0.81294 0.35224 0.0
N515 N 0.5615 0.78342 0.24886 0.0
C516 C 0.53377 0.79724 0.20305 0.0
C517 C 0.5289 0.77657 0.18672 0.0
C518 C 0.54311 0.76997 0.20945 0.0
C519 C 0.56661 0.80357 0.26303 0.0
C520 C 0.55294 0.81067 0.24226 0.0
H521 H 0.53942 0.75433 0.19349 0.0
H522 H 0.58141 0.81415 0.29256 0.0
H523 H 0.56933 0.75997 0.10544 0.0
H524 H 0.62367 0.81252 0.01581 0.0
H525 H 0.54684 0.77617 0.56035 0.0
H526 H 0.5145 0.76576 0.15491 0.0
H527 H 0.55739 0.82663 0.25766 0.0
C528 C 0.21695 0.79585 0.17201 0.0
C529 C 0.21628 0.79544 0.08489 0.0
N530 N 0.23599 0.80357 0.05572 0.0
N531 N 0.23697 0.80424 0.1975 0.0
C532 C 0.24812 0.80867 0.12534 0.0
H533 H 0.20369 0.7903 0.21402 0.0
Co534 Co 0.24662 0.80789 0.30828 0.0
C535 C 0.2927 0.82614 0.28947 0.0
O536 O 0.29242 0.81351 0.34846 0.0
N537 N 0.25622 0.81207 0.42104 0.0
C538 C 0.27159 0.83044 0.53687 0.0
C539 C 0.27103 0.83086 0.45053 0.0
C540 C 0.24766 0.80061 0.49167 0.0
N541 N 0.25677 0.81143 0.56315 0.0
O542 O 0.24275 0.83181 0.3202 0.0
H543 H 0.27985 0.84461 0.41207 0.0
H544 H 0.23416 0.78516 0.49143 0.0
O545 O 0.27563 0.82551 0.26836 0.0
C546 C 0.22532 0.82486 0.3587 0.0
O547 O 0.21474 0.8048 0.37586 0.0
N548 N 0.24741 0.78286 0.29796 0.0
C549 C 0.23562 0.74135 0.26119 0.0
C550 C 0.25383 0.75787 0.22597 0.0
C551 C 0.25928 0.77858 0.24395 0.0
C552 C 0.22995 0.7669 0.33357 0.0
C553 C 0.22402 0.74616 0.3176 0.0
H554 H 0.27197 0.79085 0.20892 0.0
H555 H 0.21947 0.77021 0.36912 0.0
H556 H 0.26484 0.81503 0.12359 0.0
H557 H 0.20238 0.78981 0.04635 0.0
H558 H 0.28104 0.84372 0.57707 0.0
H559 H 0.2629 0.75486 0.18014 0.0
H560 H 0.20975 0.73396 0.34569 0.0
C561 C 0.22859 0.42317 0.10743 0.0
C562 C 0.22647 0.42155 0.02093 0.0
N563 N 0.21818 0.43322 0.9952 0.0
N564 N 0.22156 0.4357 0.13617 0.0
C565 C 0.21525 0.4415 0.06635 0.0
H566 H 0.23558 0.41631 0.14653 0.0
Co567 Co 0.22301 0.44409 0.24786 0.0
C568 C 0.21028 0.47716 0.23108 0.0
O569 O 0.22666 0.49147 0.27185 0.0
N570 N 0.22469 0.45241 0.36304 0.0
C571 C 0.23552 0.47065 0.48299 0.0
C572 C 0.23783 0.47135 0.39707 0.0
C573 C 0.21474 0.44041 0.43116 0.0
N574 N 0.22104 0.45114 0.50458 0.0
O575 O 0.19638 0.4193 0.26751 0.0
H576 H 0.24937 0.48483 0.36291 0.0
H577 H 0.20343 0.42397 0.42802 0.0
O578 O 0.20812 0.45909 0.21861 0.0
C579 C 0.19824 0.40351 0.28549 0.0
O580 O 0.21706 0.40622 0.29686 0.0
N581 N 0.24984 0.46678 0.22572 0.0
C582 C 0.29208 0.4942 0.18975 0.0
C583 C 0.27626 0.49625 0.149 0.0
C584 C 0.25516 0.48218 0.1671 0.0
C585 C 0.26498 0.46446 0.26498 0.0
C586 C 0.28609 0.47817 0.24933 0.0
H587 H 0.24321 0.4832 0.13161 0.0
H588 H 0.26054 0.45164 0.30841 0.0
H589 H 0.20921 0.45213 0.06702 0.0
H590 H 0.23169 0.41335 0.9799 0.0
H591 H 0.24475 0.48323 0.52662 0.0
H592 H 0.28009 0.50804 0.10103 0.0
H593 H 0.29762 0.47599 0.28305 0.0
H594 H 0.2105 0.17428 0.6357 0.0
H595 H 0.15622 0.11382 0.59 0.0
H596 H 0.136 0.13064 0.55308 0.0
H597 H 0.13411 0.16282 0.5299 0.0
H598 H 0.18792 0.22246 0.59165 0.0
H599 H 0.20764 0.20542 0.62822 0.0
C600 C 0.19409 0.16452 0.62031 0.0
C601 C 0.18506 0.14265 0.61634 0.0
C602 C 0.18239 0.1742 0.60148 0.0
C603 C 0.16386 0.13067 0.5927 0.0
C604 C 0.15219 0.14028 0.57208 0.0
C605 C 0.15003 0.17208 0.55256 0.0
C606 C 0.15957 0.19404 0.5557 0.0
C607 C 0.16134 0.16209 0.57566 0.0
C608 C 0.18028 0.20566 0.58545 0.0
C609 C 0.1916 0.19591 0.6072 0.0
H610 H 0.89456 0.05105 0.45327 0.0
H611 H 0.88674 0.0424 0.72297 0.0
H612 H 0.86839 1.00455 0.70406 0.0
H613 H 0.85194 0.97392 0.61024 0.0
H614 H 0.85914 0.98259 0.34035 0.0
H615 H 0.88043 0.02031 0.35998 0.0
C616 C 0.88925 0.04089 0.508 0.0
C617 C 0.89199 0.04958 0.58944 0.0
C618 C 0.87839 0.0191 0.49656 0.0
C619 C 0.88468 0.03613 0.65957 0.0
C620 C 0.87418 0.01448 0.6488 0.0
C621 C 0.85852 0.98402 0.55579 0.0
C622 C 0.85383 0.9754 0.4739 0.0
C623 C 0.87055 1.00577 0.5675 0.0
C624 C 0.86227 0.98881 0.40403 0.0
C625 C 0.87449 1.01039 0.41521 0.0
H626 H 0.9842 0.86838 0.55176 0.0
H627 H 0.97904 0.80768 0.53716 0.0
H628 H 1.01518 0.8235 0.49191 0.0
H629 H 0.04853 0.8542 0.4606 0.0
H630 H 0.05464 0.91529 0.46841 0.0
H631 H 1.01804 0.89972 0.5128 0.0
C632 C 0.99098 0.85865 0.53817 0.0
C633 C 0.97892 0.83686 0.54977 0.0
C634 C 1.012 0.86789 0.51118 0.0
C635 C 0.98801 0.82451 0.53142 0.0
C636 C 1.0087 0.83352 0.50477 0.0
C637 C 0.04185 0.86419 0.47008 0.0
C638 C 0.0544 0.88593 0.46007 0.0
C639 C 0.02087 0.85516 0.49503 0.0
C640 C 0.04545 0.89853 0.47581 0.0
C641 C 0.02446 0.88961 0.50095 0.0
H642 H 0.80576 0.82148 0.40801 0.0
H643 H 0.82704 0.87315 0.582 0.0
H644 H 0.85188 0.86428 0.64354 0.0
H645 H 0.86755 0.84182 0.64882 0.0
H646 H 0.84628 0.79001 0.4756 0.0
H647 H 0.82158 0.79903 0.41302 0.0
C648 C 0.8158 0.83079 0.4595 0.0
C649 C 0.8145 0.848 0.49005 0.0
C650 C 0.83013 0.82561 0.49476 0.0
C651 C 0.82771 0.85989 0.55675 0.0
C652 C 0.84195 0.85481 0.59216 0.0
C653 C 0.85758 0.83252 0.59718 0.0
C654 C 0.85882 0.81524 0.56715 0.0
C655 C 0.84332 0.83773 0.56165 0.0
C656 C 0.84568 0.80336 0.50026 0.0
C657 C 0.83151 0.8085 0.46437 0.0
H658 H 0.19977 0.03046 0.68891 0.0
H659 H 0.21857 0.06571 0.45717 0.0
H660 H 0.20257 0.03332 0.37508 0.0
H661 H 0.18216 0.99487 0.36932 0.0
H662 H 0.16553 0.95963 0.60113 0.0
H663 H 0.18182 0.99202 0.68317 0.0
C664 C 0.20039 0.031 0.62043 0.0
C665 C 0.21019 0.0504 0.57903 0.0
C666 C 0.19154 0.01231 0.57378 0.0
C667 C 0.21118 0.05095 0.49038 0.0
C668 C 0.20196 0.03243 0.44346 0.0
C669 C 0.18221 0.99433 0.43781 0.0
C670 C 0.17259 0.97492 0.47921 0.0
C671 C 0.19195 0.01302 0.48446 0.0
C672 C 0.17296 0.97439 0.56788 0.0
C673 C 0.18217 0.9929 0.61479 0.0
H674 H 0.99271 0.14509 0.58311 0.0
H675 H 0.97766 0.19307 0.52685 0.0
H676 H 1.01302 0.21546 0.4712 0.0
H677 H 0.04861 0.2214 0.43936 0.0
H678 H 0.06188 0.17175 0.48495 0.0
H679 H 0.02702 0.1501 0.5445 0.0
C680 C 0.99718 0.16045 0.55865 0.0
C681 C 0.98268 0.16749 0.55966 0.0
C682 C 1.0173 0.17298 0.52518 0.0
C683 C 0.98856 0.1873 0.52657 0.0
C684 C 1.0088 0.20013 0.4951 0.0
C685 C 0.04378 0.20587 0.46269 0.0
C686 C 0.05774 0.19817 0.45848 0.0
C687 C 0.02337 0.19317 0.49436 0.0
C688 C 0.05133 0.17794 0.48759 0.0
C689 C 0.03142 0.16556 0.52164 0.0
H690 H 0.87764 0.50443 0.88262 0.0
H691 H 0.82262 0.44326 0.88454 0.0
H692 H 0.80125 0.45844 0.84032 0.0
H693 H 0.7984 0.48946 0.79956 0.0
H694 H 0.85398 0.55033 0.80666 0.0
H695 H 0.8747 0.53486 0.85015 0.0
C696 C 0.86091 0.49434 0.87534 0.0
C697 C 0.85182 0.4727 0.88801 0.0
C698 C 0.84874 0.50316 0.85091 0.0
C699 C 0.83014 0.45996 0.87497 0.0
C700 C 0.81788 0.46865 0.85 0.0
C701 C 0.81501 0.49931 0.81114 0.0
C702 C 0.8246 0.52103 0.79776 0.0
C703 C 0.82702 0.49028 0.8375 0.0
C704 C 0.84619 0.53353 0.81358 0.0
C705 C 0.8581 0.52472 0.83928 0.0
H706 H 0.49412 0.31113 0.81051 0.0
H707 H 0.55017 0.30688 0.79207 0.0
H708 H 0.5713 0.34378 0.83138 0.0
H709 H 0.5737 0.37747 0.87082 0.0
H710 H 0.51701 0.38088 0.8814 0.0
H711 H 0.49645 0.34422 0.84447 0.0
C712 C 0.51099 0.31826 0.81343 0.0
C713 C 0.52049 0.30618 0.79715 0.0
C714 C 0.52299 0.33942 0.83516 0.0
C715 C 0.54237 0.31571 0.8044 0.0
C716 C 0.55448 0.33686 0.82654 0.0
C717 C 0.55687 0.37021 0.86457 0.0
C718 C 0.54698 0.382 0.88049 0.0
C719 C 0.54496 0.34892 0.84203 0.0
C720 C 0.5251 0.37221 0.87205 0.0
C721 C 0.51326 0.35121 0.85013 0.0
H722 H 0.71751 0.18274 0.79467 0.0
H723 H 0.72226 0.24324 0.79285 0.0
H724 H 0.6852 0.22721 0.83094 0.0
H725 H 0.65132 0.19565 0.86635 0.0
H726 H 0.64764 0.13557 0.86721 0.0
H727 H 0.68426 0.15174 0.82683 0.0
C728 C 0.71041 0.19244 0.80131 0.0
C729 C 0.72263 0.21415 0.79008 0.0
C730 C 0.68923 0.18315 0.82329 0.0
C731 C 0.71325 0.22649 0.80137 0.0
C732 C 0.69203 0.21732 0.82284 0.0
C733 C 0.65857 0.18616 0.85715 0.0
C734 C 0.64681 0.16446 0.87068 0.0
C735 C 0.67984 0.19562 0.83417 0.0
C736 C 0.65641 0.15234 0.85875 0.0
C737 C 0.67735 0.16155 0.83525 0.0
H738 H 0.5153 0.19052 0.72014 0.0
H739 H 0.4658 0.17433 0.90116 0.0
H740 H 0.47443 0.15007 0.96999 0.0
H741 H 0.4959 0.13323 0.97852 0.0
H742 H 0.54531 0.14942 0.79697 0.0
H743 H 0.53679 0.17378 0.72886 0.0
C744 C 0.50642 0.18174 0.77478 0.0
C745 C 0.48991 0.1843 0.80525 0.0
C746 C 0.51141 0.16772 0.81399 0.0
C747 C 0.47856 0.1727 0.8761 0.0
C748 C 0.48348 0.15879 0.91558 0.0
C749 C 0.5048 0.14205 0.92398 0.0
C750 C 0.52125 0.13943 0.89315 0.0
C751 C 0.49983 0.15612 0.88494 0.0
C752 C 0.53261 0.15108 0.82241 0.0
C753 C 0.52774 0.16506 0.78326 0.0
H754 H 0.87682 0.32524 0.7141 0.0
H755 H 0.8257 0.29347 0.88965 0.0
H756 H 0.835 0.32659 0.9576 0.0
H757 H 0.85754 0.3646 0.96736 0.0
H758 H 0.90861 0.3965 0.79169 0.0
H759 H 0.89937 0.36334 0.72376 0.0
C760 C 0.86772 0.32553 0.76735 0.0
C761 C 0.85055 0.30682 0.79651 0.0
C762 C 0.87311 0.3447 0.80613 0.0
C763 C 0.83894 0.30757 0.8655 0.0
C764 C 0.84426 0.32654 0.90455 0.0
C765 C 0.86666 0.36435 0.91414 0.0
C766 C 0.88376 0.38308 0.88486 0.0
C767 C 0.86128 0.3452 0.87532 0.0
C768 C 0.89538 0.38237 0.81578 0.0
C769 C 0.89011 0.36338 0.77682 0.0
H770 H 0.66764 0.53609 0.95672 0.0
H771 H 0.63582 0.48148 0.79802 0.0
H772 H 0.66889 0.49002 0.73082 0.0
H773 H 0.70684 0.51322 0.71548 0.0
H774 H 0.73861 0.56779 0.87446 0.0
H775 H 0.70562 0.55894 0.94309 0.0
C776 C 0.66789 0.52602 0.90747 0.0
C777 C 0.64917 0.50818 0.88251 0.0
C778 C 0.68701 0.531 0.869 0.0
C779 C 0.64991 0.49532 0.81868 0.0
C780 C 0.66886 0.50019 0.78008 0.0
C781 C 0.70659 0.52317 0.76529 0.0
C782 C 0.72525 0.5412 0.78939 0.0
C783 C 0.6875 0.51802 0.80454 0.0
C784 C 0.72454 0.55386 0.85422 0.0
C785 C 0.70565 0.54882 0.89361 0.0
H786 H 0.46364 0.82182 0.13876 0.0
H787 H 0.51883 0.88038 0.07779 0.0
H788 H 0.54064 0.86494 0.1007 0.0
H789 H 0.5446 0.83541 0.13954 0.0
H790 H 0.49065 0.77714 0.2114 0.0
H791 H 0.46791 0.7917 0.18099 0.0
C792 C 0.48043 0.83119 0.13081 0.0
C793 C 0.48941 0.8522 0.10491 0.0
C794 C 0.49319 0.82225 0.14553 0.0
C795 C 0.51127 0.86405 0.09512 0.0
C796 C 0.52388 0.85529 0.10888 0.0
C797 C 0.52789 0.82587 0.14963 0.0
C798 C 0.51947 0.80525 0.17885 0.0
C799 C 0.51504 0.83447 0.13415 0.0
C800 C 0.49764 0.79302 0.18859 0.0
C801 C 0.48463 0.80141 0.17188 0.0
H802 H 0.19584 0.71413 0.21583 0.0
H803 H 0.2565 0.71949 0.23916 0.0
H804 H 0.24174 0.68308 0.19301 0.0
H805 H 0.21105 0.64939 0.14742 0.0
H806 H 0.15081 0.64529 0.12603 0.0
H807 H 0.16591 0.68141 0.17065 0.0
C808 C 0.20584 0.7073 0.21186 0.0
C809 C 0.22717 0.71942 0.23222 0.0
C810 C 0.19728 0.68653 0.18534 0.0
C811 C 0.24 0.71048 0.22406 0.0
C812 C 0.23154 0.68965 0.19794 0.0
C813 C 0.20129 0.65645 0.15271 0.0
C814 C 0.17985 0.64466 0.13233 0.0
C815 C 0.21013 0.67746 0.17867 0.0
C816 C 0.16741 0.65406 0.13946 0.0
C817 C 0.176 0.67472 0.16557 0.0
H818 H 0.38595 0.56262 0.10302 0.0
H819 H 0.39317 0.50839 0.12617 0.0
H820 H 0.35605 0.48666 0.15435 0.0
H821 H 0.32153 0.48267 0.17264 0.0
H822 H 0.31347 0.53643 0.15652 0.0
H823 H 0.35073 0.55855 0.12436 0.0
C824 C 0.37939 0.54607 0.11461 0.0
C825 C 0.39242 0.53719 0.11108 0.0
C826 C 0.35782 0.5335 0.13176 0.0
C827 C 0.38356 0.51566 0.12621 0.0
C828 C 0.36229 0.50317 0.14303 0.0
C829 C 0.32789 0.49928 0.16327 0.0
C830 C 0.31465 0.50784 0.16797 0.0
C831 C 0.34929 0.51189 0.14591 0.0
C832 C 0.32321 0.52934 0.15292 0.0
C833 C 0.34457 0.54203 0.13503 0.0
H834 H 0.1388 0.48733 0.05589 0.0
H835 H 0.16992 0.54583 0.1913 0.0
H836 H 0.19498 0.53672 0.24874 0.0
H837 H 0.20834 0.51241 0.25965 0.0
H838 H 0.17702 0.45361 0.12643 0.0
H839 H 0.15179 0.46262 0.06917 0.0
C840 C 0.15104 0.4981 0.09801 0.0
C841 C 0.15247 0.51731 0.11879 0.0
C842 C 0.16541 0.49273 0.13119 0.0
C843 C 0.16843 0.53099 0.17385 0.0
C844 C 0.1828 0.52579 0.20682 0.0
C845 C 0.19602 0.50152 0.21804 0.0
C846 C 0.19469 0.48238 0.19716 0.0
C847 C 0.18149 0.50675 0.18569 0.0
C848 C 0.17849 0.46846 0.14356 0.0
C849 C 0.16404 0.47361 0.11072 0.0
H850 H 0.51336 0.70411 0.27076 0.0
H851 H 0.5768 0.71861 0.22567 0.0
H852 H 0.56404 0.68387 0.164 0.0
H853 H 0.53447 0.64946 0.11907 0.0
H854 H 0.47134 0.63703 0.15233 0.0
H855 H 0.48423 0.67067 0.22303 0.0
C856 C 0.52442 0.69962 0.24808 0.0
C857 C 0.546 0.71385 0.25356 0.0
C858 C 0.51696 0.67993 0.21052 0.0
C859 C 0.5601 0.70793 0.22229 0.0
C860 C 0.55281 0.68806 0.18713 0.0
C861 C 0.52364 0.65416 0.1426 0.0
C862 C 0.50201 0.64083 0.13136 0.0
C863 C 0.53124 0.67393 0.18048 0.0
C864 C 0.48805 0.6471 0.16052 0.0
C865 C 0.49541 0.66631 0.20085 0.0
H866 H 0.36916 0.88887 0.06319 0.0
H867 H 0.40086 0.86532 0.21866 0.0
H868 H 0.36834 0.84297 0.29398 0.0
H869 H 0.33097 0.83013 0.31624 0.0
H870 H 0.29909 0.85345 0.16067 0.0
H871 H 0.33163 0.87587 0.08519 0.0
C872 C 0.36898 0.87883 0.11345 0.0
C873 C 0.3875 0.87879 0.1349 0.0
C874 C 0.35019 0.86599 0.15674 0.0
C875 C 0.38689 0.86564 0.20034 0.0
C876 C 0.36828 0.85287 0.24369 0.0
C877 C 0.33109 0.84013 0.26594 0.0
C878 C 0.31254 0.8401 0.24449 0.0
C879 C 0.34985 0.85293 0.22252 0.0
C880 C 0.31309 0.85317 0.17887 0.0
C881 C 0.33171 0.86599 0.13551 0.0
H882 H 0.14875 0.30782 0.22938 0.0
H883 H 0.12767 0.30898 0.48179 0.0
H884 H 0.14339 0.34704 0.47393 0.0
H885 H 0.16882 0.38035 0.40375 0.0
H886 H 0.18981 0.3784 0.15178 0.0
H887 H 0.16821 0.3404 0.14976 0.0
C888 C 0.14696 0.31638 0.28137 0.0
C889 C 0.13712 0.30575 0.35594 0.0
C890 C 0.15627 0.33818 0.27662 0.0
C891 C 0.13496 0.31688 0.42334 0.0
C892 C 0.14419 0.33867 0.41917 0.0
C893 C 0.16793 0.37156 0.34746 0.0
C894 C 0.18068 0.38201 0.27768 0.0
C895 C 0.15569 0.34958 0.34744 0.0
C896 C 0.1799 0.37059 0.20564 0.0
C897 C 0.16769 0.34887 0.20478 0.0
H898 H 0.65388 0.79399 0.28404 0.0
H899 H 0.63705 0.81929 0.49582 0.0
H900 H 0.67319 0.83767 0.54397 0.0
H901 H 0.71012 0.85131 0.51294 0.0
H902 H 0.72837 0.82754 0.30112 0.0
H903 H 0.69137 0.80369 0.26617 0.0
C904 C 0.65811 0.80298 0.34213 0.0
C905 C 0.64287 0.80539 0.38621 0.0
C906 C 0.67926 0.81407 0.36856 0.0
C907 C 0.64854 0.8173 0.46076 0.0
C908 C 0.66923 0.82791 0.48815 0.0
C909 C 0.70594 0.84044 0.4606 0.0
C910 C 0.72179 0.8411 0.40959 0.0
C911 C 0.68481 0.82714 0.44061 0.0
C912 C 0.71634 0.82708 0.34174 0.0
C913 C 0.6952 0.81362 0.32136 0.0
H914 H 0.23355 0.86375 0.30088 0.0
H915 H 0.19732 0.81556 0.48301 0.0
H916 H 0.17807 0.83293 0.52083 0.0
H917 H 0.16833 0.85917 0.49156 0.0
H918 H 0.20365 0.9082 0.31313 0.0
H919 H 0.22654 0.89349 0.28544 0.0
C920 C 0.2217 0.85732 0.34975 0.0
C921 C 0.21661 0.83808 0.38751 0.0
C922 C 0.21038 0.86747 0.37166 0.0
C923 C 0.20129 0.83005 0.45129 0.0
C924 C 0.19024 0.84 0.47341 0.0
C925 C 0.18135 0.86689 0.448 0.0
C926 C 0.18434 0.88462 0.40432 0.0
C927 C 0.19417 0.8583 0.43228 0.0
C928 C 0.20123 0.89459 0.3481 0.0
C929 C 0.21416 0.88604 0.33172 0.0
H930 H 0.38462 0.16809 0.57456 0.0
H931 H 0.39338 0.17046 0.84445 0.0
H932 H 0.35551 0.14949 0.86494 0.0
H933 H 0.31997 0.13526 0.80622 0.0
H934 H 0.31112 0.1314 0.53629 0.0
H935 H 0.34897 0.14784 0.51517 0.0
C936 C 0.3782 0.16352 0.63766 0.0
C937 C 0.39165 0.17092 0.708 0.0
C938 C 0.35645 0.15137 0.64879 0.0
C939 C 0.38329 0.16483 0.78946 0.0
C940 C 0.36165 0.15301 0.80116 0.0
C941 C 0.32635 0.13752 0.74286 0.0
C942 C 0.31292 0.13236 0.67284 0.0
C943 C 0.34807 0.14688 0.73141 0.0
C944 C 0.32121 0.13518 0.59101 0.0
C945 C 0.34285 0.14475 0.579 0.0
H946 H 0.85896 0.21876 0.55181 0.0
H947 H 0.86334 0.23041 0.81982 0.0
H948 H 0.88611 0.21533 0.83514 0.0
H949 H 0.89958 0.19351 0.77482 0.0
H950 H 0.89679 0.18345 0.50586 0.0
H951 H 0.87895 0.20361 0.48752 0.0
C952 C 0.86553 0.21861 0.61297 0.0
C953 C 0.85954 0.22557 0.68468 0.0
C954 C 0.87867 0.21002 0.62102 0.0
C955 C 0.86798 0.22531 0.76378 0.0
C956 C 0.8808 0.21649 0.7726 0.0
C957 C 0.89566 0.19636 0.71203 0.0
C958 C 0.89932 0.18699 0.64177 0.0
C959 C 0.88553 0.20804 0.70214 0.0
C960 C 0.89424 0.1907 0.56063 0.0
C961 C 0.88386 0.20203 0.55031 0.0
H962 H 0.80845 0.64557 0.78858 0.0
H963 H 0.80808 0.6378 0.51884 0.0
H964 H 0.82248 0.67528 0.49834 0.0
H965 H 0.84101 0.71077 0.55835 0.0
H966 H 0.84548 0.71869 0.82848 0.0
H967 H 0.82346 0.681 0.84821 0.0
C968 C 0.81085 0.65208 0.72545 0.0
C969 C 0.80711 0.63907 0.65524 0.0
C970 C 0.82018 0.67382 0.71446 0.0
C971 C 0.81078 0.64762 0.57365 0.0
C972 C 0.81913 0.66906 0.56197 0.0
C973 C 0.83646 0.70422 0.62124 0.0
C974 C 0.84458 0.71734 0.6919 0.0
C975 C 0.82474 0.68242 0.63199 0.0
C976 C 0.83919 0.70876 0.77332 0.0
C977 C 0.82674 0.68722 0.78457 0.0
H978 H 0.05503 0.50832 0.90211 0.0
H979 H 0.06007 0.50551 0.17224 0.0
H980 H 0.02209 0.48286 0.18319 0.0
H981 H 0.98729 0.46893 0.11732 0.0
H982 H 0.98221 0.47036 0.84653 0.0
H983 H 0.02036 0.48812 0.8336 0.0
C984 C 0.0478 0.50205 0.96283 0.0
C985 C 0.06014 0.50837 0.03631 0.0
C986 C 0.02598 0.48906 0.96838 0.0
C987 C 0.05078 0.50051 0.11495 0.0
C988 C 0.02908 0.48777 0.1212 0.0
C989 C 0.99458 0.47259 0.05544 0.0
C990 C 0.98211 0.46854 0.98298 0.0
C991 C 1.01648 0.48267 0.04867 0.0
C992 C 0.99157 0.47324 0.90302 0.0
C993 C 1.01337 0.48356 0.89574 0.0
H994 H 0.54078 0.56553 0.90059 0.0
H995 H 0.53164 0.56198 0.17012 0.0
H996 H 0.55114 0.54336 0.18409 0.0
H997 H 0.56451 0.52226 0.11537 0.0
H998 H 0.5747 0.52683 0.84648 0.0
H999 H 0.56145 0.55122 0.83606 0.0
C1000 C 0.54384 0.56141 0.96263 0.0
C1001 C 0.53483 0.56506 0.03426 0.0
C1002 C 0.55497 0.55064 0.9699 0.0
C1003 C 0.53868 0.55956 0.11435 0.0
C1004 C 0.54959 0.54866 0.12213 0.0
C1005 C 0.56458 0.52929 0.05515 0.0
C1006 C 0.57055 0.52288 0.98173 0.0
C1007 C 0.55692 0.54328 0.04988 0.0
C1008 C 0.57043 0.53181 0.90379 0.0
C1009 C 0.56263 0.54556 0.8978 0.0
H1010 H 0.49795 0.03979 0.91568 0.0
H1011 H 0.52556 0.05391 0.16416 0.0
H1012 H 0.50435 0.01746 0.20529 0.0
H1013 H 0.48359 0.98093 0.1616 0.0
H1014 H 0.45718 0.96574 0.91177 0.0
H1015 H 0.47184 1.00297 0.88006 0.0
C1016 C 0.49862 0.03492 0.97969 0.0
C1017 C 0.51322 0.04944 0.03701 0.0
C1018 C 0.48682 0.01363 1.00207 0.0
C1019 C 0.51436 0.04297 0.11923 0.0
C1020 C 0.50234 0.0221 0.1426 0.0
C1021 C 0.48035 0.98582 0.10155 0.0
C1022 C 0.46919 0.9708 0.0394 0.0
C1023 C 0.48932 1.00717 0.08335 0.0
C1024 C 0.46542 0.97714 0.96099 0.0
C1025 C 0.47403 0.99843 0.94261 0.0
H1026 H 0.12493 0.27927 0.82634 0.0
H1027 H 0.10667 0.21695 0.74248 0.0
H1028 H 0.10105 0.20484 0.88833 0.0
H1029 H 0.10422 0.21253 0.04021 0.0
H1030 H 0.12338 0.27491 0.12537 0.0
H1031 H 0.12549 0.28637 0.97903 0.0
C1032 C 0.11964 0.26303 0.84012 0.0
C1033 C 0.11636 0.2491 0.77346 0.0
C1034 C 0.11663 0.25619 0.92448 0.0
C1035 C 0.10914 0.228 0.79222 0.0
C1036 C 0.10607 0.22108 0.8758 0.0
C1037 C 0.10871 0.22859 0.02663 0.0
C1038 C 0.11381 0.24287 0.09351 0.0
C1039 C 0.11018 0.23511 0.94242 0.0
C1040 C 0.11923 0.26356 0.07516 0.0
C1041 C 0.12063 0.27017 0.9914 0.0
H1042 H 0.75719 0.88921 0.82692 0.0
H1043 H 0.80091 0.87011 0.74523 0.0
H1044 H 0.80804 0.86571 0.8916 0.0
H1045 H 0.80357 0.86931 0.04294 0.0
H1046 H 0.76132 0.89016 0.12532 0.0
H1047 H 0.75185 0.8917 0.97889 0.0
C1048 C 0.76831 0.88412 0.84103 0.0
C1049 C 0.77853 0.88012 0.77462 0.0
C1050 C 0.77266 0.88197 0.92571 0.0
C1051 C 0.79258 0.87311 0.79445 0.0
C1052 C 0.79683 0.87074 0.87843 0.0
C1053 C 0.79235 0.87427 0.02902 0.0
C1054 C 0.78335 0.87979 0.09542 0.0
C1055 C 0.78723 0.87546 0.94453 0.0
C1056 C 0.76843 0.88568 0.07593 0.0
C1057 C 0.7631 0.88672 0.99197 0.0
H1058 H 0.11411 0.88823 0.80042 0.0
H1059 H 0.17927 0.92127 0.73115 0.0
H1060 H 0.18909 0.93125 0.87861 0.0
H1061 H 0.17915 0.93 0.02683 0.0
H1062 H 0.11382 0.89809 0.09568 0.0
H1063 H 0.10411 0.88785 0.94891 0.0
C1064 C 0.13045 0.89746 0.8178 0.0
C1065 C 0.14595 0.90392 0.75502 0.0
C1066 C 0.13595 0.90325 0.90259 0.0
C1067 C 0.16706 0.91624 0.7782 0.0
C1068 C 0.17267 0.92186 0.86252 0.0
C1069 C 0.16276 0.92104 1.01013 0.0
C1070 C 0.14729 0.9148 0.07319 0.0
C1071 C 0.15724 0.91546 0.92523 0.0
C1072 C 0.12614 0.90287 0.04937 0.0
C1073 C 0.12054 0.8971 0.96512 0.0
H1074 H 0.26188 0.09314 0.03472 0.0
H1075 H 0.23008 0.12658 0.96516 0.0
H1076 H 0.23128 0.13737 0.11144 0.0
H1077 H 0.24112 0.1372 0.25985 0.0
H1078 H 0.27164 0.10272 0.3303 0.0
H1079 H 0.27076 0.09209 0.1833 0.0
C1080 C 0.25496 0.10256 0.05125 0.0
C1081 C 0.24603 0.10909 0.98798 0.0
C1082 C 0.25543 0.10852 0.13602 0.0
C1083 C 0.23742 0.12158 1.01156 0.0
C1084 C 0.23797 0.12769 0.09557 0.0
C1085 C 0.24773 0.12752 0.24285 0.0
C1086 C 0.25653 0.12085 0.30592 0.0
C1087 C 0.24702 0.12133 0.15828 0.0
C1088 C 0.26466 0.10794 0.28311 0.0
C1089 C 0.26423 0.10193 0.199 0.0
H1090 H 0.95067 0.15795 1.00572 0.0
H1091 H 0.88661 0.12937 0.9222 0.0
H1092 H 0.87461 0.12295 0.06857 0.0
H1093 H 0.88241 0.12635 0.22018 0.0
H1094 H 0.94659 0.15398 0.30325 0.0
H1095 H 0.95841 0.16038 0.15753 0.0
C1096 C 0.9341 0.15036 0.01978 0.0
C1097 C 0.91958 0.14411 0.95332 0.0
C1098 C 0.92732 0.14677 0.10404 0.0
C1099 C 0.89811 0.13406 0.97216 0.0
C1100 C 0.89124 0.13053 0.05589 0.0
C1101 C 0.89897 0.13358 0.20674 0.0
C1102 C 0.91349 0.13979 0.27345 0.0
C1103 C 0.90572 0.13689 0.12236 0.0
C1104 C 0.93495 0.14939 0.25401 0.0
C1105 C 0.94178 0.15292 0.17032 0.0
H1106 H 0.90885 0.76499 0.23547 0.0
H1107 H 0.86799 0.78777 0.31621 0.0
H1108 H 0.86423 0.796 0.17116 0.0
H1109 H 0.87136 0.7957 0.02099 0.0
H1110 H 0.91016 0.77084 0.93695 0.0
H1111 H 0.91616 0.76485 0.08331 0.0
C1112 C 0.89904 0.77164 0.22132 0.0
C1113 C 0.88883 0.7758 0.28729 0.0
C1114 C 0.89664 0.7761 0.13699 0.0
C1115 C 0.87637 0.7847 0.2675 0.0
C1116 C 0.87407 0.78932 0.18421 0.0
C1117 C 0.88107 0.78888 0.03443 0.0
C1118 C 0.89013 0.78363 0.96759 0.0
C1119 C 0.884 0.78496 0.1185 0.0
C1120 C 0.9031 0.77527 0.98671 0.0
C1121 C 0.90638 0.77162 0.07059 0.0
H1122 H 0.82535 0.59312 0.11454 0.0
H1123 H 0.76146 0.56865 0.03292 0.0
H1124 H 0.74944 0.56018 0.17783 0.0
H1125 H 0.75687 0.56063 0.32812 0.0
H1126 H 0.8207 0.58709 0.41304 0.0
H1127 H 0.8328 0.59349 0.2669 0.0
C1128 C 0.80882 0.58606 0.12848 0.0
C1129 C 0.7944 0.58147 0.06226 0.0
C1130 C 0.80193 0.58144 0.21275 0.0
C1131 C 0.77297 0.57205 0.08179 0.0
C1132 C 0.76603 0.5673 0.16501 0.0
C1133 C 0.77345 0.56789 0.31495 0.0
C1134 C 0.78778 0.57345 0.38203 0.0
C1135 C 0.78036 0.57203 0.23096 0.0
C1136 C 0.8092 0.58241 0.36316 0.0
C1137 C 0.81619 0.58628 0.27937 0.0
H1138 H 0.46948 0.19614 0.35164 0.0
H1139 H 0.4482 0.23787 0.43571 0.0
H1140 H 0.44387 0.24533 0.28939 0.0
H1141 H 0.44444 0.23862 0.13713 0.0
H1142 H 0.46387 0.19521 0.05524 0.0
H1143 H 0.47048 0.18978 0.20073 0.0
C1144 C 0.46382 0.20681 0.33812 0.0
C1145 C 0.45909 0.2163 0.40495 0.0
C1146 C 0.46093 0.21069 0.25391 0.0
C1147 C 0.4522 0.23047 0.38593 0.0
C1148 C 0.44952 0.23462 0.30206 0.0
C1149 C 0.45002 0.22791 0.15113 0.0
C1150 C 0.45367 0.21742 0.08485 0.0
C1151 C 0.45355 0.22458 0.23553 0.0
C1152 C 0.46122 0.2038 0.10434 0.0
C1153 C 0.46488 0.20054 0.18784 0.0
H1154 H 0.80324 0.22079 0.38315 0.0
H1155 H 0.83395 0.28762 0.35738 0.0
H1156 H 0.83507 0.28447 0.20408 0.0
H1157 H 0.82704 0.2627 0.07509 0.0
H1158 H 0.79503 0.19568 0.10187 0.0
H1159 H 0.79495 0.19904 0.25423 0.0
C1160 C 0.81036 0.23466 0.34409 0.0
C1161 C 0.81846 0.25442 0.38268 0.0
C1162 C 0.81073 0.23275 0.25489 0.0
C1163 C 0.82739 0.27218 0.3301 0.0
C1164 C 0.82808 0.2704 0.24197 0.0
C1165 C 0.81993 0.24879 0.11388 0.0
C1166 C 0.81131 0.22895 0.07498 0.0
C1167 C 0.81965 0.25075 0.20319 0.0
C1168 C 0.80227 0.21124 0.12811 0.0
C1169 C 0.80206 0.2131 0.21625 0.0
H1170 H 0.92836 0.48249 0.55157 0.0
H1171 H 0.91131 0.42025 0.63249 0.0
H1172 H 0.90485 0.40821 0.48696 0.0
H1173 H 0.90523 0.41543 0.33635 0.0
H1174 H 0.92437 0.47797 0.25312 0.0
H1175 H 0.9285 0.48967 0.39954 0.0
C1176 C 0.92335 0.46633 0.53737 0.0
C1177 C 0.9203 0.45236 0.60339 0.0
C1178 C 0.91993 0.45949 0.45293 0.0
C1179 C 0.91348 0.43136 0.58361 0.0
C1180 C 0.9099 0.42444 0.50008 0.0
C1181 C 0.9104 0.43165 0.35003 0.0
C1182 C 0.91457 0.44575 0.2834 0.0
C1183 C 0.91323 0.43839 0.43427 0.0
C1184 C 0.9208 0.46664 0.30271 0.0
C1185 C 0.92337 0.47342 0.38664 0.0
H1186 H 0.56189 0.48708 0.55389 0.0
H1187 H 0.59611 0.45681 0.63195 0.0
H1188 H 0.60545 0.45511 0.48542 0.0
H1189 H 0.60352 0.46177 0.33535 0.0
H1190 H 0.57048 0.49335 0.25683 0.0
H1191 H 0.56071 0.49456 0.40278 0.0
C1192 C 0.57128 0.48002 0.53856 0.0
C1193 C 0.57832 0.47213 0.60371 0.0
C1194 C 0.57671 0.47921 0.45402 0.0
C1195 C 0.59072 0.46324 0.58314 0.0
C1196 C 0.59598 0.46216 0.49928 0.0
C1197 C 0.59439 0.46914 0.34976 0.0
C1198 C 0.58772 0.47734 0.28422 0.0
C1199 C 0.58909 0.47012 0.43421 0.0
C1200 C 0.57559 0.48655 0.30509 0.0
C1201 C 0.57008 0.48739 0.38892 0.0
H1202 H 0.55348 0.12463 0.6102 0.0
H1203 H 0.55122 0.06561 0.57782 0.0
H1204 H 0.55132 0.06923 0.4253 0.0
H1205 H 0.55321 0.08958 0.2983 0.0
H1206 H 0.5535 0.14768 0.33083 0.0
H1207 H 0.55294 0.14381 0.48303 0.0
C1208 C 0.55279 0.11243 0.57016 0.0
C1209 C 0.55273 0.09503 0.60745 0.0
C1210 C 0.55264 0.11445 0.48085 0.0
C1211 C 0.55184 0.07949 0.55272 0.0
C1212 C 0.55175 0.08146 0.46455 0.0
C1213 C 0.55298 0.10136 0.33818 0.0
C1214 C 0.55384 0.11915 0.30082 0.0
C1215 C 0.55239 0.09898 0.42747 0.0
C1216 C 0.55345 0.13406 0.35563 0.0
C1217 C 0.55297 0.13181 0.44377 0.0
H1218 H 0.4853 0.93706 0.45993 0.0
H1219 H 0.42308 0.89201 0.37644 0.0
H1220 H 0.41134 0.88462 0.52233 0.0
H1221 H 0.41901 0.88945 0.67393 0.0
H1222 H 0.48153 0.93311 0.75841 0.0
H1223 H 0.49275 0.94259 0.61232 0.0
C1224 C 0.46919 0.92559 0.47354 0.0
C1225 C 0.45519 0.91513 0.40665 0.0
C1226 C 0.46254 0.92111 0.55807 0.0
C1227 C 0.43423 0.90057 0.42592 0.0
C1228 C 0.42749 0.89617 0.50968 0.0
C1229 C 0.43511 0.90097 0.66057 0.0
C1230 C 0.44938 0.91038 0.72754 0.0
C1231 C 0.44157 0.90612 0.57624 0.0
C1232 C 0.4701 0.92568 0.70865 0.0
C1233 C 0.4766 0.93102 0.62485 0.0
H1234 H 0.09393 0.55667 0.45683 0.0
H1235 H 0.1416 0.54307 0.37406 0.0
H1236 H 0.14969 0.5397 0.51997 0.0
H1237 H 0.14445 0.5421 0.67131 0.0
H1238 H 0.09837 0.55785 0.75475 0.0
H1239 H 0.08847 0.55877 0.60875 0.0
C1240 C 0.10615 0.55306 0.47052 0.0
C1241 C 0.11707 0.55016 0.40383 0.0
C1242 C 0.11108 0.55153 0.55503 0.0
C1243 C 0.13263 0.54511 0.42334 0.0
C1244 C 0.13744 0.54334 0.50713 0.0
C1245 C 0.13234 0.54587 0.6578 0.0
C1246 C 0.12231 0.54999 0.72452 0.0
C1247 C 0.12694 0.54676 0.57345 0.0
C1248 C 0.10628 0.55438 0.7053 0.0
C1249 C 0.10068 0.55507 0.62151 0.0
H1250 H 0.50167 0.61173 0.67663 0.0
H1251 H 0.46786 0.54768 0.75996 0.0
H1252 H 0.46199 0.53579 0.61365 0.0
H1253 H 0.4679 0.54355 0.46163 0.0
H1254 H 0.50364 0.6077 0.38031 0.0
H1255 H 0.50735 0.61948 0.52584 0.0
C1256 C 0.49309 0.59517 0.66296 0.0
C1257 C 0.48534 0.5807 0.72961 0.0
C1258 C 0.49016 0.5884 0.57872 0.0
C1259 C 0.47384 0.55926 0.71036 0.0
C1260 C 0.47063 0.55241 0.62648 0.0
C1261 C 0.47659 0.56009 0.47574 0.0
C1262 C 0.4854 0.57464 0.40961 0.0
C1263 C 0.47897 0.56683 0.56015 0.0
C1264 C 0.49636 0.59607 0.42928 0.0
C1265 C 0.49864 0.60287 0.51281 0.0
H1266 H 0.61862 0.79099 0.89298 0.0
H1267 H 0.55461 0.76214 0.97771 0.0
H1268 H 0.54238 0.75444 0.83208 0.0
H1269 H 0.54986 0.75822 0.68008 0.0
H1270 H 0.61379 0.78797 0.59433 0.0
H1271 H 0.62602 0.79276 0.74036 0.0
C1272 C 0.602 0.78299 0.87948 0.0
C1273 C 0.5876 0.77727 0.94636 0.0
C1274 C 0.59504 0.77878 0.79524 0.0
C1275 C 0.56608 0.76656 0.92785 0.0
C1276 C 0.55905 0.76227 0.84438 0.0
C1277 C 0.56646 0.76568 0.69337 0.0
C1278 C 0.58086 0.7729 0.62623 0.0
C1279 C 0.57339 0.76864 0.77755 0.0
C1280 C 0.60233 0.78214 0.64453 0.0
C1281 C 0.60935 0.78505 0.72819 0.0
H1282 H 0.28011 0.82781 0.70275 0.0
H1283 H 0.21822 0.78197 0.61934 0.0
H1284 H 0.20643 0.77483 0.76576 0.0
H1285 H 0.21329 0.78296 0.91754 0.0
H1286 H 0.27468 0.83106 0.99727 0.0
H1287 H 0.28689 0.83605 0.85237 0.0
C1288 C 0.26399 0.81634 0.71623 0.0
C1289 C 0.25011 0.80563 0.64955 0.0
C1290 C 0.25714 0.81277 0.80025 0.0
C1291 C 0.2294 0.79039 0.6689 0.0
C1292 C 0.22255 0.78642 0.75283 0.0
C1293 C 0.22928 0.79463 0.9033 0.0
C1294 C 0.24299 0.8065 0.96902 0.0
C1295 C 0.23621 0.79777 0.81899 0.0
C1296 C 0.26379 0.82137 0.94891 0.0
C1297 C 0.27081 0.82437 0.86566 0.0
H1298 H 0.22027 0.47199 0.64178 0.0
H1299 H 0.21077 0.41237 0.55855 0.0
H1300 H 0.20731 0.40075 0.70525 0.0
H1301 H 0.21028 0.40885 0.85761 0.0
H1302 H 0.22125 0.4692 0.93902 0.0
H1303 H 0.22075 0.47917 0.79298 0.0
C1304 C 0.21735 0.45642 0.65584 0.0
C1305 C 0.21604 0.44318 0.58951 0.0
C1306 C 0.21577 0.45002 0.74012 0.0
C1307 C 0.21176 0.42286 0.60839 0.0
C1308 C 0.20996 0.41627 0.69233 0.0
C1309 C 0.2125 0.42415 0.84327 0.0
C1310 C 0.21593 0.43827 0.90931 0.0
C1311 C 0.21248 0.42993 0.75874 0.0
C1312 C 0.21838 0.45791 0.88982 0.0
C1313 C 0.21826 0.46372 0.80611 0.0
loop_
_geom_bond_atom_site_label_1
_geom_bond_atom_site_label_2
_geom_bond_distance
_geom_bond_site_symmetry_2
_ccdc_geom_bond_type
C0 C1 1.351 . S
C0 N3 1.368 . S
C0 H5 0.931 . S
C1 C0 1.351 . S
C1 N2 1.373 . S
C1 H29 0.930 . S
N2 C1 1.373 . S
N2 C4 1.340 . S
N3 C0 1.368 . S
N3 C4 1.321 . S
N3 Co6 2.135 . S
C4 N2 1.340 . S
C4 N3 1.321 . S
C4 H28 0.930 . S
H5 C0 0.931 . S
Co6 N3 2.135 . S
Co6 N9 2.121 . S
Co6 O14 2.055 . S
Co6 O17 2.039 . S
Co6 N20 2.140 . S
C7 O8 1.227 . S
C7 O17 1.265 . S
O8 C7 1.227 . S
N9 Co6 2.121 . S
N9 C11 1.375 . S
N9 C12 1.313 . S
C10 C11 1.338 . S
C10 N13 1.377 . S
C10 H30 0.930 . S
C11 N9 1.375 . S
C11 C10 1.338 . S
C11 H15 0.931 . S
C12 N9 1.313 . S
C12 N13 1.344 . S
C12 H16 0.930 . S
N13 C10 1.377 . S
N13 C12 1.344 . S
O14 Co6 2.055 . S
O14 C18 1.253 . S
H15 C11 0.931 . S
H16 C12 0.930 . S
O17 Co6 2.039 . S
O17 C7 1.265 . S
C18 O14 1.253 . S
C18 O19 1.227 . S
O19 C18 1.227 . S
N20 Co6 2.140 . S
N20 C23 1.346 . S
N20 C24 1.345 . S
C21 C22 1.387 . S
C21 C25 1.391 . S
C22 C21 1.387 . S
C22 C23 1.369 . S
C22 H31 0.929 . S
C23 N20 1.346 . S
C23 C22 1.369 . S
C23 H26 0.928 . S
C24 N20 1.345 . S
C24 C25 1.371 . S
C24 H27 0.931 . S
C25 C21 1.391 . S
C25 C24 1.371 . S
C25 H32 0.930 . S
H26 C23 0.928 . S
H27 C24 0.931 . S
H28 C4 0.930 . S
H29 C1 0.930 . S
H30 C10 0.930 . S
H31 C22 0.929 . S
H32 C25 0.930 . S
C33 C34 1.351 . S
C33 N36 1.368 . S
C33 H38 0.931 . S
C34 C33 1.351 . S
C34 N35 1.373 . S
C34 H62 0.930 . S
N35 C34 1.373 . S
N35 C37 1.340 . S
N36 C33 1.368 . S
N36 C37 1.321 . S
N36 Co39 2.135 . S
C37 N35 1.340 . S
C37 N36 1.321 . S
C37 H61 0.930 . S
H38 C33 0.931 . S
Co39 N36 2.135 . S
Co39 N42 2.121 . S
Co39 O47 2.055 . S
Co39 O50 2.039 . S
Co39 N53 2.140 . S
C40 O41 1.227 . S
C40 O50 1.265 . S
O41 C40 1.227 . S
N42 Co39 2.121 . S
N42 C44 1.375 . S
N42 C45 1.313 . S
C43 C44 1.338 . S
C43 N46 1.377 . S
C43 H63 0.930 . S
C44 N42 1.375 . S
C44 C43 1.338 . S
C44 H48 0.931 . S
C45 N42 1.313 . S
C45 N46 1.344 . S
C45 H49 0.930 . S
N46 C43 1.377 . S
N46 C45 1.344 . S
O47 Co39 2.055 . S
O47 C51 1.253 . S
H48 C44 0.931 . S
H49 C45 0.930 . S
O50 Co39 2.039 . S
O50 C40 1.265 . S
C51 O47 1.253 . S
C51 O52 1.227 . S
O52 C51 1.227 . S
N53 Co39 2.140 . S
N53 C56 1.346 . S
N53 C57 1.345 . S
C54 C55 1.387 . S
C54 C58 1.391 . S
C55 C54 1.387 . S
C55 C56 1.369 . S
C55 H64 0.929 . S
C56 N53 1.346 . S
C56 C55 1.369 . S
C56 H59 0.928 . S
C57 N53 1.345 . S
C57 C58 1.371 . S
C57 H60 0.931 . S
C58 C54 1.391 . S
C58 C57 1.371 . S
C58 H65 0.930 . S
H59 C56 0.928 . S
H60 C57 0.931 . S
H61 C37 0.930 . S
H62 C34 0.930 . S
H63 C43 0.930 . S
H64 C55 0.929 . S
H65 C58 0.930 . S
C66 C67 1.351 . S
C66 N69 1.368 . S
C66 H71 0.931 . S
C67 C66 1.351 . S
C67 N68 1.373 . S
C67 H95 0.930 . S
N68 C67 1.373 . S
N68 C70 1.340 . S
N69 C66 1.368 . S
N69 C70 1.321 . S
N69 Co72 2.135 . S
C70 N68 1.340 . S
C70 N69 1.321 . S
C70 H94 0.930 . S
H71 C66 0.931 . S
Co72 N69 2.135 . S
Co72 N75 2.121 . S
Co72 O80 2.055 . S
Co72 O83 2.039 . S
Co72 N86 2.140 . S
C73 O74 1.227 . S
C73 O83 1.265 . S
O74 C73 1.227 . S
N75 Co72 2.121 . S
N75 C77 1.375 . S
N75 C78 1.313 . S
C76 C77 1.338 . S
C76 N79 1.377 . S
C76 H96 0.930 . S
C77 N75 1.375 . S
C77 C76 1.338 . S
C77 H81 0.931 . S
C78 N75 1.313 . S
C78 N79 1.344 . S
C78 H82 0.930 . S
N79 C76 1.377 . S
N79 C78 1.344 . S
O80 Co72 2.055 . S
O80 C84 1.253 . S
H81 C77 0.931 . S
H82 C78 0.930 . S
O83 Co72 2.039 . S
O83 C73 1.265 . S
C84 O80 1.253 . S
C84 O85 1.227 . S
O85 C84 1.227 . S
N86 Co72 2.140 . S
N86 C89 1.346 . S
N86 C90 1.345 . S
C87 C88 1.387 . S
C87 C91 1.391 . S
C88 C87 1.387 . S
C88 C89 1.369 . S
C88 H97 0.929 . S
C89 N86 1.346 . S
C89 C88 1.369 . S
C89 H92 0.928 . S
C90 N86 1.345 . S
C90 C91 1.371 . S
C90 H93 0.931 . S
C91 C87 1.391 . S
C91 C90 1.371 . S
C91 H98 0.930 . S
H92 C89 0.928 . S
H93 C90 0.931 . S
H94 C70 0.930 . S
H95 C67 0.930 . S
H96 C76 0.930 . S
H97 C88 0.929 . S
H98 C91 0.930 . S
C99 C100 1.351 . S
C99 N102 1.368 . S
C99 H104 0.931 . S
C100 C99 1.351 . S
C100 N101 1.373 . S
C100 H128 0.930 . S
N101 C100 1.373 . S
N101 C103 1.340 . S
N102 C99 1.368 . S
N102 C103 1.321 . S
N102 Co105 2.135 . S
C103 N101 1.340 . S
C103 N102 1.321 . S
C103 H127 0.930 . S
H104 C99 0.931 . S
Co105 N102 2.135 . S
Co105 N108 2.121 . S
Co105 O113 2.055 . S
Co105 O116 2.039 . S
Co105 N119 2.140 . S
C106 O107 1.227 . S
C106 O116 1.265 . S
O107 C106 1.227 . S
N108 Co105 2.121 . S
N108 C110 1.375 . S
N108 C111 1.313 . S
C109 C110 1.338 . S
C109 N112 1.377 . S
C109 H129 0.930 . S
C110 N108 1.375 . S
C110 C109 1.338 . S
C110 H114 0.931 . S
C111 N108 1.313 . S
C111 N112 1.344 . S
C111 H115 0.930 . S
N112 C109 1.377 . S
N112 C111 1.344 . S
O113 Co105 2.055 . S
O113 C117 1.253 . S
H114 C110 0.931 . S
H115 C111 0.930 . S
O116 Co105 2.039 . S
O116 C106 1.265 . S
C117 O113 1.253 . S
C117 O118 1.227 . S
O118 C117 1.227 . S
N119 Co105 2.140 . S
N119 C122 1.346 . S
N119 C123 1.345 . S
C120 C121 1.387 . S
C120 C124 1.391 . S
C121 C120 1.387 . S
C121 C122 1.369 . S
C121 H130 0.929 . S
C122 N119 1.346 . S
C122 C121 1.369 . S
C122 H125 0.928 . S
C123 N119 1.345 . S
C123 C124 1.371 . S
C123 H126 0.931 . S
C124 C120 1.391 . S
C124 C123 1.371 . S
C124 H131 0.930 . S
H125 C122 0.928 . S
H126 C123 0.931 . S
H127 C103 0.930 . S
H128 C100 0.930 . S
H129 C109 0.930 . S
H130 C121 0.929 . S
H131 C124 0.930 . S
C132 C133 1.351 . S
C132 N135 1.368 . S
C132 H137 0.931 . S
C133 C132 1.351 . S
C133 N134 1.373 . S
C133 H161 0.930 . S
N134 C133 1.373 . S
N134 C136 1.340 . S
N135 C132 1.368 . S
N135 C136 1.321 . S
N135 Co138 2.135 . S
C136 N134 1.340 . S
C136 N135 1.321 . S
C136 H160 0.930 . S
H137 C132 0.931 . S
Co138 N135 2.135 . S
Co138 N141 2.121 . S
Co138 O146 2.055 . S
Co138 O149 2.039 . S
Co138 N152 2.140 . S
C139 O140 1.227 . S
C139 O149 1.265 . S
O140 C139 1.227 . S
N141 Co138 2.121 . S
N141 C143 1.375 . S
N141 C144 1.313 . S
C142 C143 1.338 . S
C142 N145 1.377 . S
C142 H162 0.930 . S
C143 N141 1.375 . S
C143 C142 1.338 . S
C143 H147 0.931 . S
C144 N141 1.313 . S
C144 N145 1.344 . S
C144 H148 0.930 . S
N145 C142 1.377 . S
N145 C144 1.344 . S
O146 Co138 2.055 . S
O146 C150 1.253 . S
H147 C143 0.931 . S
H148 C144 0.930 . S
O149 Co138 2.039 . S
O149 C139 1.265 . S
C150 O146 1.253 . S
C150 O151 1.227 . S
O151 C150 1.227 . S
N152 Co138 2.140 . S
N152 C155 1.346 . S
N152 C156 1.345 . S
C153 C154 1.387 . S
C153 C157 1.391 . S
C154 C153 1.387 . S
C154 C155 1.369 . S
C154 H163 0.929 . S
C155 N152 1.346 . S
C155 C154 1.369 . S
C155 H158 0.928 . S
C156 N152 1.345 . S
C156 C157 1.371 . S
C156 H159 0.931 . S
C157 C153 1.391 . S
C157 C156 1.371 . S
C157 H164 0.930 . S
H158 C155 0.928 . S
H159 C156 0.931 . S
H160 C136 0.930 . S
H161 C133 0.930 . S
H162 C142 0.930 . S
H163 C154 0.929 . S
H164 C157 0.930 . S
C165 C166 1.351 . S
C165 N168 1.368 . S
C165 H170 0.931 . S
C166 C165 1.351 . S
C166 N167 1.373 . S
C166 H194 0.930 . S
N167 C166 1.373 . S
N167 C169 1.340 . S
N168 C165 1.368 . S
N168 C169 1.321 . S
N168 Co171 2.135 . S
C169 N167 1.340 . S
C169 N168 1.321 . S
C169 H193 0.930 . S
H170 C165 0.931 . S
Co171 N168 2.135 . S
Co171 N174 2.121 . S
Co171 O179 2.055 . S
Co171 O182 2.039 . S
Co171 N185 2.140 . S
C172 O173 1.227 . S
C172 O182 1.265 . S
O173 C172 1.227 . S
N174 Co171 2.121 . S
N174 C176 1.375 . S
N174 C177 1.313 . S
C175 C176 1.338 . S
C175 N178 1.377 . S
C175 H195 0.930 . S
C176 N174 1.375 . S
C176 C175 1.338 . S
C176 H180 0.931 . S
C177 N174 1.313 . S
C177 N178 1.344 . S
C177 H181 0.930 . S
N178 C175 1.377 . S
N178 C177 1.344 . S
O179 Co171 2.055 . S
O179 C183 1.253 . S
H180 C176 0.931 . S
H181 C177 0.930 . S
O182 Co171 2.039 . S
O182 C172 1.265 . S
C183 O179 1.253 . S
C183 O184 1.227 . S
O184 C183 1.227 . S
N185 Co171 2.140 . S
N185 C188 1.346 . S
N185 C189 1.345 . S
C186 C187 1.387 . S
C186 C190 1.391 . S
C187 C186 1.387 . S
C187 C188 1.369 . S
C187 H196 0.929 . S
C188 N185 1.346 . S
C188 C187 1.369 . S
C188 H191 0.928 . S
C189 N185 1.345 . S
C189 C190 1.371 . S
C189 H192 0.931 . S
C190 C186 1.391 . S
C190 C189 1.371 . S
C190 H197 0.930 . S
H191 C188 0.928 . S
H192 C189 0.931 . S
H193 C169 0.930 . S
H194 C166 0.930 . S
H195 C175 0.930 . S
H196 C187 0.929 . S
H197 C190 0.930 . S
C198 C199 1.351 1_556 S
C198 N201 1.368 . S
C198 H203 0.931 . S
C199 C198 1.351 1_554 S
C199 N200 1.373 . S
C199 H227 0.930 . S
N200 C199 1.373 . S
N200 C202 1.340 1_554 S
N201 C198 1.368 . S
N201 C202 1.321 . S
N201 Co204 2.135 . S
C202 N200 1.340 1_556 S
C202 N201 1.321 . S
C202 H226 0.930 . S
H203 C198 0.931 . S
Co204 N201 2.135 . S
Co204 N207 2.121 . S
Co204 O212 2.055 . S
Co204 O215 2.039 . S
Co204 N218 2.140 . S
C205 O206 1.227 . S
C205 O215 1.265 . S
O206 C205 1.227 . S
N207 Co204 2.121 . S
N207 C209 1.375 . S
N207 C210 1.313 . S
C208 C209 1.338 . S
C208 N211 1.377 . S
C208 H228 0.930 . S
C209 N207 1.375 . S
C209 C208 1.338 . S
C209 H213 0.931 . S
C210 N207 1.313 . S
C210 N211 1.344 . S
C210 H214 0.930 . S
N211 C208 1.377 . S
N211 C210 1.344 . S
O212 Co204 2.055 . S
O212 C216 1.253 . S
H213 C209 0.931 . S
H214 C210 0.930 . S
O215 Co204 2.039 . S
O215 C205 1.265 . S
C216 O212 1.253 . S
C216 O217 1.227 . S
O217 C216 1.227 . S
N218 Co204 2.140 . S
N218 C221 1.346 . S
N218 C222 1.345 . S
C219 C220 1.387 . S
C219 C223 1.391 . S
C220 C219 1.387 . S
C220 C221 1.369 . S
C220 H229 0.929 . S
C221 N218 1.346 . S
C221 C220 1.369 . S
C221 H224 0.928 . S
C222 N218 1.345 . S
C222 C223 1.371 . S
C222 H225 0.931 . S
C223 C219 1.391 . S
C223 C222 1.371 . S
C223 H230 0.930 . S
H224 C221 0.928 . S
H225 C222 0.931 . S
H226 C202 0.930 . S
H227 C199 0.930 . S
H228 C208 0.930 . S
H229 C220 0.929 . S
H230 C223 0.930 . S
C231 C232 1.351 1_556 S
C231 N234 1.368 . S
C231 H236 0.931 . S
C232 C231 1.351 1_554 S
C232 N233 1.373 . S
C232 H260 0.930 . S
N233 C232 1.373 . S
N233 C235 1.340 1_554 S
N234 C231 1.368 . S
N234 C235 1.321 . S
N234 Co237 2.135 . S
C235 N233 1.340 1_556 S
C235 N234 1.321 . S
C235 H259 0.930 . S
H236 C231 0.931 . S
Co237 N234 2.135 . S
Co237 N240 2.121 . S
Co237 O245 2.055 . S
Co237 O248 2.039 . S
Co237 N251 2.140 . S
C238 O239 1.227 . S
C238 O248 1.265 . S
O239 C238 1.227 . S
N240 Co237 2.121 . S
N240 C242 1.375 . S
N240 C243 1.313 . S
C241 C242 1.338 . S
C241 N244 1.377 . S
C241 H261 0.930 . S
C242 N240 1.375 . S
C242 C241 1.338 . S
C242 H246 0.931 . S
C243 N240 1.313 . S
C243 N244 1.344 . S
C243 H247 0.930 . S
N244 C241 1.377 . S
N244 C243 1.344 . S
O245 Co237 2.055 . S
O245 C249 1.253 . S
H246 C242 0.931 . S
H247 C243 0.930 . S
O248 Co237 2.039 . S
O248 C238 1.265 . S
C249 O245 1.253 . S
C249 O250 1.227 . S
O250 C249 1.227 . S
N251 Co237 2.140 . S
N251 C254 1.346 . S
N251 C255 1.345 . S
C252 C253 1.387 . S
C252 C256 1.391 . S
C253 C252 1.387 . S
C253 C254 1.369 . S
C253 H262 0.929 . S
C254 N251 1.346 . S
C254 C253 1.369 . S
C254 H257 0.928 . S
C255 N251 1.345 . S
C255 C256 1.371 . S
C255 H258 0.931 . S
C256 C252 1.391 . S
C256 C255 1.371 . S
C256 H263 0.930 . S
H257 C254 0.928 . S
H258 C255 0.931 . S
H259 C235 0.930 . S
H260 C232 0.930 . S
H261 C241 0.930 . S
H262 C253 0.929 . S
H263 C256 0.930 . S
C264 C265 1.351 1_556 S
C264 N267 1.368 . S
C264 H269 0.931 . S
C265 C264 1.351 1_554 S
C265 N266 1.373 . S
C265 H293 0.930 . S
N266 C265 1.373 . S
N266 C268 1.340 1_554 S
N267 C264 1.368 . S
N267 C268 1.321 . S
N267 Co270 2.135 . S
C268 N266 1.340 1_556 S
C268 N267 1.321 . S
C268 H292 0.930 . S
H269 C264 0.931 . S
Co270 N267 2.135 . S
Co270 N273 2.121 . S
Co270 O278 2.055 . S
Co270 O281 2.039 . S
Co270 N284 2.140 . S
C271 O272 1.227 . S
C271 O281 1.265 . S
O272 C271 1.227 . S
N273 Co270 2.121 . S
N273 C275 1.375 . S
N273 C276 1.313 . S
C274 C275 1.338 . S
C274 N277 1.377 . S
C274 H294 0.930 . S
C275 N273 1.375 . S
C275 C274 1.338 . S
C275 H279 0.931 . S
C276 N273 1.313 . S
C276 N277 1.344 . S
C276 H280 0.930 . S
N277 C274 1.377 . S
N277 C276 1.344 . S
O278 Co270 2.055 . S
O278 C282 1.253 . S
H279 C275 0.931 . S
H280 C276 0.930 . S
O281 Co270 2.039 . S
O281 C271 1.265 . S
C282 O278 1.253 . S
C282 O283 1.227 . S
O283 C282 1.227 . S
N284 Co270 2.140 . S
N284 C287 1.346 . S
N284 C288 1.345 . S
C285 C286 1.387 . S
C285 C289 1.391 . S
C286 C285 1.387 . S
C286 C287 1.369 . S
C286 H295 0.929 . S
C287 N284 1.346 . S
C287 C286 1.369 . S
C287 H290 0.928 . S
C288 N284 1.345 . S
C288 C289 1.371 . S
C288 H291 0.931 . S
C289 C285 1.391 . S
C289 C288 1.371 . S
C289 H296 0.930 . S
H290 C287 0.928 . S
H291 C288 0.931 . S
H292 C268 0.930 . S
H293 C265 0.930 . S
H294 C274 0.930 . S
H295 C286 0.929 . S
H296 C289 0.930 . S
C297 C298 1.351 . S
C297 N300 1.368 . S
C297 H302 0.931 . S
C298 C297 1.351 . S
C298 N299 1.373 . S
C298 H326 0.930 . S
N299 C298 1.373 . S
N299 C301 1.340 . S
N300 C297 1.368 . S
N300 C301 1.321 . S
N300 Co303 2.135 . S
C301 N299 1.340 . S
C301 N300 1.321 . S
C301 H325 0.930 . S
H302 C297 0.931 . S
Co303 N300 2.135 . S
Co303 N306 2.121 1_556 S
Co303 O311 2.055 . S
Co303 O314 2.039 . S
Co303 N317 2.140 . S
C304 O305 1.227 . S
C304 O314 1.265 . S
O305 C304 1.227 . S
N306 Co303 2.121 1_554 S
N306 C308 1.375 . S
N306 C309 1.313 . S
C307 C308 1.338 . S
C307 N310 1.377 . S
C307 H327 0.930 . S
C308 N306 1.375 . S
C308 C307 1.338 . S
C308 H312 0.931 . S
C309 N306 1.313 . S
C309 N310 1.344 . S
C309 H313 0.930 . S
N310 C307 1.377 . S
N310 C309 1.344 . S
O311 Co303 2.055 . S
O311 C315 1.253 . S
H312 C308 0.931 . S
H313 C309 0.930 . S
O314 Co303 2.039 . S
O314 C304 1.265 . S
C315 O311 1.253 . S
C315 O316 1.227 . S
O316 C315 1.227 . S
N317 Co303 2.140 . S
N317 C320 1.346 . S
N317 C321 1.345 . S
C318 C319 1.387 . S
C318 C322 1.391 . S
C319 C318 1.387 . S
C319 C320 1.369 . S
C319 H328 0.929 . S
C320 N317 1.346 . S
C320 C319 1.369 . S
C320 H323 0.928 . S
C321 N317 1.345 . S
C321 C322 1.371 . S
C321 H324 0.931 . S
C322 C318 1.391 . S
C322 C321 1.371 . S
C322 H329 0.930 . S
H323 C320 0.928 . S
H324 C321 0.931 . S
H325 C301 0.930 . S
H326 C298 0.930 . S
H327 C307 0.930 . S
H328 C319 0.929 . S
H329 C322 0.930 . S
C330 C331 1.351 . S
C330 N333 1.368 . S
C330 H335 0.931 . S
C331 C330 1.351 . S
C331 N332 1.373 . S
C331 H359 0.930 . S
N332 C331 1.373 . S
N332 C334 1.340 . S
N333 C330 1.368 . S
N333 C334 1.321 . S
N333 Co336 2.135 . S
C334 N332 1.340 . S
C334 N333 1.321 . S
C334 H358 0.930 . S
H335 C330 0.931 . S
Co336 N333 2.135 . S
Co336 N339 2.121 1_556 S
Co336 O344 2.055 . S
Co336 O347 2.039 . S
Co336 N350 2.140 . S
C337 O338 1.227 . S
C337 O347 1.265 . S
O338 C337 1.227 . S
N339 Co336 2.121 1_554 S
N339 C341 1.375 . S
N339 C342 1.313 . S
C340 C341 1.338 . S
C340 N343 1.377 . S
C340 H360 0.930 . S
C341 N339 1.375 . S
C341 C340 1.338 . S
C341 H345 0.931 . S
C342 N339 1.313 . S
C342 N343 1.344 . S
C342 H346 0.930 . S
N343 C340 1.377 . S
N343 C342 1.344 . S
O344 Co336 2.055 . S
O344 C348 1.253 . S
H345 C341 0.931 . S
H346 C342 0.930 . S
O347 Co336 2.039 . S
O347 C337 1.265 . S
C348 O344 1.253 . S
C348 O349 1.227 . S
O349 C348 1.227 . S
N350 Co336 2.140 . S
N350 C353 1.346 . S
N350 C354 1.345 . S
C351 C352 1.387 . S
C351 C355 1.391 . S
C352 C351 1.387 . S
C352 C353 1.369 . S
C352 H361 0.929 . S
C353 N350 1.346 . S
C353 C352 1.369 . S
C353 H356 0.928 . S
C354 N350 1.345 . S
C354 C355 1.371 . S
C354 H357 0.931 . S
C355 C351 1.391 . S
C355 C354 1.371 . S
C355 H362 0.930 . S
H356 C353 0.928 . S
H357 C354 0.931 . S
H358 C334 0.930 . S
H359 C331 0.930 . S
H360 C340 0.930 . S
H361 C352 0.929 . S
H362 C355 0.930 . S
C363 C364 1.351 . S
C363 N366 1.368 . S
C363 H368 0.931 . S
C364 C363 1.351 . S
C364 N365 1.373 . S
C364 H392 0.930 . S
N365 C364 1.373 . S
N365 C367 1.340 . S
N366 C363 1.368 . S
N366 C367 1.321 . S
N366 Co369 2.135 . S
C367 N365 1.340 . S
C367 N366 1.321 . S
C367 H391 0.930 . S
H368 C363 0.931 . S
Co369 N366 2.135 . S
Co369 N372 2.121 1_556 S
Co369 O377 2.055 . S
Co369 O380 2.039 . S
Co369 N383 2.140 . S
C370 O371 1.227 . S
C370 O380 1.265 . S
O371 C370 1.227 . S
N372 Co369 2.121 1_554 S
N372 C374 1.375 . S
N372 C375 1.313 . S
C373 C374 1.338 . S
C373 N376 1.377 . S
C373 H393 0.930 . S
C374 N372 1.375 . S
C374 C373 1.338 . S
C374 H378 0.931 . S
C375 N372 1.313 . S
C375 N376 1.344 . S
C375 H379 0.930 . S
N376 C373 1.377 . S
N376 C375 1.344 . S
O377 Co369 2.055 . S
O377 C381 1.253 . S
H378 C374 0.931 . S
H379 C375 0.930 . S
O380 Co369 2.039 . S
O380 C370 1.265 . S
C381 O377 1.253 . S
C381 O382 1.227 . S
O382 C381 1.227 . S
N383 Co369 2.140 . S
N383 C386 1.346 . S
N383 C387 1.345 . S
C384 C385 1.387 . S
C384 C388 1.391 . S
C385 C384 1.387 . S
C385 C386 1.369 . S
C385 H394 0.929 . S
C386 N383 1.346 . S
C386 C385 1.369 . S
C386 H389 0.928 . S
C387 N383 1.345 . S
C387 C388 1.371 . S
C387 H390 0.931 . S
C388 C384 1.391 . S
C388 C387 1.371 . S
C388 H395 0.930 . S
H389 C386 0.928 . S
H390 C387 0.931 . S
H391 C367 0.930 . S
H392 C364 0.930 . S
H393 C373 0.930 . S
H394 C385 0.929 . S
H395 C388 0.930 . S
C396 C397 1.351 . S
C396 N399 1.368 . S
C396 H401 0.931 . S
C397 C396 1.351 . S
C397 N398 1.373 . S
C397 H425 0.930 . S
N398 C397 1.373 . S
N398 C400 1.340 . S
N399 C396 1.368 . S
N399 C400 1.321 . S
N399 Co402 2.135 . S
C400 N398 1.340 . S
C400 N399 1.321 . S
C400 H424 0.930 . S
H401 C396 0.931 . S
Co402 N399 2.135 . S
Co402 N405 2.121 1_554 S
Co402 O410 2.055 . S
Co402 O413 2.039 . S
Co402 N416 2.140 . S
C403 O404 1.227 . S
C403 O413 1.265 . S
O404 C403 1.227 . S
N405 Co402 2.121 1_556 S
N405 C407 1.375 . S
N405 C408 1.313 . S
C406 C407 1.338 . S
C406 N409 1.377 . S
C406 H426 0.930 . S
C407 N405 1.375 . S
C407 C406 1.338 . S
C407 H411 0.931 . S
C408 N405 1.313 . S
C408 N409 1.344 . S
C408 H412 0.930 . S
N409 C406 1.377 . S
N409 C408 1.344 . S
O410 Co402 2.055 . S
O410 C414 1.253 . S
H411 C407 0.931 . S
H412 C408 0.930 . S
O413 Co402 2.039 . S
O413 C403 1.265 . S
C414 O410 1.253 . S
C414 O415 1.227 . S
O415 C414 1.227 . S
N416 Co402 2.140 . S
N416 C419 1.346 . S
N416 C420 1.345 . S
C417 C418 1.387 . S
C417 C421 1.391 . S
C418 C417 1.387 . S
C418 C419 1.369 . S
C418 H427 0.929 . S
C419 N416 1.346 . S
C419 C418 1.369 . S
C419 H422 0.928 . S
C420 N416 1.345 . S
C420 C421 1.371 . S
C420 H423 0.931 . S
C421 C417 1.391 . S
C421 C420 1.371 . S
C421 H428 0.930 . S
H422 C419 0.928 . S
H423 C420 0.931 . S
H424 C400 0.930 . S
H425 C397 0.930 . S
H426 C406 0.930 . S
H427 C418 0.929 . S
H428 C421 0.930 . S
C429 C430 1.351 . S
C429 N432 1.368 . S
C429 H434 0.931 . S
C430 C429 1.351 . S
C430 N431 1.373 . S
C430 H458 0.930 . S
N431 C430 1.373 . S
N431 C433 1.340 . S
N432 C429 1.368 . S
N432 C433 1.321 . S
N432 Co435 2.135 . S
C433 N431 1.340 . S
C433 N432 1.321 . S
C433 H457 0.930 . S
H434 C429 0.931 . S
Co435 N432 2.135 . S
Co435 N438 2.121 1_554 S
Co435 O443 2.055 . S
Co435 O446 2.039 . S
Co435 N449 2.140 . S
C436 O437 1.227 . S
C436 O446 1.265 . S
O437 C436 1.227 . S
N438 Co435 2.121 1_556 S
N438 C440 1.375 . S
N438 C441 1.313 . S
C439 C440 1.338 . S
C439 N442 1.377 . S
C439 H459 0.930 . S
C440 N438 1.375 . S
C440 C439 1.338 . S
C440 H444 0.931 . S
C441 N438 1.313 . S
C441 N442 1.344 . S
C441 H445 0.930 . S
N442 C439 1.377 . S
N442 C441 1.344 . S
O443 Co435 2.055 . S
O443 C447 1.253 . S
H444 C440 0.931 . S
H445 C441 0.930 . S
O446 Co435 2.039 . S
O446 C436 1.265 . S
C447 O443 1.253 . S
C447 O448 1.227 . S
O448 C447 1.227 . S
N449 Co435 2.140 . S
N449 C452 1.346 . S
N449 C453 1.345 . S
C450 C451 1.387 . S
C450 C454 1.391 . S
C451 C450 1.387 . S
C451 C452 1.369 . S
C451 H460 0.929 . S
C452 N449 1.346 . S
C452 C451 1.369 . S
C452 H455 0.928 . S
C453 N449 1.345 . S
C453 C454 1.371 . S
C453 H456 0.931 . S
C454 C450 1.391 . S
C454 C453 1.371 . S
C454 H461 0.930 . S
H455 C452 0.928 . S
H456 C453 0.931 . S
H457 C433 0.930 . S
H458 C430 0.930 . S
H459 C439 0.930 . S
H460 C451 0.929 . S
H461 C454 0.930 . S
C462 C463 1.351 . S
C462 N465 1.368 . S
C462 H467 0.931 . S
C463 C462 1.351 . S
C463 N464 1.373 . S
C463 H491 0.930 . S
N464 C463 1.373 . S
N464 C466 1.340 . S
N465 C462 1.368 . S
N465 C466 1.321 . S
N465 Co468 2.135 . S
C466 N464 1.340 . S
C466 N465 1.321 . S
C466 H490 0.930 . S
H467 C462 0.931 . S
Co468 N465 2.135 . S
Co468 N471 2.121 1_554 S
Co468 O476 2.055 . S
Co468 O479 2.039 . S
Co468 N482 2.140 . S
C469 O470 1.227 . S
C469 O479 1.265 . S
O470 C469 1.227 . S
N471 Co468 2.121 1_556 S
N471 C473 1.375 . S
N471 C474 1.313 . S
C472 C473 1.338 . S
C472 N475 1.377 . S
C472 H492 0.930 . S
C473 N471 1.375 . S
C473 C472 1.338 . S
C473 H477 0.931 . S
C474 N471 1.313 . S
C474 N475 1.344 . S
C474 H478 0.930 . S
N475 C472 1.377 . S
N475 C474 1.344 . S
O476 Co468 2.055 . S
O476 C480 1.253 . S
H477 C473 0.931 . S
H478 C474 0.930 . S
O479 Co468 2.039 . S
O479 C469 1.265 . S
C480 O476 1.253 . S
C480 O481 1.227 . S
O481 C480 1.227 . S
N482 Co468 2.140 . S
N482 C485 1.346 . S
N482 C486 1.345 . S
C483 C484 1.387 . S
C483 C487 1.391 . S
C484 C483 1.387 . S
C484 C485 1.369 . S
C484 H493 0.929 . S
C485 N482 1.346 . S
C485 C484 1.369 . S
C485 H488 0.928 . S
C486 N482 1.345 . S
C486 C487 1.371 . S
C486 H489 0.931 . S
C487 C483 1.391 . S
C487 C486 1.371 . S
C487 H494 0.930 . S
H488 C485 0.928 . S
H489 C486 0.931 . S
H490 C466 0.930 . S
H491 C463 0.930 . S
H492 C472 0.930 . S
H493 C484 0.929 . S
H494 C487 0.930 . S
C495 C496 1.351 1_554 S
C495 N498 1.368 . S
C495 H500 0.931 . S
C496 C495 1.351 1_556 S
C496 N497 1.373 . S
C496 H524 0.930 . S
N497 C496 1.373 . S
N497 C499 1.340 1_556 S
N498 C495 1.368 . S
N498 C499 1.321 . S
N498 Co501 2.135 . S
C499 N497 1.340 1_554 S
C499 N498 1.321 . S
C499 H523 0.930 . S
H500 C495 0.931 . S
Co501 N498 2.135 . S
Co501 N504 2.121 . S
Co501 O509 2.055 . S
Co501 O512 2.039 . S
Co501 N515 2.140 . S
C502 O503 1.227 . S
C502 O512 1.265 . S
O503 C502 1.227 . S
N504 Co501 2.121 . S
N504 C506 1.375 . S
N504 C507 1.313 . S
C505 C506 1.338 . S
C505 N508 1.377 . S
C505 H525 0.930 . S
C506 N504 1.375 . S
C506 C505 1.338 . S
C506 H510 0.931 . S
C507 N504 1.313 . S
C507 N508 1.344 . S
C507 H511 0.930 . S
N508 C505 1.377 . S
N508 C507 1.344 . S
O509 Co501 2.055 . S
O509 C513 1.253 . S
H510 C506 0.931 . S
H511 C507 0.930 . S
O512 Co501 2.039 . S
O512 C502 1.265 . S
C513 O509 1.253 . S
C513 O514 1.227 . S
O514 C513 1.227 . S
N515 Co501 2.140 . S
N515 C518 1.346 . S
N515 C519 1.345 . S
C516 C517 1.387 . S
C516 C520 1.391 . S
C517 C516 1.387 . S
C517 C518 1.369 . S
C517 H526 0.929 . S
C518 N515 1.346 . S
C518 C517 1.369 . S
C518 H521 0.928 . S
C519 N515 1.345 . S
C519 C520 1.371 . S
C519 H522 0.931 . S
C520 C516 1.391 . S
C520 C519 1.371 . S
C520 H527 0.930 . S
H521 C518 0.928 . S
H522 C519 0.931 . S
H523 C499 0.930 . S
H524 C496 0.930 . S
H525 C505 0.930 . S
H526 C517 0.929 . S
H527 C520 0.930 . S
C528 C529 1.351 1_554 S
C528 N531 1.368 . S
C528 H533 0.931 . S
C529 C528 1.351 1_556 S
C529 N530 1.373 . S
C529 H557 0.930 . S
N530 C529 1.373 . S
N530 C532 1.340 1_556 S
N531 C528 1.368 . S
N531 C532 1.321 . S
N531 Co534 2.135 . S
C532 N530 1.340 1_554 S
C532 N531 1.321 . S
C532 H556 0.930 . S
H533 C528 0.931 . S
Co534 N531 2.135 . S
Co534 N537 2.121 . S
Co534 O542 2.055 . S
Co534 O545 2.039 . S
Co534 N548 2.140 . S
C535 O536 1.227 . S
C535 O545 1.265 . S
O536 C535 1.227 . S
N537 Co534 2.121 . S
N537 C539 1.375 . S
N537 C540 1.313 . S
C538 C539 1.338 . S
C538 N541 1.377 . S
C538 H558 0.930 . S
C539 N537 1.375 . S
C539 C538 1.338 . S
C539 H543 0.931 . S
C540 N537 1.313 . S
C540 N541 1.344 . S
C540 H544 0.930 . S
N541 C538 1.377 . S
N541 C540 1.344 . S
O542 Co534 2.055 . S
O542 C546 1.253 . S
H543 C539 0.931 . S
H544 C540 0.930 . S
O545 Co534 2.039 . S
O545 C535 1.265 . S
C546 O542 1.253 . S
C546 O547 1.227 . S
O547 C546 1.227 . S
N548 Co534 2.140 . S
N548 C551 1.346 . S
N548 C552 1.345 . S
C549 C550 1.387 . S
C549 C553 1.391 . S
C550 C549 1.387 . S
C550 C551 1.369 . S
C550 H559 0.929 . S
C551 N548 1.346 . S
C551 C550 1.369 . S
C551 H554 0.928 . S
C552 N548 1.345 . S
C552 C553 1.371 . S
C552 H555 0.931 . S
C553 C549 1.391 . S
C553 C552 1.371 . S
C553 H560 0.930 . S
H554 C551 0.928 . S
H555 C552 0.931 . S
H556 C532 0.930 . S
H557 C529 0.930 . S
H558 C538 0.930 . S
H559 C550 0.929 . S
H560 C553 0.930 . S
C561 C562 1.351 1_554 S
C561 N564 1.368 . S
C561 H566 0.931 . S
C562 C561 1.351 1_556 S
C562 N563 1.373 . S
C562 H590 0.930 . S
N563 C562 1.373 . S
N563 C565 1.340 1_556 S
N564 C561 1.368 . S
N564 C565 1.321 . S
N564 Co567 2.135 . S
C565 N563 1.340 1_554 S
C565 N564 1.321 . S
C565 H589 0.930 . S
H566 C561 0.931 . S
Co567 N564 2.135 . S
Co567 N570 2.121 . S
Co567 O575 2.055 . S
Co567 O578 2.039 . S
Co567 N581 2.140 . S
C568 O569 1.227 . S
C568 O578 1.265 . S
O569 C568 1.227 . S
N570 Co567 2.121 . S
N570 C572 1.375 . S
N570 C573 1.313 . S
C571 C572 1.338 . S
C571 N574 1.377 . S
C571 H591 0.930 . S
C572 N570 1.375 . S
C572 C571 1.338 . S
C572 H576 0.931 . S
C573 N570 1.313 . S
C573 N574 1.344 . S
C573 H577 0.930 . S
N574 C571 1.377 . S
N574 C573 1.344 . S
O575 Co567 2.055 . S
O575 C579 1.253 . S
H576 C572 0.931 . S
H577 C573 0.930 . S
O578 Co567 2.039 . S
O578 C568 1.265 . S
C579 O575 1.253 . S
C579 O580 1.227 . S
O580 C579 1.227 . S
N581 Co567 2.140 . S
N581 C584 1.346 . S
N581 C585 1.345 . S
C582 C583 1.387 . S
C582 C586 1.391 . S
C583 C582 1.387 . S
C583 C584 1.369 . S
C583 H592 0.929 . S
C584 N581 1.346 . S
C584 C583 1.369 . S
C584 H587 0.928 . S
C585 N581 1.345 . S
C585 C586 1.371 . S
C585 H588 0.931 . S
C586 C582 1.391 . S
C586 C585 1.371 . S
C586 H593 0.930 . S
H587 C584 0.928 . S
H588 C585 0.931 . S
H589 C565 0.930 . S
H590 C562 0.930 . S
H591 C571 0.930 . S
H592 C583 0.929 . S
H593 C586 0.930 . S
H594 C600 0.930 . S
H595 C603 0.930 . S
H596 C604 0.930 . S
H597 C605 0.930 . S
H598 C608 0.930 . S
H599 C609 0.930 . S
C600 H594 0.930 . S
C600 C601 1.355 . S
C600 C602 1.415 . S
C601 C600 1.355 . S
C601 C603 1.419 . S
C602 C600 1.415 . S
C602 C607 1.425 . S
C602 C609 1.409 . S
C603 H595 0.930 . S
C603 C601 1.419 . S
C603 C604 1.362 . S
C604 H596 0.930 . S
C604 C603 1.362 . S
C604 C607 1.409 . S
C605 H597 0.930 . S
C605 C606 1.355 . S
C605 C607 1.415 . S
C606 C605 1.355 . S
C606 C608 1.419 . S
C607 C602 1.425 . S
C607 C604 1.409 . S
C607 C605 1.415 . S
C608 H598 0.930 . S
C608 C606 1.419 . S
C608 C609 1.362 . S
C609 H599 0.930 . S
C609 C602 1.409 . S
C609 C608 1.362 . S
H610 C616 0.930 . S
H611 C619 0.930 . S
H612 C620 0.930 1_565 S
H613 C621 0.930 . S
H614 C624 0.930 . S
H615 C625 0.930 1_545 S
C616 H610 0.930 . S
C616 C617 1.355 . S
C616 C618 1.415 . S
C617 C616 1.355 . S
C617 C619 1.419 . S
C618 C616 1.415 . S
C618 C623 1.425 1_545 S
C618 C625 1.409 1_545 S
C619 H611 0.930 . S
C619 C617 1.419 . S
C619 C620 1.362 . S
C620 H612 0.930 1_545 S
C620 C619 1.362 . S
C620 C623 1.409 1_545 S
C621 H613 0.930 . S
C621 C622 1.355 . S
C621 C623 1.415 . S
C622 C621 1.355 . S
C622 C624 1.419 . S
C623 C618 1.425 1_565 S
C623 C620 1.409 1_565 S
C623 C621 1.415 . S
C624 H614 0.930 . S
C624 C622 1.419 . S
C624 C625 1.362 . S
C625 H615 0.930 1_565 S
C625 C618 1.409 1_565 S
C625 C624 1.362 . S
H626 C632 0.930 . S
H627 C635 0.930 . S
H628 C636 0.930 . S
H629 C637 0.930 . S
H630 C640 0.930 . S
H631 C641 0.930 . S
C632 H626 0.930 . S
C632 C633 1.355 . S
C632 C634 1.415 . S
C633 C632 1.355 . S
C633 C635 1.419 . S
C634 C632 1.415 . S
C634 C639 1.425 1_655 S
C634 C641 1.409 1_655 S
C635 H627 0.930 . S
C635 C633 1.419 . S
C635 C636 1.362 . S
C636 H628 0.930 . S
C636 C635 1.362 . S
C636 C639 1.409 1_655 S
C637 H629 0.930 . S
C637 C638 1.355 . S
C637 C639 1.415 . S
C638 C637 1.355 . S
C638 C640 1.419 . S
C639 C634 1.425 1_455 S
C639 C636 1.409 1_455 S
C639 C637 1.415 . S
C640 H630 0.930 . S
C640 C638 1.419 . S
C640 C641 1.362 . S
C641 H631 0.930 . S
C641 C634 1.409 1_455 S
C641 C640 1.362 . S
H642 C648 0.930 . S
H643 C651 0.930 . S
H644 C652 0.930 . S
H645 C653 0.930 . S
H646 C656 0.930 . S
H647 C657 0.930 . S
C648 H642 0.930 . S
C648 C649 1.355 . S
C648 C650 1.415 . S
C649 C648 1.355 . S
C649 C651 1.419 . S
C650 C648 1.415 . S
C650 C655 1.425 . S
C650 C657 1.409 . S
C651 H643 0.930 . S
C651 C649 1.419 . S
C651 C652 1.362 . S
C652 H644 0.930 . S
C652 C651 1.362 . S
C652 C655 1.409 . S
C653 H645 0.930 . S
C653 C654 1.355 . S
C653 C655 1.415 . S
C654 C653 1.355 . S
C654 C656 1.419 . S
C655 C650 1.425 . S
C655 C652 1.409 . S
C655 C653 1.415 . S
C656 H646 0.930 . S
C656 C654 1.419 . S
C656 C657 1.362 . S
C657 H647 0.930 . S
C657 C650 1.409 . S
C657 C656 1.362 . S
H658 C664 0.930 . S
H659 C667 0.930 . S
H660 C668 0.930 . S
H661 C669 0.930 . S
H662 C672 0.930 . S
H663 C673 0.930 . S
C664 H658 0.930 . S
C664 C665 1.355 . S
C664 C666 1.415 . S
C665 C664 1.355 . S
C665 C667 1.419 . S
C666 C664 1.415 . S
C666 C671 1.425 1_545 S
C666 C673 1.409 1_545 S
C667 H659 0.930 . S
C667 C665 1.419 . S
C667 C668 1.362 . S
C668 H660 0.930 . S
C668 C667 1.362 . S
C668 C671 1.409 1_545 S
C669 H661 0.930 . S
C669 C670 1.355 . S
C669 C671 1.415 . S
C670 C669 1.355 . S
C670 C672 1.419 . S
C671 C666 1.425 1_565 S
C671 C668 1.409 1_565 S
C671 C669 1.415 . S
C672 H662 0.930 . S
C672 C670 1.419 . S
C672 C673 1.362 . S
C673 H663 0.930 . S
C673 C666 1.409 1_565 S
C673 C672 1.362 . S
H674 C680 0.930 . S
H675 C683 0.930 . S
H676 C684 0.930 . S
H677 C685 0.930 . S
H678 C688 0.930 . S
H679 C689 0.930 . S
C680 H674 0.930 . S
C680 C681 1.355 . S
C680 C682 1.415 . S
C681 C680 1.355 . S
C681 C683 1.419 . S
C682 C680 1.415 . S
C682 C687 1.425 1_655 S
C682 C689 1.409 1_655 S
C683 H675 0.930 . S
C683 C681 1.419 . S
C683 C684 1.362 . S
C684 H676 0.930 . S
C684 C683 1.362 . S
C684 C687 1.409 1_655 S
C685 H677 0.930 . S
C685 C686 1.355 . S
C685 C687 1.415 . S
C686 C685 1.355 . S
C686 C688 1.419 . S
C687 C682 1.425 1_455 S
C687 C684 1.409 1_455 S
C687 C685 1.415 . S
C688 H678 0.930 . S
C688 C686 1.419 . S
C688 C689 1.362 . S
C689 H679 0.930 . S
C689 C682 1.409 1_455 S
C689 C688 1.362 . S
H690 C696 0.930 . S
H691 C699 0.930 . S
H692 C700 0.930 . S
H693 C701 0.930 . S
H694 C704 0.930 . S
H695 C705 0.930 . S
C696 H690 0.930 . S
C696 C697 1.355 . S
C696 C698 1.415 . S
C697 C696 1.355 . S
C697 C699 1.419 . S
C698 C696 1.415 . S
C698 C703 1.425 . S
C698 C705 1.409 . S
C699 H691 0.930 . S
C699 C697 1.419 . S
C699 C700 1.362 . S
C700 H692 0.930 . S
C700 C699 1.362 . S
C700 C703 1.409 . S
C701 H693 0.930 . S
C701 C702 1.355 . S
C701 C703 1.415 . S
C702 C701 1.355 . S
C702 C704 1.419 . S
C703 C698 1.425 . S
C703 C700 1.409 . S
C703 C701 1.415 . S
C704 H694 0.930 . S
C704 C702 1.419 . S
C704 C705 1.362 . S
C705 H695 0.930 . S
C705 C698 1.409 . S
C705 C704 1.362 . S
H706 C712 0.930 . S
H707 C715 0.930 . S
H708 C716 0.930 . S
H709 C717 0.930 . S
H710 C720 0.930 . S
H711 C721 0.930 . S
C712 H706 0.930 . S
C712 C713 1.355 . S
C712 C714 1.415 . S
C713 C712 1.355 . S
C713 C715 1.419 . S
C714 C712 1.415 . S
C714 C719 1.425 . S
C714 C721 1.409 . S
C715 H707 0.930 . S
C715 C713 1.419 . S
C715 C716 1.362 . S
C716 H708 0.930 . S
C716 C715 1.362 . S
C716 C719 1.409 . S
C717 H709 0.930 . S
C717 C718 1.355 . S
C717 C719 1.415 . S
C718 C717 1.355 . S
C718 C720 1.419 . S
C719 C714 1.425 . S
C719 C716 1.409 . S
C719 C717 1.415 . S
C720 H710 0.930 . S
C720 C718 1.419 . S
C720 C721 1.362 . S
C721 H711 0.930 . S
C721 C714 1.409 . S
C721 C720 1.362 . S
H722 C728 0.930 . S
H723 C731 0.930 . S
H724 C732 0.930 . S
H725 C733 0.930 . S
H726 C736 0.930 . S
H727 C737 0.930 . S
C728 H722 0.930 . S
C728 C729 1.355 . S
C728 C730 1.415 . S
C729 C728 1.355 . S
C729 C731 1.419 . S
C730 C728 1.415 . S
C730 C735 1.425 . S
C730 C737 1.409 . S
C731 H723 0.930 . S
C731 C729 1.419 . S
C731 C732 1.362 . S
C732 H724 0.930 . S
C732 C731 1.362 . S
C732 C735 1.409 . S
C733 H725 0.930 . S
C733 C734 1.355 . S
C733 C735 1.415 . S
C734 C733 1.355 . S
C734 C736 1.419 . S
C735 C730 1.425 . S
C735 C732 1.409 . S
C735 C733 1.415 . S
C736 H726 0.930 . S
C736 C734 1.419 . S
C736 C737 1.362 . S
C737 H727 0.930 . S
C737 C730 1.409 . S
C737 C736 1.362 . S
H738 C744 0.930 . S
H739 C747 0.930 . S
H740 C748 0.930 . S
H741 C749 0.930 . S
H742 C752 0.930 . S
H743 C753 0.930 . S
C744 H738 0.930 . S
C744 C745 1.355 . S
C744 C746 1.415 . S
C745 C744 1.355 . S
C745 C747 1.419 . S
C746 C744 1.415 . S
C746 C751 1.425 . S
C746 C753 1.409 . S
C747 H739 0.930 . S
C747 C745 1.419 . S
C747 C748 1.362 . S
C748 H740 0.930 . S
C748 C747 1.362 . S
C748 C751 1.409 . S
C749 H741 0.930 . S
C749 C750 1.355 . S
C749 C751 1.415 . S
C750 C749 1.355 . S
C750 C752 1.419 . S
C751 C746 1.425 . S
C751 C748 1.409 . S
C751 C749 1.415 . S
C752 H742 0.930 . S
C752 C750 1.419 . S
C752 C753 1.362 . S
C753 H743 0.930 . S
C753 C746 1.409 . S
C753 C752 1.362 . S
H754 C760 0.930 . S
H755 C763 0.930 . S
H756 C764 0.930 . S
H757 C765 0.930 . S
H758 C768 0.930 . S
H759 C769 0.930 . S
C760 H754 0.930 . S
C760 C761 1.355 . S
C760 C762 1.415 . S
C761 C760 1.355 . S
C761 C763 1.419 . S
C762 C760 1.415 . S
C762 C767 1.425 . S
C762 C769 1.409 . S
C763 H755 0.930 . S
C763 C761 1.419 . S
C763 C764 1.362 . S
C764 H756 0.930 . S
C764 C763 1.362 . S
C764 C767 1.409 . S
C765 H757 0.930 . S
C765 C766 1.355 . S
C765 C767 1.415 . S
C766 C765 1.355 . S
C766 C768 1.419 . S
C767 C762 1.425 . S
C767 C764 1.409 . S
C767 C765 1.415 . S
C768 H758 0.930 . S
C768 C766 1.419 . S
C768 C769 1.362 . S
C769 H759 0.930 . S
C769 C762 1.409 . S
C769 C768 1.362 . S
H770 C776 0.930 . S
H771 C779 0.930 . S
H772 C780 0.930 . S
H773 C781 0.930 . S
H774 C784 0.930 . S
H775 C785 0.930 . S
C776 H770 0.930 . S
C776 C777 1.355 . S
C776 C778 1.415 . S
C777 C776 1.355 . S
C777 C779 1.419 . S
C778 C776 1.415 . S
C778 C783 1.425 . S
C778 C785 1.409 . S
C779 H771 0.930 . S
C779 C777 1.419 . S
C779 C780 1.362 . S
C780 H772 0.930 . S
C780 C779 1.362 . S
C780 C783 1.409 . S
C781 H773 0.930 . S
C781 C782 1.355 . S
C781 C783 1.415 . S
C782 C781 1.355 . S
C782 C784 1.419 . S
C783 C778 1.425 . S
C783 C780 1.409 . S
C783 C781 1.415 . S
C784 H774 0.930 . S
C784 C782 1.419 . S
C784 C785 1.362 . S
C785 H775 0.930 . S
C785 C778 1.409 . S
C785 C784 1.362 . S
H786 C792 0.930 . S
H787 C795 0.930 . S
H788 C796 0.930 . S
H789 C797 0.930 . S
H790 C800 0.930 . S
H791 C801 0.930 . S
C792 H786 0.930 . S
C792 C793 1.355 . S
C792 C794 1.415 . S
C793 C792 1.355 . S
C793 C795 1.419 . S
C794 C792 1.415 . S
C794 C799 1.425 . S
C794 C801 1.409 . S
C795 H787 0.930 . S
C795 C793 1.419 . S
C795 C796 1.362 . S
C796 H788 0.930 . S
C796 C795 1.362 . S
C796 C799 1.409 . S
C797 H789 0.930 . S
C797 C798 1.355 . S
C797 C799 1.415 . S
C798 C797 1.355 . S
C798 C800 1.419 . S
C799 C794 1.425 . S
C799 C796 1.409 . S
C799 C797 1.415 . S
C800 H790 0.930 . S
C800 C798 1.419 . S
C800 C801 1.362 . S
C801 H791 0.930 . S
C801 C794 1.409 . S
C801 C800 1.362 . S
H802 C808 0.930 . S
H803 C811 0.930 . S
H804 C812 0.930 . S
H805 C813 0.930 . S
H806 C816 0.930 . S
H807 C817 0.930 . S
C808 H802 0.930 . S
C808 C809 1.355 . S
C808 C810 1.415 . S
C809 C808 1.355 . S
C809 C811 1.419 . S
C810 C808 1.415 . S
C810 C815 1.425 . S
C810 C817 1.409 . S
C811 H803 0.930 . S
C811 C809 1.419 . S
C811 C812 1.362 . S
C812 H804 0.930 . S
C812 C811 1.362 . S
C812 C815 1.409 . S
C813 H805 0.930 . S
C813 C814 1.355 . S
C813 C815 1.415 . S
C814 C813 1.355 . S
C814 C816 1.419 . S
C815 C810 1.425 . S
C815 C812 1.409 . S
C815 C813 1.415 . S
C816 H806 0.930 . S
C816 C814 1.419 . S
C816 C817 1.362 . S
C817 H807 0.930 . S
C817 C810 1.409 . S
C817 C816 1.362 . S
H818 C824 0.930 . S
H819 C827 0.930 . S
H820 C828 0.930 . S
H821 C829 0.930 . S
H822 C832 0.930 . S
H823 C833 0.930 . S
C824 H818 0.930 . S
C824 C825 1.355 . S
C824 C826 1.415 . S
C825 C824 1.355 . S
C825 C827 1.419 . S
C826 C824 1.415 . S
C826 C831 1.425 . S
C826 C833 1.409 . S
C827 H819 0.930 . S
C827 C825 1.419 . S
C827 C828 1.362 . S
C828 H820 0.930 . S
C828 C827 1.362 . S
C828 C831 1.409 . S
C829 H821 0.930 . S
C829 C830 1.355 . S
C829 C831 1.415 . S
C830 C829 1.355 . S
C830 C832 1.419 . S
C831 C826 1.425 . S
C831 C828 1.409 . S
C831 C829 1.415 . S
C832 H822 0.930 . S
C832 C830 1.419 . S
C832 C833 1.362 . S
C833 H823 0.930 . S
C833 C826 1.409 . S
C833 C832 1.362 . S
H834 C840 0.930 . S
H835 C843 0.930 . S
H836 C844 0.930 . S
H837 C845 0.930 . S
H838 C848 0.930 . S
H839 C849 0.930 . S
C840 H834 0.930 . S
C840 C841 1.355 . S
C840 C842 1.415 . S
C841 C840 1.355 . S
C841 C843 1.419 . S
C842 C840 1.415 . S
C842 C847 1.425 . S
C842 C849 1.409 . S
C843 H835 0.930 . S
C843 C841 1.419 . S
C843 C844 1.362 . S
C844 H836 0.930 . S
C844 C843 1.362 . S
C844 C847 1.409 . S
C845 H837 0.930 . S
C845 C846 1.355 . S
C845 C847 1.415 . S
C846 C845 1.355 . S
C846 C848 1.419 . S
C847 C842 1.425 . S
C847 C844 1.409 . S
C847 C845 1.415 . S
C848 H838 0.930 . S
C848 C846 1.419 . S
C848 C849 1.362 . S
C849 H839 0.930 . S
C849 C842 1.409 . S
C849 C848 1.362 . S
H850 C856 0.930 . S
H851 C859 0.930 . S
H852 C860 0.930 . S
H853 C861 0.930 . S
H854 C864 0.930 . S
H855 C865 0.930 . S
C856 H850 0.930 . S
C856 C857 1.355 . S
C856 C858 1.415 . S
C857 C856 1.355 . S
C857 C859 1.419 . S
C858 C856 1.415 . S
C858 C863 1.425 . S
C858 C865 1.409 . S
C859 H851 0.930 . S
C859 C857 1.419 . S
C859 C860 1.362 . S
C860 H852 0.930 . S
C860 C859 1.362 . S
C860 C863 1.409 . S
C861 H853 0.930 . S
C861 C862 1.355 . S
C861 C863 1.415 . S
C862 C861 1.355 . S
C862 C864 1.419 . S
C863 C858 1.425 . S
C863 C860 1.409 . S
C863 C861 1.415 . S
C864 H854 0.930 . S
C864 C862 1.419 . S
C864 C865 1.362 . S
C865 H855 0.930 . S
C865 C858 1.409 . S
C865 C864 1.362 . S
H866 C872 0.930 . S
H867 C875 0.930 . S
H868 C876 0.930 . S
H869 C877 0.930 . S
H870 C880 0.930 . S
H871 C881 0.930 . S
C872 H866 0.930 . S
C872 C873 1.355 . S
C872 C874 1.415 . S
C873 C872 1.355 . S
C873 C875 1.419 . S
C874 C872 1.415 . S
C874 C879 1.425 . S
C874 C881 1.409 . S
C875 H867 0.930 . S
C875 C873 1.419 . S
C875 C876 1.362 . S
C876 H868 0.930 . S
C876 C875 1.362 . S
C876 C879 1.409 . S
C877 H869 0.930 . S
C877 C878 1.355 . S
C877 C879 1.415 . S
C878 C877 1.355 . S
C878 C880 1.419 . S
C879 C874 1.425 . S
C879 C876 1.409 . S
C879 C877 1.415 . S
C880 H870 0.930 . S
C880 C878 1.419 . S
C880 C881 1.362 . S
C881 H871 0.930 . S
C881 C874 1.409 . S
C881 C880 1.362 . S
H882 C888 0.930 . S
H883 C891 0.930 . S
H884 C892 0.930 . S
H885 C893 0.930 . S
H886 C896 0.930 . S
H887 C897 0.930 . S
C888 H882 0.930 . S
C888 C889 1.355 . S
C888 C890 1.415 . S
C889 C888 1.355 . S
C889 C891 1.419 . S
C890 C888 1.415 . S
C890 C895 1.425 . S
C890 C897 1.409 . S
C891 H883 0.930 . S
C891 C889 1.419 . S
C891 C892 1.362 . S
C892 H884 0.930 . S
C892 C891 1.362 . S
C892 C895 1.409 . S
C893 H885 0.930 . S
C893 C894 1.355 . S
C893 C895 1.415 . S
C894 C893 1.355 . S
C894 C896 1.419 . S
C895 C890 1.425 . S
C895 C892 1.409 . S
C895 C893 1.415 . S
C896 H886 0.930 . S
C896 C894 1.419 . S
C896 C897 1.362 . S
C897 H887 0.930 . S
C897 C890 1.409 . S
C897 C896 1.362 . S
H898 C904 0.930 . S
H899 C907 0.930 . S
H900 C908 0.930 . S
H901 C909 0.930 . S
H902 C912 0.930 . S
H903 C913 0.930 . S
C904 H898 0.930 . S
C904 C905 1.355 . S
C904 C906 1.415 . S
C905 C904 1.355 . S
C905 C907 1.419 . S
C906 C904 1.415 . S
C906 C911 1.425 . S
C906 C913 1.409 . S
C907 H899 0.930 . S
C907 C905 1.419 . S
C907 C908 1.362 . S
C908 H900 0.930 . S
C908 C907 1.362 . S
C908 C911 1.409 . S
C909 H901 0.930 . S
C909 C910 1.355 . S
C909 C911 1.415 . S
C910 C909 1.355 . S
C910 C912 1.419 . S
C911 C906 1.425 . S
C911 C908 1.409 . S
C911 C909 1.415 . S
C912 H902 0.930 . S
C912 C910 1.419 . S
C912 C913 1.362 . S
C913 H903 0.930 . S
C913 C906 1.409 . S
C913 C912 1.362 . S
H914 C920 0.930 . S
H915 C923 0.930 . S
H916 C924 0.930 . S
H917 C925 0.930 . S
H918 C928 0.930 . S
H919 C929 0.930 . S
C920 H914 0.930 . S
C920 C921 1.355 . S
C920 C922 1.415 . S
C921 C920 1.355 . S
C921 C923 1.419 . S
C922 C920 1.415 . S
C922 C927 1.425 . S
C922 C929 1.409 . S
C923 H915 0.930 . S
C923 C921 1.419 . S
C923 C924 1.362 . S
C924 H916 0.930 . S
C924 C923 1.362 . S
C924 C927 1.409 . S
C925 H917 0.930 . S
C925 C926 1.355 . S
C925 C927 1.415 . S
C926 C925 1.355 . S
C926 C928 1.419 . S
C927 C922 1.425 . S
C927 C924 1.409 . S
C927 C925 1.415 . S
C928 H918 0.930 . S
C928 C926 1.419 . S
C928 C929 1.362 . S
C929 H919 0.930 . S
C929 C922 1.409 . S
C929 C928 1.362 . S
H930 C936 0.930 . S
H931 C939 0.930 . S
H932 C940 0.930 . S
H933 C941 0.930 . S
H934 C944 0.930 . S
H935 C945 0.930 . S
C936 H930 0.930 . S
C936 C937 1.355 . S
C936 C938 1.415 . S
C937 C936 1.355 . S
C937 C939 1.419 . S
C938 C936 1.415 . S
C938 C943 1.425 . S
C938 C945 1.409 . S
C939 H931 0.930 . S
C939 C937 1.419 . S
C939 C940 1.362 . S
C940 H932 0.930 . S
C940 C939 1.362 . S
C940 C943 1.409 . S
C941 H933 0.930 . S
C941 C942 1.355 . S
C941 C943 1.415 . S
C942 C941 1.355 . S
C942 C944 1.419 . S
C943 C938 1.425 . S
C943 C940 1.409 . S
C943 C941 1.415 . S
C944 H934 0.930 . S
C944 C942 1.419 . S
C944 C945 1.362 . S
C945 H935 0.930 . S
C945 C938 1.409 . S
C945 C944 1.362 . S
H946 C952 0.930 . S
H947 C955 0.930 . S
H948 C956 0.930 . S
H949 C957 0.930 . S
H950 C960 0.930 . S
H951 C961 0.930 . S
C952 H946 0.930 . S
C952 C953 1.355 . S
C952 C954 1.415 . S
C953 C952 1.355 . S
C953 C955 1.419 . S
C954 C952 1.415 . S
C954 C959 1.425 . S
C954 C961 1.409 . S
C955 H947 0.930 . S
C955 C953 1.419 . S
C955 C956 1.362 . S
C956 H948 0.930 . S
C956 C955 1.362 . S
C956 C959 1.409 . S
C957 H949 0.930 . S
C957 C958 1.355 . S
C957 C959 1.415 . S
C958 C957 1.355 . S
C958 C960 1.419 . S
C959 C954 1.425 . S
C959 C956 1.409 . S
C959 C957 1.415 . S
C960 H950 0.930 . S
C960 C958 1.419 . S
C960 C961 1.362 . S
C961 H951 0.930 . S
C961 C954 1.409 . S
C961 C960 1.362 . S
H962 C968 0.930 . S
H963 C971 0.930 . S
H964 C972 0.930 . S
H965 C973 0.930 . S
H966 C976 0.930 . S
H967 C977 0.930 . S
C968 H962 0.930 . S
C968 C969 1.355 . S
C968 C970 1.415 . S
C969 C968 1.355 . S
C969 C971 1.419 . S
C970 C968 1.415 . S
C970 C975 1.425 . S
C970 C977 1.409 . S
C971 H963 0.930 . S
C971 C969 1.419 . S
C971 C972 1.362 . S
C972 H964 0.930 . S
C972 C971 1.362 . S
C972 C975 1.409 . S
C973 H965 0.930 . S
C973 C974 1.355 . S
C973 C975 1.415 . S
C974 C973 1.355 . S
C974 C976 1.419 . S
C975 C970 1.425 . S
C975 C972 1.409 . S
C975 C973 1.415 . S
C976 H966 0.930 . S
C976 C974 1.419 . S
C976 C977 1.362 . S
C977 H967 0.930 . S
C977 C970 1.409 . S
C977 C976 1.362 . S
H978 C984 0.930 . S
H979 C987 0.930 . S
H980 C988 0.930 . S
H981 C989 0.930 . S
H982 C992 0.930 . S
H983 C993 0.930 . S
C984 H978 0.930 . S
C984 C985 1.355 . S
C984 C986 1.415 . S
C985 C984 1.355 . S
C985 C987 1.419 . S
C986 C984 1.415 . S
C986 C991 1.425 1_454 S
C986 C993 1.408 1_454 S
C987 H979 0.930 . S
C987 C985 1.419 . S
C987 C988 1.362 . S
C988 H980 0.930 . S
C988 C987 1.362 . S
C988 C991 1.408 1_454 S
C989 H981 0.930 . S
C989 C990 1.355 . S
C989 C991 1.416 . S
C990 C989 1.355 . S
C990 C992 1.419 . S
C991 C986 1.425 1_656 S
C991 C988 1.408 1_656 S
C991 C989 1.416 . S
C992 H982 0.930 . S
C992 C990 1.419 . S
C992 C993 1.362 . S
C993 H983 0.930 . S
C993 C986 1.408 1_656 S
C993 C992 1.362 . S
H994 C1000 0.930 . S
H995 C1003 0.930 . S
H996 C1004 0.930 . S
H997 C1005 0.930 . S
H998 C1008 0.930 . S
H999 C1009 0.930 . S
C1000 H994 0.930 . S
C1000 C1001 1.355 1_556 S
C1000 C1002 1.415 . S
C1001 C1000 1.355 1_554 S
C1001 C1003 1.419 . S
C1002 C1000 1.415 . S
C1002 C1007 1.425 1_556 S
C1002 C1009 1.409 . S
C1003 H995 0.930 . S
C1003 C1001 1.419 . S
C1003 C1004 1.362 . S
C1004 H996 0.930 . S
C1004 C1003 1.362 . S
C1004 C1007 1.409 . S
C1005 H997 0.930 . S
C1005 C1006 1.355 1_554 S
C1005 C1007 1.415 . S
C1006 C1005 1.355 1_556 S
C1006 C1008 1.419 . S
C1007 C1002 1.425 1_554 S
C1007 C1004 1.409 . S
C1007 C1005 1.415 . S
C1008 H998 0.930 . S
C1008 C1006 1.419 . S
C1008 C1009 1.362 . S
C1009 H999 0.930 . S
C1009 C1002 1.409 . S
C1009 C1008 1.362 . S
H1010 C1016 0.930 . S
H1011 C1019 0.930 . S
H1012 C1020 0.930 . S
H1013 C1021 0.930 . S
H1014 C1024 0.930 . S
H1015 C1025 0.930 . S
C1016 H1010 0.930 . S
C1016 C1017 1.355 . S
C1016 C1018 1.415 . S
C1017 C1016 1.355 . S
C1017 C1019 1.419 1_556 S
C1018 C1016 1.415 . S
C1018 C1023 1.425 1_546 S
C1018 C1025 1.409 1_545 S
C1019 H1011 0.930 . S
C1019 C1017 1.419 1_554 S
C1019 C1020 1.362 . S
C1020 H1012 0.930 . S
C1020 C1019 1.362 . S
C1020 C1023 1.409 1_545 S
C1021 H1013 0.930 . S
C1021 C1022 1.355 . S
C1021 C1023 1.415 . S
C1022 C1021 1.355 . S
C1022 C1024 1.419 1_554 S
C1023 C1018 1.425 1_564 S
C1023 C1020 1.409 1_565 S
C1023 C1021 1.415 . S
C1024 H1014 0.930 . S
C1024 C1022 1.419 1_556 S
C1024 C1025 1.362 . S
C1025 H1015 0.930 . S
C1025 C1018 1.409 1_565 S
C1025 C1024 1.362 . S
H1026 C1032 0.930 . S
H1027 C1035 0.930 . S
H1028 C1036 0.930 . S
H1029 C1037 0.930 . S
H1030 C1040 0.930 . S
H1031 C1041 0.930 . S
C1032 H1026 0.930 . S
C1032 C1033 1.355 . S
C1032 C1034 1.415 . S
C1033 C1032 1.355 . S
C1033 C1035 1.419 . S
C1034 C1032 1.415 . S
C1034 C1039 1.425 . S
C1034 C1041 1.409 . S
C1035 H1027 0.930 . S
C1035 C1033 1.419 . S
C1035 C1036 1.362 . S
C1036 H1028 0.930 . S
C1036 C1035 1.362 . S
C1036 C1039 1.409 . S
C1037 H1029 0.930 . S
C1037 C1038 1.355 . S
C1037 C1039 1.415 1_554 S
C1038 C1037 1.355 . S
C1038 C1040 1.419 . S
C1039 C1034 1.425 . S
C1039 C1036 1.409 . S
C1039 C1037 1.415 1_556 S
C1040 H1030 0.930 . S
C1040 C1038 1.419 . S
C1040 C1041 1.362 1_554 S
C1041 H1031 0.930 . S
C1041 C1034 1.409 . S
C1041 C1040 1.362 1_556 S
H1042 C1048 0.930 . S
H1043 C1051 0.930 . S
H1044 C1052 0.930 . S
H1045 C1053 0.930 . S
H1046 C1056 0.930 . S
H1047 C1057 0.930 . S
C1048 H1042 0.930 . S
C1048 C1049 1.355 . S
C1048 C1050 1.415 . S
C1049 C1048 1.355 . S
C1049 C1051 1.419 . S
C1050 C1048 1.415 . S
C1050 C1055 1.425 . S
C1050 C1057 1.409 . S
C1051 H1043 0.930 . S
C1051 C1049 1.419 . S
C1051 C1052 1.362 . S
C1052 H1044 0.930 . S
C1052 C1051 1.362 . S
C1052 C1055 1.409 . S
C1053 H1045 0.930 . S
C1053 C1054 1.355 . S
C1053 C1055 1.415 1_554 S
C1054 C1053 1.355 . S
C1054 C1056 1.419 . S
C1055 C1050 1.425 . S
C1055 C1052 1.409 . S
C1055 C1053 1.415 1_556 S
C1056 H1046 0.930 . S
C1056 C1054 1.419 . S
C1056 C1057 1.362 1_554 S
C1057 H1047 0.930 . S
C1057 C1050 1.409 . S
C1057 C1056 1.362 1_556 S
H1058 C1064 0.930 . S
H1059 C1067 0.930 . S
H1060 C1068 0.930 . S
H1061 C1069 0.930 . S
H1062 C1072 0.930 . S
H1063 C1073 0.930 . S
C1064 H1058 0.930 . S
C1064 C1065 1.355 . S
C1064 C1066 1.415 . S
C1065 C1064 1.355 . S
C1065 C1067 1.419 . S
C1066 C1064 1.415 . S
C1066 C1071 1.425 . S
C1066 C1073 1.409 . S
C1067 H1059 0.930 . S
C1067 C1065 1.419 . S
C1067 C1068 1.362 . S
C1068 H1060 0.930 . S
C1068 C1067 1.362 . S
C1068 C1071 1.409 . S
C1069 H1061 0.930 . S
C1069 C1070 1.355 . S
C1069 C1071 1.415 1_554 S
C1070 C1069 1.355 . S
C1070 C1072 1.419 . S
C1071 C1066 1.425 . S
C1071 C1068 1.409 . S
C1071 C1069 1.415 1_556 S
C1072 H1062 0.930 . S
C1072 C1070 1.419 . S
C1072 C1073 1.362 1_554 S
C1073 H1063 0.930 . S
C1073 C1066 1.409 . S
C1073 C1072 1.362 1_556 S
H1074 C1080 0.930 . S
H1075 C1083 0.930 . S
H1076 C1084 0.930 . S
H1077 C1085 0.930 . S
H1078 C1088 0.930 . S
H1079 C1089 0.930 . S
C1080 H1074 0.930 . S
C1080 C1081 1.355 . S
C1080 C1082 1.415 1_556 S
C1081 C1080 1.355 . S
C1081 C1083 1.419 . S
C1082 C1080 1.415 1_554 S
C1082 C1087 1.425 . S
C1082 C1089 1.409 . S
C1083 H1075 0.930 . S
C1083 C1081 1.419 . S
C1083 C1084 1.362 1_556 S
C1084 H1076 0.930 . S
C1084 C1083 1.362 1_554 S
C1084 C1087 1.409 . S
C1085 H1077 0.930 . S
C1085 C1086 1.355 . S
C1085 C1087 1.415 . S
C1086 C1085 1.355 . S
C1086 C1088 1.419 . S
C1087 C1082 1.425 . S
C1087 C1084 1.409 . S
C1087 C1085 1.415 . S
C1088 H1078 0.930 . S
C1088 C1086 1.419 . S
C1088 C1089 1.362 . S
C1089 H1079 0.930 . S
C1089 C1082 1.409 . S
C1089 C1088 1.362 . S
H1090 C1096 0.930 . S
H1091 C1099 0.930 . S
H1092 C1100 0.930 . S
H1093 C1101 0.930 . S
H1094 C1104 0.930 . S
H1095 C1105 0.930 . S
C1096 H1090 0.930 . S
C1096 C1097 1.355 . S
C1096 C1098 1.415 1_556 S
C1097 C1096 1.355 . S
C1097 C1099 1.419 . S
C1098 C1096 1.415 1_554 S
C1098 C1103 1.425 . S
C1098 C1105 1.409 . S
C1099 H1091 0.930 . S
C1099 C1097 1.419 . S
C1099 C1100 1.362 1_556 S
C1100 H1092 0.930 . S
C1100 C1099 1.362 1_554 S
C1100 C1103 1.409 . S
C1101 H1093 0.930 . S
C1101 C1102 1.355 . S
C1101 C1103 1.415 . S
C1102 C1101 1.355 . S
C1102 C1104 1.419 . S
C1103 C1098 1.425 . S
C1103 C1100 1.409 . S
C1103 C1101 1.415 . S
C1104 H1094 0.930 . S
C1104 C1102 1.419 . S
C1104 C1105 1.362 . S
C1105 H1095 0.930 . S
C1105 C1098 1.409 . S
C1105 C1104 1.362 . S
H1106 C1112 0.930 . S
H1107 C1115 0.930 . S
H1108 C1116 0.930 . S
H1109 C1117 0.930 . S
H1110 C1120 0.930 . S
H1111 C1121 0.930 . S
C1112 H1106 0.930 . S
C1112 C1113 1.355 . S
C1112 C1114 1.415 . S
C1113 C1112 1.355 . S
C1113 C1115 1.419 . S
C1114 C1112 1.415 . S
C1114 C1119 1.425 . S
C1114 C1121 1.409 . S
C1115 H1107 0.930 . S
C1115 C1113 1.419 . S
C1115 C1116 1.362 . S
C1116 H1108 0.930 . S
C1116 C1115 1.362 . S
C1116 C1119 1.409 . S
C1117 H1109 0.930 . S
C1117 C1118 1.355 . S
C1117 C1119 1.415 1_556 S
C1118 C1117 1.355 . S
C1118 C1120 1.419 . S
C1119 C1114 1.425 . S
C1119 C1116 1.409 . S
C1119 C1117 1.415 1_554 S
C1120 H1110 0.930 . S
C1120 C1118 1.419 . S
C1120 C1121 1.362 1_556 S
C1121 H1111 0.930 . S
C1121 C1114 1.409 . S
C1121 C1120 1.362 1_554 S
H1122 C1128 0.930 . S
H1123 C1131 0.930 . S
H1124 C1132 0.930 . S
H1125 C1133 0.930 . S
H1126 C1136 0.930 . S
H1127 C1137 0.930 . S
C1128 H1122 0.930 . S
C1128 C1129 1.355 . S
C1128 C1130 1.415 . S
C1129 C1128 1.355 . S
C1129 C1131 1.419 . S
C1130 C1128 1.415 . S
C1130 C1135 1.425 . S
C1130 C1137 1.409 . S
C1131 H1123 0.930 . S
C1131 C1129 1.419 . S
C1131 C1132 1.362 . S
C1132 H1124 0.930 . S
C1132 C1131 1.362 . S
C1132 C1135 1.409 . S
C1133 H1125 0.930 . S
C1133 C1134 1.355 . S
C1133 C1135 1.415 . S
C1134 C1133 1.355 . S
C1134 C1136 1.419 . S
C1135 C1130 1.425 . S
C1135 C1132 1.409 . S
C1135 C1133 1.415 . S
C1136 H1126 0.930 . S
C1136 C1134 1.419 . S
C1136 C1137 1.362 . S
C1137 H1127 0.930 . S
C1137 C1130 1.409 . S
C1137 C1136 1.362 . S
H1138 C1144 0.930 . S
H1139 C1147 0.930 . S
H1140 C1148 0.930 . S
H1141 C1149 0.930 . S
H1142 C1152 0.930 . S
H1143 C1153 0.930 . S
C1144 H1138 0.930 . S
C1144 C1145 1.355 . S
C1144 C1146 1.415 . S
C1145 C1144 1.355 . S
C1145 C1147 1.419 . S
C1146 C1144 1.415 . S
C1146 C1151 1.425 . S
C1146 C1153 1.409 . S
C1147 H1139 0.930 . S
C1147 C1145 1.419 . S
C1147 C1148 1.362 . S
C1148 H1140 0.930 . S
C1148 C1147 1.362 . S
C1148 C1151 1.409 . S
C1149 H1141 0.930 . S
C1149 C1150 1.355 . S
C1149 C1151 1.415 . S
C1150 C1149 1.355 . S
C1150 C1152 1.419 . S
C1151 C1146 1.425 . S
C1151 C1148 1.409 . S
C1151 C1149 1.415 . S
C1152 H1142 0.930 . S
C1152 C1150 1.419 . S
C1152 C1153 1.362 . S
C1153 H1143 0.930 . S
C1153 C1146 1.409 . S
C1153 C1152 1.362 . S
H1154 C1160 0.930 . S
H1155 C1163 0.930 . S
H1156 C1164 0.930 . S
H1157 C1165 0.930 . S
H1158 C1168 0.930 . S
H1159 C1169 0.930 . S
C1160 H1154 0.930 . S
C1160 C1161 1.355 . S
C1160 C1162 1.415 . S
C1161 C1160 1.355 . S
C1161 C1163 1.419 . S
C1162 C1160 1.415 . S
C1162 C1167 1.425 . S
C1162 C1169 1.409 . S
C1163 H1155 0.930 . S
C1163 C1161 1.419 . S
C1163 C1164 1.362 . S
C1164 H1156 0.930 . S
C1164 C1163 1.362 . S
C1164 C1167 1.409 . S
C1165 H1157 0.930 . S
C1165 C1166 1.355 . S
C1165 C1167 1.415 . S
C1166 C1165 1.355 . S
C1166 C1168 1.419 . S
C1167 C1162 1.425 . S
C1167 C1164 1.409 . S
C1167 C1165 1.415 . S
C1168 H1158 0.930 . S
C1168 C1166 1.419 . S
C1168 C1169 1.362 . S
C1169 H1159 0.930 . S
C1169 C1162 1.409 . S
C1169 C1168 1.362 . S
H1170 C1176 0.930 . S
H1171 C1179 0.930 . S
H1172 C1180 0.930 . S
H1173 C1181 0.930 . S
H1174 C1184 0.930 . S
H1175 C1185 0.930 . S
C1176 H1170 0.930 . S
C1176 C1177 1.355 . S
C1176 C1178 1.415 . S
C1177 C1176 1.355 . S
C1177 C1179 1.419 . S
C1178 C1176 1.415 . S
C1178 C1183 1.425 . S
C1178 C1185 1.409 . S
C1179 H1171 0.930 . S
C1179 C1177 1.419 . S
C1179 C1180 1.362 . S
C1180 H1172 0.930 . S
C1180 C1179 1.362 . S
C1180 C1183 1.409 . S
C1181 H1173 0.930 . S
C1181 C1182 1.355 . S
C1181 C1183 1.415 . S
C1182 C1181 1.355 . S
C1182 C1184 1.419 . S
C1183 C1178 1.425 . S
C1183 C1180 1.409 . S
C1183 C1181 1.415 . S
C1184 H1174 0.930 . S
C1184 C1182 1.419 . S
C1184 C1185 1.362 . S
C1185 H1175 0.930 . S
C1185 C1178 1.409 . S
C1185 C1184 1.362 . S
H1186 C1192 0.930 . S
H1187 C1195 0.930 . S
H1188 C1196 0.930 . S
H1189 C1197 0.930 . S
H1190 C1200 0.930 . S
H1191 C1201 0.930 . S
C1192 H1186 0.930 . S
C1192 C1193 1.355 . S
C1192 C1194 1.415 . S
C1193 C1192 1.355 . S
C1193 C1195 1.419 . S
C1194 C1192 1.415 . S
C1194 C1199 1.425 . S
C1194 C1201 1.409 . S
C1195 H1187 0.930 . S
C1195 C1193 1.419 . S
C1195 C1196 1.362 . S
C1196 H1188 0.930 . S
C1196 C1195 1.362 . S
C1196 C1199 1.409 . S
C1197 H1189 0.930 . S
C1197 C1198 1.355 . S
C1197 C1199 1.415 . S
C1198 C1197 1.355 . S
C1198 C1200 1.419 . S
C1199 C1194 1.425 . S
C1199 C1196 1.409 . S
C1199 C1197 1.415 . S
C1200 H1190 0.930 . S
C1200 C1198 1.419 . S
C1200 C1201 1.362 . S
C1201 H1191 0.930 . S
C1201 C1194 1.409 . S
C1201 C1200 1.362 . S
H1202 C1208 0.930 . S
H1203 C1211 0.930 . S
H1204 C1212 0.930 . S
H1205 C1213 0.930 . S
H1206 C1216 0.930 . S
H1207 C1217 0.930 . S
C1208 H1202 0.930 . S
C1208 C1209 1.355 . S
C1208 C1210 1.415 . S
C1209 C1208 1.355 . S
C1209 C1211 1.419 . S
C1210 C1208 1.415 . S
C1210 C1215 1.425 . S
C1210 C1217 1.409 . S
C1211 H1203 0.930 . S
C1211 C1209 1.419 . S
C1211 C1212 1.362 . S
C1212 H1204 0.930 . S
C1212 C1211 1.362 . S
C1212 C1215 1.409 . S
C1213 H1205 0.930 . S
C1213 C1214 1.355 . S
C1213 C1215 1.415 . S
C1214 C1213 1.355 . S
C1214 C1216 1.419 . S
C1215 C1210 1.425 . S
C1215 C1212 1.409 . S
C1215 C1213 1.415 . S
C1216 H1206 0.930 . S
C1216 C1214 1.419 . S
C1216 C1217 1.362 . S
C1217 H1207 0.930 . S
C1217 C1210 1.409 . S
C1217 C1216 1.362 . S
H1218 C1224 0.930 . S
H1219 C1227 0.930 . S
H1220 C1228 0.930 . S
H1221 C1229 0.930 . S
H1222 C1232 0.930 . S
H1223 C1233 0.930 . S
C1224 H1218 0.930 . S
C1224 C1225 1.355 . S
C1224 C1226 1.415 . S
C1225 C1224 1.355 . S
C1225 C1227 1.419 . S
C1226 C1224 1.415 . S
C1226 C1231 1.425 . S
C1226 C1233 1.409 . S
C1227 H1219 0.930 . S
C1227 C1225 1.419 . S
C1227 C1228 1.362 . S
C1228 H1220 0.930 . S
C1228 C1227 1.362 . S
C1228 C1231 1.409 . S
C1229 H1221 0.930 . S
C1229 C1230 1.355 . S
C1229 C1231 1.415 . S
C1230 C1229 1.355 . S
C1230 C1232 1.419 . S
C1231 C1226 1.425 . S
C1231 C1228 1.409 . S
C1231 C1229 1.415 . S
C1232 H1222 0.930 . S
C1232 C1230 1.419 . S
C1232 C1233 1.362 . S
C1233 H1223 0.930 . S
C1233 C1226 1.409 . S
C1233 C1232 1.362 . S
H1234 C1240 0.930 . S
H1235 C1243 0.930 . S
H1236 C1244 0.930 . S
H1237 C1245 0.930 . S
H1238 C1248 0.930 . S
H1239 C1249 0.930 . S
C1240 H1234 0.930 . S
C1240 C1241 1.355 . S
C1240 C1242 1.415 . S
C1241 C1240 1.355 . S
C1241 C1243 1.419 . S
C1242 C1240 1.415 . S
C1242 C1247 1.425 . S
C1242 C1249 1.409 . S
C1243 H1235 0.930 . S
C1243 C1241 1.419 . S
C1243 C1244 1.362 . S
C1244 H1236 0.930 . S
C1244 C1243 1.362 . S
C1244 C1247 1.409 . S
C1245 H1237 0.930 . S
C1245 C1246 1.355 . S
C1245 C1247 1.415 . S
C1246 C1245 1.355 . S
C1246 C1248 1.419 . S
C1247 C1242 1.425 . S
C1247 C1244 1.409 . S
C1247 C1245 1.415 . S
C1248 H1238 0.930 . S
C1248 C1246 1.419 . S
C1248 C1249 1.362 . S
C1249 H1239 0.930 . S
C1249 C1242 1.409 . S
C1249 C1248 1.362 . S
H1250 C1256 0.930 . S
H1251 C1259 0.930 . S
H1252 C1260 0.930 . S
H1253 C1261 0.930 . S
H1254 C1264 0.930 . S
H1255 C1265 0.930 . S
C1256 H1250 0.930 . S
C1256 C1257 1.355 . S
C1256 C1258 1.415 . S
C1257 C1256 1.355 . S
C1257 C1259 1.419 . S
C1258 C1256 1.415 . S
C1258 C1263 1.425 . S
C1258 C1265 1.409 . S
C1259 H1251 0.930 . S
C1259 C1257 1.419 . S
C1259 C1260 1.362 . S
C1260 H1252 0.930 . S
C1260 C1259 1.362 . S
C1260 C1263 1.409 . S
C1261 H1253 0.930 . S
C1261 C1262 1.355 . S
C1261 C1263 1.415 . S
C1262 C1261 1.355 . S
C1262 C1264 1.419 . S
C1263 C1258 1.425 . S
C1263 C1260 1.409 . S
C1263 C1261 1.415 . S
C1264 H1254 0.930 . S
C1264 C1262 1.419 . S
C1264 C1265 1.362 . S
C1265 H1255 0.930 . S
C1265 C1258 1.409 . S
C1265 C1264 1.362 . S
H1266 C1272 0.930 . S
H1267 C1275 0.930 . S
H1268 C1276 0.930 . S
H1269 C1277 0.930 . S
H1270 C1280 0.930 . S
H1271 C1281 0.930 . S
C1272 H1266 0.930 . S
C1272 C1273 1.355 . S
C1272 C1274 1.415 . S
C1273 C1272 1.355 . S
C1273 C1275 1.419 . S
C1274 C1272 1.415 . S
C1274 C1279 1.425 . S
C1274 C1281 1.409 . S
C1275 H1267 0.930 . S
C1275 C1273 1.419 . S
C1275 C1276 1.362 . S
C1276 H1268 0.930 . S
C1276 C1275 1.362 . S
C1276 C1279 1.409 . S
C1277 H1269 0.930 . S
C1277 C1278 1.355 . S
C1277 C1279 1.415 . S
C1278 C1277 1.355 . S
C1278 C1280 1.419 . S
C1279 C1274 1.425 . S
C1279 C1276 1.409 . S
C1279 C1277 1.415 . S
C1280 H1270 0.930 . S
C1280 C1278 1.419 . S
C1280 C1281 1.362 . S
C1281 H1271 0.930 . S
C1281 C1274 1.409 . S
C1281 C1280 1.362 . S
H1282 C1288 0.930 . S
H1283 C1291 0.930 . S
H1284 C1292 0.930 . S
H1285 C1293 0.930 . S
H1286 C1296 0.930 . S
H1287 C1297 0.930 . S
C1288 H1282 0.930 . S
C1288 C1289 1.355 . S
C1288 C1290 1.415 . S
C1289 C1288 1.355 . S
C1289 C1291 1.419 . S
C1290 C1288 1.415 . S
C1290 C1295 1.425 . S
C1290 C1297 1.409 . S
C1291 H1283 0.930 . S
C1291 C1289 1.419 . S
C1291 C1292 1.362 . S
C1292 H1284 0.930 . S
C1292 C1291 1.362 . S
C1292 C1295 1.409 . S
C1293 H1285 0.930 . S
C1293 C1294 1.355 . S
C1293 C1295 1.415 . S
C1294 C1293 1.355 . S
C1294 C1296 1.419 . S
C1295 C1290 1.425 . S
C1295 C1292 1.409 . S
C1295 C1293 1.415 . S
C1296 H1286 0.930 . S
C1296 C1294 1.419 . S
C1296 C1297 1.362 . S
C1297 H1287 0.930 . S
C1297 C1290 1.409 . S
C1297 C1296 1.362 . S
H1298 C1304 0.930 . S
H1299 C1307 0.930 . S
H1300 C1308 0.930 . S
H1301 C1309 0.930 . S
H1302 C1312 0.930 . S
H1303 C1313 0.930 . S
C1304 H1298 0.930 . S
C1304 C1305 1.355 . S
C1304 C1306 1.415 . S
C1305 C1304 1.355 . S
C1305 C1307 1.419 . S
C1306 C1304 1.415 . S
C1306 C1311 1.425 . S
C1306 C1313 1.409 . S
C1307 H1299 0.930 . S
C1307 C1305 1.419 . S
C1307 C1308 1.362 . S
C1308 H1300 0.930 . S
C1308 C1307 1.362 . S
C1308 C1311 1.409 . S
C1309 H1301 0.930 . S
C1309 C1310 1.355 . S
C1309 C1311 1.415 . S
C1310 C1309 1.355 . S
C1310 C1312 1.419 . S
C1311 C1306 1.425 . S
C1311 C1308 1.409 . S
C1311 C1309 1.415 . S
C1312 H1302 0.930 . S
C1312 C1310 1.419 . S
C1312 C1313 1.362 . S
C1313 H1303 0.930 . S
C1313 C1306 1.409 . S
C1313 C1312 1.362 . S
C601 C120 1.491 . S
C606 C21 1.488 . S
C617 C153 1.494 . S
C622 C54 1.495 . S
C633 C186 1.482 . S
C638 C87 1.485 . S
C649 C40 1.452 . S
C654 C172 1.451 . S
C665 C106 1.453 . S
C670 C73 1.457 . S
C681 C139 1.471 . S
C686 C7 1.468 . S
C697 C318 1.492 . S
C702 C219 1.489 . S
C713 C252 1.488 . S
C718 C351 1.484 . S
C729 C285 1.491 . S
C734 C384 1.488 . S
C745 C238 1.454 . S
C750 C370 1.458 . S
C761 C271 1.451 . S
C766 C304 1.453 . S
C777 C337 1.462 . S
C782 C205 1.467 . S
C793 C417 1.483 . S
C798 C516 1.486 . S
C809 C549 1.489 . S
C814 C450 1.485 . S
C825 C483 1.483 . S
C830 C582 1.486 . S
C841 C436 1.455 . S
C846 C568 1.460 . S
C857 C502 1.472 . S
C862 C469 1.470 . S
C873 C403 1.451 . S
C878 C535 1.452 . S
C889 C18 1.547 . S
C894 C579 1.547 . S
C905 C513 1.530 . S
C910 C51 1.530 . S
C921 C546 1.530 . S
C926 C84 1.530 . S
C937 C249 1.533 . S
C942 C117 1.534 . S
C953 C282 1.534 . S
C958 C150 1.534 . S
C969 C216 1.532 . S
C974 C183 1.533 . S
C985 C447 1.535 . S
C990 C315 1.536 . S
C1001 C480 1.547 . S
C1006 C348 1.547 . S
C1017 C381 1.529 . S
C1022 C414 1.530 . S
C1033 N2 1.411 . S
C1038 N13 1.413 . S
C1049 N35 1.424 . S
C1054 N46 1.425 . S
C1065 N68 1.403 . S
C1070 N79 1.406 . S
C1081 N112 1.420 . S
C1086 N101 1.418 . S
C1097 N145 1.430 . S
C1102 N134 1.429 . S
C1113 N167 1.423 . S
C1118 N178 1.425 . S
C1129 N200 1.413 . S
C1134 N211 1.416 . S
C1145 N244 1.410 . S
C1150 N233 1.408 . S
C1161 N277 1.393 . S
C1166 N266 1.391 . S
C1177 N299 1.413 . S
C1182 N310 1.415 . S
C1193 N332 1.423 . S
C1198 N343 1.424 . S
C1209 N365 1.389 . S
C1214 N376 1.392 . S
C1225 N398 1.396 . S
C1230 N409 1.398 . S
C1241 N431 1.427 . S
C1246 N442 1.427 . S
C1257 N475 1.400 . S
C1262 N464 1.397 . S
C1273 N497 1.430 . S
C1278 N508 1.431 . S
C1289 N541 1.406 . S
C1294 N530 1.404 . S
C1305 N574 1.391 . S
C1310 N563 1.389 . S
