# Generated by pormake.
# Topology qtz-e, (6)-cn, num edge types: 1
# Building blocks:
#     Node 0, Type 0, BuildingBlock: BETFEN_clean_sbu_0, # of connection points: 6
#     Node 1, Type 0, BuildingBlock: BETFEN_clean_sbu_0, # of connection points: 6
#     Node 2, Type 0, BuildingBlock: BETFEN_clean_sbu_0, # of connection points: 6
#     Node 3, Type 0, BuildingBlock: BETFEN_clean_sbu_0, # of connection points: 6
#     Node 4, Type 0, BuildingBlock: BETFEN_clean_sbu_0, # of connection points: 6
#     Node 5, Type 0, BuildingBlock: BETFEN_clean_sbu_0, # of connection points: 6
#     Edge 6, Type (0, 0), BuildingBlock: EZIPEK_clean_linker_0, # of connection points: 2
#     Edge 7, Type (0, 0), BuildingBlock: EZIPEK_clean_linker_0, # of connection points: 2
#     Edge 8, Type (0, 0), BuildingBlock: EZIPEK_clean_linker_0, # of connection points: 2
#     Edge 9, Type (0, 0), BuildingBlock: EZIPEK_clean_linker_0, # of connection points: 2
#     Edge 10, Type (0, 0), BuildingBlock: EZIPEK_clean_linker_0, # of connection points: 2
#     Edge 11, Type (0, 0), BuildingBlock: EZIPEK_clean_linker_0, # of connection points: 2
#     Edge 12, Type (0, 0), BuildingBlock: EZIPEK_clean_linker_0, # of connection points: 2
#     Edge 13, Type (0, 0), BuildingBlock: EZIPEK_clean_linker_0, # of connection points: 2
#     Edge 14, Type (0, 0), BuildingBlock: EZIPEK_clean_linker_0, # of connection points: 2
#     Edge 15, Type (0, 0), BuildingBlock: EZIPEK_clean_linker_0, # of connection points: 2
#     Edge 16, Type (0, 0), BuildingBlock: EZIPEK_clean_linker_0, # of connection points: 2
#     Edge 17, Type (0, 0), BuildingBlock: EZIPEK_clean_linker_0, # of connection points: 2
#     Edge 18, Type (0, 0), BuildingBlock: EZIPEK_clean_linker_0, # of connection points: 2
#     Edge 19, Type (0, 0), BuildingBlock: EZIPEK_clean_linker_0, # of connection points: 2
#     Edge 20, Type (0, 0), BuildingBlock: EZIPEK_clean_linker_0, # of connection points: 2
#     Edge 21, Type (0, 0), BuildingBlock: EZIPEK_clean_linker_0, # of connection points: 2
#     Edge 22, Type (0, 0), BuildingBlock: EZIPEK_clean_linker_0, # of connection points: 2
#     Edge 23, Type (0, 0), BuildingBlock: EZIPEK_clean_linker_0, # of connection points: 2
# Relax obj value: 0.225
# Max RMSD: 0.228
# Mean RMSD: 0.228
data_MOF--net-qtz-e--node1-BETFEN_clean_sbu_0--edge1-EZIPEK_clean_linker_0
_symmetry_space_group_name_H-M    P1
_symmetry_Int_Tables_number       1
_symmetry_cell_setting            triclinic
loop_
_symmetry_equiv_pos_as_xyz
'x, y, z'
_cell_length_a     19.072723
_cell_length_b     19.028114
_cell_length_c     41.907202
_cell_angle_alpha  89.875031
_cell_angle_beta   89.75818
_cell_angle_gamma 119.58273
loop_
_atom_site_label
_atom_site_type_symbol
_atom_site_fract_x
_atom_site_fract_y
_atom_site_fract_z
_atom_type_partial_charge
Pr0 Pr 0.33814 0.5199 0.11384 0.0
Pr1 Pr 0.22627 0.3365 0.1378 0.0
C2 C 0.45473 0.65259 0.08546 0.0
C3 C 0.45776 0.68468 0.05286 0.0
C4 C 0.4163 0.72664 0.04545 0.0
C5 C 0.41188 0.7482 1.01386 0.0
C6 C 0.44964 0.72914 0.98923 0.0
C7 C 0.49218 0.68863 0.99656 0.0
C8 C 0.49577 0.66617 1.02799 0.0
C9 C 0.17965 0.4809 0.11407 0.0
C10 C 0.28848 0.36103 0.06295 0.0
C11 C 0.10298 0.20775 0.1662 0.0
C12 C 0.07414 0.18878 0.19958 0.0
C13 C 0.12851 0.2064 0.22489 0.0
C14 C 0.10074 0.19097 0.25647 0.0
C15 C 0.0184 0.15849 0.26327 0.0
C16 C 0.9641 0.14186 0.23813 0.0
C17 C 0.9918 0.15683 0.2065 0.0
C18 C 0.39244 0.40244 0.14935 0.0
C19 C 0.28461 0.48309 0.19209 0.0
O20 O 0.45534 0.58415 0.0866 0.0
O21 O 0.40408 0.6557 0.10598 0.0
O22 O 0.205 0.43043 0.11148 0.0
O23 O 0.23511 0.54956 0.10302 0.0
O24 O 0.23969 0.30709 0.08418 0.0
O25 O 0.32926 0.43911 0.06974 0.0
O26 O 0.0949 0.26525 0.15255 0.0
O27 O 0.17174 0.21114 0.15938 0.0
O28 O 0.35232 0.43832 0.15 0.0
O29 O 0.34482 0.32609 0.1431 0.0
O30 O 0.33664 0.5366 0.17096 0.0
O31 O 0.23695 0.40693 0.1844 0.0
H32 H 0.38568 0.74123 0.06389 0.0
H33 H 0.37889 0.7796 1.00859 0.0
H34 H 0.5219 0.67365 0.97784 0.0
H35 H 0.52755 0.63327 0.03277 0.0
H36 H 0.19249 0.23241 0.22033 0.0
H37 H 0.14342 0.20435 0.27563 0.0
H38 H 0.90034 0.11692 0.24302 0.0
H39 H 0.94902 0.14389 0.18742 0.0
Pr40 Pr 0.61562 0.14335 0.54497 0.0
Pr41 Pr 0.71124 0.05146 0.52115 0.0
C42 C 0.53013 0.19954 0.57606 0.0
C43 C 0.54069 0.23523 0.60782 0.0
C44 C 0.61552 0.26666 0.62325 0.0
C45 C 0.62357 0.29213 0.6549 0.0
C46 C 0.55658 0.2855 0.67144 0.0
C47 C 0.48283 0.25722 0.65565 0.0
C48 C 0.47481 0.23212 0.62395 0.0
C49 C 0.77322 0.23992 0.52593 0.0
C50 C 0.67155 0.04306 0.59822 0.0
C51 C 0.83182 0.04063 0.49257 0.0
C52 C 0.85743 0.05091 0.45883 0.0
C53 C 0.80139 0.03514 0.43435 0.0
C54 C 0.82701 0.05251 0.40255 0.0
C55 C 0.90908 0.08656 0.39481 0.0
C56 C 0.96512 0.10229 0.4192 0.0
C57 C 0.93942 0.08457 0.45102 0.0
C58 C 0.54397 0.95078 0.5147 0.0
C59 C 0.62789 0.12264 0.46849 0.0
O60 O 0.50894 0.12282 0.57571 0.0
O61 O 0.58673 0.24259 0.55533 0.0
O62 O 0.74919 0.17619 0.54249 0.0
O63 O 0.71795 0.25993 0.52277 0.0
O64 O 0.70506 0.02047 0.5756 0.0
O65 O 0.63956 0.09005 0.59249 0.0
O66 O 0.84218 0.10649 0.50648 0.0
O67 O 0.76254 0.97695 0.49976 0.0
O68 O 0.58048 0.02134 0.52538 0.0
O69 O 0.59631 0.92785 0.50776 0.0
O70 O 0.58177 0.12836 0.49084 0.0
O71 O 0.6844 0.10376 0.4749 0.0
H72 H 0.66684 0.26859 0.61119 0.0
H73 H 0.68048 0.31275 0.66699 0.0
H74 H 0.43082 0.25148 0.66841 0.0
H75 H 0.41665 0.20755 0.61246 0.0
H76 H 0.73799 0.0107 0.43986 0.0
H77 H 0.78304 0.04029 0.38402 0.0
H78 H 0.02868 0.12862 0.41358 0.0
H79 H 0.98367 0.09847 0.46959 0.0
Pr80 Pr 0.44781 0.81107 0.7786 0.0
Pr81 Pr 0.63999 0.90012 0.8062 0.0
C82 C 0.30992 0.77834 0.75034 0.0
C83 C 0.28068 0.74212 0.71883 0.0
C84 C 0.19799 0.69432 0.713 0.0
C85 C 0.17119 0.66254 0.68255 0.0
C86 C 0.22697 0.67913 0.65762 0.0
C87 C 0.30967 0.72337 0.66395 0.0
C88 C 0.33633 0.75406 0.69438 0.0
C89 C 0.50367 0.70034 0.78335 0.0
C90 C 0.60985 0.91673 0.72862 0.0
C91 C 0.77519 0.9223 0.83542 0.0
C92 C 0.7931 0.90326 0.8679 0.0
C93 C 0.83088 0.96545 0.89047 0.0
C94 C 0.84326 0.94829 0.9218 0.0
C95 C 0.81815 0.86857 0.93128 0.0
C96 C 0.78204 0.80635 0.90875 0.0
C97 C 0.77014 0.82356 0.8773 0.0
C98 C 0.56775 -0.00217 0.81141 0.0
C99 C 0.4805 0.81253 0.85654 0.0
O100 O 0.37355 0.85085 0.74996 0.0
O101 O 0.31351 0.73016 0.77186 0.0
O102 O 0.54338 0.7755 0.78846 0.0
O103 O 0.4344 0.68301 0.77139 0.0
O104 O 0.66411 0.93016 0.75115 0.0
O105 O 0.53068 0.876 0.73372 0.0
O106 O 0.73448 0.86237 0.81574 0.0
O107 O 0.75392 0.97791 0.83392 0.0
O108 O 0.53798 0.92753 0.80084 0.0
O109 O 0.64295 0.02316 0.81838 0.0
O110 O 0.42744 0.80364 0.83426 0.0
O111 O 0.55823 0.84069 0.85102 0.0
H112 H 0.15432 0.68332 0.73171 0.0
H113 H 0.10703 0.62892 0.67793 0.0
H114 H 0.35348 0.73722 0.645 0.0
H115 H 0.40055 0.78916 0.69853 0.0
H116 H 0.8499 0.0275 0.88401 0.0
H117 H 0.87159 -0.00285 0.93879 0.0
H118 H 0.76278 0.74447 0.91558 0.0
H119 H 0.74213 0.77428 0.86052 0.0
Pr120 Pr 0.77489 0.43381 0.21625 0.0
Pr121 Pr 0.87021 0.61712 0.19101 0.0
C122 C 0.72175 0.28318 0.23833 0.0
C123 C 0.69876 0.24691 0.27071 0.0
C124 C 0.61758 0.20747 0.2807 0.0
C125 C 0.59696 0.18129 0.31232 0.0
C126 C 0.65712 0.19377 0.33434 0.0
C127 C 0.73772 0.23018 0.32427 0.0
C128 C 0.75842 0.25631 0.29273 0.0
C129 C 0.68299 0.5119 0.21867 0.0
C130 C 0.88675 0.58545 0.26777 0.0
C131 C 0.90069 0.75482 0.16052 0.0
C132 C 0.88854 0.77205 0.12709 0.0
C133 C 0.88131 0.71892 0.10239 0.0
C134 C 0.86915 0.73461 0.07085 0.0
C135 C 0.86508 0.80437 0.06325 0.0
C136 C 0.87259 0.8578 0.08786 0.0
C137 C 0.88386 0.84154 0.11956 0.0
C138 C 0.96852 0.54627 0.18532 0.0
C139 C 0.78136 0.46757 0.13812 0.0
O140 O 0.79829 0.33511 0.23381 0.0
O141 O 0.67394 0.30561 0.22486 0.0
O142 O 0.73329 0.52061 0.19685 0.0
O143 O 0.68643 0.46698 0.24131 0.0
O144 O 0.89915 0.64089 0.24584 0.0
O145 O 0.84452 0.50698 0.26163 0.0
O146 O 0.83571 0.71184 0.1776 0.0
O147 O 0.9551 0.7331 0.16488 0.0
O148 O 0.89802 0.51403 0.19622 0.0
O149 O 0.99289 0.62155 0.17863 0.0
O150 O 0.75503 0.41135 0.16075 0.0
O151 O 0.82359 0.54534 0.1442 0.0
H152 H 0.57023 0.19882 0.26431 0.0
H153 H 0.5344 0.15293 0.31981 0.0
H154 H 0.78476 0.23991 0.34103 0.0
H155 H 0.82149 0.28585 0.28591 0.0
H156 H 0.88565 0.66549 0.10737 0.0
H157 H 0.86342 0.69255 0.05229 0.0
H158 H 0.86952 0.91193 0.0825 0.0
H159 H 0.88921 0.88334 0.13815 0.0
Pr160 Pr 0.12398 0.59718 0.44836 0.0
Pr161 Pr 0.05464 0.7095 0.47312 0.0
C162 C 0.15532 0.48541 0.42325 0.0
C163 C 0.19501 0.48926 0.39236 0.0
C164 C 0.252 0.56462 0.37941 0.0
C165 C 0.27965 0.57076 0.34798 0.0
C166 C 0.25097 0.50163 0.32893 0.0
C167 C 0.19706 0.42577 0.34232 0.0
C168 C 0.16901 0.41965 0.37375 0.0
C169 C 0.24073 0.76285 0.45235 0.0
C170 C 0.03264 0.65859 0.39569 0.0
C171 C 0.03537 0.82794 0.49945 0.0
C172 C 0.06019 0.87114 0.53048 0.0
C173 C 0.00445 0.88277 0.54851 0.0
C174 C 0.02326 0.91476 0.57945 0.0
C175 C 0.0982 0.9355 0.59309 0.0
C176 C 0.15511 0.92655 0.57468 0.0
C177 C 0.13619 0.89422 0.54378 0.0
C178 C 0.95818 0.54491 0.4861 0.0
C179 C 0.13771 0.64253 0.52408 0.0
O180 O 0.0847 0.48072 0.42116 0.0
O181 O 0.20064 0.53606 0.44514 0.0
O182 O 0.18084 0.72338 0.47011 0.0
O183 O 0.23828 0.71584 0.42939 0.0
O184 O 0.01756 0.69803 0.41844 0.0
O185 O 0.07691 0.62412 0.40112 0.0
O186 O 0.09207 0.84229 0.47831 0.0
O187 O 0.98066 0.75143 0.50134 0.0
O188 O -0.00139 0.57527 0.46084 0.0
O189 O 0.95665 0.60075 0.50328 0.0
O190 O 0.11976 0.5806 0.5048 0.0
O191 O 0.14066 0.70868 0.51265 0.0
H192 H 0.27234 0.61943 0.39309 0.0
H193 H 0.32009 0.62987 0.33799 0.0
H194 H 0.17355 0.3718 0.32785 0.0
H195 H 0.12436 0.36114 0.38299 0.0
H196 H 0.94534 0.86505 0.53896 0.0
H197 H 0.97858 0.9215 0.59308 0.0
H198 H 0.21344 0.94251 0.58459 0.0
H199 H 0.18016 0.88516 0.53068 0.0
Pr200 Pr 0.52611 0.35661 0.88245 0.0
Pr201 Pr 0.34437 0.2418 0.85605 0.0
C202 C 0.65778 0.47644 0.90853 0.0
C203 C 0.68523 0.47122 0.9405 0.0
C204 C 0.75577 0.53394 0.95364 0.0
C205 C 0.77693 0.52691 0.98499 0.0
C206 C 0.72726 0.45731 1.00314 0.0
C207 C 0.65834 0.39395 0.9895 0.0
C208 C 0.63769 0.40074 0.95838 0.0
C209 C 0.48876 0.19791 0.88287 0.0
C210 C 0.36408 0.29999 0.93222 0.0
C211 C 0.22046 0.12283 0.82386 0.0
C212 C 0.20411 0.09591 0.78988 0.0
C213 C 0.14971 0.10924 0.77176 0.0
C214 C 0.13398 0.08467 0.73979 0.0
C215 C 0.17197 0.04581 0.7252 0.0
C216 C 0.22621 0.03215 0.74314 0.0
C217 C 0.24211 0.05684 0.77512 0.0
C218 C 0.40851 0.40859 0.84834 0.0
C219 C 0.5006 0.30586 0.80505 0.0
O220 O 0.58886 0.4764 0.90799 0.0
O221 O 0.66143 0.42646 0.888 0.0
O222 O 0.4379 0.22278 0.88336 0.0
O223 O 0.55456 0.25326 0.89563 0.0
O224 O 0.31212 0.25262 0.91016 0.0
O225 O 0.44248 0.34148 0.92622 0.0
O226 O 0.27409 0.11196 0.83926 0.0
O227 O 0.22398 0.19161 0.83082 0.0
O228 O 0.44536 0.3697 0.84622 0.0
O229 O 0.3316 0.35915 0.85246 0.0
O230 O 0.55084 0.35574 0.82687 0.0
O231 O 0.42322 0.25837 0.81105 0.0
H232 H 0.79298 0.58856 0.94006 0.0
H233 H 0.8296 0.57691 0.99558 0.0
H234 H 0.61888 0.34062 1.00339 0.0
H235 H 0.58312 0.35162 0.94851 0.0
H236 H 0.1191 0.13867 0.78235 0.0
H237 H 0.09167 0.09549 0.72645 0.0
H238 H 0.25602 0.00207 0.73241 0.0
H239 H 0.28407 0.0451 0.78825 0.0
C240 C 0.34088 0.52518 0.28042 0.0
C241 C 0.26597 0.5095 0.29377 0.0
C242 C 0.20585 0.48135 0.24082 0.0
C243 C 0.28193 0.50273 0.22649 0.0
N244 N 0.42508 0.55369 0.23314 0.0
N245 N 0.13658 0.49946 0.2855 0.0
C246 C 0.35084 0.52858 0.24642 0.0
C247 C 0.20178 0.49645 0.27356 0.0
N248 N 0.40104 0.53289 0.30019 0.0
N249 N 0.13575 0.44205 0.22399 0.0
H250 H 0.13105 0.51087 0.30946 0.0
H251 H 0.09286 0.4998 0.27078 0.0
H252 H 0.13283 0.42877 0.19991 0.0
H253 H 0.07898 0.41629 0.23478 0.0
H254 H 0.45375 0.53488 0.2922 0.0
H255 H 0.39574 0.53169 0.325 0.0
H256 H 0.47838 0.58076 0.24612 0.0
H257 H 0.43469 0.55236 0.20877 0.0
C258 C 0.50777 0.22908 0.75752 0.0
C259 C 0.52812 0.30481 0.77186 0.0
C260 C 0.57617 0.37159 0.71966 0.0
C261 C 0.55905 0.29647 0.70639 0.0
N262 N 0.53095 0.15953 0.71413 0.0
N263 N 0.59071 0.45065 0.76691 0.0
C264 C 0.53263 0.22738 0.72589 0.0
C265 C 0.56631 0.37711 0.75316 0.0
N266 N 0.46096 0.15764 0.77318 0.0
N267 N 0.59819 0.4366 0.69994 0.0
H268 H 0.57812 0.45814 0.7904 0.0
H269 H 0.62722 0.5054 0.75536 0.0
H270 H 0.60901 0.43504 0.67559 0.0
H271 H 0.60144 0.49043 0.70717 0.0
H272 H 0.43517 0.10167 0.7619 0.0
H273 H 0.44291 0.15303 0.79681 0.0
H274 H 0.5213 0.11069 0.72848 0.0
H275 H 0.54722 0.15514 0.69074 0.0
C276 C 0.40009 0.69119 0.93284 0.0
C277 C 0.44561 0.75203 0.95561 0.0
C278 C 0.49131 0.85466 0.91324 0.0
C279 C 0.45484 0.79254 0.89024 0.0
N280 N 0.37008 0.65115 0.87794 0.0
N281 N 0.54144 0.89142 0.96712 0.0
C282 C 0.40728 0.71098 0.89999 0.0
C283 C 0.49222 0.83403 0.9458 0.0
N284 N 0.35037 0.61289 0.94168 0.0
N285 N 0.52413 0.93354 0.90381 0.0
H286 H 0.54444 0.87903 0.99116 0.0
H287 H 0.58412 0.95007 0.96055 0.0
H288 H 0.52326 0.95004 0.88012 0.0
H289 H 0.54471 0.98172 0.91964 0.0
H290 H 0.34004 0.59244 0.96528 0.0
H291 H 0.34004 0.59244 0.96528 0.0
H292 H 0.33566 0.5903 0.88435 0.0
H293 H 0.37409 0.66217 0.85344 0.0
C294 C 0.59933 0.07405 0.41229 0.0
C295 C 0.61784 0.13704 0.43449 0.0
C296 C 0.64653 0.23255 0.39039 0.0
C297 C 0.63677 0.1719 0.36843 0.0
N298 N 0.60959 0.03638 0.35786 0.0
N299 N 0.65561 0.27754 0.44387 0.0
C300 C 0.6138 0.09265 0.37917 0.0
C301 C 0.63928 0.21582 0.42347 0.0
N302 N 0.56593 -0.00391 0.42298 0.0
N303 N 0.66542 0.30795 0.37983 0.0
H304 H 0.65235 0.27202 0.46865 0.0
H305 H 0.65235 0.27202 0.46865 0.0
H306 H 0.67096 0.3235 0.35569 0.0
H307 H 0.67412 0.35443 0.39533 0.0
H308 H 0.54387 0.94613 0.40803 0.0
H309 H 0.55328 0.98068 0.44702 0.0
H310 H 0.60316 0.98076 0.36452 0.0
H311 H 0.61777 0.04732 0.33335 0.0
C312 C 0.21198 0.60854 0.60498 0.0
C313 C 0.19948 0.66291 0.62404 0.0
C314 C 0.13046 0.68572 0.57994 0.0
C315 C 0.15392 0.64178 0.55894 0.0
N316 N 0.23147 0.5731 0.55161 0.0
N317 N 0.16642 0.76994 0.62652 0.0
C318 C 0.19808 0.60556 0.57146 0.0
C319 C 0.1644 0.70627 0.61064 0.0
N320 N 0.23667 0.55954 0.61889 0.0
N321 N 0.07363 0.70605 0.57135 0.0
H322 H 0.19309 0.78978 0.64877 0.0
H323 H 0.14958 0.80878 0.61588 0.0
H324 H 0.04979 0.73064 0.58736 0.0
H325 H 0.04273 0.69005 0.54987 0.0
H326 H 0.23903 0.51303 0.60674 0.0
H327 H 0.24761 0.56071 0.64332 0.0
H328 H 0.27129 0.55425 0.5595 0.0
H329 H 0.2265 0.57214 0.52693 0.0
C330 C 0.71581 0.48965 0.09117 0.0
C331 C 0.7533 0.44802 0.10463 0.0
C332 C 0.76973 0.40673 0.05084 0.0
C333 C 0.73894 0.45513 0.03786 0.0
N334 N 0.67622 0.53778 0.04565 0.0
N335 N 0.81344 0.36388 0.09789 0.0
C336 C 0.71037 0.49505 0.05801 0.0
C337 C 0.77852 0.40451 0.08462 0.0
N338 N 0.68427 0.5256 0.10978 0.0
N339 N 0.78956 0.36256 0.03078 0.0
H340 H 0.81409 0.35616 0.12242 0.0
H341 H 0.8421 0.33853 0.08503 0.0
H342 H 0.78721 0.36602 1.006 0.0
H343 H 0.80524 0.32013 0.03839 0.0
H344 H 0.68212 0.52221 0.13459 0.0
H345 H 0.68212 0.52221 0.13459 0.0
H346 H 0.65524 0.56848 0.05995 0.0
H347 H 0.66832 0.5426 1.0213 0.0
C348 C 0.46018 0.40066 0.20123 0.0
C349 C 0.46516 0.43313 0.16998 0.0
C350 C 0.5989 0.54544 0.18293 0.0
C351 C 0.60247 0.50214 0.20946 0.0
N352 N 0.52542 0.41514 0.25272 0.0
N353 N 0.5404 0.53676 0.13107 0.0
C354 C 0.52957 0.43688 0.2214 0.0
C355 C 0.53439 0.50668 0.16112 0.0
N356 N 0.38922 0.33697 0.2118 0.0
N357 N 0.65701 0.62403 0.17924 0.0
H358 H 0.50011 0.50238 0.11328 0.0
H359 H 0.58962 0.59004 0.12284 0.0
H360 H 0.6989 0.65312 0.19731 0.0
H361 H 0.65681 0.66168 0.1612 0.0
H362 H 0.38294 0.30517 0.23279 0.0
H363 H 0.33527 0.31462 0.19941 0.0
H364 H 0.47452 0.36939 0.2639 0.0
H365 H 0.57142 0.44988 0.26869 0.0
C366 C 0.93329 0.43775 0.52872 0.0
C367 C 0.92515 0.45893 0.49644 0.0
C368 C 0.86226 0.31597 0.48239 0.0
C369 C 0.85583 0.29543 0.51489 0.0
N370 N 0.91443 0.33076 0.56615 0.0
N371 N 0.86991 0.4096 0.44346 0.0
C372 C 0.90268 0.35496 0.53695 0.0
C373 C 0.88838 0.39637 0.47341 0.0
N374 N 0.96497 0.4948 0.55201 0.0
N375 N 0.83759 0.25695 0.46002 0.0
H376 H 0.87681 0.46461 0.43548 0.0
H377 H 0.87681 0.46461 0.43548 0.0
H378 H 0.82446 0.19875 0.46631 0.0
H379 H 0.83814 0.26851 0.43561 0.0
H380 H 0.98699 0.55553 0.54803 0.0
H381 H 0.96486 0.48181 0.57613 0.0
H382 H 0.95339 0.36965 0.58335 0.0
H383 H 0.88983 0.26942 0.57166 0.0
C384 C 0.43668 0.06516 0.85367 0.0
C385 C 0.49626 0.14808 0.85689 0.0
C386 C 0.5779 0.13026 0.81537 0.0
C387 C 0.5278 0.0467 0.8174 0.0
N388 N 0.39328 0.93818 0.82571 0.0
N389 N 0.62924 0.25882 0.8398 0.0
C390 C 0.45174 0.01478 0.83266 0.0
C391 C 0.56789 0.18084 0.8372 0.0
N392 N 0.36866 0.03361 0.87221 0.0
N393 N 0.63367 0.16138 0.79128 0.0
H394 H 0.62639 0.30468 0.85178 0.0
H395 H 0.68663 0.27835 0.83037 0.0
H396 H 0.63894 0.12417 0.77432 0.0
H397 H 0.66633 0.22278 0.78572 0.0
H398 H 0.32705 0.97224 0.87375 0.0
H399 H 0.35538 0.06877 0.88745 0.0
H400 H 0.33448 0.91133 0.83441 0.0
H401 H 0.40164 0.90537 0.80775 0.0
C402 C 0.4813 0.56176 0.78058 0.0
C403 C 0.51358 0.63454 0.79797 0.0
C404 C 0.48054 0.55909 0.84834 0.0
C405 C 0.44024 0.4861 0.83109 0.0
N406 N 0.40051 0.41531 0.78085 0.0
N407 N 0.57446 0.70247 0.84655 0.0
C408 C 0.44113 0.48653 0.79711 0.0
C409 C 0.52261 0.63321 0.8314 0.0
N410 N 0.48991 0.56606 0.74813 0.0
N411 N 0.47585 0.55752 0.8809 0.0
H412 H 0.61091 0.75421 0.83349 0.0
H413 H 0.58843 0.7063 0.87068 0.0
H414 H 0.44301 0.5039 0.89367 0.0
H415 H 0.49793 0.60893 0.89503 0.0
H416 H 0.47309 0.51648 0.73337 0.0
H417 H 0.52095 0.62158 0.73625 0.0
H418 H 0.3941 0.41113 0.7562 0.0
H419 H 0.36852 0.35934 0.79218 0.0
C420 C 0.15597 0.55138 0.16128 0.0
C421 C 0.12663 0.48261 0.14028 0.0
C422 C 0.98998 0.43425 0.16215 0.0
C423 C 0.01896 0.50827 0.17864 0.0
N424 N 0.12902 0.61112 0.20744 0.0
N425 N 0.01508 0.35728 0.12187 0.0
C426 C 0.10194 0.55838 0.18242 0.0
C427 C 0.04371 0.42225 0.14182 0.0
N428 N 0.2342 0.6128 0.16059 0.0
N429 N 0.91248 0.37469 0.16694 0.0
H430 H 0.05244 0.34633 0.10693 0.0
H431 H 0.9541 0.31632 0.11886 0.0
H432 H 0.87322 0.38239 0.18187 0.0
H433 H 0.88956 0.3158 0.15877 0.0
H434 H 0.25251 0.66884 0.17104 0.0
H435 H 0.28148 0.61139 0.14908 0.0
H436 H 0.1893 0.64306 0.21424 0.0
H437 H 0.0894 0.61462 0.22382 0.0
C438 C 0.34662 0.89555 0.47436 0.0
C439 C 0.31788 0.81225 0.46943 0.0
C440 C 0.42307 0.81798 0.50501 0.0
C441 C 0.45694 0.90244 0.50657 0.0
N442 N 0.42626 0.01076 0.50792 0.0
N443 N 0.3236 0.69139 0.48293 0.0
C444 C 0.41203 0.93884 0.49557 0.0
C445 C 0.35455 0.77267 0.48573 0.0
N446 N 0.31223 0.93354 0.45846 0.0
N447 N 0.45241 0.78079 0.52451 0.0
H448 H 0.26625 0.65408 0.47443 0.0
H449 H 0.35445 0.66093 0.48893 0.0
H450 H 0.49795 0.81277 0.54104 0.0
H451 H 0.42662 0.71853 0.52721 0.0
H452 H 0.33617 -0.004 0.4585 0.0
H453 H 0.26341 0.90308 0.44313 0.0
H454 H 0.39156 0.03773 0.50274 0.0
H455 H 0.46507 0.03694 0.527 0.0
C456 C 0.26635 0.25243 0.98151 0.0
C457 C 0.33749 0.31168 0.96531 0.0
C458 C 0.38093 0.38484 1.01607 0.0
C459 C 0.30411 0.33644 0.03037 0.0
N460 N 0.16612 0.23068 1.02204 0.0
N461 N 0.44423 0.4523 0.96738 0.0
C462 C 0.24431 0.27183 1.01183 0.0
C463 C 0.38937 0.38327 0.98261 0.0
N464 N 0.22138 0.17672 0.96929 0.0
N465 N 0.44724 0.43124 0.0342 0.0
H466 H 0.4454 0.45908 0.94275 0.0
H467 H 0.47956 0.50623 0.97956 0.0
H468 H 0.4463 0.42778 0.05906 0.0
H469 H 0.50487 0.46408 1.02424 0.0
H470 H 0.1732 0.13043 0.98174 0.0
H471 H 0.23758 0.15708 0.94886 0.0
H472 H 0.11979 0.18817 1.00789 0.0
H473 H 0.14606 0.24499 0.04285 0.0
C474 C 0.94458 0.04688 0.34265 0.0
C475 C 0.93632 0.10508 0.36098 0.0
C476 C 0.98449 0.19977 0.31558 0.0
C477 C 0.98888 0.13994 0.29682 0.0
N478 N 0.96387 0.00359 0.29048 0.0
N479 N 0.93967 0.23311 0.36481 0.0
C480 C 0.9663 0.06261 0.30982 0.0
C481 C 0.95375 0.18054 0.34738 0.0
N482 N 0.93325 0.97723 0.35691 0.0
N483 N 0.01133 0.27538 0.30308 0.0
H484 H 0.91984 0.22216 0.38848 0.0
H485 H 0.94294 0.2854 0.35552 0.0
H486 H 0.03232 0.29082 0.27967 0.0
H487 H 0.01758 0.32446 0.31621 0.0
H488 H 0.94745 0.93658 0.34613 0.0
H489 H 0.91424 0.96208 0.38054 0.0
H490 H 0.93926 0.94335 0.29732 0.0
H491 H 0.98158 0.01346 0.26656 0.0
C492 C 0.60957 0.89535 0.66918 0.0
C493 C 0.6372 0.94941 0.69541 0.0
C494 C 0.70042 0.06412 0.65749 0.0
C495 C 0.66437 0.01046 0.63149 0.0
N496 N 0.57393 0.87517 0.61316 0.0
N497 N 0.70204 0.08666 0.71454 0.0
C498 C 0.61663 0.92599 0.63747 0.0
C499 C 0.68151 0.03424 0.68956 0.0
N500 N 0.57787 0.81435 0.67456 0.0
N501 N 0.75431 0.14361 0.65148 0.0
H502 H 0.69141 0.06769 0.73826 0.0
H503 H 0.72452 0.14853 0.71174 0.0
H504 H 0.76968 0.16731 0.62841 0.0
H505 H 0.78906 0.18438 0.66908 0.0
H506 H 0.56402 0.77238 0.65637 0.0
H507 H 0.57287 0.78999 0.69735 0.0
H508 H 0.53059 0.81482 0.61666 0.0
H509 H 0.57628 0.89475 0.58973 0.0
C510 C 0.90246 0.85355 0.97404 0.0
C511 C 0.82939 0.85057 0.965 0.0
C512 C 0.77774 0.81264 1.01991 0.0
C513 C 0.85298 0.82119 1.02942 0.0
N514 N 0.99165 0.86293 1.01699 0.0
N515 N 0.70091 0.83706 0.97953 0.0
C516 C 0.91661 0.84505 1.00683 0.0
C517 C 0.768 0.83303 0.98805 0.0
N518 N 0.95785 0.86322 0.95114 0.0
N519 N 0.71483 0.7825 0.04114 0.0
H520 H 0.69016 0.8484 0.9562 0.0
H521 H 0.65844 0.83475 0.99578 0.0
H522 H 0.719 0.76516 0.06436 0.0
H523 H 0.65685 0.76955 0.03531 0.0
H524 H 0.00803 0.85671 0.95555 0.0
H525 H 0.95061 0.87184 0.92705 0.0
H526 H 0.04276 0.88918 1.00246 0.0
H527 H 0.00452 0.85802 0.04079 0.0
C528 C 0.98081 0.70141 0.34647 0.0
C529 C 0.9926 0.64294 0.36336 0.0
C530 C 0.95104 0.55866 0.31531 0.0
C531 C 0.92636 0.60967 0.30015 0.0
N532 N 0.90224 0.72266 0.3061 0.0
N533 N 0.95729 0.50146 0.36552 0.0
C534 C 0.93687 0.67938 0.31702 0.0
C535 C 0.96799 0.56718 0.34834 0.0
N536 N 0.01361 0.77857 0.35756 0.0
N537 N 0.96202 0.50378 0.2982 0.0
H538 H 0.96216 0.50161 0.3902 0.0
H539 H 0.93285 0.44388 0.35563 0.0
H540 H 0.96206 0.50268 0.27332 0.0
H541 H 0.98233 0.46726 0.30855 0.0
H542 H 0.0126 0.82485 0.34458 0.0
H543 H 0.04925 0.79834 0.37792 0.0
H544 H 0.90263 0.76956 0.31905 0.0
H545 H 0.8653 0.70604 0.28611 0.0
C546 C 0.09342 0.93673 0.68481 0.0
C547 C 0.15325 0.01767 0.6913 0.0
C548 C 0.17141 0.04683 0.63353 0.0
C549 C 0.11616 0.96428 0.62701 0.0
N550 N 0.03021 0.82837 0.64628 0.0
N551 N 0.2549 0.14841 0.67241 0.0
C552 C 0.07854 0.90868 0.65265 0.0
C553 C 0.19384 0.07235 0.66577 0.0
N554 N 0.04899 0.88724 0.70945 0.0
N555 N 0.20028 0.10127 0.60888 0.0
H556 H 0.27237 0.16927 0.69562 0.0
H557 H 0.2917 0.18944 0.6551 0.0
H558 H 0.18514 0.08476 0.58512 0.0
H559 H 0.23412 0.16352 0.61187 0.0
H560 H -0.00188 0.83088 0.7063 0.0
H561 H 0.05933 0.90483 0.7333 0.0
H562 H 0.00941 0.78321 0.66364 0.0
H563 H 0.01535 0.80566 0.62321 0.0
loop_
_geom_bond_atom_site_label_1
_geom_bond_atom_site_label_2
_geom_bond_distance
_geom_bond_site_symmetry_2
_ccdc_geom_bond_type
Pr0 C2 2.880 . S
Pr0 O20 2.562 . S
Pr0 O21 2.490 . S
Pr0 O22 2.695 . S
Pr0 O23 2.512 . S
Pr0 O25 2.437 . S
Pr0 O28 2.436 . S
Pr0 O30 2.438 . S
Pr1 C11 2.880 . S
Pr1 O22 2.436 . S
Pr1 O24 2.438 . S
Pr1 O26 2.562 . S
Pr1 O27 2.490 . S
Pr1 O28 2.695 . S
Pr1 O29 2.512 . S
Pr1 O31 2.437 . S
C2 Pr0 2.880 . S
C2 C3 1.491 1_554 S
C2 O20 1.254 . S
C2 O21 1.225 . S
C3 C2 1.491 1_556 S
C3 C4 1.392 . S
C3 C8 1.356 . S
C4 C3 1.392 . S
C4 C5 1.368 . S
C4 H32 0.929 . S
C5 C4 1.368 . S
C5 C6 1.386 . S
C5 H33 0.929 . S
C6 C5 1.386 . S
C6 C7 1.373 . S
C7 C6 1.373 . S
C7 C8 1.409 . S
C7 H34 0.931 . S
C8 C3 1.356 . S
C8 C7 1.409 . S
C8 H35 0.930 . S
C9 O22 1.270 . S
C9 O23 1.248 . S
C10 O24 1.267 . S
C10 O25 1.278 . S
C11 Pr1 2.880 . S
C11 C12 1.491 . S
C11 O26 1.254 . S
C11 O27 1.225 . S
C12 C11 1.491 . S
C12 C13 1.392 . S
C12 C17 1.356 . S
C13 C12 1.392 . S
C13 C14 1.368 . S
C13 H36 0.929 . S
C14 C13 1.368 . S
C14 C15 1.386 . S
C14 H37 0.929 . S
C15 C14 1.386 . S
C15 C16 1.373 . S
C16 C15 1.373 . S
C16 C17 1.409 . S
C16 H38 0.931 . S
C17 C12 1.356 . S
C17 C16 1.409 . S
C17 H39 0.930 . S
C18 O28 1.270 . S
C18 O29 1.248 . S
C19 O30 1.267 . S
C19 O31 1.278 . S
O20 Pr0 2.562 . S
O20 C2 1.254 . S
O21 Pr0 2.490 . S
O21 C2 1.225 . S
O22 Pr0 2.695 . S
O22 Pr1 2.436 . S
O22 C9 1.270 . S
O23 Pr0 2.512 . S
O23 C9 1.248 . S
O24 Pr1 2.438 . S
O24 C10 1.267 . S
O25 Pr0 2.437 . S
O25 C10 1.278 . S
O26 Pr1 2.562 . S
O26 C11 1.254 . S
O27 Pr1 2.490 . S
O27 C11 1.225 . S
O28 Pr0 2.436 . S
O28 Pr1 2.695 . S
O28 C18 1.270 . S
O29 Pr1 2.512 . S
O29 C18 1.248 . S
O30 Pr0 2.438 . S
O30 C19 1.267 . S
O31 Pr1 2.437 . S
O31 C19 1.278 . S
H32 C4 0.929 . S
H33 C5 0.929 . S
H34 C7 0.931 . S
H35 C8 0.930 . S
H36 C13 0.929 . S
H37 C14 0.929 . S
H38 C16 0.931 . S
H39 C17 0.930 . S
Pr40 C42 2.880 . S
Pr40 O60 2.562 . S
Pr40 O61 2.490 . S
Pr40 O62 2.695 . S
Pr40 O63 2.512 . S
Pr40 O65 2.437 . S
Pr40 O68 2.436 1_545 S
Pr40 O70 2.438 . S
Pr41 C51 2.880 . S
Pr41 O62 2.436 . S
Pr41 O64 2.438 1_545 S
Pr41 O66 2.562 . S
Pr41 O67 2.490 1_545 S
Pr41 O68 2.695 1_545 S
Pr41 O69 2.512 1_545 S
Pr41 O71 2.437 . S
C42 Pr40 2.880 . S
C42 C43 1.491 . S
C42 O60 1.254 . S
C42 O61 1.225 . S
C43 C42 1.491 . S
C43 C44 1.392 . S
C43 C48 1.356 . S
C44 C43 1.392 . S
C44 C45 1.368 . S
C44 H72 0.929 . S
C45 C44 1.368 . S
C45 C46 1.386 . S
C45 H73 0.929 . S
C46 C45 1.386 . S
C46 C47 1.373 . S
C47 C46 1.373 . S
C47 C48 1.409 . S
C47 H74 0.931 1_545 S
C48 C43 1.356 . S
C48 C47 1.409 . S
C48 H75 0.930 1_545 S
C49 O62 1.270 . S
C49 O63 1.248 . S
C50 O64 1.267 1_545 S
C50 O65 1.278 . S
C51 Pr41 2.880 . S
C51 C52 1.491 . S
C51 O66 1.254 . S
C51 O67 1.225 1_545 S
C52 C51 1.491 . S
C52 C53 1.392 1_545 S
C52 C57 1.356 . S
C53 C52 1.392 1_565 S
C53 C54 1.368 . S
C53 H76 0.929 . S
C54 C53 1.368 . S
C54 C55 1.386 1_565 S
C54 H77 0.929 . S
C55 C54 1.386 1_545 S
C55 C56 1.373 . S
C56 C55 1.373 . S
C56 C57 1.409 . S
C56 H78 0.931 . S
C57 C52 1.356 . S
C57 C56 1.409 . S
C57 H79 0.930 . S
C58 O68 1.270 . S
C58 O69 1.248 . S
C59 O70 1.267 . S
C59 O71 1.278 . S
O60 Pr40 2.562 . S
O60 C42 1.254 . S
O61 Pr40 2.490 . S
O61 C42 1.225 . S
O62 Pr40 2.695 . S
O62 Pr41 2.436 . S
O62 C49 1.270 . S
O63 Pr40 2.512 . S
O63 C49 1.248 . S
O64 Pr41 2.438 1_565 S
O64 C50 1.267 1_565 S
O65 Pr40 2.437 . S
O65 C50 1.278 . S
O66 Pr41 2.562 . S
O66 C51 1.254 . S
O67 Pr41 2.490 1_565 S
O67 C51 1.225 1_565 S
O68 Pr40 2.436 1_565 S
O68 Pr41 2.695 1_565 S
O68 C58 1.270 . S
O69 Pr41 2.512 1_565 S
O69 C58 1.248 . S
O70 Pr40 2.438 . S
O70 C59 1.267 . S
O71 Pr41 2.437 . S
O71 C59 1.278 . S
H72 C44 0.929 . S
H73 C45 0.929 . S
H74 C47 0.931 1_565 S
H75 C48 0.930 1_565 S
H76 C53 0.929 . S
H77 C54 0.929 . S
H78 C56 0.931 . S
H79 C57 0.930 . S
Pr80 C82 2.880 . S
Pr80 O100 2.562 . S
Pr80 O101 2.490 . S
Pr80 O102 2.695 . S
Pr80 O103 2.512 . S
Pr80 O105 2.437 . S
Pr80 O108 2.436 . S
Pr80 O110 2.438 . S
Pr81 C91 2.880 . S
Pr81 O102 2.436 . S
Pr81 O104 2.438 . S
Pr81 O106 2.562 . S
Pr81 O107 2.490 1_565 S
Pr81 O108 2.695 . S
Pr81 O109 2.512 1_565 S
Pr81 O111 2.437 . S
C82 Pr80 2.880 . S
C82 C83 1.491 . S
C82 O100 1.254 . S
C82 O101 1.225 . S
C83 C82 1.491 . S
C83 C84 1.392 . S
C83 C88 1.356 . S
C84 C83 1.392 . S
C84 C85 1.368 . S
C84 H112 0.929 . S
C85 C84 1.368 . S
C85 C86 1.386 . S
C85 H113 0.929 . S
C86 C85 1.386 . S
C86 C87 1.373 . S
C87 C86 1.373 . S
C87 C88 1.409 . S
C87 H114 0.931 . S
C88 C83 1.356 . S
C88 C87 1.409 . S
C88 H115 0.930 . S
C89 O102 1.270 . S
C89 O103 1.248 . S
C90 O104 1.267 . S
C90 O105 1.278 . S
C91 Pr81 2.880 . S
C91 C92 1.491 . S
C91 O106 1.254 . S
C91 O107 1.225 1_565 S
C92 C91 1.491 . S
C92 C93 1.392 1_565 S
C92 C97 1.356 . S
C93 C92 1.392 1_545 S
C93 C94 1.368 . S
C93 H116 0.929 . S
C94 C93 1.368 . S
C94 C95 1.386 1_545 S
C94 H117 0.929 . S
C95 C94 1.386 1_565 S
C95 C96 1.373 . S
C96 C95 1.373 . S
C96 C97 1.409 . S
C96 H118 0.931 . S
C97 C92 1.356 . S
C97 C96 1.409 . S
C97 H119 0.930 . S
C98 O108 1.270 1_545 S
C98 O109 1.248 . S
C99 O110 1.267 . S
C99 O111 1.278 . S
O100 Pr80 2.562 . S
O100 C82 1.254 . S
O101 Pr80 2.490 . S
O101 C82 1.225 . S
O102 Pr80 2.695 . S
O102 Pr81 2.436 . S
O102 C89 1.270 . S
O103 Pr80 2.512 . S
O103 C89 1.248 . S
O104 Pr81 2.438 . S
O104 C90 1.267 . S
O105 Pr80 2.437 . S
O105 C90 1.278 . S
O106 Pr81 2.562 . S
O106 C91 1.254 . S
O107 Pr81 2.490 1_545 S
O107 C91 1.225 1_545 S
O108 Pr80 2.436 . S
O108 Pr81 2.695 . S
O108 C98 1.270 1_565 S
O109 Pr81 2.512 1_545 S
O109 C98 1.248 . S
O110 Pr80 2.438 . S
O110 C99 1.267 . S
O111 Pr81 2.437 . S
O111 C99 1.278 . S
H112 C84 0.929 . S
H113 C85 0.929 . S
H114 C87 0.931 . S
H115 C88 0.930 . S
H116 C93 0.929 . S
H117 C94 0.929 . S
H118 C96 0.931 . S
H119 C97 0.930 . S
Pr120 C122 2.880 . S
Pr120 O140 2.562 . S
Pr120 O141 2.490 . S
Pr120 O142 2.695 . S
Pr120 O143 2.512 . S
Pr120 O145 2.437 . S
Pr120 O148 2.436 . S
Pr120 O150 2.438 . S
Pr121 C131 2.880 . S
Pr121 O142 2.436 . S
Pr121 O144 2.438 . S
Pr121 O146 2.562 . S
Pr121 O147 2.490 1_655 S
Pr121 O148 2.695 . S
Pr121 O149 2.512 1_655 S
Pr121 O151 2.437 . S
C122 Pr120 2.880 . S
C122 C123 1.491 . S
C122 O140 1.254 . S
C122 O141 1.225 . S
C123 C122 1.491 . S
C123 C124 1.392 . S
C123 C128 1.356 . S
C124 C123 1.392 . S
C124 C125 1.368 . S
C124 H152 0.929 . S
C125 C124 1.368 . S
C125 C126 1.386 . S
C125 H153 0.929 . S
C126 C125 1.386 . S
C126 C127 1.373 . S
C127 C126 1.373 . S
C127 C128 1.409 . S
C127 H154 0.931 . S
C128 C123 1.356 . S
C128 C127 1.409 . S
C128 H155 0.930 . S
C129 O142 1.270 . S
C129 O143 1.248 . S
C130 O144 1.267 . S
C130 O145 1.278 . S
C131 Pr121 2.880 . S
C131 C132 1.491 . S
C131 O146 1.254 . S
C131 O147 1.225 1_655 S
C132 C131 1.491 . S
C132 C133 1.392 1_655 S
C132 C137 1.356 . S
C133 C132 1.392 1_455 S
C133 C134 1.368 . S
C133 H156 0.929 . S
C134 C133 1.368 . S
C134 C135 1.386 1_455 S
C134 H157 0.929 . S
C135 C134 1.386 1_655 S
C135 C136 1.373 . S
C136 C135 1.373 . S
C136 C137 1.409 . S
C136 H158 0.931 . S
C137 C132 1.356 . S
C137 C136 1.409 . S
C137 H159 0.930 . S
C138 O148 1.270 1_455 S
C138 O149 1.248 . S
C139 O150 1.267 . S
C139 O151 1.278 . S
O140 Pr120 2.562 . S
O140 C122 1.254 . S
O141 Pr120 2.490 . S
O141 C122 1.225 . S
O142 Pr120 2.695 . S
O142 Pr121 2.436 . S
O142 C129 1.270 . S
O143 Pr120 2.512 . S
O143 C129 1.248 . S
O144 Pr121 2.438 . S
O144 C130 1.267 . S
O145 Pr120 2.437 . S
O145 C130 1.278 . S
O146 Pr121 2.562 . S
O146 C131 1.254 . S
O147 Pr121 2.490 1_455 S
O147 C131 1.225 1_455 S
O148 Pr120 2.436 . S
O148 Pr121 2.695 . S
O148 C138 1.270 1_655 S
O149 Pr121 2.512 1_455 S
O149 C138 1.248 . S
O150 Pr120 2.438 . S
O150 C139 1.267 . S
O151 Pr121 2.437 . S
O151 C139 1.278 . S
H152 C124 0.929 . S
H153 C125 0.929 . S
H154 C127 0.931 . S
H155 C128 0.930 . S
H156 C133 0.929 . S
H157 C134 0.929 . S
H158 C136 0.931 . S
H159 C137 0.930 . S
Pr160 C162 2.880 . S
Pr160 O180 2.562 . S
Pr160 O181 2.490 . S
Pr160 O182 2.695 . S
Pr160 O183 2.512 . S
Pr160 O185 2.437 . S
Pr160 O188 2.436 1_455 S
Pr160 O190 2.438 . S
Pr161 C171 2.880 . S
Pr161 O182 2.436 . S
Pr161 O184 2.438 1_455 S
Pr161 O186 2.562 . S
Pr161 O187 2.490 1_455 S
Pr161 O188 2.695 1_455 S
Pr161 O189 2.512 1_455 S
Pr161 O191 2.437 . S
C162 Pr160 2.880 . S
C162 C163 1.491 . S
C162 O180 1.254 . S
C162 O181 1.225 . S
C163 C162 1.491 . S
C163 C164 1.392 . S
C163 C168 1.356 . S
C164 C163 1.392 . S
C164 C165 1.368 . S
C164 H192 0.929 . S
C165 C164 1.368 . S
C165 C166 1.386 . S
C165 H193 0.929 . S
C166 C165 1.386 . S
C166 C167 1.373 . S
C167 C166 1.373 . S
C167 C168 1.409 . S
C167 H194 0.931 1_455 S
C168 C163 1.356 . S
C168 C167 1.409 . S
C168 H195 0.930 1_455 S
C169 O182 1.270 . S
C169 O183 1.248 . S
C170 O184 1.267 1_455 S
C170 O185 1.278 . S
C171 Pr161 2.880 . S
C171 C172 1.491 . S
C171 O186 1.254 . S
C171 O187 1.225 1_455 S
C172 C171 1.491 . S
C172 C173 1.392 1_455 S
C172 C177 1.356 . S
C173 C172 1.392 1_655 S
C173 C174 1.368 . S
C173 H196 0.929 . S
C174 C173 1.368 . S
C174 C175 1.386 1_655 S
C174 H197 0.929 . S
C175 C174 1.386 1_455 S
C175 C176 1.373 . S
C176 C175 1.373 . S
C176 C177 1.409 . S
C176 H198 0.931 . S
C177 C172 1.356 . S
C177 C176 1.409 . S
C177 H199 0.930 . S
C178 O188 1.270 . S
C178 O189 1.248 . S
C179 O190 1.267 . S
C179 O191 1.278 . S
O180 Pr160 2.562 . S
O180 C162 1.254 . S
O181 Pr160 2.490 . S
O181 C162 1.225 . S
O182 Pr160 2.695 . S
O182 Pr161 2.436 . S
O182 C169 1.270 . S
O183 Pr160 2.512 . S
O183 C169 1.248 . S
O184 Pr161 2.438 1_655 S
O184 C170 1.267 1_655 S
O185 Pr160 2.437 . S
O185 C170 1.278 . S
O186 Pr161 2.562 . S
O186 C171 1.254 . S
O187 Pr161 2.490 1_655 S
O187 C171 1.225 1_655 S
O188 Pr160 2.436 1_655 S
O188 Pr161 2.695 1_655 S
O188 C178 1.270 . S
O189 Pr161 2.512 1_655 S
O189 C178 1.248 . S
O190 Pr160 2.438 . S
O190 C179 1.267 . S
O191 Pr161 2.437 . S
O191 C179 1.278 . S
H192 C164 0.929 . S
H193 C165 0.929 . S
H194 C167 0.931 1_655 S
H195 C168 0.930 1_655 S
H196 C173 0.929 . S
H197 C174 0.929 . S
H198 C176 0.931 . S
H199 C177 0.930 . S
Pr200 C202 2.880 . S
Pr200 O220 2.562 . S
Pr200 O221 2.490 . S
Pr200 O222 2.695 . S
Pr200 O223 2.512 . S
Pr200 O225 2.437 . S
Pr200 O228 2.436 . S
Pr200 O230 2.438 . S
Pr201 C211 2.880 . S
Pr201 O222 2.436 . S
Pr201 O224 2.438 . S
Pr201 O226 2.562 . S
Pr201 O227 2.490 . S
Pr201 O228 2.695 . S
Pr201 O229 2.512 . S
Pr201 O231 2.437 . S
C202 Pr200 2.880 . S
C202 C203 1.491 . S
C202 O220 1.254 . S
C202 O221 1.225 . S
C203 C202 1.491 . S
C203 C204 1.392 . S
C203 C208 1.356 . S
C204 C203 1.392 . S
C204 C205 1.368 . S
C204 H232 0.929 . S
C205 C204 1.368 . S
C205 C206 1.392 . S
C205 H233 0.929 . S
C206 C205 1.392 . S
C206 C207 1.380 . S
C207 C206 1.380 . S
C207 C208 1.409 . S
C207 H234 0.931 . S
C208 C203 1.356 . S
C208 C207 1.409 . S
C208 H235 0.930 . S
C209 O222 1.270 . S
C209 O223 1.248 . S
C210 O224 1.267 . S
C210 O225 1.278 . S
C211 Pr201 2.880 . S
C211 C212 1.491 . S
C211 O226 1.254 . S
C211 O227 1.225 . S
C212 C211 1.491 . S
C212 C213 1.392 . S
C212 C217 1.356 . S
C213 C212 1.392 . S
C213 C214 1.368 . S
C213 H236 0.929 . S
C214 C213 1.368 . S
C214 C215 1.386 . S
C214 H237 0.929 . S
C215 C214 1.386 . S
C215 C216 1.373 . S
C216 C215 1.373 . S
C216 C217 1.409 . S
C216 H238 0.931 . S
C217 C212 1.356 . S
C217 C216 1.409 . S
C217 H239 0.930 . S
C218 O228 1.270 . S
C218 O229 1.248 . S
C219 O230 1.267 . S
C219 O231 1.278 . S
O220 Pr200 2.562 . S
O220 C202 1.254 . S
O221 Pr200 2.490 . S
O221 C202 1.225 . S
O222 Pr200 2.695 . S
O222 Pr201 2.436 . S
O222 C209 1.270 . S
O223 Pr200 2.512 . S
O223 C209 1.248 . S
O224 Pr201 2.438 . S
O224 C210 1.267 . S
O225 Pr200 2.437 . S
O225 C210 1.278 . S
O226 Pr201 2.562 . S
O226 C211 1.254 . S
O227 Pr201 2.490 . S
O227 C211 1.225 . S
O228 Pr200 2.436 . S
O228 Pr201 2.695 . S
O228 C218 1.270 . S
O229 Pr201 2.512 . S
O229 C218 1.248 . S
O230 Pr200 2.438 . S
O230 C219 1.267 . S
O231 Pr201 2.437 . S
O231 C219 1.278 . S
H232 C204 0.929 . S
H233 C205 0.929 . S
H234 C207 0.931 . S
H235 C208 0.930 . S
H236 C213 0.929 . S
H237 C214 0.929 . S
H238 C216 0.931 . S
H239 C217 0.930 . S
C240 C241 1.363 . S
C240 C246 1.379 . S
C240 N248 1.356 . S
C241 C240 1.363 . S
C241 C247 1.363 . S
C242 C243 1.363 . S
C242 C247 1.379 . S
C242 N249 1.356 . S
C243 C242 1.363 . S
C243 C246 1.363 . S
N244 C246 1.356 . S
N244 H256 0.984 . S
N244 H257 0.985 . S
N245 C247 1.356 . S
N245 H250 0.984 . S
N245 H251 0.985 . S
C246 C240 1.379 . S
C246 C243 1.363 . S
C246 N244 1.356 . S
C247 C241 1.363 . S
C247 C242 1.379 . S
C247 N245 1.356 . S
N248 C240 1.356 . S
N248 H254 0.984 . S
N248 H255 0.984 . S
N249 C242 1.356 . S
N249 H252 0.984 . S
N249 H253 0.985 . S
H250 N245 0.984 . S
H251 N245 0.985 . S
H252 N249 0.984 . S
H253 N249 0.985 . S
H254 N248 0.984 . S
H255 N248 0.984 . S
H256 N244 0.984 . S
H257 N244 0.985 . S
C258 C259 1.363 . S
C258 C264 1.379 . S
C258 N266 1.356 . S
C259 C258 1.363 . S
C259 C265 1.363 . S
C260 C261 1.363 . S
C260 C265 1.379 . S
C260 N267 1.356 . S
C261 C260 1.363 . S
C261 C264 1.363 . S
N262 C264 1.356 . S
N262 H274 0.984 . S
N262 H275 0.985 . S
N263 C265 1.356 . S
N263 H268 0.984 . S
N263 H269 0.985 . S
C264 C258 1.379 . S
C264 C261 1.363 . S
C264 N262 1.356 . S
C265 C259 1.363 . S
C265 C260 1.379 . S
C265 N263 1.356 . S
N266 C258 1.356 . S
N266 H272 0.984 . S
N266 H273 0.984 . S
N267 C260 1.356 . S
N267 H270 0.984 . S
N267 H271 0.985 . S
H268 N263 0.984 . S
H269 N263 0.985 . S
H270 N267 0.984 . S
H271 N267 0.985 . S
H272 N266 0.984 . S
H273 N266 0.984 . S
H274 N262 0.984 . S
H275 N262 0.985 . S
C276 C277 1.363 . S
C276 C282 1.379 . S
C276 N284 1.356 . S
C277 C276 1.363 . S
C277 C283 1.363 . S
C278 C279 1.363 . S
C278 C283 1.379 . S
C278 N285 1.356 . S
C279 C278 1.363 . S
C279 C282 1.363 . S
N280 C282 1.356 . S
N280 H292 0.984 . S
N280 H293 0.985 . S
N281 C283 1.356 . S
N281 H286 0.984 . S
N281 H287 0.985 . S
C282 C276 1.379 . S
C282 C279 1.363 . S
C282 N280 1.356 . S
C283 C277 1.363 . S
C283 C278 1.379 . S
C283 N281 1.356 . S
N284 C276 1.356 . S
N284 H290 0.984 . S
N284 H291 0.984 . S
N285 C278 1.356 . S
N285 H288 0.984 . S
N285 H289 0.985 . S
H286 N281 0.984 . S
H287 N281 0.985 . S
H288 N285 0.984 . S
H289 N285 0.985 . S
H290 N284 0.984 . S
H291 N284 0.984 . S
H292 N280 0.984 . S
H293 N280 0.985 . S
C294 C295 1.363 . S
C294 C300 1.379 . S
C294 N302 1.356 . S
C295 C294 1.363 . S
C295 C301 1.363 . S
C296 C297 1.363 . S
C296 C301 1.379 . S
C296 N303 1.356 . S
C297 C296 1.363 . S
C297 C300 1.363 . S
N298 C300 1.356 . S
N298 H310 0.984 . S
N298 H311 0.985 . S
N299 C301 1.356 . S
N299 H304 0.984 . S
N299 H305 0.985 . S
C300 C294 1.379 . S
C300 C297 1.363 . S
C300 N298 1.356 . S
C301 C295 1.363 . S
C301 C296 1.379 . S
C301 N299 1.356 . S
N302 C294 1.356 . S
N302 H308 0.984 . S
N302 H309 0.984 . S
N303 C296 1.356 . S
N303 H306 0.984 . S
N303 H307 0.985 . S
H304 N299 0.984 . S
H305 N299 0.985 . S
H306 N303 0.984 . S
H307 N303 0.985 . S
H308 N302 0.984 . S
H309 N302 0.984 . S
H310 N298 0.984 . S
H311 N298 0.985 . S
C312 C313 1.363 . S
C312 C318 1.379 . S
C312 N320 1.356 . S
C313 C312 1.363 . S
C313 C319 1.363 . S
C314 C315 1.363 . S
C314 C319 1.379 . S
C314 N321 1.356 . S
C315 C314 1.363 . S
C315 C318 1.363 . S
N316 C318 1.356 . S
N316 H328 0.984 . S
N316 H329 0.985 . S
N317 C319 1.356 . S
N317 H322 0.984 . S
N317 H323 0.985 . S
C318 C312 1.379 . S
C318 C315 1.363 . S
C318 N316 1.356 . S
C319 C313 1.363 . S
C319 C314 1.379 . S
C319 N317 1.356 . S
N320 C312 1.356 . S
N320 H326 0.984 . S
N320 H327 0.984 . S
N321 C314 1.356 . S
N321 H324 0.984 . S
N321 H325 0.985 . S
H322 N317 0.984 . S
H323 N317 0.985 . S
H324 N321 0.984 . S
H325 N321 0.985 . S
H326 N320 0.984 . S
H327 N320 0.984 . S
H328 N316 0.984 . S
H329 N316 0.985 . S
C330 C331 1.363 . S
C330 C336 1.379 . S
C330 N338 1.356 . S
C331 C330 1.363 . S
C331 C337 1.363 . S
C332 C333 1.363 . S
C332 C337 1.379 . S
C332 N339 1.356 . S
C333 C332 1.363 . S
C333 C336 1.363 . S
N334 C336 1.356 . S
N334 H346 0.984 . S
N334 H347 0.985 . S
N335 C337 1.356 . S
N335 H340 0.984 . S
N335 H341 0.985 . S
C336 C330 1.379 . S
C336 C333 1.363 . S
C336 N334 1.356 . S
C337 C331 1.363 . S
C337 C332 1.379 . S
C337 N335 1.356 . S
N338 C330 1.356 . S
N338 H344 0.984 . S
N338 H345 0.984 . S
N339 C332 1.356 . S
N339 H342 0.984 1_554 S
N339 H343 0.985 1_554 S
H340 N335 0.984 . S
H341 N335 0.985 . S
H342 N339 0.984 1_556 S
H343 N339 0.985 1_556 S
H344 N338 0.984 . S
H345 N338 0.984 . S
H346 N334 0.984 . S
H347 N334 0.985 . S
C348 C349 1.363 . S
C348 C354 1.379 . S
C348 N356 1.356 . S
C349 C348 1.363 . S
C349 C355 1.363 . S
C350 C351 1.363 . S
C350 C355 1.379 . S
C350 N357 1.356 . S
C351 C350 1.363 . S
C351 C354 1.363 . S
N352 C354 1.356 . S
N352 H364 0.984 . S
N352 H365 0.985 . S
N353 C355 1.356 . S
N353 H358 0.984 . S
N353 H359 0.985 . S
C354 C348 1.379 . S
C354 C351 1.363 . S
C354 N352 1.356 . S
C355 C349 1.363 . S
C355 C350 1.379 . S
C355 N353 1.356 . S
N356 C348 1.356 . S
N356 H362 0.984 . S
N356 H363 0.984 . S
N357 C350 1.356 . S
N357 H360 0.984 . S
N357 H361 0.985 . S
H358 N353 0.984 . S
H359 N353 0.985 . S
H360 N357 0.984 . S
H361 N357 0.985 . S
H362 N356 0.984 . S
H363 N356 0.984 . S
H364 N352 0.984 . S
H365 N352 0.985 . S
C366 C367 1.363 . S
C366 C372 1.379 . S
C366 N374 1.356 . S
C367 C366 1.363 . S
C367 C373 1.363 . S
C368 C369 1.363 . S
C368 C373 1.379 . S
C368 N375 1.356 . S
C369 C368 1.363 . S
C369 C372 1.363 . S
N370 C372 1.356 . S
N370 H382 0.984 . S
N370 H383 0.985 . S
N371 C373 1.356 . S
N371 H376 0.984 . S
N371 H377 0.985 . S
C372 C366 1.379 . S
C372 C369 1.363 . S
C372 N370 1.356 . S
C373 C367 1.363 . S
C373 C368 1.379 . S
C373 N371 1.356 . S
N374 C366 1.356 . S
N374 H380 0.984 1_655 S
N374 H381 0.984 . S
N375 C368 1.356 . S
N375 H378 0.984 . S
N375 H379 0.985 . S
H376 N371 0.984 . S
H377 N371 0.985 . S
H378 N375 0.984 . S
H379 N375 0.985 . S
H380 N374 0.984 1_455 S
H381 N374 0.984 . S
H382 N370 0.984 . S
H383 N370 0.985 . S
C384 C385 1.363 . S
C384 C390 1.379 . S
C384 N392 1.356 . S
C385 C384 1.363 . S
C385 C391 1.363 . S
C386 C387 1.363 . S
C386 C391 1.379 . S
C386 N393 1.356 . S
C387 C386 1.363 . S
C387 C390 1.363 . S
N388 C390 1.356 1_565 S
N388 H400 0.984 . S
N388 H401 0.985 . S
N389 C391 1.356 . S
N389 H394 0.984 . S
N389 H395 0.985 . S
C390 C384 1.379 . S
C390 C387 1.363 . S
C390 N388 1.356 1_545 S
C391 C385 1.363 . S
C391 C386 1.379 . S
C391 N389 1.356 . S
N392 C384 1.356 . S
N392 H398 0.984 1_545 S
N392 H399 0.984 . S
N393 C386 1.356 . S
N393 H396 0.984 . S
N393 H397 0.985 . S
H394 N389 0.984 . S
H395 N389 0.985 . S
H396 N393 0.984 . S
H397 N393 0.985 . S
H398 N392 0.984 1_565 S
H399 N392 0.984 . S
H400 N388 0.984 . S
H401 N388 0.985 . S
C402 C403 1.363 . S
C402 C408 1.379 . S
C402 N410 1.356 . S
C403 C402 1.363 . S
C403 C409 1.363 . S
C404 C405 1.363 . S
C404 C409 1.379 . S
C404 N411 1.356 . S
C405 C404 1.363 . S
C405 C408 1.363 . S
N406 C408 1.356 . S
N406 H418 0.984 . S
N406 H419 0.985 . S
N407 C409 1.356 . S
N407 H412 0.984 . S
N407 H413 0.985 . S
C408 C402 1.379 . S
C408 C405 1.363 . S
C408 N406 1.356 . S
C409 C403 1.363 . S
C409 C404 1.379 . S
C409 N407 1.356 . S
N410 C402 1.356 . S
N410 H416 0.984 . S
N410 H417 0.984 . S
N411 C404 1.356 . S
N411 H414 0.984 . S
N411 H415 0.985 . S
H412 N407 0.984 . S
H413 N407 0.985 . S
H414 N411 0.984 . S
H415 N411 0.985 . S
H416 N410 0.984 . S
H417 N410 0.984 . S
H418 N406 0.984 . S
H419 N406 0.985 . S
C420 C421 1.363 . S
C420 C426 1.379 . S
C420 N428 1.356 . S
C421 C420 1.363 . S
C421 C427 1.363 . S
C422 C423 1.363 . S
C422 C427 1.379 . S
C422 N429 1.356 1_455 S
C423 C422 1.363 . S
C423 C426 1.363 . S
N424 C426 1.356 . S
N424 H436 0.984 . S
N424 H437 0.985 . S
N425 C427 1.356 . S
N425 H430 0.984 . S
N425 H431 0.985 1_455 S
C426 C420 1.379 . S
C426 C423 1.363 . S
C426 N424 1.356 . S
C427 C421 1.363 . S
C427 C422 1.379 . S
C427 N425 1.356 . S
N428 C420 1.356 . S
N428 H434 0.984 . S
N428 H435 0.984 . S
N429 C422 1.356 1_655 S
N429 H432 0.984 . S
N429 H433 0.985 . S
H430 N425 0.984 . S
H431 N425 0.985 1_655 S
H432 N429 0.984 . S
H433 N429 0.985 . S
H434 N428 0.984 . S
H435 N428 0.984 . S
H436 N424 0.984 . S
H437 N424 0.985 . S
C438 C439 1.363 . S
C438 C444 1.379 . S
C438 N446 1.356 . S
C439 C438 1.363 . S
C439 C445 1.363 . S
C440 C441 1.363 . S
C440 C445 1.379 . S
C440 N447 1.356 . S
C441 C440 1.363 . S
C441 C444 1.363 . S
N442 C444 1.356 . S
N442 H454 0.984 1_565 S
N442 H455 0.985 . S
N443 C445 1.356 . S
N443 H448 0.984 . S
N443 H449 0.985 . S
C444 C438 1.379 . S
C444 C441 1.363 . S
C444 N442 1.356 . S
C445 C439 1.363 . S
C445 C440 1.379 . S
C445 N443 1.356 . S
N446 C438 1.356 . S
N446 H452 0.986 . S
N446 H453 0.984 . S
N447 C440 1.356 . S
N447 H450 0.984 . S
N447 H451 0.985 . S
H448 N443 0.984 . S
H449 N443 0.985 . S
H450 N447 0.984 . S
H451 N447 0.985 . S
H452 N446 0.986 . S
H453 N446 0.984 . S
H454 N442 0.984 1_545 S
H455 N442 0.985 . S
C456 C457 1.363 . S
C456 C462 1.379 . S
C456 N464 1.356 . S
C457 C456 1.363 . S
C457 C463 1.363 . S
C458 C459 1.365 1_556 S
C458 C463 1.379 . S
C458 N465 1.356 1_556 S
C459 C458 1.365 1_554 S
C459 C462 1.365 1_554 S
N460 C462 1.356 1_554 S
N460 H472 0.984 . S
N460 H473 0.985 . S
N461 C463 1.356 . S
N461 H466 0.984 . S
N461 H467 0.985 . S
C462 C456 1.379 . S
C462 C459 1.365 1_556 S
C462 N460 1.356 1_556 S
C463 C457 1.363 . S
C463 C458 1.379 . S
C463 N461 1.356 . S
N464 C456 1.356 . S
N464 H470 0.984 . S
N464 H471 0.984 . S
N465 C458 1.356 1_554 S
N465 H468 0.984 . S
N465 H469 0.985 . S
H466 N461 0.984 . S
H467 N461 0.985 . S
H468 N465 0.984 . S
H469 N465 0.985 . S
H470 N464 0.984 . S
H471 N464 0.984 . S
H472 N460 0.984 . S
H473 N460 0.985 . S
C474 C475 1.363 1_565 S
C474 C480 1.379 1_655 S
C474 N482 1.356 . S
C475 C474 1.363 1_545 S
C475 C481 1.363 . S
C476 C477 1.363 . S
C476 C481 1.379 1_455 S
C476 N483 1.356 . S
C477 C476 1.363 . S
C477 C480 1.363 1_545 S
N478 C480 1.356 . S
N478 H490 0.984 . S
N478 H491 0.985 1_565 S
N479 C481 1.356 . S
N479 H484 0.984 . S
N479 H485 0.985 . S
C480 C474 1.379 1_455 S
C480 C477 1.363 1_565 S
C480 N478 1.356 . S
C481 C475 1.363 . S
C481 C476 1.379 1_655 S
C481 N479 1.356 . S
N482 C474 1.356 . S
N482 H488 0.984 . S
N482 H489 0.984 . S
N483 C476 1.356 . S
N483 H486 0.984 . S
N483 H487 0.985 . S
H484 N479 0.984 . S
H485 N479 0.985 . S
H486 N483 0.984 . S
H487 N483 0.985 . S
H488 N482 0.984 . S
H489 N482 0.984 . S
H490 N478 0.984 . S
H491 N478 0.985 1_545 S
C492 C493 1.363 . S
C492 C498 1.379 . S
C492 N500 1.356 . S
C493 C492 1.363 . S
C493 C499 1.363 1_565 S
C494 C495 1.363 1_545 S
C494 C499 1.379 . S
C494 N501 1.356 . S
C495 C494 1.363 1_565 S
C495 C498 1.363 . S
N496 C498 1.356 . S
N496 H508 0.984 . S
N496 H509 0.985 . S
N497 C499 1.356 . S
N497 H502 0.984 . S
N497 H503 0.985 . S
C498 C492 1.379 . S
C498 C495 1.363 . S
C498 N496 1.356 . S
C499 C493 1.363 1_545 S
C499 C494 1.379 . S
C499 N497 1.356 . S
N500 C492 1.356 . S
N500 H506 0.984 . S
N500 H507 0.984 . S
N501 C494 1.356 . S
N501 H504 0.984 . S
N501 H505 0.985 . S
H502 N497 0.984 . S
H503 N497 0.985 . S
H504 N501 0.984 . S
H505 N501 0.985 . S
H506 N500 0.984 . S
H507 N500 0.984 . S
H508 N496 0.984 . S
H509 N496 0.985 . S
C510 C511 1.363 . S
C510 C516 1.383 . S
C510 N518 1.356 1_665 S
C511 C510 1.363 . S
C511 C517 1.363 . S
C512 C513 1.363 . S
C512 C517 1.379 . S
C512 N519 1.356 1_556 S
C513 C512 1.363 . S
C513 C516 1.365 . S
N514 C516 1.349 1_455 S
N514 H526 0.984 1_565 S
N514 H527 0.985 1_556 S
N515 C517 1.356 . S
N515 H520 0.984 . S
N515 H521 0.985 . S
C516 C510 1.383 . S
C516 C513 1.365 . S
C516 N514 1.349 1_655 S
C517 C511 1.363 . S
C517 C512 1.379 . S
C517 N515 1.356 . S
N518 C510 1.356 1_445 S
N518 H524 0.984 . S
N518 H525 0.984 1_455 S
N519 C512 1.356 1_554 S
N519 H522 0.984 . S
N519 H523 0.985 . S
H520 N515 0.984 . S
H521 N515 0.985 . S
H522 N519 0.984 . S
H523 N519 0.985 . S
H524 N518 0.984 . S
H525 N518 0.984 1_655 S
H526 N514 0.984 1_545 S
H527 N514 0.985 1_554 S
C528 C529 1.363 . S
C528 C534 1.379 . S
C528 N536 1.356 . S
C529 C528 1.363 . S
C529 C535 1.363 . S
C530 C531 1.363 . S
C530 C535 1.379 . S
C530 N537 1.356 . S
C531 C530 1.363 . S
C531 C534 1.363 . S
N532 C534 1.356 . S
N532 H544 0.984 . S
N532 H545 0.985 . S
N533 C535 1.356 . S
N533 H538 0.984 . S
N533 H539 0.985 . S
C534 C528 1.379 . S
C534 C531 1.363 . S
C534 N532 1.356 . S
C535 C529 1.363 . S
C535 C530 1.379 . S
C535 N533 1.356 . S
N536 C528 1.356 . S
N536 H542 0.984 . S
N536 H543 0.984 . S
N537 C530 1.356 . S
N537 H540 0.984 . S
N537 H541 0.985 . S
H538 N533 0.984 . S
H539 N533 0.985 . S
H540 N537 0.984 . S
H541 N537 0.985 . S
H542 N536 0.984 . S
H543 N536 0.984 . S
H544 N532 0.984 . S
H545 N532 0.985 . S
C546 C547 1.363 1_565 S
C546 C552 1.379 . S
C546 N554 1.356 . S
C547 C546 1.363 1_545 S
C547 C553 1.363 . S
C548 C549 1.363 . S
C548 C553 1.379 1_565 S
C548 N555 1.356 1_455 S
C549 C548 1.363 . S
C549 C552 1.363 . S
N550 C552 1.356 . S
N550 H562 0.984 . S
N550 H563 0.985 . S
N551 C553 1.356 . S
N551 H556 0.984 . S
N551 H557 0.995 . S
C552 C546 1.379 . S
C552 C549 1.363 . S
C552 N550 1.356 . S
C553 C547 1.363 . S
C553 C548 1.379 1_545 S
C553 N551 1.356 . S
N554 C546 1.356 . S
N554 H560 0.984 . S
N554 H561 0.984 1_565 S
N555 C548 1.356 1_655 S
N555 H558 0.984 . S
N555 H559 0.985 1_565 S
H556 N551 0.984 . S
H557 N551 0.995 . S
H558 N555 0.984 . S
H559 N555 0.985 1_545 S
H560 N554 0.984 . S
H561 N554 0.984 1_545 S
H562 N550 0.984 . S
H563 N550 0.985 . S
C241 C166 1.738 . S
C243 C19 1.791 . S
C259 C219 1.791 . S
C261 C46 1.738 . S
C277 C6 1.738 . S
C279 C99 1.791 . S
C295 C59 1.791 . S
C297 C126 1.738 . S
C313 C86 1.738 . S
C315 C179 1.792 . S
C331 C139 1.791 . S
C333 C206 1.727 1_554 S
C349 C18 1.928 . S
C351 C129 1.684 . S
C367 C178 1.928 . S
C369 C49 1.684 . S
C385 C209 1.684 . S
C387 C98 1.928 . S
C403 C89 1.684 . S
C405 C218 1.928 . S
C421 C9 1.685 . S
C423 C138 1.929 . S
C439 C169 1.684 . S
C441 C58 1.928 . S
C457 C210 1.862 . S
C459 C10 1.858 . S
C475 C55 0.993 . S
C477 C15 0.993 . S
C493 C90 1.862 . S
C495 C50 1.862 1_565 S
C511 C95 0.993 . S
C513 C135 0.993 1_556 S
C529 C170 1.862 1_655 S
C531 C130 1.862 . S
C547 C215 0.992 . S
C549 C175 0.992 . S
