# Generated by pormake.
# Topology ske, (6)-cn, num edge types: 1
# Building blocks:
#     Node 0, Type 0, BuildingBlock: KUMBUR_clean_sbu_1, # of connection points: 6
#     Node 1, Type 0, BuildingBlock: KUMBUR_clean_sbu_1, # of connection points: 6
#     Node 2, Type 0, BuildingBlock: KUMBUR_clean_sbu_1, # of connection points: 6
#     Node 3, Type 0, BuildingBlock: KUMBUR_clean_sbu_1, # of connection points: 6
#     Node 4, Type 0, BuildingBlock: KUMBUR_clean_sbu_1, # of connection points: 6
#     Node 5, Type 0, BuildingBlock: KUMBUR_clean_sbu_1, # of connection points: 6
#     Node 6, Type 0, BuildingBlock: KUMBUR_clean_sbu_1, # of connection points: 6
#     Node 7, Type 0, BuildingBlock: KUMBUR_clean_sbu_1, # of connection points: 6
#     Edge 8, Type (0, 0), BuildingBlock: KIFKEQ_clean_linker_1, # of connection points: 2
#     Edge 9, Type (0, 0), BuildingBlock: KIFKEQ_clean_linker_1, # of connection points: 2
#     Edge 10, Type (0, 0), BuildingBlock: KIFKEQ_clean_linker_1, # of connection points: 2
#     Edge 11, Type (0, 0), BuildingBlock: KIFKEQ_clean_linker_1, # of connection points: 2
#     Edge 12, Type (0, 0), BuildingBlock: KIFKEQ_clean_linker_1, # of connection points: 2
#     Edge 13, Type (0, 0), BuildingBlock: KIFKEQ_clean_linker_1, # of connection points: 2
#     Edge 14, Type (0, 0), BuildingBlock: KIFKEQ_clean_linker_1, # of connection points: 2
#     Edge 15, Type (0, 0), BuildingBlock: KIFKEQ_clean_linker_1, # of connection points: 2
#     Edge 16, Type (0, 0), BuildingBlock: KIFKEQ_clean_linker_1, # of connection points: 2
#     Edge 17, Type (0, 0), BuildingBlock: KIFKEQ_clean_linker_1, # of connection points: 2
#     Edge 18, Type (0, 0), BuildingBlock: KIFKEQ_clean_linker_1, # of connection points: 2
#     Edge 19, Type (0, 0), BuildingBlock: KIFKEQ_clean_linker_1, # of connection points: 2
#     Edge 20, Type (0, 0), BuildingBlock: KIFKEQ_clean_linker_1, # of connection points: 2
#     Edge 21, Type (0, 0), BuildingBlock: KIFKEQ_clean_linker_1, # of connection points: 2
#     Edge 22, Type (0, 0), BuildingBlock: KIFKEQ_clean_linker_1, # of connection points: 2
#     Edge 23, Type (0, 0), BuildingBlock: KIFKEQ_clean_linker_1, # of connection points: 2
#     Edge 24, Type (0, 0), BuildingBlock: KIFKEQ_clean_linker_1, # of connection points: 2
#     Edge 25, Type (0, 0), BuildingBlock: KIFKEQ_clean_linker_1, # of connection points: 2
#     Edge 26, Type (0, 0), BuildingBlock: KIFKEQ_clean_linker_1, # of connection points: 2
#     Edge 27, Type (0, 0), BuildingBlock: KIFKEQ_clean_linker_1, # of connection points: 2
#     Edge 28, Type (0, 0), BuildingBlock: KIFKEQ_clean_linker_1, # of connection points: 2
#     Edge 29, Type (0, 0), BuildingBlock: KIFKEQ_clean_linker_1, # of connection points: 2
#     Edge 30, Type (0, 0), BuildingBlock: KIFKEQ_clean_linker_1, # of connection points: 2
#     Edge 31, Type (0, 0), BuildingBlock: KIFKEQ_clean_linker_1, # of connection points: 2
# Relax obj value: 0.217
# Max RMSD: 0.232
# Mean RMSD: 0.230
data_MOF--net-ske--node1-KUMBUR_clean_sbu_1--edge1-KIFKEQ_clean_linker_1
_symmetry_space_group_name_H-M    P1
_symmetry_Int_Tables_number       1
_symmetry_cell_setting            triclinic
loop_
_symmetry_equiv_pos_as_xyz
'x, y, z'
_cell_length_a     99.734532
_cell_length_b     30.168354
_cell_length_c     15.340706
_cell_angle_alpha  98.039816
_cell_angle_beta   89.935848
_cell_angle_gamma 89.89202
loop_
_atom_site_label
_atom_site_type_symbol
_atom_site_fract_x
_atom_site_fract_y
_atom_site_fract_z
_atom_type_partial_charge
Tb0 Tb 0.15488 0.25765 0.56055 0.0
C1 C 0.10463 0.24073 0.75123 0.0
N2 N 0.10918 0.21827 0.67336 0.0
C3 C 0.10471 0.14827 0.72544 0.0
C4 C 0.10068 0.21763 0.82085 0.0
C5 C 0.10833 0.17263 0.65796 0.0
C6 C 0.1011 0.17084 0.80776 0.0
C7 C 0.09921 0.31161 0.84075 0.0
C8 C 0.10384 0.28726 0.76128 0.0
C9 C 0.09543 0.28863 0.91041 0.0
C10 C 0.09622 0.24181 0.90061 0.0
Tb11 Tb 0.11448 0.26341 0.56978 0.0
N12 N 0.10829 0.30872 0.69446 0.0
C13 C 0.09883 0.35841 0.84846 0.0
C14 C 0.10769 0.35428 0.7007 0.0
C15 C 0.10304 0.3798 0.77802 0.0
H16 H 0.10977 0.15462 0.59306 0.0
H17 H 0.10268 0.41593 0.78321 0.0
H18 H 0.15998 0.34842 0.46557 0.0
H19 H 0.17452 0.08917 0.48991 0.0
H20 H 0.11074 0.37089 0.64597 0.0
H21 H 0.09535 0.37833 0.90852 0.0
H22 H 0.16313 0.15226 0.58003 0.0
H23 H 0.10435 0.11207 0.71313 0.0
H24 H 0.09197 0.30676 0.97232 0.0
H25 H 0.09323 0.22458 0.95492 0.0
H26 H 0.17113 0.3674 0.33202 0.0
H27 H 0.09817 0.15185 0.85962 0.0
H28 H 0.18491 0.09989 0.34782 0.0
N29 N 0.16475 0.27912 0.43873 0.0
C30 C 0.17171 0.24683 0.38668 0.0
C31 C 0.17126 0.33326 0.3462 0.0
C32 C 0.17828 0.25612 0.30997 0.0
C33 C 0.16485 0.32235 0.42153 0.0
C34 C 0.17788 0.29992 0.28965 0.0
N35 N 0.16583 0.19717 0.48604 0.0
C36 C 0.16706 0.15685 0.51631 0.0
C37 C 0.17904 0.16957 0.35798 0.0
C38 C 0.17203 0.20422 0.41028 0.0
C39 C 0.17964 0.12745 0.38616 0.0
C40 C 0.17375 0.12122 0.46619 0.0
H41 H 0.18281 0.30845 0.23125 0.0
H42 H 0.19007 0.22785 0.19687 0.0
H43 H 0.19077 0.15205 0.23902 0.0
O44 O 0.17426 0.24435 0.60622 0.0
O45 O 0.14534 0.25736 0.43009 0.0
O46 O 0.12181 0.25729 0.43254 0.0
O47 O 0.16449 0.30699 0.64932 0.0
O48 O 0.1432 0.19936 0.58736 0.0
O49 O 0.12347 0.19906 0.51007 0.0
O50 O 0.09807 0.30142 0.53512 0.0
O51 O 0.12789 0.28736 0.68345 0.0
O52 O 0.14469 0.23636 0.67442 0.0
O53 O 0.09594 0.23135 0.53931 0.0
O54 O 0.12377 0.32113 0.5218 0.0
O55 O 0.14505 0.3244 0.58514 0.0
C56 C 0.1335 0.25631 0.39087 0.0
C57 C 0.18837 0.30747 0.63857 0.0
C58 C 0.21262 0.31511 0.66429 0.0
C59 C 0.21247 0.35404 0.62357 0.0
C60 C 0.18857 0.3465 0.59827 0.0
C61 C 0.20056 0.36937 0.59042 0.0
C62 C 0.20049 0.29158 0.67067 0.0
C63 C 0.13402 0.17796 0.53627 0.0
C64 C 0.17557 0.284 0.65033 0.0
C65 C 0.18502 0.2215 0.25645 0.0
C66 C 0.18539 0.1783 0.28036 0.0
C67 C 0.13605 0.26192 0.72246 0.0
C68 C 0.08117 0.26391 0.44567 0.0
C69 C 0.05857 0.26404 0.38287 0.0
C70 C 0.06434 0.261 0.29849 0.0
C71 C 0.08665 0.26022 0.36084 0.0
C72 C 0.06711 0.26525 0.45645 0.0
C73 C 0.07826 0.25883 0.28771 0.0
C74 C 0.13501 0.34247 0.54566 0.0
C75 C 0.08993 0.2676 0.5237 0.0
H76 H 0.22162 0.37259 0.61705 0.0
H77 H 0.17945 0.35974 0.57371 0.0
H78 H 0.2006 0.39941 0.55924 0.0
H79 H 0.20043 0.26173 0.70266 0.0
H80 H 0.05806 0.2597 0.24063 0.0
H81 H 0.09739 0.25862 0.35135 0.0
H82 H 0.06285 0.26814 0.52204 0.0
H83 H 0.08256 0.25615 0.22236 0.0
Tb84 Tb 0.9013 0.26043 0.57929 0.0
C85 C 0.84392 0.24791 0.40063 0.0
N86 N 0.85081 0.27987 0.45349 0.0
C87 C 0.84376 0.33525 0.36515 0.0
C88 C 0.83712 0.25802 0.3254 0.0
C89 C 0.85039 0.32352 0.43895 0.0
C90 C 0.83722 0.30228 0.30755 0.0
C91 C 0.8368 0.17063 0.36929 0.0
C92 C 0.84381 0.2049 0.42225 0.0
C93 C 0.83028 0.18015 0.29284 0.0
C94 C 0.83042 0.22377 0.27101 0.0
Tb95 Tb 0.86095 0.25733 0.57314 0.0
N96 N 0.85012 0.19715 0.49714 0.0
C97 C 0.83631 0.12814 0.39587 0.0
C98 C 0.8489 0.15654 0.52627 0.0
C99 C 0.84224 0.12124 0.4753 0.0
H100 H 0.85522 0.34922 0.48389 0.0
H101 H 0.84152 0.08894 0.498 0.0
H102 H 0.90581 0.1515 0.60376 0.0
H103 H 0.91439 0.41292 0.78743 0.0
H104 H 0.85281 0.15138 0.58967 0.0
H105 H 0.83104 0.10087 0.35698 0.0
H106 H 0.9058 0.36771 0.65216 0.0
H107 H 0.84365 0.36973 0.35297 0.0
H108 H 0.82491 0.15419 0.251 0.0
H109 H 0.82521 0.23075 0.2125 0.0
H110 H 0.91138 0.10933 0.72411 0.0
H111 H 0.83211 0.31145 0.25037 0.0
H112 H 0.92179 0.37563 0.91299 0.0
N113 N 0.90681 0.21545 0.68279 0.0
C114 C 0.91156 0.23801 0.75988 0.0
C115 C 0.91117 0.14555 0.73576 0.0
C116 C 0.91562 0.21506 0.82948 0.0
C117 C 0.90747 0.16974 0.66817 0.0
C118 C 0.91503 0.1683 0.8173 0.0
N119 N 0.90795 0.30584 0.70227 0.0
C120 C 0.90885 0.35126 0.70709 0.0
C121 C 0.91745 0.30892 0.84731 0.0
C122 C 0.9125 0.28448 0.76898 0.0
C123 C 0.91806 0.35565 0.85384 0.0
C124 C 0.91381 0.37686 0.78326 0.0
H125 H 0.91803 0.14943 0.8692 0.0
H126 H 0.92342 0.22225 0.96257 0.0
H127 H 0.92502 0.30432 0.9781 0.0
O128 O 0.91689 0.29738 0.53021 0.0
O129 O 0.88823 0.28535 0.69464 0.0
O130 O 0.87117 0.23553 0.6865 0.0
O131 O 0.92036 0.23088 0.55781 0.0
O132 O 0.89204 0.31877 0.53285 0.0
O133 O 0.87098 0.32334 0.59903 0.0
O134 O 0.84153 0.24468 0.61869 0.0
O135 O 0.87047 0.26053 0.44326 0.0
O136 O 0.89365 0.24721 0.44292 0.0
O137 O 0.85155 0.30648 0.66386 0.0
O138 O 0.87249 0.19855 0.5995 0.0
O139 O 0.89219 0.19616 0.5215 0.0
C140 C 0.87996 0.26046 0.73416 0.0
C141 C 0.93415 0.25553 0.44987 0.0
C142 C 0.95662 0.25059 0.38319 0.0
C143 C 0.95069 0.23303 0.30229 0.0
C144 C 0.92857 0.23821 0.36852 0.0
C145 C 0.93681 0.22719 0.29516 0.0
C146 C 0.94814 0.26181 0.457 0.0
C147 C 0.88095 0.34086 0.55828 0.0
C148 C 0.92562 0.26528 0.52882 0.0
C149 C 0.92035 0.23935 0.90826 0.0
C150 C 0.92132 0.2861 0.917 0.0
C151 C 0.88214 0.25279 0.40252 0.0
C152 C 0.8277 0.30862 0.65229 0.0
C153 C 0.80319 0.31472 0.66924 0.0
C154 C 0.80374 0.35594 0.63602 0.0
C155 C 0.82784 0.34968 0.61908 0.0
C156 C 0.81534 0.2912 0.67688 0.0
C157 C 0.81593 0.37297 0.61081 0.0
C158 C 0.88147 0.1762 0.54803 0.0
C159 C 0.84036 0.2842 0.66378 0.0
H160 H 0.95677 0.22294 0.24442 0.0
H161 H 0.91787 0.23268 0.36205 0.0
H162 H 0.93245 0.21351 0.23259 0.0
H163 H 0.95236 0.27556 0.52004 0.0
H164 H 0.79479 0.37574 0.63106 0.0
H165 H 0.83715 0.36414 0.60035 0.0
H166 H 0.81523 0.25928 0.70163 0.0
H167 H 0.81616 0.40477 0.58573 0.0
Tb168 Tb 0.15437 0.75758 0.46298 0.0
C169 C 0.10383 0.7719 0.27098 0.0
N170 N 0.10862 0.79551 0.34696 0.0
C171 C 0.10447 0.86428 0.28924 0.0
C172 C 0.09986 0.7937 0.19958 0.0
C173 C 0.10811 0.84124 0.35863 0.0
C174 C 0.10055 0.84042 0.20886 0.0
C175 C 0.0981 0.69998 0.18683 0.0
C176 C 0.1029 0.72548 0.26446 0.0
C177 C 0.09425 0.72167 0.11554 0.0
C178 C 0.09519 0.76835 0.12176 0.0
Tb179 Tb 0.11388 0.75234 0.45392 0.0
N180 N 0.10742 0.7052 0.33273 0.0
C181 C 0.09762 0.65332 0.18251 0.0
C182 C 0.10672 0.65983 0.32983 0.0
C183 C 0.1019 0.63321 0.25443 0.0
H184 H 0.10982 0.8604 0.42206 0.0
H185 H 0.10146 0.59721 0.25188 0.0
H186 H 0.15877 0.66736 0.56115 0.0
H187 H 0.174 0.92578 0.53328 0.0
H188 H 0.10979 0.6442 0.38576 0.0
H189 H 0.09401 0.63254 0.12396 0.0
H190 H 0.16249 0.86299 0.44395 0.0
H191 H 0.10436 0.90052 0.2986 0.0
H192 H 0.09064 0.70263 0.05503 0.0
H193 H 0.09218 0.78457 0.06614 0.0
H194 H 0.16983 0.64835 0.69484 0.0
H195 H 0.09762 0.85841 0.15551 0.0
H196 H 0.18459 0.91475 0.6745 0.0
N197 N 0.16394 0.7363 0.58603 0.0
C198 C 0.17109 0.76829 0.63714 0.0
C199 C 0.17014 0.68234 0.67983 0.0
C200 C 0.17764 0.75895 0.71384 0.0
C201 C 0.16376 0.69329 0.60453 0.0
C202 C 0.17702 0.71539 0.73519 0.0
N203 N 0.16526 0.81797 0.53765 0.0
C204 C 0.16646 0.85831 0.50743 0.0
C205 C 0.17862 0.84525 0.66481 0.0
C206 C 0.17152 0.81078 0.61304 0.0
C207 C 0.17924 0.88734 0.63656 0.0
C208 C 0.17324 0.89375 0.55705 0.0
H209 H 0.18192 0.70682 0.79358 0.0
H210 H 0.1896 0.78691 0.82601 0.0
H211 H 0.19049 0.8625 0.78299 0.0
O212 O 0.17338 0.77218 0.41354 0.0
O213 O 0.14472 0.75914 0.59366 0.0
O214 O 0.1212 0.7598 0.59099 0.0
O215 O 0.16479 0.70696 0.38098 0.0
O216 O 0.14265 0.81556 0.43428 0.0
O217 O 0.12286 0.81692 0.51143 0.0
O218 O 0.09755 0.71616 0.49606 0.0
O219 O 0.12715 0.72765 0.33958 0.0
O220 O 0.1442 0.7777 0.34792 0.0
O221 O 0.09529 0.78485 0.47943 0.0
O222 O 0.12332 0.69482 0.50231 0.0
O223 O 0.14444 0.69126 0.43658 0.0
C224 C 0.13285 0.76069 0.6328 0.0
C225 C 0.18864 0.71175 0.39409 0.0
C226 C 0.21322 0.71137 0.38138 0.0
C227 C 0.21371 0.67681 0.43399 0.0
C228 C 0.1895 0.67655 0.44485 0.0
C229 C 0.20195 0.65946 0.46493 0.0
C230 C 0.20057 0.72871 0.36145 0.0
C231 C 0.1335 0.83747 0.48515 0.0
C232 C 0.17545 0.7315 0.37618 0.0
C233 C 0.18455 0.79333 0.76654 0.0
C234 C 0.18503 0.8364 0.74213 0.0
C235 C 0.13546 0.75246 0.30032 0.0
C236 C 0.08085 0.75797 0.58171 0.0
C237 C 0.05843 0.76155 0.64909 0.0
C238 C 0.06447 0.77535 0.73144 0.0
C239 C 0.08654 0.77165 0.66451 0.0
C240 C 0.0668 0.753 0.57412 0.0
C241 C 0.07837 0.78019 0.73888 0.0
C242 C 0.13454 0.67333 0.47745 0.0
C243 C 0.08938 0.75001 0.50238 0.0
H244 H 0.22323 0.66256 0.4499 0.0
H245 H 0.18056 0.66207 0.46892 0.0
H246 H 0.20248 0.63247 0.50448 0.0
H247 H 0.20003 0.75572 0.32184 0.0
H248 H 0.05843 0.78314 0.79032 0.0
H249 H 0.09726 0.77611 0.67151 0.0
H250 H 0.06246 0.74215 0.51 0.0
H251 H 0.08283 0.79097 0.80261 0.0
Tb252 Tb 0.9005 0.75452 0.47767 0.0
C253 C 0.8448 0.70228 0.62414 0.0
N254 N 0.85034 0.6916 0.5429 0.0
C255 C 0.84279 0.61578 0.53794 0.0
C256 C 0.83848 0.66958 0.66705 0.0
C257 C 0.84875 0.6496 0.49753 0.0
C258 C 0.83782 0.62564 0.62362 0.0
C259 C 0.83869 0.75971 0.74478 0.0
C260 C 0.84487 0.7467 0.66257 0.0
C261 C 0.83282 0.727 0.78936 0.0
C262 C 0.83273 0.68203 0.75064 0.0
Tb263 Tb 0.86022 0.7497 0.48612 0.0
N264 N 0.85095 0.77728 0.61865 0.0
C265 C 0.83843 0.80526 0.77889 0.0
C266 C 0.84991 0.82205 0.64846 0.0
C267 C 0.84388 0.83661 0.72988 0.0
H268 H 0.85199 0.64214 0.42982 0.0
H269 H 0.8434 0.87198 0.75463 0.0
H270 H 0.90623 0.85684 0.43585 0.0
H271 H 0.9091 0.59114 0.28532 0.0
H272 H 0.854 0.84634 0.61028 0.0
H273 H 0.83377 0.81665 0.84191 0.0
H274 H 0.90453 0.64209 0.42036 0.0
H275 H 0.84188 0.58228 0.50252 0.0
H276 H 0.82813 0.73623 0.85308 0.0
H277 H 0.82794 0.65731 0.78502 0.0
H278 H 0.9143 0.89282 0.31016 0.0
H279 H 0.83309 0.59947 0.65441 0.0
H280 H 0.91485 0.6212 0.14823 0.0
N281 N 0.9071 0.79108 0.36526 0.0
C282 C 0.9109 0.7647 0.29006 0.0
C283 C 0.91328 0.85679 0.30346 0.0
C284 C 0.9155 0.78369 0.21671 0.0
C285 C 0.90862 0.83644 0.37421 0.0
C286 C 0.91663 0.83035 0.22413 0.0
N287 N 0.90536 0.70144 0.35899 0.0
C288 C 0.90591 0.65621 0.36038 0.0
C289 C 0.91305 0.69034 0.20785 0.0
C290 C 0.90964 0.71855 0.28601 0.0
C291 C 0.91234 0.64401 0.20697 0.0
C292 C 0.90899 0.62692 0.28404 0.0
H293 H 0.92012 0.84625 0.1692 0.0
H294 H 0.92199 0.76965 0.08077 0.0
H295 H 0.91987 0.68797 0.07301 0.0
O296 O 0.92025 0.73013 0.48174 0.0
O297 O 0.88714 0.7748 0.37348 0.0
O298 O 0.87003 0.72471 0.35992 0.0
O299 O 0.91526 0.79531 0.54718 0.0
O300 O 0.89175 0.69336 0.51729 0.0
O301 O 0.872 0.68914 0.43985 0.0
O302 O 0.84972 0.79309 0.41332 0.0
O303 O 0.87056 0.76465 0.61576 0.0
O304 O 0.89297 0.74166 0.60763 0.0
O305 O 0.84003 0.73576 0.45248 0.0
O306 O 0.86934 0.81576 0.47881 0.0
O307 O 0.8908 0.81666 0.53978 0.0
C308 C 0.87885 0.74863 0.32306 0.0
C309 C 0.93366 0.75778 0.60309 0.0
C310 C 0.95644 0.74858 0.65849 0.0
C311 C 0.95084 0.73901 0.73806 0.0
C312 C 0.92837 0.7479 0.68279 0.0
C313 C 0.93694 0.73883 0.74999 0.0
C314 C 0.9477 0.75835 0.59129 0.0
C315 C 0.88088 0.67131 0.48806 0.0
C316 C 0.92473 0.76564 0.53019 0.0
C317 C 0.91859 0.75568 0.13828 0.0
C318 C 0.91733 0.70916 0.13377 0.0
C319 C 0.88179 0.75268 0.65237 0.0
C320 C 0.83113 0.76229 0.32739 0.0
C321 C 0.8094 0.75753 0.25107 0.0
C322 C 0.8163 0.74643 0.17073 0.0
C323 C 0.83771 0.7512 0.24653 0.0
C324 C 0.81701 0.76546 0.32935 0.0
C325 C 0.8303 0.74342 0.1687 0.0
C326 C 0.87999 0.8371 0.51505 0.0
C327 C 0.83867 0.76999 0.41092 0.0
H328 H 0.95722 0.73199 0.79156 0.0
H329 H 0.91764 0.74692 0.69276 0.0
H330 H 0.93279 0.73137 0.81153 0.0
H331 H 0.95179 0.76531 0.52912 0.0
H332 H 0.81088 0.73924 0.10927 0.0
H333 H 0.84852 0.74842 0.24365 0.0
H334 H 0.81201 0.77451 0.39207 0.0
H335 H 0.83544 0.73469 0.10643 0.0
Tb336 Tb 0.65419 0.76313 0.042 0.0
C337 C 0.60426 0.72834 0.22953 0.0
N338 N 0.60792 0.71129 0.14601 0.0
C339 C 0.60259 0.63728 0.17626 0.0
C340 C 0.60041 0.7002 0.2912 0.0
C341 C 0.60609 0.66673 0.11721 0.0
C342 C 0.60003 0.65398 0.2642 0.0
C343 C 0.5993 0.79369 0.33607 0.0
C344 C 0.60366 0.77439 0.25188 0.0
C345 C 0.596 0.7658 0.39891 0.0
C346 C 0.5966 0.71915 0.37663 0.0
Tb347 Tb 0.61415 0.76342 0.05777 0.0
N348 N 0.60754 0.80036 0.1908 0.0
C349 C 0.59843 0.84041 0.35437 0.0
C350 C 0.60609 0.84583 0.20653 0.0
C351 C 0.60169 0.86655 0.28894 0.0
H352 H 0.60698 0.65367 0.04834 0.0
H353 H 0.60082 0.90263 0.30198 0.0
H354 H 0.66144 0.85913 0.97447 0.0
H355 H 0.6684 0.59338 0.90726 0.0
H356 H 0.60852 0.86603 0.15585 0.0
H357 H 0.59512 0.85657 0.41832 0.0
H358 H 0.66225 0.65363 0.0256 0.0
H359 H 0.60159 0.60184 0.1534 0.0
H360 H 0.59282 0.77995 0.46451 0.0
H361 H 0.59377 0.69803 0.42521 0.0
H362 H 0.66963 0.88527 0.83783 0.0
H363 H 0.59716 0.63117 0.30955 0.0
H364 H 0.67298 0.61085 0.75724 0.0
N365 N 0.6618 0.7904 0.91978 0.0
C366 C 0.66558 0.7596 0.85094 0.0
C367 C 0.66841 0.84984 0.84042 0.0
C368 C 0.67022 0.77278 0.77177 0.0
C369 C 0.66374 0.83504 0.91743 0.0
C370 C 0.67146 0.81861 0.76674 0.0
N371 N 0.66129 0.70406 0.94112 0.0
C372 C 0.66336 0.66148 0.95945 0.0
C373 C 0.66917 0.68178 0.79243 0.0
C374 C 0.66498 0.71483 0.8613 0.0
C375 C 0.66982 0.63729 0.80836 0.0
C376 C 0.66721 0.62728 0.89287 0.0
H377 H 0.675 0.83016 0.70706 0.0
H378 H 0.67708 0.74926 0.6392 0.0
H379 H 0.67621 0.66948 0.65739 0.0
O380 O 0.67467 0.74775 0.05361 0.0
O381 O 0.64192 0.78138 0.93078 0.0
O382 O 0.62244 0.74051 0.92398 0.0
O383 O 0.66632 0.80616 0.12911 0.0
O384 O 0.64405 0.7026 0.07419 0.0
O385 O 0.62399 0.70066 0.99922 0.0
O386 O 0.60035 0.80413 1.00148 0.0
O387 O 0.62724 0.78729 0.17318 0.0
O388 O 0.64566 0.74222 0.16344 0.0
O389 O 0.59416 0.74141 0.03761 0.0
O390 O 0.62309 0.82575 0.02526 0.0
O391 O 0.64461 0.82894 0.08566 0.0
C392 C 0.63238 0.75888 0.88432 0.0
C393 C 0.68503 0.77194 0.18951 0.0
C394 C 0.70705 0.76157 0.25557 0.0
C395 C 0.70047 0.75067 0.33098 0.0
C396 C 0.67877 0.76078 0.26537 0.0
C397 C 0.68647 0.7504 0.33571 0.0
C398 C 0.69917 0.7725 0.18502 0.0
C399 C 0.63413 0.68026 0.03192 0.0
C400 C 0.67702 0.78158 0.11335 0.0
C401 C 0.67367 0.73989 0.70118 0.0
C402 C 0.67313 0.69445 0.71146 0.0
C403 C 0.63596 0.7632 0.21114 0.0
C404 C 0.58168 0.76863 0.92537 0.0
C405 C 0.55901 0.76442 0.86263 0.0
C406 C 0.56474 0.75833 0.77793 0.0
C407 C 0.58712 0.76206 0.84023 0.0
C408 C 0.56761 0.76921 0.93634 0.0
C409 C 0.57866 0.75688 0.76701 0.0
C410 C 0.63397 0.84806 0.05471 0.0
C411 C 0.59043 0.77637 1.00351 0.0
H412 H 0.70616 0.74273 0.38691 0.0
H413 H 0.66794 0.75995 0.27013 0.0
H414 H 0.68157 0.74196 0.39419 0.0
H415 H 0.70402 0.78049 0.12588 0.0
H416 H 0.55842 0.75422 0.71997 0.0
H417 H 0.59788 0.76132 0.83042 0.0
H418 H 0.56338 0.77448 1.00212 0.0
H419 H 0.58292 0.75196 0.70141 0.0
Tb420 Tb 0.4023 0.75712 0.07108 0.0
C421 C 0.34862 0.74916 0.87895 0.0
N422 N 0.35327 0.78075 0.9435 0.0
C423 C 0.3461 0.83882 0.86197 0.0
C424 C 0.34311 0.76108 0.80101 0.0
C425 C 0.35163 0.82525 0.93779 0.0
C426 C 0.34201 0.80659 0.79266 0.0
C427 C 0.34402 0.67105 0.82884 0.0
C428 C 0.34915 0.70489 0.89271 0.0
C429 C 0.33909 0.68237 0.74899 0.0
C430 C 0.33862 0.72733 0.73515 0.0
Tb431 Tb 0.36225 0.75524 0.06406 0.0
N432 N 0.35378 0.69549 0.9714 0.0
C433 C 0.34349 0.62721 0.84867 0.0
C434 C 0.35202 0.6536 0.99404 0.0
C435 C 0.34725 0.61864 0.93236 0.0
H436 H 0.3549 0.85019 0.99081 0.0
H437 H 0.34627 0.58529 0.94998 0.0
H438 H 0.40923 0.64736 0.07197 0.0
H439 H 0.41538 0.90146 0.30285 0.0
H440 H 0.35411 0.64699 0.06004 0.0
H441 H 0.33963 0.6002 0.80142 0.0
H442 H 0.40753 0.86159 0.16004 0.0
H443 H 0.34508 0.87407 0.8568 0.0
H444 H 0.33524 0.65677 0.69871 0.0
H445 H 0.33447 0.73571 0.67425 0.0
H446 H 0.41499 0.59891 0.1822 0.0
H447 H 0.3378 0.81718 0.73384 0.0
H448 H 0.42173 0.85852 0.42279 0.0
N449 N 0.40875 0.70738 0.16389 0.0
C450 C 0.41275 0.72651 0.24545 0.0
C451 C 0.41411 0.6347 0.20148 0.0
C452 C 0.41681 0.70018 0.30982 0.0
C453 C 0.41038 0.66231 0.13955 0.0
C454 C 0.41706 0.65363 0.28757 0.0
N455 N 0.40905 0.79718 0.20046 0.0
C456 C 0.41021 0.84273 0.21233 0.0
C457 C 0.41775 0.79408 0.34593 0.0
C458 C 0.41329 0.77285 0.26349 0.0
C459 C 0.41836 0.84092 0.36029 0.0
C460 C 0.41472 0.8653 0.29284 0.0
H461 H 0.42009 0.63218 0.33513 0.0
H462 H 0.42384 0.70142 0.44384 0.0
H463 H 0.42465 0.78364 0.47544 0.0
O464 O 0.41592 0.79539 1.00685 0.0
O465 O 0.38945 0.78133 0.18801 0.0
O466 O 0.37191 0.7333 0.18046 0.0
O467 O 0.42235 0.7357 0.05448 0.0
O468 O 0.393 0.81836 0.03585 0.0
O469 O 0.37177 0.82162 0.10064 0.0
O470 O 0.34217 0.73996 0.09286 0.0
O471 O 0.3734 0.77145 0.94619 0.0
O472 O 0.39353 0.7333 0.93946 0.0
O473 O 0.35159 0.79899 0.15859 0.0
O474 O 0.37316 0.69513 0.09181 0.0
O475 O 0.39298 0.69325 1.01408 0.0
C476 C 0.38121 0.75636 0.22754 0.0
C477 C 0.43445 0.75611 0.93495 0.0
C478 C 0.45693 0.7487 0.86824 0.0
C479 C 0.45097 0.72849 0.78926 0.0
C480 C 0.42884 0.73626 0.85536 0.0
C481 C 0.43708 0.72263 0.78298 0.0
C482 C 0.44847 0.76239 0.94117 0.0
C483 C 0.38207 0.84051 0.06544 0.0
C484 C 0.42594 0.76842 1.01335 0.0
C485 C 0.42084 0.72114 0.39328 0.0
C486 C 0.42135 0.76797 0.41118 0.0
C487 C 0.3834 0.75093 0.90019 0.0
C488 C 0.32788 0.80173 0.13956 0.0
C489 C 0.3034 0.80857 0.15918 0.0
C490 C 0.30411 0.85135 0.13253 0.0
C491 C 0.32816 0.84453 0.11367 0.0
C492 C 0.31545 0.78385 0.16208 0.0
C493 C 0.31635 0.86891 0.10967 0.0
C494 C 0.3827 0.6728 0.04511 0.0
C495 C 0.34048 0.77634 0.1476 0.0
H496 H 0.45703 0.71639 0.73228 0.0
H497 H 0.41813 0.73088 0.84954 0.0
H498 H 0.43269 0.70697 0.72183 0.0
H499 H 0.45271 0.77812 1.00279 0.0
H500 H 0.29525 0.87201 0.13135 0.0
H501 H 0.33753 0.85959 0.09795 0.0
H502 H 0.31522 0.7508 0.18202 0.0
H503 H 0.31671 0.90202 0.09016 0.0
Tb504 Tb 0.65463 0.261 0.96963 0.0
C505 C 0.6041 0.27658 0.77788 0.0
N506 N 0.60894 0.30009 0.85383 0.0
C507 C 0.60489 0.36896 0.79626 0.0
C508 C 0.60014 0.29849 0.70661 0.0
C509 C 0.60852 0.34582 0.86556 0.0
C510 C 0.6009 0.34519 0.71595 0.0
C511 C 0.59824 0.20478 0.69372 0.0
C512 C 0.60311 0.23016 0.77127 0.0
C513 C 0.59439 0.22658 0.62257 0.0
C514 C 0.5954 0.27325 0.62886 0.0
Tb515 Tb 0.61415 0.25675 0.96057 0.0
N516 N 0.60763 0.20976 0.83936 0.0
C517 C 0.5977 0.15812 0.68931 0.0
C518 C 0.60687 0.1644 0.83641 0.0
C519 C 0.60199 0.1379 0.76108 0.0
H520 H 0.6103 0.36494 0.92894 0.0
H521 H 0.6015 0.1019 0.75846 0.0
H522 H 0.65896 0.1711 0.06862 0.0
H523 H 0.67459 0.42883 0.03722 0.0
H524 H 0.60995 0.14871 0.89225 0.0
H525 H 0.59403 0.13743 0.63081 0.0
H526 H 0.66292 0.36601 0.94897 0.0
H527 H 0.60485 0.40519 0.80565 0.0
H528 H 0.59073 0.20762 0.56211 0.0
H529 H 0.59239 0.28954 0.57333 0.0
H530 H 0.67006 0.15225 0.20234 0.0
H531 H 0.59798 0.36326 0.66269 0.0
H532 H 0.68522 0.41807 0.17846 0.0
N533 N 0.66422 0.23996 0.09277 0.0
C534 C 0.67144 0.27194 0.14339 0.0
C535 C 0.67042 0.18617 0.18698 0.0
C536 C 0.67803 0.2627 0.22003 0.0
C537 C 0.66401 0.19702 0.11168 0.0
C538 C 0.67736 0.21923 0.24186 0.0
N539 N 0.66566 0.32133 0.04332 0.0
C540 C 0.66692 0.36149 1.01246 0.0
C541 C 0.67913 0.34874 0.16988 0.0
C542 C 0.67194 0.31429 0.11872 0.0
C543 C 0.67981 0.39068 0.141 0.0
C544 C 0.67378 0.39692 0.06147 0.0
H545 H 0.68229 0.21074 0.30024 0.0
H546 H 0.69011 0.29074 0.3316 0.0
H547 H 0.69109 0.36611 0.2876 0.0
O548 O 0.67359 0.27493 0.91883 0.0
O549 O 0.645 0.26269 0.1004 0.0
O550 O 0.62149 0.26507 0.09774 0.0
O551 O 0.66491 0.20967 0.88858 0.0
O552 O 0.64295 0.31892 0.94088 0.0
O553 O 0.62319 0.32105 0.01821 0.0
O554 O 0.5979 0.22061 1.00397 0.0
O555 O 0.62737 0.2317 0.84618 0.0
O556 O 0.64454 0.28131 0.85442 0.0
O557 O 0.59552 0.28898 0.98491 0.0
O558 O 0.62345 0.19942 1.00981 0.0
O559 O 0.64449 0.1952 0.94334 0.0
C560 C 0.63313 0.26518 0.13957 0.0
C561 C 0.68876 0.21433 0.90119 0.0
C562 C 0.71332 0.21455 0.88982 0.0
C563 C 0.71385 0.18024 0.94299 0.0
C564 C 0.68962 0.1793 0.95237 0.0
C565 C 0.70208 0.16263 0.97343 0.0
C566 C 0.70068 0.23145 0.86894 0.0
C567 C 0.63394 0.34111 0.99238 0.0
C568 C 0.67559 0.23398 0.88275 0.0
C569 C 0.68503 0.29707 0.27216 0.0
C570 C 0.68556 0.34002 0.24719 0.0
C571 C 0.63574 0.25631 0.80685 0.0
C572 C 0.5812 0.26291 0.0886 0.0
C573 C 0.55878 0.26655 0.15577 0.0
C574 C 0.56473 0.28321 0.23712 0.0
C575 C 0.58681 0.27924 0.17042 0.0
C576 C 0.56722 0.25641 0.08151 0.0
C577 C 0.5786 0.28918 0.24423 0.0
C578 C 0.63465 0.1778 0.98552 0.0
C579 C 0.58968 0.25432 1.00928 0.0
H580 H 0.72339 0.16644 0.95972 0.0
H581 H 0.68069 0.16468 0.97614 0.0
H582 H 0.70263 0.13582 1.01339 0.0
H583 H 0.70013 0.25832 0.82896 0.0
H584 H 0.55867 0.29248 0.2954 0.0
H585 H 0.59751 0.28481 0.17696 0.0
H586 H 0.56299 0.24334 0.01811 0.0
H587 H 0.58298 0.30212 0.30717 0.0
Tb588 Tb 0.40114 0.24791 0.96525 0.0
C589 C 0.34427 0.26507 0.15328 0.0
N590 N 0.35142 0.23313 0.10158 0.0
C591 C 0.34571 0.17938 0.19696 0.0
C592 C 0.33796 0.25581 0.23092 0.0
C593 C 0.35184 0.19025 0.12071 0.0
C594 C 0.33883 0.21238 0.25273 0.0
C595 C 0.33668 0.34204 0.18174 0.0
C596 C 0.3437 0.30753 0.12913 0.0
C597 C 0.33045 0.33322 0.25972 0.0
C598 C 0.33109 0.29018 0.28423 0.0
Tb599 Tb 0.36062 0.25431 0.97714 0.0
N600 N 0.34985 0.31475 0.05334 0.0
C601 C 0.33602 0.38422 0.15387 0.0
C602 C 0.34868 0.35528 0.02381 0.0
C603 C 0.34195 0.39074 0.07415 0.0
H604 H 0.35675 0.16426 0.07686 0.0
H605 H 0.34119 0.42289 0.05083 0.0
H606 H 0.40543 0.35611 0.93633 0.0
H607 H 0.41295 0.09347 0.75783 0.0
H608 H 0.35263 0.36009 0.96031 0.0
H609 H 0.33073 0.41167 0.19244 0.0
H610 H 0.40488 0.13987 0.89353 0.0
H611 H 0.34621 0.14548 0.21232 0.0
H612 H 0.32505 0.35934 0.3012 0.0
H613 H 0.32621 0.28382 0.34438 0.0
H614 H 0.41076 0.3971 0.81385 0.0
H615 H 0.33412 0.20387 0.31185 0.0
H616 H 0.4203 0.12957 0.63063 0.0
N617 N 0.40628 0.29169 0.8591 0.0
C618 C 0.41093 0.26844 0.78223 0.0
C619 C 0.41053 0.36088 0.80336 0.0
C620 C 0.41482 0.29068 0.71126 0.0
C621 C 0.40696 0.33737 0.87222 0.0
C622 C 0.41425 0.33744 0.72201 0.0
N623 N 0.40738 0.20132 0.84238 0.0
C624 C 0.40795 0.15582 0.83797 0.0
C625 C 0.41643 0.19681 0.69571 0.0
C626 C 0.41181 0.22197 0.77436 0.0
C627 C 0.41682 0.15008 0.69 0.0
C628 C 0.4126 0.12954 0.76152 0.0
H629 H 0.41713 0.35578 0.66907 0.0
H630 H 0.42228 0.28225 0.57714 0.0
H631 H 0.42366 0.20018 0.56353 0.0
O632 O 0.41789 0.211 0.99818 0.0
O633 O 0.38775 0.22347 0.85188 0.0
O634 O 0.37064 0.27356 0.86061 0.0
O635 O 0.41938 0.28156 0.9976 0.0
O636 O 0.39174 0.19098 1.01481 0.0
O637 O 0.37057 0.18781 0.95 0.0
O638 O 0.34191 0.27069 0.92606 0.0
O639 O 0.37043 0.25807 0.10746 0.0
O640 O 0.39388 0.25147 0.10235 0.0
O641 O 0.34947 0.20365 0.90057 0.0
O642 O 0.37241 0.31158 0.94693 0.0
O643 O 0.39216 0.31232 0.02391 0.0
C644 C 0.3794 0.24827 0.81291 0.0
C645 C 0.43437 0.24918 0.09015 0.0
C646 C 0.45688 0.24971 0.15414 0.0
C647 C 0.45102 0.25188 0.2381 0.0
C648 C 0.42878 0.252 0.17459 0.0
C649 C 0.43709 0.25329 0.24811 0.0
C650 C 0.44843 0.24861 0.08019 0.0
C651 C 0.38048 0.16983 0.99094 0.0
C652 C 0.42571 0.24561 1.01167 0.0
C653 C 0.41933 0.2657 0.63245 0.0
C654 C 0.42019 0.21894 0.62481 0.0
C655 C 0.38229 0.25598 0.14537 0.0
C656 C 0.32571 0.21343 0.91355 0.0
C657 C 0.30121 0.21757 0.90081 0.0
C658 C 0.30001 0.18662 0.96073 0.0
C659 C 0.32416 0.18162 0.97144 0.0
C660 C 0.31413 0.23086 0.87716 0.0
C661 C 0.31141 0.16856 0.99511 0.0
C662 C 0.38157 0.33317 0.99783 0.0
C663 C 0.33922 0.22977 0.89302 0.0
H664 H 0.45724 0.25307 0.29623 0.0
H665 H 0.41803 0.25298 0.18349 0.0
H666 H 0.43271 0.2553 0.31315 0.0
H667 H 0.45277 0.24637 1.01489 0.0
H668 H 0.29021 0.17589 0.97995 0.0
H669 H 0.3328 0.1668 0.99857 0.0
H670 H 0.31517 0.25526 0.832 0.0
H671 H 0.31035 0.14429 0.04038 0.0
H672 H 0.22978 0.36512 0.77579 0.0
H673 H 0.22451 0.23212 0.63539 0.0
H674 H 0.25143 0.34295 0.83116 0.0
H675 H 0.24636 0.21 0.68992 0.0
H676 H 0.29327 0.20981 0.72857 0.0
H677 H 0.27166 0.23245 0.67125 0.0
H678 H 0.25959 0.28763 0.93443 0.0
H679 H 0.28101 0.26413 0.9915 0.0
C680 C 0.23326 0.33108 0.75688 0.0
C681 C 0.22543 0.30033 0.70135 0.0
C682 C 0.24564 0.31838 0.78873 0.0
C683 C 0.25064 0.2748 0.76459 0.0
C684 C 0.24282 0.24394 0.70905 0.0
C685 C 0.23028 0.25643 0.67851 0.0
C686 C 0.28603 0.22724 0.77374 0.0
C687 C 0.28883 0.2355 0.86432 0.0
C688 C 0.27363 0.23978 0.74119 0.0
C689 C 0.2639 0.26167 0.79839 0.0
C690 C 0.26689 0.27098 0.88866 0.0
C691 C 0.27914 0.25761 0.92133 0.0
H692 H 0.73555 0.24357 0.98429 0.0
H693 H 0.71991 0.22369 0.71991 0.0
H694 H 0.75696 0.26713 0.92987 0.0
H695 H 0.74154 0.24503 0.66389 0.0
H696 H 0.77823 0.32277 0.59601 0.0
H697 H 0.75665 0.30151 0.64964 0.0
H698 H 0.77644 0.24262 0.85636 0.0
H699 H 0.79797 0.26738 0.80709 0.0
C700 C 0.73674 0.24412 0.91425 0.0
C701 C 0.72604 0.23187 0.8564 0.0
C702 C 0.74909 0.2572 0.88266 0.0
C703 C 0.7512 0.25766 0.79193 0.0
C704 C 0.74037 0.24586 0.73423 0.0
C705 C 0.72792 0.23349 0.76618 0.0
C706 C 0.77802 0.30587 0.65376 0.0
C707 C 0.78999 0.2975 0.69761 0.0
C708 C 0.76556 0.29292 0.68388 0.0
C709 C 0.76461 0.27043 0.7581 0.0
C710 C 0.77661 0.26073 0.80025 0.0
C711 C 0.78908 0.27427 0.77084 0.0
H712 H 0.29814 0.75721 0.29077 0.0
H713 H 0.27838 0.82043 0.08989 0.0
H714 H 0.27649 0.73328 0.34032 0.0
H715 H 0.25674 0.79962 0.14363 0.0
H716 H 0.21948 0.72334 0.21204 0.0
H717 H 0.24115 0.74372 0.15494 0.0
H718 H 0.25741 0.75915 0.41864 0.0
H719 H 0.23593 0.73689 0.47414 0.0
C720 C 0.28922 0.76593 0.25674 0.0
C721 C 0.29015 0.79119 0.18648 0.0
C722 C 0.2767 0.75284 0.28633 0.0
C723 C 0.26468 0.76492 0.24719 0.0
C724 C 0.26565 0.78924 0.17553 0.0
C725 C 0.27816 0.80186 0.14535 0.0
C726 C 0.22768 0.73152 0.25767 0.0
C727 C 0.22599 0.72837 0.34752 0.0
C728 C 0.24015 0.74329 0.22506 0.0
C729 C 0.25124 0.75285 0.2817 0.0
C730 C 0.24934 0.75092 0.37214 0.0
C731 C 0.23694 0.73857 0.40436 0.0
H732 H 0.72391 0.82257 0.19449 0.0
H733 H 0.72425 0.69927 0.3071 0.0
H734 H 0.74841 0.8232 0.19481 0.0
H735 H 0.74865 0.69924 0.30587 0.0
H736 H 0.792 0.73188 0.37448 0.0
H737 H 0.76762 0.7346 0.37555 0.0
H738 H 0.76807 0.78909 0.12971 0.0
H739 H 0.79247 0.78884 0.13136 0.0
C740 C 0.72921 0.7953 0.21834 0.0
C741 C 0.72206 0.76104 0.25127 0.0
C742 C 0.7433 0.79559 0.2185 0.0
C743 C 0.75065 0.76142 0.25099 0.0
C744 C 0.74344 0.72676 0.2823 0.0
C745 C 0.72939 0.72665 0.28268 0.0
C746 C 0.78695 0.74515 0.32128 0.0
C747 C 0.79435 0.76004 0.25277 0.0
C748 C 0.77288 0.74608 0.32115 0.0
C749 C 0.76572 0.76173 0.2523 0.0
C750 C 0.77313 0.77714 0.18436 0.0
C751 C 0.7872 0.7764 0.1847 0.0
H752 H 0.12466 0.89801 0.62392 0.0
H753 H 0.14172 0.88997 0.36374 0.0
H754 H 0.1245 0.98012 0.63609 0.0
H755 H 0.14144 0.97165 0.37535 0.0
H756 H 0.12497 0.11795 0.39753 0.0
H757 H 0.12455 0.03583 0.38511 0.0
H758 H 0.14164 0.04325 0.64497 0.0
H759 H 0.14218 0.12489 0.65683 0.0
C760 C 0.12837 0.91378 0.56941 0.0
C761 C 0.13336 0.88743 0.49342 0.0
C762 C 0.12833 0.9608 0.5764 0.0
C763 C 0.13297 0.98264 0.50668 0.0
C764 C 0.13772 0.95611 0.4301 0.0
C765 C 0.138 0.90924 0.42382 0.0
C766 C 0.12866 0.10195 0.45176 0.0
C767 C 0.13376 0.12798 0.5276 0.0
C768 C 0.12847 0.05492 0.44464 0.0
C769 C 0.13307 0.03279 0.51408 0.0
C770 C 0.13795 0.05902 0.59045 0.0
C771 C 0.13838 0.10587 0.59685 0.0
H772 H 0.86678 0.4086 0.65673 0.0
H773 H 0.8936 0.38297 0.43437 0.0
H774 H 0.86627 0.48831 0.6399 0.0
H775 H 0.8928 0.46234 0.41635 0.0
H776 H 0.8749 0.60036 0.36205 0.0
H777 H 0.87447 0.52044 0.37827 0.0
H778 H 0.8844 0.55342 0.65327 0.0
H779 H 0.88519 0.63313 0.63627 0.0
C780 C 0.87251 0.41987 0.604 0.0
C781 C 0.8803 0.3893 0.54728 0.0
C782 C 0.87225 0.46558 0.59456 0.0
C783 C 0.87949 0.48174 0.52676 0.0
C784 C 0.88705 0.45101 0.46897 0.0
C785 C 0.88757 0.40555 0.47968 0.0
C786 C 0.87693 0.59045 0.42594 0.0
C787 C 0.88006 0.62295 0.49793 0.0
C788 C 0.87675 0.54473 0.43519 0.0
C789 C 0.87939 0.5305 0.51712 0.0
C790 C 0.88225 0.56321 0.58945 0.0
C791 C 0.88277 0.6088 0.57965 0.0
H792 H 0.8674 0.88917 0.40752 0.0
H793 H 0.89341 0.89787 0.63385 0.0
H794 H 0.86831 0.97068 0.41311 0.0
H795 H 0.89397 0.97968 0.64084 0.0
H796 H 0.87512 0.12589 0.6765 0.0
H797 H 0.87521 0.04426 0.66841 0.0
H798 H 0.88771 0.03185 0.39686 0.0
H799 H 0.88802 0.11402 0.40583 0.0
C800 C 0.87322 0.90848 0.45899 0.0
C801 C 0.88027 0.88691 0.52063 0.0
C802 C 0.87382 0.95517 0.46167 0.0
C803 C 0.88121 0.98166 0.52733 0.0
C804 C 0.88816 0.9602 0.58957 0.0
C805 C 0.88784 0.91336 0.58553 0.0
C806 C 0.87788 0.10576 0.61497 0.0
C807 C 0.88148 0.1264 0.54154 0.0
C808 C 0.87801 0.05901 0.61058 0.0
C809 C 0.88145 0.03154 0.53202 0.0
C810 C 0.88496 0.05212 0.45822 0.0
C811 C 0.88518 0.09907 0.46334 0.0
H812 H 0.1468 0.60478 0.36893 0.0
H813 H 0.12401 0.63201 0.60974 0.0
H814 H 0.14729 0.52476 0.38455 0.0
H815 H 0.12498 0.55232 0.62684 0.0
H816 H 0.1475 0.41101 0.65233 0.0
H817 H 0.14773 0.49107 0.63677 0.0
H818 H 0.12477 0.46342 0.39763 0.0
H819 H 0.12407 0.38374 0.41471 0.0
C820 C 0.14201 0.59379 0.42555 0.0
C821 C 0.1353 0.62483 0.48784 0.0
C822 C 0.14227 0.54797 0.43433 0.0
C823 C 0.1362 0.53228 0.50701 0.0
C824 C 0.12977 0.56342 0.57031 0.0
C825 C 0.12918 0.609 0.56024 0.0
C826 C 0.14251 0.42199 0.5964 0.0
C827 C 0.1357 0.39093 0.53503 0.0
C828 C 0.14262 0.46783 0.58767 0.0
C829 C 0.13628 0.48351 0.51592 0.0
C830 C 0.12977 0.45234 0.45345 0.0
C831 C 0.12932 0.40676 0.46351 0.0
H832 H 0.62451 0.61876 0.89852 0.0
H833 H 0.64324 0.62952 0.15384 0.0
H834 H 0.62429 0.53695 0.89022 0.0
H835 H 0.64285 0.54784 0.14625 0.0
H836 H 0.62557 0.40205 0.13171 0.0
H837 H 0.62548 0.48417 0.14253 0.0
H838 H 0.64175 0.47429 0.87977 0.0
H839 H 0.64197 0.39272 0.86949 0.0
C840 C 0.62854 0.60361 0.95292 0.0
C841 C 0.63394 0.63056 0.02662 0.0
C842 C 0.62846 0.55678 0.94811 0.0
C843 C 0.63354 0.53579 0.01765 0.0
C844 C 0.63878 0.56288 0.09187 0.0
C845 C 0.63909 0.60964 0.09592 0.0
C846 C 0.62916 0.41755 0.07656 0.0
C847 C 0.63393 0.39093 1.00026 0.0
C848 C 0.62916 0.46452 0.08278 0.0
C849 C 0.63361 0.48584 1.01196 0.0
C850 C 0.63819 0.45903 0.9353 0.0
C851 C 0.63843 0.41228 0.92976 0.0
H852 H 0.3925 0.88191 0.93337 0.0
H853 H 0.36948 0.90845 0.17336 0.0
H854 H 0.39106 0.96124 0.91492 0.0
H855 H 0.36849 0.9883 0.15636 0.0
H856 H 0.39033 0.13055 0.1272 0.0
H857 H 0.38978 0.05116 0.14633 0.0
H858 H 0.36893 0.02033 0.8994 0.0
H859 H 0.369 0.10016 0.88166 0.0
C860 C 0.38721 0.90474 0.98255 0.0
C861 C 0.38118 0.88888 0.05521 0.0
C862 C 0.38632 0.95009 0.9716 0.0
C863 C 0.37968 0.98097 0.0342 0.0
C864 C 0.37369 0.96526 0.10715 0.0
C865 C 0.37425 0.91959 0.11681 0.0
C866 C 0.38555 0.10687 0.0772 0.0
C867 C 0.37973 0.12166 1.00279 0.0
C868 C 0.38519 0.06149 0.08842 0.0
C869 C 0.37933 0.02954 0.02434 0.0
C870 C 0.37352 0.04423 0.9498 0.0
C871 C 0.37353 0.08988 0.9398 0.0
H872 H 0.3906 0.39296 0.13653 0.0
H873 H 0.37338 0.38608 0.87722 0.0
H874 H 0.39115 0.47505 0.14868 0.0
H875 H 0.37406 0.46771 0.88881 0.0
H876 H 0.37411 0.62142 0.16729 0.0
H877 H 0.3742 0.53971 0.15714 0.0
H878 H 0.3917 0.52968 0.89773 0.0
H879 H 0.39177 0.61168 0.90855 0.0
C880 C 0.38692 0.40899 0.08228 0.0
C881 C 0.38179 0.38304 1.00646 0.0
C882 C 0.3872 0.45597 0.08925 0.0
C883 C 0.38265 0.47803 0.01966 0.0
C884 C 0.37771 0.4519 0.94339 0.0
C885 C 0.3772 0.40511 0.93713 0.0
C886 C 0.37797 0.60176 0.10804 0.0
C887 C 0.38286 0.62301 0.03845 0.0
C888 C 0.37811 0.55494 0.10251 0.0
C889 C 0.38293 0.52805 0.0266 0.0
C890 C 0.38782 0.54935 0.95689 0.0
C891 C 0.38792 0.59628 0.96315 0.0
H892 H 0.64657 0.10852 0.87752 0.0
H893 H 0.62431 0.13811 0.12011 0.0
H894 H 0.64677 0.02872 0.8948 0.0
H895 H 0.62498 0.05862 0.13878 0.0
H896 H 0.64613 0.91583 0.1648 0.0
H897 H 0.64676 0.996 0.14978 0.0
H898 H 0.62444 0.96952 0.90771 0.0
H899 H 0.62335 0.88992 0.92416 0.0
C900 C 0.64185 0.09807 0.93491 0.0
C901 C 0.63535 0.12962 0.99718 0.0
C902 C 0.64194 0.05243 0.94465 0.0
C903 C 0.63591 0.03752 0.01822 0.0
C904 C 0.62974 0.06919 0.08163 0.0
C905 C 0.62931 0.11461 0.07065 0.0
C906 C 0.64133 0.9272 0.10857 0.0
C907 C 0.63459 0.89659 0.04611 0.0
C908 C 0.64168 0.97302 0.10007 0.0
C909 C 0.63567 0.98893 0.02748 0.0
C910 C 0.62918 0.95818 0.96416 0.0
C911 C 0.6285 0.91269 0.97395 0.0
H912 H 0.11558 0.29666 0.2895 0.0
H913 H 0.15131 0.21541 0.26804 0.0
H914 H 0.11588 0.29756 0.13007 0.0
H915 H 0.15204 0.21789 0.10985 0.0
H916 H 0.14265 0.19316 0.81387 0.0
H917 H 0.14164 0.19101 0.97239 0.0
H918 H 0.12745 0.32764 1.01293 0.0
H919 H 0.12859 0.32958 0.85397 0.0
C920 C 0.12348 0.27872 0.25086 0.0
C921 C 0.13343 0.25595 0.29251 0.0
C922 C 0.12377 0.27978 0.15912 0.0
C923 C 0.13401 0.25791 0.10559 0.0
C924 C 0.14389 0.23485 0.14757 0.0
C925 C 0.1436 0.23393 0.23914 0.0
C926 C 0.13938 0.22287 0.85661 0.0
C927 C 0.13557 0.26141 0.82044 0.0
C928 C 0.13881 0.2217 0.94807 0.0
C929 C 0.13445 0.25913 1.00702 0.0
C930 C 0.13068 0.2978 0.97055 0.0
C931 C 0.13133 0.29898 0.87897 0.0
H932 H 0.86348 0.21753 0.28033 0.0
H933 H 0.90138 0.28625 0.29998 0.0
H934 H 0.86296 0.22052 0.12225 0.0
H935 H 0.90116 0.2881 0.1405 0.0
H936 H 0.88862 0.32615 0.86621 0.0
H937 H 0.88987 0.3232 0.02494 0.0
H938 H 0.87322 0.19002 0.98387 0.0
H939 H 0.87227 0.19282 0.82556 0.0
C940 C 0.87167 0.23365 0.25115 0.0
C941 C 0.88235 0.2522 0.30403 0.0
C942 C 0.8715 0.23478 0.1596 0.0
C943 C 0.882 0.2547 0.11715 0.0
C944 C 0.89278 0.27293 0.17008 0.0
C945 C 0.89299 0.27143 0.26178 0.0
C946 C 0.88542 0.29598 0.89091 0.0
C947 C 0.88053 0.25952 0.83218 0.0
C948 C 0.8861 0.29427 0.98239 0.0
C949 C 0.88165 0.25633 0.01865 0.0
C950 C 0.87661 0.2201 0.95962 0.0
C951 C 0.87607 0.22168 0.86827 0.0
H952 H 0.14255 0.82097 0.2097 0.0
H953 H 0.12723 0.68627 0.16824 0.0
H954 H 0.14144 0.82402 0.05159 0.0
H955 H 0.12593 0.68926 1.00961 0.0
H956 H 0.11418 0.72402 0.7348 0.0
H957 H 0.11448 0.72225 0.89408 0.0
H958 H 0.15168 0.79588 0.91341 0.0
H959 H 0.15101 0.79907 0.75555 0.0
C960 C 0.13897 0.79183 0.16678 0.0
C961 C 0.13485 0.75351 0.2025 0.0
C962 C 0.13834 0.79354 0.07555 0.0
C963 C 0.13358 0.75692 1.01634 0.0
C964 C 0.12948 0.71849 0.0523 0.0
C965 C 0.13021 0.71672 0.14367 0.0
C966 C 0.12235 0.74025 0.77317 0.0
C967 C 0.13266 0.76129 0.73126 0.0
C968 C 0.12262 0.73877 0.8648 0.0
C969 C 0.13315 0.75867 0.91798 0.0
C970 C 0.14333 0.78033 0.87589 0.0
C971 C 0.14307 0.7816 0.78445 0.0
H972 H 0.89909 0.79328 0.77973 0.0
H973 H 0.86481 0.70643 0.7475 0.0
H974 H 0.89847 0.79167 0.93927 0.0
H975 H 0.86352 0.70673 0.90616 0.0
H976 H 0.87173 0.68125 0.19048 0.0
H977 H 0.87287 0.68108 0.03096 0.0
H978 H 0.88697 0.81762 0.07269 0.0
H979 H 0.88582 0.81737 0.23166 0.0
C980 C 0.89132 0.77413 0.80666 0.0
C981 C 0.88173 0.75109 0.75026 0.0
C982 C 0.89085 0.77351 0.89873 0.0
C983 C 0.88083 0.74948 0.93771 0.0
C984 C 0.87145 0.72564 0.88035 0.0
C985 C 0.87196 0.72628 0.78866 0.0
C986 C 0.87499 0.71133 0.16557 0.0
C987 C 0.87882 0.74913 0.22471 0.0
C988 C 0.87564 0.71136 0.0735 0.0
C989 C 0.88011 0.7493 0.03695 0.0
C990 C 0.88373 0.78732 0.09671 0.0
C991 C 0.88303 0.78727 0.18859 0.0
H992 H 0.62946 0.83162 0.34322 0.0
H993 H 0.6415 0.6932 0.30412 0.0
H994 H 0.62797 0.83016 0.50217 0.0
H995 H 0.6401 0.69148 0.46357 0.0
H996 H 0.64028 0.82614 0.79208 0.0
H997 H 0.64133 0.82661 0.63312 0.0
H998 H 0.6247 0.69349 0.59072 0.0
H999 H 0.62383 0.69307 0.75098 0.0
C1000 C 0.6318 0.80075 0.36848 0.0
C1001 C 0.63554 0.76251 0.30982 0.0
C1002 C 0.63103 0.79992 0.46035 0.0
C1003 C 0.63389 0.76065 0.49765 0.0
C1004 C 0.63765 0.72234 0.43862 0.0
C1005 C 0.63859 0.7234 0.34669 0.0
C1006 C 0.63688 0.7968 0.7491 0.0
C1007 C 0.63208 0.75943 0.78553 0.0
C1008 C 0.63737 0.7972 0.65714 0.0
C1009 C 0.63314 0.76007 0.59708 0.0
C1010 C 0.62822 0.72269 0.63365 0.0
C1011 C 0.62758 0.72255 0.72608 0.0
H1012 H 0.39428 0.68878 0.76821 0.0
H1013 H 0.37348 0.8152 0.80653 0.0
H1014 H 0.39402 0.68962 0.60804 0.0
H1015 H 0.37316 0.81616 0.64742 0.0
H1016 H 0.38695 0.82549 0.36028 0.0
H1017 H 0.388 0.82403 0.51973 0.0
H1018 H 0.37823 0.6835 0.47878 0.0
H1019 H 0.37705 0.68531 0.31937 0.0
C1020 C 0.38966 0.71684 0.74278 0.0
C1021 C 0.38375 0.75165 0.80143 0.0
C1022 C 0.38942 0.71723 0.6504 0.0
C1023 C 0.38353 0.75294 0.61315 0.0
C1024 C 0.37787 0.78809 0.67229 0.0
C1025 C 0.37792 0.78731 0.76422 0.0
C1026 C 0.38502 0.79425 0.38518 0.0
C1027 C 0.38189 0.75557 0.32606 0.0
C1028 C 0.38556 0.7934 0.47717 0.0
C1029 C 0.38319 0.75363 0.5138 0.0
C1030 C 0.38022 0.71479 0.45422 0.0
C1031 C 0.37943 0.71588 0.36236 0.0
H1032 H 0.65146 0.30251 0.26216 0.0
H1033 H 0.6142 0.22982 0.24177 0.0
H1034 H 0.65209 0.2992 0.42 0.0
H1035 H 0.61451 0.22783 0.40103 0.0
H1036 H 0.62728 0.19053 0.6746 0.0
H1037 H 0.62594 0.19381 0.51606 0.0
H1038 H 0.64189 0.32798 0.5584 0.0
H1039 H 0.64301 0.3247 0.71644 0.0
C1040 C 0.64342 0.28552 0.29113 0.0
C1041 C 0.63291 0.26587 0.23805 0.0
C1042 C 0.64366 0.28419 0.38255 0.0
C1043 C 0.63337 0.26309 0.42471 0.0
C1044 C 0.62273 0.24389 0.37166 0.0
C1045 C 0.62247 0.24548 0.28005 0.0
C1046 C 0.63034 0.22094 0.65015 0.0
C1047 C 0.6351 0.2575 0.70907 0.0
C1048 C 0.62959 0.22286 0.55883 0.0
C1049 C 0.63381 0.26121 0.52301 0.0
C1050 C 0.63869 0.29758 0.58229 0.0
C1051 C 0.63933 0.29574 0.67347 0.0
H1052 H 0.36489 0.29852 0.26912 0.0
H1053 H 0.39994 0.214 0.24595 0.0
H1054 H 0.36408 0.29544 0.42693 0.0
H1055 H 0.39964 0.21274 0.40515 0.0
H1056 H 0.38694 0.18101 0.6809 0.0
H1057 H 0.38817 0.18352 0.52219 0.0
H1058 H 0.37426 0.32048 0.56448 0.0
H1059 H 0.37305 0.31762 0.72259 0.0
C1060 C 0.37245 0.27921 0.29757 0.0
C1061 C 0.38244 0.25637 0.24375 0.0
C1062 C 0.37212 0.27794 0.38899 0.0
C1063 C 0.38181 0.25385 0.43047 0.0
C1064 C 0.39189 0.23129 0.37654 0.0
C1065 C 0.3922 0.23257 0.28489 0.0
C1066 C 0.38425 0.21176 0.65628 0.0
C1067 C 0.38 0.24919 0.71513 0.0
C1068 C 0.38497 0.2133 0.56485 0.0
C1069 C 0.38132 0.25224 0.52891 0.0
C1070 C 0.37698 0.28956 0.58828 0.0
C1071 C 0.3763 0.288 0.67954 0.0
H1072 H 0.04108 0.31868 0.31186 0.0
H1073 H 0.04244 0.21382 0.47588 0.0
H1074 H 0.0167 0.31929 0.3194 0.0
H1075 H 0.01794 0.21259 0.48045 0.0
H1076 H 0.97336 0.23919 0.52204 0.0
H1077 H 0.99767 0.24653 0.52972 0.0
H1078 H 0.99821 0.27904 0.26414 0.0
H1079 H 0.97399 0.27515 0.25918 0.0
C1080 C 0.03612 0.29556 0.34931 0.0
C1081 C 0.04369 0.26605 0.39287 0.0
C1082 C 0.02209 0.29561 0.35321 0.0
C1083 C 0.01516 0.26552 0.39952 0.0
C1084 C 0.0228 0.23668 0.44492 0.0
C1085 C 0.03688 0.23718 0.44212 0.0
C1086 C 0.97862 0.2488 0.46587 0.0
C1087 C 0.97156 0.25636 0.38981 0.0
C1088 C 0.99266 0.25234 0.46976 0.0
C1089 C 1.0001 0.26326 0.3975 0.0
C1090 C 0.99298 0.27125 0.32193 0.0
C1091 C 0.97898 0.26821 0.31844 0.0
H1092 H 0.9724 0.8088 0.58727 0.0
H1093 H 0.97428 0.68642 0.70246 0.0
H1094 H 0.99689 0.81008 0.57903 0.0
H1095 H 0.99862 0.68693 0.69252 0.0
H1096 H 0.04136 0.72866 0.76487 0.0
H1097 H 0.01708 0.72521 0.76141 0.0
H1098 H 0.017 0.77734 0.51306 0.0
H1099 H 0.04143 0.78306 0.51903 0.0
C1100 C 0.97803 0.78181 0.60963 0.0
C1101 C 0.97135 0.74781 0.64652 0.0
C1102 C 0.9921 0.78244 0.60476 0.0
C1103 C 0.99987 0.74888 0.63605 0.0
C1104 C 0.9931 0.71406 0.66988 0.0
C1105 C 0.97908 0.71364 0.67536 0.0
C1106 C 0.03622 0.73979 0.7097 0.0
C1107 C 0.04348 0.75652 0.64263 0.0
C1108 C 0.02221 0.73719 0.70704 0.0
C1109 C 0.01493 0.75087 0.63681 0.0
C1110 C 0.02218 0.76694 0.56881 0.0
C1111 C 0.03625 0.76968 0.57163 0.0
H1112 H 0.54308 0.71842 0.96547 0.0
H1113 H 0.54123 0.81439 0.78238 0.0
H1114 H 0.51859 0.71664 0.97115 0.0
H1115 H 0.51687 0.81456 0.79076 0.0
H1116 H 0.47423 0.7682 0.73907 0.0
H1117 H 0.49843 0.77254 0.74265 0.0
H1118 H 0.49815 0.751 1.01532 0.0
H1119 H 0.47384 0.74312 1.00949 0.0
C1120 C 0.53742 0.73973 0.92761 0.0
C1121 C 0.5441 0.76618 0.87279 0.0
C1122 C 0.52333 0.73891 0.93101 0.0
C1123 C 0.51554 0.76506 0.88062 0.0
C1124 C 0.52236 0.79286 0.82862 0.0
C1125 C 0.53639 0.79308 0.82418 0.0
C1126 C 0.47926 0.76373 0.79971 0.0
C1127 C 0.4719 0.75477 0.87365 0.0
C1128 C 0.49326 0.76706 0.80229 0.0
C1129 C 0.50047 0.76233 0.87943 0.0
C1130 C 0.4931 0.75427 0.95415 0.0
C1131 C 0.47905 0.75042 0.95123 0.0
H1132 H 0.47287 0.30157 0.0638 0.0
H1133 H 0.47452 0.19516 0.22408 0.0
H1134 H 0.49735 0.3038 0.05998 0.0
H1135 H 0.49891 0.19554 0.21716 0.0
H1136 H 0.5415 0.24033 0.27868 0.0
H1137 H 0.51729 0.23585 0.27363 0.0
H1138 H 0.5177 0.27097 1.00996 0.0
H1139 H 0.54197 0.27902 0.01794 0.0
C1140 C 0.4785 0.2781 0.0969 0.0
C1141 C 0.47177 0.24847 0.14486 0.0
C1142 C 0.49257 0.27917 0.09452 0.0
C1143 C 0.50029 0.25015 0.139 0.0
C1144 C 0.49345 0.21936 0.1841 0.0
C1145 C 0.47942 0.21884 0.18763 0.0
C1146 C 0.53648 0.24776 0.21986 0.0
C1147 C 0.54385 0.26053 0.14913 0.0
C1148 C 0.52249 0.24437 0.21629 0.0
C1149 C 0.51534 0.25288 0.14121 0.0
C1150 C 0.52272 0.26474 0.06956 0.0
C1151 C 0.53675 0.26867 0.07359 0.0
loop_
_geom_bond_atom_site_label_1
_geom_bond_atom_site_label_2
_geom_bond_distance
_geom_bond_site_symmetry_2
_ccdc_geom_bond_type
Tb0 N29 2.617 . S
Tb0 N35 2.572 . S
Tb0 O44 2.465 . S
Tb0 O45 2.387 . S
Tb0 O47 2.428 . S
Tb0 O48 2.308 . S
Tb0 O52 2.349 . S
Tb0 O55 2.393 . S
Tb0 C64 2.802 . S
C1 N2 1.379 . S
C1 C4 1.416 . S
C1 C8 1.424 . S
N2 C1 1.379 . S
N2 C5 1.334 . S
N2 Tb11 2.617 . S
C3 C5 1.390 . S
C3 C6 1.339 . S
C3 H23 0.930 . S
C4 C1 1.416 . S
C4 C6 1.416 . S
C4 C10 1.448 . S
C5 N2 1.334 . S
C5 C3 1.390 . S
C5 H16 0.930 . S
C6 C3 1.339 . S
C6 C4 1.416 . S
C6 H27 0.930 . S
C7 C8 1.413 . S
C7 C9 1.427 . S
C7 C13 1.416 . S
C8 C1 1.424 . S
C8 C7 1.413 . S
C8 N12 1.361 . S
C9 C7 1.427 . S
C9 C10 1.328 . S
C9 H24 0.929 . S
C10 C4 1.448 . S
C10 C9 1.328 . S
C10 H25 0.930 . S
Tb11 N2 2.617 . S
Tb11 N12 2.572 . S
Tb11 O46 2.349 . S
Tb11 O49 2.393 . S
Tb11 O50 2.465 . S
Tb11 O51 2.387 . S
Tb11 O53 2.428 . S
Tb11 O54 2.308 . S
Tb11 C75 2.802 . S
N12 C8 1.361 . S
N12 Tb11 2.572 . S
N12 C14 1.340 . S
C13 C7 1.416 . S
C13 C15 1.332 . S
C13 H21 0.931 . S
C14 N12 1.340 . S
C14 C15 1.407 . S
C14 H20 0.930 . S
C15 C13 1.332 . S
C15 C14 1.407 . S
C15 H17 0.929 . S
H16 C5 0.930 . S
H17 C15 0.929 . S
H18 C33 0.930 . S
H19 C40 0.929 . S
H20 C14 0.930 . S
H21 C13 0.931 . S
H22 C36 0.930 . S
H23 C3 0.930 . S
H24 C9 0.929 . S
H25 C10 0.930 . S
H26 C31 0.930 . S
H27 C6 0.930 . S
H28 C39 0.931 . S
N29 Tb0 2.617 . S
N29 C30 1.379 . S
N29 C33 1.334 . S
C30 N29 1.379 . S
C30 C32 1.416 . S
C30 C38 1.424 . S
C31 H26 0.930 . S
C31 C33 1.390 . S
C31 C34 1.339 . S
C32 C30 1.416 . S
C32 C34 1.416 . S
C32 C65 1.448 . S
C33 H18 0.930 . S
C33 N29 1.334 . S
C33 C31 1.390 . S
C34 C31 1.339 . S
C34 C32 1.416 . S
C34 H41 0.930 . S
N35 Tb0 2.572 . S
N35 C36 1.340 . S
N35 C38 1.361 . S
C36 H22 0.930 . S
C36 N35 1.340 . S
C36 C40 1.407 . S
C37 C38 1.413 . S
C37 C39 1.416 . S
C37 C66 1.427 . S
C38 C30 1.424 . S
C38 N35 1.361 . S
C38 C37 1.413 . S
C39 H28 0.931 . S
C39 C37 1.416 . S
C39 C40 1.332 . S
C40 H19 0.929 . S
C40 C36 1.407 . S
C40 C39 1.332 . S
H41 C34 0.930 . S
H42 C65 0.930 . S
H43 C66 0.929 . S
O44 Tb0 2.465 . S
O44 C64 1.264 . S
O45 Tb0 2.387 . S
O45 C56 1.264 . S
O46 Tb11 2.349 . S
O46 C56 1.243 . S
O47 Tb0 2.428 . S
O47 C64 1.256 . S
O48 Tb0 2.308 . S
O48 C63 1.266 . S
O49 Tb11 2.393 . S
O49 C63 1.248 . S
O50 Tb11 2.465 . S
O50 C75 1.264 . S
O51 Tb11 2.387 . S
O51 C67 1.264 . S
O52 Tb0 2.349 . S
O52 C67 1.243 . S
O53 Tb11 2.428 . S
O53 C75 1.256 . S
O54 Tb11 2.308 . S
O54 C74 1.266 . S
O55 Tb0 2.393 . S
O55 C74 1.248 . S
C56 O45 1.264 . S
C56 O46 1.243 . S
C57 C60 1.399 . S
C57 C62 1.383 . S
C57 C64 1.496 . S
C58 C59 1.399 . S
C58 C62 1.389 . S
C59 C58 1.399 . S
C59 C61 1.380 . S
C59 H76 0.929 . S
C60 C57 1.399 . S
C60 C61 1.392 . S
C60 H77 0.929 . S
C61 C59 1.380 . S
C61 C60 1.392 . S
C61 H78 0.929 . S
C62 C57 1.383 . S
C62 C58 1.389 . S
C62 H79 0.931 . S
C63 O48 1.266 . S
C63 O49 1.248 . S
C64 Tb0 2.802 . S
C64 O44 1.264 . S
C64 O47 1.256 . S
C64 C57 1.496 . S
C65 C32 1.448 . S
C65 H42 0.930 . S
C65 C66 1.328 . S
C66 C37 1.427 . S
C66 H43 0.929 . S
C66 C65 1.328 . S
C67 O51 1.264 . S
C67 O52 1.243 . S
C68 C71 1.399 . S
C68 C72 1.383 . S
C68 C75 1.496 . S
C69 C70 1.399 . S
C69 C72 1.389 . S
C70 C69 1.399 . S
C70 C73 1.380 . S
C70 H80 0.929 . S
C71 C68 1.399 . S
C71 C73 1.392 . S
C71 H81 0.929 . S
C72 C68 1.383 . S
C72 C69 1.389 . S
C72 H82 0.931 . S
C73 C70 1.380 . S
C73 C71 1.392 . S
C73 H83 0.929 . S
C74 O54 1.266 . S
C74 O55 1.248 . S
C75 Tb11 2.802 . S
C75 O50 1.264 . S
C75 O53 1.256 . S
C75 C68 1.496 . S
H76 C59 0.929 . S
H77 C60 0.929 . S
H78 C61 0.929 . S
H79 C62 0.931 . S
H80 C70 0.929 . S
H81 C71 0.929 . S
H82 C72 0.931 . S
H83 C73 0.929 . S
Tb84 N113 2.617 . S
Tb84 N119 2.572 . S
Tb84 O128 2.465 . S
Tb84 O129 2.387 . S
Tb84 O131 2.428 . S
Tb84 O132 2.308 . S
Tb84 O136 2.349 . S
Tb84 O139 2.393 . S
Tb84 C148 2.802 . S
C85 N86 1.379 . S
C85 C88 1.416 . S
C85 C92 1.424 . S
N86 C85 1.379 . S
N86 C89 1.334 . S
N86 Tb95 2.617 . S
C87 C89 1.390 . S
C87 C90 1.339 . S
C87 H107 0.930 . S
C88 C85 1.416 . S
C88 C90 1.416 . S
C88 C94 1.448 . S
C89 N86 1.334 . S
C89 C87 1.390 . S
C89 H100 0.930 . S
C90 C87 1.339 . S
C90 C88 1.416 . S
C90 H111 0.930 . S
C91 C92 1.413 . S
C91 C93 1.427 . S
C91 C97 1.416 . S
C92 C85 1.424 . S
C92 C91 1.413 . S
C92 N96 1.361 . S
C93 C91 1.427 . S
C93 C94 1.328 . S
C93 H108 0.929 . S
C94 C88 1.448 . S
C94 C93 1.328 . S
C94 H109 0.930 . S
Tb95 N86 2.617 . S
Tb95 N96 2.572 . S
Tb95 O130 2.349 . S
Tb95 O133 2.393 . S
Tb95 O134 2.465 . S
Tb95 O135 2.387 . S
Tb95 O137 2.428 . S
Tb95 O138 2.308 . S
Tb95 C159 2.802 . S
N96 C92 1.361 . S
N96 Tb95 2.572 . S
N96 C98 1.340 . S
C97 C91 1.416 . S
C97 C99 1.332 . S
C97 H105 0.931 . S
C98 N96 1.340 . S
C98 C99 1.407 . S
C98 H104 0.930 . S
C99 C97 1.332 . S
C99 C98 1.407 . S
C99 H101 0.929 . S
H100 C89 0.930 . S
H101 C99 0.929 . S
H102 C117 0.930 . S
H103 C124 0.929 . S
H104 C98 0.930 . S
H105 C97 0.931 . S
H106 C120 0.930 . S
H107 C87 0.930 . S
H108 C93 0.929 . S
H109 C94 0.930 . S
H110 C115 0.930 . S
H111 C90 0.930 . S
H112 C123 0.931 . S
N113 Tb84 2.617 . S
N113 C114 1.379 . S
N113 C117 1.334 . S
C114 N113 1.379 . S
C114 C116 1.416 . S
C114 C122 1.424 . S
C115 H110 0.930 . S
C115 C117 1.390 . S
C115 C118 1.339 . S
C116 C114 1.416 . S
C116 C118 1.416 . S
C116 C149 1.448 . S
C117 H102 0.930 . S
C117 N113 1.334 . S
C117 C115 1.390 . S
C118 C115 1.339 . S
C118 C116 1.416 . S
C118 H125 0.930 . S
N119 Tb84 2.572 . S
N119 C120 1.340 . S
N119 C122 1.361 . S
C120 H106 0.930 . S
C120 N119 1.340 . S
C120 C124 1.407 . S
C121 C122 1.413 . S
C121 C123 1.416 . S
C121 C150 1.427 . S
C122 C114 1.424 . S
C122 N119 1.361 . S
C122 C121 1.413 . S
C123 H112 0.931 . S
C123 C121 1.416 . S
C123 C124 1.332 . S
C124 H103 0.929 . S
C124 C120 1.407 . S
C124 C123 1.332 . S
H125 C118 0.930 . S
H126 C149 0.930 . S
H127 C150 0.929 . S
O128 Tb84 2.465 . S
O128 C148 1.264 . S
O129 Tb84 2.387 . S
O129 C140 1.264 . S
O130 Tb95 2.349 . S
O130 C140 1.243 . S
O131 Tb84 2.428 . S
O131 C148 1.256 . S
O132 Tb84 2.308 . S
O132 C147 1.266 . S
O133 Tb95 2.393 . S
O133 C147 1.248 . S
O134 Tb95 2.465 . S
O134 C159 1.264 . S
O135 Tb95 2.387 . S
O135 C151 1.264 . S
O136 Tb84 2.349 . S
O136 C151 1.243 . S
O137 Tb95 2.428 . S
O137 C159 1.256 . S
O138 Tb95 2.308 . S
O138 C158 1.266 . S
O139 Tb84 2.393 . S
O139 C158 1.248 . S
C140 O129 1.264 . S
C140 O130 1.243 . S
C141 C144 1.399 . S
C141 C146 1.383 . S
C141 C148 1.496 . S
C142 C143 1.399 . S
C142 C146 1.389 . S
C143 C142 1.399 . S
C143 C145 1.380 . S
C143 H160 0.929 . S
C144 C141 1.399 . S
C144 C145 1.392 . S
C144 H161 0.929 . S
C145 C143 1.380 . S
C145 C144 1.392 . S
C145 H162 0.929 . S
C146 C141 1.383 . S
C146 C142 1.389 . S
C146 H163 0.931 . S
C147 O132 1.266 . S
C147 O133 1.248 . S
C148 Tb84 2.802 . S
C148 O128 1.264 . S
C148 O131 1.256 . S
C148 C141 1.496 . S
C149 C116 1.448 . S
C149 H126 0.930 . S
C149 C150 1.328 . S
C150 C121 1.427 . S
C150 H127 0.929 . S
C150 C149 1.328 . S
C151 O135 1.264 . S
C151 O136 1.243 . S
C152 C155 1.399 . S
C152 C156 1.383 . S
C152 C159 1.496 . S
C153 C154 1.399 . S
C153 C156 1.389 . S
C154 C153 1.399 . S
C154 C157 1.380 . S
C154 H164 0.929 . S
C155 C152 1.399 . S
C155 C157 1.392 . S
C155 H165 0.929 . S
C156 C152 1.383 . S
C156 C153 1.389 . S
C156 H166 0.931 . S
C157 C154 1.380 . S
C157 C155 1.392 . S
C157 H167 0.929 . S
C158 O138 1.266 . S
C158 O139 1.248 . S
C159 Tb95 2.802 . S
C159 O134 1.264 . S
C159 O137 1.256 . S
C159 C152 1.496 . S
H160 C143 0.929 . S
H161 C144 0.929 . S
H162 C145 0.929 . S
H163 C146 0.931 . S
H164 C154 0.929 . S
H165 C155 0.929 . S
H166 C156 0.931 . S
H167 C157 0.929 . S
Tb168 N197 2.617 . S
Tb168 N203 2.572 . S
Tb168 O212 2.465 . S
Tb168 O213 2.387 . S
Tb168 O215 2.428 . S
Tb168 O216 2.308 . S
Tb168 O220 2.349 . S
Tb168 O223 2.393 . S
Tb168 C232 2.802 . S
C169 N170 1.379 . S
C169 C172 1.416 . S
C169 C176 1.424 . S
N170 C169 1.379 . S
N170 C173 1.334 . S
N170 Tb179 2.617 . S
C171 C173 1.390 . S
C171 C174 1.339 . S
C171 H191 0.930 . S
C172 C169 1.416 . S
C172 C174 1.416 . S
C172 C178 1.448 . S
C173 N170 1.334 . S
C173 C171 1.390 . S
C173 H184 0.930 . S
C174 C171 1.339 . S
C174 C172 1.416 . S
C174 H195 0.930 . S
C175 C176 1.413 . S
C175 C177 1.427 . S
C175 C181 1.416 . S
C176 C169 1.424 . S
C176 C175 1.413 . S
C176 N180 1.361 . S
C177 C175 1.427 . S
C177 C178 1.328 . S
C177 H192 0.929 . S
C178 C172 1.448 . S
C178 C177 1.328 . S
C178 H193 0.930 . S
Tb179 N170 2.617 . S
Tb179 N180 2.572 . S
Tb179 O214 2.349 . S
Tb179 O217 2.393 . S
Tb179 O218 2.465 . S
Tb179 O219 2.387 . S
Tb179 O221 2.428 . S
Tb179 O222 2.308 . S
Tb179 C243 2.802 . S
N180 C176 1.361 . S
N180 Tb179 2.572 . S
N180 C182 1.340 . S
C181 C175 1.416 . S
C181 C183 1.332 . S
C181 H189 0.931 . S
C182 N180 1.340 . S
C182 C183 1.407 . S
C182 H188 0.930 . S
C183 C181 1.332 . S
C183 C182 1.407 . S
C183 H185 0.929 . S
H184 C173 0.930 . S
H185 C183 0.929 . S
H186 C201 0.930 . S
H187 C208 0.929 . S
H188 C182 0.930 . S
H189 C181 0.931 . S
H190 C204 0.930 . S
H191 C171 0.930 . S
H192 C177 0.929 . S
H193 C178 0.930 . S
H194 C199 0.930 . S
H195 C174 0.930 . S
H196 C207 0.931 . S
N197 Tb168 2.617 . S
N197 C198 1.379 . S
N197 C201 1.334 . S
C198 N197 1.379 . S
C198 C200 1.416 . S
C198 C206 1.424 . S
C199 H194 0.930 . S
C199 C201 1.390 . S
C199 C202 1.339 . S
C200 C198 1.416 . S
C200 C202 1.416 . S
C200 C233 1.448 . S
C201 H186 0.930 . S
C201 N197 1.334 . S
C201 C199 1.390 . S
C202 C199 1.339 . S
C202 C200 1.416 . S
C202 H209 0.930 . S
N203 Tb168 2.572 . S
N203 C204 1.340 . S
N203 C206 1.361 . S
C204 H190 0.930 . S
C204 N203 1.340 . S
C204 C208 1.407 . S
C205 C206 1.413 . S
C205 C207 1.416 . S
C205 C234 1.427 . S
C206 C198 1.424 . S
C206 N203 1.361 . S
C206 C205 1.413 . S
C207 H196 0.931 . S
C207 C205 1.416 . S
C207 C208 1.332 . S
C208 H187 0.929 . S
C208 C204 1.407 . S
C208 C207 1.332 . S
H209 C202 0.930 . S
H210 C233 0.930 . S
H211 C234 0.929 . S
O212 Tb168 2.465 . S
O212 C232 1.264 . S
O213 Tb168 2.387 . S
O213 C224 1.264 . S
O214 Tb179 2.349 . S
O214 C224 1.243 . S
O215 Tb168 2.428 . S
O215 C232 1.256 . S
O216 Tb168 2.308 . S
O216 C231 1.266 . S
O217 Tb179 2.393 . S
O217 C231 1.248 . S
O218 Tb179 2.465 . S
O218 C243 1.264 . S
O219 Tb179 2.387 . S
O219 C235 1.264 . S
O220 Tb168 2.349 . S
O220 C235 1.243 . S
O221 Tb179 2.428 . S
O221 C243 1.256 . S
O222 Tb179 2.308 . S
O222 C242 1.266 . S
O223 Tb168 2.393 . S
O223 C242 1.248 . S
C224 O213 1.264 . S
C224 O214 1.243 . S
C225 C228 1.399 . S
C225 C230 1.383 . S
C225 C232 1.496 . S
C226 C227 1.399 . S
C226 C230 1.389 . S
C227 C226 1.399 . S
C227 C229 1.380 . S
C227 H244 0.929 . S
C228 C225 1.399 . S
C228 C229 1.392 . S
C228 H245 0.929 . S
C229 C227 1.380 . S
C229 C228 1.392 . S
C229 H246 0.929 . S
C230 C225 1.383 . S
C230 C226 1.389 . S
C230 H247 0.931 . S
C231 O216 1.266 . S
C231 O217 1.248 . S
C232 Tb168 2.802 . S
C232 O212 1.264 . S
C232 O215 1.256 . S
C232 C225 1.496 . S
C233 C200 1.448 . S
C233 H210 0.930 . S
C233 C234 1.328 . S
C234 C205 1.427 . S
C234 H211 0.929 . S
C234 C233 1.328 . S
C235 O219 1.264 . S
C235 O220 1.243 . S
C236 C239 1.399 . S
C236 C240 1.383 . S
C236 C243 1.496 . S
C237 C238 1.399 . S
C237 C240 1.389 . S
C238 C237 1.399 . S
C238 C241 1.380 . S
C238 H248 0.929 . S
C239 C236 1.399 . S
C239 C241 1.392 . S
C239 H249 0.929 . S
C240 C236 1.383 . S
C240 C237 1.389 . S
C240 H250 0.931 . S
C241 C238 1.380 . S
C241 C239 1.392 . S
C241 H251 0.929 . S
C242 O222 1.266 . S
C242 O223 1.248 . S
C243 Tb179 2.802 . S
C243 O218 1.264 . S
C243 O221 1.256 . S
C243 C236 1.496 . S
H244 C227 0.929 . S
H245 C228 0.929 . S
H246 C229 0.929 . S
H247 C230 0.931 . S
H248 C238 0.929 . S
H249 C239 0.929 . S
H250 C240 0.931 . S
H251 C241 0.929 . S
Tb252 N281 2.617 . S
Tb252 N287 2.572 . S
Tb252 O296 2.465 . S
Tb252 O297 2.387 . S
Tb252 O299 2.428 . S
Tb252 O300 2.308 . S
Tb252 O304 2.349 . S
Tb252 O307 2.393 . S
Tb252 C316 2.802 . S
C253 N254 1.379 . S
C253 C256 1.416 . S
C253 C260 1.424 . S
N254 C253 1.379 . S
N254 C257 1.334 . S
N254 Tb263 2.617 . S
C255 C257 1.390 . S
C255 C258 1.339 . S
C255 H275 0.930 . S
C256 C253 1.416 . S
C256 C258 1.416 . S
C256 C262 1.448 . S
C257 N254 1.334 . S
C257 C255 1.390 . S
C257 H268 0.930 . S
C258 C255 1.339 . S
C258 C256 1.416 . S
C258 H279 0.930 . S
C259 C260 1.413 . S
C259 C261 1.427 . S
C259 C265 1.416 . S
C260 C253 1.424 . S
C260 C259 1.413 . S
C260 N264 1.361 . S
C261 C259 1.427 . S
C261 C262 1.328 . S
C261 H276 0.929 . S
C262 C256 1.448 . S
C262 C261 1.328 . S
C262 H277 0.930 . S
Tb263 N254 2.617 . S
Tb263 N264 2.572 . S
Tb263 O298 2.349 . S
Tb263 O301 2.393 . S
Tb263 O302 2.465 . S
Tb263 O303 2.387 . S
Tb263 O305 2.428 . S
Tb263 O306 2.308 . S
Tb263 C327 2.802 . S
N264 C260 1.361 . S
N264 Tb263 2.572 . S
N264 C266 1.340 . S
C265 C259 1.416 . S
C265 C267 1.332 . S
C265 H273 0.931 . S
C266 N264 1.340 . S
C266 C267 1.407 . S
C266 H272 0.930 . S
C267 C265 1.332 . S
C267 C266 1.407 . S
C267 H269 0.929 . S
H268 C257 0.930 . S
H269 C267 0.929 . S
H270 C285 0.930 . S
H271 C292 0.929 . S
H272 C266 0.930 . S
H273 C265 0.931 . S
H274 C288 0.930 . S
H275 C255 0.930 . S
H276 C261 0.929 . S
H277 C262 0.930 . S
H278 C283 0.930 . S
H279 C258 0.930 . S
H280 C291 0.931 . S
N281 Tb252 2.617 . S
N281 C282 1.379 . S
N281 C285 1.334 . S
C282 N281 1.379 . S
C282 C284 1.416 . S
C282 C290 1.424 . S
C283 H278 0.930 . S
C283 C285 1.390 . S
C283 C286 1.339 . S
C284 C282 1.416 . S
C284 C286 1.416 . S
C284 C317 1.448 . S
C285 H270 0.930 . S
C285 N281 1.334 . S
C285 C283 1.390 . S
C286 C283 1.339 . S
C286 C284 1.416 . S
C286 H293 0.930 . S
N287 Tb252 2.572 . S
N287 C288 1.340 . S
N287 C290 1.361 . S
C288 H274 0.930 . S
C288 N287 1.340 . S
C288 C292 1.407 . S
C289 C290 1.413 . S
C289 C291 1.416 . S
C289 C318 1.427 . S
C290 C282 1.424 . S
C290 N287 1.361 . S
C290 C289 1.413 . S
C291 H280 0.931 . S
C291 C289 1.416 . S
C291 C292 1.332 . S
C292 H271 0.929 . S
C292 C288 1.407 . S
C292 C291 1.332 . S
H293 C286 0.930 . S
H294 C317 0.930 . S
H295 C318 0.929 . S
O296 Tb252 2.465 . S
O296 C316 1.264 . S
O297 Tb252 2.387 . S
O297 C308 1.264 . S
O298 Tb263 2.349 . S
O298 C308 1.243 . S
O299 Tb252 2.428 . S
O299 C316 1.256 . S
O300 Tb252 2.308 . S
O300 C315 1.266 . S
O301 Tb263 2.393 . S
O301 C315 1.248 . S
O302 Tb263 2.465 . S
O302 C327 1.264 . S
O303 Tb263 2.387 . S
O303 C319 1.264 . S
O304 Tb252 2.349 . S
O304 C319 1.243 . S
O305 Tb263 2.428 . S
O305 C327 1.256 . S
O306 Tb263 2.308 . S
O306 C326 1.266 . S
O307 Tb252 2.393 . S
O307 C326 1.248 . S
C308 O297 1.264 . S
C308 O298 1.243 . S
C309 C312 1.399 . S
C309 C314 1.383 . S
C309 C316 1.496 . S
C310 C311 1.399 . S
C310 C314 1.389 . S
C311 C310 1.399 . S
C311 C313 1.380 . S
C311 H328 0.929 . S
C312 C309 1.399 . S
C312 C313 1.392 . S
C312 H329 0.929 . S
C313 C311 1.380 . S
C313 C312 1.392 . S
C313 H330 0.929 . S
C314 C309 1.383 . S
C314 C310 1.389 . S
C314 H331 0.931 . S
C315 O300 1.266 . S
C315 O301 1.248 . S
C316 Tb252 2.802 . S
C316 O296 1.264 . S
C316 O299 1.256 . S
C316 C309 1.496 . S
C317 C284 1.448 . S
C317 H294 0.930 . S
C317 C318 1.328 . S
C318 C289 1.427 . S
C318 H295 0.929 . S
C318 C317 1.328 . S
C319 O303 1.264 . S
C319 O304 1.243 . S
C320 C323 1.399 . S
C320 C324 1.383 . S
C320 C327 1.496 . S
C321 C322 1.399 . S
C321 C324 1.389 . S
C322 C321 1.399 . S
C322 C325 1.380 . S
C322 H332 0.929 . S
C323 C320 1.399 . S
C323 C325 1.392 . S
C323 H333 0.929 . S
C324 C320 1.383 . S
C324 C321 1.389 . S
C324 H334 0.931 . S
C325 C322 1.380 . S
C325 C323 1.392 . S
C325 H335 0.929 . S
C326 O306 1.266 . S
C326 O307 1.248 . S
C327 Tb263 2.802 . S
C327 O302 1.264 . S
C327 O305 1.256 . S
C327 C320 1.496 . S
H328 C311 0.929 . S
H329 C312 0.929 . S
H330 C313 0.929 . S
H331 C314 0.931 . S
H332 C322 0.929 . S
H333 C323 0.929 . S
H334 C324 0.931 . S
H335 C325 0.929 . S
Tb336 N365 2.617 . S
Tb336 N371 2.572 . S
Tb336 O380 2.465 1_556 S
Tb336 O381 2.387 . S
Tb336 O383 2.428 1_556 S
Tb336 O384 2.308 . S
Tb336 O388 2.349 1_556 S
Tb336 O391 2.393 1_556 S
Tb336 C400 2.802 1_556 S
C337 N338 1.379 . S
C337 C340 1.416 . S
C337 C344 1.424 . S
N338 C337 1.379 . S
N338 C341 1.334 . S
N338 Tb347 2.617 . S
C339 C341 1.390 . S
C339 C342 1.339 . S
C339 H359 0.930 . S
C340 C337 1.416 . S
C340 C342 1.416 . S
C340 C346 1.448 . S
C341 N338 1.334 . S
C341 C339 1.390 . S
C341 H352 0.930 . S
C342 C339 1.339 . S
C342 C340 1.416 . S
C342 H363 0.930 . S
C343 C344 1.413 . S
C343 C345 1.427 . S
C343 C349 1.416 . S
C344 C337 1.424 . S
C344 C343 1.413 . S
C344 N348 1.361 . S
C345 C343 1.427 . S
C345 C346 1.328 . S
C345 H360 0.929 . S
C346 C340 1.448 . S
C346 C345 1.328 . S
C346 H361 0.930 . S
Tb347 N338 2.617 . S
Tb347 N348 2.572 . S
Tb347 O382 2.349 1_554 S
Tb347 O385 2.393 1_554 S
Tb347 O386 2.465 1_554 S
Tb347 O387 2.387 . S
Tb347 O389 2.428 1_554 S
Tb347 O390 2.308 . S
Tb347 C411 2.802 1_554 S
N348 C344 1.361 . S
N348 Tb347 2.572 . S
N348 C350 1.340 . S
C349 C343 1.416 . S
C349 C351 1.332 . S
C349 H357 0.931 . S
C350 N348 1.340 . S
C350 C351 1.407 . S
C350 H356 0.930 . S
C351 C349 1.332 . S
C351 C350 1.407 . S
C351 H353 0.929 . S
H352 C341 0.930 . S
H353 C351 0.929 . S
H354 C369 0.930 . S
H355 C376 0.929 . S
H356 C350 0.930 . S
H357 C349 0.931 . S
H358 C372 0.930 . S
H359 C339 0.930 . S
H360 C345 0.929 . S
H361 C346 0.930 . S
H362 C367 0.930 . S
H363 C342 0.930 . S
H364 C375 0.931 . S
N365 Tb336 2.617 . S
N365 C366 1.379 . S
N365 C369 1.334 . S
C366 N365 1.379 . S
C366 C368 1.416 . S
C366 C374 1.424 . S
C367 H362 0.930 . S
C367 C369 1.390 . S
C367 C370 1.339 . S
C368 C366 1.416 . S
C368 C370 1.416 . S
C368 C401 1.448 . S
C369 H354 0.930 . S
C369 N365 1.334 . S
C369 C367 1.390 . S
C370 C367 1.339 . S
C370 C368 1.416 . S
C370 H377 0.930 . S
N371 Tb336 2.572 . S
N371 C372 1.340 . S
N371 C374 1.361 . S
C372 H358 0.930 . S
C372 N371 1.340 . S
C372 C376 1.407 . S
C373 C374 1.413 . S
C373 C375 1.416 . S
C373 C402 1.427 . S
C374 C366 1.424 . S
C374 N371 1.361 . S
C374 C373 1.413 . S
C375 H364 0.931 . S
C375 C373 1.416 . S
C375 C376 1.332 . S
C376 H355 0.929 . S
C376 C372 1.407 . S
C376 C375 1.332 . S
H377 C370 0.930 . S
H378 C401 0.930 . S
H379 C402 0.929 . S
O380 Tb336 2.465 1_554 S
O380 C400 1.264 . S
O381 Tb336 2.387 . S
O381 C392 1.264 . S
O382 Tb347 2.349 1_556 S
O382 C392 1.243 . S
O383 Tb336 2.428 1_554 S
O383 C400 1.256 . S
O384 Tb336 2.308 . S
O384 C399 1.266 . S
O385 Tb347 2.393 1_556 S
O385 C399 1.248 . S
O386 Tb347 2.465 1_556 S
O386 C411 1.264 . S
O387 Tb347 2.387 . S
O387 C403 1.264 . S
O388 Tb336 2.349 1_554 S
O388 C403 1.243 . S
O389 Tb347 2.428 1_556 S
O389 C411 1.256 . S
O390 Tb347 2.308 . S
O390 C410 1.266 . S
O391 Tb336 2.393 1_554 S
O391 C410 1.248 . S
C392 O381 1.264 . S
C392 O382 1.243 . S
C393 C396 1.399 . S
C393 C398 1.383 . S
C393 C400 1.496 . S
C394 C395 1.399 . S
C394 C398 1.389 . S
C395 C394 1.399 . S
C395 C397 1.380 . S
C395 H412 0.929 . S
C396 C393 1.399 . S
C396 C397 1.392 . S
C396 H413 0.929 . S
C397 C395 1.380 . S
C397 C396 1.392 . S
C397 H414 0.929 . S
C398 C393 1.383 . S
C398 C394 1.389 . S
C398 H415 0.931 . S
C399 O384 1.266 . S
C399 O385 1.248 . S
C400 Tb336 2.802 1_554 S
C400 O380 1.264 . S
C400 O383 1.256 . S
C400 C393 1.496 . S
C401 C368 1.448 . S
C401 H378 0.930 . S
C401 C402 1.328 . S
C402 C373 1.427 . S
C402 H379 0.929 . S
C402 C401 1.328 . S
C403 O387 1.264 . S
C403 O388 1.243 . S
C404 C407 1.399 . S
C404 C408 1.383 . S
C404 C411 1.496 . S
C405 C406 1.399 . S
C405 C408 1.389 . S
C406 C405 1.399 . S
C406 C409 1.380 . S
C406 H416 0.929 . S
C407 C404 1.399 . S
C407 C409 1.392 . S
C407 H417 0.929 . S
C408 C404 1.383 . S
C408 C405 1.389 . S
C408 H418 0.931 . S
C409 C406 1.380 . S
C409 C407 1.392 . S
C409 H419 0.929 . S
C410 O390 1.266 . S
C410 O391 1.248 . S
C411 Tb347 2.802 1_556 S
C411 O386 1.264 . S
C411 O389 1.256 . S
C411 C404 1.496 . S
H412 C395 0.929 . S
H413 C396 0.929 . S
H414 C397 0.929 . S
H415 C398 0.931 . S
H416 C406 0.929 . S
H417 C407 0.929 . S
H418 C408 0.931 . S
H419 C409 0.929 . S
Tb420 N449 2.617 . S
Tb420 N455 2.572 . S
Tb420 O464 2.465 1_554 S
Tb420 O465 2.387 . S
Tb420 O467 2.428 1_554 S
Tb420 O468 2.308 . S
Tb420 O472 2.349 1_554 S
Tb420 O475 2.393 1_554 S
Tb420 C484 2.802 1_554 S
C421 N422 1.379 . S
C421 C424 1.416 . S
C421 C428 1.424 . S
N422 C421 1.379 . S
N422 C425 1.334 . S
N422 Tb431 2.617 . S
C423 C425 1.390 . S
C423 C426 1.339 . S
C423 H443 0.930 . S
C424 C421 1.416 . S
C424 C426 1.416 . S
C424 C430 1.448 . S
C425 N422 1.334 . S
C425 C423 1.390 . S
C425 H436 0.930 . S
C426 C423 1.339 . S
C426 C424 1.416 . S
C426 H447 0.930 . S
C427 C428 1.413 . S
C427 C429 1.427 . S
C427 C433 1.416 . S
C428 C421 1.424 . S
C428 C427 1.413 . S
C428 N432 1.361 . S
C429 C427 1.427 . S
C429 C430 1.328 . S
C429 H444 0.929 . S
C430 C424 1.448 . S
C430 C429 1.328 . S
C430 H445 0.930 . S
Tb431 N422 2.617 . S
Tb431 N432 2.572 . S
Tb431 O466 2.349 1_556 S
Tb431 O469 2.393 1_556 S
Tb431 O470 2.465 1_556 S
Tb431 O471 2.387 . S
Tb431 O473 2.428 1_556 S
Tb431 O474 2.308 . S
Tb431 C495 2.802 1_556 S
N432 C428 1.361 . S
N432 Tb431 2.572 . S
N432 C434 1.340 . S
C433 C427 1.416 . S
C433 C435 1.332 . S
C433 H441 0.931 . S
C434 N432 1.340 . S
C434 C435 1.407 . S
C434 H440 0.930 . S
C435 C433 1.332 . S
C435 C434 1.407 . S
C435 H437 0.929 . S
H436 C425 0.930 . S
H437 C435 0.929 . S
H438 C453 0.930 . S
H439 C460 0.929 . S
H440 C434 0.930 . S
H441 C433 0.931 . S
H442 C456 0.930 . S
H443 C423 0.930 . S
H444 C429 0.929 . S
H445 C430 0.930 . S
H446 C451 0.930 . S
H447 C426 0.930 . S
H448 C459 0.931 . S
N449 Tb420 2.617 . S
N449 C450 1.379 . S
N449 C453 1.334 . S
C450 N449 1.379 . S
C450 C452 1.416 . S
C450 C458 1.424 . S
C451 H446 0.930 . S
C451 C453 1.390 . S
C451 C454 1.339 . S
C452 C450 1.416 . S
C452 C454 1.416 . S
C452 C485 1.448 . S
C453 H438 0.930 . S
C453 N449 1.334 . S
C453 C451 1.390 . S
C454 C451 1.339 . S
C454 C452 1.416 . S
C454 H461 0.930 . S
N455 Tb420 2.572 . S
N455 C456 1.340 . S
N455 C458 1.361 . S
C456 H442 0.930 . S
C456 N455 1.340 . S
C456 C460 1.407 . S
C457 C458 1.413 . S
C457 C459 1.416 . S
C457 C486 1.427 . S
C458 C450 1.424 . S
C458 N455 1.361 . S
C458 C457 1.413 . S
C459 H448 0.931 . S
C459 C457 1.416 . S
C459 C460 1.332 . S
C460 H439 0.929 . S
C460 C456 1.407 . S
C460 C459 1.332 . S
H461 C454 0.930 . S
H462 C485 0.930 . S
H463 C486 0.929 . S
O464 Tb420 2.465 1_556 S
O464 C484 1.264 . S
O465 Tb420 2.387 . S
O465 C476 1.264 . S
O466 Tb431 2.349 1_554 S
O466 C476 1.243 . S
O467 Tb420 2.428 1_556 S
O467 C484 1.256 . S
O468 Tb420 2.308 . S
O468 C483 1.266 . S
O469 Tb431 2.393 1_554 S
O469 C483 1.248 . S
O470 Tb431 2.465 1_554 S
O470 C495 1.264 . S
O471 Tb431 2.387 . S
O471 C487 1.264 . S
O472 Tb420 2.349 1_556 S
O472 C487 1.243 . S
O473 Tb431 2.428 1_554 S
O473 C495 1.256 . S
O474 Tb431 2.308 . S
O474 C494 1.266 . S
O475 Tb420 2.393 1_556 S
O475 C494 1.248 . S
C476 O465 1.264 . S
C476 O466 1.243 . S
C477 C480 1.399 . S
C477 C482 1.383 . S
C477 C484 1.496 . S
C478 C479 1.399 . S
C478 C482 1.389 . S
C479 C478 1.399 . S
C479 C481 1.380 . S
C479 H496 0.929 . S
C480 C477 1.399 . S
C480 C481 1.392 . S
C480 H497 0.929 . S
C481 C479 1.380 . S
C481 C480 1.392 . S
C481 H498 0.929 . S
C482 C477 1.383 . S
C482 C478 1.389 . S
C482 H499 0.931 . S
C483 O468 1.266 . S
C483 O469 1.248 . S
C484 Tb420 2.802 1_556 S
C484 O464 1.264 . S
C484 O467 1.256 . S
C484 C477 1.496 . S
C485 C452 1.448 . S
C485 H462 0.930 . S
C485 C486 1.328 . S
C486 C457 1.427 . S
C486 H463 0.929 . S
C486 C485 1.328 . S
C487 O471 1.264 . S
C487 O472 1.243 . S
C488 C491 1.399 . S
C488 C492 1.383 . S
C488 C495 1.496 . S
C489 C490 1.399 . S
C489 C492 1.389 . S
C490 C489 1.399 . S
C490 C493 1.380 . S
C490 H500 0.929 . S
C491 C488 1.399 . S
C491 C493 1.392 . S
C491 H501 0.929 . S
C492 C488 1.383 . S
C492 C489 1.389 . S
C492 H502 0.931 . S
C493 C490 1.380 . S
C493 C491 1.392 . S
C493 H503 0.929 . S
C494 O474 1.266 . S
C494 O475 1.248 . S
C495 Tb431 2.802 1_554 S
C495 O470 1.264 . S
C495 O473 1.256 . S
C495 C488 1.496 . S
H496 C479 0.929 . S
H497 C480 0.929 . S
H498 C481 0.929 . S
H499 C482 0.931 . S
H500 C490 0.929 . S
H501 C491 0.929 . S
H502 C492 0.931 . S
H503 C493 0.929 . S
Tb504 N533 2.617 . S
Tb504 N539 2.572 . S
Tb504 O548 2.465 1_554 S
Tb504 O549 2.387 . S
Tb504 O551 2.428 1_554 S
Tb504 O552 2.308 . S
Tb504 O556 2.349 1_554 S
Tb504 O559 2.393 1_554 S
Tb504 C568 2.802 1_554 S
C505 N506 1.379 . S
C505 C508 1.416 . S
C505 C512 1.424 . S
N506 C505 1.379 . S
N506 C509 1.334 . S
N506 Tb515 2.617 . S
C507 C509 1.390 . S
C507 C510 1.339 . S
C507 H527 0.930 . S
C508 C505 1.416 . S
C508 C510 1.416 . S
C508 C514 1.448 . S
C509 N506 1.334 . S
C509 C507 1.390 . S
C509 H520 0.930 . S
C510 C507 1.339 . S
C510 C508 1.416 . S
C510 H531 0.930 . S
C511 C512 1.413 . S
C511 C513 1.427 . S
C511 C517 1.416 . S
C512 C505 1.424 . S
C512 C511 1.413 . S
C512 N516 1.361 . S
C513 C511 1.427 . S
C513 C514 1.328 . S
C513 H528 0.929 . S
C514 C508 1.448 . S
C514 C513 1.328 . S
C514 H529 0.930 . S
Tb515 N506 2.617 . S
Tb515 N516 2.572 . S
Tb515 O550 2.349 1_556 S
Tb515 O553 2.393 1_556 S
Tb515 O554 2.465 1_556 S
Tb515 O555 2.387 . S
Tb515 O557 2.428 1_556 S
Tb515 O558 2.308 . S
Tb515 C579 2.802 1_556 S
N516 C512 1.361 . S
N516 Tb515 2.572 . S
N516 C518 1.340 . S
C517 C511 1.416 . S
C517 C519 1.332 . S
C517 H525 0.931 . S
C518 N516 1.340 . S
C518 C519 1.407 . S
C518 H524 0.930 . S
C519 C517 1.332 . S
C519 C518 1.407 . S
C519 H521 0.929 . S
H520 C509 0.930 . S
H521 C519 0.929 . S
H522 C537 0.930 . S
H523 C544 0.929 . S
H524 C518 0.930 . S
H525 C517 0.931 . S
H526 C540 0.930 . S
H527 C507 0.930 . S
H528 C513 0.929 . S
H529 C514 0.930 . S
H530 C535 0.930 . S
H531 C510 0.930 . S
H532 C543 0.931 . S
N533 Tb504 2.617 . S
N533 C534 1.379 . S
N533 C537 1.334 . S
C534 N533 1.379 . S
C534 C536 1.416 . S
C534 C542 1.424 . S
C535 H530 0.930 . S
C535 C537 1.390 . S
C535 C538 1.339 . S
C536 C534 1.416 . S
C536 C538 1.416 . S
C536 C569 1.448 . S
C537 H522 0.930 . S
C537 N533 1.334 . S
C537 C535 1.390 . S
C538 C535 1.339 . S
C538 C536 1.416 . S
C538 H545 0.930 . S
N539 Tb504 2.572 . S
N539 C540 1.340 . S
N539 C542 1.361 . S
C540 H526 0.930 . S
C540 N539 1.340 . S
C540 C544 1.407 . S
C541 C542 1.413 . S
C541 C543 1.416 . S
C541 C570 1.427 . S
C542 C534 1.424 . S
C542 N539 1.361 . S
C542 C541 1.413 . S
C543 H532 0.931 . S
C543 C541 1.416 . S
C543 C544 1.332 . S
C544 H523 0.929 . S
C544 C540 1.407 . S
C544 C543 1.332 . S
H545 C538 0.930 . S
H546 C569 0.930 . S
H547 C570 0.929 . S
O548 Tb504 2.465 1_556 S
O548 C568 1.264 . S
O549 Tb504 2.387 . S
O549 C560 1.264 . S
O550 Tb515 2.349 1_554 S
O550 C560 1.243 . S
O551 Tb504 2.428 1_556 S
O551 C568 1.256 . S
O552 Tb504 2.308 . S
O552 C567 1.266 . S
O553 Tb515 2.393 1_554 S
O553 C567 1.248 . S
O554 Tb515 2.465 1_554 S
O554 C579 1.264 . S
O555 Tb515 2.387 . S
O555 C571 1.264 . S
O556 Tb504 2.349 1_556 S
O556 C571 1.243 . S
O557 Tb515 2.428 1_554 S
O557 C579 1.256 . S
O558 Tb515 2.308 . S
O558 C578 1.266 . S
O559 Tb504 2.393 1_556 S
O559 C578 1.248 . S
C560 O549 1.264 . S
C560 O550 1.243 . S
C561 C564 1.399 . S
C561 C566 1.383 . S
C561 C568 1.496 . S
C562 C563 1.399 . S
C562 C566 1.389 . S
C563 C562 1.399 . S
C563 C565 1.380 . S
C563 H580 0.929 . S
C564 C561 1.399 . S
C564 C565 1.392 . S
C564 H581 0.929 . S
C565 C563 1.380 . S
C565 C564 1.392 . S
C565 H582 0.929 . S
C566 C561 1.383 . S
C566 C562 1.389 . S
C566 H583 0.931 . S
C567 O552 1.266 . S
C567 O553 1.248 . S
C568 Tb504 2.802 1_556 S
C568 O548 1.264 . S
C568 O551 1.256 . S
C568 C561 1.496 . S
C569 C536 1.448 . S
C569 H546 0.930 . S
C569 C570 1.328 . S
C570 C541 1.427 . S
C570 H547 0.929 . S
C570 C569 1.328 . S
C571 O555 1.264 . S
C571 O556 1.243 . S
C572 C575 1.399 . S
C572 C576 1.383 . S
C572 C579 1.496 . S
C573 C574 1.399 . S
C573 C576 1.389 . S
C574 C573 1.399 . S
C574 C577 1.380 . S
C574 H584 0.929 . S
C575 C572 1.399 . S
C575 C577 1.392 . S
C575 H585 0.929 . S
C576 C572 1.383 . S
C576 C573 1.389 . S
C576 H586 0.931 . S
C577 C574 1.380 . S
C577 C575 1.392 . S
C577 H587 0.929 . S
C578 O558 1.266 . S
C578 O559 1.248 . S
C579 Tb515 2.802 1_554 S
C579 O554 1.264 . S
C579 O557 1.256 . S
C579 C572 1.496 . S
H580 C563 0.929 . S
H581 C564 0.929 . S
H582 C565 0.929 . S
H583 C566 0.931 . S
H584 C574 0.929 . S
H585 C575 0.929 . S
H586 C576 0.931 . S
H587 C577 0.929 . S
Tb588 N617 2.617 . S
Tb588 N623 2.572 . S
Tb588 O632 2.465 1_556 S
Tb588 O633 2.387 . S
Tb588 O635 2.428 1_556 S
Tb588 O636 2.308 . S
Tb588 O640 2.349 1_556 S
Tb588 O643 2.393 1_556 S
Tb588 C652 2.802 1_556 S
C589 N590 1.379 . S
C589 C592 1.416 . S
C589 C596 1.424 . S
N590 C589 1.379 . S
N590 C593 1.334 . S
N590 Tb599 2.617 . S
C591 C593 1.390 . S
C591 C594 1.339 . S
C591 H611 0.930 . S
C592 C589 1.416 . S
C592 C594 1.416 . S
C592 C598 1.448 . S
C593 N590 1.334 . S
C593 C591 1.390 . S
C593 H604 0.930 . S
C594 C591 1.339 . S
C594 C592 1.416 . S
C594 H615 0.930 . S
C595 C596 1.413 . S
C595 C597 1.427 . S
C595 C601 1.416 . S
C596 C589 1.424 . S
C596 C595 1.413 . S
C596 N600 1.361 . S
C597 C595 1.427 . S
C597 C598 1.328 . S
C597 H612 0.929 . S
C598 C592 1.448 . S
C598 C597 1.328 . S
C598 H613 0.930 . S
Tb599 N590 2.617 . S
Tb599 N600 2.572 . S
Tb599 O634 2.349 1_554 S
Tb599 O637 2.393 1_554 S
Tb599 O638 2.465 1_554 S
Tb599 O639 2.387 . S
Tb599 O641 2.428 1_554 S
Tb599 O642 2.308 . S
Tb599 C663 2.802 1_554 S
N600 C596 1.361 . S
N600 Tb599 2.572 . S
N600 C602 1.340 . S
C601 C595 1.416 . S
C601 C603 1.332 . S
C601 H609 0.931 . S
C602 N600 1.340 . S
C602 C603 1.407 . S
C602 H608 0.930 . S
C603 C601 1.332 . S
C603 C602 1.407 . S
C603 H605 0.929 . S
H604 C593 0.930 . S
H605 C603 0.929 . S
H606 C621 0.930 . S
H607 C628 0.929 . S
H608 C602 0.930 . S
H609 C601 0.931 . S
H610 C624 0.930 . S
H611 C591 0.930 . S
H612 C597 0.929 . S
H613 C598 0.930 . S
H614 C619 0.930 . S
H615 C594 0.930 . S
H616 C627 0.931 . S
N617 Tb588 2.617 . S
N617 C618 1.379 . S
N617 C621 1.334 . S
C618 N617 1.379 . S
C618 C620 1.416 . S
C618 C626 1.424 . S
C619 H614 0.930 . S
C619 C621 1.390 . S
C619 C622 1.339 . S
C620 C618 1.416 . S
C620 C622 1.416 . S
C620 C653 1.448 . S
C621 H606 0.930 . S
C621 N617 1.334 . S
C621 C619 1.390 . S
C622 C619 1.339 . S
C622 C620 1.416 . S
C622 H629 0.930 . S
N623 Tb588 2.572 . S
N623 C624 1.340 . S
N623 C626 1.361 . S
C624 H610 0.930 . S
C624 N623 1.340 . S
C624 C628 1.407 . S
C625 C626 1.413 . S
C625 C627 1.416 . S
C625 C654 1.427 . S
C626 C618 1.424 . S
C626 N623 1.361 . S
C626 C625 1.413 . S
C627 H616 0.931 . S
C627 C625 1.416 . S
C627 C628 1.332 . S
C628 H607 0.929 . S
C628 C624 1.407 . S
C628 C627 1.332 . S
H629 C622 0.930 . S
H630 C653 0.930 . S
H631 C654 0.929 . S
O632 Tb588 2.465 1_554 S
O632 C652 1.264 . S
O633 Tb588 2.387 . S
O633 C644 1.264 . S
O634 Tb599 2.349 1_556 S
O634 C644 1.243 . S
O635 Tb588 2.428 1_554 S
O635 C652 1.256 . S
O636 Tb588 2.308 . S
O636 C651 1.266 . S
O637 Tb599 2.393 1_556 S
O637 C651 1.248 . S
O638 Tb599 2.465 1_556 S
O638 C663 1.264 . S
O639 Tb599 2.387 . S
O639 C655 1.264 . S
O640 Tb588 2.349 1_554 S
O640 C655 1.243 . S
O641 Tb599 2.428 1_556 S
O641 C663 1.256 . S
O642 Tb599 2.308 . S
O642 C662 1.266 . S
O643 Tb588 2.393 1_554 S
O643 C662 1.248 . S
C644 O633 1.264 . S
C644 O634 1.243 . S
C645 C648 1.399 . S
C645 C650 1.383 . S
C645 C652 1.496 . S
C646 C647 1.399 . S
C646 C650 1.389 . S
C647 C646 1.399 . S
C647 C649 1.380 . S
C647 H664 0.929 . S
C648 C645 1.399 . S
C648 C649 1.392 . S
C648 H665 0.929 . S
C649 C647 1.380 . S
C649 C648 1.392 . S
C649 H666 0.929 . S
C650 C645 1.383 . S
C650 C646 1.389 . S
C650 H667 0.931 . S
C651 O636 1.266 . S
C651 O637 1.248 . S
C652 Tb588 2.802 1_554 S
C652 O632 1.264 . S
C652 O635 1.256 . S
C652 C645 1.496 . S
C653 C620 1.448 . S
C653 H630 0.930 . S
C653 C654 1.328 . S
C654 C625 1.427 . S
C654 H631 0.929 . S
C654 C653 1.328 . S
C655 O639 1.264 . S
C655 O640 1.243 . S
C656 C659 1.399 . S
C656 C660 1.383 . S
C656 C663 1.496 . S
C657 C658 1.399 . S
C657 C660 1.389 . S
C658 C657 1.399 . S
C658 C661 1.380 . S
C658 H668 0.929 . S
C659 C656 1.399 . S
C659 C661 1.392 . S
C659 H669 0.929 . S
C660 C656 1.383 . S
C660 C657 1.389 . S
C660 H670 0.931 . S
C661 C658 1.380 . S
C661 C659 1.392 . S
C661 H671 0.929 . S
C662 O642 1.266 . S
C662 O643 1.248 . S
C663 Tb599 2.802 1_556 S
C663 O638 1.264 . S
C663 O641 1.256 . S
C663 C656 1.496 . S
H664 C647 0.929 . S
H665 C648 0.929 . S
H666 C649 0.929 . S
H667 C650 0.931 . S
H668 C658 0.929 . S
H669 C659 0.929 . S
H670 C660 0.931 . S
H671 C661 0.929 . S
H672 C680 0.950 . S
H673 C685 0.950 . S
H674 C682 0.950 . S
H675 C684 0.950 . S
H676 C686 0.950 . S
H677 C688 0.950 . S
H678 C690 0.950 . S
H679 C691 0.950 . S
C680 H672 0.950 . S
C680 C681 1.386 . S
C680 C682 1.391 . S
C681 C680 1.386 . S
C681 C685 1.393 . S
C682 H674 0.950 . S
C682 C680 1.391 . S
C682 C683 1.400 . S
C683 C682 1.400 . S
C683 C684 1.398 . S
C683 C689 1.491 . S
C684 H675 0.950 . S
C684 C683 1.398 . S
C684 C685 1.391 . S
C685 H673 0.950 . S
C685 C681 1.393 . S
C685 C684 1.391 . S
C686 H676 0.950 . S
C686 C687 1.386 . S
C686 C688 1.391 . S
C687 C686 1.386 . S
C687 C691 1.393 . S
C688 H677 0.950 . S
C688 C686 1.391 . S
C688 C689 1.400 . S
C689 C683 1.491 . S
C689 C688 1.400 . S
C689 C690 1.398 . S
C690 H678 0.950 . S
C690 C689 1.398 . S
C690 C691 1.391 . S
C691 H679 0.950 . S
C691 C687 1.393 . S
C691 C690 1.391 . S
H692 C700 0.950 . S
H693 C705 0.950 . S
H694 C702 0.950 . S
H695 C704 0.950 . S
H696 C706 0.950 . S
H697 C708 0.950 . S
H698 C710 0.950 . S
H699 C711 0.950 . S
C700 H692 0.950 . S
C700 C701 1.386 . S
C700 C702 1.391 . S
C701 C700 1.386 . S
C701 C705 1.393 . S
C702 H694 0.950 . S
C702 C700 1.391 . S
C702 C703 1.400 . S
C703 C702 1.400 . S
C703 C704 1.398 . S
C703 C709 1.491 . S
C704 H695 0.950 . S
C704 C703 1.398 . S
C704 C705 1.391 . S
C705 H693 0.950 . S
C705 C701 1.393 . S
C705 C704 1.391 . S
C706 H696 0.950 . S
C706 C707 1.386 . S
C706 C708 1.391 . S
C707 C706 1.386 . S
C707 C711 1.393 . S
C708 H697 0.950 . S
C708 C706 1.391 . S
C708 C709 1.400 . S
C709 C703 1.491 . S
C709 C708 1.400 . S
C709 C710 1.398 . S
C710 H698 0.950 . S
C710 C709 1.398 . S
C710 C711 1.391 . S
C711 H699 0.950 . S
C711 C707 1.393 . S
C711 C710 1.391 . S
H712 C720 0.950 . S
H713 C725 0.950 . S
H714 C722 0.950 . S
H715 C724 0.950 . S
H716 C726 0.950 . S
H717 C728 0.950 . S
H718 C730 0.950 . S
H719 C731 0.950 . S
C720 H712 0.950 . S
C720 C721 1.386 . S
C720 C722 1.391 . S
C721 C720 1.386 . S
C721 C725 1.393 . S
C722 H714 0.950 . S
C722 C720 1.391 . S
C722 C723 1.400 . S
C723 C722 1.400 . S
C723 C724 1.398 . S
C723 C729 1.491 . S
C724 H715 0.950 . S
C724 C723 1.398 . S
C724 C725 1.391 . S
C725 H713 0.950 . S
C725 C721 1.393 . S
C725 C724 1.391 . S
C726 H716 0.950 . S
C726 C727 1.386 . S
C726 C728 1.391 . S
C727 C726 1.386 . S
C727 C731 1.393 . S
C728 H717 0.950 . S
C728 C726 1.391 . S
C728 C729 1.400 . S
C729 C723 1.491 . S
C729 C728 1.400 . S
C729 C730 1.398 . S
C730 H718 0.950 . S
C730 C729 1.398 . S
C730 C731 1.391 . S
C731 H719 0.950 . S
C731 C727 1.393 . S
C731 C730 1.391 . S
H732 C740 0.950 . S
H733 C745 0.950 . S
H734 C742 0.950 . S
H735 C744 0.950 . S
H736 C746 0.950 . S
H737 C748 0.950 . S
H738 C750 0.950 . S
H739 C751 0.950 . S
C740 H732 0.950 . S
C740 C741 1.386 . S
C740 C742 1.391 . S
C741 C740 1.386 . S
C741 C745 1.393 . S
C742 H734 0.950 . S
C742 C740 1.391 . S
C742 C743 1.400 . S
C743 C742 1.400 . S
C743 C744 1.398 . S
C743 C749 1.491 . S
C744 H735 0.950 . S
C744 C743 1.398 . S
C744 C745 1.391 . S
C745 H733 0.950 . S
C745 C741 1.393 . S
C745 C744 1.391 . S
C746 H736 0.950 . S
C746 C747 1.386 . S
C746 C748 1.391 . S
C747 C746 1.386 . S
C747 C751 1.393 . S
C748 H737 0.950 . S
C748 C746 1.391 . S
C748 C749 1.400 . S
C749 C743 1.491 . S
C749 C748 1.400 . S
C749 C750 1.398 . S
C750 H738 0.950 . S
C750 C749 1.398 . S
C750 C751 1.391 . S
C751 H739 0.950 . S
C751 C747 1.393 . S
C751 C750 1.391 . S
H752 C760 0.950 . S
H753 C765 0.950 . S
H754 C762 0.950 . S
H755 C764 0.950 . S
H756 C766 0.950 . S
H757 C768 0.950 . S
H758 C770 0.950 . S
H759 C771 0.950 . S
C760 H752 0.950 . S
C760 C761 1.386 . S
C760 C762 1.391 . S
C761 C760 1.386 . S
C761 C765 1.393 . S
C762 H754 0.950 . S
C762 C760 1.391 . S
C762 C763 1.400 . S
C763 C762 1.400 . S
C763 C764 1.398 . S
C763 C769 1.491 1_565 S
C764 H755 0.950 . S
C764 C763 1.398 . S
C764 C765 1.391 . S
C765 H753 0.950 . S
C765 C761 1.393 . S
C765 C764 1.391 . S
C766 H756 0.950 . S
C766 C767 1.386 . S
C766 C768 1.391 . S
C767 C766 1.386 . S
C767 C771 1.393 . S
C768 H757 0.950 . S
C768 C766 1.391 . S
C768 C769 1.400 . S
C769 C763 1.491 1_545 S
C769 C768 1.400 . S
C769 C770 1.398 . S
C770 H758 0.950 . S
C770 C769 1.398 . S
C770 C771 1.391 . S
C771 H759 0.950 . S
C771 C767 1.393 . S
C771 C770 1.391 . S
H772 C780 0.950 . S
H773 C785 0.950 . S
H774 C782 0.950 . S
H775 C784 0.950 . S
H776 C786 0.950 . S
H777 C788 0.950 . S
H778 C790 0.950 . S
H779 C791 0.950 . S
C780 H772 0.950 . S
C780 C781 1.386 . S
C780 C782 1.391 . S
C781 C780 1.386 . S
C781 C785 1.393 . S
C782 H774 0.950 . S
C782 C780 1.391 . S
C782 C783 1.400 . S
C783 C782 1.400 . S
C783 C784 1.398 . S
C783 C789 1.491 . S
C784 H775 0.950 . S
C784 C783 1.398 . S
C784 C785 1.391 . S
C785 H773 0.950 . S
C785 C781 1.393 . S
C785 C784 1.391 . S
C786 H776 0.950 . S
C786 C787 1.386 . S
C786 C788 1.391 . S
C787 C786 1.386 . S
C787 C791 1.393 . S
C788 H777 0.950 . S
C788 C786 1.391 . S
C788 C789 1.400 . S
C789 C783 1.491 . S
C789 C788 1.400 . S
C789 C790 1.398 . S
C790 H778 0.950 . S
C790 C789 1.398 . S
C790 C791 1.391 . S
C791 H779 0.950 . S
C791 C787 1.393 . S
C791 C790 1.391 . S
H792 C800 0.950 . S
H793 C805 0.950 . S
H794 C802 0.950 . S
H795 C804 0.950 . S
H796 C806 0.950 . S
H797 C808 0.950 . S
H798 C810 0.950 . S
H799 C811 0.950 . S
C800 H792 0.950 . S
C800 C801 1.386 . S
C800 C802 1.391 . S
C801 C800 1.386 . S
C801 C805 1.393 . S
C802 H794 0.950 . S
C802 C800 1.391 . S
C802 C803 1.400 . S
C803 C802 1.400 . S
C803 C804 1.398 . S
C803 C809 1.491 1_565 S
C804 H795 0.950 . S
C804 C803 1.398 . S
C804 C805 1.391 . S
C805 H793 0.950 . S
C805 C801 1.393 . S
C805 C804 1.391 . S
C806 H796 0.950 . S
C806 C807 1.386 . S
C806 C808 1.391 . S
C807 C806 1.386 . S
C807 C811 1.393 . S
C808 H797 0.950 . S
C808 C806 1.391 . S
C808 C809 1.400 . S
C809 C803 1.491 1_545 S
C809 C808 1.400 . S
C809 C810 1.398 . S
C810 H798 0.950 . S
C810 C809 1.398 . S
C810 C811 1.391 . S
C811 H799 0.950 . S
C811 C807 1.393 . S
C811 C810 1.391 . S
H812 C820 0.950 . S
H813 C825 0.950 . S
H814 C822 0.950 . S
H815 C824 0.950 . S
H816 C826 0.950 . S
H817 C828 0.950 . S
H818 C830 0.950 . S
H819 C831 0.950 . S
C820 H812 0.950 . S
C820 C821 1.386 . S
C820 C822 1.391 . S
C821 C820 1.386 . S
C821 C825 1.393 . S
C822 H814 0.950 . S
C822 C820 1.391 . S
C822 C823 1.400 . S
C823 C822 1.400 . S
C823 C824 1.398 . S
C823 C829 1.491 . S
C824 H815 0.950 . S
C824 C823 1.398 . S
C824 C825 1.391 . S
C825 H813 0.950 . S
C825 C821 1.393 . S
C825 C824 1.391 . S
C826 H816 0.950 . S
C826 C827 1.386 . S
C826 C828 1.391 . S
C827 C826 1.386 . S
C827 C831 1.393 . S
C828 H817 0.950 . S
C828 C826 1.391 . S
C828 C829 1.400 . S
C829 C823 1.491 . S
C829 C828 1.400 . S
C829 C830 1.398 . S
C830 H818 0.950 . S
C830 C829 1.398 . S
C830 C831 1.391 . S
C831 H819 0.950 . S
C831 C827 1.393 . S
C831 C830 1.391 . S
H832 C840 0.950 . S
H833 C845 0.950 . S
H834 C842 0.950 . S
H835 C844 0.950 . S
H836 C846 0.950 . S
H837 C848 0.950 . S
H838 C850 0.950 . S
H839 C851 0.950 . S
C840 H832 0.950 . S
C840 C841 1.386 . S
C840 C842 1.391 . S
C841 C840 1.386 . S
C841 C845 1.393 1_556 S
C842 H834 0.950 . S
C842 C840 1.391 . S
C842 C843 1.400 . S
C843 C842 1.400 . S
C843 C844 1.398 1_556 S
C843 C849 1.491 1_556 S
C844 H835 0.950 . S
C844 C843 1.398 1_554 S
C844 C845 1.391 . S
C845 H833 0.950 . S
C845 C841 1.393 1_554 S
C845 C844 1.391 . S
C846 H836 0.950 . S
C846 C847 1.386 . S
C846 C848 1.391 . S
C847 C846 1.386 . S
C847 C851 1.393 1_554 S
C848 H837 0.950 . S
C848 C846 1.391 . S
C848 C849 1.400 . S
C849 C843 1.491 1_554 S
C849 C848 1.400 . S
C849 C850 1.398 1_554 S
C850 H838 0.950 . S
C850 C849 1.398 1_556 S
C850 C851 1.391 . S
C851 H839 0.950 . S
C851 C847 1.393 1_556 S
C851 C850 1.391 . S
H852 C860 0.950 . S
H853 C865 0.950 . S
H854 C862 0.950 . S
H855 C864 0.950 . S
H856 C866 0.950 . S
H857 C868 0.950 . S
H858 C870 0.950 . S
H859 C871 0.950 . S
C860 H852 0.950 . S
C860 C861 1.386 1_556 S
C860 C862 1.391 . S
C861 C860 1.386 1_554 S
C861 C865 1.393 . S
C862 H854 0.950 . S
C862 C860 1.391 . S
C862 C863 1.400 1_556 S
C863 C862 1.400 1_554 S
C863 C864 1.398 . S
C863 C869 1.491 1_564 S
C864 H855 0.950 . S
C864 C863 1.398 . S
C864 C865 1.391 . S
C865 H853 0.950 . S
C865 C861 1.393 . S
C865 C864 1.391 . S
C866 H856 0.950 . S
C866 C867 1.386 1_554 S
C866 C868 1.391 . S
C867 C866 1.386 1_556 S
C867 C871 1.393 . S
C868 H857 0.950 . S
C868 C866 1.391 . S
C868 C869 1.400 1_554 S
C869 C863 1.491 1_546 S
C869 C868 1.400 1_556 S
C869 C870 1.398 . S
C870 H858 0.950 . S
C870 C869 1.398 . S
C870 C871 1.391 . S
C871 H859 0.950 . S
C871 C867 1.393 . S
C871 C870 1.391 . S
H872 C880 0.950 . S
H873 C885 0.950 . S
H874 C882 0.950 . S
H875 C884 0.950 . S
H876 C886 0.950 . S
H877 C888 0.950 . S
H878 C890 0.950 . S
H879 C891 0.950 . S
C880 H872 0.950 . S
C880 C881 1.386 1_556 S
C880 C882 1.391 . S
C881 C880 1.386 1_554 S
C881 C885 1.393 . S
C882 H874 0.950 . S
C882 C880 1.391 . S
C882 C883 1.400 1_556 S
C883 C882 1.400 1_554 S
C883 C884 1.398 . S
C883 C889 1.490 1_554 S
C884 H875 0.950 . S
C884 C883 1.398 . S
C884 C885 1.391 . S
C885 H873 0.950 . S
C885 C881 1.393 . S
C885 C884 1.391 . S
C886 H876 0.950 . S
C886 C887 1.386 1_554 S
C886 C888 1.391 . S
C887 C886 1.386 1_556 S
C887 C891 1.393 . S
C888 H877 0.950 . S
C888 C886 1.391 . S
C888 C889 1.400 1_554 S
C889 C883 1.490 1_556 S
C889 C888 1.400 1_556 S
C889 C890 1.399 . S
C890 H878 0.950 . S
C890 C889 1.399 . S
C890 C891 1.391 . S
C891 H879 0.950 . S
C891 C887 1.393 . S
C891 C890 1.391 . S
H892 C900 0.950 . S
H893 C905 0.950 . S
H894 C902 0.950 . S
H895 C904 0.950 . S
H896 C906 0.950 . S
H897 C908 0.950 . S
H898 C910 0.950 . S
H899 C911 0.950 . S
C900 H892 0.950 . S
C900 C901 1.386 . S
C900 C902 1.391 . S
C901 C900 1.386 . S
C901 C905 1.393 1_556 S
C902 H894 0.950 . S
C902 C900 1.391 . S
C902 C903 1.400 . S
C903 C902 1.400 . S
C903 C904 1.398 1_556 S
C903 C909 1.491 1_546 S
C904 H895 0.950 . S
C904 C903 1.398 1_554 S
C904 C905 1.391 . S
C905 H893 0.950 . S
C905 C901 1.393 1_554 S
C905 C904 1.391 . S
C906 H896 0.950 . S
C906 C907 1.386 . S
C906 C908 1.391 . S
C907 C906 1.386 . S
C907 C911 1.393 1_554 S
C908 H897 0.950 . S
C908 C906 1.391 . S
C908 C909 1.400 . S
C909 C903 1.491 1_564 S
C909 C908 1.400 . S
C909 C910 1.398 1_554 S
C910 H898 0.950 . S
C910 C909 1.398 1_556 S
C910 C911 1.391 . S
C911 H899 0.950 . S
C911 C907 1.393 1_556 S
C911 C910 1.391 . S
H912 C920 0.950 . S
H913 C925 0.950 . S
H914 C922 0.950 . S
H915 C924 0.950 . S
H916 C926 0.950 . S
H917 C928 0.950 . S
H918 C930 0.950 . S
H919 C931 0.950 . S
C920 H912 0.950 . S
C920 C921 1.386 . S
C920 C922 1.391 . S
C921 C920 1.386 . S
C921 C925 1.393 . S
C922 H914 0.950 . S
C922 C920 1.391 . S
C922 C923 1.400 . S
C923 C922 1.400 . S
C923 C924 1.398 . S
C923 C929 1.491 1_554 S
C924 H915 0.950 . S
C924 C923 1.398 . S
C924 C925 1.391 . S
C925 H913 0.950 . S
C925 C921 1.393 . S
C925 C924 1.391 . S
C926 H916 0.950 . S
C926 C927 1.386 . S
C926 C928 1.391 . S
C927 C926 1.386 . S
C927 C931 1.393 . S
C928 H917 0.950 . S
C928 C926 1.391 . S
C928 C929 1.400 . S
C929 C923 1.491 1_556 S
C929 C928 1.400 . S
C929 C930 1.398 . S
C930 H918 0.950 . S
C930 C929 1.398 . S
C930 C931 1.391 . S
C931 H919 0.950 . S
C931 C927 1.393 . S
C931 C930 1.391 . S
H932 C940 0.950 . S
H933 C945 0.950 . S
H934 C942 0.950 . S
H935 C944 0.950 . S
H936 C946 0.950 . S
H937 C948 0.950 . S
H938 C950 0.950 . S
H939 C951 0.950 . S
C940 H932 0.950 . S
C940 C941 1.386 . S
C940 C942 1.391 . S
C941 C940 1.386 . S
C941 C945 1.393 . S
C942 H934 0.950 . S
C942 C940 1.391 . S
C942 C943 1.400 . S
C943 C942 1.400 . S
C943 C944 1.398 . S
C943 C949 1.491 1_554 S
C944 H935 0.950 . S
C944 C943 1.398 . S
C944 C945 1.391 . S
C945 H933 0.950 . S
C945 C941 1.393 . S
C945 C944 1.391 . S
C946 H936 0.950 . S
C946 C947 1.386 . S
C946 C948 1.391 . S
C947 C946 1.386 . S
C947 C951 1.393 . S
C948 H937 0.950 . S
C948 C946 1.391 . S
C948 C949 1.400 . S
C949 C943 1.491 1_556 S
C949 C948 1.400 . S
C949 C950 1.398 . S
C950 H938 0.950 . S
C950 C949 1.398 . S
C950 C951 1.391 . S
C951 H939 0.950 . S
C951 C947 1.393 . S
C951 C950 1.391 . S
H952 C960 0.950 . S
H953 C965 0.950 . S
H954 C962 0.950 . S
H955 C964 0.950 . S
H956 C966 0.950 . S
H957 C968 0.950 . S
H958 C970 0.950 . S
H959 C971 0.950 . S
C960 H952 0.950 . S
C960 C961 1.386 . S
C960 C962 1.391 . S
C961 C960 1.386 . S
C961 C965 1.393 . S
C962 H954 0.950 . S
C962 C960 1.391 . S
C962 C963 1.400 . S
C963 C962 1.400 . S
C963 C964 1.398 . S
C963 C969 1.491 1_554 S
C964 H955 0.950 . S
C964 C963 1.398 . S
C964 C965 1.391 . S
C965 H953 0.950 . S
C965 C961 1.393 . S
C965 C964 1.391 . S
C966 H956 0.950 . S
C966 C967 1.386 . S
C966 C968 1.391 . S
C967 C966 1.386 . S
C967 C971 1.393 . S
C968 H957 0.950 . S
C968 C966 1.391 . S
C968 C969 1.400 . S
C969 C963 1.491 1_556 S
C969 C968 1.400 . S
C969 C970 1.398 . S
C970 H958 0.950 . S
C970 C969 1.398 . S
C970 C971 1.391 . S
C971 H959 0.950 . S
C971 C967 1.393 . S
C971 C970 1.391 . S
H972 C980 0.950 . S
H973 C985 0.950 . S
H974 C982 0.950 . S
H975 C984 0.950 . S
H976 C986 0.950 . S
H977 C988 0.950 . S
H978 C990 0.950 . S
H979 C991 0.950 . S
C980 H972 0.950 . S
C980 C981 1.386 . S
C980 C982 1.391 . S
C981 C980 1.386 . S
C981 C985 1.393 . S
C982 H974 0.950 . S
C982 C980 1.391 . S
C982 C983 1.400 . S
C983 C982 1.400 . S
C983 C984 1.398 . S
C983 C989 1.491 1_556 S
C984 H975 0.950 . S
C984 C983 1.398 . S
C984 C985 1.391 . S
C985 H973 0.950 . S
C985 C981 1.393 . S
C985 C984 1.391 . S
C986 H976 0.950 . S
C986 C987 1.386 . S
C986 C988 1.391 . S
C987 C986 1.386 . S
C987 C991 1.393 . S
C988 H977 0.950 . S
C988 C986 1.391 . S
C988 C989 1.400 . S
C989 C983 1.491 1_554 S
C989 C988 1.400 . S
C989 C990 1.398 . S
C990 H978 0.950 . S
C990 C989 1.398 . S
C990 C991 1.391 . S
C991 H979 0.950 . S
C991 C987 1.393 . S
C991 C990 1.391 . S
H992 C1000 0.950 . S
H993 C1005 0.950 . S
H994 C1002 0.950 . S
H995 C1004 0.950 . S
H996 C1006 0.950 . S
H997 C1008 0.950 . S
H998 C1010 0.950 . S
H999 C1011 0.950 . S
C1000 H992 0.950 . S
C1000 C1001 1.386 . S
C1000 C1002 1.391 . S
C1001 C1000 1.386 . S
C1001 C1005 1.393 . S
C1002 H994 0.950 . S
C1002 C1000 1.391 . S
C1002 C1003 1.400 . S
C1003 C1002 1.400 . S
C1003 C1004 1.398 . S
C1003 C1009 1.491 . S
C1004 H995 0.950 . S
C1004 C1003 1.398 . S
C1004 C1005 1.391 . S
C1005 H993 0.950 . S
C1005 C1001 1.393 . S
C1005 C1004 1.391 . S
C1006 H996 0.950 . S
C1006 C1007 1.386 . S
C1006 C1008 1.391 . S
C1007 C1006 1.386 . S
C1007 C1011 1.393 . S
C1008 H997 0.950 . S
C1008 C1006 1.391 . S
C1008 C1009 1.400 . S
C1009 C1003 1.491 . S
C1009 C1008 1.400 . S
C1009 C1010 1.398 . S
C1010 H998 0.950 . S
C1010 C1009 1.398 . S
C1010 C1011 1.391 . S
C1011 H999 0.950 . S
C1011 C1007 1.393 . S
C1011 C1010 1.391 . S
H1012 C1020 0.950 . S
H1013 C1025 0.950 . S
H1014 C1022 0.950 . S
H1015 C1024 0.950 . S
H1016 C1026 0.950 . S
H1017 C1028 0.950 . S
H1018 C1030 0.950 . S
H1019 C1031 0.950 . S
C1020 H1012 0.950 . S
C1020 C1021 1.386 . S
C1020 C1022 1.391 . S
C1021 C1020 1.386 . S
C1021 C1025 1.393 . S
C1022 H1014 0.950 . S
C1022 C1020 1.391 . S
C1022 C1023 1.400 . S
C1023 C1022 1.400 . S
C1023 C1024 1.398 . S
C1023 C1029 1.491 . S
C1024 H1015 0.950 . S
C1024 C1023 1.398 . S
C1024 C1025 1.391 . S
C1025 H1013 0.950 . S
C1025 C1021 1.393 . S
C1025 C1024 1.391 . S
C1026 H1016 0.950 . S
C1026 C1027 1.386 . S
C1026 C1028 1.391 . S
C1027 C1026 1.386 . S
C1027 C1031 1.393 . S
C1028 H1017 0.950 . S
C1028 C1026 1.391 . S
C1028 C1029 1.400 . S
C1029 C1023 1.491 . S
C1029 C1028 1.400 . S
C1029 C1030 1.398 . S
C1030 H1018 0.950 . S
C1030 C1029 1.398 . S
C1030 C1031 1.391 . S
C1031 H1019 0.950 . S
C1031 C1027 1.393 . S
C1031 C1030 1.391 . S
H1032 C1040 0.950 . S
H1033 C1045 0.950 . S
H1034 C1042 0.950 . S
H1035 C1044 0.950 . S
H1036 C1046 0.950 . S
H1037 C1048 0.950 . S
H1038 C1050 0.950 . S
H1039 C1051 0.950 . S
C1040 H1032 0.950 . S
C1040 C1041 1.386 . S
C1040 C1042 1.391 . S
C1041 C1040 1.386 . S
C1041 C1045 1.393 . S
C1042 H1034 0.950 . S
C1042 C1040 1.391 . S
C1042 C1043 1.400 . S
C1043 C1042 1.400 . S
C1043 C1044 1.398 . S
C1043 C1049 1.491 . S
C1044 H1035 0.950 . S
C1044 C1043 1.398 . S
C1044 C1045 1.391 . S
C1045 H1033 0.950 . S
C1045 C1041 1.393 . S
C1045 C1044 1.391 . S
C1046 H1036 0.950 . S
C1046 C1047 1.386 . S
C1046 C1048 1.391 . S
C1047 C1046 1.386 . S
C1047 C1051 1.393 . S
C1048 H1037 0.950 . S
C1048 C1046 1.391 . S
C1048 C1049 1.400 . S
C1049 C1043 1.491 . S
C1049 C1048 1.400 . S
C1049 C1050 1.398 . S
C1050 H1038 0.950 . S
C1050 C1049 1.398 . S
C1050 C1051 1.391 . S
C1051 H1039 0.950 . S
C1051 C1047 1.393 . S
C1051 C1050 1.391 . S
H1052 C1060 0.950 . S
H1053 C1065 0.950 . S
H1054 C1062 0.950 . S
H1055 C1064 0.950 . S
H1056 C1066 0.950 . S
H1057 C1068 0.950 . S
H1058 C1070 0.950 . S
H1059 C1071 0.950 . S
C1060 H1052 0.950 . S
C1060 C1061 1.386 . S
C1060 C1062 1.391 . S
C1061 C1060 1.386 . S
C1061 C1065 1.393 . S
C1062 H1054 0.950 . S
C1062 C1060 1.391 . S
C1062 C1063 1.400 . S
C1063 C1062 1.400 . S
C1063 C1064 1.398 . S
C1063 C1069 1.491 . S
C1064 H1055 0.950 . S
C1064 C1063 1.398 . S
C1064 C1065 1.391 . S
C1065 H1053 0.950 . S
C1065 C1061 1.393 . S
C1065 C1064 1.391 . S
C1066 H1056 0.950 . S
C1066 C1067 1.386 . S
C1066 C1068 1.391 . S
C1067 C1066 1.386 . S
C1067 C1071 1.393 . S
C1068 H1057 0.950 . S
C1068 C1066 1.391 . S
C1068 C1069 1.400 . S
C1069 C1063 1.491 . S
C1069 C1068 1.400 . S
C1069 C1070 1.398 . S
C1070 H1058 0.950 . S
C1070 C1069 1.398 . S
C1070 C1071 1.391 . S
C1071 H1059 0.950 . S
C1071 C1067 1.393 . S
C1071 C1070 1.391 . S
H1072 C1080 0.950 . S
H1073 C1085 0.950 . S
H1074 C1082 0.950 . S
H1075 C1084 0.950 . S
H1076 C1086 0.950 . S
H1077 C1088 0.950 . S
H1078 C1090 0.950 . S
H1079 C1091 0.950 . S
C1080 H1072 0.950 . S
C1080 C1081 1.386 . S
C1080 C1082 1.391 . S
C1081 C1080 1.386 . S
C1081 C1085 1.393 . S
C1082 H1074 0.950 . S
C1082 C1080 1.391 . S
C1082 C1083 1.400 . S
C1083 C1082 1.400 . S
C1083 C1084 1.398 . S
C1083 C1089 1.491 1_455 S
C1084 H1075 0.950 . S
C1084 C1083 1.398 . S
C1084 C1085 1.391 . S
C1085 H1073 0.950 . S
C1085 C1081 1.393 . S
C1085 C1084 1.391 . S
C1086 H1076 0.950 . S
C1086 C1087 1.386 . S
C1086 C1088 1.391 . S
C1087 C1086 1.386 . S
C1087 C1091 1.393 . S
C1088 H1077 0.950 . S
C1088 C1086 1.391 . S
C1088 C1089 1.400 . S
C1089 C1083 1.491 1_655 S
C1089 C1088 1.400 . S
C1089 C1090 1.398 . S
C1090 H1078 0.950 . S
C1090 C1089 1.398 . S
C1090 C1091 1.391 . S
C1091 H1079 0.950 . S
C1091 C1087 1.393 . S
C1091 C1090 1.391 . S
H1092 C1100 0.950 . S
H1093 C1105 0.950 . S
H1094 C1102 0.950 . S
H1095 C1104 0.950 . S
H1096 C1106 0.950 . S
H1097 C1108 0.950 . S
H1098 C1110 0.950 . S
H1099 C1111 0.950 . S
C1100 H1092 0.950 . S
C1100 C1101 1.386 . S
C1100 C1102 1.391 . S
C1101 C1100 1.386 . S
C1101 C1105 1.393 . S
C1102 H1094 0.950 . S
C1102 C1100 1.391 . S
C1102 C1103 1.400 . S
C1103 C1102 1.400 . S
C1103 C1104 1.398 . S
C1103 C1109 1.491 1_655 S
C1104 H1095 0.950 . S
C1104 C1103 1.398 . S
C1104 C1105 1.391 . S
C1105 H1093 0.950 . S
C1105 C1101 1.393 . S
C1105 C1104 1.391 . S
C1106 H1096 0.950 . S
C1106 C1107 1.386 . S
C1106 C1108 1.391 . S
C1107 C1106 1.386 . S
C1107 C1111 1.393 . S
C1108 H1097 0.950 . S
C1108 C1106 1.391 . S
C1108 C1109 1.400 . S
C1109 C1103 1.491 1_455 S
C1109 C1108 1.400 . S
C1109 C1110 1.398 . S
C1110 H1098 0.950 . S
C1110 C1109 1.398 . S
C1110 C1111 1.391 . S
C1111 H1099 0.950 . S
C1111 C1107 1.393 . S
C1111 C1110 1.391 . S
H1112 C1120 0.950 . S
H1113 C1125 0.950 . S
H1114 C1122 0.950 . S
H1115 C1124 0.950 . S
H1116 C1126 0.950 . S
H1117 C1128 0.950 . S
H1118 C1130 0.950 . S
H1119 C1131 0.950 . S
C1120 H1112 0.950 . S
C1120 C1121 1.386 . S
C1120 C1122 1.391 . S
C1121 C1120 1.386 . S
C1121 C1125 1.393 . S
C1122 H1114 0.950 . S
C1122 C1120 1.391 . S
C1122 C1123 1.400 . S
C1123 C1122 1.400 . S
C1123 C1124 1.398 . S
C1123 C1129 1.491 . S
C1124 H1115 0.950 . S
C1124 C1123 1.398 . S
C1124 C1125 1.391 . S
C1125 H1113 0.950 . S
C1125 C1121 1.393 . S
C1125 C1124 1.391 . S
C1126 H1116 0.950 . S
C1126 C1127 1.386 . S
C1126 C1128 1.391 . S
C1127 C1126 1.386 . S
C1127 C1131 1.393 . S
C1128 H1117 0.950 . S
C1128 C1126 1.391 . S
C1128 C1129 1.400 . S
C1129 C1123 1.491 . S
C1129 C1128 1.400 . S
C1129 C1130 1.398 . S
C1130 H1118 0.950 . S
C1130 C1129 1.398 . S
C1130 C1131 1.391 . S
C1131 H1119 0.950 . S
C1131 C1127 1.393 . S
C1131 C1130 1.391 . S
H1132 C1140 0.950 . S
H1133 C1145 0.950 . S
H1134 C1142 0.950 . S
H1135 C1144 0.950 . S
H1136 C1146 0.950 . S
H1137 C1148 0.950 . S
H1138 C1150 0.950 . S
H1139 C1151 0.950 . S
C1140 H1132 0.950 . S
C1140 C1141 1.386 . S
C1140 C1142 1.391 . S
C1141 C1140 1.386 . S
C1141 C1145 1.393 . S
C1142 H1134 0.950 . S
C1142 C1140 1.391 . S
C1142 C1143 1.400 . S
C1143 C1142 1.400 . S
C1143 C1144 1.398 . S
C1143 C1149 1.491 . S
C1144 H1135 0.950 . S
C1144 C1143 1.398 . S
C1144 C1145 1.391 . S
C1145 H1133 0.950 . S
C1145 C1141 1.393 . S
C1145 C1144 1.391 . S
C1146 H1136 0.950 . S
C1146 C1147 1.386 . S
C1146 C1148 1.391 . S
C1147 C1146 1.386 . S
C1147 C1151 1.393 . S
C1148 H1137 0.950 . S
C1148 C1146 1.391 . S
C1148 C1149 1.400 . S
C1149 C1143 1.491 . S
C1149 C1148 1.400 . S
C1149 C1150 1.398 . S
C1150 H1138 0.950 . S
C1150 C1149 1.398 . S
C1150 C1151 1.391 . S
C1151 H1139 0.950 . S
C1151 C1147 1.393 . S
C1151 C1150 1.391 . S
C681 C58 1.551 . S
C687 C657 1.551 . S
C701 C562 1.524 . S
C707 C153 1.523 . S
C721 C489 1.523 . S
C727 C226 1.522 . S
C741 C394 1.547 . S
C747 C321 1.546 . S
C761 C231 2.451 . S
C767 C63 2.442 . S
C781 C147 0.650 . S
C787 C315 0.641 . S
C801 C326 2.449 . S
C807 C158 2.441 . S
C821 C242 0.610 . S
C827 C74 0.647 . S
C841 C399 2.458 . S
C847 C567 2.448 . S
C861 C483 0.581 . S
C867 C651 0.631 . S
C881 C662 2.459 . S
C887 C494 2.453 . S
C901 C578 0.591 . S
C907 C410 0.618 . S
C921 C56 1.760 . S
C927 C67 1.760 . S
C941 C151 1.760 . S
C947 C140 1.760 . S
C961 C235 1.775 . S
C967 C224 1.775 . S
C981 C319 1.761 . S
C987 C308 1.761 . S
C1001 C403 1.762 . S
C1007 C392 1.762 . S
C1021 C487 1.763 . S
C1027 C476 1.763 . S
C1041 C560 1.775 . S
C1047 C571 1.775 . S
C1061 C655 1.761 . S
C1067 C644 1.761 . S
C1081 C69 1.993 . S
C1087 C142 2.009 . S
C1101 C310 1.993 . S
C1107 C237 2.009 . S
C1121 C405 2.018 . S
C1127 C478 1.985 . S
C1141 C646 1.984 . S
C1147 C573 2.018 . S
