# Generated by pormake.
# Topology lta, (4)-cn, num edge types: 1
# Building blocks:
#     Node 0, Type 0, BuildingBlock: QUQFOY_clean_sbu_1, # of connection points: 4
#     Node 1, Type 0, BuildingBlock: QUQFOY_clean_sbu_1, # of connection points: 4
#     Node 2, Type 0, BuildingBlock: QUQFOY_clean_sbu_1, # of connection points: 4
#     Node 3, Type 0, BuildingBlock: QUQFOY_clean_sbu_1, # of connection points: 4
#     Node 4, Type 0, BuildingBlock: QUQFOY_clean_sbu_1, # of connection points: 4
#     Node 5, Type 0, BuildingBlock: QUQFOY_clean_sbu_1, # of connection points: 4
#     Node 6, Type 0, BuildingBlock: QUQFOY_clean_sbu_1, # of connection points: 4
#     Node 7, Type 0, BuildingBlock: QUQFOY_clean_sbu_1, # of connection points: 4
#     Node 8, Type 0, BuildingBlock: QUQFOY_clean_sbu_1, # of connection points: 4
#     Node 9, Type 0, BuildingBlock: QUQFOY_clean_sbu_1, # of connection points: 4
#     Node 10, Type 0, BuildingBlock: QUQFOY_clean_sbu_1, # of connection points: 4
#     Node 11, Type 0, BuildingBlock: QUQFOY_clean_sbu_1, # of connection points: 4
#     Node 12, Type 0, BuildingBlock: QUQFOY_clean_sbu_1, # of connection points: 4
#     Node 13, Type 0, BuildingBlock: QUQFOY_clean_sbu_1, # of connection points: 4
#     Node 14, Type 0, BuildingBlock: QUQFOY_clean_sbu_1, # of connection points: 4
#     Node 15, Type 0, BuildingBlock: QUQFOY_clean_sbu_1, # of connection points: 4
#     Node 16, Type 0, BuildingBlock: QUQFOY_clean_sbu_1, # of connection points: 4
#     Node 17, Type 0, BuildingBlock: QUQFOY_clean_sbu_1, # of connection points: 4
#     Node 18, Type 0, BuildingBlock: QUQFOY_clean_sbu_1, # of connection points: 4
#     Node 19, Type 0, BuildingBlock: QUQFOY_clean_sbu_1, # of connection points: 4
#     Node 20, Type 0, BuildingBlock: QUQFOY_clean_sbu_1, # of connection points: 4
#     Node 21, Type 0, BuildingBlock: QUQFOY_clean_sbu_1, # of connection points: 4
#     Node 22, Type 0, BuildingBlock: QUQFOY_clean_sbu_1, # of connection points: 4
#     Node 23, Type 0, BuildingBlock: QUQFOY_clean_sbu_1, # of connection points: 4
#     Edge 24, Type (0, 0), BuildingBlock: XUDNAN_clean_linker_2, # of connection points: 2
#     Edge 25, Type (0, 0), BuildingBlock: XUDNAN_clean_linker_2, # of connection points: 2
#     Edge 26, Type (0, 0), BuildingBlock: XUDNAN_clean_linker_2, # of connection points: 2
#     Edge 27, Type (0, 0), BuildingBlock: XUDNAN_clean_linker_2, # of connection points: 2
#     Edge 28, Type (0, 0), BuildingBlock: XUDNAN_clean_linker_2, # of connection points: 2
#     Edge 29, Type (0, 0), BuildingBlock: XUDNAN_clean_linker_2, # of connection points: 2
#     Edge 30, Type (0, 0), BuildingBlock: XUDNAN_clean_linker_2, # of connection points: 2
#     Edge 31, Type (0, 0), BuildingBlock: XUDNAN_clean_linker_2, # of connection points: 2
#     Edge 32, Type (0, 0), BuildingBlock: XUDNAN_clean_linker_2, # of connection points: 2
#     Edge 33, Type (0, 0), BuildingBlock: XUDNAN_clean_linker_2, # of connection points: 2
#     Edge 34, Type (0, 0), BuildingBlock: XUDNAN_clean_linker_2, # of connection points: 2
#     Edge 35, Type (0, 0), BuildingBlock: XUDNAN_clean_linker_2, # of connection points: 2
#     Edge 36, Type (0, 0), BuildingBlock: XUDNAN_clean_linker_2, # of connection points: 2
#     Edge 37, Type (0, 0), BuildingBlock: XUDNAN_clean_linker_2, # of connection points: 2
#     Edge 38, Type (0, 0), BuildingBlock: XUDNAN_clean_linker_2, # of connection points: 2
#     Edge 39, Type (0, 0), BuildingBlock: XUDNAN_clean_linker_2, # of connection points: 2
#     Edge 40, Type (0, 0), BuildingBlock: XUDNAN_clean_linker_2, # of connection points: 2
#     Edge 41, Type (0, 0), BuildingBlock: XUDNAN_clean_linker_2, # of connection points: 2
#     Edge 42, Type (0, 0), BuildingBlock: XUDNAN_clean_linker_2, # of connection points: 2
#     Edge 43, Type (0, 0), BuildingBlock: XUDNAN_clean_linker_2, # of connection points: 2
#     Edge 44, Type (0, 0), BuildingBlock: XUDNAN_clean_linker_2, # of connection points: 2
#     Edge 45, Type (0, 0), BuildingBlock: XUDNAN_clean_linker_2, # of connection points: 2
#     Edge 46, Type (0, 0), BuildingBlock: XUDNAN_clean_linker_2, # of connection points: 2
#     Edge 47, Type (0, 0), BuildingBlock: XUDNAN_clean_linker_2, # of connection points: 2
#     Edge 48, Type (0, 0), BuildingBlock: XUDNAN_clean_linker_2, # of connection points: 2
#     Edge 49, Type (0, 0), BuildingBlock: XUDNAN_clean_linker_2, # of connection points: 2
#     Edge 50, Type (0, 0), BuildingBlock: XUDNAN_clean_linker_2, # of connection points: 2
#     Edge 51, Type (0, 0), BuildingBlock: XUDNAN_clean_linker_2, # of connection points: 2
#     Edge 52, Type (0, 0), BuildingBlock: XUDNAN_clean_linker_2, # of connection points: 2
#     Edge 53, Type (0, 0), BuildingBlock: XUDNAN_clean_linker_2, # of connection points: 2
#     Edge 54, Type (0, 0), BuildingBlock: XUDNAN_clean_linker_2, # of connection points: 2
#     Edge 55, Type (0, 0), BuildingBlock: XUDNAN_clean_linker_2, # of connection points: 2
#     Edge 56, Type (0, 0), BuildingBlock: XUDNAN_clean_linker_2, # of connection points: 2
#     Edge 57, Type (0, 0), BuildingBlock: XUDNAN_clean_linker_2, # of connection points: 2
#     Edge 58, Type (0, 0), BuildingBlock: XUDNAN_clean_linker_2, # of connection points: 2
#     Edge 59, Type (0, 0), BuildingBlock: XUDNAN_clean_linker_2, # of connection points: 2
#     Edge 60, Type (0, 0), BuildingBlock: XUDNAN_clean_linker_2, # of connection points: 2
#     Edge 61, Type (0, 0), BuildingBlock: XUDNAN_clean_linker_2, # of connection points: 2
#     Edge 62, Type (0, 0), BuildingBlock: XUDNAN_clean_linker_2, # of connection points: 2
#     Edge 63, Type (0, 0), BuildingBlock: XUDNAN_clean_linker_2, # of connection points: 2
#     Edge 64, Type (0, 0), BuildingBlock: XUDNAN_clean_linker_2, # of connection points: 2
#     Edge 65, Type (0, 0), BuildingBlock: XUDNAN_clean_linker_2, # of connection points: 2
#     Edge 66, Type (0, 0), BuildingBlock: XUDNAN_clean_linker_2, # of connection points: 2
#     Edge 67, Type (0, 0), BuildingBlock: XUDNAN_clean_linker_2, # of connection points: 2
#     Edge 68, Type (0, 0), BuildingBlock: XUDNAN_clean_linker_2, # of connection points: 2
#     Edge 69, Type (0, 0), BuildingBlock: XUDNAN_clean_linker_2, # of connection points: 2
#     Edge 70, Type (0, 0), BuildingBlock: XUDNAN_clean_linker_2, # of connection points: 2
#     Edge 71, Type (0, 0), BuildingBlock: XUDNAN_clean_linker_2, # of connection points: 2
# Relax obj value: 0.319
# Max RMSD: 0.228
# Mean RMSD: 0.228
data_MOF--net-lta--node1-QUQFOY_clean_sbu_1--edge1-XUDNAN_clean_linker_2
_symmetry_space_group_name_H-M    P1
_symmetry_Int_Tables_number       1
_symmetry_cell_setting            triclinic
loop_
_symmetry_equiv_pos_as_xyz
'x, y, z'
_cell_length_a     58.715692
_cell_length_b     58.728043
_cell_length_c     58.735153
_cell_angle_alpha  89.978815
_cell_angle_beta   89.990325
_cell_angle_gamma 89.976493
loop_
_atom_site_label
_atom_site_type_symbol
_atom_site_fract_x
_atom_site_fract_y
_atom_site_fract_z
_atom_type_partial_charge
O0 O 0.14118 0.32381 0.54926 0.0
Cd1 Cd 0.13117 0.30091 0.52431 0.0
Cd2 Cd 0.13375 0.33765 0.49638 0.0
O3 O 0.14539 0.35279 0.5257 0.0
O4 O 0.14671 0.27081 0.52787 0.0
O5 O 0.15298 0.29458 0.49915 0.0
C6 C 0.15754 0.27559 0.5093 0.0
C7 C 0.14799 0.35187 0.46196 0.0
C8 C 0.14634 0.34455 0.54569 0.0
C9 C 0.08743 0.31499 0.50472 0.0
O10 O 0.09952 0.33055 0.49581 0.0
O11 O 0.0966 0.29951 0.51678 0.0
O12 O 0.13395 0.36332 0.4742 0.0
O13 O 0.15456 0.33224 0.46924 0.0
O14 O 0.68559 0.13938 0.55597 0.0
Cd15 Cd 0.70978 0.12941 0.53214 0.0
Cd16 Cd 0.67351 0.12229 0.5042 0.0
O17 O 0.6568 0.13452 0.53243 0.0
O18 O 0.73846 0.1472 0.53593 0.0
O19 O 0.71636 0.14914 0.50529 0.0
C20 C 0.73461 0.15543 0.51589 0.0
C21 C 0.65739 0.13309 0.46929 0.0
C22 C 0.66433 0.1401 0.55191 0.0
C23 C 0.70361 0.08186 0.51589 0.0
O24 O 0.68609 0.08955 0.50574 0.0
O25 O 0.71623 0.095 0.52759 0.0
O26 O 0.64739 0.11918 0.48292 0.0
O27 O 0.67701 0.14096 0.47525 0.0
O28 O 0.87111 0.67646 0.55383 0.0
Cd29 Cd 0.87592 0.69905 0.52735 0.0
Cd30 Cd 0.8638 0.66284 0.50182 0.0
O31 O 0.85054 0.65309 0.53299 0.0
O32 O 0.86653 0.72985 0.53775 0.0
O33 O 0.84883 0.71075 0.51028 0.0
C34 C 0.85014 0.7286 0.52312 0.0
C35 C 0.84561 0.64656 0.47038 0.0
C36 C 0.85796 0.65941 0.55226 0.0
C37 C 0.91323 0.68031 0.50105 0.0
O38 O 0.89888 0.66449 0.49737 0.0
O39 O 0.9072 0.69818 0.51163 0.0
O40 O 0.85694 0.63452 0.48467 0.0
O41 O 0.84413 0.66819 0.47382 0.0
O42 O 0.3052 0.87085 0.55032 0.0
Cd43 Cd 0.27921 0.87676 0.52765 0.0
Cd44 Cd 0.31545 0.88503 0.49652 0.0
O45 O 0.33306 0.8796 0.5267 0.0
O46 O 0.25208 0.8613 0.54075 0.0
O47 O 0.26736 0.85172 0.50758 0.0
C48 C 0.25204 0.84833 0.52303 0.0
C49 C 0.3357 0.87428 0.4637 0.0
C50 C 0.32625 0.87372 0.5464 0.0
C51 C 0.27956 0.92183 0.50444 0.0
O52 O 0.29609 0.91422 0.49273 0.0
O53 O 0.27086 0.91017 0.52045 0.0
O54 O 0.34166 0.89141 0.47593 0.0
O55 O 0.31791 0.86298 0.46992 0.0
O56 O 0.13614 0.67975 0.43812 0.0
Cd57 Cd 0.12202 0.70034 0.46302 0.0
Cd58 Cd 0.12536 0.66276 0.48889 0.0
O59 O 0.14726 0.65385 0.4629 0.0
O60 O 0.13459 0.73182 0.46107 0.0
O61 O 0.14112 0.7082 0.48991 0.0
C62 C 0.14438 0.72777 0.48037 0.0
C63 C 0.1341 0.64814 0.52505 0.0
C64 C 0.14734 0.66184 0.44281 0.0
C65 C 0.07831 0.68023 0.47511 0.0
O66 O 0.09072 0.66397 0.48224 0.0
O67 O 0.08728 0.69858 0.46799 0.0
O68 O 0.12727 0.63532 0.50868 0.0
O69 O 0.13642 0.66959 0.52092 0.0
O70 O 0.33082 0.13208 0.45961 0.0
Cd71 Cd 0.29891 0.12944 0.47424 0.0
Cd72 Cd 0.32125 0.11554 0.5118 0.0
O73 O 0.34714 0.11405 0.48815 0.0
O74 O 0.27774 0.14967 0.4572 0.0
O75 O 0.28549 0.15396 0.49391 0.0
C76 C 0.27451 0.16058 0.476 0.0
C77 C 0.33465 0.12925 0.5467 0.0
C78 C 0.34829 0.12284 0.46841 0.0
C79 C 0.28542 0.08436 0.49357 0.0
O80 O 0.29712 0.09 0.51088 0.0
O81 O 0.28488 0.09723 0.47615 0.0
O82 O 0.3379 0.1085 0.5405 0.0
O83 O 0.32257 0.14216 0.53363 0.0
O84 O 0.87311 0.31446 0.43923 0.0
Cd85 Cd 0.88083 0.29168 0.46493 0.0
Cd86 Cd 0.87149 0.32808 0.49143 0.0
O87 O 0.85436 0.33751 0.4621 0.0
O88 O 0.87003 0.26107 0.45549 0.0
O89 O 0.85556 0.28027 0.48473 0.0
C90 C 0.8552 0.26251 0.47169 0.0
C91 C 0.85864 0.34532 0.52521 0.0
C92 C 0.8599 0.33132 0.44215 0.0
C93 C 0.92081 0.31043 0.48602 0.0
O94 O 0.9068 0.32622 0.49094 0.0
O95 O 0.91376 0.29214 0.47691 0.0
O96 O 0.86814 0.35674 0.50916 0.0
O97 O 0.85562 0.32381 0.52196 0.0
O98 O 0.68598 0.86177 0.44705 0.0
Cd99 Cd 0.70911 0.87014 0.47244 0.0
Cd100 Cd 0.67103 0.87671 0.50025 0.0
O101 O 0.65683 0.86633 0.47013 0.0
O102 O 0.73777 0.85248 0.46816 0.0
O103 O 0.71483 0.84841 0.49799 0.0
C104 C 0.73327 0.84271 0.48735 0.0
C105 C 0.64755 0.86608 0.53062 0.0
C106 C 0.66465 0.86133 0.45064 0.0
C107 C 0.70313 0.91666 0.49211 0.0
O108 O 0.6854 0.9087 0.50166 0.0
O109 O 0.71551 0.90415 0.47945 0.0
O110 O 0.64177 0.88168 0.51645 0.0
O111 O 0.66738 0.85689 0.52846 0.0
O112 O 0.55902 0.1372 0.31765 0.0
Cd113 Cd 0.53462 0.12805 0.29385 0.0
Cd114 Cd 0.50683 0.11842 0.33432 0.0
O115 O 0.53622 0.13237 0.34709 0.0
O116 O 0.53991 0.14568 0.26535 0.0
O117 O 0.50877 0.149 0.28658 0.0
C118 C 0.52024 0.15493 0.26872 0.0
C119 C 0.47805 0.11881 0.36239 0.0
C120 C 0.55542 0.13807 0.33896 0.0
C121 C 0.5183 0.08049 0.29953 0.0
O122 O 0.50873 0.08767 0.31757 0.0
O123 O 0.52973 0.09385 0.28689 0.0
O124 O 0.49593 0.10639 0.36403 0.0
O125 O 0.47592 0.13111 0.34433 0.0
O126 O 0.86551 0.55135 0.32846 0.0
Cd127 Cd 0.87856 0.52996 0.30366 0.0
Cd128 Cd 0.8742 0.49787 0.33665 0.0
O129 O 0.85518 0.52345 0.35133 0.0
O130 O 0.86894 0.54241 0.27372 0.0
O131 O 0.85702 0.5092 0.28728 0.0
C132 C 0.85633 0.52454 0.27147 0.0
C133 C 0.86222 0.46094 0.34538 0.0
C134 C 0.85525 0.54446 0.34621 0.0
C135 C 0.9218 0.51178 0.32052 0.0
O136 O 0.90918 0.50194 0.33509 0.0
O137 O 0.91305 0.5231 0.3043 0.0
O138 O 0.87234 0.47352 0.36011 0.0
O139 O 0.85862 0.46915 0.32533 0.0
O140 O 0.4458 0.86571 0.31954 0.0
Cd141 Cd 0.47274 0.86977 0.297 0.0
Cd142 Cd 0.49834 0.87583 0.33453 0.0
O143 O 0.46801 0.86703 0.34981 0.0
O144 O 0.46727 0.85263 0.26829 0.0
O145 O 0.49362 0.84306 0.29373 0.0
C146 C 0.48335 0.83905 0.27468 0.0
C147 C 0.53203 0.8627 0.35142 0.0
C148 C 0.44838 0.86462 0.34102 0.0
C149 C 0.49405 0.91552 0.30226 0.0
O150 O 0.5006 0.90825 0.32154 0.0
O151 O 0.48335 0.90246 0.28873 0.0
O152 O 0.519 0.87729 0.36128 0.0
O153 O 0.52582 0.85499 0.33181 0.0
O154 O 0.13608 0.45112 0.31907 0.0
Cd155 Cd 0.1278 0.47676 0.29652 0.0
Cd156 Cd 0.13858 0.50352 0.33131 0.0
O157 O 0.15549 0.47423 0.34122 0.0
O158 O 0.13646 0.46653 0.26552 0.0
O159 O 0.15299 0.49549 0.2834 0.0
C160 C 0.15191 0.48219 0.26588 0.0
C161 C 0.15525 0.53754 0.34344 0.0
C162 C 0.14975 0.45421 0.33551 0.0
C163 C 0.08873 0.49893 0.31681 0.0
O164 O 0.10317 0.50397 0.33217 0.0
O165 O 0.09524 0.48949 0.29848 0.0
O166 O 0.14619 0.52349 0.35753 0.0
O167 O 0.15514 0.53247 0.32209 0.0
O168 O 0.54528 0.86264 0.67285 0.0
Cd169 Cd 0.52578 0.87325 0.69988 0.0
Cd170 Cd 0.49218 0.88408 0.66814 0.0
O171 O 0.51787 0.87023 0.64831 0.0
O172 O 0.53037 0.85357 0.72714 0.0
O173 O 0.49782 0.85577 0.70795 0.0
C174 C 0.50942 0.84727 0.72465 0.0
C175 C 0.45618 0.87881 0.65151 0.0
C176 C 0.53777 0.86286 0.6526 0.0
C177 C 0.51158 0.92153 0.69895 0.0
O178 O 0.49689 0.91513 0.68436 0.0
O179 O 0.52582 0.90748 0.70721 0.0
O180 O 0.47079 0.8929 0.64335 0.0
O181 O 0.46167 0.86785 0.66975 0.0
O182 O 0.13074 0.55678 0.68198 0.0
Cd183 Cd 0.12526 0.53282 0.70724 0.0
Cd184 Cd 0.12183 0.50262 0.67114 0.0
O185 O 0.13107 0.53178 0.65407 0.0
O186 O 0.14013 0.54478 0.73512 0.0
O187 O 0.15087 0.51289 0.71785 0.0
C188 C 0.15367 0.52748 0.73409 0.0
C189 C 0.13494 0.46919 0.65368 0.0
C190 C 0.1331 0.55215 0.661 0.0
C191 C 0.08061 0.50966 0.70201 0.0
O192 O 0.08932 0.50067 0.68434 0.0
O193 O 0.09226 0.52295 0.71449 0.0
O194 O 0.11963 0.48187 0.64454 0.0
O195 O 0.14291 0.47519 0.67325 0.0
O196 O 0.44462 0.13406 0.68424 0.0
Cd197 Cd 0.46793 0.12837 0.70948 0.0
Cd198 Cd 0.50011 0.13009 0.67305 0.0
O199 O 0.47006 0.14096 0.65737 0.0
O200 O 0.45555 0.14166 0.73802 0.0
O201 O 0.4872 0.1539 0.72128 0.0
C202 C 0.47248 0.15568 0.73758 0.0
C203 C 0.5335 0.14204 0.65439 0.0
C204 C 0.44949 0.14015 0.66412 0.0
C205 C 0.49398 0.08638 0.70226 0.0
O206 O 0.50374 0.09733 0.68631 0.0
O207 O 0.47841 0.09547 0.71417 0.0
O208 O 0.51979 0.12746 0.64556 0.0
O209 O 0.52821 0.15041 0.67401 0.0
O210 O 0.86039 0.4431 0.67781 0.0
Cd211 Cd 0.86877 0.46646 0.70296 0.0
Cd212 Cd 0.87798 0.49422 0.66702 0.0
O213 O 0.86717 0.46622 0.64898 0.0
O214 O 0.84933 0.46204 0.73044 0.0
O215 O 0.84841 0.49297 0.70873 0.0
C216 C 0.8411 0.48204 0.72638 0.0
C217 C 0.86722 0.52988 0.65289 0.0
C218 C 0.86095 0.44689 0.65648 0.0
C219 C 0.91638 0.48242 0.69985 0.0
O220 O 0.90966 0.49254 0.68196 0.0
O221 O 0.90262 0.47075 0.71179 0.0
O222 O 0.88322 0.51818 0.64355 0.0
O223 O 0.85699 0.52137 0.67035 0.0
O224 O 0.32626 0.55235 0.14061 0.0
Cd225 Cd 0.29846 0.5336 0.13046 0.0
Cd226 Cd 0.3285 0.49755 0.12212 0.0
O227 O 0.34908 0.52305 0.13514 0.0
O228 O 0.27111 0.53972 0.14953 0.0
O229 O 0.28918 0.50644 0.14851 0.0
C230 C 0.27262 0.51879 0.15619 0.0
C231 C 0.3452 0.46191 0.12867 0.0
C232 C 0.34598 0.54355 0.14134 0.0
C233 C 0.29842 0.51597 0.0834 0.0
O234 O 0.31225 0.50105 0.09091 0.0
O235 O 0.29119 0.53178 0.09629 0.0
O236 O 0.35336 0.4761 0.11417 0.0
O237 O 0.32669 0.46741 0.13916 0.0
O238 O 0.31354 0.44206 0.86925 0.0
Cd239 Cd 0.28879 0.46569 0.87673 0.0
Cd240 Cd 0.32344 0.49715 0.88003 0.0
O241 O 0.34101 0.46731 0.87329 0.0
O242 O 0.26096 0.46248 0.85747 0.0
O243 O 0.2848 0.49179 0.85554 0.0
C244 C 0.26646 0.48185 0.84855 0.0
C245 C 0.34171 0.52995 0.86662 0.0
C246 C 0.33459 0.44703 0.86926 0.0
C247 C 0.29147 0.48986 0.92047 0.0
O248 O 0.30682 0.50159 0.91074 0.0
O249 O 0.2823 0.47299 0.9105 0.0
O250 O 0.34966 0.51823 0.88331 0.0
O251 O 0.32303 0.52319 0.85726 0.0
O252 O 0.55757 0.32045 0.86131 0.0
Cd253 Cd 0.53201 0.29908 0.87289 0.0
Cd254 Cd 0.50847 0.33766 0.87415 0.0
O255 O 0.53445 0.3489 0.85336 0.0
O256 O 0.5344 0.26878 0.85784 0.0
O257 O 0.50517 0.2924 0.85322 0.0
C258 C 0.51496 0.27324 0.84852 0.0
C259 C 0.4721 0.35261 0.86702 0.0
C260 C 0.55409 0.33993 0.85256 0.0
C261 C 0.52248 0.31491 0.9187 0.0
O262 O 0.51609 0.33282 0.90831 0.0
O263 O 0.52794 0.29714 0.90767 0.0
O264 O 0.48827 0.36488 0.87524 0.0
O265 O 0.47653 0.33157 0.86251 0.0
O266 O 0.68043 0.55 0.87092 0.0
Cd267 Cd 0.70702 0.52798 0.87628 0.0
Cd268 Cd 0.67311 0.49647 0.88143 0.0
O269 O 0.65304 0.52556 0.87875 0.0
O270 O 0.73365 0.54111 0.86011 0.0
O271 O 0.7179 0.50804 0.85081 0.0
C272 C 0.73309 0.52351 0.84696 0.0
C273 C 0.65815 0.46372 0.86457 0.0
C274 C 0.65943 0.54558 0.8735 0.0
C275 C 0.70776 0.5025 0.91953 0.0
O276 O 0.69214 0.49059 0.9105 0.0
O277 O 0.71568 0.51987 0.90939 0.0
O278 O 0.65074 0.47118 0.88378 0.0
O279 O 0.67414 0.47493 0.85449 0.0
O280 O 0.44114 0.67973 0.86034 0.0
Cd281 Cd 0.46385 0.70559 0.86823 0.0
Cd282 Cd 0.49318 0.66765 0.87706 0.0
O283 O 0.46526 0.65118 0.86419 0.0
O284 O 0.45062 0.73328 0.85386 0.0
O285 O 0.484 0.71884 0.84386 0.0
C286 C 0.46838 0.73408 0.84096 0.0
C287 C 0.52794 0.64895 0.87053 0.0
C288 C 0.44555 0.65857 0.85925 0.0
C289 C 0.48086 0.70004 0.91588 0.0
O290 O 0.49029 0.68186 0.9089 0.0
O291 O 0.47003 0.7129 0.90223 0.0
O292 O 0.51276 0.64081 0.88401 0.0
O293 O 0.52351 0.66799 0.86048 0.0
O294 O 0.68875 0.44967 0.14334 0.0
Cd295 Cd 0.71603 0.4681 0.13141 0.0
Cd296 Cd 0.68494 0.50353 0.12275 0.0
O297 O 0.66541 0.47874 0.13872 0.0
O298 O 0.74391 0.46299 0.15004 0.0
O299 O 0.72546 0.49601 0.14822 0.0
C300 C 0.7422 0.48407 0.15615 0.0
C301 C 0.66801 0.53961 0.12656 0.0
C302 C 0.66909 0.45843 0.14527 0.0
C303 C 0.71348 0.48305 0.08359 0.0
O304 O 0.69963 0.49797 0.09102 0.0
O305 O 0.72198 0.46827 0.09692 0.0
O306 O 0.65954 0.52399 0.11383 0.0
O307 O 0.68678 0.53513 0.13706 0.0
O308 O 0.55775 0.68521 0.12779 0.0
Cd309 Cd 0.52902 0.70555 0.12513 0.0
Cd310 Cd 0.50492 0.66614 0.12029 0.0
O311 O 0.53707 0.65391 0.12687 0.0
O312 O 0.53267 0.73438 0.14251 0.0
O313 O 0.50904 0.7066 0.15267 0.0
C314 C 0.51783 0.72639 0.15664 0.0
C315 C 0.4755 0.6438 0.13522 0.0
C316 C 0.55632 0.66363 0.1286 0.0
C317 C 0.50494 0.69907 0.08077 0.0
O318 O 0.4992 0.67969 0.08849 0.0
O319 O 0.51633 0.71282 0.093 0.0
O320 O 0.48827 0.63668 0.11896 0.0
O321 O 0.47903 0.66397 0.14315 0.0
O322 O 0.45666 0.32002 0.13077 0.0
Cd323 Cd 0.48349 0.29818 0.12457 0.0
Cd324 Cd 0.51029 0.33783 0.13139 0.0
O325 O 0.47815 0.34966 0.13912 0.0
O326 O 0.47278 0.26741 0.13377 0.0
O327 O 0.50109 0.28557 0.15102 0.0
C328 C 0.48776 0.26807 0.14985 0.0
C329 C 0.53963 0.3593 0.14809 0.0
C330 C 0.45861 0.34061 0.13703 0.0
C331 C 0.51073 0.31354 0.08489 0.0
O332 O 0.51698 0.32959 0.09798 0.0
O333 O 0.49733 0.29809 0.09206 0.0
O334 O 0.52605 0.3678 0.13324 0.0
O335 O 0.53682 0.33831 0.15385 0.0
H336 H 0.12351 0.41873 0.34896 0.0
H337 H 0.19098 0.44761 0.35602 0.0
H338 H 0.2004 0.41856 0.3851 0.0
H339 H 0.11455 0.41331 0.40572 0.0
H340 H 0.09811 0.38743 0.40446 0.0
H341 H 0.09869 0.40627 0.3804 0.0
H342 H 0.11272 0.37329 0.35464 0.0
H343 H 0.11211 0.35424 0.37872 0.0
H344 H 0.13793 0.35759 0.36246 0.0
H345 H 0.2007 0.38967 0.41675 0.0
H346 H 0.1905 0.36657 0.45065 0.0
H347 H 0.12177 0.35941 0.42507 0.0
C348 C 0.14057 0.41827 0.35596 0.0
C349 C 0.15675 0.43493 0.34994 0.0
C350 C 0.17853 0.43466 0.36021 0.0
C351 C 0.18403 0.41818 0.37664 0.0
C352 C 0.16743 0.40233 0.38277 0.0
C353 C 0.14606 0.40237 0.37282 0.0
C354 C 0.13 0.38631 0.38498 0.0
C355 C 0.10913 0.3991 0.39445 0.0
C356 C 0.12277 0.36669 0.36926 0.0
C357 C 0.14535 0.3779 0.40387 0.0
C358 C 0.16711 0.3867 0.4019 0.0
C359 C 0.18385 0.38238 0.41824 0.0
C360 C 0.17799 0.36923 0.43736 0.0
C361 C 0.15552 0.36112 0.44006 0.0
C362 C 0.13918 0.36515 0.42299 0.0
H363 H 0.61222 0.13257 0.46039 0.0
H364 H 0.6775 0.14773 0.42946 0.0
H365 H 0.65821 0.1545 0.39241 0.0
H366 H 0.58914 0.10212 0.41577 0.0
H367 H 0.5606 0.11288 0.41931 0.0
H368 H 0.57949 0.11158 0.44333 0.0
H369 H 0.57354 0.15476 0.45052 0.0
H370 H 0.55455 0.15617 0.42646 0.0
H371 H 0.57894 0.17476 0.42786 0.0
H372 H 0.63138 0.15485 0.35765 0.0
H373 H 0.60001 0.15047 0.32967 0.0
H374 H 0.55304 0.1371 0.38516 0.0
C375 C 0.62246 0.13763 0.44591 0.0
C376 C 0.64631 0.13953 0.44767 0.0
C377 C 0.65914 0.14628 0.42841 0.0
C378 C 0.64833 0.15014 0.40734 0.0
C379 C 0.6247 0.14763 0.40609 0.0
C380 C 0.61197 0.14187 0.42505 0.0
C381 C 0.58704 0.13928 0.41938 0.0
C382 C 0.57859 0.11503 0.42476 0.0
C383 C 0.57268 0.15732 0.43179 0.0
C384 C 0.58771 0.14367 0.39408 0.0
C385 C 0.60947 0.14857 0.38658 0.0
C386 C 0.61422 0.15145 0.36344 0.0
C387 C 0.59631 0.14892 0.34766 0.0
C388 C 0.574 0.14358 0.35516 0.0
C389 C 0.56977 0.14146 0.37874 0.0
H390 H 0.85941 0.6514 0.42662 0.0
H391 H 0.81241 0.61482 0.46994 0.0
H392 H 0.80378 0.58835 0.43845 0.0
H393 H 0.82917 0.63968 0.3694 0.0
H394 H 0.85623 0.63596 0.35538 0.0
H395 H 0.85356 0.65588 0.3786 0.0
H396 H 0.88662 0.63554 0.39954 0.0
H397 H 0.88918 0.61543 0.37668 0.0
H398 H 0.88451 0.60545 0.40533 0.0
H399 H 0.80689 0.56142 0.4066 0.0
H400 H 0.82083 0.53613 0.37616 0.0
H401 H 0.86645 0.58929 0.35278 0.0
C402 C 0.84632 0.63861 0.42887 0.0
C403 C 0.8359 0.63546 0.45026 0.0
C404 C 0.81994 0.61777 0.45336 0.0
C405 C 0.81499 0.60268 0.43558 0.0
C406 C 0.82631 0.60549 0.41489 0.0
C407 C 0.8415 0.62316 0.41132 0.0
C408 C 0.85421 0.62011 0.38903 0.0
C409 C 0.84791 0.63903 0.3721 0.0
C410 C 0.88015 0.61906 0.3929 0.0
C411 C 0.84485 0.59731 0.38138 0.0
C412 C 0.82841 0.58945 0.3963 0.0
C413 C 0.81925 0.56764 0.39444 0.0
C414 C 0.82738 0.55334 0.37718 0.0
C415 C 0.84454 0.56086 0.362 0.0
C416 C 0.8529 0.58334 0.36378 0.0
H417 H 0.38024 0.88383 0.45606 0.0
H418 H 0.32158 0.85113 0.42542 0.0
H419 H 0.34414 0.84386 0.39038 0.0
H420 H 0.40077 0.91157 0.40712 0.0
H421 H 0.43038 0.90703 0.41381 0.0
H422 H 0.40972 0.9088 0.43636 0.0
H423 H 0.42255 0.86933 0.45146 0.0
H424 H 0.44335 0.86748 0.42899 0.0
H425 H 0.42256 0.84518 0.43251 0.0
H426 H 0.37303 0.84339 0.35734 0.0
H427 H 0.4061 0.84659 0.33117 0.0
H428 H 0.44562 0.87743 0.38538 0.0
C429 C 0.37214 0.87501 0.44203 0.0
C430 C 0.34915 0.86816 0.44333 0.0
C431 C 0.33922 0.85646 0.42474 0.0
C432 C 0.35188 0.85234 0.40479 0.0
C433 C 0.3745 0.85967 0.40397 0.0
C434 C 0.38457 0.87043 0.42231 0.0
C435 C 0.40907 0.87661 0.41744 0.0
C436 C 0.41268 0.90254 0.41875 0.0
C437 C 0.42534 0.86388 0.43355 0.0
C438 C 0.41121 0.86805 0.39329 0.0
C439 C 0.39114 0.85844 0.38564 0.0
C440 C 0.38891 0.85056 0.36332 0.0
C441 C 0.40772 0.8525 0.34855 0.0
C442 C 0.4285 0.86198 0.35632 0.0
C443 C 0.43013 0.8697 0.37902 0.0
H444 H 0.13513 0.54768 0.61484 0.0
H445 H 0.13945 0.5981 0.66869 0.0
H446 H 0.14336 0.62848 0.63966 0.0
H447 H 0.17489 0.57459 0.57532 0.0
H448 H 0.15823 0.56659 0.55083 0.0
H449 H 0.15801 0.54896 0.57594 0.0
H450 H 0.11398 0.55195 0.57771 0.0
H451 H 0.11406 0.56959 0.55268 0.0
H452 H 0.10078 0.57967 0.57845 0.0
H453 H 0.14436 0.65358 0.604 0.0
H454 H 0.14121 0.67076 0.56554 0.0
H455 H 0.13557 0.60321 0.5362 0.0
C456 C 0.13725 0.56504 0.62066 0.0
C457 C 0.13709 0.57047 0.64408 0.0
C458 C 0.13962 0.5935 0.65084 0.0
C459 C 0.14189 0.61086 0.63447 0.0
C460 C 0.14164 0.60487 0.61148 0.0
C461 C 0.13941 0.58246 0.60466 0.0
C462 C 0.13816 0.5804 0.57905 0.0
C463 C 0.15854 0.56684 0.56974 0.0
C464 C 0.1154 0.56979 0.57154 0.0
C465 C 0.13962 0.60521 0.57243 0.0
C466 C 0.14188 0.61913 0.59126 0.0
C467 C 0.14277 0.64279 0.58915 0.0
C468 C 0.141 0.6524 0.56726 0.0
C469 C 0.13814 0.63833 0.54789 0.0
C470 C 0.13778 0.61445 0.55064 0.0
H471 H 0.34547 0.10652 0.58563 0.0
H472 H 0.35288 0.17165 0.55175 0.0
H473 H 0.38122 0.1834 0.58064 0.0
H474 H 0.35302 0.12941 0.64534 0.0
H475 H 0.36796 0.10405 0.65406 0.0
H476 H 0.34604 0.10236 0.63265 0.0
H477 H 0.37473 0.08317 0.60516 0.0
H478 H 0.39681 0.08516 0.62625 0.0
H479 H 0.40105 0.09749 0.59846 0.0
H480 H 0.41431 0.1844 0.6082 0.0
H481 H 0.44491 0.17727 0.63648 0.0
H482 H 0.41314 0.11329 0.65476 0.0
C483 C 0.35248 0.12356 0.58481 0.0
C484 C 0.34698 0.13826 0.56661 0.0
C485 C 0.35665 0.16031 0.5658 0.0
C486 C 0.37285 0.16705 0.58205 0.0
C487 C 0.37865 0.15175 0.59929 0.0
C488 C 0.3682 0.13073 0.60119 0.0
C489 C 0.37814 0.11702 0.62063 0.0
C490 C 0.36022 0.11298 0.63928 0.0
C491 C 0.38828 0.09438 0.6121 0.0
C492 C 0.39656 0.13312 0.62869 0.0
C493 C 0.39669 0.15304 0.61612 0.0
C494 C 0.4139 0.16924 0.61867 0.0
C495 C 0.43125 0.16502 0.6346 0.0
C496 C 0.43095 0.14502 0.64798 0.0
C497 C 0.41328 0.12904 0.64514 0.0
H498 H 0.86182 0.44957 0.61009 0.0
H499 H 0.84826 0.40255 0.6655 0.0
H500 H 0.84224 0.37159 0.63753 0.0
H501 H 0.82125 0.42552 0.56911 0.0
H502 H 0.8402 0.4304 0.54546 0.0
H503 H 0.84091 0.44908 0.56978 0.0
H504 H 0.88411 0.44125 0.57458 0.0
H505 H 0.88354 0.42258 0.55034 0.0
H506 H 0.89395 0.4123 0.57732 0.0
H507 H 0.84095 0.34501 0.60302 0.0
H508 H 0.84543 0.32563 0.56577 0.0
H509 H 0.85995 0.39074 0.53402 0.0
C510 C 0.85721 0.43288 0.61644 0.0
C511 C 0.85545 0.42854 0.64003 0.0
C512 C 0.84962 0.40634 0.64751 0.0
C513 C 0.84612 0.38865 0.63174 0.0
C514 C 0.84839 0.39349 0.60859 0.0
C515 C 0.85372 0.41514 0.60103 0.0
C516 C 0.85676 0.4158 0.5755 0.0
C517 C 0.8387 0.43111 0.56431 0.0
C518 C 0.88103 0.42342 0.56908 0.0
C519 C 0.85285 0.39103 0.56982 0.0
C520 C 0.84777 0.37838 0.589 0.0
C521 C 0.84465 0.35483 0.58787 0.0
C522 C 0.84718 0.34396 0.56666 0.0
C523 C 0.85298 0.35667 0.54699 0.0
C524 C 0.85539 0.38052 0.54868 0.0
H525 H 0.58452 0.86405 0.64982 0.0
H526 H 0.52369 0.84651 0.61174 0.0
H527 H 0.54702 0.83949 0.57764 0.0
H528 H 0.60945 0.89556 0.60759 0.0
H529 H 0.63846 0.88703 0.6129 0.0
H530 H 0.61796 0.88634 0.63562 0.0
H531 H 0.62677 0.84369 0.6426 0.0
H532 H 0.64746 0.84426 0.6199 0.0
H533 H 0.62462 0.82378 0.61934 0.0
H534 H 0.57492 0.8406 0.5467 0.0
H535 H 0.60639 0.84939 0.52032 0.0
H536 H 0.65016 0.86571 0.5774 0.0
C537 C 0.57628 0.85796 0.6345 0.0
C538 C 0.55234 0.85562 0.63343 0.0
C539 C 0.54201 0.84833 0.61292 0.0
C540 C 0.55514 0.84418 0.5935 0.0
C541 C 0.5786 0.84734 0.59484 0.0
C542 C 0.58918 0.85393 0.6148 0.0
C543 C 0.6143 0.85864 0.61082 0.0
C544 C 0.62038 0.88336 0.6171 0.0
C545 C 0.62917 0.84157 0.62395 0.0
C546 C 0.61588 0.85469 0.58533 0.0
C547 C 0.5951 0.84781 0.57662 0.0
C548 C 0.59144 0.84537 0.55334 0.0
C549 C 0.60934 0.85044 0.5385 0.0
C550 C 0.63064 0.85771 0.54699 0.0
C551 C 0.63417 0.85944 0.57068 0.0
H552 H 0.35778 0.13798 0.42473 0.0
H553 H 0.38837 0.10509 0.48359 0.0
H554 H 0.42459 0.10182 0.46299 0.0
H555 H 0.38572 0.10404 0.38261 0.0
H556 H 0.38994 0.12706 0.36276 0.0
H557 H 0.36627 0.1278 0.38225 0.0
H558 H 0.37971 0.167 0.3973 0.0
H559 H 0.40342 0.16641 0.37782 0.0
H560 H 0.40836 0.17009 0.40788 0.0
H561 H 0.45674 0.10042 0.43634 0.0
H562 H 0.48409 0.10164 0.40476 0.0
H563 H 0.434 0.13596 0.36245 0.0
C564 C 0.37215 0.13023 0.43332 0.0
C565 C 0.37015 0.12178 0.45582 0.0
C566 C 0.38937 0.11169 0.4664 0.0
C567 C 0.41008 0.10976 0.45485 0.0
C568 C 0.41143 0.11806 0.43272 0.0
C569 C 0.39311 0.12818 0.422 0.0
C570 C 0.39931 0.13527 0.3979 0.0
C571 C 0.38443 0.12279 0.38035 0.0
C572 C 0.3976 0.16124 0.39507 0.0
C573 C 0.42389 0.12729 0.39678 0.0
C574 C 0.4304 0.11745 0.41714 0.0
C575 C 0.45194 0.10819 0.42033 0.0
C576 C 0.46733 0.10892 0.40222 0.0
C577 C 0.46121 0.11891 0.38112 0.0
C578 C 0.4392 0.12836 0.37843 0.0
H579 H 0.88721 0.34606 0.40801 0.0
H580 H 0.81838 0.35053 0.43403 0.0
H581 H 0.80927 0.37976 0.40503 0.0
H582 H 0.89458 0.40302 0.40413 0.0
H583 H 0.91219 0.40292 0.37898 0.0
H584 H 0.9115 0.37836 0.39716 0.0
H585 H 0.89978 0.35314 0.36291 0.0
H586 H 0.90045 0.37774 0.34455 0.0
H587 H 0.87504 0.36061 0.34634 0.0
H588 H 0.80929 0.41214 0.37736 0.0
H589 H 0.81952 0.44744 0.35663 0.0
H590 H 0.88919 0.42408 0.35112 0.0
C591 C 0.86996 0.3525 0.40685 0.0
C592 C 0.85327 0.34571 0.42271 0.0
C593 C 0.83121 0.35529 0.42165 0.0
C594 C 0.8259 0.3718 0.40519 0.0
C595 C 0.84296 0.37872 0.39017 0.0
C596 C 0.86463 0.36946 0.39098 0.0
C597 C 0.88098 0.38257 0.37594 0.0
C598 C 0.90097 0.3923 0.38989 0.0
C599 C 0.88956 0.36762 0.35626 0.0
C600 C 0.86542 0.40124 0.36734 0.0
C601 C 0.84336 0.39828 0.37507 0.0
C602 C 0.82637 0.41436 0.3708 0.0
C603 C 0.83225 0.43428 0.35896 0.0
C604 C 0.85495 0.438 0.35194 0.0
C605 C 0.87158 0.42113 0.35577 0.0
H606 H 0.54167 0.86346 0.39646 0.0
H607 H 0.57142 0.84778 0.33078 0.0
H608 H 0.60909 0.84233 0.34925 0.0
H609 H 0.58568 0.89573 0.41744 0.0
H610 H 0.58344 0.88568 0.44635 0.0
H611 H 0.55879 0.88556 0.42823 0.0
H612 H 0.55335 0.84234 0.43547 0.0
H613 H 0.57794 0.84236 0.45382 0.0
H614 H 0.5766 0.82303 0.43002 0.0
H615 H 0.64459 0.84371 0.37514 0.0
H616 H 0.67322 0.84926 0.40577 0.0
H617 H 0.61852 0.86249 0.4537 0.0
C618 C 0.55601 0.85842 0.38599 0.0
C619 C 0.55373 0.85605 0.36224 0.0
C620 C 0.57284 0.84948 0.34908 0.0
C621 C 0.59427 0.84643 0.35943 0.0
C622 C 0.59607 0.84957 0.38293 0.0
C623 C 0.57725 0.85503 0.39603 0.0
C624 C 0.58352 0.85855 0.42069 0.0
C625 C 0.57751 0.88282 0.42862 0.0
C626 C 0.57218 0.84049 0.43589 0.0
C627 C 0.60894 0.85505 0.41941 0.0
C628 C 0.61603 0.84978 0.39761 0.0
C629 C 0.63913 0.84742 0.39235 0.0
C630 C 0.65528 0.85065 0.40981 0.0
C631 C 0.64817 0.8562 0.4322 0.0
C632 C 0.62465 0.85805 0.43689 0.0
H633 H 0.13188 0.65472 0.39965 0.0
H634 H 0.18647 0.63733 0.44608 0.0
H635 H 0.20032 0.60831 0.41908 0.0
H636 H 0.11726 0.60143 0.38791 0.0
H637 H 0.11003 0.60511 0.3583 0.0
H638 H 0.10852 0.62892 0.37736 0.0
H639 H 0.13591 0.65175 0.3514 0.0
H640 H 0.13743 0.62792 0.3321 0.0
H641 H 0.16317 0.63982 0.34383 0.0
H642 H 0.20268 0.57603 0.39274 0.0
H643 H 0.19288 0.54253 0.3693 0.0
H644 H 0.13678 0.57965 0.3393 0.0
C645 C 0.14743 0.64557 0.40349 0.0
C646 C 0.15841 0.64848 0.42467 0.0
C647 C 0.17805 0.63551 0.42977 0.0
C648 C 0.18608 0.61907 0.41448 0.0
C649 C 0.17426 0.61576 0.39417 0.0
C650 C 0.1554 0.62876 0.38853 0.0
C651 C 0.14336 0.61913 0.3678 0.0
C652 C 0.11834 0.61329 0.37319 0.0
C653 C 0.14508 0.63564 0.34758 0.0
C654 C 0.15744 0.59788 0.36365 0.0
C655 C 0.17559 0.59664 0.37865 0.0
C656 C 0.18908 0.57716 0.38035 0.0
C657 C 0.18345 0.55823 0.36699 0.0
C658 C 0.16463 0.55899 0.35207 0.0
C659 C 0.1519 0.57921 0.34986 0.0
H660 H 0.37022 0.88901 0.54741 0.0
H661 H 0.32003 0.85278 0.58779 0.0
H662 H 0.34788 0.84943 0.61924 0.0
H663 H 0.4196 0.85763 0.56591 0.0
H664 H 0.43768 0.88243 0.56629 0.0
H665 H 0.41401 0.88104 0.54684 0.0
H666 H 0.39837 0.919 0.56307 0.0
H667 H 0.42194 0.92047 0.58261 0.0
H668 H 0.39315 0.9215 0.59321 0.0
H669 H 0.38184 0.85007 0.64638 0.0
H670 H 0.41823 0.85596 0.66702 0.0
H671 H 0.44479 0.8931 0.60892 0.0
C672 C 0.3651 0.88017 0.56277 0.0
C673 C 0.34299 0.87102 0.56507 0.0
C674 C 0.3369 0.8599 0.58562 0.0
C675 C 0.35261 0.85788 0.60356 0.0
C676 C 0.37425 0.86725 0.60075 0.0
C677 C 0.38041 0.87827 0.58088 0.0
C678 C 0.40437 0.88757 0.5823 0.0
C679 C 0.41982 0.8765 0.56427 0.0
C680 C 0.40445 0.91368 0.58018 0.0
C681 C 0.41079 0.88005 0.60606 0.0
C682 C 0.39332 0.86821 0.61646 0.0
C683 C 0.3956 0.85939 0.63841 0.0
C684 C 0.4163 0.86279 0.65 0.0
C685 C 0.43426 0.8751 0.63965 0.0
C686 C 0.43132 0.88379 0.61741 0.0
H687 H 0.13626 0.46292 0.60814 0.0
H688 H 0.15067 0.429 0.67207 0.0
H689 H 0.15908 0.39325 0.65106 0.0
H690 H 0.10786 0.41888 0.5819 0.0
H691 H 0.11926 0.42409 0.55389 0.0
H692 H 0.11687 0.44711 0.57389 0.0
H693 H 0.15998 0.45564 0.56952 0.0
H694 H 0.16251 0.43263 0.54939 0.0
H695 H 0.18042 0.43322 0.57431 0.0
H696 H 0.16042 0.35999 0.62275 0.0
H697 H 0.15731 0.33346 0.59005 0.0
H698 H 0.14447 0.39078 0.54522 0.0
C699 C 0.14157 0.44806 0.61771 0.0
C700 C 0.14276 0.44857 0.64167 0.0
C701 C 0.14981 0.42889 0.65365 0.0
C702 C 0.15457 0.40856 0.64186 0.0
C703 C 0.1527 0.4085 0.61815 0.0
C704 C 0.14676 0.42794 0.60624 0.0
C705 C 0.14497 0.42348 0.58099 0.0
C706 C 0.12081 0.42869 0.57217 0.0
C707 C 0.16305 0.43705 0.56778 0.0
C708 C 0.14999 0.39828 0.58049 0.0
C709 C 0.15445 0.38982 0.602 0.0
C710 C 0.15747 0.36654 0.60578 0.0
C711 C 0.15563 0.3516 0.58713 0.0
C712 C 0.15097 0.36006 0.56502 0.0
C713 C 0.14858 0.38375 0.56177 0.0
H714 H 0.5425 0.13648 0.60943 0.0
H715 H 0.57286 0.16026 0.67236 0.0
H716 H 0.6098 0.16535 0.65243 0.0
H717 H 0.58812 0.10421 0.59063 0.0
H718 H 0.58459 0.1111 0.56094 0.0
H719 H 0.56041 0.11166 0.5797 0.0
H720 H 0.55217 0.1535 0.56825 0.0
H721 H 0.5763 0.15304 0.5493 0.0
H722 H 0.5743 0.17459 0.57106 0.0
H723 H 0.64461 0.16339 0.62586 0.0
H724 H 0.67284 0.15677 0.59513 0.0
H725 H 0.6182 0.13567 0.55009 0.0
C726 C 0.5568 0.14313 0.61898 0.0
C727 C 0.55486 0.14796 0.64243 0.0
C728 C 0.57397 0.15661 0.65432 0.0
C729 C 0.595 0.15949 0.64315 0.0
C730 C 0.59645 0.15399 0.62005 0.0
C731 C 0.57768 0.14632 0.60809 0.0
C732 C 0.5836 0.14068 0.58371 0.0
C733 C 0.57891 0.11542 0.57846 0.0
C734 C 0.57084 0.1564 0.5671 0.0
C735 C 0.60882 0.14573 0.58386 0.0
C736 C 0.61604 0.15345 0.60488 0.0
C737 C 0.63903 0.15772 0.60925 0.0
C738 C 0.65495 0.15387 0.59172 0.0
C739 C 0.64776 0.14589 0.57011 0.0
C740 C 0.62432 0.1421 0.56625 0.0
H741 H 0.89571 0.5619 0.63572 0.0
H742 H 0.8244 0.54753 0.64802 0.0
H743 H 0.81375 0.58254 0.62688 0.0
H744 H 0.89026 0.62536 0.6408 0.0
H745 H 0.91144 0.62996 0.61907 0.0
H746 H 0.91319 0.60525 0.6372 0.0
H747 H 0.91391 0.57918 0.60161 0.0
H748 H 0.91208 0.60372 0.58342 0.0
H749 H 0.89126 0.5813 0.58098 0.0
H750 H 0.81125 0.61473 0.59827 0.0
H751 H 0.81717 0.64413 0.5685 0.0
H752 H 0.89003 0.64002 0.57888 0.0
C753 C 0.87788 0.56646 0.63437 0.0
C754 C 0.86081 0.55215 0.64334 0.0
C755 C 0.83766 0.55847 0.64134 0.0
C756 C 0.8315 0.57826 0.62936 0.0
C757 C 0.84877 0.59179 0.6202 0.0
C758 C 0.87152 0.58643 0.62311 0.0
C759 C 0.88681 0.60321 0.61094 0.0
C760 C 0.90128 0.61675 0.62803 0.0
C761 C 0.90188 0.59113 0.59318 0.0
C762 C 0.86914 0.61822 0.59972 0.0
C763 C 0.84727 0.61138 0.60521 0.0
C764 C 0.82824 0.62078 0.59449 0.0
C765 C 0.83172 0.63739 0.57763 0.0
C766 C 0.85397 0.6447 0.57209 0.0
C767 C 0.87282 0.63532 0.58358 0.0
H768 H 0.39075 0.45648 0.12741 0.0
H769 H 0.32815 0.41998 0.14131 0.0
H770 H 0.35041 0.38437 0.14709 0.0
H771 H 0.4189 0.41396 0.09672 0.0
H772 H 0.44657 0.42005 0.10852 0.0
H773 H 0.42559 0.44228 0.10651 0.0
H774 H 0.4293 0.44987 0.14985 0.0
H775 H 0.45035 0.42765 0.15199 0.0
H776 H 0.42526 0.42676 0.16965 0.0
H777 H 0.38019 0.35206 0.14736 0.0
H778 H 0.41434 0.32719 0.14534 0.0
H779 H 0.45664 0.38668 0.13415 0.0
C780 C 0.3817 0.44101 0.13179 0.0
C781 C 0.35779 0.44079 0.1337 0.0
C782 C 0.34653 0.42038 0.13977 0.0
C783 C 0.35902 0.40015 0.14304 0.0
C784 C 0.3827 0.40092 0.14068 0.0
C785 C 0.39387 0.421 0.13557 0.0
C786 C 0.4193 0.41766 0.13391 0.0
C787 C 0.42809 0.42385 0.10999 0.0
C788 C 0.43178 0.43129 0.15246 0.0
C789 C 0.42082 0.3924 0.13827 0.0
C790 C 0.39961 0.38289 0.14206 0.0
C791 C 0.39689 0.35943 0.14484 0.0
C792 C 0.41634 0.34544 0.14361 0.0
C793 C 0.43816 0.35504 0.13992 0.0
C794 C 0.44029 0.37884 0.1375 0.0
H795 H 0.44726 0.61276 0.86558 0.0
H796 H 0.40244 0.66671 0.84227 0.0
H797 H 0.3714 0.63852 0.83734 0.0
H798 H 0.42495 0.56669 0.82955 0.0
H799 H 0.42801 0.54601 0.85202 0.0
H800 H 0.44723 0.56987 0.85041 0.0
H801 H 0.43681 0.58106 0.89184 0.0
H802 H 0.41756 0.55735 0.89356 0.0
H803 H 0.40737 0.58575 0.89921 0.0
H804 H 0.34446 0.60415 0.83767 0.0
H805 H 0.32399 0.56805 0.84583 0.0
H806 H 0.38679 0.53834 0.87081 0.0
C807 C 0.43111 0.61868 0.85891 0.0
C808 C 0.42735 0.64192 0.85409 0.0
C809 C 0.40575 0.64894 0.84593 0.0
C810 C 0.38806 0.63304 0.84301 0.0
C811 C 0.39229 0.61027 0.84839 0.0
C812 C 0.41334 0.6032 0.85622 0.0
C813 C 0.41317 0.5784 0.86301 0.0
C814 C 0.42929 0.56442 0.84784 0.0
C815 C 0.41906 0.57549 0.8884 0.0
C816 C 0.38858 0.57264 0.85832 0.0
C817 C 0.37681 0.59101 0.84945 0.0
C818 C 0.35359 0.58965 0.84447 0.0
C819 C 0.34211 0.56912 0.84909 0.0
C820 C 0.35385 0.55055 0.85901 0.0
C821 C 0.37739 0.55232 0.86328 0.0
H822 H 0.46021 0.39727 0.8706 0.0
H823 H 0.43222 0.33047 0.85603 0.0
H824 H 0.39368 0.34748 0.85297 0.0
H825 H 0.41571 0.41655 0.90542 0.0
H826 H 0.41678 0.4455 0.89529 0.0
H827 H 0.44205 0.42818 0.89475 0.0
H828 H 0.44645 0.43568 0.85145 0.0
H829 H 0.4212 0.45311 0.85189 0.0
H830 H 0.42309 0.42934 0.83258 0.0
H831 H 0.35769 0.37204 0.85418 0.0
H832 H 0.32805 0.40175 0.85858 0.0
H833 H 0.38075 0.45188 0.87175 0.0
C834 C 0.44605 0.38618 0.86653 0.0
C835 C 0.4492 0.36254 0.86357 0.0
C836 C 0.43019 0.34866 0.85829 0.0
C837 C 0.40826 0.35817 0.85654 0.0
C838 C 0.40575 0.38156 0.85991 0.0
C839 C 0.42422 0.39536 0.86462 0.0
C840 C 0.41712 0.41982 0.86821 0.0
C841 C 0.42328 0.42798 0.89235 0.0
C842 C 0.42759 0.4354 0.84994 0.0
C843 C 0.39167 0.41767 0.86522 0.0
C844 C 0.38534 0.39554 0.86035 0.0
C845 C 0.36251 0.38946 0.85777 0.0
C846 C 0.3458 0.40643 0.86033 0.0
C847 C 0.35203 0.42918 0.86543 0.0
C848 C 0.37533 0.43473 0.86768 0.0
H849 H 0.65158 0.42347 0.88581 0.0
H850 H 0.64092 0.45829 0.82174 0.0
H851 H 0.61693 0.4262 0.80834 0.0
H852 H 0.6522 0.36369 0.86078 0.0
H853 H 0.63814 0.35245 0.88564 0.0
H854 H 0.65733 0.37627 0.8883 0.0
H855 H 0.62542 0.39967 0.90787 0.0
H856 H 0.60618 0.37609 0.90517 0.0
H857 H 0.59855 0.40343 0.89349 0.0
H858 H 0.58726 0.39511 0.80629 0.0
H859 H 0.55823 0.36538 0.81378 0.0
H860 H 0.5919 0.34838 0.87707 0.0
C861 C 0.64482 0.42387 0.86865 0.0
C862 C 0.64805 0.44309 0.85467 0.0
C863 C 0.63881 0.44344 0.83247 0.0
C864 C 0.62516 0.42533 0.8248 0.0
C865 C 0.62165 0.40682 0.83932 0.0
C866 C 0.63179 0.40569 0.86055 0.0
C867 C 0.62416 0.38481 0.87357 0.0
C868 C 0.64415 0.36833 0.87728 0.0
C869 C 0.61291 0.39141 0.89635 0.0
C870 C 0.60703 0.37508 0.85701 0.0
C871 C 0.60581 0.38794 0.83728 0.0
C872 C 0.5887 0.38435 0.82118 0.0
C873 C 0.57229 0.36748 0.82553 0.0
C874 C 0.57345 0.35418 0.84556 0.0
C875 C 0.59136 0.35764 0.86112 0.0
H876 H 0.61424 0.54535 0.88562 0.0
H877 H 0.66616 0.58737 0.8539 0.0
H878 H 0.63791 0.61801 0.84832 0.0
H879 H 0.56725 0.56296 0.84997 0.0
H880 H 0.54697 0.56281 0.87301 0.0
H881 H 0.57109 0.54387 0.87371 0.0
H882 H 0.58291 0.56019 0.91297 0.0
H883 H 0.55881 0.57913 0.91241 0.0
H884 H 0.58711 0.59044 0.91607 0.0
H885 H 0.60377 0.64427 0.84626 0.0
H886 H 0.56695 0.66458 0.84985 0.0
H887 H 0.53812 0.60565 0.8839 0.0
C888 C 0.61966 0.56093 0.87738 0.0
C889 C 0.64241 0.5639 0.87013 0.0
C890 C 0.64883 0.58468 0.85963 0.0
C891 C 0.6329 0.60218 0.85631 0.0
C892 C 0.61063 0.59871 0.86368 0.0
C893 C 0.60405 0.57864 0.87412 0.0
C894 C 0.5793 0.57949 0.88122 0.0
C895 C 0.56533 0.5612 0.86872 0.0
C896 C 0.57691 0.57718 0.90721 0.0
C897 C 0.57301 0.60317 0.87324 0.0
C898 C 0.59122 0.61395 0.86298 0.0
C899 C 0.58939 0.636 0.85429 0.0
C900 C 0.56843 0.64738 0.85635 0.0
C901 C 0.54972 0.63674 0.8672 0.0
C902 C 0.55213 0.6143 0.87559 0.0
H903 H 0.62366 0.5475 0.117 0.0
H904 H 0.68438 0.58077 0.14263 0.0
H905 H 0.66276 0.61703 0.1461 0.0
H906 H 0.60216 0.59342 0.08408 0.0
H907 H 0.57287 0.58746 0.09105 0.0
H908 H 0.59342 0.56473 0.0906 0.0
H909 H 0.58284 0.55418 0.13217 0.0
H910 H 0.56223 0.57687 0.13274 0.0
H911 H 0.5843 0.57568 0.15402 0.0
H912 H 0.63356 0.65028 0.14514 0.0
H913 H 0.59986 0.67575 0.14221 0.0
H914 H 0.55928 0.61862 0.11886 0.0
C915 C 0.63253 0.56239 0.12328 0.0
C916 C 0.65574 0.56142 0.12935 0.0
C917 C 0.66658 0.58121 0.13784 0.0
C918 C 0.65445 0.60184 0.13981 0.0
C919 C 0.6315 0.60218 0.1335 0.0
C920 C 0.6207 0.58281 0.12562 0.0
C921 C 0.59593 0.5871 0.12038 0.0
C922 C 0.59081 0.58294 0.09502 0.0
C923 C 0.58042 0.5726 0.13575 0.0
C924 C 0.59433 0.61202 0.12631 0.0
C925 C 0.61493 0.62064 0.13372 0.0
C926 C 0.61734 0.64359 0.13951 0.0
C927 C 0.59816 0.65794 0.13776 0.0
C928 C 0.57689 0.64915 0.13051 0.0
C929 C 0.57517 0.62589 0.12475 0.0
H930 H 0.3522 0.58994 0.13825 0.0
H931 H 0.38536 0.52735 0.15933 0.0
H932 H 0.42095 0.54838 0.16609 0.0
H933 H 0.39679 0.61031 0.10673 0.0
H934 H 0.39344 0.63997 0.11388 0.0
H935 H 0.36928 0.62122 0.11493 0.0
H936 H 0.36215 0.6324 0.15699 0.0
H937 H 0.38633 0.65131 0.15605 0.0
H938 H 0.3848 0.62941 0.1775 0.0
H939 H 0.45403 0.57383 0.16421 0.0
H940 H 0.48281 0.60284 0.1543 0.0
H941 H 0.42926 0.64986 0.1353 0.0
C942 C 0.36675 0.58088 0.14506 0.0
C943 C 0.36599 0.55706 0.14844 0.0
C944 C 0.38556 0.54561 0.15667 0.0
C945 C 0.40583 0.55743 0.16069 0.0
C946 C 0.40631 0.58075 0.15649 0.0
C947 C 0.38729 0.59246 0.149 0.0
C948 C 0.39322 0.61698 0.14332 0.0
C949 C 0.38787 0.62242 0.11823 0.0
C950 C 0.38089 0.6335 0.15943 0.0
C951 C 0.41868 0.61685 0.14777 0.0
C952 C 0.42574 0.59582 0.1557 0.0
C953 C 0.44869 0.59057 0.15866 0.0
C954 C 0.4649 0.60708 0.15299 0.0
C955 C 0.45808 0.6286 0.14468 0.0
C956 C 0.43472 0.63376 0.14246 0.0
H957 H 0.66265 0.41212 0.14275 0.0
H958 H 0.63147 0.47461 0.16678 0.0
H959 H 0.59673 0.45345 0.17697 0.0
H960 H 0.61553 0.39206 0.11534 0.0
H961 H 0.61954 0.36233 0.12187 0.0
H962 H 0.64367 0.38111 0.12097 0.0
H963 H 0.65447 0.36945 0.16212 0.0
H964 H 0.63028 0.35056 0.16314 0.0
H965 H 0.63373 0.37223 0.18459 0.0
H966 H 0.56365 0.42789 0.17812 0.0
H967 H 0.534 0.39933 0.1697 0.0
H968 H 0.58561 0.35254 0.14553 0.0
C969 C 0.64879 0.42112 0.15093 0.0
C970 C 0.6498 0.44495 0.15421 0.0
C971 C 0.63107 0.45635 0.16422 0.0
C972 C 0.61131 0.44444 0.1702 0.0
C973 C 0.61051 0.4211 0.16611 0.0
C974 C 0.62875 0.40947 0.15679 0.0
C975 C 0.62233 0.38501 0.15141 0.0
C976 C 0.62544 0.37984 0.12589 0.0
C977 C 0.63602 0.36833 0.1662 0.0
C978 C 0.59736 0.38508 0.15811 0.0
C979 C 0.59107 0.40599 0.16697 0.0
C980 C 0.56845 0.41123 0.17188 0.0
C981 C 0.55174 0.39495 0.16707 0.0
C982 C 0.55773 0.37365 0.15765 0.0
C983 C 0.58084 0.3684 0.15364 0.0
H984 H 0.05421 0.28124 0.50138 0.0
H985 H 0.06431 0.35444 0.50439 0.0
H986 H 0.0231 0.36048 0.50117 0.0
H987 H 0.0097 0.28351 0.45907 0.0
H988 H 0.99328 0.26045 0.47095 0.0
H989 H 0.02369 0.26124 0.47493 0.0
H990 H 0.01813 0.25901 0.51861 0.0
H991 H 0.98769 0.25819 0.51476 0.0
H992 H 1.00031 0.27971 0.53263 0.0
H993 H 0.98177 0.35939 0.49791 0.0
H994 H 0.94122 0.35131 0.49215 0.0
H995 H 0.95604 0.27886 0.48866 0.0
C996 C 0.04761 0.29846 0.50154 0.0
C997 C 0.06243 0.31739 0.50317 0.0
C998 C 0.05328 0.33971 0.50302 0.0
C999 C 0.02988 0.34334 0.50131 0.0
C1000 C 0.01573 0.3245 0.49949 0.0
C1001 C 0.02406 0.30248 0.49937 0.0
C1002 C 0.00478 0.28552 0.49602 0.0
C1003 C 0.00806 0.27188 0.47393 0.0
C1004 C 0.0026 0.26967 0.51675 0.0
C1005 C 0.98449 0.30156 0.49428 0.0
C1006 C 0.99137 0.32391 0.49663 0.0
C1007 C 0.97609 0.34197 0.49599 0.0
C1008 C 0.95305 0.33716 0.49276 0.0
C1009 C 0.94539 0.31446 0.48992 0.0
C1010 C 0.96139 0.29639 0.49067 0.0
H1011 H 0.67338 0.04719 0.51135 0.0
H1012 H 0.7457 0.06135 0.51584 0.0
H1013 H 0.75402 0.02034 0.50973 0.0
H1014 H 0.67558 0.99371 0.5419 0.0
H1015 H 0.65356 0.98093 0.52478 0.0
H1016 H 0.65376 0.01125 0.52929 0.0
H1017 H 0.65369 0.01774 0.48562 0.0
H1018 H 0.65365 0.98744 0.48097 0.0
H1019 H 0.67561 0.00483 0.46842 0.0
H1020 H 0.75393 0.97765 0.50027 0.0
H1021 H 0.7454 0.93683 0.4932 0.0
H1022 H 0.67316 0.95131 0.49819 0.0
C1023 C 0.69099 0.04166 0.5111 0.0
C1024 C 0.70893 0.05737 0.51387 0.0
C1025 C 0.73173 0.04949 0.51378 0.0
C1026 C 0.73658 0.0263 0.51022 0.0
C1027 C 0.71842 0.01126 0.50724 0.0
C1028 C 0.69607 0.01864 0.50809 0.0
C1029 C 0.67953 0.99915 0.50515 0.0
C1030 C 0.66474 0.99608 0.52656 0.0
C1031 C 0.66475 0.0025 0.48377 0.0
C1032 C 0.696 0.9796 0.50222 0.0
C1033 C 0.71837 0.98685 0.50316 0.0
C1034 C 0.73647 0.97178 0.49981 0.0
C1035 C 0.7315 0.9487 0.49571 0.0
C1036 C 0.70866 0.94096 0.49542 0.0
C1037 C 0.6908 0.95669 0.49868 0.0
H1038 H 0.94838 0.7117 0.50122 0.0
H1039 H 0.93236 0.64146 0.48435 0.0
H1040 H 0.97233 0.63485 0.4738 0.0
H1041 H 0.99003 0.72006 0.45509 0.0
H1042 H 0.0085 0.73751 0.47229 0.0
H1043 H 0.97826 0.73732 0.47759 0.0
H1044 H 0.98562 0.72613 0.51962 0.0
H1045 H 0.01585 0.72628 0.51446 0.0
H1046 H 0.00238 0.70116 0.52586 0.0
H1047 H 0.01408 0.6345 0.46842 0.0
H1048 H 0.0555 0.64117 0.46636 0.0
H1049 H 0.0451 0.71206 0.48434 0.0
C1050 C 0.95325 0.695 0.49511 0.0
C1051 C 0.93716 0.6771 0.49366 0.0
C1052 C 0.94427 0.65549 0.48558 0.0
C1053 C 0.96697 0.65153 0.47953 0.0
C1054 C 0.98239 0.6694 0.48135 0.0
C1055 C 0.97589 0.69078 0.48871 0.0
C1056 C 0.99615 0.70682 0.48947 0.0
C1057 C 0.99305 0.7266 0.4726 0.0
C1058 C 1.00023 0.71561 0.5138 0.0
C1059 C 0.01508 0.69092 0.48189 0.0
C1060 C 0.00667 0.66941 0.47735 0.0
C1061 C 0.02086 0.65134 0.47156 0.0
C1062 C 0.04434 0.65527 0.4705 0.0
C1063 C 0.05338 0.67715 0.47493 0.0
C1064 C 0.03853 0.69529 0.48041 0.0
H1065 H 0.28164 0.05324 0.5282 0.0
H1066 H 0.26708 0.06299 0.4564 0.0
H1067 H 0.25765 0.02228 0.45288 0.0
H1068 H 0.30996 0.00372 0.52327 0.0
H1069 H 0.29926 0.99024 0.54868 0.0
H1070 H 0.30021 0.02074 0.54688 0.0
H1071 H 0.25701 0.02298 0.55553 0.0
H1072 H 0.25593 0.99236 0.5576 0.0
H1073 H 0.23723 0.00712 0.53823 0.0
H1074 H 0.25858 0.97998 0.45507 0.0
H1075 H 0.26608 0.93946 0.46391 0.0
H1076 H 0.27728 0.95678 0.53465 0.0
C1077 C 0.27568 0.04699 0.51192 0.0
C1078 C 0.27511 0.06135 0.49258 0.0
C1079 C 0.26752 0.05242 0.47151 0.0
C1080 C 0.26211 0.02927 0.46933 0.0
C1081 C 0.26389 0.01536 0.48848 0.0
C1082 C 0.27 0.02397 0.50951 0.0
C1083 C 0.27277 0.00508 0.52689 0.0
C1084 C 0.29698 0.00495 0.537 0.0
C1085 C 0.25465 0.007 0.54568 0.0
C1086 C 0.26861 0.98443 0.51204 0.0
C1087 C 0.26331 0.99074 0.48996 0.0
C1088 C 0.26186 0.97478 0.47244 0.0
C1089 C 0.26621 0.95186 0.47756 0.0
C1090 C 0.27158 0.94513 0.50002 0.0
C1091 C 0.2723 0.96151 0.51754 0.0
H1092 H 0.5008 0.95063 0.33153 0.0
H1093 H 0.49654 0.93482 0.25954 0.0
H1094 H 0.50407 0.9754 0.25032 0.0
H1095 H 0.47153 0.00353 0.32809 0.0
H1096 H 0.48855 0.01683 0.34988 0.0
H1097 H 0.48415 0.98651 0.35032 0.0
H1098 H 0.52786 0.9801 0.35056 0.0
H1099 H 0.53239 0.01042 0.35006 0.0
H1100 H 0.54509 0.99268 0.32848 0.0
H1101 H 0.51299 0.0184 0.24956 0.0
H1102 H 0.51848 0.05964 0.25742 0.0
H1103 H 0.51417 0.04605 0.32985 0.0
C1104 C 0.50164 0.95561 0.31379 0.0
C1105 C 0.49834 0.93958 0.29622 0.0
C1106 C 0.49909 0.94688 0.27325 0.0
C1107 C 0.50344 0.96984 0.26787 0.0
C1108 C 0.50668 0.98522 0.2857 0.0
C1109 C 0.50553 0.97835 0.30819 0.0
C1110 C 0.50834 0.99814 0.32435 0.0
C1111 C 0.48686 0.00144 0.33901 0.0
C1112 C 0.52969 0.99515 0.33923 0.0
C1113 C 0.51127 0.01733 0.3075 0.0
C1114 C 0.51062 0.00966 0.28527 0.0
C1115 C 0.51339 0.02456 0.26692 0.0
C1116 C 0.51658 0.04789 0.2715 0.0
C1117 C 0.51652 0.05598 0.2942 0.0
C1118 C 0.514 0.04039 0.3123 0.0
H1119 H 0.95553 0.51034 0.28776 0.0
H1120 H 0.94415 0.51152 0.36076 0.0
H1121 H 0.98558 0.5103 0.36734 0.0
H1122 H 0.0015 0.46996 0.29005 0.0
H1123 H 0.01745 0.48274 0.26715 0.0
H1124 H 0.9869 0.48541 0.26788 0.0
H1125 H 0.9906 0.52933 0.26604 0.0
H1126 H 0.02118 0.52679 0.26534 0.0
H1127 H 0.00769 0.54391 0.28695 0.0
H1128 H 0.02769 0.50939 0.36634 0.0
H1129 H 0.06853 0.50502 0.35802 0.0
H1130 H 0.05347 0.50139 0.28571 0.0
C1131 C 0.96187 0.51055 0.30508 0.0
C1132 C 0.94672 0.51118 0.32378 0.0
C1133 C 0.95551 0.511 0.34622 0.0
C1134 C 0.97899 0.51043 0.35013 0.0
C1135 C 0.9935 0.50969 0.33142 0.0
C1136 C 0.98537 0.50943 0.30933 0.0
C1137 C 0.0048 0.50709 0.29241 0.0
C1138 C 0.00252 0.48498 0.27856 0.0
C1139 C 0.00614 0.52803 0.27676 0.0
C1140 C 0.02501 0.50607 0.3085 0.0
C1141 C 0.01802 0.50797 0.33088 0.0
C1142 C 0.03341 0.50781 0.3489 0.0
C1143 C 0.05659 0.50539 0.34397 0.0
C1144 C 0.06421 0.5028 0.32123 0.0
C1145 C 0.04815 0.50322 0.30327 0.0
H1146 H 0.47679 0.95247 0.69964 0.0
H1147 H 0.54943 0.94562 0.71118 0.0
H1148 H 0.5525 0.98732 0.71626 0.0
H1149 H 0.47808 0.00218 0.66795 0.0
H1150 H 0.45285 0.01469 0.68019 0.0
H1151 H 0.45601 0.98424 0.67951 0.0
H1152 H 0.45029 0.98238 0.72322 0.0
H1153 H 0.44693 0.01288 0.72403 0.0
H1154 H 0.46818 0.9993 0.74153 0.0
H1155 H 0.54844 0.02992 0.71396 0.0
H1156 H 0.53674 0.07022 0.70938 0.0
H1157 H 0.46631 0.04922 0.70325 0.0
C1158 C 0.49326 0.95974 0.70366 0.0
C1159 C 0.5129 0.9459 0.70498 0.0
C1160 C 0.53416 0.95594 0.71027 0.0
C1161 C 0.53607 0.97959 0.71311 0.0
C1162 C 0.51645 0.99283 0.71117 0.0
C1163 C 0.49536 0.98321 0.70709 0.0
C1164 C 0.477 0.00126 0.70529 0.0
C1165 C 0.46531 0.00054 0.68184 0.0
C1166 C 0.45957 0.99881 0.72468 0.0
C1167 C 0.49118 0.02259 0.70811 0.0
C1168 C 0.51392 0.01737 0.71137 0.0
C1169 C 0.53062 0.03423 0.71206 0.0
C1170 C 0.52388 0.057 0.70937 0.0
C1171 C 0.50065 0.06263 0.70649 0.0
C1172 C 0.4841 0.04526 0.70612 0.0
H1173 H 0.9522 0.48159 0.67098 0.0
H1174 H 0.93501 0.48738 0.74249 0.0
H1175 H 0.97579 0.49423 0.75161 0.0
H1176 H 0.00628 0.45169 0.67992 0.0
H1177 H 0.01963 0.46567 0.65608 0.0
H1178 H 0.9894 0.46047 0.65583 0.0
H1179 H 0.9821 0.50348 0.64891 0.0
H1180 H 0.01226 0.50884 0.64933 0.0
H1181 H 0.99373 0.52406 0.66849 0.0
H1182 H 0.01833 0.50441 0.75172 0.0
H1183 H 0.05903 0.51241 0.74356 0.0
H1184 H 0.04755 0.49686 0.6723 0.0
C1185 C 0.95708 0.48407 0.6886 0.0
C1186 C 0.94062 0.48412 0.70606 0.0
C1187 C 0.94752 0.4872 0.72893 0.0
C1188 C 0.97056 0.49119 0.73421 0.0
C1189 C 0.98637 0.49147 0.71644 0.0
C1190 C 0.9799 0.4875 0.69415 0.0
C1191 C 0.99997 0.48848 0.67809 0.0
C1192 C 0.00406 0.46519 0.66682 0.0
C1193 C 0.99682 0.50734 0.66016 0.0
C1194 C 0.01875 0.49427 0.69465 0.0
C1195 C 0.01068 0.49608 0.71669 0.0
C1196 C 0.02487 0.50264 0.73459 0.0
C1197 C 0.0479 0.50726 0.7298 0.0
C1198 C 0.05646 0.50499 0.70736 0.0
C1199 C 0.04161 0.49835 0.68969 0.0
H1200 H 0.29527 0.46361 0.95848 0.0
H1201 H 0.27521 0.5305 0.93484 0.0
H1202 H 0.27007 0.54318 0.97469 0.0
H1203 H 0.25914 0.46158 0.01114 0.0
H1204 H 0.2814 0.44796 0.02731 0.0
H1205 H 0.27904 0.44285 0.99714 0.0
H1206 H 0.32093 0.45566 0.99179 0.0
H1207 H 0.32335 0.46099 0.02183 0.0
H1208 H 0.32957 0.48337 0.00177 0.0
H1209 H 0.27077 0.54965 0.01682 0.0
H1210 H 0.27944 0.55022 0.05798 0.0
H1211 H 0.30182 0.47987 0.05409 0.0
C1212 C 0.28895 0.48062 0.96182 0.0
C1213 C 0.28498 0.49598 0.94382 0.0
C1214 C 0.27783 0.51846 0.94857 0.0
C1215 C 0.27486 0.52576 0.97109 0.0
C1216 C 0.27946 0.51041 0.98861 0.0
C1217 C 0.28643 0.48832 0.98425 0.0
C1218 C 0.29313 0.4762 0.00601 0.0
C1219 C 0.27722 0.45595 0.01068 0.0
C1220 C 0.31823 0.46863 0.0053 0.0
C1221 C 0.28946 0.4951 0.02316 0.0
C1222 C 0.28108 0.51452 0.01286 0.0
C1223 C 0.27713 0.53447 0.02512 0.0
C1224 C 0.28211 0.53464 0.04848 0.0
C1225 C 0.29136 0.51513 0.05923 0.0
C1226 C 0.29478 0.49507 0.04636 0.0
H1227 H 0.50619 0.28531 0.95127 0.0
H1228 H 0.5452 0.34727 0.94181 0.0
H1229 H 0.54972 0.3509 0.98342 0.0
H1230 H 0.47492 0.30588 0.9985 0.0
H1231 H 0.47387 0.27912 0.01351 0.0
H1232 H 0.47616 0.27945 0.98295 0.0
H1233 H 0.51257 0.25463 0.98533 0.0
H1234 H 0.51039 0.25426 0.01595 0.0
H1235 H 0.5362 0.26405 0.00251 0.0
H1236 H 0.5488 0.34908 0.02519 0.0
H1237 H 0.53947 0.34435 0.06559 0.0
H1238 H 0.49856 0.28484 0.04932 0.0
C1239 C 0.51603 0.29934 0.95808 0.0
C1240 C 0.52565 0.31589 0.94352 0.0
C1241 C 0.53785 0.33441 0.95283 0.0
C1242 C 0.5406 0.33653 0.97637 0.0
C1243 C 0.53075 0.32014 0.99038 0.0
C1244 C 0.51848 0.30202 0.98172 0.0
C1245 C 0.50776 0.28821 0.0008 0.0
C1246 C 0.48163 0.28818 0.99882 0.0
C1247 C 0.5173 0.26384 0.00116 0.0
C1248 C 0.51565 0.30165 0.02142 0.0
C1249 C 0.52926 0.3197 0.0149 0.0
C1250 C 0.53822 0.33498 0.03057 0.0
C1251 C 0.53276 0.33211 0.05354 0.0
C1252 C 0.51818 0.31425 0.06075 0.0
C1253 C 0.50983 0.29858 0.04443 0.0
H1254 H 0.70907 0.53013 0.95668 0.0
H1255 H 0.72184 0.46103 0.93437 0.0
H1256 H 0.72971 0.44953 0.97417 0.0
H1257 H 0.74971 0.53163 0.00559 0.0
H1258 H 0.73004 0.54741 0.02309 0.0
H1259 H 0.72984 0.55112 0.99262 0.0
H1260 H 0.68689 0.54103 0.99172 0.0
H1261 H 0.68698 0.53715 0.02208 0.0
H1262 H 0.67744 0.51443 0.0038 0.0
H1263 H 0.73306 0.44493 0.01659 0.0
H1264 H 0.72834 0.44671 0.0584 0.0
H1265 H 0.71005 0.51811 0.05311 0.0
C1266 C 0.71435 0.5128 0.96019 0.0
C1267 C 0.7155 0.49653 0.94259 0.0
C1268 C 0.72133 0.47374 0.94773 0.0
C1269 C 0.72586 0.46711 0.97022 0.0
C1270 C 0.72408 0.48343 0.98737 0.0
C1271 C 0.7183 0.50579 0.98264 0.0
C1272 C 0.71451 0.51922 0.00432 0.0
C1273 C 0.73208 0.53848 0.00653 0.0
C1274 C 0.69 0.52849 0.00554 0.0
C1275 C 0.71853 0.50082 0.02194 0.0
C1276 C 0.72458 0.48045 0.01186 0.0
C1277 C 0.7285 0.46084 0.02469 0.0
C1278 C 0.7258 0.46201 0.04841 0.0
C1279 C 0.71878 0.48251 0.05897 0.0
C1280 C 0.71542 0.50218 0.04551 0.0
H1281 H 0.48432 0.66994 0.95067 0.0
H1282 H 0.48037 0.74226 0.93635 0.0
H1283 H 0.48504 0.7505 0.97758 0.0
H1284 H 0.45246 0.67189 0.00362 0.0
H1285 H 0.46948 0.64989 0.01661 0.0
H1286 H 0.46539 0.65016 0.98622 0.0
H1287 H 0.50916 0.65024 0.98028 0.0
H1288 H 0.51339 0.65003 0.01062 0.0
H1289 H 0.52612 0.67212 0.99353 0.0
H1290 H 0.4935 0.75024 0.02053 0.0
H1291 H 0.50144 0.74154 0.06111 0.0
H1292 H 0.49694 0.66934 0.04628 0.0
C1293 C 0.48435 0.68754 0.95619 0.0
C1294 C 0.48219 0.7055 0.94039 0.0
C1295 C 0.48199 0.72828 0.94827 0.0
C1296 C 0.48469 0.73308 0.97159 0.0
C1297 C 0.48708 0.71488 0.98672 0.0
C1298 C 0.48656 0.69256 0.97927 0.0
C1299 C 0.48929 0.67594 0.99871 0.0
C1300 C 0.46788 0.66111 0.00145 0.0
C1301 C 0.51076 0.66123 0.9956 0.0
C1302 C 0.49188 0.69233 0.01833 0.0
C1303 C 0.49074 0.71474 0.01119 0.0
C1304 C 0.49406 0.73276 0.02632 0.0
C1305 C 0.49862 0.72767 0.04929 0.0
C1306 C 0.49949 0.70479 0.05687 0.0
C1307 C 0.49592 0.68702 0.04112 0.0
H1308 H 0.18095 0.24209 0.53198 0.0
H1309 H 0.17382 0.27417 0.46579 0.0
H1310 H 0.20336 0.24855 0.45023 0.0
H1311 H 0.24203 0.23567 0.52924 0.0
H1312 H 0.2422 0.20865 0.5438 0.0
H1313 H 0.22006 0.22908 0.54964 0.0
H1314 H 0.1894 0.199 0.53955 0.0
H1315 H 0.21144 0.17846 0.53376 0.0
H1316 H 0.19049 0.18494 0.51228 0.0
H1317 H 0.23252 0.21855 0.44155 0.0
H1318 H 0.26087 0.18747 0.44074 0.0
H1319 H 0.25101 0.17654 0.51314 0.0
C1320 C 0.18552 0.24362 0.51418 0.0
C1321 C 0.17498 0.25998 0.50002 0.0
C1322 C 0.18166 0.26172 0.47692 0.0
C1323 C 0.1984 0.24724 0.46793 0.0
C1324 C 0.20852 0.23134 0.48236 0.0
C1325 C 0.20249 0.22956 0.50503 0.0
C1326 C 0.21643 0.21141 0.51699 0.0
C1327 C 0.23105 0.22183 0.53604 0.0
C1328 C 0.20102 0.19232 0.52618 0.0
C1329 C 0.23107 0.2031 0.49743 0.0
C1330 C 0.2261 0.21473 0.47758 0.0
C1331 C 0.23671 0.20947 0.45703 0.0
C1332 C 0.25275 0.19178 0.45673 0.0
C1333 C 0.25826 0.17978 0.4769 0.0
C1334 C 0.24738 0.18568 0.49753 0.0
H1335 H 0.76334 0.18572 0.53669 0.0
H1336 H 0.74314 0.15986 0.47054 0.0
H1337 H 0.77248 0.18387 0.4522 0.0
H1338 H 0.77269 0.24386 0.51743 0.0
H1339 H 0.79645 0.24851 0.53629 0.0
H1340 H 0.77422 0.22892 0.5442 0.0
H1341 H 0.80426 0.19704 0.54956 0.0
H1342 H 0.82657 0.21648 0.54151 0.0
H1343 H 0.82312 0.19001 0.52637 0.0
H1344 H 0.80562 0.20855 0.44144 0.0
H1345 H 0.83695 0.23642 0.43817 0.0
H1346 H 0.83331 0.24913 0.51083 0.0
C1347 C 0.76511 0.18519 0.51834 0.0
C1348 C 0.75115 0.17086 0.50498 0.0
C1349 C 0.75367 0.17078 0.48103 0.0
C1350 C 0.77034 0.18425 0.47049 0.0
C1351 C 0.784 0.19803 0.48415 0.0
C1352 C 0.78127 0.19897 0.5075 0.0
C1353 C 0.79754 0.21597 0.51811 0.0
C1354 C 0.78444 0.23547 0.52968 0.0
C1355 C 0.81384 0.20416 0.53488 0.0
C1356 C 0.81005 0.22421 0.4971 0.0
C1357 C 0.80219 0.21337 0.47775 0.0
C1358 C 0.81174 0.21736 0.45642 0.0
C1359 C 0.8296 0.2331 0.45476 0.0
C1360 C 0.83741 0.24496 0.47422 0.0
C1361 C 0.82749 0.24043 0.49566 0.0
H1362 H 0.82753 0.74443 0.48542 0.0
H1363 H 0.83355 0.75335 0.55845 0.0
H1364 H 0.80317 0.7825 0.55745 0.0
H1365 H 0.81985 0.80436 0.47328 0.0
H1366 H 0.8003 0.79951 0.45013 0.0
H1367 H 0.82167 0.77853 0.45679 0.0
H1368 H 0.79023 0.74786 0.46105 0.0
H1369 H 0.76875 0.76878 0.45452 0.0
H1370 H 0.76702 0.75264 0.48057 0.0
H1371 H 0.77078 0.80914 0.54876 0.0
H1372 H 0.7423 0.8355 0.53227 0.0
H1373 H 0.76013 0.81228 0.46448 0.0
C1374 C 0.82237 0.75253 0.50116 0.0
C1375 C 0.83267 0.74661 0.52205 0.0
C1376 C 0.82583 0.75775 0.54229 0.0
C1377 C 0.80853 0.7742 0.5419 0.0
C1378 C 0.79861 0.77964 0.52106 0.0
C1379 C 0.80556 0.76949 0.50098 0.0
C1380 C 0.79304 0.77943 0.48072 0.0
C1381 C 0.80971 0.79116 0.46426 0.0
C1382 C 0.77893 0.76108 0.4685 0.0
C1383 C 0.77785 0.79661 0.49257 0.0
C1384 C 0.78104 0.79615 0.51588 0.0
C1385 C 0.76831 0.80984 0.53051 0.0
C1386 C 0.75212 0.82465 0.52104 0.0
C1387 C 0.74923 0.82599 0.49717 0.0
C1388 C 0.76223 0.81174 0.4828 0.0
H1389 H 0.17003 0.76039 0.45921 0.0
H1390 H 0.15251 0.73342 0.52571 0.0
H1391 H 0.1776 0.76197 0.54386 0.0
H1392 H 0.22919 0.76953 0.4721 0.0
H1393 H 0.23139 0.79513 0.4553 0.0
H1394 H 0.2111 0.77347 0.44761 0.0
H1395 H 0.17854 0.80322 0.44925 0.0
H1396 H 0.19873 0.82498 0.45692 0.0
H1397 H 0.17438 0.81965 0.47484 0.0
H1398 H 0.20347 0.79418 0.55472 0.0
H1399 H 0.23129 0.82558 0.55759 0.0
H1400 H 0.2347 0.82946 0.48391 0.0
C1401 C 0.17135 0.76067 0.4776 0.0
C1402 C 0.15918 0.74495 0.49114 0.0
C1403 C 0.16167 0.74542 0.51509 0.0
C1404 C 0.17581 0.76158 0.52553 0.0
C1405 C 0.18763 0.77683 0.51171 0.0
C1406 C 0.18581 0.77633 0.48826 0.0
C1407 C 0.20129 0.79384 0.47729 0.0
C1408 C 0.21931 0.7823 0.46219 0.0
C1409 C 0.1874 0.81147 0.46378 0.0
C1410 C 0.21198 0.80439 0.49826 0.0
C1411 C 0.20361 0.79452 0.51793 0.0
C1412 C 0.21029 0.8019 0.53944 0.0
C1413 C 0.22603 0.81977 0.5409 0.0
C1414 C 0.23522 0.82977 0.52098 0.0
C1415 C 0.22813 0.82191 0.4994 0.0
H1416 H 0.54385 0.18533 0.24247 0.0
H1417 H 0.47562 0.16153 0.25774 0.0
H1418 H 0.46003 0.18743 0.22836 0.0
H1419 H 0.52753 0.24455 0.23444 0.0
H1420 H 0.54798 0.24934 0.21206 0.0
H1421 H 0.55373 0.22855 0.23388 0.0
H1422 H 0.55964 0.19769 0.20292 0.0
H1423 H 0.55376 0.21834 0.18101 0.0
H1424 H 0.53738 0.19242 0.18245 0.0
H1425 H 0.45234 0.21382 0.19558 0.0
H1426 H 0.45216 0.24289 0.16517 0.0
H1427 H 0.52491 0.25244 0.17373 0.0
C1428 C 0.52563 0.18564 0.23961 0.0
C1429 C 0.51089 0.17136 0.25217 0.0
C1430 C 0.48714 0.1724 0.24828 0.0
C1431 C 0.47817 0.18695 0.23158 0.0
C1432 C 0.49318 0.20067 0.21931 0.0
C1433 C 0.51635 0.2005 0.22344 0.0
C1434 C 0.52861 0.21767 0.20854 0.0
C1435 C 0.54014 0.23612 0.2231 0.0
C1436 C 0.54587 0.20581 0.1928 0.0
C1437 C 0.50876 0.2273 0.19517 0.0
C1438 C 0.48853 0.21699 0.20142 0.0
C1439 C 0.46801 0.22221 0.19074 0.0
C1440 C 0.4681 0.23864 0.17342 0.0
C1441 C 0.48848 0.24995 0.16726 0.0
C1442 C 0.50905 0.2442 0.1783 0.0
H1443 H 0.83524 0.48591 0.25545 0.0
H1444 H 0.84158 0.55859 0.24362 0.0
H1445 H 0.81324 0.55608 0.21272 0.0
H1446 H 0.82955 0.47044 0.19548 0.0
H1447 H 0.80949 0.44792 0.20116 0.0
H1448 H 0.83049 0.45539 0.22223 0.0
H1449 H 0.79844 0.46181 0.25187 0.0
H1450 H 0.77734 0.4545 0.23087 0.0
H1451 H 0.77569 0.48143 0.24549 0.0
H1452 H 0.78222 0.54627 0.18512 0.0
H1453 H 0.75338 0.529 0.15978 0.0
H1454 H 0.76901 0.46233 0.18756 0.0
C1455 C 0.83076 0.50125 0.24624 0.0
C1456 C 0.84056 0.52246 0.25196 0.0
C1457 C 0.83437 0.54214 0.23946 0.0
C1458 C 0.81822 0.54092 0.22194 0.0
C1459 C 0.80867 0.51982 0.21688 0.0
C1460 C 0.81495 0.50026 0.2284 0.0
C1461 C 0.80231 0.47968 0.21933 0.0
C1462 C 0.81896 0.46234 0.20893 0.0
C1463 C 0.78757 0.46872 0.238 0.0
C1464 C 0.78773 0.49079 0.20116 0.0
C1465 C 0.79152 0.51399 0.20019 0.0
C1466 C 0.7793 0.52808 0.1855 0.0
C1467 C 0.76291 0.51815 0.17126 0.0
C1468 C 0.75915 0.49435 0.1716 0.0
C1469 C 0.77177 0.48055 0.18674 0.0
H1470 H 0.51021 0.77205 0.15976 0.0
H1471 H 0.51165 0.7099 0.19953 0.0
H1472 H 0.50406 0.73215 0.23459 0.0
H1473 H 0.53579 0.80927 0.20023 0.0
H1474 H 0.51734 0.83302 0.19403 0.0
H1475 H 0.52347 0.8123 0.17227 0.0
H1476 H 0.48029 0.80505 0.16669 0.0
H1477 H 0.47402 0.82588 0.1883 0.0
H1478 H 0.46304 0.79734 0.19089 0.0
H1479 H 0.49942 0.76185 0.26554 0.0
H1480 H 0.49166 0.79585 0.28935 0.0
H1481 H 0.48868 0.83771 0.22865 0.0
C1482 C 0.50885 0.76319 0.17588 0.0
C1483 C 0.51167 0.73938 0.17715 0.0
C1484 C 0.50948 0.72818 0.19836 0.0
C1485 C 0.50532 0.74067 0.2183 0.0
C1486 C 0.50285 0.76423 0.21655 0.0
C1487 C 0.50399 0.7753 0.1958 0.0
C1488 C 0.4995 0.80055 0.19836 0.0
C1489 C 0.52026 0.81461 0.19077 0.0
C1490 C 0.47793 0.80761 0.18529 0.0
C1491 C 0.49597 0.80204 0.22384 0.0
C1492 C 0.4984 0.78099 0.2341 0.0
C1493 C 0.49713 0.77835 0.25767 0.0
C1494 C 0.49286 0.7977 0.27104 0.0
C1495 C 0.48939 0.81917 0.26071 0.0
C1496 C 0.49098 0.82135 0.23685 0.0
H1497 H 0.17671 0.51962 0.25276 0.0
H1498 H 0.16546 0.44822 0.23747 0.0
H1499 H 0.1957 0.44966 0.2083 0.0
H1500 H 0.18625 0.53672 0.19394 0.0
H1501 H 0.20752 0.55758 0.20128 0.0
H1502 H 0.18518 0.55082 0.22118 0.0
H1503 H 0.21546 0.54114 0.25179 0.0
H1504 H 0.23789 0.5477 0.23193 0.0
H1505 H 0.23706 0.52021 0.24558 0.0
H1506 H 0.22882 0.45815 0.18273 0.0
H1507 H 0.25933 0.47443 0.1587 0.0
H1508 H 0.24694 0.54103 0.18814 0.0
C1509 C 0.18058 0.50435 0.24317 0.0
C1510 C 0.16885 0.48378 0.24738 0.0
C1511 C 0.17419 0.46417 0.23441 0.0
C1512 C 0.19141 0.46479 0.21791 0.0
C1513 C 0.20284 0.48525 0.21431 0.0
C1514 C 0.19738 0.50479 0.22625 0.0
C1515 C 0.21176 0.52476 0.21848 0.0
C1516 C 0.19678 0.54358 0.2081 0.0
C1517 C 0.22641 0.53399 0.23812 0.0
C1518 C 0.2263 0.51331 0.2005 0.0
C1519 C 0.2211 0.49044 0.19862 0.0
C1520 C 0.23288 0.47609 0.18384 0.0
C1521 C 0.25023 0.48544 0.17037 0.0
C1522 C 0.25531 0.50896 0.17149 0.0
C1523 C 0.2432 0.52302 0.18679 0.0
H1524 H 0.50718 0.74999 0.82003 0.0
H1525 H 0.4337 0.75792 0.82153 0.0
H1526 H 0.43617 0.78698 0.79128 0.0
H1527 H 0.51945 0.8096 0.81238 0.0
H1528 H 0.54352 0.80476 0.79395 0.0
H1529 H 0.53595 0.78385 0.81507 0.0
H1530 H 0.53324 0.75299 0.78366 0.0
H1531 H 0.54076 0.77383 0.76243 0.0
H1532 H 0.51485 0.75763 0.75952 0.0
H1533 H 0.44639 0.81437 0.76021 0.0
H1534 H 0.46406 0.84073 0.73256 0.0
H1535 H 0.53105 0.81697 0.75288 0.0
C1536 C 0.49163 0.75779 0.8139 0.0
C1537 C 0.47024 0.75164 0.82302 0.0
C1538 C 0.45028 0.76242 0.8148 0.0
C1539 C 0.45148 0.77888 0.79757 0.0
C1540 C 0.47281 0.78459 0.78892 0.0
C1541 C 0.49256 0.77459 0.79696 0.0
C1542 C 0.51337 0.78454 0.78537 0.0
C1543 C 0.52899 0.79639 0.80273 0.0
C1544 C 0.52631 0.76615 0.77195 0.0
C1545 C 0.50221 0.80162 0.76955 0.0
C1546 C 0.47878 0.80116 0.77168 0.0
C1547 C 0.46473 0.815 0.75848 0.0
C1548 C 0.47491 0.82986 0.74279 0.0
C1549 C 0.4989 0.83099 0.7407 0.0
C1550 C 0.51267 0.81663 0.75427 0.0
H1551 H 0.23629 0.46124 0.81948 0.0
H1552 H 0.26374 0.52708 0.83869 0.0
H1553 H 0.23816 0.54583 0.81105 0.0
H1554 H 0.2314 0.47427 0.75896 0.0
H1555 H 0.20549 0.45818 0.7555 0.0
H1556 H 0.22593 0.44991 0.77684 0.0
H1557 H 0.19461 0.45234 0.80783 0.0
H1558 H 0.1741 0.46067 0.78661 0.0
H1559 H 0.17873 0.4784 0.81121 0.0
H1560 H 0.20772 0.55756 0.78365 0.0
H1561 H 0.17698 0.56137 0.75518 0.0
H1562 H 0.1715 0.48783 0.75117 0.0
C1563 C 0.23692 0.47959 0.81779 0.0
C1564 C 0.25185 0.49277 0.83128 0.0
C1565 C 0.25243 0.5167 0.82847 0.0
C1566 C 0.23794 0.52749 0.81288 0.0
C1567 C 0.2233 0.51405 0.79995 0.0
C1568 C 0.22293 0.4906 0.80194 0.0
C1569 C 0.20589 0.48014 0.78562 0.0
C1570 C 0.2179 0.46471 0.7682 0.0
C1571 C 0.18723 0.46712 0.7986 0.0
C1572 C 0.19649 0.5014 0.77443 0.0
C1573 C 0.20662 0.52077 0.78313 0.0
C1574 C 0.19989 0.54251 0.77646 0.0
C1575 C 0.18238 0.54451 0.76038 0.0
C1576 C 0.17212 0.52489 0.75089 0.0
C1577 C 0.17937 0.50307 0.75791 0.0
H1578 H 0.51149 0.17528 0.75422 0.0
H1579 H 0.43787 0.17647 0.76027 0.0
H1580 H 0.44066 0.20721 0.78886 0.0
H1581 H 0.52222 0.18337 0.81428 0.0
H1582 H 0.5472 0.20064 0.80982 0.0
H1583 H 0.53937 0.17941 0.78913 0.0
H1584 H 0.53898 0.21024 0.75755 0.0
H1585 H 0.54677 0.23157 0.77815 0.0
H1586 H 0.52152 0.23525 0.76109 0.0
H1587 H 0.45139 0.23908 0.81532 0.0
H1588 H 0.46953 0.26707 0.84106 0.0
H1589 H 0.53618 0.2427 0.8205 0.0
C1590 C 0.49599 0.1821 0.76154 0.0
C1591 C 0.47445 0.1737 0.75497 0.0
C1592 C 0.45453 0.18272 0.76513 0.0
C1593 C 0.45594 0.20021 0.78129 0.0
C1594 C 0.47742 0.20817 0.78742 0.0
C1595 C 0.49712 0.19919 0.77814 0.0
C1596 C 0.51809 0.21007 0.78848 0.0
C1597 C 0.53257 0.19231 0.80118 0.0
C1598 C 0.53216 0.22252 0.77022 0.0
C1599 C 0.5071 0.22671 0.80485 0.0
C1600 C 0.48363 0.22557 0.80373 0.0
C1601 C 0.46976 0.23996 0.81655 0.0
C1602 C 0.48018 0.25582 0.83104 0.0
C1603 C 0.50419 0.25681 0.83289 0.0
C1604 C 0.51777 0.24203 0.81963 0.0
H1605 H 0.74913 0.48455 0.8267 0.0
H1606 H 0.75328 0.55826 0.82398 0.0
H1607 H 0.77988 0.55561 0.79151 0.0
H1608 H 0.80837 0.47506 0.81546 0.0
H1609 H 0.80374 0.44972 0.79879 0.0
H1610 H 0.78383 0.4574 0.82081 0.0
H1611 H 0.75091 0.45659 0.79143 0.0
H1612 H 0.77074 0.44897 0.7693 0.0
H1613 H 0.75291 0.47375 0.76605 0.0
H1614 H 0.80547 0.54505 0.75906 0.0
H1615 H 0.83156 0.52724 0.73126 0.0
H1616 H 0.8131 0.46041 0.75685 0.0
C1617 C 0.75553 0.5001 0.81912 0.0
C1618 C 0.74907 0.52162 0.82767 0.0
C1619 C 0.75806 0.54161 0.81764 0.0
C1620 C 0.77308 0.54028 0.79915 0.0
C1621 C 0.77917 0.51882 0.79111 0.0
C1622 C 0.77094 0.49907 0.80094 0.0
C1623 C 0.7813 0.47818 0.7899 0.0
C1624 C 0.79514 0.46427 0.80728 0.0
C1625 C 0.76286 0.46351 0.77849 0.0
C1626 C 0.79664 0.48929 0.77238 0.0
C1627 C 0.79486 0.51274 0.77313 0.0
C1628 C 0.8071 0.52671 0.75837 0.0
C1629 C 0.82181 0.51645 0.7426 0.0
C1630 C 0.82441 0.49249 0.74201 0.0
C1631 C 0.81155 0.47879 0.75704 0.0
loop_
_geom_bond_atom_site_label_1
_geom_bond_atom_site_label_2
_geom_bond_distance
_geom_bond_site_symmetry_2
_ccdc_geom_bond_type
O0 Cd1 2.223 . S
O0 C8 1.315 . S
Cd1 O0 2.223 . S
Cd1 O4 2.297 . S
Cd1 O5 2.439 . S
Cd1 O11 2.240 . S
Cd2 O3 2.240 . S
Cd2 O10 2.223 . S
Cd2 O12 2.297 . S
Cd2 O13 2.439 . S
O3 Cd2 2.240 . S
O3 C8 1.279 . S
O4 Cd1 2.297 . S
O4 C6 1.247 . S
O5 Cd1 2.439 . S
O5 C6 1.208 . S
C6 O4 1.247 . S
C6 O5 1.208 . S
C7 O12 1.247 . S
C7 O13 1.208 . S
C8 O0 1.315 . S
C8 O3 1.279 . S
C9 O10 1.315 . S
C9 O11 1.279 . S
O10 Cd2 2.223 . S
O10 C9 1.315 . S
O11 Cd1 2.240 . S
O11 C9 1.279 . S
O12 Cd2 2.297 . S
O12 C7 1.247 . S
O13 Cd2 2.439 . S
O13 C7 1.208 . S
O14 Cd15 2.223 . S
O14 C22 1.315 . S
Cd15 O14 2.223 . S
Cd15 O18 2.297 . S
Cd15 O19 2.439 . S
Cd15 O25 2.240 . S
Cd16 O17 2.240 . S
Cd16 O24 2.223 . S
Cd16 O26 2.297 . S
Cd16 O27 2.439 . S
O17 Cd16 2.240 . S
O17 C22 1.279 . S
O18 Cd15 2.297 . S
O18 C20 1.247 . S
O19 Cd15 2.439 . S
O19 C20 1.208 . S
C20 O18 1.247 . S
C20 O19 1.208 . S
C21 O26 1.247 . S
C21 O27 1.208 . S
C22 O14 1.315 . S
C22 O17 1.279 . S
C23 O24 1.315 . S
C23 O25 1.279 . S
O24 Cd16 2.223 . S
O24 C23 1.315 . S
O25 Cd15 2.240 . S
O25 C23 1.279 . S
O26 Cd16 2.297 . S
O26 C21 1.247 . S
O27 Cd16 2.439 . S
O27 C21 1.208 . S
O28 Cd29 2.223 . S
O28 C36 1.315 . S
Cd29 O28 2.223 . S
Cd29 O32 2.297 . S
Cd29 O33 2.439 . S
Cd29 O39 2.240 . S
Cd30 O31 2.240 . S
Cd30 O38 2.223 . S
Cd30 O40 2.297 . S
Cd30 O41 2.439 . S
O31 Cd30 2.240 . S
O31 C36 1.279 . S
O32 Cd29 2.297 . S
O32 C34 1.247 . S
O33 Cd29 2.439 . S
O33 C34 1.208 . S
C34 O32 1.247 . S
C34 O33 1.208 . S
C35 O40 1.247 . S
C35 O41 1.208 . S
C36 O28 1.315 . S
C36 O31 1.279 . S
C37 O38 1.315 . S
C37 O39 1.279 . S
O38 Cd30 2.223 . S
O38 C37 1.315 . S
O39 Cd29 2.240 . S
O39 C37 1.279 . S
O40 Cd30 2.297 . S
O40 C35 1.247 . S
O41 Cd30 2.439 . S
O41 C35 1.208 . S
O42 Cd43 2.223 . S
O42 C50 1.315 . S
Cd43 O42 2.223 . S
Cd43 O46 2.297 . S
Cd43 O47 2.439 . S
Cd43 O53 2.240 . S
Cd44 O45 2.240 . S
Cd44 O52 2.223 . S
Cd44 O54 2.297 . S
Cd44 O55 2.439 . S
O45 Cd44 2.240 . S
O45 C50 1.279 . S
O46 Cd43 2.297 . S
O46 C48 1.247 . S
O47 Cd43 2.439 . S
O47 C48 1.208 . S
C48 O46 1.247 . S
C48 O47 1.208 . S
C49 O54 1.247 . S
C49 O55 1.208 . S
C50 O42 1.315 . S
C50 O45 1.279 . S
C51 O52 1.315 . S
C51 O53 1.279 . S
O52 Cd44 2.223 . S
O52 C51 1.315 . S
O53 Cd43 2.240 . S
O53 C51 1.279 . S
O54 Cd44 2.297 . S
O54 C49 1.247 . S
O55 Cd44 2.439 . S
O55 C49 1.208 . S
O56 Cd57 2.223 . S
O56 C64 1.315 . S
Cd57 O56 2.223 . S
Cd57 O60 2.297 . S
Cd57 O61 2.439 . S
Cd57 O67 2.240 . S
Cd58 O59 2.240 . S
Cd58 O66 2.223 . S
Cd58 O68 2.297 . S
Cd58 O69 2.439 . S
O59 Cd58 2.240 . S
O59 C64 1.279 . S
O60 Cd57 2.297 . S
O60 C62 1.247 . S
O61 Cd57 2.439 . S
O61 C62 1.208 . S
C62 O60 1.247 . S
C62 O61 1.208 . S
C63 O68 1.247 . S
C63 O69 1.208 . S
C64 O56 1.315 . S
C64 O59 1.279 . S
C65 O66 1.315 . S
C65 O67 1.279 . S
O66 Cd58 2.223 . S
O66 C65 1.315 . S
O67 Cd57 2.240 . S
O67 C65 1.279 . S
O68 Cd58 2.297 . S
O68 C63 1.247 . S
O69 Cd58 2.439 . S
O69 C63 1.208 . S
O70 Cd71 2.223 . S
O70 C78 1.315 . S
Cd71 O70 2.223 . S
Cd71 O74 2.297 . S
Cd71 O75 2.439 . S
Cd71 O81 2.240 . S
Cd72 O73 2.240 . S
Cd72 O80 2.223 . S
Cd72 O82 2.297 . S
Cd72 O83 2.439 . S
O73 Cd72 2.240 . S
O73 C78 1.279 . S
O74 Cd71 2.297 . S
O74 C76 1.247 . S
O75 Cd71 2.439 . S
O75 C76 1.208 . S
C76 O74 1.247 . S
C76 O75 1.208 . S
C77 O82 1.247 . S
C77 O83 1.208 . S
C78 O70 1.315 . S
C78 O73 1.279 . S
C79 O80 1.315 . S
C79 O81 1.279 . S
O80 Cd72 2.223 . S
O80 C79 1.315 . S
O81 Cd71 2.240 . S
O81 C79 1.279 . S
O82 Cd72 2.297 . S
O82 C77 1.247 . S
O83 Cd72 2.439 . S
O83 C77 1.208 . S
O84 Cd85 2.223 . S
O84 C92 1.315 . S
Cd85 O84 2.223 . S
Cd85 O88 2.297 . S
Cd85 O89 2.439 . S
Cd85 O95 2.240 . S
Cd86 O87 2.240 . S
Cd86 O94 2.223 . S
Cd86 O96 2.297 . S
Cd86 O97 2.439 . S
O87 Cd86 2.240 . S
O87 C92 1.279 . S
O88 Cd85 2.297 . S
O88 C90 1.247 . S
O89 Cd85 2.439 . S
O89 C90 1.208 . S
C90 O88 1.247 . S
C90 O89 1.208 . S
C91 O96 1.247 . S
C91 O97 1.208 . S
C92 O84 1.315 . S
C92 O87 1.279 . S
C93 O94 1.315 . S
C93 O95 1.279 . S
O94 Cd86 2.223 . S
O94 C93 1.315 . S
O95 Cd85 2.240 . S
O95 C93 1.279 . S
O96 Cd86 2.297 . S
O96 C91 1.247 . S
O97 Cd86 2.439 . S
O97 C91 1.208 . S
O98 Cd99 2.223 . S
O98 C106 1.315 . S
Cd99 O98 2.223 . S
Cd99 O102 2.297 . S
Cd99 O103 2.439 . S
Cd99 O109 2.240 . S
Cd100 O101 2.240 . S
Cd100 O108 2.223 . S
Cd100 O110 2.297 . S
Cd100 O111 2.439 . S
O101 Cd100 2.240 . S
O101 C106 1.279 . S
O102 Cd99 2.297 . S
O102 C104 1.247 . S
O103 Cd99 2.439 . S
O103 C104 1.208 . S
C104 O102 1.247 . S
C104 O103 1.208 . S
C105 O110 1.247 . S
C105 O111 1.208 . S
C106 O98 1.315 . S
C106 O101 1.279 . S
C107 O108 1.315 . S
C107 O109 1.279 . S
O108 Cd100 2.223 . S
O108 C107 1.315 . S
O109 Cd99 2.240 . S
O109 C107 1.279 . S
O110 Cd100 2.297 . S
O110 C105 1.247 . S
O111 Cd100 2.439 . S
O111 C105 1.208 . S
O112 Cd113 2.223 . S
O112 C120 1.315 . S
Cd113 O112 2.223 . S
Cd113 O116 2.297 . S
Cd113 O117 2.439 . S
Cd113 O123 2.240 . S
Cd114 O115 2.240 . S
Cd114 O122 2.223 . S
Cd114 O124 2.297 . S
Cd114 O125 2.439 . S
O115 Cd114 2.240 . S
O115 C120 1.279 . S
O116 Cd113 2.297 . S
O116 C118 1.247 . S
O117 Cd113 2.439 . S
O117 C118 1.208 . S
C118 O116 1.247 . S
C118 O117 1.208 . S
C119 O124 1.247 . S
C119 O125 1.208 . S
C120 O112 1.315 . S
C120 O115 1.279 . S
C121 O122 1.315 . S
C121 O123 1.279 . S
O122 Cd114 2.223 . S
O122 C121 1.315 . S
O123 Cd113 2.240 . S
O123 C121 1.279 . S
O124 Cd114 2.297 . S
O124 C119 1.247 . S
O125 Cd114 2.439 . S
O125 C119 1.208 . S
O126 Cd127 2.223 . S
O126 C134 1.315 . S
Cd127 O126 2.223 . S
Cd127 O130 2.297 . S
Cd127 O131 2.439 . S
Cd127 O137 2.240 . S
Cd128 O129 2.240 . S
Cd128 O136 2.223 . S
Cd128 O138 2.297 . S
Cd128 O139 2.439 . S
O129 Cd128 2.240 . S
O129 C134 1.279 . S
O130 Cd127 2.297 . S
O130 C132 1.247 . S
O131 Cd127 2.439 . S
O131 C132 1.208 . S
C132 O130 1.247 . S
C132 O131 1.208 . S
C133 O138 1.247 . S
C133 O139 1.208 . S
C134 O126 1.315 . S
C134 O129 1.279 . S
C135 O136 1.315 . S
C135 O137 1.279 . S
O136 Cd128 2.223 . S
O136 C135 1.315 . S
O137 Cd127 2.240 . S
O137 C135 1.279 . S
O138 Cd128 2.297 . S
O138 C133 1.247 . S
O139 Cd128 2.439 . S
O139 C133 1.208 . S
O140 Cd141 2.223 . S
O140 C148 1.315 . S
Cd141 O140 2.223 . S
Cd141 O144 2.297 . S
Cd141 O145 2.439 . S
Cd141 O151 2.240 . S
Cd142 O143 2.240 . S
Cd142 O150 2.223 . S
Cd142 O152 2.297 . S
Cd142 O153 2.439 . S
O143 Cd142 2.240 . S
O143 C148 1.279 . S
O144 Cd141 2.297 . S
O144 C146 1.247 . S
O145 Cd141 2.439 . S
O145 C146 1.208 . S
C146 O144 1.247 . S
C146 O145 1.208 . S
C147 O152 1.247 . S
C147 O153 1.208 . S
C148 O140 1.315 . S
C148 O143 1.279 . S
C149 O150 1.315 . S
C149 O151 1.279 . S
O150 Cd142 2.223 . S
O150 C149 1.315 . S
O151 Cd141 2.240 . S
O151 C149 1.279 . S
O152 Cd142 2.297 . S
O152 C147 1.247 . S
O153 Cd142 2.439 . S
O153 C147 1.208 . S
O154 Cd155 2.223 . S
O154 C162 1.315 . S
Cd155 O154 2.223 . S
Cd155 O158 2.297 . S
Cd155 O159 2.439 . S
Cd155 O165 2.240 . S
Cd156 O157 2.240 . S
Cd156 O164 2.223 . S
Cd156 O166 2.297 . S
Cd156 O167 2.439 . S
O157 Cd156 2.240 . S
O157 C162 1.279 . S
O158 Cd155 2.297 . S
O158 C160 1.247 . S
O159 Cd155 2.439 . S
O159 C160 1.208 . S
C160 O158 1.247 . S
C160 O159 1.208 . S
C161 O166 1.247 . S
C161 O167 1.208 . S
C162 O154 1.315 . S
C162 O157 1.279 . S
C163 O164 1.315 . S
C163 O165 1.279 . S
O164 Cd156 2.223 . S
O164 C163 1.315 . S
O165 Cd155 2.240 . S
O165 C163 1.279 . S
O166 Cd156 2.297 . S
O166 C161 1.247 . S
O167 Cd156 2.439 . S
O167 C161 1.208 . S
O168 Cd169 2.223 . S
O168 C176 1.315 . S
Cd169 O168 2.223 . S
Cd169 O172 2.297 . S
Cd169 O173 2.439 . S
Cd169 O179 2.240 . S
Cd170 O171 2.240 . S
Cd170 O178 2.223 . S
Cd170 O180 2.297 . S
Cd170 O181 2.439 . S
O171 Cd170 2.240 . S
O171 C176 1.279 . S
O172 Cd169 2.297 . S
O172 C174 1.247 . S
O173 Cd169 2.439 . S
O173 C174 1.208 . S
C174 O172 1.247 . S
C174 O173 1.208 . S
C175 O180 1.247 . S
C175 O181 1.208 . S
C176 O168 1.315 . S
C176 O171 1.279 . S
C177 O178 1.315 . S
C177 O179 1.279 . S
O178 Cd170 2.223 . S
O178 C177 1.315 . S
O179 Cd169 2.240 . S
O179 C177 1.279 . S
O180 Cd170 2.297 . S
O180 C175 1.247 . S
O181 Cd170 2.439 . S
O181 C175 1.208 . S
O182 Cd183 2.223 . S
O182 C190 1.315 . S
Cd183 O182 2.223 . S
Cd183 O186 2.297 . S
Cd183 O187 2.439 . S
Cd183 O193 2.240 . S
Cd184 O185 2.240 . S
Cd184 O192 2.223 . S
Cd184 O194 2.297 . S
Cd184 O195 2.439 . S
O185 Cd184 2.240 . S
O185 C190 1.279 . S
O186 Cd183 2.297 . S
O186 C188 1.247 . S
O187 Cd183 2.439 . S
O187 C188 1.208 . S
C188 O186 1.247 . S
C188 O187 1.208 . S
C189 O194 1.247 . S
C189 O195 1.208 . S
C190 O182 1.315 . S
C190 O185 1.279 . S
C191 O192 1.315 . S
C191 O193 1.279 . S
O192 Cd184 2.223 . S
O192 C191 1.315 . S
O193 Cd183 2.240 . S
O193 C191 1.279 . S
O194 Cd184 2.297 . S
O194 C189 1.247 . S
O195 Cd184 2.439 . S
O195 C189 1.208 . S
O196 Cd197 2.223 . S
O196 C204 1.315 . S
Cd197 O196 2.223 . S
Cd197 O200 2.297 . S
Cd197 O201 2.439 . S
Cd197 O207 2.240 . S
Cd198 O199 2.240 . S
Cd198 O206 2.223 . S
Cd198 O208 2.297 . S
Cd198 O209 2.439 . S
O199 Cd198 2.240 . S
O199 C204 1.279 . S
O200 Cd197 2.297 . S
O200 C202 1.247 . S
O201 Cd197 2.439 . S
O201 C202 1.208 . S
C202 O200 1.247 . S
C202 O201 1.208 . S
C203 O208 1.247 . S
C203 O209 1.208 . S
C204 O196 1.315 . S
C204 O199 1.279 . S
C205 O206 1.315 . S
C205 O207 1.279 . S
O206 Cd198 2.223 . S
O206 C205 1.315 . S
O207 Cd197 2.240 . S
O207 C205 1.279 . S
O208 Cd198 2.297 . S
O208 C203 1.247 . S
O209 Cd198 2.439 . S
O209 C203 1.208 . S
O210 Cd211 2.223 . S
O210 C218 1.315 . S
Cd211 O210 2.223 . S
Cd211 O214 2.297 . S
Cd211 O215 2.439 . S
Cd211 O221 2.240 . S
Cd212 O213 2.240 . S
Cd212 O220 2.223 . S
Cd212 O222 2.297 . S
Cd212 O223 2.439 . S
O213 Cd212 2.240 . S
O213 C218 1.279 . S
O214 Cd211 2.297 . S
O214 C216 1.247 . S
O215 Cd211 2.439 . S
O215 C216 1.208 . S
C216 O214 1.247 . S
C216 O215 1.208 . S
C217 O222 1.247 . S
C217 O223 1.208 . S
C218 O210 1.315 . S
C218 O213 1.279 . S
C219 O220 1.315 . S
C219 O221 1.279 . S
O220 Cd212 2.223 . S
O220 C219 1.315 . S
O221 Cd211 2.240 . S
O221 C219 1.279 . S
O222 Cd212 2.297 . S
O222 C217 1.247 . S
O223 Cd212 2.439 . S
O223 C217 1.208 . S
O224 Cd225 2.223 . S
O224 C232 1.315 . S
Cd225 O224 2.223 . S
Cd225 O228 2.297 . S
Cd225 O229 2.439 . S
Cd225 O235 2.240 . S
Cd226 O227 2.240 . S
Cd226 O234 2.223 . S
Cd226 O236 2.297 . S
Cd226 O237 2.439 . S
O227 Cd226 2.240 . S
O227 C232 1.279 . S
O228 Cd225 2.297 . S
O228 C230 1.247 . S
O229 Cd225 2.439 . S
O229 C230 1.208 . S
C230 O228 1.247 . S
C230 O229 1.208 . S
C231 O236 1.247 . S
C231 O237 1.208 . S
C232 O224 1.315 . S
C232 O227 1.279 . S
C233 O234 1.315 . S
C233 O235 1.279 . S
O234 Cd226 2.223 . S
O234 C233 1.315 . S
O235 Cd225 2.240 . S
O235 C233 1.279 . S
O236 Cd226 2.297 . S
O236 C231 1.247 . S
O237 Cd226 2.439 . S
O237 C231 1.208 . S
O238 Cd239 2.223 . S
O238 C246 1.315 . S
Cd239 O238 2.223 . S
Cd239 O242 2.297 . S
Cd239 O243 2.439 . S
Cd239 O249 2.240 . S
Cd240 O241 2.240 . S
Cd240 O248 2.223 . S
Cd240 O250 2.297 . S
Cd240 O251 2.439 . S
O241 Cd240 2.240 . S
O241 C246 1.279 . S
O242 Cd239 2.297 . S
O242 C244 1.247 . S
O243 Cd239 2.439 . S
O243 C244 1.208 . S
C244 O242 1.247 . S
C244 O243 1.208 . S
C245 O250 1.247 . S
C245 O251 1.208 . S
C246 O238 1.315 . S
C246 O241 1.279 . S
C247 O248 1.315 . S
C247 O249 1.279 . S
O248 Cd240 2.223 . S
O248 C247 1.315 . S
O249 Cd239 2.240 . S
O249 C247 1.279 . S
O250 Cd240 2.297 . S
O250 C245 1.247 . S
O251 Cd240 2.439 . S
O251 C245 1.208 . S
O252 Cd253 2.223 . S
O252 C260 1.315 . S
Cd253 O252 2.223 . S
Cd253 O256 2.297 . S
Cd253 O257 2.439 . S
Cd253 O263 2.240 . S
Cd254 O255 2.240 . S
Cd254 O262 2.223 . S
Cd254 O264 2.297 . S
Cd254 O265 2.439 . S
O255 Cd254 2.240 . S
O255 C260 1.279 . S
O256 Cd253 2.297 . S
O256 C258 1.247 . S
O257 Cd253 2.439 . S
O257 C258 1.208 . S
C258 O256 1.247 . S
C258 O257 1.208 . S
C259 O264 1.247 . S
C259 O265 1.208 . S
C260 O252 1.315 . S
C260 O255 1.279 . S
C261 O262 1.315 . S
C261 O263 1.279 . S
O262 Cd254 2.223 . S
O262 C261 1.315 . S
O263 Cd253 2.240 . S
O263 C261 1.279 . S
O264 Cd254 2.297 . S
O264 C259 1.247 . S
O265 Cd254 2.439 . S
O265 C259 1.208 . S
O266 Cd267 2.223 . S
O266 C274 1.315 . S
Cd267 O266 2.223 . S
Cd267 O270 2.297 . S
Cd267 O271 2.439 . S
Cd267 O277 2.240 . S
Cd268 O269 2.240 . S
Cd268 O276 2.223 . S
Cd268 O278 2.297 . S
Cd268 O279 2.439 . S
O269 Cd268 2.240 . S
O269 C274 1.279 . S
O270 Cd267 2.297 . S
O270 C272 1.247 . S
O271 Cd267 2.439 . S
O271 C272 1.208 . S
C272 O270 1.247 . S
C272 O271 1.208 . S
C273 O278 1.247 . S
C273 O279 1.208 . S
C274 O266 1.315 . S
C274 O269 1.279 . S
C275 O276 1.315 . S
C275 O277 1.279 . S
O276 Cd268 2.223 . S
O276 C275 1.315 . S
O277 Cd267 2.240 . S
O277 C275 1.279 . S
O278 Cd268 2.297 . S
O278 C273 1.247 . S
O279 Cd268 2.439 . S
O279 C273 1.208 . S
O280 Cd281 2.223 . S
O280 C288 1.315 . S
Cd281 O280 2.223 . S
Cd281 O284 2.297 . S
Cd281 O285 2.439 . S
Cd281 O291 2.240 . S
Cd282 O283 2.240 . S
Cd282 O290 2.223 . S
Cd282 O292 2.297 . S
Cd282 O293 2.439 . S
O283 Cd282 2.240 . S
O283 C288 1.279 . S
O284 Cd281 2.297 . S
O284 C286 1.247 . S
O285 Cd281 2.439 . S
O285 C286 1.208 . S
C286 O284 1.247 . S
C286 O285 1.208 . S
C287 O292 1.247 . S
C287 O293 1.208 . S
C288 O280 1.315 . S
C288 O283 1.279 . S
C289 O290 1.315 . S
C289 O291 1.279 . S
O290 Cd282 2.223 . S
O290 C289 1.315 . S
O291 Cd281 2.240 . S
O291 C289 1.279 . S
O292 Cd282 2.297 . S
O292 C287 1.247 . S
O293 Cd282 2.439 . S
O293 C287 1.208 . S
O294 Cd295 2.223 . S
O294 C302 1.315 . S
Cd295 O294 2.223 . S
Cd295 O298 2.297 . S
Cd295 O299 2.439 . S
Cd295 O305 2.240 . S
Cd296 O297 2.240 . S
Cd296 O304 2.223 . S
Cd296 O306 2.297 . S
Cd296 O307 2.439 . S
O297 Cd296 2.240 . S
O297 C302 1.279 . S
O298 Cd295 2.297 . S
O298 C300 1.247 . S
O299 Cd295 2.439 . S
O299 C300 1.208 . S
C300 O298 1.247 . S
C300 O299 1.208 . S
C301 O306 1.247 . S
C301 O307 1.208 . S
C302 O294 1.315 . S
C302 O297 1.279 . S
C303 O304 1.315 . S
C303 O305 1.279 . S
O304 Cd296 2.223 . S
O304 C303 1.315 . S
O305 Cd295 2.240 . S
O305 C303 1.279 . S
O306 Cd296 2.297 . S
O306 C301 1.247 . S
O307 Cd296 2.439 . S
O307 C301 1.208 . S
O308 Cd309 2.223 . S
O308 C316 1.315 . S
Cd309 O308 2.223 . S
Cd309 O312 2.297 . S
Cd309 O313 2.439 . S
Cd309 O319 2.240 . S
Cd310 O311 2.240 . S
Cd310 O318 2.223 . S
Cd310 O320 2.297 . S
Cd310 O321 2.439 . S
O311 Cd310 2.240 . S
O311 C316 1.279 . S
O312 Cd309 2.297 . S
O312 C314 1.247 . S
O313 Cd309 2.439 . S
O313 C314 1.208 . S
C314 O312 1.247 . S
C314 O313 1.208 . S
C315 O320 1.247 . S
C315 O321 1.208 . S
C316 O308 1.315 . S
C316 O311 1.279 . S
C317 O318 1.315 . S
C317 O319 1.279 . S
O318 Cd310 2.223 . S
O318 C317 1.315 . S
O319 Cd309 2.240 . S
O319 C317 1.279 . S
O320 Cd310 2.297 . S
O320 C315 1.247 . S
O321 Cd310 2.439 . S
O321 C315 1.208 . S
O322 Cd323 2.223 . S
O322 C330 1.315 . S
Cd323 O322 2.223 . S
Cd323 O326 2.297 . S
Cd323 O327 2.439 . S
Cd323 O333 2.240 . S
Cd324 O325 2.240 . S
Cd324 O332 2.223 . S
Cd324 O334 2.297 . S
Cd324 O335 2.439 . S
O325 Cd324 2.240 . S
O325 C330 1.279 . S
O326 Cd323 2.297 . S
O326 C328 1.247 . S
O327 Cd323 2.439 . S
O327 C328 1.208 . S
C328 O326 1.247 . S
C328 O327 1.208 . S
C329 O334 1.247 . S
C329 O335 1.208 . S
C330 O322 1.315 . S
C330 O325 1.279 . S
C331 O332 1.315 . S
C331 O333 1.279 . S
O332 Cd324 2.223 . S
O332 C331 1.315 . S
O333 Cd323 2.240 . S
O333 C331 1.279 . S
O334 Cd324 2.297 . S
O334 C329 1.247 . S
O335 Cd324 2.439 . S
O335 C329 1.208 . S
H336 C348 0.930 . S
H337 C350 0.930 . S
H338 C351 0.930 . S
H339 C355 0.959 . S
H340 C355 0.959 . S
H341 C355 0.961 . S
H342 C356 0.960 . S
H343 C356 0.961 . S
H344 C356 0.959 . S
H345 C359 0.929 . S
H346 C360 0.931 . S
H347 C362 0.930 . S
C348 H336 0.930 . S
C348 C349 1.399 . S
C348 C353 1.399 . S
C349 C348 1.399 . S
C349 C350 1.376 . S
C350 H337 0.930 . S
C350 C349 1.376 . S
C350 C351 1.388 . S
C351 H338 0.930 . S
C351 C350 1.388 . S
C351 C352 1.390 . S
C352 C351 1.390 . S
C352 C353 1.394 . S
C352 C358 1.465 . S
C353 C348 1.399 . S
C353 C352 1.394 . S
C353 C354 1.516 . S
C354 C353 1.516 . S
C354 C355 1.502 . S
C354 C356 1.561 . S
C354 C357 1.526 . S
C355 H339 0.959 . S
C355 H340 0.959 . S
C355 H341 0.961 . S
C355 C354 1.502 . S
C356 H342 0.960 . S
C356 H343 0.961 . S
C356 H344 0.959 . S
C356 C354 1.561 . S
C357 C354 1.526 . S
C357 C358 1.396 . S
C357 C362 1.390 . S
C358 C352 1.465 . S
C358 C357 1.396 . S
C358 C359 1.399 . S
C359 H345 0.929 . S
C359 C358 1.399 . S
C359 C360 1.385 . S
C360 H346 0.931 . S
C360 C359 1.385 . S
C360 C361 1.389 . S
C361 C360 1.389 . S
C361 C362 1.387 . S
C362 H347 0.930 . S
C362 C357 1.390 . S
C362 C361 1.387 . S
H363 C375 0.930 . S
H364 C377 0.930 . S
H365 C378 0.930 . S
H366 C382 0.959 . S
H367 C382 0.959 . S
H368 C382 0.961 . S
H369 C383 0.960 . S
H370 C383 0.961 . S
H371 C383 0.959 . S
H372 C386 0.929 . S
H373 C387 0.931 . S
H374 C389 0.930 . S
C375 H363 0.930 . S
C375 C376 1.399 . S
C375 C380 1.399 . S
C376 C375 1.399 . S
C376 C377 1.376 . S
C377 H364 0.930 . S
C377 C376 1.376 . S
C377 C378 1.388 . S
C378 H365 0.930 . S
C378 C377 1.388 . S
C378 C379 1.390 . S
C379 C378 1.390 . S
C379 C380 1.394 . S
C379 C385 1.465 . S
C380 C375 1.399 . S
C380 C379 1.394 . S
C380 C381 1.516 . S
C381 C380 1.516 . S
C381 C382 1.502 . S
C381 C383 1.561 . S
C381 C384 1.526 . S
C382 H366 0.959 . S
C382 H367 0.959 . S
C382 H368 0.961 . S
C382 C381 1.502 . S
C383 H369 0.960 . S
C383 H370 0.961 . S
C383 H371 0.959 . S
C383 C381 1.561 . S
C384 C381 1.526 . S
C384 C385 1.396 . S
C384 C389 1.390 . S
C385 C379 1.465 . S
C385 C384 1.396 . S
C385 C386 1.399 . S
C386 H372 0.929 . S
C386 C385 1.399 . S
C386 C387 1.385 . S
C387 H373 0.931 . S
C387 C386 1.385 . S
C387 C388 1.389 . S
C388 C387 1.389 . S
C388 C389 1.387 . S
C389 H374 0.930 . S
C389 C384 1.390 . S
C389 C388 1.387 . S
H390 C402 0.930 . S
H391 C404 0.930 . S
H392 C405 0.930 . S
H393 C409 0.959 . S
H394 C409 0.959 . S
H395 C409 0.961 . S
H396 C410 0.960 . S
H397 C410 0.961 . S
H398 C410 0.959 . S
H399 C413 0.929 . S
H400 C414 0.931 . S
H401 C416 0.930 . S
C402 H390 0.930 . S
C402 C403 1.399 . S
C402 C407 1.399 . S
C403 C402 1.399 . S
C403 C404 1.376 . S
C404 H391 0.930 . S
C404 C403 1.376 . S
C404 C405 1.388 . S
C405 H392 0.930 . S
C405 C404 1.388 . S
C405 C406 1.390 . S
C406 C405 1.390 . S
C406 C407 1.394 . S
C406 C412 1.465 . S
C407 C402 1.399 . S
C407 C406 1.394 . S
C407 C408 1.516 . S
C408 C407 1.516 . S
C408 C409 1.502 . S
C408 C410 1.561 . S
C408 C411 1.526 . S
C409 H393 0.959 . S
C409 H394 0.959 . S
C409 H395 0.961 . S
C409 C408 1.502 . S
C410 H396 0.960 . S
C410 H397 0.961 . S
C410 H398 0.959 . S
C410 C408 1.561 . S
C411 C408 1.526 . S
C411 C412 1.396 . S
C411 C416 1.390 . S
C412 C406 1.465 . S
C412 C411 1.396 . S
C412 C413 1.399 . S
C413 H399 0.929 . S
C413 C412 1.399 . S
C413 C414 1.385 . S
C414 H400 0.931 . S
C414 C413 1.385 . S
C414 C415 1.389 . S
C415 C414 1.389 . S
C415 C416 1.387 . S
C416 H401 0.930 . S
C416 C411 1.390 . S
C416 C415 1.387 . S
H417 C429 0.930 . S
H418 C431 0.930 . S
H419 C432 0.930 . S
H420 C436 0.959 . S
H421 C436 0.959 . S
H422 C436 0.961 . S
H423 C437 0.960 . S
H424 C437 0.961 . S
H425 C437 0.959 . S
H426 C440 0.929 . S
H427 C441 0.931 . S
H428 C443 0.930 . S
C429 H417 0.930 . S
C429 C430 1.399 . S
C429 C434 1.399 . S
C430 C429 1.399 . S
C430 C431 1.376 . S
C431 H418 0.930 . S
C431 C430 1.376 . S
C431 C432 1.388 . S
C432 H419 0.930 . S
C432 C431 1.388 . S
C432 C433 1.390 . S
C433 C432 1.390 . S
C433 C434 1.394 . S
C433 C439 1.465 . S
C434 C429 1.399 . S
C434 C433 1.394 . S
C434 C435 1.516 . S
C435 C434 1.516 . S
C435 C436 1.502 . S
C435 C437 1.561 . S
C435 C438 1.526 . S
C436 H420 0.959 . S
C436 H421 0.959 . S
C436 H422 0.961 . S
C436 C435 1.502 . S
C437 H423 0.960 . S
C437 H424 0.961 . S
C437 H425 0.959 . S
C437 C435 1.561 . S
C438 C435 1.526 . S
C438 C439 1.396 . S
C438 C443 1.390 . S
C439 C433 1.465 . S
C439 C438 1.396 . S
C439 C440 1.399 . S
C440 H426 0.929 . S
C440 C439 1.399 . S
C440 C441 1.385 . S
C441 H427 0.931 . S
C441 C440 1.385 . S
C441 C442 1.389 . S
C442 C441 1.389 . S
C442 C443 1.387 . S
C443 H428 0.930 . S
C443 C438 1.390 . S
C443 C442 1.387 . S
H444 C456 0.930 . S
H445 C458 0.930 . S
H446 C459 0.930 . S
H447 C463 0.959 . S
H448 C463 0.959 . S
H449 C463 0.961 . S
H450 C464 0.960 . S
H451 C464 0.961 . S
H452 C464 0.959 . S
H453 C467 0.929 . S
H454 C468 0.931 . S
H455 C470 0.930 . S
C456 H444 0.930 . S
C456 C457 1.399 . S
C456 C461 1.399 . S
C457 C456 1.399 . S
C457 C458 1.376 . S
C458 H445 0.930 . S
C458 C457 1.376 . S
C458 C459 1.388 . S
C459 H446 0.930 . S
C459 C458 1.388 . S
C459 C460 1.390 . S
C460 C459 1.390 . S
C460 C461 1.394 . S
C460 C466 1.465 . S
C461 C456 1.399 . S
C461 C460 1.394 . S
C461 C462 1.516 . S
C462 C461 1.516 . S
C462 C463 1.502 . S
C462 C464 1.561 . S
C462 C465 1.526 . S
C463 H447 0.959 . S
C463 H448 0.959 . S
C463 H449 0.961 . S
C463 C462 1.502 . S
C464 H450 0.960 . S
C464 H451 0.961 . S
C464 H452 0.959 . S
C464 C462 1.561 . S
C465 C462 1.526 . S
C465 C466 1.396 . S
C465 C470 1.390 . S
C466 C460 1.465 . S
C466 C465 1.396 . S
C466 C467 1.399 . S
C467 H453 0.929 . S
C467 C466 1.399 . S
C467 C468 1.385 . S
C468 H454 0.931 . S
C468 C467 1.385 . S
C468 C469 1.389 . S
C469 C468 1.389 . S
C469 C470 1.387 . S
C470 H455 0.930 . S
C470 C465 1.390 . S
C470 C469 1.387 . S
H471 C483 0.930 . S
H472 C485 0.930 . S
H473 C486 0.930 . S
H474 C490 0.959 . S
H475 C490 0.959 . S
H476 C490 0.961 . S
H477 C491 0.960 . S
H478 C491 0.961 . S
H479 C491 0.959 . S
H480 C494 0.929 . S
H481 C495 0.931 . S
H482 C497 0.930 . S
C483 H471 0.930 . S
C483 C484 1.399 . S
C483 C488 1.399 . S
C484 C483 1.399 . S
C484 C485 1.376 . S
C485 H472 0.930 . S
C485 C484 1.376 . S
C485 C486 1.388 . S
C486 H473 0.930 . S
C486 C485 1.388 . S
C486 C487 1.390 . S
C487 C486 1.390 . S
C487 C488 1.394 . S
C487 C493 1.465 . S
C488 C483 1.399 . S
C488 C487 1.394 . S
C488 C489 1.516 . S
C489 C488 1.516 . S
C489 C490 1.502 . S
C489 C491 1.561 . S
C489 C492 1.526 . S
C490 H474 0.959 . S
C490 H475 0.959 . S
C490 H476 0.961 . S
C490 C489 1.502 . S
C491 H477 0.960 . S
C491 H478 0.961 . S
C491 H479 0.959 . S
C491 C489 1.561 . S
C492 C489 1.526 . S
C492 C493 1.396 . S
C492 C497 1.390 . S
C493 C487 1.465 . S
C493 C492 1.396 . S
C493 C494 1.399 . S
C494 H480 0.929 . S
C494 C493 1.399 . S
C494 C495 1.385 . S
C495 H481 0.931 . S
C495 C494 1.385 . S
C495 C496 1.389 . S
C496 C495 1.389 . S
C496 C497 1.387 . S
C497 H482 0.930 . S
C497 C492 1.390 . S
C497 C496 1.387 . S
H498 C510 0.930 . S
H499 C512 0.930 . S
H500 C513 0.930 . S
H501 C517 0.959 . S
H502 C517 0.959 . S
H503 C517 0.961 . S
H504 C518 0.960 . S
H505 C518 0.961 . S
H506 C518 0.959 . S
H507 C521 0.929 . S
H508 C522 0.931 . S
H509 C524 0.930 . S
C510 H498 0.930 . S
C510 C511 1.399 . S
C510 C515 1.399 . S
C511 C510 1.399 . S
C511 C512 1.376 . S
C512 H499 0.930 . S
C512 C511 1.376 . S
C512 C513 1.388 . S
C513 H500 0.930 . S
C513 C512 1.388 . S
C513 C514 1.390 . S
C514 C513 1.390 . S
C514 C515 1.394 . S
C514 C520 1.465 . S
C515 C510 1.399 . S
C515 C514 1.394 . S
C515 C516 1.516 . S
C516 C515 1.516 . S
C516 C517 1.502 . S
C516 C518 1.561 . S
C516 C519 1.526 . S
C517 H501 0.959 . S
C517 H502 0.959 . S
C517 H503 0.961 . S
C517 C516 1.502 . S
C518 H504 0.960 . S
C518 H505 0.961 . S
C518 H506 0.959 . S
C518 C516 1.561 . S
C519 C516 1.526 . S
C519 C520 1.396 . S
C519 C524 1.390 . S
C520 C514 1.465 . S
C520 C519 1.396 . S
C520 C521 1.399 . S
C521 H507 0.929 . S
C521 C520 1.399 . S
C521 C522 1.385 . S
C522 H508 0.931 . S
C522 C521 1.385 . S
C522 C523 1.389 . S
C523 C522 1.389 . S
C523 C524 1.387 . S
C524 H509 0.930 . S
C524 C519 1.390 . S
C524 C523 1.387 . S
H525 C537 0.930 . S
H526 C539 0.930 . S
H527 C540 0.930 . S
H528 C544 0.959 . S
H529 C544 0.959 . S
H530 C544 0.961 . S
H531 C545 0.960 . S
H532 C545 0.961 . S
H533 C545 0.959 . S
H534 C548 0.929 . S
H535 C549 0.931 . S
H536 C551 0.930 . S
C537 H525 0.930 . S
C537 C538 1.399 . S
C537 C542 1.399 . S
C538 C537 1.399 . S
C538 C539 1.376 . S
C539 H526 0.930 . S
C539 C538 1.376 . S
C539 C540 1.388 . S
C540 H527 0.930 . S
C540 C539 1.388 . S
C540 C541 1.390 . S
C541 C540 1.390 . S
C541 C542 1.394 . S
C541 C547 1.465 . S
C542 C537 1.399 . S
C542 C541 1.394 . S
C542 C543 1.516 . S
C543 C542 1.516 . S
C543 C544 1.502 . S
C543 C545 1.561 . S
C543 C546 1.526 . S
C544 H528 0.959 . S
C544 H529 0.959 . S
C544 H530 0.961 . S
C544 C543 1.502 . S
C545 H531 0.960 . S
C545 H532 0.961 . S
C545 H533 0.959 . S
C545 C543 1.561 . S
C546 C543 1.526 . S
C546 C547 1.396 . S
C546 C551 1.390 . S
C547 C541 1.465 . S
C547 C546 1.396 . S
C547 C548 1.399 . S
C548 H534 0.929 . S
C548 C547 1.399 . S
C548 C549 1.385 . S
C549 H535 0.931 . S
C549 C548 1.385 . S
C549 C550 1.389 . S
C550 C549 1.389 . S
C550 C551 1.387 . S
C551 H536 0.930 . S
C551 C546 1.390 . S
C551 C550 1.387 . S
H552 C564 0.930 . S
H553 C566 0.930 . S
H554 C567 0.930 . S
H555 C571 0.959 . S
H556 C571 0.959 . S
H557 C571 0.961 . S
H558 C572 0.960 . S
H559 C572 0.961 . S
H560 C572 0.959 . S
H561 C575 0.929 . S
H562 C576 0.931 . S
H563 C578 0.930 . S
C564 H552 0.930 . S
C564 C565 1.399 . S
C564 C569 1.399 . S
C565 C564 1.399 . S
C565 C566 1.376 . S
C566 H553 0.930 . S
C566 C565 1.376 . S
C566 C567 1.388 . S
C567 H554 0.930 . S
C567 C566 1.388 . S
C567 C568 1.390 . S
C568 C567 1.390 . S
C568 C569 1.394 . S
C568 C574 1.465 . S
C569 C564 1.399 . S
C569 C568 1.394 . S
C569 C570 1.516 . S
C570 C569 1.516 . S
C570 C571 1.502 . S
C570 C572 1.561 . S
C570 C573 1.526 . S
C571 H555 0.959 . S
C571 H556 0.959 . S
C571 H557 0.961 . S
C571 C570 1.502 . S
C572 H558 0.960 . S
C572 H559 0.961 . S
C572 H560 0.959 . S
C572 C570 1.561 . S
C573 C570 1.526 . S
C573 C574 1.396 . S
C573 C578 1.390 . S
C574 C568 1.465 . S
C574 C573 1.396 . S
C574 C575 1.399 . S
C575 H561 0.929 . S
C575 C574 1.399 . S
C575 C576 1.385 . S
C576 H562 0.931 . S
C576 C575 1.385 . S
C576 C577 1.389 . S
C577 C576 1.389 . S
C577 C578 1.387 . S
C578 H563 0.930 . S
C578 C573 1.390 . S
C578 C577 1.387 . S
H579 C591 0.930 . S
H580 C593 0.930 . S
H581 C594 0.930 . S
H582 C598 0.959 . S
H583 C598 0.959 . S
H584 C598 0.961 . S
H585 C599 0.960 . S
H586 C599 0.961 . S
H587 C599 0.959 . S
H588 C602 0.929 . S
H589 C603 0.931 . S
H590 C605 0.930 . S
C591 H579 0.930 . S
C591 C592 1.399 . S
C591 C596 1.399 . S
C592 C591 1.399 . S
C592 C593 1.376 . S
C593 H580 0.930 . S
C593 C592 1.376 . S
C593 C594 1.388 . S
C594 H581 0.930 . S
C594 C593 1.388 . S
C594 C595 1.390 . S
C595 C594 1.390 . S
C595 C596 1.394 . S
C595 C601 1.465 . S
C596 C591 1.399 . S
C596 C595 1.394 . S
C596 C597 1.516 . S
C597 C596 1.516 . S
C597 C598 1.502 . S
C597 C599 1.561 . S
C597 C600 1.526 . S
C598 H582 0.959 . S
C598 H583 0.959 . S
C598 H584 0.961 . S
C598 C597 1.502 . S
C599 H585 0.960 . S
C599 H586 0.961 . S
C599 H587 0.959 . S
C599 C597 1.561 . S
C600 C597 1.526 . S
C600 C601 1.396 . S
C600 C605 1.390 . S
C601 C595 1.465 . S
C601 C600 1.396 . S
C601 C602 1.399 . S
C602 H588 0.929 . S
C602 C601 1.399 . S
C602 C603 1.385 . S
C603 H589 0.931 . S
C603 C602 1.385 . S
C603 C604 1.389 . S
C604 C603 1.389 . S
C604 C605 1.387 . S
C605 H590 0.930 . S
C605 C600 1.390 . S
C605 C604 1.387 . S
H606 C618 0.930 . S
H607 C620 0.930 . S
H608 C621 0.930 . S
H609 C625 0.959 . S
H610 C625 0.959 . S
H611 C625 0.961 . S
H612 C626 0.960 . S
H613 C626 0.961 . S
H614 C626 0.959 . S
H615 C629 0.929 . S
H616 C630 0.931 . S
H617 C632 0.930 . S
C618 H606 0.930 . S
C618 C619 1.399 . S
C618 C623 1.399 . S
C619 C618 1.399 . S
C619 C620 1.376 . S
C620 H607 0.930 . S
C620 C619 1.376 . S
C620 C621 1.388 . S
C621 H608 0.930 . S
C621 C620 1.388 . S
C621 C622 1.390 . S
C622 C621 1.390 . S
C622 C623 1.394 . S
C622 C628 1.465 . S
C623 C618 1.399 . S
C623 C622 1.394 . S
C623 C624 1.516 . S
C624 C623 1.516 . S
C624 C625 1.502 . S
C624 C626 1.561 . S
C624 C627 1.526 . S
C625 H609 0.959 . S
C625 H610 0.959 . S
C625 H611 0.961 . S
C625 C624 1.502 . S
C626 H612 0.960 . S
C626 H613 0.961 . S
C626 H614 0.959 . S
C626 C624 1.561 . S
C627 C624 1.526 . S
C627 C628 1.396 . S
C627 C632 1.390 . S
C628 C622 1.465 . S
C628 C627 1.396 . S
C628 C629 1.399 . S
C629 H615 0.929 . S
C629 C628 1.399 . S
C629 C630 1.385 . S
C630 H616 0.931 . S
C630 C629 1.385 . S
C630 C631 1.389 . S
C631 C630 1.389 . S
C631 C632 1.387 . S
C632 H617 0.930 . S
C632 C627 1.390 . S
C632 C631 1.387 . S
H633 C645 0.930 . S
H634 C647 0.930 . S
H635 C648 0.930 . S
H636 C652 0.959 . S
H637 C652 0.959 . S
H638 C652 0.961 . S
H639 C653 0.960 . S
H640 C653 0.961 . S
H641 C653 0.959 . S
H642 C656 0.929 . S
H643 C657 0.931 . S
H644 C659 0.930 . S
C645 H633 0.930 . S
C645 C646 1.399 . S
C645 C650 1.399 . S
C646 C645 1.399 . S
C646 C647 1.376 . S
C647 H634 0.930 . S
C647 C646 1.376 . S
C647 C648 1.388 . S
C648 H635 0.930 . S
C648 C647 1.388 . S
C648 C649 1.390 . S
C649 C648 1.390 . S
C649 C650 1.394 . S
C649 C655 1.465 . S
C650 C645 1.399 . S
C650 C649 1.394 . S
C650 C651 1.516 . S
C651 C650 1.516 . S
C651 C652 1.502 . S
C651 C653 1.561 . S
C651 C654 1.526 . S
C652 H636 0.959 . S
C652 H637 0.959 . S
C652 H638 0.961 . S
C652 C651 1.502 . S
C653 H639 0.960 . S
C653 H640 0.961 . S
C653 H641 0.959 . S
C653 C651 1.561 . S
C654 C651 1.526 . S
C654 C655 1.396 . S
C654 C659 1.390 . S
C655 C649 1.465 . S
C655 C654 1.396 . S
C655 C656 1.399 . S
C656 H642 0.929 . S
C656 C655 1.399 . S
C656 C657 1.385 . S
C657 H643 0.931 . S
C657 C656 1.385 . S
C657 C658 1.389 . S
C658 C657 1.389 . S
C658 C659 1.387 . S
C659 H644 0.930 . S
C659 C654 1.390 . S
C659 C658 1.387 . S
H660 C672 0.930 . S
H661 C674 0.930 . S
H662 C675 0.930 . S
H663 C679 0.959 . S
H664 C679 0.959 . S
H665 C679 0.961 . S
H666 C680 0.960 . S
H667 C680 0.961 . S
H668 C680 0.959 . S
H669 C683 0.929 . S
H670 C684 0.931 . S
H671 C686 0.930 . S
C672 H660 0.930 . S
C672 C673 1.399 . S
C672 C677 1.399 . S
C673 C672 1.399 . S
C673 C674 1.376 . S
C674 H661 0.930 . S
C674 C673 1.376 . S
C674 C675 1.388 . S
C675 H662 0.930 . S
C675 C674 1.388 . S
C675 C676 1.390 . S
C676 C675 1.390 . S
C676 C677 1.394 . S
C676 C682 1.465 . S
C677 C672 1.399 . S
C677 C676 1.394 . S
C677 C678 1.516 . S
C678 C677 1.516 . S
C678 C679 1.502 . S
C678 C680 1.561 . S
C678 C681 1.526 . S
C679 H663 0.959 . S
C679 H664 0.959 . S
C679 H665 0.961 . S
C679 C678 1.502 . S
C680 H666 0.960 . S
C680 H667 0.961 . S
C680 H668 0.959 . S
C680 C678 1.561 . S
C681 C678 1.526 . S
C681 C682 1.396 . S
C681 C686 1.390 . S
C682 C676 1.465 . S
C682 C681 1.396 . S
C682 C683 1.399 . S
C683 H669 0.929 . S
C683 C682 1.399 . S
C683 C684 1.385 . S
C684 H670 0.931 . S
C684 C683 1.385 . S
C684 C685 1.389 . S
C685 C684 1.389 . S
C685 C686 1.387 . S
C686 H671 0.930 . S
C686 C681 1.390 . S
C686 C685 1.387 . S
H687 C699 0.930 . S
H688 C701 0.930 . S
H689 C702 0.930 . S
H690 C706 0.959 . S
H691 C706 0.959 . S
H692 C706 0.961 . S
H693 C707 0.960 . S
H694 C707 0.961 . S
H695 C707 0.959 . S
H696 C710 0.929 . S
H697 C711 0.931 . S
H698 C713 0.930 . S
C699 H687 0.930 . S
C699 C700 1.399 . S
C699 C704 1.399 . S
C700 C699 1.399 . S
C700 C701 1.376 . S
C701 H688 0.930 . S
C701 C700 1.376 . S
C701 C702 1.388 . S
C702 H689 0.930 . S
C702 C701 1.388 . S
C702 C703 1.390 . S
C703 C702 1.390 . S
C703 C704 1.394 . S
C703 C709 1.465 . S
C704 C699 1.399 . S
C704 C703 1.394 . S
C704 C705 1.516 . S
C705 C704 1.516 . S
C705 C706 1.502 . S
C705 C707 1.561 . S
C705 C708 1.526 . S
C706 H690 0.959 . S
C706 H691 0.959 . S
C706 H692 0.961 . S
C706 C705 1.502 . S
C707 H693 0.960 . S
C707 H694 0.961 . S
C707 H695 0.959 . S
C707 C705 1.561 . S
C708 C705 1.526 . S
C708 C709 1.396 . S
C708 C713 1.390 . S
C709 C703 1.465 . S
C709 C708 1.396 . S
C709 C710 1.399 . S
C710 H696 0.929 . S
C710 C709 1.399 . S
C710 C711 1.385 . S
C711 H697 0.931 . S
C711 C710 1.385 . S
C711 C712 1.389 . S
C712 C711 1.389 . S
C712 C713 1.387 . S
C713 H698 0.930 . S
C713 C708 1.390 . S
C713 C712 1.387 . S
H714 C726 0.930 . S
H715 C728 0.930 . S
H716 C729 0.930 . S
H717 C733 0.959 . S
H718 C733 0.959 . S
H719 C733 0.961 . S
H720 C734 0.960 . S
H721 C734 0.961 . S
H722 C734 0.959 . S
H723 C737 0.929 . S
H724 C738 0.931 . S
H725 C740 0.930 . S
C726 H714 0.930 . S
C726 C727 1.399 . S
C726 C731 1.399 . S
C727 C726 1.399 . S
C727 C728 1.376 . S
C728 H715 0.930 . S
C728 C727 1.376 . S
C728 C729 1.388 . S
C729 H716 0.930 . S
C729 C728 1.388 . S
C729 C730 1.390 . S
C730 C729 1.390 . S
C730 C731 1.394 . S
C730 C736 1.465 . S
C731 C726 1.399 . S
C731 C730 1.394 . S
C731 C732 1.516 . S
C732 C731 1.516 . S
C732 C733 1.502 . S
C732 C734 1.561 . S
C732 C735 1.526 . S
C733 H717 0.959 . S
C733 H718 0.959 . S
C733 H719 0.961 . S
C733 C732 1.502 . S
C734 H720 0.960 . S
C734 H721 0.961 . S
C734 H722 0.959 . S
C734 C732 1.561 . S
C735 C732 1.526 . S
C735 C736 1.396 . S
C735 C740 1.390 . S
C736 C730 1.465 . S
C736 C735 1.396 . S
C736 C737 1.399 . S
C737 H723 0.929 . S
C737 C736 1.399 . S
C737 C738 1.385 . S
C738 H724 0.931 . S
C738 C737 1.385 . S
C738 C739 1.389 . S
C739 C738 1.389 . S
C739 C740 1.387 . S
C740 H725 0.930 . S
C740 C735 1.390 . S
C740 C739 1.387 . S
H741 C753 0.930 . S
H742 C755 0.930 . S
H743 C756 0.930 . S
H744 C760 0.959 . S
H745 C760 0.959 . S
H746 C760 0.961 . S
H747 C761 0.960 . S
H748 C761 0.961 . S
H749 C761 0.959 . S
H750 C764 0.929 . S
H751 C765 0.931 . S
H752 C767 0.930 . S
C753 H741 0.930 . S
C753 C754 1.399 . S
C753 C758 1.399 . S
C754 C753 1.399 . S
C754 C755 1.376 . S
C755 H742 0.930 . S
C755 C754 1.376 . S
C755 C756 1.388 . S
C756 H743 0.930 . S
C756 C755 1.388 . S
C756 C757 1.390 . S
C757 C756 1.390 . S
C757 C758 1.394 . S
C757 C763 1.465 . S
C758 C753 1.399 . S
C758 C757 1.394 . S
C758 C759 1.516 . S
C759 C758 1.516 . S
C759 C760 1.502 . S
C759 C761 1.561 . S
C759 C762 1.526 . S
C760 H744 0.959 . S
C760 H745 0.959 . S
C760 H746 0.961 . S
C760 C759 1.502 . S
C761 H747 0.960 . S
C761 H748 0.961 . S
C761 H749 0.959 . S
C761 C759 1.561 . S
C762 C759 1.526 . S
C762 C763 1.396 . S
C762 C767 1.390 . S
C763 C757 1.465 . S
C763 C762 1.396 . S
C763 C764 1.399 . S
C764 H750 0.929 . S
C764 C763 1.399 . S
C764 C765 1.385 . S
C765 H751 0.931 . S
C765 C764 1.385 . S
C765 C766 1.389 . S
C766 C765 1.389 . S
C766 C767 1.387 . S
C767 H752 0.930 . S
C767 C762 1.390 . S
C767 C766 1.387 . S
H768 C780 0.930 . S
H769 C782 0.930 . S
H770 C783 0.930 . S
H771 C787 0.959 . S
H772 C787 0.959 . S
H773 C787 0.961 . S
H774 C788 0.960 . S
H775 C788 0.961 . S
H776 C788 0.959 . S
H777 C791 0.929 . S
H778 C792 0.931 . S
H779 C794 0.930 . S
C780 H768 0.930 . S
C780 C781 1.399 . S
C780 C785 1.399 . S
C781 C780 1.399 . S
C781 C782 1.376 . S
C782 H769 0.930 . S
C782 C781 1.376 . S
C782 C783 1.388 . S
C783 H770 0.930 . S
C783 C782 1.388 . S
C783 C784 1.390 . S
C784 C783 1.390 . S
C784 C785 1.394 . S
C784 C790 1.465 . S
C785 C780 1.399 . S
C785 C784 1.394 . S
C785 C786 1.516 . S
C786 C785 1.516 . S
C786 C787 1.502 . S
C786 C788 1.561 . S
C786 C789 1.526 . S
C787 H771 0.959 . S
C787 H772 0.959 . S
C787 H773 0.961 . S
C787 C786 1.502 . S
C788 H774 0.960 . S
C788 H775 0.961 . S
C788 H776 0.959 . S
C788 C786 1.561 . S
C789 C786 1.526 . S
C789 C790 1.396 . S
C789 C794 1.390 . S
C790 C784 1.465 . S
C790 C789 1.396 . S
C790 C791 1.399 . S
C791 H777 0.929 . S
C791 C790 1.399 . S
C791 C792 1.385 . S
C792 H778 0.931 . S
C792 C791 1.385 . S
C792 C793 1.389 . S
C793 C792 1.389 . S
C793 C794 1.387 . S
C794 H779 0.930 . S
C794 C789 1.390 . S
C794 C793 1.387 . S
H795 C807 0.930 . S
H796 C809 0.930 . S
H797 C810 0.930 . S
H798 C814 0.959 . S
H799 C814 0.959 . S
H800 C814 0.961 . S
H801 C815 0.960 . S
H802 C815 0.961 . S
H803 C815 0.959 . S
H804 C818 0.929 . S
H805 C819 0.931 . S
H806 C821 0.930 . S
C807 H795 0.930 . S
C807 C808 1.399 . S
C807 C812 1.399 . S
C808 C807 1.399 . S
C808 C809 1.376 . S
C809 H796 0.930 . S
C809 C808 1.376 . S
C809 C810 1.388 . S
C810 H797 0.930 . S
C810 C809 1.388 . S
C810 C811 1.390 . S
C811 C810 1.390 . S
C811 C812 1.394 . S
C811 C817 1.465 . S
C812 C807 1.399 . S
C812 C811 1.394 . S
C812 C813 1.516 . S
C813 C812 1.516 . S
C813 C814 1.502 . S
C813 C815 1.561 . S
C813 C816 1.526 . S
C814 H798 0.959 . S
C814 H799 0.959 . S
C814 H800 0.961 . S
C814 C813 1.502 . S
C815 H801 0.960 . S
C815 H802 0.961 . S
C815 H803 0.959 . S
C815 C813 1.561 . S
C816 C813 1.526 . S
C816 C817 1.396 . S
C816 C821 1.390 . S
C817 C811 1.465 . S
C817 C816 1.396 . S
C817 C818 1.399 . S
C818 H804 0.929 . S
C818 C817 1.399 . S
C818 C819 1.385 . S
C819 H805 0.931 . S
C819 C818 1.385 . S
C819 C820 1.389 . S
C820 C819 1.389 . S
C820 C821 1.387 . S
C821 H806 0.930 . S
C821 C816 1.390 . S
C821 C820 1.387 . S
H822 C834 0.930 . S
H823 C836 0.930 . S
H824 C837 0.930 . S
H825 C841 0.959 . S
H826 C841 0.959 . S
H827 C841 0.961 . S
H828 C842 0.960 . S
H829 C842 0.961 . S
H830 C842 0.959 . S
H831 C845 0.929 . S
H832 C846 0.931 . S
H833 C848 0.930 . S
C834 H822 0.930 . S
C834 C835 1.399 . S
C834 C839 1.399 . S
C835 C834 1.399 . S
C835 C836 1.376 . S
C836 H823 0.930 . S
C836 C835 1.376 . S
C836 C837 1.388 . S
C837 H824 0.930 . S
C837 C836 1.388 . S
C837 C838 1.390 . S
C838 C837 1.390 . S
C838 C839 1.394 . S
C838 C844 1.465 . S
C839 C834 1.399 . S
C839 C838 1.394 . S
C839 C840 1.516 . S
C840 C839 1.516 . S
C840 C841 1.502 . S
C840 C842 1.561 . S
C840 C843 1.526 . S
C841 H825 0.959 . S
C841 H826 0.959 . S
C841 H827 0.961 . S
C841 C840 1.502 . S
C842 H828 0.960 . S
C842 H829 0.961 . S
C842 H830 0.959 . S
C842 C840 1.561 . S
C843 C840 1.526 . S
C843 C844 1.396 . S
C843 C848 1.390 . S
C844 C838 1.465 . S
C844 C843 1.396 . S
C844 C845 1.399 . S
C845 H831 0.929 . S
C845 C844 1.399 . S
C845 C846 1.385 . S
C846 H832 0.931 . S
C846 C845 1.385 . S
C846 C847 1.389 . S
C847 C846 1.389 . S
C847 C848 1.387 . S
C848 H833 0.930 . S
C848 C843 1.390 . S
C848 C847 1.387 . S
H849 C861 0.930 . S
H850 C863 0.930 . S
H851 C864 0.930 . S
H852 C868 0.959 . S
H853 C868 0.959 . S
H854 C868 0.961 . S
H855 C869 0.960 . S
H856 C869 0.961 . S
H857 C869 0.959 . S
H858 C872 0.929 . S
H859 C873 0.931 . S
H860 C875 0.930 . S
C861 H849 0.930 . S
C861 C862 1.399 . S
C861 C866 1.399 . S
C862 C861 1.399 . S
C862 C863 1.376 . S
C863 H850 0.930 . S
C863 C862 1.376 . S
C863 C864 1.388 . S
C864 H851 0.930 . S
C864 C863 1.388 . S
C864 C865 1.390 . S
C865 C864 1.390 . S
C865 C866 1.394 . S
C865 C871 1.465 . S
C866 C861 1.399 . S
C866 C865 1.394 . S
C866 C867 1.516 . S
C867 C866 1.516 . S
C867 C868 1.502 . S
C867 C869 1.561 . S
C867 C870 1.526 . S
C868 H852 0.959 . S
C868 H853 0.959 . S
C868 H854 0.961 . S
C868 C867 1.502 . S
C869 H855 0.960 . S
C869 H856 0.961 . S
C869 H857 0.959 . S
C869 C867 1.561 . S
C870 C867 1.526 . S
C870 C871 1.396 . S
C870 C875 1.390 . S
C871 C865 1.465 . S
C871 C870 1.396 . S
C871 C872 1.399 . S
C872 H858 0.929 . S
C872 C871 1.399 . S
C872 C873 1.385 . S
C873 H859 0.931 . S
C873 C872 1.385 . S
C873 C874 1.389 . S
C874 C873 1.389 . S
C874 C875 1.387 . S
C875 H860 0.930 . S
C875 C870 1.390 . S
C875 C874 1.387 . S
H876 C888 0.930 . S
H877 C890 0.930 . S
H878 C891 0.930 . S
H879 C895 0.959 . S
H880 C895 0.959 . S
H881 C895 0.961 . S
H882 C896 0.960 . S
H883 C896 0.961 . S
H884 C896 0.959 . S
H885 C899 0.929 . S
H886 C900 0.931 . S
H887 C902 0.930 . S
C888 H876 0.930 . S
C888 C889 1.399 . S
C888 C893 1.399 . S
C889 C888 1.399 . S
C889 C890 1.376 . S
C890 H877 0.930 . S
C890 C889 1.376 . S
C890 C891 1.388 . S
C891 H878 0.930 . S
C891 C890 1.388 . S
C891 C892 1.390 . S
C892 C891 1.390 . S
C892 C893 1.394 . S
C892 C898 1.465 . S
C893 C888 1.399 . S
C893 C892 1.394 . S
C893 C894 1.516 . S
C894 C893 1.516 . S
C894 C895 1.502 . S
C894 C896 1.561 . S
C894 C897 1.526 . S
C895 H879 0.959 . S
C895 H880 0.959 . S
C895 H881 0.961 . S
C895 C894 1.502 . S
C896 H882 0.960 . S
C896 H883 0.961 . S
C896 H884 0.959 . S
C896 C894 1.561 . S
C897 C894 1.526 . S
C897 C898 1.396 . S
C897 C902 1.390 . S
C898 C892 1.465 . S
C898 C897 1.396 . S
C898 C899 1.399 . S
C899 H885 0.929 . S
C899 C898 1.399 . S
C899 C900 1.385 . S
C900 H886 0.931 . S
C900 C899 1.385 . S
C900 C901 1.389 . S
C901 C900 1.389 . S
C901 C902 1.387 . S
C902 H887 0.930 . S
C902 C897 1.390 . S
C902 C901 1.387 . S
H903 C915 0.930 . S
H904 C917 0.930 . S
H905 C918 0.930 . S
H906 C922 0.959 . S
H907 C922 0.959 . S
H908 C922 0.961 . S
H909 C923 0.960 . S
H910 C923 0.961 . S
H911 C923 0.959 . S
H912 C926 0.929 . S
H913 C927 0.931 . S
H914 C929 0.930 . S
C915 H903 0.930 . S
C915 C916 1.399 . S
C915 C920 1.399 . S
C916 C915 1.399 . S
C916 C917 1.376 . S
C917 H904 0.930 . S
C917 C916 1.376 . S
C917 C918 1.388 . S
C918 H905 0.930 . S
C918 C917 1.388 . S
C918 C919 1.390 . S
C919 C918 1.390 . S
C919 C920 1.394 . S
C919 C925 1.465 . S
C920 C915 1.399 . S
C920 C919 1.394 . S
C920 C921 1.516 . S
C921 C920 1.516 . S
C921 C922 1.502 . S
C921 C923 1.561 . S
C921 C924 1.526 . S
C922 H906 0.959 . S
C922 H907 0.959 . S
C922 H908 0.961 . S
C922 C921 1.502 . S
C923 H909 0.960 . S
C923 H910 0.961 . S
C923 H911 0.959 . S
C923 C921 1.561 . S
C924 C921 1.526 . S
C924 C925 1.396 . S
C924 C929 1.390 . S
C925 C919 1.465 . S
C925 C924 1.396 . S
C925 C926 1.399 . S
C926 H912 0.929 . S
C926 C925 1.399 . S
C926 C927 1.385 . S
C927 H913 0.931 . S
C927 C926 1.385 . S
C927 C928 1.389 . S
C928 C927 1.389 . S
C928 C929 1.387 . S
C929 H914 0.930 . S
C929 C924 1.390 . S
C929 C928 1.387 . S
H930 C942 0.930 . S
H931 C944 0.930 . S
H932 C945 0.930 . S
H933 C949 0.959 . S
H934 C949 0.959 . S
H935 C949 0.961 . S
H936 C950 0.960 . S
H937 C950 0.961 . S
H938 C950 0.959 . S
H939 C953 0.929 . S
H940 C954 0.931 . S
H941 C956 0.930 . S
C942 H930 0.930 . S
C942 C943 1.399 . S
C942 C947 1.399 . S
C943 C942 1.399 . S
C943 C944 1.376 . S
C944 H931 0.930 . S
C944 C943 1.376 . S
C944 C945 1.388 . S
C945 H932 0.930 . S
C945 C944 1.388 . S
C945 C946 1.390 . S
C946 C945 1.390 . S
C946 C947 1.394 . S
C946 C952 1.465 . S
C947 C942 1.399 . S
C947 C946 1.394 . S
C947 C948 1.516 . S
C948 C947 1.516 . S
C948 C949 1.502 . S
C948 C950 1.561 . S
C948 C951 1.526 . S
C949 H933 0.959 . S
C949 H934 0.959 . S
C949 H935 0.961 . S
C949 C948 1.502 . S
C950 H936 0.960 . S
C950 H937 0.961 . S
C950 H938 0.959 . S
C950 C948 1.561 . S
C951 C948 1.526 . S
C951 C952 1.396 . S
C951 C956 1.390 . S
C952 C946 1.465 . S
C952 C951 1.396 . S
C952 C953 1.399 . S
C953 H939 0.929 . S
C953 C952 1.399 . S
C953 C954 1.385 . S
C954 H940 0.931 . S
C954 C953 1.385 . S
C954 C955 1.389 . S
C955 C954 1.389 . S
C955 C956 1.387 . S
C956 H941 0.930 . S
C956 C951 1.390 . S
C956 C955 1.387 . S
H957 C969 0.930 . S
H958 C971 0.930 . S
H959 C972 0.930 . S
H960 C976 0.959 . S
H961 C976 0.959 . S
H962 C976 0.961 . S
H963 C977 0.960 . S
H964 C977 0.961 . S
H965 C977 0.959 . S
H966 C980 0.929 . S
H967 C981 0.931 . S
H968 C983 0.930 . S
C969 H957 0.930 . S
C969 C970 1.399 . S
C969 C974 1.399 . S
C970 C969 1.399 . S
C970 C971 1.376 . S
C971 H958 0.930 . S
C971 C970 1.376 . S
C971 C972 1.388 . S
C972 H959 0.930 . S
C972 C971 1.388 . S
C972 C973 1.390 . S
C973 C972 1.390 . S
C973 C974 1.394 . S
C973 C979 1.465 . S
C974 C969 1.399 . S
C974 C973 1.394 . S
C974 C975 1.516 . S
C975 C974 1.516 . S
C975 C976 1.502 . S
C975 C977 1.561 . S
C975 C978 1.526 . S
C976 H960 0.959 . S
C976 H961 0.959 . S
C976 H962 0.961 . S
C976 C975 1.502 . S
C977 H963 0.960 . S
C977 H964 0.961 . S
C977 H965 0.959 . S
C977 C975 1.561 . S
C978 C975 1.526 . S
C978 C979 1.396 . S
C978 C983 1.390 . S
C979 C973 1.465 . S
C979 C978 1.396 . S
C979 C980 1.399 . S
C980 H966 0.929 . S
C980 C979 1.399 . S
C980 C981 1.385 . S
C981 H967 0.931 . S
C981 C980 1.385 . S
C981 C982 1.389 . S
C982 C981 1.389 . S
C982 C983 1.387 . S
C983 H968 0.930 . S
C983 C978 1.390 . S
C983 C982 1.387 . S
H984 C996 0.930 . S
H985 C998 0.930 . S
H986 C999 0.930 . S
H987 C1003 0.959 . S
H988 C1003 0.959 . S
H989 C1003 0.961 1_455 S
H990 C1004 0.960 . S
H991 C1004 0.961 1_655 S
H992 C1004 0.959 . S
H993 C1007 0.929 . S
H994 C1008 0.931 . S
H995 C1010 0.930 . S
C996 H984 0.930 . S
C996 C997 1.399 . S
C996 C1001 1.399 . S
C997 C996 1.399 . S
C997 C998 1.376 . S
C998 H985 0.930 . S
C998 C997 1.376 . S
C998 C999 1.388 . S
C999 H986 0.930 . S
C999 C998 1.388 . S
C999 C1000 1.390 . S
C1000 C999 1.390 . S
C1000 C1001 1.394 . S
C1000 C1006 1.465 1_455 S
C1001 C996 1.399 . S
C1001 C1000 1.394 . S
C1001 C1002 1.516 1_455 S
C1002 C1001 1.516 1_655 S
C1002 C1003 1.502 . S
C1002 C1004 1.561 1_655 S
C1002 C1005 1.526 . S
C1003 H987 0.959 . S
C1003 H988 0.959 . S
C1003 H989 0.961 1_655 S
C1003 C1002 1.502 . S
C1004 H990 0.960 . S
C1004 H991 0.961 1_455 S
C1004 H992 0.959 . S
C1004 C1002 1.561 1_455 S
C1005 C1002 1.526 . S
C1005 C1006 1.396 . S
C1005 C1010 1.390 . S
C1006 C1000 1.465 1_655 S
C1006 C1005 1.396 . S
C1006 C1007 1.399 . S
C1007 H993 0.929 . S
C1007 C1006 1.399 . S
C1007 C1008 1.385 . S
C1008 H994 0.931 . S
C1008 C1007 1.385 . S
C1008 C1009 1.389 . S
C1009 C1008 1.389 . S
C1009 C1010 1.387 . S
C1010 H995 0.930 . S
C1010 C1005 1.390 . S
C1010 C1009 1.387 . S
H1011 C1023 0.930 . S
H1012 C1025 0.930 . S
H1013 C1026 0.930 . S
H1014 C1030 0.959 . S
H1015 C1030 0.955 1_565 S
H1016 C1030 0.961 . S
H1017 C1031 0.960 . S
H1018 C1031 0.961 1_565 S
H1019 C1031 0.959 1_565 S
H1020 C1034 0.929 . S
H1021 C1035 0.931 . S
H1022 C1037 0.930 . S
C1023 H1011 0.930 . S
C1023 C1024 1.399 . S
C1023 C1028 1.399 . S
C1024 C1023 1.399 . S
C1024 C1025 1.376 . S
C1025 H1012 0.930 . S
C1025 C1024 1.376 . S
C1025 C1026 1.388 . S
C1026 H1013 0.930 . S
C1026 C1025 1.388 . S
C1026 C1027 1.390 . S
C1027 C1026 1.390 . S
C1027 C1028 1.394 . S
C1027 C1033 1.465 1_545 S
C1028 C1023 1.399 . S
C1028 C1027 1.394 . S
C1028 C1029 1.516 . S
C1029 C1028 1.516 . S
C1029 C1030 1.502 . S
C1029 C1031 1.561 . S
C1029 C1032 1.526 1_545 S
C1030 H1014 0.959 . S
C1030 H1015 0.955 1_545 S
C1030 H1016 0.961 . S
C1030 C1029 1.502 . S
C1031 H1017 0.960 . S
C1031 H1018 0.961 1_545 S
C1031 H1019 0.959 1_545 S
C1031 C1029 1.561 . S
C1032 C1029 1.526 1_565 S
C1032 C1033 1.396 . S
C1032 C1037 1.390 . S
C1033 C1027 1.465 1_565 S
C1033 C1032 1.396 . S
C1033 C1034 1.399 . S
C1034 H1020 0.929 . S
C1034 C1033 1.399 . S
C1034 C1035 1.385 . S
C1035 H1021 0.931 . S
C1035 C1034 1.385 . S
C1035 C1036 1.389 . S
C1036 C1035 1.389 . S
C1036 C1037 1.387 . S
C1037 H1022 0.930 . S
C1037 C1032 1.390 . S
C1037 C1036 1.387 . S
H1038 C1050 0.930 . S
H1039 C1052 0.930 . S
H1040 C1053 0.930 . S
H1041 C1057 0.959 . S
H1042 C1057 0.959 . S
H1043 C1057 0.961 1_655 S
H1044 C1058 0.960 . S
H1045 C1058 0.961 1_455 S
H1046 C1058 0.959 . S
H1047 C1061 0.929 . S
H1048 C1062 0.931 . S
H1049 C1064 0.930 . S
C1050 H1038 0.930 . S
C1050 C1051 1.399 . S
C1050 C1055 1.399 . S
C1051 C1050 1.399 . S
C1051 C1052 1.376 . S
C1052 H1039 0.930 . S
C1052 C1051 1.376 . S
C1052 C1053 1.388 . S
C1053 H1040 0.930 . S
C1053 C1052 1.388 . S
C1053 C1054 1.390 . S
C1054 C1053 1.390 . S
C1054 C1055 1.394 . S
C1054 C1060 1.465 1_655 S
C1055 C1050 1.399 . S
C1055 C1054 1.394 . S
C1055 C1056 1.516 1_655 S
C1056 C1055 1.516 1_455 S
C1056 C1057 1.502 . S
C1056 C1058 1.561 1_455 S
C1056 C1059 1.526 . S
C1057 H1041 0.959 . S
C1057 H1042 0.959 . S
C1057 H1043 0.961 1_455 S
C1057 C1056 1.502 . S
C1058 H1044 0.960 . S
C1058 H1045 0.961 1_655 S
C1058 H1046 0.959 . S
C1058 C1056 1.561 1_655 S
C1059 C1056 1.526 . S
C1059 C1060 1.396 . S
C1059 C1064 1.390 . S
C1060 C1054 1.465 1_455 S
C1060 C1059 1.396 . S
C1060 C1061 1.399 . S
C1061 H1047 0.929 . S
C1061 C1060 1.399 . S
C1061 C1062 1.385 . S
C1062 H1048 0.931 . S
C1062 C1061 1.385 . S
C1062 C1063 1.389 . S
C1063 C1062 1.389 . S
C1063 C1064 1.387 . S
C1064 H1049 0.930 . S
C1064 C1059 1.390 . S
C1064 C1063 1.387 . S
H1065 C1077 0.930 . S
H1066 C1079 0.930 . S
H1067 C1080 0.930 . S
H1068 C1084 0.959 . S
H1069 C1084 0.959 . S
H1070 C1084 0.961 1_545 S
H1071 C1085 0.943 1_545 S
H1072 C1085 0.961 . S
H1073 C1085 0.959 . S
H1074 C1088 0.929 . S
H1075 C1089 0.931 . S
H1076 C1091 0.930 . S
C1077 H1065 0.930 . S
C1077 C1078 1.399 . S
C1077 C1082 1.399 . S
C1078 C1077 1.399 . S
C1078 C1079 1.376 . S
C1079 H1066 0.930 . S
C1079 C1078 1.376 . S
C1079 C1080 1.388 . S
C1080 H1067 0.930 . S
C1080 C1079 1.388 . S
C1080 C1081 1.390 . S
C1081 C1080 1.390 . S
C1081 C1082 1.394 . S
C1081 C1087 1.465 1_545 S
C1082 C1077 1.399 . S
C1082 C1081 1.394 . S
C1082 C1083 1.516 1_545 S
C1083 C1082 1.516 1_565 S
C1083 C1084 1.502 . S
C1083 C1085 1.561 . S
C1083 C1086 1.526 . S
C1084 H1068 0.959 . S
C1084 H1069 0.959 . S
C1084 H1070 0.961 1_565 S
C1084 C1083 1.502 . S
C1085 H1071 0.943 1_565 S
C1085 H1072 0.961 . S
C1085 H1073 0.959 . S
C1085 C1083 1.561 . S
C1086 C1083 1.526 . S
C1086 C1087 1.396 . S
C1086 C1091 1.390 . S
C1087 C1081 1.465 1_565 S
C1087 C1086 1.396 . S
C1087 C1088 1.399 . S
C1088 H1074 0.929 . S
C1088 C1087 1.399 . S
C1088 C1089 1.385 . S
C1089 H1075 0.931 . S
C1089 C1088 1.385 . S
C1089 C1090 1.389 . S
C1090 C1089 1.389 . S
C1090 C1091 1.387 . S
C1091 H1076 0.930 . S
C1091 C1086 1.390 . S
C1091 C1090 1.387 . S
H1092 C1104 0.930 . S
H1093 C1106 0.930 . S
H1094 C1107 0.930 . S
H1095 C1111 0.959 . S
H1096 C1111 0.959 1_545 S
H1097 C1111 0.961 . S
H1098 C1112 0.960 1_565 S
H1099 C1112 0.961 . S
H1100 C1112 0.959 . S
H1101 C1115 0.929 . S
H1102 C1116 0.931 . S
H1103 C1118 0.930 . S
C1104 H1092 0.930 . S
C1104 C1105 1.399 . S
C1104 C1109 1.399 . S
C1105 C1104 1.399 . S
C1105 C1106 1.376 . S
C1106 H1093 0.930 . S
C1106 C1105 1.376 . S
C1106 C1107 1.388 . S
C1107 H1094 0.930 . S
C1107 C1106 1.388 . S
C1107 C1108 1.390 . S
C1108 C1107 1.390 . S
C1108 C1109 1.394 . S
C1108 C1114 1.465 1_565 S
C1109 C1104 1.399 . S
C1109 C1108 1.394 . S
C1109 C1110 1.516 . S
C1110 C1109 1.516 . S
C1110 C1111 1.502 . S
C1110 C1112 1.561 1_565 S
C1110 C1113 1.526 1_565 S
C1111 H1095 0.959 . S
C1111 H1096 0.959 1_565 S
C1111 H1097 0.961 . S
C1111 C1110 1.502 . S
C1112 H1098 0.960 1_545 S
C1112 H1099 0.961 . S
C1112 H1100 0.959 . S
C1112 C1110 1.561 1_545 S
C1113 C1110 1.526 1_545 S
C1113 C1114 1.396 . S
C1113 C1118 1.390 . S
C1114 C1108 1.465 1_545 S
C1114 C1113 1.396 . S
C1114 C1115 1.399 . S
C1115 H1101 0.929 . S
C1115 C1114 1.399 . S
C1115 C1116 1.385 . S
C1116 H1102 0.931 . S
C1116 C1115 1.385 . S
C1116 C1117 1.389 . S
C1117 C1116 1.389 . S
C1117 C1118 1.387 . S
C1118 H1103 0.930 . S
C1118 C1113 1.390 . S
C1118 C1117 1.387 . S
H1119 C1131 0.930 . S
H1120 C1133 0.930 . S
H1121 C1134 0.930 . S
H1122 C1138 0.959 . S
H1123 C1138 0.959 . S
H1124 C1138 0.961 1_655 S
H1125 C1139 0.960 . S
H1126 C1139 0.961 1_455 S
H1127 C1139 0.959 . S
H1128 C1142 0.929 . S
H1129 C1143 0.931 . S
H1130 C1145 0.930 . S
C1131 H1119 0.930 . S
C1131 C1132 1.399 . S
C1131 C1136 1.399 . S
C1132 C1131 1.399 . S
C1132 C1133 1.376 . S
C1133 H1120 0.930 . S
C1133 C1132 1.376 . S
C1133 C1134 1.388 . S
C1134 H1121 0.930 . S
C1134 C1133 1.388 . S
C1134 C1135 1.390 . S
C1135 C1134 1.390 . S
C1135 C1136 1.394 . S
C1135 C1141 1.465 1_655 S
C1136 C1131 1.399 . S
C1136 C1135 1.394 . S
C1136 C1137 1.492 1_655 S
C1137 C1136 1.492 1_455 S
C1137 C1138 1.509 . S
C1137 C1139 1.556 1_455 S
C1137 C1140 1.549 . S
C1138 H1122 0.959 . S
C1138 H1123 0.959 . S
C1138 H1124 0.961 1_455 S
C1138 C1137 1.509 . S
C1139 H1125 0.960 . S
C1139 H1126 0.961 1_655 S
C1139 H1127 0.959 . S
C1139 C1137 1.556 1_655 S
C1140 C1137 1.549 . S
C1140 C1141 1.396 . S
C1140 C1145 1.390 . S
C1141 C1135 1.465 1_455 S
C1141 C1140 1.396 . S
C1141 C1142 1.399 . S
C1142 H1128 0.929 . S
C1142 C1141 1.399 . S
C1142 C1143 1.385 . S
C1143 H1129 0.931 . S
C1143 C1142 1.385 . S
C1143 C1144 1.389 . S
C1144 C1143 1.389 . S
C1144 C1145 1.387 . S
C1145 H1130 0.930 . S
C1145 C1140 1.390 . S
C1145 C1144 1.387 . S
H1146 C1158 0.930 . S
H1147 C1160 0.930 . S
H1148 C1161 0.930 . S
H1149 C1165 0.959 . S
H1150 C1165 0.959 . S
H1151 C1165 0.960 1_565 S
H1152 C1166 0.960 1_565 S
H1153 C1166 0.961 . S
H1154 C1166 0.959 . S
H1155 C1169 0.929 . S
H1156 C1170 0.931 . S
H1157 C1172 0.930 . S
C1158 H1146 0.930 . S
C1158 C1159 1.399 . S
C1158 C1163 1.399 . S
C1159 C1158 1.399 . S
C1159 C1160 1.376 . S
C1160 H1147 0.930 . S
C1160 C1159 1.376 . S
C1160 C1161 1.388 . S
C1161 H1148 0.930 . S
C1161 C1160 1.388 . S
C1161 C1162 1.390 . S
C1162 C1161 1.390 . S
C1162 C1163 1.394 . S
C1162 C1168 1.465 1_565 S
C1163 C1158 1.399 . S
C1163 C1162 1.394 . S
C1163 C1164 1.516 1_565 S
C1164 C1163 1.516 1_545 S
C1164 C1165 1.502 . S
C1164 C1166 1.561 . S
C1164 C1167 1.526 . S
C1165 H1149 0.959 . S
C1165 H1150 0.959 . S
C1165 H1151 0.960 1_545 S
C1165 C1164 1.502 . S
C1166 H1152 0.960 1_545 S
C1166 H1153 0.961 . S
C1166 H1154 0.959 . S
C1166 C1164 1.561 . S
C1167 C1164 1.526 . S
C1167 C1168 1.396 . S
C1167 C1172 1.390 . S
C1168 C1162 1.465 1_545 S
C1168 C1167 1.396 . S
C1168 C1169 1.399 . S
C1169 H1155 0.929 . S
C1169 C1168 1.399 . S
C1169 C1170 1.385 . S
C1170 H1156 0.931 . S
C1170 C1169 1.385 . S
C1170 C1171 1.389 . S
C1171 C1170 1.389 . S
C1171 C1172 1.387 . S
C1172 H1157 0.930 . S
C1172 C1167 1.390 . S
C1172 C1171 1.387 . S
H1173 C1185 0.930 . S
H1174 C1187 0.930 . S
H1175 C1188 0.930 . S
H1176 C1192 0.959 . S
H1177 C1192 0.959 1_455 S
H1178 C1192 0.961 . S
H1179 C1193 0.960 . S
H1180 C1193 0.972 . S
H1181 C1193 0.959 . S
H1182 C1196 0.929 . S
H1183 C1197 0.931 . S
H1184 C1199 0.930 . S
C1185 H1173 0.930 . S
C1185 C1186 1.399 . S
C1185 C1190 1.399 . S
C1186 C1185 1.399 . S
C1186 C1187 1.376 . S
C1187 H1174 0.930 . S
C1187 C1186 1.376 . S
C1187 C1188 1.388 . S
C1188 H1175 0.930 . S
C1188 C1187 1.388 . S
C1188 C1189 1.390 . S
C1189 C1188 1.390 . S
C1189 C1190 1.394 . S
C1189 C1195 1.465 1_655 S
C1190 C1185 1.399 . S
C1190 C1189 1.394 . S
C1190 C1191 1.516 . S
C1191 C1190 1.516 . S
C1191 C1192 1.502 . S
C1191 C1193 1.561 . S
C1191 C1194 1.526 1_655 S
C1192 H1176 0.959 . S
C1192 H1177 0.959 1_655 S
C1192 H1178 0.961 . S
C1192 C1191 1.502 . S
C1193 H1179 0.960 . S
C1193 H1180 0.972 . S
C1193 H1181 0.959 . S
C1193 C1191 1.561 . S
C1194 C1191 1.526 1_455 S
C1194 C1195 1.396 . S
C1194 C1199 1.390 . S
C1195 C1189 1.465 1_455 S
C1195 C1194 1.396 . S
C1195 C1196 1.399 . S
C1196 H1182 0.929 . S
C1196 C1195 1.399 . S
C1196 C1197 1.385 . S
C1197 H1183 0.931 . S
C1197 C1196 1.385 . S
C1197 C1198 1.389 . S
C1198 C1197 1.389 . S
C1198 C1199 1.387 . S
C1199 H1184 0.930 . S
C1199 C1194 1.390 . S
C1199 C1198 1.387 . S
H1200 C1212 0.930 . S
H1201 C1214 0.930 . S
H1202 C1215 0.930 . S
H1203 C1219 0.959 . S
H1204 C1219 0.947 1_554 S
H1205 C1219 0.961 . S
H1206 C1220 0.960 . S
H1207 C1220 0.952 1_554 S
H1208 C1220 0.959 . S
H1209 C1223 0.929 . S
H1210 C1224 0.931 . S
H1211 C1226 0.930 . S
C1212 H1200 0.930 . S
C1212 C1213 1.399 . S
C1212 C1217 1.399 . S
C1213 C1212 1.399 . S
C1213 C1214 1.376 . S
C1214 H1201 0.930 . S
C1214 C1213 1.376 . S
C1214 C1215 1.388 . S
C1215 H1202 0.930 . S
C1215 C1214 1.388 . S
C1215 C1216 1.390 . S
C1216 C1215 1.390 . S
C1216 C1217 1.394 . S
C1216 C1222 1.465 1_556 S
C1217 C1212 1.399 . S
C1217 C1216 1.394 . S
C1217 C1218 1.516 . S
C1218 C1217 1.516 . S
C1218 C1219 1.502 . S
C1218 C1220 1.561 . S
C1218 C1221 1.526 1_556 S
C1219 H1203 0.959 . S
C1219 H1204 0.947 1_556 S
C1219 H1205 0.961 . S
C1219 C1218 1.502 . S
C1220 H1206 0.960 . S
C1220 H1207 0.952 1_556 S
C1220 H1208 0.959 . S
C1220 C1218 1.561 . S
C1221 C1218 1.526 1_554 S
C1221 C1222 1.396 . S
C1221 C1226 1.390 . S
C1222 C1216 1.465 1_554 S
C1222 C1221 1.396 . S
C1222 C1223 1.399 . S
C1223 H1209 0.929 . S
C1223 C1222 1.399 . S
C1223 C1224 1.385 . S
C1224 H1210 0.931 . S
C1224 C1223 1.385 . S
C1224 C1225 1.389 . S
C1225 C1224 1.389 . S
C1225 C1226 1.387 . S
C1226 H1211 0.930 . S
C1226 C1221 1.390 . S
C1226 C1225 1.387 . S
H1227 C1239 0.930 . S
H1228 C1241 0.930 . S
H1229 C1242 0.930 . S
H1230 C1246 0.959 . S
H1231 C1246 0.959 . S
H1232 C1246 0.961 1_556 S
H1233 C1247 0.960 . S
H1234 C1247 0.961 1_554 S
H1235 C1247 0.959 . S
H1236 C1250 0.929 . S
H1237 C1251 0.931 . S
H1238 C1253 0.930 . S
C1239 H1227 0.930 . S
C1239 C1240 1.399 . S
C1239 C1244 1.399 . S
C1240 C1239 1.399 . S
C1240 C1241 1.376 . S
C1241 H1228 0.930 . S
C1241 C1240 1.376 . S
C1241 C1242 1.388 . S
C1242 H1229 0.930 . S
C1242 C1241 1.388 . S
C1242 C1243 1.390 . S
C1243 C1242 1.390 . S
C1243 C1244 1.394 . S
C1243 C1249 1.465 1_556 S
C1244 C1239 1.399 . S
C1244 C1243 1.394 . S
C1244 C1245 1.489 1_556 S
C1245 C1244 1.489 1_554 S
C1245 C1246 1.510 . S
C1245 C1247 1.555 1_554 S
C1245 C1248 1.552 . S
C1246 H1230 0.959 . S
C1246 H1231 0.959 . S
C1246 H1232 0.961 1_554 S
C1246 C1245 1.510 . S
C1247 H1233 0.960 . S
C1247 H1234 0.961 1_556 S
C1247 H1235 0.959 . S
C1247 C1245 1.555 1_556 S
C1248 C1245 1.552 . S
C1248 C1249 1.396 . S
C1248 C1253 1.390 . S
C1249 C1243 1.465 1_554 S
C1249 C1248 1.396 . S
C1249 C1250 1.399 . S
C1250 H1236 0.929 . S
C1250 C1249 1.399 . S
C1250 C1251 1.385 . S
C1251 H1237 0.931 . S
C1251 C1250 1.385 . S
C1251 C1252 1.389 . S
C1252 C1251 1.389 . S
C1252 C1253 1.387 . S
C1253 H1238 0.930 . S
C1253 C1248 1.390 . S
C1253 C1252 1.387 . S
H1254 C1266 0.930 . S
H1255 C1268 0.930 . S
H1256 C1269 0.930 . S
H1257 C1273 0.959 . S
H1258 C1273 0.959 1_554 S
H1259 C1273 0.961 . S
H1260 C1274 0.960 . S
H1261 C1274 0.982 . S
H1262 C1274 0.959 . S
H1263 C1277 0.929 . S
H1264 C1278 0.931 . S
H1265 C1280 0.930 . S
C1266 H1254 0.930 . S
C1266 C1267 1.399 . S
C1266 C1271 1.399 . S
C1267 C1266 1.399 . S
C1267 C1268 1.376 . S
C1268 H1255 0.930 . S
C1268 C1267 1.376 . S
C1268 C1269 1.388 . S
C1269 H1256 0.930 . S
C1269 C1268 1.388 . S
C1269 C1270 1.390 . S
C1270 C1269 1.390 . S
C1270 C1271 1.394 . S
C1270 C1276 1.465 1_556 S
C1271 C1266 1.399 . S
C1271 C1270 1.394 . S
C1271 C1272 1.516 . S
C1272 C1271 1.516 . S
C1272 C1273 1.502 . S
C1272 C1274 1.561 . S
C1272 C1275 1.526 1_556 S
C1273 H1257 0.959 . S
C1273 H1258 0.959 1_556 S
C1273 H1259 0.961 . S
C1273 C1272 1.502 . S
C1274 H1260 0.960 . S
C1274 H1261 0.982 . S
C1274 H1262 0.959 . S
C1274 C1272 1.561 . S
C1275 C1272 1.526 1_554 S
C1275 C1276 1.396 . S
C1275 C1280 1.390 . S
C1276 C1270 1.465 1_554 S
C1276 C1275 1.396 . S
C1276 C1277 1.399 . S
C1277 H1263 0.929 . S
C1277 C1276 1.399 . S
C1277 C1278 1.385 . S
C1278 H1264 0.931 . S
C1278 C1277 1.385 . S
C1278 C1279 1.389 . S
C1279 C1278 1.389 . S
C1279 C1280 1.387 . S
C1280 H1265 0.930 . S
C1280 C1275 1.390 . S
C1280 C1279 1.387 . S
H1281 C1293 0.930 . S
H1282 C1295 0.930 . S
H1283 C1296 0.930 . S
H1284 C1300 0.959 . S
H1285 C1300 0.959 1_554 S
H1286 C1300 0.961 . S
H1287 C1301 0.960 1_556 S
H1288 C1301 0.961 . S
H1289 C1301 0.959 . S
H1290 C1304 0.929 . S
H1291 C1305 0.931 . S
H1292 C1307 0.930 . S
C1293 H1281 0.930 . S
C1293 C1294 1.399 . S
C1293 C1298 1.399 . S
C1294 C1293 1.399 . S
C1294 C1295 1.376 . S
C1295 H1282 0.930 . S
C1295 C1294 1.376 . S
C1295 C1296 1.388 . S
C1296 H1283 0.930 . S
C1296 C1295 1.388 . S
C1296 C1297 1.390 . S
C1297 C1296 1.390 . S
C1297 C1298 1.394 . S
C1297 C1303 1.465 1_556 S
C1298 C1293 1.399 . S
C1298 C1297 1.394 . S
C1298 C1299 1.516 . S
C1299 C1298 1.516 . S
C1299 C1300 1.502 . S
C1299 C1301 1.561 1_556 S
C1299 C1302 1.526 1_556 S
C1300 H1284 0.959 . S
C1300 H1285 0.959 1_556 S
C1300 H1286 0.961 . S
C1300 C1299 1.502 . S
C1301 H1287 0.960 1_554 S
C1301 H1288 0.961 . S
C1301 H1289 0.959 . S
C1301 C1299 1.561 1_554 S
C1302 C1299 1.526 1_554 S
C1302 C1303 1.396 . S
C1302 C1307 1.390 . S
C1303 C1297 1.465 1_554 S
C1303 C1302 1.396 . S
C1303 C1304 1.399 . S
C1304 H1290 0.929 . S
C1304 C1303 1.399 . S
C1304 C1305 1.385 . S
C1305 H1291 0.931 . S
C1305 C1304 1.385 . S
C1305 C1306 1.389 . S
C1306 C1305 1.389 . S
C1306 C1307 1.387 . S
C1307 H1292 0.930 . S
C1307 C1302 1.390 . S
C1307 C1306 1.387 . S
H1308 C1320 0.930 . S
H1309 C1322 0.930 . S
H1310 C1323 0.930 . S
H1311 C1327 0.959 . S
H1312 C1327 0.959 . S
H1313 C1327 0.961 . S
H1314 C1328 0.960 . S
H1315 C1328 0.961 . S
H1316 C1328 0.959 . S
H1317 C1331 0.929 . S
H1318 C1332 0.931 . S
H1319 C1334 0.930 . S
C1320 H1308 0.930 . S
C1320 C1321 1.399 . S
C1320 C1325 1.399 . S
C1321 C1320 1.399 . S
C1321 C1322 1.376 . S
C1322 H1309 0.930 . S
C1322 C1321 1.376 . S
C1322 C1323 1.388 . S
C1323 H1310 0.930 . S
C1323 C1322 1.388 . S
C1323 C1324 1.390 . S
C1324 C1323 1.390 . S
C1324 C1325 1.394 . S
C1324 C1330 1.465 . S
C1325 C1320 1.399 . S
C1325 C1324 1.394 . S
C1325 C1326 1.516 . S
C1326 C1325 1.516 . S
C1326 C1327 1.502 . S
C1326 C1328 1.561 . S
C1326 C1329 1.526 . S
C1327 H1311 0.959 . S
C1327 H1312 0.959 . S
C1327 H1313 0.961 . S
C1327 C1326 1.502 . S
C1328 H1314 0.960 . S
C1328 H1315 0.961 . S
C1328 H1316 0.959 . S
C1328 C1326 1.561 . S
C1329 C1326 1.526 . S
C1329 C1330 1.396 . S
C1329 C1334 1.390 . S
C1330 C1324 1.465 . S
C1330 C1329 1.396 . S
C1330 C1331 1.399 . S
C1331 H1317 0.929 . S
C1331 C1330 1.399 . S
C1331 C1332 1.385 . S
C1332 H1318 0.931 . S
C1332 C1331 1.385 . S
C1332 C1333 1.389 . S
C1333 C1332 1.389 . S
C1333 C1334 1.387 . S
C1334 H1319 0.930 . S
C1334 C1329 1.390 . S
C1334 C1333 1.387 . S
H1335 C1347 0.930 . S
H1336 C1349 0.930 . S
H1337 C1350 0.930 . S
H1338 C1354 0.959 . S
H1339 C1354 0.959 . S
H1340 C1354 0.961 . S
H1341 C1355 0.960 . S
H1342 C1355 0.961 . S
H1343 C1355 0.959 . S
H1344 C1358 0.929 . S
H1345 C1359 0.931 . S
H1346 C1361 0.930 . S
C1347 H1335 0.930 . S
C1347 C1348 1.399 . S
C1347 C1352 1.399 . S
C1348 C1347 1.399 . S
C1348 C1349 1.376 . S
C1349 H1336 0.930 . S
C1349 C1348 1.376 . S
C1349 C1350 1.388 . S
C1350 H1337 0.930 . S
C1350 C1349 1.388 . S
C1350 C1351 1.390 . S
C1351 C1350 1.390 . S
C1351 C1352 1.394 . S
C1351 C1357 1.465 . S
C1352 C1347 1.399 . S
C1352 C1351 1.394 . S
C1352 C1353 1.516 . S
C1353 C1352 1.516 . S
C1353 C1354 1.502 . S
C1353 C1355 1.561 . S
C1353 C1356 1.526 . S
C1354 H1338 0.959 . S
C1354 H1339 0.959 . S
C1354 H1340 0.961 . S
C1354 C1353 1.502 . S
C1355 H1341 0.960 . S
C1355 H1342 0.961 . S
C1355 H1343 0.959 . S
C1355 C1353 1.561 . S
C1356 C1353 1.526 . S
C1356 C1357 1.396 . S
C1356 C1361 1.390 . S
C1357 C1351 1.465 . S
C1357 C1356 1.396 . S
C1357 C1358 1.399 . S
C1358 H1344 0.929 . S
C1358 C1357 1.399 . S
C1358 C1359 1.385 . S
C1359 H1345 0.931 . S
C1359 C1358 1.385 . S
C1359 C1360 1.389 . S
C1360 C1359 1.389 . S
C1360 C1361 1.387 . S
C1361 H1346 0.930 . S
C1361 C1356 1.390 . S
C1361 C1360 1.387 . S
H1362 C1374 0.930 . S
H1363 C1376 0.930 . S
H1364 C1377 0.930 . S
H1365 C1381 0.959 . S
H1366 C1381 0.959 . S
H1367 C1381 0.961 . S
H1368 C1382 0.960 . S
H1369 C1382 0.961 . S
H1370 C1382 0.959 . S
H1371 C1385 0.929 . S
H1372 C1386 0.931 . S
H1373 C1388 0.930 . S
C1374 H1362 0.930 . S
C1374 C1375 1.399 . S
C1374 C1379 1.399 . S
C1375 C1374 1.399 . S
C1375 C1376 1.376 . S
C1376 H1363 0.930 . S
C1376 C1375 1.376 . S
C1376 C1377 1.388 . S
C1377 H1364 0.930 . S
C1377 C1376 1.388 . S
C1377 C1378 1.390 . S
C1378 C1377 1.390 . S
C1378 C1379 1.394 . S
C1378 C1384 1.465 . S
C1379 C1374 1.399 . S
C1379 C1378 1.394 . S
C1379 C1380 1.516 . S
C1380 C1379 1.516 . S
C1380 C1381 1.502 . S
C1380 C1382 1.561 . S
C1380 C1383 1.526 . S
C1381 H1365 0.959 . S
C1381 H1366 0.959 . S
C1381 H1367 0.961 . S
C1381 C1380 1.502 . S
C1382 H1368 0.960 . S
C1382 H1369 0.961 . S
C1382 H1370 0.959 . S
C1382 C1380 1.561 . S
C1383 C1380 1.526 . S
C1383 C1384 1.396 . S
C1383 C1388 1.390 . S
C1384 C1378 1.465 . S
C1384 C1383 1.396 . S
C1384 C1385 1.399 . S
C1385 H1371 0.929 . S
C1385 C1384 1.399 . S
C1385 C1386 1.385 . S
C1386 H1372 0.931 . S
C1386 C1385 1.385 . S
C1386 C1387 1.389 . S
C1387 C1386 1.389 . S
C1387 C1388 1.387 . S
C1388 H1373 0.930 . S
C1388 C1383 1.390 . S
C1388 C1387 1.387 . S
H1389 C1401 0.930 . S
H1390 C1403 0.930 . S
H1391 C1404 0.930 . S
H1392 C1408 0.959 . S
H1393 C1408 0.959 . S
H1394 C1408 0.961 . S
H1395 C1409 0.960 . S
H1396 C1409 0.961 . S
H1397 C1409 0.959 . S
H1398 C1412 0.929 . S
H1399 C1413 0.931 . S
H1400 C1415 0.930 . S
C1401 H1389 0.930 . S
C1401 C1402 1.399 . S
C1401 C1406 1.399 . S
C1402 C1401 1.399 . S
C1402 C1403 1.376 . S
C1403 H1390 0.930 . S
C1403 C1402 1.376 . S
C1403 C1404 1.388 . S
C1404 H1391 0.930 . S
C1404 C1403 1.388 . S
C1404 C1405 1.390 . S
C1405 C1404 1.390 . S
C1405 C1406 1.394 . S
C1405 C1411 1.465 . S
C1406 C1401 1.399 . S
C1406 C1405 1.394 . S
C1406 C1407 1.516 . S
C1407 C1406 1.516 . S
C1407 C1408 1.502 . S
C1407 C1409 1.561 . S
C1407 C1410 1.526 . S
C1408 H1392 0.959 . S
C1408 H1393 0.959 . S
C1408 H1394 0.961 . S
C1408 C1407 1.502 . S
C1409 H1395 0.960 . S
C1409 H1396 0.961 . S
C1409 H1397 0.959 . S
C1409 C1407 1.561 . S
C1410 C1407 1.526 . S
C1410 C1411 1.396 . S
C1410 C1415 1.390 . S
C1411 C1405 1.465 . S
C1411 C1410 1.396 . S
C1411 C1412 1.399 . S
C1412 H1398 0.929 . S
C1412 C1411 1.399 . S
C1412 C1413 1.385 . S
C1413 H1399 0.931 . S
C1413 C1412 1.385 . S
C1413 C1414 1.389 . S
C1414 C1413 1.389 . S
C1414 C1415 1.387 . S
C1415 H1400 0.930 . S
C1415 C1410 1.390 . S
C1415 C1414 1.387 . S
H1416 C1428 0.930 . S
H1417 C1430 0.930 . S
H1418 C1431 0.930 . S
H1419 C1435 0.959 . S
H1420 C1435 0.959 . S
H1421 C1435 0.961 . S
H1422 C1436 0.960 . S
H1423 C1436 0.961 . S
H1424 C1436 0.959 . S
H1425 C1439 0.929 . S
H1426 C1440 0.931 . S
H1427 C1442 0.930 . S
C1428 H1416 0.930 . S
C1428 C1429 1.399 . S
C1428 C1433 1.399 . S
C1429 C1428 1.399 . S
C1429 C1430 1.376 . S
C1430 H1417 0.930 . S
C1430 C1429 1.376 . S
C1430 C1431 1.388 . S
C1431 H1418 0.930 . S
C1431 C1430 1.388 . S
C1431 C1432 1.390 . S
C1432 C1431 1.390 . S
C1432 C1433 1.394 . S
C1432 C1438 1.465 . S
C1433 C1428 1.399 . S
C1433 C1432 1.394 . S
C1433 C1434 1.516 . S
C1434 C1433 1.516 . S
C1434 C1435 1.502 . S
C1434 C1436 1.561 . S
C1434 C1437 1.526 . S
C1435 H1419 0.959 . S
C1435 H1420 0.959 . S
C1435 H1421 0.961 . S
C1435 C1434 1.502 . S
C1436 H1422 0.960 . S
C1436 H1423 0.961 . S
C1436 H1424 0.959 . S
C1436 C1434 1.561 . S
C1437 C1434 1.526 . S
C1437 C1438 1.396 . S
C1437 C1442 1.390 . S
C1438 C1432 1.465 . S
C1438 C1437 1.396 . S
C1438 C1439 1.399 . S
C1439 H1425 0.929 . S
C1439 C1438 1.399 . S
C1439 C1440 1.385 . S
C1440 H1426 0.931 . S
C1440 C1439 1.385 . S
C1440 C1441 1.389 . S
C1441 C1440 1.389 . S
C1441 C1442 1.387 . S
C1442 H1427 0.930 . S
C1442 C1437 1.390 . S
C1442 C1441 1.387 . S
H1443 C1455 0.930 . S
H1444 C1457 0.930 . S
H1445 C1458 0.930 . S
H1446 C1462 0.959 . S
H1447 C1462 0.959 . S
H1448 C1462 0.961 . S
H1449 C1463 0.960 . S
H1450 C1463 0.961 . S
H1451 C1463 0.959 . S
H1452 C1466 0.929 . S
H1453 C1467 0.931 . S
H1454 C1469 0.930 . S
C1455 H1443 0.930 . S
C1455 C1456 1.399 . S
C1455 C1460 1.399 . S
C1456 C1455 1.399 . S
C1456 C1457 1.376 . S
C1457 H1444 0.930 . S
C1457 C1456 1.376 . S
C1457 C1458 1.388 . S
C1458 H1445 0.930 . S
C1458 C1457 1.388 . S
C1458 C1459 1.390 . S
C1459 C1458 1.390 . S
C1459 C1460 1.394 . S
C1459 C1465 1.465 . S
C1460 C1455 1.399 . S
C1460 C1459 1.394 . S
C1460 C1461 1.516 . S
C1461 C1460 1.516 . S
C1461 C1462 1.502 . S
C1461 C1463 1.561 . S
C1461 C1464 1.526 . S
C1462 H1446 0.959 . S
C1462 H1447 0.959 . S
C1462 H1448 0.961 . S
C1462 C1461 1.502 . S
C1463 H1449 0.960 . S
C1463 H1450 0.961 . S
C1463 H1451 0.959 . S
C1463 C1461 1.561 . S
C1464 C1461 1.526 . S
C1464 C1465 1.396 . S
C1464 C1469 1.390 . S
C1465 C1459 1.465 . S
C1465 C1464 1.396 . S
C1465 C1466 1.399 . S
C1466 H1452 0.929 . S
C1466 C1465 1.399 . S
C1466 C1467 1.385 . S
C1467 H1453 0.931 . S
C1467 C1466 1.385 . S
C1467 C1468 1.389 . S
C1468 C1467 1.389 . S
C1468 C1469 1.387 . S
C1469 H1454 0.930 . S
C1469 C1464 1.390 . S
C1469 C1468 1.387 . S
H1470 C1482 0.930 . S
H1471 C1484 0.930 . S
H1472 C1485 0.930 . S
H1473 C1489 0.959 . S
H1474 C1489 0.959 . S
H1475 C1489 0.961 . S
H1476 C1490 0.960 . S
H1477 C1490 0.961 . S
H1478 C1490 0.959 . S
H1479 C1493 0.929 . S
H1480 C1494 0.931 . S
H1481 C1496 0.930 . S
C1482 H1470 0.930 . S
C1482 C1483 1.399 . S
C1482 C1487 1.399 . S
C1483 C1482 1.399 . S
C1483 C1484 1.376 . S
C1484 H1471 0.930 . S
C1484 C1483 1.376 . S
C1484 C1485 1.388 . S
C1485 H1472 0.930 . S
C1485 C1484 1.388 . S
C1485 C1486 1.390 . S
C1486 C1485 1.390 . S
C1486 C1487 1.394 . S
C1486 C1492 1.465 . S
C1487 C1482 1.399 . S
C1487 C1486 1.394 . S
C1487 C1488 1.516 . S
C1488 C1487 1.516 . S
C1488 C1489 1.502 . S
C1488 C1490 1.561 . S
C1488 C1491 1.526 . S
C1489 H1473 0.959 . S
C1489 H1474 0.959 . S
C1489 H1475 0.961 . S
C1489 C1488 1.502 . S
C1490 H1476 0.960 . S
C1490 H1477 0.961 . S
C1490 H1478 0.959 . S
C1490 C1488 1.561 . S
C1491 C1488 1.526 . S
C1491 C1492 1.396 . S
C1491 C1496 1.390 . S
C1492 C1486 1.465 . S
C1492 C1491 1.396 . S
C1492 C1493 1.399 . S
C1493 H1479 0.929 . S
C1493 C1492 1.399 . S
C1493 C1494 1.385 . S
C1494 H1480 0.931 . S
C1494 C1493 1.385 . S
C1494 C1495 1.389 . S
C1495 C1494 1.389 . S
C1495 C1496 1.387 . S
C1496 H1481 0.930 . S
C1496 C1491 1.390 . S
C1496 C1495 1.387 . S
H1497 C1509 0.930 . S
H1498 C1511 0.930 . S
H1499 C1512 0.930 . S
H1500 C1516 0.959 . S
H1501 C1516 0.959 . S
H1502 C1516 0.961 . S
H1503 C1517 0.960 . S
H1504 C1517 0.961 . S
H1505 C1517 0.959 . S
H1506 C1520 0.929 . S
H1507 C1521 0.931 . S
H1508 C1523 0.930 . S
C1509 H1497 0.930 . S
C1509 C1510 1.399 . S
C1509 C1514 1.399 . S
C1510 C1509 1.399 . S
C1510 C1511 1.376 . S
C1511 H1498 0.930 . S
C1511 C1510 1.376 . S
C1511 C1512 1.388 . S
C1512 H1499 0.930 . S
C1512 C1511 1.388 . S
C1512 C1513 1.390 . S
C1513 C1512 1.390 . S
C1513 C1514 1.394 . S
C1513 C1519 1.465 . S
C1514 C1509 1.399 . S
C1514 C1513 1.394 . S
C1514 C1515 1.516 . S
C1515 C1514 1.516 . S
C1515 C1516 1.502 . S
C1515 C1517 1.561 . S
C1515 C1518 1.526 . S
C1516 H1500 0.959 . S
C1516 H1501 0.959 . S
C1516 H1502 0.961 . S
C1516 C1515 1.502 . S
C1517 H1503 0.960 . S
C1517 H1504 0.961 . S
C1517 H1505 0.959 . S
C1517 C1515 1.561 . S
C1518 C1515 1.526 . S
C1518 C1519 1.396 . S
C1518 C1523 1.390 . S
C1519 C1513 1.465 . S
C1519 C1518 1.396 . S
C1519 C1520 1.399 . S
C1520 H1506 0.929 . S
C1520 C1519 1.399 . S
C1520 C1521 1.385 . S
C1521 H1507 0.931 . S
C1521 C1520 1.385 . S
C1521 C1522 1.389 . S
C1522 C1521 1.389 . S
C1522 C1523 1.387 . S
C1523 H1508 0.930 . S
C1523 C1518 1.390 . S
C1523 C1522 1.387 . S
H1524 C1536 0.930 . S
H1525 C1538 0.930 . S
H1526 C1539 0.930 . S
H1527 C1543 0.959 . S
H1528 C1543 0.959 . S
H1529 C1543 0.961 . S
H1530 C1544 0.960 . S
H1531 C1544 0.961 . S
H1532 C1544 0.959 . S
H1533 C1547 0.929 . S
H1534 C1548 0.931 . S
H1535 C1550 0.930 . S
C1536 H1524 0.930 . S
C1536 C1537 1.399 . S
C1536 C1541 1.399 . S
C1537 C1536 1.399 . S
C1537 C1538 1.376 . S
C1538 H1525 0.930 . S
C1538 C1537 1.376 . S
C1538 C1539 1.388 . S
C1539 H1526 0.930 . S
C1539 C1538 1.388 . S
C1539 C1540 1.390 . S
C1540 C1539 1.390 . S
C1540 C1541 1.394 . S
C1540 C1546 1.465 . S
C1541 C1536 1.399 . S
C1541 C1540 1.394 . S
C1541 C1542 1.516 . S
C1542 C1541 1.516 . S
C1542 C1543 1.502 . S
C1542 C1544 1.561 . S
C1542 C1545 1.526 . S
C1543 H1527 0.959 . S
C1543 H1528 0.959 . S
C1543 H1529 0.961 . S
C1543 C1542 1.502 . S
C1544 H1530 0.960 . S
C1544 H1531 0.961 . S
C1544 H1532 0.959 . S
C1544 C1542 1.561 . S
C1545 C1542 1.526 . S
C1545 C1546 1.396 . S
C1545 C1550 1.390 . S
C1546 C1540 1.465 . S
C1546 C1545 1.396 . S
C1546 C1547 1.399 . S
C1547 H1533 0.929 . S
C1547 C1546 1.399 . S
C1547 C1548 1.385 . S
C1548 H1534 0.931 . S
C1548 C1547 1.385 . S
C1548 C1549 1.389 . S
C1549 C1548 1.389 . S
C1549 C1550 1.387 . S
C1550 H1535 0.930 . S
C1550 C1545 1.390 . S
C1550 C1549 1.387 . S
H1551 C1563 0.930 . S
H1552 C1565 0.930 . S
H1553 C1566 0.930 . S
H1554 C1570 0.959 . S
H1555 C1570 0.959 . S
H1556 C1570 0.961 . S
H1557 C1571 0.960 . S
H1558 C1571 0.961 . S
H1559 C1571 0.959 . S
H1560 C1574 0.929 . S
H1561 C1575 0.931 . S
H1562 C1577 0.930 . S
C1563 H1551 0.930 . S
C1563 C1564 1.399 . S
C1563 C1568 1.399 . S
C1564 C1563 1.399 . S
C1564 C1565 1.376 . S
C1565 H1552 0.930 . S
C1565 C1564 1.376 . S
C1565 C1566 1.388 . S
C1566 H1553 0.930 . S
C1566 C1565 1.388 . S
C1566 C1567 1.390 . S
C1567 C1566 1.390 . S
C1567 C1568 1.394 . S
C1567 C1573 1.465 . S
C1568 C1563 1.399 . S
C1568 C1567 1.394 . S
C1568 C1569 1.516 . S
C1569 C1568 1.516 . S
C1569 C1570 1.502 . S
C1569 C1571 1.561 . S
C1569 C1572 1.526 . S
C1570 H1554 0.959 . S
C1570 H1555 0.959 . S
C1570 H1556 0.961 . S
C1570 C1569 1.502 . S
C1571 H1557 0.960 . S
C1571 H1558 0.961 . S
C1571 H1559 0.959 . S
C1571 C1569 1.561 . S
C1572 C1569 1.526 . S
C1572 C1573 1.396 . S
C1572 C1577 1.390 . S
C1573 C1567 1.465 . S
C1573 C1572 1.396 . S
C1573 C1574 1.399 . S
C1574 H1560 0.929 . S
C1574 C1573 1.399 . S
C1574 C1575 1.385 . S
C1575 H1561 0.931 . S
C1575 C1574 1.385 . S
C1575 C1576 1.389 . S
C1576 C1575 1.389 . S
C1576 C1577 1.387 . S
C1577 H1562 0.930 . S
C1577 C1572 1.390 . S
C1577 C1576 1.387 . S
H1578 C1590 0.930 . S
H1579 C1592 0.930 . S
H1580 C1593 0.930 . S
H1581 C1597 0.959 . S
H1582 C1597 0.959 . S
H1583 C1597 0.961 . S
H1584 C1598 0.960 . S
H1585 C1598 0.961 . S
H1586 C1598 0.959 . S
H1587 C1601 0.929 . S
H1588 C1602 0.931 . S
H1589 C1604 0.930 . S
C1590 H1578 0.930 . S
C1590 C1591 1.399 . S
C1590 C1595 1.399 . S
C1591 C1590 1.399 . S
C1591 C1592 1.376 . S
C1592 H1579 0.930 . S
C1592 C1591 1.376 . S
C1592 C1593 1.388 . S
C1593 H1580 0.930 . S
C1593 C1592 1.388 . S
C1593 C1594 1.390 . S
C1594 C1593 1.390 . S
C1594 C1595 1.394 . S
C1594 C1600 1.465 . S
C1595 C1590 1.399 . S
C1595 C1594 1.394 . S
C1595 C1596 1.516 . S
C1596 C1595 1.516 . S
C1596 C1597 1.502 . S
C1596 C1598 1.561 . S
C1596 C1599 1.526 . S
C1597 H1581 0.959 . S
C1597 H1582 0.959 . S
C1597 H1583 0.961 . S
C1597 C1596 1.502 . S
C1598 H1584 0.960 . S
C1598 H1585 0.961 . S
C1598 H1586 0.959 . S
C1598 C1596 1.561 . S
C1599 C1596 1.526 . S
C1599 C1600 1.396 . S
C1599 C1604 1.390 . S
C1600 C1594 1.465 . S
C1600 C1599 1.396 . S
C1600 C1601 1.399 . S
C1601 H1587 0.929 . S
C1601 C1600 1.399 . S
C1601 C1602 1.385 . S
C1602 H1588 0.931 . S
C1602 C1601 1.385 . S
C1602 C1603 1.389 . S
C1603 C1602 1.389 . S
C1603 C1604 1.387 . S
C1604 H1589 0.930 . S
C1604 C1599 1.390 . S
C1604 C1603 1.387 . S
H1605 C1617 0.930 . S
H1606 C1619 0.930 . S
H1607 C1620 0.930 . S
H1608 C1624 0.959 . S
H1609 C1624 0.959 . S
H1610 C1624 0.961 . S
H1611 C1625 0.960 . S
H1612 C1625 0.961 . S
H1613 C1625 0.959 . S
H1614 C1628 0.929 . S
H1615 C1629 0.931 . S
H1616 C1631 0.930 . S
C1617 H1605 0.930 . S
C1617 C1618 1.399 . S
C1617 C1622 1.399 . S
C1618 C1617 1.399 . S
C1618 C1619 1.376 . S
C1619 H1606 0.930 . S
C1619 C1618 1.376 . S
C1619 C1620 1.388 . S
C1620 H1607 0.930 . S
C1620 C1619 1.388 . S
C1620 C1621 1.390 . S
C1621 C1620 1.390 . S
C1621 C1622 1.394 . S
C1621 C1627 1.465 . S
C1622 C1617 1.399 . S
C1622 C1621 1.394 . S
C1622 C1623 1.516 . S
C1623 C1622 1.516 . S
C1623 C1624 1.502 . S
C1623 C1625 1.561 . S
C1623 C1626 1.526 . S
C1624 H1608 0.959 . S
C1624 H1609 0.959 . S
C1624 H1610 0.961 . S
C1624 C1623 1.502 . S
C1625 H1611 0.960 . S
C1625 H1612 0.961 . S
C1625 H1613 0.959 . S
C1625 C1623 1.561 . S
C1626 C1623 1.526 . S
C1626 C1627 1.396 . S
C1626 C1631 1.390 . S
C1627 C1621 1.465 . S
C1627 C1626 1.396 . S
C1627 C1628 1.399 . S
C1628 H1614 0.929 . S
C1628 C1627 1.399 . S
C1628 C1629 1.385 . S
C1629 H1615 0.931 . S
C1629 C1628 1.385 . S
C1629 C1630 1.389 . S
C1630 C1629 1.389 . S
C1630 C1631 1.387 . S
C1631 H1616 0.930 . S
C1631 C1626 1.390 . S
C1631 C1630 1.387 . S
C349 C162 1.569 . S
C361 C7 1.384 . S
C376 C21 1.458 . S
C388 C120 1.565 . S
C403 C35 1.380 . S
C415 C134 1.571 . S
C430 C49 1.374 . S
C442 C148 1.570 . S
C457 C190 1.564 . S
C469 C63 1.466 . S
C484 C77 1.370 . S
C496 C204 1.570 . S
C511 C218 1.565 . S
C523 C91 1.457 . S
C538 C176 1.571 . S
C550 C105 1.371 . S
C565 C78 1.571 . S
C577 C119 1.375 . S
C592 C92 1.569 . S
C604 C133 1.382 . S
C619 C147 1.448 . S
C631 C106 1.566 . S
C646 C64 1.571 . S
C658 C161 1.366 . S
C673 C50 1.564 . S
C685 C175 1.449 . S
C700 C189 1.450 . S
C712 C8 1.564 . S
C727 C203 1.408 . S
C739 C22 1.567 . S
C754 C217 1.378 . S
C766 C36 1.571 . S
C781 C231 1.461 . S
C793 C330 1.564 . S
C808 C288 1.566 . S
C820 C245 1.437 . S
C835 C259 1.472 . S
C847 C246 1.563 . S
C862 C273 1.372 . S
C874 C260 1.570 . S
C889 C274 1.563 . S
C901 C287 1.463 . S
C916 C301 1.459 . S
C928 C316 1.565 . S
C943 C232 1.570 . S
C955 C315 1.385 . S
C970 C302 1.572 . S
C982 C329 1.356 . S
C997 C9 1.599 . S
C1009 C93 1.598 . S
C1024 C23 1.621 . S
C1036 C107 1.625 . S
C1051 C37 1.599 . S
C1063 C65 1.598 . S
C1078 C79 1.637 . S
C1090 C51 1.635 . S
C1105 C149 1.635 . S
C1117 C121 1.638 . S
C1132 C135 1.598 . S
C1144 C163 1.597 . S
C1159 C177 1.617 . S
C1171 C205 1.614 . S
C1186 C219 1.603 . S
C1198 C191 1.608 . S
C1213 C247 1.607 . S
C1225 C233 1.612 . S
C1240 C261 1.598 . S
C1252 C331 1.597 . S
C1267 C275 1.598 . S
C1279 C303 1.602 . S
C1294 C289 1.634 . S
C1306 C317 1.636 . S
C1321 C6 1.177 . S
C1333 C76 1.137 . S
C1348 C20 1.188 . S
C1360 C90 1.144 . S
C1375 C34 1.172 . S
C1387 C104 1.211 . S
C1402 C62 1.140 . S
C1414 C48 1.132 . S
C1429 C118 1.143 . S
C1441 C328 1.131 . S
C1456 C132 1.197 . S
C1468 C300 1.219 . S
C1483 C314 1.215 . S
C1495 C146 1.180 . S
C1510 C160 1.184 . S
C1522 C230 1.216 . S
C1537 C286 1.135 . S
C1549 C174 1.175 . S
C1564 C244 1.174 . S
C1576 C188 1.136 . S
C1591 C202 1.153 . S
C1603 C258 1.198 . S
C1618 C272 1.178 . S
C1630 C216 1.214 . S
