# Generated by pormake.
# Topology ukh, (4)-cn, num edge types: 1
# Building blocks:
#     Node 0, Type 0, BuildingBlock: QUQFOY_clean_sbu_3, # of connection points: 4
#     Node 1, Type 0, BuildingBlock: QUQFOY_clean_sbu_3, # of connection points: 4
#     Node 2, Type 0, BuildingBlock: QUQFOY_clean_sbu_3, # of connection points: 4
#     Node 3, Type 0, BuildingBlock: QUQFOY_clean_sbu_3, # of connection points: 4
#     Node 4, Type 0, BuildingBlock: QUQFOY_clean_sbu_3, # of connection points: 4
#     Node 5, Type 0, BuildingBlock: QUQFOY_clean_sbu_3, # of connection points: 4
#     Node 6, Type 0, BuildingBlock: QUQFOY_clean_sbu_3, # of connection points: 4
#     Node 7, Type 0, BuildingBlock: QUQFOY_clean_sbu_3, # of connection points: 4
#     Node 8, Type 0, BuildingBlock: QUQFOY_clean_sbu_3, # of connection points: 4
#     Node 9, Type 0, BuildingBlock: QUQFOY_clean_sbu_3, # of connection points: 4
#     Node 10, Type 0, BuildingBlock: QUQFOY_clean_sbu_3, # of connection points: 4
#     Node 11, Type 0, BuildingBlock: QUQFOY_clean_sbu_3, # of connection points: 4
#     Edge 12, Type (0, 0), BuildingBlock: XIVTED_clean_linker_0, # of connection points: 2
#     Edge 13, Type (0, 0), BuildingBlock: XIVTED_clean_linker_0, # of connection points: 2
#     Edge 14, Type (0, 0), BuildingBlock: XIVTED_clean_linker_0, # of connection points: 2
#     Edge 15, Type (0, 0), BuildingBlock: XIVTED_clean_linker_0, # of connection points: 2
#     Edge 16, Type (0, 0), BuildingBlock: XIVTED_clean_linker_0, # of connection points: 2
#     Edge 17, Type (0, 0), BuildingBlock: XIVTED_clean_linker_0, # of connection points: 2
#     Edge 18, Type (0, 0), BuildingBlock: XIVTED_clean_linker_0, # of connection points: 2
#     Edge 19, Type (0, 0), BuildingBlock: XIVTED_clean_linker_0, # of connection points: 2
#     Edge 20, Type (0, 0), BuildingBlock: XIVTED_clean_linker_0, # of connection points: 2
#     Edge 21, Type (0, 0), BuildingBlock: XIVTED_clean_linker_0, # of connection points: 2
#     Edge 22, Type (0, 0), BuildingBlock: XIVTED_clean_linker_0, # of connection points: 2
#     Edge 23, Type (0, 0), BuildingBlock: XIVTED_clean_linker_0, # of connection points: 2
#     Edge 24, Type (0, 0), BuildingBlock: XIVTED_clean_linker_0, # of connection points: 2
#     Edge 25, Type (0, 0), BuildingBlock: XIVTED_clean_linker_0, # of connection points: 2
#     Edge 26, Type (0, 0), BuildingBlock: XIVTED_clean_linker_0, # of connection points: 2
#     Edge 27, Type (0, 0), BuildingBlock: XIVTED_clean_linker_0, # of connection points: 2
#     Edge 28, Type (0, 0), BuildingBlock: XIVTED_clean_linker_0, # of connection points: 2
#     Edge 29, Type (0, 0), BuildingBlock: XIVTED_clean_linker_0, # of connection points: 2
#     Edge 30, Type (0, 0), BuildingBlock: XIVTED_clean_linker_0, # of connection points: 2
#     Edge 31, Type (0, 0), BuildingBlock: XIVTED_clean_linker_0, # of connection points: 2
#     Edge 32, Type (0, 0), BuildingBlock: XIVTED_clean_linker_0, # of connection points: 2
#     Edge 33, Type (0, 0), BuildingBlock: XIVTED_clean_linker_0, # of connection points: 2
#     Edge 34, Type (0, 0), BuildingBlock: XIVTED_clean_linker_0, # of connection points: 2
#     Edge 35, Type (0, 0), BuildingBlock: XIVTED_clean_linker_0, # of connection points: 2
# Relax obj value: 0.081
# Max RMSD: 0.104
# Mean RMSD: 0.098
data_MOF--net-ukh--node1-QUQFOY_clean_sbu_3--edge1-XIVTED_clean_linker_0
_symmetry_space_group_name_H-M    P1
_symmetry_Int_Tables_number       1
_symmetry_cell_setting            triclinic
loop_
_symmetry_equiv_pos_as_xyz
'x, y, z'
_cell_length_a     32.88998
_cell_length_b     33.603191
_cell_length_c     66.595196
_cell_angle_alpha  89.676783
_cell_angle_beta   90.294214
_cell_angle_gamma 119.30697
loop_
_atom_site_label
_atom_site_type_symbol
_atom_site_fract_x
_atom_site_fract_y
_atom_site_fract_z
_atom_type_partial_charge
C0 C 0.18785 0.17892 0.02776 0.0
O1 O 0.17202 0.15234 0.04282 0.0
Cd2 Cd 0.22047 0.13625 0.06453 0.0
O3 O 0.23157 0.2021 0.02454 0.0
Cd4 Cd 0.30786 0.22022 0.03943 0.0
C5 C 0.27828 0.11151 0.02696 0.0
O6 O 0.28127 0.20917 0.07352 0.0
O7 O 0.34926 0.21581 0.06985 0.0
O8 O 0.32468 0.29809 0.03363 0.0
C9 C 0.3167 0.21039 0.08162 0.0
O10 O 0.25006 0.0996 0.04171 0.0
C11 C 0.36549 0.31274 0.02676 0.0
O12 O 0.30278 0.15343 0.02192 0.0
O13 O 0.37974 0.28384 0.02517 0.0
C14 C 0.16827 0.34478 0.33257 0.0
O15 O 0.15213 0.36025 0.31915 0.0
Cd16 Cd 0.08133 0.36361 0.32422 0.0
O17 O 0.14705 0.33024 0.34917 0.0
Cd18 Cd 0.07719 0.32102 0.36632 0.0
C19 C 0.00316 0.25045 0.33138 0.0
O20 O 0.08164 0.3934 0.35691 0.0
O21 O 0.01631 0.34168 0.36944 0.0
O22 O 0.12114 0.34819 0.39722 0.0
C23 C 0.04146 0.38257 0.3636 0.0
O24 O 0.01548 0.28641 0.32093 0.0
C25 C 0.09627 0.31254 0.40748 0.0
O26 O 0.02315 0.25199 0.34801 0.0
O27 O 0.06218 0.27984 0.39852 0.0
C28 C 0.80526 0.17427 0.66256 0.0
O29 O 0.77416 0.15867 0.64899 0.0
Cd30 Cd 0.70335 0.08799 0.65401 0.0
O31 O 0.79816 0.15399 0.67942 0.0
Cd32 Cd 0.73735 0.08895 0.69813 0.0
C33 C 0.74775 0.0169 0.66669 0.0
O34 O 0.66755 0.08916 0.68524 0.0
O35 O 0.65789 0.0282 0.70054 0.0
O36 O 0.76062 0.14311 0.72565 0.0
C37 C 0.63982 0.04999 0.69239 0.0
O38 O 0.72628 0.02877 0.65412 0.0
C39 C 0.76098 0.11605 0.73891 0.0
O40 O 0.75922 0.03546 0.68393 0.0
O41 O 0.75065 0.07616 0.73324 0.0
C42 C 0.7567 0.77696 0.03078 0.0
O43 O 0.77222 0.80091 0.04654 0.0
Cd44 Cd 0.72237 0.81739 0.06668 0.0
O45 O 0.71328 0.75664 0.02673 0.0
Cd46 Cd 0.63769 0.74081 0.04125 0.0
C47 C 0.6719 0.84939 0.02821 0.0
O48 O 0.65829 0.746 0.07646 0.0
O49 O 0.59868 0.75436 0.06985 0.0
O50 O 0.6179 0.66222 0.03603 0.0
C51 C 0.62478 0.75065 0.08296 0.0
O52 O 0.69841 0.85931 0.04357 0.0
C53 C 0.57763 0.64877 0.02868 0.0
O54 O 0.64654 0.80798 0.02277 0.0
O55 O 0.56463 0.6786 0.02673 0.0
C56 C 0.78733 0.63963 0.33955 0.0
O57 O 0.80281 0.62459 0.32584 0.0
Cd58 Cd 0.87551 0.62486 0.32947 0.0
O59 O 0.80912 0.65318 0.35614 0.0
Cd60 Cd 0.87834 0.65907 0.37336 0.0
C61 C 0.9494 0.73804 0.33991 0.0
O62 O 0.87575 0.58977 0.36102 0.0
O63 O 0.94003 0.63907 0.37525 0.0
O64 O 0.83382 0.62653 0.40378 0.0
C65 C 0.91572 0.59964 0.36779 0.0
O66 O 0.93604 0.70524 0.3275 0.0
C67 C 0.85789 0.66101 0.41476 0.0
O68 O 0.93241 0.73121 0.35753 0.0
O69 O 0.89183 0.69517 0.40646 0.0
C70 C 0.12628 0.77592 0.66441 0.0
O71 O 0.15671 0.79024 0.65062 0.0
Cd72 Cd 0.22742 0.86168 0.65439 0.0
O73 O 0.1342 0.79785 0.68078 0.0
Cd74 Cd 0.19583 0.86444 0.69824 0.0
C75 C 0.18355 0.93371 0.66537 0.0
O76 O 0.26527 0.8635 0.68567 0.0
O77 O 0.2752 0.92561 0.69965 0.0
O78 O 0.17383 0.81218 0.72657 0.0
C79 C 0.29312 0.90328 0.69211 0.0
O80 O 0.20451 0.92094 0.65312 0.0
C81 C 0.17396 0.84002 0.73938 0.0
O82 O 0.17288 0.91645 0.68293 0.0
O83 O 0.18407 0.87956 0.7331 0.0
C84 C 0.79701 0.62125 0.63541 0.0
O85 O 0.76596 0.60958 0.64887 0.0
Cd86 Cd 0.69481 0.61206 0.64311 0.0
O87 O 0.79108 0.63421 0.61818 0.0
Cd88 Cd 0.73407 0.64548 0.59867 0.0
C89 C 0.73836 0.72512 0.6313 0.0
O90 O 0.66469 0.57784 0.61091 0.0
O91 O 0.65369 0.62274 0.59085 0.0
O92 O 0.75373 0.61549 0.56941 0.0
C93 C 0.63655 0.58612 0.60102 0.0
O94 O 0.71701 0.69285 0.64388 0.0
C95 C 0.76675 0.65098 0.55867 0.0
O96 O 0.74998 0.71742 0.61415 0.0
O97 O 0.76487 0.68434 0.5666 0.0
C98 C -0.00948 0.77864 0.93504 0.0
O99 O -0.00092 0.8027 0.91924 0.0
Cd100 Cd 0.06542 0.81869 0.89908 0.0
O101 O 0.01334 0.75801 0.93908 0.0
Cd102 Cd 0.07246 0.74127 0.92462 0.0
C103 C 0.1479 0.84942 0.93745 0.0
O104 O 0.05749 0.74718 0.88941 0.0
O105 O 0.12493 0.75417 0.8962 0.0
O106 O 0.01203 0.66328 0.92976 0.0
C107 C 0.09545 0.75099 0.88305 0.0
O108 O 0.13135 0.85969 0.92215 0.0
C109 C 0.0379 0.64865 0.9371 0.0
O110 O 0.13151 0.80792 0.94294 0.0
O111 O 0.08099 0.67759 0.93914 0.0
C112 C 0.33641 0.18487 0.30088 0.0
O113 O 0.35113 0.16855 0.31451 0.0
Cd114 Cd 0.34847 0.09635 0.30992 0.0
O115 O 0.32187 0.16414 0.28426 0.0
Cd116 Cd 0.31284 0.09636 0.2666 0.0
C117 C 0.23227 0.0258 0.29959 0.0
O118 O 0.38179 0.09336 0.2782 0.0
O119 O 0.32694 0.03246 0.26425 0.0
O120 O 0.34924 0.14089 0.23666 0.0
C121 C 0.36799 0.05358 0.27131 0.0
O122 O 0.26628 0.03802 0.31177 0.0
C123 C 0.31358 0.12066 0.22548 0.0
O124 O 0.23854 0.04347 0.28213 0.0
O125 O 0.27702 0.0887 0.23343 0.0
C126 C 0.13303 0.32679 0.6294 0.0
O127 O 0.16368 0.3386 0.64314 0.0
Cd128 Cd 0.2357 0.33755 0.63876 0.0
O129 O 0.13975 0.3144 0.61228 0.0
Cd130 Cd 0.19859 0.30485 0.5935 0.0
C131 C 0.19348 0.22482 0.62657 0.0
O132 O 0.26621 0.37228 0.60679 0.0
O133 O 0.28006 0.32931 0.58706 0.0
O134 O 0.18059 0.3359 0.56391 0.0
C135 C 0.2957 0.36515 0.59758 0.0
O136 O 0.2138 0.25687 0.63927 0.0
C137 C 0.16908 0.30123 0.55292 0.0
O138 O 0.18272 0.23268 0.60916 0.0
O139 O 0.17073 0.26761 0.56089 0.0
C140 C 0.95472 0.18259 0.93212 0.0
O141 O 0.9459 0.15925 0.91617 0.0
Cd142 Cd 0.87821 0.14333 0.89675 0.0
O143 O 0.93169 0.20268 0.93651 0.0
Cd144 Cd 0.87184 0.21962 0.92288 0.0
C145 C 0.79842 0.11107 0.93604 0.0
O146 O 0.88474 0.2148 0.88747 0.0
O147 O 0.8174 0.20681 0.89493 0.0
O148 O 0.93231 0.29757 0.92794 0.0
C149 C 0.84624 0.21056 0.88147 0.0
O150 O 0.81407 0.10129 0.92044 0.0
C151 C 0.90676 0.31185 0.93574 0.0
O152 O 0.81467 0.15243 0.94156 0.0
O153 O 0.86382 0.28274 0.93802 0.0
C154 C 0.62151 0.80172 0.30334 0.0
O155 O 0.60601 0.81968 0.31568 0.0
Cd156 Cd 0.6005 0.88661 0.30696 0.0
O157 O 0.63436 0.81865 0.28587 0.0
Cd158 Cd 0.6396 0.8809 0.26472 0.0
C159 C 0.7154 0.96113 0.29582 0.0
O160 O 0.56638 0.87807 0.27433 0.0
O161 O 0.6172 0.93844 0.2587 0.0
O162 O 0.61437 0.82443 0.23805 0.0
C163 C 0.57664 0.9159 0.266 0.0
O164 O 0.67962 0.95153 0.30644 0.0
C165 C 0.642 0.85144 0.2249 0.0
O166 O 0.71263 0.9374 0.28048 0.0
O167 O 0.66952 0.89218 0.23034 0.0
H168 H 0.60215 0.58243 0.02551 0.0
H169 H 0.34024 0.37895 0.02457 0.0
H170 H 0.48335 0.60388 0.021 0.0
H171 H 0.4595 0.35865 0.01908 0.0
H172 H 0.39161 0.46114 0.02121 0.0
H173 H 0.55056 0.50071 0.02113 0.0
C174 C 0.56519 0.56997 0.02342 0.0
C175 C 0.54697 0.60002 0.02379 0.0
C176 C 0.40654 0.43874 0.02051 0.0
C177 C 0.4875 0.50616 0.01895 0.0
C178 C 0.37723 0.39175 0.02245 0.0
C179 C 0.39567 0.36187 0.02228 0.0
C180 C 0.45481 0.45616 0.01861 0.0
C181 C 0.4438 0.38041 0.01936 0.0
C182 C 0.53573 0.52324 0.02088 0.0
C183 C 0.49885 0.58193 0.02086 0.0
N184 N 0.47177 0.4264 0.01788 0.0
N185 N 0.47069 0.53609 0.0188 0.0
H186 H 0.09096 0.47513 0.35865 0.0
H187 H 0.86713 0.50858 0.3593 0.0
H188 H 0.95147 0.36401 0.36829 0.0
H189 H 0.00553 0.61756 0.37299 0.0
H190 H 0.8979 0.45548 0.35761 0.0
H191 H 0.06045 0.52859 0.35899 0.0
C192 C 0.05393 0.46201 0.36078 0.0
C193 C 0.02367 0.41517 0.36351 0.0
C194 C 0.92146 0.49103 0.36098 0.0
C195 C -0.01133 0.47584 0.36375 0.0
C196 C 0.904 0.52133 0.36188 0.0
C197 C 0.93385 0.56743 0.36635 0.0
C198 C 0.96917 0.50714 0.3643 0.0
C199 C -0.0187 0.5822 0.36959 0.0
C200 C 0.03661 0.49249 0.36103 0.0
C201 C -0.02399 0.39992 0.36623 0.0
N202 N -0.00243 0.55213 0.36843 0.0
N203 N 0.95991 0.43019 0.3662 0.0
H204 H 0.34417 0.86078 0.68427 0.0
H205 H 0.58869 0.09185 0.68297 0.0
H206 H 0.35754 -0.0067 0.69491 0.0
H207 H 0.57539 0.96028 0.6967 0.0
H208 H 0.50348 0.05575 0.68073 0.0
H209 H 0.42936 0.89673 0.68221 0.0
C210 C 0.36502 0.89741 0.68604 0.0
C211 C 0.34398 0.92411 0.68993 0.0
C212 C 0.51938 0.03489 0.68417 0.0
C213 C 0.44077 0.96525 0.68741 0.0
C214 C 0.56785 0.05539 0.68539 0.0
C215 C 0.58892 0.02902 0.69019 0.0
C216 C 0.49211 -0.0123 0.68747 0.0
C217 C 0.56044 0.98191 0.69316 0.0
C218 C 0.41348 0.91783 0.68492 0.0
C219 C 0.37247 0.97143 0.69208 0.0
N220 N 0.51343 0.9627 0.69173 0.0
N221 N 0.41948 -0.00946 0.69077 0.0
H222 H 0.57615 0.5704 0.5702 0.0
H223 H 0.34424 0.41971 0.62903 0.0
H224 H 0.58317 0.52871 0.63093 0.0
H225 H 0.36072 0.38396 0.56866 0.0
H226 H 0.42853 0.47363 0.63038 0.0
H227 H 0.49237 0.51543 0.56955 0.0
C228 C 0.55992 0.54982 0.58341 0.0
C229 C 0.58629 0.55375 0.60063 0.0
C230 C 0.41344 0.45382 0.6169 0.0
C231 C 0.49115 0.4921 0.60009 0.0
C232 C 0.36563 0.4234 0.61607 0.0
C233 C 0.34589 0.39752 0.59872 0.0
C234 C 0.44101 0.45918 0.60003 0.0
C235 C 0.37486 0.40322 0.58233 0.0
C236 C 0.51242 0.51849 0.58298 0.0
C237 C 0.56386 0.52629 0.61735 0.0
N238 N 0.42104 0.43396 0.58329 0.0
N239 N 0.51723 0.4968 0.61677 0.0
H240 H -0.00152 0.37658 0.93823 0.0
H241 H 0.9463 0.58385 0.94 0.0
H242 H 0.85994 0.35866 0.94431 0.0
H243 H 0.08507 0.60144 0.9445 0.0
H244 H 0.9141 0.50159 0.94367 0.0
H245 H 0.03084 0.45862 0.94259 0.0
C246 C -0.02517 0.38988 0.94068 0.0
C247 C 0.92635 0.36074 0.94072 0.0
C248 C 0.95157 0.52339 0.94409 0.0
C249 C 0.96331 0.45494 0.94555 0.0
C250 C 0.97004 0.57043 0.94197 0.0
C251 C 0.01851 0.59955 0.94176 0.0
C252 C -0.01825 0.50512 0.94578 0.0
C253 C 0.04751 0.58024 0.94451 0.0
C254 C -0.00661 0.43679 0.9432 0.0
C255 C 0.89749 0.37988 0.9441 0.0
N256 N 0.02869 0.53416 0.94616 0.0
N257 N 0.91639 0.42586 0.94614 0.0
H258 H 0.34144 0.96354 0.26653 0.0
H259 H 0.59967 0.00455 0.25966 0.0
H260 H 0.46228 0.09517 0.27693 0.0
H261 H 0.4835 0.87295 0.27496 0.0
H262 H 0.54862 0.03795 0.26201 0.0
H263 H 0.39197 0.9291 0.26597 0.0
C264 C 0.37861 -0.01484 0.26873 0.0
C265 C 0.39784 0.03227 0.27173 0.0
C266 C 0.53436 0.0018 0.26491 0.0
C267 C 0.45557 -0.00676 0.27091 0.0
C268 C 0.56334 -0.01736 0.26345 0.0
C269 C 0.54567 0.9359 0.26711 0.0
C270 C 0.48722 0.97391 0.26974 0.0
C271 C 0.49843 0.90916 0.27207 0.0
C272 C 0.4073 0.96546 0.26849 0.0
C273 C 0.44611 0.0587 0.2746 0.0
N274 N 0.47064 0.92853 0.27311 0.0
N275 N 0.47344 0.03885 0.27394 0.0
H276 H 0.39004 0.17629 0.20305 0.0
H277 H 0.24326 0.17662 0.10751 0.0
H278 H 0.24005 0.09582 0.19969 0.0
H279 H 0.38961 0.21745 0.10437 0.0
H280 H 0.24252 0.15476 0.14259 0.0
H281 H 0.3915 0.19915 0.16802 0.0
C282 C 0.3574 0.16344 0.19494 0.0
C283 C 0.31482 0.13409 0.20427 0.0
C284 C 0.27479 0.16849 0.13423 0.0
C285 C 0.3163 0.1604 0.1643 0.0
C286 C 0.27533 0.18121 0.11424 0.0
C287 C 0.31659 0.19882 0.10302 0.0
C288 C 0.31592 0.17393 0.14315 0.0
C289 C 0.35704 0.20388 0.11249 0.0
C290 C 0.35831 0.17641 0.17495 0.0
C291 C 0.27363 0.11839 0.19305 0.0
N292 N 0.35574 0.1916 0.13206 0.0
N293 N 0.27537 0.13195 0.17366 0.0
H294 H 0.15479 0.38251 0.43165 0.0
H295 H 0.12956 0.22847 0.52712 0.0
H296 H 0.06077 0.23715 0.43212 0.0
H297 H 0.17869 0.37324 0.53038 0.0
H298 H 0.11033 0.22996 0.49157 0.0
H299 H 0.17101 0.37882 0.46716 0.0
C300 C 0.13762 0.34975 0.43922 0.0
C301 C 0.10635 0.31006 0.42893 0.0
C302 C 0.12512 0.26127 0.50014 0.0
C303 C 0.12493 0.30561 0.46961 0.0
C304 C 0.1362 0.2605 0.52038 0.0
C305 C 0.15578 0.30082 0.53169 0.0
C306 C 0.1344 0.30277 0.49116 0.0
C307 C 0.16358 0.34135 0.52223 0.0
C308 C 0.14674 0.34772 0.45953 0.0
C309 C 0.08501 0.26857 0.43954 0.0
N310 N 0.15317 0.34134 0.50249 0.0
N311 N 0.09488 0.26735 0.45932 0.0
H312 H 0.73006 0.06294 0.77259 0.0
H313 H 0.90178 0.24525 0.84869 0.0
H314 H 0.81795 0.20185 0.75294 0.0
H315 H 0.76 0.15268 0.86626 0.0
H316 H 0.87975 0.22368 0.81348 0.0
H317 H 0.74884 0.08838 0.80761 0.0
C318 C 0.75346 0.09869 0.77567 0.0
C319 C 0.77254 0.13043 0.75996 0.0
C320 C 0.8535 0.20847 0.82508 0.0
C321 C 0.79448 0.1593 0.79964 0.0
C322 C 0.86597 0.22063 0.84508 0.0
C323 C 0.83251 0.20081 0.86026 0.0
C324 C 0.8077 0.1752 0.82043 0.0
C325 C 0.78662 0.16898 0.85491 0.0
C326 C 0.76382 0.11314 0.79557 0.0
C327 C 0.80243 0.17642 0.76469 0.0
N328 N 0.77564 0.15655 0.83539 0.0
N329 N 0.81301 0.18947 0.78415 0.0
H330 H 0.6496 0.71798 0.11551 0.0
H331 H 0.6633 0.90313 0.19084 0.0
H332 H 0.59765 0.80892 0.09846 0.0
H333 H 0.61667 0.76571 0.21167 0.0
H334 H 0.65595 0.87639 0.15607 0.0
H335 H 0.6529 0.74147 0.15065 0.0
C336 C 0.63862 0.74266 0.11923 0.0
C337 C 0.62309 0.76147 0.1042 0.0
C338 C 0.64746 0.85226 0.16831 0.0
C339 C 0.6282 0.78925 0.14391 0.0
C340 C 0.65199 0.86746 0.18807 0.0
C341 C 0.64055 0.83649 0.20405 0.0
C342 C 0.63267 0.80611 0.16461 0.0
C343 C 0.62566 0.79056 0.19971 0.0
C344 C 0.64049 0.75593 0.13917 0.0
C345 C 0.60938 0.7934 0.10967 0.0
N346 N 0.62257 0.77675 0.18035 0.0
N347 N 0.61291 0.80686 0.12911 0.0
H348 H 0.75971 0.58053 0.53599 0.0
H349 H 0.89098 0.73373 0.4405 0.0
H350 H 0.80936 0.72555 0.53385 0.0
H351 H 0.79943 0.58807 0.43776 0.0
H352 H 0.87062 0.73218 0.476 0.0
H353 H 0.78373 0.58355 0.50113 0.0
C354 C 0.77584 0.61306 0.5282 0.0
C355 C 0.7824 0.65284 0.53779 0.0
C356 C 0.85505 0.70063 0.46757 0.0
C357 C 0.81012 0.65652 0.49794 0.0
C358 C 0.86673 0.70146 0.44738 0.0
C359 C 0.84674 0.66098 0.43619 0.0
C360 C 0.82371 0.65895 0.47664 0.0
C361 C 0.81548 0.6201 0.44581 0.0
C362 C 0.78938 0.61471 0.50829 0.0
C363 C 0.80346 0.69404 0.52697 0.0
N364 N 0.80507 0.62012 0.46549 0.0
N365 N 0.81671 0.69486 0.5076 0.0
H366 H 0.03776 0.71648 0.8508 0.0
H367 H 0.20659 0.8948 0.77237 0.0
H368 H 0.18093 0.80804 0.86701 0.0
H369 H 0.11688 0.75518 0.75447 0.0
H370 H 0.18915 0.87111 0.80772 0.0
H371 H 0.05781 0.73708 0.81536 0.0
C372 C 0.07342 0.7407 0.84684 0.0
C373 C 0.10787 0.76046 0.8617 0.0
C374 C 0.17345 0.84582 0.79598 0.0
C375 C 0.13046 0.78498 0.8216 0.0
C376 C 0.18306 0.85928 0.77591 0.0
C377 C 0.1631 0.82681 0.7606 0.0
C378 C 0.14267 0.79994 0.80062 0.0
C379 C 0.13307 0.78115 0.7659 0.0
C380 C 0.08477 0.75232 0.82672 0.0
C381 C 0.15355 0.79178 0.8559 0.0
N382 N 0.12326 0.76907 0.78551 0.0
N383 N 0.16346 0.80367 0.83626 0.0
H384 H 0.17305 0.84548 0.97652 0.0
H385 H 0.30505 0.117 -0.01243 0.0
H386 H 0.20176 0.93927 0.92715 0.0
H387 H 0.24794 0.02257 0.03719 0.0
H388 H 0.2868 0.05268 0.96523 0.0
H389 H 0.21949 0.91039 -0.00145 0.0
C390 C 0.18987 0.8796 0.9702 0.0
C391 C 0.18279 0.88697 0.95003 0.0
C392 C 0.27905 0.04618 0.98108 0.0
C393 C 0.23577 0.96135 0.97517 0.0
C394 C 0.28973 0.08292 -0.00614 0.0
C395 C 0.27726 0.07506 0.01421 0.0
C396 C 0.256 0.0014 -0.01126 0.0
C397 C 0.25744 0.03012 0.02153 0.0
C398 C 0.21622 0.91666 -0.01719 0.0
C399 C 0.2056 0.93199 0.94268 0.0
N400 N 0.24691 -0.00503 0.00877 0.0
N401 N 0.23058 0.96747 0.95529 0.0
H402 H 0.22047 0.32699 0.35939 0.0
H403 H 0.31802 0.23568 0.27393 0.0
H404 H 0.2089 0.34901 0.29618 0.0
H405 H 0.34073 0.22492 0.33716 0.0
H406 H 0.29202 0.29045 0.28164 0.0
H407 H 0.27771 0.30321 0.35164 0.0
C408 C 0.23051 0.32748 0.34388 0.0
C409 C 0.2091 0.339 0.32835 0.0
C410 C 0.30347 0.27679 0.29382 0.0
C411 C 0.27428 0.31129 0.31935 0.0
C412 C 0.31831 0.24545 0.28943 0.0
C413 C 0.33052 0.22489 0.30498 0.0
C414 C 0.30019 0.28717 0.31393 0.0
C415 C 0.33099 0.23943 0.32473 0.0
C416 C 0.26331 0.31397 0.33947 0.0
C417 C 0.22407 0.3398 0.30859 0.0
N418 N 0.31507 0.26901 0.32868 0.0
N419 N 0.25509 0.32521 0.30461 0.0
H420 H 0.87554 0.22343 0.68918 0.0
H421 H 0.06343 0.31228 0.60286 0.0
H422 H 0.84146 0.21337 0.62606 0.0
H423 H 0.0976 0.3309 0.66603 0.0
H424 H -0.01702 0.29031 0.611 0.0
H425 H 0.95668 0.27661 0.68112 0.0
C426 C 0.88499 0.23297 0.67363 0.0
C427 C 0.85189 0.2131 0.65822 0.0
C428 C 0.00819 0.29994 0.62307 0.0
C429 C 0.94488 0.27358 0.64887 0.0
C430 C 0.05418 0.31244 0.61844 0.0
C431 C 0.08705 0.32239 0.63384 0.0
C432 C -0.00518 0.29677 0.64326 0.0
C433 C 0.07327 0.32283 0.6537 0.0
C434 C 0.93137 0.26342 0.66904 0.0
C435 C 0.86595 0.22735 0.63839 0.0
N436 N 0.02795 0.30929 0.65788 0.0
N437 N 0.91161 0.25606 0.63425 0.0
H438 H 0.70604 0.93869 0.03868 0.0
H439 H 0.74295 0.0217 0.92568 0.0
H440 H 0.64652 0.84659 -0.01134 0.0
H441 H 0.77858 0.11366 0.97587 0.0
H442 H 0.69941 0.95738 0.94832 0.0
H443 H 0.72458 0.00288 0.0162 0.0
C444 C 0.69621 0.93189 0.02301 0.0
C445 C 0.67527 0.88719 0.0155 0.0
C446 C 0.71607 -0.00837 0.95437 0.0
C447 C 0.69706 0.96078 -0.01044 0.0
C448 C 0.74102 0.02844 0.94144 0.0
C449 C 0.76503 0.07314 0.94893 0.0
C450 C 0.71567 -0.00058 0.97504 0.0
C451 C 0.76084 0.07979 0.96944 0.0
C452 C 0.70678 0.96862 0.01017 0.0
C453 C 0.6629 0.88046 -0.00491 0.0
N454 N 0.73737 0.04326 0.98184 0.0
N455 N 0.67473 0.91693 -0.01723 0.0
H456 H 0.62142 0.7705 0.34153 0.0
H457 H 0.7387 0.62543 0.30432 0.0
H458 H 0.63848 0.74591 0.27938 0.0
H459 H 0.74419 0.67003 0.36546 0.0
H460 H 0.68291 0.65131 0.2963 0.0
H461 H 0.64733 0.71627 0.35152 0.0
C462 C 0.62976 0.75308 0.32998 0.0
C463 C 0.6288 0.76346 0.30961 0.0
C464 C 0.69578 0.65477 0.31155 0.0
C465 C 0.65848 0.70165 0.32092 0.0
C466 C 0.72758 0.63991 0.31616 0.0
C467 C 0.74702 0.64658 0.33548 0.0
C468 C 0.68346 0.67655 0.32634 0.0
C469 C 0.73082 0.66502 0.35026 0.0
C470 C 0.64465 0.72224 0.3357 0.0
C471 C 0.63964 0.73964 0.29528 0.0
N472 N 0.70052 0.68004 0.3453 0.0
N473 N 0.6546 0.71029 0.30122 0.0
H474 H 0.08968 0.73028 0.62912 0.0
H475 H 0.83199 0.61726 0.67242 0.0
H476 H 0.05613 0.73177 0.69162 0.0
H477 H 0.86622 0.6341 0.60931 0.0
H478 H 0.91301 0.63935 0.68022 0.0
H479 H 0.00782 0.67571 0.62248 0.0
C480 C 0.06531 0.7185 0.64152 0.0
C481 C 0.07952 0.73649 0.66085 0.0
C482 C 0.90255 0.63741 0.66465 0.0
C483 C -0.0141 0.67438 0.65334 0.0
C484 C 0.85627 0.62468 0.66018 0.0
C485 C 0.84263 0.62498 0.64021 0.0
C486 C 0.93526 0.65053 0.64904 0.0
C487 C 0.87547 0.63444 0.62496 0.0
C488 C 0.01856 0.68741 0.63771 0.0
C489 C 0.04651 0.71958 0.67638 0.0
N490 N 0.92044 0.64755 0.62971 0.0
N491 N 0.0011 0.69003 0.67223 0.0
H492 H 0.96206 0.20122 0.97216 0.0
H493 H 0.20269 0.20412 -0.01173 0.0
H494 H 0.02915 0.16992 0.92401 0.0
H495 H 0.09885 0.16142 0.03493 0.0
H496 H 0.14695 0.2072 0.96461 0.0
H497 H 0.02017 0.20244 -0.00438 0.0
C498 C -0.01076 0.19497 0.9665 0.0
C499 C -0.0092 0.18531 0.94614 0.0
C500 C 0.13656 0.19725 0.98004 0.0
C501 C 0.05732 0.18712 0.9728 0.0
C502 C 0.16829 0.19571 -0.00644 0.0
C503 C 0.15521 0.18237 0.01355 0.0
C504 C 0.09192 0.18636 -0.01328 0.0
C505 C 0.11017 0.1716 0.0196 0.0
C506 C 0.02213 0.19543 0.9799 0.0
C507 C 0.0266 0.17722 0.93962 0.0
N508 N 0.08016 0.1741 0.00625 0.0
N509 N 0.0587 0.17855 0.95293 0.0
H510 H 0.80452 0.97489 0.29201 0.0
H511 H 0.92833 0.23974 0.30968 0.0
H512 H 0.7267 0.04091 0.31053 0.0
H513 H -0.01343 0.16306 0.33807 0.0
H514 H 0.85917 0.16794 0.30051 0.0
H515 H 0.87749 0.04525 0.30026 0.0
C516 C 0.80288 0.00417 0.29776 0.0
C517 C 0.75975 0.00225 0.30072 0.0
C518 C 0.88734 0.167 0.30861 0.0
C519 C 0.84214 0.08218 0.30952 0.0
C520 C 0.9268 0.20778 0.31375 0.0
C521 C 0.96303 0.20719 0.32471 0.0
C522 C 0.88466 0.12542 0.31398 0.0
C523 C 0.95915 0.16482 0.32974 0.0
C524 C 0.84427 0.04396 0.30249 0.0
C525 C 0.75929 0.04095 0.30821 0.0
N526 N 0.92063 0.12539 0.3242 0.0
N527 N 0.79991 0.07957 0.31212 0.0
H528 H 0.76317 0.79787 0.60595 0.0
H529 H 0.76836 0.96496 0.69223 0.0
H530 H 0.73595 0.75865 0.66838 0.0
H531 H 0.74623 0.98201 0.62953 0.0
H532 H 0.77358 0.89682 0.68369 0.0
H533 H 0.7737 0.87305 0.61455 0.0
C534 C 0.75984 0.80518 0.62148 0.0
C535 C 0.74821 0.77177 0.63645 0.0
C536 C 0.76799 0.91577 0.67181 0.0
C537 C 0.76048 0.8577 0.64635 0.0
C538 C 0.76524 0.95476 0.67664 0.0
C539 C 0.75639 0.97894 0.66158 0.0
C540 C 0.7624 0.90122 0.65177 0.0
C541 C 0.75258 0.96411 0.64164 0.0
C542 C 0.76572 0.84802 0.62636 0.0
C543 C 0.74438 0.7832 0.65633 0.0
N544 N 0.75546 0.92612 0.63732 0.0
N545 N 0.75041 0.82519 0.6607 0.0
H546 H 0.74317 0.75611 -0.00911 0.0
H547 H -0.01727 0.75689 0.97489 0.0
H548 H 0.84443 0.79074 0.0385 0.0
H549 H 0.91675 0.79284 0.92736 0.0
H550 H 0.92442 0.75401 -0.00156 0.0
H551 H 0.7991 0.75424 0.96731 0.0
C552 C 0.77702 0.76295 -0.00359 0.0
C553 C 0.78932 0.77373 0.01666 0.0
C554 C 0.92276 0.76243 -0.01716 0.0
C555 C 0.85293 0.77121 -0.01014 0.0
C556 C 0.95578 0.76386 0.96939 0.0
C557 C 0.95458 0.77527 0.94917 0.0
C558 C 0.88781 0.77156 0.97593 0.0
C559 C 0.91906 0.7842 0.94286 0.0
C560 C 0.80889 0.76212 -0.01706 0.0
C561 C 0.8337 0.78256 0.02299 0.0
N562 N 0.88685 0.78192 0.95619 0.0
N563 N 0.86391 0.78087 0.00963 0.0
H564 H 0.00057 0.81148 0.36425 0.0
H565 H 0.15786 0.97339 0.27514 0.0
H566 H -0.01739 0.76971 0.30215 0.0
H567 H 0.20101 -0.00731 0.3373 0.0
H568 H 0.08456 0.90625 0.28486 0.0
H569 H 0.06547 0.88562 0.35445 0.0
C570 C 0.00996 0.81801 0.34854 0.0
C571 C -0.01361 0.78416 0.33402 0.0
C572 C 0.10998 0.92548 0.29636 0.0
C573 C 0.06043 0.86897 0.32274 0.0
C574 C 0.15169 0.9639 0.29085 0.0
C575 C 0.18578 -0.01157 0.30542 0.0
C576 C 0.10213 0.91185 0.31658 0.0
C577 C 0.1759 0.97452 0.32555 0.0
C578 C 0.04709 0.86028 0.34298 0.0
C579 C 0.0001 0.79462 0.31387 0.0
N580 N 0.13504 0.93706 0.33054 0.0
N581 N 0.0363 0.83608 0.30883 0.0
H582 H 0.16162 -0.01423 0.68981 0.0
H583 H 0.17106 0.15247 0.6015 0.0
H584 H 0.18616 0.96791 0.62772 0.0
H585 H 0.19347 0.19096 0.66402 0.0
H586 H 0.16032 0.07732 0.61076 0.0
H587 H 0.15647 0.05358 0.68026 0.0
C588 C 0.16529 -0.00429 0.67414 0.0
C589 C 0.17481 0.9714 0.65956 0.0
C590 C 0.1673 0.10219 0.62243 0.0
C591 C 0.16895 0.04885 0.64859 0.0
C592 C 0.1733 0.14501 0.61718 0.0
C593 C 0.18363 0.17821 0.63199 0.0
C594 C 0.17111 0.09234 0.64265 0.0
C595 C 0.18608 0.1666 0.65208 0.0
C596 C 0.16259 0.03454 0.66873 0.0
C597 C 0.17928 -0.01409 0.63948 0.0
N598 N 0.17996 0.12466 0.65681 0.0
N599 N 0.1765 0.02381 0.63459 0.0
loop_
_geom_bond_atom_site_label_1
_geom_bond_atom_site_label_2
_geom_bond_distance
_geom_bond_site_symmetry_2
_ccdc_geom_bond_type
C0 O1 1.306 . S
C0 O3 1.160 . S
O1 C0 1.306 . S
O1 Cd2 2.228 . S
Cd2 O1 2.228 . S
Cd2 O6 2.273 . S
Cd2 O10 2.277 . S
O3 C0 1.160 . S
O3 Cd4 2.203 . S
Cd4 O3 2.203 . S
Cd4 O6 2.411 . S
Cd4 O7 2.333 . S
Cd4 O8 2.352 . S
Cd4 O12 2.277 . S
Cd4 O13 2.356 . S
C5 O10 1.209 . S
C5 O12 1.226 . S
O6 Cd2 2.273 . S
O6 Cd4 2.411 . S
O6 C9 1.320 . S
O7 Cd4 2.333 . S
O7 C9 1.214 . S
O8 Cd4 2.352 . S
O8 C11 1.258 . S
C9 O6 1.320 . S
C9 O7 1.214 . S
O10 Cd2 2.277 . S
O10 C5 1.209 . S
C11 O8 1.258 . S
C11 O13 1.282 . S
O12 Cd4 2.277 . S
O12 C5 1.226 . S
O13 Cd4 2.356 . S
O13 C11 1.282 . S
C14 O15 1.306 . S
C14 O17 1.160 . S
O15 C14 1.306 . S
O15 Cd16 2.228 . S
Cd16 O15 2.228 . S
Cd16 O20 2.273 . S
Cd16 O24 2.277 . S
O17 C14 1.160 . S
O17 Cd18 2.203 . S
Cd18 O17 2.203 . S
Cd18 O20 2.411 . S
Cd18 O21 2.333 . S
Cd18 O22 2.352 . S
Cd18 O26 2.277 . S
Cd18 O27 2.356 . S
C19 O24 1.209 . S
C19 O26 1.226 . S
O20 Cd16 2.273 . S
O20 Cd18 2.411 . S
O20 C23 1.320 . S
O21 Cd18 2.333 . S
O21 C23 1.214 . S
O22 Cd18 2.352 . S
O22 C25 1.258 . S
C23 O20 1.320 . S
C23 O21 1.214 . S
O24 Cd16 2.277 . S
O24 C19 1.209 . S
C25 O22 1.258 . S
C25 O27 1.282 . S
O26 Cd18 2.277 . S
O26 C19 1.226 . S
O27 Cd18 2.356 . S
O27 C25 1.282 . S
C28 O29 1.306 . S
C28 O31 1.160 . S
O29 C28 1.306 . S
O29 Cd30 2.228 . S
Cd30 O29 2.228 . S
Cd30 O34 2.273 . S
Cd30 O38 2.277 . S
O31 C28 1.160 . S
O31 Cd32 2.203 . S
Cd32 O31 2.203 . S
Cd32 O34 2.411 . S
Cd32 O35 2.333 . S
Cd32 O36 2.352 . S
Cd32 O40 2.277 . S
Cd32 O41 2.356 . S
C33 O38 1.209 . S
C33 O40 1.226 . S
O34 Cd30 2.273 . S
O34 Cd32 2.411 . S
O34 C37 1.320 . S
O35 Cd32 2.333 . S
O35 C37 1.214 . S
O36 Cd32 2.352 . S
O36 C39 1.258 . S
C37 O34 1.320 . S
C37 O35 1.214 . S
O38 Cd30 2.277 . S
O38 C33 1.209 . S
C39 O36 1.258 . S
C39 O41 1.282 . S
O40 Cd32 2.277 . S
O40 C33 1.226 . S
O41 Cd32 2.356 . S
O41 C39 1.282 . S
C42 O43 1.306 . S
C42 O45 1.160 . S
O43 C42 1.306 . S
O43 Cd44 2.228 . S
Cd44 O43 2.228 . S
Cd44 O48 2.273 . S
Cd44 O52 2.277 . S
O45 C42 1.160 . S
O45 Cd46 2.203 . S
Cd46 O45 2.203 . S
Cd46 O48 2.411 . S
Cd46 O49 2.333 . S
Cd46 O50 2.352 . S
Cd46 O54 2.277 . S
Cd46 O55 2.356 . S
C47 O52 1.209 . S
C47 O54 1.226 . S
O48 Cd44 2.273 . S
O48 Cd46 2.411 . S
O48 C51 1.320 . S
O49 Cd46 2.333 . S
O49 C51 1.214 . S
O50 Cd46 2.352 . S
O50 C53 1.258 . S
C51 O48 1.320 . S
C51 O49 1.214 . S
O52 Cd44 2.277 . S
O52 C47 1.209 . S
C53 O50 1.258 . S
C53 O55 1.282 . S
O54 Cd46 2.277 . S
O54 C47 1.226 . S
O55 Cd46 2.356 . S
O55 C53 1.282 . S
C56 O57 1.306 . S
C56 O59 1.160 . S
O57 C56 1.306 . S
O57 Cd58 2.228 . S
Cd58 O57 2.228 . S
Cd58 O62 2.273 . S
Cd58 O66 2.277 . S
O59 C56 1.160 . S
O59 Cd60 2.203 . S
Cd60 O59 2.203 . S
Cd60 O62 2.411 . S
Cd60 O63 2.333 . S
Cd60 O64 2.352 . S
Cd60 O68 2.277 . S
Cd60 O69 2.356 . S
C61 O66 1.209 . S
C61 O68 1.226 . S
O62 Cd58 2.273 . S
O62 Cd60 2.411 . S
O62 C65 1.320 . S
O63 Cd60 2.333 . S
O63 C65 1.214 . S
O64 Cd60 2.352 . S
O64 C67 1.258 . S
C65 O62 1.320 . S
C65 O63 1.214 . S
O66 Cd58 2.277 . S
O66 C61 1.209 . S
C67 O64 1.258 . S
C67 O69 1.282 . S
O68 Cd60 2.277 . S
O68 C61 1.226 . S
O69 Cd60 2.356 . S
O69 C67 1.282 . S
C70 O71 1.306 . S
C70 O73 1.160 . S
O71 C70 1.306 . S
O71 Cd72 2.228 . S
Cd72 O71 2.228 . S
Cd72 O76 2.273 . S
Cd72 O80 2.277 . S
O73 C70 1.160 . S
O73 Cd74 2.203 . S
Cd74 O73 2.203 . S
Cd74 O76 2.411 . S
Cd74 O77 2.333 . S
Cd74 O78 2.352 . S
Cd74 O82 2.277 . S
Cd74 O83 2.356 . S
C75 O80 1.209 . S
C75 O82 1.226 . S
O76 Cd72 2.273 . S
O76 Cd74 2.411 . S
O76 C79 1.320 . S
O77 Cd74 2.333 . S
O77 C79 1.214 . S
O78 Cd74 2.352 . S
O78 C81 1.258 . S
C79 O76 1.320 . S
C79 O77 1.214 . S
O80 Cd72 2.277 . S
O80 C75 1.209 . S
C81 O78 1.258 . S
C81 O83 1.282 . S
O82 Cd74 2.277 . S
O82 C75 1.226 . S
O83 Cd74 2.356 . S
O83 C81 1.282 . S
C84 O85 1.306 . S
C84 O87 1.160 . S
O85 C84 1.306 . S
O85 Cd86 2.228 . S
Cd86 O85 2.228 . S
Cd86 O90 2.273 . S
Cd86 O94 2.277 . S
O87 C84 1.160 . S
O87 Cd88 2.203 . S
Cd88 O87 2.203 . S
Cd88 O90 2.411 . S
Cd88 O91 2.333 . S
Cd88 O92 2.352 . S
Cd88 O96 2.277 . S
Cd88 O97 2.356 . S
C89 O94 1.209 . S
C89 O96 1.226 . S
O90 Cd86 2.273 . S
O90 Cd88 2.411 . S
O90 C93 1.320 . S
O91 Cd88 2.333 . S
O91 C93 1.214 . S
O92 Cd88 2.352 . S
O92 C95 1.258 . S
C93 O90 1.320 . S
C93 O91 1.214 . S
O94 Cd86 2.277 . S
O94 C89 1.209 . S
C95 O92 1.258 . S
C95 O97 1.282 . S
O96 Cd88 2.277 . S
O96 C89 1.226 . S
O97 Cd88 2.356 . S
O97 C95 1.282 . S
C98 O99 1.306 . S
C98 O101 1.160 . S
O99 C98 1.306 . S
O99 Cd100 2.228 . S
Cd100 O99 2.228 . S
Cd100 O104 2.273 . S
Cd100 O108 2.277 . S
O101 C98 1.160 . S
O101 Cd102 2.203 . S
Cd102 O101 2.203 . S
Cd102 O104 2.411 . S
Cd102 O105 2.333 . S
Cd102 O106 2.352 . S
Cd102 O110 2.277 . S
Cd102 O111 2.356 . S
C103 O108 1.209 . S
C103 O110 1.226 . S
O104 Cd100 2.273 . S
O104 Cd102 2.411 . S
O104 C107 1.320 . S
O105 Cd102 2.333 . S
O105 C107 1.214 . S
O106 Cd102 2.352 . S
O106 C109 1.258 . S
C107 O104 1.320 . S
C107 O105 1.214 . S
O108 Cd100 2.277 . S
O108 C103 1.209 . S
C109 O106 1.258 . S
C109 O111 1.282 . S
O110 Cd102 2.277 . S
O110 C103 1.226 . S
O111 Cd102 2.356 . S
O111 C109 1.282 . S
C112 O113 1.306 . S
C112 O115 1.160 . S
O113 C112 1.306 . S
O113 Cd114 2.228 . S
Cd114 O113 2.228 . S
Cd114 O118 2.273 . S
Cd114 O122 2.277 . S
O115 C112 1.160 . S
O115 Cd116 2.203 . S
Cd116 O115 2.203 . S
Cd116 O118 2.411 . S
Cd116 O119 2.333 . S
Cd116 O120 2.352 . S
Cd116 O124 2.277 . S
Cd116 O125 2.356 . S
C117 O122 1.209 . S
C117 O124 1.226 . S
O118 Cd114 2.273 . S
O118 Cd116 2.411 . S
O118 C121 1.320 . S
O119 Cd116 2.333 . S
O119 C121 1.214 . S
O120 Cd116 2.352 . S
O120 C123 1.258 . S
C121 O118 1.320 . S
C121 O119 1.214 . S
O122 Cd114 2.277 . S
O122 C117 1.209 . S
C123 O120 1.258 . S
C123 O125 1.282 . S
O124 Cd116 2.277 . S
O124 C117 1.226 . S
O125 Cd116 2.356 . S
O125 C123 1.282 . S
C126 O127 1.306 . S
C126 O129 1.160 . S
O127 C126 1.306 . S
O127 Cd128 2.228 . S
Cd128 O127 2.228 . S
Cd128 O132 2.273 . S
Cd128 O136 2.277 . S
O129 C126 1.160 . S
O129 Cd130 2.203 . S
Cd130 O129 2.203 . S
Cd130 O132 2.411 . S
Cd130 O133 2.333 . S
Cd130 O134 2.352 . S
Cd130 O138 2.277 . S
Cd130 O139 2.356 . S
C131 O136 1.209 . S
C131 O138 1.226 . S
O132 Cd128 2.273 . S
O132 Cd130 2.411 . S
O132 C135 1.320 . S
O133 Cd130 2.333 . S
O133 C135 1.214 . S
O134 Cd130 2.352 . S
O134 C137 1.258 . S
C135 O132 1.320 . S
C135 O133 1.214 . S
O136 Cd128 2.277 . S
O136 C131 1.209 . S
C137 O134 1.258 . S
C137 O139 1.282 . S
O138 Cd130 2.277 . S
O138 C131 1.226 . S
O139 Cd130 2.356 . S
O139 C137 1.282 . S
C140 O141 1.306 . S
C140 O143 1.160 . S
O141 C140 1.306 . S
O141 Cd142 2.228 . S
Cd142 O141 2.228 . S
Cd142 O146 2.273 . S
Cd142 O150 2.277 . S
O143 C140 1.160 . S
O143 Cd144 2.203 . S
Cd144 O143 2.203 . S
Cd144 O146 2.411 . S
Cd144 O147 2.333 . S
Cd144 O148 2.352 . S
Cd144 O152 2.277 . S
Cd144 O153 2.356 . S
C145 O150 1.209 . S
C145 O152 1.226 . S
O146 Cd142 2.273 . S
O146 Cd144 2.411 . S
O146 C149 1.320 . S
O147 Cd144 2.333 . S
O147 C149 1.214 . S
O148 Cd144 2.352 . S
O148 C151 1.258 . S
C149 O146 1.320 . S
C149 O147 1.214 . S
O150 Cd142 2.277 . S
O150 C145 1.209 . S
C151 O148 1.258 . S
C151 O153 1.282 . S
O152 Cd144 2.277 . S
O152 C145 1.226 . S
O153 Cd144 2.356 . S
O153 C151 1.282 . S
C154 O155 1.306 . S
C154 O157 1.160 . S
O155 C154 1.306 . S
O155 Cd156 2.228 . S
Cd156 O155 2.228 . S
Cd156 O160 2.273 . S
Cd156 O164 2.277 . S
O157 C154 1.160 . S
O157 Cd158 2.203 . S
Cd158 O157 2.203 . S
Cd158 O160 2.411 . S
Cd158 O161 2.333 . S
Cd158 O162 2.352 . S
Cd158 O166 2.277 . S
Cd158 O167 2.356 . S
C159 O164 1.209 . S
C159 O166 1.226 . S
O160 Cd156 2.273 . S
O160 Cd158 2.411 . S
O160 C163 1.320 . S
O161 Cd158 2.333 . S
O161 C163 1.214 . S
O162 Cd158 2.352 . S
O162 C165 1.258 . S
C163 O160 1.320 . S
C163 O161 1.214 . S
O164 Cd156 2.277 . S
O164 C159 1.209 . S
C165 O162 1.258 . S
C165 O167 1.282 . S
O166 Cd158 2.277 . S
O166 C159 1.226 . S
O167 Cd158 2.356 . S
O167 C165 1.282 . S
H168 C174 0.930 . S
H169 C178 0.930 . S
H170 C183 0.929 . S
H171 C181 0.929 . S
H172 C176 0.929 . S
H173 C182 0.929 . S
C174 H168 0.930 . S
C174 C175 1.367 . S
C174 C182 1.378 . S
C175 C174 1.367 . S
C175 C183 1.433 . S
C176 H172 0.929 . S
C176 C178 1.378 . S
C176 C180 1.350 . S
C177 C180 1.463 . S
C177 C182 1.350 . S
C177 N185 1.427 . S
C178 H169 0.930 . S
C178 C176 1.378 . S
C178 C179 1.367 . S
C179 C178 1.367 . S
C179 C181 1.433 . S
C180 C176 1.350 . S
C180 C177 1.463 . S
C180 N184 1.427 . S
C181 H171 0.929 . S
C181 C179 1.433 . S
C181 N184 1.384 . S
C182 H173 0.929 . S
C182 C174 1.378 . S
C182 C177 1.350 . S
C183 H170 0.929 . S
C183 C175 1.433 . S
C183 N185 1.384 . S
N184 C180 1.427 . S
N184 C181 1.384 . S
N185 C177 1.427 . S
N185 C183 1.384 . S
H186 C192 0.930 . S
H187 C196 0.930 . S
H188 C201 0.929 . S
H189 C199 0.929 . S
H190 C194 0.929 . S
H191 C200 0.929 . S
C192 H186 0.930 . S
C192 C193 1.367 . S
C192 C200 1.378 . S
C193 C192 1.367 . S
C193 C201 1.433 . S
C194 H190 0.929 . S
C194 C196 1.378 . S
C194 C198 1.350 . S
C195 C198 1.463 1_455 S
C195 C200 1.350 . S
C195 N203 1.427 1_455 S
C196 H187 0.930 . S
C196 C194 1.378 . S
C196 C197 1.367 . S
C197 C196 1.367 . S
C197 C199 1.433 . S
C198 C194 1.350 . S
C198 C195 1.463 1_655 S
C198 N202 1.427 1_655 S
C199 H189 0.929 . S
C199 C197 1.433 . S
C199 N202 1.384 1_655 S
C200 H191 0.929 . S
C200 C192 1.378 . S
C200 C195 1.350 . S
C201 H188 0.929 . S
C201 C193 1.433 . S
C201 N203 1.384 1_455 S
N202 C198 1.427 1_455 S
N202 C199 1.384 1_455 S
N203 C195 1.427 1_655 S
N203 C201 1.384 1_655 S
H204 C210 0.930 . S
H205 C214 0.930 . S
H206 C219 0.929 1_545 S
H207 C217 0.929 1_565 S
H208 C212 0.929 . S
H209 C218 0.929 . S
C210 H204 0.930 . S
C210 C211 1.367 . S
C210 C218 1.378 . S
C211 C210 1.367 . S
C211 C219 1.433 . S
C212 H208 0.929 . S
C212 C214 1.378 . S
C212 C216 1.350 . S
C213 C216 1.463 1_565 S
C213 C218 1.350 . S
C213 N221 1.427 1_565 S
C214 H205 0.930 . S
C214 C212 1.378 . S
C214 C215 1.367 . S
C215 C214 1.367 . S
C215 C217 1.433 . S
C216 C212 1.350 . S
C216 C213 1.463 1_545 S
C216 N220 1.427 1_545 S
C217 H207 0.929 1_545 S
C217 C215 1.433 . S
C217 N220 1.384 1_545 S
C218 H209 0.929 . S
C218 C210 1.378 . S
C218 C213 1.350 . S
C219 H206 0.929 1_565 S
C219 C211 1.433 . S
C219 N221 1.384 1_565 S
N220 C216 1.427 1_565 S
N220 C217 1.384 1_565 S
N221 C213 1.427 1_545 S
N221 C219 1.384 1_545 S
H222 C228 0.930 . S
H223 C232 0.930 . S
H224 C237 0.929 . S
H225 C235 0.929 . S
H226 C230 0.929 . S
H227 C236 0.929 . S
C228 H222 0.930 . S
C228 C229 1.367 . S
C228 C236 1.378 . S
C229 C228 1.367 . S
C229 C237 1.433 . S
C230 H226 0.929 . S
C230 C232 1.378 . S
C230 C234 1.350 . S
C231 C234 1.463 . S
C231 C236 1.350 . S
C231 N239 1.427 . S
C232 H223 0.930 . S
C232 C230 1.378 . S
C232 C233 1.367 . S
C233 C232 1.367 . S
C233 C235 1.433 . S
C234 C230 1.350 . S
C234 C231 1.463 . S
C234 N238 1.427 . S
C235 H225 0.929 . S
C235 C233 1.433 . S
C235 N238 1.384 . S
C236 H227 0.929 . S
C236 C228 1.378 . S
C236 C231 1.350 . S
C237 H224 0.929 . S
C237 C229 1.433 . S
C237 N239 1.384 . S
N238 C234 1.427 . S
N238 C235 1.384 . S
N239 C231 1.427 . S
N239 C237 1.384 . S
H240 C246 0.930 . S
H241 C250 0.930 . S
H242 C255 0.929 . S
H243 C253 0.929 . S
H244 C248 0.929 1_655 S
H245 C254 0.929 1_455 S
C246 H240 0.930 . S
C246 C247 1.367 . S
C246 C254 1.378 . S
C247 C246 1.367 . S
C247 C255 1.433 . S
C248 H244 0.929 1_455 S
C248 C250 1.378 . S
C248 C252 1.350 . S
C249 C252 1.463 1_655 S
C249 C254 1.350 . S
C249 N257 1.427 . S
C250 H241 0.930 . S
C250 C248 1.378 . S
C250 C251 1.367 . S
C251 C250 1.367 . S
C251 C253 1.433 . S
C252 C248 1.350 . S
C252 C249 1.463 1_455 S
C252 N256 1.427 . S
C253 H243 0.929 . S
C253 C251 1.433 . S
C253 N256 1.384 . S
C254 H245 0.929 1_655 S
C254 C246 1.378 . S
C254 C249 1.350 . S
C255 H242 0.929 . S
C255 C247 1.433 . S
C255 N257 1.384 . S
N256 C252 1.427 . S
N256 C253 1.384 . S
N257 C249 1.427 . S
N257 C255 1.384 . S
H258 C264 0.930 . S
H259 C268 0.930 . S
H260 C273 0.929 . S
H261 C271 0.929 . S
H262 C266 0.929 . S
H263 C272 0.929 . S
C264 H258 0.930 . S
C264 C265 1.367 . S
C264 C272 1.378 1_545 S
C265 C264 1.367 . S
C265 C273 1.433 . S
C266 H262 0.929 . S
C266 C268 1.378 1_545 S
C266 C270 1.350 1_545 S
C267 C270 1.463 1_545 S
C267 C272 1.350 1_545 S
C267 N275 1.427 . S
C268 H259 0.930 . S
C268 C266 1.378 1_565 S
C268 C269 1.367 . S
C269 C268 1.367 . S
C269 C271 1.433 . S
C270 C266 1.350 1_565 S
C270 C267 1.463 1_565 S
C270 N274 1.427 . S
C271 H261 0.929 . S
C271 C269 1.433 . S
C271 N274 1.384 . S
C272 H263 0.929 . S
C272 C264 1.378 1_565 S
C272 C267 1.350 1_565 S
C273 H260 0.929 . S
C273 C265 1.433 . S
C273 N275 1.384 . S
N274 C270 1.427 . S
N274 C271 1.384 . S
N275 C267 1.427 . S
N275 C273 1.384 . S
H276 C282 0.930 . S
H277 C286 0.930 . S
H278 C291 0.929 . S
H279 C289 0.929 . S
H280 C284 0.929 . S
H281 C290 0.929 . S
C282 H276 0.930 . S
C282 C283 1.367 . S
C282 C290 1.378 . S
C283 C282 1.367 . S
C283 C291 1.433 . S
C284 H280 0.929 . S
C284 C286 1.378 . S
C284 C288 1.350 . S
C285 C288 1.463 . S
C285 C290 1.350 . S
C285 N293 1.427 . S
C286 H277 0.930 . S
C286 C284 1.378 . S
C286 C287 1.367 . S
C287 C286 1.367 . S
C287 C289 1.433 . S
C288 C284 1.350 . S
C288 C285 1.463 . S
C288 N292 1.427 . S
C289 H279 0.929 . S
C289 C287 1.433 . S
C289 N292 1.384 . S
C290 H281 0.929 . S
C290 C282 1.378 . S
C290 C285 1.350 . S
C291 H278 0.929 . S
C291 C283 1.433 . S
C291 N293 1.384 . S
N292 C288 1.427 . S
N292 C289 1.384 . S
N293 C285 1.427 . S
N293 C291 1.384 . S
H294 C300 0.930 . S
H295 C304 0.930 . S
H296 C309 0.929 . S
H297 C307 0.929 . S
H298 C302 0.929 . S
H299 C308 0.929 . S
C300 H294 0.930 . S
C300 C301 1.367 . S
C300 C308 1.378 . S
C301 C300 1.367 . S
C301 C309 1.433 . S
C302 H298 0.929 . S
C302 C304 1.378 . S
C302 C306 1.350 . S
C303 C306 1.463 . S
C303 C308 1.350 . S
C303 N311 1.427 . S
C304 H295 0.930 . S
C304 C302 1.378 . S
C304 C305 1.367 . S
C305 C304 1.367 . S
C305 C307 1.433 . S
C306 C302 1.350 . S
C306 C303 1.463 . S
C306 N310 1.427 . S
C307 H297 0.929 . S
C307 C305 1.433 . S
C307 N310 1.384 . S
C308 H299 0.929 . S
C308 C300 1.378 . S
C308 C303 1.350 . S
C309 H296 0.929 . S
C309 C301 1.433 . S
C309 N311 1.384 . S
N310 C306 1.427 . S
N310 C307 1.384 . S
N311 C303 1.427 . S
N311 C309 1.384 . S
H312 C318 0.930 . S
H313 C322 0.930 . S
H314 C327 0.929 . S
H315 C325 0.929 . S
H316 C320 0.929 . S
H317 C326 0.929 . S
C318 H312 0.930 . S
C318 C319 1.367 . S
C318 C326 1.378 . S
C319 C318 1.367 . S
C319 C327 1.433 . S
C320 H316 0.929 . S
C320 C322 1.378 . S
C320 C324 1.350 . S
C321 C324 1.463 . S
C321 C326 1.350 . S
C321 N329 1.427 . S
C322 H313 0.930 . S
C322 C320 1.378 . S
C322 C323 1.367 . S
C323 C322 1.367 . S
C323 C325 1.433 . S
C324 C320 1.350 . S
C324 C321 1.463 . S
C324 N328 1.427 . S
C325 H315 0.929 . S
C325 C323 1.433 . S
C325 N328 1.384 . S
C326 H317 0.929 . S
C326 C318 1.378 . S
C326 C321 1.350 . S
C327 H314 0.929 . S
C327 C319 1.433 . S
C327 N329 1.384 . S
N328 C324 1.427 . S
N328 C325 1.384 . S
N329 C321 1.427 . S
N329 C327 1.384 . S
H330 C336 0.930 . S
H331 C340 0.930 . S
H332 C345 0.929 . S
H333 C343 0.929 . S
H334 C338 0.929 . S
H335 C344 0.929 . S
C336 H330 0.930 . S
C336 C337 1.367 . S
C336 C344 1.378 . S
C337 C336 1.367 . S
C337 C345 1.433 . S
C338 H334 0.929 . S
C338 C340 1.378 . S
C338 C342 1.350 . S
C339 C342 1.463 . S
C339 C344 1.350 . S
C339 N347 1.427 . S
C340 H331 0.930 . S
C340 C338 1.378 . S
C340 C341 1.367 . S
C341 C340 1.367 . S
C341 C343 1.433 . S
C342 C338 1.350 . S
C342 C339 1.463 . S
C342 N346 1.427 . S
C343 H333 0.929 . S
C343 C341 1.433 . S
C343 N346 1.384 . S
C344 H335 0.929 . S
C344 C336 1.378 . S
C344 C339 1.350 . S
C345 H332 0.929 . S
C345 C337 1.433 . S
C345 N347 1.384 . S
N346 C342 1.427 . S
N346 C343 1.384 . S
N347 C339 1.427 . S
N347 C345 1.384 . S
H348 C354 0.930 . S
H349 C358 0.930 . S
H350 C363 0.929 . S
H351 C361 0.929 . S
H352 C356 0.929 . S
H353 C362 0.929 . S
C354 H348 0.930 . S
C354 C355 1.367 . S
C354 C362 1.378 . S
C355 C354 1.367 . S
C355 C363 1.433 . S
C356 H352 0.929 . S
C356 C358 1.378 . S
C356 C360 1.350 . S
C357 C360 1.463 . S
C357 C362 1.350 . S
C357 N365 1.427 . S
C358 H349 0.930 . S
C358 C356 1.378 . S
C358 C359 1.367 . S
C359 C358 1.367 . S
C359 C361 1.433 . S
C360 C356 1.350 . S
C360 C357 1.463 . S
C360 N364 1.427 . S
C361 H351 0.929 . S
C361 C359 1.433 . S
C361 N364 1.384 . S
C362 H353 0.929 . S
C362 C354 1.378 . S
C362 C357 1.350 . S
C363 H350 0.929 . S
C363 C355 1.433 . S
C363 N365 1.384 . S
N364 C360 1.427 . S
N364 C361 1.384 . S
N365 C357 1.427 . S
N365 C363 1.384 . S
H366 C372 0.930 . S
H367 C376 0.930 . S
H368 C381 0.929 . S
H369 C379 0.929 . S
H370 C374 0.929 . S
H371 C380 0.929 . S
C372 H366 0.930 . S
C372 C373 1.367 . S
C372 C380 1.378 . S
C373 C372 1.367 . S
C373 C381 1.433 . S
C374 H370 0.929 . S
C374 C376 1.378 . S
C374 C378 1.350 . S
C375 C378 1.463 . S
C375 C380 1.350 . S
C375 N383 1.427 . S
C376 H367 0.930 . S
C376 C374 1.378 . S
C376 C377 1.367 . S
C377 C376 1.367 . S
C377 C379 1.433 . S
C378 C374 1.350 . S
C378 C375 1.463 . S
C378 N382 1.427 . S
C379 H369 0.929 . S
C379 C377 1.433 . S
C379 N382 1.384 . S
C380 H371 0.929 . S
C380 C372 1.378 . S
C380 C375 1.350 . S
C381 H368 0.929 . S
C381 C373 1.433 . S
C381 N383 1.384 . S
N382 C378 1.427 . S
N382 C379 1.384 . S
N383 C375 1.427 . S
N383 C381 1.384 . S
H384 C390 0.938 . S
H385 C394 0.938 . S
H386 C399 0.929 . S
H387 C397 0.929 . S
H388 C392 0.929 . S
H389 C398 0.929 . S
C390 H384 0.938 . S
C390 C391 1.354 1_554 S
C390 C398 1.383 . S
C391 C390 1.354 1_556 S
C391 C399 1.433 . S
C392 H388 0.929 . S
C392 C394 1.383 . S
C392 C396 1.350 1_556 S
C393 C396 1.463 1_566 S
C393 C398 1.350 1_556 S
C393 N401 1.427 . S
C394 H385 0.938 . S
C394 C392 1.383 . S
C394 C395 1.354 1_556 S
C395 C394 1.354 1_554 S
C395 C397 1.433 . S
C396 C392 1.350 1_554 S
C396 C393 1.463 1_544 S
C396 N400 1.427 . S
C397 H387 0.929 . S
C397 C395 1.433 . S
C397 N400 1.384 . S
C398 H389 0.929 . S
C398 C390 1.383 . S
C398 C393 1.350 1_554 S
C399 H386 0.929 . S
C399 C391 1.433 . S
C399 N401 1.384 . S
N400 C396 1.427 . S
N400 C397 1.384 . S
N401 C393 1.427 . S
N401 C399 1.384 . S
H402 C408 0.930 . S
H403 C412 0.930 . S
H404 C417 0.929 . S
H405 C415 0.929 . S
H406 C410 0.929 . S
H407 C416 0.929 . S
C408 H402 0.930 . S
C408 C409 1.367 . S
C408 C416 1.378 . S
C409 C408 1.367 . S
C409 C417 1.433 . S
C410 H406 0.929 . S
C410 C412 1.378 . S
C410 C414 1.350 . S
C411 C414 1.463 . S
C411 C416 1.350 . S
C411 N419 1.427 . S
C412 H403 0.930 . S
C412 C410 1.378 . S
C412 C413 1.367 . S
C413 C412 1.367 . S
C413 C415 1.433 . S
C414 C410 1.350 . S
C414 C411 1.463 . S
C414 N418 1.427 . S
C415 H405 0.929 . S
C415 C413 1.433 . S
C415 N418 1.384 . S
C416 H407 0.929 . S
C416 C408 1.378 . S
C416 C411 1.350 . S
C417 H404 0.929 . S
C417 C409 1.433 . S
C417 N419 1.384 . S
N418 C414 1.427 . S
N418 C415 1.384 . S
N419 C411 1.427 . S
N419 C417 1.384 . S
H420 C426 0.930 . S
H421 C430 0.930 . S
H422 C435 0.929 . S
H423 C433 0.929 . S
H424 C428 0.929 . S
H425 C434 0.929 . S
C426 H420 0.930 . S
C426 C427 1.367 . S
C426 C434 1.378 . S
C427 C426 1.367 . S
C427 C435 1.433 . S
C428 H424 0.929 . S
C428 C430 1.378 . S
C428 C432 1.350 . S
C429 C432 1.463 1_655 S
C429 C434 1.350 . S
C429 N437 1.427 . S
C430 H421 0.930 . S
C430 C428 1.378 . S
C430 C431 1.367 . S
C431 C430 1.367 . S
C431 C433 1.433 . S
C432 C428 1.350 . S
C432 C429 1.463 1_455 S
C432 N436 1.427 . S
C433 H423 0.929 . S
C433 C431 1.433 . S
C433 N436 1.384 . S
C434 H425 0.929 . S
C434 C426 1.378 . S
C434 C429 1.350 . S
C435 H422 0.929 . S
C435 C427 1.433 . S
C435 N437 1.384 . S
N436 C432 1.427 . S
N436 C433 1.384 . S
N437 C429 1.427 . S
N437 C435 1.384 . S
H438 C444 0.930 . S
H439 C448 0.930 . S
H440 C453 0.929 . S
H441 C451 0.929 . S
H442 C446 0.929 . S
H443 C452 0.929 . S
C444 H438 0.930 . S
C444 C445 1.367 . S
C444 C452 1.378 . S
C445 C444 1.367 . S
C445 C453 1.433 . S
C446 H442 0.929 . S
C446 C448 1.378 . S
C446 C450 1.350 . S
C447 C450 1.463 1_564 S
C447 C452 1.350 . S
C447 N455 1.423 1_554 S
C448 H439 0.930 . S
C448 C446 1.378 . S
C448 C449 1.367 . S
C449 C448 1.367 . S
C449 C451 1.433 . S
C450 C446 1.350 . S
C450 C447 1.463 1_546 S
C450 N454 1.423 1_556 S
C451 H441 0.929 . S
C451 C449 1.433 . S
C451 N454 1.376 1_556 S
C452 H443 0.929 . S
C452 C444 1.378 . S
C452 C447 1.350 . S
C453 H440 0.929 . S
C453 C445 1.433 . S
C453 N455 1.376 1_554 S
N454 C450 1.423 1_554 S
N454 C451 1.376 1_554 S
N455 C447 1.423 1_556 S
N455 C453 1.376 1_556 S
H456 C462 0.930 . S
H457 C466 0.930 . S
H458 C471 0.929 . S
H459 C469 0.929 . S
H460 C464 0.929 . S
H461 C470 0.929 . S
C462 H456 0.930 . S
C462 C463 1.367 . S
C462 C470 1.378 . S
C463 C462 1.367 . S
C463 C471 1.433 . S
C464 H460 0.929 . S
C464 C466 1.378 . S
C464 C468 1.350 . S
C465 C468 1.463 . S
C465 C470 1.350 . S
C465 N473 1.427 . S
C466 H457 0.930 . S
C466 C464 1.378 . S
C466 C467 1.367 . S
C467 C466 1.367 . S
C467 C469 1.433 . S
C468 C464 1.350 . S
C468 C465 1.463 . S
C468 N472 1.427 . S
C469 H459 0.929 . S
C469 C467 1.433 . S
C469 N472 1.384 . S
C470 H461 0.929 . S
C470 C462 1.378 . S
C470 C465 1.350 . S
C471 H458 0.929 . S
C471 C463 1.433 . S
C471 N473 1.384 . S
N472 C468 1.427 . S
N472 C469 1.384 . S
N473 C465 1.427 . S
N473 C471 1.384 . S
H474 C480 0.930 . S
H475 C484 0.930 . S
H476 C489 0.929 . S
H477 C487 0.929 . S
H478 C482 0.929 . S
H479 C488 0.929 . S
C480 H474 0.930 . S
C480 C481 1.367 . S
C480 C488 1.378 . S
C481 C480 1.367 . S
C481 C489 1.433 . S
C482 H478 0.929 . S
C482 C484 1.378 . S
C482 C486 1.350 . S
C483 C486 1.463 1_455 S
C483 C488 1.350 . S
C483 N491 1.427 . S
C484 H475 0.930 . S
C484 C482 1.378 . S
C484 C485 1.367 . S
C485 C484 1.367 . S
C485 C487 1.433 . S
C486 C482 1.350 . S
C486 C483 1.463 1_655 S
C486 N490 1.427 . S
C487 H477 0.929 . S
C487 C485 1.433 . S
C487 N490 1.384 . S
C488 H479 0.929 . S
C488 C480 1.378 . S
C488 C483 1.350 . S
C489 H476 0.929 . S
C489 C481 1.433 . S
C489 N491 1.384 . S
N490 C486 1.427 . S
N490 C487 1.384 . S
N491 C483 1.427 . S
N491 C489 1.384 . S
H492 C498 0.930 1_655 S
H493 C502 0.930 . S
H494 C507 0.929 . S
H495 C505 0.929 . S
H496 C500 0.945 . S
H497 C506 0.945 . S
C498 H492 0.930 1_455 S
C498 C499 1.367 . S
C498 C506 1.368 1_556 S
C499 C498 1.367 . S
C499 C507 1.433 . S
C500 H496 0.945 . S
C500 C502 1.368 1_556 S
C500 C504 1.344 1_556 S
C501 C504 1.463 1_556 S
C501 C506 1.344 1_556 S
C501 N509 1.427 . S
C502 H493 0.930 . S
C502 C500 1.368 1_554 S
C502 C503 1.367 . S
C503 C502 1.367 . S
C503 C505 1.433 . S
C504 C500 1.344 1_554 S
C504 C501 1.463 1_554 S
C504 N508 1.427 . S
C505 H495 0.929 . S
C505 C503 1.433 . S
C505 N508 1.384 . S
C506 H497 0.945 . S
C506 C498 1.368 1_554 S
C506 C501 1.344 1_554 S
C507 H494 0.929 . S
C507 C499 1.433 . S
C507 N509 1.384 . S
N508 C504 1.427 . S
N508 C505 1.384 . S
N509 C501 1.427 . S
N509 C507 1.384 . S
H510 C516 0.930 1_565 S
H511 C520 0.930 . S
H512 C525 0.929 . S
H513 C523 0.929 . S
H514 C518 0.929 . S
H515 C524 0.929 . S
C516 H510 0.930 1_545 S
C516 C517 1.367 . S
C516 C524 1.378 . S
C517 C516 1.367 . S
C517 C525 1.433 . S
C518 H514 0.929 . S
C518 C520 1.378 . S
C518 C522 1.350 . S
C519 C522 1.463 . S
C519 C524 1.350 . S
C519 N527 1.427 . S
C520 H511 0.930 . S
C520 C518 1.378 . S
C520 C521 1.367 . S
C521 C520 1.367 . S
C521 C523 1.433 . S
C522 C518 1.350 . S
C522 C519 1.463 . S
C522 N526 1.427 . S
C523 H513 0.929 . S
C523 C521 1.433 . S
C523 N526 1.384 . S
C524 H515 0.929 . S
C524 C516 1.378 . S
C524 C519 1.350 . S
C525 H512 0.929 . S
C525 C517 1.433 . S
C525 N527 1.384 . S
N526 C522 1.427 . S
N526 C523 1.384 . S
N527 C519 1.427 . S
N527 C525 1.384 . S
H528 C534 0.930 . S
H529 C538 0.930 . S
H530 C543 0.929 . S
H531 C541 0.929 . S
H532 C536 0.929 . S
H533 C542 0.929 . S
C534 H528 0.930 . S
C534 C535 1.367 . S
C534 C542 1.378 . S
C535 C534 1.367 . S
C535 C543 1.433 . S
C536 H532 0.929 . S
C536 C538 1.378 . S
C536 C540 1.350 . S
C537 C540 1.463 . S
C537 C542 1.350 . S
C537 N545 1.427 . S
C538 H529 0.930 . S
C538 C536 1.378 . S
C538 C539 1.367 . S
C539 C538 1.367 . S
C539 C541 1.433 . S
C540 C536 1.350 . S
C540 C537 1.463 . S
C540 N544 1.427 . S
C541 H531 0.929 . S
C541 C539 1.433 . S
C541 N544 1.384 . S
C542 H533 0.929 . S
C542 C534 1.378 . S
C542 C537 1.350 . S
C543 H530 0.929 . S
C543 C535 1.433 . S
C543 N545 1.384 . S
N544 C540 1.427 . S
N544 C541 1.384 . S
N545 C537 1.427 . S
N545 C543 1.384 . S
H546 C552 0.943 . S
H547 C556 0.943 . S
H548 C561 0.929 . S
H549 C559 0.929 . S
H550 C554 0.929 . S
H551 C560 0.929 . S
C552 H546 0.943 . S
C552 C553 1.367 . S
C552 C560 1.378 1_554 S
C553 C552 1.367 . S
C553 C561 1.433 . S
C554 H550 0.929 . S
C554 C556 1.378 1_554 S
C554 C558 1.350 1_554 S
C555 C558 1.463 1_554 S
C555 C560 1.350 1_554 S
C555 N563 1.427 . S
C556 H547 0.943 . S
C556 C554 1.378 1_556 S
C556 C557 1.367 . S
C557 C556 1.367 . S
C557 C559 1.433 . S
C558 C554 1.350 1_556 S
C558 C555 1.463 1_556 S
C558 N562 1.427 . S
C559 H549 0.929 . S
C559 C557 1.433 . S
C559 N562 1.384 . S
C560 H551 0.929 . S
C560 C552 1.378 1_556 S
C560 C555 1.350 1_556 S
C561 H548 0.929 . S
C561 C553 1.433 . S
C561 N563 1.384 . S
N562 C558 1.427 . S
N562 C559 1.384 . S
N563 C555 1.427 . S
N563 C561 1.384 . S
H564 C570 0.930 . S
H565 C574 0.930 . S
H566 C579 0.929 1_655 S
H567 C577 0.929 . S
H568 C572 0.929 . S
H569 C578 0.929 . S
C570 H564 0.930 . S
C570 C571 1.367 . S
C570 C578 1.378 . S
C571 C570 1.367 . S
C571 C579 1.433 . S
C572 H568 0.929 . S
C572 C574 1.378 . S
C572 C576 1.350 . S
C573 C576 1.463 . S
C573 C578 1.350 . S
C573 N581 1.427 . S
C574 H565 0.930 . S
C574 C572 1.378 . S
C574 C575 1.367 . S
C575 C574 1.367 . S
C575 C577 1.433 . S
C576 C572 1.350 . S
C576 C573 1.463 . S
C576 N580 1.427 . S
C577 H567 0.929 . S
C577 C575 1.433 . S
C577 N580 1.384 . S
C578 H569 0.929 . S
C578 C570 1.378 . S
C578 C573 1.350 . S
C579 H566 0.929 1_455 S
C579 C571 1.433 . S
C579 N581 1.384 . S
N580 C576 1.427 . S
N580 C577 1.384 . S
N581 C573 1.427 . S
N581 C579 1.384 . S
H582 C588 0.930 . S
H583 C592 0.930 . S
H584 C597 0.929 1_565 S
H585 C595 0.929 . S
H586 C590 0.929 . S
H587 C596 0.929 . S
C588 H582 0.930 . S
C588 C589 1.367 . S
C588 C596 1.378 . S
C589 C588 1.367 . S
C589 C597 1.433 . S
C590 H586 0.929 . S
C590 C592 1.378 . S
C590 C594 1.350 . S
C591 C594 1.463 . S
C591 C596 1.350 . S
C591 N599 1.427 . S
C592 H583 0.930 . S
C592 C590 1.378 . S
C592 C593 1.367 . S
C593 C592 1.367 . S
C593 C595 1.433 . S
C594 C590 1.350 . S
C594 C591 1.463 . S
C594 N598 1.427 . S
C595 H585 0.929 . S
C595 C593 1.433 . S
C595 N598 1.384 . S
C596 H587 0.929 . S
C596 C588 1.378 . S
C596 C591 1.350 . S
C597 H584 0.929 1_545 S
C597 C589 1.433 . S
C597 N599 1.384 . S
N598 C594 1.427 . S
N598 C595 1.384 . S
N599 C591 1.427 . S
N599 C597 1.384 . S
C175 C53 1.311 . S
C179 C11 1.310 . S
C193 C23 1.421 . S
C197 C65 1.424 . S
C211 C79 1.332 . S
C215 C37 1.333 . S
C229 C93 1.414 . S
C233 C135 1.421 . S
C247 C151 1.311 . S
C251 C109 1.310 . S
C265 C121 1.323 . S
C269 C163 1.320 . S
C283 C123 1.630 . S
C287 C9 1.637 . S
C301 C25 1.658 . S
C305 C137 1.654 . S
C319 C39 1.625 . S
C323 C149 1.635 . S
C337 C51 1.635 . S
C341 C165 1.625 . S
C355 C95 1.657 . S
C359 C67 1.654 . S
C373 C107 1.635 . S
C377 C81 1.626 . S
C391 C103 1.217 . S
C395 C5 1.213 . S
C409 C14 1.340 . S
C413 C112 1.350 . S
C427 C28 1.350 . S
C431 C126 1.339 . S
C445 C47 1.216 . S
C449 C145 1.207 . S
C463 C154 1.351 . S
C467 C56 1.337 . S
C481 C70 1.348 . S
C485 C84 1.339 . S
C499 C140 1.320 1_455 S
C503 C0 1.327 . S
C517 C159 1.486 1_545 S
C521 C19 1.487 1_655 S
C535 C89 1.487 . S
C539 C33 1.486 1_565 S
C553 C42 1.321 . S
C557 C98 1.327 1_655 S
C571 C61 1.486 1_455 S
C575 C117 1.486 1_565 S
C589 C75 1.488 1_545 S
C593 C131 1.484 . S
