# Generated by pormake.
# Topology fnt, (5)-cn, num edge types: 1
# Building blocks:
#     Node 0, Type 0, BuildingBlock: XOMCOT_clean_sbu_1, # of connection points: 5
#     Node 1, Type 0, BuildingBlock: XOMCOT_clean_sbu_1, # of connection points: 5
#     Node 2, Type 0, BuildingBlock: XOMCOT_clean_sbu_1, # of connection points: 5
#     Node 3, Type 0, BuildingBlock: XOMCOT_clean_sbu_1, # of connection points: 5
#     Node 4, Type 0, BuildingBlock: XOMCOT_clean_sbu_1, # of connection points: 5
#     Node 5, Type 0, BuildingBlock: XOMCOT_clean_sbu_1, # of connection points: 5
#     Edge 6, Type (0, 0), BuildingBlock: TEMPAE_clean_linker_10, # of connection points: 2
#     Edge 7, Type (0, 0), BuildingBlock: TEMPAE_clean_linker_10, # of connection points: 2
#     Edge 8, Type (0, 0), BuildingBlock: TEMPAE_clean_linker_10, # of connection points: 2
#     Edge 9, Type (0, 0), BuildingBlock: TEMPAE_clean_linker_10, # of connection points: 2
#     Edge 10, Type (0, 0), BuildingBlock: TEMPAE_clean_linker_10, # of connection points: 2
#     Edge 11, Type (0, 0), BuildingBlock: TEMPAE_clean_linker_10, # of connection points: 2
#     Edge 12, Type (0, 0), BuildingBlock: TEMPAE_clean_linker_10, # of connection points: 2
#     Edge 13, Type (0, 0), BuildingBlock: TEMPAE_clean_linker_10, # of connection points: 2
#     Edge 14, Type (0, 0), BuildingBlock: TEMPAE_clean_linker_10, # of connection points: 2
#     Edge 15, Type (0, 0), BuildingBlock: TEMPAE_clean_linker_10, # of connection points: 2
#     Edge 16, Type (0, 0), BuildingBlock: TEMPAE_clean_linker_10, # of connection points: 2
#     Edge 17, Type (0, 0), BuildingBlock: TEMPAE_clean_linker_10, # of connection points: 2
#     Edge 18, Type (0, 0), BuildingBlock: TEMPAE_clean_linker_10, # of connection points: 2
#     Edge 19, Type (0, 0), BuildingBlock: TEMPAE_clean_linker_10, # of connection points: 2
#     Edge 20, Type (0, 0), BuildingBlock: TEMPAE_clean_linker_10, # of connection points: 2
# Relax obj value: 0.137
# Max RMSD: 0.169
# Mean RMSD: 0.169
data_MOF--net-fnt--node1-XOMCOT_clean_sbu_1--edge1-TEMPAE_clean_linker_10
_symmetry_space_group_name_H-M    P1
_symmetry_Int_Tables_number       1
_symmetry_cell_setting            triclinic
loop_
_symmetry_equiv_pos_as_xyz
'x, y, z'
_cell_length_a     27.764657
_cell_length_b     27.731891
_cell_length_c     47.833818
_cell_angle_alpha  90.335776
_cell_angle_beta   89.784175
_cell_angle_gamma 120.26654
loop_
_atom_site_label
_atom_site_type_symbol
_atom_site_fract_x
_atom_site_fract_y
_atom_site_fract_z
_atom_type_partial_charge
C0 C 0.15521 0.37781 0.07891 0.0
C1 C 0.14228 0.37519 0.10667 0.0
N2 N 0.13844 0.32862 0.11739 0.0
N3 N 0.16007 0.33335 0.07174 0.0
C4 C 0.14911 0.30354 0.09571 0.0
H5 H 0.15893 0.40939 0.0645 0.0
Co6 Co 0.17561 0.32481 1.0342 0.0
C7 C 0.11308 0.20428 1.02467 0.0
O8 O 0.09357 0.21647 1.00246 0.0
N9 N 0.19485 0.32085 0.99599 0.0
C10 C 0.22898 0.35368 0.95355 0.0
C11 C 0.21466 0.36565 0.97899 0.0
C12 C 0.20176 0.28328 0.98057 0.0
N13 N 0.22031 0.30147 0.95431 0.0
O14 O 0.25164 0.34932 0.04427 0.0
H15 H 0.22039 0.40586 0.98489 0.0
H16 H 0.19457 0.24378 0.98843 0.0
O17 O 0.1494 0.24409 0.04011 0.0
C18 C 0.27496 0.40262 0.04399 0.0
O19 O 0.24449 0.42452 1.03681 0.0
N20 N 0.10227 0.30817 1.02501 0.0
C21 C 0.01004 0.32182 1.02913 0.0
C22 C 0.01189 0.27996 0.04437 0.0
C23 C 0.05831 0.27342 0.04183 0.0
C24 C 0.09778 0.34492 1.00793 0.0
C25 C 0.05145 0.35156 1.00924 0.0
H26 H 0.06182 0.24548 0.05622 0.0
H27 H 0.1325 0.37468 0.99584 0.0
H28 H 0.14803 0.26407 0.09714 0.0
H29 H 0.13392 0.40422 0.11789 0.0
H30 H 0.24646 0.3822 0.93615 0.0
H31 H 0.98072 0.25664 0.06016 0.0
H32 H 0.05187 0.3851 0.99751 0.0
C33 C 0.78967 0.16335 0.42104 0.0
C34 C 0.77763 0.14292 0.44773 0.0
N35 N 0.82104 0.13913 0.4575 0.0
N36 N 0.84065 0.17284 0.4137 0.0
C37 C 0.85887 0.15755 0.4364 0.0
H38 H 0.76205 0.1691 0.40736 0.0
Co39 Co 0.8698 0.19775 0.37756 0.0
C40 C 0.92395 0.1311 0.36694 0.0
O41 O 0.89385 0.11246 0.34405 0.0
N42 N 0.89864 0.22575 0.34105 0.0
C43 C 0.90802 0.27438 0.3024 0.0
C44 C 0.88334 0.25914 0.32817 0.0
C45 C 0.9357 0.22419 0.32285 0.0
N46 N 0.94054 0.25173 0.29872 0.0
O47 O 0.92272 0.27019 0.39261 0.0
H48 H 0.85488 0.27113 0.33683 0.0
H49 H 0.95961 0.20428 0.32701 0.0
O50 O 0.92064 0.16747 0.38228 0.0
C51 C 0.89506 0.2953 0.39624 0.0
O52 O 0.84156 0.26794 0.39039 0.0
N53 N 0.81231 0.12912 0.36306 0.0
C54 C 0.70598 0.0383 0.35376 0.0
C55 C 0.74317 0.03319 0.37148 0.0
C56 C 0.79616 0.07925 0.37598 0.0
C57 C 0.77763 0.13314 0.34432 0.0
C58 C 0.7248 0.08806 0.339 0.0
H59 H 0.82217 0.07615 0.39179 0.0
H60 H 0.7878 0.17271 0.33553 0.0
H61 H 0.8985 0.15903 0.43729 0.0
H62 H 0.73869 0.12948 0.45864 0.0
H63 H 0.90254 0.30063 0.28764 0.0
H64 H 0.72993 0.99548 0.38343 0.0
H65 H 0.6969 0.09436 0.32575 0.0
C66 C 0.64044 0.87801 0.76248 0.0
C67 C 0.64268 0.87219 0.79096 0.0
N68 N 0.68934 0.87066 0.79692 0.0
N69 N 0.68546 0.88024 0.75046 0.0
C70 C 0.71475 0.87631 0.77199 0.0
H71 H 0.60677 0.87785 0.75111 0.0
Co72 Co 0.69576 0.87721 0.71201 0.0
C73 C 0.80395 0.88347 0.70646 0.0
O74 O 0.7798 0.8411 0.68901 0.0
N75 N 0.70659 0.87475 0.67237 0.0
C76 C 0.70132 0.84875 0.62774 0.0
C77 C 0.68515 0.83055 0.65463 0.0
C78 C 0.73654 0.91932 0.65541 0.0
N79 N 0.73336 0.90473 0.62814 0.0
O80 O 0.70878 0.95173 0.70897 0.0
H81 H 0.65928 0.78737 0.6604 0.0
H82 H 0.75877 0.96205 0.66281 0.0
O83 O 0.77537 0.903 0.71774 0.0
C84 C 0.66358 0.94575 0.69873 0.0
O85 O 0.6251 0.89603 0.69016 0.0
N86 N 0.67229 0.80173 0.7162 0.0
C87 C 0.60311 0.69183 0.73296 0.0
C88 C 0.66028 0.71963 0.73927 0.0
C89 C 0.69431 0.77547 0.73114 0.0
C90 C 0.61704 0.77446 0.70972 0.0
C91 C 0.58207 0.71954 0.7174 0.0
H92 H 0.73676 0.79802 0.73854 0.0
H93 H 0.59939 0.79645 0.69936 0.0
H94 H 0.75204 0.87368 0.76927 0.0
H95 H 0.61133 0.86754 0.80593 0.0
H96 H 0.68997 0.82258 0.60926 0.0
H97 H 0.67771 0.69947 0.75159 0.0
H98 H 0.53837 0.69936 0.71176 0.0
C99 C 0.73152 0.62859 0.09949 0.0
C100 C 0.74264 0.63012 0.12765 0.0
N101 N 0.79401 0.67385 0.13248 0.0
N102 N 0.77536 0.67156 0.0867 0.0
C103 C 0.81267 0.69846 0.10738 0.0
H104 H 0.69489 0.59672 0.0888 0.0
Co105 Co 0.7842 0.68301 0.04817 0.0
C106 C 0.88728 0.79118 0.04152 0.0
O107 O 0.90268 0.76778 1.02223 0.0
N108 N 0.79298 0.69479 1.00847 0.0
C109 C 0.80833 0.68989 0.96303 0.0
C110 C 0.81199 0.6723 0.98927 0.0
C111 C 0.77877 0.7267 0.99302 0.0
N112 N 0.78699 0.72382 0.96529 0.0
O113 O 0.7241 0.69827 0.04834 0.0
H114 H 0.82805 0.64492 0.99355 0.0
H115 H 0.76119 0.75043 1.00188 0.0
O116 O 0.84054 0.76219 0.0541 0.0
C117 C 0.68222 0.65461 1.03812 0.0
O118 O 0.68992 0.61534 1.02739 0.0
N119 N 0.83487 0.65785 0.04914 0.0
C120 C 0.87764 0.58754 0.05786 0.0
C121 C 0.90929 0.64447 0.06491 0.0
C122 C 0.88653 0.67905 0.06089 0.0
C123 C 0.80396 0.60263 0.04261 0.0
C124 C 0.82482 0.56718 0.04615 0.0
H125 H 0.90911 0.72139 0.06863 0.0
H126 H 0.76197 0.58573 1.03491 0.0
H127 H 0.85358 0.73444 0.10402 0.0
H128 H 0.71627 0.59974 0.14308 0.0
H129 H 0.82067 0.67854 0.94373 0.0
H130 H 0.94993 0.66137 0.07453 0.0
H131 H 0.79921 0.52377 0.04007 0.0
C132 C 0.15771 0.77031 0.42296 0.0
C133 C 0.17413 0.78367 0.45041 0.0
N134 N 0.15602 0.81761 0.46015 0.0
N135 N 0.12949 0.79573 0.41519 0.0
C136 C 0.1281 0.82316 0.4384 0.0
H137 H 0.16872 0.74655 0.40899 0.0
Co138 Co 0.10919 0.80067 0.37841 0.0
C139 C 0.11133 0.90946 0.38333 0.0
O140 O 0.15477 0.93348 0.36673 0.0
N141 N 0.0876 0.80645 0.34076 0.0
C142 C 0.08717 0.84081 0.29866 0.0
C143 C 0.11757 0.84814 0.32237 0.0
C144 C 0.03858 0.77394 0.32712 0.0
N145 N 0.03748 0.79422 0.30162 0.0
O146 O 0.03597 0.74081 0.38656 0.0
H147 H 0.15932 0.88257 0.32559 0.0
H148 H 0.00349 0.73701 0.33584 0.0
O149 O 0.08989 0.85777 0.38963 0.0
C150 C 0.03946 0.69854 0.37861 0.0
O151 O 0.08395 0.70711 0.3647 0.0
N152 N 0.18437 0.85109 0.37084 0.0
C153 C 0.29822 0.89081 0.36578 0.0
C154 C 0.27845 0.91486 0.38524 0.0
C155 C 0.221 0.89365 0.38781 0.0
C156 C 0.20349 0.82815 0.35164 0.0
C157 C 0.26006 0.8482 0.34828 0.0
H158 H 0.20595 0.90878 0.40462 0.0
H159 H 0.17435 0.79174 0.3398 0.0
H160 H 0.10931 0.84903 0.43886 0.0
H161 H 0.20056 0.77209 0.46157 0.0
H162 H 0.1007 0.86756 0.28047 0.0
H163 H 0.3067 0.94704 0.39958 0.0
H164 H 0.2736 0.82856 0.33297 0.0
C165 C 0.39648 0.16231 0.75785 0.0
C166 C 0.39163 0.17343 0.78536 0.0
N167 N 0.33827 0.1591 0.79034 0.0
N168 N 0.34641 0.14042 0.74522 0.0
C169 C 0.31144 0.13811 0.76576 0.0
H170 H 0.43509 0.17268 0.74747 0.0
Co171 Co 0.33775 0.13035 0.70622 0.0
C172 C 0.21835 0.07404 0.69442 0.0
O173 O 0.23234 0.10946 0.67364 0.0
N174 N 0.33112 0.12008 0.66653 0.0
C175 C 0.3414 0.13099 0.62033 0.0
C176 C 0.35433 0.15796 0.64575 0.0
C177 C 0.30488 0.0702 0.65293 0.0
N178 N 0.31009 0.0758 0.62486 0.0
O179 O 0.35866 0.07377 0.7083 0.0
H180 H 0.37985 0.20248 0.64838 0.0
H181 H 0.28269 0.03038 0.66348 0.0
O182 O 0.25655 0.07649 0.71049 0.0
C183 C 0.41065 0.1017 0.70214 0.0
O184 O 0.43135 0.15372 0.69416 0.0
N185 N 0.32692 0.19188 0.70498 0.0
C186 C 0.34422 0.29784 0.7161 0.0
C187 C 0.29304 0.25077 0.72263 0.0
C188 C 0.28501 0.19768 0.71679 0.0
C189 C 0.37666 0.2379 0.69868 0.0
C190 C 0.38566 0.29115 0.70327 0.0
H191 H 0.24714 0.16208 0.72417 0.0
H192 H 0.41137 0.23341 0.69203 0.0
H193 H 0.26803 0.12481 0.76237 0.0
H194 H 0.42552 0.19281 0.80023 0.0
H195 H 0.3537 0.15055 0.60002 0.0
H196 H 0.26101 0.25493 0.73349 0.0
H197 H 0.42647 0.32685 0.699 0.0
C198 C 0.37483 0.42519 0.04815 0.0
C199 C 0.33468 0.4414 0.05019 0.0
C200 C 0.4321 0.46534 0.04978 0.0
C201 C 0.44916 0.52266 0.05341 0.0
C202 C 0.40856 0.53846 0.0572 0.0
C203 C 0.35203 0.49772 0.05568 0.0
C204 C 0.47439 0.44683 0.04619 0.0
C205 C 0.4247 0.59889 0.06108 0.0
C206 C 0.60199 0.6241 0.06994 0.0
C207 C 0.62423 0.63983 0.043 0.0
C208 C 0.5446 0.58711 0.0739 0.0
C209 C 0.50892 0.56658 0.05033 0.0
C210 C 0.53074 0.58676 1.02335 0.0
C211 C 0.58829 0.62258 1.02 0.0
C212 C 0.52316 0.5665 0.10298 0.0
C213 C 0.49396 0.56744 0.99774 0.0
H214 H 0.36172 0.38182 0.04402 0.0
H215 H 0.32124 0.5106 0.05779 0.0
H216 H 0.49616 0.46206 1.02587 0.0
H217 H 0.50641 0.46518 0.06288 0.0
H218 H 0.45481 0.40066 0.04668 0.0
H219 H 0.38839 0.60359 0.06664 0.0
H220 H 0.45672 0.61884 0.07766 0.0
H221 H 0.44323 0.62199 0.04141 0.0
H222 H 0.63001 0.63638 0.08767 0.0
H223 H 0.60581 0.63384 0.99914 0.0
H224 H 0.51307 0.52251 0.10487 0.0
H225 H 0.48424 0.5673 0.10712 0.0
H226 H 0.55434 0.59173 0.11928 0.0
H227 H 0.47836 0.52241 0.99403 0.0
H228 H 0.5165 0.59088 0.97872 0.0
H229 H 0.45712 0.57244 1.00095 0.0
C230 C 0.97386 0.39486 0.39395 0.0
C231 C 0.92051 0.35533 0.40328 0.0
C232 C 0.99137 0.45226 0.3944 0.0
C233 C 0.95454 0.47012 0.40433 0.0
C234 C 0.90247 0.43054 0.41576 0.0
C235 C 0.88626 0.37381 0.41516 0.0
C236 C 0.04774 0.49339 0.38251 0.0
C237 C 0.86194 0.44745 0.42663 0.0
C238 C 0.01289 0.62634 0.41466 0.0
C239 C 0.00222 0.6415 0.38851 0.0
C240 C -0.00394 0.57038 0.4206 0.0
C241 C 0.96764 0.5288 0.3999 0.0
C242 C 0.95326 0.54363 0.37423 0.0
C243 C 0.97138 0.59994 0.36873 0.0
C244 C 0.01252 0.55658 0.44813 0.0
C245 C 0.9219 0.50056 0.35179 0.0
H246 H 0.00031 0.38081 0.38459 0.0
H247 H 0.84505 0.34338 0.42265 0.0
H248 H 0.04222 0.50939 0.36228 0.0
H249 H 0.07016 0.52971 0.39678 0.0
H250 H 0.074 0.47418 0.37891 0.0
H251 H 0.82632 0.41291 0.43791 0.0
H252 H 0.8832 0.48391 0.4409 0.0
H253 H 0.84526 0.46009 0.40884 0.0
H254 H 0.03864 0.65883 0.42954 0.0
H255 H 0.96478 0.612 0.3482 0.0
H256 H 0.04604 0.54659 0.44452 0.0
H257 H 0.97676 0.51926 0.45765 0.0
H258 H 0.02801 0.59188 0.46323 0.0
H259 H 0.94816 0.4839 0.34368 0.0
H260 H 0.91013 0.51812 0.33401 0.0
H261 H 0.88346 0.46494 0.3606 0.0
C262 C 0.50752 0.12037 0.70667 0.0
C263 C 0.45013 0.08096 0.70573 0.0
C264 C 0.54762 0.10408 0.70779 0.0
C265 C 0.53027 0.04674 0.70803 0.0
C266 C 0.47238 0.00648 0.70826 0.0
C267 C 0.43278 0.0241 0.70717 0.0
C268 C 0.60869 0.1484 0.70759 0.0
C269 C 0.45242 0.94483 0.70872 0.0
C270 C 0.62575 -0.00048 0.67701 0.0
C271 C 0.64692 0.98806 0.70097 0.0
C272 C 0.58933 0.02056 0.67905 0.0
C273 C 0.57287 0.02928 0.70578 0.0
C274 C 0.59698 0.0211 0.73006 0.0
C275 C 0.63409 0.00077 0.72734 0.0
C276 C 0.56584 0.03013 0.6526 0.0
C277 C 0.58061 0.03 0.75892 0.0
H278 H 0.52157 0.16459 0.7061 0.0
H279 H 0.38862 0.99354 0.7066 0.0
H280 H 0.63088 0.14169 0.72502 0.0
H281 H 0.62819 0.14554 0.68783 0.0
H282 H 0.61522 0.19124 0.70943 0.0
H283 H 0.4064 0.91905 0.71101 0.0
H284 H 0.4648 0.93265 0.68903 0.0
H285 H 0.47238 0.93522 0.72619 0.0
H286 H 0.63467 0.98829 0.65668 0.0
H287 H 0.64909 0.99017 0.74589 0.0
H288 H 0.57179 0.07281 0.65261 0.0
H289 H 0.52032 0.0002 0.65157 0.0
H290 H 0.58567 0.02484 0.63351 0.0
H291 H 0.58389 0.07147 0.76048 0.0
H292 H 0.60689 0.02691 0.77547 0.0
H293 H 0.53644 -0.00195 0.76297 0.0
C294 C 0.51198 0.62118 0.75332 0.0
C295 C 0.56404 0.63423 0.74221 0.0
C296 C 0.4687 0.56571 0.75549 0.0
C297 C 0.4781 0.52256 0.74651 0.0
C298 C 0.53235 0.53528 0.73817 0.0
C299 C 0.57486 0.59126 0.73607 0.0
C300 C 0.41179 0.55387 0.76486 0.0
C301 C 0.54423 0.49009 0.72903 0.0
C302 C 0.37846 0.36769 0.75402 0.0
C303 C 0.35993 0.35373 0.72639 0.0
C304 C 0.41381 0.42356 0.76181 0.0
C305 C 0.43032 0.46571 0.74138 0.0
C306 C 0.40641 0.45193 0.7143 0.0
C307 C 0.37175 0.39578 0.70704 0.0
C308 C 0.43785 0.43652 0.79095 0.0
C309 C 0.4219 0.49586 0.69209 0.0
H310 H 0.50404 0.65462 0.75866 0.0
H311 H 0.61516 0.60135 0.72761 0.0
H312 H 0.38486 0.54535 0.74625 0.0
H313 H 0.39144 0.51641 0.77838 0.0
H314 H 0.41403 0.58983 0.7764 0.0
H315 H 0.58963 0.50608 0.72667 0.0
H316 H 0.52688 0.45541 0.74432 0.0
H317 H 0.52373 0.47265 0.70862 0.0
H318 H 0.3698 0.33471 0.76878 0.0
H319 H 0.35774 0.38446 0.68561 0.0
H320 H 0.44212 0.47612 0.79893 0.0
H321 H 0.48009 0.4415 0.7905 0.0
H322 H 0.41171 0.40239 0.80575 0.0
H323 H 0.4194 0.53188 0.70053 0.0
H324 H 0.39443 0.47922 0.67346 0.0
H325 H 0.46558 0.51158 0.6853 0.0
C326 C 0.95128 0.56144 0.05327 0.0
C327 C 0.89807 0.5482 0.06234 0.0
C328 C 0.96637 0.52022 0.05204 0.0
C329 C 0.92699 0.46472 0.05983 0.0
C330 C 0.87485 0.45223 0.071 0.0
C331 C 0.86125 0.49436 0.07241 0.0
C332 C 0.02306 0.53525 0.04071 0.0
C333 C 0.83186 0.39363 0.07954 0.0
C334 C 0.94612 0.35809 1.01947 0.0
C335 C 0.97576 0.34539 1.03875 0.0
C336 C 0.92674 0.39435 1.02675 0.0
C337 C 0.93851 0.4191 0.05372 0.0
C338 C 0.96515 0.40341 0.07383 0.0
C339 C 0.98319 0.3663 0.06613 0.0
C340 C 0.89709 0.40908 1.00497 0.0
C341 C 0.97886 0.42924 0.10268 0.0
H342 H 0.97981 0.60301 0.04554 0.0
H343 H 0.82048 0.48442 0.08009 0.0
H344 H 0.04341 0.51877 0.05451 0.0
H345 H 0.01828 0.51581 1.01979 0.0
H346 H 0.05092 0.5811 1.03865 0.0
H347 H 0.79619 0.39227 0.09087 0.0
H348 H 0.8156 0.36689 0.0606 0.0
H349 H 0.85082 0.37526 0.09303 0.0
H350 H 0.94087 0.3421 0.99828 0.0
H351 H 0.00722 0.35733 0.08086 0.0
H352 H 0.92439 0.45301 0.99833 0.0
H353 H 0.85849 0.40563 1.01384 0.0
H354 H 0.88592 0.38176 0.9862 0.0
H355 H 0.01348 0.47312 0.10116 0.0
H356 H 0.99189 0.40652 0.11702 0.0
H357 H 0.94261 0.43003 0.11198 0.0
C358 C 0.39988 0.96229 0.36547 0.0
C359 C 0.35755 0.90623 0.36503 0.0
C360 C 0.45605 0.97687 0.36375 0.0
C361 C 0.46988 0.93426 0.36165 0.0
C362 C 0.42735 0.87759 0.36173 0.0
C363 C 0.37165 0.86425 0.3635 0.0
C364 C 0.50056 0.03787 0.36384 0.0
C365 C 0.44065 0.83116 0.35976 0.0
C366 C 0.6128 0.98456 0.33084 0.0
C367 C 0.64537 -0.00174 0.35508 0.0
C368 C 0.55476 0.96023 0.33259 0.0
C369 C 0.52907 0.94947 0.35922 0.0
C370 C 0.5612 0.95862 0.38363 0.0
C371 C 0.61912 0.98295 0.38126 0.0
C372 C 0.52161 0.95018 0.30607 0.0
C373 C 0.53517 0.94722 0.41238 0.0
H374 H 0.38901 0.99471 0.36659 0.0
H375 H 0.33897 0.82075 0.36378 0.0
H376 H 0.53002 0.04664 0.38134 0.0
H377 H 0.52496 0.04826 0.34415 0.0
H378 H 0.48282 0.06577 0.36597 0.0
H379 H 0.40258 0.78915 0.36039 0.0
H380 H 0.46338 0.8349 0.34002 0.0
H381 H 0.46841 0.83457 0.37721 0.0
H382 H 0.63309 0.99602 0.31058 0.0
H383 H 0.64413 0.99408 0.4001 0.0
H384 H 0.50733 0.98095 0.30474 0.0
H385 H 0.48392 0.90797 0.30618 0.0
H386 H 0.54657 0.95426 0.2871 0.0
H387 H 0.52307 0.97879 0.41744 0.0
H388 H 0.5643 0.94909 0.42879 0.0
H389 H 0.49677 0.9056 0.41306 0.0
C390 C 0.05743 0.10429 1.01131 0.0
C391 C 0.0885 0.14439 1.03183 0.0
C392 C 0.02726 0.04732 1.0175 0.0
C393 C 0.02846 0.02924 0.04495 0.0
C394 C 0.06131 0.06915 0.06568 0.0
C395 C 0.09092 0.1265 0.05889 0.0
C396 C 0.99314 0.00653 0.99462 0.0
C397 C 0.06419 0.05136 0.09506 0.0
C398 C 0.90348 0.88489 0.05704 0.0
C399 C 0.92475 0.85112 0.04803 0.0
C400 C 0.93803 0.94334 0.05847 0.0
C401 C -0.00477 0.96826 0.05115 0.0
C402 C 0.01769 0.93373 0.04455 0.0
C403 C 0.98211 0.87571 0.04278 0.0
C404 C 0.91225 0.97855 0.06545 0.0
C405 C 0.07849 0.95823 1.03713 0.0
H406 H 0.05566 0.11751 0.99025 0.0
H407 H 0.11454 0.15723 0.07489 0.0
H408 H 0.00748 0.97618 0.99115 0.0
H409 H 0.94864 0.98248 1.00093 0.0
H410 H -0.00395 0.02759 0.97448 0.0
H411 H 0.09488 0.08679 0.10812 0.0
H412 H 0.02258 0.03324 0.10508 0.0
H413 H 0.07564 0.01838 0.09472 0.0
H414 H 0.85921 0.86604 0.06123 0.0
H415 H -0.00099 0.84967 1.03631 0.0
H416 H 0.90849 -0.00179 0.04607 0.0
H417 H 0.9391 0.01263 0.08015 0.0
H418 H 0.87008 0.95339 0.07481 0.0
H419 H 0.08601 0.97615 1.0158 0.0
H420 H 0.0914 0.92628 1.03749 0.0
H421 H 0.10532 0.99251 0.05176 0.0
C422 C 0.11805 0.00073 0.39331 0.0
C423 C 0.08522 0.94233 0.39209 0.0
C424 C 0.09366 0.03427 0.39534 0.0
C425 C 0.03488 0.00882 0.39579 0.0
C426 C 0.00171 0.94977 0.39716 0.0
C427 C 0.02736 0.9171 0.39542 0.0
C428 C 0.13077 0.09693 0.39428 0.0
C429 C 0.9389 0.92093 0.39781 0.0
C430 C 0.96764 0.09945 0.40316 0.0
C431 C 0.95764 0.10573 0.37507 0.0
C432 C 0.99288 0.06808 0.41049 0.0
C433 C 0.00867 0.04297 0.38917 0.0
C434 C 0.00013 0.05088 0.3608 0.0
C435 C 0.97474 0.08197 0.35416 0.0
C436 C 0.00115 0.06049 0.44096 0.0
C437 C 0.01689 0.02562 0.33729 0.0
H438 H 0.16296 0.02046 0.39122 0.0
H439 H 0.00182 0.87197 0.39455 0.0
H440 H 0.12891 0.11185 0.37305 0.0
H441 H 0.11635 0.11759 0.40932 0.0
H442 H 0.17492 0.11023 0.39896 0.0
H443 H 0.91973 0.87629 0.40372 0.0
H444 H 0.92477 0.94203 0.41273 0.0
H445 H 0.9234 0.92312 0.37678 0.0
H446 H 0.95386 0.11715 0.41941 0.0
H447 H 0.9674 0.08694 0.3324 0.0
H448 H 0.04503 0.07196 0.44486 0.0
H449 H 0.9745 0.01592 0.44668 0.0
H450 H 0.99045 0.08597 0.45486 0.0
H451 H 0.06224 0.04085 0.33839 0.0
H452 H 0.00747 0.03594 0.31635 0.0
H453 H -0.00536 0.97952 0.33939 0.0
C454 C 0.13791 0.01764 0.72726 0.0
C455 C 0.15806 0.03779 0.70037 0.0
C456 C 0.08016 0.98985 0.73299 0.0
C457 C 0.04214 0.98241 0.71134 0.0
C458 C 0.06249 0.00124 0.68405 0.0
C459 C 0.11989 0.02829 0.67893 0.0
C460 C 0.05993 0.96972 0.76226 0.0
C461 C 0.02371 0.99399 0.66022 0.0
C462 C 0.88865 0.87429 0.70844 0.0
C463 C 0.86395 0.90714 0.71277 0.0
C464 C 0.94655 0.89724 0.71047 0.0
C465 C 0.98087 0.95477 0.71651 0.0
C466 C 0.95585 0.98734 0.72275 0.0
C467 C 0.89752 0.96298 0.721 0.0
C468 C 0.97117 0.86069 0.70412 0.0
C469 C 0.99091 0.0489 0.72914 0.0
H470 H 0.16723 0.02523 0.74396 0.0
H471 H 0.13505 0.04322 0.65801 0.0
H472 H 0.04082 0.99316 0.77123 0.0
H473 H 0.02717 0.92494 0.76191 0.0
H474 H 0.09422 0.97521 0.77625 0.0
H475 H 0.04637 0.01142 0.64027 0.0
H476 H 0.99317 0.94904 0.65696 0.0
H477 H -0.00024 0.01502 0.6654 0.0
H478 H 0.86281 0.83075 0.70258 0.0
H479 H 0.87861 0.98847 0.7245 0.0
H480 H 0.0043 0.86839 0.7194 0.0
H481 H 0.99063 0.87093 0.68307 0.0
H482 H 0.93909 0.81561 0.70444 0.0
H483 H 0.02385 0.05676 0.74456 0.0
H484 H 0.96546 0.06643 0.73741 0.0
H485 H 0.01201 0.07159 0.70973 0.0
C486 C 0.24414 0.23163 0.93644 0.0
C487 C 0.22983 0.2727 0.9315 0.0
C488 C 0.25729 0.20675 0.91415 0.0
C489 C 0.25614 0.22332 0.88628 0.0
C490 C 0.23953 0.26303 0.88115 0.0
C491 C 0.22644 0.28694 0.90372 0.0
C492 C 0.27462 0.16442 0.9205 0.0
C493 C 0.23766 0.28202 0.85184 0.0
C494 C 0.35362 0.21911 0.83165 0.0
C495 C 0.31746 0.17286 0.81512 0.0
C496 C 0.33438 0.23477 0.8552 0.0
C497 C 0.27732 0.20359 0.86264 0.0
C498 C 0.24054 0.15635 0.84634 0.0
C499 C 0.261 0.14167 0.82271 0.0
C500 C 0.37502 0.28591 0.87164 0.0
C501 C 0.17943 0.12197 0.85359 0.0
H502 H 0.24697 0.22031 0.95774 0.0
H503 H 0.21399 0.31744 0.89957 0.0
H504 H 0.25109 0.12673 0.9072 0.0
H505 H 0.31952 0.18238 0.91559 0.0
H506 H 0.26778 0.15164 0.9428 0.0
H507 H 0.22018 0.31028 0.85122 0.0
H508 H 0.28041 0.30446 0.84294 0.0
H509 H 0.21213 0.24551 0.83813 0.0
H510 H 0.39699 0.24441 0.82572 0.0
H511 H 0.23285 0.10576 0.81019 0.0
H512 H 0.3736 0.27548 0.8941 0.0
H513 H 0.36312 0.31846 0.87004 0.0
H514 H 0.41858 0.30379 0.86407 0.0
H515 H 0.17433 0.10811 0.87566 0.0
H516 H 0.15697 0.08464 0.83988 0.0
H517 H 0.15953 0.14785 0.85152 0.0
C518 C 0.08244 0.25328 0.15125 0.0
C519 C 0.12091 0.30946 0.14562 0.0
C520 C 0.05631 0.23701 0.17764 0.0
C521 C 0.06889 0.27796 0.19871 0.0
C522 C 0.11105 0.33385 0.1937 0.0
C523 C 0.13655 0.34874 0.16735 0.0
C524 C 0.01247 0.17676 0.18225 0.0
C525 C 0.12611 0.37905 0.21539 0.0
C526 C 0.95541 0.26594 0.24768 0.0
C527 C 0.97132 0.25464 0.27357 0.0
C528 C 0.98566 0.27155 0.22316 0.0
C529 C 0.03297 0.26494 0.22416 0.0
C530 C 0.04806 0.25109 0.2499 0.0
C531 C 0.01728 0.24637 0.27431 0.0
C532 C 0.9679 0.28645 0.19627 0.0
C533 C 0.09771 0.24292 0.25183 0.0
H534 H 0.07017 0.22276 0.13455 0.0
H535 H 0.16704 0.39203 0.16321 0.0
H536 H 0.01675 0.16282 0.20332 0.0
H537 H 0.97051 0.17229 0.18107 0.0
H538 H 0.01491 0.14882 0.16627 0.0
H539 H 0.16376 0.41896 0.20943 0.0
H540 H 0.09081 0.38674 0.21804 0.0
H541 H 0.1337 0.3658 0.23594 0.0
H542 H 0.91912 0.27067 0.24645 0.0
H543 H 0.03017 0.23756 0.29403 0.0
H544 H 0.96147 0.25566 0.17968 0.0
H545 H 0.00128 0.32795 0.18898 0.0
H546 H 0.92881 0.28784 0.19872 0.0
H547 H 0.09679 0.21534 0.23468 0.0
H548 H 0.09928 0.22461 0.27216 0.0
H549 H 0.13665 0.28375 0.24944 0.0
C550 C 0.84858 0.08318 0.48663 0.0
C551 C 0.82227 0.11484 0.48397 0.0
C552 C 0.8422 0.05236 0.51111 0.0
C553 C 0.80864 0.05317 0.53336 0.0
C554 C 0.78497 0.08784 0.53137 0.0
C555 C 0.79228 0.11829 0.50683 0.0
C556 C 0.86878 0.01655 0.51248 0.0
C557 C 0.74902 0.09027 0.55448 0.0
C558 C 0.7258 0.92476 0.57859 0.0
C559 C 0.75461 0.94113 0.60411 0.0
C560 C 0.74408 0.96012 0.55527 0.0
C561 C 0.79274 0.01343 0.55727 0.0
C562 C 0.82296 0.02981 0.58273 0.0
C563 C 0.80336 0.99362 0.6059 0.0
C564 C 0.71004 0.94108 0.52872 0.0
C565 C 0.87533 0.08599 0.58566 0.0
H566 H 0.87174 0.08018 0.46909 0.0
H567 H 0.77289 0.14365 0.50518 0.0
H568 H 0.88964 0.0219 0.53293 0.0
H569 H 0.83605 0.97194 0.51053 0.0
H570 H 0.89982 0.02655 0.49551 0.0
H571 H 0.73766 0.1228 0.55075 0.0
H572 H 0.71005 0.04923 0.55619 0.0
H573 H 0.77084 0.09888 0.57486 0.0
H574 H 0.68768 0.88477 0.57705 0.0
H575 H 0.82623 0.00635 0.6254 0.0
H576 H 0.73683 0.94416 0.51076 0.0
H577 H 0.69283 0.96869 0.52425 0.0
H578 H 0.67485 0.89738 0.53009 0.0
H579 H 0.90469 0.09236 0.56837 0.0
H580 H 0.89674 0.09049 0.6059 0.0
H581 H 0.86487 0.11957 0.58419 0.0
C582 C 0.66337 0.82412 0.84306 0.0
C583 C 0.70452 0.85699 0.82339 0.0
C584 C 0.6769 0.80619 0.8677 0.0
C585 C 0.733 0.82142 0.87294 0.0
C586 C 0.77503 0.85636 0.85373 0.0
C587 C 0.7603 0.87362 0.82922 0.0
C588 C 0.63071 0.76879 0.88752 0.0
C589 C 0.83539 0.87384 0.85856 0.0
C590 C 0.77369 0.79918 0.94595 0.0
C591 C 0.77299 0.74854 0.94247 0.0
C592 C 0.76096 0.82366 0.92355 0.0
C593 C 0.74689 0.79669 0.8971 0.0
C594 C 0.74566 0.74537 0.89359 0.0
C595 C 0.75867 0.72204 0.91624 0.0
C596 C 0.76284 0.87847 0.92811 0.0
C597 C 0.73045 0.71487 0.86587 0.0
H598 H 0.6201 0.8104 0.83871 0.0
H599 H 0.79248 0.89967 0.81441 0.0
H600 H 0.62582 0.72654 0.88739 0.0
H601 H 0.64127 0.78513 0.90921 0.0
H602 H 0.59012 0.76481 0.88178 0.0
H603 H 0.86356 0.90481 0.84293 0.0
H604 H 0.84861 0.89208 0.87978 0.0
H605 H 0.84048 0.83668 0.85735 0.0
H606 H 0.7851 0.82014 0.96605 0.0
H607 H 0.75687 0.6824 0.91344 0.0
H608 H 0.72157 0.87367 0.92335 0.0
H609 H 0.79349 0.91038 0.91363 0.0
H610 H 0.77443 0.89409 0.9499 0.0
H611 H 0.68799 0.70495 0.85957 0.0
H612 H 0.73151 0.67538 0.86657 0.0
H613 H 0.75971 0.74192 0.8494 0.0
C614 C 0.88246 0.70767 0.15802 0.0
C615 C 0.82491 0.68754 0.15833 0.0
C616 C 0.91319 0.72092 0.18296 0.0
C617 C 0.88592 0.71469 0.20892 0.0
C618 C 0.82769 0.69392 0.20939 0.0
C619 C 0.79781 0.68017 0.18409 0.0
C620 C 0.97504 0.74219 0.18148 0.0
C621 C 0.79721 0.68752 0.23654 0.0
C622 C 0.96556 0.71544 0.27393 0.0
C623 C 0.99348 0.77217 0.28115 0.0
C624 C 0.92885 0.6955 0.25095 0.0
C625 C 0.91926 0.73313 0.23527 0.0
C626 C 0.945 0.78983 0.24361 0.0
C627 C 0.9821 0.80866 0.26626 0.0
C628 C 0.90274 0.6349 0.24259 0.0
C629 C 0.93522 0.83121 0.2279 0.0
H630 H 0.90339 0.71235 0.13821 0.0
H631 H 0.75338 0.66481 0.18438 0.0
H632 H -0.00149 0.7857 0.18948 0.0
H633 H 0.98578 0.71652 0.19494 0.0
H634 H 0.9893 0.74149 0.15982 0.0
H635 H 0.75155 0.66856 0.23347 0.0
H636 H 0.80467 0.66115 0.25122 0.0
H637 H 0.81349 0.72901 0.24662 0.0
H638 H 0.97476 0.68738 0.28533 0.0
H639 H 0.00333 0.85244 0.27207 0.0
H640 H 0.92026 0.63172 0.22222 0.0
H641 H 0.85711 0.61611 0.23975 0.0
H642 H 0.91037 0.61012 0.25828 0.0
H643 H 0.95348 0.83746 0.20664 0.0
H644 H 0.95414 0.8724 0.23863 0.0
H645 H 0.88986 0.81491 0.22541 0.0
C646 C 0.31685 0.03734 0.57943 0.0
C647 C 0.28649 0.0327 0.60373 0.0
C648 C 0.29331 -0.00178 0.5576 0.0
C649 C 0.23753 0.95371 0.55986 0.0
C650 C 0.20694 0.94813 0.58463 0.0
C651 C 0.232 0.98746 0.6064 0.0
C652 C 0.32785 0.00528 0.53184 0.0
C653 C 0.14714 0.90189 0.58772 0.0
C654 C 0.1667 0.8965 0.48974 0.0
C655 C 0.17121 0.84848 0.48638 0.0
C656 C 0.18574 0.92952 0.51406 0.0
C657 C 0.21084 0.915 0.53562 0.0
C658 C 0.21399 0.8658 0.53291 0.0
C659 C 0.19379 0.83299 0.50851 0.0
C660 C 0.18088 0.98127 0.5162 0.0
C661 C 0.2407 0.84894 0.55532 0.0
H662 H 0.35918 0.07194 0.57748 0.0
H663 H 0.2083 0.98417 0.62506 0.0
H664 H 0.32824 0.96618 0.52735 0.0
H665 H 0.30904 0.01387 0.51349 0.0
H666 H 0.37159 0.03999 0.53408 0.0
H667 H 0.13014 0.90144 0.60884 0.0
H668 H 0.12093 0.9071 0.57194 0.0
H669 H 0.14359 0.86078 0.58374 0.0
H670 H 0.14997 0.9098 0.47306 0.0
H671 H 0.19668 0.79564 0.50668 0.0
H672 H 0.22305 0.01895 0.51552 0.0
H673 H 0.16162 0.98206 0.53643 0.0
H674 H 0.15561 0.98394 0.49897 0.0
H675 H 0.28568 0.88065 0.55687 0.0
H676 H 0.23663 0.80764 0.55098 0.0
H677 H 0.22163 0.84734 0.57596 0.0
loop_
_geom_bond_atom_site_label_1
_geom_bond_atom_site_label_2
_geom_bond_distance
_geom_bond_site_symmetry_2
_ccdc_geom_bond_type
C0 C1 1.351 . S
C0 N3 1.368 . S
C0 H5 0.931 . S
C1 C0 1.351 . S
C1 N2 1.373 . S
C1 H29 0.930 . S
N2 C1 1.373 . S
N2 C4 1.340 . S
N3 C0 1.368 . S
N3 C4 1.321 . S
N3 Co6 2.135 . S
C4 N2 1.340 . S
C4 N3 1.321 . S
C4 H28 0.930 . S
H5 C0 0.931 . S
Co6 N3 2.135 . S
Co6 N9 2.121 1_554 S
Co6 O14 2.055 . S
Co6 O17 2.039 . S
Co6 N20 2.140 . S
C7 O8 1.227 . S
C7 O17 1.265 . S
O8 C7 1.227 . S
N9 Co6 2.121 1_556 S
N9 C11 1.375 . S
N9 C12 1.313 . S
C10 C11 1.338 . S
C10 N13 1.377 . S
C10 H30 0.930 . S
C11 N9 1.375 . S
C11 C10 1.338 . S
C11 H15 0.931 . S
C12 N9 1.313 . S
C12 N13 1.344 . S
C12 H16 0.930 . S
N13 C10 1.377 . S
N13 C12 1.344 . S
O14 Co6 2.055 . S
O14 C18 1.253 . S
H15 C11 0.931 . S
H16 C12 0.930 . S
O17 Co6 2.039 . S
O17 C7 1.265 . S
C18 O14 1.253 . S
C18 O19 1.227 . S
O19 C18 1.227 . S
N20 Co6 2.140 . S
N20 C23 1.346 . S
N20 C24 1.345 1_554 S
C21 C22 1.387 1_556 S
C21 C25 1.391 . S
C22 C21 1.387 1_554 S
C22 C23 1.369 . S
C22 H31 0.929 . S
C23 N20 1.346 . S
C23 C22 1.369 . S
C23 H26 0.928 . S
C24 N20 1.345 1_556 S
C24 C25 1.371 . S
C24 H27 0.931 . S
C25 C21 1.391 . S
C25 C24 1.371 . S
C25 H32 0.930 . S
H26 C23 0.928 . S
H27 C24 0.931 . S
H28 C4 0.930 . S
H29 C1 0.930 . S
H30 C10 0.930 . S
H31 C22 0.929 . S
H32 C25 0.930 . S
C33 C34 1.351 . S
C33 N36 1.368 . S
C33 H38 0.931 . S
C34 C33 1.351 . S
C34 N35 1.373 . S
C34 H62 0.930 . S
N35 C34 1.373 . S
N35 C37 1.340 . S
N36 C33 1.368 . S
N36 C37 1.321 . S
N36 Co39 2.135 . S
C37 N35 1.340 . S
C37 N36 1.321 . S
C37 H61 0.930 . S
H38 C33 0.931 . S
Co39 N36 2.135 . S
Co39 N42 2.121 . S
Co39 O47 2.055 . S
Co39 O50 2.039 . S
Co39 N53 2.140 . S
C40 O41 1.227 . S
C40 O50 1.265 . S
O41 C40 1.227 . S
N42 Co39 2.121 . S
N42 C44 1.375 . S
N42 C45 1.313 . S
C43 C44 1.338 . S
C43 N46 1.377 . S
C43 H63 0.930 . S
C44 N42 1.375 . S
C44 C43 1.338 . S
C44 H48 0.931 . S
C45 N42 1.313 . S
C45 N46 1.344 . S
C45 H49 0.930 . S
N46 C43 1.377 . S
N46 C45 1.344 . S
O47 Co39 2.055 . S
O47 C51 1.253 . S
H48 C44 0.931 . S
H49 C45 0.930 . S
O50 Co39 2.039 . S
O50 C40 1.265 . S
C51 O47 1.253 . S
C51 O52 1.227 . S
O52 C51 1.227 . S
N53 Co39 2.140 . S
N53 C56 1.346 . S
N53 C57 1.345 . S
C54 C55 1.387 . S
C54 C58 1.391 . S
C55 C54 1.387 . S
C55 C56 1.369 . S
C55 H64 0.929 . S
C56 N53 1.346 . S
C56 C55 1.369 . S
C56 H59 0.928 . S
C57 N53 1.345 . S
C57 C58 1.371 . S
C57 H60 0.931 . S
C58 C54 1.391 . S
C58 C57 1.371 . S
C58 H65 0.930 . S
H59 C56 0.928 . S
H60 C57 0.931 . S
H61 C37 0.930 . S
H62 C34 0.930 . S
H63 C43 0.930 . S
H64 C55 0.929 . S
H65 C58 0.930 . S
C66 C67 1.351 . S
C66 N69 1.368 . S
C66 H71 0.931 . S
C67 C66 1.351 . S
C67 N68 1.373 . S
C67 H95 0.930 . S
N68 C67 1.373 . S
N68 C70 1.340 . S
N69 C66 1.368 . S
N69 C70 1.321 . S
N69 Co72 2.135 . S
C70 N68 1.340 . S
C70 N69 1.321 . S
C70 H94 0.930 . S
H71 C66 0.931 . S
Co72 N69 2.135 . S
Co72 N75 2.121 . S
Co72 O80 2.055 . S
Co72 O83 2.039 . S
Co72 N86 2.140 . S
C73 O74 1.227 . S
C73 O83 1.265 . S
O74 C73 1.227 . S
N75 Co72 2.121 . S
N75 C77 1.375 . S
N75 C78 1.313 . S
C76 C77 1.338 . S
C76 N79 1.377 . S
C76 H96 0.930 . S
C77 N75 1.375 . S
C77 C76 1.338 . S
C77 H81 0.931 . S
C78 N75 1.313 . S
C78 N79 1.344 . S
C78 H82 0.930 . S
N79 C76 1.377 . S
N79 C78 1.344 . S
O80 Co72 2.055 . S
O80 C84 1.253 . S
H81 C77 0.931 . S
H82 C78 0.930 . S
O83 Co72 2.039 . S
O83 C73 1.265 . S
C84 O80 1.253 . S
C84 O85 1.227 . S
O85 C84 1.227 . S
N86 Co72 2.140 . S
N86 C89 1.346 . S
N86 C90 1.345 . S
C87 C88 1.387 . S
C87 C91 1.391 . S
C88 C87 1.387 . S
C88 C89 1.369 . S
C88 H97 0.929 . S
C89 N86 1.346 . S
C89 C88 1.369 . S
C89 H92 0.928 . S
C90 N86 1.345 . S
C90 C91 1.371 . S
C90 H93 0.931 . S
C91 C87 1.391 . S
C91 C90 1.371 . S
C91 H98 0.930 . S
H92 C89 0.928 . S
H93 C90 0.931 . S
H94 C70 0.930 . S
H95 C67 0.930 . S
H96 C76 0.930 . S
H97 C88 0.929 . S
H98 C91 0.930 . S
C99 C100 1.351 . S
C99 N102 1.368 . S
C99 H104 0.931 . S
C100 C99 1.351 . S
C100 N101 1.373 . S
C100 H128 0.930 . S
N101 C100 1.373 . S
N101 C103 1.340 . S
N102 C99 1.368 . S
N102 C103 1.321 . S
N102 Co105 2.135 . S
C103 N101 1.340 . S
C103 N102 1.321 . S
C103 H127 0.930 . S
H104 C99 0.931 . S
Co105 N102 2.135 . S
Co105 N108 2.121 1_554 S
Co105 O113 2.055 . S
Co105 O116 2.039 . S
Co105 N119 2.140 . S
C106 O107 1.227 . S
C106 O116 1.265 . S
O107 C106 1.227 . S
N108 Co105 2.121 1_556 S
N108 C110 1.375 . S
N108 C111 1.313 . S
C109 C110 1.338 . S
C109 N112 1.377 . S
C109 H129 0.930 . S
C110 N108 1.375 . S
C110 C109 1.338 . S
C110 H114 0.931 . S
C111 N108 1.313 . S
C111 N112 1.344 . S
C111 H115 0.930 . S
N112 C109 1.377 . S
N112 C111 1.344 . S
O113 Co105 2.055 . S
O113 C117 1.253 . S
H114 C110 0.931 . S
H115 C111 0.930 . S
O116 Co105 2.039 . S
O116 C106 1.265 . S
C117 O113 1.253 . S
C117 O118 1.227 . S
O118 C117 1.227 . S
N119 Co105 2.140 . S
N119 C122 1.346 . S
N119 C123 1.345 1_554 S
C120 C121 1.387 1_556 S
C120 C124 1.391 . S
C121 C120 1.387 1_554 S
C121 C122 1.369 . S
C121 H130 0.929 . S
C122 N119 1.346 . S
C122 C121 1.369 . S
C122 H125 0.928 . S
C123 N119 1.345 1_556 S
C123 C124 1.371 . S
C123 H126 0.931 . S
C124 C120 1.391 . S
C124 C123 1.371 . S
C124 H131 0.930 . S
H125 C122 0.928 . S
H126 C123 0.931 . S
H127 C103 0.930 . S
H128 C100 0.930 . S
H129 C109 0.930 . S
H130 C121 0.929 . S
H131 C124 0.930 . S
C132 C133 1.351 . S
C132 N135 1.368 . S
C132 H137 0.931 . S
C133 C132 1.351 . S
C133 N134 1.373 . S
C133 H161 0.930 . S
N134 C133 1.373 . S
N134 C136 1.340 . S
N135 C132 1.368 . S
N135 C136 1.321 . S
N135 Co138 2.135 . S
C136 N134 1.340 . S
C136 N135 1.321 . S
C136 H160 0.930 . S
H137 C132 0.931 . S
Co138 N135 2.135 . S
Co138 N141 2.121 . S
Co138 O146 2.055 . S
Co138 O149 2.039 . S
Co138 N152 2.140 . S
C139 O140 1.227 . S
C139 O149 1.265 . S
O140 C139 1.227 . S
N141 Co138 2.121 . S
N141 C143 1.375 . S
N141 C144 1.313 . S
C142 C143 1.338 . S
C142 N145 1.377 . S
C142 H162 0.930 . S
C143 N141 1.375 . S
C143 C142 1.338 . S
C143 H147 0.931 . S
C144 N141 1.313 . S
C144 N145 1.344 . S
C144 H148 0.930 . S
N145 C142 1.377 . S
N145 C144 1.344 . S
O146 Co138 2.055 . S
O146 C150 1.253 . S
H147 C143 0.931 . S
H148 C144 0.930 . S
O149 Co138 2.039 . S
O149 C139 1.265 . S
C150 O146 1.253 . S
C150 O151 1.227 . S
O151 C150 1.227 . S
N152 Co138 2.140 . S
N152 C155 1.346 . S
N152 C156 1.345 . S
C153 C154 1.387 . S
C153 C157 1.391 . S
C154 C153 1.387 . S
C154 C155 1.369 . S
C154 H163 0.929 . S
C155 N152 1.346 . S
C155 C154 1.369 . S
C155 H158 0.928 . S
C156 N152 1.345 . S
C156 C157 1.371 . S
C156 H159 0.931 . S
C157 C153 1.391 . S
C157 C156 1.371 . S
C157 H164 0.930 . S
H158 C155 0.928 . S
H159 C156 0.931 . S
H160 C136 0.930 . S
H161 C133 0.930 . S
H162 C142 0.930 . S
H163 C154 0.929 . S
H164 C157 0.930 . S
C165 C166 1.351 . S
C165 N168 1.368 . S
C165 H170 0.931 . S
C166 C165 1.351 . S
C166 N167 1.373 . S
C166 H194 0.930 . S
N167 C166 1.373 . S
N167 C169 1.340 . S
N168 C165 1.368 . S
N168 C169 1.321 . S
N168 Co171 2.135 . S
C169 N167 1.340 . S
C169 N168 1.321 . S
C169 H193 0.930 . S
H170 C165 0.931 . S
Co171 N168 2.135 . S
Co171 N174 2.121 . S
Co171 O179 2.055 . S
Co171 O182 2.039 . S
Co171 N185 2.140 . S
C172 O173 1.227 . S
C172 O182 1.265 . S
O173 C172 1.227 . S
N174 Co171 2.121 . S
N174 C176 1.375 . S
N174 C177 1.313 . S
C175 C176 1.338 . S
C175 N178 1.377 . S
C175 H195 0.930 . S
C176 N174 1.375 . S
C176 C175 1.338 . S
C176 H180 0.931 . S
C177 N174 1.313 . S
C177 N178 1.344 . S
C177 H181 0.930 . S
N178 C175 1.377 . S
N178 C177 1.344 . S
O179 Co171 2.055 . S
O179 C183 1.253 . S
H180 C176 0.931 . S
H181 C177 0.930 . S
O182 Co171 2.039 . S
O182 C172 1.265 . S
C183 O179 1.253 . S
C183 O184 1.227 . S
O184 C183 1.227 . S
N185 Co171 2.140 . S
N185 C188 1.346 . S
N185 C189 1.345 . S
C186 C187 1.387 . S
C186 C190 1.391 . S
C187 C186 1.387 . S
C187 C188 1.369 . S
C187 H196 0.929 . S
C188 N185 1.346 . S
C188 C187 1.369 . S
C188 H191 0.928 . S
C189 N185 1.345 . S
C189 C190 1.371 . S
C189 H192 0.931 . S
C190 C186 1.391 . S
C190 C189 1.371 . S
C190 H197 0.930 . S
H191 C188 0.928 . S
H192 C189 0.931 . S
H193 C169 0.930 . S
H194 C166 0.930 . S
H195 C175 0.930 . S
H196 C187 0.929 . S
H197 C190 0.930 . S
C198 C199 1.391 . S
C198 C200 1.394 . S
C198 H214 0.931 . S
C199 C198 1.391 . S
C199 C203 1.376 . S
C200 C198 1.394 . S
C200 C201 1.369 . S
C200 C204 1.531 1_554 S
C201 C200 1.369 . S
C201 C202 1.410 . S
C201 C209 1.503 . S
C202 C201 1.410 . S
C202 C203 1.392 . S
C202 C205 1.511 . S
C203 C199 1.376 . S
C203 C202 1.392 . S
C203 H215 0.929 . S
C204 C200 1.531 1_556 S
C204 H216 0.960 . S
C204 H217 0.962 1_556 S
C204 H218 0.960 . S
C205 C202 1.511 . S
C205 H219 0.961 . S
C205 H220 0.961 . S
C205 H221 0.961 1_554 S
C206 C207 1.370 . S
C206 C208 1.363 . S
C206 H222 0.931 . S
C207 C206 1.370 . S
C207 C211 1.408 1_554 S
C208 C206 1.363 . S
C208 C209 1.370 . S
C208 C212 1.524 . S
C209 C201 1.503 . S
C209 C208 1.370 . S
C209 C210 1.403 1_554 S
C210 C209 1.403 1_556 S
C210 C211 1.404 . S
C210 C213 1.539 . S
C211 C207 1.408 1_556 S
C211 C210 1.404 . S
C211 H223 0.930 . S
C212 C208 1.524 . S
C212 H224 0.956 . S
C212 H225 0.961 . S
C212 H226 0.961 . S
C213 C210 1.539 . S
C213 H227 0.958 . S
C213 H228 0.961 . S
C213 H229 0.960 . S
H214 C198 0.931 . S
H215 C203 0.929 . S
H216 C204 0.960 . S
H217 C204 0.962 1_554 S
H218 C204 0.960 . S
H219 C205 0.961 . S
H220 C205 0.961 . S
H221 C205 0.961 1_556 S
H222 C206 0.931 . S
H223 C211 0.930 . S
H224 C212 0.956 . S
H225 C212 0.961 . S
H226 C212 0.961 . S
H227 C213 0.958 . S
H228 C213 0.961 . S
H229 C213 0.960 . S
C230 C231 1.391 . S
C230 C232 1.394 1_655 S
C230 H246 0.931 1_655 S
C231 C230 1.391 . S
C231 C235 1.376 . S
C232 C230 1.394 1_455 S
C232 C233 1.369 1_455 S
C232 C236 1.531 . S
C233 C232 1.369 1_655 S
C233 C234 1.410 . S
C233 C241 1.503 1_655 S
C234 C233 1.410 . S
C234 C235 1.392 . S
C234 C237 1.511 . S
C235 C231 1.376 . S
C235 C234 1.392 . S
C235 H247 0.929 . S
C236 C232 1.531 . S
C236 H248 0.960 . S
C236 H249 0.962 . S
C236 H250 0.960 . S
C237 C234 1.511 . S
C237 H251 0.961 . S
C237 H252 0.961 . S
C237 H253 0.961 . S
C238 C239 1.370 . S
C238 C240 1.363 . S
C238 H254 0.931 . S
C239 C238 1.370 . S
C239 C243 1.408 . S
C240 C238 1.363 . S
C240 C241 1.370 . S
C240 C244 1.524 . S
C241 C233 1.503 1_455 S
C241 C240 1.370 . S
C241 C242 1.403 1_455 S
C242 C241 1.403 1_655 S
C242 C243 1.404 1_655 S
C242 C245 1.539 . S
C243 C239 1.408 . S
C243 C242 1.404 1_455 S
C243 H255 0.930 1_455 S
C244 C240 1.524 . S
C244 H256 0.956 . S
C244 H257 0.961 . S
C244 H258 0.961 . S
C245 C242 1.539 . S
C245 H259 0.958 . S
C245 H260 0.961 . S
C245 H261 0.960 . S
H246 C230 0.931 1_455 S
H247 C235 0.929 . S
H248 C236 0.960 . S
H249 C236 0.962 . S
H250 C236 0.960 . S
H251 C237 0.961 . S
H252 C237 0.961 . S
H253 C237 0.961 . S
H254 C238 0.931 . S
H255 C243 0.930 1_655 S
H256 C244 0.956 . S
H257 C244 0.961 . S
H258 C244 0.961 . S
H259 C245 0.958 . S
H260 C245 0.961 . S
H261 C245 0.960 . S
C262 C263 1.391 . S
C262 C264 1.394 . S
C262 H278 0.931 . S
C263 C262 1.391 . S
C263 C267 1.376 . S
C264 C262 1.394 . S
C264 C265 1.369 . S
C264 C268 1.531 . S
C265 C264 1.369 . S
C265 C266 1.410 1_545 S
C265 C273 1.503 1_545 S
C266 C265 1.410 1_565 S
C266 C267 1.392 1_565 S
C266 C269 1.511 . S
C267 C263 1.376 . S
C267 C266 1.392 1_545 S
C267 H279 0.929 1_545 S
C268 C264 1.531 . S
C268 H280 0.960 . S
C268 H281 0.962 . S
C268 H282 0.960 . S
C269 C266 1.511 . S
C269 H283 0.961 . S
C269 H284 0.961 . S
C269 H285 0.961 . S
C270 C271 1.370 . S
C270 C272 1.363 . S
C270 H286 0.931 . S
C271 C270 1.370 . S
C271 C275 1.408 . S
C272 C270 1.363 . S
C272 C273 1.370 . S
C272 C276 1.524 . S
C273 C265 1.503 1_565 S
C273 C272 1.370 . S
C273 C274 1.403 1_565 S
C274 C273 1.403 1_545 S
C274 C275 1.404 1_545 S
C274 C277 1.539 . S
C275 C271 1.408 . S
C275 C274 1.404 1_565 S
C275 H287 0.930 . S
C276 C272 1.524 . S
C276 H288 0.956 . S
C276 H289 0.961 . S
C276 H290 0.961 . S
C277 C274 1.539 . S
C277 H291 0.958 . S
C277 H292 0.961 . S
C277 H293 0.960 . S
H278 C262 0.931 . S
H279 C267 0.929 1_565 S
H280 C268 0.960 . S
H281 C268 0.962 . S
H282 C268 0.960 . S
H283 C269 0.961 . S
H284 C269 0.961 . S
H285 C269 0.961 . S
H286 C270 0.931 . S
H287 C275 0.930 . S
H288 C276 0.956 . S
H289 C276 0.961 . S
H290 C276 0.961 . S
H291 C277 0.958 . S
H292 C277 0.961 . S
H293 C277 0.960 . S
C294 C295 1.391 . S
C294 C296 1.394 . S
C294 H310 0.931 . S
C295 C294 1.391 . S
C295 C299 1.376 . S
C296 C294 1.394 . S
C296 C297 1.369 . S
C296 C300 1.531 . S
C297 C296 1.369 . S
C297 C298 1.410 . S
C297 C305 1.503 . S
C298 C297 1.410 . S
C298 C299 1.392 . S
C298 C301 1.511 . S
C299 C295 1.376 . S
C299 C298 1.392 . S
C299 H311 0.929 . S
C300 C296 1.531 . S
C300 H312 0.960 . S
C300 H313 0.962 . S
C300 H314 0.960 . S
C301 C298 1.511 . S
C301 H315 0.961 . S
C301 H316 0.961 . S
C301 H317 0.961 . S
C302 C303 1.370 . S
C302 C304 1.363 . S
C302 H318 0.931 . S
C303 C302 1.370 . S
C303 C307 1.408 . S
C304 C302 1.363 . S
C304 C305 1.370 . S
C304 C308 1.524 . S
C305 C297 1.503 . S
C305 C304 1.370 . S
C305 C306 1.403 . S
C306 C305 1.403 . S
C306 C307 1.404 . S
C306 C309 1.539 . S
C307 C303 1.408 . S
C307 C306 1.404 . S
C307 H319 0.930 . S
C308 C304 1.524 . S
C308 H320 0.956 . S
C308 H321 0.961 . S
C308 H322 0.961 . S
C309 C306 1.539 . S
C309 H323 0.958 . S
C309 H324 0.961 . S
C309 H325 0.960 . S
H310 C294 0.931 . S
H311 C299 0.929 . S
H312 C300 0.960 . S
H313 C300 0.962 . S
H314 C300 0.960 . S
H315 C301 0.961 . S
H316 C301 0.961 . S
H317 C301 0.961 . S
H318 C302 0.931 . S
H319 C307 0.930 . S
H320 C308 0.956 . S
H321 C308 0.961 . S
H322 C308 0.961 . S
H323 C309 0.958 . S
H324 C309 0.961 . S
H325 C309 0.960 . S
C326 C327 1.391 1_454 S
C326 C328 1.394 . S
C326 H342 0.931 . S
C327 C326 1.391 1_656 S
C327 C331 1.376 . S
C328 C326 1.394 . S
C328 C329 1.369 1_454 S
C328 C332 1.531 . S
C329 C328 1.369 1_656 S
C329 C330 1.410 . S
C329 C337 1.503 1_655 S
C330 C329 1.410 . S
C330 C331 1.392 . S
C330 C333 1.511 . S
C331 C327 1.376 . S
C331 C330 1.392 . S
C331 H343 0.929 . S
C332 C328 1.531 . S
C332 H344 0.960 . S
C332 H345 0.962 1_554 S
C332 H346 0.960 . S
C333 C330 1.511 . S
C333 H347 0.961 . S
C333 H348 0.961 . S
C333 H349 0.961 1_556 S
C334 C335 1.370 . S
C334 C336 1.363 . S
C334 H350 0.931 . S
C335 C334 1.370 . S
C335 C339 1.408 1_556 S
C336 C334 1.363 . S
C336 C337 1.370 . S
C336 C340 1.524 . S
C337 C329 1.503 1_455 S
C337 C336 1.370 . S
C337 C338 1.403 1_556 S
C338 C337 1.403 1_554 S
C338 C339 1.404 . S
C338 C341 1.539 1_455 S
C339 C335 1.408 1_554 S
C339 C338 1.404 . S
C339 H351 0.930 . S
C340 C336 1.524 . S
C340 H352 0.956 . S
C340 H353 0.961 1_455 S
C340 H354 0.961 . S
C341 C338 1.539 1_655 S
C341 H355 0.958 1_655 S
C341 H356 0.961 . S
C341 H357 0.960 . S
H342 C326 0.931 . S
H343 C331 0.929 . S
H344 C332 0.960 . S
H345 C332 0.962 1_556 S
H346 C332 0.960 . S
H347 C333 0.961 . S
H348 C333 0.961 . S
H349 C333 0.961 1_554 S
H350 C334 0.931 . S
H351 C339 0.930 . S
H352 C340 0.956 . S
H353 C340 0.961 1_655 S
H354 C340 0.961 . S
H355 C341 0.958 1_455 S
H356 C341 0.961 . S
H357 C341 0.960 . S
C358 C359 1.391 . S
C358 C360 1.394 1_565 S
C358 H374 0.931 1_565 S
C359 C358 1.391 . S
C359 C363 1.376 . S
C360 C358 1.394 1_545 S
C360 C361 1.369 1_545 S
C360 C364 1.531 . S
C361 C360 1.369 1_565 S
C361 C362 1.410 . S
C361 C369 1.503 1_565 S
C362 C361 1.410 . S
C362 C363 1.392 . S
C362 C365 1.511 . S
C363 C359 1.376 . S
C363 C362 1.392 . S
C363 H375 0.929 . S
C364 C360 1.531 . S
C364 H376 0.960 . S
C364 H377 0.962 . S
C364 H378 0.960 . S
C365 C362 1.511 . S
C365 H379 0.961 . S
C365 H380 0.961 . S
C365 H381 0.961 . S
C366 C367 1.370 . S
C366 C368 1.363 . S
C366 H382 0.931 . S
C367 C366 1.370 . S
C367 C371 1.408 . S
C368 C366 1.363 . S
C368 C369 1.370 . S
C368 C372 1.524 . S
C369 C361 1.503 1_545 S
C369 C368 1.370 . S
C369 C370 1.403 1_545 S
C370 C369 1.403 1_565 S
C370 C371 1.404 1_565 S
C370 C373 1.539 . S
C371 C367 1.408 . S
C371 C370 1.404 1_545 S
C371 H383 0.930 . S
C372 C368 1.524 . S
C372 H384 0.956 . S
C372 H385 0.961 . S
C372 H386 0.961 . S
C373 C370 1.539 . S
C373 H387 0.958 . S
C373 H388 0.961 . S
C373 H389 0.960 . S
H374 C358 0.931 1_545 S
H375 C363 0.929 . S
H376 C364 0.960 . S
H377 C364 0.962 . S
H378 C364 0.960 . S
H379 C365 0.961 . S
H380 C365 0.961 . S
H381 C365 0.961 . S
H382 C366 0.931 . S
H383 C371 0.930 . S
H384 C372 0.956 . S
H385 C372 0.961 . S
H386 C372 0.961 . S
H387 C373 0.958 . S
H388 C373 0.961 . S
H389 C373 0.960 . S
C390 C391 1.391 1_556 S
C390 C392 1.394 1_455 S
C390 H406 0.931 . S
C391 C390 1.391 1_554 S
C391 C395 1.376 . S
C392 C390 1.394 1_655 S
C392 C393 1.369 1_656 S
C392 C396 1.531 . S
C393 C392 1.369 1_454 S
C393 C394 1.410 . S
C393 C401 1.503 1_445 S
C394 C393 1.410 . S
C394 C395 1.392 . S
C394 C397 1.511 . S
C395 C391 1.376 . S
C395 C394 1.392 . S
C395 H407 0.929 . S
C396 C392 1.531 . S
C396 H408 0.960 1_545 S
C396 H409 0.962 . S
C396 H410 0.960 . S
C397 C394 1.511 . S
C397 H411 0.961 . S
C397 H412 0.961 1_545 S
C397 H413 0.961 . S
C398 C399 1.370 . S
C398 C400 1.363 . S
C398 H414 0.931 . S
C399 C398 1.370 . S
C399 C403 1.408 1_554 S
C400 C398 1.363 . S
C400 C401 1.370 . S
C400 C404 1.524 . S
C401 C393 1.503 1_665 S
C401 C400 1.370 . S
C401 C402 1.403 1_554 S
C402 C401 1.403 1_556 S
C402 C403 1.404 . S
C402 C405 1.539 1_655 S
C403 C399 1.408 1_556 S
C403 C402 1.404 . S
C403 H415 0.930 . S
C404 C400 1.524 . S
C404 H416 0.956 . S
C404 H417 0.961 1_565 S
C404 H418 0.961 . S
C405 C402 1.539 1_455 S
C405 H419 0.958 . S
C405 H420 0.961 . S
C405 H421 0.959 . S
H406 C390 0.931 . S
H407 C395 0.929 . S
H408 C396 0.960 1_565 S
H409 C396 0.962 . S
H410 C396 0.960 . S
H411 C397 0.961 . S
H412 C397 0.961 1_565 S
H413 C397 0.961 . S
H414 C398 0.931 . S
H415 C403 0.930 . S
H416 C404 0.956 . S
H417 C404 0.961 1_545 S
H418 C404 0.961 . S
H419 C405 0.958 . S
H420 C405 0.961 . S
H421 C405 0.959 . S
C422 C423 1.391 . S
C422 C424 1.394 . S
C422 H438 0.931 . S
C423 C422 1.391 . S
C423 C427 1.376 . S
C424 C422 1.394 . S
C424 C425 1.369 . S
C424 C428 1.531 1_565 S
C425 C424 1.369 . S
C425 C426 1.410 1_455 S
C425 C433 1.503 1_465 S
C426 C425 1.410 1_655 S
C426 C427 1.392 1_655 S
C426 C429 1.511 . S
C427 C423 1.376 . S
C427 C426 1.392 1_455 S
C427 H439 0.929 . S
C428 C424 1.531 1_545 S
C428 H440 0.960 . S
C428 H441 0.962 . S
C428 H442 0.960 . S
C429 C426 1.511 . S
C429 H443 0.961 . S
C429 H444 0.961 . S
C429 H445 0.961 . S
C430 C431 1.370 . S
C430 C432 1.363 . S
C430 H446 0.931 . S
C431 C430 1.370 . S
C431 C435 1.408 . S
C432 C430 1.363 . S
C432 C433 1.370 . S
C432 C436 1.524 1_655 S
C433 C425 1.503 1_645 S
C433 C432 1.370 . S
C433 C434 1.403 1_545 S
C434 C433 1.403 1_565 S
C434 C435 1.404 1_565 S
C434 C437 1.539 . S
C435 C431 1.408 . S
C435 C434 1.404 1_545 S
C435 H447 0.930 . S
C436 C432 1.524 1_455 S
C436 H448 0.956 . S
C436 H449 0.961 . S
C436 H450 0.961 . S
C437 C434 1.539 . S
C437 H451 0.958 . S
C437 H452 0.961 . S
C437 H453 0.960 . S
H438 C422 0.931 . S
H439 C427 0.929 . S
H440 C428 0.960 . S
H441 C428 0.962 . S
H442 C428 0.960 . S
H443 C429 0.961 . S
H444 C429 0.961 . S
H445 C429 0.961 . S
H446 C430 0.931 . S
H447 C435 0.930 . S
H448 C436 0.956 . S
H449 C436 0.961 . S
H450 C436 0.961 . S
H451 C437 0.958 . S
H452 C437 0.961 . S
H453 C437 0.960 . S
C454 C455 1.391 . S
C454 C456 1.394 1_545 S
C454 H470 0.931 1_545 S
C455 C454 1.391 . S
C455 C459 1.376 . S
C456 C454 1.394 1_565 S
C456 C457 1.369 1_565 S
C456 C460 1.531 . S
C457 C456 1.369 1_545 S
C457 C458 1.410 . S
C457 C465 1.503 1_445 S
C458 C457 1.410 . S
C458 C459 1.392 . S
C458 C461 1.511 . S
C459 C455 1.376 . S
C459 C458 1.392 . S
C459 H471 0.929 . S
C460 C456 1.531 . S
C460 H472 0.960 1_455 S
C460 H473 0.962 . S
C460 H474 0.960 . S
C461 C458 1.511 . S
C461 H475 0.961 . S
C461 H476 0.961 1_455 S
C461 H477 0.961 . S
C462 C463 1.370 . S
C462 C464 1.363 . S
C462 H478 0.931 . S
C463 C462 1.370 . S
C463 C467 1.408 . S
C464 C462 1.363 . S
C464 C465 1.370 . S
C464 C468 1.524 1_565 S
C465 C457 1.503 1_665 S
C465 C464 1.370 . S
C465 C466 1.403 . S
C466 C465 1.403 . S
C466 C467 1.404 . S
C466 C469 1.539 . S
C467 C463 1.408 . S
C467 C466 1.404 . S
C467 H479 0.930 . S
C468 C464 1.524 1_545 S
C468 H480 0.956 1_545 S
C468 H481 0.961 1_655 S
C468 H482 0.961 1_545 S
C469 C466 1.539 . S
C469 H483 0.958 . S
C469 H484 0.961 . S
C469 H485 0.969 1_565 S
H470 C454 0.931 1_565 S
H471 C459 0.929 . S
H472 C460 0.960 1_655 S
H473 C460 0.962 . S
H474 C460 0.960 . S
H475 C461 0.961 . S
H476 C461 0.961 1_655 S
H477 C461 0.961 . S
H478 C462 0.931 . S
H479 C467 0.930 . S
H480 C468 0.956 1_565 S
H481 C468 0.961 1_455 S
H482 C468 0.961 1_565 S
H483 C469 0.958 . S
H484 C469 0.961 . S
H485 C469 0.969 1_545 S
C486 C487 1.391 . S
C486 C488 1.394 . S
C486 H502 0.931 . S
C487 C486 1.391 . S
C487 C491 1.376 . S
C488 C486 1.394 . S
C488 C489 1.369 . S
C488 C492 1.531 . S
C489 C488 1.369 . S
C489 C490 1.410 . S
C489 C497 1.503 . S
C490 C489 1.410 . S
C490 C491 1.392 . S
C490 C493 1.511 . S
C491 C487 1.376 . S
C491 C490 1.392 . S
C491 H503 0.929 . S
C492 C488 1.531 . S
C492 H504 0.960 . S
C492 H505 0.962 . S
C492 H506 0.960 . S
C493 C490 1.511 . S
C493 H507 0.961 . S
C493 H508 0.961 . S
C493 H509 0.961 . S
C494 C495 1.370 . S
C494 C496 1.363 . S
C494 H510 0.931 . S
C495 C494 1.370 . S
C495 C499 1.408 . S
C496 C494 1.363 . S
C496 C497 1.370 . S
C496 C500 1.524 . S
C497 C489 1.503 . S
C497 C496 1.370 . S
C497 C498 1.403 . S
C498 C497 1.403 . S
C498 C499 1.404 . S
C498 C501 1.539 . S
C499 C495 1.408 . S
C499 C498 1.404 . S
C499 H511 0.930 . S
C500 C496 1.524 . S
C500 H512 0.956 . S
C500 H513 0.961 . S
C500 H514 0.961 . S
C501 C498 1.539 . S
C501 H515 0.958 . S
C501 H516 0.961 . S
C501 H517 0.960 . S
H502 C486 0.931 . S
H503 C491 0.929 . S
H504 C492 0.960 . S
H505 C492 0.962 . S
H506 C492 0.960 . S
H507 C493 0.961 . S
H508 C493 0.961 . S
H509 C493 0.961 . S
H510 C494 0.931 . S
H511 C499 0.930 . S
H512 C500 0.956 . S
H513 C500 0.961 . S
H514 C500 0.961 . S
H515 C501 0.958 . S
H516 C501 0.961 . S
H517 C501 0.960 . S
C518 C519 1.391 . S
C518 C520 1.394 . S
C518 H534 0.931 . S
C519 C518 1.391 . S
C519 C523 1.376 . S
C520 C518 1.394 . S
C520 C521 1.369 . S
C520 C524 1.531 . S
C521 C520 1.369 . S
C521 C522 1.410 . S
C521 C529 1.503 . S
C522 C521 1.410 . S
C522 C523 1.392 . S
C522 C525 1.511 . S
C523 C519 1.376 . S
C523 C522 1.392 . S
C523 H535 0.929 . S
C524 C520 1.531 . S
C524 H536 0.960 . S
C524 H537 0.962 . S
C524 H538 0.960 . S
C525 C522 1.511 . S
C525 H539 0.961 . S
C525 H540 0.961 . S
C525 H541 0.961 . S
C526 C527 1.370 . S
C526 C528 1.363 . S
C526 H542 0.931 . S
C527 C526 1.370 . S
C527 C531 1.408 1_655 S
C528 C526 1.363 . S
C528 C529 1.370 1_655 S
C528 C532 1.524 . S
C529 C521 1.503 . S
C529 C528 1.370 1_455 S
C529 C530 1.403 . S
C530 C529 1.403 . S
C530 C531 1.404 . S
C530 C533 1.539 . S
C531 C527 1.408 1_455 S
C531 C530 1.404 . S
C531 H543 0.930 . S
C532 C528 1.524 . S
C532 H544 0.956 . S
C532 H545 0.961 . S
C532 H546 0.961 . S
C533 C530 1.539 . S
C533 H547 0.958 . S
C533 H548 0.961 . S
C533 H549 0.960 . S
H534 C518 0.931 . S
H535 C523 0.929 . S
H536 C524 0.960 . S
H537 C524 0.962 . S
H538 C524 0.960 . S
H539 C525 0.961 . S
H540 C525 0.961 . S
H541 C525 0.961 . S
H542 C526 0.931 . S
H543 C531 0.930 . S
H544 C532 0.956 . S
H545 C532 0.961 . S
H546 C532 0.961 . S
H547 C533 0.958 . S
H548 C533 0.961 . S
H549 C533 0.960 . S
C550 C551 1.391 . S
C550 C552 1.394 . S
C550 H566 0.931 . S
C551 C550 1.391 . S
C551 C555 1.376 . S
C552 C550 1.394 . S
C552 C553 1.369 . S
C552 C556 1.531 . S
C553 C552 1.369 . S
C553 C554 1.410 . S
C553 C561 1.503 . S
C554 C553 1.410 . S
C554 C555 1.392 . S
C554 C557 1.511 . S
C555 C551 1.376 . S
C555 C554 1.392 . S
C555 H567 0.929 . S
C556 C552 1.531 . S
C556 H568 0.960 . S
C556 H569 0.962 1_545 S
C556 H570 0.960 . S
C557 C554 1.511 . S
C557 H571 0.961 . S
C557 H572 0.961 . S
C557 H573 0.961 . S
C558 C559 1.370 . S
C558 C560 1.363 . S
C558 H574 0.931 . S
C559 C558 1.370 . S
C559 C563 1.408 1_565 S
C560 C558 1.363 . S
C560 C561 1.370 1_565 S
C560 C564 1.524 . S
C561 C553 1.503 . S
C561 C560 1.370 1_545 S
C561 C562 1.403 . S
C562 C561 1.403 . S
C562 C563 1.404 . S
C562 C565 1.539 . S
C563 C559 1.408 1_545 S
C563 C562 1.404 . S
C563 H575 0.930 . S
C564 C560 1.524 . S
C564 H576 0.956 . S
C564 H577 0.961 . S
C564 H578 0.961 . S
C565 C562 1.539 . S
C565 H579 0.958 . S
C565 H580 0.961 . S
C565 H581 0.960 . S
H566 C550 0.931 . S
H567 C555 0.929 . S
H568 C556 0.960 . S
H569 C556 0.962 1_565 S
H570 C556 0.960 . S
H571 C557 0.961 . S
H572 C557 0.961 . S
H573 C557 0.961 . S
H574 C558 0.931 . S
H575 C563 0.930 . S
H576 C564 0.956 . S
H577 C564 0.961 . S
H578 C564 0.961 . S
H579 C565 0.958 . S
H580 C565 0.961 . S
H581 C565 0.960 . S
C582 C583 1.391 . S
C582 C584 1.394 . S
C582 H598 0.931 . S
C583 C582 1.391 . S
C583 C587 1.376 . S
C584 C582 1.394 . S
C584 C585 1.369 . S
C584 C588 1.531 . S
C585 C584 1.369 . S
C585 C586 1.410 . S
C585 C593 1.503 . S
C586 C585 1.410 . S
C586 C587 1.392 . S
C586 C589 1.511 . S
C587 C583 1.376 . S
C587 C586 1.392 . S
C587 H599 0.929 . S
C588 C584 1.531 . S
C588 H600 0.960 . S
C588 H601 0.962 . S
C588 H602 0.960 . S
C589 C586 1.511 . S
C589 H603 0.961 . S
C589 H604 0.961 . S
C589 H605 0.961 . S
C590 C591 1.370 . S
C590 C592 1.363 . S
C590 H606 0.931 . S
C591 C590 1.370 . S
C591 C595 1.408 . S
C592 C590 1.363 . S
C592 C593 1.370 . S
C592 C596 1.524 . S
C593 C585 1.503 . S
C593 C592 1.370 . S
C593 C594 1.403 . S
C594 C593 1.403 . S
C594 C595 1.404 . S
C594 C597 1.539 . S
C595 C591 1.408 . S
C595 C594 1.404 . S
C595 H607 0.930 . S
C596 C592 1.524 . S
C596 H608 0.956 . S
C596 H609 0.961 . S
C596 H610 0.961 . S
C597 C594 1.539 . S
C597 H611 0.958 . S
C597 H612 0.961 . S
C597 H613 0.960 . S
H598 C582 0.931 . S
H599 C587 0.929 . S
H600 C588 0.960 . S
H601 C588 0.962 . S
H602 C588 0.960 . S
H603 C589 0.961 . S
H604 C589 0.961 . S
H605 C589 0.961 . S
H606 C590 0.931 . S
H607 C595 0.930 . S
H608 C596 0.956 . S
H609 C596 0.961 . S
H610 C596 0.961 . S
H611 C597 0.958 . S
H612 C597 0.961 . S
H613 C597 0.960 . S
C614 C615 1.391 . S
C614 C616 1.394 . S
C614 H630 0.931 . S
C615 C614 1.391 . S
C615 C619 1.376 . S
C616 C614 1.394 . S
C616 C617 1.369 . S
C616 C620 1.531 1_655 S
C617 C616 1.369 . S
C617 C618 1.410 . S
C617 C625 1.503 . S
C618 C617 1.410 . S
C618 C619 1.392 . S
C618 C621 1.511 . S
C619 C615 1.376 . S
C619 C618 1.392 . S
C619 H631 0.929 . S
C620 C616 1.531 1_455 S
C620 H632 0.960 . S
C620 H633 0.962 . S
C620 H634 0.960 . S
C621 C618 1.511 . S
C621 H635 0.961 . S
C621 H636 0.961 . S
C621 H637 0.961 . S
C622 C623 1.370 . S
C622 C624 1.363 . S
C622 H638 0.931 . S
C623 C622 1.370 . S
C623 C627 1.408 . S
C624 C622 1.363 . S
C624 C625 1.370 1_455 S
C624 C628 1.524 1_455 S
C625 C617 1.503 . S
C625 C624 1.370 1_655 S
C625 C626 1.403 1_655 S
C626 C625 1.403 1_455 S
C626 C627 1.404 . S
C626 C629 1.539 . S
C627 C623 1.408 . S
C627 C626 1.404 . S
C627 H639 0.930 . S
C628 C624 1.524 1_655 S
C628 H640 0.956 . S
C628 H641 0.961 . S
C628 H642 0.961 . S
C629 C626 1.539 . S
C629 H643 0.958 . S
C629 H644 0.961 . S
C629 H645 0.960 1_455 S
H630 C614 0.931 . S
H631 C619 0.929 . S
H632 C620 0.960 . S
H633 C620 0.962 . S
H634 C620 0.960 . S
H635 C621 0.961 . S
H636 C621 0.961 . S
H637 C621 0.961 . S
H638 C622 0.931 . S
H639 C627 0.930 . S
H640 C628 0.956 . S
H641 C628 0.961 . S
H642 C628 0.961 . S
H643 C629 0.958 . S
H644 C629 0.961 . S
H645 C629 0.960 1_655 S
C646 C647 1.391 . S
C646 C648 1.394 1_545 S
C646 H662 0.931 . S
C647 C646 1.391 . S
C647 C651 1.376 . S
C648 C646 1.394 1_565 S
C648 C649 1.369 . S
C648 C652 1.531 . S
C649 C648 1.369 . S
C649 C650 1.410 1_565 S
C649 C657 1.503 . S
C650 C649 1.410 1_545 S
C650 C651 1.392 . S
C650 C653 1.511 . S
C651 C647 1.376 . S
C651 C650 1.392 . S
C651 H663 0.929 . S
C652 C648 1.531 . S
C652 H664 0.960 . S
C652 H665 0.962 . S
C652 H666 0.960 . S
C653 C650 1.511 . S
C653 H667 0.961 . S
C653 H668 0.961 . S
C653 H669 0.961 1_545 S
C654 C655 1.370 . S
C654 C656 1.363 . S
C654 H670 0.931 . S
C655 C654 1.370 . S
C655 C659 1.408 . S
C656 C654 1.363 . S
C656 C657 1.370 . S
C656 C660 1.524 1_565 S
C657 C649 1.503 . S
C657 C656 1.370 . S
C657 C658 1.403 . S
C658 C657 1.403 . S
C658 C659 1.404 . S
C658 C661 1.539 . S
C659 C655 1.408 . S
C659 C658 1.404 . S
C659 H671 0.930 . S
C660 C656 1.524 1_545 S
C660 H672 0.956 . S
C660 H673 0.961 . S
C660 H674 0.961 . S
C661 C658 1.539 . S
C661 H675 0.958 . S
C661 H676 0.961 . S
C661 H677 0.960 . S
H662 C646 0.931 . S
H663 C651 0.929 . S
H664 C652 0.960 . S
H665 C652 0.962 . S
H666 C652 0.960 . S
H667 C653 0.961 . S
H668 C653 0.961 . S
H669 C653 0.961 1_565 S
H670 C654 0.931 . S
H671 C659 0.930 . S
H672 C660 0.956 . S
H673 C660 0.961 . S
H674 C660 0.961 . S
H675 C661 0.958 . S
H676 C661 0.961 . S
H677 C661 0.960 . S
C199 C18 1.637 . S
C207 C117 1.649 . S
C231 C51 1.633 . S
C239 C150 1.652 . S
C263 C183 1.645 . S
C271 C84 1.654 . S
C295 C87 0.950 . S
C303 C186 0.934 . S
C327 C120 0.911 . S
C335 C21 0.929 . S
C359 C153 0.908 . S
C367 C54 0.932 . S
C391 C7 0.728 . S
C399 C106 0.721 . S
C423 C139 0.727 . S
C431 C40 0.719 . S
C455 C172 0.710 . S
C463 C73 0.715 . S
C487 N13 1.614 . S
C495 N167 1.771 . S
C519 N2 1.757 . S
C527 N46 1.654 . S
C551 N35 1.762 . S
C559 N79 1.646 . S
C583 N68 1.759 . S
C591 N112 1.666 . S
C615 N101 1.775 . S
C623 N145 1.637 . S
C647 N178 1.624 . S
C655 N134 1.769 . S
