# Generated by pormake.
# Topology ukg, (4)-cn, num edge types: 1
# Building blocks:
#     Node 0, Type 0, BuildingBlock: GALJAG_clean_sbu_0, # of connection points: 4
#     Node 1, Type 0, BuildingBlock: GALJAG_clean_sbu_0, # of connection points: 4
#     Node 2, Type 0, BuildingBlock: GALJAG_clean_sbu_0, # of connection points: 4
#     Node 3, Type 0, BuildingBlock: GALJAG_clean_sbu_0, # of connection points: 4
#     Node 4, Type 0, BuildingBlock: GALJAG_clean_sbu_0, # of connection points: 4
#     Node 5, Type 0, BuildingBlock: GALJAG_clean_sbu_0, # of connection points: 4
#     Node 6, Type 0, BuildingBlock: GALJAG_clean_sbu_0, # of connection points: 4
#     Node 7, Type 0, BuildingBlock: GALJAG_clean_sbu_0, # of connection points: 4
#     Edge 8, Type (0, 0), BuildingBlock: XUDNAN_clean_linker_2, # of connection points: 2
#     Edge 9, Type (0, 0), BuildingBlock: XUDNAN_clean_linker_2, # of connection points: 2
#     Edge 10, Type (0, 0), BuildingBlock: XUDNAN_clean_linker_2, # of connection points: 2
#     Edge 11, Type (0, 0), BuildingBlock: XUDNAN_clean_linker_2, # of connection points: 2
#     Edge 12, Type (0, 0), BuildingBlock: XUDNAN_clean_linker_2, # of connection points: 2
#     Edge 13, Type (0, 0), BuildingBlock: XUDNAN_clean_linker_2, # of connection points: 2
#     Edge 14, Type (0, 0), BuildingBlock: XUDNAN_clean_linker_2, # of connection points: 2
#     Edge 15, Type (0, 0), BuildingBlock: XUDNAN_clean_linker_2, # of connection points: 2
#     Edge 16, Type (0, 0), BuildingBlock: XUDNAN_clean_linker_2, # of connection points: 2
#     Edge 17, Type (0, 0), BuildingBlock: XUDNAN_clean_linker_2, # of connection points: 2
#     Edge 18, Type (0, 0), BuildingBlock: XUDNAN_clean_linker_2, # of connection points: 2
#     Edge 19, Type (0, 0), BuildingBlock: XUDNAN_clean_linker_2, # of connection points: 2
#     Edge 20, Type (0, 0), BuildingBlock: XUDNAN_clean_linker_2, # of connection points: 2
#     Edge 21, Type (0, 0), BuildingBlock: XUDNAN_clean_linker_2, # of connection points: 2
#     Edge 22, Type (0, 0), BuildingBlock: XUDNAN_clean_linker_2, # of connection points: 2
#     Edge 23, Type (0, 0), BuildingBlock: XUDNAN_clean_linker_2, # of connection points: 2
# Relax obj value: 0.111
# Max RMSD: 0.188
# Mean RMSD: 0.187
data_MOF--net-ukg--node1-GALJAG_clean_sbu_0--edge1-XUDNAN_clean_linker_2
_symmetry_space_group_name_H-M    P1
_symmetry_Int_Tables_number       1
_symmetry_cell_setting            triclinic
loop_
_symmetry_equiv_pos_as_xyz
'x, y, z'
_cell_length_a     29.866734
_cell_length_b     29.856874
_cell_length_c     38.91805
_cell_angle_alpha  90.13201
_cell_angle_beta   89.939707
_cell_angle_gamma 89.985501
loop_
_atom_site_label
_atom_site_type_symbol
_atom_site_fract_x
_atom_site_fract_y
_atom_site_fract_z
_atom_type_partial_charge
In0 In 0.00726 0.68104 0.1403 0.0
O1 O 0.99757 0.65484 0.08453 0.0
O2 O 0.0185 0.6095 0.12302 0.0
C3 C 0.96556 0.76114 0.13408 0.0
C4 C 0.0921 0.70699 0.15221 0.0
C5 C 0.96667 0.64652 0.19635 0.0
O6 O 0.94602 0.72474 0.12693 0.0
O7 O 0.00623 0.75689 0.14185 0.0
O8 O 0.0077 0.64087 0.19014 0.0
O9 O 0.94593 0.66906 0.17411 0.0
C10 C 0.00874 0.61521 0.09194 0.0
O11 O 0.06444 0.69871 0.17589 0.0
O12 O 0.0772 0.70157 0.12207 0.0
In13 In 0.34283 0.52102 0.65946 0.0
O14 O 0.32967 0.58312 0.69179 0.0
O15 O 0.3144 0.58584 0.63839 0.0
C16 C 0.37368 0.48524 0.71856 0.0
C17 C 0.40769 0.52726 0.61133 0.0
C18 C 0.27057 0.46825 0.64932 0.0
O19 O 0.39565 0.484 0.69087 0.0
O20 O 0.33687 0.50567 0.71668 0.0
O21 O 0.30972 0.45262 0.65141 0.0
O22 O 0.26872 0.51034 0.64908 0.0
C23 C 0.31391 0.60548 0.66713 0.0
O24 O 0.3726 0.5044 0.60654 0.0
O25 O 0.40982 0.54648 0.64018 0.0
In26 In 0.49228 0.81941 0.15127 0.0
O27 O 0.50498 0.84813 0.09695 0.0
O28 O 0.49492 0.89338 0.13822 0.0
C29 C 0.52078 0.73378 0.14468 0.0
C30 C 0.40341 0.81029 0.15871 0.0
C31 C 0.53934 0.83733 0.2088 0.0
O32 O 0.54623 0.76686 0.13969 0.0
O33 O 0.48052 0.744 0.15012 0.0
O34 O 0.49738 0.84222 0.20735 0.0
O35 O 0.55735 0.82463 0.18114 0.0
C36 C 0.50206 0.88845 0.10658 0.0
O37 O 0.42892 0.82081 0.18333 0.0
O38 O 0.42275 0.80515 0.13003 0.0
In39 In 0.15552 0.98541 0.64288 0.0
O40 O 0.14604 0.9211 0.6732 0.0
O41 O 0.1813 0.91726 0.62582 0.0
C42 C 0.10805 0.02001 0.69553 0.0
C43 C 0.11237 0.99667 0.58247 0.0
C44 C 0.23692 0.02376 0.65149 0.0
O45 O 0.13979 0.99275 0.69975 0.0
O46 O 0.09942 0.02913 0.66454 0.0
O47 O 0.20081 0.04428 0.65723 0.0
O48 O 0.23194 0.98516 0.63901 0.0
C49 C 0.16759 0.8971 0.65225 0.0
O50 O 0.14824 0.01702 0.58966 0.0
O51 O 0.09819 0.9711 0.60582 0.0
In52 In 0.97778 0.34542 0.84653 0.0
O53 O 0.91098 0.35782 0.8198 0.0
O54 O 0.91046 0.32724 0.8692 0.0
C55 C 0.03769 0.36855 0.79808 0.0
C56 C 0.99478 0.39687 0.90219 0.0
C57 C 0.98992 0.25733 0.83584 0.0
O58 O -0.0008 0.38626 0.79904 0.0
O59 O 0.04633 0.34248 0.82257 0.0
O60 O 0.00546 0.2766 0.86231 0.0
O61 O 0.9677 0.28227 0.81611 0.0
C62 C 0.88821 0.3395 0.84332 0.0
O63 O 0.00161 0.35512 0.90152 0.0
O64 O 0.97982 0.41301 0.8745 0.0
In65 In 0.66996 0.48976 0.36314 0.0
O66 O 0.6801 0.41944 0.34079 0.0
O67 O 0.68466 0.42803 0.39498 0.0
C68 C 0.63314 0.52014 0.30407 0.0
C69 C 0.61856 0.51346 0.41762 0.0
C70 C 0.75254 0.52525 0.35712 0.0
O71 O 0.62061 0.48372 0.31749 0.0
O72 O 0.66277 0.54067 0.32071 0.0
O73 O 0.71824 0.54875 0.36293 0.0
O74 O 0.74562 0.48361 0.35623 0.0
C75 C 0.68696 0.40156 0.36972 0.0
O76 O 0.6598 0.52207 0.41577 0.0
O77 O 0.60284 0.49364 0.39165 0.0
In78 In 0.51719 0.15855 0.86107 0.0
O79 O 0.50592 0.15088 0.91874 0.0
O80 O 0.522 0.09219 0.89044 0.0
C81 C 0.48521 0.24274 0.8551 0.0
C82 C 0.6041 0.17807 0.85026 0.0
C83 C 0.46793 0.1179 0.81199 0.0
O84 O 0.46717 0.21467 0.87507 0.0
O85 O 0.519 0.22835 0.83924 0.0
O86 O 0.50897 0.10936 0.8162 0.0
O87 O 0.45166 0.14517 0.8334 0.0
C88 C 0.51297 0.10923 0.91933 0.0
O89 O 0.57927 0.16162 0.82724 0.0
O90 O 0.58585 0.18192 0.87939 0.0
In91 In 0.83451 0.0112 0.34439 0.0
O92 O 0.81611 0.08273 0.32758 0.0
O93 O 0.80577 0.06422 0.37965 0.0
C94 C 0.85364 0.99129 0.27817 0.0
C95 C 0.90648 0.00621 0.38621 0.0
C96 C 0.76952 0.94951 0.35327 0.0
O97 O 0.88298 0.99192 0.30149 0.0
O98 O 0.8152 0.00357 0.28781 0.0
O99 O 0.80849 0.93922 0.3435 0.0
O100 O 0.76454 0.9902 0.36101 0.0
C101 C 0.8027 0.09425 0.35711 0.0
O102 O 0.87223 0.982 0.39045 0.0
O103 O 0.90465 0.03192 0.36058 0.0
H104 H 0.97711 0.48667 0.91201 0.0
H105 H 0.02924 0.36856 0.96314 0.0
H106 H 0.03961 0.41239 0.01628 0.0
H107 H 0.05128 0.56729 0.95354 0.0
H108 H 0.0088 0.60997 0.95704 0.0
H109 H 0.00669 0.56985 0.92241 0.0
H110 H 0.92626 0.54755 0.94049 0.0
H111 H 0.92816 0.58749 0.97522 0.0
H112 H 0.91586 0.52952 0.98396 0.0
H113 H 0.04221 0.46727 0.06406 0.0
H114 H 0.03808 0.5308 0.10424 0.0
H115 H 0.98453 0.61489 0.02315 0.0
C116 C 0.99103 0.47018 0.93433 0.0
C117 C 0.00246 0.42417 0.93343 0.0
C118 C 0.0203 0.40372 0.96321 0.0
C119 C 0.02633 0.42835 0.99352 0.0
C120 C 0.01442 0.47344 0.99368 0.0
C121 C 0.99726 0.49434 0.96494 0.0
C122 C 0.98646 0.54312 0.97245 0.0
C123 C 0.01502 0.5744 0.95003 0.0
C124 C 0.9362 0.55245 0.96775 0.0
C125 C -6e-05 0.54618 0.00998 0.0
C126 C 0.01602 0.5055 0.02155 0.0
C127 C 0.02988 0.49936 0.0553 0.0
C128 C 0.02731 0.53571 0.07795 0.0
C129 C 0.01103 0.57787 0.06686 0.0
C130 C 0.99726 0.58313 0.03233 0.0
H131 H 0.41055 0.49167 0.54602 0.0
H132 H 0.48635 0.57254 0.61827 0.0
H133 H 0.5472 0.57991 0.57578 0.0
H134 H 0.50406 0.43182 0.51102 0.0
H135 H 0.48272 0.43123 0.46772 0.0
H136 H 0.44451 0.43311 0.50352 0.0
H137 H 0.40823 0.50495 0.47875 0.0
H138 H 0.44643 0.50336 0.44291 0.0
H139 H 0.44293 0.55282 0.46942 0.0
H140 H 0.60074 0.57681 0.52645 0.0
H141 H 0.64368 0.56329 0.47317 0.0
H142 H 0.53304 0.48557 0.43224 0.0
C143 C 0.43991 0.51102 0.55282 0.0
C144 C 0.44373 0.53155 0.58545 0.0
C145 C 0.48268 0.55655 0.59342 0.0
C146 C 0.51742 0.56099 0.56945 0.0
C147 C 0.51266 0.54037 0.53755 0.0
C148 C 0.47492 0.51592 0.52912 0.0
C149 C 0.47864 0.49665 0.49315 0.0
C150 C 0.47742 0.44515 0.49392 0.0
C151 C 0.44187 0.51559 0.46967 0.0
C152 C 0.52449 0.51379 0.48284 0.0
C153 C 0.54346 0.53899 0.50884 0.0
C154 C 0.58615 0.55738 0.5058 0.0
C155 C 0.61027 0.54952 0.47547 0.0
C156 C 0.5916 0.52361 0.44854 0.0
C157 C 0.54798 0.50589 0.45226 0.0
H158 H 0.51348 0.88828 0.03609 0.0
H159 H 0.49707 0.97649 0.12407 0.0
H160 H 0.49898 0.04201 0.08579 0.0
H161 H 0.58958 0.96059 0.98856 0.0
H162 H 0.56576 0.9469 0.94732 0.0
H163 H 0.56413 0.90657 0.98166 0.0
H164 H 0.47796 0.90089 0.97546 0.0
H165 H 0.4793 0.9413 0.94118 0.0
H166 H 0.44446 0.95101 0.97831 0.0
H167 H 0.50012 0.09788 0.03844 0.0
H168 H 0.50267 0.14112 0.98453 0.0
H169 H 0.51935 0.01775 0.92665 0.0
C170 C 0.5106 0.92141 0.04725 0.0
C171 C 0.50516 0.92726 0.08309 0.0
C172 C 0.5013 0.97115 0.09672 0.0
C173 C 0.50232 0.00863 0.07519 0.0
C174 C 0.50734 0.00179 0.04002 0.0
C175 C 0.51163 0.95939 0.02606 0.0
C176 C 0.51618 0.96164 0.98726 0.0
C177 C 0.56162 0.94281 0.97551 0.0
C178 C 0.47714 0.93726 0.96951 0.0
C179 C 0.51355 0.01187 0.9817 0.0
C180 C 0.50839 0.0343 0.01253 0.0
C181 C 0.50436 0.08074 0.01412 0.0
C182 C 0.50577 0.105 0.98336 0.0
C183 C 0.5113 0.08284 0.95143 0.0
C184 C 0.51528 0.03563 0.9507 0.0
H185 H 0.91378 0.96221 0.44781 0.0
H186 H 0.98497 0.05215 0.37946 0.0
H187 H 0.04667 0.05762 0.42144 0.0
H188 H 0.94186 0.01818 0.52508 0.0
H189 H 0.948 0.96788 0.55017 0.0
H190 H 0.91078 0.96852 0.51382 0.0
H191 H 0.95258 0.9006 0.48737 0.0
H192 H 0.9898 0.89958 0.52376 0.0
H193 H 0.01228 0.90364 0.48088 0.0
H194 H 0.09883 0.05641 0.47209 0.0
H195 H 0.1384 0.04724 0.52741 0.0
H196 H 0.03313 0.95834 0.56277 0.0
C197 C 0.94264 0.98254 0.44149 0.0
C198 C 0.9447 0.00663 0.41033 0.0
C199 C 0.98277 0.03332 0.40315 0.0
C200 C 0.01798 0.03664 0.42682 0.0
C201 C 0.01462 0.01304 0.45755 0.0
C202 C 0.97804 0.98634 0.46489 0.0
C203 C 0.982 0.9657 0.50027 0.0
C204 C 0.94337 0.981 0.52371 0.0
C205 C 0.98431 0.91433 0.49791 0.0
C206 C 0.02627 0.98534 0.51181 0.0
C207 C 0.04462 0.01244 0.48676 0.0
C208 C 0.08492 0.03505 0.49183 0.0
C209 C 0.1071 0.02973 0.52333 0.0
C210 C 0.08887 0.00207 0.54933 0.0
C211 C 0.04797 0.97959 0.54334 0.0
H212 H 0.16077 0.72154 0.10657 0.0
H213 H 0.12529 0.7318 0.21451 0.0
H214 H 0.19988 0.76302 0.22726 0.0
H215 H 0.27451 0.68732 0.12017 0.0
H216 H 0.2963 0.71853 0.08426 0.0
H217 H 0.23951 0.69833 0.08342 0.0
H218 H 0.2111 0.7791 0.07255 0.0
H219 H 0.26782 0.79959 0.07359 0.0
H220 H 0.22633 0.8232 0.10202 0.0
H221 H 0.27791 0.79257 0.22856 0.0
H222 H 0.35656 0.81449 0.21881 0.0
H223 H 0.34219 0.78402 0.11024 0.0
C224 C 0.16874 0.73042 0.13285 0.0
C225 C 0.13731 0.72434 0.15956 0.0
C226 C 0.14896 0.73612 0.19367 0.0
C227 C 0.19114 0.75404 0.20116 0.0
C228 C 0.22131 0.75984 0.17426 0.0
C229 C 0.21086 0.74812 0.14084 0.0
C230 C 0.25002 0.75648 0.11693 0.0
C231 C 0.26603 0.71255 0.10022 0.0
C232 C 0.23809 0.79169 0.08967 0.0
C233 C 0.28413 0.77442 0.14222 0.0
C234 C 0.26671 0.77643 0.17509 0.0
C235 C 0.29197 0.79125 0.20293 0.0
C236 C 0.33654 0.80369 0.19713 0.0
C237 C 0.35538 0.80099 0.16379 0.0
C238 C 0.3286 0.78663 0.13598 0.0
H239 H 0.29395 0.66714 0.61787 0.0
H240 H 0.28411 0.6416 0.72734 0.0
H241 H 0.24071 0.71148 0.73477 0.0
H242 H 0.30921 0.78666 0.62577 0.0
H243 H 0.27755 0.79893 0.58751 0.0
H244 H 0.30701 0.74654 0.59112 0.0
H245 H 0.23299 0.7039 0.57921 0.0
H246 H 0.20316 0.75618 0.57613 0.0
H247 H 0.18495 0.71411 0.6062 0.0
H248 H 0.19617 0.78235 0.72981 0.0
H249 H 0.16265 0.85518 0.71429 0.0
H250 H 0.20477 0.83587 0.60852 0.0
C251 C 0.28285 0.67645 0.64341 0.0
C252 C 0.29214 0.64915 0.67204 0.0
C253 C 0.27743 0.66235 0.70513 0.0
C254 C 0.2525 0.70169 0.70955 0.0
C255 C 0.24313 0.72749 0.68066 0.0
C256 C 0.25853 0.71586 0.64835 0.0
C257 C 0.24552 0.75037 0.62179 0.0
C258 C 0.28731 0.77191 0.60561 0.0
C259 C 0.21483 0.7299 0.59421 0.0
C260 C 0.22037 0.78325 0.64423 0.0
C261 C 0.21877 0.76909 0.67799 0.0
C262 C 0.19731 0.79391 0.70349 0.0
C263 C 0.17815 0.83503 0.69439 0.0
C264 C 0.18121 0.85098 0.66024 0.0
C265 C 0.20189 0.82436 0.6348 0.0
H266 H 0.66839 0.20614 0.89554 0.0
H267 H 0.6365 0.19947 0.78689 0.0
H268 H 0.70284 0.24574 0.77376 0.0
H269 H 0.70756 0.31841 0.89742 0.0
H270 H 0.75268 0.30773 0.92702 0.0
H271 H 0.70301 0.27355 0.92816 0.0
H272 H 0.75084 0.20181 0.91994 0.0
H273 H 0.80069 0.2357 0.91964 0.0
H274 H 0.78924 0.19837 0.88426 0.0
H275 H 0.77026 0.29619 0.77281 0.0
H276 H 0.84153 0.33607 0.78304 0.0
H277 H 0.83086 0.30726 0.89198 0.0
C278 C 0.67577 0.21391 0.86896 0.0
C279 C 0.64742 0.19926 0.84222 0.0
C280 C 0.65805 0.21007 0.80774 0.0
C281 C 0.69536 0.23671 0.80006 0.0
C282 C 0.7219 0.25178 0.82712 0.0
C283 C 0.7132 0.23993 0.86079 0.0
C284 C 0.74793 0.25916 0.88496 0.0
C285 C 0.72649 0.29164 0.91092 0.0
C286 C 0.77371 0.22152 0.90326 0.0
C287 C 0.77742 0.2838 0.85962 0.0
C288 C 0.76145 0.27973 0.82646 0.0
C289 C 0.78321 0.29947 0.79866 0.0
C290 C 0.82342 0.32241 0.80475 0.0
C291 C 0.84156 0.3248 0.83829 0.0
C292 C 0.8176 0.30619 0.8661 0.0
H293 H 0.71214 0.34171 0.31953 0.0
H294 H 0.69146 0.35484 0.42953 0.0
H295 H 0.71746 0.2772 0.43773 0.0
H296 H 0.67828 0.22439 0.31245 0.0
H297 H 0.72054 0.21121 0.28091 0.0
H298 H 0.69781 0.26704 0.28335 0.0
H299 H 0.77788 0.29909 0.29053 0.0
H300 H 0.80083 0.24338 0.28836 0.0
H301 H 0.81291 0.27871 0.32481 0.0
H302 H 0.74759 0.19982 0.43454 0.0
H303 H 0.77993 0.12623 0.42018 0.0
H304 H 0.78311 0.16283 0.31228 0.0
C305 C 0.71252 0.32796 0.34526 0.0
C306 C 0.69958 0.35412 0.37391 0.0
C307 C 0.70113 0.3353 0.40724 0.0
C308 C 0.71583 0.29126 0.41216 0.0
C309 C 0.72899 0.26657 0.3835 0.0
C310 C 0.72745 0.28407 0.35068 0.0
C311 C 0.74502 0.2507 0.3245 0.0
C312 C 0.70821 0.23756 0.29879 0.0
C313 C 0.78663 0.26908 0.30597 0.0
C314 C 0.75696 0.2119 0.34781 0.0
C315 C 0.74717 0.22181 0.3817 0.0
C316 C 0.75529 0.19156 0.4081 0.0
C317 C 0.77372 0.14987 0.39966 0.0
C318 C 0.78406 0.13886 0.36513 0.0
C319 C 0.77564 0.1704 0.3389 0.0
H320 H 0.76172 0.60217 0.32122 0.0
H321 H 0.83667 0.4899 0.36183 0.0
H322 H 0.90389 0.51525 0.33006 0.0
H323 H 0.80057 0.59092 0.23968 0.0
H324 H 0.80249 0.6497 0.22934 0.0
H325 H 0.76392 0.62984 0.26131 0.0
H326 H 0.79688 0.68496 0.30604 0.0
H327 H 0.83527 0.70569 0.27404 0.0
H328 H 0.85626 0.68485 0.31437 0.0
H329 H 0.95957 0.54738 0.28865 0.0
H330 H 0.99864 0.58177 0.23928 0.0
H331 H 0.88462 0.66897 0.22224 0.0
C332 C 0.79289 0.58416 0.32464 0.0
C333 C 0.79464 0.54483 0.34459 0.0
C334 C 0.83519 0.52065 0.34715 0.0
C335 C 0.8734 0.53481 0.32922 0.0
C336 C 0.87013 0.57282 0.30858 0.0
C337 C 0.83085 0.59718 0.30622 0.0
C338 C 0.83387 0.63263 0.27855 0.0
C339 C 0.79812 0.62529 0.25058 0.0
C340 C 0.83038 0.67983 0.2942 0.0
C341 C 0.88049 0.62355 0.26501 0.0
C342 C 0.90125 0.58966 0.28318 0.0
C343 C 0.94386 0.57427 0.27449 0.0
C344 C 0.96572 0.59389 0.2464 0.0
C345 C 0.94452 0.62784 0.22699 0.0
C346 C 0.90156 0.64303 0.23666 0.0
H347 H 0.45451 0.44609 0.73059 0.0
H348 H 0.32302 0.46637 0.77529 0.0
H349 H 0.34189 0.41379 0.82205 0.0
H350 H 0.45965 0.33422 0.74186 0.0
H351 H 0.51837 0.33112 0.75225 0.0
H352 H 0.49782 0.37651 0.72654 0.0
H353 H 0.53098 0.43382 0.76972 0.0
H354 H 0.55192 0.3884 0.7956 0.0
H355 H 0.51612 0.43035 0.81454 0.0
H356 H 0.37021 0.34889 0.85743 0.0
H357 H 0.40656 0.27978 0.87893 0.0
H358 H 0.52009 0.30477 0.81211 0.0
C359 C 0.43024 0.44055 0.75084 0.0
C360 C 0.38745 0.4603 0.74946 0.0
C361 C 0.35623 0.45182 0.77609 0.0
C362 C 0.36666 0.42205 0.80276 0.0
C363 C 0.40873 0.4018 0.80274 0.0
C364 C 0.44029 0.41132 0.77773 0.0
C365 C 0.48131 0.38212 0.78139 0.0
C366 C 0.48972 0.35436 0.74858 0.0
C367 C 0.52252 0.41037 0.79089 0.0
C368 C 0.4669 0.35291 0.81107 0.0
C369 C 0.42528 0.36508 0.82351 0.0
C370 C 0.40332 0.33977 0.84852 0.0
C371 C 0.42412 0.30058 0.86057 0.0
C372 C 0.46619 0.28717 0.84733 0.0
C373 C 0.48818 0.31449 0.82307 0.0
H374 H 0.628 0.82021 0.21891 0.0
H375 H 0.51041 0.8754 0.26894 0.0
H376 H 0.55657 0.89641 0.31914 0.0
H377 H 0.68506 0.77967 0.29953 0.0
H378 H 0.73941 0.79471 0.28301 0.0
H379 H 0.69589 0.77671 0.25402 0.0
H380 H 0.70474 0.85006 0.21903 0.0
H381 H 0.74845 0.86782 0.24755 0.0
H382 H 0.70037 0.90322 0.24086 0.0
H383 H 0.61683 0.92366 0.3581 0.0
H384 H 0.68621 0.95652 0.38164 0.0
H385 H 0.76445 0.88039 0.30809 0.0
C386 C 0.6118 0.83581 0.24078 0.0
C387 C 0.56571 0.8463 0.24011 0.0
C388 C 0.54568 0.86699 0.26903 0.0
C389 C 0.57159 0.87876 0.29772 0.0
C390 C 0.61724 0.86883 0.29728 0.0
C391 C 0.6371 0.84745 0.26964 0.0
C392 C 0.68743 0.84493 0.27377 0.0
C393 C 0.70285 0.7961 0.27783 0.0
C394 C 0.71163 0.8679 0.24354 0.0
C395 C 0.69312 0.87085 0.30697 0.0
C396 C 0.65216 0.88351 0.32055 0.0
C397 C 0.64904 0.91286 0.34837 0.0
C398 C 0.6886 0.93132 0.36164 0.0
C399 C 0.73059 0.9203 0.34707 0.0
C400 C 0.73289 0.88812 0.32051 0.0
H401 H 0.96699 0.21594 0.77646 0.0
H402 H 0.04144 0.19604 0.87082 0.0
H403 H 0.07101 0.12449 0.84772 0.0
H404 H 0.94418 0.09531 0.75594 0.0
H405 H 0.9527 0.10514 0.71072 0.0
H406 H 0.93005 0.14888 0.73762 0.0
H407 H 0.99336 0.20223 0.71766 0.0
H408 H 0.01643 0.15875 0.69105 0.0
H409 H 0.05092 0.18548 0.72308 0.0
H410 H 0.10088 0.06168 0.81088 0.0
H411 H 0.13009 0.01472 0.76356 0.0
H412 H 0.03792 0.07847 0.69285 0.0
C413 C 0.98829 0.19583 0.79282 0.0
C414 C 0.00164 0.21122 0.82556 0.0
C415 C 0.03044 0.18452 0.84581 0.0
C416 C 0.04729 0.14386 0.8329 0.0
C417 C 0.03479 0.13054 0.79985 0.0
C418 C 0.00569 0.15573 0.78019 0.0
C419 C 0.00203 0.13777 0.74394 0.0
C420 C 0.9544 0.12075 0.73664 0.0
C421 C 0.01657 0.17315 0.7174 0.0
C422 C 0.035 0.09951 0.74572 0.0
C423 C 0.05285 0.09517 0.77834 0.0
C424 C 0.08653 0.06426 0.78544 0.0
C425 C 0.10293 0.03778 0.75839 0.0
C426 C 0.08608 0.04293 0.72461 0.0
C427 C 0.05104 0.07348 0.71849 0.0
H428 H 0.05018 0.44117 0.75551 0.0
H429 H 0.09571 0.30579 0.77538 0.0
H430 H 0.15063 0.31199 0.72841 0.0
H431 H 0.07091 0.44113 0.65975 0.0
H432 H 0.09116 0.49799 0.66054 0.0
H433 H 0.04901 0.48032 0.69083 0.0
H434 H 0.09913 0.50639 0.74145 0.0
H435 H 0.14083 0.52467 0.71132 0.0
H436 H 0.1556 0.48543 0.74458 0.0
H437 H 0.2069 0.3353 0.68574 0.0
H438 H 0.26608 0.37721 0.65552 0.0
H439 H 0.18614 0.49818 0.66291 0.0
C440 C 0.07104 0.41261 0.74927 0.0
C441 C 0.06873 0.37299 0.76884 0.0
C442 C 0.09718 0.33655 0.76069 0.0
C443 C 0.12809 0.33953 0.73379 0.0
C444 C 0.13029 0.37925 0.71525 0.0
C445 C 0.10281 0.41535 0.72274 0.0
C446 C 0.11657 0.45624 0.70232 0.0
C447 C 0.07971 0.4697 0.67684 0.0
C448 C 0.12878 0.49546 0.72635 0.0
C449 C 0.15736 0.43808 0.68364 0.0
C450 C 0.16381 0.39319 0.69065 0.0
C451 C 0.2018 0.37021 0.67943 0.0
C452 C 0.23522 0.39425 0.66216 0.0
C453 C 0.23058 0.44082 0.65669 0.0
C454 C 0.19018 0.46238 0.66607 0.0
H455 H 0.66597 0.59038 0.26785 0.0
H456 H 0.55856 0.49267 0.26828 0.0
H457 H 0.52467 0.53004 0.21778 0.0
H458 H 0.60168 0.68206 0.25193 0.0
H459 H 0.64151 0.71035 0.22477 0.0
H460 H 0.66081 0.67138 0.25652 0.0
H461 H 0.70231 0.62617 0.20934 0.0
H462 H 0.68296 0.66512 0.17728 0.0
H463 H 0.67184 0.6061 0.17242 0.0
H464 H 0.49614 0.58566 0.17465 0.0
H465 H 0.47504 0.65462 0.14359 0.0
H466 H 0.6032 0.71363 0.16936 0.0
C467 C 0.63583 0.57617 0.25685 0.0
C468 C 0.61477 0.53866 0.27189 0.0
C469 C 0.57527 0.52126 0.25698 0.0
C470 C 0.55596 0.54217 0.22825 0.0
C471 C 0.57711 0.57984 0.21449 0.0
C472 C 0.61646 0.59638 0.22819 0.0
C473 C 0.6303 0.63976 0.21118 0.0
C474 C 0.63372 0.67811 0.23767 0.0
C475 C 0.67447 0.63391 0.19137 0.0
C476 C 0.59135 0.64644 0.1869 0.0
C477 C 0.56132 0.61119 0.18875 0.0
C478 C 0.51998 0.61276 0.17217 0.0
C479 C 0.50829 0.65198 0.1545 0.0
C480 C 0.53792 0.68894 0.15347 0.0
C481 C 0.58065 0.68524 0.16861 0.0
H482 H 0.38361 0.14256 0.79325 0.0
H483 H 0.49263 0.05365 0.76511 0.0
H484 H 0.44809 0.02558 0.7159 0.0
H485 H 0.29532 0.06833 0.77482 0.0
H486 H 0.25858 0.11106 0.75832 0.0
H487 H 0.30036 0.12532 0.78972 0.0
H488 H 0.33197 0.18579 0.74856 0.0
H489 H 0.29055 0.17121 0.71681 0.0
H490 H 0.34918 0.17001 0.7058 0.0
H491 H 0.38908 0.00362 0.67242 0.0
H492 H 0.31976 0.9874 0.64 0.0
H493 H 0.25126 0.09331 0.69553 0.0
C494 C 0.39821 0.11724 0.7767 0.0
C495 C 0.44146 0.10007 0.78301 0.0
C496 C 0.45947 0.06714 0.76072 0.0
C497 C 0.43454 0.05123 0.73264 0.0
C498 C 0.39199 0.06907 0.72705 0.0
C499 C 0.37405 0.1014 0.74849 0.0
C500 C 0.32698 0.11389 0.73787 0.0
C501 C 0.29334 0.10404 0.7669 0.0
C502 C 0.32456 0.16315 0.72659 0.0
C503 C 0.32061 0.08258 0.70768 0.0
C504 C 0.3586 0.05728 0.70158 0.0
C505 C 0.35941 0.02372 0.67662 0.0
C506 C 0.31995 0.01484 0.65825 0.0
C507 C 0.28035 0.03947 0.66497 0.0
C508 C 0.28127 0.07462 0.68926 0.0
H509 H 0.00017 0.83736 0.16113 0.0
H510 H 0.87624 0.77952 0.1239 0.0
H511 H 0.83442 0.84413 0.14766 0.0
H512 H 0.96128 0.86391 0.2386 0.0
H513 H 0.99235 0.91513 0.24436 0.0
H514 H 0.01352 0.87238 0.21627 0.0
H515 H 0.01687 0.92906 0.16601 0.0
H516 H 0.99598 0.97238 0.19414 0.0
H517 H 0.96739 0.96015 0.15444 0.0
H518 H 0.8052 0.90668 0.1849 0.0
H519 H 0.79127 0.95832 0.23341 0.0
H520 H 0.93429 0.97241 0.24871 0.0
C521 C 0.96445 0.83921 0.15659 0.0
C522 C 0.94149 0.80373 0.14027 0.0
C523 C 0.89457 0.80669 0.13585 0.0
C524 C 0.87058 0.84332 0.14926 0.0
C525 C 0.89407 0.87668 0.16688 0.0
C526 C 0.94013 0.875 0.17031 0.0
C527 C 0.95694 0.91039 0.19505 0.0
C528 C 0.98248 0.88916 0.22534 0.0
C529 C 0.98601 0.94506 0.17628 0.0
C530 C 0.91304 0.93071 0.20656 0.0
C531 C 0.87719 0.91185 0.18928 0.0
C532 C 0.83308 0.92242 0.19794 0.0
C533 C 0.82547 0.9519 0.22551 0.0
C534 C 0.86179 0.96966 0.24456 0.0
C535 C 0.90599 0.95991 0.23421 0.0
loop_
_geom_bond_atom_site_label_1
_geom_bond_atom_site_label_2
_geom_bond_distance
_geom_bond_site_symmetry_2
_ccdc_geom_bond_type
In0 O1 2.293 1_455 S
In0 O2 2.327 . S
In0 O6 2.264 1_455 S
In0 O7 2.325 1_455 S
In0 O8 2.266 1_455 S
In0 O9 2.323 1_455 S
In0 O11 2.297 . S
In0 O12 2.329 . S
O1 In0 2.293 1_655 S
O1 C10 1.240 1_655 S
O2 In0 2.327 . S
O2 C10 1.252 . S
C3 O6 1.252 . S
C3 O7 1.260 . S
C4 O11 1.240 . S
C4 O12 1.252 . S
C5 O8 1.252 . S
C5 O9 1.260 . S
O6 In0 2.264 1_655 S
O6 C3 1.252 . S
O7 In0 2.325 1_655 S
O7 C3 1.260 . S
O8 In0 2.266 1_655 S
O8 C5 1.252 . S
O9 In0 2.323 1_655 S
O9 C5 1.260 . S
C10 O1 1.240 1_455 S
C10 O2 1.252 . S
O11 In0 2.297 . S
O11 C4 1.240 . S
O12 In0 2.329 . S
O12 C4 1.252 . S
In13 O14 2.294 . S
In13 O15 2.326 . S
In13 O19 2.266 . S
In13 O20 2.326 . S
In13 O21 2.266 . S
In13 O22 2.326 . S
In13 O24 2.294 . S
In13 O25 2.326 . S
O14 In13 2.294 . S
O14 C23 1.240 . S
O15 In13 2.326 . S
O15 C23 1.252 . S
C16 O19 1.252 . S
C16 O20 1.260 . S
C17 O24 1.240 . S
C17 O25 1.252 . S
C18 O21 1.252 . S
C18 O22 1.260 . S
O19 In13 2.266 . S
O19 C16 1.252 . S
O20 In13 2.326 . S
O20 C16 1.260 . S
O21 In13 2.266 . S
O21 C18 1.252 . S
O22 In13 2.326 . S
O22 C18 1.260 . S
C23 O14 1.240 . S
C23 O15 1.252 . S
O24 In13 2.294 . S
O24 C17 1.240 . S
O25 In13 2.326 . S
O25 C17 1.252 . S
In26 O27 2.294 . S
In26 O28 2.326 . S
In26 O32 2.266 . S
In26 O33 2.326 . S
In26 O34 2.266 . S
In26 O35 2.326 . S
In26 O37 2.294 . S
In26 O38 2.326 . S
O27 In26 2.294 . S
O27 C36 1.240 . S
O28 In26 2.326 . S
O28 C36 1.252 . S
C29 O32 1.252 . S
C29 O33 1.260 . S
C30 O37 1.240 . S
C30 O38 1.252 . S
C31 O34 1.252 . S
C31 O35 1.260 . S
O32 In26 2.266 . S
O32 C29 1.252 . S
O33 In26 2.326 . S
O33 C29 1.260 . S
O34 In26 2.266 . S
O34 C31 1.252 . S
O35 In26 2.326 . S
O35 C31 1.260 . S
C36 O27 1.240 . S
C36 O28 1.252 . S
O37 In26 2.294 . S
O37 C30 1.240 . S
O38 In26 2.326 . S
O38 C30 1.252 . S
In39 O40 2.297 . S
In39 O41 2.329 . S
In39 O45 2.266 1_565 S
In39 O46 2.323 1_565 S
In39 O47 2.264 1_565 S
In39 O48 2.325 1_565 S
In39 O50 2.293 1_565 S
In39 O51 2.327 . S
O40 In39 2.297 . S
O40 C49 1.240 . S
O41 In39 2.329 . S
O41 C49 1.252 . S
C42 O45 1.252 . S
C42 O46 1.260 . S
C43 O50 1.240 1_565 S
C43 O51 1.252 . S
C44 O47 1.252 . S
C44 O48 1.260 . S
O45 In39 2.266 1_545 S
O45 C42 1.252 . S
O46 In39 2.323 1_545 S
O46 C42 1.260 . S
O47 In39 2.264 1_545 S
O47 C44 1.252 . S
O48 In39 2.325 1_545 S
O48 C44 1.260 . S
C49 O40 1.240 . S
C49 O41 1.252 . S
O50 In39 2.293 1_545 S
O50 C43 1.240 1_545 S
O51 In39 2.327 . S
O51 C43 1.252 . S
In52 O53 2.297 . S
In52 O54 2.329 . S
In52 O58 2.266 1_655 S
In52 O59 2.323 1_655 S
In52 O60 2.264 1_655 S
In52 O61 2.325 1_655 S
In52 O63 2.293 1_655 S
In52 O64 2.327 . S
O53 In52 2.297 . S
O53 C62 1.240 . S
O54 In52 2.329 . S
O54 C62 1.252 . S
C55 O58 1.252 . S
C55 O59 1.260 . S
C56 O63 1.240 1_655 S
C56 O64 1.252 . S
C57 O60 1.252 . S
C57 O61 1.260 . S
O58 In52 2.266 1_455 S
O58 C55 1.252 . S
O59 In52 2.323 1_455 S
O59 C55 1.260 . S
O60 In52 2.264 1_455 S
O60 C57 1.252 . S
O61 In52 2.325 1_455 S
O61 C57 1.260 . S
C62 O53 1.240 . S
C62 O54 1.252 . S
O63 In52 2.293 1_455 S
O63 C56 1.240 1_455 S
O64 In52 2.327 . S
O64 C56 1.252 . S
In65 O66 2.294 . S
In65 O67 2.326 . S
In65 O71 2.266 . S
In65 O72 2.326 . S
In65 O73 2.266 . S
In65 O74 2.326 . S
In65 O76 2.294 . S
In65 O77 2.326 . S
O66 In65 2.294 . S
O66 C75 1.240 . S
O67 In65 2.326 . S
O67 C75 1.252 . S
C68 O71 1.252 . S
C68 O72 1.260 . S
C69 O76 1.240 . S
C69 O77 1.252 . S
C70 O73 1.252 . S
C70 O74 1.260 . S
O71 In65 2.266 . S
O71 C68 1.252 . S
O72 In65 2.326 . S
O72 C68 1.260 . S
O73 In65 2.266 . S
O73 C70 1.252 . S
O74 In65 2.326 . S
O74 C70 1.260 . S
C75 O66 1.240 . S
C75 O67 1.252 . S
O76 In65 2.294 . S
O76 C69 1.240 . S
O77 In65 2.326 . S
O77 C69 1.252 . S
In78 O79 2.294 . S
In78 O80 2.326 . S
In78 O84 2.266 . S
In78 O85 2.326 . S
In78 O86 2.266 . S
In78 O87 2.326 . S
In78 O89 2.294 . S
In78 O90 2.326 . S
O79 In78 2.294 . S
O79 C88 1.240 . S
O80 In78 2.326 . S
O80 C88 1.252 . S
C81 O84 1.252 . S
C81 O85 1.260 . S
C82 O89 1.240 . S
C82 O90 1.252 . S
C83 O86 1.252 . S
C83 O87 1.260 . S
O84 In78 2.266 . S
O84 C81 1.252 . S
O85 In78 2.326 . S
O85 C81 1.260 . S
O86 In78 2.266 . S
O86 C83 1.252 . S
O87 In78 2.326 . S
O87 C83 1.260 . S
C88 O79 1.240 . S
C88 O80 1.252 . S
O89 In78 2.294 . S
O89 C82 1.240 . S
O90 In78 2.326 . S
O90 C82 1.252 . S
In91 O92 2.297 . S
In91 O93 2.329 . S
In91 O97 2.266 1_545 S
In91 O98 2.323 1_545 S
In91 O99 2.264 1_545 S
In91 O100 2.325 1_545 S
In91 O102 2.293 1_545 S
In91 O103 2.327 . S
O92 In91 2.297 . S
O92 C101 1.240 . S
O93 In91 2.329 . S
O93 C101 1.252 . S
C94 O97 1.252 . S
C94 O98 1.260 . S
C95 O102 1.240 1_545 S
C95 O103 1.252 . S
C96 O99 1.252 . S
C96 O100 1.260 . S
O97 In91 2.266 1_565 S
O97 C94 1.252 . S
O98 In91 2.323 1_565 S
O98 C94 1.260 . S
O99 In91 2.264 1_565 S
O99 C96 1.252 . S
O100 In91 2.325 1_565 S
O100 C96 1.260 . S
C101 O92 1.240 . S
C101 O93 1.252 . S
O102 In91 2.293 1_565 S
O102 C95 1.240 1_565 S
O103 In91 2.327 . S
O103 C95 1.252 . S
H104 C116 0.930 . S
H105 C118 0.930 . S
H106 C119 0.930 . S
H107 C123 0.959 . S
H108 C123 0.959 . S
H109 C123 0.961 . S
H110 C124 0.960 . S
H111 C124 0.961 1_455 S
H112 C124 0.959 . S
H113 C127 0.929 . S
H114 C128 0.931 . S
H115 C130 0.930 . S
C116 H104 0.930 . S
C116 C117 1.399 1_455 S
C116 C121 1.399 . S
C117 C116 1.399 1_655 S
C117 C118 1.376 . S
C118 H105 0.930 . S
C118 C117 1.376 . S
C118 C119 1.388 1_556 S
C119 H106 0.930 . S
C119 C118 1.388 1_554 S
C119 C120 1.390 . S
C120 C119 1.390 . S
C120 C121 1.394 1_654 S
C120 C126 1.465 . S
C121 C116 1.399 . S
C121 C120 1.394 1_456 S
C121 C122 1.516 . S
C122 C121 1.516 . S
C122 C123 1.502 . S
C122 C124 1.561 1_455 S
C122 C125 1.526 1_556 S
C123 H107 0.959 . S
C123 H108 0.959 . S
C123 H109 0.961 . S
C123 C122 1.502 . S
C124 H110 0.960 . S
C124 H111 0.961 1_655 S
C124 H112 0.959 . S
C124 C122 1.561 1_655 S
C125 C122 1.526 1_554 S
C125 C126 1.396 1_455 S
C125 C130 1.390 . S
C126 C120 1.465 . S
C126 C125 1.396 1_655 S
C126 C127 1.399 . S
C127 H113 0.929 . S
C127 C126 1.399 . S
C127 C128 1.385 . S
C128 H114 0.931 . S
C128 C127 1.385 . S
C128 C129 1.396 . S
C129 C128 1.396 . S
C129 C130 1.382 1_655 S
C130 H115 0.930 . S
C130 C125 1.390 . S
C130 C129 1.382 1_455 S
H131 C143 0.930 . S
H132 C145 0.930 . S
H133 C146 0.930 . S
H134 C150 0.959 . S
H135 C150 0.959 . S
H136 C150 0.961 . S
H137 C151 0.960 . S
H138 C151 0.961 . S
H139 C151 0.959 . S
H140 C154 0.929 . S
H141 C155 0.931 . S
H142 C157 0.930 . S
C143 H131 0.930 . S
C143 C144 1.399 . S
C143 C148 1.399 . S
C144 C143 1.399 . S
C144 C145 1.376 . S
C145 H132 0.930 . S
C145 C144 1.376 . S
C145 C146 1.388 . S
C146 H133 0.930 . S
C146 C145 1.388 . S
C146 C147 1.390 . S
C147 C146 1.390 . S
C147 C148 1.394 . S
C147 C153 1.465 . S
C148 C143 1.399 . S
C148 C147 1.394 . S
C148 C149 1.516 . S
C149 C148 1.516 . S
C149 C150 1.502 . S
C149 C151 1.561 . S
C149 C152 1.526 . S
C150 H134 0.959 . S
C150 H135 0.959 . S
C150 H136 0.961 . S
C150 C149 1.502 . S
C151 H137 0.960 . S
C151 H138 0.961 . S
C151 H139 0.959 . S
C151 C149 1.561 . S
C152 C149 1.526 . S
C152 C153 1.396 . S
C152 C157 1.390 . S
C153 C147 1.465 . S
C153 C152 1.396 . S
C153 C154 1.399 . S
C154 H140 0.929 . S
C154 C153 1.399 . S
C154 C155 1.385 . S
C155 H141 0.931 . S
C155 C154 1.385 . S
C155 C156 1.389 . S
C156 C155 1.389 . S
C156 C157 1.387 . S
C157 H142 0.930 . S
C157 C152 1.390 . S
C157 C156 1.387 . S
H158 C170 0.930 . S
H159 C172 0.930 . S
H160 C173 0.930 . S
H161 C177 0.959 . S
H162 C177 0.959 . S
H163 C177 0.961 . S
H164 C178 0.978 1_554 S
H165 C178 0.951 1_545 S
H166 C178 0.947 1_544 S
H167 C181 0.929 . S
H168 C182 0.931 . S
H169 C184 0.930 . S
C170 H158 0.930 . S
C170 C171 1.399 . S
C170 C175 1.399 . S
C171 C170 1.399 . S
C171 C172 1.376 . S
C172 H159 0.930 . S
C172 C171 1.376 . S
C172 C173 1.388 . S
C173 H160 0.930 . S
C173 C172 1.388 . S
C173 C174 1.390 . S
C174 C173 1.390 . S
C174 C175 1.394 . S
C174 C180 1.465 1_565 S
C175 C170 1.399 . S
C175 C174 1.394 . S
C175 C176 1.516 1_554 S
C176 C175 1.516 1_556 S
C176 C177 1.502 . S
C176 C178 1.566 . S
C176 C179 1.526 1_565 S
C177 H161 0.959 . S
C177 H162 0.959 . S
C177 H163 0.961 . S
C177 C176 1.502 . S
C178 H164 0.978 1_556 S
C178 H165 0.951 1_565 S
C178 H166 0.947 1_566 S
C178 C176 1.566 . S
C179 C176 1.526 1_545 S
C179 C180 1.396 1_556 S
C179 C184 1.390 . S
C180 C174 1.465 1_545 S
C180 C179 1.396 1_554 S
C180 C181 1.399 . S
C181 H167 0.929 . S
C181 C180 1.399 . S
C181 C182 1.385 1_554 S
C182 H168 0.931 . S
C182 C181 1.385 1_556 S
C182 C183 1.389 . S
C183 C182 1.389 . S
C183 C184 1.387 . S
C184 H169 0.930 . S
C184 C179 1.390 . S
C184 C183 1.387 . S
H185 C197 0.930 . S
H186 C199 0.930 . S
H187 C200 0.930 . S
H188 C204 0.959 . S
H189 C204 0.959 . S
H190 C204 0.961 . S
H191 C205 0.960 1_655 S
H192 C205 0.961 . S
H193 C205 0.959 . S
H194 C208 0.929 . S
H195 C209 0.931 . S
H196 C211 0.930 . S
C197 H185 0.930 . S
C197 C198 1.399 1_565 S
C197 C202 1.399 . S
C198 C197 1.399 1_545 S
C198 C199 1.376 . S
C199 H186 0.930 . S
C199 C198 1.376 . S
C199 C200 1.388 . S
C200 H187 0.930 . S
C200 C199 1.388 . S
C200 C201 1.390 . S
C201 C200 1.390 . S
C201 C202 1.394 1_545 S
C201 C207 1.465 1_655 S
C202 C197 1.399 . S
C202 C201 1.394 1_565 S
C202 C203 1.516 . S
C203 C202 1.516 . S
C203 C204 1.502 . S
C203 C205 1.561 1_655 S
C203 C206 1.526 1_655 S
C204 H188 0.959 . S
C204 H189 0.959 . S
C204 H190 0.961 . S
C204 C203 1.502 . S
C205 H191 0.960 1_455 S
C205 H192 0.961 . S
C205 H193 0.959 . S
C205 C203 1.561 1_455 S
C206 C203 1.526 1_455 S
C206 C207 1.396 1_565 S
C206 C211 1.390 . S
C207 C201 1.465 1_455 S
C207 C206 1.396 1_545 S
C207 C208 1.399 . S
C208 H194 0.929 . S
C208 C207 1.399 . S
C208 C209 1.385 . S
C209 H195 0.931 . S
C209 C208 1.385 . S
C209 C210 1.389 . S
C210 C209 1.389 . S
C210 C211 1.387 1_545 S
C211 H196 0.930 . S
C211 C206 1.390 . S
C211 C210 1.387 1_565 S
H212 C224 0.930 . S
H213 C226 0.930 . S
H214 C227 0.930 . S
H215 C231 0.959 . S
H216 C231 0.959 . S
H217 C231 0.961 . S
H218 C232 0.960 . S
H219 C232 0.961 . S
H220 C232 0.959 . S
H221 C235 0.929 . S
H222 C236 0.931 . S
H223 C238 0.930 . S
C224 H212 0.930 . S
C224 C225 1.399 . S
C224 C229 1.399 . S
C225 C224 1.399 . S
C225 C226 1.376 . S
C226 H213 0.930 . S
C226 C225 1.376 . S
C226 C227 1.388 . S
C227 H214 0.930 . S
C227 C226 1.388 . S
C227 C228 1.390 . S
C228 C227 1.390 . S
C228 C229 1.394 . S
C228 C234 1.465 . S
C229 C224 1.399 . S
C229 C228 1.394 . S
C229 C230 1.516 . S
C230 C229 1.516 . S
C230 C231 1.502 . S
C230 C232 1.561 . S
C230 C233 1.526 . S
C231 H215 0.959 . S
C231 H216 0.959 . S
C231 H217 0.961 . S
C231 C230 1.502 . S
C232 H218 0.960 . S
C232 H219 0.961 . S
C232 H220 0.959 . S
C232 C230 1.561 . S
C233 C230 1.526 . S
C233 C234 1.396 . S
C233 C238 1.390 . S
C234 C228 1.465 . S
C234 C233 1.396 . S
C234 C235 1.399 . S
C235 H221 0.929 . S
C235 C234 1.399 . S
C235 C236 1.385 . S
C236 H222 0.931 . S
C236 C235 1.385 . S
C236 C237 1.389 . S
C237 C236 1.389 . S
C237 C238 1.387 . S
C238 H223 0.930 . S
C238 C233 1.390 . S
C238 C237 1.387 . S
H239 C251 0.930 . S
H240 C253 0.930 . S
H241 C254 0.930 . S
H242 C258 0.959 . S
H243 C258 0.959 . S
H244 C258 0.961 . S
H245 C259 0.960 . S
H246 C259 0.961 . S
H247 C259 0.959 . S
H248 C262 0.929 . S
H249 C263 0.931 . S
H250 C265 0.930 . S
C251 H239 0.930 . S
C251 C252 1.399 . S
C251 C256 1.399 . S
C252 C251 1.399 . S
C252 C253 1.376 . S
C253 H240 0.930 . S
C253 C252 1.376 . S
C253 C254 1.388 . S
C254 H241 0.930 . S
C254 C253 1.388 . S
C254 C255 1.390 . S
C255 C254 1.390 . S
C255 C256 1.394 . S
C255 C261 1.465 . S
C256 C251 1.399 . S
C256 C255 1.394 . S
C256 C257 1.516 . S
C257 C256 1.516 . S
C257 C258 1.502 . S
C257 C259 1.561 . S
C257 C260 1.526 . S
C258 H242 0.959 . S
C258 H243 0.959 . S
C258 H244 0.961 . S
C258 C257 1.502 . S
C259 H245 0.960 . S
C259 H246 0.961 . S
C259 H247 0.959 . S
C259 C257 1.561 . S
C260 C257 1.526 . S
C260 C261 1.396 . S
C260 C265 1.390 . S
C261 C255 1.465 . S
C261 C260 1.396 . S
C261 C262 1.399 . S
C262 H248 0.929 . S
C262 C261 1.399 . S
C262 C263 1.385 . S
C263 H249 0.931 . S
C263 C262 1.385 . S
C263 C264 1.389 . S
C264 C263 1.389 . S
C264 C265 1.387 . S
C265 H250 0.930 . S
C265 C260 1.390 . S
C265 C264 1.387 . S
H266 C278 0.930 . S
H267 C280 0.930 . S
H268 C281 0.930 . S
H269 C285 0.959 . S
H270 C285 0.959 . S
H271 C285 0.961 . S
H272 C286 0.960 . S
H273 C286 0.961 . S
H274 C286 0.959 . S
H275 C289 0.929 . S
H276 C290 0.931 . S
H277 C292 0.930 . S
C278 H266 0.930 . S
C278 C279 1.399 . S
C278 C283 1.399 . S
C279 C278 1.399 . S
C279 C280 1.376 . S
C280 H267 0.930 . S
C280 C279 1.376 . S
C280 C281 1.388 . S
C281 H268 0.930 . S
C281 C280 1.388 . S
C281 C282 1.390 . S
C282 C281 1.390 . S
C282 C283 1.394 . S
C282 C288 1.465 . S
C283 C278 1.399 . S
C283 C282 1.394 . S
C283 C284 1.516 . S
C284 C283 1.516 . S
C284 C285 1.502 . S
C284 C286 1.561 . S
C284 C287 1.526 . S
C285 H269 0.959 . S
C285 H270 0.959 . S
C285 H271 0.961 . S
C285 C284 1.502 . S
C286 H272 0.960 . S
C286 H273 0.961 . S
C286 H274 0.959 . S
C286 C284 1.561 . S
C287 C284 1.526 . S
C287 C288 1.396 . S
C287 C292 1.390 . S
C288 C282 1.465 . S
C288 C287 1.396 . S
C288 C289 1.399 . S
C289 H275 0.929 . S
C289 C288 1.399 . S
C289 C290 1.385 . S
C290 H276 0.931 . S
C290 C289 1.385 . S
C290 C291 1.389 . S
C291 C290 1.389 . S
C291 C292 1.387 . S
C292 H277 0.930 . S
C292 C287 1.390 . S
C292 C291 1.387 . S
H293 C305 0.930 . S
H294 C307 0.930 . S
H295 C308 0.930 . S
H296 C312 0.959 . S
H297 C312 0.959 . S
H298 C312 0.961 . S
H299 C313 0.960 . S
H300 C313 0.961 . S
H301 C313 0.959 . S
H302 C316 0.929 . S
H303 C317 0.931 . S
H304 C319 0.930 . S
C305 H293 0.930 . S
C305 C306 1.399 . S
C305 C310 1.399 . S
C306 C305 1.399 . S
C306 C307 1.376 . S
C307 H294 0.930 . S
C307 C306 1.376 . S
C307 C308 1.388 . S
C308 H295 0.930 . S
C308 C307 1.388 . S
C308 C309 1.390 . S
C309 C308 1.390 . S
C309 C310 1.394 . S
C309 C315 1.465 . S
C310 C305 1.399 . S
C310 C309 1.394 . S
C310 C311 1.516 . S
C311 C310 1.516 . S
C311 C312 1.502 . S
C311 C313 1.561 . S
C311 C314 1.526 . S
C312 H296 0.959 . S
C312 H297 0.959 . S
C312 H298 0.961 . S
C312 C311 1.502 . S
C313 H299 0.960 . S
C313 H300 0.961 . S
C313 H301 0.959 . S
C313 C311 1.561 . S
C314 C311 1.526 . S
C314 C315 1.396 . S
C314 C319 1.390 . S
C315 C309 1.465 . S
C315 C314 1.396 . S
C315 C316 1.399 . S
C316 H302 0.929 . S
C316 C315 1.399 . S
C316 C317 1.385 . S
C317 H303 0.931 . S
C317 C316 1.385 . S
C317 C318 1.389 . S
C318 C317 1.389 . S
C318 C319 1.387 . S
C319 H304 0.930 . S
C319 C314 1.390 . S
C319 C318 1.387 . S
H320 C332 0.930 . S
H321 C334 0.930 . S
H322 C335 0.930 . S
H323 C339 0.959 . S
H324 C339 0.959 . S
H325 C339 0.961 . S
H326 C340 0.960 . S
H327 C340 0.961 . S
H328 C340 0.959 . S
H329 C343 0.929 . S
H330 C344 0.931 . S
H331 C346 0.930 . S
C332 H320 0.930 . S
C332 C333 1.399 . S
C332 C337 1.399 . S
C333 C332 1.399 . S
C333 C334 1.376 . S
C334 H321 0.930 . S
C334 C333 1.376 . S
C334 C335 1.388 . S
C335 H322 0.930 . S
C335 C334 1.388 . S
C335 C336 1.390 . S
C336 C335 1.390 . S
C336 C337 1.394 . S
C336 C342 1.465 . S
C337 C332 1.399 . S
C337 C336 1.394 . S
C337 C338 1.516 . S
C338 C337 1.516 . S
C338 C339 1.502 . S
C338 C340 1.561 . S
C338 C341 1.526 . S
C339 H323 0.959 . S
C339 H324 0.959 . S
C339 H325 0.961 . S
C339 C338 1.502 . S
C340 H326 0.960 . S
C340 H327 0.961 . S
C340 H328 0.959 . S
C340 C338 1.561 . S
C341 C338 1.526 . S
C341 C342 1.396 . S
C341 C346 1.390 . S
C342 C336 1.465 . S
C342 C341 1.396 . S
C342 C343 1.399 . S
C343 H329 0.929 . S
C343 C342 1.399 . S
C343 C344 1.385 . S
C344 H330 0.931 . S
C344 C343 1.385 . S
C344 C345 1.389 . S
C345 C344 1.389 . S
C345 C346 1.387 . S
C346 H331 0.930 . S
C346 C341 1.390 . S
C346 C345 1.387 . S
H347 C359 0.930 . S
H348 C361 0.930 . S
H349 C362 0.930 . S
H350 C366 0.959 . S
H351 C366 0.959 . S
H352 C366 0.961 . S
H353 C367 0.960 . S
H354 C367 0.961 . S
H355 C367 0.959 . S
H356 C370 0.929 . S
H357 C371 0.931 . S
H358 C373 0.930 . S
C359 H347 0.930 . S
C359 C360 1.399 . S
C359 C364 1.399 . S
C360 C359 1.399 . S
C360 C361 1.376 . S
C361 H348 0.930 . S
C361 C360 1.376 . S
C361 C362 1.388 . S
C362 H349 0.930 . S
C362 C361 1.388 . S
C362 C363 1.390 . S
C363 C362 1.390 . S
C363 C364 1.394 . S
C363 C369 1.465 . S
C364 C359 1.399 . S
C364 C363 1.394 . S
C364 C365 1.516 . S
C365 C364 1.516 . S
C365 C366 1.502 . S
C365 C367 1.561 . S
C365 C368 1.526 . S
C366 H350 0.959 . S
C366 H351 0.959 . S
C366 H352 0.961 . S
C366 C365 1.502 . S
C367 H353 0.960 . S
C367 H354 0.961 . S
C367 H355 0.959 . S
C367 C365 1.561 . S
C368 C365 1.526 . S
C368 C369 1.396 . S
C368 C373 1.390 . S
C369 C363 1.465 . S
C369 C368 1.396 . S
C369 C370 1.399 . S
C370 H356 0.929 . S
C370 C369 1.399 . S
C370 C371 1.385 . S
C371 H357 0.931 . S
C371 C370 1.385 . S
C371 C372 1.389 . S
C372 C371 1.389 . S
C372 C373 1.387 . S
C373 H358 0.930 . S
C373 C368 1.390 . S
C373 C372 1.387 . S
H374 C386 0.930 . S
H375 C388 0.930 . S
H376 C389 0.930 . S
H377 C393 0.959 . S
H378 C393 0.959 . S
H379 C393 0.961 . S
H380 C394 0.960 . S
H381 C394 0.961 . S
H382 C394 0.959 . S
H383 C397 0.929 . S
H384 C398 0.931 . S
H385 C400 0.930 . S
C386 H374 0.930 . S
C386 C387 1.399 . S
C386 C391 1.399 . S
C387 C386 1.399 . S
C387 C388 1.376 . S
C388 H375 0.930 . S
C388 C387 1.376 . S
C388 C389 1.388 . S
C389 H376 0.930 . S
C389 C388 1.388 . S
C389 C390 1.390 . S
C390 C389 1.390 . S
C390 C391 1.394 . S
C390 C396 1.465 . S
C391 C386 1.399 . S
C391 C390 1.394 . S
C391 C392 1.516 . S
C392 C391 1.516 . S
C392 C393 1.502 . S
C392 C394 1.561 . S
C392 C395 1.526 . S
C393 H377 0.959 . S
C393 H378 0.959 . S
C393 H379 0.961 . S
C393 C392 1.502 . S
C394 H380 0.960 . S
C394 H381 0.961 . S
C394 H382 0.959 . S
C394 C392 1.561 . S
C395 C392 1.526 . S
C395 C396 1.396 . S
C395 C400 1.390 . S
C396 C390 1.465 . S
C396 C395 1.396 . S
C396 C397 1.399 . S
C397 H383 0.929 . S
C397 C396 1.399 . S
C397 C398 1.385 . S
C398 H384 0.931 . S
C398 C397 1.385 . S
C398 C399 1.389 . S
C399 C398 1.389 . S
C399 C400 1.387 . S
C400 H385 0.930 . S
C400 C395 1.390 . S
C400 C399 1.387 . S
H401 C413 0.930 . S
H402 C415 0.930 . S
H403 C416 0.930 . S
H404 C420 0.959 . S
H405 C420 0.959 . S
H406 C420 0.961 . S
H407 C421 0.960 . S
H408 C421 0.961 . S
H409 C421 0.959 . S
H410 C424 0.929 . S
H411 C425 0.931 . S
H412 C427 0.930 . S
C413 H401 0.930 . S
C413 C414 1.399 . S
C413 C418 1.399 . S
C414 C413 1.399 . S
C414 C415 1.376 . S
C415 H402 0.930 . S
C415 C414 1.376 . S
C415 C416 1.388 . S
C416 H403 0.930 . S
C416 C415 1.388 . S
C416 C417 1.390 . S
C417 C416 1.390 . S
C417 C418 1.394 . S
C417 C423 1.465 . S
C418 C413 1.399 . S
C418 C417 1.394 . S
C418 C419 1.516 . S
C419 C418 1.516 . S
C419 C420 1.502 . S
C419 C421 1.561 . S
C419 C422 1.526 . S
C420 H404 0.959 . S
C420 H405 0.959 . S
C420 H406 0.961 . S
C420 C419 1.502 . S
C421 H407 0.960 . S
C421 H408 0.961 . S
C421 H409 0.959 . S
C421 C419 1.561 . S
C422 C419 1.526 . S
C422 C423 1.396 . S
C422 C427 1.390 . S
C423 C417 1.465 . S
C423 C422 1.396 . S
C423 C424 1.399 . S
C424 H410 0.929 . S
C424 C423 1.399 . S
C424 C425 1.385 . S
C425 H411 0.931 . S
C425 C424 1.385 . S
C425 C426 1.389 . S
C426 C425 1.389 . S
C426 C427 1.387 . S
C427 H412 0.930 . S
C427 C422 1.390 . S
C427 C426 1.387 . S
H428 C440 0.930 . S
H429 C442 0.930 . S
H430 C443 0.930 . S
H431 C447 0.959 . S
H432 C447 0.959 . S
H433 C447 0.961 . S
H434 C448 0.960 . S
H435 C448 0.961 . S
H436 C448 0.959 . S
H437 C451 0.929 . S
H438 C452 0.931 . S
H439 C454 0.930 . S
C440 H428 0.930 . S
C440 C441 1.399 . S
C440 C445 1.399 . S
C441 C440 1.399 . S
C441 C442 1.376 . S
C442 H429 0.930 . S
C442 C441 1.376 . S
C442 C443 1.388 . S
C443 H430 0.930 . S
C443 C442 1.388 . S
C443 C444 1.390 . S
C444 C443 1.390 . S
C444 C445 1.394 . S
C444 C450 1.465 . S
C445 C440 1.399 . S
C445 C444 1.394 . S
C445 C446 1.516 . S
C446 C445 1.516 . S
C446 C447 1.502 . S
C446 C448 1.561 . S
C446 C449 1.526 . S
C447 H431 0.959 . S
C447 H432 0.959 . S
C447 H433 0.961 . S
C447 C446 1.502 . S
C448 H434 0.960 . S
C448 H435 0.961 . S
C448 H436 0.959 . S
C448 C446 1.561 . S
C449 C446 1.526 . S
C449 C450 1.396 . S
C449 C454 1.390 . S
C450 C444 1.465 . S
C450 C449 1.396 . S
C450 C451 1.399 . S
C451 H437 0.929 . S
C451 C450 1.399 . S
C451 C452 1.385 . S
C452 H438 0.931 . S
C452 C451 1.385 . S
C452 C453 1.389 . S
C453 C452 1.389 . S
C453 C454 1.387 . S
C454 H439 0.930 . S
C454 C449 1.390 . S
C454 C453 1.387 . S
H455 C467 0.930 . S
H456 C469 0.930 . S
H457 C470 0.930 . S
H458 C474 0.959 . S
H459 C474 0.959 . S
H460 C474 0.961 . S
H461 C475 0.960 . S
H462 C475 0.961 . S
H463 C475 0.959 . S
H464 C478 0.929 . S
H465 C479 0.931 . S
H466 C481 0.930 . S
C467 H455 0.930 . S
C467 C468 1.399 . S
C467 C472 1.399 . S
C468 C467 1.399 . S
C468 C469 1.376 . S
C469 H456 0.930 . S
C469 C468 1.376 . S
C469 C470 1.388 . S
C470 H457 0.930 . S
C470 C469 1.388 . S
C470 C471 1.390 . S
C471 C470 1.390 . S
C471 C472 1.394 . S
C471 C477 1.465 . S
C472 C467 1.399 . S
C472 C471 1.394 . S
C472 C473 1.516 . S
C473 C472 1.516 . S
C473 C474 1.502 . S
C473 C475 1.561 . S
C473 C476 1.526 . S
C474 H458 0.959 . S
C474 H459 0.959 . S
C474 H460 0.961 . S
C474 C473 1.502 . S
C475 H461 0.960 . S
C475 H462 0.961 . S
C475 H463 0.959 . S
C475 C473 1.561 . S
C476 C473 1.526 . S
C476 C477 1.396 . S
C476 C481 1.390 . S
C477 C471 1.465 . S
C477 C476 1.396 . S
C477 C478 1.399 . S
C478 H464 0.929 . S
C478 C477 1.399 . S
C478 C479 1.385 . S
C479 H465 0.931 . S
C479 C478 1.385 . S
C479 C480 1.389 . S
C480 C479 1.389 . S
C480 C481 1.387 . S
C481 H466 0.930 . S
C481 C476 1.390 . S
C481 C480 1.387 . S
H482 C494 0.930 . S
H483 C496 0.930 . S
H484 C497 0.930 . S
H485 C501 0.959 . S
H486 C501 0.959 . S
H487 C501 0.961 . S
H488 C502 0.960 . S
H489 C502 0.961 . S
H490 C502 0.959 . S
H491 C505 0.929 1_565 S
H492 C506 0.931 1_565 S
H493 C508 0.930 . S
C494 H482 0.930 . S
C494 C495 1.399 . S
C494 C499 1.399 . S
C495 C494 1.399 . S
C495 C496 1.376 . S
C496 H483 0.930 . S
C496 C495 1.376 . S
C496 C497 1.388 . S
C497 H484 0.930 . S
C497 C496 1.388 . S
C497 C498 1.390 . S
C498 C497 1.390 . S
C498 C499 1.394 . S
C498 C504 1.465 . S
C499 C494 1.399 . S
C499 C498 1.394 . S
C499 C500 1.516 . S
C500 C499 1.516 . S
C500 C501 1.502 . S
C500 C502 1.561 . S
C500 C503 1.526 . S
C501 H485 0.959 . S
C501 H486 0.959 . S
C501 H487 0.961 . S
C501 C500 1.502 . S
C502 H488 0.960 . S
C502 H489 0.961 . S
C502 H490 0.959 . S
C502 C500 1.561 . S
C503 C500 1.526 . S
C503 C504 1.396 . S
C503 C508 1.390 . S
C504 C498 1.465 . S
C504 C503 1.396 . S
C504 C505 1.399 . S
C505 H491 0.929 1_545 S
C505 C504 1.399 . S
C505 C506 1.385 . S
C506 H492 0.931 1_545 S
C506 C505 1.385 . S
C506 C507 1.389 . S
C507 C506 1.389 . S
C507 C508 1.387 . S
C508 H493 0.930 . S
C508 C503 1.390 . S
C508 C507 1.387 . S
H509 C521 0.930 . S
H510 C523 0.930 . S
H511 C524 0.930 . S
H512 C528 0.959 . S
H513 C528 0.959 . S
H514 C528 0.961 . S
H515 C529 0.960 . S
H516 C529 0.961 . S
H517 C529 0.959 . S
H518 C532 0.929 . S
H519 C533 0.931 . S
H520 C535 0.930 . S
C521 H509 0.930 . S
C521 C522 1.399 . S
C521 C526 1.399 . S
C522 C521 1.399 . S
C522 C523 1.376 . S
C523 H510 0.930 . S
C523 C522 1.376 . S
C523 C524 1.388 . S
C524 H511 0.930 . S
C524 C523 1.388 . S
C524 C525 1.390 . S
C525 C524 1.390 . S
C525 C526 1.394 . S
C525 C531 1.465 . S
C526 C521 1.399 . S
C526 C525 1.394 . S
C526 C527 1.516 . S
C527 C526 1.516 . S
C527 C528 1.502 . S
C527 C529 1.561 . S
C527 C530 1.526 . S
C528 H512 0.959 . S
C528 H513 0.959 . S
C528 H514 0.961 . S
C528 C527 1.502 . S
C529 H515 0.960 . S
C529 H516 0.961 . S
C529 H517 0.959 . S
C529 C527 1.561 . S
C530 C527 1.526 . S
C530 C531 1.396 . S
C530 C535 1.390 . S
C531 C525 1.465 . S
C531 C530 1.396 . S
C531 C532 1.399 . S
C532 H518 0.929 . S
C532 C531 1.399 . S
C532 C533 1.385 . S
C533 H519 0.931 . S
C533 C532 1.385 . S
C533 C534 1.389 . S
C534 C533 1.389 . S
C534 C535 1.387 . S
C535 H520 0.930 . S
C535 C530 1.390 . S
C535 C534 1.387 . S
C117 C56 1.737 . S
C129 C10 1.699 1_655 S
C144 C17 1.702 . S
C156 C69 1.744 . S
C171 C36 1.690 . S
C183 C88 1.734 . S
C198 C95 1.687 . S
C210 C43 1.727 1_545 S
C225 C4 1.662 . S
C237 C30 1.667 . S
C252 C23 1.661 . S
C264 C49 1.669 . S
C279 C82 1.674 . S
C291 C62 1.660 . S
C306 C75 1.667 . S
C318 C101 1.673 . S
C333 C70 1.065 . S
C345 C5 1.116 . S
C360 C16 1.074 . S
C372 C81 1.083 . S
C387 C31 1.099 . S
C399 C96 1.008 . S
C414 C57 1.100 . S
C426 C42 1.068 . S
C441 C55 1.074 . S
C453 C18 1.070 . S
C468 C68 1.120 . S
C480 C29 1.045 . S
C495 C83 1.106 . S
C507 C44 1.049 . S
C522 C3 1.030 . S
C534 C94 1.075 . S
