# Generated by pormake.
# Topology ske, (6)-cn, num edge types: 1
# Building blocks:
#     Node 0, Type 0, BuildingBlock: BETDEL_clean_sbu_0, # of connection points: 6
#     Node 1, Type 0, BuildingBlock: BETDEL_clean_sbu_0, # of connection points: 6
#     Node 2, Type 0, BuildingBlock: BETDEL_clean_sbu_0, # of connection points: 6
#     Node 3, Type 0, BuildingBlock: BETDEL_clean_sbu_0, # of connection points: 6
#     Node 4, Type 0, BuildingBlock: BETDEL_clean_sbu_0, # of connection points: 6
#     Node 5, Type 0, BuildingBlock: BETDEL_clean_sbu_0, # of connection points: 6
#     Node 6, Type 0, BuildingBlock: BETDEL_clean_sbu_0, # of connection points: 6
#     Node 7, Type 0, BuildingBlock: BETDEL_clean_sbu_0, # of connection points: 6
#     Edge 8, Type (0, 0), BuildingBlock: XUDNAN_clean_linker_2, # of connection points: 2
#     Edge 9, Type (0, 0), BuildingBlock: XUDNAN_clean_linker_2, # of connection points: 2
#     Edge 10, Type (0, 0), BuildingBlock: XUDNAN_clean_linker_2, # of connection points: 2
#     Edge 11, Type (0, 0), BuildingBlock: XUDNAN_clean_linker_2, # of connection points: 2
#     Edge 12, Type (0, 0), BuildingBlock: XUDNAN_clean_linker_2, # of connection points: 2
#     Edge 13, Type (0, 0), BuildingBlock: XUDNAN_clean_linker_2, # of connection points: 2
#     Edge 14, Type (0, 0), BuildingBlock: XUDNAN_clean_linker_2, # of connection points: 2
#     Edge 15, Type (0, 0), BuildingBlock: XUDNAN_clean_linker_2, # of connection points: 2
#     Edge 16, Type (0, 0), BuildingBlock: XUDNAN_clean_linker_2, # of connection points: 2
#     Edge 17, Type (0, 0), BuildingBlock: XUDNAN_clean_linker_2, # of connection points: 2
#     Edge 18, Type (0, 0), BuildingBlock: XUDNAN_clean_linker_2, # of connection points: 2
#     Edge 19, Type (0, 0), BuildingBlock: XUDNAN_clean_linker_2, # of connection points: 2
#     Edge 20, Type (0, 0), BuildingBlock: XUDNAN_clean_linker_2, # of connection points: 2
#     Edge 21, Type (0, 0), BuildingBlock: XUDNAN_clean_linker_2, # of connection points: 2
#     Edge 22, Type (0, 0), BuildingBlock: XUDNAN_clean_linker_2, # of connection points: 2
#     Edge 23, Type (0, 0), BuildingBlock: XUDNAN_clean_linker_2, # of connection points: 2
#     Edge 24, Type (0, 0), BuildingBlock: XUDNAN_clean_linker_2, # of connection points: 2
#     Edge 25, Type (0, 0), BuildingBlock: XUDNAN_clean_linker_2, # of connection points: 2
#     Edge 26, Type (0, 0), BuildingBlock: XUDNAN_clean_linker_2, # of connection points: 2
#     Edge 27, Type (0, 0), BuildingBlock: XUDNAN_clean_linker_2, # of connection points: 2
#     Edge 28, Type (0, 0), BuildingBlock: XUDNAN_clean_linker_2, # of connection points: 2
#     Edge 29, Type (0, 0), BuildingBlock: XUDNAN_clean_linker_2, # of connection points: 2
#     Edge 30, Type (0, 0), BuildingBlock: XUDNAN_clean_linker_2, # of connection points: 2
#     Edge 31, Type (0, 0), BuildingBlock: XUDNAN_clean_linker_2, # of connection points: 2
# Relax obj value: 0.146
# Max RMSD: 0.161
# Mean RMSD: 0.158
data_MOF--net-ske--node1-BETDEL_clean_sbu_0--edge1-XUDNAN_clean_linker_2
_symmetry_space_group_name_H-M    P1
_symmetry_Int_Tables_number       1
_symmetry_cell_setting            triclinic
loop_
_symmetry_equiv_pos_as_xyz
'x, y, z'
_cell_length_a     70.534436
_cell_length_b     28.835072
_cell_length_c     15.399502
_cell_angle_alpha  90.080073
_cell_angle_beta   89.999716
_cell_angle_gamma 84.757703
loop_
_atom_site_label
_atom_site_type_symbol
_atom_site_fract_x
_atom_site_fract_y
_atom_site_fract_z
_atom_type_partial_charge
Dy0 Dy 0.16507 0.25846 0.5598 0.0
C1 C 0.08498 0.23787 0.54748 0.0
C2 C 0.2022 0.27184 0.59649 0.0
Dy3 Dy 0.12229 0.25633 0.56026 0.0
O4 O 0.19442 0.23323 0.60693 0.0
O5 O 0.18981 0.30308 0.56318 0.0
O6 O 0.16815 0.18813 0.49828 0.0
O7 O 0.14605 0.20458 0.58887 0.0
C8 C 0.15327 0.17411 0.53633 0.0
C9 C 0.13416 0.34287 0.5707 0.0
O10 O 0.12684 0.24942 0.70103 0.0
O11 O 0.15715 0.27405 0.70014 0.0
O12 O 0.09153 0.27693 0.52658 0.0
O13 O 0.09887 0.20861 0.57379 0.0
O14 O 0.11936 0.32982 0.61079 0.0
O15 O 0.14135 0.30918 0.5258 0.0
O16 O 0.15984 0.27013 0.4172 0.0
O17 O 0.12963 0.24379 0.42048 0.0
C18 C 0.14163 0.26381 0.74181 0.0
C19 C 0.14438 0.25765 0.37728 0.0
Dy20 Dy 0.86161 0.2697 0.55695 0.0
C21 C 0.94532 0.24772 0.56959 0.0
C22 C 0.82365 0.25971 0.58134 0.0
Dy23 Dy 0.90663 0.25533 0.55242 0.0
O24 O 0.83068 0.2844 0.52076 0.0
O25 O 0.83748 0.23847 0.62577 0.0
O26 O 0.85829 0.34871 0.5541 0.0
O27 O 0.88501 0.31301 0.55279 0.0
C28 C 0.87641 0.35318 0.54985 0.0
C29 C 0.88852 0.17842 0.52156 0.0
O30 O 0.90105 0.27217 0.695 0.0
O31 O 0.8679 0.27353 0.69716 0.0
O32 O 0.93388 0.21994 0.60353 0.0
O33 O 0.93556 0.28088 0.52691 0.0
O34 O 0.90463 0.1866 0.48705 0.0
O35 O 0.88338 0.21059 0.57498 0.0
O36 O 0.86815 0.25558 0.4165 0.0
O37 O 0.89965 0.27502 0.41429 0.0
C38 C 0.88441 0.27626 0.73656 0.0
C39 C 0.88351 0.26722 0.37437 0.0
Dy40 Dy 0.12204 0.76736 0.42422 0.0
C41 C 0.20216 0.73871 0.38648 0.0
C42 C 0.08301 0.78211 0.43805 0.0
Dy43 Dy 0.16394 0.74666 0.42569 0.0
O44 O 0.09317 0.74501 0.46509 0.0
O45 O 0.09416 0.81025 0.40382 0.0
O46 O 0.12713 0.83748 0.36998 0.0
O47 O 0.14554 0.80821 0.46329 0.0
C48 C 0.14187 0.84378 0.417 0.0
C49 C 0.14526 0.67156 0.45286 0.0
O50 O 0.16017 0.75807 0.56928 0.0
O51 O 0.12753 0.75216 0.56464 0.0
O52 O 0.19164 0.70465 0.3974 0.0
O53 O 0.19194 0.77791 0.40056 0.0
O54 O 0.16119 0.67894 0.4902 0.0
O55 O 0.14044 0.70322 0.39781 0.0
O56 O 0.1257 0.74187 0.28948 0.0
O57 O 0.15692 0.75846 0.28319 0.0
C58 C 0.14369 0.75289 0.60838 0.0
C59 C 0.1411 0.74821 0.24424 0.0
Dy60 Dy 0.90664 0.76734 0.45109 0.0
C61 C 0.8285 0.74039 0.40584 0.0
C62 C 0.9434 0.79009 0.47072 0.0
Dy63 Dy 0.86518 0.75573 0.44878 0.0
O64 O 0.93722 0.75073 0.49205 0.0
O65 O 0.92936 0.8177 0.44038 0.0
O66 O 0.91312 0.69718 0.38922 0.0
O67 O 0.89014 0.70723 0.47469 0.0
C68 C 0.89897 0.67827 0.42414 0.0
C69 C 0.87282 0.84215 0.4917 0.0
O70 O 0.87077 0.73571 0.58608 0.0
O71 O 0.89895 0.77132 0.59385 0.0
O72 O 0.83583 0.77983 0.40034 0.0
O73 O 0.8411 0.7091 0.43737 0.0
O74 O 0.85932 0.82032 0.52521 0.0
O75 O 0.88148 0.81753 0.43262 0.0
O76 O 0.90209 0.77536 0.30745 0.0
O77 O 0.87355 0.74242 0.31135 0.0
C78 C 0.88486 0.75121 0.63158 0.0
C79 C 0.88798 0.75679 0.26786 0.0
Dy80 Dy 0.66628 0.75344 0.07402 0.0
C81 C 0.58513 0.78387 0.05293 0.0
C82 C 0.70459 0.74443 0.11031 0.0
Dy83 Dy 0.62398 0.77329 0.07441 0.0
O84 O 0.69447 0.7113 0.08687 0.0
O85 O 0.6939 0.78373 0.1104 0.0
O86 O 0.66383 0.68484 0.01174 0.0
O87 O 0.64283 0.71035 0.10192 0.0
C88 C 0.64779 0.67809 0.0484 0.0
C89 C 0.64343 0.84991 0.08461 0.0
O90 O 0.62717 0.7561 0.21342 0.0
O91 O 0.65955 0.76301 0.21724 0.0
O92 O 0.59483 0.74579 0.07807 0.0
O93 O 0.59667 0.81548 0.03887 0.0
O94 O 0.62865 0.84305 0.13136 0.0
O95 O 0.64742 0.8145 0.03779 0.0
O96 O 0.66215 0.76655 0.93127 0.0
O97 O 0.63027 0.75275 0.93677 0.0
C98 C 0.64318 0.75804 0.25684 0.0
C99 C 0.6461 0.75724 0.89243 0.0
Dy100 Dy 0.36381 0.77045 0.06375 0.0
C101 C 0.44545 0.78506 0.05263 0.0
C102 C 0.32722 0.7549 0.10704 0.0
Dy103 Dy 0.40779 0.76872 0.05123 0.0
O104 O 0.33532 0.79249 0.12452 0.0
O105 O 0.339 0.72608 0.06367 0.0
O106 O 0.35983 0.84084 0.00109 0.0
O107 O 0.38449 0.82263 0.07518 0.0
C108 C 0.37637 0.85286 0.02456 0.0
C109 C 0.39383 0.68588 0.02582 0.0
O110 O 0.40455 0.77037 0.19522 0.0
O111 O 0.37181 0.76575 0.20506 0.0
O112 O 0.4388 0.74685 0.07852 0.0
O113 O 0.43151 0.81438 0.02695 0.0
O114 O 0.40904 0.69809 0.98785 0.0
O115 O 0.38774 0.71716 0.07917 0.0
O116 O 0.36919 0.75277 0.92207 0.0
O117 O 0.39855 0.78338 0.91571 0.0
C118 C 0.38883 0.76711 0.24107 0.0
C119 C 0.38391 0.7662 0.87756 0.0
Dy120 Dy 0.62148 0.26693 0.94156 0.0
C121 C 0.70008 0.28035 0.88334 0.0
C122 C 0.58337 0.26619 0.97743 0.0
Dy123 Dy 0.66401 0.26354 0.9346 0.0
O124 O 0.59306 0.2361 0.92772 0.0
O125 O 0.59459 0.2953 0.00796 0.0
O126 O 0.62019 0.33941 0.88744 0.0
O127 O 0.6419 0.31735 0.97257 0.0
C128 C 0.63515 0.35129 0.92749 0.0
C129 C 0.6511 0.18053 0.9606 0.0
O130 O 0.65968 0.28199 0.07344 0.0
O131 O 0.63062 0.25076 0.08044 0.0
O132 O 0.69566 0.24237 0.92055 0.0
O133 O 0.68501 0.30958 0.8786 0.0
O134 O 0.66679 0.19294 0.99374 0.0
O135 O 0.64374 0.21136 0.90912 0.0
O136 O 0.62376 0.26035 0.79698 0.0
O137 O 0.65562 0.27356 0.79583 0.0
C138 C 0.6455 0.26712 0.11913 0.0
C139 C 0.63943 0.26892 0.75521 0.0
Dy140 Dy 0.40584 0.26801 0.9258 0.0
C141 C 0.3279 0.27796 0.87255 0.0
C142 C 0.44361 0.28163 0.94932 0.0
Dy143 Dy 0.36512 0.26809 0.92643 0.0
O144 O 0.43718 0.2489 0.90356 0.0
O145 O 0.42937 0.30766 0.98187 0.0
O146 O 0.40988 0.19797 0.86399 0.0
O147 O 0.38736 0.21088 0.95137 0.0
C148 C 0.39548 0.18097 0.90002 0.0
C149 C 0.37664 0.35042 0.97427 0.0
O150 O 0.36854 0.24476 0.06331 0.0
O151 O 0.39957 0.26502 0.07014 0.0
O152 O 0.34039 0.30752 0.86174 0.0
O153 O 0.3356 0.2419 0.91519 0.0
O154 O 0.3632 0.32988 0.01101 0.0
O155 O 0.38376 0.32613 0.91095 0.0
O156 O 0.40022 0.28418 0.78453 0.0
O157 O 0.37303 0.24719 0.792 0.0
C158 C 0.384 0.25211 0.10837 0.0
C159 C 0.38652 0.26363 0.74567 0.0
H160 H 0.22767 0.21098 0.68355 0.0
H161 H 0.21957 0.35228 0.58484 0.0
H162 H 0.25039 0.36878 0.64892 0.0
H163 H 0.24892 0.23906 0.88649 0.0
H164 H 0.26564 0.18792 0.88873 0.0
H165 H 0.2432 0.18634 0.83343 0.0
H166 H 0.26081 0.15977 0.69183 0.0
H167 H 0.2833 0.1608 0.74688 0.0
H168 H 0.27879 0.19395 0.6487 0.0
H169 H 0.28129 0.37072 0.72517 0.0
H170 H 0.31177 0.35747 0.8024 0.0
H171 H 0.30062 0.21449 0.85396 0.0
C172 C 0.2325 0.24524 0.67473 0.0
C173 C 0.2213 0.28041 0.62887 0.0
C174 C 0.22798 0.32487 0.6193 0.0
C175 C 0.24541 0.33457 0.65577 0.0
C176 C 0.25597 0.29942 0.70168 0.0
C177 C 0.24989 0.25554 0.71091 0.0
C178 C 0.26405 0.22418 0.76375 0.0
C179 C 0.2549 0.20845 0.8481 0.0
C180 C 0.27223 0.18219 0.70953 0.0
C181 C 0.2791 0.2573 0.78249 0.0
C182 C 0.27399 0.30053 0.74622 0.0
C183 C 0.28545 0.33705 0.75371 0.0
C184 C 0.30275 0.32911 0.79796 0.0
C185 C 0.30857 0.28497 0.83439 0.0
C186 C 0.29646 0.24866 0.82741 0.0
H187 H 0.73441 0.22567 0.89155 0.0
H188 H 0.7057 0.34611 0.76277 0.0
H189 H 0.73343 0.35051 0.66671 0.0
H190 H 0.78176 0.2686 0.88575 0.0
H191 H 0.7939 0.21158 0.86847 0.0
H192 H 0.77172 0.21776 0.92717 0.0
H193 H 0.7577 0.16073 0.81972 0.0
H194 H 0.77974 0.15499 0.75986 0.0
H195 H 0.75773 0.17316 0.70501 0.0
H196 H 0.76321 0.33936 0.57855 0.0
H197 H 0.79549 0.32124 0.51862 0.0
H198 H 0.8064 0.21128 0.70907 0.0
C199 C 0.73411 0.25325 0.8438 0.0
C200 C 0.71788 0.28557 0.8346 0.0
C201 C 0.71799 0.32116 0.77137 0.0
C202 C 0.73363 0.32374 0.71597 0.0
C203 C 0.74923 0.29087 0.72528 0.0
C204 C 0.74983 0.25691 0.78875 0.0
C205 C 0.76874 0.22707 0.7865 0.0
C206 C 0.77967 0.23154 0.87205 0.0
C207 C 0.76579 0.17596 0.76658 0.0
C208 C 0.77855 0.24938 0.71151 0.0
C209 C 0.76687 0.28567 0.67644 0.0
C210 C 0.77255 0.31125 0.60587 0.0
C211 C 0.79087 0.30048 0.57184 0.0
C212 C 0.80344 0.26486 0.60902 0.0
C213 C 0.79706 0.23856 0.67905 0.0
H214 H 0.30007 0.81479 0.18726 0.0
H215 H 0.31215 0.67113 0.10534 0.0
H216 H 0.28205 0.65158 0.17246 0.0
H217 H 0.2789 0.79187 0.39257 0.0
H218 H 0.2608 0.8401 0.38666 0.0
H219 H 0.28321 0.8433 0.33192 0.0
H220 H 0.26558 0.86033 0.18631 0.0
H221 H 0.2431 0.85769 0.24076 0.0
H222 H 0.24897 0.82094 0.14802 0.0
H223 H 0.25159 0.64675 0.25374 0.0
H224 H 0.22087 0.65803 0.33037 0.0
H225 H 0.22717 0.80578 0.35493 0.0
C226 C 0.29628 0.77931 0.18294 0.0
C227 C 0.30844 0.74438 0.14107 0.0
C228 C 0.30302 0.6984 0.1367 0.0
C229 C 0.286 0.68695 0.17505 0.0
C230 C 0.27445 0.72199 0.21688 0.0
C231 C 0.27919 0.76739 0.22005 0.0
C232 C 0.26399 0.79852 0.2676 0.0
C233 C 0.27222 0.81969 0.34955 0.0
C234 C 0.25487 0.83662 0.20704 0.0
C235 C 0.24999 0.76348 0.29088 0.0
C236 C 0.25648 0.71948 0.26171 0.0
C237 C 0.24632 0.68108 0.27637 0.0
C238 C 0.22889 0.68785 0.32039 0.0
C239 C 0.22159 0.73276 0.34869 0.0
C240 C 0.2324 0.77104 0.33425 0.0
H241 H 0.72824 0.8086 0.17238 0.0
H242 H 0.72456 0.66059 0.13389 0.0
H243 H 0.75513 0.64346 0.20977 0.0
H244 H 0.77983 0.80437 0.13922 0.0
H245 H 0.78296 0.84822 0.22019 0.0
H246 H 0.76082 0.84891 0.16167 0.0
H247 H 0.74261 0.84741 0.30759 0.0
H248 H 0.76472 0.84605 0.36651 0.0
H249 H 0.74889 0.8013 0.38413 0.0
H250 H 0.78525 0.64164 0.29695 0.0
H251 H 0.81492 0.65618 0.37425 0.0
H252 H 0.80017 0.80502 0.35129 0.0
C253 C 0.73403 0.77269 0.17904 0.0
C254 C 0.72401 0.73593 0.14718 0.0
C255 C 0.73199 0.68935 0.15746 0.0
C256 C 0.74933 0.67919 0.20093 0.0
C257 C 0.75869 0.71601 0.2332 0.0
C258 C 0.75153 0.76187 0.22159 0.0
C259 C 0.76472 0.79479 0.26146 0.0
C260 C 0.77255 0.8259 0.19146 0.0
C261 C 0.75463 0.82411 0.33424 0.0
C262 C 0.78026 0.76025 0.29766 0.0
C263 C 0.77639 0.71496 0.28139 0.0
C264 C 0.78851 0.67698 0.30961 0.0
C265 C 0.80526 0.68551 0.35391 0.0
C266 C 0.80981 0.73162 0.36874 0.0
C267 C 0.79702 0.76936 0.34091 0.0
H268 H 0.15118 0.92077 0.32745 0.0
H269 H 0.13694 0.87235 0.58365 0.0
H270 H 0.13671 0.95251 0.64073 0.0
H271 H 0.18367 1.0034 0.40642 0.0
H272 H 0.17718 0.04547 0.32262 0.0
H273 H 0.17582 0.98437 0.30192 0.0
H274 H 0.14039 1.00144 0.25835 0.0
H275 H 0.14156 0.0625 0.28018 0.0
H276 H 0.12393 0.03124 0.3338 0.0
H277 H 0.13553 0.0389 0.66725 0.0
H278 H 0.13929 0.12354 0.66775 0.0
H279 H 0.15756 0.11472 0.39899 0.0
C280 C 0.14824 0.92719 0.39567 0.0
C281 C 0.14412 0.89065 0.45135 0.0
C282 C 0.14032 0.89999 0.54028 0.0
C283 C 0.13999 0.9454 0.57309 0.0
C284 C 0.14385 0.98094 0.51644 0.0
C285 C 0.14839 0.97224 0.43014 0.0
C286 C 0.15292 0.01641 0.3844 0.0
C287 C 0.17363 1.01215 0.35196 0.0
C288 C 0.13886 0.0286 0.30977 0.0
C289 C 0.15002 0.05123 0.45816 0.0
C290 C 0.14441 0.03023 0.53331 0.0
C291 C 0.14015 0.05566 0.60913 0.0
C292 C 0.14219 0.10365 0.60874 0.0
C293 C 0.14883 0.12524 0.53368 0.0
C294 C 0.1526 0.09877 0.4574 0.0
H295 H 0.85914 0.44019 0.57657 0.0
H296 H 0.91153 0.3671 0.48204 0.0
H297 H 0.92288 0.44252 0.43739 0.0
H298 H 0.85325 0.52541 0.41181 0.0
H299 H 0.84447 0.57225 0.48287 0.0
H300 H 0.84081 0.51302 0.51015 0.0
H301 H 0.8573 0.52199 0.65879 0.0
H302 H 0.86079 0.58148 0.6325 0.0
H303 H 0.88086 0.54145 0.66222 0.0
H304 H 0.92718 0.52602 0.39303 0.0
H305 H 0.92605 0.61091 0.36869 0.0
H306 H 0.87144 0.62981 0.49964 0.0
C307 C 0.87312 0.44013 0.5475 0.0
C308 C 0.88451 0.39789 0.53274 0.0
C309 C 0.90269 0.39912 0.49452 0.0
C310 C 0.90916 0.44177 0.46851 0.0
C311 C 0.89737 0.4828 0.48237 0.0
C312 C 0.87988 0.48234 0.5225 0.0
C313 C 0.86998 0.53116 0.53079 0.0
C314 C 0.85101 0.5357 0.48093 0.0
C315 C 0.86707 0.54482 0.62678 0.0
C316 C 0.8845 0.5593 0.48795 0.0
C317 C 0.90013 0.53073 0.45975 0.0
C318 C 0.91511 0.54865 0.41578 0.0
C319 C 0.91429 0.59695 0.40186 0.0
C320 C 0.8987 0.62704 0.43264 0.0
C321 C 0.88357 0.60773 0.47569 0.0
H322 H 0.89464 0.90527 0.40837 0.0
H323 H 0.85238 0.8941 0.61053 0.0
H324 H 0.85071 0.97847 0.63479 0.0
H325 H 0.91924 0.99454 0.51796 0.0
H326 H 0.92398 0.02502 0.41933 0.0
H327 H 0.92186 0.96325 0.4166 0.0
H328 H 0.89551 0.97607 0.29965 0.0
H329 H 0.89742 0.03795 0.30277 0.0
H330 H 0.87474 0.01556 0.32155 0.0
H331 H 0.85276 0.06435 0.63683 0.0
H332 H 0.86083 0.14582 0.62394 0.0
H333 H 0.90208 0.10323 0.42358 0.0
C334 C 0.88513 0.92067 0.45786 0.0
C335 C 0.87353 0.8929 0.50694 0.0
C336 C 0.86132 0.91445 0.57146 0.0
C337 C 0.86021 0.96254 0.58584 0.0
C338 C 0.87149 0.9891 0.53569 0.0
C339 C 0.88389 0.96908 0.47366 0.0
C340 C 0.89471 1.00604 0.43056 0.0
C341 C 0.91622 0.99665 0.44713 0.0
C342 C 0.89033 1.00907 0.33283 0.0
C343 C 0.8864 0.04955 0.47809 0.0
C344 C 0.87292 0.03895 0.53802 0.0
C345 C 0.86332 0.07316 0.59017 0.0
C346 C 0.86791 0.11938 0.58222 0.0
C347 C 0.88204 0.13091 0.52292 0.0
C348 C 0.89116 0.09551 0.46943 0.0
H349 H 0.14536 0.61528 0.59282 0.0
H350 H 0.12998 0.6231 0.32047 0.0
H351 H 0.1243 0.53941 0.32263 0.0
H352 H 0.17048 0.5069 0.59 0.0
H353 H 0.16226 0.48752 0.69346 0.0
H354 H 0.16309 0.54874 0.67325 0.0
H355 H 0.12728 0.56428 0.71061 0.0
H356 H 0.12638 0.50316 0.7328 0.0
H357 H 0.11021 0.53195 0.65516 0.0
H358 H 0.12518 0.45282 0.35018 0.0
H359 H 0.12749 0.37201 0.40563 0.0
H360 H 0.14 0.42169 0.66321 0.0
C361 C 0.14029 0.59954 0.53429 0.0
C362 C 0.13803 0.62529 0.45647 0.0
C363 C 0.13154 0.60389 0.38084 0.0
C364 C 0.12843 0.5564 0.38149 0.0
C365 C 0.13149 0.53144 0.45874 0.0
C366 C 0.13678 0.55261 0.53437 0.0
C367 C 0.13955 0.51796 0.60832 0.0
C368 C 0.16006 0.51513 0.64326 0.0
C369 C 0.12498 0.53006 0.68102 0.0
C370 C 0.13562 0.47352 0.56194 0.0
C371 C 0.13112 0.48202 0.47553 0.0
C372 C 0.1283 0.44596 0.41801 0.0
C373 C 0.1298 0.40022 0.44986 0.0
C374 C 0.13387 0.391 0.53854 0.0
C375 C 0.13673 0.42808 0.59532 0.0
H376 H 0.6465 0.62319 0.90711 0.0
H377 H 0.63308 0.62983 0.18166 0.0
H378 H 0.62709 0.54637 0.1789 0.0
H379 H 0.61049 0.54034 0.8491 0.0
H380 H 0.62601 0.51193 0.76837 0.0
H381 H 0.62707 0.57296 0.79125 0.0
H382 H 0.66317 0.55729 0.82209 0.0
H383 H 0.6622 0.49613 0.80144 0.0
H384 H 0.67127 0.5152 0.90361 0.0
H385 H 0.62799 0.46023 0.15044 0.0
H386 H 0.63002 0.37965 0.09396 0.0
H387 H 0.64031 0.43019 0.83479 0.0
C388 C 0.64175 0.60725 0.96596 0.0
C389 C 0.64017 0.63246 0.04459 0.0
C390 C 0.6341 0.61093 0.12074 0.0
C391 C 0.63082 0.5636 0.11974 0.0
C392 C 0.63325 0.53908 0.04163 0.0
C393 C 0.63802 0.56052 0.96554 0.0
C394 C 0.6402 0.52624 0.89072 0.0
C395 C 0.62504 0.5386 0.82073 0.0
C396 C 0.66041 0.52358 0.85226 0.0
C397 C 0.63666 0.48165 0.93721 0.0
C398 C 0.63279 0.48982 0.02435 0.0
C399 C 0.63056 0.4536 0.08207 0.0
C400 C 0.63193 0.408 0.04961 0.0
C401 C 0.63528 0.39914 0.9602 0.0
C402 C 0.6376 0.43636 0.90326 0.0
H403 H 0.35799 0.93895 0.05798 0.0
H404 H 0.40901 0.87037 0.94184 0.0
H405 H 0.41903 0.94664 0.89716 0.0
H406 H 0.34907 0.02804 0.89848 0.0
H407 H 0.34132 0.07349 0.97441 0.0
H408 H 0.33825 0.01368 -0.00014 0.0
H409 H 0.35696 0.02062 0.14325 0.0
H410 H 0.35994 0.08061 0.11865 0.0
H411 H 0.38048 0.04036 0.14012 0.0
H412 H 0.42235 0.02912 0.85599 0.0
H413 H 0.42104 0.11383 0.83489 0.0
H414 H 0.36872 0.132 0.98461 0.0
C415 C 0.37139 0.94028 0.02417 0.0
C416 C 0.38302 0.89888 0.00494 0.0
C417 C 0.40029 0.90166 0.95977 0.0
C418 C 0.40594 0.94485 0.93314 0.0
C419 C 0.39418 0.98506 0.95281 0.0
C420 C 0.37741 0.98337 0.99848 0.0
C421 C 0.36759 0.03209 0.01208 0.0
C422 C 0.34789 0.0371 0.96861 0.0
C423 C 0.36617 0.04412 0.10931 0.0
C424 C 0.38136 0.06133 0.96594 0.0
C425 C 0.39646 0.03322 0.93152 0.0
C426 C 0.41073 0.05151 0.88354 0.0
C427 C 0.40979 0.09982 0.87169 0.0
C428 C 0.39486 0.12977 0.90864 0.0
C429 C 0.38036 0.11008 0.95597 0.0
H430 H 0.39756 0.41494 0.88686 0.0
H431 H 0.36034 0.39908 0.10763 0.0
H432 H 0.36005 0.48216 0.14006 0.0
H433 H 0.4255 0.50046 0.99402 0.0
H434 H 0.42816 0.534 0.8968 0.0
H435 H 0.4257 0.47246 0.88923 0.0
H436 H 0.39694 0.48935 0.78598 0.0
H437 H 0.39919 0.55096 0.79398 0.0
H438 H 0.37692 0.52835 0.82066 0.0
H439 H 0.36182 0.567 0.14651 0.0
H440 H 0.36905 0.64893 0.13607 0.0
H441 H 0.40645 0.61317 0.91754 0.0
C442 C 0.38952 0.42903 0.94228 0.0
C443 C 0.37879 0.40026 0.99391 0.0
C444 C 0.36851 0.42014 0.06621 0.0
C445 C 0.36821 0.46753 0.08544 0.0
C446 C 0.37844 0.49517 0.03265 0.0
C447 C 0.3892 0.47687 0.96342 0.0
C448 C 0.39919 0.51508 0.91917 0.0
C449 C 0.42093 0.50489 0.92519 0.0
C450 C 0.39267 0.52129 0.82431 0.0
C451 C 0.39219 0.55724 0.97412 0.0
C452 C 0.38008 0.54476 0.03862 0.0
C453 C 0.37143 0.57727 0.09676 0.0
C454 C 0.37554 0.62379 0.09015 0.0
C455 C 0.38836 0.63741 0.02648 0.0
C456 C 0.39664 0.60368 0.96716 0.0
H457 H 0.65283 0.12398 0.10124 0.0
H458 H 0.6397 0.12761 0.8263 0.0
H459 H 0.63716 0.04237 0.8281 0.0
H460 H 0.68066 0.01678 0.1074 0.0
H461 H 0.67142 0.99758 0.20903 0.0
H462 H 0.67157 0.05889 0.18726 0.0
H463 H 0.63524 0.07135 0.2149 0.0
H464 H 0.63502 1.01022 0.23847 0.0
H465 H 0.61951 0.03677 0.15588 0.0
H466 H 0.63986 0.95614 0.85722 0.0
H467 H 0.64113 0.87631 0.91583 0.0
H468 H 0.64916 0.92948 0.17557 0.0
C469 C 0.64909 0.10678 0.04188 0.0
C470 C 0.64647 0.13189 0.96353 0.0
C471 C 0.64158 0.10874 0.88693 0.0
C472 C 0.64027 0.06042 0.88734 0.0
C473 C 0.64346 0.03633 0.96534 0.0
C474 C 0.6472 0.05891 0.04176 0.0
C475 C 0.64951 0.02512 0.11724 0.0
C476 C 0.66948 0.02458 0.15757 0.0
C477 C 0.63389 0.03654 0.18565 0.0
C478 C 0.64692 0.97972 0.07102 0.0
C479 C 0.64377 0.98696 0.98317 0.0
C480 C 0.642 0.95016 0.92603 0.0
C481 C 0.64294 0.90493 0.95983 0.0
C482 C 0.64529 0.89694 0.05013 0.0
C483 C 0.64736 0.9348 0.10634 0.0
H484 H 0.17147 0.25124 0.2453 0.0
H485 H 0.11104 0.28132 0.29732 0.0
H486 H 0.10488 0.29233 0.14202 0.0
H487 H 0.17371 0.33303 0.06057 0.0
H488 H 0.18999 0.294 0.99886 0.0
H489 H 0.19044 0.29224 0.11588 0.0
H490 H 0.18564 0.20428 0.11193 0.0
H491 H 0.1852 0.2058 0.99505 0.0
H492 H 0.1656 0.18492 0.05393 0.0
H493 H 0.10421 0.29507 0.98542 0.0
H494 H 0.10903 0.28789 0.82817 0.0
H495 H 0.16979 0.25595 0.86819 0.0
C496 C 0.15704 0.2607 0.2236 0.0
C497 C 0.14172 0.26514 0.28325 0.0
C498 C 0.12297 0.27709 0.25277 0.0
C499 C 0.11931 0.28385 0.16466 0.0
C500 C 0.13453 0.27852 0.10733 0.0
C501 C 0.15303 0.26716 0.13471 0.0
C502 C 0.1664 0.26076 0.05723 0.0
C503 C 0.181 0.29719 0.05822 0.0
C504 C 0.17629 0.21098 0.05439 0.0
C505 C 0.15236 0.26938 0.98277 0.0
C506 C 0.13412 0.28001 0.01408 0.0
C507 C 0.11842 0.28718 0.95972 0.0
C508 C 0.12131 0.28276 0.8705 0.0
C509 C 0.13976 0.27128 0.83618 0.0
C510 C 0.15558 0.26529 0.8929 0.0
H511 H 0.91027 0.24656 0.24459 0.0
H512 H 0.85247 0.30647 0.29145 0.0
H513 H 0.84825 0.32159 0.13514 0.0
H514 H 0.92131 0.32294 0.0633 0.0
H515 H 0.93414 0.27688 0.00205 0.0
H516 H 0.93365 0.27418 0.11899 0.0
H517 H 0.92043 0.19341 0.11121 0.0
H518 H 0.92098 0.19577 0.99439 0.0
H519 H 0.89909 0.18687 0.04973 0.0
H520 H 0.84948 0.32889 0.97776 0.0
H521 H 0.85465 0.321 0.82118 0.0
H522 H 0.9112 0.25228 0.86683 0.0
C523 C 0.89685 0.2633 0.22157 0.0
C524 C 0.88168 0.27559 0.27998 0.0
C525 C 0.8642 0.29663 0.24776 0.0
C526 C 0.86172 0.30569 0.15919 0.0
C527 C 0.87679 0.29303 0.10318 0.0
C528 C 0.89395 0.27177 0.13231 0.0
C529 C 0.90714 0.25848 0.0561 0.0
C530 C 0.92513 0.28469 0.06039 0.0
C531 C 0.9122 0.20548 0.05267 0.0
C532 C 0.89455 0.27517 0.97998 0.0
C533 C 0.87726 0.29566 0.00966 0.0
C534 C 0.86293 0.31291 0.95353 0.0
C535 C 0.86603 0.30805 0.86443 0.0
C536 C 0.88328 0.28565 0.83134 0.0
C537 C 0.89794 0.26988 0.89005 0.0
H538 H 0.16411 0.78169 0.11752 0.0
H539 H 0.11693 0.69714 0.15742 0.0
H540 H 0.11466 0.68509 0.00017 0.0
H541 H 0.14504 0.83947 0.92943 0.0
H542 H 0.16744 0.84073 0.87354 0.0
H543 H 0.16685 0.83977 0.99042 0.0
H544 H 0.19076 0.76606 0.99104 0.0
H545 H 0.19145 0.76682 0.87401 0.0
H546 H 0.18537 0.71543 0.93026 0.0
H547 H 0.11572 0.68532 0.8425 0.0
H548 H 0.11954 0.69938 0.68681 0.0
H549 H 0.1659 0.78443 0.74131 0.0
C550 C 0.15351 0.76015 0.0929 0.0
C551 C 0.14069 0.74035 0.14963 0.0
C552 C 0.12681 0.71292 0.11523 0.0
C553 C 0.12548 0.70557 0.02598 0.0
C554 C 0.13808 0.72595 0.97173 0.0
C555 C 0.15183 0.75275 0.00319 0.0
C556 C 0.16271 0.77282 0.929 0.0
C557 C 0.16036 0.82638 0.93073 0.0
C558 C 0.18383 0.75416 0.93123 0.0
C559 C 0.15261 0.75374 0.85138 0.0
C560 C 0.1386 0.72646 0.87835 0.0
C561 C 0.12669 0.70638 0.8203 0.0
C562 C 0.12891 0.71488 0.732 0.0
C563 C 0.14292 0.74326 0.70219 0.0
C564 C 0.15519 0.76233 0.76251 0.0
H565 H 0.90227 0.80053 0.75801 0.0
H566 H 0.86811 0.68433 0.71856 0.0
H567 H 0.86781 0.67056 0.87597 0.0
H568 H 0.93039 0.75042 0.94219 0.0
H569 H 0.93013 0.80508 -0.00069 0.0
H570 H 0.92913 0.8043 0.88234 0.0
H571 H 0.89806 0.8596 0.88609 0.0
H572 H 0.89899 0.86064 0.00293 0.0
H573 H 0.87808 0.84354 0.94866 0.0
H574 H 0.8697 0.67053 0.03366 0.0
H575 H 0.8722 0.68633 0.1892 0.0
H576 H 0.90471 0.80387 0.13421 0.0
C577 C 0.89494 0.77191 0.78275 0.0
C578 C 0.88522 0.74342 0.72619 0.0
C579 C 0.87553 0.70674 0.76071 0.0
C580 C 0.87539 0.69841 0.84997 0.0
C581 C 0.88493 0.72719 0.90402 0.0
C582 C 0.89446 0.76337 0.87239 0.0
C583 C 0.90248 0.79064 0.94634 0.0
C584 C 0.92433 0.7874 0.94228 0.0
C585 C 0.89388 0.84162 0.94596 0.0
C586 C 0.89568 0.76441 0.0242 0.0
C587 C 0.88579 0.72768 0.9974 0.0
C588 C 0.87745 0.69904 0.05568 0.0
C589 C 0.8789 0.70855 0.14401 0.0
C590 C 0.88854 0.74656 0.17386 0.0
C591 C 0.89739 0.7744 0.11319 0.0
H592 H 0.66614 0.79113 0.38429 0.0
H593 H 0.61912 0.70643 0.34184 0.0
H594 H 0.61715 0.6924 0.49863 0.0
H595 H 0.68786 0.72383 0.56864 0.0
H596 H 0.6937 0.77485 0.627 0.0
H597 H 0.69291 0.77536 0.50998 0.0
H598 H 0.6686 0.8483 0.51391 0.0
H599 H 0.66933 0.84805 0.63079 0.0
H600 H 0.6469 0.84664 0.57526 0.0
H601 H 0.61876 0.68983 0.65598 0.0
H602 H 0.62262 0.70233 0.81206 0.0
H603 H 0.66806 0.79068 0.76065 0.0
C604 C 0.65563 0.76921 0.40834 0.0
C605 C 0.64277 0.74983 0.35115 0.0
C606 C 0.629 0.72189 0.38461 0.0
C607 C 0.62785 0.7134 0.47349 0.0
C608 C 0.64051 0.73329 0.52831 0.0
C609 C 0.65408 0.76085 0.49776 0.0
C610 C 0.66492 0.7805 0.57263 0.0
C611 C 0.68611 0.76255 0.56934 0.0
C612 C 0.66227 0.83405 0.57316 0.0
C613 C 0.65502 0.76023 0.64956 0.0
C614 C 0.64119 0.73264 0.62163 0.0
C615 C 0.62956 0.71122 0.67893 0.0
C616 C 0.63182 0.71883 0.76753 0.0
C617 C 0.64553 0.74782 0.79839 0.0
C618 C 0.65757 0.76813 0.73872 0.0
H619 H 0.35728 0.77921 0.74377 0.0
H620 H 0.41616 0.7318 0.80063 0.0
H621 H 0.42299 0.72365 0.64498 0.0
H622 H 0.35311 0.70345 0.548 0.0
H623 H 0.33863 0.74777 0.48959 0.0
H624 H 0.33749 0.74556 0.60645 0.0
H625 H 0.34554 0.8313 0.61439 0.0
H626 H 0.3469 0.8336 0.49773 0.0
H627 H 0.36686 0.84768 0.56263 0.0
H628 H 0.42489 0.72833 0.48757 0.0
H629 H 0.4211 0.73953 0.33035 0.0
H630 H 0.36093 0.78229 0.36728 0.0
C631 C 0.37143 0.76606 0.72298 0.0
C632 C 0.38623 0.75626 0.78401 0.0
C633 C 0.40467 0.73987 0.75481 0.0
C634 C 0.40871 0.73496 0.66653 0.0
C635 C 0.39412 0.74638 0.60772 0.0
C636 C 0.37579 0.76105 0.63396 0.0
C637 C 0.36319 0.77306 0.55552 0.0
C638 C 0.34715 0.74051 0.54955 0.0
C639 C 0.35515 0.82447 0.55774 0.0
C640 C 0.37749 0.76384 0.48215 0.0
C641 C 0.3952 0.74842 0.51441 0.0
C642 C 0.41104 0.73977 0.46105 0.0
C643 C 0.40876 0.74661 0.37177 0.0
C644 C 0.39073 0.76174 0.33631 0.0
C645 C 0.37486 0.77031 0.39242 0.0
H646 H 0.62557 0.22311 0.24531 0.0
H647 H 0.66525 0.32807 0.20731 0.0
H648 H 0.66533 0.34318 0.364 0.0
H649 H 0.59855 0.28205 0.42365 0.0
H650 H 0.59601 0.22917 0.48311 0.0
H651 H 0.59787 0.22766 0.36636 0.0
H652 H 0.62662 0.16526 0.3768 0.0
H653 H 0.62476 0.16636 0.49344 0.0
H654 H 0.64691 0.17686 0.44186 0.0
H655 H 0.66238 0.3463 0.52079 0.0
H656 H 0.65829 0.33356 0.67671 0.0
H657 H 0.62082 0.22569 0.62198 0.0
C658 C 0.63416 0.2494 0.27025 0.0
C659 C 0.64544 0.27436 0.21406 0.0
C660 C 0.65665 0.30819 0.24896 0.0
C661 C 0.65667 0.31737 0.33792 0.0
C662 C 0.64549 0.2923 0.39151 0.0
C663 C 0.63455 0.25873 0.3598 0.0
C664 C 0.62476 0.23526 0.43367 0.0
C665 C 0.603 0.24407 0.42623 0.0
C666 C 0.63115 0.18283 0.4366 0.0
C667 C 0.63219 0.26061 0.51151 0.0
C668 C 0.64393 0.29369 0.48466 0.0
C669 C 0.65318 0.32068 0.54287 0.0
C670 C 0.65079 0.31304 0.63132 0.0
C671 C 0.63929 0.27859 0.66124 0.0
C672 C 0.62949 0.25262 0.60066 0.0
H673 H 0.40365 0.29664 0.2332 0.0
H674 H 0.36396 0.1917 0.19692 0.0
H675 H 0.36264 0.18044 0.35527 0.0
H676 H 0.42905 0.24291 0.42198 0.0
H677 H 0.43106 0.29772 0.47606 0.0
H678 H 0.43039 0.29521 0.35912 0.0
H679 H 0.40171 0.35802 0.35787 0.0
H680 H 0.40228 0.36073 0.47467 0.0
H681 H 0.3807 0.34863 0.41976 0.0
H682 H 0.36439 0.18189 0.51311 0.0
H683 H 0.36746 0.1982 0.66761 0.0
H684 H 0.4053 0.30506 0.60971 0.0
C685 C 0.39494 0.27083 0.25888 0.0
C686 C 0.38398 0.24473 0.20307 0.0
C687 C 0.37241 0.21203 0.23863 0.0
C688 C 0.37166 0.20523 0.32837 0.0
C689 C 0.38243 0.23172 0.38169 0.0
C690 C 0.39378 0.26409 0.34891 0.0
C691 C 0.40282 0.29002 0.42201 0.0
C692 C 0.42463 0.2809 0.41963 0.0
C693 C 0.39649 0.34246 0.41834 0.0
C694 C 0.39457 0.2674 0.50086 0.0
C695 C 0.38305 0.23354 0.47513 0.0
C696 C 0.37336 0.20825 0.53423 0.0
C697 C 0.37518 0.21812 0.62222 0.0
C698 C 0.38651 0.25334 0.6513 0.0
C699 C 0.39661 0.27788 0.58964 0.0
H700 H 0.05431 0.29674 0.49488 0.0
H701 H 0.06975 0.16109 0.6092 0.0
H702 H 0.0357 0.14944 0.6266 0.0
H703 H 1.01446 0.32906 0.63087 0.0
H704 H 1.00002 0.35749 0.5465 0.0
H705 H 0.02558 0.35485 0.53966 0.0
H706 H 0.02466 0.31567 0.38845 0.0
H707 H 0.99906 0.31855 0.39446 0.0
H708 H 1.01268 0.26344 0.37595 0.0
H709 H 1.00041 0.15416 0.63948 0.0
H710 H 0.96559 0.17204 0.63715 0.0
H711 H 0.97235 0.30381 0.51021 0.0
C712 C 0.05048 0.26441 0.52266 0.0
C713 C 0.06462 0.22972 0.55071 0.0
C714 C 0.05912 0.18797 0.58708 0.0
C715 C 0.03983 0.18112 0.59743 0.0
C716 C 0.02623 0.21624 0.57047 0.0
C717 C 0.03124 0.25685 0.53291 0.0
C718 C 1.0137 0.28902 0.50991 0.0
C719 C 1.01343 0.33535 0.55972 0.0
C720 C 1.01246 0.29713 0.41133 0.0
C721 C 0.99807 0.26031 0.54127 0.0
C722 C 1.00569 0.21857 0.5763 0.0
C723 C 0.99426 0.18655 0.6116 0.0
C724 C 0.9745 0.19713 0.61025 0.0
C725 C 0.96629 0.23924 0.57336 0.0
C726 C 0.97825 0.27131 0.53859 0.0
H727 H 0.97438 0.73017 0.51438 0.0
H728 H 0.95822 0.87081 0.42493 0.0
H729 H 0.99223 0.88461 0.41307 0.0
H730 H 0.01631 0.75696 0.64036 0.0
H731 H 0.02993 0.7034 0.61026 0.0
H732 H 1.00435 0.70566 0.6174 0.0
H733 H 1.00293 0.67574 0.4591 0.0
H734 H 0.02846 0.67364 0.45126 0.0
H735 H 1.01374 0.70688 0.37357 0.0
H736 H 0.02774 0.88156 0.40217 0.0
H737 H 0.06252 0.86303 0.39616 0.0
H738 H 0.05618 0.72411 0.4933 0.0
C739 C 0.97802 0.7641 0.49363 0.0
C740 C 0.96368 0.7996 0.47099 0.0
C741 C 0.96898 0.8433 0.443 0.0
C742 C 0.98826 0.85139 0.43602 0.0
C743 C 1.00206 0.81545 0.45747 0.0
C744 C 0.99722 0.77274 0.48619 0.0
C745 C 1.01487 0.7395 0.502 0.0
C746 C 0.01645 0.72557 0.59824 0.0
C747 C 1.015 0.6964 0.44295 0.0
C748 C 0.0304 0.76999 0.47651 0.0
C749 C 0.02264 0.8137 0.45132 0.0
C750 C 0.03397 0.84761 0.42241 0.0
C751 C 0.05373 0.83667 0.41905 0.0
C752 C 0.06207 0.7922 0.4445 0.0
C753 C 0.05022 0.75849 0.47401 0.0
H754 H 0.55842 0.7213 0.08154 0.0
H755 H 0.56452 0.86456 0.00933 0.0
H756 H 0.52959 0.88021 0.00195 0.0
H757 H 0.5176 0.70684 0.94223 0.0
H758 H 0.50632 0.67119 0.01922 0.0
H759 H 0.53187 0.67086 0.01759 0.0
H760 H 0.5316 0.69307 0.18067 0.0
H761 H 0.50605 0.69366 0.18271 0.0
H762 H 0.51724 0.74442 0.21676 0.0
H763 H 0.49412 0.88097 0.0036 0.0
H764 H 0.46021 0.8663 0.01253 0.0
H765 H 0.47659 0.72282 0.08462 0.0
C766 C 0.55235 0.75585 0.06381 0.0
C767 C 0.56416 0.79175 0.04589 0.0
C768 C 0.55574 0.83654 0.02308 0.0
C769 C 0.53591 0.84579 0.01881 0.0
C770 C 0.52464 0.80985 0.03729 0.0
C771 C 0.5325 0.7657 0.05903 0.0
C772 C 0.51706 0.73342 0.07583 0.0
C773 C 0.51829 0.6932 0.00978 0.0
C774 C 0.51805 0.71508 0.16958 0.0
C775 C 0.49934 0.76651 0.06127 0.0
C776 C 0.50408 0.81035 0.03868 0.0
C777 C 0.49023 0.84678 0.0212 0.0
C778 C 0.47101 0.83814 0.0265 0.0
C779 C 0.4658 0.79355 0.04952 0.0
C780 C 0.48018 0.75735 0.06736 0.0
H781 H 0.4742 0.23002 0.8779 0.0
H782 H 0.45902 0.34321 0.05786 0.0
H783 H 0.49318 0.34877 0.08906 0.0
H784 H 0.51383 0.17538 -0.0004 0.0
H785 H 0.52813 0.16036 0.90489 0.0
H786 H 0.50253 0.16481 0.89735 0.0
H787 H 0.50361 0.22502 0.77315 0.0
H788 H 0.5292 0.2205 0.77986 0.0
H789 H 0.51582 0.27655 0.79018 0.0
H790 H 0.52878 0.34199 0.1005 0.0
H791 H 0.56359 0.32672 0.08602 0.0
H792 H 0.55602 0.21812 0.8972 0.0
C793 C 0.47809 0.25601 0.92381 0.0
C794 C 0.46401 0.28624 0.96568 0.0
C795 C 0.46961 0.31984 0.0251 0.0
C796 C 0.48895 0.32309 0.04338 0.0
C797 C 0.50248 0.29255 0.0015 0.0
C798 C 0.49733 0.25984 0.9425 0.0
C799 C 0.51473 0.23191 0.90498 0.0
C800 C 0.5148 0.18004 0.92811 0.0
C801 C 0.5159 0.23894 0.80619 0.0
C802 C 0.53051 0.25412 0.95188 0.0
C803 C 0.52308 0.28882 0.00761 0.0
C804 C 0.53475 0.31488 0.05719 0.0
C805 C 0.55452 0.30586 0.04859 0.0
C806 C 0.5625 0.27114 0.99073 0.0
C807 C 0.55031 0.24457 0.9425 0.0
loop_
_geom_bond_atom_site_label_1
_geom_bond_atom_site_label_2
_geom_bond_distance
_geom_bond_site_symmetry_2
_ccdc_geom_bond_type
Dy0 O4 2.398 . S
Dy0 O5 2.491 . S
Dy0 O6 2.403 . S
Dy0 O7 2.664 . S
Dy0 O11 2.326 . S
Dy0 O15 2.310 . S
Dy0 O16 2.351 . S
C1 O12 1.185 . S
C1 O13 1.355 . S
C2 O4 1.185 . S
C2 O5 1.355 . S
Dy3 O7 2.310 . S
Dy3 O10 2.351 . S
Dy3 O12 2.398 . S
Dy3 O13 2.491 . S
Dy3 O14 2.403 . S
Dy3 O15 2.664 . S
Dy3 O17 2.326 . S
O4 Dy0 2.398 . S
O4 C2 1.185 . S
O5 Dy0 2.491 . S
O5 C2 1.355 . S
O6 Dy0 2.403 . S
O6 C8 1.254 . S
O7 Dy0 2.664 . S
O7 Dy3 2.310 . S
O7 C8 1.268 . S
C8 O6 1.254 . S
C8 O7 1.268 . S
C9 O14 1.254 . S
C9 O15 1.268 . S
O10 Dy3 2.351 . S
O10 C18 1.249 . S
O11 Dy0 2.326 . S
O11 C18 1.267 . S
O12 C1 1.185 . S
O12 Dy3 2.398 . S
O13 C1 1.355 . S
O13 Dy3 2.491 . S
O14 Dy3 2.403 . S
O14 C9 1.254 . S
O15 Dy0 2.310 . S
O15 Dy3 2.664 . S
O15 C9 1.268 . S
O16 Dy0 2.351 . S
O16 C19 1.249 . S
O17 Dy3 2.326 . S
O17 C19 1.267 . S
C18 O10 1.249 . S
C18 O11 1.267 . S
C19 O16 1.249 . S
C19 O17 1.267 . S
Dy20 O24 2.398 . S
Dy20 O25 2.491 . S
Dy20 O26 2.403 . S
Dy20 O27 2.664 . S
Dy20 O31 2.326 . S
Dy20 O35 2.310 . S
Dy20 O36 2.351 . S
C21 O32 1.185 . S
C21 O33 1.355 . S
C22 O24 1.185 . S
C22 O25 1.355 . S
Dy23 O27 2.310 . S
Dy23 O30 2.351 . S
Dy23 O32 2.398 . S
Dy23 O33 2.491 . S
Dy23 O34 2.403 . S
Dy23 O35 2.664 . S
Dy23 O37 2.326 . S
O24 Dy20 2.398 . S
O24 C22 1.185 . S
O25 Dy20 2.491 . S
O25 C22 1.355 . S
O26 Dy20 2.403 . S
O26 C28 1.254 . S
O27 Dy20 2.664 . S
O27 Dy23 2.310 . S
O27 C28 1.268 . S
C28 O26 1.254 . S
C28 O27 1.268 . S
C29 O34 1.254 . S
C29 O35 1.268 . S
O30 Dy23 2.351 . S
O30 C38 1.249 . S
O31 Dy20 2.326 . S
O31 C38 1.267 . S
O32 C21 1.185 . S
O32 Dy23 2.398 . S
O33 C21 1.355 . S
O33 Dy23 2.491 . S
O34 Dy23 2.403 . S
O34 C29 1.254 . S
O35 Dy20 2.310 . S
O35 Dy23 2.664 . S
O35 C29 1.268 . S
O36 Dy20 2.351 . S
O36 C39 1.249 . S
O37 Dy23 2.326 . S
O37 C39 1.267 . S
C38 O30 1.249 . S
C38 O31 1.267 . S
C39 O36 1.249 . S
C39 O37 1.267 . S
Dy40 O44 2.398 . S
Dy40 O45 2.491 . S
Dy40 O46 2.403 . S
Dy40 O47 2.664 . S
Dy40 O51 2.326 . S
Dy40 O55 2.310 . S
Dy40 O56 2.351 . S
C41 O52 1.185 . S
C41 O53 1.355 . S
C42 O44 1.185 . S
C42 O45 1.355 . S
Dy43 O47 2.310 . S
Dy43 O50 2.351 . S
Dy43 O52 2.398 . S
Dy43 O53 2.491 . S
Dy43 O54 2.403 . S
Dy43 O55 2.664 . S
Dy43 O57 2.326 . S
O44 Dy40 2.398 . S
O44 C42 1.185 . S
O45 Dy40 2.491 . S
O45 C42 1.355 . S
O46 Dy40 2.403 . S
O46 C48 1.254 . S
O47 Dy40 2.664 . S
O47 Dy43 2.310 . S
O47 C48 1.268 . S
C48 O46 1.254 . S
C48 O47 1.268 . S
C49 O54 1.254 . S
C49 O55 1.268 . S
O50 Dy43 2.351 . S
O50 C58 1.249 . S
O51 Dy40 2.326 . S
O51 C58 1.267 . S
O52 C41 1.185 . S
O52 Dy43 2.398 . S
O53 C41 1.355 . S
O53 Dy43 2.491 . S
O54 Dy43 2.403 . S
O54 C49 1.254 . S
O55 Dy40 2.310 . S
O55 Dy43 2.664 . S
O55 C49 1.268 . S
O56 Dy40 2.351 . S
O56 C59 1.249 . S
O57 Dy43 2.326 . S
O57 C59 1.267 . S
C58 O50 1.249 . S
C58 O51 1.267 . S
C59 O56 1.249 . S
C59 O57 1.267 . S
Dy60 O64 2.398 . S
Dy60 O65 2.491 . S
Dy60 O66 2.403 . S
Dy60 O67 2.664 . S
Dy60 O71 2.326 . S
Dy60 O75 2.310 . S
Dy60 O76 2.351 . S
C61 O72 1.185 . S
C61 O73 1.355 . S
C62 O64 1.185 . S
C62 O65 1.355 . S
Dy63 O67 2.310 . S
Dy63 O70 2.351 . S
Dy63 O72 2.398 . S
Dy63 O73 2.491 . S
Dy63 O74 2.403 . S
Dy63 O75 2.664 . S
Dy63 O77 2.326 . S
O64 Dy60 2.398 . S
O64 C62 1.185 . S
O65 Dy60 2.491 . S
O65 C62 1.355 . S
O66 Dy60 2.403 . S
O66 C68 1.254 . S
O67 Dy60 2.664 . S
O67 Dy63 2.310 . S
O67 C68 1.268 . S
C68 O66 1.254 . S
C68 O67 1.268 . S
C69 O74 1.254 . S
C69 O75 1.268 . S
O70 Dy63 2.351 . S
O70 C78 1.249 . S
O71 Dy60 2.326 . S
O71 C78 1.267 . S
O72 C61 1.185 . S
O72 Dy63 2.398 . S
O73 C61 1.355 . S
O73 Dy63 2.491 . S
O74 Dy63 2.403 . S
O74 C69 1.254 . S
O75 Dy60 2.310 . S
O75 Dy63 2.664 . S
O75 C69 1.268 . S
O76 Dy60 2.351 . S
O76 C79 1.249 . S
O77 Dy63 2.326 . S
O77 C79 1.267 . S
C78 O70 1.249 . S
C78 O71 1.267 . S
C79 O76 1.249 . S
C79 O77 1.267 . S
Dy80 O84 2.398 1_556 S
Dy80 O85 2.491 1_556 S
Dy80 O86 2.403 . S
Dy80 O87 2.664 . S
Dy80 O91 2.326 1_556 S
Dy80 O95 2.310 1_556 S
Dy80 O96 2.351 . S
C81 O92 1.185 . S
C81 O93 1.355 . S
C82 O84 1.185 . S
C82 O85 1.355 . S
Dy83 O87 2.310 1_554 S
Dy83 O90 2.351 . S
Dy83 O92 2.398 1_554 S
Dy83 O93 2.491 1_554 S
Dy83 O94 2.403 . S
Dy83 O95 2.664 . S
Dy83 O97 2.326 1_554 S
O84 Dy80 2.398 1_554 S
O84 C82 1.185 . S
O85 Dy80 2.491 1_554 S
O85 C82 1.355 . S
O86 Dy80 2.403 . S
O86 C88 1.254 . S
O87 Dy80 2.664 . S
O87 Dy83 2.310 1_556 S
O87 C88 1.268 . S
C88 O86 1.254 . S
C88 O87 1.268 . S
C89 O94 1.254 . S
C89 O95 1.268 . S
O90 Dy83 2.351 . S
O90 C98 1.249 . S
O91 Dy80 2.326 1_554 S
O91 C98 1.267 . S
O92 C81 1.185 . S
O92 Dy83 2.398 1_556 S
O93 C81 1.355 . S
O93 Dy83 2.491 1_556 S
O94 Dy83 2.403 . S
O94 C89 1.254 . S
O95 Dy80 2.310 1_554 S
O95 Dy83 2.664 . S
O95 C89 1.268 . S
O96 Dy80 2.351 . S
O96 C99 1.249 . S
O97 Dy83 2.326 1_556 S
O97 C99 1.267 . S
C98 O90 1.249 . S
C98 O91 1.267 . S
C99 O96 1.249 . S
C99 O97 1.267 . S
Dy100 O104 2.398 1_556 S
Dy100 O105 2.491 1_556 S
Dy100 O106 2.403 . S
Dy100 O107 2.664 . S
Dy100 O111 2.326 1_556 S
Dy100 O115 2.310 1_556 S
Dy100 O116 2.351 . S
C101 O112 1.185 . S
C101 O113 1.355 . S
C102 O104 1.185 . S
C102 O105 1.355 . S
Dy103 O107 2.310 1_554 S
Dy103 O110 2.351 . S
Dy103 O112 2.398 1_554 S
Dy103 O113 2.491 1_554 S
Dy103 O114 2.403 . S
Dy103 O115 2.664 . S
Dy103 O117 2.326 1_554 S
O104 Dy100 2.398 1_554 S
O104 C102 1.185 . S
O105 Dy100 2.491 1_554 S
O105 C102 1.355 . S
O106 Dy100 2.403 . S
O106 C108 1.254 . S
O107 Dy100 2.664 . S
O107 Dy103 2.310 1_556 S
O107 C108 1.268 . S
C108 O106 1.254 . S
C108 O107 1.268 . S
C109 O114 1.254 . S
C109 O115 1.268 . S
O110 Dy103 2.351 . S
O110 C118 1.249 . S
O111 Dy100 2.326 1_554 S
O111 C118 1.267 . S
O112 C101 1.185 . S
O112 Dy103 2.398 1_556 S
O113 C101 1.355 . S
O113 Dy103 2.491 1_556 S
O114 Dy103 2.403 . S
O114 C109 1.254 . S
O115 Dy100 2.310 1_554 S
O115 Dy103 2.664 . S
O115 C109 1.268 . S
O116 Dy100 2.351 . S
O116 C119 1.249 . S
O117 Dy103 2.326 1_556 S
O117 C119 1.267 . S
C118 O110 1.249 . S
C118 O111 1.267 . S
C119 O116 1.249 . S
C119 O117 1.267 . S
Dy120 O124 2.398 1_556 S
Dy120 O125 2.491 1_556 S
Dy120 O126 2.403 . S
Dy120 O127 2.664 . S
Dy120 O131 2.326 1_556 S
Dy120 O135 2.310 1_556 S
Dy120 O136 2.351 . S
C121 O132 1.185 . S
C121 O133 1.355 . S
C122 O124 1.185 . S
C122 O125 1.355 . S
Dy123 O127 2.310 1_554 S
Dy123 O130 2.351 . S
Dy123 O132 2.398 1_554 S
Dy123 O133 2.491 1_554 S
Dy123 O134 2.403 . S
Dy123 O135 2.664 . S
Dy123 O137 2.326 1_554 S
O124 Dy120 2.398 1_554 S
O124 C122 1.185 . S
O125 Dy120 2.491 1_554 S
O125 C122 1.355 . S
O126 Dy120 2.403 . S
O126 C128 1.254 . S
O127 Dy120 2.664 . S
O127 Dy123 2.310 1_556 S
O127 C128 1.268 . S
C128 O126 1.254 . S
C128 O127 1.268 . S
C129 O134 1.254 . S
C129 O135 1.268 . S
O130 Dy123 2.351 . S
O130 C138 1.249 . S
O131 Dy120 2.326 1_554 S
O131 C138 1.267 . S
O132 C121 1.185 . S
O132 Dy123 2.398 1_556 S
O133 C121 1.355 . S
O133 Dy123 2.491 1_556 S
O134 Dy123 2.403 . S
O134 C129 1.254 . S
O135 Dy120 2.310 1_554 S
O135 Dy123 2.664 . S
O135 C129 1.268 . S
O136 Dy120 2.351 . S
O136 C139 1.249 . S
O137 Dy123 2.326 1_556 S
O137 C139 1.267 . S
C138 O130 1.249 . S
C138 O131 1.267 . S
C139 O136 1.249 . S
C139 O137 1.267 . S
Dy140 O144 2.398 1_556 S
Dy140 O145 2.491 1_556 S
Dy140 O146 2.403 . S
Dy140 O147 2.664 . S
Dy140 O151 2.326 1_556 S
Dy140 O155 2.310 1_556 S
Dy140 O156 2.351 . S
C141 O152 1.185 . S
C141 O153 1.355 . S
C142 O144 1.185 . S
C142 O145 1.355 . S
Dy143 O147 2.310 1_554 S
Dy143 O150 2.351 . S
Dy143 O152 2.398 1_554 S
Dy143 O153 2.491 1_554 S
Dy143 O154 2.403 . S
Dy143 O155 2.664 . S
Dy143 O157 2.326 1_554 S
O144 Dy140 2.398 1_554 S
O144 C142 1.185 . S
O145 Dy140 2.491 1_554 S
O145 C142 1.355 . S
O146 Dy140 2.403 . S
O146 C148 1.254 . S
O147 Dy140 2.664 . S
O147 Dy143 2.310 1_556 S
O147 C148 1.268 . S
C148 O146 1.254 . S
C148 O147 1.268 . S
C149 O154 1.254 . S
C149 O155 1.268 . S
O150 Dy143 2.351 . S
O150 C158 1.249 . S
O151 Dy140 2.326 1_554 S
O151 C158 1.267 . S
O152 C141 1.185 . S
O152 Dy143 2.398 1_556 S
O153 C141 1.355 . S
O153 Dy143 2.491 1_556 S
O154 Dy143 2.403 . S
O154 C149 1.254 . S
O155 Dy140 2.310 1_554 S
O155 Dy143 2.664 . S
O155 C149 1.268 . S
O156 Dy140 2.351 . S
O156 C159 1.249 . S
O157 Dy143 2.326 1_556 S
O157 C159 1.267 . S
C158 O150 1.249 . S
C158 O151 1.267 . S
C159 O156 1.249 . S
C159 O157 1.267 . S
H160 C172 0.930 . S
H161 C174 0.930 . S
H162 C175 0.930 . S
H163 C179 0.959 . S
H164 C179 0.959 . S
H165 C179 0.961 . S
H166 C180 0.960 . S
H167 C180 0.961 . S
H168 C180 0.959 . S
H169 C183 0.929 . S
H170 C184 0.931 . S
H171 C186 0.930 . S
C172 H160 0.930 . S
C172 C173 1.399 . S
C172 C177 1.399 . S
C173 C172 1.399 . S
C173 C174 1.376 . S
C174 H161 0.930 . S
C174 C173 1.376 . S
C174 C175 1.388 . S
C175 H162 0.930 . S
C175 C174 1.388 . S
C175 C176 1.390 . S
C176 C175 1.390 . S
C176 C177 1.394 . S
C176 C182 1.465 . S
C177 C172 1.399 . S
C177 C176 1.394 . S
C177 C178 1.516 . S
C178 C177 1.516 . S
C178 C179 1.502 . S
C178 C180 1.561 . S
C178 C181 1.526 . S
C179 H163 0.959 . S
C179 H164 0.959 . S
C179 H165 0.961 . S
C179 C178 1.502 . S
C180 H166 0.960 . S
C180 H167 0.961 . S
C180 H168 0.959 . S
C180 C178 1.561 . S
C181 C178 1.526 . S
C181 C182 1.396 . S
C181 C186 1.390 . S
C182 C176 1.465 . S
C182 C181 1.396 . S
C182 C183 1.399 . S
C183 H169 0.929 . S
C183 C182 1.399 . S
C183 C184 1.385 . S
C184 H170 0.931 . S
C184 C183 1.385 . S
C184 C185 1.389 . S
C185 C184 1.389 . S
C185 C186 1.387 . S
C186 H171 0.930 . S
C186 C181 1.390 . S
C186 C185 1.387 . S
H187 C199 0.930 . S
H188 C201 0.930 . S
H189 C202 0.930 . S
H190 C206 0.959 . S
H191 C206 0.959 . S
H192 C206 0.961 . S
H193 C207 0.960 . S
H194 C207 0.961 . S
H195 C207 0.959 . S
H196 C210 0.929 . S
H197 C211 0.931 . S
H198 C213 0.930 . S
C199 H187 0.930 . S
C199 C200 1.399 . S
C199 C204 1.399 . S
C200 C199 1.399 . S
C200 C201 1.376 . S
C201 H188 0.930 . S
C201 C200 1.376 . S
C201 C202 1.388 . S
C202 H189 0.930 . S
C202 C201 1.388 . S
C202 C203 1.390 . S
C203 C202 1.390 . S
C203 C204 1.394 . S
C203 C209 1.465 . S
C204 C199 1.399 . S
C204 C203 1.394 . S
C204 C205 1.516 . S
C205 C204 1.516 . S
C205 C206 1.502 . S
C205 C207 1.561 . S
C205 C208 1.526 . S
C206 H190 0.959 . S
C206 H191 0.959 . S
C206 H192 0.961 . S
C206 C205 1.502 . S
C207 H193 0.960 . S
C207 H194 0.961 . S
C207 H195 0.959 . S
C207 C205 1.561 . S
C208 C205 1.526 . S
C208 C209 1.396 . S
C208 C213 1.390 . S
C209 C203 1.465 . S
C209 C208 1.396 . S
C209 C210 1.399 . S
C210 H196 0.929 . S
C210 C209 1.399 . S
C210 C211 1.385 . S
C211 H197 0.931 . S
C211 C210 1.385 . S
C211 C212 1.389 . S
C212 C211 1.389 . S
C212 C213 1.387 . S
C213 H198 0.930 . S
C213 C208 1.390 . S
C213 C212 1.387 . S
H214 C226 0.930 . S
H215 C228 0.930 . S
H216 C229 0.930 . S
H217 C233 0.959 . S
H218 C233 0.959 . S
H219 C233 0.961 . S
H220 C234 0.960 . S
H221 C234 0.961 . S
H222 C234 0.959 . S
H223 C237 0.929 . S
H224 C238 0.931 . S
H225 C240 0.930 . S
C226 H214 0.930 . S
C226 C227 1.399 . S
C226 C231 1.399 . S
C227 C226 1.399 . S
C227 C228 1.376 . S
C228 H215 0.930 . S
C228 C227 1.376 . S
C228 C229 1.388 . S
C229 H216 0.930 . S
C229 C228 1.388 . S
C229 C230 1.390 . S
C230 C229 1.390 . S
C230 C231 1.394 . S
C230 C236 1.465 . S
C231 C226 1.399 . S
C231 C230 1.394 . S
C231 C232 1.516 . S
C232 C231 1.516 . S
C232 C233 1.502 . S
C232 C234 1.561 . S
C232 C235 1.526 . S
C233 H217 0.959 . S
C233 H218 0.959 . S
C233 H219 0.961 . S
C233 C232 1.502 . S
C234 H220 0.960 . S
C234 H221 0.961 . S
C234 H222 0.959 . S
C234 C232 1.561 . S
C235 C232 1.526 . S
C235 C236 1.396 . S
C235 C240 1.390 . S
C236 C230 1.465 . S
C236 C235 1.396 . S
C236 C237 1.399 . S
C237 H223 0.929 . S
C237 C236 1.399 . S
C237 C238 1.385 . S
C238 H224 0.931 . S
C238 C237 1.385 . S
C238 C239 1.389 . S
C239 C238 1.389 . S
C239 C240 1.387 . S
C240 H225 0.930 . S
C240 C235 1.390 . S
C240 C239 1.387 . S
H241 C253 0.930 . S
H242 C255 0.930 . S
H243 C256 0.930 . S
H244 C260 0.959 . S
H245 C260 0.959 . S
H246 C260 0.961 . S
H247 C261 0.960 . S
H248 C261 0.961 . S
H249 C261 0.959 . S
H250 C264 0.929 . S
H251 C265 0.931 . S
H252 C267 0.930 . S
C253 H241 0.930 . S
C253 C254 1.399 . S
C253 C258 1.399 . S
C254 C253 1.399 . S
C254 C255 1.376 . S
C255 H242 0.930 . S
C255 C254 1.376 . S
C255 C256 1.388 . S
C256 H243 0.930 . S
C256 C255 1.388 . S
C256 C257 1.390 . S
C257 C256 1.390 . S
C257 C258 1.394 . S
C257 C263 1.465 . S
C258 C253 1.399 . S
C258 C257 1.394 . S
C258 C259 1.516 . S
C259 C258 1.516 . S
C259 C260 1.502 . S
C259 C261 1.561 . S
C259 C262 1.526 . S
C260 H244 0.959 . S
C260 H245 0.959 . S
C260 H246 0.961 . S
C260 C259 1.502 . S
C261 H247 0.960 . S
C261 H248 0.961 . S
C261 H249 0.959 . S
C261 C259 1.561 . S
C262 C259 1.526 . S
C262 C263 1.396 . S
C262 C267 1.390 . S
C263 C257 1.465 . S
C263 C262 1.396 . S
C263 C264 1.399 . S
C264 H250 0.929 . S
C264 C263 1.399 . S
C264 C265 1.385 . S
C265 H251 0.931 . S
C265 C264 1.385 . S
C265 C266 1.389 . S
C266 C265 1.389 . S
C266 C267 1.387 . S
C267 H252 0.930 . S
C267 C262 1.390 . S
C267 C266 1.387 . S
H268 C280 0.930 . S
H269 C282 0.930 . S
H270 C283 0.930 . S
H271 C287 0.959 . S
H272 C287 0.959 1_545 S
H273 C287 0.961 . S
H274 C288 0.960 . S
H275 C288 0.961 1_545 S
H276 C288 0.959 1_545 S
H277 C291 0.929 . S
H278 C292 0.931 . S
H279 C294 0.930 . S
C280 H268 0.930 . S
C280 C281 1.399 . S
C280 C285 1.399 . S
C281 C280 1.399 . S
C281 C282 1.376 . S
C282 H269 0.930 . S
C282 C281 1.376 . S
C282 C283 1.388 . S
C283 H270 0.930 . S
C283 C282 1.388 . S
C283 C284 1.390 . S
C284 C283 1.390 . S
C284 C285 1.394 . S
C284 C290 1.465 1_565 S
C285 C280 1.399 . S
C285 C284 1.394 . S
C285 C286 1.516 . S
C286 C285 1.516 . S
C286 C287 1.502 . S
C286 C288 1.561 . S
C286 C289 1.526 1_565 S
C287 H271 0.959 . S
C287 H272 0.959 1_565 S
C287 H273 0.961 . S
C287 C286 1.502 . S
C288 H274 0.960 . S
C288 H275 0.961 1_565 S
C288 H276 0.959 1_565 S
C288 C286 1.561 . S
C289 C286 1.526 1_545 S
C289 C290 1.396 . S
C289 C294 1.390 . S
C290 C284 1.465 1_545 S
C290 C289 1.396 . S
C290 C291 1.399 . S
C291 H277 0.929 . S
C291 C290 1.399 . S
C291 C292 1.385 . S
C292 H278 0.931 . S
C292 C291 1.385 . S
C292 C293 1.389 . S
C293 C292 1.389 . S
C293 C294 1.387 . S
C294 H279 0.930 . S
C294 C289 1.390 . S
C294 C293 1.387 . S
H295 C307 0.930 . S
H296 C309 0.930 . S
H297 C310 0.930 . S
H298 C314 0.959 . S
H299 C314 0.959 . S
H300 C314 0.961 . S
H301 C315 0.960 . S
H302 C315 0.961 . S
H303 C315 0.959 . S
H304 C318 0.929 . S
H305 C319 0.931 . S
H306 C321 0.930 . S
C307 H295 0.930 . S
C307 C308 1.399 . S
C307 C312 1.399 . S
C308 C307 1.399 . S
C308 C309 1.376 . S
C309 H296 0.930 . S
C309 C308 1.376 . S
C309 C310 1.388 . S
C310 H297 0.930 . S
C310 C309 1.388 . S
C310 C311 1.390 . S
C311 C310 1.390 . S
C311 C312 1.394 . S
C311 C317 1.465 . S
C312 C307 1.399 . S
C312 C311 1.394 . S
C312 C313 1.516 . S
C313 C312 1.516 . S
C313 C314 1.502 . S
C313 C315 1.561 . S
C313 C316 1.526 . S
C314 H298 0.959 . S
C314 H299 0.959 . S
C314 H300 0.961 . S
C314 C313 1.502 . S
C315 H301 0.960 . S
C315 H302 0.961 . S
C315 H303 0.959 . S
C315 C313 1.561 . S
C316 C313 1.526 . S
C316 C317 1.396 . S
C316 C321 1.390 . S
C317 C311 1.465 . S
C317 C316 1.396 . S
C317 C318 1.399 . S
C318 H304 0.929 . S
C318 C317 1.399 . S
C318 C319 1.385 . S
C319 H305 0.931 . S
C319 C318 1.385 . S
C319 C320 1.389 . S
C320 C319 1.389 . S
C320 C321 1.387 . S
C321 H306 0.930 . S
C321 C316 1.390 . S
C321 C320 1.387 . S
H322 C334 0.930 . S
H323 C336 0.930 . S
H324 C337 0.930 . S
H325 C341 0.959 . S
H326 C341 0.959 1_545 S
H327 C341 0.961 . S
H328 C342 0.960 1_565 S
H329 C342 0.961 . S
H330 C342 0.959 . S
H331 C345 0.929 . S
H332 C346 0.931 . S
H333 C348 0.930 . S
C334 H322 0.930 . S
C334 C335 1.399 . S
C334 C339 1.399 . S
C335 C334 1.399 . S
C335 C336 1.376 . S
C336 H323 0.930 . S
C336 C335 1.376 . S
C336 C337 1.388 . S
C337 H324 0.930 . S
C337 C336 1.388 . S
C337 C338 1.390 . S
C338 C337 1.390 . S
C338 C339 1.394 . S
C338 C344 1.465 1_565 S
C339 C334 1.399 . S
C339 C338 1.394 . S
C339 C340 1.533 . S
C340 C339 1.533 . S
C340 C341 1.502 . S
C340 C342 1.562 1_565 S
C340 C343 1.507 1_565 S
C341 H325 0.959 . S
C341 H326 0.959 1_565 S
C341 H327 0.961 . S
C341 C340 1.502 . S
C342 H328 0.960 1_545 S
C342 H329 0.961 . S
C342 H330 0.959 . S
C342 C340 1.562 1_545 S
C343 C340 1.507 1_545 S
C343 C344 1.396 . S
C343 C348 1.390 . S
C344 C338 1.465 1_545 S
C344 C343 1.396 . S
C344 C345 1.399 . S
C345 H331 0.929 . S
C345 C344 1.399 . S
C345 C346 1.385 . S
C346 H332 0.931 . S
C346 C345 1.385 . S
C346 C347 1.389 . S
C347 C346 1.389 . S
C347 C348 1.387 . S
C348 H333 0.930 . S
C348 C343 1.390 . S
C348 C347 1.387 . S
H349 C361 0.930 . S
H350 C363 0.930 . S
H351 C364 0.930 . S
H352 C368 0.959 . S
H353 C368 0.959 . S
H354 C368 0.961 . S
H355 C369 0.960 . S
H356 C369 0.961 . S
H357 C369 0.959 . S
H358 C372 0.929 . S
H359 C373 0.931 . S
H360 C375 0.930 . S
C361 H349 0.930 . S
C361 C362 1.399 . S
C361 C366 1.399 . S
C362 C361 1.399 . S
C362 C363 1.376 . S
C363 H350 0.930 . S
C363 C362 1.376 . S
C363 C364 1.388 . S
C364 H351 0.930 . S
C364 C363 1.388 . S
C364 C365 1.390 . S
C365 C364 1.390 . S
C365 C366 1.394 . S
C365 C371 1.465 . S
C366 C361 1.399 . S
C366 C365 1.394 . S
C366 C367 1.516 . S
C367 C366 1.516 . S
C367 C368 1.502 . S
C367 C369 1.561 . S
C367 C370 1.526 . S
C368 H352 0.959 . S
C368 H353 0.959 . S
C368 H354 0.961 . S
C368 C367 1.502 . S
C369 H355 0.960 . S
C369 H356 0.961 . S
C369 H357 0.959 . S
C369 C367 1.561 . S
C370 C367 1.526 . S
C370 C371 1.396 . S
C370 C375 1.390 . S
C371 C365 1.465 . S
C371 C370 1.396 . S
C371 C372 1.399 . S
C372 H358 0.929 . S
C372 C371 1.399 . S
C372 C373 1.385 . S
C373 H359 0.931 . S
C373 C372 1.385 . S
C373 C374 1.389 . S
C374 C373 1.389 . S
C374 C375 1.387 . S
C375 H360 0.930 . S
C375 C370 1.390 . S
C375 C374 1.387 . S
H376 C388 0.930 . S
H377 C390 0.930 . S
H378 C391 0.930 . S
H379 C395 0.959 . S
H380 C395 0.959 . S
H381 C395 0.961 . S
H382 C396 0.960 . S
H383 C396 0.961 . S
H384 C396 0.959 . S
H385 C399 0.929 . S
H386 C400 0.931 . S
H387 C402 0.930 . S
C388 H376 0.930 . S
C388 C389 1.399 1_556 S
C388 C393 1.399 . S
C389 C388 1.399 1_554 S
C389 C390 1.376 . S
C390 H377 0.930 . S
C390 C389 1.376 . S
C390 C391 1.388 . S
C391 H378 0.930 . S
C391 C390 1.388 . S
C391 C392 1.390 . S
C392 C391 1.390 . S
C392 C393 1.394 1_554 S
C392 C398 1.465 . S
C393 C388 1.399 . S
C393 C392 1.394 1_556 S
C393 C394 1.516 . S
C394 C393 1.516 . S
C394 C395 1.502 . S
C394 C396 1.561 . S
C394 C397 1.526 . S
C395 H379 0.959 . S
C395 H380 0.959 . S
C395 H381 0.961 . S
C395 C394 1.502 . S
C396 H382 0.960 . S
C396 H383 0.961 . S
C396 H384 0.959 . S
C396 C394 1.561 . S
C397 C394 1.526 . S
C397 C398 1.396 1_556 S
C397 C402 1.390 . S
C398 C392 1.465 . S
C398 C397 1.396 1_554 S
C398 C399 1.399 . S
C399 H385 0.929 . S
C399 C398 1.399 . S
C399 C400 1.385 . S
C400 H386 0.931 . S
C400 C399 1.385 . S
C400 C401 1.389 . S
C401 C400 1.389 . S
C401 C402 1.387 1_554 S
C402 H387 0.930 . S
C402 C397 1.390 . S
C402 C401 1.387 1_556 S
H403 C415 0.930 . S
H404 C417 0.930 . S
H405 C418 0.930 . S
H406 C422 0.959 . S
H407 C422 0.959 . S
H408 C422 0.961 1_565 S
H409 C423 0.956 1_565 S
H410 C423 0.964 . S
H411 C423 0.958 . S
H412 C426 0.929 . S
H413 C427 0.931 . S
H414 C429 0.930 . S
C415 H403 0.930 . S
C415 C416 1.399 1_554 S
C415 C420 1.399 . S
C416 C415 1.399 1_556 S
C416 C417 1.376 . S
C417 H404 0.930 . S
C417 C416 1.376 . S
C417 C418 1.388 . S
C418 H405 0.930 . S
C418 C417 1.388 . S
C418 C419 1.390 . S
C419 C418 1.390 . S
C419 C420 1.394 1_556 S
C419 C425 1.465 1_565 S
C420 C415 1.399 . S
C420 C419 1.394 1_554 S
C420 C421 1.516 1_565 S
C421 C420 1.516 1_545 S
C421 C422 1.502 . S
C421 C423 1.561 . S
C421 C424 1.526 . S
C422 H406 0.959 . S
C422 H407 0.959 . S
C422 H408 0.961 1_545 S
C422 C421 1.502 . S
C423 H409 0.956 1_545 S
C423 H410 0.964 . S
C423 H411 0.958 . S
C423 C421 1.561 . S
C424 C421 1.526 . S
C424 C425 1.396 1_554 S
C424 C429 1.390 . S
C425 C419 1.465 1_545 S
C425 C424 1.396 1_556 S
C425 C426 1.399 . S
C426 H412 0.929 . S
C426 C425 1.399 . S
C426 C427 1.385 . S
C427 H413 0.931 . S
C427 C426 1.385 . S
C427 C428 1.389 . S
C428 C427 1.389 . S
C428 C429 1.387 1_556 S
C429 H414 0.930 . S
C429 C424 1.390 . S
C429 C428 1.387 1_554 S
H430 C442 0.930 . S
H431 C444 0.930 . S
H432 C445 0.930 . S
H433 C449 0.959 . S
H434 C449 0.959 . S
H435 C449 0.961 . S
H436 C450 0.960 . S
H437 C450 0.961 . S
H438 C450 0.959 . S
H439 C453 0.929 . S
H440 C454 0.931 . S
H441 C456 0.930 . S
C442 H430 0.930 . S
C442 C443 1.399 1_556 S
C442 C447 1.399 . S
C443 C442 1.399 1_554 S
C443 C444 1.376 . S
C444 H431 0.930 . S
C444 C443 1.376 . S
C444 C445 1.388 . S
C445 H432 0.930 . S
C445 C444 1.388 . S
C445 C446 1.390 . S
C446 C445 1.390 . S
C446 C447 1.394 1_554 S
C446 C452 1.465 . S
C447 C442 1.399 . S
C447 C446 1.394 1_556 S
C447 C448 1.516 . S
C448 C447 1.516 . S
C448 C449 1.502 . S
C448 C450 1.561 . S
C448 C451 1.526 . S
C449 H433 0.959 . S
C449 H434 0.959 . S
C449 H435 0.961 . S
C449 C448 1.502 . S
C450 H436 0.960 . S
C450 H437 0.961 . S
C450 H438 0.959 . S
C450 C448 1.561 . S
C451 C448 1.526 . S
C451 C452 1.396 1_556 S
C451 C456 1.390 . S
C452 C446 1.465 . S
C452 C451 1.396 1_554 S
C452 C453 1.399 . S
C453 H439 0.929 . S
C453 C452 1.399 . S
C453 C454 1.385 . S
C454 H440 0.931 . S
C454 C453 1.385 . S
C454 C455 1.389 . S
C455 C454 1.389 . S
C455 C456 1.387 1_554 S
C456 H441 0.930 . S
C456 C451 1.390 . S
C456 C455 1.387 1_556 S
H457 C469 0.930 . S
H458 C471 0.930 . S
H459 C472 0.930 . S
H460 C476 0.959 . S
H461 C476 0.959 . S
H462 C476 0.961 1_545 S
H463 C477 0.960 . S
H464 C477 0.961 1_565 S
H465 C477 0.959 1_565 S
H466 C480 0.929 . S
H467 C481 0.931 . S
H468 C483 0.930 . S
C469 H457 0.930 . S
C469 C470 1.399 1_554 S
C469 C474 1.399 . S
C470 C469 1.399 1_556 S
C470 C471 1.376 . S
C471 H458 0.930 . S
C471 C470 1.376 . S
C471 C472 1.388 . S
C472 H459 0.930 . S
C472 C471 1.388 . S
C472 C473 1.390 . S
C473 C472 1.390 . S
C473 C474 1.394 1_556 S
C473 C479 1.465 1_545 S
C474 C469 1.399 . S
C474 C473 1.394 1_554 S
C474 C475 1.516 1_545 S
C475 C474 1.516 1_565 S
C475 C476 1.502 . S
C475 C477 1.561 1_565 S
C475 C478 1.526 . S
C476 H460 0.959 . S
C476 H461 0.959 . S
C476 H462 0.961 1_565 S
C476 C475 1.502 . S
C477 H463 0.960 . S
C477 H464 0.961 1_545 S
C477 H465 0.959 1_545 S
C477 C475 1.561 1_545 S
C478 C475 1.526 . S
C478 C479 1.396 1_554 S
C478 C483 1.390 . S
C479 C473 1.465 1_565 S
C479 C478 1.396 1_556 S
C479 C480 1.399 . S
C480 H466 0.929 . S
C480 C479 1.399 . S
C480 C481 1.385 . S
C481 H467 0.931 . S
C481 C480 1.385 . S
C481 C482 1.389 . S
C482 C481 1.389 . S
C482 C483 1.387 1_556 S
C483 H468 0.930 . S
C483 C478 1.390 . S
C483 C482 1.387 1_554 S
H484 C496 0.930 . S
H485 C498 0.930 . S
H486 C499 0.930 . S
H487 C503 0.959 . S
H488 C503 0.959 . S
H489 C503 0.961 1_554 S
H490 C504 0.960 1_554 S
H491 C504 0.961 . S
H492 C504 0.959 . S
H493 C507 0.929 . S
H494 C508 0.931 . S
H495 C510 0.930 . S
C496 H484 0.930 . S
C496 C497 1.399 . S
C496 C501 1.399 . S
C497 C496 1.399 . S
C497 C498 1.376 . S
C498 H485 0.930 . S
C498 C497 1.376 . S
C498 C499 1.388 . S
C499 H486 0.930 . S
C499 C498 1.388 . S
C499 C500 1.390 . S
C500 C499 1.390 . S
C500 C501 1.394 . S
C500 C506 1.465 1_554 S
C501 C496 1.399 . S
C501 C500 1.394 . S
C501 C502 1.516 1_554 S
C502 C501 1.516 1_556 S
C502 C503 1.502 . S
C502 C504 1.561 . S
C502 C505 1.526 . S
C503 H487 0.959 . S
C503 H488 0.959 . S
C503 H489 0.961 1_556 S
C503 C502 1.502 . S
C504 H490 0.960 1_556 S
C504 H491 0.961 . S
C504 H492 0.959 . S
C504 C502 1.561 . S
C505 C502 1.526 . S
C505 C506 1.396 . S
C505 C510 1.390 . S
C506 C500 1.465 1_556 S
C506 C505 1.396 . S
C506 C507 1.399 . S
C507 H493 0.929 . S
C507 C506 1.399 . S
C507 C508 1.385 . S
C508 H494 0.931 . S
C508 C507 1.385 . S
C508 C509 1.389 . S
C509 C508 1.389 . S
C509 C510 1.387 . S
C510 H495 0.930 . S
C510 C505 1.390 . S
C510 C509 1.387 . S
H511 C523 0.930 . S
H512 C525 0.930 . S
H513 C526 0.930 . S
H514 C530 0.959 . S
H515 C530 0.959 . S
H516 C530 0.961 1_554 S
H517 C531 0.960 1_554 S
H518 C531 0.961 . S
H519 C531 0.959 . S
H520 C534 0.929 . S
H521 C535 0.931 . S
H522 C537 0.930 . S
C523 H511 0.930 . S
C523 C524 1.399 . S
C523 C528 1.399 . S
C524 C523 1.399 . S
C524 C525 1.376 . S
C525 H512 0.930 . S
C525 C524 1.376 . S
C525 C526 1.388 . S
C526 H513 0.930 . S
C526 C525 1.388 . S
C526 C527 1.390 . S
C527 C526 1.390 . S
C527 C528 1.394 . S
C527 C533 1.465 1_554 S
C528 C523 1.399 . S
C528 C527 1.394 . S
C528 C529 1.516 1_554 S
C529 C528 1.516 1_556 S
C529 C530 1.502 . S
C529 C531 1.561 . S
C529 C532 1.526 . S
C530 H514 0.959 . S
C530 H515 0.959 . S
C530 H516 0.961 1_556 S
C530 C529 1.502 . S
C531 H517 0.960 1_556 S
C531 H518 0.961 . S
C531 H519 0.959 . S
C531 C529 1.561 . S
C532 C529 1.526 . S
C532 C533 1.396 . S
C532 C537 1.390 . S
C533 C527 1.465 1_556 S
C533 C532 1.396 . S
C533 C534 1.399 . S
C534 H520 0.929 . S
C534 C533 1.399 . S
C534 C535 1.385 . S
C535 H521 0.931 . S
C535 C534 1.385 . S
C535 C536 1.389 . S
C536 C535 1.389 . S
C536 C537 1.387 . S
C537 H522 0.930 . S
C537 C532 1.390 . S
C537 C536 1.387 . S
H538 C550 0.930 . S
H539 C552 0.930 . S
H540 C553 0.930 . S
H541 C557 0.959 . S
H542 C557 0.959 1_556 S
H543 C557 0.961 . S
H544 C558 0.969 . S
H545 C558 0.953 1_556 S
H546 C558 0.957 1_556 S
H547 C561 0.929 . S
H548 C562 0.931 . S
H549 C564 0.930 . S
C550 H538 0.930 . S
C550 C551 1.399 . S
C550 C555 1.399 . S
C551 C550 1.399 . S
C551 C552 1.376 . S
C552 H539 0.930 . S
C552 C551 1.376 . S
C552 C553 1.388 . S
C553 H540 0.930 . S
C553 C552 1.388 . S
C553 C554 1.390 . S
C554 C553 1.390 . S
C554 C555 1.394 . S
C554 C560 1.465 1_554 S
C555 C550 1.399 . S
C555 C554 1.394 . S
C555 C556 1.516 . S
C556 C555 1.516 . S
C556 C557 1.502 . S
C556 C558 1.562 . S
C556 C559 1.526 1_554 S
C557 H541 0.959 . S
C557 H542 0.959 1_554 S
C557 H543 0.961 . S
C557 C556 1.502 . S
C558 H544 0.969 . S
C558 H545 0.953 1_554 S
C558 H546 0.957 1_554 S
C558 C556 1.562 . S
C559 C556 1.526 1_556 S
C559 C560 1.396 . S
C559 C564 1.390 . S
C560 C554 1.465 1_556 S
C560 C559 1.396 . S
C560 C561 1.399 . S
C561 H547 0.929 . S
C561 C560 1.399 . S
C561 C562 1.385 . S
C562 H548 0.931 . S
C562 C561 1.385 . S
C562 C563 1.389 . S
C563 C562 1.389 . S
C563 C564 1.387 . S
C564 H549 0.930 . S
C564 C559 1.390 . S
C564 C563 1.387 . S
H565 C577 0.930 . S
H566 C579 0.930 . S
H567 C580 0.930 . S
H568 C584 0.959 . S
H569 C584 0.959 . S
H570 C584 0.961 1_556 S
H571 C585 0.960 1_556 S
H572 C585 0.961 . S
H573 C585 0.959 . S
H574 C588 0.929 . S
H575 C589 0.931 . S
H576 C591 0.930 . S
C577 H565 0.930 . S
C577 C578 1.399 . S
C577 C582 1.399 . S
C578 C577 1.399 . S
C578 C579 1.376 . S
C579 H566 0.930 . S
C579 C578 1.376 . S
C579 C580 1.388 . S
C580 H567 0.930 . S
C580 C579 1.388 . S
C580 C581 1.390 . S
C581 C580 1.390 . S
C581 C582 1.394 . S
C581 C587 1.465 1_556 S
C582 C577 1.399 . S
C582 C581 1.394 . S
C582 C583 1.516 1_556 S
C583 C582 1.516 1_554 S
C583 C584 1.502 . S
C583 C585 1.561 . S
C583 C586 1.526 . S
C584 H568 0.959 . S
C584 H569 0.959 . S
C584 H570 0.961 1_554 S
C584 C583 1.502 . S
C585 H571 0.960 1_554 S
C585 H572 0.961 . S
C585 H573 0.959 . S
C585 C583 1.561 . S
C586 C583 1.526 . S
C586 C587 1.396 . S
C586 C591 1.390 . S
C587 C581 1.465 1_554 S
C587 C586 1.396 . S
C587 C588 1.399 . S
C588 H574 0.929 . S
C588 C587 1.399 . S
C588 C589 1.385 . S
C589 H575 0.931 . S
C589 C588 1.385 . S
C589 C590 1.389 . S
C590 C589 1.389 . S
C590 C591 1.387 . S
C591 H576 0.930 . S
C591 C586 1.390 . S
C591 C590 1.387 . S
H592 C604 0.930 . S
H593 C606 0.930 . S
H594 C607 0.930 . S
H595 C611 0.959 . S
H596 C611 0.959 . S
H597 C611 0.961 . S
H598 C612 0.960 . S
H599 C612 0.961 . S
H600 C612 0.959 . S
H601 C615 0.929 . S
H602 C616 0.931 . S
H603 C618 0.930 . S
C604 H592 0.930 . S
C604 C605 1.399 . S
C604 C609 1.399 . S
C605 C604 1.399 . S
C605 C606 1.376 . S
C606 H593 0.930 . S
C606 C605 1.376 . S
C606 C607 1.388 . S
C607 H594 0.930 . S
C607 C606 1.388 . S
C607 C608 1.390 . S
C608 C607 1.390 . S
C608 C609 1.394 . S
C608 C614 1.465 . S
C609 C604 1.399 . S
C609 C608 1.394 . S
C609 C610 1.516 . S
C610 C609 1.516 . S
C610 C611 1.502 . S
C610 C612 1.561 . S
C610 C613 1.526 . S
C611 H595 0.959 . S
C611 H596 0.959 . S
C611 H597 0.961 . S
C611 C610 1.502 . S
C612 H598 0.960 . S
C612 H599 0.961 . S
C612 H600 0.959 . S
C612 C610 1.561 . S
C613 C610 1.526 . S
C613 C614 1.396 . S
C613 C618 1.390 . S
C614 C608 1.465 . S
C614 C613 1.396 . S
C614 C615 1.399 . S
C615 H601 0.929 . S
C615 C614 1.399 . S
C615 C616 1.385 . S
C616 H602 0.931 . S
C616 C615 1.385 . S
C616 C617 1.389 . S
C617 C616 1.389 . S
C617 C618 1.387 . S
C618 H603 0.930 . S
C618 C613 1.390 . S
C618 C617 1.387 . S
H619 C631 0.930 . S
H620 C633 0.930 . S
H621 C634 0.930 . S
H622 C638 0.959 . S
H623 C638 0.959 . S
H624 C638 0.961 . S
H625 C639 0.960 . S
H626 C639 0.961 . S
H627 C639 0.959 . S
H628 C642 0.929 . S
H629 C643 0.931 . S
H630 C645 0.930 . S
C631 H619 0.930 . S
C631 C632 1.399 . S
C631 C636 1.399 . S
C632 C631 1.399 . S
C632 C633 1.376 . S
C633 H620 0.930 . S
C633 C632 1.376 . S
C633 C634 1.388 . S
C634 H621 0.930 . S
C634 C633 1.388 . S
C634 C635 1.390 . S
C635 C634 1.390 . S
C635 C636 1.394 . S
C635 C641 1.465 . S
C636 C631 1.399 . S
C636 C635 1.394 . S
C636 C637 1.516 . S
C637 C636 1.516 . S
C637 C638 1.502 . S
C637 C639 1.561 . S
C637 C640 1.526 . S
C638 H622 0.959 . S
C638 H623 0.959 . S
C638 H624 0.961 . S
C638 C637 1.502 . S
C639 H625 0.960 . S
C639 H626 0.961 . S
C639 H627 0.959 . S
C639 C637 1.561 . S
C640 C637 1.526 . S
C640 C641 1.396 . S
C640 C645 1.390 . S
C641 C635 1.465 . S
C641 C640 1.396 . S
C641 C642 1.399 . S
C642 H628 0.929 . S
C642 C641 1.399 . S
C642 C643 1.385 . S
C643 H629 0.931 . S
C643 C642 1.385 . S
C643 C644 1.389 . S
C644 C643 1.389 . S
C644 C645 1.387 . S
C645 H630 0.930 . S
C645 C640 1.390 . S
C645 C644 1.387 . S
H646 C658 0.930 . S
H647 C660 0.930 . S
H648 C661 0.930 . S
H649 C665 0.959 . S
H650 C665 0.959 . S
H651 C665 0.961 . S
H652 C666 0.960 . S
H653 C666 0.961 . S
H654 C666 0.959 . S
H655 C669 0.929 . S
H656 C670 0.931 . S
H657 C672 0.930 . S
C658 H646 0.930 . S
C658 C659 1.399 . S
C658 C663 1.399 . S
C659 C658 1.399 . S
C659 C660 1.376 . S
C660 H647 0.930 . S
C660 C659 1.376 . S
C660 C661 1.388 . S
C661 H648 0.930 . S
C661 C660 1.388 . S
C661 C662 1.390 . S
C662 C661 1.390 . S
C662 C663 1.394 . S
C662 C668 1.465 . S
C663 C658 1.399 . S
C663 C662 1.394 . S
C663 C664 1.516 . S
C664 C663 1.516 . S
C664 C665 1.502 . S
C664 C666 1.561 . S
C664 C667 1.526 . S
C665 H649 0.959 . S
C665 H650 0.959 . S
C665 H651 0.961 . S
C665 C664 1.502 . S
C666 H652 0.960 . S
C666 H653 0.961 . S
C666 H654 0.959 . S
C666 C664 1.561 . S
C667 C664 1.526 . S
C667 C668 1.396 . S
C667 C672 1.390 . S
C668 C662 1.465 . S
C668 C667 1.396 . S
C668 C669 1.399 . S
C669 H655 0.929 . S
C669 C668 1.399 . S
C669 C670 1.385 . S
C670 H656 0.931 . S
C670 C669 1.385 . S
C670 C671 1.389 . S
C671 C670 1.389 . S
C671 C672 1.387 . S
C672 H657 0.930 . S
C672 C667 1.390 . S
C672 C671 1.387 . S
H673 C685 0.930 . S
H674 C687 0.930 . S
H675 C688 0.930 . S
H676 C692 0.959 . S
H677 C692 0.959 . S
H678 C692 0.961 . S
H679 C693 0.960 . S
H680 C693 0.961 . S
H681 C693 0.959 . S
H682 C696 0.929 . S
H683 C697 0.931 . S
H684 C699 0.930 . S
C685 H673 0.930 . S
C685 C686 1.399 . S
C685 C690 1.399 . S
C686 C685 1.399 . S
C686 C687 1.376 . S
C687 H674 0.930 . S
C687 C686 1.376 . S
C687 C688 1.388 . S
C688 H675 0.930 . S
C688 C687 1.388 . S
C688 C689 1.390 . S
C689 C688 1.390 . S
C689 C690 1.394 . S
C689 C695 1.465 . S
C690 C685 1.399 . S
C690 C689 1.394 . S
C690 C691 1.516 . S
C691 C690 1.516 . S
C691 C692 1.502 . S
C691 C693 1.561 . S
C691 C694 1.526 . S
C692 H676 0.959 . S
C692 H677 0.959 . S
C692 H678 0.961 . S
C692 C691 1.502 . S
C693 H679 0.960 . S
C693 H680 0.961 . S
C693 H681 0.959 . S
C693 C691 1.561 . S
C694 C691 1.526 . S
C694 C695 1.396 . S
C694 C699 1.390 . S
C695 C689 1.465 . S
C695 C694 1.396 . S
C695 C696 1.399 . S
C696 H682 0.929 . S
C696 C695 1.399 . S
C696 C697 1.385 . S
C697 H683 0.931 . S
C697 C696 1.385 . S
C697 C698 1.389 . S
C698 C697 1.389 . S
C698 C699 1.387 . S
C699 H684 0.930 . S
C699 C694 1.390 . S
C699 C698 1.387 . S
H700 C712 0.930 . S
H701 C714 0.930 . S
H702 C715 0.930 . S
H703 C719 0.959 . S
H704 C719 0.959 . S
H705 C719 0.961 1_455 S
H706 C720 0.960 1_455 S
H707 C720 0.961 . S
H708 C720 0.959 . S
H709 C723 0.929 . S
H710 C724 0.931 . S
H711 C726 0.930 . S
C712 H700 0.930 . S
C712 C713 1.399 . S
C712 C717 1.399 . S
C713 C712 1.399 . S
C713 C714 1.376 . S
C714 H701 0.930 . S
C714 C713 1.376 . S
C714 C715 1.388 . S
C715 H702 0.930 . S
C715 C714 1.388 . S
C715 C716 1.390 . S
C716 C715 1.390 . S
C716 C717 1.394 . S
C716 C722 1.465 1_455 S
C717 C712 1.399 . S
C717 C716 1.394 . S
C717 C718 1.516 1_455 S
C718 C717 1.516 1_655 S
C718 C719 1.502 . S
C718 C720 1.561 . S
C718 C721 1.526 . S
C719 H703 0.959 . S
C719 H704 0.959 . S
C719 H705 0.961 1_655 S
C719 C718 1.502 . S
C720 H706 0.960 1_655 S
C720 H707 0.961 . S
C720 H708 0.959 . S
C720 C718 1.561 . S
C721 C718 1.526 . S
C721 C722 1.396 . S
C721 C726 1.390 . S
C722 C716 1.465 1_655 S
C722 C721 1.396 . S
C722 C723 1.399 . S
C723 H709 0.929 . S
C723 C722 1.399 . S
C723 C724 1.385 . S
C724 H710 0.931 . S
C724 C723 1.385 . S
C724 C725 1.389 . S
C725 C724 1.389 . S
C725 C726 1.387 . S
C726 H711 0.930 . S
C726 C721 1.390 . S
C726 C725 1.387 . S
H727 C739 0.930 . S
H728 C741 0.930 . S
H729 C742 0.930 . S
H730 C746 0.958 . S
H731 C746 0.911 1_455 S
H732 C746 1.015 . S
H733 C747 0.960 1_655 S
H734 C747 0.961 . S
H735 C747 0.959 . S
H736 C750 0.929 . S
H737 C751 0.931 . S
H738 C753 0.930 . S
C739 H727 0.930 . S
C739 C740 1.399 . S
C739 C744 1.399 . S
C740 C739 1.399 . S
C740 C741 1.376 . S
C741 H728 0.930 . S
C741 C740 1.376 . S
C741 C742 1.388 . S
C742 H729 0.930 . S
C742 C741 1.388 . S
C742 C743 1.390 . S
C743 C742 1.390 . S
C743 C744 1.394 . S
C743 C749 1.465 1_655 S
C744 C739 1.399 . S
C744 C743 1.394 . S
C744 C745 1.514 . S
C745 C744 1.514 . S
C745 C746 1.505 . S
C745 C747 1.561 1_655 S
C745 C748 1.528 1_655 S
C746 H730 0.958 . S
C746 H731 0.911 1_655 S
C746 H732 1.015 . S
C746 C745 1.505 . S
C747 H733 0.960 1_455 S
C747 H734 0.961 . S
C747 H735 0.959 . S
C747 C745 1.561 1_455 S
C748 C745 1.528 1_455 S
C748 C749 1.396 . S
C748 C753 1.390 . S
C749 C743 1.465 1_455 S
C749 C748 1.396 . S
C749 C750 1.399 . S
C750 H736 0.929 . S
C750 C749 1.399 . S
C750 C751 1.385 . S
C751 H737 0.931 . S
C751 C750 1.385 . S
C751 C752 1.389 . S
C752 C751 1.389 . S
C752 C753 1.387 . S
C753 H738 0.930 . S
C753 C748 1.390 . S
C753 C752 1.387 . S
H754 C766 0.930 . S
H755 C768 0.930 1_554 S
H756 C769 0.930 1_554 S
H757 C773 0.959 . S
H758 C773 0.959 . S
H759 C773 0.961 . S
H760 C774 0.960 . S
H761 C774 0.961 . S
H762 C774 0.959 . S
H763 C777 0.929 1_554 S
H764 C778 0.931 1_554 S
H765 C780 0.930 . S
C766 H754 0.930 . S
C766 C767 1.399 . S
C766 C771 1.399 . S
C767 C766 1.399 . S
C767 C768 1.376 . S
C768 H755 0.930 1_556 S
C768 C767 1.376 . S
C768 C769 1.388 . S
C769 H756 0.930 1_556 S
C769 C768 1.388 . S
C769 C770 1.390 . S
C770 C769 1.390 . S
C770 C771 1.394 . S
C770 C776 1.465 . S
C771 C766 1.399 . S
C771 C770 1.394 . S
C771 C772 1.516 . S
C772 C771 1.516 . S
C772 C773 1.502 . S
C772 C774 1.561 . S
C772 C775 1.526 . S
C773 H757 0.959 . S
C773 H758 0.959 . S
C773 H759 0.961 . S
C773 C772 1.502 . S
C774 H760 0.960 . S
C774 H761 0.961 . S
C774 H762 0.959 . S
C774 C772 1.561 . S
C775 C772 1.526 . S
C775 C776 1.396 . S
C775 C780 1.390 . S
C776 C770 1.465 . S
C776 C775 1.396 . S
C776 C777 1.399 . S
C777 H763 0.929 1_556 S
C777 C776 1.399 . S
C777 C778 1.385 . S
C778 H764 0.931 1_556 S
C778 C777 1.385 . S
C778 C779 1.389 . S
C779 C778 1.389 . S
C779 C780 1.387 . S
C780 H765 0.930 . S
C780 C775 1.390 . S
C780 C779 1.387 . S
H781 C793 0.930 . S
H782 C795 0.930 . S
H783 C796 0.930 . S
H784 C800 0.959 1_554 S
H785 C800 0.959 . S
H786 C800 0.961 . S
H787 C801 0.960 . S
H788 C801 0.961 . S
H789 C801 0.959 . S
H790 C804 0.929 . S
H791 C805 0.931 . S
H792 C807 0.930 . S
C793 H781 0.930 . S
C793 C794 1.399 . S
C793 C798 1.399 . S
C794 C793 1.399 . S
C794 C795 1.376 . S
C795 H782 0.930 . S
C795 C794 1.376 . S
C795 C796 1.388 . S
C796 H783 0.930 . S
C796 C795 1.388 . S
C796 C797 1.390 . S
C797 C796 1.390 . S
C797 C798 1.394 . S
C797 C803 1.465 . S
C798 C793 1.399 . S
C798 C797 1.394 . S
C798 C799 1.516 . S
C799 C798 1.516 . S
C799 C800 1.502 1_554 S
C799 C801 1.561 1_554 S
C799 C802 1.526 . S
C800 H784 0.959 1_556 S
C800 H785 0.959 . S
C800 H786 0.961 . S
C800 C799 1.502 1_556 S
C801 H787 0.960 . S
C801 H788 0.961 . S
C801 H789 0.959 . S
C801 C799 1.561 1_556 S
C802 C799 1.526 . S
C802 C803 1.396 . S
C802 C807 1.390 . S
C803 C797 1.465 . S
C803 C802 1.396 . S
C803 C804 1.399 . S
C804 H790 0.929 . S
C804 C803 1.399 . S
C804 C805 1.385 . S
C805 H791 0.931 . S
C805 C804 1.385 . S
C805 C806 1.389 . S
C806 C805 1.389 . S
C806 C807 1.387 . S
C807 H792 0.930 . S
C807 C802 1.390 . S
C807 C806 1.387 . S
C173 C2 1.658 . S
C185 C141 1.663 . S
C200 C121 1.674 . S
C212 C22 1.652 . S
C227 C102 1.662 . S
C239 C41 1.658 . S
C254 C82 1.661 . S
C266 C61 1.667 . S
C281 C48 1.435 . S
C293 C8 1.480 . S
C308 C28 1.480 . S
C320 C68 1.432 . S
C335 C69 1.443 . S
C347 C29 1.449 . S
C362 C49 1.484 . S
C374 C9 1.449 . S
C389 C88 1.432 1_554 S
C401 C128 1.474 1_554 S
C416 C108 1.474 . S
C428 C148 1.429 . S
C443 C149 1.427 . S
C455 C109 1.458 . S
C470 C129 1.481 1_556 S
C482 C89 1.441 1_556 S
C497 C19 1.637 . S
C509 C18 1.625 . S
C524 C39 1.616 . S
C536 C38 1.629 . S
C551 C59 1.626 . S
C563 C58 1.636 . S
C578 C78 1.598 . S
C590 C79 1.652 . S
C605 C98 1.598 . S
C617 C99 1.652 . S
C632 C119 1.635 . S
C644 C118 1.628 . S
C659 C138 1.599 . S
C671 C139 1.651 . S
C686 C158 1.598 . S
C698 C159 1.652 . S
C713 C1 1.868 . S
C725 C21 1.848 . S
C740 C62 1.834 . S
C752 C42 1.835 . S
C767 C81 1.836 . S
C779 C101 1.831 . S
C794 C142 1.899 . S
C806 C122 1.899 . S
