# Generated by pormake.
# Topology uoa, (4)-cn, num edge types: 1
# Building blocks:
#     Node 0, Type 0, BuildingBlock: MUDLON_clean_sbu_0, # of connection points: 4
#     Node 1, Type 0, BuildingBlock: MUDLON_clean_sbu_0, # of connection points: 4
#     Node 2, Type 0, BuildingBlock: MUDLON_clean_sbu_0, # of connection points: 4
#     Node 3, Type 0, BuildingBlock: MUDLON_clean_sbu_0, # of connection points: 4
#     Node 4, Type 0, BuildingBlock: MUDLON_clean_sbu_0, # of connection points: 4
#     Node 5, Type 0, BuildingBlock: MUDLON_clean_sbu_0, # of connection points: 4
#     Node 6, Type 0, BuildingBlock: MUDLON_clean_sbu_0, # of connection points: 4
#     Node 7, Type 0, BuildingBlock: MUDLON_clean_sbu_0, # of connection points: 4
#     Node 8, Type 0, BuildingBlock: MUDLON_clean_sbu_0, # of connection points: 4
#     Node 9, Type 0, BuildingBlock: MUDLON_clean_sbu_0, # of connection points: 4
#     Node 10, Type 0, BuildingBlock: MUDLON_clean_sbu_0, # of connection points: 4
#     Node 11, Type 0, BuildingBlock: MUDLON_clean_sbu_0, # of connection points: 4
#     Node 12, Type 0, BuildingBlock: MUDLON_clean_sbu_0, # of connection points: 4
#     Node 13, Type 0, BuildingBlock: MUDLON_clean_sbu_0, # of connection points: 4
#     Node 14, Type 0, BuildingBlock: MUDLON_clean_sbu_0, # of connection points: 4
#     Node 15, Type 0, BuildingBlock: MUDLON_clean_sbu_0, # of connection points: 4
#     Node 16, Type 0, BuildingBlock: MUDLON_clean_sbu_0, # of connection points: 4
#     Node 17, Type 0, BuildingBlock: MUDLON_clean_sbu_0, # of connection points: 4
#     Node 18, Type 0, BuildingBlock: MUDLON_clean_sbu_0, # of connection points: 4
#     Node 19, Type 0, BuildingBlock: MUDLON_clean_sbu_0, # of connection points: 4
#     Node 20, Type 0, BuildingBlock: MUDLON_clean_sbu_0, # of connection points: 4
#     Node 21, Type 0, BuildingBlock: MUDLON_clean_sbu_0, # of connection points: 4
#     Node 22, Type 0, BuildingBlock: MUDLON_clean_sbu_0, # of connection points: 4
#     Node 23, Type 0, BuildingBlock: MUDLON_clean_sbu_0, # of connection points: 4
#     Node 24, Type 0, BuildingBlock: MUDLON_clean_sbu_0, # of connection points: 4
#     Node 25, Type 0, BuildingBlock: MUDLON_clean_sbu_0, # of connection points: 4
#     Node 26, Type 0, BuildingBlock: MUDLON_clean_sbu_0, # of connection points: 4
#     Node 27, Type 0, BuildingBlock: MUDLON_clean_sbu_0, # of connection points: 4
#     Node 28, Type 0, BuildingBlock: MUDLON_clean_sbu_0, # of connection points: 4
#     Node 29, Type 0, BuildingBlock: MUDLON_clean_sbu_0, # of connection points: 4
#     Node 30, Type 0, BuildingBlock: MUDLON_clean_sbu_0, # of connection points: 4
#     Node 31, Type 0, BuildingBlock: MUDLON_clean_sbu_0, # of connection points: 4
#     Edge 32, Type (0, 0), BuildingBlock: CIFDUS_clean_linker_0, # of connection points: 2
#     Edge 33, Type (0, 0), BuildingBlock: CIFDUS_clean_linker_0, # of connection points: 2
#     Edge 34, Type (0, 0), BuildingBlock: CIFDUS_clean_linker_0, # of connection points: 2
#     Edge 35, Type (0, 0), BuildingBlock: CIFDUS_clean_linker_0, # of connection points: 2
#     Edge 36, Type (0, 0), BuildingBlock: CIFDUS_clean_linker_0, # of connection points: 2
#     Edge 37, Type (0, 0), BuildingBlock: CIFDUS_clean_linker_0, # of connection points: 2
#     Edge 38, Type (0, 0), BuildingBlock: CIFDUS_clean_linker_0, # of connection points: 2
#     Edge 39, Type (0, 0), BuildingBlock: CIFDUS_clean_linker_0, # of connection points: 2
#     Edge 40, Type (0, 0), BuildingBlock: CIFDUS_clean_linker_0, # of connection points: 2
#     Edge 41, Type (0, 0), BuildingBlock: CIFDUS_clean_linker_0, # of connection points: 2
#     Edge 42, Type (0, 0), BuildingBlock: CIFDUS_clean_linker_0, # of connection points: 2
#     Edge 43, Type (0, 0), BuildingBlock: CIFDUS_clean_linker_0, # of connection points: 2
#     Edge 44, Type (0, 0), BuildingBlock: CIFDUS_clean_linker_0, # of connection points: 2
#     Edge 45, Type (0, 0), BuildingBlock: CIFDUS_clean_linker_0, # of connection points: 2
#     Edge 46, Type (0, 0), BuildingBlock: CIFDUS_clean_linker_0, # of connection points: 2
#     Edge 47, Type (0, 0), BuildingBlock: CIFDUS_clean_linker_0, # of connection points: 2
#     Edge 48, Type (0, 0), BuildingBlock: CIFDUS_clean_linker_0, # of connection points: 2
#     Edge 49, Type (0, 0), BuildingBlock: CIFDUS_clean_linker_0, # of connection points: 2
#     Edge 50, Type (0, 0), BuildingBlock: CIFDUS_clean_linker_0, # of connection points: 2
#     Edge 51, Type (0, 0), BuildingBlock: CIFDUS_clean_linker_0, # of connection points: 2
#     Edge 52, Type (0, 0), BuildingBlock: CIFDUS_clean_linker_0, # of connection points: 2
#     Edge 53, Type (0, 0), BuildingBlock: CIFDUS_clean_linker_0, # of connection points: 2
#     Edge 54, Type (0, 0), BuildingBlock: CIFDUS_clean_linker_0, # of connection points: 2
#     Edge 55, Type (0, 0), BuildingBlock: CIFDUS_clean_linker_0, # of connection points: 2
#     Edge 56, Type (0, 0), BuildingBlock: CIFDUS_clean_linker_0, # of connection points: 2
#     Edge 57, Type (0, 0), BuildingBlock: CIFDUS_clean_linker_0, # of connection points: 2
#     Edge 58, Type (0, 0), BuildingBlock: CIFDUS_clean_linker_0, # of connection points: 2
#     Edge 59, Type (0, 0), BuildingBlock: CIFDUS_clean_linker_0, # of connection points: 2
#     Edge 60, Type (0, 0), BuildingBlock: CIFDUS_clean_linker_0, # of connection points: 2
#     Edge 61, Type (0, 0), BuildingBlock: CIFDUS_clean_linker_0, # of connection points: 2
#     Edge 62, Type (0, 0), BuildingBlock: CIFDUS_clean_linker_0, # of connection points: 2
#     Edge 63, Type (0, 0), BuildingBlock: CIFDUS_clean_linker_0, # of connection points: 2
#     Edge 64, Type (0, 0), BuildingBlock: CIFDUS_clean_linker_0, # of connection points: 2
#     Edge 65, Type (0, 0), BuildingBlock: CIFDUS_clean_linker_0, # of connection points: 2
#     Edge 66, Type (0, 0), BuildingBlock: CIFDUS_clean_linker_0, # of connection points: 2
#     Edge 67, Type (0, 0), BuildingBlock: CIFDUS_clean_linker_0, # of connection points: 2
#     Edge 68, Type (0, 0), BuildingBlock: CIFDUS_clean_linker_0, # of connection points: 2
#     Edge 69, Type (0, 0), BuildingBlock: CIFDUS_clean_linker_0, # of connection points: 2
#     Edge 70, Type (0, 0), BuildingBlock: CIFDUS_clean_linker_0, # of connection points: 2
#     Edge 71, Type (0, 0), BuildingBlock: CIFDUS_clean_linker_0, # of connection points: 2
#     Edge 72, Type (0, 0), BuildingBlock: CIFDUS_clean_linker_0, # of connection points: 2
#     Edge 73, Type (0, 0), BuildingBlock: CIFDUS_clean_linker_0, # of connection points: 2
#     Edge 74, Type (0, 0), BuildingBlock: CIFDUS_clean_linker_0, # of connection points: 2
#     Edge 75, Type (0, 0), BuildingBlock: CIFDUS_clean_linker_0, # of connection points: 2
#     Edge 76, Type (0, 0), BuildingBlock: CIFDUS_clean_linker_0, # of connection points: 2
#     Edge 77, Type (0, 0), BuildingBlock: CIFDUS_clean_linker_0, # of connection points: 2
#     Edge 78, Type (0, 0), BuildingBlock: CIFDUS_clean_linker_0, # of connection points: 2
#     Edge 79, Type (0, 0), BuildingBlock: CIFDUS_clean_linker_0, # of connection points: 2
#     Edge 80, Type (0, 0), BuildingBlock: CIFDUS_clean_linker_0, # of connection points: 2
#     Edge 81, Type (0, 0), BuildingBlock: CIFDUS_clean_linker_0, # of connection points: 2
#     Edge 82, Type (0, 0), BuildingBlock: CIFDUS_clean_linker_0, # of connection points: 2
#     Edge 83, Type (0, 0), BuildingBlock: CIFDUS_clean_linker_0, # of connection points: 2
#     Edge 84, Type (0, 0), BuildingBlock: CIFDUS_clean_linker_0, # of connection points: 2
#     Edge 85, Type (0, 0), BuildingBlock: CIFDUS_clean_linker_0, # of connection points: 2
#     Edge 86, Type (0, 0), BuildingBlock: CIFDUS_clean_linker_0, # of connection points: 2
#     Edge 87, Type (0, 0), BuildingBlock: CIFDUS_clean_linker_0, # of connection points: 2
#     Edge 88, Type (0, 0), BuildingBlock: CIFDUS_clean_linker_0, # of connection points: 2
#     Edge 89, Type (0, 0), BuildingBlock: CIFDUS_clean_linker_0, # of connection points: 2
#     Edge 90, Type (0, 0), BuildingBlock: CIFDUS_clean_linker_0, # of connection points: 2
#     Edge 91, Type (0, 0), BuildingBlock: CIFDUS_clean_linker_0, # of connection points: 2
#     Edge 92, Type (0, 0), BuildingBlock: CIFDUS_clean_linker_0, # of connection points: 2
#     Edge 93, Type (0, 0), BuildingBlock: CIFDUS_clean_linker_0, # of connection points: 2
#     Edge 94, Type (0, 0), BuildingBlock: CIFDUS_clean_linker_0, # of connection points: 2
#     Edge 95, Type (0, 0), BuildingBlock: CIFDUS_clean_linker_0, # of connection points: 2
# Relax obj value: 0.110
# Max RMSD: 0.249
# Mean RMSD: 0.248
data_MOF--net-uoa--node1-MUDLON_clean_sbu_0--edge1-CIFDUS_clean_linker_0
_symmetry_space_group_name_H-M    P1
_symmetry_Int_Tables_number       1
_symmetry_cell_setting            triclinic
loop_
_symmetry_equiv_pos_as_xyz
'x, y, z'
_cell_length_a     69.76042
_cell_length_b     69.7696
_cell_length_c     26.157008
_cell_angle_alpha  90.193615
_cell_angle_beta   89.974165
_cell_angle_gamma 90.127301
loop_
_atom_site_label
_atom_site_type_symbol
_atom_site_fract_x
_atom_site_fract_y
_atom_site_fract_z
_atom_type_partial_charge
Mg0 Mg 0.03049 0.08832 0.07385 0.0
C1 C 0.02019 0.04684 0.08821 0.0
O2 O 0.00955 0.05472 0.12395 0.0
C3 C 0.05477 0.12186 0.07418 0.0
O4 O 0.03774 0.12747 0.05897 0.0
C5 C 0.00615 0.08648 0.9793 0.0
O6 O 1.00026 0.07109 1.00351 0.0
O7 O 0.01785 0.0977 1.00173 0.0
O8 O 0.03213 0.05729 0.06412 0.0
O9 O 0.01373 0.09479 0.14231 0.0
C10 C 0.02305 0.0974 0.18366 0.0
O11 O 0.04185 0.09668 0.18229 0.0
O12 O 0.05729 0.10412 0.08286 0.0
Mg13 Mg 0.15746 0.77614 0.31976 0.0
C14 C 0.15806 0.75179 0.41674 0.0
O15 O 0.17242 0.74365 0.39254 0.0
C16 C 0.14092 0.77144 0.2138 0.0
O17 O 0.14291 0.79016 0.21571 0.0
C18 C 0.14544 0.81502 0.35979 0.0
O19 O 0.15009 0.80683 0.40321 0.0
O20 O 0.14828 0.80593 0.31824 0.0
O21 O 0.14868 0.76492 0.39431 0.0
O22 O 0.18841 0.77202 0.31106 0.0
C23 C 0.19511 0.76861 0.26666 0.0
O24 O 0.18352 0.7694 0.22722 0.0
O25 O 0.14456 0.76171 0.2538 0.0
Mg26 Mg 0.48789 0.90688 0.57775 0.0
C27 C 0.50426 0.94468 0.56013 0.0
O28 O 0.51901 0.93365 0.57024 0.0
C29 C 0.46131 0.87475 0.57984 0.0
O30 O 0.47757 0.86774 0.56276 0.0
C31 C 0.48999 0.89615 0.46976 0.0
O32 O 0.47292 0.90391 0.47427 0.0
O33 O 0.50044 0.89477 0.50937 0.0
O34 O 0.48751 0.9374 0.56194 0.0
O35 O 0.50582 0.9028 0.64455 0.0
C36 C 0.50005 0.893 0.68247 0.0
O37 O 0.48341 0.88423 0.67974 0.0
O38 O 0.46047 0.89257 0.58995 0.0
Mg39 Mg 0.3441 0.22806 0.82118 0.0
C40 C 0.35336 0.23666 0.93078 0.0
O41 O 0.35536 0.21796 0.92966 0.0
C42 C 0.3541 0.23001 0.71214 0.0
O43 O 0.35262 0.21153 0.72085 0.0
C44 C 0.35832 0.18638 0.84648 0.0
O45 O 0.34174 0.18321 0.86879 0.0
O46 O 0.36159 0.20248 0.82563 0.0
O47 O 0.34911 0.24534 0.88957 0.0
O48 O 0.31346 0.22394 0.81335 0.0
C49 C 0.30479 0.23948 0.80287 0.0
O50 O 0.31487 0.25539 0.80029 0.0
O51 O 0.35202 0.24159 0.74945 0.0
Mg52 Mg 0.02977 0.9091 0.45534 0.0
C53 C 0.00969 0.94571 0.46544 0.0
O54 O 0.99624 0.93359 0.45129 0.0
C55 C 0.06783 0.89587 0.40936 0.0
O56 O 0.05944 0.90086 0.36649 0.0
C57 C 0.02886 0.89443 0.56208 0.0
O58 O 0.04726 0.89613 0.55251 0.0
O59 O 0.01702 0.89739 0.52572 0.0
O60 O 0.02684 0.93965 0.46917 0.0
O61 O 0.01739 0.90458 0.37889 0.0
C62 C 0.01536 0.88897 0.35403 0.0
O63 O 0.01872 0.87257 0.37684 0.0
O64 O 0.05925 0.89892 0.45153 0.0
Mg65 Mg 0.34202 0.78862 0.71398 0.0
C66 C 0.34561 0.77918 0.6039 0.0
O67 O 0.34199 0.79766 0.60397 0.0
C68 C 0.34971 0.78872 0.82468 0.0
O69 O 0.34351 0.80614 0.81556 0.0
C70 C 0.37461 0.81118 0.6836 0.0
O71 O 0.37998 0.79314 0.68192 0.0
O72 O 0.35772 0.81497 0.69875 0.0
O73 O 0.34662 0.77051 0.64663 0.0
O74 O 0.31121 0.79078 0.72353 0.0
C75 C 0.30413 0.77523 0.74062 0.0
O76 O 0.31575 0.76078 0.74911 0.0
O77 O 0.35181 0.77728 0.78705 0.0
Mg78 Mg 0.46983 0.08597 0.9508 0.0
C79 C 0.49156 0.05182 0.974 0.0
O80 O 0.50433 0.06556 0.96881 0.0
C81 C 0.44051 0.11313 0.92334 0.0
O82 O 0.45697 0.12193 0.91615 0.0
C83 C 0.47208 0.10021 0.05647 0.0
O84 O 0.45505 0.09213 0.0553 0.0
O85 O 0.48189 0.10075 0.01561 0.0
O86 O 0.47395 0.05586 0.96735 0.0
O87 O 0.48597 0.09242 0.88236 0.0
C88 C 0.47724 0.09174 0.83978 0.0
O89 O 0.45896 0.08714 0.83906 0.0
O90 O 0.44068 0.09608 0.94024 0.0
Mg91 Mg 0.16446 0.22021 0.20708 0.0
C92 C 0.15811 0.2274 0.09692 0.0
O93 O 0.16401 0.20952 0.09752 0.0
C94 C 0.14658 0.22146 0.31271 0.0
O95 O 0.14344 0.20328 0.30247 0.0
C96 C 0.13457 0.19365 0.18027 0.0
O97 O 0.12712 0.21094 0.17952 0.0
O98 O 0.15195 0.19187 0.19418 0.0
O99 O 0.15677 0.23645 0.13911 0.0
O100 O 0.19532 0.22316 0.21662 0.0
C101 C 0.20114 0.24032 0.2103 0.0
O102 O 0.18875 0.25325 0.19506 0.0
O103 O 0.15365 0.23216 0.27817 0.0
Mg104 Mg 0.98446 0.90757 0.95619 0.0
C105 C 0.98561 0.90492 0.84465 0.0
O106 O 0.96868 0.91183 0.85666 0.0
C107 C 0.00822 0.90955 0.05271 0.0
O108 O 0.01343 0.92544 0.02976 0.0
C109 C 0.95806 0.87532 0.96039 0.0
O110 O 0.9746 0.86865 0.97639 0.0
O111 O 0.9568 0.89311 0.95065 0.0
O112 O 0.99726 0.90126 0.88095 0.0
O113 O 0.98347 0.93862 0.96628 0.0
C114 C 0.99569 0.94889 0.94266 0.0
O115 O 0.00647 0.94084 0.90748 0.0
O116 O 0.99768 0.89773 0.02824 0.0
Mg117 Mg 0.84011 0.21789 0.69826 0.0
C118 C 0.80196 0.23264 0.72082 0.0
O119 O 0.81336 0.2476 0.72473 0.0
C120 C 0.87177 0.19338 0.6679 0.0
O121 O 0.87801 0.21104 0.66253 0.0
C122 C 0.8568 0.22065 0.80491 0.0
O123 O 0.86043 0.2025 0.79567 0.0
O124 O 0.84979 0.23092 0.76943 0.0
O125 O 0.80923 0.21657 0.70821 0.0
O126 O 0.84539 0.23504 0.63007 0.0
C127 C 0.8445 0.22611 0.58756 0.0
O128 O 0.84041 0.20772 0.58781 0.0
O129 O 0.85495 0.1908 0.68542 0.0
Mg130 Mg 0.52169 0.09082 0.44595 0.0
C131 C 0.51169 0.10393 0.34001 0.0
O132 O 0.52992 0.10866 0.34078 0.0
C133 C 0.51635 0.09967 0.5555 0.0
O134 O 0.53457 0.09497 0.55401 0.0
C135 C 0.54638 0.12443 0.44931 0.0
O136 O 0.52964 0.1303 0.46611 0.0
O137 O 0.54837 0.10678 0.4382 0.0
O138 O 0.50422 0.09643 0.3795 0.0
O139 O 0.52301 0.06 0.45643 0.0
C140 C 0.50639 0.05241 0.45664 0.0
O141 O 0.49151 0.06338 0.44737 0.0
O142 O 0.50696 0.10022 0.51396 0.0
Mg143 Mg 0.66645 0.77707 0.18055 0.0
C144 C 0.70204 0.75672 0.20504 0.0
O145 O 0.6894 0.74282 0.20064 0.0
C146 C 0.64817 0.8171 0.18228 0.0
O147 O 0.64311 0.81232 0.2289 0.0
C148 C 0.65824 0.7752 0.29149 0.0
O149 O 0.67138 0.7887 0.28954 0.0
O150 O 0.65216 0.76796 0.24986 0.0
O151 O 0.69666 0.77387 0.19714 0.0
O152 O 0.66009 0.75819 0.11665 0.0
C153 C 0.64962 0.7641 0.08018 0.0
O154 O 0.64161 0.78107 0.08383 0.0
O155 O 0.65862 0.80575 0.15642 0.0
Mg156 Mg 0.97977 0.09025 0.58006 0.0
C157 C 0.99633 0.10809 0.68031 0.0
O158 O 0.99574 0.12462 0.65647 0.0
C159 C 0.98696 0.09913 0.47306 0.0
O160 O 0.96922 0.09279 0.47473 0.0
C161 C 0.95448 0.12327 0.5723 0.0
O162 O 0.97142 0.12945 0.55775 0.0
O163 O 0.95261 0.10561 0.5833 0.0
O164 O 0.99186 0.09281 0.65648 0.0
O165 O 0.97965 0.05966 0.56416 0.0
C166 C 0.99663 0.05311 0.5676 0.0
O167 O 0.01037 0.06487 0.58195 0.0
O168 O 0.99612 0.10089 0.51496 0.0
Mg169 Mg 0.65896 0.21936 0.31512 0.0
C170 C 0.69723 0.23329 0.28917 0.0
O171 O 0.68655 0.24878 0.28982 0.0
C172 C 0.62757 0.19501 0.34604 0.0
O173 O 0.62219 0.2127 0.3557 0.0
C174 C 0.64917 0.22536 0.20683 0.0
O175 O 0.65621 0.20791 0.20748 0.0
O176 O 0.64749 0.23435 0.24905 0.0
O177 O 0.68943 0.21727 0.29969 0.0
O178 O 0.65574 0.23358 0.38903 0.0
C179 C 0.66043 0.22294 0.42644 0.0
O180 O 0.66718 0.20575 0.4165 0.0
O181 O 0.64373 0.19235 0.32467 0.0
Mg182 Mg 0.53333 0.90983 0.08184 0.0
C183 C 0.52141 0.89044 0.17901 0.0
O184 O 0.53854 0.88296 0.17331 0.0
C185 C 0.53351 0.90197 0.97129 0.0
O186 O 0.54545 0.91649 0.97551 0.0
C187 C 0.57365 0.89318 0.0819 0.0
O188 O 0.56855 0.88739 0.03606 0.0
O189 O 0.5624 0.90397 0.10708 0.0
O190 O 0.5149 0.90141 0.14444 0.0
O191 O 0.52727 0.93973 0.0668 0.0
C192 C 0.5097 0.94329 0.058 0.0
O193 O 0.49726 0.92914 0.06032 0.0
O194 O 0.52621 0.89498 0.01168 0.0
Mg195 Mg 0.84508 0.78404 0.80958 0.0
C196 C 0.80692 0.76897 0.78932 0.0
O197 O 0.81848 0.75418 0.78558 0.0
C198 C 0.877 0.80804 0.84126 0.0
O199 O 0.88318 0.79028 0.84391 0.0
C200 C 0.86252 0.7811 0.70278 0.0
O201 O 0.86797 0.79873 0.71298 0.0
O202 O 0.85425 0.77135 0.73745 0.0
O203 O 0.81408 0.78522 0.80109 0.0
O204 O 0.85056 0.76642 0.87678 0.0
C205 C 0.85008 0.77521 0.91954 0.0
O206 O 0.84616 0.79362 0.91997 0.0
O207 O 0.86018 0.81097 0.82426 0.0
Mg208 Mg 0.51981 0.59649 0.57799 0.0
C209 C 0.50365 0.55845 0.56913 0.0
O210 O 0.48932 0.56982 0.58102 0.0
C211 C 0.54353 0.63047 0.57939 0.0
O212 O 0.52602 0.63611 0.56866 0.0
C213 C 0.51412 0.60557 0.46878 0.0
O214 O 0.53242 0.60115 0.46972 0.0
O215 O 0.50487 0.60597 0.51059 0.0
O216 O 0.52045 0.5656 0.56686 0.0
O217 O 0.50256 0.60225 0.64502 0.0
C218 C 0.5103 0.60848 0.68578 0.0
O219 O 0.52881 0.61193 0.68623 0.0
O220 O 0.5465 0.61261 0.58488 0.0
Mg221 Mg 0.65562 0.27354 0.81099 0.0
C222 C 0.6463 0.26439 0.92043 0.0
O223 O 0.64487 0.28314 0.92071 0.0
C224 C 0.64546 0.2715 0.70085 0.0
O225 O 0.64515 0.29004 0.70982 0.0
C226 C 0.64053 0.31512 0.83883 0.0
O227 O 0.65671 0.31842 0.86302 0.0
O228 O 0.63796 0.29917 0.81609 0.0
O229 O 0.65013 0.25591 0.87844 0.0
O230 O 0.68653 0.27655 0.80447 0.0
C231 C 0.69422 0.26045 0.79409 0.0
O232 O 0.68312 0.24524 0.79128 0.0
O233 O 0.64839 0.26015 0.73807 0.0
Mg234 Mg 0.97157 0.41539 0.07403 0.0
C235 C 0.9905 0.4516 0.05415 0.0
O236 O 0.00433 0.43898 0.05927 0.0
C237 C 0.94273 0.38678 0.10418 0.0
O238 O 0.959 0.37913 0.11887 0.0
C239 C 0.97675 0.40391 0.96599 0.0
O240 O 0.95908 0.41041 0.96551 0.0
O241 O 0.98558 0.40304 1.00836 0.0
O242 O 0.97326 0.44598 0.05992 0.0
O243 O 0.98816 0.40961 0.14212 0.0
C244 C 0.97996 0.41031 0.18545 0.0
O245 O 0.96162 0.41448 0.18775 0.0
O246 O 0.94307 0.40301 0.08221 0.0
Mg247 Mg 0.84768 0.73145 0.31377 0.0
C248 C 0.84142 0.7393 0.42356 0.0
O249 O 0.82653 0.72882 0.4104 0.0
C250 C 0.85735 0.73777 0.20626 0.0
O251 O 0.85137 0.71991 0.20764 0.0
C252 C 0.86133 0.69244 0.3502 0.0
O253 O 0.85521 0.6992 0.39416 0.0
O254 O 0.8592 0.7025 0.31018 0.0
O255 O 0.85356 0.74377 0.38921 0.0
O256 O 0.81708 0.73303 0.30072 0.0
C257 C 0.81094 0.75015 0.29778 0.0
O258 O 0.82309 0.7643 0.3053 0.0
O259 O 0.85879 0.74698 0.24821 0.0
Mg260 Mg 0.52643 0.41397 0.94412 0.0
C261 C 0.50824 0.45264 0.93586 0.0
O262 O 0.4964 0.44217 0.90844 0.0
C263 C 0.55618 0.38665 0.91478 0.0
O264 O 0.53993 0.37755 0.90691 0.0
C265 C 0.50194 0.41 0.03855 0.0
O266 O 0.49136 0.42183 0.01172 0.0
O267 O 0.51681 0.40284 0.01788 0.0
O268 O 0.5234 0.44489 0.95327 0.0
O269 O 0.51016 0.4054 0.87593 0.0
C270 C 0.51885 0.40717 0.83328 0.0
O271 O 0.53657 0.4136 0.83334 0.0
O272 O 0.55562 0.40364 0.93249 0.0
Mg273 Mg 0.84404 0.27154 0.19248 0.0
C274 C 0.83876 0.26588 0.08168 0.0
O275 O 0.82602 0.27899 0.09356 0.0
C276 C 0.85171 0.2636 0.30031 0.0
O277 O 0.84768 0.28198 0.29924 0.0
C278 C 0.8598 0.31184 0.16568 0.0
O279 O 0.8465 0.31188 0.13016 0.0
O280 O 0.86081 0.29779 0.19641 0.0
O281 O 0.84889 0.25877 0.11733 0.0
O282 O 0.81335 0.27442 0.20356 0.0
C283 C 0.80511 0.25834 0.2105 0.0
O284 O 0.81553 0.24269 0.20819 0.0
O285 O 0.85244 0.25445 0.25814 0.0
Mg286 Mg 0.97613 0.59732 0.44381 0.0
C287 C 0.9908 0.55945 0.4734 0.0
O288 O 0.00596 0.57055 0.47769 0.0
C289 C 0.93807 0.61063 0.39539 0.0
O290 O 0.94465 0.60257 0.35348 0.0
C291 C 0.97838 0.60743 0.55206 0.0
O292 O 0.96166 0.59886 0.5475 0.0
O293 O 0.98858 0.60967 0.51221 0.0
O294 O 0.97509 0.56682 0.45867 0.0
O295 O 0.99357 0.60121 0.3758 0.0
C296 C 0.99127 0.61436 0.34283 0.0
O297 O 0.97828 0.62765 0.35074 0.0
O298 O 0.94788 0.60985 0.43625 0.0
Mg299 Mg 0.66236 0.72396 0.68363 0.0
C300 C 0.65431 0.73447 0.57434 0.0
O301 O 0.65209 0.7158 0.57181 0.0
C302 C 0.65282 0.72702 0.79271 0.0
O303 O 0.66151 0.71037 0.78956 0.0
C304 C 0.62956 0.6997 0.66226 0.0
O305 O 0.623 0.71732 0.66505 0.0
O306 O 0.64735 0.69697 0.66999 0.0
O307 O 0.65845 0.74217 0.61711 0.0
O308 O 0.69299 0.72286 0.69879 0.0
C309 C 0.69992 0.73895 0.71285 0.0
O310 O 0.68836 0.75376 0.71588 0.0
O311 O 0.65023 0.73657 0.752 0.0
Mg312 Mg 0.47639 0.415 0.43923 0.0
C313 C 0.50112 0.40184 0.34373 0.0
O314 O 0.51114 0.39099 0.37471 0.0
C315 C 0.48254 0.40174 0.54472 0.0
O316 O 0.46432 0.40645 0.54391 0.0
C317 C 0.44908 0.38608 0.40824 0.0
O318 O 0.46608 0.37997 0.39409 0.0
O319 O 0.44806 0.40181 0.43286 0.0
O320 O 0.48791 0.41244 0.36171 0.0
O321 O 0.47752 0.44529 0.45848 0.0
C322 C 0.4945 0.45202 0.45678 0.0
O323 O 0.50842 0.4407 0.44151 0.0
O324 O 0.49194 0.40229 0.50295 0.0
Mg325 Mg 0.34118 0.73287 0.20652 0.0
C326 C 0.29917 0.73421 0.17762 0.0
O327 O 0.30661 0.73719 0.13219 0.0
C328 C 0.35417 0.69011 0.19159 0.0
O329 O 0.33772 0.68714 0.16841 0.0
C330 C 0.34859 0.74049 0.31608 0.0
O331 O 0.34475 0.72204 0.31506 0.0
O332 O 0.34904 0.74959 0.27392 0.0
O333 O 0.31025 0.73029 0.2147 0.0
O334 O 0.34763 0.74668 0.13296 0.0
C335 C 0.35183 0.7358 0.09535 0.0
O336 O 0.35281 0.71726 0.10306 0.0
O337 O 0.35781 0.70652 0.21066 0.0
Mg338 Mg 0.02231 0.59596 0.94164 0.0
C339 C 0.00934 0.61413 0.8438 0.0
O340 O 0.02605 0.62259 0.84943 0.0
C341 C 0.02313 0.60424 0.05216 0.0
O342 O 0.03502 0.58976 0.04747 0.0
C343 C 0.06279 0.61323 0.93606 0.0
O344 O 0.05892 0.61912 0.98268 0.0
O345 O 0.0509 0.60239 0.91312 0.0
O346 O 0.00328 0.6031 0.87893 0.0
O347 O 0.0177 0.56586 0.95844 0.0
C348 C 1.00042 0.56103 0.96745 0.0
O349 O 0.98699 0.57415 0.96444 0.0
O350 O 0.01557 0.61112 0.01198 0.0
Mg351 Mg 0.15664 0.27017 0.70216 0.0
C352 C 0.1958 0.25865 0.725 0.0
O353 O 0.18597 0.24256 0.72434 0.0
C354 C 0.14002 0.30951 0.67248 0.0
O355 O 0.15333 0.30933 0.63697 0.0
C356 C 0.14762 0.26241 0.80892 0.0
O357 O 0.15056 0.28101 0.80727 0.0
O358 O 0.14804 0.25296 0.76722 0.0
O359 O 0.18708 0.27423 0.71528 0.0
O360 O 0.15277 0.25732 0.6269 0.0
C361 C 0.16337 0.26446 0.59222 0.0
O362 O 0.17611 0.27748 0.60531 0.0
O363 O 0.13923 0.2959 0.7046 0.0
Mg364 Mg 0.46604 0.59106 0.0743 0.0
C365 C 0.47399 0.59588 0.18567 0.0
O366 O 0.45592 0.59057 0.18689 0.0
C367 C 0.469 0.60476 0.96809 0.0
O368 O 0.45205 0.59648 0.96823 0.0
C369 C 0.4367 0.61814 0.10734 0.0
O370 O 0.4531 0.62674 0.11678 0.0
O371 O 0.43698 0.6016 0.08669 0.0
O372 O 0.48239 0.59734 0.14274 0.0
O373 O 0.4697 0.56081 0.05608 0.0
C374 C 0.4863 0.55418 0.06586 0.0
O375 O 0.49881 0.56537 0.08883 0.0
O376 O 0.47835 0.60568 0.00965 0.0
Mg377 Mg 0.15908 0.72513 0.82059 0.0
C378 C 0.19631 0.74437 0.8028 0.0
O379 O 0.18401 0.7574 0.78762 0.0
C380 C 0.13776 0.68656 0.82074 0.0
O381 O 0.13037 0.69298 0.77794 0.0
C382 C 0.15997 0.71984 0.71034 0.0
O383 O 0.17119 0.70664 0.72983 0.0
O384 O 0.15099 0.73082 0.74111 0.0
O385 O 0.18994 0.72863 0.8205 0.0
O386 O 0.14813 0.74326 0.88266 0.0
C387 C 0.14945 0.73515 0.92617 0.0
O388 O 0.15676 0.71785 0.92823 0.0
O389 O 0.15076 0.69627 0.843 0.0
Mg390 Mg 0.02923 0.41315 0.57467 0.0
C391 C 0.02036 0.40841 0.6858 0.0
O392 O 0.0389 0.41168 0.68819 0.0
C393 C 0.02325 0.40322 0.46566 0.0
O394 O 0.0413 0.40866 0.46531 0.0
C395 C 0.05683 0.38313 0.60528 0.0
O396 O 0.04045 0.37608 0.62155 0.0
O397 O 0.05686 0.39916 0.58232 0.0
O398 O 0.01218 0.40816 0.64244 0.0
O399 O 0.03091 0.44383 0.56312 0.0
C400 C 0.01507 0.45149 0.55054 0.0
O401 O 0.99976 0.44055 0.54705 0.0
O402 O 0.01443 0.40248 0.50808 0.0
Mg403 Mg 0.34249 0.28059 0.3274 0.0
C404 C 0.30558 0.26161 0.32353 0.0
O405 O 0.3177 0.24877 0.3408 0.0
C406 C 0.37445 0.3067 0.31783 0.0
O407 O 0.38091 0.28961 0.3056 0.0
C408 C 0.35076 0.27393 0.21925 0.0
O409 O 0.34341 0.29125 0.22089 0.0
O410 O 0.35316 0.265 0.26112 0.0
O411 O 0.31167 0.27859 0.31592 0.0
O412 O 0.34888 0.26827 0.40169 0.0
C413 C 0.34695 0.27995 0.43883 0.0
O414 O 0.34168 0.29762 0.42891 0.0
O415 O 0.35674 0.30849 0.32843 0.0
H416 H 0.98548 0.08006 0.74539 0.0
H417 H 0.01471 0.13457 0.74082 0.0
H418 H 0.01982 0.13318 0.83349 0.0
H419 H 0.01632 0.11603 0.91576 0.0
H420 H 0.98576 0.06212 0.91876 0.0
H421 H 0.98065 0.0639 0.82695 0.0
C422 C 0.99309 0.09161 0.76453 0.0
C423 C 0.99993 0.10728 0.73612 0.0
C424 C 0.99558 0.0909 0.81771 0.0
C425 C 0.0094 0.12229 0.76177 0.0
C426 C 0.01228 0.12151 0.81476 0.0
C427 C 0.0084 0.10476 0.89638 0.0
C428 C 1.00151 0.08893 0.92433 0.0
C429 C 0.00544 0.10586 0.84317 0.0
C430 C 0.99123 0.07449 0.89849 0.0
C431 C 0.98836 0.07543 0.8458 0.0
H432 H 0.14424 0.71871 0.01853 0.0
H433 H 0.143 0.77357 0.94295 0.0
H434 H 0.13825 0.78958 0.02558 0.0
H435 H 0.13748 0.78805 0.11984 0.0
H436 H 0.13943 0.73294 0.19439 0.0
H437 H 0.14066 0.71697 0.11137 0.0
C438 C 0.14279 0.73418 0.01994 0.0
C439 C 0.14422 0.74496 0.97463 0.0
C440 C 0.14024 0.74324 0.06744 0.0
C441 C 0.14201 0.76494 0.9772 0.0
C442 C 0.13937 0.7741 0.02449 0.0
C443 C 0.13789 0.77253 0.118 0.0
C444 C 0.13854 0.76174 0.16352 0.0
C445 C 0.1389 0.76341 0.06997 0.0
C446 C 0.13899 0.74163 0.16018 0.0
C447 C 0.13977 0.73248 0.11265 0.0
H448 H 0.53586 0.87735 0.26863 0.0
H449 H 0.48457 0.90073 0.20098 0.0
H450 H 0.46967 0.90287 0.28529 0.0
H451 H 0.4724 0.90105 0.37839 0.0
H452 H 0.52431 0.87929 0.44656 0.0
H453 H 0.53774 0.87347 0.36164 0.0
C454 C 0.5213 0.88261 0.27218 0.0
C455 C 0.51138 0.889 0.22863 0.0
C456 C 0.51302 0.88429 0.32087 0.0
C457 C 0.49255 0.89584 0.23395 0.0
C458 C 0.48405 0.89712 0.28215 0.0
C459 C 0.48658 0.89484 0.37477 0.0
C460 C 0.49741 0.89079 0.41876 0.0
C461 C 0.49434 0.89187 0.32594 0.0
C462 C 0.51573 0.88268 0.41331 0.0
C463 C 0.52342 0.87935 0.36477 0.0
H464 H 0.35608 0.24432 0.47418 0.0
H465 H 0.34383 0.302 0.52457 0.0
H466 H 0.34631 0.29203 0.61346 0.0
H467 H 0.35017 0.2666 0.67728 0.0
H468 H 0.36189 0.20881 0.62703 0.0
H469 H 0.36159 0.21921 0.53815 0.0
C470 C 0.35408 0.25473 0.50459 0.0
C471 C 0.34964 0.27384 0.49257 0.0
C472 C 0.35541 0.24889 0.55587 0.0
C473 C 0.34715 0.28716 0.53256 0.0
C474 C 0.34857 0.28148 0.58355 0.0
C475 C 0.35289 0.25633 0.64693 0.0
C476 C 0.35594 0.23695 0.65889 0.0
C477 C 0.35245 0.26234 0.5957 0.0
C478 C 0.35939 0.22381 0.61899 0.0
C479 C 0.3592 0.22973 0.56804 0.0
H480 H 0.01924 0.8915 0.80252 0.0
H481 H 0.96286 0.91194 0.76244 0.0
H482 H 0.97044 0.90887 0.67208 0.0
H483 H 0.99362 0.9022 0.60345 0.0
H484 H 0.05019 0.88226 0.6428 0.0
H485 H 0.0419 0.88305 0.7334 0.0
C486 C 0.00859 0.89518 0.77403 0.0
C487 C 0.99056 0.90208 0.78968 0.0
C488 C 0.01304 0.89343 0.72152 0.0
C489 C 0.97693 0.9067 0.75193 0.0
C490 C 0.98121 0.90492 0.69995 0.0
C491 C 0.00402 0.8977 0.63176 0.0
C492 C 0.02251 0.89221 0.6161 0.0
C493 C 0.99928 0.89852 0.68417 0.0
C494 C 0.03584 0.88661 0.65359 0.0
C495 C 0.03115 0.88712 0.70559 0.0
H496 H 0.35789 0.75265 0.85867 0.0
H497 H 0.34646 0.81016 0.91163 0.0
H498 H 0.34698 0.79922 1.00003 0.0
H499 H 0.34875 0.77295 0.06255 0.0
H500 H 0.36003 0.71545 0.00911 0.0
H501 H 0.36154 0.72678 0.92133 0.0
C502 C 0.35572 0.76283 0.88954 0.0
C503 C 0.35203 0.78217 0.8783 0.0
C504 C 0.35587 0.75643 0.94051 0.0
C505 C 0.34925 0.79515 0.91896 0.0
C506 C 0.3495 0.78891 0.96968 0.0
C507 C 0.3517 0.76293 0.03176 0.0
C508 C 0.35413 0.74335 0.04264 0.0
C509 C 0.35249 0.76952 0.98095 0.0
C510 C 0.35799 0.7306 1.0021 0.0
C511 C 0.35886 0.73705 0.95167 0.0
H512 H 0.45663 0.09625 0.151 0.0
H513 H 0.50737 0.11623 0.07279 0.0
H514 H 0.52354 0.12086 0.15466 0.0
H515 H 0.52433 0.11619 0.24747 0.0
H516 H 0.47396 0.09499 0.32515 0.0
H517 H 0.45656 0.09402 0.24432 0.0
C518 C 0.47114 0.10187 0.15181 0.0
C519 C 0.48084 0.10568 0.10583 0.0
C520 C 0.48048 0.10411 0.19888 0.0
C521 C 0.4996 0.11305 0.10763 0.0
C522 C 0.50889 0.11565 0.15442 0.0
C523 C 0.50948 0.11155 0.24686 0.0
C524 C 0.50054 0.10545 0.29219 0.0
C525 C 0.49964 0.11073 0.20016 0.0
C526 C 0.48125 0.09961 0.29074 0.0
C527 C 0.47128 0.09903 0.24453 0.0
H528 H 0.14161 0.23552 0.55113 0.0
H529 H 0.17978 0.28184 0.51035 0.0
H530 H 0.17642 0.27373 0.4203 0.0
H531 H 0.16391 0.25282 0.35316 0.0
H532 H 0.12711 0.20535 0.39265 0.0
H533 H 0.12844 0.21475 0.48283 0.0
C534 C 0.14914 0.24385 0.5225 0.0
C535 C 0.161 0.2592 0.53765 0.0
C536 C 0.14733 0.23898 0.47042 0.0
C537 C 0.17066 0.26985 0.49999 0.0
C538 C 0.16871 0.26528 0.44832 0.0
C539 C 0.15593 0.24468 0.38133 0.0
C540 C 0.14537 0.22845 0.36614 0.0
C541 C 0.15721 0.24981 0.43312 0.0
C542 C 0.13534 0.21792 0.40333 0.0
C543 C 0.13615 0.22324 0.45494 0.0
H544 H 0.02451 0.91783 0.28938 0.0
H545 H 0.99971 0.8612 0.29205 0.0
H546 H 0.99566 0.86208 0.19888 0.0
H547 H 0.99901 0.87931 0.11619 0.0
H548 H 0.02569 0.93525 0.11557 0.0
H549 H 0.02931 0.93411 0.20782 0.0
C550 C 0.01805 0.90572 0.2697 0.0
C551 C 0.01214 0.88959 0.29782 0.0
C552 C 0.01628 0.90612 0.21615 0.0
C553 C 0.00425 0.87386 0.27141 0.0
C554 C 0.00198 0.87434 0.21808 0.0
C555 C 0.00577 0.89116 0.1362 0.0
C556 C 0.01201 0.90736 0.10852 0.0
C557 C 0.00798 0.89041 0.18992 0.0
C558 C 0.02076 0.92256 0.13539 0.0
C559 C 0.02278 0.92199 0.18843 0.0
H560 H 0.86065 0.23665 0.04278 0.0
H561 H 0.82297 0.28269 0.99823 0.0
H562 H 0.82664 0.27383 0.90876 0.0
H563 H 0.83927 0.2523 0.84311 0.0
H564 H 0.87575 0.20524 0.8865 0.0
H565 H 0.87404 0.21536 0.97604 0.0
C566 C 0.85331 0.24477 0.01346 0.0
C567 C 0.84148 0.26025 0.02741 0.0
C568 C 0.85531 0.23947 0.96169 0.0
C569 C 0.83206 0.27061 0.98883 0.0
C570 C 0.83418 0.26561 0.93748 0.0
C571 C 0.84709 0.2444 0.87199 0.0
C572 C 0.85767 0.22807 0.85805 0.0
C573 C 0.84563 0.24999 0.92348 0.0
C574 C 0.8675 0.21788 0.89617 0.0
C575 C 0.86647 0.22362 0.94744 0.0
H576 H 0.46169 0.09809 0.74654 0.0
H577 H 0.51595 0.09372 0.82485 0.0
H578 H 0.53294 0.09739 0.74377 0.0
H579 H 0.53227 0.09954 0.65019 0.0
H580 H 0.47793 0.10388 0.57209 0.0
H581 H 0.46109 0.10277 0.65377 0.0
C582 C 0.47723 0.09802 0.74591 0.0
C583 C 0.48754 0.09539 0.79149 0.0
C584 C 0.48689 0.10013 0.69926 0.0
C585 C 0.50768 0.09563 0.79021 0.0
C586 C 0.5174 0.09769 0.74387 0.0
C587 C 0.51675 0.10044 0.65104 0.0
C588 C 0.50638 0.10157 0.60508 0.0
C589 C 0.50714 0.09962 0.69809 0.0
C590 C 0.48628 0.10292 0.60688 0.0
C591 C 0.47662 0.1022 0.65357 0.0
H592 H 0.63973 0.72384 0.48243 0.0
H593 H 0.66744 0.77102 0.56007 0.0
H594 H 0.6696 0.78856 0.47956 0.0
H595 H 0.66614 0.78925 0.38614 0.0
H596 H 0.63833 0.74205 0.30867 0.0
H597 H 0.63349 0.72587 0.39029 0.0
C598 C 0.64611 0.73803 0.48183 0.0
C599 C 0.65365 0.746 0.52703 0.0
C600 C 0.64734 0.748 0.43545 0.0
C601 C 0.6616 0.76452 0.52578 0.0
C602 C 0.6629 0.77454 0.47972 0.0
C603 C 0.65882 0.77552 0.38714 0.0
C604 C 0.65282 0.76677 0.34129 0.0
C605 C 0.65619 0.76623 0.43416 0.0
C606 C 0.64316 0.74909 0.34334 0.0
C607 C 0.64046 0.73978 0.39 0.0
H608 H 0.97024 0.09781 0.37949 0.0
H609 H 0.02483 0.10688 0.45344 0.0
H610 H 0.0406 0.10826 0.36995 0.0
H611 H 0.03914 0.1047 0.27647 0.0
H612 H 0.98453 0.09515 0.20294 0.0
H613 H 0.9685 0.09623 0.28597 0.0
C614 C 0.98558 0.10025 0.37747 0.0
C615 C 0.99636 0.10209 0.42279 0.0
C616 C 0.99456 0.10082 0.32943 0.0
C617 C 0.01619 0.10539 0.41926 0.0
C618 C 0.02523 0.1061 0.37151 0.0
C619 C 0.02371 0.10298 0.27847 0.0
C620 C 0.01308 0.09969 0.23344 0.0
C621 C 0.01459 0.10349 0.32641 0.0
C622 C 0.99308 0.09764 0.23688 0.0
C623 C 0.9839 0.09822 0.2844 0.0
H624 H 0.65182 0.20974 0.11171 0.0
H625 H 0.63813 0.2625 0.19024 0.0
H626 H 0.63491 0.27886 0.10823 0.0
H627 H 0.63798 0.27867 0.01471 0.0
H628 H 0.65221 0.22604 0.93627 0.0
H629 H 0.65309 0.20913 0.01792 0.0
C630 C 0.64797 0.22479 0.111 0.0
C631 C 0.64535 0.23489 0.15722 0.0
C632 C 0.64633 0.23415 0.06372 0.0
C633 C 0.64027 0.25436 0.15537 0.0
C634 C 0.63848 0.26375 0.10844 0.0
C635 C 0.64114 0.26346 0.01532 0.0
C636 C 0.64516 0.25368 0.96931 0.0
C637 C 0.64179 0.25386 0.06244 0.0
C638 C 0.64911 0.23395 0.97099 0.0
C639 C 0.64966 0.22427 0.01772 0.0
H640 H 0.4906 0.87543 0.7717 0.0
H641 H 0.53332 0.91221 0.70334 0.0
H642 H 0.54847 0.91679 0.78651 0.0
H643 H 0.54779 0.91282 0.87944 0.0
H644 H 0.50475 0.87663 0.94838 0.0
H645 H 0.49164 0.86921 0.86399 0.0
C646 C 0.50336 0.88427 0.77483 0.0
C647 C 0.51066 0.89365 0.73141 0.0
C648 C 0.51187 0.88705 0.82291 0.0
C649 C 0.5273 0.90492 0.73616 0.0
C650 C 0.53596 0.9076 0.78375 0.0
C651 C 0.53566 0.90315 0.87603 0.0
C652 C 0.52712 0.89548 0.92019 0.0
C653 C 0.52808 0.89913 0.82753 0.0
C654 C 0.51155 0.8828 0.91503 0.0
C655 C 0.504 0.8786 0.86679 0.0
H656 H 0.84131 0.7522 0.66233 0.0
H657 H 0.88409 0.79435 0.62279 0.0
H658 H 0.88202 0.78473 0.53283 0.0
H659 H 0.8667 0.76535 0.46456 0.0
H660 H 0.82262 0.72464 0.50545 0.0
H661 H 0.82652 0.73275 0.59533 0.0
C662 C 0.8504 0.75911 0.63421 0.0
C663 C 0.8629 0.77391 0.64936 0.0
C664 C 0.84873 0.75391 0.5825 0.0
C665 C 0.87436 0.78289 0.61218 0.0
C666 C 0.87313 0.77744 0.56068 0.0
C667 C 0.85802 0.75823 0.4932 0.0
C668 C 0.84433 0.74447 0.47808 0.0
C669 C 0.86014 0.76316 0.54523 0.0
C670 C 0.83316 0.7354 0.51575 0.0
C671 C 0.83541 0.73997 0.56734 0.0
H672 H 0.45871 0.602 0.27947 0.0
H673 H 0.51271 0.59856 0.19941 0.0
H674 H 0.52997 0.60284 0.27995 0.0
H675 H 0.52965 0.60539 0.37354 0.0
H676 H 0.47556 0.60892 0.45334 0.0
H677 H 0.45841 0.60704 0.37223 0.0
C678 C 0.47426 0.60225 0.27962 0.0
C679 C 0.48442 0.59973 0.2337 0.0
C680 C 0.48406 0.60476 0.32594 0.0
C681 C 0.50456 0.60039 0.23433 0.0
C682 C 0.51443 0.60281 0.28035 0.0
C683 C 0.51411 0.60596 0.37319 0.0
C684 C 0.50391 0.60709 0.41948 0.0
C685 C 0.50432 0.60471 0.32646 0.0
C686 C 0.48378 0.60798 0.41829 0.0
C687 C 0.47395 0.60682 0.37194 0.0
H688 H 0.64617 0.25697 0.46227 0.0
H689 H 0.66881 0.20261 0.51215 0.0
H690 H 0.66489 0.2122 0.60107 0.0
H691 H 0.65611 0.23636 0.66521 0.0
H692 H 0.63418 0.29105 0.61601 0.0
H693 H 0.63653 0.28091 0.5268 0.0
C694 C 0.65023 0.24723 0.49259 0.0
C695 C 0.65787 0.22915 0.48033 0.0
C696 C 0.64798 0.25284 0.54401 0.0
C697 C 0.66298 0.21667 0.52025 0.0
C698 C 0.6607 0.22211 0.57129 0.0
C699 C 0.65161 0.24597 0.63502 0.0
C700 C 0.64497 0.26443 0.64736 0.0
C701 C 0.65332 0.24019 0.58367 0.0
C702 C 0.63937 0.27676 0.60764 0.0
C703 C 0.64076 0.271 0.55653 0.0
H704 H 0.03405 0.40091 0.78061 0.0
H705 H 0.98146 0.40943 0.69692 0.0
H706 H 0.96309 0.40707 0.77616 0.0
H707 H 0.96223 0.40492 0.86972 0.0
H708 H 0.01488 0.39637 0.95329 0.0
H709 H 0.03291 0.3961 0.87338 0.0
C710 C 0.01856 0.40217 0.77967 0.0
C711 C 0.00916 0.40559 0.7331 0.0
C712 C 0.00809 0.40076 0.8253 0.0
C713 C 0.98906 0.40689 0.73235 0.0
C714 C 0.97854 0.40556 0.77764 0.0
C715 C 0.97762 0.40277 0.87046 0.0
C716 C 0.98719 0.40088 0.91746 0.0
C717 C 0.98794 0.40282 0.82442 0.0
C718 C 0.00713 0.39793 0.91767 0.0
C719 C 0.01749 0.39787 0.872 0.0
H720 H 0.85677 0.72137 0.11196 0.0
H721 H 0.86233 0.77611 0.18808 0.0
H722 H 0.86146 0.79239 0.10553 0.0
H723 H 0.85676 0.79121 0.01254 0.0
H724 H 0.85111 0.73651 0.93637 0.0
H725 H 0.85442 0.72007 0.01834 0.0
C726 C 0.85799 0.73686 0.11055 0.0
C727 C 0.85946 0.74751 0.15627 0.0
C728 C 0.85729 0.74614 0.06301 0.0
C729 C 0.86118 0.76755 0.15358 0.0
C730 C 0.86058 0.77688 0.10637 0.0
C731 C 0.85632 0.77568 0.01377 0.0
C732 C 0.85345 0.7651 0.96843 0.0
C733 C 0.85823 0.76634 0.06098 0.0
C734 C 0.85322 0.74499 0.97068 0.0
C735 C 0.85508 0.73559 0.01756 0.0
H736 H 0.52474 0.39296 0.1107 0.0
H737 H 0.4707 0.42217 0.09175 0.0
H738 H 0.4658 0.42211 0.18392 0.0
H739 H 0.47735 0.41524 0.27006 0.0
H740 H 0.53115 0.38588 0.2907 0.0
H741 H 0.53564 0.38459 0.19785 0.0
C742 C 0.51178 0.39909 0.12667 0.0
C743 C 0.49815 0.40762 0.09411 0.0
C744 C 0.50909 0.3992 0.18012 0.0
C745 C 0.48147 0.41555 0.11568 0.0
C746 C 0.47867 0.41559 0.16852 0.0
C747 C 0.49011 0.40859 0.25439 0.0
C748 C 0.504 0.40087 0.28747 0.0
C749 C 0.49251 0.40776 0.20112 0.0
C750 C 0.52028 0.39204 0.26624 0.0
C751 C 0.52284 0.39127 0.21309 0.0
H752 H 0.85241 0.27977 0.39487 0.0
H753 H 0.85365 0.22495 0.31787 0.0
H754 H 0.85225 0.20859 0.4003 0.0
H755 H 0.84875 0.20989 0.4937 0.0
H756 H 0.84743 0.26471 0.57063 0.0
H757 H 0.85081 0.28104 0.48855 0.0
C758 C 0.85253 0.26423 0.39603 0.0
C759 C 0.85301 0.25361 0.35013 0.0
C760 C 0.85156 0.25493 0.44351 0.0
C761 C 0.85329 0.23349 0.35251 0.0
C762 C 0.8524 0.22412 0.39966 0.0
C763 C 0.84925 0.22542 0.49261 0.0
C764 C 0.84765 0.23607 0.53828 0.0
C765 C 0.8512 0.2347 0.44531 0.0
C766 C 0.84857 0.25617 0.53612 0.0
C767 C 0.85048 0.26552 0.48917 0.0
H768 H 0.02336 0.62772 0.75405 0.0
H769 H 0.97322 0.60149 0.8211 0.0
H770 H 0.95862 0.59856 0.73657 0.0
H771 H 0.96124 0.60094 0.64348 0.0
H772 H 0.01204 0.62565 0.57589 0.0
H773 H 0.0252 0.63176 0.66101 0.0
C774 C 0.0091 0.62163 0.75033 0.0
C775 C 0.99942 0.61476 0.79385 0.0
C776 C 1.001 0.61954 0.70151 0.0
C777 C 0.98101 0.60682 0.78823 0.0
C778 C 0.97268 0.60509 0.73989 0.0
C779 C 0.97512 0.60783 0.64726 0.0
C780 C 0.9857 0.6127 0.60332 0.0
C781 C 0.98273 0.61099 0.69621 0.0
C782 C 0.00364 0.62166 0.60904 0.0
C783 C 0.01118 0.62514 0.65771 0.0
H784 H 0.63501 0.77613 0.98954 0.0
H785 H 0.66241 0.72776 0.06134 0.0
H786 H 0.66432 0.71137 0.97889 0.0
H787 H 0.66061 0.7119 0.88582 0.0
H788 H 0.63451 0.76083 0.81335 0.0
H789 H 0.62957 0.77582 0.89686 0.0
C790 C 0.64118 0.7619 0.98733 0.0
C791 C 0.64867 0.75325 0.03154 0.0
C792 C 0.64259 0.75272 0.93964 0.0
C793 C 0.65663 0.7348 0.0279 0.0
C794 C 0.65776 0.72543 0.98073 0.0
C795 C 0.65366 0.72576 0.88823 0.0
C796 C 0.64807 0.73529 0.84333 0.0
C797 C 0.65117 0.73443 0.93624 0.0
C798 C 0.63905 0.75323 0.84726 0.0
C799 C 0.63624 0.76182 0.89501 0.0
H800 H 0.53548 0.40313 0.73999 0.0
H801 H 0.48044 0.40221 0.81534 0.0
H802 H 0.46445 0.39873 0.73256 0.0
H803 H 0.46604 0.39849 0.63859 0.0
H804 H 0.52113 0.39955 0.56341 0.0
H805 H 0.53717 0.40016 0.64646 0.0
C806 C 0.51998 0.40205 0.73841 0.0
C807 C 0.50916 0.40316 0.78385 0.0
C808 C 0.5109 0.40008 0.69069 0.0
C809 C 0.48911 0.40146 0.78104 0.0
C810 C 0.47996 0.39951 0.73367 0.0
C811 C 0.48157 0.39862 0.64027 0.0
C812 C 0.49234 0.39915 0.59465 0.0
C813 C 0.4907 0.39917 0.6882 0.0
C814 C 0.51246 0.39915 0.59775 0.0
C815 C 0.52165 0.39961 0.64529 0.0
H816 H 0.34954 0.72458 0.4109 0.0
H817 H 0.35149 0.77912 0.33354 0.0
H818 H 0.35147 0.79575 0.41592 0.0
H819 H 0.34918 0.79486 0.50951 0.0
H820 H 0.34723 0.74039 0.58713 0.0
H821 H 0.34903 0.72367 0.50488 0.0
C822 C 0.35009 0.74011 0.41196 0.0
C823 C 0.35039 0.75058 0.36594 0.0
C824 C 0.34997 0.74959 0.4595 0.0
C825 C 0.35123 0.77069 0.36823 0.0
C826 C 0.35116 0.78022 0.41537 0.0
C827 C 0.34921 0.77932 0.50856 0.0
C828 C 0.34789 0.7689 0.55451 0.0
C829 C 0.35024 0.76982 0.46118 0.0
C830 C 0.34817 0.74877 0.55244 0.0
C831 C 0.34917 0.73921 0.50538 0.0
H832 H 0.03619 0.5915 0.14343 0.0
H833 H 0.99653 0.63169 0.07675 0.0
H834 H 0.98435 0.63978 0.16182 0.0
H835 H 0.98311 0.63332 0.2544 0.0
H836 H 0.02214 0.59215 0.31961 0.0
H837 H 0.0365 0.58671 0.23586 0.0
C838 C 0.02501 0.60218 0.14741 0.0
C839 C 0.01717 0.61084 0.10368 0.0
C840 C 0.01788 0.60652 0.19624 0.0
C841 C 0.00277 0.62473 0.10972 0.0
C842 C 0.99576 0.62933 0.15837 0.0
C843 C 0.99495 0.62338 0.25042 0.0
C844 C 1.00144 0.61306 0.29322 0.0
C845 C 0.00294 0.62002 0.20182 0.0
C846 C 0.01676 0.60018 0.2873 0.0
C847 C 0.02498 0.59703 0.23938 0.0
H848 H 0.14527 0.27902 0.90264 0.0
H849 H 0.14811 0.22383 0.82793 0.0
H850 H 0.15066 0.20811 0.91101 0.0
H851 H 0.15441 0.21026 1.00417 0.0
H852 H 0.15185 0.26548 0.07879 0.0
H853 H 0.14682 0.28099 0.9962 0.0
C854 C 0.14626 0.26353 0.90446 0.0
C855 C 0.14665 0.25263 0.85904 0.0
C856 C 0.14794 0.25462 0.95227 0.0
C857 C 0.14779 0.23257 0.86222 0.0
C858 C 0.14934 0.22357 0.90973 0.0
C859 C 0.15267 0.22569 1.00246 0.0
C860 C 0.15372 0.23673 0.04756 0.0
C861 C 0.14983 0.2345 0.95489 0.0
C862 C 0.15119 0.25667 0.04468 0.0
C863 C 0.14834 0.26554 0.99745 0.0
H864 H 0.52278 0.61988 0.77952 0.0
H865 H 0.47231 0.6003 0.69909 0.0
H866 H 0.45449 0.59935 0.77927 0.0
H867 H 0.45407 0.60127 0.87272 0.0
H868 H 0.50477 0.61993 0.95359 0.0
H869 H 0.52156 0.62429 0.87255 0.0
C870 C 0.50783 0.61559 0.77941 0.0
C871 C 0.49898 0.60995 0.73343 0.0
C872 C 0.49771 0.61484 0.82574 0.0
C873 C 0.47954 0.60458 0.73396 0.0
C874 C 0.46932 0.604 0.77982 0.0
C875 C 0.46871 0.60653 0.87268 0.0
C876 C 0.47821 0.61005 0.91919 0.0
C877 C 0.47839 0.60868 0.82604 0.0
C878 C 0.49715 0.61698 0.91835 0.0
C879 C 0.50679 0.61942 0.87202 0.0
H880 H 0.17265 0.72227 0.47163 0.0
H881 H 0.13509 0.77106 0.48487 0.0
H882 H 0.1315 0.76516 0.57655 0.0
H883 H 0.14067 0.74711 0.6544 0.0
H884 H 0.17815 0.69824 0.6389 0.0
H885 H 0.18001 0.70321 0.54722 0.0
C886 C 0.16355 0.73155 0.49441 0.0
C887 C 0.15428 0.74715 0.47129 0.0
C888 C 0.16159 0.72812 0.54707 0.0
C889 C 0.14242 0.75892 0.50153 0.0
C890 C 0.14041 0.7556 0.55411 0.0
C891 C 0.14909 0.73746 0.63087 0.0
C892 C 0.15936 0.72241 0.65392 0.0
C893 C 0.15017 0.74039 0.57753 0.0
C894 C 0.17016 0.71002 0.62261 0.0
C895 C 0.17127 0.71284 0.56994 0.0
H896 H 0.96584 0.40368 0.28036 0.0
H897 H 0.01886 0.40938 0.19657 0.0
H898 H 0.03705 0.40609 0.27579 0.0
H899 H 0.03779 0.40379 0.36933 0.0
H900 H 0.98472 0.39802 0.45299 0.0
H901 H 0.96669 0.39886 0.37315 0.0
C902 C 0.98138 0.40413 0.2794 0.0
C903 C 0.99097 0.40701 0.23279 0.0
C904 C 0.99174 0.40219 0.32502 0.0
C905 C 0.01112 0.40727 0.23203 0.0
C906 C 0.02154 0.40541 0.2773 0.0
C907 C 0.02229 0.40251 0.3701 0.0
C908 C 0.01262 0.40104 0.41711 0.0
C909 C 0.01199 0.40317 0.32409 0.0
C910 C 0.99254 0.39922 0.41736 0.0
C911 C 0.9822 0.39979 0.37173 0.0
H912 H 0.34763 0.29001 0.12529 0.0
H913 H 0.36207 0.23697 0.20046 0.0
H914 H 0.36527 0.22111 0.1174 0.0
H915 H 0.36199 0.22184 0.02396 0.0
H916 H 0.347 0.27479 0.94906 0.0
H917 H 0.3461 0.29118 0.03172 0.0
C918 C 0.35161 0.275 0.12362 0.0
C919 C 0.35447 0.26466 0.16915 0.0
C920 C 0.35325 0.26594 0.07581 0.0
C921 C 0.35975 0.24527 0.1661 0.0
C922 C 0.36153 0.23617 0.1186 0.0
C923 C 0.35866 0.23701 0.02557 0.0
C924 C 0.35443 0.24703 0.98029 0.0
C925 C 0.358 0.2463 0.07327 0.0
C926 C 0.35025 0.2667 0.98323 0.0
C927 C 0.3497 0.27608 0.03053 0.0
H928 H 0.0288 0.03091 0.99571 0.0
H929 H 1.00021 0.01912 0.13857 0.0
H930 H 0.98911 0.9883 0.10523 0.0
H931 H 0.98717 0.96481 0.03516 0.0
H932 H 0.01581 0.97653 0.89236 0.0
H933 H 0.02692 0.00737 0.9257 0.0
C934 C 0.02037 0.02148 0.01982 0.0
C935 C 0.01548 0.02727 0.06974 0.0
C936 C 0.01373 0.0039 1.00008 0.0
C937 C 0.00426 0.015 0.1001 0.0
C938 C 0.99781 0.9974 0.08096 0.0
C939 C 0.99562 0.97422 0.01107 0.0
C940 C 1.00051 0.96842 0.96115 0.0
C941 C 0.00228 0.99179 0.03082 0.0
C942 C 0.01176 0.98067 0.93083 0.0
C943 C 0.01822 0.99827 0.94996 0.0
H944 H 0.21235 0.75889 0.17732 0.0
H945 H 0.22306 0.76379 0.33938 0.0
H946 H 0.25583 0.75227 0.32658 0.0
H947 H 0.28162 0.74137 0.26895 0.0
H948 H 0.27074 0.73723 0.10681 0.0
H949 H 0.23773 0.74761 0.12029 0.0
C950 C 0.22182 0.7575 0.20995 0.0
C951 C 0.21524 0.76231 0.25925 0.0
C952 C 0.24058 0.75083 0.20234 0.0
C953 C 0.22776 0.76031 0.30099 0.0
C954 C 0.24648 0.75364 0.29371 0.0
C955 C 0.27195 0.74249 0.23663 0.0
C956 C 0.27865 0.73845 0.18691 0.0
C957 C 0.25305 0.74886 0.24454 0.0
C958 C 0.26598 0.74022 0.14545 0.0
C959 C 0.24711 0.74624 0.15309 0.0
H960 H 0.53248 0.02731 0.4959 0.0
H961 H 0.47315 0.03203 0.45103 0.0
H962 H 0.46705 0.99945 0.4801 0.0
H963 H 0.47837 0.96959 0.51932 0.0
H964 H 0.5377 0.96482 0.56412 0.0
H965 H 0.54388 0.99734 0.53447 0.0
C966 C 0.51826 0.02116 0.49212 0.0
C967 C 0.50333 0.03213 0.47126 0.0
C968 C 0.51476 0.00239 0.50935 0.0
C969 C 0.48494 0.02395 0.46698 0.0
C970 C 0.48139 0.00529 0.48371 0.0
C971 C 0.49262 0.97571 0.52285 0.0
C972 C 0.50751 0.96477 0.54404 0.0
C973 C 0.49615 0.99442 0.50531 0.0
C974 C 0.52594 0.97289 0.54796 0.0
C975 C 0.52953 0.9915 0.53091 0.0
H976 H 0.28343 0.27035 0.77651 0.0
H977 H 0.27948 0.2094 0.8027 0.0
H978 H 0.24542 0.21007 0.7807 0.0
H979 H 0.21699 0.22788 0.75324 0.0
H980 H 0.22096 0.28884 0.727 0.0
H981 H 0.25494 0.2882 0.74976 0.0
C982 C 0.27514 0.25719 0.77758 0.0
C983 C 0.28402 0.23983 0.79125 0.0
C984 C 0.25563 0.25768 0.76471 0.0
C985 C 0.27302 0.22295 0.79236 0.0
C986 C 0.25356 0.22332 0.77971 0.0
C987 C 0.22526 0.24106 0.75239 0.0
C988 C 0.21643 0.25839 0.73829 0.0
C989 C 0.24475 0.24059 0.76564 0.0
C990 C 0.22739 0.2753 0.73763 0.0
C991 C 0.24681 0.27495 0.75068 0.0
H992 H 0.03219 0.97255 0.51201 0.0
H993 H 0.97522 0.96339 0.45231 0.0
H994 H 0.96585 0.99549 0.4797 0.0
H995 H 0.97376 0.02632 0.52101 0.0
H996 H 0.03077 0.03516 0.58091 0.0
H997 H 0.04003 0.00313 0.55346 0.0
C998 C 0.01776 0.97761 0.50472 0.0
C999 C 0.00448 0.96557 0.48003 0.0
C1000 C 0.01237 0.99605 0.52097 0.0
C1001 C 0.98578 0.97234 0.47124 0.0
C1002 C 0.98036 0.99071 0.48698 0.0
C1003 C 0.98816 0.02118 0.52832 0.0
C1004 C 1.00151 0.03316 0.55302 0.0
C1005 C 0.9935 0.00268 0.51211 0.0
C1006 C 0.02017 0.02629 0.56192 0.0
C1007 C 0.02553 0.00795 0.54615 0.0
H1008 H 0.21401 0.77611 0.7649 0.0
H1009 H 0.22553 0.72005 0.82712 0.0
H1010 H 0.25983 0.72495 0.81405 0.0
H1011 H 0.28637 0.74469 0.78325 0.0
H1012 H 0.2752 0.80075 0.72075 0.0
H1013 H 0.24083 0.79629 0.7358 0.0
C1014 C 0.22401 0.76498 0.7758 0.0
C1015 C 0.21717 0.7477 0.79685 0.0
C1016 C 0.24374 0.76786 0.76801 0.0
C1017 C 0.23037 0.73346 0.81081 0.0
C1018 C 0.24999 0.73624 0.80329 0.0
C1019 C 0.27646 0.75598 0.7729 0.0
C1020 C 0.28336 0.77301 0.75066 0.0
C1021 C 0.2568 0.75331 0.78161 0.0
C1022 C 0.27028 0.7875 0.73784 0.0
C1023 C 0.25063 0.78495 0.7464 0.0
H1024 H 0.5318 0.97472 0.03916 0.0
H1025 H 0.47297 0.95549 0.04389 0.0
H1026 H 0.46209 0.98719 0.01791 0.0
H1027 H 0.46924 0.02045 0.99342 0.0
H1028 H 0.52815 0.03949 0.98834 0.0
H1029 H 0.53894 0.00786 0.01462 0.0
C1030 C 0.5166 0.97747 0.03469 0.0
C1031 C 0.50325 0.96274 0.04354 0.0
C1032 C 0.51041 0.99573 0.01944 0.0
C1033 C 0.48359 0.96655 0.03732 0.0
C1034 C 0.47733 0.98469 0.02241 0.0
C1035 C 0.48443 0.01767 0.99795 0.0
C1036 C 0.49782 0.03235 0.98888 0.0
C1037 C 0.49061 0.99939 0.01322 0.0
C1038 C 0.51748 0.02848 0.99504 0.0
C1039 C 0.5237 0.01038 0.01015 0.0
H1040 H 0.22715 0.22101 0.26852 0.0
H1041 H 0.21898 0.27375 0.18574 0.0
H1042 H 0.25009 0.28544 0.21493 0.0
H1043 H 0.27966 0.28089 0.26473 0.0
H1044 H 0.28769 0.22819 0.34784 0.0
H1045 H 0.25666 0.21648 0.31836 0.0
C1046 C 0.23227 0.23497 0.25646 0.0
C1047 C 0.22076 0.24643 0.22484 0.0
C1048 C 0.25011 0.24177 0.27399 0.0
C1049 C 0.22754 0.2646 0.21006 0.0
C1050 C 0.24532 0.27136 0.22688 0.0
C1051 C 0.27453 0.26693 0.27676 0.0
C1052 C 0.286 0.25549 0.30856 0.0
C1053 C 0.25669 0.26014 0.2592 0.0
C1054 C 0.27919 0.23733 0.32337 0.0
C1055 C 0.26144 0.23056 0.30639 0.0
H1056 H 0.78322 0.26495 0.7504 0.0
H1057 H 0.77414 0.2049 0.71766 0.0
H1058 H 0.74014 0.20833 0.73819 0.0
H1059 H 0.71313 0.22828 0.76527 0.0
H1060 H 0.722 0.28837 0.79767 0.0
H1061 H 0.7561 0.28496 0.77751 0.0
C1062 C 0.77383 0.25258 0.74765 0.0
C1063 C 0.78126 0.23467 0.73243 0.0
C1064 C 0.75431 0.25466 0.75956 0.0
C1065 C 0.76884 0.21884 0.72919 0.0
C1066 C 0.74939 0.22079 0.74098 0.0
C1067 C 0.72248 0.24067 0.7681 0.0
C1068 C 0.71499 0.25857 0.78308 0.0
C1069 C 0.74199 0.23862 0.75625 0.0
C1070 C 0.72737 0.27443 0.78631 0.0
C1071 C 0.74686 0.27249 0.77474 0.0
H1072 H 0.7301 0.78202 0.23167 0.0
H1073 H 0.71852 0.72153 0.21486 0.0
H1074 H 0.75097 0.71406 0.24312 0.0
H1075 H 0.78275 0.72468 0.27238 0.0
H1076 H 0.79415 0.78521 0.28969 0.0
H1077 H 0.76169 0.79261 0.26182 0.0
C1078 C 0.7347 0.76721 0.23399 0.0
C1079 C 0.72191 0.75238 0.22099 0.0
C1080 C 0.75335 0.76298 0.25063 0.0
C1081 C 0.72806 0.73325 0.2246 0.0
C1082 C 0.74663 0.72894 0.24082 0.0
C1083 C 0.77811 0.73948 0.27027 0.0
C1084 C 0.7909 0.75433 0.28309 0.0
C1085 C 0.75939 0.74369 0.25401 0.0
C1086 C 0.78463 0.77345 0.28005 0.0
C1087 C 0.76606 0.77773 0.26401 0.0
H1088 H 0.71717 0.26545 0.26458 0.0
H1089 H 0.72351 0.20429 0.28261 0.0
H1090 H 0.75733 0.20675 0.25905 0.0
H1091 H 0.785 0.22621 0.2337 0.0
H1092 H 0.77881 0.2874 0.21618 0.0
H1093 H 0.74489 0.28494 0.23908 0.0
C1094 C 0.72592 0.25263 0.26342 0.0
C1095 C 0.71779 0.2347 0.27541 0.0
C1096 C 0.74534 0.25415 0.24984 0.0
C1097 C 0.72938 0.21827 0.27364 0.0
C1098 C 0.74872 0.21966 0.26011 0.0
C1099 C 0.77625 0.23904 0.23471 0.0
C1100 C 0.78445 0.25698 0.22316 0.0
C1101 C 0.75683 0.23753 0.24814 0.0
C1102 C 0.77288 0.27342 0.22486 0.0
C1103 C 0.75349 0.27202 0.238 0.0
H1104 H 0.71795 0.77143 0.7446 0.0
H1105 H 0.72818 0.71172 0.71061 0.0
H1106 H 0.76206 0.71581 0.73207 0.0
H1107 H 0.78871 0.73635 0.75973 0.0
H1108 H 0.77856 0.7961 0.79334 0.0
H1109 H 0.74459 0.79193 0.77282 0.0
C1110 C 0.72756 0.75928 0.74185 0.0
C1111 C 0.72049 0.74127 0.7259 0.0
C1112 C 0.747 0.76174 0.75422 0.0
C1113 C 0.7332 0.72572 0.72269 0.0
C1114 C 0.75258 0.72806 0.73498 0.0
C1115 C 0.77909 0.74849 0.76274 0.0
C1116 C 0.78621 0.76654 0.7781 0.0
C1117 C 0.75963 0.746 0.75071 0.0
C1118 C 0.77349 0.78207 0.78165 0.0
C1119 C 0.75407 0.77969 0.76987 0.0
H1120 H 0.52764 0.53292 0.52213 0.0
H1121 H 0.47025 0.53888 0.58178 0.0
H1122 H 0.46216 0.50681 0.55158 0.0
H1123 H 0.47105 0.47716 0.50669 0.0
H1124 H 0.52841 0.4711 0.44695 0.0
H1125 H 0.5367 0.503 0.4783 0.0
C1126 C 0.51343 0.52713 0.52893 0.0
C1127 C 0.49961 0.53833 0.5542 0.0
C1128 C 0.50875 0.50866 0.51097 0.0
C1129 C 0.4812 0.53062 0.56236 0.0
C1130 C 0.4765 0.51226 0.54498 0.0
C1131 C 0.48533 0.48285 0.50031 0.0
C1132 C 0.49903 0.47175 0.47432 0.0
C1133 C 0.49009 0.50121 0.51881 0.0
C1134 C 0.51753 0.47932 0.46679 0.0
C1135 C 0.52233 0.49758 0.4848 0.0
H1136 H 0.96582 0.48099 0.03357 0.0
H1137 H 0.02602 0.46706 0.04167 0.0
H1138 H 0.03439 0.49941 0.01501 0.0
H1139 H 0.02479 0.53168 0.98877 0.0
H1140 H 0.96468 0.54589 0.98101 0.0
H1141 H 0.9562 0.5135 1.00788 0.0
C1142 C 0.98076 0.48505 0.02967 0.0
C1143 C 0.99523 0.47157 0.03963 0.0
C1144 C 0.98555 0.50375 0.01413 0.0
C1145 C 0.01454 0.4771 0.03427 0.0
C1146 C 0.01939 0.49563 0.01893 0.0
C1147 C 0.00984 0.52768 0.99279 0.0
C1148 C 0.99543 0.5412 0.98275 0.0
C1149 C 0.00503 0.50905 1.00857 0.0
C1150 C 0.9761 0.53579 0.98847 0.0
C1151 C 0.97121 0.51725 1.00389 0.0
H1152 H 0.52532 0.47553 1.00738 0.0
H1153 H 0.4777 0.47342 0.9022 0.0
H1154 H 0.46618 0.50417 0.93439 0.0
H1155 H 0.46933 0.53159 0.99337 0.0
H1156 H 0.51717 0.53375 0.09776 0.0
H1157 H 0.52871 0.50305 0.06537 0.0
C1158 C 0.51253 0.48187 0.99113 0.0
C1159 C 0.50244 0.47215 0.95234 0.0
C1160 C 0.50585 0.49951 0.01014 0.0
C1161 C 0.48579 0.48056 0.93204 0.0
C1162 C 0.47913 0.49814 0.95058 0.0
C1163 C 0.48218 0.52525 0.00931 0.0
C1164 C 0.4923 0.53492 0.04811 0.0
C1165 C 0.48893 0.50767 0.98995 0.0
C1166 C 0.50908 0.52662 0.06789 0.0
C1167 C 0.51574 0.50907 0.0493 0.0
H1168 H 0.98361 0.47098 0.51916 0.0
H1169 H 0.04356 0.47851 0.55512 0.0
H1170 H 0.04125 0.51257 0.5344 0.0
H1171 H 0.02226 0.54008 0.50576 0.0
H1172 H 0.96234 0.53244 0.46952 0.0
H1173 H 0.96463 0.49845 0.49069 0.0
C1174 C 0.99619 0.48004 0.52259 0.0
C1175 C 0.01374 0.47218 0.53873 0.0
C1176 C 0.99477 0.49957 0.51049 0.0
C1177 C 0.02988 0.48418 0.54282 0.0
C1178 C 0.02857 0.50365 0.53095 0.0
C1179 C 0.00968 0.531 0.50245 0.0
C1180 C 0.99215 0.53882 0.48602 0.0
C1181 C 0.0111 0.51148 0.51467 0.0
C1182 C 0.97601 0.52682 0.48202 0.0
C1183 C 0.97731 0.50738 0.49414 0.0
H1184 H 0.08882 0.11759 0.12627 0.0
H1185 H 0.05411 0.15916 0.04681 0.0
H1186 H 0.07606 0.18457 0.0715 0.0
H1187 H 0.10379 0.19552 0.11915 0.0
H1188 H 0.1395 0.15504 0.19869 0.0
H1189 H 0.11857 0.12867 0.17025 0.0
C1190 C 0.08624 0.13217 0.11389 0.0
C1191 C 0.06971 0.13645 0.08508 0.0
C1192 C 0.09898 0.14694 0.12856 0.0
C1193 C 0.06657 0.15543 0.06935 0.0
C1194 C 0.07912 0.17003 0.08348 0.0
C1195 C 0.10705 0.18093 0.1304 0.0
C1196 C 0.12299 0.17726 0.16161 0.0
C1197 C 0.09512 0.16602 0.11381 0.0
C1198 C 0.12723 0.15823 0.17487 0.0
C1199 C 0.11525 0.14318 0.15866 0.0
H1200 H 0.13376 0.83582 0.44226 0.0
H1201 H 0.13128 0.83447 0.27736 0.0
H1202 H 0.1085 0.86098 0.27808 0.0
H1203 H 0.08668 0.88208 0.32575 0.0
H1204 H 0.0884 0.88258 0.49076 0.0
H1205 H 0.1142 0.85904 0.4896 0.0
C1206 C 0.12848 0.84149 0.40639 0.0
C1207 C 0.13408 0.83298 0.35987 0.0
C1208 C 0.1151 0.85651 0.40708 0.0
C1209 C 0.12714 0.84063 0.31378 0.0
C1210 C 0.11405 0.85577 0.31414 0.0
C1211 C 0.09289 0.87729 0.36148 0.0
C1212 C 0.08543 0.88396 0.40827 0.0
C1213 C 0.10751 0.86346 0.36061 0.0
C1214 C 0.09374 0.87761 0.45416 0.0
C1215 C 0.10848 0.86408 0.45357 0.0
H1216 H 0.40562 0.80601 0.62436 0.0
H1217 H 0.37336 0.8501 0.70159 0.0
H1218 H 0.39688 0.87422 0.67402 0.0
H1219 H 0.42769 0.88226 0.63112 0.0
H1220 H 0.45894 0.83726 0.55386 0.0
H1221 H 0.43463 0.81408 0.57811 0.0
C1222 C 0.40368 0.82089 0.63529 0.0
C1223 C 0.38793 0.82623 0.66554 0.0
C1224 C 0.4171 0.83454 0.61922 0.0
C1225 C 0.38545 0.84563 0.67847 0.0
C1226 C 0.3989 0.8594 0.66277 0.0
C1227 C 0.42904 0.86742 0.61921 0.0
C1228 C 0.44524 0.86151 0.59109 0.0
C1229 C 0.41493 0.85397 0.63354 0.0
C1230 C 0.44675 0.84223 0.57587 0.0
C1231 C 0.43285 0.8289 0.58974 0.0
H1232 H 0.43651 0.14227 0.85757 0.0
H1233 H 0.40417 0.10613 0.9596 0.0
H1234 H 0.37514 0.12487 0.9422 0.0
H1235 H 0.35971 0.15311 0.90217 0.0
H1236 H 0.39294 0.18845 0.79949 0.0
H1237 H 0.4208 0.16832 0.81276 0.0
C1238 C 0.4231 0.13844 0.87595 0.0
C1239 C 0.4225 0.12306 0.91036 0.0
C1240 C 0.40663 0.14916 0.86568 0.0
C1241 C 0.40496 0.118 0.93307 0.0
C1242 C 0.38841 0.12873 0.92323 0.0
C1243 C 0.37298 0.15624 0.88225 0.0
C1244 C 0.37424 0.17245 0.85041 0.0
C1245 C 0.38915 0.14457 0.89018 0.0
C1246 C 0.39155 0.17623 0.82467 0.0
C1247 C 0.40755 0.16473 0.83222 0.0
H1248 H 0.90578 0.80455 0.90877 0.0
H1249 H 0.87516 0.84672 0.82082 0.0
H1250 H 0.89674 0.87191 0.85298 0.0
H1251 H 0.92572 0.88139 0.90253 0.0
H1252 H 0.9554 0.83834 0.99034 0.0
H1253 H 0.93262 0.81413 0.96218 0.0
C1254 C 0.90378 0.81926 0.89651 0.0
C1255 C 0.8891 0.82373 0.86183 0.0
C1256 C 0.91607 0.83353 0.91532 0.0
C1257 C 0.88646 0.84291 0.84727 0.0
C1258 C 0.8988 0.85729 0.86564 0.0
C1259 C 0.92699 0.86677 0.91606 0.0
C1260 C 0.94238 0.86168 0.9482 0.0
C1261 C 0.91383 0.85272 0.89926 0.0
C1262 C 0.94384 0.84266 0.9653 0.0
C1263 C 0.93083 0.82875 0.94914 0.0
H1264 H 0.92077 0.11861 0.62549 0.0
H1265 H 0.95323 0.15966 0.53732 0.0
H1266 H 0.93015 0.18453 0.55788 0.0
H1267 H 0.90212 0.19531 0.60479 0.0
H1268 H 0.86887 0.15518 0.69333 0.0
H1269 H 0.89081 0.12926 0.66858 0.0
C1270 C 0.92261 0.13293 0.61026 0.0
C1271 C 0.93883 0.13728 0.58026 0.0
C1272 C 0.90926 0.14738 0.62268 0.0
C1273 C 0.94101 0.15592 0.56086 0.0
C1274 C 0.92782 0.17021 0.57264 0.0
C1275 C 0.89962 0.1809 0.61875 0.0
C1276 C 0.88406 0.17722 0.65142 0.0
C1277 C 0.91216 0.1662 0.60431 0.0
C1278 C 0.88083 0.15839 0.66831 0.0
C1279 C 0.89337 0.14359 0.6542 0.0
H1280 H 0.59778 0.19691 0.41118 0.0
H1281 H 0.62977 0.15689 0.31871 0.0
H1282 H 0.60815 0.13091 0.3451 0.0
H1283 H 0.57903 0.12009 0.39169 0.0
H1284 H 0.54777 0.16103 0.48353 0.0
H1285 H 0.57038 0.18607 0.46041 0.0
C1286 C 0.60008 0.18252 0.39664 0.0
C1287 C 0.61522 0.17889 0.36252 0.0
C1288 C 0.58773 0.16779 0.41203 0.0
C1289 C 0.61814 0.16007 0.34482 0.0
C1290 C 0.60579 0.14524 0.35991 0.0
C1291 C 0.57735 0.13444 0.4071 0.0
C1292 C 0.56163 0.13868 0.43905 0.0
C1293 C 0.59039 0.14897 0.39318 0.0
C1294 C 0.55961 0.15736 0.45858 0.0
C1295 C 0.57253 0.17174 0.44534 0.0
H1296 H 0.60226 0.87231 0.03864 0.0
H1297 H 0.58154 0.89293 0.18427 0.0
H1298 H 0.60441 0.87249 0.22862 0.0
H1299 H 0.62734 0.84577 0.22612 0.0
H1300 H 0.6481 0.82532 0.08031 0.0
H1301 H 0.62837 0.84881 0.03624 0.0
C1302 C 0.60298 0.87259 0.08006 0.0
C1303 C 0.58999 0.8839 0.10801 0.0
C1304 C 0.61606 0.86068 0.10543 0.0
C1305 C 0.59129 0.88429 0.16169 0.0
C1306 C 0.60431 0.87251 0.18719 0.0
C1307 C 0.62778 0.84666 0.18474 0.0
C1308 C 0.63894 0.83357 0.15663 0.0
C1309 C 0.6163 0.86017 0.15947 0.0
C1310 C 0.63955 0.83511 0.10302 0.0
C1311 C 0.6282 0.84851 0.07766 0.0
H1312 H 0.58036 0.62516 0.61455 0.0
H1313 H 0.54059 0.66876 0.56528 0.0
H1314 H 0.56373 0.69359 0.586 0.0
H1315 H 0.59449 0.7033 0.62068 0.0
H1316 H 0.63522 0.6607 0.66941 0.0
H1317 H 0.61252 0.63516 0.64621 0.0
C1318 C 0.57686 0.64008 0.608 0.0
C1319 C 0.55866 0.64503 0.58867 0.0
C1320 C 0.59033 0.65451 0.62017 0.0
C1321 C 0.55438 0.66446 0.58036 0.0
C1322 C 0.56761 0.67875 0.59225 0.0
C1323 C 0.59847 0.68843 0.62638 0.0
C1324 C 0.61644 0.68392 0.64726 0.0
C1325 C 0.58549 0.67396 0.61273 0.0
C1326 C 0.62143 0.66456 0.65356 0.0
C1327 C 0.60844 0.64997 0.64033 0.0
H1328 H 0.5611 0.35734 0.8491 0.0
H1329 H 0.59229 0.39445 0.95177 0.0
H1330 H 0.62177 0.37631 0.93502 0.0
H1331 H 0.63803 0.34838 0.8951 0.0
H1332 H 0.60599 0.3121 0.79151 0.0
H1333 H 0.57759 0.33155 0.80453 0.0
C1334 C 0.57436 0.36153 0.86776 0.0
C1335 C 0.57448 0.37703 0.90216 0.0
C1336 C 0.59112 0.35114 0.85781 0.0
C1337 C 0.59184 0.38251 0.92524 0.0
C1338 C 0.60866 0.3721 0.91577 0.0
C1339 C 0.6249 0.34488 0.87495 0.0
C1340 C 0.62417 0.32861 0.84285 0.0
C1341 C 0.60841 0.35617 0.88267 0.0
C1342 C 0.60701 0.32437 0.81683 0.0
C1343 C 0.59069 0.33549 0.82426 0.0
H1344 H 0.86333 0.34318 0.1037 0.0
H1345 H 0.89125 0.31326 0.22728 0.0
H1346 H 0.91886 0.33445 0.22041 0.0
H1347 H 0.93616 0.35976 0.17546 0.0
H1348 H 0.90862 0.39044 0.05304 0.0
H1349 H 0.87973 0.37075 0.06354 0.0
C1350 C 0.87536 0.34144 0.12952 0.0
C1351 C 0.87526 0.32646 0.16553 0.0
C1352 C 0.89132 0.35371 0.12534 0.0
C1353 C 0.89092 0.32455 0.19896 0.0
C1354 C 0.90679 0.33664 0.19501 0.0
C1355 C 0.9238 0.36221 0.1512 0.0
C1356 C 0.92459 0.37633 0.11307 0.0
C1357 C 0.90731 0.35096 0.15764 0.0
C1358 C 0.90836 0.37959 0.08257 0.0
C1359 C 0.89188 0.36831 0.08848 0.0
H1360 H 0.92041 0.62575 0.31186 0.0
H1361 H 0.91712 0.62322 0.4765 0.0
H1362 H 0.89149 0.64692 0.47635 0.0
H1363 H 0.8724 0.67063 0.43055 0.0
H1364 H 0.87664 0.67454 0.26625 0.0
H1365 H 0.89932 0.6479 0.26519 0.0
C1366 C 0.91385 0.63014 0.34761 0.0
C1367 C 0.92077 0.62284 0.39413 0.0
C1368 C 0.89939 0.64415 0.34738 0.0
C1369 C 0.91217 0.62874 0.44017 0.0
C1370 C 0.89752 0.64232 0.44016 0.0
C1371 C 0.87807 0.66551 0.39437 0.0
C1372 C 0.87296 0.67472 0.34863 0.0
C1373 C 0.89139 0.65049 0.39413 0.0
C1374 C 0.88042 0.66782 0.30212 0.0
C1375 C 0.89343 0.6526 0.30147 0.0
H1376 H 0.37223 0.33853 0.37988 0.0
H1377 H 0.40807 0.31029 0.26823 0.0
H1378 H 0.43375 0.33309 0.2847 0.0
H1379 H 0.44708 0.35908 0.33509 0.0
H1380 H 0.41249 0.3878 0.44838 0.0
H1381 H 0.38523 0.36689 0.42688 0.0
C1382 C 0.38553 0.33766 0.35855 0.0
C1383 C 0.38829 0.32267 0.32307 0.0
C1384 C 0.40053 0.35072 0.36897 0.0
C1385 C 0.40564 0.32159 0.29598 0.0
C1386 C 0.42037 0.3346 0.30544 0.0
C1387 C 0.43357 0.36086 0.35514 0.0
C1388 C 0.4319 0.37478 0.39382 0.0
C1389 C 0.41815 0.34886 0.3427 0.0
C1390 C 0.41417 0.3771 0.41863 0.0
C1391 C 0.39861 0.36513 0.40636 0.0
H1392 H 0.35567 0.65743 0.13307 0.0
H1393 H 0.38833 0.69106 0.24145 0.0
H1394 H 0.41628 0.67105 0.22652 0.0
H1395 H 0.43231 0.64592 0.17794 0.0
H1396 H 0.40043 0.61174 0.06968 0.0
H1397 H 0.37128 0.62996 0.08956 0.0
C1398 C 0.3688 0.66018 0.15403 0.0
C1399 C 0.36991 0.67591 0.18791 0.0
C1400 C 0.38503 0.64866 0.14489 0.0
C1401 C 0.38707 0.67921 0.21479 0.0
C1402 C 0.40312 0.66779 0.20621 0.0
C1403 C 0.41897 0.64238 0.15877 0.0
C1404 C 0.41857 0.62771 0.12183 0.0
C1405 C 0.4024 0.65283 0.17045 0.0
C1406 C 0.40111 0.62304 0.0981 0.0
C1407 C 0.38447 0.63349 0.1094 0.0
H1408 H 0.09334 0.63317 0.97342 0.0
H1409 H 0.06748 0.61387 0.83242 0.0
H1410 H 0.08974 0.6336 0.78357 0.0
H1411 H 0.11398 0.65927 0.78136 0.0
H1412 H 0.14037 0.67798 0.92221 0.0
H1413 H 0.12071 0.65543 0.9703 0.0
C1414 C 0.09279 0.63304 0.93198 0.0
C1415 C 0.07856 0.62229 0.90677 0.0
C1416 C 0.10565 0.64446 0.90397 0.0
C1417 C 0.07821 0.62207 0.85297 0.0
C1418 C 0.09089 0.63345 0.82489 0.0
C1419 C 0.11564 0.65818 0.82248 0.0
C1420 C 0.12843 0.6705 0.84812 0.0
C1421 C 0.10427 0.64516 0.85006 0.0
C1422 C 0.1306 0.66873 0.90139 0.0
C1423 C 0.11928 0.65589 0.92906 0.0
H1424 H 0.06316 0.35644 0.67763 0.0
H1425 H 0.09078 0.38611 0.55329 0.0
H1426 H 0.11967 0.36672 0.56518 0.0
H1427 H 0.13622 0.33994 0.60779 0.0
H1428 H 0.10836 0.31102 0.73341 0.0
H1429 H 0.08053 0.3317 0.72444 0.0
C1430 C 0.07552 0.3587 0.65319 0.0
C1431 C 0.07478 0.37248 0.61421 0.0
C1432 C 0.09205 0.34766 0.66051 0.0
C1433 C 0.09101 0.37552 0.58346 0.0
C1434 C 0.1075 0.36442 0.59019 0.0
C1435 C 0.12415 0.3383 0.63356 0.0
C1436 C 0.12434 0.32378 0.67084 0.0
C1437 C 0.10808 0.35025 0.62817 0.0
C1438 C 0.10861 0.32198 0.70417 0.0
C1439 C 0.09262 0.33376 0.699 0.0
loop_
_geom_bond_atom_site_label_1
_geom_bond_atom_site_label_2
_geom_bond_distance
_geom_bond_site_symmetry_2
_ccdc_geom_bond_type
Mg0 O7 2.141 1_554 S
Mg0 O8 2.048 . S
Mg0 O9 2.048 . S
Mg0 O12 2.141 . S
C1 O2 1.313 . S
C1 O8 1.195 1_655 S
O2 C1 1.313 . S
C3 O4 1.245 . S
C3 O12 1.289 . S
O4 C3 1.245 . S
C5 O6 1.245 1_455 S
C5 O7 1.289 . S
O6 C5 1.245 1_655 S
O7 Mg0 2.141 1_556 S
O7 C5 1.289 . S
O8 Mg0 2.048 . S
O8 C1 1.195 1_455 S
O9 Mg0 2.048 . S
O9 C10 1.195 . S
C10 O9 1.195 . S
C10 O11 1.313 1_455 S
O11 C10 1.313 1_655 S
O12 Mg0 2.141 . S
O12 C3 1.289 . S
Mg13 O20 2.141 . S
Mg13 O21 2.048 . S
Mg13 O22 2.048 . S
Mg13 O25 2.141 . S
C14 O15 1.313 . S
C14 O21 1.195 . S
O15 C14 1.313 . S
C16 O17 1.245 . S
C16 O25 1.289 . S
O17 C16 1.245 . S
C18 O19 1.245 . S
C18 O20 1.289 . S
O19 C18 1.245 . S
O20 Mg13 2.141 . S
O20 C18 1.289 . S
O21 Mg13 2.048 . S
O21 C14 1.195 . S
O22 Mg13 2.048 . S
O22 C23 1.195 . S
C23 O22 1.195 . S
C23 O24 1.313 . S
O24 C23 1.313 . S
O25 Mg13 2.141 . S
O25 C16 1.289 . S
Mg26 O33 2.141 . S
Mg26 O34 2.048 . S
Mg26 O35 2.048 . S
Mg26 O38 2.141 . S
C27 O28 1.313 . S
C27 O34 1.195 . S
O28 C27 1.313 . S
C29 O30 1.245 . S
C29 O38 1.289 . S
O30 C29 1.245 . S
C31 O32 1.245 . S
C31 O33 1.289 . S
O32 C31 1.245 . S
O33 Mg26 2.141 . S
O33 C31 1.289 . S
O34 Mg26 2.048 . S
O34 C27 1.195 . S
O35 Mg26 2.048 . S
O35 C36 1.195 . S
C36 O35 1.195 . S
C36 O37 1.313 . S
O37 C36 1.313 . S
O38 Mg26 2.141 . S
O38 C29 1.289 . S
Mg39 O46 2.141 . S
Mg39 O47 2.048 . S
Mg39 O48 2.048 . S
Mg39 O51 2.141 . S
C40 O41 1.313 . S
C40 O47 1.195 . S
O41 C40 1.313 . S
C42 O43 1.245 . S
C42 O51 1.289 . S
O43 C42 1.245 . S
C44 O45 1.245 . S
C44 O46 1.289 . S
O45 C44 1.245 . S
O46 Mg39 2.141 . S
O46 C44 1.289 . S
O47 Mg39 2.048 . S
O47 C40 1.195 . S
O48 Mg39 2.048 . S
O48 C49 1.195 . S
C49 O48 1.195 . S
C49 O50 1.313 . S
O50 C49 1.313 . S
O51 Mg39 2.141 . S
O51 C42 1.289 . S
Mg52 O59 2.141 . S
Mg52 O60 2.048 . S
Mg52 O61 2.048 . S
Mg52 O64 2.141 . S
C53 O54 1.313 . S
C53 O60 1.195 1_655 S
O54 C53 1.313 . S
C55 O56 1.245 . S
C55 O64 1.289 . S
O56 C55 1.245 . S
C57 O58 1.245 1_455 S
C57 O59 1.289 . S
O58 C57 1.245 1_655 S
O59 Mg52 2.141 . S
O59 C57 1.289 . S
O60 Mg52 2.048 . S
O60 C53 1.195 1_455 S
O61 Mg52 2.048 . S
O61 C62 1.195 . S
C62 O61 1.195 . S
C62 O63 1.313 1_455 S
O63 C62 1.313 1_655 S
O64 Mg52 2.141 . S
O64 C55 1.289 . S
Mg65 O72 2.141 . S
Mg65 O73 2.048 . S
Mg65 O74 2.048 . S
Mg65 O77 2.141 . S
C66 O67 1.313 . S
C66 O73 1.195 . S
O67 C66 1.313 . S
C68 O69 1.245 . S
C68 O77 1.289 . S
O69 C68 1.245 . S
C70 O71 1.245 . S
C70 O72 1.289 . S
O71 C70 1.245 . S
O72 Mg65 2.141 . S
O72 C70 1.289 . S
O73 Mg65 2.048 . S
O73 C66 1.195 . S
O74 Mg65 2.048 . S
O74 C75 1.195 . S
C75 O74 1.195 . S
C75 O76 1.313 . S
O76 C75 1.313 . S
O77 Mg65 2.141 . S
O77 C68 1.289 . S
Mg78 O85 2.141 1_556 S
Mg78 O86 2.048 . S
Mg78 O87 2.048 . S
Mg78 O90 2.141 . S
C79 O80 1.313 . S
C79 O86 1.195 . S
O80 C79 1.313 . S
C81 O82 1.245 . S
C81 O90 1.289 . S
O82 C81 1.245 . S
C83 O84 1.245 . S
C83 O85 1.289 . S
O84 C83 1.245 . S
O85 Mg78 2.141 1_554 S
O85 C83 1.289 . S
O86 Mg78 2.048 . S
O86 C79 1.195 . S
O87 Mg78 2.048 . S
O87 C88 1.195 . S
C88 O87 1.195 . S
C88 O89 1.313 . S
O89 C88 1.313 . S
O90 Mg78 2.141 . S
O90 C81 1.289 . S
Mg91 O98 2.141 . S
Mg91 O99 2.048 . S
Mg91 O100 2.048 . S
Mg91 O103 2.141 . S
C92 O93 1.313 . S
C92 O99 1.195 . S
O93 C92 1.313 . S
C94 O95 1.245 . S
C94 O103 1.289 . S
O95 C94 1.245 . S
C96 O97 1.245 . S
C96 O98 1.289 . S
O97 C96 1.245 . S
O98 Mg91 2.141 . S
O98 C96 1.289 . S
O99 Mg91 2.048 . S
O99 C92 1.195 . S
O100 Mg91 2.048 . S
O100 C101 1.195 . S
C101 O100 1.195 . S
C101 O102 1.313 . S
O102 C101 1.313 . S
O103 Mg91 2.141 . S
O103 C94 1.289 . S
Mg104 O111 2.141 . S
Mg104 O112 2.048 . S
Mg104 O113 2.048 . S
Mg104 O116 2.141 1_556 S
C105 O106 1.313 1_655 S
C105 O112 1.195 . S
O106 C105 1.313 1_455 S
C107 O108 1.245 1_655 S
C107 O116 1.289 . S
O108 C107 1.245 1_455 S
C109 O110 1.245 . S
C109 O111 1.289 . S
O110 C109 1.245 . S
O111 Mg104 2.141 . S
O111 C109 1.289 . S
O112 Mg104 2.048 . S
O112 C105 1.195 . S
O113 Mg104 2.048 . S
O113 C114 1.195 1_655 S
C114 O113 1.195 1_455 S
C114 O115 1.313 . S
O115 C114 1.313 . S
O116 Mg104 2.141 1_554 S
O116 C107 1.289 . S
Mg117 O124 2.141 . S
Mg117 O125 2.048 . S
Mg117 O126 2.048 . S
Mg117 O129 2.141 . S
C118 O119 1.313 . S
C118 O125 1.195 . S
O119 C118 1.313 . S
C120 O121 1.245 . S
C120 O129 1.289 . S
O121 C120 1.245 . S
C122 O123 1.245 . S
C122 O124 1.289 . S
O123 C122 1.245 . S
O124 Mg117 2.141 . S
O124 C122 1.289 . S
O125 Mg117 2.048 . S
O125 C118 1.195 . S
O126 Mg117 2.048 . S
O126 C127 1.195 . S
C127 O126 1.195 . S
C127 O128 1.313 . S
O128 C127 1.313 . S
O129 Mg117 2.141 . S
O129 C120 1.289 . S
Mg130 O137 2.141 . S
Mg130 O138 2.048 . S
Mg130 O139 2.048 . S
Mg130 O142 2.141 . S
C131 O132 1.313 . S
C131 O138 1.195 . S
O132 C131 1.313 . S
C133 O134 1.245 . S
C133 O142 1.289 . S
O134 C133 1.245 . S
C135 O136 1.245 . S
C135 O137 1.289 . S
O136 C135 1.245 . S
O137 Mg130 2.141 . S
O137 C135 1.289 . S
O138 Mg130 2.048 . S
O138 C131 1.195 . S
O139 Mg130 2.048 . S
O139 C140 1.195 . S
C140 O139 1.195 . S
C140 O141 1.313 . S
O141 C140 1.313 . S
O142 Mg130 2.141 . S
O142 C133 1.289 . S
Mg143 O150 2.141 . S
Mg143 O151 2.048 . S
Mg143 O152 2.048 . S
Mg143 O155 2.141 . S
C144 O145 1.313 . S
C144 O151 1.195 . S
O145 C144 1.313 . S
C146 O147 1.245 . S
C146 O155 1.289 . S
O147 C146 1.245 . S
C148 O149 1.245 . S
C148 O150 1.289 . S
O149 C148 1.245 . S
O150 Mg143 2.141 . S
O150 C148 1.289 . S
O151 Mg143 2.048 . S
O151 C144 1.195 . S
O152 Mg143 2.048 . S
O152 C153 1.195 . S
C153 O152 1.195 . S
C153 O154 1.313 . S
O154 C153 1.313 . S
O155 Mg143 2.141 . S
O155 C146 1.289 . S
Mg156 O163 2.141 . S
Mg156 O164 2.048 . S
Mg156 O165 2.048 . S
Mg156 O168 2.141 . S
C157 O158 1.313 1_655 S
C157 O164 1.195 . S
O158 C157 1.313 1_455 S
C159 O160 1.245 1_655 S
C159 O168 1.289 . S
O160 C159 1.245 1_455 S
C161 O162 1.245 . S
C161 O163 1.289 . S
O162 C161 1.245 . S
O163 Mg156 2.141 . S
O163 C161 1.289 . S
O164 Mg156 2.048 . S
O164 C157 1.195 . S
O165 Mg156 2.048 . S
O165 C166 1.195 1_655 S
C166 O165 1.195 1_455 S
C166 O167 1.313 . S
O167 C166 1.313 . S
O168 Mg156 2.141 . S
O168 C159 1.289 . S
Mg169 O176 2.141 . S
Mg169 O177 2.048 . S
Mg169 O178 2.048 . S
Mg169 O181 2.141 . S
C170 O171 1.313 . S
C170 O177 1.195 . S
O171 C170 1.313 . S
C172 O173 1.245 . S
C172 O181 1.289 . S
O173 C172 1.245 . S
C174 O175 1.245 . S
C174 O176 1.289 . S
O175 C174 1.245 . S
O176 Mg169 2.141 . S
O176 C174 1.289 . S
O177 Mg169 2.048 . S
O177 C170 1.195 . S
O178 Mg169 2.048 . S
O178 C179 1.195 . S
C179 O178 1.195 . S
C179 O180 1.313 . S
O180 C179 1.313 . S
O181 Mg169 2.141 . S
O181 C172 1.289 . S
Mg182 O189 2.141 . S
Mg182 O190 2.048 . S
Mg182 O191 2.048 . S
Mg182 O194 2.141 1_554 S
C183 O184 1.313 . S
C183 O190 1.195 . S
O184 C183 1.313 . S
C185 O186 1.245 . S
C185 O194 1.289 . S
O186 C185 1.245 . S
C187 O188 1.245 . S
C187 O189 1.289 . S
O188 C187 1.245 . S
O189 Mg182 2.141 . S
O189 C187 1.289 . S
O190 Mg182 2.048 . S
O190 C183 1.195 . S
O191 Mg182 2.048 . S
O191 C192 1.195 . S
C192 O191 1.195 . S
C192 O193 1.313 . S
O193 C192 1.313 . S
O194 Mg182 2.141 1_556 S
O194 C185 1.289 . S
Mg195 O202 2.141 . S
Mg195 O203 2.048 . S
Mg195 O204 2.048 . S
Mg195 O207 2.141 . S
C196 O197 1.313 . S
C196 O203 1.195 . S
O197 C196 1.313 . S
C198 O199 1.245 . S
C198 O207 1.289 . S
O199 C198 1.245 . S
C200 O201 1.245 . S
C200 O202 1.289 . S
O201 C200 1.245 . S
O202 Mg195 2.141 . S
O202 C200 1.289 . S
O203 Mg195 2.048 . S
O203 C196 1.195 . S
O204 Mg195 2.048 . S
O204 C205 1.195 . S
C205 O204 1.195 . S
C205 O206 1.313 . S
O206 C205 1.313 . S
O207 Mg195 2.141 . S
O207 C198 1.289 . S
Mg208 O215 2.141 . S
Mg208 O216 2.048 . S
Mg208 O217 2.048 . S
Mg208 O220 2.141 . S
C209 O210 1.313 . S
C209 O216 1.195 . S
O210 C209 1.313 . S
C211 O212 1.245 . S
C211 O220 1.289 . S
O212 C211 1.245 . S
C213 O214 1.245 . S
C213 O215 1.289 . S
O214 C213 1.245 . S
O215 Mg208 2.141 . S
O215 C213 1.289 . S
O216 Mg208 2.048 . S
O216 C209 1.195 . S
O217 Mg208 2.048 . S
O217 C218 1.195 . S
C218 O217 1.195 . S
C218 O219 1.313 . S
O219 C218 1.313 . S
O220 Mg208 2.141 . S
O220 C211 1.289 . S
Mg221 O228 2.141 . S
Mg221 O229 2.048 . S
Mg221 O230 2.048 . S
Mg221 O233 2.141 . S
C222 O223 1.313 . S
C222 O229 1.195 . S
O223 C222 1.313 . S
C224 O225 1.245 . S
C224 O233 1.289 . S
O225 C224 1.245 . S
C226 O227 1.245 . S
C226 O228 1.289 . S
O227 C226 1.245 . S
O228 Mg221 2.141 . S
O228 C226 1.289 . S
O229 Mg221 2.048 . S
O229 C222 1.195 . S
O230 Mg221 2.048 . S
O230 C231 1.195 . S
C231 O230 1.195 . S
C231 O232 1.313 . S
O232 C231 1.313 . S
O233 Mg221 2.141 . S
O233 C224 1.289 . S
Mg234 O241 2.141 1_554 S
Mg234 O242 2.048 . S
Mg234 O243 2.048 . S
Mg234 O246 2.141 . S
C235 O236 1.313 . S
C235 O242 1.195 1_455 S
O236 C235 1.313 . S
C237 O238 1.245 . S
C237 O246 1.289 . S
O238 C237 1.245 . S
C239 O240 1.245 1_655 S
C239 O241 1.289 . S
O240 C239 1.245 1_455 S
O241 Mg234 2.141 1_556 S
O241 C239 1.289 . S
O242 Mg234 2.048 . S
O242 C235 1.195 1_655 S
O243 Mg234 2.048 . S
O243 C244 1.195 . S
C244 O243 1.195 . S
C244 O245 1.313 1_655 S
O245 C244 1.313 1_455 S
O246 Mg234 2.141 . S
O246 C237 1.289 . S
Mg247 O254 2.141 . S
Mg247 O255 2.048 . S
Mg247 O256 2.048 . S
Mg247 O259 2.141 . S
C248 O249 1.313 . S
C248 O255 1.195 . S
O249 C248 1.313 . S
C250 O251 1.245 . S
C250 O259 1.289 . S
O251 C250 1.245 . S
C252 O253 1.245 . S
C252 O254 1.289 . S
O253 C252 1.245 . S
O254 Mg247 2.141 . S
O254 C252 1.289 . S
O255 Mg247 2.048 . S
O255 C248 1.195 . S
O256 Mg247 2.048 . S
O256 C257 1.195 . S
C257 O256 1.195 . S
C257 O258 1.313 . S
O258 C257 1.313 . S
O259 Mg247 2.141 . S
O259 C250 1.289 . S
Mg260 O267 2.141 1_556 S
Mg260 O268 2.048 . S
Mg260 O269 2.048 . S
Mg260 O272 2.141 . S
C261 O262 1.313 . S
C261 O268 1.195 . S
O262 C261 1.313 . S
C263 O264 1.245 . S
C263 O272 1.289 . S
O264 C263 1.245 . S
C265 O266 1.245 . S
C265 O267 1.289 . S
O266 C265 1.245 . S
O267 Mg260 2.141 1_554 S
O267 C265 1.289 . S
O268 Mg260 2.048 . S
O268 C261 1.195 . S
O269 Mg260 2.048 . S
O269 C270 1.195 . S
C270 O269 1.195 . S
C270 O271 1.313 . S
O271 C270 1.313 . S
O272 Mg260 2.141 . S
O272 C263 1.289 . S
Mg273 O280 2.141 . S
Mg273 O281 2.048 . S
Mg273 O282 2.048 . S
Mg273 O285 2.141 . S
C274 O275 1.313 . S
C274 O281 1.195 . S
O275 C274 1.313 . S
C276 O277 1.245 . S
C276 O285 1.289 . S
O277 C276 1.245 . S
C278 O279 1.245 . S
C278 O280 1.289 . S
O279 C278 1.245 . S
O280 Mg273 2.141 . S
O280 C278 1.289 . S
O281 Mg273 2.048 . S
O281 C274 1.195 . S
O282 Mg273 2.048 . S
O282 C283 1.195 . S
C283 O282 1.195 . S
C283 O284 1.313 . S
O284 C283 1.313 . S
O285 Mg273 2.141 . S
O285 C276 1.289 . S
Mg286 O293 2.141 . S
Mg286 O294 2.048 . S
Mg286 O295 2.048 . S
Mg286 O298 2.141 . S
C287 O288 1.313 . S
C287 O294 1.195 1_455 S
O288 C287 1.313 . S
C289 O290 1.245 . S
C289 O298 1.289 . S
O290 C289 1.245 . S
C291 O292 1.245 1_655 S
C291 O293 1.289 . S
O292 C291 1.245 1_455 S
O293 Mg286 2.141 . S
O293 C291 1.289 . S
O294 Mg286 2.048 . S
O294 C287 1.195 1_655 S
O295 Mg286 2.048 . S
O295 C296 1.195 . S
C296 O295 1.195 . S
C296 O297 1.313 1_655 S
O297 C296 1.313 1_455 S
O298 Mg286 2.141 . S
O298 C289 1.289 . S
Mg299 O306 2.141 . S
Mg299 O307 2.048 . S
Mg299 O308 2.048 . S
Mg299 O311 2.141 . S
C300 O301 1.313 . S
C300 O307 1.195 . S
O301 C300 1.313 . S
C302 O303 1.245 . S
C302 O311 1.289 . S
O303 C302 1.245 . S
C304 O305 1.245 . S
C304 O306 1.289 . S
O305 C304 1.245 . S
O306 Mg299 2.141 . S
O306 C304 1.289 . S
O307 Mg299 2.048 . S
O307 C300 1.195 . S
O308 Mg299 2.048 . S
O308 C309 1.195 . S
C309 O308 1.195 . S
C309 O310 1.313 . S
O310 C309 1.313 . S
O311 Mg299 2.141 . S
O311 C302 1.289 . S
Mg312 O319 2.141 . S
Mg312 O320 2.048 . S
Mg312 O321 2.048 . S
Mg312 O324 2.141 . S
C313 O314 1.313 . S
C313 O320 1.195 . S
O314 C313 1.313 . S
C315 O316 1.245 . S
C315 O324 1.289 . S
O316 C315 1.245 . S
C317 O318 1.245 . S
C317 O319 1.289 . S
O318 C317 1.245 . S
O319 Mg312 2.141 . S
O319 C317 1.289 . S
O320 Mg312 2.048 . S
O320 C313 1.195 . S
O321 Mg312 2.048 . S
O321 C322 1.195 . S
C322 O321 1.195 . S
C322 O323 1.313 . S
O323 C322 1.313 . S
O324 Mg312 2.141 . S
O324 C315 1.289 . S
Mg325 O332 2.141 . S
Mg325 O333 2.048 . S
Mg325 O334 2.048 . S
Mg325 O337 2.141 . S
C326 O327 1.313 . S
C326 O333 1.195 . S
O327 C326 1.313 . S
C328 O329 1.245 . S
C328 O337 1.289 . S
O329 C328 1.245 . S
C330 O331 1.245 . S
C330 O332 1.289 . S
O331 C330 1.245 . S
O332 Mg325 2.141 . S
O332 C330 1.289 . S
O333 Mg325 2.048 . S
O333 C326 1.195 . S
O334 Mg325 2.048 . S
O334 C335 1.195 . S
C335 O334 1.195 . S
C335 O336 1.313 . S
O336 C335 1.313 . S
O337 Mg325 2.141 . S
O337 C328 1.289 . S
Mg338 O345 2.141 . S
Mg338 O346 2.048 . S
Mg338 O347 2.048 . S
Mg338 O350 2.141 1_556 S
C339 O340 1.313 1_455 S
C339 O346 1.195 . S
O340 C339 1.313 1_655 S
C341 O342 1.245 1_455 S
C341 O350 1.289 . S
O342 C341 1.245 1_655 S
C343 O344 1.245 . S
C343 O345 1.289 . S
O344 C343 1.245 . S
O345 Mg338 2.141 . S
O345 C343 1.289 . S
O346 Mg338 2.048 . S
O346 C339 1.195 . S
O347 Mg338 2.048 . S
O347 C348 1.195 1_455 S
C348 O347 1.195 1_655 S
C348 O349 1.313 . S
O349 C348 1.313 . S
O350 Mg338 2.141 1_554 S
O350 C341 1.289 . S
Mg351 O358 2.141 . S
Mg351 O359 2.048 . S
Mg351 O360 2.048 . S
Mg351 O363 2.141 . S
C352 O353 1.313 . S
C352 O359 1.195 . S
O353 C352 1.313 . S
C354 O355 1.245 . S
C354 O363 1.289 . S
O355 C354 1.245 . S
C356 O357 1.245 . S
C356 O358 1.289 . S
O357 C356 1.245 . S
O358 Mg351 2.141 . S
O358 C356 1.289 . S
O359 Mg351 2.048 . S
O359 C352 1.195 . S
O360 Mg351 2.048 . S
O360 C361 1.195 . S
C361 O360 1.195 . S
C361 O362 1.313 . S
O362 C361 1.313 . S
O363 Mg351 2.141 . S
O363 C354 1.289 . S
Mg364 O371 2.141 . S
Mg364 O372 2.048 . S
Mg364 O373 2.048 . S
Mg364 O376 2.141 1_554 S
C365 O366 1.313 . S
C365 O372 1.195 . S
O366 C365 1.313 . S
C367 O368 1.245 . S
C367 O376 1.289 . S
O368 C367 1.245 . S
C369 O370 1.245 . S
C369 O371 1.289 . S
O370 C369 1.245 . S
O371 Mg364 2.141 . S
O371 C369 1.289 . S
O372 Mg364 2.048 . S
O372 C365 1.195 . S
O373 Mg364 2.048 . S
O373 C374 1.195 . S
C374 O373 1.195 . S
C374 O375 1.313 . S
O375 C374 1.313 . S
O376 Mg364 2.141 1_556 S
O376 C367 1.289 . S
Mg377 O384 2.141 . S
Mg377 O385 2.048 . S
Mg377 O386 2.048 . S
Mg377 O389 2.141 . S
C378 O379 1.313 . S
C378 O385 1.195 . S
O379 C378 1.313 . S
C380 O381 1.245 . S
C380 O389 1.289 . S
O381 C380 1.245 . S
C382 O383 1.245 . S
C382 O384 1.289 . S
O383 C382 1.245 . S
O384 Mg377 2.141 . S
O384 C382 1.289 . S
O385 Mg377 2.048 . S
O385 C378 1.195 . S
O386 Mg377 2.048 . S
O386 C387 1.195 . S
C387 O386 1.195 . S
C387 O388 1.313 . S
O388 C387 1.313 . S
O389 Mg377 2.141 . S
O389 C380 1.289 . S
Mg390 O397 2.141 . S
Mg390 O398 2.048 . S
Mg390 O399 2.048 . S
Mg390 O402 2.141 . S
C391 O392 1.313 1_455 S
C391 O398 1.195 . S
O392 C391 1.313 1_655 S
C393 O394 1.245 1_455 S
C393 O402 1.289 . S
O394 C393 1.245 1_655 S
C395 O396 1.245 . S
C395 O397 1.289 . S
O396 C395 1.245 . S
O397 Mg390 2.141 . S
O397 C395 1.289 . S
O398 Mg390 2.048 . S
O398 C391 1.195 . S
O399 Mg390 2.048 . S
O399 C400 1.195 1_455 S
C400 O399 1.195 1_655 S
C400 O401 1.313 . S
O401 C400 1.313 . S
O402 Mg390 2.141 . S
O402 C393 1.289 . S
Mg403 O410 2.141 . S
Mg403 O411 2.048 . S
Mg403 O412 2.048 . S
Mg403 O415 2.141 . S
C404 O405 1.313 . S
C404 O411 1.195 . S
O405 C404 1.313 . S
C406 O407 1.245 . S
C406 O415 1.289 . S
O407 C406 1.245 . S
C408 O409 1.245 . S
C408 O410 1.289 . S
O409 C408 1.245 . S
O410 Mg403 2.141 . S
O410 C408 1.289 . S
O411 Mg403 2.048 . S
O411 C404 1.195 . S
O412 Mg403 2.048 . S
O412 C413 1.195 . S
C413 O412 1.195 . S
C413 O414 1.313 . S
O414 C413 1.313 . S
O415 Mg403 2.141 . S
O415 C406 1.289 . S
H416 C422 0.930 . S
H417 C425 0.930 . S
H418 C426 0.930 . S
H419 C427 0.930 . S
H420 C430 0.930 . S
H421 C431 0.930 . S
C422 H416 0.930 . S
C422 C423 1.355 . S
C422 C424 1.415 . S
C423 C422 1.355 . S
C423 C425 1.419 1_655 S
C424 C422 1.415 . S
C424 C429 1.425 1_655 S
C424 C431 1.409 . S
C425 H417 0.930 . S
C425 C423 1.419 1_455 S
C425 C426 1.362 . S
C426 H418 0.930 . S
C426 C425 1.362 . S
C426 C429 1.409 . S
C427 H419 0.930 . S
C427 C428 1.355 . S
C427 C429 1.415 . S
C428 C427 1.355 . S
C428 C430 1.419 1_455 S
C429 C424 1.425 1_455 S
C429 C426 1.409 . S
C429 C427 1.415 . S
C430 H420 0.930 . S
C430 C428 1.419 1_655 S
C430 C431 1.362 . S
C431 H421 0.930 . S
C431 C424 1.409 . S
C431 C430 1.362 . S
H432 C438 0.934 . S
H433 C441 0.930 . S
H434 C442 0.930 . S
H435 C443 0.930 . S
H436 C446 0.930 . S
H437 C447 0.930 . S
C438 H432 0.934 . S
C438 C439 1.365 . S
C438 C440 1.400 1_556 S
C439 C438 1.365 . S
C439 C441 1.419 . S
C440 C438 1.400 1_554 S
C440 C445 1.425 . S
C440 C447 1.409 . S
C441 H433 0.930 . S
C441 C439 1.419 . S
C441 C442 1.362 1_556 S
C442 H434 0.930 . S
C442 C441 1.362 1_554 S
C442 C445 1.409 . S
C443 H435 0.930 . S
C443 C444 1.355 . S
C443 C445 1.415 . S
C444 C443 1.355 . S
C444 C446 1.419 . S
C445 C440 1.425 . S
C445 C442 1.409 . S
C445 C443 1.415 . S
C446 H436 0.930 . S
C446 C444 1.419 . S
C446 C447 1.362 . S
C447 H437 0.930 . S
C447 C440 1.409 . S
C447 C446 1.362 . S
H448 C454 0.930 . S
H449 C457 0.930 . S
H450 C458 0.930 . S
H451 C459 0.930 . S
H452 C462 0.930 . S
H453 C463 0.930 . S
C454 H448 0.930 . S
C454 C455 1.355 . S
C454 C456 1.415 . S
C455 C454 1.355 . S
C455 C457 1.419 . S
C456 C454 1.415 . S
C456 C461 1.425 . S
C456 C463 1.409 . S
C457 H449 0.930 . S
C457 C455 1.419 . S
C457 C458 1.362 . S
C458 H450 0.930 . S
C458 C457 1.362 . S
C458 C461 1.409 . S
C459 H451 0.930 . S
C459 C460 1.355 . S
C459 C461 1.415 . S
C460 C459 1.355 . S
C460 C462 1.419 . S
C461 C456 1.425 . S
C461 C458 1.409 . S
C461 C459 1.415 . S
C462 H452 0.930 . S
C462 C460 1.419 . S
C462 C463 1.362 . S
C463 H453 0.930 . S
C463 C456 1.409 . S
C463 C462 1.362 . S
H464 C470 0.930 . S
H465 C473 0.930 . S
H466 C474 0.930 . S
H467 C475 0.930 . S
H468 C478 0.930 . S
H469 C479 0.930 . S
C470 H464 0.930 . S
C470 C471 1.355 . S
C470 C472 1.415 . S
C471 C470 1.355 . S
C471 C473 1.419 . S
C472 C470 1.415 . S
C472 C477 1.425 . S
C472 C479 1.409 . S
C473 H465 0.930 . S
C473 C471 1.419 . S
C473 C474 1.362 . S
C474 H466 0.930 . S
C474 C473 1.362 . S
C474 C477 1.409 . S
C475 H467 0.930 . S
C475 C476 1.355 . S
C475 C477 1.415 . S
C476 C475 1.355 . S
C476 C478 1.419 . S
C477 C472 1.425 . S
C477 C474 1.409 . S
C477 C475 1.415 . S
C478 H468 0.930 . S
C478 C476 1.419 . S
C478 C479 1.362 . S
C479 H469 0.930 . S
C479 C472 1.409 . S
C479 C478 1.362 . S
H480 C486 0.930 . S
H481 C489 0.930 . S
H482 C490 0.930 . S
H483 C491 0.930 . S
H484 C494 0.935 . S
H485 C495 0.930 . S
C486 H480 0.930 . S
C486 C487 1.355 . S
C486 C488 1.415 . S
C487 C486 1.355 . S
C487 C489 1.419 1_655 S
C488 C486 1.415 . S
C488 C493 1.425 1_655 S
C488 C495 1.409 . S
C489 H481 0.930 . S
C489 C487 1.419 1_455 S
C489 C490 1.362 . S
C490 H482 0.930 . S
C490 C489 1.362 . S
C490 C493 1.409 . S
C491 H483 0.930 . S
C491 C492 1.355 . S
C491 C493 1.415 . S
C492 C491 1.355 . S
C492 C494 1.405 1_455 S
C493 C488 1.425 1_455 S
C493 C490 1.409 . S
C493 C491 1.415 . S
C494 H484 0.935 . S
C494 C492 1.405 1_655 S
C494 C495 1.371 . S
C495 H485 0.930 . S
C495 C488 1.409 . S
C495 C494 1.371 . S
H496 C502 0.930 . S
H497 C505 0.930 . S
H498 C506 0.930 . S
H499 C507 0.930 . S
H500 C510 0.930 . S
H501 C511 0.930 . S
C502 H496 0.930 . S
C502 C503 1.355 . S
C502 C504 1.415 . S
C503 C502 1.355 . S
C503 C505 1.419 . S
C504 C502 1.415 . S
C504 C509 1.425 . S
C504 C511 1.409 . S
C505 H497 0.930 . S
C505 C503 1.419 . S
C505 C506 1.362 . S
C506 H498 0.930 . S
C506 C505 1.362 . S
C506 C509 1.409 . S
C507 H499 0.930 . S
C507 C508 1.355 . S
C507 C509 1.415 1_554 S
C508 C507 1.355 . S
C508 C510 1.419 . S
C509 C504 1.425 . S
C509 C506 1.409 . S
C509 C507 1.415 1_556 S
C510 H500 0.930 . S
C510 C508 1.419 . S
C510 C511 1.362 1_554 S
C511 H501 0.930 . S
C511 C504 1.409 . S
C511 C510 1.362 1_556 S
H512 C518 0.930 . S
H513 C521 0.930 . S
H514 C522 0.930 . S
H515 C523 0.930 . S
H516 C526 0.930 . S
H517 C527 0.930 . S
C518 H512 0.930 . S
C518 C519 1.355 . S
C518 C520 1.415 . S
C519 C518 1.355 . S
C519 C521 1.419 . S
C520 C518 1.415 . S
C520 C525 1.425 . S
C520 C527 1.409 . S
C521 H513 0.930 . S
C521 C519 1.419 . S
C521 C522 1.362 . S
C522 H514 0.930 . S
C522 C521 1.362 . S
C522 C525 1.409 . S
C523 H515 0.930 . S
C523 C524 1.355 . S
C523 C525 1.415 . S
C524 C523 1.355 . S
C524 C526 1.419 . S
C525 C520 1.425 . S
C525 C522 1.409 . S
C525 C523 1.415 . S
C526 H516 0.930 . S
C526 C524 1.419 . S
C526 C527 1.362 . S
C527 H517 0.930 . S
C527 C520 1.409 . S
C527 C526 1.362 . S
H528 C534 0.930 . S
H529 C537 0.930 . S
H530 C538 0.930 . S
H531 C539 0.930 . S
H532 C542 0.930 . S
H533 C543 0.930 . S
C534 H528 0.930 . S
C534 C535 1.355 . S
C534 C536 1.415 . S
C535 C534 1.355 . S
C535 C537 1.419 . S
C536 C534 1.415 . S
C536 C541 1.425 . S
C536 C543 1.409 . S
C537 H529 0.930 . S
C537 C535 1.419 . S
C537 C538 1.362 . S
C538 H530 0.930 . S
C538 C537 1.362 . S
C538 C541 1.409 . S
C539 H531 0.930 . S
C539 C540 1.355 . S
C539 C541 1.415 . S
C540 C539 1.355 . S
C540 C542 1.419 . S
C541 C536 1.425 . S
C541 C538 1.409 . S
C541 C539 1.415 . S
C542 H532 0.930 . S
C542 C540 1.419 . S
C542 C543 1.362 . S
C543 H533 0.930 . S
C543 C536 1.409 . S
C543 C542 1.362 . S
H544 C550 0.930 . S
H545 C553 0.930 . S
H546 C554 0.930 . S
H547 C555 0.930 . S
H548 C558 0.930 . S
H549 C559 0.930 . S
C550 H544 0.930 . S
C550 C551 1.355 . S
C550 C552 1.415 . S
C551 C550 1.355 . S
C551 C553 1.419 1_455 S
C552 C550 1.415 . S
C552 C557 1.425 1_455 S
C552 C559 1.409 . S
C553 H545 0.930 . S
C553 C551 1.419 1_655 S
C553 C554 1.362 . S
C554 H546 0.930 . S
C554 C553 1.362 . S
C554 C557 1.409 . S
C555 H547 0.930 . S
C555 C556 1.355 . S
C555 C557 1.415 . S
C556 C555 1.355 . S
C556 C558 1.419 1_655 S
C557 C552 1.425 1_655 S
C557 C554 1.409 . S
C557 C555 1.415 . S
C558 H548 0.930 . S
C558 C556 1.419 1_455 S
C558 C559 1.362 . S
C559 H549 0.930 . S
C559 C552 1.409 . S
C559 C558 1.362 . S
H560 C566 0.930 . S
H561 C569 0.930 . S
H562 C570 0.930 . S
H563 C571 0.930 . S
H564 C574 0.930 . S
H565 C575 0.930 . S
C566 H560 0.930 . S
C566 C567 1.355 . S
C566 C568 1.415 1_554 S
C567 C566 1.355 . S
C567 C569 1.419 . S
C568 C566 1.415 1_556 S
C568 C573 1.425 . S
C568 C575 1.409 . S
C569 H561 0.930 . S
C569 C567 1.419 . S
C569 C570 1.362 1_554 S
C570 H562 0.930 . S
C570 C569 1.362 1_556 S
C570 C573 1.409 . S
C571 H563 0.930 . S
C571 C572 1.355 . S
C571 C573 1.415 . S
C572 C571 1.355 . S
C572 C574 1.419 . S
C573 C568 1.425 . S
C573 C570 1.409 . S
C573 C571 1.415 . S
C574 H564 0.930 . S
C574 C572 1.419 . S
C574 C575 1.362 . S
C575 H565 0.930 . S
C575 C568 1.409 . S
C575 C574 1.362 . S
H576 C582 0.930 . S
H577 C585 0.930 . S
H578 C586 0.930 . S
H579 C587 0.930 . S
H580 C590 0.930 . S
H581 C591 0.930 . S
C582 H576 0.930 . S
C582 C583 1.355 . S
C582 C584 1.415 . S
C583 C582 1.355 . S
C583 C585 1.419 . S
C584 C582 1.415 . S
C584 C589 1.425 . S
C584 C591 1.409 . S
C585 H577 0.930 . S
C585 C583 1.419 . S
C585 C586 1.362 . S
C586 H578 0.930 . S
C586 C585 1.362 . S
C586 C589 1.409 . S
C587 H579 0.930 . S
C587 C588 1.355 . S
C587 C589 1.415 . S
C588 C587 1.355 . S
C588 C590 1.419 . S
C589 C584 1.425 . S
C589 C586 1.409 . S
C589 C587 1.415 . S
C590 H580 0.930 . S
C590 C588 1.419 . S
C590 C591 1.362 . S
C591 H581 0.930 . S
C591 C584 1.409 . S
C591 C590 1.362 . S
H592 C598 0.930 . S
H593 C601 0.930 . S
H594 C602 0.930 . S
H595 C603 0.930 . S
H596 C606 0.930 . S
H597 C607 0.930 . S
C598 H592 0.930 . S
C598 C599 1.355 . S
C598 C600 1.415 . S
C599 C598 1.355 . S
C599 C601 1.419 . S
C600 C598 1.415 . S
C600 C605 1.425 . S
C600 C607 1.409 . S
C601 H593 0.930 . S
C601 C599 1.419 . S
C601 C602 1.362 . S
C602 H594 0.930 . S
C602 C601 1.362 . S
C602 C605 1.409 . S
C603 H595 0.930 . S
C603 C604 1.355 . S
C603 C605 1.415 . S
C604 C603 1.355 . S
C604 C606 1.419 . S
C605 C600 1.425 . S
C605 C602 1.409 . S
C605 C603 1.415 . S
C606 H596 0.930 . S
C606 C604 1.419 . S
C606 C607 1.362 . S
C607 H597 0.930 . S
C607 C600 1.409 . S
C607 C606 1.362 . S
H608 C614 0.907 1_455 S
H609 C617 0.930 . S
H610 C618 0.930 . S
H611 C619 0.930 . S
H612 C622 0.930 . S
H613 C623 0.930 . S
C614 H608 0.907 1_655 S
C614 C615 1.385 . S
C614 C616 1.408 1_655 S
C615 C614 1.385 . S
C615 C617 1.419 . S
C616 C614 1.408 1_455 S
C616 C621 1.425 1_455 S
C616 C623 1.409 . S
C617 H609 0.930 . S
C617 C615 1.419 . S
C617 C618 1.362 . S
C618 H610 0.930 . S
C618 C617 1.362 . S
C618 C621 1.409 . S
C619 H611 0.930 . S
C619 C620 1.355 1_655 S
C619 C621 1.415 . S
C620 C619 1.355 1_455 S
C620 C622 1.419 . S
C621 C616 1.425 1_655 S
C621 C618 1.409 . S
C621 C619 1.415 . S
C622 H612 0.930 . S
C622 C620 1.419 . S
C622 C623 1.362 . S
C623 H613 0.930 . S
C623 C616 1.409 . S
C623 C622 1.362 . S
H624 C630 0.930 . S
H625 C633 0.930 . S
H626 C634 0.930 . S
H627 C635 0.930 1_556 S
H628 C638 0.930 . S
H629 C639 0.930 . S
C630 H624 0.930 . S
C630 C631 1.355 . S
C630 C632 1.415 . S
C631 C630 1.355 . S
C631 C633 1.419 . S
C632 C630 1.415 . S
C632 C637 1.425 . S
C632 C639 1.409 . S
C633 H625 0.930 . S
C633 C631 1.419 . S
C633 C634 1.362 . S
C634 H626 0.930 . S
C634 C633 1.362 . S
C634 C637 1.409 . S
C635 H627 0.930 1_554 S
C635 C636 1.355 1_554 S
C635 C637 1.415 . S
C636 C635 1.355 1_556 S
C636 C638 1.419 . S
C637 C632 1.425 . S
C637 C634 1.409 . S
C637 C635 1.415 . S
C638 H628 0.930 . S
C638 C636 1.419 . S
C638 C639 1.362 1_556 S
C639 H629 0.930 . S
C639 C632 1.409 . S
C639 C638 1.362 1_554 S
H640 C646 0.930 . S
H641 C649 0.930 . S
H642 C650 0.930 . S
H643 C651 0.930 . S
H644 C654 0.930 . S
H645 C655 0.930 . S
C646 H640 0.930 . S
C646 C647 1.355 . S
C646 C648 1.415 . S
C647 C646 1.355 . S
C647 C649 1.419 . S
C648 C646 1.415 . S
C648 C653 1.425 . S
C648 C655 1.409 . S
C649 H641 0.930 . S
C649 C647 1.419 . S
C649 C650 1.362 . S
C650 H642 0.930 . S
C650 C649 1.362 . S
C650 C653 1.409 . S
C651 H643 0.930 . S
C651 C652 1.355 . S
C651 C653 1.415 . S
C652 C651 1.355 . S
C652 C654 1.419 . S
C653 C648 1.425 . S
C653 C650 1.409 . S
C653 C651 1.415 . S
C654 H644 0.930 . S
C654 C652 1.419 . S
C654 C655 1.362 . S
C655 H645 0.930 . S
C655 C648 1.409 . S
C655 C654 1.362 . S
H656 C662 0.930 . S
H657 C665 0.930 . S
H658 C666 0.930 . S
H659 C667 0.930 . S
H660 C670 0.930 . S
H661 C671 0.930 . S
C662 H656 0.930 . S
C662 C663 1.355 . S
C662 C664 1.415 . S
C663 C662 1.355 . S
C663 C665 1.419 . S
C664 C662 1.415 . S
C664 C669 1.425 . S
C664 C671 1.409 . S
C665 H657 0.930 . S
C665 C663 1.419 . S
C665 C666 1.362 . S
C666 H658 0.930 . S
C666 C665 1.362 . S
C666 C669 1.409 . S
C667 H659 0.930 . S
C667 C668 1.355 . S
C667 C669 1.415 . S
C668 C667 1.355 . S
C668 C670 1.419 . S
C669 C664 1.425 . S
C669 C666 1.409 . S
C669 C667 1.415 . S
C670 H660 0.930 . S
C670 C668 1.419 . S
C670 C671 1.362 . S
C671 H661 0.930 . S
C671 C664 1.409 . S
C671 C670 1.362 . S
H672 C678 0.930 . S
H673 C681 0.930 . S
H674 C682 0.930 . S
H675 C683 0.930 . S
H676 C686 0.930 . S
H677 C687 0.930 . S
C678 H672 0.930 . S
C678 C679 1.355 . S
C678 C680 1.415 . S
C679 C678 1.355 . S
C679 C681 1.419 . S
C680 C678 1.415 . S
C680 C685 1.425 . S
C680 C687 1.409 . S
C681 H673 0.930 . S
C681 C679 1.419 . S
C681 C682 1.362 . S
C682 H674 0.930 . S
C682 C681 1.362 . S
C682 C685 1.409 . S
C683 H675 0.930 . S
C683 C684 1.355 . S
C683 C685 1.415 . S
C684 C683 1.355 . S
C684 C686 1.419 . S
C685 C680 1.425 . S
C685 C682 1.409 . S
C685 C683 1.415 . S
C686 H676 0.930 . S
C686 C684 1.419 . S
C686 C687 1.362 . S
C687 H677 0.930 . S
C687 C680 1.409 . S
C687 C686 1.362 . S
H688 C694 0.930 . S
H689 C697 0.930 . S
H690 C698 0.930 . S
H691 C699 0.930 . S
H692 C702 0.930 . S
H693 C703 0.930 . S
C694 H688 0.930 . S
C694 C695 1.355 . S
C694 C696 1.415 . S
C695 C694 1.355 . S
C695 C697 1.419 . S
C696 C694 1.415 . S
C696 C701 1.425 . S
C696 C703 1.409 . S
C697 H689 0.930 . S
C697 C695 1.419 . S
C697 C698 1.362 . S
C698 H690 0.930 . S
C698 C697 1.362 . S
C698 C701 1.409 . S
C699 H691 0.930 . S
C699 C700 1.355 . S
C699 C701 1.415 . S
C700 C699 1.355 . S
C700 C702 1.419 . S
C701 C696 1.425 . S
C701 C698 1.409 . S
C701 C699 1.415 . S
C702 H692 0.930 . S
C702 C700 1.419 . S
C702 C703 1.362 . S
C703 H693 0.930 . S
C703 C696 1.409 . S
C703 C702 1.362 . S
H704 C710 0.930 . S
H705 C713 0.930 . S
H706 C714 0.930 . S
H707 C715 0.930 . S
H708 C718 0.930 . S
H709 C719 0.930 . S
C710 H704 0.930 . S
C710 C711 1.355 . S
C710 C712 1.415 1_455 S
C711 C710 1.355 . S
C711 C713 1.419 . S
C712 C710 1.415 1_655 S
C712 C717 1.425 . S
C712 C719 1.409 . S
C713 H705 0.930 . S
C713 C711 1.419 . S
C713 C714 1.362 . S
C714 H706 0.930 . S
C714 C713 1.362 . S
C714 C717 1.409 1_455 S
C715 H707 0.930 . S
C715 C716 1.355 . S
C715 C717 1.415 . S
C716 C715 1.355 . S
C716 C718 1.419 . S
C717 C712 1.425 . S
C717 C714 1.409 1_655 S
C717 C715 1.415 . S
C718 H708 0.930 . S
C718 C716 1.419 . S
C718 C719 1.362 . S
C719 H709 0.930 . S
C719 C712 1.409 . S
C719 C718 1.362 . S
H720 C726 0.930 . S
H721 C729 0.930 . S
H722 C730 0.930 . S
H723 C731 0.926 1_556 S
H724 C734 0.930 . S
H725 C735 0.930 . S
C726 H720 0.930 . S
C726 C727 1.355 . S
C726 C728 1.415 . S
C727 C726 1.355 . S
C727 C729 1.419 . S
C728 C726 1.415 . S
C728 C733 1.425 . S
C728 C735 1.409 . S
C729 H721 0.930 . S
C729 C727 1.419 . S
C729 C730 1.362 . S
C730 H722 0.930 . S
C730 C729 1.362 . S
C730 C733 1.409 . S
C731 H723 0.926 1_554 S
C731 C732 1.345 1_554 S
C731 C733 1.428 . S
C732 C731 1.345 1_556 S
C732 C734 1.419 . S
C733 C728 1.425 . S
C733 C730 1.409 . S
C733 C731 1.428 . S
C734 H724 0.930 . S
C734 C732 1.419 . S
C734 C735 1.362 1_556 S
C735 H725 0.930 . S
C735 C728 1.409 . S
C735 C734 1.362 1_554 S
H736 C742 0.930 . S
H737 C745 0.930 . S
H738 C746 0.930 . S
H739 C747 0.930 . S
H740 C750 0.930 . S
H741 C751 0.930 . S
C742 H736 0.930 . S
C742 C743 1.355 . S
C742 C744 1.415 . S
C743 C742 1.355 . S
C743 C745 1.419 . S
C744 C742 1.415 . S
C744 C749 1.425 . S
C744 C751 1.409 . S
C745 H737 0.930 . S
C745 C743 1.419 . S
C745 C746 1.362 . S
C746 H738 0.930 . S
C746 C745 1.362 . S
C746 C749 1.409 . S
C747 H739 0.930 . S
C747 C748 1.355 . S
C747 C749 1.415 . S
C748 C747 1.355 . S
C748 C750 1.419 . S
C749 C744 1.425 . S
C749 C746 1.409 . S
C749 C747 1.415 . S
C750 H740 0.930 . S
C750 C748 1.419 . S
C750 C751 1.362 . S
C751 H741 0.930 . S
C751 C744 1.409 . S
C751 C750 1.362 . S
H752 C758 0.930 . S
H753 C761 0.930 . S
H754 C762 0.930 . S
H755 C763 0.930 . S
H756 C766 0.930 . S
H757 C767 0.930 . S
C758 H752 0.930 . S
C758 C759 1.355 . S
C758 C760 1.415 . S
C759 C758 1.355 . S
C759 C761 1.419 . S
C760 C758 1.415 . S
C760 C765 1.425 . S
C760 C767 1.409 . S
C761 H753 0.930 . S
C761 C759 1.419 . S
C761 C762 1.362 . S
C762 H754 0.930 . S
C762 C761 1.362 . S
C762 C765 1.409 . S
C763 H755 0.930 . S
C763 C764 1.355 . S
C763 C765 1.415 . S
C764 C763 1.355 . S
C764 C766 1.419 . S
C765 C760 1.425 . S
C765 C762 1.409 . S
C765 C763 1.415 . S
C766 H756 0.930 . S
C766 C764 1.419 . S
C766 C767 1.362 . S
C767 H757 0.930 . S
C767 C760 1.409 . S
C767 C766 1.362 . S
H768 C774 0.930 . S
H769 C777 0.930 . S
H770 C778 0.930 . S
H771 C779 0.930 1_455 S
H772 C782 0.930 . S
H773 C783 0.930 . S
C774 H768 0.930 . S
C774 C775 1.355 1_655 S
C774 C776 1.415 . S
C775 C774 1.355 1_455 S
C775 C777 1.419 . S
C776 C774 1.415 . S
C776 C781 1.405 1_655 S
C776 C783 1.409 . S
C777 H769 0.930 . S
C777 C775 1.419 . S
C777 C778 1.362 . S
C778 H770 0.930 . S
C778 C777 1.362 . S
C778 C781 1.441 . S
C779 H771 0.930 1_655 S
C779 C780 1.355 . S
C779 C781 1.406 1_655 S
C780 C779 1.355 . S
C780 C782 1.419 . S
C781 C776 1.405 1_455 S
C781 C778 1.441 . S
C781 C779 1.406 1_455 S
C782 H772 0.930 . S
C782 C780 1.419 . S
C782 C783 1.362 . S
C783 H773 0.930 . S
C783 C776 1.409 . S
C783 C782 1.362 . S
H784 C790 0.930 . S
H785 C793 0.930 . S
H786 C794 0.930 . S
H787 C795 0.930 . S
H788 C798 0.930 . S
H789 C799 0.930 . S
C790 H784 0.930 . S
C790 C791 1.355 1_556 S
C790 C792 1.415 . S
C791 C790 1.355 1_554 S
C791 C793 1.419 . S
C792 C790 1.415 . S
C792 C797 1.425 . S
C792 C799 1.409 . S
C793 H785 0.930 . S
C793 C791 1.419 . S
C793 C794 1.362 1_554 S
C794 H786 0.930 . S
C794 C793 1.362 1_556 S
C794 C797 1.409 . S
C795 H787 0.930 . S
C795 C796 1.355 . S
C795 C797 1.415 . S
C796 C795 1.355 . S
C796 C798 1.419 . S
C797 C792 1.425 . S
C797 C794 1.409 . S
C797 C795 1.415 . S
C798 H788 0.930 . S
C798 C796 1.419 . S
C798 C799 1.362 . S
C799 H789 0.930 . S
C799 C792 1.409 . S
C799 C798 1.362 . S
H800 C806 0.930 . S
H801 C809 0.930 . S
H802 C810 0.930 . S
H803 C811 0.930 . S
H804 C814 0.930 . S
H805 C815 0.930 . S
C806 H800 0.930 . S
C806 C807 1.355 . S
C806 C808 1.415 . S
C807 C806 1.355 . S
C807 C809 1.419 . S
C808 C806 1.415 . S
C808 C813 1.425 . S
C808 C815 1.409 . S
C809 H801 0.930 . S
C809 C807 1.419 . S
C809 C810 1.362 . S
C810 H802 0.930 . S
C810 C809 1.362 . S
C810 C813 1.409 . S
C811 H803 0.930 . S
C811 C812 1.355 . S
C811 C813 1.415 . S
C812 C811 1.355 . S
C812 C814 1.419 . S
C813 C808 1.425 . S
C813 C810 1.409 . S
C813 C811 1.415 . S
C814 H804 0.930 . S
C814 C812 1.419 . S
C814 C815 1.362 . S
C815 H805 0.930 . S
C815 C808 1.409 . S
C815 C814 1.362 . S
H816 C822 0.930 . S
H817 C825 0.930 . S
H818 C826 0.930 . S
H819 C827 0.930 . S
H820 C830 0.930 . S
H821 C831 0.930 . S
C822 H816 0.930 . S
C822 C823 1.355 . S
C822 C824 1.415 . S
C823 C822 1.355 . S
C823 C825 1.419 . S
C824 C822 1.415 . S
C824 C829 1.425 . S
C824 C831 1.409 . S
C825 H817 0.930 . S
C825 C823 1.419 . S
C825 C826 1.362 . S
C826 H818 0.930 . S
C826 C825 1.362 . S
C826 C829 1.409 . S
C827 H819 0.930 . S
C827 C828 1.355 . S
C827 C829 1.415 . S
C828 C827 1.355 . S
C828 C830 1.419 . S
C829 C824 1.425 . S
C829 C826 1.409 . S
C829 C827 1.415 . S
C830 H820 0.930 . S
C830 C828 1.419 . S
C830 C831 1.362 . S
C831 H821 0.930 . S
C831 C824 1.409 . S
C831 C830 1.362 . S
H832 C838 0.930 . S
H833 C841 0.930 . S
H834 C842 0.930 . S
H835 C843 0.930 . S
H836 C846 0.930 . S
H837 C847 0.930 . S
C838 H832 0.930 . S
C838 C839 1.355 1_655 S
C838 C840 1.415 . S
C839 C838 1.355 1_455 S
C839 C841 1.419 . S
C840 C838 1.415 . S
C840 C845 1.425 1_655 S
C840 C847 1.409 . S
C841 H833 0.930 . S
C841 C839 1.419 . S
C841 C842 1.362 . S
C842 H834 0.930 . S
C842 C841 1.362 . S
C842 C845 1.409 . S
C843 H835 0.930 . S
C843 C844 1.355 1_455 S
C843 C845 1.415 . S
C844 C843 1.355 1_655 S
C844 C846 1.419 . S
C845 C840 1.425 1_455 S
C845 C842 1.409 . S
C845 C843 1.415 . S
C846 H836 0.930 . S
C846 C844 1.419 . S
C846 C847 1.362 . S
C847 H837 0.930 . S
C847 C840 1.409 . S
C847 C846 1.362 . S
H848 C854 0.930 . S
H849 C857 0.930 . S
H850 C858 0.930 . S
H851 C859 0.928 1_554 S
H852 C862 0.930 . S
H853 C863 0.930 . S
C854 H848 0.930 . S
C854 C855 1.355 . S
C854 C856 1.415 . S
C855 C854 1.355 . S
C855 C857 1.419 . S
C856 C854 1.415 . S
C856 C861 1.425 . S
C856 C863 1.409 . S
C857 H849 0.930 . S
C857 C855 1.419 . S
C857 C858 1.362 . S
C858 H850 0.930 . S
C858 C857 1.362 . S
C858 C861 1.409 . S
C859 H851 0.928 1_556 S
C859 C860 1.355 1_556 S
C859 C861 1.415 . S
C860 C859 1.355 1_554 S
C860 C862 1.419 . S
C861 C856 1.425 . S
C861 C858 1.409 . S
C861 C859 1.415 . S
C862 H852 0.930 . S
C862 C860 1.419 . S
C862 C863 1.362 1_554 S
C863 H853 0.930 . S
C863 C856 1.409 . S
C863 C862 1.362 1_556 S
H864 C870 0.930 . S
H865 C873 0.930 . S
H866 C874 0.930 . S
H867 C875 0.930 . S
H868 C878 0.930 . S
H869 C879 0.930 . S
C870 H864 0.930 . S
C870 C871 1.355 . S
C870 C872 1.415 . S
C871 C870 1.355 . S
C871 C873 1.419 . S
C872 C870 1.415 . S
C872 C877 1.425 . S
C872 C879 1.409 . S
C873 H865 0.930 . S
C873 C871 1.419 . S
C873 C874 1.362 . S
C874 H866 0.930 . S
C874 C873 1.362 . S
C874 C877 1.409 . S
C875 H867 0.930 . S
C875 C876 1.355 . S
C875 C877 1.415 . S
C876 C875 1.355 . S
C876 C878 1.419 . S
C877 C872 1.425 . S
C877 C874 1.409 . S
C877 C875 1.415 . S
C878 H868 0.930 . S
C878 C876 1.419 . S
C878 C879 1.362 . S
C879 H869 0.930 . S
C879 C872 1.409 . S
C879 C878 1.362 . S
H880 C886 0.930 . S
H881 C889 0.930 . S
H882 C890 0.930 . S
H883 C891 0.930 . S
H884 C894 0.930 . S
H885 C895 0.930 . S
C886 H880 0.930 . S
C886 C887 1.355 . S
C886 C888 1.415 . S
C887 C886 1.355 . S
C887 C889 1.419 . S
C888 C886 1.415 . S
C888 C893 1.425 . S
C888 C895 1.409 . S
C889 H881 0.930 . S
C889 C887 1.419 . S
C889 C890 1.362 . S
C890 H882 0.930 . S
C890 C889 1.362 . S
C890 C893 1.409 . S
C891 H883 0.930 . S
C891 C892 1.355 . S
C891 C893 1.415 . S
C892 C891 1.355 . S
C892 C894 1.419 . S
C893 C888 1.425 . S
C893 C890 1.409 . S
C893 C891 1.415 . S
C894 H884 0.930 . S
C894 C892 1.419 . S
C894 C895 1.362 . S
C895 H885 0.930 . S
C895 C888 1.409 . S
C895 C894 1.362 . S
H896 C902 0.927 1_455 S
H897 C905 0.930 . S
H898 C906 0.930 . S
H899 C907 0.930 . S
H900 C910 0.930 . S
H901 C911 0.930 . S
C902 H896 0.927 1_655 S
C902 C903 1.360 . S
C902 C904 1.412 1_655 S
C903 C902 1.360 . S
C903 C905 1.419 . S
C904 C902 1.412 1_455 S
C904 C909 1.425 . S
C904 C911 1.409 . S
C905 H897 0.930 . S
C905 C903 1.419 . S
C905 C906 1.362 . S
C906 H898 0.930 . S
C906 C905 1.362 . S
C906 C909 1.409 1_655 S
C907 H899 0.930 . S
C907 C908 1.355 . S
C907 C909 1.415 . S
C908 C907 1.355 . S
C908 C910 1.419 . S
C909 C904 1.425 . S
C909 C906 1.409 1_455 S
C909 C907 1.415 . S
C910 H900 0.930 . S
C910 C908 1.419 . S
C910 C911 1.362 . S
C911 H901 0.930 . S
C911 C904 1.409 . S
C911 C910 1.362 . S
H912 C918 0.930 . S
H913 C921 0.930 . S
H914 C922 0.930 . S
H915 C923 0.930 . S
H916 C926 0.930 . S
H917 C927 0.930 . S
C918 H912 0.930 . S
C918 C919 1.355 . S
C918 C920 1.415 . S
C919 C918 1.355 . S
C919 C921 1.419 . S
C920 C918 1.415 . S
C920 C925 1.425 . S
C920 C927 1.409 . S
C921 H913 0.930 . S
C921 C919 1.419 . S
C921 C922 1.362 . S
C922 H914 0.930 . S
C922 C921 1.362 . S
C922 C925 1.409 . S
C923 H915 0.930 . S
C923 C924 1.355 . S
C923 C925 1.415 1_556 S
C924 C923 1.355 . S
C924 C926 1.419 . S
C925 C920 1.425 . S
C925 C922 1.409 . S
C925 C923 1.415 1_554 S
C926 H916 0.930 . S
C926 C924 1.419 . S
C926 C927 1.362 1_556 S
C927 H917 0.930 . S
C927 C920 1.409 . S
C927 C926 1.362 1_554 S
H928 C934 0.930 . S
H929 C937 0.930 . S
H930 C938 0.930 . S
H931 C939 0.930 . S
H932 C942 0.930 . S
H933 C943 0.930 . S
C934 H928 0.930 . S
C934 C935 1.355 1_455 S
C934 C936 1.415 . S
C935 C934 1.355 1_655 S
C935 C937 1.419 1_554 S
C936 C934 1.415 . S
C936 C941 1.425 1_444 S
C936 C943 1.409 1_545 S
C937 H929 0.930 . S
C937 C935 1.419 1_556 S
C937 C938 1.362 . S
C938 H930 0.930 . S
C938 C937 1.362 . S
C938 C941 1.409 1_545 S
C939 H931 0.930 . S
C939 C940 1.355 1_655 S
C939 C941 1.415 . S
C940 C939 1.355 1_455 S
C940 C942 1.419 1_556 S
C941 C936 1.425 1_666 S
C941 C938 1.409 1_565 S
C941 C939 1.415 . S
C942 H932 0.930 . S
C942 C940 1.419 1_554 S
C942 C943 1.362 . S
C943 H933 0.930 . S
C943 C936 1.409 1_565 S
C943 C942 1.362 . S
H944 C950 0.930 . S
H945 C953 0.930 . S
H946 C954 0.930 . S
H947 C955 0.930 . S
H948 C958 0.930 . S
H949 C959 0.930 . S
C950 H944 0.930 . S
C950 C951 1.355 . S
C950 C952 1.415 . S
C951 C950 1.355 . S
C951 C953 1.419 . S
C952 C950 1.415 . S
C952 C957 1.425 . S
C952 C959 1.409 . S
C953 H945 0.930 . S
C953 C951 1.419 . S
C953 C954 1.362 . S
C954 H946 0.930 . S
C954 C953 1.362 . S
C954 C957 1.409 . S
C955 H947 0.930 . S
C955 C956 1.355 . S
C955 C957 1.415 . S
C956 C955 1.355 . S
C956 C958 1.419 . S
C957 C952 1.425 . S
C957 C954 1.409 . S
C957 C955 1.415 . S
C958 H948 0.930 . S
C958 C956 1.419 . S
C958 C959 1.362 . S
C959 H949 0.930 . S
C959 C952 1.409 . S
C959 C958 1.362 . S
H960 C966 0.930 . S
H961 C969 0.930 . S
H962 C970 0.938 . S
H963 C971 0.930 . S
H964 C974 0.930 . S
H965 C975 0.938 . S
C966 H960 0.930 . S
C966 C967 1.355 . S
C966 C968 1.415 . S
C967 C966 1.355 . S
C967 C969 1.419 . S
C968 C966 1.415 . S
C968 C973 1.425 1_545 S
C968 C975 1.409 1_545 S
C969 H961 0.930 . S
C969 C967 1.419 . S
C969 C970 1.362 . S
C970 H962 0.938 . S
C970 C969 1.362 . S
C970 C973 1.409 1_545 S
C971 H963 0.930 . S
C971 C972 1.355 . S
C971 C973 1.415 . S
C972 C971 1.355 . S
C972 C974 1.419 . S
C973 C968 1.425 1_565 S
C973 C970 1.409 1_565 S
C973 C971 1.415 . S
C974 H964 0.930 . S
C974 C972 1.419 . S
C974 C975 1.362 . S
C975 H965 0.938 . S
C975 C968 1.409 1_565 S
C975 C974 1.362 . S
H976 C982 0.930 . S
H977 C985 0.930 . S
H978 C986 0.930 . S
H979 C987 0.930 . S
H980 C990 0.930 . S
H981 C991 0.930 . S
C982 H976 0.930 . S
C982 C983 1.355 . S
C982 C984 1.415 . S
C983 C982 1.355 . S
C983 C985 1.419 . S
C984 C982 1.415 . S
C984 C989 1.425 . S
C984 C991 1.409 . S
C985 H977 0.930 . S
C985 C983 1.419 . S
C985 C986 1.362 . S
C986 H978 0.930 . S
C986 C985 1.362 . S
C986 C989 1.409 . S
C987 H979 0.930 . S
C987 C988 1.355 . S
C987 C989 1.415 . S
C988 C987 1.355 . S
C988 C990 1.419 . S
C989 C984 1.425 . S
C989 C986 1.409 . S
C989 C987 1.415 . S
C990 H980 0.930 . S
C990 C988 1.419 . S
C990 C991 1.362 . S
C991 H981 0.930 . S
C991 C984 1.409 . S
C991 C990 1.362 . S
H992 C998 0.930 . S
H993 C1001 0.930 . S
H994 C1002 0.930 . S
H995 C1003 0.930 . S
H996 C1006 0.930 . S
H997 C1007 0.930 . S
C998 H992 0.930 . S
C998 C999 1.355 1_455 S
C998 C1000 1.415 . S
C999 C998 1.355 1_655 S
C999 C1001 1.419 . S
C1000 C998 1.415 . S
C1000 C1005 1.425 1_465 S
C1000 C1007 1.409 1_565 S
C1001 H993 0.930 . S
C1001 C999 1.419 . S
C1001 C1002 1.362 . S
C1002 H994 0.930 . S
C1002 C1001 1.362 . S
C1002 C1005 1.409 1_565 S
C1003 H995 0.930 . S
C1003 C1004 1.355 1_655 S
C1003 C1005 1.415 . S
C1004 C1003 1.355 1_455 S
C1004 C1006 1.419 . S
C1005 C1000 1.425 1_645 S
C1005 C1002 1.409 1_545 S
C1005 C1003 1.415 . S
C1006 H996 0.930 . S
C1006 C1004 1.419 . S
C1006 C1007 1.362 . S
C1007 H997 0.930 . S
C1007 C1000 1.409 1_545 S
C1007 C1006 1.362 . S
H1008 C1014 0.930 . S
H1009 C1017 0.930 . S
H1010 C1018 0.930 . S
H1011 C1019 0.930 . S
H1012 C1022 0.930 . S
H1013 C1023 0.930 . S
C1014 H1008 0.930 . S
C1014 C1015 1.355 . S
C1014 C1016 1.415 . S
C1015 C1014 1.355 . S
C1015 C1017 1.419 . S
C1016 C1014 1.415 . S
C1016 C1021 1.425 . S
C1016 C1023 1.409 . S
C1017 H1009 0.930 . S
C1017 C1015 1.419 . S
C1017 C1018 1.362 . S
C1018 H1010 0.930 . S
C1018 C1017 1.362 . S
C1018 C1021 1.409 . S
C1019 H1011 0.930 . S
C1019 C1020 1.355 . S
C1019 C1021 1.415 . S
C1020 C1019 1.355 . S
C1020 C1022 1.419 . S
C1021 C1016 1.425 . S
C1021 C1018 1.409 . S
C1021 C1019 1.415 . S
C1022 H1012 0.930 . S
C1022 C1020 1.419 . S
C1022 C1023 1.362 . S
C1023 H1013 0.930 . S
C1023 C1016 1.409 . S
C1023 C1022 1.362 . S
H1024 C1030 0.930 . S
H1025 C1033 0.930 . S
H1026 C1034 0.930 1_545 S
H1027 C1035 0.930 . S
H1028 C1038 0.930 . S
H1029 C1039 0.930 1_565 S
C1030 H1024 0.930 . S
C1030 C1031 1.355 . S
C1030 C1032 1.415 1_554 S
C1031 C1030 1.355 . S
C1031 C1033 1.419 . S
C1032 C1030 1.415 1_556 S
C1032 C1037 1.425 1_566 S
C1032 C1039 1.409 1_565 S
C1033 H1025 0.930 . S
C1033 C1031 1.419 . S
C1033 C1034 1.362 . S
C1034 H1026 0.930 1_565 S
C1034 C1033 1.362 . S
C1034 C1037 1.409 1_565 S
C1035 H1027 0.930 . S
C1035 C1036 1.355 . S
C1035 C1037 1.415 1_556 S
C1036 C1035 1.355 . S
C1036 C1038 1.419 . S
C1037 C1032 1.425 1_544 S
C1037 C1034 1.409 1_545 S
C1037 C1035 1.415 1_554 S
C1038 H1028 0.930 . S
C1038 C1036 1.419 . S
C1038 C1039 1.362 . S
C1039 H1029 0.930 1_545 S
C1039 C1032 1.409 1_545 S
C1039 C1038 1.362 . S
H1040 C1046 0.930 . S
H1041 C1049 0.930 . S
H1042 C1050 0.930 . S
H1043 C1051 0.930 . S
H1044 C1054 0.930 . S
H1045 C1055 0.930 . S
C1046 H1040 0.930 . S
C1046 C1047 1.355 . S
C1046 C1048 1.415 . S
C1047 C1046 1.355 . S
C1047 C1049 1.419 . S
C1048 C1046 1.415 . S
C1048 C1053 1.425 . S
C1048 C1055 1.409 . S
C1049 H1041 0.930 . S
C1049 C1047 1.419 . S
C1049 C1050 1.362 . S
C1050 H1042 0.930 . S
C1050 C1049 1.362 . S
C1050 C1053 1.409 . S
C1051 H1043 0.930 . S
C1051 C1052 1.355 . S
C1051 C1053 1.415 . S
C1052 C1051 1.355 . S
C1052 C1054 1.419 . S
C1053 C1048 1.425 . S
C1053 C1050 1.409 . S
C1053 C1051 1.415 . S
C1054 H1044 0.930 . S
C1054 C1052 1.419 . S
C1054 C1055 1.362 . S
C1055 H1045 0.930 . S
C1055 C1048 1.409 . S
C1055 C1054 1.362 . S
H1056 C1062 0.930 . S
H1057 C1065 0.930 . S
H1058 C1066 0.930 . S
H1059 C1067 0.930 . S
H1060 C1070 0.930 . S
H1061 C1071 0.930 . S
C1062 H1056 0.930 . S
C1062 C1063 1.355 . S
C1062 C1064 1.415 . S
C1063 C1062 1.355 . S
C1063 C1065 1.419 . S
C1064 C1062 1.415 . S
C1064 C1069 1.425 . S
C1064 C1071 1.409 . S
C1065 H1057 0.930 . S
C1065 C1063 1.419 . S
C1065 C1066 1.362 . S
C1066 H1058 0.930 . S
C1066 C1065 1.362 . S
C1066 C1069 1.409 . S
C1067 H1059 0.930 . S
C1067 C1068 1.355 . S
C1067 C1069 1.415 . S
C1068 C1067 1.355 . S
C1068 C1070 1.419 . S
C1069 C1064 1.425 . S
C1069 C1066 1.409 . S
C1069 C1067 1.415 . S
C1070 H1060 0.930 . S
C1070 C1068 1.419 . S
C1070 C1071 1.362 . S
C1071 H1061 0.930 . S
C1071 C1064 1.409 . S
C1071 C1070 1.362 . S
H1072 C1078 0.930 . S
H1073 C1081 0.930 . S
H1074 C1082 0.930 . S
H1075 C1083 0.930 . S
H1076 C1086 0.930 . S
H1077 C1087 0.930 . S
C1078 H1072 0.930 . S
C1078 C1079 1.355 . S
C1078 C1080 1.415 . S
C1079 C1078 1.355 . S
C1079 C1081 1.419 . S
C1080 C1078 1.415 . S
C1080 C1085 1.425 . S
C1080 C1087 1.409 . S
C1081 H1073 0.930 . S
C1081 C1079 1.419 . S
C1081 C1082 1.362 . S
C1082 H1074 0.930 . S
C1082 C1081 1.362 . S
C1082 C1085 1.409 . S
C1083 H1075 0.930 . S
C1083 C1084 1.355 . S
C1083 C1085 1.415 . S
C1084 C1083 1.355 . S
C1084 C1086 1.419 . S
C1085 C1080 1.425 . S
C1085 C1082 1.409 . S
C1085 C1083 1.415 . S
C1086 H1076 0.930 . S
C1086 C1084 1.419 . S
C1086 C1087 1.362 . S
C1087 H1077 0.930 . S
C1087 C1080 1.409 . S
C1087 C1086 1.362 . S
H1088 C1094 0.930 . S
H1089 C1097 0.930 . S
H1090 C1098 0.930 . S
H1091 C1099 0.930 . S
H1092 C1102 0.930 . S
H1093 C1103 0.930 . S
C1094 H1088 0.930 . S
C1094 C1095 1.355 . S
C1094 C1096 1.415 . S
C1095 C1094 1.355 . S
C1095 C1097 1.419 . S
C1096 C1094 1.415 . S
C1096 C1101 1.425 . S
C1096 C1103 1.409 . S
C1097 H1089 0.930 . S
C1097 C1095 1.419 . S
C1097 C1098 1.362 . S
C1098 H1090 0.930 . S
C1098 C1097 1.362 . S
C1098 C1101 1.409 . S
C1099 H1091 0.930 . S
C1099 C1100 1.355 . S
C1099 C1101 1.415 . S
C1100 C1099 1.355 . S
C1100 C1102 1.419 . S
C1101 C1096 1.425 . S
C1101 C1098 1.409 . S
C1101 C1099 1.415 . S
C1102 H1092 0.930 . S
C1102 C1100 1.419 . S
C1102 C1103 1.362 . S
C1103 H1093 0.930 . S
C1103 C1096 1.409 . S
C1103 C1102 1.362 . S
H1104 C1110 0.930 . S
H1105 C1113 0.930 . S
H1106 C1114 0.930 . S
H1107 C1115 0.930 . S
H1108 C1118 0.930 . S
H1109 C1119 0.930 . S
C1110 H1104 0.930 . S
C1110 C1111 1.355 . S
C1110 C1112 1.415 . S
C1111 C1110 1.355 . S
C1111 C1113 1.419 . S
C1112 C1110 1.415 . S
C1112 C1117 1.425 . S
C1112 C1119 1.409 . S
C1113 H1105 0.930 . S
C1113 C1111 1.419 . S
C1113 C1114 1.362 . S
C1114 H1106 0.930 . S
C1114 C1113 1.362 . S
C1114 C1117 1.409 . S
C1115 H1107 0.930 . S
C1115 C1116 1.355 . S
C1115 C1117 1.415 . S
C1116 C1115 1.355 . S
C1116 C1118 1.419 . S
C1117 C1112 1.425 . S
C1117 C1114 1.409 . S
C1117 C1115 1.415 . S
C1118 H1108 0.930 . S
C1118 C1116 1.419 . S
C1118 C1119 1.362 . S
C1119 H1109 0.930 . S
C1119 C1112 1.409 . S
C1119 C1118 1.362 . S
H1120 C1126 0.930 . S
H1121 C1129 0.930 . S
H1122 C1130 0.930 . S
H1123 C1131 0.930 . S
H1124 C1134 0.930 . S
H1125 C1135 0.930 . S
C1126 H1120 0.930 . S
C1126 C1127 1.355 . S
C1126 C1128 1.415 . S
C1127 C1126 1.355 . S
C1127 C1129 1.419 . S
C1128 C1126 1.415 . S
C1128 C1133 1.425 . S
C1128 C1135 1.409 . S
C1129 H1121 0.930 . S
C1129 C1127 1.419 . S
C1129 C1130 1.362 . S
C1130 H1122 0.930 . S
C1130 C1129 1.362 . S
C1130 C1133 1.409 . S
C1131 H1123 0.930 . S
C1131 C1132 1.355 . S
C1131 C1133 1.415 . S
C1132 C1131 1.355 . S
C1132 C1134 1.419 . S
C1133 C1128 1.425 . S
C1133 C1130 1.409 . S
C1133 C1131 1.415 . S
C1134 H1124 0.930 . S
C1134 C1132 1.419 . S
C1134 C1135 1.362 . S
C1135 H1125 0.930 . S
C1135 C1128 1.409 . S
C1135 C1134 1.362 . S
H1136 C1142 0.930 . S
H1137 C1145 0.930 . S
H1138 C1146 0.930 . S
H1139 C1147 0.930 . S
H1140 C1150 0.930 . S
H1141 C1151 0.930 . S
C1142 H1136 0.930 . S
C1142 C1143 1.355 1_655 S
C1142 C1144 1.415 . S
C1143 C1142 1.355 1_455 S
C1143 C1145 1.419 1_554 S
C1144 C1142 1.415 . S
C1144 C1149 1.425 1_654 S
C1144 C1151 1.409 . S
C1145 H1137 0.930 . S
C1145 C1143 1.419 1_556 S
C1145 C1146 1.362 . S
C1146 H1138 0.930 . S
C1146 C1145 1.362 . S
C1146 C1149 1.409 . S
C1147 H1139 0.930 . S
C1147 C1148 1.355 1_455 S
C1147 C1149 1.415 . S
C1148 C1147 1.355 1_655 S
C1148 C1150 1.419 1_556 S
C1149 C1144 1.425 1_456 S
C1149 C1146 1.409 . S
C1149 C1147 1.415 . S
C1150 H1140 0.930 . S
C1150 C1148 1.419 1_554 S
C1150 C1151 1.362 . S
C1151 H1141 0.930 . S
C1151 C1144 1.409 . S
C1151 C1150 1.362 . S
H1152 C1158 0.930 1_554 S
H1153 C1161 0.930 . S
H1154 C1162 0.930 . S
H1155 C1163 0.930 1_556 S
H1156 C1166 0.930 . S
H1157 C1167 0.930 . S
C1158 H1152 0.930 1_556 S
C1158 C1159 1.355 . S
C1158 C1160 1.415 1_556 S
C1159 C1158 1.355 . S
C1159 C1161 1.419 . S
C1160 C1158 1.415 1_554 S
C1160 C1165 1.425 1_554 S
C1160 C1167 1.409 . S
C1161 H1153 0.930 . S
C1161 C1159 1.419 . S
C1161 C1162 1.362 . S
C1162 H1154 0.930 . S
C1162 C1161 1.362 . S
C1162 C1165 1.409 . S
C1163 H1155 0.930 1_554 S
C1163 C1164 1.355 . S
C1163 C1165 1.415 1_554 S
C1164 C1163 1.355 . S
C1164 C1166 1.419 . S
C1165 C1160 1.425 1_556 S
C1165 C1162 1.409 . S
C1165 C1163 1.415 1_556 S
C1166 H1156 0.930 . S
C1166 C1164 1.419 . S
C1166 C1167 1.362 . S
C1167 H1157 0.930 . S
C1167 C1160 1.409 . S
C1167 C1166 1.362 . S
H1168 C1174 0.930 . S
H1169 C1177 0.930 . S
H1170 C1178 0.930 . S
H1171 C1179 0.930 . S
H1172 C1182 0.930 . S
H1173 C1183 0.930 . S
C1174 H1168 0.930 . S
C1174 C1175 1.355 . S
C1174 C1176 1.415 . S
C1175 C1174 1.355 . S
C1175 C1177 1.419 . S
C1176 C1174 1.415 . S
C1176 C1181 1.425 1_655 S
C1176 C1183 1.409 . S
C1177 H1169 0.930 . S
C1177 C1175 1.419 . S
C1177 C1178 1.362 1_655 S
C1178 H1170 0.930 . S
C1178 C1177 1.362 1_455 S
C1178 C1181 1.409 . S
C1179 H1171 0.930 . S
C1179 C1180 1.355 . S
C1179 C1181 1.415 . S
C1180 C1179 1.355 . S
C1180 C1182 1.419 . S
C1181 C1176 1.425 1_455 S
C1181 C1178 1.409 . S
C1181 C1179 1.415 . S
C1182 H1172 0.930 . S
C1182 C1180 1.419 . S
C1182 C1183 1.362 1_455 S
C1183 H1173 0.930 . S
C1183 C1176 1.409 . S
C1183 C1182 1.362 1_655 S
H1184 C1190 0.930 . S
H1185 C1193 0.930 . S
H1186 C1194 0.930 . S
H1187 C1195 0.930 . S
H1188 C1198 0.930 . S
H1189 C1199 0.930 . S
C1190 H1184 0.930 . S
C1190 C1191 1.355 . S
C1190 C1192 1.415 . S
C1191 C1190 1.355 . S
C1191 C1193 1.419 . S
C1192 C1190 1.415 . S
C1192 C1197 1.425 . S
C1192 C1199 1.409 . S
C1193 H1185 0.930 . S
C1193 C1191 1.419 . S
C1193 C1194 1.362 . S
C1194 H1186 0.930 . S
C1194 C1193 1.362 . S
C1194 C1197 1.409 . S
C1195 H1187 0.930 . S
C1195 C1196 1.355 . S
C1195 C1197 1.415 . S
C1196 C1195 1.355 . S
C1196 C1198 1.419 . S
C1197 C1192 1.425 . S
C1197 C1194 1.409 . S
C1197 C1195 1.415 . S
C1198 H1188 0.930 . S
C1198 C1196 1.419 . S
C1198 C1199 1.362 . S
C1199 H1189 0.930 . S
C1199 C1192 1.409 . S
C1199 C1198 1.362 . S
H1200 C1206 0.930 . S
H1201 C1209 0.930 . S
H1202 C1210 0.930 . S
H1203 C1211 0.930 . S
H1204 C1214 0.930 . S
H1205 C1215 0.930 . S
C1206 H1200 0.930 . S
C1206 C1207 1.355 . S
C1206 C1208 1.415 . S
C1207 C1206 1.355 . S
C1207 C1209 1.419 . S
C1208 C1206 1.415 . S
C1208 C1213 1.425 . S
C1208 C1215 1.409 . S
C1209 H1201 0.930 . S
C1209 C1207 1.419 . S
C1209 C1210 1.362 . S
C1210 H1202 0.930 . S
C1210 C1209 1.362 . S
C1210 C1213 1.409 . S
C1211 H1203 0.930 . S
C1211 C1212 1.355 . S
C1211 C1213 1.415 . S
C1212 C1211 1.355 . S
C1212 C1214 1.419 . S
C1213 C1208 1.425 . S
C1213 C1210 1.409 . S
C1213 C1211 1.415 . S
C1214 H1204 0.930 . S
C1214 C1212 1.419 . S
C1214 C1215 1.362 . S
C1215 H1205 0.930 . S
C1215 C1208 1.409 . S
C1215 C1214 1.362 . S
H1216 C1222 0.930 . S
H1217 C1225 0.930 . S
H1218 C1226 0.930 . S
H1219 C1227 0.930 . S
H1220 C1230 0.930 . S
H1221 C1231 0.930 . S
C1222 H1216 0.930 . S
C1222 C1223 1.355 . S
C1222 C1224 1.415 . S
C1223 C1222 1.355 . S
C1223 C1225 1.419 . S
C1224 C1222 1.415 . S
C1224 C1229 1.425 . S
C1224 C1231 1.409 . S
C1225 H1217 0.930 . S
C1225 C1223 1.419 . S
C1225 C1226 1.362 . S
C1226 H1218 0.930 . S
C1226 C1225 1.362 . S
C1226 C1229 1.409 . S
C1227 H1219 0.930 . S
C1227 C1228 1.355 . S
C1227 C1229 1.415 . S
C1228 C1227 1.355 . S
C1228 C1230 1.419 . S
C1229 C1224 1.425 . S
C1229 C1226 1.409 . S
C1229 C1227 1.415 . S
C1230 H1220 0.930 . S
C1230 C1228 1.419 . S
C1230 C1231 1.362 . S
C1231 H1221 0.930 . S
C1231 C1224 1.409 . S
C1231 C1230 1.362 . S
H1232 C1238 0.930 . S
H1233 C1241 0.930 . S
H1234 C1242 0.930 . S
H1235 C1243 0.930 . S
H1236 C1246 0.930 . S
H1237 C1247 0.930 . S
C1238 H1232 0.930 . S
C1238 C1239 1.355 . S
C1238 C1240 1.415 . S
C1239 C1238 1.355 . S
C1239 C1241 1.419 . S
C1240 C1238 1.415 . S
C1240 C1245 1.425 . S
C1240 C1247 1.409 . S
C1241 H1233 0.930 . S
C1241 C1239 1.419 . S
C1241 C1242 1.362 . S
C1242 H1234 0.930 . S
C1242 C1241 1.362 . S
C1242 C1245 1.409 . S
C1243 H1235 0.930 . S
C1243 C1244 1.355 . S
C1243 C1245 1.415 . S
C1244 C1243 1.355 . S
C1244 C1246 1.419 . S
C1245 C1240 1.425 . S
C1245 C1242 1.409 . S
C1245 C1243 1.415 . S
C1246 H1236 0.930 . S
C1246 C1244 1.419 . S
C1246 C1247 1.362 . S
C1247 H1237 0.930 . S
C1247 C1240 1.409 . S
C1247 C1246 1.362 . S
H1248 C1254 0.930 . S
H1249 C1257 0.930 . S
H1250 C1258 0.930 . S
H1251 C1259 0.930 . S
H1252 C1262 0.930 . S
H1253 C1263 0.930 . S
C1254 H1248 0.930 . S
C1254 C1255 1.355 . S
C1254 C1256 1.415 . S
C1255 C1254 1.355 . S
C1255 C1257 1.419 . S
C1256 C1254 1.415 . S
C1256 C1261 1.425 . S
C1256 C1263 1.409 . S
C1257 H1249 0.930 . S
C1257 C1255 1.419 . S
C1257 C1258 1.362 . S
C1258 H1250 0.930 . S
C1258 C1257 1.362 . S
C1258 C1261 1.409 . S
C1259 H1251 0.930 . S
C1259 C1260 1.355 . S
C1259 C1261 1.415 . S
C1260 C1259 1.355 . S
C1260 C1262 1.419 . S
C1261 C1256 1.425 . S
C1261 C1258 1.409 . S
C1261 C1259 1.415 . S
C1262 H1252 0.930 . S
C1262 C1260 1.419 . S
C1262 C1263 1.362 . S
C1263 H1253 0.930 . S
C1263 C1256 1.409 . S
C1263 C1262 1.362 . S
H1264 C1270 0.930 . S
H1265 C1273 0.930 . S
H1266 C1274 0.930 . S
H1267 C1275 0.930 . S
H1268 C1278 0.930 . S
H1269 C1279 0.930 . S
C1270 H1264 0.930 . S
C1270 C1271 1.355 . S
C1270 C1272 1.415 . S
C1271 C1270 1.355 . S
C1271 C1273 1.419 . S
C1272 C1270 1.415 . S
C1272 C1277 1.425 . S
C1272 C1279 1.409 . S
C1273 H1265 0.930 . S
C1273 C1271 1.419 . S
C1273 C1274 1.362 . S
C1274 H1266 0.930 . S
C1274 C1273 1.362 . S
C1274 C1277 1.409 . S
C1275 H1267 0.930 . S
C1275 C1276 1.355 . S
C1275 C1277 1.415 . S
C1276 C1275 1.355 . S
C1276 C1278 1.419 . S
C1277 C1272 1.425 . S
C1277 C1274 1.409 . S
C1277 C1275 1.415 . S
C1278 H1268 0.930 . S
C1278 C1276 1.419 . S
C1278 C1279 1.362 . S
C1279 H1269 0.930 . S
C1279 C1272 1.409 . S
C1279 C1278 1.362 . S
H1280 C1286 0.930 . S
H1281 C1289 0.930 . S
H1282 C1290 0.930 . S
H1283 C1291 0.930 . S
H1284 C1294 0.930 . S
H1285 C1295 0.930 . S
C1286 H1280 0.930 . S
C1286 C1287 1.355 . S
C1286 C1288 1.415 . S
C1287 C1286 1.355 . S
C1287 C1289 1.419 . S
C1288 C1286 1.415 . S
C1288 C1293 1.425 . S
C1288 C1295 1.409 . S
C1289 H1281 0.930 . S
C1289 C1287 1.419 . S
C1289 C1290 1.362 . S
C1290 H1282 0.930 . S
C1290 C1289 1.362 . S
C1290 C1293 1.409 . S
C1291 H1283 0.930 . S
C1291 C1292 1.355 . S
C1291 C1293 1.415 . S
C1292 C1291 1.355 . S
C1292 C1294 1.419 . S
C1293 C1288 1.425 . S
C1293 C1290 1.409 . S
C1293 C1291 1.415 . S
C1294 H1284 0.930 . S
C1294 C1292 1.419 . S
C1294 C1295 1.362 . S
C1295 H1285 0.930 . S
C1295 C1288 1.409 . S
C1295 C1294 1.362 . S
H1296 C1302 0.930 . S
H1297 C1305 0.930 . S
H1298 C1306 0.930 . S
H1299 C1307 0.930 . S
H1300 C1310 0.930 . S
H1301 C1311 0.930 . S
C1302 H1296 0.930 . S
C1302 C1303 1.355 . S
C1302 C1304 1.415 . S
C1303 C1302 1.355 . S
C1303 C1305 1.419 . S
C1304 C1302 1.415 . S
C1304 C1309 1.425 . S
C1304 C1311 1.409 . S
C1305 H1297 0.930 . S
C1305 C1303 1.419 . S
C1305 C1306 1.362 . S
C1306 H1298 0.930 . S
C1306 C1305 1.362 . S
C1306 C1309 1.409 . S
C1307 H1299 0.930 . S
C1307 C1308 1.355 . S
C1307 C1309 1.415 . S
C1308 C1307 1.355 . S
C1308 C1310 1.419 . S
C1309 C1304 1.425 . S
C1309 C1306 1.409 . S
C1309 C1307 1.415 . S
C1310 H1300 0.930 . S
C1310 C1308 1.419 . S
C1310 C1311 1.362 . S
C1311 H1301 0.930 . S
C1311 C1304 1.409 . S
C1311 C1310 1.362 . S
H1312 C1318 0.930 . S
H1313 C1321 0.930 . S
H1314 C1322 0.930 . S
H1315 C1323 0.930 . S
H1316 C1326 0.930 . S
H1317 C1327 0.930 . S
C1318 H1312 0.930 . S
C1318 C1319 1.355 . S
C1318 C1320 1.415 . S
C1319 C1318 1.355 . S
C1319 C1321 1.419 . S
C1320 C1318 1.415 . S
C1320 C1325 1.425 . S
C1320 C1327 1.409 . S
C1321 H1313 0.930 . S
C1321 C1319 1.419 . S
C1321 C1322 1.362 . S
C1322 H1314 0.930 . S
C1322 C1321 1.362 . S
C1322 C1325 1.409 . S
C1323 H1315 0.930 . S
C1323 C1324 1.355 . S
C1323 C1325 1.415 . S
C1324 C1323 1.355 . S
C1324 C1326 1.419 . S
C1325 C1320 1.425 . S
C1325 C1322 1.409 . S
C1325 C1323 1.415 . S
C1326 H1316 0.930 . S
C1326 C1324 1.419 . S
C1326 C1327 1.362 . S
C1327 H1317 0.930 . S
C1327 C1320 1.409 . S
C1327 C1326 1.362 . S
H1328 C1334 0.930 . S
H1329 C1337 0.930 . S
H1330 C1338 0.930 . S
H1331 C1339 0.930 . S
H1332 C1342 0.930 . S
H1333 C1343 0.930 . S
C1334 H1328 0.930 . S
C1334 C1335 1.355 . S
C1334 C1336 1.415 . S
C1335 C1334 1.355 . S
C1335 C1337 1.419 . S
C1336 C1334 1.415 . S
C1336 C1341 1.425 . S
C1336 C1343 1.409 . S
C1337 H1329 0.930 . S
C1337 C1335 1.419 . S
C1337 C1338 1.362 . S
C1338 H1330 0.930 . S
C1338 C1337 1.362 . S
C1338 C1341 1.409 . S
C1339 H1331 0.930 . S
C1339 C1340 1.355 . S
C1339 C1341 1.415 . S
C1340 C1339 1.355 . S
C1340 C1342 1.419 . S
C1341 C1336 1.425 . S
C1341 C1338 1.409 . S
C1341 C1339 1.415 . S
C1342 H1332 0.930 . S
C1342 C1340 1.419 . S
C1342 C1343 1.362 . S
C1343 H1333 0.930 . S
C1343 C1336 1.409 . S
C1343 C1342 1.362 . S
H1344 C1350 0.930 . S
H1345 C1353 0.930 . S
H1346 C1354 0.930 . S
H1347 C1355 0.930 . S
H1348 C1358 0.930 . S
H1349 C1359 0.930 . S
C1350 H1344 0.930 . S
C1350 C1351 1.355 . S
C1350 C1352 1.415 . S
C1351 C1350 1.355 . S
C1351 C1353 1.419 . S
C1352 C1350 1.415 . S
C1352 C1357 1.425 . S
C1352 C1359 1.409 . S
C1353 H1345 0.930 . S
C1353 C1351 1.419 . S
C1353 C1354 1.362 . S
C1354 H1346 0.930 . S
C1354 C1353 1.362 . S
C1354 C1357 1.409 . S
C1355 H1347 0.930 . S
C1355 C1356 1.355 . S
C1355 C1357 1.415 . S
C1356 C1355 1.355 . S
C1356 C1358 1.419 . S
C1357 C1352 1.425 . S
C1357 C1354 1.409 . S
C1357 C1355 1.415 . S
C1358 H1348 0.930 . S
C1358 C1356 1.419 . S
C1358 C1359 1.362 . S
C1359 H1349 0.930 . S
C1359 C1352 1.409 . S
C1359 C1358 1.362 . S
H1360 C1366 0.930 . S
H1361 C1369 0.930 . S
H1362 C1370 0.930 . S
H1363 C1371 0.930 . S
H1364 C1374 0.930 . S
H1365 C1375 0.930 . S
C1366 H1360 0.930 . S
C1366 C1367 1.355 . S
C1366 C1368 1.415 . S
C1367 C1366 1.355 . S
C1367 C1369 1.419 . S
C1368 C1366 1.415 . S
C1368 C1373 1.425 . S
C1368 C1375 1.409 . S
C1369 H1361 0.930 . S
C1369 C1367 1.419 . S
C1369 C1370 1.362 . S
C1370 H1362 0.930 . S
C1370 C1369 1.362 . S
C1370 C1373 1.409 . S
C1371 H1363 0.930 . S
C1371 C1372 1.355 . S
C1371 C1373 1.415 . S
C1372 C1371 1.355 . S
C1372 C1374 1.419 . S
C1373 C1368 1.425 . S
C1373 C1370 1.409 . S
C1373 C1371 1.415 . S
C1374 H1364 0.930 . S
C1374 C1372 1.419 . S
C1374 C1375 1.362 . S
C1375 H1365 0.930 . S
C1375 C1368 1.409 . S
C1375 C1374 1.362 . S
H1376 C1382 0.930 . S
H1377 C1385 0.930 . S
H1378 C1386 0.930 . S
H1379 C1387 0.930 . S
H1380 C1390 0.930 . S
H1381 C1391 0.930 . S
C1382 H1376 0.930 . S
C1382 C1383 1.355 . S
C1382 C1384 1.415 . S
C1383 C1382 1.355 . S
C1383 C1385 1.419 . S
C1384 C1382 1.415 . S
C1384 C1389 1.425 . S
C1384 C1391 1.409 . S
C1385 H1377 0.930 . S
C1385 C1383 1.419 . S
C1385 C1386 1.362 . S
C1386 H1378 0.930 . S
C1386 C1385 1.362 . S
C1386 C1389 1.409 . S
C1387 H1379 0.930 . S
C1387 C1388 1.355 . S
C1387 C1389 1.415 . S
C1388 C1387 1.355 . S
C1388 C1390 1.419 . S
C1389 C1384 1.425 . S
C1389 C1386 1.409 . S
C1389 C1387 1.415 . S
C1390 H1380 0.930 . S
C1390 C1388 1.419 . S
C1390 C1391 1.362 . S
C1391 H1381 0.930 . S
C1391 C1384 1.409 . S
C1391 C1390 1.362 . S
H1392 C1398 0.930 . S
H1393 C1401 0.930 . S
H1394 C1402 0.930 . S
H1395 C1403 0.930 . S
H1396 C1406 0.930 . S
H1397 C1407 0.930 . S
C1398 H1392 0.930 . S
C1398 C1399 1.355 . S
C1398 C1400 1.415 . S
C1399 C1398 1.355 . S
C1399 C1401 1.419 . S
C1400 C1398 1.415 . S
C1400 C1405 1.425 . S
C1400 C1407 1.409 . S
C1401 H1393 0.930 . S
C1401 C1399 1.419 . S
C1401 C1402 1.362 . S
C1402 H1394 0.930 . S
C1402 C1401 1.362 . S
C1402 C1405 1.409 . S
C1403 H1395 0.930 . S
C1403 C1404 1.355 . S
C1403 C1405 1.415 . S
C1404 C1403 1.355 . S
C1404 C1406 1.419 . S
C1405 C1400 1.425 . S
C1405 C1402 1.409 . S
C1405 C1403 1.415 . S
C1406 H1396 0.930 . S
C1406 C1404 1.419 . S
C1406 C1407 1.362 . S
C1407 H1397 0.930 . S
C1407 C1400 1.409 . S
C1407 C1406 1.362 . S
H1408 C1414 0.930 . S
H1409 C1417 0.930 . S
H1410 C1418 0.930 . S
H1411 C1419 0.930 . S
H1412 C1422 0.930 . S
H1413 C1423 0.930 . S
C1414 H1408 0.930 . S
C1414 C1415 1.355 . S
C1414 C1416 1.415 . S
C1415 C1414 1.355 . S
C1415 C1417 1.419 . S
C1416 C1414 1.415 . S
C1416 C1421 1.425 . S
C1416 C1423 1.409 . S
C1417 H1409 0.930 . S
C1417 C1415 1.419 . S
C1417 C1418 1.362 . S
C1418 H1410 0.930 . S
C1418 C1417 1.362 . S
C1418 C1421 1.409 . S
C1419 H1411 0.930 . S
C1419 C1420 1.355 . S
C1419 C1421 1.415 . S
C1420 C1419 1.355 . S
C1420 C1422 1.419 . S
C1421 C1416 1.425 . S
C1421 C1418 1.409 . S
C1421 C1419 1.415 . S
C1422 H1412 0.930 . S
C1422 C1420 1.419 . S
C1422 C1423 1.362 . S
C1423 H1413 0.930 . S
C1423 C1416 1.409 . S
C1423 C1422 1.362 . S
H1424 C1430 0.930 . S
H1425 C1433 0.930 . S
H1426 C1434 0.930 . S
H1427 C1435 0.930 . S
H1428 C1438 0.930 . S
H1429 C1439 0.930 . S
C1430 H1424 0.930 . S
C1430 C1431 1.355 . S
C1430 C1432 1.415 . S
C1431 C1430 1.355 . S
C1431 C1433 1.419 . S
C1432 C1430 1.415 . S
C1432 C1437 1.425 . S
C1432 C1439 1.409 . S
C1433 H1425 0.930 . S
C1433 C1431 1.419 . S
C1433 C1434 1.362 . S
C1434 H1426 0.930 . S
C1434 C1433 1.362 . S
C1434 C1437 1.409 . S
C1435 H1427 0.930 . S
C1435 C1436 1.355 . S
C1435 C1437 1.415 . S
C1436 C1435 1.355 . S
C1436 C1438 1.419 . S
C1437 C1432 1.425 . S
C1437 C1434 1.409 . S
C1437 C1435 1.415 . S
C1438 H1428 0.930 . S
C1438 C1436 1.419 . S
C1438 C1439 1.362 . S
C1439 H1429 0.930 . S
C1439 C1432 1.409 . S
C1439 C1438 1.362 . S
C423 C157 1.323 . S
C428 C5 1.312 . S
C439 C387 1.390 . S
C444 C16 1.366 . S
C455 C183 1.366 . S
C460 C31 1.345 . S
C471 C413 1.401 . S
C476 C42 1.392 . S
C487 C105 1.345 . S
C492 C57 1.324 . S
C503 C68 1.371 . S
C508 C335 1.393 . S
C519 C83 1.352 . S
C524 C131 1.344 . S
C535 C361 1.400 . S
C540 C94 1.401 . S
C551 C62 1.322 . S
C556 C107 1.312 . S
C567 C274 1.390 . S
C572 C122 1.365 . S
C583 C88 1.389 . S
C588 C133 1.386 . S
C599 C300 1.397 . S
C604 C148 1.398 . S
C615 C159 1.366 . S
C620 C10 1.382 . S
C631 C174 1.361 . S
C636 C222 1.387 . S
C647 C36 1.384 . S
C652 C185 1.386 . S
C663 C200 1.401 . S
C668 C248 1.399 . S
C679 C365 1.362 . S
C684 C213 1.370 . S
C695 C179 1.402 . S
C700 C224 1.401 . S
C711 C391 1.355 . S
C716 C239 1.363 . S
C727 C250 1.397 . S
C732 C205 1.396 . S
C743 C265 1.316 . S
C748 C313 1.334 . S
C759 C276 1.398 . S
C764 C127 1.397 . S
C775 C339 1.379 . S
C780 C291 1.361 . S
C791 C153 1.383 . S
C796 C302 1.359 . S
C807 C270 1.389 . S
C812 C315 1.377 . S
C823 C330 1.372 . S
C828 C66 1.385 . S
C839 C341 1.386 . S
C844 C296 1.388 . S
C855 C356 1.374 . S
C860 C92 1.386 . S
C871 C218 1.390 . S
C876 C367 1.384 . S
C887 C14 1.385 . S
C892 C382 1.359 . S
C903 C244 1.334 . S
C908 C393 1.340 . S
C919 C408 1.397 . S
C924 C40 1.396 . S
C935 C1 2.033 . S
C940 C114 2.033 . S
C951 C23 1.959 . S
C956 C326 1.959 . S
C967 C140 2.049 . S
C972 C27 2.049 . S
C983 C49 1.940 . S
C988 C352 1.940 . S
C999 C53 2.036 . S
C1004 C166 2.036 . S
C1015 C378 1.962 . S
C1020 C75 1.962 . S
C1031 C192 2.048 . S
C1036 C79 2.048 . S
C1047 C101 1.942 . S
C1052 C404 1.942 . S
C1063 C118 1.957 . S
C1068 C231 1.957 . S
C1079 C144 1.930 . S
C1084 C257 1.930 . S
C1095 C170 1.907 . S
C1100 C283 1.907 . S
C1111 C309 1.887 . S
C1116 C196 1.887 . S
C1127 C209 2.037 . S
C1132 C322 2.037 . S
C1143 C235 2.038 . S
C1148 C348 2.038 . S
C1159 C261 2.049 . S
C1164 C374 2.049 . S
C1175 C400 2.026 . S
C1180 C287 2.026 . S
C1191 C3 1.884 . S
C1196 C96 1.813 . S
C1207 C18 1.845 . S
C1212 C55 1.896 . S
C1223 C70 1.813 . S
C1228 C29 1.901 . S
C1239 C81 1.886 . S
C1244 C44 1.854 . S
C1255 C198 1.795 . S
C1260 C109 1.896 . S
C1271 C161 1.900 . S
C1276 C120 1.805 . S
C1287 C172 1.796 . S
C1292 C135 1.890 . S
C1303 C187 1.881 . S
C1308 C146 1.828 . S
C1319 C211 1.882 . S
C1324 C304 1.823 . S
C1335 C263 1.885 . S
C1340 C226 1.853 . S
C1351 C278 1.842 . S
C1356 C237 1.882 . S
C1367 C289 1.892 . S
C1372 C252 1.852 . S
C1383 C406 1.846 . S
C1388 C317 1.883 . S
C1399 C328 1.854 . S
C1404 C369 1.889 . S
C1415 C343 1.882 . S
C1420 C380 1.819 . S
C1431 C395 1.892 . S
C1436 C354 1.852 . S
