# Generated by pormake.
# Topology zfq, (5)-cn, num edge types: 1
# Building blocks:
#     Node 0, Type 0, BuildingBlock: BEQFEK_clean_sbu_0, # of connection points: 5
#     Node 1, Type 0, BuildingBlock: BEQFEK_clean_sbu_0, # of connection points: 5
#     Node 2, Type 0, BuildingBlock: BEQFEK_clean_sbu_0, # of connection points: 5
#     Node 3, Type 0, BuildingBlock: BEQFEK_clean_sbu_0, # of connection points: 5
#     Node 4, Type 0, BuildingBlock: BEQFEK_clean_sbu_0, # of connection points: 5
#     Node 5, Type 0, BuildingBlock: BEQFEK_clean_sbu_0, # of connection points: 5
#     Node 6, Type 0, BuildingBlock: BEQFEK_clean_sbu_0, # of connection points: 5
#     Node 7, Type 0, BuildingBlock: BEQFEK_clean_sbu_0, # of connection points: 5
#     Node 8, Type 0, BuildingBlock: BEQFEK_clean_sbu_0, # of connection points: 5
#     Node 9, Type 0, BuildingBlock: BEQFEK_clean_sbu_0, # of connection points: 5
#     Node 10, Type 0, BuildingBlock: BEQFEK_clean_sbu_0, # of connection points: 5
#     Node 11, Type 0, BuildingBlock: BEQFEK_clean_sbu_0, # of connection points: 5
#     Node 12, Type 0, BuildingBlock: BEQFEK_clean_sbu_0, # of connection points: 5
#     Node 13, Type 0, BuildingBlock: BEQFEK_clean_sbu_0, # of connection points: 5
#     Node 14, Type 0, BuildingBlock: BEQFEK_clean_sbu_0, # of connection points: 5
#     Node 15, Type 0, BuildingBlock: BEQFEK_clean_sbu_0, # of connection points: 5
#     Edge 16, Type (0, 0), BuildingBlock: OJICUG_clean_linker_0, # of connection points: 2
#     Edge 17, Type (0, 0), BuildingBlock: OJICUG_clean_linker_0, # of connection points: 2
#     Edge 18, Type (0, 0), BuildingBlock: OJICUG_clean_linker_0, # of connection points: 2
#     Edge 19, Type (0, 0), BuildingBlock: OJICUG_clean_linker_0, # of connection points: 2
#     Edge 20, Type (0, 0), BuildingBlock: OJICUG_clean_linker_0, # of connection points: 2
#     Edge 21, Type (0, 0), BuildingBlock: OJICUG_clean_linker_0, # of connection points: 2
#     Edge 22, Type (0, 0), BuildingBlock: OJICUG_clean_linker_0, # of connection points: 2
#     Edge 23, Type (0, 0), BuildingBlock: OJICUG_clean_linker_0, # of connection points: 2
#     Edge 24, Type (0, 0), BuildingBlock: OJICUG_clean_linker_0, # of connection points: 2
#     Edge 25, Type (0, 0), BuildingBlock: OJICUG_clean_linker_0, # of connection points: 2
#     Edge 26, Type (0, 0), BuildingBlock: OJICUG_clean_linker_0, # of connection points: 2
#     Edge 27, Type (0, 0), BuildingBlock: OJICUG_clean_linker_0, # of connection points: 2
#     Edge 28, Type (0, 0), BuildingBlock: OJICUG_clean_linker_0, # of connection points: 2
#     Edge 29, Type (0, 0), BuildingBlock: OJICUG_clean_linker_0, # of connection points: 2
#     Edge 30, Type (0, 0), BuildingBlock: OJICUG_clean_linker_0, # of connection points: 2
#     Edge 31, Type (0, 0), BuildingBlock: OJICUG_clean_linker_0, # of connection points: 2
#     Edge 32, Type (0, 0), BuildingBlock: OJICUG_clean_linker_0, # of connection points: 2
#     Edge 33, Type (0, 0), BuildingBlock: OJICUG_clean_linker_0, # of connection points: 2
#     Edge 34, Type (0, 0), BuildingBlock: OJICUG_clean_linker_0, # of connection points: 2
#     Edge 35, Type (0, 0), BuildingBlock: OJICUG_clean_linker_0, # of connection points: 2
#     Edge 36, Type (0, 0), BuildingBlock: OJICUG_clean_linker_0, # of connection points: 2
#     Edge 37, Type (0, 0), BuildingBlock: OJICUG_clean_linker_0, # of connection points: 2
#     Edge 38, Type (0, 0), BuildingBlock: OJICUG_clean_linker_0, # of connection points: 2
#     Edge 39, Type (0, 0), BuildingBlock: OJICUG_clean_linker_0, # of connection points: 2
#     Edge 40, Type (0, 0), BuildingBlock: OJICUG_clean_linker_0, # of connection points: 2
#     Edge 41, Type (0, 0), BuildingBlock: OJICUG_clean_linker_0, # of connection points: 2
#     Edge 42, Type (0, 0), BuildingBlock: OJICUG_clean_linker_0, # of connection points: 2
#     Edge 43, Type (0, 0), BuildingBlock: OJICUG_clean_linker_0, # of connection points: 2
#     Edge 44, Type (0, 0), BuildingBlock: OJICUG_clean_linker_0, # of connection points: 2
#     Edge 45, Type (0, 0), BuildingBlock: OJICUG_clean_linker_0, # of connection points: 2
#     Edge 46, Type (0, 0), BuildingBlock: OJICUG_clean_linker_0, # of connection points: 2
#     Edge 47, Type (0, 0), BuildingBlock: OJICUG_clean_linker_0, # of connection points: 2
#     Edge 48, Type (0, 0), BuildingBlock: OJICUG_clean_linker_0, # of connection points: 2
#     Edge 49, Type (0, 0), BuildingBlock: OJICUG_clean_linker_0, # of connection points: 2
#     Edge 50, Type (0, 0), BuildingBlock: OJICUG_clean_linker_0, # of connection points: 2
#     Edge 51, Type (0, 0), BuildingBlock: OJICUG_clean_linker_0, # of connection points: 2
#     Edge 52, Type (0, 0), BuildingBlock: OJICUG_clean_linker_0, # of connection points: 2
#     Edge 53, Type (0, 0), BuildingBlock: OJICUG_clean_linker_0, # of connection points: 2
#     Edge 54, Type (0, 0), BuildingBlock: OJICUG_clean_linker_0, # of connection points: 2
#     Edge 55, Type (0, 0), BuildingBlock: OJICUG_clean_linker_0, # of connection points: 2
# Relax obj value: 0.104
# Max RMSD: 0.174
# Mean RMSD: 0.174
data_MOF--net-zfq--node1-BEQFEK_clean_sbu_0--edge1-OJICUG_clean_linker_0
_symmetry_space_group_name_H-M    P1
_symmetry_Int_Tables_number       1
_symmetry_cell_setting            triclinic
loop_
_symmetry_equiv_pos_as_xyz
'x, y, z'
_cell_length_a     21.731816
_cell_length_b     21.721739
_cell_length_c     60.86165
_cell_angle_alpha  89.912454
_cell_angle_beta   90.1254
_cell_angle_gamma 89.999184
loop_
_atom_site_label
_atom_site_type_symbol
_atom_site_fract_x
_atom_site_fract_y
_atom_site_fract_z
_atom_type_partial_charge
Co0 Co 0.16045 0.16522 0.1576 0.0
Co1 Co 0.1691 0.1639 0.10582 0.0
C2 C 0.09302 0.25692 0.12945 0.0
O3 O 0.10886 0.23732 0.14843 0.0
O4 O 0.11609 0.23449 0.112 0.0
C5 C 0.16533 0.20757 0.20315 0.0
O6 O 0.1566 0.26315 0.19519 0.0
C7 C 0.18711 0.20419 0.05991 0.0
C8 C 0.2154 0.11723 0.04407 0.0
C9 C 0.20593 0.17927 0.04001 0.0
N10 N 0.1866 0.15905 0.07508 0.0
N11 N 0.20293 0.10711 0.06543 0.0
C12 C 0.16745 0.269 0.06445 0.0
H13 H 0.12128 0.26862 0.07213 0.0
H14 H 0.19999 0.29036 0.07627 0.0
H15 H 0.16485 0.29711 0.04926 0.0
C16 C 0.29587 0.156 0.15257 0.0
N17 N 0.23888 0.16092 0.14402 0.0
N18 N 0.24286 0.16519 0.12254 0.0
C19 C 0.30272 0.16688 0.11677 0.0
C20 C 0.33885 0.16021 0.13561 0.0
C21 C 0.30801 0.14365 0.1764 0.0
H22 H 0.27319 0.11104 0.18287 0.0
H23 H 0.30399 0.18731 0.18573 0.0
H24 H 0.35444 0.12367 0.17901 0.0
O25 O 0.11028 0.09425 0.14954 0.0
O26 O 0.11611 0.09227 0.11312 0.0
H27 H 0.32683 0.13878 0.08424 0.0
H28 H 0.3699 0.20439 0.09412 0.0
C29 C 0.32418 0.1818 0.094 0.0
H30 H 0.29125 0.21348 0.08595 0.0
H31 H 0.20658 0.0649 0.07354 0.0
O32 O 0.16858 0.16214 0.19007 0.0
C33 C 0.09468 0.07143 0.13114 0.0
Co34 Co 0.16879 0.82029 0.84282 0.0
Co35 Co 0.16393 0.81056 0.89426 0.0
C36 C 0.26004 0.88521 0.87195 0.0
O37 O 0.24069 0.87029 0.85289 0.0
O38 O 0.23668 0.86197 0.88924 0.0
C39 C 0.21341 0.82665 0.79783 0.0
O40 O 0.26563 0.84602 0.80625 0.0
C41 C 0.20108 0.78595 0.93987 0.0
C42 C 0.11116 0.771 0.95593 0.0
C43 C 0.17396 0.77132 0.95981 0.0
N44 N 0.15628 0.79309 0.92481 0.0
N45 N 0.10265 0.78467 0.93456 0.0
C46 C 0.268 0.79568 0.93516 0.0
H47 H 0.27535 0.84457 0.93057 0.0
H48 H 0.28195 0.76721 0.9209 0.0
H49 H 0.29741 0.78496 0.94957 0.0
C50 C 0.15579 0.68507 0.84723 0.0
N51 N 0.16181 0.74154 0.85605 0.0
N52 N 0.16426 0.73668 0.87754 0.0
C53 C 0.16326 0.6765 0.88309 0.0
C54 C 0.15715 0.64128 0.86403 0.0
C55 C 0.14491 0.67432 0.82323 0.0
H56 H 0.1134 0.71007 0.81666 0.0
H57 H 0.18925 0.67805 0.81432 0.0
H58 H 0.12428 0.62839 0.82019 0.0
O59 O 0.09784 0.87149 0.84989 0.0
O60 O 0.09427 0.86566 0.88628 0.0
H61 H 0.13026 0.65426 0.91522 0.0
H62 H 0.19343 0.60638 0.90617 0.0
C63 C 0.17423 0.65361 0.906 0.0
H64 H 0.20745 0.68393 0.91446 0.0
H65 H 0.06025 0.78744 0.92653 0.0
O66 O 0.16909 0.81299 0.8105 0.0
C67 C 0.07454 0.8875 0.86813 0.0
Co68 Co 0.80802 0.82134 0.1566 0.0
Co69 Co 0.81499 0.81745 0.10505 0.0
C70 C 0.88305 0.72694 0.13428 0.0
O71 O 0.8588 0.74883 0.15157 0.0
O72 O 0.86819 0.74686 0.11523 0.0
C73 C 0.8084 0.79096 0.20248 0.0
O74 O 0.83054 0.73817 0.19558 0.0
C75 C 0.78201 0.7709 0.06102 0.0
C76 C 0.80866 0.84993 0.04021 0.0
C77 C 0.78241 0.79184 0.03939 0.0
N78 N 0.80606 0.81509 0.0739 0.0
N79 N 0.82229 0.86195 0.06132 0.0
C80 C 0.76201 0.70926 0.06939 0.0
H81 H 0.71181 0.70987 0.07257 0.0
H82 H 0.77175 0.67295 0.05706 0.0
H83 H 0.78573 0.6984 0.08509 0.0
C84 C 0.67462 0.81882 0.14692 0.0
N85 N 0.73386 0.8195 0.14049 0.0
N86 N 0.73646 0.82401 0.11901 0.0
C87 C 0.67882 0.83101 0.11113 0.0
C88 C 0.63703 0.82674 0.12851 0.0
C89 C 0.65528 0.805 0.17001 0.0
H90 H 0.69151 0.77831 0.17861 0.0
H91 H 0.61203 0.77791 0.17029 0.0
H92 H 0.64797 0.84886 0.17895 0.0
O93 O 0.86226 0.89074 0.14797 0.0
O94 O 0.86548 0.88948 0.11155 0.0
H95 H 0.62081 0.87447 0.08677 0.0
H96 H 0.66107 0.80671 0.07761 0.0
C97 C 0.66479 0.84865 0.08784 0.0
H98 H 0.70227 0.87776 0.08117 0.0
H99 H 0.8419 0.90258 0.06718 0.0
O100 O 0.7935 0.83191 0.18851 0.0
C101 C 0.88266 0.91175 0.12984 0.0
Co102 Co 0.8195 0.17122 0.84265 0.0
Co103 Co 0.81682 0.16216 0.89419 0.0
C104 C 0.72674 0.09391 0.86502 0.0
O105 O 0.74801 0.11858 0.84766 0.0
O106 O 0.74704 0.10852 0.88401 0.0
C107 C 0.80825 0.15252 0.79645 0.0
O108 O 0.78686 0.09869 0.80265 0.0
C109 C 0.76891 0.18849 0.93844 0.0
C110 C 0.85095 0.17042 0.95896 0.0
C111 C 0.79034 0.19018 0.96005 0.0
N112 N 0.8151 0.16966 0.92541 0.0
N113 N 0.86379 0.15844 0.9378 0.0
C114 C 0.70556 0.20223 0.93008 0.0
H115 H 0.69725 0.17832 0.91427 0.0
H116 H 0.70108 0.2524 0.92707 0.0
H117 H 0.67037 0.18792 0.94225 0.0
C118 C 0.81425 0.30393 0.85296 0.0
N119 N 0.81643 0.24447 0.85919 0.0
N120 N 0.82092 0.24124 0.88067 0.0
C121 C 0.82605 0.29877 0.88876 0.0
C122 C 0.82109 0.341 0.87149 0.0
C123 C 0.7995 0.3239 0.82997 0.0
H124 H 0.77136 0.28843 0.82159 0.0
H125 H 0.77344 0.36779 0.82982 0.0
H126 H 0.84296 0.33014 0.82069 0.0
O127 O 0.89098 0.1182 0.85051 0.0
O128 O 0.88958 0.11381 0.88697 0.0
H129 H 0.86369 0.35811 0.91391 0.0
H130 H 0.79831 0.31229 0.92212 0.0
C131 C 0.84114 0.3125 0.91227 0.0
H132 H 0.87247 0.27676 0.91892 0.0
H133 H 0.90615 0.14356 0.93176 0.0
O134 O 0.82552 0.19079 0.81097 0.0
C135 C 0.91239 0.09779 0.86864 0.0
Co136 Co 0.8353 0.17949 0.65805 0.0
Co137 Co 0.84432 0.181 0.60644 0.0
C138 C 0.91162 0.27249 0.63532 0.0
O139 O 0.88747 0.25132 0.65279 0.0
O140 O 0.89664 0.25187 0.61641 0.0
C141 C 0.8336 0.20987 0.70417 0.0
O142 O 0.86134 0.26065 0.69791 0.0
C143 C 0.81326 0.22768 0.56225 0.0
C144 C 0.84021 0.14905 0.5414 0.0
C145 C 0.81422 0.2073 0.54057 0.0
N146 N 0.83669 0.18309 0.57515 0.0
N147 N 0.85312 0.13645 0.56256 0.0
C148 C 0.79318 0.28918 0.57067 0.0
H149 H 0.81662 0.29971 0.58643 0.0
H150 H 0.74293 0.28851 0.57376 0.0
H151 H 0.80316 0.32576 0.55843 0.0
C152 C 0.70227 0.18191 0.64735 0.0
N153 N 0.76187 0.18093 0.64133 0.0
N154 N 0.76548 0.17541 0.6199 0.0
C155 C 0.70828 0.16809 0.61168 0.0
C156 C 0.66567 0.17316 0.62874 0.0
C157 C 0.68161 0.19667 0.6702 0.0
H158 H 0.71706 0.22432 0.67881 0.0
H159 H 0.63798 0.22314 0.67002 0.0
H160 H 0.67448 0.15319 0.67944 0.0
O161 O 0.88947 0.10887 0.65052 0.0
O162 O 0.8942 0.10926 0.61408 0.0
H163 H 0.6514 0.12368 0.58725 0.0
H164 H 0.69229 0.19089 0.57788 0.0
C165 C 0.6954 0.14941 0.58844 0.0
H166 H 0.73313 0.1199 0.58221 0.0
H167 H 0.87238 0.09561 0.56844 0.0
O168 O 0.81751 0.17058 0.68981 0.0
C169 C 0.9105 0.08733 0.63259 0.0
Co170 Co 0.17612 0.1884 0.34255 0.0
Co171 Co 0.17395 0.1793 0.39414 0.0
C172 C 0.26714 0.11172 0.36601 0.0
O173 O 0.24796 0.13659 0.34833 0.0
O174 O 0.24464 0.12625 0.38465 0.0
C175 C 0.17707 0.16315 0.29692 0.0
O176 O 0.18366 0.1067 0.30435 0.0
C177 C 0.22015 0.2111 0.4381 0.0
C178 C 0.14186 0.18425 0.45914 0.0
C179 C 0.19997 0.21054 0.45978 0.0
N180 N 0.17558 0.18721 0.42535 0.0
N181 N 0.12913 0.17082 0.43804 0.0
C182 C 0.28143 0.23134 0.42954 0.0
H183 H 0.28039 0.28151 0.42618 0.0
H184 H 0.31815 0.22198 0.4418 0.0
H185 H 0.29201 0.20749 0.41389 0.0
C186 C 0.17801 0.32149 0.35315 0.0
N187 N 0.17657 0.26183 0.35919 0.0
N188 N 0.16949 0.25814 0.38056 0.0
C189 C 0.16161 0.31531 0.38867 0.0
C190 C 0.16793 0.35801 0.37165 0.0
C191 C 0.19434 0.3423 0.33043 0.0
H192 H 0.22262 0.30694 0.32208 0.0
H193 H 0.22071 0.386 0.33083 0.0
H194 H 0.15152 0.34945 0.32079 0.0
O195 O 0.10515 0.13369 0.34982 0.0
O196 O 0.10214 0.13008 0.38632 0.0
H197 H 0.11524 0.372 0.41261 0.0
H198 H 0.18188 0.33138 0.42266 0.0
C199 C 0.14122 0.32808 0.41172 0.0
H200 H 0.11145 0.29019 0.41772 0.0
H201 H 0.08836 0.15123 0.43227 0.0
O202 O 0.17239 0.207 0.31061 0.0
C203 C 0.08197 0.1132 0.36764 0.0
Co204 Co 0.19696 0.83271 0.65876 0.0
Co205 Co 0.18748 0.83329 0.60737 0.0
C206 C 0.12069 0.74028 0.63537 0.0
O207 O 0.14478 0.76101 0.65293 0.0
O208 O 0.13566 0.76159 0.61659 0.0
C209 C 0.1725 0.82386 0.70398 0.0
O210 O 0.11709 0.81282 0.69627 0.0
C211 C 0.21764 0.78972 0.56314 0.0
C212 C 0.19027 0.86948 0.54275 0.0
C213 C 0.21636 0.81134 0.54164 0.0
N214 N 0.19434 0.83356 0.57626 0.0
N215 N 0.17762 0.88089 0.56397 0.0
C216 C 0.23799 0.72782 0.5712 0.0
H217 H 0.21454 0.71619 0.58683 0.0
H218 H 0.28822 0.72856 0.57441 0.0
H219 H 0.22827 0.69192 0.5587 0.0
C220 C 0.33021 0.83181 0.64804 0.0
N221 N 0.27045 0.83234 0.64209 0.0
N222 N 0.26642 0.83862 0.62069 0.0
C223 C 0.32331 0.84706 0.61244 0.0
C224 C 0.36632 0.8418 0.62942 0.0
C225 C 0.35159 0.81652 0.67081 0.0
H226 H 0.31697 0.78765 0.67931 0.0
H227 H 0.39583 0.7911 0.67049 0.0
H228 H 0.35784 0.85976 0.68025 0.0
O229 O 0.14244 0.90447 0.65191 0.0
O230 O 0.13793 0.90408 0.61545 0.0
H231 H 0.37913 0.89359 0.58822 0.0
H232 H 0.33865 0.82658 0.57846 0.0
C233 C 0.33542 0.86734 0.58931 0.0
H234 H 0.29729 0.89692 0.58336 0.0
H235 H 0.15836 0.92135 0.57011 0.0
O236 O 0.21579 0.83483 0.69056 0.0
C237 C 0.12155 0.92604 0.63387 0.0
Co238 Co 0.83841 0.82617 0.34054 0.0
Co239 Co 0.82847 0.8271 0.39187 0.0
C240 C 0.74089 0.89843 0.36619 0.0
O241 O 0.76893 0.88053 0.34896 0.0
O242 O 0.7545 0.8765 0.385 0.0
C243 C 0.81266 0.84908 0.29502 0.0
O244 O 0.79537 0.90351 0.30206 0.0
C245 C 0.79208 0.80878 0.43804 0.0
C246 C 0.88257 0.79304 0.45374 0.0
C247 C 0.82 0.79453 0.45794 0.0
N248 N 0.83622 0.81438 0.42272 0.0
N249 N 0.89019 0.80565 0.43227 0.0
C250 C 0.72503 0.81912 0.43364 0.0
H251 H 0.70832 0.78546 0.42131 0.0
H252 H 0.69714 0.81557 0.44883 0.0
H253 H 0.71866 0.86571 0.42652 0.0
C254 C 0.84827 0.69318 0.3483 0.0
N255 N 0.84104 0.75092 0.35576 0.0
N256 N 0.8315 0.74972 0.37703 0.0
C257 C 0.82936 0.69036 0.38369 0.0
C258 C 0.84023 0.65211 0.36565 0.0
C259 C 0.86595 0.67858 0.32511 0.0
H260 H 0.89888 0.7136 0.31896 0.0
H261 H 0.82433 0.68018 0.31453 0.0
H262 H 0.88745 0.63238 0.3239 0.0
O263 O 0.9107 0.87599 0.34687 0.0
O264 O 0.89784 0.88243 0.38302 0.0
H265 H 0.85364 0.66971 0.41694 0.0
H266 H 0.78971 0.62505 0.40657 0.0
C267 C 0.81183 0.67102 0.40645 0.0
H268 H 0.77916 0.70445 0.41351 0.0
H269 H 0.93217 0.80686 0.42399 0.0
O270 O 0.83307 0.80984 0.30869 0.0
C271 C 0.92544 0.89853 0.36543 0.0
Co272 Co 0.68836 0.68453 0.65662 0.0
Co273 Co 0.69509 0.68281 0.60501 0.0
C274 C 0.62091 0.77681 0.62829 0.0
O275 O 0.63665 0.75611 0.64712 0.0
O276 O 0.64389 0.75514 0.61072 0.0
C277 C 0.65603 0.68575 0.70229 0.0
O278 O 0.59973 0.68114 0.69455 0.0
C279 C 0.7164 0.72178 0.55944 0.0
C280 C 0.73104 0.63259 0.54281 0.0
C281 C 0.72989 0.69556 0.53926 0.0
N282 N 0.71067 0.67633 0.57431 0.0
N283 N 0.71892 0.62313 0.56423 0.0
C284 C 0.70636 0.78844 0.56456 0.0
H285 H 0.65773 0.79515 0.56952 0.0
H286 H 0.73561 0.80212 0.57869 0.0
H287 H 0.71585 0.81853 0.55024 0.0
C288 C 0.82276 0.67162 0.65117 0.0
N289 N 0.76595 0.67843 0.64269 0.0
N290 N 0.76979 0.68269 0.62122 0.0
C291 C 0.8297 0.6824 0.61539 0.0
C292 C 0.86578 0.67478 0.63423 0.0
C293 C 0.83457 0.65791 0.67494 0.0
H294 H 0.79881 0.62606 0.68124 0.0
H295 H 0.83187 0.70127 0.68451 0.0
H296 H 0.88041 0.63647 0.67742 0.0
O297 O 0.63729 0.61296 0.6496 0.0
O298 O 0.64072 0.61277 0.61308 0.0
H299 H 0.85203 0.65164 0.58302 0.0
H300 H 0.89815 0.7158 0.5924 0.0
C301 C 0.85152 0.6952 0.59251 0.0
H302 H 0.81997 0.72786 0.58431 0.0
H303 H 0.71705 0.58039 0.57206 0.0
O304 O 0.70069 0.68864 0.68891 0.0
C305 C 0.62016 0.5913 0.63114 0.0
Co306 Co 0.66671 0.32555 0.34264 0.0
Co307 Co 0.68303 0.32829 0.39408 0.0
C308 C 0.76717 0.39882 0.36603 0.0
O309 O 0.73783 0.3795 0.34925 0.0
O310 O 0.75479 0.37889 0.38522 0.0
C311 C 0.6814 0.34894 0.29656 0.0
O312 O 0.69791 0.40397 0.30326 0.0
C313 C 0.72765 0.31262 0.43994 0.0
C314 C 0.64059 0.29118 0.45699 0.0
C315 C 0.70344 0.29652 0.4603 0.0
N316 N 0.68125 0.31538 0.42526 0.0
N317 N 0.62934 0.3032 0.43566 0.0
C318 C 0.79329 0.32691 0.43452 0.0
H319 H 0.81339 0.28811 0.42512 0.0
H320 H 0.82102 0.33507 0.44955 0.0
H321 H 0.79547 0.36861 0.42405 0.0
C322 C 0.65855 0.19331 0.35098 0.0
N323 N 0.66647 0.25116 0.35821 0.0
N324 N 0.6788 0.25049 0.37932 0.0
C325 C 0.68257 0.19122 0.38602 0.0
C326 C 0.66954 0.15258 0.36823 0.0
C327 C 0.63709 0.17834 0.3282 0.0
H328 H 0.60274 0.21292 0.32272 0.0
H329 H 0.67676 0.18033 0.31678 0.0
H330 H 0.61587 0.13192 0.32745 0.0
O331 O 0.59613 0.37531 0.35049 0.0
O332 O 0.61102 0.38269 0.38657 0.0
H333 H 0.66358 0.17035 0.41965 0.0
H334 H 0.72665 0.12682 0.40821 0.0
C335 C 0.70378 0.17242 0.40846 0.0
H336 H 0.7368 0.20664 0.41495 0.0
H337 H 0.58628 0.30168 0.42806 0.0
O338 O 0.66572 0.30877 0.31067 0.0
C339 C 0.58213 0.39796 0.36908 0.0
Co340 Co 0.34485 0.33396 0.65663 0.0
Co341 Co 0.33563 0.3366 0.60481 0.0
C342 C 0.41214 0.24295 0.62845 0.0
O343 O 0.39595 0.26176 0.64745 0.0
O344 O 0.3895 0.26625 0.61101 0.0
C345 C 0.33564 0.29096 0.7021 0.0
O346 O 0.33893 0.23499 0.69404 0.0
C347 C 0.31361 0.29585 0.55911 0.0
C348 C 0.28689 0.38338 0.54319 0.0
C349 C 0.29368 0.32094 0.5393 0.0
N350 N 0.31711 0.3413 0.57407 0.0
N351 N 0.30179 0.39356 0.56435 0.0
C352 C 0.33084 0.23036 0.56376 0.0
H353 H 0.37667 0.22896 0.57176 0.0
H354 H 0.29708 0.20999 0.57533 0.0
H355 H 0.33291 0.20242 0.54855 0.0
C356 C 0.2095 0.34343 0.65173 0.0
N357 N 0.26629 0.33853 0.64311 0.0
N358 N 0.26191 0.33481 0.62163 0.0
C359 C 0.20188 0.33344 0.61593 0.0
C360 C 0.16615 0.3397 0.63483 0.0
C361 C 0.19785 0.35555 0.67558 0.0
H362 H 0.23286 0.388 0.68203 0.0
H363 H 0.20186 0.31177 0.68489 0.0
H364 H 0.15154 0.37565 0.67823 0.0
O365 O 0.39477 0.40496 0.64845 0.0
O366 O 0.38842 0.4088 0.61204 0.0
H367 H 0.1784 0.36251 0.58338 0.0
H368 H 0.1335 0.29804 0.5932 0.0
C369 C 0.1798 0.31937 0.59315 0.0
H370 H 0.21174 0.2868 0.58515 0.0
H371 H 0.30019 0.43603 0.57232 0.0
O372 O 0.33726 0.33683 0.68912 0.0
C373 C 0.40998 0.42885 0.63017 0.0
Co374 Co 0.32879 0.67971 0.34378 0.0
Co375 Co 0.33318 0.68553 0.39546 0.0
C376 C 0.23812 0.61144 0.37227 0.0
O377 O 0.25724 0.62799 0.35334 0.0
O378 O 0.26139 0.63353 0.38976 0.0
C379 C 0.31141 0.6515 0.29773 0.0
O380 O 0.30065 0.59535 0.3048 0.0
C381 C 0.29688 0.70328 0.44156 0.0
C382 C 0.38515 0.73089 0.45672 0.0
C383 C 0.32325 0.72247 0.46119 0.0
N384 N 0.34102 0.70173 0.42613 0.0
N385 N 0.39379 0.7175 0.43536 0.0
C386 C 0.23143 0.6849 0.43747 0.0
H387 H 0.23039 0.63843 0.42999 0.0
H388 H 0.21011 0.71747 0.42564 0.0
H389 H 0.20416 0.68343 0.45283 0.0
C390 C 0.33961 0.8144 0.34963 0.0
N391 N 0.33485 0.75715 0.35793 0.0
N392 N 0.33114 0.76038 0.37941 0.0
C393 C 0.32948 0.82013 0.38545 0.0
C394 C 0.33548 0.8569 0.36673 0.0
C395 C 0.35196 0.82727 0.32586 0.0
H396 H 0.38449 0.79257 0.31929 0.0
H397 H 0.3083 0.82371 0.31645 0.0
H398 H 0.37207 0.87375 0.32347 0.0
O399 O 0.40046 0.62822 0.35055 0.0
O400 O 0.40356 0.63217 0.38705 0.0
H401 H 0.35883 0.84344 0.41794 0.0
H402 H 0.29271 0.88657 0.40848 0.0
C403 C 0.31544 0.8409 0.40835 0.0
H404 H 0.28425 0.80761 0.4164 0.0
H405 H 0.43545 0.72057 0.42694 0.0
O406 O 0.32395 0.69345 0.31155 0.0
C407 C 0.42361 0.61138 0.36884 0.0
Co408 Co 0.31563 0.66558 0.15836 0.0
Co409 Co 0.30731 0.66402 0.10666 0.0
C410 C 0.38285 0.75769 0.12998 0.0
O411 O 0.36768 0.73756 0.14896 0.0
O412 O 0.35909 0.73577 0.11253 0.0
C413 C 0.31545 0.70496 0.20444 0.0
O414 O 0.32955 0.76014 0.19715 0.0
C415 C 0.2849 0.7022 0.06087 0.0
C416 C 0.26691 0.61253 0.04497 0.0
C417 C 0.26928 0.67524 0.04097 0.0
N418 N 0.29049 0.6574 0.07602 0.0
N419 N 0.28033 0.60391 0.06635 0.0
C420 C 0.29669 0.7689 0.06544 0.0
H421 H 0.34465 0.7744 0.0714 0.0
H422 H 0.26577 0.78496 0.07873 0.0
H423 H 0.29045 0.79787 0.0506 0.0
C424 C 0.18007 0.65524 0.15298 0.0
N425 N 0.23713 0.66063 0.1446 0.0
N426 N 0.23331 0.66433 0.1231 0.0
C427 C 0.1735 0.66487 0.11713 0.0
C428 C 0.13722 0.65831 0.13587 0.0
C429 C 0.16775 0.64367 0.17683 0.0
H430 H 0.20233 0.611 0.18347 0.0
H431 H 0.17211 0.68756 0.18601 0.0
H432 H 0.12118 0.62408 0.17942 0.0
O433 O 0.36608 0.59466 0.15065 0.0
O434 O 0.36132 0.59358 0.11423 0.0
H435 H 0.15228 0.63518 0.08448 0.0
H436 H 0.10535 0.69865 0.09391 0.0
C437 C 0.15209 0.67834 0.09421 0.0
H438 H 0.18354 0.71165 0.08636 0.0
H439 H 0.28156 0.56156 0.07446 0.0
O440 O 0.30734 0.66145 0.19082 0.0
C441 C 0.38242 0.57248 0.13227 0.0
Co442 Co 0.65831 0.66248 0.84153 0.0
Co443 Co 0.65451 0.67009 0.89333 0.0
C444 C 0.74843 0.59413 0.86999 0.0
O445 O 0.73013 0.61038 0.85088 0.0
O446 O 0.72484 0.61686 0.88728 0.0
C447 C 0.70051 0.67672 0.79612 0.0
O448 O 0.75661 0.67815 0.80419 0.0
C449 C 0.69474 0.68748 0.93923 0.0
C450 C 0.60792 0.71524 0.95524 0.0
C451 C 0.67007 0.70613 0.95919 0.0
N452 N 0.64939 0.68678 0.92414 0.0
N453 N 0.59752 0.7027 0.93389 0.0
C454 C 0.75962 0.66844 0.93455 0.0
H455 H 0.75955 0.62182 0.92718 0.0
H456 H 0.78014 0.70057 0.92241 0.0
H457 H 0.78828 0.66698 0.94962 0.0
C458 C 0.65014 0.79808 0.84697 0.0
N459 N 0.65383 0.74078 0.85534 0.0
N460 N 0.65702 0.74422 0.87686 0.0
C461 C 0.65922 0.80393 0.88285 0.0
C462 C 0.6541 0.84059 0.86409 0.0
C463 C 0.63944 0.81113 0.8231 0.0
H464 H 0.60687 0.7769 0.8162 0.0
H465 H 0.68362 0.80702 0.81412 0.0
H466 H 0.62018 0.85791 0.82055 0.0
O467 O 0.58706 0.61231 0.84909 0.0
O468 O 0.58287 0.61777 0.88549 0.0
H469 H 0.63009 0.82664 0.91539 0.0
H470 H 0.69573 0.87049 0.90601 0.0
C471 C 0.67336 0.82466 0.90578 0.0
H472 H 0.705 0.79158 0.91377 0.0
H473 H 0.5552 0.70623 0.92585 0.0
O474 O 0.65513 0.67085 0.80908 0.0
C475 C 0.56307 0.59662 0.86727 0.0
Co476 Co 0.66909 0.32252 0.15776 0.0
Co477 Co 0.66073 0.31892 0.10609 0.0
C478 C 0.59284 0.22883 0.13537 0.0
O479 O 0.61724 0.2504 0.15274 0.0
O480 O 0.60754 0.24901 0.11638 0.0
C481 C 0.67079 0.29231 0.20383 0.0
O482 O 0.64747 0.23972 0.1972 0.0
C483 C 0.68838 0.2701 0.06201 0.0
C484 C 0.66907 0.35139 0.04125 0.0
C485 C 0.68972 0.29103 0.04033 0.0
N486 N 0.66884 0.31633 0.0749 0.0
N487 N 0.65692 0.36457 0.06236 0.0
C488 C 0.70313 0.20717 0.07056 0.0
H489 H 0.67976 0.19906 0.08648 0.0
H490 H 0.75342 0.20342 0.07341 0.0
H491 H 0.68896 0.17141 0.05857 0.0
C492 C 0.80227 0.31929 0.14758 0.0
N493 N 0.74276 0.32028 0.14138 0.0
N494 N 0.7394 0.32441 0.11989 0.0
C495 C 0.79673 0.33046 0.11176 0.0
C496 C 0.83911 0.32632 0.12899 0.0
C497 C 0.8226 0.30608 0.17064 0.0
H498 H 0.7868 0.2795 0.17945 0.0
H499 H 0.86598 0.27918 0.17085 0.0
H500 H 0.83013 0.35019 0.17941 0.0
O501 O 0.61532 0.39243 0.14921 0.0
O502 O 0.61144 0.39137 0.11276 0.0
H503 H 0.85517 0.36935 0.0866 0.0
H504 H 0.81022 0.30338 0.07832 0.0
C505 C 0.80996 0.34608 0.08826 0.0
H506 H 0.77372 0.37702 0.08173 0.0
H507 H 0.64134 0.40685 0.06827 0.0
O508 O 0.6851 0.33293 0.18968 0.0
C509 C 0.59486 0.41373 0.13109 0.0
Co510 Co 0.31269 0.30841 0.84136 0.0
Co511 Co 0.3096 0.31873 0.89297 0.0
C512 C 0.219 0.38534 0.86363 0.0
O513 O 0.24085 0.3609 0.84633 0.0
O514 O 0.23862 0.37038 0.88269 0.0
C515 C 0.31825 0.33382 0.79583 0.0
O516 O 0.31496 0.39044 0.80331 0.0
C517 C 0.2653 0.28812 0.93742 0.0
C518 C 0.34419 0.31798 0.95774 0.0
C519 C 0.28682 0.29034 0.95896 0.0
N520 N 0.30852 0.31239 0.92421 0.0
N521 N 0.35527 0.3306 0.93649 0.0
C522 C 0.20401 0.26604 0.9294 0.0
H523 H 0.19196 0.28891 0.91365 0.0
H524 H 0.20599 0.21575 0.9264 0.0
H525 H 0.16785 0.27517 0.94183 0.0
C526 C 0.31264 0.17554 0.85258 0.0
N527 N 0.31149 0.23535 0.85837 0.0
N528 N 0.31655 0.23974 0.87981 0.0
C529 C 0.3258 0.18309 0.88826 0.0
C530 C 0.32244 0.13983 0.87136 0.0
C531 C 0.29949 0.15369 0.82972 0.0
H532 H 0.27095 0.18788 0.8208 0.0
H533 H 0.27458 0.10913 0.82992 0.0
H534 H 0.34353 0.1478 0.82077 0.0
O535 O 0.38341 0.36299 0.84903 0.0
O536 O 0.38067 0.36859 0.88547 0.0
H537 H 0.37274 0.12859 0.91285 0.0
H538 H 0.30442 0.16748 0.92217 0.0
C539 C 0.34548 0.17165 0.91152 0.0
H540 H 0.37386 0.21056 0.91753 0.0
H541 H 0.39525 0.35077 0.93032 0.0
O542 O 0.31819 0.28947 0.80948 0.0
C543 C 0.40369 0.38449 0.86716 0.0
C544 C 0.1638 0.24597 0.24209 0.0
C545 C 0.16972 0.19701 0.22716 0.0
H546 H 0.16146 0.27382 0.27586 0.0
C547 C 0.17891 0.13718 0.23541 0.0
H548 H 0.15673 0.29261 0.2363 0.0
C549 C 0.18147 0.12642 0.25801 0.0
C550 C 0.17502 0.17519 0.27297 0.0
H551 H 0.18382 0.09837 0.22439 0.0
H552 H 0.18833 0.07968 0.26374 0.0
C553 C 0.16645 0.23518 0.26477 0.0
C554 C 0.13696 0.80599 0.74245 0.0
C555 C 0.18404 0.82325 0.72792 0.0
H556 H 0.1095 0.79293 0.77578 0.0
C557 C 0.24177 0.83998 0.73653 0.0
H558 H 0.09208 0.7925 0.73636 0.0
C559 C 0.2518 0.8404 0.75925 0.0
C560 C 0.20437 0.82383 0.77376 0.0
H561 H 0.27905 0.85335 0.72574 0.0
H562 H 0.2965 0.85421 0.76541 0.0
C563 C 0.14704 0.80613 0.76508 0.0
C564 C 0.78738 0.87675 0.25606 0.0
C565 C 0.80899 0.83347 0.27142 0.0
H566 H 0.76973 0.89714 0.22223 0.0
C567 C 0.82768 0.77514 0.26401 0.0
H568 H 0.77238 0.92198 0.26126 0.0
C569 C 0.82603 0.76085 0.24166 0.0
C570 C 0.8057 0.80457 0.22624 0.0
H571 H 0.84429 0.74061 0.27543 0.0
H572 H 0.84167 0.71582 0.23647 0.0
C573 C 0.78573 0.86244 0.2337 0.0
C574 C 0.84335 0.23901 0.74384 0.0
C575 C 0.8244 0.19661 0.72778 0.0
H576 H 0.85304 0.25845 0.77813 0.0
C577 C 0.79854 0.14035 0.7345 0.0
H578 H 0.86334 0.28281 0.73921 0.0
C579 C 0.79287 0.12627 0.7568 0.0
C580 C 0.81278 0.16821 0.77286 0.0
H581 H 0.78336 0.10669 0.72255 0.0
H582 H 0.77333 0.08225 0.76142 0.0
C583 C 0.83753 0.22499 0.76616 0.0
C584 C 0.72801 0.68754 0.73464 0.0
C585 C 0.66759 0.68546 0.7263 0.0
H586 H 0.7859 0.68648 0.76319 0.0
C587 C 0.61829 0.68187 0.74113 0.0
H588 H 0.76708 0.69035 0.72367 0.0
C589 C 0.62911 0.67967 0.76376 0.0
C590 C 0.68951 0.68093 0.77212 0.0
H591 H 0.57121 0.6803 0.73529 0.0
H592 H 0.58996 0.67652 0.77468 0.0
C593 C 0.73885 0.6853 0.75731 0.0
C594 C 0.66115 0.27549 0.26568 0.0
C595 C 0.68068 0.33381 0.27287 0.0
H596 H 0.64302 0.21656 0.2383 0.0
C597 C 0.69913 0.37758 0.25719 0.0
H598 H 0.64684 0.24062 0.27734 0.0
C599 C 0.69714 0.36368 0.23478 0.0
C600 C 0.67653 0.30575 0.22758 0.0
H601 H 0.71468 0.42283 0.26218 0.0
H602 H 0.71098 0.39871 0.22311 0.0
C603 C 0.65906 0.26164 0.24328 0.0
C604 C 0.32152 0.37176 0.75701 0.0
C605 C 0.32212 0.32222 0.77188 0.0
H606 H 0.3251 0.40079 0.72348 0.0
C607 C 0.32656 0.26194 0.76361 0.0
H608 H 0.31801 0.41876 0.76279 0.0
C609 C 0.33068 0.25157 0.74095 0.0
C610 C 0.33043 0.30124 0.72611 0.0
H611 H 0.32706 0.22274 0.77463 0.0
H612 H 0.3343 0.20465 0.73509 0.0
C613 C 0.3256 0.36141 0.73442 0.0
C614 C 0.29786 0.6194 0.25845 0.0
C615 C 0.31035 0.66576 0.2739 0.0
H616 H 0.28934 0.5954 0.22452 0.0
C617 C 0.32269 0.72575 0.26632 0.0
H618 H 0.28803 0.57277 0.26371 0.0
C619 C 0.32346 0.73881 0.24379 0.0
C620 C 0.31192 0.69219 0.22835 0.0
H621 H 0.33233 0.76265 0.27776 0.0
H622 H 0.33377 0.78531 0.23851 0.0
C623 C 0.29859 0.63245 0.23596 0.0
C624 C 0.01549 0.008 0.15041 0.0
C625 C 0.04304 0.0272 0.13066 0.0
H626 H 0.94242 0.9582 0.16568 0.0
C627 C 0.01595 0.0099 0.11062 0.0
H628 H 0.03475 0.02096 0.16617 0.0
C629 C 0.96235 0.97448 0.11035 0.0
C630 C 0.93472 0.95549 0.13012 0.0
H631 H 0.03548 0.02455 0.09511 0.0
H632 H 0.94302 0.96143 0.09461 0.0
C633 C 0.96192 0.97271 0.15015 0.0
C634 C 0.97524 0.01968 0.8485 0.0
C635 C 0.95742 0.04681 0.86843 0.0
H636 H 0.02461 0.94716 0.83277 0.0
C637 C 0.97693 0.01982 0.8883 0.0
H638 H 0.96041 0.03876 0.83291 0.0
C639 C 0.01297 0.96667 0.88823 0.0
C640 C 0.03056 0.93939 0.86831 0.0
H641 H 0.9636 0.03915 0.90398 0.0
H642 H 0.02769 0.94752 0.90383 0.0
C643 C 0.01134 0.96656 0.84844 0.0
C644 C 0.99128 0.02596 0.61358 0.0
C645 C 0.96222 0.04313 0.63323 0.0
H646 H 0.06519 0.97787 0.59842 0.0
C647 C 0.98768 0.02352 0.65334 0.0
H648 H 0.97351 0.04074 0.59778 0.0
C649 C 0.04103 0.98744 0.65373 0.0
C650 C 0.07 0.97048 0.63401 0.0
H651 H 0.96686 0.03658 0.6688 0.0
H652 H 0.05894 0.97212 0.66943 0.0
C653 C 0.04454 0.99043 0.61397 0.0
C654 C 0.0147 0.03595 0.38638 0.0
C655 C 0.03828 0.06104 0.36681 0.0
H656 H 0.96218 0.96424 0.4014 0.0
C657 C 0.02609 0.03091 0.34686 0.0
H658 H 0.02367 0.05759 0.40209 0.0
C659 C 0.99152 0.97673 0.3465 0.0
C660 C 0.96814 0.95154 0.36609 0.0
H661 H 0.04426 0.04842 0.33151 0.0
H662 H 0.98254 0.95505 0.33081 0.0
C663 C 0.9801 0.98185 0.38603 0.0
C664 C 0.4869 0.49334 0.6501 0.0
C665 C 0.46102 0.47386 0.63008 0.0
H666 H 0.55809 0.5438 0.66615 0.0
C667 C 0.4892 0.49183 0.61032 0.0
H668 H 0.46678 0.48004 0.66566 0.0
C669 C 0.54233 0.52815 0.61061 0.0
C670 C 0.56833 0.54721 0.63067 0.0
H671 H 0.47093 0.47698 0.59463 0.0
H672 H 0.56259 0.54176 0.5951 0.0
C673 C 0.53991 0.52935 0.65039 0.0
C674 C 0.49092 0.53585 0.38894 0.0
C675 C 0.46728 0.55912 0.36904 0.0
H676 H 0.54476 0.46586 0.4047 0.0
C677 C 0.47976 0.52736 0.34946 0.0
H678 H 0.48155 0.55878 0.40436 0.0
C679 C 0.51464 0.47359 0.34973 0.0
C680 C 0.53861 0.45033 0.36955 0.0
H681 H 0.46168 0.54334 0.33386 0.0
H682 H 0.52358 0.45087 0.33423 0.0
C683 C 0.52639 0.48208 0.38918 0.0
C684 C 0.51589 0.47464 0.1514 0.0
C685 C 0.54308 0.4577 0.13139 0.0
H686 H 0.44281 0.52237 0.16738 0.0
C687 C 0.51546 0.47689 0.11161 0.0
H688 H 0.53544 0.45999 0.16694 0.0
C689 C 0.4617 0.51198 0.11184 0.0
C690 C 0.43447 0.52881 0.13187 0.0
H691 H 0.53482 0.4641 0.09588 0.0
H692 H 0.4421 0.52666 0.09632 0.0
C693 C 0.46215 0.50967 0.15164 0.0
C694 C 0.46406 0.46504 0.84718 0.0
C695 C 0.44752 0.43644 0.86701 0.0
H696 H 0.51184 0.53921 0.83171 0.0
C697 C 0.46705 0.46275 0.88696 0.0
H698 H 0.44899 0.44659 0.83154 0.0
C699 C 0.50215 0.51646 0.8871 0.0
C700 C 0.51886 0.54499 0.86728 0.0
H701 H 0.45463 0.4423 0.90258 0.0
H702 H 0.51715 0.53487 0.90275 0.0
C703 C 0.4993 0.51874 0.84731 0.0
C704 C 0.27257 0.29347 0.99957 0.0
C705 C 0.25957 0.2651 0.97935 0.0
H706 H 0.26673 0.28823 0.03459 0.0
C707 C 0.22639 0.20956 0.97924 0.0
H708 H 0.29895 0.33575 0.0002 0.0
C709 C 0.20724 0.18274 0.99899 0.0
C710 C 0.22063 0.21101 0.01917 0.0
H711 H 0.21771 0.18512 0.96409 0.0
H712 H 0.18306 0.13913 0.99851 0.0
C713 C 0.25345 0.26666 0.01927 0.0
C714 C 0.20612 0.75213 0.02037 0.0
C715 C 0.25036 0.70502 0.02027 0.0
H716 H 0.1472 0.81018 0.00104 0.0
C717 C 0.27138 0.68185 0.00013 0.0
H718 H 0.18774 0.76931 0.03571 0.0
C719 C 0.24845 0.70536 0.98037 0.0
C720 C 0.20359 0.75186 0.98047 0.0
H721 H 0.30462 0.6447 0.9997 0.0
H722 H 0.26384 0.68534 0.96504 0.0
C723 C 0.18262 0.7751 0.0006 0.0
C724 C 0.75713 0.75598 0.97936 0.0
C725 C 0.70227 0.72192 0.97984 0.0
H726 H 0.82588 0.8036 0.99792 0.0
C727 C 0.67513 0.70843 0.0002 0.0
H728 H 0.77777 0.76932 0.96389 0.0
C729 C 0.70233 0.72874 0.01975 0.0
C730 C 0.75702 0.76325 0.01925 0.0
H731 H 0.63212 0.68331 0.00097 0.0
H732 H 0.67877 0.71992 0.03506 0.0
C733 C 0.78427 0.77626 0.99885 0.0
C734 C 0.78076 0.19049 0.00096 0.0
C735 C 0.75973 0.21174 0.98044 0.0
H736 H 0.77744 0.19946 0.03576 0.0
C737 C 0.7139 0.25733 0.97995 0.0
H738 H 0.81678 0.15612 0.00198 0.0
C739 C 0.68972 0.28084 0.99946 0.0
C740 C 0.71135 0.26022 0.01999 0.0
H741 H 0.69836 0.27726 0.96467 0.0
H742 H 0.65507 0.31659 0.99842 0.0
C743 C 0.75727 0.21471 0.02048 0.0
C744 C 0.81683 0.22394 0.49998 0.0
C745 C 0.78946 0.23663 0.52039 0.0
H746 H 0.81099 0.23206 0.46503 0.0
C747 C 0.73527 0.27191 0.52085 0.0
H748 H 0.85808 0.19606 0.49905 0.0
C749 C 0.70871 0.29329 0.50132 0.0
C750 C 0.73581 0.28003 0.48093 0.0
H751 H 0.71151 0.28056 0.53612 0.0
H752 H 0.66603 0.31896 0.50212 0.0
C753 C 0.79029 0.2453 0.48047 0.0
C754 C 0.21824 0.20819 0.50027 0.0
C755 C 0.22963 0.23576 0.47978 0.0
H756 H 0.22881 0.21373 0.53516 0.0
C757 C 0.26435 0.29031 0.47901 0.0
H758 H 0.19076 0.1667 0.50142 0.0
C759 C 0.28681 0.31684 0.49836 0.0
C760 C 0.27525 0.28927 0.51882 0.0
H761 H 0.27189 0.31422 0.46366 0.0
H762 H 0.31222 0.35967 0.49736 0.0
C763 C 0.24072 0.23468 0.51959 0.0
C764 C 0.29542 0.74827 0.52172 0.0
C765 C 0.24079 0.78289 0.5214 0.0
H766 H 0.36406 0.70156 0.50274 0.0
C767 C 0.21236 0.79546 0.50115 0.0
H768 H 0.31993 0.73992 0.53691 0.0
C769 C 0.23811 0.77422 0.4816 0.0
C770 C 0.2927 0.73968 0.48192 0.0
H771 H 0.17079 0.82293 0.50037 0.0
H772 H 0.21655 0.78701 0.4662 0.0
C773 C 0.32118 0.72696 0.50213 0.0
C774 C 0.81557 0.79551 0.49882 0.0
C775 C 0.79138 0.77495 0.47873 0.0
H776 H 0.81448 0.78661 0.53388 0.0
C777 C 0.7447 0.73023 0.47874 0.0
H778 H 0.85242 0.82909 0.49916 0.0
C779 C 0.72328 0.70575 0.49855 0.0
C780 C 0.74762 0.7262 0.51861 0.0
H781 H 0.72679 0.71212 0.46344 0.0
H782 H 0.68858 0.66994 0.49818 0.0
C783 C 0.79361 0.77159 0.51862 0.0
C784 C 0.4951 0.21325 0.15537 0.0
C785 C 0.53349 0.19624 0.13781 0.0
H786 H 0.40379 0.21933 0.1676 0.0
C787 C 0.509 0.15974 0.1209 0.0
H788 H 0.51199 0.24235 0.16851 0.0
C789 C 0.44649 0.14348 0.12106 0.0
C790 C 0.40694 0.16612 0.13749 0.0
H791 H 0.53741 0.14616 0.10713 0.0
H792 H 0.42857 0.11587 0.10771 0.0
C793 C 0.43252 0.19969 0.15493 0.0
C794 C 0.19605 0.54752 0.84473 0.0
C795 C 0.16136 0.57306 0.86186 0.0
H796 H 0.23794 0.46769 0.83124 0.0
C797 C 0.13588 0.53315 0.8777 0.0
H798 H 0.21783 0.57644 0.83254 0.0
C799 C 0.15043 0.47016 0.87767 0.0
C800 C 0.18796 0.44559 0.8611 0.0
H801 H 0.10732 0.55107 0.89076 0.0
H802 H 0.1347 0.44133 0.89107 0.0
C803 C 0.20787 0.48457 0.84406 0.0
C804 C 0.47874 0.77802 0.10923 0.0
C805 C 0.4419 0.7912 0.12762 0.0
H806 H 0.56872 0.77444 0.09584 0.0
C807 C 0.46792 0.8246 0.14507 0.0
H808 H 0.46078 0.75162 0.09555 0.0
C809 C 0.53041 0.84103 0.1446 0.0
C810 C 0.56861 0.82164 0.12724 0.0
H811 H 0.44077 0.83551 0.15945 0.0
H812 H 0.54927 0.86633 0.15835 0.0
C813 C 0.54132 0.79163 0.10929 0.0
C814 C 0.76785 0.49761 0.89059 0.0
C815 C 0.78219 0.53529 0.87248 0.0
H816 H 0.76464 0.40705 0.9037 0.0
C817 C 0.81753 0.51044 0.85536 0.0
H818 H 0.73995 0.51467 0.904 0.0
C819 C 0.83489 0.4482 0.85585 0.0
C820 C 0.8146 0.40918 0.87289 0.0
H821 H 0.82934 0.53828 0.84121 0.0
H822 H 0.86158 0.43007 0.84234 0.0
C823 C 0.78249 0.43527 0.89053 0.0
C824 C 0.50863 0.22177 0.60819 0.0
C825 C 0.47087 0.20884 0.62636 0.0
H826 H 0.59937 0.22498 0.59541 0.0
C827 C 0.49582 0.1753 0.64401 0.0
H828 H 0.49145 0.24817 0.59435 0.0
C829 C 0.55829 0.15885 0.64404 0.0
C830 C 0.5974 0.17817 0.62693 0.0
H831 H 0.4679 0.16451 0.65823 0.0
H832 H 0.57642 0.13373 0.65798 0.0
C833 C 0.57117 0.208 0.6087 0.0
C834 C 0.20145 0.45242 0.39193 0.0
C835 C 0.1728 0.4263 0.37347 0.0
H836 H 0.24085 0.53202 0.40654 0.0
C837 C 0.15461 0.46553 0.35618 0.0
H838 H 0.2175 0.42412 0.40538 0.0
C839 C 0.17109 0.52801 0.35631 0.0
C840 C 0.20361 0.55284 0.3742 0.0
H841 H 0.1304 0.44746 0.34204 0.0
H842 H 0.16126 0.55599 0.34197 0.0
C843 C 0.21528 0.51497 0.39251 0.0
C844 C 0.53666 0.84239 0.6443 0.0
C845 C 0.56177 0.81033 0.6264 0.0
H846 H 0.45563 0.88145 0.6587 0.0
C847 C 0.52374 0.79752 0.60825 0.0
H848 H 0.56476 0.85295 0.65853 0.0
C849 C 0.46091 0.80982 0.60902 0.0
C850 C 0.43462 0.83815 0.62747 0.0
H851 H 0.54104 0.77215 0.59425 0.0
H852 H 0.43266 0.79288 0.5957 0.0
C853 C 0.47385 0.85745 0.64458 0.0
C854 C 0.85247 0.54469 0.38135 0.0
C855 C 0.83323 0.58398 0.36424 0.0
H856 H 0.84685 0.45413 0.39552 0.0
C857 C 0.80239 0.5582 0.34619 0.0
H858 H 0.8779 0.56276 0.39523 0.0
C859 C 0.78804 0.4958 0.34572 0.0
C860 C 0.8014 0.45762 0.3638 0.0
H861 H 0.78542 0.58673 0.33292 0.0
H862 H 0.7612 0.47909 0.33197 0.0
C863 C 0.83573 0.48223 0.38134 0.0
C864 C 0.02197 0.72549 0.65473 0.0
C865 C 0.06094 0.70816 0.6374 0.0
H866 H 0.93034 0.73294 0.66643 0.0
C867 C 0.03664 0.67231 0.62026 0.0
H868 H 0.03856 0.75425 0.668 0.0
C869 C 0.97386 0.6569 0.62003 0.0
C870 C 0.93393 0.67986 0.63629 0.0
H871 H 0.06547 0.65858 0.60662 0.0
H872 H 0.95615 0.62964 0.60655 0.0
C873 C 0.95927 0.71291 0.6539 0.0
C874 C 0.71823 0.99665 0.3469 0.0
C875 C 0.70722 0.95782 0.36497 0.0
H876 H 0.71985 0.088 0.33453 0.0
C877 C 0.67626 0.98217 0.38331 0.0
H878 H 0.74254 0.98025 0.33255 0.0
C879 C 0.66035 0.04484 0.38397 0.0
C880 C 0.67692 0.08453 0.36666 0.0
H881 H 0.66715 0.95361 0.39754 0.0
H882 H 0.63743 0.06264 0.3984 0.0
C883 C 0.70474 0.05915 0.34796 0.0
C884 C 0.07297 0.29995 0.65429 0.0
C885 C 0.09807 0.33389 0.63685 0.0
H886 H 0.99379 0.25746 0.66807 0.0
C887 C 0.05799 0.35721 0.62061 0.0
H888 H 0.10209 0.27978 0.6668 0.0
C889 C 0.99536 0.34135 0.62065 0.0
C890 C 0.9713 0.30463 0.63758 0.0
H891 H 0.07554 0.38511 0.60727 0.0
H892 H 0.96646 0.35547 0.60702 0.0
C893 C 0.01032 0.28684 0.65493 0.0
C894 C 0.28156 0.0128 0.34672 0.0
C895 C 0.29898 0.05181 0.36406 0.0
H896 H 0.27505 0.92115 0.33485 0.0
C897 C 0.335 0.02762 0.38121 0.0
H898 H 0.25251 0.02936 0.33349 0.0
C899 C 0.35104 0.96498 0.38134 0.0
C900 C 0.32861 0.92501 0.36495 0.0
H901 H 0.34864 0.05649 0.39488 0.0
H902 H 0.37862 0.9474 0.39478 0.0
C903 C 0.29484 0.95018 0.34744 0.0
C904 C 0.98071 0.71251 0.15459 0.0
C905 C 0.94258 0.69467 0.13699 0.0
H906 H 0.07176 0.71894 0.1672 0.0
C907 C 0.96728 0.65713 0.12046 0.0
H908 H 0.96369 0.74236 0.16747 0.0
C909 C 0.02972 0.6405 0.12106 0.0
C910 C 0.06905 0.66402 0.13748 0.0
H911 H 0.93909 0.64283 0.10669 0.0
H912 H 0.04783 0.61199 0.10801 0.0
C913 C 0.04322 0.69867 0.15455 0.0
C914 C 0.63872 0.94848 0.87872 0.0
C915 C 0.66173 0.90856 0.86245 0.0
H916 H 0.64192 0.03945 0.89268 0.0
C917 C 0.69728 0.93349 0.84542 0.0
H918 H 0.60978 0.93101 0.89177 0.0
C919 C 0.71207 0.99578 0.84518 0.0
C920 C 0.69417 0.03457 0.8625 0.0
H921 H 0.71735 0.90439 0.83294 0.0
H922 H 0.74257 0.01208 0.83238 0.0
C923 C 0.65611 0.01072 0.87907 0.0
C924 C 0.94655 0.34108 0.14438 0.0
C925 C 0.90732 0.32054 0.12744 0.0
H926 H 0.03717 0.33666 0.15863 0.0
C927 C 0.93333 0.28904 0.10962 0.0
H928 H 0.92852 0.36728 0.15803 0.0
C929 C 0.99587 0.2755 0.10923 0.0
C930 C 0.03389 0.29018 0.12721 0.0
H931 H 0.905 0.27082 0.09654 0.0
H932 H 0.0129 0.24803 0.0957 0.0
C933 C 0.00906 0.32474 0.14454 0.0
C934 C 0.32673 0.96964 0.85667 0.0
C935 C 0.29383 0.94403 0.87431 0.0
H936 H 0.36556 0.05127 0.84253 0.0
C937 C 0.28002 0.98161 0.89243 0.0
H938 H 0.33819 0.94185 0.84249 0.0
C939 C 0.29165 0.04461 0.89175 0.0
C940 C 0.3203 0.07146 0.87344 0.0
H941 H 0.25414 0.96387 0.90626 0.0
H942 H 0.27373 0.07252 0.90496 0.0
C943 C 0.3411 0.03262 0.8565 0.0
loop_
_geom_bond_atom_site_label_1
_geom_bond_atom_site_label_2
_geom_bond_distance
_geom_bond_site_symmetry_2
_ccdc_geom_bond_type
Co0 O3 1.970 . S
Co0 N17 1.989 . S
Co0 O25 1.967 . S
Co0 O32 1.920 . S
Co1 O4 1.966 . S
Co1 N10 2.022 . S
Co1 N18 1.993 . S
Co1 O26 1.941 . S
C2 O3 1.258 . S
C2 O4 1.263 . S
O3 Co0 1.970 . S
O3 C2 1.258 . S
O4 Co1 1.966 . S
O4 C2 1.263 . S
C5 O6 1.235 . S
C5 O32 1.289 . S
O6 C5 1.235 . S
C7 C9 1.400 . S
C7 N10 1.351 . S
C7 C12 1.501 . S
C8 C9 1.387 . S
C8 N11 1.341 . S
C9 C7 1.400 . S
C9 C8 1.387 . S
N10 Co1 2.022 . S
N10 C7 1.351 . S
N10 N11 1.365 . S
N11 C8 1.341 . S
N11 N10 1.365 . S
N11 H31 0.862 . S
C12 C7 1.501 . S
C12 H13 0.961 . S
C12 H14 0.961 . S
C12 H15 0.960 . S
H13 C12 0.961 . S
H14 C12 0.961 . S
H15 C12 0.960 . S
C16 N17 1.342 . S
C16 C20 1.401 . S
C16 C21 1.499 . S
N17 Co0 1.989 . S
N17 C16 1.342 . S
N17 N18 1.388 . S
N18 Co1 1.993 . S
N18 N17 1.388 . S
N18 C19 1.346 . S
C19 N18 1.346 . S
C19 C20 1.396 . S
C19 C29 1.510 . S
C20 C16 1.401 . S
C20 C19 1.396 . S
C21 C16 1.499 . S
C21 H22 0.959 . S
C21 H23 0.960 . S
C21 H24 0.961 . S
H22 C21 0.959 . S
H23 C21 0.960 . S
H24 C21 0.961 . S
O25 Co0 1.967 . S
O25 C33 1.258 . S
O26 Co1 1.941 . S
O26 C33 1.266 . S
H27 C29 0.959 . S
H28 C29 0.961 . S
C29 C19 1.510 . S
C29 H27 0.959 . S
C29 H28 0.961 . S
C29 H30 0.960 . S
H30 C29 0.960 . S
H31 N11 0.862 . S
O32 Co0 1.920 . S
O32 C5 1.289 . S
C33 O25 1.258 . S
C33 O26 1.266 . S
Co34 O37 1.970 . S
Co34 N51 1.989 . S
Co34 O59 1.967 . S
Co34 O66 1.920 . S
Co35 O38 1.966 . S
Co35 N44 2.022 . S
Co35 N52 1.993 . S
Co35 O60 1.941 . S
C36 O37 1.258 . S
C36 O38 1.263 . S
O37 Co34 1.970 . S
O37 C36 1.258 . S
O38 Co35 1.966 . S
O38 C36 1.263 . S
C39 O40 1.235 . S
C39 O66 1.289 . S
O40 C39 1.235 . S
C41 C43 1.400 . S
C41 N44 1.351 . S
C41 C46 1.501 . S
C42 C43 1.387 . S
C42 N45 1.341 . S
C43 C41 1.400 . S
C43 C42 1.387 . S
N44 Co35 2.022 . S
N44 C41 1.351 . S
N44 N45 1.365 . S
N45 C42 1.341 . S
N45 N44 1.365 . S
N45 H65 0.862 . S
C46 C41 1.501 . S
C46 H47 0.961 . S
C46 H48 0.961 . S
C46 H49 0.960 . S
H47 C46 0.961 . S
H48 C46 0.961 . S
H49 C46 0.960 . S
C50 N51 1.342 . S
C50 C54 1.401 . S
C50 C55 1.499 . S
N51 Co34 1.989 . S
N51 C50 1.342 . S
N51 N52 1.388 . S
N52 Co35 1.993 . S
N52 N51 1.388 . S
N52 C53 1.346 . S
C53 N52 1.346 . S
C53 C54 1.396 . S
C53 C63 1.510 . S
C54 C50 1.401 . S
C54 C53 1.396 . S
C55 C50 1.499 . S
C55 H56 0.959 . S
C55 H57 0.960 . S
C55 H58 0.961 . S
H56 C55 0.959 . S
H57 C55 0.960 . S
H58 C55 0.961 . S
O59 Co34 1.967 . S
O59 C67 1.258 . S
O60 Co35 1.941 . S
O60 C67 1.266 . S
H61 C63 0.959 . S
H62 C63 0.961 . S
C63 C53 1.510 . S
C63 H61 0.959 . S
C63 H62 0.961 . S
C63 H64 0.960 . S
H64 C63 0.960 . S
H65 N45 0.862 . S
O66 Co34 1.920 . S
O66 C39 1.289 . S
C67 O59 1.258 . S
C67 O60 1.266 . S
Co68 O71 1.970 . S
Co68 N85 1.989 . S
Co68 O93 1.967 . S
Co68 O100 1.920 . S
Co69 O72 1.966 . S
Co69 N78 2.022 . S
Co69 N86 1.993 . S
Co69 O94 1.941 . S
C70 O71 1.258 . S
C70 O72 1.263 . S
O71 Co68 1.970 . S
O71 C70 1.258 . S
O72 Co69 1.966 . S
O72 C70 1.263 . S
C73 O74 1.235 . S
C73 O100 1.289 . S
O74 C73 1.235 . S
C75 C77 1.400 . S
C75 N78 1.351 . S
C75 C80 1.501 . S
C76 C77 1.387 . S
C76 N79 1.341 . S
C77 C75 1.400 . S
C77 C76 1.387 . S
N78 Co69 2.022 . S
N78 C75 1.351 . S
N78 N79 1.365 . S
N79 C76 1.341 . S
N79 N78 1.365 . S
N79 H99 0.862 . S
C80 C75 1.501 . S
C80 H81 0.961 . S
C80 H82 0.961 . S
C80 H83 0.960 . S
H81 C80 0.961 . S
H82 C80 0.961 . S
H83 C80 0.960 . S
C84 N85 1.342 . S
C84 C88 1.401 . S
C84 C89 1.499 . S
N85 Co68 1.989 . S
N85 C84 1.342 . S
N85 N86 1.388 . S
N86 Co69 1.993 . S
N86 N85 1.388 . S
N86 C87 1.346 . S
C87 N86 1.346 . S
C87 C88 1.396 . S
C87 C97 1.510 . S
C88 C84 1.401 . S
C88 C87 1.396 . S
C89 C84 1.499 . S
C89 H90 0.959 . S
C89 H91 0.960 . S
C89 H92 0.961 . S
H90 C89 0.959 . S
H91 C89 0.960 . S
H92 C89 0.961 . S
O93 Co68 1.967 . S
O93 C101 1.258 . S
O94 Co69 1.941 . S
O94 C101 1.266 . S
H95 C97 0.959 . S
H96 C97 0.961 . S
C97 C87 1.510 . S
C97 H95 0.959 . S
C97 H96 0.961 . S
C97 H98 0.960 . S
H98 C97 0.960 . S
H99 N79 0.862 . S
O100 Co68 1.920 . S
O100 C73 1.289 . S
C101 O93 1.258 . S
C101 O94 1.266 . S
Co102 O105 1.970 . S
Co102 N119 1.989 . S
Co102 O127 1.967 . S
Co102 O134 1.920 . S
Co103 O106 1.966 . S
Co103 N112 2.022 . S
Co103 N120 1.993 . S
Co103 O128 1.941 . S
C104 O105 1.258 . S
C104 O106 1.263 . S
O105 Co102 1.970 . S
O105 C104 1.258 . S
O106 Co103 1.966 . S
O106 C104 1.263 . S
C107 O108 1.235 . S
C107 O134 1.289 . S
O108 C107 1.235 . S
C109 C111 1.400 . S
C109 N112 1.351 . S
C109 C114 1.501 . S
C110 C111 1.387 . S
C110 N113 1.341 . S
C111 C109 1.400 . S
C111 C110 1.387 . S
N112 Co103 2.022 . S
N112 C109 1.351 . S
N112 N113 1.365 . S
N113 C110 1.341 . S
N113 N112 1.365 . S
N113 H133 0.862 . S
C114 C109 1.501 . S
C114 H115 0.961 . S
C114 H116 0.961 . S
C114 H117 0.960 . S
H115 C114 0.961 . S
H116 C114 0.961 . S
H117 C114 0.960 . S
C118 N119 1.342 . S
C118 C122 1.401 . S
C118 C123 1.499 . S
N119 Co102 1.989 . S
N119 C118 1.342 . S
N119 N120 1.388 . S
N120 Co103 1.993 . S
N120 N119 1.388 . S
N120 C121 1.346 . S
C121 N120 1.346 . S
C121 C122 1.396 . S
C121 C131 1.510 . S
C122 C118 1.401 . S
C122 C121 1.396 . S
C123 C118 1.499 . S
C123 H124 0.959 . S
C123 H125 0.960 . S
C123 H126 0.961 . S
H124 C123 0.959 . S
H125 C123 0.960 . S
H126 C123 0.961 . S
O127 Co102 1.967 . S
O127 C135 1.258 . S
O128 Co103 1.941 . S
O128 C135 1.266 . S
H129 C131 0.959 . S
H130 C131 0.961 . S
C131 C121 1.510 . S
C131 H129 0.959 . S
C131 H130 0.961 . S
C131 H132 0.960 . S
H132 C131 0.960 . S
H133 N113 0.862 . S
O134 Co102 1.920 . S
O134 C107 1.289 . S
C135 O127 1.258 . S
C135 O128 1.266 . S
Co136 O139 1.970 . S
Co136 N153 1.989 . S
Co136 O161 1.967 . S
Co136 O168 1.920 . S
Co137 O140 1.966 . S
Co137 N146 2.022 . S
Co137 N154 1.993 . S
Co137 O162 1.941 . S
C138 O139 1.258 . S
C138 O140 1.263 . S
O139 Co136 1.970 . S
O139 C138 1.258 . S
O140 Co137 1.966 . S
O140 C138 1.263 . S
C141 O142 1.235 . S
C141 O168 1.289 . S
O142 C141 1.235 . S
C143 C145 1.400 . S
C143 N146 1.351 . S
C143 C148 1.501 . S
C144 C145 1.387 . S
C144 N147 1.341 . S
C145 C143 1.400 . S
C145 C144 1.387 . S
N146 Co137 2.022 . S
N146 C143 1.351 . S
N146 N147 1.365 . S
N147 C144 1.341 . S
N147 N146 1.365 . S
N147 H167 0.862 . S
C148 C143 1.501 . S
C148 H149 0.961 . S
C148 H150 0.961 . S
C148 H151 0.960 . S
H149 C148 0.961 . S
H150 C148 0.961 . S
H151 C148 0.960 . S
C152 N153 1.342 . S
C152 C156 1.401 . S
C152 C157 1.499 . S
N153 Co136 1.989 . S
N153 C152 1.342 . S
N153 N154 1.388 . S
N154 Co137 1.993 . S
N154 N153 1.388 . S
N154 C155 1.346 . S
C155 N154 1.346 . S
C155 C156 1.396 . S
C155 C165 1.510 . S
C156 C152 1.401 . S
C156 C155 1.396 . S
C157 C152 1.499 . S
C157 H158 0.959 . S
C157 H159 0.960 . S
C157 H160 0.961 . S
H158 C157 0.959 . S
H159 C157 0.960 . S
H160 C157 0.961 . S
O161 Co136 1.967 . S
O161 C169 1.258 . S
O162 Co137 1.941 . S
O162 C169 1.266 . S
H163 C165 0.959 . S
H164 C165 0.961 . S
C165 C155 1.510 . S
C165 H163 0.959 . S
C165 H164 0.961 . S
C165 H166 0.960 . S
H166 C165 0.960 . S
H167 N147 0.862 . S
O168 Co136 1.920 . S
O168 C141 1.289 . S
C169 O161 1.258 . S
C169 O162 1.266 . S
Co170 O173 1.970 . S
Co170 N187 1.989 . S
Co170 O195 1.967 . S
Co170 O202 1.920 . S
Co171 O174 1.966 . S
Co171 N180 2.022 . S
Co171 N188 1.993 . S
Co171 O196 1.941 . S
C172 O173 1.258 . S
C172 O174 1.263 . S
O173 Co170 1.970 . S
O173 C172 1.258 . S
O174 Co171 1.966 . S
O174 C172 1.263 . S
C175 O176 1.235 . S
C175 O202 1.289 . S
O176 C175 1.235 . S
C177 C179 1.400 . S
C177 N180 1.351 . S
C177 C182 1.501 . S
C178 C179 1.387 . S
C178 N181 1.341 . S
C179 C177 1.400 . S
C179 C178 1.387 . S
N180 Co171 2.022 . S
N180 C177 1.351 . S
N180 N181 1.365 . S
N181 C178 1.341 . S
N181 N180 1.365 . S
N181 H201 0.862 . S
C182 C177 1.501 . S
C182 H183 0.961 . S
C182 H184 0.961 . S
C182 H185 0.960 . S
H183 C182 0.961 . S
H184 C182 0.961 . S
H185 C182 0.960 . S
C186 N187 1.342 . S
C186 C190 1.401 . S
C186 C191 1.499 . S
N187 Co170 1.989 . S
N187 C186 1.342 . S
N187 N188 1.388 . S
N188 Co171 1.993 . S
N188 N187 1.388 . S
N188 C189 1.346 . S
C189 N188 1.346 . S
C189 C190 1.396 . S
C189 C199 1.510 . S
C190 C186 1.401 . S
C190 C189 1.396 . S
C191 C186 1.499 . S
C191 H192 0.959 . S
C191 H193 0.960 . S
C191 H194 0.961 . S
H192 C191 0.959 . S
H193 C191 0.960 . S
H194 C191 0.961 . S
O195 Co170 1.967 . S
O195 C203 1.258 . S
O196 Co171 1.941 . S
O196 C203 1.266 . S
H197 C199 0.959 . S
H198 C199 0.961 . S
C199 C189 1.510 . S
C199 H197 0.959 . S
C199 H198 0.961 . S
C199 H200 0.960 . S
H200 C199 0.960 . S
H201 N181 0.862 . S
O202 Co170 1.920 . S
O202 C175 1.289 . S
C203 O195 1.258 . S
C203 O196 1.266 . S
Co204 O207 1.970 . S
Co204 N221 1.989 . S
Co204 O229 1.967 . S
Co204 O236 1.920 . S
Co205 O208 1.966 . S
Co205 N214 2.022 . S
Co205 N222 1.993 . S
Co205 O230 1.941 . S
C206 O207 1.258 . S
C206 O208 1.263 . S
O207 Co204 1.970 . S
O207 C206 1.258 . S
O208 Co205 1.966 . S
O208 C206 1.263 . S
C209 O210 1.235 . S
C209 O236 1.289 . S
O210 C209 1.235 . S
C211 C213 1.400 . S
C211 N214 1.351 . S
C211 C216 1.501 . S
C212 C213 1.387 . S
C212 N215 1.341 . S
C213 C211 1.400 . S
C213 C212 1.387 . S
N214 Co205 2.022 . S
N214 C211 1.351 . S
N214 N215 1.365 . S
N215 C212 1.341 . S
N215 N214 1.365 . S
N215 H235 0.862 . S
C216 C211 1.501 . S
C216 H217 0.961 . S
C216 H218 0.961 . S
C216 H219 0.960 . S
H217 C216 0.961 . S
H218 C216 0.961 . S
H219 C216 0.960 . S
C220 N221 1.342 . S
C220 C224 1.401 . S
C220 C225 1.499 . S
N221 Co204 1.989 . S
N221 C220 1.342 . S
N221 N222 1.388 . S
N222 Co205 1.993 . S
N222 N221 1.388 . S
N222 C223 1.346 . S
C223 N222 1.346 . S
C223 C224 1.396 . S
C223 C233 1.510 . S
C224 C220 1.401 . S
C224 C223 1.396 . S
C225 C220 1.499 . S
C225 H226 0.959 . S
C225 H227 0.960 . S
C225 H228 0.961 . S
H226 C225 0.959 . S
H227 C225 0.960 . S
H228 C225 0.961 . S
O229 Co204 1.967 . S
O229 C237 1.258 . S
O230 Co205 1.941 . S
O230 C237 1.266 . S
H231 C233 0.959 . S
H232 C233 0.961 . S
C233 C223 1.510 . S
C233 H231 0.959 . S
C233 H232 0.961 . S
C233 H234 0.960 . S
H234 C233 0.960 . S
H235 N215 0.862 . S
O236 Co204 1.920 . S
O236 C209 1.289 . S
C237 O229 1.258 . S
C237 O230 1.266 . S
Co238 O241 1.970 . S
Co238 N255 1.989 . S
Co238 O263 1.967 . S
Co238 O270 1.920 . S
Co239 O242 1.966 . S
Co239 N248 2.022 . S
Co239 N256 1.993 . S
Co239 O264 1.941 . S
C240 O241 1.258 . S
C240 O242 1.263 . S
O241 Co238 1.970 . S
O241 C240 1.258 . S
O242 Co239 1.966 . S
O242 C240 1.263 . S
C243 O244 1.235 . S
C243 O270 1.289 . S
O244 C243 1.235 . S
C245 C247 1.400 . S
C245 N248 1.351 . S
C245 C250 1.501 . S
C246 C247 1.387 . S
C246 N249 1.341 . S
C247 C245 1.400 . S
C247 C246 1.387 . S
N248 Co239 2.022 . S
N248 C245 1.351 . S
N248 N249 1.365 . S
N249 C246 1.341 . S
N249 N248 1.365 . S
N249 H269 0.862 . S
C250 C245 1.501 . S
C250 H251 0.961 . S
C250 H252 0.961 . S
C250 H253 0.960 . S
H251 C250 0.961 . S
H252 C250 0.961 . S
H253 C250 0.960 . S
C254 N255 1.342 . S
C254 C258 1.401 . S
C254 C259 1.499 . S
N255 Co238 1.989 . S
N255 C254 1.342 . S
N255 N256 1.388 . S
N256 Co239 1.993 . S
N256 N255 1.388 . S
N256 C257 1.346 . S
C257 N256 1.346 . S
C257 C258 1.396 . S
C257 C267 1.510 . S
C258 C254 1.401 . S
C258 C257 1.396 . S
C259 C254 1.499 . S
C259 H260 0.959 . S
C259 H261 0.960 . S
C259 H262 0.961 . S
H260 C259 0.959 . S
H261 C259 0.960 . S
H262 C259 0.961 . S
O263 Co238 1.967 . S
O263 C271 1.258 . S
O264 Co239 1.941 . S
O264 C271 1.266 . S
H265 C267 0.959 . S
H266 C267 0.961 . S
C267 C257 1.510 . S
C267 H265 0.959 . S
C267 H266 0.961 . S
C267 H268 0.960 . S
H268 C267 0.960 . S
H269 N249 0.862 . S
O270 Co238 1.920 . S
O270 C243 1.289 . S
C271 O263 1.258 . S
C271 O264 1.266 . S
Co272 O275 1.970 . S
Co272 N289 1.989 . S
Co272 O297 1.967 . S
Co272 O304 1.920 . S
Co273 O276 1.966 . S
Co273 N282 2.022 . S
Co273 N290 1.993 . S
Co273 O298 1.941 . S
C274 O275 1.258 . S
C274 O276 1.263 . S
O275 Co272 1.970 . S
O275 C274 1.258 . S
O276 Co273 1.966 . S
O276 C274 1.263 . S
C277 O278 1.235 . S
C277 O304 1.289 . S
O278 C277 1.235 . S
C279 C281 1.400 . S
C279 N282 1.351 . S
C279 C284 1.501 . S
C280 C281 1.387 . S
C280 N283 1.341 . S
C281 C279 1.400 . S
C281 C280 1.387 . S
N282 Co273 2.022 . S
N282 C279 1.351 . S
N282 N283 1.365 . S
N283 C280 1.341 . S
N283 N282 1.365 . S
N283 H303 0.862 . S
C284 C279 1.501 . S
C284 H285 0.961 . S
C284 H286 0.961 . S
C284 H287 0.960 . S
H285 C284 0.961 . S
H286 C284 0.961 . S
H287 C284 0.960 . S
C288 N289 1.342 . S
C288 C292 1.401 . S
C288 C293 1.499 . S
N289 Co272 1.989 . S
N289 C288 1.342 . S
N289 N290 1.388 . S
N290 Co273 1.993 . S
N290 N289 1.388 . S
N290 C291 1.346 . S
C291 N290 1.346 . S
C291 C292 1.396 . S
C291 C301 1.510 . S
C292 C288 1.401 . S
C292 C291 1.396 . S
C293 C288 1.499 . S
C293 H294 0.959 . S
C293 H295 0.960 . S
C293 H296 0.961 . S
H294 C293 0.959 . S
H295 C293 0.960 . S
H296 C293 0.961 . S
O297 Co272 1.967 . S
O297 C305 1.258 . S
O298 Co273 1.941 . S
O298 C305 1.266 . S
H299 C301 0.959 . S
H300 C301 0.961 . S
C301 C291 1.510 . S
C301 H299 0.959 . S
C301 H300 0.961 . S
C301 H302 0.960 . S
H302 C301 0.960 . S
H303 N283 0.862 . S
O304 Co272 1.920 . S
O304 C277 1.289 . S
C305 O297 1.258 . S
C305 O298 1.266 . S
Co306 O309 1.970 . S
Co306 N323 1.989 . S
Co306 O331 1.967 . S
Co306 O338 1.920 . S
Co307 O310 1.966 . S
Co307 N316 2.022 . S
Co307 N324 1.993 . S
Co307 O332 1.941 . S
C308 O309 1.258 . S
C308 O310 1.263 . S
O309 Co306 1.970 . S
O309 C308 1.258 . S
O310 Co307 1.966 . S
O310 C308 1.263 . S
C311 O312 1.235 . S
C311 O338 1.289 . S
O312 C311 1.235 . S
C313 C315 1.400 . S
C313 N316 1.351 . S
C313 C318 1.501 . S
C314 C315 1.387 . S
C314 N317 1.341 . S
C315 C313 1.400 . S
C315 C314 1.387 . S
N316 Co307 2.022 . S
N316 C313 1.351 . S
N316 N317 1.365 . S
N317 C314 1.341 . S
N317 N316 1.365 . S
N317 H337 0.862 . S
C318 C313 1.501 . S
C318 H319 0.961 . S
C318 H320 0.961 . S
C318 H321 0.960 . S
H319 C318 0.961 . S
H320 C318 0.961 . S
H321 C318 0.960 . S
C322 N323 1.342 . S
C322 C326 1.401 . S
C322 C327 1.499 . S
N323 Co306 1.989 . S
N323 C322 1.342 . S
N323 N324 1.388 . S
N324 Co307 1.993 . S
N324 N323 1.388 . S
N324 C325 1.346 . S
C325 N324 1.346 . S
C325 C326 1.396 . S
C325 C335 1.510 . S
C326 C322 1.401 . S
C326 C325 1.396 . S
C327 C322 1.499 . S
C327 H328 0.959 . S
C327 H329 0.960 . S
C327 H330 0.961 . S
H328 C327 0.959 . S
H329 C327 0.960 . S
H330 C327 0.961 . S
O331 Co306 1.967 . S
O331 C339 1.258 . S
O332 Co307 1.941 . S
O332 C339 1.266 . S
H333 C335 0.959 . S
H334 C335 0.961 . S
C335 C325 1.510 . S
C335 H333 0.959 . S
C335 H334 0.961 . S
C335 H336 0.960 . S
H336 C335 0.960 . S
H337 N317 0.862 . S
O338 Co306 1.920 . S
O338 C311 1.289 . S
C339 O331 1.258 . S
C339 O332 1.266 . S
Co340 O343 1.970 . S
Co340 N357 1.989 . S
Co340 O365 1.967 . S
Co340 O372 1.920 . S
Co341 O344 1.966 . S
Co341 N350 2.022 . S
Co341 N358 1.993 . S
Co341 O366 1.941 . S
C342 O343 1.258 . S
C342 O344 1.263 . S
O343 Co340 1.970 . S
O343 C342 1.258 . S
O344 Co341 1.966 . S
O344 C342 1.263 . S
C345 O346 1.235 . S
C345 O372 1.289 . S
O346 C345 1.235 . S
C347 C349 1.400 . S
C347 N350 1.351 . S
C347 C352 1.501 . S
C348 C349 1.387 . S
C348 N351 1.341 . S
C349 C347 1.400 . S
C349 C348 1.387 . S
N350 Co341 2.022 . S
N350 C347 1.351 . S
N350 N351 1.365 . S
N351 C348 1.341 . S
N351 N350 1.365 . S
N351 H371 0.862 . S
C352 C347 1.501 . S
C352 H353 0.961 . S
C352 H354 0.961 . S
C352 H355 0.960 . S
H353 C352 0.961 . S
H354 C352 0.961 . S
H355 C352 0.960 . S
C356 N357 1.342 . S
C356 C360 1.401 . S
C356 C361 1.499 . S
N357 Co340 1.989 . S
N357 C356 1.342 . S
N357 N358 1.388 . S
N358 Co341 1.993 . S
N358 N357 1.388 . S
N358 C359 1.346 . S
C359 N358 1.346 . S
C359 C360 1.396 . S
C359 C369 1.510 . S
C360 C356 1.401 . S
C360 C359 1.396 . S
C361 C356 1.499 . S
C361 H362 0.959 . S
C361 H363 0.960 . S
C361 H364 0.961 . S
H362 C361 0.959 . S
H363 C361 0.960 . S
H364 C361 0.961 . S
O365 Co340 1.967 . S
O365 C373 1.258 . S
O366 Co341 1.941 . S
O366 C373 1.266 . S
H367 C369 0.959 . S
H368 C369 0.961 . S
C369 C359 1.510 . S
C369 H367 0.959 . S
C369 H368 0.961 . S
C369 H370 0.960 . S
H370 C369 0.960 . S
H371 N351 0.862 . S
O372 Co340 1.920 . S
O372 C345 1.289 . S
C373 O365 1.258 . S
C373 O366 1.266 . S
Co374 O377 1.970 . S
Co374 N391 1.989 . S
Co374 O399 1.967 . S
Co374 O406 1.920 . S
Co375 O378 1.966 . S
Co375 N384 2.022 . S
Co375 N392 1.993 . S
Co375 O400 1.941 . S
C376 O377 1.258 . S
C376 O378 1.263 . S
O377 Co374 1.970 . S
O377 C376 1.258 . S
O378 Co375 1.966 . S
O378 C376 1.263 . S
C379 O380 1.235 . S
C379 O406 1.289 . S
O380 C379 1.235 . S
C381 C383 1.400 . S
C381 N384 1.351 . S
C381 C386 1.501 . S
C382 C383 1.387 . S
C382 N385 1.341 . S
C383 C381 1.400 . S
C383 C382 1.387 . S
N384 Co375 2.022 . S
N384 C381 1.351 . S
N384 N385 1.365 . S
N385 C382 1.341 . S
N385 N384 1.365 . S
N385 H405 0.862 . S
C386 C381 1.501 . S
C386 H387 0.961 . S
C386 H388 0.961 . S
C386 H389 0.960 . S
H387 C386 0.961 . S
H388 C386 0.961 . S
H389 C386 0.960 . S
C390 N391 1.342 . S
C390 C394 1.401 . S
C390 C395 1.499 . S
N391 Co374 1.989 . S
N391 C390 1.342 . S
N391 N392 1.388 . S
N392 Co375 1.993 . S
N392 N391 1.388 . S
N392 C393 1.346 . S
C393 N392 1.346 . S
C393 C394 1.396 . S
C393 C403 1.510 . S
C394 C390 1.401 . S
C394 C393 1.396 . S
C395 C390 1.499 . S
C395 H396 0.959 . S
C395 H397 0.960 . S
C395 H398 0.961 . S
H396 C395 0.959 . S
H397 C395 0.960 . S
H398 C395 0.961 . S
O399 Co374 1.967 . S
O399 C407 1.258 . S
O400 Co375 1.941 . S
O400 C407 1.266 . S
H401 C403 0.959 . S
H402 C403 0.961 . S
C403 C393 1.510 . S
C403 H401 0.959 . S
C403 H402 0.961 . S
C403 H404 0.960 . S
H404 C403 0.960 . S
H405 N385 0.862 . S
O406 Co374 1.920 . S
O406 C379 1.289 . S
C407 O399 1.258 . S
C407 O400 1.266 . S
Co408 O411 1.970 . S
Co408 N425 1.989 . S
Co408 O433 1.967 . S
Co408 O440 1.920 . S
Co409 O412 1.966 . S
Co409 N418 2.022 . S
Co409 N426 1.993 . S
Co409 O434 1.941 . S
C410 O411 1.258 . S
C410 O412 1.263 . S
O411 Co408 1.970 . S
O411 C410 1.258 . S
O412 Co409 1.966 . S
O412 C410 1.263 . S
C413 O414 1.235 . S
C413 O440 1.289 . S
O414 C413 1.235 . S
C415 C417 1.400 . S
C415 N418 1.351 . S
C415 C420 1.501 . S
C416 C417 1.387 . S
C416 N419 1.341 . S
C417 C415 1.400 . S
C417 C416 1.387 . S
N418 Co409 2.022 . S
N418 C415 1.351 . S
N418 N419 1.365 . S
N419 C416 1.341 . S
N419 N418 1.365 . S
N419 H439 0.862 . S
C420 C415 1.501 . S
C420 H421 0.961 . S
C420 H422 0.961 . S
C420 H423 0.960 . S
H421 C420 0.961 . S
H422 C420 0.961 . S
H423 C420 0.960 . S
C424 N425 1.342 . S
C424 C428 1.401 . S
C424 C429 1.499 . S
N425 Co408 1.989 . S
N425 C424 1.342 . S
N425 N426 1.388 . S
N426 Co409 1.993 . S
N426 N425 1.388 . S
N426 C427 1.346 . S
C427 N426 1.346 . S
C427 C428 1.396 . S
C427 C437 1.510 . S
C428 C424 1.401 . S
C428 C427 1.396 . S
C429 C424 1.499 . S
C429 H430 0.959 . S
C429 H431 0.960 . S
C429 H432 0.961 . S
H430 C429 0.959 . S
H431 C429 0.960 . S
H432 C429 0.961 . S
O433 Co408 1.967 . S
O433 C441 1.258 . S
O434 Co409 1.941 . S
O434 C441 1.266 . S
H435 C437 0.959 . S
H436 C437 0.961 . S
C437 C427 1.510 . S
C437 H435 0.959 . S
C437 H436 0.961 . S
C437 H438 0.960 . S
H438 C437 0.960 . S
H439 N419 0.862 . S
O440 Co408 1.920 . S
O440 C413 1.289 . S
C441 O433 1.258 . S
C441 O434 1.266 . S
Co442 O445 1.970 . S
Co442 N459 1.989 . S
Co442 O467 1.967 . S
Co442 O474 1.920 . S
Co443 O446 1.966 . S
Co443 N452 2.022 . S
Co443 N460 1.993 . S
Co443 O468 1.941 . S
C444 O445 1.258 . S
C444 O446 1.263 . S
O445 Co442 1.970 . S
O445 C444 1.258 . S
O446 Co443 1.966 . S
O446 C444 1.263 . S
C447 O448 1.235 . S
C447 O474 1.289 . S
O448 C447 1.235 . S
C449 C451 1.400 . S
C449 N452 1.351 . S
C449 C454 1.501 . S
C450 C451 1.387 . S
C450 N453 1.341 . S
C451 C449 1.400 . S
C451 C450 1.387 . S
N452 Co443 2.022 . S
N452 C449 1.351 . S
N452 N453 1.365 . S
N453 C450 1.341 . S
N453 N452 1.365 . S
N453 H473 0.862 . S
C454 C449 1.501 . S
C454 H455 0.961 . S
C454 H456 0.961 . S
C454 H457 0.960 . S
H455 C454 0.961 . S
H456 C454 0.961 . S
H457 C454 0.960 . S
C458 N459 1.342 . S
C458 C462 1.401 . S
C458 C463 1.499 . S
N459 Co442 1.989 . S
N459 C458 1.342 . S
N459 N460 1.388 . S
N460 Co443 1.993 . S
N460 N459 1.388 . S
N460 C461 1.346 . S
C461 N460 1.346 . S
C461 C462 1.396 . S
C461 C471 1.510 . S
C462 C458 1.401 . S
C462 C461 1.396 . S
C463 C458 1.499 . S
C463 H464 0.959 . S
C463 H465 0.960 . S
C463 H466 0.961 . S
H464 C463 0.959 . S
H465 C463 0.960 . S
H466 C463 0.961 . S
O467 Co442 1.967 . S
O467 C475 1.258 . S
O468 Co443 1.941 . S
O468 C475 1.266 . S
H469 C471 0.959 . S
H470 C471 0.961 . S
C471 C461 1.510 . S
C471 H469 0.959 . S
C471 H470 0.961 . S
C471 H472 0.960 . S
H472 C471 0.960 . S
H473 N453 0.862 . S
O474 Co442 1.920 . S
O474 C447 1.289 . S
C475 O467 1.258 . S
C475 O468 1.266 . S
Co476 O479 1.970 . S
Co476 N493 1.989 . S
Co476 O501 1.967 . S
Co476 O508 1.920 . S
Co477 O480 1.966 . S
Co477 N486 2.022 . S
Co477 N494 1.993 . S
Co477 O502 1.941 . S
C478 O479 1.258 . S
C478 O480 1.263 . S
O479 Co476 1.970 . S
O479 C478 1.258 . S
O480 Co477 1.966 . S
O480 C478 1.263 . S
C481 O482 1.235 . S
C481 O508 1.289 . S
O482 C481 1.235 . S
C483 C485 1.400 . S
C483 N486 1.351 . S
C483 C488 1.501 . S
C484 C485 1.387 . S
C484 N487 1.341 . S
C485 C483 1.400 . S
C485 C484 1.387 . S
N486 Co477 2.022 . S
N486 C483 1.351 . S
N486 N487 1.365 . S
N487 C484 1.341 . S
N487 N486 1.365 . S
N487 H507 0.862 . S
C488 C483 1.501 . S
C488 H489 0.961 . S
C488 H490 0.961 . S
C488 H491 0.960 . S
H489 C488 0.961 . S
H490 C488 0.961 . S
H491 C488 0.960 . S
C492 N493 1.342 . S
C492 C496 1.401 . S
C492 C497 1.499 . S
N493 Co476 1.989 . S
N493 C492 1.342 . S
N493 N494 1.388 . S
N494 Co477 1.993 . S
N494 N493 1.388 . S
N494 C495 1.346 . S
C495 N494 1.346 . S
C495 C496 1.396 . S
C495 C505 1.510 . S
C496 C492 1.401 . S
C496 C495 1.396 . S
C497 C492 1.499 . S
C497 H498 0.959 . S
C497 H499 0.960 . S
C497 H500 0.961 . S
H498 C497 0.959 . S
H499 C497 0.960 . S
H500 C497 0.961 . S
O501 Co476 1.967 . S
O501 C509 1.258 . S
O502 Co477 1.941 . S
O502 C509 1.266 . S
H503 C505 0.959 . S
H504 C505 0.961 . S
C505 C495 1.510 . S
C505 H503 0.959 . S
C505 H504 0.961 . S
C505 H506 0.960 . S
H506 C505 0.960 . S
H507 N487 0.862 . S
O508 Co476 1.920 . S
O508 C481 1.289 . S
C509 O501 1.258 . S
C509 O502 1.266 . S
Co510 O513 1.970 . S
Co510 N527 1.989 . S
Co510 O535 1.967 . S
Co510 O542 1.920 . S
Co511 O514 1.966 . S
Co511 N520 2.022 . S
Co511 N528 1.993 . S
Co511 O536 1.941 . S
C512 O513 1.258 . S
C512 O514 1.263 . S
O513 Co510 1.970 . S
O513 C512 1.258 . S
O514 Co511 1.966 . S
O514 C512 1.263 . S
C515 O516 1.235 . S
C515 O542 1.289 . S
O516 C515 1.235 . S
C517 C519 1.400 . S
C517 N520 1.351 . S
C517 C522 1.501 . S
C518 C519 1.387 . S
C518 N521 1.341 . S
C519 C517 1.400 . S
C519 C518 1.387 . S
N520 Co511 2.022 . S
N520 C517 1.351 . S
N520 N521 1.365 . S
N521 C518 1.341 . S
N521 N520 1.365 . S
N521 H541 0.862 . S
C522 C517 1.501 . S
C522 H523 0.961 . S
C522 H524 0.961 . S
C522 H525 0.960 . S
H523 C522 0.961 . S
H524 C522 0.961 . S
H525 C522 0.960 . S
C526 N527 1.342 . S
C526 C530 1.401 . S
C526 C531 1.499 . S
N527 Co510 1.989 . S
N527 C526 1.342 . S
N527 N528 1.388 . S
N528 Co511 1.993 . S
N528 N527 1.388 . S
N528 C529 1.346 . S
C529 N528 1.346 . S
C529 C530 1.396 . S
C529 C539 1.510 . S
C530 C526 1.401 . S
C530 C529 1.396 . S
C531 C526 1.499 . S
C531 H532 0.959 . S
C531 H533 0.960 . S
C531 H534 0.961 . S
H532 C531 0.959 . S
H533 C531 0.960 . S
H534 C531 0.961 . S
O535 Co510 1.967 . S
O535 C543 1.258 . S
O536 Co511 1.941 . S
O536 C543 1.266 . S
H537 C539 0.959 . S
H538 C539 0.961 . S
C539 C529 1.510 . S
C539 H537 0.959 . S
C539 H538 0.961 . S
C539 H540 0.960 . S
H540 C539 0.960 . S
H541 N521 0.862 . S
O542 Co510 1.920 . S
O542 C515 1.289 . S
C543 O535 1.258 . S
C543 O536 1.266 . S
C544 C545 1.387 . S
C544 H548 0.950 . S
C544 C553 1.390 . S
C545 C544 1.387 . S
C545 C547 1.387 . S
H546 C553 0.950 . S
C547 C545 1.387 . S
C547 C549 1.390 . S
C547 H551 0.950 . S
H548 C544 0.950 . S
C549 C547 1.390 . S
C549 C550 1.387 . S
C549 H552 0.950 . S
C550 C549 1.387 . S
C550 C553 1.387 . S
H551 C547 0.950 . S
H552 C549 0.950 . S
C553 C544 1.390 . S
C553 H546 0.950 . S
C553 C550 1.387 . S
C554 C555 1.387 . S
C554 H558 0.950 . S
C554 C563 1.390 . S
C555 C554 1.387 . S
C555 C557 1.387 . S
H556 C563 0.950 . S
C557 C555 1.387 . S
C557 C559 1.390 . S
C557 H561 0.950 . S
H558 C554 0.950 . S
C559 C557 1.390 . S
C559 C560 1.387 . S
C559 H562 0.950 . S
C560 C559 1.387 . S
C560 C563 1.387 . S
H561 C557 0.950 . S
H562 C559 0.950 . S
C563 C554 1.390 . S
C563 H556 0.950 . S
C563 C560 1.387 . S
C564 C565 1.387 . S
C564 H568 0.950 . S
C564 C573 1.390 . S
C565 C564 1.387 . S
C565 C567 1.387 . S
H566 C573 0.950 . S
C567 C565 1.387 . S
C567 C569 1.390 . S
C567 H571 0.950 . S
H568 C564 0.950 . S
C569 C567 1.390 . S
C569 C570 1.387 . S
C569 H572 0.950 . S
C570 C569 1.387 . S
C570 C573 1.387 . S
H571 C567 0.950 . S
H572 C569 0.950 . S
C573 C564 1.390 . S
C573 H566 0.950 . S
C573 C570 1.387 . S
C574 C575 1.387 . S
C574 H578 0.950 . S
C574 C583 1.390 . S
C575 C574 1.387 . S
C575 C577 1.387 . S
H576 C583 0.950 . S
C577 C575 1.387 . S
C577 C579 1.390 . S
C577 H581 0.950 . S
H578 C574 0.950 . S
C579 C577 1.390 . S
C579 C580 1.387 . S
C579 H582 0.950 . S
C580 C579 1.387 . S
C580 C583 1.387 . S
H581 C577 0.950 . S
H582 C579 0.950 . S
C583 C574 1.390 . S
C583 H576 0.950 . S
C583 C580 1.387 . S
C584 C585 1.387 . S
C584 H588 0.950 . S
C584 C593 1.390 . S
C585 C584 1.387 . S
C585 C587 1.387 . S
H586 C593 0.950 . S
C587 C585 1.387 . S
C587 C589 1.390 . S
C587 H591 0.950 . S
H588 C584 0.950 . S
C589 C587 1.390 . S
C589 C590 1.387 . S
C589 H592 0.950 . S
C590 C589 1.387 . S
C590 C593 1.387 . S
H591 C587 0.950 . S
H592 C589 0.950 . S
C593 C584 1.390 . S
C593 H586 0.950 . S
C593 C590 1.387 . S
C594 C595 1.387 . S
C594 H598 0.950 . S
C594 C603 1.390 . S
C595 C594 1.387 . S
C595 C597 1.387 . S
H596 C603 0.950 . S
C597 C595 1.387 . S
C597 C599 1.390 . S
C597 H601 0.950 . S
H598 C594 0.950 . S
C599 C597 1.390 . S
C599 C600 1.387 . S
C599 H602 0.950 . S
C600 C599 1.387 . S
C600 C603 1.387 . S
H601 C597 0.950 . S
H602 C599 0.950 . S
C603 C594 1.390 . S
C603 H596 0.950 . S
C603 C600 1.387 . S
C604 C605 1.387 . S
C604 H608 0.950 . S
C604 C613 1.390 . S
C605 C604 1.387 . S
C605 C607 1.387 . S
H606 C613 0.950 . S
C607 C605 1.387 . S
C607 C609 1.390 . S
C607 H611 0.950 . S
H608 C604 0.950 . S
C609 C607 1.390 . S
C609 C610 1.387 . S
C609 H612 0.950 . S
C610 C609 1.387 . S
C610 C613 1.387 . S
H611 C607 0.950 . S
H612 C609 0.950 . S
C613 C604 1.390 . S
C613 H606 0.950 . S
C613 C610 1.387 . S
C614 C615 1.387 . S
C614 H618 0.950 . S
C614 C623 1.390 . S
C615 C614 1.387 . S
C615 C617 1.387 . S
H616 C623 0.950 . S
C617 C615 1.387 . S
C617 C619 1.390 . S
C617 H621 0.950 . S
H618 C614 0.950 . S
C619 C617 1.390 . S
C619 C620 1.387 . S
C619 H622 0.950 . S
C620 C619 1.387 . S
C620 C623 1.387 . S
H621 C617 0.950 . S
H622 C619 0.950 . S
C623 C614 1.390 . S
C623 H616 0.950 . S
C623 C620 1.387 . S
C624 C625 1.387 . S
C624 H628 0.950 . S
C624 C633 1.390 1_445 S
C625 C624 1.387 . S
C625 C627 1.387 . S
H626 C633 0.950 . S
C627 C625 1.387 . S
C627 C629 1.390 1_445 S
C627 H631 0.950 . S
H628 C624 0.950 . S
C629 C627 1.390 1_665 S
C629 C630 1.387 . S
C629 H632 0.950 . S
C630 C629 1.387 . S
C630 C633 1.387 . S
H631 C627 0.950 . S
H632 C629 0.950 . S
C633 C624 1.390 1_665 S
C633 H626 0.950 . S
C633 C630 1.387 . S
C634 C635 1.387 . S
C634 H638 0.950 . S
C634 C643 1.390 1_645 S
C635 C634 1.387 . S
C635 C637 1.387 . S
H636 C643 0.950 . S
C637 C635 1.387 . S
C637 C639 1.390 1_645 S
C637 H641 0.950 . S
H638 C634 0.950 . S
C639 C637 1.390 1_465 S
C639 C640 1.387 . S
C639 H642 0.950 . S
C640 C639 1.387 . S
C640 C643 1.387 . S
H641 C637 0.950 . S
H642 C639 0.950 . S
C643 C634 1.390 1_465 S
C643 H636 0.950 . S
C643 C640 1.387 . S
C644 C645 1.387 . S
C644 H648 0.950 . S
C644 C653 1.390 1_645 S
C645 C644 1.387 . S
C645 C647 1.387 . S
H646 C653 0.950 . S
C647 C645 1.387 . S
C647 C649 1.390 1_645 S
C647 H651 0.950 . S
H648 C644 0.950 . S
C649 C647 1.390 1_465 S
C649 C650 1.387 . S
C649 H652 0.950 . S
C650 C649 1.387 . S
C650 C653 1.387 . S
H651 C647 0.950 . S
H652 C649 0.950 . S
C653 C644 1.390 1_465 S
C653 H646 0.950 . S
C653 C650 1.387 . S
C654 C655 1.387 . S
C654 H658 0.950 . S
C654 C663 1.390 1_445 S
C655 C654 1.387 . S
C655 C657 1.387 . S
H656 C663 0.950 . S
C657 C655 1.387 . S
C657 C659 1.390 1_445 S
C657 H661 0.950 . S
H658 C654 0.950 . S
C659 C657 1.390 1_665 S
C659 C660 1.387 . S
C659 H662 0.950 . S
C660 C659 1.387 . S
C660 C663 1.387 . S
H661 C657 0.950 . S
H662 C659 0.950 . S
C663 C654 1.390 1_665 S
C663 H656 0.950 . S
C663 C660 1.387 . S
C664 C665 1.387 . S
C664 H668 0.950 . S
C664 C673 1.390 . S
C665 C664 1.387 . S
C665 C667 1.387 . S
H666 C673 0.950 . S
C667 C665 1.387 . S
C667 C669 1.390 . S
C667 H671 0.950 . S
H668 C664 0.950 . S
C669 C667 1.390 . S
C669 C670 1.387 . S
C669 H672 0.950 . S
C670 C669 1.387 . S
C670 C673 1.387 . S
H671 C667 0.950 . S
H672 C669 0.950 . S
C673 C664 1.390 . S
C673 H666 0.950 . S
C673 C670 1.387 . S
C674 C675 1.387 . S
C674 H678 0.950 . S
C674 C683 1.390 . S
C675 C674 1.387 . S
C675 C677 1.387 . S
H676 C683 0.950 . S
C677 C675 1.387 . S
C677 C679 1.390 . S
C677 H681 0.950 . S
H678 C674 0.950 . S
C679 C677 1.390 . S
C679 C680 1.387 . S
C679 H682 0.950 . S
C680 C679 1.387 . S
C680 C683 1.387 . S
H681 C677 0.950 . S
H682 C679 0.950 . S
C683 C674 1.390 . S
C683 H676 0.950 . S
C683 C680 1.387 . S
C684 C685 1.387 . S
C684 H688 0.950 . S
C684 C693 1.390 . S
C685 C684 1.387 . S
C685 C687 1.387 . S
H686 C693 0.950 . S
C687 C685 1.387 . S
C687 C689 1.390 . S
C687 H691 0.950 . S
H688 C684 0.950 . S
C689 C687 1.390 . S
C689 C690 1.387 . S
C689 H692 0.950 . S
C690 C689 1.387 . S
C690 C693 1.387 . S
H691 C687 0.950 . S
H692 C689 0.950 . S
C693 C684 1.390 . S
C693 H686 0.950 . S
C693 C690 1.387 . S
C694 C695 1.387 . S
C694 H698 0.950 . S
C694 C703 1.390 . S
C695 C694 1.387 . S
C695 C697 1.387 . S
H696 C703 0.950 . S
C697 C695 1.387 . S
C697 C699 1.390 . S
C697 H701 0.950 . S
H698 C694 0.950 . S
C699 C697 1.390 . S
C699 C700 1.387 . S
C699 H702 0.950 . S
C700 C699 1.387 . S
C700 C703 1.387 . S
H701 C697 0.950 . S
H702 C699 0.950 . S
C703 C694 1.390 . S
C703 H696 0.950 . S
C703 C700 1.387 . S
C704 C705 1.387 . S
C704 H708 0.950 . S
C704 C713 1.390 1_556 S
C705 C704 1.387 . S
C705 C707 1.387 . S
H706 C713 0.950 . S
C707 C705 1.387 . S
C707 C709 1.390 1_556 S
C707 H711 0.950 . S
H708 C704 0.950 . S
C709 C707 1.390 1_554 S
C709 C710 1.387 . S
C709 H712 0.950 . S
C710 C709 1.387 . S
C710 C713 1.387 . S
H711 C707 0.950 . S
H712 C709 0.950 . S
C713 C704 1.390 1_554 S
C713 H706 0.950 . S
C713 C710 1.387 . S
C714 C715 1.387 . S
C714 H718 0.950 . S
C714 C723 1.390 1_554 S
C715 C714 1.387 . S
C715 C717 1.387 . S
H716 C723 0.950 . S
C717 C715 1.387 . S
C717 C719 1.390 1_554 S
C717 H721 0.950 . S
H718 C714 0.950 . S
C719 C717 1.390 1_556 S
C719 C720 1.387 . S
C719 H722 0.950 . S
C720 C719 1.387 . S
C720 C723 1.387 . S
H721 C717 0.950 . S
H722 C719 0.950 . S
C723 C714 1.390 1_556 S
C723 H716 0.950 . S
C723 C720 1.387 . S
C724 C725 1.387 . S
C724 H728 0.950 . S
C724 C733 1.390 1_556 S
C725 C724 1.387 . S
C725 C727 1.387 . S
H726 C733 0.950 . S
C727 C725 1.387 . S
C727 C729 1.390 1_556 S
C727 H731 0.950 . S
H728 C724 0.950 . S
C729 C727 1.390 1_554 S
C729 C730 1.387 . S
C729 H732 0.950 . S
C730 C729 1.387 . S
C730 C733 1.387 . S
H731 C727 0.950 . S
H732 C729 0.950 . S
C733 C724 1.390 1_554 S
C733 H726 0.950 . S
C733 C730 1.387 . S
C734 C735 1.387 . S
C734 H738 0.950 . S
C734 C743 1.390 1_556 S
C735 C734 1.387 . S
C735 C737 1.387 . S
H736 C743 0.950 . S
C737 C735 1.387 . S
C737 C739 1.390 1_556 S
C737 H741 0.950 . S
H738 C734 0.950 . S
C739 C737 1.390 1_554 S
C739 C740 1.387 . S
C739 H742 0.950 . S
C740 C739 1.387 . S
C740 C743 1.387 . S
H741 C737 0.950 . S
H742 C739 0.950 . S
C743 C734 1.390 1_554 S
C743 H736 0.950 . S
C743 C740 1.387 . S
C744 C745 1.387 . S
C744 H748 0.950 . S
C744 C753 1.390 . S
C745 C744 1.387 . S
C745 C747 1.387 . S
H746 C753 0.950 . S
C747 C745 1.387 . S
C747 C749 1.390 . S
C747 H751 0.950 . S
H748 C744 0.950 . S
C749 C747 1.390 . S
C749 C750 1.387 . S
C749 H752 0.950 . S
C750 C749 1.387 . S
C750 C753 1.387 . S
H751 C747 0.950 . S
H752 C749 0.950 . S
C753 C744 1.390 . S
C753 H746 0.950 . S
C753 C750 1.387 . S
C754 C755 1.387 . S
C754 H758 0.950 . S
C754 C763 1.390 . S
C755 C754 1.387 . S
C755 C757 1.387 . S
H756 C763 0.950 . S
C757 C755 1.387 . S
C757 C759 1.390 . S
C757 H761 0.950 . S
H758 C754 0.950 . S
C759 C757 1.390 . S
C759 C760 1.387 . S
C759 H762 0.950 . S
C760 C759 1.387 . S
C760 C763 1.387 . S
H761 C757 0.950 . S
H762 C759 0.950 . S
C763 C754 1.390 . S
C763 H756 0.950 . S
C763 C760 1.387 . S
C764 C765 1.387 . S
C764 H768 0.950 . S
C764 C773 1.390 . S
C765 C764 1.387 . S
C765 C767 1.387 . S
H766 C773 0.950 . S
C767 C765 1.387 . S
C767 C769 1.390 . S
C767 H771 0.950 . S
H768 C764 0.950 . S
C769 C767 1.390 . S
C769 C770 1.387 . S
C769 H772 0.950 . S
C770 C769 1.387 . S
C770 C773 1.387 . S
H771 C767 0.950 . S
H772 C769 0.950 . S
C773 C764 1.390 . S
C773 H766 0.950 . S
C773 C770 1.387 . S
C774 C775 1.387 . S
C774 H778 0.950 . S
C774 C783 1.390 . S
C775 C774 1.387 . S
C775 C777 1.387 . S
H776 C783 0.950 . S
C777 C775 1.387 . S
C777 C779 1.390 . S
C777 H781 0.950 . S
H778 C774 0.950 . S
C779 C777 1.390 . S
C779 C780 1.387 . S
C779 H782 0.950 . S
C780 C779 1.387 . S
C780 C783 1.387 . S
H781 C777 0.950 . S
H782 C779 0.950 . S
C783 C774 1.390 . S
C783 H776 0.950 . S
C783 C780 1.387 . S
C784 C785 1.387 . S
C784 H788 0.950 . S
C784 C793 1.390 . S
C785 C784 1.387 . S
C785 C787 1.387 . S
H786 C793 0.950 . S
C787 C785 1.387 . S
C787 C789 1.390 . S
C787 H791 0.950 . S
H788 C784 0.950 . S
C789 C787 1.390 . S
C789 C790 1.387 . S
C789 H792 0.950 . S
C790 C789 1.387 . S
C790 C793 1.387 . S
H791 C787 0.950 . S
H792 C789 0.950 . S
C793 C784 1.390 . S
C793 H786 0.950 . S
C793 C790 1.387 . S
C794 C795 1.387 . S
C794 H798 0.950 . S
C794 C803 1.390 . S
C795 C794 1.387 . S
C795 C797 1.387 . S
H796 C803 0.950 . S
C797 C795 1.387 . S
C797 C799 1.390 . S
C797 H801 0.950 . S
H798 C794 0.950 . S
C799 C797 1.390 . S
C799 C800 1.387 . S
C799 H802 0.950 . S
C800 C799 1.387 . S
C800 C803 1.387 . S
H801 C797 0.950 . S
H802 C799 0.950 . S
C803 C794 1.390 . S
C803 H796 0.950 . S
C803 C800 1.387 . S
C804 C805 1.387 . S
C804 H808 0.950 . S
C804 C813 1.390 . S
C805 C804 1.387 . S
C805 C807 1.387 . S
H806 C813 0.950 . S
C807 C805 1.387 . S
C807 C809 1.390 . S
C807 H811 0.950 . S
H808 C804 0.950 . S
C809 C807 1.390 . S
C809 C810 1.387 . S
C809 H812 0.950 . S
C810 C809 1.387 . S
C810 C813 1.387 . S
H811 C807 0.950 . S
H812 C809 0.950 . S
C813 C804 1.390 . S
C813 H806 0.950 . S
C813 C810 1.387 . S
C814 C815 1.387 . S
C814 H818 0.950 . S
C814 C823 1.390 . S
C815 C814 1.387 . S
C815 C817 1.387 . S
H816 C823 0.950 . S
C817 C815 1.387 . S
C817 C819 1.390 . S
C817 H821 0.950 . S
H818 C814 0.950 . S
C819 C817 1.390 . S
C819 C820 1.387 . S
C819 H822 0.950 . S
C820 C819 1.387 . S
C820 C823 1.387 . S
H821 C817 0.950 . S
H822 C819 0.950 . S
C823 C814 1.390 . S
C823 H816 0.950 . S
C823 C820 1.387 . S
C824 C825 1.387 . S
C824 H828 0.950 . S
C824 C833 1.390 . S
C825 C824 1.387 . S
C825 C827 1.387 . S
H826 C833 0.950 . S
C827 C825 1.387 . S
C827 C829 1.390 . S
C827 H831 0.950 . S
H828 C824 0.950 . S
C829 C827 1.390 . S
C829 C830 1.387 . S
C829 H832 0.950 . S
C830 C829 1.387 . S
C830 C833 1.387 . S
H831 C827 0.950 . S
H832 C829 0.950 . S
C833 C824 1.390 . S
C833 H826 0.950 . S
C833 C830 1.387 . S
C834 C835 1.387 . S
C834 H838 0.950 . S
C834 C843 1.390 . S
C835 C834 1.387 . S
C835 C837 1.387 . S
H836 C843 0.950 . S
C837 C835 1.387 . S
C837 C839 1.390 . S
C837 H841 0.950 . S
H838 C834 0.950 . S
C839 C837 1.390 . S
C839 C840 1.387 . S
C839 H842 0.950 . S
C840 C839 1.387 . S
C840 C843 1.387 . S
H841 C837 0.950 . S
H842 C839 0.950 . S
C843 C834 1.390 . S
C843 H836 0.950 . S
C843 C840 1.387 . S
C844 C845 1.387 . S
C844 H848 0.950 . S
C844 C853 1.390 . S
C845 C844 1.387 . S
C845 C847 1.387 . S
H846 C853 0.950 . S
C847 C845 1.387 . S
C847 C849 1.390 . S
C847 H851 0.950 . S
H848 C844 0.950 . S
C849 C847 1.390 . S
C849 C850 1.387 . S
C849 H852 0.950 . S
C850 C849 1.387 . S
C850 C853 1.387 . S
H851 C847 0.950 . S
H852 C849 0.950 . S
C853 C844 1.390 . S
C853 H846 0.950 . S
C853 C850 1.387 . S
C854 C855 1.387 . S
C854 H858 0.950 . S
C854 C863 1.390 . S
C855 C854 1.387 . S
C855 C857 1.387 . S
H856 C863 0.950 . S
C857 C855 1.387 . S
C857 C859 1.390 . S
C857 H861 0.950 . S
H858 C854 0.950 . S
C859 C857 1.390 . S
C859 C860 1.387 . S
C859 H862 0.950 . S
C860 C859 1.387 . S
C860 C863 1.387 . S
H861 C857 0.950 . S
H862 C859 0.950 . S
C863 C854 1.390 . S
C863 H856 0.950 . S
C863 C860 1.387 . S
C864 C865 1.387 . S
C864 H868 0.950 . S
C864 C873 1.390 . S
C865 C864 1.387 . S
C865 C867 1.387 . S
H866 C873 0.950 . S
C867 C865 1.387 . S
C867 C869 1.390 . S
C867 H871 0.950 . S
H868 C864 0.950 . S
C869 C867 1.390 . S
C869 C870 1.387 . S
C869 H872 0.950 . S
C870 C869 1.387 . S
C870 C873 1.387 . S
H871 C867 0.950 . S
H872 C869 0.950 . S
C873 C864 1.390 . S
C873 H866 0.950 . S
C873 C870 1.387 . S
C874 C875 1.387 . S
C874 H878 0.950 . S
C874 C883 1.390 . S
C875 C874 1.387 . S
C875 C877 1.387 . S
H876 C883 0.950 . S
C877 C875 1.387 . S
C877 C879 1.390 . S
C877 H881 0.950 . S
H878 C874 0.950 . S
C879 C877 1.390 . S
C879 C880 1.387 . S
C879 H882 0.950 . S
C880 C879 1.387 . S
C880 C883 1.387 . S
H881 C877 0.950 . S
H882 C879 0.950 . S
C883 C874 1.390 . S
C883 H876 0.950 . S
C883 C880 1.387 . S
C884 C885 1.387 . S
C884 H888 0.950 . S
C884 C893 1.390 . S
C885 C884 1.387 . S
C885 C887 1.387 . S
H886 C893 0.950 . S
C887 C885 1.387 . S
C887 C889 1.390 . S
C887 H891 0.950 . S
H888 C884 0.950 . S
C889 C887 1.390 . S
C889 C890 1.387 . S
C889 H892 0.950 . S
C890 C889 1.387 . S
C890 C893 1.387 . S
H891 C887 0.950 . S
H892 C889 0.950 . S
C893 C884 1.390 . S
C893 H886 0.950 . S
C893 C890 1.387 . S
C894 C895 1.387 . S
C894 H898 0.950 . S
C894 C903 1.390 . S
C895 C894 1.387 . S
C895 C897 1.387 . S
H896 C903 0.950 . S
C897 C895 1.387 . S
C897 C899 1.390 . S
C897 H901 0.950 . S
H898 C894 0.950 . S
C899 C897 1.390 . S
C899 C900 1.387 . S
C899 H902 0.950 . S
C900 C899 1.387 . S
C900 C903 1.387 . S
H901 C897 0.950 . S
H902 C899 0.950 . S
C903 C894 1.390 . S
C903 H896 0.950 . S
C903 C900 1.387 . S
C904 C905 1.387 . S
C904 H908 0.950 . S
C904 C913 1.390 . S
C905 C904 1.387 . S
C905 C907 1.387 . S
H906 C913 0.950 . S
C907 C905 1.387 . S
C907 C909 1.390 . S
C907 H911 0.950 . S
H908 C904 0.950 . S
C909 C907 1.390 . S
C909 C910 1.387 . S
C909 H912 0.950 . S
C910 C909 1.387 . S
C910 C913 1.387 . S
H911 C907 0.950 . S
H912 C909 0.950 . S
C913 C904 1.390 . S
C913 H906 0.950 . S
C913 C910 1.387 . S
C914 C915 1.387 . S
C914 H918 0.950 . S
C914 C923 1.390 . S
C915 C914 1.387 . S
C915 C917 1.387 . S
H916 C923 0.950 . S
C917 C915 1.387 . S
C917 C919 1.390 . S
C917 H921 0.950 . S
H918 C914 0.950 . S
C919 C917 1.390 . S
C919 C920 1.387 . S
C919 H922 0.950 . S
C920 C919 1.387 . S
C920 C923 1.387 . S
H921 C917 0.950 . S
H922 C919 0.950 . S
C923 C914 1.390 . S
C923 H916 0.950 . S
C923 C920 1.387 . S
C924 C925 1.387 . S
C924 H928 0.950 . S
C924 C933 1.390 . S
C925 C924 1.387 . S
C925 C927 1.387 . S
H926 C933 0.950 . S
C927 C925 1.387 . S
C927 C929 1.390 . S
C927 H931 0.950 . S
H928 C924 0.950 . S
C929 C927 1.390 . S
C929 C930 1.387 . S
C929 H932 0.950 . S
C930 C929 1.387 . S
C930 C933 1.387 . S
H931 C927 0.950 . S
H932 C929 0.950 . S
C933 C924 1.390 . S
C933 H926 0.950 . S
C933 C930 1.387 . S
C934 C935 1.387 . S
C934 H938 0.950 . S
C934 C943 1.390 . S
C935 C934 1.387 . S
C935 C937 1.387 . S
H936 C943 0.950 . S
C937 C935 1.387 . S
C937 C939 1.390 . S
C937 H941 0.950 . S
H938 C934 0.950 . S
C939 C937 1.390 . S
C939 C940 1.387 . S
C939 H942 0.950 . S
C940 C939 1.387 . S
C940 C943 1.387 . S
H941 C937 0.950 . S
H942 C939 0.950 . S
C943 C934 1.390 . S
C943 H936 0.950 . S
C943 C940 1.387 . S
C545 C5 1.714 . S
C550 C175 1.715 . S
C555 C209 1.716 . S
C560 C39 1.715 . S
C565 C243 1.715 . S
C570 C73 1.716 . S
C575 C141 1.716 . S
C580 C107 1.715 . S
C585 C277 1.715 . S
C590 C447 1.714 . S
C595 C311 1.715 . S
C600 C481 1.716 . S
C605 C515 1.715 . S
C610 C345 1.716 . S
C615 C379 1.715 . S
C620 C413 1.714 . S
C625 C33 1.340 . S
C630 C101 1.340 . S
C635 C135 1.336 . S
C640 C67 1.336 . S
C645 C169 1.340 . S
C650 C237 1.340 . S
C655 C203 1.336 . S
C660 C271 1.336 . S
C665 C373 1.340 . S
C670 C305 1.340 . S
C675 C407 1.340 . S
C680 C339 1.340 . S
C685 C509 1.336 . S
C690 C441 1.336 . S
C695 C543 1.340 . S
C700 C475 1.340 . S
C705 C519 1.539 . S
C710 C9 1.541 . S
C715 C417 1.540 . S
C720 C43 1.541 . S
C725 C451 1.542 . S
C730 C77 1.539 . S
C735 C111 1.542 . S
C740 C485 1.539 . S
C745 C145 1.540 . S
C750 C315 1.539 . S
C755 C179 1.539 . S
C760 C349 1.541 . S
C765 C213 1.539 . S
C770 C383 1.542 . S
C775 C247 1.539 . S
C780 C281 1.542 . S
C785 C478 1.132 . S
C790 C20 1.167 . S
C795 C54 1.166 . S
C800 C512 1.128 . S
C805 C410 1.128 . S
C810 C88 1.166 . S
C815 C444 1.132 . S
C820 C122 1.167 . S
C825 C342 1.132 . S
C830 C156 1.167 . S
C835 C190 1.166 . S
C840 C376 1.128 . S
C845 C274 1.128 . S
C850 C224 1.166 . S
C855 C258 1.166 . S
C860 C308 1.128 . S
C865 C206 1.132 1_655 S
C870 C292 1.166 . S
C875 C240 1.128 1_545 S
C880 C326 1.166 . S
C885 C360 1.166 . S
C890 C138 1.129 1_455 S
C895 C172 1.128 1_565 S
C900 C394 1.166 . S
C905 C70 1.128 1_455 S
C910 C428 1.166 . S
C915 C462 1.166 . S
C920 C104 1.128 1_565 S
C925 C496 1.166 . S
C930 C2 1.128 1_655 S
C935 C36 1.132 1_545 S
C940 C530 1.167 . S
