# Generated by pormake.
# Topology smm, (6)-cn, num edge types: 1
# Building blocks:
#     Node 0, Type 0, BuildingBlock: CUKXOW_clean_sbu_0, # of connection points: 6
#     Node 1, Type 0, BuildingBlock: CUKXOW_clean_sbu_0, # of connection points: 6
#     Node 2, Type 0, BuildingBlock: CUKXOW_clean_sbu_0, # of connection points: 6
#     Node 3, Type 0, BuildingBlock: CUKXOW_clean_sbu_0, # of connection points: 6
#     Node 4, Type 0, BuildingBlock: CUKXOW_clean_sbu_0, # of connection points: 6
#     Node 5, Type 0, BuildingBlock: CUKXOW_clean_sbu_0, # of connection points: 6
#     Node 6, Type 0, BuildingBlock: CUKXOW_clean_sbu_0, # of connection points: 6
#     Node 7, Type 0, BuildingBlock: CUKXOW_clean_sbu_0, # of connection points: 6
#     Node 8, Type 0, BuildingBlock: CUKXOW_clean_sbu_0, # of connection points: 6
#     Edge 9, Type (0, 0), BuildingBlock: XUDNAN_clean_linker_2, # of connection points: 2
#     Edge 10, Type (0, 0), BuildingBlock: XUDNAN_clean_linker_2, # of connection points: 2
#     Edge 11, Type (0, 0), BuildingBlock: XUDNAN_clean_linker_2, # of connection points: 2
#     Edge 12, Type (0, 0), BuildingBlock: XUDNAN_clean_linker_2, # of connection points: 2
#     Edge 13, Type (0, 0), BuildingBlock: XUDNAN_clean_linker_2, # of connection points: 2
#     Edge 14, Type (0, 0), BuildingBlock: XUDNAN_clean_linker_2, # of connection points: 2
#     Edge 15, Type (0, 0), BuildingBlock: XUDNAN_clean_linker_2, # of connection points: 2
#     Edge 16, Type (0, 0), BuildingBlock: XUDNAN_clean_linker_2, # of connection points: 2
#     Edge 17, Type (0, 0), BuildingBlock: XUDNAN_clean_linker_2, # of connection points: 2
#     Edge 18, Type (0, 0), BuildingBlock: XUDNAN_clean_linker_2, # of connection points: 2
#     Edge 19, Type (0, 0), BuildingBlock: XUDNAN_clean_linker_2, # of connection points: 2
#     Edge 20, Type (0, 0), BuildingBlock: XUDNAN_clean_linker_2, # of connection points: 2
#     Edge 21, Type (0, 0), BuildingBlock: XUDNAN_clean_linker_2, # of connection points: 2
#     Edge 22, Type (0, 0), BuildingBlock: XUDNAN_clean_linker_2, # of connection points: 2
#     Edge 23, Type (0, 0), BuildingBlock: XUDNAN_clean_linker_2, # of connection points: 2
#     Edge 24, Type (0, 0), BuildingBlock: XUDNAN_clean_linker_2, # of connection points: 2
#     Edge 25, Type (0, 0), BuildingBlock: XUDNAN_clean_linker_2, # of connection points: 2
#     Edge 26, Type (0, 0), BuildingBlock: XUDNAN_clean_linker_2, # of connection points: 2
#     Edge 27, Type (0, 0), BuildingBlock: XUDNAN_clean_linker_2, # of connection points: 2
#     Edge 28, Type (0, 0), BuildingBlock: XUDNAN_clean_linker_2, # of connection points: 2
#     Edge 29, Type (0, 0), BuildingBlock: XUDNAN_clean_linker_2, # of connection points: 2
#     Edge 30, Type (0, 0), BuildingBlock: XUDNAN_clean_linker_2, # of connection points: 2
#     Edge 31, Type (0, 0), BuildingBlock: XUDNAN_clean_linker_2, # of connection points: 2
#     Edge 32, Type (0, 0), BuildingBlock: XUDNAN_clean_linker_2, # of connection points: 2
#     Edge 33, Type (0, 0), BuildingBlock: XUDNAN_clean_linker_2, # of connection points: 2
#     Edge 34, Type (0, 0), BuildingBlock: XUDNAN_clean_linker_2, # of connection points: 2
#     Edge 35, Type (0, 0), BuildingBlock: XUDNAN_clean_linker_2, # of connection points: 2
# Relax obj value: 0.090
# Max RMSD: 0.189
# Mean RMSD: 0.153
data_MOF--net-smm--node1-CUKXOW_clean_sbu_0--edge1-XUDNAN_clean_linker_2
_symmetry_space_group_name_H-M    P1
_symmetry_Int_Tables_number       1
_symmetry_cell_setting            triclinic
loop_
_symmetry_equiv_pos_as_xyz
'x, y, z'
_cell_length_a     57.775912
_cell_length_b     50.063331
_cell_length_c     15.01262
_cell_angle_alpha  92.481516
_cell_angle_beta   92.594621
_cell_angle_gamma 120.79861
loop_
_atom_site_label
_atom_site_type_symbol
_atom_site_fract_x
_atom_site_fract_y
_atom_site_fract_z
_atom_type_partial_charge
Tb0 Tb 1.03297 0.25075 0.92805 0.0
C1 C 0.0582 0.23568 0.0973 0.0
Tb2 Tb 0.07375 0.22612 0.90325 0.0
O3 O 0.9969 0.2051 0.94847 0.0
O4 O 1.03304 0.20906 0.92378 0.0
O5 O 0.04641 0.25052 0.06572 0.0
C6 C 0.10004 0.19525 0.8861 0.0
O7 O 0.06841 0.22246 0.04619 0.0
C8 C 0.09129 0.28447 0.86427 0.0
C9 C 0.03834 0.2262 0.73974 0.0
O10 O 0.08056 0.19205 0.83146 0.0
O11 O 0.10464 0.21571 0.95152 0.0
O12 O 0.1018 0.26835 0.83735 0.0
O13 O 0.07498 0.26923 0.92079 0.0
O14 O 0.04744 0.21005 0.78128 0.0
O15 O 1.03493 0.24779 0.78234 0.0
C16 C 1.01665 0.28949 -0.01722 0.0
O17 O 0.03921 0.29143 0.0084 0.0
O18 O 1.00341 0.26615 0.9225 0.0
C19 C 1.00924 0.18961 0.9397 0.0
Tb20 Tb 0.84814 0.91425 0.06771 0.0
C21 C 0.87139 0.90051 0.89314 0.0
Tb22 Tb 0.90328 0.91925 0.08106 0.0
O23 O 0.86706 0.96505 0.08041 0.0
O24 O 0.88677 0.94425 0.02287 0.0
O25 O 0.85014 0.8984 0.93041 0.0
C26 C 0.95689 0.94626 0.09323 0.0
O27 O 0.8951 0.91155 0.93823 0.0
C28 C 0.86159 0.86345 0.10429 0.0
C29 C 0.88008 0.9299 0.25736 0.0
O30 O 0.94353 0.96013 0.10773 0.0
O31 O 0.93996 0.91662 0.07465 0.0
O32 O 0.88461 0.86798 0.07995 0.0
O33 O 0.86481 0.88971 0.12456 0.0
O34 O 0.90192 0.93683 0.21478 0.0
O35 O 0.8557 0.91758 0.21388 0.0
C36 C 0.79523 0.88911 0.03077 0.0
O37 O 0.81184 0.91784 0.06155 0.0
O38 O 0.80835 0.8746 0.02347 0.0
C39 C 0.88956 0.96999 0.05005 0.0
Tb40 Tb 0.25262 0.0894 0.92493 0.0
C41 C 0.22068 0.07023 0.09882 0.0
Tb42 Tb 0.19113 0.04147 0.90783 0.0
O43 O 0.24542 0.12316 0.85862 0.0
O44 O 0.21667 0.09015 0.93581 0.0
O45 O 0.24414 0.08492 0.0631 0.0
C46 C 0.13844 1.01916 0.90653 0.0
O47 O 0.19721 0.0518 0.05214 0.0
C48 C 0.22245 1.01836 0.88797 0.0
C49 C 0.2236 0.06438 0.73784 0.0
O50 O 0.15071 1.0058 0.94087 0.0
O51 O 0.15574 0.04428 0.87104 0.0
O52 O 0.19793 1.00508 0.85055 0.0
O53 O 0.22695 0.04129 0.93962 0.0
O54 O 0.20006 0.05467 0.77222 0.0
O55 O 0.24647 0.07342 0.78622 0.0
C56 C 0.30483 0.11903 -0.01831 0.0
O57 O 0.2889 0.13002 -0.01116 0.0
O58 O 0.2916 0.09174 0.93785 0.0
C59 C 0.22119 0.11141 0.88533 0.0
Tb60 Tb 0.71637 0.60113 0.38188 0.0
C61 C 0.68385 0.56321 0.19704 0.0
Tb62 Tb 0.67391 0.53 0.37522 0.0
O63 O 0.74756 0.59081 0.42891 0.0
O64 O 0.71427 0.55878 0.34472 0.0
O65 O 0.6997 0.59075 0.24237 0.0
C66 C 0.65369 0.46842 0.36659 0.0
O67 O 0.67283 0.53618 0.23412 0.0
C68 C 0.65545 0.5662 0.42471 0.0
C69 C 0.69907 0.56894 0.55823 0.0
O70 O 0.64068 0.48179 0.33875 0.0
O71 O 0.67775 0.48968 0.39896 0.0
O72 O 0.6448 0.53733 0.44412 0.0
O73 O 0.67342 0.57208 0.37095 0.0
O74 O 0.69226 0.54261 0.51113 0.0
O75 O 0.7074 0.59568 0.5213 0.0
C76 C 0.74623 0.66148 0.35088 0.0
O77 O 0.72611 0.64973 0.4015 0.0
O78 O 0.74976 0.63938 0.31978 0.0
C79 C 0.73502 0.563 0.38852 0.0
Tb80 Tb 0.5146 0.18035 0.396 0.0
C81 C 0.54878 0.18929 0.23053 0.0
Tb82 Tb 0.57581 0.19628 0.42578 0.0
O83 O 0.52454 0.2288 0.37824 0.0
O84 O 0.55389 0.2185 0.40371 0.0
O85 O 0.52424 0.17705 0.25944 0.0
C86 C 0.62986 0.22778 0.44171 0.0
O87 O 0.57132 0.19989 0.28324 0.0
C88 C 0.5377 0.13886 0.45582 0.0
C89 C 0.54434 0.19884 0.58677 0.0
O90 O 0.6148 0.20292 0.38785 0.0
O91 O 0.61442 0.234 0.48725 0.0
O92 O 0.5629 0.15161 0.48598 0.0
O93 O 0.53623 0.15661 0.40195 0.0
O94 O 0.56789 0.21171 0.55077 0.0
O95 O 0.52074 0.18017 0.54045 0.0
C96 C 0.4614 0.15419 0.36038 0.0
O97 O 0.47586 0.17494 0.42566 0.0
O98 O 0.47679 0.14705 0.31769 0.0
C99 C 0.55048 0.24076 0.38909 0.0
Tb100 Tb 0.87876 0.37197 0.37977 0.0
C101 C 0.86809 0.39998 0.20851 0.0
Tb102 Tb 0.85711 0.41737 0.39671 0.0
O103 O 0.83958 0.33096 0.40338 0.0
O104 O 0.84202 0.37036 0.35184 0.0
O105 O 0.88256 0.38937 0.24695 0.0
C106 C 0.82506 0.44136 0.40278 0.0
O107 O 0.85437 0.40965 0.25387 0.0
C108 C 0.90994 0.44353 0.39578 0.0
C109 C 0.86157 0.38277 0.56395 0.0
O110 O 0.82119 0.41801 0.35036 0.0
O111 O 0.84728 0.45156 0.45357 0.0
O112 O 0.89668 0.45659 0.36831 0.0
O113 O 0.89379 0.41869 0.42934 0.0
O114 O 0.85027 0.3971 0.52482 0.0
O115 O 0.87716 0.37435 0.52375 0.0
C116 C 0.91101 0.35047 0.33825 0.0
O117 O 0.91759 0.37424 0.39428 0.0
O118 O 0.88589 0.33804 0.30876 0.0
C119 C 0.82622 0.34464 0.38294 0.0
Tb120 Tb 0.34976 0.8904 0.6544 0.0
C121 C 0.38357 0.8899 0.82448 0.0
Tb122 Tb 0.38868 0.86401 0.63839 0.0
O123 O 0.31411 0.84391 0.61925 0.0
O124 O 0.34887 0.84801 0.67866 0.0
O125 O 0.37324 0.90461 0.78243 0.0
C126 C 0.40886 0.82659 0.6265 0.0
O127 O 0.38755 0.86876 0.78313 0.0
C128 C 0.41468 0.92528 0.62145 0.0
C129 C 0.36667 0.88051 0.4665 0.0
O130 O 0.41991 0.85318 0.67346 0.0
O131 O 0.38619 0.82082 0.58598 0.0
O132 O 0.42607 0.90866 0.61807 0.0
O133 O 0.39039 0.90672 0.63474 0.0
O134 O 0.37327 0.86086 0.4999 0.0
O135 O 0.36008 0.89773 0.51706 0.0
C136 C 0.32771 0.92363 0.70871 0.0
O137 O 0.32886 0.91616 0.62558 0.0
O138 O 0.33872 0.9123 0.75956 0.0
C139 C 0.32587 0.82868 0.64099 0.0
Tb140 Tb 0.15489 0.54438 0.60451 0.0
C141 C 0.18452 0.54558 0.4342 0.0
Tb142 Tb 0.21158 0.54946 0.624 0.0
O143 O 0.17314 0.59385 0.65158 0.0
O144 O 0.19614 0.57851 0.59009 0.0
O145 O 0.16063 0.5341 0.46721 0.0
C146 C 0.26237 0.5634 0.61322 0.0
O147 O 0.20723 0.5565 0.48526 0.0
C148 C 0.17194 0.4909 0.6358 0.0
C149 C 0.18459 0.55621 0.79337 0.0
O150 O 0.24197 0.54466 0.55762 0.0
O151 O 0.25433 0.57475 0.67637 0.0
O152 O 0.19741 0.50034 0.64236 0.0
O153 O 0.17028 0.51455 0.6221 0.0
O154 O 0.20761 0.56426 0.75679 0.0
O155 O 0.16054 0.54304 0.74776 0.0
C156 C 0.10383 0.529 0.55952 0.0
O157 O 0.12553 0.55284 0.53498 0.0
O158 O 0.11078 0.51356 0.61106 0.0
C159 C 0.1974 0.60169 0.6319 0.0
Tb160 Tb 0.5673 0.7306 0.6455 0.0
C161 C 0.54009 0.68942 0.81112 0.0
Tb162 Tb 0.50914 0.66932 0.62178 0.0
O163 O 0.55043 0.75787 0.59453 0.0
O164 O 0.52646 0.71756 0.65864 0.0
O165 O 0.56135 0.7135 0.77951 0.0
C166 C 0.45538 0.63613 0.61243 0.0
O167 O 0.51729 0.66981 0.76276 0.0
C168 C 0.54811 0.65659 0.61185 0.0
C169 C 0.54087 0.70082 0.45528 0.0
O170 O 0.47071 0.65839 0.67296 0.0
O171 O 0.47033 0.63226 0.55734 0.0
O172 O 0.5225 0.63511 0.60603 0.0
O173 O 0.54946 0.6823 0.62564 0.0
O174 O 0.51698 0.68675 0.4898 0.0
O175 O 0.56434 0.71771 0.50387 0.0
C176 C 0.61726 0.77556 0.70201 0.0
O177 O 0.59544 0.7762 0.71309 0.0
O178 O 0.6111 0.74963 0.65713 0.0
C179 C 0.52606 0.73824 0.61462 0.0
H180 H 0.13228 0.32214 0.76383 0.0
H181 H 0.0614 0.31311 0.87686 0.0
H182 H 0.07145 0.36337 0.82101 0.0
H183 H 0.17522 0.40282 0.81095 0.0
H184 H 0.19137 0.40901 0.70763 0.0
H185 H 0.17734 0.37178 0.754 0.0
H186 H 0.14796 0.34466 0.60529 0.0
H187 H 0.16191 0.38197 0.5588 0.0
H188 H 0.12583 0.35718 0.56103 0.0
H189 H 0.09209 0.41792 0.75838 0.0
H190 H 0.12132 0.4698 0.6997 0.0
H191 H 0.17669 0.44043 0.62214 0.0
C192 C 0.11878 0.33065 0.77655 0.0
C193 C 0.09644 0.31409 0.82776 0.0
C194 C 0.0792 0.32594 0.84172 0.0
C195 C 0.08457 0.35432 0.8086 0.0
C196 C 0.10711 0.37042 0.75977 0.0
C197 C 0.12377 0.35874 0.74326 0.0
C198 C 0.14711 0.38062 0.69122 0.0
C199 C 0.17436 0.39172 0.74413 0.0
C200 C 0.1456 0.36518 0.59859 0.0
C201 C 0.14156 0.40693 0.68346 0.0
C202 C 0.11825 0.4007 0.72223 0.0
C203 C 0.11016 0.42276 0.7267 0.0
C204 C 0.12671 0.45209 0.6927 0.0
C205 C 0.15105 0.45896 0.65553 0.0
C206 C 0.15801 0.43572 0.64931 0.0
H207 H 0.76308 0.83324 0.93649 0.0
H208 H 0.76505 0.91695 0.0374 0.0
H209 H 0.71988 0.8975 0.95973 0.0
H210 H 0.73263 0.82772 0.72026 0.0
H211 H 0.7124 0.78572 0.71091 0.0
H212 H 0.74407 0.8053 0.77836 0.0
H213 H 0.71988 0.77691 0.91593 0.0
H214 H 0.68821 0.75686 0.84856 0.0
H215 H 0.69147 0.7793 0.95052 0.0
H216 H 0.67498 0.86911 0.86954 0.0
H217 H 0.63259 0.83299 0.77783 0.0
H218 H 0.66111 0.76895 0.73079 0.0
C219 C 0.75382 0.84727 0.94331 0.0
C220 C 0.7673 0.87645 -0.00668 0.0
C221 C 0.75483 0.8944 -0.00018 0.0
C222 C 0.72931 0.88361 0.95568 0.0
C223 C 0.7168 0.855 0.90513 0.0
C224 C 0.72857 0.83702 0.89907 0.0
C225 C 0.7112 0.80744 0.83907 0.0
C226 C 0.72597 0.80651 0.75731 0.0
C227 C 0.70215 0.77841 0.89168 0.0
C228 C 0.6877 0.81151 0.81232 0.0
C229 C 0.69132 0.83908 0.85123 0.0
C230 C 0.67198 0.84754 0.83846 0.0
C231 C 0.64806 0.82696 0.7861 0.0
C232 C 0.64383 0.79844 0.74682 0.0
C233 C 0.66408 0.79087 0.75896 0.0
H234 H 0.22268 0.9826 0.74428 0.0
H235 H 0.26646 1.03173 -0.00288 0.0
H236 H 0.29933 1.01491 0.97413 0.0
H237 H 0.23072 0.91687 0.75808 0.0
H238 H 0.23559 0.91365 0.64122 0.0
H239 H 0.21587 0.93018 0.67623 0.0
H240 H 0.24678 0.98024 0.59806 0.0
H241 H 0.26664 0.96387 0.56285 0.0
H242 H 0.28275 1.00117 0.62636 0.0
H243 H 0.32504 0.98949 0.93027 0.0
H244 H 0.34412 0.95973 0.86379 0.0
H245 H 0.28616 0.92962 0.63314 0.0
C246 C 0.23923 0.98977 0.79458 0.0
C247 C 0.24208 1.00839 0.87266 0.0
C248 C 0.26405 1.0176 0.93675 0.0
C249 C 0.28276 1.00812 0.92429 0.0
C250 C 0.27941 0.98972 0.84678 0.0
C251 C 0.25839 0.98089 0.78244 0.0
C252 C 0.25959 0.96112 0.70511 0.0
C253 C 0.23392 0.92852 0.69459 0.0
C254 C 0.26422 0.97759 0.61793 0.0
C255 C 0.28417 0.95958 0.73714 0.0
C256 C 0.29517 0.97621 0.81923 0.0
C257 C 0.31688 0.97679 0.86545 0.0
C258 C 0.32754 0.95977 0.82724 0.0
C259 C 0.31682 0.94277 0.74301 0.0
C260 C 0.29505 0.94297 0.69679 0.0
H261 H 0.43001 0.11487 0.21503 0.0
H262 H 0.43409 0.18131 0.42007 0.0
H263 H 0.39554 0.18075 0.34066 0.0
H264 H 0.4145 0.14486 0.03075 0.0
H265 H 0.39073 0.10784 0.97169 0.0
H266 H 0.41742 0.11121 0.04696 0.0
H267 H 0.38242 0.067 0.13652 0.0
H268 H 0.35565 0.06293 0.06008 0.0
H269 H 0.35495 0.06985 0.17849 0.0
H270 H 0.36087 0.17822 0.23157 0.0
H271 H 0.32476 0.16535 0.11428 0.0
H272 H 0.34032 0.0977 -0.01676 0.0
C273 C 0.42226 0.1286 0.2443 0.0
C274 C 0.43496 0.14816 0.32359 0.0
C275 C 0.42452 0.16605 0.35967 0.0
C276 C 0.4028 0.1661 0.31468 0.0
C277 C 0.3915 0.14771 0.23457 0.0
C278 C 0.40024 0.12854 0.20086 0.0
C279 C 0.3843 0.11096 0.11348 0.0
C280 C 0.40285 0.11922 0.03618 0.0
C281 C 0.36838 0.07559 0.12272 0.0
C282 C 0.36558 0.12369 0.1029 0.0
C283 C 0.37046 0.14521 0.17296 0.0
C284 C 0.35654 0.16107 0.177 0.0
C285 C 0.33626 0.15382 0.10955 0.0
C286 C 0.3298 0.13056 0.03988 0.0
C287 C 0.34497 0.11569 0.03563 0.0
H288 H 0.90168 0.30961 0.19432 0.0
H289 H 0.96424 0.37685 0.39023 0.0
H290 H 0.99856 0.3716 0.31195 0.0
H291 H 0.92911 0.25907 0.16784 0.0
H292 H 0.91945 0.25048 0.04953 0.0
H293 H 0.90005 0.2597 0.12173 0.0
H294 H 0.907 0.30407 0.02285 0.0
H295 H 0.92688 0.29535 0.95131 0.0
H296 H 0.94081 0.33418 0.00341 0.0
H297 H 1.02593 0.36018 0.21142 0.0
H298 H 0.0445 0.33836 0.10582 0.0
H299 H 0.96432 0.27742 0.97456 0.0
C300 C 0.92256 0.32285 0.22132 0.0
C301 C 0.93048 0.34373 0.2984 0.0
C302 C 0.95793 0.36086 0.33137 0.0
C303 C 0.97751 0.35812 0.287 0.0
C304 C 0.96921 0.33805 0.20973 0.0
C305 C 0.94238 0.32033 0.17775 0.0
C306 C 0.9389 0.30003 0.09422 0.0
C307 C 0.92081 0.26526 0.10927 0.0
C308 C 0.92774 0.30895 0.01317 0.0
C309 C 0.96796 0.30881 0.08507 0.0
C310 C 0.98508 0.33115 0.15179 0.0
C311 C 1.01275 0.34269 0.15889 0.0
C312 C 1.02312 0.33025 0.0983 0.0
C313 C 1.00585 0.30633 0.03195 0.0
C314 C 0.978 0.29601 0.02385 0.0
H315 H 0.85636 0.80535 0.09966 0.0
H316 H 0.81869 0.85647 0.19076 0.0
H317 H 0.78553 0.81078 0.26462 0.0
H318 H 0.79303 0.72974 0.05625 0.0
H319 H 0.80809 0.70789 0.09344 0.0
H320 H 0.8284 0.7444 0.04486 0.0
H321 H 0.86185 0.765 0.18647 0.0
H322 H 0.84149 0.7287 0.23588 0.0
H323 H 0.84942 0.76493 0.29453 0.0
H324 H 0.75793 0.76063 0.33647 0.0
H325 H 0.73539 0.70761 0.3901 0.0
H326 H 0.78969 0.68807 0.24954 0.0
C327 C 0.8409 0.80672 0.13418 0.0
C328 C 0.84021 0.83455 0.13967 0.0
C329 C 0.81971 0.83548 0.1857 0.0
C330 C 0.80076 0.80963 0.22814 0.0
C331 C 0.80232 0.78277 0.2233 0.0
C332 C 0.82159 0.78092 0.17647 0.0
C333 C 0.8187 0.74916 0.18187 0.0
C334 C 0.81163 0.73177 0.08856 0.0
C335 C 0.8444 0.75214 0.22741 0.0
C336 C 0.79513 0.73375 0.24005 0.0
C337 C 0.78603 0.75359 0.26343 0.0
C338 C 0.76475 0.74479 0.31812 0.0
C339 C 0.75216 0.71473 0.34865 0.0
C340 C 0.76083 0.69384 0.32408 0.0
C341 C 0.78267 0.7036 0.26944 0.0
H342 H 0.05482 0.4805 0.60666 0.0
H343 H 0.0902 0.55841 0.43956 0.0
H344 H 0.04474 0.54456 0.37929 0.0
H345 H 1.00106 0.42716 0.45004 0.0
H346 H 0.97593 0.41001 0.53027 0.0
H347 H 1.01115 0.42627 0.56464 0.0
H348 H 1.00904 0.46259 0.68701 0.0
H349 H 0.97363 0.44612 0.65481 0.0
H350 H 0.99651 0.48767 0.65717 0.0
H351 H 0.99586 0.52251 0.33544 0.0
H352 H 0.94601 0.4938 0.31282 0.0
H353 H 0.94122 0.42958 0.50628 0.0
C354 C 0.0529 0.49466 0.55777 0.0
C355 C 0.07607 0.52053 0.5277 0.0
C356 C 0.07277 0.53852 0.46366 0.0
C357 C 0.04701 0.53084 0.42889 0.0
C358 C 1.02458 0.50514 0.45911 0.0
C359 C 1.02715 0.48742 0.5226 0.0
C360 C 0.99955 0.46099 0.54319 0.0
C361 C 0.99674 0.4292 0.52062 0.0
C362 C 0.99439 0.46457 0.64137 0.0
C363 C 0.9812 0.46632 0.48007 0.0
C364 C 0.99615 0.4921 0.43281 0.0
C365 C 0.98391 0.50224 0.3719 0.0
C366 C 0.9556 0.4858 0.35941 0.0
C367 C 0.93979 0.45937 0.40704 0.0
C368 C 0.95282 0.44943 0.46785 0.0
H369 H 0.54833 0.60273 0.62425 0.0
H370 H 0.59741 0.69777 0.55209 0.0
H371 H 0.63153 0.68595 0.50033 0.0
H372 H 0.60566 0.59448 0.7048 0.0
H373 H 0.58875 0.55406 0.66334 0.0
H374 H 0.56929 0.5709 0.699 0.0
H375 H 0.54205 0.55345 0.5443 0.0
H376 H 0.56157 0.53685 0.50787 0.0
H377 H 0.5598 0.56558 0.44438 0.0
H378 H 0.65745 0.66115 0.43918 0.0
H379 H 0.67532 0.62755 0.39153 0.0
H380 H 0.61126 0.55044 0.51671 0.0
C381 C 0.56652 0.62119 0.59904 0.0
C382 C 0.57031 0.65119 0.59223 0.0
C383 C 0.59425 0.67474 0.55865 0.0
C384 C 0.61366 0.66816 0.52868 0.0
C385 C 0.60905 0.63807 0.53454 0.0
C386 C 0.5863 0.61518 0.57077 0.0
C387 C 0.5859 0.58468 0.56926 0.0
C388 C 0.5875 0.5755 0.66479 0.0
C389 C 0.56085 0.55862 0.5131 0.0
C390 C 0.61157 0.59365 0.52429 0.0
C391 C 0.62462 0.62447 0.50417 0.0
C392 C 0.64774 0.63722 0.45672 0.0
C393 C 0.65783 0.61805 0.4301 0.0
C394 C 0.64511 0.58669 0.45225 0.0
C395 C 0.62173 0.57451 0.50011 0.0
H396 H 0.54039 0.09038 0.52259 0.0
H397 H 0.48374 0.11914 0.44625 0.0
H398 H 0.44586 0.06874 0.48696 0.0
H399 H 0.49863 1.01092 0.43498 0.0
H400 H 0.50937 0.99549 0.52339 0.0
H401 H 0.53178 1.03441 0.49238 0.0
H402 H 0.5364 0.05604 0.65634 0.0
H403 H 0.51386 1.01717 0.68777 0.0
H404 H 0.50643 0.04753 0.71081 0.0
H405 H 0.41385 1.01412 0.53796 0.0
H406 H 0.39094 0.95967 0.58242 0.0
H407 H 0.46858 0.96617 0.61769 0.0
C408 C 0.52001 0.0861 0.51488 0.0
C409 C 0.51495 0.10865 0.48069 0.0
C410 C 0.48801 0.10206 0.47095 0.0
C411 C 0.46639 0.07355 0.49471 0.0
C412 C 0.47201 0.05165 0.52766 0.0
C413 C 0.4982 0.05756 0.537 0.0
C414 C 0.49881 1.02971 0.56994 0.0
C415 C 0.51032 1.01688 0.50105 0.0
C416 C 0.51482 1.03812 0.66166 0.0
C417 C 0.46893 1.00713 0.5773 0.0
C418 C 0.45374 1.02026 0.55388 0.0
C419 C 0.42561 1.00365 0.55617 0.0
C420 C 0.41274 0.97276 0.58168 0.0
C421 C 0.42795 0.95867 0.60315 0.0
C422 C 0.45639 0.97631 0.60152 0.0
H423 H 0.19257 0.12298 0.00477 0.0
H424 H 0.20882 0.12646 0.72529 0.0
H425 H 0.17747 0.14561 0.69398 0.0
H426 H 0.12169 0.10203 0.97864 0.0
H427 H 0.12565 0.12729 0.0744 0.0
H428 H 0.14655 0.11025 0.06922 0.0
H429 H 0.18889 0.16638 0.09505 0.0
H430 H 0.16756 0.18287 0.09616 0.0
H431 H 0.19338 0.19512 0.01837 0.0
H432 H 0.1429 0.16225 0.69301 0.0
H433 H 0.11312 0.18296 0.72472 0.0
H434 H 0.12431 0.17585 0.0083 0.0
C435 C 0.18926 0.12756 0.93693 0.0
C436 C 0.20272 0.123 0.86692 0.0
C437 C 0.19855 0.12982 0.77941 0.0
C438 C 0.18072 0.14051 0.76113 0.0
C439 C 0.16779 0.14496 0.83169 0.0
C440 C 0.17226 0.13929 0.9182 0.0
C441 C 0.1578 0.14869 -0.01686 0.0
C442 C 0.13669 0.12037 0.02909 0.0
C443 C 0.17813 0.17482 0.05224 0.0
C444 C 0.14436 0.16038 0.91963 0.0
C445 C 0.14988 0.1573 0.83232 0.0
C446 C 0.13871 0.1651 0.76117 0.0
C447 C 0.12176 0.17672 0.77976 0.0
C448 C 0.1167 0.18124 0.86885 0.0
C449 C 0.12816 0.17296 0.93967 0.0
H450 H 0.89473 1.02655 0.08968 0.0
H451 H 0.93479 0.98337 0.96342 0.0
H452 H 0.97193 1.03537 0.92949 0.0
H453 H 0.90886 0.08163 0.92904 0.0
H454 H 0.91332 0.11212 0.00901 0.0
H455 H 0.8915 0.0719 0.03019 0.0
H456 H 0.91886 0.08142 0.18198 0.0
H457 H 0.94079 0.12171 0.16114 0.0
H458 H 0.95488 0.09768 0.18452 0.0
H459 H 1.00474 0.09337 0.90749 0.0
H460 H 1.02757 0.15036 0.88992 0.0
H461 H 0.96377 0.15365 0.02158 0.0
C462 C 0.91146 1.02805 0.05575 0.0
C463 C 0.91218 1.001 0.03091 0.0
C464 C 0.93415 1.00389 -0.01502 0.0
C465 C 0.95529 1.03333 0.96511 0.0
C466 C 0.95397 0.05963 -0.00936 0.0
C467 C 0.93244 0.05713 0.03434 0.0
C468 C 0.93476 0.08849 0.04976 0.0
C469 C 0.91069 0.08852 0.0016 0.0
C470 C 0.93749 0.09787 0.15033 0.0
C471 C 0.96076 0.10906 0.00709 0.0
C472 C 0.9719 0.09224 0.97449 0.0
C473 C 0.99611 0.10668 0.93265 0.0
C474 C 1.00897 0.13899 0.92303 0.0
C475 C 0.99729 0.1562 0.9538 0.0
C476 C 0.97305 0.14098 -0.00317 0.0
H477 H 0.99046 0.9226 0.07983 0.0
H478 H 0.9874 1.00709 0.06254 0.0
H479 H 1.03273 1.0337 0.00673 0.0
H480 H 0.06298 0.96393 0.15812 0.0
H481 H 0.0687 0.93619 0.09768 0.0
H482 H 1.03603 0.92383 0.13775 0.0
H483 H 1.01391 0.9025 0.97674 0.0
H484 H 0.04656 0.91535 0.93588 0.0
H485 H 1.02518 0.92827 0.88752 0.0
H486 H 0.07543 0.0492 0.93769 0.0
H487 H 0.1185 0.05717 0.88858 0.0
H488 H 0.09707 0.96507 0.96483 0.0
C489 C 0.99963 0.94685 0.06573 0.0
C490 C 0.98551 0.96282 0.07489 0.0
C491 C 0.99798 0.99451 0.05608 0.0
C492 C 1.02361 1.00976 0.02376 0.0
C493 C 1.03672 0.99317 0.01278 0.0
C494 C 1.02563 0.96278 0.03564 0.0
C495 C 0.04468 0.9509 0.02014 0.0
C496 C 0.05363 0.94327 0.1087 0.0
C497 C 1.0318 0.92258 0.95094 0.0
C498 C 0.06789 0.9792 -0.01656 0.0
C499 C 0.06254 1.00304 0.97836 0.0
C500 C 0.08016 1.03099 0.94284 0.0
C501 C 0.10444 1.03519 0.91459 0.0
C502 C 0.11107 1.01183 0.92386 0.0
C503 C 0.09244 0.98332 0.9576 0.0
H504 H 0.77862 0.56638 0.48462 0.0
H505 H 0.71395 0.51026 0.27893 0.0
H506 H 0.72834 0.47181 0.27033 0.0
H507 H 0.82792 0.55401 0.38301 0.0
H508 H 0.84392 0.55263 0.48717 0.0
H509 H 0.82749 0.57497 0.48307 0.0
H510 H 0.79778 0.54418 0.60858 0.0
H511 H 0.81405 0.52164 0.61282 0.0
H512 H 0.77779 0.50219 0.59424 0.0
H513 H 0.74924 0.43992 0.28086 0.0
H514 H 0.77822 0.41763 0.30083 0.0
H515 H 0.83177 0.49464 0.49408 0.0
C516 C 0.76746 0.54586 0.43838 0.0
C517 C 0.74467 0.5408 0.38422 0.0
C518 C 0.73095 0.51412 0.32292 0.0
C519 C 0.73902 0.49218 0.31726 0.0
C520 C 0.76124 0.49751 0.37217 0.0
C521 C 0.77556 0.52378 0.43083 0.0
C522 C 0.7997 0.5244 0.47804 0.0
C523 C 0.82633 0.55321 0.45651 0.0
C524 C 0.79717 0.52301 0.57945 0.0
C525 C 0.79672 0.49452 0.43597 0.0
C526 C 0.77414 0.47934 0.37596 0.0
C527 C 0.767 0.45155 0.32756 0.0
C528 C 0.78362 0.43909 0.33943 0.0
C529 C 0.80725 0.45445 0.39877 0.0
C530 C 0.81375 0.48238 0.44856 0.0
H531 H 0.60076 0.4204 0.3435 0.0
H532 H 0.68293 0.44017 0.38723 0.0
H533 H 0.66587 0.38377 0.39082 0.0
H534 H 0.57246 0.36041 0.4933 0.0
H535 H 0.54103 0.33673 0.42606 0.0
H536 H 0.55979 0.37836 0.41967 0.0
H537 H 0.56064 0.37065 0.24825 0.0
H538 H 0.54181 0.32896 0.25415 0.0
H539 H 0.57376 0.34732 0.20472 0.0
H540 H 0.63954 0.32474 0.39115 0.0
H541 H 0.60584 0.26854 0.39617 0.0
H542 H 0.54114 0.28787 0.36264 0.0
C543 C 0.61511 0.41275 0.35264 0.0
C544 C 0.64314 0.43453 0.36438 0.0
C545 C 0.66135 0.42378 0.37781 0.0
C546 C 0.65187 0.39181 0.37976 0.0
C547 C 0.62407 0.37086 0.36895 0.0
C548 C 0.60595 0.3809 0.35609 0.0
C549 C 0.57705 0.35377 0.35118 0.0
C550 C 0.56169 0.35755 0.42708 0.0
C551 C 0.56246 0.34995 0.25909 0.0
C552 C 0.58175 0.327 0.36406 0.0
C553 C 0.60899 0.33722 0.3731 0.0
C554 C 0.61816 0.31656 0.38499 0.0
C555 C 0.59894 0.28471 0.38868 0.0
C556 C 0.571 0.27397 0.38216 0.0
C557 C 0.56242 0.29545 0.36873 0.0
H558 H 0.66805 0.21571 0.3765 0.0
H559 H 0.65835 0.28796 0.50769 0.0
H560 H 0.70709 0.32545 0.50444 0.0
H561 H 0.73293 0.23969 0.49635 0.0
H562 H 0.74648 0.23068 0.40153 0.0
H563 H 0.71057 0.20928 0.41231 0.0
H564 H 0.70241 0.22404 0.25561 0.0
H565 H 0.7383 0.24562 0.24458 0.0
H566 H 0.71903 0.26456 0.23272 0.0
H567 H 0.75608 0.35582 0.48204 0.0
H568 H 0.80365 0.37618 0.4545 0.0
H569 H 0.78376 0.28465 0.34612 0.0
C570 C 0.67631 0.2394 0.40477 0.0
C571 C 0.65945 0.24897 0.44237 0.0
C572 C 0.67092 0.28009 0.47907 0.0
C573 C 0.69857 0.30162 0.47719 0.0
C574 C 0.71467 0.29162 0.43951 0.0
C575 C 0.70416 0.2612 0.40507 0.0
C576 C 0.72637 0.25662 0.37095 0.0
C577 C 0.72925 0.23265 0.42344 0.0
C578 C 0.72121 0.24715 0.26996 0.0
C579 C 0.75083 0.28924 0.39111 0.0
C580 C 0.74344 0.30906 0.42962 0.0
C581 C 0.76212 0.34051 0.45201 0.0
C582 C 0.78914 0.35203 0.43507 0.0
C583 C 0.79739 0.33222 0.39702 0.0
C584 C 0.77797 0.30032 0.37541 0.0
H585 H 0.52982 0.79368 0.6551 0.0
H586 H 0.47265 0.69761 0.56203 0.0
H587 H 0.43553 0.70892 0.55667 0.0
H588 H 0.48564 0.80367 0.79671 0.0
H589 H 0.49845 0.84354 0.77178 0.0
H590 H 0.52002 0.8274 0.76784 0.0
H591 H 0.52926 0.8423 0.60453 0.0
H592 H 0.50771 0.85846 0.60794 0.0
H593 H 0.50119 0.8287 0.52177 0.0
H594 H 0.40514 0.73239 0.55516 0.0
H595 H 0.38398 0.76474 0.56691 0.0
H596 H 0.46132 0.84451 0.66745 0.0
C597 C 0.50946 0.77507 0.6335 0.0
C598 C 0.50384 0.74464 0.61024 0.0
C599 C 0.47707 0.7208 0.58258 0.0
C600 C 0.45599 0.72716 0.57836 0.0
C601 C 0.46216 0.75749 0.60246 0.0
C602 C 0.48827 0.78097 0.63014 0.0
C603 C 0.48968 0.81145 0.6541 0.0
C604 C 0.49899 0.82213 0.75351 0.0
C605 C 0.50804 0.83671 0.59345 0.0
C606 C 0.46036 0.80167 0.63477 0.0
C607 C 0.44475 0.77055 0.60435 0.0
C608 C 0.41718 0.75671 0.57951 0.0
C609 C 0.40534 0.77521 0.58617 0.0
C610 C 0.42102 0.80696 0.61858 0.0
C611 C 0.4488 0.82018 0.64333 0.0
H612 H 0.19631 0.65561 0.6213 0.0
H613 H 0.25119 0.6213 0.65016 0.0
H614 H 0.29019 0.67546 0.66113 0.0
H615 H 0.23739 0.71535 0.47655 0.0
H616 H 0.22855 0.74274 0.52065 0.0
H617 H 0.20512 0.70147 0.52187 0.0
H618 H 0.20314 0.70815 0.69293 0.0
H619 H 0.22659 0.74945 0.69225 0.0
H620 H 0.23404 0.72656 0.7646 0.0
H621 H 0.32319 0.7346 0.67965 0.0
H622 H 0.34731 0.79216 0.68044 0.0
H623 H 0.27133 0.7872 0.61538 0.0
C624 C 0.21655 0.65956 0.63061 0.0
C625 C 0.22077 0.63422 0.63684 0.0
C626 C 0.24754 0.6403 0.64652 0.0
C627 C 0.26979 0.67105 0.65287 0.0
C628 C 0.26498 0.69556 0.64683 0.0
C629 C 0.23901 0.69008 0.63391 0.0
C630 C 0.23936 0.72029 0.62302 0.0
C631 C 0.22687 0.71993 0.52998 0.0
C632 C 0.22493 0.72647 0.69765 0.0
C633 C 0.26955 0.74367 0.63274 0.0
C634 C 0.28399 0.72905 0.64826 0.0
C635 C 0.31208 0.74614 0.66515 0.0
C636 C 0.32571 0.77886 0.6647 0.0
C637 C 0.31145 0.79417 0.64443 0.0
C638 C 0.28294 0.77618 0.62886 0.0
H639 H 0.42303 0.64995 0.70666 0.0
H640 H 0.42113 0.58644 0.4964 0.0
H641 H 0.37133 0.56052 0.47672 0.0
H642 H 0.36159 0.59473 0.80333 0.0
H643 H 0.35124 0.62263 0.82522 0.0
H644 H 0.38663 0.63559 0.8247 0.0
H645 H 0.39212 0.67391 0.70529 0.0
H646 H 0.35675 0.66105 0.70532 0.0
H647 H 0.37087 0.65923 0.60223 0.0
H648 H 0.32259 0.54263 0.47695 0.0
H649 H 0.27695 0.53299 0.49708 0.0
H650 H 0.30984 0.60798 0.7079 0.0
C651 C 0.41205 0.63036 0.65719 0.0
C652 C 0.42572 0.6199 0.60337 0.0
C653 C 0.41089 0.59459 0.5384 0.0
C654 C 0.38267 0.57979 0.52681 0.0
C655 C 0.36977 0.59075 0.58055 0.0
C656 C 0.38389 0.61543 0.64445 0.0
C657 C 0.3651 0.62309 0.69164 0.0
C658 C 0.36621 0.61874 0.79219 0.0
C659 C 0.3716 0.65628 0.67511 0.0
C660 C 0.33812 0.59865 0.64463 0.0
C661 C 0.34141 0.58038 0.58065 0.0
C662 C 0.31971 0.55666 0.52703 0.0
C663 C 0.29389 0.55141 0.53896 0.0
C664 C 0.28995 0.56967 0.60425 0.0
C665 C 0.31234 0.59356 0.658 0.0
H666 H 0.04433 0.26753 0.61383 0.0
H667 H 1.02442 0.17237 0.64437 0.0
H668 H 1.02803 0.16519 0.4838 0.0
H669 H 1.00777 0.2506 0.38655 0.0
H670 H 1.0331 0.28739 0.34936 0.0
H671 H 1.02633 0.28417 0.46564 0.0
H672 H 0.07702 0.30539 0.50864 0.0
H673 H 0.08388 0.30797 0.39252 0.0
H674 H 0.09292 0.28564 0.46163 0.0
H675 H 0.03974 0.17005 0.32697 0.0
H676 H 0.05038 0.18356 0.17198 0.0
H677 H 0.06016 0.2743 0.23675 0.0
C678 C 0.03977 0.24489 0.5859 0.0
C679 C 1.03414 0.22053 0.64149 0.0
C680 C 1.02889 0.19141 0.60301 0.0
C681 C 1.03097 0.18709 0.5119 0.0
C682 C 0.03797 0.21198 0.45965 0.0
C683 C 0.04156 0.24004 0.49421 0.0
C684 C 0.04952 0.26306 0.42265 0.0
C685 C 1.02789 0.27181 0.40499 0.0
C686 C 0.0775 0.29223 0.44789 0.0
C687 C 0.05026 0.24363 0.34354 0.0
C688 C 0.04385 0.21439 0.367 0.0
C689 C 0.04441 0.19271 0.30712 0.0
C690 C 0.05081 0.20071 0.21966 0.0
C691 C 0.05614 0.22994 0.19278 0.0
C692 C 0.05611 0.25176 0.25579 0.0
H693 H 0.83754 0.90279 0.76136 0.0
H694 H 0.90461 0.88751 0.8056 0.0
H695 H 0.91263 0.89246 0.64679 0.0
H696 H 0.81543 0.86029 0.5275 0.0
H697 H 0.80607 0.88721 0.488 0.0
H698 H 0.80274 0.87786 0.60313 0.0
H699 H 0.83223 0.93676 0.65295 0.0
H700 H 0.8364 0.94627 0.53827 0.0
H701 H 0.86568 0.95915 0.61508 0.0
H702 H 0.92007 0.91009 0.49843 0.0
H703 H 0.9196 0.92569 0.34733 0.0
H704 H 0.84499 0.92486 0.38529 0.0
C705 C 0.85317 0.89926 0.73666 0.0
C706 C 0.87071 0.8952 0.79578 0.0
C707 C 0.89118 0.89105 0.7616 0.0
C708 C 0.89593 0.89382 0.67151 0.0
C709 C 0.8796 0.89999 0.61611 0.0
C710 C 0.85798 0.90149 0.64575 0.0
C711 C 0.84437 0.90936 0.57089 0.0
C712 C 0.81543 0.88205 0.54589 0.0
C713 C 0.8447 0.93969 0.59585 0.0
C714 C 0.86269 0.91358 0.49667 0.0
C715 C 0.88294 0.90828 0.52546 0.0
C716 C 0.90388 0.91336 0.47367 0.0
C717 C 0.90356 0.92273 0.38804 0.0
C718 C 0.8821 0.92635 0.35385 0.0
C719 C 0.86152 0.92207 0.40942 0.0
H720 H 0.18736 1.02973 0.59713 0.0
H721 H 0.26404 0.11485 0.6718 0.0
H722 H 0.26699 0.1291 0.51642 0.0
H723 H 0.2071 1.01199 0.39828 0.0
H724 H 0.1749 0.99615 0.33526 0.0
H725 H 0.17634 0.99482 0.45477 0.0
H726 H 0.14998 1.02383 0.46675 0.0
H727 H 0.14867 1.02547 0.34699 0.0
H728 H 0.16278 0.06084 0.41914 0.0
H729 H 0.26414 0.13253 0.358 0.0
H730 H 0.25869 0.12241 0.19539 0.0
H731 H 0.18465 1.03376 0.21675 0.0
C732 C 0.20453 0.05146 0.58019 0.0
C733 C 0.22552 0.07124 0.64492 0.0
C734 C 0.24799 0.09931 0.6219 0.0
C735 C 0.24961 0.10783 0.53453 0.0
C736 C 0.22866 0.08787 0.47175 0.0
C737 C 0.20673 0.06005 0.49263 0.0
C738 C 0.18895 0.04113 0.40975 0.0
C739 C 0.18672 1.00915 0.39889 0.0
C740 C 0.16093 1.03762 0.41075 0.0
C741 C 0.2051 0.06214 0.33908 0.0
C742 C 0.22743 0.08935 0.37716 0.0
C743 C 0.24663 0.11154 0.32694 0.0
C744 C 0.24345 0.10538 0.23482 0.0
C745 C 0.2214 0.07709 0.19441 0.0
C746 C 0.20151 0.05561 0.24657 0.0
H747 H 0.72407 0.61129 0.70545 0.0
H748 H 0.65581 0.51951 0.61705 0.0
H749 H 0.64106 0.51212 0.76896 0.0
H750 H 0.73979 0.58931 0.90593 0.0
H751 H 0.74927 0.62481 0.97221 0.0
H752 H 0.75248 0.6255 0.85363 0.0
H753 H 0.72255 0.65006 0.83841 0.0
H754 H 0.71916 0.64926 0.95724 0.0
H755 H 0.68944 0.63067 0.87997 0.0
H756 H 0.63589 0.51133 0.92781 0.0
H757 H 0.64212 0.51616 0.09185 0.0
H758 H 0.71393 0.60783 0.08398 0.0
C759 C 0.70586 0.58993 0.71845 0.0
C760 C 0.69119 0.5659 0.65022 0.0
C761 C 0.66758 0.53804 0.66897 0.0
C762 C 0.65878 0.53375 0.75472 0.0
C763 C 0.67383 0.55749 0.82112 0.0
C764 C 0.69693 0.585 0.80475 0.0
C765 C 0.71079 0.60507 0.89096 0.0
C766 C 0.73979 0.61153 0.90658 0.0
C767 C 0.71045 0.63558 0.89166 0.0
C768 C 0.69247 0.58379 0.95789 0.0
C769 C 0.67096 0.55685 0.9155 0.0
C770 C 0.65238 0.53249 0.96221 0.0
C771 C 0.65619 0.53537 0.05525 0.0
C772 C 0.67849 0.56234 0.10024 0.0
C773 C 0.69647 0.58718 0.0511 0.0
H774 H 0.50854 0.16245 0.706 0.0
H775 H 0.58339 0.25011 0.68479 0.0
H776 H 0.59095 0.25794 0.84829 0.0
H777 H 0.48991 0.18856 0.91713 0.0
H778 H 0.47634 0.15071 0.95999 0.0
H779 H 0.47454 0.15399 0.8411 0.0
H780 H 0.4989 0.12306 0.81952 0.0
H781 H 0.50134 0.12027 0.9383 0.0
H782 H 0.53144 0.13713 0.87841 0.0
H783 H 0.59474 0.25263 0.00762 0.0
H784 H 0.59098 0.23827 0.16315 0.0
H785 H 0.51279 0.15531 0.08687 0.0
C786 C 0.52598 0.18373 0.73615 0.0
C787 C 0.54548 0.20557 0.68329 0.0
C788 C 0.56836 0.23294 0.72444 0.0
C789 C 0.57281 0.23769 0.81716 0.0
C790 C 0.55401 0.21505 0.86757 0.0
C791 C 0.53072 0.18895 0.82925 0.0
C792 C 0.51479 0.16747 0.89972 0.0
C793 C 0.48726 0.16506 0.90479 0.0
C794 C 0.51144 0.13508 0.88294 0.0
C795 C 0.5334 0.18509 -0.01744 0.0
C796 C 0.55587 0.21243 0.962 0.0
C797 C 0.57701 0.23163 0.02532 0.0
C798 C 0.57485 0.22306 0.11303 0.0
C799 C 0.55164 0.1957 0.13633 0.0
C800 C 0.53065 0.17646 0.0704 0.0
H801 H 0.89495 0.38283 0.6999 0.0
H802 H 0.81509 0.36832 0.63546 0.0
H803 H 0.80731 0.36712 0.79487 0.0
H804 H 0.87585 0.33442 0.90327 0.0
H805 H 0.90804 0.36114 0.9629 0.0
H806 H 0.90563 0.35485 0.84284 0.0
H807 H 0.92764 0.41434 0.8306 0.0
H808 H 0.92953 0.42078 0.95019 0.0
H809 H 0.91225 0.43441 0.8796 0.0
H810 H 0.81118 0.37791 0.95455 0.0
H811 H 0.82342 0.39147 0.11537 0.0
H812 H 0.90014 0.39701 0.08325 0.0
C813 C 0.87551 0.37819 0.71968 0.0
C814 C 0.85566 0.37588 0.65641 0.0
C815 C 0.83061 0.37047 0.68368 0.0
C816 C 0.82593 0.36959 0.77381 0.0
C817 C 0.84641 0.37375 0.83528 0.0
C818 C 0.87046 0.37718 0.81005 0.0
C819 C 0.8898 0.38384 0.89104 0.0
C820 C 0.89513 0.35695 0.90057 0.0
C821 C 0.91636 0.41521 0.88759 0.0
C822 C 0.8733 0.38526 0.96459 0.0
C823 C 0.84834 0.37923 0.93038 0.0
C824 C 0.83034 0.38188 -0.01707 0.0
C825 C 0.83769 0.39007 0.07392 0.0
C826 C 0.86272 0.39525 0.11131 0.0
C827 C 0.8808 0.39289 0.05605 0.0
H828 H 0.36827 0.84368 0.32789 0.0
H829 H 0.37547 0.93321 0.39276 0.0
H830 H 0.38612 0.94718 0.23891 0.0
H831 H 0.42168 0.87078 0.17386 0.0
H832 H 0.40345 0.83655 0.09698 0.0
H833 H 0.39802 0.83378 0.21437 0.0
H834 H 0.34663 0.81019 0.17744 0.0
H835 H 0.35188 0.81245 0.06009 0.0
H836 H 0.33522 0.83083 0.11013 0.0
H837 H 0.39478 0.95148 0.08044 0.0
H838 H 0.39544 0.94335 0.91822 0.0
H839 H 0.38175 0.85068 0.95061 0.0
C840 C 0.37213 0.86621 0.30953 0.0
C841 C 0.37098 0.88731 0.37219 0.0
C842 C 0.37594 0.9165 0.34571 0.0
C843 C 0.38234 0.92484 0.25873 0.0
C844 C 0.38358 0.90371 0.19886 0.0
C845 C 0.37825 0.87483 0.22229 0.0
C846 C 0.37909 0.85575 0.14254 0.0
C847 C 0.40192 0.84881 0.15789 0.0
C848 C 0.35157 0.82552 0.1213 0.0
C849 C 0.38518 0.87828 0.0705 0.0
C850 C 0.38818 0.906 0.10535 0.0
C851 C 0.39262 0.92998 0.05221 0.0
C852 C 0.39295 0.92512 0.96018 0.0
C853 C 0.38868 0.89641 0.92214 0.0
C854 C 0.38556 0.87304 0.97826 0.0
H855 H 0.14647 0.52409 0.91016 0.0
H856 H 0.22721 0.60358 0.89233 0.0
H857 H 0.23337 0.61218 0.0561 0.0
H858 H 0.1309 0.55633 0.11659 0.0
H859 H 0.11316 0.5185 0.16028 0.0
H860 H 0.11289 0.52169 0.0411 0.0
H861 H 0.13134 0.48437 0.02414 0.0
H862 H 0.13208 0.48143 0.14308 0.0
H863 H 0.16243 0.49398 0.08626 0.0
H864 H 0.23415 0.60761 0.21486 0.0
H865 H 0.22852 0.59263 0.36873 0.0
H866 H 0.14684 0.51621 0.2903 0.0
C867 C 0.16505 0.54383 0.94109 0.0
C868 C 0.18642 0.56316 0.88959 0.0
C869 C 0.21074 0.5884 0.93134 0.0
C870 C 0.21435 0.59363 0.02403 0.0
C871 C 0.19337 0.57348 0.07338 0.0
C872 C 0.16905 0.54929 0.03402 0.0
C873 C 0.15101 0.52938 0.1036 0.0
C874 C 0.12548 0.53162 0.1055 0.0
C875 C 0.14381 0.49528 0.08832 0.0
C876 C 0.16963 0.54535 0.1874 0.0
C877 C 0.19377 0.57092 0.16784 0.0
C878 C 0.21519 0.58807 0.23173 0.0
C879 C 0.21186 0.57904 0.31867 0.0
C880 C 0.18725 0.55313 0.34089 0.0
C881 C 0.16574 0.53622 0.27475 0.0
H882 H 0.57333 0.73891 0.33144 0.0
H883 H 0.50824 0.64492 0.3668 0.0
H884 H 0.50632 0.63017 0.20732 0.0
H885 H 0.54545 0.74566 0.12996 0.0
H886 H 0.57682 0.76769 0.07861 0.0
H887 H 0.57657 0.76989 0.1984 0.0
H888 H 0.61212 0.75303 0.21141 0.0
H889 H 0.61238 0.75067 0.09128 0.0
H890 H 0.60533 0.71736 0.15206 0.0
H891 H 0.50752 0.62647 0.0465 0.0
H892 H 0.50969 0.63487 0.88653 0.0
H893 H 0.57314 0.73159 0.94918 0.0
C894 C 0.5591 0.71516 0.30532 0.0
C895 C 0.54087 0.69303 0.36042 0.0
C896 C 0.52213 0.66225 0.3248 0.0
C897 C 0.52112 0.65353 0.23476 0.0
C898 C 0.53895 0.6759 0.18139 0.0
C899 C 0.5575 0.70613 0.21464 0.0
C900 C 0.57197 0.72634 0.14 0.0
C901 C 0.56741 0.75401 0.13656 0.0
C902 C 0.60225 0.7375 0.14926 0.0
C903 C 0.55772 0.70299 0.05984 0.0
C904 C 0.53926 0.6739 0.08592 0.0
C905 C 0.52214 0.64898 0.02484 0.0
C906 C 0.5234 0.65407 0.93422 0.0
C907 C 0.54151 0.68391 0.90582 0.0
C908 C 0.55937 0.70846 0.96923 0.0
loop_
_geom_bond_atom_site_label_1
_geom_bond_atom_site_label_2
_geom_bond_distance
_geom_bond_site_symmetry_2
_ccdc_geom_bond_type
Tb0 O3 2.453 . S
Tb0 O4 2.596 1_655 S
Tb0 O5 2.374 . S
Tb0 O13 2.343 1_655 S
Tb0 O15 2.353 1_554 S
Tb0 O17 2.427 1_554 S
Tb0 O18 2.513 . S
C1 O5 1.251 1_455 S
C1 O7 1.263 . S
Tb2 O4 2.343 . S
Tb2 O7 2.353 . S
Tb2 O10 2.427 . S
Tb2 O11 2.513 1_554 S
Tb2 O12 2.453 . S
Tb2 O13 2.596 . S
Tb2 O14 2.374 1_554 S
O3 Tb0 2.453 . S
O3 C19 1.245 . S
O4 Tb0 2.596 1_455 S
O4 Tb2 2.343 . S
O4 C19 1.259 1_455 S
O5 Tb0 2.374 . S
O5 C1 1.251 1_655 S
C6 O10 1.275 . S
C6 O11 1.246 1_554 S
O7 C1 1.263 . S
O7 Tb2 2.353 . S
C8 O12 1.245 . S
C8 O13 1.259 . S
C9 O14 1.250 . S
C9 O15 1.263 1_455 S
O10 Tb2 2.427 . S
O10 C6 1.275 . S
O11 Tb2 2.513 1_556 S
O11 C6 1.246 1_556 S
O12 Tb2 2.453 . S
O12 C8 1.245 . S
O13 Tb0 2.343 1_455 S
O13 Tb2 2.596 . S
O13 C8 1.259 . S
O14 Tb2 2.374 1_556 S
O14 C9 1.250 . S
O15 Tb0 2.353 1_556 S
O15 C9 1.263 1_655 S
C16 O17 1.275 1_554 S
C16 O18 1.246 . S
O17 Tb0 2.427 1_556 S
O17 C16 1.275 1_556 S
O18 Tb0 2.513 . S
O18 C16 1.246 . S
C19 O3 1.245 . S
C19 O4 1.259 1_655 S
Tb20 O23 2.453 . S
Tb20 O24 2.596 . S
Tb20 O25 2.374 1_554 S
Tb20 O33 2.343 . S
Tb20 O35 2.353 . S
Tb20 O37 2.427 . S
Tb20 O38 2.513 1_554 S
C21 O25 1.251 . S
C21 O27 1.263 . S
Tb22 O24 2.343 . S
Tb22 O27 2.353 1_554 S
Tb22 O30 2.427 . S
Tb22 O31 2.513 . S
Tb22 O32 2.453 . S
Tb22 O33 2.596 . S
Tb22 O34 2.374 . S
O23 Tb20 2.453 . S
O23 C39 1.245 . S
O24 Tb20 2.596 . S
O24 Tb22 2.343 . S
O24 C39 1.259 . S
O25 Tb20 2.374 1_556 S
O25 C21 1.251 . S
C26 O30 1.275 . S
C26 O31 1.246 . S
O27 C21 1.263 . S
O27 Tb22 2.353 1_556 S
C28 O32 1.245 . S
C28 O33 1.259 . S
C29 O34 1.250 . S
C29 O35 1.263 . S
O30 Tb22 2.427 . S
O30 C26 1.275 . S
O31 Tb22 2.513 . S
O31 C26 1.246 . S
O32 Tb22 2.453 . S
O32 C28 1.245 . S
O33 Tb20 2.343 . S
O33 Tb22 2.596 . S
O33 C28 1.259 . S
O34 Tb22 2.374 . S
O34 C29 1.250 . S
O35 Tb20 2.353 . S
O35 C29 1.263 . S
C36 O37 1.275 . S
C36 O38 1.246 1_554 S
O37 Tb20 2.427 . S
O37 C36 1.275 . S
O38 Tb20 2.513 1_556 S
O38 C36 1.246 1_556 S
C39 O23 1.245 . S
C39 O24 1.259 . S
Tb40 O43 2.453 . S
Tb40 O44 2.596 . S
Tb40 O45 2.374 . S
Tb40 O53 2.343 1_554 S
Tb40 O55 2.353 1_554 S
Tb40 O57 2.427 1_554 S
Tb40 O58 2.513 . S
C41 O45 1.251 . S
C41 O47 1.263 1_545 S
Tb42 O44 2.343 1_566 S
Tb42 O47 2.353 1_556 S
Tb42 O50 2.427 1_556 S
Tb42 O51 2.513 . S
Tb42 O52 2.453 . S
Tb42 O53 2.596 1_565 S
Tb42 O54 2.374 . S
O43 Tb40 2.453 . S
O43 C59 1.245 . S
O44 Tb40 2.596 . S
O44 Tb42 2.343 1_544 S
O44 C59 1.259 . S
O45 Tb40 2.374 . S
O45 C41 1.251 . S
C46 O50 1.275 1_556 S
C46 O51 1.246 . S
O47 C41 1.263 1_565 S
O47 Tb42 2.353 1_554 S
C48 O52 1.245 . S
C48 O53 1.259 1_565 S
C49 O54 1.250 1_545 S
C49 O55 1.263 . S
O50 Tb42 2.427 1_554 S
O50 C46 1.275 1_554 S
O51 Tb42 2.513 . S
O51 C46 1.246 . S
O52 Tb42 2.453 . S
O52 C48 1.245 . S
O53 Tb40 2.343 1_556 S
O53 Tb42 2.596 1_545 S
O53 C48 1.259 1_545 S
O54 Tb42 2.374 . S
O54 C49 1.250 1_565 S
O55 Tb40 2.353 1_556 S
O55 C49 1.263 . S
C56 O57 1.275 1_554 S
C56 O58 1.246 . S
O57 Tb40 2.427 1_556 S
O57 C56 1.275 1_556 S
O58 Tb40 2.513 . S
O58 C56 1.246 . S
C59 O43 1.245 . S
C59 O44 1.259 . S
Tb60 O63 2.453 . S
Tb60 O64 2.596 . S
Tb60 O65 2.374 . S
Tb60 O73 2.343 . S
Tb60 O75 2.353 . S
Tb60 O77 2.427 . S
Tb60 O78 2.513 . S
C61 O65 1.251 . S
C61 O67 1.263 . S
Tb62 O64 2.343 . S
Tb62 O67 2.353 . S
Tb62 O70 2.427 . S
Tb62 O71 2.513 . S
Tb62 O72 2.453 . S
Tb62 O73 2.596 . S
Tb62 O74 2.374 . S
O63 Tb60 2.453 . S
O63 C79 1.245 . S
O64 Tb60 2.596 . S
O64 Tb62 2.343 . S
O64 C79 1.259 . S
O65 Tb60 2.374 . S
O65 C61 1.251 . S
C66 O70 1.275 . S
C66 O71 1.246 . S
O67 C61 1.263 . S
O67 Tb62 2.353 . S
C68 O72 1.245 . S
C68 O73 1.259 . S
C69 O74 1.250 . S
C69 O75 1.263 . S
O70 Tb62 2.427 . S
O70 C66 1.275 . S
O71 Tb62 2.513 . S
O71 C66 1.246 . S
O72 Tb62 2.453 . S
O72 C68 1.245 . S
O73 Tb60 2.343 . S
O73 Tb62 2.596 . S
O73 C68 1.259 . S
O74 Tb62 2.374 . S
O74 C69 1.250 . S
O75 Tb60 2.353 . S
O75 C69 1.263 . S
C76 O77 1.275 . S
C76 O78 1.246 . S
O77 Tb60 2.427 . S
O77 C76 1.275 . S
O78 Tb60 2.513 . S
O78 C76 1.246 . S
C79 O63 1.245 . S
C79 O64 1.259 . S
Tb80 O83 2.453 . S
Tb80 O84 2.596 . S
Tb80 O85 2.374 . S
Tb80 O93 2.343 . S
Tb80 O95 2.353 . S
Tb80 O97 2.427 . S
Tb80 O98 2.513 . S
C81 O85 1.251 . S
C81 O87 1.263 . S
Tb82 O84 2.343 . S
Tb82 O87 2.353 . S
Tb82 O90 2.427 . S
Tb82 O91 2.513 . S
Tb82 O92 2.453 . S
Tb82 O93 2.596 . S
Tb82 O94 2.374 . S
O83 Tb80 2.453 . S
O83 C99 1.245 . S
O84 Tb80 2.596 . S
O84 Tb82 2.343 . S
O84 C99 1.259 . S
O85 Tb80 2.374 . S
O85 C81 1.251 . S
C86 O90 1.275 . S
C86 O91 1.246 . S
O87 C81 1.263 . S
O87 Tb82 2.353 . S
C88 O92 1.245 . S
C88 O93 1.259 . S
C89 O94 1.250 . S
C89 O95 1.263 . S
O90 Tb82 2.427 . S
O90 C86 1.275 . S
O91 Tb82 2.513 . S
O91 C86 1.246 . S
O92 Tb82 2.453 . S
O92 C88 1.245 . S
O93 Tb80 2.343 . S
O93 Tb82 2.596 . S
O93 C88 1.259 . S
O94 Tb82 2.374 . S
O94 C89 1.250 . S
O95 Tb80 2.353 . S
O95 C89 1.263 . S
C96 O97 1.275 . S
C96 O98 1.246 . S
O97 Tb80 2.427 . S
O97 C96 1.275 . S
O98 Tb80 2.513 . S
O98 C96 1.246 . S
C99 O83 1.245 . S
C99 O84 1.259 . S
Tb100 O103 2.453 . S
Tb100 O104 2.596 . S
Tb100 O105 2.374 . S
Tb100 O113 2.343 . S
Tb100 O115 2.353 . S
Tb100 O117 2.427 . S
Tb100 O118 2.513 . S
C101 O105 1.251 . S
C101 O107 1.263 . S
Tb102 O104 2.343 . S
Tb102 O107 2.353 . S
Tb102 O110 2.427 . S
Tb102 O111 2.513 . S
Tb102 O112 2.453 . S
Tb102 O113 2.596 . S
Tb102 O114 2.374 . S
O103 Tb100 2.453 . S
O103 C119 1.245 . S
O104 Tb100 2.596 . S
O104 Tb102 2.343 . S
O104 C119 1.259 . S
O105 Tb100 2.374 . S
O105 C101 1.251 . S
C106 O110 1.275 . S
C106 O111 1.246 . S
O107 C101 1.263 . S
O107 Tb102 2.353 . S
C108 O112 1.245 . S
C108 O113 1.259 . S
C109 O114 1.250 . S
C109 O115 1.263 . S
O110 Tb102 2.427 . S
O110 C106 1.275 . S
O111 Tb102 2.513 . S
O111 C106 1.246 . S
O112 Tb102 2.453 . S
O112 C108 1.245 . S
O113 Tb100 2.343 . S
O113 Tb102 2.596 . S
O113 C108 1.259 . S
O114 Tb102 2.374 . S
O114 C109 1.250 . S
O115 Tb100 2.353 . S
O115 C109 1.263 . S
C116 O117 1.275 . S
C116 O118 1.246 . S
O117 Tb100 2.427 . S
O117 C116 1.275 . S
O118 Tb100 2.513 . S
O118 C116 1.246 . S
C119 O103 1.245 . S
C119 O104 1.259 . S
Tb120 O123 2.453 . S
Tb120 O124 2.596 . S
Tb120 O125 2.374 . S
Tb120 O133 2.343 . S
Tb120 O135 2.353 . S
Tb120 O137 2.427 . S
Tb120 O138 2.513 . S
C121 O125 1.251 . S
C121 O127 1.263 . S
Tb122 O124 2.343 . S
Tb122 O127 2.353 . S
Tb122 O130 2.427 . S
Tb122 O131 2.513 . S
Tb122 O132 2.453 . S
Tb122 O133 2.596 . S
Tb122 O134 2.374 . S
O123 Tb120 2.453 . S
O123 C139 1.245 . S
O124 Tb120 2.596 . S
O124 Tb122 2.343 . S
O124 C139 1.259 . S
O125 Tb120 2.374 . S
O125 C121 1.251 . S
C126 O130 1.275 . S
C126 O131 1.246 . S
O127 C121 1.263 . S
O127 Tb122 2.353 . S
C128 O132 1.245 . S
C128 O133 1.259 . S
C129 O134 1.250 . S
C129 O135 1.263 . S
O130 Tb122 2.427 . S
O130 C126 1.275 . S
O131 Tb122 2.513 . S
O131 C126 1.246 . S
O132 Tb122 2.453 . S
O132 C128 1.245 . S
O133 Tb120 2.343 . S
O133 Tb122 2.596 . S
O133 C128 1.259 . S
O134 Tb122 2.374 . S
O134 C129 1.250 . S
O135 Tb120 2.353 . S
O135 C129 1.263 . S
C136 O137 1.275 . S
C136 O138 1.246 . S
O137 Tb120 2.427 . S
O137 C136 1.275 . S
O138 Tb120 2.513 . S
O138 C136 1.246 . S
C139 O123 1.245 . S
C139 O124 1.259 . S
Tb140 O143 2.453 . S
Tb140 O144 2.596 . S
Tb140 O145 2.374 . S
Tb140 O153 2.343 . S
Tb140 O155 2.353 . S
Tb140 O157 2.427 . S
Tb140 O158 2.513 . S
C141 O145 1.251 . S
C141 O147 1.263 . S
Tb142 O144 2.343 . S
Tb142 O147 2.353 . S
Tb142 O150 2.427 . S
Tb142 O151 2.513 . S
Tb142 O152 2.453 . S
Tb142 O153 2.596 . S
Tb142 O154 2.374 . S
O143 Tb140 2.453 . S
O143 C159 1.245 . S
O144 Tb140 2.596 . S
O144 Tb142 2.343 . S
O144 C159 1.259 . S
O145 Tb140 2.374 . S
O145 C141 1.251 . S
C146 O150 1.275 . S
C146 O151 1.246 . S
O147 C141 1.263 . S
O147 Tb142 2.353 . S
C148 O152 1.245 . S
C148 O153 1.259 . S
C149 O154 1.250 . S
C149 O155 1.263 . S
O150 Tb142 2.427 . S
O150 C146 1.275 . S
O151 Tb142 2.513 . S
O151 C146 1.246 . S
O152 Tb142 2.453 . S
O152 C148 1.245 . S
O153 Tb140 2.343 . S
O153 Tb142 2.596 . S
O153 C148 1.259 . S
O154 Tb142 2.374 . S
O154 C149 1.250 . S
O155 Tb140 2.353 . S
O155 C149 1.263 . S
C156 O157 1.275 . S
C156 O158 1.246 . S
O157 Tb140 2.427 . S
O157 C156 1.275 . S
O158 Tb140 2.513 . S
O158 C156 1.246 . S
C159 O143 1.245 . S
C159 O144 1.259 . S
Tb160 O163 2.453 . S
Tb160 O164 2.596 . S
Tb160 O165 2.374 . S
Tb160 O173 2.343 . S
Tb160 O175 2.353 . S
Tb160 O177 2.427 . S
Tb160 O178 2.513 . S
C161 O165 1.251 . S
C161 O167 1.263 . S
Tb162 O164 2.343 . S
Tb162 O167 2.353 . S
Tb162 O170 2.427 . S
Tb162 O171 2.513 . S
Tb162 O172 2.453 . S
Tb162 O173 2.596 . S
Tb162 O174 2.374 . S
O163 Tb160 2.453 . S
O163 C179 1.245 . S
O164 Tb160 2.596 . S
O164 Tb162 2.343 . S
O164 C179 1.259 . S
O165 Tb160 2.374 . S
O165 C161 1.251 . S
C166 O170 1.275 . S
C166 O171 1.246 . S
O167 C161 1.263 . S
O167 Tb162 2.353 . S
C168 O172 1.245 . S
C168 O173 1.259 . S
C169 O174 1.250 . S
C169 O175 1.263 . S
O170 Tb162 2.427 . S
O170 C166 1.275 . S
O171 Tb162 2.513 . S
O171 C166 1.246 . S
O172 Tb162 2.453 . S
O172 C168 1.245 . S
O173 Tb160 2.343 . S
O173 Tb162 2.596 . S
O173 C168 1.259 . S
O174 Tb162 2.374 . S
O174 C169 1.250 . S
O175 Tb160 2.353 . S
O175 C169 1.263 . S
C176 O177 1.275 . S
C176 O178 1.246 . S
O177 Tb160 2.427 . S
O177 C176 1.275 . S
O178 Tb160 2.513 . S
O178 C176 1.246 . S
C179 O163 1.245 . S
C179 O164 1.259 . S
H180 C192 0.930 . S
H181 C194 0.930 . S
H182 C195 0.930 . S
H183 C199 0.959 . S
H184 C199 0.959 . S
H185 C199 0.961 . S
H186 C200 0.960 . S
H187 C200 0.961 . S
H188 C200 0.959 . S
H189 C203 0.929 1_554 S
H190 C204 0.931 . S
H191 C206 0.930 . S
C192 H180 0.930 . S
C192 C193 1.399 1_556 S
C192 C197 1.399 . S
C193 C192 1.399 1_554 S
C193 C194 1.376 . S
C194 H181 0.930 . S
C194 C193 1.376 . S
C194 C195 1.388 . S
C195 H182 0.930 . S
C195 C194 1.388 . S
C195 C196 1.390 1_554 S
C196 C195 1.390 1_556 S
C196 C197 1.394 . S
C196 C202 1.465 . S
C197 C192 1.399 . S
C197 C196 1.394 . S
C197 C198 1.516 . S
C198 C197 1.516 . S
C198 C199 1.502 . S
C198 C200 1.561 . S
C198 C201 1.526 . S
C199 H183 0.959 . S
C199 H184 0.959 . S
C199 H185 0.961 . S
C199 C198 1.502 . S
C200 H186 0.960 . S
C200 H187 0.961 . S
C200 H188 0.959 . S
C200 C198 1.561 . S
C201 C198 1.526 . S
C201 C202 1.396 . S
C201 C206 1.390 . S
C202 C196 1.465 . S
C202 C201 1.396 . S
C202 C203 1.399 . S
C203 H189 0.929 1_556 S
C203 C202 1.399 . S
C203 C204 1.385 . S
C204 H190 0.931 . S
C204 C203 1.385 . S
C204 C205 1.389 . S
C205 C204 1.389 . S
C205 C206 1.387 . S
C206 H191 0.930 . S
C206 C201 1.390 . S
C206 C205 1.387 . S
H207 C219 0.930 . S
H208 C221 0.930 . S
H209 C222 0.930 . S
H210 C226 0.959 1_556 S
H211 C226 0.959 . S
H212 C226 0.961 . S
H213 C227 0.960 . S
H214 C227 0.961 . S
H215 C227 0.959 . S
H216 C230 0.929 . S
H217 C231 0.931 . S
H218 C233 0.930 . S
C219 H207 0.930 . S
C219 C220 1.399 . S
C219 C224 1.399 1_554 S
C220 C219 1.399 . S
C220 C221 1.376 1_554 S
C221 H208 0.930 . S
C221 C220 1.376 1_556 S
C221 C222 1.388 . S
C222 H209 0.930 . S
C222 C221 1.388 . S
C222 C223 1.390 . S
C223 C222 1.390 . S
C223 C224 1.394 . S
C223 C229 1.465 . S
C224 C219 1.399 1_556 S
C224 C223 1.394 . S
C224 C225 1.516 . S
C225 C224 1.516 . S
C225 C226 1.502 1_556 S
C225 C227 1.561 1_556 S
C225 C228 1.526 . S
C226 H210 0.959 1_554 S
C226 H211 0.959 . S
C226 H212 0.961 . S
C226 C225 1.502 1_554 S
C227 H213 0.960 . S
C227 H214 0.961 . S
C227 H215 0.959 . S
C227 C225 1.561 1_554 S
C228 C225 1.526 . S
C228 C229 1.396 . S
C228 C233 1.390 . S
C229 C223 1.465 . S
C229 C228 1.396 . S
C229 C230 1.399 . S
C230 H216 0.929 . S
C230 C229 1.399 . S
C230 C231 1.385 . S
C231 H217 0.931 . S
C231 C230 1.385 . S
C231 C232 1.389 . S
C232 C231 1.389 . S
C232 C233 1.387 . S
C233 H218 0.930 . S
C233 C228 1.390 . S
C233 C232 1.387 . S
H234 C246 0.930 . S
H235 C248 0.930 1_554 S
H236 C249 0.930 . S
H237 C253 0.959 . S
H238 C253 0.959 . S
H239 C253 0.961 . S
H240 C254 0.960 1_545 S
H241 C254 0.961 . S
H242 C254 0.959 . S
H243 C257 0.929 . S
H244 C258 0.931 . S
H245 C260 0.930 . S
C246 H234 0.930 . S
C246 C247 1.399 . S
C246 C251 1.399 . S
C247 C246 1.399 . S
C247 C248 1.376 . S
C248 H235 0.930 1_556 S
C248 C247 1.376 . S
C248 C249 1.388 . S
C249 H236 0.930 . S
C249 C248 1.388 . S
C249 C250 1.390 . S
C250 C249 1.390 . S
C250 C251 1.394 . S
C250 C256 1.465 . S
C251 C246 1.399 . S
C251 C250 1.394 . S
C251 C252 1.516 . S
C252 C251 1.516 . S
C252 C253 1.502 . S
C252 C254 1.561 . S
C252 C255 1.526 . S
C253 H237 0.959 . S
C253 H238 0.959 . S
C253 H239 0.961 . S
C253 C252 1.502 . S
C254 H240 0.960 1_565 S
C254 H241 0.961 . S
C254 H242 0.959 . S
C254 C252 1.561 . S
C255 C252 1.526 . S
C255 C256 1.396 . S
C255 C260 1.390 . S
C256 C250 1.465 . S
C256 C255 1.396 . S
C256 C257 1.399 . S
C257 H243 0.929 . S
C257 C256 1.399 . S
C257 C258 1.385 . S
C258 H244 0.931 . S
C258 C257 1.385 . S
C258 C259 1.389 . S
C259 C258 1.389 . S
C259 C260 1.387 . S
C260 H245 0.930 . S
C260 C255 1.390 . S
C260 C259 1.387 . S
H261 C273 0.930 . S
H262 C275 0.930 . S
H263 C276 0.930 . S
H264 C280 0.959 . S
H265 C280 0.959 . S
H266 C280 0.961 . S
H267 C281 0.960 . S
H268 C281 0.961 . S
H269 C281 0.959 . S
H270 C284 0.929 . S
H271 C285 0.931 1_556 S
H272 C287 0.930 . S
C273 H261 0.930 . S
C273 C274 1.399 . S
C273 C278 1.399 . S
C274 C273 1.399 . S
C274 C275 1.376 . S
C275 H262 0.930 . S
C275 C274 1.376 . S
C275 C276 1.388 . S
C276 H263 0.930 . S
C276 C275 1.388 . S
C276 C277 1.390 . S
C277 C276 1.390 . S
C277 C278 1.394 . S
C277 C283 1.465 . S
C278 C273 1.399 . S
C278 C277 1.394 . S
C278 C279 1.516 . S
C279 C278 1.516 . S
C279 C280 1.502 . S
C279 C281 1.561 . S
C279 C282 1.526 . S
C280 H264 0.959 . S
C280 H265 0.959 . S
C280 H266 0.961 . S
C280 C279 1.502 . S
C281 H267 0.960 . S
C281 H268 0.961 . S
C281 H269 0.959 . S
C281 C279 1.561 . S
C282 C279 1.526 . S
C282 C283 1.396 . S
C282 C287 1.390 . S
C283 C277 1.465 . S
C283 C282 1.396 . S
C283 C284 1.399 . S
C284 H270 0.929 . S
C284 C283 1.399 . S
C284 C285 1.385 . S
C285 H271 0.931 1_554 S
C285 C284 1.385 . S
C285 C286 1.389 . S
C286 C285 1.389 . S
C286 C287 1.387 . S
C287 H272 0.930 . S
C287 C282 1.390 . S
C287 C286 1.387 . S
H288 C300 0.930 . S
H289 C302 0.930 . S
H290 C303 0.930 . S
H291 C307 0.959 . S
H292 C307 0.959 . S
H293 C307 0.961 . S
H294 C308 0.960 . S
H295 C308 0.961 . S
H296 C308 0.959 . S
H297 C311 0.929 . S
H298 C312 0.931 . S
H299 C314 0.930 . S
C300 H288 0.930 . S
C300 C301 1.399 . S
C300 C305 1.399 . S
C301 C300 1.399 . S
C301 C302 1.376 . S
C302 H289 0.930 . S
C302 C301 1.376 . S
C302 C303 1.388 . S
C303 H290 0.930 . S
C303 C302 1.388 . S
C303 C304 1.390 . S
C304 C303 1.390 . S
C304 C305 1.394 . S
C304 C310 1.465 . S
C305 C300 1.399 . S
C305 C304 1.394 . S
C305 C306 1.516 . S
C306 C305 1.516 . S
C306 C307 1.502 . S
C306 C308 1.561 . S
C306 C309 1.526 . S
C307 H291 0.959 . S
C307 H292 0.959 . S
C307 H293 0.961 . S
C307 C306 1.502 . S
C308 H294 0.960 . S
C308 H295 0.961 . S
C308 H296 0.959 . S
C308 C306 1.561 . S
C309 C306 1.526 . S
C309 C310 1.396 . S
C309 C314 1.390 . S
C310 C304 1.465 . S
C310 C309 1.396 . S
C310 C311 1.399 . S
C311 H297 0.929 . S
C311 C310 1.399 . S
C311 C312 1.385 . S
C312 H298 0.931 . S
C312 C311 1.385 . S
C312 C313 1.389 . S
C313 C312 1.389 . S
C313 C314 1.387 . S
C314 H299 0.930 . S
C314 C309 1.390 . S
C314 C313 1.387 . S
H315 C327 0.930 . S
H316 C329 0.930 . S
H317 C330 0.930 . S
H318 C334 0.959 . S
H319 C334 0.959 . S
H320 C334 0.961 . S
H321 C335 0.960 1_556 S
H322 C335 0.961 . S
H323 C335 0.959 . S
H324 C338 0.929 . S
H325 C339 0.931 . S
H326 C341 0.930 . S
C327 H315 0.930 . S
C327 C328 1.399 . S
C327 C332 1.399 . S
C328 C327 1.399 . S
C328 C329 1.376 . S
C329 H316 0.930 . S
C329 C328 1.376 . S
C329 C330 1.388 . S
C330 H317 0.930 . S
C330 C329 1.388 . S
C330 C331 1.390 . S
C331 C330 1.390 . S
C331 C332 1.394 . S
C331 C337 1.465 . S
C332 C327 1.399 . S
C332 C331 1.394 . S
C332 C333 1.516 . S
C333 C332 1.516 . S
C333 C334 1.502 . S
C333 C335 1.561 . S
C333 C336 1.526 . S
C334 H318 0.959 . S
C334 H319 0.959 . S
C334 H320 0.961 . S
C334 C333 1.502 . S
C335 H321 0.960 1_554 S
C335 H322 0.961 . S
C335 H323 0.959 . S
C335 C333 1.561 . S
C336 C333 1.526 . S
C336 C337 1.396 . S
C336 C341 1.390 . S
C337 C331 1.465 . S
C337 C336 1.396 . S
C337 C338 1.399 . S
C338 H324 0.929 . S
C338 C337 1.399 . S
C338 C339 1.385 . S
C339 H325 0.931 . S
C339 C338 1.385 . S
C339 C340 1.389 . S
C340 C339 1.389 . S
C340 C341 1.387 . S
C341 H326 0.930 . S
C341 C336 1.390 . S
C341 C340 1.387 . S
H342 C354 0.930 . S
H343 C356 0.930 . S
H344 C357 0.930 . S
H345 C361 0.959 . S
H346 C361 0.959 . S
H347 C361 0.961 . S
H348 C362 0.960 . S
H349 C362 0.961 . S
H350 C362 0.959 . S
H351 C365 0.929 . S
H352 C366 0.931 . S
H353 C368 0.930 . S
C354 H342 0.930 . S
C354 C355 1.399 . S
C354 C359 1.399 1_455 S
C355 C354 1.399 . S
C355 C356 1.376 . S
C356 H343 0.930 . S
C356 C355 1.376 . S
C356 C357 1.388 . S
C357 H344 0.930 . S
C357 C356 1.388 . S
C357 C358 1.390 1_455 S
C358 C357 1.390 1_655 S
C358 C359 1.394 . S
C358 C364 1.465 . S
C359 C354 1.399 1_655 S
C359 C358 1.394 . S
C359 C360 1.516 . S
C360 C359 1.516 . S
C360 C361 1.502 . S
C360 C362 1.561 . S
C360 C363 1.526 . S
C361 H345 0.959 . S
C361 H346 0.959 . S
C361 H347 0.961 . S
C361 C360 1.502 . S
C362 H348 0.960 . S
C362 H349 0.961 . S
C362 H350 0.959 . S
C362 C360 1.561 . S
C363 C360 1.526 . S
C363 C364 1.396 . S
C363 C368 1.390 . S
C364 C358 1.465 . S
C364 C363 1.396 . S
C364 C365 1.399 . S
C365 H351 0.929 . S
C365 C364 1.399 . S
C365 C366 1.385 . S
C366 H352 0.931 . S
C366 C365 1.385 . S
C366 C367 1.389 . S
C367 C366 1.389 . S
C367 C368 1.387 . S
C368 H353 0.930 . S
C368 C363 1.390 . S
C368 C367 1.387 . S
H369 C381 0.930 . S
H370 C383 0.930 . S
H371 C384 0.930 . S
H372 C388 0.959 . S
H373 C388 0.959 . S
H374 C388 0.961 . S
H375 C389 0.960 . S
H376 C389 0.961 . S
H377 C389 0.959 . S
H378 C392 0.929 . S
H379 C393 0.931 . S
H380 C395 0.930 . S
C381 H369 0.930 . S
C381 C382 1.399 . S
C381 C386 1.399 . S
C382 C381 1.399 . S
C382 C383 1.376 . S
C383 H370 0.930 . S
C383 C382 1.376 . S
C383 C384 1.388 . S
C384 H371 0.930 . S
C384 C383 1.388 . S
C384 C385 1.390 . S
C385 C384 1.390 . S
C385 C386 1.394 . S
C385 C391 1.465 . S
C386 C381 1.399 . S
C386 C385 1.394 . S
C386 C387 1.516 . S
C387 C386 1.516 . S
C387 C388 1.502 . S
C387 C389 1.561 . S
C387 C390 1.526 . S
C388 H372 0.959 . S
C388 H373 0.959 . S
C388 H374 0.961 . S
C388 C387 1.502 . S
C389 H375 0.960 . S
C389 H376 0.961 . S
C389 H377 0.959 . S
C389 C387 1.561 . S
C390 C387 1.526 . S
C390 C391 1.396 . S
C390 C395 1.390 . S
C391 C385 1.465 . S
C391 C390 1.396 . S
C391 C392 1.399 . S
C392 H378 0.929 . S
C392 C391 1.399 . S
C392 C393 1.385 . S
C393 H379 0.931 . S
C393 C392 1.385 . S
C393 C394 1.389 . S
C394 C393 1.389 . S
C394 C395 1.387 . S
C395 H380 0.930 . S
C395 C390 1.390 . S
C395 C394 1.387 . S
H396 C408 0.930 . S
H397 C410 0.930 . S
H398 C411 0.930 . S
H399 C415 0.959 . S
H400 C415 0.959 . S
H401 C415 0.961 . S
H402 C416 0.960 . S
H403 C416 0.961 . S
H404 C416 0.959 . S
H405 C419 0.929 . S
H406 C420 0.931 . S
H407 C422 0.930 . S
C408 H396 0.930 . S
C408 C409 1.399 . S
C408 C413 1.399 . S
C409 C408 1.399 . S
C409 C410 1.376 . S
C410 H397 0.930 . S
C410 C409 1.376 . S
C410 C411 1.388 . S
C411 H398 0.930 . S
C411 C410 1.388 . S
C411 C412 1.390 . S
C412 C411 1.390 . S
C412 C413 1.394 . S
C412 C418 1.465 1_545 S
C413 C408 1.399 . S
C413 C412 1.394 . S
C413 C414 1.516 . S
C414 C413 1.516 . S
C414 C415 1.502 . S
C414 C416 1.561 . S
C414 C417 1.526 1_545 S
C415 H399 0.959 . S
C415 H400 0.959 . S
C415 H401 0.961 . S
C415 C414 1.502 . S
C416 H402 0.960 . S
C416 H403 0.961 . S
C416 H404 0.959 . S
C416 C414 1.561 . S
C417 C414 1.526 1_565 S
C417 C418 1.396 . S
C417 C422 1.390 . S
C418 C412 1.465 1_565 S
C418 C417 1.396 . S
C418 C419 1.399 . S
C419 H405 0.929 . S
C419 C418 1.399 . S
C419 C420 1.385 . S
C420 H406 0.931 . S
C420 C419 1.385 . S
C420 C421 1.389 . S
C421 C420 1.389 . S
C421 C422 1.387 . S
C422 H407 0.930 . S
C422 C417 1.390 . S
C422 C421 1.387 . S
H423 C435 0.930 . S
H424 C437 0.930 1_556 S
H425 C438 0.930 1_556 S
H426 C442 0.959 . S
H427 C442 0.959 . S
H428 C442 0.961 . S
H429 C443 0.960 . S
H430 C443 0.961 . S
H431 C443 0.959 . S
H432 C446 0.929 1_556 S
H433 C447 0.931 1_556 S
H434 C449 0.930 . S
C435 H423 0.930 . S
C435 C436 1.399 . S
C435 C440 1.399 . S
C436 C435 1.399 . S
C436 C437 1.376 . S
C437 H424 0.930 1_554 S
C437 C436 1.376 . S
C437 C438 1.388 . S
C438 H425 0.930 1_554 S
C438 C437 1.388 . S
C438 C439 1.390 . S
C439 C438 1.390 . S
C439 C440 1.394 . S
C439 C445 1.465 . S
C440 C435 1.399 . S
C440 C439 1.394 . S
C440 C441 1.516 . S
C441 C440 1.516 . S
C441 C442 1.502 . S
C441 C443 1.561 . S
C441 C444 1.526 . S
C442 H426 0.959 . S
C442 H427 0.959 . S
C442 H428 0.961 . S
C442 C441 1.502 . S
C443 H429 0.960 . S
C443 H430 0.961 . S
C443 H431 0.959 . S
C443 C441 1.561 . S
C444 C441 1.526 . S
C444 C445 1.396 . S
C444 C449 1.390 . S
C445 C439 1.465 . S
C445 C444 1.396 . S
C445 C446 1.399 . S
C446 H432 0.929 1_554 S
C446 C445 1.399 . S
C446 C447 1.385 . S
C447 H433 0.931 1_554 S
C447 C446 1.385 . S
C447 C448 1.389 . S
C448 C447 1.389 . S
C448 C449 1.387 . S
C449 H434 0.930 . S
C449 C444 1.390 . S
C449 C448 1.387 . S
H450 C462 0.930 . S
H451 C464 0.930 . S
H452 C465 0.930 . S
H453 C469 0.959 . S
H454 C469 0.959 . S
H455 C469 0.961 . S
H456 C470 0.960 . S
H457 C470 0.961 . S
H458 C470 0.959 . S
H459 C473 0.929 . S
H460 C474 0.931 1_556 S
H461 C476 0.930 . S
C462 H450 0.930 . S
C462 C463 1.399 . S
C462 C467 1.399 1_565 S
C463 C462 1.399 . S
C463 C464 1.376 1_554 S
C464 H451 0.930 . S
C464 C463 1.376 1_556 S
C464 C465 1.388 . S
C465 H452 0.930 . S
C465 C464 1.388 . S
C465 C466 1.390 1_566 S
C466 C465 1.390 1_544 S
C466 C467 1.394 . S
C466 C472 1.465 . S
C467 C462 1.399 1_545 S
C467 C466 1.394 . S
C467 C468 1.516 . S
C468 C467 1.516 . S
C468 C469 1.502 . S
C468 C470 1.561 . S
C468 C471 1.526 . S
C469 H453 0.959 . S
C469 H454 0.959 . S
C469 H455 0.961 . S
C469 C468 1.502 . S
C470 H456 0.960 . S
C470 H457 0.961 . S
C470 H458 0.959 . S
C470 C468 1.561 . S
C471 C468 1.526 . S
C471 C472 1.396 . S
C471 C476 1.390 . S
C472 C466 1.465 . S
C472 C471 1.396 . S
C472 C473 1.399 1_554 S
C473 H459 0.929 . S
C473 C472 1.399 1_556 S
C473 C474 1.385 1_556 S
C474 H460 0.931 1_554 S
C474 C473 1.385 1_554 S
C474 C475 1.389 . S
C475 C474 1.389 . S
C475 C476 1.387 . S
C476 H461 0.930 . S
C476 C471 1.390 . S
C476 C475 1.387 . S
H477 C489 0.930 . S
H478 C491 0.930 1_556 S
H479 C492 0.930 . S
H480 C496 0.959 . S
H481 C496 0.959 1_545 S
H482 C496 0.961 . S
H483 C497 0.960 . S
H484 C497 0.961 . S
H485 C497 0.959 . S
H486 C500 0.929 . S
H487 C501 0.931 . S
H488 C503 0.930 . S
C489 H477 0.930 . S
C489 C490 1.399 . S
C489 C494 1.399 . S
C490 C489 1.399 . S
C490 C491 1.376 . S
C491 H478 0.930 1_554 S
C491 C490 1.376 . S
C491 C492 1.388 1_554 S
C492 H479 0.930 . S
C492 C491 1.388 1_556 S
C492 C493 1.390 1_556 S
C493 C492 1.390 1_554 S
C493 C494 1.394 . S
C493 C499 1.463 1_654 S
C494 C489 1.399 . S
C494 C493 1.394 . S
C494 C495 1.516 1_655 S
C495 C494 1.516 1_455 S
C495 C496 1.502 . S
C495 C497 1.561 . S
C495 C498 1.526 . S
C496 H480 0.959 . S
C496 H481 0.959 1_565 S
C496 H482 0.961 . S
C496 C495 1.502 . S
C497 H483 0.960 . S
C497 H484 0.961 . S
C497 H485 0.959 . S
C497 C495 1.561 . S
C498 C495 1.526 . S
C498 C499 1.392 1_554 S
C498 C503 1.390 . S
C499 C493 1.463 1_456 S
C499 C498 1.392 1_556 S
C499 C500 1.404 . S
C500 H486 0.929 . S
C500 C499 1.404 . S
C500 C501 1.385 . S
C501 H487 0.931 . S
C501 C500 1.385 . S
C501 C502 1.389 . S
C502 C501 1.389 . S
C502 C503 1.387 1_556 S
C503 H488 0.930 . S
C503 C498 1.390 . S
C503 C502 1.387 1_554 S
H504 C516 0.930 . S
H505 C518 0.930 . S
H506 C519 0.930 . S
H507 C523 0.959 . S
H508 C523 0.959 . S
H509 C523 0.961 . S
H510 C524 0.960 . S
H511 C524 0.961 . S
H512 C524 0.959 . S
H513 C527 0.929 . S
H514 C528 0.931 . S
H515 C530 0.930 . S
C516 H504 0.930 . S
C516 C517 1.399 . S
C516 C521 1.399 . S
C517 C516 1.399 . S
C517 C518 1.376 . S
C518 H505 0.930 . S
C518 C517 1.376 . S
C518 C519 1.388 . S
C519 H506 0.930 . S
C519 C518 1.388 . S
C519 C520 1.390 . S
C520 C519 1.390 . S
C520 C521 1.394 . S
C520 C526 1.465 . S
C521 C516 1.399 . S
C521 C520 1.394 . S
C521 C522 1.516 . S
C522 C521 1.516 . S
C522 C523 1.502 . S
C522 C524 1.561 . S
C522 C525 1.526 . S
C523 H507 0.959 . S
C523 H508 0.959 . S
C523 H509 0.961 . S
C523 C522 1.502 . S
C524 H510 0.960 . S
C524 H511 0.961 . S
C524 H512 0.959 . S
C524 C522 1.561 . S
C525 C522 1.526 . S
C525 C526 1.396 . S
C525 C530 1.390 . S
C526 C520 1.465 . S
C526 C525 1.396 . S
C526 C527 1.399 . S
C527 H513 0.929 . S
C527 C526 1.399 . S
C527 C528 1.385 . S
C528 H514 0.931 . S
C528 C527 1.385 . S
C528 C529 1.389 . S
C529 C528 1.389 . S
C529 C530 1.387 . S
C530 H515 0.930 . S
C530 C525 1.390 . S
C530 C529 1.387 . S
H531 C543 0.930 . S
H532 C545 0.930 . S
H533 C546 0.930 . S
H534 C550 0.959 . S
H535 C550 0.959 . S
H536 C550 0.961 . S
H537 C551 0.960 . S
H538 C551 0.961 . S
H539 C551 0.959 . S
H540 C554 0.929 . S
H541 C555 0.931 . S
H542 C557 0.930 . S
C543 H531 0.930 . S
C543 C544 1.399 . S
C543 C548 1.399 . S
C544 C543 1.399 . S
C544 C545 1.376 . S
C545 H532 0.930 . S
C545 C544 1.376 . S
C545 C546 1.388 . S
C546 H533 0.930 . S
C546 C545 1.388 . S
C546 C547 1.390 . S
C547 C546 1.390 . S
C547 C548 1.394 . S
C547 C553 1.465 . S
C548 C543 1.399 . S
C548 C547 1.394 . S
C548 C549 1.516 . S
C549 C548 1.516 . S
C549 C550 1.502 . S
C549 C551 1.561 . S
C549 C552 1.526 . S
C550 H534 0.959 . S
C550 H535 0.959 . S
C550 H536 0.961 . S
C550 C549 1.502 . S
C551 H537 0.960 . S
C551 H538 0.961 . S
C551 H539 0.959 . S
C551 C549 1.561 . S
C552 C549 1.526 . S
C552 C553 1.396 . S
C552 C557 1.390 . S
C553 C547 1.465 . S
C553 C552 1.396 . S
C553 C554 1.399 . S
C554 H540 0.929 . S
C554 C553 1.399 . S
C554 C555 1.385 . S
C555 H541 0.931 . S
C555 C554 1.385 . S
C555 C556 1.389 . S
C556 C555 1.389 . S
C556 C557 1.387 . S
C557 H542 0.930 . S
C557 C552 1.390 . S
C557 C556 1.387 . S
H558 C570 0.930 . S
H559 C572 0.930 . S
H560 C573 0.930 . S
H561 C577 0.959 . S
H562 C577 0.959 . S
H563 C577 0.961 . S
H564 C578 0.960 . S
H565 C578 0.961 . S
H566 C578 0.959 . S
H567 C581 0.929 . S
H568 C582 0.931 . S
H569 C584 0.930 . S
C570 H558 0.930 . S
C570 C571 1.399 . S
C570 C575 1.399 . S
C571 C570 1.399 . S
C571 C572 1.376 . S
C572 H559 0.930 . S
C572 C571 1.376 . S
C572 C573 1.388 . S
C573 H560 0.930 . S
C573 C572 1.388 . S
C573 C574 1.390 . S
C574 C573 1.390 . S
C574 C575 1.394 . S
C574 C580 1.465 . S
C575 C570 1.399 . S
C575 C574 1.394 . S
C575 C576 1.516 . S
C576 C575 1.516 . S
C576 C577 1.502 . S
C576 C578 1.561 . S
C576 C579 1.526 . S
C577 H561 0.959 . S
C577 H562 0.959 . S
C577 H563 0.961 . S
C577 C576 1.502 . S
C578 H564 0.960 . S
C578 H565 0.961 . S
C578 H566 0.959 . S
C578 C576 1.561 . S
C579 C576 1.526 . S
C579 C580 1.396 . S
C579 C584 1.390 . S
C580 C574 1.465 . S
C580 C579 1.396 . S
C580 C581 1.399 . S
C581 H567 0.929 . S
C581 C580 1.399 . S
C581 C582 1.385 . S
C582 H568 0.931 . S
C582 C581 1.385 . S
C582 C583 1.389 . S
C583 C582 1.389 . S
C583 C584 1.387 . S
C584 H569 0.930 . S
C584 C579 1.390 . S
C584 C583 1.387 . S
H585 C597 0.930 . S
H586 C599 0.930 . S
H587 C600 0.930 . S
H588 C604 0.959 . S
H589 C604 0.959 . S
H590 C604 0.961 . S
H591 C605 0.960 . S
H592 C605 0.961 . S
H593 C605 0.959 . S
H594 C608 0.929 . S
H595 C609 0.931 . S
H596 C611 0.930 . S
C597 H585 0.930 . S
C597 C598 1.399 . S
C597 C602 1.399 . S
C598 C597 1.399 . S
C598 C599 1.376 . S
C599 H586 0.930 . S
C599 C598 1.376 . S
C599 C600 1.388 . S
C600 H587 0.930 . S
C600 C599 1.388 . S
C600 C601 1.390 . S
C601 C600 1.390 . S
C601 C602 1.394 . S
C601 C607 1.465 . S
C602 C597 1.399 . S
C602 C601 1.394 . S
C602 C603 1.516 . S
C603 C602 1.516 . S
C603 C604 1.502 . S
C603 C605 1.561 . S
C603 C606 1.526 . S
C604 H588 0.959 . S
C604 H589 0.959 . S
C604 H590 0.961 . S
C604 C603 1.502 . S
C605 H591 0.960 . S
C605 H592 0.961 . S
C605 H593 0.959 . S
C605 C603 1.561 . S
C606 C603 1.526 . S
C606 C607 1.396 . S
C606 C611 1.390 . S
C607 C601 1.465 . S
C607 C606 1.396 . S
C607 C608 1.399 . S
C608 H594 0.929 . S
C608 C607 1.399 . S
C608 C609 1.385 . S
C609 H595 0.931 . S
C609 C608 1.385 . S
C609 C610 1.389 . S
C610 C609 1.389 . S
C610 C611 1.387 . S
C611 H596 0.930 . S
C611 C606 1.390 . S
C611 C610 1.387 . S
H612 C624 0.930 . S
H613 C626 0.930 . S
H614 C627 0.930 . S
H615 C631 0.959 . S
H616 C631 0.959 . S
H617 C631 0.961 . S
H618 C632 0.960 . S
H619 C632 0.961 . S
H620 C632 0.959 . S
H621 C635 0.929 . S
H622 C636 0.931 . S
H623 C638 0.930 . S
C624 H612 0.930 . S
C624 C625 1.399 . S
C624 C629 1.399 . S
C625 C624 1.399 . S
C625 C626 1.376 . S
C626 H613 0.930 . S
C626 C625 1.376 . S
C626 C627 1.388 . S
C627 H614 0.930 . S
C627 C626 1.388 . S
C627 C628 1.390 . S
C628 C627 1.390 . S
C628 C629 1.394 . S
C628 C634 1.465 . S
C629 C624 1.399 . S
C629 C628 1.394 . S
C629 C630 1.516 . S
C630 C629 1.516 . S
C630 C631 1.502 . S
C630 C632 1.561 . S
C630 C633 1.526 . S
C631 H615 0.959 . S
C631 H616 0.959 . S
C631 H617 0.961 . S
C631 C630 1.502 . S
C632 H618 0.960 . S
C632 H619 0.961 . S
C632 H620 0.959 . S
C632 C630 1.561 . S
C633 C630 1.526 . S
C633 C634 1.396 . S
C633 C638 1.390 . S
C634 C628 1.465 . S
C634 C633 1.396 . S
C634 C635 1.399 . S
C635 H621 0.929 . S
C635 C634 1.399 . S
C635 C636 1.385 . S
C636 H622 0.931 . S
C636 C635 1.385 . S
C636 C637 1.389 . S
C637 C636 1.389 . S
C637 C638 1.387 . S
C638 H623 0.930 . S
C638 C633 1.390 . S
C638 C637 1.387 . S
H639 C651 0.930 . S
H640 C653 0.930 . S
H641 C654 0.930 . S
H642 C658 0.959 . S
H643 C658 0.959 . S
H644 C658 0.961 . S
H645 C659 0.960 . S
H646 C659 0.961 . S
H647 C659 0.959 . S
H648 C662 0.929 . S
H649 C663 0.931 . S
H650 C665 0.930 . S
C651 H639 0.930 . S
C651 C652 1.399 . S
C651 C656 1.399 . S
C652 C651 1.399 . S
C652 C653 1.376 . S
C653 H640 0.930 . S
C653 C652 1.376 . S
C653 C654 1.388 . S
C654 H641 0.930 . S
C654 C653 1.388 . S
C654 C655 1.390 . S
C655 C654 1.390 . S
C655 C656 1.394 . S
C655 C661 1.465 . S
C656 C651 1.399 . S
C656 C655 1.394 . S
C656 C657 1.516 . S
C657 C656 1.516 . S
C657 C658 1.502 . S
C657 C659 1.561 . S
C657 C660 1.526 . S
C658 H642 0.959 . S
C658 H643 0.959 . S
C658 H644 0.961 . S
C658 C657 1.502 . S
C659 H645 0.960 . S
C659 H646 0.961 . S
C659 H647 0.959 . S
C659 C657 1.561 . S
C660 C657 1.526 . S
C660 C661 1.396 . S
C660 C665 1.390 . S
C661 C655 1.465 . S
C661 C660 1.396 . S
C661 C662 1.399 . S
C662 H648 0.929 . S
C662 C661 1.399 . S
C662 C663 1.385 . S
C663 H649 0.931 . S
C663 C662 1.385 . S
C663 C664 1.389 . S
C664 C663 1.389 . S
C664 C665 1.387 . S
C665 H650 0.930 . S
C665 C660 1.390 . S
C665 C664 1.387 . S
H666 C678 0.930 . S
H667 C680 0.930 . S
H668 C681 0.930 . S
H669 C685 0.938 1_655 S
H670 C685 0.958 . S
H671 C685 0.966 . S
H672 C686 0.960 . S
H673 C686 0.961 . S
H674 C686 0.959 . S
H675 C689 0.929 . S
H676 C690 0.931 . S
H677 C692 0.930 . S
C678 H666 0.930 . S
C678 C679 1.399 . S
C678 C683 1.399 . S
C679 C678 1.399 . S
C679 C680 1.376 . S
C680 H667 0.930 . S
C680 C679 1.376 . S
C680 C681 1.388 . S
C681 H668 0.930 . S
C681 C680 1.388 . S
C681 C682 1.390 . S
C682 C681 1.390 . S
C682 C683 1.394 . S
C682 C688 1.465 . S
C683 C678 1.399 . S
C683 C682 1.394 . S
C683 C684 1.516 . S
C684 C683 1.516 . S
C684 C685 1.538 . S
C684 C686 1.561 . S
C684 C687 1.526 . S
C685 H669 0.938 1_455 S
C685 H670 0.958 . S
C685 H671 0.966 . S
C685 C684 1.538 . S
C686 H672 0.960 . S
C686 H673 0.961 . S
C686 H674 0.959 . S
C686 C684 1.561 . S
C687 C684 1.526 . S
C687 C688 1.396 . S
C687 C692 1.390 . S
C688 C682 1.465 . S
C688 C687 1.396 . S
C688 C689 1.399 . S
C689 H675 0.929 . S
C689 C688 1.399 . S
C689 C690 1.385 . S
C690 H676 0.931 . S
C690 C689 1.385 . S
C690 C691 1.389 . S
C691 C690 1.389 . S
C691 C692 1.387 . S
C692 H677 0.930 . S
C692 C687 1.390 . S
C692 C691 1.387 . S
H693 C705 0.930 . S
H694 C707 0.930 . S
H695 C708 0.930 . S
H696 C712 0.959 . S
H697 C712 0.959 . S
H698 C712 0.961 . S
H699 C713 0.960 . S
H700 C713 0.961 . S
H701 C713 0.959 . S
H702 C716 0.929 . S
H703 C717 0.931 . S
H704 C719 0.930 . S
C705 H693 0.930 . S
C705 C706 1.399 . S
C705 C710 1.399 . S
C706 C705 1.399 . S
C706 C707 1.376 . S
C707 H694 0.930 . S
C707 C706 1.376 . S
C707 C708 1.388 . S
C708 H695 0.930 . S
C708 C707 1.388 . S
C708 C709 1.390 . S
C709 C708 1.390 . S
C709 C710 1.394 . S
C709 C715 1.465 . S
C710 C705 1.399 . S
C710 C709 1.394 . S
C710 C711 1.516 . S
C711 C710 1.516 . S
C711 C712 1.502 . S
C711 C713 1.561 . S
C711 C714 1.526 . S
C712 H696 0.959 . S
C712 H697 0.959 . S
C712 H698 0.961 . S
C712 C711 1.502 . S
C713 H699 0.960 . S
C713 H700 0.961 . S
C713 H701 0.959 . S
C713 C711 1.561 . S
C714 C711 1.526 . S
C714 C715 1.396 . S
C714 C719 1.390 . S
C715 C709 1.465 . S
C715 C714 1.396 . S
C715 C716 1.399 . S
C716 H702 0.929 . S
C716 C715 1.399 . S
C716 C717 1.385 . S
C717 H703 0.931 . S
C717 C716 1.385 . S
C717 C718 1.389 . S
C718 C717 1.389 . S
C718 C719 1.387 . S
C719 H704 0.930 . S
C719 C714 1.390 . S
C719 C718 1.387 . S
H720 C732 0.930 . S
H721 C734 0.930 . S
H722 C735 0.930 . S
H723 C739 0.959 . S
H724 C739 0.959 . S
H725 C739 0.961 . S
H726 C740 0.960 . S
H727 C740 0.961 . S
H728 C740 0.959 . S
H729 C743 0.929 . S
H730 C744 0.931 . S
H731 C746 0.930 . S
C732 H720 0.930 . S
C732 C733 1.399 1_565 S
C732 C737 1.399 . S
C733 C732 1.399 1_545 S
C733 C734 1.376 . S
C734 H721 0.930 . S
C734 C733 1.376 . S
C734 C735 1.388 . S
C735 H722 0.930 . S
C735 C734 1.388 . S
C735 C736 1.390 . S
C736 C735 1.390 . S
C736 C737 1.394 1_545 S
C736 C742 1.465 . S
C737 C732 1.399 . S
C737 C736 1.394 1_565 S
C737 C738 1.516 . S
C738 C737 1.516 . S
C738 C739 1.502 . S
C738 C740 1.561 . S
C738 C741 1.544 . S
C739 H723 0.959 . S
C739 H724 0.959 . S
C739 H725 0.961 . S
C739 C738 1.502 . S
C740 H726 0.960 . S
C740 H727 0.961 . S
C740 H728 0.959 . S
C740 C738 1.561 . S
C741 C738 1.544 . S
C741 C742 1.372 1_565 S
C741 C746 1.393 . S
C742 C736 1.465 . S
C742 C741 1.372 1_545 S
C742 C743 1.399 . S
C743 H729 0.929 . S
C743 C742 1.399 . S
C743 C744 1.385 . S
C744 H730 0.931 . S
C744 C743 1.385 . S
C744 C745 1.389 . S
C745 C744 1.389 . S
C745 C746 1.387 1_545 S
C746 H731 0.930 . S
C746 C741 1.393 . S
C746 C745 1.387 1_565 S
H747 C759 0.930 . S
H748 C761 0.930 . S
H749 C762 0.930 . S
H750 C766 0.959 . S
H751 C766 0.959 . S
H752 C766 0.961 . S
H753 C767 0.960 . S
H754 C767 0.961 . S
H755 C767 0.959 . S
H756 C770 0.929 . S
H757 C771 0.931 1_554 S
H758 C773 0.929 1_554 S
C759 H747 0.930 . S
C759 C760 1.399 . S
C759 C764 1.399 . S
C760 C759 1.399 . S
C760 C761 1.376 . S
C761 H748 0.930 . S
C761 C760 1.376 . S
C761 C762 1.388 . S
C762 H749 0.930 . S
C762 C761 1.388 . S
C762 C763 1.390 . S
C763 C762 1.390 . S
C763 C764 1.394 . S
C763 C769 1.465 . S
C764 C759 1.399 . S
C764 C763 1.394 . S
C764 C765 1.516 . S
C765 C764 1.516 . S
C765 C766 1.502 . S
C765 C767 1.561 . S
C765 C768 1.526 . S
C766 H750 0.959 . S
C766 H751 0.959 . S
C766 H752 0.961 . S
C766 C765 1.502 . S
C767 H753 0.960 . S
C767 H754 0.961 . S
C767 H755 0.959 . S
C767 C765 1.561 . S
C768 C765 1.526 . S
C768 C769 1.396 . S
C768 C773 1.392 . S
C769 C763 1.465 . S
C769 C768 1.396 . S
C769 C770 1.399 . S
C770 H756 0.929 . S
C770 C769 1.399 . S
C770 C771 1.385 . S
C771 H757 0.931 1_556 S
C771 C770 1.385 . S
C771 C772 1.389 1_556 S
C772 C771 1.389 1_554 S
C772 C773 1.385 1_554 S
C773 H758 0.929 1_556 S
C773 C768 1.392 . S
C773 C772 1.385 1_556 S
H774 C786 0.930 . S
H775 C788 0.930 . S
H776 C789 0.930 . S
H777 C793 0.959 . S
H778 C793 0.959 . S
H779 C793 0.961 . S
H780 C794 0.960 . S
H781 C794 0.961 . S
H782 C794 0.959 . S
H783 C797 0.929 . S
H784 C798 0.931 1_554 S
H785 C800 0.930 . S
C786 H774 0.930 . S
C786 C787 1.399 . S
C786 C791 1.399 . S
C787 C786 1.399 . S
C787 C788 1.376 . S
C788 H775 0.930 . S
C788 C787 1.376 . S
C788 C789 1.388 . S
C789 H776 0.930 . S
C789 C788 1.388 . S
C789 C790 1.390 . S
C790 C789 1.390 . S
C790 C791 1.394 . S
C790 C796 1.465 . S
C791 C786 1.399 . S
C791 C790 1.394 . S
C791 C792 1.516 . S
C792 C791 1.516 . S
C792 C793 1.502 . S
C792 C794 1.561 . S
C792 C795 1.526 . S
C793 H777 0.959 . S
C793 H778 0.959 . S
C793 H779 0.961 . S
C793 C792 1.502 . S
C794 H780 0.960 . S
C794 H781 0.961 . S
C794 H782 0.959 . S
C794 C792 1.561 . S
C795 C792 1.526 . S
C795 C796 1.396 . S
C795 C800 1.390 . S
C796 C790 1.465 . S
C796 C795 1.396 . S
C796 C797 1.399 . S
C797 H783 0.929 . S
C797 C796 1.399 . S
C797 C798 1.385 . S
C798 H784 0.931 1_556 S
C798 C797 1.385 . S
C798 C799 1.389 . S
C799 C798 1.389 . S
C799 C800 1.387 . S
C800 H785 0.930 . S
C800 C795 1.390 . S
C800 C799 1.387 . S
H801 C813 0.930 . S
H802 C815 0.930 . S
H803 C816 0.930 . S
H804 C820 0.959 . S
H805 C820 0.959 . S
H806 C820 0.961 . S
H807 C821 0.960 . S
H808 C821 0.961 . S
H809 C821 0.959 . S
H810 C824 0.929 . S
H811 C825 0.931 1_554 S
H812 C827 0.930 1_554 S
C813 H801 0.930 . S
C813 C814 1.399 . S
C813 C818 1.399 . S
C814 C813 1.399 . S
C814 C815 1.376 . S
C815 H802 0.930 . S
C815 C814 1.376 . S
C815 C816 1.388 . S
C816 H803 0.930 . S
C816 C815 1.388 . S
C816 C817 1.390 . S
C817 C816 1.390 . S
C817 C818 1.394 . S
C817 C823 1.465 . S
C818 C813 1.399 . S
C818 C817 1.394 . S
C818 C819 1.516 . S
C819 C818 1.516 . S
C819 C820 1.502 . S
C819 C821 1.561 . S
C819 C822 1.526 . S
C820 H804 0.959 . S
C820 H805 0.959 . S
C820 H806 0.961 . S
C820 C819 1.502 . S
C821 H807 0.960 . S
C821 H808 0.961 . S
C821 H809 0.959 . S
C821 C819 1.561 . S
C822 C819 1.526 . S
C822 C823 1.396 . S
C822 C827 1.390 . S
C823 C817 1.465 . S
C823 C822 1.396 . S
C823 C824 1.399 . S
C824 H810 0.929 . S
C824 C823 1.399 . S
C824 C825 1.385 . S
C825 H811 0.931 1_556 S
C825 C824 1.385 . S
C825 C826 1.389 1_556 S
C826 C825 1.389 1_554 S
C826 C827 1.387 1_554 S
C827 H812 0.930 1_556 S
C827 C822 1.390 . S
C827 C826 1.387 1_556 S
H828 C840 0.930 . S
H829 C842 0.930 . S
H830 C843 0.930 . S
H831 C847 0.959 . S
H832 C847 0.959 . S
H833 C847 0.961 . S
H834 C848 0.960 . S
H835 C848 0.961 . S
H836 C848 0.959 . S
H837 C851 0.929 . S
H838 C852 0.931 . S
H839 C854 0.930 . S
C840 H828 0.930 . S
C840 C841 1.399 . S
C840 C845 1.399 . S
C841 C840 1.399 . S
C841 C842 1.376 . S
C842 H829 0.930 . S
C842 C841 1.376 . S
C842 C843 1.388 . S
C843 H830 0.930 . S
C843 C842 1.388 . S
C843 C844 1.390 . S
C844 C843 1.390 . S
C844 C845 1.394 . S
C844 C850 1.465 . S
C845 C840 1.399 . S
C845 C844 1.394 . S
C845 C846 1.516 . S
C846 C845 1.516 . S
C846 C847 1.502 . S
C846 C848 1.561 . S
C846 C849 1.526 . S
C847 H831 0.959 . S
C847 H832 0.959 . S
C847 H833 0.961 . S
C847 C846 1.502 . S
C848 H834 0.960 . S
C848 H835 0.961 . S
C848 H836 0.959 . S
C848 C846 1.561 . S
C849 C846 1.526 . S
C849 C850 1.396 . S
C849 C854 1.390 1_554 S
C850 C844 1.465 . S
C850 C849 1.396 . S
C850 C851 1.399 . S
C851 H837 0.929 . S
C851 C850 1.399 . S
C851 C852 1.385 1_554 S
C852 H838 0.931 . S
C852 C851 1.385 1_556 S
C852 C853 1.389 . S
C853 C852 1.389 . S
C853 C854 1.387 . S
C854 H839 0.930 . S
C854 C849 1.390 1_556 S
C854 C853 1.387 . S
H855 C867 0.930 . S
H856 C869 0.930 1_556 S
H857 C870 0.930 . S
H858 C874 0.959 . S
H859 C874 0.959 . S
H860 C874 0.961 . S
H861 C875 0.960 . S
H862 C875 0.961 . S
H863 C875 0.959 . S
H864 C878 0.929 . S
H865 C879 0.931 . S
H866 C881 0.930 . S
C867 H855 0.930 . S
C867 C868 1.399 1_554 S
C867 C872 1.399 . S
C868 C867 1.399 1_556 S
C868 C869 1.376 1_556 S
C869 H856 0.930 1_554 S
C869 C868 1.376 1_554 S
C869 C870 1.388 . S
C870 H857 0.930 . S
C870 C869 1.388 . S
C870 C871 1.390 . S
C871 C870 1.390 . S
C871 C872 1.394 . S
C871 C877 1.465 . S
C872 C867 1.399 . S
C872 C871 1.394 . S
C872 C873 1.516 . S
C873 C872 1.516 . S
C873 C874 1.502 . S
C873 C875 1.561 . S
C873 C876 1.526 . S
C874 H858 0.959 . S
C874 H859 0.959 . S
C874 H860 0.961 . S
C874 C873 1.502 . S
C875 H861 0.960 . S
C875 H862 0.961 . S
C875 H863 0.959 . S
C875 C873 1.561 . S
C876 C873 1.526 . S
C876 C877 1.396 . S
C876 C881 1.390 . S
C877 C871 1.465 . S
C877 C876 1.396 . S
C877 C878 1.399 . S
C878 H864 0.929 . S
C878 C877 1.399 . S
C878 C879 1.385 . S
C879 H865 0.931 . S
C879 C878 1.385 . S
C879 C880 1.389 . S
C880 C879 1.389 . S
C880 C881 1.387 . S
C881 H866 0.930 . S
C881 C876 1.390 . S
C881 C880 1.387 . S
H882 C894 0.930 . S
H883 C896 0.930 . S
H884 C897 0.930 . S
H885 C901 0.959 . S
H886 C901 0.959 . S
H887 C901 0.961 . S
H888 C902 0.960 . S
H889 C902 0.961 . S
H890 C902 0.959 . S
H891 C905 0.929 . S
H892 C906 0.931 1_556 S
H893 C908 0.930 . S
C894 H882 0.930 . S
C894 C895 1.399 . S
C894 C899 1.399 . S
C895 C894 1.399 . S
C895 C896 1.376 . S
C896 H883 0.930 . S
C896 C895 1.376 . S
C896 C897 1.388 . S
C897 H884 0.930 . S
C897 C896 1.388 . S
C897 C898 1.390 . S
C898 C897 1.390 . S
C898 C899 1.394 . S
C898 C904 1.465 . S
C899 C894 1.399 . S
C899 C898 1.394 . S
C899 C900 1.516 . S
C900 C899 1.516 . S
C900 C901 1.502 . S
C900 C902 1.561 . S
C900 C903 1.526 . S
C901 H885 0.959 . S
C901 H886 0.959 . S
C901 H887 0.961 . S
C901 C900 1.502 . S
C902 H888 0.960 . S
C902 H889 0.961 . S
C902 H890 0.959 . S
C902 C900 1.561 . S
C903 C900 1.526 . S
C903 C904 1.396 . S
C903 C908 1.390 . S
C904 C898 1.465 . S
C904 C903 1.396 . S
C904 C905 1.399 . S
C905 H891 0.929 . S
C905 C904 1.399 . S
C905 C906 1.385 . S
C906 H892 0.931 1_554 S
C906 C905 1.385 . S
C906 C907 1.389 1_554 S
C907 C906 1.389 1_556 S
C907 C908 1.387 1_556 S
C908 H893 0.930 . S
C908 C903 1.390 . S
C908 C907 1.387 1_554 S
C193 C8 2.182 . S
C205 C148 2.127 . S
C220 C36 1.537 . S
C232 C176 1.569 . S
C247 C48 1.917 . S
C259 C136 1.778 . S
C274 C96 1.158 . S
C286 C56 1.243 . S
C301 C116 1.486 . S
C313 C16 1.373 . S
C328 C28 1.739 . S
C340 C76 1.680 . S
C355 C156 1.991 . S
C367 C108 2.091 . S
C382 C168 2.264 . S
C394 C68 2.228 . S
C409 C88 2.542 . S
C421 C128 2.473 . S
C436 C59 1.533 . S
C448 C6 1.562 . S
C463 C39 1.759 . S
C475 C19 1.674 . S
C490 C26 1.238 . S
C502 C46 1.299 . S
C517 C79 1.596 . S
C529 C106 1.649 . S
C544 C66 1.676 . S
C556 C99 1.556 . S
C571 C86 1.718 . S
C583 C119 1.610 . S
C598 C179 1.604 . S
C610 C126 1.693 . S
C625 C159 1.985 . S
C637 C139 1.967 . S
C652 C166 1.548 . S
C664 C146 1.519 . S
C679 C9 1.041 . S
C691 C1 1.118 . S
C706 C21 1.058 . S
C718 C29 1.082 . S
C733 C49 1.028 . S
C745 C41 1.091 . S
C760 C69 1.082 . S
C772 C61 1.115 . S
C787 C89 1.030 . S
C799 C81 1.099 1_556 S
C814 C109 1.049 . S
C826 C101 1.119 . S
C841 C129 1.110 . S
C853 C121 1.047 . S
C868 C149 1.036 . S
C880 C141 1.104 . S
C895 C169 1.107 . S
C907 C161 1.046 . S
