# Generated by pormake.
# Topology wkj, (6)-cn, num edge types: 1
# Building blocks:
#     Node 0, Type 0, BuildingBlock: BETFAJ_clean_sbu_0, # of connection points: 6
#     Node 1, Type 0, BuildingBlock: BETFAJ_clean_sbu_0, # of connection points: 6
#     Node 2, Type 0, BuildingBlock: BETFAJ_clean_sbu_0, # of connection points: 6
#     Node 3, Type 0, BuildingBlock: BETFAJ_clean_sbu_0, # of connection points: 6
#     Node 4, Type 0, BuildingBlock: BETFAJ_clean_sbu_0, # of connection points: 6
#     Node 5, Type 0, BuildingBlock: BETFAJ_clean_sbu_0, # of connection points: 6
#     Node 6, Type 0, BuildingBlock: BETFAJ_clean_sbu_0, # of connection points: 6
#     Node 7, Type 0, BuildingBlock: BETFAJ_clean_sbu_0, # of connection points: 6
#     Node 8, Type 0, BuildingBlock: BETFAJ_clean_sbu_0, # of connection points: 6
#     Node 9, Type 0, BuildingBlock: BETFAJ_clean_sbu_0, # of connection points: 6
#     Node 10, Type 0, BuildingBlock: BETFAJ_clean_sbu_0, # of connection points: 6
#     Node 11, Type 0, BuildingBlock: BETFAJ_clean_sbu_0, # of connection points: 6
#     Edge 12, Type (0, 0), BuildingBlock: XUDNAN_clean_linker_2, # of connection points: 2
#     Edge 13, Type (0, 0), BuildingBlock: XUDNAN_clean_linker_2, # of connection points: 2
#     Edge 14, Type (0, 0), BuildingBlock: XUDNAN_clean_linker_2, # of connection points: 2
#     Edge 15, Type (0, 0), BuildingBlock: XUDNAN_clean_linker_2, # of connection points: 2
#     Edge 16, Type (0, 0), BuildingBlock: XUDNAN_clean_linker_2, # of connection points: 2
#     Edge 17, Type (0, 0), BuildingBlock: XUDNAN_clean_linker_2, # of connection points: 2
#     Edge 18, Type (0, 0), BuildingBlock: XUDNAN_clean_linker_2, # of connection points: 2
#     Edge 19, Type (0, 0), BuildingBlock: XUDNAN_clean_linker_2, # of connection points: 2
#     Edge 20, Type (0, 0), BuildingBlock: XUDNAN_clean_linker_2, # of connection points: 2
#     Edge 21, Type (0, 0), BuildingBlock: XUDNAN_clean_linker_2, # of connection points: 2
#     Edge 22, Type (0, 0), BuildingBlock: XUDNAN_clean_linker_2, # of connection points: 2
#     Edge 23, Type (0, 0), BuildingBlock: XUDNAN_clean_linker_2, # of connection points: 2
#     Edge 24, Type (0, 0), BuildingBlock: XUDNAN_clean_linker_2, # of connection points: 2
#     Edge 25, Type (0, 0), BuildingBlock: XUDNAN_clean_linker_2, # of connection points: 2
#     Edge 26, Type (0, 0), BuildingBlock: XUDNAN_clean_linker_2, # of connection points: 2
#     Edge 27, Type (0, 0), BuildingBlock: XUDNAN_clean_linker_2, # of connection points: 2
#     Edge 28, Type (0, 0), BuildingBlock: XUDNAN_clean_linker_2, # of connection points: 2
#     Edge 29, Type (0, 0), BuildingBlock: XUDNAN_clean_linker_2, # of connection points: 2
#     Edge 30, Type (0, 0), BuildingBlock: XUDNAN_clean_linker_2, # of connection points: 2
#     Edge 31, Type (0, 0), BuildingBlock: XUDNAN_clean_linker_2, # of connection points: 2
#     Edge 32, Type (0, 0), BuildingBlock: XUDNAN_clean_linker_2, # of connection points: 2
#     Edge 33, Type (0, 0), BuildingBlock: XUDNAN_clean_linker_2, # of connection points: 2
#     Edge 34, Type (0, 0), BuildingBlock: XUDNAN_clean_linker_2, # of connection points: 2
#     Edge 35, Type (0, 0), BuildingBlock: XUDNAN_clean_linker_2, # of connection points: 2
#     Edge 36, Type (0, 0), BuildingBlock: XUDNAN_clean_linker_2, # of connection points: 2
#     Edge 37, Type (0, 0), BuildingBlock: XUDNAN_clean_linker_2, # of connection points: 2
#     Edge 38, Type (0, 0), BuildingBlock: XUDNAN_clean_linker_2, # of connection points: 2
#     Edge 39, Type (0, 0), BuildingBlock: XUDNAN_clean_linker_2, # of connection points: 2
#     Edge 40, Type (0, 0), BuildingBlock: XUDNAN_clean_linker_2, # of connection points: 2
#     Edge 41, Type (0, 0), BuildingBlock: XUDNAN_clean_linker_2, # of connection points: 2
#     Edge 42, Type (0, 0), BuildingBlock: XUDNAN_clean_linker_2, # of connection points: 2
#     Edge 43, Type (0, 0), BuildingBlock: XUDNAN_clean_linker_2, # of connection points: 2
#     Edge 44, Type (0, 0), BuildingBlock: XUDNAN_clean_linker_2, # of connection points: 2
#     Edge 45, Type (0, 0), BuildingBlock: XUDNAN_clean_linker_2, # of connection points: 2
#     Edge 46, Type (0, 0), BuildingBlock: XUDNAN_clean_linker_2, # of connection points: 2
#     Edge 47, Type (0, 0), BuildingBlock: XUDNAN_clean_linker_2, # of connection points: 2
# Relax obj value: 0.764
# Max RMSD: 0.174
# Mean RMSD: 0.174
data_MOF--net-wkj--node1-BETFAJ_clean_sbu_0--edge1-XUDNAN_clean_linker_2
_symmetry_space_group_name_H-M    P1
_symmetry_Int_Tables_number       1
_symmetry_cell_setting            triclinic
loop_
_symmetry_equiv_pos_as_xyz
'x, y, z'
_cell_length_a     49.221624
_cell_length_b     48.95572
_cell_length_c     31.001557
_cell_angle_alpha  89.841158
_cell_angle_beta   89.597841
_cell_angle_gamma 119.94808
loop_
_atom_site_label
_atom_site_type_symbol
_atom_site_fract_x
_atom_site_fract_y
_atom_site_fract_z
_atom_type_partial_charge
Sm0 Sm 0.46685 0.08934 0.3577 0.0
Sm1 Sm 0.5298 0.10919 0.33464 0.0
C2 C 0.40873 0.07021 0.38428 0.0
C3 C 0.38546 0.05362 0.41821 0.0
C4 C 0.3945 0.05266 0.46065 0.0
C5 C 0.37174 0.03832 0.4929 0.0
C6 C 0.33971 0.02478 0.48307 0.0
C7 C 0.3308 0.02527 0.44033 0.0
C8 C 0.3536 0.03972 0.40812 0.0
C9 C 0.49389 0.14777 0.31383 0.0
C10 C 0.51797 0.109 0.4441 0.0
C11 C 0.58745 0.14297 0.30221 0.0
C12 C 0.6056 0.17266 0.27754 0.0
C13 C 0.61066 0.20163 0.29388 0.0
C14 C 0.62606 0.22911 0.26885 0.0
C15 C 0.63679 0.22824 0.22704 0.0
C16 C 0.63289 0.19945 0.2116 0.0
C17 C 0.61756 0.17203 0.23666 0.0
C18 C 0.50503 0.05445 0.3803 0.0
C19 C 0.4746 0.06002 0.26045 0.0
O20 O 0.41606 0.05335 0.35942 0.0
O21 O 0.43279 0.09741 0.39426 0.0
O22 O 0.50716 0.14008 0.34269 0.0
O23 O 0.46683 0.12364 0.30602 0.0
O24 O 0.48801 0.09736 0.4316 0.0
O25 O 0.53914 0.1176 0.41178 0.0
O26 O 0.57973 0.14549 0.34167 0.0
O27 O 0.56485 0.11912 0.28204 0.0
O28 O 0.49064 0.06108 0.35244 0.0
O29 O 0.53492 0.07396 0.37739 0.0
O30 O 0.50519 0.08019 0.26806 0.0
O31 O 0.45489 0.05763 0.29243 0.0
H32 H 0.41905 0.06319 0.46885 0.0
H33 H 0.37919 0.03759 0.52548 0.0
H34 H 0.30629 0.01493 0.432 0.0
H35 H 0.34638 0.04041 0.37538 0.0
H36 H 0.60198 0.20301 0.32552 0.0
H37 H 0.62877 0.25087 0.28176 0.0
H38 H 0.64019 0.19763 0.17922 0.0
H39 H 0.61417 0.15007 0.22348 0.0
Sm40 Sm 0.3505 0.45971 0.69409 0.0
Sm41 Sm 0.40534 0.51058 0.67853 0.0
C42 C 0.30139 0.40218 0.70437 0.0
C43 C 0.28931 0.38044 0.74109 0.0
C44 C 0.29998 0.39183 0.78252 0.0
C45 C 0.29023 0.37126 0.81755 0.0
C46 C 0.26965 0.3388 0.81185 0.0
C47 C 0.25865 0.32743 0.77028 0.0
C48 C 0.26839 0.34824 0.73503 0.0
C49 C 0.33513 0.50318 0.66438 0.0
C50 C 0.38964 0.50341 0.78648 0.0
C51 C 0.44656 0.57119 0.66941 0.0
C52 C 0.44908 0.59435 0.63689 0.0
C53 C 0.44636 0.62032 0.65044 0.0
C54 C 0.43692 0.63585 0.62144 0.0
C55 C 0.43069 0.62584 0.5786 0.0
C56 C 0.437 0.60243 0.56399 0.0
C57 C 0.44603 0.58668 0.59294 0.0
C58 C 0.40676 0.45754 0.70624 0.0
C59 C 0.39185 0.46549 0.59485 0.0
O60 O 0.32832 0.40756 0.68893 0.0
O61 O 0.29999 0.42791 0.70852 0.0
O62 O 0.35679 0.49888 0.64808 0.0
O63 O 0.32643 0.48905 0.70132 0.0
O64 O 0.36413 0.47736 0.77072 0.0
O65 O 0.41035 0.52092 0.75587 0.0
O66 O 0.42123 0.56033 0.69335 0.0
O67 O 0.45247 0.54904 0.65707 0.0
O68 O 0.39337 0.47016 0.72397 0.0
O69 O 0.42333 0.47466 0.67366 0.0
O70 O 0.41052 0.4947 0.60823 0.0
O71 O 0.36736 0.44763 0.62227 0.0
H72 H 0.31647 0.41659 0.78765 0.0
H73 H 0.29993 0.38068 0.84889 0.0
H74 H 0.243 0.30251 0.76501 0.0
H75 H 0.26013 0.33915 0.70305 0.0
H76 H 0.44839 0.62647 0.68428 0.0
H77 H 0.43186 0.65366 0.63326 0.0
H78 H 0.43205 0.5943 0.53095 0.0
H79 H 0.4477 0.56666 0.58155 0.0
Sm80 Sm 0.89076 0.37154 1.03142 0.0
Sm81 Sm 0.86878 0.41261 1.00874 0.0
C82 C 0.91371 0.33594 1.05912 0.0
C83 C 0.93232 0.33156 1.09206 0.0
C84 C 0.93121 0.33928 0.13527 0.0
C85 C 0.947 0.33209 0.16648 0.0
C86 C 0.96409 0.31717 0.15484 0.0
C87 C 0.9661 0.31061 1.11132 0.0
C88 C 0.95019 0.31768 1.08015 0.0
C89 C 0.83171 0.33736 0.99074 0.0
C90 C 0.87044 0.40239 0.11891 0.0
C91 C 0.83288 0.4345 0.97832 0.0
C92 C 0.80223 0.42202 0.95728 0.0
C93 C 0.77552 0.39468 0.97276 0.0
C94 C 0.74774 0.381 0.94919 0.0
C95 C 0.74605 0.39491 0.91039 0.0
C96 C 0.77204 0.42364 0.89695 0.0
C97 C 0.79991 0.43698 0.92012 0.0
C98 C 0.92254 0.44606 1.05292 0.0
C99 C 0.91785 0.40602 0.93192 0.0
O100 O 0.92861 0.3593 1.03201 0.0
O101 O 0.88628 0.33165 1.07073 0.0
O102 O 0.83927 0.35901 1.01862 0.0
O103 O 0.85592 0.33443 0.983 0.0
O104 O 0.88296 0.38497 1.10489 0.0
O105 O 0.86067 0.4144 1.08733 0.0
O106 O 0.83234 0.42592 1.01826 0.0
O107 O 0.85545 0.43456 0.95576 0.0
O108 O 0.91755 0.42414 1.02694 0.0
O109 O 0.90261 0.45557 1.04675 0.0
O110 O 0.89742 0.41632 0.94034 0.0
O111 O 0.92104 0.38964 0.96438 0.0
H112 H 0.91782 0.35037 0.14493 0.0
H113 H 0.94573 0.33806 0.19977 0.0
H114 H 0.97917 0.2992 1.10161 0.0
H115 H 0.95124 0.31163 1.04682 0.0
H116 H 0.77652 0.38294 1.00187 0.0
H117 H 0.72813 0.35877 0.96008 0.0
H118 H 0.77166 0.43464 0.86677 0.0
H119 H 0.82009 0.45829 0.90796 0.0
Sm120 Sm 0.49157 0.9044 0.35784 0.0
Sm121 Sm 0.42842 0.87029 0.33901 0.0
C122 C 0.55082 0.93656 0.38329 0.0
C123 C 0.57192 0.9315 0.41089 0.0
C124 C 0.56001 0.90987 0.44523 0.0
C125 C 0.5803 0.90925 0.47585 0.0
C126 C 0.61281 0.9302 0.47244 0.0
C127 C 0.62475 0.94958 0.43557 0.0
C128 C 0.60438 0.95035 0.40512 0.0
C129 C 0.47369 0.8431 0.32627 0.0
C130 C 0.44411 0.87729 0.44809 0.0
C131 C 0.37496 0.82349 0.3091 0.0
C132 C 0.36497 0.79262 0.289 0.0
C133 C 0.36807 0.76893 0.31046 0.0
C134 C 0.36333 0.74204 0.28837 0.0
C135 C 0.355 0.73821 0.24468 0.0
C136 C 0.34928 0.76069 0.22455 0.0
C137 C 0.35421 0.78757 0.2465 0.0
C138 C 0.43581 0.92248 0.3767 0.0
C139 C 0.47837 0.92428 0.26013 0.0
O140 O 0.52775 0.93739 0.40285 0.0
O141 O 0.54228 0.92069 0.34757 0.0
O142 O 0.45978 0.85011 0.35491 0.0
O143 O 0.49687 0.86909 0.31162 0.0
O144 O 0.47347 0.89165 0.43214 0.0
O145 O 0.42133 0.86523 0.41824 0.0
O146 O 0.38304 0.82634 0.34949 0.0
O147 O 0.39371 0.84845 0.28619 0.0
O148 O 0.45703 0.92226 0.35283 0.0
O149 O 0.40865 0.89796 0.37005 0.0
O150 O 0.45108 0.89732 0.2688 0.0
O151 O 0.49799 0.935 0.29329 0.0
H152 H 0.53494 0.89488 0.44985 0.0
H153 H 0.57021 0.89429 0.50401 0.0
H154 H 0.64969 0.96572 0.43187 0.0
H155 H 0.61389 0.96688 0.37837 0.0
H156 H 0.37549 0.77176 0.3437 0.0
H157 H 0.36768 0.72505 0.30475 0.0
H158 H 0.34333 0.75886 0.1907 0.0
H159 H 0.35125 0.80525 0.22946 0.0
Sm160 Sm 0.61297 0.53592 0.69233 0.0
Sm161 Sm 0.5713 0.47745 0.67925 0.0
C162 C 0.65208 0.59435 0.71843 0.0
C163 C 0.67426 0.60922 0.75362 0.0
C164 C 0.67412 0.59122 0.7889 0.0
C165 C 0.69157 0.60607 0.82543 0.0
C166 C 0.70955 0.63918 0.82708 0.0
C167 C 0.7119 0.65685 0.78993 0.0
C168 C 0.69417 0.64194 0.75351 0.0
C169 C 0.64352 0.506 0.65519 0.0
C170 C 0.58253 0.48792 0.7859 0.0
C171 C 0.54169 0.41776 0.65383 0.0
C172 C 0.55071 0.40055 0.62387 0.0
C173 C 0.57515 0.41737 0.59427 0.0
C174 C 0.58642 0.4017 0.56891 0.0
C175 C 0.57379 0.36887 0.57302 0.0
C176 C 0.54917 0.35205 0.60275 0.0
C177 C 0.5378 0.36785 0.62814 0.0
C178 C 0.54312 0.50887 0.71388 0.0
C179 C 0.57675 0.52709 0.59534 0.0
O180 O 0.62256 0.57841 0.72962 0.0
O181 O 0.65954 0.57977 0.68987 0.0
O182 O 0.62358 0.49502 0.68589 0.0
O183 O 0.646 0.53218 0.64183 0.0
O184 O 0.60314 0.51651 0.7688 0.0
O185 O 0.56572 0.46653 0.75621 0.0
O186 O 0.55912 0.42769 0.68792 0.0
O187 O 0.53648 0.43924 0.63724 0.0
O188 O 0.56214 0.5186 0.68263 0.0
O189 O 0.54084 0.48307 0.72867 0.0
O190 O 0.56555 0.4968 0.60747 0.0
O191 O 0.59542 0.54786 0.62496 0.0
H192 H 0.65917 0.56584 0.78918 0.0
H193 H 0.68886 0.59168 0.85351 0.0
H194 H 0.72583 0.68234 0.79005 0.0
H195 H 0.69483 0.65609 0.72615 0.0
H196 H 0.58581 0.44274 0.59114 0.0
H197 H 0.60474 0.41538 0.54552 0.0
H198 H 0.53893 0.32679 0.6066 0.0
H199 H 0.51933 0.35466 0.65159 0.0
Sm200 Sm 0.07659 0.60251 1.03218 0.0
Sm201 Sm 0.10149 0.56627 1.00119 0.0
C202 C 0.05283 0.63507 1.06874 0.0
C203 C 0.06361 0.66198 1.09795 0.0
C204 C 0.08292 0.66537 0.13295 0.0
C205 C 0.08834 0.68754 0.16479 0.0
C206 C 0.07472 0.70684 0.16197 0.0
C207 C 0.05836 0.7057 0.12433 0.0
C208 C 0.05262 0.68321 1.09272 0.0
C209 C 0.1383 0.64115 0.99934 0.0
C210 C 0.09932 0.57003 1.11299 0.0
C211 C 0.14051 0.55251 0.95988 0.0
C212 C 0.17389 0.56946 0.94824 0.0
C213 C 0.19512 0.59669 0.97045 0.0
C214 C 0.22474 0.61714 0.95267 0.0
C215 C 0.23343 0.61034 0.91259 0.0
C216 C 0.21312 0.58126 0.89293 0.0
C217 C 0.18357 0.56111 0.91054 0.0
C218 C 0.04712 0.52598 1.03855 0.0
C219 C 0.05002 0.57349 0.93143 0.0
O220 O 0.05017 0.6093 1.08516 0.0
O221 O 0.06497 0.64106 1.03008 0.0
O222 O 0.12908 0.61731 1.02395 0.0
O223 O 0.11435 0.64396 0.98994 0.0
O224 O 0.08664 0.58802 1.10353 0.0
O225 O 0.10899 0.56023 1.0784 0.0
O226 O 0.13346 0.54642 1.00072 0.0
O227 O 0.1237 0.56268 0.94064 0.0
O228 O 0.05139 0.55051 1.01817 0.0
O229 O 0.06784 0.51829 1.02746 0.0
O230 O 0.07135 0.56408 0.93636 0.0
O231 O 0.04623 0.58769 0.96607 0.0
H232 H 0.09217 0.64958 0.13716 0.0
H233 H 0.10085 0.68745 0.19333 0.0
H234 H 0.04802 0.7206 0.12084 0.0
H235 H 0.03815 0.68128 1.06541 0.0
H236 H 0.188 0.60299 1.00007 0.0
H237 H 0.23994 0.63918 0.96868 0.0
H238 H 0.21867 0.57531 0.86172 0.0
H239 H 0.16744 0.54015 0.89299 0.0
Sm240 Sm 0.89375 0.52164 0.53649 0.0
Sm241 Sm 0.87794 0.46047 0.55842 0.0
C242 C 0.91349 0.57965 0.50725 0.0
C243 C 0.93629 0.60399 0.47779 0.0
C244 C 0.95754 0.6338 0.4943 0.0
C245 C 0.97841 0.65797 0.46684 0.0
C246 C 0.97796 0.65275 0.42237 0.0
C247 C 0.95712 0.6227 0.40598 0.0
C248 C 0.93651 0.59846 0.43346 0.0
C249 C 0.83546 0.49354 0.57939 0.0
C250 C 0.87465 0.46865 0.44997 0.0
C251 C 0.84941 0.40286 0.59262 0.0
C252 C 0.81798 0.38257 0.61138 0.0
C253 C 0.79104 0.37977 0.59174 0.0
C254 C 0.76216 0.36484 0.61348 0.0
C255 C 0.75979 0.35281 0.65545 0.0
C256 C 0.7865 0.35389 0.67363 0.0
C257 C 0.81523 0.36852 0.65173 0.0
C258 C 0.93375 0.49178 0.51415 0.0
C259 C 0.92308 0.51588 0.63505 0.0
O260 O 0.9249 0.57342 0.54122 0.0
O261 O 0.88995 0.55454 0.49067 0.0
O262 O 0.84359 0.47979 0.5514 0.0
O263 O 0.85879 0.5213 0.58611 0.0
O264 O 0.88653 0.49908 0.46215 0.0
O265 O 0.86672 0.44816 0.4829 0.0
O266 O 0.85085 0.40842 0.55134 0.0
O267 O 0.86777 0.42809 0.61447 0.0
O268 O 0.925 0.50222 0.5447 0.0
O269 O 0.91518 0.46162 0.51134 0.0
O270 O 0.90658 0.48501 0.6253 0.0
O271 O 0.92266 0.53522 0.60441 0.0
H272 H 0.95774 0.63849 0.52847 0.0
H273 H -0.00557 0.68087 0.48016 0.0
H274 H 0.95693 0.61789 0.37185 0.0
H275 H 0.92065 0.57558 0.41996 0.0
H276 H 0.79252 0.39045 0.56052 0.0
H277 H 0.7421 0.36421 0.59833 0.0
H278 H 0.78599 0.34557 0.70618 0.0
H279 H 0.83572 0.3705 0.66746 0.0
Sm280 Sm 0.36488 0.89424 0.87728 0.0
Sm281 Sm 0.41276 0.87938 0.89102 0.0
C282 C 0.31917 0.90546 0.85622 0.0
C283 C 0.30713 0.9145 0.81906 0.0
C284 C 0.30644 0.90208 0.7781 0.0
C285 C 0.29346 0.90959 0.74349 0.0
C286 C 0.28132 0.92992 0.74916 0.0
C287 C 0.28223 0.94254 0.79006 0.0
C288 C 0.29486 0.93465 0.82492 0.0
C289 C 0.34105 0.83705 0.92326 0.0
C290 C 0.39531 0.87708 0.78462 0.0
C291 C 0.44416 0.85103 0.91551 0.0
C292 C 0.4383 0.8261 0.94663 0.0
C293 C 0.41442 0.81705 0.97751 0.0
C294 C 0.40555 0.79048 1.00317 0.0
C295 C 0.42035 0.77237 0.99834 0.0
C296 C 0.44491 0.782 0.96815 0.0
C297 C 0.45366 0.80861 0.94215 0.0
C298 C 0.43443 0.93415 0.84495 0.0
C299 C 0.40498 0.92418 0.97134 0.0
O300 O 0.34555 0.92692 0.87271 0.0
O301 O 0.3169 0.8778 0.85438 0.0
O302 O 0.35939 0.84515 0.89057 0.0
O303 O 0.33778 0.86069 0.93413 0.0
O304 O 0.37627 0.88738 0.80047 0.0
O305 O 0.41033 0.86994 0.81455 0.0
O306 O 0.42448 0.84155 0.88362 0.0
O307 O 0.44958 0.8781 0.93105 0.0
O308 O 0.41621 0.92594 0.87702 0.0
O309 O 0.44646 0.91597 0.84161 0.0
O310 O 0.41529 0.90422 0.96053 0.0
O311 O 0.38601 0.92652 0.94224 0.0
H312 H 0.31598 0.88663 0.77277 0.0
H313 H 0.29385 0.90031 0.71194 0.0
H314 H 0.27339 0.95863 0.7949 0.0
H315 H 0.29514 0.94433 0.85642 0.0
H316 H 0.40215 0.83016 0.98109 0.0
H317 H 0.38713 0.78419 1.02702 0.0
H318 H 0.45686 0.76863 0.96411 0.0
H319 H 0.47188 0.81512 0.91792 0.0
Sm320 Sm 0.46701 0.38153 0.20195 0.0
Sm321 Sm 0.5269 0.42113 0.22675 0.0
C322 C 0.41079 0.34196 0.17154 0.0
C323 C 0.38845 0.332 0.1361 0.0
C324 C 0.38569 0.35381 1.10986 0.0
C325 C 0.3632 0.3432 1.07743 0.0
C326 C 0.34328 0.31067 1.07081 0.0
C327 C 0.34638 0.289 1.097 0.0
C328 C 0.36876 0.29962 0.12946 0.0
C329 C 0.49112 0.34769 0.24673 0.0
C330 C 0.52046 0.4164 0.11581 0.0
C331 C 0.58646 0.44272 0.24804 0.0
C332 C 0.60387 0.42867 0.26794 0.0
C333 C 0.60425 0.40264 0.2494 0.0
C334 C 0.61458 0.38529 0.27321 0.0
C335 C 0.62516 0.39404 0.31561 0.0
C336 C 0.62796 0.42212 0.33207 0.0
C337 C 0.61738 0.43921 0.30846 0.0
C338 C 0.50673 0.4588 0.19172 0.0
C339 C 0.47065 0.41302 0.30049 0.0
O340 O 0.41719 0.36773 0.19229 0.0
O341 O 0.4349 0.33784 0.16682 0.0
O342 O 0.50483 0.36824 0.21754 0.0
O343 O 0.46512 0.34685 0.25601 0.0
O344 O 0.49013 0.39659 0.12747 0.0
O345 O 0.53983 0.42896 0.1496 0.0
O346 O 0.57555 0.43321 0.2095 0.0
O347 O 0.56626 0.44506 0.27299 0.0
O348 O 0.49793 0.43105 0.18069 0.0
O349 O 0.523 0.46572 0.22679 0.0
O350 O 0.50001 0.41782 0.2962 0.0
O351 O 0.45395 0.40308 0.26418 0.0
H352 H 0.40082 0.37892 1.11443 0.0
H353 H 0.36171 0.36043 1.0571 0.0
H354 H 0.33131 0.26386 1.09265 0.0
H355 H 0.37057 0.2825 0.14966 0.0
H356 H 0.59477 0.39445 0.2176 0.0
H357 H 0.61237 0.36394 0.25956 0.0
H358 H 0.63564 0.42947 0.36479 0.0
H359 H 0.61778 0.45946 0.32317 0.0
Sm360 Sm 0.07087 0.45866 0.53497 0.0
Sm361 Sm 0.09977 0.5195 0.55619 0.0
C362 C 0.04012 0.39687 0.5223 0.0
C363 C 0.04282 0.37594 0.49127 0.0
C364 C 0.06379 0.38867 0.45642 0.0
C365 C 0.06374 0.36905 0.42394 0.0
C366 C 0.04271 0.33635 0.4259 0.0
C367 C 0.02359 0.3235 0.46283 0.0
C368 C 0.02356 0.34324 0.49526 0.0
C369 C 0.13489 0.48156 0.55082 0.0
C370 C 0.09464 0.50482 0.44427 0.0
C371 C 0.14701 0.57784 0.56661 0.0
C372 C 0.17407 0.59543 0.59468 0.0
C373 C 0.1815 0.5798 0.6263 0.0
C374 C 0.20672 0.59694 0.65377 0.0
C375 C 0.22506 0.63002 0.64997 0.0
C376 C 0.21805 0.64539 0.6172 0.0
C377 C 0.19272 0.62818 0.58977 0.0
C378 C 0.04524 0.50911 0.52252 0.0
C379 C 0.05074 0.47098 0.63607 0.0
O380 O 0.03113 0.41584 0.50664 0.0
O381 O 0.06342 0.4109 0.54884 0.0
O382 O 0.11612 0.48529 0.57512 0.0
O383 O 0.12046 0.46775 0.51577 0.0
O384 O 0.07948 0.47496 0.4592 0.0
O385 O 0.10563 0.52668 0.47592 0.0
O386 O 0.14835 0.55718 0.54144 0.0
O387 O 0.11928 0.56744 0.58411 0.0
O388 O 0.05948 0.49492 0.51104 0.0
O389 O 0.05644 0.52467 0.55803 0.0
O390 O 0.07632 0.49926 0.62785 0.0
O391 O 0.0414 0.45174 0.60209 0.0
H392 H 0.07906 0.41394 0.45325 0.0
H393 H 0.07843 0.37987 0.39576 0.0
H394 H 0.00733 0.2984 0.46535 0.0
H395 H 0.00758 0.33312 0.52245 0.0
H396 H 0.16738 0.55446 0.63032 0.0
H397 H 0.2109 0.58434 0.67924 0.0
H398 H 0.23174 0.67075 0.61331 0.0
H399 H 0.18741 0.64051 0.56513 0.0
Sm400 Sm 0.59161 0.08183 0.87109 0.0
Sm401 Sm 0.55819 0.11001 0.88593 0.0
C402 C 0.62516 0.05539 0.84821 0.0
C403 C 0.63084 0.03883 0.81329 0.0
C404 C 0.62286 0.0412 0.77073 0.0
C405 C 0.63016 0.02666 0.73761 0.0
C406 C 0.64546 0.00951 0.74664 0.0
C407 C 0.65276 0.00664 0.78948 0.0
C408 C 0.64558 0.02134 0.82258 0.0
C409 C 0.62929 0.14039 0.91347 0.0
C410 C 0.56892 0.10509 0.77743 0.0
C411 C 0.54751 0.15701 0.90179 0.0
C412 C 0.56665 0.18563 0.92684 0.0
C413 C 0.58607 0.18488 0.95903 0.0
C414 C 0.60653 0.21219 0.98078 0.0
C415 C 0.60826 0.24107 0.97079 0.0
C416 C 0.58872 0.24189 0.93854 0.0
C417 C 0.56819 0.21429 0.91637 0.0
C418 C 0.51574 0.05472 0.85077 0.0
C419 C 0.55294 0.05779 0.96536 0.0
O420 O 0.59827 0.04013 0.8686 0.0
O421 O 0.63406 0.08502 0.84125 0.0
O422 O 0.61132 0.13497 0.88187 0.0
O423 O 0.62563 0.11362 0.92632 0.0
O424 O 0.58516 0.09214 0.79465 0.0
O425 O 0.55518 0.11443 0.80705 0.0
O426 O 0.56093 0.15508 0.86653 0.0
O427 O 0.53418 0.13056 0.92365 0.0
O428 O 0.5447 0.06837 0.84258 0.0
O429 O 0.50943 0.06723 0.88336 0.0
O430 O 0.55297 0.08503 0.95802 0.0
O431 O 0.56294 0.04842 0.93154 0.0
H432 H 0.61128 0.05447 0.76311 0.0
H433 H 0.62364 0.02865 0.70494 0.0
H434 H 0.66448 -0.00647 0.79722 0.0
H435 H 0.65187 0.01938 0.85541 0.0
H436 H 0.58574 0.16315 0.96709 0.0
H437 H 0.62051 0.21039 1.00629 0.0
H438 H 0.58928 0.26373 0.93066 0.0
H439 H 0.55367 0.21533 0.89105 0.0
Sm440 Sm 0.50619 0.617 0.19886 0.0
Sm441 Sm 0.44643 0.56923 0.22269 0.0
C442 C 0.56286 0.65721 0.16795 0.0
C443 C 0.58827 0.66004 0.13967 0.0
C444 C 0.58416 0.65531 1.09504 0.0
C445 C 0.60933 0.66032 1.06869 0.0
C446 C 0.63893 0.66991 1.08652 0.0
C447 C 0.64283 0.67383 0.13122 0.0
C448 C 0.61773 0.6692 0.15754 0.0
C449 C 0.47639 0.64547 0.24247 0.0
C450 C 0.4535 0.57846 1.11363 0.0
C451 C 0.38873 0.53799 0.25547 0.0
C452 C 0.36917 0.54727 0.28078 0.0
C453 C 0.36236 0.57026 0.2654 0.0
C454 C 0.34889 0.58297 0.29277 0.0
C455 C 0.3425 0.57333 0.3362 0.0
C456 C 0.34657 0.5481 0.35002 0.0
C457 C 0.35965 0.53518 0.32253 0.0
C458 C 0.47984 0.54704 0.17846 0.0
C459 C 0.50303 0.58223 0.29802 0.0
O460 O 0.55799 0.64117 0.20357 0.0
O461 O 0.53696 0.65282 0.15029 0.0
O462 O 0.46302 0.62281 0.21557 0.0
O463 O 0.50512 0.65243 0.24646 0.0
O464 O 0.48341 0.59927 0.12507 0.0
O465 O 0.43366 0.56524 0.14703 0.0
O466 O 0.3951 0.54839 0.2159 0.0
O467 O 0.41308 0.53992 0.27497 0.0
O468 O 0.48966 0.56673 0.20825 0.0
O469 O 0.44959 0.53391 0.17643 0.0
O470 O 0.47212 0.56695 0.28946 0.0
O471 O 0.52133 0.60237 0.2667 0.0
H472 H 0.56166 0.64803 1.08041 0.0
H473 H 0.60558 0.6564 1.03433 0.0
H474 H 0.66538 0.68102 0.14564 0.0
H475 H 0.62142 0.67307 0.19192 0.0
H476 H 0.36901 0.57979 0.23302 0.0
H477 H 0.34559 0.60189 0.28075 0.0
H478 H 0.34242 0.54006 0.38323 0.0
H479 H 0.36432 0.51722 0.33492 0.0
H480 H 0.4524 0.17073 0.31393 0.0
H481 H 0.55045 0.20085 0.29288 0.0
H482 H 0.56067 0.25457 0.27383 0.0
H483 H 0.44317 0.21605 0.23031 0.0
H484 H 0.41828 0.22585 0.26168 0.0
H485 H 0.41886 0.19003 0.27298 0.0
H486 H 0.43289 0.20691 0.35242 0.0
H487 H 0.43226 0.24276 0.34139 0.0
H488 H 0.4667 0.24456 0.36419 0.0
H489 H 0.55861 0.30505 0.25055 0.0
H490 H 0.54643 0.34752 0.23554 0.0
H491 H 0.45097 0.28679 0.27935 0.0
C492 C 0.4761 0.18864 0.30542 0.0
C493 C 0.50065 0.18114 0.30473 0.0
C494 C 0.53126 0.20568 0.29386 0.0
C495 C 0.53721 0.23637 0.28277 0.0
C496 C 0.51245 0.24285 0.28349 0.0
C497 C 0.48258 0.21969 0.29546 0.0
C498 C 0.46024 0.23295 0.29542 0.0
C499 C 0.43356 0.21516 0.26318 0.0
C500 C 0.44725 0.23172 0.34107 0.0
C501 C 0.48187 0.267 0.28075 0.0
C502 C 0.51185 0.27215 0.2735 0.0
C503 C 0.53534 0.30122 0.25725 0.0
C504 C 0.52826 0.32545 0.24884 0.0
C505 C 0.49804 0.32132 0.25711 0.0
C506 C 0.47459 0.29137 0.27343 0.0
H507 H 0.28434 0.50784 0.69461 0.0
H508 H 0.32823 0.50284 0.57553 0.0
H509 H 0.28322 0.49889 0.5347 0.0
H510 H 0.20615 0.45193 0.66547 0.0
H511 H 0.18815 0.47176 0.69184 0.0
H512 H 0.22461 0.47655 0.71151 0.0
H513 H 0.25019 0.53672 0.70366 0.0
H514 H 0.21384 0.53243 0.68425 0.0
H515 H 0.24928 0.55395 0.65256 0.0
H516 H 0.23142 0.49262 0.50657 0.0
H517 H 0.17842 0.48431 0.49379 0.0
H518 H 0.16693 0.49404 0.63065 0.0
C519 C 0.28503 0.50683 0.65976 0.0
C520 C 0.31069 0.50638 0.63846 0.0
C521 C 0.3097 0.50408 0.59287 0.0
C522 C 0.28397 0.50164 0.56935 0.0
C523 C 0.25911 0.50187 0.59139 0.0
C524 C 0.25952 0.50458 0.63569 0.0
C525 C 0.22907 0.50263 0.65181 0.0
C526 C 0.21093 0.47402 0.68194 0.0
C527 C 0.23601 0.5333 0.67437 0.0
C528 C 0.21133 0.49838 0.60979 0.0
C529 C 0.22919 0.49797 0.57535 0.0
C530 C 0.21753 0.49313 0.53344 0.0
C531 C 0.18713 0.48837 0.52649 0.0
C532 C 0.168 0.48857 0.56091 0.0
C533 C 0.18071 0.49401 0.6033 0.0
H534 H 0.80466 0.27149 0.99575 0.0
H535 H 0.78275 0.34369 0.96026 0.0
H536 H 0.72925 0.30235 0.93916 0.0
H537 H 0.7626 0.21656 0.91166 0.0
H538 H 0.74834 0.18175 0.94497 0.0
H539 H 0.78441 0.21686 0.95832 0.0
H540 H 0.76262 0.21653 1.03454 0.0
H541 H 0.72648 0.18134 1.0215 0.0
H542 H 0.72581 0.21583 1.04018 0.0
H543 H 0.67878 0.25171 0.91409 0.0
H544 H 0.63541 0.19839 0.89667 0.0
H545 H 0.68672 0.15733 0.95463 0.0
C546 C 0.78855 0.27867 0.98379 0.0
C547 C 0.79829 0.31147 0.98031 0.0
C548 C 0.77605 0.31923 0.96437 0.0
C549 C 0.74557 0.29568 0.95169 0.0
C550 C 0.73684 0.26375 0.95528 0.0
C551 C 0.75759 0.25522 0.97177 0.0
C552 C 0.74203 0.21914 0.97335 0.0
C553 C 0.76045 0.20792 0.94542 0.0
C554 C 0.73906 0.20752 1.02017 0.0
C555 C 0.70964 0.20862 0.95423 0.0
C556 C 0.7073 0.23483 0.94361 0.0
C557 C 0.68046 0.23123 0.92304 0.0
C558 C 0.65564 0.20056 0.91336 0.0
C559 C 0.65664 0.17299 0.92503 0.0
C560 C 0.6844 0.17749 0.94594 0.0
H561 H 0.50777 0.70956 0.22197 0.0
H562 H 0.42551 0.63862 0.29037 0.0
H563 H 0.41637 0.68096 0.31888 0.0
H564 H 0.53424 0.76996 0.30009 0.0
H565 H 0.54626 0.8022 0.26247 0.0
H566 H 0.54598 0.76681 0.24595 0.0
H567 H 0.50935 0.76022 0.18227 0.0
H568 H 0.51045 0.79614 0.19824 0.0
H569 H 0.47336 0.76036 0.19284 0.0
H570 H 0.4183 0.73223 0.34539 0.0
H571 H 0.42849 0.7862 0.36059 0.0
H572 H 0.50689 0.82429 0.27085 0.0
C573 C 0.48726 0.70269 0.24208 0.0
C574 C 0.4671 0.67018 0.25318 0.0
C575 C 0.44098 0.66281 0.28034 0.0
C576 C 0.43567 0.68682 0.29699 0.0
C577 C 0.45611 0.71845 0.28586 0.0
C578 C 0.48104 0.72633 0.2581 0.0
C579 C 0.49941 0.76214 0.25084 0.0
C580 C 0.5335 0.77609 0.26572 0.0
C581 C 0.49806 0.77018 0.20322 0.0
C582 C 0.48145 0.77334 0.27953 0.0
C583 C 0.45664 0.74771 0.29974 0.0
C584 C 0.43742 0.75221 0.32902 0.0
C585 C 0.4433 0.78318 0.33742 0.0
C586 C 0.46808 0.81002 0.31658 0.0
C587 C 0.48743 0.80461 0.2872 0.0
H588 H 0.70542 0.54407 0.63026 0.0
H589 H 0.63715 0.44629 0.65623 0.0
H590 H 0.67701 0.43111 0.63698 0.0
H591 H 0.74591 0.53231 0.541 0.0
H592 H 0.78408 0.5631 0.55733 0.0
H593 H 0.74971 0.56548 0.57111 0.0
H594 H 0.76447 0.57071 0.65185 0.0
H595 H 0.79895 0.56851 0.63827 0.0
H596 H 0.77097 0.54122 0.67694 0.0
H597 H 0.72695 0.42722 0.61125 0.0
H598 H 0.77987 0.43591 0.59128 0.0
H599 H 0.81547 0.53661 0.5887 0.0
C600 C 0.69872 0.51939 0.63182 0.0
C601 C 0.66775 0.49639 0.64465 0.0
C602 C 0.6605 0.46446 0.64668 0.0
C603 C 0.68312 0.45562 0.63555 0.0
C604 C 0.71348 0.47896 0.62308 0.0
C605 C 0.72124 0.51031 0.62189 0.0
C606 C 0.75568 0.53129 0.60971 0.0
C607 C 0.75903 0.5491 0.56727 0.0
C608 C 0.77357 0.55429 0.64637 0.0
C609 C 0.76631 0.50713 0.604 0.0
C610 C 0.74168 0.47692 0.61109 0.0
C611 C 0.74624 0.45093 0.60617 0.0
C612 C 0.77648 0.45602 0.59453 0.0
C613 C 0.80231 0.48693 0.5885 0.0
C614 C 0.79661 0.51259 0.59331 0.0
H615 H 0.27753 0.80884 0.90533 0.0
H616 H 0.34503 0.78975 0.96674 0.0
H617 H 0.30168 0.73795 0.99227 0.0
H618 H 0.21682 0.774 0.98397 0.0
H619 H 0.18504 0.75715 0.9461 0.0
H620 H 0.22135 0.79194 0.93158 0.0
H621 H 0.22642 0.76386 0.86397 0.0
H622 H 0.18996 0.72903 0.8781 0.0
H623 H 0.22493 0.72649 0.86999 0.0
H624 H 0.24832 0.68912 1.0179 0.0
H625 H 0.19339 0.64742 1.03261 0.0
H626 H 0.16053 0.6955 0.94882 0.0
C627 C 0.28327 0.79352 0.92354 0.0
C628 C 0.31514 0.80365 0.93359 0.0
C629 C 0.32121 0.78275 0.95797 0.0
C630 C 0.2965 0.75319 0.97291 0.0
C631 C 0.26536 0.74414 0.96292 0.0
C632 C 0.25883 0.76357 0.93793 0.0
C633 C 0.22348 0.74827 0.93101 0.0
C634 C 0.21094 0.76908 0.94925 0.0
C635 C 0.21574 0.74151 0.88291 0.0
C636 C 0.21089 0.71761 0.95685 0.0
C637 C 0.23539 0.71568 0.97528 0.0
C638 C 0.22925 0.69027 1.00251 0.0
C639 C 0.19775 0.6663 1.01045 0.0
C640 C 0.17213 0.66701 0.99083 0.0
C641 C 0.17925 0.69348 0.96384 0.0
H642 H 0.66781 0.26217 0.99706 0.0
H643 H 0.59053 0.2798 1.00944 0.0
H644 H 0.60978 0.30395 1.0798 0.0
H645 H 0.65736 0.22606 1.07745 0.0
H646 H 0.69598 0.23923 1.09862 0.0
H647 H 0.69161 0.24429 1.04272 0.0
H648 H 0.72997 0.30399 1.04823 0.0
H649 H 0.73497 0.29909 1.10478 0.0
H650 H 0.72348 0.32708 1.08778 0.0
H651 H 0.61743 0.299 0.15449 0.0
H652 H 0.61274 0.2676 0.21837 0.0
H653 H 0.68386 0.24917 0.1666 0.0
C654 C 0.65634 0.27304 1.01385 0.0
C655 C 0.62745 0.26852 0.9987 0.0
C656 C 0.61275 0.28297 1.0205 0.0
C657 C 0.62362 0.29672 1.06085 0.0
C658 C 0.64907 0.29567 1.07887 0.0
C659 C 0.66612 0.28514 1.05527 0.0
C660 C 0.68605 0.27754 1.08466 0.0
C661 C 0.6824 0.24484 1.07532 0.0
C662 C 0.72066 0.30348 1.08117 0.0
C663 C 0.67235 0.27869 0.12814 0.0
C664 C 0.65316 0.2918 0.12443 0.0
C665 C 0.6332 0.28976 0.15809 0.0
C666 C 0.63062 0.2717 0.19457 0.0
C667 C 0.64772 0.2556 0.1971 0.0
C668 C 0.67051 0.26123 0.16508 0.0
H669 H 0.30818 0.55521 0.41137 0.0
H670 H 0.3706 0.63766 0.33624 0.0
H671 H 0.38871 0.66897 0.40187 0.0
H672 H 0.30207 0.5994 0.51619 0.0
H673 H 0.30473 0.57033 0.54884 0.0
H674 H 0.28348 0.55895 0.49883 0.0
H675 H 0.31689 0.535 0.47373 0.0
H676 H 0.33985 0.54697 0.52153 0.0
H677 H 0.35894 0.55962 0.46986 0.0
H678 H 0.41816 0.6826 0.46837 0.0
H679 H 0.44876 0.67861 0.52858 0.0
H680 H 0.36967 0.58885 0.56574 0.0
C681 C 0.32438 0.5803 0.40887 0.0
C682 C 0.33921 0.59364 0.36912 0.0
C683 C 0.35949 0.62663 0.36645 0.0
C684 C 0.36996 0.6447 0.40394 0.0
C685 C 0.35939 0.6295 0.44373 0.0
C686 C 0.3359 0.5981 0.44647 0.0
C687 C 0.33454 0.5847 0.49104 0.0
C688 C 0.30441 0.57796 0.51514 0.0
C689 C 0.33775 0.55487 0.48885 0.0
C690 C 0.36304 0.61202 0.51109 0.0
C691 C 0.37658 0.6381 0.48396 0.0
C692 C 0.40701 0.66309 0.49095 0.0
C693 C 0.42437 0.66072 0.52507 0.0
C694 C 0.41104 0.63367 0.55169 0.0
C695 C 0.37963 0.61009 0.54615 0.0
H696 H 0.72551 0.33559 0.88432 0.0
H697 H 0.71244 0.41549 0.86406 0.0
H698 H 0.69002 0.39513 0.79292 0.0
H699 H 0.75963 0.33852 0.80467 0.0
H700 H 0.74333 0.29815 0.78764 0.0
H701 H 0.73954 0.30626 0.84258 0.0
H702 H 0.67942 0.27154 0.83917 0.0
H703 H 0.68297 0.26253 0.78376 0.0
H704 H 0.65787 0.27823 0.79777 0.0
H705 H 0.69463 0.38331 0.71956 0.0
H706 H 0.72461 0.38193 0.65756 0.0
H707 H 0.73363 0.3071 0.7181 0.0
C708 C 0.71558 0.34727 0.86606 0.0
C709 C 0.72066 0.37696 0.87929 0.0
C710 C 0.70863 0.3926 0.85436 0.0
C711 C 0.6957 0.38101 0.81387 0.0
C712 C 0.69485 0.35369 0.79887 0.0
C713 C 0.7034 0.3362 0.82501 0.0
C714 C 0.70824 0.31287 0.7986 0.0
C715 C 0.73956 0.31416 0.80895 0.0
C716 C 0.68046 0.27931 0.8052 0.0
C717 C 0.70788 0.32474 0.75351 0.0
C718 C 0.69766 0.34651 0.75418 0.0
C719 C 0.70151 0.3655 0.71835 0.0
C720 C 0.7187 0.36453 0.68286 0.0
C721 C 0.73199 0.34471 0.68335 0.0
C722 C 0.72395 0.32266 0.71733 0.0
H723 H 0.36132 0.72641 1.01777 0.0
H724 H 0.45842 0.75785 1.04505 0.0
H725 H 0.44263 0.72472 1.11023 0.0
H726 H 0.34234 0.74106 1.10202 0.0
H727 H 0.30357 0.70806 1.1122 0.0
H728 H 0.31854 0.71648 1.05852 0.0
H729 H 0.3095 0.66013 1.05111 0.0
H730 H 0.29423 0.65133 1.10557 0.0
H731 H 0.32601 0.64508 1.0898 0.0
H732 H 0.42186 0.71084 0.18194 0.0
H733 H 0.40259 0.72504 0.24592 0.0
H734 H 0.31668 0.70187 0.18052 0.0
C735 C 0.37888 0.72475 1.0366 0.0
C736 C 0.41092 0.74478 1.02704 0.0
C737 C 0.43367 0.74247 1.05171 0.0
C738 C 0.42476 0.72349 1.08886 0.0
C739 C 0.39303 0.70687 1.10076 0.0
C740 C 0.37017 0.70661 1.07447 0.0
C741 C 0.33947 0.69474 1.09887 0.0
C742 C 0.32529 0.71645 1.0926 0.0
C743 C 0.31593 0.6608 1.08556 0.0
C744 C 0.35058 0.6953 0.14451 0.0
C745 C 0.38059 0.6993 0.14454 0.0
C746 C 0.39823 0.70703 0.18224 0.0
C747 C 0.38699 0.71495 0.21889 0.0
C748 C 0.35846 0.71525 0.21743 0.0
C749 C 0.33867 0.70192 0.18172 0.0
H750 H 0.66839 0.40601 0.37796 0.0
H751 H 0.58306 0.33138 0.32353 0.0
H752 H 0.57053 0.30218 0.39144 0.0
H753 H 0.67381 0.3499 0.47351 0.0
H754 H 0.68845 0.38353 0.50857 0.0
H755 H 0.70065 0.38872 0.4527 0.0
H756 H 0.6826 0.4297 0.44387 0.0
H757 H 0.67015 0.42439 0.4988 0.0
H758 H 0.64254 0.41856 0.45688 0.0
H759 H 0.5536 0.29662 0.46495 0.0
H760 H 0.53823 0.31304 0.53092 0.0
H761 H 0.63371 0.38876 0.54661 0.0
C762 C 0.6482 0.38254 0.38 0.0
C763 C 0.62646 0.37126 0.34604 0.0
C764 C 0.60021 0.34054 0.34899 0.0
C765 C 0.59284 0.32372 0.38788 0.0
C766 C 0.61215 0.33772 0.42333 0.0
C767 C 0.64031 0.36595 0.41928 0.0
C768 C 0.65294 0.37991 0.46325 0.0
C769 C 0.68059 0.37521 0.47521 0.0
C770 C 0.6625 0.41515 0.46578 0.0
C771 C 0.62457 0.35916 0.49119 0.0
C772 C 0.60212 0.3337 0.46823 0.0
C773 C 0.57141 0.31558 0.48385 0.0
C774 C 0.56276 0.32512 0.52157 0.0
C775 C 0.58478 0.35254 0.54336 0.0
C776 C 0.61649 0.36789 0.53002 0.0
H777 H 0.27554 0.60525 0.86089 0.0
H778 H 0.24685 0.67124 0.9026 0.0
H779 H 0.26607 0.70039 0.83485 0.0
H780 H 0.33919 0.66517 0.76953 0.0
H781 H 0.32707 0.63112 0.73589 0.0
H782 H 0.33123 0.62822 0.79324 0.0
H783 H 0.27442 0.58148 0.79721 0.0
H784 H 0.27035 0.58478 0.74079 0.0
H785 H 0.24282 0.58673 0.77757 0.0
H786 H 0.26029 0.70393 0.75876 0.0
H787 H 0.23518 0.68431 0.68904 0.0
H788 H 0.26633 0.61584 0.68838 0.0
C789 C 0.27539 0.62709 0.8564 0.0
C790 C 0.25904 0.63547 0.88615 0.0
C791 C 0.2592 0.66419 0.88024 0.0
C792 C 0.27007 0.68096 0.84139 0.0
C793 C 0.28099 0.66889 0.80909 0.0
C794 C 0.28512 0.64324 0.81686 0.0
C795 C 0.28918 0.62974 0.77487 0.0
C796 C 0.32372 0.63914 0.76798 0.0
C797 C 0.26782 0.59358 0.77259 0.0
C798 C 0.27973 0.64694 0.743 0.0
C799 C 0.2775 0.67108 0.76288 0.0
C800 C 0.26318 0.68602 0.74244 0.0
C801 C 0.2488 0.67461 0.70259 0.0
C802 C 0.24857 0.64827 0.68357 0.0
C803 C 0.26619 0.63595 0.70254 0.0
H804 H 0.42529 0.99019 1.00131 0.0
H805 H 0.40406 0.89922 1.0525 0.0
H806 H 0.41557 0.92163 0.12575 0.0
H807 H 0.49179 0.03962 1.07323 0.0
H808 H 0.48186 0.06997 1.08069 0.0
H809 H 0.47017 0.04654 1.03229 0.0
H810 H 0.41284 0.03152 1.04803 0.0
H811 H 0.42469 0.05446 1.09681 0.0
H812 H 0.39504 0.01337 1.099 0.0
H813 H 0.43503 0.9565 0.19904 0.0
H814 H 0.45399 -0.00434 0.25772 0.0
H815 H 0.46599 0.06776 0.16598 0.0
C816 C 0.42319 0.9747 1.02766 0.0
C817 C 0.41316 0.94157 1.0181 0.0
C818 C 0.41143 0.92395 1.05595 0.0
C819 C 0.41835 0.93695 1.09884 0.0
C820 C 0.42912 0.9692 1.10665 0.0
C821 C 0.43133 0.98794 1.07176 0.0
C822 C 0.44278 0.02191 1.08994 0.0
C823 C 0.47346 0.04597 1.06765 0.0
C824 C 0.41734 0.03087 1.083 0.0
C825 C 0.44798 0.01981 0.13957 0.0
C826 C 0.43944 0.98877 0.14827 0.0
C827 C 0.44175 0.98064 0.19142 0.0
C828 C 0.45281 0.00365 0.22555 0.0
C829 C 0.46252 0.03626 0.21933 0.0
C830 C 0.45949 0.04376 0.17423 0.0
H831 H 0.46736 0.3986 0.39655 0.0
H832 H 0.43947 0.44711 0.30558 0.0
H833 H 0.41629 0.46204 0.36542 0.0
H834 H 0.39183 0.36989 0.46222 0.0
H835 H 0.40882 0.37063 0.51375 0.0
H836 H 0.42499 0.3638 0.46524 0.0
H837 H 0.4812 0.41331 0.47967 0.0
H838 H 0.46296 0.41283 0.53053 0.0
H839 H 0.48192 0.4483 0.49958 0.0
H840 H 0.39652 0.47566 0.4398 0.0
H841 H 0.38311 0.48404 0.51368 0.0
H842 H 0.41824 0.42508 0.56378 0.0
C843 C 0.45673 0.4127 0.38877 0.0
C844 C 0.45675 0.42173 0.34326 0.0
C845 C 0.44099 0.43943 0.33781 0.0
C846 C 0.42731 0.44821 0.37265 0.0
C847 C 0.42765 0.43907 0.41591 0.0
C848 C 0.44188 0.42132 0.42422 0.0
C849 C 0.43659 0.41283 0.47392 0.0
C850 C 0.41426 0.37717 0.47911 0.0
C851 C 0.46754 0.42239 0.49706 0.0
C852 C 0.42053 0.43122 0.49273 0.0
C853 C 0.41474 0.44529 0.45792 0.0
C854 C 0.40071 0.46393 0.46642 0.0
C855 C 0.39293 0.46873 0.50969 0.0
C856 C 0.398 0.45507 0.54748 0.0
C857 C 0.41249 0.43576 0.53741 0.0
H858 H 0.985 0.42592 0.66823 0.0
H859 H 0.07692 0.49125 0.71781 0.0
H860 H 0.05541 0.47835 0.79195 0.0
H861 H 0.94009 0.44139 0.73167 0.0
H862 H 0.90809 0.40495 0.75266 0.0
H863 H 0.92666 0.40603 0.70185 0.0
H864 H 0.94462 0.36828 0.71897 0.0
H865 H 0.92099 0.35886 0.76743 0.0
H866 H 0.96154 0.36911 0.77058 0.0
H867 H 0.02152 0.46152 0.86699 0.0
H868 H 0.98284 0.44414 0.92673 0.0
H869 H 0.90849 0.39137 0.83593 0.0
C870 C 0.00102 0.43755 0.69445 0.0
C871 C 0.03405 0.46052 0.68388 0.0
C872 C 0.05228 0.4741 0.72179 0.0
C873 C 0.03993 0.46633 0.76534 0.0
C874 C 0.00781 0.44481 0.77425 0.0
C875 C -0.01152 0.43036 0.73941 0.0
C876 C 0.95439 0.40919 0.75856 0.0
C877 C 0.93088 0.41578 0.73503 0.0
C878 C 0.94479 0.37429 0.75356 0.0
C879 C 0.95668 0.41722 0.80825 0.0
C880 C -0.0117 0.43668 0.81651 0.0
C881 C -0.003 0.44617 0.85976 0.0
C882 C 0.97418 0.43601 0.89458 0.0
C883 C 0.94102 0.41635 0.88921 0.0
C884 C 0.93285 0.40688 0.84373 0.0
H885 H 0.52444 0.98964 0.22837 0.0
H886 H 0.45436 0.89919 0.17871 0.0
H887 H 0.46653 0.92147 1.10489 0.0
H888 H 0.5117 0.04164 0.15215 0.0
H889 H 0.5526 0.07004 0.1466 0.0
H890 H 0.53809 0.04637 0.19509 0.0
H891 H 0.57922 0.02885 0.18188 0.0
H892 H 0.59182 0.05139 0.13234 0.0
H893 H 0.57861 0.00981 0.13191 0.0
H894 H 0.48363 0.95627 1.03052 0.0
H895 H 0.50659 -0.00532 0.97057 0.0
H896 H 0.56639 0.0664 1.0612 0.0
C897 C 0.51104 0.97428 0.20229 0.0
C898 C 0.48733 0.94138 0.21264 0.0
C899 C 0.47193 0.92381 0.1749 0.0
C900 C 0.4788 0.93674 0.13162 0.0
C901 C 0.50086 0.96881 0.1231 0.0
C902 C 0.51714 0.98742 0.15776 0.0
C903 C 0.54096 0.02097 0.13877 0.0
C904 C 0.53556 0.04628 0.15949 0.0
C905 C 0.57466 0.02821 0.14673 0.0
C906 C 0.53448 0.01899 1.0889 0.0
C907 C 0.51136 0.98823 1.08086 0.0
C908 C 0.5016 0.98016 1.03766 0.0
C909 C 0.51509 0.00281 1.00277 0.0
C910 C 0.53869 0.03519 1.00812 0.0
C911 C 0.54827 0.04271 1.05345 0.0
H912 H 0.52689 0.49678 0.5269 0.0
H913 H 0.60862 0.58657 0.55539 0.0
H914 H 0.60057 0.60879 0.48826 0.0
H915 H 0.5366 0.5028 0.40388 0.0
H916 H 0.49511 0.48441 0.3953 0.0
H917 H 0.51009 0.4753 0.44284 0.0
H918 H 0.47473 0.49199 0.4882 0.0
H919 H 0.46304 0.50416 0.4396 0.0
H920 H 0.48183 0.53152 0.48253 0.0
H921 H 0.58322 0.62255 0.40847 0.0
H922 H 0.55828 0.62527 0.34075 0.0
H923 H 0.48384 0.52926 0.36191 0.0
C924 C 0.54355 0.52112 0.51929 0.0
C925 C 0.5693 0.53902 0.54957 0.0
C926 C 0.58895 0.57109 0.53547 0.0
C927 C 0.58444 0.58431 0.49608 0.0
C928 C 0.55935 0.5663 0.46771 0.0
C929 C 0.53905 0.53519 0.47927 0.0
C930 C 0.51302 0.52151 0.44389 0.0
C931 C 0.51356 0.49428 0.42025 0.0
C932 C 0.48116 0.51148 0.46483 0.0
C933 C 0.52122 0.54886 0.411 0.0
C934 C 0.54864 0.57457 0.42505 0.0
C935 C 0.56157 0.60207 0.39877 0.0
C936 C 0.54682 0.60347 0.35908 0.0
C937 C 0.51791 0.57808 0.34305 0.0
C938 C 0.50535 0.5501 0.37113 0.0
H939 H 0.01669 0.52137 0.86853 0.0
H940 H 0.03785 0.61727 0.88853 0.0
H941 H 0.01031 0.61498 0.82067 0.0
H942 H 0.02201 0.52658 0.74833 0.0
H943 H -0.00869 0.48648 0.74351 0.0
H944 H 0.01534 0.50023 0.79223 0.0
H945 H 0.96249 0.47743 0.83719 0.0
H946 H 0.93884 0.46682 0.78931 0.0
H947 H 0.93777 0.49385 0.82682 0.0
H948 H 0.97912 0.60042 0.73832 0.0
H949 H 0.94965 0.57687 0.67125 0.0
H950 H 0.94284 0.48813 0.70574 0.0
C951 C 0.01587 0.54225 0.85916 0.0
C952 C 0.0312 0.57001 0.88666 0.0
C953 C 0.02755 0.59555 0.87043 0.0
C954 C 0.01144 0.59439 0.8307 0.0
C955 C -0.00313 0.5669 0.80486 0.0
C956 C -0.00136 0.5412 0.81969 0.0
C957 C 0.98038 0.51408 0.78731 0.0
C958 C 0.00351 0.506 0.76658 0.0
C959 C 0.95336 0.48627 0.81139 0.0
C960 C 0.96767 0.52717 0.75184 0.0
C961 C 0.97809 0.55835 0.762 0.0
C962 C 0.97111 0.57584 0.73192 0.0
C963 C 0.9539 0.56187 0.69254 0.0
C964 C 0.94219 0.52961 0.68021 0.0
C965 C 0.94994 0.51247 0.71204 0.0
H966 H 0.53422 0.04368 0.44505 0.0
H967 H 0.446 0.03578 0.41132 0.0
H968 H 0.42288 0.00777 0.4785 0.0
H969 H 0.53239 -0.00455 0.43962 0.0
H970 H 0.53422 0.97092 0.48146 0.0
H971 H 0.55408 0.01307 0.48761 0.0
H972 H 0.52799 0.0085 0.5587 0.0
H973 H 0.50852 0.96611 0.55501 0.0
H974 H 0.48633 0.98539 0.56584 0.0
H975 H 0.39862 0.95152 0.49437 0.0
H976 H 0.39125 0.92354 0.4267 0.0
H977 H 0.48863 0.95034 0.42488 0.0
C978 C 0.50981 0.03542 0.45252 0.0
C979 C 0.49114 0.03935 0.42191 0.0
C980 C 0.46024 0.03097 0.43297 0.0
C981 C 0.44742 0.01587 0.47212 0.0
C982 C 0.46295 0.00281 0.49451 0.0
C983 C 0.49536 0.01504 0.48773 0.0
C984 C 0.50302 0.98953 0.49787 0.0
C985 C 0.53255 0.99239 0.47509 0.0
C986 C 0.50656 0.98723 0.54718 0.0
C987 C 0.47222 0.96254 0.48288 0.0
C988 C 0.44831 0.96825 0.49632 0.0
C989 C 0.41786 0.94938 0.48107 0.0
C990 C 0.41419 0.93481 0.4414 0.0
C991 C 0.44041 0.937 0.41954 0.0
C992 C 0.46893 0.94927 0.44145 0.0
H993 H 0.39122 0.4234 0.78108 0.0
H994 H 0.39321 0.40871 0.6464 0.0
H995 H 0.4327 0.39313 0.65731 0.0
H996 H 0.43469 0.47401 0.79733 0.0
H997 H 0.46414 0.47953 0.83556 0.0
H998 H 0.42598 0.44525 0.8398 0.0
H999 H 0.4545 0.41187 0.83755 0.0
H1000 H 0.49128 0.4484 0.83233 0.0
H1001 H 0.48102 0.41743 0.79373 0.0
H1002 H 0.47099 0.44933 0.64338 0.0
H1003 H 0.50801 0.50632 0.64278 0.0
H1004 H 0.50339 0.50904 0.78028 0.0
C1005 C 0.40082 0.41651 0.7545 0.0
C1006 C 0.39547 0.42367 0.71271 0.0
C1007 C 0.40078 0.40791 0.67886 0.0
C1008 C 0.42387 0.39973 0.68511 0.0
C1009 C 0.44329 0.41408 0.72064 0.0
C1010 C 0.42972 0.41739 0.75943 0.0
C1011 C 0.45505 0.44314 0.78711 0.0
C1012 C 0.44421 0.46153 0.81653 0.0
C1013 C 0.47151 0.42941 0.81418 0.0
C1014 C 0.47611 0.46318 0.75132 0.0
C1015 C 0.46989 0.4458 0.71368 0.0
C1016 C 0.47921 0.46166 0.67362 0.0
C1017 C 0.49868 0.49444 0.67341 0.0
C1018 C 0.51358 0.50881 0.71219 0.0
C1019 C 0.49621 0.49596 0.75045 0.0
H1020 H 0.95232 0.41671 1.08777 0.0
H1021 H 0.91886 0.48067 0.11828 0.0
H1022 H 0.94746 0.49414 0.18537 0.0
H1023 H 0.00396 0.44972 0.22065 0.0
H1024 H 0.03162 0.44045 0.19665 0.0
H1025 H -0.0092 0.41059 0.20108 0.0
H1026 H -0.01047 0.39963 0.12041 0.0
H1027 H 0.03057 0.42848 0.11807 0.0
H1028 H 0.00391 0.43129 1.08163 0.0
H1029 H -0.00142 0.53562 0.16166 0.0
H1030 H 0.01994 0.55208 1.08904 0.0
H1031 H 0.04805 0.4818 1.08823 0.0
C1032 C 0.95156 0.43361 1.10942 0.0
C1033 C 0.93653 0.45016 1.09596 0.0
C1034 C 0.93268 0.46968 0.1258 0.0
C1035 C 0.94798 0.47644 0.16507 0.0
C1036 C 0.97194 0.4693 0.16918 0.0
C1037 C 0.96962 0.44302 0.14756 0.0
C1038 C 0.00126 0.44519 0.14923 0.0
C1039 C 0.00721 0.43603 0.19457 0.0
C1040 C 0.00657 0.42505 1.11519 0.0
C1041 C 0.02041 0.48049 0.14278 0.0
C1042 C 0.00448 0.49459 0.16165 0.0
C1043 C 0.00997 0.52407 0.14641 0.0
C1044 C 0.02163 0.53326 1.10455 0.0
C1045 C 0.03422 0.51719 1.08253 0.0
C1046 C 0.03696 0.49335 1.10425 0.0
H1047 H 0.05134 0.56767 0.52003 0.0
H1048 H 0.02866 0.48655 0.44167 0.0
H1049 H 0.01726 0.51068 0.38134 0.0
H1050 H 0.01297 0.58074 0.53394 0.0
H1051 H 0.0074 0.61181 0.51279 0.0
H1052 H 0.04629 0.61742 0.51769 0.0
H1053 H 0.05868 0.63336 0.4399 0.0
H1054 H 0.02054 0.62956 0.43483 0.0
H1055 H 0.03304 0.61005 0.39745 0.0
H1056 H 0.96683 0.50664 0.37161 0.0
H1057 H 0.93456 0.47297 0.43085 0.0
H1058 H 0.96323 0.55494 0.50933 0.0
C1059 C 0.04365 0.55531 0.48976 0.0
C1060 C 0.0382 0.52428 0.48659 0.0
C1061 C 0.03095 0.50954 0.44605 0.0
C1062 C 0.02553 0.52385 0.41099 0.0
C1063 C 0.02191 0.55002 0.41867 0.0
C1064 C 0.03519 0.56845 0.45543 0.0
C1065 C 0.01978 0.588 0.46278 0.0
C1066 C 0.02163 0.60002 0.50959 0.0
C1067 C 0.03378 0.6168 0.43182 0.0
C1068 C -0.01251 0.56332 0.44803 0.0
C1069 C -0.00901 0.54734 0.41253 0.0
C1070 C 0.96604 0.51759 0.40154 0.0
C1071 C 0.94806 0.49819 0.43557 0.0
C1072 C 0.94921 0.51159 0.47597 0.0
C1073 C 0.96464 0.54464 0.47924 0.0
H1074 H 0.46171 0.94193 0.76661 0.0
H1075 H 0.39442 0.95689 0.83561 0.0
H1076 H 0.39159 0.98705 0.77548 0.0
H1077 H 0.51024 0.98478 0.75485 0.0
H1078 H 0.52831 0.00715 0.70665 0.0
H1079 H 0.49993 0.96577 0.70338 0.0
H1080 H 0.46924 0.97728 0.64935 0.0
H1081 H 0.49739 0.01883 0.65212 0.0
H1082 H 0.45627 0.00494 0.65986 0.0
H1083 H 0.4292 0.04263 0.77603 0.0
H1084 H 0.46416 0.06141 0.83781 0.0
H1085 H 0.52563 0.03493 0.77475 0.0
C1086 C 0.44662 0.95209 0.76815 0.0
C1087 C 0.43011 0.9493 0.80661 0.0
C1088 C 0.40836 0.95984 0.80727 0.0
C1089 C 0.40645 0.97667 0.77235 0.0
C1090 C 0.43131 0.98892 0.74252 0.0
C1091 C 0.44837 0.9732 0.73583 0.0
C1092 C 0.47941 -0.00395 0.71517 0.0
C1093 C 0.50599 0.98797 0.72057 0.0
C1094 C 0.47528 -0.00046 0.66637 0.0
C1095 C 0.48389 0.02473 0.7394 0.0
C1096 C 0.45462 0.02282 0.74419 0.0
C1097 C 0.45073 0.04172 0.77476 0.0
C1098 C 0.46995 0.05116 0.81087 0.0
C1099 C 0.49554 0.04597 0.81251 0.0
C1100 C 0.50447 0.03648 0.77462 0.0
H1101 H 0.54233 0.5846 0.17057 0.0
H1102 H 0.4604 0.52446 1.09673 0.0
H1103 H 0.49392 0.52782 1.03642 0.0
H1104 H 0.59792 0.57107 1.05799 0.0
H1105 H 0.62319 0.57186 1.10001 0.0
H1106 H 0.61659 0.60455 1.09272 0.0
H1107 H 0.60066 0.60156 0.17148 0.0
H1108 H 0.60913 0.57004 0.17816 0.0
H1109 H 0.57203 0.5648 0.1956 0.0
H1110 H 0.50125 0.48322 1.04974 0.0
H1111 H 0.48061 0.44954 1.11319 0.0
H1112 H 0.56231 0.5139 0.18497 0.0
C1113 C 0.53203 0.57169 0.14135 0.0
C1114 C 0.49927 0.55181 0.13981 0.0
C1115 C 0.4856 0.53799 1.10031 0.0
C1116 C 0.50488 0.54053 1.06563 0.0
C1117 C 0.53537 0.54749 1.07581 0.0
C1118 C 0.55106 0.56841 1.10988 0.0
C1119 C 0.57757 0.56344 0.12429 0.0
C1120 C 0.60531 0.57852 1.09175 0.0
C1121 C 0.59042 0.57557 0.17012 0.0
C1122 C 0.55996 0.52813 0.11952 0.0
C1123 C 0.54039 0.5206 1.08354 0.0
C1124 C 0.51517 0.48993 1.07877 0.0
C1125 C 0.50273 0.4714 0.11556 0.0
C1126 C 0.51865 0.48093 0.15504 0.0
C1127 C 0.54885 0.50771 0.15559 0.0
H1128 H 0.30309 0.99015 0.7246 0.0
H1129 H 0.24023 0.89381 0.68678 0.0
H1130 H 0.23702 0.91203 0.61374 0.0
H1131 H 0.27252 0.03045 0.64338 0.0
H1132 H 0.31231 0.06185 0.63514 0.0
H1133 H 0.29973 0.04339 0.68751 0.0
H1134 H 0.34543 0.0315 0.68703 0.0
H1135 H 0.35777 0.04918 0.63475 0.0
H1136 H 0.34869 0.00904 0.64328 0.0
H1137 H 0.25309 0.93721 0.54276 0.0
H1138 H 0.28665 0.96694 0.48077 0.0
H1139 H 0.34009 0.04748 0.563 0.0
C1140 C 0.28713 0.97325 0.70159 0.0
C1141 C 0.27161 0.94078 0.71104 0.0
C1142 C 0.25201 0.91888 0.67993 0.0
C1143 C 0.24994 0.92907 0.63851 0.0
C1144 C 0.26752 0.96121 0.62895 0.0
C1145 C 0.28538 0.98312 0.65993 0.0
C1146 C 0.30731 0.01496 0.63981 0.0
C1147 C 0.29736 0.03908 0.65219 0.0
C1148 C 0.34179 0.02679 0.65191 0.0
C1149 C 0.30146 0.00666 0.59261 0.0
C1150 C 0.27749 0.97597 0.58693 0.0
C1151 C 0.2711 0.96159 0.54661 0.0
C1152 C 0.29033 0.97859 0.51158 0.0
C1153 C 0.31586 0.00939 0.51742 0.0
C1154 C 0.32056 0.02396 0.55792 0.0
H1155 H 0.30402 0.3326 1.04944 0.0
H1156 H 0.33167 0.26471 1.01197 0.0
H1157 H 0.29992 0.25273 0.94624 0.0
H1158 H 0.22269 0.29119 0.99493 0.0
H1159 H 0.22765 0.32895 0.9795 0.0
H1160 H 0.24382 0.32477 1.02948 0.0
H1161 H 0.29877 0.36996 1.006 0.0
H1162 H 0.28279 0.3743 0.95649 0.0
H1163 H 0.31528 0.36706 0.95526 0.0
H1164 H 0.27871 0.25897 0.87778 0.0
H1165 H 0.27192 0.28415 0.81311 0.0
H1166 H 0.25523 0.34632 0.89412 0.0
C1167 C 0.30247 0.31447 1.028 0.0
C1168 C 0.32018 0.29957 1.03561 0.0
C1169 C 0.31789 0.27609 1.00695 0.0
C1170 C 0.29979 0.26904 0.96962 0.0
C1171 C 0.28371 0.28527 0.96189 0.0
C1172 C 0.28451 0.30723 0.99068 0.0
C1173 C 0.26997 0.32538 0.97176 0.0
C1174 C 0.2392 0.31706 0.99532 0.0
C1175 C 0.29309 0.36125 0.97238 0.0
C1176 C 0.26377 0.31251 0.92641 0.0
C1177 C 0.27074 0.28855 0.92172 0.0
C1178 C 0.27208 0.27686 0.88124 0.0
C1179 C 0.26808 0.29124 0.84458 0.0
C1180 C 0.2631 0.31718 0.84883 0.0
C1181 C 0.25882 0.32637 0.89021 0.0
H1182 H 0.93841 0.28727 0.23048 0.0
H1183 H 0.02428 0.32792 0.15501 0.0
H1184 H 0.05176 0.32069 0.21653 0.0
H1185 H 0.96869 0.32705 0.31801 0.0
H1186 H 0.94515 0.29666 0.35683 0.0
H1187 H 0.93058 0.29502 0.3037 0.0
H1188 H 0.92302 0.23899 0.29432 0.0
H1189 H 0.93814 0.2408 0.34773 0.0
H1190 H 0.95575 0.23266 0.30201 0.0
H1191 H 0.07247 0.32284 0.28936 0.0
H1192 H 0.08472 0.33746 0.3657 0.0
H1193 H 0.98556 0.29543 0.39455 0.0
C1194 C 0.96276 0.29365 0.22664 0.0
C1195 C 0.97935 0.30819 0.18839 0.0
C1196 C 0.01116 0.31643 0.1841 0.0
C1197 C 0.02685 0.31221 0.21879 0.0
C1198 C 0.0102 0.29918 0.25709 0.0
C1199 C 0.97864 0.28964 0.26094 0.0
C1200 C 0.96737 0.28202 0.30719 0.0
C1201 C 0.95213 0.30137 0.32228 0.0
C1202 C 0.94474 0.2465 0.31315 0.0
C1203 C -0.00185 0.29201 0.3294 0.0
C1204 C 0.02237 0.30049 0.29992 0.0
C1205 C 0.05363 0.31541 0.31276 0.0
C1206 C 0.06041 0.32376 0.35619 0.0
C1207 C 0.03605 0.31761 0.38596 0.0
C1208 C 0.00459 0.29965 0.37283 0.0
H1209 H 0.67188 0.03534 0.66915 0.0
H1210 H 0.63479 0.94905 0.74396 0.0
H1211 H 0.63804 0.9211 0.67972 0.0
H1212 H 0.62695 0.00469 0.58585 0.0
H1213 H 0.65481 0.02806 0.54427 0.0
H1214 H 0.65976 0.04299 0.59793 0.0
H1215 H 0.71571 0.05029 0.59949 0.0
H1216 H 0.71066 0.03494 0.5455 0.0
H1217 H 0.72123 0.01724 0.58846 0.0
H1218 H 0.63123 0.89999 0.60591 0.0
H1219 H 0.61315 0.88776 0.53075 0.0
H1220 H 0.65446 0.98756 0.5033 0.0
C1221 C 0.66551 0.01081 0.6722 0.0
C1222 C 0.65307 -0.00573 0.7112 0.0
C1223 C 0.64476 0.9622 0.71435 0.0
C1224 C 0.64666 0.94619 0.67804 0.0
C1225 C 0.65743 0.96278 0.63917 0.0
C1226 C 0.66716 -0.0054 0.63625 0.0
C1227 C 0.67208 0.0058 0.5899 0.0
C1228 C 0.65219 0.02122 0.57888 0.0
C1229 C 0.707 0.0284 0.58028 0.0
C1230 C 0.66062 0.97476 0.56703 0.0
C1231 C 0.65345 0.95039 0.59585 0.0
C1232 C 0.63765 0.91895 0.5829 0.0
C1233 C 0.62733 0.91217 0.54017 0.0
C1234 C 0.63251 0.93674 0.5112 0.0
C1235 C 0.65102 0.96835 0.52426 0.0
H1236 H 0.65787 0.70414 1.01257 0.0
H1237 H 0.67771 0.64529 1.09586 0.0
H1238 H 0.71357 0.64441 1.04044 0.0
H1239 H 0.64702 0.6642 0.92493 0.0
H1240 H 0.66435 0.69653 0.88687 0.0
H1241 H 0.64958 0.70139 0.93736 0.0
H1242 H 0.70393 0.74975 0.95399 0.0
H1243 H 0.71898 0.74477 0.90319 0.0
H1244 H 0.73844 0.74582 0.9527 0.0
H1245 H 0.73423 0.63752 0.97087 0.0
H1246 H 0.73587 0.62399 0.89467 0.0
H1247 H 0.70294 0.68755 0.85628 0.0
C1248 C 0.67081 0.69215 1.0196 0.0
C1249 C 0.66519 0.6748 1.05813 0.0
C1250 C 0.68208 0.65904 1.06656 0.0
C1251 C 0.70259 0.65855 1.03532 0.0
C1252 C 0.70635 0.67451 0.99637 0.0
C1253 C 0.69127 0.69151 0.98878 0.0
C1254 C 0.69435 0.70171 0.94212 0.0
C1255 C 0.66192 0.69022 0.92166 0.0
C1256 C 0.71518 0.73765 0.93776 0.0
C1257 C 0.71063 0.68504 0.92366 0.0
C1258 C 0.71855 0.67053 0.95562 0.0
C1259 C 0.72906 0.64955 0.94569 0.0
C1260 C 0.72977 0.64186 0.90231 0.0
C1261 C 0.71957 0.65478 0.86955 0.0
C1262 C 0.7118 0.67803 0.88037 0.0
H1263 H 0.02231 0.70654 0.18933 0.0
H1264 H 0.11815 0.73782 0.22584 0.0
H1265 H 0.10473 0.74172 0.3014 0.0
H1266 H 0.00354 0.74952 0.28304 0.0
H1267 H 0.96452 0.7159 0.28639 0.0
H1268 H 0.98413 0.72868 0.23476 0.0
H1269 H 0.97458 0.67238 0.22192 0.0
H1270 H 0.95596 0.6596 0.27347 0.0
H1271 H -0.01067 0.65526 0.26028 0.0
H1272 H 0.07804 0.72435 0.37203 0.0
H1273 H 0.0415 0.69063 0.42945 0.0
H1274 H 0.96278 0.67051 0.34786 0.0
C1275 C 0.04103 0.71635 0.2126 0.0
C1276 C 0.07118 0.72166 0.20174 0.0
C1277 C 0.09479 0.7334 0.23352 0.0
C1278 C 0.08738 0.73587 0.27655 0.0
C1279 C 0.05646 0.72715 0.28704 0.0
C1280 C 0.03379 0.7185 0.2556 0.0
C1281 C 0.00122 0.70386 0.27524 0.0
C1282 C -0.01244 0.72581 0.26953 0.0
C1283 C 0.97906 0.67085 0.25665 0.0
C1284 C 0.00872 0.7021 0.32194 0.0
C1285 C 0.04075 0.71684 0.32858 0.0
C1286 C 0.05301 0.71382 0.36764 0.0
C1287 C 0.03213 0.69453 0.40003 0.0
C1288 C -0.00052 0.6781 0.39269 0.0
C1289 C -0.01227 0.6831 0.35404 0.0
H1290 H 0.49003 0.10793 0.53175 0.0
H1291 H 0.57104 0.10915 0.47411 0.0
H1292 H 0.59029 0.10736 0.5466 0.0
H1293 H 0.53394 0.15923 0.62565 0.0
H1294 H 0.50247 0.13875 0.6642 0.0
H1295 H 0.49384 0.13916 0.60782 0.0
H1296 H 0.46225 0.07906 0.6093 0.0
H1297 H 0.47174 0.0773 0.66501 0.0
H1298 H 0.48091 0.0569 0.6242 0.0
H1299 H 0.60192 0.10357 0.63084 0.0
H1300 H 0.60562 0.10268 0.71017 0.0
H1301 H 0.52077 0.10818 0.72187 0.0
C1302 C 0.51197 0.10796 0.53388 0.0
C1303 C 0.52849 0.10882 0.49376 0.0
C1304 C 0.55714 0.10879 0.50154 0.0
C1305 C 0.56853 0.10763 0.54381 0.0
C1306 C 0.55213 0.10702 0.5817 0.0
C1307 C 0.52446 0.10763 0.57716 0.0
C1308 C 0.51218 0.10788 0.62402 0.0
C1309 C 0.51048 0.13804 0.63083 0.0
C1310 C 0.47982 0.07856 0.63111 0.0
C1311 C 0.53685 0.10722 0.6553 0.0
C1312 C 0.55951 0.10635 0.62962 0.0
C1313 C 0.58417 0.10468 0.65032 0.0
C1314 C 0.58618 0.1042 0.69668 0.0
C1315 C 0.56433 0.10597 0.72562 0.0
C1316 C 0.53893 0.10742 0.70296 0.0
H1317 H 0.44543 0.54912 0.83765 0.0
H1318 H 0.34814 0.47791 0.85745 0.0
H1319 H 0.35389 0.48943 0.93555 0.0
H1320 H 0.47386 0.53208 0.94138 0.0
H1321 H 0.50266 0.57255 0.95185 0.0
H1322 H 0.49154 0.5595 0.89711 0.0
H1323 H 0.47722 0.60284 0.88534 0.0
H1324 H 0.48826 0.61596 0.94005 0.0
H1325 H 0.44961 0.60523 0.92142 0.0
H1326 H 0.37017 0.51033 1.01793 0.0
H1327 H 0.39364 0.53396 1.08749 0.0
H1328 H 0.483 0.59229 1.02328 0.0
C1329 C 0.42502 0.53572 0.85804 0.0
C1330 C 0.39561 0.51199 0.83781 0.0
C1331 C 0.37081 0.49594 0.8688 0.0
C1332 C 0.374 0.50258 0.91455 0.0
C1333 C 0.40267 0.52574 0.93275 0.0
C1334 C 0.42804 0.54194 0.90513 0.0
C1335 C 0.45653 0.56516 0.9339 0.0
C1336 C 0.48273 0.55686 0.93085 0.0
C1337 C 0.46865 0.59934 0.91928 0.0
C1338 C 0.44344 0.56013 0.98149 0.0
C1339 C 0.41209 0.53707 0.97952 0.0
C1340 C 0.39471 0.52824 1.01856 0.0
C1341 C 0.40872 0.54233 1.05924 0.0
C1342 C 0.44096 0.56615 1.06461 0.0
C1343 C 0.45834 0.57476 1.02325 0.0
H1344 H 0.86956 0.45423 0.1712 0.0
H1345 H 0.871 0.36726 0.1896 0.0
H1346 H 0.87125 0.37424 0.26841 0.0
H1347 H 0.92378 0.49566 0.26378 0.0
H1348 H 0.90498 0.51762 0.27973 0.0
H1349 H 0.90339 0.50568 0.22435 0.0
H1350 H 0.84311 0.47798 0.22724 0.0
H1351 H 0.8446 0.48973 0.28268 0.0
H1352 H 0.82199 0.44869 0.26844 0.0
H1353 H 0.86932 0.3898 0.35189 0.0
H1354 H 0.87041 0.41277 0.42272 0.0
H1355 H 0.87588 0.49438 0.35939 0.0
C1356 C 0.86962 0.43622 0.19142 0.0
C1357 C 0.86956 0.40915 0.17053 0.0
C1358 C 0.87055 0.38782 0.20141 0.0
C1359 C 0.87077 0.39177 0.24761 0.0
C1360 C 0.87081 0.41809 0.26648 0.0
C1361 C 0.87079 0.44041 0.239 0.0
C1362 C 0.87267 0.46746 0.26855 0.0
C1363 C 0.903 0.49847 0.25848 0.0
C1364 C 0.84389 0.47122 0.26127 0.0
C1365 C 0.87301 0.45679 0.31646 0.0
C1366 C 0.87162 0.42787 0.31389 0.0
C1367 C 0.87066 0.41253 0.35302 0.0
C1368 C 0.8712 0.42617 0.39444 0.0
C1369 C 0.87329 0.45622 0.40044 0.0
C1370 C 0.87437 0.47157 0.35894 0.0
H1371 H 0.39479 0.87804 0.50581 0.0
H1372 H 0.48111 0.87512 0.51361 0.0
H1373 H 0.47732 0.87439 0.593 0.0
H1374 H 0.41331 0.93128 0.60167 0.0
H1375 H 0.37353 0.91374 0.62146 0.0
H1376 H 0.38111 0.9126 0.56467 0.0
H1377 H 0.34659 0.85228 0.56507 0.0
H1378 H 0.3385 0.85303 0.62177 0.0
H1379 H 0.35457 0.82918 0.60291 0.0
H1380 H 0.46355 0.87204 0.67719 0.0
H1381 H 0.4448 0.87237 0.75061 0.0
H1382 H 0.36814 0.88125 0.6982 0.0
C1383 C 0.4129 0.87685 0.52386 0.0
C1384 C 0.43831 0.8758 0.50001 0.0
C1385 C 0.46113 0.87539 0.52797 0.0
C1386 C 0.45913 0.87503 0.57438 0.0
C1387 C 0.43426 0.87587 0.59621 0.0
C1388 C 0.41163 0.87729 0.57166 0.0
C1389 C 0.3883 0.87971 0.60435 0.0
C1390 C 0.38908 0.9112 0.59762 0.0
C1391 C 0.35499 0.8519 0.59813 0.0
C1392 C 0.40054 0.87839 0.65063 0.0
C1393 C 0.42723 0.87611 0.64446 0.0
C1394 C 0.44272 0.87396 0.68129 0.0
C1395 C 0.43145 0.87406 0.7242 0.0
C1396 C 0.40429 0.87666 0.73391 0.0
C1397 C 0.38888 0.87911 0.69474 0.0
H1398 H 0.53481 0.4333 0.83842 0.0
H1399 H 0.61654 0.5253 0.85653 0.0
H1400 H 0.61015 0.51704 0.93555 0.0
H1401 H 0.48955 0.43693 0.93091 0.0
H1402 H 0.47282 0.39676 0.9497 0.0
H1403 H 0.48289 0.40598 0.89364 0.0
H1404 H 0.51856 0.3826 0.89254 0.0
H1405 H 0.50751 0.37037 0.9479 0.0
H1406 H 0.54833 0.39388 0.93303 0.0
H1407 H 0.59532 0.49725 1.0197 0.0
H1408 H 0.57361 0.47209 1.09016 0.0
H1409 H 0.49741 0.39298 1.02539 0.0
C1410 C 0.55159 0.45203 0.85863 0.0
C1411 C 0.57684 0.48061 0.83771 0.0
C1412 C 0.59718 0.50331 0.86844 0.0
C1413 C 0.59358 0.49864 0.91473 0.0
C1414 C 0.5689 0.47077 0.93364 0.0
C1415 C 0.54794 0.44779 0.90612 0.0
C1416 C 0.52311 0.42011 0.93543 0.0
C1417 C 0.49012 0.41466 0.92692 0.0
C1418 C 0.52443 0.38993 0.92669 0.0
C1419 C 0.53279 0.43095 0.98323 0.0
C1420 C 0.5598 0.46021 0.98104 0.0
C1421 C 0.57408 0.4745 1.02042 0.0
C1422 C 0.56122 0.45951 1.06158 0.0
C1423 C 0.5329 0.42975 1.06693 0.0
C1424 C 0.51874 0.41563 1.02533 0.0
H1425 H 0.09547 0.55686 0.39073 0.0
H1426 H 0.09747 0.47006 0.37493 0.0
H1427 H 0.09976 0.47738 0.29585 0.0
H1428 H 0.0441 0.54315 0.29505 0.0
H1429 H 0.06231 0.58396 0.27879 0.0
H1430 H 0.06262 0.57377 0.33466 0.0
H1431 H 0.12262 0.60765 0.33579 0.0
H1432 H 0.12272 0.61834 0.28002 0.0
H1433 H 0.14575 0.60087 0.29647 0.0
H1434 H 0.10413 0.49571 0.21153 0.0
H1435 H 0.10502 0.51854 0.14009 0.0
H1436 H 0.09455 0.59192 0.20213 0.0
C1437 C 0.09666 0.53928 0.37102 0.0
C1438 C 0.09685 0.51255 0.39261 0.0
C1439 C 0.09761 0.49081 0.36244 0.0
C1440 C 0.09892 0.4949 0.31614 0.0
C1441 C 0.09873 0.52095 0.29651 0.0
C1442 C 0.09705 0.54264 0.32336 0.0
C1443 C 0.09538 0.56764 0.29319 0.0
C1444 C 0.06426 0.56712 0.30089 0.0
C1445 C 0.12327 0.6006 0.30191 0.0
C1446 C 0.09711 0.55732 0.24568 0.0
C1447 C 0.09932 0.53028 0.24881 0.0
C1448 C 0.1022 0.51676 0.20995 0.0
C1449 C 0.10281 0.53034 0.16824 0.0
C1450 C 0.09997 0.55782 0.16194 0.0
C1451 C 0.09685 0.57107 0.20304 0.0
loop_
_geom_bond_atom_site_label_1
_geom_bond_atom_site_label_2
_geom_bond_distance
_geom_bond_site_symmetry_2
_ccdc_geom_bond_type
Sm0 C2 2.846 . S
Sm0 O20 2.543 . S
Sm0 O21 2.450 . S
Sm0 O22 2.681 . S
Sm0 O23 2.464 . S
Sm0 O24 2.396 . S
Sm0 O28 2.386 . S
Sm0 O31 2.408 . S
Sm1 C11 2.846 . S
Sm1 O22 2.386 . S
Sm1 O25 2.408 . S
Sm1 O26 2.543 . S
Sm1 O27 2.450 . S
Sm1 O28 2.681 . S
Sm1 O29 2.464 . S
Sm1 O30 2.396 . S
C2 Sm0 2.846 . S
C2 C3 1.506 . S
C2 O20 1.261 . S
C2 O21 1.242 . S
C3 C2 1.506 . S
C3 C4 1.358 . S
C3 C8 1.382 . S
C4 C3 1.358 . S
C4 C5 1.385 . S
C4 H32 0.930 . S
C5 C4 1.385 . S
C5 C6 1.395 . S
C5 H33 0.929 . S
C6 C5 1.395 . S
C6 C7 1.335 . S
C7 C6 1.335 . S
C7 C8 1.398 . S
C7 H34 0.930 . S
C8 C3 1.382 . S
C8 C7 1.398 . S
C8 H35 0.929 . S
C9 O22 1.271 . S
C9 O23 1.251 . S
C10 O24 1.252 . S
C10 O25 1.272 . S
C11 Sm1 2.846 . S
C11 C12 1.506 . S
C11 O26 1.261 . S
C11 O27 1.242 . S
C12 C11 1.506 . S
C12 C13 1.358 . S
C12 C17 1.382 . S
C13 C12 1.358 . S
C13 C14 1.385 . S
C13 H36 0.930 . S
C14 C13 1.385 . S
C14 C15 1.395 . S
C14 H37 0.929 . S
C15 C14 1.395 . S
C15 C16 1.335 . S
C16 C15 1.335 . S
C16 C17 1.398 . S
C16 H38 0.930 . S
C17 C12 1.382 . S
C17 C16 1.398 . S
C17 H39 0.929 . S
C18 O28 1.271 . S
C18 O29 1.251 . S
C19 O30 1.252 . S
C19 O31 1.272 . S
O20 Sm0 2.543 . S
O20 C2 1.261 . S
O21 Sm0 2.450 . S
O21 C2 1.242 . S
O22 Sm0 2.681 . S
O22 Sm1 2.386 . S
O22 C9 1.271 . S
O23 Sm0 2.464 . S
O23 C9 1.251 . S
O24 Sm0 2.396 . S
O24 C10 1.252 . S
O25 Sm1 2.408 . S
O25 C10 1.272 . S
O26 Sm1 2.543 . S
O26 C11 1.261 . S
O27 Sm1 2.450 . S
O27 C11 1.242 . S
O28 Sm0 2.386 . S
O28 Sm1 2.681 . S
O28 C18 1.271 . S
O29 Sm1 2.464 . S
O29 C18 1.251 . S
O30 Sm1 2.396 . S
O30 C19 1.252 . S
O31 Sm0 2.408 . S
O31 C19 1.272 . S
H32 C4 0.930 . S
H33 C5 0.929 . S
H34 C7 0.930 . S
H35 C8 0.929 . S
H36 C13 0.930 . S
H37 C14 0.929 . S
H38 C16 0.930 . S
H39 C17 0.929 . S
Sm40 C42 2.846 . S
Sm40 O60 2.543 . S
Sm40 O61 2.450 . S
Sm40 O62 2.681 . S
Sm40 O63 2.464 . S
Sm40 O64 2.396 . S
Sm40 O68 2.386 . S
Sm40 O71 2.408 . S
Sm41 C51 2.846 . S
Sm41 O62 2.386 . S
Sm41 O65 2.408 . S
Sm41 O66 2.543 . S
Sm41 O67 2.450 . S
Sm41 O68 2.681 . S
Sm41 O69 2.464 . S
Sm41 O70 2.396 . S
C42 Sm40 2.846 . S
C42 C43 1.506 . S
C42 O60 1.261 . S
C42 O61 1.242 . S
C43 C42 1.506 . S
C43 C44 1.358 . S
C43 C48 1.382 . S
C44 C43 1.358 . S
C44 C45 1.385 . S
C44 H72 0.930 . S
C45 C44 1.385 . S
C45 C46 1.395 . S
C45 H73 0.929 . S
C46 C45 1.395 . S
C46 C47 1.335 . S
C47 C46 1.335 . S
C47 C48 1.398 . S
C47 H74 0.930 . S
C48 C43 1.382 . S
C48 C47 1.398 . S
C48 H75 0.929 . S
C49 O62 1.271 . S
C49 O63 1.251 . S
C50 O64 1.252 . S
C50 O65 1.272 . S
C51 Sm41 2.846 . S
C51 C52 1.506 . S
C51 O66 1.261 . S
C51 O67 1.242 . S
C52 C51 1.506 . S
C52 C53 1.358 . S
C52 C57 1.382 . S
C53 C52 1.358 . S
C53 C54 1.385 . S
C53 H76 0.930 . S
C54 C53 1.385 . S
C54 C55 1.395 . S
C54 H77 0.929 . S
C55 C54 1.395 . S
C55 C56 1.335 . S
C56 C55 1.335 . S
C56 C57 1.398 . S
C56 H78 0.930 . S
C57 C52 1.382 . S
C57 C56 1.398 . S
C57 H79 0.929 . S
C58 O68 1.271 . S
C58 O69 1.251 . S
C59 O70 1.252 . S
C59 O71 1.272 . S
O60 Sm40 2.543 . S
O60 C42 1.261 . S
O61 Sm40 2.450 . S
O61 C42 1.242 . S
O62 Sm40 2.681 . S
O62 Sm41 2.386 . S
O62 C49 1.271 . S
O63 Sm40 2.464 . S
O63 C49 1.251 . S
O64 Sm40 2.396 . S
O64 C50 1.252 . S
O65 Sm41 2.408 . S
O65 C50 1.272 . S
O66 Sm41 2.543 . S
O66 C51 1.261 . S
O67 Sm41 2.450 . S
O67 C51 1.242 . S
O68 Sm40 2.386 . S
O68 Sm41 2.681 . S
O68 C58 1.271 . S
O69 Sm41 2.464 . S
O69 C58 1.251 . S
O70 Sm41 2.396 . S
O70 C59 1.252 . S
O71 Sm40 2.408 . S
O71 C59 1.272 . S
H72 C44 0.930 . S
H73 C45 0.929 . S
H74 C47 0.930 . S
H75 C48 0.929 . S
H76 C53 0.930 . S
H77 C54 0.929 . S
H78 C56 0.930 . S
H79 C57 0.929 . S
Sm80 C82 2.846 1_556 S
Sm80 O100 2.543 . S
Sm80 O101 2.450 . S
Sm80 O102 2.681 . S
Sm80 O103 2.464 . S
Sm80 O104 2.396 . S
Sm80 O108 2.386 . S
Sm80 O111 2.408 . S
Sm81 C91 2.846 . S
Sm81 O102 2.386 . S
Sm81 O105 2.408 . S
Sm81 O106 2.543 . S
Sm81 O107 2.450 . S
Sm81 O108 2.681 . S
Sm81 O109 2.464 . S
Sm81 O110 2.396 . S
C82 Sm80 2.846 1_554 S
C82 C83 1.506 . S
C82 O100 1.261 1_554 S
C82 O101 1.242 1_554 S
C83 C82 1.506 . S
C83 C84 1.358 . S
C83 C88 1.382 . S
C84 C83 1.358 . S
C84 C85 1.385 . S
C84 H112 0.930 . S
C85 C84 1.385 . S
C85 C86 1.395 . S
C85 H113 0.929 . S
C86 C85 1.395 . S
C86 C87 1.335 . S
C87 C86 1.335 . S
C87 C88 1.398 . S
C87 H114 0.930 . S
C88 C83 1.382 . S
C88 C87 1.398 . S
C88 H115 0.929 . S
C89 O102 1.271 . S
C89 O103 1.251 . S
C90 O104 1.252 . S
C90 O105 1.272 . S
C91 Sm81 2.846 . S
C91 C92 1.506 . S
C91 O106 1.261 . S
C91 O107 1.242 . S
C92 C91 1.506 . S
C92 C93 1.358 . S
C92 C97 1.382 . S
C93 C92 1.358 . S
C93 C94 1.385 . S
C93 H116 0.930 . S
C94 C93 1.385 . S
C94 C95 1.395 . S
C94 H117 0.929 . S
C95 C94 1.395 . S
C95 C96 1.335 . S
C96 C95 1.335 . S
C96 C97 1.398 . S
C96 H118 0.930 . S
C97 C92 1.382 . S
C97 C96 1.398 . S
C97 H119 0.929 . S
C98 O108 1.271 . S
C98 O109 1.251 . S
C99 O110 1.252 . S
C99 O111 1.272 . S
O100 Sm80 2.543 . S
O100 C82 1.261 1_556 S
O101 Sm80 2.450 . S
O101 C82 1.242 1_556 S
O102 Sm80 2.681 . S
O102 Sm81 2.386 . S
O102 C89 1.271 . S
O103 Sm80 2.464 . S
O103 C89 1.251 . S
O104 Sm80 2.396 . S
O104 C90 1.252 . S
O105 Sm81 2.408 . S
O105 C90 1.272 . S
O106 Sm81 2.543 . S
O106 C91 1.261 . S
O107 Sm81 2.450 . S
O107 C91 1.242 . S
O108 Sm80 2.386 . S
O108 Sm81 2.681 . S
O108 C98 1.271 . S
O109 Sm81 2.464 . S
O109 C98 1.251 . S
O110 Sm81 2.396 . S
O110 C99 1.252 . S
O111 Sm80 2.408 . S
O111 C99 1.272 . S
H112 C84 0.930 . S
H113 C85 0.929 . S
H114 C87 0.930 . S
H115 C88 0.929 . S
H116 C93 0.930 . S
H117 C94 0.929 . S
H118 C96 0.930 . S
H119 C97 0.929 . S
Sm120 C122 2.846 . S
Sm120 O140 2.543 . S
Sm120 O141 2.450 . S
Sm120 O142 2.681 . S
Sm120 O143 2.464 . S
Sm120 O144 2.396 . S
Sm120 O148 2.386 . S
Sm120 O151 2.408 . S
Sm121 C131 2.846 . S
Sm121 O142 2.386 . S
Sm121 O145 2.408 . S
Sm121 O146 2.543 . S
Sm121 O147 2.450 . S
Sm121 O148 2.681 . S
Sm121 O149 2.464 . S
Sm121 O150 2.396 . S
C122 Sm120 2.846 . S
C122 C123 1.506 . S
C122 O140 1.261 . S
C122 O141 1.242 . S
C123 C122 1.506 . S
C123 C124 1.358 . S
C123 C128 1.382 . S
C124 C123 1.358 . S
C124 C125 1.385 . S
C124 H152 0.930 . S
C125 C124 1.385 . S
C125 C126 1.395 . S
C125 H153 0.929 . S
C126 C125 1.395 . S
C126 C127 1.335 . S
C127 C126 1.335 . S
C127 C128 1.398 . S
C127 H154 0.930 . S
C128 C123 1.382 . S
C128 C127 1.398 . S
C128 H155 0.929 . S
C129 O142 1.271 . S
C129 O143 1.251 . S
C130 O144 1.252 . S
C130 O145 1.272 . S
C131 Sm121 2.846 . S
C131 C132 1.506 . S
C131 O146 1.261 . S
C131 O147 1.242 . S
C132 C131 1.506 . S
C132 C133 1.358 . S
C132 C137 1.382 . S
C133 C132 1.358 . S
C133 C134 1.385 . S
C133 H156 0.930 . S
C134 C133 1.385 . S
C134 C135 1.395 . S
C134 H157 0.929 . S
C135 C134 1.395 . S
C135 C136 1.335 . S
C136 C135 1.335 . S
C136 C137 1.398 . S
C136 H158 0.930 . S
C137 C132 1.382 . S
C137 C136 1.398 . S
C137 H159 0.929 . S
C138 O148 1.271 . S
C138 O149 1.251 . S
C139 O150 1.252 . S
C139 O151 1.272 . S
O140 Sm120 2.543 . S
O140 C122 1.261 . S
O141 Sm120 2.450 . S
O141 C122 1.242 . S
O142 Sm120 2.681 . S
O142 Sm121 2.386 . S
O142 C129 1.271 . S
O143 Sm120 2.464 . S
O143 C129 1.251 . S
O144 Sm120 2.396 . S
O144 C130 1.252 . S
O145 Sm121 2.408 . S
O145 C130 1.272 . S
O146 Sm121 2.543 . S
O146 C131 1.261 . S
O147 Sm121 2.450 . S
O147 C131 1.242 . S
O148 Sm120 2.386 . S
O148 Sm121 2.681 . S
O148 C138 1.271 . S
O149 Sm121 2.464 . S
O149 C138 1.251 . S
O150 Sm121 2.396 . S
O150 C139 1.252 . S
O151 Sm120 2.408 . S
O151 C139 1.272 . S
H152 C124 0.930 . S
H153 C125 0.929 . S
H154 C127 0.930 . S
H155 C128 0.929 . S
H156 C133 0.930 . S
H157 C134 0.929 . S
H158 C136 0.930 . S
H159 C137 0.929 . S
Sm160 C162 2.846 . S
Sm160 O180 2.543 . S
Sm160 O181 2.450 . S
Sm160 O182 2.681 . S
Sm160 O183 2.464 . S
Sm160 O184 2.396 . S
Sm160 O188 2.386 . S
Sm160 O191 2.408 . S
Sm161 C171 2.846 . S
Sm161 O182 2.386 . S
Sm161 O185 2.408 . S
Sm161 O186 2.543 . S
Sm161 O187 2.450 . S
Sm161 O188 2.681 . S
Sm161 O189 2.464 . S
Sm161 O190 2.396 . S
C162 Sm160 2.846 . S
C162 C163 1.506 . S
C162 O180 1.261 . S
C162 O181 1.242 . S
C163 C162 1.506 . S
C163 C164 1.358 . S
C163 C168 1.382 . S
C164 C163 1.358 . S
C164 C165 1.385 . S
C164 H192 0.930 . S
C165 C164 1.385 . S
C165 C166 1.395 . S
C165 H193 0.929 . S
C166 C165 1.395 . S
C166 C167 1.335 . S
C167 C166 1.335 . S
C167 C168 1.398 . S
C167 H194 0.930 . S
C168 C163 1.382 . S
C168 C167 1.398 . S
C168 H195 0.929 . S
C169 O182 1.271 . S
C169 O183 1.251 . S
C170 O184 1.252 . S
C170 O185 1.272 . S
C171 Sm161 2.846 . S
C171 C172 1.506 . S
C171 O186 1.261 . S
C171 O187 1.242 . S
C172 C171 1.506 . S
C172 C173 1.358 . S
C172 C177 1.382 . S
C173 C172 1.358 . S
C173 C174 1.385 . S
C173 H196 0.930 . S
C174 C173 1.385 . S
C174 C175 1.395 . S
C174 H197 0.929 . S
C175 C174 1.395 . S
C175 C176 1.335 . S
C176 C175 1.335 . S
C176 C177 1.398 . S
C176 H198 0.930 . S
C177 C172 1.382 . S
C177 C176 1.398 . S
C177 H199 0.929 . S
C178 O188 1.271 . S
C178 O189 1.251 . S
C179 O190 1.252 . S
C179 O191 1.272 . S
O180 Sm160 2.543 . S
O180 C162 1.261 . S
O181 Sm160 2.450 . S
O181 C162 1.242 . S
O182 Sm160 2.681 . S
O182 Sm161 2.386 . S
O182 C169 1.271 . S
O183 Sm160 2.464 . S
O183 C169 1.251 . S
O184 Sm160 2.396 . S
O184 C170 1.252 . S
O185 Sm161 2.408 . S
O185 C170 1.272 . S
O186 Sm161 2.543 . S
O186 C171 1.261 . S
O187 Sm161 2.450 . S
O187 C171 1.242 . S
O188 Sm160 2.386 . S
O188 Sm161 2.681 . S
O188 C178 1.271 . S
O189 Sm161 2.464 . S
O189 C178 1.251 . S
O190 Sm161 2.396 . S
O190 C179 1.252 . S
O191 Sm160 2.408 . S
O191 C179 1.272 . S
H192 C164 0.930 . S
H193 C165 0.929 . S
H194 C167 0.930 . S
H195 C168 0.929 . S
H196 C173 0.930 . S
H197 C174 0.929 . S
H198 C176 0.930 . S
H199 C177 0.929 . S
Sm200 C202 2.846 1_556 S
Sm200 O220 2.543 . S
Sm200 O221 2.450 . S
Sm200 O222 2.681 . S
Sm200 O223 2.464 . S
Sm200 O224 2.396 . S
Sm200 O228 2.386 . S
Sm200 O231 2.408 . S
Sm201 C211 2.846 . S
Sm201 O222 2.386 . S
Sm201 O225 2.408 . S
Sm201 O226 2.543 . S
Sm201 O227 2.450 . S
Sm201 O228 2.681 . S
Sm201 O229 2.464 . S
Sm201 O230 2.396 . S
C202 Sm200 2.846 1_554 S
C202 C203 1.506 . S
C202 O220 1.261 1_554 S
C202 O221 1.242 1_554 S
C203 C202 1.506 . S
C203 C204 1.358 . S
C203 C208 1.382 . S
C204 C203 1.358 . S
C204 C205 1.385 . S
C204 H232 0.930 . S
C205 C204 1.385 . S
C205 C206 1.395 . S
C205 H233 0.929 . S
C206 C205 1.395 . S
C206 C207 1.335 . S
C207 C206 1.335 . S
C207 C208 1.398 . S
C207 H234 0.930 . S
C208 C203 1.382 . S
C208 C207 1.398 . S
C208 H235 0.929 . S
C209 O222 1.271 . S
C209 O223 1.251 . S
C210 O224 1.252 . S
C210 O225 1.272 . S
C211 Sm201 2.846 . S
C211 C212 1.506 . S
C211 O226 1.261 . S
C211 O227 1.242 . S
C212 C211 1.506 . S
C212 C213 1.358 . S
C212 C217 1.382 . S
C213 C212 1.358 . S
C213 C214 1.385 . S
C213 H236 0.930 . S
C214 C213 1.385 . S
C214 C215 1.395 . S
C214 H237 0.929 . S
C215 C214 1.395 . S
C215 C216 1.335 . S
C216 C215 1.335 . S
C216 C217 1.398 . S
C216 H238 0.930 . S
C217 C212 1.382 . S
C217 C216 1.398 . S
C217 H239 0.929 . S
C218 O228 1.271 . S
C218 O229 1.251 . S
C219 O230 1.252 . S
C219 O231 1.272 . S
O220 Sm200 2.543 . S
O220 C202 1.261 1_556 S
O221 Sm200 2.450 . S
O221 C202 1.242 1_556 S
O222 Sm200 2.681 . S
O222 Sm201 2.386 . S
O222 C209 1.271 . S
O223 Sm200 2.464 . S
O223 C209 1.251 . S
O224 Sm200 2.396 . S
O224 C210 1.252 . S
O225 Sm201 2.408 . S
O225 C210 1.272 . S
O226 Sm201 2.543 . S
O226 C211 1.261 . S
O227 Sm201 2.450 . S
O227 C211 1.242 . S
O228 Sm200 2.386 . S
O228 Sm201 2.681 . S
O228 C218 1.271 . S
O229 Sm201 2.464 . S
O229 C218 1.251 . S
O230 Sm201 2.396 . S
O230 C219 1.252 . S
O231 Sm200 2.408 . S
O231 C219 1.272 . S
H232 C204 0.930 . S
H233 C205 0.929 . S
H234 C207 0.930 . S
H235 C208 0.929 . S
H236 C213 0.930 . S
H237 C214 0.929 . S
H238 C216 0.930 . S
H239 C217 0.929 . S
Sm240 C242 2.846 . S
Sm240 O260 2.543 . S
Sm240 O261 2.450 . S
Sm240 O262 2.681 . S
Sm240 O263 2.464 . S
Sm240 O264 2.396 . S
Sm240 O268 2.386 . S
Sm240 O271 2.408 . S
Sm241 C251 2.846 . S
Sm241 O262 2.386 . S
Sm241 O265 2.408 . S
Sm241 O266 2.543 . S
Sm241 O267 2.450 . S
Sm241 O268 2.681 . S
Sm241 O269 2.464 . S
Sm241 O270 2.396 . S
C242 Sm240 2.846 . S
C242 C243 1.506 . S
C242 O260 1.261 . S
C242 O261 1.242 . S
C243 C242 1.506 . S
C243 C244 1.358 . S
C243 C248 1.382 . S
C244 C243 1.358 . S
C244 C245 1.385 . S
C244 H272 0.930 . S
C245 C244 1.385 . S
C245 C246 1.395 . S
C245 H273 0.929 . S
C246 C245 1.395 . S
C246 C247 1.335 . S
C247 C246 1.335 . S
C247 C248 1.398 . S
C247 H274 0.930 . S
C248 C243 1.382 . S
C248 C247 1.398 . S
C248 H275 0.929 . S
C249 O262 1.271 . S
C249 O263 1.251 . S
C250 O264 1.252 . S
C250 O265 1.272 . S
C251 Sm241 2.846 . S
C251 C252 1.506 . S
C251 O266 1.261 . S
C251 O267 1.242 . S
C252 C251 1.506 . S
C252 C253 1.358 . S
C252 C257 1.382 . S
C253 C252 1.358 . S
C253 C254 1.385 . S
C253 H276 0.930 . S
C254 C253 1.385 . S
C254 C255 1.395 . S
C254 H277 0.929 . S
C255 C254 1.395 . S
C255 C256 1.335 . S
C256 C255 1.335 . S
C256 C257 1.398 . S
C256 H278 0.930 . S
C257 C252 1.382 . S
C257 C256 1.398 . S
C257 H279 0.929 . S
C258 O268 1.271 . S
C258 O269 1.251 . S
C259 O270 1.252 . S
C259 O271 1.272 . S
O260 Sm240 2.543 . S
O260 C242 1.261 . S
O261 Sm240 2.450 . S
O261 C242 1.242 . S
O262 Sm240 2.681 . S
O262 Sm241 2.386 . S
O262 C249 1.271 . S
O263 Sm240 2.464 . S
O263 C249 1.251 . S
O264 Sm240 2.396 . S
O264 C250 1.252 . S
O265 Sm241 2.408 . S
O265 C250 1.272 . S
O266 Sm241 2.543 . S
O266 C251 1.261 . S
O267 Sm241 2.450 . S
O267 C251 1.242 . S
O268 Sm240 2.386 . S
O268 Sm241 2.681 . S
O268 C258 1.271 . S
O269 Sm241 2.464 . S
O269 C258 1.251 . S
O270 Sm241 2.396 . S
O270 C259 1.252 . S
O271 Sm240 2.408 . S
O271 C259 1.272 . S
H272 C244 0.930 . S
H273 C245 0.929 . S
H274 C247 0.930 . S
H275 C248 0.929 . S
H276 C253 0.930 . S
H277 C254 0.929 . S
H278 C256 0.930 . S
H279 C257 0.929 . S
Sm280 C282 2.846 . S
Sm280 O300 2.543 . S
Sm280 O301 2.450 . S
Sm280 O302 2.681 . S
Sm280 O303 2.464 . S
Sm280 O304 2.396 . S
Sm280 O308 2.386 . S
Sm280 O311 2.408 . S
Sm281 C291 2.846 . S
Sm281 O302 2.386 . S
Sm281 O305 2.408 . S
Sm281 O306 2.543 . S
Sm281 O307 2.450 . S
Sm281 O308 2.681 . S
Sm281 O309 2.464 . S
Sm281 O310 2.396 . S
C282 Sm280 2.846 . S
C282 C283 1.506 . S
C282 O300 1.261 . S
C282 O301 1.242 . S
C283 C282 1.506 . S
C283 C284 1.358 . S
C283 C288 1.382 . S
C284 C283 1.358 . S
C284 C285 1.385 . S
C284 H312 0.930 . S
C285 C284 1.385 . S
C285 C286 1.395 . S
C285 H313 0.929 . S
C286 C285 1.395 . S
C286 C287 1.335 . S
C287 C286 1.335 . S
C287 C288 1.398 . S
C287 H314 0.930 . S
C288 C283 1.382 . S
C288 C287 1.398 . S
C288 H315 0.929 . S
C289 O302 1.271 . S
C289 O303 1.251 . S
C290 O304 1.252 . S
C290 O305 1.272 . S
C291 Sm281 2.846 . S
C291 C292 1.506 . S
C291 O306 1.261 . S
C291 O307 1.242 . S
C292 C291 1.506 . S
C292 C293 1.358 . S
C292 C297 1.382 . S
C293 C292 1.358 . S
C293 C294 1.385 . S
C293 H316 0.930 . S
C294 C293 1.385 . S
C294 C295 1.395 . S
C294 H317 0.929 . S
C295 C294 1.395 . S
C295 C296 1.335 . S
C296 C295 1.335 . S
C296 C297 1.398 . S
C296 H318 0.930 . S
C297 C292 1.382 . S
C297 C296 1.398 . S
C297 H319 0.929 . S
C298 O308 1.271 . S
C298 O309 1.251 . S
C299 O310 1.252 . S
C299 O311 1.272 . S
O300 Sm280 2.543 . S
O300 C282 1.261 . S
O301 Sm280 2.450 . S
O301 C282 1.242 . S
O302 Sm280 2.681 . S
O302 Sm281 2.386 . S
O302 C289 1.271 . S
O303 Sm280 2.464 . S
O303 C289 1.251 . S
O304 Sm280 2.396 . S
O304 C290 1.252 . S
O305 Sm281 2.408 . S
O305 C290 1.272 . S
O306 Sm281 2.543 . S
O306 C291 1.261 . S
O307 Sm281 2.450 . S
O307 C291 1.242 . S
O308 Sm280 2.386 . S
O308 Sm281 2.681 . S
O308 C298 1.271 . S
O309 Sm281 2.464 . S
O309 C298 1.251 . S
O310 Sm281 2.396 . S
O310 C299 1.252 . S
O311 Sm280 2.408 . S
O311 C299 1.272 . S
H312 C284 0.930 . S
H313 C285 0.929 . S
H314 C287 0.930 . S
H315 C288 0.929 . S
H316 C293 0.930 . S
H317 C294 0.929 . S
H318 C296 0.930 . S
H319 C297 0.929 . S
Sm320 C322 2.846 1_554 S
Sm320 O340 2.543 . S
Sm320 O341 2.450 . S
Sm320 O342 2.681 . S
Sm320 O343 2.464 . S
Sm320 O344 2.396 . S
Sm320 O348 2.386 . S
Sm320 O351 2.408 . S
Sm321 C331 2.846 . S
Sm321 O342 2.386 . S
Sm321 O345 2.408 . S
Sm321 O346 2.543 . S
Sm321 O347 2.450 . S
Sm321 O348 2.681 . S
Sm321 O349 2.464 . S
Sm321 O350 2.396 . S
C322 Sm320 2.846 1_556 S
C322 C323 1.506 . S
C322 O340 1.261 1_556 S
C322 O341 1.242 1_556 S
C323 C322 1.506 . S
C323 C324 1.358 . S
C323 C328 1.382 . S
C324 C323 1.358 . S
C324 C325 1.385 . S
C324 H352 0.930 . S
C325 C324 1.385 . S
C325 C326 1.395 . S
C325 H353 0.929 . S
C326 C325 1.395 . S
C326 C327 1.335 . S
C327 C326 1.335 . S
C327 C328 1.398 . S
C327 H354 0.930 . S
C328 C323 1.382 . S
C328 C327 1.398 . S
C328 H355 0.929 . S
C329 O342 1.271 . S
C329 O343 1.251 . S
C330 O344 1.252 . S
C330 O345 1.272 . S
C331 Sm321 2.846 . S
C331 C332 1.506 . S
C331 O346 1.261 . S
C331 O347 1.242 . S
C332 C331 1.506 . S
C332 C333 1.358 . S
C332 C337 1.382 . S
C333 C332 1.358 . S
C333 C334 1.385 . S
C333 H356 0.930 . S
C334 C333 1.385 . S
C334 C335 1.395 . S
C334 H357 0.929 . S
C335 C334 1.395 . S
C335 C336 1.335 . S
C336 C335 1.335 . S
C336 C337 1.398 . S
C336 H358 0.930 . S
C337 C332 1.382 . S
C337 C336 1.398 . S
C337 H359 0.929 . S
C338 O348 1.271 . S
C338 O349 1.251 . S
C339 O350 1.252 . S
C339 O351 1.272 . S
O340 Sm320 2.543 . S
O340 C322 1.261 1_554 S
O341 Sm320 2.450 . S
O341 C322 1.242 1_554 S
O342 Sm320 2.681 . S
O342 Sm321 2.386 . S
O342 C329 1.271 . S
O343 Sm320 2.464 . S
O343 C329 1.251 . S
O344 Sm320 2.396 . S
O344 C330 1.252 . S
O345 Sm321 2.408 . S
O345 C330 1.272 . S
O346 Sm321 2.543 . S
O346 C331 1.261 . S
O347 Sm321 2.450 . S
O347 C331 1.242 . S
O348 Sm320 2.386 . S
O348 Sm321 2.681 . S
O348 C338 1.271 . S
O349 Sm321 2.464 . S
O349 C338 1.251 . S
O350 Sm321 2.396 . S
O350 C339 1.252 . S
O351 Sm320 2.408 . S
O351 C339 1.272 . S
H352 C324 0.930 . S
H353 C325 0.929 . S
H354 C327 0.930 . S
H355 C328 0.929 . S
H356 C333 0.930 . S
H357 C334 0.929 . S
H358 C336 0.930 . S
H359 C337 0.929 . S
Sm360 C362 2.846 . S
Sm360 O380 2.543 . S
Sm360 O381 2.450 . S
Sm360 O382 2.681 . S
Sm360 O383 2.464 . S
Sm360 O384 2.396 . S
Sm360 O388 2.386 . S
Sm360 O391 2.408 . S
Sm361 C371 2.846 . S
Sm361 O382 2.386 . S
Sm361 O385 2.408 . S
Sm361 O386 2.543 . S
Sm361 O387 2.450 . S
Sm361 O388 2.681 . S
Sm361 O389 2.464 . S
Sm361 O390 2.396 . S
C362 Sm360 2.846 . S
C362 C363 1.506 . S
C362 O380 1.261 . S
C362 O381 1.242 . S
C363 C362 1.506 . S
C363 C364 1.358 . S
C363 C368 1.382 . S
C364 C363 1.358 . S
C364 C365 1.385 . S
C364 H392 0.930 . S
C365 C364 1.385 . S
C365 C366 1.395 . S
C365 H393 0.929 . S
C366 C365 1.395 . S
C366 C367 1.335 . S
C367 C366 1.335 . S
C367 C368 1.398 . S
C367 H394 0.930 . S
C368 C363 1.382 . S
C368 C367 1.398 . S
C368 H395 0.929 . S
C369 O382 1.271 . S
C369 O383 1.251 . S
C370 O384 1.252 . S
C370 O385 1.272 . S
C371 Sm361 2.846 . S
C371 C372 1.506 . S
C371 O386 1.261 . S
C371 O387 1.242 . S
C372 C371 1.506 . S
C372 C373 1.358 . S
C372 C377 1.382 . S
C373 C372 1.358 . S
C373 C374 1.385 . S
C373 H396 0.930 . S
C374 C373 1.385 . S
C374 C375 1.395 . S
C374 H397 0.929 . S
C375 C374 1.395 . S
C375 C376 1.335 . S
C376 C375 1.335 . S
C376 C377 1.398 . S
C376 H398 0.930 . S
C377 C372 1.382 . S
C377 C376 1.398 . S
C377 H399 0.929 . S
C378 O388 1.271 . S
C378 O389 1.251 . S
C379 O390 1.252 . S
C379 O391 1.272 . S
O380 Sm360 2.543 . S
O380 C362 1.261 . S
O381 Sm360 2.450 . S
O381 C362 1.242 . S
O382 Sm360 2.681 . S
O382 Sm361 2.386 . S
O382 C369 1.271 . S
O383 Sm360 2.464 . S
O383 C369 1.251 . S
O384 Sm360 2.396 . S
O384 C370 1.252 . S
O385 Sm361 2.408 . S
O385 C370 1.272 . S
O386 Sm361 2.543 . S
O386 C371 1.261 . S
O387 Sm361 2.450 . S
O387 C371 1.242 . S
O388 Sm360 2.386 . S
O388 Sm361 2.681 . S
O388 C378 1.271 . S
O389 Sm361 2.464 . S
O389 C378 1.251 . S
O390 Sm361 2.396 . S
O390 C379 1.252 . S
O391 Sm360 2.408 . S
O391 C379 1.272 . S
H392 C364 0.930 . S
H393 C365 0.929 . S
H394 C367 0.930 . S
H395 C368 0.929 . S
H396 C373 0.930 . S
H397 C374 0.929 . S
H398 C376 0.930 . S
H399 C377 0.929 . S
Sm400 C402 2.846 . S
Sm400 O420 2.543 . S
Sm400 O421 2.450 . S
Sm400 O422 2.681 . S
Sm400 O423 2.464 . S
Sm400 O424 2.396 . S
Sm400 O428 2.386 . S
Sm400 O431 2.408 . S
Sm401 C411 2.846 . S
Sm401 O422 2.386 . S
Sm401 O425 2.408 . S
Sm401 O426 2.543 . S
Sm401 O427 2.450 . S
Sm401 O428 2.681 . S
Sm401 O429 2.464 . S
Sm401 O430 2.396 . S
C402 Sm400 2.846 . S
C402 C403 1.506 . S
C402 O420 1.261 . S
C402 O421 1.242 . S
C403 C402 1.506 . S
C403 C404 1.358 . S
C403 C408 1.382 . S
C404 C403 1.358 . S
C404 C405 1.385 . S
C404 H432 0.930 . S
C405 C404 1.385 . S
C405 C406 1.395 . S
C405 H433 0.929 . S
C406 C405 1.395 . S
C406 C407 1.335 . S
C407 C406 1.335 . S
C407 C408 1.398 . S
C407 H434 0.930 . S
C408 C403 1.382 . S
C408 C407 1.398 . S
C408 H435 0.929 . S
C409 O422 1.271 . S
C409 O423 1.251 . S
C410 O424 1.252 . S
C410 O425 1.272 . S
C411 Sm401 2.846 . S
C411 C412 1.506 . S
C411 O426 1.261 . S
C411 O427 1.242 . S
C412 C411 1.506 . S
C412 C413 1.358 . S
C412 C417 1.382 . S
C413 C412 1.358 . S
C413 C414 1.385 . S
C413 H436 0.930 . S
C414 C413 1.385 . S
C414 C415 1.395 . S
C414 H437 0.929 . S
C415 C414 1.395 . S
C415 C416 1.335 . S
C416 C415 1.335 . S
C416 C417 1.398 . S
C416 H438 0.930 . S
C417 C412 1.382 . S
C417 C416 1.398 . S
C417 H439 0.929 . S
C418 O428 1.271 . S
C418 O429 1.251 . S
C419 O430 1.252 . S
C419 O431 1.272 . S
O420 Sm400 2.543 . S
O420 C402 1.261 . S
O421 Sm400 2.450 . S
O421 C402 1.242 . S
O422 Sm400 2.681 . S
O422 Sm401 2.386 . S
O422 C409 1.271 . S
O423 Sm400 2.464 . S
O423 C409 1.251 . S
O424 Sm400 2.396 . S
O424 C410 1.252 . S
O425 Sm401 2.408 . S
O425 C410 1.272 . S
O426 Sm401 2.543 . S
O426 C411 1.261 . S
O427 Sm401 2.450 . S
O427 C411 1.242 . S
O428 Sm400 2.386 . S
O428 Sm401 2.681 . S
O428 C418 1.271 . S
O429 Sm401 2.464 . S
O429 C418 1.251 . S
O430 Sm401 2.396 . S
O430 C419 1.252 . S
O431 Sm400 2.408 . S
O431 C419 1.272 . S
H432 C404 0.930 . S
H433 C405 0.929 . S
H434 C407 0.930 . S
H435 C408 0.929 . S
H436 C413 0.930 . S
H437 C414 0.929 . S
H438 C416 0.930 . S
H439 C417 0.929 . S
Sm440 C442 2.846 1_554 S
Sm440 O460 2.543 . S
Sm440 O461 2.450 . S
Sm440 O462 2.681 . S
Sm440 O463 2.464 . S
Sm440 O464 2.396 . S
Sm440 O468 2.386 . S
Sm440 O471 2.408 . S
Sm441 C451 2.846 . S
Sm441 O462 2.386 . S
Sm441 O465 2.408 . S
Sm441 O466 2.543 . S
Sm441 O467 2.450 . S
Sm441 O468 2.681 . S
Sm441 O469 2.464 . S
Sm441 O470 2.396 . S
C442 Sm440 2.846 1_556 S
C442 C443 1.506 . S
C442 O460 1.261 1_556 S
C442 O461 1.242 1_556 S
C443 C442 1.506 . S
C443 C444 1.358 . S
C443 C448 1.382 . S
C444 C443 1.358 . S
C444 C445 1.385 . S
C444 H472 0.930 . S
C445 C444 1.385 . S
C445 C446 1.395 . S
C445 H473 0.929 . S
C446 C445 1.395 . S
C446 C447 1.335 . S
C447 C446 1.335 . S
C447 C448 1.398 . S
C447 H474 0.930 . S
C448 C443 1.382 . S
C448 C447 1.398 . S
C448 H475 0.929 . S
C449 O462 1.271 . S
C449 O463 1.251 . S
C450 O464 1.252 . S
C450 O465 1.272 . S
C451 Sm441 2.846 . S
C451 C452 1.506 . S
C451 O466 1.261 . S
C451 O467 1.242 . S
C452 C451 1.506 . S
C452 C453 1.358 . S
C452 C457 1.382 . S
C453 C452 1.358 . S
C453 C454 1.385 . S
C453 H476 0.930 . S
C454 C453 1.385 . S
C454 C455 1.395 . S
C454 H477 0.929 . S
C455 C454 1.395 . S
C455 C456 1.335 . S
C456 C455 1.335 . S
C456 C457 1.398 . S
C456 H478 0.930 . S
C457 C452 1.382 . S
C457 C456 1.398 . S
C457 H479 0.929 . S
C458 O468 1.271 . S
C458 O469 1.251 . S
C459 O470 1.252 . S
C459 O471 1.272 . S
O460 Sm440 2.543 . S
O460 C442 1.261 1_554 S
O461 Sm440 2.450 . S
O461 C442 1.242 1_554 S
O462 Sm440 2.681 . S
O462 Sm441 2.386 . S
O462 C449 1.271 . S
O463 Sm440 2.464 . S
O463 C449 1.251 . S
O464 Sm440 2.396 . S
O464 C450 1.252 . S
O465 Sm441 2.408 . S
O465 C450 1.272 . S
O466 Sm441 2.543 . S
O466 C451 1.261 . S
O467 Sm441 2.450 . S
O467 C451 1.242 . S
O468 Sm440 2.386 . S
O468 Sm441 2.681 . S
O468 C458 1.271 . S
O469 Sm441 2.464 . S
O469 C458 1.251 . S
O470 Sm441 2.396 . S
O470 C459 1.252 . S
O471 Sm440 2.408 . S
O471 C459 1.272 . S
H472 C444 0.930 . S
H473 C445 0.929 . S
H474 C447 0.930 . S
H475 C448 0.929 . S
H476 C453 0.930 . S
H477 C454 0.929 . S
H478 C456 0.930 . S
H479 C457 0.929 . S
H480 C492 0.930 . S
H481 C494 0.930 . S
H482 C495 0.930 . S
H483 C499 0.959 . S
H484 C499 0.959 . S
H485 C499 0.961 . S
H486 C500 0.960 . S
H487 C500 0.961 . S
H488 C500 0.959 . S
H489 C503 0.929 . S
H490 C504 0.931 . S
H491 C506 0.930 . S
C492 H480 0.930 . S
C492 C493 1.399 . S
C492 C497 1.399 . S
C493 C492 1.399 . S
C493 C494 1.376 . S
C494 H481 0.930 . S
C494 C493 1.376 . S
C494 C495 1.388 . S
C495 H482 0.930 . S
C495 C494 1.388 . S
C495 C496 1.390 . S
C496 C495 1.390 . S
C496 C497 1.394 . S
C496 C502 1.465 . S
C497 C492 1.399 . S
C497 C496 1.394 . S
C497 C498 1.516 . S
C498 C497 1.516 . S
C498 C499 1.502 . S
C498 C500 1.561 . S
C498 C501 1.526 . S
C499 H483 0.959 . S
C499 H484 0.959 . S
C499 H485 0.961 . S
C499 C498 1.502 . S
C500 H486 0.960 . S
C500 H487 0.961 . S
C500 H488 0.959 . S
C500 C498 1.561 . S
C501 C498 1.526 . S
C501 C502 1.396 . S
C501 C506 1.390 . S
C502 C496 1.465 . S
C502 C501 1.396 . S
C502 C503 1.399 . S
C503 H489 0.929 . S
C503 C502 1.399 . S
C503 C504 1.385 . S
C504 H490 0.931 . S
C504 C503 1.385 . S
C504 C505 1.389 . S
C505 C504 1.389 . S
C505 C506 1.387 . S
C506 H491 0.930 . S
C506 C501 1.390 . S
C506 C505 1.387 . S
H507 C519 0.930 . S
H508 C521 0.930 . S
H509 C522 0.930 . S
H510 C526 0.959 . S
H511 C526 0.959 . S
H512 C526 0.961 . S
H513 C527 0.960 . S
H514 C527 0.961 . S
H515 C527 0.959 . S
H516 C530 0.929 . S
H517 C531 0.931 . S
H518 C533 0.930 . S
C519 H507 0.930 . S
C519 C520 1.399 . S
C519 C524 1.399 . S
C520 C519 1.399 . S
C520 C521 1.376 . S
C521 H508 0.930 . S
C521 C520 1.376 . S
C521 C522 1.388 . S
C522 H509 0.930 . S
C522 C521 1.388 . S
C522 C523 1.390 . S
C523 C522 1.390 . S
C523 C524 1.394 . S
C523 C529 1.465 . S
C524 C519 1.399 . S
C524 C523 1.394 . S
C524 C525 1.516 . S
C525 C524 1.516 . S
C525 C526 1.502 . S
C525 C527 1.561 . S
C525 C528 1.526 . S
C526 H510 0.959 . S
C526 H511 0.959 . S
C526 H512 0.961 . S
C526 C525 1.502 . S
C527 H513 0.960 . S
C527 H514 0.961 . S
C527 H515 0.959 . S
C527 C525 1.561 . S
C528 C525 1.526 . S
C528 C529 1.396 . S
C528 C533 1.390 . S
C529 C523 1.465 . S
C529 C528 1.396 . S
C529 C530 1.399 . S
C530 H516 0.929 . S
C530 C529 1.399 . S
C530 C531 1.385 . S
C531 H517 0.931 . S
C531 C530 1.385 . S
C531 C532 1.389 . S
C532 C531 1.389 . S
C532 C533 1.387 . S
C533 H518 0.930 . S
C533 C528 1.390 . S
C533 C532 1.387 . S
H534 C546 0.930 . S
H535 C548 0.930 . S
H536 C549 0.930 . S
H537 C553 0.959 . S
H538 C553 0.959 . S
H539 C553 0.961 . S
H540 C554 0.960 . S
H541 C554 0.961 . S
H542 C554 0.959 . S
H543 C557 0.929 . S
H544 C558 0.931 . S
H545 C560 0.930 . S
C546 H534 0.930 . S
C546 C547 1.399 . S
C546 C551 1.399 . S
C547 C546 1.399 . S
C547 C548 1.376 . S
C548 H535 0.930 . S
C548 C547 1.376 . S
C548 C549 1.388 . S
C549 H536 0.930 . S
C549 C548 1.388 . S
C549 C550 1.390 . S
C550 C549 1.390 . S
C550 C551 1.394 . S
C550 C556 1.465 . S
C551 C546 1.399 . S
C551 C550 1.394 . S
C551 C552 1.516 . S
C552 C551 1.516 . S
C552 C553 1.502 . S
C552 C554 1.561 . S
C552 C555 1.526 . S
C553 H537 0.959 . S
C553 H538 0.959 . S
C553 H539 0.961 . S
C553 C552 1.502 . S
C554 H540 0.960 . S
C554 H541 0.961 . S
C554 H542 0.959 . S
C554 C552 1.561 . S
C555 C552 1.526 . S
C555 C556 1.396 . S
C555 C560 1.390 . S
C556 C550 1.465 . S
C556 C555 1.396 . S
C556 C557 1.399 . S
C557 H543 0.929 . S
C557 C556 1.399 . S
C557 C558 1.385 . S
C558 H544 0.931 . S
C558 C557 1.385 . S
C558 C559 1.389 . S
C559 C558 1.389 . S
C559 C560 1.387 . S
C560 H545 0.930 . S
C560 C555 1.390 . S
C560 C559 1.387 . S
H561 C573 0.930 . S
H562 C575 0.930 . S
H563 C576 0.930 . S
H564 C580 0.959 . S
H565 C580 0.959 . S
H566 C580 0.961 . S
H567 C581 0.960 . S
H568 C581 0.961 . S
H569 C581 0.959 . S
H570 C584 0.929 . S
H571 C585 0.931 . S
H572 C587 0.930 . S
C573 H561 0.930 . S
C573 C574 1.399 . S
C573 C578 1.399 . S
C574 C573 1.399 . S
C574 C575 1.376 . S
C575 H562 0.930 . S
C575 C574 1.376 . S
C575 C576 1.388 . S
C576 H563 0.930 . S
C576 C575 1.388 . S
C576 C577 1.390 . S
C577 C576 1.390 . S
C577 C578 1.394 . S
C577 C583 1.465 . S
C578 C573 1.399 . S
C578 C577 1.394 . S
C578 C579 1.516 . S
C579 C578 1.516 . S
C579 C580 1.502 . S
C579 C581 1.561 . S
C579 C582 1.526 . S
C580 H564 0.959 . S
C580 H565 0.959 . S
C580 H566 0.961 . S
C580 C579 1.502 . S
C581 H567 0.960 . S
C581 H568 0.961 . S
C581 H569 0.959 . S
C581 C579 1.561 . S
C582 C579 1.526 . S
C582 C583 1.396 . S
C582 C587 1.390 . S
C583 C577 1.465 . S
C583 C582 1.396 . S
C583 C584 1.399 . S
C584 H570 0.929 . S
C584 C583 1.399 . S
C584 C585 1.385 . S
C585 H571 0.931 . S
C585 C584 1.385 . S
C585 C586 1.389 . S
C586 C585 1.389 . S
C586 C587 1.387 . S
C587 H572 0.930 . S
C587 C582 1.390 . S
C587 C586 1.387 . S
H588 C600 0.930 . S
H589 C602 0.930 . S
H590 C603 0.930 . S
H591 C607 0.959 . S
H592 C607 0.959 . S
H593 C607 0.961 . S
H594 C608 0.960 . S
H595 C608 0.961 . S
H596 C608 0.959 . S
H597 C611 0.929 . S
H598 C612 0.931 . S
H599 C614 0.930 . S
C600 H588 0.930 . S
C600 C601 1.399 . S
C600 C605 1.399 . S
C601 C600 1.399 . S
C601 C602 1.376 . S
C602 H589 0.930 . S
C602 C601 1.376 . S
C602 C603 1.388 . S
C603 H590 0.930 . S
C603 C602 1.388 . S
C603 C604 1.390 . S
C604 C603 1.390 . S
C604 C605 1.394 . S
C604 C610 1.465 . S
C605 C600 1.399 . S
C605 C604 1.394 . S
C605 C606 1.516 . S
C606 C605 1.516 . S
C606 C607 1.502 . S
C606 C608 1.561 . S
C606 C609 1.526 . S
C607 H591 0.959 . S
C607 H592 0.959 . S
C607 H593 0.961 . S
C607 C606 1.502 . S
C608 H594 0.960 . S
C608 H595 0.961 . S
C608 H596 0.959 . S
C608 C606 1.561 . S
C609 C606 1.526 . S
C609 C610 1.396 . S
C609 C614 1.390 . S
C610 C604 1.465 . S
C610 C609 1.396 . S
C610 C611 1.399 . S
C611 H597 0.929 . S
C611 C610 1.399 . S
C611 C612 1.385 . S
C612 H598 0.931 . S
C612 C611 1.385 . S
C612 C613 1.389 . S
C613 C612 1.389 . S
C613 C614 1.387 . S
C614 H599 0.930 . S
C614 C609 1.390 . S
C614 C613 1.387 . S
H615 C627 0.930 . S
H616 C629 0.930 . S
H617 C630 0.930 . S
H618 C634 0.959 . S
H619 C634 0.959 . S
H620 C634 0.961 . S
H621 C635 0.960 . S
H622 C635 0.961 . S
H623 C635 0.959 . S
H624 C638 0.929 . S
H625 C639 0.931 . S
H626 C641 0.930 . S
C627 H615 0.930 . S
C627 C628 1.399 . S
C627 C632 1.399 . S
C628 C627 1.399 . S
C628 C629 1.376 . S
C629 H616 0.930 . S
C629 C628 1.376 . S
C629 C630 1.388 . S
C630 H617 0.930 . S
C630 C629 1.388 . S
C630 C631 1.390 . S
C631 C630 1.390 . S
C631 C632 1.394 . S
C631 C637 1.465 . S
C632 C627 1.399 . S
C632 C631 1.394 . S
C632 C633 1.516 . S
C633 C632 1.516 . S
C633 C634 1.502 . S
C633 C635 1.561 . S
C633 C636 1.526 . S
C634 H618 0.959 . S
C634 H619 0.959 . S
C634 H620 0.961 . S
C634 C633 1.502 . S
C635 H621 0.960 . S
C635 H622 0.961 . S
C635 H623 0.959 . S
C635 C633 1.561 . S
C636 C633 1.526 . S
C636 C637 1.396 . S
C636 C641 1.390 . S
C637 C631 1.465 . S
C637 C636 1.396 . S
C637 C638 1.399 . S
C638 H624 0.929 . S
C638 C637 1.399 . S
C638 C639 1.385 . S
C639 H625 0.931 . S
C639 C638 1.385 . S
C639 C640 1.389 . S
C640 C639 1.389 . S
C640 C641 1.387 . S
C641 H626 0.930 . S
C641 C636 1.390 . S
C641 C640 1.387 . S
H642 C654 0.930 . S
H643 C656 0.930 . S
H644 C657 0.930 . S
H645 C661 0.959 . S
H646 C661 0.959 . S
H647 C661 0.961 . S
H648 C662 0.960 . S
H649 C662 0.961 1_554 S
H650 C662 0.959 . S
H651 C665 0.929 1_556 S
H652 C666 0.931 . S
H653 C668 0.930 . S
C654 H642 0.930 . S
C654 C655 1.399 . S
C654 C659 1.399 . S
C655 C654 1.399 . S
C655 C656 1.376 . S
C656 H643 0.930 . S
C656 C655 1.376 . S
C656 C657 1.388 . S
C657 H644 0.930 . S
C657 C656 1.388 . S
C657 C658 1.390 . S
C658 C657 1.390 . S
C658 C659 1.394 . S
C658 C664 1.465 1_556 S
C659 C654 1.399 . S
C659 C658 1.394 . S
C659 C660 1.516 1_556 S
C660 C659 1.516 1_554 S
C660 C661 1.502 . S
C660 C662 1.561 1_554 S
C660 C663 1.526 . S
C661 H645 0.959 . S
C661 H646 0.959 . S
C661 H647 0.961 . S
C661 C660 1.502 . S
C662 H648 0.960 . S
C662 H649 0.961 1_556 S
C662 H650 0.959 . S
C662 C660 1.561 1_556 S
C663 C660 1.526 . S
C663 C664 1.396 . S
C663 C668 1.390 . S
C664 C658 1.465 1_554 S
C664 C663 1.396 . S
C664 C665 1.399 . S
C665 H651 0.929 1_554 S
C665 C664 1.399 . S
C665 C666 1.385 . S
C666 H652 0.931 . S
C666 C665 1.385 . S
C666 C667 1.389 . S
C667 C666 1.389 . S
C667 C668 1.387 . S
C668 H653 0.930 . S
C668 C663 1.390 . S
C668 C667 1.387 . S
H669 C681 0.930 . S
H670 C683 0.930 . S
H671 C684 0.930 . S
H672 C688 0.959 . S
H673 C688 0.959 . S
H674 C688 0.961 . S
H675 C689 0.960 . S
H676 C689 0.961 . S
H677 C689 0.959 . S
H678 C692 0.929 . S
H679 C693 0.931 . S
H680 C695 0.930 . S
C681 H669 0.930 . S
C681 C682 1.399 . S
C681 C686 1.399 . S
C682 C681 1.399 . S
C682 C683 1.376 . S
C683 H670 0.930 . S
C683 C682 1.376 . S
C683 C684 1.388 . S
C684 H671 0.930 . S
C684 C683 1.388 . S
C684 C685 1.390 . S
C685 C684 1.390 . S
C685 C686 1.394 . S
C685 C691 1.465 . S
C686 C681 1.399 . S
C686 C685 1.394 . S
C686 C687 1.516 . S
C687 C686 1.516 . S
C687 C688 1.502 . S
C687 C689 1.561 . S
C687 C690 1.526 . S
C688 H672 0.959 . S
C688 H673 0.959 . S
C688 H674 0.961 . S
C688 C687 1.502 . S
C689 H675 0.960 . S
C689 H676 0.961 . S
C689 H677 0.959 . S
C689 C687 1.561 . S
C690 C687 1.526 . S
C690 C691 1.396 . S
C690 C695 1.390 . S
C691 C685 1.465 . S
C691 C690 1.396 . S
C691 C692 1.399 . S
C692 H678 0.929 . S
C692 C691 1.399 . S
C692 C693 1.385 . S
C693 H679 0.931 . S
C693 C692 1.385 . S
C693 C694 1.389 . S
C694 C693 1.389 . S
C694 C695 1.387 . S
C695 H680 0.930 . S
C695 C690 1.390 . S
C695 C694 1.387 . S
H696 C708 0.930 . S
H697 C710 0.930 . S
H698 C711 0.930 . S
H699 C715 0.959 . S
H700 C715 0.959 . S
H701 C715 0.961 . S
H702 C716 0.960 . S
H703 C716 0.961 . S
H704 C716 0.959 . S
H705 C719 0.929 . S
H706 C720 0.931 . S
H707 C722 0.930 . S
C708 H696 0.930 . S
C708 C709 1.399 . S
C708 C713 1.399 . S
C709 C708 1.399 . S
C709 C710 1.376 . S
C710 H697 0.930 . S
C710 C709 1.376 . S
C710 C711 1.388 . S
C711 H698 0.930 . S
C711 C710 1.388 . S
C711 C712 1.390 . S
C712 C711 1.390 . S
C712 C713 1.394 . S
C712 C718 1.465 . S
C713 C708 1.399 . S
C713 C712 1.394 . S
C713 C714 1.516 . S
C714 C713 1.516 . S
C714 C715 1.502 . S
C714 C716 1.561 . S
C714 C717 1.526 . S
C715 H699 0.959 . S
C715 H700 0.959 . S
C715 H701 0.961 . S
C715 C714 1.502 . S
C716 H702 0.960 . S
C716 H703 0.961 . S
C716 H704 0.959 . S
C716 C714 1.561 . S
C717 C714 1.526 . S
C717 C718 1.396 . S
C717 C722 1.390 . S
C718 C712 1.465 . S
C718 C717 1.396 . S
C718 C719 1.399 . S
C719 H705 0.929 . S
C719 C718 1.399 . S
C719 C720 1.385 . S
C720 H706 0.931 . S
C720 C719 1.385 . S
C720 C721 1.389 . S
C721 C720 1.389 . S
C721 C722 1.387 . S
C722 H707 0.930 . S
C722 C717 1.390 . S
C722 C721 1.387 . S
H723 C735 0.930 . S
H724 C737 0.930 . S
H725 C738 0.930 . S
H726 C742 0.959 . S
H727 C742 0.959 . S
H728 C742 0.961 . S
H729 C743 0.960 . S
H730 C743 0.961 1_554 S
H731 C743 0.959 . S
H732 C746 0.929 . S
H733 C747 0.931 . S
H734 C749 0.930 . S
C735 H723 0.930 . S
C735 C736 1.399 . S
C735 C740 1.399 . S
C736 C735 1.399 . S
C736 C737 1.376 . S
C737 H724 0.930 . S
C737 C736 1.376 . S
C737 C738 1.388 . S
C738 H725 0.930 . S
C738 C737 1.388 . S
C738 C739 1.390 . S
C739 C738 1.390 . S
C739 C740 1.394 . S
C739 C745 1.465 1_556 S
C740 C735 1.399 . S
C740 C739 1.394 . S
C740 C741 1.516 1_556 S
C741 C740 1.516 1_554 S
C741 C742 1.502 . S
C741 C743 1.561 1_554 S
C741 C744 1.526 . S
C742 H726 0.959 . S
C742 H727 0.959 . S
C742 H728 0.961 . S
C742 C741 1.502 . S
C743 H729 0.960 . S
C743 H730 0.961 1_556 S
C743 H731 0.959 . S
C743 C741 1.561 1_556 S
C744 C741 1.526 . S
C744 C745 1.396 . S
C744 C749 1.390 . S
C745 C739 1.465 1_554 S
C745 C744 1.396 . S
C745 C746 1.399 . S
C746 H732 0.929 . S
C746 C745 1.399 . S
C746 C747 1.385 . S
C747 H733 0.931 . S
C747 C746 1.385 . S
C747 C748 1.389 . S
C748 C747 1.389 . S
C748 C749 1.387 . S
C749 H734 0.930 . S
C749 C744 1.390 . S
C749 C748 1.387 . S
H750 C762 0.930 . S
H751 C764 0.930 . S
H752 C765 0.930 . S
H753 C769 0.959 . S
H754 C769 0.959 . S
H755 C769 0.961 . S
H756 C770 0.960 . S
H757 C770 0.961 . S
H758 C770 0.959 . S
H759 C773 0.929 . S
H760 C774 0.931 . S
H761 C776 0.930 . S
C762 H750 0.930 . S
C762 C763 1.399 . S
C762 C767 1.399 . S
C763 C762 1.399 . S
C763 C764 1.376 . S
C764 H751 0.930 . S
C764 C763 1.376 . S
C764 C765 1.388 . S
C765 H752 0.930 . S
C765 C764 1.388 . S
C765 C766 1.390 . S
C766 C765 1.390 . S
C766 C767 1.394 . S
C766 C772 1.465 . S
C767 C762 1.399 . S
C767 C766 1.394 . S
C767 C768 1.516 . S
C768 C767 1.516 . S
C768 C769 1.502 . S
C768 C770 1.561 . S
C768 C771 1.526 . S
C769 H753 0.959 . S
C769 H754 0.959 . S
C769 H755 0.961 . S
C769 C768 1.502 . S
C770 H756 0.960 . S
C770 H757 0.961 . S
C770 H758 0.959 . S
C770 C768 1.561 . S
C771 C768 1.526 . S
C771 C772 1.396 . S
C771 C776 1.390 . S
C772 C766 1.465 . S
C772 C771 1.396 . S
C772 C773 1.399 . S
C773 H759 0.929 . S
C773 C772 1.399 . S
C773 C774 1.385 . S
C774 H760 0.931 . S
C774 C773 1.385 . S
C774 C775 1.389 . S
C775 C774 1.389 . S
C775 C776 1.387 . S
C776 H761 0.930 . S
C776 C771 1.390 . S
C776 C775 1.387 . S
H777 C789 0.930 . S
H778 C791 0.930 . S
H779 C792 0.930 . S
H780 C796 0.959 . S
H781 C796 0.959 . S
H782 C796 0.961 . S
H783 C797 0.960 . S
H784 C797 0.961 . S
H785 C797 0.959 . S
H786 C800 0.929 . S
H787 C801 0.931 . S
H788 C803 0.930 . S
C789 H777 0.930 . S
C789 C790 1.399 . S
C789 C794 1.399 . S
C790 C789 1.399 . S
C790 C791 1.376 . S
C791 H778 0.930 . S
C791 C790 1.376 . S
C791 C792 1.388 . S
C792 H779 0.930 . S
C792 C791 1.388 . S
C792 C793 1.390 . S
C793 C792 1.390 . S
C793 C794 1.394 . S
C793 C799 1.465 . S
C794 C789 1.399 . S
C794 C793 1.394 . S
C794 C795 1.516 . S
C795 C794 1.516 . S
C795 C796 1.502 . S
C795 C797 1.561 . S
C795 C798 1.526 . S
C796 H780 0.959 . S
C796 H781 0.959 . S
C796 H782 0.961 . S
C796 C795 1.502 . S
C797 H783 0.960 . S
C797 H784 0.961 . S
C797 H785 0.959 . S
C797 C795 1.561 . S
C798 C795 1.526 . S
C798 C799 1.396 . S
C798 C803 1.390 . S
C799 C793 1.465 . S
C799 C798 1.396 . S
C799 C800 1.399 . S
C800 H786 0.929 . S
C800 C799 1.399 . S
C800 C801 1.385 . S
C801 H787 0.931 . S
C801 C800 1.385 . S
C801 C802 1.389 . S
C802 C801 1.389 . S
C802 C803 1.387 . S
C803 H788 0.930 . S
C803 C798 1.390 . S
C803 C802 1.387 . S
H804 C816 0.930 1_545 S
H805 C818 0.930 . S
H806 C819 0.930 . S
H807 C823 0.959 . S
H808 C823 0.959 . S
H809 C823 0.961 . S
H810 C824 0.960 . S
H811 C824 0.961 . S
H812 C824 0.959 . S
H813 C827 0.929 . S
H814 C828 0.931 1_565 S
H815 C830 0.930 . S
C816 H804 0.930 1_565 S
C816 C817 1.399 . S
C816 C821 1.393 1_565 S
C817 C816 1.399 . S
C817 C818 1.376 . S
C818 H805 0.930 . S
C818 C817 1.376 . S
C818 C819 1.388 . S
C819 H806 0.930 . S
C819 C818 1.388 . S
C819 C820 1.390 . S
C820 C819 1.390 . S
C820 C821 1.386 1_565 S
C820 C826 1.465 1_556 S
C821 C816 1.393 1_545 S
C821 C820 1.386 1_545 S
C821 C822 1.529 . S
C822 C821 1.529 . S
C822 C823 1.502 . S
C822 C824 1.561 . S
C822 C825 1.526 1_556 S
C823 H807 0.959 . S
C823 H808 0.959 . S
C823 H809 0.961 . S
C823 C822 1.502 . S
C824 H810 0.960 . S
C824 H811 0.961 . S
C824 H812 0.959 . S
C824 C822 1.561 . S
C825 C822 1.526 1_554 S
C825 C826 1.396 1_545 S
C825 C830 1.390 . S
C826 C820 1.465 1_554 S
C826 C825 1.396 1_565 S
C826 C827 1.399 . S
C827 H813 0.929 . S
C827 C826 1.399 . S
C827 C828 1.385 1_565 S
C828 H814 0.931 1_545 S
C828 C827 1.385 1_545 S
C828 C829 1.389 . S
C829 C828 1.389 . S
C829 C830 1.387 . S
C830 H815 0.930 . S
C830 C825 1.390 . S
C830 C829 1.387 . S
H831 C843 0.930 . S
H832 C845 0.930 . S
H833 C846 0.930 . S
H834 C850 0.959 . S
H835 C850 0.959 . S
H836 C850 0.961 . S
H837 C851 0.960 . S
H838 C851 0.961 . S
H839 C851 0.959 . S
H840 C854 0.929 . S
H841 C855 0.931 . S
H842 C857 0.930 . S
C843 H831 0.930 . S
C843 C844 1.399 . S
C843 C848 1.399 . S
C844 C843 1.399 . S
C844 C845 1.376 . S
C845 H832 0.930 . S
C845 C844 1.376 . S
C845 C846 1.388 . S
C846 H833 0.930 . S
C846 C845 1.388 . S
C846 C847 1.390 . S
C847 C846 1.390 . S
C847 C848 1.394 . S
C847 C853 1.465 . S
C848 C843 1.399 . S
C848 C847 1.394 . S
C848 C849 1.516 . S
C849 C848 1.516 . S
C849 C850 1.502 . S
C849 C851 1.561 . S
C849 C852 1.526 . S
C850 H834 0.959 . S
C850 H835 0.959 . S
C850 H836 0.961 . S
C850 C849 1.502 . S
C851 H837 0.960 . S
C851 H838 0.961 . S
C851 H839 0.959 . S
C851 C849 1.561 . S
C852 C849 1.526 . S
C852 C853 1.396 . S
C852 C857 1.390 . S
C853 C847 1.465 . S
C853 C852 1.396 . S
C853 C854 1.399 . S
C854 H840 0.929 . S
C854 C853 1.399 . S
C854 C855 1.385 . S
C855 H841 0.931 . S
C855 C854 1.385 . S
C855 C856 1.389 . S
C856 C855 1.389 . S
C856 C857 1.387 . S
C857 H842 0.930 . S
C857 C852 1.390 . S
C857 C856 1.387 . S
H858 C870 0.918 1_655 S
H859 C872 0.930 . S
H860 C873 0.930 . S
H861 C877 0.959 . S
H862 C877 0.959 . S
H863 C877 0.961 . S
H864 C878 0.960 . S
H865 C878 0.961 . S
H866 C878 0.959 . S
H867 C881 0.929 . S
H868 C882 0.931 . S
H869 C884 0.930 . S
C870 H858 0.918 1_455 S
C870 C871 1.399 . S
C870 C875 1.399 . S
C871 C870 1.399 . S
C871 C872 1.376 . S
C872 H859 0.930 . S
C872 C871 1.376 . S
C872 C873 1.388 . S
C873 H860 0.930 . S
C873 C872 1.388 . S
C873 C874 1.390 . S
C874 C873 1.390 . S
C874 C875 1.394 . S
C874 C880 1.465 . S
C875 C870 1.399 . S
C875 C874 1.394 . S
C875 C876 1.516 1_455 S
C876 C875 1.516 1_655 S
C876 C877 1.502 . S
C876 C878 1.561 . S
C876 C879 1.526 . S
C877 H861 0.959 . S
C877 H862 0.959 . S
C877 H863 0.961 . S
C877 C876 1.502 . S
C878 H864 0.960 . S
C878 H865 0.961 . S
C878 H866 0.959 . S
C878 C876 1.561 . S
C879 C876 1.526 . S
C879 C880 1.396 1_655 S
C879 C884 1.390 . S
C880 C874 1.465 . S
C880 C879 1.396 1_455 S
C880 C881 1.399 . S
C881 H867 0.929 . S
C881 C880 1.399 . S
C881 C882 1.385 1_455 S
C882 H868 0.931 . S
C882 C881 1.385 1_655 S
C882 C883 1.389 . S
C883 C882 1.389 . S
C883 C884 1.387 . S
C884 H869 0.930 . S
C884 C879 1.390 . S
C884 C883 1.387 . S
H885 C897 0.930 1_545 S
H886 C899 0.930 . S
H887 C900 0.928 . S
H888 C904 0.959 . S
H889 C904 0.959 . S
H890 C904 0.961 . S
H891 C905 0.960 . S
H892 C905 0.961 . S
H893 C905 0.959 . S
H894 C908 0.929 . S
H895 C909 0.931 1_565 S
H896 C911 0.930 . S
C897 H885 0.930 1_565 S
C897 C898 1.399 . S
C897 C902 1.394 1_565 S
C898 C897 1.399 . S
C898 C899 1.376 . S
C899 H886 0.930 . S
C899 C898 1.376 . S
C899 C900 1.388 . S
C900 H887 0.928 . S
C900 C899 1.388 . S
C900 C901 1.390 . S
C901 C900 1.390 . S
C901 C902 1.377 1_565 S
C901 C907 1.465 1_554 S
C902 C897 1.394 1_545 S
C902 C901 1.377 1_545 S
C902 C903 1.537 . S
C903 C902 1.537 . S
C903 C904 1.502 . S
C903 C905 1.561 . S
C903 C906 1.526 1_554 S
C904 H888 0.959 . S
C904 H889 0.959 . S
C904 H890 0.961 . S
C904 C903 1.502 . S
C905 H891 0.960 . S
C905 H892 0.961 . S
C905 H893 0.959 . S
C905 C903 1.561 . S
C906 C903 1.526 1_556 S
C906 C907 1.396 1_545 S
C906 C911 1.390 . S
C907 C901 1.465 1_556 S
C907 C906 1.396 1_565 S
C907 C908 1.399 . S
C908 H894 0.929 . S
C908 C907 1.399 . S
C908 C909 1.385 1_565 S
C909 H895 0.931 1_545 S
C909 C908 1.385 1_545 S
C909 C910 1.389 . S
C910 C909 1.389 . S
C910 C911 1.387 . S
C911 H896 0.930 . S
C911 C906 1.390 . S
C911 C910 1.387 . S
H912 C924 0.930 . S
H913 C926 0.930 . S
H914 C927 0.930 . S
H915 C931 0.959 . S
H916 C931 0.959 . S
H917 C931 0.961 . S
H918 C932 0.960 . S
H919 C932 0.961 . S
H920 C932 0.959 . S
H921 C935 0.929 . S
H922 C936 0.931 . S
H923 C938 0.930 . S
C924 H912 0.930 . S
C924 C925 1.399 . S
C924 C929 1.399 . S
C925 C924 1.399 . S
C925 C926 1.376 . S
C926 H913 0.930 . S
C926 C925 1.376 . S
C926 C927 1.388 . S
C927 H914 0.930 . S
C927 C926 1.388 . S
C927 C928 1.390 . S
C928 C927 1.390 . S
C928 C929 1.394 . S
C928 C934 1.465 . S
C929 C924 1.399 . S
C929 C928 1.394 . S
C929 C930 1.516 . S
C930 C929 1.516 . S
C930 C931 1.502 . S
C930 C932 1.561 . S
C930 C933 1.526 . S
C931 H915 0.959 . S
C931 H916 0.959 . S
C931 H917 0.961 . S
C931 C930 1.502 . S
C932 H918 0.960 . S
C932 H919 0.961 . S
C932 H920 0.959 . S
C932 C930 1.561 . S
C933 C930 1.526 . S
C933 C934 1.396 . S
C933 C938 1.390 . S
C934 C928 1.465 . S
C934 C933 1.396 . S
C934 C935 1.399 . S
C935 H921 0.929 . S
C935 C934 1.399 . S
C935 C936 1.385 . S
C936 H922 0.931 . S
C936 C935 1.385 . S
C936 C937 1.389 . S
C937 C936 1.389 . S
C937 C938 1.387 . S
C938 H923 0.930 . S
C938 C933 1.390 . S
C938 C937 1.387 . S
H939 C951 0.930 . S
H940 C953 0.930 . S
H941 C954 0.930 . S
H942 C958 0.959 . S
H943 C958 0.959 . S
H944 C958 0.961 . S
H945 C959 0.960 1_455 S
H946 C959 0.961 . S
H947 C959 0.959 . S
H948 C962 0.929 . S
H949 C963 0.931 . S
H950 C965 0.930 . S
C951 H939 0.930 . S
C951 C952 1.399 . S
C951 C956 1.399 . S
C952 C951 1.399 . S
C952 C953 1.376 . S
C953 H940 0.930 . S
C953 C952 1.376 . S
C953 C954 1.388 1_455 S
C954 H941 0.930 . S
C954 C953 1.388 1_655 S
C954 C955 1.390 . S
C955 C954 1.390 . S
C955 C956 1.394 1_655 S
C955 C961 1.465 . S
C956 C951 1.399 . S
C956 C955 1.394 1_455 S
C956 C957 1.516 . S
C957 C956 1.516 . S
C957 C958 1.502 . S
C957 C959 1.561 1_455 S
C957 C960 1.526 1_455 S
C958 H942 0.959 . S
C958 H943 0.959 . S
C958 H944 0.961 . S
C958 C957 1.502 . S
C959 H945 0.960 1_655 S
C959 H946 0.961 . S
C959 H947 0.959 . S
C959 C957 1.561 1_655 S
C960 C957 1.526 1_655 S
C960 C961 1.396 . S
C960 C965 1.390 . S
C961 C955 1.465 . S
C961 C960 1.396 . S
C961 C962 1.399 . S
C962 H948 0.929 . S
C962 C961 1.399 . S
C962 C963 1.385 . S
C963 H949 0.931 . S
C963 C962 1.385 . S
C963 C964 1.389 . S
C964 C963 1.389 . S
C964 C965 1.387 . S
C965 H950 0.930 . S
C965 C960 1.390 . S
C965 C964 1.387 . S
H966 C978 0.930 . S
H967 C980 0.930 . S
H968 C981 0.930 . S
H969 C985 0.959 . S
H970 C985 0.959 . S
H971 C985 0.961 . S
H972 C986 0.960 . S
H973 C986 0.961 . S
H974 C986 0.959 . S
H975 C989 0.929 . S
H976 C990 0.931 . S
H977 C992 0.930 . S
C978 H966 0.930 . S
C978 C979 1.399 . S
C978 C983 1.399 . S
C979 C978 1.399 . S
C979 C980 1.376 . S
C980 H967 0.930 . S
C980 C979 1.376 . S
C980 C981 1.388 . S
C981 H968 0.930 . S
C981 C980 1.388 . S
C981 C982 1.390 . S
C982 C981 1.390 . S
C982 C983 1.394 . S
C982 C988 1.465 1_545 S
C983 C978 1.399 . S
C983 C982 1.394 . S
C983 C984 1.516 . S
C984 C983 1.516 . S
C984 C985 1.502 . S
C984 C986 1.561 1_545 S
C984 C987 1.526 1_545 S
C985 H969 0.959 . S
C985 H970 0.959 . S
C985 H971 0.961 . S
C985 C984 1.502 . S
C986 H972 0.960 . S
C986 H973 0.961 . S
C986 H974 0.959 . S
C986 C984 1.561 1_565 S
C987 C984 1.526 1_565 S
C987 C988 1.396 . S
C987 C992 1.390 . S
C988 C982 1.465 1_565 S
C988 C987 1.396 . S
C988 C989 1.399 . S
C989 H975 0.929 . S
C989 C988 1.399 . S
C989 C990 1.385 . S
C990 H976 0.931 . S
C990 C989 1.385 . S
C990 C991 1.389 . S
C991 C990 1.389 . S
C991 C992 1.387 . S
C992 H977 0.930 . S
C992 C987 1.390 . S
C992 C991 1.387 . S
H993 C1005 0.930 . S
H994 C1007 0.930 . S
H995 C1008 0.930 . S
H996 C1012 0.959 . S
H997 C1012 0.959 . S
H998 C1012 0.961 . S
H999 C1013 0.960 . S
H1000 C1013 0.961 . S
H1001 C1013 0.959 . S
H1002 C1016 0.929 . S
H1003 C1017 0.931 . S
H1004 C1019 0.930 . S
C1005 H993 0.930 . S
C1005 C1006 1.399 . S
C1005 C1010 1.399 . S
C1006 C1005 1.399 . S
C1006 C1007 1.376 . S
C1007 H994 0.930 . S
C1007 C1006 1.376 . S
C1007 C1008 1.388 . S
C1008 H995 0.930 . S
C1008 C1007 1.388 . S
C1008 C1009 1.390 . S
C1009 C1008 1.390 . S
C1009 C1010 1.394 . S
C1009 C1015 1.465 . S
C1010 C1005 1.399 . S
C1010 C1009 1.394 . S
C1010 C1011 1.516 . S
C1011 C1010 1.516 . S
C1011 C1012 1.502 . S
C1011 C1013 1.561 . S
C1011 C1014 1.526 . S
C1012 H996 0.959 . S
C1012 H997 0.959 . S
C1012 H998 0.961 . S
C1012 C1011 1.502 . S
C1013 H999 0.960 . S
C1013 H1000 0.961 . S
C1013 H1001 0.959 . S
C1013 C1011 1.561 . S
C1014 C1011 1.526 . S
C1014 C1015 1.396 . S
C1014 C1019 1.390 . S
C1015 C1009 1.465 . S
C1015 C1014 1.396 . S
C1015 C1016 1.399 . S
C1016 H1002 0.929 . S
C1016 C1015 1.399 . S
C1016 C1017 1.385 . S
C1017 H1003 0.931 . S
C1017 C1016 1.385 . S
C1017 C1018 1.389 . S
C1018 C1017 1.389 . S
C1018 C1019 1.387 . S
C1019 H1004 0.930 . S
C1019 C1014 1.390 . S
C1019 C1018 1.387 . S
H1020 C1032 0.930 . S
H1021 C1034 0.930 . S
H1022 C1035 0.930 . S
H1023 C1039 0.959 . S
H1024 C1039 0.959 . S
H1025 C1039 0.961 . S
H1026 C1040 0.960 . S
H1027 C1040 0.961 1_455 S
H1028 C1040 0.959 . S
H1029 C1043 0.929 . S
H1030 C1044 0.931 . S
H1031 C1046 0.930 . S
C1032 H1020 0.930 . S
C1032 C1033 1.399 . S
C1032 C1037 1.399 . S
C1033 C1032 1.399 . S
C1033 C1034 1.376 . S
C1034 H1021 0.930 . S
C1034 C1033 1.376 . S
C1034 C1035 1.388 . S
C1035 H1022 0.930 . S
C1035 C1034 1.388 . S
C1035 C1036 1.390 . S
C1036 C1035 1.390 . S
C1036 C1037 1.394 . S
C1036 C1042 1.465 1_655 S
C1037 C1032 1.399 . S
C1037 C1036 1.394 . S
C1037 C1038 1.516 1_655 S
C1038 C1037 1.516 1_455 S
C1038 C1039 1.502 . S
C1038 C1040 1.561 1_455 S
C1038 C1041 1.526 . S
C1039 H1023 0.959 . S
C1039 H1024 0.959 . S
C1039 H1025 0.961 . S
C1039 C1038 1.502 . S
C1040 H1026 0.960 . S
C1040 H1027 0.961 1_655 S
C1040 H1028 0.959 . S
C1040 C1038 1.561 1_655 S
C1041 C1038 1.526 . S
C1041 C1042 1.396 . S
C1041 C1046 1.390 . S
C1042 C1036 1.465 1_455 S
C1042 C1041 1.396 . S
C1042 C1043 1.399 . S
C1043 H1029 0.929 . S
C1043 C1042 1.399 . S
C1043 C1044 1.385 . S
C1044 H1030 0.931 . S
C1044 C1043 1.385 . S
C1044 C1045 1.389 . S
C1045 C1044 1.389 . S
C1045 C1046 1.387 . S
C1046 H1031 0.930 . S
C1046 C1041 1.390 . S
C1046 C1045 1.387 . S
H1047 C1059 0.930 . S
H1048 C1061 0.930 . S
H1049 C1062 0.930 . S
H1050 C1066 0.959 . S
H1051 C1066 0.959 . S
H1052 C1066 0.961 . S
H1053 C1067 0.960 . S
H1054 C1067 0.961 . S
H1055 C1067 0.959 . S
H1056 C1070 0.929 . S
H1057 C1071 0.931 . S
H1058 C1073 0.930 . S
C1059 H1047 0.930 . S
C1059 C1060 1.399 . S
C1059 C1064 1.399 . S
C1060 C1059 1.399 . S
C1060 C1061 1.376 . S
C1061 H1048 0.930 . S
C1061 C1060 1.376 . S
C1061 C1062 1.388 . S
C1062 H1049 0.930 . S
C1062 C1061 1.388 . S
C1062 C1063 1.390 . S
C1063 C1062 1.390 . S
C1063 C1064 1.394 . S
C1063 C1069 1.465 1_455 S
C1064 C1059 1.399 . S
C1064 C1063 1.394 . S
C1064 C1065 1.498 1_455 S
C1065 C1064 1.498 1_655 S
C1065 C1066 1.509 . S
C1065 C1067 1.554 1_655 S
C1065 C1068 1.544 . S
C1066 H1050 0.959 . S
C1066 H1051 0.959 . S
C1066 H1052 0.961 . S
C1066 C1065 1.509 . S
C1067 H1053 0.960 . S
C1067 H1054 0.961 . S
C1067 H1055 0.959 . S
C1067 C1065 1.554 1_455 S
C1068 C1065 1.544 . S
C1068 C1069 1.396 . S
C1068 C1073 1.390 . S
C1069 C1063 1.465 1_655 S
C1069 C1068 1.396 . S
C1069 C1070 1.399 . S
C1070 H1056 0.929 . S
C1070 C1069 1.399 . S
C1070 C1071 1.385 . S
C1071 H1057 0.931 . S
C1071 C1070 1.385 . S
C1071 C1072 1.389 . S
C1072 C1071 1.389 . S
C1072 C1073 1.387 . S
C1073 H1058 0.930 . S
C1073 C1068 1.390 . S
C1073 C1072 1.387 . S
H1074 C1086 0.930 . S
H1075 C1088 0.930 . S
H1076 C1089 0.930 1_545 S
H1077 C1093 0.959 . S
H1078 C1093 0.959 . S
H1079 C1093 0.961 . S
H1080 C1094 0.962 . S
H1081 C1094 0.962 1_545 S
H1082 C1094 0.954 1_545 S
H1083 C1097 0.929 . S
H1084 C1098 0.931 . S
H1085 C1100 0.930 . S
C1086 H1074 0.930 . S
C1086 C1087 1.399 . S
C1086 C1091 1.399 . S
C1087 C1086 1.399 . S
C1087 C1088 1.376 . S
C1088 H1075 0.930 . S
C1088 C1087 1.376 . S
C1088 C1089 1.388 . S
C1089 H1076 0.930 1_565 S
C1089 C1088 1.388 . S
C1089 C1090 1.390 . S
C1090 C1089 1.390 . S
C1090 C1091 1.394 . S
C1090 C1096 1.465 1_565 S
C1091 C1086 1.399 . S
C1091 C1090 1.394 . S
C1091 C1092 1.516 . S
C1092 C1091 1.516 . S
C1092 C1093 1.502 . S
C1092 C1094 1.563 . S
C1092 C1095 1.526 1_565 S
C1093 H1077 0.959 . S
C1093 H1078 0.959 . S
C1093 H1079 0.961 . S
C1093 C1092 1.502 . S
C1094 H1080 0.962 . S
C1094 H1081 0.962 1_565 S
C1094 H1082 0.954 1_565 S
C1094 C1092 1.563 . S
C1095 C1092 1.526 1_545 S
C1095 C1096 1.396 . S
C1095 C1100 1.390 . S
C1096 C1090 1.465 1_545 S
C1096 C1095 1.396 . S
C1096 C1097 1.399 . S
C1097 H1083 0.929 . S
C1097 C1096 1.399 . S
C1097 C1098 1.385 . S
C1098 H1084 0.931 . S
C1098 C1097 1.385 . S
C1098 C1099 1.389 . S
C1099 C1098 1.389 . S
C1099 C1100 1.387 . S
C1100 H1085 0.930 . S
C1100 C1095 1.390 . S
C1100 C1099 1.387 . S
H1101 C1113 0.930 . S
H1102 C1115 0.930 . S
H1103 C1116 0.930 . S
H1104 C1120 0.959 . S
H1105 C1120 0.959 . S
H1106 C1120 0.961 . S
H1107 C1121 0.960 . S
H1108 C1121 0.961 . S
H1109 C1121 0.959 . S
H1110 C1124 0.929 . S
H1111 C1125 0.931 . S
H1112 C1127 0.930 . S
C1113 H1101 0.930 . S
C1113 C1114 1.399 . S
C1113 C1118 1.399 . S
C1114 C1113 1.399 . S
C1114 C1115 1.376 . S
C1115 H1102 0.930 . S
C1115 C1114 1.376 . S
C1115 C1116 1.388 . S
C1116 H1103 0.930 . S
C1116 C1115 1.388 . S
C1116 C1117 1.390 . S
C1117 C1116 1.390 . S
C1117 C1118 1.394 . S
C1117 C1123 1.465 . S
C1118 C1113 1.399 . S
C1118 C1117 1.394 . S
C1118 C1119 1.516 . S
C1119 C1118 1.516 . S
C1119 C1120 1.502 . S
C1119 C1121 1.561 . S
C1119 C1122 1.526 . S
C1120 H1104 0.959 . S
C1120 H1105 0.959 . S
C1120 H1106 0.961 . S
C1120 C1119 1.502 . S
C1121 H1107 0.960 . S
C1121 H1108 0.961 . S
C1121 H1109 0.959 . S
C1121 C1119 1.561 . S
C1122 C1119 1.526 . S
C1122 C1123 1.396 . S
C1122 C1127 1.390 . S
C1123 C1117 1.465 . S
C1123 C1122 1.396 . S
C1123 C1124 1.399 . S
C1124 H1110 0.929 . S
C1124 C1123 1.399 . S
C1124 C1125 1.385 . S
C1125 H1111 0.931 . S
C1125 C1124 1.385 . S
C1125 C1126 1.389 . S
C1126 C1125 1.389 . S
C1126 C1127 1.387 . S
C1127 H1112 0.930 . S
C1127 C1122 1.390 . S
C1127 C1126 1.387 . S
H1128 C1140 0.930 . S
H1129 C1142 0.930 . S
H1130 C1143 0.930 . S
H1131 C1147 0.959 . S
H1132 C1147 0.959 . S
H1133 C1147 0.961 . S
H1134 C1148 0.960 . S
H1135 C1148 0.961 . S
H1136 C1148 0.959 . S
H1137 C1151 0.929 1_565 S
H1138 C1152 0.931 . S
H1139 C1154 0.930 . S
C1140 H1128 0.930 . S
C1140 C1141 1.399 . S
C1140 C1145 1.399 . S
C1141 C1140 1.399 . S
C1141 C1142 1.376 . S
C1142 H1129 0.930 . S
C1142 C1141 1.376 . S
C1142 C1143 1.388 . S
C1143 H1130 0.930 . S
C1143 C1142 1.388 . S
C1143 C1144 1.390 . S
C1144 C1143 1.390 . S
C1144 C1145 1.394 . S
C1144 C1150 1.465 1_565 S
C1145 C1140 1.399 . S
C1145 C1144 1.394 . S
C1145 C1146 1.516 1_565 S
C1146 C1145 1.516 1_545 S
C1146 C1147 1.502 . S
C1146 C1148 1.561 . S
C1146 C1149 1.526 . S
C1147 H1131 0.959 . S
C1147 H1132 0.959 . S
C1147 H1133 0.961 . S
C1147 C1146 1.502 . S
C1148 H1134 0.960 . S
C1148 H1135 0.961 . S
C1148 H1136 0.959 . S
C1148 C1146 1.561 . S
C1149 C1146 1.526 . S
C1149 C1150 1.396 . S
C1149 C1154 1.390 . S
C1150 C1144 1.465 1_545 S
C1150 C1149 1.396 . S
C1150 C1151 1.399 . S
C1151 H1137 0.929 1_545 S
C1151 C1150 1.399 . S
C1151 C1152 1.385 . S
C1152 H1138 0.931 . S
C1152 C1151 1.385 . S
C1152 C1153 1.389 . S
C1153 C1152 1.389 . S
C1153 C1154 1.387 . S
C1154 H1139 0.930 . S
C1154 C1149 1.390 . S
C1154 C1153 1.387 . S
H1155 C1167 0.930 . S
H1156 C1169 0.930 . S
H1157 C1170 0.930 . S
H1158 C1174 0.959 . S
H1159 C1174 0.959 . S
H1160 C1174 0.961 . S
H1161 C1175 0.960 . S
H1162 C1175 0.961 . S
H1163 C1175 0.959 . S
H1164 C1178 0.929 . S
H1165 C1179 0.931 . S
H1166 C1181 0.930 . S
C1167 H1155 0.930 . S
C1167 C1168 1.399 . S
C1167 C1172 1.399 . S
C1168 C1167 1.399 . S
C1168 C1169 1.376 . S
C1169 H1156 0.930 . S
C1169 C1168 1.376 . S
C1169 C1170 1.388 . S
C1170 H1157 0.930 . S
C1170 C1169 1.388 . S
C1170 C1171 1.390 . S
C1171 C1170 1.390 . S
C1171 C1172 1.394 . S
C1171 C1177 1.465 . S
C1172 C1167 1.399 . S
C1172 C1171 1.394 . S
C1172 C1173 1.516 . S
C1173 C1172 1.516 . S
C1173 C1174 1.502 . S
C1173 C1175 1.561 . S
C1173 C1176 1.526 . S
C1174 H1158 0.959 . S
C1174 H1159 0.959 . S
C1174 H1160 0.961 . S
C1174 C1173 1.502 . S
C1175 H1161 0.960 . S
C1175 H1162 0.961 . S
C1175 H1163 0.959 . S
C1175 C1173 1.561 . S
C1176 C1173 1.526 . S
C1176 C1177 1.396 . S
C1176 C1181 1.390 . S
C1177 C1171 1.465 . S
C1177 C1176 1.396 . S
C1177 C1178 1.399 . S
C1178 H1164 0.929 . S
C1178 C1177 1.399 . S
C1178 C1179 1.385 . S
C1179 H1165 0.931 . S
C1179 C1178 1.385 . S
C1179 C1180 1.389 . S
C1180 C1179 1.389 . S
C1180 C1181 1.387 . S
C1181 H1166 0.930 . S
C1181 C1176 1.390 . S
C1181 C1180 1.387 . S
H1182 C1194 0.930 . S
H1183 C1196 0.930 . S
H1184 C1197 0.930 1_455 S
H1185 C1201 0.959 . S
H1186 C1201 0.959 . S
H1187 C1201 0.961 . S
H1188 C1202 0.960 . S
H1189 C1202 0.961 . S
H1190 C1202 0.959 . S
H1191 C1205 0.929 . S
H1192 C1206 0.931 . S
H1193 C1208 0.930 . S
C1194 H1182 0.930 . S
C1194 C1195 1.399 . S
C1194 C1199 1.399 . S
C1195 C1194 1.399 . S
C1195 C1196 1.376 . S
C1196 H1183 0.930 . S
C1196 C1195 1.376 . S
C1196 C1197 1.388 . S
C1197 H1184 0.930 1_655 S
C1197 C1196 1.388 . S
C1197 C1198 1.390 . S
C1198 C1197 1.390 . S
C1198 C1199 1.394 . S
C1198 C1204 1.465 1_655 S
C1199 C1194 1.399 . S
C1199 C1198 1.394 . S
C1199 C1200 1.516 . S
C1200 C1199 1.516 . S
C1200 C1201 1.502 . S
C1200 C1202 1.561 . S
C1200 C1203 1.526 1_655 S
C1201 H1185 0.959 . S
C1201 H1186 0.959 . S
C1201 H1187 0.961 . S
C1201 C1200 1.502 . S
C1202 H1188 0.960 . S
C1202 H1189 0.961 . S
C1202 H1190 0.959 . S
C1202 C1200 1.561 . S
C1203 C1200 1.526 1_455 S
C1203 C1204 1.396 . S
C1203 C1208 1.390 . S
C1204 C1198 1.465 1_455 S
C1204 C1203 1.396 . S
C1204 C1205 1.399 . S
C1205 H1191 0.929 . S
C1205 C1204 1.399 . S
C1205 C1206 1.385 . S
C1206 H1192 0.931 . S
C1206 C1205 1.385 . S
C1206 C1207 1.389 . S
C1207 C1206 1.389 . S
C1207 C1208 1.387 . S
C1208 H1193 0.930 . S
C1208 C1203 1.390 . S
C1208 C1207 1.387 . S
H1209 C1221 0.930 . S
H1210 C1223 0.930 . S
H1211 C1224 0.930 1_565 S
H1212 C1228 0.959 . S
H1213 C1228 0.959 . S
H1214 C1228 0.961 . S
H1215 C1229 0.960 . S
H1216 C1229 0.961 . S
H1217 C1229 0.959 . S
H1218 C1232 0.929 . S
H1219 C1233 0.931 . S
H1220 C1235 0.930 . S
C1221 H1209 0.930 . S
C1221 C1222 1.399 . S
C1221 C1226 1.399 . S
C1222 C1221 1.399 . S
C1222 C1223 1.376 . S
C1223 H1210 0.930 . S
C1223 C1222 1.376 . S
C1223 C1224 1.388 . S
C1224 H1211 0.930 1_545 S
C1224 C1223 1.388 . S
C1224 C1225 1.390 . S
C1225 C1224 1.390 . S
C1225 C1226 1.394 . S
C1225 C1231 1.465 1_545 S
C1226 C1221 1.399 . S
C1226 C1225 1.394 . S
C1226 C1227 1.516 . S
C1227 C1226 1.516 . S
C1227 C1228 1.502 . S
C1227 C1229 1.561 . S
C1227 C1230 1.526 1_545 S
C1228 H1212 0.959 . S
C1228 H1213 0.959 . S
C1228 H1214 0.961 . S
C1228 C1227 1.502 . S
C1229 H1215 0.960 . S
C1229 H1216 0.961 . S
C1229 H1217 0.959 . S
C1229 C1227 1.561 . S
C1230 C1227 1.526 1_565 S
C1230 C1231 1.396 . S
C1230 C1235 1.390 . S
C1231 C1225 1.465 1_565 S
C1231 C1230 1.396 . S
C1231 C1232 1.399 . S
C1232 H1218 0.929 . S
C1232 C1231 1.399 . S
C1232 C1233 1.385 . S
C1233 H1219 0.931 . S
C1233 C1232 1.385 . S
C1233 C1234 1.389 . S
C1234 C1233 1.389 . S
C1234 C1235 1.387 . S
C1235 H1220 0.930 . S
C1235 C1230 1.390 . S
C1235 C1234 1.387 . S
H1236 C1248 0.930 . S
H1237 C1250 0.930 . S
H1238 C1251 0.930 . S
H1239 C1255 0.959 . S
H1240 C1255 0.959 . S
H1241 C1255 0.961 . S
H1242 C1256 0.960 . S
H1243 C1256 0.961 . S
H1244 C1256 0.959 . S
H1245 C1259 0.929 . S
H1246 C1260 0.931 . S
H1247 C1262 0.930 . S
C1248 H1236 0.930 . S
C1248 C1249 1.399 . S
C1248 C1253 1.399 . S
C1249 C1248 1.399 . S
C1249 C1250 1.376 . S
C1250 H1237 0.930 . S
C1250 C1249 1.376 . S
C1250 C1251 1.388 . S
C1251 H1238 0.930 . S
C1251 C1250 1.388 . S
C1251 C1252 1.390 . S
C1252 C1251 1.390 . S
C1252 C1253 1.394 . S
C1252 C1258 1.465 . S
C1253 C1248 1.399 . S
C1253 C1252 1.394 . S
C1253 C1254 1.516 . S
C1254 C1253 1.516 . S
C1254 C1255 1.502 . S
C1254 C1256 1.561 . S
C1254 C1257 1.526 . S
C1255 H1239 0.959 . S
C1255 H1240 0.959 . S
C1255 H1241 0.961 . S
C1255 C1254 1.502 . S
C1256 H1242 0.960 . S
C1256 H1243 0.961 . S
C1256 H1244 0.959 . S
C1256 C1254 1.561 . S
C1257 C1254 1.526 . S
C1257 C1258 1.396 . S
C1257 C1262 1.390 . S
C1258 C1252 1.465 . S
C1258 C1257 1.396 . S
C1258 C1259 1.399 . S
C1259 H1245 0.929 . S
C1259 C1258 1.399 . S
C1259 C1260 1.385 . S
C1260 H1246 0.931 . S
C1260 C1259 1.385 . S
C1260 C1261 1.389 . S
C1261 C1260 1.389 . S
C1261 C1262 1.387 . S
C1262 H1247 0.930 . S
C1262 C1257 1.390 . S
C1262 C1261 1.387 . S
H1263 C1275 0.930 . S
H1264 C1277 0.930 . S
H1265 C1278 0.930 . S
H1266 C1282 0.959 1_455 S
H1267 C1282 0.959 . S
H1268 C1282 0.961 1_455 S
H1269 C1283 0.960 . S
H1270 C1283 0.961 . S
H1271 C1283 0.959 . S
H1272 C1286 0.929 . S
H1273 C1287 0.931 . S
H1274 C1289 0.930 . S
C1275 H1263 0.930 . S
C1275 C1276 1.399 . S
C1275 C1280 1.399 . S
C1276 C1275 1.399 . S
C1276 C1277 1.376 . S
C1277 H1264 0.930 . S
C1277 C1276 1.376 . S
C1277 C1278 1.388 . S
C1278 H1265 0.930 . S
C1278 C1277 1.388 . S
C1278 C1279 1.390 . S
C1279 C1278 1.390 . S
C1279 C1280 1.394 . S
C1279 C1285 1.465 1_455 S
C1280 C1275 1.399 . S
C1280 C1279 1.394 . S
C1280 C1281 1.516 1_455 S
C1281 C1280 1.516 1_655 S
C1281 C1282 1.502 . S
C1281 C1283 1.561 . S
C1281 C1284 1.526 . S
C1282 H1266 0.959 1_655 S
C1282 H1267 0.959 . S
C1282 H1268 0.961 1_655 S
C1282 C1281 1.502 . S
C1283 H1269 0.960 . S
C1283 H1270 0.961 . S
C1283 H1271 0.959 . S
C1283 C1281 1.561 . S
C1284 C1281 1.526 . S
C1284 C1285 1.396 . S
C1284 C1289 1.390 . S
C1285 C1279 1.465 1_655 S
C1285 C1284 1.396 . S
C1285 C1286 1.399 . S
C1286 H1272 0.929 . S
C1286 C1285 1.399 . S
C1286 C1287 1.385 . S
C1287 H1273 0.931 . S
C1287 C1286 1.385 . S
C1287 C1288 1.389 . S
C1288 C1287 1.389 . S
C1288 C1289 1.387 . S
C1289 H1274 0.930 . S
C1289 C1284 1.390 . S
C1289 C1288 1.387 . S
H1290 C1302 0.930 . S
H1291 C1304 0.930 . S
H1292 C1305 0.930 . S
H1293 C1309 0.959 . S
H1294 C1309 0.959 . S
H1295 C1309 0.961 . S
H1296 C1310 0.960 . S
H1297 C1310 0.961 . S
H1298 C1310 0.959 . S
H1299 C1313 0.929 . S
H1300 C1314 0.931 . S
H1301 C1316 0.930 . S
C1302 H1290 0.930 . S
C1302 C1303 1.399 . S
C1302 C1307 1.399 . S
C1303 C1302 1.399 . S
C1303 C1304 1.376 . S
C1304 H1291 0.930 . S
C1304 C1303 1.376 . S
C1304 C1305 1.388 . S
C1305 H1292 0.930 . S
C1305 C1304 1.388 . S
C1305 C1306 1.390 . S
C1306 C1305 1.390 . S
C1306 C1307 1.394 . S
C1306 C1312 1.465 . S
C1307 C1302 1.399 . S
C1307 C1306 1.394 . S
C1307 C1308 1.516 . S
C1308 C1307 1.516 . S
C1308 C1309 1.502 . S
C1308 C1310 1.561 . S
C1308 C1311 1.526 . S
C1309 H1293 0.959 . S
C1309 H1294 0.959 . S
C1309 H1295 0.961 . S
C1309 C1308 1.502 . S
C1310 H1296 0.960 . S
C1310 H1297 0.961 . S
C1310 H1298 0.959 . S
C1310 C1308 1.561 . S
C1311 C1308 1.526 . S
C1311 C1312 1.396 . S
C1311 C1316 1.390 . S
C1312 C1306 1.465 . S
C1312 C1311 1.396 . S
C1312 C1313 1.399 . S
C1313 H1299 0.929 . S
C1313 C1312 1.399 . S
C1313 C1314 1.385 . S
C1314 H1300 0.931 . S
C1314 C1313 1.385 . S
C1314 C1315 1.389 . S
C1315 C1314 1.389 . S
C1315 C1316 1.387 . S
C1316 H1301 0.930 . S
C1316 C1311 1.390 . S
C1316 C1315 1.387 . S
H1317 C1329 0.930 . S
H1318 C1331 0.930 . S
H1319 C1332 0.930 . S
H1320 C1336 0.959 . S
H1321 C1336 0.959 . S
H1322 C1336 0.961 . S
H1323 C1337 0.960 . S
H1324 C1337 0.961 . S
H1325 C1337 0.959 . S
H1326 C1340 0.929 . S
H1327 C1341 0.931 . S
H1328 C1343 0.930 . S
C1329 H1317 0.930 . S
C1329 C1330 1.399 . S
C1329 C1334 1.399 . S
C1330 C1329 1.399 . S
C1330 C1331 1.376 . S
C1331 H1318 0.930 . S
C1331 C1330 1.376 . S
C1331 C1332 1.388 . S
C1332 H1319 0.930 . S
C1332 C1331 1.388 . S
C1332 C1333 1.390 . S
C1333 C1332 1.390 . S
C1333 C1334 1.394 . S
C1333 C1339 1.465 . S
C1334 C1329 1.399 . S
C1334 C1333 1.394 . S
C1334 C1335 1.516 . S
C1335 C1334 1.516 . S
C1335 C1336 1.502 . S
C1335 C1337 1.561 . S
C1335 C1338 1.526 . S
C1336 H1320 0.959 . S
C1336 H1321 0.959 . S
C1336 H1322 0.961 . S
C1336 C1335 1.502 . S
C1337 H1323 0.960 . S
C1337 H1324 0.961 . S
C1337 H1325 0.959 . S
C1337 C1335 1.561 . S
C1338 C1335 1.526 . S
C1338 C1339 1.396 . S
C1338 C1343 1.390 . S
C1339 C1333 1.465 . S
C1339 C1338 1.396 . S
C1339 C1340 1.399 . S
C1340 H1326 0.929 . S
C1340 C1339 1.399 . S
C1340 C1341 1.385 . S
C1341 H1327 0.931 . S
C1341 C1340 1.385 . S
C1341 C1342 1.389 . S
C1342 C1341 1.389 . S
C1342 C1343 1.387 . S
C1343 H1328 0.930 . S
C1343 C1338 1.390 . S
C1343 C1342 1.387 . S
H1344 C1356 0.930 . S
H1345 C1358 0.930 . S
H1346 C1359 0.930 . S
H1347 C1363 0.959 . S
H1348 C1363 0.959 . S
H1349 C1363 0.961 . S
H1350 C1364 0.960 . S
H1351 C1364 0.961 . S
H1352 C1364 0.959 . S
H1353 C1367 0.929 . S
H1354 C1368 0.931 . S
H1355 C1370 0.930 . S
C1356 H1344 0.930 . S
C1356 C1357 1.399 . S
C1356 C1361 1.399 . S
C1357 C1356 1.399 . S
C1357 C1358 1.376 . S
C1358 H1345 0.930 . S
C1358 C1357 1.376 . S
C1358 C1359 1.388 . S
C1359 H1346 0.930 . S
C1359 C1358 1.388 . S
C1359 C1360 1.390 . S
C1360 C1359 1.390 . S
C1360 C1361 1.394 . S
C1360 C1366 1.465 . S
C1361 C1356 1.399 . S
C1361 C1360 1.394 . S
C1361 C1362 1.516 . S
C1362 C1361 1.516 . S
C1362 C1363 1.502 . S
C1362 C1364 1.561 . S
C1362 C1365 1.526 . S
C1363 H1347 0.959 . S
C1363 H1348 0.959 . S
C1363 H1349 0.961 . S
C1363 C1362 1.502 . S
C1364 H1350 0.960 . S
C1364 H1351 0.961 . S
C1364 H1352 0.959 . S
C1364 C1362 1.561 . S
C1365 C1362 1.526 . S
C1365 C1366 1.396 . S
C1365 C1370 1.390 . S
C1366 C1360 1.465 . S
C1366 C1365 1.396 . S
C1366 C1367 1.399 . S
C1367 H1353 0.929 . S
C1367 C1366 1.399 . S
C1367 C1368 1.385 . S
C1368 H1354 0.931 . S
C1368 C1367 1.385 . S
C1368 C1369 1.389 . S
C1369 C1368 1.389 . S
C1369 C1370 1.387 . S
C1370 H1355 0.930 . S
C1370 C1365 1.390 . S
C1370 C1369 1.387 . S
H1371 C1383 0.930 . S
H1372 C1385 0.930 . S
H1373 C1386 0.930 . S
H1374 C1390 0.959 . S
H1375 C1390 0.959 . S
H1376 C1390 0.961 . S
H1377 C1391 0.960 . S
H1378 C1391 0.961 . S
H1379 C1391 0.959 . S
H1380 C1394 0.929 . S
H1381 C1395 0.931 . S
H1382 C1397 0.930 . S
C1383 H1371 0.930 . S
C1383 C1384 1.399 . S
C1383 C1388 1.399 . S
C1384 C1383 1.399 . S
C1384 C1385 1.376 . S
C1385 H1372 0.930 . S
C1385 C1384 1.376 . S
C1385 C1386 1.388 . S
C1386 H1373 0.930 . S
C1386 C1385 1.388 . S
C1386 C1387 1.390 . S
C1387 C1386 1.390 . S
C1387 C1388 1.394 . S
C1387 C1393 1.465 . S
C1388 C1383 1.399 . S
C1388 C1387 1.394 . S
C1388 C1389 1.516 . S
C1389 C1388 1.516 . S
C1389 C1390 1.502 . S
C1389 C1391 1.561 . S
C1389 C1392 1.526 . S
C1390 H1374 0.959 . S
C1390 H1375 0.959 . S
C1390 H1376 0.961 . S
C1390 C1389 1.502 . S
C1391 H1377 0.960 . S
C1391 H1378 0.961 . S
C1391 H1379 0.959 . S
C1391 C1389 1.561 . S
C1392 C1389 1.526 . S
C1392 C1393 1.396 . S
C1392 C1397 1.390 . S
C1393 C1387 1.465 . S
C1393 C1392 1.396 . S
C1393 C1394 1.399 . S
C1394 H1380 0.929 . S
C1394 C1393 1.399 . S
C1394 C1395 1.385 . S
C1395 H1381 0.931 . S
C1395 C1394 1.385 . S
C1395 C1396 1.389 . S
C1396 C1395 1.389 . S
C1396 C1397 1.387 . S
C1397 H1382 0.930 . S
C1397 C1392 1.390 . S
C1397 C1396 1.387 . S
H1398 C1410 0.930 . S
H1399 C1412 0.930 . S
H1400 C1413 0.930 . S
H1401 C1417 0.959 . S
H1402 C1417 0.959 . S
H1403 C1417 0.961 . S
H1404 C1418 0.960 . S
H1405 C1418 0.961 . S
H1406 C1418 0.959 . S
H1407 C1421 0.929 . S
H1408 C1422 0.931 . S
H1409 C1424 0.930 . S
C1410 H1398 0.930 . S
C1410 C1411 1.399 . S
C1410 C1415 1.399 . S
C1411 C1410 1.399 . S
C1411 C1412 1.376 . S
C1412 H1399 0.930 . S
C1412 C1411 1.376 . S
C1412 C1413 1.388 . S
C1413 H1400 0.930 . S
C1413 C1412 1.388 . S
C1413 C1414 1.390 . S
C1414 C1413 1.390 . S
C1414 C1415 1.394 . S
C1414 C1420 1.465 . S
C1415 C1410 1.399 . S
C1415 C1414 1.394 . S
C1415 C1416 1.516 . S
C1416 C1415 1.516 . S
C1416 C1417 1.502 . S
C1416 C1418 1.561 . S
C1416 C1419 1.526 . S
C1417 H1401 0.959 . S
C1417 H1402 0.959 . S
C1417 H1403 0.961 . S
C1417 C1416 1.502 . S
C1418 H1404 0.960 . S
C1418 H1405 0.961 . S
C1418 H1406 0.959 . S
C1418 C1416 1.561 . S
C1419 C1416 1.526 . S
C1419 C1420 1.396 . S
C1419 C1424 1.390 . S
C1420 C1414 1.465 . S
C1420 C1419 1.396 . S
C1420 C1421 1.399 . S
C1421 H1407 0.929 . S
C1421 C1420 1.399 . S
C1421 C1422 1.385 . S
C1422 H1408 0.931 . S
C1422 C1421 1.385 . S
C1422 C1423 1.389 . S
C1423 C1422 1.389 . S
C1423 C1424 1.387 . S
C1424 H1409 0.930 . S
C1424 C1419 1.390 . S
C1424 C1423 1.387 . S
H1425 C1437 0.930 . S
H1426 C1439 0.930 . S
H1427 C1440 0.930 . S
H1428 C1444 0.959 . S
H1429 C1444 0.959 . S
H1430 C1444 0.961 . S
H1431 C1445 0.960 . S
H1432 C1445 0.961 . S
H1433 C1445 0.959 . S
H1434 C1448 0.929 . S
H1435 C1449 0.931 . S
H1436 C1451 0.930 . S
C1437 H1425 0.930 . S
C1437 C1438 1.399 . S
C1437 C1442 1.399 . S
C1438 C1437 1.399 . S
C1438 C1439 1.376 . S
C1439 H1426 0.930 . S
C1439 C1438 1.376 . S
C1439 C1440 1.388 . S
C1440 H1427 0.930 . S
C1440 C1439 1.388 . S
C1440 C1441 1.390 . S
C1441 C1440 1.390 . S
C1441 C1442 1.394 . S
C1441 C1447 1.465 . S
C1442 C1437 1.399 . S
C1442 C1441 1.394 . S
C1442 C1443 1.516 . S
C1443 C1442 1.516 . S
C1443 C1444 1.502 . S
C1443 C1445 1.561 . S
C1443 C1446 1.526 . S
C1444 H1428 0.959 . S
C1444 H1429 0.959 . S
C1444 H1430 0.961 . S
C1444 C1443 1.502 . S
C1445 H1431 0.960 . S
C1445 H1432 0.961 . S
C1445 H1433 0.959 . S
C1445 C1443 1.561 . S
C1446 C1443 1.526 . S
C1446 C1447 1.396 . S
C1446 C1451 1.390 . S
C1447 C1441 1.465 . S
C1447 C1446 1.396 . S
C1447 C1448 1.399 . S
C1448 H1434 0.929 . S
C1448 C1447 1.399 . S
C1448 C1449 1.385 . S
C1449 H1435 0.931 . S
C1449 C1448 1.385 . S
C1449 C1450 1.389 . S
C1450 C1449 1.389 . S
C1450 C1451 1.387 . S
C1451 H1436 0.930 . S
C1451 C1446 1.390 . S
C1451 C1450 1.387 . S
C493 C9 1.059 . S
C505 C329 1.118 . S
C520 C49 1.046 . S
C532 C369 1.079 . S
C547 C89 1.105 . S
C559 C409 1.132 . S
C574 C449 1.122 . S
C586 C129 1.064 . S
C601 C169 1.133 . S
C613 C249 1.104 . S
C628 C289 1.086 . S
C640 C209 1.132 . S
C655 C415 1.511 . S
C667 C15 1.553 . S
C682 C455 1.585 . S
C694 C55 1.538 . S
C709 C95 1.539 . S
C721 C255 1.583 . S
C736 C295 1.512 . S
C748 C135 1.547 . S
C763 C335 1.531 . S
C775 C175 1.520 . S
C790 C215 1.511 . S
C802 C375 1.550 . S
C817 C299 4.253 . S
C829 C19 4.237 . S
C844 C339 4.227 . S
C856 C59 4.241 . S
C871 C379 4.248 . S
C883 C99 4.229 . S
C898 C139 4.253 . S
C910 C419 4.236 . S
C925 C179 4.235 . S
C937 C459 4.253 . S
C952 C219 4.239 . S
C964 C259 4.254 . S
C979 C18 0.560 . S
C991 C138 0.430 . S
C1006 C58 0.548 . S
C1018 C178 0.440 . S
C1033 C98 0.513 . S
C1045 C218 0.645 . S
C1060 C378 0.541 . S
C1072 C258 0.630 . S
C1087 C298 0.604 . S
C1099 C418 0.400 . S
C1114 C458 0.510 . S
C1126 C338 0.646 . S
C1141 C286 0.743 . S
C1153 C6 0.628 . S
C1168 C326 0.784 . S
C1180 C46 0.630 . S
C1195 C86 0.636 . S
C1207 C366 0.795 . S
C1222 C406 0.671 . S
C1234 C126 0.819 . S
C1249 C446 0.627 . S
C1261 C166 0.775 . S
C1276 C206 0.694 . S
C1288 C246 0.652 . S
C1303 C10 4.744 . S
C1315 C410 4.747 . S
C1330 C50 4.742 . S
C1342 C450 4.742 1_556 S
C1357 C90 4.745 1_554 S
C1369 C250 4.747 . S
C1384 C130 4.744 . S
C1396 C290 4.747 . S
C1411 C170 4.745 . S
C1423 C330 4.742 1_556 S
C1438 C370 4.746 . S
C1450 C210 4.742 1_554 S
