# Generated by pormake.
# Topology wga, (5)-cn, num edge types: 1
# Building blocks:
#     Node 0, Type 0, BuildingBlock: BEQFEK_clean_sbu_0, # of connection points: 5
#     Node 1, Type 0, BuildingBlock: BEQFEK_clean_sbu_0, # of connection points: 5
#     Node 2, Type 0, BuildingBlock: BEQFEK_clean_sbu_0, # of connection points: 5
#     Node 3, Type 0, BuildingBlock: BEQFEK_clean_sbu_0, # of connection points: 5
#     Node 4, Type 0, BuildingBlock: BEQFEK_clean_sbu_0, # of connection points: 5
#     Node 5, Type 0, BuildingBlock: BEQFEK_clean_sbu_0, # of connection points: 5
#     Node 6, Type 0, BuildingBlock: BEQFEK_clean_sbu_0, # of connection points: 5
#     Node 7, Type 0, BuildingBlock: BEQFEK_clean_sbu_0, # of connection points: 5
#     Node 8, Type 0, BuildingBlock: BEQFEK_clean_sbu_0, # of connection points: 5
#     Node 9, Type 0, BuildingBlock: BEQFEK_clean_sbu_0, # of connection points: 5
#     Node 10, Type 0, BuildingBlock: BEQFEK_clean_sbu_0, # of connection points: 5
#     Node 11, Type 0, BuildingBlock: BEQFEK_clean_sbu_0, # of connection points: 5
#     Node 12, Type 0, BuildingBlock: BEQFEK_clean_sbu_0, # of connection points: 5
#     Node 13, Type 0, BuildingBlock: BEQFEK_clean_sbu_0, # of connection points: 5
#     Node 14, Type 0, BuildingBlock: BEQFEK_clean_sbu_0, # of connection points: 5
#     Node 15, Type 0, BuildingBlock: BEQFEK_clean_sbu_0, # of connection points: 5
#     Node 16, Type 0, BuildingBlock: BEQFEK_clean_sbu_0, # of connection points: 5
#     Node 17, Type 0, BuildingBlock: BEQFEK_clean_sbu_0, # of connection points: 5
#     Node 18, Type 0, BuildingBlock: BEQFEK_clean_sbu_0, # of connection points: 5
#     Node 19, Type 0, BuildingBlock: BEQFEK_clean_sbu_0, # of connection points: 5
#     Node 20, Type 0, BuildingBlock: BEQFEK_clean_sbu_0, # of connection points: 5
#     Node 21, Type 0, BuildingBlock: BEQFEK_clean_sbu_0, # of connection points: 5
#     Node 22, Type 0, BuildingBlock: BEQFEK_clean_sbu_0, # of connection points: 5
#     Node 23, Type 0, BuildingBlock: BEQFEK_clean_sbu_0, # of connection points: 5
#     Node 24, Type 0, BuildingBlock: BEQFEK_clean_sbu_0, # of connection points: 5
#     Node 25, Type 0, BuildingBlock: BEQFEK_clean_sbu_0, # of connection points: 5
#     Node 26, Type 0, BuildingBlock: BEQFEK_clean_sbu_0, # of connection points: 5
#     Node 27, Type 0, BuildingBlock: BEQFEK_clean_sbu_0, # of connection points: 5
#     Node 28, Type 0, BuildingBlock: BEQFEK_clean_sbu_0, # of connection points: 5
#     Node 29, Type 0, BuildingBlock: BEQFEK_clean_sbu_0, # of connection points: 5
#     Node 30, Type 0, BuildingBlock: BEQFEK_clean_sbu_0, # of connection points: 5
#     Node 31, Type 0, BuildingBlock: BEQFEK_clean_sbu_0, # of connection points: 5
#     Edge 32, Type (0, 0), BuildingBlock: CIFDUS_clean_linker_0, # of connection points: 2
#     Edge 33, Type (0, 0), BuildingBlock: CIFDUS_clean_linker_0, # of connection points: 2
#     Edge 34, Type (0, 0), BuildingBlock: CIFDUS_clean_linker_0, # of connection points: 2
#     Edge 35, Type (0, 0), BuildingBlock: CIFDUS_clean_linker_0, # of connection points: 2
#     Edge 36, Type (0, 0), BuildingBlock: CIFDUS_clean_linker_0, # of connection points: 2
#     Edge 37, Type (0, 0), BuildingBlock: CIFDUS_clean_linker_0, # of connection points: 2
#     Edge 38, Type (0, 0), BuildingBlock: CIFDUS_clean_linker_0, # of connection points: 2
#     Edge 39, Type (0, 0), BuildingBlock: CIFDUS_clean_linker_0, # of connection points: 2
#     Edge 40, Type (0, 0), BuildingBlock: CIFDUS_clean_linker_0, # of connection points: 2
#     Edge 41, Type (0, 0), BuildingBlock: CIFDUS_clean_linker_0, # of connection points: 2
#     Edge 42, Type (0, 0), BuildingBlock: CIFDUS_clean_linker_0, # of connection points: 2
#     Edge 43, Type (0, 0), BuildingBlock: CIFDUS_clean_linker_0, # of connection points: 2
#     Edge 44, Type (0, 0), BuildingBlock: CIFDUS_clean_linker_0, # of connection points: 2
#     Edge 45, Type (0, 0), BuildingBlock: CIFDUS_clean_linker_0, # of connection points: 2
#     Edge 46, Type (0, 0), BuildingBlock: CIFDUS_clean_linker_0, # of connection points: 2
#     Edge 47, Type (0, 0), BuildingBlock: CIFDUS_clean_linker_0, # of connection points: 2
#     Edge 48, Type (0, 0), BuildingBlock: CIFDUS_clean_linker_0, # of connection points: 2
#     Edge 49, Type (0, 0), BuildingBlock: CIFDUS_clean_linker_0, # of connection points: 2
#     Edge 50, Type (0, 0), BuildingBlock: CIFDUS_clean_linker_0, # of connection points: 2
#     Edge 51, Type (0, 0), BuildingBlock: CIFDUS_clean_linker_0, # of connection points: 2
#     Edge 52, Type (0, 0), BuildingBlock: CIFDUS_clean_linker_0, # of connection points: 2
#     Edge 53, Type (0, 0), BuildingBlock: CIFDUS_clean_linker_0, # of connection points: 2
#     Edge 54, Type (0, 0), BuildingBlock: CIFDUS_clean_linker_0, # of connection points: 2
#     Edge 55, Type (0, 0), BuildingBlock: CIFDUS_clean_linker_0, # of connection points: 2
#     Edge 56, Type (0, 0), BuildingBlock: CIFDUS_clean_linker_0, # of connection points: 2
#     Edge 57, Type (0, 0), BuildingBlock: CIFDUS_clean_linker_0, # of connection points: 2
#     Edge 58, Type (0, 0), BuildingBlock: CIFDUS_clean_linker_0, # of connection points: 2
#     Edge 59, Type (0, 0), BuildingBlock: CIFDUS_clean_linker_0, # of connection points: 2
#     Edge 60, Type (0, 0), BuildingBlock: CIFDUS_clean_linker_0, # of connection points: 2
#     Edge 61, Type (0, 0), BuildingBlock: CIFDUS_clean_linker_0, # of connection points: 2
#     Edge 62, Type (0, 0), BuildingBlock: CIFDUS_clean_linker_0, # of connection points: 2
#     Edge 63, Type (0, 0), BuildingBlock: CIFDUS_clean_linker_0, # of connection points: 2
#     Edge 64, Type (0, 0), BuildingBlock: CIFDUS_clean_linker_0, # of connection points: 2
#     Edge 65, Type (0, 0), BuildingBlock: CIFDUS_clean_linker_0, # of connection points: 2
#     Edge 66, Type (0, 0), BuildingBlock: CIFDUS_clean_linker_0, # of connection points: 2
#     Edge 67, Type (0, 0), BuildingBlock: CIFDUS_clean_linker_0, # of connection points: 2
#     Edge 68, Type (0, 0), BuildingBlock: CIFDUS_clean_linker_0, # of connection points: 2
#     Edge 69, Type (0, 0), BuildingBlock: CIFDUS_clean_linker_0, # of connection points: 2
#     Edge 70, Type (0, 0), BuildingBlock: CIFDUS_clean_linker_0, # of connection points: 2
#     Edge 71, Type (0, 0), BuildingBlock: CIFDUS_clean_linker_0, # of connection points: 2
#     Edge 72, Type (0, 0), BuildingBlock: CIFDUS_clean_linker_0, # of connection points: 2
#     Edge 73, Type (0, 0), BuildingBlock: CIFDUS_clean_linker_0, # of connection points: 2
#     Edge 74, Type (0, 0), BuildingBlock: CIFDUS_clean_linker_0, # of connection points: 2
#     Edge 75, Type (0, 0), BuildingBlock: CIFDUS_clean_linker_0, # of connection points: 2
#     Edge 76, Type (0, 0), BuildingBlock: CIFDUS_clean_linker_0, # of connection points: 2
#     Edge 77, Type (0, 0), BuildingBlock: CIFDUS_clean_linker_0, # of connection points: 2
#     Edge 78, Type (0, 0), BuildingBlock: CIFDUS_clean_linker_0, # of connection points: 2
#     Edge 79, Type (0, 0), BuildingBlock: CIFDUS_clean_linker_0, # of connection points: 2
#     Edge 80, Type (0, 0), BuildingBlock: CIFDUS_clean_linker_0, # of connection points: 2
#     Edge 81, Type (0, 0), BuildingBlock: CIFDUS_clean_linker_0, # of connection points: 2
#     Edge 82, Type (0, 0), BuildingBlock: CIFDUS_clean_linker_0, # of connection points: 2
#     Edge 83, Type (0, 0), BuildingBlock: CIFDUS_clean_linker_0, # of connection points: 2
#     Edge 84, Type (0, 0), BuildingBlock: CIFDUS_clean_linker_0, # of connection points: 2
#     Edge 85, Type (0, 0), BuildingBlock: CIFDUS_clean_linker_0, # of connection points: 2
#     Edge 86, Type (0, 0), BuildingBlock: CIFDUS_clean_linker_0, # of connection points: 2
#     Edge 87, Type (0, 0), BuildingBlock: CIFDUS_clean_linker_0, # of connection points: 2
#     Edge 88, Type (0, 0), BuildingBlock: CIFDUS_clean_linker_0, # of connection points: 2
#     Edge 89, Type (0, 0), BuildingBlock: CIFDUS_clean_linker_0, # of connection points: 2
#     Edge 90, Type (0, 0), BuildingBlock: CIFDUS_clean_linker_0, # of connection points: 2
#     Edge 91, Type (0, 0), BuildingBlock: CIFDUS_clean_linker_0, # of connection points: 2
#     Edge 92, Type (0, 0), BuildingBlock: CIFDUS_clean_linker_0, # of connection points: 2
#     Edge 93, Type (0, 0), BuildingBlock: CIFDUS_clean_linker_0, # of connection points: 2
#     Edge 94, Type (0, 0), BuildingBlock: CIFDUS_clean_linker_0, # of connection points: 2
#     Edge 95, Type (0, 0), BuildingBlock: CIFDUS_clean_linker_0, # of connection points: 2
#     Edge 96, Type (0, 0), BuildingBlock: CIFDUS_clean_linker_0, # of connection points: 2
#     Edge 97, Type (0, 0), BuildingBlock: CIFDUS_clean_linker_0, # of connection points: 2
#     Edge 98, Type (0, 0), BuildingBlock: CIFDUS_clean_linker_0, # of connection points: 2
#     Edge 99, Type (0, 0), BuildingBlock: CIFDUS_clean_linker_0, # of connection points: 2
#     Edge 100, Type (0, 0), BuildingBlock: CIFDUS_clean_linker_0, # of connection points: 2
#     Edge 101, Type (0, 0), BuildingBlock: CIFDUS_clean_linker_0, # of connection points: 2
#     Edge 102, Type (0, 0), BuildingBlock: CIFDUS_clean_linker_0, # of connection points: 2
#     Edge 103, Type (0, 0), BuildingBlock: CIFDUS_clean_linker_0, # of connection points: 2
#     Edge 104, Type (0, 0), BuildingBlock: CIFDUS_clean_linker_0, # of connection points: 2
#     Edge 105, Type (0, 0), BuildingBlock: CIFDUS_clean_linker_0, # of connection points: 2
#     Edge 106, Type (0, 0), BuildingBlock: CIFDUS_clean_linker_0, # of connection points: 2
#     Edge 107, Type (0, 0), BuildingBlock: CIFDUS_clean_linker_0, # of connection points: 2
#     Edge 108, Type (0, 0), BuildingBlock: CIFDUS_clean_linker_0, # of connection points: 2
#     Edge 109, Type (0, 0), BuildingBlock: CIFDUS_clean_linker_0, # of connection points: 2
#     Edge 110, Type (0, 0), BuildingBlock: CIFDUS_clean_linker_0, # of connection points: 2
#     Edge 111, Type (0, 0), BuildingBlock: CIFDUS_clean_linker_0, # of connection points: 2
# Relax obj value: 0.052
# Max RMSD: 0.133
# Mean RMSD: 0.133
data_MOF--net-wga--node1-BEQFEK_clean_sbu_0--edge1-CIFDUS_clean_linker_0
_symmetry_space_group_name_H-M    P1
_symmetry_Int_Tables_number       1
_symmetry_cell_setting            triclinic
loop_
_symmetry_equiv_pos_as_xyz
'x, y, z'
_cell_length_a     94.64544
_cell_length_b     94.641722
_cell_length_c     17.66369
_cell_angle_alpha  89.988891
_cell_angle_beta   89.973506
_cell_angle_gamma 89.992714
loop_
_atom_site_label
_atom_site_type_symbol
_atom_site_fract_x
_atom_site_fract_y
_atom_site_fract_z
_atom_type_partial_charge
Co0 Co 0.06855 0.56918 0.01956 0.0
Co1 Co 0.0706 0.56211 0.19153 0.0
C2 C 0.04319 0.57109 0.11844 0.0
O3 O 0.04887 0.57285 0.05363 0.0
O4 O 0.05042 0.56689 0.17495 0.0
C5 C 0.06162 0.57315 0.86294 0.0
O6 O 0.04889 0.56915 0.88346 0.0
C7 C 0.06675 0.56684 0.35329 0.0
C8 C 0.08253 0.5524 0.40347 0.0
C9 C 0.07215 0.56215 0.4216 0.0
N10 N 0.07357 0.56012 0.29717 0.0
N11 N 0.08298 0.55148 0.32743 0.0
C12 C 0.05599 0.57819 0.34111 0.0
H13 H 0.05813 0.58384 0.28726 0.0
H14 H 0.05602 0.58582 0.38884 0.0
H15 H 0.04537 0.5733 0.33755 0.0
C16 C 0.09141 0.58901 0.06113 0.0
N17 N 0.08177 0.57911 0.07925 0.0
N18 N 0.08262 0.57634 0.15204 0.0
C19 C 0.0928 0.5845 0.18283 0.0
C20 C 0.09872 0.59275 0.12611 0.0
C21 C 0.09338 0.59486 0.98313 0.0
H22 H 0.09766 0.58646 0.94576 0.0
H23 H 0.083 0.59817 0.96001 0.0
H24 H 0.10069 0.60403 0.98286 0.0
O25 O 0.07229 0.5486 0.02209 0.0
O26 O 0.0745 0.54353 0.14396 0.0
H27 H 0.10038 0.57281 0.278 0.0
H28 H 0.10632 0.59093 0.2758 0.0
C29 C 0.09728 0.5838 0.26395 0.0
H30 H 0.08826 0.58676 0.30071 0.0
H31 H 0.08972 0.545 0.29618 0.0
O32 O 0.07116 0.57446 0.91286 0.0
C33 C 0.07455 0.53973 0.07481 0.0
Co34 Co 0.68005 0.81964 0.2003 0.0
Co35 Co 0.68623 0.81956 0.37191 0.0
C36 C 0.67672 0.79333 0.2875 0.0
O37 O 0.67536 0.79989 0.22499 0.0
O38 O 0.68097 0.79968 0.34693 0.0
C39 C 0.67036 0.8161 0.04516 0.0
O40 O 0.6621 0.80576 0.06757 0.0
C41 C 0.67894 0.81685 0.53306 0.0
C42 C 0.69605 0.82951 0.58447 0.0
C43 C 0.684 0.82182 0.60203 0.0
N44 N 0.68756 0.82158 0.47802 0.0
N45 N 0.69777 0.82907 0.50916 0.0
C46 C 0.6664 0.80759 0.51903 0.0
H47 H 0.66691 0.80267 0.46238 0.0
H48 H 0.65663 0.81405 0.52139 0.0
H49 H 0.66573 0.79919 0.56279 0.0
C50 C 0.66025 0.8424 0.24502 0.0
N51 N 0.67002 0.83252 0.26115 0.0
N52 N 0.6728 0.83278 0.33402 0.0
C53 C 0.66497 0.84303 0.36668 0.0
C54 C 0.6567 0.8494 0.31144 0.0
C55 C 0.65418 0.84468 0.1678 0.0
H56 H 0.65209 0.83432 0.1406 0.0
H57 H 0.64423 0.85087 0.17016 0.0
H58 H 0.662 0.85041 0.13248 0.0
O59 O 0.70065 0.82236 0.2091 0.0
O60 O 0.70541 0.82324 0.33135 0.0
H61 H 0.66137 0.85791 0.45792 0.0
H62 H 0.66063 0.8395 0.48387 0.0
C63 C 0.66614 0.84737 0.44793 0.0
H64 H 0.67739 0.84775 0.46486 0.0
H65 H 0.70583 0.83405 0.47882 0.0
O66 O 0.67723 0.82328 0.09314 0.0
C67 C 0.70945 0.82375 0.26278 0.0
Co68 Co 0.42948 0.43175 0.47817 0.0
Co69 Co 0.43174 0.43614 0.6503 0.0
C70 C 0.45676 0.42706 0.55721 0.0
O71 O 0.44943 0.42681 0.49683 0.0
O72 O 0.45125 0.43053 0.62043 0.0
C73 C 0.43229 0.42194 0.3247 0.0
O74 O 0.4424 0.41351 0.3482 0.0
C75 C 0.43537 0.42949 0.81232 0.0
C76 C 0.42139 0.44583 0.86126 0.0
C77 C 0.42988 0.43444 0.88042 0.0
N78 N 0.43009 0.43751 0.7562 0.0
N79 N 0.42188 0.44731 0.78594 0.0
C80 C 0.44558 0.41763 0.8001 0.0
H81 H 0.45093 0.41864 0.74472 0.0
H82 H 0.43979 0.40745 0.80062 0.0
H83 H 0.45365 0.41748 0.8457 0.0
C84 C 0.40697 0.41176 0.52499 0.0
N85 N 0.41713 0.4213 0.54025 0.0
N86 N 0.41792 0.42321 0.61379 0.0
C87 C 0.40813 0.41502 0.64792 0.0
C88 C 0.40092 0.40744 0.59281 0.0
C89 C 0.40365 0.40653 0.44708 0.0
H90 H 0.41361 0.40399 0.41696 0.0
H91 H 0.39684 0.39699 0.44848 0.0
H92 H 0.39822 0.41503 0.41501 0.0
O93 O 0.4269 0.45237 0.49031 0.0
O94 O 0.42822 0.45555 0.61379 0.0
H95 H 0.39519 0.40945 0.74494 0.0
H96 H 0.41399 0.41007 0.76169 0.0
C97 C 0.40511 0.41513 0.73112 0.0
H98 H 0.40409 0.42617 0.75105 0.0
H99 H 0.41634 0.45483 0.75453 0.0
O100 O 0.42522 0.42911 0.37193 0.0
C101 C 0.42663 0.46048 0.54752 0.0
Co102 Co 0.82249 0.18305 0.68328 0.0
Co103 Co 0.81672 0.18232 0.86082 0.0
C104 C 0.82656 0.20868 0.78373 0.0
O105 O 0.82689 0.20235 0.72001 0.0
O106 O 0.82286 0.20227 0.84423 0.0
C107 C 0.82772 0.19238 0.53055 0.0
O108 O 0.82641 0.20487 0.56212 0.0
C109 C 0.82111 0.18276 0.02892 0.0
C110 C 0.80481 0.1674 0.06411 0.0
C111 C 0.81552 0.17589 0.0921 0.0
N112 N 0.81406 0.17837 0.96688 0.0
N113 N 0.80425 0.16931 0.98876 0.0
C114 C 0.83355 0.19248 0.02635 0.0
H115 H 0.83845 0.19232 0.96923 0.0
H116 H 0.84147 0.18944 0.06976 0.0
H117 H 0.82995 0.20341 0.03834 0.0
C118 C 0.84175 0.15962 0.72557 0.0
N119 N 0.83218 0.1696 0.74351 0.0
N120 N 0.82994 0.16939 0.8172 0.0
C121 C 0.83806 0.15923 0.84831 0.0
C122 C 0.84584 0.15275 0.79145 0.0
C123 C 0.8472 0.15719 0.64714 0.0
H124 H 0.85044 0.16742 0.62189 0.0
H125 H 0.8563 0.14979 0.64673 0.0
H126 H 0.83857 0.15282 0.61168 0.0
O127 O 0.80188 0.18005 0.69036 0.0
O128 O 0.79778 0.17979 0.81394 0.0
H129 H 0.84418 0.14568 0.94206 0.0
H130 H 0.8421 0.16418 0.96432 0.0
C131 C 0.83785 0.1553 0.93041 0.0
H132 H 0.82683 0.15329 0.94843 0.0
H133 H 0.79735 0.16417 0.95187 0.0
O134 O 0.82708 0.18141 0.57233 0.0
C135 C 0.79338 0.17906 0.74594 0.0
Co136 Co 0.06725 0.43276 0.97688 0.0
Co137 Co 0.07053 0.43734 0.80391 0.0
C138 C 0.04262 0.42927 0.87494 0.0
O139 O 0.04799 0.42849 0.94094 0.0
O140 O 0.05011 0.4327 0.81782 0.0
C141 C 0.06318 0.42239 0.13496 0.0
O142 O 0.0562 0.41115 0.11265 0.0
C143 C 0.06905 0.42943 0.64429 0.0
C144 C 0.08432 0.44432 0.59306 0.0
C145 C 0.07509 0.43341 0.57596 0.0
N146 N 0.0746 0.43755 0.69907 0.0
N147 N 0.08374 0.44639 0.66824 0.0
C148 C 0.05731 0.41913 0.6578 0.0
H149 H 0.05981 0.41254 0.70802 0.0
H150 H 0.05523 0.41231 0.60823 0.0
H151 H 0.04752 0.4251 0.67058 0.0
C152 C 0.09036 0.41216 0.94956 0.0
N153 N 0.08097 0.4219 0.92602 0.0
N154 N 0.0824 0.42381 0.85266 0.0
C155 C 0.09276 0.41527 0.82701 0.0
C156 C 0.09812 0.40759 0.88749 0.0
C157 C 0.09145 0.40707 0.02953 0.0
H158 H 0.09411 0.4161 0.06698 0.0
H159 H 0.08106 0.40288 0.04771 0.0
H160 H 0.09951 0.39865 0.03596 0.0
O161 O 0.07109 0.45303 0.96408 0.0
O162 O 0.07408 0.45684 0.84174 0.0
H163 H 0.10033 0.426 0.72847 0.0
H164 H 0.10768 0.40861 0.7407 0.0
C165 C 0.09797 0.41507 0.747 0.0
H166 H 0.08962 0.41071 0.70974 0.0
H167 H 0.08949 0.4539 0.69851 0.0
O168 O 0.06828 0.43095 0.08695 0.0
C169 C 0.07371 0.46135 0.90953 0.0
Co170 Co 0.82284 0.81688 0.28762 0.0
Co171 Co 0.81623 0.81763 0.11086 0.0
C172 C 0.82563 0.79101 0.18989 0.0
O173 O 0.82666 0.79725 0.25376 0.0
O174 O 0.82173 0.79761 0.13038 0.0
C175 C 0.83546 0.81294 0.44162 0.0
O176 O 0.84493 0.80444 0.41197 0.0
C177 C 0.81956 0.81621 0.94054 0.0
C178 C 0.80324 0.83173 0.90815 0.0
C179 C 0.81332 0.82274 0.87775 0.0
N180 N 0.81344 0.82129 0.00417 0.0
N181 N 0.8037 0.83053 0.98383 0.0
C182 C 0.8307 0.805 0.94046 0.0
H183 H 0.83091 0.79933 0.99526 0.0
H184 H 0.84118 0.81 0.93174 0.0
H185 H 0.82881 0.79738 0.89381 0.0
C186 C 0.84257 0.83977 0.24135 0.0
N187 N 0.83268 0.82997 0.22545 0.0
N188 N 0.83 0.8302 0.15219 0.0
C189 C 0.83815 0.84014 0.11929 0.0
C190 C 0.84642 0.84649 0.17452 0.0
C191 C 0.84848 0.84219 0.31878 0.0
H192 H 0.83999 0.84623 0.35633 0.0
H193 H 0.85217 0.83198 0.34252 0.0
H194 H 0.8574 0.84979 0.31794 0.0
O195 O 0.80236 0.8203 0.28123 0.0
O196 O 0.79745 0.82097 0.15876 0.0
H197 H 0.82638 0.84654 0.02194 0.0
H198 H 0.84412 0.85328 0.0235 0.0
C199 C 0.83744 0.844 0.03718 0.0
H200 H 0.84091 0.83486 0.0026 0.0
H201 H 0.79735 0.83607 0.02188 0.0
O202 O 0.82658 0.8191 0.39872 0.0
C203 C 0.79353 0.82171 0.2276 0.0
Co204 Co 0.43449 0.56956 0.48977 0.0
Co205 Co 0.4325 0.56563 0.31191 0.0
C206 C 0.45981 0.57331 0.38863 0.0
O207 O 0.45399 0.57344 0.45383 0.0
O208 O 0.45275 0.57051 0.32887 0.0
C209 C 0.43961 0.58146 0.64264 0.0
O210 O 0.44812 0.59074 0.61126 0.0
C211 C 0.43352 0.56896 0.14169 0.0
C212 C 0.41531 0.55544 0.11224 0.0
C213 C 0.4258 0.56373 0.08034 0.0
N214 N 0.42771 0.56397 0.20627 0.0
N215 N 0.41685 0.55592 0.18772 0.0
C216 C 0.44657 0.57784 0.139 0.0
H217 H 0.45267 0.57684 0.19207 0.0
H218 H 0.44351 0.58908 0.13203 0.0
H219 H 0.45332 0.57473 0.09036 0.0
C220 C 0.4115 0.58999 0.45726 0.0
N221 N 0.42119 0.58046 0.4347 0.0
N222 N 0.42049 0.57903 0.3606 0.0
C223 C 0.41041 0.58776 0.33362 0.0
C224 C 0.40435 0.59495 0.39399 0.0
C225 C 0.40951 0.59448 0.53778 0.0
H226 H 0.40658 0.58516 0.57251 0.0
H227 H 0.41965 0.59864 0.55989 0.0
H228 H 0.4013 0.60277 0.54349 0.0
O229 O 0.43053 0.54922 0.47752 0.0
O230 O 0.42919 0.54639 0.35335 0.0
H231 H 0.40156 0.57822 0.23502 0.0
H232 H 0.39817 0.59685 0.2416 0.0
C233 C 0.40614 0.58851 0.25213 0.0
H234 H 0.41559 0.59052 0.2166 0.0
H235 H 0.41051 0.55063 0.22691 0.0
O236 O 0.43307 0.57263 0.60115 0.0
C237 C 0.4287 0.54135 0.42008 0.0
Co238 Co 0.67959 0.18113 0.79325 0.0
Co239 Co 0.68595 0.18335 0.61989 0.0
C240 C 0.67568 0.20832 0.70935 0.0
O241 O 0.67501 0.20111 0.77014 0.0
O242 O 0.67967 0.20274 0.64721 0.0
C243 C 0.67108 0.18606 0.94776 0.0
O244 O 0.66907 0.19913 0.92518 0.0
C245 C 0.68003 0.18748 0.45842 0.0
C246 C 0.69704 0.17481 0.40595 0.0
C247 C 0.68527 0.18294 0.3892 0.0
N248 N 0.68827 0.18216 0.51337 0.0
N249 N 0.69851 0.17474 0.48165 0.0
C250 C 0.66679 0.19568 0.47307 0.0
H251 H 0.66259 0.19319 0.5302 0.0
H252 H 0.6587 0.19332 0.42944 0.0
H253 H 0.66925 0.20714 0.47094 0.0
C254 C 0.66052 0.15844 0.73862 0.0
N255 N 0.67006 0.16874 0.72637 0.0
N256 N 0.67282 0.1695 0.65346 0.0
C257 C 0.6652 0.15957 0.61698 0.0
C258 C 0.6571 0.15228 0.66964 0.0
C259 C 0.6545 0.15499 0.81475 0.0
H260 H 0.66265 0.1495 0.84897 0.0
H261 H 0.65166 0.16491 0.8446 0.0
H262 H 0.645 0.14818 0.81019 0.0
O263 O 0.70037 0.17851 0.78692 0.0
O264 O 0.70483 0.17997 0.66409 0.0
H265 H 0.67764 0.15612 0.51736 0.0
H266 H 0.66146 0.14616 0.51943 0.0
C267 C 0.66637 0.15644 0.53412 0.0
H268 H 0.66104 0.16492 0.5016 0.0
H269 H 0.70628 0.16932 0.51181 0.0
O270 O 0.67485 0.17677 0.89986 0.0
C271 C 0.70905 0.17833 0.73187 0.0
Co272 Co 0.93295 0.43257 0.01147 0.0
Co273 Co 0.93241 0.43517 0.83312 0.0
C274 C 0.95889 0.42754 0.91374 0.0
O275 O 0.95245 0.42825 0.97716 0.0
O276 O 0.95252 0.42989 0.85123 0.0
C277 C 0.93847 0.42094 0.16311 0.0
O278 O 0.94712 0.41199 0.13016 0.0
C279 C 0.93395 0.43323 0.66273 0.0
C280 C 0.91288 0.44196 0.63586 0.0
C281 C 0.92501 0.43663 0.60264 0.0
N282 N 0.92725 0.43633 0.72812 0.0
N283 N 0.91469 0.44154 0.71119 0.0
C284 C 0.94885 0.42802 0.65834 0.0
H285 H 0.95506 0.43209 0.70678 0.0
H286 H 0.94883 0.41631 0.66112 0.0
H287 H 0.95393 0.43137 0.60462 0.0
C288 C 0.9106 0.41146 0.97873 0.0
N289 N 0.91992 0.4214 0.95684 0.0
N290 N 0.92023 0.42197 0.8824 0.0
C291 C 0.9114 0.41209 0.85451 0.0
C292 C 0.90486 0.40518 0.91451 0.0
C293 C 0.90719 0.40826 0.05965 0.0
H294 H 0.90712 0.41816 0.09319 0.0
H295 H 0.91547 0.40121 0.08316 0.0
H296 H 0.89676 0.40299 0.065 0.0
O297 O 0.92925 0.45282 0.99617 0.0
O298 O 0.92941 0.45478 0.87134 0.0
H299 H 0.90282 0.41531 0.74395 0.0
H300 H 0.90695 0.39715 0.76489 0.0
C301 C 0.91049 0.40823 0.77241 0.0
H302 H 0.92096 0.40949 0.74507 0.0
H303 H 0.90735 0.4449 0.75144 0.0
O304 O 0.93155 0.42968 0.12285 0.0
C305 C 0.92831 0.46032 0.93672 0.0
Co306 Co 0.31926 0.18184 0.70011 0.0
Co307 Co 0.3134 0.1827 0.52713 0.0
C308 C 0.32227 0.20867 0.61062 0.0
O309 O 0.32312 0.20181 0.6725 0.0
O310 O 0.31863 0.2026 0.5493 0.0
C311 C 0.32306 0.18871 0.8544 0.0
O312 O 0.31871 0.20118 0.8315 0.0
C313 C 0.31682 0.18755 0.36433 0.0
C314 C 0.30418 0.17 0.31703 0.0
C315 C 0.3126 0.18136 0.29704 0.0
N316 N 0.31114 0.18016 0.42163 0.0
N317 N 0.30352 0.16975 0.39305 0.0
C318 C 0.32706 0.19945 0.37451 0.0
H319 H 0.33336 0.19783 0.42672 0.0
H320 H 0.33426 0.20033 0.32512 0.0
H321 H 0.32108 0.20947 0.38028 0.0
C322 C 0.33892 0.15914 0.65246 0.0
N323 N 0.32931 0.16924 0.63721 0.0
N324 N 0.32725 0.16987 0.56372 0.0
C325 C 0.33571 0.16034 0.52949 0.0
C326 C 0.34334 0.15315 0.58459 0.0
C327 C 0.34305 0.15483 0.73095 0.0
H328 H 0.33347 0.154 0.76688 0.0
H329 H 0.34998 0.16307 0.75567 0.0
H330 H 0.34865 0.14453 0.73151 0.0
O331 O 0.29871 0.17829 0.69519 0.0
O332 O 0.29457 0.17876 0.57188 0.0
H333 H 0.32758 0.15326 0.42324 0.0
H334 H 0.34662 0.15266 0.42966 0.0
C335 C 0.33706 0.15875 0.44548 0.0
H336 H 0.33771 0.16932 0.41876 0.0
H337 H 0.29806 0.16234 0.42558 0.0
O338 O 0.32458 0.17887 0.80627 0.0
C339 C 0.29022 0.17737 0.63963 0.0
Co340 Co 0.57036 0.57116 0.5266 0.0
Co341 Co 0.56906 0.56378 0.35525 0.0
C342 C 0.54342 0.57413 0.43964 0.0
O343 O 0.55039 0.57544 0.50103 0.0
O344 O 0.54932 0.56971 0.37914 0.0
C345 C 0.56554 0.57884 0.68265 0.0
O346 O 0.55259 0.58215 0.66269 0.0
C347 C 0.56363 0.56539 0.19113 0.0
C348 C 0.58409 0.55772 0.14705 0.0
C349 C 0.57138 0.56371 0.12477 0.0
N350 N 0.5717 0.56118 0.24957 0.0
N351 N 0.58375 0.55626 0.22263 0.0
C352 C 0.54858 0.56991 0.19955 0.0
H353 H 0.54345 0.56345 0.24401 0.0
H354 H 0.54819 0.58117 0.217 0.0
H355 H 0.54258 0.56842 0.14624 0.0
C356 C 0.59311 0.59022 0.47416 0.0
N357 N 0.583 0.58049 0.46147 0.0
N358 N 0.58213 0.57794 0.38848 0.0
C359 C 0.59139 0.5864 0.35197 0.0
C360 C 0.5988 0.59429 0.40501 0.0
C361 C 0.59756 0.59494 0.55144 0.0
H362 H 0.5986 0.58562 0.58911 0.0
H363 H 0.58927 0.60192 0.57545 0.0
H364 H 0.60777 0.60067 0.55012 0.0
O365 O 0.57329 0.55071 0.52355 0.0
O366 O 0.57289 0.54495 0.40241 0.0
H367 H 0.59924 0.57969 0.24436 0.0
H368 H 0.59671 0.59846 0.25197 0.0
C369 C 0.59226 0.58802 0.26779 0.0
H370 H 0.58161 0.58707 0.24239 0.0
H371 H 0.59201 0.55254 0.2563 0.0
O372 O 0.57449 0.57541 0.6325 0.0
C373 C 0.57417 0.54149 0.47171 0.0
Co374 Co 0.18113 0.82033 0.2396 0.0
Co375 Co 0.18488 0.8167 0.06769 0.0
C376 C 0.17732 0.79212 0.16553 0.0
O377 O 0.17726 0.80002 0.2239 0.0
O378 O 0.18005 0.79712 0.10005 0.0
C379 C 0.17127 0.81779 0.39272 0.0
O380 O 0.16372 0.80694 0.37001 0.0
C381 C 0.17965 0.8121 0.90417 0.0
C382 C 0.19282 0.82948 0.85926 0.0
C383 C 0.18342 0.81901 0.83753 0.0
N384 N 0.18628 0.81855 0.96193 0.0
N385 N 0.19428 0.82876 0.93449 0.0
C386 C 0.17024 0.79952 0.91358 0.0
H387 H 0.17265 0.79389 0.96689 0.0
H388 H 0.15907 0.80304 0.91576 0.0
H389 H 0.1716 0.79208 0.86554 0.0
C390 C 0.15976 0.84124 0.19064 0.0
N391 N 0.16993 0.83166 0.17633 0.0
N392 N 0.17123 0.83 0.10284 0.0
C393 C 0.16177 0.83843 0.06774 0.0
C394 C 0.15422 0.84583 0.12222 0.0
C395 C 0.15492 0.84515 0.26852 0.0
H396 H 0.15169 0.83545 0.29924 0.0
H397 H 0.14592 0.85265 0.26724 0.0
H398 H 0.16386 0.84993 0.30004 0.0
O399 O 0.20147 0.82392 0.22622 0.0
O400 O 0.20427 0.82114 0.10321 0.0
H401 H 0.1519 0.84736 0.96759 0.0
H402 H 0.15737 0.82913 0.96004 0.0
C403 C 0.16015 0.83961 0.9837 0.0
H404 H 0.17029 0.84305 0.95852 0.0
H405 H 0.20038 0.83555 0.9676 0.0
O406 O 0.17813 0.82504 0.34497 0.0
C407 C 0.20937 0.82374 0.1682 0.0
Co408 Co 0.9333 0.57043 0.98409 0.0
Co409 Co 0.93296 0.56586 0.1622 0.0
C410 C 0.95938 0.57417 0.08264 0.0
O411 O 0.95284 0.57419 0.01952 0.0
O412 O 0.95307 0.57119 0.14455 0.0
C413 C 0.94283 0.57575 0.83192 0.0
O414 O 0.95529 0.57443 0.86377 0.0
C415 C 0.93357 0.57015 0.33039 0.0
C416 C 0.91683 0.55514 0.36409 0.0
C417 C 0.92611 0.56508 0.39294 0.0
N418 N 0.92873 0.56355 0.2679 0.0
N419 N 0.91884 0.5545 0.28888 0.0
C420 C 0.94429 0.58174 0.32871 0.0
H421 H 0.94479 0.58658 0.27151 0.0
H422 H 0.94173 0.58993 0.37155 0.0
H423 H 0.95484 0.57727 0.34209 0.0
C424 C 0.91127 0.59139 0.02554 0.0
N425 N 0.92049 0.58109 0.04379 0.0
N426 N 0.92057 0.57943 0.1179 0.0
C427 C 0.91143 0.58869 0.14899 0.0
C428 C 0.90529 0.59658 0.09169 0.0
C429 C 0.90902 0.59669 0.94668 0.0
H430 H 0.90508 0.58791 0.91082 0.0
H431 H 0.91929 0.60017 0.92273 0.0
H432 H 0.9014 0.6056 0.94506 0.0
O433 O 0.92946 0.5499 0.99308 0.0
O434 O 0.92971 0.54692 0.11749 0.0
H435 H 0.90532 0.5794 0.25439 0.0
H436 H 0.89986 0.5975 0.24405 0.0
C437 C 0.90846 0.58987 0.23199 0.0
H438 H 0.91818 0.59331 0.2617 0.0
H439 H 0.91322 0.5481 0.25143 0.0
O440 O 0.93182 0.57498 0.87325 0.0
C441 C 0.92849 0.54194 0.0509 0.0
Co442 Co 0.18117 0.18048 0.72302 0.0
Co443 Co 0.18721 0.18238 0.89649 0.0
C444 C 0.17768 0.20768 0.80815 0.0
O445 O 0.17703 0.20052 0.74718 0.0
O446 O 0.18142 0.20198 0.87041 0.0
C447 C 0.17316 0.18598 0.56866 0.0
O448 O 0.17205 0.19914 0.5913 0.0
C449 C 0.18162 0.18671 0.05804 0.0
C450 C 0.1977 0.17279 0.10983 0.0
C451 C 0.18658 0.18176 0.12699 0.0
N452 N 0.18941 0.18084 0.0028 0.0
N453 N 0.19909 0.17266 0.0341 0.0
C454 C 0.16901 0.19588 0.04394 0.0
H455 H 0.16445 0.19359 0.98738 0.0
H456 H 0.16088 0.19425 0.08838 0.0
H457 H 0.17235 0.20712 0.04501 0.0
C458 C 0.16133 0.15832 0.77564 0.0
N459 N 0.17122 0.16825 0.78873 0.0
N460 N 0.17372 0.16897 0.86188 0.0
C461 C 0.16549 0.15945 0.89777 0.0
C462 C 0.15734 0.15243 0.84437 0.0
C463 C 0.15543 0.15509 0.69899 0.0
H464 H 0.16372 0.14993 0.66419 0.0
H465 H 0.15243 0.16509 0.67038 0.0
H466 H 0.14606 0.14808 0.70242 0.0
O467 O 0.20184 0.17733 0.7297 0.0
O468 O 0.2061 0.17863 0.85273 0.0
H469 H 0.17704 0.15537 -0.00035 0.0
H470 H 0.16006 0.14686 0.99621 0.0
C471 C 0.16593 0.1566 0.98111 0.0
H472 H 0.16122 0.16566 0.01179 0.0
H473 H 0.20644 0.16672 0.00362 0.0
O474 O 0.17631 0.17645 0.61644 0.0
C475 C 0.21041 0.17692 0.78514 0.0
Co476 Co 0.5664 0.42816 0.48746 0.0
Co477 Co 0.56812 0.43697 0.65849 0.0
C478 C 0.54075 0.42782 0.58463 0.0
O479 O 0.54652 0.42529 0.52075 0.0
O480 O 0.54794 0.43243 0.64041 0.0
C481 C 0.55998 0.4255 0.33138 0.0
O482 O 0.54801 0.43123 0.35325 0.0
C483 C 0.56391 0.4334 0.82188 0.0
C484 C 0.58011 0.44762 0.86981 0.0
C485 C 0.56953 0.43819 0.88953 0.0
N486 N 0.57081 0.43971 0.76457 0.0
N487 N 0.58044 0.44826 0.79361 0.0
C488 C 0.55297 0.42216 0.81173 0.0
H489 H 0.55454 0.4166 0.7571 0.0
H490 H 0.55338 0.41444 0.85899 0.0
H491 H 0.54236 0.42714 0.81165 0.0
C492 C 0.58786 0.40749 0.53887 0.0
N493 N 0.5791 0.41844 0.55169 0.0
N494 N 0.57976 0.42198 0.62366 0.0
C495 C 0.58889 0.41327 0.65908 0.0
C496 C 0.5943 0.40384 0.60655 0.0
C497 C 0.58947 0.40033 0.46389 0.0
H498 H 0.59423 0.40785 0.42296 0.0
H499 H 0.57889 0.39735 0.44201 0.0
H500 H 0.59622 0.39077 0.468 0.0
O501 O 0.57049 0.44861 0.48607 0.0
O502 O 0.5726 0.45504 0.60612 0.0
H503 H 0.59583 0.42489 0.75598 0.0
H504 H 0.60111 0.40657 0.75649 0.0
C505 C 0.59249 0.41401 0.74146 0.0
H506 H 0.58298 0.41138 0.77537 0.0
H507 H 0.58735 0.45439 0.76141 0.0
O508 O 0.56916 0.42231 0.38099 0.0
C509 C 0.57282 0.45803 0.53578 0.0
Co510 Co 0.31902 0.81942 0.22291 0.0
Co511 Co 0.31436 0.81924 0.40066 0.0
C512 C 0.32284 0.79306 0.31717 0.0
O513 O 0.32295 0.79972 0.25433 0.0
O514 O 0.31977 0.79925 0.37935 0.0
C515 C 0.3315 0.81509 0.07082 0.0
O516 O 0.34076 0.80659 0.10236 0.0
C517 C 0.31737 0.81768 0.57112 0.0
C518 C 0.30217 0.83446 0.6015 0.0
C519 C 0.31141 0.82474 0.63292 0.0
N520 N 0.31188 0.82314 0.50686 0.0
N521 N 0.30281 0.83313 0.52598 0.0
C522 C 0.32755 0.8056 0.57276 0.0
H523 H 0.3272 0.79962 0.51892 0.0
H524 H 0.33841 0.80978 0.58026 0.0
H525 H 0.32513 0.79843 0.62077 0.0
C526 C 0.33957 0.8418 0.26618 0.0
N527 N 0.32962 0.83215 0.2835 0.0
N528 N 0.32778 0.83193 0.35746 0.0
C529 C 0.33654 0.84142 0.3895 0.0
C530 C 0.34433 0.84797 0.33286 0.0
C531 C 0.34482 0.84443 0.18756 0.0
H532 H 0.34871 0.83436 0.16316 0.0
H533 H 0.35349 0.85231 0.18638 0.0
H534 H 0.33593 0.84814 0.15175 0.0
O535 O 0.29854 0.82305 0.23319 0.0
O536 O 0.29533 0.82257 0.35722 0.0
H537 H 0.3444 0.85318 0.48664 0.0
H538 H 0.33981 0.83491 0.50409 0.0
C539 C 0.33688 0.84461 0.47253 0.0
H540 H 0.32622 0.84793 0.49124 0.0
H541 H 0.29702 0.83909 0.48715 0.0
O542 O 0.32257 0.82155 0.11212 0.0
C543 C 0.29047 0.82391 0.29052 0.0
Co544 Co 0.56914 0.07044 0.45044 0.0
Co545 Co 0.56965 0.06675 0.62859 0.0
C546 C 0.5432 0.07475 0.55027 0.0
O547 O 0.54972 0.07451 0.48705 0.0
O548 O 0.54952 0.07196 0.61235 0.0
C549 C 0.55923 0.07204 0.29901 0.0
O550 O 0.54768 0.0674 0.33204 0.0
C551 C 0.56855 0.07018 0.7973 0.0
C552 C 0.5882 0.05894 0.82817 0.0
C553 C 0.57707 0.06654 0.85866 0.0
N554 N 0.57452 0.06501 0.73372 0.0
N555 N 0.58617 0.0582 0.753 0.0
C556 C 0.5557 0.07937 0.79787 0.0
H557 H 0.55468 0.08506 0.74323 0.0
H558 H 0.55617 0.08709 0.84507 0.0
H559 H 0.54621 0.07264 0.80551 0.0
C560 C 0.59184 0.09106 0.48766 0.0
N561 N 0.58224 0.0812 0.50742 0.0
N562 N 0.58186 0.08017 0.58173 0.0
C563 C 0.59096 0.08957 0.61166 0.0
C564 C 0.59774 0.09669 0.5532 0.0
C565 C 0.59535 0.09476 0.40751 0.0
H566 H 0.59515 0.08512 0.37186 0.0
H567 H 0.58726 0.10219 0.38554 0.0
H568 H 0.60591 0.09981 0.40338 0.0
O569 O 0.57286 0.05001 0.46116 0.0
O570 O 0.57279 0.04757 0.58593 0.0
H571 H 0.59868 0.08462 0.72227 0.0
H572 H 0.59664 0.10331 0.70513 0.0
C573 C 0.592 0.09274 0.69456 0.0
H574 H 0.58134 0.09246 0.72033 0.0
H575 H 0.59292 0.0533 0.71436 0.0
O576 O 0.57004 0.07464 0.33961 0.0
C577 C 0.57389 0.0423 0.51987 0.0
Co578 Co 0.18251 0.31667 0.75033 0.0
Co579 Co 0.18419 0.31923 0.92371 0.0
C580 C 0.17787 0.29148 0.84897 0.0
O581 O 0.17821 0.2971 0.78339 0.0
O582 O 0.18008 0.29881 0.90839 0.0
C583 C 0.17317 0.3127 0.59297 0.0
O584 O 0.16257 0.30473 0.61496 0.0
C585 C 0.17795 0.31679 0.08553 0.0
C586 C 0.18586 0.33737 0.1271 0.0
C587 C 0.17922 0.32504 0.14984 0.0
N588 N 0.18335 0.32407 0.0271 0.0
N589 N 0.18809 0.33633 0.05223 0.0
C590 C 0.17296 0.30183 0.07982 0.0
H591 H 0.18161 0.29532 0.056 0.0
H592 H 0.16386 0.30128 0.04029 0.0
H593 H 0.16995 0.29734 0.1354 0.0
C594 C 0.16077 0.33908 0.77049 0.0
N595 N 0.17057 0.33001 0.79702 0.0
N596 N 0.1708 0.33063 0.87128 0.0
C597 C 0.16078 0.33978 0.89473 0.0
C598 C 0.15421 0.34559 0.83166 0.0
C599 C 0.15818 0.34178 0.68819 0.0
H600 H 0.16837 0.34203 0.65723 0.0
H601 H 0.15168 0.33307 0.66473 0.0
H602 H 0.15259 0.35195 0.67914 0.0
O603 O 0.20247 0.32087 0.76877 0.0
O604 O 0.20408 0.32319 0.89274 0.0
H605 H 0.16397 0.34928 0.00316 0.0
H606 H 0.14569 0.34614 0.98044 0.0
C607 C 0.15654 0.34182 0.9757 0.0
H608 H 0.1569 0.33159 0.00607 0.0
H609 H 0.19279 0.344 0.01805 0.0
O610 O 0.18142 0.31811 0.6413 0.0
C611 C 0.20977 0.32328 0.8275 0.0
Co612 Co 0.93268 0.92881 0.94469 0.0
Co613 Co 0.93229 0.93454 0.12211 0.0
C614 C 0.95895 0.92648 0.04139 0.0
O615 O 0.95249 0.92564 0.97804 0.0
O616 O 0.95247 0.92982 0.10232 0.0
C617 C 0.93784 0.91687 0.79136 0.0
O618 O 0.94721 0.90835 0.82187 0.0
C619 C 0.93426 0.93258 0.2932 0.0
C620 C 0.91464 0.94399 0.32232 0.0
C621 C 0.92596 0.93691 0.35444 0.0
N622 N 0.92793 0.9368 0.2284 0.0
N623 N 0.91626 0.94364 0.24681 0.0
C624 C 0.94813 0.92504 0.29603 0.0
H625 H 0.95451 0.92752 0.2452 0.0
H626 H 0.94622 0.91348 0.29731 0.0
H627 H 0.95412 0.92806 0.34757 0.0
C628 C 0.91105 0.90764 0.99014 0.0
N629 N 0.92015 0.91818 0.00606 0.0
N630 N 0.92045 0.92019 0.07985 0.0
C631 C 0.91185 0.91072 0.11332 0.0
C632 C 0.90545 0.90254 0.05771 0.0
C633 C 0.9077 0.90282 0.91153 0.0
H634 H 0.90742 0.91201 0.87264 0.0
H635 H 0.91614 0.89555 0.8919 0.0
H636 H 0.89739 0.89725 0.90936 0.0
O637 O 0.92842 0.94901 0.95296 0.0
O638 O 0.92821 0.95344 0.07598 0.0
H639 H 0.90426 0.91671 0.22272 0.0
H640 H 0.90678 0.89792 0.21161 0.0
C641 C 0.91109 0.90847 0.19716 0.0
H642 H 0.9218 0.90933 0.22188 0.0
H643 H 0.9093 0.94802 0.20744 0.0
O644 O 0.93073 0.92512 0.83363 0.0
C645 C 0.927 0.95759 0.00768 0.0
Co646 Co 0.31811 0.68422 0.25982 0.0
Co647 Co 0.31606 0.68125 0.43332 0.0
C648 C 0.32198 0.70927 0.36004 0.0
O649 O 0.32196 0.70375 0.29421 0.0
O650 O 0.31973 0.7018 0.41894 0.0
C651 C 0.32756 0.68855 0.10224 0.0
O652 O 0.33844 0.69609 0.12457 0.0
C653 C 0.32292 0.68354 0.59443 0.0
C654 C 0.31342 0.66382 0.63854 0.0
C655 C 0.32102 0.67567 0.65977 0.0
N656 N 0.31688 0.67649 0.53695 0.0
N657 N 0.31124 0.66473 0.56356 0.0
C658 C 0.32923 0.69796 0.5867 0.0
H659 H 0.32086 0.70537 0.56814 0.0
H660 H 0.33752 0.69778 0.54227 0.0
H661 H 0.33371 0.70194 0.64047 0.0
C662 C 0.34037 0.66233 0.28021 0.0
N663 N 0.33025 0.67106 0.30655 0.0
N664 N 0.32971 0.67013 0.38072 0.0
C665 C 0.33976 0.66102 0.40427 0.0
C666 C 0.34677 0.65567 0.34134 0.0
C667 C 0.34349 0.66013 0.198 0.0
H668 H 0.33348 0.65971 0.1655 0.0
H669 H 0.34981 0.66917 0.17673 0.0
H670 H 0.34947 0.65021 0.18844 0.0
O671 O 0.29822 0.67954 0.2777 0.0
O672 O 0.29629 0.67697 0.40146 0.0
H673 H 0.3354 0.65162 0.51179 0.0
H674 H 0.354 0.65349 0.49167 0.0
C675 C 0.34349 0.65854 0.48557 0.0
H676 H 0.34368 0.66873 0.51628 0.0
H677 H 0.30588 0.65735 0.53041 0.0
O678 O 0.31924 0.68316 0.15034 0.0
C679 C 0.2908 0.67688 0.33577 0.0
Co680 Co 0.56779 0.93317 0.49435 0.0
Co681 Co 0.56781 0.9344 0.3214 0.0
C682 C 0.54142 0.92747 0.4054 0.0
O683 O 0.54794 0.92845 0.4683 0.0
O684 O 0.5478 0.92948 0.34272 0.0
C685 C 0.56405 0.92403 0.64965 0.0
O686 O 0.55465 0.91476 0.62682 0.0
C687 C 0.56434 0.9292 0.15883 0.0
C688 C 0.58528 0.93631 0.11789 0.0
C689 C 0.57264 0.93038 0.09454 0.0
N690 N 0.57193 0.93394 0.2177 0.0
N691 N 0.58436 0.93827 0.19289 0.0
C692 C 0.54921 0.92475 0.16438 0.0
H693 H 0.54337 0.93243 0.19991 0.0
H694 H 0.54862 0.91426 0.19228 0.0
H695 H 0.54405 0.92424 0.10814 0.0
C696 C 0.59036 0.91187 0.46721 0.0
N697 N 0.58074 0.92142 0.44379 0.0
N698 N 0.58021 0.9214 0.36957 0.0
C699 C 0.58913 0.91144 0.34312 0.0
C700 C 0.59605 0.90523 0.40397 0.0
C701 C 0.5942 0.9095 0.54839 0.0
H702 H 0.59473 0.91977 0.57849 0.0
H703 H 0.58589 0.90298 0.57568 0.0
H704 H 0.60452 0.90404 0.55377 0.0
O705 O 0.57144 0.95323 0.47502 0.0
O706 O 0.57142 0.95442 0.35039 0.0
H707 H 0.5973 0.91368 0.23087 0.0
H708 H 0.59361 0.89571 0.25756 0.0
C709 C 0.58985 0.90678 0.26217 0.0
H710 H 0.57927 0.90748 0.23567 0.0
H711 H 0.59228 0.9424 0.22753 0.0
O712 O 0.57039 0.93175 0.60207 0.0
C713 C 0.57257 0.96036 0.41458 0.0
Co714 Co 0.31887 0.31745 0.7835 0.0
Co715 Co 0.31617 0.31846 0.61067 0.0
C716 C 0.32346 0.2915 0.69037 0.0
O717 O 0.32326 0.29764 0.7546 0.0
O718 O 0.32086 0.29829 0.6296 0.0
C719 C 0.32836 0.31377 0.94 0.0
O720 O 0.33794 0.30455 0.91864 0.0
C721 C 0.32142 0.31527 0.44828 0.0
C722 C 0.31304 0.33563 0.40608 0.0
C723 C 0.31983 0.32336 0.38358 0.0
N724 N 0.31611 0.32262 0.50666 0.0
N725 N 0.31101 0.3347 0.4811 0.0
C726 C 0.32682 0.30046 0.45477 0.0
H727 H 0.33663 0.30041 0.48914 0.0
H728 H 0.32884 0.29557 0.39885 0.0
H729 H 0.31881 0.294 0.48464 0.0
C730 C 0.34019 0.33995 0.75418 0.0
N731 N 0.33035 0.33053 0.73175 0.0
N732 N 0.32962 0.33053 0.65754 0.0
C733 C 0.33929 0.33965 0.63 0.0
C734 C 0.34616 0.3461 0.69025 0.0
C735 C 0.34345 0.34318 0.83522 0.0
H736 H 0.33348 0.34391 0.86807 0.0
H737 H 0.34983 0.33443 0.85932 0.0
H738 H 0.34937 0.35323 0.84098 0.0
O739 O 0.29867 0.32126 0.76837 0.0
O740 O 0.29648 0.32234 0.64425 0.0
H741 H 0.33527 0.3482 0.52006 0.0
H742 H 0.35373 0.34554 0.54013 0.0
C743 C 0.34298 0.34108 0.54788 0.0
H744 H 0.34264 0.33061 0.52009 0.0
H745 H 0.30637 0.34241 0.51525 0.0
O746 O 0.32065 0.31983 0.8914 0.0
C747 C 0.29108 0.32301 0.71001 0.0
Co748 Co 0.93156 0.07108 0.02657 0.0
Co749 Co 0.93164 0.0637 0.85432 0.0
C750 C 0.9581 0.07265 0.93412 0.0
O751 O 0.95154 0.07435 0.99651 0.0
O752 O 0.95169 0.06847 0.87476 0.0
C753 C 0.93815 0.07297 0.18075 0.0
O754 O 0.94959 0.06648 0.15682 0.0
C755 C 0.9366 0.06549 0.69009 0.0
C756 C 0.91777 0.05448 0.64552 0.0
C757 C 0.92989 0.06158 0.62368 0.0
N758 N 0.9288 0.0609 0.74874 0.0
N759 N 0.91762 0.05423 0.7217 0.0
C760 C 0.94946 0.07458 0.69786 0.0
H761 H 0.94845 0.08155 0.74805 0.0
H762 H 0.9511 0.08116 0.64661 0.0
H763 H 0.95882 0.06769 0.70574 0.0
C764 C 0.91003 0.09172 0.97502 0.0
N765 N 0.91911 0.08104 0.96207 0.0
N766 N 0.91955 0.0784 0.88904 0.0
C767 C 0.91102 0.08759 0.85277 0.0
C768 C 0.90461 0.09631 0.90607 0.0
C769 C 0.90649 0.09714 0.05234 0.0
H770 H 0.90525 0.08814 0.09203 0.0
H771 H 0.91531 0.10383 0.07302 0.0
H772 H 0.89659 0.10342 0.05205 0.0
O773 O 0.92767 0.0506 0.02578 0.0
O774 O 0.92727 0.0453 0.90376 0.0
H775 H 0.90377 0.08019 0.74527 0.0
H776 H 0.90552 0.09917 0.7508 0.0
C777 C 0.91023 0.08896 0.76841 0.0
H778 H 0.92098 0.08826 0.744 0.0
H779 H 0.90973 0.04976 0.75535 0.0
O780 O 0.92894 0.07681 0.13274 0.0
C781 C 0.92623 0.04162 0.97289 0.0
Co782 Co 0.18215 0.68385 0.27372 0.0
Co783 Co 0.18607 0.67956 0.09618 0.0
C784 C 0.17919 0.70791 0.16239 0.0
O785 O 0.1788 0.70306 0.22991 0.0
O786 O 0.1819 0.69995 0.10598 0.0
C787 C 0.18153 0.69404 0.42817 0.0
O788 O 0.18667 0.70558 0.39734 0.0
C789 C 0.1821 0.68053 0.928 0.0
C790 C 0.1923 0.66049 0.89466 0.0
C791 C 0.18535 0.67216 0.8654 0.0
N792 N 0.18697 0.67407 0.99093 0.0
N793 N 0.1931 0.66213 0.97021 0.0
C794 C 0.17364 0.69387 0.92885 0.0
H795 H 0.16757 0.6947 0.98239 0.0
H796 H 0.16627 0.69427 0.88006 0.0
H797 H 0.18094 0.70302 0.92525 0.0
C798 C 0.16077 0.66147 0.24797 0.0
N799 N 0.17093 0.67025 0.22261 0.0
N800 N 0.17211 0.66886 0.14868 0.0
C801 C 0.16245 0.65944 0.1244 0.0
C802 C 0.155 0.65432 0.18655 0.0
C803 C 0.15721 0.65961 0.32995 0.0
H804 H 0.16707 0.65916 0.36375 0.0
H805 H 0.15099 0.66885 0.34952 0.0
H806 H 0.15107 0.6498 0.33996 0.0
O807 O 0.20235 0.67915 0.26319 0.0
O808 O 0.2052 0.676 0.13964 0.0
H809 H 0.16778 0.64897 0.02107 0.0
H810 H 0.14903 0.65159 0.03427 0.0
C811 C 0.15962 0.65636 0.04265 0.0
H812 H 0.16018 0.66627 0.00939 0.0
H813 H 0.19774 0.65502 0.00793 0.0
O814 O 0.17829 0.68369 0.38548 0.0
C815 C 0.21018 0.67628 0.2067 0.0
Co816 Co 0.43163 0.92794 0.56766 0.0
Co817 Co 0.43224 0.93457 0.39594 0.0
C818 C 0.45842 0.92557 0.47845 0.0
O819 O 0.45175 0.92441 0.54091 0.0
O820 O 0.45214 0.9294 0.41797 0.0
C821 C 0.43727 0.92119 0.72337 0.0
O822 O 0.45051 0.9195 0.70309 0.0
C823 C 0.43774 0.93403 0.2321 0.0
C824 C 0.41634 0.93863 0.18866 0.0
C825 C 0.4298 0.93466 0.16594 0.0
N826 N 0.42915 0.93684 0.29076 0.0
N827 N 0.41649 0.93997 0.26428 0.0
C828 C 0.45332 0.93187 0.24013 0.0
H829 H 0.45739 0.93849 0.28706 0.0
H830 H 0.45547 0.92062 0.2535 0.0
H831 H 0.45901 0.93491 0.18768 0.0
C832 C 0.41012 0.90715 0.51833 0.0
N833 N 0.41929 0.91772 0.50439 0.0
N834 N 0.42002 0.91994 0.43107 0.0
C835 C 0.41169 0.91043 0.39562 0.0
C836 C 0.40496 0.90217 0.44969 0.0
C837 C 0.40628 0.90218 0.5961 0.0
H838 H 0.40452 0.91142 0.63354 0.0
H839 H 0.41519 0.89596 0.61972 0.0
H840 H 0.3966 0.89558 0.59561 0.0
O841 O 0.42787 0.94833 0.56395 0.0
O842 O 0.42791 0.95331 0.44184 0.0
H843 H 0.40354 0.91495 0.2854 0.0
H844 H 0.40868 0.89686 0.29855 0.0
C845 C 0.41153 0.90796 0.31188 0.0
H846 H 0.42206 0.91019 0.28729 0.0
H847 H 0.40779 0.94237 0.29824 0.0
O848 O 0.42794 0.92352 0.6735 0.0
C849 C 0.42664 0.95718 0.51048 0.0
Co850 Co 0.81884 0.68248 0.2283 0.0
Co851 Co 0.8126 0.68112 0.05121 0.0
C852 C 0.82217 0.70788 0.12528 0.0
O853 O 0.82285 0.70182 0.18973 0.0
O854 O 0.81839 0.70115 0.06602 0.0
C855 C 0.82225 0.69218 0.38091 0.0
O856 O 0.81898 0.70428 0.34896 0.0
C857 C 0.81617 0.68217 0.88249 0.0
C858 C 0.80205 0.66468 0.84886 0.0
C859 C 0.81138 0.67458 0.81981 0.0
N860 N 0.81001 0.67684 0.94527 0.0
N861 N 0.80147 0.66651 0.9243 0.0
C862 C 0.82731 0.69337 0.88392 0.0
H863 H 0.83263 0.69359 0.93986 0.0
H864 H 0.83522 0.69156 0.83857 0.0
H865 H 0.82227 0.70381 0.87438 0.0
C866 C 0.83811 0.65892 0.18626 0.0
N867 N 0.82853 0.66891 0.16845 0.0
N868 N 0.82616 0.66858 0.09491 0.0
C869 C 0.83429 0.65844 0.06367 0.0
C870 C 0.84205 0.6519 0.12041 0.0
C871 C 0.84291 0.65589 0.2653 0.0
H872 H 0.83368 0.65585 0.304 0.0
H873 H 0.85014 0.66443 0.28399 0.0
H874 H 0.84846 0.64559 0.26911 0.0
O875 O 0.79831 0.67916 0.22298 0.0
O876 O 0.79377 0.67836 0.09987 0.0
H877 H 0.82541 0.65072 0.96039 0.0
H878 H 0.84437 0.64876 0.96608 0.0
C879 C 0.83533 0.65572 0.98036 0.0
H880 H 0.83675 0.66586 0.95018 0.0
H881 H 0.7955 0.66046 0.96187 0.0
O882 O 0.82357 0.68127 0.33922 0.0
C883 C 0.78963 0.6778 0.1685 0.0
Co884 Co 0.068 0.07545 0.08985 0.0
Co885 Co 0.06777 0.06818 0.91748 0.0
C886 C 0.04135 0.07689 -0.00178 0.0
O887 O 0.04796 0.07859 0.06043 0.0
O888 O 0.04774 0.07284 0.93855 0.0
C889 C 0.06136 0.07766 0.24405 0.0
O890 O 0.04976 0.07144 0.22033 0.0
C891 C 0.06276 0.07024 0.75352 0.0
C892 C 0.08127 0.05876 0.70823 0.0
C893 C 0.06933 0.06621 0.68685 0.0
N894 N 0.07048 0.06539 0.81184 0.0
N895 N 0.08146 0.05844 0.78438 0.0
C896 C 0.05015 0.07965 0.76188 0.0
H897 H 0.05129 0.08641 0.81279 0.0
H898 H 0.04875 0.08644 0.71121 0.0
H899 H 0.04059 0.073 0.76883 0.0
C900 C 0.08993 0.09574 0.03818 0.0
N901 N 0.08044 0.08542 0.02513 0.0
N902 N 0.07993 0.0828 0.95209 0.0
C903 C 0.08884 0.09163 0.91593 0.0
C904 C 0.09559 0.10007 0.96928 0.0
C905 C 0.09382 0.10085 0.11558 0.0
H906 H 0.09477 0.09173 0.15469 0.0
H907 H 0.08531 0.10784 0.13714 0.0
H908 H 0.10395 0.10674 0.11512 0.0
O909 O 0.07201 0.05499 0.08879 0.0
O910 O 0.07222 0.04982 0.96656 0.0
H911 H 0.09616 0.08379 0.80943 0.0
H912 H 0.09503 0.10282 0.8139 0.0
C913 C 0.08992 0.09281 0.83158 0.0
H914 H 0.07923 0.09242 0.80632 0.0
H915 H 0.08925 0.05374 0.81774 0.0
O916 O 0.07068 0.0812 0.19594 0.0
C917 C 0.0734 0.04607 0.03551 0.0
Co918 Co 0.67879 0.31797 0.76896 0.0
Co919 Co 0.68741 0.31888 0.59752 0.0
C920 C 0.6772 0.29212 0.6725 0.0
O921 O 0.67507 0.29817 0.73601 0.0
O922 O 0.682 0.29895 0.61589 0.0
C923 C 0.67669 0.31156 0.9243 0.0
O924 O 0.68283 0.29988 0.90127 0.0
C925 C 0.68485 0.31444 0.4332 0.0
C926 C 0.69823 0.33158 0.38766 0.0
C927 C 0.68956 0.32048 0.3664 0.0
N928 N 0.69049 0.32161 0.49157 0.0
N929 N 0.69855 0.33179 0.4639 0.0
C930 C 0.67413 0.30293 0.44129 0.0
H931 H 0.66802 0.3043 0.49437 0.0
H932 H 0.66678 0.30286 0.39231 0.0
H933 H 0.67967 0.29262 0.4431 0.0
C934 C 0.65997 0.34125 0.71824 0.0
N935 N 0.66976 0.33123 0.70474 0.0
N936 N 0.67306 0.33135 0.63238 0.0
C937 C 0.66523 0.34126 0.59711 0.0
C938 C 0.65675 0.34797 0.65037 0.0
C939 C 0.65454 0.34478 0.79556 0.0
H940 H 0.66351 0.34542 0.83581 0.0
H941 H 0.64741 0.33621 0.81503 0.0
H942 H 0.64876 0.35497 0.7962 0.0
O943 O 0.69936 0.32122 0.77052 0.0
O944 O 0.70568 0.32258 0.64993 0.0
H945 H 0.67519 0.34889 0.49642 0.0
H946 H 0.65613 0.35014 0.49479 0.0
C947 C 0.66521 0.3436 0.51327 0.0
H948 H 0.66458 0.3333 0.48386 0.0
H949 H 0.70407 0.33903 0.49714 0.0
O950 O 0.67299 0.32069 0.87543 0.0
C951 C 0.70879 0.32295 0.7201 0.0
Co952 Co 0.43469 0.06986 0.4829 0.0
Co953 Co 0.43132 0.06467 0.6553 0.0
C954 C 0.4594 0.07234 0.58484 0.0
O955 O 0.45408 0.0736 0.51893 0.0
O956 O 0.45183 0.06877 0.64138 0.0
C957 C 0.43863 0.08032 0.32419 0.0
O958 O 0.44588 0.09147 0.34533 0.0
C959 C 0.43319 0.07216 0.8153 0.0
C960 C 0.41729 0.05789 0.86603 0.0
C961 C 0.42691 0.06843 0.88341 0.0
N962 N 0.42735 0.06429 0.76029 0.0
N963 N 0.41787 0.05579 0.79085 0.0
C964 C 0.44529 0.08205 0.80215 0.0
H965 H 0.44291 0.08899 0.75312 0.0
H966 H 0.44782 0.08852 0.85246 0.0
H967 H 0.45479 0.07576 0.78757 0.0
C968 C 0.41272 0.09156 0.5136 0.0
N969 N 0.42132 0.08095 0.5351 0.0
N970 N 0.41993 0.07882 0.60834 0.0
C971 C 0.41043 0.08812 0.63591 0.0
C972 C 0.4056 0.09651 0.57696 0.0
C973 C 0.41208 0.09736 0.43491 0.0
H974 H 0.40975 0.08867 0.39463 0.0
H975 H 0.42255 0.10181 0.41984 0.0
H976 H 0.40397 0.10575 0.42936 0.0
O977 O 0.43046 0.04964 0.49385 0.0
O978 O 0.42714 0.04542 0.61551 0.0
H979 H 0.4029 0.07816 0.73695 0.0
H980 H 0.39665 0.09599 0.72451 0.0
C981 C 0.40585 0.08885 0.71693 0.0
H982 H 0.41473 0.09277 0.75199 0.0
H983 H 0.41181 0.04855 0.76033 0.0
O984 O 0.43356 0.07192 0.37304 0.0
C985 C 0.42755 0.04116 0.54725 0.0
Co986 Co 0.68177 0.68373 0.26297 0.0
Co987 Co 0.68731 0.68341 0.43494 0.0
C988 C 0.67922 0.71009 0.35106 0.0
O989 O 0.67786 0.70367 0.28812 0.0
O990 O 0.68301 0.70351 0.41066 0.0
C991 C 0.67232 0.68759 0.10756 0.0
O992 O 0.66426 0.69812 0.12943 0.0
C993 C 0.68059 0.68653 0.59702 0.0
C994 C 0.69565 0.67116 0.64565 0.0
C995 C 0.68487 0.68042 0.66467 0.0
N996 N 0.68836 0.6809 0.54081 0.0
N997 N 0.69738 0.6718 0.57036 0.0
C998 C 0.66962 0.69775 0.58592 0.0
H999 H 0.65904 0.69275 0.58241 0.0
H1000 H 0.66966 0.70528 0.6341 0.0
H1001 H 0.67143 0.70364 0.53291 0.0
C1002 C 0.66015 0.66252 0.30542 0.0
N1003 N 0.67086 0.67134 0.32222 0.0
N1004 N 0.67321 0.67107 0.39553 0.0
C1005 C 0.66404 0.66197 0.4279 0.0
C1006 C 0.65543 0.65634 0.372 0.0
C1007 C 0.65409 0.66082 0.22777 0.0
H1008 H 0.66208 0.6558 0.19054 0.0
H1009 H 0.65166 0.67139 0.20389 0.0
H1010 H 0.64435 0.6543 0.22826 0.0
O1011 O 0.70218 0.68004 0.27309 0.0
O1012 O 0.70643 0.67888 0.39572 0.0
H1013 H 0.67458 0.6562 0.53059 0.0
H1014 H 0.65706 0.64898 0.52181 0.0
C1015 C 0.66373 0.65839 0.51041 0.0
H1016 H 0.65943 0.66748 0.54254 0.0
H1017 H 0.70457 0.66586 0.53887 0.0
O1018 O 0.67902 0.68032 0.15585 0.0
C1019 C 0.71071 0.67823 0.32764 0.0
Co1020 Co 0.06797 0.9332 0.00078 0.0
Co1021 Co 0.06962 0.93818 0.17312 0.0
C1022 C 0.04245 0.92964 0.09635 0.0
O1023 O 0.04842 0.92877 0.03188 0.0
O1024 O 0.0494 0.93326 0.15506 0.0
C1025 C 0.06495 0.92269 0.84333 0.0
O1026 O 0.05752 0.91166 0.86463 0.0
C1027 C 0.06705 0.9315 0.33423 0.0
C1028 C 0.08383 0.94504 0.38248 0.0
C1029 C 0.07375 0.93503 0.40134 0.0
N1030 N 0.07315 0.9389 0.27815 0.0
N1031 N 0.0831 0.94702 0.3073 0.0
C1032 C 0.05463 0.92195 0.32289 0.0
H1033 H 0.05746 0.91349 0.28207 0.0
H1034 H 0.05081 0.91723 0.37647 0.0
H1035 H 0.04586 0.92813 0.29789 0.0
C1036 C 0.09131 0.91312 0.03447 0.0
N1037 N 0.08144 0.92263 0.05507 0.0
N1038 N 0.08211 0.92467 0.1286 0.0
C1039 C 0.0924 0.91641 0.15739 0.0
C1040 C 0.09863 0.90889 0.09872 0.0
C1041 C 0.09407 0.90881 0.95433 0.0
H1042 H 0.09461 0.91834 0.91791 0.0
H1043 H 0.08516 0.90221 0.93405 0.0
H1044 H 0.10407 0.90277 0.94892 0.0
O1045 O 0.07141 0.95355 0.01217 0.0
O1046 O 0.07328 0.95761 0.13477 0.0
H1047 H 0.10022 0.92527 0.26052 0.0
H1048 H 0.10329 0.9065 0.25179 0.0
C1049 C 0.09571 0.91516 0.24 0.0
H1050 H 0.08587 0.91297 0.27176 0.0
H1051 H 0.08949 0.95379 0.27565 0.0
O1052 O 0.06995 0.93113 0.89201 0.0
C1053 C 0.07344 0.96201 0.06677 0.0
Co1054 Co 0.82182 0.31728 0.72368 0.0
Co1055 Co 0.81472 0.31971 0.89982 0.0
C1056 C 0.82408 0.29228 0.82685 0.0
O1057 O 0.82557 0.29787 0.76149 0.0
O1058 O 0.81991 0.29951 0.88368 0.0
C1059 C 0.83418 0.31296 0.56827 0.0
O1060 O 0.8437 0.3044 0.59696 0.0
C1061 C 0.81847 0.31872 0.06984 0.0
C1062 C 0.80229 0.33431 0.10311 0.0
C1063 C 0.81238 0.32526 0.13305 0.0
N1064 N 0.81224 0.3238 0.00651 0.0
N1065 N 0.8026 0.33311 0.02737 0.0
C1066 C 0.82959 0.30749 0.06931 0.0
H1067 H 0.82995 0.30204 0.01398 0.0
H1068 H 0.84005 0.31244 0.07925 0.0
H1069 H 0.82758 0.29968 0.11493 0.0
C1070 C 0.84148 0.34041 0.76482 0.0
N1071 N 0.83158 0.33079 0.78317 0.0
N1072 N 0.82869 0.33182 0.85601 0.0
C1073 C 0.83674 0.34214 0.88621 0.0
C1074 C 0.8451 0.34792 0.8295 0.0
C1075 C 0.84757 0.34199 0.68712 0.0
H1076 H 0.83928 0.34604 0.64835 0.0
H1077 H 0.85093 0.33149 0.66593 0.0
H1078 H 0.85675 0.34927 0.68651 0.0
O1079 O 0.80142 0.32081 0.72978 0.0
O1080 O 0.79592 0.32298 0.8511 0.0
H1081 H 0.82464 0.34946 0.98058 0.0
H1082 H 0.84234 0.35638 0.97785 0.0
C1083 C 0.83578 0.3469 0.96685 0.0
H1084 H 0.83924 0.3382 0.00455 0.0
H1085 H 0.79617 0.33864 0.98967 0.0
O1086 O 0.82541 0.31909 0.612 0.0
C1087 C 0.79236 0.32295 0.78154 0.0
H1088 H 0.04417 0.57148 0.74072 0.0
H1089 H 0.08802 0.57623 0.80344 0.0
H1090 H 0.09506 0.57387 0.67148 0.0
H1091 H 0.08897 0.56845 0.53959 0.0
H1092 H 0.04526 0.56409 0.4757 0.0
H1093 H 0.03793 0.56836 0.60656 0.0
C1094 C 0.05524 0.57217 0.72539 0.0
C1095 C 0.06554 0.57383 0.78202 0.0
C1096 C 0.05926 0.57078 0.64924 0.0
C1097 C 0.07985 0.57487 0.76112 0.0
C1098 C 0.08392 0.57347 0.68563 0.0
C1099 C 0.07785 0.56858 0.55449 0.0
C1100 C 0.06766 0.566 0.49866 0.0
C1101 C 0.07375 0.57108 0.62955 0.0
C1102 C 0.05326 0.56624 0.51791 0.0
C1103 C 0.04909 0.56859 0.5927 0.0
H1104 H 0.69926 0.82318 0.72916 0.0
H1105 H 0.65652 0.81644 0.65171 0.0
H1106 H 0.64869 0.81303 0.78154 0.0
H1107 H 0.65394 0.8127 0.91928 0.0
H1108 H 0.69634 0.82226 0.99344 0.0
H1109 H 0.70422 0.82411 0.86304 0.0
C1110 C 0.6882 0.82098 0.74025 0.0
C1111 C 0.67866 0.81961 0.67997 0.0
C1112 C 0.68364 0.81969 0.81503 0.0
C1113 C 0.66434 0.81688 0.696 0.0
C1114 C 0.65976 0.81516 0.77075 0.0
C1115 C 0.66487 0.81519 0.90641 0.0
C1116 C 0.67452 0.8174 0.96546 0.0
C1117 C 0.66932 0.81658 0.83085 0.0
C1118 C 0.68866 0.82069 0.94871 0.0
C1119 C 0.69322 0.82168 0.87423 0.0
H1120 H 0.42644 0.44977 0.00583 0.0
H1121 H 0.43693 0.4075 0.93268 0.0
H1122 H 0.43942 0.40007 0.06386 0.0
H1123 H 0.4378 0.40551 0.20107 0.0
H1124 H 0.42439 0.44724 0.26951 0.0
H1125 H 0.42347 0.45477 0.13846 0.0
C1126 C 0.42927 0.43889 0.0181 0.0
C1127 C 0.43193 0.42939 0.9589 0.0
C1128 C 0.42993 0.43451 0.09327 0.0
C1129 C 0.43547 0.41532 0.97639 0.0
C1130 C 0.43665 0.41095 0.0518 0.0
C1131 C 0.43464 0.41621 0.18684 0.0
C1132 C 0.43112 0.42577 0.24454 0.0
C1133 C 0.43383 0.42046 0.11079 0.0
C1134 C 0.42698 0.43961 0.22593 0.0
C1135 C 0.42653 0.44398 0.15107 0.0
H1136 H 0.82394 0.19894 0.17501 0.0
H1137 H 0.81597 0.15419 0.19193 0.0
H1138 H 0.82024 0.15499 0.32807 0.0
H1139 H 0.82452 0.16867 0.444 0.0
H1140 H 0.83172 0.21359 0.42799 0.0
H1141 H 0.82977 0.21239 0.29039 0.0
C1142 C 0.82349 0.18931 0.20812 0.0
C1143 C 0.81975 0.1765 0.17306 0.0
C1144 C 0.82573 0.18988 0.28699 0.0
C1145 C 0.81881 0.1642 0.21748 0.0
C1146 C 0.82125 0.16464 0.29543 0.0
C1147 C 0.82586 0.17817 0.4104 0.0
C1148 C 0.82819 0.1912 0.44661 0.0
C1149 C 0.82446 0.17747 0.33111 0.0
C1150 C 0.82984 0.20341 0.4019 0.0
C1151 C 0.8287 0.20275 0.32301 0.0
H1152 H 0.07086 0.44982 0.45534 0.0
H1153 H 0.07282 0.40615 0.52344 0.0
H1154 H 0.06803 0.39867 0.39305 0.0
H1155 H 0.06439 0.40478 0.25768 0.0
H1156 H 0.06437 0.44874 0.19201 0.0
H1157 H 0.06735 0.45587 0.3231 0.0
C1158 C 0.07017 0.43866 0.4416 0.0
C1159 C 0.07178 0.42855 0.49879 0.0
C1160 C 0.06785 0.4345 0.36677 0.0
C1161 C 0.07104 0.41413 0.48055 0.0
C1162 C 0.06849 0.40986 0.40592 0.0
C1163 C 0.06493 0.41589 0.27253 0.0
C1164 C 0.06422 0.42621 0.21549 0.0
C1165 C 0.06695 0.41997 0.34835 0.0
C1166 C 0.06503 0.44059 0.23498 0.0
C1167 C 0.06671 0.4447 0.30989 0.0
H1168 H 0.83769 0.81463 0.80041 0.0
H1169 H 0.79432 0.82739 0.76621 0.0
H1170 H 0.79754 0.82616 0.63009 0.0
H1171 H 0.81238 0.82143 0.52009 0.0
H1172 H 0.85527 0.80719 0.55111 0.0
H1173 H 0.85243 0.80882 0.68887 0.0
C1174 C 0.82882 0.81679 0.7637 0.0
C1175 C 0.81569 0.82091 0.79467 0.0
C1176 C 0.83067 0.8159 0.68444 0.0
C1177 C 0.80456 0.82419 0.74477 0.0
C1178 C 0.80636 0.82349 0.66653 0.0
C1179 C 0.82117 0.81875 0.55684 0.0
C1180 C 0.83406 0.81431 0.52515 0.0
C1181 C 0.81936 0.81941 0.63571 0.0
C1182 C 0.84523 0.81068 0.57391 0.0
C1183 C 0.8436 0.8116 0.65275 0.0
H1184 H 0.42852 0.55993 0.72413 0.0
H1185 H 0.44737 0.60116 0.74901 0.0
H1186 H 0.44491 0.59948 0.88686 0.0
H1187 H 0.43693 0.58633 0.00012 0.0
H1188 H 0.41917 0.54461 0.97247 0.0
H1189 H 0.42148 0.5466 0.83592 0.0
C1190 C 0.43206 0.5686 0.75952 0.0
C1191 C 0.43805 0.58069 0.72615 0.0
C1192 C 0.43081 0.56747 0.83844 0.0
C1193 C 0.44271 0.59173 0.77317 0.0
C1194 C 0.4413 0.59077 0.85203 0.0
C1195 C 0.4339 0.57753 0.96466 0.0
C1196 C 0.42809 0.56523 0.99731 0.0
C1197 C 0.43539 0.57866 0.88541 0.0
C1198 C 0.42369 0.55421 0.94937 0.0
C1199 C 0.42501 0.5553 0.87103 0.0
H1200 H 0.66671 0.20395 0.06629 0.0
H1201 H 0.6762 0.16043 0.01291 0.0
H1202 H 0.68044 0.15549 0.14635 0.0
H1203 H 0.68373 0.16402 0.27605 0.0
H1204 H 0.6747 0.20752 0.33008 0.0
H1205 H 0.66786 0.21196 0.19865 0.0
C1206 C 0.6695 0.19334 0.08392 0.0
C1207 C 0.67134 0.18264 0.02946 0.0
C1208 C 0.6721 0.19059 0.16079 0.0
C1209 C 0.67484 0.16891 0.05346 0.0
C1210 C 0.67732 0.16607 0.12978 0.0
C1211 C 0.68013 0.17444 0.25905 0.0
C1212 C 0.67969 0.18542 0.31239 0.0
C1213 C 0.67636 0.17692 0.18352 0.0
C1214 C 0.67492 0.19884 0.29017 0.0
C1215 C 0.67113 0.20141 0.21492 0.0
H1216 H 0.92525 0.44096 0.24687 0.0
H1217 H 0.9493 0.40242 0.26787 0.0
H1218 H 0.94773 0.40395 0.40605 0.0
H1219 H 0.93904 0.41613 0.52118 0.0
H1220 H 0.91545 0.45491 0.49719 0.0
H1221 H 0.91727 0.45331 0.36002 0.0
C1222 C 0.93013 0.43284 0.28146 0.0
C1223 C 0.93733 0.42156 0.24686 0.0
C1224 C 0.92931 0.43386 0.36057 0.0
C1225 C 0.94367 0.41122 0.29291 0.0
C1226 C 0.94279 0.4121 0.37199 0.0
C1227 C 0.93458 0.42439 0.48601 0.0
C1228 C 0.92729 0.43574 0.51965 0.0
C1229 C 0.93564 0.4234 0.40655 0.0
C1230 C 0.92114 0.44607 0.4729 0.0
C1231 C 0.92217 0.44518 0.39435 0.0
H1232 H 0.32038 0.20705 0.97181 0.0
H1233 H 0.32786 0.16307 0.92001 0.0
H1234 H 0.32604 0.15709 0.05383 0.0
H1235 H 0.32025 0.16402 0.1839 0.0
H1236 H 0.31274 0.20786 0.23641 0.0
H1237 H 0.31672 0.21427 0.10388 0.0
C1238 C 0.32178 0.19618 0.98988 0.0
C1239 C 0.32404 0.1855 0.93594 0.0
C1240 C 0.32063 0.19279 0.06688 0.0
C1241 C 0.326 0.17149 0.96031 0.0
C1242 C 0.32491 0.16804 0.0368 0.0
C1243 C 0.31961 0.17498 0.16616 0.0
C1244 C 0.31624 0.18547 0.21919 0.0
C1245 C 0.32187 0.17855 0.09022 0.0
C1246 C 0.31551 0.19965 0.19634 0.0
C1247 C 0.3177 0.2033 0.12064 0.0
H1248 H 0.55347 0.59002 0.80939 0.0
H1249 H 0.58491 0.56009 0.73378 0.0
H1250 H 0.58881 0.5524 0.86329 0.0
H1251 H 0.58283 0.55348 0.9969 0.0
H1252 H 0.55394 0.5855 0.07652 0.0
H1253 H 0.54922 0.59273 0.94685 0.0
C1254 C 0.56125 0.58191 0.82163 0.0
C1255 C 0.56884 0.57563 0.76223 0.0
C1256 C 0.56365 0.57765 0.8967 0.0
C1257 C 0.57898 0.5652 0.77859 0.0
C1258 C 0.58116 0.56069 0.85259 0.0
C1259 C 0.57545 0.56203 0.98613 0.0
C1260 C 0.56817 0.56834 0.04651 0.0
C1261 C 0.57345 0.56673 0.91187 0.0
C1262 C 0.55897 0.57969 0.03134 0.0
C1263 C 0.5565 0.5841 0.95698 0.0
H1264 H 0.19693 0.82786 0.71349 0.0
H1265 H 0.15869 0.80652 0.78267 0.0
H1266 H 0.15171 0.80394 0.651 0.0
H1267 H 0.15643 0.8081 0.51479 0.0
H1268 H 0.19341 0.83215 0.45117 0.0
H1269 H 0.20054 0.83378 0.58246 0.0
C1270 C 0.18702 0.82263 0.70035 0.0
C1271 C 0.1787 0.81691 0.75847 0.0
C1272 C 0.18267 0.82192 0.62516 0.0
C1273 C 0.16581 0.81037 0.7397 0.0
C1274 C 0.16161 0.80914 0.66407 0.0
C1275 C 0.16597 0.81377 0.53 0.0
C1276 C 0.17438 0.81992 0.47337 0.0
C1277 C 0.16999 0.81488 0.60625 0.0
C1278 C 0.18667 0.82736 0.49363 0.0
C1279 C 0.19085 0.82824 0.5687 0.0
H1280 H 0.91907 0.5737 0.74499 0.0
H1281 H 0.96427 0.57908 0.73 0.0
H1282 H 0.96308 0.5774 0.59234 0.0
H1283 H 0.94948 0.57224 0.47677 0.0
H1284 H 0.90438 0.56639 0.49239 0.0
H1285 H 0.90529 0.57031 0.62872 0.0
C1286 C 0.92864 0.57469 0.71161 0.0
C1287 C 0.94174 0.5764 0.74808 0.0
C1288 C 0.92793 0.5735 0.6323 0.0
C1289 C 0.95403 0.57766 0.70368 0.0
C1290 C 0.95338 0.57668 0.62476 0.0
C1291 C 0.93981 0.5722 0.50955 0.0
C1292 C 0.92687 0.56913 0.47409 0.0
C1293 C 0.94042 0.5743 0.58846 0.0
C1294 C 0.9145 0.56869 0.51822 0.0
C1295 C 0.915 0.57094 0.59629 0.0
H1296 H 0.17012 0.20417 0.45033 0.0
H1297 H 0.17619 0.16003 0.50355 0.0
H1298 H 0.17987 0.15477 0.36997 0.0
H1299 H 0.18366 0.16301 0.24013 0.0
H1300 H 0.17807 0.20709 0.18632 0.0
H1301 H 0.17177 0.21206 0.31797 0.0
C1302 C 0.17204 0.19336 0.43263 0.0
C1303 C 0.17309 0.18255 0.48703 0.0
C1304 C 0.17432 0.19042 0.35571 0.0
C1305 C 0.17547 0.16859 0.46301 0.0
C1306 C 0.17762 0.16556 0.38662 0.0
C1307 C 0.18092 0.17368 0.25725 0.0
C1308 C 0.1813 0.18467 0.20394 0.0
C1309 C 0.17746 0.17645 0.33289 0.0
C1310 C 0.17765 0.19843 0.22626 0.0
C1311 C 0.17416 0.20128 0.30162 0.0
H1312 H 0.5866 0.43106 0.00586 0.0
H1313 H 0.54286 0.43724 0.9469 0.0
H1314 H 0.53584 0.43276 0.07806 0.0
H1315 H 0.54236 0.42866 0.21101 0.0
H1316 H 0.58613 0.42178 0.26917 0.0
H1317 H 0.59289 0.42473 0.13683 0.0
C1318 C 0.57554 0.43131 0.02193 0.0
C1319 C 0.56525 0.43446 0.96729 0.0
C1320 C 0.57159 0.4286 0.09717 0.0
C1321 C 0.55093 0.43468 0.9881 0.0
C1322 C 0.54693 0.43219 0.06307 0.0
C1323 C 0.55336 0.42763 0.19458 0.0
C1324 C 0.56372 0.42515 0.25005 0.0
C1325 C 0.55719 0.42933 0.1183 0.0
C1326 C 0.57792 0.42371 0.22771 0.0
C1327 C 0.58182 0.42548 0.15205 0.0
H1328 H 0.30893 0.82385 0.98964 0.0
H1329 H 0.35155 0.80846 0.96405 0.0
H1330 H 0.34926 0.8098 0.82591 0.0
H1331 H 0.3351 0.81581 0.71246 0.0
H1332 H 0.29201 0.8299 0.74158 0.0
H1333 H 0.29464 0.82872 0.87812 0.0
C1334 C 0.31778 0.82085 0.954 0.0
C1335 C 0.33044 0.81619 0.98721 0.0
C1336 C 0.31628 0.82137 0.87503 0.0
C1337 C 0.3417 0.81214 0.93995 0.0
C1338 C 0.34038 0.81288 0.86094 0.0
C1339 C 0.32617 0.81828 0.74831 0.0
C1340 C 0.31331 0.82278 0.71598 0.0
C1341 C 0.32768 0.81746 0.82771 0.0
C1342 C 0.30205 0.82642 0.76436 0.0
C1343 C 0.30352 0.82575 0.84274 0.0
H1344 H 0.55294 0.0671 0.94409 0.0
H1345 H 0.59804 0.07313 0.95671 0.0
H1346 H 0.59646 0.07648 0.09345 0.0
H1347 H 0.58251 0.07614 0.21064 0.0
H1348 H 0.53747 0.06938 0.19869 0.0
H1349 H 0.53875 0.06816 0.06088 0.0
C1350 C 0.56236 0.0695 0.97649 0.0
C1351 C 0.57556 0.07 0.94013 0.0
C1352 C 0.56141 0.0712 0.05552 0.0
C1353 C 0.58774 0.07268 0.9834 0.0
C1354 C 0.58685 0.0746 0.06163 0.0
C1355 C 0.57295 0.07458 0.17789 0.0
C1356 C 0.55994 0.07278 0.21517 0.0
C1357 C 0.57378 0.07365 0.09853 0.0
C1358 C 0.54766 0.07072 0.17165 0.0
C1359 C 0.54837 0.07 0.09269 0.0
H1360 H 0.19537 0.3295 0.27086 0.0
H1361 H 0.15478 0.31318 0.2038 0.0
H1362 H 0.1493 0.30733 0.33591 0.0
H1363 H 0.1562 0.30722 0.47109 0.0
H1364 H 0.19683 0.32444 0.53447 0.0
H1365 H 0.20208 0.32965 0.40328 0.0
C1366 C 0.18532 0.32468 0.28534 0.0
C1367 C 0.17561 0.32147 0.22831 0.0
C1368 C 0.18224 0.32155 0.36069 0.0
C1369 C 0.16257 0.31533 0.24716 0.0
C1370 C 0.15941 0.3121 0.32252 0.0
C1371 C 0.1662 0.31206 0.45594 0.0
C1372 C 0.17606 0.31544 0.51246 0.0
C1373 C 0.1692 0.31515 0.37986 0.0
C1374 C 0.18897 0.32178 0.49219 0.0
C1375 C 0.19204 0.32477 0.41711 0.0
H1376 H 0.93817 0.91462 0.43233 0.0
H1377 H 0.91753 0.95486 0.46443 0.0
H1378 H 0.91883 0.95194 0.60104 0.0
H1379 H 0.92572 0.93816 0.71173 0.0
H1380 H 0.94735 0.89841 0.68264 0.0
H1381 H 0.94591 0.90103 0.54481 0.0
C1382 C 0.93429 0.92292 0.46899 0.0
C1383 C 0.92796 0.93507 0.43754 0.0
C1384 C 0.93513 0.92122 0.54829 0.0
C1385 C 0.92248 0.94542 0.48667 0.0
C1386 C 0.92321 0.94377 0.56503 0.0
C1387 C 0.93007 0.93 0.67541 0.0
C1388 C 0.93655 0.91805 0.7077 0.0
C1389 C 0.92944 0.9317 0.59648 0.0
C1390 C 0.94227 0.9077 0.65943 0.0
C1391 C 0.94147 0.90921 0.58054 0.0
H1392 H 0.3041 0.67388 0.77981 0.0
H1393 H 0.34648 0.68508 0.7141 0.0
H1394 H 0.35225 0.69087 0.84591 0.0
H1395 H 0.34516 0.69211 0.98079 0.0
H1396 H 0.30271 0.67992 0.04307 0.0
H1397 H 0.29708 0.67511 0.91178 0.0
C1398 C 0.31459 0.67761 0.79452 0.0
C1399 C 0.32477 0.67935 0.73793 0.0
C1400 C 0.31783 0.68069 0.86976 0.0
C1401 C 0.33837 0.68407 0.75705 0.0
C1402 C 0.34169 0.68726 0.83227 0.0
C1403 C 0.33469 0.68849 0.96531 0.0
C1404 C 0.32442 0.68633 0.02156 0.0
C1405 C 0.33148 0.68559 0.88923 0.0
C1406 C 0.31087 0.68156 0.00096 0.0
C1407 C 0.3076 0.67882 0.92584 0.0
H1408 H 0.58013 0.94532 0.97363 0.0
H1409 H 0.55809 0.90741 0.03956 0.0
H1410 H 0.55306 0.90209 0.90646 0.0
H1411 H 0.55537 0.90829 0.77082 0.0
H1412 H 0.57875 0.94584 0.70927 0.0
H1413 H 0.58299 0.95108 0.8413 0.0
C1414 C 0.57422 0.93589 0.95883 0.0
C1415 C 0.56917 0.92697 0.01575 0.0
C1416 C 0.57171 0.93278 0.88302 0.0
C1417 C 0.56163 0.91471 0.99633 0.0
C1418 C 0.55891 0.91158 0.92038 0.0
C1419 C 0.56138 0.91759 0.78655 0.0
C1420 C 0.56671 0.92663 0.73035 0.0
C1421 C 0.56392 0.92057 0.86316 0.0
C1422 C 0.57456 0.93864 0.75131 0.0
C1423 C 0.57698 0.94171 0.82687 0.0
H1424 H 0.30463 0.32903 0.26067 0.0
H1425 H 0.34427 0.311 0.33184 0.0
H1426 H 0.35043 0.30591 0.19983 0.0
H1427 H 0.34443 0.30699 0.06344 0.0
H1428 H 0.30503 0.32643 0.99633 0.0
H1429 H 0.299 0.33072 0.12741 0.0
C1430 C 0.31462 0.32398 0.24719 0.0
C1431 C 0.3238 0.32002 0.30533 0.0
C1432 C 0.31817 0.32143 0.1719 0.0
C1433 C 0.33679 0.31364 0.28766 0.0
C1434 C 0.34038 0.31089 0.21232 0.0
C1435 C 0.33456 0.31215 0.07779 0.0
C1436 C 0.32524 0.31638 0.02028 0.0
C1437 C 0.33112 0.31474 0.15386 0.0
C1438 C 0.31247 0.32313 0.03942 0.0
C1439 C 0.30895 0.32557 0.11443 0.0
H1440 H 0.91333 0.07124 0.51107 0.0
H1441 H 0.95597 0.05828 0.56101 0.0
H1442 H 0.96266 0.06179 0.42845 0.0
H1443 H 0.95591 0.06708 0.29726 0.0
H1444 H 0.91324 0.08036 0.24791 0.0
H1445 H 0.90708 0.0784 0.38159 0.0
C1446 C 0.92409 0.06928 0.49272 0.0
C1447 C 0.93417 0.06454 0.54513 0.0
C1448 C 0.92784 0.07138 0.41677 0.0
C1449 C 0.94811 0.0621 0.52144 0.0
C1450 C 0.9519 0.06403 0.44574 0.0
C1451 C 0.94531 0.0697 0.31585 0.0
C1452 C 0.93502 0.07371 0.26259 0.0
C1453 C 0.94181 0.0685 0.39275 0.0
C1454 C 0.92136 0.0772 0.28768 0.0
C1455 C 0.91779 0.07602 0.36408 0.0
H1456 H 0.1763 0.67024 0.51114 0.0
H1457 H 0.18557 0.71468 0.53418 0.0
H1458 H 0.18665 0.71213 0.67162 0.0
H1459 H 0.18662 0.69695 0.7851 0.0
H1460 H 0.17809 0.65241 0.76133 0.0
H1461 H 0.17518 0.65532 0.62484 0.0
C1462 C 0.17841 0.67941 0.54619 0.0
C1463 C 0.18089 0.69263 0.51202 0.0
C1464 C 0.17925 0.67784 0.62536 0.0
C1465 C 0.18366 0.70436 0.55865 0.0
C1466 C 0.1843 0.70292 0.63743 0.0
C1467 C 0.18378 0.68795 0.75035 0.0
C1468 C 0.18239 0.67451 0.78368 0.0
C1469 C 0.18232 0.68966 0.67144 0.0
C1470 C 0.17919 0.66288 0.73719 0.0
C1471 C 0.17752 0.66453 0.65906 0.0
H1472 H 0.41648 0.94285 0.0392 0.0
H1473 H 0.45074 0.91633 0.11581 0.0
H1474 H 0.45636 0.91018 0.98573 0.0
H1475 H 0.45135 0.91217 0.84886 0.0
H1476 H 0.41497 0.93616 0.77625 0.0
H1477 H 0.41007 0.94295 0.90621 0.0
C1478 C 0.42522 0.93574 0.02773 0.0
C1479 C 0.43363 0.93074 0.08741 0.0
C1480 C 0.42784 0.93152 0.95326 0.0
C1481 C 0.44465 0.92122 0.07127 0.0
C1482 C 0.44769 0.91738 0.99664 0.0
C1483 C 0.4423 0.91878 0.86182 0.0
C1484 C 0.4336 0.9237 0.80315 0.0
C1485 C 0.43936 0.92251 0.93711 0.0
C1486 C 0.42181 0.93215 0.82047 0.0
C1487 C 0.41904 0.93615 0.89473 0.0
H1488 H 0.81675 0.69845 0.73607 0.0
H1489 H 0.81445 0.65304 0.72011 0.0
H1490 H 0.81881 0.65428 0.58411 0.0
H1491 H 0.82174 0.6683 0.46797 0.0
H1492 H 0.82326 0.71378 0.48308 0.0
H1493 H 0.82107 0.71244 0.62058 0.0
C1494 C 0.81754 0.68882 0.70321 0.0
C1495 C 0.8154 0.67567 0.73857 0.0
C1496 C 0.81986 0.68961 0.62443 0.0
C1497 C 0.81604 0.66331 0.69439 0.0
C1498 C 0.81855 0.664 0.61651 0.0
C1499 C 0.8218 0.67791 0.50138 0.0
C1500 C 0.82262 0.69112 0.46492 0.0
C1501 C 0.82025 0.6771 0.58061 0.0
C1502 C 0.82258 0.70346 0.50938 0.0
C1503 C 0.8213 0.70272 0.5882 0.0
H1504 H 0.08612 0.07541 0.57415 0.0
H1505 H 0.04311 0.06378 0.62462 0.0
H1506 H 0.03651 0.06747 0.49211 0.0
H1507 H 0.04341 0.07246 0.36075 0.0
H1508 H 0.08646 0.08439 0.31092 0.0
H1509 H 0.09257 0.08234 0.4446 0.0
C1510 C 0.07529 0.07379 0.55593 0.0
C1511 C 0.0651 0.06935 0.60846 0.0
C1512 C 0.0716 0.07599 0.48002 0.0
C1513 C 0.05108 0.06735 0.58496 0.0
C1514 C 0.04733 0.06939 0.50928 0.0
C1515 C 0.05409 0.07477 0.37924 0.0
C1516 C 0.06449 0.07841 0.32584 0.0
C1517 C 0.05755 0.07352 0.45615 0.0
C1518 C 0.07825 0.08152 0.35079 0.0
C1519 C 0.08178 0.08028 0.42719 0.0
H1520 H 0.68107 0.29383 0.04298 0.0
H1521 H 0.67185 0.33735 0.98868 0.0
H1522 H 0.67476 0.3439 0.12137 0.0
H1523 H 0.68159 0.33754 0.25156 0.0
H1524 H 0.69015 0.29401 0.30652 0.0
H1525 H 0.68585 0.28716 0.17495 0.0
C1526 C 0.67954 0.30472 0.06031 0.0
C1527 C 0.67639 0.31509 0.00586 0.0
C1528 C 0.68123 0.30843 0.13673 0.0
C1529 C 0.67429 0.32914 0.02937 0.0
C1530 C 0.67604 0.33292 0.10521 0.0
C1531 C 0.68243 0.32656 0.2345 0.0
C1532 C 0.68617 0.31628 0.28812 0.0
C1533 C 0.6798 0.32271 0.15906 0.0
C1534 C 0.68713 0.30206 0.26606 0.0
C1535 C 0.68474 0.29817 0.1909 0.0
H1536 H 0.43807 0.0976 0.19986 0.0
H1537 H 0.43627 0.05388 0.26931 0.0
H1538 H 0.43309 0.04648 0.13887 0.0
H1539 H 0.43008 0.05225 0.00588 0.0
H1540 H 0.43003 0.09574 0.93386 0.0
H1541 H 0.43483 0.10343 0.06386 0.0
C1542 C 0.43709 0.08648 0.186 0.0
C1543 C 0.43735 0.07633 0.24397 0.0
C1544 C 0.43497 0.08225 0.11049 0.0
C1545 C 0.43595 0.06193 0.22568 0.0
C1546 C 0.43417 0.05766 0.15111 0.0
C1547 C 0.43118 0.06341 0.0187 0.0
C1548 C 0.43014 0.07338 0.96051 0.0
C1549 C 0.43352 0.06771 0.0933 0.0
C1550 C 0.43138 0.08783 0.97757 0.0
C1551 C 0.43394 0.09223 0.05196 0.0
H1552 H 0.65599 0.69186 0.98216 0.0
H1553 H 0.69777 0.67959 0.0552 0.0
H1554 H 0.7053 0.67692 0.92469 0.0
H1555 H 0.70021 0.67794 0.79079 0.0
H1556 H 0.65802 0.68769 0.71441 0.0
H1557 H 0.65054 0.69173 0.84472 0.0
C1558 C 0.66671 0.68862 0.96904 0.0
C1559 C 0.67628 0.68588 0.02782 0.0
C1560 C 0.67095 0.6868 0.89343 0.0
C1561 C 0.69015 0.6816 0.01072 0.0
C1562 C 0.69451 0.68013 0.93617 0.0
C1563 C 0.68935 0.68094 0.80241 0.0
C1564 C 0.67986 0.68298 0.74262 0.0
C1565 C 0.685 0.68266 0.87726 0.0
C1566 C 0.66579 0.68671 0.75884 0.0
C1567 C 0.66142 0.68881 0.83365 0.0
H1568 H 0.07284 0.95098 0.52536 0.0
H1569 H 0.06917 0.90783 0.45029 0.0
H1570 H 0.06519 0.90005 0.58098 0.0
H1571 H 0.0636 0.90568 0.71805 0.0
H1572 H 0.06899 0.94902 0.78945 0.0
H1573 H 0.07157 0.95652 0.65907 0.0
C1574 C 0.07111 0.93988 0.53768 0.0
C1575 C 0.07089 0.93005 0.47866 0.0
C1576 C 0.06925 0.9355 0.61244 0.0
C1577 C 0.06883 0.91566 0.49494 0.0
C1578 C 0.06673 0.9112 0.56963 0.0
C1579 C 0.06528 0.91674 0.70468 0.0
C1580 C 0.06619 0.92673 0.76321 0.0
C1581 C 0.06698 0.92104 0.62902 0.0
C1582 C 0.06842 0.94106 0.74546 0.0
C1583 C 0.06985 0.94541 0.67088 0.0
H1584 H 0.81136 0.32252 0.49088 0.0
H1585 H 0.85376 0.30704 0.45784 0.0
H1586 H 0.85103 0.30944 0.32042 0.0
H1587 H 0.83655 0.31628 0.20984 0.0
H1588 H 0.79361 0.3303 0.24549 0.0
H1589 H 0.79675 0.32836 0.38141 0.0
C1590 C 0.82006 0.31973 0.45378 0.0
C1591 C 0.83279 0.31469 0.48486 0.0
C1592 C 0.81831 0.32087 0.37498 0.0
C1593 C 0.84385 0.31096 0.43558 0.0
C1594 C 0.84228 0.31233 0.35691 0.0
C1595 C 0.82773 0.31856 0.24667 0.0
C1596 C 0.81475 0.32323 0.21612 0.0
C1597 C 0.82951 0.31723 0.3258 0.0
C1598 C 0.80373 0.32669 0.26648 0.0
C1599 C 0.80548 0.32556 0.34465 0.0
H1600 H 0.15428 0.62928 0.11275 0.0
H1601 H 0.12965 0.65603 0.25972 0.0
H1602 H 0.11026 0.63893 0.25741 0.0
H1603 H 0.09999 0.61665 0.2096 0.0
H1604 H 0.12402 0.59085 0.05544 0.0
H1605 H 0.14391 0.60736 0.06309 0.0
C1606 C 0.14462 0.63138 0.1438 0.0
C1607 C 0.14338 0.64384 0.1865 0.0
C1608 C 0.13341 0.62171 0.14043 0.0
C1609 C 0.13091 0.64639 0.22733 0.0
C1610 C 0.11979 0.63668 0.22557 0.0
C1611 C 0.10964 0.61469 0.17814 0.0
C1612 C 0.11068 0.60264 0.13224 0.0
C1613 C 0.12089 0.62434 0.18193 0.0
C1614 C 0.12309 0.60013 0.09098 0.0
C1615 C 0.13442 0.60954 0.09544 0.0
H1616 H 0.61882 0.90417 0.31203 0.0
H1617 H 0.59732 0.88094 0.4875 0.0
H1618 H 0.61453 0.86172 0.47607 0.0
H1619 H 0.63514 0.85112 0.41182 0.0
H1620 H 0.65593 0.87404 0.23282 0.0
H1621 H 0.63934 0.89368 0.24828 0.0
C1622 C 0.61789 0.89486 0.34753 0.0
C1623 C 0.60686 0.89393 0.40052 0.0
C1624 C 0.62759 0.88377 0.33925 0.0
C1625 C 0.60585 0.88194 0.44699 0.0
C1626 C 0.61561 0.87092 0.43999 0.0
C1627 C 0.63603 0.86047 0.37663 0.0
C1628 C 0.64665 0.8612 0.32117 0.0
C1629 C 0.62644 0.87166 0.3858 0.0
C1630 C 0.64772 0.87326 0.27534 0.0
C1631 C 0.63829 0.88448 0.28443 0.0
H1632 H 0.346 0.36982 0.6055 0.0
H1633 H 0.37157 0.34639 0.76358 0.0
H1634 H 0.39077 0.36354 0.74853 0.0
H1635 H 0.4006 0.38468 0.68575 0.0
H1636 H 0.37516 0.40764 0.52519 0.0
H1637 H 0.35567 0.39099 0.54397 0.0
C1638 C 0.3558 0.36849 0.63653 0.0
C1639 C 0.35742 0.35691 0.68553 0.0
C1640 C 0.36684 0.37818 0.62625 0.0
C1641 C 0.37006 0.35534 0.72621 0.0
C1642 C 0.38106 0.36506 0.71709 0.0
C1643 C 0.39074 0.38602 0.65534 0.0
C1644 C 0.38925 0.39728 0.60409 0.0
C1645 C 0.37961 0.37644 0.66667 0.0
C1646 C 0.37653 0.39894 0.56436 0.0
C1647 C 0.36539 0.38948 0.57541 0.0
H1648 H 0.8816 0.09671 0.81443 0.0
H1649 H 0.90611 0.12288 0.96486 0.0
H1650 H 0.89017 0.14275 0.94187 0.0
H1651 H 0.86916 0.15265 0.87908 0.0
H1652 H 0.84527 0.12694 0.72404 0.0
H1653 H 0.8613 0.10699 0.74652 0.0
C1654 C 0.8835 0.10681 0.84155 0.0
C1655 C 0.89492 0.10832 0.89177 0.0
C1656 C 0.87449 0.11827 0.82654 0.0
C1657 C 0.89722 0.1214 0.92712 0.0
C1658 C 0.88819 0.13279 0.91347 0.0
C1659 C 0.86756 0.14267 0.85011 0.0
C1660 C 0.85612 0.14114 0.8003 0.0
C1661 C 0.87679 0.13133 0.86343 0.0
C1662 C 0.8541 0.12828 0.76239 0.0
C1663 C 0.86319 0.11689 0.77559 0.0
H1664 H 0.15278 0.36982 0.91245 0.0
H1665 H 0.12975 0.34488 0.74986 0.0
H1666 H 0.11039 0.36203 0.75179 0.0
H1667 H 0.09978 0.3839 0.80246 0.0
H1668 H 0.12245 0.40828 0.96864 0.0
H1669 H 0.14208 0.39141 0.96437 0.0
C1670 C 0.14347 0.36812 0.87784 0.0
C1671 C 0.14267 0.35616 0.83096 0.0
C1672 C 0.13229 0.37784 0.88059 0.0
C1673 C 0.13066 0.35413 0.78559 0.0
C1674 C 0.11956 0.36387 0.78716 0.0
C1675 C 0.10905 0.38546 0.83754 0.0
C1676 C 0.10976 0.39721 0.88593 0.0
C1677 C 0.12023 0.37572 0.83473 0.0
C1678 C 0.12172 0.3992 0.93152 0.0
C1679 C 0.13293 0.38961 0.92879 0.0
H1680 H 0.88259 0.90221 0.14986 0.0
H1681 H 0.9059 0.87639 0.99229 0.0
H1682 H 0.88969 0.85669 0.01486 0.0
H1683 H 0.86906 0.8467 0.08137 0.0
H1684 H 0.84644 0.87217 0.24309 0.0
H1685 H 0.86249 0.89202 0.21925 0.0
C1686 C 0.88416 0.89222 0.12093 0.0
C1687 C 0.89537 0.89075 0.06929 0.0
C1688 C 0.87505 0.88086 0.13582 0.0
C1689 C 0.89721 0.87784 0.03135 0.0
C1690 C 0.88803 0.86654 0.04482 0.0
C1691 C 0.86773 0.85662 0.11137 0.0
C1692 C 0.85666 0.85808 0.16377 0.0
C1693 C 0.87696 0.86792 0.09715 0.0
C1694 C 0.85499 0.87086 0.20289 0.0
C1695 C 0.86408 0.8822 0.18889 0.0
H1696 H 0.34825 0.63069 0.41518 0.0
H1697 H 0.37184 0.65798 0.26626 0.0
H1698 H 0.39178 0.6415 0.2686 0.0
H1699 H 0.40272 0.61953 0.31605 0.0
H1700 H 0.37927 0.59255 0.46703 0.0
H1701 H 0.35915 0.60882 0.46266 0.0
C1702 C 0.3578 0.63302 0.38354 0.0
C1703 C 0.35863 0.64548 0.34059 0.0
C1704 C 0.36926 0.62362 0.38624 0.0
C1705 C 0.37094 0.64835 0.29906 0.0
C1706 C 0.38236 0.63899 0.30083 0.0
C1707 C 0.39315 0.61725 0.34762 0.0
C1708 C 0.39237 0.60494 0.39175 0.0
C1709 C 0.38166 0.62663 0.34455 0.0
C1710 C 0.38005 0.60206 0.43309 0.0
C1711 C 0.36856 0.61131 0.43032 0.0
H1712 H 0.62076 0.09668 0.6436 0.0
H1713 H 0.59844 0.12217 0.48058 0.0
H1714 H 0.61515 0.14157 0.50073 0.0
H1715 H 0.63545 0.15165 0.56976 0.0
H1716 H 0.65702 0.12646 0.73687 0.0
H1717 H 0.64101 0.10667 0.71209 0.0
C1718 C 0.61956 0.10651 0.61267 0.0
C1719 C 0.60842 0.10803 0.56079 0.0
C1720 C 0.62893 0.1177 0.62624 0.0
C1721 C 0.60706 0.12071 0.52014 0.0
C1722 C 0.61651 0.13183 0.53221 0.0
C1723 C 0.63663 0.14178 0.60035 0.0
C1724 C 0.6473 0.14044 0.65511 0.0
C1725 C 0.62738 0.1305 0.58579 0.0
C1726 C 0.64875 0.12771 0.695 0.0
C1727 C 0.63967 0.1164 0.68053 0.0
H1728 H 0.86749 0.34984 0.92409 0.0
H1729 H 0.84506 0.37244 0.74985 0.0
H1730 H 0.86138 0.3924 0.76228 0.0
H1731 H 0.88191 0.40343 0.82371 0.0
H1732 H 0.90497 0.38047 0.99439 0.0
H1733 H 0.88834 0.36077 0.98418 0.0
C1734 C 0.86622 0.35918 0.88912 0.0
C1735 C 0.85517 0.35977 0.83621 0.0
C1736 C 0.87564 0.37055 0.89661 0.0
C1737 C 0.85359 0.3718 0.79059 0.0
C1738 C 0.86286 0.3832 0.79795 0.0
C1739 C 0.88332 0.39407 0.85828 0.0
C1740 C 0.89458 0.3934 0.90996 0.0
C1741 C 0.87392 0.38269 0.8508 0.0
C1742 C 0.89623 0.38131 0.95512 0.0
C1743 C 0.8868 0.37 0.94881 0.0
H1744 H 0.38022 0.09932 0.50838 0.0
H1745 H 0.40913 0.12039 0.65895 0.0
H1746 H 0.39251 0.14006 0.67362 0.0
H1747 H 0.36957 0.15104 0.64484 0.0
H1748 H 0.34011 0.12942 0.49937 0.0
H1749 H 0.35712 0.11026 0.48038 0.0
C1750 C 0.38285 0.10831 0.54378 0.0
C1751 C 0.3958 0.10857 0.58232 0.0
C1752 C 0.37316 0.11943 0.55276 0.0
C1753 C 0.39916 0.12009 0.62884 0.0
C1754 C 0.38968 0.13129 0.63723 0.0
C1755 C 0.36688 0.14207 0.60945 0.0
C1756 C 0.35367 0.1416 0.57344 0.0
C1757 C 0.37661 0.13102 0.59988 0.0
C1758 C 0.35031 0.13004 0.52698 0.0
C1759 C 0.36 0.11908 0.51639 0.0
H1760 H 0.60154 0.62087 0.46106 0.0
H1761 H 0.6218 0.59049 0.31524 0.0
H1762 H 0.64078 0.6073 0.28841 0.0
H1763 H 0.65196 0.63052 0.30916 0.0
H1764 H 0.63229 0.66045 0.45953 0.0
H1765 H 0.61279 0.64398 0.48265 0.0
C1766 C 0.61019 0.61792 0.42403 0.0
C1767 C 0.61033 0.6045 0.39025 0.0
C1768 C 0.62115 0.62757 0.40977 0.0
C1769 C 0.62145 0.60084 0.34137 0.0
C1770 C 0.63232 0.61041 0.32624 0.0
C1771 C 0.64332 0.6334 0.34645 0.0
C1772 C 0.64343 0.64659 0.38257 0.0
C1773 C 0.6323 0.6238 0.36025 0.0
C1774 C 0.63233 0.65028 0.43138 0.0
C1775 C 0.62122 0.64089 0.44458 0.0
H1776 H 0.15345 0.87313 0.166 0.0
H1777 H 0.12925 0.84119 0.05076 0.0
H1778 H 0.10997 0.85807 0.03016 0.0
H1779 H 0.09981 0.88187 0.04814 0.0
H1780 H 0.12423 0.91383 0.16221 0.0
H1781 H 0.14365 0.89709 0.18026 0.0
C1782 C 0.14392 0.86993 0.13654 0.0
C1783 C 0.14265 0.85603 0.11 0.0
C1784 C 0.13297 0.8797 0.12476 0.0
C1785 C 0.13037 0.85191 0.07139 0.0
C1786 C 0.11939 0.86153 0.05971 0.0
C1787 C 0.10947 0.88514 0.07614 0.0
C1788 C 0.11064 0.89896 0.10424 0.0
C1789 C 0.12055 0.87545 0.08633 0.0
C1790 C 0.12312 0.90316 0.14082 0.0
C1791 C 0.13419 0.89361 0.1511 0.0
H1792 H 0.87843 0.59798 0.0406 0.0
H1793 H 0.90985 0.62131 0.16477 0.0
H1794 H 0.89295 0.64051 0.18667 0.0
H1795 H 0.86912 0.65061 0.17025 0.0
H1796 H 0.83747 0.62687 0.04972 0.0
H1797 H 0.85445 0.60785 0.02661 0.0
C1798 C 0.88152 0.60735 0.07187 0.0
C1799 C 0.89528 0.6084 0.1007 0.0
C1800 C 0.87169 0.61818 0.08521 0.0
C1801 C 0.89926 0.62042 0.14197 0.0
C1802 C 0.88961 0.63133 0.15464 0.0
C1803 C 0.86596 0.64118 0.13969 0.0
C1804 C 0.85214 0.64009 0.11144 0.0
C1805 C 0.87577 0.6303 0.12684 0.0
C1806 C 0.84812 0.62793 0.07139 0.0
C1807 C 0.85781 0.61708 0.05817 0.0
H1808 H 0.13461 0.15389 0.93643 0.0
H1809 H 0.15662 0.12609 0.78357 0.0
H1810 H 0.13961 0.10719 0.81034 0.0
H1811 H 0.11871 0.09856 0.87915 0.0
H1812 H 0.09599 0.12677 0.02714 0.0
H1813 H 0.11323 0.14547 0.00223 0.0
C1814 C 0.13562 0.14367 0.90917 0.0
C1815 C 0.14677 0.14127 0.85835 0.0
C1816 C 0.12579 0.13294 0.92467 0.0
C1817 C 0.14802 0.1281 0.82261 0.0
C1818 C 0.13836 0.11732 0.83817 0.0
C1819 C 0.11749 0.10885 0.90539 0.0
C1820 C 0.10616 0.1113 0.95509 0.0
C1821 C 0.12723 0.11962 0.88928 0.0
C1822 C 0.10477 0.12459 0.98956 0.0
C1823 C 0.11455 0.1353 0.97486 0.0
H1824 H 0.62112 0.40163 0.55649 0.0
H1825 H 0.58955 0.38024 0.6894 0.0
H1826 H 0.6061 0.36087 0.71511 0.0
H1827 H 0.62958 0.35002 0.69848 0.0
H1828 H 0.66165 0.37228 0.57277 0.0
H1829 H 0.64495 0.3913 0.54489 0.0
C1830 C 0.61794 0.39267 0.59081 0.0
C1831 C 0.60423 0.39216 0.62069 0.0
C1832 C 0.62759 0.38179 0.60649 0.0
C1833 C 0.60011 0.38069 0.66581 0.0
C1834 C 0.60955 0.36968 0.6805 0.0
C1835 C 0.63292 0.35913 0.66578 0.0
C1836 C 0.64675 0.35974 0.63718 0.0
C1837 C 0.62333 0.37013 0.65121 0.0
C1838 C 0.65096 0.37152 0.59436 0.0
C1839 C 0.64145 0.3824 0.57865 0.0
H1840 H 0.38225 0.90252 0.35705 0.0
H1841 H 0.40537 0.87563 0.5101 0.0
H1842 H 0.38885 0.85625 0.48545 0.0
H1843 H 0.36773 0.84704 0.42039 0.0
H1844 H 0.34471 0.87392 0.26704 0.0
H1845 H 0.36154 0.89314 0.28958 0.0
C1846 C 0.38369 0.89238 0.38456 0.0
C1847 C 0.3949 0.89049 0.43575 0.0
C1848 C 0.37428 0.88129 0.36934 0.0
C1849 C 0.39665 0.87737 0.47153 0.0
C1850 C 0.38729 0.86628 0.45697 0.0
C1851 C 0.36647 0.85713 0.39197 0.0
C1852 C 0.35506 0.85917 0.34236 0.0
C1853 C 0.37605 0.86813 0.4061 0.0
C1854 C 0.35351 0.87216 0.3051 0.0
C1855 C 0.36305 0.88314 0.31838 0.0
H1856 H 0.07712 0.47344 0.04746 0.0
H1857 H 0.07461 0.48354 0.80945 0.0
H1858 H 0.07554 0.50876 0.83955 0.0
H1859 H 0.07545 0.52786 0.93405 0.0
H1860 H 0.07775 0.51747 0.17195 0.0
H1861 H 0.07858 0.49239 0.14089 0.0
C1862 C 0.07686 0.48113 0.00192 0.0
C1863 C 0.07565 0.47658 0.92628 0.0
C1864 C 0.0773 0.49556 0.01962 0.0
C1865 C 0.0755 0.48673 0.86815 0.0
C1866 C 0.07598 0.50115 0.88536 0.0
C1867 C 0.07625 0.52014 0.97919 0.0
C1868 C 0.0764 0.52459 0.05535 0.0
C1869 C 0.07663 0.50569 0.961 0.0
C1870 C 0.07754 0.51439 0.1129 0.0
C1871 C 0.078 0.50002 0.09522 0.0
H1872 H 0.7317 0.82484 0.36084 0.0
H1873 H 0.72149 0.8256 0.12255 0.0
H1874 H 0.74653 0.82576 0.09073 0.0
H1875 H 0.77135 0.82432 0.12993 0.0
H1876 H 0.78156 0.82327 0.36819 0.0
H1877 H 0.75657 0.82466 0.40014 0.0
C1878 C 0.73494 0.82516 0.30195 0.0
C1879 C 0.72468 0.82511 0.24435 0.0
C1880 C 0.7494 0.82513 0.28378 0.0
C1881 C 0.72912 0.82557 0.16827 0.0
C1882 C 0.74346 0.82564 0.14986 0.0
C1883 C 0.76813 0.82449 0.18887 0.0
C1884 C 0.77837 0.82358 0.24638 0.0
C1885 C 0.7537 0.8252 0.20709 0.0
C1886 C 0.77395 0.82388 0.32251 0.0
C1887 C 0.75963 0.82467 0.341 0.0
H1888 H 0.42695 0.52708 0.55362 0.0
H1889 H 0.42587 0.52091 0.3114 0.0
H1890 H 0.42426 0.4954 0.32971 0.0
H1891 H 0.42455 0.4748 0.41409 0.0
H1892 H 0.42597 0.48104 0.65625 0.0
H1893 H 0.42596 0.50658 0.63801 0.0
C1894 C 0.42628 0.52019 0.5047 0.0
C1895 C 0.42665 0.52595 0.43121 0.0
C1896 C 0.42546 0.50552 0.51554 0.0
C1897 C 0.42567 0.51681 0.36864 0.0
C1898 C 0.42477 0.5022 0.37902 0.0
C1899 C 0.42474 0.48173 0.463 0.0
C1900 C 0.42536 0.47596 0.53643 0.0
C1901 C 0.42487 0.49643 0.45218 0.0
C1902 C 0.42555 0.48514 0.59904 0.0
C1903 C 0.42557 0.49977 0.58871 0.0
H1904 H 0.77204 0.17673 0.84912 0.0
H1905 H 0.78014 0.17818 0.60852 0.0
H1906 H 0.75486 0.17736 0.5832 0.0
H1907 H 0.73044 0.17739 0.62896 0.0
H1908 H 0.72222 0.17618 0.86943 0.0
H1909 H 0.74756 0.17565 0.89482 0.0
C1910 C 0.7683 0.17679 0.79109 0.0
C1911 C 0.77803 0.17762 0.73093 0.0
C1912 C 0.75371 0.17639 0.77676 0.0
C1913 C 0.77294 0.17761 0.65609 0.0
C1914 C 0.75846 0.17715 0.64144 0.0
C1915 C 0.73416 0.17692 0.68699 0.0
C1916 C 0.72439 0.17692 0.74713 0.0
C1917 C 0.74874 0.17672 0.70132 0.0
C1918 C 0.72946 0.17624 0.82192 0.0
C1919 C 0.74397 0.17596 0.83658 0.0
H1920 H 0.92521 0.47548 0.06646 0.0
H1921 H 0.92797 0.48019 0.82371 0.0
H1922 H 0.92745 0.50587 0.83728 0.0
H1923 H 0.92767 0.52699 0.91857 0.0
H1924 H 0.92523 0.52202 0.16138 0.0
H1925 H 0.92411 0.49646 0.14688 0.0
C1926 C 0.9256 0.48209 0.01632 0.0
C1927 C 0.92674 0.47586 0.94421 0.0
C1928 C 0.92542 0.49684 0.02449 0.0
C1929 C 0.92714 0.48466 0.88 0.0
C1930 C 0.92687 0.49936 0.88769 0.0
C1931 C 0.92677 0.52033 0.96833 0.0
C1932 C 0.92665 0.52647 0.04098 0.0
C1933 C 0.92624 0.50557 0.95975 0.0
C1934 C 0.92544 0.51764 0.10474 0.0
C1935 C 0.92481 0.50299 0.09658 0.0
H1936 H 0.22363 0.17471 0.64852 0.0
H1937 H 0.23177 0.17549 0.88911 0.0
H1938 H 0.25713 0.17481 0.86519 0.0
H1939 H 0.277 0.17547 0.7763 0.0
H1940 H 0.2689 0.17512 0.53566 0.0
H1941 H 0.24354 0.17406 0.55963 0.0
C1942 C 0.23093 0.17461 0.69584 0.0
C1943 C 0.22575 0.17526 0.7705 0.0
C1944 C 0.24553 0.17436 0.68177 0.0
C1945 C 0.23541 0.17507 0.83101 0.0
C1946 C 0.24995 0.1747 0.81743 0.0
C1947 C 0.26972 0.17505 0.72897 0.0
C1948 C 0.2749 0.17549 0.65427 0.0
C1949 C 0.25513 0.17458 0.74306 0.0
C1950 C 0.26525 0.17487 0.59378 0.0
C1951 C 0.25072 0.17428 0.60739 0.0
H1952 H 0.5771 0.48129 0.62394 0.0
H1953 H 0.5729 0.4682 0.39082 0.0
H1954 H 0.57381 0.49277 0.34975 0.0
H1955 H 0.57418 0.51812 0.38042 0.0
H1956 H 0.57816 0.53105 0.61399 0.0
H1957 H 0.57903 0.50647 0.65382 0.0
C1958 C 0.57652 0.48378 0.56408 0.0
C1959 C 0.57481 0.47287 0.51083 0.0
C1960 C 0.57692 0.49796 0.54066 0.0
C1961 C 0.57414 0.47635 0.43336 0.0
C1962 C 0.57463 0.49043 0.40965 0.0
C1963 C 0.57537 0.51557 0.43994 0.0
C1964 C 0.57596 0.52647 0.49395 0.0
C1965 C 0.57577 0.50134 0.46289 0.0
C1966 C 0.57756 0.52292 0.57094 0.0
C1967 C 0.57806 0.50884 0.594 0.0
H1968 H 0.27599 0.82475 0.15711 0.0
H1969 H 0.27019 0.82719 0.39937 0.0
H1970 H 0.24466 0.82838 0.38227 0.0
H1971 H 0.22396 0.82722 0.29955 0.0
H1972 H 0.22963 0.82421 0.05744 0.0
H1973 H 0.25523 0.82489 0.07375 0.0
C1974 C 0.26917 0.82566 0.20623 0.0
C1975 C 0.27505 0.82577 0.27946 0.0
C1976 C 0.25445 0.82619 0.19613 0.0
C1977 C 0.266 0.82699 0.34233 0.0
C1978 C 0.25137 0.82767 0.33266 0.0
C1979 C 0.23077 0.82684 0.25016 0.0
C1980 C 0.22483 0.82556 0.1774 0.0
C1981 C 0.24548 0.82705 0.25993 0.0
C1982 C 0.23387 0.82513 0.11418 0.0
C1983 C 0.24853 0.82549 0.12343 0.0
H1984 H 0.57642 0.97593 0.54199 0.0
H1985 H 0.57283 0.97977 0.29914 0.0
H1986 H 0.57381 0.0055 0.30995 0.0
H1987 H 0.57416 0.02689 0.38911 0.0
H1988 H 0.57735 0.02276 0.63213 0.0
H1989 H 0.57811 0.99714 0.62009 0.0
C1990 C 0.57594 0.98235 0.4912 0.0
C1991 C 0.57443 0.97589 0.41989 0.0
C1992 C 0.57638 0.99711 0.49783 0.0
C1993 C 0.57394 0.98444 0.35481 0.0
C1994 C 0.57447 0.99917 0.36094 0.0
C1995 C 0.57515 0.02041 0.43946 0.0
C1996 C 0.57558 0.0268 0.51148 0.0
C1997 C 0.57545 0.00562 0.43229 0.0
C1998 C 0.5769 0.01818 0.57599 0.0
C1999 C 0.57733 0.0035 0.56923 0.0
H2000 H 0.22461 0.32566 0.69648 0.0
H2001 H 0.22976 0.32532 0.93943 0.0
H2002 H 0.25542 0.32615 0.92414 0.0
H2003 H 0.27631 0.32527 0.84187 0.0
H2004 H 0.27104 0.32519 0.59894 0.0
H2005 H 0.24544 0.3263 0.61448 0.0
C2006 C 0.23131 0.32587 0.74629 0.0
C2007 C 0.22523 0.32529 0.81906 0.0
C2008 C 0.24603 0.32619 0.7371 0.0
C2009 C 0.23412 0.32571 0.88276 0.0
C2010 C 0.2488 0.32614 0.87405 0.0
C2011 C 0.26959 0.3256 0.79219 0.0
C2012 C 0.27563 0.32501 0.71927 0.0
C2013 C 0.25487 0.32611 0.80149 0.0
C2014 C 0.26672 0.32556 0.6557 0.0
C2015 C 0.25206 0.32617 0.66452 0.0
H2016 H 0.92563 0.97976 0.10686 0.0
H2017 H 0.92332 0.96962 0.86871 0.0
H2018 H 0.92188 0.99461 0.83749 0.0
H2019 H 0.92295 0.0194 0.87642 0.0
H2020 H 0.92551 0.02973 0.11414 0.0
H2021 H 0.92504 0.00469 0.14643 0.0
C2022 C 0.92467 0.983 0.04818 0.0
C2023 C 0.92473 0.97277 0.99037 0.0
C2024 C 0.92395 0.99747 0.03025 0.0
C2025 C 0.92342 0.97722 0.91459 0.0
C2026 C 0.9226 0.99154 0.89648 0.0
C2027 C 0.92327 0.01621 0.93537 0.0
C2028 C 0.92439 0.02648 0.99255 0.0
C2029 C 0.92312 0.00177 0.95369 0.0
C2030 C 0.92471 0.02209 0.06871 0.0
C2031 C 0.92447 0.00774 0.08736 0.0
H2032 H 0.27664 0.67296 0.20386 0.0
H2033 H 0.27029 0.67586 0.44546 0.0
H2034 H 0.2447 0.67494 0.42688 0.0
H2035 H 0.22421 0.67518 0.34143 0.0
H2036 H 0.23077 0.67258 0.09974 0.0
H2037 H 0.25625 0.67144 0.11933 0.0
C2038 C 0.26969 0.67328 0.25268 0.0
C2039 C 0.2754 0.67464 0.32596 0.0
C2040 C 0.25502 0.67289 0.24156 0.0
C2041 C 0.2662 0.67486 0.38844 0.0
C2042 C 0.25156 0.67439 0.37783 0.0
C2043 C 0.23119 0.67425 0.29295 0.0
C2044 C 0.22554 0.67412 0.2191 0.0
C2045 C 0.24586 0.6737 0.30453 0.0
C2046 C 0.23478 0.67278 0.15716 0.0
C2047 C 0.24937 0.67215 0.16828 0.0
H2048 H 0.4244 0.01895 0.64495 0.0
H2049 H 0.42601 0.02929 0.40689 0.0
H2050 H 0.42488 0.00434 0.37445 0.0
H2051 H 0.42513 0.97949 0.41312 0.0
H2052 H 0.42386 0.969 0.65097 0.0
H2053 H 0.42304 0.99401 0.68348 0.0
C2054 C 0.42436 0.01576 0.58599 0.0
C2055 C 0.42543 0.02602 0.52868 0.0
C2056 C 0.42384 0.00132 0.5674 0.0
C2057 C 0.42531 0.02165 0.45245 0.0
C2058 C 0.42467 0.00736 0.43364 0.0
C2059 C 0.42453 0.98265 0.47206 0.0
C2060 C 0.42469 0.97234 0.52934 0.0
C2061 C 0.42421 0.99708 0.49061 0.0
C2062 C 0.42384 0.97668 0.60548 0.0
C2063 C 0.4234 0.99101 0.6243 0.0
H2064 H 0.72313 0.67606 0.18922 0.0
H2065 H 0.73265 0.67619 0.42837 0.0
H2066 H 0.75789 0.67528 0.39992 0.0
H2067 H 0.77722 0.67594 0.3074 0.0
H2068 H 0.76763 0.67615 0.0683 0.0
H2069 H 0.74241 0.67538 0.09687 0.0
C2070 C 0.73069 0.67578 0.23531 0.0
C2071 C 0.72595 0.6763 0.3109 0.0
C2072 C 0.74519 0.6754 0.21861 0.0
C2073 C 0.73596 0.67584 0.36969 0.0
C2074 C 0.75041 0.67536 0.35347 0.0
C2075 C 0.76964 0.67573 0.26137 0.0
C2076 C 0.77437 0.67622 0.18573 0.0
C2077 C 0.75514 0.67538 0.27815 0.0
C2078 C 0.76434 0.67585 0.12702 0.0
C2079 C 0.7499 0.67542 0.14329 0.0
H2080 H 0.07521 0.98402 0.16675 0.0
H2081 H 0.07589 0.97429 0.92781 0.0
H2082 H 0.07694 0.99933 0.89749 0.0
H2083 H 0.07609 0.02402 0.93774 0.0
H2084 H 0.07502 0.03401 0.17621 0.0
H2085 H 0.07585 0.00891 0.20734 0.0
C2086 C 0.07572 0.98737 0.10809 0.0
C2087 C 0.07533 0.97724 0.04982 0.0
C2088 C 0.0762 0.00187 0.0907 0.0
C2089 C 0.07605 0.98181 0.97403 0.0
C2090 C 0.07665 0.99616 0.95645 0.0
C2091 C 0.07617 0.02074 0.99659 0.0
C2092 C 0.07538 0.03093 0.05438 0.0
C2093 C 0.07648 0.00629 0.01422 0.0
C2094 C 0.07556 0.02643 0.13036 0.0
C2095 C 0.076 0.01205 0.14834 0.0
H2096 H 0.73207 0.32563 0.63031 0.0
H2097 H 0.71913 0.3239 0.86462 0.0
H2098 H 0.74376 0.32462 0.90473 0.0
H2099 H 0.76909 0.32427 0.87332 0.0
H2100 H 0.78185 0.32565 0.63859 0.0
H2101 H 0.75726 0.32662 0.59923 0.0
C2102 C 0.73461 0.32553 0.69019 0.0
C2103 C 0.72372 0.32461 0.74413 0.0
C2104 C 0.74882 0.32581 0.71307 0.0
C2105 C 0.72726 0.32454 0.82158 0.0
C2106 C 0.74137 0.32493 0.84474 0.0
C2107 C 0.7665 0.32491 0.81362 0.0
C2108 C 0.77736 0.32476 0.75921 0.0
C2109 C 0.75226 0.32534 0.79097 0.0
C2110 C 0.77376 0.32563 0.68197 0.0
C2111 C 0.75966 0.32618 0.65918 0.0
H2112 H 0.02434 0.58054 0.01334 0.0
H2113 H 0.02717 0.5658 0.24422 0.0
H2114 H 0.00154 0.5667 0.25597 0.0
H2115 H 0.97819 0.56978 0.19752 0.0
H2116 H 0.97545 0.5841 0.96583 0.0
H2117 H 0.00109 0.58533 0.95812 0.0
C2118 C 0.01938 0.57765 0.06651 0.0
C2119 C 0.02773 0.57302 0.12753 0.0
C2120 C 0.00459 0.57802 0.07275 0.0
C2121 C 0.02106 0.5694 0.19614 0.0
C2122 C 0.00637 0.56986 0.20294 0.0
C2123 C 0.98318 0.57335 0.14566 0.0
C2124 C 0.97486 0.57664 0.0821 0.0
C2125 C 0.998 0.57389 0.14115 0.0
C2126 C 0.98156 0.5813 0.01542 0.0
C2127 C 0.99625 0.58201 0.01085 0.0
H2128 H 0.67154 0.72767 0.23603 0.0
H2129 H 0.68248 0.72749 0.47345 0.0
H2130 H 0.68151 0.75323 0.47602 0.0
H2131 H 0.67938 0.77579 0.40891 0.0
H2132 H 0.66889 0.77599 0.17091 0.0
H2133 H 0.66773 0.75025 0.17108 0.0
C2134 C 0.6736 0.73323 0.28857 0.0
C2135 C 0.67723 0.72562 0.35419 0.0
C2136 C 0.67316 0.74806 0.2896 0.0
C2137 C 0.67974 0.73304 0.42187 0.0
C2138 C 0.67922 0.74779 0.42344 0.0
C2139 C 0.6767 0.77023 0.35715 0.0
C2140 C 0.67439 0.77785 0.28983 0.0
C2141 C 0.67622 0.75541 0.35731 0.0
C2142 C 0.67082 0.77043 0.22352 0.0
C2143 C 0.67018 0.75569 0.22345 0.0
H2144 H 0.47614 0.4293 0.67027 0.0
H2145 H 0.4721 0.41899 0.4331 0.0
H2146 H 0.49774 0.41728 0.42184 0.0
H2147 H 0.52136 0.42054 0.47688 0.0
H2148 H 0.52519 0.43166 0.71313 0.0
H2149 H 0.49963 0.43111 0.72693 0.0
C2150 C 0.48083 0.42652 0.61624 0.0
C2151 C 0.47217 0.4244 0.55257 0.0
C2152 C 0.49559 0.42578 0.60974 0.0
C2153 C 0.47849 0.42076 0.48308 0.0
C2154 C 0.49317 0.41981 0.47646 0.0
C2155 C 0.51663 0.4227 0.5316 0.0
C2156 C 0.52526 0.42619 0.59372 0.0
C2157 C 0.50184 0.42259 0.53904 0.0
C2158 C 0.51888 0.42895 0.66419 0.0
C2159 C 0.50422 0.42868 0.67222 0.0
H2160 H 0.83381 0.2737 0.72144 0.0
H2161 H 0.81903 0.27604 0.95244 0.0
H2162 H 0.81977 0.25033 0.96205 0.0
H2163 H 0.8225 0.2271 0.90103 0.0
H2164 H 0.83697 0.22502 0.66931 0.0
H2165 H 0.83856 0.25065 0.66445 0.0
C2166 C 0.83088 0.26863 0.77422 0.0
C2167 C 0.82619 0.27684 0.83569 0.0
C2168 C 0.83118 0.25383 0.77923 0.0
C2169 C 0.82259 0.27002 0.90389 0.0
C2170 C 0.82297 0.25529 0.90946 0.0
C2171 C 0.82619 0.23223 0.8498 0.0
C2172 C 0.8294 0.22409 0.78534 0.0
C2173 C 0.82694 0.24707 0.8469 0.0
C2174 C 0.83424 0.23097 0.71958 0.0
C2175 C 0.83516 0.24567 0.71661 0.0
H2176 H 0.97759 0.43045 0.79669 0.0
H2177 H 0.97498 0.41869 0.03262 0.0
H2178 H 0.0006 0.41702 0.03931 0.0
H2179 H 0.02377 0.42084 0.98191 0.0
H2180 H 0.02665 0.43327 0.74718 0.0
H2181 H 0.00096 0.43253 0.73633 0.0
C2182 C 0.98261 0.42734 0.84929 0.0
C2183 C 0.97433 0.42486 0.9142 0.0
C2184 C 0.99743 0.42658 0.85324 0.0
C2185 C 0.98105 0.42081 0.98188 0.0
C2186 C 0.99573 0.41985 0.98588 0.0
C2187 C 0.01882 0.42326 0.92807 0.0
C2188 C 0.02718 0.42722 0.86571 0.0
C2189 C 0.00403 0.42304 0.92247 0.0
C2190 C 0.02052 0.4302 0.79627 0.0
C2191 C 0.0058 0.42984 0.79004 0.0
H2192 H 0.82262 0.77362 0.0675 0.0
H2193 H 0.83383 0.77346 0.30462 0.0
H2194 H 0.83495 0.74775 0.30338 0.0
H2195 H 0.83079 0.72533 0.2385 0.0
H2196 H 0.81909 0.72527 0.00218 0.0
H2197 H 0.82031 0.75105 -0.0003 0.0
C2198 C 0.82547 0.76799 0.11876 0.0
C2199 C 0.82796 0.77552 0.18626 0.0
C2200 C 0.82594 0.75314 0.11803 0.0
C2201 C 0.83173 0.76799 0.25193 0.0
C2202 C 0.83236 0.75326 0.25139 0.0
C2203 C 0.82863 0.73091 0.18612 0.0
C2204 C 0.82468 0.72333 0.12091 0.0
C2205 C 0.82917 0.74573 0.18527 0.0
C2206 C 0.82208 0.7308 0.05344 0.0
C2207 C 0.82273 0.74556 0.05198 0.0
H2208 H 0.47811 0.57966 0.50265 0.0
H2209 H 0.4765 0.57151 0.26219 0.0
H2210 H 0.50223 0.57223 0.25584 0.0
H2211 H 0.52515 0.57325 0.32012 0.0
H2212 H 0.52675 0.58085 0.561 0.0
H2213 H 0.50106 0.58242 0.56514 0.0
C2214 C 0.48335 0.57817 0.44861 0.0
C2215 C 0.47532 0.57539 0.38317 0.0
C2216 C 0.49817 0.57842 0.44541 0.0
C2217 C 0.48235 0.57361 0.31362 0.0
C2218 C 0.4971 0.57398 0.30991 0.0
C2219 C 0.51994 0.57534 0.37349 0.0
C2220 C 0.52795 0.57673 0.44023 0.0
C2221 C 0.50512 0.57607 0.37573 0.0
C2222 C 0.52091 0.57964 0.50869 0.0
C2223 C 0.50619 0.58051 0.51122 0.0
H2224 H 0.67723 0.22724 0.5936 0.0
H2225 H 0.66813 0.22419 0.83265 0.0
H2226 H 0.66663 0.24987 0.84118 0.0
H2227 H 0.66996 0.27326 0.78317 0.0
H2228 H 0.67977 0.27607 0.54488 0.0
H2229 H 0.67881 0.25049 0.53392 0.0
C2230 C 0.67476 0.23215 0.64749 0.0
C2231 C 0.67296 0.22375 0.71247 0.0
C2232 C 0.67412 0.24694 0.65237 0.0
C2233 C 0.66967 0.23036 0.78167 0.0
C2234 C 0.66884 0.24507 0.78673 0.0
C2235 C 0.67172 0.2683 0.72863 0.0
C2236 C 0.67504 0.27665 0.66509 0.0
C2237 C 0.67137 0.25348 0.7228 0.0
C2238 C 0.67725 0.26998 0.59488 0.0
C2239 C 0.67674 0.2553 0.58849 0.0
H2240 H 0.32339 0.27465 0.56523 0.0
H2241 H 0.32863 0.27335 0.80794 0.0
H2242 H 0.3299 0.24761 0.8037 0.0
H2243 H 0.32765 0.22548 0.73255 0.0
H2244 H 0.32172 0.22686 0.49021 0.0
H2245 H 0.32272 0.2526 0.49305 0.0
C2246 C 0.32494 0.2688 0.61721 0.0
C2247 C 0.32576 0.27599 0.68681 0.0
C2248 C 0.32547 0.25398 0.61456 0.0
C2249 C 0.32787 0.26814 0.7535 0.0
C2250 C 0.32857 0.25339 0.75121 0.0
C2251 C 0.32673 0.23137 0.68014 0.0
C2252 C 0.32448 0.22419 0.61133 0.0
C2253 C 0.3271 0.2462 0.68224 0.0
C2254 C 0.32337 0.23206 0.54406 0.0
C2255 C 0.32391 0.24681 0.54561 0.0
H2256 H 0.17354 0.72837 0.26693 0.0
H2257 H 0.18056 0.72208 0.02766 0.0
H2258 H 0.17955 0.74749 0.00668 0.0
H2259 H 0.17837 0.7716 0.05719 0.0
H2260 H 0.17163 0.77789 0.29672 0.0
H2261 H 0.17072 0.75243 0.31611 0.0
C2262 C 0.17473 0.73252 0.21006 0.0
C2263 C 0.17726 0.72327 0.14919 0.0
C2264 C 0.17425 0.7472 0.19828 0.0
C2265 C 0.17868 0.7289 0.0758 0.0
C2266 C 0.17813 0.74347 0.06363 0.0
C2267 C 0.17655 0.76743 0.11355 0.0
C2268 C 0.17521 0.7767 0.17538 0.0
C2269 C 0.17617 0.75273 0.12463 0.0
C2270 C 0.17279 0.77105 0.24798 0.0
C2271 C 0.17229 0.75646 0.25928 0.0
H2272 H 0.17237 0.27266 0.73604 0.0
H2273 H 0.17907 0.27529 0.9774 0.0
H2274 H 0.17848 0.24964 0.98689 0.0
H2275 H 0.17799 0.22641 0.92546 0.0
H2276 H 0.17162 0.22378 0.68373 0.0
H2277 H 0.17004 0.24943 0.67606 0.0
C2278 C 0.17357 0.26766 0.79091 0.0
C2279 C 0.17591 0.27597 0.85576 0.0
C2280 C 0.17336 0.25285 0.79596 0.0
C2281 C 0.17732 0.26924 0.92639 0.0
C2282 C 0.17702 0.25452 0.93192 0.0
C2283 C 0.17612 0.23141 0.87114 0.0
C2284 C 0.17509 0.22313 0.80522 0.0
C2285 C 0.17535 0.24621 0.86686 0.0
C2286 C 0.17254 0.22985 0.73546 0.0
C2287 C 0.17167 0.24455 0.73089 0.0
H2288 H 0.32918 0.72802 0.24989 0.0
H2289 H 0.31846 0.72551 0.48709 0.0
H2290 H 0.31895 0.7512 0.49641 0.0
H2291 H 0.32054 0.77445 0.43488 0.0
H2292 H 0.33079 0.7768 0.19681 0.0
H2293 H 0.33242 0.75116 0.19065 0.0
C2294 C 0.32706 0.73306 0.30387 0.0
C2295 C 0.3237 0.72479 0.36754 0.0
C2296 C 0.32718 0.74787 0.30868 0.0
C2297 C 0.3211 0.73155 0.43709 0.0
C2298 C 0.32131 0.74629 0.44245 0.0
C2299 C 0.32329 0.76938 0.38182 0.0
C2300 C 0.32538 0.77759 0.31631 0.0
C2301 C 0.32407 0.75456 0.37826 0.0
C2302 C 0.32899 0.77079 0.24812 0.0
C2303 C 0.32992 0.75609 0.2444 0.0
H2304 H 0.52435 0.07072 0.66557 0.0
H2305 H 0.52726 0.08445 0.43282 0.0
H2306 H 0.50164 0.08594 0.42512 0.0
H2307 H 0.47841 0.08152 0.48042 0.0
H2308 H 0.47523 0.06713 0.71178 0.0
H2309 H 0.50089 0.0679 0.72403 0.0
C2310 C 0.51939 0.07422 0.61349 0.0
C2311 C 0.52776 0.07732 0.5497 0.0
C2312 C 0.50457 0.07487 0.60889 0.0
C2313 C 0.52112 0.08186 0.48268 0.0
C2314 C 0.50644 0.08271 0.47808 0.0
C2315 C 0.48329 0.07866 0.53382 0.0
C2316 C 0.47485 0.07418 0.59483 0.0
C2317 C 0.49806 0.07893 0.54021 0.0
C2318 C 0.48141 0.07063 0.66375 0.0
C2319 C 0.49612 0.07101 0.67078 0.0
H2320 H 0.02448 0.92116 0.98493 0.0
H2321 H 0.02543 0.93361 0.22007 0.0
H2322 H 0.99972 0.9326 0.22544 0.0
H2323 H 0.9769 0.93008 0.1608 0.0
H2324 H 0.97603 0.91824 0.92464 0.0
H2325 H 0.00174 0.9171 0.92269 0.0
C2326 C 0.0191 0.92352 0.03765 0.0
C2327 C 0.02695 0.92752 0.10186 0.0
C2328 C 0.00428 0.92315 0.04012 0.0
C2329 C 0.01973 0.93047 0.16972 0.0
C2330 C 0.00499 0.92997 0.1728 0.0
C2331 C 0.9823 0.92709 0.10906 0.0
C2332 C 0.97448 0.92438 0.04284 0.0
C2333 C 0.99714 0.9266 0.10794 0.0
C2334 C 0.98173 0.9205 0.97642 0.0
C2335 C 0.99646 0.91984 0.97513 0.0
H2336 H 0.52433 0.92324 0.52759 0.0
H2337 H 0.5236 0.9261 0.28354 0.0
H2338 H 0.4979 0.92465 0.28459 0.0
H2339 H 0.47562 0.92441 0.35498 0.0
H2340 H 0.47623 0.92197 0.59903 0.0
H2341 H 0.502 0.92122 0.59745 0.0
C2342 C 0.51858 0.92342 0.47448 0.0
C2343 C 0.52594 0.92496 0.40563 0.0
C2344 C 0.50376 0.92271 0.47543 0.0
C2345 C 0.51827 0.92504 0.33745 0.0
C2346 C 0.50354 0.92423 0.33795 0.0
C2347 C 0.48135 0.92365 0.40788 0.0
C2348 C 0.47395 0.92346 0.47701 0.0
C2349 C 0.49617 0.92337 0.40668 0.0
C2350 C 0.48161 0.92221 0.54492 0.0
C2351 C 0.49637 0.92182 0.54413 0.0
H2352 H 0.02382 0.07356 0.87751 0.0
H2353 H 0.02379 0.08407 0.11541 0.0
H2354 H 0.99801 0.0846 0.11529 0.0
H2355 H 0.9755 0.08045 0.04988 0.0
H2356 H 0.9757 0.0695 0.8125 0.0
H2357 H 0.00139 0.07089 0.81036 0.0
C2358 C 0.01822 0.07611 0.92925 0.0
C2359 C 0.02578 0.07866 0.99643 0.0
C2360 C 0.00339 0.07625 0.92906 0.0
C2361 C 0.01828 0.082 0.06284 0.0
C2362 C 0.00351 0.08228 0.06292 0.0
C2363 C 0.98113 0.07849 0.99744 0.0
C2364 C 0.97362 0.07477 0.93159 0.0
C2365 C 0.99596 0.07916 0.99668 0.0
C2366 C 0.98115 0.07232 0.86416 0.0
C2367 C 0.99588 0.07309 0.86285 0.0
loop_
_geom_bond_atom_site_label_1
_geom_bond_atom_site_label_2
_geom_bond_distance
_geom_bond_site_symmetry_2
_ccdc_geom_bond_type
Co0 O3 1.970 1_556 S
Co0 N17 1.989 1_556 S
Co0 O25 1.967 1_556 S
Co0 O32 1.920 . S
Co1 O4 1.966 . S
Co1 N10 2.022 . S
Co1 N18 1.993 . S
Co1 O26 1.941 . S
C2 O3 1.258 . S
C2 O4 1.263 . S
O3 Co0 1.970 1_554 S
O3 C2 1.258 . S
O4 Co1 1.966 . S
O4 C2 1.263 . S
C5 O6 1.235 . S
C5 O32 1.289 . S
O6 C5 1.235 . S
C7 C9 1.400 . S
C7 N10 1.351 . S
C7 C12 1.501 . S
C8 C9 1.387 . S
C8 N11 1.341 . S
C9 C7 1.400 . S
C9 C8 1.387 . S
N10 Co1 2.022 . S
N10 C7 1.351 . S
N10 N11 1.365 . S
N11 C8 1.341 . S
N11 N10 1.365 . S
N11 H31 0.862 . S
C12 C7 1.501 . S
C12 H13 0.961 . S
C12 H14 0.961 . S
C12 H15 0.960 . S
H13 C12 0.961 . S
H14 C12 0.961 . S
H15 C12 0.960 . S
C16 N17 1.342 . S
C16 C20 1.401 . S
C16 C21 1.499 1_554 S
N17 Co0 1.989 1_554 S
N17 C16 1.342 . S
N17 N18 1.388 . S
N18 Co1 1.993 . S
N18 N17 1.388 . S
N18 C19 1.346 . S
C19 N18 1.346 . S
C19 C20 1.396 . S
C19 C29 1.510 . S
C20 C16 1.401 . S
C20 C19 1.396 . S
C21 C16 1.499 1_556 S
C21 H22 0.959 . S
C21 H23 0.960 . S
C21 H24 0.961 . S
H22 C21 0.959 . S
H23 C21 0.960 . S
H24 C21 0.961 . S
O25 Co0 1.967 1_554 S
O25 C33 1.258 . S
O26 Co1 1.941 . S
O26 C33 1.266 . S
H27 C29 0.959 . S
H28 C29 0.961 . S
C29 C19 1.510 . S
C29 H27 0.959 . S
C29 H28 0.961 . S
C29 H30 0.960 . S
H30 C29 0.960 . S
H31 N11 0.862 . S
O32 Co0 1.920 . S
O32 C5 1.289 . S
C33 O25 1.258 . S
C33 O26 1.266 . S
Co34 O37 1.970 . S
Co34 N51 1.989 . S
Co34 O59 1.967 . S
Co34 O66 1.920 . S
Co35 O38 1.966 . S
Co35 N44 2.022 . S
Co35 N52 1.993 . S
Co35 O60 1.941 . S
C36 O37 1.258 . S
C36 O38 1.263 . S
O37 Co34 1.970 . S
O37 C36 1.258 . S
O38 Co35 1.966 . S
O38 C36 1.263 . S
C39 O40 1.235 . S
C39 O66 1.289 . S
O40 C39 1.235 . S
C41 C43 1.400 . S
C41 N44 1.351 . S
C41 C46 1.501 . S
C42 C43 1.387 . S
C42 N45 1.341 . S
C43 C41 1.400 . S
C43 C42 1.387 . S
N44 Co35 2.022 . S
N44 C41 1.351 . S
N44 N45 1.365 . S
N45 C42 1.341 . S
N45 N44 1.365 . S
N45 H65 0.862 . S
C46 C41 1.501 . S
C46 H47 0.961 . S
C46 H48 0.961 . S
C46 H49 0.960 . S
H47 C46 0.961 . S
H48 C46 0.961 . S
H49 C46 0.960 . S
C50 N51 1.342 . S
C50 C54 1.401 . S
C50 C55 1.499 . S
N51 Co34 1.989 . S
N51 C50 1.342 . S
N51 N52 1.388 . S
N52 Co35 1.993 . S
N52 N51 1.388 . S
N52 C53 1.346 . S
C53 N52 1.346 . S
C53 C54 1.396 . S
C53 C63 1.510 . S
C54 C50 1.401 . S
C54 C53 1.396 . S
C55 C50 1.499 . S
C55 H56 0.959 . S
C55 H57 0.960 . S
C55 H58 0.961 . S
H56 C55 0.959 . S
H57 C55 0.960 . S
H58 C55 0.961 . S
O59 Co34 1.967 . S
O59 C67 1.258 . S
O60 Co35 1.941 . S
O60 C67 1.266 . S
H61 C63 0.959 . S
H62 C63 0.961 . S
C63 C53 1.510 . S
C63 H61 0.959 . S
C63 H62 0.961 . S
C63 H64 0.960 . S
H64 C63 0.960 . S
H65 N45 0.862 . S
O66 Co34 1.920 . S
O66 C39 1.289 . S
C67 O59 1.258 . S
C67 O60 1.266 . S
Co68 O71 1.970 . S
Co68 N85 1.989 . S
Co68 O93 1.967 . S
Co68 O100 1.920 . S
Co69 O72 1.966 . S
Co69 N78 2.022 . S
Co69 N86 1.993 . S
Co69 O94 1.941 . S
C70 O71 1.258 . S
C70 O72 1.263 . S
O71 Co68 1.970 . S
O71 C70 1.258 . S
O72 Co69 1.966 . S
O72 C70 1.263 . S
C73 O74 1.235 . S
C73 O100 1.289 . S
O74 C73 1.235 . S
C75 C77 1.400 . S
C75 N78 1.351 . S
C75 C80 1.501 . S
C76 C77 1.387 . S
C76 N79 1.341 . S
C77 C75 1.400 . S
C77 C76 1.387 . S
N78 Co69 2.022 . S
N78 C75 1.351 . S
N78 N79 1.365 . S
N79 C76 1.341 . S
N79 N78 1.365 . S
N79 H99 0.862 . S
C80 C75 1.501 . S
C80 H81 0.961 . S
C80 H82 0.961 . S
C80 H83 0.960 . S
H81 C80 0.961 . S
H82 C80 0.961 . S
H83 C80 0.960 . S
C84 N85 1.342 . S
C84 C88 1.401 . S
C84 C89 1.499 . S
N85 Co68 1.989 . S
N85 C84 1.342 . S
N85 N86 1.388 . S
N86 Co69 1.993 . S
N86 N85 1.388 . S
N86 C87 1.346 . S
C87 N86 1.346 . S
C87 C88 1.396 . S
C87 C97 1.510 . S
C88 C84 1.401 . S
C88 C87 1.396 . S
C89 C84 1.499 . S
C89 H90 0.959 . S
C89 H91 0.960 . S
C89 H92 0.961 . S
H90 C89 0.959 . S
H91 C89 0.960 . S
H92 C89 0.961 . S
O93 Co68 1.967 . S
O93 C101 1.258 . S
O94 Co69 1.941 . S
O94 C101 1.266 . S
H95 C97 0.959 . S
H96 C97 0.961 . S
C97 C87 1.510 . S
C97 H95 0.959 . S
C97 H96 0.961 . S
C97 H98 0.960 . S
H98 C97 0.960 . S
H99 N79 0.862 . S
O100 Co68 1.920 . S
O100 C73 1.289 . S
C101 O93 1.258 . S
C101 O94 1.266 . S
Co102 O105 1.970 . S
Co102 N119 1.989 . S
Co102 O127 1.967 . S
Co102 O134 1.920 . S
Co103 O106 1.966 . S
Co103 N112 2.022 1_556 S
Co103 N120 1.993 . S
Co103 O128 1.941 . S
C104 O105 1.258 . S
C104 O106 1.263 . S
O105 Co102 1.970 . S
O105 C104 1.258 . S
O106 Co103 1.966 . S
O106 C104 1.263 . S
C107 O108 1.235 . S
C107 O134 1.289 . S
O108 C107 1.235 . S
C109 C111 1.400 . S
C109 N112 1.351 . S
C109 C114 1.501 . S
C110 C111 1.387 . S
C110 N113 1.341 . S
C111 C109 1.400 . S
C111 C110 1.387 . S
N112 Co103 2.022 1_554 S
N112 C109 1.351 . S
N112 N113 1.365 . S
N113 C110 1.341 . S
N113 N112 1.365 . S
N113 H133 0.862 . S
C114 C109 1.501 . S
C114 H115 0.961 . S
C114 H116 0.961 . S
C114 H117 0.960 . S
H115 C114 0.961 . S
H116 C114 0.961 . S
H117 C114 0.960 . S
C118 N119 1.342 . S
C118 C122 1.401 . S
C118 C123 1.499 . S
N119 Co102 1.989 . S
N119 C118 1.342 . S
N119 N120 1.388 . S
N120 Co103 1.993 . S
N120 N119 1.388 . S
N120 C121 1.346 . S
C121 N120 1.346 . S
C121 C122 1.396 . S
C121 C131 1.510 . S
C122 C118 1.401 . S
C122 C121 1.396 . S
C123 C118 1.499 . S
C123 H124 0.959 . S
C123 H125 0.960 . S
C123 H126 0.961 . S
H124 C123 0.959 . S
H125 C123 0.960 . S
H126 C123 0.961 . S
O127 Co102 1.967 . S
O127 C135 1.258 . S
O128 Co103 1.941 . S
O128 C135 1.266 . S
H129 C131 0.959 1_554 S
H130 C131 0.961 1_554 S
C131 C121 1.510 . S
C131 H129 0.959 1_556 S
C131 H130 0.961 1_556 S
C131 H132 0.960 1_556 S
H132 C131 0.960 1_554 S
H133 N113 0.862 . S
O134 Co102 1.920 . S
O134 C107 1.289 . S
C135 O127 1.258 . S
C135 O128 1.266 . S
Co136 O139 1.970 1_554 S
Co136 N153 1.989 1_554 S
Co136 O161 1.967 1_554 S
Co136 O168 1.920 . S
Co137 O140 1.966 . S
Co137 N146 2.022 . S
Co137 N154 1.993 . S
Co137 O162 1.941 . S
C138 O139 1.258 . S
C138 O140 1.263 . S
O139 Co136 1.970 1_556 S
O139 C138 1.258 . S
O140 Co137 1.966 . S
O140 C138 1.263 . S
C141 O142 1.235 . S
C141 O168 1.289 . S
O142 C141 1.235 . S
C143 C145 1.400 . S
C143 N146 1.351 . S
C143 C148 1.501 . S
C144 C145 1.387 . S
C144 N147 1.341 . S
C145 C143 1.400 . S
C145 C144 1.387 . S
N146 Co137 2.022 . S
N146 C143 1.351 . S
N146 N147 1.365 . S
N147 C144 1.341 . S
N147 N146 1.365 . S
N147 H167 0.862 . S
C148 C143 1.501 . S
C148 H149 0.961 . S
C148 H150 0.961 . S
C148 H151 0.960 . S
H149 C148 0.961 . S
H150 C148 0.961 . S
H151 C148 0.960 . S
C152 N153 1.342 . S
C152 C156 1.401 . S
C152 C157 1.499 1_556 S
N153 Co136 1.989 1_556 S
N153 C152 1.342 . S
N153 N154 1.388 . S
N154 Co137 1.993 . S
N154 N153 1.388 . S
N154 C155 1.346 . S
C155 N154 1.346 . S
C155 C156 1.396 . S
C155 C165 1.510 . S
C156 C152 1.401 . S
C156 C155 1.396 . S
C157 C152 1.499 1_554 S
C157 H158 0.959 . S
C157 H159 0.960 . S
C157 H160 0.961 . S
H158 C157 0.959 . S
H159 C157 0.960 . S
H160 C157 0.961 . S
O161 Co136 1.967 1_556 S
O161 C169 1.258 . S
O162 Co137 1.941 . S
O162 C169 1.266 . S
H163 C165 0.959 . S
H164 C165 0.961 . S
C165 C155 1.510 . S
C165 H163 0.959 . S
C165 H164 0.961 . S
C165 H166 0.960 . S
H166 C165 0.960 . S
H167 N147 0.862 . S
O168 Co136 1.920 . S
O168 C141 1.289 . S
C169 O161 1.258 . S
C169 O162 1.266 . S
Co170 O173 1.970 . S
Co170 N187 1.989 . S
Co170 O195 1.967 . S
Co170 O202 1.920 . S
Co171 O174 1.966 . S
Co171 N180 2.022 1_554 S
Co171 N188 1.993 . S
Co171 O196 1.941 . S
C172 O173 1.258 . S
C172 O174 1.263 . S
O173 Co170 1.970 . S
O173 C172 1.258 . S
O174 Co171 1.966 . S
O174 C172 1.263 . S
C175 O176 1.235 . S
C175 O202 1.289 . S
O176 C175 1.235 . S
C177 C179 1.400 . S
C177 N180 1.351 . S
C177 C182 1.501 . S
C178 C179 1.387 . S
C178 N181 1.341 . S
C179 C177 1.400 . S
C179 C178 1.387 . S
N180 Co171 2.022 1_556 S
N180 C177 1.351 . S
N180 N181 1.365 . S
N181 C178 1.341 . S
N181 N180 1.365 . S
N181 H201 0.862 . S
C182 C177 1.501 . S
C182 H183 0.961 . S
C182 H184 0.961 . S
C182 H185 0.960 . S
H183 C182 0.961 . S
H184 C182 0.961 . S
H185 C182 0.960 . S
C186 N187 1.342 . S
C186 C190 1.401 . S
C186 C191 1.499 . S
N187 Co170 1.989 . S
N187 C186 1.342 . S
N187 N188 1.388 . S
N188 Co171 1.993 . S
N188 N187 1.388 . S
N188 C189 1.346 . S
C189 N188 1.346 . S
C189 C190 1.396 . S
C189 C199 1.510 . S
C190 C186 1.401 . S
C190 C189 1.396 . S
C191 C186 1.499 . S
C191 H192 0.959 . S
C191 H193 0.960 . S
C191 H194 0.961 . S
H192 C191 0.959 . S
H193 C191 0.960 . S
H194 C191 0.961 . S
O195 Co170 1.967 . S
O195 C203 1.258 . S
O196 Co171 1.941 . S
O196 C203 1.266 . S
H197 C199 0.959 1_556 S
H198 C199 0.961 1_556 S
C199 C189 1.510 . S
C199 H197 0.959 1_554 S
C199 H198 0.961 1_554 S
C199 H200 0.960 1_554 S
H200 C199 0.960 1_556 S
H201 N181 0.862 . S
O202 Co170 1.920 . S
O202 C175 1.289 . S
C203 O195 1.258 . S
C203 O196 1.266 . S
Co204 O207 1.970 . S
Co204 N221 1.989 . S
Co204 O229 1.967 . S
Co204 O236 1.920 . S
Co205 O208 1.966 . S
Co205 N214 2.022 . S
Co205 N222 1.993 . S
Co205 O230 1.941 . S
C206 O207 1.258 . S
C206 O208 1.263 . S
O207 Co204 1.970 . S
O207 C206 1.258 . S
O208 Co205 1.966 . S
O208 C206 1.263 . S
C209 O210 1.235 . S
C209 O236 1.289 . S
O210 C209 1.235 . S
C211 C213 1.400 . S
C211 N214 1.351 . S
C211 C216 1.501 . S
C212 C213 1.387 . S
C212 N215 1.341 . S
C213 C211 1.400 . S
C213 C212 1.387 . S
N214 Co205 2.022 . S
N214 C211 1.351 . S
N214 N215 1.365 . S
N215 C212 1.341 . S
N215 N214 1.365 . S
N215 H235 0.862 . S
C216 C211 1.501 . S
C216 H217 0.961 . S
C216 H218 0.961 . S
C216 H219 0.960 . S
H217 C216 0.961 . S
H218 C216 0.961 . S
H219 C216 0.960 . S
C220 N221 1.342 . S
C220 C224 1.401 . S
C220 C225 1.499 . S
N221 Co204 1.989 . S
N221 C220 1.342 . S
N221 N222 1.388 . S
N222 Co205 1.993 . S
N222 N221 1.388 . S
N222 C223 1.346 . S
C223 N222 1.346 . S
C223 C224 1.396 . S
C223 C233 1.510 . S
C224 C220 1.401 . S
C224 C223 1.396 . S
C225 C220 1.499 . S
C225 H226 0.959 . S
C225 H227 0.960 . S
C225 H228 0.961 . S
H226 C225 0.959 . S
H227 C225 0.960 . S
H228 C225 0.961 . S
O229 Co204 1.967 . S
O229 C237 1.258 . S
O230 Co205 1.941 . S
O230 C237 1.266 . S
H231 C233 0.959 . S
H232 C233 0.961 . S
C233 C223 1.510 . S
C233 H231 0.959 . S
C233 H232 0.961 . S
C233 H234 0.960 . S
H234 C233 0.960 . S
H235 N215 0.862 . S
O236 Co204 1.920 . S
O236 C209 1.289 . S
C237 O229 1.258 . S
C237 O230 1.266 . S
Co238 O241 1.970 . S
Co238 N255 1.989 . S
Co238 O263 1.967 . S
Co238 O270 1.920 . S
Co239 O242 1.966 . S
Co239 N248 2.022 . S
Co239 N256 1.993 . S
Co239 O264 1.941 . S
C240 O241 1.258 . S
C240 O242 1.263 . S
O241 Co238 1.970 . S
O241 C240 1.258 . S
O242 Co239 1.966 . S
O242 C240 1.263 . S
C243 O244 1.235 . S
C243 O270 1.289 . S
O244 C243 1.235 . S
C245 C247 1.400 . S
C245 N248 1.351 . S
C245 C250 1.501 . S
C246 C247 1.387 . S
C246 N249 1.341 . S
C247 C245 1.400 . S
C247 C246 1.387 . S
N248 Co239 2.022 . S
N248 C245 1.351 . S
N248 N249 1.365 . S
N249 C246 1.341 . S
N249 N248 1.365 . S
N249 H269 0.862 . S
C250 C245 1.501 . S
C250 H251 0.961 . S
C250 H252 0.961 . S
C250 H253 0.960 . S
H251 C250 0.961 . S
H252 C250 0.961 . S
H253 C250 0.960 . S
C254 N255 1.342 . S
C254 C258 1.401 . S
C254 C259 1.499 . S
N255 Co238 1.989 . S
N255 C254 1.342 . S
N255 N256 1.388 . S
N256 Co239 1.993 . S
N256 N255 1.388 . S
N256 C257 1.346 . S
C257 N256 1.346 . S
C257 C258 1.396 . S
C257 C267 1.510 . S
C258 C254 1.401 . S
C258 C257 1.396 . S
C259 C254 1.499 . S
C259 H260 0.959 . S
C259 H261 0.960 . S
C259 H262 0.961 . S
H260 C259 0.959 . S
H261 C259 0.960 . S
H262 C259 0.961 . S
O263 Co238 1.967 . S
O263 C271 1.258 . S
O264 Co239 1.941 . S
O264 C271 1.266 . S
H265 C267 0.959 . S
H266 C267 0.961 . S
C267 C257 1.510 . S
C267 H265 0.959 . S
C267 H266 0.961 . S
C267 H268 0.960 . S
H268 C267 0.960 . S
H269 N249 0.862 . S
O270 Co238 1.920 . S
O270 C243 1.289 . S
C271 O263 1.258 . S
C271 O264 1.266 . S
Co272 O275 1.970 1_554 S
Co272 N289 1.989 1_554 S
Co272 O297 1.967 1_554 S
Co272 O304 1.920 . S
Co273 O276 1.966 . S
Co273 N282 2.022 . S
Co273 N290 1.993 . S
Co273 O298 1.941 . S
C274 O275 1.258 . S
C274 O276 1.263 . S
O275 Co272 1.970 1_556 S
O275 C274 1.258 . S
O276 Co273 1.966 . S
O276 C274 1.263 . S
C277 O278 1.235 . S
C277 O304 1.289 . S
O278 C277 1.235 . S
C279 C281 1.400 . S
C279 N282 1.351 . S
C279 C284 1.501 . S
C280 C281 1.387 . S
C280 N283 1.341 . S
C281 C279 1.400 . S
C281 C280 1.387 . S
N282 Co273 2.022 . S
N282 C279 1.351 . S
N282 N283 1.365 . S
N283 C280 1.341 . S
N283 N282 1.365 . S
N283 H303 0.862 . S
C284 C279 1.501 . S
C284 H285 0.961 . S
C284 H286 0.961 . S
C284 H287 0.960 . S
H285 C284 0.961 . S
H286 C284 0.961 . S
H287 C284 0.960 . S
C288 N289 1.342 . S
C288 C292 1.401 . S
C288 C293 1.499 1_556 S
N289 Co272 1.989 1_556 S
N289 C288 1.342 . S
N289 N290 1.388 . S
N290 Co273 1.993 . S
N290 N289 1.388 . S
N290 C291 1.346 . S
C291 N290 1.346 . S
C291 C292 1.396 . S
C291 C301 1.510 . S
C292 C288 1.401 . S
C292 C291 1.396 . S
C293 C288 1.499 1_554 S
C293 H294 0.959 . S
C293 H295 0.960 . S
C293 H296 0.961 . S
H294 C293 0.959 . S
H295 C293 0.960 . S
H296 C293 0.961 . S
O297 Co272 1.967 1_556 S
O297 C305 1.258 . S
O298 Co273 1.941 . S
O298 C305 1.266 . S
H299 C301 0.959 . S
H300 C301 0.961 . S
C301 C291 1.510 . S
C301 H299 0.959 . S
C301 H300 0.961 . S
C301 H302 0.960 . S
H302 C301 0.960 . S
H303 N283 0.862 . S
O304 Co272 1.920 . S
O304 C277 1.289 . S
C305 O297 1.258 . S
C305 O298 1.266 . S
Co306 O309 1.970 . S
Co306 N323 1.989 . S
Co306 O331 1.967 . S
Co306 O338 1.920 . S
Co307 O310 1.966 . S
Co307 N316 2.022 . S
Co307 N324 1.993 . S
Co307 O332 1.941 . S
C308 O309 1.258 . S
C308 O310 1.263 . S
O309 Co306 1.970 . S
O309 C308 1.258 . S
O310 Co307 1.966 . S
O310 C308 1.263 . S
C311 O312 1.235 . S
C311 O338 1.289 . S
O312 C311 1.235 . S
C313 C315 1.400 . S
C313 N316 1.351 . S
C313 C318 1.501 . S
C314 C315 1.387 . S
C314 N317 1.341 . S
C315 C313 1.400 . S
C315 C314 1.387 . S
N316 Co307 2.022 . S
N316 C313 1.351 . S
N316 N317 1.365 . S
N317 C314 1.341 . S
N317 N316 1.365 . S
N317 H337 0.862 . S
C318 C313 1.501 . S
C318 H319 0.961 . S
C318 H320 0.961 . S
C318 H321 0.960 . S
H319 C318 0.961 . S
H320 C318 0.961 . S
H321 C318 0.960 . S
C322 N323 1.342 . S
C322 C326 1.401 . S
C322 C327 1.499 . S
N323 Co306 1.989 . S
N323 C322 1.342 . S
N323 N324 1.388 . S
N324 Co307 1.993 . S
N324 N323 1.388 . S
N324 C325 1.346 . S
C325 N324 1.346 . S
C325 C326 1.396 . S
C325 C335 1.510 . S
C326 C322 1.401 . S
C326 C325 1.396 . S
C327 C322 1.499 . S
C327 H328 0.959 . S
C327 H329 0.960 . S
C327 H330 0.961 . S
H328 C327 0.959 . S
H329 C327 0.960 . S
H330 C327 0.961 . S
O331 Co306 1.967 . S
O331 C339 1.258 . S
O332 Co307 1.941 . S
O332 C339 1.266 . S
H333 C335 0.959 . S
H334 C335 0.961 . S
C335 C325 1.510 . S
C335 H333 0.959 . S
C335 H334 0.961 . S
C335 H336 0.960 . S
H336 C335 0.960 . S
H337 N317 0.862 . S
O338 Co306 1.920 . S
O338 C311 1.289 . S
C339 O331 1.258 . S
C339 O332 1.266 . S
Co340 O343 1.970 . S
Co340 N357 1.989 . S
Co340 O365 1.967 . S
Co340 O372 1.920 . S
Co341 O344 1.966 . S
Co341 N350 2.022 . S
Co341 N358 1.993 . S
Co341 O366 1.941 . S
C342 O343 1.258 . S
C342 O344 1.263 . S
O343 Co340 1.970 . S
O343 C342 1.258 . S
O344 Co341 1.966 . S
O344 C342 1.263 . S
C345 O346 1.235 . S
C345 O372 1.289 . S
O346 C345 1.235 . S
C347 C349 1.400 . S
C347 N350 1.351 . S
C347 C352 1.501 . S
C348 C349 1.387 . S
C348 N351 1.341 . S
C349 C347 1.400 . S
C349 C348 1.387 . S
N350 Co341 2.022 . S
N350 C347 1.351 . S
N350 N351 1.365 . S
N351 C348 1.341 . S
N351 N350 1.365 . S
N351 H371 0.862 . S
C352 C347 1.501 . S
C352 H353 0.961 . S
C352 H354 0.961 . S
C352 H355 0.960 . S
H353 C352 0.961 . S
H354 C352 0.961 . S
H355 C352 0.960 . S
C356 N357 1.342 . S
C356 C360 1.401 . S
C356 C361 1.499 . S
N357 Co340 1.989 . S
N357 C356 1.342 . S
N357 N358 1.388 . S
N358 Co341 1.993 . S
N358 N357 1.388 . S
N358 C359 1.346 . S
C359 N358 1.346 . S
C359 C360 1.396 . S
C359 C369 1.510 . S
C360 C356 1.401 . S
C360 C359 1.396 . S
C361 C356 1.499 . S
C361 H362 0.959 . S
C361 H363 0.960 . S
C361 H364 0.961 . S
H362 C361 0.959 . S
H363 C361 0.960 . S
H364 C361 0.961 . S
O365 Co340 1.967 . S
O365 C373 1.258 . S
O366 Co341 1.941 . S
O366 C373 1.266 . S
H367 C369 0.959 . S
H368 C369 0.961 . S
C369 C359 1.510 . S
C369 H367 0.959 . S
C369 H368 0.961 . S
C369 H370 0.960 . S
H370 C369 0.960 . S
H371 N351 0.862 . S
O372 Co340 1.920 . S
O372 C345 1.289 . S
C373 O365 1.258 . S
C373 O366 1.266 . S
Co374 O377 1.970 . S
Co374 N391 1.989 . S
Co374 O399 1.967 . S
Co374 O406 1.920 . S
Co375 O378 1.966 . S
Co375 N384 2.022 1_554 S
Co375 N392 1.993 . S
Co375 O400 1.941 . S
C376 O377 1.258 . S
C376 O378 1.263 . S
O377 Co374 1.970 . S
O377 C376 1.258 . S
O378 Co375 1.966 . S
O378 C376 1.263 . S
C379 O380 1.235 . S
C379 O406 1.289 . S
O380 C379 1.235 . S
C381 C383 1.400 . S
C381 N384 1.351 . S
C381 C386 1.501 . S
C382 C383 1.387 . S
C382 N385 1.341 . S
C383 C381 1.400 . S
C383 C382 1.387 . S
N384 Co375 2.022 1_556 S
N384 C381 1.351 . S
N384 N385 1.365 . S
N385 C382 1.341 . S
N385 N384 1.365 . S
N385 H405 0.862 . S
C386 C381 1.501 . S
C386 H387 0.961 . S
C386 H388 0.961 . S
C386 H389 0.960 . S
H387 C386 0.961 . S
H388 C386 0.961 . S
H389 C386 0.960 . S
C390 N391 1.342 . S
C390 C394 1.401 . S
C390 C395 1.499 . S
N391 Co374 1.989 . S
N391 C390 1.342 . S
N391 N392 1.388 . S
N392 Co375 1.993 . S
N392 N391 1.388 . S
N392 C393 1.346 . S
C393 N392 1.346 . S
C393 C394 1.396 . S
C393 C403 1.510 . S
C394 C390 1.401 . S
C394 C393 1.396 . S
C395 C390 1.499 . S
C395 H396 0.959 . S
C395 H397 0.960 . S
C395 H398 0.961 . S
H396 C395 0.959 . S
H397 C395 0.960 . S
H398 C395 0.961 . S
O399 Co374 1.967 . S
O399 C407 1.258 . S
O400 Co375 1.941 . S
O400 C407 1.266 . S
H401 C403 0.959 1_556 S
H402 C403 0.961 1_556 S
C403 C393 1.510 . S
C403 H401 0.959 1_554 S
C403 H402 0.961 1_554 S
C403 H404 0.960 1_554 S
H404 C403 0.960 1_556 S
H405 N385 0.862 . S
O406 Co374 1.920 . S
O406 C379 1.289 . S
C407 O399 1.258 . S
C407 O400 1.266 . S
Co408 O411 1.970 1_556 S
Co408 N425 1.989 1_556 S
Co408 O433 1.967 1_556 S
Co408 O440 1.920 . S
Co409 O412 1.966 . S
Co409 N418 2.022 . S
Co409 N426 1.993 . S
Co409 O434 1.941 . S
C410 O411 1.258 . S
C410 O412 1.263 . S
O411 Co408 1.970 1_554 S
O411 C410 1.258 . S
O412 Co409 1.966 . S
O412 C410 1.263 . S
C413 O414 1.235 . S
C413 O440 1.289 . S
O414 C413 1.235 . S
C415 C417 1.400 . S
C415 N418 1.351 . S
C415 C420 1.501 . S
C416 C417 1.387 . S
C416 N419 1.341 . S
C417 C415 1.400 . S
C417 C416 1.387 . S
N418 Co409 2.022 . S
N418 C415 1.351 . S
N418 N419 1.365 . S
N419 C416 1.341 . S
N419 N418 1.365 . S
N419 H439 0.862 . S
C420 C415 1.501 . S
C420 H421 0.961 . S
C420 H422 0.961 . S
C420 H423 0.960 . S
H421 C420 0.961 . S
H422 C420 0.961 . S
H423 C420 0.960 . S
C424 N425 1.342 . S
C424 C428 1.401 . S
C424 C429 1.499 1_554 S
N425 Co408 1.989 1_554 S
N425 C424 1.342 . S
N425 N426 1.388 . S
N426 Co409 1.993 . S
N426 N425 1.388 . S
N426 C427 1.346 . S
C427 N426 1.346 . S
C427 C428 1.396 . S
C427 C437 1.510 . S
C428 C424 1.401 . S
C428 C427 1.396 . S
C429 C424 1.499 1_556 S
C429 H430 0.959 . S
C429 H431 0.960 . S
C429 H432 0.961 . S
H430 C429 0.959 . S
H431 C429 0.960 . S
H432 C429 0.961 . S
O433 Co408 1.967 1_554 S
O433 C441 1.258 . S
O434 Co409 1.941 . S
O434 C441 1.266 . S
H435 C437 0.959 . S
H436 C437 0.961 . S
C437 C427 1.510 . S
C437 H435 0.959 . S
C437 H436 0.961 . S
C437 H438 0.960 . S
H438 C437 0.960 . S
H439 N419 0.862 . S
O440 Co408 1.920 . S
O440 C413 1.289 . S
C441 O433 1.258 . S
C441 O434 1.266 . S
Co442 O445 1.970 . S
Co442 N459 1.989 . S
Co442 O467 1.967 . S
Co442 O474 1.920 . S
Co443 O446 1.966 . S
Co443 N452 2.022 1_556 S
Co443 N460 1.993 . S
Co443 O468 1.941 . S
C444 O445 1.258 . S
C444 O446 1.263 . S
O445 Co442 1.970 . S
O445 C444 1.258 . S
O446 Co443 1.966 . S
O446 C444 1.263 . S
C447 O448 1.235 . S
C447 O474 1.289 . S
O448 C447 1.235 . S
C449 C451 1.400 . S
C449 N452 1.351 . S
C449 C454 1.501 . S
C450 C451 1.387 . S
C450 N453 1.341 . S
C451 C449 1.400 . S
C451 C450 1.387 . S
N452 Co443 2.022 1_554 S
N452 C449 1.351 . S
N452 N453 1.365 . S
N453 C450 1.341 . S
N453 N452 1.365 . S
N453 H473 0.862 . S
C454 C449 1.501 . S
C454 H455 0.961 . S
C454 H456 0.961 . S
C454 H457 0.960 . S
H455 C454 0.961 . S
H456 C454 0.961 . S
H457 C454 0.960 . S
C458 N459 1.342 . S
C458 C462 1.401 . S
C458 C463 1.499 . S
N459 Co442 1.989 . S
N459 C458 1.342 . S
N459 N460 1.388 . S
N460 Co443 1.993 . S
N460 N459 1.388 . S
N460 C461 1.346 . S
C461 N460 1.346 . S
C461 C462 1.396 . S
C461 C471 1.510 . S
C462 C458 1.401 . S
C462 C461 1.396 . S
C463 C458 1.499 . S
C463 H464 0.959 . S
C463 H465 0.960 . S
C463 H466 0.961 . S
H464 C463 0.959 . S
H465 C463 0.960 . S
H466 C463 0.961 . S
O467 Co442 1.967 . S
O467 C475 1.258 . S
O468 Co443 1.941 . S
O468 C475 1.266 . S
H469 C471 0.959 1_554 S
H470 C471 0.961 1_554 S
C471 C461 1.510 . S
C471 H469 0.959 1_556 S
C471 H470 0.961 1_556 S
C471 H472 0.960 1_556 S
H472 C471 0.960 1_554 S
H473 N453 0.862 . S
O474 Co442 1.920 . S
O474 C447 1.289 . S
C475 O467 1.258 . S
C475 O468 1.266 . S
Co476 O479 1.970 . S
Co476 N493 1.989 . S
Co476 O501 1.967 . S
Co476 O508 1.920 . S
Co477 O480 1.966 . S
Co477 N486 2.022 . S
Co477 N494 1.993 . S
Co477 O502 1.941 . S
C478 O479 1.258 . S
C478 O480 1.263 . S
O479 Co476 1.970 . S
O479 C478 1.258 . S
O480 Co477 1.966 . S
O480 C478 1.263 . S
C481 O482 1.235 . S
C481 O508 1.289 . S
O482 C481 1.235 . S
C483 C485 1.400 . S
C483 N486 1.351 . S
C483 C488 1.501 . S
C484 C485 1.387 . S
C484 N487 1.341 . S
C485 C483 1.400 . S
C485 C484 1.387 . S
N486 Co477 2.022 . S
N486 C483 1.351 . S
N486 N487 1.365 . S
N487 C484 1.341 . S
N487 N486 1.365 . S
N487 H507 0.862 . S
C488 C483 1.501 . S
C488 H489 0.961 . S
C488 H490 0.961 . S
C488 H491 0.960 . S
H489 C488 0.961 . S
H490 C488 0.961 . S
H491 C488 0.960 . S
C492 N493 1.342 . S
C492 C496 1.401 . S
C492 C497 1.499 . S
N493 Co476 1.989 . S
N493 C492 1.342 . S
N493 N494 1.388 . S
N494 Co477 1.993 . S
N494 N493 1.388 . S
N494 C495 1.346 . S
C495 N494 1.346 . S
C495 C496 1.396 . S
C495 C505 1.510 . S
C496 C492 1.401 . S
C496 C495 1.396 . S
C497 C492 1.499 . S
C497 H498 0.959 . S
C497 H499 0.960 . S
C497 H500 0.961 . S
H498 C497 0.959 . S
H499 C497 0.960 . S
H500 C497 0.961 . S
O501 Co476 1.967 . S
O501 C509 1.258 . S
O502 Co477 1.941 . S
O502 C509 1.266 . S
H503 C505 0.959 . S
H504 C505 0.961 . S
C505 C495 1.510 . S
C505 H503 0.959 . S
C505 H504 0.961 . S
C505 H506 0.960 . S
H506 C505 0.960 . S
H507 N487 0.862 . S
O508 Co476 1.920 . S
O508 C481 1.289 . S
C509 O501 1.258 . S
C509 O502 1.266 . S
Co510 O513 1.970 . S
Co510 N527 1.989 . S
Co510 O535 1.967 . S
Co510 O542 1.920 . S
Co511 O514 1.966 . S
Co511 N520 2.022 . S
Co511 N528 1.993 . S
Co511 O536 1.941 . S
C512 O513 1.258 . S
C512 O514 1.263 . S
O513 Co510 1.970 . S
O513 C512 1.258 . S
O514 Co511 1.966 . S
O514 C512 1.263 . S
C515 O516 1.235 . S
C515 O542 1.289 . S
O516 C515 1.235 . S
C517 C519 1.400 . S
C517 N520 1.351 . S
C517 C522 1.501 . S
C518 C519 1.387 . S
C518 N521 1.341 . S
C519 C517 1.400 . S
C519 C518 1.387 . S
N520 Co511 2.022 . S
N520 C517 1.351 . S
N520 N521 1.365 . S
N521 C518 1.341 . S
N521 N520 1.365 . S
N521 H541 0.862 . S
C522 C517 1.501 . S
C522 H523 0.961 . S
C522 H524 0.961 . S
C522 H525 0.960 . S
H523 C522 0.961 . S
H524 C522 0.961 . S
H525 C522 0.960 . S
C526 N527 1.342 . S
C526 C530 1.401 . S
C526 C531 1.499 . S
N527 Co510 1.989 . S
N527 C526 1.342 . S
N527 N528 1.388 . S
N528 Co511 1.993 . S
N528 N527 1.388 . S
N528 C529 1.346 . S
C529 N528 1.346 . S
C529 C530 1.396 . S
C529 C539 1.510 . S
C530 C526 1.401 . S
C530 C529 1.396 . S
C531 C526 1.499 . S
C531 H532 0.959 . S
C531 H533 0.960 . S
C531 H534 0.961 . S
H532 C531 0.959 . S
H533 C531 0.960 . S
H534 C531 0.961 . S
O535 Co510 1.967 . S
O535 C543 1.258 . S
O536 Co511 1.941 . S
O536 C543 1.266 . S
H537 C539 0.959 . S
H538 C539 0.961 . S
C539 C529 1.510 . S
C539 H537 0.959 . S
C539 H538 0.961 . S
C539 H540 0.960 . S
H540 C539 0.960 . S
H541 N521 0.862 . S
O542 Co510 1.920 . S
O542 C515 1.289 . S
C543 O535 1.258 . S
C543 O536 1.266 . S
Co544 O547 1.970 . S
Co544 N561 1.989 . S
Co544 O569 1.967 . S
Co544 O576 1.920 . S
Co545 O548 1.966 . S
Co545 N554 2.022 . S
Co545 N562 1.993 . S
Co545 O570 1.941 . S
C546 O547 1.258 . S
C546 O548 1.263 . S
O547 Co544 1.970 . S
O547 C546 1.258 . S
O548 Co545 1.966 . S
O548 C546 1.263 . S
C549 O550 1.235 . S
C549 O576 1.289 . S
O550 C549 1.235 . S
C551 C553 1.400 . S
C551 N554 1.351 . S
C551 C556 1.501 . S
C552 C553 1.387 . S
C552 N555 1.341 . S
C553 C551 1.400 . S
C553 C552 1.387 . S
N554 Co545 2.022 . S
N554 C551 1.351 . S
N554 N555 1.365 . S
N555 C552 1.341 . S
N555 N554 1.365 . S
N555 H575 0.862 . S
C556 C551 1.501 . S
C556 H557 0.961 . S
C556 H558 0.961 . S
C556 H559 0.960 . S
H557 C556 0.961 . S
H558 C556 0.961 . S
H559 C556 0.960 . S
C560 N561 1.342 . S
C560 C564 1.401 . S
C560 C565 1.499 . S
N561 Co544 1.989 . S
N561 C560 1.342 . S
N561 N562 1.388 . S
N562 Co545 1.993 . S
N562 N561 1.388 . S
N562 C563 1.346 . S
C563 N562 1.346 . S
C563 C564 1.396 . S
C563 C573 1.510 . S
C564 C560 1.401 . S
C564 C563 1.396 . S
C565 C560 1.499 . S
C565 H566 0.959 . S
C565 H567 0.960 . S
C565 H568 0.961 . S
H566 C565 0.959 . S
H567 C565 0.960 . S
H568 C565 0.961 . S
O569 Co544 1.967 . S
O569 C577 1.258 . S
O570 Co545 1.941 . S
O570 C577 1.266 . S
H571 C573 0.959 . S
H572 C573 0.961 . S
C573 C563 1.510 . S
C573 H571 0.959 . S
C573 H572 0.961 . S
C573 H574 0.960 . S
H574 C573 0.960 . S
H575 N555 0.862 . S
O576 Co544 1.920 . S
O576 C549 1.289 . S
C577 O569 1.258 . S
C577 O570 1.266 . S
Co578 O581 1.970 . S
Co578 N595 1.989 . S
Co578 O603 1.967 . S
Co578 O610 1.920 . S
Co579 O582 1.966 . S
Co579 N588 2.022 1_556 S
Co579 N596 1.993 . S
Co579 O604 1.941 . S
C580 O581 1.258 . S
C580 O582 1.263 . S
O581 Co578 1.970 . S
O581 C580 1.258 . S
O582 Co579 1.966 . S
O582 C580 1.263 . S
C583 O584 1.235 . S
C583 O610 1.289 . S
O584 C583 1.235 . S
C585 C587 1.400 . S
C585 N588 1.351 . S
C585 C590 1.501 . S
C586 C587 1.387 . S
C586 N589 1.341 . S
C587 C585 1.400 . S
C587 C586 1.387 . S
N588 Co579 2.022 1_554 S
N588 C585 1.351 . S
N588 N589 1.365 . S
N589 C586 1.341 . S
N589 N588 1.365 . S
N589 H609 0.862 . S
C590 C585 1.501 . S
C590 H591 0.961 . S
C590 H592 0.961 . S
C590 H593 0.960 . S
H591 C590 0.961 . S
H592 C590 0.961 . S
H593 C590 0.960 . S
C594 N595 1.342 . S
C594 C598 1.401 . S
C594 C599 1.499 . S
N595 Co578 1.989 . S
N595 C594 1.342 . S
N595 N596 1.388 . S
N596 Co579 1.993 . S
N596 N595 1.388 . S
N596 C597 1.346 . S
C597 N596 1.346 . S
C597 C598 1.396 . S
C597 C607 1.510 . S
C598 C594 1.401 . S
C598 C597 1.396 . S
C599 C594 1.499 . S
C599 H600 0.959 . S
C599 H601 0.960 . S
C599 H602 0.961 . S
H600 C599 0.959 . S
H601 C599 0.960 . S
H602 C599 0.961 . S
O603 Co578 1.967 . S
O603 C611 1.258 . S
O604 Co579 1.941 . S
O604 C611 1.266 . S
H605 C607 0.959 1_554 S
H606 C607 0.961 1_554 S
C607 C597 1.510 . S
C607 H605 0.959 1_556 S
C607 H606 0.961 1_556 S
C607 H608 0.960 1_556 S
H608 C607 0.960 1_554 S
H609 N589 0.862 . S
O610 Co578 1.920 . S
O610 C583 1.289 . S
C611 O603 1.258 . S
C611 O604 1.266 . S
Co612 O615 1.970 1_556 S
Co612 N629 1.989 1_556 S
Co612 O637 1.967 1_556 S
Co612 O644 1.920 . S
Co613 O616 1.966 . S
Co613 N622 2.022 . S
Co613 N630 1.993 . S
Co613 O638 1.941 . S
C614 O615 1.258 . S
C614 O616 1.263 . S
O615 Co612 1.970 1_554 S
O615 C614 1.258 . S
O616 Co613 1.966 . S
O616 C614 1.263 . S
C617 O618 1.235 . S
C617 O644 1.289 . S
O618 C617 1.235 . S
C619 C621 1.400 . S
C619 N622 1.351 . S
C619 C624 1.501 . S
C620 C621 1.387 . S
C620 N623 1.341 . S
C621 C619 1.400 . S
C621 C620 1.387 . S
N622 Co613 2.022 . S
N622 C619 1.351 . S
N622 N623 1.365 . S
N623 C620 1.341 . S
N623 N622 1.365 . S
N623 H643 0.862 . S
C624 C619 1.501 . S
C624 H625 0.961 . S
C624 H626 0.961 . S
C624 H627 0.960 . S
H625 C624 0.961 . S
H626 C624 0.961 . S
H627 C624 0.960 . S
C628 N629 1.342 . S
C628 C632 1.401 . S
C628 C633 1.499 1_554 S
N629 Co612 1.989 1_554 S
N629 C628 1.342 . S
N629 N630 1.388 . S
N630 Co613 1.993 . S
N630 N629 1.388 . S
N630 C631 1.346 . S
C631 N630 1.346 . S
C631 C632 1.396 . S
C631 C641 1.510 . S
C632 C628 1.401 . S
C632 C631 1.396 . S
C633 C628 1.499 1_556 S
C633 H634 0.959 . S
C633 H635 0.960 . S
C633 H636 0.961 . S
H634 C633 0.959 . S
H635 C633 0.960 . S
H636 C633 0.961 . S
O637 Co612 1.967 1_554 S
O637 C645 1.258 . S
O638 Co613 1.941 . S
O638 C645 1.266 . S
H639 C641 0.959 . S
H640 C641 0.961 . S
C641 C631 1.510 . S
C641 H639 0.959 . S
C641 H640 0.961 . S
C641 H642 0.960 . S
H642 C641 0.960 . S
H643 N623 0.862 . S
O644 Co612 1.920 . S
O644 C617 1.289 . S
C645 O637 1.258 . S
C645 O638 1.266 . S
Co646 O649 1.970 . S
Co646 N663 1.989 . S
Co646 O671 1.967 . S
Co646 O678 1.920 . S
Co647 O650 1.966 . S
Co647 N656 2.022 . S
Co647 N664 1.993 . S
Co647 O672 1.941 . S
C648 O649 1.258 . S
C648 O650 1.263 . S
O649 Co646 1.970 . S
O649 C648 1.258 . S
O650 Co647 1.966 . S
O650 C648 1.263 . S
C651 O652 1.235 . S
C651 O678 1.289 . S
O652 C651 1.235 . S
C653 C655 1.400 . S
C653 N656 1.351 . S
C653 C658 1.501 . S
C654 C655 1.387 . S
C654 N657 1.341 . S
C655 C653 1.400 . S
C655 C654 1.387 . S
N656 Co647 2.022 . S
N656 C653 1.351 . S
N656 N657 1.365 . S
N657 C654 1.341 . S
N657 N656 1.365 . S
N657 H677 0.862 . S
C658 C653 1.501 . S
C658 H659 0.961 . S
C658 H660 0.961 . S
C658 H661 0.960 . S
H659 C658 0.961 . S
H660 C658 0.961 . S
H661 C658 0.960 . S
C662 N663 1.342 . S
C662 C666 1.401 . S
C662 C667 1.499 . S
N663 Co646 1.989 . S
N663 C662 1.342 . S
N663 N664 1.388 . S
N664 Co647 1.993 . S
N664 N663 1.388 . S
N664 C665 1.346 . S
C665 N664 1.346 . S
C665 C666 1.396 . S
C665 C675 1.510 . S
C666 C662 1.401 . S
C666 C665 1.396 . S
C667 C662 1.499 . S
C667 H668 0.959 . S
C667 H669 0.960 . S
C667 H670 0.961 . S
H668 C667 0.959 . S
H669 C667 0.960 . S
H670 C667 0.961 . S
O671 Co646 1.967 . S
O671 C679 1.258 . S
O672 Co647 1.941 . S
O672 C679 1.266 . S
H673 C675 0.959 . S
H674 C675 0.961 . S
C675 C665 1.510 . S
C675 H673 0.959 . S
C675 H674 0.961 . S
C675 H676 0.960 . S
H676 C675 0.960 . S
H677 N657 0.862 . S
O678 Co646 1.920 . S
O678 C651 1.289 . S
C679 O671 1.258 . S
C679 O672 1.266 . S
Co680 O683 1.970 . S
Co680 N697 1.989 . S
Co680 O705 1.967 . S
Co680 O712 1.920 . S
Co681 O684 1.966 . S
Co681 N690 2.022 . S
Co681 N698 1.993 . S
Co681 O706 1.941 . S
C682 O683 1.258 . S
C682 O684 1.263 . S
O683 Co680 1.970 . S
O683 C682 1.258 . S
O684 Co681 1.966 . S
O684 C682 1.263 . S
C685 O686 1.235 . S
C685 O712 1.289 . S
O686 C685 1.235 . S
C687 C689 1.400 . S
C687 N690 1.351 . S
C687 C692 1.501 . S
C688 C689 1.387 . S
C688 N691 1.341 . S
C689 C687 1.400 . S
C689 C688 1.387 . S
N690 Co681 2.022 . S
N690 C687 1.351 . S
N690 N691 1.365 . S
N691 C688 1.341 . S
N691 N690 1.365 . S
N691 H711 0.862 . S
C692 C687 1.501 . S
C692 H693 0.961 . S
C692 H694 0.961 . S
C692 H695 0.960 . S
H693 C692 0.961 . S
H694 C692 0.961 . S
H695 C692 0.960 . S
C696 N697 1.342 . S
C696 C700 1.401 . S
C696 C701 1.499 . S
N697 Co680 1.989 . S
N697 C696 1.342 . S
N697 N698 1.388 . S
N698 Co681 1.993 . S
N698 N697 1.388 . S
N698 C699 1.346 . S
C699 N698 1.346 . S
C699 C700 1.396 . S
C699 C709 1.510 . S
C700 C696 1.401 . S
C700 C699 1.396 . S
C701 C696 1.499 . S
C701 H702 0.959 . S
C701 H703 0.960 . S
C701 H704 0.961 . S
H702 C701 0.959 . S
H703 C701 0.960 . S
H704 C701 0.961 . S
O705 Co680 1.967 . S
O705 C713 1.258 . S
O706 Co681 1.941 . S
O706 C713 1.266 . S
H707 C709 0.959 . S
H708 C709 0.961 . S
C709 C699 1.510 . S
C709 H707 0.959 . S
C709 H708 0.961 . S
C709 H710 0.960 . S
H710 C709 0.960 . S
H711 N691 0.862 . S
O712 Co680 1.920 . S
O712 C685 1.289 . S
C713 O705 1.258 . S
C713 O706 1.266 . S
Co714 O717 1.970 . S
Co714 N731 1.989 . S
Co714 O739 1.967 . S
Co714 O746 1.920 . S
Co715 O718 1.966 . S
Co715 N724 2.022 . S
Co715 N732 1.993 . S
Co715 O740 1.941 . S
C716 O717 1.258 . S
C716 O718 1.263 . S
O717 Co714 1.970 . S
O717 C716 1.258 . S
O718 Co715 1.966 . S
O718 C716 1.263 . S
C719 O720 1.235 . S
C719 O746 1.289 . S
O720 C719 1.235 . S
C721 C723 1.400 . S
C721 N724 1.351 . S
C721 C726 1.501 . S
C722 C723 1.387 . S
C722 N725 1.341 . S
C723 C721 1.400 . S
C723 C722 1.387 . S
N724 Co715 2.022 . S
N724 C721 1.351 . S
N724 N725 1.365 . S
N725 C722 1.341 . S
N725 N724 1.365 . S
N725 H745 0.862 . S
C726 C721 1.501 . S
C726 H727 0.961 . S
C726 H728 0.961 . S
C726 H729 0.960 . S
H727 C726 0.961 . S
H728 C726 0.961 . S
H729 C726 0.960 . S
C730 N731 1.342 . S
C730 C734 1.401 . S
C730 C735 1.499 . S
N731 Co714 1.989 . S
N731 C730 1.342 . S
N731 N732 1.388 . S
N732 Co715 1.993 . S
N732 N731 1.388 . S
N732 C733 1.346 . S
C733 N732 1.346 . S
C733 C734 1.396 . S
C733 C743 1.510 . S
C734 C730 1.401 . S
C734 C733 1.396 . S
C735 C730 1.499 . S
C735 H736 0.959 . S
C735 H737 0.960 . S
C735 H738 0.961 . S
H736 C735 0.959 . S
H737 C735 0.960 . S
H738 C735 0.961 . S
O739 Co714 1.967 . S
O739 C747 1.258 . S
O740 Co715 1.941 . S
O740 C747 1.266 . S
H741 C743 0.959 . S
H742 C743 0.961 . S
C743 C733 1.510 . S
C743 H741 0.959 . S
C743 H742 0.961 . S
C743 H744 0.960 . S
H744 C743 0.960 . S
H745 N725 0.862 . S
O746 Co714 1.920 . S
O746 C719 1.289 . S
C747 O739 1.258 . S
C747 O740 1.266 . S
Co748 O751 1.970 1_554 S
Co748 N765 1.989 1_554 S
Co748 O773 1.967 1_554 S
Co748 O780 1.920 . S
Co749 O752 1.966 . S
Co749 N758 2.022 . S
Co749 N766 1.993 . S
Co749 O774 1.941 . S
C750 O751 1.258 . S
C750 O752 1.263 . S
O751 Co748 1.970 1_556 S
O751 C750 1.258 . S
O752 Co749 1.966 . S
O752 C750 1.263 . S
C753 O754 1.235 . S
C753 O780 1.289 . S
O754 C753 1.235 . S
C755 C757 1.400 . S
C755 N758 1.351 . S
C755 C760 1.501 . S
C756 C757 1.387 . S
C756 N759 1.341 . S
C757 C755 1.400 . S
C757 C756 1.387 . S
N758 Co749 2.022 . S
N758 C755 1.351 . S
N758 N759 1.365 . S
N759 C756 1.341 . S
N759 N758 1.365 . S
N759 H779 0.862 . S
C760 C755 1.501 . S
C760 H761 0.961 . S
C760 H762 0.961 . S
C760 H763 0.960 . S
H761 C760 0.961 . S
H762 C760 0.961 . S
H763 C760 0.960 . S
C764 N765 1.342 . S
C764 C768 1.401 . S
C764 C769 1.499 1_556 S
N765 Co748 1.989 1_556 S
N765 C764 1.342 . S
N765 N766 1.388 . S
N766 Co749 1.993 . S
N766 N765 1.388 . S
N766 C767 1.346 . S
C767 N766 1.346 . S
C767 C768 1.396 . S
C767 C777 1.510 . S
C768 C764 1.401 . S
C768 C767 1.396 . S
C769 C764 1.499 1_554 S
C769 H770 0.959 . S
C769 H771 0.960 . S
C769 H772 0.961 . S
H770 C769 0.959 . S
H771 C769 0.960 . S
H772 C769 0.961 . S
O773 Co748 1.967 1_556 S
O773 C781 1.258 . S
O774 Co749 1.941 . S
O774 C781 1.266 . S
H775 C777 0.959 . S
H776 C777 0.961 . S
C777 C767 1.510 . S
C777 H775 0.959 . S
C777 H776 0.961 . S
C777 H778 0.960 . S
H778 C777 0.960 . S
H779 N759 0.862 . S
O780 Co748 1.920 . S
O780 C753 1.289 . S
C781 O773 1.258 . S
C781 O774 1.266 . S
Co782 O785 1.970 . S
Co782 N799 1.989 . S
Co782 O807 1.967 . S
Co782 O814 1.920 . S
Co783 O786 1.966 . S
Co783 N792 2.022 1_554 S
Co783 N800 1.993 . S
Co783 O808 1.941 . S
C784 O785 1.258 . S
C784 O786 1.263 . S
O785 Co782 1.970 . S
O785 C784 1.258 . S
O786 Co783 1.966 . S
O786 C784 1.263 . S
C787 O788 1.235 . S
C787 O814 1.289 . S
O788 C787 1.235 . S
C789 C791 1.400 . S
C789 N792 1.351 . S
C789 C794 1.501 . S
C790 C791 1.387 . S
C790 N793 1.341 . S
C791 C789 1.400 . S
C791 C790 1.387 . S
N792 Co783 2.022 1_556 S
N792 C789 1.351 . S
N792 N793 1.365 . S
N793 C790 1.341 . S
N793 N792 1.365 . S
N793 H813 0.862 . S
C794 C789 1.501 . S
C794 H795 0.961 . S
C794 H796 0.961 . S
C794 H797 0.960 . S
H795 C794 0.961 . S
H796 C794 0.961 . S
H797 C794 0.960 . S
C798 N799 1.342 . S
C798 C802 1.401 . S
C798 C803 1.499 . S
N799 Co782 1.989 . S
N799 C798 1.342 . S
N799 N800 1.388 . S
N800 Co783 1.993 . S
N800 N799 1.388 . S
N800 C801 1.346 . S
C801 N800 1.346 . S
C801 C802 1.396 . S
C801 C811 1.510 . S
C802 C798 1.401 . S
C802 C801 1.396 . S
C803 C798 1.499 . S
C803 H804 0.959 . S
C803 H805 0.960 . S
C803 H806 0.961 . S
H804 C803 0.959 . S
H805 C803 0.960 . S
H806 C803 0.961 . S
O807 Co782 1.967 . S
O807 C815 1.258 . S
O808 Co783 1.941 . S
O808 C815 1.266 . S
H809 C811 0.959 1_556 S
H810 C811 0.961 1_556 S
C811 C801 1.510 . S
C811 H809 0.959 1_554 S
C811 H810 0.961 1_554 S
C811 H812 0.960 1_554 S
H812 C811 0.960 1_556 S
H813 N793 0.862 . S
O814 Co782 1.920 . S
O814 C787 1.289 . S
C815 O807 1.258 . S
C815 O808 1.266 . S
Co816 O819 1.970 . S
Co816 N833 1.989 . S
Co816 O841 1.967 . S
Co816 O848 1.920 . S
Co817 O820 1.966 . S
Co817 N826 2.022 . S
Co817 N834 1.993 . S
Co817 O842 1.941 . S
C818 O819 1.258 . S
C818 O820 1.263 . S
O819 Co816 1.970 . S
O819 C818 1.258 . S
O820 Co817 1.966 . S
O820 C818 1.263 . S
C821 O822 1.235 . S
C821 O848 1.289 . S
O822 C821 1.235 . S
C823 C825 1.400 . S
C823 N826 1.351 . S
C823 C828 1.501 . S
C824 C825 1.387 . S
C824 N827 1.341 . S
C825 C823 1.400 . S
C825 C824 1.387 . S
N826 Co817 2.022 . S
N826 C823 1.351 . S
N826 N827 1.365 . S
N827 C824 1.341 . S
N827 N826 1.365 . S
N827 H847 0.862 . S
C828 C823 1.501 . S
C828 H829 0.961 . S
C828 H830 0.961 . S
C828 H831 0.960 . S
H829 C828 0.961 . S
H830 C828 0.961 . S
H831 C828 0.960 . S
C832 N833 1.342 . S
C832 C836 1.401 . S
C832 C837 1.499 . S
N833 Co816 1.989 . S
N833 C832 1.342 . S
N833 N834 1.388 . S
N834 Co817 1.993 . S
N834 N833 1.388 . S
N834 C835 1.346 . S
C835 N834 1.346 . S
C835 C836 1.396 . S
C835 C845 1.510 . S
C836 C832 1.401 . S
C836 C835 1.396 . S
C837 C832 1.499 . S
C837 H838 0.959 . S
C837 H839 0.960 . S
C837 H840 0.961 . S
H838 C837 0.959 . S
H839 C837 0.960 . S
H840 C837 0.961 . S
O841 Co816 1.967 . S
O841 C849 1.258 . S
O842 Co817 1.941 . S
O842 C849 1.266 . S
H843 C845 0.959 . S
H844 C845 0.961 . S
C845 C835 1.510 . S
C845 H843 0.959 . S
C845 H844 0.961 . S
C845 H846 0.960 . S
H846 C845 0.960 . S
H847 N827 0.862 . S
O848 Co816 1.920 . S
O848 C821 1.289 . S
C849 O841 1.258 . S
C849 O842 1.266 . S
Co850 O853 1.970 . S
Co850 N867 1.989 . S
Co850 O875 1.967 . S
Co850 O882 1.920 . S
Co851 O854 1.966 . S
Co851 N860 2.022 1_554 S
Co851 N868 1.993 . S
Co851 O876 1.941 . S
C852 O853 1.258 . S
C852 O854 1.263 . S
O853 Co850 1.970 . S
O853 C852 1.258 . S
O854 Co851 1.966 . S
O854 C852 1.263 . S
C855 O856 1.235 . S
C855 O882 1.289 . S
O856 C855 1.235 . S
C857 C859 1.400 . S
C857 N860 1.351 . S
C857 C862 1.501 . S
C858 C859 1.387 . S
C858 N861 1.341 . S
C859 C857 1.400 . S
C859 C858 1.387 . S
N860 Co851 2.022 1_556 S
N860 C857 1.351 . S
N860 N861 1.365 . S
N861 C858 1.341 . S
N861 N860 1.365 . S
N861 H881 0.862 . S
C862 C857 1.501 . S
C862 H863 0.961 . S
C862 H864 0.961 . S
C862 H865 0.960 . S
H863 C862 0.961 . S
H864 C862 0.961 . S
H865 C862 0.960 . S
C866 N867 1.342 . S
C866 C870 1.401 . S
C866 C871 1.499 . S
N867 Co850 1.989 . S
N867 C866 1.342 . S
N867 N868 1.388 . S
N868 Co851 1.993 . S
N868 N867 1.388 . S
N868 C869 1.346 . S
C869 N868 1.346 . S
C869 C870 1.396 . S
C869 C879 1.510 . S
C870 C866 1.401 . S
C870 C869 1.396 . S
C871 C866 1.499 . S
C871 H872 0.959 . S
C871 H873 0.960 . S
C871 H874 0.961 . S
H872 C871 0.959 . S
H873 C871 0.960 . S
H874 C871 0.961 . S
O875 Co850 1.967 . S
O875 C883 1.258 . S
O876 Co851 1.941 . S
O876 C883 1.266 . S
H877 C879 0.959 1_556 S
H878 C879 0.961 1_556 S
C879 C869 1.510 . S
C879 H877 0.959 1_554 S
C879 H878 0.961 1_554 S
C879 H880 0.960 1_554 S
H880 C879 0.960 1_556 S
H881 N861 0.862 . S
O882 Co850 1.920 . S
O882 C855 1.289 . S
C883 O875 1.258 . S
C883 O876 1.266 . S
Co884 O887 1.970 1_554 S
Co884 N901 1.989 1_554 S
Co884 O909 1.967 1_554 S
Co884 O916 1.920 . S
Co885 O888 1.966 . S
Co885 N894 2.022 . S
Co885 N902 1.993 . S
Co885 O910 1.941 . S
C886 O887 1.258 . S
C886 O888 1.263 . S
O887 Co884 1.970 1_556 S
O887 C886 1.258 . S
O888 Co885 1.966 . S
O888 C886 1.263 . S
C889 O890 1.235 . S
C889 O916 1.289 . S
O890 C889 1.235 . S
C891 C893 1.400 . S
C891 N894 1.351 . S
C891 C896 1.501 . S
C892 C893 1.387 . S
C892 N895 1.341 . S
C893 C891 1.400 . S
C893 C892 1.387 . S
N894 Co885 2.022 . S
N894 C891 1.351 . S
N894 N895 1.365 . S
N895 C892 1.341 . S
N895 N894 1.365 . S
N895 H915 0.862 . S
C896 C891 1.501 . S
C896 H897 0.961 . S
C896 H898 0.961 . S
C896 H899 0.960 . S
H897 C896 0.961 . S
H898 C896 0.961 . S
H899 C896 0.960 . S
C900 N901 1.342 . S
C900 C904 1.401 . S
C900 C905 1.499 1_556 S
N901 Co884 1.989 1_556 S
N901 C900 1.342 . S
N901 N902 1.388 . S
N902 Co885 1.993 . S
N902 N901 1.388 . S
N902 C903 1.346 . S
C903 N902 1.346 . S
C903 C904 1.396 . S
C903 C913 1.510 . S
C904 C900 1.401 . S
C904 C903 1.396 . S
C905 C900 1.499 1_554 S
C905 H906 0.959 . S
C905 H907 0.960 . S
C905 H908 0.961 . S
H906 C905 0.959 . S
H907 C905 0.960 . S
H908 C905 0.961 . S
O909 Co884 1.967 1_556 S
O909 C917 1.258 . S
O910 Co885 1.941 . S
O910 C917 1.266 . S
H911 C913 0.959 . S
H912 C913 0.961 . S
C913 C903 1.510 . S
C913 H911 0.959 . S
C913 H912 0.961 . S
C913 H914 0.960 . S
H914 C913 0.960 . S
H915 N895 0.862 . S
O916 Co884 1.920 . S
O916 C889 1.289 . S
C917 O909 1.258 . S
C917 O910 1.266 . S
Co918 O921 1.970 . S
Co918 N935 1.989 . S
Co918 O943 1.967 . S
Co918 O950 1.920 . S
Co919 O922 1.966 . S
Co919 N928 2.022 . S
Co919 N936 1.993 . S
Co919 O944 1.941 . S
C920 O921 1.258 . S
C920 O922 1.263 . S
O921 Co918 1.970 . S
O921 C920 1.258 . S
O922 Co919 1.966 . S
O922 C920 1.263 . S
C923 O924 1.235 . S
C923 O950 1.289 . S
O924 C923 1.235 . S
C925 C927 1.400 . S
C925 N928 1.351 . S
C925 C930 1.501 . S
C926 C927 1.387 . S
C926 N929 1.341 . S
C927 C925 1.400 . S
C927 C926 1.387 . S
N928 Co919 2.022 . S
N928 C925 1.351 . S
N928 N929 1.365 . S
N929 C926 1.341 . S
N929 N928 1.365 . S
N929 H949 0.862 . S
C930 C925 1.501 . S
C930 H931 0.961 . S
C930 H932 0.961 . S
C930 H933 0.960 . S
H931 C930 0.961 . S
H932 C930 0.961 . S
H933 C930 0.960 . S
C934 N935 1.342 . S
C934 C938 1.401 . S
C934 C939 1.499 . S
N935 Co918 1.989 . S
N935 C934 1.342 . S
N935 N936 1.388 . S
N936 Co919 1.993 . S
N936 N935 1.388 . S
N936 C937 1.346 . S
C937 N936 1.346 . S
C937 C938 1.396 . S
C937 C947 1.510 . S
C938 C934 1.401 . S
C938 C937 1.396 . S
C939 C934 1.499 . S
C939 H940 0.959 . S
C939 H941 0.960 . S
C939 H942 0.961 . S
H940 C939 0.959 . S
H941 C939 0.960 . S
H942 C939 0.961 . S
O943 Co918 1.967 . S
O943 C951 1.258 . S
O944 Co919 1.941 . S
O944 C951 1.266 . S
H945 C947 0.959 . S
H946 C947 0.961 . S
C947 C937 1.510 . S
C947 H945 0.959 . S
C947 H946 0.961 . S
C947 H948 0.960 . S
H948 C947 0.960 . S
H949 N929 0.862 . S
O950 Co918 1.920 . S
O950 C923 1.289 . S
C951 O943 1.258 . S
C951 O944 1.266 . S
Co952 O955 1.970 . S
Co952 N969 1.989 . S
Co952 O977 1.967 . S
Co952 O984 1.920 . S
Co953 O956 1.966 . S
Co953 N962 2.022 . S
Co953 N970 1.993 . S
Co953 O978 1.941 . S
C954 O955 1.258 . S
C954 O956 1.263 . S
O955 Co952 1.970 . S
O955 C954 1.258 . S
O956 Co953 1.966 . S
O956 C954 1.263 . S
C957 O958 1.235 . S
C957 O984 1.289 . S
O958 C957 1.235 . S
C959 C961 1.400 . S
C959 N962 1.351 . S
C959 C964 1.501 . S
C960 C961 1.387 . S
C960 N963 1.341 . S
C961 C959 1.400 . S
C961 C960 1.387 . S
N962 Co953 2.022 . S
N962 C959 1.351 . S
N962 N963 1.365 . S
N963 C960 1.341 . S
N963 N962 1.365 . S
N963 H983 0.862 . S
C964 C959 1.501 . S
C964 H965 0.961 . S
C964 H966 0.961 . S
C964 H967 0.960 . S
H965 C964 0.961 . S
H966 C964 0.961 . S
H967 C964 0.960 . S
C968 N969 1.342 . S
C968 C972 1.401 . S
C968 C973 1.499 . S
N969 Co952 1.989 . S
N969 C968 1.342 . S
N969 N970 1.388 . S
N970 Co953 1.993 . S
N970 N969 1.388 . S
N970 C971 1.346 . S
C971 N970 1.346 . S
C971 C972 1.396 . S
C971 C981 1.510 . S
C972 C968 1.401 . S
C972 C971 1.396 . S
C973 C968 1.499 . S
C973 H974 0.959 . S
C973 H975 0.960 . S
C973 H976 0.961 . S
H974 C973 0.959 . S
H975 C973 0.960 . S
H976 C973 0.961 . S
O977 Co952 1.967 . S
O977 C985 1.258 . S
O978 Co953 1.941 . S
O978 C985 1.266 . S
H979 C981 0.959 . S
H980 C981 0.961 . S
C981 C971 1.510 . S
C981 H979 0.959 . S
C981 H980 0.961 . S
C981 H982 0.960 . S
H982 C981 0.960 . S
H983 N963 0.862 . S
O984 Co952 1.920 . S
O984 C957 1.289 . S
C985 O977 1.258 . S
C985 O978 1.266 . S
Co986 O989 1.970 . S
Co986 N1003 1.989 . S
Co986 O1011 1.967 . S
Co986 O1018 1.920 . S
Co987 O990 1.966 . S
Co987 N996 2.022 . S
Co987 N1004 1.993 . S
Co987 O1012 1.941 . S
C988 O989 1.258 . S
C988 O990 1.263 . S
O989 Co986 1.970 . S
O989 C988 1.258 . S
O990 Co987 1.966 . S
O990 C988 1.263 . S
C991 O992 1.235 . S
C991 O1018 1.289 . S
O992 C991 1.235 . S
C993 C995 1.400 . S
C993 N996 1.351 . S
C993 C998 1.501 . S
C994 C995 1.387 . S
C994 N997 1.341 . S
C995 C993 1.400 . S
C995 C994 1.387 . S
N996 Co987 2.022 . S
N996 C993 1.351 . S
N996 N997 1.365 . S
N997 C994 1.341 . S
N997 N996 1.365 . S
N997 H1017 0.862 . S
C998 C993 1.501 . S
C998 H999 0.961 . S
C998 H1000 0.961 . S
C998 H1001 0.960 . S
H999 C998 0.961 . S
H1000 C998 0.961 . S
H1001 C998 0.960 . S
C1002 N1003 1.342 . S
C1002 C1006 1.401 . S
C1002 C1007 1.499 . S
N1003 Co986 1.989 . S
N1003 C1002 1.342 . S
N1003 N1004 1.388 . S
N1004 Co987 1.993 . S
N1004 N1003 1.388 . S
N1004 C1005 1.346 . S
C1005 N1004 1.346 . S
C1005 C1006 1.396 . S
C1005 C1015 1.510 . S
C1006 C1002 1.401 . S
C1006 C1005 1.396 . S
C1007 C1002 1.499 . S
C1007 H1008 0.959 . S
C1007 H1009 0.960 . S
C1007 H1010 0.961 . S
H1008 C1007 0.959 . S
H1009 C1007 0.960 . S
H1010 C1007 0.961 . S
O1011 Co986 1.967 . S
O1011 C1019 1.258 . S
O1012 Co987 1.941 . S
O1012 C1019 1.266 . S
H1013 C1015 0.959 . S
H1014 C1015 0.961 . S
C1015 C1005 1.510 . S
C1015 H1013 0.959 . S
C1015 H1014 0.961 . S
C1015 H1016 0.960 . S
H1016 C1015 0.960 . S
H1017 N997 0.862 . S
O1018 Co986 1.920 . S
O1018 C991 1.289 . S
C1019 O1011 1.258 . S
C1019 O1012 1.266 . S
Co1020 O1023 1.970 1_556 S
Co1020 N1037 1.989 1_556 S
Co1020 O1045 1.967 1_556 S
Co1020 O1052 1.920 . S
Co1021 O1024 1.966 . S
Co1021 N1030 2.022 . S
Co1021 N1038 1.993 . S
Co1021 O1046 1.941 . S
C1022 O1023 1.258 . S
C1022 O1024 1.263 . S
O1023 Co1020 1.970 1_554 S
O1023 C1022 1.258 . S
O1024 Co1021 1.966 . S
O1024 C1022 1.263 . S
C1025 O1026 1.235 . S
C1025 O1052 1.289 . S
O1026 C1025 1.235 . S
C1027 C1029 1.400 . S
C1027 N1030 1.351 . S
C1027 C1032 1.501 . S
C1028 C1029 1.387 . S
C1028 N1031 1.341 . S
C1029 C1027 1.400 . S
C1029 C1028 1.387 . S
N1030 Co1021 2.022 . S
N1030 C1027 1.351 . S
N1030 N1031 1.365 . S
N1031 C1028 1.341 . S
N1031 N1030 1.365 . S
N1031 H1051 0.862 . S
C1032 C1027 1.501 . S
C1032 H1033 0.961 . S
C1032 H1034 0.961 . S
C1032 H1035 0.960 . S
H1033 C1032 0.961 . S
H1034 C1032 0.961 . S
H1035 C1032 0.960 . S
C1036 N1037 1.342 . S
C1036 C1040 1.401 . S
C1036 C1041 1.499 1_554 S
N1037 Co1020 1.989 1_554 S
N1037 C1036 1.342 . S
N1037 N1038 1.388 . S
N1038 Co1021 1.993 . S
N1038 N1037 1.388 . S
N1038 C1039 1.346 . S
C1039 N1038 1.346 . S
C1039 C1040 1.396 . S
C1039 C1049 1.510 . S
C1040 C1036 1.401 . S
C1040 C1039 1.396 . S
C1041 C1036 1.499 1_556 S
C1041 H1042 0.959 . S
C1041 H1043 0.960 . S
C1041 H1044 0.961 . S
H1042 C1041 0.959 . S
H1043 C1041 0.960 . S
H1044 C1041 0.961 . S
O1045 Co1020 1.967 1_554 S
O1045 C1053 1.258 . S
O1046 Co1021 1.941 . S
O1046 C1053 1.266 . S
H1047 C1049 0.959 . S
H1048 C1049 0.961 . S
C1049 C1039 1.510 . S
C1049 H1047 0.959 . S
C1049 H1048 0.961 . S
C1049 H1050 0.960 . S
H1050 C1049 0.960 . S
H1051 N1031 0.862 . S
O1052 Co1020 1.920 . S
O1052 C1025 1.289 . S
C1053 O1045 1.258 . S
C1053 O1046 1.266 . S
Co1054 O1057 1.970 . S
Co1054 N1071 1.989 . S
Co1054 O1079 1.967 . S
Co1054 O1086 1.920 . S
Co1055 O1058 1.966 . S
Co1055 N1064 2.022 1_556 S
Co1055 N1072 1.993 . S
Co1055 O1080 1.941 . S
C1056 O1057 1.258 . S
C1056 O1058 1.263 . S
O1057 Co1054 1.970 . S
O1057 C1056 1.258 . S
O1058 Co1055 1.966 . S
O1058 C1056 1.263 . S
C1059 O1060 1.235 . S
C1059 O1086 1.289 . S
O1060 C1059 1.235 . S
C1061 C1063 1.400 . S
C1061 N1064 1.351 . S
C1061 C1066 1.501 . S
C1062 C1063 1.387 . S
C1062 N1065 1.341 . S
C1063 C1061 1.400 . S
C1063 C1062 1.387 . S
N1064 Co1055 2.022 1_554 S
N1064 C1061 1.351 . S
N1064 N1065 1.365 . S
N1065 C1062 1.341 . S
N1065 N1064 1.365 . S
N1065 H1085 0.862 . S
C1066 C1061 1.501 . S
C1066 H1067 0.961 . S
C1066 H1068 0.961 . S
C1066 H1069 0.960 . S
H1067 C1066 0.961 . S
H1068 C1066 0.961 . S
H1069 C1066 0.960 . S
C1070 N1071 1.342 . S
C1070 C1074 1.401 . S
C1070 C1075 1.499 . S
N1071 Co1054 1.989 . S
N1071 C1070 1.342 . S
N1071 N1072 1.388 . S
N1072 Co1055 1.993 . S
N1072 N1071 1.388 . S
N1072 C1073 1.346 . S
C1073 N1072 1.346 . S
C1073 C1074 1.396 . S
C1073 C1083 1.510 . S
C1074 C1070 1.401 . S
C1074 C1073 1.396 . S
C1075 C1070 1.499 . S
C1075 H1076 0.959 . S
C1075 H1077 0.960 . S
C1075 H1078 0.961 . S
H1076 C1075 0.959 . S
H1077 C1075 0.960 . S
H1078 C1075 0.961 . S
O1079 Co1054 1.967 . S
O1079 C1087 1.258 . S
O1080 Co1055 1.941 . S
O1080 C1087 1.266 . S
H1081 C1083 0.959 1_554 S
H1082 C1083 0.961 1_554 S
C1083 C1073 1.510 . S
C1083 H1081 0.959 1_556 S
C1083 H1082 0.961 1_556 S
C1083 H1084 0.960 1_556 S
H1084 C1083 0.960 1_554 S
H1085 N1065 0.862 . S
O1086 Co1054 1.920 . S
O1086 C1059 1.289 . S
C1087 O1079 1.258 . S
C1087 O1080 1.266 . S
H1088 C1094 0.930 . S
H1089 C1097 0.930 . S
H1090 C1098 0.930 . S
H1091 C1099 0.930 . S
H1092 C1102 0.930 . S
H1093 C1103 0.930 . S
C1094 H1088 0.930 . S
C1094 C1095 1.355 . S
C1094 C1096 1.415 . S
C1095 C1094 1.355 . S
C1095 C1097 1.419 . S
C1096 C1094 1.415 . S
C1096 C1101 1.425 . S
C1096 C1103 1.409 . S
C1097 H1089 0.930 . S
C1097 C1095 1.419 . S
C1097 C1098 1.362 . S
C1098 H1090 0.930 . S
C1098 C1097 1.362 . S
C1098 C1101 1.409 . S
C1099 H1091 0.930 . S
C1099 C1100 1.355 . S
C1099 C1101 1.415 . S
C1100 C1099 1.355 . S
C1100 C1102 1.419 . S
C1101 C1096 1.425 . S
C1101 C1098 1.409 . S
C1101 C1099 1.415 . S
C1102 H1092 0.930 . S
C1102 C1100 1.419 . S
C1102 C1103 1.362 . S
C1103 H1093 0.930 . S
C1103 C1096 1.409 . S
C1103 C1102 1.362 . S
H1104 C1110 0.930 . S
H1105 C1113 0.930 . S
H1106 C1114 0.930 . S
H1107 C1115 0.930 . S
H1108 C1118 0.930 1_554 S
H1109 C1119 0.930 . S
C1110 H1104 0.930 . S
C1110 C1111 1.355 . S
C1110 C1112 1.415 . S
C1111 C1110 1.355 . S
C1111 C1113 1.419 . S
C1112 C1110 1.415 . S
C1112 C1117 1.425 . S
C1112 C1119 1.409 . S
C1113 H1105 0.930 . S
C1113 C1111 1.419 . S
C1113 C1114 1.362 . S
C1114 H1106 0.930 . S
C1114 C1113 1.362 . S
C1114 C1117 1.409 . S
C1115 H1107 0.930 . S
C1115 C1116 1.355 1_556 S
C1115 C1117 1.415 . S
C1116 C1115 1.355 1_554 S
C1116 C1118 1.419 1_554 S
C1117 C1112 1.425 . S
C1117 C1114 1.409 . S
C1117 C1115 1.415 . S
C1118 H1108 0.930 1_556 S
C1118 C1116 1.419 1_556 S
C1118 C1119 1.362 . S
C1119 H1109 0.930 . S
C1119 C1112 1.409 . S
C1119 C1118 1.362 . S
H1120 C1126 0.930 . S
H1121 C1129 0.930 1_556 S
H1122 C1130 0.930 . S
H1123 C1131 0.930 . S
H1124 C1134 0.930 . S
H1125 C1135 0.930 . S
C1126 H1120 0.930 . S
C1126 C1127 1.355 1_554 S
C1126 C1128 1.415 . S
C1127 C1126 1.355 1_556 S
C1127 C1129 1.419 1_556 S
C1128 C1126 1.415 . S
C1128 C1133 1.425 . S
C1128 C1135 1.409 . S
C1129 H1121 0.930 1_554 S
C1129 C1127 1.419 1_554 S
C1129 C1130 1.362 . S
C1130 H1122 0.930 . S
C1130 C1129 1.362 . S
C1130 C1133 1.409 . S
C1131 H1123 0.930 . S
C1131 C1132 1.355 . S
C1131 C1133 1.415 . S
C1132 C1131 1.355 . S
C1132 C1134 1.419 . S
C1133 C1128 1.425 . S
C1133 C1130 1.409 . S
C1133 C1131 1.415 . S
C1134 H1124 0.930 . S
C1134 C1132 1.419 . S
C1134 C1135 1.362 . S
C1135 H1125 0.930 . S
C1135 C1128 1.409 . S
C1135 C1134 1.362 . S
H1136 C1142 0.930 . S
H1137 C1145 0.930 . S
H1138 C1146 0.930 . S
H1139 C1147 0.930 . S
H1140 C1150 0.930 . S
H1141 C1151 0.930 . S
C1142 H1136 0.930 . S
C1142 C1143 1.355 . S
C1142 C1144 1.415 . S
C1143 C1142 1.355 . S
C1143 C1145 1.419 . S
C1144 C1142 1.415 . S
C1144 C1149 1.425 . S
C1144 C1151 1.409 . S
C1145 H1137 0.930 . S
C1145 C1143 1.419 . S
C1145 C1146 1.362 . S
C1146 H1138 0.930 . S
C1146 C1145 1.362 . S
C1146 C1149 1.409 . S
C1147 H1139 0.930 . S
C1147 C1148 1.355 . S
C1147 C1149 1.415 . S
C1148 C1147 1.355 . S
C1148 C1150 1.419 . S
C1149 C1144 1.425 . S
C1149 C1146 1.409 . S
C1149 C1147 1.415 . S
C1150 H1140 0.930 . S
C1150 C1148 1.419 . S
C1150 C1151 1.362 . S
C1151 H1141 0.930 . S
C1151 C1144 1.409 . S
C1151 C1150 1.362 . S
H1152 C1158 0.930 . S
H1153 C1161 0.930 . S
H1154 C1162 0.930 . S
H1155 C1163 0.930 . S
H1156 C1166 0.930 . S
H1157 C1167 0.930 . S
C1158 H1152 0.930 . S
C1158 C1159 1.355 . S
C1158 C1160 1.415 . S
C1159 C1158 1.355 . S
C1159 C1161 1.419 . S
C1160 C1158 1.415 . S
C1160 C1165 1.425 . S
C1160 C1167 1.409 . S
C1161 H1153 0.930 . S
C1161 C1159 1.419 . S
C1161 C1162 1.362 . S
C1162 H1154 0.930 . S
C1162 C1161 1.362 . S
C1162 C1165 1.409 . S
C1163 H1155 0.930 . S
C1163 C1164 1.355 . S
C1163 C1165 1.415 . S
C1164 C1163 1.355 . S
C1164 C1166 1.419 . S
C1165 C1160 1.425 . S
C1165 C1162 1.409 . S
C1165 C1163 1.415 . S
C1166 H1156 0.930 . S
C1166 C1164 1.419 . S
C1166 C1167 1.362 . S
C1167 H1157 0.930 . S
C1167 C1160 1.409 . S
C1167 C1166 1.362 . S
H1168 C1174 0.930 . S
H1169 C1177 0.930 . S
H1170 C1178 0.930 . S
H1171 C1179 0.930 . S
H1172 C1182 0.930 . S
H1173 C1183 0.930 . S
C1174 H1168 0.930 . S
C1174 C1175 1.355 . S
C1174 C1176 1.415 . S
C1175 C1174 1.355 . S
C1175 C1177 1.419 . S
C1176 C1174 1.415 . S
C1176 C1181 1.425 . S
C1176 C1183 1.409 . S
C1177 H1169 0.930 . S
C1177 C1175 1.419 . S
C1177 C1178 1.362 . S
C1178 H1170 0.930 . S
C1178 C1177 1.362 . S
C1178 C1181 1.409 . S
C1179 H1171 0.930 . S
C1179 C1180 1.355 . S
C1179 C1181 1.415 . S
C1180 C1179 1.355 . S
C1180 C1182 1.419 . S
C1181 C1176 1.425 . S
C1181 C1178 1.409 . S
C1181 C1179 1.415 . S
C1182 H1172 0.930 . S
C1182 C1180 1.419 . S
C1182 C1183 1.362 . S
C1183 H1173 0.930 . S
C1183 C1176 1.409 . S
C1183 C1182 1.362 . S
H1184 C1190 0.930 . S
H1185 C1193 0.930 . S
H1186 C1194 0.930 . S
H1187 C1195 0.930 . S
H1188 C1198 0.930 1_554 S
H1189 C1199 0.930 . S
C1190 H1184 0.930 . S
C1190 C1191 1.355 . S
C1190 C1192 1.415 . S
C1191 C1190 1.355 . S
C1191 C1193 1.419 . S
C1192 C1190 1.415 . S
C1192 C1197 1.425 . S
C1192 C1199 1.409 . S
C1193 H1185 0.930 . S
C1193 C1191 1.419 . S
C1193 C1194 1.362 . S
C1194 H1186 0.930 . S
C1194 C1193 1.362 . S
C1194 C1197 1.409 . S
C1195 H1187 0.930 . S
C1195 C1196 1.355 1_556 S
C1195 C1197 1.415 . S
C1196 C1195 1.355 1_554 S
C1196 C1198 1.419 1_554 S
C1197 C1192 1.425 . S
C1197 C1194 1.409 . S
C1197 C1195 1.415 . S
C1198 H1188 0.930 1_556 S
C1198 C1196 1.419 1_556 S
C1198 C1199 1.362 . S
C1199 H1189 0.930 . S
C1199 C1192 1.409 . S
C1199 C1198 1.362 . S
H1200 C1206 0.930 . S
H1201 C1209 0.930 1_556 S
H1202 C1210 0.930 . S
H1203 C1211 0.930 . S
H1204 C1214 0.930 . S
H1205 C1215 0.930 . S
C1206 H1200 0.930 . S
C1206 C1207 1.355 1_554 S
C1206 C1208 1.415 . S
C1207 C1206 1.355 1_556 S
C1207 C1209 1.419 1_556 S
C1208 C1206 1.415 . S
C1208 C1213 1.425 . S
C1208 C1215 1.409 . S
C1209 H1201 0.930 1_554 S
C1209 C1207 1.419 1_554 S
C1209 C1210 1.362 . S
C1210 H1202 0.930 . S
C1210 C1209 1.362 . S
C1210 C1213 1.409 . S
C1211 H1203 0.930 . S
C1211 C1212 1.355 . S
C1211 C1213 1.415 . S
C1212 C1211 1.355 . S
C1212 C1214 1.419 . S
C1213 C1208 1.425 . S
C1213 C1210 1.409 . S
C1213 C1211 1.415 . S
C1214 H1204 0.930 . S
C1214 C1212 1.419 . S
C1214 C1215 1.362 . S
C1215 H1205 0.930 . S
C1215 C1208 1.409 . S
C1215 C1214 1.362 . S
H1216 C1222 0.930 . S
H1217 C1225 0.930 . S
H1218 C1226 0.930 . S
H1219 C1227 0.930 . S
H1220 C1230 0.930 . S
H1221 C1231 0.930 . S
C1222 H1216 0.930 . S
C1222 C1223 1.355 . S
C1222 C1224 1.415 . S
C1223 C1222 1.355 . S
C1223 C1225 1.419 . S
C1224 C1222 1.415 . S
C1224 C1229 1.425 . S
C1224 C1231 1.409 . S
C1225 H1217 0.930 . S
C1225 C1223 1.419 . S
C1225 C1226 1.362 . S
C1226 H1218 0.930 . S
C1226 C1225 1.362 . S
C1226 C1229 1.409 . S
C1227 H1219 0.930 . S
C1227 C1228 1.355 . S
C1227 C1229 1.415 . S
C1228 C1227 1.355 . S
C1228 C1230 1.419 . S
C1229 C1224 1.425 . S
C1229 C1226 1.409 . S
C1229 C1227 1.415 . S
C1230 H1220 0.930 . S
C1230 C1228 1.419 . S
C1230 C1231 1.362 . S
C1231 H1221 0.930 . S
C1231 C1224 1.409 . S
C1231 C1230 1.362 . S
H1232 C1238 0.930 . S
H1233 C1241 0.930 1_556 S
H1234 C1242 0.930 . S
H1235 C1243 0.930 . S
H1236 C1246 0.930 . S
H1237 C1247 0.930 . S
C1238 H1232 0.930 . S
C1238 C1239 1.355 1_554 S
C1238 C1240 1.415 . S
C1239 C1238 1.355 1_556 S
C1239 C1241 1.419 1_556 S
C1240 C1238 1.415 . S
C1240 C1245 1.425 . S
C1240 C1247 1.409 . S
C1241 H1233 0.930 1_554 S
C1241 C1239 1.419 1_554 S
C1241 C1242 1.362 . S
C1242 H1234 0.930 . S
C1242 C1241 1.362 . S
C1242 C1245 1.409 . S
C1243 H1235 0.930 . S
C1243 C1244 1.355 . S
C1243 C1245 1.415 . S
C1244 C1243 1.355 . S
C1244 C1246 1.419 . S
C1245 C1240 1.425 . S
C1245 C1242 1.409 . S
C1245 C1243 1.415 . S
C1246 H1236 0.930 . S
C1246 C1244 1.419 . S
C1246 C1247 1.362 . S
C1247 H1237 0.930 . S
C1247 C1240 1.409 . S
C1247 C1246 1.362 . S
H1248 C1254 0.930 . S
H1249 C1257 0.930 . S
H1250 C1258 0.930 . S
H1251 C1259 0.930 . S
H1252 C1262 0.934 . S
H1253 C1263 0.930 . S
C1254 H1248 0.930 . S
C1254 C1255 1.355 . S
C1254 C1256 1.415 . S
C1255 C1254 1.355 . S
C1255 C1257 1.419 . S
C1256 C1254 1.415 . S
C1256 C1261 1.425 . S
C1256 C1263 1.409 . S
C1257 H1249 0.930 . S
C1257 C1255 1.419 . S
C1257 C1258 1.362 . S
C1258 H1250 0.930 . S
C1258 C1257 1.362 . S
C1258 C1261 1.409 . S
C1259 H1251 0.930 . S
C1259 C1260 1.355 1_556 S
C1259 C1261 1.415 . S
C1260 C1259 1.355 1_554 S
C1260 C1262 1.421 . S
C1261 C1256 1.425 . S
C1261 C1258 1.409 . S
C1261 C1259 1.415 . S
C1262 H1252 0.934 . S
C1262 C1260 1.421 . S
C1262 C1263 1.357 1_554 S
C1263 H1253 0.930 . S
C1263 C1256 1.409 . S
C1263 C1262 1.357 1_556 S
H1264 C1270 0.930 . S
H1265 C1273 0.930 . S
H1266 C1274 0.930 . S
H1267 C1275 0.930 . S
H1268 C1278 0.930 . S
H1269 C1279 0.930 . S
C1270 H1264 0.930 . S
C1270 C1271 1.355 . S
C1270 C1272 1.415 . S
C1271 C1270 1.355 . S
C1271 C1273 1.419 . S
C1272 C1270 1.415 . S
C1272 C1277 1.425 . S
C1272 C1279 1.409 . S
C1273 H1265 0.930 . S
C1273 C1271 1.419 . S
C1273 C1274 1.362 . S
C1274 H1266 0.930 . S
C1274 C1273 1.362 . S
C1274 C1277 1.409 . S
C1275 H1267 0.930 . S
C1275 C1276 1.355 . S
C1275 C1277 1.415 . S
C1276 C1275 1.355 . S
C1276 C1278 1.419 . S
C1277 C1272 1.425 . S
C1277 C1274 1.409 . S
C1277 C1275 1.415 . S
C1278 H1268 0.930 . S
C1278 C1276 1.419 . S
C1278 C1279 1.362 . S
C1279 H1269 0.930 . S
C1279 C1272 1.409 . S
C1279 C1278 1.362 . S
H1280 C1286 0.930 . S
H1281 C1289 0.930 . S
H1282 C1290 0.930 . S
H1283 C1291 0.930 . S
H1284 C1294 0.930 . S
H1285 C1295 0.930 . S
C1286 H1280 0.930 . S
C1286 C1287 1.355 . S
C1286 C1288 1.415 . S
C1287 C1286 1.355 . S
C1287 C1289 1.419 . S
C1288 C1286 1.415 . S
C1288 C1293 1.425 . S
C1288 C1295 1.409 . S
C1289 H1281 0.930 . S
C1289 C1287 1.419 . S
C1289 C1290 1.362 . S
C1290 H1282 0.930 . S
C1290 C1289 1.362 . S
C1290 C1293 1.409 . S
C1291 H1283 0.930 . S
C1291 C1292 1.355 . S
C1291 C1293 1.415 . S
C1292 C1291 1.355 . S
C1292 C1294 1.419 . S
C1293 C1288 1.425 . S
C1293 C1290 1.409 . S
C1293 C1291 1.415 . S
C1294 H1284 0.930 . S
C1294 C1292 1.419 . S
C1294 C1295 1.362 . S
C1295 H1285 0.930 . S
C1295 C1288 1.409 . S
C1295 C1294 1.362 . S
H1296 C1302 0.930 . S
H1297 C1305 0.930 . S
H1298 C1306 0.930 . S
H1299 C1307 0.930 . S
H1300 C1310 0.930 . S
H1301 C1311 0.930 . S
C1302 H1296 0.930 . S
C1302 C1303 1.355 . S
C1302 C1304 1.415 . S
C1303 C1302 1.355 . S
C1303 C1305 1.419 . S
C1304 C1302 1.415 . S
C1304 C1309 1.425 . S
C1304 C1311 1.409 . S
C1305 H1297 0.930 . S
C1305 C1303 1.419 . S
C1305 C1306 1.362 . S
C1306 H1298 0.930 . S
C1306 C1305 1.362 . S
C1306 C1309 1.409 . S
C1307 H1299 0.930 . S
C1307 C1308 1.355 . S
C1307 C1309 1.415 . S
C1308 C1307 1.355 . S
C1308 C1310 1.419 . S
C1309 C1304 1.425 . S
C1309 C1306 1.409 . S
C1309 C1307 1.415 . S
C1310 H1300 0.930 . S
C1310 C1308 1.419 . S
C1310 C1311 1.362 . S
C1311 H1301 0.930 . S
C1311 C1304 1.409 . S
C1311 C1310 1.362 . S
H1312 C1318 0.930 . S
H1313 C1321 0.930 1_556 S
H1314 C1322 0.930 . S
H1315 C1323 0.930 . S
H1316 C1326 0.930 . S
H1317 C1327 0.930 . S
C1318 H1312 0.930 . S
C1318 C1319 1.355 1_554 S
C1318 C1320 1.415 . S
C1319 C1318 1.355 1_556 S
C1319 C1321 1.419 1_556 S
C1320 C1318 1.415 . S
C1320 C1325 1.425 . S
C1320 C1327 1.409 . S
C1321 H1313 0.930 1_554 S
C1321 C1319 1.419 1_554 S
C1321 C1322 1.362 . S
C1322 H1314 0.930 . S
C1322 C1321 1.362 . S
C1322 C1325 1.409 . S
C1323 H1315 0.930 . S
C1323 C1324 1.355 . S
C1323 C1325 1.415 . S
C1324 C1323 1.355 . S
C1324 C1326 1.419 . S
C1325 C1320 1.425 . S
C1325 C1322 1.409 . S
C1325 C1323 1.415 . S
C1326 H1316 0.930 . S
C1326 C1324 1.419 . S
C1326 C1327 1.362 . S
C1327 H1317 0.930 . S
C1327 C1320 1.409 . S
C1327 C1326 1.362 . S
H1328 C1334 0.930 . S
H1329 C1337 0.930 1_554 S
H1330 C1338 0.930 . S
H1331 C1339 0.930 . S
H1332 C1342 0.930 . S
H1333 C1343 0.930 . S
C1334 H1328 0.930 . S
C1334 C1335 1.355 1_556 S
C1334 C1336 1.415 . S
C1335 C1334 1.355 1_554 S
C1335 C1337 1.419 1_554 S
C1336 C1334 1.415 . S
C1336 C1341 1.425 . S
C1336 C1343 1.409 . S
C1337 H1329 0.930 1_556 S
C1337 C1335 1.419 1_556 S
C1337 C1338 1.362 . S
C1338 H1330 0.930 . S
C1338 C1337 1.362 . S
C1338 C1341 1.409 . S
C1339 H1331 0.930 . S
C1339 C1340 1.355 . S
C1339 C1341 1.415 . S
C1340 C1339 1.355 . S
C1340 C1342 1.419 . S
C1341 C1336 1.425 . S
C1341 C1338 1.409 . S
C1341 C1339 1.415 . S
C1342 H1332 0.930 . S
C1342 C1340 1.419 . S
C1342 C1343 1.362 . S
C1343 H1333 0.930 . S
C1343 C1336 1.409 . S
C1343 C1342 1.362 . S
H1344 C1350 0.930 . S
H1345 C1353 0.930 1_556 S
H1346 C1354 0.930 . S
H1347 C1355 0.930 . S
H1348 C1358 0.930 . S
H1349 C1359 0.930 . S
C1350 H1344 0.930 . S
C1350 C1351 1.355 1_554 S
C1350 C1352 1.415 . S
C1351 C1350 1.355 1_556 S
C1351 C1353 1.419 1_556 S
C1352 C1350 1.415 . S
C1352 C1357 1.425 . S
C1352 C1359 1.409 . S
C1353 H1345 0.930 1_554 S
C1353 C1351 1.419 1_554 S
C1353 C1354 1.362 . S
C1354 H1346 0.930 . S
C1354 C1353 1.362 . S
C1354 C1357 1.409 . S
C1355 H1347 0.930 . S
C1355 C1356 1.355 . S
C1355 C1357 1.415 . S
C1356 C1355 1.355 . S
C1356 C1358 1.419 . S
C1357 C1352 1.425 . S
C1357 C1354 1.409 . S
C1357 C1355 1.415 . S
C1358 H1348 0.930 . S
C1358 C1356 1.419 . S
C1358 C1359 1.362 . S
C1359 H1349 0.930 . S
C1359 C1352 1.409 . S
C1359 C1358 1.362 . S
H1360 C1366 0.930 . S
H1361 C1369 0.930 . S
H1362 C1370 0.930 . S
H1363 C1371 0.930 . S
H1364 C1374 0.930 . S
H1365 C1375 0.930 . S
C1366 H1360 0.930 . S
C1366 C1367 1.355 . S
C1366 C1368 1.415 . S
C1367 C1366 1.355 . S
C1367 C1369 1.419 . S
C1368 C1366 1.415 . S
C1368 C1373 1.425 . S
C1368 C1375 1.409 . S
C1369 H1361 0.930 . S
C1369 C1367 1.419 . S
C1369 C1370 1.362 . S
C1370 H1362 0.930 . S
C1370 C1369 1.362 . S
C1370 C1373 1.409 . S
C1371 H1363 0.930 . S
C1371 C1372 1.355 . S
C1371 C1373 1.415 . S
C1372 C1371 1.355 . S
C1372 C1374 1.419 . S
C1373 C1368 1.425 . S
C1373 C1370 1.409 . S
C1373 C1371 1.415 . S
C1374 H1364 0.930 . S
C1374 C1372 1.419 . S
C1374 C1375 1.362 . S
C1375 H1365 0.930 . S
C1375 C1368 1.409 . S
C1375 C1374 1.362 . S
H1376 C1382 0.930 . S
H1377 C1385 0.930 . S
H1378 C1386 0.930 . S
H1379 C1387 0.930 . S
H1380 C1390 0.930 . S
H1381 C1391 0.930 . S
C1382 H1376 0.930 . S
C1382 C1383 1.355 . S
C1382 C1384 1.415 . S
C1383 C1382 1.355 . S
C1383 C1385 1.419 . S
C1384 C1382 1.415 . S
C1384 C1389 1.425 . S
C1384 C1391 1.409 . S
C1385 H1377 0.930 . S
C1385 C1383 1.419 . S
C1385 C1386 1.362 . S
C1386 H1378 0.930 . S
C1386 C1385 1.362 . S
C1386 C1389 1.409 . S
C1387 H1379 0.930 . S
C1387 C1388 1.355 . S
C1387 C1389 1.415 . S
C1388 C1387 1.355 . S
C1388 C1390 1.419 . S
C1389 C1384 1.425 . S
C1389 C1386 1.409 . S
C1389 C1387 1.415 . S
C1390 H1380 0.930 . S
C1390 C1388 1.419 . S
C1390 C1391 1.362 . S
C1391 H1381 0.930 . S
C1391 C1384 1.409 . S
C1391 C1390 1.362 . S
H1392 C1398 0.930 . S
H1393 C1401 0.930 . S
H1394 C1402 0.930 . S
H1395 C1403 0.930 . S
H1396 C1406 0.930 1_554 S
H1397 C1407 0.930 . S
C1398 H1392 0.930 . S
C1398 C1399 1.355 . S
C1398 C1400 1.415 . S
C1399 C1398 1.355 . S
C1399 C1401 1.419 . S
C1400 C1398 1.415 . S
C1400 C1405 1.425 . S
C1400 C1407 1.409 . S
C1401 H1393 0.930 . S
C1401 C1399 1.419 . S
C1401 C1402 1.362 . S
C1402 H1394 0.930 . S
C1402 C1401 1.362 . S
C1402 C1405 1.409 . S
C1403 H1395 0.930 . S
C1403 C1404 1.355 1_556 S
C1403 C1405 1.415 . S
C1404 C1403 1.355 1_554 S
C1404 C1406 1.419 1_554 S
C1405 C1400 1.425 . S
C1405 C1402 1.409 . S
C1405 C1403 1.415 . S
C1406 H1396 0.930 1_556 S
C1406 C1404 1.419 1_556 S
C1406 C1407 1.362 . S
C1407 H1397 0.930 . S
C1407 C1400 1.409 . S
C1407 C1406 1.362 . S
H1408 C1414 0.930 . S
H1409 C1417 0.935 . S
H1410 C1418 0.930 . S
H1411 C1419 0.930 . S
H1412 C1422 0.930 . S
H1413 C1423 0.930 . S
C1414 H1408 0.930 . S
C1414 C1415 1.355 1_556 S
C1414 C1416 1.415 . S
C1415 C1414 1.355 1_554 S
C1415 C1417 1.421 . S
C1416 C1414 1.415 . S
C1416 C1421 1.425 . S
C1416 C1423 1.409 . S
C1417 H1409 0.935 . S
C1417 C1415 1.421 . S
C1417 C1418 1.355 1_554 S
C1418 H1410 0.930 . S
C1418 C1417 1.355 1_556 S
C1418 C1421 1.409 . S
C1419 H1411 0.930 . S
C1419 C1420 1.355 . S
C1419 C1421 1.415 . S
C1420 C1419 1.355 . S
C1420 C1422 1.419 . S
C1421 C1416 1.425 . S
C1421 C1418 1.409 . S
C1421 C1419 1.415 . S
C1422 H1412 0.930 . S
C1422 C1420 1.419 . S
C1422 C1423 1.362 . S
C1423 H1413 0.930 . S
C1423 C1416 1.409 . S
C1423 C1422 1.362 . S
H1424 C1430 0.930 . S
H1425 C1433 0.930 . S
H1426 C1434 0.930 . S
H1427 C1435 0.930 . S
H1428 C1438 0.930 1_556 S
H1429 C1439 0.930 . S
C1430 H1424 0.930 . S
C1430 C1431 1.355 . S
C1430 C1432 1.415 . S
C1431 C1430 1.355 . S
C1431 C1433 1.419 . S
C1432 C1430 1.415 . S
C1432 C1437 1.425 . S
C1432 C1439 1.409 . S
C1433 H1425 0.930 . S
C1433 C1431 1.419 . S
C1433 C1434 1.362 . S
C1434 H1426 0.930 . S
C1434 C1433 1.362 . S
C1434 C1437 1.409 . S
C1435 H1427 0.930 . S
C1435 C1436 1.355 1_554 S
C1435 C1437 1.415 . S
C1436 C1435 1.355 1_556 S
C1436 C1438 1.419 1_556 S
C1437 C1432 1.425 . S
C1437 C1434 1.409 . S
C1437 C1435 1.415 . S
C1438 H1428 0.930 1_554 S
C1438 C1436 1.419 1_554 S
C1438 C1439 1.362 . S
C1439 H1429 0.930 . S
C1439 C1432 1.409 . S
C1439 C1438 1.362 . S
H1440 C1446 0.930 . S
H1441 C1449 0.930 . S
H1442 C1450 0.930 . S
H1443 C1451 0.930 . S
H1444 C1454 0.930 . S
H1445 C1455 0.930 . S
C1446 H1440 0.930 . S
C1446 C1447 1.355 . S
C1446 C1448 1.415 . S
C1447 C1446 1.355 . S
C1447 C1449 1.419 . S
C1448 C1446 1.415 . S
C1448 C1453 1.425 . S
C1448 C1455 1.409 . S
C1449 H1441 0.930 . S
C1449 C1447 1.419 . S
C1449 C1450 1.362 . S
C1450 H1442 0.930 . S
C1450 C1449 1.362 . S
C1450 C1453 1.409 . S
C1451 H1443 0.930 . S
C1451 C1452 1.355 . S
C1451 C1453 1.415 . S
C1452 C1451 1.355 . S
C1452 C1454 1.419 . S
C1453 C1448 1.425 . S
C1453 C1450 1.409 . S
C1453 C1451 1.415 . S
C1454 H1444 0.930 . S
C1454 C1452 1.419 . S
C1454 C1455 1.362 . S
C1455 H1445 0.930 . S
C1455 C1448 1.409 . S
C1455 C1454 1.362 . S
H1456 C1462 0.930 . S
H1457 C1465 0.930 . S
H1458 C1466 0.930 . S
H1459 C1467 0.930 . S
H1460 C1470 0.930 . S
H1461 C1471 0.930 . S
C1462 H1456 0.930 . S
C1462 C1463 1.355 . S
C1462 C1464 1.415 . S
C1463 C1462 1.355 . S
C1463 C1465 1.419 . S
C1464 C1462 1.415 . S
C1464 C1469 1.425 . S
C1464 C1471 1.409 . S
C1465 H1457 0.930 . S
C1465 C1463 1.419 . S
C1465 C1466 1.362 . S
C1466 H1458 0.930 . S
C1466 C1465 1.362 . S
C1466 C1469 1.409 . S
C1467 H1459 0.930 . S
C1467 C1468 1.355 . S
C1467 C1469 1.415 . S
C1468 C1467 1.355 . S
C1468 C1470 1.419 . S
C1469 C1464 1.425 . S
C1469 C1466 1.409 . S
C1469 C1467 1.415 . S
C1470 H1460 0.930 . S
C1470 C1468 1.419 . S
C1470 C1471 1.362 . S
C1471 H1461 0.930 . S
C1471 C1464 1.409 . S
C1471 C1470 1.362 . S
H1472 C1478 0.930 . S
H1473 C1481 0.933 . S
H1474 C1482 0.930 . S
H1475 C1483 0.930 . S
H1476 C1486 0.930 . S
H1477 C1487 0.930 . S
C1478 H1472 0.930 . S
C1478 C1479 1.355 1_556 S
C1478 C1480 1.415 . S
C1479 C1478 1.355 1_554 S
C1479 C1481 1.420 . S
C1480 C1478 1.415 . S
C1480 C1485 1.425 . S
C1480 C1487 1.409 . S
C1481 H1473 0.933 . S
C1481 C1479 1.420 . S
C1481 C1482 1.358 1_554 S
C1482 H1474 0.930 . S
C1482 C1481 1.358 1_556 S
C1482 C1485 1.409 . S
C1483 H1475 0.930 . S
C1483 C1484 1.355 . S
C1483 C1485 1.415 . S
C1484 C1483 1.355 . S
C1484 C1486 1.419 . S
C1485 C1480 1.425 . S
C1485 C1482 1.409 . S
C1485 C1483 1.415 . S
C1486 H1476 0.930 . S
C1486 C1484 1.419 . S
C1486 C1487 1.362 . S
C1487 H1477 0.930 . S
C1487 C1480 1.409 . S
C1487 C1486 1.362 . S
H1488 C1494 0.930 . S
H1489 C1497 0.930 . S
H1490 C1498 0.930 . S
H1491 C1499 0.930 . S
H1492 C1502 0.930 . S
H1493 C1503 0.930 . S
C1494 H1488 0.930 . S
C1494 C1495 1.355 . S
C1494 C1496 1.415 . S
C1495 C1494 1.355 . S
C1495 C1497 1.419 . S
C1496 C1494 1.415 . S
C1496 C1501 1.425 . S
C1496 C1503 1.409 . S
C1497 H1489 0.930 . S
C1497 C1495 1.419 . S
C1497 C1498 1.362 . S
C1498 H1490 0.930 . S
C1498 C1497 1.362 . S
C1498 C1501 1.409 . S
C1499 H1491 0.930 . S
C1499 C1500 1.355 . S
C1499 C1501 1.415 . S
C1500 C1499 1.355 . S
C1500 C1502 1.419 . S
C1501 C1496 1.425 . S
C1501 C1498 1.409 . S
C1501 C1499 1.415 . S
C1502 H1492 0.930 . S
C1502 C1500 1.419 . S
C1502 C1503 1.362 . S
C1503 H1493 0.930 . S
C1503 C1496 1.409 . S
C1503 C1502 1.362 . S
H1504 C1510 0.930 . S
H1505 C1513 0.930 . S
H1506 C1514 0.930 . S
H1507 C1515 0.930 . S
H1508 C1518 0.930 . S
H1509 C1519 0.930 . S
C1510 H1504 0.930 . S
C1510 C1511 1.355 . S
C1510 C1512 1.415 . S
C1511 C1510 1.355 . S
C1511 C1513 1.419 . S
C1512 C1510 1.415 . S
C1512 C1517 1.425 . S
C1512 C1519 1.409 . S
C1513 H1505 0.930 . S
C1513 C1511 1.419 . S
C1513 C1514 1.362 . S
C1514 H1506 0.930 . S
C1514 C1513 1.362 . S
C1514 C1517 1.409 . S
C1515 H1507 0.930 . S
C1515 C1516 1.355 . S
C1515 C1517 1.415 . S
C1516 C1515 1.355 . S
C1516 C1518 1.419 . S
C1517 C1512 1.425 . S
C1517 C1514 1.409 . S
C1517 C1515 1.415 . S
C1518 H1508 0.930 . S
C1518 C1516 1.419 . S
C1518 C1519 1.362 . S
C1519 H1509 0.930 . S
C1519 C1512 1.409 . S
C1519 C1518 1.362 . S
H1520 C1526 0.930 . S
H1521 C1529 0.930 1_556 S
H1522 C1530 0.930 . S
H1523 C1531 0.930 . S
H1524 C1534 0.930 . S
H1525 C1535 0.930 . S
C1526 H1520 0.930 . S
C1526 C1527 1.355 1_554 S
C1526 C1528 1.415 . S
C1527 C1526 1.355 1_556 S
C1527 C1529 1.419 1_556 S
C1528 C1526 1.415 . S
C1528 C1533 1.425 . S
C1528 C1535 1.409 . S
C1529 H1521 0.930 1_554 S
C1529 C1527 1.419 1_554 S
C1529 C1530 1.362 . S
C1530 H1522 0.930 . S
C1530 C1529 1.362 . S
C1530 C1533 1.409 . S
C1531 H1523 0.930 . S
C1531 C1532 1.355 . S
C1531 C1533 1.415 . S
C1532 C1531 1.355 . S
C1532 C1534 1.419 . S
C1533 C1528 1.425 . S
C1533 C1530 1.409 . S
C1533 C1531 1.415 . S
C1534 H1524 0.930 . S
C1534 C1532 1.419 . S
C1534 C1535 1.362 . S
C1535 H1525 0.930 . S
C1535 C1528 1.409 . S
C1535 C1534 1.362 . S
H1536 C1542 0.930 . S
H1537 C1545 0.930 . S
H1538 C1546 0.930 . S
H1539 C1547 0.930 . S
H1540 C1550 0.935 . S
H1541 C1551 0.930 . S
C1542 H1536 0.930 . S
C1542 C1543 1.355 . S
C1542 C1544 1.415 . S
C1543 C1542 1.355 . S
C1543 C1545 1.419 . S
C1544 C1542 1.415 . S
C1544 C1549 1.425 . S
C1544 C1551 1.409 . S
C1545 H1537 0.930 . S
C1545 C1543 1.419 . S
C1545 C1546 1.362 . S
C1546 H1538 0.930 . S
C1546 C1545 1.362 . S
C1546 C1549 1.409 . S
C1547 H1539 0.930 . S
C1547 C1548 1.355 1_554 S
C1547 C1549 1.415 . S
C1548 C1547 1.355 1_556 S
C1548 C1550 1.421 . S
C1549 C1544 1.425 . S
C1549 C1546 1.409 . S
C1549 C1547 1.415 . S
C1550 H1540 0.935 . S
C1550 C1548 1.421 . S
C1550 C1551 1.355 1_556 S
C1551 H1541 0.930 . S
C1551 C1544 1.409 . S
C1551 C1550 1.355 1_554 S
H1552 C1558 0.930 . S
H1553 C1561 0.930 1_554 S
H1554 C1562 0.930 . S
H1555 C1563 0.930 . S
H1556 C1566 0.930 . S
H1557 C1567 0.930 . S
C1558 H1552 0.930 . S
C1558 C1559 1.355 1_556 S
C1558 C1560 1.415 . S
C1559 C1558 1.355 1_554 S
C1559 C1561 1.419 1_554 S
C1560 C1558 1.415 . S
C1560 C1565 1.425 . S
C1560 C1567 1.409 . S
C1561 H1553 0.930 1_556 S
C1561 C1559 1.419 1_556 S
C1561 C1562 1.362 . S
C1562 H1554 0.930 . S
C1562 C1561 1.362 . S
C1562 C1565 1.409 . S
C1563 H1555 0.930 . S
C1563 C1564 1.355 . S
C1563 C1565 1.415 . S
C1564 C1563 1.355 . S
C1564 C1566 1.419 . S
C1565 C1560 1.425 . S
C1565 C1562 1.409 . S
C1565 C1563 1.415 . S
C1566 H1556 0.930 . S
C1566 C1564 1.419 . S
C1566 C1567 1.362 . S
C1567 H1557 0.930 . S
C1567 C1560 1.409 . S
C1567 C1566 1.362 . S
H1568 C1574 0.930 . S
H1569 C1577 0.930 . S
H1570 C1578 0.930 . S
H1571 C1579 0.930 . S
H1572 C1582 0.930 . S
H1573 C1583 0.930 . S
C1574 H1568 0.930 . S
C1574 C1575 1.355 . S
C1574 C1576 1.415 . S
C1575 C1574 1.355 . S
C1575 C1577 1.419 . S
C1576 C1574 1.415 . S
C1576 C1581 1.425 . S
C1576 C1583 1.409 . S
C1577 H1569 0.930 . S
C1577 C1575 1.419 . S
C1577 C1578 1.362 . S
C1578 H1570 0.930 . S
C1578 C1577 1.362 . S
C1578 C1581 1.409 . S
C1579 H1571 0.930 . S
C1579 C1580 1.355 . S
C1579 C1581 1.415 . S
C1580 C1579 1.355 . S
C1580 C1582 1.419 . S
C1581 C1576 1.425 . S
C1581 C1578 1.409 . S
C1581 C1579 1.415 . S
C1582 H1572 0.930 . S
C1582 C1580 1.419 . S
C1582 C1583 1.362 . S
C1583 H1573 0.930 . S
C1583 C1576 1.409 . S
C1583 C1582 1.362 . S
H1584 C1590 0.930 . S
H1585 C1593 0.930 . S
H1586 C1594 0.930 . S
H1587 C1595 0.930 . S
H1588 C1598 0.930 . S
H1589 C1599 0.930 . S
C1590 H1584 0.930 . S
C1590 C1591 1.355 . S
C1590 C1592 1.415 . S
C1591 C1590 1.355 . S
C1591 C1593 1.419 . S
C1592 C1590 1.415 . S
C1592 C1597 1.425 . S
C1592 C1599 1.409 . S
C1593 H1585 0.930 . S
C1593 C1591 1.419 . S
C1593 C1594 1.362 . S
C1594 H1586 0.930 . S
C1594 C1593 1.362 . S
C1594 C1597 1.409 . S
C1595 H1587 0.930 . S
C1595 C1596 1.355 . S
C1595 C1597 1.415 . S
C1596 C1595 1.355 . S
C1596 C1598 1.419 . S
C1597 C1592 1.425 . S
C1597 C1594 1.409 . S
C1597 C1595 1.415 . S
C1598 H1588 0.930 . S
C1598 C1596 1.419 . S
C1598 C1599 1.362 . S
C1599 H1589 0.930 . S
C1599 C1592 1.409 . S
C1599 C1598 1.362 . S
H1600 C1606 0.930 . S
H1601 C1609 0.930 . S
H1602 C1610 0.930 . S
H1603 C1611 0.930 . S
H1604 C1614 0.930 . S
H1605 C1615 0.930 . S
C1606 H1600 0.930 . S
C1606 C1607 1.355 . S
C1606 C1608 1.415 . S
C1607 C1606 1.355 . S
C1607 C1609 1.419 . S
C1608 C1606 1.415 . S
C1608 C1613 1.425 . S
C1608 C1615 1.409 . S
C1609 H1601 0.930 . S
C1609 C1607 1.419 . S
C1609 C1610 1.362 . S
C1610 H1602 0.930 . S
C1610 C1609 1.362 . S
C1610 C1613 1.409 . S
C1611 H1603 0.930 . S
C1611 C1612 1.355 . S
C1611 C1613 1.415 . S
C1612 C1611 1.355 . S
C1612 C1614 1.419 . S
C1613 C1608 1.425 . S
C1613 C1610 1.409 . S
C1613 C1611 1.415 . S
C1614 H1604 0.930 . S
C1614 C1612 1.419 . S
C1614 C1615 1.362 . S
C1615 H1605 0.930 . S
C1615 C1608 1.409 . S
C1615 C1614 1.362 . S
H1616 C1622 0.930 . S
H1617 C1625 0.930 . S
H1618 C1626 0.930 . S
H1619 C1627 0.930 . S
H1620 C1630 0.930 . S
H1621 C1631 0.930 . S
C1622 H1616 0.930 . S
C1622 C1623 1.355 . S
C1622 C1624 1.415 . S
C1623 C1622 1.355 . S
C1623 C1625 1.419 . S
C1624 C1622 1.415 . S
C1624 C1629 1.425 . S
C1624 C1631 1.409 . S
C1625 H1617 0.930 . S
C1625 C1623 1.419 . S
C1625 C1626 1.362 . S
C1626 H1618 0.930 . S
C1626 C1625 1.362 . S
C1626 C1629 1.409 . S
C1627 H1619 0.930 . S
C1627 C1628 1.355 . S
C1627 C1629 1.415 . S
C1628 C1627 1.355 . S
C1628 C1630 1.419 . S
C1629 C1624 1.425 . S
C1629 C1626 1.409 . S
C1629 C1627 1.415 . S
C1630 H1620 0.930 . S
C1630 C1628 1.419 . S
C1630 C1631 1.362 . S
C1631 H1621 0.930 . S
C1631 C1624 1.409 . S
C1631 C1630 1.362 . S
H1632 C1638 0.930 . S
H1633 C1641 0.930 . S
H1634 C1642 0.930 . S
H1635 C1643 0.930 . S
H1636 C1646 0.930 . S
H1637 C1647 0.930 . S
C1638 H1632 0.930 . S
C1638 C1639 1.355 . S
C1638 C1640 1.415 . S
C1639 C1638 1.355 . S
C1639 C1641 1.419 . S
C1640 C1638 1.415 . S
C1640 C1645 1.425 . S
C1640 C1647 1.409 . S
C1641 H1633 0.930 . S
C1641 C1639 1.419 . S
C1641 C1642 1.362 . S
C1642 H1634 0.930 . S
C1642 C1641 1.362 . S
C1642 C1645 1.409 . S
C1643 H1635 0.930 . S
C1643 C1644 1.355 . S
C1643 C1645 1.415 . S
C1644 C1643 1.355 . S
C1644 C1646 1.419 . S
C1645 C1640 1.425 . S
C1645 C1642 1.409 . S
C1645 C1643 1.415 . S
C1646 H1636 0.930 . S
C1646 C1644 1.419 . S
C1646 C1647 1.362 . S
C1647 H1637 0.930 . S
C1647 C1640 1.409 . S
C1647 C1646 1.362 . S
H1648 C1654 0.930 . S
H1649 C1657 0.930 1_554 S
H1650 C1658 0.930 1_554 S
H1651 C1659 0.930 . S
H1652 C1662 0.930 . S
H1653 C1663 0.930 . S
C1654 H1648 0.930 . S
C1654 C1655 1.355 . S
C1654 C1656 1.415 . S
C1655 C1654 1.355 . S
C1655 C1657 1.419 . S
C1656 C1654 1.415 . S
C1656 C1661 1.425 . S
C1656 C1663 1.409 . S
C1657 H1649 0.930 1_556 S
C1657 C1655 1.419 . S
C1657 C1658 1.362 . S
C1658 H1650 0.930 1_556 S
C1658 C1657 1.362 . S
C1658 C1661 1.409 . S
C1659 H1651 0.930 . S
C1659 C1660 1.355 . S
C1659 C1661 1.415 . S
C1660 C1659 1.355 . S
C1660 C1662 1.419 . S
C1661 C1656 1.425 . S
C1661 C1658 1.409 . S
C1661 C1659 1.415 . S
C1662 H1652 0.930 . S
C1662 C1660 1.419 . S
C1662 C1663 1.362 . S
C1663 H1653 0.930 . S
C1663 C1656 1.409 . S
C1663 C1662 1.362 . S
H1664 C1670 0.930 . S
H1665 C1673 0.930 . S
H1666 C1674 0.930 . S
H1667 C1675 0.930 . S
H1668 C1678 0.930 . S
H1669 C1679 0.930 . S
C1670 H1664 0.930 . S
C1670 C1671 1.355 . S
C1670 C1672 1.415 . S
C1671 C1670 1.355 . S
C1671 C1673 1.419 . S
C1672 C1670 1.415 . S
C1672 C1677 1.425 . S
C1672 C1679 1.409 . S
C1673 H1665 0.930 . S
C1673 C1671 1.419 . S
C1673 C1674 1.362 . S
C1674 H1666 0.930 . S
C1674 C1673 1.362 . S
C1674 C1677 1.409 . S
C1675 H1667 0.930 . S
C1675 C1676 1.355 . S
C1675 C1677 1.415 . S
C1676 C1675 1.355 . S
C1676 C1678 1.419 . S
C1677 C1672 1.425 . S
C1677 C1674 1.409 . S
C1677 C1675 1.415 . S
C1678 H1668 0.930 . S
C1678 C1676 1.419 . S
C1678 C1679 1.362 . S
C1679 H1669 0.930 . S
C1679 C1672 1.409 . S
C1679 C1678 1.362 . S
H1680 C1686 0.930 . S
H1681 C1689 0.930 . S
H1682 C1690 0.930 . S
H1683 C1691 0.930 . S
H1684 C1694 0.930 . S
H1685 C1695 0.930 . S
C1686 H1680 0.930 . S
C1686 C1687 1.355 . S
C1686 C1688 1.415 . S
C1687 C1686 1.355 . S
C1687 C1689 1.419 . S
C1688 C1686 1.415 . S
C1688 C1693 1.425 . S
C1688 C1695 1.409 . S
C1689 H1681 0.930 . S
C1689 C1687 1.419 . S
C1689 C1690 1.362 . S
C1690 H1682 0.930 . S
C1690 C1689 1.362 . S
C1690 C1693 1.409 . S
C1691 H1683 0.930 . S
C1691 C1692 1.355 . S
C1691 C1693 1.415 . S
C1692 C1691 1.355 . S
C1692 C1694 1.419 . S
C1693 C1688 1.425 . S
C1693 C1690 1.409 . S
C1693 C1691 1.415 . S
C1694 H1684 0.930 . S
C1694 C1692 1.419 . S
C1694 C1695 1.362 . S
C1695 H1685 0.930 . S
C1695 C1688 1.409 . S
C1695 C1694 1.362 . S
H1696 C1702 0.930 . S
H1697 C1705 0.930 . S
H1698 C1706 0.930 . S
H1699 C1707 0.930 . S
H1700 C1710 0.930 . S
H1701 C1711 0.930 . S
C1702 H1696 0.930 . S
C1702 C1703 1.355 . S
C1702 C1704 1.415 . S
C1703 C1702 1.355 . S
C1703 C1705 1.419 . S
C1704 C1702 1.415 . S
C1704 C1709 1.425 . S
C1704 C1711 1.409 . S
C1705 H1697 0.930 . S
C1705 C1703 1.419 . S
C1705 C1706 1.362 . S
C1706 H1698 0.930 . S
C1706 C1705 1.362 . S
C1706 C1709 1.409 . S
C1707 H1699 0.930 . S
C1707 C1708 1.355 . S
C1707 C1709 1.415 . S
C1708 C1707 1.355 . S
C1708 C1710 1.419 . S
C1709 C1704 1.425 . S
C1709 C1706 1.409 . S
C1709 C1707 1.415 . S
C1710 H1700 0.930 . S
C1710 C1708 1.419 . S
C1710 C1711 1.362 . S
C1711 H1701 0.930 . S
C1711 C1704 1.409 . S
C1711 C1710 1.362 . S
H1712 C1718 0.930 . S
H1713 C1721 0.930 . S
H1714 C1722 0.930 . S
H1715 C1723 0.930 . S
H1716 C1726 0.930 . S
H1717 C1727 0.930 . S
C1718 H1712 0.930 . S
C1718 C1719 1.355 . S
C1718 C1720 1.415 . S
C1719 C1718 1.355 . S
C1719 C1721 1.419 . S
C1720 C1718 1.415 . S
C1720 C1725 1.425 . S
C1720 C1727 1.409 . S
C1721 H1713 0.930 . S
C1721 C1719 1.419 . S
C1721 C1722 1.362 . S
C1722 H1714 0.930 . S
C1722 C1721 1.362 . S
C1722 C1725 1.409 . S
C1723 H1715 0.930 . S
C1723 C1724 1.355 . S
C1723 C1725 1.415 . S
C1724 C1723 1.355 . S
C1724 C1726 1.419 . S
C1725 C1720 1.425 . S
C1725 C1722 1.409 . S
C1725 C1723 1.415 . S
C1726 H1716 0.930 . S
C1726 C1724 1.419 . S
C1726 C1727 1.362 . S
C1727 H1717 0.930 . S
C1727 C1720 1.409 . S
C1727 C1726 1.362 . S
H1728 C1734 0.930 . S
H1729 C1737 0.930 . S
H1730 C1738 0.930 . S
H1731 C1739 0.930 . S
H1732 C1742 0.930 . S
H1733 C1743 0.930 . S
C1734 H1728 0.930 . S
C1734 C1735 1.355 . S
C1734 C1736 1.415 . S
C1735 C1734 1.355 . S
C1735 C1737 1.419 . S
C1736 C1734 1.415 . S
C1736 C1741 1.425 . S
C1736 C1743 1.409 . S
C1737 H1729 0.930 . S
C1737 C1735 1.419 . S
C1737 C1738 1.362 . S
C1738 H1730 0.930 . S
C1738 C1737 1.362 . S
C1738 C1741 1.409 . S
C1739 H1731 0.930 . S
C1739 C1740 1.355 . S
C1739 C1741 1.415 . S
C1740 C1739 1.355 . S
C1740 C1742 1.419 . S
C1741 C1736 1.425 . S
C1741 C1738 1.409 . S
C1741 C1739 1.415 . S
C1742 H1732 0.930 . S
C1742 C1740 1.419 . S
C1742 C1743 1.362 . S
C1743 H1733 0.930 . S
C1743 C1736 1.409 . S
C1743 C1742 1.362 . S
H1744 C1750 0.930 . S
H1745 C1753 0.930 . S
H1746 C1754 0.930 . S
H1747 C1755 0.930 . S
H1748 C1758 0.930 . S
H1749 C1759 0.930 . S
C1750 H1744 0.930 . S
C1750 C1751 1.355 . S
C1750 C1752 1.415 . S
C1751 C1750 1.355 . S
C1751 C1753 1.419 . S
C1752 C1750 1.415 . S
C1752 C1757 1.425 . S
C1752 C1759 1.409 . S
C1753 H1745 0.930 . S
C1753 C1751 1.419 . S
C1753 C1754 1.362 . S
C1754 H1746 0.930 . S
C1754 C1753 1.362 . S
C1754 C1757 1.409 . S
C1755 H1747 0.930 . S
C1755 C1756 1.355 . S
C1755 C1757 1.415 . S
C1756 C1755 1.355 . S
C1756 C1758 1.419 . S
C1757 C1752 1.425 . S
C1757 C1754 1.409 . S
C1757 C1755 1.415 . S
C1758 H1748 0.930 . S
C1758 C1756 1.419 . S
C1758 C1759 1.362 . S
C1759 H1749 0.930 . S
C1759 C1752 1.409 . S
C1759 C1758 1.362 . S
H1760 C1766 0.930 . S
H1761 C1769 0.930 . S
H1762 C1770 0.930 . S
H1763 C1771 0.930 . S
H1764 C1774 0.930 . S
H1765 C1775 0.930 . S
C1766 H1760 0.930 . S
C1766 C1767 1.355 . S
C1766 C1768 1.415 . S
C1767 C1766 1.355 . S
C1767 C1769 1.419 . S
C1768 C1766 1.415 . S
C1768 C1773 1.425 . S
C1768 C1775 1.409 . S
C1769 H1761 0.930 . S
C1769 C1767 1.419 . S
C1769 C1770 1.362 . S
C1770 H1762 0.930 . S
C1770 C1769 1.362 . S
C1770 C1773 1.409 . S
C1771 H1763 0.930 . S
C1771 C1772 1.355 . S
C1771 C1773 1.415 . S
C1772 C1771 1.355 . S
C1772 C1774 1.419 . S
C1773 C1768 1.425 . S
C1773 C1770 1.409 . S
C1773 C1771 1.415 . S
C1774 H1764 0.930 . S
C1774 C1772 1.419 . S
C1774 C1775 1.362 . S
C1775 H1765 0.930 . S
C1775 C1768 1.409 . S
C1775 C1774 1.362 . S
H1776 C1782 0.930 . S
H1777 C1785 0.930 . S
H1778 C1786 0.930 1_556 S
H1779 C1787 0.930 . S
H1780 C1790 0.930 . S
H1781 C1791 0.930 . S
C1782 H1776 0.930 . S
C1782 C1783 1.355 . S
C1782 C1784 1.415 . S
C1783 C1782 1.355 . S
C1783 C1785 1.419 . S
C1784 C1782 1.415 . S
C1784 C1789 1.425 . S
C1784 C1791 1.409 . S
C1785 H1777 0.930 . S
C1785 C1783 1.419 . S
C1785 C1786 1.362 . S
C1786 H1778 0.930 1_554 S
C1786 C1785 1.362 . S
C1786 C1789 1.409 . S
C1787 H1779 0.930 . S
C1787 C1788 1.355 . S
C1787 C1789 1.415 . S
C1788 C1787 1.355 . S
C1788 C1790 1.419 . S
C1789 C1784 1.425 . S
C1789 C1786 1.409 . S
C1789 C1787 1.415 . S
C1790 H1780 0.930 . S
C1790 C1788 1.419 . S
C1790 C1791 1.362 . S
C1791 H1781 0.930 . S
C1791 C1784 1.409 . S
C1791 C1790 1.362 . S
H1792 C1798 0.930 . S
H1793 C1801 0.930 . S
H1794 C1802 0.930 . S
H1795 C1803 0.930 . S
H1796 C1806 0.930 . S
H1797 C1807 0.930 . S
C1798 H1792 0.930 . S
C1798 C1799 1.355 . S
C1798 C1800 1.415 . S
C1799 C1798 1.355 . S
C1799 C1801 1.419 . S
C1800 C1798 1.415 . S
C1800 C1805 1.425 . S
C1800 C1807 1.409 . S
C1801 H1793 0.930 . S
C1801 C1799 1.419 . S
C1801 C1802 1.362 . S
C1802 H1794 0.930 . S
C1802 C1801 1.362 . S
C1802 C1805 1.409 . S
C1803 H1795 0.930 . S
C1803 C1804 1.355 . S
C1803 C1805 1.415 . S
C1804 C1803 1.355 . S
C1804 C1806 1.419 . S
C1805 C1800 1.425 . S
C1805 C1802 1.409 . S
C1805 C1803 1.415 . S
C1806 H1796 0.930 . S
C1806 C1804 1.419 . S
C1806 C1807 1.362 . S
C1807 H1797 0.930 . S
C1807 C1800 1.409 . S
C1807 C1806 1.362 . S
H1808 C1814 0.930 . S
H1809 C1817 0.930 . S
H1810 C1818 0.930 . S
H1811 C1819 0.930 . S
H1812 C1822 0.930 . S
H1813 C1823 0.930 . S
C1814 H1808 0.930 . S
C1814 C1815 1.355 . S
C1814 C1816 1.415 . S
C1815 C1814 1.355 . S
C1815 C1817 1.419 . S
C1816 C1814 1.415 . S
C1816 C1821 1.425 . S
C1816 C1823 1.409 . S
C1817 H1809 0.930 . S
C1817 C1815 1.419 . S
C1817 C1818 1.362 . S
C1818 H1810 0.930 . S
C1818 C1817 1.362 . S
C1818 C1821 1.409 . S
C1819 H1811 0.930 . S
C1819 C1820 1.355 . S
C1819 C1821 1.415 . S
C1820 C1819 1.355 . S
C1820 C1822 1.419 . S
C1821 C1816 1.425 . S
C1821 C1818 1.409 . S
C1821 C1819 1.415 . S
C1822 H1812 0.930 . S
C1822 C1820 1.419 . S
C1822 C1823 1.362 . S
C1823 H1813 0.930 . S
C1823 C1816 1.409 . S
C1823 C1822 1.362 . S
H1824 C1830 0.930 . S
H1825 C1833 0.930 . S
H1826 C1834 0.930 . S
H1827 C1835 0.930 . S
H1828 C1838 0.930 . S
H1829 C1839 0.930 . S
C1830 H1824 0.930 . S
C1830 C1831 1.355 . S
C1830 C1832 1.415 . S
C1831 C1830 1.355 . S
C1831 C1833 1.419 . S
C1832 C1830 1.415 . S
C1832 C1837 1.425 . S
C1832 C1839 1.409 . S
C1833 H1825 0.930 . S
C1833 C1831 1.419 . S
C1833 C1834 1.362 . S
C1834 H1826 0.930 . S
C1834 C1833 1.362 . S
C1834 C1837 1.409 . S
C1835 H1827 0.930 . S
C1835 C1836 1.355 . S
C1835 C1837 1.415 . S
C1836 C1835 1.355 . S
C1836 C1838 1.419 . S
C1837 C1832 1.425 . S
C1837 C1834 1.409 . S
C1837 C1835 1.415 . S
C1838 H1828 0.930 . S
C1838 C1836 1.419 . S
C1838 C1839 1.362 . S
C1839 H1829 0.930 . S
C1839 C1832 1.409 . S
C1839 C1838 1.362 . S
H1840 C1846 0.930 . S
H1841 C1849 0.930 . S
H1842 C1850 0.930 . S
H1843 C1851 0.930 . S
H1844 C1854 0.930 . S
H1845 C1855 0.930 . S
C1846 H1840 0.930 . S
C1846 C1847 1.355 . S
C1846 C1848 1.415 . S
C1847 C1846 1.355 . S
C1847 C1849 1.419 . S
C1848 C1846 1.415 . S
C1848 C1853 1.425 . S
C1848 C1855 1.409 . S
C1849 H1841 0.930 . S
C1849 C1847 1.419 . S
C1849 C1850 1.362 . S
C1850 H1842 0.930 . S
C1850 C1849 1.362 . S
C1850 C1853 1.409 . S
C1851 H1843 0.930 . S
C1851 C1852 1.355 . S
C1851 C1853 1.415 . S
C1852 C1851 1.355 . S
C1852 C1854 1.419 . S
C1853 C1848 1.425 . S
C1853 C1850 1.409 . S
C1853 C1851 1.415 . S
C1854 H1844 0.930 . S
C1854 C1852 1.419 . S
C1854 C1855 1.362 . S
C1855 H1845 0.930 . S
C1855 C1848 1.409 . S
C1855 C1854 1.362 . S
H1856 C1862 0.930 . S
H1857 C1865 0.930 . S
H1858 C1866 0.930 . S
H1859 C1867 0.930 . S
H1860 C1870 0.930 . S
H1861 C1871 0.930 . S
C1862 H1856 0.930 . S
C1862 C1863 1.355 1_554 S
C1862 C1864 1.415 . S
C1863 C1862 1.355 1_556 S
C1863 C1865 1.419 . S
C1864 C1862 1.415 . S
C1864 C1869 1.425 1_554 S
C1864 C1871 1.409 . S
C1865 H1857 0.930 . S
C1865 C1863 1.419 . S
C1865 C1866 1.362 . S
C1866 H1858 0.930 . S
C1866 C1865 1.362 . S
C1866 C1869 1.409 . S
C1867 H1859 0.930 . S
C1867 C1868 1.355 1_556 S
C1867 C1869 1.415 . S
C1868 C1867 1.355 1_554 S
C1868 C1870 1.419 . S
C1869 C1864 1.425 1_556 S
C1869 C1866 1.409 . S
C1869 C1867 1.415 . S
C1870 H1860 0.930 . S
C1870 C1868 1.419 . S
C1870 C1871 1.362 . S
C1871 H1861 0.930 . S
C1871 C1864 1.409 . S
C1871 C1870 1.362 . S
H1872 C1878 0.930 . S
H1873 C1881 0.930 . S
H1874 C1882 0.930 . S
H1875 C1883 0.930 . S
H1876 C1886 0.930 . S
H1877 C1887 0.930 . S
C1878 H1872 0.930 . S
C1878 C1879 1.355 . S
C1878 C1880 1.415 . S
C1879 C1878 1.355 . S
C1879 C1881 1.419 . S
C1880 C1878 1.415 . S
C1880 C1885 1.425 . S
C1880 C1887 1.409 . S
C1881 H1873 0.930 . S
C1881 C1879 1.419 . S
C1881 C1882 1.362 . S
C1882 H1874 0.930 . S
C1882 C1881 1.362 . S
C1882 C1885 1.409 . S
C1883 H1875 0.930 . S
C1883 C1884 1.355 . S
C1883 C1885 1.415 . S
C1884 C1883 1.355 . S
C1884 C1886 1.419 . S
C1885 C1880 1.425 . S
C1885 C1882 1.409 . S
C1885 C1883 1.415 . S
C1886 H1876 0.930 . S
C1886 C1884 1.419 . S
C1886 C1887 1.362 . S
C1887 H1877 0.930 . S
C1887 C1880 1.409 . S
C1887 C1886 1.362 . S
H1888 C1894 0.930 . S
H1889 C1897 0.930 . S
H1890 C1898 0.930 . S
H1891 C1899 0.930 . S
H1892 C1902 0.930 . S
H1893 C1903 0.930 . S
C1894 H1888 0.930 . S
C1894 C1895 1.355 . S
C1894 C1896 1.415 . S
C1895 C1894 1.355 . S
C1895 C1897 1.419 . S
C1896 C1894 1.415 . S
C1896 C1901 1.425 . S
C1896 C1903 1.409 . S
C1897 H1889 0.930 . S
C1897 C1895 1.419 . S
C1897 C1898 1.362 . S
C1898 H1890 0.930 . S
C1898 C1897 1.362 . S
C1898 C1901 1.409 . S
C1899 H1891 0.930 . S
C1899 C1900 1.355 . S
C1899 C1901 1.415 . S
C1900 C1899 1.355 . S
C1900 C1902 1.419 . S
C1901 C1896 1.425 . S
C1901 C1898 1.409 . S
C1901 C1899 1.415 . S
C1902 H1892 0.930 . S
C1902 C1900 1.419 . S
C1902 C1903 1.362 . S
C1903 H1893 0.930 . S
C1903 C1896 1.409 . S
C1903 C1902 1.362 . S
H1904 C1910 0.930 . S
H1905 C1913 0.930 . S
H1906 C1914 0.930 . S
H1907 C1915 0.930 . S
H1908 C1918 0.930 . S
H1909 C1919 0.930 . S
C1910 H1904 0.930 . S
C1910 C1911 1.355 . S
C1910 C1912 1.415 . S
C1911 C1910 1.355 . S
C1911 C1913 1.419 . S
C1912 C1910 1.415 . S
C1912 C1917 1.425 . S
C1912 C1919 1.409 . S
C1913 H1905 0.930 . S
C1913 C1911 1.419 . S
C1913 C1914 1.362 . S
C1914 H1906 0.930 . S
C1914 C1913 1.362 . S
C1914 C1917 1.409 . S
C1915 H1907 0.930 . S
C1915 C1916 1.355 . S
C1915 C1917 1.415 . S
C1916 C1915 1.355 . S
C1916 C1918 1.419 . S
C1917 C1912 1.425 . S
C1917 C1914 1.409 . S
C1917 C1915 1.415 . S
C1918 H1908 0.930 . S
C1918 C1916 1.419 . S
C1918 C1919 1.362 . S
C1919 H1909 0.930 . S
C1919 C1912 1.409 . S
C1919 C1918 1.362 . S
H1920 C1926 0.930 . S
H1921 C1929 0.930 . S
H1922 C1930 0.930 . S
H1923 C1931 0.930 . S
H1924 C1934 0.930 . S
H1925 C1935 0.930 . S
C1926 H1920 0.930 . S
C1926 C1927 1.355 . S
C1926 C1928 1.415 1_556 S
C1927 C1926 1.355 . S
C1927 C1929 1.419 . S
C1928 C1926 1.415 1_554 S
C1928 C1933 1.425 1_554 S
C1928 C1935 1.409 . S
C1929 H1921 0.930 . S
C1929 C1927 1.419 . S
C1929 C1930 1.362 . S
C1930 H1922 0.930 . S
C1930 C1929 1.362 . S
C1930 C1933 1.409 . S
C1931 H1923 0.930 . S
C1931 C1932 1.355 . S
C1931 C1933 1.415 1_554 S
C1932 C1931 1.355 . S
C1932 C1934 1.419 . S
C1933 C1928 1.425 1_556 S
C1933 C1930 1.409 . S
C1933 C1931 1.415 1_556 S
C1934 H1924 0.930 . S
C1934 C1932 1.419 . S
C1934 C1935 1.362 . S
C1935 H1925 0.930 . S
C1935 C1928 1.409 . S
C1935 C1934 1.362 . S
H1936 C1942 0.930 . S
H1937 C1945 0.930 . S
H1938 C1946 0.930 . S
H1939 C1947 0.930 . S
H1940 C1950 0.930 . S
H1941 C1951 0.930 . S
C1942 H1936 0.930 . S
C1942 C1943 1.355 . S
C1942 C1944 1.415 . S
C1943 C1942 1.355 . S
C1943 C1945 1.419 . S
C1944 C1942 1.415 . S
C1944 C1949 1.425 . S
C1944 C1951 1.409 . S
C1945 H1937 0.930 . S
C1945 C1943 1.419 . S
C1945 C1946 1.362 . S
C1946 H1938 0.930 . S
C1946 C1945 1.362 . S
C1946 C1949 1.409 . S
C1947 H1939 0.930 . S
C1947 C1948 1.355 . S
C1947 C1949 1.415 . S
C1948 C1947 1.355 . S
C1948 C1950 1.419 . S
C1949 C1944 1.425 . S
C1949 C1946 1.409 . S
C1949 C1947 1.415 . S
C1950 H1940 0.930 . S
C1950 C1948 1.419 . S
C1950 C1951 1.362 . S
C1951 H1941 0.930 . S
C1951 C1944 1.409 . S
C1951 C1950 1.362 . S
H1952 C1958 0.930 . S
H1953 C1961 0.930 . S
H1954 C1962 0.930 . S
H1955 C1963 0.930 . S
H1956 C1966 0.930 . S
H1957 C1967 0.930 . S
C1958 H1952 0.930 . S
C1958 C1959 1.355 . S
C1958 C1960 1.415 . S
C1959 C1958 1.355 . S
C1959 C1961 1.419 . S
C1960 C1958 1.415 . S
C1960 C1965 1.425 . S
C1960 C1967 1.409 . S
C1961 H1953 0.930 . S
C1961 C1959 1.419 . S
C1961 C1962 1.362 . S
C1962 H1954 0.930 . S
C1962 C1961 1.362 . S
C1962 C1965 1.409 . S
C1963 H1955 0.930 . S
C1963 C1964 1.355 . S
C1963 C1965 1.415 . S
C1964 C1963 1.355 . S
C1964 C1966 1.419 . S
C1965 C1960 1.425 . S
C1965 C1962 1.409 . S
C1965 C1963 1.415 . S
C1966 H1956 0.930 . S
C1966 C1964 1.419 . S
C1966 C1967 1.362 . S
C1967 H1957 0.930 . S
C1967 C1960 1.409 . S
C1967 C1966 1.362 . S
H1968 C1974 0.930 . S
H1969 C1977 0.930 . S
H1970 C1978 0.930 . S
H1971 C1979 0.930 . S
H1972 C1982 0.930 . S
H1973 C1983 0.930 . S
C1974 H1968 0.930 . S
C1974 C1975 1.355 . S
C1974 C1976 1.415 . S
C1975 C1974 1.355 . S
C1975 C1977 1.419 . S
C1976 C1974 1.415 . S
C1976 C1981 1.425 . S
C1976 C1983 1.409 . S
C1977 H1969 0.930 . S
C1977 C1975 1.419 . S
C1977 C1978 1.362 . S
C1978 H1970 0.930 . S
C1978 C1977 1.362 . S
C1978 C1981 1.409 . S
C1979 H1971 0.930 . S
C1979 C1980 1.355 . S
C1979 C1981 1.415 . S
C1980 C1979 1.355 . S
C1980 C1982 1.419 . S
C1981 C1976 1.425 . S
C1981 C1978 1.409 . S
C1981 C1979 1.415 . S
C1982 H1972 0.930 . S
C1982 C1980 1.419 . S
C1982 C1983 1.362 . S
C1983 H1973 0.930 . S
C1983 C1976 1.409 . S
C1983 C1982 1.362 . S
H1984 C1990 0.930 . S
H1985 C1993 0.930 . S
H1986 C1994 0.885 1_545 S
H1987 C1995 0.930 . S
H1988 C1998 0.930 . S
H1989 C1999 0.885 1_565 S
C1990 H1984 0.930 . S
C1990 C1991 1.355 . S
C1990 C1992 1.415 . S
C1991 C1990 1.355 . S
C1991 C1993 1.419 . S
C1992 C1990 1.415 . S
C1992 C1997 1.425 1_565 S
C1992 C1999 1.382 1_565 S
C1993 H1985 0.930 . S
C1993 C1991 1.419 . S
C1993 C1994 1.438 . S
C1994 H1986 0.885 1_565 S
C1994 C1993 1.438 . S
C1994 C1997 1.382 1_565 S
C1995 H1987 0.930 . S
C1995 C1996 1.355 . S
C1995 C1997 1.415 . S
C1996 C1995 1.355 . S
C1996 C1998 1.419 . S
C1997 C1992 1.425 1_545 S
C1997 C1994 1.382 1_545 S
C1997 C1995 1.415 . S
C1998 H1988 0.930 . S
C1998 C1996 1.419 . S
C1998 C1999 1.438 . S
C1999 H1989 0.885 1_545 S
C1999 C1992 1.382 1_545 S
C1999 C1998 1.438 . S
H2000 C2006 0.930 . S
H2001 C2009 0.930 . S
H2002 C2010 0.930 . S
H2003 C2011 0.930 . S
H2004 C2014 0.930 . S
H2005 C2015 0.930 . S
C2006 H2000 0.930 . S
C2006 C2007 1.355 . S
C2006 C2008 1.415 . S
C2007 C2006 1.355 . S
C2007 C2009 1.419 . S
C2008 C2006 1.415 . S
C2008 C2013 1.425 . S
C2008 C2015 1.409 . S
C2009 H2001 0.930 . S
C2009 C2007 1.419 . S
C2009 C2010 1.362 . S
C2010 H2002 0.930 . S
C2010 C2009 1.362 . S
C2010 C2013 1.409 . S
C2011 H2003 0.930 . S
C2011 C2012 1.355 . S
C2011 C2013 1.415 . S
C2012 C2011 1.355 . S
C2012 C2014 1.419 . S
C2013 C2008 1.425 . S
C2013 C2010 1.409 . S
C2013 C2011 1.415 . S
C2014 H2004 0.930 . S
C2014 C2012 1.419 . S
C2014 C2015 1.362 . S
C2015 H2005 0.930 . S
C2015 C2008 1.409 . S
C2015 C2014 1.362 . S
H2016 C2022 0.930 . S
H2017 C2025 0.930 . S
H2018 C2026 0.930 . S
H2019 C2027 0.930 . S
H2020 C2030 0.930 . S
H2021 C2031 0.930 . S
C2022 H2016 0.930 . S
C2022 C2023 1.355 . S
C2022 C2024 1.418 . S
C2023 C2022 1.355 . S
C2023 C2025 1.419 1_554 S
C2024 C2022 1.418 . S
C2024 C2029 1.425 1_564 S
C2024 C2031 1.406 1_565 S
C2025 H2017 0.930 . S
C2025 C2023 1.419 1_556 S
C2025 C2026 1.362 . S
C2026 H2018 0.930 . S
C2026 C2025 1.362 . S
C2026 C2029 1.406 1_565 S
C2027 H2019 0.930 . S
C2027 C2028 1.355 . S
C2027 C2029 1.418 . S
C2028 C2027 1.355 . S
C2028 C2030 1.419 1_556 S
C2029 C2024 1.425 1_546 S
C2029 C2026 1.406 1_545 S
C2029 C2027 1.418 . S
C2030 H2020 0.930 . S
C2030 C2028 1.419 1_554 S
C2030 C2031 1.362 . S
C2031 H2021 0.930 . S
C2031 C2024 1.406 1_545 S
C2031 C2030 1.362 . S
H2032 C2038 0.930 . S
H2033 C2041 0.930 . S
H2034 C2042 0.930 . S
H2035 C2043 0.930 . S
H2036 C2046 0.930 . S
H2037 C2047 0.930 . S
C2038 H2032 0.930 . S
C2038 C2039 1.355 . S
C2038 C2040 1.415 . S
C2039 C2038 1.355 . S
C2039 C2041 1.419 . S
C2040 C2038 1.415 . S
C2040 C2045 1.425 . S
C2040 C2047 1.409 . S
C2041 H2033 0.930 . S
C2041 C2039 1.419 . S
C2041 C2042 1.362 . S
C2042 H2034 0.930 . S
C2042 C2041 1.362 . S
C2042 C2045 1.409 . S
C2043 H2035 0.930 . S
C2043 C2044 1.355 . S
C2043 C2045 1.415 . S
C2044 C2043 1.355 . S
C2044 C2046 1.419 . S
C2045 C2040 1.425 . S
C2045 C2042 1.409 . S
C2045 C2043 1.415 . S
C2046 H2036 0.930 . S
C2046 C2044 1.419 . S
C2046 C2047 1.362 . S
C2047 H2037 0.930 . S
C2047 C2040 1.409 . S
C2047 C2046 1.362 . S
H2048 C2054 0.930 . S
H2049 C2057 0.930 . S
H2050 C2058 0.930 . S
H2051 C2059 0.930 . S
H2052 C2062 0.930 . S
H2053 C2063 0.930 . S
C2054 H2048 0.930 . S
C2054 C2055 1.355 . S
C2054 C2056 1.465 . S
C2055 C2054 1.355 . S
C2055 C2057 1.419 . S
C2056 C2054 1.465 . S
C2056 C2061 1.419 1_545 S
C2056 C2063 1.364 1_545 S
C2057 H2049 0.930 . S
C2057 C2055 1.419 . S
C2057 C2058 1.362 . S
C2058 H2050 0.930 . S
C2058 C2057 1.362 . S
C2058 C2061 1.364 1_545 S
C2059 H2051 0.930 . S
C2059 C2060 1.355 . S
C2059 C2061 1.465 . S
C2060 C2059 1.355 . S
C2060 C2062 1.419 . S
C2061 C2056 1.419 1_565 S
C2061 C2058 1.364 1_565 S
C2061 C2059 1.465 . S
C2062 H2052 0.930 . S
C2062 C2060 1.419 . S
C2062 C2063 1.362 . S
C2063 H2053 0.930 . S
C2063 C2056 1.364 1_565 S
C2063 C2062 1.362 . S
H2064 C2070 0.930 . S
H2065 C2073 0.930 . S
H2066 C2074 0.930 . S
H2067 C2075 0.930 . S
H2068 C2078 0.930 . S
H2069 C2079 0.930 . S
C2070 H2064 0.930 . S
C2070 C2071 1.355 . S
C2070 C2072 1.415 . S
C2071 C2070 1.355 . S
C2071 C2073 1.419 . S
C2072 C2070 1.415 . S
C2072 C2077 1.425 . S
C2072 C2079 1.409 . S
C2073 H2065 0.930 . S
C2073 C2071 1.419 . S
C2073 C2074 1.362 . S
C2074 H2066 0.930 . S
C2074 C2073 1.362 . S
C2074 C2077 1.409 . S
C2075 H2067 0.930 . S
C2075 C2076 1.355 . S
C2075 C2077 1.415 . S
C2076 C2075 1.355 . S
C2076 C2078 1.419 . S
C2077 C2072 1.425 . S
C2077 C2074 1.409 . S
C2077 C2075 1.415 . S
C2078 H2068 0.930 . S
C2078 C2076 1.419 . S
C2078 C2079 1.362 . S
C2079 H2069 0.930 . S
C2079 C2072 1.409 . S
C2079 C2078 1.362 . S
H2080 C2086 0.930 . S
H2081 C2089 0.930 . S
H2082 C2090 0.930 . S
H2083 C2091 0.930 . S
H2084 C2094 0.930 . S
H2085 C2095 0.930 . S
C2086 H2080 0.930 . S
C2086 C2087 1.355 . S
C2086 C2088 1.415 . S
C2087 C2086 1.355 . S
C2087 C2089 1.419 . S
C2088 C2086 1.415 . S
C2088 C2093 1.425 1_564 S
C2088 C2095 1.409 1_565 S
C2089 H2081 0.930 . S
C2089 C2087 1.419 . S
C2089 C2090 1.362 1_554 S
C2090 H2082 0.930 . S
C2090 C2089 1.362 1_556 S
C2090 C2093 1.409 1_565 S
C2091 H2083 0.930 . S
C2091 C2092 1.355 . S
C2091 C2093 1.415 . S
C2092 C2091 1.355 . S
C2092 C2094 1.419 . S
C2093 C2088 1.425 1_546 S
C2093 C2090 1.409 1_545 S
C2093 C2091 1.415 . S
C2094 H2084 0.930 . S
C2094 C2092 1.419 . S
C2094 C2095 1.362 1_556 S
C2095 H2085 0.930 . S
C2095 C2088 1.409 1_545 S
C2095 C2094 1.362 1_554 S
H2096 C2102 0.930 . S
H2097 C2105 0.930 . S
H2098 C2106 0.930 . S
H2099 C2107 0.930 . S
H2100 C2110 0.930 . S
H2101 C2111 0.930 . S
C2102 H2096 0.930 . S
C2102 C2103 1.355 . S
C2102 C2104 1.415 . S
C2103 C2102 1.355 . S
C2103 C2105 1.419 . S
C2104 C2102 1.415 . S
C2104 C2109 1.425 . S
C2104 C2111 1.409 . S
C2105 H2097 0.930 . S
C2105 C2103 1.419 . S
C2105 C2106 1.362 . S
C2106 H2098 0.930 . S
C2106 C2105 1.362 . S
C2106 C2109 1.409 . S
C2107 H2099 0.930 . S
C2107 C2108 1.355 . S
C2107 C2109 1.415 . S
C2108 C2107 1.355 . S
C2108 C2110 1.419 . S
C2109 C2104 1.425 . S
C2109 C2106 1.409 . S
C2109 C2107 1.415 . S
C2110 H2100 0.930 . S
C2110 C2108 1.419 . S
C2110 C2111 1.362 . S
C2111 H2101 0.930 . S
C2111 C2104 1.409 . S
C2111 C2110 1.362 . S
H2112 C2118 0.930 . S
H2113 C2121 0.930 . S
H2114 C2122 0.930 . S
H2115 C2123 0.930 . S
H2116 C2126 0.930 1_556 S
H2117 C2127 0.930 1_556 S
C2118 H2112 0.930 . S
C2118 C2119 1.355 . S
C2118 C2120 1.415 . S
C2119 C2118 1.355 . S
C2119 C2121 1.419 . S
C2120 C2118 1.415 . S
C2120 C2125 1.425 1_455 S
C2120 C2127 1.409 1_455 S
C2121 H2113 0.930 . S
C2121 C2119 1.419 . S
C2121 C2122 1.362 . S
C2122 H2114 0.930 . S
C2122 C2121 1.362 . S
C2122 C2125 1.409 1_455 S
C2123 H2115 0.930 . S
C2123 C2124 1.355 . S
C2123 C2125 1.415 . S
C2124 C2123 1.355 . S
C2124 C2126 1.419 . S
C2125 C2120 1.425 1_655 S
C2125 C2122 1.409 1_655 S
C2125 C2123 1.415 . S
C2126 H2116 0.930 1_554 S
C2126 C2124 1.419 . S
C2126 C2127 1.362 . S
C2127 H2117 0.930 1_554 S
C2127 C2120 1.409 1_655 S
C2127 C2126 1.362 . S
H2128 C2134 0.930 . S
H2129 C2137 0.930 . S
H2130 C2138 0.930 . S
H2131 C2139 0.930 . S
H2132 C2142 0.930 . S
H2133 C2143 0.930 . S
C2134 H2128 0.930 . S
C2134 C2135 1.355 . S
C2134 C2136 1.415 . S
C2135 C2134 1.355 . S
C2135 C2137 1.419 . S
C2136 C2134 1.415 . S
C2136 C2141 1.425 . S
C2136 C2143 1.409 . S
C2137 H2129 0.930 . S
C2137 C2135 1.419 . S
C2137 C2138 1.362 . S
C2138 H2130 0.930 . S
C2138 C2137 1.362 . S
C2138 C2141 1.409 . S
C2139 H2131 0.930 . S
C2139 C2140 1.355 . S
C2139 C2141 1.415 . S
C2140 C2139 1.355 . S
C2140 C2142 1.419 . S
C2141 C2136 1.425 . S
C2141 C2138 1.409 . S
C2141 C2139 1.415 . S
C2142 H2132 0.930 . S
C2142 C2140 1.419 . S
C2142 C2143 1.362 . S
C2143 H2133 0.930 . S
C2143 C2136 1.409 . S
C2143 C2142 1.362 . S
H2144 C2150 0.930 . S
H2145 C2153 0.930 . S
H2146 C2154 0.930 . S
H2147 C2155 0.930 . S
H2148 C2158 0.930 . S
H2149 C2159 0.930 . S
C2150 H2144 0.930 . S
C2150 C2151 1.355 . S
C2150 C2152 1.415 . S
C2151 C2150 1.355 . S
C2151 C2153 1.419 . S
C2152 C2150 1.415 . S
C2152 C2157 1.425 . S
C2152 C2159 1.409 . S
C2153 H2145 0.930 . S
C2153 C2151 1.419 . S
C2153 C2154 1.362 . S
C2154 H2146 0.930 . S
C2154 C2153 1.362 . S
C2154 C2157 1.409 . S
C2155 H2147 0.930 . S
C2155 C2156 1.355 . S
C2155 C2157 1.415 . S
C2156 C2155 1.355 . S
C2156 C2158 1.419 . S
C2157 C2152 1.425 . S
C2157 C2154 1.409 . S
C2157 C2155 1.415 . S
C2158 H2148 0.930 . S
C2158 C2156 1.419 . S
C2158 C2159 1.362 . S
C2159 H2149 0.930 . S
C2159 C2152 1.409 . S
C2159 C2158 1.362 . S
H2160 C2166 0.930 . S
H2161 C2169 0.930 . S
H2162 C2170 0.930 . S
H2163 C2171 0.930 . S
H2164 C2174 0.930 . S
H2165 C2175 0.930 . S
C2166 H2160 0.930 . S
C2166 C2167 1.355 . S
C2166 C2168 1.415 . S
C2167 C2166 1.355 . S
C2167 C2169 1.419 . S
C2168 C2166 1.415 . S
C2168 C2173 1.425 . S
C2168 C2175 1.409 . S
C2169 H2161 0.930 . S
C2169 C2167 1.419 . S
C2169 C2170 1.362 . S
C2170 H2162 0.930 . S
C2170 C2169 1.362 . S
C2170 C2173 1.409 . S
C2171 H2163 0.930 . S
C2171 C2172 1.355 . S
C2171 C2173 1.415 . S
C2172 C2171 1.355 . S
C2172 C2174 1.419 . S
C2173 C2168 1.425 . S
C2173 C2170 1.409 . S
C2173 C2171 1.415 . S
C2174 H2164 0.930 . S
C2174 C2172 1.419 . S
C2174 C2175 1.362 . S
C2175 H2165 0.930 . S
C2175 C2168 1.409 . S
C2175 C2174 1.362 . S
H2176 C2182 0.930 . S
H2177 C2185 0.930 . S
H2178 C2186 0.930 . S
H2179 C2187 0.930 . S
H2180 C2190 0.930 . S
H2181 C2191 0.930 . S
C2182 H2176 0.930 . S
C2182 C2183 1.355 . S
C2182 C2184 1.415 . S
C2183 C2182 1.355 . S
C2183 C2185 1.419 . S
C2184 C2182 1.415 . S
C2184 C2189 1.425 1_655 S
C2184 C2191 1.409 1_655 S
C2185 H2177 0.930 . S
C2185 C2183 1.419 . S
C2185 C2186 1.362 . S
C2186 H2178 0.930 . S
C2186 C2185 1.362 . S
C2186 C2189 1.409 1_655 S
C2187 H2179 0.930 . S
C2187 C2188 1.355 . S
C2187 C2189 1.415 . S
C2188 C2187 1.355 . S
C2188 C2190 1.419 . S
C2189 C2184 1.425 1_455 S
C2189 C2186 1.409 1_455 S
C2189 C2187 1.415 . S
C2190 H2180 0.930 . S
C2190 C2188 1.419 . S
C2190 C2191 1.362 . S
C2191 H2181 0.930 . S
C2191 C2184 1.409 1_455 S
C2191 C2190 1.362 . S
H2192 C2198 0.930 . S
H2193 C2201 0.930 . S
H2194 C2202 0.930 . S
H2195 C2203 0.930 . S
H2196 C2206 0.930 . S
H2197 C2207 0.930 . S
C2198 H2192 0.930 . S
C2198 C2199 1.355 . S
C2198 C2200 1.415 . S
C2199 C2198 1.355 . S
C2199 C2201 1.419 . S
C2200 C2198 1.415 . S
C2200 C2205 1.425 . S
C2200 C2207 1.409 . S
C2201 H2193 0.930 . S
C2201 C2199 1.419 . S
C2201 C2202 1.362 . S
C2202 H2194 0.930 . S
C2202 C2201 1.362 . S
C2202 C2205 1.409 . S
C2203 H2195 0.930 . S
C2203 C2204 1.355 . S
C2203 C2205 1.415 . S
C2204 C2203 1.355 . S
C2204 C2206 1.419 . S
C2205 C2200 1.425 . S
C2205 C2202 1.409 . S
C2205 C2203 1.415 . S
C2206 H2196 0.930 . S
C2206 C2204 1.419 . S
C2206 C2207 1.362 . S
C2207 H2197 0.930 . S
C2207 C2200 1.409 . S
C2207 C2206 1.362 . S
H2208 C2214 0.930 . S
H2209 C2217 0.930 . S
H2210 C2218 0.930 . S
H2211 C2219 0.930 . S
H2212 C2222 0.930 . S
H2213 C2223 0.930 . S
C2214 H2208 0.930 . S
C2214 C2215 1.355 . S
C2214 C2216 1.415 . S
C2215 C2214 1.355 . S
C2215 C2217 1.419 . S
C2216 C2214 1.415 . S
C2216 C2221 1.425 . S
C2216 C2223 1.409 . S
C2217 H2209 0.930 . S
C2217 C2215 1.419 . S
C2217 C2218 1.362 . S
C2218 H2210 0.930 . S
C2218 C2217 1.362 . S
C2218 C2221 1.409 . S
C2219 H2211 0.930 . S
C2219 C2220 1.355 . S
C2219 C2221 1.415 . S
C2220 C2219 1.355 . S
C2220 C2222 1.419 . S
C2221 C2216 1.425 . S
C2221 C2218 1.409 . S
C2221 C2219 1.415 . S
C2222 H2212 0.930 . S
C2222 C2220 1.419 . S
C2222 C2223 1.362 . S
C2223 H2213 0.930 . S
C2223 C2216 1.409 . S
C2223 C2222 1.362 . S
H2224 C2230 0.930 . S
H2225 C2233 0.930 . S
H2226 C2234 0.930 . S
H2227 C2235 0.930 . S
H2228 C2238 0.930 . S
H2229 C2239 0.930 . S
C2230 H2224 0.930 . S
C2230 C2231 1.355 . S
C2230 C2232 1.415 . S
C2231 C2230 1.355 . S
C2231 C2233 1.419 . S
C2232 C2230 1.415 . S
C2232 C2237 1.425 . S
C2232 C2239 1.409 . S
C2233 H2225 0.930 . S
C2233 C2231 1.419 . S
C2233 C2234 1.362 . S
C2234 H2226 0.930 . S
C2234 C2233 1.362 . S
C2234 C2237 1.409 . S
C2235 H2227 0.930 . S
C2235 C2236 1.355 . S
C2235 C2237 1.415 . S
C2236 C2235 1.355 . S
C2236 C2238 1.419 . S
C2237 C2232 1.425 . S
C2237 C2234 1.409 . S
C2237 C2235 1.415 . S
C2238 H2228 0.930 . S
C2238 C2236 1.419 . S
C2238 C2239 1.362 . S
C2239 H2229 0.930 . S
C2239 C2232 1.409 . S
C2239 C2238 1.362 . S
H2240 C2246 0.930 . S
H2241 C2249 0.930 . S
H2242 C2250 0.930 . S
H2243 C2251 0.930 . S
H2244 C2254 0.930 . S
H2245 C2255 0.930 . S
C2246 H2240 0.930 . S
C2246 C2247 1.355 . S
C2246 C2248 1.415 . S
C2247 C2246 1.355 . S
C2247 C2249 1.419 . S
C2248 C2246 1.415 . S
C2248 C2253 1.425 . S
C2248 C2255 1.409 . S
C2249 H2241 0.930 . S
C2249 C2247 1.419 . S
C2249 C2250 1.362 . S
C2250 H2242 0.930 . S
C2250 C2249 1.362 . S
C2250 C2253 1.409 . S
C2251 H2243 0.930 . S
C2251 C2252 1.355 . S
C2251 C2253 1.415 . S
C2252 C2251 1.355 . S
C2252 C2254 1.419 . S
C2253 C2248 1.425 . S
C2253 C2250 1.409 . S
C2253 C2251 1.415 . S
C2254 H2244 0.930 . S
C2254 C2252 1.419 . S
C2254 C2255 1.362 . S
C2255 H2245 0.930 . S
C2255 C2248 1.409 . S
C2255 C2254 1.362 . S
H2256 C2262 0.930 . S
H2257 C2265 0.930 . S
H2258 C2266 0.930 . S
H2259 C2267 0.930 . S
H2260 C2270 0.930 . S
H2261 C2271 0.930 . S
C2262 H2256 0.930 . S
C2262 C2263 1.355 . S
C2262 C2264 1.415 . S
C2263 C2262 1.355 . S
C2263 C2265 1.419 . S
C2264 C2262 1.415 . S
C2264 C2269 1.425 . S
C2264 C2271 1.409 . S
C2265 H2257 0.930 . S
C2265 C2263 1.419 . S
C2265 C2266 1.362 . S
C2266 H2258 0.930 . S
C2266 C2265 1.362 . S
C2266 C2269 1.409 . S
C2267 H2259 0.930 . S
C2267 C2268 1.355 . S
C2267 C2269 1.415 . S
C2268 C2267 1.355 . S
C2268 C2270 1.419 . S
C2269 C2264 1.425 . S
C2269 C2266 1.409 . S
C2269 C2267 1.415 . S
C2270 H2260 0.930 . S
C2270 C2268 1.419 . S
C2270 C2271 1.362 . S
C2271 H2261 0.930 . S
C2271 C2264 1.409 . S
C2271 C2270 1.362 . S
H2272 C2278 0.930 . S
H2273 C2281 0.930 . S
H2274 C2282 0.930 . S
H2275 C2283 0.930 . S
H2276 C2286 0.930 . S
H2277 C2287 0.930 . S
C2278 H2272 0.930 . S
C2278 C2279 1.355 . S
C2278 C2280 1.415 . S
C2279 C2278 1.355 . S
C2279 C2281 1.419 . S
C2280 C2278 1.415 . S
C2280 C2285 1.425 . S
C2280 C2287 1.409 . S
C2281 H2273 0.930 . S
C2281 C2279 1.419 . S
C2281 C2282 1.362 . S
C2282 H2274 0.930 . S
C2282 C2281 1.362 . S
C2282 C2285 1.409 . S
C2283 H2275 0.930 . S
C2283 C2284 1.355 . S
C2283 C2285 1.415 . S
C2284 C2283 1.355 . S
C2284 C2286 1.419 . S
C2285 C2280 1.425 . S
C2285 C2282 1.409 . S
C2285 C2283 1.415 . S
C2286 H2276 0.930 . S
C2286 C2284 1.419 . S
C2286 C2287 1.362 . S
C2287 H2277 0.930 . S
C2287 C2280 1.409 . S
C2287 C2286 1.362 . S
H2288 C2294 0.930 . S
H2289 C2297 0.930 . S
H2290 C2298 0.930 . S
H2291 C2299 0.930 . S
H2292 C2302 0.930 . S
H2293 C2303 0.930 . S
C2294 H2288 0.930 . S
C2294 C2295 1.355 . S
C2294 C2296 1.415 . S
C2295 C2294 1.355 . S
C2295 C2297 1.419 . S
C2296 C2294 1.415 . S
C2296 C2301 1.425 . S
C2296 C2303 1.409 . S
C2297 H2289 0.930 . S
C2297 C2295 1.419 . S
C2297 C2298 1.362 . S
C2298 H2290 0.930 . S
C2298 C2297 1.362 . S
C2298 C2301 1.409 . S
C2299 H2291 0.930 . S
C2299 C2300 1.355 . S
C2299 C2301 1.415 . S
C2300 C2299 1.355 . S
C2300 C2302 1.419 . S
C2301 C2296 1.425 . S
C2301 C2298 1.409 . S
C2301 C2299 1.415 . S
C2302 H2292 0.930 . S
C2302 C2300 1.419 . S
C2302 C2303 1.362 . S
C2303 H2293 0.930 . S
C2303 C2296 1.409 . S
C2303 C2302 1.362 . S
H2304 C2310 0.930 . S
H2305 C2313 0.930 . S
H2306 C2314 0.930 . S
H2307 C2315 0.930 . S
H2308 C2318 0.930 . S
H2309 C2319 0.930 . S
C2310 H2304 0.930 . S
C2310 C2311 1.355 . S
C2310 C2312 1.415 . S
C2311 C2310 1.355 . S
C2311 C2313 1.419 . S
C2312 C2310 1.415 . S
C2312 C2317 1.425 . S
C2312 C2319 1.409 . S
C2313 H2305 0.930 . S
C2313 C2311 1.419 . S
C2313 C2314 1.362 . S
C2314 H2306 0.930 . S
C2314 C2313 1.362 . S
C2314 C2317 1.409 . S
C2315 H2307 0.930 . S
C2315 C2316 1.355 . S
C2315 C2317 1.415 . S
C2316 C2315 1.355 . S
C2316 C2318 1.419 . S
C2317 C2312 1.425 . S
C2317 C2314 1.409 . S
C2317 C2315 1.415 . S
C2318 H2308 0.930 . S
C2318 C2316 1.419 . S
C2318 C2319 1.362 . S
C2319 H2309 0.930 . S
C2319 C2312 1.409 . S
C2319 C2318 1.362 . S
H2320 C2326 0.930 . S
H2321 C2329 0.930 . S
H2322 C2330 0.930 . S
H2323 C2331 0.930 . S
H2324 C2334 0.930 . S
H2325 C2335 0.930 . S
C2326 H2320 0.930 . S
C2326 C2327 1.355 . S
C2326 C2328 1.415 . S
C2327 C2326 1.355 . S
C2327 C2329 1.419 . S
C2328 C2326 1.415 . S
C2328 C2333 1.425 1_455 S
C2328 C2335 1.409 1_455 S
C2329 H2321 0.930 . S
C2329 C2327 1.419 . S
C2329 C2330 1.362 . S
C2330 H2322 0.930 . S
C2330 C2329 1.362 . S
C2330 C2333 1.409 1_455 S
C2331 H2323 0.930 . S
C2331 C2332 1.355 . S
C2331 C2333 1.415 . S
C2332 C2331 1.355 . S
C2332 C2334 1.419 . S
C2333 C2328 1.425 1_655 S
C2333 C2330 1.409 1_655 S
C2333 C2331 1.415 . S
C2334 H2324 0.930 . S
C2334 C2332 1.419 . S
C2334 C2335 1.362 . S
C2335 H2325 0.930 . S
C2335 C2328 1.409 1_655 S
C2335 C2334 1.362 . S
H2336 C2342 0.930 . S
H2337 C2345 0.930 . S
H2338 C2346 0.930 . S
H2339 C2347 0.930 . S
H2340 C2350 0.930 . S
H2341 C2351 0.930 . S
C2342 H2336 0.930 . S
C2342 C2343 1.355 . S
C2342 C2344 1.415 . S
C2343 C2342 1.355 . S
C2343 C2345 1.419 . S
C2344 C2342 1.415 . S
C2344 C2349 1.425 . S
C2344 C2351 1.409 . S
C2345 H2337 0.930 . S
C2345 C2343 1.419 . S
C2345 C2346 1.362 . S
C2346 H2338 0.930 . S
C2346 C2345 1.362 . S
C2346 C2349 1.409 . S
C2347 H2339 0.930 . S
C2347 C2348 1.355 . S
C2347 C2349 1.415 . S
C2348 C2347 1.355 . S
C2348 C2350 1.419 . S
C2349 C2344 1.425 . S
C2349 C2346 1.409 . S
C2349 C2347 1.415 . S
C2350 H2340 0.930 . S
C2350 C2348 1.419 . S
C2350 C2351 1.362 . S
C2351 H2341 0.930 . S
C2351 C2344 1.409 . S
C2351 C2350 1.362 . S
H2352 C2358 0.930 . S
H2353 C2361 0.930 . S
H2354 C2362 0.930 . S
H2355 C2363 0.930 . S
H2356 C2366 0.930 . S
H2357 C2367 0.930 . S
C2358 H2352 0.930 . S
C2358 C2359 1.355 . S
C2358 C2360 1.415 . S
C2359 C2358 1.355 . S
C2359 C2361 1.419 . S
C2360 C2358 1.415 . S
C2360 C2365 1.425 1_455 S
C2360 C2367 1.409 1_455 S
C2361 H2353 0.930 . S
C2361 C2359 1.419 . S
C2361 C2362 1.362 . S
C2362 H2354 0.930 . S
C2362 C2361 1.362 . S
C2362 C2365 1.409 1_455 S
C2363 H2355 0.930 . S
C2363 C2364 1.355 . S
C2363 C2365 1.415 . S
C2364 C2363 1.355 . S
C2364 C2366 1.419 . S
C2365 C2360 1.425 1_655 S
C2365 C2362 1.409 1_655 S
C2365 C2363 1.415 . S
C2366 H2356 0.930 . S
C2366 C2364 1.419 . S
C2366 C2367 1.362 . S
C2367 H2357 0.930 . S
C2367 C2360 1.409 1_655 S
C2367 C2366 1.362 . S
C1095 C5 1.451 . S
C1100 C9 1.412 . S
C1111 C43 1.419 . S
C1116 C39 1.447 . S
C1127 C77 1.425 . S
C1132 C73 1.447 . S
C1143 C111 1.386 . S
C1148 C107 1.443 . S
C1159 C145 1.417 . S
C1164 C141 1.446 . S
C1175 C179 1.352 . S
C1180 C175 1.444 . S
C1191 C209 1.446 . S
C1196 C213 1.354 . S
C1207 C243 1.447 . S
C1212 C247 1.422 . S
C1223 C277 1.447 . S
C1228 C281 1.358 . S
C1239 C311 1.451 . S
C1244 C315 1.396 . S
C1255 C345 1.449 . S
C1260 C349 1.428 . S
C1271 C383 1.410 . S
C1276 C379 1.445 . S
C1287 C413 1.443 . S
C1292 C417 1.362 . S
C1303 C447 1.451 . S
C1308 C451 1.397 . S
C1319 C485 1.427 . S
C1324 C481 1.451 . S
C1335 C515 1.445 . S
C1340 C519 1.352 . S
C1351 C553 1.375 . S
C1356 C549 1.443 . S
C1367 C587 1.428 . S
C1372 C583 1.450 . S
C1383 C621 1.354 . S
C1388 C617 1.444 . S
C1399 C655 1.426 . S
C1404 C651 1.451 . S
C1415 C689 1.429 . S
C1420 C685 1.449 . S
C1431 C723 1.420 . S
C1436 C719 1.447 . S
C1447 C757 1.389 . S
C1452 C753 1.451 . S
C1463 C787 1.443 . S
C1468 C791 1.354 . S
C1479 C825 1.427 . S
C1484 C821 1.448 . S
C1495 C859 1.358 . S
C1500 C855 1.443 . S
C1511 C893 1.427 . S
C1516 C889 1.451 . S
C1527 C923 1.451 . S
C1532 C927 1.412 . S
C1543 C957 1.449 . S
C1548 C961 1.429 . S
C1559 C991 1.447 . S
C1564 C995 1.421 . S
C1575 C1029 1.392 . S
C1580 C1025 1.444 . S
C1591 C1059 1.445 . S
C1596 C1063 1.352 . S
C1607 C802 1.482 . S
C1612 C20 1.512 . S
C1623 C700 1.488 . S
C1628 C54 1.512 . S
C1639 C734 1.494 . S
C1644 C88 1.508 . S
C1655 C768 1.495 . S
C1660 C122 1.507 . S
C1671 C598 1.483 . S
C1676 C156 1.513 . S
C1687 C632 1.483 . S
C1692 C190 1.513 . S
C1703 C666 1.482 . S
C1708 C224 1.512 . S
C1719 C564 1.483 . S
C1724 C258 1.513 . S
C1735 C1074 1.513 . S
C1740 C292 1.485 . S
C1751 C972 1.483 . S
C1756 C326 1.513 . S
C1767 C360 1.506 . S
C1772 C1006 1.483 . S
C1783 C394 1.484 . S
C1788 C1040 1.505 . S
C1799 C428 1.484 . S
C1804 C870 1.513 . S
C1815 C462 1.512 . S
C1820 C904 1.482 . S
C1831 C496 1.483 . S
C1836 C938 1.513 . S
C1847 C836 1.501 . S
C1852 C530 1.502 . S
C1863 C169 1.258 . S
C1868 C33 1.252 . S
C1879 C67 1.245 . S
C1884 C203 1.230 . S
C1895 C237 1.245 . S
C1900 C101 1.262 . S
C1911 C135 1.232 . S
C1916 C271 1.242 . S
C1927 C305 1.259 . S
C1932 C441 1.231 . S
C1943 C475 1.254 . S
C1948 C339 1.257 . S
C1959 C509 1.229 . S
C1964 C373 1.249 . S
C1975 C543 1.234 . S
C1980 C407 1.261 . S
C1991 C713 1.251 . S
C1996 C577 1.259 . S
C2007 C611 1.261 . S
C2012 C747 1.247 . S
C2023 C645 1.236 . S
C2028 C781 1.237 . S
C2039 C679 1.262 . S
C2044 C815 1.236 . S
C2055 C985 1.243 . S
C2060 C849 1.231 . S
C2071 C1019 1.251 . S
C2076 C883 1.259 . S
C2087 C1053 1.251 . S
C2092 C917 1.229 . S
C2103 C951 1.233 . S
C2108 C1087 1.240 . S
C2119 C2 1.681 . S
C2124 C410 1.677 . S
C2135 C988 1.682 . S
C2140 C36 1.677 . S
C2151 C70 1.675 . S
C2156 C478 1.683 . S
C2167 C1056 1.683 . S
C2172 C104 1.675 . S
C2183 C274 1.678 . S
C2188 C138 1.680 . S
C2199 C172 1.675 . S
C2204 C852 1.683 . S
C2215 C206 1.679 . S
C2220 C342 1.680 . S
C2231 C240 1.677 . S
C2236 C920 1.682 . S
C2247 C716 1.675 . S
C2252 C308 1.683 . S
C2263 C784 1.683 . S
C2268 C376 1.675 . S
C2279 C580 1.682 . S
C2284 C444 1.676 . S
C2295 C648 1.682 . S
C2300 C512 1.677 . S
C2311 C546 1.676 . S
C2316 C954 1.683 . S
C2327 C1022 1.678 . S
C2332 C614 1.680 . S
C2343 C682 1.680 . S
C2348 C818 1.678 . S
C2359 C886 1.680 . S
C2364 C750 1.679 . S
