# Generated by pormake.
# Topology uow, (4)-cn, num edge types: 1
# Building blocks:
#     Node 0, Type 0, BuildingBlock: NAHDIM_clean_sbu_0, # of connection points: 4
#     Node 1, Type 0, BuildingBlock: NAHDIM_clean_sbu_0, # of connection points: 4
#     Node 2, Type 0, BuildingBlock: NAHDIM_clean_sbu_0, # of connection points: 4
#     Node 3, Type 0, BuildingBlock: NAHDIM_clean_sbu_0, # of connection points: 4
#     Node 4, Type 0, BuildingBlock: NAHDIM_clean_sbu_0, # of connection points: 4
#     Node 5, Type 0, BuildingBlock: NAHDIM_clean_sbu_0, # of connection points: 4
#     Node 6, Type 0, BuildingBlock: NAHDIM_clean_sbu_0, # of connection points: 4
#     Node 7, Type 0, BuildingBlock: NAHDIM_clean_sbu_0, # of connection points: 4
#     Node 8, Type 0, BuildingBlock: NAHDIM_clean_sbu_0, # of connection points: 4
#     Node 9, Type 0, BuildingBlock: NAHDIM_clean_sbu_0, # of connection points: 4
#     Node 10, Type 0, BuildingBlock: NAHDIM_clean_sbu_0, # of connection points: 4
#     Node 11, Type 0, BuildingBlock: NAHDIM_clean_sbu_0, # of connection points: 4
#     Node 12, Type 0, BuildingBlock: NAHDIM_clean_sbu_0, # of connection points: 4
#     Node 13, Type 0, BuildingBlock: NAHDIM_clean_sbu_0, # of connection points: 4
#     Node 14, Type 0, BuildingBlock: NAHDIM_clean_sbu_0, # of connection points: 4
#     Node 15, Type 0, BuildingBlock: NAHDIM_clean_sbu_0, # of connection points: 4
#     Node 16, Type 0, BuildingBlock: NAHDIM_clean_sbu_0, # of connection points: 4
#     Node 17, Type 0, BuildingBlock: NAHDIM_clean_sbu_0, # of connection points: 4
#     Node 18, Type 0, BuildingBlock: NAHDIM_clean_sbu_0, # of connection points: 4
#     Node 19, Type 0, BuildingBlock: NAHDIM_clean_sbu_0, # of connection points: 4
#     Node 20, Type 0, BuildingBlock: NAHDIM_clean_sbu_0, # of connection points: 4
#     Node 21, Type 0, BuildingBlock: NAHDIM_clean_sbu_0, # of connection points: 4
#     Node 22, Type 0, BuildingBlock: NAHDIM_clean_sbu_0, # of connection points: 4
#     Node 23, Type 0, BuildingBlock: NAHDIM_clean_sbu_0, # of connection points: 4
#     Node 24, Type 0, BuildingBlock: NAHDIM_clean_sbu_0, # of connection points: 4
#     Node 25, Type 0, BuildingBlock: NAHDIM_clean_sbu_0, # of connection points: 4
#     Node 26, Type 0, BuildingBlock: NAHDIM_clean_sbu_0, # of connection points: 4
#     Node 27, Type 0, BuildingBlock: NAHDIM_clean_sbu_0, # of connection points: 4
#     Node 28, Type 0, BuildingBlock: NAHDIM_clean_sbu_0, # of connection points: 4
#     Node 29, Type 0, BuildingBlock: NAHDIM_clean_sbu_0, # of connection points: 4
#     Node 30, Type 0, BuildingBlock: NAHDIM_clean_sbu_0, # of connection points: 4
#     Node 31, Type 0, BuildingBlock: NAHDIM_clean_sbu_0, # of connection points: 4
#     Edge 32, Type (0, 0), BuildingBlock: ZUJKAS_clean_linker_0, # of connection points: 2
#     Edge 33, Type (0, 0), BuildingBlock: ZUJKAS_clean_linker_0, # of connection points: 2
#     Edge 34, Type (0, 0), BuildingBlock: ZUJKAS_clean_linker_0, # of connection points: 2
#     Edge 35, Type (0, 0), BuildingBlock: ZUJKAS_clean_linker_0, # of connection points: 2
#     Edge 36, Type (0, 0), BuildingBlock: ZUJKAS_clean_linker_0, # of connection points: 2
#     Edge 37, Type (0, 0), BuildingBlock: ZUJKAS_clean_linker_0, # of connection points: 2
#     Edge 38, Type (0, 0), BuildingBlock: ZUJKAS_clean_linker_0, # of connection points: 2
#     Edge 39, Type (0, 0), BuildingBlock: ZUJKAS_clean_linker_0, # of connection points: 2
#     Edge 40, Type (0, 0), BuildingBlock: ZUJKAS_clean_linker_0, # of connection points: 2
#     Edge 41, Type (0, 0), BuildingBlock: ZUJKAS_clean_linker_0, # of connection points: 2
#     Edge 42, Type (0, 0), BuildingBlock: ZUJKAS_clean_linker_0, # of connection points: 2
#     Edge 43, Type (0, 0), BuildingBlock: ZUJKAS_clean_linker_0, # of connection points: 2
#     Edge 44, Type (0, 0), BuildingBlock: ZUJKAS_clean_linker_0, # of connection points: 2
#     Edge 45, Type (0, 0), BuildingBlock: ZUJKAS_clean_linker_0, # of connection points: 2
#     Edge 46, Type (0, 0), BuildingBlock: ZUJKAS_clean_linker_0, # of connection points: 2
#     Edge 47, Type (0, 0), BuildingBlock: ZUJKAS_clean_linker_0, # of connection points: 2
#     Edge 48, Type (0, 0), BuildingBlock: ZUJKAS_clean_linker_0, # of connection points: 2
#     Edge 49, Type (0, 0), BuildingBlock: ZUJKAS_clean_linker_0, # of connection points: 2
#     Edge 50, Type (0, 0), BuildingBlock: ZUJKAS_clean_linker_0, # of connection points: 2
#     Edge 51, Type (0, 0), BuildingBlock: ZUJKAS_clean_linker_0, # of connection points: 2
#     Edge 52, Type (0, 0), BuildingBlock: ZUJKAS_clean_linker_0, # of connection points: 2
#     Edge 53, Type (0, 0), BuildingBlock: ZUJKAS_clean_linker_0, # of connection points: 2
#     Edge 54, Type (0, 0), BuildingBlock: ZUJKAS_clean_linker_0, # of connection points: 2
#     Edge 55, Type (0, 0), BuildingBlock: ZUJKAS_clean_linker_0, # of connection points: 2
#     Edge 56, Type (0, 0), BuildingBlock: ZUJKAS_clean_linker_0, # of connection points: 2
#     Edge 57, Type (0, 0), BuildingBlock: ZUJKAS_clean_linker_0, # of connection points: 2
#     Edge 58, Type (0, 0), BuildingBlock: ZUJKAS_clean_linker_0, # of connection points: 2
#     Edge 59, Type (0, 0), BuildingBlock: ZUJKAS_clean_linker_0, # of connection points: 2
#     Edge 60, Type (0, 0), BuildingBlock: ZUJKAS_clean_linker_0, # of connection points: 2
#     Edge 61, Type (0, 0), BuildingBlock: ZUJKAS_clean_linker_0, # of connection points: 2
#     Edge 62, Type (0, 0), BuildingBlock: ZUJKAS_clean_linker_0, # of connection points: 2
#     Edge 63, Type (0, 0), BuildingBlock: ZUJKAS_clean_linker_0, # of connection points: 2
#     Edge 64, Type (0, 0), BuildingBlock: ZUJKAS_clean_linker_0, # of connection points: 2
#     Edge 65, Type (0, 0), BuildingBlock: ZUJKAS_clean_linker_0, # of connection points: 2
#     Edge 66, Type (0, 0), BuildingBlock: ZUJKAS_clean_linker_0, # of connection points: 2
#     Edge 67, Type (0, 0), BuildingBlock: ZUJKAS_clean_linker_0, # of connection points: 2
#     Edge 68, Type (0, 0), BuildingBlock: ZUJKAS_clean_linker_0, # of connection points: 2
#     Edge 69, Type (0, 0), BuildingBlock: ZUJKAS_clean_linker_0, # of connection points: 2
#     Edge 70, Type (0, 0), BuildingBlock: ZUJKAS_clean_linker_0, # of connection points: 2
#     Edge 71, Type (0, 0), BuildingBlock: ZUJKAS_clean_linker_0, # of connection points: 2
#     Edge 72, Type (0, 0), BuildingBlock: ZUJKAS_clean_linker_0, # of connection points: 2
#     Edge 73, Type (0, 0), BuildingBlock: ZUJKAS_clean_linker_0, # of connection points: 2
#     Edge 74, Type (0, 0), BuildingBlock: ZUJKAS_clean_linker_0, # of connection points: 2
#     Edge 75, Type (0, 0), BuildingBlock: ZUJKAS_clean_linker_0, # of connection points: 2
#     Edge 76, Type (0, 0), BuildingBlock: ZUJKAS_clean_linker_0, # of connection points: 2
#     Edge 77, Type (0, 0), BuildingBlock: ZUJKAS_clean_linker_0, # of connection points: 2
#     Edge 78, Type (0, 0), BuildingBlock: ZUJKAS_clean_linker_0, # of connection points: 2
#     Edge 79, Type (0, 0), BuildingBlock: ZUJKAS_clean_linker_0, # of connection points: 2
#     Edge 80, Type (0, 0), BuildingBlock: ZUJKAS_clean_linker_0, # of connection points: 2
#     Edge 81, Type (0, 0), BuildingBlock: ZUJKAS_clean_linker_0, # of connection points: 2
#     Edge 82, Type (0, 0), BuildingBlock: ZUJKAS_clean_linker_0, # of connection points: 2
#     Edge 83, Type (0, 0), BuildingBlock: ZUJKAS_clean_linker_0, # of connection points: 2
#     Edge 84, Type (0, 0), BuildingBlock: ZUJKAS_clean_linker_0, # of connection points: 2
#     Edge 85, Type (0, 0), BuildingBlock: ZUJKAS_clean_linker_0, # of connection points: 2
#     Edge 86, Type (0, 0), BuildingBlock: ZUJKAS_clean_linker_0, # of connection points: 2
#     Edge 87, Type (0, 0), BuildingBlock: ZUJKAS_clean_linker_0, # of connection points: 2
#     Edge 88, Type (0, 0), BuildingBlock: ZUJKAS_clean_linker_0, # of connection points: 2
#     Edge 89, Type (0, 0), BuildingBlock: ZUJKAS_clean_linker_0, # of connection points: 2
#     Edge 90, Type (0, 0), BuildingBlock: ZUJKAS_clean_linker_0, # of connection points: 2
#     Edge 91, Type (0, 0), BuildingBlock: ZUJKAS_clean_linker_0, # of connection points: 2
#     Edge 92, Type (0, 0), BuildingBlock: ZUJKAS_clean_linker_0, # of connection points: 2
#     Edge 93, Type (0, 0), BuildingBlock: ZUJKAS_clean_linker_0, # of connection points: 2
#     Edge 94, Type (0, 0), BuildingBlock: ZUJKAS_clean_linker_0, # of connection points: 2
#     Edge 95, Type (0, 0), BuildingBlock: ZUJKAS_clean_linker_0, # of connection points: 2
# Relax obj value: 0.217
# Max RMSD: 0.240
# Mean RMSD: 0.240
data_MOF--net-uow--node1-NAHDIM_clean_sbu_0--edge1-ZUJKAS_clean_linker_0
_symmetry_space_group_name_H-M    P1
_symmetry_Int_Tables_number       1
_symmetry_cell_setting            triclinic
loop_
_symmetry_equiv_pos_as_xyz
'x, y, z'
_cell_length_a     79.966347
_cell_length_b     79.946143
_cell_length_c     50.975388
_cell_angle_alpha  89.984843
_cell_angle_beta   89.996665
_cell_angle_gamma 89.986876
loop_
_atom_site_label
_atom_site_type_symbol
_atom_site_fract_x
_atom_site_fract_y
_atom_site_fract_z
_atom_type_partial_charge
C0 C 0.05478 0.41772 0.27114 0.0
O1 O 0.04442 0.4076 0.25896 0.0
O2 O 0.03604 0.38389 0.30789 0.0
Zn3 Zn 0.05991 0.38753 0.29645 0.0
O4 O 0.06358 0.37605 0.26195 0.0
C5 C 0.07075 0.37202 0.3446 0.0
O6 O 0.05479 0.37328 0.3504 0.0
O7 O 0.0635 0.412 0.28996 0.0
C8 C 0.07143 0.36243 0.25846 0.0
O9 O 0.07807 0.35467 0.27865 0.0
C10 C 0.02518 0.37703 0.2932 0.0
O11 O 0.02944 0.37219 0.26951 0.0
O12 O 0.076 0.37803 0.32304 0.0
C13 C 0.82285 0.82365 0.569 0.0
O14 O 0.82517 0.80898 0.58003 0.0
O15 O 0.85996 0.79932 0.57477 0.0
Zn16 Zn 0.85879 0.8228 0.56083 0.0
O17 O 0.86616 0.82254 0.52334 0.0
C18 C 0.87404 0.83855 0.60593 0.0
O19 O 0.8626 0.83023 0.61906 0.0
O20 O 0.83541 0.83188 0.56091 0.0
C21 C 0.88081 0.8184 0.51623 0.0
O22 O 0.89188 0.81416 0.53408 0.0
C23 C 0.85601 0.78699 0.5603 0.0
O24 O 0.85053 0.78982 0.53641 0.0
O25 O 0.8744 0.83746 0.58108 0.0
C26 C 0.42734 0.57924 0.79493 0.0
O27 O 0.4409 0.58238 0.8086 0.0
O28 O 0.45034 0.61689 0.80005 0.0
Zn29 Zn 0.42652 0.61522 0.78792 0.0
O30 O 0.42515 0.62507 0.7519 0.0
C31 C 0.41385 0.6276 0.83691 0.0
O32 O 0.42485 0.61704 0.84656 0.0
O33 O 0.41903 0.59133 0.78538 0.0
C34 C 0.43013 0.63982 0.74692 0.0
O35 O 0.43603 0.64913 0.76604 0.0
C36 C 0.46245 0.61358 0.78477 0.0
O37 O 0.4593 0.60843 0.7608 0.0
O38 O 0.41199 0.62853 0.8122 0.0
C39 C 0.6662 0.17741 0.06522 0.0
O40 O 0.6641 0.19013 0.08121 0.0
O41 O 0.63131 0.20465 0.06784 0.0
Zn42 Zn 0.63043 0.18051 0.05687 0.0
O43 O 0.62064 0.17898 0.02073 0.0
C44 C 0.60245 0.17499 0.08901 0.0
O45 O 0.59963 0.19032 0.08082 0.0
O46 O 0.65353 0.17089 0.05425 0.0
C47 C 0.61066 0.18952 0.01059 0.0
O48 O 0.60575 0.2025 0.02439 0.0
C49 C 0.63889 0.21587 0.05477 0.0
O50 O 0.64705 0.21166 0.03339 0.0
O51 O 0.61572 0.16761 0.08164 0.0
C52 C 0.06359 0.58776 0.18522 0.0
O53 O 0.05259 0.59325 0.16811 0.0
O54 O 0.0427 0.62679 0.18861 0.0
Zn55 Zn 0.06659 0.62276 0.19874 0.0
O56 O 0.07005 0.63145 0.23512 0.0
C57 C 0.07985 0.63377 0.14916 0.0
O58 O 0.06822 0.62383 0.13976 0.0
O59 O 0.07139 0.59819 0.19946 0.0
C60 C 0.07287 0.64674 0.24014 0.0
O61 O 0.07362 0.65757 0.22078 0.0
C62 C 0.03083 0.6211 0.20258 0.0
O63 O 0.03438 0.61239 0.22373 0.0
O64 O 0.08171 0.6349 0.17384 0.0
C65 C 0.66628 0.8276 0.44709 0.0
O66 O 0.66471 0.81497 0.4308 0.0
O67 O 0.63214 0.79974 0.44051 0.0
Zn68 Zn 0.63069 0.82297 0.45522 0.0
O69 O 0.62143 0.82156 0.49161 0.0
C70 C 0.61475 0.83493 0.40833 0.0
O71 O 0.62535 0.82464 0.39703 0.0
O72 O 0.65337 0.83342 0.45835 0.0
C73 C 0.60834 0.8134 0.49759 0.0
O74 O 0.60003 0.8055 0.47913 0.0
C75 C 0.63831 0.7877 0.45359 0.0
O76 O 0.64429 0.79057 0.47717 0.0
O77 O 0.61517 0.83668 0.43309 0.0
C78 C 0.42527 0.41622 0.68732 0.0
O79 O 0.4382 0.41323 0.67212 0.0
O80 O 0.45036 0.38005 0.6867 0.0
Zn81 Zn 0.42576 0.38039 0.69458 0.0
O82 O 0.42236 0.36941 0.72947 0.0
C83 C 0.42057 0.35593 0.65483 0.0
O84 O 0.43654 0.35344 0.65939 0.0
O85 O 0.41764 0.40402 0.69788 0.0
C86 C 0.43042 0.35646 0.73651 0.0
O87 O 0.44116 0.34965 0.7202 0.0
C88 C 0.46115 0.38523 0.70311 0.0
O89 O 0.45609 0.39169 0.72544 0.0
O90 O 0.41298 0.36742 0.66729 0.0
C91 C 0.82399 0.17787 0.93991 0.0
O92 O 0.82704 0.19184 0.92723 0.0
O93 O 0.86156 0.20151 0.93699 0.0
Zn94 Zn 0.85986 0.17763 0.9488 0.0
O95 O 0.86792 0.17647 0.98586 0.0
C96 C 0.87347 0.16184 0.90204 0.0
O97 O 0.86115 0.16944 0.88985 0.0
O98 O 0.83614 0.16948 0.94912 0.0
C99 C 0.88318 0.17852 0.99193 0.0
O100 O 0.89416 0.18151 0.97333 0.0
C101 C 0.85652 0.2133 0.95173 0.0
O102 O 0.8496 0.20963 0.97439 0.0
O103 O 0.87482 0.16331 0.92676 0.0
C104 C 0.93089 0.57541 0.68495 0.0
O105 O 0.94534 0.57756 0.67316 0.0
O106 O 0.95606 0.61139 0.68016 0.0
Zn107 Zn 0.9317 0.61147 0.68987 0.0
O108 O 0.92937 0.62178 0.72548 0.0
C109 C 0.90462 0.63122 0.67064 0.0
O110 O 0.89825 0.62707 0.6935 0.0
O111 O 0.92266 0.58813 0.69248 0.0
C112 C 0.935 0.6362 0.73108 0.0
O113 O 0.94262 0.64498 0.71286 0.0
C114 C 0.9672 0.60864 0.69743 0.0
O115 O 0.96261 0.60548 0.72168 0.0
O116 O 0.91882 0.62541 0.66415 0.0
C117 C 0.16487 0.1871 0.44631 0.0
O118 O 0.16279 0.19999 0.43066 0.0
O119 O 0.12828 0.21261 0.43947 0.0
Zn120 Zn 0.12882 0.18934 0.45421 0.0
O121 O 0.11938 0.19005 0.49065 0.0
C122 C 0.11658 0.17286 0.40737 0.0
O123 O 0.12876 0.18103 0.39575 0.0
O124 O 0.15223 0.18049 0.45724 0.0
C125 C 0.10425 0.18654 0.49587 0.0
O126 O 0.09404 0.18248 0.47673 0.0
C127 C 0.13509 0.22481 0.45135 0.0
O128 O 0.14316 0.22205 0.47338 0.0
O129 O 0.11466 0.17431 0.43199 0.0
C130 C 0.568 0.41124 0.22983 0.0
O131 O 0.5576 0.40126 0.24221 0.0
O132 O 0.54467 0.38201 0.1878 0.0
Zn133 Zn 0.56881 0.38254 0.1992 0.0
O134 O 0.571 0.36874 0.23187 0.0
C135 C 0.5783 0.36623 0.15086 0.0
O136 O 0.56216 0.367 0.14627 0.0
O137 O 0.57496 0.40606 0.20893 0.0
C138 C 0.58511 0.365 0.24163 0.0
O139 O 0.59881 0.36988 0.22962 0.0
C140 C 0.53553 0.36966 0.19427 0.0
O141 O 0.54214 0.35735 0.20784 0.0
O142 O 0.58408 0.37278 0.1717 0.0
C143 C 0.33352 0.81469 0.93863 0.0
O144 O 0.33739 0.80156 0.92438 0.0
O145 O 0.37204 0.79289 0.93636 0.0
Zn146 Zn 0.36934 0.81692 0.94693 0.0
O147 O 0.37875 0.81962 0.98303 0.0
C148 C 0.38233 0.82863 0.89761 0.0
O149 O 0.37304 0.81648 0.8882 0.0
O150 O 0.34513 0.82334 0.94883 0.0
C151 C 0.39283 0.81364 0.98975 0.0
O152 O 0.40189 0.8056 0.97234 0.0
C153 C 0.3672 0.78105 0.95117 0.0
O154 O 0.35991 0.78464 0.97358 0.0
O155 O 0.38221 0.83147 0.92213 0.0
C156 C 0.91951 0.41584 0.80166 0.0
O157 O 0.93164 0.41292 0.81843 0.0
O158 O 0.94337 0.3788 0.80873 0.0
Zn159 Zn 0.91983 0.37988 0.79513 0.0
O160 O 0.91946 0.36901 0.75978 0.0
C161 C 0.90617 0.36761 0.8438 0.0
O162 O 0.91739 0.37762 0.85419 0.0
O163 O 0.91234 0.40361 0.79045 0.0
C164 C 0.9265 0.355 0.75568 0.0
O165 O 0.93402 0.34732 0.77518 0.0
C166 C 0.95555 0.38337 0.79441 0.0
O167 O 0.95251 0.38936 0.77087 0.0
O168 O 0.90467 0.36703 0.81902 0.0
C169 C 0.32731 0.17239 0.55599 0.0
O170 O 0.33129 0.18463 0.57198 0.0
O171 O 0.36408 0.19624 0.55748 0.0
Zn172 Zn 0.36269 0.17252 0.54486 0.0
O173 O 0.37149 0.17187 0.50816 0.0
C174 C 0.37785 0.16013 0.59222 0.0
O175 O 0.3676 0.17083 0.60334 0.0
O176 O 0.33883 0.16478 0.54366 0.0
C177 C 0.38581 0.17766 0.50233 0.0
O178 O 0.39523 0.18403 0.52093 0.0
C179 C 0.35863 0.20831 0.54367 0.0
O180 O 0.35166 0.20513 0.52088 0.0
O181 O 0.37732 0.15819 0.5675 0.0
C182 C 0.57798 0.58101 0.31388 0.0
O183 O 0.56914 0.58609 0.33409 0.0
O184 O 0.55047 0.61553 0.3098 0.0
Zn185 Zn 0.57443 0.61529 0.29803 0.0
O186 O 0.57605 0.62481 0.26174 0.0
C187 C 0.58113 0.6419 0.33289 0.0
O188 O 0.5654 0.6449 0.32715 0.0
O189 O 0.58232 0.59156 0.29655 0.0
C190 C 0.56673 0.63651 0.25331 0.0
O191 O 0.55544 0.64307 0.26895 0.0
C192 C 0.53872 0.60849 0.2972 0.0
O193 O 0.54216 0.60039 0.27543 0.0
O194 O 0.58826 0.62926 0.3227 0.0
C195 C 0.16832 0.81685 0.04372 0.0
O196 O 0.16428 0.80402 0.05852 0.0
O197 O 0.13016 0.79465 0.04525 0.0
Zn198 Zn 0.13268 0.81865 0.03444 0.0
O199 O 0.12323 0.82098 -0.00168 0.0
C200 C 0.11764 0.82889 0.08284 0.0
O201 O 0.12607 0.816 0.09187 0.0
O202 O 0.15683 0.8253 0.03278 0.0
C203 C 0.10899 0.81503 0.99244 0.0
O204 O 0.10016 0.80739 0.01059 0.0
C205 C 0.13493 0.78258 0.03087 0.0
O206 O 0.14226 0.78579 0.00835 0.0
O207 O 0.11925 0.83297 0.05889 0.0
C208 C 0.57834 0.91034 0.7695 0.0
O209 O 0.57413 0.90055 0.74991 0.0
O210 O 0.5476 0.87923 0.80673 0.0
Zn211 Zn 0.57203 0.88025 0.79776 0.0
O212 O 0.57544 0.86776 0.7641 0.0
C213 C 0.57853 0.86069 0.84405 0.0
O214 O 0.56213 0.86083 0.84538 0.0
O215 O 0.57871 0.90436 0.79262 0.0
C216 C 0.57001 0.85306 0.76006 0.0
O217 O 0.56213 0.84513 0.77895 0.0
C218 C 0.5361 0.88142 0.78987 0.0
O219 O 0.54015 0.88507 0.76556 0.0
O220 O 0.58574 0.86879 0.82579 0.0
C221 C 0.32711 0.31781 0.04443 0.0
O222 O 0.3297 0.30506 0.06018 0.0
O223 O 0.3644 0.29388 0.05054 0.0
Zn224 Zn 0.36326 0.31795 0.03931 0.0
O225 O 0.37452 0.32044 0.00449 0.0
C226 C 0.37849 0.32768 0.08835 0.0
O227 O 0.37219 0.31344 0.09662 0.0
O228 O 0.33955 0.32539 0.03452 0.0
C229 C 0.38716 0.31198 0.99727 0.0
O230 O 0.39351 0.30072 0.01319 0.0
C231 C 0.35942 0.28196 0.03603 0.0
O232 O 0.35298 0.28536 0.01293 0.0
O233 O 0.37561 0.33239 0.06498 0.0
C234 C 0.93085 0.07725 0.26834 0.0
O235 O 0.93793 0.08621 0.24981 0.0
O236 O 0.95677 0.1111 0.3052 0.0
Zn237 Zn 0.93285 0.10858 0.2938 0.0
O238 O 0.9299 0.1197 0.25882 0.0
C239 C 0.92091 0.11983 0.34428 0.0
O240 O 0.93381 0.11132 0.35305 0.0
O241 O 0.92726 0.08419 0.29005 0.0
C242 C 0.92544 0.13481 0.25563 0.0
O243 O 0.92232 0.14418 0.27622 0.0
C244 C 0.96857 0.11241 0.28861 0.0
O245 O 0.96509 0.11188 0.26345 0.0
O246 O 0.91783 0.11988 0.31984 0.0
C247 C 0.17269 0.67597 0.56155 0.0
O248 O 0.17017 0.6896 0.57537 0.0
O249 O 0.13586 0.70088 0.56599 0.0
Zn250 Zn 0.13687 0.67747 0.55194 0.0
O251 O 0.12905 0.67814 0.51467 0.0
C252 C 0.12291 0.65995 0.59685 0.0
O253 O 0.13551 0.66656 0.60973 0.0
O254 O 0.16028 0.66854 0.55126 0.0
C255 C 0.11369 0.67873 0.50845 0.0
O256 O 0.10229 0.67883 0.52702 0.0
C257 C 0.14128 0.71296 0.5522 0.0
O258 O 0.14816 0.70979 0.52932 0.0
O259 O 0.12146 0.6627 0.57243 0.0
C260 C 0.57078 0.08692 0.73071 0.0
O261 O 0.56093 0.095 0.74699 0.0
O262 O 0.54663 0.12063 0.69692 0.0
Zn263 Zn 0.57063 0.11897 0.70855 0.0
O264 O 0.57364 0.1297 0.74377 0.0
C265 C 0.5822 0.13121 0.65838 0.0
O266 O 0.57015 0.12169 0.6492 0.0
O267 O 0.57705 0.09477 0.7114 0.0
C268 C 0.57006 0.14493 0.7481 0.0
O269 O 0.56395 0.15411 0.729 0.0
C270 C 0.53437 0.12259 0.7125 0.0
O271 O 0.53713 0.12358 0.73785 0.0
O272 O 0.58502 0.13139 0.6829 0.0
C273 C 0.16465 0.31984 0.9344 0.0
O274 O 0.16041 0.30561 0.92338 0.0
O275 O 0.12593 0.29847 0.93579 0.0
Zn276 Zn 0.12923 0.32252 0.94586 0.0
O277 O 0.12235 0.32524 0.98331 0.0
C278 C 0.113 0.33434 0.89906 0.0
O279 O 0.12215 0.32267 0.88796 0.0
O280 O 0.15333 0.32925 0.94376 0.0
C281 C 0.10787 0.32123 0.99138 0.0
O282 O 0.09689 0.31529 0.97463 0.0
C283 C 0.12946 0.28664 0.95151 0.0
O284 O 0.13587 0.29021 0.97457 0.0
O285 O 0.11447 0.33692 0.92354 0.0
C286 C 0.92557 0.90042 0.22833 0.0
O287 O 0.93523 0.89135 0.24358 0.0
O288 O 0.94896 0.86869 0.18988 0.0
Zn289 Zn 0.92516 0.86961 0.20254 0.0
O290 O 0.92307 0.85759 0.2369 0.0
C291 C 0.91172 0.86077 0.15178 0.0
O292 O 0.92297 0.87141 0.14318 0.0
O293 O 0.91908 0.89367 0.2082 0.0
C294 C 0.90884 0.85623 0.24772 0.0
O295 O 0.89565 0.86241 0.23578 0.0
C296 C 0.95977 0.85901 0.20008 0.0
O297 O 0.95531 0.84906 0.21936 0.0
O298 O 0.91017 0.85849 0.17632 0.0
C299 C 0.33024 0.67383 0.43809 0.0
O300 O 0.33259 0.68716 0.42349 0.0
O301 O 0.36718 0.69813 0.4321 0.0
Zn302 Zn 0.36642 0.67397 0.44268 0.0
O303 O 0.37719 0.67213 0.47801 0.0
C304 C 0.38674 0.64702 0.4232 0.0
O305 O 0.38545 0.64176 0.44753 0.0
O306 O 0.34283 0.66598 0.44699 0.0
C307 C 0.39146 0.67823 0.48332 0.0
O308 O 0.40002 0.68578 0.46478 0.0
C309 C 0.3623 0.7095 0.44774 0.0
O310 O 0.3561 0.70524 0.47067 0.0
O311 O 0.37916 0.66029 0.4164 0.0
C312 C 0.41845 0.07765 0.18978 0.0
O313 O 0.43098 0.08132 0.17415 0.0
O314 O 0.44074 0.11555 0.18463 0.0
Zn315 Zn 0.41712 0.11348 0.19749 0.0
O316 O 0.41614 0.12341 0.23347 0.0
C317 C 0.40407 0.12641 0.14904 0.0
O318 O 0.41538 0.11641 0.13886 0.0
O319 O 0.41031 0.08942 0.2006 0.0
C320 C 0.4214 0.13809 0.2382 0.0
O321 O 0.42739 0.14719 0.21888 0.0
C322 C 0.45306 0.11117 0.19881 0.0
O323 O 0.45024 0.10471 0.22209 0.0
O324 O 0.40209 0.12664 0.17376 0.0
C325 C 0.66634 0.67418 0.93709 0.0
O326 O 0.66282 0.68664 0.92122 0.0
O327 O 0.6291 0.69827 0.93631 0.0
Zn328 Zn 0.63061 0.67407 0.94661 0.0
O329 O 0.62043 0.67103 0.98218 0.0
C330 C 0.61679 0.6638 0.89684 0.0
O331 O 0.62581 0.67626 0.88777 0.0
O332 O 0.65453 0.66669 0.94891 0.0
C333 C 0.60775 0.67919 0.99005 0.0
O334 O 0.60084 0.6903 0.97446 0.0
C335 C 0.63567 0.70992 0.94976 0.0
O336 O 0.64397 0.70615 0.9712 0.0
O337 O 0.61747 0.66027 0.92112 0.0
C338 C 0.06725 0.92136 0.68723 0.0
O339 O 0.05375 0.91886 0.67308 0.0
O340 O 0.04243 0.88528 0.68343 0.0
Zn341 Zn 0.06698 0.88535 0.692 0.0
O342 O 0.07009 0.87419 0.7268 0.0
C343 C 0.07295 0.86154 0.65123 0.0
O344 O 0.05674 0.85941 0.65378 0.0
O345 O 0.07524 0.90886 0.69611 0.0
C346 C 0.06474 0.85959 0.73192 0.0
O347 O 0.05695 0.85105 0.71362 0.0
C348 C 0.03162 0.88784 0.70126 0.0
O349 O 0.03666 0.89096 0.72529 0.0
O350 O 0.0802 0.87258 0.66509 0.0
C351 C 0.82532 0.30193 0.45609 0.0
O352 O 0.82806 0.28755 0.44439 0.0
O353 O 0.86393 0.28016 0.44693 0.0
Zn354 Zn 0.86159 0.30378 0.45971 0.0
O355 O 0.87172 0.30514 0.49548 0.0
C356 C 0.87622 0.31635 0.41185 0.0
O357 O 0.86864 0.30342 0.40131 0.0
O358 O 0.83766 0.31087 0.46307 0.0
C359 C 0.88715 0.30226 0.49937 0.0
O360 O 0.89674 0.29825 0.47941 0.0
C361 C 0.86113 0.26781 0.462 0.0
O362 O 0.85592 0.2706 0.48605 0.0
O363 O 0.87443 0.31919 0.43621 0.0
C364 C 0.42388 0.91482 0.30299 0.0
O365 O 0.43729 0.91156 0.31698 0.0
O366 O 0.446 0.87675 0.30996 0.0
Zn367 Zn 0.42243 0.87878 0.29675 0.0
O368 O 0.42153 0.86901 0.26066 0.0
C369 C 0.40881 0.86593 0.34492 0.0
O370 O 0.42004 0.87588 0.35544 0.0
O371 O 0.41536 0.90279 0.29372 0.0
C372 C 0.4271 0.85452 0.2554 0.0
O373 O 0.43352 0.84536 0.2743 0.0
C374 C 0.45838 0.88065 0.29558 0.0
O375 O 0.45566 0.88652 0.27189 0.0
O376 O 0.40721 0.86562 0.32014 0.0
C377 C 0.83097 0.67643 0.04036 0.0
O378 O 0.8341 0.68912 0.05597 0.0
O379 O 0.86838 0.70028 0.04368 0.0
Zn380 Zn 0.86693 0.67612 0.03316 0.0
O381 O 0.87798 0.67318 0.99818 0.0
C382 C 0.8782 0.66499 0.08398 0.0
O383 O 0.86777 0.67649 0.09241 0.0
O384 O 0.84306 0.66879 0.02952 0.0
C385 C 0.89017 0.68213 0.99049 0.0
O386 O 0.89605 0.69388 0.00596 0.0
C387 C 0.86262 0.7121 0.02966 0.0
O388 O 0.85497 0.70854 0.00755 0.0
O389 O 0.87938 0.6623 0.05949 0.0
C390 C 0.06481 0.08035 0.80626 0.0
O391 O 0.05082 0.08298 0.81914 0.0
O392 O 0.04023 0.11682 0.80996 0.0
Zn393 Zn 0.0645 0.11631 0.79966 0.0
O394 O 0.06689 0.1263 0.76386 0.0
C395 C 0.07461 0.13123 0.84894 0.0
O396 O 0.06231 0.12228 0.85866 0.0
O397 O 0.07296 0.09276 0.79743 0.0
C398 C 0.06544 0.14189 0.75967 0.0
O399 O 0.06218 0.15195 0.7794 0.0
C400 C 0.02878 0.11504 0.79291 0.0
O401 O 0.03291 0.11267 0.76825 0.0
O402 O 0.078 0.13013 0.82466 0.0
C403 C 0.66304 0.31883 0.56603 0.0
O404 O 0.65841 0.30671 0.58185 0.0
O405 O 0.62407 0.29769 0.56461 0.0
Zn406 Zn 0.62754 0.32186 0.5552 0.0
O407 O 0.61863 0.32606 0.51904 0.0
C408 C 0.61584 0.33434 0.60516 0.0
O409 O 0.62547 0.3225 0.61474 0.0
O410 O 0.65197 0.32724 0.554 0.0
C411 C 0.6073 0.31736 0.50813 0.0
O412 O 0.6004 0.30494 0.52107 0.0
C413 C 0.63013 0.28603 0.55058 0.0
O414 O 0.63902 0.2899 0.52977 0.0
O415 O 0.61523 0.33651 0.5805 0.0
H416 H 0.05603 0.37343 0.21405 0.0
H417 H 0.06067 0.36401 0.16916 0.0
H418 H 0.09639 0.32759 0.19676 0.0
H419 H 0.09159 0.33675 0.242 0.0
H420 H 0.09043 0.36577 0.14344 0.0
H421 H 0.06769 0.3002 0.14626 0.0
H422 H 0.06276 0.31524 0.17154 0.0
H423 H 0.08284 0.30512 0.17111 0.0
C424 C 0.06475 0.36328 0.21066 0.0
C425 C 0.07351 0.35586 0.23157 0.0
C426 C 0.06736 0.3579 0.18499 0.0
C427 C 0.07875 0.34501 0.17967 0.0
C428 C 0.08729 0.33734 0.20051 0.0
H429 H 0.12865 0.33034 0.0313 0.0
H430 H 0.12133 0.33529 0.0771 0.0
C431 C 0.08462 0.34266 0.22631 0.0
C432 C 0.08257 0.34061 0.15214 0.0
H433 H 0.0826 0.30853 0.10794 0.0
C434 C 0.08865 0.35327 0.13565 0.0
C435 C 0.08007 0.32433 0.14201 0.0
C436 C 0.07283 0.31046 0.15855 0.0
C437 C 0.0925 0.35008 0.10933 0.0
C438 C 0.09055 0.33369 0.09941 0.0
C439 C 0.08422 0.32105 0.11574 0.0
C440 C 0.09509 0.32952 0.07209 0.0
C441 C 0.09842 0.36436 0.0923 0.0
C442 C 0.08285 0.32406 0.05435 0.0
C443 C 0.08701 0.3211 0.02811 0.0
C444 C 0.10349 0.32355 0.01929 0.0
C445 C 0.1158 0.32853 0.03737 0.0
C446 C 0.11165 0.33141 0.06355 0.0
H447 H 0.09501 0.3767 0.10078 0.0
H448 H 0.11224 0.36385 0.09061 0.0
H449 H 0.09304 0.36347 0.07226 0.0
H450 H 0.07001 0.32246 0.06067 0.0
H451 H 0.07727 0.31719 0.01469 0.0
H452 H 0.88057 0.85271 0.27729 0.0
H453 H 0.87854 0.84237 0.32232 0.0
H454 H 0.93156 0.83253 0.32297 0.0
H455 H 0.93379 0.84303 0.27803 0.0
H456 H 0.88784 0.81087 0.34469 0.0
H457 H 0.92419 0.86412 0.38599 0.0
H458 H 0.91572 0.86445 0.35318 0.0
H459 H 0.93416 0.85245 0.36023 0.0
C460 C 0.8918 0.84827 0.28694 0.0
C461 C 0.90737 0.84884 0.27419 0.0
C462 C 0.8906 0.84233 0.31263 0.0
C463 C 0.90494 0.83693 0.32601 0.0
C464 C 0.92041 0.83692 0.31307 0.0
H465 H 0.91169 0.81374 0.49401 0.0
H466 H 0.91896 0.8157 0.44737 0.0
C467 C 0.92163 0.84286 0.28738 0.0
C468 C 0.90367 0.83186 0.35382 0.0
H469 H 0.91407 0.84413 0.41581 0.0
C470 C 0.89368 0.81803 0.36026 0.0
C471 C 0.91139 0.84122 0.37401 0.0
C472 C 0.92188 0.85647 0.36816 0.0
C473 C 0.89091 0.81351 0.38648 0.0
C474 C 0.89811 0.82326 0.40668 0.0
C475 C 0.90861 0.83669 0.40022 0.0
C476 C 0.89367 0.82074 0.43455 0.0
C477 C 0.88018 0.79846 0.39236 0.0
C478 C 0.87708 0.82304 0.44268 0.0
C479 C 0.87291 0.82201 0.46918 0.0
C480 C 0.88528 0.81874 0.48811 0.0
C481 C 0.90188 0.81624 0.4799 0.0
C482 C 0.90606 0.81734 0.4533 0.0
H483 H 0.88 0.78957 0.37561 0.0
H484 H 0.88467 0.79177 0.41011 0.0
H485 H 0.86714 0.80262 0.39595 0.0
H486 H 0.86741 0.82604 0.42857 0.0
H487 H 0.86001 0.82401 0.47482 0.0
H488 H 0.4215 0.62262 0.70281 0.0
H489 H 0.41958 0.63322 0.65809 0.0
H490 H 0.43506 0.68207 0.68446 0.0
H491 H 0.43697 0.67157 0.72959 0.0
H492 H 0.40616 0.68209 0.6528 0.0
H493 H 0.45713 0.64572 0.60655 0.0
H494 H 0.44321 0.63284 0.6254 0.0
H495 H 0.45555 0.64856 0.64163 0.0
C496 C 0.42461 0.6356 0.69916 0.0
C497 C 0.42938 0.64626 0.71977 0.0
C498 C 0.42364 0.64159 0.67353 0.0
C499 C 0.42747 0.65833 0.66794 0.0
C500 C 0.43223 0.66905 0.6884 0.0
H501 H 0.42227 0.68793 0.5015 0.0
H502 H 0.43276 0.68596 0.54665 0.0
C503 C 0.43329 0.66304 0.71413 0.0
C504 C 0.4253 0.6647 0.64094 0.0
H505 H 0.43583 0.65634 0.57743 0.0
C506 C 0.41287 0.67673 0.63633 0.0
C507 C 0.43425 0.65787 0.61955 0.0
C508 C 0.44841 0.64566 0.62351 0.0
C509 C 0.40834 0.68123 0.61071 0.0
C510 C 0.41634 0.67333 0.5893 0.0
C511 C 0.42959 0.66222 0.59392 0.0
C512 C 0.41003 0.67516 0.56221 0.0
C513 C 0.39469 0.69401 0.60677 0.0
C514 C 0.39392 0.66949 0.55607 0.0
C515 C 0.38795 0.67049 0.53044 0.0
C516 C 0.39801 0.67715 0.51038 0.0
C517 C 0.41421 0.68278 0.51654 0.0
C518 C 0.42021 0.68169 0.54227 0.0
H519 H 0.39353 0.70241 0.62403 0.0
H520 H 0.39706 0.70172 0.58903 0.0
H521 H 0.38257 0.68746 0.60416 0.0
H522 H 0.38601 0.66407 0.5711 0.0
H523 H 0.37543 0.666 0.52639 0.0
H524 H 0.58475 0.1298 0.79009 0.0
H525 H 0.59007 0.1417 0.83336 0.0
H526 H 0.56739 0.18815 0.80927 0.0
H527 H 0.56199 0.17636 0.76562 0.0
H528 H 0.60912 0.17423 0.84201 0.0
H529 H 0.544 0.17259 0.88121 0.0
H530 H 0.55065 0.15879 0.85515 0.0
H531 H 0.54769 0.18061 0.84865 0.0
C532 C 0.58082 0.14253 0.79393 0.0
C533 C 0.57295 0.15214 0.7744 0.0
C534 C 0.58389 0.1493 0.81866 0.0
C535 C 0.57904 0.16573 0.82441 0.0
C536 C 0.57109 0.17539 0.80514 0.0
H537 H 0.59073 0.21033 0.9813 0.0
H538 H 0.58282 0.20697 0.93508 0.0
C539 C 0.56808 0.16864 0.78025 0.0
C540 C 0.5828 0.17268 0.85054 0.0
H541 H 0.5654 0.1803 0.91047 0.0
C542 C 0.59956 0.17579 0.85692 0.0
C543 C 0.57025 0.17481 0.86973 0.0
C544 C 0.5521 0.17151 0.86358 0.0
C545 C 0.60419 0.18043 0.8824 0.0
C546 C 0.59176 0.18159 0.90204 0.0
C547 C 0.57489 0.17931 0.89534 0.0
C548 C 0.59623 0.1837 0.92998 0.0
C549 C 0.6224 0.18376 0.88816 0.0
C550 C 0.60604 0.17153 0.94244 0.0
C551 C 0.61056 0.17338 0.96867 0.0
C552 C 0.60524 0.18741 0.98307 0.0
C553 C 0.59507 0.19942 0.97071 0.0
C554 C 0.59055 0.19754 0.94435 0.0
H555 H 0.62929 0.18749 0.87015 0.0
H556 H 0.62386 0.19376 0.90311 0.0
H557 H 0.62826 0.17217 0.89584 0.0
H558 H 0.61022 0.16056 0.93183 0.0
H559 H 0.61829 0.16383 0.9776 0.0
H560 H 0.08348 0.67735 0.25772 0.0
H561 H 0.09007 0.68526 0.30302 0.0
H562 H 0.07528 0.63622 0.32953 0.0
H563 H 0.06893 0.62811 0.28449 0.0
H564 H 0.07045 0.68559 0.34909 0.0
H565 H 0.12329 0.64089 0.35656 0.0
H566 H 0.11377 0.64639 0.32564 0.0
H567 H 0.104 0.63126 0.34679 0.0
C568 C 0.08158 0.66828 0.27322 0.0
C569 C 0.07589 0.65204 0.2675 0.0
C570 C 0.08532 0.67283 0.29905 0.0
C571 C 0.08344 0.66121 0.31947 0.0
C572 C 0.07715 0.64524 0.31393 0.0
H573 H 0.08246 0.67406 0.48772 0.0
H574 H 0.07503 0.67162 0.44132 0.0
C575 C 0.07349 0.64065 0.28818 0.0
C576 C 0.08839 0.66557 0.34656 0.0
H577 H 0.11409 0.65337 0.39637 0.0
C578 C 0.08007 0.67866 0.35943 0.0
C579 C 0.10113 0.65665 0.35977 0.0
C580 C 0.11119 0.64312 0.34642 0.0
C581 C 0.08384 0.68276 0.38556 0.0
C582 C 0.09604 0.67331 0.39914 0.0
C583 C 0.10464 0.66052 0.38598 0.0
C584 C 0.10012 0.67627 0.42708 0.0
C585 C 0.07486 0.69724 0.39826 0.0
C586 C 0.1167 0.6795 0.43447 0.0
C587 C 0.12102 0.68064 0.46091 0.0
C588 C 0.10881 0.67858 0.4805 0.0
C589 C 0.09212 0.67577 0.47307 0.0
C590 C 0.08783 0.6745 0.44656 0.0
H591 H 0.06976 0.70603 0.38339 0.0
H592 H 0.06422 0.69239 0.40998 0.0
H593 H 0.08331 0.70426 0.41159 0.0
H594 H 0.12637 0.68084 0.41973 0.0
H595 H 0.13397 0.6829 0.46598 0.0
H596 H 0.57928 0.80005 0.51719 0.0
H597 H 0.56935 0.8011 0.56273 0.0
H598 H 0.61426 0.82719 0.58541 0.0
H599 H 0.6243 0.82616 0.54031 0.0
H600 H 0.60387 0.80027 0.62024 0.0
H601 H 0.55337 0.84602 0.59669 0.0
H602 H 0.55426 0.82693 0.578 0.0
H603 H 0.57057 0.84217 0.57456 0.0
C604 C 0.58707 0.80592 0.53192 0.0
C605 C 0.6025 0.81317 0.5251 0.0
C606 C 0.58137 0.80651 0.55787 0.0
C607 C 0.59104 0.81432 0.57729 0.0
C608 C 0.60663 0.8211 0.57066 0.0
H609 H 0.58313 0.86752 0.71631 0.0
H610 H 0.58613 0.8553 0.67278 0.0
C611 C 0.6123 0.82057 0.54483 0.0
C612 C 0.58481 0.81636 0.60437 0.0
H613 H 0.55849 0.84044 0.6411 0.0
C614 C 0.59371 0.80876 0.62489 0.0
C615 C 0.57161 0.82753 0.6102 0.0
C616 C 0.56189 0.83625 0.58881 0.0
C617 C 0.59027 0.81266 0.65118 0.0
C618 C 0.5776 0.82441 0.65691 0.0
C619 C 0.56814 0.83137 0.63648 0.0
C620 C 0.57553 0.83137 0.68352 0.0
C621 C 0.60084 0.80505 0.67258 0.0
C622 C 0.56856 0.8219 0.70393 0.0
C623 C 0.56679 0.82887 0.72898 0.0
C624 C 0.57203 0.84538 0.73387 0.0
C625 C 0.57902 0.85475 0.71327 0.0
C626 C 0.5807 0.84782 0.68835 0.0
H627 H 0.611 0.79702 0.66465 0.0
H628 H 0.60651 0.81507 0.68477 0.0
H629 H 0.59284 0.79732 0.68559 0.0
H630 H 0.56442 0.80919 0.70044 0.0
H631 H 0.56133 0.82135 0.74443 0.0
H632 H 0.41214 0.29429 0.97289 0.0
H633 H 0.42403 0.29948 0.92921 0.0
H634 H 0.39071 0.3414 0.91912 0.0
H635 H 0.37882 0.3364 0.96242 0.0
H636 H 0.40558 0.30089 0.87966 0.0
H637 H 0.43811 0.36025 0.90298 0.0
H638 H 0.43185 0.34544 0.9279 0.0
H639 H 0.41681 0.35968 0.91413 0.0
C640 C 0.40742 0.30466 0.9614 0.0
C641 C 0.39458 0.31497 0.97114 0.0
C642 C 0.41421 0.30758 0.9365 0.0
C643 C 0.40838 0.32096 0.92123 0.0
C644 C 0.39555 0.33119 0.93086 0.0
H645 H 0.40932 0.36786 0.77448 0.0
H646 H 0.40619 0.3574 0.81913 0.0
C647 C 0.38872 0.32824 0.95556 0.0
C648 C 0.41515 0.32413 0.89475 0.0
H649 H 0.43247 0.355 0.85748 0.0
C650 C 0.41179 0.31254 0.87478 0.0
C651 C 0.42328 0.33932 0.88864 0.0
C652 C 0.42789 0.35183 0.90958 0.0
C653 C 0.41534 0.31629 0.84845 0.0
C654 C 0.4226 0.33192 0.84221 0.0
C655 C 0.4268 0.34308 0.86238 0.0
C656 C 0.42448 0.33765 0.81483 0.0
C657 C 0.41044 0.30399 0.82737 0.0
C658 C 0.43582 0.32996 0.79765 0.0
C659 C 0.43764 0.33591 0.77199 0.0
C660 C 0.42819 0.34967 0.76324 0.0
C661 C 0.4168 0.35724 0.78056 0.0
C662 C 0.415 0.35131 0.8061 0.0
H663 H 0.40278 0.29352 0.83522 0.0
H664 H 0.40326 0.31038 0.81164 0.0
H665 H 0.42189 0.29864 0.81838 0.0
H666 H 0.4434 0.31953 0.80419 0.0
H667 H 0.44657 0.32985 0.75915 0.0
H668 H 0.91512 0.17703 0.01119 0.0
H669 H 0.92361 0.17162 0.05659 0.0
H670 H 0.87186 0.17083 0.08034 0.0
H671 H 0.86324 0.17593 0.03511 0.0
H672 H 0.91721 0.18859 0.10444 0.0
H673 H 0.88961 0.12488 0.10301 0.0
H674 H 0.89279 0.13701 0.07357 0.0
H675 H 0.87514 0.14117 0.09444 0.0
C676 C 0.90555 0.1758 0.02611 0.0
C677 C 0.8885 0.17666 0.01952 0.0
C678 C 0.91043 0.17275 0.05201 0.0
C679 C 0.89834 0.17054 0.07164 0.0
C680 C 0.88135 0.17216 0.06533 0.0
H681 H 0.91082 0.16433 0.24075 0.0
H682 H 0.90538 0.17397 0.19595 0.0
C683 C 0.87647 0.17511 0.03948 0.0
C684 C 0.90338 0.1658 0.09852 0.0
H685 H 0.8991 0.13489 0.14413 0.0
C686 C 0.91333 0.17684 0.11316 0.0
C687 C 0.89847 0.15035 0.10961 0.0
C688 C 0.88855 0.13758 0.09429 0.0
C689 C 0.91827 0.17293 0.13888 0.0
C690 C 0.91287 0.15772 0.15024 0.0
C691 C 0.90312 0.14661 0.13542 0.0
C692 C 0.91734 0.15278 0.17732 0.0
C693 C 0.92941 0.18497 0.15349 0.0
C694 C 0.92571 0.13762 0.18166 0.0
C695 C 0.92862 0.13198 0.20713 0.0
C696 C 0.92322 0.14142 0.2288 0.0
C697 C 0.9152 0.15682 0.22445 0.0
C698 C 0.91218 0.16241 0.19888 0.0
H699 H 0.93596 0.19364 0.13992 0.0
H700 H 0.92168 0.19259 0.16705 0.0
H701 H 0.93889 0.17816 0.16531 0.0
H702 H 0.92976 0.12999 0.16528 0.0
H703 H 0.93492 0.12011 0.2098 0.0
H704 H 0.9459 0.66627 0.7506 0.0
H705 H 0.94273 0.67676 0.79556 0.0
H706 H 0.91651 0.63164 0.81695 0.0
H707 H 0.91974 0.62101 0.77249 0.0
H708 H 0.91313 0.68242 0.82353 0.0
H709 H 0.95233 0.63523 0.87374 0.0
H710 H 0.95317 0.6386 0.83873 0.0
H711 H 0.93698 0.62578 0.8528 0.0
C712 C 0.93954 0.65856 0.76494 0.0
C713 C 0.93315 0.64277 0.75801 0.0
C714 C 0.93776 0.66456 0.79057 0.0
C715 C 0.9297 0.65482 0.80965 0.0
C716 C 0.92316 0.63917 0.80268 0.0
H717 H 0.88308 0.65686 0.95641 0.0
H718 H 0.89489 0.65223 0.91287 0.0
C719 C 0.92491 0.63317 0.77717 0.0
C720 C 0.92733 0.66111 0.83666 0.0
H721 H 0.9322 0.64973 0.90072 0.0
C722 C 0.9176 0.67552 0.84046 0.0
C723 C 0.93329 0.65212 0.85866 0.0
C724 C 0.94467 0.63717 0.85581 0.0
C725 C 0.91271 0.6805 0.86573 0.0
C726 C 0.91778 0.67086 0.88753 0.0
C727 C 0.92826 0.657 0.88384 0.0
C728 C 0.911 0.67393 0.91399 0.0
C729 C 0.90139 0.69546 0.86894 0.0
C730 C 0.9163 0.68763 0.92899 0.0
C731 C 0.90962 0.6903 0.95402 0.0
C732 C 0.89751 0.67932 0.96426 0.0
C733 C 0.89234 0.66558 0.94909 0.0
C734 C 0.89908 0.66288 0.92424 0.0
H735 H 0.89762 0.70093 0.8498 0.0
H736 H 0.88996 0.69184 0.87994 0.0
H737 H 0.90792 0.70523 0.88053 0.0
H738 H 0.92559 0.6962 0.92136 0.0
H739 H 0.91386 0.70099 0.96523 0.0
H740 H 0.07521 0.17326 0.51505 0.0
H741 H 0.06752 0.16939 0.56105 0.0
H742 H 0.11283 0.19436 0.58504 0.0
H743 H 0.12082 0.1979 0.53913 0.0
H744 H 0.10927 0.16485 0.60887 0.0
H745 H 0.05006 0.20034 0.61744 0.0
H746 H 0.04967 0.18554 0.59099 0.0
H747 H 0.06411 0.2028 0.58996 0.0
C748 C 0.08341 0.17816 0.53011 0.0
C749 C 0.09866 0.1858 0.52347 0.0
C750 C 0.07893 0.17606 0.5564 0.0
C751 C 0.0895 0.18178 0.57647 0.0
C752 C 0.10446 0.18991 0.56985 0.0
H753 H 0.0666 0.17472 0.74421 0.0
H754 H 0.07247 0.18548 0.70012 0.0
C755 C 0.10902 0.19189 0.54361 0.0
C756 C 0.08582 0.17781 0.60425 0.0
H757 H 0.05581 0.18051 0.65173 0.0
C758 C 0.09766 0.16845 0.61831 0.0
C759 C 0.07075 0.18266 0.61665 0.0
C760 C 0.058 0.19354 0.60306 0.0
C761 C 0.09463 0.16335 0.64415 0.0
C762 C 0.07917 0.16738 0.65604 0.0
C763 C 0.06755 0.17725 0.64238 0.0
C764 C 0.07475 0.16101 0.68236 0.0
C765 C 0.10801 0.15365 0.65849 0.0
C766 C 0.0737 0.14373 0.68672 0.0
C767 C 0.07044 0.13756 0.71179 0.0
C768 C 0.06802 0.14858 0.73294 0.0
C769 C 0.06849 0.16592 0.72834 0.0
C770 C 0.07182 0.17209 0.7032 0.0
H771 H 0.12056 0.15574 0.64971 0.0
H772 H 0.10848 0.15718 0.67954 0.0
H773 H 0.10519 0.14008 0.65719 0.0
H774 H 0.07558 0.135 0.67075 0.0
H775 H 0.06998 0.12414 0.71459 0.0
H776 H 0.61696 0.34382 0.47802 0.0
H777 H 0.61015 0.34913 0.43212 0.0
H778 H 0.58037 0.3042 0.42984 0.0
H779 H 0.58714 0.29871 0.47599 0.0
H780 H 0.60443 0.30836 0.38733 0.0
H781 H 0.56407 0.36405 0.40203 0.0
H782 H 0.58371 0.36497 0.41908 0.0
H783 H 0.5686 0.34933 0.42798 0.0
C784 C 0.60887 0.3351 0.46787 0.0
C785 C 0.60255 0.32086 0.48066 0.0
C786 C 0.60495 0.3382 0.44167 0.0
C787 C 0.59463 0.32715 0.42778 0.0
C788 C 0.58828 0.31291 0.44038 0.0
H789 H 0.55902 0.35443 0.27194 0.0
H790 H 0.56028 0.34277 0.31619 0.0
C791 C 0.59213 0.30983 0.46671 0.0
C792 C 0.59103 0.33033 0.39982 0.0
H793 H 0.57425 0.35942 0.35862 0.0
C794 C 0.59765 0.3194 0.38097 0.0
C795 C 0.58203 0.34463 0.39172 0.0
C796 C 0.57405 0.35636 0.41124 0.0
C797 C 0.59612 0.32282 0.35407 0.0
C798 C 0.58792 0.33763 0.34603 0.0
C799 C 0.58066 0.34815 0.36489 0.0
C800 C 0.5873 0.34291 0.31825 0.0
C801 C 0.60341 0.31068 0.33453 0.0
C802 C 0.6021 0.34673 0.30473 0.0
C803 C 0.60144 0.35343 0.27944 0.0
C804 C 0.58595 0.35651 0.26735 0.0
C805 C 0.57116 0.35224 0.28071 0.0
C806 C 0.57184 0.34556 0.30598 0.0
H807 H 0.60496 0.29802 0.34318 0.0
H808 H 0.59538 0.3097 0.31682 0.0
H809 H 0.61592 0.31518 0.32831 0.0
H810 H 0.61415 0.34507 0.31409 0.0
H811 H 0.61305 0.35662 0.2697 0.0
H812 H 0.41659 0.87129 0.21189 0.0
H813 H 0.41449 0.86074 0.16713 0.0
H814 H 0.43379 0.81297 0.1922 0.0
H815 H 0.43587 0.82341 0.23734 0.0
H816 H 0.44051 0.84655 0.13431 0.0
H817 H 0.38812 0.80261 0.15562 0.0
H818 H 0.39364 0.81942 0.17761 0.0
H819 H 0.40655 0.80111 0.17575 0.0
C820 C 0.42041 0.85854 0.20797 0.0
C821 C 0.42629 0.84814 0.22822 0.0
C822 C 0.41926 0.85257 0.18235 0.0
C823 C 0.42388 0.83608 0.17648 0.0
C824 C 0.43002 0.8257 0.19647 0.0
H825 H 0.42275 0.80359 0.01087 0.0
H826 H 0.43217 0.80702 0.05637 0.0
C827 C 0.43123 0.83169 0.22219 0.0
C828 C 0.42173 0.82984 0.14942 0.0
H829 H 0.39642 0.80536 0.11166 0.0
C830 C 0.43107 0.83734 0.1293 0.0
C831 C 0.40933 0.81792 0.14312 0.0
C832 C 0.39872 0.80981 0.16405 0.0
C833 C 0.4279 0.83366 0.10286 0.0
C834 C 0.41515 0.82211 0.09654 0.0
C835 C 0.40624 0.81415 0.1167 0.0
C836 C 0.40962 0.81952 0.06921 0.0
C837 C 0.43758 0.84277 0.08183 0.0
C838 C 0.39378 0.82523 0.06161 0.0
C839 C 0.38838 0.82332 0.03579 0.0
C840 C 0.39871 0.81557 0.01707 0.0
C841 C 0.41454 0.80967 0.02481 0.0
C842 C 0.41996 0.81164 0.05073 0.0
H843 H 0.44547 0.85294 0.09001 0.0
H844 H 0.44584 0.83379 0.07146 0.0
H845 H 0.42889 0.84822 0.06714 0.0
H846 H 0.38564 0.83135 0.07564 0.0
H847 H 0.3761 0.82795 0.03054 0.0
H848 H 0.93912 0.3247 0.74012 0.0
H849 H 0.93785 0.3123 0.69617 0.0
H850 H 0.91165 0.35584 0.66777 0.0
H851 H 0.91298 0.36836 0.71128 0.0
H852 H 0.90922 0.30469 0.66777 0.0
H853 H 0.94852 0.3497 0.61317 0.0
H854 H 0.94875 0.34826 0.64854 0.0
H855 H 0.93266 0.36002 0.63208 0.0
C856 C 0.93322 0.33169 0.72444 0.0
C857 C 0.92617 0.34753 0.72917 0.0
C858 C 0.93252 0.32459 0.69938 0.0
C859 C 0.92493 0.3333 0.67866 0.0
C860 C 0.91793 0.3491 0.68335 0.0
H861 H 0.87023 0.30869 0.54466 0.0
H862 H 0.88184 0.31331 0.58822 0.0
C863 C 0.91858 0.35617 0.70831 0.0
C864 C 0.9232 0.32556 0.65247 0.0
H865 H 0.92882 0.3337 0.58739 0.0
C866 C 0.91379 0.31083 0.6502 0.0
C867 C 0.92944 0.33341 0.62961 0.0
C868 C 0.94056 0.34862 0.63095 0.0
C869 C 0.90941 0.30442 0.62553 0.0
C870 C 0.91438 0.31314 0.60269 0.0
C871 C 0.92483 0.32716 0.60496 0.0
C872 C 0.90751 0.309 0.57657 0.0
C873 C 0.89912 0.28863 0.62417 0.0
C874 C 0.91814 0.30531 0.55544 0.0
C875 C 0.91153 0.30275 0.53035 0.0
C876 C 0.89421 0.30404 0.52601 0.0
C877 C 0.88363 0.30757 0.54732 0.0
C878 C 0.89023 0.31008 0.57231 0.0
H879 H 0.90113 0.28068 0.64177 0.0
H880 H 0.88566 0.29199 0.62347 0.0
H881 H 0.90217 0.28123 0.60637 0.0
H882 H 0.93155 0.3046 0.55833 0.0
H883 H 0.92001 0.30008 0.51432 0.0
H884 H 0.42918 0.16972 0.25503 0.0
H885 H 0.42759 0.18055 0.29998 0.0
H886 H 0.41061 0.13237 0.32712 0.0
H887 H 0.41222 0.12144 0.28257 0.0
H888 H 0.39884 0.18174 0.33189 0.0
H889 H 0.44872 0.14387 0.37813 0.0
H890 H 0.44708 0.14656 0.34303 0.0
H891 H 0.43429 0.13136 0.35964 0.0
C892 C 0.42523 0.16141 0.27062 0.0
C893 C 0.42083 0.14472 0.26524 0.0
C894 C 0.42435 0.16761 0.29624 0.0
C895 C 0.41927 0.15716 0.31687 0.0
C896 C 0.41492 0.14052 0.31155 0.0
H897 H 0.36834 0.16752 0.45928 0.0
H898 H 0.37822 0.16562 0.41416 0.0
C899 C 0.41572 0.13434 0.28601 0.0
C900 C 0.4174 0.16374 0.3438 0.0
H901 H 0.42792 0.15535 0.4073 0.0
C902 C 0.40543 0.17622 0.34837 0.0
C903 C 0.42621 0.15672 0.36519 0.0
C904 C 0.43992 0.144 0.36126 0.0
C905 C 0.40119 0.18104 0.37397 0.0
C906 C 0.40899 0.17298 0.39542 0.0
C907 C 0.42181 0.16136 0.3908 0.0
C908 C 0.40296 0.1752 0.4226 0.0
C909 C 0.38808 0.19437 0.37786 0.0
C910 C 0.41371 0.18092 0.44239 0.0
C911 C 0.40811 0.18196 0.46834 0.0
C912 C 0.39173 0.17709 0.47488 0.0
C913 C 0.38102 0.1714 0.45493 0.0
C914 C 0.3866 0.17043 0.42907 0.0
H915 H 0.3873 0.20282 0.36058 0.0
H916 H 0.37568 0.18834 0.38037 0.0
H917 H 0.39072 0.20199 0.3956 0.0
H918 H 0.42645 0.18449 0.43777 0.0
H919 H 0.41667 0.18636 0.48329 0.0
H920 H 0.58852 0.62512 0.21627 0.0
H921 H 0.59142 0.63456 0.17102 0.0
H922 H 0.55183 0.67042 0.18274 0.0
H923 H 0.54889 0.66115 0.22837 0.0
H924 H 0.56589 0.63462 0.13154 0.0
H925 H 0.59116 0.69826 0.15199 0.0
H926 H 0.59117 0.68188 0.1764 0.0
H927 H 0.57205 0.6924 0.16822 0.0
C928 C 0.58044 0.63506 0.20934 0.0
C929 C 0.5685 0.64242 0.22597 0.0
C930 C 0.58211 0.64041 0.18345 0.0
C931 C 0.57194 0.65326 0.17367 0.0
C932 C 0.55995 0.66064 0.19009 0.0
H933 H 0.58211 0.69561 0.01486 0.0
H934 H 0.57089 0.68998 0.05881 0.0
C935 C 0.55825 0.65528 0.21609 0.0
C936 C 0.57391 0.65859 0.14609 0.0
H937 H 0.58907 0.69016 0.10777 0.0
C938 C 0.57077 0.64683 0.12629 0.0
C939 C 0.58016 0.67457 0.13938 0.0
C940 C 0.58396 0.68754 0.16003 0.0
C941 C 0.57427 0.65041 0.09995 0.0
C942 C 0.58133 0.66606 0.09339 0.0
C943 C 0.5837 0.67815 0.11298 0.0
C944 C 0.58778 0.66947 0.06676 0.0
C945 C 0.5707 0.6373 0.07942 0.0
C946 C 0.60113 0.65996 0.057 0.0
C947 C 0.60758 0.66315 0.03211 0.0
C948 C 0.60083 0.67598 0.01648 0.0
C949 C 0.58752 0.6856 0.02639 0.0
C950 C 0.58111 0.68242 0.05144 0.0
H951 H 0.56103 0.6283 0.08619 0.0
H952 H 0.56643 0.64312 0.0608 0.0
H953 H 0.58231 0.63016 0.07535 0.0
H954 H 0.60665 0.65011 0.06877 0.0
H955 H 0.61787 0.65554 0.02514 0.0
H956 H 0.07822 0.87512 0.77451 0.0
H957 H 0.08246 0.86362 0.8183 0.0
H958 H 0.06084 0.81678 0.79366 0.0
H959 H 0.05657 0.82818 0.74945 0.0
H960 H 0.05727 0.84945 0.85305 0.0
H961 H 0.10785 0.80484 0.82524 0.0
H962 H 0.10201 0.82222 0.80456 0.0
H963 H 0.08868 0.80424 0.80674 0.0
C964 C 0.07437 0.86236 0.7783 0.0
C965 C 0.06713 0.85253 0.75845 0.0
C966 C 0.07675 0.85584 0.80337 0.0
C967 C 0.07205 0.83936 0.80907 0.0
C968 C 0.06468 0.82949 0.78947 0.0
H969 H 0.07843 0.8053 0.97342 0.0
H970 H 0.06773 0.80894 0.9287 0.0
C971 C 0.06223 0.83604 0.7643 0.0
C972 C 0.07514 0.83267 0.83563 0.0
H973 H 0.10147 0.80725 0.87006 0.0
C974 C 0.06673 0.84002 0.85684 0.0
C975 C 0.08757 0.82046 0.84031 0.0
C976 C 0.09717 0.81248 0.81811 0.0
C977 C 0.07086 0.83592 0.88279 0.0
C978 C 0.08363 0.82407 0.88749 0.0
C979 C 0.09162 0.81627 0.86626 0.0
C980 C 0.09011 0.82099 0.91418 0.0
C981 C 0.06219 0.84492 0.90497 0.0
C982 C 0.10631 0.8263 0.92056 0.0
C983 C 0.11244 0.82426 0.94595 0.0
C984 C 0.1025 0.81679 0.96544 0.0
C985 C 0.08636 0.81117 0.95887 0.0
C986 C 0.08021 0.81326 0.93339 0.0
H987 H 0.05432 0.85545 0.89789 0.0
H988 H 0.05403 0.836 0.91565 0.0
H989 H 0.0715 0.84988 0.91913 0.0
H990 H 0.11412 0.8323 0.90594 0.0
H991 H 0.12495 0.82865 0.9503 0.0
H992 H 0.06179 0.35157 0.38499 0.0
H993 H 0.07902 0.33066 0.40666 0.0
H994 H 0.1221 0.34746 0.36299 0.0
H995 H 0.10468 0.36809 0.34034 0.0
H996 H 0.1191 0.31543 0.35836 0.0
H997 H 0.11287 0.32959 0.4635 0.0
H998 H 0.09246 0.32819 0.44924 0.0
H999 H 0.10668 0.34434 0.4385 0.0
C1000 C 0.07501 0.3511 0.38037 0.0
C1001 C 0.08185 0.36143 0.36082 0.0
C1002 C 0.08491 0.33921 0.39301 0.0
C1003 C 0.10195 0.33762 0.38681 0.0
C1004 C 0.109 0.3485 0.3682 0.0
H1005 H 0.14998 0.25352 0.4692 0.0
H1006 H 0.14568 0.28207 0.45303 0.0
C1007 C 0.09904 0.36029 0.35528 0.0
C1008 C 0.11164 0.32322 0.39716 0.0
H1009 H 0.11779 0.30014 0.45262 0.0
C1010 C 0.11915 0.31231 0.37907 0.0
C1011 C 0.11211 0.31923 0.4242 0.0
C1012 C 0.10575 0.3311 0.44493 0.0
C1013 C 0.12593 0.29696 0.38705 0.0
C1014 C 0.12469 0.29217 0.41369 0.0
C1015 C 0.11841 0.30364 0.43208 0.0
C1016 C 0.12836 0.27487 0.42242 0.0
C1017 C 0.13402 0.28589 0.3667 0.0
C1018 C 0.11999 0.26137 0.4107 0.0
C1019 C 0.12251 0.2451 0.41972 0.0
C1020 C 0.13323 0.24199 0.441 0.0
C1021 C 0.14164 0.2555 0.45275 0.0
C1022 C 0.13921 0.27182 0.44354 0.0
H1023 H 0.13959 0.29347 0.35064 0.0
H1024 H 0.14395 0.27792 0.3754 0.0
H1025 H 0.12438 0.27768 0.35782 0.0
H1026 H 0.11115 0.26345 0.39493 0.0
H1027 H 0.11571 0.235 0.41037 0.0
H1028 H 0.87839 0.84215 0.65899 0.0
H1029 H 0.9021 0.85523 0.68149 0.0
H1030 H 0.92372 0.86829 0.60672 0.0
H1031 H 0.90008 0.85564 0.58421 0.0
H1032 H 0.93415 0.84509 0.67733 0.0
H1033 H 0.93018 0.91122 0.64675 0.0
H1034 H 0.91288 0.89689 0.64313 0.0
H1035 H 0.92929 0.89755 0.61893 0.0
C1036 C 0.88804 0.84809 0.64738 0.0
C1037 C 0.88736 0.84783 0.61981 0.0
C1038 C 0.90156 0.85556 0.66026 0.0
C1039 C 0.91454 0.86298 0.6458 0.0
C1040 C 0.91365 0.86307 0.61832 0.0
H1041 H 0.01711 0.88438 0.65311 0.0
H1042 H 0.98751 0.88005 0.64336 0.0
C1043 C 0.90016 0.85567 0.60546 0.0
C1044 C 0.9299 0.869 0.65899 0.0
H1045 H 0.95772 0.90138 0.65964 0.0
C1046 C 0.93913 0.85753 0.67402 0.0
C1047 C 0.93635 0.88525 0.65468 0.0
C1048 C 0.92655 0.89847 0.64022 0.0
C1049 C 0.95513 0.86152 0.68338 0.0
C1050 C 0.96196 0.8774 0.67766 0.0
C1051 C 0.95243 0.88917 0.6638 0.0
C1052 C 0.97954 0.88137 0.68385 0.0
C1053 C 0.96502 0.84845 0.69806 0.0
C1054 C 0.98473 0.88382 0.70983 0.0
C1055 C 0.00165 0.88635 0.71549 0.0
C1056 C 0.01361 0.88637 0.69523 0.0
C1057 C 0.00824 0.88435 0.66917 0.0
C1058 C 0.99134 0.88193 0.66354 0.0
H1059 H 0.95856 0.83615 0.69853 0.0
H1060 H 0.9775 0.84678 0.68887 0.0
H1061 H 0.96703 0.85266 0.71856 0.0
H1062 H 0.97573 0.88351 0.72571 0.0
H1063 H 0.00539 0.88791 0.73577 0.0
H1064 H 0.35744 0.75259 0.97698 0.0
H1065 H 0.3633 0.72354 0.9645 0.0
H1066 H 0.38944 0.74081 0.89565 0.0
H1067 H 0.38373 0.76975 0.90787 0.0
H1068 H 0.35501 0.70645 0.91577 0.0
H1069 H 0.42325 0.70975 0.93425 0.0
H1070 H 0.40864 0.72472 0.94768 0.0
H1071 H 0.4155 0.72654 0.91421 0.0
C1072 C 0.36443 0.75019 0.95918 0.0
C1073 C 0.37021 0.76348 0.94349 0.0
C1074 C 0.36775 0.73361 0.9521 0.0
C1075 C 0.377 0.73011 0.9294 0.0
C1076 C 0.38251 0.74331 0.91349 0.0
H1077 H 0.39096 0.6513 0.82287 0.0
H1078 H 0.38011 0.67397 0.8499 0.0
C1079 C 0.37917 0.75984 0.92046 0.0
C1080 C 0.38091 0.71269 0.92193 0.0
H1081 H 0.41373 0.68712 0.9074 0.0
C1082 C 0.36782 0.70208 0.91432 0.0
C1083 C 0.3976 0.70694 0.92055 0.0
C1084 C 0.41206 0.71751 0.92985 0.0
C1085 C 0.37108 0.68618 0.90378 0.0
C1086 C 0.38786 0.68096 0.90054 0.0
C1087 C 0.40087 0.69118 0.9097 0.0
C1088 C 0.39238 0.66577 0.88551 0.0
C1089 C 0.35657 0.67528 0.89577 0.0
C1090 C 0.40289 0.65359 0.89654 0.0
C1091 C 0.40925 0.64065 0.88104 0.0
C1092 C 0.40533 0.63978 0.85418 0.0
C1093 C 0.39424 0.6516 0.84349 0.0
C1094 C 0.38789 0.66451 0.85898 0.0
H1095 H 0.34517 0.6783 0.90729 0.0
H1096 H 0.35369 0.67751 0.87476 0.0
H1097 H 0.35954 0.66181 0.89837 0.0
H1098 H 0.4066 0.65443 0.91694 0.0
H1099 H 0.41775 0.63173 0.88988 0.0
H1100 H 0.60308 0.14259 0.10692 0.0
H1101 H 0.58082 0.12782 0.13058 0.0
H1102 H 0.55091 0.17272 0.13033 0.0
H1103 H 0.57303 0.18758 0.10718 0.0
H1104 H 0.55068 0.15571 0.17849 0.0
H1105 H 0.53713 0.11345 0.09425 0.0
H1106 H 0.55823 0.11347 0.10641 0.0
H1107 H 0.54998 0.13188 0.09092 0.0
C1108 C 0.59181 0.14934 0.11211 0.0
C1109 C 0.58975 0.16622 0.10496 0.0
C1110 C 0.57909 0.14087 0.12551 0.0
C1111 C 0.56415 0.14914 0.13185 0.0
C1112 C 0.56234 0.16611 0.12556 0.0
H1113 H 0.46283 0.12518 0.1525 0.0
H1114 H 0.49119 0.13197 0.13851 0.0
C1115 C 0.575 0.17457 0.11224 0.0
C1116 C 0.54996 0.14017 0.14404 0.0
H1117 H 0.51937 0.11164 0.13076 0.0
C1118 C 0.54395 0.14588 0.1683 0.0
C1119 C 0.54119 0.12746 0.13051 0.0
C1120 C 0.54683 0.12122 0.104 0.0
C1121 C 0.52899 0.1397 0.17894 0.0
C1122 C 0.52 0.1273 0.16507 0.0
C1123 C 0.52638 0.12109 0.14135 0.0
C1124 C 0.50307 0.122 0.17331 0.0
C1125 C 0.52246 0.14716 0.20413 0.0
C1126 C 0.50039 0.11386 0.19732 0.0
C1127 C 0.48414 0.11002 0.20548 0.0
C1128 C 0.47034 0.11419 0.18965 0.0
C1129 C 0.47316 0.12185 0.16522 0.0
C1130 C 0.48937 0.1257 0.15715 0.0
H1131 H 0.5294 0.15864 0.20985 0.0
H1132 H 0.50899 0.15032 0.20226 0.0
H1133 H 0.52379 0.13789 0.22019 0.0
H1134 H 0.51085 0.11066 0.20987 0.0
H1135 H 0.48238 0.10401 0.22433 0.0
H1136 H 0.07687 0.63696 0.09587 0.0
H1137 H 0.08972 0.65832 0.068 0.0
H1138 H 0.11639 0.6778 0.13489 0.0
H1139 H 0.10386 0.65643 0.16273 0.0
H1140 H 0.0843 0.69141 0.07536 0.0
H1141 H 0.15227 0.67913 0.07879 0.0
H1142 H 0.13696 0.66362 0.08812 0.0
H1143 H 0.14331 0.67954 0.11104 0.0
C1144 C 0.08576 0.64556 0.10453 0.0
C1145 C 0.08926 0.64507 0.13156 0.0
C1146 C 0.0931 0.65773 0.08856 0.0
C1147 C 0.10416 0.66952 0.0993 0.0
C1148 C 0.10821 0.6686 0.12604 0.0
H1149 H 0.11823 0.77222 0.07453 0.0
H1150 H 0.11138 0.74363 0.08723 0.0
C1151 C 0.10089 0.65645 0.142 0.0
C1152 C 0.10971 0.6841 0.08367 0.0
H1153 H 0.14404 0.70769 0.06893 0.0
C1154 C 0.09739 0.69478 0.07346 0.0
C1155 C 0.12678 0.68843 0.08096 0.0
C1156 C 0.14059 0.67697 0.09008 0.0
C1157 C 0.10163 0.71017 0.06215 0.0
C1158 C 0.11859 0.71507 0.06135 0.0
C1159 C 0.13102 0.70396 0.06994 0.0
C1160 C 0.12342 0.73221 0.05372 0.0
C1161 C 0.08788 0.72132 0.05187 0.0
C1162 C 0.13285 0.73518 0.031 0.0
C1163 C 0.13681 0.75157 0.02362 0.0
C1164 C 0.13151 0.76518 0.03903 0.0
C1165 C 0.12244 0.76205 0.06215 0.0
C1166 C 0.11845 0.74572 0.0694 0.0
H1167 H 0.07637 0.71409 0.04736 0.0
H1168 H 0.0847 0.73078 0.06699 0.0
H1169 H 0.09195 0.72803 0.03389 0.0
H1170 H 0.13687 0.72485 0.01878 0.0
H1171 H 0.14387 0.75357 0.00576 0.0
H1172 H 0.46803 0.86762 0.34269 0.0
H1173 H 0.49646 0.86222 0.35795 0.0
H1174 H 0.51623 0.88204 0.28565 0.0
H1175 H 0.48776 0.88761 0.27016 0.0
H1176 H 0.52024 0.84132 0.33147 0.0
H1177 H 0.54276 0.90667 0.34472 0.0
H1178 H 0.52081 0.90147 0.34292 0.0
H1179 H 0.53328 0.90168 0.31367 0.0
C1180 C 0.4784 0.87096 0.33007 0.0
C1181 C 0.47563 0.87805 0.3052 0.0
C1182 C 0.49463 0.86785 0.33883 0.0
C1183 C 0.50839 0.87186 0.323 0.0
C1184 C 0.50574 0.87908 0.29828 0.0
H1185 H 0.60775 0.83087 0.35614 0.0
H1186 H 0.58312 0.84102 0.33244 0.0
C1187 C 0.48947 0.88218 0.28944 0.0
C1188 C 0.52544 0.86772 0.33212 0.0
H1189 H 0.56203 0.88499 0.35348 0.0
C1190 C 0.52945 0.85084 0.3361 0.0
C1191 C 0.53731 0.88023 0.33822 0.0
C1192 C 0.53338 0.89856 0.33488 0.0
C1193 C 0.54497 0.84609 0.34647 0.0
C1194 C 0.55684 0.85858 0.3527 0.0
C1195 C 0.55293 0.87548 0.34841 0.0
C1196 C 0.5728 0.85431 0.36567 0.0
C1197 C 0.54831 0.82779 0.35161 0.0
C1198 C 0.57543 0.85901 0.39183 0.0
C1199 C 0.58946 0.85327 0.40541 0.0
C1200 C 0.60114 0.84277 0.39299 0.0
C1201 C 0.59893 0.83884 0.36631 0.0
C1202 C 0.58486 0.84458 0.35276 0.0
H1203 H 0.53676 0.82012 0.35017 0.0
H1204 H 0.5574 0.82305 0.33694 0.0
H1205 H 0.55383 0.826 0.3714 0.0
H1206 H 0.56626 0.86656 0.40207 0.0
H1207 H 0.59084 0.85662 0.42588 0.0
H1208 H 0.37275 0.21879 0.58948 0.0
H1209 H 0.37784 0.24745 0.60359 0.0
H1210 H 0.35449 0.266 0.53307 0.0
H1211 H 0.34955 0.23721 0.51849 0.0
H1212 H 0.3847 0.28068 0.54247 0.0
H1213 H 0.34634 0.28264 0.63247 0.0
H1214 H 0.35994 0.2648 0.63248 0.0
H1215 H 0.34386 0.26656 0.60788 0.0
C1216 C 0.36852 0.22894 0.57705 0.0
C1217 C 0.36074 0.22572 0.55285 0.0
C1218 C 0.37132 0.24533 0.58527 0.0
C1219 C 0.36625 0.25885 0.56962 0.0
C1220 C 0.35835 0.25572 0.54554 0.0
H1221 H 0.38701 0.35584 0.64362 0.0
H1222 H 0.37158 0.33485 0.61832 0.0
C1223 C 0.35554 0.23928 0.53726 0.0
C1224 C 0.3705 0.27611 0.5777 0.0
H1225 H 0.3695 0.30218 0.63059 0.0
C1226 C 0.38109 0.28557 0.56151 0.0
C1227 C 0.3655 0.28265 0.60225 0.0
C1228 C 0.35313 0.2737 0.61962 0.0
C1229 C 0.38785 0.3008 0.57011 0.0
C1230 C 0.38416 0.30649 0.59574 0.0
C1231 C 0.37254 0.29769 0.61108 0.0
C1232 C 0.39352 0.32039 0.60811 0.0
C1233 C 0.39921 0.3104 0.55192 0.0
C1234 C 0.41095 0.31927 0.61062 0.0
C1235 C 0.41977 0.3312 0.62497 0.0
C1236 C 0.41132 0.34442 0.63738 0.0
C1237 C 0.39389 0.34581 0.63428 0.0
C1238 C 0.38505 0.33384 0.61984 0.0
H1239 H 0.39594 0.30804 0.53106 0.0
H1240 H 0.39858 0.32407 0.55569 0.0
H1241 H 0.4123 0.30618 0.55491 0.0
H1242 H 0.4177 0.30877 0.60236 0.0
H1243 H 0.43317 0.32972 0.62702 0.0
H1244 H 0.016 0.11607 0.84252 0.0
H1245 H 0.9868 0.11977 0.85535 0.0
H1246 H 0.97215 0.12074 0.77397 0.0
H1247 H 0.0014 0.11701 0.76084 0.0
H1248 H 0.96055 0.14824 0.80549 0.0
H1249 H 0.94663 0.08689 0.85123 0.0
H1250 H 0.96586 0.09617 0.86218 0.0
H1251 H 0.9637 0.08994 0.82847 0.0
C1252 C 0.00656 0.11689 0.82732 0.0
C1253 C 0.01101 0.11628 0.80066 0.0
C1254 C 0.98988 0.11888 0.8347 0.0
C1255 C 0.97734 0.12029 0.81559 0.0
C1256 C 0.98167 0.11951 0.78897 0.0
H1257 H 0.87531 0.1566 0.8489 0.0
H1258 H 0.89876 0.14451 0.82439 0.0
C1259 C -0.00163 0.11739 0.78154 0.0
C1260 C 0.95996 0.12395 0.82363 0.0
H1261 H 0.92822 0.1095 0.86214 0.0
C1262 C 0.95329 0.13968 0.81746 0.0
C1263 C 0.95062 0.11272 0.8392 0.0
C1264 C 0.95698 0.09541 0.8455 0.0
C1265 C 0.93792 0.14494 0.82788 0.0
C1266 C 0.92886 0.13395 0.8444 0.0
C1267 C 0.93519 0.11789 0.84949 0.0
C1268 C 0.9138 0.13954 0.85883 0.0
C1269 C 0.93205 0.16255 0.82244 0.0
C1270 C 0.91419 0.14004 0.88631 0.0
C1271 C 0.9008 0.14674 0.90033 0.0
C1272 C 0.88674 0.15312 0.88713 0.0
C1273 C 0.88603 0.15193 0.85962 0.0
C1274 C 0.89944 0.14511 0.84558 0.0
H1275 H 0.94208 0.1704 0.81371 0.0
H1276 H 0.92146 0.16217 0.80841 0.0
H1277 H 0.92763 0.16865 0.84073 0.0
H1278 H 0.92512 0.13576 0.89692 0.0
H1279 H 0.90174 0.14737 0.92151 0.0
H1280 H 0.87724 0.65014 0.6828 0.0
H1281 H 0.86655 0.6743 0.65883 0.0
H1282 H 0.90291 0.66594 0.59772 0.0
H1283 H 0.91395 0.64194 0.62186 0.0
H1284 H 0.90415 0.69731 0.6164 0.0
H1285 H 0.83842 0.6812 0.5937 0.0
H1286 H 0.84331 0.67842 0.62777 0.0
H1287 H 0.85362 0.6657 0.60354 0.0
C1288 C 0.88275 0.65321 0.664 0.0
C1289 C 0.89653 0.64419 0.65432 0.0
C1290 C 0.87653 0.66698 0.65021 0.0
C1291 C 0.88382 0.67182 0.62635 0.0
C1292 C 0.89707 0.66237 0.61606 0.0
H1293 H 0.85104 0.75784 0.53324 0.0
H1294 H 0.85736 0.72936 0.54796 0.0
C1295 C 0.90337 0.64867 0.6299 0.0
C1296 C 0.87898 0.68783 0.61383 0.0
H1297 H 0.84558 0.71042 0.59171 0.0
C1298 C 0.89138 0.70009 0.6107 0.0
C1299 C 0.86235 0.69139 0.60619 0.0
C1300 C 0.8487 0.67841 0.60771 0.0
C1301 C 0.8875 0.71601 0.60099 0.0
C1302 C 0.87072 0.71989 0.59477 0.0
C1303 C 0.8584 0.70746 0.59691 0.0
C1304 C 0.86579 0.73691 0.58649 0.0
C1305 C 0.90143 0.72858 0.59756 0.0
C1306 C 0.86804 0.75048 0.60356 0.0
C1307 C 0.86451 0.76673 0.59524 0.0
C1308 C 0.85855 0.76969 0.56972 0.0
C1309 C 0.85569 0.75599 0.55298 0.0
C1310 C 0.85926 0.73971 0.56134 0.0
H1311 H 0.91384 0.72238 0.59635 0.0
H1312 H 0.89953 0.73619 0.57958 0.0
H1313 H 0.9016 0.73714 0.61468 0.0
H1314 H 0.87278 0.7485 0.62323 0.0
H1315 H 0.86671 0.77698 0.6087 0.0
H1316 H 0.99611 0.11922 0.25858 0.0
H1317 H 0.02439 0.12578 0.27385 0.0
H1318 H 0.00843 0.11908 0.35397 0.0
H1319 H 0.98021 0.11244 0.33898 0.0
H1320 H 0.03221 0.15259 0.30762 0.0
H1321 H 0.05221 0.09202 0.35014 0.0
H1322 H 0.03506 0.09379 0.32721 0.0
H1323 H 0.03199 0.09875 0.36128 0.0
C1324 C -0.00133 0.11893 0.27944 0.0
C1325 C 0.98591 0.11533 0.29758 0.0
C1326 C 0.01482 0.12267 0.2881 0.0
C1327 C 0.01853 0.12267 0.31499 0.0
C1328 C 0.0059 0.1188 0.3331 0.0
H1329 H 0.0893 0.15601 0.42561 0.0
H1330 H 0.06734 0.14262 0.39996 0.0
C1331 C 0.98975 0.11514 0.3245 0.0
C1332 C 0.03515 0.12807 0.32442 0.0
H1333 H 0.0676 0.11629 0.36376 0.0
C1334 C 0.04014 0.1446 0.3195 0.0
C1335 C 0.0454 0.11757 0.33987 0.0
C1336 C 0.04099 0.09949 0.34476 0.0
C1337 C 0.05465 0.15123 0.33093 0.0
C1338 C 0.06457 0.14091 0.34726 0.0
C1339 C 0.05995 0.12416 0.35124 0.0
C1340 C 0.07882 0.14772 0.36237 0.0
C1341 C 0.0587 0.16947 0.32665 0.0
C1342 C 0.09279 0.15465 0.34973 0.0
C1343 C 0.10537 0.16244 0.36436 0.0
C1344 C 0.10421 0.1633 0.39186 0.0
C1345 C 0.09055 0.15566 0.40445 0.0
C1346 C 0.078 0.14795 0.38984 0.0
H1347 H 0.04806 0.17641 0.31779 0.0
H1348 H 0.0621 0.1756 0.34545 0.0
H1349 H 0.06955 0.17052 0.31318 0.0
H1350 H 0.09379 0.15432 0.32855 0.0
H1351 H 0.1158 0.16809 0.35409 0.0
H1352 H 0.6542 0.24319 0.03272 0.0
H1353 H 0.65094 0.27259 0.04556 0.0
H1354 H 0.6171 0.25782 0.10726 0.0
H1355 H 0.62054 0.22862 0.09507 0.0
H1356 H 0.62306 0.29146 0.04552 0.0
H1357 H 0.64782 0.28888 0.14627 0.0
H1358 H 0.65131 0.27228 0.12289 0.0
H1359 H 0.63228 0.273 0.14184 0.0
C1360 C 0.64624 0.24622 0.04924 0.0
C1361 C 0.63769 0.23357 0.06296 0.0
C1362 C 0.6444 0.26301 0.05653 0.0
C1363 C 0.63406 0.26737 0.07771 0.0
C1364 C 0.62554 0.25473 0.09137 0.0
H1365 H 0.56862 0.34468 0.11235 0.0
H1366 H 0.58564 0.32354 0.09086 0.0
C1367 C 0.62743 0.23802 0.08422 0.0
C1368 C 0.63105 0.28511 0.08466 0.0
H1369 H 0.6272 0.31064 0.1378 0.0
C1370 C 0.62432 0.29582 0.06557 0.0
C1371 C 0.63314 0.291 0.1106 0.0
C1372 C 0.64173 0.28072 0.13146 0.0
C1373 C 0.61827 0.31175 0.07228 0.0
C1374 C 0.61857 0.31683 0.09887 0.0
C1375 C 0.62665 0.30668 0.11746 0.0
C1376 C 0.60898 0.33149 0.10851 0.0
C1377 C 0.61129 0.32274 0.05087 0.0
C1378 C 0.61634 0.34305 0.12575 0.0
C1379 C 0.60651 0.35497 0.13859 0.0
C1380 C 0.58914 0.35558 0.13434 0.0
C1381 C 0.58197 0.34462 0.11598 0.0
C1382 C 0.59175 0.33259 0.10342 0.0
H1383 H 0.61796 0.32056 0.03206 0.0
H1384 H 0.59794 0.31957 0.04767 0.0
H1385 H 0.61225 0.33621 0.05597 0.0
H1386 H 0.62959 0.3424 0.13008 0.0
H1387 H 0.61242 0.36329 0.15257 0.0
H1388 H 0.38916 0.82274 0.84576 0.0
H1389 H 0.41236 0.83424 0.82008 0.0
H1390 H 0.42648 0.86536 0.88549 0.0
H1391 H 0.40331 0.85413 0.9112 0.0
H1392 H 0.42947 0.88109 0.83443 0.0
H1393 H 0.46013 0.81862 0.84108 0.0
H1394 H 0.4395 0.81916 0.82709 0.0
H1395 H 0.44239 0.82421 0.8611 0.0
C1396 C 0.39702 0.83226 0.85452 0.0
C1397 C 0.39456 0.83734 0.88066 0.0
C1398 C 0.41027 0.83878 0.83984 0.0
C1399 C 0.42124 0.85044 0.85108 0.0
C1400 C 0.41816 0.85634 0.87652 0.0
H1401 H 0.52405 0.87223 0.83777 0.0
H1402 H 0.4952 0.86572 0.84949 0.0
C1403 C 0.40494 0.84984 0.89121 0.0
C1404 C 0.43689 0.85529 0.83766 0.0
H1405 H 0.47546 0.84024 0.82147 0.0
C1406 C 0.43947 0.87216 0.83119 0.0
C1407 C 0.44992 0.84357 0.83381 0.0
C1408 C 0.448 0.82539 0.84126 0.0
C1409 C 0.45495 0.87769 0.82148 0.0
C1410 C 0.46805 0.86602 0.81821 0.0
C1411 C 0.46531 0.8491 0.82397 0.0
C1412 C 0.48517 0.87122 0.81105 0.0
C1413 C 0.4575 0.89604 0.81586 0.0
C1414 C 0.48899 0.87658 0.78555 0.0
C1415 C 0.50553 0.88029 0.77871 0.0
C1416 C 0.51845 0.87866 0.7973 0.0
C1417 C 0.51443 0.87361 0.82296 0.0
C1418 C 0.49796 0.86988 0.82972 0.0
H1419 H 0.44663 0.90373 0.8221 0.0
H1420 H 0.46888 0.90064 0.82606 0.0
H1421 H 0.45943 0.89785 0.79449 0.0
H1422 H 0.47927 0.87751 0.77084 0.0
H1423 H 0.50823 0.88412 0.75878 0.0
H1424 H 0.87237 0.22488 0.90795 0.0
H1425 H 0.87812 0.25392 0.89622 0.0
H1426 H 0.85256 0.2707 0.96587 0.0
H1427 H 0.84668 0.24158 0.97788 0.0
H1428 H 0.84453 0.28863 0.91708 0.0
H1429 H 0.91257 0.28363 0.9368 0.0
H1430 H 0.90448 0.26728 0.91621 0.0
H1431 H 0.89753 0.26889 0.94966 0.0
C1432 C 0.8679 0.23471 0.92077 0.0
C1433 C 0.85917 0.23091 0.94396 0.0
C1434 C 0.87125 0.25129 0.91407 0.0
C1435 C 0.86597 0.26437 0.9304 0.0
C1436 C 0.85682 0.26072 0.95315 0.0
H1437 H 0.90922 0.36245 0.89671 0.0
H1438 H 0.89711 0.33957 0.92235 0.0
C1439 C 0.8535 0.24409 0.95996 0.0
C1440 C 0.87025 0.2818 0.9236 0.0
H1441 H 0.90367 0.30704 0.91126 0.0
C1442 C 0.85742 0.2928 0.91616 0.0
C1443 C 0.88704 0.28725 0.92294 0.0
C1444 C 0.90121 0.27622 0.93206 0.0
C1445 C 0.86109 0.30884 0.90653 0.0
C1446 C 0.87799 0.31383 0.90405 0.0
C1447 C 0.89071 0.30317 0.91301 0.0
C1448 C 0.88297 0.32925 0.88999 0.0
C1449 C 0.84686 0.32018 0.89868 0.0
C1450 C 0.8788 0.33118 0.86343 0.0
C1451 C 0.88569 0.3442 0.84875 0.0
C1452 C 0.89701 0.35546 0.8603 0.0
C1453 C 0.90056 0.35398 0.88722 0.0
C1454 C 0.89365 0.34092 0.90191 0.0
H1455 H 0.83529 0.31714 0.90975 0.0
H1456 H 0.85004 0.33353 0.90201 0.0
H1457 H 0.84417 0.31841 0.8775 0.0
H1458 H 0.8709 0.32211 0.85367 0.0
H1459 H 0.88268 0.34498 0.82807 0.0
H1460 H 0.524 0.11751 0.66212 0.0
H1461 H 0.49599 0.12166 0.64421 0.0
H1462 H 0.478 0.136 0.72073 0.0
H1463 H 0.50597 0.13152 0.73903 0.0
H1464 H 0.45601 0.11499 0.69412 0.0
H1465 H 0.47618 0.16774 0.63096 0.0
H1466 H 0.48806 0.14902 0.62558 0.0
H1467 H 0.48915 0.15943 0.65682 0.0
C1468 C 0.51409 0.12151 0.67519 0.0
C1469 C 0.51724 0.12436 0.70196 0.0
C1470 C 0.49811 0.12393 0.66489 0.0
C1471 C 0.48503 0.12947 0.68104 0.0
C1472 C 0.48797 0.13182 0.70792 0.0
H1473 H 0.38418 0.16315 0.64483 0.0
H1474 H 0.40933 0.15402 0.66825 0.0
C1475 C 0.50396 0.12928 0.71831 0.0
C1476 C 0.4684 0.13314 0.66967 0.0
H1477 H 0.44896 0.15687 0.62313 0.0
C1478 C 0.45441 0.12421 0.67872 0.0
C1479 C 0.46637 0.1453 0.64975 0.0
C1480 C 0.4807 0.15605 0.64037 0.0
C1481 C 0.4385 0.12679 0.66775 0.0
C1482 C 0.43663 0.1386 0.64735 0.0
C1483 C 0.45054 0.14769 0.63862 0.0
C1484 C 0.42038 0.14184 0.63457 0.0
C1485 C 0.42385 0.11669 0.67752 0.0
C1486 C 0.41823 0.13776 0.60805 0.0
C1487 C 0.40393 0.14292 0.59464 0.0
C1488 C 0.3916 0.15245 0.60747 0.0
C1489 C 0.39345 0.15585 0.63439 0.0
C1490 C 0.40776 0.1506 0.64783 0.0
H1491 H 0.42783 0.10632 0.69063 0.0
H1492 H 0.41525 0.12497 0.68861 0.0
H1493 H 0.41676 0.11138 0.66074 0.0
H1494 H 0.42791 0.13105 0.59751 0.0
H1495 H 0.4029 0.14005 0.57394 0.0
H1496 H 0.64813 0.75861 0.47754 0.0
H1497 H 0.645 0.73005 0.46077 0.0
H1498 H 0.62366 0.74948 0.38927 0.0
H1499 H 0.62695 0.77791 0.40558 0.0
H1500 H 0.61559 0.71511 0.44853 0.0
H1501 H 0.65627 0.7152 0.3611 0.0
H1502 H 0.65785 0.73092 0.38645 0.0
H1503 H 0.64247 0.73288 0.36078 0.0
C1504 C 0.64303 0.75679 0.45806 0.0
C1505 C 0.63776 0.77052 0.4429 0.0
C1506 C 0.64127 0.74048 0.44852 0.0
C1507 C 0.63437 0.73766 0.4236 0.0
C1508 C 0.62943 0.75137 0.40826 0.0
H1509 H 0.56879 0.66898 0.35871 0.0
H1510 H 0.5842 0.68953 0.38428 0.0
C1511 C 0.63118 0.76763 0.41774 0.0
C1512 C 0.63064 0.72049 0.41447 0.0
H1513 H 0.63294 0.69563 0.36023 0.0
C1514 C 0.6197 0.71065 0.42949 0.0
C1515 C 0.63626 0.7145 0.38989 0.0
C1516 C 0.64901 0.72387 0.37379 0.0
C1517 C 0.61315 0.69566 0.4196 0.0
C1518 C 0.61743 0.69059 0.39389 0.0
C1519 C 0.62946 0.69968 0.37979 0.0
C1520 C 0.60816 0.67719 0.38015 0.0
C1521 C 0.60126 0.6857 0.43645 0.0
C1522 C 0.61656 0.66355 0.36891 0.0
C1523 C 0.60776 0.65176 0.35402 0.0
C1524 C 0.59045 0.65359 0.34993 0.0
C1525 C 0.58209 0.66717 0.36151 0.0
C1526 C 0.59087 0.67887 0.37637 0.0
H1527 H 0.60388 0.68765 0.45764 0.0
H1528 H 0.58827 0.68994 0.43265 0.0
H1529 H 0.60206 0.67212 0.43205 0.0
H1530 H 0.62994 0.66214 0.37139 0.0
H1531 H 0.61456 0.64145 0.34529 0.0
H1532 H 0.09803 0.8557 0.07014 0.0
H1533 H 0.07308 0.86541 0.09324 0.0
H1534 H 0.08173 0.82897 0.15416 0.0
H1535 H 0.10685 0.81939 0.1315 0.0
H1536 H 0.04649 0.84479 0.1011 0.0
H1537 H 0.06819 0.86975 0.19656 0.0
H1538 H 0.08212 0.8666 0.16911 0.0
H1539 H 0.0762 0.84926 0.18962 0.0
C1540 C 0.09486 0.85002 0.08878 0.0
C1541 C 0.10435 0.83668 0.09889 0.0
C1542 C 0.0806 0.85559 0.10195 0.0
C1543 C 0.07561 0.84799 0.12549 0.0
C1544 C 0.08553 0.83525 0.13631 0.0
H1545 H 0.98549 0.83881 0.21573 0.0
H1546 H 0.01383 0.83768 0.19773 0.0
C1547 C 0.09984 0.82972 0.12321 0.0
C1548 C 0.05901 0.85181 0.13685 0.0
H1549 H 0.03902 0.86292 0.19342 0.0
C1550 C 0.04486 0.849 0.12117 0.0
C1551 C 0.05693 0.85716 0.16309 0.0
C1552 C 0.07168 0.86102 0.18051 0.0
C1553 C 0.02866 0.85086 0.13123 0.0
C1554 C 0.02658 0.85592 0.1576 0.0
C1555 C 0.0407 0.85902 0.17321 0.0
C1556 C 0.00978 0.85746 0.16948 0.0
C1557 C 0.01393 0.84676 0.11386 0.0
C1558 C -0.00174 0.86917 0.15982 0.0
C1559 C 0.98204 0.86978 0.16992 0.0
C1560 C 0.97711 0.85877 0.19002 0.0
C1561 C 0.98886 0.8474 0.20018 0.0
C1562 C 0.00507 0.84677 0.19 0.0
H1563 H 0.01773 0.83951 0.09624 0.0
H1564 H 0.00438 0.83947 0.12479 0.0
H1565 H 0.00803 0.85856 0.10709 0.0
H1566 H 0.00177 0.8777 0.14426 0.0
H1567 H 0.97334 0.8788 0.16183 0.0
H1568 H 0.61781 0.72166 0.90813 0.0
H1569 H 0.61391 0.75062 0.8947 0.0
H1570 H 0.64525 0.76714 0.9585 0.0
H1571 H 0.64899 0.73803 0.9725 0.0
H1572 H 0.61662 0.78537 0.95497 0.0
H1573 H 0.64609 0.78145 0.85732 0.0
H1574 H 0.63065 0.7654 0.86117 0.0
H1575 H 0.64888 0.76546 0.88196 0.0
C1576 C 0.624 0.7314 0.91925 0.0
C1577 C 0.63377 0.72753 0.94134 0.0
C1578 C 0.62186 0.74797 0.9114 0.0
C1579 C 0.62959 0.76101 0.92524 0.0
C1580 C 0.63931 0.75723 0.94739 0.0
H1581 H 0.6126 0.85705 0.84692 0.0
H1582 H 0.62808 0.83564 0.87122 0.0
C1583 C 0.64143 0.74061 0.95535 0.0
C1584 C 0.62661 0.77856 0.91718 0.0
H1585 H 0.62552 0.80346 0.86294 0.0
C1586 C 0.61888 0.78948 0.935 0.0
C1587 C 0.62997 0.7841 0.89137 0.0
C1588 C 0.63953 0.77353 0.87198 0.0
C1589 C 0.6132 0.8053 0.92705 0.0
C1590 C 0.61496 0.81011 0.90046 0.0
C1591 C 0.62391 0.79972 0.88324 0.0
C1592 C 0.60612 0.82479 0.88931 0.0
C1593 C 0.60506 0.81653 0.94711 0.0
C1594 C 0.58867 0.82598 0.89171 0.0
C1595 C 0.57984 0.83825 0.87806 0.0
C1596 C 0.58823 0.84941 0.8613 0.0
C1597 C 0.60577 0.84862 0.85962 0.0
C1598 C 0.61463 0.83639 0.8735 0.0
H1599 H 0.61045 0.81438 0.96692 0.0
H1600 H 0.60655 0.82995 0.94198 0.0
H1601 H 0.59152 0.8136 0.9482 0.0
H1602 H 0.58175 0.8169 0.90313 0.0
H1603 H 0.56634 0.83846 0.87973 0.0
H1604 H 0.51278 0.34534 0.20582 0.0
H1605 H 0.48387 0.34331 0.19071 0.0
H1606 H 0.4891 0.39016 0.1496 0.0
H1607 H 0.51816 0.39227 0.16443 0.0
H1608 H 0.45603 0.36641 0.19647 0.0
H1609 H 0.47502 0.35577 0.09265 0.0
H1610 H 0.48952 0.35376 0.11959 0.0
H1611 H 0.4833 0.37412 0.10836 0.0
C1612 C 0.5078 0.35526 0.19364 0.0
C1613 C 0.51782 0.36889 0.1861 0.0
C1614 C 0.49125 0.35411 0.18514 0.0
C1615 C 0.48445 0.36651 0.16889 0.0
C1616 C 0.49423 0.38038 0.16191 0.0
H1617 H 0.39261 0.35811 0.07818 0.0
H1618 H 0.41659 0.37069 0.10037 0.0
C1619 C 0.5108 0.38156 0.17042 0.0
C1620 C 0.46739 0.36438 0.1583 0.0
H1621 H 0.44634 0.35525 0.10198 0.0
C1622 C 0.45383 0.36413 0.17578 0.0
C1623 C 0.46464 0.36146 0.13131 0.0
C1624 C 0.47885 0.36115 0.11182 0.0
C1625 C 0.43755 0.36075 0.16698 0.0
C1626 C 0.43489 0.35722 0.14012 0.0
C1627 C 0.44839 0.35802 0.12256 0.0
C1628 C 0.41859 0.35133 0.12988 0.0
C1629 C 0.42338 0.36094 0.18652 0.0
C1630 C 0.41149 0.33649 0.13951 0.0
C1631 C 0.39772 0.32931 0.12697 0.0
C1632 C 0.39098 0.33673 0.10431 0.0
C1633 C 0.39758 0.35204 0.09551 0.0
C1634 C 0.41127 0.35926 0.10817 0.0
H1635 H 0.42628 0.36919 0.20346 0.0
H1636 H 0.41154 0.36523 0.17734 0.0
H1637 H 0.42146 0.3481 0.1942 0.0
H1638 H 0.41715 0.32994 0.15586 0.0
H1639 H 0.39298 0.31749 0.13419 0.0
H1640 H 0.85675 0.23849 0.48899 0.0
H1641 H 0.86486 0.21028 0.47494 0.0
H1642 H 0.88195 0.23012 0.401 0.0
H1643 H 0.87395 0.25825 0.41473 0.0
H1644 H 0.85513 0.19149 0.42695 0.0
H1645 H 0.92302 0.20515 0.43448 0.0
H1646 H 0.90728 0.2177 0.4506 0.0
H1647 H 0.91128 0.22036 0.41616 0.0
C1648 C 0.86213 0.23683 0.46967 0.0
C1649 C 0.86483 0.25062 0.45305 0.0
C1650 C 0.86673 0.22072 0.4617 0.0
C1651 C 0.87418 0.21824 0.43712 0.0
C1652 C 0.8764 0.23187 0.4202 0.0
H1653 H 0.89413 0.13949 0.33189 0.0
H1654 H 0.88133 0.1611 0.35896 0.0
C1655 C 0.87178 0.24792 0.42806 0.0
C1656 C 0.88009 0.2015 0.42914 0.0
H1657 H 0.91536 0.18061 0.41085 0.0
C1658 C 0.8683 0.18897 0.42375 0.0
C1659 C 0.89729 0.19822 0.42547 0.0
C1660 C 0.9105 0.211 0.4322 0.0
C1661 C 0.87326 0.17348 0.41334 0.0
C1662 C 0.89039 0.17062 0.40802 0.0
C1663 C 0.90222 0.18285 0.41481 0.0
C1664 C 0.8963 0.15579 0.39334 0.0
C1665 C 0.86013 0.16043 0.40779 0.0
C1666 C 0.90895 0.14556 0.4037 0.0
C1667 C 0.91642 0.13324 0.38817 0.0
C1668 C 0.91145 0.13106 0.36193 0.0
C1669 C 0.89826 0.14083 0.35202 0.0
C1670 C 0.89081 0.15312 0.36755 0.0
H1671 H 0.84897 0.16216 0.42051 0.0
H1672 H 0.85599 0.1616 0.38709 0.0
H1673 H 0.86511 0.1476 0.41078 0.0
H1674 H 0.91344 0.14752 0.42352 0.0
H1675 H 0.92654 0.12591 0.3964 0.0
H1676 H 0.0946 0.64649 0.57591 0.0
H1677 H 0.0713 0.63366 0.59915 0.0
H1678 H 0.09767 0.63916 0.67245 0.0
H1679 H 0.12106 0.65242 0.64933 0.0
H1680 H 0.0687 0.60565 0.6312 0.0
H1681 H 0.05396 0.66425 0.68567 0.0
H1682 H 0.06835 0.66386 0.65842 0.0
H1683 H 0.0747 0.65604 0.68992 0.0
C1684 C 0.09555 0.64489 0.59696 0.0
C1685 C 0.10962 0.65067 0.61082 0.0
C1686 C 0.08222 0.6375 0.6102 0.0
C1687 C 0.08265 0.63571 0.63755 0.0
C1688 C 0.09697 0.64074 0.65138 0.0
H1689 H 0.99402 0.6092 0.73075 0.0
H1690 H 0.02349 0.61324 0.71919 0.0
C1691 C 0.11034 0.64823 0.63812 0.0
C1692 C 0.06765 0.62933 0.6513 0.0
H1693 H 0.03552 0.64173 0.69088 0.0
C1694 C 0.06155 0.61344 0.64454 0.0
C1695 C 0.05837 0.63953 0.66873 0.0
C1696 C 0.06405 0.65692 0.67605 0.0
C1697 C 0.0461 0.60772 0.65398 0.0
C1698 C 0.0365 0.61823 0.67038 0.0
C1699 C 0.04297 0.63373 0.67828 0.0
C1700 C 0.01902 0.6142 0.67737 0.0
C1701 C 0.04 0.59063 0.64588 0.0
C1702 C 0.00682 0.61344 0.65765 0.0
C1703 C 0.99001 0.61128 0.66415 0.0
C1704 C 0.9851 0.60983 0.69053 0.0
C1705 C 0.99741 0.61022 0.71024 0.0
C1706 C 0.01424 0.61252 0.70371 0.0
H1707 H 0.05052 0.5824 0.63987 0.0
H1708 H 0.03301 0.5845 0.66207 0.0
H1709 H 0.03143 0.59195 0.62889 0.0
H1710 H 0.01025 0.61504 0.63724 0.0
H1711 H 0.98084 0.61103 0.64852 0.0
H1712 H 0.64063 0.25796 0.52449 0.0
H1713 H 0.63424 0.22875 0.53523 0.0
H1714 H 0.60586 0.24499 0.6025 0.0
H1715 H 0.612 0.2741 0.59188 0.0
H1716 H 0.64119 0.21062 0.5814 0.0
H1717 H 0.5731 0.21456 0.56292 0.0
H1718 H 0.58765 0.23017 0.55128 0.0
H1719 H 0.58035 0.23065 0.58467 0.0
C1720 C 0.63301 0.2553 0.54154 0.0
C1721 C 0.62673 0.26835 0.55724 0.0
C1722 C 0.62938 0.23863 0.54763 0.0
C1723 C 0.61934 0.23477 0.56936 0.0
C1724 C 0.61333 0.24774 0.5853 0.0
H1725 H 0.60615 0.15389 0.67209 0.0
H1726 H 0.61694 0.17681 0.64561 0.0
C1727 C 0.61694 0.26437 0.57927 0.0
C1728 C 0.6153 0.21721 0.57594 0.0
H1729 H 0.58238 0.19158 0.58958 0.0
C1730 C 0.62836 0.20632 0.58279 0.0
C1731 C 0.59858 0.21152 0.57715 0.0
C1732 C 0.58413 0.22228 0.56834 0.0
C1733 C 0.62504 0.19022 0.5925 0.0
C1734 C 0.60824 0.18507 0.5958 0.0
C1735 C 0.59526 0.19558 0.5873 0.0
C1736 C 0.60369 0.16966 0.61031 0.0
C1737 C 0.63954 0.17902 0.59954 0.0
C1738 C 0.59263 0.15797 0.59931 0.0
C1739 C 0.58625 0.1449 0.61456 0.0
C1740 C 0.59075 0.14339 0.64112 0.0
C1741 C 0.60243 0.15467 0.6517 0.0
C1742 C 0.60875 0.16773 0.63649 0.0
H1743 H 0.65074 0.18201 0.58752 0.0
H1744 H 0.64289 0.18103 0.62043 0.0
H1745 H 0.63635 0.16562 0.59677 0.0
H1746 H 0.58848 0.15931 0.57918 0.0
H1747 H 0.5773 0.13641 0.6058 0.0
H1748 H 0.96588 0.3707 0.84141 0.0
H1749 H 0.99451 0.36509 0.85551 0.0
H1750 H 0.01321 0.38462 0.78231 0.0
H1751 H 0.98454 0.39044 0.76803 0.0
H1752 H 0.01701 0.34376 0.82859 0.0
H1753 H 0.0419 0.40841 0.83903 0.0
H1754 H 0.01977 0.40392 0.83813 0.0
H1755 H 0.03181 0.40357 0.80842 0.0
C1756 C 0.97606 0.37398 0.82838 0.0
C1757 C 0.97293 0.381 0.80357 0.0
C1758 C 0.99241 0.37075 0.83647 0.0
C1759 C 0.00594 0.37456 0.82003 0.0
C1760 C 0.00292 0.38183 0.79543 0.0
H1761 H 0.10427 0.3297 0.84762 0.0
H1762 H 0.07953 0.34073 0.82523 0.0
C1763 C 0.98654 0.38506 0.78728 0.0
C1764 C 0.02308 0.36998 0.8282 0.0
H1765 H 0.06085 0.38619 0.8463 0.0
C1766 C 0.02665 0.35301 0.83231 0.0
C1767 C 0.03553 0.38213 0.83311 0.0
C1768 C 0.03212 0.40056 0.82966 0.0
C1769 C 0.04229 0.34783 0.84165 0.0
C1770 C 0.05477 0.35996 0.8466 0.0
C1771 C 0.05129 0.37694 0.84219 0.0
C1772 C 0.07099 0.35526 0.85843 0.0
C1773 C 0.04512 0.32948 0.84709 0.0
C1774 C 0.07473 0.36041 0.88404 0.0
C1775 C 0.08886 0.35421 0.89685 0.0
C1776 C 0.09951 0.34275 0.88421 0.0
C1777 C 0.09625 0.3384 0.85797 0.0
C1778 C 0.0821 0.34463 0.84517 0.0
H1779 H 0.03323 0.32228 0.84711 0.0
H1780 H 0.05335 0.32417 0.83167 0.0
H1781 H 0.05139 0.3277 0.86633 0.0
H1782 H 0.06632 0.36865 0.89456 0.0
H1783 H 0.09106 0.35791 0.91699 0.0
H1784 H 0.85179 0.74066 0.00505 0.0
H1785 H 0.85751 0.76969 0.01791 0.0
H1786 H 0.88513 0.75215 0.08515 0.0
H1787 H 0.87956 0.72327 0.07259 0.0
H1788 H 0.85021 0.78642 0.06782 0.0
H1789 H 0.91789 0.78366 0.04494 0.0
H1790 H 0.903 0.76884 0.03189 0.0
H1791 H 0.91081 0.76649 0.06477 0.0
C1792 C 0.85906 0.743 0.0226 0.0
C1793 C 0.86532 0.72966 0.03771 0.0
C1794 C 0.86229 0.75957 0.02989 0.0
C1795 C 0.87195 0.76298 0.05221 0.0
C1796 C 0.87789 0.74972 0.06759 0.0
H1797 H 0.88806 0.83737 0.16356 0.0
H1798 H 0.87623 0.81642 0.13432 0.0
C1799 C 0.87462 0.73322 0.06043 0.0
C1800 C 0.87595 0.78035 0.05984 0.0
H1801 H 0.90911 0.80548 0.07414 0.0
C1802 C 0.86304 0.79077 0.06876 0.0
C1803 C 0.89265 0.78609 0.06052 0.0
C1804 C 0.90688 0.77576 0.04977 0.0
C1805 C 0.86657 0.80637 0.08015 0.0
C1806 C 0.88343 0.81146 0.08293 0.0
C1807 C 0.89619 0.80153 0.07222 0.0
C1808 C 0.88835 0.82591 0.09938 0.0
C1809 C 0.85225 0.81705 0.08967 0.0
C1810 C 0.89911 0.83828 0.08949 0.0
C1811 C 0.90608 0.85022 0.10629 0.0
C1812 C 0.90251 0.84988 0.1333 0.0
C1813 C 0.89109 0.83798 0.14287 0.0
C1814 C 0.88416 0.82607 0.1261 0.0
H1815 H 0.84075 0.81466 0.07804 0.0
H1816 H 0.84948 0.81387 0.11041 0.0
H1817 H 0.85533 0.83057 0.08852 0.0
H1818 H 0.9026 0.83829 0.06896 0.0
H1819 H 0.9148 0.85924 0.09829 0.0
H1820 H 0.39047 0.65293 0.37071 0.0
H1821 H 0.41274 0.64264 0.34212 0.0
H1822 H 0.43263 0.6134 0.40606 0.0
H1823 H 0.41018 0.62324 0.4345 0.0
H1824 H 0.44456 0.64953 0.35006 0.0
H1825 H 0.43776 0.58084 0.34665 0.0
H1826 H 0.42121 0.59439 0.35804 0.0
H1827 H 0.43784 0.58822 0.37985 0.0
C1828 C 0.39936 0.644 0.3785 0.0
C1829 C 0.39863 0.63898 0.40492 0.0
C1830 C 0.41207 0.63812 0.36212 0.0
C1831 C 0.42427 0.62712 0.37184 0.0
C1832 C 0.42314 0.62153 0.39789 0.0
H1833 H 0.52794 0.62405 0.34162 0.0
H1834 H 0.49922 0.62785 0.35646 0.0
C1835 C 0.41035 0.62729 0.41423 0.0
C1836 C 0.43938 0.62333 0.35607 0.0
H1837 H 0.46557 0.59167 0.33775 0.0
C1838 C 0.44896 0.63685 0.34693 0.0
C1839 C 0.44507 0.6068 0.35167 0.0
C1840 C 0.43482 0.59175 0.35934 0.0
C1841 C 0.4645 0.63433 0.3349 0.0
C1842 C 0.47078 0.61788 0.33243 0.0
C1843 C 0.46082 0.60429 0.34008 0.0
C1844 C 0.48812 0.61476 0.32365 0.0
C1845 C 0.4742 0.64935 0.3254 0.0
C1846 C 0.4914 0.60565 0.30071 0.0
C1847 C 0.50788 0.60337 0.29217 0.0
C1848 C 0.52129 0.61011 0.30657 0.0
C1849 C 0.51791 0.61882 0.32993 0.0
C1850 C 0.5015 0.62107 0.33841 0.0
H1851 H 0.46583 0.66015 0.32145 0.0
H1852 H 0.48325 0.65318 0.34077 0.0
H1853 H 0.4813 0.64641 0.30724 0.0
H1854 H 0.4812 0.60059 0.28918 0.0
H1855 H 0.51008 0.59654 0.27415 0.0
H1856 H 0.40791 0.13186 0.09632 0.0
H1857 H 0.39738 0.15566 0.07099 0.0
H1858 H 0.37106 0.17366 0.1392 0.0
H1859 H 0.3813 0.14987 0.16457 0.0
H1860 H 0.35316 0.17762 0.09091 0.0
H1861 H 0.4184 0.20186 0.08662 0.0
H1862 H 0.41515 0.18122 0.07365 0.0
H1863 H 0.41237 0.18498 0.1081 0.0
C1864 C 0.39964 0.14071 0.10581 0.0
C1865 C 0.39565 0.13912 0.13257 0.0
C1866 C 0.39368 0.15432 0.09132 0.0
C1867 C 0.38371 0.16653 0.10339 0.0
C1868 C 0.3788 0.16438 0.12957 0.0
H1869 H 0.37263 0.27108 0.08229 0.0
H1870 H 0.37741 0.24227 0.09614 0.0
C1871 C 0.38472 0.15079 0.14406 0.0
C1872 C 0.37965 0.18236 0.08977 0.0
H1873 H 0.39741 0.21864 0.06817 0.0
C1874 C 0.36281 0.18654 0.0856 0.0
C1875 C 0.39231 0.194 0.08324 0.0
C1876 C 0.41058 0.19043 0.08826 0.0
C1877 C 0.35827 0.20225 0.07548 0.0
C1878 C 0.37093 0.21392 0.06929 0.0
C1879 C 0.38777 0.20958 0.07288 0.0
C1880 C 0.36707 0.23121 0.06098 0.0
C1881 C 0.34 0.20652 0.07251 0.0
C1882 C 0.35961 0.2345 0.03661 0.0
C1883 C 0.35685 0.25102 0.02858 0.0
C1884 C 0.36157 0.26445 0.04478 0.0
C1885 C 0.36885 0.26104 0.06931 0.0
C1886 C 0.37161 0.24458 0.07727 0.0
H1887 H 0.33177 0.19713 0.08209 0.0
H1888 H 0.33734 0.21902 0.08106 0.0
H1889 H 0.33678 0.20702 0.05135 0.0
H1890 H 0.35623 0.22433 0.02363 0.0
H1891 H 0.35125 0.25324 0.00955 0.0
H1892 H 0.49131 0.60938 0.75651 0.0
H1893 H 0.51991 0.6158 0.77054 0.0
H1894 H 0.5015 0.63055 0.84661 0.0
H1895 H 0.47295 0.62432 0.83281 0.0
H1896 H 0.5227 0.65424 0.82158 0.0
H1897 H 0.55031 0.59032 0.82341 0.0
H1898 H 0.53954 0.59637 0.79392 0.0
H1899 H 0.52801 0.59389 0.82386 0.0
C1900 C 0.49337 0.61384 0.77631 0.0
C1901 C 0.47985 0.61637 0.79354 0.0
C1902 C 0.50972 0.61743 0.7843 0.0
C1903 C 0.51278 0.62352 0.80964 0.0
C1904 C 0.49936 0.62582 0.82697 0.0
H1905 H 0.5958 0.63823 0.91013 0.0
H1906 H 0.57209 0.62769 0.88493 0.0
C1907 C 0.48305 0.62224 0.81904 0.0
C1908 C 0.52981 0.62839 0.81793 0.0
H1909 H 0.56817 0.61278 0.83426 0.0
C1910 C 0.53271 0.64522 0.82414 0.0
C1911 C 0.54275 0.61653 0.82129 0.0
C1912 C 0.54007 0.59823 0.81547 0.0
C1913 C 0.54811 0.6505 0.83427 0.0
C1914 C 0.56103 0.63864 0.83788 0.0
C1915 C 0.55826 0.62184 0.83117 0.0
C1916 C 0.57686 0.64325 0.85103 0.0
C1917 C 0.55017 0.6686 0.84212 0.0
C1918 C 0.58773 0.65504 0.83987 0.0
C1919 C 0.60129 0.66117 0.85428 0.0
C1920 C 0.60417 0.65555 0.88003 0.0
C1921 C 0.59385 0.64294 0.89043 0.0
C1922 C 0.58032 0.63685 0.87604 0.0
H1923 H 0.53804 0.67537 0.84258 0.0
H1924 H 0.55608 0.66957 0.86178 0.0
H1925 H 0.55843 0.67497 0.82778 0.0
H1926 H 0.58537 0.65994 0.82041 0.0
H1927 H 0.60908 0.67078 0.84562 0.0
H1928 H 0.10682 0.86151 0.64298 0.0
H1929 H 0.12328 0.84016 0.62022 0.0
H1930 H 0.07798 0.81356 0.60101 0.0
H1931 H 0.06147 0.83493 0.62308 0.0
H1932 H 0.12508 0.80802 0.63448 0.0
H1933 H 0.10259 0.81112 0.5323 0.0
H1934 H 0.09871 0.82765 0.55565 0.0
H1935 H 0.08534 0.80952 0.5546 0.0
C1936 C 0.10035 0.85129 0.63343 0.0
C1937 C 0.08283 0.84989 0.6349 0.0
C1938 C 0.10977 0.83911 0.62044 0.0
C1939 C 0.10185 0.82539 0.60861 0.0
C1940 C 0.08435 0.82426 0.60938 0.0
H1941 H 0.12593 0.72364 0.59697 0.0
H1942 H 0.11965 0.75234 0.60968 0.0
C1943 C 0.07492 0.83643 0.62224 0.0
C1944 C 0.11178 0.81127 0.59804 0.0
H1945 H 0.1139 0.78432 0.5463 0.0
C1946 C 0.12291 0.80304 0.61498 0.0
C1947 C 0.10921 0.80493 0.57246 0.0
C1948 C 0.09845 0.8139 0.55264 0.0
C1949 C 0.13062 0.78799 0.60768 0.0
C1950 C 0.12678 0.78084 0.58305 0.0
C1951 C 0.11662 0.78968 0.56538 0.0
C1952 C 0.1319 0.76359 0.57616 0.0
C1953 C 0.1425 0.77973 0.62668 0.0
C1954 C 0.14066 0.76035 0.55285 0.0
C1955 C 0.14414 0.74389 0.54536 0.0
C1956 C 0.1388 0.7304 0.561 0.0
C1957 C 0.1303 0.73373 0.58455 0.0
C1958 C 0.1268 0.75016 0.59196 0.0
H1959 H 0.14855 0.78911 0.63966 0.0
H1960 H 0.13541 0.77095 0.63936 0.0
H1961 H 0.15239 0.7726 0.61625 0.0
H1962 H 0.14458 0.77055 0.54029 0.0
H1963 H 0.1507 0.74174 0.52709 0.0
H1964 H 0.88672 0.31097 0.36142 0.0
H1965 H 0.91013 0.32462 0.33901 0.0
H1966 H 0.91698 0.35738 0.4053 0.0
H1967 H 0.89374 0.3438 0.42795 0.0
H1968 H 0.91796 0.36016 0.32701 0.0
H1969 H 0.96136 0.32996 0.398 0.0
H1970 H 0.94001 0.32318 0.39378 0.0
H1971 H 0.94452 0.34179 0.41218 0.0
C1972 C 0.89303 0.32126 0.37106 0.0
C1973 C 0.88854 0.32614 0.39662 0.0
C1974 C 0.90636 0.32905 0.35821 0.0
C1975 C 0.91537 0.34179 0.37073 0.0
C1976 C 0.91027 0.3474 0.39551 0.0
H1977 H 0.01181 0.38691 0.34004 0.0
H1978 H 0.98421 0.38008 0.3576 0.0
C1979 C 0.89698 0.33963 0.40839 0.0
C1980 C 0.93094 0.34825 0.35893 0.0
H1981 H 0.97325 0.34843 0.36725 0.0
C1982 C 0.93008 0.35765 0.33574 0.0
C1983 C 0.94666 0.34486 0.37044 0.0
C1984 C 0.94831 0.33429 0.39486 0.0
C1985 C 0.94462 0.364 0.32391 0.0
C1986 C 0.96035 0.36054 0.33538 0.0
C1987 C 0.96115 0.35115 0.3586 0.0
C1988 C 0.97629 0.36608 0.32347 0.0
C1989 C 0.94298 0.37457 0.29952 0.0
C1990 C 0.98094 0.36052 0.29841 0.0
C1991 C 0.99668 0.36444 0.28827 0.0
C1992 C 0.00812 0.37383 0.30317 0.0
C1993 C 0.00331 0.37962 0.32809 0.0
C1994 C 0.98754 0.37576 0.33814 0.0
H1995 H 0.93025 0.38 0.29766 0.0
H1996 H 0.95226 0.3849 0.29947 0.0
H1997 H 0.94529 0.36664 0.28203 0.0
H1998 H 0.9726 0.3527 0.28702 0.0
H1999 H 4e-05 0.35974 0.26905 0.0
H2000 H 0.38538 0.8433 0.32892 0.0
H2001 H 0.374 0.82001 0.35404 0.0
H2002 H 0.40052 0.83691 0.42278 0.0
H2003 H 0.41221 0.86022 0.39763 0.0
H2004 H 0.40744 0.80462 0.41041 0.0
H2005 H 0.33892 0.8138 0.41073 0.0
H2006 H 0.34751 0.81568 0.37836 0.0
H2007 H 0.35339 0.83051 0.4033 0.0
C2008 C 0.38853 0.84231 0.34953 0.0
C2009 C 0.39983 0.85354 0.36122 0.0
C2010 C 0.38188 0.82905 0.36394 0.0
C2011 C 0.38626 0.82683 0.39036 0.0
C2012 C 0.3969 0.83848 0.40245 0.0
H2013 H 0.35259 0.73707 0.47587 0.0
H2014 H 0.3578 0.76652 0.46509 0.0
C2015 C 0.40357 0.85178 0.38803 0.0
C2016 C 0.38161 0.81117 0.40402 0.0
H2017 H 0.34861 0.78532 0.41684 0.0
C2018 C 0.39455 0.80055 0.41231 0.0
C2019 C 0.3648 0.80591 0.40668 0.0
C2020 C 0.35036 0.81716 0.39954 0.0
C2021 C 0.39118 0.78444 0.42171 0.0
C2022 C 0.37447 0.77876 0.42254 0.0
C2023 C 0.36143 0.78968 0.4158 0.0
C2024 C 0.37051 0.76114 0.42862 0.0
C2025 C 0.40557 0.77343 0.43004 0.0
C2026 C 0.37562 0.74849 0.41135 0.0
C2027 C 0.37264 0.73174 0.41734 0.0
C2028 C 0.36448 0.72732 0.44076 0.0
C2029 C 0.35897 0.74007 0.45773 0.0
C2030 C 0.36191 0.75688 0.45163 0.0
H2031 H 0.41692 0.78089 0.43464 0.0
H2032 H 0.40218 0.76586 0.44751 0.0
H2033 H 0.40871 0.76472 0.41382 0.0
H2034 H 0.38209 0.7516 0.39331 0.0
H2035 H 0.37699 0.72225 0.40378 0.0
H2036 H 0.01954 0.63911 0.16071 0.0
H2037 H 0.9906 0.6447 0.1484 0.0
H2038 H 0.97333 0.61622 0.21494 0.0
H2039 H 0.00237 0.61039 0.2274 0.0
H2040 H 0.95672 0.60857 0.16753 0.0
H2041 H 0.95823 0.67682 0.18561 0.0
H2042 H 0.97514 0.66991 0.16513 0.0
H2043 H 0.97386 0.66272 0.19853 0.0
C2044 C 0.00962 0.63405 0.17282 0.0
C2045 C 0.01326 0.62438 0.19513 0.0
C2046 C 0.99309 0.63735 0.16583 0.0
C2047 C 0.97987 0.63112 0.18104 0.0
C2048 C 0.98339 0.62124 0.2031 0.0
H2049 H 0.88153 0.67015 0.13686 0.0
H2050 H 0.90388 0.65974 0.16534 0.0
C2051 C -2e-05 0.61795 0.21017 0.0
C2052 C 0.96241 0.63465 0.17324 0.0
H2053 H 0.93633 0.66683 0.1574 0.0
C2054 C 0.95211 0.62128 0.16572 0.0
C2055 C 0.95631 0.65121 0.17145 0.0
C2056 C 0.9664 0.66598 0.18088 0.0
C2057 C 0.93625 0.62413 0.15477 0.0
C2058 C 0.93075 0.64077 0.15093 0.0
C2059 C 0.94061 0.65406 0.1601 0.0
C2060 C 0.91573 0.64485 0.13517 0.0
C2061 C 0.9257 0.60931 0.14698 0.0
C2062 C 0.91484 0.63971 0.10889 0.0
C2063 C 0.90211 0.6456 0.09261 0.0
C2064 C 0.89011 0.6569 0.10222 0.0
C2065 C 0.89059 0.66148 0.12884 0.0
C2066 C 0.90335 0.65554 0.14515 0.0
H2067 H 0.92864 0.59821 0.15928 0.0
H2068 H 0.91215 0.61212 0.14873 0.0
H2069 H 0.92844 0.60598 0.12629 0.0
H2070 H 0.92447 0.6318 0.10056 0.0
H2071 H 0.90212 0.64183 0.0722 0.0
H2072 H 0.13398 0.25838 0.98111 0.0
H2073 H 0.12641 0.22963 0.96945 0.0
H2074 H 0.10895 0.24664 0.89398 0.0
H2075 H 0.1163 0.27534 0.90545 0.0
H2076 H 0.0861 0.22616 0.9219 0.0
H2077 H 0.14967 0.19798 0.91613 0.0
H2078 H 0.14465 0.20926 0.94564 0.0
H2079 H 0.14626 0.2203 0.9151 0.0
C2080 C 0.12865 0.25598 0.96196 0.0
C2081 C 0.12573 0.26914 0.94421 0.0
C2082 C 0.1244 0.23954 0.95531 0.0
C2083 C 0.11725 0.23604 0.9308 0.0
C2084 C 0.11448 0.24912 0.91299 0.0
H2085 H 0.0998 0.1522 0.83405 0.0
H2086 H 0.11081 0.17609 0.85824 0.0
C2087 C 0.11871 0.26551 0.91958 0.0
C2088 C 0.11198 0.21889 0.9238 0.0
H2089 H 0.1268 0.18021 0.90755 0.0
C2090 C 0.09495 0.21603 0.91902 0.0
C2091 C 0.12362 0.20581 0.92001 0.0
C2092 C 0.1421 0.20841 0.92428 0.0
C2093 C 0.08926 0.20055 0.90975 0.0
C2094 C 0.10091 0.1875 0.9056 0.0
C2095 C 0.11791 0.19022 0.91104 0.0
C2096 C 0.09587 0.17165 0.89293 0.0
C2097 C 0.07094 0.19855 0.90328 0.0
C2098 C 0.08424 0.16091 0.90481 0.0
C2099 C 0.07782 0.14724 0.89096 0.0
C2100 C 0.08301 0.14411 0.86506 0.0
C2101 C 0.09543 0.15433 0.85388 0.0
C2102 C 0.1018 0.16796 0.86771 0.0
H2103 H 0.06424 0.21073 0.90307 0.0
H2104 H 0.06934 0.19249 0.88384 0.0
H2105 H 0.06495 0.19044 0.91824 0.0
H2106 H 0.07972 0.16343 0.92445 0.0
H2107 H 0.06838 0.13953 0.9002 0.0
H2108 H 0.59447 0.35938 0.59118 0.0
H2109 H 0.57214 0.37145 0.61749 0.0
H2110 H 0.58818 0.34246 0.6843 0.0
H2111 H 0.61051 0.33002 0.65785 0.0
H2112 H 0.55577 0.33752 0.67304 0.0
H2113 H 0.5676 0.4055 0.67546 0.0
H2114 H 0.56887 0.39768 0.64256 0.0
H2115 H 0.58364 0.39055 0.66682 0.0
C2116 C 0.59351 0.35581 0.61162 0.0
C2117 C 0.60416 0.3436 0.62235 0.0
C2118 C 0.58081 0.36288 0.62675 0.0
C2119 C 0.57861 0.35804 0.65297 0.0
C2120 C 0.58975 0.34647 0.66415 0.0
H2121 H 0.48779 0.39455 0.73371 0.0
H2122 H 0.51749 0.38854 0.72583 0.0
C2123 C 0.60248 0.33936 0.64899 0.0
C2124 C 0.56327 0.36315 0.66711 0.0
H2125 H 0.5384 0.39697 0.67952 0.0
C2126 C 0.55216 0.35054 0.67506 0.0
C2127 C 0.55859 0.38013 0.67001 0.0
C2128 C 0.57041 0.39422 0.66351 0.0
C2129 C 0.53605 0.35442 0.68396 0.0
C2130 C 0.53088 0.37131 0.6846 0.0
C2131 C 0.54236 0.384 0.67858 0.0
C2132 C 0.5132 0.37578 0.68905 0.0
C2133 C 0.52445 0.34037 0.69169 0.0
C2134 C 0.50113 0.37093 0.67063 0.0
C2135 C 0.48427 0.37437 0.67495 0.0
C2136 C 0.47915 0.38274 0.69783 0.0
C2137 C 0.49134 0.38802 0.71595 0.0
C2138 C 0.50828 0.38462 0.71151 0.0
H2139 H 0.5315 0.32888 0.69705 0.0
H2140 H 0.51642 0.34406 0.70849 0.0
H2141 H 0.5162 0.3373 0.67486 0.0
H2142 H 0.50476 0.36431 0.65298 0.0
H2143 H 0.47524 0.37019 0.66054 0.0
H2144 H 0.07566 0.44196 0.29057 0.0
H2145 H 0.07845 0.47088 0.27505 0.0
H2146 H 0.04093 0.46172 0.21602 0.0
H2147 H 0.03791 0.43301 0.23144 0.0
H2148 H 0.08691 0.48226 0.22337 0.0
H2149 H 0.02392 0.50366 0.25455 0.0
H2150 H 0.03338 0.48473 0.2669 0.0
H2151 H 0.02379 0.48498 0.235 0.0
C2152 C 0.06794 0.44615 0.27438 0.0
C2153 C 0.05649 0.43524 0.26234 0.0
C2154 C 0.06959 0.46262 0.26551 0.0
C2155 C 0.05973 0.46843 0.24464 0.0
C2156 C 0.04842 0.45753 0.23247 0.0
H2157 H 0.04612 0.56208 0.16276 0.0
H2158 H 0.04664 0.53258 0.17547 0.0
C2159 C 0.04677 0.44111 0.24127 0.0
C2160 C 0.06132 0.48583 0.23525 0.0
H2161 H 0.0392 0.52189 0.22671 0.0
C2162 C 0.07654 0.491 0.22422 0.0
C2163 C 0.04773 0.49711 0.23639 0.0
C2164 C 0.03132 0.49243 0.24906 0.0
C2165 C 0.07841 0.50711 0.21369 0.0
C2166 C 0.06475 0.51833 0.21461 0.0
C2167 C 0.04959 0.51318 0.22583 0.0
C2168 C 0.06596 0.53567 0.20479 0.0
C2169 C 0.09483 0.5119 0.20121 0.0
C2170 C 0.07681 0.54708 0.21686 0.0
C2171 C 0.07655 0.56392 0.20966 0.0
C2172 C 0.06534 0.56966 0.19038 0.0
C2173 C 0.0549 0.55807 0.17767 0.0
C2174 C 0.05516 0.54122 0.18492 0.0
H2175 H 0.10241 0.50073 0.19604 0.0
H2176 H 0.09278 0.51946 0.18322 0.0
H2177 H 0.10217 0.51956 0.21524 0.0
H2178 H 0.08502 0.54309 0.23256 0.0
H2179 H 0.08474 0.57253 0.21986 0.0
H2180 H 0.81368 0.85351 0.54714 0.0
H2181 H 0.78643 0.86079 0.52867 0.0
H2182 H 0.76661 0.81343 0.55471 0.0
H2183 H 0.79364 0.80621 0.57371 0.0
H2184 H 0.77198 0.84401 0.48925 0.0
H2185 H 0.72905 0.84462 0.5741 0.0
H2186 H 0.75149 0.84534 0.57786 0.0
H2187 H 0.74097 0.82564 0.57313 0.0
C2188 C 0.80341 0.8448 0.54949 0.0
C2189 C 0.80584 0.82923 0.56178 0.0
C2190 C 0.78786 0.84899 0.53889 0.0
C2191 C 0.77446 0.83772 0.54049 0.0
C2192 C 0.77666 0.82248 0.55375 0.0
H2193 H 0.69641 0.813 0.43645 0.0
H2194 H 0.72314 0.819 0.45743 0.0
C2195 C 0.79218 0.81833 0.56449 0.0
C2196 C 0.7588 0.84094 0.52585 0.0
H2197 H 0.71637 0.83956 0.53172 0.0
C2198 C 0.75981 0.84337 0.4986 0.0
C2199 C 0.74295 0.84039 0.53808 0.0
C2200 C 0.74105 0.83904 0.56745 0.0
C2201 C 0.74537 0.84424 0.48306 0.0
C2202 C 0.72956 0.84226 0.49505 0.0
C2203 C 0.72852 0.84087 0.52247 0.0
C2204 C 0.71402 0.84026 0.47955 0.0
C2205 C 0.74723 0.84701 0.45393 0.0
C2206 C 0.70001 0.85024 0.48492 0.0
C2207 C 0.68464 0.8467 0.47318 0.0
C2208 C 0.68301 0.83307 0.45592 0.0
C2209 C 0.69726 0.82364 0.44954 0.0
C2210 C 0.7126 0.82712 0.46142 0.0
H2211 H 0.75887 0.85404 0.44941 0.0
H2212 H 0.74806 0.83472 0.44392 0.0
H2213 H 0.73641 0.85398 0.44575 0.0
H2214 H 0.70083 0.86042 0.4989 0.0
H2215 H 0.6739 0.85425 0.47844 0.0
H2216 H 0.39876 0.42673 0.71691 0.0
H2217 H 0.39394 0.45477 0.73447 0.0
H2218 H 0.43789 0.47262 0.69419 0.0
H2219 H 0.44261 0.44477 0.6761 0.0
H2220 H 0.41476 0.47107 0.76707 0.0
H2221 H 0.40473 0.50926 0.67801 0.0
H2222 H 0.40377 0.4867 0.6776 0.0
H2223 H 0.42363 0.49726 0.67596 0.0
C2224 C 0.40722 0.4367 0.71136 0.0
C2225 C 0.4211 0.43352 0.69514 0.0
C2226 C 0.40445 0.4527 0.72145 0.0
C2227 C 0.41545 0.46581 0.71543 0.0
C2228 C 0.42902 0.46279 0.69861 0.0
H2229 H 0.44564 0.55091 0.80362 0.0
H2230 H 0.44026 0.52298 0.78627 0.0
C2231 C 0.43175 0.44682 0.68839 0.0
C2232 C 0.41371 0.48223 0.72859 0.0
H2233 H 0.41297 0.52421 0.71695 0.0
C2234 C 0.4141 0.48269 0.75613 0.0
C2235 C 0.41259 0.49735 0.71434 0.0
C2236 C 0.41097 0.49763 0.68485 0.0
C2237 C 0.41422 0.49793 0.76975 0.0
C2238 C 0.41432 0.51306 0.75541 0.0
C2239 C 0.41309 0.51259 0.72793 0.0
C2240 C 0.41661 0.52951 0.76827 0.0
C2241 C 0.41435 0.49764 0.79935 0.0
C2242 C 0.40515 0.54248 0.76382 0.0
C2243 C 0.40829 0.55853 0.77345 0.0
C2244 C 0.42299 0.56188 0.78766 0.0
C2245 C 0.43415 0.54872 0.79289 0.0
C2246 C 0.43104 0.53271 0.78311 0.0
H2247 H 0.40867 0.48594 0.80705 0.0
H2248 H 0.42747 0.49816 0.80637 0.0
H2249 H 0.40747 0.50849 0.80762 0.0
H2250 H 0.39396 0.54028 0.75234 0.0
H2251 H 0.39942 0.56839 0.76913 0.0
H2252 H 0.79599 0.19722 0.93547 0.0
H2253 H 0.76888 0.19231 0.95614 0.0
H2254 H 0.78575 0.14401 0.98303 0.0
H2255 H 0.81308 0.14898 0.96297 0.0
H2256 H 0.74449 0.16836 0.9525 0.0
H2257 H 0.77401 0.16763 0.05124 0.0
H2258 H 0.78519 0.17394 0.02215 0.0
H2259 H 0.7818 0.15213 0.02889 0.0
C2260 C 0.79387 0.18543 0.94541 0.0
C2261 C 0.80676 0.1736 0.94796 0.0
C2262 C 0.77837 0.18266 0.95724 0.0
C2263 C 0.77548 0.16799 0.97168 0.0
C2264 C 0.7879 0.15561 0.97258 0.0
H2265 H 0.67515 0.15038 0.03554 0.0
H2266 H 0.7021 0.14551 0.01418 0.0
C2267 C 0.80346 0.15843 0.96095 0.0
C2268 C 0.75985 0.16623 0.98698 0.0
H2269 H 0.74484 0.16385 0.04959 0.0
C2270 C 0.74453 0.16723 0.97371 0.0
C2271 C 0.76001 0.16499 0.0147 0.0
C2272 C 0.77611 0.16476 0.03017 0.0
C2273 C 0.72932 0.16735 0.98742 0.0
C2274 C 0.72947 0.16601 0.01512 0.0
C2275 C 0.74479 0.16469 0.02835 0.0
C2276 C 0.71396 0.16741 0.03079 0.0
C2277 C 0.71329 0.16968 0.97218 0.0
C2278 C 0.71205 0.18073 0.04847 0.0
C2279 C 0.69677 0.1834 0.06103 0.0
C2280 C 0.68311 0.17283 0.05599 0.0
C2281 C 0.68539 0.15887 0.03957 0.0
C2282 C 0.70073 0.15613 0.02721 0.0
H2283 H 0.71565 0.17433 0.95197 0.0
H2284 H 0.70674 0.15749 0.97061 0.0
H2285 H 0.70485 0.17863 0.98228 0.0
H2286 H 0.72217 0.18951 0.05166 0.0
H2287 H 0.69544 0.19424 0.0736 0.0
H2288 H 0.93694 0.4443 0.81309 0.0
H2289 H 0.93337 0.47186 0.79329 0.0
H2290 H 0.89037 0.45401 0.75054 0.0
H2291 H 0.89409 0.42626 0.7698 0.0
H2292 H 0.91249 0.46886 0.71873 0.0
H2293 H 0.90093 0.5098 0.80418 0.0
H2294 H 0.91942 0.49742 0.80857 0.0
H2295 H 0.89935 0.48731 0.80612 0.0
C2296 C 0.92651 0.44631 0.7999 0.0
C2297 C 0.91585 0.43308 0.79291 0.0
C2298 C 0.92443 0.46212 0.7887 0.0
C2299 C 0.91149 0.46504 0.77066 0.0
C2300 C 0.90041 0.45203 0.76448 0.0
H2301 H 0.90149 0.56659 0.70862 0.0
H2302 H 0.89408 0.53927 0.72677 0.0
C2303 C 0.90255 0.43619 0.77553 0.0
C2304 C 0.91064 0.48112 0.7563 0.0
H2305 H 0.91107 0.52339 0.76501 0.0
C2306 C 0.9119 0.48079 0.72882 0.0
C2307 C 0.9096 0.49666 0.7694 0.0
C2308 C 0.90707 0.49783 0.79867 0.0
C2309 C 0.91301 0.49561 0.71421 0.0
C2310 C 0.91324 0.51111 0.7275 0.0
C2311 C 0.9111 0.51147 0.75484 0.0
C2312 C 0.91675 0.52705 0.71377 0.0
C2313 C 0.91408 0.49447 0.68471 0.0
C2314 C 0.93185 0.52916 0.70011 0.0
C2315 C 0.93608 0.54471 0.68957 0.0
C2316 C 0.92538 0.5585 0.69283 0.0
C2317 C 0.91002 0.55622 0.7058 0.0
C2318 C 0.90576 0.54063 0.71622 0.0
H2319 H 0.90815 0.48282 0.67735 0.0
H2320 H 0.90798 0.50536 0.67515 0.0
H2321 H 0.92743 0.49423 0.67875 0.0
H2322 H 0.94069 0.51895 0.6985 0.0
H2323 H 0.94804 0.54606 0.67984 0.0
H2324 H 0.31443 0.14659 0.52712 0.0
H2325 H 0.28616 0.14447 0.50909 0.0
H2326 H 0.27235 0.19001 0.54896 0.0
H2327 H 0.30036 0.19195 0.56768 0.0
H2328 H 0.2473 0.16722 0.5498 0.0
H2329 H 0.27223 0.17417 0.44861 0.0
H2330 H 0.2802 0.15642 0.46618 0.0
H2331 H 0.28503 0.1772 0.47733 0.0
C2332 C 0.30529 0.15601 0.53237 0.0
C2333 C 0.30968 0.16956 0.54855 0.0
C2334 C 0.28918 0.15484 0.5219 0.0
C2335 C 0.27732 0.16733 0.5271 0.0
C2336 C 0.28137 0.1803 0.54453 0.0
H2337 H 0.19427 0.2038 0.43881 0.0
H2338 H 0.22153 0.19695 0.45762 0.0
C2339 C 0.2974 0.18139 0.55524 0.0
C2340 C 0.26097 0.16752 0.51345 0.0
H2341 H 0.24307 0.17102 0.45288 0.0
C2342 C 0.24634 0.16793 0.5286 0.0
C2343 C 0.25982 0.16869 0.48579 0.0
C2344 C 0.27514 0.16926 0.46848 0.0
C2345 C 0.23057 0.16981 0.51691 0.0
C2346 C 0.2294 0.17082 0.48924 0.0
C2347 C 0.24401 0.17008 0.47406 0.0
C2348 C 0.21327 0.17391 0.47581 0.0
C2349 C 0.21542 0.17146 0.53441 0.0
C2350 C 0.19976 0.16292 0.47899 0.0
C2351 C 0.18412 0.16689 0.46851 0.0
C2352 C 0.18182 0.1818 0.45427 0.0
C2353 C 0.19564 0.19225 0.44971 0.0
C2354 C 0.21122 0.18836 0.46047 0.0
H2355 H 0.21893 0.17456 0.55493 0.0
H2356 H 0.20681 0.18129 0.52703 0.0
H2357 H 0.20856 0.1594 0.53472 0.0
H2358 H 0.2012 0.15147 0.49012 0.0
H2359 H 0.17374 0.15848 0.47207 0.0
H2360 H 0.59467 0.56646 0.27304 0.0
H2361 H 0.59553 0.53675 0.26188 0.0
H2362 H 0.56846 0.52499 0.33267 0.0
H2363 H 0.56736 0.55472 0.34395 0.0
H2364 H 0.60703 0.50723 0.28945 0.0
H2365 H 0.53838 0.508 0.27181 0.0
H2366 H 0.55057 0.5269 0.27481 0.0
H2367 H 0.54491 0.51522 0.30358 0.0
C2368 C 0.58909 0.55755 0.28645 0.0
C2369 C 0.58073 0.56297 0.30921 0.0
C2370 C 0.58963 0.54059 0.28004 0.0
C2371 C 0.58181 0.52878 0.29623 0.0
C2372 C 0.57434 0.534 0.31974 0.0
H2373 H 0.55649 0.42467 0.27545 0.0
H2374 H 0.56125 0.45281 0.29235 0.0
C2375 C 0.57378 0.55098 0.32619 0.0
C2376 C 0.58043 0.51122 0.28753 0.0
H2377 H 0.55208 0.48205 0.26746 0.0
C2378 C 0.59504 0.50167 0.28466 0.0
C2379 C 0.56476 0.50413 0.28113 0.0
C2380 C 0.54875 0.51409 0.28274 0.0
C2381 C 0.59434 0.48501 0.27597 0.0
C2382 C 0.57865 0.47794 0.26959 0.0
C2383 C 0.56408 0.48753 0.27246 0.0
C2384 C 0.57691 0.46058 0.25997 0.0
C2385 C 0.61032 0.47506 0.27412 0.0
C2386 C 0.58415 0.45564 0.2361 0.0
C2387 C 0.58147 0.43952 0.22634 0.0
C2388 C 0.57138 0.42815 0.24023 0.0
C2389 C 0.56428 0.43313 0.26422 0.0
C2390 C 0.56701 0.4492 0.27395 0.0
H2391 H 0.62052 0.48079 0.28587 0.0
H2392 H 0.60838 0.46201 0.28094 0.0
H2393 H 0.61445 0.47462 0.25335 0.0
H2394 H 0.59155 0.46438 0.22473 0.0
H2395 H 0.58706 0.43606 0.20777 0.0
H2396 H 0.18109 0.84326 0.01617 0.0
H2397 H 0.20945 0.84612 -0.00121 0.0
H2398 H 0.22357 0.79987 0.03634 0.0
H2399 H 0.19537 0.79708 0.05429 0.0
H2400 H 0.24803 0.82401 0.03974 0.0
H2401 H 0.22513 0.81751 0.93734 0.0
H2402 H 0.21591 0.83449 0.9553 0.0
H2403 H 0.21209 0.81329 0.96545 0.0
C2404 C 0.19029 0.8338 0.02101 0.0
C2405 C 0.18594 0.81983 0.03635 0.0
C2406 C 0.20644 0.8354 0.01092 0.0
C2407 C 0.21844 0.82299 0.01574 0.0
C2408 C 0.21442 0.80952 0.03222 0.0
H2409 H 0.3063 0.7948 0.92984 0.0
H2410 H 0.27821 0.79829 0.9479 0.0
C2411 C 0.1983 0.80795 0.04248 0.0
C2412 C 0.235 0.8236 0.00282 0.0
H2413 H 0.25402 0.82257 0.94287 0.0
C2414 C 0.24937 0.82378 0.01857 0.0
C2415 C 0.23665 0.82304 0.97518 0.0
C2416 C 0.22165 0.82191 0.95728 0.0
C2417 C 0.2654 0.82332 0.00743 0.0
C2418 C 0.26705 0.82305 0.97978 0.0
C2419 C 0.25268 0.82296 0.96404 0.0
C2420 C 0.28359 0.82189 0.96691 0.0
C2421 C 0.28039 0.82251 0.0254 0.0
C2422 C 0.29572 0.83431 0.97082 0.0
C2423 C 0.31181 0.8323 0.96067 0.0
C2424 C 0.31598 0.81792 0.94617 0.0
C2425 C 0.30351 0.80599 0.94098 0.0
C2426 C 0.28745 0.80796 0.9513 0.0
H2427 H 0.27686 0.81871 0.04562 0.0
H2428 H 0.28986 0.81356 0.01785 0.0
H2429 H 0.28627 0.83506 0.02651 0.0
H2430 H 0.29285 0.84536 0.98225 0.0
H2431 H 0.32109 0.84181 0.96477 0.0
H2432 H 0.57821 0.92658 0.7225 0.0
H2433 H 0.58045 0.95662 0.71475 0.0
H2434 H 0.58702 0.96499 0.79767 0.0
H2435 H 0.58492 0.93486 0.80569 0.0
H2436 H 0.55815 0.97979 0.73653 0.0
H2437 H 0.62387 0.99414 0.76367 0.0
H2438 H 0.6168 0.9732 0.75622 0.0
H2439 H 0.61242 0.98231 0.78769 0.0
C2440 C 0.58037 0.93476 0.7391 0.0
C2441 C 0.5813 0.92834 0.76474 0.0
C2442 C 0.58167 0.95191 0.7346 0.0
C2443 C 0.58404 0.96297 0.7556 0.0
C2444 C 0.58548 0.95661 0.78116 0.0
H2445 H 0.55729 0.06652 0.76794 0.0
H2446 H 0.5615 0.03646 0.77325 0.0
C2447 C 0.58417 0.93941 0.78571 0.0
C2448 C 0.58343 0.98121 0.75096 0.0
H2449 H 0.60567 0.01743 0.7573 0.0
C2450 C 0.56858 0.988 0.7409 0.0
C2451 C 0.5971 0.99183 0.75652 0.0
C2452 C 0.61352 0.98503 0.76641 0.0
C2453 C 0.56688 0.00524 0.73683 0.0
C2454 C 0.58034 0.01593 0.7432 0.0
C2455 C 0.59536 0.00914 0.75263 0.0
C2456 C 0.57874 0.03424 0.74077 0.0
C2457 C 0.55069 0.01195 0.72583 0.0
C2458 C 0.58733 0.0429 0.72102 0.0
C2459 C 0.58492 0.06011 0.71783 0.0
C2460 C 0.57397 0.06887 0.7345 0.0
C2461 C 0.56576 0.06015 0.7547 0.0
C2462 C 0.56812 0.04298 0.75778 0.0
H2463 H 0.54291 0.0019 0.71703 0.0
H2464 H 0.54341 0.0179 0.74183 0.0
H2465 H 0.55317 0.02162 0.71067 0.0
H2466 H 0.5956 0.03629 0.70776 0.0
H2467 H 0.59148 0.0665 0.70216 0.0
H2468 H 0.3176 0.34374 0.01287 0.0
H2469 H 0.29002 0.3486 0.9937 0.0
H2470 H 0.27065 0.30582 0.03535 0.0
H2471 H 0.29811 0.301 0.05497 0.0
H2472 H 0.2736 0.32675 0.96152 0.0
H2473 H 0.23493 0.34095 0.04884 0.0
H2474 H 0.25751 0.34145 0.04955 0.0
H2475 H 0.24655 0.32187 0.0523 0.0
C2476 C 0.30741 0.33552 0.01833 0.0
C2477 C 0.31004 0.32195 0.03542 0.0
C2478 C 0.29167 0.33832 0.00731 0.0
C2479 C 0.27828 0.32766 0.01328 0.0
C2480 C 0.28074 0.31439 0.0309 0.0
H2481 H 0.19171 0.29957 0.92651 0.0
H2482 H 0.22003 0.30376 0.94309 0.0
C2483 C 0.29647 0.31161 0.04201 0.0
C2484 C 0.26211 0.32958 -0.00048 0.0
H2485 H 0.22014 0.33306 0.00983 0.0
C2486 C 0.26192 0.32836 0.97204 0.0
C2487 C 0.24694 0.33191 0.01324 0.0
C2488 C 0.24647 0.3343 0.04259 0.0
C2489 C 0.24685 0.3287 0.95798 0.0
C2490 C 0.2316 0.32999 0.97185 0.0
C2491 C 0.23185 0.33193 -0.00077 0.0
C2492 C 0.21518 0.32848 0.95869 0.0
C2493 C 0.2474 0.32759 0.92845 0.0
C2494 C 0.20309 0.34102 0.96182 0.0
C2495 C 0.18684 0.3386 0.95257 0.0
C2496 C 0.18238 0.32353 0.94014 0.0
C2497 C 0.19475 0.31133 0.9359 0.0
C2498 C 0.21098 0.31375 0.94525 0.0
H2499 H 0.25958 0.33204 0.92063 0.0
H2500 H 0.24585 0.31434 0.92245 0.0
H2501 H 0.23721 0.33504 0.91935 0.0
H2502 H 0.20608 0.35247 0.97217 0.0
H2503 H 0.17762 0.34827 0.95608 0.0
H2504 H 0.93628 0.05937 0.22366 0.0
H2505 H 0.93235 0.02941 0.21697 0.0
H2506 H 0.91453 0.02434 0.29643 0.0
H2507 H 0.91824 0.05443 0.30328 0.0
H2508 H 0.94857 0.00471 0.24556 0.0
H2509 H 0.87955 -0.0016 0.25319 0.0
H2510 H 0.88975 0.01825 0.24769 0.0
H2511 H 0.8893 0.00927 0.27999 0.0
C2512 C 0.93137 0.05194 0.23968 0.0
C2513 C 0.92762 0.05927 0.26404 0.0
C2514 C 0.92911 0.03483 0.23578 0.0
C2515 C 0.92299 0.02473 0.2561 0.0
C2516 C 0.91897 0.032 0.28035 0.0
H2517 H 0.93758 0.91811 0.26995 0.0
H2518 H 0.93582 0.94824 0.27721 0.0
C2519 C 0.92121 0.04916 0.28427 0.0
C2520 C 0.92205 0.00642 0.2524 0.0
H2521 H 0.89529 0.97314 0.25187 0.0
C2522 C 0.93692 -0.00219 0.24686 0.0
C2523 C 0.9068 0.99753 0.25391 0.0
C2524 C 0.89039 0.00631 0.25879 0.0
C2525 C 0.937 0.98047 0.24308 0.0
C2526 C 0.92183 0.9715 0.24529 0.0
C2527 C 0.9069 0.9801 0.25044 0.0
C2528 C 0.92139 0.95315 0.24217 0.0
C2529 C 0.95328 0.97189 0.23645 0.0
C2530 C 0.91335 0.94594 0.2205 0.0
C2531 C 0.9143 0.92869 0.21627 0.0
C2532 C 0.92328 0.91843 0.23373 0.0
C2533 C 0.93071 0.92567 0.25599 0.0
C2534 C 0.92974 0.94288 0.26019 0.0
H2535 H 0.96291 0.98092 0.22962 0.0
H2536 H 0.95816 0.96552 0.25421 0.0
H2537 H 0.95139 0.96229 0.22098 0.0
H2538 H 0.9068 0.95372 0.20645 0.0
H2539 H 0.90837 0.92347 0.19902 0.0
H2540 H 0.32108 0.64662 0.46719 0.0
H2541 H 0.294 0.6415 0.48792 0.0
H2542 H 0.27438 0.68634 0.45229 0.0
H2543 H 0.30127 0.6914 0.43109 0.0
H2544 H 0.27955 0.66195 0.52358 0.0
H2545 H 0.23693 0.65341 0.4392 0.0
H2546 H 0.25939 0.65234 0.43596 0.0
H2547 H 0.24893 0.67229 0.43642 0.0
C2548 C 0.3109 0.65522 0.46333 0.0
C2549 C 0.31333 0.66945 0.44754 0.0
C2550 C 0.29545 0.65228 0.47523 0.0
C2551 C 0.28215 0.66345 0.47147 0.0
C2552 C 0.28437 0.67736 0.45501 0.0
H2553 H 0.20174 0.69324 0.56945 0.0
H2554 H 0.22897 0.68735 0.54995 0.0
C2555 C 0.29979 0.68027 0.44299 0.0
C2556 C 0.26647 0.66149 0.48659 0.0
H2557 H 0.22406 0.66099 0.48021 0.0
C2558 C 0.26741 0.66146 0.51411 0.0
C2559 C 0.25068 0.6606 0.47424 0.0
C2560 C 0.24891 0.65948 0.44483 0.0
C2561 C 0.25292 0.6614 0.5296 0.0
C2562 C 0.23712 0.66173 0.5172 0.0
C2563 C 0.23619 0.66091 0.48971 0.0
C2564 C 0.22138 0.66398 0.53209 0.0
C2565 C 0.2547 0.66114 0.55906 0.0
C2566 C 0.20808 0.65276 0.52865 0.0
C2567 C 0.19243 0.65619 0.53953 0.0
C2568 C 0.1898 0.67095 0.55398 0.0
C2569 C 0.20337 0.68173 0.55854 0.0
C2570 C 0.21899 0.67833 0.54751 0.0
H2571 H 0.2667 0.65528 0.5651 0.0
H2572 H 0.25465 0.67418 0.56653 0.0
H2573 H 0.24424 0.65424 0.56846 0.0
H2574 H 0.20966 0.64163 0.51678 0.0
H2575 H 0.18224 0.6476 0.53575 0.0
H2576 H 0.39252 0.06556 0.21913 0.0
H2577 H 0.38987 0.03756 0.23801 0.0
H2578 H 0.43535 0.02251 0.19913 0.0
H2579 H 0.4379 0.05032 0.17966 0.0
H2580 H 0.41128 -0.00195 0.19805 0.0
H2581 H 0.41939 0.02304 0.29896 0.0
H2582 H 0.40209 0.03184 0.28126 0.0
H2583 H 0.42309 0.03553 0.27007 0.0
C2584 C 0.40185 0.05622 0.21432 0.0
C2585 C 0.41553 0.0602 0.19815 0.0
C2586 C 0.40037 0.04028 0.22527 0.0
C2587 C 0.41265 0.02813 0.22049 0.0
C2588 C 0.42581 0.03177 0.20322 0.0
H2589 H 0.4433 0.94261 0.30959 0.0
H2590 H 0.43893 0.97024 0.29029 0.0
C2591 C 0.42724 0.04767 0.19209 0.0
C2592 C 0.41225 0.01184 0.23427 0.0
H2593 H 0.41447 0.99404 0.29507 0.0
C2594 C 0.41189 0.99714 0.21927 0.0
C2595 C 0.41329 0.01075 0.26195 0.0
C2596 C 0.41465 0.02611 0.27904 0.0
C2597 C 0.41269 0.98134 0.23116 0.0
C2598 C 0.41347 0.98025 0.25886 0.0
C2599 C 0.41368 0.99494 0.27387 0.0
C2600 C 0.41516 0.96399 0.27249 0.0
C2601 C 0.41333 0.96601 0.21391 0.0
C2602 C 0.40295 0.95154 0.26968 0.0
C2603 C 0.40546 0.93569 0.28053 0.0
C2604 C 0.42014 0.93212 0.29466 0.0
C2605 C 0.43188 0.94494 0.29876 0.0
C2606 C 0.42941 0.96074 0.28772 0.0
H2607 H 0.41671 0.96918 0.19336 0.0
H2608 H 0.42253 0.9568 0.2215 0.0
H2609 H 0.40084 0.95997 0.21365 0.0
H2610 H 0.39166 0.95395 0.25857 0.0
H2611 H 0.3961 0.92613 0.27727 0.0
H2612 H 0.80266 0.69432 0.05093 0.0
H2613 H 0.77462 0.6894 0.03367 0.0
H2614 H 0.7919 0.64449 0.99536 0.0
H2615 H 0.82011 0.64955 0.01201 0.0
H2616 H 0.77508 0.66421 0.96217 0.0
H2617 H 0.73826 0.65688 0.05325 0.0
H2618 H 0.75016 0.67588 0.0534 0.0
H2619 H 0.76082 0.65603 0.05295 0.0
C2620 C 0.80044 0.68323 0.03923 0.0
C2621 C 0.81361 0.67234 0.03279 0.0
C2622 C 0.78437 0.68038 0.02948 0.0
C2623 C 0.78112 0.66646 0.0135 0.0
C2624 C 0.79413 0.65528 0.00773 0.0
H2625 H 0.67799 0.64764 0.96549 0.0
H2626 H 0.70642 0.6433 0.98172 0.0
C2627 C 0.81024 0.65819 0.01729 0.0
C2628 C 0.76451 0.66437 0.00107 0.0
H2629 H 0.72272 0.6637 0.01427 0.0
C2630 C 0.76363 0.66385 0.97356 0.0
C2631 C 0.7496 0.66363 0.01594 0.0
C2632 C 0.74975 0.66295 0.04552 0.0
C2633 C 0.74821 0.66335 0.9605 0.0
C2634 C 0.73328 0.6638 0.97535 0.0
C2635 C 0.73417 0.66356 0.00287 0.0
C2636 C 0.71661 0.66532 0.96291 0.0
C2637 C 0.74809 0.6624 0.93094 0.0
C2638 C 0.71297 0.679 0.94662 0.0
C2639 C 0.69677 0.68144 0.9371 0.0
C2640 C 0.68386 0.67037 0.94409 0.0
C2641 C 0.68765 0.65641 0.9598 0.0
C2642 C 0.70388 0.65391 0.96912 0.0
H2643 H 0.75973 0.65654 0.92336 0.0
H2644 H 0.7372 0.65514 0.92366 0.0
H2645 H 0.74735 0.67524 0.92276 0.0
H2646 H 0.72249 0.68819 0.94208 0.0
H2647 H 0.69423 0.69238 0.92523 0.0
H2648 H 0.0472 0.05144 0.81353 0.0
H2649 H 0.05321 0.02408 0.79457 0.0
H2650 H 0.09932 0.04307 0.76229 0.0
H2651 H 0.09325 0.07062 0.78076 0.0
H2652 H 0.08028 0.02811 0.72552 0.0
H2653 H 0.08538 0.98671 0.81204 0.0
H2654 H 0.06648 -0.00122 0.81267 0.0
H2655 H 0.0864 0.00921 0.81458 0.0
C2656 C 0.0588 0.04973 0.80288 0.0
C2657 C 0.0697 0.06323 0.79851 0.0
C2658 C 0.06227 0.03403 0.79217 0.0
C2659 C 0.07679 0.0315 0.77723 0.0
C2660 C 0.08806 0.04476 0.77382 0.0
H2661 H 0.09442 0.93081 0.7162 0.0
H2662 H 0.09964 0.95819 0.73592 0.0
C2663 C 0.08457 0.06049 0.78441 0.0
C2664 C 0.07926 0.01558 0.76295 0.0
H2665 H 0.07907 0.97324 0.77087 0.0
C2666 C 0.08031 0.01611 0.73546 0.0
C2667 C 0.07954 -4e-05 0.77593 0.0
C2668 C 0.07957 -0.00138 0.80545 0.0
C2669 C 0.08074 0.0014 0.72052 0.0
C2670 C 0.07977 0.98578 0.73343 0.0
C2671 C 0.07962 0.98524 0.76097 0.0
C2672 C 0.07781 0.9699 0.71886 0.0
C2673 C 0.08206 0.00274 0.69107 0.0
C2674 C 0.06394 0.9675 0.70241 0.0
C2675 C 0.06096 0.95192 0.691 0.0
C2676 C 0.07169 0.93839 0.69613 0.0
C2677 C 0.0859 0.94098 0.71189 0.0
C2678 C 0.0889 0.9566 0.72321 0.0
H2679 H 0.08819 0.01462 0.68511 0.0
H2680 H 0.08923 0.99211 0.6827 0.0
H2681 H 0.06931 0.00263 0.68247 0.0
H2682 H 0.05502 0.9775 0.69926 0.0
H2683 H 0.04986 0.95032 0.67908 0.0
H2684 H 0.68939 0.29869 0.57914 0.0
H2685 H 0.71768 0.29971 0.56113 0.0
H2686 H 0.70514 0.34451 0.51824 0.0
H2687 H 0.67674 0.34344 0.53578 0.0
H2688 H 0.71836 0.32025 0.48694 0.0
H2689 H 0.75813 0.32921 0.57478 0.0
H2690 H 0.74383 0.31205 0.57815 0.0
H2691 H 0.73587 0.33301 0.57508 0.0
C2692 C 0.69274 0.30897 0.56633 0.0
C2693 C 0.6808 0.32093 0.55877 0.0
C2694 C 0.70895 0.30957 0.55614 0.0
C2695 C 0.71353 0.32226 0.53851 0.0
C2696 C 0.70185 0.33463 0.53185 0.0
H2697 H 0.81552 0.33094 0.47983 0.0
H2698 H 0.78796 0.33754 0.49771 0.0
C2699 C 0.68564 0.334 0.54193 0.0
C2700 C 0.72991 0.32168 0.52508 0.0
H2701 H 0.77192 0.31942 0.53596 0.0
C2702 C 0.73009 0.32028 0.49762 0.0
C2703 C 0.74518 0.32189 0.53903 0.0
C2704 C 0.74579 0.32429 0.56837 0.0
C2705 C 0.74513 0.31849 0.48378 0.0
C2706 C 0.76034 0.3178 0.49787 0.0
C2707 C 0.76021 0.3198 0.52523 0.0
C2708 C 0.77649 0.31448 0.48477 0.0
C2709 C 0.74461 0.31736 0.45425 0.0
C2710 C 0.7791 0.29939 0.47129 0.0
C2711 C 0.79482 0.29559 0.46093 0.0
C2712 C 0.80824 0.30675 0.46415 0.0
C2713 C 0.80545 0.32206 0.47705 0.0
C2714 C 0.78973 0.32586 0.48732 0.0
H2715 H 0.73298 0.323 0.44622 0.0
H2716 H 0.75554 0.32372 0.44527 0.0
H2717 H 0.74488 0.30401 0.44834 0.0
H2718 H 0.76912 0.2903 0.46954 0.0
H2719 H 0.79657 0.28367 0.45124 0.0
loop_
_geom_bond_atom_site_label_1
_geom_bond_atom_site_label_2
_geom_bond_distance
_geom_bond_site_symmetry_2
_ccdc_geom_bond_type
C0 O1 1.160 . S
C0 O7 1.185 . S
O1 C0 1.160 . S
O2 Zn3 1.899 . S
O2 C10 1.284 . S
Zn3 O2 1.899 . S
Zn3 O4 2.032 . S
Zn3 O7 2.086 . S
Zn3 O12 1.977 . S
O4 Zn3 2.032 . S
O4 C8 1.278 . S
C5 O6 1.203 . S
C5 O12 1.267 . S
O6 C5 1.203 . S
O7 C0 1.185 . S
O7 Zn3 2.086 . S
C8 O4 1.278 . S
C8 O9 1.211 . S
O9 C8 1.211 . S
C10 O2 1.284 . S
C10 O11 1.273 . S
O11 C10 1.273 . S
O12 Zn3 1.977 . S
O12 C5 1.267 . S
C13 O14 1.160 . S
C13 O20 1.185 . S
O14 C13 1.160 . S
O15 Zn16 1.899 . S
O15 C23 1.284 . S
Zn16 O15 1.899 . S
Zn16 O17 2.032 . S
Zn16 O20 2.086 . S
Zn16 O25 1.977 . S
O17 Zn16 2.032 . S
O17 C21 1.278 . S
C18 O19 1.203 . S
C18 O25 1.267 . S
O19 C18 1.203 . S
O20 C13 1.185 . S
O20 Zn16 2.086 . S
C21 O17 1.278 . S
C21 O22 1.211 . S
O22 C21 1.211 . S
C23 O15 1.284 . S
C23 O24 1.273 . S
O24 C23 1.273 . S
O25 Zn16 1.977 . S
O25 C18 1.267 . S
C26 O27 1.160 . S
C26 O33 1.185 . S
O27 C26 1.160 . S
O28 Zn29 1.899 . S
O28 C36 1.284 . S
Zn29 O28 1.899 . S
Zn29 O30 2.032 . S
Zn29 O33 2.086 . S
Zn29 O38 1.977 . S
O30 Zn29 2.032 . S
O30 C34 1.278 . S
C31 O32 1.203 . S
C31 O38 1.267 . S
O32 C31 1.203 . S
O33 C26 1.185 . S
O33 Zn29 2.086 . S
C34 O30 1.278 . S
C34 O35 1.211 . S
O35 C34 1.211 . S
C36 O28 1.284 . S
C36 O37 1.273 . S
O37 C36 1.273 . S
O38 Zn29 1.977 . S
O38 C31 1.267 . S
C39 O40 1.160 . S
C39 O46 1.185 . S
O40 C39 1.160 . S
O41 Zn42 1.899 . S
O41 C49 1.284 . S
Zn42 O41 1.899 . S
Zn42 O43 2.032 . S
Zn42 O46 2.086 . S
Zn42 O51 1.977 . S
O43 Zn42 2.032 . S
O43 C47 1.278 1_554 S
C44 O45 1.203 . S
C44 O51 1.267 . S
O45 C44 1.203 . S
O46 C39 1.185 . S
O46 Zn42 2.086 . S
C47 O43 1.278 1_556 S
C47 O48 1.211 1_556 S
O48 C47 1.211 1_554 S
C49 O41 1.284 . S
C49 O50 1.273 . S
O50 C49 1.273 . S
O51 Zn42 1.977 . S
O51 C44 1.267 . S
C52 O53 1.160 . S
C52 O59 1.185 . S
O53 C52 1.160 . S
O54 Zn55 1.899 . S
O54 C62 1.284 . S
Zn55 O54 1.899 . S
Zn55 O56 2.032 . S
Zn55 O59 2.086 . S
Zn55 O64 1.977 . S
O56 Zn55 2.032 . S
O56 C60 1.278 . S
C57 O58 1.203 . S
C57 O64 1.267 . S
O58 C57 1.203 . S
O59 C52 1.185 . S
O59 Zn55 2.086 . S
C60 O56 1.278 . S
C60 O61 1.211 . S
O61 C60 1.211 . S
C62 O54 1.284 . S
C62 O63 1.273 . S
O63 C62 1.273 . S
O64 Zn55 1.977 . S
O64 C57 1.267 . S
C65 O66 1.160 . S
C65 O72 1.185 . S
O66 C65 1.160 . S
O67 Zn68 1.899 . S
O67 C75 1.284 . S
Zn68 O67 1.899 . S
Zn68 O69 2.032 . S
Zn68 O72 2.086 . S
Zn68 O77 1.977 . S
O69 Zn68 2.032 . S
O69 C73 1.278 . S
C70 O71 1.203 . S
C70 O77 1.267 . S
O71 C70 1.203 . S
O72 C65 1.185 . S
O72 Zn68 2.086 . S
C73 O69 1.278 . S
C73 O74 1.211 . S
O74 C73 1.211 . S
C75 O67 1.284 . S
C75 O76 1.273 . S
O76 C75 1.273 . S
O77 Zn68 1.977 . S
O77 C70 1.267 . S
C78 O79 1.160 . S
C78 O85 1.185 . S
O79 C78 1.160 . S
O80 Zn81 1.899 . S
O80 C88 1.284 . S
Zn81 O80 1.899 . S
Zn81 O82 2.032 . S
Zn81 O85 2.086 . S
Zn81 O90 1.977 . S
O82 Zn81 2.032 . S
O82 C86 1.278 . S
C83 O84 1.203 . S
C83 O90 1.267 . S
O84 C83 1.203 . S
O85 C78 1.185 . S
O85 Zn81 2.086 . S
C86 O82 1.278 . S
C86 O87 1.211 . S
O87 C86 1.211 . S
C88 O80 1.284 . S
C88 O89 1.273 . S
O89 C88 1.273 . S
O90 Zn81 1.977 . S
O90 C83 1.267 . S
C91 O92 1.160 . S
C91 O98 1.185 . S
O92 C91 1.160 . S
O93 Zn94 1.899 . S
O93 C101 1.284 . S
Zn94 O93 1.899 . S
Zn94 O95 2.032 . S
Zn94 O98 2.086 . S
Zn94 O103 1.977 . S
O95 Zn94 2.032 . S
O95 C99 1.278 1_556 S
C96 O97 1.203 . S
C96 O103 1.267 . S
O97 C96 1.203 . S
O98 C91 1.185 . S
O98 Zn94 2.086 . S
C99 O95 1.278 1_554 S
C99 O100 1.211 1_554 S
O100 C99 1.211 1_556 S
C101 O93 1.284 . S
C101 O102 1.273 . S
O102 C101 1.273 . S
O103 Zn94 1.977 . S
O103 C96 1.267 . S
C104 O105 1.160 . S
C104 O111 1.185 . S
O105 C104 1.160 . S
O106 Zn107 1.899 . S
O106 C114 1.284 . S
Zn107 O106 1.899 . S
Zn107 O108 2.032 . S
Zn107 O111 2.086 . S
Zn107 O116 1.977 . S
O108 Zn107 2.032 . S
O108 C112 1.278 . S
C109 O110 1.203 . S
C109 O116 1.267 . S
O110 C109 1.203 . S
O111 C104 1.185 . S
O111 Zn107 2.086 . S
C112 O108 1.278 . S
C112 O113 1.211 . S
O113 C112 1.211 . S
C114 O106 1.284 . S
C114 O115 1.273 . S
O115 C114 1.273 . S
O116 Zn107 1.977 . S
O116 C109 1.267 . S
C117 O118 1.160 . S
C117 O124 1.185 . S
O118 C117 1.160 . S
O119 Zn120 1.899 . S
O119 C127 1.284 . S
Zn120 O119 1.899 . S
Zn120 O121 2.032 . S
Zn120 O124 2.086 . S
Zn120 O129 1.977 . S
O121 Zn120 2.032 . S
O121 C125 1.278 . S
C122 O123 1.203 . S
C122 O129 1.267 . S
O123 C122 1.203 . S
O124 C117 1.185 . S
O124 Zn120 2.086 . S
C125 O121 1.278 . S
C125 O126 1.211 . S
O126 C125 1.211 . S
C127 O119 1.284 . S
C127 O128 1.273 . S
O128 C127 1.273 . S
O129 Zn120 1.977 . S
O129 C122 1.267 . S
C130 O131 1.160 . S
C130 O137 1.185 . S
O131 C130 1.160 . S
O132 Zn133 1.899 . S
O132 C140 1.284 . S
Zn133 O132 1.899 . S
Zn133 O134 2.032 . S
Zn133 O137 2.086 . S
Zn133 O142 1.977 . S
O134 Zn133 2.032 . S
O134 C138 1.278 . S
C135 O136 1.203 . S
C135 O142 1.267 . S
O136 C135 1.203 . S
O137 C130 1.185 . S
O137 Zn133 2.086 . S
C138 O134 1.278 . S
C138 O139 1.211 . S
O139 C138 1.211 . S
C140 O132 1.284 . S
C140 O141 1.273 . S
O141 C140 1.273 . S
O142 Zn133 1.977 . S
O142 C135 1.267 . S
C143 O144 1.160 . S
C143 O150 1.185 . S
O144 C143 1.160 . S
O145 Zn146 1.899 . S
O145 C153 1.284 . S
Zn146 O145 1.899 . S
Zn146 O147 2.032 . S
Zn146 O150 2.086 . S
Zn146 O155 1.977 . S
O147 Zn146 2.032 . S
O147 C151 1.278 1_556 S
C148 O149 1.203 . S
C148 O155 1.267 . S
O149 C148 1.203 . S
O150 C143 1.185 . S
O150 Zn146 2.086 . S
C151 O147 1.278 1_554 S
C151 O152 1.211 1_554 S
O152 C151 1.211 1_556 S
C153 O145 1.284 . S
C153 O154 1.273 . S
O154 C153 1.273 . S
O155 Zn146 1.977 . S
O155 C148 1.267 . S
C156 O157 1.160 . S
C156 O163 1.185 . S
O157 C156 1.160 . S
O158 Zn159 1.899 . S
O158 C166 1.284 . S
Zn159 O158 1.899 . S
Zn159 O160 2.032 . S
Zn159 O163 2.086 . S
Zn159 O168 1.977 . S
O160 Zn159 2.032 . S
O160 C164 1.278 . S
C161 O162 1.203 . S
C161 O168 1.267 . S
O162 C161 1.203 . S
O163 C156 1.185 . S
O163 Zn159 2.086 . S
C164 O160 1.278 . S
C164 O165 1.211 . S
O165 C164 1.211 . S
C166 O158 1.284 . S
C166 O167 1.273 . S
O167 C166 1.273 . S
O168 Zn159 1.977 . S
O168 C161 1.267 . S
C169 O170 1.160 . S
C169 O176 1.185 . S
O170 C169 1.160 . S
O171 Zn172 1.899 . S
O171 C179 1.284 . S
Zn172 O171 1.899 . S
Zn172 O173 2.032 . S
Zn172 O176 2.086 . S
Zn172 O181 1.977 . S
O173 Zn172 2.032 . S
O173 C177 1.278 . S
C174 O175 1.203 . S
C174 O181 1.267 . S
O175 C174 1.203 . S
O176 C169 1.185 . S
O176 Zn172 2.086 . S
C177 O173 1.278 . S
C177 O178 1.211 . S
O178 C177 1.211 . S
C179 O171 1.284 . S
C179 O180 1.273 . S
O180 C179 1.273 . S
O181 Zn172 1.977 . S
O181 C174 1.267 . S
C182 O183 1.160 . S
C182 O189 1.185 . S
O183 C182 1.160 . S
O184 Zn185 1.899 . S
O184 C192 1.284 . S
Zn185 O184 1.899 . S
Zn185 O186 2.032 . S
Zn185 O189 2.086 . S
Zn185 O194 1.977 . S
O186 Zn185 2.032 . S
O186 C190 1.278 . S
C187 O188 1.203 . S
C187 O194 1.267 . S
O188 C187 1.203 . S
O189 C182 1.185 . S
O189 Zn185 2.086 . S
C190 O186 1.278 . S
C190 O191 1.211 . S
O191 C190 1.211 . S
C192 O184 1.284 . S
C192 O193 1.273 . S
O193 C192 1.273 . S
O194 Zn185 1.977 . S
O194 C187 1.267 . S
C195 O196 1.160 . S
C195 O202 1.185 . S
O196 C195 1.160 . S
O197 Zn198 1.899 . S
O197 C205 1.284 . S
Zn198 O197 1.899 . S
Zn198 O199 2.032 . S
Zn198 O202 2.086 . S
Zn198 O207 1.977 . S
O199 Zn198 2.032 . S
O199 C203 1.278 1_554 S
C200 O201 1.203 . S
C200 O207 1.267 . S
O201 C200 1.203 . S
O202 C195 1.185 . S
O202 Zn198 2.086 . S
C203 O199 1.278 1_556 S
C203 O204 1.211 1_556 S
O204 C203 1.211 1_554 S
C205 O197 1.284 . S
C205 O206 1.273 . S
O206 C205 1.273 . S
O207 Zn198 1.977 . S
O207 C200 1.267 . S
C208 O209 1.160 . S
C208 O215 1.185 . S
O209 C208 1.160 . S
O210 Zn211 1.899 . S
O210 C218 1.284 . S
Zn211 O210 1.899 . S
Zn211 O212 2.032 . S
Zn211 O215 2.086 . S
Zn211 O220 1.977 . S
O212 Zn211 2.032 . S
O212 C216 1.278 . S
C213 O214 1.203 . S
C213 O220 1.267 . S
O214 C213 1.203 . S
O215 C208 1.185 . S
O215 Zn211 2.086 . S
C216 O212 1.278 . S
C216 O217 1.211 . S
O217 C216 1.211 . S
C218 O210 1.284 . S
C218 O219 1.273 . S
O219 C218 1.273 . S
O220 Zn211 1.977 . S
O220 C213 1.267 . S
C221 O222 1.160 . S
C221 O228 1.185 . S
O222 C221 1.160 . S
O223 Zn224 1.899 . S
O223 C231 1.284 . S
Zn224 O223 1.899 . S
Zn224 O225 2.032 . S
Zn224 O228 2.086 . S
Zn224 O233 1.977 . S
O225 Zn224 2.032 . S
O225 C229 1.278 1_554 S
C226 O227 1.203 . S
C226 O233 1.267 . S
O227 C226 1.203 . S
O228 C221 1.185 . S
O228 Zn224 2.086 . S
C229 O225 1.278 1_556 S
C229 O230 1.211 1_556 S
O230 C229 1.211 1_554 S
C231 O223 1.284 . S
C231 O232 1.273 . S
O232 C231 1.273 . S
O233 Zn224 1.977 . S
O233 C226 1.267 . S
C234 O235 1.160 . S
C234 O241 1.185 . S
O235 C234 1.160 . S
O236 Zn237 1.899 . S
O236 C244 1.284 . S
Zn237 O236 1.899 . S
Zn237 O238 2.032 . S
Zn237 O241 2.086 . S
Zn237 O246 1.977 . S
O238 Zn237 2.032 . S
O238 C242 1.278 . S
C239 O240 1.203 . S
C239 O246 1.267 . S
O240 C239 1.203 . S
O241 C234 1.185 . S
O241 Zn237 2.086 . S
C242 O238 1.278 . S
C242 O243 1.211 . S
O243 C242 1.211 . S
C244 O236 1.284 . S
C244 O245 1.273 . S
O245 C244 1.273 . S
O246 Zn237 1.977 . S
O246 C239 1.267 . S
C247 O248 1.160 . S
C247 O254 1.185 . S
O248 C247 1.160 . S
O249 Zn250 1.899 . S
O249 C257 1.284 . S
Zn250 O249 1.899 . S
Zn250 O251 2.032 . S
Zn250 O254 2.086 . S
Zn250 O259 1.977 . S
O251 Zn250 2.032 . S
O251 C255 1.278 . S
C252 O253 1.203 . S
C252 O259 1.267 . S
O253 C252 1.203 . S
O254 C247 1.185 . S
O254 Zn250 2.086 . S
C255 O251 1.278 . S
C255 O256 1.211 . S
O256 C255 1.211 . S
C257 O249 1.284 . S
C257 O258 1.273 . S
O258 C257 1.273 . S
O259 Zn250 1.977 . S
O259 C252 1.267 . S
C260 O261 1.160 . S
C260 O267 1.185 . S
O261 C260 1.160 . S
O262 Zn263 1.899 . S
O262 C270 1.284 . S
Zn263 O262 1.899 . S
Zn263 O264 2.032 . S
Zn263 O267 2.086 . S
Zn263 O272 1.977 . S
O264 Zn263 2.032 . S
O264 C268 1.278 . S
C265 O266 1.203 . S
C265 O272 1.267 . S
O266 C265 1.203 . S
O267 C260 1.185 . S
O267 Zn263 2.086 . S
C268 O264 1.278 . S
C268 O269 1.211 . S
O269 C268 1.211 . S
C270 O262 1.284 . S
C270 O271 1.273 . S
O271 C270 1.273 . S
O272 Zn263 1.977 . S
O272 C265 1.267 . S
C273 O274 1.160 . S
C273 O280 1.185 . S
O274 C273 1.160 . S
O275 Zn276 1.899 . S
O275 C283 1.284 . S
Zn276 O275 1.899 . S
Zn276 O277 2.032 . S
Zn276 O280 2.086 . S
Zn276 O285 1.977 . S
O277 Zn276 2.032 . S
O277 C281 1.278 1_556 S
C278 O279 1.203 . S
C278 O285 1.267 . S
O279 C278 1.203 . S
O280 C273 1.185 . S
O280 Zn276 2.086 . S
C281 O277 1.278 1_554 S
C281 O282 1.211 1_554 S
O282 C281 1.211 1_556 S
C283 O275 1.284 . S
C283 O284 1.273 . S
O284 C283 1.273 . S
O285 Zn276 1.977 . S
O285 C278 1.267 . S
C286 O287 1.160 . S
C286 O293 1.185 . S
O287 C286 1.160 . S
O288 Zn289 1.899 . S
O288 C296 1.284 . S
Zn289 O288 1.899 . S
Zn289 O290 2.032 . S
Zn289 O293 2.086 . S
Zn289 O298 1.977 . S
O290 Zn289 2.032 . S
O290 C294 1.278 . S
C291 O292 1.203 . S
C291 O298 1.267 . S
O292 C291 1.203 . S
O293 C286 1.185 . S
O293 Zn289 2.086 . S
C294 O290 1.278 . S
C294 O295 1.211 . S
O295 C294 1.211 . S
C296 O288 1.284 . S
C296 O297 1.273 . S
O297 C296 1.273 . S
O298 Zn289 1.977 . S
O298 C291 1.267 . S
C299 O300 1.160 . S
C299 O306 1.185 . S
O300 C299 1.160 . S
O301 Zn302 1.899 . S
O301 C309 1.284 . S
Zn302 O301 1.899 . S
Zn302 O303 2.032 . S
Zn302 O306 2.086 . S
Zn302 O311 1.977 . S
O303 Zn302 2.032 . S
O303 C307 1.278 . S
C304 O305 1.203 . S
C304 O311 1.267 . S
O305 C304 1.203 . S
O306 C299 1.185 . S
O306 Zn302 2.086 . S
C307 O303 1.278 . S
C307 O308 1.211 . S
O308 C307 1.211 . S
C309 O301 1.284 . S
C309 O310 1.273 . S
O310 C309 1.273 . S
O311 Zn302 1.977 . S
O311 C304 1.267 . S
C312 O313 1.160 . S
C312 O319 1.185 . S
O313 C312 1.160 . S
O314 Zn315 1.899 . S
O314 C322 1.284 . S
Zn315 O314 1.899 . S
Zn315 O316 2.032 . S
Zn315 O319 2.086 . S
Zn315 O324 1.977 . S
O316 Zn315 2.032 . S
O316 C320 1.278 . S
C317 O318 1.203 . S
C317 O324 1.267 . S
O318 C317 1.203 . S
O319 C312 1.185 . S
O319 Zn315 2.086 . S
C320 O316 1.278 . S
C320 O321 1.211 . S
O321 C320 1.211 . S
C322 O314 1.284 . S
C322 O323 1.273 . S
O323 C322 1.273 . S
O324 Zn315 1.977 . S
O324 C317 1.267 . S
C325 O326 1.160 . S
C325 O332 1.185 . S
O326 C325 1.160 . S
O327 Zn328 1.899 . S
O327 C335 1.284 . S
Zn328 O327 1.899 . S
Zn328 O329 2.032 . S
Zn328 O332 2.086 . S
Zn328 O337 1.977 . S
O329 Zn328 2.032 . S
O329 C333 1.278 1_556 S
C330 O331 1.203 . S
C330 O337 1.267 . S
O331 C330 1.203 . S
O332 C325 1.185 . S
O332 Zn328 2.086 . S
C333 O329 1.278 1_554 S
C333 O334 1.211 1_554 S
O334 C333 1.211 1_556 S
C335 O327 1.284 . S
C335 O336 1.273 . S
O336 C335 1.273 . S
O337 Zn328 1.977 . S
O337 C330 1.267 . S
C338 O339 1.160 . S
C338 O345 1.185 . S
O339 C338 1.160 . S
O340 Zn341 1.899 . S
O340 C348 1.284 . S
Zn341 O340 1.899 . S
Zn341 O342 2.032 . S
Zn341 O345 2.086 . S
Zn341 O350 1.977 . S
O342 Zn341 2.032 . S
O342 C346 1.278 . S
C343 O344 1.203 . S
C343 O350 1.267 . S
O344 C343 1.203 . S
O345 C338 1.185 . S
O345 Zn341 2.086 . S
C346 O342 1.278 . S
C346 O347 1.211 . S
O347 C346 1.211 . S
C348 O340 1.284 . S
C348 O349 1.273 . S
O349 C348 1.273 . S
O350 Zn341 1.977 . S
O350 C343 1.267 . S
C351 O352 1.160 . S
C351 O358 1.185 . S
O352 C351 1.160 . S
O353 Zn354 1.899 . S
O353 C361 1.284 . S
Zn354 O353 1.899 . S
Zn354 O355 2.032 . S
Zn354 O358 2.086 . S
Zn354 O363 1.977 . S
O355 Zn354 2.032 . S
O355 C359 1.278 . S
C356 O357 1.203 . S
C356 O363 1.267 . S
O357 C356 1.203 . S
O358 C351 1.185 . S
O358 Zn354 2.086 . S
C359 O355 1.278 . S
C359 O360 1.211 . S
O360 C359 1.211 . S
C361 O353 1.284 . S
C361 O362 1.273 . S
O362 C361 1.273 . S
O363 Zn354 1.977 . S
O363 C356 1.267 . S
C364 O365 1.160 . S
C364 O371 1.185 . S
O365 C364 1.160 . S
O366 Zn367 1.899 . S
O366 C374 1.284 . S
Zn367 O366 1.899 . S
Zn367 O368 2.032 . S
Zn367 O371 2.086 . S
Zn367 O376 1.977 . S
O368 Zn367 2.032 . S
O368 C372 1.278 . S
C369 O370 1.203 . S
C369 O376 1.267 . S
O370 C369 1.203 . S
O371 C364 1.185 . S
O371 Zn367 2.086 . S
C372 O368 1.278 . S
C372 O373 1.211 . S
O373 C372 1.211 . S
C374 O366 1.284 . S
C374 O375 1.273 . S
O375 C374 1.273 . S
O376 Zn367 1.977 . S
O376 C369 1.267 . S
C377 O378 1.160 . S
C377 O384 1.185 . S
O378 C377 1.160 . S
O379 Zn380 1.899 . S
O379 C387 1.284 . S
Zn380 O379 1.899 . S
Zn380 O381 2.032 . S
Zn380 O384 2.086 . S
Zn380 O389 1.977 . S
O381 Zn380 2.032 . S
O381 C385 1.278 1_554 S
C382 O383 1.203 . S
C382 O389 1.267 . S
O383 C382 1.203 . S
O384 C377 1.185 . S
O384 Zn380 2.086 . S
C385 O381 1.278 1_556 S
C385 O386 1.211 1_556 S
O386 C385 1.211 1_554 S
C387 O379 1.284 . S
C387 O388 1.273 . S
O388 C387 1.273 . S
O389 Zn380 1.977 . S
O389 C382 1.267 . S
C390 O391 1.160 . S
C390 O397 1.185 . S
O391 C390 1.160 . S
O392 Zn393 1.899 . S
O392 C400 1.284 . S
Zn393 O392 1.899 . S
Zn393 O394 2.032 . S
Zn393 O397 2.086 . S
Zn393 O402 1.977 . S
O394 Zn393 2.032 . S
O394 C398 1.278 . S
C395 O396 1.203 . S
C395 O402 1.267 . S
O396 C395 1.203 . S
O397 C390 1.185 . S
O397 Zn393 2.086 . S
C398 O394 1.278 . S
C398 O399 1.211 . S
O399 C398 1.211 . S
C400 O392 1.284 . S
C400 O401 1.273 . S
O401 C400 1.273 . S
O402 Zn393 1.977 . S
O402 C395 1.267 . S
C403 O404 1.160 . S
C403 O410 1.185 . S
O404 C403 1.160 . S
O405 Zn406 1.899 . S
O405 C413 1.284 . S
Zn406 O405 1.899 . S
Zn406 O407 2.032 . S
Zn406 O410 2.086 . S
Zn406 O415 1.977 . S
O407 Zn406 2.032 . S
O407 C411 1.278 . S
C408 O409 1.203 . S
C408 O415 1.267 . S
O409 C408 1.203 . S
O410 C403 1.185 . S
O410 Zn406 2.086 . S
C411 O407 1.278 . S
C411 O412 1.211 . S
O412 C411 1.211 . S
C413 O405 1.284 . S
C413 O414 1.273 . S
O414 C413 1.273 . S
O415 Zn406 1.977 . S
O415 C408 1.267 . S
H416 C424 0.929 . S
H417 C426 0.930 . S
H418 C428 0.930 . S
H419 C431 0.929 . S
H420 C434 0.930 . S
H421 C436 0.960 . S
H422 C436 0.960 . S
H423 C436 0.960 . S
C424 H416 0.929 . S
C424 C425 1.377 . S
C424 C426 1.384 . S
C425 C424 1.377 . S
C425 C431 1.390 . S
C426 H417 0.930 . S
C426 C424 1.384 . S
C426 C427 1.372 . S
C427 C426 1.372 . S
C427 C428 1.400 . S
C427 C432 1.490 . S
C428 H418 0.930 . S
C428 C427 1.400 . S
C428 C431 1.386 . S
H429 C445 0.930 . S
H430 C446 0.931 . S
C431 H419 0.929 . S
C431 C425 1.390 . S
C431 C428 1.386 . S
C432 C427 1.490 . S
C432 C434 1.395 . S
C432 C435 1.403 . S
H433 C439 0.930 . S
C434 H420 0.930 . S
C434 C432 1.395 . S
C434 C437 1.403 . S
C435 C432 1.403 . S
C435 C436 1.524 . S
C435 C439 1.400 . S
C436 H421 0.960 . S
C436 H422 0.960 . S
C436 H423 0.960 . S
C436 C435 1.524 . S
C437 C434 1.403 . S
C437 C438 1.392 . S
C437 C441 1.495 . S
C438 C437 1.392 . S
C438 C439 1.385 . S
C438 C440 1.478 . S
C439 H433 0.930 . S
C439 C435 1.400 . S
C439 C438 1.385 . S
C440 C438 1.478 . S
C440 C442 1.381 . S
C440 C446 1.383 . S
C441 C437 1.495 . S
C441 H447 0.959 . S
C441 H448 0.961 . S
C441 H449 0.960 . S
C442 C440 1.381 . S
C442 C443 1.394 . S
C442 H450 0.930 . S
C443 C442 1.394 . S
C443 C444 1.383 . S
C443 H451 0.929 . S
C444 C443 1.383 . S
C444 C445 1.377 . S
C445 H429 0.930 . S
C445 C444 1.377 . S
C445 C446 1.379 . S
C446 H430 0.931 . S
C446 C440 1.383 . S
C446 C445 1.379 . S
H447 C441 0.959 . S
H448 C441 0.961 . S
H449 C441 0.960 . S
H450 C442 0.930 . S
H451 C443 0.929 . S
H452 C460 0.929 . S
H453 C462 0.930 . S
H454 C464 0.930 . S
H455 C467 0.929 . S
H456 C470 0.930 . S
H457 C472 0.960 . S
H458 C472 0.960 . S
H459 C472 0.960 . S
C460 H452 0.929 . S
C460 C461 1.377 . S
C460 C462 1.384 . S
C461 C460 1.377 . S
C461 C467 1.390 . S
C462 H453 0.930 . S
C462 C460 1.384 . S
C462 C463 1.372 . S
C463 C462 1.372 . S
C463 C464 1.400 . S
C463 C468 1.490 . S
C464 H454 0.930 . S
C464 C463 1.400 . S
C464 C467 1.386 . S
H465 C481 0.930 . S
H466 C482 0.931 . S
C467 H455 0.929 . S
C467 C461 1.390 . S
C467 C464 1.386 . S
C468 C463 1.490 . S
C468 C470 1.395 . S
C468 C471 1.403 . S
H469 C475 0.930 . S
C470 H456 0.930 . S
C470 C468 1.395 . S
C470 C473 1.403 . S
C471 C468 1.403 . S
C471 C472 1.524 . S
C471 C475 1.400 . S
C472 H457 0.960 . S
C472 H458 0.960 . S
C472 H459 0.960 . S
C472 C471 1.524 . S
C473 C470 1.403 . S
C473 C474 1.392 . S
C473 C477 1.495 . S
C474 C473 1.392 . S
C474 C475 1.385 . S
C474 C476 1.478 . S
C475 H469 0.930 . S
C475 C471 1.400 . S
C475 C474 1.385 . S
C476 C474 1.478 . S
C476 C478 1.381 . S
C476 C482 1.383 . S
C477 C473 1.495 . S
C477 H483 0.959 . S
C477 H484 0.961 . S
C477 H485 0.960 . S
C478 C476 1.381 . S
C478 C479 1.394 . S
C478 H486 0.930 . S
C479 C478 1.394 . S
C479 C480 1.383 . S
C479 H487 0.929 . S
C480 C479 1.383 . S
C480 C481 1.377 . S
C481 H465 0.930 . S
C481 C480 1.377 . S
C481 C482 1.379 . S
C482 H466 0.931 . S
C482 C476 1.383 . S
C482 C481 1.379 . S
H483 C477 0.959 . S
H484 C477 0.961 . S
H485 C477 0.960 . S
H486 C478 0.930 . S
H487 C479 0.929 . S
H488 C496 0.929 . S
H489 C498 0.930 . S
H490 C500 0.930 . S
H491 C503 0.929 . S
H492 C506 0.930 . S
H493 C508 0.960 . S
H494 C508 0.960 . S
H495 C508 0.960 . S
C496 H488 0.929 . S
C496 C497 1.377 . S
C496 C498 1.384 . S
C497 C496 1.377 . S
C497 C503 1.390 . S
C498 H489 0.930 . S
C498 C496 1.384 . S
C498 C499 1.372 . S
C499 C498 1.372 . S
C499 C500 1.400 . S
C499 C504 1.490 . S
C500 H490 0.930 . S
C500 C499 1.400 . S
C500 C503 1.386 . S
H501 C517 0.930 . S
H502 C518 0.931 . S
C503 H491 0.929 . S
C503 C497 1.390 . S
C503 C500 1.386 . S
C504 C499 1.490 . S
C504 C506 1.395 . S
C504 C507 1.403 . S
H505 C511 0.930 . S
C506 H492 0.930 . S
C506 C504 1.395 . S
C506 C509 1.403 . S
C507 C504 1.403 . S
C507 C508 1.524 . S
C507 C511 1.400 . S
C508 H493 0.960 . S
C508 H494 0.960 . S
C508 H495 0.960 . S
C508 C507 1.524 . S
C509 C506 1.403 . S
C509 C510 1.392 . S
C509 C513 1.495 . S
C510 C509 1.392 . S
C510 C511 1.385 . S
C510 C512 1.478 . S
C511 H505 0.930 . S
C511 C507 1.400 . S
C511 C510 1.385 . S
C512 C510 1.478 . S
C512 C514 1.381 . S
C512 C518 1.383 . S
C513 C509 1.495 . S
C513 H519 0.959 . S
C513 H520 0.961 . S
C513 H521 0.960 . S
C514 C512 1.381 . S
C514 C515 1.394 . S
C514 H522 0.930 . S
C515 C514 1.394 . S
C515 C516 1.383 . S
C515 H523 0.929 . S
C516 C515 1.383 . S
C516 C517 1.377 . S
C517 H501 0.930 . S
C517 C516 1.377 . S
C517 C518 1.379 . S
C518 H502 0.931 . S
C518 C512 1.383 . S
C518 C517 1.379 . S
H519 C513 0.959 . S
H520 C513 0.961 . S
H521 C513 0.960 . S
H522 C514 0.930 . S
H523 C515 0.929 . S
H524 C532 0.929 . S
H525 C534 0.930 . S
H526 C536 0.930 . S
H527 C539 0.929 . S
H528 C542 0.930 . S
H529 C544 0.960 . S
H530 C544 0.960 . S
H531 C544 0.960 . S
C532 H524 0.929 . S
C532 C533 1.377 . S
C532 C534 1.384 . S
C533 C532 1.377 . S
C533 C539 1.390 . S
C534 H525 0.930 . S
C534 C532 1.384 . S
C534 C535 1.372 . S
C535 C534 1.372 . S
C535 C536 1.400 . S
C535 C540 1.490 . S
C536 H526 0.930 . S
C536 C535 1.400 . S
C536 C539 1.386 . S
H537 C553 0.930 . S
H538 C554 0.931 . S
C539 H527 0.929 . S
C539 C533 1.390 . S
C539 C536 1.386 . S
C540 C535 1.490 . S
C540 C542 1.395 . S
C540 C543 1.403 . S
H541 C547 0.930 . S
C542 H528 0.930 . S
C542 C540 1.395 . S
C542 C545 1.403 . S
C543 C540 1.403 . S
C543 C544 1.524 . S
C543 C547 1.400 . S
C544 H529 0.960 . S
C544 H530 0.960 . S
C544 H531 0.960 . S
C544 C543 1.524 . S
C545 C542 1.403 . S
C545 C546 1.392 . S
C545 C549 1.495 . S
C546 C545 1.392 . S
C546 C547 1.385 . S
C546 C548 1.478 . S
C547 H541 0.930 . S
C547 C543 1.400 . S
C547 C546 1.385 . S
C548 C546 1.478 . S
C548 C550 1.381 . S
C548 C554 1.383 . S
C549 C545 1.495 . S
C549 H555 0.959 . S
C549 H556 0.961 . S
C549 H557 0.960 . S
C550 C548 1.381 . S
C550 C551 1.394 . S
C550 H558 0.930 . S
C551 C550 1.394 . S
C551 C552 1.383 . S
C551 H559 0.929 . S
C552 C551 1.383 . S
C552 C553 1.377 . S
C553 H537 0.930 . S
C553 C552 1.377 . S
C553 C554 1.379 . S
C554 H538 0.931 . S
C554 C548 1.383 . S
C554 C553 1.379 . S
H555 C549 0.959 . S
H556 C549 0.961 . S
H557 C549 0.960 . S
H558 C550 0.930 . S
H559 C551 0.929 . S
H560 C568 0.929 . S
H561 C570 0.930 . S
H562 C572 0.930 . S
H563 C575 0.929 . S
H564 C578 0.930 . S
H565 C580 0.960 . S
H566 C580 0.960 . S
H567 C580 0.960 . S
C568 H560 0.929 . S
C568 C569 1.377 . S
C568 C570 1.384 . S
C569 C568 1.377 . S
C569 C575 1.390 . S
C570 H561 0.930 . S
C570 C568 1.384 . S
C570 C571 1.372 . S
C571 C570 1.372 . S
C571 C572 1.400 . S
C571 C576 1.490 . S
C572 H562 0.930 . S
C572 C571 1.400 . S
C572 C575 1.386 . S
H573 C589 0.930 . S
H574 C590 0.931 . S
C575 H563 0.929 . S
C575 C569 1.390 . S
C575 C572 1.386 . S
C576 C571 1.490 . S
C576 C578 1.395 . S
C576 C579 1.403 . S
H577 C583 0.930 . S
C578 H564 0.930 . S
C578 C576 1.395 . S
C578 C581 1.403 . S
C579 C576 1.403 . S
C579 C580 1.524 . S
C579 C583 1.400 . S
C580 H565 0.960 . S
C580 H566 0.960 . S
C580 H567 0.960 . S
C580 C579 1.524 . S
C581 C578 1.403 . S
C581 C582 1.392 . S
C581 C585 1.495 . S
C582 C581 1.392 . S
C582 C583 1.385 . S
C582 C584 1.478 . S
C583 H577 0.930 . S
C583 C579 1.400 . S
C583 C582 1.385 . S
C584 C582 1.478 . S
C584 C586 1.381 . S
C584 C590 1.383 . S
C585 C581 1.495 . S
C585 H591 0.959 . S
C585 H592 0.961 . S
C585 H593 0.960 . S
C586 C584 1.381 . S
C586 C587 1.394 . S
C586 H594 0.930 . S
C587 C586 1.394 . S
C587 C588 1.383 . S
C587 H595 0.929 . S
C588 C587 1.383 . S
C588 C589 1.377 . S
C589 H573 0.930 . S
C589 C588 1.377 . S
C589 C590 1.379 . S
C590 H574 0.931 . S
C590 C584 1.383 . S
C590 C589 1.379 . S
H591 C585 0.959 . S
H592 C585 0.961 . S
H593 C585 0.960 . S
H594 C586 0.930 . S
H595 C587 0.929 . S
H596 C604 0.929 . S
H597 C606 0.930 . S
H598 C608 0.930 . S
H599 C611 0.929 . S
H600 C614 0.930 . S
H601 C616 0.960 . S
H602 C616 0.960 . S
H603 C616 0.960 . S
C604 H596 0.929 . S
C604 C605 1.377 . S
C604 C606 1.384 . S
C605 C604 1.377 . S
C605 C611 1.390 . S
C606 H597 0.930 . S
C606 C604 1.384 . S
C606 C607 1.372 . S
C607 C606 1.372 . S
C607 C608 1.400 . S
C607 C612 1.490 . S
C608 H598 0.930 . S
C608 C607 1.400 . S
C608 C611 1.386 . S
H609 C625 0.930 . S
H610 C626 0.931 . S
C611 H599 0.929 . S
C611 C605 1.390 . S
C611 C608 1.386 . S
C612 C607 1.490 . S
C612 C614 1.395 . S
C612 C615 1.403 . S
H613 C619 0.930 . S
C614 H600 0.930 . S
C614 C612 1.395 . S
C614 C617 1.403 . S
C615 C612 1.403 . S
C615 C616 1.524 . S
C615 C619 1.400 . S
C616 H601 0.960 . S
C616 H602 0.960 . S
C616 H603 0.960 . S
C616 C615 1.524 . S
C617 C614 1.403 . S
C617 C618 1.392 . S
C617 C621 1.495 . S
C618 C617 1.392 . S
C618 C619 1.385 . S
C618 C620 1.478 . S
C619 H613 0.930 . S
C619 C615 1.400 . S
C619 C618 1.385 . S
C620 C618 1.478 . S
C620 C622 1.381 . S
C620 C626 1.383 . S
C621 C617 1.495 . S
C621 H627 0.959 . S
C621 H628 0.961 . S
C621 H629 0.960 . S
C622 C620 1.381 . S
C622 C623 1.394 . S
C622 H630 0.930 . S
C623 C622 1.394 . S
C623 C624 1.383 . S
C623 H631 0.929 . S
C624 C623 1.383 . S
C624 C625 1.377 . S
C625 H609 0.930 . S
C625 C624 1.377 . S
C625 C626 1.379 . S
C626 H610 0.931 . S
C626 C620 1.383 . S
C626 C625 1.379 . S
H627 C621 0.959 . S
H628 C621 0.961 . S
H629 C621 0.960 . S
H630 C622 0.930 . S
H631 C623 0.929 . S
H632 C640 0.929 . S
H633 C642 0.930 . S
H634 C644 0.930 . S
H635 C647 0.929 . S
H636 C650 0.930 . S
H637 C652 0.960 . S
H638 C652 0.960 . S
H639 C652 0.960 . S
C640 H632 0.929 . S
C640 C641 1.377 . S
C640 C642 1.384 . S
C641 C640 1.377 . S
C641 C647 1.390 . S
C642 H633 0.930 . S
C642 C640 1.384 . S
C642 C643 1.372 . S
C643 C642 1.372 . S
C643 C644 1.400 . S
C643 C648 1.490 . S
C644 H634 0.930 . S
C644 C643 1.400 . S
C644 C647 1.386 . S
H645 C661 0.930 . S
H646 C662 0.931 . S
C647 H635 0.929 . S
C647 C641 1.390 . S
C647 C644 1.386 . S
C648 C643 1.490 . S
C648 C650 1.395 . S
C648 C651 1.403 . S
H649 C655 0.930 . S
C650 H636 0.930 . S
C650 C648 1.395 . S
C650 C653 1.403 . S
C651 C648 1.403 . S
C651 C652 1.524 . S
C651 C655 1.400 . S
C652 H637 0.960 . S
C652 H638 0.960 . S
C652 H639 0.960 . S
C652 C651 1.524 . S
C653 C650 1.403 . S
C653 C654 1.392 . S
C653 C657 1.495 . S
C654 C653 1.392 . S
C654 C655 1.385 . S
C654 C656 1.478 . S
C655 H649 0.930 . S
C655 C651 1.400 . S
C655 C654 1.385 . S
C656 C654 1.478 . S
C656 C658 1.381 . S
C656 C662 1.383 . S
C657 C653 1.495 . S
C657 H663 0.959 . S
C657 H664 0.961 . S
C657 H665 0.960 . S
C658 C656 1.381 . S
C658 C659 1.394 . S
C658 H666 0.930 . S
C659 C658 1.394 . S
C659 C660 1.383 . S
C659 H667 0.929 . S
C660 C659 1.383 . S
C660 C661 1.377 . S
C661 H645 0.930 . S
C661 C660 1.377 . S
C661 C662 1.379 . S
C662 H646 0.931 . S
C662 C656 1.383 . S
C662 C661 1.379 . S
H663 C657 0.959 . S
H664 C657 0.961 . S
H665 C657 0.960 . S
H666 C658 0.930 . S
H667 C659 0.929 . S
H668 C676 0.929 . S
H669 C678 0.930 . S
H670 C680 0.930 . S
H671 C683 0.929 . S
H672 C686 0.930 . S
H673 C688 0.960 . S
H674 C688 0.960 . S
H675 C688 0.960 . S
C676 H668 0.929 . S
C676 C677 1.377 . S
C676 C678 1.384 . S
C677 C676 1.377 . S
C677 C683 1.390 . S
C678 H669 0.930 . S
C678 C676 1.384 . S
C678 C679 1.372 . S
C679 C678 1.372 . S
C679 C680 1.400 . S
C679 C684 1.490 . S
C680 H670 0.930 . S
C680 C679 1.400 . S
C680 C683 1.386 . S
H681 C697 0.930 . S
H682 C698 0.931 . S
C683 H671 0.929 . S
C683 C677 1.390 . S
C683 C680 1.386 . S
C684 C679 1.490 . S
C684 C686 1.395 . S
C684 C687 1.403 . S
H685 C691 0.930 . S
C686 H672 0.930 . S
C686 C684 1.395 . S
C686 C689 1.403 . S
C687 C684 1.403 . S
C687 C688 1.524 . S
C687 C691 1.400 . S
C688 H673 0.960 . S
C688 H674 0.960 . S
C688 H675 0.960 . S
C688 C687 1.524 . S
C689 C686 1.403 . S
C689 C690 1.392 . S
C689 C693 1.495 . S
C690 C689 1.392 . S
C690 C691 1.385 . S
C690 C692 1.478 . S
C691 H685 0.930 . S
C691 C687 1.400 . S
C691 C690 1.385 . S
C692 C690 1.478 . S
C692 C694 1.381 . S
C692 C698 1.383 . S
C693 C689 1.495 . S
C693 H699 0.959 . S
C693 H700 0.961 . S
C693 H701 0.960 . S
C694 C692 1.381 . S
C694 C695 1.394 . S
C694 H702 0.930 . S
C695 C694 1.394 . S
C695 C696 1.383 . S
C695 H703 0.929 . S
C696 C695 1.383 . S
C696 C697 1.377 . S
C697 H681 0.930 . S
C697 C696 1.377 . S
C697 C698 1.379 . S
C698 H682 0.931 . S
C698 C692 1.383 . S
C698 C697 1.379 . S
H699 C693 0.959 . S
H700 C693 0.961 . S
H701 C693 0.960 . S
H702 C694 0.930 . S
H703 C695 0.929 . S
H704 C712 0.929 . S
H705 C714 0.930 . S
H706 C716 0.930 . S
H707 C719 0.929 . S
H708 C722 0.930 . S
H709 C724 0.960 . S
H710 C724 0.960 . S
H711 C724 0.960 . S
C712 H704 0.929 . S
C712 C713 1.377 . S
C712 C714 1.384 . S
C713 C712 1.377 . S
C713 C719 1.390 . S
C714 H705 0.930 . S
C714 C712 1.384 . S
C714 C715 1.372 . S
C715 C714 1.372 . S
C715 C716 1.400 . S
C715 C720 1.490 . S
C716 H706 0.930 . S
C716 C715 1.400 . S
C716 C719 1.386 . S
H717 C733 0.930 . S
H718 C734 0.931 . S
C719 H707 0.929 . S
C719 C713 1.390 . S
C719 C716 1.386 . S
C720 C715 1.490 . S
C720 C722 1.395 . S
C720 C723 1.403 . S
H721 C727 0.930 . S
C722 H708 0.930 . S
C722 C720 1.395 . S
C722 C725 1.403 . S
C723 C720 1.403 . S
C723 C724 1.524 . S
C723 C727 1.400 . S
C724 H709 0.960 . S
C724 H710 0.960 . S
C724 H711 0.960 . S
C724 C723 1.524 . S
C725 C722 1.403 . S
C725 C726 1.392 . S
C725 C729 1.495 . S
C726 C725 1.392 . S
C726 C727 1.385 . S
C726 C728 1.478 . S
C727 H721 0.930 . S
C727 C723 1.400 . S
C727 C726 1.385 . S
C728 C726 1.478 . S
C728 C730 1.381 . S
C728 C734 1.383 . S
C729 C725 1.495 . S
C729 H735 0.959 . S
C729 H736 0.961 . S
C729 H737 0.960 . S
C730 C728 1.381 . S
C730 C731 1.394 . S
C730 H738 0.930 . S
C731 C730 1.394 . S
C731 C732 1.383 . S
C731 H739 0.929 . S
C732 C731 1.383 . S
C732 C733 1.377 . S
C733 H717 0.930 . S
C733 C732 1.377 . S
C733 C734 1.379 . S
C734 H718 0.931 . S
C734 C728 1.383 . S
C734 C733 1.379 . S
H735 C729 0.959 . S
H736 C729 0.961 . S
H737 C729 0.960 . S
H738 C730 0.930 . S
H739 C731 0.929 . S
H740 C748 0.929 . S
H741 C750 0.930 . S
H742 C752 0.930 . S
H743 C755 0.929 . S
H744 C758 0.930 . S
H745 C760 0.960 . S
H746 C760 0.960 . S
H747 C760 0.960 . S
C748 H740 0.929 . S
C748 C749 1.377 . S
C748 C750 1.384 . S
C749 C748 1.377 . S
C749 C755 1.390 . S
C750 H741 0.930 . S
C750 C748 1.384 . S
C750 C751 1.372 . S
C751 C750 1.372 . S
C751 C752 1.400 . S
C751 C756 1.490 . S
C752 H742 0.930 . S
C752 C751 1.400 . S
C752 C755 1.386 . S
H753 C769 0.930 . S
H754 C770 0.931 . S
C755 H743 0.929 . S
C755 C749 1.390 . S
C755 C752 1.386 . S
C756 C751 1.490 . S
C756 C758 1.395 . S
C756 C759 1.403 . S
H757 C763 0.930 . S
C758 H744 0.930 . S
C758 C756 1.395 . S
C758 C761 1.403 . S
C759 C756 1.403 . S
C759 C760 1.524 . S
C759 C763 1.400 . S
C760 H745 0.960 . S
C760 H746 0.960 . S
C760 H747 0.960 . S
C760 C759 1.524 . S
C761 C758 1.403 . S
C761 C762 1.392 . S
C761 C765 1.495 . S
C762 C761 1.392 . S
C762 C763 1.385 . S
C762 C764 1.478 . S
C763 H757 0.930 . S
C763 C759 1.400 . S
C763 C762 1.385 . S
C764 C762 1.478 . S
C764 C766 1.381 . S
C764 C770 1.383 . S
C765 C761 1.495 . S
C765 H771 0.959 . S
C765 H772 0.961 . S
C765 H773 0.960 . S
C766 C764 1.381 . S
C766 C767 1.394 . S
C766 H774 0.930 . S
C767 C766 1.394 . S
C767 C768 1.383 . S
C767 H775 0.929 . S
C768 C767 1.383 . S
C768 C769 1.377 . S
C769 H753 0.930 . S
C769 C768 1.377 . S
C769 C770 1.379 . S
C770 H754 0.931 . S
C770 C764 1.383 . S
C770 C769 1.379 . S
H771 C765 0.959 . S
H772 C765 0.961 . S
H773 C765 0.960 . S
H774 C766 0.930 . S
H775 C767 0.929 . S
H776 C784 0.929 . S
H777 C786 0.930 . S
H778 C788 0.930 . S
H779 C791 0.929 . S
H780 C794 0.930 . S
H781 C796 0.960 . S
H782 C796 0.960 . S
H783 C796 0.960 . S
C784 H776 0.929 . S
C784 C785 1.377 . S
C784 C786 1.384 . S
C785 C784 1.377 . S
C785 C791 1.390 . S
C786 H777 0.930 . S
C786 C784 1.384 . S
C786 C787 1.372 . S
C787 C786 1.372 . S
C787 C788 1.400 . S
C787 C792 1.490 . S
C788 H778 0.930 . S
C788 C787 1.400 . S
C788 C791 1.386 . S
H789 C805 0.930 . S
H790 C806 0.931 . S
C791 H779 0.929 . S
C791 C785 1.390 . S
C791 C788 1.386 . S
C792 C787 1.490 . S
C792 C794 1.395 . S
C792 C795 1.403 . S
H793 C799 0.930 . S
C794 H780 0.930 . S
C794 C792 1.395 . S
C794 C797 1.403 . S
C795 C792 1.403 . S
C795 C796 1.524 . S
C795 C799 1.400 . S
C796 H781 0.960 . S
C796 H782 0.960 . S
C796 H783 0.960 . S
C796 C795 1.524 . S
C797 C794 1.403 . S
C797 C798 1.392 . S
C797 C801 1.495 . S
C798 C797 1.392 . S
C798 C799 1.385 . S
C798 C800 1.478 . S
C799 H793 0.930 . S
C799 C795 1.400 . S
C799 C798 1.385 . S
C800 C798 1.478 . S
C800 C802 1.381 . S
C800 C806 1.383 . S
C801 C797 1.495 . S
C801 H807 0.959 . S
C801 H808 0.961 . S
C801 H809 0.960 . S
C802 C800 1.381 . S
C802 C803 1.394 . S
C802 H810 0.930 . S
C803 C802 1.394 . S
C803 C804 1.383 . S
C803 H811 0.929 . S
C804 C803 1.383 . S
C804 C805 1.377 . S
C805 H789 0.930 . S
C805 C804 1.377 . S
C805 C806 1.379 . S
C806 H790 0.931 . S
C806 C800 1.383 . S
C806 C805 1.379 . S
H807 C801 0.959 . S
H808 C801 0.961 . S
H809 C801 0.960 . S
H810 C802 0.930 . S
H811 C803 0.929 . S
H812 C820 0.929 . S
H813 C822 0.930 . S
H814 C824 0.930 . S
H815 C827 0.929 . S
H816 C830 0.930 . S
H817 C832 0.960 . S
H818 C832 0.960 . S
H819 C832 0.960 . S
C820 H812 0.929 . S
C820 C821 1.377 . S
C820 C822 1.384 . S
C821 C820 1.377 . S
C821 C827 1.390 . S
C822 H813 0.930 . S
C822 C820 1.384 . S
C822 C823 1.372 . S
C823 C822 1.372 . S
C823 C824 1.400 . S
C823 C828 1.490 . S
C824 H814 0.930 . S
C824 C823 1.400 . S
C824 C827 1.386 . S
H825 C841 0.930 . S
H826 C842 0.931 . S
C827 H815 0.929 . S
C827 C821 1.390 . S
C827 C824 1.386 . S
C828 C823 1.490 . S
C828 C830 1.395 . S
C828 C831 1.403 . S
H829 C835 0.930 . S
C830 H816 0.930 . S
C830 C828 1.395 . S
C830 C833 1.403 . S
C831 C828 1.403 . S
C831 C832 1.524 . S
C831 C835 1.400 . S
C832 H817 0.960 . S
C832 H818 0.960 . S
C832 H819 0.960 . S
C832 C831 1.524 . S
C833 C830 1.403 . S
C833 C834 1.392 . S
C833 C837 1.495 . S
C834 C833 1.392 . S
C834 C835 1.385 . S
C834 C836 1.478 . S
C835 H829 0.930 . S
C835 C831 1.400 . S
C835 C834 1.385 . S
C836 C834 1.478 . S
C836 C838 1.381 . S
C836 C842 1.383 . S
C837 C833 1.495 . S
C837 H843 0.959 . S
C837 H844 0.961 . S
C837 H845 0.960 . S
C838 C836 1.381 . S
C838 C839 1.394 . S
C838 H846 0.930 . S
C839 C838 1.394 . S
C839 C840 1.383 . S
C839 H847 0.929 . S
C840 C839 1.383 . S
C840 C841 1.377 . S
C841 H825 0.930 . S
C841 C840 1.377 . S
C841 C842 1.379 . S
C842 H826 0.931 . S
C842 C836 1.383 . S
C842 C841 1.379 . S
H843 C837 0.959 . S
H844 C837 0.961 . S
H845 C837 0.960 . S
H846 C838 0.930 . S
H847 C839 0.929 . S
H848 C856 0.929 . S
H849 C858 0.930 . S
H850 C860 0.930 . S
H851 C863 0.929 . S
H852 C866 0.930 . S
H853 C868 0.960 . S
H854 C868 0.960 . S
H855 C868 0.960 . S
C856 H848 0.929 . S
C856 C857 1.377 . S
C856 C858 1.384 . S
C857 C856 1.377 . S
C857 C863 1.390 . S
C858 H849 0.930 . S
C858 C856 1.384 . S
C858 C859 1.372 . S
C859 C858 1.372 . S
C859 C860 1.400 . S
C859 C864 1.490 . S
C860 H850 0.930 . S
C860 C859 1.400 . S
C860 C863 1.386 . S
H861 C877 0.930 . S
H862 C878 0.931 . S
C863 H851 0.929 . S
C863 C857 1.390 . S
C863 C860 1.386 . S
C864 C859 1.490 . S
C864 C866 1.395 . S
C864 C867 1.403 . S
H865 C871 0.930 . S
C866 H852 0.930 . S
C866 C864 1.395 . S
C866 C869 1.403 . S
C867 C864 1.403 . S
C867 C868 1.524 . S
C867 C871 1.400 . S
C868 H853 0.960 . S
C868 H854 0.960 . S
C868 H855 0.960 . S
C868 C867 1.524 . S
C869 C866 1.403 . S
C869 C870 1.392 . S
C869 C873 1.495 . S
C870 C869 1.392 . S
C870 C871 1.385 . S
C870 C872 1.478 . S
C871 H865 0.930 . S
C871 C867 1.400 . S
C871 C870 1.385 . S
C872 C870 1.478 . S
C872 C874 1.381 . S
C872 C878 1.383 . S
C873 C869 1.495 . S
C873 H879 0.959 . S
C873 H880 0.961 . S
C873 H881 0.960 . S
C874 C872 1.381 . S
C874 C875 1.394 . S
C874 H882 0.930 . S
C875 C874 1.394 . S
C875 C876 1.383 . S
C875 H883 0.929 . S
C876 C875 1.383 . S
C876 C877 1.377 . S
C877 H861 0.930 . S
C877 C876 1.377 . S
C877 C878 1.379 . S
C878 H862 0.931 . S
C878 C872 1.383 . S
C878 C877 1.379 . S
H879 C873 0.959 . S
H880 C873 0.961 . S
H881 C873 0.960 . S
H882 C874 0.930 . S
H883 C875 0.929 . S
H884 C892 0.929 . S
H885 C894 0.930 . S
H886 C896 0.930 . S
H887 C899 0.929 . S
H888 C902 0.930 . S
H889 C904 0.960 . S
H890 C904 0.960 . S
H891 C904 0.960 . S
C892 H884 0.929 . S
C892 C893 1.377 . S
C892 C894 1.384 . S
C893 C892 1.377 . S
C893 C899 1.390 . S
C894 H885 0.930 . S
C894 C892 1.384 . S
C894 C895 1.372 . S
C895 C894 1.372 . S
C895 C896 1.400 . S
C895 C900 1.490 . S
C896 H886 0.930 . S
C896 C895 1.400 . S
C896 C899 1.386 . S
H897 C913 0.930 . S
H898 C914 0.931 . S
C899 H887 0.929 . S
C899 C893 1.390 . S
C899 C896 1.386 . S
C900 C895 1.490 . S
C900 C902 1.395 . S
C900 C903 1.403 . S
H901 C907 0.930 . S
C902 H888 0.930 . S
C902 C900 1.395 . S
C902 C905 1.403 . S
C903 C900 1.403 . S
C903 C904 1.524 . S
C903 C907 1.400 . S
C904 H889 0.960 . S
C904 H890 0.960 . S
C904 H891 0.960 . S
C904 C903 1.524 . S
C905 C902 1.403 . S
C905 C906 1.392 . S
C905 C909 1.495 . S
C906 C905 1.392 . S
C906 C907 1.385 . S
C906 C908 1.478 . S
C907 H901 0.930 . S
C907 C903 1.400 . S
C907 C906 1.385 . S
C908 C906 1.478 . S
C908 C910 1.381 . S
C908 C914 1.383 . S
C909 C905 1.495 . S
C909 H915 0.959 . S
C909 H916 0.961 . S
C909 H917 0.960 . S
C910 C908 1.381 . S
C910 C911 1.394 . S
C910 H918 0.930 . S
C911 C910 1.394 . S
C911 C912 1.383 . S
C911 H919 0.929 . S
C912 C911 1.383 . S
C912 C913 1.377 . S
C913 H897 0.930 . S
C913 C912 1.377 . S
C913 C914 1.379 . S
C914 H898 0.931 . S
C914 C908 1.383 . S
C914 C913 1.379 . S
H915 C909 0.959 . S
H916 C909 0.961 . S
H917 C909 0.960 . S
H918 C910 0.930 . S
H919 C911 0.929 . S
H920 C928 0.929 . S
H921 C930 0.930 . S
H922 C932 0.930 . S
H923 C935 0.929 . S
H924 C938 0.930 . S
H925 C940 0.960 . S
H926 C940 0.960 . S
H927 C940 0.960 . S
C928 H920 0.929 . S
C928 C929 1.377 . S
C928 C930 1.384 . S
C929 C928 1.377 . S
C929 C935 1.390 . S
C930 H921 0.930 . S
C930 C928 1.384 . S
C930 C931 1.372 . S
C931 C930 1.372 . S
C931 C932 1.400 . S
C931 C936 1.490 . S
C932 H922 0.930 . S
C932 C931 1.400 . S
C932 C935 1.386 . S
H933 C949 0.930 . S
H934 C950 0.931 . S
C935 H923 0.929 . S
C935 C929 1.390 . S
C935 C932 1.386 . S
C936 C931 1.490 . S
C936 C938 1.395 . S
C936 C939 1.403 . S
H937 C943 0.930 . S
C938 H924 0.930 . S
C938 C936 1.395 . S
C938 C941 1.403 . S
C939 C936 1.403 . S
C939 C940 1.524 . S
C939 C943 1.400 . S
C940 H925 0.960 . S
C940 H926 0.960 . S
C940 H927 0.960 . S
C940 C939 1.524 . S
C941 C938 1.403 . S
C941 C942 1.392 . S
C941 C945 1.495 . S
C942 C941 1.392 . S
C942 C943 1.385 . S
C942 C944 1.478 . S
C943 H937 0.930 . S
C943 C939 1.400 . S
C943 C942 1.385 . S
C944 C942 1.478 . S
C944 C946 1.381 . S
C944 C950 1.383 . S
C945 C941 1.495 . S
C945 H951 0.959 . S
C945 H952 0.961 . S
C945 H953 0.960 . S
C946 C944 1.381 . S
C946 C947 1.394 . S
C946 H954 0.930 . S
C947 C946 1.394 . S
C947 C948 1.383 . S
C947 H955 0.929 . S
C948 C947 1.383 . S
C948 C949 1.377 . S
C949 H933 0.930 . S
C949 C948 1.377 . S
C949 C950 1.379 . S
C950 H934 0.931 . S
C950 C944 1.383 . S
C950 C949 1.379 . S
H951 C945 0.959 . S
H952 C945 0.961 . S
H953 C945 0.960 . S
H954 C946 0.930 . S
H955 C947 0.929 . S
H956 C964 0.929 . S
H957 C966 0.930 . S
H958 C968 0.930 . S
H959 C971 0.929 . S
H960 C974 0.930 . S
H961 C976 0.960 . S
H962 C976 0.960 . S
H963 C976 0.960 . S
C964 H956 0.929 . S
C964 C965 1.377 . S
C964 C966 1.384 . S
C965 C964 1.377 . S
C965 C971 1.390 . S
C966 H957 0.930 . S
C966 C964 1.384 . S
C966 C967 1.372 . S
C967 C966 1.372 . S
C967 C968 1.400 . S
C967 C972 1.490 . S
C968 H958 0.930 . S
C968 C967 1.400 . S
C968 C971 1.386 . S
H969 C985 0.930 . S
H970 C986 0.931 . S
C971 H959 0.929 . S
C971 C965 1.390 . S
C971 C968 1.386 . S
C972 C967 1.490 . S
C972 C974 1.395 . S
C972 C975 1.403 . S
H973 C979 0.930 . S
C974 H960 0.930 . S
C974 C972 1.395 . S
C974 C977 1.403 . S
C975 C972 1.403 . S
C975 C976 1.524 . S
C975 C979 1.400 . S
C976 H961 0.960 . S
C976 H962 0.960 . S
C976 H963 0.960 . S
C976 C975 1.524 . S
C977 C974 1.403 . S
C977 C978 1.392 . S
C977 C981 1.495 . S
C978 C977 1.392 . S
C978 C979 1.385 . S
C978 C980 1.478 . S
C979 H973 0.930 . S
C979 C975 1.400 . S
C979 C978 1.385 . S
C980 C978 1.478 . S
C980 C982 1.381 . S
C980 C986 1.383 . S
C981 C977 1.495 . S
C981 H987 0.959 . S
C981 H988 0.961 . S
C981 H989 0.960 . S
C982 C980 1.381 . S
C982 C983 1.394 . S
C982 H990 0.930 . S
C983 C982 1.394 . S
C983 C984 1.383 . S
C983 H991 0.929 . S
C984 C983 1.383 . S
C984 C985 1.377 . S
C985 H969 0.930 . S
C985 C984 1.377 . S
C985 C986 1.379 . S
C986 H970 0.931 . S
C986 C980 1.383 . S
C986 C985 1.379 . S
H987 C981 0.959 . S
H988 C981 0.961 . S
H989 C981 0.960 . S
H990 C982 0.930 . S
H991 C983 0.929 . S
H992 C1000 0.929 . S
H993 C1002 0.930 . S
H994 C1004 0.930 . S
H995 C1007 0.929 . S
H996 C1010 0.930 . S
H997 C1012 0.960 . S
H998 C1012 0.960 . S
H999 C1012 0.960 . S
C1000 H992 0.929 . S
C1000 C1001 1.377 . S
C1000 C1002 1.384 . S
C1001 C1000 1.377 . S
C1001 C1007 1.390 . S
C1002 H993 0.930 . S
C1002 C1000 1.384 . S
C1002 C1003 1.372 . S
C1003 C1002 1.372 . S
C1003 C1004 1.400 . S
C1003 C1008 1.490 . S
C1004 H994 0.930 . S
C1004 C1003 1.400 . S
C1004 C1007 1.386 . S
H1005 C1021 0.930 . S
H1006 C1022 0.931 . S
C1007 H995 0.929 . S
C1007 C1001 1.390 . S
C1007 C1004 1.386 . S
C1008 C1003 1.490 . S
C1008 C1010 1.395 . S
C1008 C1011 1.403 . S
H1009 C1015 0.930 . S
C1010 H996 0.930 . S
C1010 C1008 1.395 . S
C1010 C1013 1.403 . S
C1011 C1008 1.403 . S
C1011 C1012 1.524 . S
C1011 C1015 1.400 . S
C1012 H997 0.960 . S
C1012 H998 0.960 . S
C1012 H999 0.960 . S
C1012 C1011 1.524 . S
C1013 C1010 1.403 . S
C1013 C1014 1.392 . S
C1013 C1017 1.495 . S
C1014 C1013 1.392 . S
C1014 C1015 1.385 . S
C1014 C1016 1.478 . S
C1015 H1009 0.930 . S
C1015 C1011 1.400 . S
C1015 C1014 1.385 . S
C1016 C1014 1.478 . S
C1016 C1018 1.381 . S
C1016 C1022 1.383 . S
C1017 C1013 1.495 . S
C1017 H1023 0.959 . S
C1017 H1024 0.961 . S
C1017 H1025 0.960 . S
C1018 C1016 1.381 . S
C1018 C1019 1.394 . S
C1018 H1026 0.930 . S
C1019 C1018 1.394 . S
C1019 C1020 1.383 . S
C1019 H1027 0.929 . S
C1020 C1019 1.383 . S
C1020 C1021 1.377 . S
C1021 H1005 0.930 . S
C1021 C1020 1.377 . S
C1021 C1022 1.379 . S
C1022 H1006 0.931 . S
C1022 C1016 1.383 . S
C1022 C1021 1.379 . S
H1023 C1017 0.959 . S
H1024 C1017 0.961 . S
H1025 C1017 0.960 . S
H1026 C1018 0.930 . S
H1027 C1019 0.929 . S
H1028 C1036 0.929 . S
H1029 C1038 0.930 . S
H1030 C1040 0.930 . S
H1031 C1043 0.929 . S
H1032 C1046 0.930 . S
H1033 C1048 0.960 . S
H1034 C1048 0.960 . S
H1035 C1048 0.960 . S
C1036 H1028 0.929 . S
C1036 C1037 1.377 . S
C1036 C1038 1.384 . S
C1037 C1036 1.377 . S
C1037 C1043 1.390 . S
C1038 H1029 0.930 . S
C1038 C1036 1.384 . S
C1038 C1039 1.372 . S
C1039 C1038 1.372 . S
C1039 C1040 1.400 . S
C1039 C1044 1.490 . S
C1040 H1030 0.930 . S
C1040 C1039 1.400 . S
C1040 C1043 1.386 . S
H1041 C1057 0.930 . S
H1042 C1058 0.931 . S
C1043 H1031 0.929 . S
C1043 C1037 1.390 . S
C1043 C1040 1.386 . S
C1044 C1039 1.490 . S
C1044 C1046 1.395 . S
C1044 C1047 1.403 . S
H1045 C1051 0.930 . S
C1046 H1032 0.930 . S
C1046 C1044 1.395 . S
C1046 C1049 1.403 . S
C1047 C1044 1.403 . S
C1047 C1048 1.524 . S
C1047 C1051 1.400 . S
C1048 H1033 0.960 . S
C1048 H1034 0.960 . S
C1048 H1035 0.960 . S
C1048 C1047 1.524 . S
C1049 C1046 1.403 . S
C1049 C1050 1.392 . S
C1049 C1053 1.495 . S
C1050 C1049 1.392 . S
C1050 C1051 1.385 . S
C1050 C1052 1.478 . S
C1051 H1045 0.930 . S
C1051 C1047 1.400 . S
C1051 C1050 1.385 . S
C1052 C1050 1.478 . S
C1052 C1054 1.381 . S
C1052 C1058 1.383 . S
C1053 C1049 1.495 . S
C1053 H1059 0.959 . S
C1053 H1060 0.961 . S
C1053 H1061 0.960 . S
C1054 C1052 1.381 . S
C1054 C1055 1.442 . S
C1054 H1062 0.930 . S
C1055 C1054 1.442 . S
C1055 C1056 1.337 1_655 S
C1055 H1063 0.929 . S
C1056 C1055 1.337 1_455 S
C1056 C1057 1.377 . S
C1057 H1041 0.930 . S
C1057 C1056 1.377 . S
C1057 C1058 1.379 1_455 S
C1058 H1042 0.931 . S
C1058 C1052 1.383 . S
C1058 C1057 1.379 1_655 S
H1059 C1053 0.959 . S
H1060 C1053 0.961 . S
H1061 C1053 0.960 . S
H1062 C1054 0.930 . S
H1063 C1055 0.929 . S
H1064 C1072 0.929 . S
H1065 C1074 0.930 . S
H1066 C1076 0.930 . S
H1067 C1079 0.929 . S
H1068 C1082 0.930 . S
H1069 C1084 0.960 . S
H1070 C1084 0.960 . S
H1071 C1084 0.960 . S
C1072 H1064 0.929 . S
C1072 C1073 1.377 . S
C1072 C1074 1.384 . S
C1073 C1072 1.377 . S
C1073 C1079 1.390 . S
C1074 H1065 0.930 . S
C1074 C1072 1.384 . S
C1074 C1075 1.372 . S
C1075 C1074 1.372 . S
C1075 C1076 1.400 . S
C1075 C1080 1.490 . S
C1076 H1066 0.930 . S
C1076 C1075 1.400 . S
C1076 C1079 1.386 . S
H1077 C1093 0.930 . S
H1078 C1094 0.931 . S
C1079 H1067 0.929 . S
C1079 C1073 1.390 . S
C1079 C1076 1.386 . S
C1080 C1075 1.490 . S
C1080 C1082 1.395 . S
C1080 C1083 1.403 . S
H1081 C1087 0.930 . S
C1082 H1068 0.930 . S
C1082 C1080 1.395 . S
C1082 C1085 1.403 . S
C1083 C1080 1.403 . S
C1083 C1084 1.524 . S
C1083 C1087 1.400 . S
C1084 H1069 0.960 . S
C1084 H1070 0.960 . S
C1084 H1071 0.960 . S
C1084 C1083 1.524 . S
C1085 C1082 1.403 . S
C1085 C1086 1.392 . S
C1085 C1089 1.495 . S
C1086 C1085 1.392 . S
C1086 C1087 1.385 . S
C1086 C1088 1.478 . S
C1087 H1081 0.930 . S
C1087 C1083 1.400 . S
C1087 C1086 1.385 . S
C1088 C1086 1.478 . S
C1088 C1090 1.381 . S
C1088 C1094 1.383 . S
C1089 C1085 1.495 . S
C1089 H1095 0.959 . S
C1089 H1096 0.961 . S
C1089 H1097 0.960 . S
C1090 C1088 1.381 . S
C1090 C1091 1.394 . S
C1090 H1098 0.930 . S
C1091 C1090 1.394 . S
C1091 C1092 1.383 . S
C1091 H1099 0.929 . S
C1092 C1091 1.383 . S
C1092 C1093 1.377 . S
C1093 H1077 0.930 . S
C1093 C1092 1.377 . S
C1093 C1094 1.379 . S
C1094 H1078 0.931 . S
C1094 C1088 1.383 . S
C1094 C1093 1.379 . S
H1095 C1089 0.959 . S
H1096 C1089 0.961 . S
H1097 C1089 0.960 . S
H1098 C1090 0.930 . S
H1099 C1091 0.929 . S
H1100 C1108 0.929 . S
H1101 C1110 0.930 . S
H1102 C1112 0.930 . S
H1103 C1115 0.929 . S
H1104 C1118 0.930 . S
H1105 C1120 0.960 . S
H1106 C1120 0.960 . S
H1107 C1120 0.960 . S
C1108 H1100 0.929 . S
C1108 C1109 1.377 . S
C1108 C1110 1.384 . S
C1109 C1108 1.377 . S
C1109 C1115 1.390 . S
C1110 H1101 0.930 . S
C1110 C1108 1.384 . S
C1110 C1111 1.372 . S
C1111 C1110 1.372 . S
C1111 C1112 1.400 . S
C1111 C1116 1.490 . S
C1112 H1102 0.930 . S
C1112 C1111 1.400 . S
C1112 C1115 1.386 . S
H1113 C1129 0.930 . S
H1114 C1130 0.931 . S
C1115 H1103 0.929 . S
C1115 C1109 1.390 . S
C1115 C1112 1.386 . S
C1116 C1111 1.490 . S
C1116 C1118 1.395 . S
C1116 C1119 1.403 . S
H1117 C1123 0.930 . S
C1118 H1104 0.930 . S
C1118 C1116 1.395 . S
C1118 C1121 1.403 . S
C1119 C1116 1.403 . S
C1119 C1120 1.524 . S
C1119 C1123 1.400 . S
C1120 H1105 0.960 . S
C1120 H1106 0.960 . S
C1120 H1107 0.960 . S
C1120 C1119 1.524 . S
C1121 C1118 1.403 . S
C1121 C1122 1.392 . S
C1121 C1125 1.495 . S
C1122 C1121 1.392 . S
C1122 C1123 1.385 . S
C1122 C1124 1.478 . S
C1123 H1117 0.930 . S
C1123 C1119 1.400 . S
C1123 C1122 1.385 . S
C1124 C1122 1.478 . S
C1124 C1126 1.381 . S
C1124 C1130 1.383 . S
C1125 C1121 1.495 . S
C1125 H1131 0.959 . S
C1125 H1132 0.961 . S
C1125 H1133 0.960 . S
C1126 C1124 1.381 . S
C1126 C1127 1.394 . S
C1126 H1134 0.930 . S
C1127 C1126 1.394 . S
C1127 C1128 1.383 . S
C1127 H1135 0.929 . S
C1128 C1127 1.383 . S
C1128 C1129 1.377 . S
C1129 H1113 0.930 . S
C1129 C1128 1.377 . S
C1129 C1130 1.379 . S
C1130 H1114 0.931 . S
C1130 C1124 1.383 . S
C1130 C1129 1.379 . S
H1131 C1125 0.959 . S
H1132 C1125 0.961 . S
H1133 C1125 0.960 . S
H1134 C1126 0.930 . S
H1135 C1127 0.929 . S
H1136 C1144 0.929 . S
H1137 C1146 0.930 . S
H1138 C1148 0.930 . S
H1139 C1151 0.929 . S
H1140 C1154 0.930 . S
H1141 C1156 0.960 . S
H1142 C1156 0.960 . S
H1143 C1156 0.960 . S
C1144 H1136 0.929 . S
C1144 C1145 1.377 . S
C1144 C1146 1.384 . S
C1145 C1144 1.377 . S
C1145 C1151 1.390 . S
C1146 H1137 0.930 . S
C1146 C1144 1.384 . S
C1146 C1147 1.372 . S
C1147 C1146 1.372 . S
C1147 C1148 1.400 . S
C1147 C1152 1.490 . S
C1148 H1138 0.930 . S
C1148 C1147 1.400 . S
C1148 C1151 1.386 . S
H1149 C1165 0.930 . S
H1150 C1166 0.931 . S
C1151 H1139 0.929 . S
C1151 C1145 1.390 . S
C1151 C1148 1.386 . S
C1152 C1147 1.490 . S
C1152 C1154 1.395 . S
C1152 C1155 1.403 . S
H1153 C1159 0.930 . S
C1154 H1140 0.930 . S
C1154 C1152 1.395 . S
C1154 C1157 1.403 . S
C1155 C1152 1.403 . S
C1155 C1156 1.524 . S
C1155 C1159 1.400 . S
C1156 H1141 0.960 . S
C1156 H1142 0.960 . S
C1156 H1143 0.960 . S
C1156 C1155 1.524 . S
C1157 C1154 1.403 . S
C1157 C1158 1.392 . S
C1157 C1161 1.495 . S
C1158 C1157 1.392 . S
C1158 C1159 1.385 . S
C1158 C1160 1.478 . S
C1159 H1153 0.930 . S
C1159 C1155 1.400 . S
C1159 C1158 1.385 . S
C1160 C1158 1.478 . S
C1160 C1162 1.381 . S
C1160 C1166 1.383 . S
C1161 C1157 1.495 . S
C1161 H1167 0.959 . S
C1161 H1168 0.961 . S
C1161 H1169 0.960 . S
C1162 C1160 1.381 . S
C1162 C1163 1.394 . S
C1162 H1170 0.930 . S
C1163 C1162 1.394 . S
C1163 C1164 1.383 . S
C1163 H1171 0.929 . S
C1164 C1163 1.383 . S
C1164 C1165 1.377 . S
C1165 H1149 0.930 . S
C1165 C1164 1.377 . S
C1165 C1166 1.379 . S
C1166 H1150 0.931 . S
C1166 C1160 1.383 . S
C1166 C1165 1.379 . S
H1167 C1161 0.959 . S
H1168 C1161 0.961 . S
H1169 C1161 0.960 . S
H1170 C1162 0.930 . S
H1171 C1163 0.929 . S
H1172 C1180 0.929 . S
H1173 C1182 0.930 . S
H1174 C1184 0.930 . S
H1175 C1187 0.929 . S
H1176 C1190 0.930 . S
H1177 C1192 0.960 . S
H1178 C1192 0.960 . S
H1179 C1192 0.960 . S
C1180 H1172 0.929 . S
C1180 C1181 1.377 . S
C1180 C1182 1.384 . S
C1181 C1180 1.377 . S
C1181 C1187 1.390 . S
C1182 H1173 0.930 . S
C1182 C1180 1.384 . S
C1182 C1183 1.372 . S
C1183 C1182 1.372 . S
C1183 C1184 1.400 . S
C1183 C1188 1.490 . S
C1184 H1174 0.930 . S
C1184 C1183 1.400 . S
C1184 C1187 1.386 . S
H1185 C1201 0.930 . S
H1186 C1202 0.931 . S
C1187 H1175 0.929 . S
C1187 C1181 1.390 . S
C1187 C1184 1.386 . S
C1188 C1183 1.490 . S
C1188 C1190 1.395 . S
C1188 C1191 1.403 . S
H1189 C1195 0.930 . S
C1190 H1176 0.930 . S
C1190 C1188 1.395 . S
C1190 C1193 1.403 . S
C1191 C1188 1.403 . S
C1191 C1192 1.524 . S
C1191 C1195 1.400 . S
C1192 H1177 0.960 . S
C1192 H1178 0.960 . S
C1192 H1179 0.960 . S
C1192 C1191 1.524 . S
C1193 C1190 1.403 . S
C1193 C1194 1.392 . S
C1193 C1197 1.495 . S
C1194 C1193 1.392 . S
C1194 C1195 1.385 . S
C1194 C1196 1.478 . S
C1195 H1189 0.930 . S
C1195 C1191 1.400 . S
C1195 C1194 1.385 . S
C1196 C1194 1.478 . S
C1196 C1198 1.381 . S
C1196 C1202 1.383 . S
C1197 C1193 1.495 . S
C1197 H1203 0.959 . S
C1197 H1204 0.961 . S
C1197 H1205 0.960 . S
C1198 C1196 1.381 . S
C1198 C1199 1.394 . S
C1198 H1206 0.930 . S
C1199 C1198 1.394 . S
C1199 C1200 1.383 . S
C1199 H1207 0.929 . S
C1200 C1199 1.383 . S
C1200 C1201 1.377 . S
C1201 H1185 0.930 . S
C1201 C1200 1.377 . S
C1201 C1202 1.379 . S
C1202 H1186 0.931 . S
C1202 C1196 1.383 . S
C1202 C1201 1.379 . S
H1203 C1197 0.959 . S
H1204 C1197 0.961 . S
H1205 C1197 0.960 . S
H1206 C1198 0.930 . S
H1207 C1199 0.929 . S
H1208 C1216 0.929 . S
H1209 C1218 0.930 . S
H1210 C1220 0.930 . S
H1211 C1223 0.929 . S
H1212 C1226 0.930 . S
H1213 C1228 0.960 . S
H1214 C1228 0.960 . S
H1215 C1228 0.960 . S
C1216 H1208 0.929 . S
C1216 C1217 1.377 . S
C1216 C1218 1.384 . S
C1217 C1216 1.377 . S
C1217 C1223 1.390 . S
C1218 H1209 0.930 . S
C1218 C1216 1.384 . S
C1218 C1219 1.372 . S
C1219 C1218 1.372 . S
C1219 C1220 1.400 . S
C1219 C1224 1.490 . S
C1220 H1210 0.930 . S
C1220 C1219 1.400 . S
C1220 C1223 1.386 . S
H1221 C1237 0.930 . S
H1222 C1238 0.931 . S
C1223 H1211 0.929 . S
C1223 C1217 1.390 . S
C1223 C1220 1.386 . S
C1224 C1219 1.490 . S
C1224 C1226 1.395 . S
C1224 C1227 1.403 . S
H1225 C1231 0.930 . S
C1226 H1212 0.930 . S
C1226 C1224 1.395 . S
C1226 C1229 1.403 . S
C1227 C1224 1.403 . S
C1227 C1228 1.524 . S
C1227 C1231 1.400 . S
C1228 H1213 0.960 . S
C1228 H1214 0.960 . S
C1228 H1215 0.960 . S
C1228 C1227 1.524 . S
C1229 C1226 1.403 . S
C1229 C1230 1.392 . S
C1229 C1233 1.495 . S
C1230 C1229 1.392 . S
C1230 C1231 1.385 . S
C1230 C1232 1.478 . S
C1231 H1225 0.930 . S
C1231 C1227 1.400 . S
C1231 C1230 1.385 . S
C1232 C1230 1.478 . S
C1232 C1234 1.381 . S
C1232 C1238 1.383 . S
C1233 C1229 1.495 . S
C1233 H1239 0.959 . S
C1233 H1240 0.961 . S
C1233 H1241 0.960 . S
C1234 C1232 1.381 . S
C1234 C1235 1.394 . S
C1234 H1242 0.930 . S
C1235 C1234 1.394 . S
C1235 C1236 1.383 . S
C1235 H1243 0.929 . S
C1236 C1235 1.383 . S
C1236 C1237 1.377 . S
C1237 H1221 0.930 . S
C1237 C1236 1.377 . S
C1237 C1238 1.379 . S
C1238 H1222 0.931 . S
C1238 C1232 1.383 . S
C1238 C1237 1.379 . S
H1239 C1233 0.959 . S
H1240 C1233 0.961 . S
H1241 C1233 0.960 . S
H1242 C1234 0.930 . S
H1243 C1235 0.929 . S
H1244 C1252 0.929 . S
H1245 C1254 0.936 . S
H1246 C1256 0.930 . S
H1247 C1259 0.936 . S
H1248 C1262 0.930 . S
H1249 C1264 0.960 . S
H1250 C1264 0.960 . S
H1251 C1264 0.960 . S
C1252 H1244 0.929 . S
C1252 C1253 1.377 . S
C1252 C1254 1.435 . S
C1253 C1252 1.377 . S
C1253 C1259 1.333 1_455 S
C1254 H1245 0.936 . S
C1254 C1252 1.435 . S
C1254 C1255 1.317 1_455 S
C1255 C1254 1.317 1_655 S
C1255 C1256 1.400 . S
C1255 C1260 1.490 . S
C1256 H1246 0.930 . S
C1256 C1255 1.400 . S
C1256 C1259 1.439 . S
H1257 C1273 0.930 . S
H1258 C1274 0.931 . S
C1259 H1247 0.936 . S
C1259 C1253 1.333 1_655 S
C1259 C1256 1.439 . S
C1260 C1255 1.490 . S
C1260 C1262 1.395 . S
C1260 C1263 1.403 . S
H1261 C1267 0.930 . S
C1262 H1248 0.930 . S
C1262 C1260 1.395 . S
C1262 C1265 1.403 . S
C1263 C1260 1.403 . S
C1263 C1264 1.524 . S
C1263 C1267 1.400 . S
C1264 H1249 0.960 . S
C1264 H1250 0.960 . S
C1264 H1251 0.960 . S
C1264 C1263 1.524 . S
C1265 C1262 1.403 . S
C1265 C1266 1.392 . S
C1265 C1269 1.495 . S
C1266 C1265 1.392 . S
C1266 C1267 1.385 . S
C1266 C1268 1.478 . S
C1267 H1261 0.930 . S
C1267 C1263 1.400 . S
C1267 C1266 1.385 . S
C1268 C1266 1.478 . S
C1268 C1270 1.381 . S
C1268 C1274 1.383 . S
C1269 C1265 1.495 . S
C1269 H1275 0.959 . S
C1269 H1276 0.961 . S
C1269 H1277 0.960 . S
C1270 C1268 1.381 . S
C1270 C1271 1.394 . S
C1270 H1278 0.930 . S
C1271 C1270 1.394 . S
C1271 C1272 1.383 . S
C1271 H1279 0.929 . S
C1272 C1271 1.383 . S
C1272 C1273 1.377 . S
C1273 H1257 0.930 . S
C1273 C1272 1.377 . S
C1273 C1274 1.379 . S
C1274 H1258 0.931 . S
C1274 C1268 1.383 . S
C1274 C1273 1.379 . S
H1275 C1269 0.959 . S
H1276 C1269 0.961 . S
H1277 C1269 0.960 . S
H1278 C1270 0.930 . S
H1279 C1271 0.929 . S
H1280 C1288 0.929 . S
H1281 C1290 0.930 . S
H1282 C1292 0.930 . S
H1283 C1295 0.929 . S
H1284 C1298 0.930 . S
H1285 C1300 0.960 . S
H1286 C1300 0.960 . S
H1287 C1300 0.960 . S
C1288 H1280 0.929 . S
C1288 C1289 1.377 . S
C1288 C1290 1.384 . S
C1289 C1288 1.377 . S
C1289 C1295 1.390 . S
C1290 H1281 0.930 . S
C1290 C1288 1.384 . S
C1290 C1291 1.372 . S
C1291 C1290 1.372 . S
C1291 C1292 1.400 . S
C1291 C1296 1.490 . S
C1292 H1282 0.930 . S
C1292 C1291 1.400 . S
C1292 C1295 1.386 . S
H1293 C1309 0.930 . S
H1294 C1310 0.931 . S
C1295 H1283 0.929 . S
C1295 C1289 1.390 . S
C1295 C1292 1.386 . S
C1296 C1291 1.490 . S
C1296 C1298 1.395 . S
C1296 C1299 1.403 . S
H1297 C1303 0.930 . S
C1298 H1284 0.930 . S
C1298 C1296 1.395 . S
C1298 C1301 1.403 . S
C1299 C1296 1.403 . S
C1299 C1300 1.524 . S
C1299 C1303 1.400 . S
C1300 H1285 0.960 . S
C1300 H1286 0.960 . S
C1300 H1287 0.960 . S
C1300 C1299 1.524 . S
C1301 C1298 1.403 . S
C1301 C1302 1.392 . S
C1301 C1305 1.495 . S
C1302 C1301 1.392 . S
C1302 C1303 1.385 . S
C1302 C1304 1.478 . S
C1303 H1297 0.930 . S
C1303 C1299 1.400 . S
C1303 C1302 1.385 . S
C1304 C1302 1.478 . S
C1304 C1306 1.381 . S
C1304 C1310 1.383 . S
C1305 C1301 1.495 . S
C1305 H1311 0.959 . S
C1305 H1312 0.961 . S
C1305 H1313 0.960 . S
C1306 C1304 1.381 . S
C1306 C1307 1.394 . S
C1306 H1314 0.930 . S
C1307 C1306 1.394 . S
C1307 C1308 1.383 . S
C1307 H1315 0.929 . S
C1308 C1307 1.383 . S
C1308 C1309 1.377 . S
C1309 H1293 0.930 . S
C1309 C1308 1.377 . S
C1309 C1310 1.379 . S
C1310 H1294 0.931 . S
C1310 C1304 1.383 . S
C1310 C1309 1.379 . S
H1311 C1305 0.959 . S
H1312 C1305 0.961 . S
H1313 C1305 0.960 . S
H1314 C1306 0.930 . S
H1315 C1307 0.929 . S
H1316 C1324 0.934 . S
H1317 C1326 0.930 . S
H1318 C1328 0.930 1_655 S
H1319 C1331 0.929 . S
H1320 C1334 0.930 . S
H1321 C1336 0.960 . S
H1322 C1336 0.960 . S
H1323 C1336 0.960 . S
C1324 H1316 0.934 . S
C1324 C1325 1.318 1_455 S
C1324 C1326 1.441 . S
C1325 C1324 1.318 1_655 S
C1325 C1331 1.390 . S
C1326 H1317 0.930 . S
C1326 C1324 1.441 . S
C1326 C1327 1.372 . S
C1327 C1326 1.372 . S
C1327 C1328 1.402 . S
C1327 C1332 1.490 . S
C1328 H1318 0.930 1_455 S
C1328 C1327 1.402 . S
C1328 C1331 1.384 1_455 S
H1329 C1345 0.930 . S
H1330 C1346 0.931 . S
C1331 H1319 0.929 . S
C1331 C1325 1.390 . S
C1331 C1328 1.384 1_655 S
C1332 C1327 1.490 . S
C1332 C1334 1.395 . S
C1332 C1335 1.403 . S
H1333 C1339 0.930 . S
C1334 H1320 0.930 . S
C1334 C1332 1.395 . S
C1334 C1337 1.403 . S
C1335 C1332 1.403 . S
C1335 C1336 1.524 . S
C1335 C1339 1.400 . S
C1336 H1321 0.960 . S
C1336 H1322 0.960 . S
C1336 H1323 0.960 . S
C1336 C1335 1.524 . S
C1337 C1334 1.403 . S
C1337 C1338 1.392 . S
C1337 C1341 1.495 . S
C1338 C1337 1.392 . S
C1338 C1339 1.385 . S
C1338 C1340 1.478 . S
C1339 H1333 0.930 . S
C1339 C1335 1.400 . S
C1339 C1338 1.385 . S
C1340 C1338 1.478 . S
C1340 C1342 1.381 . S
C1340 C1346 1.383 . S
C1341 C1337 1.495 . S
C1341 H1347 0.959 . S
C1341 H1348 0.961 . S
C1341 H1349 0.960 . S
C1342 C1340 1.381 . S
C1342 C1343 1.394 . S
C1342 H1350 0.930 . S
C1343 C1342 1.394 . S
C1343 C1344 1.383 . S
C1343 H1351 0.929 . S
C1344 C1343 1.383 . S
C1344 C1345 1.377 . S
C1345 H1329 0.930 . S
C1345 C1344 1.377 . S
C1345 C1346 1.379 . S
C1346 H1330 0.931 . S
C1346 C1340 1.383 . S
C1346 C1345 1.379 . S
H1347 C1341 0.959 . S
H1348 C1341 0.961 . S
H1349 C1341 0.960 . S
H1350 C1342 0.930 . S
H1351 C1343 0.929 . S
H1352 C1360 0.929 . S
H1353 C1362 0.930 . S
H1354 C1364 0.930 . S
H1355 C1367 0.929 . S
H1356 C1370 0.930 . S
H1357 C1372 0.960 . S
H1358 C1372 0.960 . S
H1359 C1372 0.960 . S
C1360 H1352 0.929 . S
C1360 C1361 1.377 . S
C1360 C1362 1.384 . S
C1361 C1360 1.377 . S
C1361 C1367 1.390 . S
C1362 H1353 0.930 . S
C1362 C1360 1.384 . S
C1362 C1363 1.372 . S
C1363 C1362 1.372 . S
C1363 C1364 1.400 . S
C1363 C1368 1.490 . S
C1364 H1354 0.930 . S
C1364 C1363 1.400 . S
C1364 C1367 1.386 . S
H1365 C1381 0.930 . S
H1366 C1382 0.931 . S
C1367 H1355 0.929 . S
C1367 C1361 1.390 . S
C1367 C1364 1.386 . S
C1368 C1363 1.490 . S
C1368 C1370 1.395 . S
C1368 C1371 1.403 . S
H1369 C1375 0.930 . S
C1370 H1356 0.930 . S
C1370 C1368 1.395 . S
C1370 C1373 1.403 . S
C1371 C1368 1.403 . S
C1371 C1372 1.524 . S
C1371 C1375 1.400 . S
C1372 H1357 0.960 . S
C1372 H1358 0.960 . S
C1372 H1359 0.960 . S
C1372 C1371 1.524 . S
C1373 C1370 1.403 . S
C1373 C1374 1.392 . S
C1373 C1377 1.495 . S
C1374 C1373 1.392 . S
C1374 C1375 1.385 . S
C1374 C1376 1.478 . S
C1375 H1369 0.930 . S
C1375 C1371 1.400 . S
C1375 C1374 1.385 . S
C1376 C1374 1.478 . S
C1376 C1378 1.381 . S
C1376 C1382 1.383 . S
C1377 C1373 1.495 . S
C1377 H1383 0.959 . S
C1377 H1384 0.961 . S
C1377 H1385 0.960 . S
C1378 C1376 1.381 . S
C1378 C1379 1.394 . S
C1378 H1386 0.930 . S
C1379 C1378 1.394 . S
C1379 C1380 1.383 . S
C1379 H1387 0.929 . S
C1380 C1379 1.383 . S
C1380 C1381 1.377 . S
C1381 H1365 0.930 . S
C1381 C1380 1.377 . S
C1381 C1382 1.379 . S
C1382 H1366 0.931 . S
C1382 C1376 1.383 . S
C1382 C1381 1.379 . S
H1383 C1377 0.959 . S
H1384 C1377 0.961 . S
H1385 C1377 0.960 . S
H1386 C1378 0.930 . S
H1387 C1379 0.929 . S
H1388 C1396 0.929 . S
H1389 C1398 0.930 . S
H1390 C1400 0.930 . S
H1391 C1403 0.929 . S
H1392 C1406 0.930 . S
H1393 C1408 0.960 . S
H1394 C1408 0.960 . S
H1395 C1408 0.960 . S
C1396 H1388 0.929 . S
C1396 C1397 1.377 . S
C1396 C1398 1.384 . S
C1397 C1396 1.377 . S
C1397 C1403 1.390 . S
C1398 H1389 0.930 . S
C1398 C1396 1.384 . S
C1398 C1399 1.372 . S
C1399 C1398 1.372 . S
C1399 C1400 1.400 . S
C1399 C1404 1.490 . S
C1400 H1390 0.930 . S
C1400 C1399 1.400 . S
C1400 C1403 1.386 . S
H1401 C1417 0.930 . S
H1402 C1418 0.931 . S
C1403 H1391 0.929 . S
C1403 C1397 1.390 . S
C1403 C1400 1.386 . S
C1404 C1399 1.490 . S
C1404 C1406 1.395 . S
C1404 C1407 1.403 . S
H1405 C1411 0.930 . S
C1406 H1392 0.930 . S
C1406 C1404 1.395 . S
C1406 C1409 1.403 . S
C1407 C1404 1.403 . S
C1407 C1408 1.524 . S
C1407 C1411 1.400 . S
C1408 H1393 0.960 . S
C1408 H1394 0.960 . S
C1408 H1395 0.960 . S
C1408 C1407 1.524 . S
C1409 C1406 1.403 . S
C1409 C1410 1.392 . S
C1409 C1413 1.495 . S
C1410 C1409 1.392 . S
C1410 C1411 1.385 . S
C1410 C1412 1.478 . S
C1411 H1405 0.930 . S
C1411 C1407 1.400 . S
C1411 C1410 1.385 . S
C1412 C1410 1.478 . S
C1412 C1414 1.381 . S
C1412 C1418 1.383 . S
C1413 C1409 1.495 . S
C1413 H1419 0.959 . S
C1413 H1420 0.961 . S
C1413 H1421 0.960 . S
C1414 C1412 1.381 . S
C1414 C1415 1.394 . S
C1414 H1422 0.930 . S
C1415 C1414 1.394 . S
C1415 C1416 1.383 . S
C1415 H1423 0.929 . S
C1416 C1415 1.383 . S
C1416 C1417 1.377 . S
C1417 H1401 0.930 . S
C1417 C1416 1.377 . S
C1417 C1418 1.379 . S
C1418 H1402 0.931 . S
C1418 C1412 1.383 . S
C1418 C1417 1.379 . S
H1419 C1413 0.959 . S
H1420 C1413 0.961 . S
H1421 C1413 0.960 . S
H1422 C1414 0.930 . S
H1423 C1415 0.929 . S
H1424 C1432 0.929 . S
H1425 C1434 0.930 . S
H1426 C1436 0.930 . S
H1427 C1439 0.929 . S
H1428 C1442 0.930 . S
H1429 C1444 0.960 . S
H1430 C1444 0.960 . S
H1431 C1444 0.960 . S
C1432 H1424 0.929 . S
C1432 C1433 1.377 . S
C1432 C1434 1.384 . S
C1433 C1432 1.377 . S
C1433 C1439 1.390 . S
C1434 H1425 0.930 . S
C1434 C1432 1.384 . S
C1434 C1435 1.372 . S
C1435 C1434 1.372 . S
C1435 C1436 1.400 . S
C1435 C1440 1.490 . S
C1436 H1426 0.930 . S
C1436 C1435 1.400 . S
C1436 C1439 1.386 . S
H1437 C1453 0.930 . S
H1438 C1454 0.931 . S
C1439 H1427 0.929 . S
C1439 C1433 1.390 . S
C1439 C1436 1.386 . S
C1440 C1435 1.490 . S
C1440 C1442 1.395 . S
C1440 C1443 1.403 . S
H1441 C1447 0.930 . S
C1442 H1428 0.930 . S
C1442 C1440 1.395 . S
C1442 C1445 1.403 . S
C1443 C1440 1.403 . S
C1443 C1444 1.524 . S
C1443 C1447 1.400 . S
C1444 H1429 0.960 . S
C1444 H1430 0.960 . S
C1444 H1431 0.960 . S
C1444 C1443 1.524 . S
C1445 C1442 1.403 . S
C1445 C1446 1.392 . S
C1445 C1449 1.495 . S
C1446 C1445 1.392 . S
C1446 C1447 1.385 . S
C1446 C1448 1.478 . S
C1447 H1441 0.930 . S
C1447 C1443 1.400 . S
C1447 C1446 1.385 . S
C1448 C1446 1.478 . S
C1448 C1450 1.381 . S
C1448 C1454 1.383 . S
C1449 C1445 1.495 . S
C1449 H1455 0.959 . S
C1449 H1456 0.961 . S
C1449 H1457 0.960 . S
C1450 C1448 1.381 . S
C1450 C1451 1.394 . S
C1450 H1458 0.930 . S
C1451 C1450 1.394 . S
C1451 C1452 1.383 . S
C1451 H1459 0.929 . S
C1452 C1451 1.383 . S
C1452 C1453 1.377 . S
C1453 H1437 0.930 . S
C1453 C1452 1.377 . S
C1453 C1454 1.379 . S
C1454 H1438 0.931 . S
C1454 C1448 1.383 . S
C1454 C1453 1.379 . S
H1455 C1449 0.959 . S
H1456 C1449 0.961 . S
H1457 C1449 0.960 . S
H1458 C1450 0.930 . S
H1459 C1451 0.929 . S
H1460 C1468 0.929 . S
H1461 C1470 0.930 . S
H1462 C1472 0.930 . S
H1463 C1475 0.929 . S
H1464 C1478 0.930 . S
H1465 C1480 0.960 . S
H1466 C1480 0.960 . S
H1467 C1480 0.960 . S
C1468 H1460 0.929 . S
C1468 C1469 1.377 . S
C1468 C1470 1.384 . S
C1469 C1468 1.377 . S
C1469 C1475 1.390 . S
C1470 H1461 0.930 . S
C1470 C1468 1.384 . S
C1470 C1471 1.372 . S
C1471 C1470 1.372 . S
C1471 C1472 1.400 . S
C1471 C1476 1.490 . S
C1472 H1462 0.930 . S
C1472 C1471 1.400 . S
C1472 C1475 1.386 . S
H1473 C1489 0.930 . S
H1474 C1490 0.931 . S
C1475 H1463 0.929 . S
C1475 C1469 1.390 . S
C1475 C1472 1.386 . S
C1476 C1471 1.490 . S
C1476 C1478 1.395 . S
C1476 C1479 1.403 . S
H1477 C1483 0.930 . S
C1478 H1464 0.930 . S
C1478 C1476 1.395 . S
C1478 C1481 1.403 . S
C1479 C1476 1.403 . S
C1479 C1480 1.524 . S
C1479 C1483 1.400 . S
C1480 H1465 0.960 . S
C1480 H1466 0.960 . S
C1480 H1467 0.960 . S
C1480 C1479 1.524 . S
C1481 C1478 1.403 . S
C1481 C1482 1.392 . S
C1481 C1485 1.495 . S
C1482 C1481 1.392 . S
C1482 C1483 1.385 . S
C1482 C1484 1.478 . S
C1483 H1477 0.930 . S
C1483 C1479 1.400 . S
C1483 C1482 1.385 . S
C1484 C1482 1.478 . S
C1484 C1486 1.381 . S
C1484 C1490 1.383 . S
C1485 C1481 1.495 . S
C1485 H1491 0.959 . S
C1485 H1492 0.961 . S
C1485 H1493 0.960 . S
C1486 C1484 1.381 . S
C1486 C1487 1.394 . S
C1486 H1494 0.930 . S
C1487 C1486 1.394 . S
C1487 C1488 1.383 . S
C1487 H1495 0.929 . S
C1488 C1487 1.383 . S
C1488 C1489 1.377 . S
C1489 H1473 0.930 . S
C1489 C1488 1.377 . S
C1489 C1490 1.379 . S
C1490 H1474 0.931 . S
C1490 C1484 1.383 . S
C1490 C1489 1.379 . S
H1491 C1485 0.959 . S
H1492 C1485 0.961 . S
H1493 C1485 0.960 . S
H1494 C1486 0.930 . S
H1495 C1487 0.929 . S
H1496 C1504 0.929 . S
H1497 C1506 0.930 . S
H1498 C1508 0.930 . S
H1499 C1511 0.929 . S
H1500 C1514 0.930 . S
H1501 C1516 0.960 . S
H1502 C1516 0.960 . S
H1503 C1516 0.960 . S
C1504 H1496 0.929 . S
C1504 C1505 1.377 . S
C1504 C1506 1.384 . S
C1505 C1504 1.377 . S
C1505 C1511 1.390 . S
C1506 H1497 0.930 . S
C1506 C1504 1.384 . S
C1506 C1507 1.372 . S
C1507 C1506 1.372 . S
C1507 C1508 1.400 . S
C1507 C1512 1.490 . S
C1508 H1498 0.930 . S
C1508 C1507 1.400 . S
C1508 C1511 1.386 . S
H1509 C1525 0.930 . S
H1510 C1526 0.931 . S
C1511 H1499 0.929 . S
C1511 C1505 1.390 . S
C1511 C1508 1.386 . S
C1512 C1507 1.490 . S
C1512 C1514 1.395 . S
C1512 C1515 1.403 . S
H1513 C1519 0.930 . S
C1514 H1500 0.930 . S
C1514 C1512 1.395 . S
C1514 C1517 1.403 . S
C1515 C1512 1.403 . S
C1515 C1516 1.524 . S
C1515 C1519 1.400 . S
C1516 H1501 0.960 . S
C1516 H1502 0.960 . S
C1516 H1503 0.960 . S
C1516 C1515 1.524 . S
C1517 C1514 1.403 . S
C1517 C1518 1.392 . S
C1517 C1521 1.495 . S
C1518 C1517 1.392 . S
C1518 C1519 1.385 . S
C1518 C1520 1.478 . S
C1519 H1513 0.930 . S
C1519 C1515 1.400 . S
C1519 C1518 1.385 . S
C1520 C1518 1.478 . S
C1520 C1522 1.381 . S
C1520 C1526 1.383 . S
C1521 C1517 1.495 . S
C1521 H1527 0.959 . S
C1521 H1528 0.961 . S
C1521 H1529 0.960 . S
C1522 C1520 1.381 . S
C1522 C1523 1.394 . S
C1522 H1530 0.930 . S
C1523 C1522 1.394 . S
C1523 C1524 1.383 . S
C1523 H1531 0.929 . S
C1524 C1523 1.383 . S
C1524 C1525 1.377 . S
C1525 H1509 0.930 . S
C1525 C1524 1.377 . S
C1525 C1526 1.379 . S
C1526 H1510 0.931 . S
C1526 C1520 1.383 . S
C1526 C1525 1.379 . S
H1527 C1521 0.959 . S
H1528 C1521 0.961 . S
H1529 C1521 0.960 . S
H1530 C1522 0.930 . S
H1531 C1523 0.929 . S
H1532 C1540 0.929 . S
H1533 C1542 0.930 . S
H1534 C1544 0.930 . S
H1535 C1547 0.929 . S
H1536 C1550 0.930 . S
H1537 C1552 0.960 . S
H1538 C1552 0.960 . S
H1539 C1552 0.960 . S
C1540 H1532 0.929 . S
C1540 C1541 1.377 . S
C1540 C1542 1.384 . S
C1541 C1540 1.377 . S
C1541 C1547 1.390 . S
C1542 H1533 0.930 . S
C1542 C1540 1.384 . S
C1542 C1543 1.372 . S
C1543 C1542 1.372 . S
C1543 C1544 1.400 . S
C1543 C1548 1.490 . S
C1544 H1534 0.930 . S
C1544 C1543 1.400 . S
C1544 C1547 1.386 . S
H1545 C1561 0.930 . S
H1546 C1562 0.931 . S
C1547 H1535 0.929 . S
C1547 C1541 1.390 . S
C1547 C1544 1.386 . S
C1548 C1543 1.490 . S
C1548 C1550 1.395 . S
C1548 C1551 1.403 . S
H1549 C1555 0.930 . S
C1550 H1536 0.930 . S
C1550 C1548 1.395 . S
C1550 C1553 1.403 . S
C1551 C1548 1.403 . S
C1551 C1552 1.524 . S
C1551 C1555 1.400 . S
C1552 H1537 0.960 . S
C1552 H1538 0.960 . S
C1552 H1539 0.960 . S
C1552 C1551 1.524 . S
C1553 C1550 1.403 . S
C1553 C1554 1.392 . S
C1553 C1557 1.495 . S
C1554 C1553 1.392 . S
C1554 C1555 1.385 . S
C1554 C1556 1.478 . S
C1555 H1549 0.930 . S
C1555 C1551 1.400 . S
C1555 C1554 1.385 . S
C1556 C1554 1.478 . S
C1556 C1558 1.381 . S
C1556 C1562 1.383 . S
C1557 C1553 1.495 . S
C1557 H1563 0.959 . S
C1557 H1564 0.961 . S
C1557 H1565 0.960 . S
C1558 C1556 1.381 . S
C1558 C1559 1.394 1_455 S
C1558 H1566 0.930 . S
C1559 C1558 1.394 1_655 S
C1559 C1560 1.383 . S
C1559 H1567 0.929 . S
C1560 C1559 1.383 . S
C1560 C1561 1.377 . S
C1561 H1545 0.930 . S
C1561 C1560 1.377 . S
C1561 C1562 1.379 1_655 S
C1562 H1546 0.931 . S
C1562 C1556 1.383 . S
C1562 C1561 1.379 1_455 S
H1563 C1557 0.959 . S
H1564 C1557 0.961 . S
H1565 C1557 0.960 . S
H1566 C1558 0.930 . S
H1567 C1559 0.929 . S
H1568 C1576 0.929 . S
H1569 C1578 0.930 . S
H1570 C1580 0.930 . S
H1571 C1583 0.929 . S
H1572 C1586 0.930 . S
H1573 C1588 0.960 . S
H1574 C1588 0.960 . S
H1575 C1588 0.960 . S
C1576 H1568 0.929 . S
C1576 C1577 1.377 . S
C1576 C1578 1.384 . S
C1577 C1576 1.377 . S
C1577 C1583 1.390 . S
C1578 H1569 0.930 . S
C1578 C1576 1.384 . S
C1578 C1579 1.372 . S
C1579 C1578 1.372 . S
C1579 C1580 1.400 . S
C1579 C1584 1.490 . S
C1580 H1570 0.930 . S
C1580 C1579 1.400 . S
C1580 C1583 1.386 . S
H1581 C1597 0.930 . S
H1582 C1598 0.931 . S
C1583 H1571 0.929 . S
C1583 C1577 1.390 . S
C1583 C1580 1.386 . S
C1584 C1579 1.490 . S
C1584 C1586 1.395 . S
C1584 C1587 1.403 . S
H1585 C1591 0.930 . S
C1586 H1572 0.930 . S
C1586 C1584 1.395 . S
C1586 C1589 1.403 . S
C1587 C1584 1.403 . S
C1587 C1588 1.524 . S
C1587 C1591 1.400 . S
C1588 H1573 0.960 . S
C1588 H1574 0.960 . S
C1588 H1575 0.960 . S
C1588 C1587 1.524 . S
C1589 C1586 1.403 . S
C1589 C1590 1.392 . S
C1589 C1593 1.495 . S
C1590 C1589 1.392 . S
C1590 C1591 1.385 . S
C1590 C1592 1.478 . S
C1591 H1585 0.930 . S
C1591 C1587 1.400 . S
C1591 C1590 1.385 . S
C1592 C1590 1.478 . S
C1592 C1594 1.381 . S
C1592 C1598 1.383 . S
C1593 C1589 1.495 . S
C1593 H1599 0.959 . S
C1593 H1600 0.961 . S
C1593 H1601 0.960 . S
C1594 C1592 1.381 . S
C1594 C1595 1.394 . S
C1594 H1602 0.930 . S
C1595 C1594 1.394 . S
C1595 C1596 1.383 . S
C1595 H1603 0.929 . S
C1596 C1595 1.383 . S
C1596 C1597 1.377 . S
C1597 H1581 0.930 . S
C1597 C1596 1.377 . S
C1597 C1598 1.379 . S
C1598 H1582 0.931 . S
C1598 C1592 1.383 . S
C1598 C1597 1.379 . S
H1599 C1593 0.959 . S
H1600 C1593 0.961 . S
H1601 C1593 0.960 . S
H1602 C1594 0.930 . S
H1603 C1595 0.929 . S
H1604 C1612 0.929 . S
H1605 C1614 0.930 . S
H1606 C1616 0.930 . S
H1607 C1619 0.929 . S
H1608 C1622 0.930 . S
H1609 C1624 0.960 . S
H1610 C1624 0.960 . S
H1611 C1624 0.960 . S
C1612 H1604 0.929 . S
C1612 C1613 1.377 . S
C1612 C1614 1.384 . S
C1613 C1612 1.377 . S
C1613 C1619 1.390 . S
C1614 H1605 0.930 . S
C1614 C1612 1.384 . S
C1614 C1615 1.372 . S
C1615 C1614 1.372 . S
C1615 C1616 1.400 . S
C1615 C1620 1.490 . S
C1616 H1606 0.930 . S
C1616 C1615 1.400 . S
C1616 C1619 1.386 . S
H1617 C1633 0.930 . S
H1618 C1634 0.931 . S
C1619 H1607 0.929 . S
C1619 C1613 1.390 . S
C1619 C1616 1.386 . S
C1620 C1615 1.490 . S
C1620 C1622 1.395 . S
C1620 C1623 1.403 . S
H1621 C1627 0.930 . S
C1622 H1608 0.930 . S
C1622 C1620 1.395 . S
C1622 C1625 1.403 . S
C1623 C1620 1.403 . S
C1623 C1624 1.524 . S
C1623 C1627 1.400 . S
C1624 H1609 0.960 . S
C1624 H1610 0.960 . S
C1624 H1611 0.960 . S
C1624 C1623 1.524 . S
C1625 C1622 1.403 . S
C1625 C1626 1.392 . S
C1625 C1629 1.495 . S
C1626 C1625 1.392 . S
C1626 C1627 1.385 . S
C1626 C1628 1.478 . S
C1627 H1621 0.930 . S
C1627 C1623 1.400 . S
C1627 C1626 1.385 . S
C1628 C1626 1.478 . S
C1628 C1630 1.381 . S
C1628 C1634 1.383 . S
C1629 C1625 1.495 . S
C1629 H1635 0.959 . S
C1629 H1636 0.961 . S
C1629 H1637 0.960 . S
C1630 C1628 1.381 . S
C1630 C1631 1.394 . S
C1630 H1638 0.930 . S
C1631 C1630 1.394 . S
C1631 C1632 1.383 . S
C1631 H1639 0.929 . S
C1632 C1631 1.383 . S
C1632 C1633 1.377 . S
C1633 H1617 0.930 . S
C1633 C1632 1.377 . S
C1633 C1634 1.379 . S
C1634 H1618 0.931 . S
C1634 C1628 1.383 . S
C1634 C1633 1.379 . S
H1635 C1629 0.959 . S
H1636 C1629 0.961 . S
H1637 C1629 0.960 . S
H1638 C1630 0.930 . S
H1639 C1631 0.929 . S
H1640 C1648 0.929 . S
H1641 C1650 0.930 . S
H1642 C1652 0.930 . S
H1643 C1655 0.929 . S
H1644 C1658 0.930 . S
H1645 C1660 0.960 . S
H1646 C1660 0.960 . S
H1647 C1660 0.960 . S
C1648 H1640 0.929 . S
C1648 C1649 1.377 . S
C1648 C1650 1.384 . S
C1649 C1648 1.377 . S
C1649 C1655 1.390 . S
C1650 H1641 0.930 . S
C1650 C1648 1.384 . S
C1650 C1651 1.372 . S
C1651 C1650 1.372 . S
C1651 C1652 1.400 . S
C1651 C1656 1.490 . S
C1652 H1642 0.930 . S
C1652 C1651 1.400 . S
C1652 C1655 1.386 . S
H1653 C1669 0.930 . S
H1654 C1670 0.931 . S
C1655 H1643 0.929 . S
C1655 C1649 1.390 . S
C1655 C1652 1.386 . S
C1656 C1651 1.490 . S
C1656 C1658 1.395 . S
C1656 C1659 1.403 . S
H1657 C1663 0.930 . S
C1658 H1644 0.930 . S
C1658 C1656 1.395 . S
C1658 C1661 1.403 . S
C1659 C1656 1.403 . S
C1659 C1660 1.524 . S
C1659 C1663 1.400 . S
C1660 H1645 0.960 . S
C1660 H1646 0.960 . S
C1660 H1647 0.960 . S
C1660 C1659 1.524 . S
C1661 C1658 1.403 . S
C1661 C1662 1.392 . S
C1661 C1665 1.495 . S
C1662 C1661 1.392 . S
C1662 C1663 1.385 . S
C1662 C1664 1.478 . S
C1663 H1657 0.930 . S
C1663 C1659 1.400 . S
C1663 C1662 1.385 . S
C1664 C1662 1.478 . S
C1664 C1666 1.381 . S
C1664 C1670 1.383 . S
C1665 C1661 1.495 . S
C1665 H1671 0.959 . S
C1665 H1672 0.961 . S
C1665 H1673 0.960 . S
C1666 C1664 1.381 . S
C1666 C1667 1.394 . S
C1666 H1674 0.930 . S
C1667 C1666 1.394 . S
C1667 C1668 1.383 . S
C1667 H1675 0.929 . S
C1668 C1667 1.383 . S
C1668 C1669 1.377 . S
C1669 H1653 0.930 . S
C1669 C1668 1.377 . S
C1669 C1670 1.379 . S
C1670 H1654 0.931 . S
C1670 C1664 1.383 . S
C1670 C1669 1.379 . S
H1671 C1665 0.959 . S
H1672 C1665 0.961 . S
H1673 C1665 0.960 . S
H1674 C1666 0.930 . S
H1675 C1667 0.929 . S
H1676 C1684 0.929 . S
H1677 C1686 0.930 . S
H1678 C1688 0.930 . S
H1679 C1691 0.929 . S
H1680 C1694 0.930 . S
H1681 C1696 0.960 . S
H1682 C1696 0.960 . S
H1683 C1696 0.960 . S
C1684 H1676 0.929 . S
C1684 C1685 1.377 . S
C1684 C1686 1.384 . S
C1685 C1684 1.377 . S
C1685 C1691 1.390 . S
C1686 H1677 0.930 . S
C1686 C1684 1.384 . S
C1686 C1687 1.372 . S
C1687 C1686 1.372 . S
C1687 C1688 1.400 . S
C1687 C1692 1.490 . S
C1688 H1678 0.930 . S
C1688 C1687 1.400 . S
C1688 C1691 1.386 . S
H1689 C1705 0.930 . S
H1690 C1706 0.931 . S
C1691 H1679 0.929 . S
C1691 C1685 1.390 . S
C1691 C1688 1.386 . S
C1692 C1687 1.490 . S
C1692 C1694 1.395 . S
C1692 C1695 1.403 . S
H1693 C1699 0.930 . S
C1694 H1680 0.930 . S
C1694 C1692 1.395 . S
C1694 C1697 1.403 . S
C1695 C1692 1.403 . S
C1695 C1696 1.524 . S
C1695 C1699 1.400 . S
C1696 H1681 0.960 . S
C1696 H1682 0.960 . S
C1696 H1683 0.960 . S
C1696 C1695 1.524 . S
C1697 C1694 1.403 . S
C1697 C1698 1.392 . S
C1697 C1701 1.495 . S
C1698 C1697 1.392 . S
C1698 C1699 1.385 . S
C1698 C1700 1.478 . S
C1699 H1693 0.930 . S
C1699 C1695 1.400 . S
C1699 C1698 1.385 . S
C1700 C1698 1.478 . S
C1700 C1702 1.381 1_455 S
C1700 C1706 1.383 . S
C1701 C1697 1.495 . S
C1701 H1707 0.959 . S
C1701 H1708 0.961 . S
C1701 H1709 0.960 . S
C1702 C1700 1.381 1_655 S
C1702 C1703 1.394 . S
C1702 H1710 0.930 . S
C1703 C1702 1.394 . S
C1703 C1704 1.383 . S
C1703 H1711 0.929 . S
C1704 C1703 1.383 . S
C1704 C1705 1.377 1_655 S
C1705 H1689 0.930 . S
C1705 C1704 1.377 1_455 S
C1705 C1706 1.379 . S
C1706 H1690 0.931 . S
C1706 C1700 1.383 . S
C1706 C1705 1.379 . S
H1707 C1701 0.959 . S
H1708 C1701 0.961 . S
H1709 C1701 0.960 . S
H1710 C1702 0.930 . S
H1711 C1703 0.929 . S
H1712 C1720 0.929 . S
H1713 C1722 0.930 . S
H1714 C1724 0.930 . S
H1715 C1727 0.929 . S
H1716 C1730 0.930 . S
H1717 C1732 0.960 . S
H1718 C1732 0.960 . S
H1719 C1732 0.960 . S
C1720 H1712 0.929 . S
C1720 C1721 1.377 . S
C1720 C1722 1.384 . S
C1721 C1720 1.377 . S
C1721 C1727 1.390 . S
C1722 H1713 0.930 . S
C1722 C1720 1.384 . S
C1722 C1723 1.372 . S
C1723 C1722 1.372 . S
C1723 C1724 1.400 . S
C1723 C1728 1.490 . S
C1724 H1714 0.930 . S
C1724 C1723 1.400 . S
C1724 C1727 1.386 . S
H1725 C1741 0.930 . S
H1726 C1742 0.931 . S
C1727 H1715 0.929 . S
C1727 C1721 1.390 . S
C1727 C1724 1.386 . S
C1728 C1723 1.490 . S
C1728 C1730 1.395 . S
C1728 C1731 1.403 . S
H1729 C1735 0.930 . S
C1730 H1716 0.930 . S
C1730 C1728 1.395 . S
C1730 C1733 1.403 . S
C1731 C1728 1.403 . S
C1731 C1732 1.524 . S
C1731 C1735 1.400 . S
C1732 H1717 0.960 . S
C1732 H1718 0.960 . S
C1732 H1719 0.960 . S
C1732 C1731 1.524 . S
C1733 C1730 1.403 . S
C1733 C1734 1.392 . S
C1733 C1737 1.495 . S
C1734 C1733 1.392 . S
C1734 C1735 1.385 . S
C1734 C1736 1.478 . S
C1735 H1729 0.930 . S
C1735 C1731 1.400 . S
C1735 C1734 1.385 . S
C1736 C1734 1.478 . S
C1736 C1738 1.381 . S
C1736 C1742 1.383 . S
C1737 C1733 1.495 . S
C1737 H1743 0.959 . S
C1737 H1744 0.961 . S
C1737 H1745 0.960 . S
C1738 C1736 1.381 . S
C1738 C1739 1.394 . S
C1738 H1746 0.930 . S
C1739 C1738 1.394 . S
C1739 C1740 1.383 . S
C1739 H1747 0.929 . S
C1740 C1739 1.383 . S
C1740 C1741 1.377 . S
C1741 H1725 0.930 . S
C1741 C1740 1.377 . S
C1741 C1742 1.379 . S
C1742 H1726 0.931 . S
C1742 C1736 1.383 . S
C1742 C1741 1.379 . S
H1743 C1737 0.959 . S
H1744 C1737 0.961 . S
H1745 C1737 0.960 . S
H1746 C1738 0.930 . S
H1747 C1739 0.929 . S
H1748 C1756 0.929 . S
H1749 C1758 0.930 . S
H1750 C1760 0.930 . S
H1751 C1763 0.929 . S
H1752 C1766 0.930 . S
H1753 C1768 0.960 . S
H1754 C1768 0.960 . S
H1755 C1768 0.960 . S
C1756 H1748 0.929 . S
C1756 C1757 1.377 . S
C1756 C1758 1.384 . S
C1757 C1756 1.377 . S
C1757 C1763 1.371 1_655 S
C1758 H1749 0.930 . S
C1758 C1756 1.384 . S
C1758 C1759 1.372 1_655 S
C1759 C1758 1.372 1_455 S
C1759 C1760 1.400 . S
C1759 C1764 1.490 . S
C1760 H1750 0.930 . S
C1760 C1759 1.400 . S
C1760 C1763 1.404 . S
H1761 C1777 0.930 . S
H1762 C1778 0.931 . S
C1763 H1751 0.929 . S
C1763 C1757 1.371 1_455 S
C1763 C1760 1.404 . S
C1764 C1759 1.490 . S
C1764 C1766 1.395 . S
C1764 C1767 1.403 . S
H1765 C1771 0.930 . S
C1766 H1752 0.930 . S
C1766 C1764 1.395 . S
C1766 C1769 1.403 . S
C1767 C1764 1.403 . S
C1767 C1768 1.524 . S
C1767 C1771 1.400 . S
C1768 H1753 0.960 . S
C1768 H1754 0.960 . S
C1768 H1755 0.960 . S
C1768 C1767 1.524 . S
C1769 C1766 1.403 . S
C1769 C1770 1.392 . S
C1769 C1773 1.495 . S
C1770 C1769 1.392 . S
C1770 C1771 1.385 . S
C1770 C1772 1.478 . S
C1771 H1765 0.930 . S
C1771 C1767 1.400 . S
C1771 C1770 1.385 . S
C1772 C1770 1.478 . S
C1772 C1774 1.381 . S
C1772 C1778 1.383 . S
C1773 C1769 1.495 . S
C1773 H1779 0.959 . S
C1773 H1780 0.961 . S
C1773 H1781 0.960 . S
C1774 C1772 1.381 . S
C1774 C1775 1.394 . S
C1774 H1782 0.930 . S
C1775 C1774 1.394 . S
C1775 C1776 1.383 . S
C1775 H1783 0.929 . S
C1776 C1775 1.383 . S
C1776 C1777 1.377 . S
C1777 H1761 0.930 . S
C1777 C1776 1.377 . S
C1777 C1778 1.379 . S
C1778 H1762 0.931 . S
C1778 C1772 1.383 . S
C1778 C1777 1.379 . S
H1779 C1773 0.959 . S
H1780 C1773 0.961 . S
H1781 C1773 0.960 . S
H1782 C1774 0.930 . S
H1783 C1775 0.929 . S
H1784 C1792 0.929 . S
H1785 C1794 0.930 . S
H1786 C1796 0.930 . S
H1787 C1799 0.929 . S
H1788 C1802 0.930 . S
H1789 C1804 0.960 . S
H1790 C1804 0.960 . S
H1791 C1804 0.960 . S
C1792 H1784 0.929 . S
C1792 C1793 1.377 . S
C1792 C1794 1.384 . S
C1793 C1792 1.377 . S
C1793 C1799 1.390 . S
C1794 H1785 0.930 . S
C1794 C1792 1.384 . S
C1794 C1795 1.372 . S
C1795 C1794 1.372 . S
C1795 C1796 1.400 . S
C1795 C1800 1.490 . S
C1796 H1786 0.930 . S
C1796 C1795 1.400 . S
C1796 C1799 1.386 . S
H1797 C1813 0.930 . S
H1798 C1814 0.931 . S
C1799 H1787 0.929 . S
C1799 C1793 1.390 . S
C1799 C1796 1.386 . S
C1800 C1795 1.490 . S
C1800 C1802 1.395 . S
C1800 C1803 1.403 . S
H1801 C1807 0.930 . S
C1802 H1788 0.930 . S
C1802 C1800 1.395 . S
C1802 C1805 1.403 . S
C1803 C1800 1.403 . S
C1803 C1804 1.524 . S
C1803 C1807 1.400 . S
C1804 H1789 0.960 . S
C1804 H1790 0.960 . S
C1804 H1791 0.960 . S
C1804 C1803 1.524 . S
C1805 C1802 1.403 . S
C1805 C1806 1.392 . S
C1805 C1809 1.495 . S
C1806 C1805 1.392 . S
C1806 C1807 1.385 . S
C1806 C1808 1.478 . S
C1807 H1801 0.930 . S
C1807 C1803 1.400 . S
C1807 C1806 1.385 . S
C1808 C1806 1.478 . S
C1808 C1810 1.381 . S
C1808 C1814 1.383 . S
C1809 C1805 1.495 . S
C1809 H1815 0.959 . S
C1809 H1816 0.961 . S
C1809 H1817 0.960 . S
C1810 C1808 1.381 . S
C1810 C1811 1.394 . S
C1810 H1818 0.930 . S
C1811 C1810 1.394 . S
C1811 C1812 1.383 . S
C1811 H1819 0.929 . S
C1812 C1811 1.383 . S
C1812 C1813 1.377 . S
C1813 H1797 0.930 . S
C1813 C1812 1.377 . S
C1813 C1814 1.379 . S
C1814 H1798 0.931 . S
C1814 C1808 1.383 . S
C1814 C1813 1.379 . S
H1815 C1809 0.959 . S
H1816 C1809 0.961 . S
H1817 C1809 0.960 . S
H1818 C1810 0.930 . S
H1819 C1811 0.929 . S
H1820 C1828 0.929 . S
H1821 C1830 0.930 . S
H1822 C1832 0.930 . S
H1823 C1835 0.929 . S
H1824 C1838 0.930 . S
H1825 C1840 0.960 . S
H1826 C1840 0.960 . S
H1827 C1840 0.960 . S
C1828 H1820 0.929 . S
C1828 C1829 1.377 . S
C1828 C1830 1.384 . S
C1829 C1828 1.377 . S
C1829 C1835 1.390 . S
C1830 H1821 0.930 . S
C1830 C1828 1.384 . S
C1830 C1831 1.372 . S
C1831 C1830 1.372 . S
C1831 C1832 1.400 . S
C1831 C1836 1.490 . S
C1832 H1822 0.930 . S
C1832 C1831 1.400 . S
C1832 C1835 1.386 . S
H1833 C1849 0.930 . S
H1834 C1850 0.931 . S
C1835 H1823 0.929 . S
C1835 C1829 1.390 . S
C1835 C1832 1.386 . S
C1836 C1831 1.490 . S
C1836 C1838 1.395 . S
C1836 C1839 1.403 . S
H1837 C1843 0.930 . S
C1838 H1824 0.930 . S
C1838 C1836 1.395 . S
C1838 C1841 1.403 . S
C1839 C1836 1.403 . S
C1839 C1840 1.524 . S
C1839 C1843 1.400 . S
C1840 H1825 0.960 . S
C1840 H1826 0.960 . S
C1840 H1827 0.960 . S
C1840 C1839 1.524 . S
C1841 C1838 1.403 . S
C1841 C1842 1.392 . S
C1841 C1845 1.495 . S
C1842 C1841 1.392 . S
C1842 C1843 1.385 . S
C1842 C1844 1.478 . S
C1843 H1837 0.930 . S
C1843 C1839 1.400 . S
C1843 C1842 1.385 . S
C1844 C1842 1.478 . S
C1844 C1846 1.381 . S
C1844 C1850 1.383 . S
C1845 C1841 1.495 . S
C1845 H1851 0.959 . S
C1845 H1852 0.961 . S
C1845 H1853 0.960 . S
C1846 C1844 1.381 . S
C1846 C1847 1.394 . S
C1846 H1854 0.930 . S
C1847 C1846 1.394 . S
C1847 C1848 1.383 . S
C1847 H1855 0.929 . S
C1848 C1847 1.383 . S
C1848 C1849 1.377 . S
C1849 H1833 0.930 . S
C1849 C1848 1.377 . S
C1849 C1850 1.379 . S
C1850 H1834 0.931 . S
C1850 C1844 1.383 . S
C1850 C1849 1.379 . S
H1851 C1845 0.959 . S
H1852 C1845 0.961 . S
H1853 C1845 0.960 . S
H1854 C1846 0.930 . S
H1855 C1847 0.929 . S
H1856 C1864 0.929 . S
H1857 C1866 0.930 . S
H1858 C1868 0.930 . S
H1859 C1871 0.929 . S
H1860 C1874 0.930 . S
H1861 C1876 0.960 . S
H1862 C1876 0.960 . S
H1863 C1876 0.960 . S
C1864 H1856 0.929 . S
C1864 C1865 1.377 . S
C1864 C1866 1.384 . S
C1865 C1864 1.377 . S
C1865 C1871 1.390 . S
C1866 H1857 0.930 . S
C1866 C1864 1.384 . S
C1866 C1867 1.372 . S
C1867 C1866 1.372 . S
C1867 C1868 1.400 . S
C1867 C1872 1.490 . S
C1868 H1858 0.930 . S
C1868 C1867 1.400 . S
C1868 C1871 1.386 . S
H1869 C1885 0.930 . S
H1870 C1886 0.931 . S
C1871 H1859 0.929 . S
C1871 C1865 1.390 . S
C1871 C1868 1.386 . S
C1872 C1867 1.490 . S
C1872 C1874 1.395 . S
C1872 C1875 1.403 . S
H1873 C1879 0.930 . S
C1874 H1860 0.930 . S
C1874 C1872 1.395 . S
C1874 C1877 1.403 . S
C1875 C1872 1.403 . S
C1875 C1876 1.524 . S
C1875 C1879 1.400 . S
C1876 H1861 0.960 . S
C1876 H1862 0.960 . S
C1876 H1863 0.960 . S
C1876 C1875 1.524 . S
C1877 C1874 1.403 . S
C1877 C1878 1.392 . S
C1877 C1881 1.495 . S
C1878 C1877 1.392 . S
C1878 C1879 1.385 . S
C1878 C1880 1.478 . S
C1879 H1873 0.930 . S
C1879 C1875 1.400 . S
C1879 C1878 1.385 . S
C1880 C1878 1.478 . S
C1880 C1882 1.381 . S
C1880 C1886 1.383 . S
C1881 C1877 1.495 . S
C1881 H1887 0.959 . S
C1881 H1888 0.961 . S
C1881 H1889 0.960 . S
C1882 C1880 1.381 . S
C1882 C1883 1.394 . S
C1882 H1890 0.930 . S
C1883 C1882 1.394 . S
C1883 C1884 1.383 . S
C1883 H1891 0.929 . S
C1884 C1883 1.383 . S
C1884 C1885 1.377 . S
C1885 H1869 0.930 . S
C1885 C1884 1.377 . S
C1885 C1886 1.379 . S
C1886 H1870 0.931 . S
C1886 C1880 1.383 . S
C1886 C1885 1.379 . S
H1887 C1881 0.959 . S
H1888 C1881 0.961 . S
H1889 C1881 0.960 . S
H1890 C1882 0.930 . S
H1891 C1883 0.929 . S
H1892 C1900 0.929 . S
H1893 C1902 0.930 . S
H1894 C1904 0.930 . S
H1895 C1907 0.929 . S
H1896 C1910 0.930 . S
H1897 C1912 0.960 . S
H1898 C1912 0.960 . S
H1899 C1912 0.960 . S
C1900 H1892 0.929 . S
C1900 C1901 1.377 . S
C1900 C1902 1.384 . S
C1901 C1900 1.377 . S
C1901 C1907 1.390 . S
C1902 H1893 0.930 . S
C1902 C1900 1.384 . S
C1902 C1903 1.372 . S
C1903 C1902 1.372 . S
C1903 C1904 1.400 . S
C1903 C1908 1.490 . S
C1904 H1894 0.930 . S
C1904 C1903 1.400 . S
C1904 C1907 1.386 . S
H1905 C1921 0.930 . S
H1906 C1922 0.931 . S
C1907 H1895 0.929 . S
C1907 C1901 1.390 . S
C1907 C1904 1.386 . S
C1908 C1903 1.490 . S
C1908 C1910 1.395 . S
C1908 C1911 1.403 . S
H1909 C1915 0.930 . S
C1910 H1896 0.930 . S
C1910 C1908 1.395 . S
C1910 C1913 1.403 . S
C1911 C1908 1.403 . S
C1911 C1912 1.524 . S
C1911 C1915 1.400 . S
C1912 H1897 0.960 . S
C1912 H1898 0.960 . S
C1912 H1899 0.960 . S
C1912 C1911 1.524 . S
C1913 C1910 1.403 . S
C1913 C1914 1.392 . S
C1913 C1917 1.495 . S
C1914 C1913 1.392 . S
C1914 C1915 1.385 . S
C1914 C1916 1.478 . S
C1915 H1909 0.930 . S
C1915 C1911 1.400 . S
C1915 C1914 1.385 . S
C1916 C1914 1.478 . S
C1916 C1918 1.381 . S
C1916 C1922 1.383 . S
C1917 C1913 1.495 . S
C1917 H1923 0.959 . S
C1917 H1924 0.961 . S
C1917 H1925 0.960 . S
C1918 C1916 1.381 . S
C1918 C1919 1.394 . S
C1918 H1926 0.930 . S
C1919 C1918 1.394 . S
C1919 C1920 1.383 . S
C1919 H1927 0.929 . S
C1920 C1919 1.383 . S
C1920 C1921 1.377 . S
C1921 H1905 0.930 . S
C1921 C1920 1.377 . S
C1921 C1922 1.379 . S
C1922 H1906 0.931 . S
C1922 C1916 1.383 . S
C1922 C1921 1.379 . S
H1923 C1917 0.959 . S
H1924 C1917 0.961 . S
H1925 C1917 0.960 . S
H1926 C1918 0.930 . S
H1927 C1919 0.929 . S
H1928 C1936 0.929 . S
H1929 C1938 0.930 . S
H1930 C1940 0.930 . S
H1931 C1943 0.929 . S
H1932 C1946 0.930 . S
H1933 C1948 0.960 . S
H1934 C1948 0.960 . S
H1935 C1948 0.960 . S
C1936 H1928 0.929 . S
C1936 C1937 1.377 . S
C1936 C1938 1.384 . S
C1937 C1936 1.377 . S
C1937 C1943 1.390 . S
C1938 H1929 0.930 . S
C1938 C1936 1.384 . S
C1938 C1939 1.372 . S
C1939 C1938 1.372 . S
C1939 C1940 1.400 . S
C1939 C1944 1.490 . S
C1940 H1930 0.930 . S
C1940 C1939 1.400 . S
C1940 C1943 1.386 . S
H1941 C1957 0.930 . S
H1942 C1958 0.931 . S
C1943 H1931 0.929 . S
C1943 C1937 1.390 . S
C1943 C1940 1.386 . S
C1944 C1939 1.490 . S
C1944 C1946 1.395 . S
C1944 C1947 1.403 . S
H1945 C1951 0.930 . S
C1946 H1932 0.930 . S
C1946 C1944 1.395 . S
C1946 C1949 1.403 . S
C1947 C1944 1.403 . S
C1947 C1948 1.524 . S
C1947 C1951 1.400 . S
C1948 H1933 0.960 . S
C1948 H1934 0.960 . S
C1948 H1935 0.960 . S
C1948 C1947 1.524 . S
C1949 C1946 1.403 . S
C1949 C1950 1.392 . S
C1949 C1953 1.495 . S
C1950 C1949 1.392 . S
C1950 C1951 1.385 . S
C1950 C1952 1.478 . S
C1951 H1945 0.930 . S
C1951 C1947 1.400 . S
C1951 C1950 1.385 . S
C1952 C1950 1.478 . S
C1952 C1954 1.381 . S
C1952 C1958 1.383 . S
C1953 C1949 1.495 . S
C1953 H1959 0.959 . S
C1953 H1960 0.961 . S
C1953 H1961 0.960 . S
C1954 C1952 1.381 . S
C1954 C1955 1.394 . S
C1954 H1962 0.930 . S
C1955 C1954 1.394 . S
C1955 C1956 1.383 . S
C1955 H1963 0.929 . S
C1956 C1955 1.383 . S
C1956 C1957 1.377 . S
C1957 H1941 0.930 . S
C1957 C1956 1.377 . S
C1957 C1958 1.379 . S
C1958 H1942 0.931 . S
C1958 C1952 1.383 . S
C1958 C1957 1.379 . S
H1959 C1953 0.959 . S
H1960 C1953 0.961 . S
H1961 C1953 0.960 . S
H1962 C1954 0.930 . S
H1963 C1955 0.929 . S
H1964 C1972 0.929 . S
H1965 C1974 0.930 . S
H1966 C1976 0.930 . S
H1967 C1979 0.929 . S
H1968 C1982 0.930 . S
H1969 C1984 0.960 . S
H1970 C1984 0.960 . S
H1971 C1984 0.960 . S
C1972 H1964 0.929 . S
C1972 C1973 1.377 . S
C1972 C1974 1.384 . S
C1973 C1972 1.377 . S
C1973 C1979 1.390 . S
C1974 H1965 0.930 . S
C1974 C1972 1.384 . S
C1974 C1975 1.372 . S
C1975 C1974 1.372 . S
C1975 C1976 1.400 . S
C1975 C1980 1.490 . S
C1976 H1966 0.930 . S
C1976 C1975 1.400 . S
C1976 C1979 1.386 . S
H1977 C1993 0.930 . S
H1978 C1994 0.931 . S
C1979 H1967 0.929 . S
C1979 C1973 1.390 . S
C1979 C1976 1.386 . S
C1980 C1975 1.490 . S
C1980 C1982 1.395 . S
C1980 C1983 1.403 . S
H1981 C1987 0.930 . S
C1982 H1968 0.930 . S
C1982 C1980 1.395 . S
C1982 C1985 1.403 . S
C1983 C1980 1.403 . S
C1983 C1984 1.524 . S
C1983 C1987 1.400 . S
C1984 H1969 0.960 . S
C1984 H1970 0.960 . S
C1984 H1971 0.960 . S
C1984 C1983 1.524 . S
C1985 C1982 1.403 . S
C1985 C1986 1.392 . S
C1985 C1989 1.495 . S
C1986 C1985 1.392 . S
C1986 C1987 1.385 . S
C1986 C1988 1.478 . S
C1987 H1981 0.930 . S
C1987 C1983 1.400 . S
C1987 C1986 1.385 . S
C1988 C1986 1.478 . S
C1988 C1990 1.381 . S
C1988 C1994 1.383 . S
C1989 C1985 1.495 . S
C1989 H1995 0.959 . S
C1989 H1996 0.961 . S
C1989 H1997 0.960 . S
C1990 C1988 1.381 . S
C1990 C1991 1.394 1_655 S
C1990 H1998 0.930 . S
C1991 C1990 1.394 1_455 S
C1991 C1992 1.383 . S
C1991 H1999 0.929 . S
C1992 C1991 1.383 . S
C1992 C1993 1.377 . S
C1993 H1977 0.930 . S
C1993 C1992 1.377 . S
C1993 C1994 1.379 1_455 S
C1994 H1978 0.931 . S
C1994 C1988 1.383 . S
C1994 C1993 1.379 1_655 S
H1995 C1989 0.959 . S
H1996 C1989 0.961 . S
H1997 C1989 0.960 . S
H1998 C1990 0.930 . S
H1999 C1991 0.929 . S
H2000 C2008 0.929 . S
H2001 C2010 0.930 . S
H2002 C2012 0.930 . S
H2003 C2015 0.929 . S
H2004 C2018 0.930 . S
H2005 C2020 0.960 . S
H2006 C2020 0.960 . S
H2007 C2020 0.960 . S
C2008 H2000 0.929 . S
C2008 C2009 1.377 . S
C2008 C2010 1.384 . S
C2009 C2008 1.377 . S
C2009 C2015 1.390 . S
C2010 H2001 0.930 . S
C2010 C2008 1.384 . S
C2010 C2011 1.372 . S
C2011 C2010 1.372 . S
C2011 C2012 1.400 . S
C2011 C2016 1.490 . S
C2012 H2002 0.930 . S
C2012 C2011 1.400 . S
C2012 C2015 1.386 . S
H2013 C2029 0.930 . S
H2014 C2030 0.931 . S
C2015 H2003 0.929 . S
C2015 C2009 1.390 . S
C2015 C2012 1.386 . S
C2016 C2011 1.490 . S
C2016 C2018 1.395 . S
C2016 C2019 1.403 . S
H2017 C2023 0.930 . S
C2018 H2004 0.930 . S
C2018 C2016 1.395 . S
C2018 C2021 1.403 . S
C2019 C2016 1.403 . S
C2019 C2020 1.524 . S
C2019 C2023 1.400 . S
C2020 H2005 0.960 . S
C2020 H2006 0.960 . S
C2020 H2007 0.960 . S
C2020 C2019 1.524 . S
C2021 C2018 1.403 . S
C2021 C2022 1.392 . S
C2021 C2025 1.495 . S
C2022 C2021 1.392 . S
C2022 C2023 1.385 . S
C2022 C2024 1.478 . S
C2023 H2017 0.930 . S
C2023 C2019 1.400 . S
C2023 C2022 1.385 . S
C2024 C2022 1.478 . S
C2024 C2026 1.381 . S
C2024 C2030 1.383 . S
C2025 C2021 1.495 . S
C2025 H2031 0.959 . S
C2025 H2032 0.961 . S
C2025 H2033 0.960 . S
C2026 C2024 1.381 . S
C2026 C2027 1.394 . S
C2026 H2034 0.930 . S
C2027 C2026 1.394 . S
C2027 C2028 1.383 . S
C2027 H2035 0.929 . S
C2028 C2027 1.383 . S
C2028 C2029 1.377 . S
C2029 H2013 0.930 . S
C2029 C2028 1.377 . S
C2029 C2030 1.379 . S
C2030 H2014 0.931 . S
C2030 C2024 1.383 . S
C2030 C2029 1.379 . S
H2031 C2025 0.959 . S
H2032 C2025 0.961 . S
H2033 C2025 0.960 . S
H2034 C2026 0.930 . S
H2035 C2027 0.929 . S
H2036 C2044 0.929 . S
H2037 C2046 0.930 . S
H2038 C2048 0.930 . S
H2039 C2051 0.929 . S
H2040 C2054 0.930 . S
H2041 C2056 0.960 . S
H2042 C2056 0.960 . S
H2043 C2056 0.960 . S
C2044 H2036 0.929 . S
C2044 C2045 1.377 . S
C2044 C2046 1.375 1_455 S
C2045 C2044 1.377 . S
C2045 C2051 1.397 . S
C2046 H2037 0.930 . S
C2046 C2044 1.375 1_655 S
C2046 C2047 1.381 . S
C2047 C2046 1.381 . S
C2047 C2048 1.400 . S
C2047 C2052 1.490 . S
C2048 H2038 0.930 . S
C2048 C2047 1.400 . S
C2048 C2051 1.378 1_655 S
H2049 C2065 0.930 . S
H2050 C2066 0.931 . S
C2051 H2039 0.929 . S
C2051 C2045 1.397 . S
C2051 C2048 1.378 1_455 S
C2052 C2047 1.490 . S
C2052 C2054 1.395 . S
C2052 C2055 1.403 . S
H2053 C2059 0.930 . S
C2054 H2040 0.930 . S
C2054 C2052 1.395 . S
C2054 C2057 1.403 . S
C2055 C2052 1.403 . S
C2055 C2056 1.524 . S
C2055 C2059 1.400 . S
C2056 H2041 0.960 . S
C2056 H2042 0.960 . S
C2056 H2043 0.960 . S
C2056 C2055 1.524 . S
C2057 C2054 1.403 . S
C2057 C2058 1.392 . S
C2057 C2061 1.495 . S
C2058 C2057 1.392 . S
C2058 C2059 1.385 . S
C2058 C2060 1.478 . S
C2059 H2053 0.930 . S
C2059 C2055 1.400 . S
C2059 C2058 1.385 . S
C2060 C2058 1.478 . S
C2060 C2062 1.381 . S
C2060 C2066 1.383 . S
C2061 C2057 1.495 . S
C2061 H2067 0.959 . S
C2061 H2068 0.961 . S
C2061 H2069 0.960 . S
C2062 C2060 1.381 . S
C2062 C2063 1.394 . S
C2062 H2070 0.930 . S
C2063 C2062 1.394 . S
C2063 C2064 1.383 . S
C2063 H2071 0.929 . S
C2064 C2063 1.383 . S
C2064 C2065 1.377 . S
C2065 H2049 0.930 . S
C2065 C2064 1.377 . S
C2065 C2066 1.379 . S
C2066 H2050 0.931 . S
C2066 C2060 1.383 . S
C2066 C2065 1.379 . S
H2067 C2061 0.959 . S
H2068 C2061 0.961 . S
H2069 C2061 0.960 . S
H2070 C2062 0.930 . S
H2071 C2063 0.929 . S
H2072 C2080 0.929 . S
H2073 C2082 0.930 . S
H2074 C2084 0.930 . S
H2075 C2087 0.929 . S
H2076 C2090 0.930 . S
H2077 C2092 0.960 . S
H2078 C2092 0.960 . S
H2079 C2092 0.960 . S
C2080 H2072 0.929 . S
C2080 C2081 1.377 . S
C2080 C2082 1.384 . S
C2081 C2080 1.377 . S
C2081 C2087 1.390 . S
C2082 H2073 0.930 . S
C2082 C2080 1.384 . S
C2082 C2083 1.372 . S
C2083 C2082 1.372 . S
C2083 C2084 1.400 . S
C2083 C2088 1.490 . S
C2084 H2074 0.930 . S
C2084 C2083 1.400 . S
C2084 C2087 1.386 . S
H2085 C2101 0.930 . S
H2086 C2102 0.931 . S
C2087 H2075 0.929 . S
C2087 C2081 1.390 . S
C2087 C2084 1.386 . S
C2088 C2083 1.490 . S
C2088 C2090 1.395 . S
C2088 C2091 1.403 . S
H2089 C2095 0.930 . S
C2090 H2076 0.930 . S
C2090 C2088 1.395 . S
C2090 C2093 1.403 . S
C2091 C2088 1.403 . S
C2091 C2092 1.524 . S
C2091 C2095 1.400 . S
C2092 H2077 0.960 . S
C2092 H2078 0.960 . S
C2092 H2079 0.960 . S
C2092 C2091 1.524 . S
C2093 C2090 1.403 . S
C2093 C2094 1.392 . S
C2093 C2097 1.495 . S
C2094 C2093 1.392 . S
C2094 C2095 1.385 . S
C2094 C2096 1.478 . S
C2095 H2089 0.930 . S
C2095 C2091 1.400 . S
C2095 C2094 1.385 . S
C2096 C2094 1.478 . S
C2096 C2098 1.381 . S
C2096 C2102 1.383 . S
C2097 C2093 1.495 . S
C2097 H2103 0.959 . S
C2097 H2104 0.961 . S
C2097 H2105 0.960 . S
C2098 C2096 1.381 . S
C2098 C2099 1.394 . S
C2098 H2106 0.930 . S
C2099 C2098 1.394 . S
C2099 C2100 1.383 . S
C2099 H2107 0.929 . S
C2100 C2099 1.383 . S
C2100 C2101 1.377 . S
C2101 H2085 0.930 . S
C2101 C2100 1.377 . S
C2101 C2102 1.379 . S
C2102 H2086 0.931 . S
C2102 C2096 1.383 . S
C2102 C2101 1.379 . S
H2103 C2097 0.959 . S
H2104 C2097 0.961 . S
H2105 C2097 0.960 . S
H2106 C2098 0.930 . S
H2107 C2099 0.929 . S
H2108 C2116 0.929 . S
H2109 C2118 0.930 . S
H2110 C2120 0.930 . S
H2111 C2123 0.929 . S
H2112 C2126 0.930 . S
H2113 C2128 0.960 . S
H2114 C2128 0.960 . S
H2115 C2128 0.960 . S
C2116 H2108 0.929 . S
C2116 C2117 1.377 . S
C2116 C2118 1.384 . S
C2117 C2116 1.377 . S
C2117 C2123 1.390 . S
C2118 H2109 0.930 . S
C2118 C2116 1.384 . S
C2118 C2119 1.372 . S
C2119 C2118 1.372 . S
C2119 C2120 1.400 . S
C2119 C2124 1.490 . S
C2120 H2110 0.930 . S
C2120 C2119 1.400 . S
C2120 C2123 1.386 . S
H2121 C2137 0.930 . S
H2122 C2138 0.931 . S
C2123 H2111 0.929 . S
C2123 C2117 1.390 . S
C2123 C2120 1.386 . S
C2124 C2119 1.490 . S
C2124 C2126 1.395 . S
C2124 C2127 1.403 . S
H2125 C2131 0.930 . S
C2126 H2112 0.930 . S
C2126 C2124 1.395 . S
C2126 C2129 1.403 . S
C2127 C2124 1.403 . S
C2127 C2128 1.524 . S
C2127 C2131 1.400 . S
C2128 H2113 0.960 . S
C2128 H2114 0.960 . S
C2128 H2115 0.960 . S
C2128 C2127 1.524 . S
C2129 C2126 1.403 . S
C2129 C2130 1.392 . S
C2129 C2133 1.495 . S
C2130 C2129 1.392 . S
C2130 C2131 1.385 . S
C2130 C2132 1.478 . S
C2131 H2125 0.930 . S
C2131 C2127 1.400 . S
C2131 C2130 1.385 . S
C2132 C2130 1.478 . S
C2132 C2134 1.381 . S
C2132 C2138 1.383 . S
C2133 C2129 1.495 . S
C2133 H2139 0.959 . S
C2133 H2140 0.961 . S
C2133 H2141 0.960 . S
C2134 C2132 1.381 . S
C2134 C2135 1.394 . S
C2134 H2142 0.930 . S
C2135 C2134 1.394 . S
C2135 C2136 1.383 . S
C2135 H2143 0.929 . S
C2136 C2135 1.383 . S
C2136 C2137 1.377 . S
C2137 H2121 0.930 . S
C2137 C2136 1.377 . S
C2137 C2138 1.379 . S
C2138 H2122 0.931 . S
C2138 C2132 1.383 . S
C2138 C2137 1.379 . S
H2139 C2133 0.959 . S
H2140 C2133 0.961 . S
H2141 C2133 0.960 . S
H2142 C2134 0.930 . S
H2143 C2135 0.929 . S
H2144 C2152 0.929 . S
H2145 C2154 0.930 . S
H2146 C2156 0.930 . S
H2147 C2159 0.929 . S
H2148 C2162 0.930 . S
H2149 C2164 0.960 . S
H2150 C2164 0.960 . S
H2151 C2164 0.960 . S
C2152 H2144 0.929 . S
C2152 C2153 1.377 . S
C2152 C2154 1.384 . S
C2153 C2152 1.377 . S
C2153 C2159 1.390 . S
C2154 H2145 0.930 . S
C2154 C2152 1.384 . S
C2154 C2155 1.372 . S
C2155 C2154 1.372 . S
C2155 C2156 1.400 . S
C2155 C2160 1.490 . S
C2156 H2146 0.930 . S
C2156 C2155 1.400 . S
C2156 C2159 1.386 . S
H2157 C2173 0.930 . S
H2158 C2174 0.931 . S
C2159 H2147 0.929 . S
C2159 C2153 1.390 . S
C2159 C2156 1.386 . S
C2160 C2155 1.490 . S
C2160 C2162 1.395 . S
C2160 C2163 1.403 . S
H2161 C2167 0.930 . S
C2162 H2148 0.930 . S
C2162 C2160 1.395 . S
C2162 C2165 1.403 . S
C2163 C2160 1.403 . S
C2163 C2164 1.524 . S
C2163 C2167 1.400 . S
C2164 H2149 0.960 . S
C2164 H2150 0.960 . S
C2164 H2151 0.960 . S
C2164 C2163 1.524 . S
C2165 C2162 1.403 . S
C2165 C2166 1.392 . S
C2165 C2169 1.495 . S
C2166 C2165 1.392 . S
C2166 C2167 1.385 . S
C2166 C2168 1.478 . S
C2167 H2161 0.930 . S
C2167 C2163 1.400 . S
C2167 C2166 1.385 . S
C2168 C2166 1.478 . S
C2168 C2170 1.381 . S
C2168 C2174 1.383 . S
C2169 C2165 1.495 . S
C2169 H2175 0.959 . S
C2169 H2176 0.961 . S
C2169 H2177 0.960 . S
C2170 C2168 1.381 . S
C2170 C2171 1.394 . S
C2170 H2178 0.930 . S
C2171 C2170 1.394 . S
C2171 C2172 1.383 . S
C2171 H2179 0.929 . S
C2172 C2171 1.383 . S
C2172 C2173 1.377 . S
C2173 H2157 0.930 . S
C2173 C2172 1.377 . S
C2173 C2174 1.379 . S
C2174 H2158 0.931 . S
C2174 C2168 1.383 . S
C2174 C2173 1.379 . S
H2175 C2169 0.959 . S
H2176 C2169 0.961 . S
H2177 C2169 0.960 . S
H2178 C2170 0.930 . S
H2179 C2171 0.929 . S
H2180 C2188 0.929 . S
H2181 C2190 0.930 . S
H2182 C2192 0.930 . S
H2183 C2195 0.929 . S
H2184 C2198 0.930 . S
H2185 C2200 0.960 . S
H2186 C2200 0.960 . S
H2187 C2200 0.960 . S
C2188 H2180 0.929 . S
C2188 C2189 1.377 . S
C2188 C2190 1.384 . S
C2189 C2188 1.377 . S
C2189 C2195 1.390 . S
C2190 H2181 0.930 . S
C2190 C2188 1.384 . S
C2190 C2191 1.372 . S
C2191 C2190 1.372 . S
C2191 C2192 1.400 . S
C2191 C2196 1.490 . S
C2192 H2182 0.930 . S
C2192 C2191 1.400 . S
C2192 C2195 1.386 . S
H2193 C2209 0.930 . S
H2194 C2210 0.931 . S
C2195 H2183 0.929 . S
C2195 C2189 1.390 . S
C2195 C2192 1.386 . S
C2196 C2191 1.490 . S
C2196 C2198 1.395 . S
C2196 C2199 1.403 . S
H2197 C2203 0.930 . S
C2198 H2184 0.930 . S
C2198 C2196 1.395 . S
C2198 C2201 1.403 . S
C2199 C2196 1.403 . S
C2199 C2200 1.524 . S
C2199 C2203 1.400 . S
C2200 H2185 0.960 . S
C2200 H2186 0.960 . S
C2200 H2187 0.960 . S
C2200 C2199 1.524 . S
C2201 C2198 1.403 . S
C2201 C2202 1.392 . S
C2201 C2205 1.495 . S
C2202 C2201 1.392 . S
C2202 C2203 1.385 . S
C2202 C2204 1.478 . S
C2203 H2197 0.930 . S
C2203 C2199 1.400 . S
C2203 C2202 1.385 . S
C2204 C2202 1.478 . S
C2204 C2206 1.381 . S
C2204 C2210 1.383 . S
C2205 C2201 1.495 . S
C2205 H2211 0.959 . S
C2205 H2212 0.961 . S
C2205 H2213 0.960 . S
C2206 C2204 1.381 . S
C2206 C2207 1.394 . S
C2206 H2214 0.930 . S
C2207 C2206 1.394 . S
C2207 C2208 1.383 . S
C2207 H2215 0.929 . S
C2208 C2207 1.383 . S
C2208 C2209 1.377 . S
C2209 H2193 0.930 . S
C2209 C2208 1.377 . S
C2209 C2210 1.379 . S
C2210 H2194 0.931 . S
C2210 C2204 1.383 . S
C2210 C2209 1.379 . S
H2211 C2205 0.959 . S
H2212 C2205 0.961 . S
H2213 C2205 0.960 . S
H2214 C2206 0.930 . S
H2215 C2207 0.929 . S
H2216 C2224 0.929 . S
H2217 C2226 0.930 . S
H2218 C2228 0.930 . S
H2219 C2231 0.929 . S
H2220 C2234 0.930 . S
H2221 C2236 0.960 . S
H2222 C2236 0.960 . S
H2223 C2236 0.960 . S
C2224 H2216 0.929 . S
C2224 C2225 1.377 . S
C2224 C2226 1.384 . S
C2225 C2224 1.377 . S
C2225 C2231 1.390 . S
C2226 H2217 0.930 . S
C2226 C2224 1.384 . S
C2226 C2227 1.372 . S
C2227 C2226 1.372 . S
C2227 C2228 1.400 . S
C2227 C2232 1.490 . S
C2228 H2218 0.930 . S
C2228 C2227 1.400 . S
C2228 C2231 1.386 . S
H2229 C2245 0.930 . S
H2230 C2246 0.931 . S
C2231 H2219 0.929 . S
C2231 C2225 1.390 . S
C2231 C2228 1.386 . S
C2232 C2227 1.490 . S
C2232 C2234 1.395 . S
C2232 C2235 1.403 . S
H2233 C2239 0.930 . S
C2234 H2220 0.930 . S
C2234 C2232 1.395 . S
C2234 C2237 1.403 . S
C2235 C2232 1.403 . S
C2235 C2236 1.524 . S
C2235 C2239 1.400 . S
C2236 H2221 0.960 . S
C2236 H2222 0.960 . S
C2236 H2223 0.960 . S
C2236 C2235 1.524 . S
C2237 C2234 1.403 . S
C2237 C2238 1.392 . S
C2237 C2241 1.495 . S
C2238 C2237 1.392 . S
C2238 C2239 1.385 . S
C2238 C2240 1.478 . S
C2239 H2233 0.930 . S
C2239 C2235 1.400 . S
C2239 C2238 1.385 . S
C2240 C2238 1.478 . S
C2240 C2242 1.381 . S
C2240 C2246 1.383 . S
C2241 C2237 1.495 . S
C2241 H2247 0.959 . S
C2241 H2248 0.961 . S
C2241 H2249 0.960 . S
C2242 C2240 1.381 . S
C2242 C2243 1.394 . S
C2242 H2250 0.930 . S
C2243 C2242 1.394 . S
C2243 C2244 1.383 . S
C2243 H2251 0.929 . S
C2244 C2243 1.383 . S
C2244 C2245 1.377 . S
C2245 H2229 0.930 . S
C2245 C2244 1.377 . S
C2245 C2246 1.379 . S
C2246 H2230 0.931 . S
C2246 C2240 1.383 . S
C2246 C2245 1.379 . S
H2247 C2241 0.959 . S
H2248 C2241 0.961 . S
H2249 C2241 0.960 . S
H2250 C2242 0.930 . S
H2251 C2243 0.929 . S
H2252 C2260 0.929 . S
H2253 C2262 0.930 . S
H2254 C2264 0.930 . S
H2255 C2267 0.929 . S
H2256 C2270 0.930 . S
H2257 C2272 0.960 . S
H2258 C2272 0.960 . S
H2259 C2272 0.960 . S
C2260 H2252 0.929 . S
C2260 C2261 1.377 . S
C2260 C2262 1.384 . S
C2261 C2260 1.377 . S
C2261 C2267 1.390 . S
C2262 H2253 0.930 . S
C2262 C2260 1.384 . S
C2262 C2263 1.372 . S
C2263 C2262 1.372 . S
C2263 C2264 1.400 . S
C2263 C2268 1.490 . S
C2264 H2254 0.930 . S
C2264 C2263 1.400 . S
C2264 C2267 1.386 . S
H2265 C2281 0.930 . S
H2266 C2282 0.931 . S
C2267 H2255 0.929 . S
C2267 C2261 1.390 . S
C2267 C2264 1.386 . S
C2268 C2263 1.490 . S
C2268 C2270 1.395 . S
C2268 C2271 1.403 1_556 S
H2269 C2275 0.930 . S
C2270 H2256 0.930 . S
C2270 C2268 1.395 . S
C2270 C2273 1.403 . S
C2271 C2268 1.403 1_554 S
C2271 C2272 1.524 . S
C2271 C2275 1.400 . S
C2272 H2257 0.960 . S
C2272 H2258 0.960 . S
C2272 H2259 0.960 . S
C2272 C2271 1.524 . S
C2273 C2270 1.403 . S
C2273 C2274 1.392 1_556 S
C2273 C2277 1.495 . S
C2274 C2273 1.392 1_554 S
C2274 C2275 1.385 . S
C2274 C2276 1.478 . S
C2275 H2269 0.930 . S
C2275 C2271 1.400 . S
C2275 C2274 1.385 . S
C2276 C2274 1.478 . S
C2276 C2278 1.381 . S
C2276 C2282 1.383 . S
C2277 C2273 1.495 . S
C2277 H2283 0.959 . S
C2277 H2284 0.961 . S
C2277 H2285 0.960 . S
C2278 C2276 1.381 . S
C2278 C2279 1.394 . S
C2278 H2286 0.930 . S
C2279 C2278 1.394 . S
C2279 C2280 1.383 . S
C2279 H2287 0.929 . S
C2280 C2279 1.383 . S
C2280 C2281 1.377 . S
C2281 H2265 0.930 . S
C2281 C2280 1.377 . S
C2281 C2282 1.379 . S
C2282 H2266 0.931 . S
C2282 C2276 1.383 . S
C2282 C2281 1.379 . S
H2283 C2277 0.959 . S
H2284 C2277 0.961 . S
H2285 C2277 0.960 . S
H2286 C2278 0.930 . S
H2287 C2279 0.929 . S
H2288 C2296 0.929 . S
H2289 C2298 0.930 . S
H2290 C2300 0.930 . S
H2291 C2303 0.929 . S
H2292 C2306 0.930 . S
H2293 C2308 0.960 . S
H2294 C2308 0.960 . S
H2295 C2308 0.960 . S
C2296 H2288 0.929 . S
C2296 C2297 1.377 . S
C2296 C2298 1.384 . S
C2297 C2296 1.377 . S
C2297 C2303 1.390 . S
C2298 H2289 0.930 . S
C2298 C2296 1.384 . S
C2298 C2299 1.372 . S
C2299 C2298 1.372 . S
C2299 C2300 1.400 . S
C2299 C2304 1.490 . S
C2300 H2290 0.930 . S
C2300 C2299 1.400 . S
C2300 C2303 1.386 . S
H2301 C2317 0.930 . S
H2302 C2318 0.931 . S
C2303 H2291 0.929 . S
C2303 C2297 1.390 . S
C2303 C2300 1.386 . S
C2304 C2299 1.490 . S
C2304 C2306 1.395 . S
C2304 C2307 1.403 . S
H2305 C2311 0.930 . S
C2306 H2292 0.930 . S
C2306 C2304 1.395 . S
C2306 C2309 1.403 . S
C2307 C2304 1.403 . S
C2307 C2308 1.524 . S
C2307 C2311 1.400 . S
C2308 H2293 0.960 . S
C2308 H2294 0.960 . S
C2308 H2295 0.960 . S
C2308 C2307 1.524 . S
C2309 C2306 1.403 . S
C2309 C2310 1.392 . S
C2309 C2313 1.495 . S
C2310 C2309 1.392 . S
C2310 C2311 1.385 . S
C2310 C2312 1.478 . S
C2311 H2305 0.930 . S
C2311 C2307 1.400 . S
C2311 C2310 1.385 . S
C2312 C2310 1.478 . S
C2312 C2314 1.381 . S
C2312 C2318 1.383 . S
C2313 C2309 1.495 . S
C2313 H2319 0.959 . S
C2313 H2320 0.961 . S
C2313 H2321 0.960 . S
C2314 C2312 1.381 . S
C2314 C2315 1.394 . S
C2314 H2322 0.930 . S
C2315 C2314 1.394 . S
C2315 C2316 1.383 . S
C2315 H2323 0.929 . S
C2316 C2315 1.383 . S
C2316 C2317 1.377 . S
C2317 H2301 0.930 . S
C2317 C2316 1.377 . S
C2317 C2318 1.379 . S
C2318 H2302 0.931 . S
C2318 C2312 1.383 . S
C2318 C2317 1.379 . S
H2319 C2313 0.959 . S
H2320 C2313 0.961 . S
H2321 C2313 0.960 . S
H2322 C2314 0.930 . S
H2323 C2315 0.929 . S
H2324 C2332 0.929 . S
H2325 C2334 0.930 . S
H2326 C2336 0.930 . S
H2327 C2339 0.929 . S
H2328 C2342 0.930 . S
H2329 C2344 0.960 . S
H2330 C2344 0.960 . S
H2331 C2344 0.960 . S
C2332 H2324 0.929 . S
C2332 C2333 1.377 . S
C2332 C2334 1.384 . S
C2333 C2332 1.377 . S
C2333 C2339 1.390 . S
C2334 H2325 0.930 . S
C2334 C2332 1.384 . S
C2334 C2335 1.372 . S
C2335 C2334 1.372 . S
C2335 C2336 1.400 . S
C2335 C2340 1.490 . S
C2336 H2326 0.930 . S
C2336 C2335 1.400 . S
C2336 C2339 1.386 . S
H2337 C2353 0.930 . S
H2338 C2354 0.931 . S
C2339 H2327 0.929 . S
C2339 C2333 1.390 . S
C2339 C2336 1.386 . S
C2340 C2335 1.490 . S
C2340 C2342 1.395 . S
C2340 C2343 1.403 . S
H2341 C2347 0.930 . S
C2342 H2328 0.930 . S
C2342 C2340 1.395 . S
C2342 C2345 1.403 . S
C2343 C2340 1.403 . S
C2343 C2344 1.524 . S
C2343 C2347 1.400 . S
C2344 H2329 0.960 . S
C2344 H2330 0.960 . S
C2344 H2331 0.960 . S
C2344 C2343 1.524 . S
C2345 C2342 1.403 . S
C2345 C2346 1.392 . S
C2345 C2349 1.495 . S
C2346 C2345 1.392 . S
C2346 C2347 1.385 . S
C2346 C2348 1.478 . S
C2347 H2341 0.930 . S
C2347 C2343 1.400 . S
C2347 C2346 1.385 . S
C2348 C2346 1.478 . S
C2348 C2350 1.381 . S
C2348 C2354 1.383 . S
C2349 C2345 1.495 . S
C2349 H2355 0.959 . S
C2349 H2356 0.961 . S
C2349 H2357 0.960 . S
C2350 C2348 1.381 . S
C2350 C2351 1.394 . S
C2350 H2358 0.930 . S
C2351 C2350 1.394 . S
C2351 C2352 1.383 . S
C2351 H2359 0.929 . S
C2352 C2351 1.383 . S
C2352 C2353 1.377 . S
C2353 H2337 0.930 . S
C2353 C2352 1.377 . S
C2353 C2354 1.379 . S
C2354 H2338 0.931 . S
C2354 C2348 1.383 . S
C2354 C2353 1.379 . S
H2355 C2349 0.959 . S
H2356 C2349 0.961 . S
H2357 C2349 0.960 . S
H2358 C2350 0.930 . S
H2359 C2351 0.929 . S
H2360 C2368 0.929 . S
H2361 C2370 0.930 . S
H2362 C2372 0.930 . S
H2363 C2375 0.929 . S
H2364 C2378 0.930 . S
H2365 C2380 0.960 . S
H2366 C2380 0.960 . S
H2367 C2380 0.960 . S
C2368 H2360 0.929 . S
C2368 C2369 1.377 . S
C2368 C2370 1.384 . S
C2369 C2368 1.377 . S
C2369 C2375 1.390 . S
C2370 H2361 0.930 . S
C2370 C2368 1.384 . S
C2370 C2371 1.372 . S
C2371 C2370 1.372 . S
C2371 C2372 1.400 . S
C2371 C2376 1.490 . S
C2372 H2362 0.930 . S
C2372 C2371 1.400 . S
C2372 C2375 1.386 . S
H2373 C2389 0.930 . S
H2374 C2390 0.931 . S
C2375 H2363 0.929 . S
C2375 C2369 1.390 . S
C2375 C2372 1.386 . S
C2376 C2371 1.490 . S
C2376 C2378 1.395 . S
C2376 C2379 1.403 . S
H2377 C2383 0.930 . S
C2378 H2364 0.930 . S
C2378 C2376 1.395 . S
C2378 C2381 1.403 . S
C2379 C2376 1.403 . S
C2379 C2380 1.524 . S
C2379 C2383 1.400 . S
C2380 H2365 0.960 . S
C2380 H2366 0.960 . S
C2380 H2367 0.960 . S
C2380 C2379 1.524 . S
C2381 C2378 1.403 . S
C2381 C2382 1.392 . S
C2381 C2385 1.495 . S
C2382 C2381 1.392 . S
C2382 C2383 1.385 . S
C2382 C2384 1.478 . S
C2383 H2377 0.930 . S
C2383 C2379 1.400 . S
C2383 C2382 1.385 . S
C2384 C2382 1.478 . S
C2384 C2386 1.381 . S
C2384 C2390 1.383 . S
C2385 C2381 1.495 . S
C2385 H2391 0.959 . S
C2385 H2392 0.961 . S
C2385 H2393 0.960 . S
C2386 C2384 1.381 . S
C2386 C2387 1.394 . S
C2386 H2394 0.930 . S
C2387 C2386 1.394 . S
C2387 C2388 1.383 . S
C2387 H2395 0.929 . S
C2388 C2387 1.383 . S
C2388 C2389 1.377 . S
C2389 H2373 0.930 . S
C2389 C2388 1.377 . S
C2389 C2390 1.379 . S
C2390 H2374 0.931 . S
C2390 C2384 1.383 . S
C2390 C2389 1.379 . S
H2391 C2385 0.959 . S
H2392 C2385 0.961 . S
H2393 C2385 0.960 . S
H2394 C2386 0.930 . S
H2395 C2387 0.929 . S
H2396 C2404 0.929 . S
H2397 C2406 0.930 . S
H2398 C2408 0.930 1_556 S
H2399 C2411 0.929 . S
H2400 C2414 0.930 . S
H2401 C2416 0.960 . S
H2402 C2416 0.960 . S
H2403 C2416 0.960 . S
C2404 H2396 0.929 . S
C2404 C2405 1.377 . S
C2404 C2406 1.384 . S
C2405 C2404 1.377 . S
C2405 C2411 1.390 . S
C2406 H2397 0.930 . S
C2406 C2404 1.384 . S
C2406 C2407 1.372 . S
C2407 C2406 1.372 . S
C2407 C2408 1.400 . S
C2407 C2412 1.490 . S
C2408 H2398 0.930 1_554 S
C2408 C2407 1.400 . S
C2408 C2411 1.386 . S
H2409 C2425 0.930 . S
H2410 C2426 0.931 . S
C2411 H2399 0.929 . S
C2411 C2405 1.390 . S
C2411 C2408 1.386 . S
C2412 C2407 1.490 . S
C2412 C2414 1.395 . S
C2412 C2415 1.403 1_554 S
H2413 C2419 0.930 . S
C2414 H2400 0.930 . S
C2414 C2412 1.395 . S
C2414 C2417 1.403 . S
C2415 C2412 1.403 1_556 S
C2415 C2416 1.524 . S
C2415 C2419 1.400 . S
C2416 H2401 0.960 . S
C2416 H2402 0.960 . S
C2416 H2403 0.960 . S
C2416 C2415 1.524 . S
C2417 C2414 1.403 . S
C2417 C2418 1.392 1_554 S
C2417 C2421 1.495 . S
C2418 C2417 1.392 1_556 S
C2418 C2419 1.385 . S
C2418 C2420 1.478 . S
C2419 H2413 0.930 . S
C2419 C2415 1.400 . S
C2419 C2418 1.385 . S
C2420 C2418 1.478 . S
C2420 C2422 1.381 . S
C2420 C2426 1.383 . S
C2421 C2417 1.495 . S
C2421 H2427 0.959 . S
C2421 H2428 0.961 . S
C2421 H2429 0.960 . S
C2422 C2420 1.381 . S
C2422 C2423 1.394 . S
C2422 H2430 0.930 1_556 S
C2423 C2422 1.394 . S
C2423 C2424 1.383 . S
C2423 H2431 0.929 . S
C2424 C2423 1.383 . S
C2424 C2425 1.377 . S
C2425 H2409 0.930 . S
C2425 C2424 1.377 . S
C2425 C2426 1.379 . S
C2426 H2410 0.931 . S
C2426 C2420 1.383 . S
C2426 C2425 1.379 . S
H2427 C2421 0.959 . S
H2428 C2421 0.961 . S
H2429 C2421 0.960 . S
H2430 C2422 0.930 1_554 S
H2431 C2423 0.929 . S
H2432 C2440 0.929 . S
H2433 C2442 0.930 . S
H2434 C2444 0.930 . S
H2435 C2447 0.929 . S
H2436 C2450 0.930 . S
H2437 C2452 0.960 . S
H2438 C2452 0.960 . S
H2439 C2452 0.960 . S
C2440 H2432 0.929 . S
C2440 C2441 1.377 . S
C2440 C2442 1.384 . S
C2441 C2440 1.377 . S
C2441 C2447 1.390 . S
C2442 H2433 0.930 . S
C2442 C2440 1.384 . S
C2442 C2443 1.372 . S
C2443 C2442 1.372 . S
C2443 C2444 1.400 . S
C2443 C2448 1.490 . S
C2444 H2434 0.930 . S
C2444 C2443 1.400 . S
C2444 C2447 1.386 . S
H2445 C2461 0.930 . S
H2446 C2462 0.931 . S
C2447 H2435 0.929 . S
C2447 C2441 1.390 . S
C2447 C2444 1.386 . S
C2448 C2443 1.490 . S
C2448 C2450 1.395 . S
C2448 C2451 1.403 . S
H2449 C2455 0.930 . S
C2450 H2436 0.930 . S
C2450 C2448 1.395 . S
C2450 C2453 1.403 1_565 S
C2451 C2448 1.403 . S
C2451 C2452 1.524 . S
C2451 C2455 1.400 1_565 S
C2452 H2437 0.960 . S
C2452 H2438 0.960 . S
C2452 H2439 0.960 . S
C2452 C2451 1.524 . S
C2453 C2450 1.403 1_545 S
C2453 C2454 1.392 . S
C2453 C2457 1.495 . S
C2454 C2453 1.392 . S
C2454 C2455 1.385 . S
C2454 C2456 1.478 . S
C2455 H2449 0.930 . S
C2455 C2451 1.400 1_545 S
C2455 C2454 1.385 . S
C2456 C2454 1.478 . S
C2456 C2458 1.381 . S
C2456 C2462 1.383 . S
C2457 C2453 1.495 . S
C2457 H2463 0.959 . S
C2457 H2464 0.961 . S
C2457 H2465 0.960 . S
C2458 C2456 1.381 . S
C2458 C2459 1.394 . S
C2458 H2466 0.930 . S
C2459 C2458 1.394 . S
C2459 C2460 1.383 . S
C2459 H2467 0.929 . S
C2460 C2459 1.383 . S
C2460 C2461 1.377 . S
C2461 H2445 0.930 . S
C2461 C2460 1.377 . S
C2461 C2462 1.379 . S
C2462 H2446 0.931 . S
C2462 C2456 1.383 . S
C2462 C2461 1.379 . S
H2463 C2457 0.959 . S
H2464 C2457 0.961 . S
H2465 C2457 0.960 . S
H2466 C2458 0.930 . S
H2467 C2459 0.929 . S
H2468 C2476 0.929 . S
H2469 C2478 0.930 . S
H2470 C2480 0.930 . S
H2471 C2483 0.929 . S
H2472 C2486 0.930 . S
H2473 C2488 0.960 . S
H2474 C2488 0.960 . S
H2475 C2488 0.960 . S
C2476 H2468 0.929 . S
C2476 C2477 1.377 . S
C2476 C2478 1.384 . S
C2477 C2476 1.377 . S
C2477 C2483 1.390 . S
C2478 H2469 0.930 . S
C2478 C2476 1.384 . S
C2478 C2479 1.372 . S
C2479 C2478 1.372 . S
C2479 C2480 1.400 . S
C2479 C2484 1.490 . S
C2480 H2470 0.930 . S
C2480 C2479 1.400 . S
C2480 C2483 1.386 . S
H2481 C2497 0.930 . S
H2482 C2498 0.931 . S
C2483 H2471 0.929 . S
C2483 C2477 1.390 . S
C2483 C2480 1.386 . S
C2484 C2479 1.490 . S
C2484 C2486 1.395 1_554 S
C2484 C2487 1.403 . S
H2485 C2491 0.930 . S
C2486 H2472 0.930 . S
C2486 C2484 1.395 1_556 S
C2486 C2489 1.403 . S
C2487 C2484 1.403 . S
C2487 C2488 1.524 . S
C2487 C2491 1.400 . S
C2488 H2473 0.960 . S
C2488 H2474 0.960 . S
C2488 H2475 0.960 . S
C2488 C2487 1.524 . S
C2489 C2486 1.403 . S
C2489 C2490 1.392 . S
C2489 C2493 1.495 . S
C2490 C2489 1.392 . S
C2490 C2491 1.385 1_556 S
C2490 C2492 1.478 . S
C2491 H2485 0.930 . S
C2491 C2487 1.400 . S
C2491 C2490 1.385 1_554 S
C2492 C2490 1.478 . S
C2492 C2494 1.381 . S
C2492 C2498 1.383 . S
C2493 C2489 1.495 . S
C2493 H2499 0.959 . S
C2493 H2500 0.961 . S
C2493 H2501 0.960 . S
C2494 C2492 1.381 . S
C2494 C2495 1.394 . S
C2494 H2502 0.930 . S
C2495 C2494 1.394 . S
C2495 C2496 1.383 . S
C2495 H2503 0.929 . S
C2496 C2495 1.383 . S
C2496 C2497 1.377 . S
C2497 H2481 0.930 . S
C2497 C2496 1.377 . S
C2497 C2498 1.379 . S
C2498 H2482 0.931 . S
C2498 C2492 1.383 . S
C2498 C2497 1.379 . S
H2499 C2493 0.959 . S
H2500 C2493 0.961 . S
H2501 C2493 0.960 . S
H2502 C2494 0.930 . S
H2503 C2495 0.929 . S
H2504 C2512 0.929 . S
H2505 C2514 0.930 . S
H2506 C2516 0.930 . S
H2507 C2519 0.929 . S
H2508 C2522 0.930 . S
H2509 C2524 0.960 . S
H2510 C2524 0.960 . S
H2511 C2524 0.960 . S
C2512 H2504 0.929 . S
C2512 C2513 1.377 . S
C2512 C2514 1.384 . S
C2513 C2512 1.377 . S
C2513 C2519 1.390 . S
C2514 H2505 0.930 . S
C2514 C2512 1.384 . S
C2514 C2515 1.372 . S
C2515 C2514 1.372 . S
C2515 C2516 1.400 . S
C2515 C2520 1.490 . S
C2516 H2506 0.930 . S
C2516 C2515 1.400 . S
C2516 C2519 1.386 . S
H2517 C2533 0.930 . S
H2518 C2534 0.931 . S
C2519 H2507 0.929 . S
C2519 C2513 1.390 . S
C2519 C2516 1.386 . S
C2520 C2515 1.490 . S
C2520 C2522 1.395 . S
C2520 C2523 1.403 . S
H2521 C2527 0.930 . S
C2522 H2508 0.930 . S
C2522 C2520 1.395 . S
C2522 C2525 1.403 1_545 S
C2523 C2520 1.403 . S
C2523 C2524 1.524 . S
C2523 C2527 1.400 1_545 S
C2524 H2509 0.960 . S
C2524 H2510 0.960 . S
C2524 H2511 0.960 . S
C2524 C2523 1.524 . S
C2525 C2522 1.403 1_565 S
C2525 C2526 1.392 . S
C2525 C2529 1.495 . S
C2526 C2525 1.392 . S
C2526 C2527 1.385 . S
C2526 C2528 1.478 . S
C2527 H2521 0.930 . S
C2527 C2523 1.400 1_565 S
C2527 C2526 1.385 . S
C2528 C2526 1.478 . S
C2528 C2530 1.381 . S
C2528 C2534 1.383 . S
C2529 C2525 1.495 . S
C2529 H2535 0.959 . S
C2529 H2536 0.961 . S
C2529 H2537 0.960 . S
C2530 C2528 1.381 . S
C2530 C2531 1.394 . S
C2530 H2538 0.930 . S
C2531 C2530 1.394 . S
C2531 C2532 1.383 . S
C2531 H2539 0.929 . S
C2532 C2531 1.383 . S
C2532 C2533 1.377 . S
C2533 H2517 0.930 . S
C2533 C2532 1.377 . S
C2533 C2534 1.379 . S
C2534 H2518 0.931 . S
C2534 C2528 1.383 . S
C2534 C2533 1.379 . S
H2535 C2529 0.959 . S
H2536 C2529 0.961 . S
H2537 C2529 0.960 . S
H2538 C2530 0.930 . S
H2539 C2531 0.929 . S
H2540 C2548 0.929 . S
H2541 C2550 0.930 . S
H2542 C2552 0.930 . S
H2543 C2555 0.929 . S
H2544 C2558 0.930 . S
H2545 C2560 0.960 . S
H2546 C2560 0.960 . S
H2547 C2560 0.960 . S
C2548 H2540 0.929 . S
C2548 C2549 1.377 . S
C2548 C2550 1.384 . S
C2549 C2548 1.377 . S
C2549 C2555 1.390 . S
C2550 H2541 0.930 . S
C2550 C2548 1.384 . S
C2550 C2551 1.372 . S
C2551 C2550 1.372 . S
C2551 C2552 1.400 . S
C2551 C2556 1.490 . S
C2552 H2542 0.930 . S
C2552 C2551 1.400 . S
C2552 C2555 1.386 . S
H2553 C2569 0.930 . S
H2554 C2570 0.931 . S
C2555 H2543 0.929 . S
C2555 C2549 1.390 . S
C2555 C2552 1.386 . S
C2556 C2551 1.490 . S
C2556 C2558 1.395 . S
C2556 C2559 1.403 . S
H2557 C2563 0.930 . S
C2558 H2544 0.930 . S
C2558 C2556 1.395 . S
C2558 C2561 1.403 . S
C2559 C2556 1.403 . S
C2559 C2560 1.524 . S
C2559 C2563 1.400 . S
C2560 H2545 0.960 . S
C2560 H2546 0.960 . S
C2560 H2547 0.960 . S
C2560 C2559 1.524 . S
C2561 C2558 1.403 . S
C2561 C2562 1.392 . S
C2561 C2565 1.495 . S
C2562 C2561 1.392 . S
C2562 C2563 1.385 . S
C2562 C2564 1.478 . S
C2563 H2557 0.930 . S
C2563 C2559 1.400 . S
C2563 C2562 1.385 . S
C2564 C2562 1.478 . S
C2564 C2566 1.381 . S
C2564 C2570 1.383 . S
C2565 C2561 1.495 . S
C2565 H2571 0.959 . S
C2565 H2572 0.961 . S
C2565 H2573 0.960 . S
C2566 C2564 1.381 . S
C2566 C2567 1.394 . S
C2566 H2574 0.930 . S
C2567 C2566 1.394 . S
C2567 C2568 1.383 . S
C2567 H2575 0.929 . S
C2568 C2567 1.383 . S
C2568 C2569 1.377 . S
C2569 H2553 0.930 . S
C2569 C2568 1.377 . S
C2569 C2570 1.379 . S
C2570 H2554 0.931 . S
C2570 C2564 1.383 . S
C2570 C2569 1.379 . S
H2571 C2565 0.959 . S
H2572 C2565 0.961 . S
H2573 C2565 0.960 . S
H2574 C2566 0.930 . S
H2575 C2567 0.929 . S
H2576 C2584 0.929 . S
H2577 C2586 0.930 . S
H2578 C2588 0.930 . S
H2579 C2591 0.929 . S
H2580 C2594 0.930 . S
H2581 C2596 0.960 . S
H2582 C2596 0.960 . S
H2583 C2596 0.960 . S
C2584 H2576 0.929 . S
C2584 C2585 1.377 . S
C2584 C2586 1.384 . S
C2585 C2584 1.377 . S
C2585 C2591 1.390 . S
C2586 H2577 0.930 . S
C2586 C2584 1.384 . S
C2586 C2587 1.372 . S
C2587 C2586 1.372 . S
C2587 C2588 1.400 . S
C2587 C2592 1.490 . S
C2588 H2578 0.930 . S
C2588 C2587 1.400 . S
C2588 C2591 1.386 . S
H2589 C2605 0.930 . S
H2590 C2606 0.931 . S
C2591 H2579 0.929 . S
C2591 C2585 1.390 . S
C2591 C2588 1.386 . S
C2592 C2587 1.490 . S
C2592 C2594 1.395 . S
C2592 C2595 1.403 . S
H2593 C2599 0.930 . S
C2594 H2580 0.930 . S
C2594 C2592 1.395 . S
C2594 C2597 1.403 1_545 S
C2595 C2592 1.403 . S
C2595 C2596 1.524 . S
C2595 C2599 1.400 1_545 S
C2596 H2581 0.960 . S
C2596 H2582 0.960 . S
C2596 H2583 0.960 . S
C2596 C2595 1.524 . S
C2597 C2594 1.403 1_565 S
C2597 C2598 1.392 . S
C2597 C2601 1.495 . S
C2598 C2597 1.392 . S
C2598 C2599 1.385 . S
C2598 C2600 1.478 . S
C2599 H2593 0.930 . S
C2599 C2595 1.400 1_565 S
C2599 C2598 1.385 . S
C2600 C2598 1.478 . S
C2600 C2602 1.381 . S
C2600 C2606 1.383 . S
C2601 C2597 1.495 . S
C2601 H2607 0.959 . S
C2601 H2608 0.961 . S
C2601 H2609 0.960 . S
C2602 C2600 1.381 . S
C2602 C2603 1.394 . S
C2602 H2610 0.930 . S
C2603 C2602 1.394 . S
C2603 C2604 1.383 . S
C2603 H2611 0.929 . S
C2604 C2603 1.383 . S
C2604 C2605 1.377 . S
C2605 H2589 0.930 . S
C2605 C2604 1.377 . S
C2605 C2606 1.379 . S
C2606 H2590 0.931 . S
C2606 C2600 1.383 . S
C2606 C2605 1.379 . S
H2607 C2601 0.959 . S
H2608 C2601 0.961 . S
H2609 C2601 0.960 . S
H2610 C2602 0.930 . S
H2611 C2603 0.929 . S
H2612 C2620 0.929 . S
H2613 C2622 0.930 . S
H2614 C2624 0.930 . S
H2615 C2627 0.929 . S
H2616 C2630 0.930 . S
H2617 C2632 0.960 . S
H2618 C2632 0.960 . S
H2619 C2632 0.960 . S
C2620 H2612 0.929 . S
C2620 C2621 1.377 . S
C2620 C2622 1.384 . S
C2621 C2620 1.377 . S
C2621 C2627 1.390 . S
C2622 H2613 0.930 . S
C2622 C2620 1.384 . S
C2622 C2623 1.372 . S
C2623 C2622 1.372 . S
C2623 C2624 1.400 . S
C2623 C2628 1.490 . S
C2624 H2614 0.930 . S
C2624 C2623 1.400 . S
C2624 C2627 1.386 . S
H2625 C2641 0.930 . S
H2626 C2642 0.931 . S
C2627 H2615 0.929 . S
C2627 C2621 1.390 . S
C2627 C2624 1.386 . S
C2628 C2623 1.490 . S
C2628 C2630 1.395 1_554 S
C2628 C2631 1.403 . S
H2629 C2635 0.930 . S
C2630 H2616 0.930 . S
C2630 C2628 1.395 1_556 S
C2630 C2633 1.403 . S
C2631 C2628 1.403 . S
C2631 C2632 1.524 . S
C2631 C2635 1.400 . S
C2632 H2617 0.960 . S
C2632 H2618 0.960 . S
C2632 H2619 0.960 . S
C2632 C2631 1.524 . S
C2633 C2630 1.403 . S
C2633 C2634 1.392 . S
C2633 C2637 1.495 . S
C2634 C2633 1.392 . S
C2634 C2635 1.385 1_556 S
C2634 C2636 1.478 . S
C2635 H2629 0.930 . S
C2635 C2631 1.400 . S
C2635 C2634 1.385 1_554 S
C2636 C2634 1.478 . S
C2636 C2638 1.381 . S
C2636 C2642 1.383 . S
C2637 C2633 1.495 . S
C2637 H2643 0.959 . S
C2637 H2644 0.961 . S
C2637 H2645 0.960 . S
C2638 C2636 1.381 . S
C2638 C2639 1.394 . S
C2638 H2646 0.930 . S
C2639 C2638 1.394 . S
C2639 C2640 1.383 . S
C2639 H2647 0.929 . S
C2640 C2639 1.383 . S
C2640 C2641 1.377 . S
C2641 H2625 0.930 . S
C2641 C2640 1.377 . S
C2641 C2642 1.379 . S
C2642 H2626 0.931 . S
C2642 C2636 1.383 . S
C2642 C2641 1.379 . S
H2643 C2637 0.959 . S
H2644 C2637 0.961 . S
H2645 C2637 0.960 . S
H2646 C2638 0.930 . S
H2647 C2639 0.929 . S
H2648 C2656 0.929 . S
H2649 C2658 0.930 . S
H2650 C2660 0.930 . S
H2651 C2663 0.929 . S
H2652 C2666 0.930 . S
H2653 C2668 0.960 1_565 S
H2654 C2668 0.960 . S
H2655 C2668 0.960 . S
C2656 H2648 0.929 . S
C2656 C2657 1.377 . S
C2656 C2658 1.384 . S
C2657 C2656 1.377 . S
C2657 C2663 1.390 . S
C2658 H2649 0.930 . S
C2658 C2656 1.384 . S
C2658 C2659 1.372 . S
C2659 C2658 1.372 . S
C2659 C2660 1.400 . S
C2659 C2664 1.490 . S
C2660 H2650 0.930 . S
C2660 C2659 1.400 . S
C2660 C2663 1.386 . S
H2661 C2677 0.930 . S
H2662 C2678 0.931 . S
C2663 H2651 0.929 . S
C2663 C2657 1.390 . S
C2663 C2660 1.386 . S
C2664 C2659 1.490 . S
C2664 C2666 1.395 . S
C2664 C2667 1.403 . S
H2665 C2671 0.930 . S
C2666 H2652 0.930 . S
C2666 C2664 1.395 . S
C2666 C2669 1.403 1_545 S
C2667 C2664 1.403 . S
C2667 C2668 1.524 . S
C2667 C2671 1.400 1_545 S
C2668 H2653 0.960 1_545 S
C2668 H2654 0.960 . S
C2668 H2655 0.960 . S
C2668 C2667 1.524 . S
C2669 C2666 1.403 1_565 S
C2669 C2670 1.392 . S
C2669 C2673 1.495 . S
C2670 C2669 1.392 . S
C2670 C2671 1.385 . S
C2670 C2672 1.478 . S
C2671 H2665 0.930 . S
C2671 C2667 1.400 1_565 S
C2671 C2670 1.385 . S
C2672 C2670 1.478 . S
C2672 C2674 1.381 . S
C2672 C2678 1.383 . S
C2673 C2669 1.495 . S
C2673 H2679 0.959 1_565 S
C2673 H2680 0.961 . S
C2673 H2681 0.960 . S
C2674 C2672 1.381 . S
C2674 C2675 1.394 . S
C2674 H2682 0.930 . S
C2675 C2674 1.394 . S
C2675 C2676 1.383 . S
C2675 H2683 0.929 . S
C2676 C2675 1.383 . S
C2676 C2677 1.377 . S
C2677 H2661 0.930 . S
C2677 C2676 1.377 . S
C2677 C2678 1.379 . S
C2678 H2662 0.931 . S
C2678 C2672 1.383 . S
C2678 C2677 1.379 . S
H2679 C2673 0.959 1_545 S
H2680 C2673 0.961 . S
H2681 C2673 0.960 . S
H2682 C2674 0.930 . S
H2683 C2675 0.929 . S
H2684 C2692 0.929 . S
H2685 C2694 0.930 . S
H2686 C2696 0.930 . S
H2687 C2699 0.929 . S
H2688 C2702 0.930 . S
H2689 C2704 0.960 . S
H2690 C2704 0.960 . S
H2691 C2704 0.960 . S
C2692 H2684 0.929 . S
C2692 C2693 1.377 . S
C2692 C2694 1.384 . S
C2693 C2692 1.377 . S
C2693 C2699 1.390 . S
C2694 H2685 0.930 . S
C2694 C2692 1.384 . S
C2694 C2695 1.372 . S
C2695 C2694 1.372 . S
C2695 C2696 1.400 . S
C2695 C2700 1.490 . S
C2696 H2686 0.930 . S
C2696 C2695 1.400 . S
C2696 C2699 1.386 . S
H2697 C2713 0.930 . S
H2698 C2714 0.931 . S
C2699 H2687 0.929 . S
C2699 C2693 1.390 . S
C2699 C2696 1.386 . S
C2700 C2695 1.490 . S
C2700 C2702 1.395 . S
C2700 C2703 1.403 . S
H2701 C2707 0.930 . S
C2702 H2688 0.930 . S
C2702 C2700 1.395 . S
C2702 C2705 1.403 . S
C2703 C2700 1.403 . S
C2703 C2704 1.524 . S
C2703 C2707 1.400 . S
C2704 H2689 0.960 . S
C2704 H2690 0.960 . S
C2704 H2691 0.960 . S
C2704 C2703 1.524 . S
C2705 C2702 1.403 . S
C2705 C2706 1.392 . S
C2705 C2709 1.495 . S
C2706 C2705 1.392 . S
C2706 C2707 1.385 . S
C2706 C2708 1.478 . S
C2707 H2701 0.930 . S
C2707 C2703 1.400 . S
C2707 C2706 1.385 . S
C2708 C2706 1.478 . S
C2708 C2710 1.381 . S
C2708 C2714 1.383 . S
C2709 C2705 1.495 . S
C2709 H2715 0.959 . S
C2709 H2716 0.961 . S
C2709 H2717 0.960 . S
C2710 C2708 1.381 . S
C2710 C2711 1.394 . S
C2710 H2718 0.930 . S
C2711 C2710 1.394 . S
C2711 C2712 1.383 . S
C2711 H2719 0.929 . S
C2712 C2711 1.383 . S
C2712 C2713 1.377 . S
C2713 H2697 0.930 . S
C2713 C2712 1.377 . S
C2713 C2714 1.379 . S
C2714 H2698 0.931 . S
C2714 C2708 1.383 . S
C2714 C2713 1.379 . S
H2715 C2709 0.959 . S
H2716 C2709 0.961 . S
H2717 C2709 0.960 . S
H2718 C2710 0.930 . S
H2719 C2711 0.929 . S
C425 C8 1.221 . S
C444 C281 1.208 . S
C461 C294 1.212 . S
C480 C21 1.235 . S
C497 C34 1.220 . S
C516 C307 1.245 . S
C533 C268 1.222 . S
C552 C47 1.227 . S
C569 C60 1.211 . S
C588 C255 1.229 . S
C605 C73 1.212 . S
C624 C216 1.178 . S
C641 C229 1.209 . S
C660 C86 1.182 . S
C677 C99 1.208 . S
C696 C242 1.212 . S
C713 C112 1.222 . S
C732 C385 1.242 . S
C749 C125 1.209 . S
C768 C398 1.214 . S
C785 C411 1.217 . S
C804 C138 1.190 . S
C821 C372 1.214 . S
C840 C151 1.181 . S
C857 C164 1.221 . S
C876 C359 1.245 . S
C893 C320 1.216 . S
C912 C177 1.243 . S
C929 C190 1.208 . S
C948 C333 1.187 . S
C965 C346 1.215 . S
C984 C203 1.184 . S
C1001 C5 0.897 . S
C1020 C127 0.952 . S
C1037 C18 0.915 . S
C1056 C348 0.943 . S
C1073 C153 0.948 . S
C1092 C31 0.955 . S
C1109 C44 0.911 . S
C1128 C322 0.950 . S
C1145 C57 0.916 . S
C1164 C205 0.935 . S
C1181 C374 0.954 . S
C1200 C70 0.867 . S
C1217 C179 0.953 . S
C1236 C83 0.848 . S
C1253 C400 0.951 . S
C1272 C96 0.865 . S
C1289 C109 0.914 . S
C1308 C23 0.940 . S
C1325 C244 0.953 . S
C1344 C122 0.877 . S
C1361 C49 0.953 . S
C1380 C135 0.936 . S
C1397 C148 0.894 . S
C1416 C218 0.956 . S
C1433 C101 0.949 . S
C1452 C161 0.939 . S
C1469 C270 0.953 . S
C1488 C174 0.951 . S
C1505 C75 0.954 . S
C1524 C187 0.891 . S
C1541 C200 0.917 . S
C1560 C296 0.946 . S
C1577 C335 0.951 . S
C1596 C213 0.873 . S
C1613 C140 0.948 . S
C1632 C226 0.928 . S
C1649 C361 0.948 . S
C1668 C239 0.958 . S
C1685 C252 0.893 . S
C1704 C114 0.960 . S
C1721 C413 0.948 . S
C1740 C265 0.962 . S
C1757 C166 0.953 . S
C1776 C278 0.844 . S
C1793 C387 0.950 . S
C1812 C291 0.943 . S
C1829 C304 0.917 . S
C1848 C192 0.936 . S
C1865 C317 0.898 . S
C1884 C231 0.961 . S
C1901 C36 0.949 . S
C1920 C330 0.855 . S
C1937 C343 0.912 . S
C1956 C257 0.962 . S
C1973 C356 0.893 . S
C1992 C10 0.949 . S
C2009 C369 0.906 . S
C2028 C309 0.935 . S
C2045 C62 0.949 . S
C2064 C382 0.948 . S
C2081 C283 0.949 . S
C2100 C395 0.856 . S
C2117 C408 0.907 . S
C2136 C88 0.935 . S
C2153 C0 1.104 . S
C2172 C52 1.136 . S
C2189 C13 1.112 . S
C2208 C65 1.099 . S
C2225 C78 1.111 . S
C2244 C26 1.121 . S
C2261 C91 1.098 . S
C2280 C39 1.088 . S
C2297 C156 1.109 . S
C2316 C104 1.073 . S
C2333 C169 1.102 . S
C2352 C117 1.129 . S
C2369 C182 1.099 . S
C2388 C130 1.136 . S
C2405 C195 1.112 . S
C2424 C143 1.079 . S
C2441 C208 1.108 . S
C2460 C260 1.073 . S
C2477 C221 1.110 . S
C2496 C273 1.128 . S
C2513 C234 1.106 . S
C2532 C286 1.069 . S
C2549 C299 1.112 . S
C2568 C247 1.095 . S
C2585 C312 1.109 . S
C2604 C364 1.095 . S
C2621 C377 1.100 . S
C2640 C325 1.113 . S
C2657 C390 1.105 . S
C2676 C338 1.086 . S
C2693 C403 1.106 . S
C2712 C351 1.083 . S
