# Generated by pormake.
# Topology twf-e, (6)-cn, num edge types: 1
# Building blocks:
#     Node 0, Type 0, BuildingBlock: BETDEL_clean_sbu_0, # of connection points: 6
#     Node 1, Type 0, BuildingBlock: BETDEL_clean_sbu_0, # of connection points: 6
#     Node 2, Type 0, BuildingBlock: BETDEL_clean_sbu_0, # of connection points: 6
#     Node 3, Type 0, BuildingBlock: BETDEL_clean_sbu_0, # of connection points: 6
#     Node 4, Type 0, BuildingBlock: BETDEL_clean_sbu_0, # of connection points: 6
#     Node 5, Type 0, BuildingBlock: BETDEL_clean_sbu_0, # of connection points: 6
#     Node 6, Type 0, BuildingBlock: BETDEL_clean_sbu_0, # of connection points: 6
#     Node 7, Type 0, BuildingBlock: BETDEL_clean_sbu_0, # of connection points: 6
#     Node 8, Type 0, BuildingBlock: BETDEL_clean_sbu_0, # of connection points: 6
#     Node 9, Type 0, BuildingBlock: BETDEL_clean_sbu_0, # of connection points: 6
#     Node 10, Type 0, BuildingBlock: BETDEL_clean_sbu_0, # of connection points: 6
#     Node 11, Type 0, BuildingBlock: BETDEL_clean_sbu_0, # of connection points: 6
#     Node 12, Type 0, BuildingBlock: BETDEL_clean_sbu_0, # of connection points: 6
#     Node 13, Type 0, BuildingBlock: BETDEL_clean_sbu_0, # of connection points: 6
#     Node 14, Type 0, BuildingBlock: BETDEL_clean_sbu_0, # of connection points: 6
#     Node 15, Type 0, BuildingBlock: BETDEL_clean_sbu_0, # of connection points: 6
#     Node 16, Type 0, BuildingBlock: BETDEL_clean_sbu_0, # of connection points: 6
#     Node 17, Type 0, BuildingBlock: BETDEL_clean_sbu_0, # of connection points: 6
#     Node 18, Type 0, BuildingBlock: BETDEL_clean_sbu_0, # of connection points: 6
#     Node 19, Type 0, BuildingBlock: BETDEL_clean_sbu_0, # of connection points: 6
#     Node 20, Type 0, BuildingBlock: BETDEL_clean_sbu_0, # of connection points: 6
#     Node 21, Type 0, BuildingBlock: BETDEL_clean_sbu_0, # of connection points: 6
#     Node 22, Type 0, BuildingBlock: BETDEL_clean_sbu_0, # of connection points: 6
#     Node 23, Type 0, BuildingBlock: BETDEL_clean_sbu_0, # of connection points: 6
#     Node 24, Type 0, BuildingBlock: BETDEL_clean_sbu_0, # of connection points: 6
#     Node 25, Type 0, BuildingBlock: BETDEL_clean_sbu_0, # of connection points: 6
#     Node 26, Type 0, BuildingBlock: BETDEL_clean_sbu_0, # of connection points: 6
#     Node 27, Type 0, BuildingBlock: BETDEL_clean_sbu_0, # of connection points: 6
#     Node 28, Type 0, BuildingBlock: BETDEL_clean_sbu_0, # of connection points: 6
#     Node 29, Type 0, BuildingBlock: BETDEL_clean_sbu_0, # of connection points: 6
#     Node 30, Type 0, BuildingBlock: BETDEL_clean_sbu_0, # of connection points: 6
#     Node 31, Type 0, BuildingBlock: BETDEL_clean_sbu_0, # of connection points: 6
#     Node 32, Type 0, BuildingBlock: BETDEL_clean_sbu_0, # of connection points: 6
#     Node 33, Type 0, BuildingBlock: BETDEL_clean_sbu_0, # of connection points: 6
#     Node 34, Type 0, BuildingBlock: BETDEL_clean_sbu_0, # of connection points: 6
#     Node 35, Type 0, BuildingBlock: BETDEL_clean_sbu_0, # of connection points: 6
#     Node 36, Type 0, BuildingBlock: BETDEL_clean_sbu_0, # of connection points: 6
#     Node 37, Type 0, BuildingBlock: BETDEL_clean_sbu_0, # of connection points: 6
#     Node 38, Type 0, BuildingBlock: BETDEL_clean_sbu_0, # of connection points: 6
#     Node 39, Type 0, BuildingBlock: BETDEL_clean_sbu_0, # of connection points: 6
#     Node 40, Type 0, BuildingBlock: BETDEL_clean_sbu_0, # of connection points: 6
#     Node 41, Type 0, BuildingBlock: BETDEL_clean_sbu_0, # of connection points: 6
#     Node 42, Type 0, BuildingBlock: BETDEL_clean_sbu_0, # of connection points: 6
#     Node 43, Type 0, BuildingBlock: BETDEL_clean_sbu_0, # of connection points: 6
#     Node 44, Type 0, BuildingBlock: BETDEL_clean_sbu_0, # of connection points: 6
#     Node 45, Type 0, BuildingBlock: BETDEL_clean_sbu_0, # of connection points: 6
#     Node 46, Type 0, BuildingBlock: BETDEL_clean_sbu_0, # of connection points: 6
#     Node 47, Type 0, BuildingBlock: BETDEL_clean_sbu_0, # of connection points: 6
#     Edge 48, Type (0, 0), BuildingBlock: KIFKEQ_clean_linker_1, # of connection points: 2
#     Edge 49, Type (0, 0), BuildingBlock: KIFKEQ_clean_linker_1, # of connection points: 2
#     Edge 50, Type (0, 0), BuildingBlock: KIFKEQ_clean_linker_1, # of connection points: 2
#     Edge 51, Type (0, 0), BuildingBlock: KIFKEQ_clean_linker_1, # of connection points: 2
#     Edge 52, Type (0, 0), BuildingBlock: KIFKEQ_clean_linker_1, # of connection points: 2
#     Edge 53, Type (0, 0), BuildingBlock: KIFKEQ_clean_linker_1, # of connection points: 2
#     Edge 54, Type (0, 0), BuildingBlock: KIFKEQ_clean_linker_1, # of connection points: 2
#     Edge 55, Type (0, 0), BuildingBlock: KIFKEQ_clean_linker_1, # of connection points: 2
#     Edge 56, Type (0, 0), BuildingBlock: KIFKEQ_clean_linker_1, # of connection points: 2
#     Edge 57, Type (0, 0), BuildingBlock: KIFKEQ_clean_linker_1, # of connection points: 2
#     Edge 58, Type (0, 0), BuildingBlock: KIFKEQ_clean_linker_1, # of connection points: 2
#     Edge 59, Type (0, 0), BuildingBlock: KIFKEQ_clean_linker_1, # of connection points: 2
#     Edge 60, Type (0, 0), BuildingBlock: KIFKEQ_clean_linker_1, # of connection points: 2
#     Edge 61, Type (0, 0), BuildingBlock: KIFKEQ_clean_linker_1, # of connection points: 2
#     Edge 62, Type (0, 0), BuildingBlock: KIFKEQ_clean_linker_1, # of connection points: 2
#     Edge 63, Type (0, 0), BuildingBlock: KIFKEQ_clean_linker_1, # of connection points: 2
#     Edge 64, Type (0, 0), BuildingBlock: KIFKEQ_clean_linker_1, # of connection points: 2
#     Edge 65, Type (0, 0), BuildingBlock: KIFKEQ_clean_linker_1, # of connection points: 2
#     Edge 66, Type (0, 0), BuildingBlock: KIFKEQ_clean_linker_1, # of connection points: 2
#     Edge 67, Type (0, 0), BuildingBlock: KIFKEQ_clean_linker_1, # of connection points: 2
#     Edge 68, Type (0, 0), BuildingBlock: KIFKEQ_clean_linker_1, # of connection points: 2
#     Edge 69, Type (0, 0), BuildingBlock: KIFKEQ_clean_linker_1, # of connection points: 2
#     Edge 70, Type (0, 0), BuildingBlock: KIFKEQ_clean_linker_1, # of connection points: 2
#     Edge 71, Type (0, 0), BuildingBlock: KIFKEQ_clean_linker_1, # of connection points: 2
#     Edge 72, Type (0, 0), BuildingBlock: KIFKEQ_clean_linker_1, # of connection points: 2
#     Edge 73, Type (0, 0), BuildingBlock: KIFKEQ_clean_linker_1, # of connection points: 2
#     Edge 74, Type (0, 0), BuildingBlock: KIFKEQ_clean_linker_1, # of connection points: 2
#     Edge 75, Type (0, 0), BuildingBlock: KIFKEQ_clean_linker_1, # of connection points: 2
#     Edge 76, Type (0, 0), BuildingBlock: KIFKEQ_clean_linker_1, # of connection points: 2
#     Edge 77, Type (0, 0), BuildingBlock: KIFKEQ_clean_linker_1, # of connection points: 2
#     Edge 78, Type (0, 0), BuildingBlock: KIFKEQ_clean_linker_1, # of connection points: 2
#     Edge 79, Type (0, 0), BuildingBlock: KIFKEQ_clean_linker_1, # of connection points: 2
#     Edge 80, Type (0, 0), BuildingBlock: KIFKEQ_clean_linker_1, # of connection points: 2
#     Edge 81, Type (0, 0), BuildingBlock: KIFKEQ_clean_linker_1, # of connection points: 2
#     Edge 82, Type (0, 0), BuildingBlock: KIFKEQ_clean_linker_1, # of connection points: 2
#     Edge 83, Type (0, 0), BuildingBlock: KIFKEQ_clean_linker_1, # of connection points: 2
#     Edge 84, Type (0, 0), BuildingBlock: KIFKEQ_clean_linker_1, # of connection points: 2
#     Edge 85, Type (0, 0), BuildingBlock: KIFKEQ_clean_linker_1, # of connection points: 2
#     Edge 86, Type (0, 0), BuildingBlock: KIFKEQ_clean_linker_1, # of connection points: 2
#     Edge 87, Type (0, 0), BuildingBlock: KIFKEQ_clean_linker_1, # of connection points: 2
#     Edge 88, Type (0, 0), BuildingBlock: KIFKEQ_clean_linker_1, # of connection points: 2
#     Edge 89, Type (0, 0), BuildingBlock: KIFKEQ_clean_linker_1, # of connection points: 2
#     Edge 90, Type (0, 0), BuildingBlock: KIFKEQ_clean_linker_1, # of connection points: 2
#     Edge 91, Type (0, 0), BuildingBlock: KIFKEQ_clean_linker_1, # of connection points: 2
#     Edge 92, Type (0, 0), BuildingBlock: KIFKEQ_clean_linker_1, # of connection points: 2
#     Edge 93, Type (0, 0), BuildingBlock: KIFKEQ_clean_linker_1, # of connection points: 2
#     Edge 94, Type (0, 0), BuildingBlock: KIFKEQ_clean_linker_1, # of connection points: 2
#     Edge 95, Type (0, 0), BuildingBlock: KIFKEQ_clean_linker_1, # of connection points: 2
#     Edge 96, Type (0, 0), BuildingBlock: KIFKEQ_clean_linker_1, # of connection points: 2
#     Edge 97, Type (0, 0), BuildingBlock: KIFKEQ_clean_linker_1, # of connection points: 2
#     Edge 98, Type (0, 0), BuildingBlock: KIFKEQ_clean_linker_1, # of connection points: 2
#     Edge 99, Type (0, 0), BuildingBlock: KIFKEQ_clean_linker_1, # of connection points: 2
#     Edge 100, Type (0, 0), BuildingBlock: KIFKEQ_clean_linker_1, # of connection points: 2
#     Edge 101, Type (0, 0), BuildingBlock: KIFKEQ_clean_linker_1, # of connection points: 2
#     Edge 102, Type (0, 0), BuildingBlock: KIFKEQ_clean_linker_1, # of connection points: 2
#     Edge 103, Type (0, 0), BuildingBlock: KIFKEQ_clean_linker_1, # of connection points: 2
#     Edge 104, Type (0, 0), BuildingBlock: KIFKEQ_clean_linker_1, # of connection points: 2
#     Edge 105, Type (0, 0), BuildingBlock: KIFKEQ_clean_linker_1, # of connection points: 2
#     Edge 106, Type (0, 0), BuildingBlock: KIFKEQ_clean_linker_1, # of connection points: 2
#     Edge 107, Type (0, 0), BuildingBlock: KIFKEQ_clean_linker_1, # of connection points: 2
#     Edge 108, Type (0, 0), BuildingBlock: KIFKEQ_clean_linker_1, # of connection points: 2
#     Edge 109, Type (0, 0), BuildingBlock: KIFKEQ_clean_linker_1, # of connection points: 2
#     Edge 110, Type (0, 0), BuildingBlock: KIFKEQ_clean_linker_1, # of connection points: 2
#     Edge 111, Type (0, 0), BuildingBlock: KIFKEQ_clean_linker_1, # of connection points: 2
#     Edge 112, Type (0, 0), BuildingBlock: KIFKEQ_clean_linker_1, # of connection points: 2
#     Edge 113, Type (0, 0), BuildingBlock: KIFKEQ_clean_linker_1, # of connection points: 2
#     Edge 114, Type (0, 0), BuildingBlock: KIFKEQ_clean_linker_1, # of connection points: 2
#     Edge 115, Type (0, 0), BuildingBlock: KIFKEQ_clean_linker_1, # of connection points: 2
#     Edge 116, Type (0, 0), BuildingBlock: KIFKEQ_clean_linker_1, # of connection points: 2
#     Edge 117, Type (0, 0), BuildingBlock: KIFKEQ_clean_linker_1, # of connection points: 2
#     Edge 118, Type (0, 0), BuildingBlock: KIFKEQ_clean_linker_1, # of connection points: 2
#     Edge 119, Type (0, 0), BuildingBlock: KIFKEQ_clean_linker_1, # of connection points: 2
#     Edge 120, Type (0, 0), BuildingBlock: KIFKEQ_clean_linker_1, # of connection points: 2
#     Edge 121, Type (0, 0), BuildingBlock: KIFKEQ_clean_linker_1, # of connection points: 2
#     Edge 122, Type (0, 0), BuildingBlock: KIFKEQ_clean_linker_1, # of connection points: 2
#     Edge 123, Type (0, 0), BuildingBlock: KIFKEQ_clean_linker_1, # of connection points: 2
#     Edge 124, Type (0, 0), BuildingBlock: KIFKEQ_clean_linker_1, # of connection points: 2
#     Edge 125, Type (0, 0), BuildingBlock: KIFKEQ_clean_linker_1, # of connection points: 2
#     Edge 126, Type (0, 0), BuildingBlock: KIFKEQ_clean_linker_1, # of connection points: 2
#     Edge 127, Type (0, 0), BuildingBlock: KIFKEQ_clean_linker_1, # of connection points: 2
#     Edge 128, Type (0, 0), BuildingBlock: KIFKEQ_clean_linker_1, # of connection points: 2
#     Edge 129, Type (0, 0), BuildingBlock: KIFKEQ_clean_linker_1, # of connection points: 2
#     Edge 130, Type (0, 0), BuildingBlock: KIFKEQ_clean_linker_1, # of connection points: 2
#     Edge 131, Type (0, 0), BuildingBlock: KIFKEQ_clean_linker_1, # of connection points: 2
#     Edge 132, Type (0, 0), BuildingBlock: KIFKEQ_clean_linker_1, # of connection points: 2
#     Edge 133, Type (0, 0), BuildingBlock: KIFKEQ_clean_linker_1, # of connection points: 2
#     Edge 134, Type (0, 0), BuildingBlock: KIFKEQ_clean_linker_1, # of connection points: 2
#     Edge 135, Type (0, 0), BuildingBlock: KIFKEQ_clean_linker_1, # of connection points: 2
#     Edge 136, Type (0, 0), BuildingBlock: KIFKEQ_clean_linker_1, # of connection points: 2
#     Edge 137, Type (0, 0), BuildingBlock: KIFKEQ_clean_linker_1, # of connection points: 2
#     Edge 138, Type (0, 0), BuildingBlock: KIFKEQ_clean_linker_1, # of connection points: 2
#     Edge 139, Type (0, 0), BuildingBlock: KIFKEQ_clean_linker_1, # of connection points: 2
#     Edge 140, Type (0, 0), BuildingBlock: KIFKEQ_clean_linker_1, # of connection points: 2
#     Edge 141, Type (0, 0), BuildingBlock: KIFKEQ_clean_linker_1, # of connection points: 2
#     Edge 142, Type (0, 0), BuildingBlock: KIFKEQ_clean_linker_1, # of connection points: 2
#     Edge 143, Type (0, 0), BuildingBlock: KIFKEQ_clean_linker_1, # of connection points: 2
#     Edge 144, Type (0, 0), BuildingBlock: KIFKEQ_clean_linker_1, # of connection points: 2
#     Edge 145, Type (0, 0), BuildingBlock: KIFKEQ_clean_linker_1, # of connection points: 2
#     Edge 146, Type (0, 0), BuildingBlock: KIFKEQ_clean_linker_1, # of connection points: 2
#     Edge 147, Type (0, 0), BuildingBlock: KIFKEQ_clean_linker_1, # of connection points: 2
#     Edge 148, Type (0, 0), BuildingBlock: KIFKEQ_clean_linker_1, # of connection points: 2
#     Edge 149, Type (0, 0), BuildingBlock: KIFKEQ_clean_linker_1, # of connection points: 2
#     Edge 150, Type (0, 0), BuildingBlock: KIFKEQ_clean_linker_1, # of connection points: 2
#     Edge 151, Type (0, 0), BuildingBlock: KIFKEQ_clean_linker_1, # of connection points: 2
#     Edge 152, Type (0, 0), BuildingBlock: KIFKEQ_clean_linker_1, # of connection points: 2
#     Edge 153, Type (0, 0), BuildingBlock: KIFKEQ_clean_linker_1, # of connection points: 2
#     Edge 154, Type (0, 0), BuildingBlock: KIFKEQ_clean_linker_1, # of connection points: 2
#     Edge 155, Type (0, 0), BuildingBlock: KIFKEQ_clean_linker_1, # of connection points: 2
#     Edge 156, Type (0, 0), BuildingBlock: KIFKEQ_clean_linker_1, # of connection points: 2
#     Edge 157, Type (0, 0), BuildingBlock: KIFKEQ_clean_linker_1, # of connection points: 2
#     Edge 158, Type (0, 0), BuildingBlock: KIFKEQ_clean_linker_1, # of connection points: 2
#     Edge 159, Type (0, 0), BuildingBlock: KIFKEQ_clean_linker_1, # of connection points: 2
#     Edge 160, Type (0, 0), BuildingBlock: KIFKEQ_clean_linker_1, # of connection points: 2
#     Edge 161, Type (0, 0), BuildingBlock: KIFKEQ_clean_linker_1, # of connection points: 2
#     Edge 162, Type (0, 0), BuildingBlock: KIFKEQ_clean_linker_1, # of connection points: 2
#     Edge 163, Type (0, 0), BuildingBlock: KIFKEQ_clean_linker_1, # of connection points: 2
#     Edge 164, Type (0, 0), BuildingBlock: KIFKEQ_clean_linker_1, # of connection points: 2
#     Edge 165, Type (0, 0), BuildingBlock: KIFKEQ_clean_linker_1, # of connection points: 2
#     Edge 166, Type (0, 0), BuildingBlock: KIFKEQ_clean_linker_1, # of connection points: 2
#     Edge 167, Type (0, 0), BuildingBlock: KIFKEQ_clean_linker_1, # of connection points: 2
#     Edge 168, Type (0, 0), BuildingBlock: KIFKEQ_clean_linker_1, # of connection points: 2
#     Edge 169, Type (0, 0), BuildingBlock: KIFKEQ_clean_linker_1, # of connection points: 2
#     Edge 170, Type (0, 0), BuildingBlock: KIFKEQ_clean_linker_1, # of connection points: 2
#     Edge 171, Type (0, 0), BuildingBlock: KIFKEQ_clean_linker_1, # of connection points: 2
#     Edge 172, Type (0, 0), BuildingBlock: KIFKEQ_clean_linker_1, # of connection points: 2
#     Edge 173, Type (0, 0), BuildingBlock: KIFKEQ_clean_linker_1, # of connection points: 2
#     Edge 174, Type (0, 0), BuildingBlock: KIFKEQ_clean_linker_1, # of connection points: 2
#     Edge 175, Type (0, 0), BuildingBlock: KIFKEQ_clean_linker_1, # of connection points: 2
#     Edge 176, Type (0, 0), BuildingBlock: KIFKEQ_clean_linker_1, # of connection points: 2
#     Edge 177, Type (0, 0), BuildingBlock: KIFKEQ_clean_linker_1, # of connection points: 2
#     Edge 178, Type (0, 0), BuildingBlock: KIFKEQ_clean_linker_1, # of connection points: 2
#     Edge 179, Type (0, 0), BuildingBlock: KIFKEQ_clean_linker_1, # of connection points: 2
#     Edge 180, Type (0, 0), BuildingBlock: KIFKEQ_clean_linker_1, # of connection points: 2
#     Edge 181, Type (0, 0), BuildingBlock: KIFKEQ_clean_linker_1, # of connection points: 2
#     Edge 182, Type (0, 0), BuildingBlock: KIFKEQ_clean_linker_1, # of connection points: 2
#     Edge 183, Type (0, 0), BuildingBlock: KIFKEQ_clean_linker_1, # of connection points: 2
#     Edge 184, Type (0, 0), BuildingBlock: KIFKEQ_clean_linker_1, # of connection points: 2
#     Edge 185, Type (0, 0), BuildingBlock: KIFKEQ_clean_linker_1, # of connection points: 2
#     Edge 186, Type (0, 0), BuildingBlock: KIFKEQ_clean_linker_1, # of connection points: 2
#     Edge 187, Type (0, 0), BuildingBlock: KIFKEQ_clean_linker_1, # of connection points: 2
#     Edge 188, Type (0, 0), BuildingBlock: KIFKEQ_clean_linker_1, # of connection points: 2
#     Edge 189, Type (0, 0), BuildingBlock: KIFKEQ_clean_linker_1, # of connection points: 2
#     Edge 190, Type (0, 0), BuildingBlock: KIFKEQ_clean_linker_1, # of connection points: 2
#     Edge 191, Type (0, 0), BuildingBlock: KIFKEQ_clean_linker_1, # of connection points: 2
# Relax obj value: 0.611
# Max RMSD: 0.222
# Mean RMSD: 0.211
data_MOF--net-twf-e--node1-BETDEL_clean_sbu_0--edge1-KIFKEQ_clean_linker_1
_symmetry_space_group_name_H-M    P1
_symmetry_Int_Tables_number       1
_symmetry_cell_setting            triclinic
loop_
_symmetry_equiv_pos_as_xyz
'x, y, z'
_cell_length_a     60.801471
_cell_length_b     60.74681
_cell_length_c     60.766075
_cell_angle_alpha  89.134835
_cell_angle_beta   89.894304
_cell_angle_gamma 90.44111
loop_
_atom_site_label
_atom_site_type_symbol
_atom_site_fract_x
_atom_site_fract_y
_atom_site_fract_z
_atom_type_partial_charge
Dy0 Dy 0.99264 0.18847 0.39291 0.0
C1 C 0.05039 0.25211 0.38835 0.0
C2 C 0.96552 0.15194 0.39178 0.0
Dy3 Dy 0.02004 0.21939 0.39152 0.0
O4 O 0.96267 0.16999 0.38064 0.0
O5 O 0.9836 0.15354 0.40281 0.0
O6 O 0.98022 0.19679 0.42668 0.0
O7 O 0.01407 0.19891 0.42173 0.0
C8 C 0.99882 0.20074 0.43611 0.0
C9 C 1.00894 0.21499 0.34854 0.0
O10 O 0.04289 0.19208 0.40021 0.0
O11 O 0.02168 0.1699 0.38008 0.0
O12 O 0.05166 0.23315 0.3794 0.0
O13 O 0.03289 0.25312 0.40064 0.0
O14 O 0.02861 0.21358 0.35615 0.0
O15 O 0.99581 0.21315 0.36483 0.0
O16 O 0.9673 0.21345 0.38725 0.0
O17 O 0.99066 0.24045 0.39833 0.0
C18 C 0.04072 0.17367 0.38948 0.0
C19 C 0.97071 0.23391 0.3928 0.0
Dy20 Dy 0.83407 0.98535 0.42169 0.0
C21 C 0.76384 0.03814 0.42248 0.0
C22 C 0.86727 0.95445 0.41904 0.0
Dy23 Dy 0.80158 1.01376 0.42166 0.0
O24 O 0.84849 0.95172 0.42879 0.0
O25 O 0.86815 0.97432 0.4108 0.0
O26 O 0.82205 0.97212 0.45502 0.0
O27 O 0.82227 1.0057 0.4502 0.0
C28 C 0.81848 0.99074 0.46438 0.0
C29 C 0.81344 0.01405 0.37937 0.0
O30 O 0.82891 0.039 0.42419 0.0
O31 O 0.85611 0.01419 0.41738 0.0
O32 O 0.76811 0.02234 0.4093 0.0
O33 O 0.77958 0.03902 0.43689 0.0
O34 O 0.81155 0.03146 0.39112 0.0
O35 O 0.81376 0.99696 0.39211 0.0
O36 O 0.81066 0.96632 0.40222 0.0
O37 O 0.78255 0.98117 0.42082 0.0
C38 C 0.84982 0.03458 0.42025 0.0
C39 C 0.78987 0.96581 0.40757 0.0
Dy40 Dy 0.03542 0.82522 0.40302 0.0
C41 C 0.99779 0.7507 0.42543 0.0
C42 C 0.06224 0.8613 0.39525 0.0
Dy43 Dy 1.01063 0.79127 0.40861 0.0
O44 O 0.06744 0.84359 0.40599 0.0
O45 O 0.04209 0.85944 0.38837 0.0
O46 O 0.0508 0.81957 0.43687 0.0
O47 O 0.0171 0.81578 0.43445 0.0
C48 C 0.03311 0.81517 0.44791 0.0
C49 C 1.01271 0.79515 0.36414 0.0
O50 O 0.98439 0.8169 0.41494 0.0
O51 O 1.00433 0.84326 0.39693 0.0
O52 O 0.98486 0.76645 0.4189 0.0
O53 O 0.01764 0.7571 0.42117 0.0
O54 O 0.99516 0.79059 0.3754 0.0
O55 O 0.02851 0.79925 0.37736 0.0
O56 O 0.05718 0.80072 0.38824 0.0
O57 O 0.04519 0.78 0.41594 0.0
C58 C 0.98577 0.83696 0.4062 0.0
C59 C 0.06148 0.7852 0.40253 0.0
Dy60 Dy 0.19448 0.03062 0.40953 0.0
C61 C 0.22656 0.95967 0.44055 0.0
C62 C 0.16299 0.06169 0.39914 0.0
Dy63 Dy 0.21813 0.99725 0.41807 0.0
O64 O 0.18408 0.06472 0.39745 0.0
O65 O 0.15933 0.04185 0.40624 0.0
O66 O 0.20273 0.04453 0.44332 0.0
O67 O 0.19495 1.01158 0.44131 0.0
C68 C 0.20013 0.02655 0.45467 0.0
C69 C 0.23486 1.00747 0.3788 0.0
O70 O 0.19099 0.97736 0.40408 0.0
O71 O 0.16884 1.00652 0.39791 0.0
O72 O 0.22255 0.96078 0.41967 0.0
O73 O 0.22857 0.97927 0.44856 0.0
O74 O 0.24522 0.9977 0.3949 0.0
O75 O 0.21427 1.01155 0.38369 0.0
O76 O 0.22556 0.04688 0.40092 0.0
O77 O 0.24364 0.02373 0.42432 0.0
C78 C 0.17217 0.98522 0.39749 0.0
C79 C 0.24349 0.04157 0.41158 0.0
Dy80 Dy 0.01601 0.82575 0.66353 0.0
C81 C 0.07706 0.76082 0.6617 0.0
C82 C 0.98496 0.85794 0.67112 0.0
Dy83 Dy 0.04779 0.79523 0.66315 0.0
O84 O 0.98361 0.84263 0.65656 0.0
O85 O 1.00342 0.85576 0.68161 0.0
O86 O 1.00504 0.8183 0.62905 0.0
O87 O 0.03875 0.81763 0.6351 0.0
C88 C 0.02407 0.81483 0.62025 0.0
C89 C 0.03677 0.80116 0.70613 0.0
O90 O 0.0712 0.82426 0.66254 0.0
O91 O 0.04414 0.84884 0.67014 0.0
O92 O 0.0626 0.76412 0.6768 0.0
O93 O 0.0745 0.77592 0.64658 0.0
O94 O 0.05655 0.80231 0.69826 0.0
O95 O 0.0235 0.80083 0.68995 0.0
O96 O 0.99703 0.79616 0.67401 0.0
O97 O 0.01851 0.77492 0.65277 0.0
C98 C 0.06513 0.84447 0.66729 0.0
C99 C 0.99978 0.77778 0.66326 0.0
Dy100 Dy 0.20056 1.0102 0.67176 0.0
C101 C 0.23574 0.08134 0.64466 0.0
C102 C 0.17427 0.97283 0.67818 0.0
Dy103 Dy 0.22119 0.04424 0.66554 0.0
O104 O 0.19351 0.97352 0.66909 0.0
O105 O 0.16961 0.99255 0.68455 0.0
O106 O 0.2112 0.99882 0.63759 0.0
O107 O 0.19978 0.03039 0.64026 0.0
C108 C 0.20633 0.01641 0.62654 0.0
C109 C 0.23712 0.03767 0.70581 0.0
O110 O 0.19211 0.06206 0.67798 0.0
O111 O 0.17108 0.03125 0.67822 0.0
O112 O 0.21945 0.0805 0.65832 0.0
O113 O 0.24425 0.06203 0.64244 0.0
O114 O 0.24604 0.04935 0.69019 0.0
O115 O 0.21814 0.02906 0.7 0.0
O116 O 0.23134 0.99681 0.6848 0.0
O117 O 0.24699 0.01882 0.65916 0.0
C118 C 0.17286 0.05265 0.68055 0.0
C119 C 0.24868 1.00231 0.67333 0.0
Dy120 Dy 0.01804 0.19024 0.65283 0.0
C121 C 0.9491 0.237 0.62767 0.0
C122 C 0.0482 0.15909 0.66595 0.0
Dy123 Dy 0.98475 0.21654 0.64463 0.0
O124 O 0.03429 0.1572 0.65003 0.0
O125 O 0.04575 0.17817 0.67493 0.0
O126 O 0.03023 0.19242 0.61768 0.0
O127 O 0.99636 0.19065 0.6228 0.0
C128 C 1.01126 0.19277 0.60804 0.0
C129 C 0.99479 0.22339 0.68788 0.0
O130 O 0.96638 0.18464 0.64537 0.0
O131 O 0.99099 0.16949 0.66845 0.0
O132 O 0.95007 0.22792 0.64695 0.0
O133 O 0.96844 0.23701 0.61863 0.0
O134 O 0.97533 0.22081 0.67983 0.0
O135 O 1.0088 0.22017 0.6725 0.0
O136 O 0.03909 0.21981 0.64728 0.0
O137 O 1.01103 0.23894 0.63091 0.0
C138 C 0.97136 0.169 0.65948 0.0
C139 C 0.03213 0.23683 0.63558 0.0
Dy140 Dy 0.80387 0.03431 0.67055 0.0
C141 C 0.86453 0.97118 0.69014 0.0
C142 C 0.77793 0.06364 0.64834 0.0
Dy143 Dy 0.83272 1.0023 0.68011 0.0
O144 O 0.78947 0.06783 0.66567 0.0
O145 O 0.7792 0.0428 0.64425 0.0
O146 O 0.80127 0.04852 0.70413 0.0
O147 O 0.8055 0.01443 0.70227 0.0
C148 C 0.80192 0.0303 0.71542 0.0
C149 C 0.82542 1.00443 0.63525 0.0
O150 O 0.8024 0.9839 0.68984 0.0
O151 O 0.78248 1.00464 0.66585 0.0
O152 O 0.8449 0.96728 0.68301 0.0
O153 O 0.86663 0.99227 0.69277 0.0
O154 O 0.82744 0.98675 0.647 0.0
O155 O 0.82837 0.02072 0.64789 0.0
O156 O 0.8352 0.0532 0.66515 0.0
O157 O 0.85488 0.03117 0.68792 0.0
C158 C 0.78494 0.98614 0.67725 0.0
C159 C 0.85316 0.04973 0.67661 0.0
Dy160 Dy 0.39284 0.01906 0.2311 0.0
C161 C 0.39103 0.07928 0.29675 0.0
C162 C 0.38932 0.9882 0.19786 0.0
Dy163 Dy 0.39134 0.04992 0.26247 0.0
O164 O 0.40356 0.98818 0.21367 0.0
O165 O 0.37663 1.00513 0.20026 0.0
O166 O 0.42783 1.01033 0.23904 0.0
O167 O 0.41974 0.04355 0.24003 0.0
C168 C 0.43548 0.02982 0.24278 0.0
C169 C 0.34915 0.03626 0.25597 0.0
O170 O 0.39051 0.07403 0.2341 0.0
O171 O 0.3839 0.04747 0.20873 0.0
O172 O 0.3762 0.06465 0.29264 0.0
O173 O 0.40691 0.07661 0.28274 0.0
O174 O 0.35585 0.05652 0.25508 0.0
O175 O 0.36608 0.02398 0.25606 0.0
O176 O 0.38386 0.99852 0.2603 0.0
O177 O 0.40368 0.02096 0.28219 0.0
C178 C 0.38558 0.06844 0.2138 0.0
C179 C 0.39471 1.00151 0.27874 0.0
Dy180 Dy 1.01052 0.3866 0.20843 0.0
C181 C 0.9605 0.40072 0.27756 0.0
C182 C 0.04074 0.38114 0.17487 0.0
Dy183 Dy 0.98102 0.38832 0.23936 0.0
O184 O 0.02077 0.37339 0.17492 0.0
O185 O 0.04403 0.39128 0.19309 0.0
O186 O 0.02241 0.42156 0.21375 0.0
O187 O 0.98882 0.41578 0.2159 0.0
C188 C 1.0037 0.43058 0.2176 0.0
C189 C 0.98942 0.34461 0.23688 0.0
O190 O 0.95664 0.3918 0.2119 0.0
O191 O 0.9813 0.37978 0.18672 0.0
O192 O 0.95186 0.40071 0.25805 0.0
O193 O 0.97953 0.39162 0.276 0.0
O194 O 0.97008 0.3533 0.23774 0.0
O195 O 1.00381 0.36 0.23435 0.0
O196 O 0.03244 0.3791 0.23651 0.0
O197 O 1.01113 0.40223 0.25518 0.0
C198 C 0.9611 0.38571 0.19167 0.0
C199 C 0.03028 0.39273 0.25281 0.0
Dy200 Dy 0.65217 0.05369 0.23623 0.0
C201 C 0.62556 1.01161 0.30437 0.0
C202 C 0.65545 0.08493 0.20262 0.0
Dy203 Dy 0.64641 0.02803 0.26734 0.0
O204 O 0.65946 0.06405 0.20053 0.0
O205 O 0.65026 0.08844 0.22287 0.0
O206 O 0.61808 0.06727 0.24544 0.0
O207 O 0.62094 0.03391 0.24262 0.0
C208 C 0.60709 0.049 0.2454 0.0
C209 C 0.69038 0.02623 0.26547 0.0
O210 O 0.64142 1.00375 0.2397 0.0
O211 O 0.66187 0.02498 0.21653 0.0
O212 O 0.63924 1.00109 0.29199 0.0
O213 O 0.62501 0.0317 0.29708 0.0
O214 O 0.67744 1.00967 0.26946 0.0
O215 O 0.67919 0.04358 0.26074 0.0
O216 O 0.67116 0.07336 0.25973 0.0
O217 O 0.64491 0.06214 0.28239 0.0
C218 C 0.65248 1.00596 0.22103 0.0
C219 C 0.6596 0.07739 0.27718 0.0
Dy220 Dy 0.99107 0.64716 0.21213 0.0
C221 C 0.0503 0.63207 0.27502 0.0
C222 C 0.96174 0.65656 0.17908 0.0
Dy223 Dy 0.02083 0.64268 0.24275 0.0
O224 O 0.95667 0.65098 0.19908 0.0
O225 O 0.98296 0.65685 0.17692 0.0
O226 O 0.97653 0.61329 0.21952 0.0
O227 O 1.01036 0.61644 0.22015 0.0
C228 C 0.99464 0.60273 0.22264 0.0
C229 C 0.0197 0.68654 0.23617 0.0
O230 O 0.04369 0.64038 0.2136 0.0
O231 O 0.01912 0.6564 0.1904 0.0
O232 O 0.04226 0.65129 0.27116 0.0
O233 O 0.04047 0.61815 0.26233 0.0
O234 O 0.03748 0.67494 0.23645 0.0
O235 O 1.00305 0.67359 0.23506 0.0
O236 O 0.97228 0.66233 0.23883 0.0
O237 O 0.99067 0.64302 0.26491 0.0
C238 C 0.03908 0.6494 0.19428 0.0
C239 C 0.97395 0.65567 0.25935 0.0
Dy240 Dy 0.38517 0.05676 0.86574 0.0
C241 C 0.38941 0.98706 0.8151 0.0
C242 C 0.37555 0.08959 0.89571 0.0
Dy243 Dy 0.38706 0.02271 0.84129 0.0
O244 O 0.38648 0.09211 0.87756 0.0
O245 O 0.36929 0.06919 0.89724 0.0
O246 O 0.42076 0.06666 0.8633 0.0
O247 O 0.41394 0.03301 0.86397 0.0
C248 C 0.42929 0.04737 0.86171 0.0
C249 C 0.34417 0.03581 0.83904 0.0
O250 O 0.39439 1.00536 0.8726 0.0
O251 O 0.37369 0.03011 0.89 0.0
O252 O 0.38294 0.98676 0.8353 0.0
O253 O 0.39568 1.00674 0.80927 0.0
O254 O 0.3508 0.01654 0.84496 0.0
O255 O 0.36091 0.04862 0.83891 0.0
O256 O 0.38644 0.07454 0.83336 0.0
O257 O 0.40417 0.04561 0.81841 0.0
C258 C 0.38328 1.01076 0.89006 0.0
C259 C 0.39894 0.06652 0.81772 0.0
Dy260 Dy 0.98961 0.38359 0.84044 0.0
C261 C 0.02112 0.41284 0.77032 0.0
C262 C 0.96164 0.3787 0.87616 0.0
Dy263 Dy 1.01137 0.39044 0.80835 0.0
O264 O 0.9568 0.38633 0.85691 0.0
O265 O 0.98233 0.37329 0.87627 0.0
O266 O 0.97658 0.4189 0.83612 0.0
O267 O 1.00984 0.41481 0.83416 0.0
C268 C 0.99507 0.42928 0.83419 0.0
C269 C 1.01086 0.34668 0.80479 0.0
O270 O 0.03861 0.3939 0.83381 0.0
O271 O 0.0197 0.3724 0.85786 0.0
O272 O 0.03391 0.39868 0.78004 0.0
O273 O 1.00333 0.41469 0.78168 0.0
O274 O 0.0277 0.35932 0.80097 0.0
O275 O 0.99491 0.35764 0.81344 0.0
O276 O 0.96328 0.37005 0.81982 0.0
O277 O 0.97658 0.39504 0.79622 0.0
C278 C 0.03817 0.38236 0.85245 0.0
C279 C 0.96017 0.38223 0.80242 0.0
Dy280 Dy 0.63905 1.00839 0.84797 0.0
C281 C 0.65282 0.07622 0.89806 0.0
C282 C 0.62155 0.96956 0.83564 0.0
Dy283 Dy 0.64548 0.04187 0.86952 0.0
O284 O 0.641 0.97207 0.84374 0.0
O285 O 0.61194 0.98845 0.833 0.0
O286 O 0.66373 1.00672 0.82227 0.0
O287 O 0.67334 0.02278 0.85246 0.0
C288 C 0.67929 0.01687 0.83265 0.0
C289 C 0.60061 0.03779 0.86191 0.0
O290 O 0.65773 0.05659 0.83888 0.0
O291 O 0.63388 0.03413 0.82144 0.0
O292 O 0.65182 0.07798 0.87682 0.0
O293 O 0.65036 0.05571 0.90357 0.0
O294 O 0.61235 0.05524 0.85829 0.0
O295 O 0.6135 0.02288 0.8687 0.0
O296 O 0.64787 0.98979 0.87821 0.0
O297 O 0.65501 0.02004 0.89807 0.0
C298 C 0.64752 0.05116 0.82087 0.0
C299 C 0.65371 0.99857 0.89678 0.0
Dy300 Dy 0.02948 0.64231 0.85659 0.0
C301 C 0.97079 0.64971 0.79045 0.0
C302 C 0.06141 0.64643 0.88868 0.0
Dy303 Dy 0.99979 0.64529 0.82487 0.0
O304 O 0.06266 0.63444 0.87133 0.0
O305 O 0.04236 0.65599 0.88887 0.0
O306 O 0.03849 0.60736 0.8488 0.0
O307 O 1.00547 0.61557 0.84605 0.0
C308 C 0.01924 0.59998 0.84359 0.0
C309 C 1.01267 0.68722 0.83256 0.0
O310 O 0.97511 0.64425 0.85254 0.0
O311 O 1.00096 0.65047 0.87885 0.0
O312 O 0.98695 0.66268 0.79479 0.0
O313 O 0.97205 0.63297 0.80393 0.0
O314 O 0.9926 0.68015 0.83394 0.0
O315 O 0.02515 0.67047 0.83265 0.0
O316 O 0.05037 0.65305 0.82856 0.0
O317 O 0.02887 0.63472 0.80459 0.0
C318 C 0.98011 0.64851 0.87317 0.0
C319 C 0.04797 0.64385 0.8093 0.0
Dy320 Dy 0.18019 0.40428 1.00995 0.0
C321 C 0.22853 0.40951 0.08214 0.0
C322 C 0.1511 0.39762 0.97533 0.0
Dy323 Dy 0.20484 0.4054 0.04475 0.0
O324 O 0.16982 0.40786 0.97412 0.0
O325 O 0.14827 0.39089 0.9955 0.0
O326 O 0.18842 0.43987 1.00072 0.0
O327 O 0.18358 0.43268 0.0337 0.0
C328 C 0.18861 0.4481 0.0202 0.0
C329 C 0.20441 0.36197 0.03417 0.0
O330 O 0.17253 0.41233 0.06047 0.0
O331 O 0.15532 0.39212 0.03504 0.0
O332 O 0.21021 0.39899 0.08044 0.0
O333 O 0.23412 0.41837 0.06332 0.0
O334 O 0.20006 0.36973 0.05327 0.0
O335 O 0.20459 0.37804 0.02039 0.0
O336 O 0.21164 0.39595 0.99393 0.0
O337 O 0.23083 0.41475 0.01961 0.0
C338 C 0.15515 0.40103 0.05458 0.0
C339 C 0.2299 0.40586 0.99993 0.0
Dy340 Dy 0.19306 0.66416 0.04946 0.0
C341 C 0.26045 0.63353 0.03438 0.0
C342 C 0.15723 0.66505 0.07713 0.0
Dy343 Dy 0.22382 0.65838 0.03251 0.0
O344 O 0.15656 0.67018 0.05622 0.0
O345 O 0.17703 0.65968 0.08235 0.0
O346 O 0.19957 0.62886 0.06316 0.0
O347 O 0.19845 0.63306 0.02998 0.0
C348 C 0.19873 0.61841 0.04478 0.0
C349 C 0.23146 0.70093 0.0283 0.0
O350 O 0.20136 0.65573 1.00249 0.0
O351 O 0.17559 0.67541 0.01967 0.0
O352 O 0.25552 0.6466 0.0179 0.0
O353 O 0.24494 0.63332 0.04886 0.0
O354 O 0.23795 0.68638 0.01428 0.0
O355 O 0.21827 0.69269 0.04319 0.0
O356 O 0.20762 0.68349 0.07598 0.0
O357 O 0.23412 0.66022 0.06846 0.0
C358 C 0.18252 0.6665 1.00156 0.0
C359 C 0.22586 0.67461 0.08196 0.0
Dy360 Dy 0.37203 0.22215 0.06459 0.0
C361 C 0.39905 0.28648 0.0147 0.0
C362 C 0.36799 0.18884 0.09627 0.0
Dy363 Dy 0.37797 0.25225 0.03568 0.0
O364 O 0.37729 0.20781 0.09862 0.0
O365 O 0.36011 0.18798 0.0764 0.0
O366 O 0.40603 0.23065 0.0782 0.0
O367 O 0.40317 0.22815 0.04468 0.0
C368 C 0.41691 0.23146 0.06 0.0
C369 C 0.33367 0.25139 0.03744 0.0
O370 O 0.38308 0.22375 1.01311 0.0
O371 O 0.36377 0.20082 0.03573 0.0
O372 O 0.38341 0.27457 1.00642 0.0
O373 O 0.4019 0.28031 0.03491 0.0
O374 O 0.34538 0.25316 0.0197 0.0
O375 O 0.34621 0.24766 0.05416 0.0
O376 O 0.35877 0.2481 0.08592 0.0
O377 O 0.38103 0.27118 0.06699 0.0
C378 C 0.37289 0.20477 0.01639 0.0
C379 C 0.36953 0.2668 0.08491 0.0
Dy380 Dy 0.79296 0.41349 0.06407 0.0
C381 C 0.8479 0.39921 0.99597 0.0
C382 C 0.76833 0.41548 0.10214 0.0
Dy383 Dy 0.81823 0.41007 0.02855 0.0
O384 O 0.76964 0.39901 0.08914 0.0
O385 O 0.77817 0.43194 0.09227 0.0
O386 O 0.80171 0.37866 0.07377 0.0
O387 O 0.79463 0.38504 0.04116 0.0
C388 C 0.79713 0.36965 0.05517 0.0
C389 C 0.80814 0.45384 0.03242 0.0
O390 O 0.78544 0.39986 0.01539 0.0
O391 O 0.7668 0.42129 0.03939 0.0
O392 O 0.83241 0.41364 0.99414 0.0
O393 O 0.84696 0.3904 0.0155 0.0
O394 O 0.80911 0.44292 0.01436 0.0
O395 O 0.81324 0.44081 0.04853 0.0
O396 O 0.82453 0.41783 0.08224 0.0
O397 O 0.84421 0.40328 0.05438 0.0
C398 C 0.76715 0.41006 0.02105 0.0
C399 C 0.84305 0.40978 0.0749 0.0
Dy400 Dy 0.65033 0.86285 0.06628 0.0
C401 C 0.63785 0.811 0.99722 0.0
C402 C 0.65531 0.89202 0.10045 0.0
Dy403 Dy 0.64786 0.83674 0.03215 0.0
O404 O 0.64767 0.87213 0.10213 0.0
O405 O 0.66066 0.89594 0.08008 0.0
O406 O 0.61633 0.85194 0.07779 0.0
O407 O 0.62089 0.85741 0.04447 0.0
C408 C 0.60669 0.85175 0.0589 0.0
C409 C 0.6916 0.84137 0.0377 0.0
O410 O 0.64927 0.86775 1.01239 0.0
O411 O 0.65874 0.88922 0.04132 0.0
O412 O 0.65505 0.80893 1.00944 0.0
O413 O 0.62525 0.82577 1.00556 0.0
O414 O 0.68143 0.84415 0.01921 0.0
O415 O 0.6774 0.84084 0.05333 0.0
O416 O 0.66415 0.83319 0.08224 0.0
O417 O 0.64455 0.81133 0.05936 0.0
C418 C 0.65561 0.8868 0.02011 0.0
C419 C 0.65606 0.81372 0.07759 0.0
Dy420 Dy 0.80172 0.67102 0.98936 0.0
C421 C 0.84922 0.67561 0.05916 0.0
C422 C 0.79056 0.67093 0.946 0.0
Dy423 Dy 0.82197 0.66934 0.02365 0.0
O424 O 0.80424 0.68432 0.95503 0.0
O425 O 0.78257 0.65741 0.96086 0.0
O426 O 0.77801 0.69778 0.99489 0.0
O427 O 0.80988 0.70151 1.00897 0.0
C428 C 0.79056 0.71008 1.0067 0.0
C429 C 0.80985 0.62627 0.01833 0.0
O430 O 0.78906 0.67711 0.03742 0.0
O431 O 0.77329 0.65888 1.0094 0.0
O432 O 0.83102 0.66453 0.05934 0.0
O433 O 0.85242 0.68379 0.03961 0.0
O434 O 0.80919 0.63715 0.03641 0.0
O435 O 0.81644 0.63928 1.00261 0.0
O436 O 0.83429 0.67448 0.97255 0.0
O437 O 0.85284 0.66499 1.00301 0.0
C438 C 0.77152 0.66781 0.02887 0.0
C439 C 0.85295 0.66938 0.98178 0.0
Dy440 Dy 0.39213 0.85166 0.03069 0.0
C441 C 0.39188 0.7957 0.09826 0.0
C442 C 0.38348 0.88458 1.00015 0.0
Dy443 Dy 0.39256 0.82326 0.06219 0.0
O444 O 0.39872 0.86994 0.99871 0.0
O445 O 0.37255 0.88111 0.01823 0.0
O446 O 0.42773 0.84876 0.02172 0.0
O447 O 0.41998 0.84717 0.05525 0.0
C448 C 0.4357 0.84595 0.04123 0.0
C449 C 0.35033 0.82302 0.04611 0.0
O450 O 0.39826 0.85264 0.08319 0.0
O451 O 0.38172 0.87437 0.05814 0.0
O452 O 0.37955 0.81253 0.09497 0.0
O453 O 0.40485 0.7936 0.08134 0.0
O454 O 0.35584 0.8266 0.06617 0.0
O455 O 0.36791 0.82371 0.03477 0.0
O456 O 0.39131 0.82183 1.00998 0.0
O457 O 0.40897 0.80241 0.03666 0.0
C458 C 0.389 0.87148 0.07834 0.0
C459 C 0.40369 0.80504 0.01572 0.0
Dy460 Dy 0.63212 0.22927 0.0404 0.0
C461 C 0.63663 0.28843 0.10653 0.0
C462 C 0.64003 0.1985 1.00844 0.0
Dy463 Dy 0.6327 0.25725 0.07395 0.0
O464 O 0.62592 0.21434 1.007 0.0
O465 O 0.64985 0.1995 0.02731 0.0
O466 O 0.59741 0.2368 0.03062 0.0
O467 O 0.60418 0.23562 0.06436 0.0
C468 C 0.58905 0.23914 0.05002 0.0
C469 C 0.67502 0.25122 0.06053 0.0
O470 O 0.63096 0.22651 0.0949 0.0
O471 O 0.64115 0.20456 0.06675 0.0
O472 O 0.64964 0.28593 0.09004 0.0
O473 O 0.62022 0.27489 0.10388 0.0
O474 O 0.66786 0.24757 0.08031 0.0
O475 O 0.65836 0.25357 0.04821 0.0
O476 O 0.64104 0.26048 0.02323 0.0
O477 O 0.61983 0.27942 0.04692 0.0
C478 C 0.6372 0.20715 0.08781 0.0
C479 C 0.62964 0.27816 0.02765 0.0
Dy480 Dy 0.51573 0.70854 0.87846 0.0
C481 C 0.5788 0.76741 0.87853 0.0
C482 C 0.48353 0.677 0.87102 0.0
Dy483 Dy 0.54666 0.73596 0.87874 0.0
O484 O 0.48129 0.69473 0.8822 0.0
O485 O 0.50341 0.67659 0.86326 0.0
O486 O 0.5068 0.70905 0.91422 0.0
O487 O 0.54018 0.71235 0.9066 0.0
C488 C 0.5261 0.7124 0.92228 0.0
C489 C 0.53248 0.73612 0.83596 0.0
O490 O 0.56821 0.70711 0.88499 0.0
O491 O 0.54334 0.6855 0.86836 0.0
O492 O 0.5815 0.74702 0.87378 0.0
O493 O 0.55868 0.7705 0.88478 0.0
O494 O 0.55212 0.73181 0.84249 0.0
O495 O 0.52014 0.73576 0.85299 0.0
O496 O 0.49515 0.73858 0.88092 0.0
O497 O 0.52297 0.75526 0.89869 0.0
C498 C 0.56343 0.68819 0.87608 0.0
C499 C 0.50182 0.7538 0.89455 0.0
Dy500 Dy 0.35998 0.50298 0.89612 0.0
C501 C 0.29869 0.53873 0.93336 0.0
C502 C 0.39399 0.4736 0.8885 0.0
Dy503 Dy 0.33048 0.52746 0.90452 0.0
O504 O 0.37407 0.46878 0.89418 0.0
O505 O 0.39563 0.49492 0.88671 0.0
O506 O 0.3547 0.49075 0.932 0.0
O507 O 0.35804 0.52368 0.92679 0.0
C508 C 0.35627 0.50935 0.94186 0.0
C509 C 0.32352 0.52861 0.86145 0.0
O510 O 0.35713 0.55338 0.90327 0.0
O511 O 0.37744 0.53201 0.88117 0.0
O512 O 0.30661 0.55173 0.91801 0.0
O513 O 0.30758 0.51962 0.93206 0.0
O514 O 0.32044 0.54484 0.87469 0.0
O515 O 0.33227 0.5117 0.87139 0.0
O516 O 0.3367 0.47729 0.88599 0.0
O517 O 0.31357 0.49454 0.90846 0.0
C518 C 0.37396 0.55135 0.88979 0.0
C519 C 0.31853 0.47705 0.89718 0.0
Dy520 Dy 0.55882 0.33667 0.87913 0.0
C521 C 0.50691 0.27089 0.90111 0.0
C522 C 0.58921 0.37048 0.87443 0.0
Dy523 Dy 0.52965 0.30595 0.88344 0.0
O524 O 0.58985 0.3544 0.88851 0.0
O525 O 0.57186 0.36809 0.86218 0.0
O526 O 0.57024 0.3311 0.9143 0.0
O527 O 0.53673 0.33038 0.90882 0.0
C528 C 0.55136 0.32849 0.92367 0.0
C529 C 0.5372 0.30649 0.8395 0.0
O530 O 0.50676 0.33462 0.88782 0.0
O531 O 0.53015 0.35807 0.87016 0.0
O532 O 0.49915 0.28519 0.88717 0.0
O533 O 0.52749 0.27527 0.90405 0.0
O534 O 0.51809 0.30545 0.84883 0.0
O535 O 0.55198 0.30969 0.85422 0.0
O536 O 0.58168 0.30982 0.87127 0.0
O537 O 0.56058 0.28873 0.89345 0.0
C538 C 0.51053 0.35401 0.87844 0.0
C539 C 0.57994 0.2927 0.88447 0.0
Dy540 Dy 0.71916 0.54312 0.88701 0.0
C541 C 0.77974 0.48008 0.8985 0.0
C542 C 0.68496 0.57293 0.88155 0.0
Dy543 Dy 0.74975 0.51196 0.88813 0.0
O544 O 0.70496 0.57762 0.88722 0.0
O545 O 0.68359 0.55184 0.87873 0.0
O546 O 0.72814 0.55372 0.92166 0.0
O547 O 0.72758 0.5204 0.9156 0.0
C548 C 0.73132 0.53451 0.93044 0.0
C549 C 0.74343 0.51976 0.84454 0.0
O550 O 0.72033 0.49026 0.89346 0.0
O551 O 0.69769 0.5148 0.87685 0.0
O552 O 0.76788 0.48103 0.88092 0.0
O553 O 0.77668 0.49815 0.90921 0.0
O554 O 0.74445 0.50056 0.85389 0.0
O555 O 0.74255 0.53432 0.8595 0.0
O556 O 0.7472 0.56322 0.8742 0.0
O557 O 0.77279 0.5412 0.89039 0.0
C558 C 0.70138 0.49467 0.88408 0.0
C559 C 0.76759 0.56002 0.88071 0.0
Dy560 Dy 0.52941 0.33717 0.13885 0.0
C561 C 0.574 0.26211 0.14164 0.0
C562 C 0.50139 0.37183 0.14577 0.0
Dy563 Dy 0.55502 0.30308 0.13868 0.0
O564 O 0.4965 0.35361 0.13617 0.0
O565 O 0.52197 0.37149 0.15144 0.0
O566 O 0.51741 0.33263 0.10412 0.0
O567 O 0.55039 0.3259 0.10998 0.0
C568 C 0.53544 0.32602 0.09521 0.0
C569 C 0.54634 0.31039 0.18186 0.0
O570 O 0.5824 0.32862 0.13631 0.0
O571 O 0.55992 0.35559 0.14837 0.0
O572 O 0.55572 0.26787 0.15046 0.0
O573 O 0.58104 0.27857 0.12955 0.0
O574 O 0.56582 0.30894 0.17349 0.0
O575 O 0.53274 0.31228 0.16607 0.0
O576 O 0.50701 0.31063 0.15043 0.0
O577 O 0.52325 0.28897 0.12584 0.0
C578 C 0.57983 0.34891 0.14343 0.0
C579 C 0.50598 0.29329 0.13799 0.0
Dy580 Dy 0.73077 0.50201 0.14579 0.0
C581 C 0.77532 0.5768 0.13185 0.0
C582 C 0.70114 0.46692 0.15128 0.0
Dy583 Dy 0.75407 0.53859 0.143 0.0
O584 O 0.7211 0.46565 0.14387 0.0
O585 O 0.69769 0.48726 0.15636 0.0
O586 O 0.74171 0.49235 0.11129 0.0
O587 O 0.73385 0.52482 0.11629 0.0
C588 C 0.7402 0.51145 0.10176 0.0
C589 C 0.7497 0.53217 0.18705 0.0
O590 O 0.72133 0.55266 0.13473 0.0
O591 O 0.70375 0.52581 0.15397 0.0
O592 O 0.76485 0.57288 0.14999 0.0
O593 O 0.7764 0.55854 0.12104 0.0
O594 O 0.74569 0.55027 0.17643 0.0
O595 O 0.75171 0.51666 0.17307 0.0
O596 O 0.76273 0.48928 0.15871 0.0
O597 O 0.78316 0.516 0.14144 0.0
C598 C 0.70336 0.54532 0.14437 0.0
C599 C 0.78206 0.497 0.15206 0.0
Dy600 Dy 0.5498 0.68908 0.13626 0.0
C601 C 0.51055 0.76651 0.13216 0.0
C602 C 0.57829 0.65418 0.14052 0.0
Dy603 Dy 0.52636 0.72428 0.1344 0.0
O604 O 0.55755 0.65336 0.14588 0.0
O605 O 0.58288 0.67358 0.13281 0.0
O606 O 0.56369 0.69607 0.10202 0.0
O607 O 0.53071 0.7021 0.10663 0.0
C608 C 0.546 0.70278 0.09246 0.0
C609 C 0.52871 0.71695 0.17783 0.0
O610 O 0.49783 0.69993 0.13295 0.0
O611 O 0.51905 0.67101 0.14401 0.0
O612 O 0.50337 0.74999 0.1208 0.0
O613 O 0.5272 0.75986 0.14336 0.0
O614 O 0.51054 0.71924 0.1671 0.0
O615 O 0.54425 0.71326 0.16412 0.0
O616 O 0.57316 0.71086 0.15232 0.0
O617 O 0.56136 0.736 0.12783 0.0
C618 C 0.49962 0.67903 0.13926 0.0
C619 C 0.57699 0.72881 0.14109 0.0
Dy620 Dy 0.32634 0.55106 0.15604 0.0
C621 C 0.38581 0.48952 0.16029 0.0
C622 C 0.29671 0.58421 0.15703 0.0
Dy623 Dy 0.35346 0.521 0.15673 0.0
O624 O 0.31636 0.58489 0.16478 0.0
O625 O 0.2933 0.56566 0.14712 0.0
O626 O 0.33303 0.56082 0.19103 0.0
O627 O 0.3305 0.52766 0.18482 0.0
C628 C 0.33026 0.54171 0.20009 0.0
C629 C 0.3422 0.52579 0.11292 0.0
O630 O 0.32483 0.50135 0.16863 0.0
O631 O 0.30196 0.52394 0.14993 0.0
O632 O 0.36866 0.48874 0.14787 0.0
O633 O 0.38533 0.50757 0.17144 0.0
O634 O 0.34356 0.50763 0.12406 0.0
O635 O 0.34583 0.54172 0.12612 0.0
O636 O 0.3546 0.5719 0.14454 0.0
O637 O 0.37723 0.54895 0.16252 0.0
C638 C 0.30536 0.50497 0.16004 0.0
C639 C 0.37403 0.56815 0.15292 0.0
Dy640 Dy 0.90716 0.52189 0.70302 0.0
C641 C 0.89267 0.57962 0.76578 0.0
C642 C 0.90472 0.49358 0.66796 0.0
Dy643 Dy 0.90262 0.5509 0.73321 0.0
O644 O 0.89206 0.51034 0.67099 0.0
O645 O 0.91871 0.49243 0.68395 0.0
O646 O 0.94111 0.51235 0.71391 0.0
O647 O 0.93375 0.54586 0.71409 0.0
C648 C 0.94895 0.53175 0.71773 0.0
C649 C 0.86109 0.53766 0.72318 0.0
O650 O 0.91189 0.57505 0.70641 0.0
O651 O 0.89965 0.55101 0.68112 0.0
O652 O 0.88328 0.57831 0.74694 0.0
O653 O 0.90924 0.56614 0.76661 0.0
O654 O 0.86836 0.55754 0.72112 0.0
O655 O 0.87776 0.5253 0.72496 0.0
O656 O 0.89637 0.49897 0.72952 0.0
O657 O 0.90889 0.52172 0.75602 0.0
C658 C 0.90551 0.57118 0.68615 0.0
C659 C 0.902 0.50203 0.75011 0.0
Dy660 Dy 0.54866 0.89606 0.68512 0.0
C661 C 0.47742 0.89975 0.7338 0.0
C662 C 0.58189 0.89068 0.65457 0.0
Dy663 Dy 0.51388 0.89648 0.70848 0.0
O664 O 0.5841 0.89947 0.67372 0.0
O665 O 0.5617 0.88415 0.65241 0.0
O666 O 0.55975 0.93038 0.69341 0.0
O667 O 0.52619 0.92549 0.689 0.0
C668 C 0.54084 0.93985 0.69369 0.0
C669 C 0.52433 0.85281 0.70842 0.0
O670 O 0.49861 0.90718 0.67696 0.0
O671 O 0.52373 0.88765 0.6588 0.0
O672 O 0.47797 0.89137 0.71446 0.0
O673 O 0.49668 0.90725 0.73921 0.0
O674 O 0.50529 0.86084 0.70379 0.0
O675 O 0.53818 0.86866 0.70835 0.0
O676 O 0.56421 0.8868 0.71722 0.0
O677 O 0.53703 0.90432 0.73547 0.0
C678 C 0.50479 0.89785 0.65877 0.0
C679 C 0.5565 0.89511 0.73556 0.0
Dy680 Dy 0.16564 0.55605 0.70921 0.0
C681 C 0.13585 0.51158 0.77251 0.0
C682 C 0.16903 0.58947 0.6778 0.0
Dy683 Dy 0.15949 0.52846 0.73794 0.0
O684 O 0.15786 0.58976 0.69583 0.0
O685 O 0.17886 0.57053 0.6766 0.0
O686 O 0.13099 0.56829 0.7176 0.0
O687 O 0.13466 0.53522 0.71295 0.0
C688 C 0.12043 0.54987 0.7163 0.0
C689 C 0.20323 0.529 0.74094 0.0
O690 O 0.15716 0.50477 0.70963 0.0
O691 O 0.17458 0.52884 0.68671 0.0
O692 O 0.14977 0.50067 0.76073 0.0
O693 O 0.13607 0.53183 0.76587 0.0
O694 O 0.19084 0.51167 0.74291 0.0
O695 O 0.19194 0.54602 0.73485 0.0
O696 O 0.17965 0.57799 0.73404 0.0
O697 O 0.15566 0.56046 0.75592 0.0
C698 C 0.16685 0.50891 0.69055 0.0
C699 C 0.16802 0.57791 0.75198 0.0
Dy700 Dy 0.52536 0.15685 0.68391 0.0
C701 C 0.59888 0.14341 0.72811 0.0
C702 C 0.49364 0.16848 0.65363 0.0
Dy703 Dy 0.55981 0.15126 0.70852 0.0
O704 O 0.49481 0.17566 0.67358 0.0
O705 O 0.50972 0.15513 0.65033 0.0
O706 O 0.51249 0.12208 0.68847 0.0
O707 O 0.54648 0.12629 0.68593 0.0
C708 C 0.53119 0.11206 0.6892 0.0
C709 C 0.54911 0.19483 0.71265 0.0
O710 O 0.57407 0.14625 0.67527 0.0
O711 O 0.5518 0.17232 0.66237 0.0
O712 O 0.59637 0.15159 0.70867 0.0
O713 O 0.57992 0.13884 0.7371 0.0
O714 O 0.5684 0.18737 0.70841 0.0
O715 O 0.53564 0.17879 0.71153 0.0
O716 O 0.50747 0.15536 0.71564 0.0
O717 O 0.53549 0.13677 0.73249 0.0
C718 C 0.56988 0.16097 0.66005 0.0
C719 C 0.51492 0.14361 0.73237 0.0
Dy720 Dy 0.90583 0.57467 0.34074 0.0
C721 C 0.93909 0.54676 0.27403 0.0
C722 C 0.90279 0.60392 0.37523 0.0
Dy723 Dy 0.91364 0.5567 0.30991 0.0
O724 O 0.90791 0.60869 0.35505 0.0
O725 O 0.8991 0.58277 0.37683 0.0
O726 O 0.94042 0.58937 0.33226 0.0
O727 O 0.93776 0.5563 0.3363 0.0
C728 C 0.95178 0.57151 0.33468 0.0
C729 C 0.87142 0.54717 0.30554 0.0
O730 O 0.91525 0.5275 0.33395 0.0
O731 O 0.89516 0.5453 0.35911 0.0
O732 O 0.91963 0.53911 0.2785 0.0
O733 O 0.94399 0.56101 0.28884 0.0
O734 O 0.88733 0.53407 0.30053 0.0
O735 O 0.87851 0.56462 0.31554 0.0
O736 O 0.88286 0.59601 0.32338 0.0
O737 O 0.90879 0.59265 0.29835 0.0
C738 C 0.90377 0.52701 0.35246 0.0
C739 C 0.89196 0.60394 0.30581 0.0
Dy740 Dy 0.51465 0.88854 0.31067 0.0
C741 C 0.55772 0.9132 0.2411 0.0
C742 C 0.48451 0.88256 0.34418 0.0
Dy743 Dy 0.54113 0.89451 0.27936 0.0
O744 O 0.50461 0.8754 0.34464 0.0
O745 O 0.48112 0.89237 0.32554 0.0
O746 O 0.50004 0.9225 0.30397 0.0
O747 O 0.53384 0.92016 0.30381 0.0
C748 C 0.51805 0.9337 0.30209 0.0
C749 C 0.53888 0.84988 0.28135 0.0
O750 O 0.56531 0.90081 0.30702 0.0
O751 O 0.54426 0.88117 0.33106 0.0
O752 O 0.56908 0.90399 0.25679 0.0
O753 O 0.53723 0.91052 0.24612 0.0
O754 O 0.55659 0.86142 0.2782 0.0
O755 O 0.52277 0.86277 0.28515 0.0
O756 O 0.49404 0.87401 0.28482 0.0
O757 O 0.50772 0.90154 0.26489 0.0
C758 C 0.56304 0.89102 0.32648 0.0
C759 C 0.49104 0.88817 0.26884 0.0
Dy760 Dy 0.16282 0.52931 0.31973 0.0
C761 C 0.17632 0.59354 0.37783 0.0
C762 C 0.14548 0.50012 0.29072 0.0
Dy763 Dy 0.16897 0.56119 0.34686 0.0
O764 O 0.16139 0.4961 0.30421 0.0
O765 O 0.13932 0.52036 0.29269 0.0
O766 O 0.19635 0.51459 0.31985 0.0
O767 O 0.1944 0.54888 0.32272 0.0
C768 C 0.20751 0.53279 0.31978 0.0
C769 C 0.12434 0.55854 0.33705 0.0
O770 O 0.18265 0.57903 0.31763 0.0
O771 O 0.16146 0.55785 0.2957 0.0
O772 O 0.17925 0.57259 0.38103 0.0
O773 O 0.17 0.59664 0.35775 0.0
O774 O 0.13618 0.57619 0.33767 0.0
O775 O 0.137 0.54244 0.34166 0.0
O776 O 0.15679 0.51 0.35095 0.0
O777 O 0.17686 0.53378 0.37098 0.0
C778 C 0.17346 0.5758 0.29839 0.0
C779 C 0.16702 0.51453 0.36937 0.0
Dy780 Dy 0.53233 0.14891 0.3256 0.0
C781 C 0.46848 0.14783 0.26135 0.0
C782 C 0.56457 0.15618 0.35708 0.0
Dy783 Dy 0.49959 0.14907 0.2942 0.0
O784 O 0.54702 0.14416 0.35991 0.0
O785 O 0.56429 0.16423 0.33726 0.0
O786 O 0.5436 0.11488 0.31745 0.0
O787 O 0.5099 0.12071 0.31568 0.0
C788 C 0.52475 0.10614 0.31265 0.0
C789 C 0.51204 0.19169 0.30087 0.0
O790 O 0.47731 0.14908 0.32387 0.0
O791 O 0.50446 0.16092 0.34683 0.0
O792 O 0.4829 0.16316 0.26426 0.0
O793 O 0.47203 0.13238 0.27592 0.0
O794 O 0.49195 0.1845 0.30101 0.0
O795 O 0.52456 0.17503 0.30072 0.0
O796 O 0.5522 0.15592 0.29563 0.0
O797 O 0.52765 0.14037 0.27191 0.0
C798 C 0.48345 0.15671 0.34317 0.0
C799 C 0.54733 0.14854 0.27594 0.0
Dy800 Dy 0.70859 0.9123 0.48118 0.0
C801 C 0.77369 0.92977 0.53836 0.0
C802 C 0.67662 0.90606 0.44922 0.0
Dy803 Dy 0.74075 0.91678 0.51075 0.0
O804 O 0.69707 0.91103 0.44583 0.0
O805 O 0.67341 0.90431 0.47037 0.0
O806 O 0.71829 0.94588 0.46641 0.0
O807 O 0.71784 0.94264 0.50008 0.0
C808 C 0.72127 0.95633 0.48451 0.0
C809 C 0.73283 0.87326 0.51183 0.0
O810 O 0.7121 0.9197 0.53408 0.0
O811 O 0.68746 0.90441 0.51035 0.0
O812 O 0.76921 0.90979 0.53294 0.0
O813 O 0.76097 0.94286 0.52725 0.0
O814 O 0.73443 0.88548 0.52904 0.0
O815 O 0.7313 0.88561 0.49454 0.0
O816 O 0.73446 0.89432 0.46375 0.0
O817 O 0.76172 0.91397 0.4797 0.0
C818 C 0.69251 0.91106 0.53024 0.0
C819 C 0.75515 0.90056 0.46403 0.0
Dy820 Dy 0.71731 0.17112 0.50836 0.0
C821 C 0.77023 0.16944 0.43792 0.0
C822 C 0.68723 0.17669 0.54195 0.0
Dy823 Dy 0.74367 0.17161 0.4745 0.0
O824 O 0.70386 0.16354 0.54233 0.0
O825 O 0.68714 0.18727 0.52323 0.0
O826 O 0.72402 0.13581 0.5175 0.0
O827 O 0.72144 0.14346 0.48401 0.0
C828 C 0.72503 0.12785 0.49795 0.0
C829 C 0.74269 0.21433 0.48897 0.0
O830 O 0.71262 0.16501 0.45591 0.0
O831 O 0.69192 0.17982 0.48262 0.0
O832 O 0.75346 0.182 0.44037 0.0
O833 O 0.77286 0.15817 0.45609 0.0
O834 O 0.73959 0.2081 0.46904 0.0
O835 O 0.74311 0.19705 0.50107 0.0
O836 O 0.74896 0.17698 0.5254 0.0
O837 O 0.76643 0.15701 0.49985 0.0
C838 C 0.69361 0.17271 0.46236 0.0
C839 C 0.76543 0.16419 0.52018 0.0
Dy840 Dy 0.89763 0.73218 0.54498 0.0
C841 C 0.91997 0.80476 0.50745 0.0
C842 C 0.89374 0.69648 0.57366 0.0
Dy843 Dy 0.9025 0.76458 0.52043 0.0
O844 O 0.89719 0.7167 0.57898 0.0
O845 O 0.89192 0.69557 0.55237 0.0
O846 O 0.93064 0.74146 0.56092 0.0
O847 O 0.9294 0.74152 0.52718 0.0
C848 C 0.94234 0.74395 0.5433 0.0
C849 C 0.85845 0.76117 0.51858 0.0
O850 O 0.90916 0.73819 0.49507 0.0
O851 O 0.88955 0.71327 0.51505 0.0
O852 O 0.91163 0.78995 0.49462 0.0
O853 O 0.91755 0.79756 0.52741 0.0
O854 O 0.87116 0.76598 0.50211 0.0
O855 O 0.86998 0.75615 0.53563 0.0
O856 O 0.87847 0.75425 0.56577 0.0
O857 O 0.90446 0.7777 0.55523 0.0
C858 C 0.89918 0.71877 0.49644 0.0
C859 C 0.88996 0.7717 0.57031 0.0
Dy860 Dy 0.3352 0.91779 0.54326 0.0
C861 C 0.3796 0.90526 0.47058 0.0
C862 C 0.32202 0.92288 0.58529 0.0
Dy863 Dy 0.3529 0.91535 0.50571 0.0
O864 O 0.34032 0.91432 0.57929 0.0
O865 O 0.31059 0.92927 0.56827 0.0
O866 O 0.33949 0.8823 0.55334 0.0
O867 O 0.33253 0.88854 0.52058 0.0
C868 C 0.33363 0.87343 0.53512 0.0
C869 C 0.3437 0.95931 0.51088 0.0
O870 O 0.3183 0.90471 0.49771 0.0
O871 O 0.30358 0.92336 0.52617 0.0
O872 O 0.35852 0.90817 0.46952 0.0
O873 O 0.38594 0.90803 0.49062 0.0
O874 O 0.34174 0.94837 0.4929 0.0
O875 O 0.35134 0.94638 0.52578 0.0
O876 O 0.36878 0.92824 0.55236 0.0
O877 O 0.3808 0.90429 0.52802 0.0
C878 C 0.30073 0.91221 0.50805 0.0
C879 C 0.3846 0.91567 0.54579 0.0
Dy880 Dy 0.1559 0.36843 0.53298 0.0
C881 C 0.15195 0.32388 0.45933 0.0
C882 C 0.16315 0.3981 0.56661 0.0
Dy883 Dy 0.1542 0.3448 0.49832 0.0
O884 O 0.1517 0.40157 0.54901 0.0
O885 O 0.17113 0.37837 0.56578 0.0
O886 O 0.12052 0.36286 0.54288 0.0
O887 O 0.12715 0.3665 0.50929 0.0
C888 C 0.11194 0.36256 0.52343 0.0
C889 C 0.19699 0.34165 0.51205 0.0
O890 O 0.14855 0.37722 0.48224 0.0
O891 O 0.17026 0.39252 0.50749 0.0
O892 O 0.15913 0.34358 0.46213 0.0
O893 O 0.14518 0.31538 0.47793 0.0
O894 O 0.19063 0.34779 0.49277 0.0
O895 O 0.18003 0.3415 0.52451 0.0
O896 O 0.15092 0.33649 0.55081 0.0
O897 O 0.1371 0.32023 0.52014 0.0
C898 C 0.16101 0.39373 0.48793 0.0
C899 C 0.14017 0.32012 0.54161 0.0
Dy900 Dy 0.31582 0.17159 0.47914 0.0
C901 C 0.3747 0.18773 0.54005 0.0
C902 C 0.29509 0.16427 0.44025 0.0
Dy903 Dy 0.3432 0.17673 0.50929 0.0
O904 O 0.30977 0.17935 0.44354 0.0
O905 O 0.2915 0.15341 0.45852 0.0
O906 O 0.29053 0.19546 0.48857 0.0
O907 O 0.32377 0.20499 0.49388 0.0
C908 C 0.3033 0.21067 0.49593 0.0
C909 C 0.33675 0.13165 0.50684 0.0
O910 O 0.31275 0.17979 0.52904 0.0
O911 O 0.29591 0.1561 0.50617 0.0
O912 O 0.35384 0.18572 0.54382 0.0
O913 O 0.37824 0.18431 0.51941 0.0
O914 O 0.33902 0.1428 0.5246 0.0
O915 O 0.3384 0.14502 0.49049 0.0
O916 O 0.34503 0.17177 0.45653 0.0
O917 O 0.3691 0.18181 0.48277 0.0
C918 C 0.29643 0.16617 0.52517 0.0
C919 C 0.36521 0.17683 0.46214 0.0
Dy920 Dy 0.89823 0.36908 0.4951 0.0
C921 C 0.8881 0.30055 0.54422 0.0
C922 C 0.8983 0.40361 0.46536 0.0
Dy923 Dy 0.89474 0.33858 0.52137 0.0
O924 O 0.88831 0.40364 0.48427 0.0
O925 O 0.90811 0.38507 0.46303 0.0
O926 O 0.93262 0.36014 0.48464 0.0
O927 O 0.9259 0.35803 0.51811 0.0
C928 C 0.94104 0.35607 0.5037 0.0
C929 C 0.85218 0.34471 0.51052 0.0
O930 O 0.90298 0.36356 0.54683 0.0
O931 O 0.89 0.38997 0.52403 0.0
O932 O 0.88484 0.31995 0.5518 0.0
O933 O 0.89788 0.30189 0.52533 0.0
O934 O 0.85982 0.34591 0.53019 0.0
O935 O 0.86836 0.34665 0.49727 0.0
O936 O 0.88638 0.34498 0.4712 0.0
O937 O 0.90434 0.31968 0.49132 0.0
C938 C 0.89638 0.38393 0.54383 0.0
C939 C 0.89529 0.32557 0.47253 0.0
Dy940 Dy 0.15781 0.74391 0.52465 0.0
C941 C 0.15789 0.80068 0.59291 0.0
C942 C 0.16527 0.71314 0.49238 0.0
Dy943 Dy 0.15823 0.77094 0.559 0.0
O944 O 0.17616 0.7148 0.51063 0.0
O945 O 0.15056 0.72847 0.49167 0.0
O946 O 0.12314 0.75167 0.51508 0.0
O947 O 0.12986 0.74938 0.54876 0.0
C948 C 0.11463 0.75312 0.53453 0.0
C949 C 0.2008 0.76581 0.54543 0.0
O950 O 0.15718 0.74015 0.57972 0.0
O951 O 0.1655 0.71844 0.55071 0.0
O952 O 0.1739 0.79722 0.57953 0.0
O953 O 0.14138 0.78866 0.58663 0.0
O954 O 0.19375 0.76245 0.56531 0.0
O955 O 0.18408 0.76814 0.53311 0.0
O956 O 0.16637 0.77552 0.50769 0.0
O957 O 0.14706 0.79473 0.5328 0.0
C958 C 0.16246 0.72077 0.57199 0.0
C959 C 0.15611 0.79367 0.51315 0.0
H960 H 0.97366 0.19959 0.58201 0.0
H961 H 0.04313 0.18802 0.57643 0.0
H962 H 0.97099 0.20251 0.54187 0.0
H963 H 0.0406 0.18975 0.53657 0.0
H964 H 0.03612 0.20673 0.4628 0.0
H965 H 0.03866 0.20553 0.50301 0.0
H966 H 0.96916 0.19066 0.50709 0.0
H967 H 0.96673 0.19301 0.46728 0.0
C968 C 0.98838 0.19733 0.57227 0.0
C969 C 1.0086 0.19341 0.58296 0.0
C970 C 0.98691 0.19891 0.54886 0.0
C971 C 1.00557 0.19641 0.5349 0.0
C972 C 0.02569 0.19229 0.54588 0.0
C973 C 0.02716 0.19102 0.56916 0.0
C974 C 0.02137 0.20328 0.47228 0.0
C975 C 1.00122 0.2 0.46125 0.0
C976 C 0.02277 0.20238 0.49572 0.0
C977 C 1.00414 0.19787 0.50938 0.0
C978 C 0.98406 0.19457 0.49807 0.0
C979 C 0.98265 0.19575 0.47477 0.0
H980 H 0.81597 0.03821 0.60443 0.0
H981 H 0.83254 0.96952 0.60845 0.0
H982 H 0.81309 0.03558 0.56421 0.0
H983 H 0.83104 0.96697 0.56885 0.0
H984 H 0.81297 0.95935 0.49726 0.0
H985 H 0.81399 0.96332 0.53692 0.0
H986 H 0.82525 0.03326 0.52861 0.0
H987 H 0.82349 0.02906 0.48864 0.0
C988 C 0.81934 0.02259 0.59679 0.0
C989 C 0.82464 1.00414 0.61012 0.0
C990 C 0.81776 0.02099 0.57343 0.0
C991 C 0.82164 1.00092 0.56231 0.0
C992 C 0.82728 0.98271 0.57593 0.0
C993 C 0.82845 0.98424 0.59909 0.0
C994 C 0.81558 0.97564 0.50382 0.0
C995 C 0.81821 0.99379 0.4893 0.0
C996 C 0.81635 0.97802 0.52698 0.0
C997 C 0.81995 0.99871 0.537 0.0
C998 C 0.82223 0.01697 0.5223 0.0
C999 C 0.82133 0.01457 0.49904 0.0
H1000 H 0.99199 0.81355 0.58869 0.0
H1001 H 0.06259 0.8144 0.59376 0.0
H1002 H 0.9946 0.81348 0.54889 0.0
H1003 H 0.06536 0.81463 0.55329 0.0
H1004 H 0.06373 0.79942 0.47776 0.0
H1005 H 0.06295 0.79919 0.51811 0.0
H1006 H 1.00057 0.83236 0.51627 0.0
H1007 H 1.00081 0.8312 0.47601 0.0
C1008 C 1.00825 0.81391 0.58137 0.0
C1009 C 0.02703 0.81425 0.59509 0.0
C1010 C 1.00976 0.81404 0.55809 0.0
C1011 C 0.0302 0.81449 0.5469 0.0
C1012 C 0.04915 0.8143 0.56064 0.0
C1013 C 0.0476 0.81426 0.58416 0.0
C1014 C 0.04963 0.80641 0.48594 0.0
C1015 C 0.03209 0.8149 0.47315 0.0
C1016 C 0.04921 0.80638 0.5094 0.0
C1017 C 0.03133 0.81512 0.52136 0.0
C1018 C 0.01426 0.82442 0.50836 0.0
C1019 C 0.01443 0.82396 0.48493 0.0
H1020 H 0.2154 0.98467 0.59572 0.0
H1021 H 0.19474 0.05209 0.59956 0.0
H1022 H 0.21387 0.98685 0.55555 0.0
H1023 H 0.19279 0.05435 0.55927 0.0
H1024 H 0.20889 0.05909 0.48481 0.0
H1025 H 0.21034 0.0569 0.52497 0.0
H1026 H 0.19372 0.9878 0.52267 0.0
H1027 H 0.19252 0.99015 0.48235 0.0
C1028 C 0.2104 1.00004 0.58805 0.0
C1029 C 0.20516 0.01816 0.60137 0.0
C1030 C 0.20936 1.00129 0.5647 0.0
C1031 C 0.20311 0.02079 0.55334 0.0
C1032 C 0.19796 0.03899 0.56678 0.0
C1033 C 0.19892 0.03768 0.59019 0.0
C1034 C 0.20548 0.04337 0.49279 0.0
C1035 C 0.20059 0.02482 0.47985 0.0
C1036 C 0.20618 0.0421 0.51615 0.0
C1037 C 0.20214 0.02215 0.5279 0.0
C1038 C 0.19727 1.00354 0.51483 0.0
C1039 C 0.19646 1.00487 0.49143 0.0
H1040 H 0.57547 0.07739 0.26163 0.0
H1041 H 0.58089 0.01549 0.22873 0.0
H1042 H 0.53527 0.0739 0.26148 0.0
H1043 H 0.54088 1.01224 0.2276 0.0
H1044 H 0.46863 0.99963 0.24277 0.0
H1045 H 0.50817 1.00436 0.24376 0.0
H1046 H 0.5002 0.07483 0.24577 0.0
H1047 H 0.45995 0.06981 0.24514 0.0
C1048 C 0.56813 0.06305 0.25413 0.0
C1049 C 0.58192 0.04674 0.24523 0.0
C1050 C 0.54475 0.06103 0.25394 0.0
C1051 C 0.53385 0.04266 0.24462 0.0
C1052 C 0.54785 0.02652 0.23546 0.0
C1053 C 0.57119 0.02844 0.2359 0.0
C1054 C 0.47509 0.01628 0.24329 0.0
C1055 C 0.46043 0.03426 0.24366 0.0
C1056 C 0.49826 0.01907 0.24367 0.0
C1057 C 0.5084 0.04008 0.24451 0.0
C1058 C 0.4937 0.05822 0.24521 0.0
C1059 C 0.47029 0.05539 0.24474 0.0
H1060 H 0.96192 0.57242 0.21373 0.0
H1061 H 0.03083 0.57529 0.22915 0.0
H1062 H 0.96356 0.53273 0.21176 0.0
H1063 H 0.0328 0.53534 0.22774 0.0
H1064 H 0.0328 0.46055 0.23429 0.0
H1065 H 0.03085 0.50031 0.23589 0.0
H1066 H 0.96726 0.49799 0.20412 0.0
H1067 H 0.96897 0.45792 0.20419 0.0
C1068 C 0.9776 0.56454 0.21691 0.0
C1069 C 0.99622 0.57759 0.22176 0.0
C1070 C 0.97859 0.54125 0.2158 0.0
C1071 C 0.9982 0.5294 0.22016 0.0
C1072 C 0.01696 0.54273 0.22483 0.0
C1073 C 0.01602 0.56615 0.22553 0.0
C1074 C 0.01824 0.46854 0.22777 0.0
C1075 C 1.00105 0.45555 0.21912 0.0
C1076 C 0.01716 0.49184 0.22844 0.0
C1077 C 0.999 0.50375 0.21987 0.0
C1078 C 0.98169 0.49048 0.2112 0.0
C1079 C 0.98255 0.46702 0.21114 0.0
H1080 H 0.57084 1.00488 0.87623 0.0
H1081 H 0.57263 0.06977 0.84686 0.0
H1082 H 0.53036 1.00586 0.87654 0.0
H1083 H 0.53273 0.0706 0.84631 0.0
H1084 H 0.46144 0.0788 0.8645 0.0
H1085 H 0.50105 0.07551 0.8651 0.0
H1086 H 0.49486 1.00492 0.86022 0.0
H1087 H 0.45446 1.0084 0.86045 0.0
C1088 C 0.56269 0.01936 0.86973 0.0
C1089 C 0.57545 0.03736 0.86175 0.0
C1090 C 0.53922 0.01992 0.86977 0.0
C1091 C 0.52744 0.03848 0.86176 0.0
C1092 C 0.54046 0.05614 0.85333 0.0
C1093 C 0.56373 0.05563 0.85344 0.0
C1094 C 0.46832 0.06244 0.86363 0.0
C1095 C 0.4542 0.04392 0.86247 0.0
C1096 C 0.49147 0.06052 0.86371 0.0
C1097 C 0.50205 0.03992 0.86236 0.0
C1098 C 0.4879 0.0212 0.86142 0.0
C1099 C 0.46449 0.02316 0.86147 0.0
H1100 H 0.97954 0.57698 0.83547 0.0
H1101 H 0.04838 0.56585 0.84704 0.0
H1102 H 0.97361 0.53711 0.83212 0.0
H1103 H 0.04262 0.52644 0.84467 0.0
H1104 H 0.03284 0.45446 0.82634 0.0
H1105 H 0.0378 0.49437 0.82716 0.0
H1106 H 0.96943 0.5016 0.84483 0.0
H1107 H 0.96452 0.46171 0.84293 0.0
C1108 C 0.99345 0.56612 0.83746 0.0
C1109 C 0.01449 0.57519 0.8416 0.0
C1110 C 0.99007 0.5429 0.83566 0.0
C1111 C 1.00754 0.52754 0.83801 0.0
C1112 C 0.02851 0.5369 0.8422 0.0
C1113 C 0.03186 0.55995 0.84382 0.0
C1114 C 0.01883 0.46453 0.83045 0.0
C1115 C 0.99829 0.45435 0.83477 0.0
C1116 C 0.02168 0.4878 0.8311 0.0
C1117 C 1.00418 0.50222 0.83641 0.0
C1118 C 0.98355 0.49184 0.84048 0.0
C1119 C 0.98068 0.46859 0.83956 0.0
H1120 H 0.19249 0.59503 1.00641 0.0
H1121 H 0.20232 0.58438 0.0758 0.0
H1122 H 0.18972 0.55539 1.0011 0.0
H1123 H 0.20044 0.54451 0.07063 0.0
H1124 H 0.18107 0.47143 0.05908 0.0
H1125 H 0.18329 0.51123 0.0651 0.0
H1126 H 0.20326 0.52117 0.99744 0.0
H1127 H 0.20013 0.48178 0.9915 0.0
C1128 C 0.19426 0.58423 0.02063 0.0
C1129 C 0.1976 0.59341 0.04159 0.0
C1130 C 0.19283 0.56109 0.01758 0.0
C1131 C 0.19487 0.54572 0.03531 0.0
C1132 C 0.19836 0.55508 0.05632 0.0
C1133 C 0.19963 0.57828 0.05936 0.0
C1134 C 0.18585 0.48212 0.04545 0.0
C1135 C 0.19022 0.47289 0.02469 0.0
C1136 C 0.18732 0.50528 0.04892 0.0
C1137 C 0.19339 0.52044 0.03184 0.0
C1138 C 0.19801 0.51091 1.01118 0.0
C1139 C 0.19636 0.48789 1.00772 0.0
H1140 H 0.55777 0.25138 0.02009 0.0
H1141 H 0.56258 0.22758 0.08694 0.0
H1142 H 0.51792 0.25043 0.0224 0.0
H1143 H 0.52227 0.22567 0.08923 0.0
H1144 H 0.4471 0.2353 0.0936 0.0
H1145 H 0.48709 0.23812 0.09226 0.0
H1146 H 0.48484 0.23335 0.02147 0.0
H1147 H 0.44467 0.23129 0.02304 0.0
C1148 C 0.55034 0.24577 0.03542 0.0
C1149 C 0.56397 0.23946 0.05325 0.0
C1150 C 0.52705 0.24499 0.03671 0.0
C1151 C 0.51581 0.23757 0.05589 0.0
C1152 C 0.52954 0.23166 0.07401 0.0
C1153 C 0.55303 0.23267 0.07275 0.0
C1154 C 0.45507 0.23489 0.07766 0.0
C1155 C 0.44211 0.23299 0.05845 0.0
C1156 C 0.47842 0.23637 0.07687 0.0
C1157 C 0.49026 0.236 0.05676 0.0
C1158 C 0.47712 0.2341 0.03748 0.0
C1159 C 0.4537 0.23269 0.03831 0.0
H1160 H 0.81541 0.59442 0.98488 0.0
H1161 H 0.80301 0.59958 0.05433 0.0
H1162 H 0.8147 0.554 0.98873 0.0
H1163 H 0.80161 0.5598 0.05818 0.0
H1164 H 0.81798 0.48553 0.06489 0.0
H1165 H 0.81847 0.52587 0.06094 0.0
H1166 H 0.79637 0.52039 0.99381 0.0
H1167 H 0.79645 0.48048 0.9977 0.0
C1168 C 0.8124 0.58711 1.00097 0.0
C1169 C 0.80924 0.6009 0.01921 0.0
C1170 C 0.81185 0.56361 1.00328 0.0
C1171 C 0.80818 0.55273 0.02395 0.0
C1172 C 0.80491 0.56674 0.042 0.0
C1173 C 0.80547 0.58999 0.03968 0.0
C1174 C 0.81318 0.49288 0.0493 0.0
C1175 C 0.8074 0.47916 0.03164 0.0
C1176 C 0.81336 0.51634 0.04693 0.0
C1177 C 0.80771 0.52728 0.02681 0.0
C1178 C 0.80146 0.51335 1.00943 0.0
C1179 C 0.80134 0.49007 1.01179 0.0
H1180 H 0.57522 0.84043 0.08988 0.0
H1181 H 0.5807 0.86073 0.02195 0.0
H1182 H 0.53526 0.83864 0.08659 0.0
H1183 H 0.54062 0.85987 0.01863 0.0
H1184 H 0.46839 0.84114 1.01093 0.0
H1185 H 0.50802 0.84204 0.01499 0.0
H1186 H 0.50041 0.85309 0.08461 0.0
H1187 H 0.46022 0.85135 0.08039 0.0
C1188 C 0.56793 0.84466 0.07415 0.0
C1189 C 0.58167 0.8507 0.0562 0.0
C1190 C 0.54465 0.84381 0.07226 0.0
C1191 C 0.53376 0.84907 0.0523 0.0
C1192 C 0.54767 0.85519 0.03432 0.0
C1193 C 0.571 0.85588 0.0362 0.0
C1194 C 0.47503 0.84381 0.02721 0.0
C1195 C 0.46057 0.84631 0.04525 0.0
C1196 C 0.49817 0.84453 0.02957 0.0
C1197 C 0.50839 0.84798 0.05014 0.0
C1198 C 0.49384 0.85023 0.06837 0.0
C1199 C 0.47048 0.84935 0.06599 0.0
H1200 H 0.56547 0.71669 0.94629 0.0
H1201 H 0.49601 0.70535 0.95512 0.0
H1202 H 0.57041 0.7154 0.98643 0.0
H1203 H 0.5008 0.70314 0.99465 0.0
H1204 H 0.50947 0.71538 0.06794 0.0
H1205 H 0.50559 0.71863 0.028 0.0
H1206 H 0.57267 0.69724 0.01997 0.0
H1207 H 0.57659 0.69497 0.05991 0.0
C1208 C 0.55124 0.71372 0.9567 0.0
C1209 C 0.53032 0.71106 0.94702 0.0
C1210 C 0.55404 0.71285 0.97998 0.0
C1211 C 0.53604 0.7092 0.99463 0.0
C1212 C 0.51523 0.70646 0.98467 0.0
C1213 C 0.51246 0.70749 0.96159 0.0
C1214 C 0.52342 0.71139 0.05767 0.0
C1215 C 0.54333 0.70481 0.06755 0.0
C1216 C 0.52119 0.71309 0.03444 0.0
C1217 C 0.53872 0.70807 0.01989 0.0
C1218 C 0.55868 0.70161 0.02997 0.0
C1219 C 0.56093 0.70011 0.05319 0.0
H1220 H 0.34511 0.4794 0.97462 0.0
H1221 H 0.36114 0.54806 0.96606 0.0
H1222 H 0.34061 0.4845 1.01392 0.0
H1223 H 0.35771 0.55328 1.00593 0.0
H1224 H 0.33844 0.56008 0.08057 0.0
H1225 H 0.34082 0.55712 0.04017 0.0
H1226 H 0.35423 0.48773 0.04762 0.0
H1227 H 0.35069 0.49059 0.08695 0.0
C1228 C 0.34803 0.49566 0.98114 0.0
C1229 C 0.35384 0.51314 0.96668 0.0
C1230 C 0.34562 0.49868 1.00414 0.0
C1231 C 0.34922 0.51936 0.01423 0.0
C1232 C 0.35471 0.53701 0.99956 0.0
C1233 C 0.35687 0.53398 0.97639 0.0
C1234 C 0.34183 0.54419 0.07354 0.0
C1235 C 0.34425 0.52561 0.08765 0.0
C1236 C 0.34333 0.54241 0.05007 0.0
C1237 C 0.34756 0.52201 0.03961 0.0
C1238 C 0.3503 0.50373 0.05403 0.0
C1239 C 0.34849 0.50545 0.07715 0.0
H1240 H 0.51405 0.31804 0.94923 0.0
H1241 H 0.58201 0.33708 0.95565 0.0
H1242 H 0.51067 0.31592 0.98944 0.0
H1243 H 0.5786 0.33613 0.99554 0.0
H1244 H 0.57341 0.31946 0.06955 0.0
H1245 H 0.57687 0.31926 0.02935 0.0
H1246 H 0.50719 0.33107 0.02338 0.0
H1247 H 0.50391 0.33074 0.06324 0.0
C1248 C 0.52825 0.32209 0.95915 0.0
C1249 C 0.54828 0.32789 0.94871 0.0
C1250 C 0.52635 0.32097 0.98255 0.0
C1251 C 0.54433 0.32587 0.9967 0.0
C1252 C 0.56426 0.3318 0.986 0.0
C1253 C 0.5662 0.3326 0.96272 0.0
C1254 C 0.55881 0.32194 0.05967 0.0
C1255 C 0.53838 0.32525 0.07016 0.0
C1256 C 0.56074 0.32195 0.03627 0.0
C1257 C 0.54234 0.32518 0.02215 0.0
C1258 C 0.52192 0.32818 0.03289 0.0
C1259 C 0.52003 0.32818 0.05616 0.0
H1260 H 0.73021 0.49498 0.95527 0.0
H1261 H 0.73796 0.56486 0.9631 0.0
H1262 H 0.73274 0.48971 0.99535 0.0
H1263 H 0.74132 0.55975 1.00278 0.0
H1264 H 0.7284 0.54871 0.07704 0.0
H1265 H 0.72673 0.55374 0.03706 0.0
H1266 H 0.75065 0.48766 0.02875 0.0
H1267 H 0.75158 0.48262 0.06871 0.0
C1268 C 0.73258 0.50929 0.96543 0.0
C1269 C 0.73362 0.53044 0.9554 0.0
C1270 C 0.73423 0.50627 0.98874 0.0
C1271 C 0.73713 0.52422 1.00327 0.0
C1272 C 0.73857 0.54528 0.99298 0.0
C1273 C 0.73679 0.54828 0.9698 0.0
C1274 C 0.7333 0.5352 0.06674 0.0
C1275 C 0.73994 0.51515 0.07666 0.0
C1276 C 0.7325 0.53811 0.04343 0.0
C1277 C 0.73841 0.52116 0.02869 0.0
C1278 C 0.74541 0.50121 0.0388 0.0
C1279 C 0.74612 0.4983 0.06209 0.0
H1280 H 0.98115 0.50195 0.72781 0.0
H1281 H 0.97416 0.57043 0.71033 0.0
H1282 H 0.02092 0.50611 0.7284 0.0
H1283 H 0.01437 0.57467 0.71003 0.0
H1284 H 0.08887 0.58142 0.72383 0.0
H1285 H 0.04885 0.57793 0.72525 0.0
H1286 H 0.05425 0.50862 0.71161 0.0
H1287 H 0.09433 0.51225 0.71097 0.0
C1288 C 0.98807 0.51804 0.72398 0.0
C1289 C 0.97388 0.53579 0.71901 0.0
C1290 C 1.0113 0.52043 0.72409 0.0
C1291 C 0.02186 0.54073 0.71898 0.0
C1292 C 1.00757 0.55867 0.71431 0.0
C1293 C 0.98417 0.55628 0.71439 0.0
C1294 C 0.08157 0.56538 0.72112 0.0
C1295 C 0.09533 0.54719 0.71713 0.0
C1296 C 0.05825 0.56334 0.72179 0.0
C1297 C 0.04732 0.54296 0.71844 0.0
C1298 C 0.06128 0.52471 0.71458 0.0
C1299 C 0.08463 0.52676 0.71401 0.0
H1300 H 0.57362 0.97093 0.68858 0.0
H1301 H 0.50339 0.96656 0.69632 0.0
H1302 H 0.57173 1.0107 0.6867 0.0
H1303 H 0.50127 1.00674 0.6958 0.0
H1304 H 0.49858 0.08108 0.68301 0.0
H1305 H 0.50036 0.0412 0.68333 0.0
H1306 H 0.56993 0.04518 0.69744 0.0
H1307 H 0.56801 0.0853 0.69573 0.0
C1308 C 0.55761 0.97846 0.69007 0.0
C1309 C 0.53867 0.96498 0.69252 0.0
C1310 C 0.55648 1.00176 0.6892 0.0
C1311 C 0.53633 1.01316 0.69119 0.0
C1312 C 0.5173 0.99949 0.69377 0.0
C1313 C 0.51843 0.97603 0.69424 0.0
C1314 C 0.51437 0.0735 0.686 0.0
C1315 C 0.53317 0.08693 0.68913 0.0
C1316 C 0.51542 0.05016 0.68644 0.0
C1317 C 0.53531 0.03875 0.69049 0.0
C1318 C 0.55416 0.05241 0.69379 0.0
C1319 C 0.55313 0.07584 0.69294 0.0
H1320 H 0.97732 0.53485 0.34474 0.0
H1321 H 0.98415 0.60236 0.32352 0.0
H1322 H 0.01727 0.53105 0.3453 0.0
H1323 H 0.02396 0.59861 0.32279 0.0
H1324 H 0.09754 0.59468 0.33547 0.0
H1325 H 0.05794 0.59752 0.33492 0.0
H1326 H 0.05251 0.52654 0.33522 0.0
H1327 H 0.09273 0.52401 0.33683 0.0
C1328 C 0.98733 0.54898 0.34004 0.0
C1329 C 0.97696 0.56904 0.33433 0.0
C1330 C 1.01068 0.54678 0.34019 0.0
C1331 C 0.02511 0.56447 0.33433 0.0
C1332 C 0.01444 0.58441 0.32812 0.0
C1333 C 0.99112 0.58666 0.32832 0.0
C1334 C 0.08802 0.57953 0.33555 0.0
C1335 C 0.099 0.55908 0.33642 0.0
C1336 C 0.06474 0.58115 0.33498 0.0
C1337 C 0.05072 0.56236 0.33491 0.0
C1338 C 0.06183 0.54175 0.33557 0.0
C1339 C 0.08531 0.54016 0.33639 0.0
H1340 H 0.55513 0.07459 0.32264 0.0
H1341 H 0.4883 0.07956 0.30013 0.0
H1342 H 0.55295 0.03516 0.32147 0.0
H1343 H 0.48604 0.03928 0.29818 0.0
H1344 H 0.48944 0.96441 0.28468 0.0
H1345 H 0.48937 1.00436 0.28785 0.0
H1346 H 0.5475 1.00039 0.32844 0.0
H1347 H 0.54808 0.96071 0.32383 0.0
C1348 C 0.53979 0.06728 0.31729 0.0
C1349 C 0.52191 0.08096 0.31164 0.0
C1350 C 0.53851 0.04403 0.31647 0.0
C1351 C 0.51945 0.03265 0.30936 0.0
C1352 C 0.50138 0.04646 0.30357 0.0
C1353 C 0.50255 0.06998 0.30482 0.0
C1354 C 0.50246 0.97214 0.294 0.0
C1355 C 0.51901 0.95888 0.30359 0.0
C1356 C 0.50245 0.99548 0.29592 0.0
C1357 C 0.51884 1.007 0.30785 0.0
C1358 C 0.53492 0.99333 0.31815 0.0
C1359 C 0.53527 0.97005 0.31568 0.0
H1360 H 0.72375 0.98792 0.45112 0.0
H1361 H 0.72095 0.98257 0.52175 0.0
H1362 H 0.72474 0.02812 0.45341 0.0
H1363 H 0.72147 0.02274 0.52423 0.0
H1364 H 0.74039 0.09576 0.52571 0.0
H1365 H 0.73997 0.05591 0.52242 0.0
H1366 H 0.70808 0.0623 0.45929 0.0
H1367 H 0.70959 0.10266 0.4623 0.0
C1368 C 0.72326 0.99526 0.46724 0.0
C1369 C 0.72222 0.9815 0.48623 0.0
C1370 C 0.7237 0.01863 0.46859 0.0
C1371 C 0.72318 0.02955 0.48903 0.0
C1372 C 0.72224 0.01563 0.50803 0.0
C1373 C 0.72179 0.99226 0.50666 0.0
C1374 C 0.73336 0.08879 0.51097 0.0
C1375 C 0.7251 0.10294 0.49429 0.0
C1376 C 0.7329 0.06555 0.50914 0.0
C1377 C 0.72383 0.05498 0.49062 0.0
C1378 C 0.71548 0.06921 0.47384 0.0
C1379 C 0.7163 0.09264 0.47553 0.0
H1380 H 0.08814 0.75156 0.57326 0.0
H1381 H 0.08291 0.75275 0.50261 0.0
H1382 H 0.04768 0.74938 0.57606 0.0
H1383 H 0.04323 0.7507 0.50522 0.0
H1384 H 0.97155 0.72924 0.5115 0.0
H1385 H 1.01177 0.73034 0.51122 0.0
H1386 H 1.01153 0.76359 0.57339 0.0
H1387 H 0.9712 0.76112 0.57419 0.0
C1388 C 0.07854 0.75132 0.55828 0.0
C1389 C 0.08946 0.7521 0.53768 0.0
C1390 C 0.05502 0.75015 0.55983 0.0
C1391 C 0.04129 0.74947 0.54087 0.0
C1392 C 0.05245 0.75052 0.52043 0.0
C1393 C 0.07568 0.75187 0.51891 0.0
C1394 C 0.97997 0.73689 0.52512 0.0
C1395 C 0.96759 0.74527 0.54272 0.0
C1396 C 1.00338 0.73776 0.52491 0.0
C1397 C 0.01579 0.74765 0.54198 0.0
C1398 C 1.00327 0.75581 0.55976 0.0
C1399 C 0.97983 0.7545 0.56019 0.0
H1400 H 0.32925 0.98738 0.47819 0.0
H1401 H 0.35616 0.98935 0.54358 0.0
H1402 H 0.32749 0.02738 0.47688 0.0
H1403 H 0.3551 0.02973 0.54219 0.0
H1404 H 0.33566 0.10289 0.54218 0.0
H1405 H 0.33724 0.06288 0.54354 0.0
H1406 H 0.34242 0.06203 0.4727 0.0
H1407 H 0.34016 0.10235 0.47151 0.0
C1408 C 0.33499 0.99632 0.49238 0.0
C1409 C 0.34289 0.98457 0.51101 0.0
C1410 C 0.33413 0.01967 0.49156 0.0
C1411 C 0.34121 0.03275 0.50932 0.0
C1412 C 0.34911 0.0209 0.52806 0.0
C1413 C 0.34988 0.99742 0.5289 0.0
C1414 C 0.33716 0.09427 0.52678 0.0
C1415 C 0.33783 0.10641 0.50672 0.0
C1416 C 0.33825 0.07094 0.52757 0.0
C1417 C 0.34013 0.05826 0.5083 0.0
C1418 C 0.34072 0.0705 0.48813 0.0
C1419 C 0.33956 0.09396 0.48736 0.0
H1420 H 0.08679 0.37144 0.48548 0.0
H1421 H 0.07985 0.35093 0.55323 0.0
H1422 H 0.04668 0.37019 0.48126 0.0
H1423 H 0.04013 0.3488 0.54906 0.0
H1424 H 0.96562 0.36099 0.54254 0.0
H1425 H 1.00566 0.36305 0.54682 0.0
H1426 H 1.01358 0.35294 0.47708 0.0
H1427 H 0.97381 0.35176 0.47296 0.0
C1428 C 0.07679 0.36652 0.4995 0.0
C1429 C 0.08703 0.36148 0.51976 0.0
C1430 C 0.05346 0.36562 0.4971 0.0
C1431 C 0.0392 0.35941 0.51479 0.0
C1432 C 0.04973 0.35415 0.53494 0.0
C1433 C 0.07291 0.35524 0.53734 0.0
C1434 C 0.97589 0.35914 0.52812 0.0
C1435 C 0.96598 0.35619 0.50737 0.0
C1436 C 0.99921 0.36023 0.53053 0.0
C1437 C 1.01382 0.35826 0.51234 0.0
C1438 C 1.00366 0.35505 0.49167 0.0
C1439 C 0.98046 0.35414 0.48928 0.0
H1440 H 0.97124 0.23871 0.33748 0.0
H1441 H 0.03806 0.22914 0.31628 0.0
H1442 H 0.96719 0.26833 0.31002 0.0
H1443 H 0.03406 0.25847 0.28868 0.0
H1444 H 0.02803 0.32836 0.25616 0.0
H1445 H 0.0322 0.29669 0.28133 0.0
H1446 H 0.96342 0.28081 0.27348 0.0
H1447 H 0.95935 0.31245 0.24871 0.0
C1448 C 0.98498 0.2425 0.32667 0.0
C1449 C 1.00493 0.23098 0.32928 0.0
C1450 C 0.9827 0.25974 0.31074 0.0
C1451 C 1.0003 0.26642 0.29669 0.0
C1452 C 0.02007 0.2545 0.29908 0.0
C1453 C 0.02231 0.23726 0.31492 0.0
C1454 C 1.01385 0.31793 0.25948 0.0
C1455 C 0.99334 0.32329 0.24999 0.0
C1456 C 0.01621 0.29956 0.27411 0.0
C1457 C 0.99814 0.28572 0.28005 0.0
C1458 C 0.97781 0.29089 0.27005 0.0
C1459 C 0.97549 0.30914 0.25544 0.0
H1460 H 0.7879 0.98142 0.36053 0.0
H1461 H 0.80762 0.04893 0.3506 0.0
H1462 H 0.76068 0.98513 0.33149 0.0
H1463 H 0.7807 0.05283 0.32104 0.0
H1464 H 0.71196 0.06009 0.28745 0.0
H1465 H 0.74345 0.05686 0.31239 0.0
H1466 H 0.75009 0.98851 0.29519 0.0
H1467 H 0.71831 0.99172 0.27107 0.0
C1468 C 0.78707 0.99684 0.35164 0.0
C1469 C 0.80053 0.0146 0.35798 0.0
C1470 C 0.77117 0.99915 0.33481 0.0
C1471 C 0.76796 0.01942 0.32348 0.0
C1472 C 0.78205 0.037 0.32929 0.0
C1473 C 0.79792 0.03464 0.34616 0.0
C1474 C 0.72048 0.04453 0.28858 0.0
C1475 C 0.71248 0.02623 0.27693 0.0
C1476 C 0.73867 0.04257 0.30307 0.0
C1477 C 0.74962 0.02226 0.30643 0.0
C1478 C 0.74212 1.00434 0.29385 0.0
C1479 C 0.72393 1.00626 0.27958 0.0
H1480 H 0.98277 0.79075 0.33075 0.0
H1481 H 0.04877 0.77254 0.34827 0.0
H1482 H 0.98486 0.7683 0.298 0.0
H1483 H 0.05066 0.74882 0.31638 0.0
H1484 H 0.05456 0.71027 0.2534 0.0
H1485 H 0.05395 0.73854 0.28131 0.0
H1486 H 0.98285 0.73603 0.2813 0.0
H1487 H 0.98397 0.70926 0.25202 0.0
C1488 C 0.99791 0.78207 0.32749 0.0
C1489 C 0.01567 0.78389 0.34223 0.0
C1490 C 0.99904 0.76868 0.30868 0.0
C1491 C 0.01785 0.75593 0.30397 0.0
C1492 C 0.03586 0.75827 0.31861 0.0
C1493 C 0.03485 0.77206 0.3372 0.0
C1494 C 0.03874 0.71611 0.25899 0.0
C1495 C 0.01919 0.70693 0.25042 0.0
C1496 C 0.03834 0.73227 0.27554 0.0
C1497 C 0.01835 0.73986 0.28462 0.0
C1498 C 0.9988 0.73125 0.27523 0.0
C1499 C 0.99929 0.71542 0.25837 0.0
H1500 H 0.33523 0.99588 0.27334 0.0
H1501 H 0.31651 0.0641 0.27062 0.0
H1502 H 0.3053 0.98813 0.29923 0.0
H1503 H 0.28703 0.05663 0.29717 0.0
H1504 H 0.22774 0.036 0.34185 0.0
H1505 H 0.25263 0.04216 0.3101 0.0
H1506 H 0.29545 0.99143 0.33533 0.0
H1507 H 0.27091 0.98514 0.36587 0.0
C1508 C 0.32462 1.00926 0.27803 0.0
C1509 C 0.32863 0.03065 0.26954 0.0
C1510 C 0.3074 1.00489 0.29331 0.0
C1511 C 0.29343 0.02174 0.30108 0.0
C1512 C 0.29696 0.04299 0.29186 0.0
C1513 C 0.31411 0.04732 0.27647 0.0
C1514 C 0.24216 0.0258 0.34026 0.0
C1515 C 0.24692 1.00995 0.35679 0.0
C1516 C 0.25678 0.02953 0.32209 0.0
C1517 C 0.27654 0.01735 0.3196 0.0
C1518 C 0.28058 1.00108 0.33583 0.0
C1519 C 0.26626 0.99752 0.35378 0.0
H1520 H 0.05129 0.69912 0.81055 0.0
H1521 H 0.98429 0.72001 0.81882 0.0
H1522 H 0.05668 0.72726 0.7818 0.0
H1523 H 0.98967 0.7484 0.79041 0.0
H1524 H 0.99808 0.7813 0.72126 0.0
H1525 H 0.9929 0.75577 0.75241 0.0
H1526 H 0.06112 0.76414 0.77007 0.0
H1527 H 0.06626 0.78933 0.73874 0.0
C1528 C 0.03778 0.70999 0.80665 0.0
C1529 C 0.01735 0.70704 0.81747 0.0
C1530 C 0.04086 0.72633 0.78994 0.0
C1531 C 0.02363 0.74048 0.78317 0.0
C1532 C 1.0034 0.73788 0.79449 0.0
C1533 C 1.00036 0.7216 0.8112 0.0
C1534 C 1.01194 0.77801 0.73195 0.0
C1535 C 0.0326 0.78778 0.72721 0.0
C1536 C 1.00898 0.7632 0.75004 0.0
C1537 C 0.02656 0.75736 0.76422 0.0
C1538 C 0.04709 0.76759 0.75968 0.0
C1539 C 0.05002 0.78242 0.74166 0.0
H1540 H 0.32997 0.07181 0.81372 0.0
H1541 H 0.31503 1.00335 0.82603 0.0
H1542 H 0.30198 0.0729 0.785 0.0
H1543 H 0.28795 1.00388 0.79656 0.0
H1544 H 0.23261 1.01005 0.74424 0.0
H1545 H 0.25568 1.01052 0.77764 0.0
H1546 H 0.29227 0.0658 0.75053 0.0
H1547 H 0.26912 0.06593 0.71873 0.0
C1548 C 0.32069 0.05694 0.81042 0.0
C1549 C 0.32513 0.03755 0.82261 0.0
C1550 C 0.3046 0.05737 0.79346 0.0
C1551 C 0.29233 0.03831 0.78745 0.0
C1552 C 0.29645 0.0191 0.8002 0.0
C1553 C 0.31231 0.01878 0.81733 0.0
C1554 C 0.24524 0.0226 0.7457 0.0
C1555 C 0.24848 0.03802 0.72834 0.0
C1556 C 0.2589 0.02277 0.76491 0.0
C1557 C 0.2764 0.03831 0.76756 0.0
C1558 C 0.27909 0.05376 0.7502 0.0
C1559 C 0.26558 0.05367 0.73139 0.0
H1560 H 0.04195 0.3276 0.77872 0.0
H1561 H 0.97418 0.31879 0.79773 0.0
H1562 H 0.03861 0.29853 0.75241 0.0
H1563 H 0.97091 0.28822 0.77216 0.0
H1564 H 0.96306 0.24397 0.71229 0.0
H1565 H 0.96655 0.27149 0.7404 0.0
H1566 H 0.03734 0.2662 0.73677 0.0
H1567 H 0.03349 0.2395 0.70737 0.0
C1568 C 0.02625 0.31914 0.77767 0.0
C1569 C 1.00837 0.32601 0.79079 0.0
C1570 C 0.02431 0.30196 0.76232 0.0
C1571 C 1.00441 0.29016 0.75928 0.0
C1572 C 0.9866 0.29662 0.77302 0.0
C1573 C 0.98848 0.31422 0.78823 0.0
C1574 C 0.97949 0.24858 0.71744 0.0
C1575 C 0.99797 0.23915 0.7071 0.0
C1576 C 0.98155 0.2646 0.73403 0.0
C1577 C 1.00229 0.27198 0.74167 0.0
C1578 C 0.02086 0.26198 0.73164 0.0
C1579 C 0.01875 0.24616 0.71465 0.0
H1580 H 0.78172 0.06291 0.73926 0.0
H1581 H 0.78896 0.99248 0.73894 0.0
H1582 H 0.75533 0.05967 0.76937 0.0
H1583 H 0.76331 0.9891 0.76983 0.0
H1584 H 0.6979 0.98578 0.80737 0.0
H1585 H 0.7281 0.98886 0.78162 0.0
H1586 H 0.74237 0.05425 0.80486 0.0
H1587 H 0.71097 0.05119 0.83042 0.0
C1588 C 0.77804 0.04663 0.74584 0.0
C1589 C 0.78779 0.02797 0.73623 0.0
C1590 C 0.76274 0.04474 0.76346 0.0
C1591 C 0.75641 0.02407 0.77258 0.0
C1592 C 0.76686 1.00544 0.76341 0.0
C1593 C 0.78204 1.00734 0.74562 0.0
C1594 C 0.70775 1.00072 0.80752 0.0
C1595 C 0.70185 0.01802 0.82163 0.0
C1596 C 0.72542 1.00252 0.79247 0.0
C1597 C 0.73839 0.02185 0.7905 0.0
C1598 C 0.733 0.03905 0.80524 0.0
C1599 C 0.7151 0.03718 0.82045 0.0
H1600 H 0.30671 0.26213 1.0029 0.0
H1601 H 0.31176 0.27093 0.07289 0.0
H1602 H 0.27528 0.28671 1.00146 0.0
H1603 H 0.28016 0.2959 0.07153 0.0
H1604 H 0.21282 0.33005 0.06571 0.0
H1605 H 0.24199 0.30267 0.0671 0.0
H1606 H 0.26349 0.32351 1.00233 0.0
H1607 H 0.23404 0.35081 1.00096 0.0
C1608 C 0.30099 0.2691 0.01816 0.0
C1609 C 0.31207 0.2641 0.03806 0.0
C1610 C 0.28289 0.2836 0.01728 0.0
C1611 C 0.27477 0.29394 0.03628 0.0
C1612 C 0.28543 0.2884 0.05639 0.0
C1613 C 0.30371 0.27387 0.05726 0.0
C1614 C 0.22351 0.32864 0.05154 0.0
C1615 C 0.22055 0.34283 0.0331 0.0
C1616 C 0.24063 0.31293 0.05246 0.0
C1617 C 0.25571 0.31049 0.03495 0.0
C1618 C 0.25237 0.32432 0.01622 0.0
C1619 C 0.23526 0.34015 0.01534 0.0
H1620 H 0.34389 0.79336 1.01203 0.0
H1621 H 0.3123 0.81718 0.07035 0.0
H1622 H 0.31469 0.76588 1.00791 0.0
H1623 H 0.28258 0.7904 0.06596 0.0
H1624 H 0.24134 0.72566 0.06563 0.0
H1625 H 0.26856 0.75535 0.06913 0.0
H1626 H 0.28046 0.75369 0.9991 0.0
H1627 H 0.25403 0.72364 0.99601 0.0
C1628 C 0.33045 0.79314 0.02376 0.0
C1629 C 0.3307 0.80792 0.04146 0.0
C1630 C 0.3134 0.77718 0.02141 0.0
C1631 C 0.29563 0.77527 0.03658 0.0
C1632 C 0.29576 0.79053 0.05398 0.0
C1633 C 0.31288 0.80632 0.05639 0.0
C1634 C 0.24942 0.73194 0.0509 0.0
C1635 C 0.24499 0.72208 0.03046 0.0
C1636 C 0.26532 0.74915 0.05286 0.0
C1637 C 0.27749 0.75742 0.03447 0.0
C1638 C 0.27232 0.74794 1.01396 0.0
C1639 C 0.25666 0.73067 1.01207 0.0
H1640 H 0.77715 0.35004 0.01948 0.0
H1641 H 0.78331 0.343 0.08982 0.0
H1642 H 0.75028 0.31995 0.01927 0.0
H1643 H 0.75577 0.31381 0.08998 0.0
H1644 H 0.71173 0.25362 0.08703 0.0
H1645 H 0.74269 0.27931 0.08471 0.0
H1646 H 0.71524 0.30781 0.02534 0.0
H1647 H 0.68508 0.28124 0.02721 0.0
C1648 C 0.77295 0.34194 0.03494 0.0
C1649 C 0.78279 0.34909 0.05462 0.0
C1650 C 0.75712 0.3247 0.03492 0.0
C1651 C 0.75017 0.31399 0.05464 0.0
C1652 C 0.76051 0.32093 0.07425 0.0
C1653 C 0.7765 0.33796 0.07421 0.0
C1654 C 0.71254 0.26508 0.07321 0.0
C1655 C 0.69572 0.26502 0.05726 0.0
C1656 C 0.7303 0.28025 0.072 0.0
C1657 C 0.7319 0.29637 0.05496 0.0
C1658 C 0.71528 0.29581 0.03867 0.0
C1659 C 0.69769 0.28042 0.03974 0.0
H1660 H 0.75298 0.71393 0.02997 0.0
H1661 H 0.80537 0.7541 1.00313 0.0
H1662 H 0.73266 0.74665 0.03987 0.0
H1663 H 0.78453 0.78747 1.01258 0.0
H1664 H 0.7236 0.83723 1.00575 0.0
H1665 H 0.75021 0.80753 1.00104 0.0
H1666 H 0.72988 0.77895 0.06323 0.0
H1667 H 0.70361 0.80881 0.06806 0.0
C1668 C 0.76059 0.72983 0.02679 0.0
C1669 C 0.78134 0.73102 0.01636 0.0
C1670 C 0.74872 0.74882 0.0324 0.0
C1671 C 0.75666 0.77015 0.02723 0.0
C1672 C 0.77763 0.77151 0.01694 0.0
C1673 C 0.78985 0.75229 1.01175 0.0
C1674 C 0.72518 0.82498 0.01877 0.0
C1675 C 0.71122 0.82584 0.03739 0.0
C1676 C 0.74055 0.80776 0.01602 0.0
C1677 C 0.74238 0.79034 0.03157 0.0
C1678 C 0.72902 0.7917 0.05062 0.0
C1679 C 0.71393 0.80912 0.05355 0.0
H1680 H 0.56225 0.74528 0.80292 0.0
H1681 H 0.49644 0.762 0.82252 0.0
H1682 H 0.56044 0.77168 0.77242 0.0
H1683 H 0.4945 0.78865 0.79163 0.0
H1684 H 0.4914 0.8242 0.72304 0.0
H1685 H 0.49233 0.79622 0.75241 0.0
H1686 H 0.5613 0.80975 0.76217 0.0
H1687 H 0.56028 0.8378 0.73278 0.0
C1688 C 0.54718 0.75443 0.8007 0.0
C1689 C 0.52947 0.75104 0.81558 0.0
C1690 C 0.54622 0.76995 0.78307 0.0
C1691 C 0.5274 0.78292 0.77911 0.0
C1692 C 0.50937 0.77915 0.79365 0.0
C1693 C 0.51043 0.76368 0.81154 0.0
C1694 C 0.50692 0.8211 0.73118 0.0
C1695 C 0.52584 0.83346 0.72491 0.0
C1696 C 0.5074 0.80502 0.74842 0.0
C1697 C 0.52687 0.80024 0.76022 0.0
C1698 C 0.5459 0.81235 0.75365 0.0
C1699 C 0.54537 0.82862 0.73655 0.0
H1700 H 0.22991 0.56472 0.75362 0.0
H1701 H 0.22431 0.49425 0.76056 0.0
H1702 H 0.26083 0.56444 0.77933 0.0
H1703 H 0.25381 0.49388 0.78708 0.0
H1704 H 0.31319 0.49383 0.83274 0.0
H1705 H 0.28747 0.49431 0.80173 0.0
H1706 H 0.27487 0.56316 0.81303 0.0
H1707 H 0.30128 0.56279 0.84251 0.0
C1708 C 0.2353 0.54911 0.76046 0.0
C1709 C 0.22427 0.52956 0.75463 0.0
C1710 C 0.25304 0.54886 0.77573 0.0
C1711 C 0.26036 0.52909 0.78621 0.0
C1712 C 0.24953 0.50957 0.77973 0.0
C1713 C 0.23216 0.50981 0.76431 0.0
C1714 C 0.30526 0.50915 0.82828 0.0
C1715 C 0.30969 0.52823 0.84048 0.0
C1716 C 0.29001 0.50947 0.81048 0.0
C1717 C 0.27825 0.52881 0.80427 0.0
C1718 C 0.28328 0.54787 0.81636 0.0
C1719 C 0.29863 0.5476 0.83376 0.0
H1720 H 0.51298 0.2065 0.73813 0.0
H1721 H 0.58017 0.22559 0.72513 0.0
H1722 H 0.51096 0.23398 0.76713 0.0
H1723 H 0.5782 0.2532 0.75388 0.0
H1724 H 0.57491 0.28587 0.82316 0.0
H1725 H 0.57753 0.26041 0.79223 0.0
H1726 H 0.509 0.27102 0.77756 0.0
H1727 H 0.50647 0.29604 0.80838 0.0
C1728 C 0.52726 0.21678 0.74112 0.0
C1729 C 0.54669 0.21363 0.72886 0.0
C1730 C 0.52614 0.23273 0.75794 0.0
C1731 C 0.54444 0.24623 0.76338 0.0
C1732 C 0.56374 0.24322 0.7508 0.0
C1733 C 0.56481 0.22737 0.73396 0.0
C1734 C 0.5605 0.2831 0.81311 0.0
C1735 C 0.54049 0.29338 0.81854 0.0
C1736 C 0.56194 0.26831 0.79522 0.0
C1737 C 0.54341 0.26305 0.78204 0.0
C1738 C 0.52364 0.27391 0.78722 0.0
C1739 C 0.52224 0.28865 0.80496 0.0
H1740 H 0.76132 0.55822 0.82633 0.0
H1741 H 0.75603 0.48876 0.81448 0.0
H1742 H 0.78788 0.56205 0.79618 0.0
H1743 H 0.78185 0.49246 0.78393 0.0
H1744 H 0.84815 0.50046 0.74705 0.0
H1745 H 0.81873 0.49665 0.77425 0.0
H1746 H 0.79766 0.5628 0.75889 0.0
H1747 H 0.82753 0.56661 0.73216 0.0
C1748 C 0.76549 0.5438 0.8171 0.0
C1749 C 0.7564 0.5232 0.82329 0.0
C1750 C 0.78082 0.54594 0.79955 0.0
C1751 C 0.78768 0.52753 0.7873 0.0
C1752 C 0.77776 0.50709 0.79295 0.0
C1753 C 0.76252 0.50499 0.81049 0.0
C1754 C 0.83707 0.51407 0.74917 0.0
C1755 C 0.8405 0.53378 0.73706 0.0
C1756 C 0.81995 0.51193 0.76493 0.0
C1757 C 0.80539 0.52944 0.76933 0.0
C1758 C 0.80845 0.54894 0.75664 0.0
C1759 C 0.82558 0.55105 0.74091 0.0
H1760 H 0.55255 0.2068 0.28594 0.0
H1761 H 0.48409 0.22393 0.28484 0.0
H1762 H 0.56055 0.23579 0.2588 0.0
H1763 H 0.49197 0.25402 0.25907 0.0
H1764 H 0.5062 0.29299 0.19531 0.0
H1765 H 0.49847 0.2663 0.22458 0.0
H1766 H 0.56633 0.27017 0.24534 0.0
H1767 H 0.57406 0.2959 0.21508 0.0
C1768 C 0.53918 0.21692 0.28008 0.0
C1769 C 0.51761 0.21242 0.2875 0.0
C1770 C 0.54377 0.23398 0.2645 0.0
C1771 C 0.52699 0.24771 0.25587 0.0
C1772 C 0.50554 0.24383 0.26432 0.0
C1773 C 0.50096 0.22656 0.27962 0.0
C1774 C 0.51946 0.28834 0.20622 0.0
C1775 C 0.5408 0.2969 0.2025 0.0
C1776 C 0.51501 0.27288 0.22337 0.0
C1777 C 0.53165 0.26538 0.23795 0.0
C1778 C 0.55288 0.27469 0.23462 0.0
C1779 C 0.55735 0.28994 0.21726 0.0
H1780 H 0.76874 0.56926 0.20473 0.0
H1781 H 0.76404 0.49936 0.21674 0.0
H1782 H 0.7952 0.57273 0.2342 0.0
H1783 H 0.79038 0.50276 0.24706 0.0
H1784 H 0.85537 0.51061 0.28522 0.0
H1785 H 0.82551 0.50685 0.2592 0.0
H1786 H 0.80799 0.5747 0.26938 0.0
H1787 H 0.83894 0.57858 0.29497 0.0
C1788 C 0.77305 0.55447 0.21386 0.0
C1789 C 0.76409 0.53386 0.20769 0.0
C1790 C 0.78846 0.55654 0.23117 0.0
C1791 C 0.79573 0.53813 0.24359 0.0
C1792 C 0.78608 0.51754 0.23796 0.0
C1793 C 0.77067 0.51547 0.22043 0.0
C1794 C 0.84504 0.52479 0.28223 0.0
C1795 C 0.84994 0.54494 0.29263 0.0
C1796 C 0.82753 0.52256 0.2671 0.0
C1797 C 0.81371 0.54037 0.26145 0.0
C1798 C 0.81811 0.56044 0.27252 0.0
C1799 C 0.83585 0.56269 0.2877 0.0
H1800 H 0.49832 0.72895 0.20899 0.0
H1801 H 0.56546 0.74162 0.18976 0.0
H1802 H 0.50031 0.75877 0.23539 0.0
H1803 H 0.56742 0.77193 0.21557 0.0
H1804 H 0.57147 0.82049 0.27168 0.0
H1805 H 0.56977 0.78727 0.24977 0.0
H1806 H 0.49987 0.79619 0.24148 0.0
H1807 H 0.50166 0.82909 0.2642 0.0
C1808 C 0.51374 0.73779 0.21067 0.0
C1809 C 0.53181 0.73227 0.19723 0.0
C1810 C 0.5148 0.75538 0.22571 0.0
C1811 C 0.53398 0.76849 0.22798 0.0
C1812 C 0.55232 0.76244 0.21497 0.0
C1813 C 0.55127 0.74475 0.2 0.0
C1814 C 0.55562 0.81522 0.2655 0.0
C1815 C 0.53671 0.82772 0.27008 0.0
C1816 C 0.55465 0.79608 0.25252 0.0
C1817 C 0.53471 0.78852 0.24321 0.0
C1818 C 0.51564 0.80082 0.24829 0.0
C1819 C 0.51661 0.81994 0.26147 0.0
H1820 H 0.30493 0.50576 0.21442 0.0
H1821 H 0.31999 0.57274 0.23138 0.0
H1822 H 0.27715 0.50395 0.24352 0.0
H1823 H 0.29269 0.57091 0.2609 0.0
H1824 H 0.22649 0.56978 0.29915 0.0
H1825 H 0.25629 0.57146 0.27207 0.0
H1826 H 0.26543 0.50137 0.27964 0.0
H1827 H 0.23527 0.49979 0.30618 0.0
C1828 C 0.30274 0.52003 0.22463 0.0
C1829 C 0.31522 0.53935 0.22028 0.0
C1830 C 0.28657 0.51904 0.24159 0.0
C1831 C 0.28201 0.53731 0.25513 0.0
C1832 C 0.29494 0.55644 0.251 0.0
C1833 C 0.31104 0.55744 0.23403 0.0
C1834 C 0.23502 0.55473 0.29534 0.0
C1835 C 0.22816 0.53465 0.30532 0.0
C1836 C 0.25238 0.55565 0.27958 0.0
C1837 C 0.26381 0.53653 0.27298 0.0
C1838 C 0.2572 0.51657 0.28348 0.0
C1839 C 0.23985 0.51566 0.29915 0.0
H1840 H 0.74281 0.84608 0.54714 0.0
H1841 H 0.75548 0.85342 0.47778 0.0
H1842 H 0.77016 0.81699 0.54963 0.0
H1843 H 0.78358 0.82524 0.48015 0.0
H1844 H 0.82914 0.76709 0.48496 0.0
H1845 H 0.79696 0.79065 0.48321 0.0
H1846 H 0.8064 0.80719 0.55147 0.0
H1847 H 0.83805 0.78262 0.55324 0.0
C1848 C 0.7512 0.84132 0.53223 0.0
C1849 C 0.74652 0.85235 0.51215 0.0
C1850 C 0.76736 0.82468 0.53372 0.0
C1851 C 0.77986 0.81837 0.51521 0.0
C1852 C 0.77453 0.82893 0.49496 0.0
C1853 C 0.75819 0.8454 0.49348 0.0
C1854 C 0.82403 0.77533 0.49979 0.0
C1855 C 0.83629 0.7725 0.51932 0.0
C1856 C 0.80558 0.78933 0.49872 0.0
C1857 C 0.79865 0.8016 0.51705 0.0
C1858 C 0.81057 0.79814 0.53687 0.0
C1859 C 0.82892 0.78384 0.53799 0.0
H1860 H 0.8221 0.32737 0.54038 0.0
H1861 H 0.83987 0.32343 0.47192 0.0
H1862 H 0.79552 0.29745 0.53592 0.0
H1863 H 0.81326 0.29333 0.46737 0.0
H1864 H 0.75187 0.24897 0.46048 0.0
H1865 H 0.77631 0.28061 0.46514 0.0
H1866 H 0.79017 0.25887 0.53153 0.0
H1867 H 0.76545 0.22714 0.52678 0.0
C1868 C 0.82017 0.32042 0.52419 0.0
C1869 C 0.83328 0.32844 0.50649 0.0
C1870 C 0.80493 0.30283 0.52167 0.0
C1871 C 0.80185 0.29235 0.50126 0.0
C1872 C 0.81459 0.30077 0.48339 0.0
C1873 C 0.83 0.31829 0.48596 0.0
C1874 C 0.75991 0.25094 0.47622 0.0
C1875 C 0.75627 0.23517 0.49324 0.0
C1876 C 0.77429 0.2692 0.47885 0.0
C1877 C 0.78576 0.27279 0.49872 0.0
C1878 C 0.78174 0.25724 0.51596 0.0
C1879 C 0.76741 0.23882 0.51326 0.0
H1880 H 0.21184 0.79567 0.51199 0.0
H1881 H 0.23831 0.76603 0.57093 0.0
H1882 H 0.24404 0.81982 0.50905 0.0
H1883 H 0.27104 0.78928 0.56759 0.0
H1884 H 0.31817 0.84857 0.57056 0.0
H1885 H 0.28767 0.82245 0.57204 0.0
H1886 H 0.27993 0.82887 0.5016 0.0
H1887 H 0.3101 0.85566 0.50045 0.0
C1888 C 0.22477 0.79388 0.52411 0.0
C1889 C 0.2222 0.77856 0.54167 0.0
C1890 C 0.24353 0.80787 0.52242 0.0
C1891 C 0.26077 0.80711 0.53811 0.0
C1892 C 0.25835 0.79121 0.55529 0.0
C1893 C 0.23949 0.77744 0.5571 0.0
C1894 C 0.31025 0.8442 0.55527 0.0
C1895 C 0.31706 0.85444 0.53535 0.0
C1896 C 0.2925 0.82896 0.55608 0.0
C1897 C 0.28065 0.823 0.53697 0.0
C1898 C 0.28793 0.83288 0.51692 0.0
C1899 C 0.30564 0.84823 0.51616 0.0
H1900 H 0.23186 0.33656 0.48357 0.0
H1901 H 0.20529 0.30823 0.54336 0.0
H1902 H 0.25918 0.30742 0.48198 0.0
H1903 H 0.23305 0.27921 0.54222 0.0
H1904 H 0.26676 0.21508 0.52062 0.0
H1905 H 0.24361 0.24681 0.52629 0.0
H1906 H 0.29101 0.28791 0.49189 0.0
H1907 H 0.3142 0.25537 0.48581 0.0
C1908 C 0.23204 0.32435 0.49674 0.0
C1909 C 0.21602 0.32522 0.51366 0.0
C1910 C 0.24799 0.3074 0.49584 0.0
C1911 C 0.24882 0.29022 0.5118 0.0
C1912 C 0.23318 0.29153 0.52919 0.0
C1913 C 0.2172 0.30856 0.53008 0.0
C1914 C 0.27267 0.23096 0.51465 0.0
C1915 C 0.29284 0.23228 0.50303 0.0
C1916 C 0.25916 0.24948 0.51796 0.0
C1917 C 0.26485 0.27062 0.50966 0.0
C1918 C 0.28548 0.27218 0.49851 0.0
C1919 C 0.2992 0.25344 0.49529 0.0
H1920 H 0.08209 0.17825 0.40636 0.0
H1921 H 0.04097 0.13274 0.37085 0.0
H1922 H 0.1118 0.15159 0.40665 0.0
H1923 H 0.07092 0.1061 0.37081 0.0
H1924 H 0.1188 0.05514 0.40093 0.0
H1925 H 0.08975 0.08228 0.39681 0.0
H1926 H 0.1386 0.1329 0.38396 0.0
H1927 H 0.16778 0.10557 0.38844 0.0
C1928 C 0.07942 0.1626 0.39845 0.0
C1929 C 0.05906 0.15761 0.38867 0.0
C1930 C 0.09658 0.14734 0.39847 0.0
C1931 C 0.09385 0.12662 0.38878 0.0
C1932 C 0.07356 0.12177 0.37868 0.0
C1933 C 0.0564 0.13709 0.3786 0.0
C1934 C 0.12334 0.07205 0.39707 0.0
C1935 C 0.14559 0.07824 0.39507 0.0
C1936 C 0.10665 0.08761 0.39456 0.0
C1937 C 0.11174 0.10986 0.39006 0.0
C1938 C 0.13405 0.11598 0.38767 0.0
C1939 C 0.15079 0.10033 0.3901 0.0
H1940 H 0.92453 0.14924 0.37359 0.0
H1941 H 0.96891 0.11516 0.41748 0.0
H1942 H 0.89607 0.12142 0.3813 0.0
H1943 H 0.9405 0.0877 0.42557 0.0
H1944 H 0.894 0.02986 0.41575 0.0
H1945 H 0.92149 0.058 0.40819 0.0
H1946 H 0.87149 0.10804 0.41092 0.0
H1947 H 0.84353 0.07949 0.41803 0.0
C1948 C 0.92823 0.1357 0.38475 0.0
C1949 C 0.94897 0.13422 0.39479 0.0
C1950 C 0.91186 0.11993 0.38938 0.0
C1951 C 0.91595 0.10235 0.40412 0.0
C1952 C 0.93684 0.10085 0.41394 0.0
C1953 C 0.95315 0.11658 0.40931 0.0
C1954 C 0.88875 0.04685 0.41489 0.0
C1955 C 0.86649 0.05239 0.41754 0.0
C1956 C 0.90463 0.06305 0.41064 0.0
C1957 C 0.89876 0.08532 0.40896 0.0
C1958 C 0.87652 0.09099 0.41187 0.0
C1959 C 0.86054 0.07468 0.41617 0.0
H1960 H 0.94212 0.83038 0.41822 0.0
H1961 H 0.98853 0.88117 0.39879 0.0
H1962 H 0.91319 0.85808 0.42063 0.0
H1963 H 0.96043 0.90875 0.40238 0.0
H1964 H 0.87001 0.91559 0.44205 0.0
H1965 H 0.89789 0.8871 0.43928 0.0
H1966 H 0.93025 0.92503 0.38763 0.0
H1967 H 0.90305 0.95396 0.39157 0.0
C1968 C 0.94618 0.84742 0.41455 0.0
C1969 C 0.96765 0.85337 0.40804 0.0
C1970 C 0.92961 0.86346 0.4161 0.0
C1971 C 0.93414 0.88597 0.41154 0.0
C1972 C 0.9558 0.89174 0.40542 0.0
C1973 C 0.97213 0.87576 0.40352 0.0
C1974 C 0.88322 0.91785 0.43021 0.0
C1975 C 0.88442 0.93716 0.41717 0.0
C1976 C 0.89917 0.90135 0.42843 0.0
C1977 C 0.91667 0.90345 0.41326 0.0
C1978 C 0.91754 0.92276 0.39996 0.0
C1979 C 0.9018 0.93943 0.40206 0.0
H1980 H 0.12714 0.9902 0.3993 0.0
H1981 H 0.17775 0.94411 0.38192 0.0
H1982 H 0.09931 0.96091 0.3959 0.0
H1983 H 0.15021 0.91531 0.37794 0.0
H1984 H 0.10449 0.86404 0.40839 0.0
H1985 H 0.12959 0.89513 0.40545 0.0
H1986 H 0.07941 0.9334 0.37269 0.0
H1987 H 0.05383 0.90188 0.37604 0.0
C1988 C 0.13224 0.97402 0.39417 0.0
C1989 C 0.15467 0.96938 0.39119 0.0
C1990 C 0.11631 0.95723 0.39222 0.0
C1991 C 0.12258 0.9356 0.38713 0.0
C1992 C 0.14484 0.93158 0.3825 0.0
C1993 C 0.16065 0.94817 0.38464 0.0
C1994 C 0.09877 0.87902 0.40044 0.0
C1995 C 0.07721 0.88048 0.39237 0.0
C1996 C 0.11325 0.89686 0.39861 0.0
C1997 C 0.10666 0.91677 0.38858 0.0
C1998 C 0.085 0.91834 0.38053 0.0
C1999 C 0.07041 0.90029 0.38233 0.0
H2000 H 0.13369 0.96845 0.69783 0.0
H2001 H 0.18044 0.93306 0.65872 0.0
H2002 H 0.10824 0.93719 0.69636 0.0
H2003 H 0.15478 0.90215 0.65631 0.0
H2004 H 0.1105 0.84198 0.66878 0.0
H2005 H 0.13708 0.87199 0.67292 0.0
H2006 H 0.08381 0.91866 0.67388 0.0
H2007 H 0.05746 0.88867 0.67062 0.0
C2008 C 0.13854 0.95396 0.68892 0.0
C2009 C 0.15915 0.9533 0.67846 0.0
C2010 C 0.12382 0.936 0.68784 0.0
C2011 C 0.12913 0.91688 0.67602 0.0
C2012 C 0.14998 0.91623 0.66584 0.0
C2013 C 0.16476 0.9341 0.66712 0.0
C2014 C 0.10448 0.85864 0.6699 0.0
C2015 C 0.08173 0.86273 0.6694 0.0
C2016 C 0.11979 0.876 0.67218 0.0
C2017 C 0.11285 0.89807 0.67387 0.0
C2018 C 0.09004 0.90204 0.67318 0.0
C2019 C 0.0748 0.88472 0.6711 0.0
H2020 H 0.05427 0.11956 0.64677 0.0
H2021 H 0.07952 0.16071 0.69832 0.0
H2022 H 0.08294 0.09273 0.65418 0.0
H2023 H 0.10811 0.13351 0.70624 0.0
H2024 H 0.17237 0.09655 0.68906 0.0
H2025 H 0.14105 0.12106 0.68872 0.0
H2026 H 0.09745 0.06551 0.67929 0.0
H2027 H 0.12909 0.04087 0.6791 0.0
C2028 C 0.06582 0.12272 0.65992 0.0
C2029 C 0.06477 0.1423 0.67186 0.0
C2030 C 0.08217 0.10722 0.66432 0.0
C2031 C 0.09791 0.11088 0.68082 0.0
C2032 C 0.09644 0.13025 0.69322 0.0
C2033 C 0.08003 0.1458 0.68878 0.0
C2034 C 0.15609 0.08944 0.68722 0.0
C2035 C 0.15329 0.06672 0.68389 0.0
C2036 C 0.13805 0.10355 0.68718 0.0
C2037 C 0.11666 0.09536 0.6838 0.0
C2038 C 0.11372 0.07245 0.68158 0.0
C2039 C 0.13184 0.05828 0.68165 0.0
H2040 H 0.97781 0.12688 0.6764 0.0
H2041 H 0.92713 0.17113 0.65404 0.0
H2042 H 0.95014 0.09754 0.68137 0.0
H2043 H 0.89959 0.14264 0.65994 0.0
H2044 H 0.85758 0.08366 0.6472 0.0
H2045 H 0.88644 0.1111 0.64419 0.0
H2046 H 0.91925 0.08202 0.70043 0.0
H2047 H 0.89039 0.05355 0.70276 0.0
C2048 C 0.96074 0.13045 0.67284 0.0
C2049 C 0.95478 0.15132 0.66455 0.0
C2050 C 0.9448 0.11363 0.67576 0.0
C2051 C 0.92244 0.11736 0.6707 0.0
C2052 C 0.91657 0.13863 0.66334 0.0
C2053 C 0.93245 0.15518 0.66011 0.0
C2054 C 0.87088 0.08302 0.65903 0.0
C2055 C 0.87143 0.06638 0.67537 0.0
C2056 C 0.88751 0.09902 0.65741 0.0
C2057 C 0.90525 0.09932 0.67231 0.0
C2058 C 0.90602 0.08244 0.68854 0.0
C2059 C 0.88938 0.06613 0.68999 0.0
H2060 H 0.94601 0.8631 0.6497 0.0
H2061 H 0.98517 0.89107 0.70152 0.0
H2062 H 0.91758 0.89036 0.65594 0.0
H2063 H 0.95641 0.91828 0.7082 0.0
H2064 H 0.9089 0.97774 0.69671 0.0
H2065 H 0.93835 0.95065 0.69307 0.0
H2066 H 0.88973 0.89992 0.68153 0.0
H2067 H 0.86061 0.927 0.68466 0.0
C2068 C 0.9485 0.87505 0.66253 0.0
C2069 C 0.96785 0.87486 0.67513 0.0
C2070 C 0.93208 0.89065 0.66625 0.0
C2071 C 0.93445 0.90655 0.68275 0.0
C2072 C 0.95398 0.90647 0.69525 0.0
C2073 C 0.97045 0.89079 0.69151 0.0
C2074 C 0.90456 0.96073 0.69369 0.0
C2075 C 0.88241 0.95455 0.69094 0.0
C2076 C 0.92144 0.94515 0.69162 0.0
C2077 C 0.91657 0.92301 0.68669 0.0
C2078 C 0.89428 0.91682 0.6848 0.0
C2079 C 0.87749 0.93235 0.68683 0.0
H2080 H 0.37861 0.11259 0.21937 0.0
H2081 H 0.38346 0.06371 0.16888 0.0
H2082 H 0.37266 0.14097 0.19137 0.0
H2083 H 0.37807 0.09219 0.14066 0.0
H2084 H 0.35085 0.14648 0.09475 0.0
H2085 H 0.35375 0.11732 0.12303 0.0
H2086 H 0.39069 0.16168 0.16415 0.0
H2087 H 0.38707 0.19059 0.13646 0.0
C2088 C 0.37868 0.10791 0.20226 0.0
C2089 C 0.3818 0.08582 0.1965 0.0
C2090 C 0.37528 0.12426 0.18607 0.0
C2091 C 0.37502 0.11913 0.16349 0.0
C2092 C 0.37787 0.09692 0.15777 0.0
C2093 C 0.38113 0.08053 0.17401 0.0
C2094 C 0.35938 0.14996 0.10995 0.0
C2095 C 0.3686 0.17092 0.11335 0.0
C2096 C 0.36124 0.13319 0.12615 0.0
C2097 C 0.37244 0.13696 0.14614 0.0
C2098 C 0.38155 0.15805 0.14936 0.0
C2099 C 0.37959 0.17471 0.13331 0.0
H2100 H 0.96564 0.37959 0.14705 0.0
H2101 H 0.9175 0.39609 0.1963 0.0
H2102 H 0.93827 0.38556 0.11821 0.0
H2103 H 0.89006 0.40153 0.16763 0.0
H2104 H 0.85255 0.43357 0.11123 0.0
H2105 H 0.88064 0.42683 0.13905 0.0
H2106 H 0.90509 0.37266 0.10105 0.0
H2107 H 0.87663 0.37957 0.07331 0.0
C2108 C 0.94915 0.38421 0.1518 0.0
C2109 C 0.94389 0.38739 0.17412 0.0
C2110 C 0.93337 0.38759 0.13519 0.0
C2111 C 0.91184 0.39427 0.14038 0.0
C2112 C 0.90651 0.39688 0.16279 0.0
C2113 C 0.92226 0.39355 0.17935 0.0
C2114 C 0.86371 0.42005 0.10904 0.0
C2115 C 0.86193 0.40685 0.09036 0.0
C2116 C 0.87993 0.41615 0.12497 0.0
C2117 C 0.89508 0.39889 0.12269 0.0
C2118 C 0.89385 0.38615 0.10348 0.0
C2119 C 0.87751 0.3901 0.08751 0.0
H2120 H 0.62669 0.96868 0.21796 0.0
H2121 H 0.68104 1.0029 0.18672 0.0
H2122 H 0.62759 0.94089 0.18924 0.0
H2123 H 0.68259 0.97499 0.15861 0.0
H2124 H 0.66508 0.93595 0.09784 0.0
H2125 H 0.66423 0.96273 0.12731 0.0
H2126 H 0.6467 0.91095 0.17385 0.0
H2127 H 0.64675 0.88441 0.14404 0.0
C2128 C 0.63902 0.97009 0.20515 0.0
C2129 C 0.65369 0.98806 0.20463 0.0
C2130 C 0.63962 0.95412 0.18866 0.0
C2131 C 0.65508 0.95565 0.17131 0.0
C2132 C 0.67009 0.9734 0.17125 0.0
C2133 C 0.66931 0.9894 0.18755 0.0
C2134 C 0.66115 0.93031 0.11439 0.0
C2135 C 0.65604 0.90808 0.11862 0.0
C2136 C 0.66075 0.94565 0.1314 0.0
C2137 C 0.65545 0.93914 0.15317 0.0
C2138 C 0.65054 0.91676 0.15734 0.0
C2139 C 0.65076 0.90146 0.14027 0.0
H2140 H 0.08033 0.63145 0.19309 0.0
H2141 H 0.0362 0.67285 0.15567 0.0
H2142 H 0.1078 0.63528 0.16399 0.0
H2143 H 0.06392 0.67746 0.127 0.0
H2144 H 0.11233 0.66482 0.06982 0.0
H2145 H 0.08327 0.66058 0.09777 0.0
H2146 H 0.13265 0.66087 0.14889 0.0
H2147 H 0.16119 0.66409 0.12121 0.0
C2148 C 0.07656 0.64152 0.17874 0.0
C2149 C 0.05608 0.65187 0.17679 0.0
C2150 C 0.09237 0.64385 0.16204 0.0
C2151 C 0.08824 0.65685 0.14306 0.0
C2152 C 0.06767 0.6671 0.14113 0.0
C2153 C 0.05179 0.66457 0.15772 0.0
C2154 C 0.1168 0.6641 0.08706 0.0
C2155 C 0.139 0.66467 0.09332 0.0
C2156 C 0.10021 0.6617 0.10312 0.0
C2157 C 0.10555 0.66005 0.12571 0.0
C2158 C 0.1278 0.66141 0.13175 0.0
C2159 C 0.14423 0.66351 0.11582 0.0
H2160 H 0.34945 1.00213 0.91952 0.0
H2161 H 0.41581 0.98383 0.9031 0.0
H2162 H 0.34767 0.97173 0.94671 0.0
H2163 H 0.41459 0.95453 0.93055 0.0
H2164 H 0.40021 0.88827 0.95898 0.0
H2165 H 0.3987 0.91961 0.93377 0.0
H2166 H 0.35999 0.95524 0.98097 0.0
H2167 H 0.36074 0.92307 1.00591 0.0
C2168 C 0.36378 0.99193 0.92209 0.0
C2169 C 0.38267 0.99515 0.90904 0.0
C2170 C 0.3628 0.9745 0.93763 0.0
C2171 C 0.3808 0.96018 0.94052 0.0
C2172 C 0.40008 0.96453 0.92832 0.0
C2173 C 0.40089 0.98155 0.91269 0.0
C2174 C 0.3912 0.90271 0.9639 0.0
C2175 C 0.38071 0.90326 0.98445 0.0
C2176 C 0.39051 0.92085 0.94953 0.0
C2177 C 0.37966 0.94032 0.95544 0.0
C2178 C 0.36848 0.9406 0.97578 0.0
C2179 C 0.36894 0.92219 0.99011 0.0
H2180 H 0.15769 0.40685 0.93154 0.0
H2181 H 0.10891 0.38163 0.97707 0.0
H2182 H 0.13205 0.40194 0.90107 0.0
H2183 H 0.08282 0.37761 0.94695 0.0
H2184 H 0.0448 0.35501 0.8879 0.0
H2185 H 0.07262 0.3577 0.91644 0.0
H2186 H 0.10064 0.41477 0.88318 0.0
H2187 H 0.07322 0.41132 0.85407 0.0
C2188 C 0.1414 0.40034 0.93505 0.0
C2189 C 0.13539 0.39456 0.95675 0.0
C2190 C 0.12655 0.39766 0.91755 0.0
C2191 C 0.10512 0.38931 0.92124 0.0
C2192 C 0.09919 0.38363 0.94311 0.0
C2193 C 0.11414 0.3861 0.96054 0.0
C2194 C 0.05706 0.36799 0.88652 0.0
C2195 C 0.0567 0.38293 0.8686 0.0
C2196 C 0.07298 0.36972 0.90311 0.0
C2197 C 0.08895 0.38668 0.90258 0.0
C2198 C 0.0889 0.40131 0.88428 0.0
C2199 C 0.07309 0.39938 0.8675 0.0
H2200 H 0.6677 0.16338 1.01083 0.0
H2201 H 0.62067 0.19516 0.96808 0.0
H2202 H 0.6729 0.13458 0.98368 0.0
H2203 H 0.62557 0.16622 0.94101 0.0
H2204 H 0.65293 0.12046 0.88873 0.0
H2205 H 0.65148 0.15072 0.91487 0.0
H2206 H 0.65261 0.10369 0.9689 0.0
H2207 H 0.65436 0.07363 0.94279 0.0
C2208 C 0.65851 0.16422 0.99559 0.0
C2209 C 0.64373 0.18148 0.9916 0.0
C2210 C 0.66139 0.14765 0.98006 0.0
C2211 C 0.64961 0.14797 0.96012 0.0
C2212 C 0.63511 0.16553 0.95603 0.0
C2213 C 0.63219 0.18206 0.9716 0.0
C2214 C 0.65312 0.11666 0.9062 0.0
C2215 C 0.65379 0.09469 0.91372 0.0
C2216 C 0.65211 0.13397 0.9212 0.0
C2217 C 0.65184 0.1297 0.94405 0.0
C2218 C 0.65305 0.10768 0.95147 0.0
C2219 C 0.65397 0.09041 0.93649 0.0
H2220 H 0.93536 0.64749 0.86674 0.0
H2221 H 0.98378 0.65594 0.91781 0.0
H2222 H 0.90606 0.65249 0.89354 0.0
H2223 H 0.95434 0.66135 0.9447 0.0
H2224 H 0.89322 0.64974 0.99095 0.0
H2225 H 0.92418 0.64444 0.96554 0.0
H2226 H 0.88912 0.68011 0.91482 0.0
H2227 H 0.85857 0.68523 0.93993 0.0
C2228 C 0.93983 0.65045 0.88369 0.0
C2229 C 0.96211 0.65134 0.88993 0.0
C2230 C 0.92292 0.6535 0.89916 0.0
C2231 C 0.9276 0.65754 0.92149 0.0
C2232 C 0.94991 0.65812 0.9278 0.0
C2233 C 0.96688 0.65514 0.91227 0.0
C2234 C 0.89224 0.65661 0.97444 0.0
C2235 C 0.87313 0.6677 0.96753 0.0
C2236 C 0.91004 0.65357 0.95979 0.0
C2237 C 0.90923 0.6615 0.9378 0.0
C2238 C 0.89034 0.67318 0.93128 0.0
C2239 C 0.87272 0.67622 0.94584 0.0
H2240 H 0.14698 0.42477 0.09117 0.0
H2241 H 0.12125 0.37051 0.05382 0.0
H2242 H 0.11876 0.41876 0.11887 0.0
H2243 H 0.09314 0.36383 0.08224 0.0
H2244 H 0.03381 0.37197 0.13105 0.0
H2245 H 0.06032 0.37646 0.1007 0.0
H2246 H 0.11074 0.39381 0.14753 0.0
H2247 H 0.08423 0.39019 0.1773 0.0
C2248 C 0.13527 0.41147 0.08887 0.0
C2249 C 0.13652 0.39803 0.07031 0.0
C2250 C 0.11912 0.40787 0.10494 0.0
C2251 C 0.10382 0.39047 0.10319 0.0
C2252 C 0.10457 0.37741 0.0842 0.0
C2253 C 0.12071 0.3812 0.06791 0.0
C2254 C 0.05064 0.37653 0.13475 0.0
C2255 C 0.05691 0.38089 0.15652 0.0
C2256 C 0.06587 0.3791 0.11738 0.0
C2257 C 0.08769 0.38595 0.12149 0.0
C2258 C 0.09401 0.38921 0.1435 0.0
C2259 C 0.07882 0.3869 0.16068 0.0
H2260 H 0.14996 0.6951 0.99063 0.0
H2261 H 0.18031 0.63501 0.96966 0.0
H2262 H 0.1217 0.69105 0.96268 0.0
H2263 H 0.15136 0.63014 0.94233 0.0
H2264 H 0.10413 0.63405 0.8844 0.0
H2265 H 0.13458 0.64027 0.90959 0.0
H2266 H 0.09003 0.67153 0.95484 0.0
H2267 H 0.05991 0.66626 0.92889 0.0
C2268 C 0.15066 0.68105 0.97989 0.0
C2269 C 0.16745 0.66544 0.98233 0.0
C2270 C 0.13421 0.67852 0.96399 0.0
C2271 C 0.13376 0.66002 0.95028 0.0
C2272 C 0.15108 0.64475 0.95228 0.0
C2273 C 0.16779 0.64752 0.96799 0.0
C2274 C 0.10088 0.64227 0.89975 0.0
C2275 C 0.0796 0.64967 0.90466 0.0
C2276 C 0.11838 0.64575 0.91433 0.0
C2277 C 0.11506 0.65648 0.93446 0.0
C2278 C 0.09357 0.66365 0.93939 0.0
C2279 C 0.07614 0.66045 0.92461 0.0
H2280 H 0.34636 0.16803 1.0133 0.0
H2281 H 0.39833 0.20329 0.97921 0.0
H2282 H 0.34529 0.14099 0.98404 0.0
H2283 H 0.39823 0.17578 0.95059 0.0
H2284 H 0.38331 0.13383 0.89183 0.0
H2285 H 0.3813 0.16159 0.92026 0.0
H2286 H 0.36161 0.1113 0.9676 0.0
H2287 H 0.36248 0.0839 0.93865 0.0
C2288 C 0.3577 0.16992 0.99964 0.0
C2289 C 0.37236 0.18794 0.99866 0.0
C2290 C 0.35723 0.15426 0.98281 0.0
C2291 C 0.37165 0.15591 0.9646 0.0
C2292 C 0.38644 0.17395 0.96386 0.0
C2293 C 0.38665 0.18975 0.98048 0.0
C2294 C 0.37832 0.12879 0.90827 0.0
C2295 C 0.37301 0.10665 0.91292 0.0
C2296 C 0.37739 0.14471 0.92477 0.0
C2297 C 0.37151 0.13895 0.94662 0.0
C2298 C 0.36591 0.11671 0.95109 0.0
C2299 C 0.36651 0.10086 0.93446 0.0
H2300 H 0.91772 0.38272 0.87289 0.0
H2301 H 0.96912 0.37389 0.921 0.0
H2302 H 0.89072 0.38599 0.90199 0.0
H2303 H 0.94184 0.37782 0.95066 0.0
H2304 H 0.88152 0.36932 0.99779 0.0
H2305 H 0.90948 0.36239 0.96963 0.0
H2306 H 0.88063 0.41271 0.92804 0.0
H2307 H 0.85259 0.41908 0.95581 0.0
C2308 C 0.92326 0.3814 0.88979 0.0
C2309 C 0.94561 0.37817 0.89463 0.0
C2310 C 0.90773 0.38348 0.90655 0.0
C2311 C 0.91403 0.38264 0.92879 0.0
C2312 C 0.93634 0.37853 0.93373 0.0
C2313 C 0.952 0.37628 0.91678 0.0
C2314 C 0.88115 0.37878 0.98254 0.0
C2315 C 0.86474 0.39462 0.97893 0.0
C2316 C 0.89728 0.37493 0.96647 0.0
C2317 C 0.89733 0.38684 0.9464 0.0
C2318 C 0.88094 0.40284 0.94302 0.0
C2319 C 0.86486 0.40661 0.95901 0.0
H2320 H 0.6665 1.00896 0.93921 0.0
H2321 H 0.64847 0.95431 0.89806 0.0
H2322 H 0.67051 0.98332 0.97065 0.0
H2323 H 0.65149 0.9294 0.92896 0.0
H2324 H 0.67347 0.88361 0.97971 0.0
H2325 H 0.67713 0.91208 0.95149 0.0
H2326 H 0.6497 0.95961 0.99593 0.0
H2327 H 0.64737 0.93096 0.02484 0.0
C2328 C 0.6635 0.99156 0.93684 0.0
C2329 C 0.65735 0.98372 0.91605 0.0
C2330 C 0.66564 0.97689 0.95485 0.0
C2331 C 0.66161 0.95417 0.95236 0.0
C2332 C 0.65541 0.94658 0.93152 0.0
C2333 C 0.65349 0.96104 0.91369 0.0
C2334 C 0.6685 0.90021 0.98355 0.0
C2335 C 0.65983 0.90504 1.0043 0.0
C2336 C 0.67045 0.91656 0.96733 0.0
C2337 C 0.66312 0.93809 0.97114 0.0
C2338 C 0.65552 0.94324 0.99237 0.0
C2339 C 0.65407 0.92685 1.0089 0.0
H2340 H 0.96918 0.66235 0.13495 0.0
H2341 H 0.91796 0.66265 0.18419 0.0
H2342 H 0.94179 0.66904 0.10622 0.0
H2343 H 0.89074 0.67025 0.15583 0.0
H2344 H 0.889 0.69693 0.06077 0.0
H2345 H 0.91642 0.69461 0.09017 0.0
H2346 H 0.87291 0.65136 0.12738 0.0
H2347 H 0.84548 0.65442 0.09851 0.0
C2348 C 0.95209 0.6641 0.13961 0.0
C2349 C 0.94562 0.66177 0.1617 0.0
C2350 C 0.93639 0.6681 0.1232 0.0
C2351 C 0.91396 0.67004 0.12864 0.0
C2352 C 0.90774 0.66837 0.15093 0.0
C2353 C 0.92336 0.66413 0.16722 0.0
C2354 C 0.88528 0.68722 0.07542 0.0
C2355 C 0.86513 0.67592 0.07744 0.0
C2356 C 0.90103 0.6857 0.09217 0.0
C2357 C 0.89695 0.67276 0.11119 0.0
C2358 C 0.87655 0.6618 0.11322 0.0
C2359 C 0.86082 0.66345 0.0966 0.0
H2360 H 0.41718 0.95408 0.19128 0.0
H2361 H 0.35969 0.98492 0.16361 0.0
H2362 H 0.4167 0.92699 0.16221 0.0
H2363 H 0.35868 0.95724 0.13459 0.0
H2364 H 0.39897 0.86776 0.122 0.0
H2365 H 0.39798 0.8957 0.15009 0.0
H2366 H 0.37566 0.94343 0.10186 0.0
H2367 H 0.37606 0.91496 0.07365 0.0
C2368 C 0.40429 0.95498 0.17902 0.0
C2369 C 0.38843 0.97166 0.17989 0.0
C2370 C 0.40389 0.93927 0.16233 0.0
C2371 C 0.38751 0.93956 0.14592 0.0
C2372 C 0.37169 0.95644 0.1467 0.0
C2373 C 0.37215 0.97228 0.16345 0.0
C2374 C 0.39381 0.88419 0.11727 0.0
C2375 C 0.38771 0.88902 0.0954 0.0
C2376 C 0.39338 0.90039 0.13347 0.0
C2377 C 0.38699 0.92214 0.12843 0.0
C2378 C 0.38053 0.92692 0.10657 0.0
C2379 C 0.38086 0.91059 0.09029 0.0
H2380 H 0.66575 0.17242 0.08515 0.0
H2381 H 0.61422 0.19846 0.12565 0.0
H2382 H 0.67129 0.14249 0.11205 0.0
H2383 H 0.61955 0.1689 0.15243 0.0
H2384 H 0.64829 0.12848 0.20766 0.0
H2385 H 0.6447 0.1571 0.17963 0.0
H2386 H 0.6563 0.10926 0.12909 0.0
H2387 H 0.66058 0.0805 0.15763 0.0
C2388 C 0.65558 0.17177 0.0998 0.0
C2389 C 0.63997 0.1883 0.10358 0.0
C2390 C 0.65869 0.15454 0.11522 0.0
C2391 C 0.64617 0.15333 0.13476 0.0
C2392 C 0.63007 0.16954 0.13804 0.0
C2393 C 0.62705 0.18669 0.1227 0.0
C2394 C 0.65029 0.12404 0.19059 0.0
C2395 C 0.65475 0.10218 0.18493 0.0
C2396 C 0.64799 0.14048 0.17441 0.0
C2397 C 0.64987 0.13562 0.1519 0.0
C2398 C 0.65485 0.11375 0.1462 0.0
C2399 C 0.65725 0.09722 0.16254 0.0
H2400 H 0.60236 0.68771 0.89805 0.0
H2401 H 0.56303 0.64812 0.85456 0.0
H2402 H 0.63042 0.65973 0.89893 0.0
H2403 H 0.59189 0.62005 0.85464 0.0
H2404 H 0.64062 0.56497 0.87612 0.0
H2405 H 0.61083 0.5919 0.87431 0.0
H2406 H 0.6587 0.64458 0.87906 0.0
H2407 H 0.68801 0.61768 0.88184 0.0
C2408 C 0.59975 0.67307 0.88842 0.0
C2409 C 0.58036 0.67037 0.8761 0.0
C2410 C 0.61609 0.65694 0.88878 0.0
C2411 C 0.61388 0.63751 0.87658 0.0
C2412 C 0.59431 0.63463 0.86439 0.0
C2413 C 0.57774 0.65081 0.86422 0.0
C2414 C 0.64469 0.58233 0.87677 0.0
C2415 C 0.66671 0.58914 0.8793 0.0
C2416 C 0.62759 0.59786 0.87559 0.0
C2417 C 0.63206 0.62066 0.87676 0.0
C2418 C 0.65427 0.6273 0.87869 0.0
C2419 C 0.67124 0.61182 0.88011 0.0
H2420 H 0.3771 0.59016 0.91183 0.0
H2421 H 0.40574 0.55496 0.85783 0.0
H2422 H 0.40318 0.62019 0.90577 0.0
H2423 H 0.43125 0.58549 0.85096 0.0
H2424 H 0.48938 0.63381 0.85994 0.0
H2425 H 0.46272 0.60363 0.86357 0.0
H2426 H 0.41312 0.64993 0.8836 0.0
H2427 H 0.44012 0.67964 0.88103 0.0
C2428 C 0.38879 0.58897 0.89844 0.0
C2429 C 0.3893 0.57012 0.88534 0.0
C2430 C 0.40374 0.60633 0.89481 0.0
C2431 C 0.41946 0.60554 0.87774 0.0
C2432 C 0.41973 0.58671 0.86448 0.0
C2433 C 0.40495 0.5692 0.86831 0.0
C2434 C 0.4727 0.63747 0.86489 0.0
C2435 C 0.46686 0.65906 0.87027 0.0
C2436 C 0.45731 0.62018 0.86693 0.0
C2437 C 0.43563 0.6241 0.87415 0.0
C2438 C 0.42971 0.64598 0.87859 0.0
C2439 C 0.44515 0.66314 0.87687 0.0
H2440 H 0.38872 0.42932 0.88731 0.0
H2441 H 0.43886 0.47978 0.88294 0.0
H2442 H 0.41644 0.40106 0.88374 0.0
H2443 H 0.46711 0.45129 0.88022 0.0
H2444 H 0.51127 0.39457 0.85757 0.0
H2445 H 0.48372 0.42358 0.85896 0.0
H2446 H 0.44409 0.38284 0.90268 0.0
H2447 H 0.47116 0.3537 0.90053 0.0
C2448 C 0.40578 0.4344 0.88567 0.0
C2449 C 0.41154 0.45686 0.88545 0.0
C2450 C 0.42181 0.41809 0.88382 0.0
C2451 C 0.44429 0.42361 0.88195 0.0
C2452 C 0.45004 0.44622 0.88142 0.0
C2453 C 0.43386 0.46263 0.88308 0.0
C2454 C 0.49659 0.39176 0.86736 0.0
C2455 C 0.49345 0.37163 0.8788 0.0
C2456 C 0.4808 0.40854 0.86832 0.0
C2457 C 0.46141 0.40579 0.88088 0.0
C2458 C 0.45843 0.38562 0.8924 0.0
C2459 C 0.4741 0.36882 0.89128 0.0
H2460 H 0.59198 0.40649 0.84604 0.0
H2461 H 0.62269 0.37644 0.90283 0.0
H2462 H 0.61902 0.43677 0.84714 0.0
H2463 H 0.64885 0.4066 0.90451 0.0
H2464 H 0.70678 0.4506 0.89114 0.0
H2465 H 0.68001 0.42115 0.88688 0.0
H2466 H 0.63096 0.46864 0.86728 0.0
H2467 H 0.65824 0.49822 0.87079 0.0
C2468 C 0.60447 0.40637 0.85872 0.0
C2469 C 0.60531 0.389 0.87421 0.0
C2470 C 0.61988 0.42378 0.85949 0.0
C2471 C 0.63637 0.42416 0.87582 0.0
C2472 C 0.63687 0.40677 0.89135 0.0
C2473 C 0.62169 0.38945 0.89048 0.0
C2474 C 0.6903 0.45484 0.88593 0.0
C2475 C 0.68466 0.47685 0.88148 0.0
C2476 C 0.67482 0.43789 0.88357 0.0
C2477 C 0.6531 0.4424 0.87695 0.0
C2478 C 0.64752 0.46443 0.87221 0.0
C2479 C 0.66313 0.48145 0.87439 0.0
H2480 H 0.62073 0.34861 0.12307 0.0
H2481 H 0.58207 0.3853 0.16915 0.0
H2482 H 0.65013 0.37621 0.12535 0.0
H2483 H 0.61155 0.41217 0.1724 0.0
H2484 H 0.65689 0.47019 0.15838 0.0
H2485 H 0.62877 0.44162 0.15647 0.0
H2486 H 0.67892 0.39343 0.14341 0.0
H2487 H 0.7069 0.42257 0.14421 0.0
C2488 C 0.61862 0.36236 0.13398 0.0
C2489 C 0.59886 0.36466 0.14581 0.0
C2490 C 0.6356 0.37831 0.13539 0.0
C2491 C 0.6335 0.39696 0.14891 0.0
C2492 C 0.6139 0.39868 0.16124 0.0
C2493 C 0.59689 0.383 0.15955 0.0
C2494 C 0.66194 0.45347 0.15521 0.0
C2495 C 0.68424 0.44877 0.15154 0.0
C2496 C 0.64573 0.43686 0.15425 0.0
C2497 C 0.65119 0.41475 0.14992 0.0
C2498 C 0.67368 0.41008 0.14647 0.0
C2499 C 0.68989 0.42684 0.14714 0.0
H2500 H 0.62211 0.65978 0.13841 0.0
H2501 H 0.57258 0.60933 0.14836 0.0
H2502 H 0.65069 0.63238 0.14027 0.0
H2503 H 0.60162 0.58121 0.14946 0.0
H2504 H 0.66542 0.54118 0.16935 0.0
H2505 H 0.63384 0.56623 0.16947 0.0
H2506 H 0.66421 0.60473 0.11716 0.0
H2507 H 0.69563 0.58052 0.11763 0.0
C2508 C 0.6173 0.64271 0.14089 0.0
C2509 C 0.59505 0.6367 0.14298 0.0
C2510 C 0.63376 0.6269 0.1418 0.0
C2511 C 0.62855 0.60442 0.14449 0.0
C2512 C 0.60625 0.59836 0.14733 0.0
C2513 C 0.58961 0.6144 0.14663 0.0
C2514 C 0.66522 0.55499 0.15787 0.0
C2515 C 0.68321 0.55904 0.14373 0.0
C2516 C 0.64709 0.56928 0.15786 0.0
C2517 C 0.64659 0.58781 0.14362 0.0
C2518 C 0.66421 0.59109 0.12885 0.0
C2519 C 0.68227 0.57707 0.12903 0.0
H2520 H 0.37393 0.607 0.12936 0.0
H2521 H 0.41427 0.56789 0.17306 0.0
H2522 H 0.40335 0.63441 0.12603 0.0
H2523 H 0.44334 0.5956 0.17047 0.0
H2524 H 0.45514 0.68885 0.13931 0.0
H2525 H 0.42422 0.66286 0.14336 0.0
H2526 H 0.46997 0.60878 0.14572 0.0
H2527 H 0.50038 0.63444 0.1425 0.0
C2528 C 0.38904 0.60432 0.1384 0.0
C2529 C 0.3918 0.5851 0.15133 0.0
C2530 C 0.40589 0.62017 0.13662 0.0
C2531 C 0.42593 0.61731 0.14783 0.0
C2532 C 0.42841 0.59826 0.16115 0.0
C2533 C 0.41166 0.58234 0.16276 0.0
C2534 C 0.45849 0.6714 0.14071 0.0
C2535 C 0.48029 0.66383 0.14077 0.0
C2536 C 0.44078 0.65645 0.14296 0.0
C2537 C 0.44448 0.63359 0.14517 0.0
C2538 C 0.46632 0.62618 0.14472 0.0
C2539 C 0.48387 0.64102 0.14269 0.0
H2540 H 0.38907 0.45565 0.13243 0.0
H2541 H 0.4226 0.48603 0.18678 0.0
H2542 H 0.41765 0.42832 0.13005 0.0
H2543 H 0.45127 0.45772 0.18505 0.0
H2544 H 0.50918 0.41451 0.15869 0.0
H2545 H 0.48178 0.44358 0.16361 0.0
H2546 H 0.43003 0.39695 0.14874 0.0
H2547 H 0.45723 0.36865 0.1429 0.0
C2548 C 0.4025 0.45631 0.1441 0.0
C2549 C 0.40349 0.47289 0.15991 0.0
C2550 C 0.4189 0.44048 0.14284 0.0
C2551 C 0.43671 0.44047 0.15758 0.0
C2552 C 0.43786 0.45724 0.17336 0.0
C2553 C 0.4214 0.47336 0.17448 0.0
C2554 C 0.49191 0.41063 0.15649 0.0
C2555 C 0.48534 0.38945 0.15008 0.0
C2556 C 0.4762 0.4272 0.15945 0.0
C2557 C 0.45363 0.42279 0.15624 0.0
C2558 C 0.44723 0.40126 0.15072 0.0
C2559 C 0.46284 0.38492 0.14748 0.0
H2560 H 0.9216 0.61348 0.68856 0.0
H2561 H 0.88614 0.56991 0.64556 0.0
H2562 H 0.91873 0.64304 0.66116 0.0
H2563 H 0.88235 0.59962 0.61856 0.0
H2564 H 0.89601 0.6522 0.56519 0.0
H2565 H 0.89953 0.6219 0.59191 0.0
H2566 H 0.89495 0.66828 0.645 0.0
H2567 H 0.89249 0.69836 0.61826 0.0
C2568 C 0.91309 0.61023 0.67329 0.0
C2569 C 0.90416 0.58926 0.66931 0.0
C2570 C 0.91124 0.62729 0.65756 0.0
C2571 C 0.90016 0.62398 0.63746 0.0
C2572 C 0.89131 0.6029 0.63354 0.0
C2573 C 0.89338 0.5858 0.64916 0.0
C2574 C 0.89564 0.65581 0.58258 0.0
C2575 C 0.89398 0.67766 0.58959 0.0
C2576 C 0.89759 0.63843 0.598 0.0
C2577 C 0.8977 0.64244 0.62084 0.0
C2578 C 0.89549 0.66437 0.62769 0.0
C2579 C 0.89382 0.6817 0.61231 0.0
H2580 H 0.3908 0.93224 0.58636 0.0
H2581 H 0.42304 0.89259 0.53771 0.0
H2582 H 0.42136 0.9274 0.61099 0.0
H2583 H 0.45477 0.88839 0.56253 0.0
H2584 H 0.49531 0.86774 0.6264 0.0
H2585 H 0.46787 0.87186 0.59691 0.0
H2586 H 0.45729 0.93913 0.61633 0.0
H2587 H 0.48336 0.93446 0.64615 0.0
C2588 C 0.40465 0.92273 0.5807 0.0
C2589 C 0.40447 0.913 0.55986 0.0
C2590 C 0.42242 0.92007 0.5949 0.0
C2591 C 0.44094 0.90785 0.58874 0.0
C2592 C 0.44083 0.8979 0.56789 0.0
C2593 C 0.42273 0.90042 0.55359 0.0
C2594 C 0.48719 0.88341 0.62408 0.0
C2595 C 0.49114 0.90066 0.63876 0.0
C2596 C 0.47152 0.88583 0.60717 0.0
C2597 C 0.45983 0.90568 0.60448 0.0
C2598 C 0.46522 0.92333 0.61828 0.0
C2599 C 0.48035 0.92074 0.63533 0.0
H2600 H 0.17974 0.39084 0.60824 0.0
H2601 H 0.15105 0.4411 0.56669 0.0
H2602 H 0.1815 0.41697 0.63871 0.0
H2603 H 0.15287 0.46709 0.59687 0.0
H2604 H 0.18012 0.51447 0.64776 0.0
H2605 H 0.18043 0.48748 0.61849 0.0
H2606 H 0.15612 0.43769 0.66393 0.0
H2607 H 0.15576 0.46483 0.69339 0.0
C2608 C 0.17395 0.40749 0.60558 0.0
C2609 C 0.16534 0.41391 0.58501 0.0
C2610 C 0.17481 0.42242 0.62307 0.0
C2611 C 0.16738 0.44422 0.62029 0.0
C2612 C 0.15899 0.45058 0.5996 0.0
C2613 C 0.15788 0.43563 0.58228 0.0
C2614 C 0.17491 0.49777 0.65162 0.0
C2615 C 0.16784 0.49193 0.67302 0.0
C2616 C 0.17499 0.48227 0.63475 0.0
C2617 C 0.1682 0.46037 0.63874 0.0
C2618 C 0.1616 0.45435 0.66026 0.0
C2619 C 0.16129 0.46996 0.67714 0.0
H2620 H 0.57354 0.19622 0.63083 0.0
H2621 H 0.60198 0.13323 0.64726 0.0
H2622 H 0.60188 0.2021 0.60244 0.0
H2623 H 0.6294 0.13853 0.61873 0.0
H2624 H 0.69005 0.1605 0.58364 0.0
H2625 H 0.66151 0.15852 0.61166 0.0
H2626 H 0.61651 0.19154 0.56741 0.0
H2627 H 0.64574 0.19435 0.5396 0.0
C2628 C 0.58564 0.18354 0.62821 0.0
C2629 C 0.5856 0.16436 0.64147 0.0
C2630 C 0.60189 0.18686 0.6119 0.0
C2631 C 0.61832 0.17099 0.60842 0.0
C2632 C 0.61759 0.15151 0.62125 0.0
C2633 C 0.60164 0.14835 0.63758 0.0
C2634 C 0.67413 0.16755 0.57996 0.0
C2635 C 0.67012 0.17748 0.55938 0.0
C2636 C 0.65761 0.16623 0.59598 0.0
C2637 C 0.63638 0.17443 0.59178 0.0
C2638 C 0.63259 0.18509 0.57136 0.0
C2639 C 0.64932 0.18666 0.55537 0.0
H2640 H 0.88475 0.44627 0.46942 0.0
H2641 H 0.91229 0.40075 0.42323 0.0
H2642 H 0.88614 0.47541 0.44126 0.0
H2643 H 0.91273 0.42934 0.39478 0.0
H2644 H 0.93169 0.49178 0.35542 0.0
H2645 H 0.93041 0.46184 0.38279 0.0
H2646 H 0.86966 0.48767 0.40861 0.0
H2647 H 0.87162 0.51789 0.38208 0.0
C2648 C 0.89089 0.44249 0.45317 0.0
C2649 C 0.89843 0.42134 0.4485 0.0
C2650 C 0.89157 0.4591 0.43694 0.0
C2651 C 0.89951 0.45479 0.4156 0.0
C2652 C 0.90689 0.43347 0.41104 0.0
C2653 C 0.90648 0.417 0.42732 0.0
C2654 C 0.918 0.49083 0.36683 0.0
C2655 C 0.90186 0.5072 0.36674 0.0
C2656 C 0.9172 0.47368 0.38253 0.0
C2657 C 0.90005 0.47242 0.39821 0.0
C2658 C 0.88345 0.48837 0.39732 0.0
C2659 C 0.88445 0.5056 0.38192 0.0
H2660 H 0.60091 0.91636 0.32646 0.0
H2661 H 0.56443 0.86928 0.36625 0.0
H2662 H 0.62781 0.92021 0.35601 0.0
H2663 H 0.59153 0.87254 0.39545 0.0
H2664 H 0.63196 0.89879 0.4531 0.0
H2665 H 0.60494 0.89539 0.4235 0.0
H2666 H 0.65689 0.90334 0.37534 0.0
H2667 H 0.68356 0.9074 0.40491 0.0
C2668 C 0.59875 0.90661 0.34138 0.0
C2669 C 0.58043 0.89248 0.34384 0.0
C2670 C 0.61427 0.90875 0.35841 0.0
C2671 C 0.61202 0.89675 0.3784 0.0
C2672 C 0.59378 0.88243 0.38064 0.0
C2673 C 0.57825 0.88039 0.3637 0.0
C2674 C 0.63755 0.8998 0.43618 0.0
C2675 C 0.65993 0.90338 0.43143 0.0
C2676 C 0.62207 0.89772 0.41911 0.0
C2677 C 0.62853 0.89907 0.39677 0.0
C2678 C 0.65103 0.90257 0.39217 0.0
C2679 C 0.66643 0.90473 0.4092 0.0
H2680 H 0.18359 0.58919 0.42238 0.0
H2681 H 0.17092 0.63753 0.37135 0.0
H2682 H 0.18179 0.61805 0.4501 0.0
H2683 H 0.16964 0.66636 0.39874 0.0
H2684 H 0.19481 0.67922 0.49253 0.0
H2685 H 0.19911 0.65048 0.46504 0.0
H2686 H 0.14616 0.67899 0.42712 0.0
H2687 H 0.14231 0.70783 0.4543 0.0
C2688 C 0.18073 0.60603 0.41707 0.0
C2689 C 0.17734 0.61105 0.39468 0.0
C2690 C 0.17975 0.62262 0.43294 0.0
C2691 C 0.17536 0.64465 0.4268 0.0
C2692 C 0.17259 0.64961 0.40426 0.0
C2693 C 0.17352 0.63307 0.38847 0.0
C2694 C 0.18419 0.67936 0.47824 0.0
C2695 C 0.16829 0.69587 0.47555 0.0
C2696 C 0.18654 0.66278 0.46252 0.0
C2697 C 0.17305 0.66231 0.44369 0.0
C2698 C 0.15715 0.67892 0.44112 0.0
C2699 C 0.15482 0.69545 0.4568 0.0
H2700 H 0.49002 0.16462 0.38736 0.0
H2701 H 0.43851 0.15815 0.33924 0.0
H2702 H 0.46248 0.16993 0.41612 0.0
H2703 H 0.41102 0.1643 0.36752 0.0
H2704 H 0.36454 0.15305 0.42458 0.0
H2705 H 0.39272 0.14874 0.39693 0.0
H2706 H 0.43589 0.19163 0.43337 0.0
H2707 H 0.40735 0.19531 0.46171 0.0
C2708 C 0.4728 0.1645 0.38283 0.0
C2709 C 0.4666 0.16071 0.36084 0.0
C2710 C 0.45689 0.16771 0.3994 0.0
C2711 C 0.43417 0.16744 0.39455 0.0
C2712 C 0.42813 0.1641 0.37238 0.0
C2713 C 0.444 0.16067 0.35593 0.0
C2714 C 0.37986 0.1619 0.42663 0.0
C2715 C 0.38328 0.17493 0.4453 0.0
C2716 C 0.39623 0.15944 0.41058 0.0
C2717 C 0.41683 0.17008 0.41233 0.0
C2718 C 0.42044 0.18298 0.43123 0.0
C2719 C 0.40397 0.18525 0.44753 0.0
H2720 H 0.57554 0.88447 0.61073 0.0
H2721 H 0.62592 0.89923 0.65822 0.0
H2722 H 0.60198 0.88967 0.58098 0.0
H2723 H 0.65294 0.90315 0.62864 0.0
H2724 H 0.69176 0.93122 0.57036 0.0
H2725 H 0.66541 0.92564 0.60024 0.0
H2726 H 0.63149 0.87657 0.56184 0.0
H2727 H 0.65705 0.88322 0.53167 0.0
C2728 C 0.59245 0.88837 0.61481 0.0
C2729 C 0.59866 0.89141 0.6368 0.0
C2730 C 0.60775 0.89127 0.59772 0.0
C2731 C 0.62984 0.89692 0.60214 0.0
C2732 C 0.63609 0.89932 0.62433 0.0
C2733 C 0.62066 0.8968 0.6414 0.0
C2734 C 0.67858 0.91934 0.5683 0.0
C2735 C 0.67644 0.90781 0.54853 0.0
C2736 C 0.6635 0.91593 0.58557 0.0
C2737 C 0.64609 0.90057 0.58372 0.0
C2738 C 0.64423 0.8889 0.56392 0.0
C2739 C 0.65903 0.89262 0.54655 0.0
H2740 H 0.56681 0.14212 0.40032 0.0
H2741 H 0.60338 0.17793 0.35034 0.0
H2742 H 0.5974 0.14705 0.42617 0.0
H2743 H 0.63379 0.18292 0.37599 0.0
H2744 H 0.6934 0.1639 0.4184 0.0
H2745 H 0.66199 0.16044 0.39384 0.0
H2746 H 0.61811 0.17538 0.44741 0.0
H2747 H 0.64974 0.17882 0.47217 0.0
C2748 C 0.58133 0.15113 0.39489 0.0
C2749 C 0.58267 0.15958 0.37325 0.0
C2750 C 0.59883 0.15406 0.40973 0.0
C2751 C 0.6182 0.16532 0.40321 0.0
C2752 C 0.61933 0.17392 0.38158 0.0
C2753 C 0.60181 0.17115 0.36687 0.0
C2754 C 0.67709 0.16658 0.425 0.0
C2755 C 0.67419 0.17172 0.44733 0.0
C2756 C 0.65902 0.16468 0.41083 0.0
C2757 C 0.63741 0.16765 0.41854 0.0
C2758 C 0.63447 0.1728 0.4409 0.0
C2759 C 0.65263 0.17494 0.45507 0.0
H2760 H 0.90623 0.64845 0.37095 0.0
H2761 H 0.89746 0.59704 0.41993 0.0
H2762 H 0.9052 0.67614 0.39947 0.0
H2763 H 0.89724 0.62469 0.44883 0.0
H2764 H 0.87653 0.67986 0.49405 0.0
H2765 H 0.87715 0.65263 0.46524 0.0
H2766 H 0.92382 0.69282 0.42858 0.0
H2767 H 0.92236 0.72062 0.45726 0.0
C2768 C 0.90419 0.64304 0.38791 0.0
C2769 C 0.90186 0.62048 0.39313 0.0
C2770 C 0.90379 0.65899 0.40438 0.0
C2771 C 0.90121 0.65293 0.42672 0.0
C2772 C 0.89891 0.63024 0.4319 0.0
C2773 C 0.89915 0.61426 0.41533 0.0
C2774 C 0.8869 0.68301 0.47981 0.0
C2775 C 0.89944 0.70256 0.47809 0.0
C2776 C 0.88742 0.66716 0.46327 0.0
C2777 C 0.90066 0.67015 0.4444 0.0
C2778 C 0.91315 0.68984 0.44262 0.0
C2779 C 0.91247 0.70584 0.45916 0.0
H2780 H 0.4242 0.90274 0.47127 0.0
H2781 H 0.36832 0.89506 0.42835 0.0
H2782 H 0.44895 0.89482 0.44088 0.0
H2783 H 0.39298 0.88624 0.39797 0.0
H2784 H 0.44378 0.90009 0.34366 0.0
H2785 H 0.41823 0.90377 0.37406 0.0
H2786 H 0.46283 0.86802 0.41659 0.0
H2787 H 0.48895 0.86513 0.386 0.0
C2788 C 0.41721 0.89913 0.45533 0.0
C2789 C 0.39435 0.8997 0.45211 0.0
C2790 C 0.43141 0.89437 0.43791 0.0
C2791 C 0.42308 0.88987 0.41684 0.0
C2792 C 0.40008 0.88998 0.41382 0.0
C2793 C 0.38589 0.89494 0.43123 0.0
C2794 C 0.44808 0.89283 0.35946 0.0
C2795 C 0.46842 0.88238 0.36248 0.0
C2796 C 0.43331 0.89481 0.37692 0.0
C2797 C 0.43835 0.88623 0.39792 0.0
C2798 C 0.45849 0.87514 0.40077 0.0
C2799 C 0.4734 0.87329 0.38323 0.0
H2800 H 0.19211 0.5138 0.40745 0.0
H2801 H 0.14116 0.47787 0.37374 0.0
H2802 H 0.19227 0.48551 0.43673 0.0
H2803 H 0.14056 0.45041 0.40305 0.0
H2804 H 0.15761 0.39172 0.44367 0.0
H2805 H 0.16039 0.42097 0.4164 0.0
H2806 H 0.17434 0.46765 0.46759 0.0
H2807 H 0.17247 0.43756 0.49518 0.0
C2808 C 0.18083 0.49998 0.40634 0.0
C2809 C 0.16682 0.49806 0.388 0.0
C2810 C 0.18082 0.48376 0.42324 0.0
C2811 C 0.16669 0.46524 0.42233 0.0
C2812 C 0.15225 0.46387 0.40424 0.0
C2813 C 0.15245 0.47984 0.38736 0.0
C2814 C 0.16137 0.40819 0.44924 0.0
C2815 C 0.16459 0.41223 0.47174 0.0
C2816 C 0.16277 0.42516 0.43349 0.0
C2817 C 0.16704 0.44705 0.43958 0.0
C2818 C 0.17102 0.45109 0.4621 0.0
C2819 C 0.16992 0.43384 0.47799 0.0
H2820 H 0.36971 0.18679 0.58475 0.0
H2821 H 0.41881 0.19219 0.53356 0.0
H2822 H 0.39872 0.18435 0.61248 0.0
H2823 H 0.44783 0.19038 0.5612 0.0
H2824 H 0.49113 0.15444 0.61155 0.0
H2825 H 0.46258 0.16195 0.58452 0.0
H2826 H 0.42886 0.20264 0.63135 0.0
H2827 H 0.45747 0.19467 0.65866 0.0
C2828 C 0.38672 0.18792 0.57949 0.0
C2829 C 0.39202 0.18954 0.55701 0.0
C2830 C 0.40336 0.18659 0.59538 0.0
C2831 C 0.42567 0.1869 0.5891 0.0
C2832 C 0.43086 0.18961 0.56662 0.0
C2833 C 0.41424 0.19084 0.55077 0.0
C2834 C 0.47767 0.16507 0.61605 0.0
C2835 C 0.47651 0.17395 0.63721 0.0
C2836 C 0.46136 0.16953 0.60048 0.0
C2837 C 0.44341 0.18302 0.60565 0.0
C2838 C 0.44233 0.19205 0.62684 0.0
C2839 C 0.45875 0.18759 0.64246 0.0
H2840 H 0.8871 0.42799 0.54202 0.0
H2841 H 0.90683 0.37619 0.58708 0.0
H2842 H 0.88902 0.45448 0.57172 0.0
H2843 H 0.90816 0.40252 0.61693 0.0
H2844 H 0.93161 0.45898 0.65991 0.0
H2845 H 0.92935 0.43274 0.63001 0.0
H2846 H 0.87172 0.46591 0.60499 0.0
H2847 H 0.87448 0.49254 0.63468 0.0
C2848 C 0.89169 0.4222 0.55831 0.0
C2849 C 0.89687 0.39994 0.56212 0.0
C2850 C 0.89267 0.4374 0.57541 0.0
C2851 C 0.8988 0.43075 0.59682 0.0
C2852 C 0.90374 0.4084 0.60063 0.0
C2853 C 0.90284 0.39322 0.58351 0.0
C2854 C 0.9185 0.46068 0.64798 0.0
C2855 C 0.90325 0.47783 0.64961 0.0
C2856 C 0.91707 0.44552 0.6309 0.0
C2857 C 0.90029 0.44705 0.61502 0.0
C2858 C 0.88504 0.46432 0.61669 0.0
C2859 C 0.88653 0.47954 0.63377 0.0
H2860 H 0.19157 0.5935 0.63818 0.0
H2861 H 0.14724 0.62786 0.68099 0.0
H2862 H 0.19141 0.62517 0.61247 0.0
H2863 H 0.14651 0.65885 0.65544 0.0
H2864 H 0.16427 0.72039 0.61706 0.0
H2865 H 0.16751 0.68884 0.64198 0.0
H2866 H 0.16928 0.64538 0.58638 0.0
H2867 H 0.16654 0.67714 0.56144 0.0
C2868 C 0.18179 0.60776 0.64206 0.0
C2869 C 0.1695 0.60816 0.66166 0.0
C2870 C 0.18156 0.62589 0.6273 0.0
C2871 C 0.16906 0.64482 0.63184 0.0
C2872 C 0.15674 0.64495 0.65146 0.0
C2873 C 0.15702 0.62699 0.66611 0.0
C2874 C 0.16527 0.70413 0.61012 0.0
C2875 C 0.16488 0.7014 0.5872 0.0
C2876 C 0.16709 0.68592 0.62445 0.0
C2877 C 0.16847 0.66433 0.61633 0.0
C2878 C 0.16849 0.66166 0.59335 0.0
C2879 C 0.16676 0.67992 0.579 0.0
H2880 H 0.05178 0.29328 0.40564 0.0
H2881 H 0.08748 0.24839 0.36445 0.0
H2882 H 0.0849 0.316 0.40881 0.0
H2883 H 0.12065 0.2706 0.36843 0.0
H2884 H 0.14605 0.34743 0.42191 0.0
H2885 H 0.12562 0.3347 0.38993 0.0
H2886 H 0.12785 0.26817 0.4158 0.0
H2887 H 0.14694 0.28106 0.44845 0.0
C2888 C 0.06644 0.28877 0.39666 0.0
C2889 C 0.06755 0.26879 0.38565 0.0
C2890 C 0.08523 0.3019 0.39809 0.0
C2891 C 0.10518 0.2947 0.38901 0.0
C2892 C 0.10537 0.27639 0.3754 0.0
C2893 C 0.0865 0.26354 0.37358 0.0
C2894 C 0.14296 0.32994 0.42026 0.0
C2895 C 0.14724 0.31515 0.43771 0.0
C2896 C 0.13156 0.32274 0.40187 0.0
C2897 C 0.12522 0.30063 0.40068 0.0
C2898 C 0.13281 0.28533 0.41645 0.0
C2899 C 0.14343 0.29265 0.43521 0.0
H2900 H 0.74628 0.17279 0.40041 0.0
H2901 H 0.80609 0.14516 0.42665 0.0
H2902 H 0.7389 0.13885 0.38125 0.0
H2903 H 0.79995 0.11228 0.40521 0.0
H2904 H 0.75049 0.07291 0.44585 0.0
H2905 H 0.75192 0.11064 0.43203 0.0
H2906 H 0.76193 0.08734 0.36607 0.0
H2907 H 0.75766 0.04949 0.37952 0.0
C2908 C 0.75891 0.16029 0.40054 0.0
C2909 C 0.77586 0.16062 0.41631 0.0
C2910 C 0.75467 0.14088 0.38928 0.0
C2911 C 0.76825 0.12274 0.39297 0.0
C2912 C 0.78893 0.12605 0.40279 0.0
C2913 C 0.7925 0.1449 0.41515 0.0
C2914 C 0.75087 0.07582 0.42825 0.0
C2915 C 0.75395 0.0584 0.4139 0.0
C2916 C 0.75215 0.09735 0.42031 0.0
C2917 C 0.75764 0.10156 0.39812 0.0
C2918 C 0.75778 0.08433 0.3832 0.0
C2919 C 0.75525 0.06272 0.39102 0.0
H2920 H 0.02465 0.74271 0.46146 0.0
H2921 H 0.95894 0.73027 0.43962 0.0
H2922 H 1.01144 0.77071 0.48663 0.0
H2923 H 0.94494 0.75649 0.46615 0.0
H2924 H 0.9314 0.8248 0.4673 0.0
H2925 H 0.95744 0.79875 0.45206 0.0
H2926 H 0.98249 0.78554 0.51735 0.0
H2927 H 0.95746 0.81315 0.53174 0.0
C2928 C 1.00705 0.74489 0.46308 0.0
C2929 C 0.99286 0.7385 0.44597 0.0
C2930 C 0.9997 0.76129 0.47717 0.0
C2931 C 0.97746 0.76705 0.47659 0.0
C2932 C 0.96244 0.75331 0.46559 0.0
C2933 C 0.97039 0.73772 0.451 0.0
C2934 C 0.94357 0.81755 0.47816 0.0
C2935 C 0.94002 0.81693 0.50093 0.0
C2936 C 0.95792 0.80206 0.46953 0.0
C2937 C 0.97012 0.7886 0.48403 0.0
C2938 C 0.97199 0.79458 0.50611 0.0
C2939 C 0.95806 0.81084 0.51411 0.0
H2940 H 0.2187 0.95799 0.48427 0.0
H2941 H 0.22102 0.9174 0.42674 0.0
H2942 H 0.21642 0.92575 0.50746 0.0
H2943 H 0.21942 0.88444 0.45022 0.0
H2944 H 0.2653 0.90827 0.53593 0.0
H2945 H 0.22865 0.89501 0.52625 0.0
H2946 H 0.25311 0.87445 0.46347 0.0
H2947 H 0.28947 0.88744 0.47282 0.0
C2948 C 0.2189 0.942 0.47663 0.0
C2949 C 0.22242 0.93996 0.45401 0.0
C2950 C 0.21707 0.92327 0.48988 0.0
C2951 C 0.22105 0.90237 0.48085 0.0
C2952 C 0.21865 0.9004 0.45788 0.0
C2953 C 0.22016 0.91921 0.44442 0.0
C2954 C 0.26272 0.90119 0.51987 0.0
C2955 C 0.27944 0.90154 0.50386 0.0
C2956 C 0.24194 0.89282 0.51461 0.0
C2957 C 0.23738 0.88804 0.49246 0.0
C2958 C 0.25541 0.88146 0.47957 0.0
C2959 C 0.27628 0.88951 0.48459 0.0
H2960 H 0.10565 0.73886 0.63557 0.0
H2961 H 0.09857 0.76689 0.69995 0.0
H2962 H 0.14421 0.74891 0.63549 0.0
H2963 H 0.13666 0.77908 0.69876 0.0
H2964 H 0.19229 0.78533 0.61634 0.0
H2965 H 0.18575 0.76805 0.65203 0.0
H2966 H 0.1268 0.80624 0.65919 0.0
H2967 H 0.13197 0.82166 0.62253 0.0
C2968 C 0.1127 0.74572 0.65035 0.0
C2969 C 0.0991 0.75298 0.66727 0.0
C2970 C 0.13495 0.75143 0.65047 0.0
C2971 C 0.14297 0.76587 0.66659 0.0
C2972 C 0.13073 0.76835 0.68594 0.0
C2973 C 0.10875 0.76151 0.68642 0.0
C2974 C 0.17868 0.79119 0.62614 0.0
C2975 C 0.16196 0.80395 0.6164 0.0
C2976 C 0.17514 0.78137 0.64679 0.0
C2977 C 0.15528 0.78506 0.65778 0.0
C2978 C 0.14207 0.80278 0.65074 0.0
C2979 C 0.14488 0.81161 0.62959 0.0
H2980 H 0.27628 0.09397 0.63169 0.0
H2981 H 0.20754 0.11045 0.62617 0.0
H2982 H 0.28533 0.12205 0.60379 0.0
H2983 H 0.21655 0.13794 0.59731 0.0
H2984 H 0.26232 0.13664 0.52445 0.0
H2985 H 0.24212 0.12251 0.5566 0.0
H2986 H 0.27488 0.16994 0.59752 0.0
H2987 H 0.29471 0.1845 0.56558 0.0
C2988 C 0.26325 0.10397 0.62477 0.0
C2989 C 0.24134 0.10033 0.63088 0.0
C2990 C 0.26836 0.11997 0.60897 0.0
C2991 C 0.25155 0.13199 0.59873 0.0
C2992 C 0.22966 0.12891 0.60532 0.0
C2993 C 0.2246 0.11333 0.62171 0.0
C2994 C 0.26459 0.14457 0.54013 0.0
C2995 C 0.28049 0.16119 0.5427 0.0
C2996 C 0.25291 0.13666 0.55841 0.0
C2997 C 0.25716 0.14526 0.57927 0.0
C2998 C 0.27136 0.16329 0.58145 0.0
C2999 C 0.28283 0.17137 0.5632 0.0
H3000 H 0.90711 0.23395 0.64314 0.0
H3001 H 0.94597 0.23578 0.58363 0.0
H3002 H 0.87348 0.23169 0.62121 0.0
H3003 H 0.91337 0.23306 0.56192 0.0
H3004 H 0.88449 0.25986 0.52561 0.0
H3005 H 0.87695 0.22563 0.54599 0.0
H3006 H 0.85836 0.26258 0.60261 0.0
H3007 H 0.86552 0.29672 0.58268 0.0
C3008 C 0.90837 0.23397 0.62535 0.0
C3009 C 0.92884 0.23659 0.61489 0.0
C3010 C 0.88923 0.23204 0.61285 0.0
C3011 C 0.89036 0.23303 0.58971 0.0
C3012 C 0.91132 0.23281 0.57961 0.0
C3013 C 0.93024 0.23506 0.59204 0.0
C3014 C 0.87854 0.26061 0.54239 0.0
C3015 C 0.8782 0.28059 0.55369 0.0
C3016 C 0.87335 0.2411 0.55382 0.0
C3017 C 0.87156 0.242 0.57689 0.0
C3018 C 0.86321 0.26161 0.5855 0.0
C3019 C 0.86798 0.28127 0.57437 0.0
H3020 H 0.8016 0.94474 0.67621 0.0
H3021 H 0.74455 0.98274 0.65815 0.0
H3022 H 0.79998 0.92598 0.64136 0.0
H3023 H 0.74212 0.96302 0.6237 0.0
H3024 H 0.77433 0.96973 0.55759 0.0
H3025 H 0.77154 0.97537 0.597 0.0
H3026 H 0.78467 0.90645 0.60916 0.0
H3027 H 0.78826 0.90093 0.5696 0.0
C3028 C 0.78772 0.94799 0.66551 0.0
C3029 C 0.77418 0.96632 0.66887 0.0
C3030 C 0.78696 0.93733 0.64539 0.0
C3031 C 0.77185 0.94429 0.62939 0.0
C3032 C 0.75467 0.95831 0.63547 0.0
C3033 C 0.75574 0.96925 0.65539 0.0
C3034 C 0.77738 0.95596 0.56869 0.0
C3035 C 0.78105 0.93485 0.56062 0.0
C3036 C 0.77519 0.95901 0.59119 0.0
C3037 C 0.77655 0.94099 0.60591 0.0
C3038 C 0.78289 0.92042 0.59805 0.0
C3039 C 0.78527 0.91739 0.57547 0.0
H3040 H 0.41428 0.10846 0.32153 0.0
H3041 H 0.3544 0.10094 0.28441 0.0
H3042 H 0.41739 0.14615 0.3085 0.0
H3043 H 0.35915 0.1378 0.26925 0.0
H3044 H 0.4469 0.18578 0.26816 0.0
H3045 H 0.40888 0.18474 0.28043 0.0
H3046 H 0.40076 0.12107 0.25099 0.0
H3047 H 0.43918 0.12114 0.24068 0.0
C3048 C 0.40094 0.11533 0.3119 0.0
C3049 C 0.38481 0.10159 0.30301 0.0
C3050 C 0.40258 0.13711 0.30441 0.0
C3051 C 0.38947 0.14409 0.28654 0.0
C3052 C 0.36993 0.13249 0.28244 0.0
C3053 C 0.36743 0.11115 0.29103 0.0
C3054 C 0.43659 0.17219 0.26297 0.0
C3055 C 0.44603 0.15303 0.2544 0.0
C3056 C 0.41465 0.1718 0.26984 0.0
C3057 C 0.40221 0.15248 0.26746 0.0
C3058 C 0.4101 0.13611 0.25331 0.0
C3059 C 0.43228 0.13596 0.24749 0.0
H3060 H 0.99237 0.42234 0.30036 0.0
H3061 H 0.92332 0.42433 0.28428 0.0
H3062 H 0.99533 0.46181 0.2942 0.0
H3063 H 0.92574 0.46413 0.2801 0.0
H3064 H 0.93441 0.5194 0.23958 0.0
H3065 H 0.94241 0.48099 0.24719 0.0
H3066 H 0.98686 0.5002 0.29902 0.0
H3067 H 0.98014 0.53866 0.29 0.0
C3068 C 0.97746 0.43139 0.29691 0.0
C3069 C 0.95794 0.42029 0.29108 0.0
C3070 C 0.9793 0.45402 0.29304 0.0
C3071 C 0.96114 0.46561 0.28492 0.0
C3072 C 0.94038 0.45517 0.28481 0.0
C3073 C 0.93875 0.4325 0.28801 0.0
C3074 C 0.94714 0.51546 0.25144 0.0
C3075 C 0.9554 0.53166 0.26538 0.0
C3076 C 0.95111 0.49346 0.2564 0.0
C3077 C 0.96365 0.4878 0.27502 0.0
C3078 C 0.9763 0.50415 0.2852 0.0
C3079 C 0.97273 0.52623 0.27971 0.0
H3080 H 0.6195 0.9697 0.32168 0.0
H3081 H 0.58388 0.02743 0.30176 0.0
H3082 H 0.59906 0.94813 0.29507 0.0
H3083 H 0.56356 1.00629 0.27507 0.0
H3084 H 0.53371 0.95008 0.22949 0.0
H3085 H 0.5434 0.9772 0.257 0.0
H3086 H 0.6105 0.95427 0.25541 0.0
H3087 H 0.59992 0.92633 0.22909 0.0
C3088 C 0.60627 0.97755 0.31266 0.0
C3089 C 0.60513 1.00055 0.31133 0.0
C3090 C 0.59518 0.96539 0.29681 0.0
C3091 C 0.58174 0.97632 0.28134 0.0
C3092 C 0.57529 0.99793 0.2855 0.0
C3093 C 0.5863 1.00979 0.3016 0.0
C3094 C 0.55082 0.95157 0.23426 0.0
C3095 C 0.56537 0.93399 0.23085 0.0
C3096 C 0.55616 0.96679 0.25046 0.0
C3097 C 0.57713 0.96605 0.26002 0.0
C3098 C 0.59363 0.95369 0.24971 0.0
C3099 C 0.58779 0.93831 0.23392 0.0
H3100 H 0.07271 0.59414 0.2803 0.0
H3101 H 0.08043 0.66495 0.27993 0.0
H3102 H 0.11189 0.59038 0.27384 0.0
H3103 H 0.11974 0.66118 0.27266 0.0
H3104 H 0.18082 0.61928 0.30575 0.0
H3105 H 0.15315 0.64437 0.29234 0.0
H3106 H 0.13757 0.59986 0.23995 0.0
H3107 H 0.16414 0.57381 0.2544 0.0
C3108 C 0.0829 0.60884 0.2793 0.0
C3109 C 0.07359 0.62974 0.28023 0.0
C3110 C 0.10517 0.6068 0.27485 0.0
C3111 C 0.11844 0.62564 0.27112 0.0
C3112 C 0.1096 0.64652 0.27446 0.0
C3113 C 0.08726 0.64856 0.27915 0.0
C3114 C 0.17251 0.61537 0.29052 0.0
C3115 C 0.17271 0.59389 0.28227 0.0
C3116 C 0.1567 0.62996 0.2827 0.0
C3117 C 0.14199 0.62273 0.26658 0.0
C3118 C 0.14803 0.60492 0.25342 0.0
C3119 C 0.16321 0.58993 0.26172 0.0
H3120 H 0.39582 0.98554 0.77104 0.0
H3121 H 0.38672 0.94467 0.82919 0.0
H3122 H 0.40741 0.95345 0.7506 0.0
H3123 H 0.39898 0.9126 0.80885 0.0
H3124 H 0.43557 0.89813 0.71884 0.0
H3125 H 0.40294 0.91068 0.73852 0.0
H3126 H 0.44188 0.91813 0.79738 0.0
H3127 H 0.4745 0.9064 0.77757 0.0
C3128 C 0.39565 0.96955 0.77919 0.0
C3129 C 0.39119 0.96748 0.8017 0.0
C3130 C 0.40189 0.95114 0.76745 0.0
C3131 C 0.40418 0.93073 0.77834 0.0
C3132 C 0.39718 0.92822 0.80021 0.0
C3133 C 0.3905 0.94657 0.81184 0.0
C3134 C 0.4369 0.9018 0.73618 0.0
C3135 C 0.45742 0.90207 0.74671 0.0
C3136 C 0.41825 0.90867 0.74741 0.0
C3137 C 0.42005 0.91531 0.76931 0.0
C3138 C 0.44009 0.91283 0.78052 0.0
C3139 C 0.4588 0.90651 0.76916 0.0
H3140 H 1.0066 0.45484 0.76929 0.0
H3141 H 0.05554 0.41204 0.7418 0.0
H3142 H 0.03366 0.48407 0.77192 0.0
H3143 H 0.08224 0.44203 0.74242 0.0
H3144 H 0.13012 0.46971 0.78735 0.0
H3145 H 0.09701 0.44884 0.77898 0.0
H3146 H 0.06289 0.50932 0.76348 0.0
H3147 H 0.09548 0.53018 0.77344 0.0
C3148 C 0.02275 0.45219 0.76227 0.0
C3149 C 0.02972 0.43094 0.75684 0.0
C3150 C 0.03832 0.46896 0.76398 0.0
C3151 C 0.06034 0.46453 0.75897 0.0
C3152 C 0.06555 0.44517 0.74774 0.0
C3153 C 0.0502 0.42818 0.74684 0.0
C3154 C 0.11518 0.47852 0.78335 0.0
C3155 C 0.11548 0.50132 0.78017 0.0
C3156 C 0.09647 0.46664 0.77781 0.0
C3157 C 0.07809 0.47753 0.7689 0.0
C3158 C 0.07716 0.50053 0.76947 0.0
C3159 C 0.09574 0.51244 0.77557 0.0
H3160 H 0.63014 0.04547 0.77988 0.0
H3161 H 0.6809 0.08055 0.81511 0.0
H3162 H 0.63569 0.07018 0.74841 0.0
H3163 H 0.68596 0.10539 0.78385 0.0
H3164 H 0.61437 0.1464 0.7695 0.0
H3165 H 0.6441 0.12452 0.78483 0.0
H3166 H 0.6589 0.09978 0.7202 0.0
H3167 H 0.63006 0.12315 0.70462 0.0
C3168 C 0.6429 0.05799 0.78063 0.0
C3169 C 0.65403 0.06212 0.80026 0.0
C3170 C 0.64654 0.07175 0.76244 0.0
C3171 C 0.66082 0.08998 0.76417 0.0
C3172 C 0.67476 0.09154 0.78234 0.0
C3173 C 0.67128 0.07771 0.80042 0.0
C3174 C 0.62479 0.13719 0.75852 0.0
C3175 C 0.61987 0.13575 0.73621 0.0
C3176 C 0.64202 0.12498 0.76711 0.0
C3177 C 0.65349 0.11034 0.75358 0.0
C3178 C 0.65036 0.11111 0.73077 0.0
C3179 C 0.6337 0.12415 0.72203 0.0
H3180 H 0.94806 0.6749 0.81787 0.0
H3181 H 0.94504 0.64524 0.75392 0.0
H3182 H 0.90829 0.6724 0.82106 0.0
H3183 H 0.9052 0.64505 0.75603 0.0
H3184 H 0.91207 0.58895 0.8054 0.0
H3185 H 0.91302 0.62569 0.8205 0.0
H3186 H 0.86213 0.64621 0.77559 0.0
H3187 H 0.85954 0.60894 0.76193 0.0
C3188 C 0.9387 0.66946 0.80376 0.0
C3189 C 0.94928 0.65916 0.7861 0.0
C3190 C 0.91585 0.66851 0.80545 0.0
C3191 C 0.90395 0.65699 0.78956 0.0
C3192 C 0.9142 0.65301 0.76911 0.0
C3193 C 0.9371 0.6528 0.76785 0.0
C3194 C 0.90014 0.60091 0.79975 0.0
C3195 C 0.88701 0.59684 0.7814 0.0
C3196 C 0.90028 0.62196 0.80864 0.0
C3197 C 0.88923 0.63912 0.79738 0.0
C3198 C 0.87169 0.63345 0.78364 0.0
C3199 C 0.87077 0.61219 0.77535 0.0
H3200 H 0.27138 0.41843 0.09011 0.0
H3201 H 0.20758 0.41221 0.12109 0.0
H3202 H 0.28584 0.43532 0.1233 0.0
H3203 H 0.22178 0.43042 0.15385 0.0
H3204 H 0.30967 0.4647 0.17928 0.0
H3205 H 0.28645 0.43291 0.17217 0.0
H3206 H 0.23904 0.475 0.14019 0.0
H3207 H 0.26263 0.50692 0.14644 0.0
C3208 C 0.26074 0.42006 0.10431 0.0
C3209 C 0.23847 0.41452 0.10318 0.0
C3210 C 0.26898 0.4294 0.12332 0.0
C3211 C 0.25477 0.43397 0.14093 0.0
C3212 C 0.23294 0.42665 0.14053 0.0
C3213 C 0.2249 0.41651 0.12178 0.0
C3214 C 0.29392 0.46735 0.17143 0.0
C3215 C 0.28833 0.48798 0.1623 0.0
C3216 C 0.28049 0.44917 0.16784 0.0
C3217 C 0.26134 0.45169 0.15543 0.0
C3218 C 0.25386 0.47287 0.14987 0.0
C3219 C 0.2675 0.49103 0.15305 0.0
H3220 H 0.25768 0.59261 0.05189 0.0
H3221 H 0.30086 0.63668 0.01548 0.0
H3222 H 0.27397 0.56136 0.03375 0.0
H3223 H 0.31851 0.60513 0.99888 0.0
H3224 H 0.27978 0.57791 0.94057 0.0
H3225 H 0.28077 0.5967 0.97554 0.0
H3226 H 0.30258 0.53718 1.00833 0.0
H3227 H 0.30094 0.51799 0.97322 0.0
C3228 C 0.27178 0.59547 0.04126 0.0
C3229 C 0.27731 0.6168 0.03379 0.0
C3230 C 0.28131 0.5775 0.03115 0.0
C3231 C 0.29631 0.58133 1.01402 0.0
C3232 C 0.30621 0.6022 1.01155 0.0
C3233 C 0.29602 0.62024 0.02079 0.0
C3234 C 0.28406 0.56868 0.95533 0.0
C3235 C 0.29077 0.54684 0.95426 0.0
C3236 C 0.28522 0.57946 0.97518 0.0
C3237 C 0.29334 0.56857 0.99406 0.0
C3238 C 0.29729 0.54597 0.99365 0.0
C3239 C 0.2959 0.53504 0.97371 0.0
H3240 H 0.4419 0.28312 0.02535 0.0
H3241 H 0.39817 0.30335 0.97306 0.0
H3242 H 0.46919 0.27301 0.99888 0.0
H3243 H 0.42676 0.29599 0.9462 0.0
H3244 H 0.46395 0.25828 0.89987 0.0
H3245 H 0.43882 0.26468 0.93024 0.0
H3246 H 0.49458 0.2763 0.973 0.0
H3247 H 0.51908 0.26708 0.94364 0.0
C3248 C 0.43866 0.28672 1.00814 0.0
C3249 C 0.4177 0.29325 1.00106 0.0
C3250 C 0.45437 0.2807 0.9928 0.0
C3251 C 0.44977 0.28242 0.97018 0.0
C3252 C 0.43029 0.29297 0.96342 0.0
C3253 C 0.41416 0.298 0.97879 0.0
C3254 C 0.47062 0.26086 0.91617 0.0
C3255 C 0.4933 0.26286 0.91934 0.0
C3256 C 0.45632 0.26536 0.93341 0.0
C3257 C 0.46463 0.27261 0.95372 0.0
C3258 C 0.48736 0.27125 0.95762 0.0
C3259 C 0.50155 0.26573 0.94068 0.0
H3260 H 0.74029 0.44459 1.01209 0.0
H3261 H 0.75491 0.37842 0.99232 0.0
H3262 H 0.73876 0.45603 0.97368 0.0
H3263 H 0.75475 0.39021 0.95393 0.0
H3264 H 0.7611 0.44055 0.8882 0.0
H3265 H 0.74375 0.4179 0.917 0.0
H3266 H 0.78412 0.44979 0.96561 0.0
H3267 H 0.80086 0.47296 0.9371 0.0
C3268 C 0.74146 0.4321 0.9996 0.0
C3269 C 0.74953 0.41117 1.00478 0.0
C3270 C 0.74085 0.43871 0.97757 0.0
C3271 C 0.7482 0.42422 0.96135 0.0
C3272 C 0.74976 0.40177 0.96636 0.0
C3273 C 0.74977 0.39507 0.98838 0.0
C3274 C 0.76705 0.442 0.90491 0.0
C3275 C 0.78151 0.45924 0.91073 0.0
C3276 C 0.75675 0.42933 0.92134 0.0
C3277 C 0.76162 0.43341 0.94336 0.0
C3278 C 0.77934 0.44737 0.94862 0.0
C3279 C 0.7894 0.46015 0.9323 0.0
H3280 H 0.63852 0.8442 0.96785 0.0
H3281 H 0.64306 0.77354 0.9738 0.0
H3282 H 0.638 0.84174 0.92787 0.0
H3283 H 0.64159 0.77076 0.93382 0.0
H3284 H 0.6224 0.75965 0.87329 0.0
H3285 H 0.65076 0.77807 0.89461 0.0
H3286 H 0.60417 0.82853 0.91152 0.0
H3287 H 0.57608 0.81011 0.89046 0.0
C3288 C 0.63949 0.82812 0.96043 0.0
C3289 C 0.63956 0.80887 0.97351 0.0
C3290 C 0.63966 0.82678 0.93764 0.0
C3291 C 0.63927 0.80613 0.92769 0.0
C3292 C 0.64192 0.787 0.94092 0.0
C3293 C 0.6422 0.78842 0.96379 0.0
C3294 C 0.61862 0.77529 0.8807 0.0
C3295 C 0.59691 0.78292 0.8816 0.0
C3296 C 0.63491 0.78591 0.89273 0.0
C3297 C 0.62925 0.80388 0.90576 0.0
C3298 C 0.60891 0.81428 0.90219 0.0
C3299 C 0.59262 0.80361 0.8903 0.0
H3300 H 0.73784 0.63814 0.02408 0.0
H3301 H 0.76034 0.69127 0.06494 0.0
H3302 H 0.72365 0.61908 0.05654 0.0
H3303 H 0.74703 0.6717 0.09725 0.0
H3304 H 0.75497 0.6133 0.1474 0.0
H3305 H 0.73504 0.63971 0.12422 0.0
H3306 H 0.76621 0.6128 0.06672 0.0
H3307 H 0.78566 0.58642 0.08961 0.0
C3308 C 0.73845 0.64646 0.03972 0.0
C3309 C 0.75185 0.66505 0.04256 0.0
C3310 C 0.7301 0.63563 0.05836 0.0
C3311 C 0.73661 0.64303 0.07921 0.0
C3312 C 0.74319 0.66503 0.08126 0.0
C3313 C 0.75115 0.67613 0.06268 0.0
C3314 C 0.75796 0.61347 0.12982 0.0
C3315 C 0.77159 0.59762 0.12014 0.0
C3316 C 0.74609 0.62814 0.11663 0.0
C3317 C 0.74791 0.62717 0.09371 0.0
C3318 C 0.76341 0.61294 0.08433 0.0
C3319 C 0.77519 0.59837 0.09743 0.0
H3320 H 0.38836 0.81967 0.13508 0.0
H3321 H 0.40956 0.75655 0.11154 0.0
H3322 H 0.4171 0.81891 0.16268 0.0
H3323 H 0.43645 0.75466 0.14104 0.0
H3324 H 0.48872 0.80048 0.11249 0.0
H3325 H 0.45214 0.81164 0.12406 0.0
H3326 H 0.45896 0.77374 0.18425 0.0
H3327 H 0.49645 0.76468 0.17381 0.0
C3328 C 0.39791 0.80477 0.13697 0.0
C3329 C 0.39779 0.78864 0.12055 0.0
C3330 C 0.41415 0.80429 0.15309 0.0
C3331 C 0.42943 0.78722 0.15315 0.0
C3332 C 0.42499 0.76825 0.14084 0.0
C3333 C 0.40975 0.76933 0.12378 0.0
C3334 C 0.48307 0.79611 0.12892 0.0
C3335 C 0.49495 0.78148 0.1421 0.0
C3336 C 0.46223 0.80256 0.1357 0.0
C3337 C 0.45276 0.793 0.15481 0.0
C3338 C 0.466 0.78131 0.16957 0.0
C3339 C 0.48734 0.77598 0.16339 0.0
H3340 H 0.67559 0.27404 0.1231 0.0
H3341 H 0.61799 0.31044 0.14086 0.0
H3342 H 0.67519 0.25599 0.15895 0.0
H3343 H 0.61925 0.29434 0.17742 0.0
H3344 H 0.60562 0.23615 0.125 0.0
H3345 H 0.64174 0.2348 0.14183 0.0
H3346 H 0.61445 0.25891 0.20211 0.0
H3347 H 0.57792 0.25712 0.18617 0.0
C3348 C 0.66381 0.27954 0.1352 0.0
C3349 C 0.6455 0.29215 0.1287 0.0
C3350 C 0.66382 0.26936 0.15608 0.0
C3351 C 0.64479 0.27098 0.16917 0.0
C3352 C 0.63244 0.29042 0.16617 0.0
C3353 C 0.63151 0.29985 0.14508 0.0
C3354 C 0.60721 0.23933 0.14235 0.0
C3355 C 0.58952 0.24808 0.15376 0.0
C3356 C 0.6279 0.23875 0.15226 0.0
C3357 C 0.63104 0.25055 0.17191 0.0
C3358 C 0.61268 0.25177 0.18597 0.0
C3359 C 0.59162 0.25112 0.17661 0.0
H3360 H 0.96402 0.77449 0.68973 0.0
H3361 H 0.99123 0.75096 0.62877 0.0
H3362 H 0.92709 0.77176 0.67447 0.0
H3363 H 0.95417 0.74708 0.61411 0.0
H3364 H 0.874 0.7491 0.60619 0.0
H3365 H 0.8973 0.74186 0.63801 0.0
H3366 H 0.93823 0.79749 0.61976 0.0
H3367 H 0.91595 0.80399 0.58711 0.0
C3368 C 0.962 0.76732 0.67362 0.0
C3369 C 0.98032 0.76396 0.65989 0.0
C3370 C 0.94086 0.76571 0.66503 0.0
C3371 C 0.9382 0.75987 0.64308 0.0
C3372 C 0.95617 0.75184 0.63112 0.0
C3373 C 0.97736 0.75394 0.63952 0.0
C3374 C 0.88735 0.76049 0.60948 0.0
C3375 C 0.89408 0.77634 0.59357 0.0
C3376 C 0.90062 0.75621 0.6277 0.0
C3377 C 0.91972 0.76868 0.63056 0.0
C3378 C 0.92361 0.78749 0.61736 0.0
C3379 C 0.91078 0.79133 0.59881 0.0
H3380 H 0.25332 0.96317 0.69499 0.0
H3381 H 0.28922 1.012 0.65655 0.0
H3382 H 0.28101 0.93593 0.6864 0.0
H3383 H 0.31724 0.98488 0.64875 0.0
H3384 H 0.28156 0.92374 0.60366 0.0
H3385 H 0.27265 0.93688 0.64024 0.0
H3386 H 0.34181 0.94539 0.6543 0.0
H3387 H 0.35076 0.9309 0.61798 0.0
C3388 C 0.26767 0.96838 0.68562 0.0
C3389 C 0.26862 0.98915 0.67515 0.0
C3390 C 0.28374 0.95288 0.6812 0.0
C3391 C 0.30062 0.95825 0.66632 0.0
C3392 C 0.30408 0.98035 0.66002 0.0
C3393 C 0.2878 0.99575 0.66404 0.0
C3394 C 0.29478 0.92762 0.61493 0.0
C3395 C 0.31668 0.92693 0.60816 0.0
C3396 C 0.2898 0.9347 0.63595 0.0
C3397 C 0.30667 0.94196 0.65 0.0
C3398 C 0.32868 0.93948 0.64385 0.0
C3399 C 0.33368 0.93157 0.62305 0.0
H3400 H 0.07622 0.23899 0.64368 0.0
H3401 H 0.02529 0.26685 0.6025 0.0
H3402 H 0.10415 0.25756 0.62117 0.0
H3403 H 0.05326 0.28559 0.58019 0.0
H3404 H 0.10752 0.29177 0.52952 0.0
H3405 H 0.08184 0.27233 0.55389 0.0
H3406 H 0.11815 0.29488 0.61037 0.0
H3407 H 0.14402 0.31418 0.58604 0.0
C3408 C 0.07096 0.24941 0.63009 0.0
C3409 C 0.04855 0.25137 0.62479 0.0
C3410 C 0.08697 0.26 0.6172 0.0
C3411 C 0.08086 0.27265 0.59872 0.0
C3412 C 0.05842 0.27552 0.59408 0.0
C3413 C 0.0424 0.26504 0.60704 0.0
C3414 C 0.11035 0.29217 0.5471 0.0
C3415 C 0.12772 0.3046 0.55586 0.0
C3416 C 0.09546 0.28129 0.56105 0.0
C3417 C 0.09778 0.28251 0.58401 0.0
C3418 C 0.11595 0.29373 0.59274 0.0
C3419 C 0.13077 0.30473 0.57879 0.0
H3420 H 0.75985 0.05765 0.60784 0.0
H3421 H 0.78834 0.10701 0.64977 0.0
H3422 H 0.76176 0.08339 0.57668 0.0
H3423 H 0.79158 0.1322 0.61859 0.0
H3424 H 0.78387 0.12333 0.51989 0.0
H3425 H 0.78782 0.09953 0.55226 0.0
H3426 H 0.77295 0.15455 0.59401 0.0
H3427 H 0.77034 0.17836 0.56187 0.0
C3428 C 0.76614 0.07414 0.61045 0.0
C3429 C 0.77381 0.0804 0.63119 0.0
C3430 C 0.76775 0.08873 0.59252 0.0
C3431 C 0.77737 0.10972 0.59496 0.0
C3432 C 0.78403 0.11625 0.61604 0.0
C3433 C 0.78205 0.10183 0.63399 0.0
C3434 C 0.78255 0.13052 0.53604 0.0
C3435 C 0.77649 0.15261 0.5384 0.0
C3436 C 0.78426 0.11678 0.5546 0.0
C3437 C 0.77986 0.12492 0.57572 0.0
C3438 C 0.77634 0.1476 0.57808 0.0
C3439 C 0.77491 0.16133 0.5596 0.0
H3440 H 0.97192 0.27867 0.39445 0.0
H3441 H 0.92762 0.22298 0.38874 0.0
H3442 H 0.94075 0.30215 0.40227 0.0
H3443 H 0.89663 0.24644 0.39719 0.0
H3444 H 0.89029 0.33844 0.43015 0.0
H3445 H 0.89786 0.31632 0.39791 0.0
H3446 H 0.90494 0.25882 0.43994 0.0
H3447 H 0.89822 0.28103 0.47222 0.0
C3448 C 0.9555 0.27164 0.39422 0.0
C3449 C 0.95216 0.24897 0.39216 0.0
C3450 C 0.93761 0.28512 0.39815 0.0
C3451 C 0.91649 0.27582 0.40066 0.0
C3452 C 0.91282 0.25381 0.39529 0.0
C3453 C 0.93065 0.2404 0.39095 0.0
C3454 C 0.89277 0.32091 0.43238 0.0
C3455 C 0.89465 0.31138 0.45351 0.0
C3456 C 0.89666 0.3083 0.41392 0.0
C3457 C 0.90204 0.28609 0.4166 0.0
C3458 C 0.90065 0.27598 0.43754 0.0
C3459 C 0.89732 0.28869 0.45602 0.0
H3460 H 0.79925 0.94593 0.36902 0.0
H3461 H 0.7491 0.94831 0.41949 0.0
H3462 H 0.79129 0.90761 0.36346 0.0
H3463 H 0.73951 0.91029 0.41145 0.0
H3464 H 0.79667 0.91383 0.44976 0.0
H3465 H 0.80698 0.91015 0.41135 0.0
H3466 H 0.75511 0.86295 0.40189 0.0
H3467 H 0.74697 0.86349 0.44071 0.0
C3468 C 0.78548 0.93874 0.37798 0.0
C3469 C 0.77617 0.94939 0.39631 0.0
C3470 C 0.78055 0.91673 0.37419 0.0
C3471 C 0.76736 0.90559 0.38957 0.0
C3472 C 0.75187 0.91834 0.40121 0.0
C3473 C 0.7574 0.94016 0.40613 0.0
C3474 C 0.78859 0.9014 0.43998 0.0
C3475 C 0.76961 0.89059 0.44757 0.0
C3476 C 0.7945 0.89902 0.41787 0.0
C3477 C 0.77898 0.88924 0.40355 0.0
C3478 C 0.76574 0.8725 0.41247 0.0
C3479 C 0.7607 0.87339 0.43479 0.0
H3480 H 0.0761 0.7617 0.43792 0.0
H3481 H 0.09781 0.80735 0.38686 0.0
H3482 H 0.10468 0.7756 0.46204 0.0
H3483 H 0.12618 0.82152 0.41144 0.0
H3484 H 0.11982 0.81927 0.50956 0.0
H3485 H 0.1011 0.82159 0.47433 0.0
H3486 H 0.16092 0.80381 0.44099 0.0
H3487 H 0.17996 0.80231 0.47618 0.0
C3488 C 0.08752 0.774 0.4315 0.0
C3489 C 0.08407 0.78418 0.41098 0.0
C3490 C 0.10355 0.78226 0.44542 0.0
C3491 C 0.11646 0.80045 0.43877 0.0
C3492 C 0.11573 0.80801 0.41698 0.0
C3493 C 0.09971 0.79962 0.40293 0.0
C3494 C 0.12944 0.8176 0.49466 0.0
C3495 C 0.15083 0.80927 0.49543 0.0
C3496 C 0.11868 0.81875 0.47449 0.0
C3497 C 0.1295 0.81171 0.45542 0.0
C3498 C 0.15227 0.80882 0.45568 0.0
C3499 C 0.1631 0.80799 0.47584 0.0
H3500 H 0.25756 0.15066 0.42072 0.0
H3501 H 0.32814 0.15177 0.41429 0.0
H3502 H 0.25605 0.11668 0.40008 0.0
H3503 H 0.32689 0.11644 0.39566 0.0
H3504 H 0.25386 0.0569 0.37126 0.0
H3505 H 0.2768 0.08883 0.36357 0.0
H3506 H 0.30129 0.08601 0.43009 0.0
H3507 H 0.2778 0.05395 0.43805 0.0
C3508 C 0.27259 0.14434 0.41366 0.0
C3509 C 0.29296 0.15335 0.41926 0.0
C3510 C 0.27182 0.12488 0.40196 0.0
C3511 C 0.29146 0.11395 0.39685 0.0
C3512 C 0.31165 0.1247 0.39945 0.0
C3513 C 0.31229 0.14485 0.41009 0.0
C3514 C 0.26504 0.0623 0.38392 0.0
C3515 C 0.26354 0.05368 0.40551 0.0
C3516 C 0.27842 0.08039 0.37932 0.0
C3517 C 0.29029 0.08995 0.39635 0.0
C3518 C 0.29214 0.07871 0.41672 0.0
C3519 C 0.27854 0.06058 0.42141 0.0
H3520 H 0.64227 0.93021 0.83336 0.0
H3521 H 0.57866 0.96098 0.82843 0.0
H3522 H 0.6268 0.89617 0.81867 0.0
H3523 H 0.56318 0.9274 0.81412 0.0
H3524 H 0.60036 0.8936 0.74319 0.0
H3525 H 0.61755 0.89726 0.779 0.0
H3526 H 0.55432 0.88799 0.8106 0.0
H3527 H 0.53705 0.88527 0.77457 0.0
C3528 C 0.62486 0.92942 0.82967 0.0
C3529 C 0.61171 0.94825 0.83092 0.0
C3530 C 0.61599 0.90991 0.82162 0.0
C3531 C 0.59394 0.90921 0.81487 0.0
C3532 C 0.58026 0.92727 0.81915 0.0
C3533 C 0.58917 0.94675 0.82687 0.0
C3534 C 0.59033 0.89166 0.75786 0.0
C3535 C 0.56741 0.89073 0.75644 0.0
C3536 C 0.60017 0.89326 0.77844 0.0
C3537 C 0.58699 0.89404 0.79749 0.0
C3538 C 0.56466 0.88822 0.79606 0.0
C3539 C 0.55476 0.88716 0.7755 0.0
H3540 H 0.08279 0.67162 0.81115 0.0
H3541 H 0.05575 0.61778 0.77378 0.0
H3542 H 0.1188 0.66548 0.79505 0.0
H3543 H 0.09199 0.61222 0.75712 0.0
H3544 H 0.16422 0.61718 0.73075 0.0
H3545 H 0.13562 0.64343 0.74007 0.0
H3546 H 0.12823 0.61209 0.80384 0.0
H3547 H 0.15577 0.58491 0.79408 0.0
C3548 C 0.08432 0.65905 0.7988 0.0
C3549 C 0.06673 0.64463 0.79415 0.0
C3550 C 0.10489 0.65581 0.78947 0.0
C3551 C 0.10788 0.63846 0.77508 0.0
C3552 C 0.08972 0.62589 0.76814 0.0
C3553 C 0.0691 0.62896 0.77769 0.0
C3554 C 0.15736 0.6166 0.74721 0.0
C3555 C 0.16164 0.59877 0.76159 0.0
C3556 C 0.14097 0.63157 0.7524 0.0
C3557 C 0.12978 0.62929 0.7724 0.0
C3558 C 0.13684 0.61391 0.78827 0.0
C3559 C 0.15265 0.59851 0.7828 0.0
H3560 H 0.42125 0.05497 0.78117 0.0
H3561 H 0.40533 0.11091 0.82123 0.0
H3562 H 0.45018 0.07637 0.76303 0.0
H3563 H 0.43441 0.1324 0.80284 0.0
H3564 H 0.47682 0.1635 0.74346 0.0
H3565 H 0.44641 0.14695 0.76428 0.0
H3566 H 0.48667 0.09048 0.77948 0.0
H3567 H 0.51712 0.10695 0.75852 0.0
C3568 C 0.42359 0.07201 0.78572 0.0
C3569 C 0.41128 0.08123 0.80277 0.0
C3570 C 0.44031 0.08412 0.77555 0.0
C3571 C 0.44487 0.10569 0.78215 0.0
C3572 C 0.43129 0.11565 0.79775 0.0
C3573 C 0.41455 0.10345 0.80806 0.0
C3574 C 0.47931 0.14777 0.75169 0.0
C3575 C 0.49912 0.13627 0.7492 0.0
C3576 C 0.46195 0.13838 0.76358 0.0
C3577 C 0.46416 0.11732 0.77295 0.0
C3578 C 0.48455 0.10661 0.77196 0.0
C3579 C 0.502 0.1161 0.76022 0.0
H3580 H 0.94591 0.39263 0.76153 0.0
H3581 H 0.92494 0.38692 0.8293 0.0
H3582 H 0.91762 0.41999 0.75479 0.0
H3583 H 0.89795 0.41583 0.823 0.0
H3584 H 0.92267 0.49294 0.7893 0.0
H3585 H 0.92318 0.45652 0.80721 0.0
H3586 H 0.87233 0.43395 0.76342 0.0
H3587 H 0.87166 0.46987 0.74567 0.0
C3588 C 0.93446 0.39634 0.77463 0.0
C3589 C 0.93789 0.38827 0.79599 0.0
C3590 C 0.91834 0.41204 0.77086 0.0
C3591 C 0.90614 0.42017 0.78859 0.0
C3592 C 0.90731 0.40974 0.80921 0.0
C3593 C 0.92278 0.39325 0.81272 0.0
C3594 C 0.91084 0.48056 0.78434 0.0
C3595 C 0.89765 0.48392 0.76577 0.0
C3596 C 0.91092 0.45984 0.7947 0.0
C3597 C 0.89785 0.44262 0.78641 0.0
C3598 C 0.88237 0.44707 0.77007 0.0
C3599 C 0.88229 0.46761 0.75979 0.0
H3600 H 0.63165 0.09405 0.30788 0.0
H3601 H 0.67807 0.11383 0.25729 0.0
H3602 H 0.60776 0.12403 0.29665 0.0
H3603 H 0.65314 0.14266 0.24495 0.0
H3604 H 0.56092 0.11613 0.24879 0.0
H3605 H 0.60029 0.10997 0.24536 0.0
H3606 H 0.61341 0.17642 0.26573 0.0
H3607 H 0.57418 0.18317 0.2671 0.0
C3608 C 0.63741 0.10553 0.29527 0.0
C3609 C 0.65565 0.10061 0.28222 0.0
C3610 C 0.62363 0.12254 0.28866 0.0
C3611 C 0.62826 0.1344 0.26912 0.0
C3612 C 0.64905 0.13303 0.25954 0.0
C3613 C 0.66327 0.11656 0.26681 0.0
C3614 C 0.57209 0.12998 0.25049 0.0
C3615 C 0.56485 0.14968 0.25947 0.0
C3616 C 0.59466 0.12647 0.24868 0.0
C3617 C 0.6095 0.14248 0.25645 0.0
C3618 C 0.60216 0.16379 0.26009 0.0
C3619 C 0.57964 0.16754 0.26095 0.0
H3620 H 0.95071 0.69309 0.2526 0.0
H3621 H 0.96568 0.6442 0.30274 0.0
H3622 H 0.91948 0.7049 0.27332 0.0
H3623 H 0.93334 0.65582 0.32312 0.0
H3624 H 0.89567 0.62444 0.26555 0.0
H3625 H 0.90445 0.6632 0.26115 0.0
H3626 H 0.89045 0.67352 0.32981 0.0
H3627 H 0.87812 0.63563 0.33336 0.0
C3628 C 0.94803 0.68548 0.26859 0.0
C3629 C 0.95984 0.66665 0.27544 0.0
C3630 C 0.93028 0.69283 0.28081 0.0
C3631 C 0.92282 0.67968 0.29834 0.0
C3632 C 0.938 0.66521 0.30851 0.0
C3633 C 0.9562 0.658 0.29658 0.0
C3634 C 0.89301 0.63533 0.27924 0.0
C3635 C 0.88789 0.62696 0.3001 0.0
C3636 C 0.8977 0.6577 0.27682 0.0
C3637 C 0.90048 0.67046 0.29592 0.0
C3638 C 0.8896 0.66361 0.31515 0.0
C3639 C 0.88321 0.64162 0.31725 0.0
H3640 H 0.372 0.96306 0.28239 0.0
H3641 H 0.43243 0.99517 0.30174 0.0
H3642 H 0.39109 0.92796 0.2806 0.0
H3643 H 0.45121 0.95997 0.30061 0.0
H3644 H 0.45292 0.87278 0.28782 0.0
H3645 H 0.42402 0.8978 0.29946 0.0
H3646 H 0.44951 0.94772 0.25487 0.0
H3647 H 0.47857 0.9231 0.24342 0.0
C3648 C 0.389 0.96233 0.28769 0.0
C3649 C 0.40114 0.98179 0.29113 0.0
C3650 C 0.39985 0.94227 0.28657 0.0
C3651 C 0.42262 0.94181 0.28951 0.0
C3652 C 0.43363 0.96036 0.29772 0.0
C3653 C 0.42283 0.98043 0.29865 0.0
C3654 C 0.45178 0.88875 0.27973 0.0
C3655 C 0.46865 0.89652 0.26558 0.0
C3656 C 0.43541 0.90306 0.28666 0.0
C3657 C 0.43559 0.9248 0.27887 0.0
C3658 C 0.44983 0.93112 0.26166 0.0
C3659 C 0.46618 0.91692 0.25482 0.0
H3660 H 0.0313 0.42422 0.28396 0.0
H3661 H 0.07344 0.38504 0.24286 0.0
H3662 H 0.06188 0.44907 0.29112 0.0
H3663 H 0.10412 0.41011 0.25016 0.0
H3664 H 0.10619 0.50486 0.27027 0.0
H3665 H 0.07998 0.47541 0.26247 0.0
H3666 H 0.12827 0.42693 0.28136 0.0
H3667 H 0.15461 0.45645 0.28915 0.0
C3668 C 0.04723 0.42055 0.27697 0.0
C3669 C 0.04989 0.40295 0.26254 0.0
C3670 C 0.06464 0.43491 0.28086 0.0
C3671 C 0.08502 0.43179 0.27057 0.0
C3672 C 0.08841 0.41293 0.25803 0.0
C3673 C 0.07089 0.39855 0.254 0.0
C3674 C 0.1114 0.48792 0.27217 0.0
C3675 C 0.13224 0.48284 0.28052 0.0
C3676 C 0.09636 0.47112 0.26797 0.0
C3677 C 0.10204 0.44904 0.27195 0.0
C3678 C 0.12353 0.44387 0.2784 0.0
C3679 C 0.13856 0.46072 0.28274 0.0
H3680 H 0.82655 0.6733 0.92011 0.0
H3681 H 0.75763 0.6559 0.92021 0.0
H3682 H 0.8326 0.64993 0.8884 0.0
H3683 H 0.76322 0.63405 0.88757 0.0
H3684 H 0.76607 0.5892 0.84668 0.0
H3685 H 0.78257 0.62546 0.84685 0.0
H3686 H 0.82207 0.60641 0.90271 0.0
H3687 H 0.80578 0.56965 0.9024 0.0
C3688 C 0.81245 0.66565 0.91243 0.0
C3689 C 0.79171 0.66574 0.9227 0.0
C3690 C 0.81596 0.65246 0.8942 0.0
C3691 C 0.79848 0.64011 0.88576 0.0
C3692 C 0.777 0.64353 0.89374 0.0
C3693 C 0.77372 0.65588 0.91251 0.0
C3694 C 0.7793 0.59219 0.85815 0.0
C3695 C 0.78398 0.57706 0.87524 0.0
C3696 C 0.78902 0.61296 0.85794 0.0
C3697 C 0.80264 0.61888 0.87541 0.0
C3698 C 0.81115 0.60224 0.8893 0.0
C3699 C 0.80157 0.58127 0.88941 0.0
H3700 H 0.8002 0.39001 0.11918 0.0
H3701 H 0.74792 0.43356 0.13742 0.0
H3702 H 0.82137 0.40136 0.1509 0.0
H3703 H 0.76785 0.44311 0.17045 0.0
H3704 H 0.8157 0.48096 0.12741 0.0
H3705 H 0.82671 0.44358 0.13492 0.0
H3706 H 0.80228 0.44762 0.20104 0.0
H3707 H 0.79249 0.48565 0.19408 0.0
C3708 C 0.79242 0.40065 0.13098 0.0
C3709 C 0.77289 0.41182 0.12555 0.0
C3710 C 0.80452 0.40687 0.14941 0.0
C3711 C 0.79695 0.42418 0.16233 0.0
C3712 C 0.77467 0.43044 0.16019 0.0
C3713 C 0.76308 0.42513 0.14118 0.0
C3714 C 0.81449 0.47463 0.14414 0.0
C3715 C 0.8017 0.48537 0.15971 0.0
C3716 C 0.82106 0.45304 0.14868 0.0
C3717 C 0.81262 0.44216 0.1676 0.0
C3718 C 0.80735 0.45527 0.18561 0.0
C3719 C 0.80136 0.47709 0.18147 0.0
H3720 H 0.67463 0.81541 0.1181 0.0
H3721 H 0.65278 0.76988 0.06855 0.0
H3722 H 0.67232 0.78631 0.1458 0.0
H3723 H 0.65166 0.74062 0.09626 0.0
H3724 H 0.61471 0.70635 0.14554 0.0
H3725 H 0.65188 0.72077 0.13964 0.0
H3726 H 0.62556 0.78655 0.13445 0.0
H3727 H 0.58841 0.77197 0.13895 0.0
C3728 C 0.67027 0.79896 0.11294 0.0
C3729 C 0.66194 0.79507 0.09175 0.0
C3730 C 0.66976 0.78215 0.12871 0.0
C3731 C 0.66012 0.76198 0.12326 0.0
C3732 C 0.65806 0.75659 0.10093 0.0
C3733 C 0.65795 0.77345 0.08518 0.0
C3734 C 0.61706 0.72399 0.14372 0.0
C3735 C 0.59897 0.73819 0.14181 0.0
C3736 C 0.63831 0.73214 0.14086 0.0
C3737 C 0.6415 0.75462 0.13675 0.0
C3738 C 0.6235 0.7691 0.13791 0.0
C3739 C 0.60224 0.76084 0.13991 0.0
H3740 H 0.26806 0.67902 0.09488 0.0
H3741 H 0.2015 0.67369 0.11915 0.0
H3742 H 0.2817 0.66555 0.13002 0.0
H3743 H 0.21504 0.6586 0.15397 0.0
H3744 H 0.25427 0.58628 0.14277 0.0
H3745 H 0.23235 0.61959 0.13969 0.0
H3746 H 0.28275 0.65615 0.17371 0.0
H3747 H 0.30444 0.62275 0.17726 0.0
C3748 C 0.25648 0.67604 0.1082 0.0
C3749 C 0.23387 0.6765 0.10437 0.0
C3750 C 0.26422 0.66856 0.12844 0.0
C3751 C 0.24926 0.66033 0.14429 0.0
C3752 C 0.22679 0.66471 0.14186 0.0
C3753 C 0.21908 0.67307 0.12186 0.0
C3754 C 0.26022 0.60125 0.15028 0.0
C3755 C 0.2813 0.60235 0.15933 0.0
C3756 C 0.24753 0.62021 0.14899 0.0
C3757 C 0.2561 0.64043 0.15631 0.0
C3758 C 0.27585 0.64074 0.16806 0.0
C3759 C 0.2884 0.62173 0.1696 0.0
H3760 H 0.37243 0.2481 0.12576 0.0
H3761 H 0.38339 0.30905 0.08985 0.0
H3762 H 0.40683 0.25343 0.14534 0.0
H3763 H 0.41756 0.31461 0.10983 0.0
H3764 H 0.47791 0.28134 0.17043 0.0
H3765 H 0.43789 0.27926 0.16637 0.0
H3766 H 0.44556 0.28227 0.09573 0.0
H3767 H 0.48551 0.28421 0.0998 0.0
C3768 C 0.3813 0.26347 0.1232 0.0
C3769 C 0.37632 0.27745 0.10526 0.0
C3770 C 0.40115 0.26635 0.13429 0.0
C3771 C 0.41513 0.28374 0.12797 0.0
C3772 C 0.40718 0.30065 0.11425 0.0
C3773 C 0.38746 0.29765 0.1031 0.0
C3774 C 0.47098 0.28063 0.15406 0.0
C3775 C 0.48454 0.28293 0.13537 0.0
C3776 C 0.4482 0.27978 0.15181 0.0
C3777 C 0.43893 0.28156 0.13085 0.0
C3778 C 0.45257 0.2816 0.11211 0.0
C3779 C 0.47533 0.28214 0.11436 0.0
H3780 H 0.26873 0.42884 1.00303 0.0
H3781 H 0.23271 0.38392 0.96157 0.0
H3782 H 0.29456 0.43607 0.97275 0.0
H3783 H 0.25804 0.39181 0.93142 0.0
H3784 H 0.33854 0.4407 0.91257 0.0
H3785 H 0.32098 0.41347 0.93713 0.0
H3786 H 0.2574 0.43998 0.92049 0.0
H3787 H 0.27501 0.46798 0.89701 0.0
C3788 C 0.26676 0.42001 0.9878 0.0
C3789 C 0.24843 0.40638 0.98441 0.0
C3790 C 0.28158 0.42397 0.9706 0.0
C3791 C 0.27803 0.41443 0.94996 0.0
C3792 C 0.26104 0.39914 0.9473 0.0
C3793 C 0.24646 0.39494 0.96451 0.0
C3794 C 0.32074 0.4399 0.91329 0.0
C3795 C 0.30794 0.45625 0.90306 0.0
C3796 C 0.31081 0.42445 0.92738 0.0
C3797 C 0.28802 0.42487 0.93053 0.0
C3798 C 0.27505 0.43937 0.91801 0.0
C3799 C 0.28502 0.45528 0.90457 0.0
H3800 H 0.58962 0.2847 1.01061 0.0
H3801 H 0.65838 0.30029 1.00152 0.0
H3802 H 0.58427 0.28635 0.97095 0.0
H3803 H 0.6531 0.30199 0.96166 0.0
H3804 H 0.58492 0.25505 0.9085 0.0
H3805 H 0.60024 0.25696 0.94538 0.0
H3806 H 0.63238 0.31849 0.92829 0.0
H3807 H 0.61769 0.31623 0.89117 0.0
C3808 C 0.60325 0.28995 1.00021 0.0
C3809 C 0.62439 0.29227 1.00892 0.0
C3810 C 0.60039 0.29021 0.9775 0.0
C3811 C 0.61856 0.29328 0.96341 0.0
C3812 C 0.63898 0.29916 0.97225 0.0
C3813 C 0.64188 0.29865 0.99502 0.0
C3814 C 0.5964 0.26824 0.91216 0.0
C3815 C 0.59913 0.28609 0.89751 0.0
C3816 C 0.60469 0.26964 0.93341 0.0
C3817 C 0.61619 0.28862 0.93984 0.0
C3818 C 0.62292 0.30406 0.92381 0.0
C3819 C 0.61474 0.30253 0.90244 0.0
H3820 H 0.39167 0.80221 0.97274 0.0
H3821 H 0.44177 0.78153 0.01874 0.0
H3822 H 0.41457 0.79055 0.94218 0.0
H3823 H 0.4646 0.76951 0.98811 0.0
H3824 H 0.51056 0.7799 0.92971 0.0
H3825 H 0.48527 0.78969 0.95904 0.0
H3826 H 0.43169 0.75932 0.92381 0.0
H3827 H 0.45694 0.7497 0.89428 0.0
C3828 C 0.40734 0.79462 0.97635 0.0
C3829 C 0.41495 0.79285 0.99815 0.0
C3830 C 0.42048 0.78797 0.95882 0.0
C3831 C 0.44158 0.77951 0.96269 0.0
C3832 C 0.4486 0.77642 0.98458 0.0
C3833 C 0.43538 0.78297 1.00215 0.0
C3834 C 0.49331 0.77571 0.92795 0.0
C3835 C 0.4858 0.764 0.90962 0.0
C3836 C 0.47887 0.78102 0.94495 0.0
C3837 C 0.45657 0.77485 0.94399 0.0
C3838 C 0.44879 0.76425 0.92508 0.0
C3839 C 0.46326 0.75885 0.9081 0.0
loop_
_geom_bond_atom_site_label_1
_geom_bond_atom_site_label_2
_geom_bond_distance
_geom_bond_site_symmetry_2
_ccdc_geom_bond_type
Dy0 O4 2.398 . S
Dy0 O5 2.491 . S
Dy0 O6 2.403 . S
Dy0 O7 2.664 1_655 S
Dy0 O11 2.326 1_655 S
Dy0 O15 2.310 . S
Dy0 O16 2.351 . S
C1 O12 1.185 . S
C1 O13 1.355 . S
C2 O4 1.185 . S
C2 O5 1.355 . S
Dy3 O7 2.310 . S
Dy3 O10 2.351 . S
Dy3 O12 2.398 . S
Dy3 O13 2.491 . S
Dy3 O14 2.403 . S
Dy3 O15 2.664 1_455 S
Dy3 O17 2.326 1_455 S
O4 Dy0 2.398 . S
O4 C2 1.185 . S
O5 Dy0 2.491 . S
O5 C2 1.355 . S
O6 Dy0 2.403 . S
O6 C8 1.254 . S
O7 Dy0 2.664 1_455 S
O7 Dy3 2.310 . S
O7 C8 1.268 1_455 S
C8 O6 1.254 . S
C8 O7 1.268 1_655 S
C9 O14 1.254 . S
C9 O15 1.268 1_455 S
O10 Dy3 2.351 . S
O10 C18 1.249 . S
O11 Dy0 2.326 1_455 S
O11 C18 1.267 . S
O12 C1 1.185 . S
O12 Dy3 2.398 . S
O13 C1 1.355 . S
O13 Dy3 2.491 . S
O14 Dy3 2.403 . S
O14 C9 1.254 . S
O15 Dy0 2.310 . S
O15 Dy3 2.664 1_655 S
O15 C9 1.268 1_655 S
O16 Dy0 2.351 . S
O16 C19 1.249 . S
O17 Dy3 2.326 1_655 S
O17 C19 1.267 . S
C18 O10 1.249 . S
C18 O11 1.267 . S
C19 O16 1.249 . S
C19 O17 1.267 . S
Dy20 O24 2.398 . S
Dy20 O25 2.491 . S
Dy20 O26 2.403 . S
Dy20 O27 2.664 1_565 S
Dy20 O31 2.326 1_565 S
Dy20 O35 2.310 1_565 S
Dy20 O36 2.351 . S
C21 O32 1.185 . S
C21 O33 1.355 . S
C22 O24 1.185 . S
C22 O25 1.355 . S
Dy23 O27 2.310 . S
Dy23 O30 2.351 . S
Dy23 O32 2.398 . S
Dy23 O33 2.491 . S
Dy23 O34 2.403 . S
Dy23 O35 2.664 . S
Dy23 O37 2.326 . S
O24 Dy20 2.398 . S
O24 C22 1.185 . S
O25 Dy20 2.491 . S
O25 C22 1.355 . S
O26 Dy20 2.403 . S
O26 C28 1.254 1_565 S
O27 Dy20 2.664 1_545 S
O27 Dy23 2.310 . S
O27 C28 1.268 . S
C28 O26 1.254 1_545 S
C28 O27 1.268 . S
C29 O34 1.254 . S
C29 O35 1.268 . S
O30 Dy23 2.351 . S
O30 C38 1.249 . S
O31 Dy20 2.326 1_545 S
O31 C38 1.267 . S
O32 C21 1.185 . S
O32 Dy23 2.398 . S
O33 C21 1.355 . S
O33 Dy23 2.491 . S
O34 Dy23 2.403 . S
O34 C29 1.254 . S
O35 Dy20 2.310 1_545 S
O35 Dy23 2.664 . S
O35 C29 1.268 . S
O36 Dy20 2.351 . S
O36 C39 1.249 . S
O37 Dy23 2.326 . S
O37 C39 1.267 1_545 S
C38 O30 1.249 . S
C38 O31 1.267 . S
C39 O36 1.249 . S
C39 O37 1.267 1_565 S
Dy40 O44 2.398 . S
Dy40 O45 2.491 . S
Dy40 O46 2.403 . S
Dy40 O47 2.664 . S
Dy40 O51 2.326 . S
Dy40 O55 2.310 . S
Dy40 O56 2.351 . S
C41 O52 1.185 . S
C41 O53 1.355 . S
C42 O44 1.185 . S
C42 O45 1.355 . S
Dy43 O47 2.310 1_655 S
Dy43 O50 2.351 . S
Dy43 O52 2.398 . S
Dy43 O53 2.491 . S
Dy43 O54 2.403 . S
Dy43 O55 2.664 1_655 S
Dy43 O57 2.326 1_655 S
O44 Dy40 2.398 . S
O44 C42 1.185 . S
O45 Dy40 2.491 . S
O45 C42 1.355 . S
O46 Dy40 2.403 . S
O46 C48 1.254 . S
O47 Dy40 2.664 . S
O47 Dy43 2.310 1_455 S
O47 C48 1.268 . S
C48 O46 1.254 . S
C48 O47 1.268 . S
C49 O54 1.254 1_455 S
C49 O55 1.268 . S
O50 Dy43 2.351 . S
O50 C58 1.249 . S
O51 Dy40 2.326 . S
O51 C58 1.267 1_455 S
O52 C41 1.185 . S
O52 Dy43 2.398 . S
O53 C41 1.355 . S
O53 Dy43 2.491 . S
O54 Dy43 2.403 . S
O54 C49 1.254 1_655 S
O55 Dy40 2.310 . S
O55 Dy43 2.664 1_455 S
O55 C49 1.268 . S
O56 Dy40 2.351 . S
O56 C59 1.249 . S
O57 Dy43 2.326 1_455 S
O57 C59 1.267 . S
C58 O50 1.249 . S
C58 O51 1.267 1_655 S
C59 O56 1.249 . S
C59 O57 1.267 . S
Dy60 O64 2.398 . S
Dy60 O65 2.491 . S
Dy60 O66 2.403 . S
Dy60 O67 2.664 . S
Dy60 O71 2.326 . S
Dy60 O75 2.310 . S
Dy60 O76 2.351 . S
C61 O72 1.185 . S
C61 O73 1.355 . S
C62 O64 1.185 . S
C62 O65 1.355 . S
Dy63 O67 2.310 1_565 S
Dy63 O70 2.351 . S
Dy63 O72 2.398 . S
Dy63 O73 2.491 . S
Dy63 O74 2.403 . S
Dy63 O75 2.664 1_565 S
Dy63 O77 2.326 1_565 S
O64 Dy60 2.398 . S
O64 C62 1.185 . S
O65 Dy60 2.491 . S
O65 C62 1.355 . S
O66 Dy60 2.403 . S
O66 C68 1.254 . S
O67 Dy60 2.664 . S
O67 Dy63 2.310 1_545 S
O67 C68 1.268 . S
C68 O66 1.254 . S
C68 O67 1.268 . S
C69 O74 1.254 1_545 S
C69 O75 1.268 . S
O70 Dy63 2.351 . S
O70 C78 1.249 . S
O71 Dy60 2.326 . S
O71 C78 1.267 1_545 S
O72 C61 1.185 . S
O72 Dy63 2.398 . S
O73 C61 1.355 . S
O73 Dy63 2.491 . S
O74 Dy63 2.403 . S
O74 C69 1.254 1_565 S
O75 Dy60 2.310 . S
O75 Dy63 2.664 1_545 S
O75 C69 1.268 . S
O76 Dy60 2.351 . S
O76 C79 1.249 . S
O77 Dy63 2.326 1_545 S
O77 C79 1.267 . S
C78 O70 1.249 . S
C78 O71 1.267 1_565 S
C79 O76 1.249 . S
C79 O77 1.267 . S
Dy80 O84 2.398 . S
Dy80 O85 2.491 . S
Dy80 O86 2.403 . S
Dy80 O87 2.664 1_655 S
Dy80 O91 2.326 1_655 S
Dy80 O95 2.310 1_655 S
Dy80 O96 2.351 . S
C81 O92 1.185 . S
C81 O93 1.355 . S
C82 O84 1.185 . S
C82 O85 1.355 . S
Dy83 O87 2.310 . S
Dy83 O90 2.351 . S
Dy83 O92 2.398 . S
Dy83 O93 2.491 . S
Dy83 O94 2.403 . S
Dy83 O95 2.664 . S
Dy83 O97 2.326 . S
O84 Dy80 2.398 . S
O84 C82 1.185 . S
O85 Dy80 2.491 . S
O85 C82 1.355 . S
O86 Dy80 2.403 . S
O86 C88 1.254 1_655 S
O87 Dy80 2.664 1_455 S
O87 Dy83 2.310 . S
O87 C88 1.268 . S
C88 O86 1.254 1_455 S
C88 O87 1.268 . S
C89 O94 1.254 . S
C89 O95 1.268 . S
O90 Dy83 2.351 . S
O90 C98 1.249 . S
O91 Dy80 2.326 1_455 S
O91 C98 1.267 . S
O92 C81 1.185 . S
O92 Dy83 2.398 . S
O93 C81 1.355 . S
O93 Dy83 2.491 . S
O94 Dy83 2.403 . S
O94 C89 1.254 . S
O95 Dy80 2.310 1_455 S
O95 Dy83 2.664 . S
O95 C89 1.268 . S
O96 Dy80 2.351 . S
O96 C99 1.249 . S
O97 Dy83 2.326 . S
O97 C99 1.267 1_455 S
C98 O90 1.249 . S
C98 O91 1.267 . S
C99 O96 1.249 . S
C99 O97 1.267 1_655 S
Dy100 O104 2.398 . S
Dy100 O105 2.491 . S
Dy100 O106 2.399 1_565 S
Dy100 O107 2.664 1_565 S
Dy100 O111 2.326 1_565 S
Dy100 O115 2.310 1_565 S
Dy100 O116 2.351 . S
C101 O112 1.185 . S
C101 O113 1.355 . S
C102 O104 1.185 . S
C102 O105 1.355 . S
Dy103 O107 2.310 . S
Dy103 O110 2.351 . S
Dy103 O112 2.398 . S
Dy103 O113 2.491 . S
Dy103 O114 2.403 . S
Dy103 O115 2.664 . S
Dy103 O117 2.326 . S
O104 Dy100 2.398 . S
O104 C102 1.185 . S
O105 Dy100 2.491 . S
O105 C102 1.355 . S
O106 Dy100 2.399 1_545 S
O106 C108 1.272 . S
O107 Dy100 2.664 1_545 S
O107 Dy103 2.310 . S
O107 C108 1.268 . S
C108 O106 1.272 . S
C108 O107 1.268 . S
C109 O114 1.254 . S
C109 O115 1.268 . S
O110 Dy103 2.351 . S
O110 C118 1.249 . S
O111 Dy100 2.326 1_545 S
O111 C118 1.267 . S
O112 C101 1.185 . S
O112 Dy103 2.398 . S
O113 C101 1.355 . S
O113 Dy103 2.491 . S
O114 Dy103 2.403 . S
O114 C109 1.254 . S
O115 Dy100 2.310 1_545 S
O115 Dy103 2.664 . S
O115 C109 1.268 . S
O116 Dy100 2.351 . S
O116 C119 1.277 . S
O117 Dy103 2.326 . S
O117 C119 1.223 1_545 S
C118 O110 1.249 . S
C118 O111 1.267 . S
C119 O116 1.277 . S
C119 O117 1.223 1_565 S
Dy120 O124 2.398 . S
Dy120 O125 2.491 . S
Dy120 O126 2.403 . S
Dy120 O127 2.664 . S
Dy120 O131 2.326 . S
Dy120 O135 2.310 . S
Dy120 O136 2.351 . S
C121 O132 1.185 . S
C121 O133 1.355 . S
C122 O124 1.185 . S
C122 O125 1.355 . S
Dy123 O127 2.310 1_655 S
Dy123 O130 2.351 . S
Dy123 O132 2.398 . S
Dy123 O133 2.491 . S
Dy123 O134 2.403 . S
Dy123 O135 2.664 1_655 S
Dy123 O137 2.326 1_655 S
O124 Dy120 2.398 . S
O124 C122 1.185 . S
O125 Dy120 2.491 . S
O125 C122 1.355 . S
O126 Dy120 2.403 . S
O126 C128 1.254 . S
O127 Dy120 2.664 . S
O127 Dy123 2.310 1_455 S
O127 C128 1.268 . S
C128 O126 1.254 . S
C128 O127 1.268 . S
C129 O134 1.254 1_455 S
C129 O135 1.268 . S
O130 Dy123 2.351 . S
O130 C138 1.249 . S
O131 Dy120 2.326 . S
O131 C138 1.267 1_455 S
O132 C121 1.185 . S
O132 Dy123 2.398 . S
O133 C121 1.355 . S
O133 Dy123 2.491 . S
O134 Dy123 2.403 . S
O134 C129 1.254 1_655 S
O135 Dy120 2.310 . S
O135 Dy123 2.664 1_455 S
O135 C129 1.268 . S
O136 Dy120 2.351 . S
O136 C139 1.249 . S
O137 Dy123 2.326 1_455 S
O137 C139 1.267 . S
C138 O130 1.249 . S
C138 O131 1.267 1_655 S
C139 O136 1.249 . S
C139 O137 1.267 . S
Dy140 O144 2.398 . S
Dy140 O145 2.491 . S
Dy140 O146 2.403 . S
Dy140 O147 2.664 . S
Dy140 O151 2.326 . S
Dy140 O155 2.310 . S
Dy140 O156 2.351 . S
C141 O152 1.185 . S
C141 O153 1.334 1_565 S
C142 O144 1.185 . S
C142 O145 1.355 . S
Dy143 O147 2.310 . S
Dy143 O150 2.351 1_545 S
Dy143 O152 2.398 1_545 S
Dy143 O153 2.496 . S
Dy143 O154 2.403 . S
Dy143 O155 2.664 . S
Dy143 O157 2.326 . S
O144 Dy140 2.398 . S
O144 C142 1.185 . S
O145 Dy140 2.491 . S
O145 C142 1.355 . S
O146 Dy140 2.403 . S
O146 C148 1.254 . S
O147 Dy140 2.664 . S
O147 Dy143 2.310 . S
O147 C148 1.268 . S
C148 O146 1.254 . S
C148 O147 1.268 . S
C149 O154 1.254 . S
C149 O155 1.268 . S
O150 Dy143 2.351 1_565 S
O150 C158 1.249 1_565 S
O151 Dy140 2.326 . S
O151 C158 1.267 . S
O152 C141 1.185 . S
O152 Dy143 2.398 1_565 S
O153 C141 1.334 1_545 S
O153 Dy143 2.496 . S
O154 Dy143 2.403 . S
O154 C149 1.254 . S
O155 Dy140 2.310 . S
O155 Dy143 2.664 . S
O155 C149 1.268 . S
O156 Dy140 2.351 . S
O156 C159 1.249 . S
O157 Dy143 2.326 . S
O157 C159 1.267 . S
C158 O150 1.249 1_545 S
C158 O151 1.267 . S
C159 O156 1.249 . S
C159 O157 1.267 . S
Dy160 O164 2.398 . S
Dy160 O165 2.491 . S
Dy160 O166 2.403 . S
Dy160 O167 2.664 1_565 S
Dy160 O171 2.326 1_565 S
Dy160 O175 2.310 1_565 S
Dy160 O176 2.351 . S
C161 O172 1.185 . S
C161 O173 1.355 . S
C162 O164 1.185 . S
C162 O165 1.355 . S
Dy163 O167 2.310 . S
Dy163 O170 2.351 . S
Dy163 O172 2.398 . S
Dy163 O173 2.491 . S
Dy163 O174 2.403 . S
Dy163 O175 2.664 . S
Dy163 O177 2.326 . S
O164 Dy160 2.398 . S
O164 C162 1.185 . S
O165 Dy160 2.491 . S
O165 C162 1.355 . S
O166 Dy160 2.403 . S
O166 C168 1.254 1_565 S
O167 Dy160 2.664 1_545 S
O167 Dy163 2.310 . S
O167 C168 1.268 . S
C168 O166 1.254 1_545 S
C168 O167 1.268 . S
C169 O174 1.254 . S
C169 O175 1.268 . S
O170 Dy163 2.351 . S
O170 C178 1.249 . S
O171 Dy160 2.326 1_545 S
O171 C178 1.267 . S
O172 C161 1.185 . S
O172 Dy163 2.398 . S
O173 C161 1.355 . S
O173 Dy163 2.491 . S
O174 Dy163 2.403 . S
O174 C169 1.254 . S
O175 Dy160 2.310 1_545 S
O175 Dy163 2.664 . S
O175 C169 1.268 . S
O176 Dy160 2.351 . S
O176 C179 1.249 . S
O177 Dy163 2.326 . S
O177 C179 1.267 1_545 S
C178 O170 1.249 . S
C178 O171 1.267 . S
C179 O176 1.249 . S
C179 O177 1.267 1_565 S
Dy180 O184 2.398 . S
Dy180 O185 2.491 . S
Dy180 O186 2.403 . S
Dy180 O187 2.664 . S
Dy180 O191 2.326 . S
Dy180 O195 2.310 . S
Dy180 O196 2.351 . S
C181 O192 1.185 . S
C181 O193 1.355 . S
C182 O184 1.185 . S
C182 O185 1.355 . S
Dy183 O187 2.310 1_655 S
Dy183 O190 2.351 . S
Dy183 O192 2.398 . S
Dy183 O193 2.491 . S
Dy183 O194 2.403 . S
Dy183 O195 2.664 1_655 S
Dy183 O197 2.326 1_655 S
O184 Dy180 2.398 . S
O184 C182 1.185 . S
O185 Dy180 2.491 . S
O185 C182 1.355 . S
O186 Dy180 2.403 . S
O186 C188 1.254 . S
O187 Dy180 2.664 . S
O187 Dy183 2.310 1_455 S
O187 C188 1.268 . S
C188 O186 1.254 . S
C188 O187 1.268 . S
C189 O194 1.224 1_455 S
C189 O195 1.284 . S
O190 Dy183 2.351 . S
O190 C198 1.249 . S
O191 Dy180 2.326 . S
O191 C198 1.267 1_455 S
O192 C181 1.185 . S
O192 Dy183 2.398 . S
O193 C181 1.355 . S
O193 Dy183 2.491 . S
O194 Dy183 2.403 . S
O194 C189 1.224 1_655 S
O195 Dy180 2.310 . S
O195 Dy183 2.664 1_455 S
O195 C189 1.284 . S
O196 Dy180 2.351 . S
O196 C199 1.249 . S
O197 Dy183 2.326 1_455 S
O197 C199 1.267 . S
C198 O190 1.249 . S
C198 O191 1.267 1_655 S
C199 O196 1.249 . S
C199 O197 1.267 . S
Dy200 O204 2.398 . S
Dy200 O205 2.491 . S
Dy200 O206 2.403 . S
Dy200 O207 2.664 . S
Dy200 O211 2.326 . S
Dy200 O215 2.310 . S
Dy200 O216 2.351 . S
C201 O212 1.185 . S
C201 O213 1.355 . S
C202 O204 1.185 . S
C202 O205 1.355 . S
Dy203 O207 2.310 1_565 S
Dy203 O210 2.351 . S
Dy203 O212 2.398 . S
Dy203 O213 2.491 . S
Dy203 O214 2.403 1_565 S
Dy203 O215 2.664 1_565 S
Dy203 O217 2.326 1_565 S
O204 Dy200 2.398 . S
O204 C202 1.185 . S
O205 Dy200 2.491 . S
O205 C202 1.355 . S
O206 Dy200 2.403 . S
O206 C208 1.254 . S
O207 Dy200 2.664 . S
O207 Dy203 2.310 1_545 S
O207 C208 1.268 . S
C208 O206 1.254 . S
C208 O207 1.268 . S
C209 O214 1.254 . S
C209 O215 1.268 . S
O210 Dy203 2.351 . S
O210 C218 1.250 1_565 S
O211 Dy200 2.326 . S
O211 C218 1.265 . S
O212 C201 1.185 . S
O212 Dy203 2.398 . S
O213 C201 1.355 . S
O213 Dy203 2.491 . S
O214 Dy203 2.403 1_545 S
O214 C209 1.254 . S
O215 Dy200 2.310 . S
O215 Dy203 2.664 1_545 S
O215 C209 1.268 . S
O216 Dy200 2.351 . S
O216 C219 1.249 . S
O217 Dy203 2.326 1_545 S
O217 C219 1.267 . S
C218 O210 1.250 1_545 S
C218 O211 1.265 . S
C219 O216 1.249 . S
C219 O217 1.267 . S
Dy220 O224 2.398 . S
Dy220 O225 2.491 . S
Dy220 O226 2.403 . S
Dy220 O227 2.664 1_655 S
Dy220 O231 2.326 1_655 S
Dy220 O235 2.310 1_655 S
Dy220 O236 2.351 . S
C221 O232 1.185 . S
C221 O233 1.355 . S
C222 O224 1.185 . S
C222 O225 1.355 . S
Dy223 O227 2.310 . S
Dy223 O230 2.351 . S
Dy223 O232 2.398 . S
Dy223 O233 2.491 . S
Dy223 O234 2.403 . S
Dy223 O235 2.664 . S
Dy223 O237 2.326 . S
O224 Dy220 2.398 . S
O224 C222 1.185 . S
O225 Dy220 2.491 . S
O225 C222 1.355 . S
O226 Dy220 2.403 . S
O226 C228 1.254 1_655 S
O227 Dy220 2.664 1_455 S
O227 Dy223 2.310 . S
O227 C228 1.268 . S
C228 O226 1.254 1_455 S
C228 O227 1.268 . S
C229 O234 1.254 . S
C229 O235 1.268 . S
O230 Dy223 2.351 . S
O230 C238 1.249 . S
O231 Dy220 2.326 1_455 S
O231 C238 1.267 . S
O232 C221 1.185 . S
O232 Dy223 2.398 . S
O233 C221 1.355 . S
O233 Dy223 2.491 . S
O234 Dy223 2.403 . S
O234 C229 1.254 . S
O235 Dy220 2.310 1_455 S
O235 Dy223 2.664 . S
O235 C229 1.268 . S
O236 Dy220 2.351 . S
O236 C239 1.249 . S
O237 Dy223 2.326 . S
O237 C239 1.267 1_455 S
C238 O230 1.249 . S
C238 O231 1.267 . S
C239 O236 1.249 . S
C239 O237 1.267 1_655 S
Dy240 O244 2.398 . S
Dy240 O245 2.491 . S
Dy240 O246 2.403 . S
Dy240 O247 2.664 . S
Dy240 O251 2.326 . S
Dy240 O255 2.310 . S
Dy240 O256 2.351 . S
C241 O252 1.185 . S
C241 O253 1.355 . S
C242 O244 1.185 . S
C242 O245 1.355 . S
Dy243 O247 2.310 1_565 S
Dy243 O250 2.351 . S
Dy243 O252 2.398 . S
Dy243 O253 2.491 . S
Dy243 O254 2.403 1_565 S
Dy243 O255 2.664 1_565 S
Dy243 O257 2.326 1_565 S
O244 Dy240 2.398 . S
O244 C242 1.185 . S
O245 Dy240 2.491 . S
O245 C242 1.355 . S
O246 Dy240 2.403 . S
O246 C248 1.254 . S
O247 Dy240 2.664 . S
O247 Dy243 2.310 1_545 S
O247 C248 1.268 . S
C248 O246 1.254 . S
C248 O247 1.268 . S
C249 O254 1.254 . S
C249 O255 1.268 . S
O250 Dy243 2.351 . S
O250 C258 1.249 . S
O251 Dy240 2.326 . S
O251 C258 1.267 1_545 S
O252 C241 1.185 . S
O252 Dy243 2.398 . S
O253 C241 1.355 . S
O253 Dy243 2.491 . S
O254 Dy243 2.403 1_545 S
O254 C249 1.254 . S
O255 Dy240 2.310 . S
O255 Dy243 2.664 1_545 S
O255 C249 1.268 . S
O256 Dy240 2.351 . S
O256 C259 1.249 . S
O257 Dy243 2.326 1_545 S
O257 C259 1.267 . S
C258 O250 1.249 . S
C258 O251 1.267 1_565 S
C259 O256 1.249 . S
C259 O257 1.267 . S
Dy260 O264 2.398 . S
Dy260 O265 2.491 . S
Dy260 O266 2.403 . S
Dy260 O267 2.664 1_655 S
Dy260 O271 2.326 1_655 S
Dy260 O275 2.310 1_655 S
Dy260 O276 2.351 . S
C261 O272 1.185 . S
C261 O273 1.355 . S
C262 O264 1.185 . S
C262 O265 1.355 . S
Dy263 O267 2.310 . S
Dy263 O270 2.351 . S
Dy263 O272 2.398 . S
Dy263 O273 2.491 . S
Dy263 O274 2.403 . S
Dy263 O275 2.664 . S
Dy263 O277 2.326 . S
O264 Dy260 2.398 . S
O264 C262 1.185 . S
O265 Dy260 2.491 . S
O265 C262 1.355 . S
O266 Dy260 2.403 . S
O266 C268 1.254 1_655 S
O267 Dy260 2.664 1_455 S
O267 Dy263 2.310 . S
O267 C268 1.268 . S
C268 O266 1.254 1_455 S
C268 O267 1.268 . S
C269 O274 1.254 . S
C269 O275 1.268 . S
O270 Dy263 2.351 . S
O270 C278 1.249 . S
O271 Dy260 2.326 1_455 S
O271 C278 1.267 . S
O272 C261 1.185 . S
O272 Dy263 2.398 . S
O273 C261 1.355 . S
O273 Dy263 2.491 . S
O274 Dy263 2.403 . S
O274 C269 1.254 . S
O275 Dy260 2.310 1_455 S
O275 Dy263 2.664 . S
O275 C269 1.268 . S
O276 Dy260 2.351 . S
O276 C279 1.249 . S
O277 Dy263 2.326 . S
O277 C279 1.267 1_455 S
C278 O270 1.249 . S
C278 O271 1.267 . S
C279 O276 1.249 . S
C279 O277 1.267 1_655 S
Dy280 O284 2.398 . S
Dy280 O285 2.491 . S
Dy280 O286 2.403 . S
Dy280 O287 2.664 1_565 S
Dy280 O291 2.326 1_565 S
Dy280 O295 2.310 . S
Dy280 O296 2.351 . S
C281 O292 1.185 . S
C281 O293 1.355 . S
C282 O284 1.185 . S
C282 O285 1.355 . S
Dy283 O287 2.310 . S
Dy283 O290 2.351 . S
Dy283 O292 2.398 . S
Dy283 O293 2.491 . S
Dy283 O294 2.403 . S
Dy283 O295 2.664 1_545 S
Dy283 O297 2.326 1_545 S
O284 Dy280 2.398 . S
O284 C282 1.185 . S
O285 Dy280 2.491 . S
O285 C282 1.355 . S
O286 Dy280 2.403 . S
O286 C288 1.254 . S
O287 Dy280 2.664 1_545 S
O287 Dy283 2.310 . S
O287 C288 1.268 1_545 S
C288 O286 1.254 . S
C288 O287 1.268 1_565 S
C289 O294 1.254 . S
C289 O295 1.268 1_545 S
O290 Dy283 2.351 . S
O290 C298 1.249 . S
O291 Dy280 2.326 1_545 S
O291 C298 1.267 . S
O292 C281 1.185 . S
O292 Dy283 2.398 . S
O293 C281 1.355 . S
O293 Dy283 2.491 . S
O294 Dy283 2.403 . S
O294 C289 1.254 . S
O295 Dy280 2.310 . S
O295 Dy283 2.664 1_565 S
O295 C289 1.268 1_565 S
O296 Dy280 2.351 . S
O296 C299 1.249 . S
O297 Dy283 2.326 1_565 S
O297 C299 1.267 . S
C298 O290 1.249 . S
C298 O291 1.267 . S
C299 O296 1.249 . S
C299 O297 1.267 . S
Dy300 O304 2.398 . S
Dy300 O305 2.491 . S
Dy300 O306 2.403 . S
Dy300 O307 2.664 . S
Dy300 O311 2.326 . S
Dy300 O315 2.310 . S
Dy300 O316 2.351 . S
C301 O312 1.185 . S
C301 O313 1.355 . S
C302 O304 1.185 . S
C302 O305 1.355 . S
Dy303 O307 2.310 1_655 S
Dy303 O310 2.351 . S
Dy303 O312 2.398 . S
Dy303 O313 2.491 . S
Dy303 O314 2.403 . S
Dy303 O315 2.664 1_655 S
Dy303 O317 2.326 1_655 S
O304 Dy300 2.398 . S
O304 C302 1.185 . S
O305 Dy300 2.491 . S
O305 C302 1.355 . S
O306 Dy300 2.403 . S
O306 C308 1.254 . S
O307 Dy300 2.664 . S
O307 Dy303 2.310 1_455 S
O307 C308 1.268 . S
C308 O306 1.254 . S
C308 O307 1.268 . S
C309 O314 1.254 1_455 S
C309 O315 1.268 . S
O310 Dy303 2.351 . S
O310 C318 1.249 . S
O311 Dy300 2.326 . S
O311 C318 1.267 1_455 S
O312 C301 1.185 . S
O312 Dy303 2.398 . S
O313 C301 1.355 . S
O313 Dy303 2.491 . S
O314 Dy303 2.403 . S
O314 C309 1.254 1_655 S
O315 Dy300 2.310 . S
O315 Dy303 2.664 1_455 S
O315 C309 1.268 . S
O316 Dy300 2.351 . S
O316 C319 1.249 . S
O317 Dy303 2.326 1_455 S
O317 C319 1.267 . S
C318 O310 1.249 . S
C318 O311 1.267 1_655 S
C319 O316 1.249 . S
C319 O317 1.267 . S
Dy320 O324 2.398 . S
Dy320 O325 2.491 . S
Dy320 O326 2.403 . S
Dy320 O327 2.664 1_556 S
Dy320 O331 2.326 1_556 S
Dy320 O335 2.310 1_556 S
Dy320 O336 2.351 . S
C321 O332 1.185 . S
C321 O333 1.355 . S
C322 O324 1.185 . S
C322 O325 1.355 . S
Dy323 O327 2.310 . S
Dy323 O330 2.351 . S
Dy323 O332 2.398 . S
Dy323 O333 2.491 . S
Dy323 O334 2.403 . S
Dy323 O335 2.664 . S
Dy323 O337 2.326 . S
O324 Dy320 2.398 . S
O324 C322 1.185 . S
O325 Dy320 2.491 . S
O325 C322 1.355 . S
O326 Dy320 2.403 . S
O326 C328 1.254 1_556 S
O327 Dy320 2.664 1_554 S
O327 Dy323 2.310 . S
O327 C328 1.268 . S
C328 O326 1.254 1_554 S
C328 O327 1.268 . S
C329 O334 1.254 . S
C329 O335 1.268 . S
O330 Dy323 2.351 . S
O330 C338 1.249 . S
O331 Dy320 2.326 1_554 S
O331 C338 1.267 . S
O332 C321 1.185 . S
O332 Dy323 2.398 . S
O333 C321 1.355 . S
O333 Dy323 2.491 . S
O334 Dy323 2.403 . S
O334 C329 1.254 . S
O335 Dy320 2.310 1_554 S
O335 Dy323 2.664 . S
O335 C329 1.268 . S
O336 Dy320 2.351 . S
O336 C339 1.249 . S
O337 Dy323 2.326 . S
O337 C339 1.267 1_554 S
C338 O330 1.249 . S
C338 O331 1.267 . S
C339 O336 1.249 . S
C339 O337 1.267 1_556 S
Dy340 O344 2.398 . S
Dy340 O345 2.491 . S
Dy340 O346 2.403 . S
Dy340 O347 2.664 . S
Dy340 O351 2.326 . S
Dy340 O355 2.310 . S
Dy340 O356 2.351 . S
C341 O352 1.185 . S
C341 O353 1.355 . S
C342 O344 1.185 . S
C342 O345 1.355 . S
Dy343 O347 2.310 1_556 S
Dy343 O350 2.351 . S
Dy343 O352 2.398 . S
Dy343 O353 2.491 . S
Dy343 O354 2.403 . S
Dy343 O355 2.664 1_556 S
Dy343 O357 2.326 1_556 S
O344 Dy340 2.398 . S
O344 C342 1.185 . S
O345 Dy340 2.491 . S
O345 C342 1.355 . S
O346 Dy340 2.403 . S
O346 C348 1.254 . S
O347 Dy340 2.664 . S
O347 Dy343 2.310 1_554 S
O347 C348 1.268 . S
C348 O346 1.254 . S
C348 O347 1.268 . S
C349 O354 1.254 1_554 S
C349 O355 1.268 . S
O350 Dy343 2.351 . S
O350 C358 1.249 . S
O351 Dy340 2.326 . S
O351 C358 1.267 1_554 S
O352 C341 1.185 . S
O352 Dy343 2.398 . S
O353 C341 1.355 . S
O353 Dy343 2.491 . S
O354 Dy343 2.403 . S
O354 C349 1.254 1_556 S
O355 Dy340 2.310 . S
O355 Dy343 2.664 1_554 S
O355 C349 1.268 . S
O356 Dy340 2.351 . S
O356 C359 1.249 . S
O357 Dy343 2.326 1_554 S
O357 C359 1.267 . S
C358 O350 1.249 . S
C358 O351 1.267 1_556 S
C359 O356 1.249 . S
C359 O357 1.267 . S
Dy360 O364 2.398 . S
Dy360 O365 2.491 . S
Dy360 O366 2.403 . S
Dy360 O367 2.664 . S
Dy360 O371 2.326 . S
Dy360 O375 2.310 . S
Dy360 O376 2.351 . S
C361 O372 1.185 . S
C361 O373 1.355 . S
C362 O364 1.185 . S
C362 O365 1.355 . S
Dy363 O367 2.310 1_556 S
Dy363 O370 2.351 . S
Dy363 O372 2.398 . S
Dy363 O373 2.491 . S
Dy363 O374 2.403 1_556 S
Dy363 O375 2.664 1_556 S
Dy363 O377 2.326 1_556 S
O364 Dy360 2.398 . S
O364 C362 1.185 . S
O365 Dy360 2.491 . S
O365 C362 1.355 . S
O366 Dy360 2.403 . S
O366 C368 1.254 . S
O367 Dy360 2.664 . S
O367 Dy363 2.310 1_554 S
O367 C368 1.268 . S
C368 O366 1.254 . S
C368 O367 1.268 . S
C369 O374 1.254 . S
C369 O375 1.268 . S
O370 Dy363 2.351 . S
O370 C378 1.249 1_556 S
O371 Dy360 2.326 . S
O371 C378 1.267 . S
O372 C361 1.185 . S
O372 Dy363 2.398 . S
O373 C361 1.355 . S
O373 Dy363 2.491 . S
O374 Dy363 2.403 1_554 S
O374 C369 1.254 . S
O375 Dy360 2.310 . S
O375 Dy363 2.664 1_554 S
O375 C369 1.268 . S
O376 Dy360 2.351 . S
O376 C379 1.249 . S
O377 Dy363 2.326 1_554 S
O377 C379 1.267 . S
C378 O370 1.249 1_554 S
C378 O371 1.267 . S
C379 O376 1.249 . S
C379 O377 1.267 . S
Dy380 O384 2.398 . S
Dy380 O385 2.491 . S
Dy380 O386 2.403 . S
Dy380 O387 2.664 . S
Dy380 O391 2.326 . S
Dy380 O395 2.310 . S
Dy380 O396 2.351 . S
C381 O392 1.185 . S
C381 O393 1.355 . S
C382 O384 1.185 . S
C382 O385 1.355 . S
Dy383 O387 2.310 1_556 S
Dy383 O390 2.351 . S
Dy383 O392 2.398 . S
Dy383 O393 2.491 . S
Dy383 O394 2.403 1_556 S
Dy383 O395 2.664 1_556 S
Dy383 O397 2.326 1_556 S
O384 Dy380 2.398 . S
O384 C382 1.185 . S
O385 Dy380 2.491 . S
O385 C382 1.355 . S
O386 Dy380 2.403 . S
O386 C388 1.254 . S
O387 Dy380 2.664 . S
O387 Dy383 2.310 1_554 S
O387 C388 1.268 . S
C388 O386 1.254 . S
C388 O387 1.268 . S
C389 O394 1.254 . S
C389 O395 1.268 . S
O390 Dy383 2.351 . S
O390 C398 1.233 1_556 S
O391 Dy380 2.326 . S
O391 C398 1.292 . S
O392 C381 1.185 . S
O392 Dy383 2.398 . S
O393 C381 1.355 . S
O393 Dy383 2.491 . S
O394 Dy383 2.403 1_554 S
O394 C389 1.254 . S
O395 Dy380 2.310 . S
O395 Dy383 2.664 1_554 S
O395 C389 1.268 . S
O396 Dy380 2.351 . S
O396 C399 1.249 . S
O397 Dy383 2.326 1_554 S
O397 C399 1.267 . S
C398 O390 1.233 1_554 S
C398 O391 1.292 . S
C399 O396 1.249 . S
C399 O397 1.267 . S
Dy400 O404 2.398 . S
Dy400 O405 2.491 . S
Dy400 O406 2.403 . S
Dy400 O407 2.664 . S
Dy400 O411 2.326 . S
Dy400 O415 2.310 . S
Dy400 O416 2.351 . S
C401 O412 1.185 . S
C401 O413 1.355 . S
C402 O404 1.185 . S
C402 O405 1.355 . S
Dy403 O407 2.310 1_556 S
Dy403 O410 2.351 . S
Dy403 O412 2.398 . S
Dy403 O413 2.491 . S
Dy403 O414 2.403 . S
Dy403 O415 2.664 1_556 S
Dy403 O417 2.326 1_556 S
O404 Dy400 2.398 . S
O404 C402 1.185 . S
O405 Dy400 2.491 . S
O405 C402 1.355 . S
O406 Dy400 2.403 . S
O406 C408 1.254 . S
O407 Dy400 2.664 . S
O407 Dy403 2.310 1_554 S
O407 C408 1.268 . S
C408 O406 1.254 . S
C408 O407 1.268 . S
C409 O414 1.254 1_554 S
C409 O415 1.268 . S
O410 Dy403 2.351 . S
O410 C418 1.249 . S
O411 Dy400 2.326 . S
O411 C418 1.267 1_554 S
O412 C401 1.185 . S
O412 Dy403 2.398 . S
O413 C401 1.355 . S
O413 Dy403 2.491 . S
O414 Dy403 2.403 . S
O414 C409 1.254 1_556 S
O415 Dy400 2.310 . S
O415 Dy403 2.664 1_554 S
O415 C409 1.268 . S
O416 Dy400 2.351 . S
O416 C419 1.249 . S
O417 Dy403 2.326 1_554 S
O417 C419 1.267 . S
C418 O410 1.249 . S
C418 O411 1.267 1_556 S
C419 O416 1.249 . S
C419 O417 1.267 . S
Dy420 O424 2.398 . S
Dy420 O425 2.491 . S
Dy420 O426 2.403 . S
Dy420 O427 2.664 1_556 S
Dy420 O431 2.326 1_556 S
Dy420 O435 2.310 1_556 S
Dy420 O436 2.351 . S
C421 O432 1.185 . S
C421 O433 1.355 . S
C422 O424 1.185 . S
C422 O425 1.355 . S
Dy423 O427 2.310 . S
Dy423 O430 2.351 . S
Dy423 O432 2.398 . S
Dy423 O433 2.491 . S
Dy423 O434 2.403 . S
Dy423 O435 2.664 . S
Dy423 O437 2.362 . S
O424 Dy420 2.398 . S
O424 C422 1.185 . S
O425 Dy420 2.491 . S
O425 C422 1.355 . S
O426 Dy420 2.403 . S
O426 C428 1.254 . S
O427 Dy420 2.664 1_554 S
O427 Dy423 2.310 . S
O427 C428 1.268 1_554 S
C428 O426 1.254 . S
C428 O427 1.268 1_556 S
C429 O434 1.254 . S
C429 O435 1.268 . S
O430 Dy423 2.351 . S
O430 C438 1.249 . S
O431 Dy420 2.326 1_554 S
O431 C438 1.267 . S
O432 C421 1.185 . S
O432 Dy423 2.398 . S
O433 C421 1.355 . S
O433 Dy423 2.491 . S
O434 Dy423 2.403 . S
O434 C429 1.254 . S
O435 Dy420 2.310 1_554 S
O435 Dy423 2.664 . S
O435 C429 1.268 . S
O436 Dy420 2.351 . S
O436 C439 1.249 . S
O437 Dy423 2.362 . S
O437 C439 1.226 1_554 S
C438 O430 1.249 . S
C438 O431 1.267 . S
C439 O436 1.249 . S
C439 O437 1.226 1_556 S
Dy440 O444 2.398 . S
Dy440 O445 2.491 . S
Dy440 O446 2.403 . S
Dy440 O447 2.664 1_556 S
Dy440 O451 2.326 1_556 S
Dy440 O455 2.332 . S
Dy440 O456 2.351 . S
C441 O452 1.185 . S
C441 O453 1.355 . S
C442 O444 1.185 . S
C442 O445 1.355 . S
Dy443 O447 2.310 . S
Dy443 O450 2.351 . S
Dy443 O452 2.398 . S
Dy443 O453 2.491 . S
Dy443 O454 2.403 . S
Dy443 O455 2.641 1_554 S
Dy443 O457 2.326 1_554 S
O444 Dy440 2.398 . S
O444 C442 1.185 . S
O445 Dy440 2.491 . S
O445 C442 1.355 . S
O446 Dy440 2.403 . S
O446 C448 1.254 . S
O447 Dy440 2.664 1_554 S
O447 Dy443 2.310 . S
O447 C448 1.268 1_554 S
C448 O446 1.254 . S
C448 O447 1.268 1_556 S
C449 O454 1.254 . S
C449 O455 1.255 1_554 S
O450 Dy443 2.351 . S
O450 C458 1.249 . S
O451 Dy440 2.326 1_554 S
O451 C458 1.267 . S
O452 C441 1.185 . S
O452 Dy443 2.398 . S
O453 C441 1.355 . S
O453 Dy443 2.491 . S
O454 Dy443 2.403 . S
O454 C449 1.254 . S
O455 Dy440 2.332 . S
O455 Dy443 2.641 1_556 S
O455 C449 1.255 1_556 S
O456 Dy440 2.351 . S
O456 C459 1.249 . S
O457 Dy443 2.326 1_556 S
O457 C459 1.267 . S
C458 O450 1.249 . S
C458 O451 1.267 . S
C459 O456 1.249 . S
C459 O457 1.267 . S
Dy460 O464 2.398 . S
Dy460 O465 2.491 . S
Dy460 O466 2.403 . S
Dy460 O467 2.664 1_556 S
Dy460 O471 2.326 1_556 S
Dy460 O475 2.310 1_556 S
Dy460 O476 2.351 . S
C461 O472 1.185 . S
C461 O473 1.355 . S
C462 O464 1.185 . S
C462 O465 1.355 . S
Dy463 O467 2.310 . S
Dy463 O470 2.351 . S
Dy463 O472 2.398 . S
Dy463 O473 2.491 . S
Dy463 O474 2.403 . S
Dy463 O475 2.664 . S
Dy463 O477 2.326 . S
O464 Dy460 2.398 . S
O464 C462 1.185 . S
O465 Dy460 2.491 . S
O465 C462 1.355 . S
O466 Dy460 2.403 . S
O466 C468 1.254 1_556 S
O467 Dy460 2.664 1_554 S
O467 Dy463 2.310 . S
O467 C468 1.268 . S
C468 O466 1.254 1_554 S
C468 O467 1.268 . S
C469 O474 1.254 . S
C469 O475 1.268 . S
O470 Dy463 2.351 . S
O470 C478 1.249 . S
O471 Dy460 2.326 1_554 S
O471 C478 1.267 . S
O472 C461 1.185 . S
O472 Dy463 2.398 . S
O473 C461 1.355 . S
O473 Dy463 2.491 . S
O474 Dy463 2.403 . S
O474 C469 1.254 . S
O475 Dy460 2.310 1_554 S
O475 Dy463 2.664 . S
O475 C469 1.268 . S
O476 Dy460 2.351 . S
O476 C479 1.249 . S
O477 Dy463 2.326 . S
O477 C479 1.267 1_554 S
C478 O470 1.249 . S
C478 O471 1.267 . S
C479 O476 1.249 . S
C479 O477 1.267 1_556 S
Dy480 O484 2.398 . S
Dy480 O485 2.491 . S
Dy480 O486 2.403 . S
Dy480 O487 2.664 . S
Dy480 O491 2.326 . S
Dy480 O495 2.310 . S
Dy480 O496 2.351 . S
C481 O492 1.185 . S
C481 O493 1.355 . S
C482 O484 1.185 . S
C482 O485 1.355 . S
Dy483 O487 2.310 . S
Dy483 O490 2.351 . S
Dy483 O492 2.398 . S
Dy483 O493 2.491 . S
Dy483 O494 2.403 . S
Dy483 O495 2.664 . S
Dy483 O497 2.326 . S
O484 Dy480 2.398 . S
O484 C482 1.185 . S
O485 Dy480 2.491 . S
O485 C482 1.355 . S
O486 Dy480 2.403 . S
O486 C488 1.254 . S
O487 Dy480 2.664 . S
O487 Dy483 2.310 . S
O487 C488 1.268 . S
C488 O486 1.254 . S
C488 O487 1.268 . S
C489 O494 1.254 . S
C489 O495 1.268 . S
O490 Dy483 2.351 . S
O490 C498 1.249 . S
O491 Dy480 2.326 . S
O491 C498 1.267 . S
O492 C481 1.185 . S
O492 Dy483 2.398 . S
O493 C481 1.355 . S
O493 Dy483 2.491 . S
O494 Dy483 2.403 . S
O494 C489 1.254 . S
O495 Dy480 2.310 . S
O495 Dy483 2.664 . S
O495 C489 1.268 . S
O496 Dy480 2.351 . S
O496 C499 1.249 . S
O497 Dy483 2.326 . S
O497 C499 1.267 . S
C498 O490 1.249 . S
C498 O491 1.267 . S
C499 O496 1.249 . S
C499 O497 1.267 . S
Dy500 O504 2.398 . S
Dy500 O505 2.491 . S
Dy500 O506 2.403 . S
Dy500 O507 2.664 . S
Dy500 O511 2.326 . S
Dy500 O515 2.310 . S
Dy500 O516 2.351 . S
C501 O512 1.185 . S
C501 O513 1.355 . S
C502 O504 1.185 . S
C502 O505 1.355 . S
Dy503 O507 2.310 . S
Dy503 O510 2.351 . S
Dy503 O512 2.398 . S
Dy503 O513 2.491 . S
Dy503 O514 2.403 . S
Dy503 O515 2.664 . S
Dy503 O517 2.326 . S
O504 Dy500 2.398 . S
O504 C502 1.185 . S
O505 Dy500 2.491 . S
O505 C502 1.355 . S
O506 Dy500 2.403 . S
O506 C508 1.254 . S
O507 Dy500 2.664 . S
O507 Dy503 2.310 . S
O507 C508 1.268 . S
C508 O506 1.254 . S
C508 O507 1.268 . S
C509 O514 1.254 . S
C509 O515 1.268 . S
O510 Dy503 2.351 . S
O510 C518 1.249 . S
O511 Dy500 2.326 . S
O511 C518 1.267 . S
O512 C501 1.185 . S
O512 Dy503 2.398 . S
O513 C501 1.355 . S
O513 Dy503 2.491 . S
O514 Dy503 2.403 . S
O514 C509 1.254 . S
O515 Dy500 2.310 . S
O515 Dy503 2.664 . S
O515 C509 1.268 . S
O516 Dy500 2.351 . S
O516 C519 1.249 . S
O517 Dy503 2.326 . S
O517 C519 1.267 . S
C518 O510 1.249 . S
C518 O511 1.267 . S
C519 O516 1.249 . S
C519 O517 1.267 . S
Dy520 O524 2.398 . S
Dy520 O525 2.491 . S
Dy520 O526 2.403 . S
Dy520 O527 2.664 . S
Dy520 O531 2.326 . S
Dy520 O535 2.310 . S
Dy520 O536 2.351 . S
C521 O532 1.185 . S
C521 O533 1.355 . S
C522 O524 1.185 . S
C522 O525 1.355 . S
Dy523 O527 2.310 . S
Dy523 O530 2.351 . S
Dy523 O532 2.398 . S
Dy523 O533 2.491 . S
Dy523 O534 2.403 . S
Dy523 O535 2.664 . S
Dy523 O537 2.326 . S
O524 Dy520 2.398 . S
O524 C522 1.185 . S
O525 Dy520 2.491 . S
O525 C522 1.355 . S
O526 Dy520 2.403 . S
O526 C528 1.254 . S
O527 Dy520 2.664 . S
O527 Dy523 2.310 . S
O527 C528 1.268 . S
C528 O526 1.254 . S
C528 O527 1.268 . S
C529 O534 1.254 . S
C529 O535 1.268 . S
O530 Dy523 2.351 . S
O530 C538 1.249 . S
O531 Dy520 2.326 . S
O531 C538 1.267 . S
O532 C521 1.185 . S
O532 Dy523 2.398 . S
O533 C521 1.355 . S
O533 Dy523 2.491 . S
O534 Dy523 2.403 . S
O534 C529 1.254 . S
O535 Dy520 2.310 . S
O535 Dy523 2.664 . S
O535 C529 1.268 . S
O536 Dy520 2.351 . S
O536 C539 1.249 . S
O537 Dy523 2.326 . S
O537 C539 1.267 . S
C538 O530 1.249 . S
C538 O531 1.267 . S
C539 O536 1.249 . S
C539 O537 1.267 . S
Dy540 O544 2.398 . S
Dy540 O545 2.491 . S
Dy540 O546 2.403 . S
Dy540 O547 2.664 . S
Dy540 O551 2.326 . S
Dy540 O555 2.310 . S
Dy540 O556 2.351 . S
C541 O552 1.185 . S
C541 O553 1.355 . S
C542 O544 1.185 . S
C542 O545 1.355 . S
Dy543 O547 2.310 . S
Dy543 O550 2.351 . S
Dy543 O552 2.398 . S
Dy543 O553 2.491 . S
Dy543 O554 2.403 . S
Dy543 O555 2.664 . S
Dy543 O557 2.326 . S
O544 Dy540 2.398 . S
O544 C542 1.185 . S
O545 Dy540 2.491 . S
O545 C542 1.355 . S
O546 Dy540 2.403 . S
O546 C548 1.254 . S
O547 Dy540 2.664 . S
O547 Dy543 2.310 . S
O547 C548 1.268 . S
C548 O546 1.254 . S
C548 O547 1.268 . S
C549 O554 1.254 . S
C549 O555 1.268 . S
O550 Dy543 2.351 . S
O550 C558 1.249 . S
O551 Dy540 2.326 . S
O551 C558 1.267 . S
O552 C541 1.185 . S
O552 Dy543 2.398 . S
O553 C541 1.355 . S
O553 Dy543 2.491 . S
O554 Dy543 2.403 . S
O554 C549 1.254 . S
O555 Dy540 2.310 . S
O555 Dy543 2.664 . S
O555 C549 1.268 . S
O556 Dy540 2.351 . S
O556 C559 1.249 . S
O557 Dy543 2.326 . S
O557 C559 1.267 . S
C558 O550 1.249 . S
C558 O551 1.267 . S
C559 O556 1.249 . S
C559 O557 1.267 . S
Dy560 O564 2.398 . S
Dy560 O565 2.491 . S
Dy560 O566 2.403 . S
Dy560 O567 2.664 . S
Dy560 O571 2.326 . S
Dy560 O575 2.310 . S
Dy560 O576 2.351 . S
C561 O572 1.185 . S
C561 O573 1.355 . S
C562 O564 1.185 . S
C562 O565 1.355 . S
Dy563 O567 2.310 . S
Dy563 O570 2.351 . S
Dy563 O572 2.398 . S
Dy563 O573 2.491 . S
Dy563 O574 2.403 . S
Dy563 O575 2.664 . S
Dy563 O577 2.326 . S
O564 Dy560 2.398 . S
O564 C562 1.185 . S
O565 Dy560 2.491 . S
O565 C562 1.355 . S
O566 Dy560 2.403 . S
O566 C568 1.254 . S
O567 Dy560 2.664 . S
O567 Dy563 2.310 . S
O567 C568 1.268 . S
C568 O566 1.254 . S
C568 O567 1.268 . S
C569 O574 1.254 . S
C569 O575 1.268 . S
O570 Dy563 2.351 . S
O570 C578 1.249 . S
O571 Dy560 2.326 . S
O571 C578 1.267 . S
O572 C561 1.185 . S
O572 Dy563 2.398 . S
O573 C561 1.355 . S
O573 Dy563 2.491 . S
O574 Dy563 2.403 . S
O574 C569 1.254 . S
O575 Dy560 2.310 . S
O575 Dy563 2.664 . S
O575 C569 1.268 . S
O576 Dy560 2.351 . S
O576 C579 1.249 . S
O577 Dy563 2.326 . S
O577 C579 1.267 . S
C578 O570 1.249 . S
C578 O571 1.267 . S
C579 O576 1.249 . S
C579 O577 1.267 . S
Dy580 O584 2.398 . S
Dy580 O585 2.491 . S
Dy580 O586 2.403 . S
Dy580 O587 2.664 . S
Dy580 O591 2.326 . S
Dy580 O595 2.310 . S
Dy580 O596 2.351 . S
C581 O592 1.185 . S
C581 O593 1.355 . S
C582 O584 1.185 . S
C582 O585 1.355 . S
Dy583 O587 2.310 . S
Dy583 O590 2.351 . S
Dy583 O592 2.398 . S
Dy583 O593 2.491 . S
Dy583 O594 2.403 . S
Dy583 O595 2.664 . S
Dy583 O597 2.326 . S
O584 Dy580 2.398 . S
O584 C582 1.185 . S
O585 Dy580 2.491 . S
O585 C582 1.355 . S
O586 Dy580 2.403 . S
O586 C588 1.254 . S
O587 Dy580 2.664 . S
O587 Dy583 2.310 . S
O587 C588 1.268 . S
C588 O586 1.254 . S
C588 O587 1.268 . S
C589 O594 1.254 . S
C589 O595 1.268 . S
O590 Dy583 2.351 . S
O590 C598 1.249 . S
O591 Dy580 2.326 . S
O591 C598 1.267 . S
O592 C581 1.185 . S
O592 Dy583 2.398 . S
O593 C581 1.355 . S
O593 Dy583 2.491 . S
O594 Dy583 2.403 . S
O594 C589 1.254 . S
O595 Dy580 2.310 . S
O595 Dy583 2.664 . S
O595 C589 1.268 . S
O596 Dy580 2.351 . S
O596 C599 1.249 . S
O597 Dy583 2.326 . S
O597 C599 1.267 . S
C598 O590 1.249 . S
C598 O591 1.267 . S
C599 O596 1.249 . S
C599 O597 1.267 . S
Dy600 O604 2.398 . S
Dy600 O605 2.491 . S
Dy600 O606 2.403 . S
Dy600 O607 2.664 . S
Dy600 O611 2.326 . S
Dy600 O615 2.310 . S
Dy600 O616 2.351 . S
C601 O612 1.185 . S
C601 O613 1.355 . S
C602 O604 1.185 . S
C602 O605 1.355 . S
Dy603 O607 2.310 . S
Dy603 O610 2.351 . S
Dy603 O612 2.398 . S
Dy603 O613 2.491 . S
Dy603 O614 2.403 . S
Dy603 O615 2.664 . S
Dy603 O617 2.326 . S
O604 Dy600 2.398 . S
O604 C602 1.185 . S
O605 Dy600 2.491 . S
O605 C602 1.355 . S
O606 Dy600 2.403 . S
O606 C608 1.254 . S
O607 Dy600 2.664 . S
O607 Dy603 2.310 . S
O607 C608 1.268 . S
C608 O606 1.254 . S
C608 O607 1.268 . S
C609 O614 1.254 . S
C609 O615 1.268 . S
O610 Dy603 2.351 . S
O610 C618 1.249 . S
O611 Dy600 2.326 . S
O611 C618 1.267 . S
O612 C601 1.185 . S
O612 Dy603 2.398 . S
O613 C601 1.355 . S
O613 Dy603 2.491 . S
O614 Dy603 2.403 . S
O614 C609 1.254 . S
O615 Dy600 2.310 . S
O615 Dy603 2.664 . S
O615 C609 1.268 . S
O616 Dy600 2.351 . S
O616 C619 1.249 . S
O617 Dy603 2.326 . S
O617 C619 1.267 . S
C618 O610 1.249 . S
C618 O611 1.267 . S
C619 O616 1.249 . S
C619 O617 1.267 . S
Dy620 O624 2.398 . S
Dy620 O625 2.491 . S
Dy620 O626 2.403 . S
Dy620 O627 2.664 . S
Dy620 O631 2.326 . S
Dy620 O635 2.310 . S
Dy620 O636 2.351 . S
C621 O632 1.185 . S
C621 O633 1.355 . S
C622 O624 1.185 . S
C622 O625 1.355 . S
Dy623 O627 2.310 . S
Dy623 O630 2.351 . S
Dy623 O632 2.398 . S
Dy623 O633 2.491 . S
Dy623 O634 2.403 . S
Dy623 O635 2.664 . S
Dy623 O637 2.326 . S
O624 Dy620 2.398 . S
O624 C622 1.185 . S
O625 Dy620 2.491 . S
O625 C622 1.355 . S
O626 Dy620 2.403 . S
O626 C628 1.254 . S
O627 Dy620 2.664 . S
O627 Dy623 2.310 . S
O627 C628 1.268 . S
C628 O626 1.254 . S
C628 O627 1.268 . S
C629 O634 1.254 . S
C629 O635 1.268 . S
O630 Dy623 2.351 . S
O630 C638 1.249 . S
O631 Dy620 2.326 . S
O631 C638 1.267 . S
O632 C621 1.185 . S
O632 Dy623 2.398 . S
O633 C621 1.355 . S
O633 Dy623 2.491 . S
O634 Dy623 2.403 . S
O634 C629 1.254 . S
O635 Dy620 2.310 . S
O635 Dy623 2.664 . S
O635 C629 1.268 . S
O636 Dy620 2.351 . S
O636 C639 1.249 . S
O637 Dy623 2.326 . S
O637 C639 1.267 . S
C638 O630 1.249 . S
C638 O631 1.267 . S
C639 O636 1.249 . S
C639 O637 1.267 . S
Dy640 O644 2.398 . S
Dy640 O645 2.491 . S
Dy640 O646 2.403 . S
Dy640 O647 2.664 . S
Dy640 O651 2.326 . S
Dy640 O655 2.310 . S
Dy640 O656 2.351 . S
C641 O652 1.185 . S
C641 O653 1.355 . S
C642 O644 1.185 . S
C642 O645 1.355 . S
Dy643 O647 2.310 . S
Dy643 O650 2.351 . S
Dy643 O652 2.398 . S
Dy643 O653 2.491 . S
Dy643 O654 2.403 . S
Dy643 O655 2.664 . S
Dy643 O657 2.326 . S
O644 Dy640 2.398 . S
O644 C642 1.185 . S
O645 Dy640 2.491 . S
O645 C642 1.355 . S
O646 Dy640 2.403 . S
O646 C648 1.254 . S
O647 Dy640 2.664 . S
O647 Dy643 2.310 . S
O647 C648 1.268 . S
C648 O646 1.254 . S
C648 O647 1.268 . S
C649 O654 1.254 . S
C649 O655 1.268 . S
O650 Dy643 2.351 . S
O650 C658 1.249 . S
O651 Dy640 2.326 . S
O651 C658 1.267 . S
O652 C641 1.185 . S
O652 Dy643 2.398 . S
O653 C641 1.355 . S
O653 Dy643 2.491 . S
O654 Dy643 2.403 . S
O654 C649 1.254 . S
O655 Dy640 2.310 . S
O655 Dy643 2.664 . S
O655 C649 1.268 . S
O656 Dy640 2.351 . S
O656 C659 1.249 . S
O657 Dy643 2.326 . S
O657 C659 1.267 . S
C658 O650 1.249 . S
C658 O651 1.267 . S
C659 O656 1.249 . S
C659 O657 1.267 . S
Dy660 O664 2.398 . S
Dy660 O665 2.491 . S
Dy660 O666 2.403 . S
Dy660 O667 2.664 . S
Dy660 O671 2.326 . S
Dy660 O675 2.310 . S
Dy660 O676 2.351 . S
C661 O672 1.185 . S
C661 O673 1.355 . S
C662 O664 1.185 . S
C662 O665 1.355 . S
Dy663 O667 2.310 . S
Dy663 O670 2.351 . S
Dy663 O672 2.398 . S
Dy663 O673 2.491 . S
Dy663 O674 2.403 . S
Dy663 O675 2.664 . S
Dy663 O677 2.326 . S
O664 Dy660 2.398 . S
O664 C662 1.185 . S
O665 Dy660 2.491 . S
O665 C662 1.355 . S
O666 Dy660 2.403 . S
O666 C668 1.254 . S
O667 Dy660 2.664 . S
O667 Dy663 2.310 . S
O667 C668 1.268 . S
C668 O666 1.254 . S
C668 O667 1.268 . S
C669 O674 1.254 . S
C669 O675 1.268 . S
O670 Dy663 2.351 . S
O670 C678 1.249 . S
O671 Dy660 2.326 . S
O671 C678 1.267 . S
O672 C661 1.185 . S
O672 Dy663 2.398 . S
O673 C661 1.355 . S
O673 Dy663 2.491 . S
O674 Dy663 2.403 . S
O674 C669 1.254 . S
O675 Dy660 2.310 . S
O675 Dy663 2.664 . S
O675 C669 1.268 . S
O676 Dy660 2.351 . S
O676 C679 1.249 . S
O677 Dy663 2.326 . S
O677 C679 1.267 . S
C678 O670 1.249 . S
C678 O671 1.267 . S
C679 O676 1.249 . S
C679 O677 1.267 . S
Dy680 O684 2.398 . S
Dy680 O685 2.491 . S
Dy680 O686 2.403 . S
Dy680 O687 2.664 . S
Dy680 O691 2.326 . S
Dy680 O695 2.310 . S
Dy680 O696 2.351 . S
C681 O692 1.185 . S
C681 O693 1.355 . S
C682 O684 1.185 . S
C682 O685 1.355 . S
Dy683 O687 2.310 . S
Dy683 O690 2.351 . S
Dy683 O692 2.398 . S
Dy683 O693 2.491 . S
Dy683 O694 2.403 . S
Dy683 O695 2.664 . S
Dy683 O697 2.326 . S
O684 Dy680 2.398 . S
O684 C682 1.185 . S
O685 Dy680 2.491 . S
O685 C682 1.355 . S
O686 Dy680 2.403 . S
O686 C688 1.254 . S
O687 Dy680 2.664 . S
O687 Dy683 2.310 . S
O687 C688 1.268 . S
C688 O686 1.254 . S
C688 O687 1.268 . S
C689 O694 1.254 . S
C689 O695 1.268 . S
O690 Dy683 2.351 . S
O690 C698 1.249 . S
O691 Dy680 2.326 . S
O691 C698 1.267 . S
O692 C681 1.185 . S
O692 Dy683 2.398 . S
O693 C681 1.355 . S
O693 Dy683 2.491 . S
O694 Dy683 2.403 . S
O694 C689 1.254 . S
O695 Dy680 2.310 . S
O695 Dy683 2.664 . S
O695 C689 1.268 . S
O696 Dy680 2.351 . S
O696 C699 1.249 . S
O697 Dy683 2.326 . S
O697 C699 1.267 . S
C698 O690 1.249 . S
C698 O691 1.267 . S
C699 O696 1.249 . S
C699 O697 1.267 . S
Dy700 O704 2.398 . S
Dy700 O705 2.491 . S
Dy700 O706 2.403 . S
Dy700 O707 2.664 . S
Dy700 O711 2.326 . S
Dy700 O715 2.310 . S
Dy700 O716 2.351 . S
C701 O712 1.185 . S
C701 O713 1.355 . S
C702 O704 1.185 . S
C702 O705 1.355 . S
Dy703 O707 2.310 . S
Dy703 O710 2.351 . S
Dy703 O712 2.398 . S
Dy703 O713 2.491 . S
Dy703 O714 2.403 . S
Dy703 O715 2.664 . S
Dy703 O717 2.326 . S
O704 Dy700 2.398 . S
O704 C702 1.185 . S
O705 Dy700 2.491 . S
O705 C702 1.355 . S
O706 Dy700 2.403 . S
O706 C708 1.254 . S
O707 Dy700 2.664 . S
O707 Dy703 2.310 . S
O707 C708 1.268 . S
C708 O706 1.254 . S
C708 O707 1.268 . S
C709 O714 1.254 . S
C709 O715 1.268 . S
O710 Dy703 2.351 . S
O710 C718 1.249 . S
O711 Dy700 2.326 . S
O711 C718 1.267 . S
O712 C701 1.185 . S
O712 Dy703 2.398 . S
O713 C701 1.355 . S
O713 Dy703 2.491 . S
O714 Dy703 2.403 . S
O714 C709 1.254 . S
O715 Dy700 2.310 . S
O715 Dy703 2.664 . S
O715 C709 1.268 . S
O716 Dy700 2.351 . S
O716 C719 1.249 . S
O717 Dy703 2.326 . S
O717 C719 1.267 . S
C718 O710 1.249 . S
C718 O711 1.267 . S
C719 O716 1.249 . S
C719 O717 1.267 . S
Dy720 O724 2.398 . S
Dy720 O725 2.491 . S
Dy720 O726 2.403 . S
Dy720 O727 2.664 . S
Dy720 O731 2.326 . S
Dy720 O735 2.310 . S
Dy720 O736 2.351 . S
C721 O732 1.185 . S
C721 O733 1.355 . S
C722 O724 1.185 . S
C722 O725 1.355 . S
Dy723 O727 2.310 . S
Dy723 O730 2.351 . S
Dy723 O732 2.398 . S
Dy723 O733 2.491 . S
Dy723 O734 2.403 . S
Dy723 O735 2.664 . S
Dy723 O737 2.326 . S
O724 Dy720 2.398 . S
O724 C722 1.185 . S
O725 Dy720 2.491 . S
O725 C722 1.355 . S
O726 Dy720 2.403 . S
O726 C728 1.254 . S
O727 Dy720 2.664 . S
O727 Dy723 2.310 . S
O727 C728 1.268 . S
C728 O726 1.254 . S
C728 O727 1.268 . S
C729 O734 1.254 . S
C729 O735 1.268 . S
O730 Dy723 2.351 . S
O730 C738 1.249 . S
O731 Dy720 2.326 . S
O731 C738 1.267 . S
O732 C721 1.185 . S
O732 Dy723 2.398 . S
O733 C721 1.355 . S
O733 Dy723 2.491 . S
O734 Dy723 2.403 . S
O734 C729 1.254 . S
O735 Dy720 2.310 . S
O735 Dy723 2.664 . S
O735 C729 1.268 . S
O736 Dy720 2.351 . S
O736 C739 1.249 . S
O737 Dy723 2.326 . S
O737 C739 1.267 . S
C738 O730 1.249 . S
C738 O731 1.267 . S
C739 O736 1.249 . S
C739 O737 1.267 . S
Dy740 O744 2.398 . S
Dy740 O745 2.491 . S
Dy740 O746 2.403 . S
Dy740 O747 2.664 . S
Dy740 O751 2.326 . S
Dy740 O755 2.310 . S
Dy740 O756 2.351 . S
C741 O752 1.185 . S
C741 O753 1.355 . S
C742 O744 1.185 . S
C742 O745 1.355 . S
Dy743 O747 2.310 . S
Dy743 O750 2.351 . S
Dy743 O752 2.398 . S
Dy743 O753 2.491 . S
Dy743 O754 2.403 . S
Dy743 O755 2.664 . S
Dy743 O757 2.326 . S
O744 Dy740 2.398 . S
O744 C742 1.185 . S
O745 Dy740 2.491 . S
O745 C742 1.355 . S
O746 Dy740 2.403 . S
O746 C748 1.254 . S
O747 Dy740 2.664 . S
O747 Dy743 2.310 . S
O747 C748 1.268 . S
C748 O746 1.254 . S
C748 O747 1.268 . S
C749 O754 1.254 . S
C749 O755 1.268 . S
O750 Dy743 2.351 . S
O750 C758 1.249 . S
O751 Dy740 2.326 . S
O751 C758 1.267 . S
O752 C741 1.185 . S
O752 Dy743 2.398 . S
O753 C741 1.355 . S
O753 Dy743 2.491 . S
O754 Dy743 2.403 . S
O754 C749 1.254 . S
O755 Dy740 2.310 . S
O755 Dy743 2.664 . S
O755 C749 1.268 . S
O756 Dy740 2.351 . S
O756 C759 1.249 . S
O757 Dy743 2.326 . S
O757 C759 1.267 . S
C758 O750 1.249 . S
C758 O751 1.267 . S
C759 O756 1.249 . S
C759 O757 1.267 . S
Dy760 O764 2.398 . S
Dy760 O765 2.491 . S
Dy760 O766 2.403 . S
Dy760 O767 2.664 . S
Dy760 O771 2.326 . S
Dy760 O775 2.310 . S
Dy760 O776 2.351 . S
C761 O772 1.185 . S
C761 O773 1.355 . S
C762 O764 1.185 . S
C762 O765 1.355 . S
Dy763 O767 2.310 . S
Dy763 O770 2.351 . S
Dy763 O772 2.398 . S
Dy763 O773 2.491 . S
Dy763 O774 2.403 . S
Dy763 O775 2.664 . S
Dy763 O777 2.326 . S
O764 Dy760 2.398 . S
O764 C762 1.185 . S
O765 Dy760 2.491 . S
O765 C762 1.355 . S
O766 Dy760 2.403 . S
O766 C768 1.254 . S
O767 Dy760 2.664 . S
O767 Dy763 2.310 . S
O767 C768 1.268 . S
C768 O766 1.254 . S
C768 O767 1.268 . S
C769 O774 1.254 . S
C769 O775 1.268 . S
O770 Dy763 2.351 . S
O770 C778 1.249 . S
O771 Dy760 2.326 . S
O771 C778 1.267 . S
O772 C761 1.185 . S
O772 Dy763 2.398 . S
O773 C761 1.355 . S
O773 Dy763 2.491 . S
O774 Dy763 2.403 . S
O774 C769 1.254 . S
O775 Dy760 2.310 . S
O775 Dy763 2.664 . S
O775 C769 1.268 . S
O776 Dy760 2.351 . S
O776 C779 1.249 . S
O777 Dy763 2.326 . S
O777 C779 1.267 . S
C778 O770 1.249 . S
C778 O771 1.267 . S
C779 O776 1.249 . S
C779 O777 1.267 . S
Dy780 O784 2.398 . S
Dy780 O785 2.491 . S
Dy780 O786 2.403 . S
Dy780 O787 2.664 . S
Dy780 O791 2.326 . S
Dy780 O795 2.310 . S
Dy780 O796 2.351 . S
C781 O792 1.185 . S
C781 O793 1.355 . S
C782 O784 1.185 . S
C782 O785 1.355 . S
Dy783 O787 2.310 . S
Dy783 O790 2.351 . S
Dy783 O792 2.398 . S
Dy783 O793 2.491 . S
Dy783 O794 2.403 . S
Dy783 O795 2.664 . S
Dy783 O797 2.326 . S
O784 Dy780 2.398 . S
O784 C782 1.185 . S
O785 Dy780 2.491 . S
O785 C782 1.355 . S
O786 Dy780 2.403 . S
O786 C788 1.254 . S
O787 Dy780 2.664 . S
O787 Dy783 2.310 . S
O787 C788 1.268 . S
C788 O786 1.254 . S
C788 O787 1.268 . S
C789 O794 1.254 . S
C789 O795 1.268 . S
O790 Dy783 2.351 . S
O790 C798 1.249 . S
O791 Dy780 2.326 . S
O791 C798 1.267 . S
O792 C781 1.185 . S
O792 Dy783 2.398 . S
O793 C781 1.355 . S
O793 Dy783 2.491 . S
O794 Dy783 2.403 . S
O794 C789 1.254 . S
O795 Dy780 2.310 . S
O795 Dy783 2.664 . S
O795 C789 1.268 . S
O796 Dy780 2.351 . S
O796 C799 1.249 . S
O797 Dy783 2.326 . S
O797 C799 1.267 . S
C798 O790 1.249 . S
C798 O791 1.267 . S
C799 O796 1.249 . S
C799 O797 1.267 . S
Dy800 O804 2.398 . S
Dy800 O805 2.491 . S
Dy800 O806 2.403 . S
Dy800 O807 2.664 . S
Dy800 O811 2.326 . S
Dy800 O815 2.310 . S
Dy800 O816 2.351 . S
C801 O812 1.185 . S
C801 O813 1.355 . S
C802 O804 1.185 . S
C802 O805 1.355 . S
Dy803 O807 2.310 . S
Dy803 O810 2.351 . S
Dy803 O812 2.398 . S
Dy803 O813 2.491 . S
Dy803 O814 2.403 . S
Dy803 O815 2.664 . S
Dy803 O817 2.326 . S
O804 Dy800 2.398 . S
O804 C802 1.185 . S
O805 Dy800 2.491 . S
O805 C802 1.355 . S
O806 Dy800 2.403 . S
O806 C808 1.254 . S
O807 Dy800 2.664 . S
O807 Dy803 2.310 . S
O807 C808 1.268 . S
C808 O806 1.254 . S
C808 O807 1.268 . S
C809 O814 1.254 . S
C809 O815 1.268 . S
O810 Dy803 2.351 . S
O810 C818 1.249 . S
O811 Dy800 2.326 . S
O811 C818 1.267 . S
O812 C801 1.185 . S
O812 Dy803 2.398 . S
O813 C801 1.355 . S
O813 Dy803 2.491 . S
O814 Dy803 2.403 . S
O814 C809 1.254 . S
O815 Dy800 2.310 . S
O815 Dy803 2.664 . S
O815 C809 1.268 . S
O816 Dy800 2.351 . S
O816 C819 1.249 . S
O817 Dy803 2.326 . S
O817 C819 1.267 . S
C818 O810 1.249 . S
C818 O811 1.267 . S
C819 O816 1.249 . S
C819 O817 1.267 . S
Dy820 O824 2.398 . S
Dy820 O825 2.491 . S
Dy820 O826 2.403 . S
Dy820 O827 2.664 . S
Dy820 O831 2.326 . S
Dy820 O835 2.310 . S
Dy820 O836 2.351 . S
C821 O832 1.185 . S
C821 O833 1.355 . S
C822 O824 1.185 . S
C822 O825 1.355 . S
Dy823 O827 2.310 . S
Dy823 O830 2.351 . S
Dy823 O832 2.398 . S
Dy823 O833 2.491 . S
Dy823 O834 2.403 . S
Dy823 O835 2.664 . S
Dy823 O837 2.326 . S
O824 Dy820 2.398 . S
O824 C822 1.185 . S
O825 Dy820 2.491 . S
O825 C822 1.355 . S
O826 Dy820 2.403 . S
O826 C828 1.254 . S
O827 Dy820 2.664 . S
O827 Dy823 2.310 . S
O827 C828 1.268 . S
C828 O826 1.254 . S
C828 O827 1.268 . S
C829 O834 1.254 . S
C829 O835 1.268 . S
O830 Dy823 2.351 . S
O830 C838 1.249 . S
O831 Dy820 2.326 . S
O831 C838 1.267 . S
O832 C821 1.185 . S
O832 Dy823 2.398 . S
O833 C821 1.355 . S
O833 Dy823 2.491 . S
O834 Dy823 2.403 . S
O834 C829 1.254 . S
O835 Dy820 2.310 . S
O835 Dy823 2.664 . S
O835 C829 1.268 . S
O836 Dy820 2.351 . S
O836 C839 1.249 . S
O837 Dy823 2.326 . S
O837 C839 1.267 . S
C838 O830 1.249 . S
C838 O831 1.267 . S
C839 O836 1.249 . S
C839 O837 1.267 . S
Dy840 O844 2.398 . S
Dy840 O845 2.491 . S
Dy840 O846 2.403 . S
Dy840 O847 2.664 . S
Dy840 O851 2.326 . S
Dy840 O855 2.310 . S
Dy840 O856 2.351 . S
C841 O852 1.185 . S
C841 O853 1.355 . S
C842 O844 1.185 . S
C842 O845 1.355 . S
Dy843 O847 2.310 . S
Dy843 O850 2.351 . S
Dy843 O852 2.398 . S
Dy843 O853 2.491 . S
Dy843 O854 2.403 . S
Dy843 O855 2.664 . S
Dy843 O857 2.326 . S
O844 Dy840 2.398 . S
O844 C842 1.185 . S
O845 Dy840 2.491 . S
O845 C842 1.355 . S
O846 Dy840 2.403 . S
O846 C848 1.254 . S
O847 Dy840 2.664 . S
O847 Dy843 2.310 . S
O847 C848 1.268 . S
C848 O846 1.254 . S
C848 O847 1.268 . S
C849 O854 1.254 . S
C849 O855 1.268 . S
O850 Dy843 2.351 . S
O850 C858 1.249 . S
O851 Dy840 2.326 . S
O851 C858 1.267 . S
O852 C841 1.185 . S
O852 Dy843 2.398 . S
O853 C841 1.355 . S
O853 Dy843 2.491 . S
O854 Dy843 2.403 . S
O854 C849 1.254 . S
O855 Dy840 2.310 . S
O855 Dy843 2.664 . S
O855 C849 1.268 . S
O856 Dy840 2.351 . S
O856 C859 1.249 . S
O857 Dy843 2.326 . S
O857 C859 1.267 . S
C858 O850 1.249 . S
C858 O851 1.267 . S
C859 O856 1.249 . S
C859 O857 1.267 . S
Dy860 O864 2.398 . S
Dy860 O865 2.491 . S
Dy860 O866 2.403 . S
Dy860 O867 2.664 . S
Dy860 O871 2.326 . S
Dy860 O875 2.310 . S
Dy860 O876 2.351 . S
C861 O872 1.185 . S
C861 O873 1.355 . S
C862 O864 1.185 . S
C862 O865 1.355 . S
Dy863 O867 2.310 . S
Dy863 O870 2.351 . S
Dy863 O872 2.398 . S
Dy863 O873 2.491 . S
Dy863 O874 2.403 . S
Dy863 O875 2.664 . S
Dy863 O877 2.326 . S
O864 Dy860 2.398 . S
O864 C862 1.185 . S
O865 Dy860 2.491 . S
O865 C862 1.355 . S
O866 Dy860 2.403 . S
O866 C868 1.254 . S
O867 Dy860 2.664 . S
O867 Dy863 2.310 . S
O867 C868 1.268 . S
C868 O866 1.254 . S
C868 O867 1.268 . S
C869 O874 1.254 . S
C869 O875 1.268 . S
O870 Dy863 2.351 . S
O870 C878 1.249 . S
O871 Dy860 2.326 . S
O871 C878 1.267 . S
O872 C861 1.185 . S
O872 Dy863 2.398 . S
O873 C861 1.355 . S
O873 Dy863 2.491 . S
O874 Dy863 2.403 . S
O874 C869 1.254 . S
O875 Dy860 2.310 . S
O875 Dy863 2.664 . S
O875 C869 1.268 . S
O876 Dy860 2.351 . S
O876 C879 1.249 . S
O877 Dy863 2.326 . S
O877 C879 1.267 . S
C878 O870 1.249 . S
C878 O871 1.267 . S
C879 O876 1.249 . S
C879 O877 1.267 . S
Dy880 O884 2.398 . S
Dy880 O885 2.491 . S
Dy880 O886 2.403 . S
Dy880 O887 2.664 . S
Dy880 O891 2.326 . S
Dy880 O895 2.310 . S
Dy880 O896 2.351 . S
C881 O892 1.185 . S
C881 O893 1.355 . S
C882 O884 1.185 . S
C882 O885 1.355 . S
Dy883 O887 2.310 . S
Dy883 O890 2.351 . S
Dy883 O892 2.398 . S
Dy883 O893 2.491 . S
Dy883 O894 2.403 . S
Dy883 O895 2.664 . S
Dy883 O897 2.326 . S
O884 Dy880 2.398 . S
O884 C882 1.185 . S
O885 Dy880 2.491 . S
O885 C882 1.355 . S
O886 Dy880 2.403 . S
O886 C888 1.254 . S
O887 Dy880 2.664 . S
O887 Dy883 2.310 . S
O887 C888 1.268 . S
C888 O886 1.254 . S
C888 O887 1.268 . S
C889 O894 1.254 . S
C889 O895 1.268 . S
O890 Dy883 2.351 . S
O890 C898 1.249 . S
O891 Dy880 2.326 . S
O891 C898 1.267 . S
O892 C881 1.185 . S
O892 Dy883 2.398 . S
O893 C881 1.355 . S
O893 Dy883 2.491 . S
O894 Dy883 2.403 . S
O894 C889 1.254 . S
O895 Dy880 2.310 . S
O895 Dy883 2.664 . S
O895 C889 1.268 . S
O896 Dy880 2.351 . S
O896 C899 1.249 . S
O897 Dy883 2.326 . S
O897 C899 1.267 . S
C898 O890 1.249 . S
C898 O891 1.267 . S
C899 O896 1.249 . S
C899 O897 1.267 . S
Dy900 O904 2.398 . S
Dy900 O905 2.491 . S
Dy900 O906 2.403 . S
Dy900 O907 2.664 . S
Dy900 O911 2.326 . S
Dy900 O915 2.310 . S
Dy900 O916 2.351 . S
C901 O912 1.185 . S
C901 O913 1.355 . S
C902 O904 1.185 . S
C902 O905 1.355 . S
Dy903 O907 2.310 . S
Dy903 O910 2.351 . S
Dy903 O912 2.398 . S
Dy903 O913 2.491 . S
Dy903 O914 2.403 . S
Dy903 O915 2.664 . S
Dy903 O917 2.326 . S
O904 Dy900 2.398 . S
O904 C902 1.185 . S
O905 Dy900 2.491 . S
O905 C902 1.355 . S
O906 Dy900 2.403 . S
O906 C908 1.254 . S
O907 Dy900 2.664 . S
O907 Dy903 2.310 . S
O907 C908 1.268 . S
C908 O906 1.254 . S
C908 O907 1.268 . S
C909 O914 1.254 . S
C909 O915 1.268 . S
O910 Dy903 2.351 . S
O910 C918 1.249 . S
O911 Dy900 2.326 . S
O911 C918 1.267 . S
O912 C901 1.185 . S
O912 Dy903 2.398 . S
O913 C901 1.355 . S
O913 Dy903 2.491 . S
O914 Dy903 2.403 . S
O914 C909 1.254 . S
O915 Dy900 2.310 . S
O915 Dy903 2.664 . S
O915 C909 1.268 . S
O916 Dy900 2.351 . S
O916 C919 1.249 . S
O917 Dy903 2.326 . S
O917 C919 1.267 . S
C918 O910 1.249 . S
C918 O911 1.267 . S
C919 O916 1.249 . S
C919 O917 1.267 . S
Dy920 O924 2.398 . S
Dy920 O925 2.491 . S
Dy920 O926 2.403 . S
Dy920 O927 2.664 . S
Dy920 O931 2.326 . S
Dy920 O935 2.310 . S
Dy920 O936 2.351 . S
C921 O932 1.185 . S
C921 O933 1.355 . S
C922 O924 1.185 . S
C922 O925 1.355 . S
Dy923 O927 2.310 . S
Dy923 O930 2.351 . S
Dy923 O932 2.398 . S
Dy923 O933 2.491 . S
Dy923 O934 2.403 . S
Dy923 O935 2.664 . S
Dy923 O937 2.326 . S
O924 Dy920 2.398 . S
O924 C922 1.185 . S
O925 Dy920 2.491 . S
O925 C922 1.355 . S
O926 Dy920 2.403 . S
O926 C928 1.254 . S
O927 Dy920 2.664 . S
O927 Dy923 2.310 . S
O927 C928 1.268 . S
C928 O926 1.254 . S
C928 O927 1.268 . S
C929 O934 1.254 . S
C929 O935 1.268 . S
O930 Dy923 2.351 . S
O930 C938 1.249 . S
O931 Dy920 2.326 . S
O931 C938 1.267 . S
O932 C921 1.185 . S
O932 Dy923 2.398 . S
O933 C921 1.355 . S
O933 Dy923 2.491 . S
O934 Dy923 2.403 . S
O934 C929 1.254 . S
O935 Dy920 2.310 . S
O935 Dy923 2.664 . S
O935 C929 1.268 . S
O936 Dy920 2.351 . S
O936 C939 1.249 . S
O937 Dy923 2.326 . S
O937 C939 1.267 . S
C938 O930 1.249 . S
C938 O931 1.267 . S
C939 O936 1.249 . S
C939 O937 1.267 . S
Dy940 O944 2.398 . S
Dy940 O945 2.491 . S
Dy940 O946 2.403 . S
Dy940 O947 2.664 . S
Dy940 O951 2.326 . S
Dy940 O955 2.310 . S
Dy940 O956 2.351 . S
C941 O952 1.185 . S
C941 O953 1.355 . S
C942 O944 1.185 . S
C942 O945 1.355 . S
Dy943 O947 2.310 . S
Dy943 O950 2.351 . S
Dy943 O952 2.398 . S
Dy943 O953 2.491 . S
Dy943 O954 2.403 . S
Dy943 O955 2.664 . S
Dy943 O957 2.326 . S
O944 Dy940 2.398 . S
O944 C942 1.185 . S
O945 Dy940 2.491 . S
O945 C942 1.355 . S
O946 Dy940 2.403 . S
O946 C948 1.254 . S
O947 Dy940 2.664 . S
O947 Dy943 2.310 . S
O947 C948 1.268 . S
C948 O946 1.254 . S
C948 O947 1.268 . S
C949 O954 1.254 . S
C949 O955 1.268 . S
O950 Dy943 2.351 . S
O950 C958 1.249 . S
O951 Dy940 2.326 . S
O951 C958 1.267 . S
O952 C941 1.185 . S
O952 Dy943 2.398 . S
O953 C941 1.355 . S
O953 Dy943 2.491 . S
O954 Dy943 2.403 . S
O954 C949 1.254 . S
O955 Dy940 2.310 . S
O955 Dy943 2.664 . S
O955 C949 1.268 . S
O956 Dy940 2.351 . S
O956 C959 1.249 . S
O957 Dy943 2.326 . S
O957 C959 1.267 . S
C958 O950 1.249 . S
C958 O951 1.267 . S
C959 O956 1.249 . S
C959 O957 1.267 . S
H960 C968 0.950 . S
H961 C973 0.950 . S
H962 C970 0.950 . S
H963 C972 0.950 . S
H964 C974 0.950 . S
H965 C976 0.950 . S
H966 C978 0.950 . S
H967 C979 0.950 . S
C968 H960 0.950 . S
C968 C969 1.386 1_655 S
C968 C970 1.391 . S
C969 C968 1.386 1_455 S
C969 C973 1.393 . S
C970 H962 0.950 . S
C970 C968 1.391 . S
C970 C971 1.400 1_655 S
C971 C970 1.400 1_455 S
C971 C972 1.398 . S
C971 C977 1.491 . S
C972 H963 0.950 . S
C972 C971 1.398 . S
C972 C973 1.391 . S
C973 H961 0.950 . S
C973 C969 1.393 . S
C973 C972 1.391 . S
C974 H964 0.950 . S
C974 C975 1.400 . S
C974 C976 1.391 . S
C975 C974 1.400 . S
C975 C979 1.380 1_455 S
C976 H965 0.950 . S
C976 C974 1.391 . S
C976 C977 1.400 . S
C977 C971 1.491 . S
C977 C976 1.400 . S
C977 C978 1.398 1_455 S
C978 H966 0.950 . S
C978 C977 1.398 1_655 S
C978 C979 1.391 . S
C979 H967 0.950 . S
C979 C975 1.380 1_655 S
C979 C978 1.391 . S
H980 C988 0.950 . S
H981 C993 0.947 . S
H982 C990 0.950 . S
H983 C992 0.950 1_565 S
H984 C994 0.950 1_565 S
H985 C996 0.950 1_565 S
H986 C998 0.950 . S
H987 C999 0.950 . S
C988 H980 0.950 . S
C988 C989 1.386 . S
C988 C990 1.391 . S
C989 C988 1.386 . S
C989 C993 1.393 . S
C990 H982 0.950 . S
C990 C988 1.391 . S
C990 C991 1.400 . S
C991 C990 1.400 . S
C991 C992 1.398 . S
C991 C997 1.491 . S
C992 H983 0.950 1_545 S
C992 C991 1.398 . S
C992 C993 1.391 . S
C993 H981 0.947 . S
C993 C989 1.393 . S
C993 C992 1.391 . S
C994 H984 0.950 1_545 S
C994 C995 1.386 . S
C994 C996 1.391 . S
C995 C994 1.386 . S
C995 C999 1.393 . S
C996 H985 0.950 1_545 S
C996 C994 1.391 . S
C996 C997 1.400 . S
C997 C991 1.491 . S
C997 C996 1.400 . S
C997 C998 1.398 . S
C998 H986 0.950 . S
C998 C997 1.398 . S
C998 C999 1.391 . S
C999 H987 0.950 . S
C999 C995 1.393 . S
C999 C998 1.391 . S
H1000 C1008 0.950 1_655 S
H1001 C1013 0.950 . S
H1002 C1010 0.950 1_655 S
H1003 C1012 0.950 . S
H1004 C1014 0.950 . S
H1005 C1016 0.950 . S
H1006 C1018 0.950 1_655 S
H1007 C1019 0.950 1_655 S
C1008 H1000 0.950 1_455 S
C1008 C1009 1.386 . S
C1008 C1010 1.391 . S
C1009 C1008 1.386 . S
C1009 C1013 1.393 . S
C1010 H1002 0.950 1_455 S
C1010 C1008 1.391 . S
C1010 C1011 1.400 . S
C1011 C1010 1.400 . S
C1011 C1012 1.398 . S
C1011 C1017 1.491 . S
C1012 H1003 0.950 . S
C1012 C1011 1.398 . S
C1012 C1013 1.391 . S
C1013 H1001 0.950 . S
C1013 C1009 1.393 . S
C1013 C1012 1.391 . S
C1014 H1004 0.950 . S
C1014 C1015 1.386 . S
C1014 C1016 1.391 . S
C1015 C1014 1.386 . S
C1015 C1019 1.393 . S
C1016 H1005 0.950 . S
C1016 C1014 1.391 . S
C1016 C1017 1.400 . S
C1017 C1011 1.491 . S
C1017 C1016 1.400 . S
C1017 C1018 1.398 . S
C1018 H1006 0.950 1_455 S
C1018 C1017 1.398 . S
C1018 C1019 1.391 . S
C1019 H1007 0.950 1_455 S
C1019 C1015 1.393 . S
C1019 C1018 1.391 . S
H1020 C1028 0.928 1_565 S
H1021 C1033 0.950 . S
H1022 C1030 0.950 . S
H1023 C1032 0.950 . S
H1024 C1034 0.950 . S
H1025 C1036 0.950 . S
H1026 C1038 0.950 . S
H1027 C1039 0.950 . S
C1028 H1020 0.928 1_545 S
C1028 C1029 1.408 . S
C1028 C1030 1.390 1_545 S
C1029 C1028 1.408 . S
C1029 C1033 1.393 . S
C1030 H1022 0.950 . S
C1030 C1028 1.390 1_565 S
C1030 C1031 1.400 1_565 S
C1031 C1030 1.400 1_545 S
C1031 C1032 1.398 . S
C1031 C1037 1.491 . S
C1032 H1023 0.950 . S
C1032 C1031 1.398 . S
C1032 C1033 1.391 . S
C1033 H1021 0.950 . S
C1033 C1029 1.393 . S
C1033 C1032 1.391 . S
C1034 H1024 0.950 . S
C1034 C1035 1.386 . S
C1034 C1036 1.391 . S
C1035 C1034 1.386 . S
C1035 C1039 1.393 1_545 S
C1036 H1025 0.950 . S
C1036 C1034 1.391 . S
C1036 C1037 1.400 . S
C1037 C1031 1.491 . S
C1037 C1036 1.400 . S
C1037 C1038 1.398 1_545 S
C1038 H1026 0.950 . S
C1038 C1037 1.398 1_565 S
C1038 C1039 1.391 . S
C1039 H1027 0.950 . S
C1039 C1035 1.393 1_565 S
C1039 C1038 1.391 . S
H1040 C1048 0.950 . S
H1041 C1053 0.948 . S
H1042 C1050 0.950 . S
H1043 C1052 0.950 . S
H1044 C1054 0.950 . S
H1045 C1056 0.950 . S
H1046 C1058 0.950 . S
H1047 C1059 0.950 . S
C1048 H1040 0.950 . S
C1048 C1049 1.386 . S
C1048 C1050 1.391 . S
C1049 C1048 1.386 . S
C1049 C1053 1.395 1_545 S
C1050 H1042 0.950 . S
C1050 C1048 1.391 . S
C1050 C1051 1.400 . S
C1051 C1050 1.400 . S
C1051 C1052 1.398 1_545 S
C1051 C1057 1.491 . S
C1052 H1043 0.950 . S
C1052 C1051 1.398 1_565 S
C1052 C1053 1.391 . S
C1053 H1041 0.948 . S
C1053 C1049 1.395 1_565 S
C1053 C1052 1.391 . S
C1054 H1044 0.950 . S
C1054 C1055 1.386 1_565 S
C1054 C1056 1.391 . S
C1055 C1054 1.386 1_545 S
C1055 C1059 1.393 . S
C1056 H1045 0.950 . S
C1056 C1054 1.391 . S
C1056 C1057 1.400 1_565 S
C1057 C1051 1.491 . S
C1057 C1056 1.400 1_545 S
C1057 C1058 1.398 . S
C1058 H1046 0.950 . S
C1058 C1057 1.398 . S
C1058 C1059 1.391 . S
C1059 H1047 0.950 . S
C1059 C1055 1.393 . S
C1059 C1058 1.391 . S
H1060 C1068 0.950 . S
H1061 C1073 0.950 . S
H1062 C1070 0.950 . S
H1063 C1072 0.950 . S
H1064 C1074 0.950 . S
H1065 C1076 0.950 . S
H1066 C1078 0.950 . S
H1067 C1079 0.950 . S
C1068 H1060 0.950 . S
C1068 C1069 1.386 1_655 S
C1068 C1070 1.391 . S
C1069 C1068 1.386 1_455 S
C1069 C1073 1.393 . S
C1070 H1062 0.950 . S
C1070 C1068 1.391 . S
C1070 C1071 1.400 1_655 S
C1071 C1070 1.400 1_455 S
C1071 C1072 1.398 . S
C1071 C1077 1.491 . S
C1072 H1063 0.950 . S
C1072 C1071 1.398 . S
C1072 C1073 1.391 . S
C1073 H1061 0.950 . S
C1073 C1069 1.393 . S
C1073 C1072 1.391 . S
C1074 H1064 0.950 . S
C1074 C1075 1.386 . S
C1074 C1076 1.391 . S
C1075 C1074 1.386 . S
C1075 C1079 1.393 1_455 S
C1076 H1065 0.950 . S
C1076 C1074 1.391 . S
C1076 C1077 1.400 . S
C1077 C1071 1.491 . S
C1077 C1076 1.400 . S
C1077 C1078 1.398 1_455 S
C1078 H1066 0.950 . S
C1078 C1077 1.398 1_655 S
C1078 C1079 1.391 . S
C1079 H1067 0.950 . S
C1079 C1075 1.393 1_655 S
C1079 C1078 1.391 . S
H1080 C1088 0.943 1_565 S
H1081 C1093 0.950 . S
H1082 C1090 0.950 . S
H1083 C1092 0.950 . S
H1084 C1094 0.950 . S
H1085 C1096 0.950 . S
H1086 C1098 0.950 . S
H1087 C1099 0.950 . S
C1088 H1080 0.943 1_545 S
C1088 C1089 1.386 . S
C1088 C1090 1.391 . S
C1089 C1088 1.386 . S
C1089 C1093 1.393 . S
C1090 H1082 0.950 . S
C1090 C1088 1.391 . S
C1090 C1091 1.400 . S
C1091 C1090 1.400 . S
C1091 C1092 1.398 . S
C1091 C1097 1.491 . S
C1092 H1083 0.950 . S
C1092 C1091 1.398 . S
C1092 C1093 1.391 . S
C1093 H1081 0.950 . S
C1093 C1089 1.393 . S
C1093 C1092 1.391 . S
C1094 H1084 0.950 . S
C1094 C1095 1.386 . S
C1094 C1096 1.391 . S
C1095 C1094 1.386 . S
C1095 C1099 1.393 . S
C1096 H1085 0.950 . S
C1096 C1094 1.391 . S
C1096 C1097 1.400 . S
C1097 C1091 1.491 . S
C1097 C1096 1.400 . S
C1097 C1098 1.398 . S
C1098 H1086 0.950 . S
C1098 C1097 1.398 . S
C1098 C1099 1.391 . S
C1099 H1087 0.950 . S
C1099 C1095 1.393 . S
C1099 C1098 1.391 . S
H1100 C1108 0.950 . S
H1101 C1113 0.950 . S
H1102 C1110 0.950 . S
H1103 C1112 0.950 . S
H1104 C1114 0.950 . S
H1105 C1116 0.950 . S
H1106 C1118 0.950 . S
H1107 C1119 0.950 . S
C1108 H1100 0.950 . S
C1108 C1109 1.386 1_655 S
C1108 C1110 1.391 . S
C1109 C1108 1.386 1_455 S
C1109 C1113 1.393 . S
C1110 H1102 0.950 . S
C1110 C1108 1.391 . S
C1110 C1111 1.400 1_655 S
C1111 C1110 1.400 1_455 S
C1111 C1112 1.398 . S
C1111 C1117 1.491 . S
C1112 H1103 0.950 . S
C1112 C1111 1.398 . S
C1112 C1113 1.391 . S
C1113 H1101 0.950 . S
C1113 C1109 1.393 . S
C1113 C1112 1.391 . S
C1114 H1104 0.950 . S
C1114 C1115 1.386 . S
C1114 C1116 1.391 . S
C1115 C1114 1.386 . S
C1115 C1119 1.393 1_455 S
C1116 H1105 0.950 . S
C1116 C1114 1.391 . S
C1116 C1117 1.400 . S
C1117 C1111 1.491 . S
C1117 C1116 1.400 . S
C1117 C1118 1.398 1_455 S
C1118 H1106 0.950 . S
C1118 C1117 1.398 1_655 S
C1118 C1119 1.391 . S
C1119 H1107 0.950 . S
C1119 C1115 1.393 1_655 S
C1119 C1118 1.391 . S
H1120 C1128 0.950 . S
H1121 C1133 0.950 . S
H1122 C1130 0.950 . S
H1123 C1132 0.950 . S
H1124 C1134 0.950 . S
H1125 C1136 0.950 . S
H1126 C1138 0.950 . S
H1127 C1139 0.950 . S
C1128 H1120 0.950 . S
C1128 C1129 1.386 . S
C1128 C1130 1.391 . S
C1129 C1128 1.386 . S
C1129 C1133 1.393 . S
C1130 H1122 0.950 . S
C1130 C1128 1.391 . S
C1130 C1131 1.400 . S
C1131 C1130 1.400 . S
C1131 C1132 1.398 . S
C1131 C1137 1.491 . S
C1132 H1123 0.950 . S
C1132 C1131 1.398 . S
C1132 C1133 1.391 . S
C1133 H1121 0.950 . S
C1133 C1129 1.393 . S
C1133 C1132 1.391 . S
C1134 H1124 0.950 . S
C1134 C1135 1.386 . S
C1134 C1136 1.391 . S
C1135 C1134 1.386 . S
C1135 C1139 1.393 . S
C1136 H1125 0.950 . S
C1136 C1134 1.391 . S
C1136 C1137 1.400 . S
C1137 C1131 1.491 . S
C1137 C1136 1.400 . S
C1137 C1138 1.398 . S
C1138 H1126 0.950 . S
C1138 C1137 1.398 . S
C1138 C1139 1.391 . S
C1139 H1127 0.950 . S
C1139 C1135 1.393 . S
C1139 C1138 1.391 . S
H1140 C1148 0.950 1_556 S
H1141 C1153 0.950 . S
H1142 C1150 0.950 1_556 S
H1143 C1152 0.950 . S
H1144 C1154 0.950 . S
H1145 C1156 0.950 . S
H1146 C1158 0.920 1_556 S
H1147 C1159 0.955 . S
C1148 H1140 0.950 1_554 S
C1148 C1149 1.386 . S
C1148 C1150 1.391 . S
C1149 C1148 1.386 . S
C1149 C1153 1.393 . S
C1150 H1142 0.950 1_554 S
C1150 C1148 1.391 . S
C1150 C1151 1.400 . S
C1151 C1150 1.400 . S
C1151 C1152 1.398 . S
C1151 C1157 1.491 . S
C1152 H1143 0.950 . S
C1152 C1151 1.398 . S
C1152 C1153 1.391 . S
C1153 H1141 0.950 . S
C1153 C1149 1.393 . S
C1153 C1152 1.391 . S
C1154 H1144 0.950 . S
C1154 C1155 1.386 . S
C1154 C1156 1.391 . S
C1155 C1154 1.386 . S
C1155 C1159 1.393 . S
C1156 H1145 0.950 . S
C1156 C1154 1.391 . S
C1156 C1157 1.400 . S
C1157 C1151 1.491 . S
C1157 C1156 1.400 . S
C1157 C1158 1.398 . S
C1158 H1146 0.920 1_554 S
C1158 C1157 1.398 . S
C1158 C1159 1.391 . S
C1159 H1147 0.955 . S
C1159 C1155 1.393 . S
C1159 C1158 1.391 . S
H1160 C1168 0.950 . S
H1161 C1173 0.950 . S
H1162 C1170 0.956 . S
H1163 C1172 0.950 . S
H1164 C1174 0.950 . S
H1165 C1176 0.950 . S
H1166 C1178 0.950 1_556 S
H1167 C1179 0.950 1_556 S
C1168 H1160 0.950 . S
C1168 C1169 1.386 1_556 S
C1168 C1170 1.392 . S
C1169 C1168 1.386 1_554 S
C1169 C1173 1.393 . S
C1170 H1162 0.956 . S
C1170 C1168 1.392 . S
C1170 C1171 1.394 1_556 S
C1171 C1170 1.394 1_554 S
C1171 C1172 1.398 . S
C1171 C1177 1.491 . S
C1172 H1163 0.950 . S
C1172 C1171 1.398 . S
C1172 C1173 1.391 . S
C1173 H1161 0.950 . S
C1173 C1169 1.393 . S
C1173 C1172 1.391 . S
C1174 H1164 0.950 . S
C1174 C1175 1.386 . S
C1174 C1176 1.391 . S
C1175 C1174 1.386 . S
C1175 C1179 1.393 . S
C1176 H1165 0.950 . S
C1176 C1174 1.391 . S
C1176 C1177 1.400 . S
C1177 C1171 1.491 . S
C1177 C1176 1.400 . S
C1177 C1178 1.398 . S
C1178 H1166 0.950 1_554 S
C1178 C1177 1.398 . S
C1178 C1179 1.391 . S
C1179 H1167 0.950 1_554 S
C1179 C1175 1.393 . S
C1179 C1178 1.391 . S
H1180 C1188 0.950 . S
H1181 C1193 0.950 . S
H1182 C1190 0.950 . S
H1183 C1192 0.950 . S
H1184 C1194 0.950 . S
H1185 C1196 0.950 . S
H1186 C1198 0.950 . S
H1187 C1199 0.950 . S
C1188 H1180 0.950 . S
C1188 C1189 1.386 . S
C1188 C1190 1.391 . S
C1189 C1188 1.386 . S
C1189 C1193 1.393 1_554 S
C1190 H1182 0.950 . S
C1190 C1188 1.391 . S
C1190 C1191 1.400 . S
C1191 C1190 1.400 . S
C1191 C1192 1.398 1_554 S
C1191 C1197 1.491 . S
C1192 H1183 0.950 . S
C1192 C1191 1.398 1_556 S
C1192 C1193 1.391 . S
C1193 H1181 0.950 . S
C1193 C1189 1.393 1_556 S
C1193 C1192 1.391 . S
C1194 H1184 0.950 . S
C1194 C1195 1.386 1_556 S
C1194 C1196 1.391 . S
C1195 C1194 1.386 1_554 S
C1195 C1199 1.393 . S
C1196 H1185 0.950 . S
C1196 C1194 1.391 . S
C1196 C1197 1.400 1_556 S
C1197 C1191 1.491 . S
C1197 C1196 1.400 1_554 S
C1197 C1198 1.398 . S
C1198 H1186 0.950 . S
C1198 C1197 1.398 . S
C1198 C1199 1.391 . S
C1199 H1187 0.950 . S
C1199 C1195 1.393 . S
C1199 C1198 1.391 . S
H1200 C1208 0.950 . S
H1201 C1213 0.950 . S
H1202 C1210 0.950 . S
H1203 C1212 0.950 . S
H1204 C1214 0.950 . S
H1205 C1216 0.950 . S
H1206 C1218 0.950 . S
H1207 C1219 0.950 . S
C1208 H1200 0.950 . S
C1208 C1209 1.386 . S
C1208 C1210 1.391 . S
C1209 C1208 1.386 . S
C1209 C1213 1.393 . S
C1210 H1202 0.950 . S
C1210 C1208 1.391 . S
C1210 C1211 1.400 . S
C1211 C1210 1.400 . S
C1211 C1212 1.398 . S
C1211 C1217 1.491 1_556 S
C1212 H1203 0.950 . S
C1212 C1211 1.398 . S
C1212 C1213 1.391 . S
C1213 H1201 0.950 . S
C1213 C1209 1.393 . S
C1213 C1212 1.391 . S
C1214 H1204 0.950 . S
C1214 C1215 1.386 . S
C1214 C1216 1.391 . S
C1215 C1214 1.386 . S
C1215 C1219 1.393 . S
C1216 H1205 0.950 . S
C1216 C1214 1.391 . S
C1216 C1217 1.400 . S
C1217 C1211 1.491 1_554 S
C1217 C1216 1.400 . S
C1217 C1218 1.398 . S
C1218 H1206 0.950 . S
C1218 C1217 1.398 . S
C1218 C1219 1.391 . S
C1219 H1207 0.950 . S
C1219 C1215 1.393 . S
C1219 C1218 1.391 . S
H1220 C1228 0.950 . S
H1221 C1233 0.950 . S
H1222 C1230 0.974 . S
H1223 C1232 0.950 . S
H1224 C1234 0.950 . S
H1225 C1236 0.950 . S
H1226 C1238 0.950 . S
H1227 C1239 0.950 . S
C1228 H1220 0.950 . S
C1228 C1229 1.386 . S
C1228 C1230 1.391 . S
C1229 C1228 1.386 . S
C1229 C1233 1.393 . S
C1230 H1222 0.974 . S
C1230 C1228 1.391 . S
C1230 C1231 1.383 1_556 S
C1231 C1230 1.383 1_554 S
C1231 C1232 1.376 1_554 S
C1231 C1237 1.530 . S
C1232 H1223 0.950 . S
C1232 C1231 1.376 1_556 S
C1232 C1233 1.391 . S
C1233 H1221 0.950 . S
C1233 C1229 1.393 . S
C1233 C1232 1.391 . S
C1234 H1224 0.950 . S
C1234 C1235 1.386 . S
C1234 C1236 1.391 . S
C1235 C1234 1.386 . S
C1235 C1239 1.393 . S
C1236 H1225 0.950 . S
C1236 C1234 1.391 . S
C1236 C1237 1.400 . S
C1237 C1231 1.530 . S
C1237 C1236 1.400 . S
C1237 C1238 1.398 . S
C1238 H1226 0.950 . S
C1238 C1237 1.398 . S
C1238 C1239 1.391 . S
C1239 H1227 0.950 . S
C1239 C1235 1.393 . S
C1239 C1238 1.391 . S
H1240 C1248 0.950 . S
H1241 C1253 0.950 . S
H1242 C1250 0.944 1_554 S
H1243 C1252 0.950 1_554 S
H1244 C1254 0.950 . S
H1245 C1256 0.950 . S
H1246 C1258 0.950 . S
H1247 C1259 0.950 . S
C1248 H1240 0.950 . S
C1248 C1249 1.386 . S
C1248 C1250 1.391 . S
C1249 C1248 1.386 . S
C1249 C1253 1.393 . S
C1250 H1242 0.944 1_556 S
C1250 C1248 1.391 . S
C1250 C1251 1.400 1_556 S
C1251 C1250 1.400 1_554 S
C1251 C1252 1.398 1_554 S
C1251 C1257 1.491 . S
C1252 H1243 0.950 1_556 S
C1252 C1251 1.398 1_556 S
C1252 C1253 1.391 . S
C1253 H1241 0.950 . S
C1253 C1249 1.393 . S
C1253 C1252 1.391 . S
C1254 H1244 0.950 . S
C1254 C1255 1.386 . S
C1254 C1256 1.391 . S
C1255 C1254 1.386 . S
C1255 C1259 1.393 . S
C1256 H1245 0.950 . S
C1256 C1254 1.391 . S
C1256 C1257 1.400 . S
C1257 C1251 1.491 . S
C1257 C1256 1.400 . S
C1257 C1258 1.398 . S
C1258 H1246 0.950 . S
C1258 C1257 1.398 . S
C1258 C1259 1.391 . S
C1259 H1247 0.950 . S
C1259 C1255 1.393 . S
C1259 C1258 1.391 . S
H1260 C1268 0.950 . S
H1261 C1273 0.950 . S
H1262 C1270 0.950 . S
H1263 C1272 0.950 . S
H1264 C1274 0.950 . S
H1265 C1276 0.950 . S
H1266 C1278 0.950 . S
H1267 C1279 0.950 . S
C1268 H1260 0.950 . S
C1268 C1269 1.386 . S
C1268 C1270 1.391 . S
C1269 C1268 1.386 . S
C1269 C1273 1.393 . S
C1270 H1262 0.950 . S
C1270 C1268 1.391 . S
C1270 C1271 1.375 1_556 S
C1271 C1270 1.375 1_554 S
C1271 C1272 1.372 1_554 S
C1271 C1277 1.541 . S
C1272 H1263 0.950 . S
C1272 C1271 1.372 1_556 S
C1272 C1273 1.391 . S
C1273 H1261 0.950 . S
C1273 C1269 1.393 . S
C1273 C1272 1.391 . S
C1274 H1264 0.950 . S
C1274 C1275 1.386 . S
C1274 C1276 1.391 . S
C1275 C1274 1.386 . S
C1275 C1279 1.393 . S
C1276 H1265 0.950 . S
C1276 C1274 1.391 . S
C1276 C1277 1.400 . S
C1277 C1271 1.541 . S
C1277 C1276 1.400 . S
C1277 C1278 1.398 . S
C1278 H1266 0.950 . S
C1278 C1277 1.398 . S
C1278 C1279 1.391 . S
C1279 H1267 0.950 . S
C1279 C1275 1.393 . S
C1279 C1278 1.391 . S
H1280 C1288 0.950 . S
H1281 C1293 0.950 . S
H1282 C1290 0.950 . S
H1283 C1292 0.950 . S
H1284 C1294 0.950 . S
H1285 C1296 0.950 . S
H1286 C1298 0.950 . S
H1287 C1299 0.950 . S
C1288 H1280 0.950 . S
C1288 C1289 1.386 . S
C1288 C1290 1.391 . S
C1289 C1288 1.386 . S
C1289 C1293 1.393 . S
C1290 H1282 0.950 . S
C1290 C1288 1.391 . S
C1290 C1291 1.400 . S
C1291 C1290 1.400 . S
C1291 C1292 1.398 . S
C1291 C1297 1.491 1_655 S
C1292 H1283 0.950 . S
C1292 C1291 1.398 . S
C1292 C1293 1.391 . S
C1293 H1281 0.950 . S
C1293 C1289 1.393 . S
C1293 C1292 1.391 . S
C1294 H1284 0.950 . S
C1294 C1295 1.386 . S
C1294 C1296 1.391 . S
C1295 C1294 1.386 . S
C1295 C1299 1.393 . S
C1296 H1285 0.950 . S
C1296 C1294 1.391 . S
C1296 C1297 1.400 . S
C1297 C1291 1.491 1_455 S
C1297 C1296 1.400 . S
C1297 C1298 1.398 . S
C1298 H1286 0.950 . S
C1298 C1297 1.398 . S
C1298 C1299 1.391 . S
C1299 H1287 0.950 . S
C1299 C1295 1.393 . S
C1299 C1298 1.391 . S
H1300 C1308 0.950 . S
H1301 C1313 0.950 . S
H1302 C1310 0.950 . S
H1303 C1312 0.950 . S
H1304 C1314 0.950 . S
H1305 C1316 0.950 . S
H1306 C1318 0.950 . S
H1307 C1319 0.950 . S
C1308 H1300 0.950 . S
C1308 C1309 1.386 . S
C1308 C1310 1.391 . S
C1309 C1308 1.386 . S
C1309 C1313 1.393 . S
C1310 H1302 0.950 . S
C1310 C1308 1.391 . S
C1310 C1311 1.420 . S
C1311 C1310 1.420 . S
C1311 C1312 1.416 . S
C1311 C1317 1.455 1_565 S
C1312 H1303 0.950 . S
C1312 C1311 1.416 . S
C1312 C1313 1.391 . S
C1313 H1301 0.950 . S
C1313 C1309 1.393 . S
C1313 C1312 1.391 . S
C1314 H1304 0.950 . S
C1314 C1315 1.386 . S
C1314 C1316 1.391 . S
C1315 C1314 1.386 . S
C1315 C1319 1.393 . S
C1316 H1305 0.950 . S
C1316 C1314 1.391 . S
C1316 C1317 1.400 . S
C1317 C1311 1.455 1_545 S
C1317 C1316 1.400 . S
C1317 C1318 1.398 . S
C1318 H1306 0.950 . S
C1318 C1317 1.398 . S
C1318 C1319 1.391 . S
C1319 H1307 0.950 . S
C1319 C1315 1.393 . S
C1319 C1318 1.391 . S
H1320 C1328 0.950 . S
H1321 C1333 0.950 . S
H1322 C1330 0.950 . S
H1323 C1332 0.950 . S
H1324 C1334 0.950 . S
H1325 C1336 0.950 . S
H1326 C1338 0.950 . S
H1327 C1339 0.950 . S
C1328 H1320 0.950 . S
C1328 C1329 1.386 . S
C1328 C1330 1.391 . S
C1329 C1328 1.386 . S
C1329 C1333 1.393 . S
C1330 H1322 0.950 . S
C1330 C1328 1.391 . S
C1330 C1331 1.400 . S
C1331 C1330 1.400 . S
C1331 C1332 1.398 . S
C1331 C1337 1.491 1_655 S
C1332 H1323 0.950 . S
C1332 C1331 1.398 . S
C1332 C1333 1.391 . S
C1333 H1321 0.950 . S
C1333 C1329 1.393 . S
C1333 C1332 1.391 . S
C1334 H1324 0.950 . S
C1334 C1335 1.386 . S
C1334 C1336 1.391 . S
C1335 C1334 1.386 . S
C1335 C1339 1.393 . S
C1336 H1325 0.950 . S
C1336 C1334 1.391 . S
C1336 C1337 1.400 . S
C1337 C1331 1.491 1_455 S
C1337 C1336 1.400 . S
C1337 C1338 1.398 . S
C1338 H1326 0.950 . S
C1338 C1337 1.398 . S
C1338 C1339 1.391 . S
C1339 H1327 0.950 . S
C1339 C1335 1.393 . S
C1339 C1338 1.391 . S
H1340 C1348 0.950 . S
H1341 C1353 0.950 . S
H1342 C1350 0.950 . S
H1343 C1352 0.950 . S
H1344 C1354 0.950 . S
H1345 C1356 0.950 . S
H1346 C1358 0.950 . S
H1347 C1359 0.950 . S
C1348 H1340 0.950 . S
C1348 C1349 1.386 . S
C1348 C1350 1.391 . S
C1349 C1348 1.386 . S
C1349 C1353 1.393 . S
C1350 H1342 0.950 . S
C1350 C1348 1.391 . S
C1350 C1351 1.400 . S
C1351 C1350 1.400 . S
C1351 C1352 1.398 . S
C1351 C1357 1.492 . S
C1352 H1343 0.950 . S
C1352 C1351 1.398 . S
C1352 C1353 1.391 . S
C1353 H1341 0.950 . S
C1353 C1349 1.393 . S
C1353 C1352 1.391 . S
C1354 H1344 0.950 . S
C1354 C1355 1.386 . S
C1354 C1356 1.391 . S
C1355 C1354 1.386 . S
C1355 C1359 1.393 . S
C1356 H1345 0.950 . S
C1356 C1354 1.391 . S
C1356 C1357 1.400 1_565 S
C1357 C1351 1.492 . S
C1357 C1356 1.400 1_545 S
C1357 C1358 1.398 1_545 S
C1358 H1346 0.950 . S
C1358 C1357 1.398 1_565 S
C1358 C1359 1.391 . S
C1359 H1347 0.950 . S
C1359 C1355 1.393 . S
C1359 C1358 1.391 . S
H1360 C1368 0.950 . S
H1361 C1373 0.950 . S
H1362 C1370 0.978 . S
H1363 C1372 0.950 1_545 S
H1364 C1374 0.950 . S
H1365 C1376 0.950 . S
H1366 C1378 0.950 . S
H1367 C1379 0.950 . S
C1368 H1360 0.950 . S
C1368 C1369 1.386 . S
C1368 C1370 1.339 1_565 S
C1369 C1368 1.386 . S
C1369 C1373 1.393 . S
C1370 H1362 0.978 . S
C1370 C1368 1.339 1_545 S
C1370 C1371 1.426 . S
C1371 C1370 1.426 . S
C1371 C1372 1.398 1_545 S
C1371 C1377 1.491 . S
C1372 H1363 0.950 1_565 S
C1372 C1371 1.398 1_565 S
C1372 C1373 1.391 . S
C1373 H1361 0.950 . S
C1373 C1369 1.393 . S
C1373 C1372 1.391 . S
C1374 H1364 0.950 . S
C1374 C1375 1.386 . S
C1374 C1376 1.391 . S
C1375 C1374 1.386 . S
C1375 C1379 1.393 . S
C1376 H1365 0.950 . S
C1376 C1374 1.391 . S
C1376 C1377 1.400 . S
C1377 C1371 1.491 . S
C1377 C1376 1.400 . S
C1377 C1378 1.398 . S
C1378 H1366 0.950 . S
C1378 C1377 1.398 . S
C1378 C1379 1.391 . S
C1379 H1367 0.950 . S
C1379 C1375 1.393 . S
C1379 C1378 1.391 . S
H1380 C1388 0.950 . S
H1381 C1393 0.950 . S
H1382 C1390 0.950 . S
H1383 C1392 0.950 . S
H1384 C1394 0.950 . S
H1385 C1396 0.950 . S
H1386 C1398 0.950 . S
H1387 C1399 0.950 . S
C1388 H1380 0.950 . S
C1388 C1389 1.386 . S
C1388 C1390 1.391 . S
C1389 C1388 1.386 . S
C1389 C1393 1.393 . S
C1390 H1382 0.950 . S
C1390 C1388 1.391 . S
C1390 C1391 1.400 . S
C1391 C1390 1.400 . S
C1391 C1392 1.398 . S
C1391 C1397 1.488 . S
C1392 H1383 0.950 . S
C1392 C1391 1.398 . S
C1392 C1393 1.391 . S
C1393 H1381 0.950 . S
C1393 C1389 1.393 . S
C1393 C1392 1.391 . S
C1394 H1384 0.950 . S
C1394 C1395 1.386 . S
C1394 C1396 1.391 . S
C1395 C1394 1.386 . S
C1395 C1399 1.393 . S
C1396 H1385 0.950 . S
C1396 C1394 1.391 . S
C1396 C1397 1.401 1_655 S
C1397 C1391 1.488 . S
C1397 C1396 1.401 1_455 S
C1397 C1398 1.399 1_455 S
C1398 H1386 0.950 . S
C1398 C1397 1.399 1_655 S
C1398 C1399 1.391 . S
C1399 H1387 0.950 . S
C1399 C1395 1.393 . S
C1399 C1398 1.391 . S
H1400 C1408 0.950 . S
H1401 C1413 0.950 . S
H1402 C1410 0.951 . S
H1403 C1412 0.950 1_545 S
H1404 C1414 0.950 . S
H1405 C1416 0.950 . S
H1406 C1418 0.950 . S
H1407 C1419 0.950 . S
C1408 H1400 0.950 . S
C1408 C1409 1.386 . S
C1408 C1410 1.391 . S
C1409 C1408 1.386 . S
C1409 C1413 1.393 . S
C1410 H1402 0.951 . S
C1410 C1408 1.391 . S
C1410 C1411 1.400 1_565 S
C1411 C1410 1.400 1_545 S
C1411 C1412 1.398 1_545 S
C1411 C1417 1.491 . S
C1412 H1403 0.950 1_565 S
C1412 C1411 1.398 1_565 S
C1412 C1413 1.391 . S
C1413 H1401 0.950 . S
C1413 C1409 1.393 . S
C1413 C1412 1.391 . S
C1414 H1404 0.950 . S
C1414 C1415 1.386 . S
C1414 C1416 1.391 . S
C1415 C1414 1.386 . S
C1415 C1419 1.393 . S
C1416 H1405 0.950 . S
C1416 C1414 1.391 . S
C1416 C1417 1.400 . S
C1417 C1411 1.491 . S
C1417 C1416 1.400 . S
C1417 C1418 1.398 . S
C1418 H1406 0.950 . S
C1418 C1417 1.398 . S
C1418 C1419 1.391 . S
C1419 H1407 0.950 . S
C1419 C1415 1.393 . S
C1419 C1418 1.391 . S
H1420 C1428 0.950 . S
H1421 C1433 0.950 . S
H1422 C1430 0.950 . S
H1423 C1432 0.950 . S
H1424 C1434 0.950 . S
H1425 C1436 0.950 . S
H1426 C1438 0.950 . S
H1427 C1439 0.950 . S
C1428 H1420 0.950 . S
C1428 C1429 1.386 . S
C1428 C1430 1.391 . S
C1429 C1428 1.386 . S
C1429 C1433 1.393 . S
C1430 H1422 0.950 . S
C1430 C1428 1.391 . S
C1430 C1431 1.400 . S
C1431 C1430 1.400 . S
C1431 C1432 1.398 . S
C1431 C1437 1.491 1_455 S
C1432 H1423 0.950 . S
C1432 C1431 1.398 . S
C1432 C1433 1.391 . S
C1433 H1421 0.950 . S
C1433 C1429 1.393 . S
C1433 C1432 1.391 . S
C1434 H1424 0.950 . S
C1434 C1435 1.386 . S
C1434 C1436 1.391 . S
C1435 C1434 1.386 . S
C1435 C1439 1.393 . S
C1436 H1425 0.950 . S
C1436 C1434 1.391 . S
C1436 C1437 1.400 . S
C1437 C1431 1.491 1_655 S
C1437 C1436 1.400 . S
C1437 C1438 1.398 . S
C1438 H1426 0.950 . S
C1438 C1437 1.398 . S
C1438 C1439 1.391 . S
C1439 H1427 0.950 . S
C1439 C1435 1.393 . S
C1439 C1438 1.391 . S
H1440 C1448 0.950 . S
H1441 C1453 0.950 . S
H1442 C1450 0.950 . S
H1443 C1452 0.950 . S
H1444 C1454 0.950 . S
H1445 C1456 0.950 . S
H1446 C1458 0.950 . S
H1447 C1459 0.950 . S
C1448 H1440 0.950 . S
C1448 C1449 1.386 1_655 S
C1448 C1450 1.391 . S
C1449 C1448 1.386 1_455 S
C1449 C1453 1.393 . S
C1450 H1442 0.950 . S
C1450 C1448 1.391 . S
C1450 C1451 1.400 1_655 S
C1451 C1450 1.400 1_455 S
C1451 C1452 1.398 . S
C1451 C1457 1.491 . S
C1452 H1443 0.950 . S
C1452 C1451 1.398 . S
C1452 C1453 1.391 . S
C1453 H1441 0.950 . S
C1453 C1449 1.393 . S
C1453 C1452 1.391 . S
C1454 H1444 0.950 . S
C1454 C1455 1.386 . S
C1454 C1456 1.391 . S
C1455 C1454 1.386 . S
C1455 C1459 1.393 1_455 S
C1456 H1445 0.950 . S
C1456 C1454 1.391 . S
C1456 C1457 1.400 . S
C1457 C1451 1.491 . S
C1457 C1456 1.400 . S
C1457 C1458 1.398 1_455 S
C1458 H1446 0.950 . S
C1458 C1457 1.398 1_655 S
C1458 C1459 1.391 . S
C1459 H1447 0.950 . S
C1459 C1455 1.393 1_655 S
C1459 C1458 1.391 . S
H1460 C1468 0.950 1_565 S
H1461 C1473 0.950 . S
H1462 C1470 0.950 1_565 S
H1463 C1472 0.950 . S
H1464 C1474 0.950 . S
H1465 C1476 0.950 . S
H1466 C1478 0.940 1_565 S
H1467 C1479 0.969 . S
C1468 H1460 0.950 1_545 S
C1468 C1469 1.386 . S
C1468 C1470 1.391 . S
C1469 C1468 1.386 . S
C1469 C1473 1.393 . S
C1470 H1462 0.950 1_545 S
C1470 C1468 1.391 . S
C1470 C1471 1.400 . S
C1471 C1470 1.400 . S
C1471 C1472 1.398 . S
C1471 C1477 1.491 . S
C1472 H1463 0.950 . S
C1472 C1471 1.398 . S
C1472 C1473 1.391 . S
C1473 H1461 0.950 . S
C1473 C1469 1.393 . S
C1473 C1472 1.391 . S
C1474 H1464 0.950 . S
C1474 C1475 1.386 . S
C1474 C1476 1.391 . S
C1475 C1474 1.386 . S
C1475 C1479 1.393 . S
C1476 H1465 0.950 . S
C1476 C1474 1.391 . S
C1476 C1477 1.400 . S
C1477 C1471 1.491 . S
C1477 C1476 1.400 . S
C1477 C1478 1.398 . S
C1478 H1466 0.940 1_545 S
C1478 C1477 1.398 . S
C1478 C1479 1.391 . S
C1479 H1467 0.969 . S
C1479 C1475 1.393 . S
C1479 C1478 1.391 . S
H1480 C1488 0.950 1_655 S
H1481 C1493 0.950 . S
H1482 C1490 0.950 1_655 S
H1483 C1492 0.950 . S
H1484 C1494 0.950 . S
H1485 C1496 0.950 . S
H1486 C1498 0.950 1_655 S
H1487 C1499 0.937 1_655 S
C1488 H1480 0.950 1_455 S
C1488 C1489 1.386 . S
C1488 C1490 1.391 . S
C1489 C1488 1.386 . S
C1489 C1493 1.393 . S
C1490 H1482 0.950 1_455 S
C1490 C1488 1.391 . S
C1490 C1491 1.400 . S
C1491 C1490 1.400 . S
C1491 C1492 1.398 . S
C1491 C1497 1.491 . S
C1492 H1483 0.950 . S
C1492 C1491 1.398 . S
C1492 C1493 1.391 . S
C1493 H1481 0.950 . S
C1493 C1489 1.393 . S
C1493 C1492 1.391 . S
C1494 H1484 0.950 . S
C1494 C1495 1.386 . S
C1494 C1496 1.391 . S
C1495 C1494 1.386 . S
C1495 C1499 1.405 . S
C1496 H1485 0.950 . S
C1496 C1494 1.391 . S
C1496 C1497 1.400 . S
C1497 C1491 1.491 . S
C1497 C1496 1.400 . S
C1497 C1498 1.398 . S
C1498 H1486 0.950 1_455 S
C1498 C1497 1.398 . S
C1498 C1499 1.391 . S
C1499 H1487 0.937 1_455 S
C1499 C1495 1.405 . S
C1499 C1498 1.391 . S
H1500 C1508 0.950 . S
H1501 C1513 0.950 . S
H1502 C1510 0.950 . S
H1503 C1512 0.950 . S
H1504 C1514 0.950 . S
H1505 C1516 0.950 . S
H1506 C1518 0.950 . S
H1507 C1519 0.950 . S
C1508 H1500 0.950 . S
C1508 C1509 1.386 1_565 S
C1508 C1510 1.391 . S
C1509 C1508 1.386 1_545 S
C1509 C1513 1.393 . S
C1510 H1502 0.950 . S
C1510 C1508 1.391 . S
C1510 C1511 1.400 1_565 S
C1511 C1510 1.400 1_545 S
C1511 C1512 1.398 . S
C1511 C1517 1.491 . S
C1512 H1503 0.950 . S
C1512 C1511 1.398 . S
C1512 C1513 1.391 . S
C1513 H1501 0.950 . S
C1513 C1509 1.393 . S
C1513 C1512 1.391 . S
C1514 H1504 0.950 . S
C1514 C1515 1.386 . S
C1514 C1516 1.391 . S
C1515 C1514 1.386 . S
C1515 C1519 1.393 1_545 S
C1516 H1505 0.950 . S
C1516 C1514 1.391 . S
C1516 C1517 1.400 . S
C1517 C1511 1.491 . S
C1517 C1516 1.400 . S
C1517 C1518 1.398 1_545 S
C1518 H1506 0.950 . S
C1518 C1517 1.398 1_565 S
C1518 C1519 1.391 . S
C1519 H1507 0.950 . S
C1519 C1515 1.393 1_565 S
C1519 C1518 1.391 . S
H1520 C1528 0.950 . S
H1521 C1533 0.950 . S
H1522 C1530 0.950 . S
H1523 C1532 0.950 . S
H1524 C1534 0.952 . S
H1525 C1536 0.959 . S
H1526 C1538 0.950 . S
H1527 C1539 0.950 . S
C1528 H1520 0.950 . S
C1528 C1529 1.386 . S
C1528 C1530 1.391 . S
C1529 C1528 1.386 . S
C1529 C1533 1.393 1_455 S
C1530 H1522 0.950 . S
C1530 C1528 1.391 . S
C1530 C1531 1.400 . S
C1531 C1530 1.400 . S
C1531 C1532 1.398 1_455 S
C1531 C1537 1.491 . S
C1532 H1523 0.950 . S
C1532 C1531 1.398 1_655 S
C1532 C1533 1.391 . S
C1533 H1521 0.950 . S
C1533 C1529 1.393 1_655 S
C1533 C1532 1.391 . S
C1534 H1524 0.952 . S
C1534 C1535 1.383 1_655 S
C1534 C1536 1.391 . S
C1535 C1534 1.383 1_455 S
C1535 C1539 1.393 . S
C1536 H1525 0.959 . S
C1536 C1534 1.391 . S
C1536 C1537 1.391 1_655 S
C1537 C1531 1.491 . S
C1537 C1536 1.391 1_455 S
C1537 C1538 1.398 . S
C1538 H1526 0.950 . S
C1538 C1537 1.398 . S
C1538 C1539 1.391 . S
C1539 H1527 0.950 . S
C1539 C1535 1.393 . S
C1539 C1538 1.391 . S
H1540 C1548 0.950 . S
H1541 C1553 0.950 . S
H1542 C1550 0.950 . S
H1543 C1552 0.950 . S
H1544 C1554 0.950 . S
H1545 C1556 0.950 . S
H1546 C1558 0.950 . S
H1547 C1559 0.950 . S
C1548 H1540 0.950 . S
C1548 C1549 1.386 . S
C1548 C1550 1.391 . S
C1549 C1548 1.386 . S
C1549 C1553 1.393 . S
C1550 H1542 0.950 . S
C1550 C1548 1.391 . S
C1550 C1551 1.400 . S
C1551 C1550 1.400 . S
C1551 C1552 1.398 . S
C1551 C1557 1.491 . S
C1552 H1543 0.950 . S
C1552 C1551 1.398 . S
C1552 C1553 1.391 . S
C1553 H1541 0.950 . S
C1553 C1549 1.393 . S
C1553 C1552 1.391 . S
C1554 H1544 0.950 . S
C1554 C1555 1.386 . S
C1554 C1556 1.391 . S
C1555 C1554 1.386 . S
C1555 C1559 1.393 . S
C1556 H1545 0.950 . S
C1556 C1554 1.391 . S
C1556 C1557 1.400 . S
C1557 C1551 1.491 . S
C1557 C1556 1.400 . S
C1557 C1558 1.398 . S
C1558 H1546 0.950 . S
C1558 C1557 1.398 . S
C1558 C1559 1.391 . S
C1559 H1547 0.950 . S
C1559 C1555 1.393 . S
C1559 C1558 1.391 . S
H1560 C1568 0.950 . S
H1561 C1573 0.950 . S
H1562 C1570 0.950 . S
H1563 C1572 0.950 . S
H1564 C1574 0.950 . S
H1565 C1576 0.950 . S
H1566 C1578 0.950 . S
H1567 C1579 0.950 . S
C1568 H1560 0.950 . S
C1568 C1569 1.386 . S
C1568 C1570 1.391 . S
C1569 C1568 1.386 . S
C1569 C1573 1.393 . S
C1570 H1562 0.950 . S
C1570 C1568 1.391 . S
C1570 C1571 1.400 . S
C1571 C1570 1.400 . S
C1571 C1572 1.398 . S
C1571 C1577 1.491 . S
C1572 H1563 0.950 . S
C1572 C1571 1.398 . S
C1572 C1573 1.391 . S
C1573 H1561 0.950 . S
C1573 C1569 1.393 . S
C1573 C1572 1.391 . S
C1574 H1564 0.950 . S
C1574 C1575 1.386 . S
C1574 C1576 1.391 . S
C1575 C1574 1.386 . S
C1575 C1579 1.393 . S
C1576 H1565 0.950 . S
C1576 C1574 1.391 . S
C1576 C1577 1.400 . S
C1577 C1571 1.491 . S
C1577 C1576 1.400 . S
C1577 C1578 1.398 . S
C1578 H1566 0.950 . S
C1578 C1577 1.398 . S
C1578 C1579 1.391 . S
C1579 H1567 0.950 . S
C1579 C1575 1.393 . S
C1579 C1578 1.391 . S
H1580 C1588 0.950 . S
H1581 C1593 0.932 1_565 S
H1582 C1590 0.950 . S
H1583 C1592 0.950 1_565 S
H1584 C1594 0.950 . S
H1585 C1596 0.950 . S
H1586 C1598 0.950 . S
H1587 C1599 0.950 . S
C1588 H1580 0.950 . S
C1588 C1589 1.386 . S
C1588 C1590 1.391 . S
C1589 C1588 1.386 . S
C1589 C1593 1.393 . S
C1590 H1582 0.950 . S
C1590 C1588 1.391 . S
C1590 C1591 1.400 . S
C1591 C1590 1.400 . S
C1591 C1592 1.398 . S
C1591 C1597 1.491 . S
C1592 H1583 0.950 1_545 S
C1592 C1591 1.398 . S
C1592 C1593 1.391 . S
C1593 H1581 0.932 1_545 S
C1593 C1589 1.393 . S
C1593 C1592 1.391 . S
C1594 H1584 0.950 . S
C1594 C1595 1.386 1_565 S
C1594 C1596 1.391 . S
C1595 C1594 1.386 1_545 S
C1595 C1599 1.393 . S
C1596 H1585 0.950 . S
C1596 C1594 1.391 . S
C1596 C1597 1.400 1_565 S
C1597 C1591 1.491 . S
C1597 C1596 1.400 1_545 S
C1597 C1598 1.398 . S
C1598 H1586 0.950 . S
C1598 C1597 1.398 . S
C1598 C1599 1.391 . S
C1599 H1587 0.950 . S
C1599 C1595 1.393 . S
C1599 C1598 1.391 . S
H1600 C1608 0.950 . S
H1601 C1613 0.950 . S
H1602 C1610 0.950 . S
H1603 C1612 0.950 . S
H1604 C1614 0.950 . S
H1605 C1616 0.950 . S
H1606 C1618 0.950 . S
H1607 C1619 0.950 . S
C1608 H1600 0.950 . S
C1608 C1609 1.386 . S
C1608 C1610 1.391 . S
C1609 C1608 1.386 . S
C1609 C1613 1.393 . S
C1610 H1602 0.950 . S
C1610 C1608 1.391 . S
C1610 C1611 1.400 . S
C1611 C1610 1.400 . S
C1611 C1612 1.398 . S
C1611 C1617 1.491 . S
C1612 H1603 0.950 . S
C1612 C1611 1.398 . S
C1612 C1613 1.391 . S
C1613 H1601 0.950 . S
C1613 C1609 1.393 . S
C1613 C1612 1.391 . S
C1614 H1604 0.950 . S
C1614 C1615 1.386 . S
C1614 C1616 1.391 . S
C1615 C1614 1.386 . S
C1615 C1619 1.393 . S
C1616 H1605 0.950 . S
C1616 C1614 1.391 . S
C1616 C1617 1.400 . S
C1617 C1611 1.491 . S
C1617 C1616 1.400 . S
C1617 C1618 1.398 . S
C1618 H1606 0.950 . S
C1618 C1617 1.398 . S
C1618 C1619 1.391 . S
C1619 H1607 0.950 . S
C1619 C1615 1.393 . S
C1619 C1618 1.391 . S
H1620 C1628 0.950 . S
H1621 C1633 0.950 . S
H1622 C1630 0.950 . S
H1623 C1632 0.950 . S
H1624 C1634 0.950 . S
H1625 C1636 0.950 . S
H1626 C1638 0.950 . S
H1627 C1639 0.958 . S
C1628 H1620 0.950 . S
C1628 C1629 1.386 1_556 S
C1628 C1630 1.391 . S
C1629 C1628 1.386 1_554 S
C1629 C1633 1.393 . S
C1630 H1622 0.950 . S
C1630 C1628 1.391 . S
C1630 C1631 1.400 1_556 S
C1631 C1630 1.400 1_554 S
C1631 C1632 1.398 . S
C1631 C1637 1.491 . S
C1632 H1623 0.950 . S
C1632 C1631 1.398 . S
C1632 C1633 1.391 . S
C1633 H1621 0.950 . S
C1633 C1629 1.393 . S
C1633 C1632 1.391 . S
C1634 H1624 0.950 . S
C1634 C1635 1.386 . S
C1634 C1636 1.391 . S
C1635 C1634 1.386 . S
C1635 C1639 1.384 1_554 S
C1636 H1625 0.950 . S
C1636 C1634 1.391 . S
C1636 C1637 1.400 . S
C1637 C1631 1.491 . S
C1637 C1636 1.400 . S
C1637 C1638 1.398 1_554 S
C1638 H1626 0.950 . S
C1638 C1637 1.398 1_556 S
C1638 C1639 1.391 . S
C1639 H1627 0.958 . S
C1639 C1635 1.384 1_556 S
C1639 C1638 1.391 . S
H1640 C1648 0.950 . S
H1641 C1653 0.950 . S
H1642 C1650 0.950 . S
H1643 C1652 0.950 . S
H1644 C1654 0.950 . S
H1645 C1656 0.950 . S
H1646 C1658 0.950 . S
H1647 C1659 0.950 . S
C1648 H1640 0.950 . S
C1648 C1649 1.386 . S
C1648 C1650 1.391 . S
C1649 C1648 1.386 . S
C1649 C1653 1.393 . S
C1650 H1642 0.950 . S
C1650 C1648 1.391 . S
C1650 C1651 1.400 . S
C1651 C1650 1.400 . S
C1651 C1652 1.398 . S
C1651 C1657 1.491 . S
C1652 H1643 0.950 . S
C1652 C1651 1.398 . S
C1652 C1653 1.391 . S
C1653 H1641 0.950 . S
C1653 C1649 1.393 . S
C1653 C1652 1.391 . S
C1654 H1644 0.950 . S
C1654 C1655 1.386 . S
C1654 C1656 1.391 . S
C1655 C1654 1.386 . S
C1655 C1659 1.393 . S
C1656 H1645 0.950 . S
C1656 C1654 1.391 . S
C1656 C1657 1.400 . S
C1657 C1651 1.491 . S
C1657 C1656 1.400 . S
C1657 C1658 1.398 . S
C1658 H1646 0.950 . S
C1658 C1657 1.398 . S
C1658 C1659 1.391 . S
C1659 H1647 0.950 . S
C1659 C1655 1.393 . S
C1659 C1658 1.391 . S
H1660 C1668 0.950 . S
H1661 C1673 0.950 . S
H1662 C1670 0.950 . S
H1663 C1672 0.965 . S
H1664 C1674 0.958 . S
H1665 C1676 0.950 1_556 S
H1666 C1678 0.950 . S
H1667 C1679 0.950 . S
C1668 H1660 0.950 . S
C1668 C1669 1.386 . S
C1668 C1670 1.391 . S
C1669 C1668 1.386 . S
C1669 C1673 1.393 1_554 S
C1670 H1662 0.950 . S
C1670 C1668 1.391 . S
C1670 C1671 1.400 . S
C1671 C1670 1.400 . S
C1671 C1672 1.383 1_554 S
C1671 C1677 1.491 . S
C1672 H1663 0.965 . S
C1672 C1671 1.383 1_556 S
C1672 C1673 1.394 . S
C1673 H1661 0.950 . S
C1673 C1669 1.393 1_556 S
C1673 C1672 1.394 . S
C1674 H1664 0.958 . S
C1674 C1675 1.386 . S
C1674 C1676 1.391 . S
C1675 C1674 1.386 . S
C1675 C1679 1.393 . S
C1676 H1665 0.950 1_554 S
C1676 C1674 1.391 . S
C1676 C1677 1.400 . S
C1677 C1671 1.491 . S
C1677 C1676 1.400 . S
C1677 C1678 1.398 . S
C1678 H1666 0.950 . S
C1678 C1677 1.398 . S
C1678 C1679 1.391 . S
C1679 H1667 0.950 . S
C1679 C1675 1.393 . S
C1679 C1678 1.391 . S
H1680 C1688 0.950 . S
H1681 C1693 0.950 . S
H1682 C1690 0.950 . S
H1683 C1692 0.950 . S
H1684 C1694 0.950 . S
H1685 C1696 0.950 . S
H1686 C1698 0.950 . S
H1687 C1699 0.950 . S
C1688 H1680 0.950 . S
C1688 C1689 1.386 . S
C1688 C1690 1.391 . S
C1689 C1688 1.386 . S
C1689 C1693 1.393 . S
C1690 H1682 0.950 . S
C1690 C1688 1.391 . S
C1690 C1691 1.400 . S
C1691 C1690 1.400 . S
C1691 C1692 1.398 . S
C1691 C1697 1.491 . S
C1692 H1683 0.950 . S
C1692 C1691 1.398 . S
C1692 C1693 1.391 . S
C1693 H1681 0.950 . S
C1693 C1689 1.393 . S
C1693 C1692 1.391 . S
C1694 H1684 0.950 . S
C1694 C1695 1.386 . S
C1694 C1696 1.391 . S
C1695 C1694 1.386 . S
C1695 C1699 1.393 . S
C1696 H1685 0.950 . S
C1696 C1694 1.391 . S
C1696 C1697 1.400 . S
C1697 C1691 1.491 . S
C1697 C1696 1.400 . S
C1697 C1698 1.398 . S
C1698 H1686 0.950 . S
C1698 C1697 1.398 . S
C1698 C1699 1.391 . S
C1699 H1687 0.950 . S
C1699 C1695 1.393 . S
C1699 C1698 1.391 . S
H1700 C1708 0.950 . S
H1701 C1713 0.950 . S
H1702 C1710 0.950 . S
H1703 C1712 0.950 . S
H1704 C1714 0.950 . S
H1705 C1716 0.950 . S
H1706 C1718 0.950 . S
H1707 C1719 0.950 . S
C1708 H1700 0.950 . S
C1708 C1709 1.386 . S
C1708 C1710 1.391 . S
C1709 C1708 1.386 . S
C1709 C1713 1.393 . S
C1710 H1702 0.950 . S
C1710 C1708 1.391 . S
C1710 C1711 1.400 . S
C1711 C1710 1.400 . S
C1711 C1712 1.398 . S
C1711 C1717 1.491 . S
C1712 H1703 0.950 . S
C1712 C1711 1.398 . S
C1712 C1713 1.391 . S
C1713 H1701 0.950 . S
C1713 C1709 1.393 . S
C1713 C1712 1.391 . S
C1714 H1704 0.950 . S
C1714 C1715 1.386 . S
C1714 C1716 1.391 . S
C1715 C1714 1.386 . S
C1715 C1719 1.393 . S
C1716 H1705 0.950 . S
C1716 C1714 1.391 . S
C1716 C1717 1.400 . S
C1717 C1711 1.491 . S
C1717 C1716 1.400 . S
C1717 C1718 1.398 . S
C1718 H1706 0.950 . S
C1718 C1717 1.398 . S
C1718 C1719 1.391 . S
C1719 H1707 0.950 . S
C1719 C1715 1.393 . S
C1719 C1718 1.391 . S
H1720 C1728 0.950 . S
H1721 C1733 0.950 . S
H1722 C1730 0.950 . S
H1723 C1732 0.950 . S
H1724 C1734 0.950 . S
H1725 C1736 0.950 . S
H1726 C1738 0.950 . S
H1727 C1739 0.950 . S
C1728 H1720 0.950 . S
C1728 C1729 1.386 . S
C1728 C1730 1.391 . S
C1729 C1728 1.386 . S
C1729 C1733 1.393 . S
C1730 H1722 0.950 . S
C1730 C1728 1.391 . S
C1730 C1731 1.400 . S
C1731 C1730 1.400 . S
C1731 C1732 1.398 . S
C1731 C1737 1.491 . S
C1732 H1723 0.950 . S
C1732 C1731 1.398 . S
C1732 C1733 1.391 . S
C1733 H1721 0.950 . S
C1733 C1729 1.393 . S
C1733 C1732 1.391 . S
C1734 H1724 0.950 . S
C1734 C1735 1.386 . S
C1734 C1736 1.391 . S
C1735 C1734 1.386 . S
C1735 C1739 1.393 . S
C1736 H1725 0.950 . S
C1736 C1734 1.391 . S
C1736 C1737 1.400 . S
C1737 C1731 1.491 . S
C1737 C1736 1.400 . S
C1737 C1738 1.398 . S
C1738 H1726 0.950 . S
C1738 C1737 1.398 . S
C1738 C1739 1.391 . S
C1739 H1727 0.950 . S
C1739 C1735 1.393 . S
C1739 C1738 1.391 . S
H1740 C1748 0.950 . S
H1741 C1753 0.950 . S
H1742 C1750 0.950 . S
H1743 C1752 0.950 . S
H1744 C1754 0.950 . S
H1745 C1756 0.950 . S
H1746 C1758 0.950 . S
H1747 C1759 0.950 . S
C1748 H1740 0.950 . S
C1748 C1749 1.386 . S
C1748 C1750 1.391 . S
C1749 C1748 1.386 . S
C1749 C1753 1.393 . S
C1750 H1742 0.950 . S
C1750 C1748 1.391 . S
C1750 C1751 1.400 . S
C1751 C1750 1.400 . S
C1751 C1752 1.398 . S
C1751 C1757 1.491 . S
C1752 H1743 0.950 . S
C1752 C1751 1.398 . S
C1752 C1753 1.391 . S
C1753 H1741 0.950 . S
C1753 C1749 1.393 . S
C1753 C1752 1.391 . S
C1754 H1744 0.950 . S
C1754 C1755 1.386 . S
C1754 C1756 1.391 . S
C1755 C1754 1.386 . S
C1755 C1759 1.393 . S
C1756 H1745 0.950 . S
C1756 C1754 1.391 . S
C1756 C1757 1.400 . S
C1757 C1751 1.491 . S
C1757 C1756 1.400 . S
C1757 C1758 1.398 . S
C1758 H1746 0.950 . S
C1758 C1757 1.398 . S
C1758 C1759 1.391 . S
C1759 H1747 0.950 . S
C1759 C1755 1.393 . S
C1759 C1758 1.391 . S
H1760 C1768 0.950 . S
H1761 C1773 0.950 . S
H1762 C1770 0.950 . S
H1763 C1772 0.950 . S
H1764 C1774 0.950 . S
H1765 C1776 0.950 . S
H1766 C1778 0.950 . S
H1767 C1779 0.950 . S
C1768 H1760 0.950 . S
C1768 C1769 1.386 . S
C1768 C1770 1.391 . S
C1769 C1768 1.386 . S
C1769 C1773 1.393 . S
C1770 H1762 0.950 . S
C1770 C1768 1.391 . S
C1770 C1771 1.400 . S
C1771 C1770 1.400 . S
C1771 C1772 1.398 . S
C1771 C1777 1.491 . S
C1772 H1763 0.950 . S
C1772 C1771 1.398 . S
C1772 C1773 1.391 . S
C1773 H1761 0.950 . S
C1773 C1769 1.393 . S
C1773 C1772 1.391 . S
C1774 H1764 0.950 . S
C1774 C1775 1.386 . S
C1774 C1776 1.391 . S
C1775 C1774 1.386 . S
C1775 C1779 1.393 . S
C1776 H1765 0.950 . S
C1776 C1774 1.391 . S
C1776 C1777 1.400 . S
C1777 C1771 1.491 . S
C1777 C1776 1.400 . S
C1777 C1778 1.398 . S
C1778 H1766 0.950 . S
C1778 C1777 1.398 . S
C1778 C1779 1.391 . S
C1779 H1767 0.950 . S
C1779 C1775 1.393 . S
C1779 C1778 1.391 . S
H1780 C1788 0.950 . S
H1781 C1793 0.950 . S
H1782 C1790 0.950 . S
H1783 C1792 0.950 . S
H1784 C1794 0.950 . S
H1785 C1796 0.950 . S
H1786 C1798 0.950 . S
H1787 C1799 0.950 . S
C1788 H1780 0.950 . S
C1788 C1789 1.386 . S
C1788 C1790 1.391 . S
C1789 C1788 1.386 . S
C1789 C1793 1.393 . S
C1790 H1782 0.950 . S
C1790 C1788 1.391 . S
C1790 C1791 1.400 . S
C1791 C1790 1.400 . S
C1791 C1792 1.398 . S
C1791 C1797 1.491 . S
C1792 H1783 0.950 . S
C1792 C1791 1.398 . S
C1792 C1793 1.391 . S
C1793 H1781 0.950 . S
C1793 C1789 1.393 . S
C1793 C1792 1.391 . S
C1794 H1784 0.950 . S
C1794 C1795 1.386 . S
C1794 C1796 1.391 . S
C1795 C1794 1.386 . S
C1795 C1799 1.393 . S
C1796 H1785 0.950 . S
C1796 C1794 1.391 . S
C1796 C1797 1.400 . S
C1797 C1791 1.491 . S
C1797 C1796 1.400 . S
C1797 C1798 1.398 . S
C1798 H1786 0.950 . S
C1798 C1797 1.398 . S
C1798 C1799 1.391 . S
C1799 H1787 0.950 . S
C1799 C1795 1.393 . S
C1799 C1798 1.391 . S
H1800 C1808 0.950 . S
H1801 C1813 0.950 . S
H1802 C1810 0.950 . S
H1803 C1812 0.950 . S
H1804 C1814 0.950 . S
H1805 C1816 0.950 . S
H1806 C1818 0.950 . S
H1807 C1819 0.950 . S
C1808 H1800 0.950 . S
C1808 C1809 1.386 . S
C1808 C1810 1.391 . S
C1809 C1808 1.386 . S
C1809 C1813 1.393 . S
C1810 H1802 0.950 . S
C1810 C1808 1.391 . S
C1810 C1811 1.400 . S
C1811 C1810 1.400 . S
C1811 C1812 1.398 . S
C1811 C1817 1.491 . S
C1812 H1803 0.950 . S
C1812 C1811 1.398 . S
C1812 C1813 1.391 . S
C1813 H1801 0.950 . S
C1813 C1809 1.393 . S
C1813 C1812 1.391 . S
C1814 H1804 0.950 . S
C1814 C1815 1.386 . S
C1814 C1816 1.391 . S
C1815 C1814 1.386 . S
C1815 C1819 1.393 . S
C1816 H1805 0.950 . S
C1816 C1814 1.391 . S
C1816 C1817 1.400 . S
C1817 C1811 1.491 . S
C1817 C1816 1.400 . S
C1817 C1818 1.398 . S
C1818 H1806 0.950 . S
C1818 C1817 1.398 . S
C1818 C1819 1.391 . S
C1819 H1807 0.950 . S
C1819 C1815 1.393 . S
C1819 C1818 1.391 . S
H1820 C1828 0.950 . S
H1821 C1833 0.950 . S
H1822 C1830 0.950 . S
H1823 C1832 0.950 . S
H1824 C1834 0.950 . S
H1825 C1836 0.950 . S
H1826 C1838 0.950 . S
H1827 C1839 0.950 . S
C1828 H1820 0.950 . S
C1828 C1829 1.386 . S
C1828 C1830 1.391 . S
C1829 C1828 1.386 . S
C1829 C1833 1.393 . S
C1830 H1822 0.950 . S
C1830 C1828 1.391 . S
C1830 C1831 1.400 . S
C1831 C1830 1.400 . S
C1831 C1832 1.398 . S
C1831 C1837 1.491 . S
C1832 H1823 0.950 . S
C1832 C1831 1.398 . S
C1832 C1833 1.391 . S
C1833 H1821 0.950 . S
C1833 C1829 1.393 . S
C1833 C1832 1.391 . S
C1834 H1824 0.950 . S
C1834 C1835 1.386 . S
C1834 C1836 1.391 . S
C1835 C1834 1.386 . S
C1835 C1839 1.393 . S
C1836 H1825 0.950 . S
C1836 C1834 1.391 . S
C1836 C1837 1.400 . S
C1837 C1831 1.491 . S
C1837 C1836 1.400 . S
C1837 C1838 1.398 . S
C1838 H1826 0.950 . S
C1838 C1837 1.398 . S
C1838 C1839 1.391 . S
C1839 H1827 0.950 . S
C1839 C1835 1.393 . S
C1839 C1838 1.391 . S
H1840 C1848 0.950 . S
H1841 C1853 0.950 . S
H1842 C1850 0.950 . S
H1843 C1852 0.950 . S
H1844 C1854 0.950 . S
H1845 C1856 0.950 . S
H1846 C1858 0.950 . S
H1847 C1859 0.950 . S
C1848 H1840 0.950 . S
C1848 C1849 1.386 . S
C1848 C1850 1.391 . S
C1849 C1848 1.386 . S
C1849 C1853 1.393 . S
C1850 H1842 0.950 . S
C1850 C1848 1.391 . S
C1850 C1851 1.400 . S
C1851 C1850 1.400 . S
C1851 C1852 1.398 . S
C1851 C1857 1.491 . S
C1852 H1843 0.950 . S
C1852 C1851 1.398 . S
C1852 C1853 1.391 . S
C1853 H1841 0.950 . S
C1853 C1849 1.393 . S
C1853 C1852 1.391 . S
C1854 H1844 0.950 . S
C1854 C1855 1.386 . S
C1854 C1856 1.391 . S
C1855 C1854 1.386 . S
C1855 C1859 1.393 . S
C1856 H1845 0.950 . S
C1856 C1854 1.391 . S
C1856 C1857 1.400 . S
C1857 C1851 1.491 . S
C1857 C1856 1.400 . S
C1857 C1858 1.398 . S
C1858 H1846 0.950 . S
C1858 C1857 1.398 . S
C1858 C1859 1.391 . S
C1859 H1847 0.950 . S
C1859 C1855 1.393 . S
C1859 C1858 1.391 . S
H1860 C1868 0.950 . S
H1861 C1873 0.950 . S
H1862 C1870 0.950 . S
H1863 C1872 0.950 . S
H1864 C1874 0.950 . S
H1865 C1876 0.950 . S
H1866 C1878 0.950 . S
H1867 C1879 0.950 . S
C1868 H1860 0.950 . S
C1868 C1869 1.386 . S
C1868 C1870 1.391 . S
C1869 C1868 1.386 . S
C1869 C1873 1.393 . S
C1870 H1862 0.950 . S
C1870 C1868 1.391 . S
C1870 C1871 1.400 . S
C1871 C1870 1.400 . S
C1871 C1872 1.398 . S
C1871 C1877 1.491 . S
C1872 H1863 0.950 . S
C1872 C1871 1.398 . S
C1872 C1873 1.391 . S
C1873 H1861 0.950 . S
C1873 C1869 1.393 . S
C1873 C1872 1.391 . S
C1874 H1864 0.950 . S
C1874 C1875 1.386 . S
C1874 C1876 1.391 . S
C1875 C1874 1.386 . S
C1875 C1879 1.393 . S
C1876 H1865 0.950 . S
C1876 C1874 1.391 . S
C1876 C1877 1.400 . S
C1877 C1871 1.491 . S
C1877 C1876 1.400 . S
C1877 C1878 1.398 . S
C1878 H1866 0.950 . S
C1878 C1877 1.398 . S
C1878 C1879 1.391 . S
C1879 H1867 0.950 . S
C1879 C1875 1.393 . S
C1879 C1878 1.391 . S
H1880 C1888 0.950 . S
H1881 C1893 0.950 . S
H1882 C1890 0.950 . S
H1883 C1892 0.950 . S
H1884 C1894 0.950 . S
H1885 C1896 0.950 . S
H1886 C1898 0.950 . S
H1887 C1899 0.950 . S
C1888 H1880 0.950 . S
C1888 C1889 1.386 . S
C1888 C1890 1.391 . S
C1889 C1888 1.386 . S
C1889 C1893 1.393 . S
C1890 H1882 0.950 . S
C1890 C1888 1.391 . S
C1890 C1891 1.400 . S
C1891 C1890 1.400 . S
C1891 C1892 1.398 . S
C1891 C1897 1.491 . S
C1892 H1883 0.950 . S
C1892 C1891 1.398 . S
C1892 C1893 1.391 . S
C1893 H1881 0.950 . S
C1893 C1889 1.393 . S
C1893 C1892 1.391 . S
C1894 H1884 0.950 . S
C1894 C1895 1.386 . S
C1894 C1896 1.391 . S
C1895 C1894 1.386 . S
C1895 C1899 1.393 . S
C1896 H1885 0.950 . S
C1896 C1894 1.391 . S
C1896 C1897 1.400 . S
C1897 C1891 1.491 . S
C1897 C1896 1.400 . S
C1897 C1898 1.398 . S
C1898 H1886 0.950 . S
C1898 C1897 1.398 . S
C1898 C1899 1.391 . S
C1899 H1887 0.950 . S
C1899 C1895 1.393 . S
C1899 C1898 1.391 . S
H1900 C1908 0.950 . S
H1901 C1913 0.950 . S
H1902 C1910 0.950 . S
H1903 C1912 0.950 . S
H1904 C1914 0.950 . S
H1905 C1916 0.950 . S
H1906 C1918 0.950 . S
H1907 C1919 0.950 . S
C1908 H1900 0.950 . S
C1908 C1909 1.386 . S
C1908 C1910 1.391 . S
C1909 C1908 1.386 . S
C1909 C1913 1.393 . S
C1910 H1902 0.950 . S
C1910 C1908 1.391 . S
C1910 C1911 1.400 . S
C1911 C1910 1.400 . S
C1911 C1912 1.398 . S
C1911 C1917 1.491 . S
C1912 H1903 0.950 . S
C1912 C1911 1.398 . S
C1912 C1913 1.391 . S
C1913 H1901 0.950 . S
C1913 C1909 1.393 . S
C1913 C1912 1.391 . S
C1914 H1904 0.950 . S
C1914 C1915 1.386 . S
C1914 C1916 1.391 . S
C1915 C1914 1.386 . S
C1915 C1919 1.393 . S
C1916 H1905 0.950 . S
C1916 C1914 1.391 . S
C1916 C1917 1.400 . S
C1917 C1911 1.491 . S
C1917 C1916 1.400 . S
C1917 C1918 1.398 . S
C1918 H1906 0.950 . S
C1918 C1917 1.398 . S
C1918 C1919 1.391 . S
C1919 H1907 0.950 . S
C1919 C1915 1.393 . S
C1919 C1918 1.391 . S
H1920 C1928 0.950 . S
H1921 C1933 0.950 . S
H1922 C1930 0.950 . S
H1923 C1932 0.950 . S
H1924 C1934 0.950 . S
H1925 C1936 0.950 . S
H1926 C1938 0.950 . S
H1927 C1939 0.950 . S
C1928 H1920 0.950 . S
C1928 C1929 1.386 . S
C1928 C1930 1.391 . S
C1929 C1928 1.386 . S
C1929 C1933 1.393 . S
C1930 H1922 0.950 . S
C1930 C1928 1.391 . S
C1930 C1931 1.400 . S
C1931 C1930 1.400 . S
C1931 C1932 1.398 . S
C1931 C1937 1.491 . S
C1932 H1923 0.950 . S
C1932 C1931 1.398 . S
C1932 C1933 1.391 . S
C1933 H1921 0.950 . S
C1933 C1929 1.393 . S
C1933 C1932 1.391 . S
C1934 H1924 0.950 . S
C1934 C1935 1.386 . S
C1934 C1936 1.391 . S
C1935 C1934 1.386 . S
C1935 C1939 1.393 . S
C1936 H1925 0.950 . S
C1936 C1934 1.391 . S
C1936 C1937 1.400 . S
C1937 C1931 1.491 . S
C1937 C1936 1.400 . S
C1937 C1938 1.398 . S
C1938 H1926 0.950 . S
C1938 C1937 1.398 . S
C1938 C1939 1.391 . S
C1939 H1927 0.950 . S
C1939 C1935 1.393 . S
C1939 C1938 1.391 . S
H1940 C1948 0.950 . S
H1941 C1953 0.950 . S
H1942 C1950 0.950 . S
H1943 C1952 0.950 . S
H1944 C1954 0.950 . S
H1945 C1956 0.950 . S
H1946 C1958 0.950 . S
H1947 C1959 0.950 . S
C1948 H1940 0.950 . S
C1948 C1949 1.386 . S
C1948 C1950 1.391 . S
C1949 C1948 1.386 . S
C1949 C1953 1.393 . S
C1950 H1942 0.950 . S
C1950 C1948 1.391 . S
C1950 C1951 1.400 . S
C1951 C1950 1.400 . S
C1951 C1952 1.398 . S
C1951 C1957 1.491 . S
C1952 H1943 0.950 . S
C1952 C1951 1.398 . S
C1952 C1953 1.391 . S
C1953 H1941 0.950 . S
C1953 C1949 1.393 . S
C1953 C1952 1.391 . S
C1954 H1944 0.950 . S
C1954 C1955 1.386 . S
C1954 C1956 1.391 . S
C1955 C1954 1.386 . S
C1955 C1959 1.393 . S
C1956 H1945 0.950 . S
C1956 C1954 1.391 . S
C1956 C1957 1.400 . S
C1957 C1951 1.491 . S
C1957 C1956 1.400 . S
C1957 C1958 1.398 . S
C1958 H1946 0.950 . S
C1958 C1957 1.398 . S
C1958 C1959 1.391 . S
C1959 H1947 0.950 . S
C1959 C1955 1.393 . S
C1959 C1958 1.391 . S
H1960 C1968 0.950 . S
H1961 C1973 0.950 . S
H1962 C1970 0.950 . S
H1963 C1972 0.950 . S
H1964 C1974 0.950 . S
H1965 C1976 0.950 . S
H1966 C1978 0.950 . S
H1967 C1979 0.950 . S
C1968 H1960 0.950 . S
C1968 C1969 1.386 . S
C1968 C1970 1.391 . S
C1969 C1968 1.386 . S
C1969 C1973 1.393 . S
C1970 H1962 0.950 . S
C1970 C1968 1.391 . S
C1970 C1971 1.400 . S
C1971 C1970 1.400 . S
C1971 C1972 1.398 . S
C1971 C1977 1.491 . S
C1972 H1963 0.950 . S
C1972 C1971 1.398 . S
C1972 C1973 1.391 . S
C1973 H1961 0.950 . S
C1973 C1969 1.393 . S
C1973 C1972 1.391 . S
C1974 H1964 0.950 . S
C1974 C1975 1.386 . S
C1974 C1976 1.391 . S
C1975 C1974 1.386 . S
C1975 C1979 1.393 . S
C1976 H1965 0.950 . S
C1976 C1974 1.391 . S
C1976 C1977 1.400 . S
C1977 C1971 1.491 . S
C1977 C1976 1.400 . S
C1977 C1978 1.398 . S
C1978 H1966 0.950 . S
C1978 C1977 1.398 . S
C1978 C1979 1.391 . S
C1979 H1967 0.950 . S
C1979 C1975 1.393 . S
C1979 C1978 1.391 . S
H1980 C1988 0.950 1_545 S
H1981 C1993 0.950 . S
H1982 C1990 0.950 . S
H1983 C1992 0.950 . S
H1984 C1994 0.950 . S
H1985 C1996 0.950 . S
H1986 C1998 0.950 . S
H1987 C1999 0.950 . S
C1988 H1980 0.950 1_565 S
C1988 C1989 1.386 . S
C1988 C1990 1.391 . S
C1989 C1988 1.386 . S
C1989 C1993 1.393 . S
C1990 H1982 0.950 . S
C1990 C1988 1.391 . S
C1990 C1991 1.400 . S
C1991 C1990 1.400 . S
C1991 C1992 1.398 . S
C1991 C1997 1.491 . S
C1992 H1983 0.950 . S
C1992 C1991 1.398 . S
C1992 C1993 1.391 . S
C1993 H1981 0.950 . S
C1993 C1989 1.393 . S
C1993 C1992 1.391 . S
C1994 H1984 0.950 . S
C1994 C1995 1.386 . S
C1994 C1996 1.391 . S
C1995 C1994 1.386 . S
C1995 C1999 1.393 . S
C1996 H1985 0.950 . S
C1996 C1994 1.391 . S
C1996 C1997 1.400 . S
C1997 C1991 1.491 . S
C1997 C1996 1.400 . S
C1997 C1998 1.398 . S
C1998 H1986 0.950 . S
C1998 C1997 1.398 . S
C1998 C1999 1.391 . S
C1999 H1987 0.950 . S
C1999 C1995 1.393 . S
C1999 C1998 1.391 . S
H2000 C2008 0.950 . S
H2001 C2013 0.950 . S
H2002 C2010 0.950 . S
H2003 C2012 0.950 . S
H2004 C2014 0.950 . S
H2005 C2016 0.950 . S
H2006 C2018 0.950 . S
H2007 C2019 0.950 . S
C2008 H2000 0.950 . S
C2008 C2009 1.386 . S
C2008 C2010 1.391 . S
C2009 C2008 1.386 . S
C2009 C2013 1.393 . S
C2010 H2002 0.950 . S
C2010 C2008 1.391 . S
C2010 C2011 1.400 . S
C2011 C2010 1.400 . S
C2011 C2012 1.398 . S
C2011 C2017 1.491 . S
C2012 H2003 0.950 . S
C2012 C2011 1.398 . S
C2012 C2013 1.391 . S
C2013 H2001 0.950 . S
C2013 C2009 1.393 . S
C2013 C2012 1.391 . S
C2014 H2004 0.950 . S
C2014 C2015 1.386 . S
C2014 C2016 1.391 . S
C2015 C2014 1.386 . S
C2015 C2019 1.393 . S
C2016 H2005 0.950 . S
C2016 C2014 1.391 . S
C2016 C2017 1.400 . S
C2017 C2011 1.491 . S
C2017 C2016 1.400 . S
C2017 C2018 1.398 . S
C2018 H2006 0.950 . S
C2018 C2017 1.398 . S
C2018 C2019 1.391 . S
C2019 H2007 0.950 . S
C2019 C2015 1.393 . S
C2019 C2018 1.391 . S
H2020 C2028 0.950 . S
H2021 C2033 0.950 . S
H2022 C2030 0.950 . S
H2023 C2032 0.950 . S
H2024 C2034 0.950 . S
H2025 C2036 0.950 . S
H2026 C2038 0.950 . S
H2027 C2039 0.950 . S
C2028 H2020 0.950 . S
C2028 C2029 1.386 . S
C2028 C2030 1.391 . S
C2029 C2028 1.386 . S
C2029 C2033 1.393 . S
C2030 H2022 0.950 . S
C2030 C2028 1.391 . S
C2030 C2031 1.400 . S
C2031 C2030 1.400 . S
C2031 C2032 1.398 . S
C2031 C2037 1.491 . S
C2032 H2023 0.950 . S
C2032 C2031 1.398 . S
C2032 C2033 1.391 . S
C2033 H2021 0.950 . S
C2033 C2029 1.393 . S
C2033 C2032 1.391 . S
C2034 H2024 0.950 . S
C2034 C2035 1.386 . S
C2034 C2036 1.391 . S
C2035 C2034 1.386 . S
C2035 C2039 1.393 . S
C2036 H2025 0.950 . S
C2036 C2034 1.391 . S
C2036 C2037 1.400 . S
C2037 C2031 1.491 . S
C2037 C2036 1.400 . S
C2037 C2038 1.398 . S
C2038 H2026 0.950 . S
C2038 C2037 1.398 . S
C2038 C2039 1.391 . S
C2039 H2027 0.950 . S
C2039 C2035 1.393 . S
C2039 C2038 1.391 . S
H2040 C2048 0.950 . S
H2041 C2053 0.950 . S
H2042 C2050 0.950 . S
H2043 C2052 0.950 . S
H2044 C2054 0.950 . S
H2045 C2056 0.950 . S
H2046 C2058 0.950 . S
H2047 C2059 0.950 . S
C2048 H2040 0.950 . S
C2048 C2049 1.386 . S
C2048 C2050 1.391 . S
C2049 C2048 1.386 . S
C2049 C2053 1.393 . S
C2050 H2042 0.950 . S
C2050 C2048 1.391 . S
C2050 C2051 1.400 . S
C2051 C2050 1.400 . S
C2051 C2052 1.398 . S
C2051 C2057 1.491 . S
C2052 H2043 0.950 . S
C2052 C2051 1.398 . S
C2052 C2053 1.391 . S
C2053 H2041 0.950 . S
C2053 C2049 1.393 . S
C2053 C2052 1.391 . S
C2054 H2044 0.950 . S
C2054 C2055 1.386 . S
C2054 C2056 1.391 . S
C2055 C2054 1.386 . S
C2055 C2059 1.393 . S
C2056 H2045 0.950 . S
C2056 C2054 1.391 . S
C2056 C2057 1.400 . S
C2057 C2051 1.491 . S
C2057 C2056 1.400 . S
C2057 C2058 1.398 . S
C2058 H2046 0.950 . S
C2058 C2057 1.398 . S
C2058 C2059 1.391 . S
C2059 H2047 0.950 . S
C2059 C2055 1.393 . S
C2059 C2058 1.391 . S
H2060 C2068 0.950 . S
H2061 C2073 0.950 . S
H2062 C2070 0.950 . S
H2063 C2072 0.950 . S
H2064 C2074 0.950 . S
H2065 C2076 0.950 . S
H2066 C2078 0.950 . S
H2067 C2079 0.918 1_545 S
C2068 H2060 0.950 . S
C2068 C2069 1.386 . S
C2068 C2070 1.391 . S
C2069 C2068 1.386 . S
C2069 C2073 1.393 . S
C2070 H2062 0.950 . S
C2070 C2068 1.391 . S
C2070 C2071 1.400 . S
C2071 C2070 1.400 . S
C2071 C2072 1.398 . S
C2071 C2077 1.491 . S
C2072 H2063 0.950 . S
C2072 C2071 1.398 . S
C2072 C2073 1.391 . S
C2073 H2061 0.950 . S
C2073 C2069 1.393 . S
C2073 C2072 1.391 . S
C2074 H2064 0.950 . S
C2074 C2075 1.386 . S
C2074 C2076 1.391 . S
C2075 C2074 1.386 . S
C2075 C2079 1.393 . S
C2076 H2065 0.950 . S
C2076 C2074 1.391 . S
C2076 C2077 1.400 . S
C2077 C2071 1.491 . S
C2077 C2076 1.400 . S
C2077 C2078 1.398 . S
C2078 H2066 0.950 . S
C2078 C2077 1.398 . S
C2078 C2079 1.391 . S
C2079 H2067 0.918 1_565 S
C2079 C2075 1.393 . S
C2079 C2078 1.391 . S
H2080 C2088 0.950 . S
H2081 C2093 0.950 . S
H2082 C2090 0.950 . S
H2083 C2092 0.950 . S
H2084 C2094 0.950 . S
H2085 C2096 0.950 . S
H2086 C2098 0.950 . S
H2087 C2099 0.950 . S
C2088 H2080 0.950 . S
C2088 C2089 1.386 . S
C2088 C2090 1.391 . S
C2089 C2088 1.386 . S
C2089 C2093 1.393 . S
C2090 H2082 0.950 . S
C2090 C2088 1.391 . S
C2090 C2091 1.400 . S
C2091 C2090 1.400 . S
C2091 C2092 1.398 . S
C2091 C2097 1.491 . S
C2092 H2083 0.950 . S
C2092 C2091 1.398 . S
C2092 C2093 1.391 . S
C2093 H2081 0.950 . S
C2093 C2089 1.393 . S
C2093 C2092 1.391 . S
C2094 H2084 0.950 . S
C2094 C2095 1.386 . S
C2094 C2096 1.391 . S
C2095 C2094 1.386 . S
C2095 C2099 1.393 . S
C2096 H2085 0.950 . S
C2096 C2094 1.391 . S
C2096 C2097 1.400 . S
C2097 C2091 1.491 . S
C2097 C2096 1.400 . S
C2097 C2098 1.398 . S
C2098 H2086 0.950 . S
C2098 C2097 1.398 . S
C2098 C2099 1.391 . S
C2099 H2087 0.950 . S
C2099 C2095 1.393 . S
C2099 C2098 1.391 . S
H2100 C2108 0.950 . S
H2101 C2113 0.950 . S
H2102 C2110 0.950 . S
H2103 C2112 0.950 . S
H2104 C2114 0.950 . S
H2105 C2116 0.950 . S
H2106 C2118 0.950 . S
H2107 C2119 0.950 . S
C2108 H2100 0.950 . S
C2108 C2109 1.386 . S
C2108 C2110 1.391 . S
C2109 C2108 1.386 . S
C2109 C2113 1.393 . S
C2110 H2102 0.950 . S
C2110 C2108 1.391 . S
C2110 C2111 1.400 . S
C2111 C2110 1.400 . S
C2111 C2112 1.398 . S
C2111 C2117 1.491 . S
C2112 H2103 0.950 . S
C2112 C2111 1.398 . S
C2112 C2113 1.391 . S
C2113 H2101 0.950 . S
C2113 C2109 1.393 . S
C2113 C2112 1.391 . S
C2114 H2104 0.950 . S
C2114 C2115 1.386 . S
C2114 C2116 1.391 . S
C2115 C2114 1.386 . S
C2115 C2119 1.393 . S
C2116 H2105 0.950 . S
C2116 C2114 1.391 . S
C2116 C2117 1.400 . S
C2117 C2111 1.491 . S
C2117 C2116 1.400 . S
C2117 C2118 1.398 . S
C2118 H2106 0.950 . S
C2118 C2117 1.398 . S
C2118 C2119 1.391 . S
C2119 H2107 0.950 . S
C2119 C2115 1.393 . S
C2119 C2118 1.391 . S
H2120 C2128 0.950 . S
H2121 C2133 0.994 . S
H2122 C2130 0.950 . S
H2123 C2132 0.950 . S
H2124 C2134 0.950 . S
H2125 C2136 0.950 . S
H2126 C2138 0.950 . S
H2127 C2139 0.950 . S
C2128 H2120 0.950 . S
C2128 C2129 1.386 . S
C2128 C2130 1.391 . S
C2129 C2128 1.386 . S
C2129 C2133 1.381 1_565 S
C2130 H2122 0.950 . S
C2130 C2128 1.391 . S
C2130 C2131 1.400 . S
C2131 C2130 1.400 . S
C2131 C2132 1.398 . S
C2131 C2137 1.491 . S
C2132 H2123 0.950 . S
C2132 C2131 1.398 . S
C2132 C2133 1.360 1_565 S
C2133 H2121 0.994 . S
C2133 C2129 1.381 1_545 S
C2133 C2132 1.360 1_545 S
C2134 H2124 0.950 . S
C2134 C2135 1.386 . S
C2134 C2136 1.391 . S
C2135 C2134 1.386 . S
C2135 C2139 1.393 . S
C2136 H2125 0.950 . S
C2136 C2134 1.391 . S
C2136 C2137 1.400 . S
C2137 C2131 1.491 . S
C2137 C2136 1.400 . S
C2137 C2138 1.398 . S
C2138 H2126 0.950 . S
C2138 C2137 1.398 . S
C2138 C2139 1.391 . S
C2139 H2127 0.950 . S
C2139 C2135 1.393 . S
C2139 C2138 1.391 . S
H2140 C2148 0.950 . S
H2141 C2153 0.950 . S
H2142 C2150 0.950 . S
H2143 C2152 0.950 . S
H2144 C2154 0.950 . S
H2145 C2156 0.950 . S
H2146 C2158 0.950 . S
H2147 C2159 0.950 . S
C2148 H2140 0.950 . S
C2148 C2149 1.386 . S
C2148 C2150 1.391 . S
C2149 C2148 1.386 . S
C2149 C2153 1.393 . S
C2150 H2142 0.950 . S
C2150 C2148 1.391 . S
C2150 C2151 1.400 . S
C2151 C2150 1.400 . S
C2151 C2152 1.398 . S
C2151 C2157 1.491 . S
C2152 H2143 0.950 . S
C2152 C2151 1.398 . S
C2152 C2153 1.391 . S
C2153 H2141 0.950 . S
C2153 C2149 1.393 . S
C2153 C2152 1.391 . S
C2154 H2144 0.950 . S
C2154 C2155 1.386 . S
C2154 C2156 1.391 . S
C2155 C2154 1.386 . S
C2155 C2159 1.393 . S
C2156 H2145 0.950 . S
C2156 C2154 1.391 . S
C2156 C2157 1.400 . S
C2157 C2151 1.491 . S
C2157 C2156 1.400 . S
C2157 C2158 1.398 . S
C2158 H2146 0.950 . S
C2158 C2157 1.398 . S
C2158 C2159 1.391 . S
C2159 H2147 0.950 . S
C2159 C2155 1.393 . S
C2159 C2158 1.391 . S
H2160 C2168 0.918 1_545 S
H2161 C2173 0.950 . S
H2162 C2170 0.950 . S
H2163 C2172 0.950 . S
H2164 C2174 0.950 . S
H2165 C2176 0.950 . S
H2166 C2178 0.950 . S
H2167 C2179 0.950 . S
C2168 H2160 0.918 1_565 S
C2168 C2169 1.394 . S
C2168 C2170 1.415 . S
C2169 C2168 1.394 . S
C2169 C2173 1.393 . S
C2170 H2162 0.950 . S
C2170 C2168 1.415 . S
C2170 C2171 1.400 . S
C2171 C2170 1.400 . S
C2171 C2172 1.398 . S
C2171 C2177 1.491 . S
C2172 H2163 0.950 . S
C2172 C2171 1.398 . S
C2172 C2173 1.391 . S
C2173 H2161 0.950 . S
C2173 C2169 1.393 . S
C2173 C2172 1.391 . S
C2174 H2164 0.950 . S
C2174 C2175 1.386 . S
C2174 C2176 1.391 . S
C2175 C2174 1.386 . S
C2175 C2179 1.393 . S
C2176 H2165 0.950 . S
C2176 C2174 1.391 . S
C2176 C2177 1.400 . S
C2177 C2171 1.491 . S
C2177 C2176 1.400 . S
C2177 C2178 1.398 . S
C2178 H2166 0.950 . S
C2178 C2177 1.398 . S
C2178 C2179 1.391 . S
C2179 H2167 0.950 . S
C2179 C2175 1.393 . S
C2179 C2178 1.391 . S
H2180 C2188 0.950 . S
H2181 C2193 0.950 . S
H2182 C2190 0.950 . S
H2183 C2192 0.950 . S
H2184 C2194 0.950 . S
H2185 C2196 0.950 . S
H2186 C2198 0.950 . S
H2187 C2199 0.950 . S
C2188 H2180 0.950 . S
C2188 C2189 1.386 . S
C2188 C2190 1.391 . S
C2189 C2188 1.386 . S
C2189 C2193 1.393 . S
C2190 H2182 0.950 . S
C2190 C2188 1.391 . S
C2190 C2191 1.400 . S
C2191 C2190 1.400 . S
C2191 C2192 1.398 . S
C2191 C2197 1.491 . S
C2192 H2183 0.950 . S
C2192 C2191 1.398 . S
C2192 C2193 1.391 . S
C2193 H2181 0.950 . S
C2193 C2189 1.393 . S
C2193 C2192 1.391 . S
C2194 H2184 0.950 . S
C2194 C2195 1.386 . S
C2194 C2196 1.391 . S
C2195 C2194 1.386 . S
C2195 C2199 1.393 . S
C2196 H2185 0.950 . S
C2196 C2194 1.391 . S
C2196 C2197 1.400 . S
C2197 C2191 1.491 . S
C2197 C2196 1.400 . S
C2197 C2198 1.398 . S
C2198 H2186 0.950 . S
C2198 C2197 1.398 . S
C2198 C2199 1.391 . S
C2199 H2187 0.950 . S
C2199 C2195 1.393 . S
C2199 C2198 1.391 . S
H2200 C2208 0.950 . S
H2201 C2213 0.950 . S
H2202 C2210 0.950 . S
H2203 C2212 0.950 . S
H2204 C2214 0.950 . S
H2205 C2216 0.950 . S
H2206 C2218 0.950 . S
H2207 C2219 0.950 . S
C2208 H2200 0.950 . S
C2208 C2209 1.386 . S
C2208 C2210 1.391 . S
C2209 C2208 1.386 . S
C2209 C2213 1.393 . S
C2210 H2202 0.950 . S
C2210 C2208 1.391 . S
C2210 C2211 1.400 . S
C2211 C2210 1.400 . S
C2211 C2212 1.398 . S
C2211 C2217 1.491 . S
C2212 H2203 0.950 . S
C2212 C2211 1.398 . S
C2212 C2213 1.391 . S
C2213 H2201 0.950 . S
C2213 C2209 1.393 . S
C2213 C2212 1.391 . S
C2214 H2204 0.950 . S
C2214 C2215 1.386 . S
C2214 C2216 1.391 . S
C2215 C2214 1.386 . S
C2215 C2219 1.393 . S
C2216 H2205 0.950 . S
C2216 C2214 1.391 . S
C2216 C2217 1.400 . S
C2217 C2211 1.491 . S
C2217 C2216 1.400 . S
C2217 C2218 1.398 . S
C2218 H2206 0.950 . S
C2218 C2217 1.398 . S
C2218 C2219 1.391 . S
C2219 H2207 0.950 . S
C2219 C2215 1.393 . S
C2219 C2218 1.391 . S
H2220 C2228 0.950 . S
H2221 C2233 0.950 . S
H2222 C2230 0.950 . S
H2223 C2232 0.950 . S
H2224 C2234 0.950 . S
H2225 C2236 0.950 . S
H2226 C2238 0.950 . S
H2227 C2239 0.950 . S
C2228 H2220 0.950 . S
C2228 C2229 1.386 . S
C2228 C2230 1.391 . S
C2229 C2228 1.386 . S
C2229 C2233 1.393 . S
C2230 H2222 0.950 . S
C2230 C2228 1.391 . S
C2230 C2231 1.400 . S
C2231 C2230 1.400 . S
C2231 C2232 1.398 . S
C2231 C2237 1.491 . S
C2232 H2223 0.950 . S
C2232 C2231 1.398 . S
C2232 C2233 1.391 . S
C2233 H2221 0.950 . S
C2233 C2229 1.393 . S
C2233 C2232 1.391 . S
C2234 H2224 0.950 . S
C2234 C2235 1.386 . S
C2234 C2236 1.391 . S
C2235 C2234 1.386 . S
C2235 C2239 1.393 . S
C2236 H2225 0.950 . S
C2236 C2234 1.391 . S
C2236 C2237 1.400 . S
C2237 C2231 1.491 . S
C2237 C2236 1.400 . S
C2237 C2238 1.398 . S
C2238 H2226 0.950 . S
C2238 C2237 1.398 . S
C2238 C2239 1.391 . S
C2239 H2227 0.950 . S
C2239 C2235 1.393 . S
C2239 C2238 1.391 . S
H2240 C2248 0.950 . S
H2241 C2253 0.950 . S
H2242 C2250 0.950 . S
H2243 C2252 0.950 . S
H2244 C2254 0.950 . S
H2245 C2256 0.950 . S
H2246 C2258 0.950 . S
H2247 C2259 0.950 . S
C2248 H2240 0.950 . S
C2248 C2249 1.386 . S
C2248 C2250 1.391 . S
C2249 C2248 1.386 . S
C2249 C2253 1.393 . S
C2250 H2242 0.950 . S
C2250 C2248 1.391 . S
C2250 C2251 1.400 . S
C2251 C2250 1.400 . S
C2251 C2252 1.398 . S
C2251 C2257 1.491 . S
C2252 H2243 0.950 . S
C2252 C2251 1.398 . S
C2252 C2253 1.391 . S
C2253 H2241 0.950 . S
C2253 C2249 1.393 . S
C2253 C2252 1.391 . S
C2254 H2244 0.950 . S
C2254 C2255 1.386 . S
C2254 C2256 1.391 . S
C2255 C2254 1.386 . S
C2255 C2259 1.393 . S
C2256 H2245 0.950 . S
C2256 C2254 1.391 . S
C2256 C2257 1.400 . S
C2257 C2251 1.491 . S
C2257 C2256 1.400 . S
C2257 C2258 1.398 . S
C2258 H2246 0.950 . S
C2258 C2257 1.398 . S
C2258 C2259 1.391 . S
C2259 H2247 0.950 . S
C2259 C2255 1.393 . S
C2259 C2258 1.391 . S
H2260 C2268 0.950 1_554 S
H2261 C2273 0.950 . S
H2262 C2270 0.950 . S
H2263 C2272 0.950 . S
H2264 C2274 0.950 . S
H2265 C2276 0.950 . S
H2266 C2278 0.950 . S
H2267 C2279 0.950 . S
C2268 H2260 0.950 1_556 S
C2268 C2269 1.386 . S
C2268 C2270 1.391 . S
C2269 C2268 1.386 . S
C2269 C2273 1.393 . S
C2270 H2262 0.950 . S
C2270 C2268 1.391 . S
C2270 C2271 1.400 . S
C2271 C2270 1.400 . S
C2271 C2272 1.398 . S
C2271 C2277 1.491 . S
C2272 H2263 0.950 . S
C2272 C2271 1.398 . S
C2272 C2273 1.391 . S
C2273 H2261 0.950 . S
C2273 C2269 1.393 . S
C2273 C2272 1.391 . S
C2274 H2264 0.950 . S
C2274 C2275 1.386 . S
C2274 C2276 1.391 . S
C2275 C2274 1.386 . S
C2275 C2279 1.393 . S
C2276 H2265 0.950 . S
C2276 C2274 1.391 . S
C2276 C2277 1.400 . S
C2277 C2271 1.491 . S
C2277 C2276 1.400 . S
C2277 C2278 1.398 . S
C2278 H2266 0.950 . S
C2278 C2277 1.398 . S
C2278 C2279 1.391 . S
C2279 H2267 0.950 . S
C2279 C2275 1.393 . S
C2279 C2278 1.391 . S
H2280 C2288 0.950 1_554 S
H2281 C2293 0.950 . S
H2282 C2290 0.950 . S
H2283 C2292 0.950 . S
H2284 C2294 0.950 . S
H2285 C2296 0.950 . S
H2286 C2298 0.950 . S
H2287 C2299 0.950 . S
C2288 H2280 0.950 1_556 S
C2288 C2289 1.386 . S
C2288 C2290 1.391 . S
C2289 C2288 1.386 . S
C2289 C2293 1.393 . S
C2290 H2282 0.950 . S
C2290 C2288 1.391 . S
C2290 C2291 1.400 . S
C2291 C2290 1.400 . S
C2291 C2292 1.398 . S
C2291 C2297 1.491 . S
C2292 H2283 0.950 . S
C2292 C2291 1.398 . S
C2292 C2293 1.391 . S
C2293 H2281 0.950 . S
C2293 C2289 1.393 . S
C2293 C2292 1.391 . S
C2294 H2284 0.950 . S
C2294 C2295 1.386 . S
C2294 C2296 1.391 . S
C2295 C2294 1.386 . S
C2295 C2299 1.393 . S
C2296 H2285 0.950 . S
C2296 C2294 1.391 . S
C2296 C2297 1.400 . S
C2297 C2291 1.491 . S
C2297 C2296 1.400 . S
C2297 C2298 1.398 . S
C2298 H2286 0.950 . S
C2298 C2297 1.398 . S
C2298 C2299 1.391 . S
C2299 H2287 0.950 . S
C2299 C2295 1.393 . S
C2299 C2298 1.391 . S
H2300 C2308 0.950 . S
H2301 C2313 0.950 . S
H2302 C2310 0.950 . S
H2303 C2312 0.950 . S
H2304 C2314 0.950 1_554 S
H2305 C2316 0.950 . S
H2306 C2318 0.950 . S
H2307 C2319 0.950 . S
C2308 H2300 0.950 . S
C2308 C2309 1.386 . S
C2308 C2310 1.391 . S
C2309 C2308 1.386 . S
C2309 C2313 1.393 . S
C2310 H2302 0.950 . S
C2310 C2308 1.391 . S
C2310 C2311 1.400 . S
C2311 C2310 1.400 . S
C2311 C2312 1.398 . S
C2311 C2317 1.491 . S
C2312 H2303 0.950 . S
C2312 C2311 1.398 . S
C2312 C2313 1.391 . S
C2313 H2301 0.950 . S
C2313 C2309 1.393 . S
C2313 C2312 1.391 . S
C2314 H2304 0.950 1_556 S
C2314 C2315 1.386 . S
C2314 C2316 1.391 . S
C2315 C2314 1.386 . S
C2315 C2319 1.393 . S
C2316 H2305 0.950 . S
C2316 C2314 1.391 . S
C2316 C2317 1.400 . S
C2317 C2311 1.491 . S
C2317 C2316 1.400 . S
C2317 C2318 1.398 . S
C2318 H2306 0.950 . S
C2318 C2317 1.398 . S
C2318 C2319 1.391 . S
C2319 H2307 0.950 . S
C2319 C2315 1.393 . S
C2319 C2318 1.391 . S
H2320 C2328 0.950 . S
H2321 C2333 0.950 . S
H2322 C2330 0.950 . S
H2323 C2332 0.950 . S
H2324 C2334 0.950 . S
H2325 C2336 0.950 . S
H2326 C2338 0.950 . S
H2327 C2339 0.950 . S
C2328 H2320 0.950 . S
C2328 C2329 1.386 . S
C2328 C2330 1.391 . S
C2329 C2328 1.386 . S
C2329 C2333 1.393 . S
C2330 H2322 0.950 . S
C2330 C2328 1.391 . S
C2330 C2331 1.400 . S
C2331 C2330 1.400 . S
C2331 C2332 1.398 . S
C2331 C2337 1.491 . S
C2332 H2323 0.950 . S
C2332 C2331 1.398 . S
C2332 C2333 1.391 . S
C2333 H2321 0.950 . S
C2333 C2329 1.393 . S
C2333 C2332 1.391 . S
C2334 H2324 0.950 . S
C2334 C2335 1.386 . S
C2334 C2336 1.391 . S
C2335 C2334 1.386 . S
C2335 C2339 1.393 . S
C2336 H2325 0.950 . S
C2336 C2334 1.391 . S
C2336 C2337 1.400 . S
C2337 C2331 1.491 . S
C2337 C2336 1.400 . S
C2337 C2338 1.398 . S
C2338 H2326 0.950 . S
C2338 C2337 1.398 . S
C2338 C2339 1.391 . S
C2339 H2327 0.950 . S
C2339 C2335 1.393 . S
C2339 C2338 1.391 . S
H2340 C2348 0.950 . S
H2341 C2353 0.950 . S
H2342 C2350 0.950 . S
H2343 C2352 0.950 . S
H2344 C2354 0.950 . S
H2345 C2356 0.950 . S
H2346 C2358 0.950 . S
H2347 C2359 0.950 . S
C2348 H2340 0.950 . S
C2348 C2349 1.386 . S
C2348 C2350 1.391 . S
C2349 C2348 1.386 . S
C2349 C2353 1.393 . S
C2350 H2342 0.950 . S
C2350 C2348 1.391 . S
C2350 C2351 1.400 . S
C2351 C2350 1.400 . S
C2351 C2352 1.398 . S
C2351 C2357 1.491 . S
C2352 H2343 0.950 . S
C2352 C2351 1.398 . S
C2352 C2353 1.391 . S
C2353 H2341 0.950 . S
C2353 C2349 1.393 . S
C2353 C2352 1.391 . S
C2354 H2344 0.950 . S
C2354 C2355 1.386 . S
C2354 C2356 1.391 . S
C2355 C2354 1.386 . S
C2355 C2359 1.393 . S
C2356 H2345 0.950 . S
C2356 C2354 1.391 . S
C2356 C2357 1.400 . S
C2357 C2351 1.491 . S
C2357 C2356 1.400 . S
C2357 C2358 1.398 . S
C2358 H2346 0.950 . S
C2358 C2357 1.398 . S
C2358 C2359 1.391 . S
C2359 H2347 0.950 . S
C2359 C2355 1.393 . S
C2359 C2358 1.391 . S
H2360 C2368 0.950 . S
H2361 C2373 0.950 . S
H2362 C2370 0.950 . S
H2363 C2372 0.950 . S
H2364 C2374 0.950 . S
H2365 C2376 0.950 . S
H2366 C2378 0.950 . S
H2367 C2379 0.950 . S
C2368 H2360 0.950 . S
C2368 C2369 1.386 . S
C2368 C2370 1.391 . S
C2369 C2368 1.386 . S
C2369 C2373 1.393 . S
C2370 H2362 0.950 . S
C2370 C2368 1.391 . S
C2370 C2371 1.400 . S
C2371 C2370 1.400 . S
C2371 C2372 1.398 . S
C2371 C2377 1.491 . S
C2372 H2363 0.950 . S
C2372 C2371 1.398 . S
C2372 C2373 1.391 . S
C2373 H2361 0.950 . S
C2373 C2369 1.393 . S
C2373 C2372 1.391 . S
C2374 H2364 0.950 . S
C2374 C2375 1.386 . S
C2374 C2376 1.391 . S
C2375 C2374 1.386 . S
C2375 C2379 1.393 . S
C2376 H2365 0.950 . S
C2376 C2374 1.391 . S
C2376 C2377 1.400 . S
C2377 C2371 1.491 . S
C2377 C2376 1.400 . S
C2377 C2378 1.398 . S
C2378 H2366 0.950 . S
C2378 C2377 1.398 . S
C2378 C2379 1.391 . S
C2379 H2367 0.950 . S
C2379 C2375 1.393 . S
C2379 C2378 1.391 . S
H2380 C2388 0.950 . S
H2381 C2393 0.950 . S
H2382 C2390 0.950 . S
H2383 C2392 0.950 . S
H2384 C2394 0.950 . S
H2385 C2396 0.950 . S
H2386 C2398 0.950 . S
H2387 C2399 0.950 . S
C2388 H2380 0.950 . S
C2388 C2389 1.386 . S
C2388 C2390 1.391 . S
C2389 C2388 1.386 . S
C2389 C2393 1.393 . S
C2390 H2382 0.950 . S
C2390 C2388 1.391 . S
C2390 C2391 1.400 . S
C2391 C2390 1.400 . S
C2391 C2392 1.398 . S
C2391 C2397 1.491 . S
C2392 H2383 0.950 . S
C2392 C2391 1.398 . S
C2392 C2393 1.391 . S
C2393 H2381 0.950 . S
C2393 C2389 1.393 . S
C2393 C2392 1.391 . S
C2394 H2384 0.950 . S
C2394 C2395 1.386 . S
C2394 C2396 1.391 . S
C2395 C2394 1.386 . S
C2395 C2399 1.393 . S
C2396 H2385 0.950 . S
C2396 C2394 1.391 . S
C2396 C2397 1.400 . S
C2397 C2391 1.491 . S
C2397 C2396 1.400 . S
C2397 C2398 1.398 . S
C2398 H2386 0.950 . S
C2398 C2397 1.398 . S
C2398 C2399 1.391 . S
C2399 H2387 0.950 . S
C2399 C2395 1.393 . S
C2399 C2398 1.391 . S
H2400 C2408 0.950 . S
H2401 C2413 0.950 . S
H2402 C2410 0.950 . S
H2403 C2412 0.950 . S
H2404 C2414 0.950 . S
H2405 C2416 0.950 . S
H2406 C2418 0.950 . S
H2407 C2419 0.950 . S
C2408 H2400 0.950 . S
C2408 C2409 1.386 . S
C2408 C2410 1.391 . S
C2409 C2408 1.386 . S
C2409 C2413 1.393 . S
C2410 H2402 0.950 . S
C2410 C2408 1.391 . S
C2410 C2411 1.400 . S
C2411 C2410 1.400 . S
C2411 C2412 1.398 . S
C2411 C2417 1.491 . S
C2412 H2403 0.950 . S
C2412 C2411 1.398 . S
C2412 C2413 1.391 . S
C2413 H2401 0.950 . S
C2413 C2409 1.393 . S
C2413 C2412 1.391 . S
C2414 H2404 0.950 . S
C2414 C2415 1.386 . S
C2414 C2416 1.391 . S
C2415 C2414 1.386 . S
C2415 C2419 1.393 . S
C2416 H2405 0.950 . S
C2416 C2414 1.391 . S
C2416 C2417 1.400 . S
C2417 C2411 1.491 . S
C2417 C2416 1.400 . S
C2417 C2418 1.398 . S
C2418 H2406 0.950 . S
C2418 C2417 1.398 . S
C2418 C2419 1.391 . S
C2419 H2407 0.950 . S
C2419 C2415 1.393 . S
C2419 C2418 1.391 . S
H2420 C2428 0.950 . S
H2421 C2433 0.950 . S
H2422 C2430 0.950 . S
H2423 C2432 0.950 . S
H2424 C2434 0.950 . S
H2425 C2436 0.950 . S
H2426 C2438 0.950 . S
H2427 C2439 0.950 . S
C2428 H2420 0.950 . S
C2428 C2429 1.386 . S
C2428 C2430 1.391 . S
C2429 C2428 1.386 . S
C2429 C2433 1.393 . S
C2430 H2422 0.950 . S
C2430 C2428 1.391 . S
C2430 C2431 1.400 . S
C2431 C2430 1.400 . S
C2431 C2432 1.398 . S
C2431 C2437 1.491 . S
C2432 H2423 0.950 . S
C2432 C2431 1.398 . S
C2432 C2433 1.391 . S
C2433 H2421 0.950 . S
C2433 C2429 1.393 . S
C2433 C2432 1.391 . S
C2434 H2424 0.950 . S
C2434 C2435 1.386 . S
C2434 C2436 1.391 . S
C2435 C2434 1.386 . S
C2435 C2439 1.393 . S
C2436 H2425 0.950 . S
C2436 C2434 1.391 . S
C2436 C2437 1.400 . S
C2437 C2431 1.491 . S
C2437 C2436 1.400 . S
C2437 C2438 1.398 . S
C2438 H2426 0.950 . S
C2438 C2437 1.398 . S
C2438 C2439 1.391 . S
C2439 H2427 0.950 . S
C2439 C2435 1.393 . S
C2439 C2438 1.391 . S
H2440 C2448 0.950 . S
H2441 C2453 0.950 . S
H2442 C2450 0.950 . S
H2443 C2452 0.950 . S
H2444 C2454 0.950 . S
H2445 C2456 0.950 . S
H2446 C2458 0.950 . S
H2447 C2459 0.950 . S
C2448 H2440 0.950 . S
C2448 C2449 1.386 . S
C2448 C2450 1.391 . S
C2449 C2448 1.386 . S
C2449 C2453 1.393 . S
C2450 H2442 0.950 . S
C2450 C2448 1.391 . S
C2450 C2451 1.400 . S
C2451 C2450 1.400 . S
C2451 C2452 1.398 . S
C2451 C2457 1.491 . S
C2452 H2443 0.950 . S
C2452 C2451 1.398 . S
C2452 C2453 1.391 . S
C2453 H2441 0.950 . S
C2453 C2449 1.393 . S
C2453 C2452 1.391 . S
C2454 H2444 0.950 . S
C2454 C2455 1.386 . S
C2454 C2456 1.391 . S
C2455 C2454 1.386 . S
C2455 C2459 1.393 . S
C2456 H2445 0.950 . S
C2456 C2454 1.391 . S
C2456 C2457 1.400 . S
C2457 C2451 1.491 . S
C2457 C2456 1.400 . S
C2457 C2458 1.398 . S
C2458 H2446 0.950 . S
C2458 C2457 1.398 . S
C2458 C2459 1.391 . S
C2459 H2447 0.950 . S
C2459 C2455 1.393 . S
C2459 C2458 1.391 . S
H2460 C2468 0.950 . S
H2461 C2473 0.950 . S
H2462 C2470 0.950 . S
H2463 C2472 0.950 . S
H2464 C2474 0.950 . S
H2465 C2476 0.950 . S
H2466 C2478 0.950 . S
H2467 C2479 0.950 . S
C2468 H2460 0.950 . S
C2468 C2469 1.386 . S
C2468 C2470 1.391 . S
C2469 C2468 1.386 . S
C2469 C2473 1.393 . S
C2470 H2462 0.950 . S
C2470 C2468 1.391 . S
C2470 C2471 1.400 . S
C2471 C2470 1.400 . S
C2471 C2472 1.398 . S
C2471 C2477 1.491 . S
C2472 H2463 0.950 . S
C2472 C2471 1.398 . S
C2472 C2473 1.391 . S
C2473 H2461 0.950 . S
C2473 C2469 1.393 . S
C2473 C2472 1.391 . S
C2474 H2464 0.950 . S
C2474 C2475 1.386 . S
C2474 C2476 1.391 . S
C2475 C2474 1.386 . S
C2475 C2479 1.393 . S
C2476 H2465 0.950 . S
C2476 C2474 1.391 . S
C2476 C2477 1.400 . S
C2477 C2471 1.491 . S
C2477 C2476 1.400 . S
C2477 C2478 1.398 . S
C2478 H2466 0.950 . S
C2478 C2477 1.398 . S
C2478 C2479 1.391 . S
C2479 H2467 0.950 . S
C2479 C2475 1.393 . S
C2479 C2478 1.391 . S
H2480 C2488 0.950 . S
H2481 C2493 0.950 . S
H2482 C2490 0.950 . S
H2483 C2492 0.950 . S
H2484 C2494 0.950 . S
H2485 C2496 0.950 . S
H2486 C2498 0.950 . S
H2487 C2499 0.950 . S
C2488 H2480 0.950 . S
C2488 C2489 1.386 . S
C2488 C2490 1.391 . S
C2489 C2488 1.386 . S
C2489 C2493 1.393 . S
C2490 H2482 0.950 . S
C2490 C2488 1.391 . S
C2490 C2491 1.400 . S
C2491 C2490 1.400 . S
C2491 C2492 1.398 . S
C2491 C2497 1.491 . S
C2492 H2483 0.950 . S
C2492 C2491 1.398 . S
C2492 C2493 1.391 . S
C2493 H2481 0.950 . S
C2493 C2489 1.393 . S
C2493 C2492 1.391 . S
C2494 H2484 0.950 . S
C2494 C2495 1.386 . S
C2494 C2496 1.391 . S
C2495 C2494 1.386 . S
C2495 C2499 1.393 . S
C2496 H2485 0.950 . S
C2496 C2494 1.391 . S
C2496 C2497 1.400 . S
C2497 C2491 1.491 . S
C2497 C2496 1.400 . S
C2497 C2498 1.398 . S
C2498 H2486 0.950 . S
C2498 C2497 1.398 . S
C2498 C2499 1.391 . S
C2499 H2487 0.950 . S
C2499 C2495 1.393 . S
C2499 C2498 1.391 . S
H2500 C2508 0.950 . S
H2501 C2513 0.950 . S
H2502 C2510 0.950 . S
H2503 C2512 0.950 . S
H2504 C2514 0.950 . S
H2505 C2516 0.950 . S
H2506 C2518 0.950 . S
H2507 C2519 0.950 . S
C2508 H2500 0.950 . S
C2508 C2509 1.386 . S
C2508 C2510 1.391 . S
C2509 C2508 1.386 . S
C2509 C2513 1.393 . S
C2510 H2502 0.950 . S
C2510 C2508 1.391 . S
C2510 C2511 1.400 . S
C2511 C2510 1.400 . S
C2511 C2512 1.398 . S
C2511 C2517 1.491 . S
C2512 H2503 0.950 . S
C2512 C2511 1.398 . S
C2512 C2513 1.391 . S
C2513 H2501 0.950 . S
C2513 C2509 1.393 . S
C2513 C2512 1.391 . S
C2514 H2504 0.950 . S
C2514 C2515 1.386 . S
C2514 C2516 1.391 . S
C2515 C2514 1.386 . S
C2515 C2519 1.393 . S
C2516 H2505 0.950 . S
C2516 C2514 1.391 . S
C2516 C2517 1.400 . S
C2517 C2511 1.491 . S
C2517 C2516 1.400 . S
C2517 C2518 1.398 . S
C2518 H2506 0.950 . S
C2518 C2517 1.398 . S
C2518 C2519 1.391 . S
C2519 H2507 0.950 . S
C2519 C2515 1.393 . S
C2519 C2518 1.391 . S
H2520 C2528 0.950 . S
H2521 C2533 0.950 . S
H2522 C2530 0.950 . S
H2523 C2532 0.950 . S
H2524 C2534 0.950 . S
H2525 C2536 0.950 . S
H2526 C2538 0.950 . S
H2527 C2539 0.950 . S
C2528 H2520 0.950 . S
C2528 C2529 1.386 . S
C2528 C2530 1.391 . S
C2529 C2528 1.386 . S
C2529 C2533 1.393 . S
C2530 H2522 0.950 . S
C2530 C2528 1.391 . S
C2530 C2531 1.400 . S
C2531 C2530 1.400 . S
C2531 C2532 1.398 . S
C2531 C2537 1.491 . S
C2532 H2523 0.950 . S
C2532 C2531 1.398 . S
C2532 C2533 1.391 . S
C2533 H2521 0.950 . S
C2533 C2529 1.393 . S
C2533 C2532 1.391 . S
C2534 H2524 0.950 . S
C2534 C2535 1.386 . S
C2534 C2536 1.391 . S
C2535 C2534 1.386 . S
C2535 C2539 1.393 . S
C2536 H2525 0.950 . S
C2536 C2534 1.391 . S
C2536 C2537 1.400 . S
C2537 C2531 1.491 . S
C2537 C2536 1.400 . S
C2537 C2538 1.398 . S
C2538 H2526 0.950 . S
C2538 C2537 1.398 . S
C2538 C2539 1.391 . S
C2539 H2527 0.950 . S
C2539 C2535 1.393 . S
C2539 C2538 1.391 . S
H2540 C2548 0.950 . S
H2541 C2553 0.950 . S
H2542 C2550 0.950 . S
H2543 C2552 0.950 . S
H2544 C2554 0.950 . S
H2545 C2556 0.950 . S
H2546 C2558 0.950 . S
H2547 C2559 0.950 . S
C2548 H2540 0.950 . S
C2548 C2549 1.386 . S
C2548 C2550 1.391 . S
C2549 C2548 1.386 . S
C2549 C2553 1.393 . S
C2550 H2542 0.950 . S
C2550 C2548 1.391 . S
C2550 C2551 1.400 . S
C2551 C2550 1.400 . S
C2551 C2552 1.398 . S
C2551 C2557 1.491 . S
C2552 H2543 0.950 . S
C2552 C2551 1.398 . S
C2552 C2553 1.391 . S
C2553 H2541 0.950 . S
C2553 C2549 1.393 . S
C2553 C2552 1.391 . S
C2554 H2544 0.950 . S
C2554 C2555 1.386 . S
C2554 C2556 1.391 . S
C2555 C2554 1.386 . S
C2555 C2559 1.393 . S
C2556 H2545 0.950 . S
C2556 C2554 1.391 . S
C2556 C2557 1.400 . S
C2557 C2551 1.491 . S
C2557 C2556 1.400 . S
C2557 C2558 1.398 . S
C2558 H2546 0.950 . S
C2558 C2557 1.398 . S
C2558 C2559 1.391 . S
C2559 H2547 0.950 . S
C2559 C2555 1.393 . S
C2559 C2558 1.391 . S
H2560 C2568 0.950 . S
H2561 C2573 0.950 . S
H2562 C2570 0.950 . S
H2563 C2572 0.950 . S
H2564 C2574 0.950 . S
H2565 C2576 0.950 . S
H2566 C2578 0.950 . S
H2567 C2579 0.950 . S
C2568 H2560 0.950 . S
C2568 C2569 1.386 . S
C2568 C2570 1.391 . S
C2569 C2568 1.386 . S
C2569 C2573 1.393 . S
C2570 H2562 0.950 . S
C2570 C2568 1.391 . S
C2570 C2571 1.400 . S
C2571 C2570 1.400 . S
C2571 C2572 1.398 . S
C2571 C2577 1.491 . S
C2572 H2563 0.950 . S
C2572 C2571 1.398 . S
C2572 C2573 1.391 . S
C2573 H2561 0.950 . S
C2573 C2569 1.393 . S
C2573 C2572 1.391 . S
C2574 H2564 0.950 . S
C2574 C2575 1.386 . S
C2574 C2576 1.391 . S
C2575 C2574 1.386 . S
C2575 C2579 1.393 . S
C2576 H2565 0.950 . S
C2576 C2574 1.391 . S
C2576 C2577 1.400 . S
C2577 C2571 1.491 . S
C2577 C2576 1.400 . S
C2577 C2578 1.398 . S
C2578 H2566 0.950 . S
C2578 C2577 1.398 . S
C2578 C2579 1.391 . S
C2579 H2567 0.950 . S
C2579 C2575 1.393 . S
C2579 C2578 1.391 . S
H2580 C2588 0.950 . S
H2581 C2593 0.950 . S
H2582 C2590 0.950 . S
H2583 C2592 0.950 . S
H2584 C2594 0.950 . S
H2585 C2596 0.950 . S
H2586 C2598 0.950 . S
H2587 C2599 0.950 . S
C2588 H2580 0.950 . S
C2588 C2589 1.386 . S
C2588 C2590 1.391 . S
C2589 C2588 1.386 . S
C2589 C2593 1.393 . S
C2590 H2582 0.950 . S
C2590 C2588 1.391 . S
C2590 C2591 1.400 . S
C2591 C2590 1.400 . S
C2591 C2592 1.398 . S
C2591 C2597 1.491 . S
C2592 H2583 0.950 . S
C2592 C2591 1.398 . S
C2592 C2593 1.391 . S
C2593 H2581 0.950 . S
C2593 C2589 1.393 . S
C2593 C2592 1.391 . S
C2594 H2584 0.950 . S
C2594 C2595 1.386 . S
C2594 C2596 1.391 . S
C2595 C2594 1.386 . S
C2595 C2599 1.393 . S
C2596 H2585 0.950 . S
C2596 C2594 1.391 . S
C2596 C2597 1.400 . S
C2597 C2591 1.491 . S
C2597 C2596 1.400 . S
C2597 C2598 1.398 . S
C2598 H2586 0.950 . S
C2598 C2597 1.398 . S
C2598 C2599 1.391 . S
C2599 H2587 0.950 . S
C2599 C2595 1.393 . S
C2599 C2598 1.391 . S
H2600 C2608 0.950 . S
H2601 C2613 0.950 . S
H2602 C2610 0.950 . S
H2603 C2612 0.950 . S
H2604 C2614 0.950 . S
H2605 C2616 0.950 . S
H2606 C2618 0.950 . S
H2607 C2619 0.950 . S
C2608 H2600 0.950 . S
C2608 C2609 1.386 . S
C2608 C2610 1.391 . S
C2609 C2608 1.386 . S
C2609 C2613 1.393 . S
C2610 H2602 0.950 . S
C2610 C2608 1.391 . S
C2610 C2611 1.400 . S
C2611 C2610 1.400 . S
C2611 C2612 1.398 . S
C2611 C2617 1.491 . S
C2612 H2603 0.950 . S
C2612 C2611 1.398 . S
C2612 C2613 1.391 . S
C2613 H2601 0.950 . S
C2613 C2609 1.393 . S
C2613 C2612 1.391 . S
C2614 H2604 0.950 . S
C2614 C2615 1.386 . S
C2614 C2616 1.391 . S
C2615 C2614 1.386 . S
C2615 C2619 1.393 . S
C2616 H2605 0.950 . S
C2616 C2614 1.391 . S
C2616 C2617 1.400 . S
C2617 C2611 1.491 . S
C2617 C2616 1.400 . S
C2617 C2618 1.398 . S
C2618 H2606 0.950 . S
C2618 C2617 1.398 . S
C2618 C2619 1.391 . S
C2619 H2607 0.950 . S
C2619 C2615 1.393 . S
C2619 C2618 1.391 . S
H2620 C2628 0.950 . S
H2621 C2633 0.950 . S
H2622 C2630 0.950 . S
H2623 C2632 0.950 . S
H2624 C2634 0.950 . S
H2625 C2636 0.950 . S
H2626 C2638 0.950 . S
H2627 C2639 0.950 . S
C2628 H2620 0.950 . S
C2628 C2629 1.386 . S
C2628 C2630 1.391 . S
C2629 C2628 1.386 . S
C2629 C2633 1.393 . S
C2630 H2622 0.950 . S
C2630 C2628 1.391 . S
C2630 C2631 1.400 . S
C2631 C2630 1.400 . S
C2631 C2632 1.398 . S
C2631 C2637 1.491 . S
C2632 H2623 0.950 . S
C2632 C2631 1.398 . S
C2632 C2633 1.391 . S
C2633 H2621 0.950 . S
C2633 C2629 1.393 . S
C2633 C2632 1.391 . S
C2634 H2624 0.950 . S
C2634 C2635 1.386 . S
C2634 C2636 1.391 . S
C2635 C2634 1.386 . S
C2635 C2639 1.393 . S
C2636 H2625 0.950 . S
C2636 C2634 1.391 . S
C2636 C2637 1.400 . S
C2637 C2631 1.491 . S
C2637 C2636 1.400 . S
C2637 C2638 1.398 . S
C2638 H2626 0.950 . S
C2638 C2637 1.398 . S
C2638 C2639 1.391 . S
C2639 H2627 0.950 . S
C2639 C2635 1.393 . S
C2639 C2638 1.391 . S
H2640 C2648 0.950 . S
H2641 C2653 0.950 . S
H2642 C2650 0.950 . S
H2643 C2652 0.950 . S
H2644 C2654 0.950 . S
H2645 C2656 0.950 . S
H2646 C2658 0.950 . S
H2647 C2659 0.950 . S
C2648 H2640 0.950 . S
C2648 C2649 1.386 . S
C2648 C2650 1.391 . S
C2649 C2648 1.386 . S
C2649 C2653 1.393 . S
C2650 H2642 0.950 . S
C2650 C2648 1.391 . S
C2650 C2651 1.400 . S
C2651 C2650 1.400 . S
C2651 C2652 1.398 . S
C2651 C2657 1.491 . S
C2652 H2643 0.950 . S
C2652 C2651 1.398 . S
C2652 C2653 1.391 . S
C2653 H2641 0.950 . S
C2653 C2649 1.393 . S
C2653 C2652 1.391 . S
C2654 H2644 0.950 . S
C2654 C2655 1.386 . S
C2654 C2656 1.391 . S
C2655 C2654 1.386 . S
C2655 C2659 1.393 . S
C2656 H2645 0.950 . S
C2656 C2654 1.391 . S
C2656 C2657 1.400 . S
C2657 C2651 1.491 . S
C2657 C2656 1.400 . S
C2657 C2658 1.398 . S
C2658 H2646 0.950 . S
C2658 C2657 1.398 . S
C2658 C2659 1.391 . S
C2659 H2647 0.950 . S
C2659 C2655 1.393 . S
C2659 C2658 1.391 . S
H2660 C2668 0.950 . S
H2661 C2673 0.950 . S
H2662 C2670 0.950 . S
H2663 C2672 0.950 . S
H2664 C2674 0.950 . S
H2665 C2676 0.950 . S
H2666 C2678 0.950 . S
H2667 C2679 0.950 . S
C2668 H2660 0.950 . S
C2668 C2669 1.386 . S
C2668 C2670 1.391 . S
C2669 C2668 1.386 . S
C2669 C2673 1.393 . S
C2670 H2662 0.950 . S
C2670 C2668 1.391 . S
C2670 C2671 1.400 . S
C2671 C2670 1.400 . S
C2671 C2672 1.398 . S
C2671 C2677 1.491 . S
C2672 H2663 0.950 . S
C2672 C2671 1.398 . S
C2672 C2673 1.391 . S
C2673 H2661 0.950 . S
C2673 C2669 1.393 . S
C2673 C2672 1.391 . S
C2674 H2664 0.950 . S
C2674 C2675 1.386 . S
C2674 C2676 1.391 . S
C2675 C2674 1.386 . S
C2675 C2679 1.393 . S
C2676 H2665 0.950 . S
C2676 C2674 1.391 . S
C2676 C2677 1.400 . S
C2677 C2671 1.491 . S
C2677 C2676 1.400 . S
C2677 C2678 1.398 . S
C2678 H2666 0.950 . S
C2678 C2677 1.398 . S
C2678 C2679 1.391 . S
C2679 H2667 0.950 . S
C2679 C2675 1.393 . S
C2679 C2678 1.391 . S
H2680 C2688 0.950 . S
H2681 C2693 0.950 . S
H2682 C2690 0.950 . S
H2683 C2692 0.950 . S
H2684 C2694 0.950 . S
H2685 C2696 0.950 . S
H2686 C2698 0.950 . S
H2687 C2699 0.950 . S
C2688 H2680 0.950 . S
C2688 C2689 1.386 . S
C2688 C2690 1.391 . S
C2689 C2688 1.386 . S
C2689 C2693 1.393 . S
C2690 H2682 0.950 . S
C2690 C2688 1.391 . S
C2690 C2691 1.400 . S
C2691 C2690 1.400 . S
C2691 C2692 1.398 . S
C2691 C2697 1.491 . S
C2692 H2683 0.950 . S
C2692 C2691 1.398 . S
C2692 C2693 1.391 . S
C2693 H2681 0.950 . S
C2693 C2689 1.393 . S
C2693 C2692 1.391 . S
C2694 H2684 0.950 . S
C2694 C2695 1.386 . S
C2694 C2696 1.391 . S
C2695 C2694 1.386 . S
C2695 C2699 1.393 . S
C2696 H2685 0.950 . S
C2696 C2694 1.391 . S
C2696 C2697 1.400 . S
C2697 C2691 1.491 . S
C2697 C2696 1.400 . S
C2697 C2698 1.398 . S
C2698 H2686 0.950 . S
C2698 C2697 1.398 . S
C2698 C2699 1.391 . S
C2699 H2687 0.950 . S
C2699 C2695 1.393 . S
C2699 C2698 1.391 . S
H2700 C2708 0.950 . S
H2701 C2713 0.950 . S
H2702 C2710 0.950 . S
H2703 C2712 0.950 . S
H2704 C2714 0.950 . S
H2705 C2716 0.950 . S
H2706 C2718 0.950 . S
H2707 C2719 0.950 . S
C2708 H2700 0.950 . S
C2708 C2709 1.386 . S
C2708 C2710 1.391 . S
C2709 C2708 1.386 . S
C2709 C2713 1.393 . S
C2710 H2702 0.950 . S
C2710 C2708 1.391 . S
C2710 C2711 1.400 . S
C2711 C2710 1.400 . S
C2711 C2712 1.398 . S
C2711 C2717 1.491 . S
C2712 H2703 0.950 . S
C2712 C2711 1.398 . S
C2712 C2713 1.391 . S
C2713 H2701 0.950 . S
C2713 C2709 1.393 . S
C2713 C2712 1.391 . S
C2714 H2704 0.950 . S
C2714 C2715 1.386 . S
C2714 C2716 1.391 . S
C2715 C2714 1.386 . S
C2715 C2719 1.393 . S
C2716 H2705 0.950 . S
C2716 C2714 1.391 . S
C2716 C2717 1.400 . S
C2717 C2711 1.491 . S
C2717 C2716 1.400 . S
C2717 C2718 1.398 . S
C2718 H2706 0.950 . S
C2718 C2717 1.398 . S
C2718 C2719 1.391 . S
C2719 H2707 0.950 . S
C2719 C2715 1.393 . S
C2719 C2718 1.391 . S
H2720 C2728 0.950 . S
H2721 C2733 0.950 . S
H2722 C2730 0.950 . S
H2723 C2732 0.950 . S
H2724 C2734 0.950 . S
H2725 C2736 0.950 . S
H2726 C2738 0.950 . S
H2727 C2739 0.950 . S
C2728 H2720 0.950 . S
C2728 C2729 1.386 . S
C2728 C2730 1.391 . S
C2729 C2728 1.386 . S
C2729 C2733 1.393 . S
C2730 H2722 0.950 . S
C2730 C2728 1.391 . S
C2730 C2731 1.400 . S
C2731 C2730 1.400 . S
C2731 C2732 1.398 . S
C2731 C2737 1.491 . S
C2732 H2723 0.950 . S
C2732 C2731 1.398 . S
C2732 C2733 1.391 . S
C2733 H2721 0.950 . S
C2733 C2729 1.393 . S
C2733 C2732 1.391 . S
C2734 H2724 0.950 . S
C2734 C2735 1.386 . S
C2734 C2736 1.391 . S
C2735 C2734 1.386 . S
C2735 C2739 1.393 . S
C2736 H2725 0.950 . S
C2736 C2734 1.391 . S
C2736 C2737 1.400 . S
C2737 C2731 1.491 . S
C2737 C2736 1.400 . S
C2737 C2738 1.398 . S
C2738 H2726 0.950 . S
C2738 C2737 1.398 . S
C2738 C2739 1.391 . S
C2739 H2727 0.950 . S
C2739 C2735 1.393 . S
C2739 C2738 1.391 . S
H2740 C2748 0.950 . S
H2741 C2753 0.950 . S
H2742 C2750 0.950 . S
H2743 C2752 0.950 . S
H2744 C2754 0.950 . S
H2745 C2756 0.950 . S
H2746 C2758 0.950 . S
H2747 C2759 0.950 . S
C2748 H2740 0.950 . S
C2748 C2749 1.386 . S
C2748 C2750 1.391 . S
C2749 C2748 1.386 . S
C2749 C2753 1.393 . S
C2750 H2742 0.950 . S
C2750 C2748 1.391 . S
C2750 C2751 1.400 . S
C2751 C2750 1.400 . S
C2751 C2752 1.398 . S
C2751 C2757 1.491 . S
C2752 H2743 0.950 . S
C2752 C2751 1.398 . S
C2752 C2753 1.391 . S
C2753 H2741 0.950 . S
C2753 C2749 1.393 . S
C2753 C2752 1.391 . S
C2754 H2744 0.950 . S
C2754 C2755 1.386 . S
C2754 C2756 1.391 . S
C2755 C2754 1.386 . S
C2755 C2759 1.393 . S
C2756 H2745 0.950 . S
C2756 C2754 1.391 . S
C2756 C2757 1.400 . S
C2757 C2751 1.491 . S
C2757 C2756 1.400 . S
C2757 C2758 1.398 . S
C2758 H2746 0.950 . S
C2758 C2757 1.398 . S
C2758 C2759 1.391 . S
C2759 H2747 0.950 . S
C2759 C2755 1.393 . S
C2759 C2758 1.391 . S
H2760 C2768 0.950 . S
H2761 C2773 0.950 . S
H2762 C2770 0.950 . S
H2763 C2772 0.950 . S
H2764 C2774 0.950 . S
H2765 C2776 0.950 . S
H2766 C2778 0.950 . S
H2767 C2779 0.950 . S
C2768 H2760 0.950 . S
C2768 C2769 1.386 . S
C2768 C2770 1.391 . S
C2769 C2768 1.386 . S
C2769 C2773 1.393 . S
C2770 H2762 0.950 . S
C2770 C2768 1.391 . S
C2770 C2771 1.400 . S
C2771 C2770 1.400 . S
C2771 C2772 1.398 . S
C2771 C2777 1.491 . S
C2772 H2763 0.950 . S
C2772 C2771 1.398 . S
C2772 C2773 1.391 . S
C2773 H2761 0.950 . S
C2773 C2769 1.393 . S
C2773 C2772 1.391 . S
C2774 H2764 0.950 . S
C2774 C2775 1.386 . S
C2774 C2776 1.391 . S
C2775 C2774 1.386 . S
C2775 C2779 1.393 . S
C2776 H2765 0.950 . S
C2776 C2774 1.391 . S
C2776 C2777 1.400 . S
C2777 C2771 1.491 . S
C2777 C2776 1.400 . S
C2777 C2778 1.398 . S
C2778 H2766 0.950 . S
C2778 C2777 1.398 . S
C2778 C2779 1.391 . S
C2779 H2767 0.950 . S
C2779 C2775 1.393 . S
C2779 C2778 1.391 . S
H2780 C2788 0.950 . S
H2781 C2793 0.950 . S
H2782 C2790 0.950 . S
H2783 C2792 0.950 . S
H2784 C2794 0.950 . S
H2785 C2796 0.950 . S
H2786 C2798 0.950 . S
H2787 C2799 0.950 . S
C2788 H2780 0.950 . S
C2788 C2789 1.386 . S
C2788 C2790 1.391 . S
C2789 C2788 1.386 . S
C2789 C2793 1.393 . S
C2790 H2782 0.950 . S
C2790 C2788 1.391 . S
C2790 C2791 1.400 . S
C2791 C2790 1.400 . S
C2791 C2792 1.398 . S
C2791 C2797 1.491 . S
C2792 H2783 0.950 . S
C2792 C2791 1.398 . S
C2792 C2793 1.391 . S
C2793 H2781 0.950 . S
C2793 C2789 1.393 . S
C2793 C2792 1.391 . S
C2794 H2784 0.950 . S
C2794 C2795 1.386 . S
C2794 C2796 1.391 . S
C2795 C2794 1.386 . S
C2795 C2799 1.393 . S
C2796 H2785 0.950 . S
C2796 C2794 1.391 . S
C2796 C2797 1.400 . S
C2797 C2791 1.491 . S
C2797 C2796 1.400 . S
C2797 C2798 1.398 . S
C2798 H2786 0.950 . S
C2798 C2797 1.398 . S
C2798 C2799 1.391 . S
C2799 H2787 0.950 . S
C2799 C2795 1.393 . S
C2799 C2798 1.391 . S
H2800 C2808 0.950 . S
H2801 C2813 0.950 . S
H2802 C2810 0.950 . S
H2803 C2812 0.950 . S
H2804 C2814 0.950 . S
H2805 C2816 0.950 . S
H2806 C2818 0.950 . S
H2807 C2819 0.950 . S
C2808 H2800 0.950 . S
C2808 C2809 1.386 . S
C2808 C2810 1.391 . S
C2809 C2808 1.386 . S
C2809 C2813 1.393 . S
C2810 H2802 0.950 . S
C2810 C2808 1.391 . S
C2810 C2811 1.400 . S
C2811 C2810 1.400 . S
C2811 C2812 1.398 . S
C2811 C2817 1.491 . S
C2812 H2803 0.950 . S
C2812 C2811 1.398 . S
C2812 C2813 1.391 . S
C2813 H2801 0.950 . S
C2813 C2809 1.393 . S
C2813 C2812 1.391 . S
C2814 H2804 0.950 . S
C2814 C2815 1.386 . S
C2814 C2816 1.391 . S
C2815 C2814 1.386 . S
C2815 C2819 1.393 . S
C2816 H2805 0.950 . S
C2816 C2814 1.391 . S
C2816 C2817 1.400 . S
C2817 C2811 1.491 . S
C2817 C2816 1.400 . S
C2817 C2818 1.398 . S
C2818 H2806 0.950 . S
C2818 C2817 1.398 . S
C2818 C2819 1.391 . S
C2819 H2807 0.950 . S
C2819 C2815 1.393 . S
C2819 C2818 1.391 . S
H2820 C2828 0.950 . S
H2821 C2833 0.950 . S
H2822 C2830 0.950 . S
H2823 C2832 0.950 . S
H2824 C2834 0.950 . S
H2825 C2836 0.950 . S
H2826 C2838 0.950 . S
H2827 C2839 0.950 . S
C2828 H2820 0.950 . S
C2828 C2829 1.386 . S
C2828 C2830 1.391 . S
C2829 C2828 1.386 . S
C2829 C2833 1.393 . S
C2830 H2822 0.950 . S
C2830 C2828 1.391 . S
C2830 C2831 1.400 . S
C2831 C2830 1.400 . S
C2831 C2832 1.398 . S
C2831 C2837 1.491 . S
C2832 H2823 0.950 . S
C2832 C2831 1.398 . S
C2832 C2833 1.391 . S
C2833 H2821 0.950 . S
C2833 C2829 1.393 . S
C2833 C2832 1.391 . S
C2834 H2824 0.950 . S
C2834 C2835 1.386 . S
C2834 C2836 1.391 . S
C2835 C2834 1.386 . S
C2835 C2839 1.393 . S
C2836 H2825 0.950 . S
C2836 C2834 1.391 . S
C2836 C2837 1.400 . S
C2837 C2831 1.491 . S
C2837 C2836 1.400 . S
C2837 C2838 1.398 . S
C2838 H2826 0.950 . S
C2838 C2837 1.398 . S
C2838 C2839 1.391 . S
C2839 H2827 0.950 . S
C2839 C2835 1.393 . S
C2839 C2838 1.391 . S
H2840 C2848 0.950 . S
H2841 C2853 0.950 . S
H2842 C2850 0.950 . S
H2843 C2852 0.950 . S
H2844 C2854 0.950 . S
H2845 C2856 0.950 . S
H2846 C2858 0.950 . S
H2847 C2859 0.950 . S
C2848 H2840 0.950 . S
C2848 C2849 1.386 . S
C2848 C2850 1.391 . S
C2849 C2848 1.386 . S
C2849 C2853 1.393 . S
C2850 H2842 0.950 . S
C2850 C2848 1.391 . S
C2850 C2851 1.400 . S
C2851 C2850 1.400 . S
C2851 C2852 1.398 . S
C2851 C2857 1.491 . S
C2852 H2843 0.950 . S
C2852 C2851 1.398 . S
C2852 C2853 1.391 . S
C2853 H2841 0.950 . S
C2853 C2849 1.393 . S
C2853 C2852 1.391 . S
C2854 H2844 0.950 . S
C2854 C2855 1.386 . S
C2854 C2856 1.391 . S
C2855 C2854 1.386 . S
C2855 C2859 1.393 . S
C2856 H2845 0.950 . S
C2856 C2854 1.391 . S
C2856 C2857 1.400 . S
C2857 C2851 1.491 . S
C2857 C2856 1.400 . S
C2857 C2858 1.398 . S
C2858 H2846 0.950 . S
C2858 C2857 1.398 . S
C2858 C2859 1.391 . S
C2859 H2847 0.950 . S
C2859 C2855 1.393 . S
C2859 C2858 1.391 . S
H2860 C2868 0.950 . S
H2861 C2873 0.950 . S
H2862 C2870 0.950 . S
H2863 C2872 0.950 . S
H2864 C2874 0.950 . S
H2865 C2876 0.950 . S
H2866 C2878 0.950 . S
H2867 C2879 0.950 . S
C2868 H2860 0.950 . S
C2868 C2869 1.386 . S
C2868 C2870 1.391 . S
C2869 C2868 1.386 . S
C2869 C2873 1.393 . S
C2870 H2862 0.950 . S
C2870 C2868 1.391 . S
C2870 C2871 1.400 . S
C2871 C2870 1.400 . S
C2871 C2872 1.398 . S
C2871 C2877 1.491 . S
C2872 H2863 0.950 . S
C2872 C2871 1.398 . S
C2872 C2873 1.391 . S
C2873 H2861 0.950 . S
C2873 C2869 1.393 . S
C2873 C2872 1.391 . S
C2874 H2864 0.950 . S
C2874 C2875 1.386 . S
C2874 C2876 1.391 . S
C2875 C2874 1.386 . S
C2875 C2879 1.393 . S
C2876 H2865 0.950 . S
C2876 C2874 1.391 . S
C2876 C2877 1.400 . S
C2877 C2871 1.491 . S
C2877 C2876 1.400 . S
C2877 C2878 1.398 . S
C2878 H2866 0.950 . S
C2878 C2877 1.398 . S
C2878 C2879 1.391 . S
C2879 H2867 0.950 . S
C2879 C2875 1.393 . S
C2879 C2878 1.391 . S
H2880 C2888 0.950 . S
H2881 C2893 0.950 . S
H2882 C2890 0.950 . S
H2883 C2892 0.950 . S
H2884 C2894 0.950 . S
H2885 C2896 0.950 . S
H2886 C2898 0.950 . S
H2887 C2899 0.950 . S
C2888 H2880 0.950 . S
C2888 C2889 1.386 . S
C2888 C2890 1.391 . S
C2889 C2888 1.386 . S
C2889 C2893 1.393 . S
C2890 H2882 0.950 . S
C2890 C2888 1.391 . S
C2890 C2891 1.400 . S
C2891 C2890 1.400 . S
C2891 C2892 1.398 . S
C2891 C2897 1.491 . S
C2892 H2883 0.950 . S
C2892 C2891 1.398 . S
C2892 C2893 1.391 . S
C2893 H2881 0.950 . S
C2893 C2889 1.393 . S
C2893 C2892 1.391 . S
C2894 H2884 0.950 . S
C2894 C2895 1.386 . S
C2894 C2896 1.391 . S
C2895 C2894 1.386 . S
C2895 C2899 1.393 . S
C2896 H2885 0.950 . S
C2896 C2894 1.391 . S
C2896 C2897 1.400 . S
C2897 C2891 1.491 . S
C2897 C2896 1.400 . S
C2897 C2898 1.398 . S
C2898 H2886 0.950 . S
C2898 C2897 1.398 . S
C2898 C2899 1.391 . S
C2899 H2887 0.950 . S
C2899 C2895 1.393 . S
C2899 C2898 1.391 . S
H2900 C2908 0.950 . S
H2901 C2913 0.950 . S
H2902 C2910 0.950 . S
H2903 C2912 0.950 . S
H2904 C2914 0.950 . S
H2905 C2916 0.950 . S
H2906 C2918 0.950 . S
H2907 C2919 0.950 . S
C2908 H2900 0.950 . S
C2908 C2909 1.386 . S
C2908 C2910 1.391 . S
C2909 C2908 1.386 . S
C2909 C2913 1.393 . S
C2910 H2902 0.950 . S
C2910 C2908 1.391 . S
C2910 C2911 1.400 . S
C2911 C2910 1.400 . S
C2911 C2912 1.398 . S
C2911 C2917 1.491 . S
C2912 H2903 0.950 . S
C2912 C2911 1.398 . S
C2912 C2913 1.391 . S
C2913 H2901 0.950 . S
C2913 C2909 1.393 . S
C2913 C2912 1.391 . S
C2914 H2904 0.950 . S
C2914 C2915 1.386 . S
C2914 C2916 1.391 . S
C2915 C2914 1.386 . S
C2915 C2919 1.393 . S
C2916 H2905 0.950 . S
C2916 C2914 1.391 . S
C2916 C2917 1.400 . S
C2917 C2911 1.491 . S
C2917 C2916 1.400 . S
C2917 C2918 1.398 . S
C2918 H2906 0.950 . S
C2918 C2917 1.398 . S
C2918 C2919 1.391 . S
C2919 H2907 0.950 . S
C2919 C2915 1.393 . S
C2919 C2918 1.391 . S
H2920 C2928 0.950 . S
H2921 C2933 0.950 . S
H2922 C2930 0.950 . S
H2923 C2932 0.950 . S
H2924 C2934 0.950 . S
H2925 C2936 0.950 . S
H2926 C2938 0.950 . S
H2927 C2939 0.950 . S
C2928 H2920 0.950 . S
C2928 C2929 1.386 . S
C2928 C2930 1.391 . S
C2929 C2928 1.386 . S
C2929 C2933 1.393 . S
C2930 H2922 0.950 . S
C2930 C2928 1.391 . S
C2930 C2931 1.400 . S
C2931 C2930 1.400 . S
C2931 C2932 1.398 . S
C2931 C2937 1.491 . S
C2932 H2923 0.950 . S
C2932 C2931 1.398 . S
C2932 C2933 1.391 . S
C2933 H2921 0.950 . S
C2933 C2929 1.393 . S
C2933 C2932 1.391 . S
C2934 H2924 0.950 . S
C2934 C2935 1.386 . S
C2934 C2936 1.391 . S
C2935 C2934 1.386 . S
C2935 C2939 1.393 . S
C2936 H2925 0.950 . S
C2936 C2934 1.391 . S
C2936 C2937 1.400 . S
C2937 C2931 1.491 . S
C2937 C2936 1.400 . S
C2937 C2938 1.398 . S
C2938 H2926 0.950 . S
C2938 C2937 1.398 . S
C2938 C2939 1.391 . S
C2939 H2927 0.950 . S
C2939 C2935 1.393 . S
C2939 C2938 1.391 . S
H2940 C2948 0.950 . S
H2941 C2953 0.950 . S
H2942 C2950 0.950 . S
H2943 C2952 0.950 . S
H2944 C2954 0.950 . S
H2945 C2956 0.950 . S
H2946 C2958 0.950 . S
H2947 C2959 0.950 . S
C2948 H2940 0.950 . S
C2948 C2949 1.386 . S
C2948 C2950 1.391 . S
C2949 C2948 1.386 . S
C2949 C2953 1.393 . S
C2950 H2942 0.950 . S
C2950 C2948 1.391 . S
C2950 C2951 1.400 . S
C2951 C2950 1.400 . S
C2951 C2952 1.398 . S
C2951 C2957 1.491 . S
C2952 H2943 0.950 . S
C2952 C2951 1.398 . S
C2952 C2953 1.391 . S
C2953 H2941 0.950 . S
C2953 C2949 1.393 . S
C2953 C2952 1.391 . S
C2954 H2944 0.950 . S
C2954 C2955 1.386 . S
C2954 C2956 1.391 . S
C2955 C2954 1.386 . S
C2955 C2959 1.393 . S
C2956 H2945 0.950 . S
C2956 C2954 1.391 . S
C2956 C2957 1.400 . S
C2957 C2951 1.491 . S
C2957 C2956 1.400 . S
C2957 C2958 1.398 . S
C2958 H2946 0.950 . S
C2958 C2957 1.398 . S
C2958 C2959 1.391 . S
C2959 H2947 0.950 . S
C2959 C2955 1.393 . S
C2959 C2958 1.391 . S
H2960 C2968 0.950 . S
H2961 C2973 0.950 . S
H2962 C2970 0.950 . S
H2963 C2972 0.950 . S
H2964 C2974 0.950 . S
H2965 C2976 0.950 . S
H2966 C2978 0.950 . S
H2967 C2979 0.950 . S
C2968 H2960 0.950 . S
C2968 C2969 1.386 . S
C2968 C2970 1.391 . S
C2969 C2968 1.386 . S
C2969 C2973 1.393 . S
C2970 H2962 0.950 . S
C2970 C2968 1.391 . S
C2970 C2971 1.400 . S
C2971 C2970 1.400 . S
C2971 C2972 1.398 . S
C2971 C2977 1.491 . S
C2972 H2963 0.950 . S
C2972 C2971 1.398 . S
C2972 C2973 1.391 . S
C2973 H2961 0.950 . S
C2973 C2969 1.393 . S
C2973 C2972 1.391 . S
C2974 H2964 0.950 . S
C2974 C2975 1.386 . S
C2974 C2976 1.391 . S
C2975 C2974 1.386 . S
C2975 C2979 1.393 . S
C2976 H2965 0.950 . S
C2976 C2974 1.391 . S
C2976 C2977 1.400 . S
C2977 C2971 1.491 . S
C2977 C2976 1.400 . S
C2977 C2978 1.398 . S
C2978 H2966 0.950 . S
C2978 C2977 1.398 . S
C2978 C2979 1.391 . S
C2979 H2967 0.950 . S
C2979 C2975 1.393 . S
C2979 C2978 1.391 . S
H2980 C2988 0.950 . S
H2981 C2993 0.950 . S
H2982 C2990 0.950 . S
H2983 C2992 0.950 . S
H2984 C2994 0.950 . S
H2985 C2996 0.950 . S
H2986 C2998 0.950 . S
H2987 C2999 0.950 . S
C2988 H2980 0.950 . S
C2988 C2989 1.386 . S
C2988 C2990 1.391 . S
C2989 C2988 1.386 . S
C2989 C2993 1.393 . S
C2990 H2982 0.950 . S
C2990 C2988 1.391 . S
C2990 C2991 1.400 . S
C2991 C2990 1.400 . S
C2991 C2992 1.398 . S
C2991 C2997 1.491 . S
C2992 H2983 0.950 . S
C2992 C2991 1.398 . S
C2992 C2993 1.391 . S
C2993 H2981 0.950 . S
C2993 C2989 1.393 . S
C2993 C2992 1.391 . S
C2994 H2984 0.950 . S
C2994 C2995 1.386 . S
C2994 C2996 1.391 . S
C2995 C2994 1.386 . S
C2995 C2999 1.393 . S
C2996 H2985 0.950 . S
C2996 C2994 1.391 . S
C2996 C2997 1.400 . S
C2997 C2991 1.491 . S
C2997 C2996 1.400 . S
C2997 C2998 1.398 . S
C2998 H2986 0.950 . S
C2998 C2997 1.398 . S
C2998 C2999 1.391 . S
C2999 H2987 0.950 . S
C2999 C2995 1.393 . S
C2999 C2998 1.391 . S
H3000 C3008 0.950 . S
H3001 C3013 0.950 . S
H3002 C3010 0.950 . S
H3003 C3012 0.950 . S
H3004 C3014 0.950 . S
H3005 C3016 0.950 . S
H3006 C3018 0.950 . S
H3007 C3019 0.950 . S
C3008 H3000 0.950 . S
C3008 C3009 1.386 . S
C3008 C3010 1.391 . S
C3009 C3008 1.386 . S
C3009 C3013 1.393 . S
C3010 H3002 0.950 . S
C3010 C3008 1.391 . S
C3010 C3011 1.400 . S
C3011 C3010 1.400 . S
C3011 C3012 1.398 . S
C3011 C3017 1.491 . S
C3012 H3003 0.950 . S
C3012 C3011 1.398 . S
C3012 C3013 1.391 . S
C3013 H3001 0.950 . S
C3013 C3009 1.393 . S
C3013 C3012 1.391 . S
C3014 H3004 0.950 . S
C3014 C3015 1.386 . S
C3014 C3016 1.391 . S
C3015 C3014 1.386 . S
C3015 C3019 1.393 . S
C3016 H3005 0.950 . S
C3016 C3014 1.391 . S
C3016 C3017 1.400 . S
C3017 C3011 1.491 . S
C3017 C3016 1.400 . S
C3017 C3018 1.398 . S
C3018 H3006 0.950 . S
C3018 C3017 1.398 . S
C3018 C3019 1.391 . S
C3019 H3007 0.950 . S
C3019 C3015 1.393 . S
C3019 C3018 1.391 . S
H3020 C3028 0.950 . S
H3021 C3033 0.950 . S
H3022 C3030 0.950 . S
H3023 C3032 0.950 . S
H3024 C3034 0.950 . S
H3025 C3036 0.950 . S
H3026 C3038 0.950 . S
H3027 C3039 0.950 . S
C3028 H3020 0.950 . S
C3028 C3029 1.386 1_565 S
C3028 C3030 1.391 . S
C3029 C3028 1.386 1_545 S
C3029 C3033 1.393 . S
C3030 H3022 0.950 . S
C3030 C3028 1.391 . S
C3030 C3031 1.400 . S
C3031 C3030 1.400 . S
C3031 C3032 1.398 . S
C3031 C3037 1.491 . S
C3032 H3023 0.950 . S
C3032 C3031 1.398 . S
C3032 C3033 1.391 1_565 S
C3033 H3021 0.950 . S
C3033 C3029 1.393 . S
C3033 C3032 1.391 1_545 S
C3034 H3024 0.950 . S
C3034 C3035 1.386 . S
C3034 C3036 1.391 . S
C3035 C3034 1.386 . S
C3035 C3039 1.393 . S
C3036 H3025 0.950 . S
C3036 C3034 1.391 . S
C3036 C3037 1.400 . S
C3037 C3031 1.491 . S
C3037 C3036 1.400 . S
C3037 C3038 1.398 . S
C3038 H3026 0.950 . S
C3038 C3037 1.398 . S
C3038 C3039 1.391 . S
C3039 H3027 0.950 . S
C3039 C3035 1.393 . S
C3039 C3038 1.391 . S
H3040 C3048 0.950 . S
H3041 C3053 0.950 . S
H3042 C3050 0.950 . S
H3043 C3052 0.950 . S
H3044 C3054 0.950 . S
H3045 C3056 0.950 . S
H3046 C3058 0.950 . S
H3047 C3059 0.950 . S
C3048 H3040 0.950 . S
C3048 C3049 1.386 . S
C3048 C3050 1.391 . S
C3049 C3048 1.386 . S
C3049 C3053 1.393 . S
C3050 H3042 0.950 . S
C3050 C3048 1.391 . S
C3050 C3051 1.400 . S
C3051 C3050 1.400 . S
C3051 C3052 1.398 . S
C3051 C3057 1.491 . S
C3052 H3043 0.950 . S
C3052 C3051 1.398 . S
C3052 C3053 1.391 . S
C3053 H3041 0.950 . S
C3053 C3049 1.393 . S
C3053 C3052 1.391 . S
C3054 H3044 0.950 . S
C3054 C3055 1.386 . S
C3054 C3056 1.391 . S
C3055 C3054 1.386 . S
C3055 C3059 1.393 . S
C3056 H3045 0.950 . S
C3056 C3054 1.391 . S
C3056 C3057 1.400 . S
C3057 C3051 1.491 . S
C3057 C3056 1.400 . S
C3057 C3058 1.398 . S
C3058 H3046 0.950 . S
C3058 C3057 1.398 . S
C3058 C3059 1.391 . S
C3059 H3047 0.950 . S
C3059 C3055 1.393 . S
C3059 C3058 1.391 . S
H3060 C3068 0.950 . S
H3061 C3073 0.950 . S
H3062 C3070 0.950 . S
H3063 C3072 0.950 . S
H3064 C3074 0.950 . S
H3065 C3076 0.950 . S
H3066 C3078 0.950 . S
H3067 C3079 0.950 . S
C3068 H3060 0.950 . S
C3068 C3069 1.386 . S
C3068 C3070 1.391 . S
C3069 C3068 1.386 . S
C3069 C3073 1.393 . S
C3070 H3062 0.950 . S
C3070 C3068 1.391 . S
C3070 C3071 1.400 . S
C3071 C3070 1.400 . S
C3071 C3072 1.398 . S
C3071 C3077 1.491 . S
C3072 H3063 0.950 . S
C3072 C3071 1.398 . S
C3072 C3073 1.391 . S
C3073 H3061 0.950 . S
C3073 C3069 1.393 . S
C3073 C3072 1.391 . S
C3074 H3064 0.950 . S
C3074 C3075 1.386 . S
C3074 C3076 1.391 . S
C3075 C3074 1.386 . S
C3075 C3079 1.393 . S
C3076 H3065 0.950 . S
C3076 C3074 1.391 . S
C3076 C3077 1.400 . S
C3077 C3071 1.491 . S
C3077 C3076 1.400 . S
C3077 C3078 1.398 . S
C3078 H3066 0.950 . S
C3078 C3077 1.398 . S
C3078 C3079 1.391 . S
C3079 H3067 0.950 . S
C3079 C3075 1.393 . S
C3079 C3078 1.391 . S
H3080 C3088 0.950 . S
H3081 C3093 0.950 . S
H3082 C3090 0.950 . S
H3083 C3092 0.950 . S
H3084 C3094 0.950 . S
H3085 C3096 0.950 . S
H3086 C3098 0.950 . S
H3087 C3099 0.950 . S
C3088 H3080 0.950 . S
C3088 C3089 1.386 . S
C3088 C3090 1.391 . S
C3089 C3088 1.386 . S
C3089 C3093 1.393 . S
C3090 H3082 0.950 . S
C3090 C3088 1.391 . S
C3090 C3091 1.400 . S
C3091 C3090 1.400 . S
C3091 C3092 1.398 . S
C3091 C3097 1.491 . S
C3092 H3083 0.950 . S
C3092 C3091 1.398 . S
C3092 C3093 1.391 . S
C3093 H3081 0.950 . S
C3093 C3089 1.393 . S
C3093 C3092 1.391 . S
C3094 H3084 0.950 . S
C3094 C3095 1.386 . S
C3094 C3096 1.391 . S
C3095 C3094 1.386 . S
C3095 C3099 1.393 . S
C3096 H3085 0.950 . S
C3096 C3094 1.391 . S
C3096 C3097 1.400 . S
C3097 C3091 1.491 . S
C3097 C3096 1.400 . S
C3097 C3098 1.398 . S
C3098 H3086 0.950 . S
C3098 C3097 1.398 . S
C3098 C3099 1.391 . S
C3099 H3087 0.950 . S
C3099 C3095 1.393 . S
C3099 C3098 1.391 . S
H3100 C3108 0.950 . S
H3101 C3113 0.950 . S
H3102 C3110 0.950 . S
H3103 C3112 0.950 . S
H3104 C3114 0.950 . S
H3105 C3116 0.950 . S
H3106 C3118 0.950 . S
H3107 C3119 0.950 . S
C3108 H3100 0.950 . S
C3108 C3109 1.386 . S
C3108 C3110 1.391 . S
C3109 C3108 1.386 . S
C3109 C3113 1.393 . S
C3110 H3102 0.950 . S
C3110 C3108 1.391 . S
C3110 C3111 1.400 . S
C3111 C3110 1.400 . S
C3111 C3112 1.398 . S
C3111 C3117 1.491 . S
C3112 H3103 0.950 . S
C3112 C3111 1.398 . S
C3112 C3113 1.391 . S
C3113 H3101 0.950 . S
C3113 C3109 1.393 . S
C3113 C3112 1.391 . S
C3114 H3104 0.950 . S
C3114 C3115 1.386 . S
C3114 C3116 1.391 . S
C3115 C3114 1.386 . S
C3115 C3119 1.393 . S
C3116 H3105 0.950 . S
C3116 C3114 1.391 . S
C3116 C3117 1.400 . S
C3117 C3111 1.491 . S
C3117 C3116 1.400 . S
C3117 C3118 1.398 . S
C3118 H3106 0.950 . S
C3118 C3117 1.398 . S
C3118 C3119 1.391 . S
C3119 H3107 0.950 . S
C3119 C3115 1.393 . S
C3119 C3118 1.391 . S
H3120 C3128 0.950 . S
H3121 C3133 0.950 . S
H3122 C3130 0.950 . S
H3123 C3132 0.950 . S
H3124 C3134 0.950 . S
H3125 C3136 0.950 . S
H3126 C3138 0.950 . S
H3127 C3139 0.950 . S
C3128 H3120 0.950 . S
C3128 C3129 1.386 . S
C3128 C3130 1.391 . S
C3129 C3128 1.386 . S
C3129 C3133 1.393 . S
C3130 H3122 0.950 . S
C3130 C3128 1.391 . S
C3130 C3131 1.400 . S
C3131 C3130 1.400 . S
C3131 C3132 1.398 . S
C3131 C3137 1.491 . S
C3132 H3123 0.950 . S
C3132 C3131 1.398 . S
C3132 C3133 1.391 . S
C3133 H3121 0.950 . S
C3133 C3129 1.393 . S
C3133 C3132 1.391 . S
C3134 H3124 0.950 . S
C3134 C3135 1.386 . S
C3134 C3136 1.391 . S
C3135 C3134 1.386 . S
C3135 C3139 1.393 . S
C3136 H3125 0.950 . S
C3136 C3134 1.391 . S
C3136 C3137 1.400 . S
C3137 C3131 1.491 . S
C3137 C3136 1.400 . S
C3137 C3138 1.398 . S
C3138 H3126 0.950 . S
C3138 C3137 1.398 . S
C3138 C3139 1.391 . S
C3139 H3127 0.950 . S
C3139 C3135 1.393 . S
C3139 C3138 1.391 . S
H3140 C3148 0.950 . S
H3141 C3153 0.950 . S
H3142 C3150 0.950 . S
H3143 C3152 0.950 . S
H3144 C3154 0.950 . S
H3145 C3156 0.950 . S
H3146 C3158 0.950 . S
H3147 C3159 0.950 . S
C3148 H3140 0.950 . S
C3148 C3149 1.386 . S
C3148 C3150 1.391 . S
C3149 C3148 1.386 . S
C3149 C3153 1.393 . S
C3150 H3142 0.950 . S
C3150 C3148 1.391 . S
C3150 C3151 1.400 . S
C3151 C3150 1.400 . S
C3151 C3152 1.398 . S
C3151 C3157 1.491 . S
C3152 H3143 0.950 . S
C3152 C3151 1.398 . S
C3152 C3153 1.391 . S
C3153 H3141 0.950 . S
C3153 C3149 1.393 . S
C3153 C3152 1.391 . S
C3154 H3144 0.950 . S
C3154 C3155 1.386 . S
C3154 C3156 1.391 . S
C3155 C3154 1.386 . S
C3155 C3159 1.393 . S
C3156 H3145 0.950 . S
C3156 C3154 1.391 . S
C3156 C3157 1.400 . S
C3157 C3151 1.491 . S
C3157 C3156 1.400 . S
C3157 C3158 1.398 . S
C3158 H3146 0.950 . S
C3158 C3157 1.398 . S
C3158 C3159 1.391 . S
C3159 H3147 0.950 . S
C3159 C3155 1.393 . S
C3159 C3158 1.391 . S
H3160 C3168 0.950 . S
H3161 C3173 0.950 . S
H3162 C3170 0.950 . S
H3163 C3172 0.950 . S
H3164 C3174 0.950 . S
H3165 C3176 0.950 . S
H3166 C3178 0.950 . S
H3167 C3179 0.950 . S
C3168 H3160 0.950 . S
C3168 C3169 1.386 . S
C3168 C3170 1.391 . S
C3169 C3168 1.386 . S
C3169 C3173 1.393 . S
C3170 H3162 0.950 . S
C3170 C3168 1.391 . S
C3170 C3171 1.400 . S
C3171 C3170 1.400 . S
C3171 C3172 1.398 . S
C3171 C3177 1.491 . S
C3172 H3163 0.950 . S
C3172 C3171 1.398 . S
C3172 C3173 1.391 . S
C3173 H3161 0.950 . S
C3173 C3169 1.393 . S
C3173 C3172 1.391 . S
C3174 H3164 0.950 . S
C3174 C3175 1.386 . S
C3174 C3176 1.391 . S
C3175 C3174 1.386 . S
C3175 C3179 1.393 . S
C3176 H3165 0.950 . S
C3176 C3174 1.391 . S
C3176 C3177 1.400 . S
C3177 C3171 1.491 . S
C3177 C3176 1.400 . S
C3177 C3178 1.398 . S
C3178 H3166 0.950 . S
C3178 C3177 1.398 . S
C3178 C3179 1.391 . S
C3179 H3167 0.950 . S
C3179 C3175 1.393 . S
C3179 C3178 1.391 . S
H3180 C3188 0.950 . S
H3181 C3193 0.950 . S
H3182 C3190 0.950 . S
H3183 C3192 0.950 . S
H3184 C3194 0.950 . S
H3185 C3196 0.950 . S
H3186 C3198 0.950 . S
H3187 C3199 0.950 . S
C3188 H3180 0.950 . S
C3188 C3189 1.386 . S
C3188 C3190 1.391 . S
C3189 C3188 1.386 . S
C3189 C3193 1.393 . S
C3190 H3182 0.950 . S
C3190 C3188 1.391 . S
C3190 C3191 1.400 . S
C3191 C3190 1.400 . S
C3191 C3192 1.398 . S
C3191 C3197 1.491 . S
C3192 H3183 0.950 . S
C3192 C3191 1.398 . S
C3192 C3193 1.391 . S
C3193 H3181 0.950 . S
C3193 C3189 1.393 . S
C3193 C3192 1.391 . S
C3194 H3184 0.950 . S
C3194 C3195 1.386 . S
C3194 C3196 1.391 . S
C3195 C3194 1.386 . S
C3195 C3199 1.393 . S
C3196 H3185 0.950 . S
C3196 C3194 1.391 . S
C3196 C3197 1.400 . S
C3197 C3191 1.491 . S
C3197 C3196 1.400 . S
C3197 C3198 1.398 . S
C3198 H3186 0.950 . S
C3198 C3197 1.398 . S
C3198 C3199 1.391 . S
C3199 H3187 0.950 . S
C3199 C3195 1.393 . S
C3199 C3198 1.391 . S
H3200 C3208 0.950 . S
H3201 C3213 0.950 . S
H3202 C3210 0.950 . S
H3203 C3212 0.950 . S
H3204 C3214 0.950 . S
H3205 C3216 0.950 . S
H3206 C3218 0.950 . S
H3207 C3219 0.950 . S
C3208 H3200 0.950 . S
C3208 C3209 1.386 . S
C3208 C3210 1.391 . S
C3209 C3208 1.386 . S
C3209 C3213 1.393 . S
C3210 H3202 0.950 . S
C3210 C3208 1.391 . S
C3210 C3211 1.400 . S
C3211 C3210 1.400 . S
C3211 C3212 1.398 . S
C3211 C3217 1.491 . S
C3212 H3203 0.950 . S
C3212 C3211 1.398 . S
C3212 C3213 1.391 . S
C3213 H3201 0.950 . S
C3213 C3209 1.393 . S
C3213 C3212 1.391 . S
C3214 H3204 0.950 . S
C3214 C3215 1.386 . S
C3214 C3216 1.391 . S
C3215 C3214 1.386 . S
C3215 C3219 1.393 . S
C3216 H3205 0.950 . S
C3216 C3214 1.391 . S
C3216 C3217 1.400 . S
C3217 C3211 1.491 . S
C3217 C3216 1.400 . S
C3217 C3218 1.398 . S
C3218 H3206 0.950 . S
C3218 C3217 1.398 . S
C3218 C3219 1.391 . S
C3219 H3207 0.950 . S
C3219 C3215 1.393 . S
C3219 C3218 1.391 . S
H3220 C3228 0.950 . S
H3221 C3233 0.950 . S
H3222 C3230 0.950 . S
H3223 C3232 0.950 . S
H3224 C3234 0.950 . S
H3225 C3236 0.950 . S
H3226 C3238 0.950 . S
H3227 C3239 0.950 . S
C3228 H3220 0.950 . S
C3228 C3229 1.386 . S
C3228 C3230 1.391 . S
C3229 C3228 1.386 . S
C3229 C3233 1.393 . S
C3230 H3222 0.950 . S
C3230 C3228 1.391 . S
C3230 C3231 1.400 . S
C3231 C3230 1.400 . S
C3231 C3232 1.398 . S
C3231 C3237 1.491 . S
C3232 H3223 0.950 . S
C3232 C3231 1.398 . S
C3232 C3233 1.391 . S
C3233 H3221 0.950 . S
C3233 C3229 1.393 . S
C3233 C3232 1.391 . S
C3234 H3224 0.950 . S
C3234 C3235 1.386 . S
C3234 C3236 1.391 . S
C3235 C3234 1.386 . S
C3235 C3239 1.393 . S
C3236 H3225 0.950 . S
C3236 C3234 1.391 . S
C3236 C3237 1.400 . S
C3237 C3231 1.491 . S
C3237 C3236 1.400 . S
C3237 C3238 1.398 . S
C3238 H3226 0.950 . S
C3238 C3237 1.398 . S
C3238 C3239 1.391 . S
C3239 H3227 0.950 . S
C3239 C3235 1.393 . S
C3239 C3238 1.391 . S
H3240 C3248 0.949 1_554 S
H3241 C3253 0.950 . S
H3242 C3250 0.950 . S
H3243 C3252 0.950 . S
H3244 C3254 0.950 . S
H3245 C3256 0.950 . S
H3246 C3258 0.950 . S
H3247 C3259 0.950 . S
C3248 H3240 0.949 1_556 S
C3248 C3249 1.386 . S
C3248 C3250 1.391 . S
C3249 C3248 1.386 . S
C3249 C3253 1.393 . S
C3250 H3242 0.950 . S
C3250 C3248 1.391 . S
C3250 C3251 1.400 . S
C3251 C3250 1.400 . S
C3251 C3252 1.398 . S
C3251 C3257 1.491 . S
C3252 H3243 0.950 . S
C3252 C3251 1.398 . S
C3252 C3253 1.391 . S
C3253 H3241 0.950 . S
C3253 C3249 1.393 . S
C3253 C3252 1.391 . S
C3254 H3244 0.950 . S
C3254 C3255 1.386 . S
C3254 C3256 1.391 . S
C3255 C3254 1.386 . S
C3255 C3259 1.393 . S
C3256 H3245 0.950 . S
C3256 C3254 1.391 . S
C3256 C3257 1.400 . S
C3257 C3251 1.491 . S
C3257 C3256 1.400 . S
C3257 C3258 1.398 . S
C3258 H3246 0.950 . S
C3258 C3257 1.398 . S
C3258 C3259 1.391 . S
C3259 H3247 0.950 . S
C3259 C3255 1.393 . S
C3259 C3258 1.391 . S
H3260 C3268 0.950 1_554 S
H3261 C3273 0.950 . S
H3262 C3270 0.950 . S
H3263 C3272 0.950 . S
H3264 C3274 0.950 . S
H3265 C3276 0.950 . S
H3266 C3278 0.950 . S
H3267 C3279 0.950 . S
C3268 H3260 0.950 1_556 S
C3268 C3269 1.386 . S
C3268 C3270 1.391 . S
C3269 C3268 1.386 . S
C3269 C3273 1.393 . S
C3270 H3262 0.950 . S
C3270 C3268 1.391 . S
C3270 C3271 1.400 . S
C3271 C3270 1.400 . S
C3271 C3272 1.398 . S
C3271 C3277 1.491 . S
C3272 H3263 0.950 . S
C3272 C3271 1.398 . S
C3272 C3273 1.391 . S
C3273 H3261 0.950 . S
C3273 C3269 1.393 . S
C3273 C3272 1.391 . S
C3274 H3264 0.950 . S
C3274 C3275 1.386 . S
C3274 C3276 1.391 . S
C3275 C3274 1.386 . S
C3275 C3279 1.393 . S
C3276 H3265 0.950 . S
C3276 C3274 1.391 . S
C3276 C3277 1.400 . S
C3277 C3271 1.491 . S
C3277 C3276 1.400 . S
C3277 C3278 1.398 . S
C3278 H3266 0.950 . S
C3278 C3277 1.398 . S
C3278 C3279 1.391 . S
C3279 H3267 0.950 . S
C3279 C3275 1.393 . S
C3279 C3278 1.391 . S
H3280 C3288 0.950 . S
H3281 C3293 0.950 . S
H3282 C3290 0.950 . S
H3283 C3292 0.950 . S
H3284 C3294 0.950 . S
H3285 C3296 0.950 . S
H3286 C3298 0.950 . S
H3287 C3299 0.950 . S
C3288 H3280 0.950 . S
C3288 C3289 1.386 . S
C3288 C3290 1.391 . S
C3289 C3288 1.386 . S
C3289 C3293 1.393 . S
C3290 H3282 0.950 . S
C3290 C3288 1.391 . S
C3290 C3291 1.400 . S
C3291 C3290 1.400 . S
C3291 C3292 1.398 . S
C3291 C3297 1.491 . S
C3292 H3283 0.950 . S
C3292 C3291 1.398 . S
C3292 C3293 1.391 . S
C3293 H3281 0.950 . S
C3293 C3289 1.393 . S
C3293 C3292 1.391 . S
C3294 H3284 0.950 . S
C3294 C3295 1.386 . S
C3294 C3296 1.391 . S
C3295 C3294 1.386 . S
C3295 C3299 1.393 . S
C3296 H3285 0.950 . S
C3296 C3294 1.391 . S
C3296 C3297 1.400 . S
C3297 C3291 1.491 . S
C3297 C3296 1.400 . S
C3297 C3298 1.398 . S
C3298 H3286 0.950 . S
C3298 C3297 1.398 . S
C3298 C3299 1.391 . S
C3299 H3287 0.950 . S
C3299 C3295 1.393 . S
C3299 C3298 1.391 . S
H3300 C3308 0.950 . S
H3301 C3313 0.950 . S
H3302 C3310 0.950 . S
H3303 C3312 0.950 . S
H3304 C3314 0.950 . S
H3305 C3316 0.950 . S
H3306 C3318 0.950 . S
H3307 C3319 0.950 . S
C3308 H3300 0.950 . S
C3308 C3309 1.386 . S
C3308 C3310 1.391 . S
C3309 C3308 1.386 . S
C3309 C3313 1.393 . S
C3310 H3302 0.950 . S
C3310 C3308 1.391 . S
C3310 C3311 1.400 . S
C3311 C3310 1.400 . S
C3311 C3312 1.398 . S
C3311 C3317 1.491 . S
C3312 H3303 0.950 . S
C3312 C3311 1.398 . S
C3312 C3313 1.391 . S
C3313 H3301 0.950 . S
C3313 C3309 1.393 . S
C3313 C3312 1.391 . S
C3314 H3304 0.950 . S
C3314 C3315 1.386 . S
C3314 C3316 1.391 . S
C3315 C3314 1.386 . S
C3315 C3319 1.393 . S
C3316 H3305 0.950 . S
C3316 C3314 1.391 . S
C3316 C3317 1.400 . S
C3317 C3311 1.491 . S
C3317 C3316 1.400 . S
C3317 C3318 1.398 . S
C3318 H3306 0.950 . S
C3318 C3317 1.398 . S
C3318 C3319 1.391 . S
C3319 H3307 0.950 . S
C3319 C3315 1.393 . S
C3319 C3318 1.391 . S
H3320 C3328 0.950 . S
H3321 C3333 0.950 . S
H3322 C3330 0.950 . S
H3323 C3332 0.950 . S
H3324 C3334 0.950 . S
H3325 C3336 0.950 . S
H3326 C3338 0.950 . S
H3327 C3339 0.950 . S
C3328 H3320 0.950 . S
C3328 C3329 1.386 . S
C3328 C3330 1.391 . S
C3329 C3328 1.386 . S
C3329 C3333 1.393 . S
C3330 H3322 0.950 . S
C3330 C3328 1.391 . S
C3330 C3331 1.400 . S
C3331 C3330 1.400 . S
C3331 C3332 1.398 . S
C3331 C3337 1.491 . S
C3332 H3323 0.950 . S
C3332 C3331 1.398 . S
C3332 C3333 1.391 . S
C3333 H3321 0.950 . S
C3333 C3329 1.393 . S
C3333 C3332 1.391 . S
C3334 H3324 0.950 . S
C3334 C3335 1.386 . S
C3334 C3336 1.391 . S
C3335 C3334 1.386 . S
C3335 C3339 1.393 . S
C3336 H3325 0.950 . S
C3336 C3334 1.391 . S
C3336 C3337 1.400 . S
C3337 C3331 1.491 . S
C3337 C3336 1.400 . S
C3337 C3338 1.398 . S
C3338 H3326 0.950 . S
C3338 C3337 1.398 . S
C3338 C3339 1.391 . S
C3339 H3327 0.950 . S
C3339 C3335 1.393 . S
C3339 C3338 1.391 . S
H3340 C3348 0.950 . S
H3341 C3353 0.950 . S
H3342 C3350 0.950 . S
H3343 C3352 0.950 . S
H3344 C3354 0.950 . S
H3345 C3356 0.950 . S
H3346 C3358 0.950 . S
H3347 C3359 0.950 . S
C3348 H3340 0.950 . S
C3348 C3349 1.386 . S
C3348 C3350 1.391 . S
C3349 C3348 1.386 . S
C3349 C3353 1.393 . S
C3350 H3342 0.950 . S
C3350 C3348 1.391 . S
C3350 C3351 1.400 . S
C3351 C3350 1.400 . S
C3351 C3352 1.398 . S
C3351 C3357 1.491 . S
C3352 H3343 0.950 . S
C3352 C3351 1.398 . S
C3352 C3353 1.391 . S
C3353 H3341 0.950 . S
C3353 C3349 1.393 . S
C3353 C3352 1.391 . S
C3354 H3344 0.950 . S
C3354 C3355 1.386 . S
C3354 C3356 1.391 . S
C3355 C3354 1.386 . S
C3355 C3359 1.393 . S
C3356 H3345 0.950 . S
C3356 C3354 1.391 . S
C3356 C3357 1.400 . S
C3357 C3351 1.491 . S
C3357 C3356 1.400 . S
C3357 C3358 1.398 . S
C3358 H3346 0.950 . S
C3358 C3357 1.398 . S
C3358 C3359 1.391 . S
C3359 H3347 0.950 . S
C3359 C3355 1.393 . S
C3359 C3358 1.391 . S
H3360 C3368 0.950 . S
H3361 C3373 0.950 . S
H3362 C3370 0.950 . S
H3363 C3372 0.950 . S
H3364 C3374 0.950 . S
H3365 C3376 0.950 . S
H3366 C3378 0.950 . S
H3367 C3379 0.950 . S
C3368 H3360 0.950 . S
C3368 C3369 1.386 . S
C3368 C3370 1.391 . S
C3369 C3368 1.386 . S
C3369 C3373 1.393 . S
C3370 H3362 0.950 . S
C3370 C3368 1.391 . S
C3370 C3371 1.400 . S
C3371 C3370 1.400 . S
C3371 C3372 1.398 . S
C3371 C3377 1.491 . S
C3372 H3363 0.950 . S
C3372 C3371 1.398 . S
C3372 C3373 1.391 . S
C3373 H3361 0.950 . S
C3373 C3369 1.393 . S
C3373 C3372 1.391 . S
C3374 H3364 0.950 . S
C3374 C3375 1.386 . S
C3374 C3376 1.391 . S
C3375 C3374 1.386 . S
C3375 C3379 1.393 . S
C3376 H3365 0.950 . S
C3376 C3374 1.391 . S
C3376 C3377 1.400 . S
C3377 C3371 1.491 . S
C3377 C3376 1.400 . S
C3377 C3378 1.398 . S
C3378 H3366 0.950 . S
C3378 C3377 1.398 . S
C3378 C3379 1.391 . S
C3379 H3367 0.950 . S
C3379 C3375 1.393 . S
C3379 C3378 1.391 . S
H3380 C3388 0.950 . S
H3381 C3393 0.952 . S
H3382 C3390 0.950 . S
H3383 C3392 0.950 . S
H3384 C3394 0.950 . S
H3385 C3396 0.950 . S
H3386 C3398 0.950 . S
H3387 C3399 0.950 . S
C3388 H3380 0.950 . S
C3388 C3389 1.386 . S
C3388 C3390 1.391 . S
C3389 C3388 1.386 . S
C3389 C3393 1.392 1_565 S
C3390 H3382 0.950 . S
C3390 C3388 1.391 . S
C3390 C3391 1.400 . S
C3391 C3390 1.400 . S
C3391 C3392 1.398 . S
C3391 C3397 1.491 . S
C3392 H3383 0.950 . S
C3392 C3391 1.398 . S
C3392 C3393 1.389 1_565 S
C3393 H3381 0.952 . S
C3393 C3389 1.392 1_545 S
C3393 C3392 1.389 1_545 S
C3394 H3384 0.950 . S
C3394 C3395 1.386 . S
C3394 C3396 1.391 . S
C3395 C3394 1.386 . S
C3395 C3399 1.393 . S
C3396 H3385 0.950 . S
C3396 C3394 1.391 . S
C3396 C3397 1.400 . S
C3397 C3391 1.491 . S
C3397 C3396 1.400 . S
C3397 C3398 1.398 . S
C3398 H3386 0.950 . S
C3398 C3397 1.398 . S
C3398 C3399 1.391 . S
C3399 H3387 0.950 . S
C3399 C3395 1.393 . S
C3399 C3398 1.391 . S
H3400 C3408 0.950 . S
H3401 C3413 0.950 . S
H3402 C3410 0.950 . S
H3403 C3412 0.950 . S
H3404 C3414 0.950 . S
H3405 C3416 0.950 . S
H3406 C3418 0.950 . S
H3407 C3419 0.950 . S
C3408 H3400 0.950 . S
C3408 C3409 1.386 . S
C3408 C3410 1.391 . S
C3409 C3408 1.386 . S
C3409 C3413 1.393 . S
C3410 H3402 0.950 . S
C3410 C3408 1.391 . S
C3410 C3411 1.400 . S
C3411 C3410 1.400 . S
C3411 C3412 1.398 . S
C3411 C3417 1.491 . S
C3412 H3403 0.950 . S
C3412 C3411 1.398 . S
C3412 C3413 1.391 . S
C3413 H3401 0.950 . S
C3413 C3409 1.393 . S
C3413 C3412 1.391 . S
C3414 H3404 0.950 . S
C3414 C3415 1.386 . S
C3414 C3416 1.391 . S
C3415 C3414 1.386 . S
C3415 C3419 1.393 . S
C3416 H3405 0.950 . S
C3416 C3414 1.391 . S
C3416 C3417 1.400 . S
C3417 C3411 1.491 . S
C3417 C3416 1.400 . S
C3417 C3418 1.398 . S
C3418 H3406 0.950 . S
C3418 C3417 1.398 . S
C3418 C3419 1.391 . S
C3419 H3407 0.950 . S
C3419 C3415 1.393 . S
C3419 C3418 1.391 . S
H3420 C3428 0.950 . S
H3421 C3433 0.950 . S
H3422 C3430 0.950 . S
H3423 C3432 0.950 . S
H3424 C3434 0.950 . S
H3425 C3436 0.950 . S
H3426 C3438 0.950 . S
H3427 C3439 0.950 . S
C3428 H3420 0.950 . S
C3428 C3429 1.386 . S
C3428 C3430 1.391 . S
C3429 C3428 1.386 . S
C3429 C3433 1.393 . S
C3430 H3422 0.950 . S
C3430 C3428 1.391 . S
C3430 C3431 1.400 . S
C3431 C3430 1.400 . S
C3431 C3432 1.398 . S
C3431 C3437 1.491 . S
C3432 H3423 0.950 . S
C3432 C3431 1.398 . S
C3432 C3433 1.391 . S
C3433 H3421 0.950 . S
C3433 C3429 1.393 . S
C3433 C3432 1.391 . S
C3434 H3424 0.950 . S
C3434 C3435 1.386 . S
C3434 C3436 1.391 . S
C3435 C3434 1.386 . S
C3435 C3439 1.393 . S
C3436 H3425 0.950 . S
C3436 C3434 1.391 . S
C3436 C3437 1.400 . S
C3437 C3431 1.491 . S
C3437 C3436 1.400 . S
C3437 C3438 1.398 . S
C3438 H3426 0.950 . S
C3438 C3437 1.398 . S
C3438 C3439 1.391 . S
C3439 H3427 0.950 . S
C3439 C3435 1.393 . S
C3439 C3438 1.391 . S
H3440 C3448 0.950 . S
H3441 C3453 0.950 . S
H3442 C3450 0.950 . S
H3443 C3452 0.950 . S
H3444 C3454 0.950 . S
H3445 C3456 0.950 . S
H3446 C3458 0.950 . S
H3447 C3459 0.950 . S
C3448 H3440 0.950 . S
C3448 C3449 1.386 . S
C3448 C3450 1.391 . S
C3449 C3448 1.386 . S
C3449 C3453 1.393 . S
C3450 H3442 0.950 . S
C3450 C3448 1.391 . S
C3450 C3451 1.400 . S
C3451 C3450 1.400 . S
C3451 C3452 1.398 . S
C3451 C3457 1.491 . S
C3452 H3443 0.950 . S
C3452 C3451 1.398 . S
C3452 C3453 1.391 . S
C3453 H3441 0.950 . S
C3453 C3449 1.393 . S
C3453 C3452 1.391 . S
C3454 H3444 0.950 . S
C3454 C3455 1.386 . S
C3454 C3456 1.391 . S
C3455 C3454 1.386 . S
C3455 C3459 1.393 . S
C3456 H3445 0.950 . S
C3456 C3454 1.391 . S
C3456 C3457 1.400 . S
C3457 C3451 1.491 . S
C3457 C3456 1.400 . S
C3457 C3458 1.398 . S
C3458 H3446 0.950 . S
C3458 C3457 1.398 . S
C3458 C3459 1.391 . S
C3459 H3447 0.950 . S
C3459 C3455 1.393 . S
C3459 C3458 1.391 . S
H3460 C3468 0.950 . S
H3461 C3473 0.950 . S
H3462 C3470 0.950 . S
H3463 C3472 0.950 . S
H3464 C3474 0.950 . S
H3465 C3476 0.950 . S
H3466 C3478 0.950 . S
H3467 C3479 0.950 . S
C3468 H3460 0.950 . S
C3468 C3469 1.386 . S
C3468 C3470 1.391 . S
C3469 C3468 1.386 . S
C3469 C3473 1.393 . S
C3470 H3462 0.950 . S
C3470 C3468 1.391 . S
C3470 C3471 1.400 . S
C3471 C3470 1.400 . S
C3471 C3472 1.398 . S
C3471 C3477 1.491 . S
C3472 H3463 0.950 . S
C3472 C3471 1.398 . S
C3472 C3473 1.391 . S
C3473 H3461 0.950 . S
C3473 C3469 1.393 . S
C3473 C3472 1.391 . S
C3474 H3464 0.950 . S
C3474 C3475 1.386 . S
C3474 C3476 1.391 . S
C3475 C3474 1.386 . S
C3475 C3479 1.393 . S
C3476 H3465 0.950 . S
C3476 C3474 1.391 . S
C3476 C3477 1.400 . S
C3477 C3471 1.491 . S
C3477 C3476 1.400 . S
C3477 C3478 1.398 . S
C3478 H3466 0.950 . S
C3478 C3477 1.398 . S
C3478 C3479 1.391 . S
C3479 H3467 0.950 . S
C3479 C3475 1.393 . S
C3479 C3478 1.391 . S
H3480 C3488 0.950 . S
H3481 C3493 0.950 . S
H3482 C3490 0.950 . S
H3483 C3492 0.950 . S
H3484 C3494 0.950 . S
H3485 C3496 0.950 . S
H3486 C3498 0.950 . S
H3487 C3499 0.950 . S
C3488 H3480 0.950 . S
C3488 C3489 1.386 . S
C3488 C3490 1.391 . S
C3489 C3488 1.386 . S
C3489 C3493 1.393 . S
C3490 H3482 0.950 . S
C3490 C3488 1.391 . S
C3490 C3491 1.400 . S
C3491 C3490 1.400 . S
C3491 C3492 1.398 . S
C3491 C3497 1.491 . S
C3492 H3483 0.950 . S
C3492 C3491 1.398 . S
C3492 C3493 1.391 . S
C3493 H3481 0.950 . S
C3493 C3489 1.393 . S
C3493 C3492 1.391 . S
C3494 H3484 0.950 . S
C3494 C3495 1.386 . S
C3494 C3496 1.391 . S
C3495 C3494 1.386 . S
C3495 C3499 1.393 . S
C3496 H3485 0.950 . S
C3496 C3494 1.391 . S
C3496 C3497 1.400 . S
C3497 C3491 1.491 . S
C3497 C3496 1.400 . S
C3497 C3498 1.398 . S
C3498 H3486 0.950 . S
C3498 C3497 1.398 . S
C3498 C3499 1.391 . S
C3499 H3487 0.950 . S
C3499 C3495 1.393 . S
C3499 C3498 1.391 . S
H3500 C3508 0.950 . S
H3501 C3513 0.950 . S
H3502 C3510 0.950 . S
H3503 C3512 0.950 . S
H3504 C3514 0.950 . S
H3505 C3516 0.950 . S
H3506 C3518 0.950 . S
H3507 C3519 0.950 . S
C3508 H3500 0.950 . S
C3508 C3509 1.386 . S
C3508 C3510 1.391 . S
C3509 C3508 1.386 . S
C3509 C3513 1.393 . S
C3510 H3502 0.950 . S
C3510 C3508 1.391 . S
C3510 C3511 1.400 . S
C3511 C3510 1.400 . S
C3511 C3512 1.398 . S
C3511 C3517 1.491 . S
C3512 H3503 0.950 . S
C3512 C3511 1.398 . S
C3512 C3513 1.391 . S
C3513 H3501 0.950 . S
C3513 C3509 1.393 . S
C3513 C3512 1.391 . S
C3514 H3504 0.950 . S
C3514 C3515 1.386 . S
C3514 C3516 1.391 . S
C3515 C3514 1.386 . S
C3515 C3519 1.393 . S
C3516 H3505 0.950 . S
C3516 C3514 1.391 . S
C3516 C3517 1.400 . S
C3517 C3511 1.491 . S
C3517 C3516 1.400 . S
C3517 C3518 1.398 . S
C3518 H3506 0.950 . S
C3518 C3517 1.398 . S
C3518 C3519 1.391 . S
C3519 H3507 0.950 . S
C3519 C3515 1.393 . S
C3519 C3518 1.391 . S
H3520 C3528 0.950 . S
H3521 C3533 0.950 . S
H3522 C3530 0.950 . S
H3523 C3532 0.950 . S
H3524 C3534 0.950 . S
H3525 C3536 0.950 . S
H3526 C3538 0.950 . S
H3527 C3539 0.950 . S
C3528 H3520 0.950 . S
C3528 C3529 1.386 . S
C3528 C3530 1.391 . S
C3529 C3528 1.386 . S
C3529 C3533 1.393 . S
C3530 H3522 0.950 . S
C3530 C3528 1.391 . S
C3530 C3531 1.400 . S
C3531 C3530 1.400 . S
C3531 C3532 1.398 . S
C3531 C3537 1.491 . S
C3532 H3523 0.950 . S
C3532 C3531 1.398 . S
C3532 C3533 1.391 . S
C3533 H3521 0.950 . S
C3533 C3529 1.393 . S
C3533 C3532 1.391 . S
C3534 H3524 0.950 . S
C3534 C3535 1.386 . S
C3534 C3536 1.391 . S
C3535 C3534 1.386 . S
C3535 C3539 1.393 . S
C3536 H3525 0.950 . S
C3536 C3534 1.391 . S
C3536 C3537 1.400 . S
C3537 C3531 1.491 . S
C3537 C3536 1.400 . S
C3537 C3538 1.398 . S
C3538 H3526 0.950 . S
C3538 C3537 1.398 . S
C3538 C3539 1.391 . S
C3539 H3527 0.950 . S
C3539 C3535 1.393 . S
C3539 C3538 1.391 . S
H3540 C3548 0.950 . S
H3541 C3553 0.950 . S
H3542 C3550 0.950 . S
H3543 C3552 0.950 . S
H3544 C3554 0.950 . S
H3545 C3556 0.950 . S
H3546 C3558 0.950 . S
H3547 C3559 0.950 . S
C3548 H3540 0.950 . S
C3548 C3549 1.386 . S
C3548 C3550 1.391 . S
C3549 C3548 1.386 . S
C3549 C3553 1.393 . S
C3550 H3542 0.950 . S
C3550 C3548 1.391 . S
C3550 C3551 1.400 . S
C3551 C3550 1.400 . S
C3551 C3552 1.398 . S
C3551 C3557 1.491 . S
C3552 H3543 0.950 . S
C3552 C3551 1.398 . S
C3552 C3553 1.391 . S
C3553 H3541 0.950 . S
C3553 C3549 1.393 . S
C3553 C3552 1.391 . S
C3554 H3544 0.950 . S
C3554 C3555 1.386 . S
C3554 C3556 1.391 . S
C3555 C3554 1.386 . S
C3555 C3559 1.393 . S
C3556 H3545 0.950 . S
C3556 C3554 1.391 . S
C3556 C3557 1.400 . S
C3557 C3551 1.491 . S
C3557 C3556 1.400 . S
C3557 C3558 1.398 . S
C3558 H3546 0.950 . S
C3558 C3557 1.398 . S
C3558 C3559 1.391 . S
C3559 H3547 0.950 . S
C3559 C3555 1.393 . S
C3559 C3558 1.391 . S
H3560 C3568 0.950 . S
H3561 C3573 0.950 . S
H3562 C3570 0.950 . S
H3563 C3572 0.950 . S
H3564 C3574 0.950 . S
H3565 C3576 0.950 . S
H3566 C3578 0.950 . S
H3567 C3579 0.950 . S
C3568 H3560 0.950 . S
C3568 C3569 1.386 . S
C3568 C3570 1.391 . S
C3569 C3568 1.386 . S
C3569 C3573 1.393 . S
C3570 H3562 0.950 . S
C3570 C3568 1.391 . S
C3570 C3571 1.400 . S
C3571 C3570 1.400 . S
C3571 C3572 1.398 . S
C3571 C3577 1.491 . S
C3572 H3563 0.950 . S
C3572 C3571 1.398 . S
C3572 C3573 1.391 . S
C3573 H3561 0.950 . S
C3573 C3569 1.393 . S
C3573 C3572 1.391 . S
C3574 H3564 0.950 . S
C3574 C3575 1.386 . S
C3574 C3576 1.391 . S
C3575 C3574 1.386 . S
C3575 C3579 1.393 . S
C3576 H3565 0.950 . S
C3576 C3574 1.391 . S
C3576 C3577 1.400 . S
C3577 C3571 1.491 . S
C3577 C3576 1.400 . S
C3577 C3578 1.398 . S
C3578 H3566 0.950 . S
C3578 C3577 1.398 . S
C3578 C3579 1.391 . S
C3579 H3567 0.950 . S
C3579 C3575 1.393 . S
C3579 C3578 1.391 . S
H3580 C3588 0.950 . S
H3581 C3593 0.950 . S
H3582 C3590 0.950 . S
H3583 C3592 0.950 . S
H3584 C3594 0.950 . S
H3585 C3596 0.950 . S
H3586 C3598 0.950 . S
H3587 C3599 0.950 . S
C3588 H3580 0.950 . S
C3588 C3589 1.386 . S
C3588 C3590 1.391 . S
C3589 C3588 1.386 . S
C3589 C3593 1.393 . S
C3590 H3582 0.950 . S
C3590 C3588 1.391 . S
C3590 C3591 1.400 . S
C3591 C3590 1.400 . S
C3591 C3592 1.398 . S
C3591 C3597 1.491 . S
C3592 H3583 0.950 . S
C3592 C3591 1.398 . S
C3592 C3593 1.391 . S
C3593 H3581 0.950 . S
C3593 C3589 1.393 . S
C3593 C3592 1.391 . S
C3594 H3584 0.950 . S
C3594 C3595 1.386 . S
C3594 C3596 1.391 . S
C3595 C3594 1.386 . S
C3595 C3599 1.393 . S
C3596 H3585 0.950 . S
C3596 C3594 1.391 . S
C3596 C3597 1.400 . S
C3597 C3591 1.491 . S
C3597 C3596 1.400 . S
C3597 C3598 1.398 . S
C3598 H3586 0.950 . S
C3598 C3597 1.398 . S
C3598 C3599 1.391 . S
C3599 H3587 0.950 . S
C3599 C3595 1.393 . S
C3599 C3598 1.391 . S
H3600 C3608 0.950 . S
H3601 C3613 0.950 . S
H3602 C3610 0.950 . S
H3603 C3612 0.950 . S
H3604 C3614 0.950 . S
H3605 C3616 0.950 . S
H3606 C3618 0.950 . S
H3607 C3619 0.950 . S
C3608 H3600 0.950 . S
C3608 C3609 1.386 . S
C3608 C3610 1.391 . S
C3609 C3608 1.386 . S
C3609 C3613 1.393 . S
C3610 H3602 0.950 . S
C3610 C3608 1.391 . S
C3610 C3611 1.400 . S
C3611 C3610 1.400 . S
C3611 C3612 1.398 . S
C3611 C3617 1.491 . S
C3612 H3603 0.950 . S
C3612 C3611 1.398 . S
C3612 C3613 1.391 . S
C3613 H3601 0.950 . S
C3613 C3609 1.393 . S
C3613 C3612 1.391 . S
C3614 H3604 0.950 . S
C3614 C3615 1.386 . S
C3614 C3616 1.391 . S
C3615 C3614 1.386 . S
C3615 C3619 1.393 . S
C3616 H3605 0.950 . S
C3616 C3614 1.391 . S
C3616 C3617 1.400 . S
C3617 C3611 1.491 . S
C3617 C3616 1.400 . S
C3617 C3618 1.398 . S
C3618 H3606 0.950 . S
C3618 C3617 1.398 . S
C3618 C3619 1.391 . S
C3619 H3607 0.950 . S
C3619 C3615 1.393 . S
C3619 C3618 1.391 . S
H3620 C3628 0.950 . S
H3621 C3633 0.950 . S
H3622 C3630 0.950 . S
H3623 C3632 0.950 . S
H3624 C3634 0.950 . S
H3625 C3636 0.950 . S
H3626 C3638 0.950 . S
H3627 C3639 0.950 . S
C3628 H3620 0.950 . S
C3628 C3629 1.386 . S
C3628 C3630 1.391 . S
C3629 C3628 1.386 . S
C3629 C3633 1.393 . S
C3630 H3622 0.950 . S
C3630 C3628 1.391 . S
C3630 C3631 1.400 . S
C3631 C3630 1.400 . S
C3631 C3632 1.398 . S
C3631 C3637 1.491 . S
C3632 H3623 0.950 . S
C3632 C3631 1.398 . S
C3632 C3633 1.391 . S
C3633 H3621 0.950 . S
C3633 C3629 1.393 . S
C3633 C3632 1.391 . S
C3634 H3624 0.950 . S
C3634 C3635 1.386 . S
C3634 C3636 1.391 . S
C3635 C3634 1.386 . S
C3635 C3639 1.393 . S
C3636 H3625 0.950 . S
C3636 C3634 1.391 . S
C3636 C3637 1.400 . S
C3637 C3631 1.491 . S
C3637 C3636 1.400 . S
C3637 C3638 1.398 . S
C3638 H3626 0.950 . S
C3638 C3637 1.398 . S
C3638 C3639 1.391 . S
C3639 H3627 0.950 . S
C3639 C3635 1.393 . S
C3639 C3638 1.391 . S
H3640 C3648 0.950 . S
H3641 C3653 0.950 . S
H3642 C3650 0.950 . S
H3643 C3652 0.950 . S
H3644 C3654 0.950 . S
H3645 C3656 0.950 . S
H3646 C3658 0.950 . S
H3647 C3659 0.950 . S
C3648 H3640 0.950 . S
C3648 C3649 1.386 . S
C3648 C3650 1.391 . S
C3649 C3648 1.386 . S
C3649 C3653 1.393 . S
C3650 H3642 0.950 . S
C3650 C3648 1.391 . S
C3650 C3651 1.400 . S
C3651 C3650 1.400 . S
C3651 C3652 1.398 . S
C3651 C3657 1.491 . S
C3652 H3643 0.950 . S
C3652 C3651 1.398 . S
C3652 C3653 1.391 . S
C3653 H3641 0.950 . S
C3653 C3649 1.393 . S
C3653 C3652 1.391 . S
C3654 H3644 0.950 . S
C3654 C3655 1.386 . S
C3654 C3656 1.391 . S
C3655 C3654 1.386 . S
C3655 C3659 1.393 . S
C3656 H3645 0.950 . S
C3656 C3654 1.391 . S
C3656 C3657 1.400 . S
C3657 C3651 1.491 . S
C3657 C3656 1.400 . S
C3657 C3658 1.398 . S
C3658 H3646 0.950 . S
C3658 C3657 1.398 . S
C3658 C3659 1.391 . S
C3659 H3647 0.950 . S
C3659 C3655 1.393 . S
C3659 C3658 1.391 . S
H3660 C3668 0.950 . S
H3661 C3673 0.950 . S
H3662 C3670 0.950 . S
H3663 C3672 0.950 . S
H3664 C3674 0.950 . S
H3665 C3676 0.950 . S
H3666 C3678 0.950 . S
H3667 C3679 0.950 . S
C3668 H3660 0.950 . S
C3668 C3669 1.386 . S
C3668 C3670 1.391 . S
C3669 C3668 1.386 . S
C3669 C3673 1.393 . S
C3670 H3662 0.950 . S
C3670 C3668 1.391 . S
C3670 C3671 1.400 . S
C3671 C3670 1.400 . S
C3671 C3672 1.398 . S
C3671 C3677 1.491 . S
C3672 H3663 0.950 . S
C3672 C3671 1.398 . S
C3672 C3673 1.391 . S
C3673 H3661 0.950 . S
C3673 C3669 1.393 . S
C3673 C3672 1.391 . S
C3674 H3664 0.950 . S
C3674 C3675 1.386 . S
C3674 C3676 1.391 . S
C3675 C3674 1.386 . S
C3675 C3679 1.393 . S
C3676 H3665 0.950 . S
C3676 C3674 1.391 . S
C3676 C3677 1.400 . S
C3677 C3671 1.491 . S
C3677 C3676 1.400 . S
C3677 C3678 1.398 . S
C3678 H3666 0.950 . S
C3678 C3677 1.398 . S
C3678 C3679 1.391 . S
C3679 H3667 0.950 . S
C3679 C3675 1.393 . S
C3679 C3678 1.391 . S
H3680 C3688 0.950 . S
H3681 C3693 0.950 . S
H3682 C3690 0.950 . S
H3683 C3692 0.950 . S
H3684 C3694 0.950 . S
H3685 C3696 0.950 . S
H3686 C3698 0.950 . S
H3687 C3699 0.950 . S
C3688 H3680 0.950 . S
C3688 C3689 1.386 . S
C3688 C3690 1.391 . S
C3689 C3688 1.386 . S
C3689 C3693 1.393 . S
C3690 H3682 0.950 . S
C3690 C3688 1.391 . S
C3690 C3691 1.400 . S
C3691 C3690 1.400 . S
C3691 C3692 1.398 . S
C3691 C3697 1.491 . S
C3692 H3683 0.950 . S
C3692 C3691 1.398 . S
C3692 C3693 1.391 . S
C3693 H3681 0.950 . S
C3693 C3689 1.393 . S
C3693 C3692 1.391 . S
C3694 H3684 0.950 . S
C3694 C3695 1.386 . S
C3694 C3696 1.391 . S
C3695 C3694 1.386 . S
C3695 C3699 1.393 . S
C3696 H3685 0.950 . S
C3696 C3694 1.391 . S
C3696 C3697 1.400 . S
C3697 C3691 1.491 . S
C3697 C3696 1.400 . S
C3697 C3698 1.398 . S
C3698 H3686 0.950 . S
C3698 C3697 1.398 . S
C3698 C3699 1.391 . S
C3699 H3687 0.950 . S
C3699 C3695 1.393 . S
C3699 C3698 1.391 . S
H3700 C3708 0.950 . S
H3701 C3713 0.950 . S
H3702 C3710 0.950 . S
H3703 C3712 0.950 . S
H3704 C3714 0.950 . S
H3705 C3716 0.950 . S
H3706 C3718 0.950 . S
H3707 C3719 0.950 . S
C3708 H3700 0.950 . S
C3708 C3709 1.386 . S
C3708 C3710 1.391 . S
C3709 C3708 1.386 . S
C3709 C3713 1.393 . S
C3710 H3702 0.950 . S
C3710 C3708 1.391 . S
C3710 C3711 1.400 . S
C3711 C3710 1.400 . S
C3711 C3712 1.398 . S
C3711 C3717 1.491 . S
C3712 H3703 0.950 . S
C3712 C3711 1.398 . S
C3712 C3713 1.391 . S
C3713 H3701 0.950 . S
C3713 C3709 1.393 . S
C3713 C3712 1.391 . S
C3714 H3704 0.950 . S
C3714 C3715 1.386 . S
C3714 C3716 1.391 . S
C3715 C3714 1.386 . S
C3715 C3719 1.393 . S
C3716 H3705 0.950 . S
C3716 C3714 1.391 . S
C3716 C3717 1.400 . S
C3717 C3711 1.491 . S
C3717 C3716 1.400 . S
C3717 C3718 1.398 . S
C3718 H3706 0.950 . S
C3718 C3717 1.398 . S
C3718 C3719 1.391 . S
C3719 H3707 0.950 . S
C3719 C3715 1.393 . S
C3719 C3718 1.391 . S
H3720 C3728 0.950 . S
H3721 C3733 0.950 . S
H3722 C3730 0.950 . S
H3723 C3732 0.950 . S
H3724 C3734 0.950 . S
H3725 C3736 0.950 . S
H3726 C3738 0.950 . S
H3727 C3739 0.950 . S
C3728 H3720 0.950 . S
C3728 C3729 1.386 . S
C3728 C3730 1.391 . S
C3729 C3728 1.386 . S
C3729 C3733 1.393 . S
C3730 H3722 0.950 . S
C3730 C3728 1.391 . S
C3730 C3731 1.400 . S
C3731 C3730 1.400 . S
C3731 C3732 1.398 . S
C3731 C3737 1.491 . S
C3732 H3723 0.950 . S
C3732 C3731 1.398 . S
C3732 C3733 1.391 . S
C3733 H3721 0.950 . S
C3733 C3729 1.393 . S
C3733 C3732 1.391 . S
C3734 H3724 0.950 . S
C3734 C3735 1.386 . S
C3734 C3736 1.391 . S
C3735 C3734 1.386 . S
C3735 C3739 1.393 . S
C3736 H3725 0.950 . S
C3736 C3734 1.391 . S
C3736 C3737 1.400 . S
C3737 C3731 1.491 . S
C3737 C3736 1.400 . S
C3737 C3738 1.398 . S
C3738 H3726 0.950 . S
C3738 C3737 1.398 . S
C3738 C3739 1.391 . S
C3739 H3727 0.950 . S
C3739 C3735 1.393 . S
C3739 C3738 1.391 . S
H3740 C3748 0.950 . S
H3741 C3753 0.950 . S
H3742 C3750 0.950 . S
H3743 C3752 0.950 . S
H3744 C3754 0.950 . S
H3745 C3756 0.950 . S
H3746 C3758 0.950 . S
H3747 C3759 0.950 . S
C3748 H3740 0.950 . S
C3748 C3749 1.386 . S
C3748 C3750 1.391 . S
C3749 C3748 1.386 . S
C3749 C3753 1.393 . S
C3750 H3742 0.950 . S
C3750 C3748 1.391 . S
C3750 C3751 1.400 . S
C3751 C3750 1.400 . S
C3751 C3752 1.398 . S
C3751 C3757 1.491 . S
C3752 H3743 0.950 . S
C3752 C3751 1.398 . S
C3752 C3753 1.391 . S
C3753 H3741 0.950 . S
C3753 C3749 1.393 . S
C3753 C3752 1.391 . S
C3754 H3744 0.950 . S
C3754 C3755 1.386 . S
C3754 C3756 1.391 . S
C3755 C3754 1.386 . S
C3755 C3759 1.393 . S
C3756 H3745 0.950 . S
C3756 C3754 1.391 . S
C3756 C3757 1.400 . S
C3757 C3751 1.491 . S
C3757 C3756 1.400 . S
C3757 C3758 1.398 . S
C3758 H3746 0.950 . S
C3758 C3757 1.398 . S
C3758 C3759 1.391 . S
C3759 H3747 0.950 . S
C3759 C3755 1.393 . S
C3759 C3758 1.391 . S
H3760 C3768 0.950 . S
H3761 C3773 0.950 . S
H3762 C3770 0.950 . S
H3763 C3772 0.950 . S
H3764 C3774 0.950 . S
H3765 C3776 0.950 . S
H3766 C3778 0.950 . S
H3767 C3779 0.950 . S
C3768 H3760 0.950 . S
C3768 C3769 1.386 . S
C3768 C3770 1.391 . S
C3769 C3768 1.386 . S
C3769 C3773 1.393 . S
C3770 H3762 0.950 . S
C3770 C3768 1.391 . S
C3770 C3771 1.400 . S
C3771 C3770 1.400 . S
C3771 C3772 1.398 . S
C3771 C3777 1.491 . S
C3772 H3763 0.950 . S
C3772 C3771 1.398 . S
C3772 C3773 1.391 . S
C3773 H3761 0.950 . S
C3773 C3769 1.393 . S
C3773 C3772 1.391 . S
C3774 H3764 0.950 . S
C3774 C3775 1.386 . S
C3774 C3776 1.391 . S
C3775 C3774 1.386 . S
C3775 C3779 1.393 . S
C3776 H3765 0.950 . S
C3776 C3774 1.391 . S
C3776 C3777 1.400 . S
C3777 C3771 1.491 . S
C3777 C3776 1.400 . S
C3777 C3778 1.398 . S
C3778 H3766 0.950 . S
C3778 C3777 1.398 . S
C3778 C3779 1.391 . S
C3779 H3767 0.950 . S
C3779 C3775 1.393 . S
C3779 C3778 1.391 . S
H3780 C3788 0.950 . S
H3781 C3793 0.950 . S
H3782 C3790 0.950 . S
H3783 C3792 0.950 . S
H3784 C3794 0.950 . S
H3785 C3796 0.950 . S
H3786 C3798 0.950 . S
H3787 C3799 0.950 . S
C3788 H3780 0.950 . S
C3788 C3789 1.386 . S
C3788 C3790 1.391 . S
C3789 C3788 1.386 . S
C3789 C3793 1.393 . S
C3790 H3782 0.950 . S
C3790 C3788 1.391 . S
C3790 C3791 1.400 . S
C3791 C3790 1.400 . S
C3791 C3792 1.398 . S
C3791 C3797 1.491 . S
C3792 H3783 0.950 . S
C3792 C3791 1.398 . S
C3792 C3793 1.391 . S
C3793 H3781 0.950 . S
C3793 C3789 1.393 . S
C3793 C3792 1.391 . S
C3794 H3784 0.950 . S
C3794 C3795 1.386 . S
C3794 C3796 1.391 . S
C3795 C3794 1.386 . S
C3795 C3799 1.393 . S
C3796 H3785 0.950 . S
C3796 C3794 1.391 . S
C3796 C3797 1.400 . S
C3797 C3791 1.491 . S
C3797 C3796 1.400 . S
C3797 C3798 1.398 . S
C3798 H3786 0.950 . S
C3798 C3797 1.398 . S
C3798 C3799 1.391 . S
C3799 H3787 0.950 . S
C3799 C3795 1.393 . S
C3799 C3798 1.391 . S
H3800 C3808 0.950 1_554 S
H3801 C3813 0.950 . S
H3802 C3810 0.950 . S
H3803 C3812 0.950 . S
H3804 C3814 0.950 . S
H3805 C3816 0.950 . S
H3806 C3818 0.950 . S
H3807 C3819 0.950 . S
C3808 H3800 0.950 1_556 S
C3808 C3809 1.386 . S
C3808 C3810 1.391 . S
C3809 C3808 1.386 . S
C3809 C3813 1.393 . S
C3810 H3802 0.950 . S
C3810 C3808 1.391 . S
C3810 C3811 1.400 . S
C3811 C3810 1.400 . S
C3811 C3812 1.398 . S
C3811 C3817 1.491 . S
C3812 H3803 0.950 . S
C3812 C3811 1.398 . S
C3812 C3813 1.391 . S
C3813 H3801 0.950 . S
C3813 C3809 1.393 . S
C3813 C3812 1.391 . S
C3814 H3804 0.950 . S
C3814 C3815 1.386 . S
C3814 C3816 1.391 . S
C3815 C3814 1.386 . S
C3815 C3819 1.393 . S
C3816 H3805 0.950 . S
C3816 C3814 1.391 . S
C3816 C3817 1.400 . S
C3817 C3811 1.491 . S
C3817 C3816 1.400 . S
C3817 C3818 1.398 . S
C3818 H3806 0.950 . S
C3818 C3817 1.398 . S
C3818 C3819 1.391 . S
C3819 H3807 0.950 . S
C3819 C3815 1.393 . S
C3819 C3818 1.391 . S
H3820 C3828 0.950 . S
H3821 C3833 0.950 . S
H3822 C3830 0.950 . S
H3823 C3832 0.950 . S
H3824 C3834 0.950 . S
H3825 C3836 0.950 . S
H3826 C3838 0.950 . S
H3827 C3839 0.950 . S
C3828 H3820 0.950 . S
C3828 C3829 1.386 . S
C3828 C3830 1.391 . S
C3829 C3828 1.386 . S
C3829 C3833 1.393 . S
C3830 H3822 0.950 . S
C3830 C3828 1.391 . S
C3830 C3831 1.400 . S
C3831 C3830 1.400 . S
C3831 C3832 1.398 . S
C3831 C3837 1.491 . S
C3832 H3823 0.950 . S
C3832 C3831 1.398 . S
C3832 C3833 1.391 . S
C3833 H3821 0.950 . S
C3833 C3829 1.393 . S
C3833 C3832 1.391 . S
C3834 H3824 0.950 . S
C3834 C3835 1.386 . S
C3834 C3836 1.391 . S
C3835 C3834 1.386 . S
C3835 C3839 1.393 . S
C3836 H3825 0.950 . S
C3836 C3834 1.391 . S
C3836 C3837 1.400 . S
C3837 C3831 1.491 . S
C3837 C3836 1.400 . S
C3837 C3838 1.398 . S
C3838 H3826 0.950 . S
C3838 C3837 1.398 . S
C3838 C3839 1.391 . S
C3839 H3827 0.950 . S
C3839 C3835 1.393 . S
C3839 C3838 1.391 . S
C969 C128 2.459 . S
C975 C8 2.459 1_455 S
C989 C149 2.437 . S
C995 C28 2.492 . S
C1009 C88 2.475 . S
C1015 C48 2.474 . S
C1029 C108 2.447 . S
C1035 C68 2.448 . S
C1049 C208 2.486 . S
C1055 C168 2.485 . S
C1069 C228 2.465 . S
C1075 C188 2.454 . S
C1089 C289 2.454 . S
C1095 C248 2.487 . S
C1109 C308 2.457 . S
C1115 C268 2.467 . S
C1129 C348 2.471 . S
C1135 C328 2.477 . S
C1149 C468 2.480 . S
C1155 C368 2.478 . S
C1169 C429 2.428 . S
C1175 C389 2.426 . S
C1189 C408 2.473 . S
C1195 C448 2.475 1_554 S
C1209 C488 2.470 . S
C1215 C608 2.469 . S
C1229 C508 2.495 . S
C1235 C629 2.433 . S
C1249 C528 2.479 . S
C1255 C568 2.481 . S
C1269 C548 2.442 . S
C1275 C588 2.439 . S
C1289 C648 2.481 . S
C1295 C688 2.476 . S
C1309 C668 2.454 . S
C1315 C708 2.460 . S
C1329 C728 2.487 . S
C1335 C769 2.454 . S
C1349 C788 2.462 . S
C1355 C748 2.466 . S
C1369 C808 2.473 . S
C1375 C828 2.465 . S
C1389 C948 2.479 . S
C1395 C848 2.482 . S
C1409 C869 2.434 . S
C1415 C909 2.438 . S
C1429 C888 2.463 . S
C1435 C928 2.468 . S
C1449 C9 2.878 . S
C1455 C189 2.874 . S
C1469 C29 2.883 . S
C1475 C209 2.899 . S
C1489 C49 2.913 . S
C1495 C229 2.938 . S
C1509 C169 2.895 . S
C1515 C69 2.920 . S
C1529 C309 2.816 . S
C1535 C89 2.802 . S
C1549 C249 2.899 . S
C1555 C109 2.926 . S
C1569 C269 2.938 . S
C1575 C129 2.947 . S
C1589 C148 2.963 . S
C1595 C288 2.972 1_545 S
C1609 C369 3.002 . S
C1615 C329 3.031 . S
C1629 C449 2.794 . S
C1635 C349 2.781 . S
C1649 C388 2.756 . S
C1655 C469 2.690 . S
C1669 C428 3.061 1_554 S
C1675 C409 3.052 . S
C1689 C489 2.894 . S
C1695 C669 2.866 . S
C1709 C689 2.883 . S
C1715 C509 2.880 . S
C1729 C709 2.940 . S
C1735 C529 2.912 . S
C1749 C549 2.905 . S
C1755 C649 2.908 . S
C1769 C789 2.817 . S
C1775 C569 2.800 . S
C1789 C589 2.926 . S
C1795 C729 2.899 . S
C1809 C609 2.954 . S
C1815 C749 2.932 . S
C1829 C628 2.975 . S
C1835 C768 2.960 . S
C1849 C809 3.034 . S
C1855 C849 2.999 . S
C1869 C929 2.796 . S
C1875 C829 2.761 . S
C1889 C949 2.692 . S
C1895 C868 2.755 . S
C1909 C889 3.052 . S
C1915 C908 3.061 . S
C1929 C18 0.893 . S
C1935 C62 0.911 . S
C1949 C2 0.610 . S
C1955 C38 0.533 . S
C1969 C58 0.904 . S
C1975 C22 0.926 . S
C1989 C78 0.568 . S
C1995 C42 0.555 . S
C2009 C102 0.779 . S
C2015 C98 0.837 . S
C2029 C122 0.622 . S
C2035 C118 0.647 . S
C2049 C138 1.062 . S
C2055 C159 1.033 . S
C2069 C82 0.466 . S
C2075 C141 0.578 . S
C2089 C178 0.648 . S
C2095 C362 0.711 . S
C2109 C198 1.019 . S
C2115 C399 1.029 . S
C2129 C218 0.815 1_565 S
C2135 C402 0.826 . S
C2149 C238 0.780 . S
C2155 C342 0.765 . S
C2169 C258 0.562 . S
C2175 C442 0.584 . S
C2189 C322 0.839 . S
C2195 C278 0.814 . S
C2209 C462 0.575 . S
C2215 C281 0.548 . S
C2229 C318 1.178 . S
C2235 C439 1.170 . S
C2249 C338 0.790 . S
C2255 C182 0.779 . S
C2269 C358 0.600 . S
C2275 C302 0.612 . S
C2289 C378 0.936 1_556 S
C2295 C242 0.867 . S
C2309 C262 0.556 . S
C2315 C381 0.445 . S
C2329 C299 0.942 . S
C2335 C418 0.975 . S
C2349 C222 0.484 . S
C2355 C421 0.622 . S
C2369 C162 0.736 . S
C2375 C458 0.787 . S
C2389 C478 0.617 . S
C2395 C202 0.587 . S
C2409 C498 0.905 . S
C2415 C542 0.891 . S
C2429 C518 0.521 . S
C2435 C482 0.620 . S
C2449 C502 0.926 . S
C2455 C538 0.904 . S
C2469 C522 0.551 . S
C2475 C558 0.566 . S
C2489 C578 0.812 . S
C2495 C582 0.812 . S
C2509 C602 0.664 . S
C2515 C598 0.613 . S
C2529 C639 1.048 . S
C2535 C618 1.055 . S
C2549 C621 0.508 . S
C2555 C562 0.538 . S
C2569 C658 0.653 . S
C2575 C842 0.696 . S
C2589 C879 1.052 . S
C2595 C678 0.997 . S
C2609 C882 0.845 . S
C2615 C698 0.811 . S
C2629 C718 0.798 . S
C2635 C822 0.770 . S
C2649 C922 0.590 . S
C2655 C738 0.558 . S
C2669 C758 0.812 . S
C2675 C802 0.844 . S
C2689 C761 0.606 . S
C2695 C942 0.537 . S
C2709 C798 1.195 . S
C2715 C919 1.147 . S
C2729 C662 0.764 . S
C2735 C818 0.814 . S
C2749 C782 0.577 . S
C2755 C838 0.608 . S
C2769 C722 0.917 . S
C2775 C858 0.903 . S
C2789 C861 0.480 . S
C2795 C742 0.511 . S
C2809 C779 0.962 . S
C2815 C898 0.952 . S
C2829 C901 0.577 . S
C2835 C702 0.531 . S
C2849 C938 0.752 . S
C2855 C642 0.789 . S
C2869 C682 0.652 . S
C2875 C958 0.578 . S
C2889 C1 0.494 . S
C2895 C881 0.503 . S
C2909 C821 0.625 . S
C2915 C21 0.632 . S
C2929 C41 0.508 . S
C2935 C841 0.539 . S
C2949 C61 0.943 . S
C2955 C878 0.963 . S
C2969 C81 0.498 . S
C2975 C941 0.495 . S
C2989 C101 0.948 . S
C2995 C918 0.963 . S
C3009 C121 0.538 . S
C3015 C921 0.529 . S
C3029 C158 0.987 . S
C3035 C801 0.981 . S
C3049 C161 0.474 . S
C3055 C781 0.462 . S
C3069 C181 0.571 . S
C3075 C721 0.556 . S
C3089 C201 0.545 . S
C3095 C741 0.528 . S
C3109 C221 0.810 . S
C3115 C778 0.827 . S
C3129 C241 0.540 . S
C3135 C661 0.549 . S
C3149 C261 0.531 . S
C3155 C681 0.501 . S
C3169 C298 0.859 . S
C3175 C701 0.841 . S
C3189 C301 0.551 . S
C3195 C641 0.555 . S
C3209 C321 0.943 . S
C3215 C638 0.965 . S
C3229 C341 0.570 . S
C3235 C501 0.595 . S
C3249 C361 0.534 . S
C3255 C521 0.504 . S
C3269 C398 0.950 1_556 S
C3275 C541 0.938 . S
C3289 C401 0.513 . S
C3295 C481 0.543 . S
C3309 C438 0.972 . S
C3315 C581 0.944 . S
C3329 C441 0.562 . S
C3335 C601 0.555 . S
C3349 C461 0.577 . S
C3355 C561 0.554 . S
C3369 C99 1.529 . S
C3375 C859 1.530 . S
C3389 C119 0.814 . S
C3395 C862 0.774 . S
C3409 C139 1.669 . S
C3415 C899 1.666 . S
C3429 C142 0.798 . S
C3435 C839 0.803 . S
C3449 C19 1.630 . S
C3455 C939 1.638 . S
C3469 C39 1.351 . S
C3475 C819 1.344 . S
C3489 C59 1.437 . S
C3495 C959 1.439 . S
C3509 C902 0.839 . S
C3515 C79 0.833 . S
C3529 C282 0.907 . S
C3535 C679 0.923 . S
C3549 C319 1.688 . S
C3555 C699 1.683 . S
C3569 C259 1.341 . S
C3575 C719 1.341 . S
C3589 C279 1.538 . S
C3595 C659 1.544 . S
C3609 C219 1.678 . S
C3615 C799 1.682 . S
C3629 C239 1.335 . S
C3635 C739 1.344 . S
C3649 C179 1.546 . S
C3655 C759 1.542 . S
C3669 C199 0.945 . S
C3675 C762 0.942 . S
C3689 C422 0.819 . S
C3695 C559 0.816 . S
C3709 C382 0.773 . S
C3715 C599 0.792 . S
C3729 C419 1.674 . S
C3735 C619 1.671 . S
C3749 C359 0.804 . S
C3755 C622 0.808 . S
C3769 C379 1.532 . S
C3775 C579 1.529 . S
C3789 C339 1.354 . S
C3795 C519 1.352 . S
C3809 C479 1.438 . S
C3815 C539 1.443 . S
C3829 C459 1.634 . S
C3835 C499 1.630 . S
