# Generated by pormake.
# Topology vbp, (6)-cn, num edge types: 1
# Building blocks:
#     Node 0, Type 0, BuildingBlock: IZENUY_clean_sbu_0, # of connection points: 6
#     Node 1, Type 0, BuildingBlock: IZENUY_clean_sbu_0, # of connection points: 6
#     Node 2, Type 0, BuildingBlock: IZENUY_clean_sbu_0, # of connection points: 6
#     Node 3, Type 0, BuildingBlock: IZENUY_clean_sbu_0, # of connection points: 6
#     Node 4, Type 0, BuildingBlock: IZENUY_clean_sbu_0, # of connection points: 6
#     Node 5, Type 0, BuildingBlock: IZENUY_clean_sbu_0, # of connection points: 6
#     Node 6, Type 0, BuildingBlock: IZENUY_clean_sbu_0, # of connection points: 6
#     Node 7, Type 0, BuildingBlock: IZENUY_clean_sbu_0, # of connection points: 6
#     Node 8, Type 0, BuildingBlock: IZENUY_clean_sbu_0, # of connection points: 6
#     Node 9, Type 0, BuildingBlock: IZENUY_clean_sbu_0, # of connection points: 6
#     Node 10, Type 0, BuildingBlock: IZENUY_clean_sbu_0, # of connection points: 6
#     Node 11, Type 0, BuildingBlock: IZENUY_clean_sbu_0, # of connection points: 6
#     Node 12, Type 0, BuildingBlock: IZENUY_clean_sbu_0, # of connection points: 6
#     Node 13, Type 0, BuildingBlock: IZENUY_clean_sbu_0, # of connection points: 6
#     Node 14, Type 0, BuildingBlock: IZENUY_clean_sbu_0, # of connection points: 6
#     Node 15, Type 0, BuildingBlock: IZENUY_clean_sbu_0, # of connection points: 6
#     Edge 16, Type (0, 0), BuildingBlock: OJICUG_clean_linker_0, # of connection points: 2
#     Edge 17, Type (0, 0), BuildingBlock: OJICUG_clean_linker_0, # of connection points: 2
#     Edge 18, Type (0, 0), BuildingBlock: OJICUG_clean_linker_0, # of connection points: 2
#     Edge 19, Type (0, 0), BuildingBlock: OJICUG_clean_linker_0, # of connection points: 2
#     Edge 20, Type (0, 0), BuildingBlock: OJICUG_clean_linker_0, # of connection points: 2
#     Edge 21, Type (0, 0), BuildingBlock: OJICUG_clean_linker_0, # of connection points: 2
#     Edge 22, Type (0, 0), BuildingBlock: OJICUG_clean_linker_0, # of connection points: 2
#     Edge 23, Type (0, 0), BuildingBlock: OJICUG_clean_linker_0, # of connection points: 2
#     Edge 24, Type (0, 0), BuildingBlock: OJICUG_clean_linker_0, # of connection points: 2
#     Edge 25, Type (0, 0), BuildingBlock: OJICUG_clean_linker_0, # of connection points: 2
#     Edge 26, Type (0, 0), BuildingBlock: OJICUG_clean_linker_0, # of connection points: 2
#     Edge 27, Type (0, 0), BuildingBlock: OJICUG_clean_linker_0, # of connection points: 2
#     Edge 28, Type (0, 0), BuildingBlock: OJICUG_clean_linker_0, # of connection points: 2
#     Edge 29, Type (0, 0), BuildingBlock: OJICUG_clean_linker_0, # of connection points: 2
#     Edge 30, Type (0, 0), BuildingBlock: OJICUG_clean_linker_0, # of connection points: 2
#     Edge 31, Type (0, 0), BuildingBlock: OJICUG_clean_linker_0, # of connection points: 2
#     Edge 32, Type (0, 0), BuildingBlock: OJICUG_clean_linker_0, # of connection points: 2
#     Edge 33, Type (0, 0), BuildingBlock: OJICUG_clean_linker_0, # of connection points: 2
#     Edge 34, Type (0, 0), BuildingBlock: OJICUG_clean_linker_0, # of connection points: 2
#     Edge 35, Type (0, 0), BuildingBlock: OJICUG_clean_linker_0, # of connection points: 2
#     Edge 36, Type (0, 0), BuildingBlock: OJICUG_clean_linker_0, # of connection points: 2
#     Edge 37, Type (0, 0), BuildingBlock: OJICUG_clean_linker_0, # of connection points: 2
#     Edge 38, Type (0, 0), BuildingBlock: OJICUG_clean_linker_0, # of connection points: 2
#     Edge 39, Type (0, 0), BuildingBlock: OJICUG_clean_linker_0, # of connection points: 2
#     Edge 40, Type (0, 0), BuildingBlock: OJICUG_clean_linker_0, # of connection points: 2
#     Edge 41, Type (0, 0), BuildingBlock: OJICUG_clean_linker_0, # of connection points: 2
#     Edge 42, Type (0, 0), BuildingBlock: OJICUG_clean_linker_0, # of connection points: 2
#     Edge 43, Type (0, 0), BuildingBlock: OJICUG_clean_linker_0, # of connection points: 2
#     Edge 44, Type (0, 0), BuildingBlock: OJICUG_clean_linker_0, # of connection points: 2
#     Edge 45, Type (0, 0), BuildingBlock: OJICUG_clean_linker_0, # of connection points: 2
#     Edge 46, Type (0, 0), BuildingBlock: OJICUG_clean_linker_0, # of connection points: 2
#     Edge 47, Type (0, 0), BuildingBlock: OJICUG_clean_linker_0, # of connection points: 2
#     Edge 48, Type (0, 0), BuildingBlock: OJICUG_clean_linker_0, # of connection points: 2
#     Edge 49, Type (0, 0), BuildingBlock: OJICUG_clean_linker_0, # of connection points: 2
#     Edge 50, Type (0, 0), BuildingBlock: OJICUG_clean_linker_0, # of connection points: 2
#     Edge 51, Type (0, 0), BuildingBlock: OJICUG_clean_linker_0, # of connection points: 2
#     Edge 52, Type (0, 0), BuildingBlock: OJICUG_clean_linker_0, # of connection points: 2
#     Edge 53, Type (0, 0), BuildingBlock: OJICUG_clean_linker_0, # of connection points: 2
#     Edge 54, Type (0, 0), BuildingBlock: OJICUG_clean_linker_0, # of connection points: 2
#     Edge 55, Type (0, 0), BuildingBlock: OJICUG_clean_linker_0, # of connection points: 2
#     Edge 56, Type (0, 0), BuildingBlock: OJICUG_clean_linker_0, # of connection points: 2
#     Edge 57, Type (0, 0), BuildingBlock: OJICUG_clean_linker_0, # of connection points: 2
#     Edge 58, Type (0, 0), BuildingBlock: OJICUG_clean_linker_0, # of connection points: 2
#     Edge 59, Type (0, 0), BuildingBlock: OJICUG_clean_linker_0, # of connection points: 2
#     Edge 60, Type (0, 0), BuildingBlock: OJICUG_clean_linker_0, # of connection points: 2
#     Edge 61, Type (0, 0), BuildingBlock: OJICUG_clean_linker_0, # of connection points: 2
#     Edge 62, Type (0, 0), BuildingBlock: OJICUG_clean_linker_0, # of connection points: 2
#     Edge 63, Type (0, 0), BuildingBlock: OJICUG_clean_linker_0, # of connection points: 2
# Relax obj value: 0.269
# Max RMSD: 0.259
# Mean RMSD: 0.259
data_MOF--net-vbp--node1-IZENUY_clean_sbu_0--edge1-OJICUG_clean_linker_0
_symmetry_space_group_name_H-M    P1
_symmetry_Int_Tables_number       1
_symmetry_cell_setting            triclinic
loop_
_symmetry_equiv_pos_as_xyz
'x, y, z'
_cell_length_a     21.317792
_cell_length_b     29.660706
_cell_length_c     38.464278
_cell_angle_alpha  89.932964
_cell_angle_beta   90.001661
_cell_angle_gamma 89.992385
loop_
_atom_site_label
_atom_site_type_symbol
_atom_site_fract_x
_atom_site_fract_y
_atom_site_fract_z
_atom_type_partial_charge
Fe0 Fe 0.32646 0.16602 0.17183 0.0
Fe1 Fe 0.44368 0.16467 0.12454 0.0
O2 O 0.38787 0.13593 0.15104 0.0
Fe3 Fe 0.39483 0.07647 0.15577 0.0
O4 O 0.31204 0.06432 0.16145 0.0
O5 O 0.26533 0.12946 0.15475 0.0
O6 O 0.31048 0.20211 0.1324 0.0
C7 C 0.32989 0.19841 0.10085 0.0
C8 C 0.36931 0.10081 0.22284 0.0
O9 O 0.38336 0.18228 0.09454 0.0
C10 C 0.52093 0.1053 0.15754 0.0
O11 O 0.38168 0.20638 0.19223 0.0
O12 O 0.44157 0.21786 0.14702 0.0
O13 O 0.4057 0.08144 0.20184 0.0
O14 O 0.33151 0.13187 0.2129 0.0
C15 C 0.42061 0.08626 0.08762 0.0
O16 O 0.50927 0.14678 0.15238 0.0
O17 O 0.47944 0.07593 0.15189 0.0
C18 C 0.42629 0.22714 0.17756 0.0
O19 O 0.45588 0.11803 0.09644 0.0
O20 O 0.38475 0.06768 0.1094 0.0
C21 C 0.26322 0.08707 0.15667 0.0
Fe22 Fe 0.55896 0.44224 0.12517 0.0
Fe23 Fe 0.60794 0.53015 0.15666 0.0
O24 O 0.61479 0.47071 0.15177 0.0
Fe25 Fe 0.67615 0.44041 0.17249 0.0
O26 O 0.6921 0.40458 0.13297 0.0
O27 O 0.61925 0.42473 0.09515 0.0
O28 O 0.54696 0.48911 0.09719 0.0
C29 C 0.5824 0.52085 0.08847 0.0
C30 C 0.57623 0.37931 0.17801 0.0
O31 O 0.61815 0.5393 0.11033 0.0
C32 C 0.63332 0.50526 0.22367 0.0
O33 O 0.49337 0.46001 0.15303 0.0
O34 O 0.52335 0.53083 0.15271 0.0
O35 O 0.62088 0.39992 0.19275 0.0
O36 O 0.56087 0.3889 0.14753 0.0
C37 C 0.7395 0.51943 0.15755 0.0
O38 O 0.59694 0.5248 0.20271 0.0
O39 O 0.67112 0.47428 0.21365 0.0
C40 C 0.48178 0.50147 0.15826 0.0
O41 O 0.69072 0.54217 0.16244 0.0
O42 O 0.73734 0.47706 0.15551 0.0
C43 C 0.67267 0.40846 0.10143 0.0
Fe44 Fe 0.39773 1.0303 0.42208 0.0
Fe45 Fe 0.32835 0.9412 0.40576 0.0
O46 O 0.39021 0.97084 0.42655 0.0
Fe47 Fe 0.44591 0.94155 0.4528 0.0
O48 O 0.45913 0.9879 0.48102 0.0
O49 O 0.38852 1.03881 0.46854 0.0
O50 O 0.31491 1.04293 0.41686 0.0
C51 C 0.26587 1.02032 0.4214 0.0
C52 C 0.5236 1.00062 0.41978 0.0
O53 O 0.26766 0.97791 0.42311 0.0
C54 C 0.42746 0.87959 0.39959 0.0
O55 O 0.40783 1.02571 0.37592 0.0
O56 O 0.33324 0.97564 0.36484 0.0
O57 O 0.51151 0.95917 0.42486 0.0
O58 O 0.48245 1.03024 0.42553 0.0
C59 C 0.33194 0.90835 0.4766 0.0
O60 O 0.38309 0.90076 0.38504 0.0
O61 O 0.44283 0.8885 0.43017 0.0
C62 C 0.37098 1.00674 0.35495 0.0
O63 O 0.31241 0.90487 0.44506 0.0
O64 O 0.38557 0.92423 0.4829 0.0
C65 C 0.42454 1.0199 0.49007 0.0
Fe66 Fe 0.55674 0.6652 0.45319 0.0
Fe67 Fe 0.60452 0.57616 0.42293 0.0
O68 O 0.61229 0.63562 0.42709 0.0
Fe69 Fe 0.67425 0.66504 0.40613 0.0
O70 O 0.69033 0.70154 0.44527 0.0
O71 O 0.61717 0.68245 0.48322 0.0
O72 O 0.54311 0.61906 0.4816 0.0
C73 C 0.57739 0.58695 0.49084 0.0
C74 C 0.57543 0.72684 0.39971 0.0
O75 O 0.61346 0.56788 0.46946 0.0
C76 C 0.63154 0.59925 0.35566 0.0
O77 O 0.49105 0.64766 0.42531 0.0
O78 O 0.51977 0.57649 0.42625 0.0
O79 O 0.61962 0.70546 0.38522 0.0
O80 O 0.5602 0.71816 0.43036 0.0
C81 C 0.73649 0.58589 0.42218 0.0
O82 O 0.59464 0.58044 0.37673 0.0
O83 O 0.66926 0.63041 0.36538 0.0
C84 C 0.47878 0.60622 0.42037 0.0
O85 O 0.68735 0.5633 0.41789 0.0
O86 O 0.73484 0.62832 0.42364 0.0
C87 C 0.67084 0.6982 0.47684 0.0
Fe88 Fe 0.55722 0.9415 0.95285 0.0
Fe89 Fe 0.67471 0.94091 0.90576 0.0
O90 O 0.61295 0.97066 0.92654 0.0
Fe91 Fe 0.60556 1.03012 0.92202 0.0
O92 O 0.61491 1.03869 0.96846 0.0
O93 O 0.54417 0.98791 0.98103 0.0
O94 O 0.61754 0.92412 0.98293 0.0
C95 C 0.67113 0.90818 0.97663 0.0
C96 C 0.47964 1.00064 0.91978 0.0
O97 O 0.69063 0.90462 0.94509 0.0
C98 C 0.63215 1.00643 0.85491 0.0
O99 O 0.56011 0.88841 0.93026 0.0
O100 O 0.61985 0.90049 0.8851 0.0
O101 O 0.52086 1.0302 0.92553 0.0
O102 O 0.49162 0.95918 0.92491 0.0
C103 C 0.73738 1.01998 0.92132 0.0
O104 O 0.66984 0.9753 0.86481 0.0
O105 O 0.59535 1.02546 0.87588 0.0
C106 C 0.57544 0.87941 0.89968 0.0
O107 O 0.73551 0.97757 0.92306 0.0
O108 O 0.68839 1.04264 0.91673 0.0
C109 C 0.57887 1.01988 0.99003 0.0
Fe110 Fe 0.32792 0.66511 0.90593 0.0
Fe111 Fe 0.3974 0.57609 0.92262 0.0
O112 O 0.38976 0.63555 0.92688 0.0
Fe113 Fe 0.44532 0.66496 0.95308 0.0
O114 O 0.38488 0.68221 0.9831 0.0
O115 O 0.31182 0.7015 0.94513 0.0
O116 O 0.26722 0.62841 0.92333 0.0
C117 C 0.26549 0.58599 0.9218 0.0
C118 C 0.42692 0.72681 0.8997 0.0
O119 O 0.31459 0.56337 0.91746 0.0
C120 C 0.52318 0.60597 0.92018 0.0
O121 O 0.33294 0.63058 0.86512 0.0
O122 O 0.40748 0.58052 0.87645 0.0
O123 O 0.44207 0.718 0.93035 0.0
O124 O 0.3827 0.70553 0.88514 0.0
C125 C 0.42424 0.58667 0.99057 0.0
O126 O 0.48213 0.57629 0.92605 0.0
O127 O 0.511 0.64741 0.92519 0.0
C128 C 0.37064 0.59939 0.85538 0.0
O129 O 0.38823 0.5677 0.96912 0.0
O130 O 0.45874 0.61869 0.98141 0.0
C131 C 0.33124 0.69804 0.97671 0.0
Fe132 Fe 0.55952 0.16454 0.62455 0.0
Fe133 Fe 0.67666 0.16596 0.67193 0.0
O134 O 0.61534 0.13584 0.65108 0.0
Fe135 Fe 0.6085 0.07637 0.65578 0.0
O136 O 0.61878 0.06763 0.60943 0.0
O137 O 0.54755 0.1179 0.59641 0.0
O138 O 0.61985 0.18226 0.59461 0.0
C139 C 0.67331 0.19838 0.60095 0.0
C140 C 0.48235 0.10505 0.65747 0.0
O141 O 0.6927 0.20205 0.63251 0.0
C142 C 0.63376 0.10068 0.72289 0.0
O143 O 0.56139 0.2177 0.64707 0.0
O144 O 0.62135 0.20632 0.69227 0.0
O145 O 0.52391 0.07573 0.6518 0.0
O146 O 0.49391 0.14654 0.65234 0.0
C147 C 0.74007 0.08705 0.65682 0.0
O148 O 0.67152 0.13179 0.713 0.0
O149 O 0.59744 0.08132 0.70184 0.0
C150 C 0.57671 0.22704 0.67759 0.0
O151 O 0.7379 0.12943 0.65491 0.0
O152 O 0.69127 0.06428 0.66157 0.0
C153 C 0.58292 0.08617 0.58763 0.0
Fe154 Fe 0.44318 0.44219 0.62502 0.0
Fe155 Fe 0.32614 0.44 0.67247 0.0
O156 O 0.38722 0.47046 0.65166 0.0
Fe157 Fe 0.39366 0.52992 0.65651 0.0
O158 O 0.38295 0.53896 0.61021 0.0
O159 O 0.45448 0.48906 0.59693 0.0
O160 O 0.38292 0.42431 0.59512 0.0
C161 C 0.32959 0.40795 0.60145 0.0
C162 C 0.52 0.50184 0.6579 0.0
O163 O 0.31022 0.40411 0.633 0.0
C164 C 0.36891 0.50503 0.72356 0.0
O165 O 0.44193 0.38891 0.64748 0.0
O166 O 0.3817 0.39963 0.69267 0.0
O167 O 0.47817 0.53098 0.65231 0.0
O168 O 0.50874 0.46033 0.65276 0.0
C169 C 0.26226 0.51882 0.65758 0.0
O170 O 0.3312 0.47394 0.71362 0.0
O171 O 0.4051 0.52462 0.70253 0.0
C172 C 0.42651 0.3792 0.67794 0.0
O173 O 0.26467 0.47646 0.65553 0.0
O174 O 0.3109 0.54166 0.66253 0.0
C175 C 0.41874 0.52067 0.58829 0.0
Fe176 Fe 0.82609 0.66647 0.67233 0.0
Fe177 Fe 0.94316 0.66435 0.62491 0.0
O178 O 0.8872 0.63603 0.65157 0.0
Fe179 Fe 0.89365 0.57657 0.65648 0.0
O180 O 0.81089 0.56483 0.66249 0.0
O181 O 0.76465 0.63004 0.6554 0.0
O182 O 0.81019 0.70242 0.63282 0.0
C183 C 0.82957 0.69859 0.60128 0.0
C184 C 0.86887 0.60139 0.72349 0.0
O185 O 0.88293 0.68226 0.59497 0.0
C186 C 0.01999 0.60464 0.65785 0.0
O187 O 0.88163 0.70679 0.69251 0.0
O188 O 0.94188 0.7176 0.64732 0.0
O189 O 0.90506 0.58182 0.70249 0.0
O190 O 0.83113 0.63247 0.7135 0.0
C191 C 0.91874 0.58593 0.58824 0.0
O192 O 0.00871 0.64617 0.65268 0.0
O193 O 0.97817 0.57551 0.65229 0.0
C194 C 0.92646 0.72723 0.67778 0.0
O195 O 0.9545 0.61751 0.59687 0.0
O196 O 0.88297 0.5676 0.61018 0.0
C197 C 0.76225 0.58767 0.65749 0.0
Fe198 Fe 0.05953 0.94194 0.62469 0.0
Fe199 Fe 0.10847 1.03005 0.65586 0.0
O200 O 0.11533 0.97059 0.6512 0.0
Fe201 Fe 0.17667 0.94042 0.67206 0.0
O202 O 0.19269 0.9044 0.63266 0.0
O203 O 0.11987 0.92431 0.59474 0.0
O204 O 0.04748 0.98864 0.59655 0.0
C205 C 0.08287 1.02035 0.58771 0.0
C206 C 0.07677 0.87931 0.67774 0.0
O207 O 0.11868 1.03889 0.6095 0.0
C208 C 0.13379 1.00561 0.72298 0.0
O209 O 0.99393 0.95984 0.65249 0.0
O210 O 0.02387 1.03067 0.65191 0.0
O211 O 0.12136 0.90003 0.69243 0.0
O212 O 0.06149 0.88871 0.6472 0.0
C213 C 0.24005 1.01935 0.65687 0.0
O214 O 0.09747 1.02502 0.70193 0.0
O215 O 0.17155 0.97452 0.71311 0.0
C216 C 0.98233 1.00133 0.6576 0.0
O217 O 0.19125 1.04213 0.6616 0.0
O218 O 0.23788 0.97697 0.655 0.0
C219 C 0.17331 0.90814 0.6011 0.0
Fe220 Fe 0.8974 0.53029 0.92268 0.0
Fe221 Fe 0.82792 0.4413 0.90612 0.0
O222 O 0.88978 0.47083 0.927 0.0
Fe223 Fe 0.94539 0.44139 0.95322 0.0
O224 O 0.95878 0.48763 0.98151 0.0
O225 O 0.88824 0.53863 0.96916 0.0
O226 O 0.81458 0.54302 0.9175 0.0
C227 C 0.7655 0.52041 0.92191 0.0
C228 C 0.0232 0.50044 0.92027 0.0
O229 O 0.76724 0.47798 0.9235 0.0
C230 C 0.92694 0.37963 0.89989 0.0
O231 O 0.90747 0.5259 0.87651 0.0
O232 O 0.8329 0.47588 0.86527 0.0
O233 O 0.01103 0.45899 0.9253 0.0
O234 O 0.98213 0.53011 0.9261 0.0
C235 C 0.83132 0.40831 0.97693 0.0
O236 O 0.88268 0.40091 0.88534 0.0
O237 O 0.94216 0.38838 0.93052 0.0
C238 C 0.87062 0.50704 0.85547 0.0
O239 O 0.81187 0.40487 0.94536 0.0
O240 O 0.88499 0.42409 0.98327 0.0
C241 C 0.92425 0.51962 0.99064 0.0
Fe242 Fe 0.10558 0.07621 0.92202 0.0
Fe243 Fe 0.17467 0.16543 0.90556 0.0
O244 O 0.11295 0.13567 0.92643 0.0
Fe245 Fe 0.05725 0.16482 0.95271 0.0
O246 O 0.04429 0.11842 0.98098 0.0
O247 O 0.11501 0.06763 0.96848 0.0
O248 O 0.1884 0.06369 0.91672 0.0
C249 C 0.23739 0.08635 0.92122 0.0
C250 C 0.97964 0.10568 0.91981 0.0
O251 O 0.23552 0.12876 0.92287 0.0
C252 C 0.0754 0.22697 0.89946 0.0
O253 O 0.0953 0.08086 0.87588 0.0
O254 O 0.16972 0.13104 0.86467 0.0
O255 O 0.99161 0.14714 0.92484 0.0
O256 O 0.02089 0.07612 0.92558 0.0
C257 C 0.17119 0.19817 0.97638 0.0
O258 O 0.11976 0.20588 0.88488 0.0
O259 O 0.06006 0.21792 0.93004 0.0
C260 C 0.13205 0.09989 0.85484 0.0
O261 O 0.19066 0.2017 0.94482 0.0
O262 O 0.11762 0.18222 0.98273 0.0
C263 C 0.07904 0.08647 0.99004 0.0
Fe264 Fe 0.1743 0.44148 0.40628 0.0
Fe265 Fe 0.10453 0.53034 0.42295 0.0
O266 O 0.11232 0.47087 0.42718 0.0
Fe267 Fe 0.05675 0.44127 0.45331 0.0
O268 O 0.11718 0.42399 0.48337 0.0
O269 O 0.19036 0.40493 0.44545 0.0
O270 O 0.23486 0.47818 0.42375 0.0
C271 C 0.2365 0.52061 0.42224 0.0
C272 C 0.07547 0.37972 0.39988 0.0
O273 O 0.18735 0.5432 0.41791 0.0
C274 C 0.9788 0.50028 0.42039 0.0
O275 O 0.16933 0.47615 0.36549 0.0
O276 O 0.09467 0.5261 0.37676 0.0
O277 O 0.06024 0.38833 0.43053 0.0
O278 O 0.11968 0.4011 0.38539 0.0
C279 C 0.07731 0.51951 0.49086 0.0
O280 O 0.01978 0.53 0.42626 0.0
O281 O 0.99108 0.45884 0.4254 0.0
C282 C 0.1316 0.50732 0.35572 0.0
O283 O 0.11344 0.53857 0.46947 0.0
O284 O 0.04309 0.48738 0.48167 0.0
C285 C 0.17086 0.40825 0.47701 0.0
Fe286 Fe 0.82835 0.16539 0.40562 0.0
Fe287 Fe 0.89774 0.07624 0.42197 0.0
O288 O 0.89021 0.13568 0.42643 0.0
Fe289 Fe 0.94587 0.1649 0.45268 0.0
O290 O 0.88552 0.18213 0.48277 0.0
O291 O 0.8124 0.20163 0.44491 0.0
O292 O 0.76766 0.12864 0.42298 0.0
C293 C 0.76588 0.08623 0.42129 0.0
C294 C 0.92744 0.22701 0.39946 0.0
O295 O 0.81492 0.06362 0.41676 0.0
C296 C 0.02359 0.10595 0.41964 0.0
O297 O 0.83324 0.13105 0.36471 0.0
O298 O 0.90783 0.08095 0.37581 0.0
O299 O 0.94276 0.21802 0.43006 0.0
O300 O 0.8831 0.20588 0.38489 0.0
C301 C 0.92458 0.08644 0.48995 0.0
O302 O 0.98246 0.0763 0.42541 0.0
O303 O 0.01149 0.14737 0.42474 0.0
C304 C 0.87096 0.09996 0.35483 0.0
O305 O 0.88855 0.06759 0.46843 0.0
O306 O 0.95915 0.11848 0.48089 0.0
C307 C 0.83192 0.19807 0.47646 0.0
Fe308 Fe 0.05888 0.6644 0.12503 0.0
Fe309 Fe 0.17615 0.66616 0.1723 0.0
O310 O 0.11476 0.63589 0.15164 0.0
Fe311 Fe 0.10792 0.57646 0.15661 0.0
O312 O 0.1181 0.56736 0.11029 0.0
O313 O 0.04688 0.61756 0.09709 0.0
O314 O 0.11914 0.68194 0.09497 0.0
C315 C 0.17258 0.69818 0.10121 0.0
C316 C 0.98176 0.60513 0.15822 0.0
O317 O 0.19203 0.70203 0.13274 0.0
C318 C 0.13336 0.60128 0.22357 0.0
O319 O 0.06079 0.71771 0.14734 0.0
O320 O 0.12089 0.70663 0.19254 0.0
O321 O 0.02333 0.57578 0.15267 0.0
O322 O 0.99333 0.64659 0.15292 0.0
C323 C 0.23948 0.58715 0.15744 0.0
O324 O 0.17116 0.63226 0.2135 0.0
O325 O 0.09696 0.58177 0.20265 0.0
C326 C 0.07619 0.72723 0.17782 0.0
O327 O 0.23731 0.62953 0.15534 0.0
O328 O 0.19071 0.56443 0.16239 0.0
C329 C 0.08228 0.58579 0.08842 0.0
Fe330 Fe 0.94364 0.942 0.12465 0.0
Fe331 Fe 0.82651 0.94064 0.17202 0.0
O332 O 0.88787 0.97074 0.15113 0.0
Fe333 Fe 0.8948 1.0302 0.15574 0.0
O334 O 0.88462 1.03898 0.10936 0.0
O335 O 0.95574 0.98863 0.09645 0.0
O336 O 0.88328 0.92436 0.09472 0.0
C337 C 0.82983 0.90822 0.1011 0.0
C338 C 0.02092 1.00139 0.1575 0.0
O339 O 0.81044 0.90456 0.13266 0.0
C340 C 0.86943 1.00589 0.22288 0.0
O341 O 0.94163 0.88882 0.14722 0.0
O342 O 0.88177 0.90025 0.19243 0.0
O343 O 0.9794 1.03075 0.1518 0.0
O344 O 0.00928 0.95991 0.15242 0.0
C345 C 0.7632 1.0196 0.15678 0.0
O346 O 0.83167 0.97479 0.21304 0.0
O347 O 0.90578 1.02524 0.20181 0.0
C348 C 0.92635 0.87949 0.17776 0.0
O349 O 0.76532 0.97721 0.15494 0.0
O350 O 0.81203 1.04235 0.16146 0.0
C351 C 0.92047 1.02042 0.08761 0.0
C352 C 0.45594 0.08564 1.02862 0.0
C353 C 0.44703 0.06124 0.05946 0.0
H354 H 0.51332 0.09568 0.98383 0.0
C355 C 0.48993 1.02773 0.06909 0.0
H356 H 0.4246 0.11304 1.02171 0.0
C357 C 0.54276 1.02017 0.04891 0.0
C358 C 0.55178 1.04467 1.01813 0.0
H359 H 0.48537 1.01012 0.09369 0.0
H360 H 0.5741 0.99277 0.05582 0.0
C361 C 0.50876 0.07807 1.00843 0.0
C362 C 0.51317 0.5793 0.06972 0.0
C363 C 0.55636 0.54596 0.0602 0.0
H364 H 0.42872 0.61388 0.05633 0.0
C365 C 0.54784 0.52162 1.02934 0.0
H366 H 0.51748 0.5969 0.09431 0.0
C367 C 0.49498 0.52894 1.00911 0.0
C368 C 0.45157 0.56208 1.01875 0.0
H369 H 0.57943 0.49437 1.0225 0.0
H370 H 0.49065 0.51133 0.98453 0.0
C371 C 0.46033 0.58664 0.04948 0.0
C372 C 0.46098 1.02004 0.5489 0.0
C373 C 0.45188 1.04459 0.51815 0.0
H374 H 0.51845 1.00991 0.59363 0.0
C375 C 0.49493 0.07796 0.50842 0.0
H376 H 0.42963 0.99266 0.55582 0.0
C377 C 0.5478 0.0855 0.52859 0.0
C378 C 0.55671 0.06109 0.55943 0.0
H379 H 0.49032 0.09559 0.48384 0.0
H380 H 0.57911 0.1129 0.52169 0.0
C381 C 0.51387 1.02755 0.56905 0.0
C382 C 0.50632 0.52922 0.50908 0.0
C383 C 0.54953 0.56241 0.51888 0.0
H384 H 0.42197 0.49439 0.52223 0.0
C385 C 0.54029 0.58698 0.54957 0.0
H386 H 0.51099 0.51162 0.48452 0.0
C387 C 0.48728 0.57952 0.56964 0.0
C388 C 0.44444 0.54599 0.56003 0.0
H389 H 0.57171 0.61428 0.55652 0.0
H390 H 0.48266 0.59712 0.59421 0.0
C391 C 0.45332 0.52174 0.52916 0.0
C392 C 0.98728 0.52704 0.56968 0.0
C393 C 0.94454 0.56065 0.56003 0.0
H394 H 0.07155 0.4921 0.55657 0.0
C395 C 0.95349 0.58493 0.52913 0.0
H396 H 0.9826 0.50943 0.59427 0.0
C397 C 0.00644 0.57735 0.50904 0.0
C398 C 0.04952 0.54406 0.51887 0.0
H399 H 0.92221 0.61234 0.52217 0.0
H400 H 0.01114 0.59496 0.48445 0.0
C401 C 0.04023 0.51948 0.5496 0.0
C402 C 0.04787 1.02101 0.52866 0.0
C403 C 0.0566 1.0454 0.55947 0.0
H404 H 0.99057 1.01085 0.48387 0.0
C405 C 0.01355 0.07883 0.56902 0.0
H406 H 0.07934 0.99369 0.5218 0.0
C407 C 0.96068 0.08624 0.54883 0.0
C408 C 0.95179 0.06171 0.51809 0.0
H409 H 0.018 0.09644 0.59359 0.0
H410 H 0.92919 0.11354 0.55569 0.0
C411 C 0.99501 1.02845 0.50844 0.0
C412 C 0.99484 0.57748 1.00906 0.0
C413 C 0.95165 0.54419 1.01876 0.0
H414 H 0.07901 0.61236 1.02242 0.0
C415 C 0.96058 0.51964 0.04953 0.0
H416 H 0.99037 0.59509 0.98446 0.0
C417 C 0.01335 0.52716 0.06977 0.0
C418 C 0.0563 0.56066 0.06019 0.0
H419 H 0.92914 0.4923 0.05641 0.0
H420 H 0.01776 0.50957 0.09438 0.0
C421 C 0.04762 0.58499 1.0293 0.0
C422 C 0.00866 1.02848 1.00846 0.0
C423 C 0.05186 0.06172 1.01817 0.0
H424 H 0.92422 0.99379 1.02167 0.0
C425 C 0.04287 0.08621 0.04892 0.0
H426 H 0.01321 1.01087 0.98389 0.0
C427 C 0.98989 0.07883 0.06903 0.0
C428 C 0.94683 1.04546 0.05939 0.0
H429 H 0.07436 0.11348 0.05583 0.0
H430 H 0.98536 0.09644 0.09359 0.0
C431 C 0.95568 1.02109 1.02858 0.0
C432 C 0.42409 0.06785 0.27395 0.0
C433 C 0.36734 0.08099 0.25835 0.0
H434 H 0.46937 1.03339 0.31592 0.0
C435 C 0.31069 0.0667 0.2737 0.0
H436 H 0.46851 0.07741 0.26238 0.0
C437 C 0.31121 1.03979 0.30402 0.0
C438 C 0.36837 1.02706 0.31959 0.0
H439 H 0.26625 0.07511 0.26167 0.0
H440 H 0.26709 1.03008 0.31581 0.0
C441 C 0.4246 1.0418 0.30423 0.0
C442 C 0.57856 0.53748 0.27499 0.0
C443 C 0.63535 0.52487 0.25921 0.0
H444 H 0.53318 0.57155 0.31705 0.0
C445 C 0.69192 0.53964 0.27434 0.0
H446 H 0.53418 0.52757 0.26356 0.0
C447 C 0.6913 0.56652 0.30463 0.0
C448 C 0.63411 0.57875 0.32039 0.0
H449 H 0.73636 0.53166 0.26216 0.0
H450 H 0.73539 0.57664 0.31623 0.0
C451 C 0.57796 0.56351 0.30524 0.0
C452 C 0.57852 1.04132 0.80413 0.0
C453 C 0.63478 1.02673 0.81955 0.0
H454 H 0.53454 0.07688 0.76227 0.0
C455 C 0.69192 1.03969 0.80407 0.0
H456 H 0.53376 1.03275 0.81575 0.0
C457 C 0.69239 0.06666 0.77378 0.0
C458 C 0.63572 0.08079 0.75838 0.0
H459 H 0.73605 1.03011 0.81592 0.0
H460 H 0.73683 0.07524 0.76183 0.0
C461 C 0.57898 0.06744 0.77388 0.0
C462 C 0.42423 0.56387 0.80489 0.0
C463 C 0.36804 0.5789 0.82011 0.0
H464 H 0.46809 0.52797 0.76322 0.0
C465 C 0.31086 0.56631 0.8045 0.0
H466 H 0.46901 0.57216 0.8166 0.0
C467 C 0.31031 0.53931 0.77428 0.0
C468 C 0.36692 0.52476 0.75907 0.0
H469 H 0.26675 0.57625 0.81618 0.0
H470 H 0.26586 0.53106 0.76221 0.0
C471 C 0.42369 0.53771 0.77471 0.0
C472 C 0.9242 0.54254 0.80492 0.0
C473 C 0.86801 0.52754 0.82017 0.0
H474 H 0.96806 0.57842 0.76317 0.0
C475 C 0.81083 0.54013 0.80455 0.0
H476 H 0.96898 0.53424 0.81664 0.0
C477 C 0.81027 0.56713 0.77427 0.0
C478 C 0.86688 0.58165 0.75902 0.0
H479 H 0.76672 0.53021 0.81625 0.0
H480 H 0.76583 0.57539 0.76219 0.0
C481 C 0.92366 0.56869 0.77468 0.0
C482 C 0.07847 0.06468 0.80423 0.0
C483 C 0.13467 0.07953 0.81953 0.0
H484 H 0.03458 1.02891 0.76251 0.0
C485 C 0.19184 0.06682 0.80398 0.0
H486 H 0.03369 0.07306 0.81591 0.0
C487 C 0.19239 1.03985 0.77374 0.0
C488 C 0.13576 1.02545 0.75846 0.0
H489 H 0.23596 0.07662 0.81572 0.0
H490 H 0.23684 1.03148 0.76172 0.0
C491 C 0.079 1.03855 0.77403 0.0
C492 C 0.07802 0.54308 0.30525 0.0
C493 C 0.13417 0.52782 0.32041 0.0
H494 H 0.03422 0.57903 0.26352 0.0
C495 C 0.19135 0.54003 0.30463 0.0
H496 H 0.03323 0.53506 0.31708 0.0
C497 C 0.19197 0.5669 0.27429 0.0
C498 C 0.13539 0.58168 0.25914 0.0
H499 H 0.23545 0.52988 0.31625 0.0
H500 H 0.2364 0.57486 0.26209 0.0
C501 C 0.0786 0.5691 0.27496 0.0
C502 C 0.92462 0.06525 0.30405 0.0
C503 C 0.86835 0.07971 0.31949 0.0
H504 H 0.96864 1.02984 0.26219 0.0
C505 C 0.81122 0.06668 0.30405 0.0
H506 H 0.96937 0.07387 0.31565 0.0
C507 C 0.81079 1.03977 0.27377 0.0
C508 C 0.86748 1.02576 0.25835 0.0
H509 H 0.76707 0.07616 0.31591 0.0
H510 H 0.76635 1.03112 0.26186 0.0
C511 C 0.9242 1.03918 0.27382 0.0
C512 C 0.22317 0.21037 0.0718 0.0
C513 C 0.28897 0.20892 0.06954 0.0
H514 H 0.13512 0.20891 0.04475 0.0
C515 C 0.3155 0.21022 1.0357 0.0
H516 H 0.20048 0.20887 0.09697 0.0
C517 C 0.27789 0.21025 1.0054 0.0
C518 C 0.21209 0.20876 1.00766 0.0
H519 H 0.36594 0.20897 1.03246 0.0
H520 H 0.30058 0.20868 0.98024 0.0
C521 C 0.18555 0.21018 0.0415 0.0
C522 C 0.72451 0.39671 1.00596 0.0
C523 C 0.79033 0.39783 1.00821 0.0
H524 H 0.63649 0.39839 1.03303 0.0
C525 C 0.81687 0.39618 0.04204 0.0
H526 H 0.70183 0.39848 0.9808 0.0
C527 C 0.77927 0.3961 0.07235 0.0
C528 C 0.71347 0.39791 0.0701 0.0
H529 H 0.86731 0.39716 0.04528 0.0
H530 H 0.80198 0.39739 0.09751 0.0
C531 C 0.68691 0.39686 1.03626 0.0
C532 C 0.22527 0.89627 0.50567 0.0
C533 C 0.29107 0.89778 0.50791 0.0
H534 H 0.13723 0.89755 0.53273 0.0
C535 C 0.31763 0.89638 0.54175 0.0
H536 H 0.20256 0.89783 0.48051 0.0
C537 C 0.28003 0.89619 0.57206 0.0
C538 C 0.21422 0.89762 0.56981 0.0
H539 H 0.36806 0.89766 0.54499 0.0
H540 H 0.30273 0.8977 0.59722 0.0
C541 C 0.18767 0.89631 0.53597 0.0
C542 C 0.77759 0.71022 0.50582 0.0
C543 C 0.71179 0.70884 0.50809 0.0
H544 H 0.86565 0.70889 0.53287 0.0
C545 C 0.68527 0.71044 0.54192 0.0
H546 H 0.80027 0.70851 0.48066 0.0
C547 C 0.72289 0.71069 0.57222 0.0
C548 C 0.78869 0.70911 0.56996 0.0
H549 H 0.63483 0.70927 0.54518 0.0
H550 H 0.70021 0.70931 0.59739 0.0
C551 C 0.81522 0.71024 0.53611 0.0
C552 C 0.77783 0.89615 1.00569 0.0
C553 C 0.71203 0.89765 1.00794 0.0
H554 H 0.86588 0.89749 1.03274 0.0
C555 C 0.68549 0.89632 0.04179 0.0
H556 H 0.80052 0.89766 0.98052 0.0
C557 C 0.72311 0.8962 0.07209 0.0
C558 C 0.78892 0.89764 0.06983 0.0
H559 H 0.63506 0.8976 0.04503 0.0
H560 H 0.70042 0.89776 0.09725 0.0
C561 C 0.81544 0.89626 1.03599 0.0
C562 C 0.22444 0.70978 1.00571 0.0
C563 C 0.29026 0.70858 1.00796 0.0
H564 H 0.13642 0.70822 1.03278 0.0
C565 C 0.31679 0.71023 0.0418 0.0
H566 H 0.20176 0.70801 0.98055 0.0
C567 C 0.27919 0.71039 0.0721 0.0
C568 C 0.21339 0.70865 0.06986 0.0
H569 H 0.36724 0.7092 0.04504 0.0
H570 H 0.3019 0.7091 0.09727 0.0
C571 C 0.18684 0.7097 1.03601 0.0
C572 C 0.81764 0.20996 0.54159 0.0
C573 C 0.79108 0.20866 0.50776 0.0
H574 H 0.80275 0.20859 0.59706 0.0
C575 C 0.72528 0.2103 0.50551 0.0
H576 H 0.86808 0.20858 0.54483 0.0
C577 C 0.68769 0.2103 0.53582 0.0
C578 C 0.71424 0.20889 0.56966 0.0
H579 H 0.70257 0.20883 0.48035 0.0
H580 H 0.63725 0.20917 0.53258 0.0
C581 C 0.78005 0.21019 0.5719 0.0
C582 C 0.31525 0.39631 0.53631 0.0
C583 C 0.28872 0.39742 0.57015 0.0
H584 H 0.30031 0.39802 0.48085 0.0
C585 C 0.22293 0.3958 0.57242 0.0
H586 H 0.36568 0.39769 0.53306 0.0
C587 C 0.1853 0.39601 0.54212 0.0
C588 C 0.21182 0.39763 0.50828 0.0
H589 H 0.20024 0.39715 0.59758 0.0
H590 H 0.13486 0.39715 0.54537 0.0
C591 C 0.27763 0.39629 0.50601 0.0
C592 C 0.63863 0.11122 0.15121 0.0
C593 C 0.58523 0.08751 0.16216 0.0
H594 H 0.73743 0.10788 0.14048 0.0
C595 C 0.59184 1.04217 0.17265 0.0
H596 H 0.63496 0.14593 0.14267 0.0
C597 C 0.64921 1.02013 0.17019 0.0
C598 C 0.70214 1.04307 0.15806 0.0
H599 H 0.55176 1.02293 0.18163 0.0
H600 H 0.65207 0.98506 0.17797 0.0
C601 C 0.69687 0.0892 0.14945 0.0
C602 C 0.41089 0.56465 0.1732 0.0
C603 C 0.41748 0.5193 0.16283 0.0
H604 H 0.35065 0.62177 0.1784 0.0
C605 C 0.36406 0.49556 0.15199 0.0
H606 H 0.45099 0.58392 0.18209 0.0
C607 C 0.3058 0.51757 0.15023 0.0
C608 C 0.30055 0.56371 0.15872 0.0
H609 H 0.3677 0.46083 0.14356 0.0
H610 H 0.26522 0.49887 0.14136 0.0
C611 C 0.35352 0.58669 0.17072 0.0
C612 C 0.64119 0.99461 0.42688 0.0
C613 C 0.58808 1.01809 0.41516 0.0
H614 H 0.73972 0.9982 0.43843 0.0
C615 C 0.59502 0.06317 0.40412 0.0
H616 H 0.63725 0.96011 0.43587 0.0
C617 C 0.65232 0.08527 0.40684 0.0
C618 C 0.70491 0.06262 0.41978 0.0
H619 H 0.55517 0.08221 0.39458 0.0
H620 H 0.65539 0.12017 0.39864 0.0
C621 C 0.69941 1.01667 0.42887 0.0
C622 C 0.40714 0.54394 0.40453 0.0
C623 C 0.41422 0.58888 0.41576 0.0
H624 H 0.34672 0.487 0.399 0.0
C625 C 0.36124 0.61223 0.42779 0.0
H626 H 0.4469 0.52501 0.39476 0.0
C627 C 0.30304 0.59013 0.4299 0.0
C628 C 0.29744 0.54428 0.42062 0.0
H629 H 0.3653 0.64661 0.43696 0.0
H630 H 0.26284 0.60849 0.43971 0.0
C631 C 0.34989 0.5218 0.40736 0.0
C632 C 0.30383 1.01679 0.92878 0.0
C633 C 0.29838 0.06276 0.91975 0.0
H634 H 0.36592 0.96017 0.93573 0.0
C635 C 0.35103 0.08544 0.90694 0.0
H636 H 0.26348 0.9983 0.93826 0.0
C637 C 0.40832 0.06332 0.90425 0.0
C638 C 0.41519 1.0182 0.91519 0.0
H639 H 0.348 0.12036 0.8988 0.0
H640 H 0.44821 0.08238 0.89478 0.0
C641 C 0.36204 0.9947 0.92681 0.0
C642 C 0.69896 0.58993 0.92947 0.0
C643 C 0.70453 0.54404 0.92031 0.0
H644 H 0.63672 0.64644 0.93648 0.0
C645 C 0.65202 0.52146 0.90725 0.0
H646 H 0.73921 0.60835 0.93914 0.0
C647 C 0.59473 0.54357 0.90447 0.0
C648 C 0.5877 0.58857 0.91558 0.0
H649 H 0.65516 0.48661 0.89899 0.0
H650 H 0.55493 0.52458 0.89484 0.0
C651 C 0.64073 0.612 0.92742 0.0
C652 C 0.35417 1.01974 0.66994 0.0
C653 C 0.30112 1.0428 0.65809 0.0
H654 H 0.45172 1.02242 0.68113 0.0
C655 C 0.30633 0.08898 0.64966 0.0
H656 H 0.35138 0.98461 0.67756 0.0
C657 C 0.36459 0.11098 0.65136 0.0
C658 C 0.41808 0.08717 0.66206 0.0
H659 H 0.2657 0.10775 0.6409 0.0
H660 H 0.36818 0.14577 0.643 0.0
C661 C 0.41156 1.04175 0.67235 0.0
C662 C 0.63783 0.49601 0.65224 0.0
C663 C 0.58415 0.51996 0.66238 0.0
H664 H 0.73688 0.49909 0.64232 0.0
C665 C 0.59043 0.56558 0.67214 0.0
H666 H 0.63444 0.46107 0.64431 0.0
C667 C 0.64785 0.58757 0.66982 0.0
C668 C 0.70113 0.56431 0.65858 0.0
H669 H 0.55014 0.58504 0.68049 0.0
H670 H 0.65049 0.62282 0.67704 0.0
C671 C 0.69608 0.518 0.65063 0.0
C672 C 0.14787 0.51892 0.66993 0.0
C673 C 0.20113 0.54218 0.65864 0.0
H674 H 0.05015 0.52145 0.68059 0.0
C675 C 0.19607 0.5885 0.65062 0.0
H676 H 0.15052 0.48367 0.6772 0.0
C677 C 0.13781 0.61049 0.65221 0.0
C678 C 0.08414 0.58653 0.66238 0.0
H679 H 0.23686 0.60741 0.64229 0.0
H680 H 0.1344 0.64543 0.64422 0.0
C681 C 0.09044 0.54092 0.67222 0.0
C682 C 0.80637 1.01746 0.64961 0.0
C683 C 0.80113 0.06359 0.6581 0.0
H684 H 0.86825 0.9607 0.64293 0.0
C685 C 0.85412 0.08656 0.67009 0.0
H686 H 0.76578 0.99876 0.64074 0.0
C687 C 0.91149 0.06451 0.67255 0.0
C688 C 0.91806 1.01916 0.66219 0.0
H689 H 0.85129 0.12164 0.67777 0.0
H690 H 0.95161 0.08377 0.68143 0.0
C691 C 0.86462 0.99543 0.65136 0.0
C692 C 0.19899 0.51646 0.92946 0.0
C693 C 0.20453 0.56236 0.92025 0.0
H694 H 0.13677 0.45994 0.93655 0.0
C695 C 0.152 0.58496 0.90718 0.0
H696 H 0.23925 0.49802 0.93913 0.0
C697 C 0.09471 0.56285 0.90446 0.0
C698 C 0.08771 0.51784 0.91561 0.0
H699 H 0.15511 0.61982 0.89889 0.0
H700 H 0.05489 0.58186 0.89482 0.0
C701 C 0.14076 0.49439 0.92745 0.0
C702 C 0.86201 0.11162 0.92678 0.0
C703 C 0.9152 0.08811 0.91525 0.0
H704 H 0.76343 0.10806 0.93816 0.0
C705 C 0.90835 1.04297 0.90442 0.0
H706 H 0.86588 0.14617 0.93561 0.0
C707 C 0.85106 1.02086 0.90712 0.0
C708 C 0.79837 1.04356 0.91984 0.0
H709 H 0.94826 1.0239 0.89502 0.0
H710 H 0.84804 0.98593 0.89907 0.0
C711 C 0.8038 0.08955 0.92876 0.0
C712 C 0.86127 0.49426 0.42782 0.0
C713 C 0.91424 0.51763 0.41578 0.0
H714 H 0.76286 0.49798 0.43972 0.0
C715 C 0.90714 0.56259 0.4045 0.0
H716 H 0.86534 0.45986 0.43702 0.0
C717 C 0.84987 0.58472 0.4073 0.0
C718 C 0.79743 0.56221 0.42057 0.0
H719 H 0.94689 0.58153 0.39472 0.0
H720 H 0.8467 0.61954 0.39891 0.0
C721 C 0.80305 0.51635 0.4299 0.0
C722 C 0.19937 0.08985 0.42893 0.0
C723 C 0.2049 1.04393 0.41983 0.0
H724 H 0.13717 0.14639 0.43587 0.0
C725 C 0.15237 1.02133 0.40682 0.0
H726 H 0.23964 0.10828 0.43855 0.0
C727 C 0.09508 1.04345 0.40404 0.0
C728 C 0.0881 0.08849 0.41508 0.0
H729 H 0.15548 0.98647 0.39861 0.0
H730 H 0.05527 1.02445 0.39444 0.0
C731 C 0.14115 0.11193 0.42687 0.0
C732 C 0.86403 0.61104 0.15196 0.0
C733 C 0.91748 0.58729 0.16281 0.0
H734 H 0.76519 0.60774 0.14137 0.0
C735 C 0.91092 0.54192 0.17323 0.0
H736 H 0.86766 0.64578 0.1435 0.0
C737 C 0.85354 0.51989 0.1708 0.0
C738 C 0.80056 0.54288 0.15879 0.0
H739 H 0.95103 0.52265 0.18214 0.0
H740 H 0.8507 0.4848 0.17852 0.0
C741 C 0.80579 0.58903 0.15025 0.0
C742 C 0.14916 0.08662 0.1699 0.0
C743 C 0.20215 0.06361 0.15795 0.0
H744 H 0.05167 0.08388 0.18122 0.0
C745 C 0.19691 1.01746 0.1495 0.0
H746 H 0.15198 0.12171 0.17754 0.0
C747 C 0.13865 0.99545 0.15127 0.0
C748 C 0.08521 1.01922 0.16206 0.0
H749 H 0.23751 0.99873 0.14067 0.0
H750 H 0.13502 0.96071 0.14288 0.0
C751 C 0.09178 0.06459 0.17237 0.0
C752 C 0.52799 0.26029 0.19591 0.0
C753 C 0.46209 0.2644 0.19403 0.0
H754 H 0.61709 0.29421 0.19359 0.0
C755 C 0.43577 0.30761 0.19624 0.0
H756 H 0.54968 0.22741 0.1934 0.0
C757 C 0.47463 0.34591 0.1963 0.0
C758 C 0.54052 0.34184 0.19432 0.0
H759 H 0.38551 0.31202 0.1938 0.0
H760 H 0.45292 0.37883 0.19408 0.0
C761 C 0.56685 0.29859 0.19613 0.0
C762 C 0.47438 0.76057 0.38091 0.0
C763 C 0.5403 0.76427 0.38296 0.0
H764 H 0.38564 0.79498 0.38332 0.0
C765 C 0.5671 0.80735 0.38099 0.0
H766 H 0.45231 0.72779 0.38326 0.0
C767 C 0.52867 0.84588 0.38105 0.0
C768 C 0.46274 0.84217 0.38296 0.0
H769 H 0.61738 0.81145 0.38358 0.0
H770 H 0.55074 0.87864 0.3835 0.0
C771 C 0.43594 0.79911 0.38085 0.0
C772 C 0.4741 0.84584 0.88119 0.0
C773 C 0.54003 0.84202 0.8831 0.0
H774 H 0.38528 0.81156 0.88367 0.0
C775 C 0.56669 0.7989 0.881 0.0
H776 H 0.45214 0.87863 0.88364 0.0
C777 C 0.52814 0.76043 0.88103 0.0
C778 C 0.46222 0.76423 0.88304 0.0
H779 H 0.61698 0.7947 0.88347 0.0
H780 H 0.55012 0.72761 0.88337 0.0
C781 C 0.43555 0.80737 0.8811 0.0
C782 C 0.43613 0.29852 0.69618 0.0
C783 C 0.46241 0.34177 0.69421 0.0
H784 H 0.45334 0.22733 0.69362 0.0
C785 C 0.52831 0.34587 0.69608 0.0
H786 H 0.38587 0.29413 0.69375 0.0
C787 C 0.5672 0.30757 0.69606 0.0
C788 C 0.54091 0.26434 0.69403 0.0
H789 H 0.54997 0.37879 0.69373 0.0
H790 H 0.61744 0.312 0.69353 0.0
C791 C 0.47503 0.26023 0.69602 0.0
C792 C 0.06728 0.79866 0.69598 0.0
C793 C 0.04102 0.84193 0.69415 0.0
H794 H 0.05 0.72748 0.69339 0.0
C795 C 0.97514 0.84606 0.69621 0.0
H796 H 0.1175 0.79423 0.69338 0.0
C797 C 0.93621 0.80778 0.69626 0.0
C798 C 0.96246 0.76454 0.69409 0.0
H799 H 0.95349 0.879 0.69397 0.0
H800 H 0.88595 0.81224 0.6939 0.0
C801 C 0.02836 0.76039 0.69588 0.0
C802 C 0.02824 0.3461 0.88126 0.0
C803 C 0.96232 0.3423 0.88319 0.0
H804 H 0.11705 0.31178 0.88362 0.0
C805 C 0.93563 0.29921 0.881 0.0
H806 H 0.05022 0.37888 0.88378 0.0
C807 C 0.97417 0.26072 0.88092 0.0
C808 C 0.04009 0.26449 0.88292 0.0
H809 H 0.88535 0.29502 0.88348 0.0
H810 H 0.95218 0.2279 0.88319 0.0
C811 C 0.06677 0.30762 0.88106 0.0
C812 C 0.93588 0.30761 0.38095 0.0
C813 C 0.96268 0.26452 0.38288 0.0
H814 H 0.95223 0.37889 0.3836 0.0
C815 C 0.02861 0.26081 0.38091 0.0
H816 H 0.88559 0.3117 0.38347 0.0
C817 C 0.06704 0.29934 0.38097 0.0
C818 C 0.04024 0.3424 0.38311 0.0
H819 H 0.05067 0.22802 0.38323 0.0
H820 H 0.11733 0.2952 0.38349 0.0
C821 C 0.97431 0.34613 0.38112 0.0
C822 C 0.02794 0.84615 0.19617 0.0
C823 C 0.96204 0.8421 0.19421 0.0
H824 H 0.11703 0.8122 0.19377 0.0
C825 C 0.93568 0.79888 0.19616 0.0
H826 H 0.04966 0.87905 0.19384 0.0
C827 C 0.97451 0.76055 0.19606 0.0
C828 C 0.04041 0.76462 0.19416 0.0
H829 H 0.88543 0.79452 0.19364 0.0
H830 H 0.95278 0.72767 0.19366 0.0
C831 C 0.06677 0.80782 0.19623 0.0
loop_
_geom_bond_atom_site_label_1
_geom_bond_atom_site_label_2
_geom_bond_distance
_geom_bond_site_symmetry_2
_ccdc_geom_bond_type
Fe0 O2 1.918 . S
Fe0 O5 1.997 . S
Fe0 O6 2.002 . S
Fe0 O11 1.976 . S
Fe0 O14 1.996 . S
Fe1 O2 1.918 . S
Fe1 O9 1.997 . S
Fe1 O12 1.996 . S
Fe1 O16 1.976 . S
Fe1 O19 2.002 . S
O2 Fe0 1.918 . S
O2 Fe1 1.918 . S
O2 Fe3 1.918 . S
Fe3 O2 1.918 . S
Fe3 O4 2.002 1_545 S
Fe3 O13 1.976 . S
Fe3 O17 1.996 . S
Fe3 O20 1.997 1_545 S
O4 Fe3 2.002 1_565 S
O4 C21 1.295 1_565 S
O5 Fe0 1.997 . S
O5 C21 1.235 . S
O6 Fe0 2.002 . S
O6 C7 1.295 . S
C7 O6 1.295 . S
C7 O9 1.235 . S
C8 O13 1.287 . S
C8 O14 1.255 . S
O9 Fe1 1.997 . S
O9 C7 1.235 . S
C10 O16 1.287 . S
C10 O17 1.255 . S
O11 Fe0 1.976 . S
O11 C18 1.287 . S
O12 Fe1 1.996 . S
O12 C18 1.255 . S
O13 Fe3 1.976 . S
O13 C8 1.287 . S
O14 Fe0 1.996 . S
O14 C8 1.255 . S
C15 O19 1.295 . S
C15 O20 1.235 1_545 S
O16 Fe1 1.976 . S
O16 C10 1.287 . S
O17 Fe3 1.996 . S
O17 C10 1.255 . S
C18 O11 1.287 . S
C18 O12 1.255 . S
O19 Fe1 2.002 . S
O19 C15 1.295 . S
O20 Fe3 1.997 1_565 S
O20 C15 1.235 1_565 S
C21 O4 1.295 1_545 S
C21 O5 1.235 . S
Fe22 O24 1.918 . S
Fe22 O27 1.997 . S
Fe22 O28 2.002 . S
Fe22 O33 1.976 . S
Fe22 O36 1.996 . S
Fe23 O24 1.918 . S
Fe23 O31 1.997 . S
Fe23 O34 1.996 . S
Fe23 O38 1.976 . S
Fe23 O41 2.002 . S
O24 Fe22 1.918 . S
O24 Fe23 1.918 . S
O24 Fe25 1.918 . S
Fe25 O24 1.918 . S
Fe25 O26 2.002 . S
Fe25 O35 1.976 . S
Fe25 O39 1.996 . S
Fe25 O42 1.997 . S
O26 Fe25 2.002 . S
O26 C43 1.295 . S
O27 Fe22 1.997 . S
O27 C43 1.235 . S
O28 Fe22 2.002 . S
O28 C29 1.295 . S
C29 O28 1.295 . S
C29 O31 1.235 . S
C30 O35 1.287 . S
C30 O36 1.255 . S
O31 Fe23 1.997 . S
O31 C29 1.235 . S
C32 O38 1.287 . S
C32 O39 1.255 . S
O33 Fe22 1.976 . S
O33 C40 1.287 . S
O34 Fe23 1.996 . S
O34 C40 1.255 . S
O35 Fe25 1.976 . S
O35 C30 1.287 . S
O36 Fe22 1.996 . S
O36 C30 1.255 . S
C37 O41 1.295 . S
C37 O42 1.235 . S
O38 Fe23 1.976 . S
O38 C32 1.287 . S
O39 Fe25 1.996 . S
O39 C32 1.255 . S
C40 O33 1.287 . S
C40 O34 1.255 . S
O41 Fe23 2.002 . S
O41 C37 1.295 . S
O42 Fe25 1.997 . S
O42 C37 1.235 . S
C43 O26 1.295 . S
C43 O27 1.235 . S
Fe44 O46 1.918 . S
Fe44 O49 1.997 1_565 S
Fe44 O50 2.002 1_565 S
Fe44 O55 1.976 . S
Fe44 O58 1.996 . S
Fe45 O46 1.918 . S
Fe45 O53 1.997 . S
Fe45 O56 1.996 . S
Fe45 O60 1.976 . S
Fe45 O63 2.002 . S
O46 Fe44 1.918 . S
O46 Fe45 1.918 . S
O46 Fe47 1.918 . S
Fe47 O46 1.918 . S
Fe47 O48 2.002 . S
Fe47 O57 1.976 . S
Fe47 O61 1.996 . S
Fe47 O64 1.997 . S
O48 Fe47 2.002 . S
O48 C65 1.295 . S
O49 Fe44 1.997 1_545 S
O49 C65 1.235 1_545 S
O50 Fe44 2.002 1_545 S
O50 C51 1.295 1_545 S
C51 O50 1.295 1_565 S
C51 O53 1.235 . S
C52 O57 1.287 . S
C52 O58 1.255 . S
O53 Fe45 1.997 . S
O53 C51 1.235 . S
C54 O60 1.287 . S
C54 O61 1.255 . S
O55 Fe44 1.976 . S
O55 C62 1.287 . S
O56 Fe45 1.996 . S
O56 C62 1.255 . S
O57 Fe47 1.976 . S
O57 C52 1.287 . S
O58 Fe44 1.996 . S
O58 C52 1.255 . S
C59 O63 1.295 . S
C59 O64 1.235 . S
O60 Fe45 1.976 . S
O60 C54 1.287 . S
O61 Fe47 1.996 . S
O61 C54 1.255 . S
C62 O55 1.287 . S
C62 O56 1.255 . S
O63 Fe45 2.002 . S
O63 C59 1.295 . S
O64 Fe47 1.997 . S
O64 C59 1.235 . S
C65 O48 1.295 . S
C65 O49 1.235 1_565 S
Fe66 O68 1.918 . S
Fe66 O71 1.997 . S
Fe66 O72 2.002 . S
Fe66 O77 1.976 . S
Fe66 O80 1.996 . S
Fe67 O68 1.918 . S
Fe67 O75 1.997 . S
Fe67 O78 1.996 . S
Fe67 O82 1.976 . S
Fe67 O85 2.002 . S
O68 Fe66 1.918 . S
O68 Fe67 1.918 . S
O68 Fe69 1.918 . S
Fe69 O68 1.918 . S
Fe69 O70 2.002 . S
Fe69 O79 1.976 . S
Fe69 O83 1.996 . S
Fe69 O86 1.997 . S
O70 Fe69 2.002 . S
O70 C87 1.295 . S
O71 Fe66 1.997 . S
O71 C87 1.235 . S
O72 Fe66 2.002 . S
O72 C73 1.295 . S
C73 O72 1.295 . S
C73 O75 1.235 . S
C74 O79 1.287 . S
C74 O80 1.255 . S
O75 Fe67 1.997 . S
O75 C73 1.235 . S
C76 O82 1.287 . S
C76 O83 1.255 . S
O77 Fe66 1.976 . S
O77 C84 1.287 . S
O78 Fe67 1.996 . S
O78 C84 1.255 . S
O79 Fe69 1.976 . S
O79 C74 1.287 . S
O80 Fe66 1.996 . S
O80 C74 1.255 . S
C81 O85 1.295 . S
C81 O86 1.235 . S
O82 Fe67 1.976 . S
O82 C76 1.287 . S
O83 Fe69 1.996 . S
O83 C76 1.255 . S
C84 O77 1.287 . S
C84 O78 1.255 . S
O85 Fe67 2.002 . S
O85 C81 1.295 . S
O86 Fe69 1.997 . S
O86 C81 1.235 . S
C87 O70 1.295 . S
C87 O71 1.235 . S
Fe88 O90 1.918 . S
Fe88 O93 1.997 . S
Fe88 O94 2.002 . S
Fe88 O99 1.976 . S
Fe88 O102 1.996 . S
Fe89 O90 1.918 . S
Fe89 O97 1.997 . S
Fe89 O100 1.996 . S
Fe89 O104 1.976 . S
Fe89 O107 2.002 . S
O90 Fe88 1.918 . S
O90 Fe89 1.918 . S
O90 Fe91 1.918 . S
Fe91 O90 1.918 . S
Fe91 O92 2.002 1_565 S
Fe91 O101 1.976 . S
Fe91 O105 1.996 . S
Fe91 O108 1.997 . S
O92 Fe91 2.002 1_545 S
O92 C109 1.295 1_545 S
O93 Fe88 1.997 . S
O93 C109 1.235 . S
O94 Fe88 2.002 . S
O94 C95 1.295 . S
C95 O94 1.295 . S
C95 O97 1.235 . S
C96 O101 1.287 . S
C96 O102 1.255 . S
O97 Fe89 1.997 . S
O97 C95 1.235 . S
C98 O104 1.287 . S
C98 O105 1.255 . S
O99 Fe88 1.976 . S
O99 C106 1.287 . S
O100 Fe89 1.996 . S
O100 C106 1.255 . S
O101 Fe91 1.976 . S
O101 C96 1.287 . S
O102 Fe88 1.996 . S
O102 C96 1.255 . S
C103 O107 1.295 . S
C103 O108 1.235 . S
O104 Fe89 1.976 . S
O104 C98 1.287 . S
O105 Fe91 1.996 . S
O105 C98 1.255 . S
C106 O99 1.287 . S
C106 O100 1.255 . S
O107 Fe89 2.002 . S
O107 C103 1.295 . S
O108 Fe91 1.997 . S
O108 C103 1.235 . S
C109 O92 1.295 1_565 S
C109 O93 1.235 . S
Fe110 O112 1.918 . S
Fe110 O115 1.997 . S
Fe110 O116 2.002 . S
Fe110 O121 1.976 . S
Fe110 O124 1.996 . S
Fe111 O112 1.918 . S
Fe111 O119 1.997 . S
Fe111 O122 1.996 . S
Fe111 O126 1.976 . S
Fe111 O129 2.002 . S
O112 Fe110 1.918 . S
O112 Fe111 1.918 . S
O112 Fe113 1.918 . S
Fe113 O112 1.918 . S
Fe113 O114 2.002 . S
Fe113 O123 1.976 . S
Fe113 O127 1.996 . S
Fe113 O130 1.997 . S
O114 Fe113 2.002 . S
O114 C131 1.295 . S
O115 Fe110 1.997 . S
O115 C131 1.235 . S
O116 Fe110 2.002 . S
O116 C117 1.295 . S
C117 O116 1.295 . S
C117 O119 1.235 . S
C118 O123 1.287 . S
C118 O124 1.255 . S
O119 Fe111 1.997 . S
O119 C117 1.235 . S
C120 O126 1.287 . S
C120 O127 1.255 . S
O121 Fe110 1.976 . S
O121 C128 1.287 . S
O122 Fe111 1.996 . S
O122 C128 1.255 . S
O123 Fe113 1.976 . S
O123 C118 1.287 . S
O124 Fe110 1.996 . S
O124 C118 1.255 . S
C125 O129 1.295 . S
C125 O130 1.235 . S
O126 Fe111 1.976 . S
O126 C120 1.287 . S
O127 Fe113 1.996 . S
O127 C120 1.255 . S
C128 O121 1.287 . S
C128 O122 1.255 . S
O129 Fe111 2.002 . S
O129 C125 1.295 . S
O130 Fe113 1.997 . S
O130 C125 1.235 . S
C131 O114 1.295 . S
C131 O115 1.235 . S
Fe132 O134 1.918 . S
Fe132 O137 1.997 . S
Fe132 O138 2.002 . S
Fe132 O143 1.976 . S
Fe132 O146 1.996 . S
Fe133 O134 1.918 . S
Fe133 O141 1.997 . S
Fe133 O144 1.996 . S
Fe133 O148 1.976 . S
Fe133 O151 2.002 . S
O134 Fe132 1.918 . S
O134 Fe133 1.918 . S
O134 Fe135 1.918 . S
Fe135 O134 1.918 . S
Fe135 O136 2.002 1_545 S
Fe135 O145 1.976 . S
Fe135 O149 1.996 . S
Fe135 O152 1.997 . S
O136 Fe135 2.002 1_565 S
O136 C153 1.295 1_565 S
O137 Fe132 1.997 . S
O137 C153 1.235 . S
O138 Fe132 2.002 . S
O138 C139 1.295 . S
C139 O138 1.295 . S
C139 O141 1.235 . S
C140 O145 1.287 . S
C140 O146 1.255 . S
O141 Fe133 1.997 . S
O141 C139 1.235 . S
C142 O148 1.287 . S
C142 O149 1.255 . S
O143 Fe132 1.976 . S
O143 C150 1.287 . S
O144 Fe133 1.996 . S
O144 C150 1.255 . S
O145 Fe135 1.976 . S
O145 C140 1.287 . S
O146 Fe132 1.996 . S
O146 C140 1.255 . S
C147 O151 1.295 . S
C147 O152 1.235 . S
O148 Fe133 1.976 . S
O148 C142 1.287 . S
O149 Fe135 1.996 . S
O149 C142 1.255 . S
C150 O143 1.287 . S
C150 O144 1.255 . S
O151 Fe133 2.002 . S
O151 C147 1.295 . S
O152 Fe135 1.997 . S
O152 C147 1.235 . S
C153 O136 1.295 1_545 S
C153 O137 1.235 . S
Fe154 O156 1.918 . S
Fe154 O159 1.997 . S
Fe154 O160 2.002 . S
Fe154 O165 1.976 . S
Fe154 O168 1.996 . S
Fe155 O156 1.918 . S
Fe155 O163 1.997 . S
Fe155 O166 1.996 . S
Fe155 O170 1.976 . S
Fe155 O173 2.002 . S
O156 Fe154 1.918 . S
O156 Fe155 1.918 . S
O156 Fe157 1.918 . S
Fe157 O156 1.918 . S
Fe157 O158 2.002 . S
Fe157 O167 1.976 . S
Fe157 O171 1.996 . S
Fe157 O174 1.997 . S
O158 Fe157 2.002 . S
O158 C175 1.295 . S
O159 Fe154 1.997 . S
O159 C175 1.235 . S
O160 Fe154 2.002 . S
O160 C161 1.295 . S
C161 O160 1.295 . S
C161 O163 1.235 . S
C162 O167 1.287 . S
C162 O168 1.255 . S
O163 Fe155 1.997 . S
O163 C161 1.235 . S
C164 O170 1.287 . S
C164 O171 1.255 . S
O165 Fe154 1.976 . S
O165 C172 1.287 . S
O166 Fe155 1.996 . S
O166 C172 1.255 . S
O167 Fe157 1.976 . S
O167 C162 1.287 . S
O168 Fe154 1.996 . S
O168 C162 1.255 . S
C169 O173 1.295 . S
C169 O174 1.235 . S
O170 Fe155 1.976 . S
O170 C164 1.287 . S
O171 Fe157 1.996 . S
O171 C164 1.255 . S
C172 O165 1.287 . S
C172 O166 1.255 . S
O173 Fe155 2.002 . S
O173 C169 1.295 . S
O174 Fe157 1.997 . S
O174 C169 1.235 . S
C175 O158 1.295 . S
C175 O159 1.235 . S
Fe176 O178 1.918 . S
Fe176 O181 1.997 . S
Fe176 O182 2.002 . S
Fe176 O187 1.976 . S
Fe176 O190 1.996 . S
Fe177 O178 1.918 . S
Fe177 O185 1.997 . S
Fe177 O188 1.996 . S
Fe177 O192 1.976 1_655 S
Fe177 O195 2.002 . S
O178 Fe176 1.918 . S
O178 Fe177 1.918 . S
O178 Fe179 1.918 . S
Fe179 O178 1.918 . S
Fe179 O180 2.002 . S
Fe179 O189 1.976 . S
Fe179 O193 1.996 1_655 S
Fe179 O196 1.997 . S
O180 Fe179 2.002 . S
O180 C197 1.295 . S
O181 Fe176 1.997 . S
O181 C197 1.235 . S
O182 Fe176 2.002 . S
O182 C183 1.295 . S
C183 O182 1.295 . S
C183 O185 1.235 . S
C184 O189 1.287 . S
C184 O190 1.255 . S
O185 Fe177 1.997 . S
O185 C183 1.235 . S
C186 O192 1.287 . S
C186 O193 1.255 . S
O187 Fe176 1.976 . S
O187 C194 1.287 . S
O188 Fe177 1.996 . S
O188 C194 1.255 . S
O189 Fe179 1.976 . S
O189 C184 1.287 . S
O190 Fe176 1.996 . S
O190 C184 1.255 . S
C191 O195 1.295 . S
C191 O196 1.235 . S
O192 Fe177 1.976 1_455 S
O192 C186 1.287 . S
O193 Fe179 1.996 1_455 S
O193 C186 1.255 . S
C194 O187 1.287 . S
C194 O188 1.255 . S
O195 Fe177 2.002 . S
O195 C191 1.295 . S
O196 Fe179 1.997 . S
O196 C191 1.235 . S
C197 O180 1.295 . S
C197 O181 1.235 . S
Fe198 O200 1.918 . S
Fe198 O203 1.997 . S
Fe198 O204 2.002 . S
Fe198 O209 1.976 1_455 S
Fe198 O212 1.996 . S
Fe199 O200 1.918 . S
Fe199 O207 1.997 1_565 S
Fe199 O210 1.996 1_455 S
Fe199 O214 1.976 . S
Fe199 O217 2.002 1_565 S
O200 Fe198 1.918 . S
O200 Fe199 1.918 . S
O200 Fe201 1.918 . S
Fe201 O200 1.918 . S
Fe201 O202 2.002 . S
Fe201 O211 1.976 . S
Fe201 O215 1.996 . S
Fe201 O218 1.997 . S
O202 Fe201 2.002 . S
O202 C219 1.295 . S
O203 Fe198 1.997 . S
O203 C219 1.235 . S
O204 Fe198 2.002 . S
O204 C205 1.295 . S
C205 O204 1.295 . S
C205 O207 1.235 1_565 S
C206 O211 1.287 . S
C206 O212 1.255 . S
O207 Fe199 1.997 1_545 S
O207 C205 1.235 1_545 S
C208 O214 1.287 . S
C208 O215 1.255 . S
O209 Fe198 1.976 1_655 S
O209 C216 1.287 . S
O210 Fe199 1.996 1_655 S
O210 C216 1.255 . S
O211 Fe201 1.976 . S
O211 C206 1.287 . S
O212 Fe198 1.996 . S
O212 C206 1.255 . S
C213 O217 1.295 1_565 S
C213 O218 1.235 . S
O214 Fe199 1.976 . S
O214 C208 1.287 . S
O215 Fe201 1.996 . S
O215 C208 1.255 . S
C216 O209 1.287 . S
C216 O210 1.255 . S
O217 Fe199 2.002 1_545 S
O217 C213 1.295 1_545 S
O218 Fe201 1.997 . S
O218 C213 1.235 . S
C219 O202 1.295 . S
C219 O203 1.235 . S
Fe220 O222 1.918 . S
Fe220 O225 1.997 . S
Fe220 O226 2.002 . S
Fe220 O231 1.976 . S
Fe220 O234 1.996 1_655 S
Fe221 O222 1.918 . S
Fe221 O229 1.997 . S
Fe221 O232 1.996 . S
Fe221 O236 1.976 . S
Fe221 O239 2.002 . S
O222 Fe220 1.918 . S
O222 Fe221 1.918 . S
O222 Fe223 1.918 . S
Fe223 O222 1.918 . S
Fe223 O224 2.002 . S
Fe223 O233 1.976 1_655 S
Fe223 O237 1.996 . S
Fe223 O240 1.997 . S
O224 Fe223 2.002 . S
O224 C241 1.295 . S
O225 Fe220 1.997 . S
O225 C241 1.235 . S
O226 Fe220 2.002 . S
O226 C227 1.295 . S
C227 O226 1.295 . S
C227 O229 1.235 . S
C228 O233 1.287 . S
C228 O234 1.255 . S
O229 Fe221 1.997 . S
O229 C227 1.235 . S
C230 O236 1.287 . S
C230 O237 1.255 . S
O231 Fe220 1.976 . S
O231 C238 1.287 . S
O232 Fe221 1.996 . S
O232 C238 1.255 . S
O233 Fe223 1.976 1_455 S
O233 C228 1.287 . S
O234 Fe220 1.996 1_455 S
O234 C228 1.255 . S
C235 O239 1.295 . S
C235 O240 1.235 . S
O236 Fe221 1.976 . S
O236 C230 1.287 . S
O237 Fe223 1.996 . S
O237 C230 1.255 . S
C238 O231 1.287 . S
C238 O232 1.255 . S
O239 Fe221 2.002 . S
O239 C235 1.295 . S
O240 Fe223 1.997 . S
O240 C235 1.235 . S
C241 O224 1.295 . S
C241 O225 1.235 . S
Fe242 O244 1.918 . S
Fe242 O247 1.997 1_545 S
Fe242 O248 2.002 1_545 S
Fe242 O253 1.976 . S
Fe242 O256 1.996 1_455 S
Fe243 O244 1.918 . S
Fe243 O251 1.997 . S
Fe243 O254 1.996 . S
Fe243 O258 1.976 . S
Fe243 O261 2.002 . S
O244 Fe242 1.918 . S
O244 Fe243 1.918 . S
O244 Fe245 1.918 . S
Fe245 O244 1.918 . S
Fe245 O246 2.002 . S
Fe245 O255 1.976 1_455 S
Fe245 O259 1.996 . S
Fe245 O262 1.997 . S
O246 Fe245 2.002 . S
O246 C263 1.295 . S
O247 Fe242 1.997 1_565 S
O247 C263 1.235 1_565 S
O248 Fe242 2.002 1_565 S
O248 C249 1.295 1_565 S
C249 O248 1.295 1_545 S
C249 O251 1.235 . S
C250 O255 1.287 . S
C250 O256 1.255 . S
O251 Fe243 1.997 . S
O251 C249 1.235 . S
C252 O258 1.287 . S
C252 O259 1.255 . S
O253 Fe242 1.976 . S
O253 C260 1.287 . S
O254 Fe243 1.996 . S
O254 C260 1.255 . S
O255 Fe245 1.976 1_655 S
O255 C250 1.287 . S
O256 Fe242 1.996 1_655 S
O256 C250 1.255 . S
C257 O261 1.295 . S
C257 O262 1.235 . S
O258 Fe243 1.976 . S
O258 C252 1.287 . S
O259 Fe245 1.996 . S
O259 C252 1.255 . S
C260 O253 1.287 . S
C260 O254 1.255 . S
O261 Fe243 2.002 . S
O261 C257 1.295 . S
O262 Fe245 1.997 . S
O262 C257 1.235 . S
C263 O246 1.295 . S
C263 O247 1.235 1_545 S
Fe264 O266 1.918 . S
Fe264 O269 1.997 . S
Fe264 O270 2.002 . S
Fe264 O275 1.976 . S
Fe264 O278 1.996 . S
Fe265 O266 1.918 . S
Fe265 O273 1.997 . S
Fe265 O276 1.996 . S
Fe265 O280 1.976 1_455 S
Fe265 O283 2.002 . S
O266 Fe264 1.918 . S
O266 Fe265 1.918 . S
O266 Fe267 1.918 . S
Fe267 O266 1.918 . S
Fe267 O268 2.002 . S
Fe267 O277 1.976 . S
Fe267 O281 1.996 1_455 S
Fe267 O284 1.997 . S
O268 Fe267 2.002 . S
O268 C285 1.295 . S
O269 Fe264 1.997 . S
O269 C285 1.235 . S
O270 Fe264 2.002 . S
O270 C271 1.295 . S
C271 O270 1.295 . S
C271 O273 1.235 . S
C272 O277 1.287 . S
C272 O278 1.255 . S
O273 Fe265 1.997 . S
O273 C271 1.235 . S
C274 O280 1.287 . S
C274 O281 1.255 . S
O275 Fe264 1.976 . S
O275 C282 1.287 . S
O276 Fe265 1.996 . S
O276 C282 1.255 . S
O277 Fe267 1.976 . S
O277 C272 1.287 . S
O278 Fe264 1.996 . S
O278 C272 1.255 . S
C279 O283 1.295 . S
C279 O284 1.235 . S
O280 Fe265 1.976 1_655 S
O280 C274 1.287 . S
O281 Fe267 1.996 1_655 S
O281 C274 1.255 . S
C282 O275 1.287 . S
C282 O276 1.255 . S
O283 Fe265 2.002 . S
O283 C279 1.295 . S
O284 Fe267 1.997 . S
O284 C279 1.235 . S
C285 O268 1.295 . S
C285 O269 1.235 . S
Fe286 O288 1.918 . S
Fe286 O291 1.997 . S
Fe286 O292 2.002 . S
Fe286 O297 1.976 . S
Fe286 O300 1.996 . S
Fe287 O288 1.918 . S
Fe287 O295 1.997 . S
Fe287 O298 1.996 . S
Fe287 O302 1.976 1_655 S
Fe287 O305 2.002 1_545 S
O288 Fe286 1.918 . S
O288 Fe287 1.918 . S
O288 Fe289 1.918 . S
Fe289 O288 1.918 . S
Fe289 O290 2.002 . S
Fe289 O299 1.976 . S
Fe289 O303 1.996 1_655 S
Fe289 O306 1.997 . S
O290 Fe289 2.002 . S
O290 C307 1.295 . S
O291 Fe286 1.997 . S
O291 C307 1.235 . S
O292 Fe286 2.002 . S
O292 C293 1.295 . S
C293 O292 1.295 . S
C293 O295 1.235 . S
C294 O299 1.287 . S
C294 O300 1.255 . S
O295 Fe287 1.997 . S
O295 C293 1.235 . S
C296 O302 1.287 . S
C296 O303 1.255 . S
O297 Fe286 1.976 . S
O297 C304 1.287 . S
O298 Fe287 1.996 . S
O298 C304 1.255 . S
O299 Fe289 1.976 . S
O299 C294 1.287 . S
O300 Fe286 1.996 . S
O300 C294 1.255 . S
C301 O305 1.295 1_545 S
C301 O306 1.235 . S
O302 Fe287 1.976 1_455 S
O302 C296 1.287 . S
O303 Fe289 1.996 1_455 S
O303 C296 1.255 . S
C304 O297 1.287 . S
C304 O298 1.255 . S
O305 Fe287 2.002 1_565 S
O305 C301 1.295 1_565 S
O306 Fe289 1.997 . S
O306 C301 1.235 . S
C307 O290 1.295 . S
C307 O291 1.235 . S
Fe308 O310 1.918 . S
Fe308 O313 1.997 . S
Fe308 O314 2.002 . S
Fe308 O319 1.976 . S
Fe308 O322 1.996 1_455 S
Fe309 O310 1.918 . S
Fe309 O317 1.997 . S
Fe309 O320 1.996 . S
Fe309 O324 1.976 . S
Fe309 O327 2.002 . S
O310 Fe308 1.918 . S
O310 Fe309 1.918 . S
O310 Fe311 1.918 . S
Fe311 O310 1.918 . S
Fe311 O312 2.002 . S
Fe311 O321 1.976 1_455 S
Fe311 O325 1.996 . S
Fe311 O328 1.997 . S
O312 Fe311 2.002 . S
O312 C329 1.295 . S
O313 Fe308 1.997 . S
O313 C329 1.235 . S
O314 Fe308 2.002 . S
O314 C315 1.295 . S
C315 O314 1.295 . S
C315 O317 1.235 . S
C316 O321 1.287 . S
C316 O322 1.255 . S
O317 Fe309 1.997 . S
O317 C315 1.235 . S
C318 O324 1.287 . S
C318 O325 1.255 . S
O319 Fe308 1.976 . S
O319 C326 1.287 . S
O320 Fe309 1.996 . S
O320 C326 1.255 . S
O321 Fe311 1.976 1_655 S
O321 C316 1.287 . S
O322 Fe308 1.996 1_655 S
O322 C316 1.255 . S
C323 O327 1.295 . S
C323 O328 1.235 . S
O324 Fe309 1.976 . S
O324 C318 1.287 . S
O325 Fe311 1.996 . S
O325 C318 1.255 . S
C326 O319 1.287 . S
C326 O320 1.255 . S
O327 Fe309 2.002 . S
O327 C323 1.295 . S
O328 Fe311 1.997 . S
O328 C323 1.235 . S
C329 O312 1.295 . S
C329 O313 1.235 . S
Fe330 O332 1.918 . S
Fe330 O335 1.997 . S
Fe330 O336 2.002 . S
Fe330 O341 1.976 . S
Fe330 O344 1.996 1_655 S
Fe331 O332 1.918 . S
Fe331 O339 1.997 . S
Fe331 O342 1.996 . S
Fe331 O346 1.976 . S
Fe331 O349 2.002 . S
O332 Fe330 1.918 . S
O332 Fe331 1.918 . S
O332 Fe333 1.918 . S
Fe333 O332 1.918 . S
Fe333 O334 2.002 1_565 S
Fe333 O343 1.976 1_655 S
Fe333 O347 1.996 . S
Fe333 O350 1.997 . S
O334 Fe333 2.002 1_545 S
O334 C351 1.295 1_545 S
O335 Fe330 1.997 . S
O335 C351 1.235 . S
O336 Fe330 2.002 . S
O336 C337 1.295 . S
C337 O336 1.295 . S
C337 O339 1.235 . S
C338 O343 1.287 . S
C338 O344 1.255 . S
O339 Fe331 1.997 . S
O339 C337 1.235 . S
C340 O346 1.287 . S
C340 O347 1.255 . S
O341 Fe330 1.976 . S
O341 C348 1.287 . S
O342 Fe331 1.996 . S
O342 C348 1.255 . S
O343 Fe333 1.976 1_455 S
O343 C338 1.287 . S
O344 Fe330 1.996 1_455 S
O344 C338 1.255 . S
C345 O349 1.295 . S
C345 O350 1.235 . S
O346 Fe331 1.976 . S
O346 C340 1.287 . S
O347 Fe333 1.996 . S
O347 C340 1.255 . S
C348 O341 1.287 . S
C348 O342 1.255 . S
O349 Fe331 2.002 . S
O349 C345 1.295 . S
O350 Fe333 1.997 . S
O350 C345 1.235 . S
C351 O334 1.295 1_565 S
C351 O335 1.235 . S
C352 C353 1.387 1_545 S
C352 H356 0.950 . S
C352 C361 1.390 1_554 S
C353 C352 1.387 1_565 S
C353 C355 1.387 . S
H354 C361 0.950 . S
C355 C353 1.387 . S
C355 C357 1.390 1_554 S
C355 H359 0.950 . S
H356 C352 0.950 . S
C357 C355 1.390 1_556 S
C357 C358 1.387 1_565 S
C357 H360 0.950 . S
C358 C357 1.387 1_545 S
C358 C361 1.387 . S
H359 C355 0.950 . S
H360 C357 0.950 . S
C361 C352 1.390 1_556 S
C361 H354 0.950 . S
C361 C358 1.387 . S
C362 C363 1.387 . S
C362 H366 0.950 . S
C362 C371 1.390 1_554 S
C363 C362 1.387 . S
C363 C365 1.387 . S
H364 C371 0.950 . S
C365 C363 1.387 . S
C365 C367 1.390 1_554 S
C365 H369 0.950 . S
H366 C362 0.950 . S
C367 C365 1.390 1_556 S
C367 C368 1.387 . S
C367 H370 0.950 . S
C368 C367 1.387 . S
C368 C371 1.387 . S
H369 C365 0.950 . S
H370 C367 0.950 . S
C371 C362 1.390 1_556 S
C371 H364 0.950 . S
C371 C368 1.387 . S
C372 C373 1.387 1_565 S
C372 H376 0.950 . S
C372 C381 1.390 . S
C373 C372 1.387 1_545 S
C373 C375 1.387 . S
H374 C381 0.950 . S
C375 C373 1.387 . S
C375 C377 1.390 . S
C375 H379 0.950 . S
H376 C372 0.950 . S
C377 C375 1.390 . S
C377 C378 1.387 1_545 S
C377 H380 0.950 . S
C378 C377 1.387 1_565 S
C378 C381 1.387 . S
H379 C375 0.950 . S
H380 C377 0.950 . S
C381 C372 1.390 . S
C381 H374 0.950 . S
C381 C378 1.387 . S
C382 C383 1.387 . S
C382 H386 0.950 . S
C382 C391 1.390 . S
C383 C382 1.387 . S
C383 C385 1.387 . S
H384 C391 0.950 . S
C385 C383 1.387 . S
C385 C387 1.390 . S
C385 H389 0.950 . S
H386 C382 0.950 . S
C387 C385 1.390 . S
C387 C388 1.387 . S
C387 H390 0.950 . S
C388 C387 1.387 . S
C388 C391 1.387 . S
H389 C385 0.950 . S
H390 C387 0.950 . S
C391 C382 1.390 . S
C391 H384 0.950 . S
C391 C388 1.387 . S
C392 C393 1.387 . S
C392 H396 0.950 . S
C392 C401 1.390 1_655 S
C393 C392 1.387 . S
C393 C395 1.387 . S
H394 C401 0.950 . S
C395 C393 1.387 . S
C395 C397 1.390 1_655 S
C395 H399 0.950 . S
H396 C392 0.950 . S
C397 C395 1.390 1_455 S
C397 C398 1.387 . S
C397 H400 0.950 . S
C398 C397 1.387 . S
C398 C401 1.387 . S
H399 C395 0.950 . S
H400 C397 0.950 . S
C401 C392 1.390 1_455 S
C401 H394 0.950 . S
C401 C398 1.387 . S
C402 C403 1.387 1_565 S
C402 H406 0.950 . S
C402 C411 1.390 1_455 S
C403 C402 1.387 1_545 S
C403 C405 1.387 . S
H404 C411 0.950 . S
C405 C403 1.387 . S
C405 C407 1.390 1_455 S
C405 H409 0.950 . S
H406 C402 0.950 . S
C407 C405 1.390 1_655 S
C407 C408 1.387 1_545 S
C407 H410 0.950 . S
C408 C407 1.387 1_565 S
C408 C411 1.387 . S
H409 C405 0.950 . S
H410 C407 0.950 . S
C411 C402 1.390 1_655 S
C411 H404 0.950 . S
C411 C408 1.387 . S
C412 C413 1.387 . S
C412 H416 0.950 . S
C412 C421 1.390 1_656 S
C413 C412 1.387 . S
C413 C415 1.387 . S
H414 C421 0.950 . S
C415 C413 1.387 . S
C415 C417 1.387 1_656 S
C415 H419 0.950 . S
H416 C412 0.950 . S
C417 C415 1.387 1_454 S
C417 C418 1.390 . S
C417 H420 0.950 . S
C418 C417 1.390 . S
C418 C421 1.387 . S
H419 C415 0.950 . S
H420 C417 0.950 . S
C421 C412 1.390 1_454 S
C421 H414 0.950 . S
C421 C418 1.387 . S
C422 C423 1.387 . S
C422 H426 0.950 . S
C422 C431 1.390 1_456 S
C423 C422 1.387 . S
C423 C425 1.387 1_565 S
H424 C431 0.950 . S
C425 C423 1.387 1_545 S
C425 C427 1.390 1_456 S
C425 H429 0.950 . S
H426 C422 0.950 . S
C427 C425 1.390 1_654 S
C427 C428 1.387 . S
C427 H430 0.950 . S
C428 C427 1.387 . S
C428 C431 1.387 1_545 S
H429 C425 0.950 . S
H430 C427 0.950 . S
C431 C422 1.390 1_654 S
C431 H424 0.950 . S
C431 C428 1.387 1_565 S
C432 C433 1.387 . S
C432 H436 0.950 . S
C432 C441 1.390 1_545 S
C433 C432 1.387 . S
C433 C435 1.387 . S
H434 C441 0.950 . S
C435 C433 1.387 . S
C435 C437 1.390 1_545 S
C435 H439 0.950 . S
H436 C432 0.950 . S
C437 C435 1.390 1_565 S
C437 C438 1.387 . S
C437 H440 0.950 . S
C438 C437 1.387 . S
C438 C441 1.387 . S
H439 C435 0.950 . S
H440 C437 0.950 . S
C441 C432 1.390 1_565 S
C441 H434 0.950 . S
C441 C438 1.387 . S
C442 C443 1.387 . S
C442 H446 0.950 . S
C442 C451 1.390 . S
C443 C442 1.387 . S
C443 C445 1.387 . S
H444 C451 0.950 . S
C445 C443 1.387 . S
C445 C447 1.390 . S
C445 H449 0.950 . S
H446 C442 0.950 . S
C447 C445 1.390 . S
C447 C448 1.387 . S
C447 H450 0.950 . S
C448 C447 1.387 . S
C448 C451 1.387 . S
H449 C445 0.950 . S
H450 C447 0.950 . S
C451 C442 1.390 . S
C451 H444 0.950 . S
C451 C448 1.387 . S
C452 C453 1.387 . S
C452 H456 0.950 . S
C452 C461 1.390 1_565 S
C453 C452 1.387 . S
C453 C455 1.387 . S
H454 C461 0.950 . S
C455 C453 1.387 . S
C455 C457 1.390 1_565 S
C455 H459 0.950 . S
H456 C452 0.950 . S
C457 C455 1.390 1_545 S
C457 C458 1.387 . S
C457 H460 0.950 . S
C458 C457 1.387 . S
C458 C461 1.387 . S
H459 C455 0.950 . S
H460 C457 0.950 . S
C461 C452 1.390 1_545 S
C461 H454 0.950 . S
C461 C458 1.387 . S
C462 C463 1.387 . S
C462 H466 0.950 . S
C462 C471 1.390 . S
C463 C462 1.387 . S
C463 C465 1.387 . S
H464 C471 0.950 . S
C465 C463 1.387 . S
C465 C467 1.390 . S
C465 H469 0.950 . S
H466 C462 0.950 . S
C467 C465 1.390 . S
C467 C468 1.387 . S
C467 H470 0.950 . S
C468 C467 1.387 . S
C468 C471 1.387 . S
H469 C465 0.950 . S
H470 C467 0.950 . S
C471 C462 1.390 . S
C471 H464 0.950 . S
C471 C468 1.387 . S
C472 C473 1.387 . S
C472 H476 0.950 1_655 S
C472 C481 1.390 . S
C473 C472 1.387 . S
C473 C475 1.387 . S
H474 C481 0.950 1_455 S
C475 C473 1.387 . S
C475 C477 1.390 . S
C475 H479 0.950 . S
H476 C472 0.950 1_455 S
C477 C475 1.390 . S
C477 C478 1.387 . S
C477 H480 0.950 . S
C478 C477 1.387 . S
C478 C481 1.387 . S
H479 C475 0.950 . S
H480 C477 0.950 . S
C481 C472 1.390 . S
C481 H474 0.950 1_655 S
C481 C478 1.387 . S
C482 C483 1.387 . S
C482 H486 0.950 1_455 S
C482 C491 1.390 1_545 S
C483 C482 1.387 . S
C483 C485 1.387 . S
H484 C491 0.950 1_655 S
C485 C483 1.387 . S
C485 C487 1.390 1_545 S
C485 H489 0.950 . S
H486 C482 0.950 1_655 S
C487 C485 1.390 1_565 S
C487 C488 1.387 . S
C487 H490 0.950 . S
C488 C487 1.387 . S
C488 C491 1.387 . S
H489 C485 0.950 . S
H490 C487 0.950 . S
C491 C482 1.390 1_565 S
C491 H484 0.950 1_455 S
C491 C488 1.387 . S
C492 C493 1.387 . S
C492 H496 0.950 1_455 S
C492 C501 1.390 . S
C493 C492 1.387 . S
C493 C495 1.387 . S
H494 C501 0.950 1_655 S
C495 C493 1.387 . S
C495 C497 1.390 . S
C495 H499 0.950 . S
H496 C492 0.950 1_655 S
C497 C495 1.390 . S
C497 C498 1.387 . S
C497 H500 0.950 . S
C498 C497 1.387 . S
C498 C501 1.387 . S
H499 C495 0.950 . S
H500 C497 0.950 . S
C501 C492 1.390 . S
C501 H494 0.950 1_455 S
C501 C498 1.387 . S
C502 C503 1.387 . S
C502 H506 0.950 1_655 S
C502 C511 1.390 1_545 S
C503 C502 1.387 . S
C503 C505 1.387 . S
H504 C511 0.950 1_455 S
C505 C503 1.387 . S
C505 C507 1.390 1_545 S
C505 H509 0.950 . S
H506 C502 0.950 1_455 S
C507 C505 1.390 1_565 S
C507 C508 1.387 . S
C507 H510 0.950 . S
C508 C507 1.387 . S
C508 C511 1.387 . S
H509 C505 0.950 . S
H510 C507 0.950 . S
C511 C502 1.390 1_565 S
C511 H504 0.950 1_655 S
C511 C508 1.387 . S
C512 C513 1.387 . S
C512 H516 0.950 . S
C512 C521 1.390 1_554 S
C513 C512 1.387 . S
C513 C515 1.387 . S
H514 C521 0.950 . S
C515 C513 1.387 . S
C515 C517 1.390 1_554 S
C515 H519 0.950 . S
H516 C512 0.950 . S
C517 C515 1.390 1_556 S
C517 C518 1.387 . S
C517 H520 0.950 . S
C518 C517 1.387 . S
C518 C521 1.387 . S
H519 C515 0.950 . S
H520 C517 0.950 . S
C521 C512 1.390 1_556 S
C521 H514 0.950 . S
C521 C518 1.387 . S
C522 C523 1.387 . S
C522 H526 0.950 . S
C522 C531 1.390 1_556 S
C523 C522 1.387 . S
C523 C525 1.387 . S
H524 C531 0.950 . S
C525 C523 1.387 . S
C525 C527 1.390 1_556 S
C525 H529 0.950 . S
H526 C522 0.950 . S
C527 C525 1.390 1_554 S
C527 C528 1.387 . S
C527 H530 0.950 . S
C528 C527 1.387 . S
C528 C531 1.387 . S
H529 C525 0.950 . S
H530 C527 0.950 . S
C531 C522 1.390 1_554 S
C531 H524 0.950 . S
C531 C528 1.387 . S
C532 C533 1.387 . S
C532 H536 0.950 . S
C532 C541 1.390 . S
C533 C532 1.387 . S
C533 C535 1.387 . S
H534 C541 0.950 . S
C535 C533 1.387 . S
C535 C537 1.390 . S
C535 H539 0.950 . S
H536 C532 0.950 . S
C537 C535 1.390 . S
C537 C538 1.387 . S
C537 H540 0.950 . S
C538 C537 1.387 . S
C538 C541 1.387 . S
H539 C535 0.950 . S
H540 C537 0.950 . S
C541 C532 1.390 . S
C541 H534 0.950 . S
C541 C538 1.387 . S
C542 C543 1.387 . S
C542 H546 0.950 . S
C542 C551 1.390 . S
C543 C542 1.387 . S
C543 C545 1.387 . S
H544 C551 0.950 . S
C545 C543 1.387 . S
C545 C547 1.390 . S
C545 H549 0.950 . S
H546 C542 0.950 . S
C547 C545 1.390 . S
C547 C548 1.387 . S
C547 H550 0.950 . S
C548 C547 1.387 . S
C548 C551 1.387 . S
H549 C545 0.950 . S
H550 C547 0.950 . S
C551 C542 1.390 . S
C551 H544 0.950 . S
C551 C548 1.387 . S
C552 C553 1.387 . S
C552 H556 0.950 . S
C552 C561 1.390 1_556 S
C553 C552 1.387 . S
C553 C555 1.387 . S
H554 C561 0.950 . S
C555 C553 1.387 . S
C555 C557 1.390 1_556 S
C555 H559 0.950 . S
H556 C552 0.950 . S
C557 C555 1.390 1_554 S
C557 C558 1.387 . S
C557 H560 0.950 . S
C558 C557 1.387 . S
C558 C561 1.387 . S
H559 C555 0.950 . S
H560 C557 0.950 . S
C561 C552 1.390 1_554 S
C561 H554 0.950 . S
C561 C558 1.387 . S
C562 C563 1.387 . S
C562 H566 0.950 . S
C562 C571 1.390 1_556 S
C563 C562 1.387 . S
C563 C565 1.387 . S
H564 C571 0.950 . S
C565 C563 1.387 . S
C565 C567 1.390 1_556 S
C565 H569 0.950 . S
H566 C562 0.950 . S
C567 C565 1.390 1_554 S
C567 C568 1.387 . S
C567 H570 0.950 . S
C568 C567 1.387 . S
C568 C571 1.387 . S
H569 C565 0.950 . S
H570 C567 0.950 . S
C571 C562 1.390 1_554 S
C571 H564 0.950 . S
C571 C568 1.387 . S
C572 C573 1.387 . S
C572 H576 0.950 . S
C572 C581 1.390 . S
C573 C572 1.387 . S
C573 C575 1.387 . S
H574 C581 0.950 . S
C575 C573 1.387 . S
C575 C577 1.390 . S
C575 H579 0.950 . S
H576 C572 0.950 . S
C577 C575 1.390 . S
C577 C578 1.387 . S
C577 H580 0.950 . S
C578 C577 1.387 . S
C578 C581 1.387 . S
H579 C575 0.950 . S
H580 C577 0.950 . S
C581 C572 1.390 . S
C581 H574 0.950 . S
C581 C578 1.387 . S
C582 C583 1.387 . S
C582 H586 0.950 . S
C582 C591 1.390 . S
C583 C582 1.387 . S
C583 C585 1.387 . S
H584 C591 0.950 . S
C585 C583 1.387 . S
C585 C587 1.390 . S
C585 H589 0.950 . S
H586 C582 0.950 . S
C587 C585 1.390 . S
C587 C588 1.387 . S
C587 H590 0.950 . S
C588 C587 1.387 . S
C588 C591 1.387 . S
H589 C585 0.950 . S
H590 C587 0.950 . S
C591 C582 1.390 . S
C591 H584 0.950 . S
C591 C588 1.387 . S
C592 C593 1.387 . S
C592 H596 0.950 . S
C592 C601 1.390 . S
C593 C592 1.387 . S
C593 C595 1.387 . S
H594 C601 0.950 . S
C595 C593 1.387 . S
C595 C597 1.390 . S
C595 H599 0.950 . S
H596 C592 0.950 . S
C597 C595 1.390 . S
C597 C598 1.387 . S
C597 H600 0.950 . S
C598 C597 1.387 . S
C598 C601 1.387 . S
H599 C595 0.950 . S
H600 C597 0.950 . S
C601 C592 1.390 . S
C601 H594 0.950 . S
C601 C598 1.387 . S
C602 C603 1.387 . S
C602 H606 0.950 . S
C602 C611 1.390 . S
C603 C602 1.387 . S
C603 C605 1.387 . S
H604 C611 0.950 . S
C605 C603 1.387 . S
C605 C607 1.390 . S
C605 H609 0.950 . S
H606 C602 0.950 . S
C607 C605 1.390 . S
C607 C608 1.387 . S
C607 H610 0.950 . S
C608 C607 1.387 . S
C608 C611 1.387 . S
H609 C605 0.950 . S
H610 C607 0.950 . S
C611 C602 1.390 . S
C611 H604 0.950 . S
C611 C608 1.387 . S
C612 C613 1.387 . S
C612 H616 0.950 . S
C612 C621 1.390 . S
C613 C612 1.387 . S
C613 C615 1.387 . S
H614 C621 0.950 . S
C615 C613 1.387 . S
C615 C617 1.390 . S
C615 H619 0.950 . S
H616 C612 0.950 . S
C617 C615 1.390 . S
C617 C618 1.387 . S
C617 H620 0.950 . S
C618 C617 1.387 . S
C618 C621 1.387 . S
H619 C615 0.950 . S
H620 C617 0.950 . S
C621 C612 1.390 . S
C621 H614 0.950 . S
C621 C618 1.387 . S
C622 C623 1.387 . S
C622 H626 0.950 . S
C622 C631 1.390 . S
C623 C622 1.387 . S
C623 C625 1.387 . S
H624 C631 0.950 . S
C625 C623 1.387 . S
C625 C627 1.390 . S
C625 H629 0.950 . S
H626 C622 0.950 . S
C627 C625 1.390 . S
C627 C628 1.387 . S
C627 H630 0.950 . S
C628 C627 1.387 . S
C628 C631 1.387 . S
H629 C625 0.950 . S
H630 C627 0.950 . S
C631 C622 1.390 . S
C631 H624 0.950 . S
C631 C628 1.387 . S
C632 C633 1.387 . S
C632 H636 0.950 . S
C632 C641 1.390 . S
C633 C632 1.387 . S
C633 C635 1.387 . S
H634 C641 0.950 . S
C635 C633 1.387 . S
C635 C637 1.390 . S
C635 H639 0.950 . S
H636 C632 0.950 . S
C637 C635 1.390 . S
C637 C638 1.387 . S
C637 H640 0.950 . S
C638 C637 1.387 . S
C638 C641 1.387 . S
H639 C635 0.950 . S
H640 C637 0.950 . S
C641 C632 1.390 . S
C641 H634 0.950 . S
C641 C638 1.387 . S
C642 C643 1.387 . S
C642 H646 0.950 . S
C642 C651 1.390 . S
C643 C642 1.387 . S
C643 C645 1.387 . S
H644 C651 0.950 . S
C645 C643 1.387 . S
C645 C647 1.390 . S
C645 H649 0.950 . S
H646 C642 0.950 . S
C647 C645 1.390 . S
C647 C648 1.387 . S
C647 H650 0.950 . S
C648 C647 1.387 . S
C648 C651 1.387 . S
H649 C645 0.950 . S
H650 C647 0.950 . S
C651 C642 1.390 . S
C651 H644 0.950 . S
C651 C648 1.387 . S
C652 C653 1.387 . S
C652 H656 0.950 1_545 S
C652 C661 1.390 . S
C653 C652 1.387 . S
C653 C655 1.387 . S
H654 C661 0.950 . S
C655 C653 1.387 . S
C655 C657 1.390 . S
C655 H659 0.950 . S
H656 C652 0.950 1_565 S
C657 C655 1.390 . S
C657 C658 1.387 . S
C657 H660 0.950 . S
C658 C657 1.387 . S
C658 C661 1.387 . S
H659 C655 0.950 . S
H660 C657 0.950 . S
C661 C652 1.390 . S
C661 H654 0.950 . S
C661 C658 1.387 . S
C662 C663 1.387 . S
C662 H666 0.950 . S
C662 C671 1.390 . S
C663 C662 1.387 . S
C663 C665 1.387 . S
H664 C671 0.950 . S
C665 C663 1.387 . S
C665 C667 1.390 . S
C665 H669 0.950 . S
H666 C662 0.950 . S
C667 C665 1.390 . S
C667 C668 1.387 . S
C667 H670 0.950 . S
C668 C667 1.387 . S
C668 C671 1.387 . S
H669 C665 0.950 . S
H670 C667 0.950 . S
C671 C662 1.390 . S
C671 H664 0.950 . S
C671 C668 1.387 . S
C672 C673 1.387 . S
C672 H676 0.950 . S
C672 C681 1.390 . S
C673 C672 1.387 . S
C673 C675 1.387 . S
H674 C681 0.950 . S
C675 C673 1.387 . S
C675 C677 1.390 . S
C675 H679 0.950 . S
H676 C672 0.950 . S
C677 C675 1.390 . S
C677 C678 1.387 . S
C677 H680 0.950 . S
C678 C677 1.387 . S
C678 C681 1.387 . S
H679 C675 0.950 . S
H680 C677 0.950 . S
C681 C672 1.390 . S
C681 H674 0.950 . S
C681 C678 1.387 . S
C682 C683 1.387 . S
C682 H686 0.950 . S
C682 C691 1.390 . S
C683 C682 1.387 . S
C683 C685 1.387 . S
H684 C691 0.950 . S
C685 C683 1.387 . S
C685 C687 1.390 . S
C685 H689 0.950 . S
H686 C682 0.950 . S
C687 C685 1.390 . S
C687 C688 1.387 . S
C687 H690 0.950 . S
C688 C687 1.387 . S
C688 C691 1.387 . S
H689 C685 0.950 . S
H690 C687 0.950 . S
C691 C682 1.390 . S
C691 H684 0.950 . S
C691 C688 1.387 . S
C692 C693 1.387 . S
C692 H696 0.950 . S
C692 C701 1.390 . S
C693 C692 1.387 . S
C693 C695 1.387 . S
H694 C701 0.950 . S
C695 C693 1.387 . S
C695 C697 1.390 . S
C695 H699 0.950 . S
H696 C692 0.950 . S
C697 C695 1.390 . S
C697 C698 1.387 . S
C697 H700 0.950 . S
C698 C697 1.387 . S
C698 C701 1.387 . S
H699 C695 0.950 . S
H700 C697 0.950 . S
C701 C692 1.390 . S
C701 H694 0.950 . S
C701 C698 1.387 . S
C702 C703 1.387 . S
C702 H706 0.950 . S
C702 C711 1.390 . S
C703 C702 1.387 . S
C703 C705 1.387 . S
H704 C711 0.950 . S
C705 C703 1.387 . S
C705 C707 1.390 . S
C705 H709 0.950 . S
H706 C702 0.950 . S
C707 C705 1.390 . S
C707 C708 1.387 . S
C707 H710 0.950 . S
C708 C707 1.387 . S
C708 C711 1.387 . S
H709 C705 0.950 . S
H710 C707 0.950 . S
C711 C702 1.390 . S
C711 H704 0.950 . S
C711 C708 1.387 . S
C712 C713 1.387 . S
C712 H716 0.950 . S
C712 C721 1.390 . S
C713 C712 1.387 . S
C713 C715 1.387 . S
H714 C721 0.950 . S
C715 C713 1.387 . S
C715 C717 1.390 . S
C715 H719 0.950 . S
H716 C712 0.950 . S
C717 C715 1.390 . S
C717 C718 1.387 . S
C717 H720 0.950 . S
C718 C717 1.387 . S
C718 C721 1.387 . S
H719 C715 0.950 . S
H720 C717 0.950 . S
C721 C712 1.390 . S
C721 H714 0.950 . S
C721 C718 1.387 . S
C722 C723 1.387 . S
C722 H726 0.950 . S
C722 C731 1.390 . S
C723 C722 1.387 . S
C723 C725 1.387 . S
H724 C731 0.950 . S
C725 C723 1.387 . S
C725 C727 1.390 . S
C725 H729 0.950 . S
H726 C722 0.950 . S
C727 C725 1.390 . S
C727 C728 1.387 . S
C727 H730 0.950 . S
C728 C727 1.387 . S
C728 C731 1.387 . S
H729 C725 0.950 . S
H730 C727 0.950 . S
C731 C722 1.390 . S
C731 H724 0.950 . S
C731 C728 1.387 . S
C732 C733 1.387 . S
C732 H736 0.950 . S
C732 C741 1.390 . S
C733 C732 1.387 . S
C733 C735 1.387 . S
H734 C741 0.950 . S
C735 C733 1.387 . S
C735 C737 1.390 . S
C735 H739 0.950 . S
H736 C732 0.950 . S
C737 C735 1.390 . S
C737 C738 1.387 . S
C737 H740 0.950 . S
C738 C737 1.387 . S
C738 C741 1.387 . S
H739 C735 0.950 . S
H740 C737 0.950 . S
C741 C732 1.390 . S
C741 H734 0.950 . S
C741 C738 1.387 . S
C742 C743 1.387 . S
C742 H746 0.950 1_565 S
C742 C751 1.390 . S
C743 C742 1.387 . S
C743 C745 1.387 . S
H744 C751 0.950 . S
C745 C743 1.387 . S
C745 C747 1.390 . S
C745 H749 0.950 . S
H746 C742 0.950 1_545 S
C747 C745 1.390 . S
C747 C748 1.387 . S
C747 H750 0.950 . S
C748 C747 1.387 . S
C748 C751 1.387 . S
H749 C745 0.950 . S
H750 C747 0.950 . S
C751 C742 1.390 . S
C751 H744 0.950 . S
C751 C748 1.387 . S
C752 C753 1.387 . S
C752 H756 0.950 . S
C752 C761 1.390 . S
C753 C752 1.387 . S
C753 C755 1.387 . S
H754 C761 0.950 . S
C755 C753 1.387 . S
C755 C757 1.390 . S
C755 H759 0.950 . S
H756 C752 0.950 . S
C757 C755 1.390 . S
C757 C758 1.387 . S
C757 H760 0.950 . S
C758 C757 1.387 . S
C758 C761 1.387 . S
H759 C755 0.950 . S
H760 C757 0.950 . S
C761 C752 1.390 . S
C761 H754 0.950 . S
C761 C758 1.387 . S
C762 C763 1.387 . S
C762 H766 0.950 . S
C762 C771 1.390 . S
C763 C762 1.387 . S
C763 C765 1.387 . S
H764 C771 0.950 . S
C765 C763 1.387 . S
C765 C767 1.390 . S
C765 H769 0.950 . S
H766 C762 0.950 . S
C767 C765 1.390 . S
C767 C768 1.387 . S
C767 H770 0.950 . S
C768 C767 1.387 . S
C768 C771 1.387 . S
H769 C765 0.950 . S
H770 C767 0.950 . S
C771 C762 1.390 . S
C771 H764 0.950 . S
C771 C768 1.387 . S
C772 C773 1.387 . S
C772 H776 0.950 . S
C772 C781 1.390 . S
C773 C772 1.387 . S
C773 C775 1.387 . S
H774 C781 0.950 . S
C775 C773 1.387 . S
C775 C777 1.390 . S
C775 H779 0.950 . S
H776 C772 0.950 . S
C777 C775 1.390 . S
C777 C778 1.387 . S
C777 H780 0.950 . S
C778 C777 1.387 . S
C778 C781 1.387 . S
H779 C775 0.950 . S
H780 C777 0.950 . S
C781 C772 1.390 . S
C781 H774 0.950 . S
C781 C778 1.387 . S
C782 C783 1.387 . S
C782 H786 0.950 . S
C782 C791 1.390 . S
C783 C782 1.387 . S
C783 C785 1.387 . S
H784 C791 0.950 . S
C785 C783 1.387 . S
C785 C787 1.390 . S
C785 H789 0.950 . S
H786 C782 0.950 . S
C787 C785 1.390 . S
C787 C788 1.387 . S
C787 H790 0.950 . S
C788 C787 1.387 . S
C788 C791 1.387 . S
H789 C785 0.950 . S
H790 C787 0.950 . S
C791 C782 1.390 . S
C791 H784 0.950 . S
C791 C788 1.387 . S
C792 C793 1.387 . S
C792 H796 0.950 . S
C792 C801 1.390 1_455 S
C793 C792 1.387 . S
C793 C795 1.387 . S
H794 C801 0.950 . S
C795 C793 1.387 . S
C795 C797 1.390 1_455 S
C795 H799 0.950 . S
H796 C792 0.950 . S
C797 C795 1.390 1_655 S
C797 C798 1.387 . S
C797 H800 0.950 . S
C798 C797 1.387 . S
C798 C801 1.387 . S
H799 C795 0.950 . S
H800 C797 0.950 . S
C801 C792 1.390 1_655 S
C801 H794 0.950 . S
C801 C798 1.387 . S
C802 C803 1.387 . S
C802 H806 0.950 . S
C802 C811 1.390 1_655 S
C803 C802 1.387 . S
C803 C805 1.387 . S
H804 C811 0.950 . S
C805 C803 1.387 . S
C805 C807 1.390 1_655 S
C805 H809 0.950 . S
H806 C802 0.950 . S
C807 C805 1.390 1_455 S
C807 C808 1.387 . S
C807 H810 0.950 . S
C808 C807 1.387 . S
C808 C811 1.387 . S
H809 C805 0.950 . S
H810 C807 0.950 . S
C811 C802 1.390 1_455 S
C811 H804 0.950 . S
C811 C808 1.387 . S
C812 C813 1.387 . S
C812 H816 0.950 . S
C812 C821 1.390 1_655 S
C813 C812 1.387 . S
C813 C815 1.387 . S
H814 C821 0.950 . S
C815 C813 1.387 . S
C815 C817 1.390 1_655 S
C815 H819 0.950 . S
H816 C812 0.950 . S
C817 C815 1.390 1_455 S
C817 C818 1.387 . S
C817 H820 0.950 . S
C818 C817 1.387 . S
C818 C821 1.387 . S
H819 C815 0.950 . S
H820 C817 0.950 . S
C821 C812 1.390 1_455 S
C821 H814 0.950 . S
C821 C818 1.387 . S
C822 C823 1.387 . S
C822 H826 0.950 . S
C822 C831 1.390 1_655 S
C823 C822 1.387 . S
C823 C825 1.387 . S
H824 C831 0.950 . S
C825 C823 1.387 . S
C825 C827 1.390 1_655 S
C825 H829 0.950 . S
H826 C822 0.950 . S
C827 C825 1.390 1_455 S
C827 C828 1.387 . S
C827 H830 0.950 . S
C828 C827 1.387 . S
C828 C831 1.387 . S
H829 C825 0.950 . S
H830 C827 0.950 . S
C831 C822 1.390 1_455 S
C831 H824 0.950 . S
C831 C828 1.387 . S
C353 C15 1.101 1_565 S
C358 C109 1.112 1_545 S
C363 C29 1.098 . S
C368 C125 1.109 . S
C373 C65 1.101 1_545 S
C378 C153 1.112 1_565 S
C383 C73 1.098 . S
C388 C175 1.109 . S
C393 C191 1.097 . S
C398 C279 1.109 . S
C403 C205 1.101 1_545 S
C408 C301 1.112 1_565 S
C413 C241 1.097 . S
C418 C329 1.108 . S
C423 C263 1.098 1_565 S
C428 C351 1.109 1_545 S
C433 C8 1.874 . S
C438 C62 1.874 . S
C443 C32 1.874 . S
C448 C76 1.874 . S
C453 C98 1.845 . S
C458 C142 1.845 . S
C463 C128 1.845 . S
C468 C164 1.845 . S
C473 C238 1.874 . S
C478 C184 1.874 . S
C483 C260 1.874 . S
C488 C208 1.874 . S
C493 C282 1.845 . S
C498 C318 1.845 . S
C503 C304 1.845 . S
C508 C340 1.845 . S
C513 C7 1.817 . S
C518 C257 1.817 . S
C523 C235 1.817 . S
C528 C43 1.817 . S
C533 C59 1.817 . S
C538 C219 1.817 . S
C543 C87 1.817 . S
C548 C183 1.817 . S
C553 C95 1.823 . S
C558 C337 1.823 . S
C563 C131 1.823 . S
C568 C315 1.823 . S
C573 C307 1.823 . S
C578 C139 1.823 . S
C583 C161 1.823 . S
C588 C285 1.823 . S
C593 C10 1.333 . S
C598 C345 1.356 1_545 S
C603 C40 1.333 . S
C608 C323 1.356 . S
C613 C52 1.333 . S
C618 C293 1.356 1_565 S
C623 C84 1.335 . S
C628 C271 1.355 . S
C633 C249 1.360 1_565 S
C638 C96 1.342 . S
C643 C227 1.360 . S
C648 C120 1.342 . S
C653 C213 1.360 1_545 S
C658 C140 1.342 . S
C663 C162 1.340 . S
C668 C197 1.361 . S
C673 C169 1.356 . S
C678 C186 1.333 . S
C683 C147 1.356 1_565 S
C688 C216 1.333 . S
C693 C117 1.356 . S
C698 C228 1.333 . S
C703 C250 1.333 . S
C708 C103 1.356 1_545 S
C713 C274 1.342 . S
C718 C81 1.360 . S
C723 C51 1.360 1_545 S
C728 C296 1.342 . S
C733 C316 1.342 . S
C738 C37 1.360 . S
C743 C21 1.360 1_565 S
C748 C338 1.342 . S
C753 C18 1.497 . S
C758 C30 1.497 . S
C763 C74 1.498 . S
C768 C54 1.498 . S
C773 C106 1.502 . S
C778 C118 1.502 . S
C783 C172 1.503 . S
C788 C150 1.503 . S
C793 C206 1.498 . S
C798 C194 1.498 . S
C803 C230 1.497 . S
C808 C252 1.497 . S
C813 C294 1.503 . S
C818 C272 1.503 . S
C823 C348 1.502 . S
C828 C326 1.502 . S
