# Generated by pormake.
# Topology wib, (6)-cn, num edge types: 1
# Building blocks:
#     Node 0, Type 0, BuildingBlock: VOLQOD_clean_sbu_1, # of connection points: 6
#     Node 1, Type 0, BuildingBlock: VOLQOD_clean_sbu_1, # of connection points: 6
#     Node 2, Type 0, BuildingBlock: VOLQOD_clean_sbu_1, # of connection points: 6
#     Node 3, Type 0, BuildingBlock: VOLQOD_clean_sbu_1, # of connection points: 6
#     Node 4, Type 0, BuildingBlock: VOLQOD_clean_sbu_1, # of connection points: 6
#     Node 5, Type 0, BuildingBlock: VOLQOD_clean_sbu_1, # of connection points: 6
#     Node 6, Type 0, BuildingBlock: VOLQOD_clean_sbu_1, # of connection points: 6
#     Node 7, Type 0, BuildingBlock: VOLQOD_clean_sbu_1, # of connection points: 6
#     Node 8, Type 0, BuildingBlock: VOLQOD_clean_sbu_1, # of connection points: 6
#     Node 9, Type 0, BuildingBlock: VOLQOD_clean_sbu_1, # of connection points: 6
#     Node 10, Type 0, BuildingBlock: VOLQOD_clean_sbu_1, # of connection points: 6
#     Node 11, Type 0, BuildingBlock: VOLQOD_clean_sbu_1, # of connection points: 6
#     Node 12, Type 0, BuildingBlock: VOLQOD_clean_sbu_1, # of connection points: 6
#     Node 13, Type 0, BuildingBlock: VOLQOD_clean_sbu_1, # of connection points: 6
#     Node 14, Type 0, BuildingBlock: VOLQOD_clean_sbu_1, # of connection points: 6
#     Node 15, Type 0, BuildingBlock: VOLQOD_clean_sbu_1, # of connection points: 6
#     Edge 16, Type (0, 0), BuildingBlock: UVAHIK_clean_linker_0, # of connection points: 2
#     Edge 17, Type (0, 0), BuildingBlock: UVAHIK_clean_linker_0, # of connection points: 2
#     Edge 18, Type (0, 0), BuildingBlock: UVAHIK_clean_linker_0, # of connection points: 2
#     Edge 19, Type (0, 0), BuildingBlock: UVAHIK_clean_linker_0, # of connection points: 2
#     Edge 20, Type (0, 0), BuildingBlock: UVAHIK_clean_linker_0, # of connection points: 2
#     Edge 21, Type (0, 0), BuildingBlock: UVAHIK_clean_linker_0, # of connection points: 2
#     Edge 22, Type (0, 0), BuildingBlock: UVAHIK_clean_linker_0, # of connection points: 2
#     Edge 23, Type (0, 0), BuildingBlock: UVAHIK_clean_linker_0, # of connection points: 2
#     Edge 24, Type (0, 0), BuildingBlock: UVAHIK_clean_linker_0, # of connection points: 2
#     Edge 25, Type (0, 0), BuildingBlock: UVAHIK_clean_linker_0, # of connection points: 2
#     Edge 26, Type (0, 0), BuildingBlock: UVAHIK_clean_linker_0, # of connection points: 2
#     Edge 27, Type (0, 0), BuildingBlock: UVAHIK_clean_linker_0, # of connection points: 2
#     Edge 28, Type (0, 0), BuildingBlock: UVAHIK_clean_linker_0, # of connection points: 2
#     Edge 29, Type (0, 0), BuildingBlock: UVAHIK_clean_linker_0, # of connection points: 2
#     Edge 30, Type (0, 0), BuildingBlock: UVAHIK_clean_linker_0, # of connection points: 2
#     Edge 31, Type (0, 0), BuildingBlock: UVAHIK_clean_linker_0, # of connection points: 2
#     Edge 32, Type (0, 0), BuildingBlock: UVAHIK_clean_linker_0, # of connection points: 2
#     Edge 33, Type (0, 0), BuildingBlock: UVAHIK_clean_linker_0, # of connection points: 2
#     Edge 34, Type (0, 0), BuildingBlock: UVAHIK_clean_linker_0, # of connection points: 2
#     Edge 35, Type (0, 0), BuildingBlock: UVAHIK_clean_linker_0, # of connection points: 2
#     Edge 36, Type (0, 0), BuildingBlock: UVAHIK_clean_linker_0, # of connection points: 2
#     Edge 37, Type (0, 0), BuildingBlock: UVAHIK_clean_linker_0, # of connection points: 2
#     Edge 38, Type (0, 0), BuildingBlock: UVAHIK_clean_linker_0, # of connection points: 2
#     Edge 39, Type (0, 0), BuildingBlock: UVAHIK_clean_linker_0, # of connection points: 2
#     Edge 40, Type (0, 0), BuildingBlock: UVAHIK_clean_linker_0, # of connection points: 2
#     Edge 41, Type (0, 0), BuildingBlock: UVAHIK_clean_linker_0, # of connection points: 2
#     Edge 42, Type (0, 0), BuildingBlock: UVAHIK_clean_linker_0, # of connection points: 2
#     Edge 43, Type (0, 0), BuildingBlock: UVAHIK_clean_linker_0, # of connection points: 2
#     Edge 44, Type (0, 0), BuildingBlock: UVAHIK_clean_linker_0, # of connection points: 2
#     Edge 45, Type (0, 0), BuildingBlock: UVAHIK_clean_linker_0, # of connection points: 2
#     Edge 46, Type (0, 0), BuildingBlock: UVAHIK_clean_linker_0, # of connection points: 2
#     Edge 47, Type (0, 0), BuildingBlock: UVAHIK_clean_linker_0, # of connection points: 2
#     Edge 48, Type (0, 0), BuildingBlock: UVAHIK_clean_linker_0, # of connection points: 2
#     Edge 49, Type (0, 0), BuildingBlock: UVAHIK_clean_linker_0, # of connection points: 2
#     Edge 50, Type (0, 0), BuildingBlock: UVAHIK_clean_linker_0, # of connection points: 2
#     Edge 51, Type (0, 0), BuildingBlock: UVAHIK_clean_linker_0, # of connection points: 2
#     Edge 52, Type (0, 0), BuildingBlock: UVAHIK_clean_linker_0, # of connection points: 2
#     Edge 53, Type (0, 0), BuildingBlock: UVAHIK_clean_linker_0, # of connection points: 2
#     Edge 54, Type (0, 0), BuildingBlock: UVAHIK_clean_linker_0, # of connection points: 2
#     Edge 55, Type (0, 0), BuildingBlock: UVAHIK_clean_linker_0, # of connection points: 2
#     Edge 56, Type (0, 0), BuildingBlock: UVAHIK_clean_linker_0, # of connection points: 2
#     Edge 57, Type (0, 0), BuildingBlock: UVAHIK_clean_linker_0, # of connection points: 2
#     Edge 58, Type (0, 0), BuildingBlock: UVAHIK_clean_linker_0, # of connection points: 2
#     Edge 59, Type (0, 0), BuildingBlock: UVAHIK_clean_linker_0, # of connection points: 2
#     Edge 60, Type (0, 0), BuildingBlock: UVAHIK_clean_linker_0, # of connection points: 2
#     Edge 61, Type (0, 0), BuildingBlock: UVAHIK_clean_linker_0, # of connection points: 2
#     Edge 62, Type (0, 0), BuildingBlock: UVAHIK_clean_linker_0, # of connection points: 2
#     Edge 63, Type (0, 0), BuildingBlock: UVAHIK_clean_linker_0, # of connection points: 2
# Relax obj value: 0.536
# Max RMSD: 0.268
# Mean RMSD: 0.267
data_MOF--net-wib--node1-VOLQOD_clean_sbu_1--edge1-UVAHIK_clean_linker_0
_symmetry_space_group_name_H-M    P1
_symmetry_Int_Tables_number       1
_symmetry_cell_setting            triclinic
loop_
_symmetry_equiv_pos_as_xyz
'x, y, z'
_cell_length_a     38.167277
_cell_length_b     38.120173
_cell_length_c     82.504456
_cell_angle_alpha  90.002764
_cell_angle_beta   89.998809
_cell_angle_gamma 89.747897
loop_
_atom_site_label
_atom_site_type_symbol
_atom_site_fract_x
_atom_site_fract_y
_atom_site_fract_z
_atom_type_partial_charge
O0 O 0.08375 0.56414 0.26016 0.0
Zn1 Zn 0.12658 0.53342 0.26207 0.0
O2 O 0.13081 0.50076 0.24392 0.0
Zn3 Zn 0.12938 0.45274 0.25227 0.0
Zn4 Zn 0.09283 0.50998 0.22867 0.0
Zn5 Zn 0.17475 0.5084 0.23274 0.0
O6 O 0.17425 0.4256 0.24669 0.0
O7 O 0.20724 0.46802 0.23624 0.0
O8 O 0.12895 0.50915 0.28374 0.0
O9 O 0.13014 0.45306 0.27666 0.0
O10 O 0.08344 0.42972 0.24561 0.0
O11 O 0.05776 0.47072 0.23033 0.0
O12 O 0.1101 0.51463 0.20542 0.0
O13 O 0.16541 0.56833 0.26133 0.0
O14 O 0.16766 0.51342 0.20892 0.0
O15 O 0.19758 0.55308 0.24008 0.0
C16 C 0.06624 0.57306 0.24766 0.0
C17 C 0.20353 0.43666 0.24122 0.0
C18 C 0.05738 0.44079 0.23728 0.0
C19 C 0.13047 0.47679 0.28751 0.0
C20 C 0.1411 0.51588 0.19969 0.0
C21 C 0.19092 0.57385 0.25177 0.0
O22 O 0.06881 0.55593 0.23443 0.0
O23 O 0.18788 0.33244 0.51004 0.0
Zn24 Zn 0.2189 0.37476 0.51215 0.0
O25 O 0.25152 0.37879 0.49401 0.0
Zn26 Zn 0.29947 0.37669 0.50234 0.0
Zn27 Zn 0.24225 0.34103 0.47866 0.0
Zn28 Zn 0.24401 0.423 0.48293 0.0
O29 O 0.32674 0.42129 0.49684 0.0
O30 O 0.28454 0.45494 0.48643 0.0
O31 O 0.24316 0.37613 0.53384 0.0
O32 O 0.29916 0.37701 0.52672 0.0
O33 O 0.32237 0.33058 0.49554 0.0
O34 O 0.28133 0.30539 0.48026 0.0
O35 O 0.23779 0.35861 0.45546 0.0
O36 O 0.18429 0.41422 0.5116 0.0
O37 O 0.23886 0.4162 0.4591 0.0
O38 O 0.19953 0.44638 0.49038 0.0
C39 C 0.17898 0.31513 0.4975 0.0
C40 C 0.31584 0.45076 0.49139 0.0
C41 C 0.31124 0.30467 0.48717 0.0
C42 C 0.27551 0.37724 0.53759 0.0
C43 C 0.23648 0.38972 0.44981 0.0
C44 C 0.17884 0.43991 0.50209 0.0
O45 O 0.19623 0.31754 0.4843 0.0
O46 O 0.41868 0.43733 0.75997 0.0
Zn47 Zn 0.37613 0.46834 0.76205 0.0
O48 O 0.3718 0.50108 0.74392 0.0
Zn49 Zn 0.37373 0.54908 0.75235 0.0
Zn50 Zn 0.40941 0.49165 0.72847 0.0
Zn51 Zn 0.32756 0.49371 0.7329 0.0
O52 O 0.32888 0.57656 0.74689 0.0
O53 O 0.29564 0.53455 0.73626 0.0
O54 O 0.3744 0.49253 0.78374 0.0
O55 O 0.37331 0.54867 0.77676 0.0
O56 O 0.41981 0.57175 0.74551 0.0
O57 O 0.44427 0.53118 0.72954 0.0
O58 O 0.39157 0.48603 0.70539 0.0
O59 O 0.33697 0.43378 0.76151 0.0
O60 O 0.33409 0.48765 0.70908 0.0
O61 O 0.30418 0.44959 0.74057 0.0
C62 C 0.43636 0.42865 0.74749 0.0
C63 C 0.29956 0.56581 0.74133 0.0
C64 C 0.44514 0.56088 0.73667 0.0
C65 C 0.37308 0.52487 0.78757 0.0
C66 C 0.36049 0.48461 0.69979 0.0
C67 C 0.31099 0.42869 0.75218 0.0
O68 O 0.43388 0.44597 0.7343 0.0
O69 O 0.31421 0.67025 0.01013 0.0
Zn70 Zn 0.28365 0.62757 0.01227 0.0
O71 O 0.25105 0.62306 0.99413 0.0
Zn72 Zn 0.2031 0.62515 0.00252 0.0
Zn73 Zn 0.2602 0.66052 0.97861 0.0
Zn74 Zn 0.25876 0.57866 0.98322 0.0
O75 O 0.17591 0.5804 0.99702 0.0
O76 O 0.21826 0.54674 0.98672 0.0
O77 O 0.25944 0.62567 0.03397 0.0
O78 O 0.20341 0.62462 0.02691 0.0
O79 O 0.1802 0.67131 0.99568 0.0
O80 O 0.2206 0.69561 0.97969 0.0
O81 O 0.26549 0.64245 0.95553 0.0
O82 O 0.31861 0.58847 0.01174 0.0
O83 O 0.2643 0.58494 0.95936 0.0
O84 O 0.3032 0.55547 0.99083 0.0
C85 C 0.32293 0.68757 0.99757 0.0
C86 C 0.18691 0.55089 0.99164 0.0
C87 C 0.19093 0.69661 0.98682 0.0
C88 C 0.22712 0.6243 0.03775 0.0
C89 C 0.26694 0.61127 0.94999 0.0
C90 C 0.32402 0.56245 0.00243 0.0
O91 O 0.30576 0.6848 0.98436 0.0
O92 O 0.91957 0.4378 0.73799 0.0
Zn93 Zn 0.87675 0.46843 0.73591 0.0
O94 O 0.87215 0.5011 0.75404 0.0
Zn95 Zn 0.8739 0.5491 0.74563 0.0
Zn96 Zn 0.90969 0.49179 0.76953 0.0
Zn97 Zn 0.82791 0.49345 0.765 0.0
O98 O 0.82891 0.57636 0.75109 0.0
O99 O 0.7957 0.534 0.76145 0.0
O100 O 0.87479 0.49261 0.71422 0.0
O101 O 0.8735 0.54874 0.72123 0.0
O102 O 0.91992 0.57192 0.75247 0.0
O103 O 0.94455 0.53131 0.76836 0.0
O104 O 0.89179 0.48666 0.79263 0.0
O105 O 0.83795 0.43348 0.73647 0.0
O106 O 0.83433 0.48806 0.78885 0.0
O107 O 0.80507 0.44894 0.75745 0.0
C108 C 0.93693 0.42893 0.75054 0.0
C109 C 0.79955 0.56535 0.75649 0.0
C110 C 0.94533 0.56104 0.76126 0.0
C111 C 0.87333 0.52496 0.71041 0.0
C112 C 0.86067 0.48536 0.7982 0.0
C113 C 0.81208 0.42808 0.74584 0.0
O114 O 0.93411 0.44603 0.76377 0.0
O115 O 0.8167 0.67048 0.48789 0.0
Zn116 Zn 0.7859 0.62803 0.48572 0.0
O117 O 0.75299 0.62391 0.50375 0.0
Zn118 Zn 0.70521 0.62655 0.4952 0.0
Zn119 Zn 0.76228 0.66132 0.51929 0.0
Zn120 Zn 0.76006 0.57938 0.51467 0.0
O121 O 0.67734 0.58235 0.50075 0.0
O122 O 0.71913 0.54799 0.51109 0.0
O123 O 0.76202 0.62627 0.46395 0.0
O124 O 0.70586 0.62585 0.47081 0.0
O125 O 0.68268 0.67287 0.50197 0.0
O126 O 0.72291 0.6967 0.51819 0.0
O127 O 0.76726 0.64317 0.54236 0.0
O128 O 0.82053 0.58864 0.48641 0.0
O129 O 0.76541 0.58567 0.53855 0.0
O130 O 0.80434 0.55564 0.50719 0.0
C131 C 0.82536 0.68789 0.50045 0.0
C132 C 0.68787 0.55275 0.5062 0.0
C133 C 0.69339 0.69798 0.51094 0.0
C134 C 0.72976 0.62523 0.46005 0.0
C135 C 0.7683 0.61198 0.54791 0.0
C136 C 0.82548 0.56248 0.4957 0.0
O137 O 0.80804 0.68534 0.51362 0.0
O138 O 0.58329 0.56414 0.23803 0.0
Zn139 Zn 0.626 0.53333 0.2358 0.0
O140 O 0.63079 0.50078 0.25398 0.0
Zn141 Zn 0.62867 0.45272 0.2457 0.0
Zn142 Zn 0.59352 0.51021 0.2696 0.0
Zn143 Zn 0.67529 0.50826 0.26474 0.0
O144 O 0.67333 0.42515 0.25119 0.0
O145 O 0.70722 0.46745 0.26118 0.0
O146 O 0.6274 0.50887 0.21412 0.0
O147 O 0.62876 0.45285 0.22132 0.0
O148 O 0.58273 0.43016 0.25266 0.0
O149 O 0.55848 0.47079 0.26865 0.0
O150 O 0.61188 0.51556 0.2926 0.0
O151 O 0.66495 0.56819 0.23618 0.0
O152 O 0.66928 0.51396 0.28862 0.0
O153 O 0.69818 0.55262 0.25702 0.0
C154 C 0.56604 0.57298 0.25062 0.0
C155 C 0.70285 0.43601 0.25645 0.0
C156 C 0.5575 0.44108 0.26155 0.0
C157 C 0.62872 0.47646 0.21042 0.0
C158 C 0.6431 0.51685 0.29805 0.0
C159 C 0.69101 0.57351 0.24544 0.0
O160 O 0.56901 0.55588 0.26385 0.0
O161 O 0.68607 0.33256 0.98758 0.0
Zn162 Zn 0.71718 0.37485 0.98563 0.0
O163 O 0.7497 0.37875 0.00382 0.0
Zn164 Zn 0.7977 0.37664 0.99552 0.0
Zn165 Zn 0.74025 0.3409 0.01911 0.0
Zn166 Zn 0.74222 0.42292 0.01494 0.0
O167 O 0.82507 0.4211 0.00117 0.0
O168 O 0.78294 0.4547 0.01168 0.0
O169 O 0.74155 0.37661 0.96399 0.0
O170 O 0.79755 0.37739 0.97111 0.0
O171 O 0.82043 0.33041 0.00227 0.0
O172 O 0.77943 0.30533 0.01761 0.0
O173 O 0.73513 0.35841 0.04231 0.0
O174 O 0.6827 0.41437 0.98619 0.0
O175 O 0.73636 0.416 0.03873 0.0
O176 O 0.69805 0.44664 0.00735 0.0
C177 C 0.67714 0.31508 7e-05 0.0
C178 C 0.81425 0.45051 0.00672 0.0
C179 C 0.80933 0.30455 0.01067 0.0
C180 C 0.77389 0.37784 0.96024 0.0
C181 C 0.73364 0.3895 0.04798 0.0
C182 C 0.67737 0.44019 0.99564 0.0
O183 O 0.69435 0.31732 0.01328 0.0
O184 O 0.58345 0.0653 0.75978 0.0
Zn185 Zn 0.62621 0.03458 0.76204 0.0
O186 O 0.63112 0.0019 0.74393 0.0
Zn187 Zn 0.62902 0.95392 0.75231 0.0
Zn188 Zn 0.59388 0.01122 0.72829 0.0
Zn189 Zn 0.67565 0.00937 0.73319 0.0
O190 O 0.67367 0.9263 0.74681 0.0
O191 O 0.70756 0.96855 0.73679 0.0
O192 O 0.62786 0.01037 0.78374 0.0
O193 O 0.62935 0.95425 0.7767 0.0
O194 O 0.58303 0.93134 0.74541 0.0
O195 O 0.55888 0.97179 0.72929 0.0
O196 O 0.6123 0.01641 0.70529 0.0
O197 O 0.6651 0.06944 0.76163 0.0
O198 O 0.6697 0.015 0.70931 0.0
O199 O 0.69858 0.05373 0.7409 0.0
C200 C 0.5663 0.07412 0.74716 0.0
C201 C 0.70318 0.93713 0.74154 0.0
C202 C 0.55785 0.94216 0.73647 0.0
C203 C 0.62935 0.97802 0.78754 0.0
C204 C 0.64353 0.01776 0.69986 0.0
C205 C 0.69129 0.07467 0.75243 0.0
O206 O 0.56936 0.05697 0.73395 0.0
O207 O 0.6856 0.83295 0.01006 0.0
Zn208 Zn 0.71669 0.87521 0.01213 0.0
O209 O 0.74964 0.87889 0.99411 0.0
Zn210 Zn 0.7974 0.87605 0.00267 0.0
Zn211 Zn 0.74008 0.84137 0.97864 0.0
Zn212 Zn 0.74292 0.92335 0.98309 0.0
O213 O 0.82548 0.92017 0.99718 0.0
O214 O 0.78391 0.95461 0.98671 0.0
O215 O 0.74057 0.87694 0.0339 0.0
O216 O 0.79673 0.87669 0.02705 0.0
O217 O 0.81975 0.82966 0.99589 0.0
O218 O 0.77931 0.80581 0.97979 0.0
O219 O 0.73518 0.85938 0.95554 0.0
O220 O 0.68234 0.91484 0.01136 0.0
O221 O 0.73768 0.9169 0.95923 0.0
O222 O 0.69876 0.94742 0.99047 0.0
C223 C 0.67684 0.81539 0.99757 0.0
C224 C 0.8151 0.94978 0.99169 0.0
C225 C 0.80889 0.80451 0.98699 0.0
C226 C 0.77284 0.87762 0.0378 0.0
C227 C 0.73451 0.89053 0.94992 0.0
C228 C 0.67757 0.94089 0.00198 0.0
O229 O 0.69416 0.81764 0.98439 0.0
O230 O 0.91842 0.93634 0.26012 0.0
Zn231 Zn 0.87568 0.96716 0.26219 0.0
O232 O 0.87134 0.99991 0.24408 0.0
Zn233 Zn 0.87354 0.04788 0.25246 0.0
Zn234 Zn 0.90881 0.99044 0.22857 0.0
Zn235 Zn 0.82697 0.99273 0.23316 0.0
O236 O 0.82904 0.07566 0.2469 0.0
O237 O 0.7951 0.03357 0.23677 0.0
O238 O 0.87361 0.99141 0.2839 0.0
O239 O 0.87297 0.04752 0.27683 0.0
O240 O 0.91964 0.07037 0.24566 0.0
O241 O 0.94392 0.02977 0.22965 0.0
O242 O 0.89076 0.98534 0.20551 0.0
O243 O 0.83671 0.93236 0.26152 0.0
O244 O 0.83331 0.98743 0.20929 0.0
O245 O 0.8038 0.94831 0.24064 0.0
C246 C 0.93582 0.92749 0.24758 0.0
C247 C 0.79953 0.06494 0.24158 0.0
C248 C 0.94491 0.05945 0.2368 0.0
C249 C 0.87244 0.02379 0.28767 0.0
C250 C 0.85962 0.98443 0.19994 0.0
C251 C 0.81077 0.92724 0.25217 0.0
O252 O 0.93308 0.94465 0.23436 0.0
O253 O 0.81612 0.17139 0.50985 0.0
Zn254 Zn 0.78574 0.12862 0.51198 0.0
O255 O 0.75279 0.12433 0.49399 0.0
Zn256 Zn 0.70499 0.12617 0.50253 0.0
Zn257 Zn 0.76156 0.1621 0.47858 0.0
Zn258 Zn 0.76033 0.08011 0.48293 0.0
O259 O 0.67776 0.08152 0.49704 0.0
O260 O 0.71999 0.04801 0.48654 0.0
O261 O 0.76194 0.12656 0.53376 0.0
O262 O 0.70579 0.12549 0.52692 0.0
O263 O 0.68179 0.17224 0.49588 0.0
O264 O 0.72225 0.19744 0.48028 0.0
O265 O 0.76589 0.14444 0.45537 0.0
O266 O 0.82079 0.08959 0.51118 0.0
O267 O 0.76503 0.08687 0.45909 0.0
O268 O 0.80505 0.05692 0.49021 0.0
C269 C 0.82471 0.18876 0.49728 0.0
C270 C 0.68871 0.05209 0.49156 0.0
C271 C 0.69254 0.19811 0.48739 0.0
C272 C 0.72969 0.12516 0.53767 0.0
C273 C 0.7672 0.1133 0.44976 0.0
C274 C 0.82609 0.06374 0.50174 0.0
O275 O 0.80741 0.18606 0.48411 0.0
O276 O 0.41774 0.93613 0.23778 0.0
Zn277 Zn 0.37536 0.96744 0.23575 0.0
O278 O 0.37138 1.0001 0.25393 0.0
Zn279 Zn 0.37298 0.04815 0.24562 0.0
Zn280 Zn 0.40938 0.99073 0.26917 0.0
Zn281 Zn 0.32745 0.99264 0.26514 0.0
O282 O 0.32813 0.07541 0.25113 0.0
O283 O 0.29515 0.0332 0.26174 0.0
O284 O 0.37386 0.99181 0.21408 0.0
O285 O 0.37265 0.04786 0.22123 0.0
O286 O 0.4189 0.07109 0.25237 0.0
O287 O 0.44457 0.02988 0.26754 0.0
O288 O 0.39215 0.98609 0.29241 0.0
O289 O 0.33602 0.93305 0.23633 0.0
O290 O 0.33458 0.9874 0.28895 0.0
O291 O 0.30427 0.94822 0.25772 0.0
C292 C 0.43545 0.92733 0.25024 0.0
C293 C 0.29889 0.06449 0.25669 0.0
C294 C 0.44496 0.05989 0.26066 0.0
C295 C 0.37257 0.0242 0.21035 0.0
C296 C 0.36118 0.98486 0.29816 0.0
C297 C 0.31056 0.92762 0.24593 0.0
O298 O 0.43324 0.94471 0.26341 0.0
O299 O 0.3143 0.17067 0.98774 0.0
Zn300 Zn 0.28371 0.12804 0.98553 0.0
O301 O 0.25131 0.12326 0.00374 0.0
Zn302 Zn 0.20325 0.12532 0.99549 0.0
Zn303 Zn 0.26051 0.16061 0.01933 0.0
Zn304 Zn 0.25923 0.07877 0.01454 0.0
O305 O 0.1762 0.08047 0.00095 0.0
O306 O 0.21866 0.04685 0.01118 0.0
O307 O 0.25922 0.12672 0.96388 0.0
O308 O 0.2033 0.12524 0.9711 0.0
O309 O 0.18032 0.17135 0.00249 0.0
O310 O 0.22081 0.19562 0.01843 0.0
O311 O 0.26629 0.14231 0.04233 0.0
O312 O 0.31871 0.08893 0.98582 0.0
O313 O 0.26538 0.08484 0.03838 0.0
O314 O 0.30351 0.05569 0.00669 0.0
C315 C 0.32301 0.18798 0.00031 0.0
C316 C 0.18727 0.05098 0.00632 0.0
C317 C 0.19107 0.1966 0.01138 0.0
C318 C 0.22686 0.12533 0.96019 0.0
C319 C 0.26808 0.11108 0.0478 0.0
C320 C 0.32422 0.06279 0.99506 0.0
O321 O 0.30591 0.18512 0.01353 0.0
O322 O 0.08377 0.06555 0.73777 0.0
Zn323 Zn 0.12658 0.03484 0.73572 0.0
O324 O 0.1311 0.0021 0.75383 0.0
Zn325 Zn 0.12968 0.95411 0.74544 0.0
Zn326 Zn 0.09324 0.01113 0.76918 0.0
Zn327 Zn 0.17516 0.00979 0.76492 0.0
O328 O 0.17459 0.92698 0.75096 0.0
O329 O 0.20755 0.96929 0.76153 0.0
O330 O 0.12865 0.01067 0.71402 0.0
O331 O 0.13026 0.95455 0.72104 0.0
O332 O 0.08381 0.931 0.75215 0.0
O333 O 0.0583 0.97173 0.76764 0.0
O334 O 0.11075 0.01622 0.79237 0.0
O335 O 0.16541 0.06975 0.73635 0.0
O336 O 0.16828 0.01544 0.78873 0.0
O337 O 0.19807 0.05429 0.7574 0.0
C338 C 0.06624 0.07422 0.7503 0.0
C339 C 0.20384 0.93797 0.7565 0.0
C340 C 0.05787 0.9419 0.76061 0.0
C341 C 0.1303 0.97833 0.71021 0.0
C342 C 0.14179 0.01792 0.79801 0.0
C343 C 0.19118 0.07514 0.74577 0.0
O344 O 0.0689 0.05691 0.76348 0.0
O345 O 0.18857 0.83123 0.48782 0.0
Zn346 Zn 0.21912 0.87387 0.48567 0.0
O347 O 0.25177 0.87835 0.50377 0.0
Zn348 Zn 0.29967 0.87581 0.49537 0.0
Zn349 Zn 0.24243 0.84107 0.51937 0.0
Zn350 Zn 0.2444 0.92297 0.51455 0.0
O351 O 0.32731 0.92015 0.50091 0.0
O352 O 0.28519 0.95452 0.51095 0.0
O353 O 0.24329 0.87566 0.46397 0.0
O354 O 0.29935 0.8763 0.47098 0.0
O355 O 0.32224 0.82962 0.50226 0.0
O356 O 0.28187 0.80573 0.51838 0.0
O357 O 0.23726 0.85947 0.54238 0.0
O358 O 0.1842 0.91304 0.4862 0.0
O359 O 0.23887 0.91694 0.53843 0.0
O360 O 0.20008 0.94639 0.50691 0.0
C361 C 0.17969 0.8141 0.50042 0.0
C362 C 0.31656 0.94981 0.50619 0.0
C363 C 0.31148 0.8045 0.51121 0.0
C364 C 0.2756 0.87679 0.46016 0.0
C365 C 0.23604 0.89072 0.54786 0.0
C366 C 0.17905 0.93928 0.49542 0.0
O367 O 0.19674 0.81696 0.51365 0.0
C368 C 0.24363 0.39888 0.25758 0.0
C369 C 0.23557 0.4151 0.24275 0.0
C370 C 0.27797 0.3878 0.26085 0.0
C371 C 0.36509 0.36823 0.24421 0.0
H372 H 0.40052 0.42895 0.27804 0.0
C373 C 0.51052 0.40751 0.24748 0.0
C374 C 0.52413 0.42157 0.26186 0.0
C375 C 0.47569 0.39629 0.24675 0.0
C376 C 0.39142 0.41083 0.26889 0.0
H377 H 0.25597 0.42968 0.21922 0.0
H378 H 0.31552 0.40884 0.22465 0.0
H379 H 0.33801 0.42495 0.27357 0.0
H380 H 0.51326 0.43201 0.28713 0.0
H381 H 0.45355 0.40984 0.28633 0.0
H382 H 0.4183 0.35372 0.23952 0.0
C383 C 0.29553 0.40508 0.23381 0.0
C384 C 0.35533 0.40875 0.2663 0.0
C385 C 0.2615 0.417 0.2307 0.0
C386 C 0.50325 0.42152 0.27585 0.0
C387 C 0.46878 0.40924 0.27527 0.0
C388 C 0.40127 0.36953 0.24707 0.0
C389 C 0.30444 0.39191 0.24916 0.0
C390 C 0.34189 0.38828 0.25364 0.0
C391 C 0.45384 0.39803 0.26052 0.0
C392 C 0.41515 0.39183 0.25911 0.0
H393 H 0.22424 0.39762 0.26716 0.0
H394 H 0.28429 0.37782 0.27279 0.0
H395 H 0.35529 0.35219 0.23438 0.0
H396 H 0.52596 0.40763 0.23645 0.0
H397 H 0.46552 0.38836 0.23508 0.0
C398 C 0.34516 0.75718 0.49722 0.0
C399 C 0.33112 0.77103 0.51158 0.0
C400 C 0.35662 0.72228 0.49658 0.0
C401 C 0.34269 0.63831 0.51898 0.0
H402 H 0.40104 0.60148 0.48442 0.0
C403 C 0.354 0.49027 0.5077 0.0
C404 C 0.33761 0.48248 0.49289 0.0
C405 C 0.36536 0.52447 0.51094 0.0
C406 C 0.38511 0.61148 0.49427 0.0
H407 H 0.32098 0.76055 0.53691 0.0
H408 H 0.34356 0.70072 0.53626 0.0
H409 H 0.39947 0.66462 0.48949 0.0
H410 H 0.32302 0.50314 0.46939 0.0
H411 H 0.34432 0.56241 0.47478 0.0
H412 H 0.32866 0.58498 0.52374 0.0
C413 C 0.34396 0.71581 0.52516 0.0
C414 C 0.38377 0.64772 0.49709 0.0
C415 C 0.33144 0.75035 0.52564 0.0
C416 C 0.33582 0.50847 0.48085 0.0
C417 C 0.34801 0.54234 0.48393 0.0
C418 C 0.34479 0.60214 0.51643 0.0
C419 C 0.35515 0.70062 0.51044 0.0
C420 C 0.36153 0.66186 0.50912 0.0
C421 C 0.36135 0.55104 0.49926 0.0
C422 C 0.36514 0.58846 0.50375 0.0
H423 H 0.34485 0.77248 0.48615 0.0
H424 H 0.36453 0.71192 0.48493 0.0
H425 H 0.32462 0.64761 0.52813 0.0
H426 H 0.3552 0.47084 0.51726 0.0
H427 H 0.37546 0.53063 0.52287 0.0
C428 C 0.25929 0.60332 0.75774 0.0
C429 C 0.26764 0.58757 0.74283 0.0
C430 C 0.22488 0.61431 0.76093 0.0
C431 C 0.13787 0.63389 0.74394 0.0
H432 H 0.10223 0.57344 0.77782 0.0
C433 C 0.99234 0.59443 0.74709 0.0
C434 C 0.97866 0.58063 0.76152 0.0
C435 C 0.02721 0.60561 0.74635 0.0
C436 C 0.11139 0.59148 0.76865 0.0
H437 H 0.24768 0.57376 0.71913 0.0
H438 H 0.18803 0.59442 0.72444 0.0
H439 H 0.16477 0.57756 0.77349 0.0
H440 H 0.98944 0.57063 0.78684 0.0
H441 H 0.04916 0.59274 0.78601 0.0
H442 H 0.08466 0.64815 0.73908 0.0
C443 C 0.20784 0.5979 0.73371 0.0
C444 C 0.14751 0.59363 0.76614 0.0
C445 C 0.24194 0.58609 0.73066 0.0
C446 C 0.99949 0.58092 0.77552 0.0
C447 C 0.03398 0.59316 0.77493 0.0
C448 C 0.10165 0.63248 0.74671 0.0
C449 C 0.19861 0.61055 0.74912 0.0
C450 C 0.16105 0.61403 0.75348 0.0
C451 C 0.049 0.60411 0.76016 0.0
C452 C 0.0877 0.6103 0.75877 0.0
H453 H 0.27848 0.60425 0.7674 0.0
H454 H 0.21834 0.62391 0.77292 0.0
H455 H 0.14773 0.64987 0.7341 0.0
H456 H 0.97695 0.5941 0.73606 0.0
H457 H 0.03743 0.61335 0.73467 0.0
C458 C 0.15745 0.24391 0.99734 0.0
C459 C 0.17134 0.23003 0.01173 0.0
C460 C 0.14618 0.27888 0.99666 0.0
C461 C 0.1604 0.36288 0.01904 0.0
H462 H 0.10231 0.39996 0.98445 0.0
C463 C 0.14911 0.51108 0.00797 0.0
C464 C 0.16522 0.5191 0.99313 0.0
C465 C 0.13794 0.4768 0.01118 0.0
C466 C 0.11819 0.3899 0.9943 0.0
H467 H 0.1814 0.24056 0.03705 0.0
H468 H 0.15913 0.3005 0.03634 0.0
H469 H 0.10373 0.33681 0.98946 0.0
H470 H 0.17956 0.49872 0.96954 0.0
H471 H 0.15858 0.43931 0.97487 0.0
H472 H 0.17451 0.41616 0.02387 0.0
C473 C 0.1587 0.28537 0.02524 0.0
C474 C 0.11944 0.35363 0.99709 0.0
C475 C 0.17103 0.25077 0.02577 0.0
C476 C 0.16695 0.49323 0.98103 0.0
C477 C 0.15495 0.45927 0.98408 0.0
C478 C 0.1584 0.39906 0.01652 0.0
C479 C 0.1477 0.30059 0.0105 0.0
C480 C 0.14154 0.3394 0.00916 0.0
C481 C 0.14187 0.45035 -0.00057 0.0
C482 C 0.13813 0.41285 0.00384 0.0
H483 H 0.15778 0.22858 0.98628 0.0
H484 H 0.1384 0.28924 0.98499 0.0
H485 H 0.17838 0.3535 0.02822 0.0
H486 H 0.14798 0.53042 0.01759 0.0
H487 H 0.12802 0.47049 0.02313 0.0
C488 C 0.49224 0.59421 0.7508 0.0
C489 C 0.4785 0.58042 0.73639 0.0
C490 C 0.52712 0.60534 0.75152 0.0
C491 C 0.61123 0.59102 0.72919 0.0
H492 H 0.64774 0.64937 0.76372 0.0
C493 C 0.7592 0.60278 0.74008 0.0
C494 C 0.76755 0.58699 0.75498 0.0
C495 C 0.72479 0.61375 0.73688 0.0
C496 C 0.63783 0.63341 0.75389 0.0
H497 H 0.48921 0.57036 0.71106 0.0
H498 H 0.54897 0.59237 0.71186 0.0
H499 H 0.58466 0.64778 0.75876 0.0
H500 H 0.74757 0.57304 0.77866 0.0
H501 H 0.68792 0.59369 0.77335 0.0
H502 H 0.66459 0.577 0.72433 0.0
C503 C 0.53381 0.59283 0.72294 0.0
C504 C 0.60161 0.63207 0.75113 0.0
C505 C 0.4993 0.58066 0.72237 0.0
C506 C 0.74183 0.58541 0.76713 0.0
C507 C 0.70773 0.59721 0.76409 0.0
C508 C 0.64736 0.59311 0.73169 0.0
C509 C 0.54888 0.60377 0.7377 0.0
C510 C 0.5876 0.6099 0.73907 0.0
C511 C 0.69851 0.60994 0.74869 0.0
C512 C 0.66096 0.61349 0.74434 0.0
H513 H 0.47688 0.59392 0.76184 0.0
H514 H 0.53739 0.61307 0.7632 0.0
H515 H 0.60203 0.57299 0.72003 0.0
H516 H 0.77842 0.60377 0.73042 0.0
H517 H 0.71826 0.62341 0.7249 0.0
C518 C 0.65214 0.24078 0.50108 0.0
C519 C 0.67277 0.23167 0.48758 0.0
C520 C 0.64001 0.27523 0.50305 0.0
C521 C 0.62546 0.36082 0.48339 0.0
H522 H 0.66642 0.39966 0.52238 0.0
C523 C 0.65943 0.50724 0.48938 0.0
C524 C 0.6657 0.52147 0.50476 0.0
C525 C 0.64863 0.47237 0.48777 0.0
C526 C 0.65369 0.38955 0.51165 0.0
H527 H 0.69422 0.2507 0.46491 0.0
H528 H 0.67218 0.31057 0.46817 0.0
H529 H 0.66716 0.33687 0.51819 0.0
H530 H 0.66298 0.51193 0.53054 0.0
H531 H 0.64113 0.45218 0.52792 0.0
H532 H 0.6118 0.4134 0.4768 0.0
C533 C 0.66575 0.29119 0.47729 0.0
C534 C 0.65437 0.3533 0.50923 0.0
C535 C 0.67849 0.25695 0.47546 0.0
C536 C 0.65805 0.50147 0.51855 0.0
C537 C 0.64618 0.46697 0.51698 0.0
C538 C 0.624 0.39715 0.48597 0.0
C539 C 0.64761 0.30099 0.4914 0.0
C540 C 0.64119 0.33865 0.4949 0.0
C541 C 0.64324 0.45118 0.50157 0.0
C542 C 0.63913 0.41224 0.49992 0.0
H543 H 0.64742 0.22198 0.51067 0.0
H544 H 0.626 0.28214 0.51403 0.0
H545 H 0.61494 0.35011 0.47226 0.0
H546 H 0.6659 0.52203 0.47858 0.0
H547 H 0.64713 0.46152 0.47568 0.0
C548 C 0.74864 0.40777 0.23959 0.0
C549 C 0.73441 0.41399 0.25499 0.0
C550 C 0.7836 0.39711 0.23795 0.0
C551 C 0.86644 0.4024 0.26172 0.0
H552 H 0.90599 0.36354 0.2223 0.0
C553 C 0.01506 0.40044 0.25099 0.0
C554 C 0.02397 0.42113 0.2375 0.0
C555 C 0.98071 0.38844 0.253 0.0
C556 C 0.89524 0.37409 0.23344 0.0
H557 H 0.74413 0.41139 0.28075 0.0
H558 H 0.80409 0.3898 0.27807 0.0
H559 H 0.84283 0.36039 0.22691 0.0
H560 H 0.00469 0.44283 0.21489 0.0
H561 H 0.94501 0.42097 0.21821 0.0
H562 H 0.91897 0.41588 0.26821 0.0
C563 C 0.7892 0.39476 0.26714 0.0
C564 C 0.85898 0.37263 0.23606 0.0
C565 C 0.75458 0.40648 0.26875 0.0
C566 C 0.9986 0.42704 0.22543 0.0
C567 C 0.96447 0.41442 0.22729 0.0
C568 C 0.90263 0.40308 0.25927 0.0
C569 C 0.80491 0.39184 0.25172 0.0
C570 C 0.84385 0.38779 0.25002 0.0
C571 C 0.95487 0.39621 0.24139 0.0
C572 C 0.91731 0.38985 0.24492 0.0
H573 H 0.73371 0.41414 0.2288 0.0
H574 H 0.79438 0.39563 0.22584 0.0
H575 H 0.85627 0.41515 0.27246 0.0
H576 H 0.03393 0.39559 0.26054 0.0
H577 H 0.97395 0.37439 0.26397 0.0
C578 C 0.85233 0.4902 0.99048 0.0
C579 C 0.83604 0.48223 0.00529 0.0
C580 C 0.86352 0.52447 0.98728 0.0
C581 C 0.88282 0.61153 0.00404 0.0
H582 H 0.82211 0.64741 0.97021 0.0
C583 C 0.84242 0.75716 0.00106 0.0
C584 C 0.82841 0.77096 0.98668 0.0
C585 C 0.85388 0.72226 0.00172 0.0
C586 C 0.84023 0.63818 0.97936 0.0
H587 H 0.82153 0.50266 0.02885 0.0
H588 H 0.84254 0.56206 0.02352 0.0
H589 H 0.82648 0.58479 0.97457 0.0
H590 H 0.81831 0.76038 0.96135 0.0
H591 H 0.84088 0.70056 0.96206 0.0
H592 H 0.8969 0.66474 0.00885 0.0
C593 C 0.84627 0.54206 0.01434 0.0
C594 C 0.84253 0.60202 0.98189 0.0
C595 C 0.83425 0.50812 0.01739 0.0
C596 C 0.82873 0.75021 0.97264 0.0
C597 C 0.84126 0.71569 0.97315 0.0
C598 C 0.88128 0.64778 0.00125 0.0
C599 C 0.85945 0.55094 -0.001 0.0
C600 C 0.86298 0.58842 0.99455 0.0
C601 C 0.85246 0.70056 0.98789 0.0
C602 C 0.85897 0.66181 0.98921 0.0
H603 H 0.85352 0.47085 0.98087 0.0
H604 H 0.87351 0.53077 0.97534 0.0
H605 H 0.89883 0.6016 0.01388 0.0
H606 H 0.8421 0.77251 0.01211 0.0
H607 H 0.86179 0.71195 0.01338 0.0
C608 C 0.75494 0.90761 0.72926 0.0
C609 C 0.73476 0.91513 0.74302 0.0
C610 C 0.78958 0.89595 0.73087 0.0
C611 C 0.85939 0.87393 0.76196 0.0
H612 H 0.91934 0.9171 0.72977 0.0
C613 C 0.99916 0.92806 0.77252 0.0
C614 C 0.02446 0.92221 0.76041 0.0
C615 C 0.96501 0.91549 0.77068 0.0
C616 C 0.90301 0.90432 0.73873 0.0
H617 H 0.73406 0.91536 0.7692 0.0
H618 H 0.79476 0.89693 0.77218 0.0
H619 H 0.85663 0.9164 0.72555 0.0
H620 H 0.03427 0.89681 0.73732 0.0
H621 H 0.97426 0.87567 0.73394 0.0
H622 H 0.90642 0.86481 0.77569 0.0
C623 C 0.78397 0.89836 0.76007 0.0
C624 C 0.86682 0.90366 0.73629 0.0
C625 C 0.749 0.90897 0.75842 0.0
C626 C 0.01546 0.90161 0.74691 0.0
C627 C 0.98109 0.88965 0.74492 0.0
C628 C 0.89566 0.87537 0.76456 0.0
C629 C 0.80529 0.89308 0.7463 0.0
C630 C 0.84424 0.88907 0.748 0.0
C631 C 0.95531 0.89738 0.75656 0.0
C632 C 0.91772 0.89109 0.75307 0.0
H633 H 0.74449 0.91247 0.71726 0.0
H634 H 0.80448 0.89097 0.71995 0.0
H635 H 0.84325 0.8617 0.77112 0.0
H636 H 0.00532 0.94378 0.78307 0.0
H637 H 0.94561 0.92201 0.7798 0.0
C638 C 0.84319 0.99524 0.00866 0.0
C639 C 0.83726 0.98105 0.99323 0.0
C640 C 0.85382 0.03014 0.01034 0.0
C641 C 0.84889 0.11305 0.98651 0.0
H642 H 0.88651 0.15252 0.02613 0.0
C643 C 0.85003 0.26184 0.99719 0.0
C644 C 0.82897 0.27092 0.01056 0.0
C645 C 0.86218 0.22739 0.99527 0.0
C646 C 0.8763 0.1418 0.01494 0.0
H647 H 0.84044 0.99072 0.96748 0.0
H648 H 0.86203 0.05054 0.97025 0.0
H649 H 0.89004 0.08926 0.02156 0.0
H650 H 0.80674 0.25179 0.03305 0.0
H651 H 0.82883 0.1919 0.02988 0.0
H652 H 0.83538 0.16571 0.97994 0.0
C653 C 0.85682 0.03568 0.98116 0.0
C654 C 0.87799 0.10548 0.01233 0.0
C655 C 0.84511 0.00114 0.9795 0.0
C656 C 0.82281 0.24558 0.0226 0.0
C657 C 0.83557 0.21133 0.02083 0.0
C658 C 0.84799 0.14929 0.98895 0.0
C659 C 0.85938 0.05142 0.99659 0.0
C660 C 0.86327 0.09038 0.99829 0.0
C661 C 0.85419 0.20159 0.00684 0.0
C662 C 0.86077 0.16394 0.00337 0.0
H663 H 0.83655 0.98038 0.01942 0.0
H664 H 0.85502 0.04094 0.02245 0.0
H665 H 0.83646 0.10293 0.97571 0.0
H666 H 0.8551 0.28068 0.98766 0.0
H667 H 0.87655 0.22052 0.98439 0.0
C668 C 0.48732 0.10033 0.24704 0.0
C669 C 0.4784 0.07952 0.26048 0.0
C670 C 0.52168 0.11234 0.24505 0.0
C671 C 0.60711 0.12655 0.26466 0.0
H672 H 0.64616 0.08588 0.22557 0.0
C673 C 0.75376 0.09311 0.25847 0.0
C674 C 0.768 0.087 0.24307 0.0
C675 C 0.71879 0.10373 0.26013 0.0
C676 C 0.63597 0.09853 0.23633 0.0
H677 H 0.49766 0.05757 0.28304 0.0
H678 H 0.55735 0.07945 0.27978 0.0
H679 H 0.58346 0.08504 0.22981 0.0
H680 H 0.75829 0.08979 0.2173 0.0
H681 H 0.69831 0.11132 0.22001 0.0
H682 H 0.6595 0.14026 0.27123 0.0
C683 C 0.53789 0.0861 0.27071 0.0
C684 C 0.59978 0.09778 0.23878 0.0
C685 C 0.50376 0.07347 0.27254 0.0
C686 C 0.74783 0.09461 0.22931 0.0
C687 C 0.71321 0.10629 0.23094 0.0
C688 C 0.64337 0.12808 0.26205 0.0
C689 C 0.54751 0.10446 0.25665 0.0
C690 C 0.58507 0.11087 0.25315 0.0
C691 C 0.69748 0.10908 0.24637 0.0
C692 C 0.65853 0.11306 0.24806 0.0
H693 H 0.46846 0.10528 0.23749 0.0
H694 H 0.52844 0.12651 0.23412 0.0
H695 H 0.59634 0.13699 0.27582 0.0
H696 H 0.76869 0.08666 0.26925 0.0
H697 H 0.708 0.1051 0.27224 0.0
C698 C 0.65996 0.74543 0.49691 0.0
C699 C 0.67379 0.73147 0.51129 0.0
C700 C 0.64853 0.78035 0.4963 0.0
C701 C 0.66219 0.86417 0.51885 0.0
H702 H 0.60403 0.90123 0.48428 0.0
C703 C 0.65082 0.0123 0.50787 0.0
C704 C 0.66704 0.0203 0.49304 0.0
C705 C 0.63956 0.97805 0.51105 0.0
C706 C 0.61992 0.89116 0.49413 0.0
H707 H 0.6836 0.74178 0.53667 0.0
H708 H 0.66109 0.80163 0.53604 0.0
H709 H 0.60568 0.83805 0.48921 0.0
H710 H 0.68142 0.99993 0.46946 0.0
H711 H 0.66031 0.94056 0.47475 0.0
H712 H 0.67611 0.91746 0.52375 0.0
C713 C 0.66082 0.78662 0.52491 0.0
C714 C 0.62129 0.85489 0.49687 0.0
C715 C 0.6733 0.75207 0.52538 0.0
C716 C 0.66876 0.99445 0.48093 0.0
C717 C 0.65667 0.96052 0.48396 0.0
C718 C 0.66005 0.90035 0.51637 0.0
C719 C 0.64983 0.80191 0.51018 0.0
C720 C 0.64345 0.84068 0.50892 0.0
C721 C 0.64351 0.95162 0.4993 0.0
C722 C 0.63977 0.91413 0.5037 0.0
H723 H 0.6604 0.73021 0.48582 0.0
H724 H 0.64078 0.7908 0.48464 0.0
H725 H 0.68019 0.85479 0.52802 0.0
H726 H 0.64968 0.03163 0.51748 0.0
H727 H 0.62959 0.97173 0.52299 0.0
C728 C 0.99907 0.07919 0.22249 0.0
C729 C 0.97827 0.07895 0.23651 0.0
C730 C 0.03351 0.09155 0.22305 0.0
C731 C 0.10106 0.13129 0.25121 0.0
H732 H 0.16432 0.0763 0.22453 0.0
C733 C 0.24109 0.08434 0.26732 0.0
C734 C 0.2669 0.08614 0.25522 0.0
C735 C 0.20703 0.09624 0.26428 0.0
C736 C 0.14701 0.09239 0.23185 0.0
H737 H 0.97656 0.09264 0.26195 0.0
H738 H 0.03697 0.11206 0.26328 0.0
H739 H 0.1018 0.07207 0.22016 0.0
H740 H 0.27799 0.10347 0.23076 0.0
H741 H 0.21789 0.12327 0.22523 0.0
H742 H 0.14707 0.14875 0.26384 0.0
C743 C 0.02675 0.10421 0.25161 0.0
C744 C 0.11091 0.09018 0.22932 0.0
C745 C 0.99193 0.0929 0.25091 0.0
C746 C 0.2587 0.10228 0.24038 0.0
C747 C 0.22433 0.11336 0.23718 0.0
C748 C 0.13725 0.13273 0.25401 0.0
C749 C 0.04851 0.10268 0.2378 0.0
C750 C 0.08718 0.10901 0.23916 0.0
C751 C 0.19796 0.10931 0.24892 0.0
C752 C 0.16047 0.11284 0.24451 0.0
H753 H 0.98902 0.06879 0.2112 0.0
H754 H 0.04867 0.09111 0.21197 0.0
H755 H 0.08402 0.14697 0.25881 0.0
H756 H 0.24672 0.07172 0.27881 0.0
H757 H 0.18713 0.09254 0.27348 0.0
C758 C 0.14924 0.01112 0.99012 0.0
C759 C 0.16557 0.01918 0.00491 0.0
C760 C 0.13799 0.97684 0.98697 0.0
C761 C 0.11844 0.89001 0.00399 0.0
H762 H 0.17805 0.85344 0.9699 0.0
C763 C 0.15762 0.744 0.00096 0.0
C764 C 0.17125 0.73006 0.98653 0.0
C765 C 0.14638 0.77898 0.00164 0.0
C766 C 0.16023 0.86287 0.97913 0.0
H767 H 0.18021 0.99887 0.02847 0.0
H768 H 0.1591 0.93946 0.02325 0.0
H769 H 0.17428 0.91612 0.97421 0.0
H770 H 0.18086 0.74048 0.96115 0.0
H771 H 0.15862 0.80042 0.9619 0.0
H772 H 0.10405 0.83694 0.00894 0.0
C773 C 0.15537 0.95939 0.01404 0.0
C774 C 0.15828 0.89907 0.98163 0.0
C775 C 0.16744 0.99335 0.01702 0.0
C776 C 0.1707 0.75074 0.97247 0.0
C777 C 0.15839 0.78535 0.97301 0.0
C778 C 0.11962 0.85373 0.00124 0.0
C779 C 0.14206 0.95043 0.99873 0.0
C780 C 0.13822 0.91292 0.99437 0.0
C781 C 0.14766 0.80062 0.98778 0.0
C782 C 0.14153 0.83944 0.98911 0.0
H783 H 0.148 0.03042 0.98049 0.0
H784 H 0.1279 0.97049 0.97506 0.0
H785 H 0.10272 0.90013 0.01389 0.0
H786 H 0.15814 0.72871 0.01203 0.0
H787 H 0.13881 0.7894 0.01333 0.0
C788 C 0.5108 0.90869 0.75054 0.0
C789 C 0.52449 0.92264 0.73615 0.0
C790 C 0.47596 0.89747 0.75124 0.0
C791 C 0.39183 0.91185 0.72898 0.0
H792 H 0.35549 0.85344 0.76352 0.0
C793 C 0.24398 0.90016 0.74016 0.0
C794 C 0.23586 0.91637 0.75499 0.0
C795 C 0.27832 0.88904 0.73693 0.0
C796 C 0.36536 0.86941 0.75368 0.0
H797 H 0.51377 0.93286 0.71084 0.0
H798 H 0.45406 0.91069 0.71161 0.0
H799 H 0.41854 0.85492 0.75845 0.0
H800 H 0.25618 0.9309 0.77854 0.0
H801 H 0.31572 0.90999 0.77317 0.0
H802 H 0.33846 0.92597 0.72422 0.0
C803 C 0.46923 0.91018 0.72268 0.0
C804 C 0.40155 0.87069 0.75086 0.0
C805 C 0.5037 0.92246 0.72214 0.0
C806 C 0.26174 0.91822 0.76706 0.0
C807 C 0.29578 0.90627 0.76399 0.0
C808 C 0.35572 0.90981 0.73153 0.0
C809 C 0.4542 0.89909 0.73743 0.0
C810 C 0.4155 0.89291 0.73881 0.0
C811 C 0.30474 0.8931 0.74864 0.0
C812 C 0.34221 0.88942 0.7442 0.0
H813 H 0.52616 0.90891 0.76159 0.0
H814 H 0.46572 0.88963 0.76291 0.0
H815 H 0.401 0.92991 0.71981 0.0
H816 H 0.22463 0.89893 0.73057 0.0
H817 H 0.28468 0.87906 0.72498 0.0
C818 C 0.35183 0.26196 0.50071 0.0
C819 C 0.33088 0.27104 0.48732 0.0
C820 C 0.36392 0.22749 0.50267 0.0
C821 C 0.37804 0.14185 0.48305 0.0
H822 H 0.33775 0.1031 0.52221 0.0
C823 C 0.34456 0.99538 0.48927 0.0
C824 C 0.33858 0.98117 0.50468 0.0
C825 C 0.35521 0.03028 0.4876 0.0
C826 C 0.35029 0.11319 0.51143 0.0
H827 H 0.30879 0.25191 0.4648 0.0
H828 H 0.33078 0.192 0.46801 0.0
H829 H 0.33685 0.16588 0.51797 0.0
H830 H 0.34161 0.99081 0.53044 0.0
H831 H 0.36319 0.05064 0.52771 0.0
H832 H 0.3917 0.08928 0.47646 0.0
C833 C 0.33748 0.21143 0.47707 0.0
C834 C 0.34951 0.14943 0.50898 0.0
C835 C 0.32478 0.24569 0.47527 0.0
C836 C 0.34633 0.00125 0.51842 0.0
C837 C 0.35805 0.0358 0.51679 0.0
C838 C 0.37961 0.10553 0.48566 0.0
C839 C 0.35597 0.20169 0.49109 0.0
C840 C 0.36245 0.16404 0.49459 0.0
C841 C 0.36072 0.05153 0.50136 0.0
C842 C 0.36472 0.09048 0.49967 0.0
H843 H 0.35685 0.28081 0.51025 0.0
H844 H 0.37819 0.22062 0.51357 0.0
H845 H 0.38837 0.15254 0.47187 0.0
H846 H 0.338 0.98052 0.47849 0.0
H847 H 0.35649 0.04109 0.47549 0.0
C848 C 0.20157 0.63129 0.26547 0.0
C849 C 0.20962 0.60764 0.25291 0.0
C850 C 0.21376 0.6657 0.26495 0.0
C851 C 0.23986 0.73174 0.2352 0.0
H852 H 0.2692 0.78443 0.27299 0.0
C853 C 0.29935 0.87039 0.23214 0.0
C854 C 0.29151 0.89403 0.24473 0.0
C855 C 0.28688 0.83607 0.23262 0.0
C856 C 0.26053 0.77018 0.26238 0.0
H857 H 0.23895 0.60092 0.23057 0.0
H858 H 0.26062 0.66097 0.22982 0.0
H859 H 0.2567 0.72201 0.27557 0.0
H860 H 0.2622 0.9009 0.26706 0.0
H861 H 0.24005 0.84103 0.26776 0.0
H862 H 0.24371 0.77991 0.22201 0.0
C863 C 0.24424 0.65298 0.23987 0.0
C864 C 0.25359 0.73441 0.26384 0.0
C865 C 0.23209 0.6185 0.2404 0.0
C866 C 0.26892 0.88331 0.25722 0.0
C867 C 0.25649 0.84893 0.25771 0.0
C868 C 0.2468 0.76751 0.23374 0.0
C869 C 0.23429 0.6772 0.25188 0.0
C870 C 0.24321 0.71481 0.25026 0.0
C871 C 0.26627 0.82468 0.24569 0.0
C872 C 0.2572 0.78711 0.24731 0.0
H873 H 0.18443 0.62377 0.27533 0.0
H874 H 0.20555 0.68377 0.27436 0.0
H875 H 0.2312 0.71748 0.22458 0.0
H876 H 0.31657 0.8778 0.22229 0.0
H877 H 0.29497 0.81798 0.2232 0.0
C878 C 0.13442 0.48188 0.49086 0.0
C879 C 0.14514 0.45901 0.50329 0.0
C880 C 0.09998 0.49435 0.49031 0.0
C881 C 0.01825 0.50368 0.51408 0.0
H882 H 0.97351 0.49502 0.47205 0.0
C883 C 0.86956 0.52018 0.50697 0.0
C884 C 0.85906 0.54317 0.49454 0.0
C885 C 0.90392 0.50749 0.50754 0.0
C886 C 0.98569 0.49777 0.48384 0.0
H887 H 0.12881 0.43349 0.52556 0.0
H888 H 0.06889 0.45516 0.52456 0.0
H889 H 0.03585 0.48207 0.47478 0.0
H890 H 0.87566 0.56867 0.47231 0.0
H891 H 0.93543 0.5466 0.47336 0.0
H892 H 0.96809 0.5194 0.52314 0.0
C893 C 0.08703 0.46343 0.51523 0.0
C894 C 0.02142 0.49058 0.48539 0.0
C895 C 0.1214 0.45092 0.51576 0.0
C896 C 0.88291 0.55116 0.4821 0.0
C897 C 0.91719 0.53842 0.48266 0.0
C898 C 0.98252 0.51087 0.51253 0.0
C899 C 0.07566 0.48432 0.50222 0.0
C900 C 0.03808 0.49351 0.50052 0.0
C901 C 0.92836 0.5174 0.49567 0.0
C902 C 0.96587 0.508 0.49739 0.0
H903 H 0.15207 0.48879 0.48109 0.0
H904 H 0.09209 0.51102 0.48031 0.0
H905 H 0.03044 0.50646 0.52586 0.0
H906 H 0.85181 0.51337 0.5167 0.0
H907 H 0.91165 0.49075 0.51754 0.0
C908 C 0.2687 0.38475 0.74111 0.0
C909 C 0.29187 0.39516 0.75343 0.0
C910 C 0.2562 0.35039 0.74058 0.0
C911 C 0.24754 0.26841 0.76422 0.0
H912 H 0.25589 0.22389 0.72209 0.0
C913 C 0.23282 0.11954 0.75698 0.0
C914 C 0.20989 0.10892 0.7446 0.0
C915 C 0.24495 0.15403 0.75756 0.0
C916 C 0.25321 0.23601 0.7339 0.0
H917 H 0.31785 0.37842 0.77556 0.0
H918 H 0.29612 0.31865 0.77458 0.0
H919 H 0.26836 0.28628 0.72487 0.0
H920 H 0.18389 0.12547 0.72245 0.0
H921 H 0.20498 0.18546 0.72351 0.0
H922 H 0.23241 0.21813 0.77325 0.0
C923 C 0.28765 0.33696 0.76532 0.0
C924 C 0.26013 0.27176 0.73548 0.0
C925 C 0.3002 0.37124 0.76584 0.0
C926 C 0.20138 0.1328 0.73221 0.0
C927 C 0.21355 0.16722 0.73278 0.0
C928 C 0.24061 0.23265 0.76264 0.0
C929 C 0.26648 0.32587 0.75239 0.0
C930 C 0.25736 0.28833 0.75065 0.0
C931 C 0.23453 0.17848 0.74574 0.0
C932 C 0.24342 0.21608 0.74747 0.0
H933 H 0.2616 0.40255 0.7314 0.0
H934 H 0.23932 0.34273 0.73065 0.0
H935 H 0.24489 0.28053 0.77603 0.0
H936 H 0.24004 0.10178 0.76668 0.0
H937 H 0.26169 0.16183 0.76752 0.0
C938 C 0.62032 0.45174 0.98175 0.0
C939 C 0.64379 0.45945 0.99438 0.0
C940 C 0.58594 0.46419 0.98223 0.0
C941 C 0.52624 0.52711 0.00228 0.0
H942 H 0.45629 0.45603 0.99344 0.0
C943 C 0.38128 0.55158 0.01625 0.0
C944 C 0.35778 0.5435 0.00368 0.0
C945 C 0.41573 0.5393 0.01578 0.0
C946 C 0.4755 0.47621 0.99583 0.0
H947 H 0.65025 0.48849 0.01681 0.0
H948 H 0.59015 0.51016 0.01764 0.0
H949 H 0.51825 0.44203 0.99004 0.0
H950 H 0.35137 0.51409 0.98135 0.0
H951 H 0.41157 0.49275 0.98052 0.0
H952 H 0.48349 0.56131 0.00805 0.0
C953 C 0.59839 0.49446 0.00737 0.0
C954 C 0.51095 0.46828 0.99382 0.0
C955 C 0.63284 0.48201 0.0069 0.0
C956 C 0.3688 0.52083 0.99123 0.0
C957 C 0.40332 0.50858 0.99075 0.0
C958 C 0.49078 0.53505 0.00428 0.0
C959 C 0.5743 0.48465 0.99533 0.0
C960 C 0.53669 0.49367 0.997 0.0
C961 C 0.42741 0.51867 0.00274 0.0
C962 C 0.46504 0.50967 0.0011 0.0
H963 H 0.62799 0.43473 0.97183 0.0
H964 H 0.56814 0.45691 0.97258 0.0
H965 H 0.54547 0.54728 0.00467 0.0
H966 H 0.37356 0.56869 0.02612 0.0
H967 H 0.43352 0.54681 0.02539 0.0
C968 C 0.80177 0.37061 0.73212 0.0
C969 C 0.79337 0.39431 0.7446 0.0
C970 C 0.78961 0.33619 0.73261 0.0
C971 C 0.72624 0.27693 0.75228 0.0
H972 H 0.79762 0.20635 0.744 0.0
C973 C 0.70161 0.13204 0.76625 0.0
C974 C 0.71009 0.10838 0.75375 0.0
C975 C 0.71383 0.16644 0.76581 0.0
C976 C 0.77736 0.22573 0.74623 0.0
H977 H 0.76354 0.4011 0.7668 0.0
H978 H 0.74238 0.34095 0.76765 0.0
H979 H 0.81162 0.26827 0.74065 0.0
H980 H 0.74012 0.10163 0.73162 0.0
H981 H 0.76136 0.16175 0.73086 0.0
H982 H 0.69197 0.2344 0.75785 0.0
C983 C 0.75838 0.34903 0.75748 0.0
C984 C 0.7853 0.26118 0.74425 0.0
C985 C 0.77054 0.38352 0.75699 0.0
C986 C 0.73306 0.11918 0.74143 0.0
C987 C 0.74527 0.15366 0.74099 0.0
C988 C 0.7183 0.24149 0.75426 0.0
C989 C 0.76876 0.32474 0.74558 0.0
C990 C 0.7598 0.28714 0.74723 0.0
C991 C 0.73481 0.17792 0.75289 0.0
C992 C 0.74379 0.21552 0.75127 0.0
H993 H 0.81903 0.37815 0.7223 0.0
H994 H 0.79736 0.31824 0.72307 0.0
H995 H 0.70598 0.29633 0.75452 0.0
H996 H 0.68425 0.12449 0.77602 0.0
H997 H 0.70603 0.18436 0.77535 0.0
C998 C 0.7687 0.88321 0.24096 0.0
C999 C 0.79187 0.89354 0.2533 0.0
C1000 C 0.75631 0.84881 0.24034 0.0
C1001 C 0.74796 0.76657 0.26385 0.0
H1002 H 0.75536 0.72244 0.22161 0.0
C1003 C 0.73304 0.61779 0.25644 0.0
C1004 C 0.70976 0.60726 0.24418 0.0
C1005 C 0.74522 0.65226 0.257 0.0
C1006 C 0.75295 0.73445 0.23345 0.0
H1007 H 0.81808 0.87656 0.27533 0.0
H1008 H 0.79656 0.81674 0.27419 0.0
H1009 H 0.76799 0.78479 0.22445 0.0
H1010 H 0.68317 0.62398 0.22221 0.0
H1011 H 0.70437 0.68396 0.22322 0.0
H1012 H 0.73297 0.71623 0.27286 0.0
C1013 C 0.78797 0.83513 0.265 0.0
C1014 C 0.75996 0.77019 0.23507 0.0
C1015 C 0.8004 0.86946 0.26561 0.0
C1016 C 0.70094 0.63124 0.23187 0.0
C1017 C 0.71317 0.66564 0.23241 0.0
C1018 C 0.74096 0.73084 0.26224 0.0
C1019 C 0.76672 0.82416 0.25208 0.0
C1020 C 0.75754 0.78662 0.25029 0.0
C1021 C 0.73449 0.67681 0.24527 0.0
C1022 C 0.74344 0.7144 0.24702 0.0
H1023 H 0.76146 0.90114 0.23133 0.0
H1024 H 0.73937 0.84124 0.23042 0.0
H1025 H 0.74555 0.77858 0.2757 0.0
H1026 H 0.74051 0.59996 0.26608 0.0
H1027 H 0.76222 0.65999 0.26687 0.0
C1028 C 0.62004 0.95254 0.01542 0.0
C1029 C 0.64412 0.96045 0.00307 0.0
C1030 C 0.58584 0.96548 0.01476 0.0
C1031 C 0.52117 0.99357 0.98468 0.0
H1032 H 0.46708 0.02141 0.02235 0.0
C1033 C 0.38182 0.05269 0.98139 0.0
C1034 C 0.35803 0.04393 0.99375 0.0
C1035 C 0.41631 0.04048 0.98192 0.0
C1036 C 0.48174 0.0132 0.01176 0.0
H1037 H 0.65191 0.99037 0.98098 0.0
H1038 H 0.59222 0.01337 0.97998 0.0
H1039 H 0.52943 0.00872 0.02525 0.0
H1040 H 0.35112 0.01325 0.01568 0.0
H1041 H 0.41128 0.99158 0.01644 0.0
H1042 H 0.47345 0.99806 0.97119 0.0
C1043 C 0.59969 0.99651 0.98998 0.0
C1044 C 0.51747 0.00615 0.01341 0.0
C1045 C 0.63396 0.9836 0.99065 0.0
C1046 C 0.3688 0.02068 0.00601 0.0
C1047 C 0.40335 0.00853 0.00655 0.0
C1048 C 0.48544 1.00066 0.98303 0.0
C1049 C 0.575 0.98665 0.00175 0.0
C1050 C 0.53755 0.99619 -0.0001 0.0
C1051 C 0.42771 0.01925 0.9948 0.0
C1052 C 0.46534 0.01043 0.99656 0.0
H1053 H 0.62702 0.9349 0.02521 0.0
H1054 H 0.56742 0.9573 0.02399 0.0
H1055 H 0.53581 0.98528 0.97409 0.0
H1056 H 0.37436 0.07044 0.97172 0.0
H1057 H 0.43448 0.04925 0.9727 0.0
C1058 C 0.12143 0.9499 0.48184 0.0
C1059 C 0.1454 0.95846 0.49415 0.0
C1060 C 0.08717 0.9627 0.48233 0.0
C1061 C 0.02212 0.99189 0.51201 0.0
H1062 H 0.96869 0.01948 0.4741 0.0
C1063 C 0.88389 0.05312 0.51514 0.0
C1064 C 0.85985 0.04472 0.50283 0.0
C1065 C 0.91817 0.04039 0.51455 0.0
C1066 C 0.98315 0.01132 0.48476 0.0
H1067 H 0.15285 0.9893 0.516 0.0
H1068 H 0.09305 0.01202 0.51671 0.0
H1069 H 0.0309 0.00585 0.47137 0.0
H1070 H 0.85232 0.01428 0.48087 0.0
H1071 H 0.91215 0.99164 0.48001 0.0
H1072 H 0.97438 0.9973 0.5254 0.0
C1073 C 0.10068 0.99478 0.50687 0.0
C1074 C 0.0188 0.00373 0.48321 0.0
C1075 C 0.13501 0.98203 0.50637 0.0
C1076 C 0.87021 0.02142 0.4905 0.0
C1077 C 0.90457 0.00871 0.48991 0.0
C1078 C 0.98647 0.99945 0.51356 0.0
C1079 C 0.07614 0.98436 0.49514 0.0
C1080 C 0.03866 0.99398 0.49682 0.0
C1081 C 0.92916 0.01893 0.50166 0.0
C1082 C 0.96661 0.00925 0.49995 0.0
H1083 H 0.12859 0.93192 0.47221 0.0
H1084 H 0.06885 0.95411 0.47314 0.0
H1085 H 0.03659 0.98373 0.52267 0.0
H1086 H 0.87677 0.0709 0.52485 0.0
H1087 H 0.93652 0.04884 0.52375 0.0
C1088 C 0.14377 0.49205 0.31643 0.0
C1089 C 0.13646 0.46651 0.30463 0.0
C1090 C 0.15408 0.48215 0.33203 0.0
C1091 C 0.15546 0.40889 0.36126 0.0
H1092 H 0.23618 0.45761 0.3786 0.0
C1093 C 0.22087 0.36808 0.42187 0.0
C1094 C 0.22952 0.39584 0.43234 0.0
C1095 C 0.21103 0.37484 0.4058 0.0
C1096 C 0.21344 0.44392 0.37401 0.0
H1097 H 0.13255 0.41047 0.30026 0.0
H1098 H 0.15037 0.39333 0.32752 0.0
H1099 H 0.21337 0.47378 0.35207 0.0
H1100 H 0.23559 0.45238 0.43394 0.0
H1101 H 0.21821 0.46401 0.40622 0.0
H1102 H 0.15523 0.37936 0.38334 0.0
C1103 C 0.14818 0.42099 0.32467 0.0
C1104 C 0.20033 0.45325 0.35881 0.0
C1105 C 0.13807 0.43086 0.30903 0.0
C1106 C 0.22913 0.43029 0.42625 0.0
C1107 C 0.21934 0.437 0.41027 0.0
C1108 C 0.16848 0.39965 0.37654 0.0
C1109 C 0.1571 0.44651 0.33622 0.0
C1110 C 0.171 0.4361 0.35233 0.0
C1111 C 0.20977 0.40946 0.39988 0.0
C1112 C 0.19742 0.41732 0.38317 0.0
H1113 H 0.14273 0.51972 0.31349 0.0
H1114 H 0.1602 0.50243 0.34077 0.0
H1115 H 0.13272 0.3953 0.3566 0.0
H1116 H 0.2209 0.34124 0.42617 0.0
H1117 H 0.20423 0.35299 0.39805 0.0
C1118 C 0.38223 0.46723 0.67208 0.0
C1119 C 0.35436 0.47622 0.68246 0.0
C1120 C 0.37558 0.45549 0.65628 0.0
C1121 C 0.30609 0.41344 0.63231 0.0
H1122 H 0.35872 0.44512 0.59494 0.0
C1123 C 0.26039 0.38839 0.56674 0.0
C1124 C 0.28586 0.38223 0.55476 0.0
C1125 C 0.2703 0.39718 0.58253 0.0
C1126 C 0.34413 0.43555 0.60528 0.0
H1127 H 0.29775 0.48144 0.68407 0.0
H1128 H 0.2864 0.46132 0.65666 0.0
H1129 H 0.3736 0.46717 0.62185 0.0
H1130 H 0.34182 0.37897 0.55021 0.0
H1131 H 0.35901 0.39367 0.57781 0.0
H1132 H 0.27659 0.38187 0.61584 0.0
C1133 C 0.3133 0.46268 0.66079 0.0
C1134 C 0.35263 0.44829 0.62069 0.0
C1135 C 0.31989 0.47447 0.67649 0.0
C1136 C 0.32147 0.38374 0.5591 0.0
C1137 C 0.33137 0.39244 0.5749 0.0
C1138 C 0.2977 0.40061 0.61695 0.0
C1139 C 0.34098 0.4524 0.65062 0.0
C1140 C 0.33336 0.43773 0.63433 0.0
C1141 C 0.30591 0.3999 0.58674 0.0
C1142 C 0.31632 0.41182 0.60321 0.0
H1143 H 0.40908 0.46822 0.67629 0.0
H1144 H 0.39745 0.44772 0.6487 0.0
H1145 H 0.29121 0.40427 0.64264 0.0
H1146 H 0.23274 0.38759 0.56383 0.0
H1147 H 0.24998 0.4031 0.59129 0.0
C1148 C 0.36544 0.5706 0.80919 0.0
C1149 C 0.3674 0.535 0.80473 0.0
C1150 C 0.35553 0.58027 0.82488 0.0
C1151 C 0.3045 0.54707 0.85921 0.0
H1152 H 0.3486 0.62187 0.88354 0.0
C1153 C 0.27544 0.57036 0.92662 0.0
C1154 C 0.27435 0.60492 0.93258 0.0
C1155 C 0.28549 0.56355 0.91068 0.0
C1156 C 0.33564 0.6013 0.87679 0.0
H1157 H 0.36204 0.48166 0.81357 0.0
H1158 H 0.34496 0.49859 0.84094 0.0
H1159 H 0.37106 0.60618 0.85675 0.0
H1160 H 0.28208 0.65955 0.92622 0.0
H1161 H 0.2992 0.64761 0.89817 0.0
H1162 H 0.26897 0.5422 0.87909 0.0
C1163 C 0.35061 0.519 0.8322 0.0
C1164 C 0.34863 0.59221 0.86149 0.0
C1165 C 0.36069 0.50931 0.81654 0.0
C1166 C 0.28264 0.63263 0.92203 0.0
C1167 C 0.29274 0.62577 0.906 0.0
C1168 C 0.29143 0.55624 0.87443 0.0
C1169 C 0.3472 0.55457 0.83644 0.0
C1170 C 0.33343 0.56471 0.85262 0.0
C1171 C 0.29463 0.59108 0.90021 0.0
C1172 C 0.30707 0.58318 0.88351 0.0
H1173 H 0.37048 0.5911 0.80041 0.0
H1174 H 0.35303 0.60788 0.82777 0.0
H1175 H 0.29171 0.5263 0.85251 0.0
H1176 H 0.26929 0.5483 0.93438 0.0
H1177 H 0.28711 0.5365 0.90673 0.0
C1178 C 0.18133 0.61698 0.0593 0.0
C1179 C 0.21691 0.6183 0.05487 0.0
C1180 C 0.1715 0.60665 0.07491 0.0
C1181 C 0.20374 0.55322 0.10872 0.0
H1182 H 0.13021 0.59854 0.13361 0.0
C1183 C 0.18133 0.523 0.17603 0.0
C1184 C 0.14699 0.52295 0.18223 0.0
C1185 C 0.18788 0.53303 0.16008 0.0
C1186 C 0.15039 0.58523 0.1267 0.0
H1187 H 0.27008 0.61132 0.06367 0.0
H1188 H 0.25287 0.59345 0.09088 0.0
H1189 H 0.14602 0.62162 0.10697 0.0
H1190 H 0.09243 0.53242 0.17623 0.0
H1191 H 0.10389 0.5495 0.14814 0.0
H1192 H 0.20811 0.51673 0.12828 0.0
C1193 C 0.2326 0.59998 0.08219 0.0
C1194 C 0.15956 0.59857 0.11148 0.0
C1195 C 0.24245 0.61051 0.06663 0.0
C1196 C 0.11918 0.53215 0.17186 0.0
C1197 C 0.12578 0.54224 0.15581 0.0
C1198 C 0.19447 0.53978 0.12385 0.0
C1199 C 0.19702 0.59721 0.08639 0.0
C1200 C 0.18666 0.58296 0.10243 0.0
C1201 C 0.16029 0.54319 0.14981 0.0
C1202 C 0.16801 0.55587 0.13314 0.0
H1203 H 0.16094 0.62286 0.05057 0.0
H1204 H 0.14388 0.60468 0.07777 0.0
H1205 H 0.22417 0.54012 0.10187 0.0
H1206 H 0.20345 0.5161 0.18364 0.0
H1207 H 0.21481 0.53389 0.15597 0.0
C1208 C 0.7762 0.57105 0.57131 0.0
C1209 C 0.77549 0.6056 0.56533 0.0
C1210 C 0.78607 0.56418 0.58727 0.0
C1211 C 0.83639 0.60158 0.62119 0.0
H1212 H 0.79178 0.52697 0.64547 0.0
C1213 C 0.86584 0.57073 0.68881 0.0
C1214 C 0.86761 0.53512 0.69326 0.0
C1215 C 0.85596 0.58046 0.67312 0.0
C1216 C 0.80476 0.54763 0.63877 0.0
H1217 H 0.78367 0.66017 0.57169 0.0
H1218 H 0.80046 0.64814 0.59976 0.0
H1219 H 0.76925 0.54301 0.61887 0.0
H1220 H 0.8619 0.48182 0.68442 0.0
H1221 H 0.84486 0.49886 0.65705 0.0
H1222 H 0.87178 0.60621 0.64126 0.0
C1223 C 0.79385 0.62634 0.59194 0.0
C1224 C 0.7918 0.55689 0.62354 0.0
C1225 C 0.78395 0.63326 0.57589 0.0
C1226 C 0.86071 0.50947 0.68145 0.0
C1227 C 0.85066 0.51923 0.66579 0.0
C1228 C 0.84925 0.59242 0.63651 0.0
C1229 C 0.79539 0.59165 0.59775 0.0
C1230 C 0.80769 0.58369 0.61446 0.0
C1231 C 0.84747 0.55482 0.66156 0.0
C1232 C 0.8338 0.56506 0.64538 0.0
H1233 H 0.76991 0.54903 0.56355 0.0
H1234 H 0.78741 0.53712 0.59124 0.0
H1235 H 0.84953 0.62203 0.61445 0.0
H1236 H 0.87102 0.5912 0.69758 0.0
H1237 H 0.85363 0.60809 0.67023 0.0
C1238 C 0.62205 0.53319 0.32601 0.0
C1239 C 0.64962 0.52439 0.31543 0.0
C1240 C 0.62906 0.54352 0.34198 0.0
C1241 C 0.69869 0.54217 0.37345 0.0
H1242 H 0.64905 0.62285 0.39078 0.0
C1243 C 0.74553 0.61201 0.43116 0.0
C1244 C 0.7198 0.61936 0.44289 0.0
C1245 C 0.73595 0.60172 0.41552 0.0
C1246 C 0.66294 0.60013 0.38615 0.0
H1247 H 0.70613 0.51863 0.31355 0.0
H1248 H 0.71819 0.53684 0.34112 0.0
H1249 H 0.63327 0.59995 0.36411 0.0
H1250 H 0.66374 0.62335 0.44707 0.0
H1251 H 0.64715 0.60554 0.41977 0.0
H1252 H 0.72861 0.54257 0.39537 0.0
C1253 C 0.69114 0.53546 0.33722 0.0
C1254 C 0.6538 0.58689 0.37091 0.0
C1255 C 0.68418 0.52518 0.32133 0.0
C1256 C 0.68428 0.61782 0.43836 0.0
C1257 C 0.67472 0.6077 0.4227 0.0
C1258 C 0.70791 0.55548 0.38862 0.0
C1259 C 0.66375 0.54515 0.3477 0.0
C1260 C 0.67179 0.55792 0.36432 0.0
C1261 C 0.70044 0.59874 0.41123 0.0
C1262 C 0.69035 0.58478 0.39509 0.0
H1263 H 0.59513 0.53287 0.32187 0.0
H1264 H 0.60732 0.55039 0.34981 0.0
H1265 H 0.71265 0.51943 0.36889 0.0
H1266 H 0.77312 0.61301 0.43419 0.0
H1267 H 0.75638 0.59558 0.40685 0.0
C1268 C 0.72426 0.43009 0.07139 0.0
C1269 C 0.72557 0.39559 0.06535 0.0
C1270 C 0.71273 0.43679 0.08712 0.0
C1271 C 0.69838 0.39763 0.12722 0.0
H1272 H 0.63271 0.47488 0.13219 0.0
C1273 C 0.63492 0.43021 0.18896 0.0
C1274 C 0.6336 0.46592 0.19326 0.0
C1275 C 0.64342 0.42007 0.17316 0.0
C1276 C 0.65125 0.45343 0.13105 0.0
H1277 H 0.71713 0.34092 0.07145 0.0
H1278 H 0.69709 0.35275 0.09912 0.0
H1279 H 0.65462 0.45977 0.10534 0.0
H1280 H 0.63913 0.51897 0.18411 0.0
H1281 H 0.6543 0.50131 0.15664 0.0
H1282 H 0.69552 0.39169 0.15298 0.0
C1283 C 0.70499 0.37454 0.09156 0.0
C1284 C 0.6638 0.44476 0.11566 0.0
C1285 C 0.71646 0.36778 0.07571 0.0
C1286 C 0.63977 0.49125 0.18123 0.0
C1287 C 0.64838 0.4811 0.16543 0.0
C1288 C 0.68594 0.40641 0.14266 0.0
C1289 C 0.70228 0.40921 0.09728 0.0
C1290 C 0.68783 0.41705 0.11359 0.0
C1291 C 0.65087 0.44538 0.16127 0.0
C1292 C 0.66249 0.43467 0.14477 0.0
H1293 H 0.73136 0.45219 0.06383 0.0
H1294 H 0.71168 0.46372 0.0913 0.0
H1295 H 0.71706 0.37631 0.12602 0.0
H1296 H 0.63013 0.40996 0.19789 0.0
H1297 H 0.64448 0.39236 0.17029 0.0
C1298 C 0.81994 0.47734 0.82162 0.0
C1299 C 0.85442 0.47803 0.81562 0.0
C1300 C 0.81318 0.46725 0.83755 0.0
C1301 C 0.85086 0.41619 0.87127 0.0
H1302 H 0.77603 0.46061 0.89569 0.0
C1303 C 0.81976 0.38544 0.93874 0.0
C1304 C 0.78417 0.38373 0.94312 0.0
C1305 C 0.82956 0.39557 0.9231 0.0
C1306 C 0.79675 0.44769 0.88896 0.0
H1307 H 0.90899 0.46958 0.82191 0.0
H1308 H 0.89716 0.45241 0.84994 0.0
H1309 H 0.79202 0.48366 0.8692 0.0
H1310 H 0.73098 0.38976 0.93421 0.0
H1311 H 0.74814 0.40725 0.90694 0.0
H1312 H 0.8556 0.38032 0.89119 0.0
C1313 C 0.87533 0.45921 0.84215 0.0
C1314 C 0.80598 0.46094 0.87378 0.0
C1315 C 0.88213 0.46934 0.82613 0.0
C1316 C 0.75862 0.3909 0.93129 0.0
C1317 C 0.76844 0.40121 0.91569 0.0
C1318 C 0.84173 0.40303 0.88653 0.0
C1319 C 0.84071 0.45768 0.84798 0.0
C1320 C 0.83285 0.44511 0.86465 0.0
C1321 C 0.804 0.40439 0.91154 0.0
C1322 C 0.81427 0.4184 0.89544 0.0
H1323 H 0.79789 0.48381 0.8139 0.0
H1324 H 0.78618 0.46593 0.84153 0.0
H1325 H 0.87137 0.40309 0.86448 0.0
H1326 H 0.84016 0.38004 0.94754 0.0
H1327 H 0.85717 0.39787 0.92028 0.0
C1328 C 0.63649 0.9322 0.80914 0.0
C1329 C 0.63499 0.96782 0.80469 0.0
C1330 C 0.64636 0.9224 0.82482 0.0
C1331 C 0.69817 0.95475 0.85904 0.0
H1332 H 0.65283 0.88092 0.88351 0.0
C1333 C 0.72707 0.93135 0.92645 0.0
C1334 C 0.72737 0.89685 0.93249 0.0
C1335 C 0.71719 0.93822 0.9105 0.0
C1336 C 0.66614 0.9012 0.87672 0.0
H1337 H 0.64118 0.02108 0.81351 0.0
H1338 H 0.65824 0.00391 0.84086 0.0
H1339 H 0.63049 0.8969 0.85674 0.0
H1340 H 0.71847 0.84234 0.92624 0.0
H1341 H 0.70167 0.85436 0.89816 0.0
H1342 H 0.73394 0.95903 0.87886 0.0
C1343 C 0.65221 0.98359 0.83213 0.0
C1344 C 0.65321 0.91046 0.86143 0.0
C1345 C 0.64214 0.99342 0.81649 0.0
C1346 C 0.71851 0.86921 0.92199 0.0
C1347 C 0.7086 0.87613 0.90595 0.0
C1348 C 0.71119 0.94539 0.87425 0.0
C1349 C 0.65514 0.94797 0.83636 0.0
C1350 C 0.66886 0.93762 0.85252 0.0
C1351 C 0.70745 0.91079 0.90008 0.0
C1352 C 0.6951 0.9188 0.88338 0.0
H1353 H 0.63109 0.91178 0.80037 0.0
H1354 H 0.64848 0.89475 0.82771 0.0
H1355 H 0.71129 0.97524 0.8523 0.0
H1356 H 0.73368 0.95335 0.93417 0.0
H1357 H 0.71615 0.96526 0.9065 0.0
C1358 C 0.7572 0.89124 0.06666 0.0
C1359 C 0.78285 0.88343 0.05496 0.0
C1360 C 0.76691 0.90147 0.08229 0.0
C1361 C 0.83975 0.90198 0.11173 0.0
H1362 H 0.79132 0.98361 0.12883 0.0
C1363 C 0.88091 0.96802 0.17204 0.0
C1364 C 0.8533 0.97719 0.18253 0.0
C1365 C 0.87401 0.95794 0.15603 0.0
C1366 C 0.80492 0.96062 0.12431 0.0
H1367 H 0.83885 0.87854 0.05081 0.0
H1368 H 0.85566 0.89624 0.0781 0.0
H1369 H 0.77522 0.96069 0.10232 0.0
H1370 H 0.79686 0.98392 0.1842 0.0
H1371 H 0.78498 0.96614 0.15656 0.0
H1372 H 0.86916 0.90166 0.13384 0.0
C1373 C 0.82806 0.89449 0.07516 0.0
C1374 C 0.79563 0.94744 0.10913 0.0
C1375 C 0.81838 0.88444 0.0595 0.0
C1376 C 0.81884 0.97706 0.17649 0.0
C1377 C 0.81198 0.96703 0.16056 0.0
C1378 C 0.84896 0.91508 0.12698 0.0
C1379 C 0.80245 0.90392 0.0866 0.0
C1380 C 0.8127 0.9178 0.10272 0.0
C1381 C 0.83939 0.95695 0.15017 0.0
C1382 C 0.83142 0.94438 0.13351 0.0
H1383 H 0.72961 0.89066 0.06362 0.0
H1384 H 0.74655 0.90799 0.09094 0.0
H1385 H 0.85327 0.879 0.10714 0.0
H1386 H 0.90776 0.96784 0.17628 0.0
H1387 H 0.89576 0.95075 0.14826 0.0
C1388 C 0.78305 0.13462 0.4218 0.0
C1389 C 0.77392 0.10705 0.43229 0.0
C1390 C 0.79279 0.12763 0.40574 0.0
C1391 C 0.78935 0.05851 0.37399 0.0
H1392 H 0.87125 0.10538 0.35674 0.0
C1393 C 0.85862 0.00879 0.31657 0.0
C1394 C 0.86659 0.03417 0.30479 0.0
C1395 C 0.84837 0.01892 0.33215 0.0
C1396 C 0.84819 0.09228 0.36135 0.0
H1397 H 0.76679 0.05064 0.4339 0.0
H1398 H 0.78398 0.03862 0.4062 0.0
H1399 H 0.84874 0.12192 0.3834 0.0
H1400 H 0.87174 0.0901 0.30044 0.0
H1401 H 0.85402 0.10763 0.32765 0.0
H1402 H 0.78908 0.02853 0.35207 0.0
C1403 C 0.78334 0.06565 0.41023 0.0
C1404 C 0.83517 0.10187 0.37658 0.0
C1405 C 0.77366 0.07259 0.42621 0.0
C1406 C 0.8657 0.06983 0.30919 0.0
C1407 C 0.85565 0.07993 0.32481 0.0
C1408 C 0.80246 0.04882 0.35883 0.0
C1409 C 0.79345 0.09298 0.39984 0.0
C1410 C 0.80579 0.08482 0.38315 0.0
C1411 C 0.84607 0.05461 0.33633 0.0
C1412 C 0.83221 0.06534 0.35241 0.0
H1413 H 0.78353 0.16146 0.42609 0.0
H1414 H 0.80003 0.14933 0.39797 0.0
H1415 H 0.76629 0.0453 0.37854 0.0
H1416 H 0.85909 0.9811 0.31363 0.0
H1417 H 0.84172 0.99878 0.34088 0.0
C1418 C 0.7456 0.11235 0.56658 0.0
C1419 C 0.7198 0.11932 0.55483 0.0
C1420 C 0.73611 0.10219 0.58224 0.0
C1421 C 0.6631 0.10038 0.61162 0.0
H1422 H 0.71343 0.0203 0.6291 0.0
C1423 C 0.6225 0.03373 0.67186 0.0
C1424 C 0.65008 0.02524 0.68248 0.0
C1425 C 0.62951 0.04398 0.65588 0.0
C1426 C 0.6993 0.04287 0.62448 0.0
H1427 H 0.66371 0.12276 0.55065 0.0
H1428 H 0.64728 0.10515 0.57799 0.0
H1429 H 0.72927 0.04325 0.60257 0.0
H1430 H 0.70662 0.01994 0.68443 0.0
H1431 H 0.71869 0.03802 0.65684 0.0
H1432 H 0.63338 0.10022 0.63364 0.0
C1433 C 0.67483 0.10752 0.57506 0.0
C1434 C 0.70845 0.05607 0.60928 0.0
C1435 C 0.68429 0.11752 0.55936 0.0
C1436 C 0.68467 0.02625 0.67662 0.0
C1437 C 0.69163 0.03645 0.66072 0.0
C1438 C 0.65403 0.08726 0.62689 0.0
C1439 C 0.70063 0.09895 0.58655 0.0
C1440 C 0.69065 0.08513 0.60273 0.0
C1441 C 0.66422 0.04583 0.65019 0.0
C1442 C 0.67223 0.0585 0.63355 0.0
H1443 H 0.77317 0.11357 0.56355 0.0
H1444 H 0.75659 0.09634 0.59093 0.0
H1445 H 0.64904 0.12293 0.60692 0.0
H1446 H 0.59556 0.03323 0.67597 0.0
H1447 H 0.60776 0.05061 0.64801 0.0
C1448 C 0.2847 0.13234 0.07566 0.0
C1449 C 0.27635 0.10461 0.06511 0.0
C1450 C 0.2961 0.12542 0.09149 0.0
C1451 C 0.3381 0.05547 0.11551 0.0
H1452 H 0.30486 0.10772 0.1528 0.0
C1453 C 0.36189 0.0092 0.18115 0.0
C1454 C 0.36763 0.03464 0.19318 0.0
C1455 C 0.3533 0.0192 0.16534 0.0
C1456 C 0.31485 0.09323 0.14249 0.0
H1457 H 0.27198 0.04794 0.06323 0.0
H1458 H 0.29149 0.03611 0.0907 0.0
H1459 H 0.28349 0.12291 0.12579 0.0
H1460 H 0.37031 0.09065 0.19779 0.0
H1461 H 0.35595 0.10799 0.17017 0.0
H1462 H 0.3694 0.02575 0.13211 0.0
C1463 C 0.28989 0.06312 0.08667 0.0
C1464 C 0.30251 0.10191 0.12703 0.0
C1465 C 0.27845 0.06998 0.07094 0.0
C1466 C 0.36587 0.07032 0.18887 0.0
C1467 C 0.35736 0.0803 0.17305 0.0
C1468 C 0.35052 0.04689 0.13093 0.0
C1469 C 0.29947 0.09067 0.09703 0.0
C1470 C 0.31366 0.0828 0.1134 0.0
C1471 C 0.35036 0.05487 0.16116 0.0
C1472 C 0.33876 0.06539 0.14464 0.0
H1473 H 0.28342 0.1593 0.07157 0.0
H1474 H 0.30335 0.1472 0.09921 0.0
H1475 H 0.34773 0.04071 0.1052 0.0
H1476 H 0.3629 0.9815 0.18404 0.0
H1477 H 0.34774 0.9989 0.15654 0.0
C1478 C 0.18074 0.11857 0.93876 0.0
C1479 C 0.21638 0.12032 0.94303 0.0
C1480 C 0.17076 0.1098 0.92297 0.0
C1481 C 0.20416 0.10185 0.88087 0.0
H1482 H 0.12856 0.03492 0.87605 0.0
C1483 C 0.18223 0.02781 0.82138 0.0
C1484 C 0.14778 0.02607 0.81537 0.0
C1485 C 0.18874 0.03955 0.83709 0.0
C1486 C 0.14945 0.0539 0.87719 0.0
H1487 H 0.26945 0.11533 0.93386 0.0
H1488 H 0.25207 0.0997 0.90644 0.0
H1489 H 0.14348 0.05705 0.90295 0.0
H1490 H 0.09304 0.03395 0.82151 0.0
H1491 H 0.10454 0.05435 0.84913 0.0
H1492 H 0.21054 0.09819 0.85517 0.0
C1493 C 0.23179 0.10548 0.91523 0.0
C1494 C 0.15797 0.06669 0.89259 0.0
C1495 C 0.24178 0.11435 0.931 0.0
C1496 C 0.11986 0.03494 0.82575 0.0
C1497 C 0.12644 0.04662 0.84156 0.0
C1498 C 0.19575 0.08896 0.86552 0.0
C1499 C 0.19616 0.10252 0.91109 0.0
C1500 C 0.18568 0.09055 0.89463 0.0
C1501 C 0.16102 0.04978 0.84725 0.0
C1502 C 0.1686 0.06453 0.86353 0.0
H1503 H 0.16044 0.12318 0.94769 0.0
H1504 H 0.1431 0.10838 0.92013 0.0
H1505 H 0.22519 0.12069 0.88194 0.0
H1506 H 0.20442 0.02092 0.81382 0.0
H1507 H 0.21563 0.04096 0.84125 0.0
C1508 C 0.14282 0.99383 0.68124 0.0
C1509 C 0.13608 0.96817 0.69307 0.0
C1510 C 0.15289 0.9841 0.66559 0.0
C1511 C 0.15465 0.91077 0.63636 0.0
H1512 H 0.23433 0.96055 0.61863 0.0
C1513 C 0.22038 0.8697 0.57588 0.0
C1514 C 0.22871 0.89728 0.56525 0.0
C1515 C 0.21036 0.87675 0.59189 0.0
C1516 C 0.21186 0.94658 0.62332 0.0
H1517 H 0.13296 0.91208 0.69741 0.0
H1518 H 0.15039 0.89522 0.67007 0.0
H1519 H 0.21169 0.97666 0.6452 0.0
H1520 H 0.23392 0.95386 0.56333 0.0
H1521 H 0.21621 0.966 0.59097 0.0
H1522 H 0.15457 0.88097 0.61435 0.0
C1523 C 0.14792 0.92285 0.67294 0.0
C1524 C 0.19885 0.95587 0.63854 0.0
C1525 C 0.13803 0.93256 0.68863 0.0
C1526 C 0.22774 0.9319 0.57114 0.0
C1527 C 0.21775 0.9389 0.58707 0.0
C1528 C 0.16758 0.90156 0.62106 0.0
C1529 C 0.15625 0.94851 0.66136 0.0
C1530 C 0.16993 0.93829 0.64518 0.0
C1531 C 0.20856 0.9115 0.59761 0.0
C1532 C 0.19616 0.91958 0.6143 0.0
H1533 H 0.14149 0.02148 0.6842 0.0
H1534 H 0.15856 0.00448 0.65683 0.0
H1535 H 0.13222 0.89687 0.64113 0.0
H1536 H 0.22087 0.84274 0.57175 0.0
H1537 H 0.20387 0.855 0.59977 0.0
C1538 C 0.32104 0.97777 0.32185 0.0
C1539 C 0.35535 0.97775 0.31562 0.0
C1540 C 0.31455 0.96774 0.33781 0.0
C1541 C 0.35206 0.91543 0.37113 0.0
H1542 H 0.27862 0.96083 0.39607 0.0
C1543 C 0.32134 0.88384 0.43857 0.0
C1544 C 0.28577 0.88268 0.44303 0.0
C1545 C 0.33115 0.8941 0.42295 0.0
C1546 C 0.29896 0.94765 0.38919 0.0
H1547 H 0.40992 0.96817 0.32155 0.0
H1548 H 0.39857 0.95107 0.34965 0.0
H1549 H 0.29461 0.98417 0.36963 0.0
H1550 H 0.23259 0.88984 0.43427 0.0
H1551 H 0.24976 0.90757 0.40704 0.0
H1552 H 0.3564 0.87901 0.39085 0.0
C1553 C 0.37666 0.95839 0.342 0.0
C1554 C 0.30819 0.96106 0.37404 0.0
C1555 C 0.38319 0.96848 0.32595 0.0
C1556 C 0.26021 0.89053 0.43129 0.0
C1557 C 0.27004 0.90098 0.41572 0.0
C1558 C 0.34293 0.90211 0.38636 0.0
C1559 C 0.34218 0.95752 0.34804 0.0
C1560 C 0.33452 0.94486 0.36472 0.0
C1561 C 0.30561 0.90362 0.41149 0.0
C1562 C 0.31595 0.91783 0.39544 0.0
H1563 H 0.29889 0.98473 0.31427 0.0
H1564 H 0.28764 0.96694 0.34195 0.0
H1565 H 0.37215 0.90205 0.36419 0.0
H1566 H 0.34174 0.8779 0.44729 0.0
H1567 H 0.35876 0.89596 0.42006 0.0
C1568 C 0.0371 0.62349 0.23339 0.0
C1569 C 0.04676 0.60686 0.24795 0.0
C1570 C 0.02443 0.658 0.23346 0.0
C1571 C 0.02591 0.73811 0.25905 0.0
H1572 H 0.9575 0.77217 0.22803 0.0
C1573 C 0.96061 0.87556 0.26244 0.0
C1574 C 0.9554 0.89374 0.24779 0.0
C1575 C 0.97378 0.84126 0.26244 0.0
C1576 C 0.97694 0.76312 0.23665 0.0
H1577 H 0.04844 0.61278 0.27409 0.0
H1578 H 0.02524 0.67237 0.27425 0.0
H1579 H 0.973 0.71006 0.2284 0.0
H1580 H 0.96151 0.89049 0.22168 0.0
H1581 H 0.98447 0.83063 0.22171 0.0
H1582 H 0.02925 0.7912 0.26746 0.0
C1583 C 0.02855 0.65923 0.26271 0.0
C1584 C 0.98583 0.72747 0.23688 0.0
C1585 C 0.04152 0.62486 0.26263 0.0
C1586 C 0.96521 0.87734 0.23319 0.0
C1587 C 0.97805 0.8429 0.23318 0.0
C1588 C 0.01677 0.77369 0.25891 0.0
C1589 C 0.02078 0.67663 0.2481 0.0
C1590 C 0.01047 0.71446 0.24808 0.0
C1591 C 0.98176 0.82422 0.24778 0.0
C1592 C 0.99224 0.78661 0.24768 0.0
H1593 H 0.04099 0.61054 0.22184 0.0
H1594 H 0.019 0.67052 0.22195 0.0
H1595 H 0.04555 0.72931 0.26762 0.0
H1596 H 0.95335 0.88735 0.27391 0.0
H1597 H 0.97624 0.82753 0.27388 0.0
C1598 C 0.12693 0.29117 0.51233 0.0
C1599 C 0.14508 0.29618 0.49769 0.0
C1600 C 0.0925 0.27878 0.51232 0.0
C1601 C 0.0243 0.23713 0.48637 0.0
H1602 H 0.96072 0.28162 0.51684 0.0
C1603 C 0.8746 0.21778 0.48277 0.0
C1604 C 0.85832 0.20822 0.49741 0.0
C1605 C 0.90896 0.23043 0.4827 0.0
C1606 C 0.97818 0.26885 0.50832 0.0
H1607 H 0.14163 0.29057 0.47157 0.0
H1608 H 0.08154 0.26955 0.47153 0.0
H1609 H 0.0226 0.29711 0.51704 0.0
H1610 H 0.8648 0.20646 0.52353 0.0
H1611 H 0.92448 0.22901 0.52338 0.0
H1612 H 0.97957 0.20928 0.47752 0.0
C1613 C 0.09398 0.27474 0.48307 0.0
C1614 C 0.01375 0.27752 0.50848 0.0
C1615 C 0.12854 0.28685 0.48308 0.0
C1616 C 0.87652 0.21353 0.51203 0.0
C1617 C 0.91073 0.22651 0.51196 0.0
C1618 C 0.98866 0.22869 0.48611 0.0
C1619 C 0.0752 0.27135 0.49766 0.0
C1620 C 0.03735 0.26166 0.49756 0.0
C1621 C 0.92766 0.2342 0.49726 0.0
C1622 C 0.96523 0.24437 0.49712 0.0
H1623 H 0.13893 0.29785 0.52381 0.0
H1624 H 0.07923 0.27564 0.52383 0.0
H1625 H 0.04168 0.22401 0.47792 0.0
H1626 H 0.86143 0.21399 0.47127 0.0
H1627 H 0.92116 0.23663 0.4712 0.0
C1628 C 0.46095 0.37668 0.76235 0.0
C1629 C 0.45587 0.39487 0.74771 0.0
C1630 C 0.47382 0.34227 0.76236 0.0
C1631 C 0.51656 0.27418 0.73646 0.0
H1632 H 0.47244 0.21029 0.76675 0.0
C1633 C 0.53721 0.12429 0.73267 0.0
C1634 C 0.54666 0.10783 0.7473 0.0
C1635 C 0.52437 0.15873 0.73263 0.0
C1636 C 0.48512 0.22785 0.75828 0.0
H1637 H 0.46186 0.39151 0.7216 0.0
H1638 H 0.48371 0.33147 0.72158 0.0
H1639 H 0.45634 0.27223 0.76699 0.0
H1640 H 0.54804 0.11409 0.77344 0.0
H1641 H 0.52515 0.1739 0.77335 0.0
H1642 H 0.54493 0.22949 0.72762 0.0
C1643 C 0.47821 0.34387 0.73312 0.0
C1644 C 0.47609 0.26344 0.75847 0.0
C1645 C 0.46562 0.37841 0.73312 0.0
C1646 C 0.54107 0.12594 0.76195 0.0
C1647 C 0.52789 0.16023 0.76191 0.0
C1648 C 0.52536 0.23851 0.73619 0.0
C1649 C 0.48166 0.32503 0.74771 0.0
C1650 C 0.4918 0.28716 0.74761 0.0
C1651 C 0.52029 0.17734 0.74722 0.0
C1652 C 0.50982 0.21496 0.74713 0.0
H1653 H 0.45395 0.38862 0.77383 0.0
H1654 H 0.47699 0.32897 0.77386 0.0
H1655 H 0.52957 0.29165 0.72807 0.0
H1656 H 0.54122 0.11121 0.72116 0.0
H1657 H 0.51824 0.17106 0.72114 0.0
C1658 C 0.62646 0.78679 0.98323 0.0
C1659 C 0.64304 0.79625 0.99781 0.0
C1660 C 0.59197 0.77447 0.98327 0.0
C1661 C 0.51188 0.77666 0.00883 0.0
H1662 H 0.47789 0.70841 0.97783 0.0
C1663 C 0.37476 0.71222 0.01236 0.0
C1664 C 0.35655 0.70703 0.99773 0.0
C1665 C 0.40898 0.72521 0.01231 0.0
C1666 C 0.48692 0.72782 0.98644 0.0
H1667 H 0.63704 0.79794 0.02394 0.0
H1668 H 0.57749 0.77534 0.02405 0.0
H1669 H 0.53991 0.72348 0.97817 0.0
H1670 H 0.35968 0.71299 0.97161 0.0
H1671 H 0.41939 0.73565 0.97157 0.0
H1672 H 0.45887 0.78041 0.01727 0.0
C1673 C 0.59065 0.77855 0.01252 0.0
C1674 C 0.52251 0.73646 0.98666 0.0
C1675 C 0.625 0.79117 0.01248 0.0
C1676 C 0.37284 0.71669 0.98311 0.0
C1677 C 0.4072 0.72935 0.98306 0.0
C1678 C 0.47636 0.76778 0.00871 0.0
C1679 C 0.5733 0.77098 0.9979 0.0
C1680 C 0.53551 0.76101 0.99786 0.0
C1681 C 0.42591 0.73303 0.99763 0.0
C1682 C 0.46346 0.74331 0.99749 0.0
H1683 H 0.63945 0.79058 0.9717 0.0
H1684 H 0.57949 0.76918 0.97175 0.0
H1685 H 0.52067 0.79625 0.0174 0.0
H1686 H 0.36305 0.70507 0.02385 0.0
H1687 H 0.42273 0.72765 0.02374 0.0
C1688 C 0.03669 0.12416 0.76477 0.0
C1689 C 0.04663 0.10795 0.75014 0.0
C1690 C 0.02389 0.15861 0.76485 0.0
C1691 C 0.98564 0.22827 0.73922 0.0
H1692 H 0.02931 0.29139 0.76998 0.0
C1693 C 0.96191 0.37722 0.73562 0.0
C1694 C 0.95642 0.39514 0.75031 0.0
C1695 C 0.97471 0.3428 0.73555 0.0
C1696 C 0.01652 0.27412 0.76143 0.0
H1697 H 0.04892 0.11467 0.72404 0.0
H1698 H 0.02609 0.17451 0.7242 0.0
H1699 H 0.04452 0.22919 0.77026 0.0
H1700 H 0.96161 0.39127 0.77643 0.0
H1701 H 0.98335 0.33118 0.77634 0.0
H1702 H 0.95722 0.27289 0.73051 0.0
C1703 C 0.02843 0.16063 0.73561 0.0
C1704 C 0.02523 0.23843 0.76161 0.0
C1705 C 0.04156 0.12632 0.73553 0.0
C1706 C 0.96571 0.37838 0.76488 0.0
C1707 C 0.97823 0.34381 0.76482 0.0
C1708 C 0.97669 0.26389 0.73912 0.0
C1709 C 0.02035 0.17748 0.7503 0.0
C1710 C 0.00997 0.21513 0.75048 0.0
C1711 C 0.98207 0.32525 0.75017 0.0
C1712 C 0.99212 0.28736 0.75018 0.0
H1713 H 0.04029 0.11086 0.77625 0.0
H1714 H 0.01738 0.17074 0.77634 0.0
H1715 H 0.97319 0.21091 0.73059 0.0
H1716 H 0.95528 0.3894 0.72415 0.0
H1717 H 0.9782 0.32971 0.72401 0.0
C1718 C 0.87531 0.71687 0.51493 0.0
C1719 C 0.85906 0.70719 0.5003 0.0
C1720 C 0.90974 0.72935 0.515 0.0
C1721 C 0.97927 0.76705 0.48932 0.0
H1722 H 0.0424 0.72281 0.52005 0.0
C1723 C 0.12802 0.7894 0.48556 0.0
C1724 C 0.14595 0.79485 0.50023 0.0
C1725 C 0.09365 0.77686 0.48554 0.0
C1726 C 0.02512 0.73576 0.51151 0.0
H1727 H 0.8657 0.705 0.47419 0.0
H1728 H 0.92549 0.72723 0.47434 0.0
H1729 H 0.98026 0.70817 0.52039 0.0
H1730 H 0.14217 0.78982 0.52637 0.0
H1731 H 0.08218 0.76854 0.52634 0.0
H1732 H 0.02382 0.79505 0.48055 0.0
C1733 C 0.91167 0.72497 0.48576 0.0
C1734 C 0.98947 0.72737 0.51172 0.0
C1735 C 0.87738 0.71217 0.48568 0.0
C1736 C 0.12927 0.78577 0.51483 0.0
C1737 C 0.09476 0.77351 0.51481 0.0
C1738 C 0.01485 0.77566 0.48918 0.0
C1739 C 0.92856 0.7328 0.50044 0.0
C1740 C 0.96616 0.74285 0.5006 0.0
C1741 C 0.07617 0.76973 0.50018 0.0
C1742 C 0.03833 0.76002 0.50022 0.0
H1743 H 0.86206 0.71333 0.52642 0.0
H1744 H 0.9219 0.73567 0.52649 0.0
H1745 H 0.96191 0.77968 0.4807 0.0
H1746 H 0.14014 0.79587 0.47408 0.0
H1747 H 0.08054 0.77341 0.47401 0.0
C1748 C 0.54078 0.62471 0.23578 0.0
C1749 C 0.54634 0.60666 0.25043 0.0
C1750 C 0.52749 0.65896 0.23578 0.0
C1751 C 0.52471 0.7373 0.26143 0.0
H1752 H 0.45541 0.7707 0.23069 0.0
C1753 C 0.46468 0.87701 0.26455 0.0
C1754 C 0.45479 0.89346 0.24998 0.0
C1755 C 0.47728 0.84248 0.26454 0.0
C1756 C 0.47524 0.76201 0.23919 0.0
H1757 H 0.54077 0.6101 0.27657 0.0
H1758 H 0.51762 0.66989 0.27653 0.0
H1759 H 0.47177 0.70883 0.23092 0.0
H1760 H 0.45259 0.88716 0.22387 0.0
H1761 H 0.47566 0.82753 0.2238 0.0
H1762 H 0.52878 0.79046 0.26952 0.0
C1763 C 0.52384 0.65754 0.26505 0.0
C1764 C 0.48441 0.72644 0.23938 0.0
C1765 C 0.53678 0.62314 0.26505 0.0
C1766 C 0.45969 0.87523 0.23533 0.0
C1767 C 0.47259 0.84084 0.23531 0.0
C1768 C 0.51578 0.77294 0.26115 0.0
C1769 C 0.51977 0.67609 0.25045 0.0
C1770 C 0.5092 0.71368 0.25052 0.0
C1771 C 0.48062 0.82363 0.24994 0.0
C1772 C 0.4909 0.7858 0.25003 0.0
H1773 H 0.54784 0.61284 0.2243 0.0
H1774 H 0.52475 0.67259 0.22433 0.0
H1775 H 0.54435 0.72836 0.26998 0.0
H1776 H 0.46105 0.89014 0.27608 0.0
H1777 H 0.48291 0.83011 0.27606 0.0
C1778 C 0.37299 0.21702 0.01475 0.0
C1779 C 0.35659 0.20751 0.00013 0.0
C1780 C 0.40735 0.22968 0.01477 0.0
C1781 C 0.47636 0.26833 0.98911 0.0
H1782 H 0.54007 0.22338 0.01937 0.0
C1783 C 0.62509 0.29131 0.98515 0.0
C1784 C 0.64326 0.29608 -0.00019 0.0
C1785 C 0.59068 0.27884 0.98512 0.0
C1786 C 0.52263 0.23654 0.01097 0.0
H1787 H 0.36287 0.20586 0.974 0.0
H1788 H 0.42254 0.22847 0.97406 0.0
H1789 H 0.47801 0.20849 0.01979 0.0
H1790 H 0.63983 0.28999 0.02591 0.0
H1791 H 0.5798 0.26884 0.02588 0.0
H1792 H 0.52068 0.29681 0.98042 0.0
C1793 C 0.40888 0.22589 0.9855 0.0
C1794 C 0.48702 0.228 0.01122 0.0
C1795 C 0.37467 0.21289 0.98548 0.0
C1796 C 0.62674 0.28646 0.01437 0.0
C1797 C 0.59221 0.27427 0.01435 0.0
C1798 C 0.51191 0.27711 0.98894 0.0
C1799 C 0.42594 0.23353 0.00017 0.0
C1800 C 0.4635 0.24372 0.00027 0.0
C1801 C 0.57341 0.27108 -0.00025 0.0
C1802 C 0.5356 0.26123 -0.00018 0.0
H1803 H 0.35993 0.21317 0.02626 0.0
H1804 H 0.41963 0.23584 0.02625 0.0
H1805 H 0.45883 0.28113 0.98063 0.0
H1806 H 0.63706 0.29823 0.97369 0.0
H1807 H 0.57742 0.27587 0.9736 0.0
loop_
_geom_bond_atom_site_label_1
_geom_bond_atom_site_label_2
_geom_bond_distance
_geom_bond_site_symmetry_2
_ccdc_geom_bond_type
O0 Zn1 1.953 . S
O0 C16 1.225 . S
Zn1 O0 1.953 . S
Zn1 O2 1.949 . S
Zn1 O8 1.919 . S
Zn1 O13 1.924 . S
O2 Zn1 1.949 . S
O2 Zn3 1.923 . S
O2 Zn4 1.950 . S
O2 Zn5 1.945 . S
Zn3 O2 1.923 . S
Zn3 O6 1.933 . S
Zn3 O9 1.941 . S
Zn3 O10 1.965 . S
Zn4 O2 1.950 . S
Zn4 O11 1.938 . S
Zn4 O12 1.906 . S
Zn4 O22 1.953 . S
Zn5 O2 1.945 . S
Zn5 O7 1.932 . S
Zn5 O14 1.977 . S
Zn5 O15 1.910 . S
O6 Zn3 1.933 . S
O6 C17 1.226 . S
O7 Zn5 1.932 . S
O7 C17 1.307 . S
O8 Zn1 1.919 . S
O8 C19 1.253 . S
O9 Zn3 1.941 . S
O9 C19 1.283 . S
O10 Zn3 1.965 . S
O10 C18 1.303 . S
O11 Zn4 1.938 . S
O11 C18 1.247 . S
O12 Zn4 1.906 . S
O12 C20 1.304 . S
O13 Zn1 1.924 . S
O13 C21 1.311 . S
O14 Zn5 1.977 . S
O14 C20 1.272 . S
O15 Zn5 1.910 . S
O15 C21 1.231 . S
C16 O0 1.225 . S
C16 O22 1.298 . S
C17 O6 1.226 . S
C17 O7 1.307 . S
C18 O10 1.303 . S
C18 O11 1.247 . S
C19 O8 1.253 . S
C19 O9 1.283 . S
C20 O12 1.304 . S
C20 O14 1.272 . S
C21 O13 1.311 . S
C21 O15 1.231 . S
O22 Zn4 1.953 . S
O22 C16 1.298 . S
O23 Zn24 1.953 . S
O23 C39 1.225 . S
Zn24 O23 1.953 . S
Zn24 O25 1.949 . S
Zn24 O31 1.919 . S
Zn24 O36 1.924 . S
O25 Zn24 1.949 . S
O25 Zn26 1.923 . S
O25 Zn27 1.950 . S
O25 Zn28 1.945 . S
Zn26 O25 1.923 . S
Zn26 O29 1.933 . S
Zn26 O32 1.941 . S
Zn26 O33 1.965 . S
Zn27 O25 1.950 . S
Zn27 O34 1.938 . S
Zn27 O35 1.906 . S
Zn27 O45 1.953 . S
Zn28 O25 1.945 . S
Zn28 O30 1.932 . S
Zn28 O37 1.977 . S
Zn28 O38 1.910 . S
O29 Zn26 1.933 . S
O29 C40 1.226 . S
O30 Zn28 1.932 . S
O30 C40 1.307 . S
O31 Zn24 1.919 . S
O31 C42 1.253 . S
O32 Zn26 1.941 . S
O32 C42 1.283 . S
O33 Zn26 1.965 . S
O33 C41 1.303 . S
O34 Zn27 1.938 . S
O34 C41 1.247 . S
O35 Zn27 1.906 . S
O35 C43 1.304 . S
O36 Zn24 1.924 . S
O36 C44 1.311 . S
O37 Zn28 1.977 . S
O37 C43 1.272 . S
O38 Zn28 1.910 . S
O38 C44 1.231 . S
C39 O23 1.225 . S
C39 O45 1.298 . S
C40 O29 1.226 . S
C40 O30 1.307 . S
C41 O33 1.303 . S
C41 O34 1.247 . S
C42 O31 1.253 . S
C42 O32 1.283 . S
C43 O35 1.304 . S
C43 O37 1.272 . S
C44 O36 1.311 . S
C44 O38 1.231 . S
O45 Zn27 1.953 . S
O45 C39 1.298 . S
O46 Zn47 1.953 . S
O46 C62 1.225 . S
Zn47 O46 1.953 . S
Zn47 O48 1.949 . S
Zn47 O54 1.919 . S
Zn47 O59 1.924 . S
O48 Zn47 1.949 . S
O48 Zn49 1.923 . S
O48 Zn50 1.950 . S
O48 Zn51 1.945 . S
Zn49 O48 1.923 . S
Zn49 O52 1.933 . S
Zn49 O55 1.941 . S
Zn49 O56 1.965 . S
Zn50 O48 1.950 . S
Zn50 O57 1.938 . S
Zn50 O58 1.906 . S
Zn50 O68 1.953 . S
Zn51 O48 1.945 . S
Zn51 O53 1.932 . S
Zn51 O60 1.977 . S
Zn51 O61 1.910 . S
O52 Zn49 1.933 . S
O52 C63 1.226 . S
O53 Zn51 1.932 . S
O53 C63 1.307 . S
O54 Zn47 1.919 . S
O54 C65 1.253 . S
O55 Zn49 1.941 . S
O55 C65 1.283 . S
O56 Zn49 1.965 . S
O56 C64 1.303 . S
O57 Zn50 1.938 . S
O57 C64 1.247 . S
O58 Zn50 1.906 . S
O58 C66 1.304 . S
O59 Zn47 1.924 . S
O59 C67 1.311 . S
O60 Zn51 1.977 . S
O60 C66 1.272 . S
O61 Zn51 1.910 . S
O61 C67 1.231 . S
C62 O46 1.225 . S
C62 O68 1.298 . S
C63 O52 1.226 . S
C63 O53 1.307 . S
C64 O56 1.303 . S
C64 O57 1.247 . S
C65 O54 1.253 . S
C65 O55 1.283 . S
C66 O58 1.304 . S
C66 O60 1.272 . S
C67 O59 1.311 . S
C67 O61 1.231 . S
O68 Zn50 1.953 . S
O68 C62 1.298 . S
O69 Zn70 1.953 . S
O69 C85 1.225 . S
Zn70 O69 1.953 . S
Zn70 O71 1.940 1_554 S
Zn70 O77 1.919 . S
Zn70 O82 1.924 . S
O71 Zn70 1.940 1_556 S
O71 Zn72 1.919 1_556 S
O71 Zn73 1.958 . S
O71 Zn74 1.949 . S
Zn72 O71 1.919 1_554 S
Zn72 O75 1.933 . S
Zn72 O78 1.941 . S
Zn72 O79 1.965 . S
Zn73 O71 1.958 . S
Zn73 O80 1.938 . S
Zn73 O81 1.906 . S
Zn73 O91 1.953 . S
Zn74 O71 1.949 . S
Zn74 O76 1.932 . S
Zn74 O83 1.977 . S
Zn74 O84 1.910 . S
O75 Zn72 1.933 . S
O75 C86 1.226 1_554 S
O76 Zn74 1.932 . S
O76 C86 1.307 . S
O77 Zn70 1.919 . S
O77 C88 1.253 . S
O78 Zn72 1.941 . S
O78 C88 1.283 . S
O79 Zn72 1.965 . S
O79 C87 1.303 1_554 S
O80 Zn73 1.938 . S
O80 C87 1.247 . S
O81 Zn73 1.906 . S
O81 C89 1.304 . S
O82 Zn70 1.924 . S
O82 C90 1.311 . S
O83 Zn74 1.977 . S
O83 C89 1.272 . S
O84 Zn74 1.910 . S
O84 C90 1.231 1_556 S
C85 O69 1.225 . S
C85 O91 1.298 1_554 S
C86 O75 1.226 1_556 S
C86 O76 1.307 . S
C87 O79 1.303 1_556 S
C87 O80 1.247 . S
C88 O77 1.253 . S
C88 O78 1.283 . S
C89 O81 1.304 . S
C89 O83 1.272 . S
C90 O82 1.311 . S
C90 O84 1.231 1_554 S
O91 Zn73 1.953 . S
O91 C85 1.298 1_556 S
O92 Zn93 1.953 . S
O92 C108 1.225 . S
Zn93 O92 1.953 . S
Zn93 O94 1.949 . S
Zn93 O100 1.919 . S
Zn93 O105 1.924 . S
O94 Zn93 1.949 . S
O94 Zn95 1.923 . S
O94 Zn96 1.950 . S
O94 Zn97 1.945 . S
Zn95 O94 1.923 . S
Zn95 O98 1.933 . S
Zn95 O101 1.941 . S
Zn95 O102 1.965 . S
Zn96 O94 1.950 . S
Zn96 O103 1.938 . S
Zn96 O104 1.906 . S
Zn96 O114 1.953 . S
Zn97 O94 1.945 . S
Zn97 O99 1.932 . S
Zn97 O106 1.977 . S
Zn97 O107 1.910 . S
O98 Zn95 1.933 . S
O98 C109 1.226 . S
O99 Zn97 1.932 . S
O99 C109 1.307 . S
O100 Zn93 1.919 . S
O100 C111 1.253 . S
O101 Zn95 1.941 . S
O101 C111 1.283 . S
O102 Zn95 1.965 . S
O102 C110 1.303 . S
O103 Zn96 1.938 . S
O103 C110 1.247 . S
O104 Zn96 1.906 . S
O104 C112 1.304 . S
O105 Zn93 1.924 . S
O105 C113 1.311 . S
O106 Zn97 1.977 . S
O106 C112 1.272 . S
O107 Zn97 1.910 . S
O107 C113 1.231 . S
C108 O92 1.225 . S
C108 O114 1.298 . S
C109 O98 1.226 . S
C109 O99 1.307 . S
C110 O102 1.303 . S
C110 O103 1.247 . S
C111 O100 1.253 . S
C111 O101 1.283 . S
C112 O104 1.304 . S
C112 O106 1.272 . S
C113 O105 1.311 . S
C113 O107 1.231 . S
O114 Zn96 1.953 . S
O114 C108 1.298 . S
O115 Zn116 1.953 . S
O115 C131 1.225 . S
Zn116 O115 1.953 . S
Zn116 O117 1.949 . S
Zn116 O123 1.919 . S
Zn116 O128 1.924 . S
O117 Zn116 1.949 . S
O117 Zn118 1.923 . S
O117 Zn119 1.950 . S
O117 Zn120 1.945 . S
Zn118 O117 1.923 . S
Zn118 O121 1.933 . S
Zn118 O124 1.941 . S
Zn118 O125 1.965 . S
Zn119 O117 1.950 . S
Zn119 O126 1.938 . S
Zn119 O127 1.906 . S
Zn119 O137 1.953 . S
Zn120 O117 1.945 . S
Zn120 O122 1.932 . S
Zn120 O129 1.977 . S
Zn120 O130 1.910 . S
O121 Zn118 1.933 . S
O121 C132 1.226 . S
O122 Zn120 1.932 . S
O122 C132 1.307 . S
O123 Zn116 1.919 . S
O123 C134 1.253 . S
O124 Zn118 1.941 . S
O124 C134 1.283 . S
O125 Zn118 1.965 . S
O125 C133 1.303 . S
O126 Zn119 1.938 . S
O126 C133 1.247 . S
O127 Zn119 1.906 . S
O127 C135 1.304 . S
O128 Zn116 1.924 . S
O128 C136 1.311 . S
O129 Zn120 1.977 . S
O129 C135 1.272 . S
O130 Zn120 1.910 . S
O130 C136 1.231 . S
C131 O115 1.225 . S
C131 O137 1.298 . S
C132 O121 1.226 . S
C132 O122 1.307 . S
C133 O125 1.303 . S
C133 O126 1.247 . S
C134 O123 1.253 . S
C134 O124 1.283 . S
C135 O127 1.304 . S
C135 O129 1.272 . S
C136 O128 1.311 . S
C136 O130 1.231 . S
O137 Zn119 1.953 . S
O137 C131 1.298 . S
O138 Zn139 1.953 . S
O138 C154 1.225 . S
Zn139 O138 1.953 . S
Zn139 O140 1.949 . S
Zn139 O146 1.919 . S
Zn139 O151 1.924 . S
O140 Zn139 1.949 . S
O140 Zn141 1.923 . S
O140 Zn142 1.950 . S
O140 Zn143 1.945 . S
Zn141 O140 1.923 . S
Zn141 O144 1.933 . S
Zn141 O147 1.941 . S
Zn141 O148 1.965 . S
Zn142 O140 1.950 . S
Zn142 O149 1.938 . S
Zn142 O150 1.906 . S
Zn142 O160 1.953 . S
Zn143 O140 1.945 . S
Zn143 O145 1.932 . S
Zn143 O152 1.977 . S
Zn143 O153 1.910 . S
O144 Zn141 1.933 . S
O144 C155 1.226 . S
O145 Zn143 1.932 . S
O145 C155 1.307 . S
O146 Zn139 1.919 . S
O146 C157 1.253 . S
O147 Zn141 1.941 . S
O147 C157 1.283 . S
O148 Zn141 1.965 . S
O148 C156 1.303 . S
O149 Zn142 1.938 . S
O149 C156 1.247 . S
O150 Zn142 1.906 . S
O150 C158 1.304 . S
O151 Zn139 1.924 . S
O151 C159 1.311 . S
O152 Zn143 1.977 . S
O152 C158 1.272 . S
O153 Zn143 1.910 . S
O153 C159 1.231 . S
C154 O138 1.225 . S
C154 O160 1.298 . S
C155 O144 1.226 . S
C155 O145 1.307 . S
C156 O148 1.303 . S
C156 O149 1.247 . S
C157 O146 1.253 . S
C157 O147 1.283 . S
C158 O150 1.304 . S
C158 O152 1.272 . S
C159 O151 1.311 . S
C159 O153 1.231 . S
O160 Zn142 1.953 . S
O160 C154 1.298 . S
O161 Zn162 1.953 . S
O161 C177 1.225 . S
Zn162 O161 1.953 . S
Zn162 O163 1.940 1_556 S
Zn162 O169 1.919 . S
Zn162 O174 1.924 . S
O163 Zn162 1.940 1_554 S
O163 Zn164 1.919 1_554 S
O163 Zn165 1.958 . S
O163 Zn166 1.949 . S
Zn164 O163 1.919 1_556 S
Zn164 O167 1.933 . S
Zn164 O170 1.941 . S
Zn164 O171 1.965 . S
Zn165 O163 1.958 . S
Zn165 O172 1.938 . S
Zn165 O173 1.906 . S
Zn165 O183 1.953 . S
Zn166 O163 1.949 . S
Zn166 O168 1.932 . S
Zn166 O175 1.977 . S
Zn166 O176 1.910 . S
O167 Zn164 1.933 . S
O167 C178 1.226 1_556 S
O168 Zn166 1.932 . S
O168 C178 1.307 . S
O169 Zn162 1.919 . S
O169 C180 1.253 . S
O170 Zn164 1.941 . S
O170 C180 1.283 . S
O171 Zn164 1.965 . S
O171 C179 1.303 1_556 S
O172 Zn165 1.938 . S
O172 C179 1.247 . S
O173 Zn165 1.906 . S
O173 C181 1.304 . S
O174 Zn162 1.924 . S
O174 C182 1.311 . S
O175 Zn166 1.977 . S
O175 C181 1.272 . S
O176 Zn166 1.910 . S
O176 C182 1.231 1_554 S
C177 O161 1.225 . S
C177 O183 1.298 1_556 S
C178 O167 1.226 1_554 S
C178 O168 1.307 . S
C179 O171 1.303 1_554 S
C179 O172 1.247 . S
C180 O169 1.253 . S
C180 O170 1.283 . S
C181 O173 1.304 . S
C181 O175 1.272 . S
C182 O174 1.311 . S
C182 O176 1.231 1_556 S
O183 Zn165 1.953 . S
O183 C177 1.298 1_554 S
O184 Zn185 1.953 . S
O184 C200 1.225 . S
Zn185 O184 1.953 . S
Zn185 O186 1.949 . S
Zn185 O192 1.919 . S
Zn185 O197 1.924 . S
O186 Zn185 1.949 . S
O186 Zn187 1.923 1_545 S
O186 Zn188 1.950 . S
O186 Zn189 1.945 . S
Zn187 O186 1.923 1_565 S
Zn187 O190 1.933 . S
Zn187 O193 1.941 . S
Zn187 O194 1.965 . S
Zn188 O186 1.950 . S
Zn188 O195 1.938 1_545 S
Zn188 O196 1.906 . S
Zn188 O206 1.953 . S
Zn189 O186 1.945 . S
Zn189 O191 1.922 1_545 S
Zn189 O198 1.977 . S
Zn189 O199 1.910 . S
O190 Zn187 1.933 . S
O190 C201 1.226 . S
O191 Zn189 1.922 1_565 S
O191 C201 1.318 . S
O192 Zn185 1.919 . S
O192 C203 1.253 . S
O193 Zn187 1.941 . S
O193 C203 1.283 1_565 S
O194 Zn187 1.965 . S
O194 C202 1.303 . S
O195 Zn188 1.938 1_565 S
O195 C202 1.247 . S
O196 Zn188 1.906 . S
O196 C204 1.304 . S
O197 Zn185 1.924 . S
O197 C205 1.311 . S
O198 Zn189 1.977 . S
O198 C204 1.272 . S
O199 Zn189 1.910 . S
O199 C205 1.231 . S
C200 O184 1.225 . S
C200 O206 1.298 . S
C201 O190 1.226 . S
C201 O191 1.318 . S
C202 O194 1.303 . S
C202 O195 1.247 . S
C203 O192 1.253 . S
C203 O193 1.283 1_545 S
C204 O196 1.304 . S
C204 O198 1.272 . S
C205 O197 1.311 . S
C205 O199 1.231 . S
O206 Zn188 1.953 . S
O206 C200 1.298 . S
O207 Zn208 1.953 . S
O207 C223 1.225 . S
Zn208 O207 1.953 . S
Zn208 O209 1.940 1_554 S
Zn208 O215 1.919 . S
Zn208 O220 1.924 . S
O209 Zn208 1.940 1_556 S
O209 Zn210 1.919 1_556 S
O209 Zn211 1.958 . S
O209 Zn212 1.949 . S
Zn210 O209 1.919 1_554 S
Zn210 O213 1.933 . S
Zn210 O216 1.941 . S
Zn210 O217 1.965 . S
Zn211 O209 1.958 . S
Zn211 O218 1.938 . S
Zn211 O219 1.906 . S
Zn211 O229 1.953 . S
Zn212 O209 1.949 . S
Zn212 O214 1.932 . S
Zn212 O221 1.977 . S
Zn212 O222 1.910 . S
O213 Zn210 1.933 . S
O213 C224 1.226 1_554 S
O214 Zn212 1.932 . S
O214 C224 1.307 . S
O215 Zn208 1.919 . S
O215 C226 1.253 . S
O216 Zn210 1.941 . S
O216 C226 1.283 . S
O217 Zn210 1.965 . S
O217 C225 1.303 1_554 S
O218 Zn211 1.938 . S
O218 C225 1.247 . S
O219 Zn211 1.906 . S
O219 C227 1.304 . S
O220 Zn208 1.924 . S
O220 C228 1.311 . S
O221 Zn212 1.977 . S
O221 C227 1.272 . S
O222 Zn212 1.910 . S
O222 C228 1.231 1_556 S
C223 O207 1.225 . S
C223 O229 1.298 1_554 S
C224 O213 1.226 1_556 S
C224 O214 1.307 . S
C225 O217 1.303 1_556 S
C225 O218 1.247 . S
C226 O215 1.253 . S
C226 O216 1.283 . S
C227 O219 1.304 . S
C227 O221 1.272 . S
C228 O220 1.311 . S
C228 O222 1.231 1_554 S
O229 Zn211 1.953 . S
O229 C223 1.298 1_556 S
O230 Zn231 1.953 . S
O230 C246 1.225 . S
Zn231 O230 1.953 . S
Zn231 O232 1.949 . S
Zn231 O238 1.919 . S
Zn231 O243 1.924 . S
O232 Zn231 1.949 . S
O232 Zn233 1.923 1_565 S
O232 Zn234 1.950 . S
O232 Zn235 1.945 . S
Zn233 O232 1.923 1_545 S
Zn233 O236 1.933 . S
Zn233 O239 1.941 . S
Zn233 O240 1.965 . S
Zn234 O232 1.950 . S
Zn234 O241 1.938 1_565 S
Zn234 O242 1.906 . S
Zn234 O252 1.953 . S
Zn235 O232 1.945 . S
Zn235 O237 1.928 1_565 S
Zn235 O244 1.977 . S
Zn235 O245 1.910 . S
O236 Zn233 1.933 . S
O236 C247 1.226 . S
O237 Zn235 1.928 1_545 S
O237 C247 1.312 . S
O238 Zn231 1.919 . S
O238 C249 1.253 . S
O239 Zn233 1.941 . S
O239 C249 1.283 1_545 S
O240 Zn233 1.965 . S
O240 C248 1.303 . S
O241 Zn234 1.938 1_545 S
O241 C248 1.247 . S
O242 Zn234 1.906 . S
O242 C250 1.304 . S
O243 Zn231 1.924 . S
O243 C251 1.311 . S
O244 Zn235 1.977 . S
O244 C250 1.272 . S
O245 Zn235 1.910 . S
O245 C251 1.231 . S
C246 O230 1.225 . S
C246 O252 1.298 . S
C247 O236 1.226 . S
C247 O237 1.312 . S
C248 O240 1.303 . S
C248 O241 1.247 . S
C249 O238 1.253 . S
C249 O239 1.283 1_565 S
C250 O242 1.304 . S
C250 O244 1.272 . S
C251 O243 1.311 . S
C251 O245 1.231 . S
O252 Zn234 1.953 . S
O252 C246 1.298 . S
O253 Zn254 1.953 . S
O253 C269 1.225 . S
Zn254 O253 1.953 . S
Zn254 O255 1.949 . S
Zn254 O261 1.919 . S
Zn254 O266 1.924 . S
O255 Zn254 1.949 . S
O255 Zn256 1.923 . S
O255 Zn257 1.950 . S
O255 Zn258 1.945 . S
Zn256 O255 1.923 . S
Zn256 O259 1.933 . S
Zn256 O262 1.941 . S
Zn256 O263 1.965 . S
Zn257 O255 1.950 . S
Zn257 O264 1.938 . S
Zn257 O265 1.906 . S
Zn257 O275 1.953 . S
Zn258 O255 1.945 . S
Zn258 O260 1.932 . S
Zn258 O267 1.977 . S
Zn258 O268 1.910 . S
O259 Zn256 1.933 . S
O259 C270 1.226 . S
O260 Zn258 1.932 . S
O260 C270 1.307 . S
O261 Zn254 1.919 . S
O261 C272 1.253 . S
O262 Zn256 1.941 . S
O262 C272 1.283 . S
O263 Zn256 1.965 . S
O263 C271 1.303 . S
O264 Zn257 1.938 . S
O264 C271 1.247 . S
O265 Zn257 1.906 . S
O265 C273 1.304 . S
O266 Zn254 1.924 . S
O266 C274 1.311 . S
O267 Zn258 1.977 . S
O267 C273 1.272 . S
O268 Zn258 1.910 . S
O268 C274 1.231 . S
C269 O253 1.225 . S
C269 O275 1.298 . S
C270 O259 1.226 . S
C270 O260 1.307 . S
C271 O263 1.303 . S
C271 O264 1.247 . S
C272 O261 1.253 . S
C272 O262 1.283 . S
C273 O265 1.304 . S
C273 O267 1.272 . S
C274 O266 1.311 . S
C274 O268 1.231 . S
O275 Zn257 1.953 . S
O275 C269 1.298 . S
O276 Zn277 1.953 . S
O276 C292 1.225 . S
Zn277 O276 1.953 . S
Zn277 O278 1.949 . S
Zn277 O284 1.919 . S
Zn277 O289 1.924 . S
O278 Zn277 1.949 . S
O278 Zn279 1.923 1_565 S
O278 Zn280 1.950 . S
O278 Zn281 1.945 . S
Zn279 O278 1.923 1_545 S
Zn279 O282 1.933 . S
Zn279 O285 1.941 . S
Zn279 O286 1.965 . S
Zn280 O278 1.950 . S
Zn280 O287 1.938 1_565 S
Zn280 O288 1.906 . S
Zn280 O298 1.953 . S
Zn281 O278 1.945 . S
Zn281 O283 1.922 1_565 S
Zn281 O290 1.977 . S
Zn281 O291 1.910 . S
O282 Zn279 1.933 . S
O282 C293 1.226 . S
O283 Zn281 1.922 1_545 S
O283 C293 1.318 . S
O284 Zn277 1.919 . S
O284 C295 1.253 . S
O285 Zn279 1.941 . S
O285 C295 1.283 1_545 S
O286 Zn279 1.965 . S
O286 C294 1.303 . S
O287 Zn280 1.938 1_545 S
O287 C294 1.247 . S
O288 Zn280 1.906 . S
O288 C296 1.304 . S
O289 Zn277 1.924 . S
O289 C297 1.311 . S
O290 Zn281 1.977 . S
O290 C296 1.272 . S
O291 Zn281 1.910 . S
O291 C297 1.231 . S
C292 O276 1.225 . S
C292 O298 1.298 . S
C293 O282 1.226 . S
C293 O283 1.318 . S
C294 O286 1.303 . S
C294 O287 1.247 . S
C295 O284 1.253 . S
C295 O285 1.283 1_565 S
C296 O288 1.304 . S
C296 O290 1.272 . S
C297 O289 1.311 . S
C297 O291 1.231 . S
O298 Zn280 1.953 . S
O298 C292 1.298 . S
O299 Zn300 1.953 . S
O299 C315 1.225 . S
Zn300 O299 1.953 . S
Zn300 O301 1.940 1_556 S
Zn300 O307 1.919 . S
Zn300 O312 1.924 . S
O301 Zn300 1.940 1_554 S
O301 Zn302 1.919 1_554 S
O301 Zn303 1.958 . S
O301 Zn304 1.949 . S
Zn302 O301 1.919 1_556 S
Zn302 O305 1.933 . S
Zn302 O308 1.941 . S
Zn302 O309 1.965 . S
Zn303 O301 1.958 . S
Zn303 O310 1.938 . S
Zn303 O311 1.906 . S
Zn303 O321 1.953 . S
Zn304 O301 1.949 . S
Zn304 O306 1.932 . S
Zn304 O313 1.977 . S
Zn304 O314 1.910 . S
O305 Zn302 1.933 . S
O305 C316 1.226 1_556 S
O306 Zn304 1.932 . S
O306 C316 1.307 . S
O307 Zn300 1.919 . S
O307 C318 1.253 . S
O308 Zn302 1.941 . S
O308 C318 1.283 . S
O309 Zn302 1.965 . S
O309 C317 1.303 1_556 S
O310 Zn303 1.938 . S
O310 C317 1.247 . S
O311 Zn303 1.906 . S
O311 C319 1.304 . S
O312 Zn300 1.924 . S
O312 C320 1.311 . S
O313 Zn304 1.977 . S
O313 C319 1.272 . S
O314 Zn304 1.910 . S
O314 C320 1.231 1_554 S
C315 O299 1.225 . S
C315 O321 1.298 1_556 S
C316 O305 1.226 1_554 S
C316 O306 1.307 . S
C317 O309 1.303 1_554 S
C317 O310 1.247 . S
C318 O307 1.253 . S
C318 O308 1.283 . S
C319 O311 1.304 . S
C319 O313 1.272 . S
C320 O312 1.311 . S
C320 O314 1.231 1_556 S
O321 Zn303 1.953 . S
O321 C315 1.298 1_554 S
O322 Zn323 1.953 . S
O322 C338 1.225 . S
Zn323 O322 1.953 . S
Zn323 O324 1.949 . S
Zn323 O330 1.919 . S
Zn323 O335 1.924 . S
O324 Zn323 1.949 . S
O324 Zn325 1.923 1_545 S
O324 Zn326 1.950 . S
O324 Zn327 1.945 . S
Zn325 O324 1.923 1_565 S
Zn325 O328 1.933 . S
Zn325 O331 1.941 . S
Zn325 O332 1.965 . S
Zn326 O324 1.950 . S
Zn326 O333 1.938 1_545 S
Zn326 O334 1.906 . S
Zn326 O344 1.953 . S
Zn327 O324 1.945 . S
Zn327 O329 1.928 1_545 S
Zn327 O336 1.977 . S
Zn327 O337 1.910 . S
O328 Zn325 1.933 . S
O328 C339 1.226 . S
O329 Zn327 1.928 1_565 S
O329 C339 1.312 . S
O330 Zn323 1.919 . S
O330 C341 1.253 . S
O331 Zn325 1.941 . S
O331 C341 1.283 1_565 S
O332 Zn325 1.965 . S
O332 C340 1.303 . S
O333 Zn326 1.938 1_565 S
O333 C340 1.247 . S
O334 Zn326 1.906 . S
O334 C342 1.304 . S
O335 Zn323 1.924 . S
O335 C343 1.311 . S
O336 Zn327 1.977 . S
O336 C342 1.272 . S
O337 Zn327 1.910 . S
O337 C343 1.231 . S
C338 O322 1.225 . S
C338 O344 1.298 . S
C339 O328 1.226 . S
C339 O329 1.312 . S
C340 O332 1.303 . S
C340 O333 1.247 . S
C341 O330 1.253 . S
C341 O331 1.283 1_545 S
C342 O334 1.304 . S
C342 O336 1.272 . S
C343 O335 1.311 . S
C343 O337 1.231 . S
O344 Zn326 1.953 . S
O344 C338 1.298 . S
O345 Zn346 1.953 . S
O345 C361 1.225 . S
Zn346 O345 1.953 . S
Zn346 O347 1.949 . S
Zn346 O353 1.919 . S
Zn346 O358 1.924 . S
O347 Zn346 1.949 . S
O347 Zn348 1.923 . S
O347 Zn349 1.950 . S
O347 Zn350 1.945 . S
Zn348 O347 1.923 . S
Zn348 O351 1.933 . S
Zn348 O354 1.941 . S
Zn348 O355 1.965 . S
Zn349 O347 1.950 . S
Zn349 O356 1.938 . S
Zn349 O357 1.906 . S
Zn349 O367 1.953 . S
Zn350 O347 1.945 . S
Zn350 O352 1.932 . S
Zn350 O359 1.977 . S
Zn350 O360 1.910 . S
O351 Zn348 1.933 . S
O351 C362 1.226 . S
O352 Zn350 1.932 . S
O352 C362 1.307 . S
O353 Zn346 1.919 . S
O353 C364 1.253 . S
O354 Zn348 1.941 . S
O354 C364 1.283 . S
O355 Zn348 1.965 . S
O355 C363 1.303 . S
O356 Zn349 1.938 . S
O356 C363 1.247 . S
O357 Zn349 1.906 . S
O357 C365 1.304 . S
O358 Zn346 1.924 . S
O358 C366 1.311 . S
O359 Zn350 1.977 . S
O359 C365 1.272 . S
O360 Zn350 1.910 . S
O360 C366 1.231 . S
C361 O345 1.225 . S
C361 O367 1.298 . S
C362 O351 1.226 . S
C362 O352 1.307 . S
C363 O355 1.303 . S
C363 O356 1.247 . S
C364 O353 1.253 . S
C364 O354 1.283 . S
C365 O357 1.304 . S
C365 O359 1.272 . S
C366 O358 1.311 . S
C366 O360 1.231 . S
O367 Zn349 1.953 . S
O367 C361 1.298 . S
C368 C369 1.349 . S
C368 C370 1.327 . S
C368 H393 0.950 . S
C369 C368 1.349 . S
C369 C385 1.349 . S
C370 C368 1.327 . S
C370 C389 1.429 . S
C370 H394 0.950 . S
C371 C388 1.574 . S
C371 C390 1.368 . S
C371 H395 0.949 . S
H372 C376 0.949 . S
C373 C374 1.349 . S
C373 C375 1.327 . S
C373 H396 0.950 . S
C374 C373 1.349 . S
C374 C386 1.349 . S
C375 C373 1.327 . S
C375 C391 1.429 . S
C375 H397 0.950 . S
C376 H372 0.949 . S
C376 C384 1.574 . S
C376 C392 1.368 . S
H377 C385 0.950 . S
H378 C383 0.950 . S
H379 C384 0.949 . S
H380 C386 0.950 . S
H381 C387 0.950 . S
H382 C388 0.949 . S
C383 H378 0.950 . S
C383 C385 1.327 . S
C383 C389 1.429 . S
C384 C376 1.574 . S
C384 H379 0.949 . S
C384 C390 1.368 . S
C385 C369 1.349 . S
C385 H377 0.950 . S
C385 C383 1.327 . S
C386 C374 1.349 . S
C386 H380 0.950 . S
C386 C387 1.327 . S
C387 H381 0.950 . S
C387 C386 1.327 . S
C387 C391 1.429 . S
C388 C371 1.574 . S
C388 H382 0.949 . S
C388 C392 1.368 . S
C389 C370 1.429 . S
C389 C383 1.429 . S
C389 C390 1.523 . S
C390 C371 1.368 . S
C390 C384 1.368 . S
C390 C389 1.523 . S
C391 C375 1.429 . S
C391 C387 1.429 . S
C391 C392 1.523 . S
C392 C376 1.368 . S
C392 C388 1.368 . S
C392 C391 1.523 . S
H393 C368 0.950 . S
H394 C370 0.950 . S
H395 C371 0.949 . S
H396 C373 0.950 . S
H397 C375 0.950 . S
C398 C399 1.349 . S
C398 C400 1.327 . S
C398 H423 0.950 . S
C399 C398 1.349 . S
C399 C415 1.349 . S
C400 C398 1.327 . S
C400 C419 1.429 . S
C400 H424 0.950 . S
C401 C418 1.574 . S
C401 C420 1.368 . S
C401 H425 0.949 . S
H402 C406 0.949 . S
C403 C404 1.349 . S
C403 C405 1.327 . S
C403 H426 0.950 . S
C404 C403 1.349 . S
C404 C416 1.349 . S
C405 C403 1.327 . S
C405 C421 1.429 . S
C405 H427 0.950 . S
C406 H402 0.949 . S
C406 C414 1.574 . S
C406 C422 1.368 . S
H407 C415 0.950 . S
H408 C413 0.950 . S
H409 C414 0.949 . S
H410 C416 0.950 . S
H411 C417 0.950 . S
H412 C418 0.949 . S
C413 H408 0.950 . S
C413 C415 1.327 . S
C413 C419 1.429 . S
C414 C406 1.574 . S
C414 H409 0.949 . S
C414 C420 1.368 . S
C415 C399 1.349 . S
C415 H407 0.950 . S
C415 C413 1.327 . S
C416 C404 1.349 . S
C416 H410 0.950 . S
C416 C417 1.327 . S
C417 H411 0.950 . S
C417 C416 1.327 . S
C417 C421 1.429 . S
C418 C401 1.574 . S
C418 H412 0.949 . S
C418 C422 1.368 . S
C419 C400 1.429 . S
C419 C413 1.429 . S
C419 C420 1.523 . S
C420 C401 1.368 . S
C420 C414 1.368 . S
C420 C419 1.523 . S
C421 C405 1.429 . S
C421 C417 1.429 . S
C421 C422 1.523 . S
C422 C406 1.368 . S
C422 C418 1.368 . S
C422 C421 1.523 . S
H423 C398 0.950 . S
H424 C400 0.950 . S
H425 C401 0.949 . S
H426 C403 0.950 . S
H427 C405 0.950 . S
C428 C429 1.349 . S
C428 C430 1.327 . S
C428 H453 0.950 . S
C429 C428 1.349 . S
C429 C445 1.349 . S
C430 C428 1.327 . S
C430 C449 1.429 . S
C430 H454 0.950 . S
C431 C448 1.574 . S
C431 C450 1.368 . S
C431 H455 0.949 . S
H432 C436 0.949 . S
C433 C434 1.349 . S
C433 C435 1.327 . S
C433 H456 0.950 . S
C434 C433 1.349 . S
C434 C446 1.349 . S
C435 C433 1.327 . S
C435 C451 1.429 1_655 S
C435 H457 0.952 . S
C436 H432 0.949 . S
C436 C444 1.574 . S
C436 C452 1.368 . S
H437 C445 0.950 . S
H438 C443 0.950 . S
H439 C444 0.949 . S
H440 C446 0.950 . S
H441 C447 0.950 1_455 S
H442 C448 0.949 . S
C443 H438 0.950 . S
C443 C445 1.327 . S
C443 C449 1.429 . S
C444 C436 1.574 . S
C444 H439 0.949 . S
C444 C450 1.368 . S
C445 C429 1.349 . S
C445 H437 0.950 . S
C445 C443 1.327 . S
C446 C434 1.349 . S
C446 H440 0.950 . S
C446 C447 1.327 . S
C447 H441 0.950 1_655 S
C447 C446 1.327 . S
C447 C451 1.429 1_655 S
C448 C431 1.574 . S
C448 H442 0.949 . S
C448 C452 1.368 . S
C449 C430 1.429 . S
C449 C443 1.429 . S
C449 C450 1.523 . S
C450 C431 1.368 . S
C450 C444 1.368 . S
C450 C449 1.523 . S
C451 C435 1.429 1_455 S
C451 C447 1.429 1_455 S
C451 C452 1.523 . S
C452 C436 1.368 . S
C452 C448 1.368 . S
C452 C451 1.523 . S
H453 C428 0.950 . S
H454 C430 0.950 . S
H455 C431 0.949 . S
H456 C433 0.950 . S
H457 C435 0.952 . S
C458 C459 1.349 1_556 S
C458 C460 1.327 . S
C458 H483 0.950 . S
C459 C458 1.349 1_554 S
C459 C475 1.349 . S
C460 C458 1.327 . S
C460 C479 1.429 1_556 S
C460 H484 0.950 . S
C461 C478 1.574 . S
C461 C480 1.431 . S
C461 H485 0.949 . S
H462 C466 0.949 . S
C463 C464 1.349 1_554 S
C463 C465 1.327 . S
C463 H486 0.950 . S
C464 C463 1.349 1_556 S
C464 C476 1.349 . S
C465 C463 1.327 . S
C465 C481 1.416 1_554 S
C465 H487 0.950 . S
C466 H462 0.949 . S
C466 C474 1.574 . S
C466 C482 1.363 1_556 S
H467 C475 0.950 . S
H468 C473 0.950 . S
H469 C474 0.949 . S
H470 C476 0.950 . S
H471 C477 0.950 . S
H472 C478 0.949 . S
C473 H468 0.950 . S
C473 C475 1.327 . S
C473 C479 1.429 . S
C474 C466 1.574 . S
C474 H469 0.949 . S
C474 C480 1.305 1_556 S
C475 C459 1.349 . S
C475 H467 0.950 . S
C475 C473 1.327 . S
C476 C464 1.349 . S
C476 H470 0.950 . S
C476 C477 1.327 . S
C477 H471 0.950 . S
C477 C476 1.327 . S
C477 C481 1.441 . S
C478 C461 1.574 . S
C478 H472 0.949 . S
C478 C482 1.374 . S
C479 C460 1.429 1_554 S
C479 C473 1.429 . S
C479 C480 1.527 . S
C480 C461 1.431 . S
C480 C474 1.305 1_554 S
C480 C479 1.527 . S
C481 C465 1.416 1_556 S
C481 C477 1.441 . S
C481 C482 1.522 1_556 S
C482 C466 1.363 1_554 S
C482 C478 1.374 . S
C482 C481 1.522 1_554 S
H483 C458 0.950 . S
H484 C460 0.950 . S
H485 C461 0.949 . S
H486 C463 0.950 . S
H487 C465 0.950 . S
C488 C489 1.349 . S
C488 C490 1.327 . S
C488 H513 0.950 . S
C489 C488 1.349 . S
C489 C505 1.349 . S
C490 C488 1.327 . S
C490 C509 1.429 . S
C490 H514 0.950 . S
C491 C508 1.574 . S
C491 C510 1.368 . S
C491 H515 0.949 . S
H492 C496 0.949 . S
C493 C494 1.349 . S
C493 C495 1.327 . S
C493 H516 0.950 . S
C494 C493 1.349 . S
C494 C506 1.349 . S
C495 C493 1.327 . S
C495 C511 1.429 . S
C495 H517 0.950 . S
C496 H492 0.949 . S
C496 C504 1.574 . S
C496 C512 1.368 . S
H497 C505 0.950 . S
H498 C503 0.950 . S
H499 C504 0.949 . S
H500 C506 0.950 . S
H501 C507 0.950 . S
H502 C508 0.949 . S
C503 H498 0.950 . S
C503 C505 1.327 . S
C503 C509 1.429 . S
C504 C496 1.574 . S
C504 H499 0.949 . S
C504 C510 1.368 . S
C505 C489 1.349 . S
C505 H497 0.950 . S
C505 C503 1.327 . S
C506 C494 1.349 . S
C506 H500 0.950 . S
C506 C507 1.327 . S
C507 H501 0.950 . S
C507 C506 1.327 . S
C507 C511 1.429 . S
C508 C491 1.574 . S
C508 H502 0.949 . S
C508 C512 1.368 . S
C509 C490 1.429 . S
C509 C503 1.429 . S
C509 C510 1.523 . S
C510 C491 1.368 . S
C510 C504 1.368 . S
C510 C509 1.523 . S
C511 C495 1.429 . S
C511 C507 1.429 . S
C511 C512 1.523 . S
C512 C496 1.368 . S
C512 C508 1.368 . S
C512 C511 1.523 . S
H513 C488 0.950 . S
H514 C490 0.950 . S
H515 C491 0.949 . S
H516 C493 0.950 . S
H517 C495 0.950 . S
C518 C519 1.349 . S
C518 C520 1.327 . S
C518 H543 0.950 . S
C519 C518 1.349 . S
C519 C535 1.349 . S
C520 C518 1.327 . S
C520 C539 1.429 . S
C520 H544 0.950 . S
C521 C538 1.574 . S
C521 C540 1.368 . S
C521 H545 0.949 . S
H522 C526 0.949 . S
C523 C524 1.349 . S
C523 C525 1.327 . S
C523 H546 0.950 . S
C524 C523 1.349 . S
C524 C536 1.349 . S
C525 C523 1.327 . S
C525 C541 1.429 . S
C525 H547 0.950 . S
C526 H522 0.949 . S
C526 C534 1.574 . S
C526 C542 1.368 . S
H527 C535 0.950 . S
H528 C533 0.950 . S
H529 C534 0.949 . S
H530 C536 0.950 . S
H531 C537 0.950 . S
H532 C538 0.949 . S
C533 H528 0.950 . S
C533 C535 1.327 . S
C533 C539 1.429 . S
C534 C526 1.574 . S
C534 H529 0.949 . S
C534 C540 1.368 . S
C535 C519 1.349 . S
C535 H527 0.950 . S
C535 C533 1.327 . S
C536 C524 1.349 . S
C536 H530 0.950 . S
C536 C537 1.327 . S
C537 H531 0.950 . S
C537 C536 1.327 . S
C537 C541 1.429 . S
C538 C521 1.574 . S
C538 H532 0.949 . S
C538 C542 1.368 . S
C539 C520 1.429 . S
C539 C533 1.429 . S
C539 C540 1.523 . S
C540 C521 1.368 . S
C540 C534 1.368 . S
C540 C539 1.523 . S
C541 C525 1.429 . S
C541 C537 1.429 . S
C541 C542 1.523 . S
C542 C526 1.368 . S
C542 C538 1.368 . S
C542 C541 1.523 . S
H543 C518 0.950 . S
H544 C520 0.950 . S
H545 C521 0.949 . S
H546 C523 0.950 . S
H547 C525 0.950 . S
C548 C549 1.349 . S
C548 C550 1.327 . S
C548 H573 0.950 . S
C549 C548 1.349 . S
C549 C565 1.349 . S
C550 C548 1.327 . S
C550 C569 1.429 . S
C550 H574 0.950 . S
C551 C568 1.574 . S
C551 C570 1.368 . S
C551 H575 0.949 . S
H552 C556 0.949 . S
C553 C554 1.349 . S
C553 C555 1.327 . S
C553 H576 0.950 . S
C554 C553 1.349 . S
C554 C566 1.349 . S
C555 C553 1.327 . S
C555 C571 1.429 1_455 S
C555 H577 0.951 . S
C556 H552 0.949 . S
C556 C564 1.574 . S
C556 C572 1.368 . S
H557 C565 0.950 . S
H558 C563 0.950 . S
H559 C564 0.949 . S
H560 C566 0.950 . S
H561 C567 0.950 1_655 S
H562 C568 0.949 . S
C563 H558 0.950 . S
C563 C565 1.327 . S
C563 C569 1.429 . S
C564 C556 1.574 . S
C564 H559 0.949 . S
C564 C570 1.368 . S
C565 C549 1.349 . S
C565 H557 0.950 . S
C565 C563 1.327 . S
C566 C554 1.349 . S
C566 H560 0.950 . S
C566 C567 1.327 . S
C567 H561 0.950 1_455 S
C567 C566 1.327 . S
C567 C571 1.429 1_455 S
C568 C551 1.574 . S
C568 H562 0.949 . S
C568 C572 1.368 . S
C569 C550 1.429 . S
C569 C563 1.429 . S
C569 C570 1.523 . S
C570 C551 1.368 . S
C570 C564 1.368 . S
C570 C569 1.523 . S
C571 C555 1.429 1_655 S
C571 C567 1.429 1_655 S
C571 C572 1.523 . S
C572 C556 1.368 . S
C572 C568 1.368 . S
C572 C571 1.523 . S
H573 C548 0.950 . S
H574 C550 0.950 . S
H575 C551 0.949 . S
H576 C553 0.950 . S
H577 C555 0.951 . S
C578 C579 1.300 1_556 S
C578 C580 1.327 . S
C578 H603 0.950 . S
C579 C578 1.300 1_554 S
C579 C595 1.398 . S
C580 C578 1.327 . S
C580 C599 1.429 1_556 S
C580 H604 0.950 . S
C581 C598 1.574 . S
C581 C600 1.352 1_554 S
C581 H605 0.949 . S
H582 C586 0.949 . S
C583 C584 1.349 1_554 S
C583 C585 1.327 . S
C583 H606 0.950 . S
C584 C583 1.349 1_556 S
C584 C596 1.349 . S
C585 C583 1.327 . S
C585 C601 1.429 1_554 S
C585 H607 0.950 . S
C586 H582 0.949 . S
C586 C594 1.574 . S
C586 C602 1.368 . S
H587 C595 0.950 . S
H588 C593 0.950 . S
H589 C594 0.949 . S
H590 C596 0.950 . S
H591 C597 0.950 . S
H592 C598 0.949 . S
C593 H588 0.950 . S
C593 C595 1.327 . S
C593 C599 1.428 . S
C594 C586 1.574 . S
C594 H589 0.949 . S
C594 C600 1.386 . S
C595 C579 1.398 . S
C595 H587 0.950 . S
C595 C593 1.327 . S
C596 C584 1.349 . S
C596 H590 0.950 . S
C596 C597 1.327 . S
C597 H591 0.950 . S
C597 C596 1.327 . S
C597 C601 1.429 . S
C598 C581 1.574 . S
C598 H592 0.949 . S
C598 C602 1.368 1_554 S
C599 C580 1.429 1_554 S
C599 C593 1.428 . S
C599 C600 1.522 1_554 S
C600 C581 1.352 1_556 S
C600 C594 1.386 . S
C600 C599 1.522 1_556 S
C601 C585 1.429 1_556 S
C601 C597 1.429 . S
C601 C602 1.523 . S
C602 C586 1.368 . S
C602 C598 1.368 1_556 S
C602 C601 1.523 . S
H603 C578 0.950 . S
H604 C580 0.950 . S
H605 C581 0.949 . S
H606 C583 0.950 . S
H607 C585 0.950 . S
C608 C609 1.349 . S
C608 C610 1.327 . S
C608 H633 0.950 . S
C609 C608 1.349 . S
C609 C625 1.349 . S
C610 C608 1.327 . S
C610 C629 1.429 . S
C610 H634 0.950 . S
C611 C628 1.574 . S
C611 C630 1.368 . S
C611 H635 0.949 . S
H612 C616 0.949 . S
C613 C614 1.349 . S
C613 C615 1.327 . S
C613 H636 0.950 . S
C614 C613 1.349 . S
C614 C626 1.349 . S
C615 C613 1.327 . S
C615 C631 1.429 1_455 S
C615 H637 0.950 1_455 S
C616 H612 0.949 . S
C616 C624 1.574 . S
C616 C632 1.368 . S
H617 C625 0.950 . S
H618 C623 0.950 . S
H619 C624 0.949 . S
H620 C626 0.950 . S
H621 C627 0.950 . S
H622 C628 0.949 . S
C623 H618 0.950 . S
C623 C625 1.327 . S
C623 C629 1.429 . S
C624 C616 1.574 . S
C624 H619 0.949 . S
C624 C630 1.368 . S
C625 C609 1.349 . S
C625 H617 0.950 . S
C625 C623 1.327 . S
C626 C614 1.349 . S
C626 H620 0.950 . S
C626 C627 1.327 . S
C627 H621 0.950 . S
C627 C626 1.327 . S
C627 C631 1.429 1_455 S
C628 C611 1.574 . S
C628 H622 0.949 . S
C628 C632 1.368 . S
C629 C610 1.429 . S
C629 C623 1.429 . S
C629 C630 1.523 . S
C630 C611 1.368 . S
C630 C624 1.368 . S
C630 C629 1.523 . S
C631 C615 1.429 1_655 S
C631 C627 1.429 1_655 S
C631 C632 1.523 . S
C632 C616 1.368 . S
C632 C628 1.368 . S
C632 C631 1.523 . S
H633 C608 0.950 . S
H634 C610 0.950 . S
H635 C611 0.949 . S
H636 C613 0.950 . S
H637 C615 0.950 1_655 S
C638 C639 1.299 1_554 S
C638 C640 1.327 . S
C638 H663 0.950 . S
C639 C638 1.299 1_556 S
C639 C655 1.399 . S
C640 C638 1.327 . S
C640 C659 1.429 1_554 S
C640 H664 0.950 . S
C641 C658 1.574 . S
C641 C660 1.351 1_556 S
C641 H665 0.949 . S
H642 C646 0.949 . S
C643 C644 1.349 1_556 S
C643 C645 1.327 . S
C643 H666 0.950 . S
C644 C643 1.349 1_554 S
C644 C656 1.349 . S
C645 C643 1.327 . S
C645 C661 1.429 1_556 S
C645 H667 0.950 . S
C646 H642 0.949 . S
C646 C654 1.574 . S
C646 C662 1.368 . S
H647 C655 0.950 . S
H648 C653 0.950 . S
H649 C654 0.949 . S
H650 C656 0.950 . S
H651 C657 0.950 . S
H652 C658 0.949 . S
C653 H648 0.950 . S
C653 C655 1.327 . S
C653 C659 1.428 . S
C654 C646 1.574 . S
C654 H649 0.949 . S
C654 C660 1.386 . S
C655 C639 1.399 . S
C655 H647 0.950 . S
C655 C653 1.327 . S
C656 C644 1.349 . S
C656 H650 0.950 . S
C656 C657 1.327 . S
C657 H651 0.950 . S
C657 C656 1.327 . S
C657 C661 1.429 . S
C658 C641 1.574 . S
C658 H652 0.949 . S
C658 C662 1.368 1_556 S
C659 C640 1.429 1_556 S
C659 C653 1.428 . S
C659 C660 1.522 1_556 S
C660 C641 1.351 1_554 S
C660 C654 1.386 . S
C660 C659 1.522 1_554 S
C661 C645 1.429 1_554 S
C661 C657 1.429 . S
C661 C662 1.523 . S
C662 C646 1.368 . S
C662 C658 1.368 1_554 S
C662 C661 1.523 . S
H663 C638 0.950 . S
H664 C640 0.950 . S
H665 C641 0.949 . S
H666 C643 0.950 . S
H667 C645 0.950 . S
C668 C669 1.349 . S
C668 C670 1.327 . S
C668 H693 0.950 1_545 S
C669 C668 1.349 . S
C669 C685 1.349 . S
C670 C668 1.327 . S
C670 C689 1.429 . S
C670 H694 0.950 1_545 S
C671 C688 1.574 . S
C671 C690 1.368 . S
C671 H695 0.949 . S
H672 C676 0.949 1_565 S
C673 C674 1.349 . S
C673 C675 1.327 . S
C673 H696 0.950 . S
C674 C673 1.349 . S
C674 C686 1.349 . S
C675 C673 1.327 . S
C675 C691 1.429 . S
C675 H697 0.950 . S
C676 H672 0.949 1_545 S
C676 C684 1.574 . S
C676 C692 1.368 . S
H677 C685 0.950 . S
H678 C683 0.950 . S
H679 C684 0.949 1_565 S
H680 C686 0.950 1_565 S
H681 C687 0.950 1_565 S
H682 C688 0.949 . S
C683 H678 0.950 . S
C683 C685 1.327 . S
C683 C689 1.429 . S
C684 C676 1.574 . S
C684 H679 0.949 1_545 S
C684 C690 1.368 . S
C685 C669 1.349 . S
C685 H677 0.950 . S
C685 C683 1.327 . S
C686 C674 1.349 . S
C686 H680 0.950 1_545 S
C686 C687 1.327 . S
C687 H681 0.950 1_545 S
C687 C686 1.327 . S
C687 C691 1.429 . S
C688 C671 1.574 . S
C688 H682 0.949 . S
C688 C692 1.368 . S
C689 C670 1.429 . S
C689 C683 1.429 . S
C689 C690 1.523 . S
C690 C671 1.368 . S
C690 C684 1.368 . S
C690 C689 1.523 . S
C691 C675 1.429 . S
C691 C687 1.429 . S
C691 C692 1.523 . S
C692 C676 1.368 . S
C692 C688 1.368 . S
C692 C691 1.523 . S
H693 C668 0.950 1_565 S
H694 C670 0.950 1_565 S
H695 C671 0.949 . S
H696 C673 0.950 . S
H697 C675 0.950 . S
C698 C699 1.349 . S
C698 C700 1.327 . S
C698 H723 0.950 . S
C699 C698 1.349 . S
C699 C715 1.349 . S
C700 C698 1.327 . S
C700 C719 1.429 . S
C700 H724 0.950 . S
C701 C718 1.574 . S
C701 C720 1.368 . S
C701 H725 0.949 . S
H702 C706 0.949 . S
C703 C704 1.349 . S
C703 C705 1.327 . S
C703 H726 0.950 . S
C704 C703 1.349 . S
C704 C716 1.349 . S
C705 C703 1.327 . S
C705 C721 1.429 . S
C705 H727 0.950 . S
C706 H702 0.949 . S
C706 C714 1.574 . S
C706 C722 1.368 . S
H707 C715 0.950 . S
H708 C713 0.950 . S
H709 C714 0.949 . S
H710 C716 0.950 . S
H711 C717 0.950 . S
H712 C718 0.949 . S
C713 H708 0.950 . S
C713 C715 1.327 . S
C713 C719 1.429 . S
C714 C706 1.574 . S
C714 H709 0.949 . S
C714 C720 1.368 . S
C715 C699 1.349 . S
C715 H707 0.950 . S
C715 C713 1.327 . S
C716 C704 1.349 . S
C716 H710 0.950 . S
C716 C717 1.327 . S
C717 H711 0.950 . S
C717 C716 1.327 . S
C717 C721 1.429 . S
C718 C701 1.574 . S
C718 H712 0.949 . S
C718 C722 1.368 . S
C719 C700 1.429 . S
C719 C713 1.429 . S
C719 C720 1.523 . S
C720 C701 1.368 . S
C720 C714 1.368 . S
C720 C719 1.523 . S
C721 C705 1.429 . S
C721 C717 1.429 . S
C721 C722 1.523 . S
C722 C706 1.368 . S
C722 C718 1.368 . S
C722 C721 1.523 . S
H723 C698 0.950 . S
H724 C700 0.950 . S
H725 C701 0.949 . S
H726 C703 0.950 . S
H727 C705 0.950 . S
C728 C729 1.349 . S
C728 C730 1.327 . S
C728 H753 0.950 1_545 S
C729 C728 1.349 . S
C729 C745 1.349 . S
C730 C728 1.327 . S
C730 C749 1.429 1_655 S
C730 H754 0.950 1_645 S
C731 C748 1.574 . S
C731 C750 1.368 . S
C731 H755 0.949 . S
H732 C736 0.949 1_565 S
C733 C734 1.349 . S
C733 C735 1.327 . S
C733 H756 0.950 . S
C734 C733 1.349 . S
C734 C746 1.349 . S
C735 C733 1.327 . S
C735 C751 1.429 . S
C735 H757 0.950 . S
C736 H732 0.949 1_545 S
C736 C744 1.574 . S
C736 C752 1.368 . S
H737 C745 0.950 . S
H738 C743 0.950 . S
H739 C744 0.949 1_565 S
H740 C746 0.950 . S
H741 C747 0.927 1_565 S
H742 C748 0.949 . S
C743 H738 0.950 . S
C743 C745 1.327 . S
C743 C749 1.429 1_655 S
C744 C736 1.574 . S
C744 H739 0.949 1_545 S
C744 C750 1.368 . S
C745 C729 1.349 . S
C745 H737 0.950 . S
C745 C743 1.327 . S
C746 C734 1.349 . S
C746 H740 0.950 . S
C746 C747 1.327 . S
C747 H741 0.927 1_545 S
C747 C746 1.327 . S
C747 C751 1.429 . S
C748 C731 1.574 . S
C748 H742 0.949 . S
C748 C752 1.368 . S
C749 C730 1.429 1_455 S
C749 C743 1.429 1_455 S
C749 C750 1.523 . S
C750 C731 1.368 . S
C750 C744 1.368 . S
C750 C749 1.523 . S
C751 C735 1.429 . S
C751 C747 1.429 . S
C751 C752 1.523 . S
C752 C736 1.368 . S
C752 C748 1.368 . S
C752 C751 1.523 . S
H753 C728 0.950 1_565 S
H754 C730 0.950 1_465 S
H755 C731 0.949 . S
H756 C733 0.950 . S
H757 C735 0.950 . S
C758 C759 1.299 1_556 S
C758 C760 1.327 . S
C758 H783 0.950 . S
C759 C758 1.299 1_554 S
C759 C775 1.399 . S
C760 C758 1.327 . S
C760 C779 1.429 1_556 S
C760 H784 0.950 . S
C761 C778 1.574 . S
C761 C780 1.351 1_554 S
C761 H785 0.949 . S
H762 C766 0.949 . S
C763 C764 1.349 1_554 S
C763 C765 1.327 . S
C763 H786 0.950 . S
C764 C763 1.349 1_556 S
C764 C776 1.349 . S
C765 C763 1.327 . S
C765 C781 1.429 1_554 S
C765 H787 0.950 . S
C766 H762 0.949 . S
C766 C774 1.574 . S
C766 C782 1.368 . S
H767 C775 0.950 . S
H768 C773 0.950 . S
H769 C774 0.949 . S
H770 C776 0.950 . S
H771 C777 0.950 . S
H772 C778 0.949 . S
C773 H768 0.950 . S
C773 C775 1.327 . S
C773 C779 1.428 . S
C774 C766 1.574 . S
C774 H769 0.949 . S
C774 C780 1.386 . S
C775 C759 1.399 . S
C775 H767 0.950 . S
C775 C773 1.327 . S
C776 C764 1.349 . S
C776 H770 0.950 . S
C776 C777 1.327 . S
C777 H771 0.950 . S
C777 C776 1.327 . S
C777 C781 1.429 . S
C778 C761 1.574 . S
C778 H772 0.949 . S
C778 C782 1.368 1_554 S
C779 C760 1.429 1_554 S
C779 C773 1.428 . S
C779 C780 1.522 1_554 S
C780 C761 1.351 1_556 S
C780 C774 1.386 . S
C780 C779 1.522 1_556 S
C781 C765 1.429 1_556 S
C781 C777 1.429 . S
C781 C782 1.523 . S
C782 C766 1.368 . S
C782 C778 1.368 1_556 S
C782 C781 1.523 . S
H783 C758 0.950 . S
H784 C760 0.950 . S
H785 C761 0.949 . S
H786 C763 0.950 . S
H787 C765 0.950 . S
C788 C789 1.349 . S
C788 C790 1.327 . S
C788 H813 0.950 . S
C789 C788 1.349 . S
C789 C805 1.349 . S
C790 C788 1.327 . S
C790 C809 1.429 . S
C790 H814 0.950 . S
C791 C808 1.574 . S
C791 C810 1.368 . S
C791 H815 0.949 1_565 S
H792 C796 0.949 . S
C793 C794 1.349 . S
C793 C795 1.327 . S
C793 H816 0.950 1_565 S
C794 C793 1.349 . S
C794 C806 1.349 . S
C795 C793 1.327 . S
C795 C811 1.429 . S
C795 H817 0.950 1_565 S
C796 H792 0.949 . S
C796 C804 1.574 . S
C796 C812 1.368 . S
H797 C805 0.950 1_545 S
H798 C803 0.950 1_545 S
H799 C804 0.949 . S
H800 C806 0.950 . S
H801 C807 0.950 . S
H802 C808 0.949 1_545 S
C803 H798 0.950 1_565 S
C803 C805 1.327 . S
C803 C809 1.429 . S
C804 C796 1.574 . S
C804 H799 0.949 . S
C804 C810 1.368 . S
C805 C789 1.349 . S
C805 H797 0.950 1_565 S
C805 C803 1.327 . S
C806 C794 1.349 . S
C806 H800 0.950 . S
C806 C807 1.327 . S
C807 H801 0.950 . S
C807 C806 1.327 . S
C807 C811 1.429 . S
C808 C791 1.574 . S
C808 H802 0.949 1_565 S
C808 C812 1.368 . S
C809 C790 1.429 . S
C809 C803 1.429 . S
C809 C810 1.523 . S
C810 C791 1.368 . S
C810 C804 1.368 . S
C810 C809 1.523 . S
C811 C795 1.429 . S
C811 C807 1.429 . S
C811 C812 1.523 . S
C812 C796 1.368 . S
C812 C808 1.368 . S
C812 C811 1.523 . S
H813 C788 0.950 . S
H814 C790 0.950 . S
H815 C791 0.949 1_545 S
H816 C793 0.950 1_545 S
H817 C795 0.950 1_545 S
C818 C819 1.349 . S
C818 C820 1.327 . S
C818 H843 0.950 . S
C819 C818 1.349 . S
C819 C835 1.349 . S
C820 C818 1.327 . S
C820 C839 1.429 . S
C820 H844 0.950 . S
C821 C838 1.574 . S
C821 C840 1.368 . S
C821 H845 0.949 . S
H822 C826 0.949 . S
C823 C824 1.349 . S
C823 C825 1.327 . S
C823 H846 0.950 . S
C824 C823 1.349 . S
C824 C836 1.349 . S
C825 C823 1.327 . S
C825 C841 1.429 . S
C825 H847 0.950 . S
C826 H822 0.949 . S
C826 C834 1.574 . S
C826 C842 1.368 . S
H827 C835 0.950 . S
H828 C833 0.950 . S
H829 C834 0.949 . S
H830 C836 0.950 . S
H831 C837 0.950 . S
H832 C838 0.949 . S
C833 H828 0.950 . S
C833 C835 1.327 . S
C833 C839 1.429 . S
C834 C826 1.574 . S
C834 H829 0.949 . S
C834 C840 1.368 . S
C835 C819 1.349 . S
C835 H827 0.950 . S
C835 C833 1.327 . S
C836 C824 1.349 . S
C836 H830 0.950 . S
C836 C837 1.327 . S
C837 H831 0.950 . S
C837 C836 1.327 . S
C837 C841 1.429 . S
C838 C821 1.574 . S
C838 H832 0.949 . S
C838 C842 1.368 . S
C839 C820 1.429 . S
C839 C833 1.429 . S
C839 C840 1.523 . S
C840 C821 1.368 . S
C840 C834 1.368 . S
C840 C839 1.523 . S
C841 C825 1.429 . S
C841 C837 1.429 . S
C841 C842 1.523 . S
C842 C826 1.368 . S
C842 C838 1.368 . S
C842 C841 1.523 . S
H843 C818 0.950 . S
H844 C820 0.950 . S
H845 C821 0.949 . S
H846 C823 0.950 . S
H847 C825 0.950 . S
C848 C849 1.349 . S
C848 C850 1.327 . S
C848 H873 0.950 . S
C849 C848 1.349 . S
C849 C865 1.349 . S
C850 C848 1.327 . S
C850 C869 1.429 . S
C850 H874 0.950 . S
C851 C868 1.574 . S
C851 C870 1.368 . S
C851 H875 0.949 . S
H852 C856 0.949 . S
C853 C854 1.349 . S
C853 C855 1.327 . S
C853 H876 0.950 . S
C854 C853 1.349 . S
C854 C866 1.349 . S
C855 C853 1.327 . S
C855 C871 1.429 . S
C855 H877 0.950 . S
C856 H852 0.949 . S
C856 C864 1.574 . S
C856 C872 1.368 . S
H857 C865 0.950 . S
H858 C863 0.950 . S
H859 C864 0.949 . S
H860 C866 0.950 . S
H861 C867 0.950 . S
H862 C868 0.949 . S
C863 H858 0.950 . S
C863 C865 1.327 . S
C863 C869 1.429 . S
C864 C856 1.574 . S
C864 H859 0.949 . S
C864 C870 1.368 . S
C865 C849 1.349 . S
C865 H857 0.950 . S
C865 C863 1.327 . S
C866 C854 1.349 . S
C866 H860 0.950 . S
C866 C867 1.327 . S
C867 H861 0.950 . S
C867 C866 1.327 . S
C867 C871 1.429 . S
C868 C851 1.574 . S
C868 H862 0.949 . S
C868 C872 1.368 . S
C869 C850 1.429 . S
C869 C863 1.429 . S
C869 C870 1.523 . S
C870 C851 1.368 . S
C870 C864 1.368 . S
C870 C869 1.523 . S
C871 C855 1.429 . S
C871 C867 1.429 . S
C871 C872 1.523 . S
C872 C856 1.368 . S
C872 C868 1.368 . S
C872 C871 1.523 . S
H873 C848 0.950 . S
H874 C850 0.950 . S
H875 C851 0.949 . S
H876 C853 0.950 . S
H877 C855 0.950 . S
C878 C879 1.349 . S
C878 C880 1.327 . S
C878 H903 0.950 . S
C879 C878 1.349 . S
C879 C895 1.349 . S
C880 C878 1.327 . S
C880 C899 1.429 . S
C880 H904 0.950 . S
C881 C898 1.574 1_455 S
C881 C900 1.368 . S
C881 H905 0.949 . S
H882 C886 0.949 . S
C883 C884 1.349 . S
C883 C885 1.327 . S
C883 H906 0.950 . S
C884 C883 1.349 . S
C884 C896 1.349 . S
C885 C883 1.327 . S
C885 C901 1.429 . S
C885 H907 0.950 . S
C886 H882 0.949 . S
C886 C894 1.574 1_655 S
C886 C902 1.368 . S
H887 C895 0.950 . S
H888 C893 0.950 . S
H889 C894 0.949 . S
H890 C896 0.950 . S
H891 C897 0.950 . S
H892 C898 0.949 . S
C893 H888 0.950 . S
C893 C895 1.327 . S
C893 C899 1.429 . S
C894 C886 1.574 1_455 S
C894 H889 0.949 . S
C894 C900 1.368 . S
C895 C879 1.349 . S
C895 H887 0.950 . S
C895 C893 1.327 . S
C896 C884 1.349 . S
C896 H890 0.950 . S
C896 C897 1.327 . S
C897 H891 0.950 . S
C897 C896 1.327 . S
C897 C901 1.429 . S
C898 C881 1.574 1_655 S
C898 H892 0.949 . S
C898 C902 1.368 . S
C899 C880 1.429 . S
C899 C893 1.429 . S
C899 C900 1.523 . S
C900 C881 1.368 . S
C900 C894 1.368 . S
C900 C899 1.523 . S
C901 C885 1.429 . S
C901 C897 1.429 . S
C901 C902 1.523 . S
C902 C886 1.368 . S
C902 C898 1.368 . S
C902 C901 1.523 . S
H903 C878 0.950 . S
H904 C880 0.950 . S
H905 C881 0.949 . S
H906 C883 0.950 . S
H907 C885 0.950 . S
C908 C909 1.349 . S
C908 C910 1.327 . S
C908 H933 0.950 . S
C909 C908 1.349 . S
C909 C925 1.349 . S
C910 C908 1.327 . S
C910 C929 1.429 . S
C910 H934 0.950 . S
C911 C928 1.574 . S
C911 C930 1.368 . S
C911 H935 0.949 . S
H912 C916 0.949 . S
C913 C914 1.349 . S
C913 C915 1.327 . S
C913 H936 0.950 . S
C914 C913 1.349 . S
C914 C926 1.349 . S
C915 C913 1.327 . S
C915 C931 1.429 . S
C915 H937 0.950 . S
C916 H912 0.949 . S
C916 C924 1.574 . S
C916 C932 1.368 . S
H917 C925 0.950 . S
H918 C923 0.950 . S
H919 C924 0.949 . S
H920 C926 0.950 . S
H921 C927 0.950 . S
H922 C928 0.949 . S
C923 H918 0.950 . S
C923 C925 1.327 . S
C923 C929 1.429 . S
C924 C916 1.574 . S
C924 H919 0.949 . S
C924 C930 1.368 . S
C925 C909 1.349 . S
C925 H917 0.950 . S
C925 C923 1.327 . S
C926 C914 1.349 . S
C926 H920 0.950 . S
C926 C927 1.327 . S
C927 H921 0.950 . S
C927 C926 1.327 . S
C927 C931 1.429 . S
C928 C911 1.574 . S
C928 H922 0.949 . S
C928 C932 1.368 . S
C929 C910 1.429 . S
C929 C923 1.429 . S
C929 C930 1.523 . S
C930 C911 1.368 . S
C930 C924 1.368 . S
C930 C929 1.523 . S
C931 C915 1.429 . S
C931 C927 1.429 . S
C931 C932 1.523 . S
C932 C916 1.368 . S
C932 C928 1.368 . S
C932 C931 1.523 . S
H933 C908 0.950 . S
H934 C910 0.950 . S
H935 C911 0.949 . S
H936 C913 0.950 . S
H937 C915 0.950 . S
C938 C939 1.349 . S
C938 C940 1.327 . S
C938 H963 0.950 . S
C939 C938 1.349 . S
C939 C955 1.349 1_556 S
C940 C938 1.327 . S
C940 C959 1.429 . S
C940 H964 0.950 . S
C941 C958 1.574 . S
C941 C960 1.368 1_554 S
C941 H965 0.949 . S
H942 C946 0.949 . S
C943 C944 1.349 . S
C943 C945 1.327 . S
C943 H966 0.950 . S
C944 C943 1.349 . S
C944 C956 1.349 1_554 S
C945 C943 1.327 . S
C945 C961 1.429 . S
C945 H967 0.950 . S
C946 H942 0.949 . S
C946 C954 1.574 . S
C946 C962 1.308 1_556 S
H947 C955 0.950 . S
H948 C953 0.950 . S
H949 C954 0.949 . S
H950 C956 0.950 . S
H951 C957 0.950 . S
H952 C958 0.949 . S
C953 H948 0.950 . S
C953 C955 1.327 . S
C953 C959 1.429 1_554 S
C954 C946 1.574 . S
C954 H949 0.949 . S
C954 C960 1.368 . S
C955 C939 1.349 1_554 S
C955 H947 0.950 . S
C955 C953 1.327 . S
C956 C944 1.349 1_556 S
C956 H950 0.950 . S
C956 C957 1.327 . S
C957 H951 0.950 . S
C957 C956 1.327 . S
C957 C961 1.429 1_556 S
C958 C941 1.574 . S
C958 H952 0.949 . S
C958 C962 1.426 . S
C959 C940 1.429 . S
C959 C953 1.429 1_556 S
C959 C960 1.523 . S
C960 C941 1.368 1_556 S
C960 C954 1.368 . S
C960 C959 1.523 . S
C961 C945 1.429 . S
C961 C957 1.429 1_554 S
C961 C962 1.529 . S
C962 C946 1.308 1_554 S
C962 C958 1.426 . S
C962 C961 1.529 . S
H963 C938 0.950 . S
H964 C940 0.950 . S
H965 C941 0.949 . S
H966 C943 0.950 . S
H967 C945 0.950 . S
C968 C969 1.349 . S
C968 C970 1.327 . S
C968 H993 0.950 . S
C969 C968 1.349 . S
C969 C985 1.349 . S
C970 C968 1.327 . S
C970 C989 1.429 . S
C970 H994 0.950 . S
C971 C988 1.574 . S
C971 C990 1.368 . S
C971 H995 0.949 . S
H972 C976 0.949 . S
C973 C974 1.349 . S
C973 C975 1.327 . S
C973 H996 0.950 . S
C974 C973 1.349 . S
C974 C986 1.349 . S
C975 C973 1.327 . S
C975 C991 1.429 . S
C975 H997 0.950 . S
C976 H972 0.949 . S
C976 C984 1.574 . S
C976 C992 1.368 . S
H977 C985 0.950 . S
H978 C983 0.950 . S
H979 C984 0.949 . S
H980 C986 0.950 . S
H981 C987 0.950 . S
H982 C988 0.949 . S
C983 H978 0.950 . S
C983 C985 1.327 . S
C983 C989 1.429 . S
C984 C976 1.574 . S
C984 H979 0.949 . S
C984 C990 1.368 . S
C985 C969 1.349 . S
C985 H977 0.950 . S
C985 C983 1.327 . S
C986 C974 1.349 . S
C986 H980 0.950 . S
C986 C987 1.327 . S
C987 H981 0.950 . S
C987 C986 1.327 . S
C987 C991 1.429 . S
C988 C971 1.574 . S
C988 H982 0.949 . S
C988 C992 1.368 . S
C989 C970 1.429 . S
C989 C983 1.429 . S
C989 C990 1.523 . S
C990 C971 1.368 . S
C990 C984 1.368 . S
C990 C989 1.523 . S
C991 C975 1.429 . S
C991 C987 1.429 . S
C991 C992 1.523 . S
C992 C976 1.368 . S
C992 C988 1.368 . S
C992 C991 1.523 . S
H993 C968 0.950 . S
H994 C970 0.950 . S
H995 C971 0.949 . S
H996 C973 0.950 . S
H997 C975 0.950 . S
C998 C999 1.349 . S
C998 C1000 1.327 . S
C998 H1023 0.950 . S
C999 C998 1.349 . S
C999 C1015 1.349 . S
C1000 C998 1.327 . S
C1000 C1019 1.429 . S
C1000 H1024 0.950 . S
C1001 C1018 1.574 . S
C1001 C1020 1.368 . S
C1001 H1025 0.949 . S
H1002 C1006 0.949 . S
C1003 C1004 1.349 . S
C1003 C1005 1.327 . S
C1003 H1026 0.950 . S
C1004 C1003 1.349 . S
C1004 C1016 1.349 . S
C1005 C1003 1.327 . S
C1005 C1021 1.429 . S
C1005 H1027 0.950 . S
C1006 H1002 0.949 . S
C1006 C1014 1.574 . S
C1006 C1022 1.368 . S
H1007 C1015 0.950 . S
H1008 C1013 0.950 . S
H1009 C1014 0.949 . S
H1010 C1016 0.950 . S
H1011 C1017 0.950 . S
H1012 C1018 0.949 . S
C1013 H1008 0.950 . S
C1013 C1015 1.327 . S
C1013 C1019 1.429 . S
C1014 C1006 1.574 . S
C1014 H1009 0.949 . S
C1014 C1020 1.368 . S
C1015 C999 1.349 . S
C1015 H1007 0.950 . S
C1015 C1013 1.327 . S
C1016 C1004 1.349 . S
C1016 H1010 0.950 . S
C1016 C1017 1.327 . S
C1017 H1011 0.950 . S
C1017 C1016 1.327 . S
C1017 C1021 1.429 . S
C1018 C1001 1.574 . S
C1018 H1012 0.949 . S
C1018 C1022 1.368 . S
C1019 C1000 1.429 . S
C1019 C1013 1.429 . S
C1019 C1020 1.523 . S
C1020 C1001 1.368 . S
C1020 C1014 1.368 . S
C1020 C1019 1.523 . S
C1021 C1005 1.429 . S
C1021 C1017 1.429 . S
C1021 C1022 1.523 . S
C1022 C1006 1.368 . S
C1022 C1018 1.368 . S
C1022 C1021 1.523 . S
H1023 C998 0.950 . S
H1024 C1000 0.950 . S
H1025 C1001 0.949 . S
H1026 C1003 0.950 . S
H1027 C1005 0.950 . S
C1028 C1029 1.349 . S
C1028 C1030 1.327 1_565 S
C1028 H1053 0.950 1_565 S
C1029 C1028 1.349 . S
C1029 C1045 1.349 1_554 S
C1030 C1028 1.327 1_545 S
C1030 C1049 1.429 1_545 S
C1030 H1054 0.950 . S
C1031 C1048 1.574 . S
C1031 C1050 1.368 1_556 S
C1031 H1055 0.949 . S
H1032 C1036 0.949 . S
C1033 C1034 1.349 . S
C1033 C1035 1.327 1_545 S
C1033 H1056 0.950 1_545 S
C1034 C1033 1.349 . S
C1034 C1046 1.349 1_556 S
C1035 C1033 1.327 1_565 S
C1035 C1051 1.429 1_565 S
C1035 H1057 0.950 . S
C1036 H1032 0.949 . S
C1036 C1044 1.574 . S
C1036 C1052 1.332 1_554 S
H1037 C1045 0.950 . S
H1038 C1043 0.950 . S
H1039 C1044 0.949 . S
H1040 C1046 0.950 . S
H1041 C1047 0.950 . S
H1042 C1048 0.949 . S
C1043 H1038 0.950 . S
C1043 C1045 1.327 . S
C1043 C1049 1.429 1_556 S
C1044 C1036 1.574 . S
C1044 H1039 0.949 . S
C1044 C1050 1.368 1_545 S
C1045 C1029 1.349 1_556 S
C1045 H1037 0.950 . S
C1045 C1043 1.327 . S
C1046 C1034 1.349 1_554 S
C1046 H1040 0.950 . S
C1046 C1047 1.327 . S
C1047 H1041 0.950 . S
C1047 C1046 1.327 . S
C1047 C1051 1.429 1_554 S
C1048 C1031 1.574 . S
C1048 H1042 0.949 . S
C1048 C1052 1.404 1_565 S
C1049 C1030 1.429 1_565 S
C1049 C1043 1.429 1_554 S
C1049 C1050 1.523 . S
C1050 C1031 1.368 1_554 S
C1050 C1044 1.368 1_565 S
C1050 C1049 1.523 . S
C1051 C1035 1.429 1_545 S
C1051 C1047 1.429 1_556 S
C1051 C1052 1.529 . S
C1052 C1036 1.332 1_556 S
C1052 C1048 1.404 1_545 S
C1052 C1051 1.529 . S
H1053 C1028 0.950 1_545 S
H1054 C1030 0.950 . S
H1055 C1031 0.949 . S
H1056 C1033 0.950 1_565 S
H1057 C1035 0.950 . S
C1058 C1059 1.349 . S
C1058 C1060 1.327 . S
C1058 H1083 0.950 . S
C1059 C1058 1.349 . S
C1059 C1075 1.349 . S
C1060 C1058 1.327 . S
C1060 C1079 1.429 . S
C1060 H1084 0.950 . S
C1061 C1078 1.574 1_455 S
C1061 C1080 1.368 1_545 S
C1061 H1085 0.949 . S
H1062 C1066 0.949 . S
C1063 C1064 1.349 . S
C1063 C1065 1.327 . S
C1063 H1086 0.950 . S
C1064 C1063 1.349 . S
C1064 C1076 1.349 . S
C1065 C1063 1.327 . S
C1065 C1081 1.429 . S
C1065 H1087 0.950 . S
C1066 H1062 0.949 . S
C1066 C1074 1.574 1_655 S
C1066 C1082 1.368 1_565 S
H1067 C1075 0.950 1_545 S
H1068 C1073 0.950 . S
H1069 C1074 0.949 . S
H1070 C1076 0.950 1_565 S
H1071 C1077 0.950 . S
H1072 C1078 0.949 . S
C1073 H1068 0.950 . S
C1073 C1075 1.327 1_545 S
C1073 C1079 1.429 1_545 S
C1074 C1066 1.574 1_455 S
C1074 H1069 0.949 . S
C1074 C1080 1.368 . S
C1075 C1059 1.349 . S
C1075 H1067 0.950 1_565 S
C1075 C1073 1.327 1_565 S
C1076 C1064 1.349 . S
C1076 H1070 0.950 1_545 S
C1076 C1077 1.327 1_545 S
C1077 H1071 0.950 . S
C1077 C1076 1.327 1_565 S
C1077 C1081 1.429 1_565 S
C1078 C1061 1.574 1_655 S
C1078 H1072 0.949 . S
C1078 C1082 1.368 . S
C1079 C1060 1.429 . S
C1079 C1073 1.429 1_565 S
C1079 C1080 1.523 . S
C1080 C1061 1.368 1_565 S
C1080 C1074 1.368 . S
C1080 C1079 1.523 . S
C1081 C1065 1.429 . S
C1081 C1077 1.429 1_545 S
C1081 C1082 1.523 . S
C1082 C1066 1.368 1_545 S
C1082 C1078 1.368 . S
C1082 C1081 1.523 . S
H1083 C1058 0.950 . S
H1084 C1060 0.950 . S
H1085 C1061 0.949 . S
H1086 C1063 0.950 . S
H1087 C1065 0.950 . S
C1088 C1089 1.349 . S
C1088 C1090 1.327 . S
C1088 H1113 0.950 . S
C1089 C1088 1.349 . S
C1089 C1105 1.349 . S
C1090 C1088 1.327 . S
C1090 C1109 1.429 . S
C1090 H1114 0.950 . S
C1091 C1108 1.574 . S
C1091 C1110 1.368 . S
C1091 H1115 0.949 . S
H1092 C1096 0.949 . S
C1093 C1094 1.349 . S
C1093 C1095 1.327 . S
C1093 H1116 0.950 . S
C1094 C1093 1.349 . S
C1094 C1106 1.349 . S
C1095 C1093 1.327 . S
C1095 C1111 1.429 . S
C1095 H1117 0.950 . S
C1096 H1092 0.949 . S
C1096 C1104 1.574 . S
C1096 C1112 1.368 . S
H1097 C1105 0.950 . S
H1098 C1103 0.950 . S
H1099 C1104 0.949 . S
H1100 C1106 0.950 . S
H1101 C1107 0.950 . S
H1102 C1108 0.949 . S
C1103 H1098 0.950 . S
C1103 C1105 1.327 . S
C1103 C1109 1.429 . S
C1104 C1096 1.574 . S
C1104 H1099 0.949 . S
C1104 C1110 1.368 . S
C1105 C1089 1.349 . S
C1105 H1097 0.950 . S
C1105 C1103 1.327 . S
C1106 C1094 1.349 . S
C1106 H1100 0.950 . S
C1106 C1107 1.327 . S
C1107 H1101 0.950 . S
C1107 C1106 1.327 . S
C1107 C1111 1.429 . S
C1108 C1091 1.574 . S
C1108 H1102 0.949 . S
C1108 C1112 1.368 . S
C1109 C1090 1.429 . S
C1109 C1103 1.429 . S
C1109 C1110 1.523 . S
C1110 C1091 1.368 . S
C1110 C1104 1.368 . S
C1110 C1109 1.523 . S
C1111 C1095 1.429 . S
C1111 C1107 1.429 . S
C1111 C1112 1.523 . S
C1112 C1096 1.368 . S
C1112 C1108 1.368 . S
C1112 C1111 1.523 . S
H1113 C1088 0.950 . S
H1114 C1090 0.950 . S
H1115 C1091 0.949 . S
H1116 C1093 0.950 . S
H1117 C1095 0.950 . S
C1118 C1119 1.349 . S
C1118 C1120 1.327 . S
C1118 H1143 0.950 . S
C1119 C1118 1.349 . S
C1119 C1135 1.349 . S
C1120 C1118 1.327 . S
C1120 C1139 1.429 . S
C1120 H1144 0.950 . S
C1121 C1138 1.574 . S
C1121 C1140 1.368 . S
C1121 H1145 0.949 . S
H1122 C1126 0.949 . S
C1123 C1124 1.349 . S
C1123 C1125 1.327 . S
C1123 H1146 0.950 . S
C1124 C1123 1.349 . S
C1124 C1136 1.349 . S
C1125 C1123 1.327 . S
C1125 C1141 1.429 . S
C1125 H1147 0.950 . S
C1126 H1122 0.949 . S
C1126 C1134 1.574 . S
C1126 C1142 1.368 . S
H1127 C1135 0.950 . S
H1128 C1133 0.950 . S
H1129 C1134 0.949 . S
H1130 C1136 0.950 . S
H1131 C1137 0.950 . S
H1132 C1138 0.949 . S
C1133 H1128 0.950 . S
C1133 C1135 1.327 . S
C1133 C1139 1.429 . S
C1134 C1126 1.574 . S
C1134 H1129 0.949 . S
C1134 C1140 1.368 . S
C1135 C1119 1.349 . S
C1135 H1127 0.950 . S
C1135 C1133 1.327 . S
C1136 C1124 1.349 . S
C1136 H1130 0.950 . S
C1136 C1137 1.327 . S
C1137 H1131 0.950 . S
C1137 C1136 1.327 . S
C1137 C1141 1.429 . S
C1138 C1121 1.574 . S
C1138 H1132 0.949 . S
C1138 C1142 1.368 . S
C1139 C1120 1.429 . S
C1139 C1133 1.429 . S
C1139 C1140 1.523 . S
C1140 C1121 1.368 . S
C1140 C1134 1.368 . S
C1140 C1139 1.523 . S
C1141 C1125 1.429 . S
C1141 C1137 1.429 . S
C1141 C1142 1.523 . S
C1142 C1126 1.368 . S
C1142 C1138 1.368 . S
C1142 C1141 1.523 . S
H1143 C1118 0.950 . S
H1144 C1120 0.950 . S
H1145 C1121 0.949 . S
H1146 C1123 0.950 . S
H1147 C1125 0.950 . S
C1148 C1149 1.349 . S
C1148 C1150 1.327 . S
C1148 H1173 0.950 . S
C1149 C1148 1.349 . S
C1149 C1165 1.349 . S
C1150 C1148 1.327 . S
C1150 C1169 1.429 . S
C1150 H1174 0.950 . S
C1151 C1168 1.574 . S
C1151 C1170 1.368 . S
C1151 H1175 0.949 . S
H1152 C1156 0.949 . S
C1153 C1154 1.349 . S
C1153 C1155 1.327 . S
C1153 H1176 0.950 . S
C1154 C1153 1.349 . S
C1154 C1166 1.349 . S
C1155 C1153 1.327 . S
C1155 C1171 1.429 . S
C1155 H1177 0.950 . S
C1156 H1152 0.949 . S
C1156 C1164 1.574 . S
C1156 C1172 1.368 . S
H1157 C1165 0.950 . S
H1158 C1163 0.950 . S
H1159 C1164 0.949 . S
H1160 C1166 0.950 . S
H1161 C1167 0.950 . S
H1162 C1168 0.949 . S
C1163 H1158 0.950 . S
C1163 C1165 1.327 . S
C1163 C1169 1.429 . S
C1164 C1156 1.574 . S
C1164 H1159 0.949 . S
C1164 C1170 1.368 . S
C1165 C1149 1.349 . S
C1165 H1157 0.950 . S
C1165 C1163 1.327 . S
C1166 C1154 1.349 . S
C1166 H1160 0.950 . S
C1166 C1167 1.327 . S
C1167 H1161 0.950 . S
C1167 C1166 1.327 . S
C1167 C1171 1.429 . S
C1168 C1151 1.574 . S
C1168 H1162 0.949 . S
C1168 C1172 1.368 . S
C1169 C1150 1.429 . S
C1169 C1163 1.429 . S
C1169 C1170 1.523 . S
C1170 C1151 1.368 . S
C1170 C1164 1.368 . S
C1170 C1169 1.523 . S
C1171 C1155 1.429 . S
C1171 C1167 1.429 . S
C1171 C1172 1.523 . S
C1172 C1156 1.368 . S
C1172 C1168 1.368 . S
C1172 C1171 1.523 . S
H1173 C1148 0.950 . S
H1174 C1150 0.950 . S
H1175 C1151 0.949 . S
H1176 C1153 0.950 . S
H1177 C1155 0.950 . S
C1178 C1179 1.349 . S
C1178 C1180 1.327 . S
C1178 H1203 0.950 . S
C1179 C1178 1.349 . S
C1179 C1195 1.349 . S
C1180 C1178 1.327 . S
C1180 C1199 1.429 . S
C1180 H1204 0.950 . S
C1181 C1198 1.574 . S
C1181 C1200 1.368 . S
C1181 H1205 0.949 . S
H1182 C1186 0.949 . S
C1183 C1184 1.349 . S
C1183 C1185 1.327 . S
C1183 H1206 0.950 . S
C1184 C1183 1.349 . S
C1184 C1196 1.349 . S
C1185 C1183 1.327 . S
C1185 C1201 1.429 . S
C1185 H1207 0.950 . S
C1186 H1182 0.949 . S
C1186 C1194 1.574 . S
C1186 C1202 1.368 . S
H1187 C1195 0.950 . S
H1188 C1193 0.950 . S
H1189 C1194 0.949 . S
H1190 C1196 0.950 . S
H1191 C1197 0.950 . S
H1192 C1198 0.949 . S
C1193 H1188 0.950 . S
C1193 C1195 1.327 . S
C1193 C1199 1.429 . S
C1194 C1186 1.574 . S
C1194 H1189 0.949 . S
C1194 C1200 1.368 . S
C1195 C1179 1.349 . S
C1195 H1187 0.950 . S
C1195 C1193 1.327 . S
C1196 C1184 1.349 . S
C1196 H1190 0.950 . S
C1196 C1197 1.327 . S
C1197 H1191 0.950 . S
C1197 C1196 1.327 . S
C1197 C1201 1.429 . S
C1198 C1181 1.574 . S
C1198 H1192 0.949 . S
C1198 C1202 1.368 . S
C1199 C1180 1.429 . S
C1199 C1193 1.429 . S
C1199 C1200 1.523 . S
C1200 C1181 1.368 . S
C1200 C1194 1.368 . S
C1200 C1199 1.523 . S
C1201 C1185 1.429 . S
C1201 C1197 1.429 . S
C1201 C1202 1.523 . S
C1202 C1186 1.368 . S
C1202 C1198 1.368 . S
C1202 C1201 1.523 . S
H1203 C1178 0.950 . S
H1204 C1180 0.950 . S
H1205 C1181 0.949 . S
H1206 C1183 0.950 . S
H1207 C1185 0.950 . S
C1208 C1209 1.349 . S
C1208 C1210 1.327 . S
C1208 H1233 0.950 . S
C1209 C1208 1.349 . S
C1209 C1225 1.349 . S
C1210 C1208 1.327 . S
C1210 C1229 1.429 . S
C1210 H1234 0.950 . S
C1211 C1228 1.574 . S
C1211 C1230 1.368 . S
C1211 H1235 0.949 . S
H1212 C1216 0.949 . S
C1213 C1214 1.349 . S
C1213 C1215 1.327 . S
C1213 H1236 0.950 . S
C1214 C1213 1.349 . S
C1214 C1226 1.349 . S
C1215 C1213 1.327 . S
C1215 C1231 1.429 . S
C1215 H1237 0.950 . S
C1216 H1212 0.949 . S
C1216 C1224 1.574 . S
C1216 C1232 1.368 . S
H1217 C1225 0.950 . S
H1218 C1223 0.950 . S
H1219 C1224 0.949 . S
H1220 C1226 0.950 . S
H1221 C1227 0.950 . S
H1222 C1228 0.949 . S
C1223 H1218 0.950 . S
C1223 C1225 1.327 . S
C1223 C1229 1.429 . S
C1224 C1216 1.574 . S
C1224 H1219 0.949 . S
C1224 C1230 1.368 . S
C1225 C1209 1.349 . S
C1225 H1217 0.950 . S
C1225 C1223 1.327 . S
C1226 C1214 1.349 . S
C1226 H1220 0.950 . S
C1226 C1227 1.327 . S
C1227 H1221 0.950 . S
C1227 C1226 1.327 . S
C1227 C1231 1.429 . S
C1228 C1211 1.574 . S
C1228 H1222 0.949 . S
C1228 C1232 1.368 . S
C1229 C1210 1.429 . S
C1229 C1223 1.429 . S
C1229 C1230 1.523 . S
C1230 C1211 1.368 . S
C1230 C1224 1.368 . S
C1230 C1229 1.523 . S
C1231 C1215 1.429 . S
C1231 C1227 1.429 . S
C1231 C1232 1.523 . S
C1232 C1216 1.368 . S
C1232 C1228 1.368 . S
C1232 C1231 1.523 . S
H1233 C1208 0.950 . S
H1234 C1210 0.950 . S
H1235 C1211 0.949 . S
H1236 C1213 0.950 . S
H1237 C1215 0.950 . S
C1238 C1239 1.349 . S
C1238 C1240 1.327 . S
C1238 H1263 0.950 . S
C1239 C1238 1.349 . S
C1239 C1255 1.349 . S
C1240 C1238 1.327 . S
C1240 C1259 1.429 . S
C1240 H1264 0.950 . S
C1241 C1258 1.574 . S
C1241 C1260 1.368 . S
C1241 H1265 0.949 . S
H1242 C1246 0.949 . S
C1243 C1244 1.349 . S
C1243 C1245 1.327 . S
C1243 H1266 0.950 . S
C1244 C1243 1.349 . S
C1244 C1256 1.349 . S
C1245 C1243 1.327 . S
C1245 C1261 1.429 . S
C1245 H1267 0.950 . S
C1246 H1242 0.949 . S
C1246 C1254 1.574 . S
C1246 C1262 1.368 . S
H1247 C1255 0.950 . S
H1248 C1253 0.950 . S
H1249 C1254 0.949 . S
H1250 C1256 0.950 . S
H1251 C1257 0.950 . S
H1252 C1258 0.949 . S
C1253 H1248 0.950 . S
C1253 C1255 1.327 . S
C1253 C1259 1.429 . S
C1254 C1246 1.574 . S
C1254 H1249 0.949 . S
C1254 C1260 1.368 . S
C1255 C1239 1.349 . S
C1255 H1247 0.950 . S
C1255 C1253 1.327 . S
C1256 C1244 1.349 . S
C1256 H1250 0.950 . S
C1256 C1257 1.327 . S
C1257 H1251 0.950 . S
C1257 C1256 1.327 . S
C1257 C1261 1.429 . S
C1258 C1241 1.574 . S
C1258 H1252 0.949 . S
C1258 C1262 1.368 . S
C1259 C1240 1.429 . S
C1259 C1253 1.429 . S
C1259 C1260 1.523 . S
C1260 C1241 1.368 . S
C1260 C1254 1.368 . S
C1260 C1259 1.523 . S
C1261 C1245 1.429 . S
C1261 C1257 1.429 . S
C1261 C1262 1.523 . S
C1262 C1246 1.368 . S
C1262 C1258 1.368 . S
C1262 C1261 1.523 . S
H1263 C1238 0.950 . S
H1264 C1240 0.950 . S
H1265 C1241 0.949 . S
H1266 C1243 0.950 . S
H1267 C1245 0.950 . S
C1268 C1269 1.349 . S
C1268 C1270 1.327 . S
C1268 H1293 0.950 . S
C1269 C1268 1.349 . S
C1269 C1285 1.349 . S
C1270 C1268 1.327 . S
C1270 C1289 1.429 . S
C1270 H1294 0.950 . S
C1271 C1288 1.574 . S
C1271 C1290 1.368 . S
C1271 H1295 0.949 . S
H1272 C1276 0.949 . S
C1273 C1274 1.349 . S
C1273 C1275 1.327 . S
C1273 H1296 0.950 . S
C1274 C1273 1.349 . S
C1274 C1286 1.349 . S
C1275 C1273 1.327 . S
C1275 C1291 1.429 . S
C1275 H1297 0.950 . S
C1276 H1272 0.949 . S
C1276 C1284 1.574 . S
C1276 C1292 1.368 . S
H1277 C1285 0.950 . S
H1278 C1283 0.950 . S
H1279 C1284 0.949 . S
H1280 C1286 0.950 . S
H1281 C1287 0.950 . S
H1282 C1288 0.949 . S
C1283 H1278 0.950 . S
C1283 C1285 1.327 . S
C1283 C1289 1.429 . S
C1284 C1276 1.574 . S
C1284 H1279 0.949 . S
C1284 C1290 1.368 . S
C1285 C1269 1.349 . S
C1285 H1277 0.950 . S
C1285 C1283 1.327 . S
C1286 C1274 1.349 . S
C1286 H1280 0.950 . S
C1286 C1287 1.327 . S
C1287 H1281 0.950 . S
C1287 C1286 1.327 . S
C1287 C1291 1.429 . S
C1288 C1271 1.574 . S
C1288 H1282 0.949 . S
C1288 C1292 1.368 . S
C1289 C1270 1.429 . S
C1289 C1283 1.429 . S
C1289 C1290 1.523 . S
C1290 C1271 1.368 . S
C1290 C1284 1.368 . S
C1290 C1289 1.523 . S
C1291 C1275 1.429 . S
C1291 C1287 1.429 . S
C1291 C1292 1.523 . S
C1292 C1276 1.368 . S
C1292 C1288 1.368 . S
C1292 C1291 1.523 . S
H1293 C1268 0.950 . S
H1294 C1270 0.950 . S
H1295 C1271 0.949 . S
H1296 C1273 0.950 . S
H1297 C1275 0.950 . S
C1298 C1299 1.349 . S
C1298 C1300 1.327 . S
C1298 H1323 0.950 . S
C1299 C1298 1.349 . S
C1299 C1315 1.349 . S
C1300 C1298 1.327 . S
C1300 C1319 1.429 . S
C1300 H1324 0.950 . S
C1301 C1318 1.574 . S
C1301 C1320 1.368 . S
C1301 H1325 0.949 . S
H1302 C1306 0.949 . S
C1303 C1304 1.349 . S
C1303 C1305 1.327 . S
C1303 H1326 0.950 . S
C1304 C1303 1.349 . S
C1304 C1316 1.349 . S
C1305 C1303 1.327 . S
C1305 C1321 1.429 . S
C1305 H1327 0.950 . S
C1306 H1302 0.949 . S
C1306 C1314 1.574 . S
C1306 C1322 1.368 . S
H1307 C1315 0.950 . S
H1308 C1313 0.950 . S
H1309 C1314 0.949 . S
H1310 C1316 0.950 . S
H1311 C1317 0.950 . S
H1312 C1318 0.949 . S
C1313 H1308 0.950 . S
C1313 C1315 1.327 . S
C1313 C1319 1.429 . S
C1314 C1306 1.574 . S
C1314 H1309 0.949 . S
C1314 C1320 1.368 . S
C1315 C1299 1.349 . S
C1315 H1307 0.950 . S
C1315 C1313 1.327 . S
C1316 C1304 1.349 . S
C1316 H1310 0.950 . S
C1316 C1317 1.327 . S
C1317 H1311 0.950 . S
C1317 C1316 1.327 . S
C1317 C1321 1.429 . S
C1318 C1301 1.574 . S
C1318 H1312 0.949 . S
C1318 C1322 1.368 . S
C1319 C1300 1.429 . S
C1319 C1313 1.429 . S
C1319 C1320 1.523 . S
C1320 C1301 1.368 . S
C1320 C1314 1.368 . S
C1320 C1319 1.523 . S
C1321 C1305 1.429 . S
C1321 C1317 1.429 . S
C1321 C1322 1.523 . S
C1322 C1306 1.368 . S
C1322 C1318 1.368 . S
C1322 C1321 1.523 . S
H1323 C1298 0.950 . S
H1324 C1300 0.950 . S
H1325 C1301 0.949 . S
H1326 C1303 0.950 . S
H1327 C1305 0.950 . S
C1328 C1329 1.349 1_565 S
C1328 C1330 1.327 . S
C1328 H1353 0.950 . S
C1329 C1328 1.349 1_545 S
C1329 C1345 1.349 . S
C1330 C1328 1.327 . S
C1330 C1349 1.429 . S
C1330 H1354 0.950 . S
C1331 C1348 1.574 1_545 S
C1331 C1350 1.368 1_545 S
C1331 H1355 0.949 . S
H1332 C1336 0.949 . S
C1333 C1334 1.349 . S
C1333 C1335 1.327 . S
C1333 H1356 0.950 . S
C1334 C1333 1.349 . S
C1334 C1346 1.349 . S
C1335 C1333 1.327 . S
C1335 C1351 1.429 . S
C1335 H1357 0.950 1_565 S
C1336 H1332 0.949 . S
C1336 C1344 1.574 . S
C1336 C1352 1.368 . S
H1337 C1345 0.950 . S
H1338 C1343 0.950 . S
H1339 C1344 0.949 . S
H1340 C1346 0.950 . S
H1341 C1347 0.950 . S
H1342 C1348 0.949 1_545 S
C1343 H1338 0.950 . S
C1343 C1345 1.327 . S
C1343 C1349 1.429 1_545 S
C1344 C1336 1.574 . S
C1344 H1339 0.949 . S
C1344 C1350 1.368 . S
C1345 C1329 1.349 . S
C1345 H1337 0.950 . S
C1345 C1343 1.327 . S
C1346 C1334 1.349 . S
C1346 H1340 0.950 . S
C1346 C1347 1.327 . S
C1347 H1341 0.950 . S
C1347 C1346 1.327 . S
C1347 C1351 1.429 . S
C1348 C1331 1.574 1_565 S
C1348 H1342 0.949 1_565 S
C1348 C1352 1.368 . S
C1349 C1330 1.429 . S
C1349 C1343 1.429 1_565 S
C1349 C1350 1.523 . S
C1350 C1331 1.368 1_565 S
C1350 C1344 1.368 . S
C1350 C1349 1.523 . S
C1351 C1335 1.429 . S
C1351 C1347 1.429 . S
C1351 C1352 1.523 . S
C1352 C1336 1.368 . S
C1352 C1348 1.368 . S
C1352 C1351 1.523 . S
H1353 C1328 0.950 . S
H1354 C1330 0.950 . S
H1355 C1331 0.949 . S
H1356 C1333 0.950 . S
H1357 C1335 0.950 1_545 S
C1358 C1359 1.349 . S
C1358 C1360 1.327 . S
C1358 H1383 0.950 . S
C1359 C1358 1.349 . S
C1359 C1375 1.349 . S
C1360 C1358 1.327 . S
C1360 C1379 1.429 . S
C1360 H1384 0.950 . S
C1361 C1378 1.574 . S
C1361 C1380 1.368 . S
C1361 H1385 0.949 . S
H1362 C1366 0.949 . S
C1363 C1364 1.349 . S
C1363 C1365 1.327 . S
C1363 H1386 0.950 . S
C1364 C1363 1.349 . S
C1364 C1376 1.349 . S
C1365 C1363 1.327 . S
C1365 C1381 1.429 . S
C1365 H1387 0.950 . S
C1366 H1362 0.949 . S
C1366 C1374 1.574 . S
C1366 C1382 1.368 . S
H1367 C1375 0.950 . S
H1368 C1373 0.950 . S
H1369 C1374 0.949 . S
H1370 C1376 0.950 1_545 S
H1371 C1377 0.950 1_545 S
H1372 C1378 0.949 . S
C1373 H1368 0.950 . S
C1373 C1375 1.327 . S
C1373 C1379 1.429 . S
C1374 C1366 1.574 . S
C1374 H1369 0.949 . S
C1374 C1380 1.368 . S
C1375 C1359 1.349 . S
C1375 H1367 0.950 . S
C1375 C1373 1.327 . S
C1376 C1364 1.349 . S
C1376 H1370 0.950 1_565 S
C1376 C1377 1.327 . S
C1377 H1371 0.950 1_565 S
C1377 C1376 1.327 . S
C1377 C1381 1.429 . S
C1378 C1361 1.574 . S
C1378 H1372 0.949 . S
C1378 C1382 1.368 . S
C1379 C1360 1.429 . S
C1379 C1373 1.429 . S
C1379 C1380 1.523 . S
C1380 C1361 1.368 . S
C1380 C1374 1.368 . S
C1380 C1379 1.523 . S
C1381 C1365 1.429 . S
C1381 C1377 1.429 . S
C1381 C1382 1.523 . S
C1382 C1366 1.368 . S
C1382 C1378 1.368 . S
C1382 C1381 1.523 . S
H1383 C1358 0.950 . S
H1384 C1360 0.950 . S
H1385 C1361 0.949 . S
H1386 C1363 0.950 . S
H1387 C1365 0.950 . S
C1388 C1389 1.349 . S
C1388 C1390 1.327 . S
C1388 H1413 0.950 . S
C1389 C1388 1.349 . S
C1389 C1405 1.349 . S
C1390 C1388 1.327 . S
C1390 C1409 1.429 . S
C1390 H1414 0.950 . S
C1391 C1408 1.574 . S
C1391 C1410 1.368 . S
C1391 H1415 0.949 . S
H1392 C1396 0.949 . S
C1393 C1394 1.349 . S
C1393 C1395 1.327 . S
C1393 H1416 0.950 . S
C1394 C1393 1.349 . S
C1394 C1406 1.349 1_565 S
C1395 C1393 1.327 . S
C1395 C1411 1.429 1_565 S
C1395 H1417 0.950 . S
C1396 H1392 0.949 . S
C1396 C1404 1.574 . S
C1396 C1412 1.368 . S
H1397 C1405 0.950 . S
H1398 C1403 0.950 . S
H1399 C1404 0.949 . S
H1400 C1406 0.950 . S
H1401 C1407 0.950 . S
H1402 C1408 0.949 1_565 S
C1403 H1398 0.950 . S
C1403 C1405 1.327 . S
C1403 C1409 1.429 . S
C1404 C1396 1.574 . S
C1404 H1399 0.949 . S
C1404 C1410 1.368 . S
C1405 C1389 1.349 . S
C1405 H1397 0.950 . S
C1405 C1403 1.327 . S
C1406 C1394 1.349 1_545 S
C1406 H1400 0.950 . S
C1406 C1407 1.327 . S
C1407 H1401 0.950 . S
C1407 C1406 1.327 . S
C1407 C1411 1.429 . S
C1408 C1391 1.574 . S
C1408 H1402 0.949 1_545 S
C1408 C1412 1.368 . S
C1409 C1390 1.429 . S
C1409 C1403 1.429 . S
C1409 C1410 1.523 . S
C1410 C1391 1.368 . S
C1410 C1404 1.368 . S
C1410 C1409 1.523 . S
C1411 C1395 1.429 1_545 S
C1411 C1407 1.429 . S
C1411 C1412 1.523 . S
C1412 C1396 1.368 . S
C1412 C1408 1.368 . S
C1412 C1411 1.523 . S
H1413 C1388 0.950 . S
H1414 C1390 0.950 . S
H1415 C1391 0.949 . S
H1416 C1393 0.950 . S
H1417 C1395 0.950 . S
C1418 C1419 1.349 . S
C1418 C1420 1.327 . S
C1418 H1443 0.950 . S
C1419 C1418 1.349 . S
C1419 C1435 1.349 . S
C1420 C1418 1.327 . S
C1420 C1439 1.429 . S
C1420 H1444 0.950 . S
C1421 C1438 1.574 . S
C1421 C1440 1.368 . S
C1421 H1445 0.949 . S
H1422 C1426 0.949 . S
C1423 C1424 1.349 . S
C1423 C1425 1.327 . S
C1423 H1446 0.950 . S
C1424 C1423 1.349 . S
C1424 C1436 1.349 . S
C1425 C1423 1.327 . S
C1425 C1441 1.429 . S
C1425 H1447 0.950 . S
C1426 H1422 0.949 . S
C1426 C1434 1.574 . S
C1426 C1442 1.368 . S
H1427 C1435 0.950 . S
H1428 C1433 0.950 . S
H1429 C1434 0.949 . S
H1430 C1436 0.950 1_565 S
H1431 C1437 0.950 1_565 S
H1432 C1438 0.949 . S
C1433 H1428 0.950 . S
C1433 C1435 1.327 . S
C1433 C1439 1.429 . S
C1434 C1426 1.574 . S
C1434 H1429 0.949 . S
C1434 C1440 1.368 . S
C1435 C1419 1.349 . S
C1435 H1427 0.950 . S
C1435 C1433 1.327 . S
C1436 C1424 1.349 . S
C1436 H1430 0.950 1_545 S
C1436 C1437 1.327 . S
C1437 H1431 0.950 1_545 S
C1437 C1436 1.327 . S
C1437 C1441 1.429 . S
C1438 C1421 1.574 . S
C1438 H1432 0.949 . S
C1438 C1442 1.368 . S
C1439 C1420 1.429 . S
C1439 C1433 1.429 . S
C1439 C1440 1.523 . S
C1440 C1421 1.368 . S
C1440 C1434 1.368 . S
C1440 C1439 1.523 . S
C1441 C1425 1.429 . S
C1441 C1437 1.429 . S
C1441 C1442 1.523 . S
C1442 C1426 1.368 . S
C1442 C1438 1.368 . S
C1442 C1441 1.523 . S
H1443 C1418 0.950 . S
H1444 C1420 0.950 . S
H1445 C1421 0.949 . S
H1446 C1423 0.950 . S
H1447 C1425 0.950 . S
C1448 C1449 1.349 . S
C1448 C1450 1.327 . S
C1448 H1473 0.950 . S
C1449 C1448 1.349 . S
C1449 C1465 1.349 . S
C1450 C1448 1.327 . S
C1450 C1469 1.429 . S
C1450 H1474 0.950 . S
C1451 C1468 1.574 . S
C1451 C1470 1.368 . S
C1451 H1475 0.949 . S
H1452 C1456 0.949 . S
C1453 C1454 1.349 . S
C1453 C1455 1.327 . S
C1453 H1476 0.950 . S
C1454 C1453 1.349 . S
C1454 C1466 1.349 1_565 S
C1455 C1453 1.327 . S
C1455 C1471 1.429 1_565 S
C1455 H1477 0.950 . S
C1456 H1452 0.949 . S
C1456 C1464 1.574 . S
C1456 C1472 1.368 . S
H1457 C1465 0.950 . S
H1458 C1463 0.950 . S
H1459 C1464 0.949 . S
H1460 C1466 0.950 . S
H1461 C1467 0.950 . S
H1462 C1468 0.949 1_565 S
C1463 H1458 0.950 . S
C1463 C1465 1.327 . S
C1463 C1469 1.429 . S
C1464 C1456 1.574 . S
C1464 H1459 0.949 . S
C1464 C1470 1.368 . S
C1465 C1449 1.349 . S
C1465 H1457 0.950 . S
C1465 C1463 1.327 . S
C1466 C1454 1.349 1_545 S
C1466 H1460 0.950 . S
C1466 C1467 1.327 . S
C1467 H1461 0.950 . S
C1467 C1466 1.327 . S
C1467 C1471 1.429 . S
C1468 C1451 1.574 . S
C1468 H1462 0.949 1_545 S
C1468 C1472 1.368 . S
C1469 C1450 1.429 . S
C1469 C1463 1.429 . S
C1469 C1470 1.523 . S
C1470 C1451 1.368 . S
C1470 C1464 1.368 . S
C1470 C1469 1.523 . S
C1471 C1455 1.429 1_545 S
C1471 C1467 1.429 . S
C1471 C1472 1.523 . S
C1472 C1456 1.368 . S
C1472 C1468 1.368 . S
C1472 C1471 1.523 . S
H1473 C1448 0.950 . S
H1474 C1450 0.950 . S
H1475 C1451 0.949 . S
H1476 C1453 0.950 . S
H1477 C1455 0.950 . S
C1478 C1479 1.349 . S
C1478 C1480 1.327 . S
C1478 H1503 0.950 . S
C1479 C1478 1.349 . S
C1479 C1495 1.349 . S
C1480 C1478 1.327 . S
C1480 C1499 1.429 . S
C1480 H1504 0.950 . S
C1481 C1498 1.574 . S
C1481 C1500 1.368 . S
C1481 H1505 0.949 . S
H1482 C1486 0.949 1_565 S
C1483 C1484 1.349 . S
C1483 C1485 1.327 . S
C1483 H1506 0.950 . S
C1484 C1483 1.349 . S
C1484 C1496 1.349 . S
C1485 C1483 1.327 . S
C1485 C1501 1.429 . S
C1485 H1507 0.950 . S
C1486 H1482 0.949 1_545 S
C1486 C1494 1.574 . S
C1486 C1502 1.368 . S
H1487 C1495 0.950 . S
H1488 C1493 0.950 . S
H1489 C1494 0.949 . S
H1490 C1496 0.950 1_565 S
H1491 C1497 0.950 1_565 S
H1492 C1498 0.949 . S
C1493 H1488 0.950 . S
C1493 C1495 1.327 . S
C1493 C1499 1.429 . S
C1494 C1486 1.574 . S
C1494 H1489 0.949 . S
C1494 C1500 1.368 . S
C1495 C1479 1.349 . S
C1495 H1487 0.950 . S
C1495 C1493 1.327 . S
C1496 C1484 1.349 . S
C1496 H1490 0.950 1_545 S
C1496 C1497 1.327 . S
C1497 H1491 0.950 1_545 S
C1497 C1496 1.327 . S
C1497 C1501 1.429 . S
C1498 C1481 1.574 . S
C1498 H1492 0.949 . S
C1498 C1502 1.368 . S
C1499 C1480 1.429 . S
C1499 C1493 1.429 . S
C1499 C1500 1.523 . S
C1500 C1481 1.368 . S
C1500 C1494 1.368 . S
C1500 C1499 1.523 . S
C1501 C1485 1.429 . S
C1501 C1497 1.429 . S
C1501 C1502 1.523 . S
C1502 C1486 1.368 . S
C1502 C1498 1.368 . S
C1502 C1501 1.523 . S
H1503 C1478 0.950 . S
H1504 C1480 0.950 . S
H1505 C1481 0.949 . S
H1506 C1483 0.950 . S
H1507 C1485 0.950 . S
C1508 C1509 1.349 . S
C1508 C1510 1.327 . S
C1508 H1533 0.950 . S
C1509 C1508 1.349 . S
C1509 C1525 1.349 1_545 S
C1510 C1508 1.327 . S
C1510 C1529 1.429 1_545 S
C1510 H1534 0.950 . S
C1511 C1528 1.574 . S
C1511 C1530 1.368 . S
C1511 H1535 0.949 . S
H1512 C1516 0.949 1_545 S
C1513 C1514 1.349 . S
C1513 C1515 1.327 . S
C1513 H1536 0.950 . S
C1514 C1513 1.349 . S
C1514 C1526 1.349 . S
C1515 C1513 1.327 . S
C1515 C1531 1.429 . S
C1515 H1537 0.950 . S
C1516 H1512 0.949 1_565 S
C1516 C1524 1.574 . S
C1516 C1532 1.368 . S
H1517 C1525 0.950 . S
H1518 C1523 0.950 . S
H1519 C1524 0.949 1_545 S
H1520 C1526 0.950 . S
H1521 C1527 0.950 . S
H1522 C1528 0.949 . S
C1523 H1518 0.950 . S
C1523 C1525 1.327 . S
C1523 C1529 1.429 . S
C1524 C1516 1.574 . S
C1524 H1519 0.949 1_565 S
C1524 C1530 1.368 . S
C1525 C1509 1.349 1_565 S
C1525 H1517 0.950 . S
C1525 C1523 1.327 . S
C1526 C1514 1.349 . S
C1526 H1520 0.950 . S
C1526 C1527 1.327 . S
C1527 H1521 0.950 . S
C1527 C1526 1.327 . S
C1527 C1531 1.429 . S
C1528 C1511 1.574 . S
C1528 H1522 0.949 . S
C1528 C1532 1.368 . S
C1529 C1510 1.429 1_565 S
C1529 C1523 1.429 . S
C1529 C1530 1.523 . S
C1530 C1511 1.368 . S
C1530 C1524 1.368 . S
C1530 C1529 1.523 . S
C1531 C1515 1.429 . S
C1531 C1527 1.429 . S
C1531 C1532 1.523 . S
C1532 C1516 1.368 . S
C1532 C1528 1.368 . S
C1532 C1531 1.523 . S
H1533 C1508 0.950 . S
H1534 C1510 0.950 . S
H1535 C1511 0.949 . S
H1536 C1513 0.950 . S
H1537 C1515 0.950 . S
C1538 C1539 1.349 . S
C1538 C1540 1.327 . S
C1538 H1563 0.950 1_565 S
C1539 C1538 1.349 . S
C1539 C1555 1.349 . S
C1540 C1538 1.327 . S
C1540 C1559 1.429 . S
C1540 H1564 0.947 1_565 S
C1541 C1558 1.574 . S
C1541 C1560 1.368 . S
C1541 H1565 0.949 . S
H1542 C1546 0.949 . S
C1543 C1544 1.349 . S
C1543 C1545 1.327 . S
C1543 H1566 0.950 . S
C1544 C1543 1.349 . S
C1544 C1556 1.349 . S
C1545 C1543 1.327 . S
C1545 C1561 1.429 . S
C1545 H1567 0.950 . S
C1546 H1542 0.949 . S
C1546 C1554 1.574 . S
C1546 C1562 1.368 . S
H1547 C1555 0.950 . S
H1548 C1553 0.950 . S
H1549 C1554 0.949 . S
H1550 C1556 0.950 . S
H1551 C1557 0.950 . S
H1552 C1558 0.949 . S
C1553 H1548 0.950 . S
C1553 C1555 1.327 . S
C1553 C1559 1.429 . S
C1554 C1546 1.574 . S
C1554 H1549 0.949 . S
C1554 C1560 1.368 . S
C1555 C1539 1.349 . S
C1555 H1547 0.950 . S
C1555 C1553 1.327 . S
C1556 C1544 1.349 . S
C1556 H1550 0.950 . S
C1556 C1557 1.327 . S
C1557 H1551 0.950 . S
C1557 C1556 1.327 . S
C1557 C1561 1.429 . S
C1558 C1541 1.574 . S
C1558 H1552 0.949 . S
C1558 C1562 1.368 . S
C1559 C1540 1.429 . S
C1559 C1553 1.429 . S
C1559 C1560 1.523 . S
C1560 C1541 1.368 . S
C1560 C1554 1.368 . S
C1560 C1559 1.523 . S
C1561 C1545 1.429 . S
C1561 C1557 1.429 . S
C1561 C1562 1.523 . S
C1562 C1546 1.368 . S
C1562 C1558 1.368 . S
C1562 C1561 1.523 . S
H1563 C1538 0.950 1_545 S
H1564 C1540 0.947 1_545 S
H1565 C1541 0.949 . S
H1566 C1543 0.950 . S
H1567 C1545 0.950 . S
C1568 C1569 1.349 . S
C1568 C1570 1.327 . S
C1568 H1593 0.950 . S
C1569 C1568 1.349 . S
C1569 C1585 1.349 . S
C1570 C1568 1.327 . S
C1570 C1589 1.429 . S
C1570 H1594 0.950 . S
C1571 C1588 1.574 . S
C1571 C1590 1.368 . S
C1571 H1595 0.949 . S
H1572 C1576 0.949 . S
C1573 C1574 1.349 . S
C1573 C1575 1.327 . S
C1573 H1596 0.950 . S
C1574 C1573 1.349 . S
C1574 C1586 1.349 . S
C1575 C1573 1.327 . S
C1575 C1591 1.429 . S
C1575 H1597 0.950 . S
C1576 H1572 0.949 . S
C1576 C1584 1.574 . S
C1576 C1592 1.368 . S
H1577 C1585 0.950 . S
H1578 C1583 0.950 . S
H1579 C1584 0.949 . S
H1580 C1586 0.950 . S
H1581 C1587 0.950 . S
H1582 C1588 0.949 . S
C1583 H1578 0.950 . S
C1583 C1585 1.327 . S
C1583 C1589 1.429 . S
C1584 C1576 1.574 . S
C1584 H1579 0.949 . S
C1584 C1590 1.368 1_655 S
C1585 C1569 1.349 . S
C1585 H1577 0.950 . S
C1585 C1583 1.327 . S
C1586 C1574 1.349 . S
C1586 H1580 0.950 . S
C1586 C1587 1.327 . S
C1587 H1581 0.950 . S
C1587 C1586 1.327 . S
C1587 C1591 1.429 . S
C1588 C1571 1.574 . S
C1588 H1582 0.949 . S
C1588 C1592 1.368 1_455 S
C1589 C1570 1.429 . S
C1589 C1583 1.429 . S
C1589 C1590 1.523 . S
C1590 C1571 1.368 . S
C1590 C1584 1.368 1_455 S
C1590 C1589 1.523 . S
C1591 C1575 1.429 . S
C1591 C1587 1.429 . S
C1591 C1592 1.523 . S
C1592 C1576 1.368 . S
C1592 C1588 1.368 1_655 S
C1592 C1591 1.523 . S
H1593 C1568 0.950 . S
H1594 C1570 0.950 . S
H1595 C1571 0.949 . S
H1596 C1573 0.950 . S
H1597 C1575 0.950 . S
C1598 C1599 1.349 . S
C1598 C1600 1.327 . S
C1598 H1623 0.950 . S
C1599 C1598 1.349 . S
C1599 C1615 1.349 . S
C1600 C1598 1.327 . S
C1600 C1619 1.429 . S
C1600 H1624 0.950 . S
C1601 C1618 1.574 1_455 S
C1601 C1620 1.368 . S
C1601 H1625 0.949 . S
H1602 C1606 0.949 . S
C1603 C1604 1.349 . S
C1603 C1605 1.327 . S
C1603 H1626 0.950 . S
C1604 C1603 1.349 . S
C1604 C1616 1.349 . S
C1605 C1603 1.327 . S
C1605 C1621 1.429 . S
C1605 H1627 0.950 . S
C1606 H1602 0.949 . S
C1606 C1614 1.574 1_655 S
C1606 C1622 1.368 . S
H1607 C1615 0.950 . S
H1608 C1613 0.950 . S
H1609 C1614 0.949 . S
H1610 C1616 0.950 . S
H1611 C1617 0.950 . S
H1612 C1618 0.949 . S
C1613 H1608 0.950 . S
C1613 C1615 1.327 . S
C1613 C1619 1.429 . S
C1614 C1606 1.574 1_455 S
C1614 H1609 0.949 . S
C1614 C1620 1.368 . S
C1615 C1599 1.349 . S
C1615 H1607 0.950 . S
C1615 C1613 1.327 . S
C1616 C1604 1.349 . S
C1616 H1610 0.950 . S
C1616 C1617 1.327 . S
C1617 H1611 0.950 . S
C1617 C1616 1.327 . S
C1617 C1621 1.429 . S
C1618 C1601 1.574 1_655 S
C1618 H1612 0.949 . S
C1618 C1622 1.368 . S
C1619 C1600 1.429 . S
C1619 C1613 1.429 . S
C1619 C1620 1.523 . S
C1620 C1601 1.368 . S
C1620 C1614 1.368 . S
C1620 C1619 1.523 . S
C1621 C1605 1.429 . S
C1621 C1617 1.429 . S
C1621 C1622 1.523 . S
C1622 C1606 1.368 . S
C1622 C1618 1.368 . S
C1622 C1621 1.523 . S
H1623 C1598 0.950 . S
H1624 C1600 0.950 . S
H1625 C1601 0.949 . S
H1626 C1603 0.950 . S
H1627 C1605 0.950 . S
C1628 C1629 1.349 . S
C1628 C1630 1.327 . S
C1628 H1653 0.950 . S
C1629 C1628 1.349 . S
C1629 C1645 1.349 . S
C1630 C1628 1.327 . S
C1630 C1649 1.429 . S
C1630 H1654 0.950 . S
C1631 C1648 1.574 . S
C1631 C1650 1.368 . S
C1631 H1655 0.949 . S
H1632 C1636 0.949 . S
C1633 C1634 1.349 . S
C1633 C1635 1.327 . S
C1633 H1656 0.950 . S
C1634 C1633 1.349 . S
C1634 C1646 1.349 . S
C1635 C1633 1.327 . S
C1635 C1651 1.429 . S
C1635 H1657 0.950 . S
C1636 H1632 0.949 . S
C1636 C1644 1.574 . S
C1636 C1652 1.368 . S
H1637 C1645 0.950 . S
H1638 C1643 0.950 . S
H1639 C1644 0.949 . S
H1640 C1646 0.950 . S
H1641 C1647 0.950 . S
H1642 C1648 0.949 . S
C1643 H1638 0.950 . S
C1643 C1645 1.327 . S
C1643 C1649 1.429 . S
C1644 C1636 1.574 . S
C1644 H1639 0.949 . S
C1644 C1650 1.368 . S
C1645 C1629 1.349 . S
C1645 H1637 0.950 . S
C1645 C1643 1.327 . S
C1646 C1634 1.349 . S
C1646 H1640 0.950 . S
C1646 C1647 1.327 . S
C1647 H1641 0.950 . S
C1647 C1646 1.327 . S
C1647 C1651 1.429 . S
C1648 C1631 1.574 . S
C1648 H1642 0.949 . S
C1648 C1652 1.368 . S
C1649 C1630 1.429 . S
C1649 C1643 1.429 . S
C1649 C1650 1.523 . S
C1650 C1631 1.368 . S
C1650 C1644 1.368 . S
C1650 C1649 1.523 . S
C1651 C1635 1.429 . S
C1651 C1647 1.429 . S
C1651 C1652 1.523 . S
C1652 C1636 1.368 . S
C1652 C1648 1.368 . S
C1652 C1651 1.523 . S
H1653 C1628 0.950 . S
H1654 C1630 0.950 . S
H1655 C1631 0.949 . S
H1656 C1633 0.950 . S
H1657 C1635 0.950 . S
C1658 C1659 1.349 1_556 S
C1658 C1660 1.327 . S
C1658 H1683 0.950 . S
C1659 C1658 1.349 1_554 S
C1659 C1675 1.349 . S
C1660 C1658 1.327 . S
C1660 C1679 1.429 1_556 S
C1660 H1684 0.950 . S
C1661 C1678 1.574 . S
C1661 C1680 1.368 . S
C1661 H1685 0.949 . S
H1662 C1666 0.949 . S
C1663 C1664 1.349 . S
C1663 C1665 1.327 . S
C1663 H1686 0.950 . S
C1664 C1663 1.349 . S
C1664 C1676 1.349 1_554 S
C1665 C1663 1.327 . S
C1665 C1681 1.429 . S
C1665 H1687 0.950 . S
C1666 H1662 0.949 . S
C1666 C1674 1.574 . S
C1666 C1682 1.368 1_556 S
H1667 C1675 0.950 . S
H1668 C1673 0.950 . S
H1669 C1674 0.949 . S
H1670 C1676 0.950 . S
H1671 C1677 0.950 . S
H1672 C1678 0.949 . S
C1673 H1668 0.950 . S
C1673 C1675 1.327 . S
C1673 C1679 1.429 . S
C1674 C1666 1.574 . S
C1674 H1669 0.949 . S
C1674 C1680 1.368 1_556 S
C1675 C1659 1.349 . S
C1675 H1667 0.950 . S
C1675 C1673 1.327 . S
C1676 C1664 1.349 1_556 S
C1676 H1670 0.950 . S
C1676 C1677 1.327 . S
C1677 H1671 0.950 . S
C1677 C1676 1.327 . S
C1677 C1681 1.429 1_556 S
C1678 C1661 1.574 . S
C1678 H1672 0.949 . S
C1678 C1682 1.368 . S
C1679 C1660 1.429 1_554 S
C1679 C1673 1.429 . S
C1679 C1680 1.523 . S
C1680 C1661 1.368 . S
C1680 C1674 1.368 1_554 S
C1680 C1679 1.523 . S
C1681 C1665 1.429 . S
C1681 C1677 1.429 1_554 S
C1681 C1682 1.523 . S
C1682 C1666 1.368 1_554 S
C1682 C1678 1.368 . S
C1682 C1681 1.523 . S
H1683 C1658 0.950 . S
H1684 C1660 0.950 . S
H1685 C1661 0.949 . S
H1686 C1663 0.950 . S
H1687 C1665 0.950 . S
C1688 C1689 1.349 . S
C1688 C1690 1.327 . S
C1688 H1713 0.950 . S
C1689 C1688 1.349 . S
C1689 C1705 1.349 . S
C1690 C1688 1.327 . S
C1690 C1709 1.429 . S
C1690 H1714 0.950 . S
C1691 C1708 1.574 . S
C1691 C1710 1.368 1_655 S
C1691 H1715 0.949 . S
H1692 C1696 0.949 . S
C1693 C1694 1.349 . S
C1693 C1695 1.327 . S
C1693 H1716 0.950 . S
C1694 C1693 1.349 . S
C1694 C1706 1.349 . S
C1695 C1693 1.327 . S
C1695 C1711 1.429 . S
C1695 H1717 0.950 . S
C1696 H1692 0.949 . S
C1696 C1704 1.574 . S
C1696 C1712 1.368 1_455 S
H1697 C1705 0.950 . S
H1698 C1703 0.950 . S
H1699 C1704 0.949 . S
H1700 C1706 0.950 . S
H1701 C1707 0.950 . S
H1702 C1708 0.949 . S
C1703 H1698 0.950 . S
C1703 C1705 1.327 . S
C1703 C1709 1.429 . S
C1704 C1696 1.574 . S
C1704 H1699 0.949 . S
C1704 C1710 1.368 . S
C1705 C1689 1.349 . S
C1705 H1697 0.950 . S
C1705 C1703 1.327 . S
C1706 C1694 1.349 . S
C1706 H1700 0.950 . S
C1706 C1707 1.327 . S
C1707 H1701 0.950 . S
C1707 C1706 1.327 . S
C1707 C1711 1.429 . S
C1708 C1691 1.574 . S
C1708 H1702 0.949 . S
C1708 C1712 1.368 . S
C1709 C1690 1.429 . S
C1709 C1703 1.429 . S
C1709 C1710 1.523 . S
C1710 C1691 1.368 1_455 S
C1710 C1704 1.368 . S
C1710 C1709 1.523 . S
C1711 C1695 1.429 . S
C1711 C1707 1.429 . S
C1711 C1712 1.523 . S
C1712 C1696 1.368 1_655 S
C1712 C1708 1.368 . S
C1712 C1711 1.523 . S
H1713 C1688 0.950 . S
H1714 C1690 0.950 . S
H1715 C1691 0.949 . S
H1716 C1693 0.950 . S
H1717 C1695 0.950 . S
C1718 C1719 1.349 . S
C1718 C1720 1.327 . S
C1718 H1743 0.950 . S
C1719 C1718 1.349 . S
C1719 C1735 1.349 . S
C1720 C1718 1.327 . S
C1720 C1739 1.429 . S
C1720 H1744 0.950 . S
C1721 C1738 1.574 1_655 S
C1721 C1740 1.368 . S
C1721 H1745 0.949 . S
H1722 C1726 0.949 . S
C1723 C1724 1.349 . S
C1723 C1725 1.327 . S
C1723 H1746 0.950 . S
C1724 C1723 1.349 . S
C1724 C1736 1.349 . S
C1725 C1723 1.327 . S
C1725 C1741 1.429 . S
C1725 H1747 0.950 . S
C1726 H1722 0.949 . S
C1726 C1734 1.574 1_455 S
C1726 C1742 1.368 . S
H1727 C1735 0.950 . S
H1728 C1733 0.950 . S
H1729 C1734 0.949 . S
H1730 C1736 0.950 . S
H1731 C1737 0.950 . S
H1732 C1738 0.949 . S
C1733 H1728 0.950 . S
C1733 C1735 1.327 . S
C1733 C1739 1.429 . S
C1734 C1726 1.574 1_655 S
C1734 H1729 0.949 . S
C1734 C1740 1.368 . S
C1735 C1719 1.349 . S
C1735 H1727 0.950 . S
C1735 C1733 1.327 . S
C1736 C1724 1.349 . S
C1736 H1730 0.950 . S
C1736 C1737 1.327 . S
C1737 H1731 0.950 . S
C1737 C1736 1.327 . S
C1737 C1741 1.429 . S
C1738 C1721 1.574 1_455 S
C1738 H1732 0.949 . S
C1738 C1742 1.368 . S
C1739 C1720 1.429 . S
C1739 C1733 1.429 . S
C1739 C1740 1.523 . S
C1740 C1721 1.368 . S
C1740 C1734 1.368 . S
C1740 C1739 1.523 . S
C1741 C1725 1.429 . S
C1741 C1737 1.429 . S
C1741 C1742 1.523 . S
C1742 C1726 1.368 . S
C1742 C1738 1.368 . S
C1742 C1741 1.523 . S
H1743 C1718 0.950 . S
H1744 C1720 0.950 . S
H1745 C1721 0.949 . S
H1746 C1723 0.950 . S
H1747 C1725 0.950 . S
C1748 C1749 1.349 . S
C1748 C1750 1.327 . S
C1748 H1773 0.950 . S
C1749 C1748 1.349 . S
C1749 C1765 1.349 . S
C1750 C1748 1.327 . S
C1750 C1769 1.429 . S
C1750 H1774 0.950 . S
C1751 C1768 1.574 . S
C1751 C1770 1.368 . S
C1751 H1775 0.949 . S
H1752 C1756 0.949 . S
C1753 C1754 1.349 . S
C1753 C1755 1.327 . S
C1753 H1776 0.950 . S
C1754 C1753 1.349 . S
C1754 C1766 1.349 . S
C1755 C1753 1.327 . S
C1755 C1771 1.429 . S
C1755 H1777 0.950 . S
C1756 H1752 0.949 . S
C1756 C1764 1.574 . S
C1756 C1772 1.368 . S
H1757 C1765 0.950 . S
H1758 C1763 0.950 . S
H1759 C1764 0.949 . S
H1760 C1766 0.950 . S
H1761 C1767 0.950 . S
H1762 C1768 0.949 . S
C1763 H1758 0.950 . S
C1763 C1765 1.327 . S
C1763 C1769 1.429 . S
C1764 C1756 1.574 . S
C1764 H1759 0.949 . S
C1764 C1770 1.368 . S
C1765 C1749 1.349 . S
C1765 H1757 0.950 . S
C1765 C1763 1.327 . S
C1766 C1754 1.349 . S
C1766 H1760 0.950 . S
C1766 C1767 1.327 . S
C1767 H1761 0.950 . S
C1767 C1766 1.327 . S
C1767 C1771 1.429 . S
C1768 C1751 1.574 . S
C1768 H1762 0.949 . S
C1768 C1772 1.368 . S
C1769 C1750 1.429 . S
C1769 C1763 1.429 . S
C1769 C1770 1.523 . S
C1770 C1751 1.368 . S
C1770 C1764 1.368 . S
C1770 C1769 1.523 . S
C1771 C1755 1.429 . S
C1771 C1767 1.429 . S
C1771 C1772 1.523 . S
C1772 C1756 1.368 . S
C1772 C1768 1.368 . S
C1772 C1771 1.523 . S
H1773 C1748 0.950 . S
H1774 C1750 0.950 . S
H1775 C1751 0.949 . S
H1776 C1753 0.950 . S
H1777 C1755 0.950 . S
C1778 C1779 1.349 1_554 S
C1778 C1780 1.327 . S
C1778 H1803 0.950 . S
C1779 C1778 1.349 1_556 S
C1779 C1795 1.349 . S
C1780 C1778 1.327 . S
C1780 C1799 1.429 1_554 S
C1780 H1804 0.950 . S
C1781 C1798 1.574 . S
C1781 C1800 1.368 . S
C1781 H1805 0.949 . S
H1782 C1786 0.949 . S
C1783 C1784 1.349 . S
C1783 C1785 1.327 . S
C1783 H1806 0.950 . S
C1784 C1783 1.349 . S
C1784 C1796 1.349 1_556 S
C1785 C1783 1.327 . S
C1785 C1801 1.429 . S
C1785 H1807 0.950 . S
C1786 H1782 0.949 . S
C1786 C1794 1.574 . S
C1786 C1802 1.368 1_554 S
H1787 C1795 0.950 . S
H1788 C1793 0.950 . S
H1789 C1794 0.949 . S
H1790 C1796 0.950 . S
H1791 C1797 0.950 . S
H1792 C1798 0.949 . S
C1793 H1788 0.950 . S
C1793 C1795 1.327 . S
C1793 C1799 1.429 . S
C1794 C1786 1.574 . S
C1794 H1789 0.949 . S
C1794 C1800 1.368 1_554 S
C1795 C1779 1.349 . S
C1795 H1787 0.950 . S
C1795 C1793 1.327 . S
C1796 C1784 1.349 1_554 S
C1796 H1790 0.950 . S
C1796 C1797 1.327 . S
C1797 H1791 0.950 . S
C1797 C1796 1.327 . S
C1797 C1801 1.429 1_554 S
C1798 C1781 1.574 . S
C1798 H1792 0.949 . S
C1798 C1802 1.368 . S
C1799 C1780 1.429 1_556 S
C1799 C1793 1.429 . S
C1799 C1800 1.523 . S
C1800 C1781 1.368 . S
C1800 C1794 1.368 1_556 S
C1800 C1799 1.523 . S
C1801 C1785 1.429 . S
C1801 C1797 1.429 1_556 S
C1801 C1802 1.523 . S
C1802 C1786 1.368 1_556 S
C1802 C1798 1.368 . S
C1802 C1801 1.523 . S
H1803 C1778 0.950 . S
H1804 C1780 0.950 . S
H1805 C1781 0.949 . S
H1806 C1783 0.950 . S
H1807 C1785 0.950 . S
C369 C17 1.361 . S
C374 C156 1.402 . S
C399 C363 1.386 . S
C404 C40 1.345 . S
C429 C63 1.349 . S
C434 C110 1.390 . S
C459 C317 1.345 . S
C464 C86 1.312 . S
C489 C64 1.402 . S
C494 C109 1.361 . S
C519 C271 1.386 . S
C524 C132 1.345 . S
C549 C155 1.349 . S
C554 C18 1.390 . S
C579 C178 1.316 . S
C584 C225 1.343 . S
C609 C201 1.349 . S
C614 C340 1.390 . S
C639 C224 1.316 1_545 S
C644 C179 1.343 . S
C669 C294 1.402 . S
C674 C247 1.361 . S
C699 C133 1.386 . S
C704 C270 1.345 1_565 S
C729 C248 1.390 . S
C734 C293 1.349 . S
C759 C316 1.316 1_565 S
C764 C87 1.343 . S
C789 C202 1.402 . S
C794 C339 1.361 . S
C819 C41 1.386 . S
C824 C362 1.345 1_545 S
C849 C21 0.093 . S
C854 C297 0.094 . S
C879 C44 0.092 . S
C884 C136 0.092 . S
C909 C67 0.094 . S
C914 C343 0.093 . S
C939 C182 0.043 . S
C944 C90 0.043 . S
C969 C113 0.093 . S
C974 C205 0.094 . S
C999 C251 0.093 . S
C1004 C159 0.094 . S
C1029 C228 0.043 . S
C1034 C320 0.043 . S
C1059 C366 0.092 . S
C1064 C274 0.092 . S
C1089 C19 1.496 . S
C1094 C43 1.468 . S
C1119 C66 1.516 . S
C1124 C42 1.547 . S
C1149 C65 1.740 . S
C1154 C89 1.720 . S
C1179 C88 1.285 . S
C1184 C20 1.252 . S
C1209 C135 1.468 . S
C1214 C111 1.496 . S
C1239 C158 1.516 . S
C1244 C134 1.547 . S
C1269 C181 1.712 . S
C1274 C157 1.747 . S
C1299 C112 1.260 . S
C1304 C180 1.277 . S
C1329 C203 1.739 . S
C1334 C227 1.720 . S
C1359 C226 1.285 . S
C1364 C250 1.252 . S
C1389 C273 1.467 . S
C1394 C249 1.496 . S
C1419 C272 1.547 . S
C1424 C204 1.516 . S
C1449 C319 1.712 . S
C1454 C295 1.747 . S
C1479 C318 1.285 . S
C1484 C342 1.252 . S
C1509 C341 1.496 . S
C1514 C365 1.467 . S
C1539 C296 1.516 . S
C1544 C364 1.547 . S
C1569 C16 1.427 . S
C1574 C246 1.427 . S
C1599 C39 1.420 . S
C1604 C269 1.420 . S
C1629 C62 1.437 . S
C1634 C200 1.437 . S
C1659 C223 1.399 . S
C1664 C85 1.399 . S
C1689 C338 1.427 . S
C1694 C108 1.427 . S
C1719 C131 1.420 . S
C1724 C361 1.420 . S
C1749 C154 1.437 . S
C1754 C292 1.437 . S
C1779 C315 1.399 . S
C1784 C177 1.399 . S
