# Generated by pormake.
# Topology pcl, (4)-cn, num edge types: 1
# Building blocks:
#     Node 0, Type 0, BuildingBlock: KUFVIS_clean_sbu_0, # of connection points: 4
#     Node 1, Type 0, BuildingBlock: KUFVIS_clean_sbu_0, # of connection points: 4
#     Node 2, Type 0, BuildingBlock: KUFVIS_clean_sbu_0, # of connection points: 4
#     Node 3, Type 0, BuildingBlock: KUFVIS_clean_sbu_0, # of connection points: 4
#     Node 4, Type 0, BuildingBlock: KUFVIS_clean_sbu_0, # of connection points: 4
#     Node 5, Type 0, BuildingBlock: KUFVIS_clean_sbu_0, # of connection points: 4
#     Node 6, Type 0, BuildingBlock: KUFVIS_clean_sbu_0, # of connection points: 4
#     Node 7, Type 0, BuildingBlock: KUFVIS_clean_sbu_0, # of connection points: 4
#     Node 8, Type 0, BuildingBlock: KUFVIS_clean_sbu_0, # of connection points: 4
#     Node 9, Type 0, BuildingBlock: KUFVIS_clean_sbu_0, # of connection points: 4
#     Node 10, Type 0, BuildingBlock: KUFVIS_clean_sbu_0, # of connection points: 4
#     Node 11, Type 0, BuildingBlock: KUFVIS_clean_sbu_0, # of connection points: 4
#     Node 12, Type 0, BuildingBlock: KUFVIS_clean_sbu_0, # of connection points: 4
#     Node 13, Type 0, BuildingBlock: KUFVIS_clean_sbu_0, # of connection points: 4
#     Node 14, Type 0, BuildingBlock: KUFVIS_clean_sbu_0, # of connection points: 4
#     Node 15, Type 0, BuildingBlock: KUFVIS_clean_sbu_0, # of connection points: 4
#     Edge 16, Type (0, 0), None
#     Edge 17, Type (0, 0), None
#     Edge 18, Type (0, 0), None
#     Edge 19, Type (0, 0), None
#     Edge 20, Type (0, 0), None
#     Edge 21, Type (0, 0), None
#     Edge 22, Type (0, 0), None
#     Edge 23, Type (0, 0), None
#     Edge 24, Type (0, 0), None
#     Edge 25, Type (0, 0), None
#     Edge 26, Type (0, 0), None
#     Edge 27, Type (0, 0), None
#     Edge 28, Type (0, 0), None
#     Edge 29, Type (0, 0), None
#     Edge 30, Type (0, 0), None
#     Edge 31, Type (0, 0), None
#     Edge 32, Type (0, 0), None
#     Edge 33, Type (0, 0), None
#     Edge 34, Type (0, 0), None
#     Edge 35, Type (0, 0), None
#     Edge 36, Type (0, 0), None
#     Edge 37, Type (0, 0), None
#     Edge 38, Type (0, 0), None
#     Edge 39, Type (0, 0), None
#     Edge 40, Type (0, 0), None
#     Edge 41, Type (0, 0), None
#     Edge 42, Type (0, 0), None
#     Edge 43, Type (0, 0), None
#     Edge 44, Type (0, 0), None
#     Edge 45, Type (0, 0), None
#     Edge 46, Type (0, 0), None
#     Edge 47, Type (0, 0), None
# Relax obj value: 0.074
# Max RMSD: 0.061
# Mean RMSD: 0.059
data_MOF--net-pcl--node1-KUFVIS_clean_sbu_0--edge1-none
_symmetry_space_group_name_H-M    P1
_symmetry_Int_Tables_number       1
_symmetry_cell_setting            triclinic
loop_
_symmetry_equiv_pos_as_xyz
'x, y, z'
_cell_length_a     22.386645
_cell_length_b     19.657331
_cell_length_c     19.238635
_cell_angle_alpha  90.000037
_cell_angle_beta   90.001076
_cell_angle_gamma 90.001985
loop_
_atom_site_label
_atom_site_type_symbol
_atom_site_fract_x
_atom_site_fract_y
_atom_site_fract_z
_atom_type_partial_charge
Mn0 Mn 0.18028 0.34573 0.08109 0.0
Mn1 Mn 0.32613 0.39161 0.10176 0.0
C2 C 0.22648 0.32864 0.18929 0.0
C3 C 0.07476 0.36064 0.09718 0.0
C4 C 0.28605 0.27693 0.0048 0.0
O5 O 0.18856 0.42739 0.01341 0.0
O6 O 0.28589 0.45253 0.03386 0.0
C7 C 0.35165 0.53084 0.13801 0.0
N8 N 0.34509 0.46581 0.16181 0.0
C9 C 0.41414 0.4887 0.25547 0.0
C10 C 0.4189 0.55611 0.2331 0.0
C11 C 0.38959 0.57636 0.17245 0.0
C12 C 0.37883 0.44365 0.21606 0.0
H13 H 0.33109 0.54711 0.09013 0.0
C14 C 0.2352 0.46491 0.0052 0.0
O15 O 0.095 0.32119 0.04864 0.0
O16 O 0.11512 0.38982 0.13301 0.0
N17 N 0.36794 0.3359 0.16732 0.0
C18 C 0.38964 0.27202 0.15563 0.0
C19 C 0.43211 0.24399 0.20084 0.0
C20 C 0.4518 0.28139 0.25826 0.0
C21 C 0.43208 0.34839 0.26704 0.0
C22 C 0.38973 0.3744 0.21985 0.0
H23 H 0.37595 0.24278 0.11102 0.0
O24 O 0.18724 0.28636 0.16436 0.0
O25 O 0.24592 0.37444 0.14566 0.0
O26 O 0.22985 0.27959 0.01582 0.0
O27 O 0.32149 0.3166 0.03575 0.0
C28 C 0.45901 0.39251 0.31519 0.0
C29 C 0.45062 0.46296 0.30882 0.0
H30 H 0.44787 0.59177 0.25972 0.0
H31 H 0.39601 0.62726 0.15233 0.0
H32 H 0.44947 0.19341 0.19151 0.0
H33 H 0.4851 0.25967 0.2926 0.0
H34 H 0.491 0.37347 0.35272 0.0
H35 H 0.47666 0.497 0.34115 0.0
Mn36 Mn 0.92502 0.64291 0.58109 0.0
Mn37 Mn 0.77917 0.59703 0.60176 0.0
C38 C 0.87882 0.66 0.68929 0.0
C39 C 1.03054 0.628 0.59718 0.0
C40 C 0.81925 0.71171 0.5048 0.0
O41 O 0.91674 0.56125 0.51341 0.0
O42 O 0.81942 0.53611 0.53385 0.0
C43 C 0.75365 0.4578 0.638 0.0
N44 N 0.76021 0.52283 0.6618 0.0
C45 C 0.69117 0.49994 0.75546 0.0
C46 C 0.6864 0.43252 0.73309 0.0
C47 C 0.71571 0.41228 0.67243 0.0
C48 C 0.72647 0.54498 0.71605 0.0
H49 H 0.77421 0.44153 0.59012 0.0
C50 C 0.8701 0.52374 0.50519 0.0
O51 O 1.0103 0.66745 0.54864 0.0
O52 O 0.99018 0.59882 0.63301 0.0
N53 N 0.73736 0.65274 0.66732 0.0
C54 C 0.71566 0.71661 0.65563 0.0
C55 C 0.67319 0.74465 0.70084 0.0
C56 C 0.6535 0.70725 0.75825 0.0
C57 C 0.67322 0.64025 0.76703 0.0
C58 C 0.71557 0.61423 0.71985 0.0
H59 H 0.72935 0.74586 0.61102 0.0
O60 O 0.91806 0.70228 0.66437 0.0
O61 O 0.85938 0.6142 0.64566 0.0
O62 O 0.87545 0.70906 0.51582 0.0
O63 O 0.78381 0.67204 0.53574 0.0
C64 C 0.64629 0.59612 0.81518 0.0
C65 C 0.65468 0.52567 0.80881 0.0
H66 H 0.65743 0.39686 0.7597 0.0
H67 H 0.7093 0.36138 0.65232 0.0
H68 H 0.65582 0.79522 0.6915 0.0
H69 H 0.6202 0.72896 0.7926 0.0
H70 H 0.6143 0.61516 0.85271 0.0
H71 H 0.62864 0.49163 0.84113 0.0
Mn72 Mn 0.18028 0.64297 0.88104 0.0
Mn73 Mn 0.32613 0.59709 0.86039 0.0
C74 C 0.22649 0.66001 0.77283 0.0
C75 C 0.07476 0.62807 0.86493 0.0
C76 C 0.28605 0.71179 0.95732 0.0
O77 O 0.18856 0.56132 0.94873 0.0
O78 O 0.28589 0.53618 0.9283 0.0
C79 C 0.35163 0.45785 0.82415 0.0
N80 N 0.34509 0.52288 0.80036 0.0
C81 C 0.41412 0.49998 0.70669 0.0
C82 C 0.41887 0.43256 0.72906 0.0
C83 C 0.38956 0.41232 0.78971 0.0
C84 C 0.37882 0.54503 0.7461 0.0
H85 H 0.33106 0.44158 0.87203 0.0
C86 C 0.2352 0.5238 0.95696 0.0
O87 O 0.095 0.66752 0.91347 0.0
O88 O 0.11512 0.59887 0.82911 0.0
N89 N 0.36795 0.65279 0.79483 0.0
C90 C 0.38966 0.71666 0.80652 0.0
C91 C 0.43213 0.74469 0.76129 0.0
C92 C 0.45181 0.70729 0.70388 0.0
C93 C 0.43209 0.64029 0.69511 0.0
C94 C 0.38974 0.61428 0.7423 0.0
H95 H 0.37598 0.74591 0.85112 0.0
O96 O 0.18726 0.70231 0.79774 0.0
O97 O 0.24592 0.61424 0.81648 0.0
O98 O 0.22985 0.70913 0.9463 0.0
O99 O 0.32149 0.67211 0.92639 0.0
C100 C 0.459 0.59615 0.64696 0.0
C101 C 0.4506 0.5257 0.65334 0.0
H102 H 0.44783 0.39689 0.70244 0.0
H103 H 0.39596 0.36141 0.80982 0.0
H104 H 0.4495 0.79527 0.77063 0.0
H105 H 0.4851 0.729 0.66953 0.0
H106 H 0.49099 0.61519 0.60943 0.0
H107 H 0.47663 0.49166 0.62101 0.0
Mn108 Mn 0.92502 0.34567 0.38104 0.0
Mn109 Mn 0.77917 0.39155 0.36039 0.0
C110 C 0.87881 0.32863 0.27283 0.0
C111 C 1.03054 0.36058 0.36493 0.0
C112 C 0.81925 0.27686 0.45732 0.0
O113 O 0.91674 0.42733 0.44873 0.0
O114 O 0.81941 0.45246 0.4283 0.0
C115 C 0.75366 0.53079 0.32415 0.0
N116 N 0.76021 0.46576 0.30035 0.0
C117 C 0.69118 0.48866 0.20668 0.0
C118 C 0.68643 0.55607 0.22904 0.0
C119 C 0.71574 0.57631 0.2897 0.0
C120 C 0.72648 0.4436 0.24609 0.0
H121 H 0.77423 0.54705 0.37202 0.0
C122 C 0.8701 0.46484 0.45695 0.0
O123 O 1.0103 0.32112 0.41347 0.0
O124 O 0.99018 0.38977 0.32911 0.0
N125 N 0.73735 0.33585 0.29482 0.0
C126 C 0.71564 0.27198 0.30651 0.0
C127 C 0.67318 0.24394 0.26129 0.0
C128 C 0.65349 0.28135 0.20388 0.0
C129 C 0.67321 0.34835 0.1951 0.0
C130 C 0.71556 0.37436 0.2423 0.0
H131 H 0.72932 0.24273 0.35112 0.0
O132 O 0.91804 0.28633 0.29774 0.0
O133 O 0.85938 0.3744 0.31648 0.0
O134 O 0.87545 0.27951 0.4463 0.0
O135 O 0.78381 0.31653 0.42639 0.0
C136 C 0.6463 0.39248 0.14695 0.0
C137 C 0.6547 0.46293 0.15332 0.0
H138 H 0.65747 0.59174 0.20242 0.0
H139 H 0.70934 0.62722 0.30981 0.0
H140 H 0.6558 0.19336 0.27062 0.0
H141 H 0.6202 0.25963 0.16952 0.0
H142 H 0.61431 0.37343 0.10942 0.0
H143 H 0.62867 0.49697 0.121 0.0
Mn144 Mn 0.87813 0.65048 0.88979 0.0
Mn145 Mn 0.92338 0.51053 0.8078 0.0
C146 C 0.87686 0.65222 0.7669 0.0
C147 C 0.81698 0.72595 0.95855 0.0
C148 C 1.0103 0.61312 0.85202 0.0
O149 O 0.86693 0.57594 0.96212 0.0
O150 O 0.93226 0.51328 0.9079 0.0
C151 C 0.80911 0.45006 0.86103 0.0
N152 N 0.853 0.4547 0.81191 0.0
C153 C 0.81702 0.35486 0.75541 0.0
C154 C 0.77945 0.34239 0.81216 0.0
C155 C 0.77302 0.39207 0.8635 0.0
C156 C 0.85131 0.41413 0.75584 0.0
H157 H 0.80035 0.49021 0.89742 0.0
C158 C 0.89368 0.51972 0.95415 0.0
O159 O 0.87421 0.72133 0.96338 0.0
O160 O 0.79292 0.68678 0.91148 0.0
N161 N 0.92725 0.48261 0.7122 0.0
C162 C 0.98046 0.47881 0.67837 0.0
C163 C 0.98798 0.439 0.61874 0.0
C164 C 0.94403 0.3922 0.60115 0.0
C165 C 0.89538 0.38436 0.64564 0.0
C166 C 0.8888 0.43021 0.70164 0.0
H167 H 1.01764 0.50625 0.69742 0.0
O168 O 0.88494 0.70621 0.80478 0.0
O169 O 0.87078 0.59468 0.80138 0.0
O170 O 0.97128 0.64066 0.89166 0.0
O171 O 0.99606 0.56905 0.80525 0.0
C172 C 0.8599 0.32585 0.64313 0.0
C173 C 0.82207 0.31048 0.69885 0.0
H174 H 0.75276 0.29713 0.81472 0.0
H175 H 0.74019 0.38598 0.90433 0.0
H176 H 1.02951 0.44069 0.58995 0.0
H177 H 0.95166 0.35719 0.55857 0.0
H178 H 0.86648 0.28877 0.60247 0.0
H179 H 0.8014 0.26176 0.70093 0.0
Mn180 Mn 0.22717 0.33817 0.38979 0.0
Mn181 Mn 0.18192 0.47811 0.3078 0.0
C182 C 0.22844 0.33642 0.2669 0.0
C183 C 0.28832 0.2627 0.45855 0.0
C184 C 0.095 0.37552 0.35202 0.0
O185 O 0.23837 0.4127 0.46213 0.0
O186 O 0.17304 0.47536 0.40789 0.0
C187 C 0.29619 0.53858 0.36103 0.0
N188 N 0.2523 0.53394 0.31191 0.0
C189 C 0.28828 0.63377 0.25541 0.0
C190 C 0.32585 0.64625 0.31216 0.0
C191 C 0.33229 0.59657 0.36351 0.0
C192 C 0.25399 0.57451 0.25584 0.0
H193 H 0.30495 0.49843 0.39742 0.0
C194 C 0.21162 0.46892 0.45415 0.0
O195 O 0.23109 0.26731 0.46338 0.0
O196 O 0.31238 0.30186 0.41148 0.0
N197 N 0.17805 0.50603 0.2122 0.0
C198 C 0.12483 0.50984 0.17837 0.0
C199 C 0.11732 0.54964 0.11874 0.0
C200 C 0.16127 0.59644 0.10114 0.0
C201 C 0.20992 0.60428 0.14564 0.0
C202 C 0.2165 0.55843 0.20164 0.0
H203 H 0.08766 0.4824 0.19741 0.0
O204 O 0.22036 0.28243 0.30478 0.0
O205 O 0.23452 0.39397 0.30138 0.0
O206 O 0.13402 0.34798 0.39166 0.0
O207 O 0.10924 0.41959 0.30524 0.0
C208 C 0.2454 0.66279 0.14313 0.0
C209 C 0.28323 0.67816 0.19885 0.0
H210 H 0.35255 0.69151 0.31472 0.0
H211 H 0.36511 0.60265 0.40434 0.0
H212 H 0.07579 0.54796 0.08994 0.0
H213 H 0.15364 0.63145 0.05856 0.0
H214 H 0.23882 0.69987 0.10247 0.0
H215 H 0.30391 0.72687 0.20093 0.0
Mn216 Mn 0.87813 0.33826 0.07234 0.0
Mn217 Mn 0.92341 0.47817 0.15441 0.0
C218 C 0.87687 0.33645 0.19522 0.0
C219 C 0.81697 0.2628 0.00356 0.0
C220 C 1.01031 0.37559 0.11009 0.0
O221 O 0.86692 0.41284 5e-05 0.0
O222 O 0.93225 0.47551 0.05431 0.0
C223 C 0.80918 0.53876 0.10127 0.0
N224 N 0.85306 0.53403 0.15039 0.0
C225 C 0.81714 0.63383 0.20701 0.0
C226 C 0.77957 0.64639 0.15028 0.0
C227 C 0.77311 0.59677 0.09887 0.0
C228 C 0.8514 0.57454 0.20651 0.0
H229 H 0.80039 0.49866 0.06483 0.0
C230 C 0.89367 0.46905 0.00805 0.0
O231 O 0.8742 0.26744 -0.00129 0.0
O232 O 0.79292 0.30195 0.05064 0.0
N233 N 0.92735 0.50601 0.25003 0.0
C234 C 0.98059 0.50979 0.2838 0.0
C235 C 0.98817 0.54956 0.34344 0.0
C236 C 0.94424 0.59636 0.36112 0.0
C237 C 0.89555 0.60423 0.31669 0.0
C238 C 0.88892 0.55841 0.26067 0.0
H239 H 1.01774 0.48233 0.26471 0.0
O240 O 0.88494 0.28249 0.15731 0.0
O241 O 0.8708 0.39402 0.16078 0.0
O242 O 0.97127 0.34807 0.07045 0.0
O243 O 0.99608 0.41964 0.15689 0.0
C244 C 0.8601 0.66275 0.31928 0.0
C245 C 0.82224 0.67817 0.2636 0.0
H246 H 0.7529 0.69166 0.14777 0.0
H247 H 0.74028 0.60292 0.05805 0.0
H248 H 1.02972 0.54785 0.37219 0.0
H249 H 0.95192 0.63134 0.40371 0.0
H250 H 0.86674 0.69981 0.35994 0.0
H251 H 0.8016 0.72691 0.26158 0.0
Mn252 Mn 0.22717 0.65038 0.57234 0.0
Mn253 Mn 0.18189 0.51047 0.65441 0.0
C254 C 0.22843 0.65219 0.69522 0.0
C255 C 0.28833 0.72584 0.50356 0.0
C256 C 0.095 0.61305 0.61009 0.0
O257 O 0.23838 0.57581 0.50005 0.0
O258 O 0.17305 0.51313 0.55431 0.0
C259 C 0.29612 0.44988 0.60127 0.0
N260 N 0.25224 0.45461 0.65039 0.0
C261 C 0.28816 0.35481 0.70701 0.0
C262 C 0.32573 0.34225 0.65028 0.0
C263 C 0.33219 0.39187 0.59887 0.0
C264 C 0.2539 0.4141 0.7065 0.0
H265 H 0.30491 0.48999 0.56483 0.0
C266 C 0.21163 0.51959 0.50805 0.0
O267 O 0.2311 0.72121 0.49871 0.0
O268 O 0.31238 0.68669 0.55064 0.0
N269 N 0.17795 0.48263 0.75003 0.0
C270 C 0.12471 0.47885 0.78379 0.0
C271 C 0.11713 0.43908 0.84344 0.0
C272 C 0.16106 0.39229 0.86111 0.0
C273 C 0.20975 0.38441 0.81669 0.0
C274 C 0.21639 0.43023 0.76067 0.0
H275 H 0.08757 0.50631 0.7647 0.0
O276 O 0.22036 0.70616 0.65731 0.0
O277 O 0.2345 0.59462 0.66078 0.0
O278 O 0.13403 0.64057 0.57045 0.0
O279 O 0.10922 0.569 0.65689 0.0
C280 C 0.2452 0.32589 0.81927 0.0
C281 C 0.28306 0.31046 0.76359 0.0
H282 H 0.3524 0.29698 0.64777 0.0
H283 H 0.36502 0.38572 0.55805 0.0
H284 H 0.07558 0.4408 0.87219 0.0
H285 H 0.15338 0.3573 0.9037 0.0
H286 H 0.23856 0.28883 0.85993 0.0
H287 H 0.3037 0.26172 0.76158 0.0
Mn288 Mn 0.68028 0.84573 0.08109 0.0
Mn289 Mn 0.82613 0.89161 0.10176 0.0
C290 C 0.72648 0.82865 0.18929 0.0
C291 C 0.57476 0.86064 0.09718 0.0
C292 C 0.78605 0.77694 0.0048 0.0
O293 O 0.68856 0.9274 0.01341 0.0
O294 O 0.78589 0.95253 0.03385 0.0
C295 C 0.85165 0.03084 0.13801 0.0
N296 N 0.84509 0.96581 0.1618 0.0
C297 C 0.91414 0.9887 0.25547 0.0
C298 C 0.9189 0.05611 0.2331 0.0
C299 C 0.88959 0.07636 0.17244 0.0
C300 C 0.87883 0.94365 0.21606 0.0
H301 H 0.83109 0.04711 0.09013 0.0
C302 C 0.7352 0.96491 0.00519 0.0
O303 O 0.595 0.82119 0.04864 0.0
O304 O 0.61512 0.88982 0.13301 0.0
N305 N 0.86794 0.8359 0.16732 0.0
C306 C 0.88964 0.77203 0.15563 0.0
C307 C 0.93211 0.74399 0.20084 0.0
C308 C 0.9518 0.78139 0.25826 0.0
C309 C 0.93208 0.84839 0.26704 0.0
C310 C 0.88974 0.8744 0.21985 0.0
H311 H 0.87595 0.74278 0.11102 0.0
O312 O 0.68724 0.78637 0.16436 0.0
O313 O 0.74592 0.87444 0.14566 0.0
O314 O 0.72985 0.77959 0.01582 0.0
O315 O 0.82149 0.8166 0.03575 0.0
C316 C 0.95901 0.89251 0.31519 0.0
C317 C 0.95062 0.96297 0.30882 0.0
H318 H 0.94787 0.09178 0.25972 0.0
H319 H 0.89601 0.12726 0.15233 0.0
H320 H 0.94948 0.69341 0.19151 0.0
H321 H 0.9851 0.75967 0.2926 0.0
H322 H 0.991 0.87347 0.35271 0.0
H323 H 0.97666 -0.00299 0.34114 0.0
Mn324 Mn 0.42502 0.14291 0.58109 0.0
Mn325 Mn 0.27917 0.09703 0.60176 0.0
C326 C 0.37882 0.15999 0.68929 0.0
C327 C 0.53054 0.128 0.59718 0.0
C328 C 0.31925 0.21171 0.5048 0.0
O329 O 0.41674 0.06125 0.51341 0.0
O330 O 0.31942 0.03611 0.53385 0.0
C331 C 0.25365 0.9578 0.638 0.0
N332 N 0.26021 0.02283 0.6618 0.0
C333 C 0.19117 -7e-05 0.75546 0.0
C334 C 0.18641 0.93252 0.73309 0.0
C335 C 0.21571 0.91228 0.67243 0.0
C336 C 0.22647 0.04498 0.71605 0.0
H337 H 0.27421 0.94153 0.59012 0.0
C338 C 0.3701 0.02374 0.50519 0.0
O339 O 0.5103 0.16745 0.54864 0.0
O340 O 0.49018 0.09882 0.63301 0.0
N341 N 0.23736 0.15273 0.66732 0.0
C342 C 0.21566 0.21661 0.65563 0.0
C343 C 0.17319 0.24464 0.70084 0.0
C344 C 0.1535 0.20724 0.75825 0.0
C345 C 0.17322 0.14024 0.76703 0.0
C346 C 0.21557 0.11423 0.71985 0.0
H347 H 0.22935 0.24586 0.61102 0.0
O348 O 0.41806 0.20227 0.66437 0.0
O349 O 0.35938 0.1142 0.64566 0.0
O350 O 0.37545 0.20906 0.51582 0.0
O351 O 0.28381 0.17204 0.53574 0.0
C352 C 0.14629 0.09612 0.81518 0.0
C353 C 0.15468 0.02566 0.80881 0.0
H354 H 0.15743 0.89685 0.7597 0.0
H355 H 0.2093 0.86137 0.65232 0.0
H356 H 0.15582 0.29522 0.6915 0.0
H357 H 0.1202 0.22896 0.7926 0.0
H358 H 0.1143 0.11516 0.8527 0.0
H359 H 0.12864 0.99162 0.84113 0.0
Mn360 Mn 0.68028 0.14297 0.88104 0.0
Mn361 Mn 0.82613 0.09709 0.86039 0.0
C362 C 0.72649 0.16001 0.77283 0.0
C363 C 0.57476 0.12807 0.86493 0.0
C364 C 0.78605 0.21179 0.95732 0.0
O365 O 0.68856 0.06132 0.94873 0.0
O366 O 0.78589 0.03618 0.9283 0.0
C367 C 0.85163 0.95785 0.82416 0.0
N368 N 0.84509 0.02288 0.80036 0.0
C369 C 0.91412 -2e-05 0.70669 0.0
C370 C 0.91887 0.93256 0.72906 0.0
C371 C 0.88956 0.91232 0.78971 0.0
C372 C 0.87882 0.04503 0.7461 0.0
H373 H 0.83107 0.94159 0.87203 0.0
C374 C 0.7352 0.02381 0.95696 0.0
O375 O 0.595 0.16752 0.91347 0.0
O376 O 0.61512 0.09887 0.82911 0.0
N377 N 0.86795 0.15279 0.79483 0.0
C378 C 0.88966 0.21666 0.80652 0.0
C379 C 0.93213 0.24469 0.7613 0.0
C380 C 0.95181 0.20729 0.70388 0.0
C381 C 0.93209 0.14029 0.69511 0.0
C382 C 0.88974 0.11428 0.7423 0.0
H383 H 0.87598 0.24591 0.85112 0.0
O384 O 0.68726 0.20231 0.79774 0.0
O385 O 0.74592 0.11424 0.81648 0.0
O386 O 0.72985 0.20913 0.9463 0.0
O387 O 0.82149 0.17211 0.9264 0.0
C388 C 0.959 0.09616 0.64696 0.0
C389 C 0.9506 0.0257 0.65334 0.0
H390 H 0.94783 0.89689 0.70244 0.0
H391 H 0.89596 0.86142 0.80982 0.0
H392 H 0.9495 0.29527 0.77063 0.0
H393 H 0.9851 0.229 0.66953 0.0
H394 H 0.99099 0.1152 0.60943 0.0
H395 H 0.97663 0.99166 0.62101 0.0
Mn396 Mn 0.42502 0.84567 0.38104 0.0
Mn397 Mn 0.27917 0.89155 0.36039 0.0
C398 C 0.37881 0.82863 0.27283 0.0
C399 C 0.53054 0.86058 0.36493 0.0
C400 C 0.31925 0.77685 0.45732 0.0
O401 O 0.41674 0.92733 0.44873 0.0
O402 O 0.31941 0.95246 0.4283 0.0
C403 C 0.25366 0.03078 0.32415 0.0
N404 N 0.26021 0.96575 0.30035 0.0
C405 C 0.19118 0.98865 0.20668 0.0
C406 C 0.18643 0.05607 0.22905 0.0
C407 C 0.21574 0.07631 0.2897 0.0
C408 C 0.22647 0.9436 0.24609 0.0
H409 H 0.27423 0.04705 0.37202 0.0
C410 C 0.3701 0.96484 0.45695 0.0
O411 O 0.5103 0.82112 0.41347 0.0
O412 O 0.49018 0.88977 0.32911 0.0
N413 N 0.23735 0.83585 0.29482 0.0
C414 C 0.21564 0.77198 0.30652 0.0
C415 C 0.17318 0.74394 0.26129 0.0
C416 C 0.15349 0.78134 0.20388 0.0
C417 C 0.17321 0.84834 0.1951 0.0
C418 C 0.21556 0.87435 0.2423 0.0
H419 H 0.22932 0.74272 0.35112 0.0
O420 O 0.41804 0.78633 0.29774 0.0
O421 O 0.35938 0.8744 0.31648 0.0
O422 O 0.37545 0.77951 0.4463 0.0
O423 O 0.28381 0.81653 0.42639 0.0
C424 C 0.1463 0.89247 0.14695 0.0
C425 C 0.15469 0.96293 0.15332 0.0
H426 H 0.15747 0.09174 0.20242 0.0
H427 H 0.20934 0.12722 0.30981 0.0
H428 H 0.1558 0.69336 0.27063 0.0
H429 H 0.1202 0.75963 0.16952 0.0
H430 H 0.11431 0.87343 0.10942 0.0
H431 H 0.12866 -0.00303 0.121 0.0
Mn432 Mn 0.37813 0.15048 0.88979 0.0
Mn433 Mn 0.42338 0.01053 0.8078 0.0
C434 C 0.37686 0.15222 0.7669 0.0
C435 C 0.31698 0.22595 0.95855 0.0
C436 C 0.5103 0.11312 0.85202 0.0
O437 O 0.36693 0.07594 0.96213 0.0
O438 O 0.43226 0.01328 0.9079 0.0
C439 C 0.30911 0.95006 0.86103 0.0
N440 N 0.353 0.9547 0.81191 0.0
C441 C 0.31702 0.85486 0.7554 0.0
C442 C 0.27945 0.84239 0.81216 0.0
C443 C 0.27302 0.89207 0.8635 0.0
C444 C 0.35131 0.91413 0.75584 0.0
H445 H 0.30035 0.99021 0.89742 0.0
C446 C 0.39368 0.01972 0.95415 0.0
O447 O 0.37421 0.22133 0.96338 0.0
O448 O 0.29292 0.18678 0.91148 0.0
N449 N 0.42725 0.98261 0.7122 0.0
C450 C 0.48046 0.97881 0.67837 0.0
C451 C 0.48798 0.939 0.61874 0.0
C452 C 0.44403 0.8922 0.60115 0.0
C453 C 0.39538 0.88436 0.64564 0.0
C454 C 0.3888 0.93021 0.70164 0.0
H455 H 0.51764 0.00624 0.69742 0.0
O456 O 0.38494 0.20621 0.80477 0.0
O457 O 0.37078 0.09467 0.80138 0.0
O458 O 0.47128 0.14066 0.89166 0.0
O459 O 0.49606 0.06905 0.80525 0.0
C460 C 0.3599 0.82585 0.64313 0.0
C461 C 0.32207 0.81048 0.69885 0.0
H462 H 0.25276 0.79713 0.81472 0.0
H463 H 0.24019 0.88598 0.90433 0.0
H464 H 0.52951 0.94069 0.58995 0.0
H465 H 0.45166 0.85719 0.55857 0.0
H466 H 0.36648 0.78877 0.60247 0.0
H467 H 0.3014 0.76176 0.70093 0.0
Mn468 Mn 0.72717 0.83817 0.38979 0.0
Mn469 Mn 0.68192 0.97811 0.3078 0.0
C470 C 0.72844 0.83642 0.2669 0.0
C471 C 0.78832 0.76269 0.45855 0.0
C472 C 0.595 0.87552 0.35202 0.0
O473 O 0.73837 0.9127 0.46213 0.0
O474 O 0.67304 0.97536 0.40789 0.0
C475 C 0.79619 0.03858 0.36103 0.0
N476 N 0.75229 0.03394 0.31191 0.0
C477 C 0.78828 0.13377 0.2554 0.0
C478 C 0.82585 0.14625 0.31216 0.0
C479 C 0.83228 0.09657 0.3635 0.0
C480 C 0.75399 0.07451 0.25584 0.0
H481 H 0.80495 -0.00157 0.39742 0.0
C482 C 0.71162 0.96892 0.45415 0.0
O483 O 0.73108 0.76731 0.46338 0.0
O484 O 0.81238 0.80186 0.41148 0.0
N485 N 0.67804 0.00603 0.2122 0.0
C486 C 0.62483 0.00984 0.17837 0.0
C487 C 0.61732 0.04964 0.11874 0.0
C488 C 0.66127 0.09644 0.10114 0.0
C489 C 0.70992 0.10428 0.14563 0.0
C490 C 0.7165 0.05843 0.20163 0.0
H491 H 0.58766 0.9824 0.19741 0.0
O492 O 0.72036 0.78243 0.30478 0.0
O493 O 0.73452 0.89397 0.30138 0.0
O494 O 0.63402 0.84798 0.39166 0.0
O495 O 0.60924 0.91959 0.30524 0.0
C496 C 0.7454 0.16279 0.14312 0.0
C497 C 0.78323 0.17816 0.19885 0.0
H498 H 0.85255 0.19151 0.31472 0.0
H499 H 0.86511 0.10265 0.40434 0.0
H500 H 0.57579 0.04796 0.08994 0.0
H501 H 0.65364 0.13145 0.05856 0.0
H502 H 0.73882 0.19987 0.10247 0.0
H503 H 0.80391 0.22687 0.20093 0.0
Mn504 Mn 0.37813 0.83826 0.07234 0.0
Mn505 Mn 0.42341 0.97817 0.15441 0.0
C506 C 0.37687 0.83645 0.19522 0.0
C507 C 0.31697 0.76279 0.00356 0.0
C508 C 0.51031 0.87559 0.11009 0.0
O509 O 0.36692 0.91283 5e-05 0.0
O510 O 0.43225 0.97551 0.05431 0.0
C511 C 0.30918 0.03876 0.10127 0.0
N512 N 0.35306 0.03403 0.15039 0.0
C513 C 0.31714 0.13383 0.20701 0.0
C514 C 0.27956 0.14638 0.15028 0.0
C515 C 0.2731 0.09677 0.09887 0.0
C516 C 0.3514 0.07454 0.2065 0.0
H517 H 0.30039 -0.00135 0.06483 0.0
C518 C 0.39367 0.96905 0.00805 0.0
O519 O 0.37421 0.76743 -0.00129 0.0
O520 O 0.29292 0.80195 0.05064 0.0
N521 N 0.42735 0.00601 0.25003 0.0
C522 C 0.48059 0.00979 0.2838 0.0
C523 C 0.48817 0.04956 0.34344 0.0
C524 C 0.44424 0.09636 0.36112 0.0
C525 C 0.39555 0.10423 0.31669 0.0
C526 C 0.38891 0.05841 0.26067 0.0
H527 H 0.51774 0.98234 0.26471 0.0
O528 O 0.38494 0.78249 0.15731 0.0
O529 O 0.3708 0.89402 0.16078 0.0
O530 O 0.47128 0.84807 0.07045 0.0
O531 O 0.49608 0.91964 0.15689 0.0
C532 C 0.3601 0.16274 0.31927 0.0
C533 C 0.32223 0.17817 0.2636 0.0
H534 H 0.25289 0.19166 0.14777 0.0
H535 H 0.24028 0.10292 0.05804 0.0
H536 H 0.52972 0.04785 0.37219 0.0
H537 H 0.45192 0.13134 0.4037 0.0
H538 H 0.36673 0.19981 0.35994 0.0
H539 H 0.3016 0.22691 0.26158 0.0
Mn540 Mn 0.72717 0.15038 0.57234 0.0
Mn541 Mn 0.68189 0.01047 0.65441 0.0
C542 C 0.72843 0.15219 0.69522 0.0
C543 C 0.78833 0.22585 0.50356 0.0
C544 C 0.595 0.11305 0.61009 0.0
O545 O 0.73838 0.07581 0.50005 0.0
O546 O 0.67305 0.01314 0.55431 0.0
C547 C 0.79613 0.94988 0.60127 0.0
N548 N 0.75224 0.95461 0.65039 0.0
C549 C 0.78816 0.85481 0.70701 0.0
C550 C 0.82574 0.84226 0.65028 0.0
C551 C 0.8322 0.89187 0.59887 0.0
C552 C 0.7539 0.9141 0.7065 0.0
H553 H 0.80491 0.98999 0.56483 0.0
C554 C 0.71163 0.01959 0.50805 0.0
O555 O 0.7311 0.22121 0.49871 0.0
O556 O 0.81238 0.1867 0.55064 0.0
N557 N 0.67796 0.98263 0.75002 0.0
C558 C 0.62471 0.97885 0.78379 0.0
C559 C 0.61714 0.93908 0.84344 0.0
C560 C 0.66107 0.89228 0.86111 0.0
C561 C 0.70975 0.88441 0.81669 0.0
C562 C 0.71639 0.93023 0.76067 0.0
H563 H 0.58757 0.00631 0.7647 0.0
O564 O 0.72036 0.20616 0.65731 0.0
O565 O 0.7345 0.09462 0.66078 0.0
O566 O 0.63403 0.14057 0.57045 0.0
O567 O 0.60922 0.069 0.65689 0.0
C568 C 0.7452 0.82589 0.81927 0.0
C569 C 0.78307 0.81047 0.76359 0.0
H570 H 0.85241 0.79698 0.64777 0.0
H571 H 0.86502 0.88572 0.55805 0.0
H572 H 0.57559 0.9408 0.87219 0.0
H573 H 0.65339 0.8573 0.9037 0.0
H574 H 0.73857 0.78883 0.85993 0.0
H575 H 0.8037 0.76173 0.76157 0.0
loop_
_geom_bond_atom_site_label_1
_geom_bond_atom_site_label_2
_geom_bond_distance
_geom_bond_site_symmetry_2
_ccdc_geom_bond_type
Mn0 O5 2.095 . S
Mn0 O15 2.162 . S
Mn0 O16 2.297 . S
Mn0 O24 2.385 . S
Mn0 O25 2.209 . S
Mn0 O26 2.094 . S
Mn1 O6 2.121 . S
Mn1 N8 2.257 . S
Mn1 N17 2.282 . S
Mn1 O25 2.215 . S
Mn1 O27 2.117 . S
C2 O24 1.234 . S
C2 O25 1.283 . S
C3 O15 1.281 . S
C3 O16 1.236 . S
C4 O26 1.240 . S
C4 O27 1.264 . S
O5 Mn0 2.095 . S
O5 C14 1.250 . S
O6 Mn1 2.121 . S
O6 C14 1.258 . S
C7 N8 1.326 . S
C7 C11 1.460 . S
C7 H13 0.929 . S
N8 Mn1 2.257 . S
N8 C7 1.326 . S
N8 C12 1.362 . S
C9 C10 1.258 . S
C9 C12 1.431 . S
C9 C29 1.449 . S
C10 C9 1.258 . S
C10 C11 1.477 . S
C10 H30 0.931 . S
C11 C7 1.460 . S
C11 C10 1.477 . S
C11 H31 0.930 . S
C12 N8 1.362 . S
C12 C9 1.431 . S
C12 C22 1.476 . S
H13 C7 0.929 . S
C14 O5 1.250 . S
C14 O6 1.258 . S
O15 Mn0 2.162 . S
O15 C3 1.281 . S
O16 Mn0 2.297 . S
O16 C3 1.236 . S
N17 Mn1 2.282 . S
N17 C18 1.328 . S
N17 C22 1.318 . S
C18 N17 1.328 . S
C18 C19 1.457 . S
C18 H23 0.929 . S
C19 C18 1.457 . S
C19 C20 1.291 . S
C19 H32 0.931 . S
C20 C19 1.291 . S
C20 C21 1.373 . S
C20 H33 0.929 . S
C21 C20 1.373 . S
C21 C22 1.396 . S
C21 C28 1.403 . S
C22 C12 1.476 . S
C22 N17 1.318 . S
C22 C21 1.396 . S
H23 C18 0.929 . S
O24 Mn0 2.385 . S
O24 C2 1.234 . S
O25 Mn0 2.209 . S
O25 Mn1 2.215 . S
O25 C2 1.283 . S
O26 Mn0 2.094 . S
O26 C4 1.240 . S
O27 Mn1 2.117 . S
O27 C4 1.264 . S
C28 C21 1.403 . S
C28 C29 1.399 . S
C28 H34 0.929 . S
C29 C9 1.449 . S
C29 C28 1.399 . S
C29 H35 0.930 . S
H30 C10 0.931 . S
H31 C11 0.930 . S
H32 C19 0.931 . S
H33 C20 0.929 . S
H34 C28 0.929 . S
H35 C29 0.930 . S
Mn36 O41 2.095 . S
Mn36 O51 2.162 . S
Mn36 O52 2.297 . S
Mn36 O60 2.385 . S
Mn36 O61 2.209 . S
Mn36 O62 2.094 . S
Mn37 O42 2.121 . S
Mn37 N44 2.257 . S
Mn37 N53 2.282 . S
Mn37 O61 2.215 . S
Mn37 O63 2.117 . S
C38 O60 1.234 . S
C38 O61 1.283 . S
C39 O51 1.281 . S
C39 O52 1.236 . S
C40 O62 1.240 . S
C40 O63 1.264 . S
O41 Mn36 2.095 . S
O41 C50 1.250 . S
O42 Mn37 2.121 . S
O42 C50 1.258 . S
C43 N44 1.326 . S
C43 C47 1.460 . S
C43 H49 0.929 . S
N44 Mn37 2.257 . S
N44 C43 1.326 . S
N44 C48 1.362 . S
C45 C46 1.258 . S
C45 C48 1.431 . S
C45 C65 1.449 . S
C46 C45 1.258 . S
C46 C47 1.477 . S
C46 H66 0.931 . S
C47 C43 1.460 . S
C47 C46 1.477 . S
C47 H67 0.930 . S
C48 N44 1.362 . S
C48 C45 1.431 . S
C48 C58 1.476 . S
H49 C43 0.929 . S
C50 O41 1.250 . S
C50 O42 1.258 . S
O51 Mn36 2.162 . S
O51 C39 1.281 . S
O52 Mn36 2.297 . S
O52 C39 1.236 . S
N53 Mn37 2.282 . S
N53 C54 1.328 . S
N53 C58 1.318 . S
C54 N53 1.328 . S
C54 C55 1.457 . S
C54 H59 0.929 . S
C55 C54 1.457 . S
C55 C56 1.291 . S
C55 H68 0.931 . S
C56 C55 1.291 . S
C56 C57 1.373 . S
C56 H69 0.929 . S
C57 C56 1.373 . S
C57 C58 1.396 . S
C57 C64 1.403 . S
C58 C48 1.476 . S
C58 N53 1.318 . S
C58 C57 1.396 . S
H59 C54 0.929 . S
O60 Mn36 2.385 . S
O60 C38 1.234 . S
O61 Mn36 2.209 . S
O61 Mn37 2.215 . S
O61 C38 1.283 . S
O62 Mn36 2.094 . S
O62 C40 1.240 . S
O63 Mn37 2.117 . S
O63 C40 1.264 . S
C64 C57 1.403 . S
C64 C65 1.399 . S
C64 H70 0.929 . S
C65 C45 1.449 . S
C65 C64 1.399 . S
C65 H71 0.930 . S
H66 C46 0.931 . S
H67 C47 0.930 . S
H68 C55 0.931 . S
H69 C56 0.929 . S
H70 C64 0.929 . S
H71 C65 0.930 . S
Mn72 O77 2.095 . S
Mn72 O87 2.162 . S
Mn72 O88 2.297 . S
Mn72 O96 2.385 . S
Mn72 O97 2.209 . S
Mn72 O98 2.094 . S
Mn73 O78 2.121 . S
Mn73 N80 2.257 . S
Mn73 N89 2.282 . S
Mn73 O97 2.215 . S
Mn73 O99 2.117 . S
C74 O96 1.234 . S
C74 O97 1.283 . S
C75 O87 1.281 . S
C75 O88 1.236 . S
C76 O98 1.240 . S
C76 O99 1.264 . S
O77 Mn72 2.095 . S
O77 C86 1.250 . S
O78 Mn73 2.121 . S
O78 C86 1.258 . S
C79 N80 1.326 . S
C79 C83 1.460 . S
C79 H85 0.929 . S
N80 Mn73 2.257 . S
N80 C79 1.326 . S
N80 C84 1.362 . S
C81 C82 1.258 . S
C81 C84 1.431 . S
C81 C101 1.449 . S
C82 C81 1.258 . S
C82 C83 1.477 . S
C82 H102 0.931 . S
C83 C79 1.460 . S
C83 C82 1.477 . S
C83 H103 0.930 . S
C84 N80 1.362 . S
C84 C81 1.431 . S
C84 C94 1.476 . S
H85 C79 0.929 . S
C86 O77 1.250 . S
C86 O78 1.258 . S
O87 Mn72 2.162 . S
O87 C75 1.281 . S
O88 Mn72 2.297 . S
O88 C75 1.236 . S
N89 Mn73 2.282 . S
N89 C90 1.328 . S
N89 C94 1.318 . S
C90 N89 1.328 . S
C90 C91 1.457 . S
C90 H95 0.929 . S
C91 C90 1.457 . S
C91 C92 1.291 . S
C91 H104 0.931 . S
C92 C91 1.291 . S
C92 C93 1.373 . S
C92 H105 0.929 . S
C93 C92 1.373 . S
C93 C94 1.396 . S
C93 C100 1.403 . S
C94 C84 1.476 . S
C94 N89 1.318 . S
C94 C93 1.396 . S
H95 C90 0.929 . S
O96 Mn72 2.385 . S
O96 C74 1.234 . S
O97 Mn72 2.209 . S
O97 Mn73 2.215 . S
O97 C74 1.283 . S
O98 Mn72 2.094 . S
O98 C76 1.240 . S
O99 Mn73 2.117 . S
O99 C76 1.264 . S
C100 C93 1.403 . S
C100 C101 1.399 . S
C100 H106 0.929 . S
C101 C81 1.449 . S
C101 C100 1.399 . S
C101 H107 0.930 . S
H102 C82 0.931 . S
H103 C83 0.930 . S
H104 C91 0.931 . S
H105 C92 0.929 . S
H106 C100 0.929 . S
H107 C101 0.930 . S
Mn108 O113 2.095 . S
Mn108 O123 2.162 . S
Mn108 O124 2.297 . S
Mn108 O132 2.385 . S
Mn108 O133 2.209 . S
Mn108 O134 2.094 . S
Mn109 O114 2.121 . S
Mn109 N116 2.257 . S
Mn109 N125 2.282 . S
Mn109 O133 2.215 . S
Mn109 O135 2.117 . S
C110 O132 1.234 . S
C110 O133 1.283 . S
C111 O123 1.281 . S
C111 O124 1.236 . S
C112 O134 1.240 . S
C112 O135 1.264 . S
O113 Mn108 2.095 . S
O113 C122 1.250 . S
O114 Mn109 2.121 . S
O114 C122 1.258 . S
C115 N116 1.326 . S
C115 C119 1.460 . S
C115 H121 0.929 . S
N116 Mn109 2.257 . S
N116 C115 1.326 . S
N116 C120 1.362 . S
C117 C118 1.258 . S
C117 C120 1.431 . S
C117 C137 1.449 . S
C118 C117 1.258 . S
C118 C119 1.477 . S
C118 H138 0.931 . S
C119 C115 1.460 . S
C119 C118 1.477 . S
C119 H139 0.930 . S
C120 N116 1.362 . S
C120 C117 1.431 . S
C120 C130 1.476 . S
H121 C115 0.929 . S
C122 O113 1.250 . S
C122 O114 1.258 . S
O123 Mn108 2.162 . S
O123 C111 1.281 . S
O124 Mn108 2.297 . S
O124 C111 1.236 . S
N125 Mn109 2.282 . S
N125 C126 1.328 . S
N125 C130 1.318 . S
C126 N125 1.328 . S
C126 C127 1.457 . S
C126 H131 0.929 . S
C127 C126 1.457 . S
C127 C128 1.291 . S
C127 H140 0.931 . S
C128 C127 1.291 . S
C128 C129 1.373 . S
C128 H141 0.929 . S
C129 C128 1.373 . S
C129 C130 1.396 . S
C129 C136 1.403 . S
C130 C120 1.476 . S
C130 N125 1.318 . S
C130 C129 1.396 . S
H131 C126 0.929 . S
O132 Mn108 2.385 . S
O132 C110 1.234 . S
O133 Mn108 2.209 . S
O133 Mn109 2.215 . S
O133 C110 1.283 . S
O134 Mn108 2.094 . S
O134 C112 1.240 . S
O135 Mn109 2.117 . S
O135 C112 1.264 . S
C136 C129 1.403 . S
C136 C137 1.399 . S
C136 H142 0.929 . S
C137 C117 1.449 . S
C137 C136 1.399 . S
C137 H143 0.930 . S
H138 C118 0.931 . S
H139 C119 0.930 . S
H140 C127 0.931 . S
H141 C128 0.929 . S
H142 C136 0.929 . S
H143 C137 0.930 . S
Mn144 O149 2.095 . S
Mn144 O159 2.162 . S
Mn144 O160 2.297 . S
Mn144 O168 2.385 . S
Mn144 O169 2.209 . S
Mn144 O170 2.094 . S
Mn145 O150 2.121 . S
Mn145 N152 2.257 . S
Mn145 N161 2.282 . S
Mn145 O169 2.215 . S
Mn145 O171 2.117 . S
C146 O168 1.234 . S
C146 O169 1.283 . S
C147 O159 1.281 . S
C147 O160 1.236 . S
C148 O170 1.240 . S
C148 O171 1.264 . S
O149 Mn144 2.095 . S
O149 C158 1.250 . S
O150 Mn145 2.121 . S
O150 C158 1.258 . S
C151 N152 1.326 . S
C151 C155 1.460 . S
C151 H157 0.929 . S
N152 Mn145 2.257 . S
N152 C151 1.326 . S
N152 C156 1.362 . S
C153 C154 1.258 . S
C153 C156 1.431 . S
C153 C173 1.449 . S
C154 C153 1.258 . S
C154 C155 1.477 . S
C154 H174 0.931 . S
C155 C151 1.460 . S
C155 C154 1.477 . S
C155 H175 0.930 . S
C156 N152 1.362 . S
C156 C153 1.431 . S
C156 C166 1.476 . S
H157 C151 0.929 . S
C158 O149 1.250 . S
C158 O150 1.258 . S
O159 Mn144 2.162 . S
O159 C147 1.281 . S
O160 Mn144 2.297 . S
O160 C147 1.236 . S
N161 Mn145 2.282 . S
N161 C162 1.328 . S
N161 C166 1.318 . S
C162 N161 1.328 . S
C162 C163 1.457 . S
C162 H167 0.929 . S
C163 C162 1.457 . S
C163 C164 1.291 . S
C163 H176 0.931 1_655 S
C164 C163 1.291 . S
C164 C165 1.373 . S
C164 H177 0.929 . S
C165 C164 1.373 . S
C165 C166 1.396 . S
C165 C172 1.403 . S
C166 C156 1.476 . S
C166 N161 1.318 . S
C166 C165 1.396 . S
H167 C162 0.929 . S
O168 Mn144 2.385 . S
O168 C146 1.234 . S
O169 Mn144 2.209 . S
O169 Mn145 2.215 . S
O169 C146 1.283 . S
O170 Mn144 2.094 . S
O170 C148 1.240 . S
O171 Mn145 2.117 . S
O171 C148 1.264 . S
C172 C165 1.403 . S
C172 C173 1.399 . S
C172 H178 0.929 . S
C173 C153 1.449 . S
C173 C172 1.399 . S
C173 H179 0.930 . S
H174 C154 0.931 . S
H175 C155 0.930 . S
H176 C163 0.931 1_455 S
H177 C164 0.929 . S
H178 C172 0.929 . S
H179 C173 0.930 . S
Mn180 O185 2.095 . S
Mn180 O195 2.162 . S
Mn180 O196 2.297 . S
Mn180 O204 2.385 . S
Mn180 O205 2.209 . S
Mn180 O206 2.094 . S
Mn181 O186 2.121 . S
Mn181 N188 2.257 . S
Mn181 N197 2.282 . S
Mn181 O205 2.215 . S
Mn181 O207 2.117 . S
C182 O204 1.234 . S
C182 O205 1.283 . S
C183 O195 1.281 . S
C183 O196 1.236 . S
C184 O206 1.240 . S
C184 O207 1.264 . S
O185 Mn180 2.095 . S
O185 C194 1.250 . S
O186 Mn181 2.121 . S
O186 C194 1.258 . S
C187 N188 1.326 . S
C187 C191 1.460 . S
C187 H193 0.929 . S
N188 Mn181 2.257 . S
N188 C187 1.326 . S
N188 C192 1.362 . S
C189 C190 1.258 . S
C189 C192 1.431 . S
C189 C209 1.449 . S
C190 C189 1.258 . S
C190 C191 1.477 . S
C190 H210 0.931 . S
C191 C187 1.460 . S
C191 C190 1.477 . S
C191 H211 0.930 . S
C192 N188 1.362 . S
C192 C189 1.431 . S
C192 C202 1.476 . S
H193 C187 0.929 . S
C194 O185 1.250 . S
C194 O186 1.258 . S
O195 Mn180 2.162 . S
O195 C183 1.281 . S
O196 Mn180 2.297 . S
O196 C183 1.236 . S
N197 Mn181 2.282 . S
N197 C198 1.328 . S
N197 C202 1.318 . S
C198 N197 1.328 . S
C198 C199 1.457 . S
C198 H203 0.929 . S
C199 C198 1.457 . S
C199 C200 1.291 . S
C199 H212 0.931 1_455 S
C200 C199 1.291 . S
C200 C201 1.373 . S
C200 H213 0.929 . S
C201 C200 1.373 . S
C201 C202 1.396 . S
C201 C208 1.403 . S
C202 C192 1.476 . S
C202 N197 1.318 . S
C202 C201 1.396 . S
H203 C198 0.929 . S
O204 Mn180 2.385 . S
O204 C182 1.234 . S
O205 Mn180 2.209 . S
O205 Mn181 2.215 . S
O205 C182 1.283 . S
O206 Mn180 2.094 . S
O206 C184 1.240 . S
O207 Mn181 2.117 . S
O207 C184 1.264 . S
C208 C201 1.403 . S
C208 C209 1.399 . S
C208 H214 0.929 1_554 S
C209 C189 1.449 . S
C209 C208 1.399 . S
C209 H215 0.930 . S
H210 C190 0.931 . S
H211 C191 0.930 . S
H212 C199 0.931 1_655 S
H213 C200 0.929 . S
H214 C208 0.929 1_556 S
H215 C209 0.930 . S
Mn216 O221 2.095 . S
Mn216 O231 2.162 . S
Mn216 O232 2.297 . S
Mn216 O240 2.385 . S
Mn216 O241 2.209 . S
Mn216 O242 2.094 . S
Mn217 O222 2.121 . S
Mn217 N224 2.257 . S
Mn217 N233 2.282 . S
Mn217 O241 2.215 . S
Mn217 O243 2.117 . S
C218 O240 1.234 . S
C218 O241 1.283 . S
C219 O231 1.281 . S
C219 O232 1.236 . S
C220 O242 1.240 . S
C220 O243 1.264 . S
O221 Mn216 2.095 . S
O221 C230 1.250 . S
O222 Mn217 2.121 . S
O222 C230 1.258 . S
C223 N224 1.326 . S
C223 C227 1.460 . S
C223 H229 0.929 . S
N224 Mn217 2.257 . S
N224 C223 1.326 . S
N224 C228 1.362 . S
C225 C226 1.258 . S
C225 C228 1.431 . S
C225 C245 1.449 . S
C226 C225 1.258 . S
C226 C227 1.477 . S
C226 H246 0.931 . S
C227 C223 1.460 . S
C227 C226 1.477 . S
C227 H247 0.930 . S
C228 N224 1.362 . S
C228 C225 1.431 . S
C228 C238 1.476 . S
H229 C223 0.929 . S
C230 O221 1.250 . S
C230 O222 1.258 . S
O231 Mn216 2.162 . S
O231 C219 1.281 . S
O232 Mn216 2.297 . S
O232 C219 1.236 . S
N233 Mn217 2.282 . S
N233 C234 1.328 . S
N233 C238 1.318 . S
C234 N233 1.328 . S
C234 C235 1.457 . S
C234 H239 0.929 . S
C235 C234 1.457 . S
C235 C236 1.291 . S
C235 H248 0.931 1_655 S
C236 C235 1.291 . S
C236 C237 1.373 . S
C236 H249 0.929 . S
C237 C236 1.373 . S
C237 C238 1.396 . S
C237 C244 1.403 . S
C238 C228 1.476 . S
C238 N233 1.318 . S
C238 C237 1.396 . S
H239 C234 0.929 . S
O240 Mn216 2.385 . S
O240 C218 1.234 . S
O241 Mn216 2.209 . S
O241 Mn217 2.215 . S
O241 C218 1.283 . S
O242 Mn216 2.094 . S
O242 C220 1.240 . S
O243 Mn217 2.117 . S
O243 C220 1.264 . S
C244 C237 1.403 . S
C244 C245 1.399 . S
C244 H250 0.929 . S
C245 C225 1.449 . S
C245 C244 1.399 . S
C245 H251 0.930 . S
H246 C226 0.931 . S
H247 C227 0.930 . S
H248 C235 0.931 1_455 S
H249 C236 0.929 . S
H250 C244 0.929 . S
H251 C245 0.930 . S
Mn252 O257 2.095 . S
Mn252 O267 2.162 . S
Mn252 O268 2.297 . S
Mn252 O276 2.385 . S
Mn252 O277 2.209 . S
Mn252 O278 2.094 . S
Mn253 O258 2.121 . S
Mn253 N260 2.257 . S
Mn253 N269 2.282 . S
Mn253 O277 2.215 . S
Mn253 O279 2.117 . S
C254 O276 1.234 . S
C254 O277 1.283 . S
C255 O267 1.281 . S
C255 O268 1.236 . S
C256 O278 1.240 . S
C256 O279 1.264 . S
O257 Mn252 2.095 . S
O257 C266 1.250 . S
O258 Mn253 2.121 . S
O258 C266 1.258 . S
C259 N260 1.326 . S
C259 C263 1.460 . S
C259 H265 0.929 . S
N260 Mn253 2.257 . S
N260 C259 1.326 . S
N260 C264 1.362 . S
C261 C262 1.258 . S
C261 C264 1.431 . S
C261 C281 1.449 . S
C262 C261 1.258 . S
C262 C263 1.477 . S
C262 H282 0.931 . S
C263 C259 1.460 . S
C263 C262 1.477 . S
C263 H283 0.930 . S
C264 N260 1.362 . S
C264 C261 1.431 . S
C264 C274 1.476 . S
H265 C259 0.929 . S
C266 O257 1.250 . S
C266 O258 1.258 . S
O267 Mn252 2.162 . S
O267 C255 1.281 . S
O268 Mn252 2.297 . S
O268 C255 1.236 . S
N269 Mn253 2.282 . S
N269 C270 1.328 . S
N269 C274 1.318 . S
C270 N269 1.328 . S
C270 C271 1.457 . S
C270 H275 0.929 . S
C271 C270 1.457 . S
C271 C272 1.291 . S
C271 H284 0.931 1_455 S
C272 C271 1.291 . S
C272 C273 1.373 . S
C272 H285 0.929 . S
C273 C272 1.373 . S
C273 C274 1.396 . S
C273 C280 1.403 . S
C274 C264 1.476 . S
C274 N269 1.318 . S
C274 C273 1.396 . S
H275 C270 0.929 . S
O276 Mn252 2.385 . S
O276 C254 1.234 . S
O277 Mn252 2.209 . S
O277 Mn253 2.215 . S
O277 C254 1.283 . S
O278 Mn252 2.094 . S
O278 C256 1.240 . S
O279 Mn253 2.117 . S
O279 C256 1.264 . S
C280 C273 1.403 . S
C280 C281 1.399 . S
C280 H286 0.929 1_556 S
C281 C261 1.449 . S
C281 C280 1.399 . S
C281 H287 0.930 . S
H282 C262 0.931 . S
H283 C263 0.930 . S
H284 C271 0.931 1_655 S
H285 C272 0.929 . S
H286 C280 0.929 1_554 S
H287 C281 0.930 . S
Mn288 O293 2.095 . S
Mn288 O303 2.162 . S
Mn288 O304 2.297 . S
Mn288 O312 2.385 . S
Mn288 O313 2.209 . S
Mn288 O314 2.094 . S
Mn289 O294 2.121 . S
Mn289 N296 2.257 . S
Mn289 N305 2.282 . S
Mn289 O313 2.215 . S
Mn289 O315 2.117 . S
C290 O312 1.234 . S
C290 O313 1.283 . S
C291 O303 1.281 . S
C291 O304 1.236 . S
C292 O314 1.240 . S
C292 O315 1.264 . S
O293 Mn288 2.095 . S
O293 C302 1.250 . S
O294 Mn289 2.121 . S
O294 C302 1.258 . S
C295 N296 1.326 1_545 S
C295 C299 1.460 . S
C295 H301 0.929 . S
N296 Mn289 2.257 . S
N296 C295 1.326 1_565 S
N296 C300 1.362 . S
C297 C298 1.258 . S
C297 C300 1.431 1_545 S
C297 C317 1.449 1_545 S
C298 C297 1.258 . S
C298 C299 1.477 . S
C298 H318 0.931 . S
C299 C295 1.460 . S
C299 C298 1.477 . S
C299 H319 0.930 . S
C300 N296 1.362 . S
C300 C297 1.431 1_565 S
C300 C310 1.476 . S
H301 C295 0.929 . S
C302 O293 1.250 . S
C302 O294 1.258 . S
O303 Mn288 2.162 . S
O303 C291 1.281 . S
O304 Mn288 2.297 . S
O304 C291 1.236 . S
N305 Mn289 2.282 . S
N305 C306 1.328 . S
N305 C310 1.318 . S
C306 N305 1.328 . S
C306 C307 1.457 . S
C306 H311 0.929 . S
C307 C306 1.457 . S
C307 C308 1.291 . S
C307 H320 0.931 . S
C308 C307 1.291 . S
C308 C309 1.373 . S
C308 H321 0.929 . S
C309 C308 1.373 . S
C309 C310 1.396 . S
C309 C316 1.403 . S
C310 C300 1.476 . S
C310 N305 1.318 . S
C310 C309 1.396 . S
H311 C306 0.929 . S
O312 Mn288 2.385 . S
O312 C290 1.234 . S
O313 Mn288 2.209 . S
O313 Mn289 2.215 . S
O313 C290 1.283 . S
O314 Mn288 2.094 . S
O314 C292 1.240 . S
O315 Mn289 2.117 . S
O315 C292 1.264 . S
C316 C309 1.403 . S
C316 C317 1.399 . S
C316 H322 0.929 . S
C317 C297 1.449 1_565 S
C317 C316 1.399 . S
C317 H323 0.930 1_565 S
H318 C298 0.931 . S
H319 C299 0.930 . S
H320 C307 0.931 . S
H321 C308 0.929 . S
H322 C316 0.929 . S
H323 C317 0.930 1_545 S
Mn324 O329 2.095 . S
Mn324 O339 2.162 . S
Mn324 O340 2.297 . S
Mn324 O348 2.385 . S
Mn324 O349 2.209 . S
Mn324 O350 2.094 . S
Mn325 O330 2.121 . S
Mn325 N332 2.257 . S
Mn325 N341 2.282 . S
Mn325 O349 2.215 . S
Mn325 O351 2.117 . S
C326 O348 1.234 . S
C326 O349 1.283 . S
C327 O339 1.281 . S
C327 O340 1.236 . S
C328 O350 1.240 . S
C328 O351 1.264 . S
O329 Mn324 2.095 . S
O329 C338 1.250 . S
O330 Mn325 2.121 . S
O330 C338 1.258 . S
C331 N332 1.326 1_565 S
C331 C335 1.460 . S
C331 H337 0.929 . S
N332 Mn325 2.257 . S
N332 C331 1.326 1_545 S
N332 C336 1.362 . S
C333 C334 1.258 . S
C333 C336 1.431 1_565 S
C333 C353 1.449 1_565 S
C334 C333 1.258 . S
C334 C335 1.477 . S
C334 H354 0.931 . S
C335 C331 1.460 . S
C335 C334 1.477 . S
C335 H355 0.930 . S
C336 N332 1.362 . S
C336 C333 1.431 1_545 S
C336 C346 1.476 . S
H337 C331 0.929 . S
C338 O329 1.250 . S
C338 O330 1.258 . S
O339 Mn324 2.162 . S
O339 C327 1.281 . S
O340 Mn324 2.297 . S
O340 C327 1.236 . S
N341 Mn325 2.282 . S
N341 C342 1.328 . S
N341 C346 1.318 . S
C342 N341 1.328 . S
C342 C343 1.457 . S
C342 H347 0.929 . S
C343 C342 1.457 . S
C343 C344 1.291 . S
C343 H356 0.931 . S
C344 C343 1.291 . S
C344 C345 1.373 . S
C344 H357 0.929 . S
C345 C344 1.373 . S
C345 C346 1.396 . S
C345 C352 1.403 . S
C346 C336 1.476 . S
C346 N341 1.318 . S
C346 C345 1.396 . S
H347 C342 0.929 . S
O348 Mn324 2.385 . S
O348 C326 1.234 . S
O349 Mn324 2.209 . S
O349 Mn325 2.215 . S
O349 C326 1.283 . S
O350 Mn324 2.094 . S
O350 C328 1.240 . S
O351 Mn325 2.117 . S
O351 C328 1.264 . S
C352 C345 1.403 . S
C352 C353 1.399 . S
C352 H358 0.929 . S
C353 C333 1.449 1_545 S
C353 C352 1.399 . S
C353 H359 0.930 1_545 S
H354 C334 0.931 . S
H355 C335 0.930 . S
H356 C343 0.931 . S
H357 C344 0.929 . S
H358 C352 0.929 . S
H359 C353 0.930 1_565 S
Mn360 O365 2.095 . S
Mn360 O375 2.162 . S
Mn360 O376 2.297 . S
Mn360 O384 2.385 . S
Mn360 O385 2.209 . S
Mn360 O386 2.094 . S
Mn361 O366 2.121 . S
Mn361 N368 2.257 . S
Mn361 N377 2.282 . S
Mn361 O385 2.215 . S
Mn361 O387 2.117 . S
C362 O384 1.234 . S
C362 O385 1.283 . S
C363 O375 1.281 . S
C363 O376 1.236 . S
C364 O386 1.240 . S
C364 O387 1.264 . S
O365 Mn360 2.095 . S
O365 C374 1.250 . S
O366 Mn361 2.121 . S
O366 C374 1.258 . S
C367 N368 1.326 1_565 S
C367 C371 1.460 . S
C367 H373 0.929 . S
N368 Mn361 2.257 . S
N368 C367 1.326 1_545 S
N368 C372 1.362 . S
C369 C370 1.258 . S
C369 C372 1.431 1_565 S
C369 C389 1.449 1_565 S
C370 C369 1.258 . S
C370 C371 1.477 . S
C370 H390 0.931 . S
C371 C367 1.460 . S
C371 C370 1.477 . S
C371 H391 0.930 . S
C372 N368 1.362 . S
C372 C369 1.431 1_545 S
C372 C382 1.476 . S
H373 C367 0.929 . S
C374 O365 1.250 . S
C374 O366 1.258 . S
O375 Mn360 2.162 . S
O375 C363 1.281 . S
O376 Mn360 2.297 . S
O376 C363 1.236 . S
N377 Mn361 2.282 . S
N377 C378 1.328 . S
N377 C382 1.318 . S
C378 N377 1.328 . S
C378 C379 1.457 . S
C378 H383 0.929 . S
C379 C378 1.457 . S
C379 C380 1.291 . S
C379 H392 0.931 . S
C380 C379 1.291 . S
C380 C381 1.373 . S
C380 H393 0.929 . S
C381 C380 1.373 . S
C381 C382 1.396 . S
C381 C388 1.403 . S
C382 C372 1.476 . S
C382 N377 1.318 . S
C382 C381 1.396 . S
H383 C378 0.929 . S
O384 Mn360 2.385 . S
O384 C362 1.234 . S
O385 Mn360 2.209 . S
O385 Mn361 2.215 . S
O385 C362 1.283 . S
O386 Mn360 2.094 . S
O386 C364 1.240 . S
O387 Mn361 2.117 . S
O387 C364 1.264 . S
C388 C381 1.403 . S
C388 C389 1.399 . S
C388 H394 0.929 . S
C389 C369 1.449 1_545 S
C389 C388 1.399 . S
C389 H395 0.930 1_545 S
H390 C370 0.931 . S
H391 C371 0.930 . S
H392 C379 0.931 . S
H393 C380 0.929 . S
H394 C388 0.929 . S
H395 C389 0.930 1_565 S
Mn396 O401 2.095 . S
Mn396 O411 2.162 . S
Mn396 O412 2.297 . S
Mn396 O420 2.385 . S
Mn396 O421 2.209 . S
Mn396 O422 2.094 . S
Mn397 O402 2.121 . S
Mn397 N404 2.257 . S
Mn397 N413 2.282 . S
Mn397 O421 2.215 . S
Mn397 O423 2.117 . S
C398 O420 1.234 . S
C398 O421 1.283 . S
C399 O411 1.281 . S
C399 O412 1.236 . S
C400 O422 1.240 . S
C400 O423 1.264 . S
O401 Mn396 2.095 . S
O401 C410 1.250 . S
O402 Mn397 2.121 . S
O402 C410 1.258 . S
C403 N404 1.326 1_545 S
C403 C407 1.460 . S
C403 H409 0.929 . S
N404 Mn397 2.257 . S
N404 C403 1.326 1_565 S
N404 C408 1.362 . S
C405 C406 1.258 . S
C405 C408 1.431 1_545 S
C405 C425 1.449 1_545 S
C406 C405 1.258 . S
C406 C407 1.477 . S
C406 H426 0.931 . S
C407 C403 1.460 . S
C407 C406 1.477 . S
C407 H427 0.930 . S
C408 N404 1.362 . S
C408 C405 1.431 1_565 S
C408 C418 1.476 . S
H409 C403 0.929 . S
C410 O401 1.250 . S
C410 O402 1.258 . S
O411 Mn396 2.162 . S
O411 C399 1.281 . S
O412 Mn396 2.297 . S
O412 C399 1.236 . S
N413 Mn397 2.282 . S
N413 C414 1.328 . S
N413 C418 1.318 . S
C414 N413 1.328 . S
C414 C415 1.457 . S
C414 H419 0.929 . S
C415 C414 1.457 . S
C415 C416 1.291 . S
C415 H428 0.931 . S
C416 C415 1.291 . S
C416 C417 1.373 . S
C416 H429 0.929 . S
C417 C416 1.373 . S
C417 C418 1.396 . S
C417 C424 1.403 . S
C418 C408 1.476 . S
C418 N413 1.318 . S
C418 C417 1.396 . S
H419 C414 0.929 . S
O420 Mn396 2.385 . S
O420 C398 1.234 . S
O421 Mn396 2.209 . S
O421 Mn397 2.215 . S
O421 C398 1.283 . S
O422 Mn396 2.094 . S
O422 C400 1.240 . S
O423 Mn397 2.117 . S
O423 C400 1.264 . S
C424 C417 1.403 . S
C424 C425 1.399 . S
C424 H430 0.929 . S
C425 C405 1.449 1_565 S
C425 C424 1.399 . S
C425 H431 0.930 1_565 S
H426 C406 0.931 . S
H427 C407 0.930 . S
H428 C415 0.931 . S
H429 C416 0.929 . S
H430 C424 0.929 . S
H431 C425 0.930 1_545 S
Mn432 O437 2.095 . S
Mn432 O447 2.162 . S
Mn432 O448 2.297 . S
Mn432 O456 2.385 . S
Mn432 O457 2.209 . S
Mn432 O458 2.094 . S
Mn433 O438 2.121 1_545 S
Mn433 N440 2.257 1_545 S
Mn433 N449 2.282 . S
Mn433 O457 2.215 . S
Mn433 O459 2.117 . S
C434 O456 1.234 . S
C434 O457 1.283 . S
C435 O447 1.281 . S
C435 O448 1.236 . S
C436 O458 1.240 . S
C436 O459 1.264 . S
O437 Mn432 2.095 . S
O437 C446 1.250 . S
O438 Mn433 2.121 1_565 S
O438 C446 1.258 1_565 S
C439 N440 1.326 . S
C439 C443 1.460 . S
C439 H445 0.929 . S
N440 Mn433 2.257 1_565 S
N440 C439 1.326 . S
N440 C444 1.362 . S
C441 C442 1.258 . S
C441 C444 1.431 . S
C441 C461 1.449 . S
C442 C441 1.258 . S
C442 C443 1.477 . S
C442 H462 0.931 . S
C443 C439 1.460 . S
C443 C442 1.477 . S
C443 H463 0.930 . S
C444 N440 1.362 . S
C444 C441 1.431 . S
C444 C454 1.476 1_565 S
H445 C439 0.929 . S
C446 O437 1.250 . S
C446 O438 1.258 1_545 S
O447 Mn432 2.162 . S
O447 C435 1.281 . S
O448 Mn432 2.297 . S
O448 C435 1.236 . S
N449 Mn433 2.282 . S
N449 C450 1.328 . S
N449 C454 1.318 . S
C450 N449 1.328 . S
C450 C451 1.457 . S
C450 H455 0.929 . S
C451 C450 1.457 . S
C451 C452 1.291 . S
C451 H464 0.931 . S
C452 C451 1.291 . S
C452 C453 1.373 . S
C452 H465 0.929 . S
C453 C452 1.373 . S
C453 C454 1.396 . S
C453 C460 1.403 . S
C454 C444 1.476 1_545 S
C454 N449 1.318 . S
C454 C453 1.396 . S
H455 C450 0.929 . S
O456 Mn432 2.385 . S
O456 C434 1.234 . S
O457 Mn432 2.209 . S
O457 Mn433 2.215 . S
O457 C434 1.283 . S
O458 Mn432 2.094 . S
O458 C436 1.240 . S
O459 Mn433 2.117 . S
O459 C436 1.264 . S
C460 C453 1.403 . S
C460 C461 1.399 1_545 S
C460 H466 0.929 . S
C461 C441 1.449 . S
C461 C460 1.399 1_565 S
C461 H467 0.930 . S
H462 C442 0.931 . S
H463 C443 0.930 . S
H464 C451 0.931 . S
H465 C452 0.929 . S
H466 C460 0.929 . S
H467 C461 0.930 . S
Mn468 O473 2.095 . S
Mn468 O483 2.162 . S
Mn468 O484 2.297 . S
Mn468 O492 2.385 . S
Mn468 O493 2.209 . S
Mn468 O494 2.094 . S
Mn469 O474 2.121 1_565 S
Mn469 N476 2.257 1_565 S
Mn469 N485 2.282 . S
Mn469 O493 2.215 . S
Mn469 O495 2.117 . S
C470 O492 1.234 . S
C470 O493 1.283 . S
C471 O483 1.281 . S
C471 O484 1.236 . S
C472 O494 1.240 . S
C472 O495 1.264 . S
O473 Mn468 2.095 . S
O473 C482 1.250 . S
O474 Mn469 2.121 1_545 S
O474 C482 1.258 1_545 S
C475 N476 1.326 . S
C475 C479 1.460 . S
C475 H481 0.929 . S
N476 Mn469 2.257 1_545 S
N476 C475 1.326 . S
N476 C480 1.362 . S
C477 C478 1.258 . S
C477 C480 1.431 . S
C477 C497 1.449 . S
C478 C477 1.258 . S
C478 C479 1.477 . S
C478 H498 0.931 . S
C479 C475 1.460 . S
C479 C478 1.477 . S
C479 H499 0.930 . S
C480 N476 1.362 . S
C480 C477 1.431 . S
C480 C490 1.476 1_545 S
H481 C475 0.929 . S
C482 O473 1.250 . S
C482 O474 1.258 1_565 S
O483 Mn468 2.162 . S
O483 C471 1.281 . S
O484 Mn468 2.297 . S
O484 C471 1.236 . S
N485 Mn469 2.282 . S
N485 C486 1.328 . S
N485 C490 1.318 . S
C486 N485 1.328 . S
C486 C487 1.457 . S
C486 H491 0.929 . S
C487 C486 1.457 . S
C487 C488 1.291 . S
C487 H500 0.931 . S
C488 C487 1.291 . S
C488 C489 1.373 . S
C488 H501 0.929 . S
C489 C488 1.373 . S
C489 C490 1.396 . S
C489 C496 1.403 . S
C490 C480 1.476 1_565 S
C490 N485 1.318 . S
C490 C489 1.396 . S
H491 C486 0.929 . S
O492 Mn468 2.385 . S
O492 C470 1.234 . S
O493 Mn468 2.209 . S
O493 Mn469 2.215 . S
O493 C470 1.283 . S
O494 Mn468 2.094 . S
O494 C472 1.240 . S
O495 Mn469 2.117 . S
O495 C472 1.264 . S
C496 C489 1.403 . S
C496 C497 1.399 1_565 S
C496 H502 0.929 1_554 S
C497 C477 1.449 . S
C497 C496 1.399 1_545 S
C497 H503 0.930 . S
H498 C478 0.931 . S
H499 C479 0.930 . S
H500 C487 0.931 . S
H501 C488 0.929 . S
H502 C496 0.929 1_556 S
H503 C497 0.930 . S
Mn504 O509 2.095 . S
Mn504 O519 2.162 . S
Mn504 O520 2.297 . S
Mn504 O528 2.385 . S
Mn504 O529 2.209 . S
Mn504 O530 2.094 . S
Mn505 O510 2.121 1_565 S
Mn505 N512 2.257 1_565 S
Mn505 N521 2.282 . S
Mn505 O529 2.215 . S
Mn505 O531 2.117 . S
C506 O528 1.234 . S
C506 O529 1.283 . S
C507 O519 1.281 . S
C507 O520 1.236 . S
C508 O530 1.240 . S
C508 O531 1.264 . S
O509 Mn504 2.095 . S
O509 C518 1.250 . S
O510 Mn505 2.121 1_545 S
O510 C518 1.258 1_545 S
C511 N512 1.326 . S
C511 C515 1.460 . S
C511 H517 0.929 . S
N512 Mn505 2.257 1_545 S
N512 C511 1.326 . S
N512 C516 1.362 . S
C513 C514 1.258 . S
C513 C516 1.431 . S
C513 C533 1.449 . S
C514 C513 1.258 . S
C514 C515 1.477 . S
C514 H534 0.931 . S
C515 C511 1.460 . S
C515 C514 1.477 . S
C515 H535 0.930 . S
C516 N512 1.362 . S
C516 C513 1.431 . S
C516 C526 1.476 1_545 S
H517 C511 0.929 . S
C518 O509 1.250 . S
C518 O510 1.258 1_565 S
O519 Mn504 2.162 . S
O519 C507 1.281 . S
O520 Mn504 2.297 . S
O520 C507 1.236 . S
N521 Mn505 2.282 . S
N521 C522 1.328 . S
N521 C526 1.318 . S
C522 N521 1.328 . S
C522 C523 1.457 . S
C522 H527 0.929 . S
C523 C522 1.457 . S
C523 C524 1.291 . S
C523 H536 0.931 . S
C524 C523 1.291 . S
C524 C525 1.373 . S
C524 H537 0.929 . S
C525 C524 1.373 . S
C525 C526 1.396 . S
C525 C532 1.403 . S
C526 C516 1.476 1_565 S
C526 N521 1.318 . S
C526 C525 1.396 . S
H527 C522 0.929 . S
O528 Mn504 2.385 . S
O528 C506 1.234 . S
O529 Mn504 2.209 . S
O529 Mn505 2.215 . S
O529 C506 1.283 . S
O530 Mn504 2.094 . S
O530 C508 1.240 . S
O531 Mn505 2.117 . S
O531 C508 1.264 . S
C532 C525 1.403 . S
C532 C533 1.399 1_565 S
C532 H538 0.929 . S
C533 C513 1.449 . S
C533 C532 1.399 1_545 S
C533 H539 0.930 . S
H534 C514 0.931 . S
H535 C515 0.930 . S
H536 C523 0.931 . S
H537 C524 0.929 . S
H538 C532 0.929 . S
H539 C533 0.930 . S
Mn540 O545 2.095 . S
Mn540 O555 2.162 . S
Mn540 O556 2.297 . S
Mn540 O564 2.385 . S
Mn540 O565 2.209 . S
Mn540 O566 2.094 . S
Mn541 O546 2.121 1_545 S
Mn541 N548 2.257 1_545 S
Mn541 N557 2.282 . S
Mn541 O565 2.215 . S
Mn541 O567 2.117 . S
C542 O564 1.234 . S
C542 O565 1.283 . S
C543 O555 1.281 . S
C543 O556 1.236 . S
C544 O566 1.240 . S
C544 O567 1.264 . S
O545 Mn540 2.095 . S
O545 C554 1.250 . S
O546 Mn541 2.121 1_565 S
O546 C554 1.258 1_565 S
C547 N548 1.326 . S
C547 C551 1.460 . S
C547 H553 0.929 . S
N548 Mn541 2.257 1_565 S
N548 C547 1.326 . S
N548 C552 1.362 . S
C549 C550 1.258 . S
C549 C552 1.431 . S
C549 C569 1.449 . S
C550 C549 1.258 . S
C550 C551 1.477 . S
C550 H570 0.931 . S
C551 C547 1.460 . S
C551 C550 1.477 . S
C551 H571 0.930 . S
C552 N548 1.362 . S
C552 C549 1.431 . S
C552 C562 1.476 1_565 S
H553 C547 0.929 . S
C554 O545 1.250 . S
C554 O546 1.258 1_545 S
O555 Mn540 2.162 . S
O555 C543 1.281 . S
O556 Mn540 2.297 . S
O556 C543 1.236 . S
N557 Mn541 2.282 . S
N557 C558 1.328 . S
N557 C562 1.318 . S
C558 N557 1.328 . S
C558 C559 1.457 . S
C558 H563 0.929 . S
C559 C558 1.457 . S
C559 C560 1.291 . S
C559 H572 0.931 . S
C560 C559 1.291 . S
C560 C561 1.373 . S
C560 H573 0.929 . S
C561 C560 1.373 . S
C561 C562 1.396 . S
C561 C568 1.403 . S
C562 C552 1.476 1_545 S
C562 N557 1.318 . S
C562 C561 1.396 . S
H563 C558 0.929 . S
O564 Mn540 2.385 . S
O564 C542 1.234 . S
O565 Mn540 2.209 . S
O565 Mn541 2.215 . S
O565 C542 1.283 . S
O566 Mn540 2.094 . S
O566 C544 1.240 . S
O567 Mn541 2.117 . S
O567 C544 1.264 . S
C568 C561 1.403 . S
C568 C569 1.399 1_545 S
C568 H574 0.929 1_556 S
C569 C549 1.449 . S
C569 C568 1.399 1_565 S
C569 H575 0.930 . S
H570 C550 0.931 . S
H571 C551 0.930 . S
H572 C559 0.931 . S
H573 C560 0.929 . S
H574 C568 0.929 1_554 S
H575 C569 0.930 . S
C3 C220 1.451 1_455 S
C39 C256 1.451 1_655 S
C148 C75 1.451 1_655 S
C184 C111 1.451 1_455 S
C508 C291 1.451 . S
C544 C327 1.451 . S
C363 C436 1.451 . S
C399 C472 1.451 . S
C2 C182 1.452 . S
C38 C146 1.452 . S
C74 C254 1.452 . S
C218 C110 1.452 . S
C470 C290 1.452 . S
C434 C326 1.452 . S
C362 C542 1.452 . S
C506 C398 1.452 . S
C435 C4 1.408 1_556 S
C40 C471 1.409 . S
C507 C76 1.409 1_554 S
C543 C112 1.409 . S
C292 C147 1.408 1_554 S
C328 C183 1.409 . S
C219 C364 1.409 1_554 S
C255 C400 1.409 . S
C86 C14 1.379 1_556 S
C50 C122 1.379 . S
C230 C158 1.239 1_554 S
C194 C266 1.239 . S
C374 C302 1.379 1_546 S
C410 C338 1.379 1_565 S
C518 C446 1.239 1_564 S
C554 C482 1.239 1_545 S
