# Generated by pormake.
# Topology yfm, (5)-cn, num edge types: 1
# Building blocks:
#     Node 0, Type 0, BuildingBlock: BEQFEK_clean_sbu_0, # of connection points: 5
#     Node 1, Type 0, BuildingBlock: BEQFEK_clean_sbu_0, # of connection points: 5
#     Node 2, Type 0, BuildingBlock: BEQFEK_clean_sbu_0, # of connection points: 5
#     Node 3, Type 0, BuildingBlock: BEQFEK_clean_sbu_0, # of connection points: 5
#     Node 4, Type 0, BuildingBlock: BEQFEK_clean_sbu_0, # of connection points: 5
#     Node 5, Type 0, BuildingBlock: BEQFEK_clean_sbu_0, # of connection points: 5
#     Node 6, Type 0, BuildingBlock: BEQFEK_clean_sbu_0, # of connection points: 5
#     Node 7, Type 0, BuildingBlock: BEQFEK_clean_sbu_0, # of connection points: 5
#     Node 8, Type 0, BuildingBlock: BEQFEK_clean_sbu_0, # of connection points: 5
#     Node 9, Type 0, BuildingBlock: BEQFEK_clean_sbu_0, # of connection points: 5
#     Node 10, Type 0, BuildingBlock: BEQFEK_clean_sbu_0, # of connection points: 5
#     Node 11, Type 0, BuildingBlock: BEQFEK_clean_sbu_0, # of connection points: 5
#     Node 12, Type 0, BuildingBlock: BEQFEK_clean_sbu_0, # of connection points: 5
#     Node 13, Type 0, BuildingBlock: BEQFEK_clean_sbu_0, # of connection points: 5
#     Node 14, Type 0, BuildingBlock: BEQFEK_clean_sbu_0, # of connection points: 5
#     Node 15, Type 0, BuildingBlock: BEQFEK_clean_sbu_0, # of connection points: 5
#     Node 16, Type 0, BuildingBlock: BEQFEK_clean_sbu_0, # of connection points: 5
#     Node 17, Type 0, BuildingBlock: BEQFEK_clean_sbu_0, # of connection points: 5
#     Node 18, Type 0, BuildingBlock: BEQFEK_clean_sbu_0, # of connection points: 5
#     Node 19, Type 0, BuildingBlock: BEQFEK_clean_sbu_0, # of connection points: 5
#     Node 20, Type 0, BuildingBlock: BEQFEK_clean_sbu_0, # of connection points: 5
#     Node 21, Type 0, BuildingBlock: BEQFEK_clean_sbu_0, # of connection points: 5
#     Node 22, Type 0, BuildingBlock: BEQFEK_clean_sbu_0, # of connection points: 5
#     Node 23, Type 0, BuildingBlock: BEQFEK_clean_sbu_0, # of connection points: 5
#     Node 24, Type 0, BuildingBlock: BEQFEK_clean_sbu_0, # of connection points: 5
#     Node 25, Type 0, BuildingBlock: BEQFEK_clean_sbu_0, # of connection points: 5
#     Node 26, Type 0, BuildingBlock: BEQFEK_clean_sbu_0, # of connection points: 5
#     Node 27, Type 0, BuildingBlock: BEQFEK_clean_sbu_0, # of connection points: 5
#     Node 28, Type 0, BuildingBlock: BEQFEK_clean_sbu_0, # of connection points: 5
#     Node 29, Type 0, BuildingBlock: BEQFEK_clean_sbu_0, # of connection points: 5
#     Node 30, Type 0, BuildingBlock: BEQFEK_clean_sbu_0, # of connection points: 5
#     Node 31, Type 0, BuildingBlock: BEQFEK_clean_sbu_0, # of connection points: 5
#     Edge 32, Type (0, 0), BuildingBlock: AJUNOK_clean_linker_0, # of connection points: 2
#     Edge 33, Type (0, 0), BuildingBlock: AJUNOK_clean_linker_0, # of connection points: 2
#     Edge 34, Type (0, 0), BuildingBlock: AJUNOK_clean_linker_0, # of connection points: 2
#     Edge 35, Type (0, 0), BuildingBlock: AJUNOK_clean_linker_0, # of connection points: 2
#     Edge 36, Type (0, 0), BuildingBlock: AJUNOK_clean_linker_0, # of connection points: 2
#     Edge 37, Type (0, 0), BuildingBlock: AJUNOK_clean_linker_0, # of connection points: 2
#     Edge 38, Type (0, 0), BuildingBlock: AJUNOK_clean_linker_0, # of connection points: 2
#     Edge 39, Type (0, 0), BuildingBlock: AJUNOK_clean_linker_0, # of connection points: 2
#     Edge 40, Type (0, 0), BuildingBlock: AJUNOK_clean_linker_0, # of connection points: 2
#     Edge 41, Type (0, 0), BuildingBlock: AJUNOK_clean_linker_0, # of connection points: 2
#     Edge 42, Type (0, 0), BuildingBlock: AJUNOK_clean_linker_0, # of connection points: 2
#     Edge 43, Type (0, 0), BuildingBlock: AJUNOK_clean_linker_0, # of connection points: 2
#     Edge 44, Type (0, 0), BuildingBlock: AJUNOK_clean_linker_0, # of connection points: 2
#     Edge 45, Type (0, 0), BuildingBlock: AJUNOK_clean_linker_0, # of connection points: 2
#     Edge 46, Type (0, 0), BuildingBlock: AJUNOK_clean_linker_0, # of connection points: 2
#     Edge 47, Type (0, 0), BuildingBlock: AJUNOK_clean_linker_0, # of connection points: 2
#     Edge 48, Type (0, 0), BuildingBlock: AJUNOK_clean_linker_0, # of connection points: 2
#     Edge 49, Type (0, 0), BuildingBlock: AJUNOK_clean_linker_0, # of connection points: 2
#     Edge 50, Type (0, 0), BuildingBlock: AJUNOK_clean_linker_0, # of connection points: 2
#     Edge 51, Type (0, 0), BuildingBlock: AJUNOK_clean_linker_0, # of connection points: 2
#     Edge 52, Type (0, 0), BuildingBlock: AJUNOK_clean_linker_0, # of connection points: 2
#     Edge 53, Type (0, 0), BuildingBlock: AJUNOK_clean_linker_0, # of connection points: 2
#     Edge 54, Type (0, 0), BuildingBlock: AJUNOK_clean_linker_0, # of connection points: 2
#     Edge 55, Type (0, 0), BuildingBlock: AJUNOK_clean_linker_0, # of connection points: 2
#     Edge 56, Type (0, 0), BuildingBlock: AJUNOK_clean_linker_0, # of connection points: 2
#     Edge 57, Type (0, 0), BuildingBlock: AJUNOK_clean_linker_0, # of connection points: 2
#     Edge 58, Type (0, 0), BuildingBlock: AJUNOK_clean_linker_0, # of connection points: 2
#     Edge 59, Type (0, 0), BuildingBlock: AJUNOK_clean_linker_0, # of connection points: 2
#     Edge 60, Type (0, 0), BuildingBlock: AJUNOK_clean_linker_0, # of connection points: 2
#     Edge 61, Type (0, 0), BuildingBlock: AJUNOK_clean_linker_0, # of connection points: 2
#     Edge 62, Type (0, 0), BuildingBlock: AJUNOK_clean_linker_0, # of connection points: 2
#     Edge 63, Type (0, 0), BuildingBlock: AJUNOK_clean_linker_0, # of connection points: 2
#     Edge 64, Type (0, 0), BuildingBlock: AJUNOK_clean_linker_0, # of connection points: 2
#     Edge 65, Type (0, 0), BuildingBlock: AJUNOK_clean_linker_0, # of connection points: 2
#     Edge 66, Type (0, 0), BuildingBlock: AJUNOK_clean_linker_0, # of connection points: 2
#     Edge 67, Type (0, 0), BuildingBlock: AJUNOK_clean_linker_0, # of connection points: 2
#     Edge 68, Type (0, 0), BuildingBlock: AJUNOK_clean_linker_0, # of connection points: 2
#     Edge 69, Type (0, 0), BuildingBlock: AJUNOK_clean_linker_0, # of connection points: 2
#     Edge 70, Type (0, 0), BuildingBlock: AJUNOK_clean_linker_0, # of connection points: 2
#     Edge 71, Type (0, 0), BuildingBlock: AJUNOK_clean_linker_0, # of connection points: 2
#     Edge 72, Type (0, 0), BuildingBlock: AJUNOK_clean_linker_0, # of connection points: 2
#     Edge 73, Type (0, 0), BuildingBlock: AJUNOK_clean_linker_0, # of connection points: 2
#     Edge 74, Type (0, 0), BuildingBlock: AJUNOK_clean_linker_0, # of connection points: 2
#     Edge 75, Type (0, 0), BuildingBlock: AJUNOK_clean_linker_0, # of connection points: 2
#     Edge 76, Type (0, 0), BuildingBlock: AJUNOK_clean_linker_0, # of connection points: 2
#     Edge 77, Type (0, 0), BuildingBlock: AJUNOK_clean_linker_0, # of connection points: 2
#     Edge 78, Type (0, 0), BuildingBlock: AJUNOK_clean_linker_0, # of connection points: 2
#     Edge 79, Type (0, 0), BuildingBlock: AJUNOK_clean_linker_0, # of connection points: 2
#     Edge 80, Type (0, 0), BuildingBlock: AJUNOK_clean_linker_0, # of connection points: 2
#     Edge 81, Type (0, 0), BuildingBlock: AJUNOK_clean_linker_0, # of connection points: 2
#     Edge 82, Type (0, 0), BuildingBlock: AJUNOK_clean_linker_0, # of connection points: 2
#     Edge 83, Type (0, 0), BuildingBlock: AJUNOK_clean_linker_0, # of connection points: 2
#     Edge 84, Type (0, 0), BuildingBlock: AJUNOK_clean_linker_0, # of connection points: 2
#     Edge 85, Type (0, 0), BuildingBlock: AJUNOK_clean_linker_0, # of connection points: 2
#     Edge 86, Type (0, 0), BuildingBlock: AJUNOK_clean_linker_0, # of connection points: 2
#     Edge 87, Type (0, 0), BuildingBlock: AJUNOK_clean_linker_0, # of connection points: 2
#     Edge 88, Type (0, 0), BuildingBlock: AJUNOK_clean_linker_0, # of connection points: 2
#     Edge 89, Type (0, 0), BuildingBlock: AJUNOK_clean_linker_0, # of connection points: 2
#     Edge 90, Type (0, 0), BuildingBlock: AJUNOK_clean_linker_0, # of connection points: 2
#     Edge 91, Type (0, 0), BuildingBlock: AJUNOK_clean_linker_0, # of connection points: 2
#     Edge 92, Type (0, 0), BuildingBlock: AJUNOK_clean_linker_0, # of connection points: 2
#     Edge 93, Type (0, 0), BuildingBlock: AJUNOK_clean_linker_0, # of connection points: 2
#     Edge 94, Type (0, 0), BuildingBlock: AJUNOK_clean_linker_0, # of connection points: 2
#     Edge 95, Type (0, 0), BuildingBlock: AJUNOK_clean_linker_0, # of connection points: 2
#     Edge 96, Type (0, 0), BuildingBlock: AJUNOK_clean_linker_0, # of connection points: 2
#     Edge 97, Type (0, 0), BuildingBlock: AJUNOK_clean_linker_0, # of connection points: 2
#     Edge 98, Type (0, 0), BuildingBlock: AJUNOK_clean_linker_0, # of connection points: 2
#     Edge 99, Type (0, 0), BuildingBlock: AJUNOK_clean_linker_0, # of connection points: 2
#     Edge 100, Type (0, 0), BuildingBlock: AJUNOK_clean_linker_0, # of connection points: 2
#     Edge 101, Type (0, 0), BuildingBlock: AJUNOK_clean_linker_0, # of connection points: 2
#     Edge 102, Type (0, 0), BuildingBlock: AJUNOK_clean_linker_0, # of connection points: 2
#     Edge 103, Type (0, 0), BuildingBlock: AJUNOK_clean_linker_0, # of connection points: 2
#     Edge 104, Type (0, 0), BuildingBlock: AJUNOK_clean_linker_0, # of connection points: 2
#     Edge 105, Type (0, 0), BuildingBlock: AJUNOK_clean_linker_0, # of connection points: 2
#     Edge 106, Type (0, 0), BuildingBlock: AJUNOK_clean_linker_0, # of connection points: 2
#     Edge 107, Type (0, 0), BuildingBlock: AJUNOK_clean_linker_0, # of connection points: 2
#     Edge 108, Type (0, 0), BuildingBlock: AJUNOK_clean_linker_0, # of connection points: 2
#     Edge 109, Type (0, 0), BuildingBlock: AJUNOK_clean_linker_0, # of connection points: 2
#     Edge 110, Type (0, 0), BuildingBlock: AJUNOK_clean_linker_0, # of connection points: 2
#     Edge 111, Type (0, 0), BuildingBlock: AJUNOK_clean_linker_0, # of connection points: 2
# Relax obj value: 0.539
# Max RMSD: 0.236
# Mean RMSD: 0.236
data_MOF--net-yfm--node1-BEQFEK_clean_sbu_0--edge1-AJUNOK_clean_linker_0
_symmetry_space_group_name_H-M    P1
_symmetry_Int_Tables_number       1
_symmetry_cell_setting            triclinic
loop_
_symmetry_equiv_pos_as_xyz
'x, y, z'
_cell_length_a     48.869809
_cell_length_b     48.923938
_cell_length_c     39.312897
_cell_angle_alpha  90.032172
_cell_angle_beta   90.025471
_cell_angle_gamma 90.021991
loop_
_atom_site_label
_atom_site_type_symbol
_atom_site_fract_x
_atom_site_fract_y
_atom_site_fract_z
_atom_type_partial_charge
Co0 Co 0.23204 0.14083 0.13519 0.0
Co1 Co 0.24048 0.11219 0.06318 0.0
C2 C 0.28511 0.11427 0.11501 0.0
O3 O 0.26957 0.12671 0.13569 0.0
O4 O 0.27683 0.10796 0.08529 0.0
C5 C 0.24883 0.17371 0.19122 0.0
O6 O 0.27167 0.17496 0.17367 0.0
C7 C 0.2663 0.0939 0.9983 0.0
C8 C 0.23189 0.09502 0.96204 0.0
C9 C 0.25985 0.09062 0.96399 0.0
N10 N 0.24349 0.10086 0.01558 0.0
N11 N 0.22293 0.10111 0.99367 0.0
C12 C 0.2932 0.08814 0.01498 0.0
H13 H 0.28979 0.07505 0.0376 0.0
H14 H 0.30252 0.10766 0.02351 0.0
H15 H 0.3075 0.0774 0.99763 0.0
C16 C 0.21858 0.18756 0.09238 0.0
N17 N 0.225 0.16104 0.09574 0.0
N18 N 0.22963 0.15025 0.06555 0.0
C19 C 0.22734 0.17035 0.04202 0.0
C20 C 0.21982 0.19445 0.0583 0.0
C21 C 0.21406 0.20652 0.12175 0.0
H22 H 0.20073 0.19654 0.1409 0.0
H23 H 0.23403 0.2111 0.1339 0.0
H24 H 0.20456 0.226 0.11356 0.0
O25 O 0.20782 0.10934 0.13812 0.0
O26 O 0.21488 0.08652 0.08983 0.0
H27 H 0.21704 0.15683 0.99208 0.0
H28 H 0.23749 0.18742 0.99293 0.0
C29 C 0.23423 0.16724 1.00518 0.0
H30 H 0.25288 0.15456 1.00227 0.0
H31 H 0.20282 0.10605 1.00014 0.0
O32 O 0.22814 0.16189 0.17816 0.0
C33 C 0.20367 0.08868 0.11922 0.0
Co34 Co 0.1136 0.98152 0.3851 0.0
Co35 Co 0.14232 0.98936 0.31309 0.0
C36 C 0.14142 0.03394 0.365 0.0
O37 O 0.1286 0.01867 0.38564 0.0
O38 O 0.14758 0.02553 0.3353 0.0
C39 C 0.08098 0.99915 0.44071 0.0
O40 O 0.07937 0.02144 0.42222 0.0
C41 C 0.16006 0.01489 0.24783 0.0
C42 C 0.16087 0.97992 0.21243 0.0
C43 C 0.1643 0.00801 0.21384 0.0
N44 N 0.15363 0.99213 0.26549 0.0
N45 N 0.15444 0.97126 0.24408 0.0
C46 C 0.16442 0.04224 0.26394 0.0
H47 H 0.14459 0.05018 0.27347 0.0
H48 H 0.17359 0.05716 0.24604 0.0
H49 H 0.1785 0.03987 0.28586 0.0
C50 C 0.06635 0.96957 0.34237 0.0
N51 N 0.09312 0.97506 0.34573 0.0
N52 N 0.10402 0.97942 0.31555 0.0
C53 C 0.08382 0.97783 0.29203 0.0
C54 C 0.05946 0.97112 0.30832 0.0
C55 C 0.04717 0.96594 0.37171 0.0
H56 H 0.05672 0.95266 0.39122 0.0
H57 H 0.04301 0.98618 0.38334 0.0
H58 H 0.02745 0.95684 0.36353 0.0
O59 O 0.14441 0.9565 0.38781 0.0
O60 O 0.16732 0.96302 0.33949 0.0
H61 H 0.09828 0.96818 0.2423 0.0
H62 H 0.06703 0.98771 0.24265 0.0
C63 C 0.08715 0.98494 0.25529 0.0
H64 H 0.0994 0.00392 0.2528 0.0
H65 H 0.15012 0.95111 0.25093 0.0
O66 O 0.09266 0.97821 0.42816 0.0
C67 C 0.16488 0.95177 0.36881 0.0
Co68 Co 0.27316 0.86275 0.63481 0.0
Co69 Co 0.26413 0.89108 0.56291 0.0
C70 C 0.21976 0.88892 0.61483 0.0
O71 O 0.23556 0.87671 0.63543 0.0
O72 O 0.22779 0.89517 0.585 0.0
C73 C 0.25649 0.82961 0.69051 0.0
O74 O 0.23376 0.82817 0.67275 0.0
C75 C 0.23837 0.90848 0.4977 0.0
C76 C 0.27324 0.90863 0.4621 0.0
C77 C 0.24514 0.91213 0.46357 0.0
N78 N 0.2612 0.9022 0.51535 0.0
N79 N 0.28201 0.90266 0.49383 0.0
C80 C 0.2111 0.91325 0.51391 0.0
H81 H 0.21378 0.92679 0.53629 0.0
H82 H 0.20261 0.89346 0.52278 0.0
H83 H 0.19646 0.92312 0.49622 0.0
C84 C 0.28653 0.8159 0.59199 0.0
N85 N 0.28014 0.84244 0.5954 0.0
N86 N 0.27519 0.85314 0.56527 0.0
C87 C 0.2772 0.833 0.54174 0.0
C88 C 0.28489 0.80893 0.55793 0.0
C89 C 0.29114 0.79697 0.62134 0.0
H90 H 0.27116 0.79211 0.63328 0.0
H91 H 0.3009 0.77762 0.61317 0.0
H92 H 0.30425 0.80707 0.64065 0.0
O93 O 0.29727 0.89439 0.6376 0.0
O94 O 0.28961 0.91698 0.58931 0.0
H95 H 0.28656 0.84697 0.49173 0.0
H96 H 0.26689 0.81587 0.49267 0.0
C97 C 0.26981 0.83606 0.50504 0.0
H98 H 0.25082 0.84831 0.50257 0.0
H99 H 0.30219 0.89834 0.50067 0.0
O100 O 0.27711 0.84173 0.67773 0.0
C101 C 0.30106 0.91504 0.61858 0.0
Co102 Co 0.39146 0.02049 0.88373 0.0
Co103 Co 0.36235 0.0146 0.81163 0.0
C104 C 0.36415 0.96841 0.86199 0.0
O105 O 0.37732 0.9829 0.8832 0.0
O106 O 0.35737 0.97799 0.83305 0.0
C107 C 0.42461 0.00328 0.93955 0.0
O108 O 0.42655 0.98083 0.9214 0.0
C109 C 0.34447 0.9896 0.74612 0.0
C110 C 0.34364 0.02467 0.71096 0.0
C111 C 0.34026 0.99657 0.71219 0.0
N112 N 0.35088 0.01228 0.76397 0.0
N113 N 0.35003 0.03323 0.7427 0.0
C114 C 0.33973 0.96229 0.76205 0.0
H115 H 0.32535 0.96488 0.78359 0.0
H116 H 0.35937 0.95418 0.77197 0.0
H117 H 0.33066 0.94743 0.74397 0.0
C118 C 0.43825 0.03474 0.84114 0.0
N119 N 0.41166 0.02839 0.84443 0.0
N120 N 0.40064 0.02483 0.81415 0.0
C121 C 0.42063 0.02775 0.79055 0.0
C122 C 0.44497 0.03454 0.80693 0.0
C123 C 0.45737 0.03814 0.8706 0.0
H124 H 0.44732 0.05028 0.89086 0.0
H125 H 0.46248 0.01771 0.88105 0.0
H126 H 0.47657 0.04848 0.86301 0.0
O127 O 0.36022 0.04495 0.88746 0.0
O128 O 0.33738 0.04054 0.8387 0.0
H129 H 0.40552 0.03949 0.74183 0.0
H130 H 0.43709 0.0206 0.74025 0.0
C131 C 0.41706 0.02234 0.75338 0.0
H132 H 0.40515 0.00327 0.74961 0.0
H133 H 0.35429 0.05336 0.74969 0.0
O134 O 0.41243 0.02386 0.92681 0.0
C135 C 0.33986 0.05066 0.86867 0.0
Co136 Co 0.23645 0.86272 0.89256 0.0
Co137 Co 0.24544 0.89007 0.96507 0.0
C138 C 0.28981 0.88942 0.91329 0.0
O139 O 0.27383 0.87767 0.8924 0.0
O140 O 0.28213 0.89477 0.94354 0.0
C141 C 0.25398 0.82998 0.83694 0.0
O142 O 0.27619 0.82814 0.8556 0.0
C143 C 0.26942 0.90851 0.03081 0.0
C144 C 0.23408 0.90755 0.06562 0.0
C145 C 0.26204 0.91215 0.06469 0.0
N146 N 0.24717 0.90116 0.01272 0.0
N147 N 0.22603 0.90096 0.03376 0.0
C148 C 0.29674 0.91408 0.01529 0.0
H149 H 0.29399 0.92663 0.99208 0.0
H150 H 0.30627 0.89434 1.00808 0.0
H151 H 0.31049 0.92525 0.03292 0.0
C152 C 0.22271 0.81547 0.93445 0.0
N153 N 0.22964 0.8419 0.93156 0.0
N154 N 0.23447 0.85224 0.96193 0.0
C155 C 0.23179 0.83197 0.98513 0.0
C156 C 0.22377 0.80822 0.96844 0.0
C157 C 0.21784 0.79695 0.90472 0.0
H158 H 0.23776 0.79195 0.89272 0.0
H159 H 0.20778 0.77762 0.91244 0.0
H160 H 0.20493 0.80748 0.8856 0.0
O161 O 0.21155 0.89373 0.89013 0.0
O162 O 0.22015 0.91573 0.93863 0.0
H163 H 0.22124 0.84493 0.03521 0.0
H164 H 0.24169 0.81437 0.03401 0.0
C165 C 0.23849 0.83468 0.02208 0.0
H166 H 0.25712 0.84736 0.02537 0.0
H167 H 0.20613 0.89586 0.02649 0.0
O168 O 0.23315 0.84204 0.84926 0.0
C169 C 0.20817 0.91412 0.90969 0.0
Co170 Co 0.39153 0.98721 0.14284 0.0
Co171 Co 0.36289 0.99196 0.21513 0.0
C172 C 0.36289 0.03816 0.16466 0.0
O173 O 0.37689 0.02456 0.14335 0.0
O174 O 0.35613 0.02795 0.19323 0.0
C175 C 0.42396 0.00409 0.08599 0.0
O176 O 0.42472 0.02735 0.10269 0.0
C177 C 0.35262 0.01567 0.28399 0.0
C178 C 0.33055 0.98209 0.30928 0.0
C179 C 0.33933 0.00879 0.31438 0.0
N180 N 0.35125 0.99426 0.26232 0.0
N181 N 0.33832 0.97416 0.27792 0.0
C182 C 0.36572 0.04239 0.27508 0.0
H183 H 0.37212 0.04288 0.24819 0.0
H184 H 0.38449 0.04518 0.29052 0.0
H185 H 0.35149 0.05952 0.28052 0.0
C186 C 0.43865 0.97322 0.18515 0.0
N187 N 0.4121 0.97967 0.18199 0.0
N188 N 0.40103 0.98221 0.21238 0.0
C189 C 0.42078 0.97804 0.23596 0.0
C190 C 0.44518 0.97203 0.21939 0.0
C191 C 0.45772 0.97013 0.15565 0.0
H192 H 0.46227 0.99061 0.14493 0.0
H193 H 0.47712 0.96028 0.16331 0.0
H194 H 0.44788 0.95762 0.13555 0.0
O195 O 0.36043 0.96225 0.13955 0.0
O196 O 0.3384 0.96541 0.189 0.0
H197 H 0.43509 0.97382 0.28771 0.0
H198 H 0.41273 0.0025 0.27972 0.0
C199 C 0.41675 0.98078 0.27348 0.0
H200 H 0.3987 0.96862 0.28144 0.0
H201 H 0.33416 0.95523 0.26682 0.0
O202 O 0.41239 0.98358 0.09972 0.0
C203 C 0.34059 0.95578 0.15882 0.0
Co204 Co 0.26914 0.14004 0.3935 0.0
Co205 Co 0.26332 0.11209 0.46618 0.0
C206 C 0.21762 0.11171 0.4154 0.0
O207 O 0.2318 0.12508 0.39407 0.0
O208 O 0.22722 0.10551 0.44449 0.0
C209 C 0.25097 0.17258 0.33773 0.0
O210 O 0.22866 0.1741 0.35624 0.0
C211 C 0.24024 0.1018 0.53568 0.0
C212 C 0.27417 0.07952 0.56012 0.0
C213 C 0.24771 0.08869 0.56585 0.0
N214 N 0.26136 0.1005 0.51351 0.0
N215 N 0.28166 0.08745 0.52864 0.0
C216 C 0.21285 0.11372 0.52728 0.0
H217 H 0.21062 0.11721 0.49976 0.0
H218 H 0.21079 0.13395 0.53968 0.0
H219 H 0.19619 0.10024 0.53661 0.0
C220 C 0.28329 0.1873 0.43559 0.0
N221 N 0.27664 0.1608 0.43258 0.0
N222 N 0.27353 0.15 0.46303 0.0
C223 C 0.2775 0.16985 0.48648 0.0
C224 C 0.28402 0.19404 0.46982 0.0
C225 C 0.2864 0.20623 0.40594 0.0
H226 H 0.29856 0.19614 0.38572 0.0
H227 H 0.26586 0.21102 0.39549 0.0
H228 H 0.2966 0.22558 0.41322 0.0
O229 O 0.29414 0.10897 0.39028 0.0
O230 O 0.28926 0.08731 0.4398 0.0
H231 H 0.28599 0.14818 0.53253 0.0
H232 H 0.28072 0.18456 0.53818 0.0
C233 C 0.274 0.16613 0.52395 0.0
H234 H 0.25213 0.16217 0.52954 0.0
H235 H 0.30038 0.08316 0.51705 0.0
O236 O 0.27191 0.16077 0.35016 0.0
C237 C 0.29957 0.08906 0.40992 0.0
Co238 Co 0.11583 0.01709 0.6435 0.0
Co239 Co 0.14388 0.01117 0.71607 0.0
C240 C 0.14284 0.96515 0.66561 0.0
O241 O 0.12957 0.9794 0.64423 0.0
O242 O 0.14957 0.97488 0.69447 0.0
C243 C 0.08289 1.00035 0.58713 0.0
O244 O 0.08168 0.97735 0.60431 0.0
C245 C 0.15464 0.98791 0.78518 0.0
C246 C 0.17736 0.02156 0.80954 0.0
C247 C 0.16848 0.99497 0.81509 0.0
N248 N 0.15574 0.00914 0.76323 0.0
N249 N 0.16904 0.02929 0.77832 0.0
C250 C 0.14158 0.96103 0.77692 0.0
H251 H 0.1348 0.96024 0.75016 0.0
H252 H 0.12309 0.95825 0.79284 0.0
H253 H 0.15599 0.94404 0.78233 0.0
C254 C 0.06877 0.03175 0.6856 0.0
N255 N 0.09528 0.02507 0.6826 0.0
N256 N 0.10609 0.02197 0.71306 0.0
C257 C 0.08625 0.02606 0.73651 0.0
C258 C 0.06205 0.03256 0.71979 0.0
C259 C 0.04978 0.03505 0.65602 0.0
H260 H 0.05955 0.04803 0.63635 0.0
H261 H 0.04563 0.0147 0.64469 0.0
H262 H 0.03011 0.0444 0.66374 0.0
O263 O 0.14779 0.04107 0.63997 0.0
O264 O 0.16919 0.03659 0.68972 0.0
H265 H 0.10794 0.0346 0.78256 0.0
H266 H 0.07152 0.02918 0.78819 0.0
C267 C 0.08999 0.02256 0.77397 0.0
H268 H 0.09407 1.00073 0.77954 0.0
H269 H 0.17319 0.04808 0.76687 0.0
O270 O 0.09495 0.0208 0.60038 0.0
C271 C 0.16771 0.04648 0.65963 0.0
Co272 Co 0.77349 0.8624 0.88699 0.0
Co273 Co 0.76311 0.89177 0.95776 0.0
C274 C 0.7188 0.88666 0.90578 0.0
O275 O 0.7351 0.87482 0.88534 0.0
O276 O 0.7265 0.8938 0.93548 0.0
C277 C 0.76021 0.8265 0.83203 0.0
O278 O 0.73697 0.82415 0.84854 0.0
C279 C 0.73777 0.91363 0.02102 0.0
C280 C 0.76968 0.90618 0.05953 0.0
C281 C 0.74277 0.91467 0.05597 0.0
N282 N 0.76009 0.90385 1.00501 0.0
N283 N 0.77933 0.90012 0.02823 0.0
C284 C 0.71275 0.92331 1.00282 0.0
H285 H 0.71827 0.93163 0.97751 0.0
H286 H 0.69876 0.90573 0.99939 0.0
H287 H 0.70206 0.93945 0.01755 0.0
C288 C 0.78809 0.81679 0.93116 0.0
N289 N 0.78128 0.84317 0.92707 0.0
N290 N 0.77513 0.85404 0.95676 0.0
C291 C 0.77633 0.83401 0.98052 0.0
C292 C 0.7852 0.80997 0.96514 0.0
C293 C 0.79343 0.79756 0.90225 0.0
H294 H 0.77367 0.79176 0.8904 0.0
H295 H 0.80384 0.77867 0.91087 0.0
H296 H 0.80633 0.80773 0.88284 0.0
O297 O 0.79636 0.89472 0.88319 0.0
O298 O 0.78787 0.91802 0.93066 0.0
H299 H 0.78289 0.84458 0.03252 0.0
H300 H 0.75968 0.81663 0.02662 0.0
C301 C 0.76613 0.83671 0.01623 0.0
H302 H 0.74866 0.85114 0.01726 0.0
H303 H 0.79877 0.89242 0.0229 0.0
O304 O 0.77937 0.84058 0.84519 0.0
C305 C 0.7994 0.91591 0.90147 0.0
Co306 Co 0.8975 0.02074 0.63855 0.0
Co307 Co 0.86567 0.01467 0.70872 0.0
C308 C 0.86885 0.96914 0.65756 0.0
O309 O 0.88333 0.98351 0.63772 0.0
O310 O 0.861 0.9784 0.68625 0.0
C311 C 0.93193 0.00319 0.58468 0.0
O312 O 0.93275 0.9807 0.6029 0.0
C313 C 0.84544 0.98938 0.77302 0.0
C314 C 0.84318 0.02461 0.80792 0.0
C315 C 0.83972 0.99651 0.80663 0.0
N316 N 0.85255 0.01204 0.75556 0.0
N317 N 0.85086 0.03306 0.77664 0.0
C318 C 0.84211 0.96185 0.75694 0.0
H319 H 0.82952 0.96392 0.73362 0.0
H320 H 0.86251 0.95383 0.74961 0.0
H321 H 0.83176 0.94709 0.77399 0.0
C322 C 0.94245 0.03492 0.68354 0.0
N323 N 0.91607 0.02845 0.67887 0.0
N324 N 0.90406 0.02469 0.7085 0.0
C325 C 0.92327 0.02755 0.73313 0.0
C326 C 0.94805 0.03457 0.71802 0.0
C327 C 0.96243 0.0388 0.65509 0.0
H328 H 0.95298 0.0513 0.63472 0.0
H329 H 0.96783 0.01856 0.64429 0.0
H330 H 0.98139 0.04899 0.66385 0.0
O331 O 0.86619 0.04459 0.63337 0.0
O332 O 0.84172 0.04105 0.68082 0.0
H333 H 0.90691 0.03918 0.78125 0.0
H334 H 0.9382 0.01985 0.78398 0.0
C335 C 0.91856 0.02195 0.77003 0.0
H336 H 0.90629 0.00303 0.77303 0.0
H337 H 0.85543 0.05316 0.76985 0.0
O338 O 0.91992 0.02411 0.59677 0.0
C339 C 0.8451 0.05059 0.65071 0.0
Co340 Co 0.73895 0.14173 0.38808 0.0
Co341 Co 0.73979 0.11233 0.45957 0.0
C342 C 0.78954 0.11611 0.41349 0.0
O343 O 0.77736 0.13069 0.3915 0.0
O344 O 0.77716 0.10809 0.44018 0.0
C345 C 0.75501 0.17586 0.33255 0.0
O346 O 0.77787 0.17803 0.34992 0.0
C347 C 0.76451 0.10507 0.52661 0.0
C348 C 0.73797 0.07462 0.55141 0.0
C349 C 0.7622 0.08909 0.55606 0.0
N350 N 0.74311 0.09986 0.50601 0.0
N351 N 0.72713 0.08185 0.52118 0.0
C352 C 0.78631 0.12529 0.5175 0.0
H353 H 0.77834 0.14041 0.49896 0.0
H354 H 0.79384 0.13606 0.54052 0.0
H355 H 0.80357 0.11449 0.50505 0.0
C356 C 0.72072 0.18774 0.4295 0.0
N357 N 0.72729 0.16121 0.42661 0.0
N358 N 0.72793 0.14987 0.457 0.0
C359 C 0.72201 0.16938 0.48033 0.0
C360 C 0.71722 0.19392 0.46354 0.0
C361 C 0.72092 0.2075 0.40042 0.0
H362 H 0.74223 0.21007 0.39127 0.0
H363 H 0.7128 0.22778 0.40788 0.0
H364 H 0.70841 0.19926 0.37924 0.0
O365 O 0.71816 0.10793 0.38154 0.0
O366 O 0.71625 0.0865 0.43142 0.0
H367 H 0.70917 0.18059 0.53078 0.0
H368 H 0.74359 0.16805 0.52751 0.0
C369 C 0.72241 0.16528 0.51799 0.0
H370 H 0.7154 0.14438 0.52447 0.0
H371 H 0.70943 0.07368 0.51034 0.0
O372 O 0.7351 0.1627 0.34539 0.0
C373 C 0.71057 0.08784 0.39968 0.0
Co374 Co 0.60987 0.98552 0.14003 0.0
Co375 Co 0.64147 0.98914 0.21003 0.0
C376 C 0.63934 0.03619 0.16089 0.0
O377 O 0.62458 0.02281 0.14013 0.0
O378 O 0.64704 0.02578 0.18903 0.0
C379 C 0.57545 0.00196 0.08475 0.0
O380 O 0.5752 0.0255 0.10083 0.0
C381 C 0.65509 0.01143 0.27831 0.0
C382 C 0.68235 0.97951 0.29868 0.0
C383 C 0.67172 0.00513 0.3059 0.0
N384 N 0.65587 0.99057 0.25586 0.0
N385 N 0.67186 0.97135 0.26862 0.0
C386 C 0.64088 0.03801 0.27204 0.0
H387 H 0.62826 0.03705 0.24863 0.0
H388 H 0.62752 0.04301 0.29397 0.0
H389 H 0.65632 0.05454 0.26984 0.0
C390 C 0.56451 0.97138 0.18456 0.0
N391 N 0.59103 0.97736 0.18014 0.0
N392 N 0.6032 0.9795 0.20991 0.0
C393 C 0.58418 0.97556 0.23446 0.0
C394 C 0.55911 0.97006 0.21906 0.0
C395 C 0.54432 0.96945 0.15604 0.0
H396 H 0.54096 0.99011 0.1452 0.0
H397 H 0.52447 0.96113 0.16467 0.0
H398 H 0.55259 0.95608 0.13572 0.0
O399 O 0.64066 0.96093 0.13383 0.0
O400 O 0.66481 0.96304 0.1816 0.0
H401 H 0.57184 0.97093 0.28687 0.0
H402 H 0.5929 1.00037 0.27772 0.0
C403 C 0.58945 0.97849 0.27171 0.0
H404 H 0.6082 0.96703 0.27873 0.0
H405 H 0.67667 0.95319 0.25604 0.0
O406 O 0.58735 0.9817 0.09853 0.0
C407 C 0.66144 0.95412 0.15126 0.0
Co408 Co 0.76653 0.14451 0.13158 0.0
Co409 Co 0.76281 0.11278 0.0617 0.0
C410 C 0.71624 0.11401 0.11171 0.0
O411 O 0.72961 0.12908 0.13207 0.0
O412 O 0.72645 0.10658 0.08333 0.0
C413 C 0.74981 0.17829 0.18708 0.0
O414 O 0.72605 0.17775 0.17144 0.0
C415 C 0.73913 0.09791 0.99474 0.0
C416 C 0.77221 0.07346 0.97177 0.0
C417 C 0.74558 0.0822 0.96638 0.0
N418 N 0.76091 0.09849 0.01582 0.0
N419 N 0.78076 0.08417 1.00156 0.0
C420 C 0.71176 0.10966 1.00334 0.0
H421 H 0.71393 0.1263 0.02235 0.0
H422 H 0.70157 0.11762 0.98016 0.0
H423 H 0.69866 0.09331 0.01415 0.0
C424 C 0.77914 0.19009 0.08689 0.0
N425 N 0.77365 0.16351 0.09143 0.0
N426 N 0.77179 0.15119 0.06171 0.0
C427 C 0.77566 0.17012 0.03706 0.0
C428 C 0.78061 0.1953 0.05239 0.0
C429 C 0.7811 0.2104 0.11529 0.0
H430 H 0.76079 0.21239 0.12762 0.0
H431 H 0.78767 0.23079 0.10619 0.0
H432 H 0.79584 0.20296 0.13463 0.0
O433 O 0.79189 0.11426 0.13727 0.0
O434 O 0.78966 0.08993 0.08964 0.0
H435 H 0.78651 0.14662 0.99322 0.0
H436 H 0.77992 0.18248 0.98458 0.0
C437 C 0.77354 0.16446 0.99981 0.0
H438 H 0.75206 0.15918 0.99348 0.0
H439 H 0.79975 0.08066 0.01289 0.0
O440 O 0.77032 0.16707 0.17298 0.0
C441 C 0.79889 0.09358 0.1198 0.0
Co442 Co 0.61049 0.00973 0.88349 0.0
Co443 Co 0.64112 0.01013 0.81279 0.0
C444 C 0.63784 0.96024 0.85927 0.0
O445 O 0.62208 0.97149 0.88075 0.0
O446 O 0.64612 0.97327 0.8332 0.0
C447 C 0.57632 0.99428 0.93959 0.0
O448 O 0.57562 0.9705 0.92407 0.0
C449 C 0.65052 0.98374 0.74723 0.0
C450 C 0.68186 0.00963 0.72298 0.0
C451 C 0.66795 0.98507 0.71917 0.0
N452 N 0.65449 0.00597 0.76683 0.0
N453 N 0.67298 0.0216 0.75189 0.0
C454 C 0.6299 0.96204 0.75539 0.0
H455 H 0.61161 0.97133 0.76739 0.0
H456 H 0.62388 0.9506 0.73216 0.0
H457 H 0.63859 0.94761 0.77423 0.0
C458 C 0.56475 0.02706 0.84094 0.0
N459 N 0.59134 0.02083 0.84439 0.0
N460 N 0.60326 0.02102 0.81433 0.0
C461 C 0.58414 0.02735 0.79065 0.0
C462 C 0.55919 0.0314 0.80689 0.0
C463 C 0.54456 0.02634 0.86956 0.0
H464 H 0.5516 0.04005 0.89027 0.0
H465 H 0.5434 0.00526 0.87978 0.0
H466 H 0.52386 0.03274 0.8613 0.0
O467 O 0.64409 0.03102 0.89052 0.0
O468 O 0.66587 0.03473 0.84101 0.0
H469 H 0.57471 0.04294 0.74089 0.0
H470 H 0.5856 0.00793 0.74205 0.0
C471 C 0.58914 0.02846 0.75318 0.0
H472 H 0.61051 0.03473 0.74789 0.0
H473 H 0.68055 0.03973 0.76225 0.0
O474 O 0.58882 0.01409 0.92563 0.0
C475 C 0.66409 0.03969 0.87291 0.0
Co476 Co 0.74898 0.85398 0.63122 0.0
Co477 Co 0.74414 0.88852 0.56342 0.0
C478 C 0.79467 0.88816 0.60948 0.0
O479 O 0.78529 0.87009 0.62946 0.0
O480 O 0.78072 0.89684 0.58426 0.0
C481 C 0.76786 0.82121 0.68688 0.0
O482 O 0.79177 0.82389 0.67198 0.0
C483 C 0.76509 0.90246 0.49462 0.0
C484 C 0.73189 0.9279 0.47378 0.0
C485 C 0.75788 0.91811 0.46624 0.0
N486 N 0.74455 0.90334 0.51758 0.0
N487 N 0.72463 0.91833 0.50464 0.0
C488 C 0.79158 0.88792 0.50073 0.0
H489 H 0.80908 0.90161 0.4949 0.0
H490 H 0.79301 0.88043 0.52719 0.0
H491 H 0.79283 0.86981 0.48385 0.0
C492 C 0.73669 0.80919 0.58518 0.0
N493 N 0.74036 0.83594 0.59088 0.0
N494 N 0.73766 0.8496 0.56221 0.0
C495 C 0.73189 0.8315 0.53712 0.0
C496 C 0.73124 0.80537 0.55101 0.0
C497 C 0.73912 0.78771 0.61212 0.0
H498 H 0.72378 0.79167 0.63233 0.0
H499 H 0.75972 0.78892 0.62387 0.0
H500 H 0.73596 0.76686 0.60179 0.0
O501 O 0.72357 0.88388 0.63985 0.0
O502 O 0.71671 0.90874 0.59361 0.0
H503 H 0.71513 0.85762 0.49869 0.0
H504 H 0.71788 0.82191 0.48644 0.0
C505 C 0.72779 0.83888 0.5006 0.0
H506 H 0.74797 0.84317 0.48888 0.0
H507 H 0.70638 0.92269 0.51729 0.0
O508 O 0.74671 0.83054 0.67211 0.0
C509 C 0.71206 0.90389 0.6251 0.0
Co510 Co 0.89074 0.98339 0.3856 0.0
Co511 Co 0.86275 0.99435 0.31411 0.0
C512 C 0.86592 0.03802 0.36623 0.0
O513 O 0.87699 0.02132 0.3868 0.0
O514 O 0.86018 0.03098 0.33584 0.0
C515 C 0.92635 0.99941 0.439 0.0
O516 O 0.92894 0.02119 0.41975 0.0
C517 C 0.8412 0.01903 0.25031 0.0
C518 C 0.84876 0.98678 0.21231 0.0
C519 C 0.84012 0.01365 0.21546 0.0
N520 N 0.85107 0.99693 0.26667 0.0
N521 N 0.85492 0.9775 0.24375 0.0
C522 C 0.83138 0.04418 0.26811 0.0
H523 H 0.84899 0.05812 0.27178 0.0
H524 H 0.81542 0.05483 0.25303 0.0
H525 H 0.8227 0.03882 0.29329 0.0
C526 C 0.93729 0.96926 0.34241 0.0
N527 N 0.91086 0.9762 0.34597 0.0
N528 N 0.90045 0.98241 0.31604 0.0
C529 C 0.92078 0.98101 0.29268 0.0
C530 C 0.94456 0.97209 0.30861 0.0
C531 C 0.9561 0.96323 0.37153 0.0
H532 H 0.94519 0.9512 0.39119 0.0
H533 H 0.96304 0.98278 0.38296 0.0
H534 H 0.97439 0.95171 0.36302 0.0
O535 O 0.85888 0.95965 0.38882 0.0
O536 O 0.83627 0.97007 0.34131 0.0
H537 H 0.91076 0.97393 0.24061 0.0
H538 H 0.93878 0.99707 0.24665 0.0
C539 C 0.91852 0.99083 0.25676 0.0
H540 H 0.90414 0.0083 0.25519 0.0
H541 H 0.86267 0.95816 0.24939 0.0
O542 O 0.91233 0.97935 0.42798 0.0
C543 C 0.83785 0.95767 0.36999 0.0
Co544 Co 0.72908 0.64262 0.62939 0.0
Co545 Co 0.73703 0.61074 0.55954 0.0
C546 C 0.78166 0.61446 0.61176 0.0
O547 O 0.76661 0.62859 0.63131 0.0
O548 O 0.77306 0.60661 0.58273 0.0
C549 C 0.74483 0.67718 0.68452 0.0
O550 O 0.7683 0.67746 0.66825 0.0
C551 C 0.76327 0.59125 0.49552 0.0
C552 C 0.72827 0.58773 0.46033 0.0
C553 C 0.7565 0.58543 0.46184 0.0
N554 N 0.74027 0.59753 0.51282 0.0
N555 N 0.71941 0.59508 0.49157 0.0
C556 C 0.7908 0.58859 0.51183 0.0
H557 H 0.79801 0.60906 0.52008 0.0
H558 H 0.80605 0.57924 0.49451 0.0
H559 H 0.78896 0.5754 0.53464 0.0
C560 C 0.71648 0.68759 0.58346 0.0
N561 N 0.72211 0.66108 0.58863 0.0
N562 N 0.72674 0.64893 0.55929 0.0
C563 C 0.72531 0.66804 0.53445 0.0
C564 C 0.71836 0.69307 0.54896 0.0
C565 C 0.71298 0.70788 0.61165 0.0
H566 H 0.69979 0.69908 0.6318 0.0
H567 H 0.73329 0.71252 0.62288 0.0
H568 H 0.70368 0.72719 0.60256 0.0
O569 O 0.70507 0.61124 0.63412 0.0
O570 O 0.71056 0.58671 0.58696 0.0
H571 H 0.71675 0.65048 0.48595 0.0
H572 H 0.73479 0.68254 0.4838 0.0
C573 C 0.73287 0.66309 0.49812 0.0
H574 H 0.75244 0.65166 0.49684 0.0
H575 H 0.6991 0.59893 0.49823 0.0
O576 O 0.72444 0.66523 0.67094 0.0
C577 C 0.70002 0.59002 0.61655 0.0
Co578 Co 0.61125 0.47869 0.88226 0.0
Co579 Co 0.63967 0.48812 0.81041 0.0
C580 C 0.63635 0.53255 0.86217 0.0
O581 O 0.62444 0.51656 0.88279 0.0
O582 O 0.64283 0.5246 0.83238 0.0
C583 C 0.57818 0.49484 0.93836 0.0
O584 O 0.57637 0.51758 0.92075 0.0
C585 C 0.66002 0.51373 0.74652 0.0
C586 C 0.6541 0.48108 0.70857 0.0
C587 C 0.66157 0.5083 0.71171 0.0
N588 N 0.65106 0.49122 0.76288 0.0
N589 N 0.64814 0.47161 0.73998 0.0
C590 C 0.66881 0.53928 0.76438 0.0
H591 H 0.67916 0.53401 0.78861 0.0
H592 H 0.65049 0.55185 0.77012 0.0
H593 H 0.68322 0.55139 0.74864 0.0
C594 C 0.56469 0.4645 0.83946 0.0
N595 N 0.5912 0.47113 0.84278 0.0
N596 N 0.60174 0.47656 0.81267 0.0
C597 C 0.5814 0.47484 0.78933 0.0
C598 C 0.55749 0.46658 0.80552 0.0
C599 C 0.54591 0.45963 0.86892 0.0
H600 H 0.54068 0.47954 0.88078 0.0
H601 H 0.52671 0.44946 0.86088 0.0
H602 H 0.5563 0.44679 0.88823 0.0
O603 O 0.64328 0.45536 0.88525 0.0
O604 O 0.66595 0.46318 0.83708 0.0
H605 H 0.56359 0.48895 0.74218 0.0
H606 H 0.59783 0.50133 0.75088 0.0
C607 C 0.58386 0.48355 0.753 0.0
H608 H 0.59232 0.46638 0.73789 0.0
H609 H 0.64122 0.45195 0.74562 0.0
O610 O 0.59035 0.47439 0.92528 0.0
C611 C 0.66413 0.4519 0.86645 0.0
Co612 Co 0.77326 0.36197 0.13161 0.0
Co613 Co 0.76393 0.39087 0.06015 0.0
C614 C 0.71986 0.38868 0.11224 0.0
O615 O 0.73578 0.37637 0.13259 0.0
O616 O 0.72765 0.39492 0.08233 0.0
C617 C 0.75579 0.32892 0.18666 0.0
O618 O 0.73395 0.32658 0.16739 0.0
C619 C 0.73839 0.40901 0.99516 0.0
C620 C 0.77358 0.41031 0.96007 0.0
C621 C 0.74543 0.41367 0.96129 0.0
N622 N 0.76114 0.40256 0.01286 0.0
N623 N 0.78213 0.40367 0.99167 0.0
C624 C 0.71089 0.41281 1.01118 0.0
H625 H 0.71311 0.42593 0.03401 0.0
H626 H 0.70279 0.39265 0.0193 0.0
H627 H 0.69611 0.42277 0.99378 0.0
C628 C 0.78663 0.31547 0.08784 0.0
N629 N 0.78003 0.34191 0.09184 0.0
N630 N 0.77495 0.35295 0.06193 0.0
C631 C 0.77702 0.33315 0.03799 0.0
C632 C 0.78494 0.30892 0.05362 0.0
C633 C 0.79163 0.29626 0.1168 0.0
H634 H 0.77167 0.28948 0.12728 0.0
H635 H 0.80327 0.27802 0.10851 0.0
H636 H 0.80317 0.30682 0.13722 0.0
O637 O 0.79767 0.3933 0.13457 0.0
O638 O 0.78953 0.41637 0.08676 0.0
H639 H 0.78622 0.34805 0.98835 0.0
H640 H 0.76694 0.31671 0.98846 0.0
C641 C 0.7696 0.33672 1.00136 0.0
H642 H 0.75047 0.34878 0.9992 0.0
H643 H 0.80228 0.39939 0.99863 0.0
O644 O 0.77675 0.34098 0.17467 0.0
C645 C 0.80131 0.4141 0.11577 0.0
Co646 Co 0.8903 0.51798 0.38326 0.0
Co647 Co 0.86183 0.50987 0.31132 0.0
C648 C 0.86523 0.46433 0.36208 0.0
O649 O 0.87745 0.47989 0.38309 0.0
O650 O 0.85835 0.47288 0.33264 0.0
C651 C 0.92426 0.50351 0.43982 0.0
O652 O 0.92637 0.4802 0.42343 0.0
C653 C 0.84478 0.48595 0.24488 0.0
C654 C 0.84259 0.52201 0.21141 0.0
C655 C 0.84019 0.4938 0.21135 0.0
N656 N 0.85051 0.50826 0.26372 0.0
N657 N 0.84888 0.5298 0.24347 0.0
C658 C 0.84161 0.45797 0.25947 0.0
H659 H 0.82838 0.45915 0.28232 0.0
H660 H 0.86204 0.45025 0.26718 0.0
H661 H 0.83212 0.44353 0.24119 0.0
C662 C 0.9367 0.5332 0.34085 0.0
N663 N 0.91031 0.52612 0.34407 0.0
N664 N 0.89961 0.52162 0.31382 0.0
C665 C 0.91964 0.52471 0.29032 0.0
C666 C 0.94361 0.53258 0.30675 0.0
C667 C 0.95563 0.53765 0.3703 0.0
H668 H 0.94562 0.55097 0.38943 0.0
H669 H 0.96014 0.51768 0.3824 0.0
H670 H 0.9752 0.54711 0.36228 0.0
O671 O 0.85818 0.5413 0.38677 0.0
O672 O 0.83563 0.53458 0.33826 0.0
H673 H 0.90492 0.53499 0.2409 0.0
H674 H 0.93679 0.51649 0.24068 0.0
C675 C 0.91656 0.5183 0.25333 0.0
H676 H 0.90494 0.499 0.25012 0.0
H677 H 0.8525 0.54983 0.2514 0.0
O678 O 0.91129 0.52308 0.42593 0.0
C679 C 0.83751 0.5454 0.36787 0.0
Co680 Co 0.73475 0.36397 0.38981 0.0
Co681 Co 0.7426 0.39047 0.46319 0.0
C682 C 0.78832 0.38827 0.41254 0.0
O683 O 0.77285 0.37695 0.39076 0.0
O684 O 0.77952 0.39397 0.44221 0.0
C685 C 0.75144 0.33137 0.33329 0.0
O686 O 0.7739 0.32897 0.35141 0.0
C687 C 0.76757 0.41136 0.52705 0.0
C688 C 0.73592 0.40342 0.56566 0.0
C689 C 0.7627 0.41233 0.56198 0.0
N690 N 0.74536 0.40123 0.51108 0.0
N691 N 0.72626 0.39717 0.53438 0.0
C692 C 0.79196 0.4224 0.50871 0.0
H693 H 0.78543 0.43195 0.48446 0.0
H694 H 0.80622 0.40533 0.50317 0.0
H695 H 0.80276 0.43809 0.52406 0.0
C696 C 0.71898 0.31655 0.43049 0.0
N697 N 0.72621 0.34298 0.42843 0.0
N698 N 0.73077 0.35276 0.45918 0.0
C699 C 0.72778 0.332 0.48171 0.0
C700 C 0.71967 0.30862 0.46427 0.0
C701 C 0.71462 0.29851 0.40019 0.0
H702 H 0.73477 0.29346 0.38881 0.0
H703 H 0.70418 0.2792 0.40714 0.0
H704 H 0.70224 0.30943 0.38086 0.0
O705 O 0.71151 0.39631 0.38716 0.0
O706 O 0.71818 0.41725 0.43687 0.0
H707 H 0.73981 0.3131 0.5291 0.0
H708 H 0.75265 0.3474 0.52252 0.0
C709 C 0.73494 0.33359 0.51866 0.0
H710 H 0.71711 0.34163 0.53291 0.0
H711 H 0.70678 0.38955 0.52906 0.0
O712 O 0.73106 0.34391 0.34602 0.0
C713 C 0.70749 0.41634 0.4071 0.0
Co714 Co 0.89307 0.49152 0.64184 0.0
Co715 Co 0.86228 0.49341 0.71257 0.0
C716 C 0.86142 0.5406 0.66337 0.0
O717 O 0.87654 0.52798 0.64229 0.0
O718 O 0.85464 0.52973 0.6916 0.0
C719 C 0.92534 0.50988 0.58551 0.0
O720 O 0.92358 0.5336 0.60102 0.0
C721 C 0.84849 0.51551 0.78077 0.0
C722 C 0.82175 0.48317 0.8012 0.0
C723 C 0.83176 0.50908 0.8082 0.0
N724 N 0.84833 0.49445 0.75859 0.0
N725 N 0.83268 0.47497 0.77141 0.0
C726 C 0.86212 0.54236 0.77433 0.0
H727 H 0.87477 0.54157 0.75094 0.0
H728 H 0.87533 0.54773 0.7963 0.0
H729 H 0.84634 0.55855 0.77202 0.0
C730 C 0.93973 0.47974 0.68559 0.0
N731 N 0.91294 0.48464 0.68163 0.0
N732 N 0.90091 0.48547 0.7116 0.0
C733 C 0.92019 0.48134 0.7358 0.0
C734 C 0.94534 0.4774 0.71994 0.0
C735 C 0.9598 0.47911 0.65684 0.0
H736 H 0.95307 0.4639 0.63764 0.0
H737 H 0.96028 0.49945 0.64444 0.0
H738 H 0.9807 0.47395 0.6656 0.0
O739 O 0.86332 0.46518 0.63647 0.0
O740 O 0.83991 0.46617 0.68487 0.0
H741 H 0.89666 0.46952 0.77927 0.0
H742 H 0.93283 0.47467 0.78778 0.0
C743 C 0.91487 0.48215 0.77321 0.0
H744 H 0.91039 0.5035 0.78088 0.0
H745 H 0.82825 0.45666 0.75895 0.0
O746 O 0.91535 0.48883 0.59984 0.0
C747 C 0.84322 0.45734 0.6545 0.0
Co748 Co 0.75776 0.64368 0.88714 0.0
Co749 Co 0.7569 0.61386 0.95911 0.0
C750 C 0.70831 0.61471 0.9108 0.0
O751 O 0.72013 0.63028 0.88954 0.0
O752 O 0.72035 0.60702 0.93794 0.0
C753 C 0.74082 0.67651 0.83053 0.0
O754 O 0.71758 0.67742 0.84725 0.0
C755 C 0.7351 0.60282 0.02913 0.0
C756 C 0.76923 0.57988 0.0521 0.0
C757 C 0.74297 0.5892 0.05883 0.0
N758 N 0.75577 0.60163 1.00631 0.0
N759 N 0.77621 0.58816 0.02057 0.0
C760 C 0.70776 0.61528 0.02174 0.0
H761 H 0.70493 0.61865 0.99426 0.0
H762 H 0.70651 0.63562 0.03404 0.0
H763 H 0.69105 0.60221 0.03182 0.0
C764 C 0.77329 0.69015 0.92953 0.0
N765 N 0.76732 0.66352 0.92618 0.0
N766 N 0.76664 0.65193 0.95643 0.0
C767 C 0.77199 0.67129 0.98012 0.0
C768 C 0.77639 0.69605 0.9637 0.0
C769 C 0.77427 0.70992 0.9005 0.0
H770 H 0.75344 0.71214 0.88963 0.0
H771 H 0.78175 0.73032 0.9086 0.0
H772 H 0.78787 0.70181 0.8803 0.0
O773 O 0.78047 0.61107 0.88146 0.0
O774 O 0.78243 0.58965 0.93137 0.0
H775 H 0.78434 0.64834 0.0238 0.0
H776 H 0.77965 0.68458 0.03166 0.0
C777 C 0.77173 0.66652 0.01765 0.0
H778 H 0.75046 0.66236 0.02596 0.0
H779 H 0.79466 0.58384 1.00836 0.0
O780 O 0.76127 0.66483 0.84429 0.0
C781 C 0.7887 0.59135 0.89983 0.0
Co782 Co 0.61396 0.51551 0.14018 0.0
Co783 Co 0.64239 0.51117 0.21287 0.0
C784 C 0.64218 0.46449 0.16308 0.0
O785 O 0.62839 0.47812 0.14162 0.0
O786 O 0.64888 0.47477 0.19166 0.0
C787 C 0.58104 0.49707 0.08478 0.0
O788 O 0.57961 0.47484 0.1034 0.0
C789 C 0.65283 0.4887 0.2828 0.0
C790 C 0.67574 0.52253 0.30654 0.0
C791 C 0.66627 0.49627 0.31277 0.0
N792 N 0.65423 0.50956 0.26029 0.0
N793 N 0.66768 0.52981 0.27501 0.0
C794 C 0.64049 0.4614 0.27489 0.0
H795 H 0.63725 0.45878 0.24737 0.0
H796 H 0.62009 0.4599 0.28702 0.0
H797 H 0.6536 0.44469 0.28483 0.0
C798 C 0.56686 0.53052 0.18206 0.0
N799 N 0.59338 0.52379 0.17918 0.0
N800 N 0.60429 0.52133 0.20969 0.0
C801 C 0.58447 0.52587 0.23306 0.0
C802 C 0.56019 0.53204 0.21625 0.0
C803 C 0.54787 0.53321 0.15236 0.0
H804 H 0.55771 0.54565 0.13223 0.0
H805 H 0.54363 0.51261 0.1418 0.0
H806 H 0.52823 0.54285 0.15963 0.0
O807 O 0.64552 0.53993 0.13602 0.0
O808 O 0.66717 0.53689 0.1858 0.0
H809 H 0.60654 0.53551 0.27852 0.0
H810 H 0.57008 0.53078 0.28468 0.0
C811 C 0.58838 0.52348 0.27064 0.0
H812 H 0.59217 0.50178 0.27721 0.0
H813 H 0.67215 0.54834 0.26311 0.0
O814 O 0.59301 0.51802 0.09697 0.0
C815 C 0.66537 0.54617 0.15541 0.0
Co816 Co 0.25923 0.35882 0.39189 0.0
Co817 Co 0.25998 0.39002 0.46248 0.0
C818 C 0.21122 0.39034 0.41445 0.0
O819 O 0.22241 0.37415 0.39344 0.0
O820 O 0.22368 0.39808 0.44126 0.0
C821 C 0.24089 0.32606 0.33611 0.0
O822 O 0.21764 0.32644 0.35284 0.0
C823 C 0.23728 0.40102 0.5312 0.0
C824 C 0.27033 0.42474 0.55527 0.0
C825 C 0.24396 0.41517 0.56107 0.0
N826 N 0.25843 0.40267 0.50921 0.0
N827 N 0.27825 0.41661 0.52405 0.0
C828 C 0.211 0.38672 0.52297 0.0
H829 H 0.21054 0.37986 0.49622 0.0
H830 H 0.20912 0.36814 0.53892 0.0
H831 H 0.19333 0.40033 0.52823 0.0
C832 C 0.27275 0.31252 0.43523 0.0
N833 N 0.2674 0.33919 0.43129 0.0
N834 N 0.26795 0.35149 0.46111 0.0
C835 C 0.27365 0.33255 0.48518 0.0
C836 C 0.27693 0.30734 0.46939 0.0
C837 C 0.27268 0.29224 0.4067 0.0
H838 H 0.28751 0.29876 0.38696 0.0
H839 H 0.25206 0.29175 0.39494 0.0
H840 H 0.27798 0.2714 0.41552 0.0
O841 O 0.28463 0.38934 0.38617 0.0
O842 O 0.28727 0.41238 0.43478 0.0
H843 H 0.28827 0.35683 0.5267 0.0
H844 H 0.28463 0.32072 0.53631 0.0
C845 C 0.27562 0.33831 0.52242 0.0
H846 H 0.25485 0.34234 0.53257 0.0
H847 H 0.29692 0.42121 0.51252 0.0
O848 O 0.26189 0.33686 0.34972 0.0
C849 C 0.29409 0.40912 0.40357 0.0
Co850 Co 0.39208 0.51342 0.14201 0.0
Co851 Co 0.36326 0.51098 0.21382 0.0
C852 C 0.36298 0.46332 0.16515 0.0
O853 O 0.37688 0.47633 0.1432 0.0
O854 O 0.35682 0.4742 0.19357 0.0
C855 C 0.42461 0.49554 0.08579 0.0
O856 O 0.42492 0.47241 0.10273 0.0
C857 C 0.35489 0.48679 0.2812 0.0
C858 C 0.32446 0.5141 0.30475 0.0
C859 C 0.33835 0.48968 0.31001 0.0
N860 N 0.35055 0.50808 0.26018 0.0
N861 N 0.33258 0.52454 0.27466 0.0
C862 C 0.37503 0.46459 0.27351 0.0
H863 H 0.39095 0.47208 0.2557 0.0
H864 H 0.38468 0.457 0.29726 0.0
H865 H 0.36443 0.4474 0.26081 0.0
C866 C 0.43949 0.52739 0.18368 0.0
N867 N 0.41279 0.52142 0.18096 0.0
N868 N 0.40156 0.52078 0.21143 0.0
C869 C 0.42132 0.52628 0.23466 0.0
C870 C 0.44591 0.53064 0.21769 0.0
C871 C 0.45877 0.52831 0.15412 0.0
H872 H 0.45063 0.5424 0.13448 0.0
H873 H 0.4603 0.50762 0.14275 0.0
H874 H 0.4795 0.53513 0.16171 0.0
O875 O 0.3613 0.53879 0.13756 0.0
O876 O 0.33881 0.53681 0.18674 0.0
H877 H 0.39613 0.53441 0.27829 0.0
H878 H 0.43236 0.54092 0.28443 0.0
C879 C 0.41709 0.52723 0.27229 0.0
H880 H 0.41985 0.50644 0.28296 0.0
H881 H 0.32495 0.54227 0.26336 0.0
O882 O 0.41328 0.51631 0.09922 0.0
C883 C 0.34131 0.54578 0.15631 0.0
Co884 Co 0.23941 0.64172 0.891 0.0
Co885 Co 0.24502 0.61236 0.96291 0.0
C886 C 0.29215 0.61686 0.91399 0.0
O887 O 0.27773 0.62997 0.89268 0.0
O888 O 0.28215 0.60926 0.94239 0.0
C889 C 0.25566 0.67578 0.83565 0.0
O890 O 0.27854 0.67747 0.85308 0.0
C891 C 0.26935 0.59273 0.02779 0.0
C892 C 0.23455 0.59402 0.06342 0.0
C893 C 0.26244 0.58908 0.06182 0.0
N894 N 0.24693 0.60047 1.01028 0.0
N895 N 0.22611 0.6008 0.03179 0.0
C896 C 0.29625 0.58642 1.01152 0.0
H897 H 0.30633 0.6058 1.00394 0.0
H898 H 0.30995 0.57485 0.02879 0.0
H899 H 0.29265 0.57391 0.98842 0.0
C900 C 0.22211 0.68719 0.93366 0.0
N901 N 0.22927 0.66086 0.9303 0.0
N902 N 0.23312 0.64995 0.96056 0.0
C903 C 0.22968 0.6698 0.9842 0.0
C904 C 0.2221 0.69384 0.96786 0.0
C905 C 0.21878 0.70642 0.90432 0.0
H906 H 0.23922 0.71108 0.8935 0.0
H907 H 0.20899 0.72586 0.91214 0.0
H908 H 0.2062 0.69663 0.88424 0.0
O909 O 0.21802 0.60848 0.88536 0.0
O910 O 0.22118 0.58637 0.93475 0.0
H911 H 0.23906 0.68688 0.03357 0.0
H912 H 0.25463 0.65404 0.02459 0.0
C913 C 0.23601 0.66671 0.02121 0.0
H914 H 0.21862 0.65633 0.03389 0.0
H915 H 0.20617 0.60619 0.02503 0.0
O916 O 0.23542 0.66307 0.84843 0.0
C917 C 0.21272 0.58794 0.90395 0.0
Co918 Co 0.11295 0.48549 0.64306 0.0
Co919 Co 0.14174 0.49047 0.71498 0.0
C920 C 0.14181 0.53679 0.66604 0.0
O921 O 0.12879 0.52256 0.64437 0.0
O922 O 0.14758 0.52717 0.69526 0.0
C923 C 0.08036 0.5049 0.58766 0.0
O924 O 0.08008 0.52752 0.60569 0.0
C925 C 0.15556 0.5131 0.78279 0.0
C926 C 0.17895 0.47938 0.80597 0.0
C927 C 0.17062 0.5061 0.81147 0.0
N928 N 0.15488 0.49154 0.76142 0.0
N929 N 0.16855 0.47129 0.77581 0.0
C930 C 0.14464 0.54081 0.77425 0.0
H931 H 0.12761 0.53914 0.75569 0.0
H932 H 0.13745 0.55142 0.79753 0.0
H933 H 0.16127 0.5532 0.76282 0.0
C934 C 0.06579 0.47196 0.68582 0.0
N935 N 0.09248 0.47781 0.68241 0.0
N936 N 0.10365 0.48071 0.71271 0.0
C937 C 0.08387 0.4776 0.73644 0.0
C938 C 0.05928 0.47173 0.72013 0.0
C939 C 0.04646 0.46922 0.65648 0.0
H940 H 0.05633 0.45752 0.63569 0.0
H941 H 0.04128 0.48988 0.64679 0.0
H942 H 0.02734 0.45869 0.66402 0.0
O943 O 0.14343 0.45992 0.63833 0.0
O944 O 0.1661 0.46523 0.68703 0.0
H945 H 0.10558 0.46932 0.78254 0.0
H946 H 0.06942 0.47625 0.78837 0.0
C947 C 0.08803 0.48183 0.77374 0.0
H948 H 0.09305 0.5036 0.77852 0.0
H949 H 0.17193 0.45237 0.76429 0.0
O950 O 0.09156 0.48368 0.60011 0.0
C951 C 0.16382 0.45476 0.65731 0.0
Co952 Co 0.27191 0.64089 0.63443 0.0
Co953 Co 0.26311 0.6122 0.56273 0.0
C954 C 0.21887 0.61352 0.61503 0.0
O955 O 0.2346 0.62602 0.63553 0.0
O956 O 0.22672 0.60738 0.58506 0.0
C957 C 0.25544 0.67464 0.68961 0.0
O958 O 0.23287 0.67629 0.67158 0.0
C959 C 0.23819 0.59496 0.49693 0.0
C960 C 0.27384 0.5923 0.46274 0.0
C961 C 0.24559 0.59005 0.46328 0.0
N962 N 0.26081 0.60067 0.51523 0.0
N963 N 0.28209 0.59878 0.49456 0.0
C964 C 0.21032 0.59213 0.51213 0.0
H965 H 0.21158 0.57852 0.53461 0.0
H966 H 0.20312 0.61253 0.52059 0.0
H967 H 0.19539 0.58322 0.49401 0.0
C968 C 0.28472 0.6877 0.59146 0.0
N969 N 0.27831 0.66118 0.59497 0.0
N970 N 0.27361 0.6503 0.56487 0.0
C971 C 0.27589 0.67029 0.54121 0.0
C972 C 0.28341 0.69447 0.55735 0.0
C973 C 0.28951 0.70673 0.62071 0.0
H974 H 0.2696 0.71161 0.63282 0.0
H975 H 0.2992 0.72609 0.61243 0.0
H976 H 0.30276 0.69671 0.6399 0.0
O977 O 0.29682 0.61001 0.63716 0.0
O978 O 0.28916 0.58701 0.58917 0.0
H979 H 0.28595 0.65507 0.49196 0.0
H980 H 0.26738 0.6869 0.49137 0.0
C981 C 0.26931 0.66684 0.50432 0.0
H982 H 0.24998 0.65516 0.50147 0.0
H983 H 0.30228 0.60234 0.50203 0.0
O984 O 0.27592 0.66216 0.67707 0.0
C985 C 0.30089 0.58938 0.61822 0.0
Co986 Co 0.11186 0.52466 0.38545 0.0
Co987 Co 0.14023 0.51464 0.31364 0.0
C988 C 0.13742 0.47085 0.36608 0.0
O989 O 0.12547 0.48696 0.38653 0.0
O990 O 0.14372 0.4785 0.33612 0.0
C991 C 0.07864 0.50847 0.4411 0.0
O992 O 0.076 0.48638 0.42238 0.0
C993 C 0.15788 0.48832 0.24876 0.0
C994 C 0.15968 0.52315 0.21323 0.0
C995 C 0.16256 0.49501 0.2148 0.0
N996 N 0.15169 0.51126 0.2662 0.0
N997 N 0.15309 0.53203 0.24473 0.0
C998 C 0.16155 0.46095 0.26507 0.0
H999 H 0.17493 0.46316 0.28769 0.0
H1000 H 0.14136 0.45316 0.27362 0.0
H1001 H 0.17111 0.44597 0.24756 0.0
C1002 C 0.06509 0.53786 0.3422 0.0
N1003 N 0.09163 0.53145 0.34583 0.0
N1004 N 0.10241 0.52618 0.31581 0.0
C1005 C 0.08234 0.52803 0.29216 0.0
C1006 C 0.0582 0.53593 0.30812 0.0
C1007 C 0.04603 0.54259 0.37143 0.0
H1008 H 0.05624 0.55534 0.391 0.0
H1009 H 0.0407 0.52262 0.38304 0.0
H1010 H 0.02689 0.55276 0.36318 0.0
O1011 O 0.14374 0.54843 0.38789 0.0
O1012 O 0.16639 0.53989 0.33986 0.0
H1013 H 0.09714 0.53653 0.24227 0.0
H1014 H 0.06541 0.51781 0.24293 0.0
C1015 C 0.08556 0.52025 0.2556 0.0
H1016 H 0.09732 0.50093 0.25359 0.0
H1017 H 0.14913 0.55228 0.25145 0.0
O1018 O 0.09112 0.52898 0.42862 0.0
C1019 C 0.1645 0.55171 0.36888 0.0
Co1020 Co 0.22972 0.3619 0.13522 0.0
Co1021 Co 0.23909 0.39108 0.06413 0.0
C1022 C 0.2833 0.38823 0.11642 0.0
O1023 O 0.2675 0.37571 0.13677 0.0
O1024 O 0.27533 0.39474 0.08664 0.0
C1025 C 0.24472 0.32735 0.19046 0.0
O1026 O 0.26809 0.32625 0.17402 0.0
C1027 C 0.26476 0.41144 1.00012 0.0
C1028 C 0.23054 0.40966 0.9636 0.0
C1029 C 0.25826 0.41539 0.96592 0.0
N1030 N 0.24219 0.40311 0.01694 0.0
N1031 N 0.22175 0.40243 0.99489 0.0
C1032 C 0.29146 0.41752 0.01717 0.0
H1033 H 0.28762 0.42883 0.04114 0.0
H1034 H 0.30187 0.39801 0.02342 0.0
H1035 H 0.30502 0.43017 1.00096 0.0
C1036 C 0.21617 0.3157 0.09161 0.0
N1037 N 0.22273 0.34216 0.09541 0.0
N1038 N 0.22797 0.35309 0.0655 0.0
C1039 C 0.22611 0.3331 0.04172 0.0
C1040 C 0.21809 0.30894 0.05752 0.0
C1041 C 0.21112 0.29657 0.12067 0.0
H1042 H 0.19773 0.30655 0.13975 0.0
H1043 H 0.23092 0.29158 0.13298 0.0
H1044 H 0.20141 0.27728 0.11214 0.0
O1045 O 0.2057 0.39341 0.13864 0.0
O1046 O 0.21352 0.41666 0.09092 0.0
H1047 H 0.21694 0.34627 0.99132 0.0
H1048 H 0.23811 0.31624 0.99316 0.0
C1049 C 0.234 0.33634 1.00521 0.0
H1050 H 0.25239 0.34952 1.00311 0.0
H1051 H 0.20184 0.39651 1.00104 0.0
O1052 O 0.22477 0.34017 0.17721 0.0
C1053 C 0.20196 0.41431 0.12006 0.0
Co1054 Co 0.39138 0.48527 0.88429 0.0
Co1055 Co 0.3613 0.49266 0.81323 0.0
C1056 C 0.36634 0.53874 0.86342 0.0
O1057 O 0.37906 0.52342 0.88416 0.0
O1058 O 0.35845 0.5298 0.83454 0.0
C1059 C 0.42585 0.5001 0.94009 0.0
O1060 O 0.42712 0.52359 0.924 0.0
C1061 C 0.34336 0.51683 0.74732 0.0
C1062 C 0.342 0.48113 0.71316 0.0
C1063 C 0.33925 0.50931 0.71355 0.0
N1064 N 0.34929 0.49442 0.76582 0.0
N1065 N 0.34806 0.47308 0.74517 0.0
C1066 C 0.33979 0.54463 0.7623 0.0
H1067 H 0.32729 0.54305 0.78575 0.0
H1068 H 0.36023 0.55289 0.76899 0.0
H1069 H 0.32938 0.55881 0.74451 0.0
C1070 C 0.43675 0.46955 0.84071 0.0
N1071 N 0.41043 0.47665 0.84461 0.0
N1072 N 0.39915 0.48092 0.81464 0.0
C1073 C 0.41876 0.4777 0.79061 0.0
C1074 C 0.44301 0.46994 0.80643 0.0
C1075 C 0.45622 0.46539 0.86967 0.0
H1076 H 0.46072 0.48543 0.88162 0.0
H1077 H 0.47573 0.45611 0.86115 0.0
H1078 H 0.44667 0.45201 0.88909 0.0
O1079 O 0.35917 0.46233 0.88896 0.0
O1080 O 0.33561 0.46779 0.841 0.0
H1081 H 0.40366 0.46712 0.74145 0.0
H1082 H 0.43516 0.48619 0.74067 0.0
C1083 C 0.41512 0.48403 0.75369 0.0
H1084 H 0.40317 0.50314 0.75069 0.0
H1085 H 0.352 0.45302 0.75275 0.0
O1086 O 0.41313 0.48029 0.92634 0.0
C1087 C 0.33813 0.45762 0.87092 0.0
C1088 C 0.19303 0.0207 0.16299 0.0
C1089 C 0.17091 0.02649 0.18483 0.0
C1090 C 0.20197 0.03993 0.13866 0.0
C1091 C 0.18898 0.06548 0.13531 0.0
H1092 H 0.20453 0.00195 0.16613 0.0
H1093 H 0.22041 0.03562 0.12435 0.0
S1094 S 0.12677 0.08806 0.18139 0.0
N1095 N 0.13348 0.05757 0.19734 0.0
N1096 N 0.15079 0.09391 0.15275 0.0
C1097 C 0.16548 0.07039 0.15499 0.0
C1098 C 0.15628 0.05083 0.17941 0.0
C1099 C 0.21381 0.94866 0.38724 0.0
C1100 C 0.18775 0.93655 0.38483 0.0
C1101 C 0.23297 0.93971 0.41166 0.0
C1102 C 0.22661 0.91845 0.43449 0.0
H1103 H 0.21858 0.9665 0.37208 0.0
H1104 H 0.25217 0.95058 0.41409 0.0
S1105 S 0.16364 0.87615 0.43324 0.0
N1106 N 0.15826 0.89969 0.40389 0.0
N1107 N 0.1945 0.88227 0.44861 0.0
C1108 C 0.20177 0.90445 0.42987 0.0
C1109 C 0.18227 0.91368 0.40537 0.0
C1110 C 0.30251 0.96397 0.63747 0.0
C1111 C 0.31565 0.93846 0.63434 0.0
C1112 C 0.31147 0.98347 0.66148 0.0
C1113 C 0.33377 0.97803 0.68317 0.0
H1114 H 0.28394 0.96802 0.62328 0.0
H1115 H 0.29983 0.00215 0.66455 0.0
S1116 S 0.3783 0.91672 0.68014 0.0
N1117 N 0.35415 0.91045 0.65177 0.0
N1118 N 0.37149 0.94731 0.69575 0.0
C1119 C 0.34855 0.95375 0.6779 0.0
C1120 C 0.33933 0.9339 0.65383 0.0
C1121 C 0.29086 0.05486 0.8867 0.0
C1122 C 0.31736 0.06606 0.88528 0.0
C1123 C 0.27176 0.06376 0.91124 0.0
C1124 C 0.27858 0.08419 0.93509 0.0
H1125 H 0.28563 0.03776 0.8705 0.0
H1126 H 0.25215 0.05351 0.9128 0.0
S1127 S 0.34296 0.12435 0.93655 0.0
N1128 N 0.34787 0.10135 0.90639 0.0
N1129 N 0.31175 0.1189 0.95113 0.0
C1130 C 0.30395 0.09742 0.93146 0.0
C1131 C 0.32341 0.08814 0.90692 0.0
C1132 C 0.1691 0.93618 0.87938 0.0
C1133 C 0.1952 0.93837 0.89414 0.0
C1134 C 0.15973 0.95555 0.85566 0.0
C1135 C 0.17658 0.97719 0.84451 0.0
H1136 H 0.15629 0.91871 0.88514 0.0
H1137 H 0.13939 0.95295 0.84552 0.0
S1138 S 0.24641 0.99234 0.87702 0.0
N1139 N 0.23706 0.96466 0.89795 0.0
N1140 N 0.22025 1.0004 0.85241 0.0
C1141 C 0.20219 0.98035 0.8607 0.0
C1142 C 0.21135 0.96103 0.88554 0.0
C1143 C 0.27308 0.94117 0.11578 0.0
C1144 C 0.28004 0.91947 0.09387 0.0
C1145 C 0.29193 0.95123 0.13989 0.0
C1146 C 0.31827 0.93982 0.14285 0.0
H1147 H 0.25365 0.95156 0.1128 0.0
H1148 H 0.28665 0.96935 0.15431 0.0
S1149 S 0.34429 0.87921 0.09646 0.0
N1150 N 0.31324 0.88398 0.08098 0.0
N1151 N 0.34893 0.90356 0.12502 0.0
C1152 C 0.32448 0.91671 0.12312 0.0
C1153 C 0.30527 0.90631 0.09901 0.0
C1154 C 0.33829 0.06877 0.37719 0.0
C1155 C 0.31317 0.06532 0.39397 0.0
C1156 C 0.34769 0.04948 0.35338 0.0
C1157 C 0.3317 0.02664 0.34404 0.0
H1158 H 0.35026 0.0871 0.38149 0.0
H1159 H 0.36735 0.05312 0.34185 0.0
S1160 S 0.26489 0.00774 0.38282 0.0
N1161 N 0.27345 0.03647 0.40205 0.0
N1162 N 0.29015 1.00085 0.35629 0.0
C1163 C 0.30722 0.02224 0.36239 0.0
C1164 C 0.29812 0.0415 0.38738 0.0
C1165 C 0.21259 0.04304 0.63077 0.0
C1166 C 0.19164 0.05971 0.64374 0.0
C1167 C 0.23145 0.05312 0.60691 0.0
C1168 C 0.23003 0.08026 0.59502 0.0
H1169 H 0.21326 0.02153 0.6373 0.0
H1170 H 0.24626 0.03904 0.59626 0.0
S1171 S 0.18219 0.13347 0.62659 0.0
N1172 N 0.17228 0.10525 0.6461 0.0
N1173 N 0.20882 0.1248 0.60307 0.0
C1174 C 0.2106 0.09772 0.61017 0.0
C1175 C 0.19108 0.08727 0.634 0.0
C1176 C 0.84536 0.95295 0.83974 0.0
C1177 C 0.83208 0.97822 0.83551 0.0
C1178 C 0.83615 0.93378 0.86369 0.0
C1179 C 0.81366 0.93928 0.88503 0.0
H1180 H 0.8624 0.94746 0.82351 0.0
H1181 H 0.84586 0.91388 0.86429 0.0
S1182 S 0.77421 0.00397 0.8874 0.0
N1183 N 0.79711 0.00892 0.85713 0.0
N1184 N 0.77998 0.97298 0.9025 0.0
C1185 C 0.8017 0.96539 0.88314 0.0
C1186 C 0.81094 0.98487 0.85839 0.0
C1187 C 0.81072 0.08795 0.57839 0.0
C1188 C 0.78257 0.08397 0.58404 0.0
C1189 C 0.83039 0.0796 0.60203 0.0
C1190 C 0.8232 0.06586 0.63223 0.0
H1191 H 0.81831 0.09579 0.55466 0.0
H1192 H 0.85171 0.08236 0.59528 0.0
S1193 S 0.75233 0.05211 0.66131 0.0
N1194 N 0.74839 0.06745 0.62421 0.0
N1195 N 0.78568 0.05042 0.66788 0.0
C1196 C 0.79516 0.06292 0.63938 0.0
C1197 C 0.77488 0.07203 0.6154 0.0
C1198 C 0.67287 0.05708 0.37857 0.0
C1199 C 0.70085 0.06354 0.3809 0.0
C1200 C 0.66344 0.03759 0.3548 0.0
C1201 C 0.68173 0.02399 0.33281 0.0
H1202 H 0.65815 0.06795 0.39408 0.0
H1203 H 0.64171 0.03347 0.35322 0.0
S1204 S 0.75681 0.03448 0.32844 0.0
N1205 N 0.74653 0.05526 0.35898 0.0
N1206 N 0.72901 0.01856 0.31504 0.0
C1207 C 0.70977 0.02988 0.33565 0.0
C1208 C 0.71925 0.04974 0.35946 0.0
C1209 C 0.69528 0.91446 0.08046 0.0
C1210 C 0.72312 0.92122 0.08399 0.0
C1211 C 0.67576 0.92329 0.10408 0.0
C1212 C 0.68318 0.93875 0.13287 0.0
H1213 H 0.68821 0.9027 0.0589 0.0
H1214 H 0.65442 0.9189 0.0989 0.0
S1215 S 0.75408 0.95574 0.15887 0.0
N1216 N 0.75772 0.94008 0.12188 0.0
N1217 N 0.72089 0.95636 0.16666 0.0
C1218 C 0.71123 0.94302 0.13884 0.0
C1219 C 0.73123 0.93425 0.1144 0.0
C1220 C 0.83072 0.07996 0.1663 0.0
C1221 C 0.81479 0.07216 0.13804 0.0
C1222 C 0.83998 0.06076 0.19005 0.0
C1223 C 0.83322 0.0329 0.18718 0.0
H1224 H 0.83509 0.10135 0.17099 0.0
H1225 H 0.85201 0.06808 0.21127 0.0
S1226 S 0.79738 1.00103 0.11388 0.0
N1227 N 0.79663 0.03407 0.10546 0.0
N1228 N 0.81373 0.99785 0.15049 0.0
C1229 C 0.81971 0.02441 0.15727 0.0
C1230 C 0.81049 0.04407 0.1327 0.0
C1231 C 0.69391 0.07842 0.89347 0.0
C1232 C 0.68777 0.05035 0.89227 0.0
C1233 C 0.71302 0.08875 0.91718 0.0
C1234 C 0.72657 0.07128 0.94019 0.0
H1235 H 0.68312 0.09253 0.87702 0.0
H1236 H 0.71691 0.11054 0.91788 0.0
S1237 S 0.71708 0.99633 0.94752 0.0
N1238 N 0.6965 0.00544 0.91619 0.0
N1239 N 0.73236 0.0247 0.96017 0.0
C1240 C 0.72095 0.04318 0.9386 0.0
C1241 C 0.70151 0.03277 0.91482 0.0
C1242 C 0.68057 0.96986 0.65987 0.0
C1243 C 0.67529 0.96325 0.69417 0.0
C1244 C 0.69069 0.9502 0.63675 0.0
C1245 C 0.6961 0.92316 0.64713 0.0
H1246 H 0.67756 0.99061 0.65104 0.0
H1247 H 0.6955 0.95661 0.61108 0.0
S1248 S 0.68613 0.89547 0.73453 0.0
N1249 N 0.67732 0.92789 0.73743 0.0
N1250 N 0.69412 0.89074 0.69423 0.0
C1251 C 0.68986 0.91615 0.68118 0.0
C1252 C 0.68013 0.93622 0.70465 0.0
C1253 C 0.79542 0.90926 0.42296 0.0
C1254 C 0.7752 0.92668 0.43657 0.0
C1255 C 0.81446 0.91865 0.39879 0.0
C1256 C 0.81335 0.94548 0.38611 0.0
H1257 H 0.79718 0.88838 0.43151 0.0
H1258 H 0.83091 0.90518 0.39105 0.0
S1259 S 0.76323 0.99874 0.41063 0.0
N1260 N 0.75445 0.97186 0.43351 0.0
N1261 N 0.78957 0.98893 0.38735 0.0
C1262 C 0.79206 0.96247 0.3974 0.0
C1263 C 0.77306 0.95318 0.42261 0.0
C1264 C 0.65942 0.55514 0.68573 0.0
C1265 C 0.6679 0.52774 0.68342 0.0
C1266 C 0.66794 0.5747 0.66199 0.0
C1267 C 0.68496 0.56774 0.63438 0.0
H1268 H 0.64663 0.56183 0.7066 0.0
H1269 H 0.66217 0.59581 0.66629 0.0
S1270 S 0.70741 0.49765 0.61195 0.0
N1271 N 0.69037 0.49373 0.64794 0.0
N1272 N 0.70628 0.53062 0.60307 0.0
C1273 C 0.69114 0.53992 0.62961 0.0
C1274 C 0.68257 0.5199 0.6541 0.0
C1275 C 0.68236 0.4157 0.90466 0.0
C1276 C 0.68768 0.43775 0.8826 0.0
C1277 C 0.70173 0.40703 0.92869 0.0
C1278 C 0.72703 0.42043 0.93221 0.0
H1279 H 0.6624 0.40603 0.90465 0.0
H1280 H 0.69635 0.39041 0.9456 0.0
S1281 S 0.75247 0.47703 0.87813 0.0
N1282 N 0.72131 0.47098 0.86359 0.0
N1283 N 0.75765 0.45482 0.90908 0.0
C1284 C 0.73354 0.441 0.90854 0.0
C1285 C 0.71385 0.44969 0.88373 0.0
C1286 C 0.8112 0.4816 0.16061 0.0
C1287 C 0.83389 0.47602 0.1816 0.0
C1288 C 0.8023 0.46255 0.13605 0.0
C1289 C 0.81586 0.4374 0.1317 0.0
H1290 H 0.79922 0.49993 0.1647 0.0
H1291 H 0.78343 0.46656 0.12247 0.0
S1292 S 0.87958 0.41576 0.17518 0.0
N1293 N 0.87242 0.44582 0.19211 0.0
N1294 N 0.85514 0.40972 0.14713 0.0
C1295 C 0.83992 0.43281 0.15042 0.0
C1296 C 0.84911 0.45223 0.17503 0.0
C1297 C 0.76968 0.55553 0.41228 0.0
C1298 C 0.77512 0.57835 0.43312 0.0
C1299 C 0.78894 0.54639 0.3881 0.0
C1300 C 0.81419 0.55986 0.38392 0.0
H1301 H 0.75117 0.54373 0.41605 0.0
H1302 H 0.78493 0.52752 0.37454 0.0
S1303 S 0.83573 0.62373 0.42709 0.0
N1304 N 0.80545 0.6168 0.44364 0.0
N1305 N 0.84195 0.59905 0.39948 0.0
C1306 C 0.81876 0.58392 0.40262 0.0
C1307 C 0.79913 0.59335 0.42684 0.0
C1308 C 0.70168 0.48006 0.35431 0.0
C1309 C 0.67451 0.47885 0.34231 0.0
C1310 C 0.71153 0.46132 0.37849 0.0
C1311 C 0.69457 0.4407 0.39174 0.0
H1312 H 0.71598 0.49455 0.34344 0.0
H1313 H 0.73309 0.46171 0.38494 0.0
S1314 S 0.62059 0.43208 0.37456 0.0
N1315 N 0.62964 0.45833 0.35065 0.0
N1316 N 0.64869 0.42203 0.39428 0.0
C1317 C 0.66696 0.44047 0.38197 0.0
C1318 C 0.65676 0.45986 0.3578 0.0
C1319 C 0.82973 0.42463 0.60884 0.0
C1320 C 0.82198 0.44063 0.637 0.0
C1321 C 0.81032 0.41424 0.58604 0.0
C1322 C 0.78226 0.42002 0.58969 0.0
H1323 H 0.85118 0.42102 0.60351 0.0
H1324 H 0.81759 0.4022 0.5648 0.0
S1325 S 0.75071 0.45572 0.66325 0.0
N1326 N 0.78393 0.45781 0.67051 0.0
N1327 N 0.74732 0.43872 0.62714 0.0
C1328 C 0.77394 0.43363 0.61958 0.0
C1329 C 0.79383 0.44393 0.64324 0.0
C1330 C 0.83808 0.5419 0.85722 0.0
C1331 C 0.82071 0.52811 0.83425 0.0
C1332 C 0.82762 0.56127 0.88047 0.0
C1333 C 0.79952 0.56742 0.88124 0.0
H1334 H 0.85988 0.53799 0.85683 0.0
H1335 H 0.84166 0.57225 0.89685 0.0
S1336 S 0.74578 0.53794 0.82556 0.0
N1337 N 0.77421 0.52245 0.81355 0.0
N1338 N 0.75473 0.55861 0.85686 0.0
C1339 C 0.78204 0.55347 0.85874 0.0
C1340 C 0.79257 0.53384 0.83536 0.0
C1341 C 0.70959 0.54318 0.1249 0.0
C1342 C 0.68891 0.55967 0.13884 0.0
C1343 C 0.72775 0.55342 0.10031 0.0
C1344 C 0.72586 0.58057 0.08852 0.0
H1345 H 0.71057 0.52165 0.13132 0.0
H1346 H 0.74237 0.53945 0.08907 0.0
S1347 S 0.67845 0.63338 0.12213 0.0
N1348 N 0.66929 0.60507 0.14202 0.0
N1349 N 0.7045 0.62493 0.09751 0.0
C1350 C 0.7067 0.59786 0.1045 0.0
C1351 C 0.6879 0.58724 0.12915 0.0
C1352 C 0.33275 0.44118 0.33049 0.0
C1353 C 0.33185 0.46939 0.3374 0.0
C1354 C 0.32273 0.42191 0.35363 0.0
C1355 C 0.31065 0.42976 0.38468 0.0
H1356 H 0.33941 0.4336 0.30613 0.0
H1357 H 0.32301 0.40061 0.34606 0.0
S1358 S 0.30466 0.50089 0.41655 0.0
N1359 N 0.31955 0.50411 0.37905 0.0
N1360 N 0.29984 0.46777 0.42214 0.0
C1361 C 0.31075 0.45774 0.39291 0.0
C1362 C 0.32131 0.47752 0.36931 0.0
C1363 C 0.29264 0.55048 0.13727 0.0
C1364 C 0.31918 0.56153 0.1396 0.0
C1365 C 0.27372 0.56043 0.11317 0.0
C1366 C 0.28081 0.58167 0.09064 0.0
H1367 H 0.28716 0.53275 0.1523 0.0
H1368 H 0.25407 0.55035 0.1108 0.0
S1369 S 0.3457 0.621 0.09145 0.0
N1370 N 0.35024 0.59703 0.12047 0.0
N1371 N 0.31446 0.61643 0.07647 0.0
C1372 C 0.30633 0.59447 0.09506 0.0
C1373 C 0.3256 0.58417 0.11915 0.0
C1374 C 0.17455 0.55683 0.88517 0.0
C1375 C 0.20254 0.56352 0.88579 0.0
C1376 C 0.16426 0.53766 0.86156 0.0
C1377 C 0.18164 0.52478 0.83787 0.0
H1378 H 0.16044 0.56732 0.90192 0.0
H1379 H 0.14251 0.53337 0.86126 0.0
S1380 S 0.25616 0.53654 0.8281 0.0
N1381 N 0.24719 0.55629 0.8603 0.0
N1382 N 0.22792 0.52062 0.81612 0.0
C1383 C 0.20964 0.53109 0.83869 0.0
C1384 C 0.22005 0.55041 0.86258 0.0
C1385 C 0.18409 0.41619 0.62418 0.0
C1386 C 0.18745 0.44139 0.64075 0.0
C1387 C 0.20338 0.40678 0.60037 0.0
C1388 C 0.2261 0.42285 0.59075 0.0
H1389 H 0.16587 0.40411 0.62875 0.0
H1390 H 0.19983 0.38703 0.58911 0.0
S1391 S 0.24467 0.48997 0.62889 0.0
N1392 N 0.21606 0.48131 0.64835 0.0
N1393 N 0.25163 0.46465 0.60252 0.0
C1394 C 0.23037 0.44747 0.60885 0.0
C1395 C 0.21114 0.45656 0.63388 0.0
C1396 C 0.31148 0.5215 0.66178 0.0
C1397 C 0.33336 0.52738 0.68393 0.0
C1398 C 0.30278 0.54065 0.63724 0.0
C1399 C 0.31572 0.56624 0.63411 0.0
H1400 H 0.29993 0.50278 0.66491 0.0
H1401 H 0.28449 0.53638 0.62265 0.0
S1402 S 0.37776 0.58881 0.6806 0.0
N1403 N 0.3709 0.55836 0.69656 0.0
N1404 N 0.35388 0.59466 0.65175 0.0
C1405 C 0.33915 0.57116 0.65393 0.0
C1406 C 0.34816 0.55164 0.67848 0.0
C1407 C 0.23251 0.56087 0.41304 0.0
C1408 C 0.22739 0.58372 0.43391 0.0
C1409 C 0.21315 0.55209 0.38876 0.0
C1410 C 0.18813 0.56597 0.38455 0.0
H1411 H 0.25075 0.54869 0.417 0.0
H1412 H 0.21683 0.53313 0.37527 0.0
S1413 S 0.16761 0.6301 0.42782 0.0
N1414 N 0.19772 0.62264 0.44447 0.0
N1415 N 0.16104 0.60563 0.40002 0.0
C1416 C 0.18398 0.59014 0.40317 0.0
C1417 C 0.20371 0.59918 0.4275 0.0
C1418 C 0.19147 0.48218 0.16419 0.0
C1419 C 0.16928 0.47642 0.18592 0.0
C1420 C 0.20042 0.46299 0.13982 0.0
C1421 C 0.18736 0.43747 0.13632 0.0
H1422 H 0.20301 0.50092 0.1674 0.0
H1423 H 0.21889 0.46729 0.12557 0.0
S1424 S 0.12493 0.41498 0.18202 0.0
N1425 N 0.1317 0.44542 0.19813 0.0
N1426 N 0.14902 0.40911 0.15348 0.0
C1427 C 0.16379 0.43257 0.15591 0.0
C1428 C 0.1546 0.45211 0.18037 0.0
C1429 C 0.30344 0.41245 0.93566 0.0
C1430 C 0.27683 0.42328 0.93741 0.0
C1431 C 0.32245 0.42205 0.91177 0.0
C1432 C 0.31557 0.44253 0.88806 0.0
H1433 H 0.30999 0.39702 0.95365 0.0
H1434 H 0.34319 0.41427 0.91295 0.0
S1435 S 0.24729 0.47462 0.87861 0.0
N1436 N 0.24357 0.45336 0.91088 0.0
N1437 N 0.27929 0.47129 0.86566 0.0
C1438 C 0.28834 0.45183 0.88755 0.0
C1439 C 0.26897 0.44217 0.91222 0.0
C1440 C 0.27457 0.1781 0.28172 0.0
C1441 C 0.25025 0.17915 0.30084 0.0
C1442 C 0.27405 0.17853 0.2461 0.0
C1443 C 0.24916 0.17975 0.22815 0.0
H1444 H 0.29414 0.17553 0.29427 0.0
H1445 H 0.29323 0.17607 0.23263 0.0
S1446 S 0.18009 0.18771 0.26589 0.0
N1447 N 0.20077 0.1853 0.29896 0.0
N1448 N 0.19991 0.18571 0.23198 0.0
C1449 C 0.22489 0.18307 0.24685 0.0
C1450 C 0.22541 0.18292 0.2832 0.0
C1451 C 0.07492 0.97554 0.49656 0.0
C1452 C 0.07503 0.99999 0.47771 0.0
C1453 C 0.07525 0.97585 0.5322 0.0
C1454 C 0.07605 1.00063 0.55039 0.0
H1455 H 0.07597 0.95597 0.48372 0.0
H1456 H 0.0767 0.95648 0.5454 0.0
S1457 S 0.0719 0.07026 0.51343 0.0
N1458 N 0.07224 0.04968 0.48015 0.0
N1459 N 0.07321 0.05016 0.5471 0.0
C1460 C 0.07387 0.02517 0.53199 0.0
C1461 C 0.07324 0.02487 0.49566 0.0
C1462 C 0.23113 0.82434 0.74517 0.0
C1463 C 0.25608 0.82336 0.72736 0.0
C1464 C 0.23051 0.82458 0.7808 0.0
C1465 C 0.2548 0.82355 0.80002 0.0
H1466 H 0.21197 0.82677 0.73163 0.0
H1467 H 0.2109 0.82698 0.79329 0.0
S1468 S 0.3251 0.81565 0.76536 0.0
N1469 N 0.30535 0.81768 0.73138 0.0
N1470 N 0.30431 0.81773 0.79835 0.0
C1471 C 0.27971 0.82002 0.78247 0.0
C1472 C 0.28032 0.82007 0.74614 0.0
C1473 C 0.43073 0.02776 0.99485 0.0
C1474 C 0.43094 0.00306 0.97649 0.0
C1475 C 0.43071 0.02796 0.03049 0.0
C1476 C 0.43057 0.00344 0.04919 0.0
H1477 H 0.42917 0.04713 0.98164 0.0
H1478 H 0.42898 0.04748 0.04332 0.0
S1479 S 0.43591 0.93339 0.01359 0.0
N1480 N 0.43484 0.95349 0.97989 0.0
N1481 N 0.43444 0.95393 0.04686 0.0
C1482 C 0.43311 0.97869 0.03126 0.0
C1483 C 0.43343 0.97848 0.99491 0.0
C1484 C 0.7899 0.81801 0.74395 0.0
C1485 C 0.76641 0.8148 0.72365 0.0
C1486 C 0.78795 0.81962 0.77942 0.0
C1487 C 0.76248 0.81784 0.79597 0.0
H1488 H 0.80973 0.8214 0.73239 0.0
H1489 H 0.80639 0.82393 0.79376 0.0
S1490 S 0.6957 0.80297 0.75471 0.0
N1491 N 0.71758 0.80521 0.72285 0.0
N1492 N 0.71387 0.808 0.78958 0.0
C1493 C 0.73927 0.81154 0.7762 0.0
C1494 C 0.74125 0.8101 0.74001 0.0
C1495 C 0.93299 0.9761 0.4949 0.0
C1496 C 0.93459 1.00012 0.47532 0.0
C1497 C 0.93465 0.97699 0.53045 0.0
C1498 C 0.93765 0.00198 0.54777 0.0
H1499 H 0.92893 0.95659 0.48286 0.0
H1500 H 0.93151 0.95816 0.5444 0.0
S1501 S 0.94807 0.07001 0.5084 0.0
N1502 N 0.9435 0.04915 0.47586 0.0
N1503 N 0.94613 0.05072 0.54276 0.0
C1504 C 0.94174 0.02579 0.52849 0.0
C1505 C 0.94037 0.02488 0.49222 0.0
C1506 C 0.72859 0.18319 0.27903 0.0
C1507 C 0.75389 0.1836 0.29615 0.0
C1508 C 0.72727 0.18406 0.24348 0.0
C1509 C 0.75123 0.18511 0.22372 0.0
H1510 H 0.70969 0.1806 0.29306 0.0
H1511 H 0.70742 0.18183 0.23152 0.0
S1512 S 0.82221 0.19206 0.25616 0.0
N1513 N 0.80321 0.18937 0.2907 0.0
N1514 N 0.80067 0.19082 0.22383 0.0
C1515 C 0.77645 0.18824 0.24054 0.0
C1516 C 0.7778 0.18755 0.2768 0.0
C1517 C 0.56876 0.97277 0.99624 0.0
C1518 C 0.56858 0.99637 0.97586 0.0
C1519 C 0.56858 0.97469 0.03177 0.0
C1520 C 0.56804 1.00027 0.04822 0.0
H1521 H 0.57115 0.95274 0.98487 0.0
H1522 H 0.57064 0.95603 0.04636 0.0
S1523 S 0.5608 0.06779 1.00602 0.0
N1524 N 0.56303 0.04573 0.97436 0.0
N1525 N 0.56246 0.04943 0.04119 0.0
C1526 C 0.5647 0.02382 0.02806 0.0
C1527 C 0.56509 0.02185 0.99183 0.0
C1528 C 0.76801 0.68205 0.7407 0.0
C1529 C 0.74395 0.684 0.72119 0.0
C1530 C 0.767 0.68172 0.7763 0.0
C1531 C 0.74193 0.68354 0.79379 0.0
H1532 H 0.78762 0.67878 0.72851 0.0
H1533 H 0.78592 0.67844 0.79008 0.0
S1534 S 0.67379 0.69501 0.75431 0.0
N1535 N 0.69491 0.69206 0.72176 0.0
N1536 N 0.69292 0.69182 0.78871 0.0
C1537 C 0.71805 0.68834 0.77457 0.0
C1538 C 0.71909 0.68842 0.73826 0.0
C1539 C 0.57384 0.52005 0.99326 0.0
C1540 C 0.57252 0.49516 0.97537 0.0
C1541 C 0.57473 0.52059 0.02887 0.0
C1542 C 0.57403 0.49629 0.04802 0.0
H1543 H 0.57604 0.53921 0.97974 0.0
H1544 H 0.57735 0.54016 0.04137 0.0
S1545 S 0.56541 0.42614 0.01327 0.0
N1546 N 0.56687 0.44594 0.97932 0.0
N1547 N 0.56812 0.44684 0.04629 0.0
C1548 C 0.57017 0.47145 0.03046 0.0
C1549 C 0.56956 0.47091 0.99413 0.0
C1550 C 0.77708 0.32401 0.2791 0.0
C1551 C 0.75189 0.32496 0.29643 0.0
C1552 C 0.77817 0.32351 0.24348 0.0
C1553 C 0.75413 0.32355 0.22377 0.0
H1554 H 0.79618 0.32536 0.29299 0.0
H1555 H 0.79804 0.32434 0.23131 0.0
S1556 S 0.68298 0.3216 0.25707 0.0
N1557 N 0.70238 0.32282 0.29142 0.0
N1558 N 0.7043 0.32147 0.22452 0.0
C1559 C 0.72881 0.32222 0.24088 0.0
C1560 C 0.72772 0.32307 0.27718 0.0
C1561 C 0.92944 0.53234 0.52883 0.0
C1562 C 0.93229 0.50872 0.54888 0.0
C1563 C 0.92899 0.53074 0.49327 0.0
C1564 C 0.93161 0.50548 0.47638 0.0
H1565 H 0.92552 0.55199 0.54055 0.0
H1566 H 0.92497 0.54927 0.47905 0.0
S1567 S 0.94594 0.43857 0.51732 0.0
N1568 N 0.94235 0.46007 0.5494 0.0
N1569 N 0.94181 0.45698 0.48251 0.0
C1570 C 0.93746 0.48216 0.4961 0.0
C1571 C 0.93769 0.48379 0.53238 0.0
C1572 C 0.26768 0.31994 0.2463 0.0
C1573 C 0.24352 0.31981 0.22685 0.0
C1574 C 0.26672 0.3197 0.28188 0.0
C1575 C 0.24158 0.31912 0.29937 0.0
H1576 H 0.28743 0.32228 0.23414 0.0
H1577 H 0.28581 0.32165 0.29571 0.0
S1578 S 0.17285 0.31226 0.25984 0.0
N1579 N 0.19409 0.31452 0.22731 0.0
N1580 N 0.19217 0.31375 0.29425 0.0
C1581 C 0.21745 0.31598 0.28013 0.0
C1582 C 0.21845 0.31646 0.24384 0.0
C1583 C 0.43256 0.52266 0.99634 0.0
C1584 C 0.43278 0.49863 0.97669 0.0
C1585 C 0.43206 0.52152 0.03192 0.0
C1586 C 0.432 0.49632 0.0492 0.0
H1587 H 0.43075 0.54249 0.98429 0.0
H1588 H 0.4301 0.54053 0.04586 0.0
S1589 S 0.4387 0.42778 1.00934 0.0
N1590 N 0.4374 0.44918 0.97693 0.0
N1591 N 0.43677 0.44693 0.04385 0.0
C1592 C 0.4352 0.47228 0.02987 0.0
C1593 C 0.43547 0.47346 0.99358 0.0
C1594 C 0.28007 0.68062 0.74483 0.0
C1595 C 0.25542 0.6817 0.72633 0.0
C1596 C 0.28015 0.68107 0.78045 0.0
C1597 C 0.25554 0.68233 0.79893 0.0
H1598 H 0.29941 0.6779 0.73179 0.0
H1599 H 0.29951 0.67845 0.79347 0.0
S1600 S 0.18592 0.69076 0.76294 0.0
N1601 N 0.20604 0.68823 0.72936 0.0
N1602 N 0.20628 0.68864 0.79635 0.0
C1603 C 0.23099 0.68587 0.78085 0.0
C1604 C 0.23091 0.68572 0.74453 0.0
C1605 C 0.07489 0.53166 0.49766 0.0
C1606 C 0.07285 0.50759 0.47819 0.0
C1607 C 0.07516 0.53079 0.5333 0.0
C1608 C 0.07372 0.50578 0.55088 0.0
H1609 H 0.07765 0.55127 0.48533 0.0
H1610 H 0.07831 0.54976 0.547 0.0
S1611 S 0.06369 0.43732 0.51226 0.0
N1612 N 0.06582 0.45827 0.47948 0.0
N1613 N 0.06671 0.45674 0.5464 0.0
C1614 C 0.06953 0.4818 0.53188 0.0
C1615 C 0.06896 0.48268 0.49556 0.0
C1616 C 0.34719 0.06886 0.11803 0.0
C1617 C 0.34978 0.06382 0.15316 0.0
C1618 C 0.32804 0.08764 0.1057 0.0
C1619 C 0.3109 0.10216 0.12801 0.0
H1620 H 0.35826 0.05659 0.09967 0.0
H1621 H 0.32534 0.0892 0.07847 0.0
S1622 S 0.31593 0.10264 0.22243 0.0
N1623 N 0.33823 0.07932 0.21013 0.0
N1624 N 0.30244 0.11493 0.18712 0.0
C1625 C 0.3162 0.10026 0.16323 0.0
C1626 C 0.33557 0.08093 0.17578 0.0
C1627 C 0.16885 0.07638 0.35577 0.0
C1628 C 0.15382 0.0596 0.37797 0.0
C1629 C 0.18757 0.09554 0.36828 0.0
C1630 C 0.19205 0.09852 0.40349 0.0
H1631 H 0.16766 0.07345 0.32855 0.0
H1632 H 0.20018 0.10635 0.35004 0.0
S1633 S 0.15179 0.06569 0.47226 0.0
N1634 N 0.14 0.05188 0.43685 0.0
N1635 N 0.17551 0.08767 0.46021 0.0
C1636 C 0.17449 0.08462 0.42588 0.0
C1637 C 0.15521 0.06525 0.41314 0.0
C1638 C 0.1768 0.91559 0.60599 0.0
C1639 C 0.19397 0.90088 0.62806 0.0
C1640 C 0.1578 0.93439 0.61863 0.0
C1641 C 0.15542 0.93928 0.65383 0.0
H1642 H 0.17941 0.9142 0.57873 0.0
H1643 H 0.14675 0.94684 0.60044 0.0
S1644 S 0.1892 0.89973 0.72248 0.0
N1645 N 0.2025 0.8876 0.68697 0.0
N1646 N 0.16702 0.92328 0.71056 0.0
C1647 C 0.16956 0.9219 0.67618 0.0
C1648 C 0.18876 0.90254 0.66332 0.0
C1649 C 0.33467 0.92744 0.8518 0.0
C1650 C 0.35213 0.9421 0.87361 0.0
C1651 C 0.31643 0.90796 0.86451 0.0
C1652 C 0.31496 0.90234 0.8996 0.0
H1653 H 0.33352 0.93237 0.82508 0.0
H1654 H 0.30181 0.89909 0.84694 0.0
S1655 S 0.36309 0.92758 0.96544 0.0
N1656 N 0.37173 0.94436 0.93064 0.0
N1657 N 0.33758 0.90734 0.95425 0.0
C1658 C 0.33516 0.91365 0.92078 0.0
C1659 C 0.35377 0.9336 0.90785 0.0
C1660 C 0.67148 0.92341 0.84603 0.0
C1661 C 0.6518 0.93431 0.8684 0.0
C1662 C 0.69156 0.90531 0.85766 0.0
C1663 C 0.69278 0.89756 0.89211 0.0
H1664 H 0.67294 0.93065 0.82006 0.0
H1665 H 0.70768 0.8995 0.84017 0.0
S1666 S 0.64099 0.91308 0.95815 0.0
N1667 N 0.63101 0.93077 0.92462 0.0
N1668 N 0.66886 0.89661 0.94616 0.0
C1669 C 0.67103 0.90512 0.91342 0.0
C1670 C 0.65044 0.92349 0.9016 0.0
C1671 C 0.84386 0.92528 0.66677 0.0
C1672 C 0.85659 0.94359 0.64428 0.0
C1673 C 0.82579 0.9053 0.6548 0.0
C1674 C 0.8195 0.90321 0.61991 0.0
H1675 H 0.84655 0.92742 0.69397 0.0
H1676 H 0.81501 0.893 0.67338 0.0
S1677 S 0.85212 0.94192 0.54981 0.0
N1678 N 0.86549 0.95495 0.58482 0.0
N1679 N 0.83095 0.91774 0.56262 0.0
C1680 C 0.83431 0.91933 0.59689 0.0
C1681 C 0.85307 0.93942 0.609 0.0
C1682 C 0.84614 0.06416 0.41461 0.0
C1683 C 0.85412 0.06355 0.3802 0.0
C1684 C 0.82737 0.08354 0.42645 0.0
C1685 C 0.81596 0.10307 0.40433 0.0
H1686 H 0.85236 0.04809 0.43191 0.0
H1687 H 0.82004 0.08158 0.45234 0.0
S1688 S 0.83733 0.11553 0.31493 0.0
N1689 N 0.85457 0.08806 0.32655 0.0
N1690 N 0.81919 0.12459 0.34851 0.0
C1691 C 0.82693 0.10513 0.37124 0.0
C1692 C 0.84599 0.08526 0.3592 0.0
C1693 C 0.65637 0.06549 0.11367 0.0
C1694 C 0.65239 0.0617 0.14885 0.0
C1695 C 0.67538 0.08448 0.10148 0.0
C1696 C 0.69084 0.10065 0.12398 0.0
H1697 H 0.64655 0.05211 0.09539 0.0
H1698 H 0.67933 0.08507 0.07439 0.0
S1699 S 0.68248 0.10361 0.21797 0.0
N1700 N 0.66142 0.07917 0.20557 0.0
N1701 N 0.69678 0.11537 0.18288 0.0
C1702 C 0.68437 0.09955 0.15896 0.0
C1703 C 0.66526 0.07989 0.17136 0.0
C1704 C 0.82531 0.58875 0.60369 0.0
C1705 C 0.80728 0.60259 0.62556 0.0
C1706 C 0.84496 0.57069 0.61649 0.0
C1707 C 0.84714 0.5656 0.65167 0.0
H1708 H 0.8231 0.59045 0.57639 0.0
H1709 H 0.8569 0.55903 0.59837 0.0
S1710 S 0.80996 0.6022 0.72013 0.0
N1711 N 0.79681 0.61429 0.6845 0.0
N1712 N 0.83354 0.58 0.70835 0.0
C1713 C 0.83164 0.58184 0.67395 0.0
C1714 C 0.81178 0.60049 0.66094 0.0
C1715 C 0.67799 0.59732 0.86477 0.0
C1716 C 0.68319 0.60028 0.89984 0.0
C1717 C 0.66051 0.57687 0.85268 0.0
C1718 C 0.64735 0.55883 0.87516 0.0
H1719 H 0.68935 0.60914 0.84624 0.0
H1720 H 0.65891 0.57404 0.82546 0.0
S1721 S 0.64791 0.56345 0.96962 0.0
N1722 N 0.66941 0.58741 0.957 0.0
N1723 N 0.63607 0.54927 0.93446 0.0
C1724 C 0.64938 0.56413 0.91038 0.0
C1725 C 0.66747 0.58478 0.92267 0.0
C1726 C 0.6574 0.43353 0.11642 0.0
C1727 C 0.65531 0.43879 0.15158 0.0
C1728 C 0.67656 0.41489 0.10378 0.0
C1729 C 0.69418 0.40066 0.12579 0.0
H1730 H 0.64591 0.44554 0.0982 0.0
H1731 H 0.67885 0.41318 0.07649 0.0
S1732 S 0.69062 0.40064 0.22031 0.0
N1733 N 0.66794 0.42371 0.20837 0.0
N1734 N 0.70367 0.38828 0.18477 0.0
C1735 C 0.68941 0.40272 0.16111 0.0
C1736 C 0.67006 0.42195 0.17398 0.0
C1737 C 0.84864 0.43599 0.41039 0.0
C1738 C 0.85345 0.43846 0.3752 0.0
C1739 C 0.82965 0.41718 0.42297 0.0
C1740 C 0.81472 0.40015 0.40092 0.0
H1741 H 0.85759 0.45034 0.42821 0.0
H1742 H 0.82512 0.41775 0.44981 0.0
S1743 S 0.82782 0.39144 0.30841 0.0
N1744 N 0.84786 0.417 0.31992 0.0
N1745 N 0.81177 0.38177 0.34334 0.0
C1746 C 0.82268 0.39936 0.36644 0.0
C1747 C 0.84212 0.41856 0.35364 0.0
C1748 C 0.17975 0.40668 0.36903 0.0
C1749 C 0.18594 0.40465 0.40393 0.0
C1750 C 0.16162 0.42655 0.357 0.0
C1751 C 0.14884 0.44492 0.37943 0.0
H1752 H 0.19072 0.39453 0.35045 0.0
H1753 H 0.15917 0.42871 0.32978 0.0
S1754 S 0.15175 0.44226 0.47393 0.0
N1755 N 0.1734 0.41846 0.46122 0.0
N1756 N 0.13882 0.45553 0.43883 0.0
C1757 C 0.15182 0.44041 0.4147 0.0
C1758 C 0.17057 0.42036 0.42691 0.0
C1759 C 0.32723 0.41334 0.10738 0.0
C1760 C 0.30913 0.4001 0.12975 0.0
C1761 C 0.3469 0.43172 0.11948 0.0
C1762 C 0.34903 0.43778 0.15444 0.0
H1763 H 0.32499 0.41101 0.08015 0.0
H1764 H 0.35883 0.44293 0.10092 0.0
S1765 S 0.31183 0.40278 0.22424 0.0
N1766 N 0.29873 0.38978 0.18908 0.0
N1767 N 0.33537 0.42474 0.21163 0.0
C1768 C 0.33354 0.42202 0.17731 0.0
C1769 C 0.31369 0.40303 0.16502 0.0
C1770 C 0.35128 0.568 0.91167 0.0
C1771 C 0.35546 0.56502 0.87642 0.0
C1772 C 0.33311 0.58756 0.92438 0.0
C1773 C 0.3184 0.60476 0.90235 0.0
H1774 H 0.36001 0.55355 0.9295 0.0
H1775 H 0.32893 0.58748 0.95134 0.0
S1776 S 0.33047 0.61209 0.80944 0.0
N1777 N 0.34985 0.58606 0.82096 0.0
N1778 N 0.31526 0.62265 0.84455 0.0
C1779 C 0.32596 0.60501 0.86772 0.0
C1780 C 0.34454 0.58506 0.85481 0.0
C1781 C 0.19284 0.59439 0.66387 0.0
C1782 C 0.19372 0.60089 0.62899 0.0
C1783 C 0.17392 0.57554 0.67653 0.0
C1784 C 0.15507 0.56254 0.65482 0.0
H1785 H 0.20834 0.60203 0.68115 0.0
H1786 H 0.17564 0.56957 0.70297 0.0
S1787 S 0.14335 0.57935 0.56376 0.0
N1788 N 0.17007 0.59802 0.57479 0.0
N1789 N 0.13441 0.56241 0.59832 0.0
C1790 C 0.15329 0.57178 0.6209 0.0
C1791 C 0.1727 0.59097 0.60802 0.0
C1792 C 0.24307 0.23767 0.04194 0.0
C1793 C 0.21868 0.22262 0.04495 0.0
C1794 C 0.24263 0.26638 0.04158 0.0
C1795 C 0.2178 0.28071 0.04424 0.0
H1796 H 0.26263 0.2273 0.04313 0.0
H1797 H 0.26188 0.27735 0.0426 0.0
S1798 S 0.14841 0.2506 0.04825 0.0
N1799 N 0.16912 0.22393 0.04697 0.0
N1800 N 0.16829 0.27788 0.04623 0.0
C1801 C 0.19327 0.26583 0.0439 0.0
C1802 C 0.19371 0.23671 0.04431 0.0
C1803 C 0.98749 0.9477 0.29373 0.0
C1804 C 0.97301 0.97244 0.29602 0.0
C1805 C 0.0162 0.94744 0.29344 0.0
C1806 C 0.03115 0.97192 0.29537 0.0
H1807 H 0.97663 0.92843 0.29525 0.0
H1808 H 0.02671 0.92798 0.29489 0.0
S1809 S 0.00277 0.04199 0.29846 0.0
N1810 N 0.97557 0.02195 0.29743 0.0
N1811 N 0.02957 0.02146 0.29672 0.0
C1812 C 0.0169 0.99679 0.29467 0.0
C1813 C 0.98772 0.99705 0.29505 0.0
C1814 C 0.26022 0.73763 0.54096 0.0
C1815 C 0.28461 0.72262 0.54399 0.0
C1816 C 0.26059 0.76634 0.5413 0.0
C1817 C 0.28536 0.78069 0.54471 0.0
H1818 H 0.24067 0.7272 0.54168 0.0
H1819 H 0.24131 0.77725 0.54218 0.0
S1820 S 0.35478 0.75076 0.549 0.0
N1821 N 0.33416 0.72405 0.54673 0.0
N1822 N 0.33485 0.778 0.5474 0.0
C1823 C 0.30993 0.76592 0.54441 0.0
C1824 C 0.30956 0.73679 0.54402 0.0
C1825 C 0.48861 0.05926 0.79631 0.0
C1826 C 0.47322 0.03508 0.79349 0.0
C1827 C 0.51732 0.05856 0.79592 0.0
C1828 C 0.5314 0.03368 0.79248 0.0
H1829 H 0.47847 0.07838 0.80221 0.0
H1830 H 0.5285 0.07711 0.80177 0.0
S1831 S 0.50049 0.96535 0.77994 0.0
N1832 N 0.47401 0.98614 0.78363 0.0
N1833 N 0.528 0.98488 0.78259 0.0
C1834 C 0.51623 0.00987 0.78615 0.0
C1835 C 0.48704 0.01055 0.78672 0.0
C1836 C 0.24629 0.76498 0.9859 0.0
C1837 C 0.22206 0.77999 0.98137 0.0
C1838 C 0.24586 0.73629 0.98584 0.0
C1839 C 0.22119 0.72198 0.98123 0.0
H1840 H 0.26587 0.77537 0.9862 0.0
H1841 H 0.26513 0.72534 0.98605 0.0
S1842 S 0.15204 0.752 0.97299 0.0
N1843 N 0.17264 0.77868 0.97609 0.0
N1844 N 0.17184 0.72473 0.97589 0.0
C1845 C 0.19666 0.73679 0.98008 0.0
C1846 C 0.1971 0.7659 0.98018 0.0
C1847 C 0.51618 0.94488 0.23104 0.0
C1848 C 0.53136 0.96919 0.23382 0.0
C1849 C 0.48747 0.94542 0.23066 0.0
C1850 C 0.47322 0.97028 0.23317 0.0
H1851 H 0.5265 0.9258 0.22546 0.0
H1852 H 0.47649 0.92673 0.22498 0.0
S1853 S 0.50352 0.03886 0.2458 0.0
N1854 N 0.53016 0.01819 0.24311 0.0
N1855 N 0.47615 0.01918 0.24257 0.0
C1856 C 0.48811 0.99424 0.23964 0.0
C1857 C 0.5173 0.99369 0.23997 0.0
C1858 C 0.26017 0.23525 0.49156 0.0
C1859 C 0.28488 0.22215 0.48337 0.0
C1860 C 0.25842 0.26389 0.49186 0.0
C1861 C 0.28137 0.28003 0.4841 0.0
H1862 H 0.24155 0.22341 0.49422 0.0
H1863 H 0.23848 0.27332 0.49456 0.0
S1864 S 0.35149 0.25539 0.46645 0.0
N1865 N 0.33337 0.22721 0.4719 0.0
N1866 N 0.33004 0.28106 0.47229 0.0
C1867 C 0.30673 0.26715 0.47966 0.0
C1868 C 0.30851 0.23808 0.47937 0.0
C1869 C 0.01879 0.01041 0.73797 0.0
C1870 C 0.03395 0.03453 0.73324 0.0
C1871 C 0.99006 0.01092 0.7377 0.0
C1872 C 0.97584 0.03555 0.7327 0.0
H1873 H 0.02911 0.99082 0.73841 0.0
H1874 H 0.97904 0.99169 0.73784 0.0
S1875 S 0.00621 0.10448 0.72408 0.0
N1876 N 0.03283 0.08384 0.72747 0.0
N1877 N 0.97883 0.08481 0.72711 0.0
C1878 C 0.99078 0.06001 0.73163 0.0
C1879 C 0.01994 0.05949 0.73182 0.0
C1880 C 0.75826 0.76887 0.98103 0.0
C1881 C 0.7839 0.78166 0.97806 0.0
C1882 C 0.75608 0.74027 0.98094 0.0
C1883 C 0.77947 0.72376 0.97787 0.0
H1884 H 0.73969 0.78095 0.98006 0.0
H1885 H 0.7359 0.73111 0.97985 0.0
S1886 S 0.8513 0.7474 0.97381 0.0
N1887 N 0.83315 0.77584 0.97587 0.0
N1888 N 0.829 0.72203 0.97533 0.0
C1889 C 0.80526 0.73628 0.97817 0.0
C1890 C 0.80749 0.76534 0.9784 0.0
C1891 C 0.69251 0.23726 0.47469 0.0
C1892 C 0.71675 0.22198 0.47725 0.0
C1893 C 0.69324 0.26594 0.47433 0.0
C1894 C 0.71824 0.28007 0.47634 0.0
H1895 H 0.67325 0.22703 0.46972 0.0
H1896 H 0.67447 0.27704 0.4694 0.0
S1897 S 0.78696 0.24935 0.48659 0.0
N1898 N 0.76599 0.2229 0.48488 0.0
N1899 N 0.76742 0.27681 0.48379 0.0
C1900 C 0.74228 0.26504 0.48182 0.0
C1901 C 0.74151 0.23591 0.4824 0.0
C1902 C 0.75911 0.23852 0.03368 0.0
C1903 C 0.78301 0.22285 0.03752 0.0
C1904 C 0.76017 0.26719 0.03476 0.0
C1905 C 0.78515 0.28085 0.03976 0.0
H1906 H 0.73929 0.22859 0.03356 0.0
H1907 H 0.74114 0.27855 0.03513 0.0
S1908 S 0.85367 0.24916 0.04616 0.0
N1909 N 0.83247 0.22301 0.04241 0.0
N1910 N 0.83447 0.27691 0.04428 0.0
C1911 C 0.80936 0.26549 0.03996 0.0
C1912 C 0.80829 0.23639 0.03883 0.0
C1913 C 0.70114 0.76673 0.53532 0.0
C1914 C 0.72733 0.77854 0.53467 0.0
C1915 C 0.69792 0.73821 0.53514 0.0
C1916 C 0.72083 0.72084 0.53453 0.0
H1917 H 0.68333 0.77942 0.5398 0.0
H1918 H 0.6777 0.72977 0.53928 0.0
S1919 S 0.79334 0.74198 0.52763 0.0
N1920 N 0.77613 0.77102 0.52897 0.0
N1921 N 0.77015 0.71742 0.52898 0.0
C1922 C 0.74681 0.73248 0.53 0.0
C1923 C 0.75005 0.76144 0.53001 0.0
C1924 C 0.51513 0.49154 0.78942 0.0
C1925 C 0.52909 0.46657 0.79269 0.0
C1926 C 0.48641 0.49237 0.78936 0.0
C1927 C 0.471 0.46825 0.79257 0.0
H1928 H 0.52637 0.51062 0.79021 0.0
H1929 H 0.4763 0.51207 0.7902 0.0
S1930 S 0.49799 0.39772 0.79736 0.0
N1931 N 0.52559 0.41718 0.7954 0.0
N1932 N 0.47159 0.41875 0.7954 0.0
C1933 C 0.48475 0.44311 0.79249 0.0
C1934 C 0.51389 0.44226 0.79254 0.0
C1935 C 0.01601 0.51109 0.29097 0.0
C1936 C 0.02995 0.53604 0.29481 0.0
C1937 C 0.98728 0.51025 0.29039 0.0
C1938 C 0.97183 0.53434 0.29362 0.0
H1939 H 0.02724 0.49201 0.29168 0.0
H1940 H 0.97716 0.49055 0.29078 0.0
S1941 S 0.99882 0.60485 0.29969 0.0
N1942 N 0.02642 0.5854 0.29803 0.0
N1943 N 0.97244 0.58382 0.297 0.0
C1944 C 0.98561 0.55949 0.29409 0.0
C1945 C 0.01475 0.56033 0.29468 0.0
C1946 C 0.0152 0.44812 0.73139 0.0
C1947 C 0.03113 0.47195 0.73379 0.0
C1948 C 0.98652 0.44952 0.7317 0.0
C1949 C 0.97303 0.47478 0.73452 0.0
H1950 H 0.02488 0.4287 0.72584 0.0
H1951 H 0.97492 0.43116 0.72621 0.0
S1952 S 0.00555 0.54248 0.74588 0.0
N1953 N 0.03152 0.52101 0.74279 0.0
N1954 N 0.97757 0.52361 0.74339 0.0
C1955 C 0.98874 0.4983 0.74041 0.0
C1956 C 0.0179 0.49689 0.74006 0.0
C1957 C 0.48901 0.51012 0.23913 0.0
C1958 C 0.47393 0.53374 0.23122 0.0
C1959 C 0.51776 0.51042 0.23847 0.0
C1960 C 0.53209 0.53434 0.22983 0.0
H1961 H 0.47858 0.49075 0.24239 0.0
H1962 H 0.52868 0.49129 0.24137 0.0
S1963 S 0.50203 0.60224 0.21197 0.0
N1964 N 0.47532 0.58221 0.21853 0.0
N1965 N 0.52933 0.5828 0.2174 0.0
C1966 C 0.51727 0.55863 0.22545 0.0
C1967 C 0.4881 0.55832 0.22611 0.0
loop_
_geom_bond_atom_site_label_1
_geom_bond_atom_site_label_2
_geom_bond_distance
_geom_bond_site_symmetry_2
_ccdc_geom_bond_type
Co0 O3 1.970 . S
Co0 N17 1.989 . S
Co0 O25 1.967 . S
Co0 O32 1.920 . S
Co1 O4 1.966 . S
Co1 N10 2.022 . S
Co1 N18 1.993 . S
Co1 O26 1.941 . S
C2 O3 1.258 . S
C2 O4 1.263 . S
O3 Co0 1.970 . S
O3 C2 1.258 . S
O4 Co1 1.966 . S
O4 C2 1.263 . S
C5 O6 1.235 . S
C5 O32 1.289 . S
O6 C5 1.235 . S
C7 C9 1.400 . S
C7 N10 1.351 1_556 S
C7 C12 1.501 . S
C8 C9 1.387 . S
C8 N11 1.341 . S
C9 C7 1.400 . S
C9 C8 1.387 . S
N10 Co1 2.022 . S
N10 C7 1.351 1_554 S
N10 N11 1.365 1_554 S
N11 C8 1.341 . S
N11 N10 1.365 1_556 S
N11 H31 0.862 . S
C12 C7 1.501 . S
C12 H13 0.961 1_556 S
C12 H14 0.961 . S
C12 H15 0.960 . S
H13 C12 0.961 1_554 S
H14 C12 0.961 . S
H15 C12 0.960 . S
C16 N17 1.342 . S
C16 C20 1.401 . S
C16 C21 1.499 . S
N17 Co0 1.989 . S
N17 C16 1.342 . S
N17 N18 1.388 . S
N18 Co1 1.993 . S
N18 N17 1.388 . S
N18 C19 1.346 . S
C19 N18 1.346 . S
C19 C20 1.396 . S
C19 C29 1.510 . S
C20 C16 1.401 . S
C20 C19 1.396 . S
C21 C16 1.499 . S
C21 H22 0.959 . S
C21 H23 0.960 . S
C21 H24 0.961 . S
H22 C21 0.959 . S
H23 C21 0.960 . S
H24 C21 0.961 . S
O25 Co0 1.967 . S
O25 C33 1.258 . S
O26 Co1 1.941 . S
O26 C33 1.266 . S
H27 C29 0.959 1_556 S
H28 C29 0.958 1_556 S
C29 C19 1.510 . S
C29 H27 0.959 1_554 S
C29 H28 0.958 1_554 S
C29 H30 0.961 . S
H30 C29 0.961 . S
H31 N11 0.862 . S
O32 Co0 1.920 . S
O32 C5 1.289 . S
C33 O25 1.258 . S
C33 O26 1.266 . S
Co34 O37 1.970 1_565 S
Co34 N51 1.989 . S
Co34 O59 1.967 . S
Co34 O66 1.920 . S
Co35 O38 1.966 1_565 S
Co35 N44 2.022 . S
Co35 N52 1.993 . S
Co35 O60 1.941 . S
C36 O37 1.258 . S
C36 O38 1.263 . S
O37 Co34 1.970 1_545 S
O37 C36 1.258 . S
O38 Co35 1.966 1_545 S
O38 C36 1.263 . S
C39 O40 1.235 1_565 S
C39 O66 1.289 . S
O40 C39 1.235 1_545 S
C41 C43 1.400 . S
C41 N44 1.351 . S
C41 C46 1.501 1_565 S
C42 C43 1.387 . S
C42 N45 1.341 . S
C43 C41 1.400 . S
C43 C42 1.387 . S
N44 Co35 2.022 . S
N44 C41 1.351 . S
N44 N45 1.365 . S
N45 C42 1.341 . S
N45 N44 1.365 . S
N45 H65 0.862 . S
C46 C41 1.501 1_545 S
C46 H47 0.961 . S
C46 H48 0.961 . S
C46 H49 0.960 . S
H47 C46 0.961 . S
H48 C46 0.961 . S
H49 C46 0.960 . S
C50 N51 1.342 . S
C50 C54 1.401 . S
C50 C55 1.499 . S
N51 Co34 1.989 . S
N51 C50 1.342 . S
N51 N52 1.388 . S
N52 Co35 1.993 . S
N52 N51 1.388 . S
N52 C53 1.346 . S
C53 N52 1.346 . S
C53 C54 1.396 . S
C53 C63 1.510 . S
C54 C50 1.401 . S
C54 C53 1.396 . S
C55 C50 1.499 . S
C55 H56 0.959 . S
C55 H57 0.960 . S
C55 H58 0.961 . S
H56 C55 0.959 . S
H57 C55 0.960 . S
H58 C55 0.961 . S
O59 Co34 1.967 . S
O59 C67 1.258 . S
O60 Co35 1.941 . S
O60 C67 1.266 . S
H61 C63 0.959 . S
H62 C63 0.961 . S
C63 C53 1.510 . S
C63 H61 0.959 . S
C63 H62 0.961 . S
C63 H64 0.960 . S
H64 C63 0.960 . S
H65 N45 0.862 . S
O66 Co34 1.920 . S
O66 C39 1.289 . S
C67 O59 1.258 . S
C67 O60 1.266 . S
Co68 O71 1.970 . S
Co68 N85 1.989 . S
Co68 O93 1.967 . S
Co68 O100 1.920 . S
Co69 O72 1.966 . S
Co69 N78 2.022 . S
Co69 N86 1.993 . S
Co69 O94 1.941 . S
C70 O71 1.258 . S
C70 O72 1.263 . S
O71 Co68 1.970 . S
O71 C70 1.258 . S
O72 Co69 1.966 . S
O72 C70 1.263 . S
C73 O74 1.235 . S
C73 O100 1.289 . S
O74 C73 1.235 . S
C75 C77 1.400 . S
C75 N78 1.351 . S
C75 C80 1.501 . S
C76 C77 1.387 . S
C76 N79 1.341 . S
C77 C75 1.400 . S
C77 C76 1.387 . S
N78 Co69 2.022 . S
N78 C75 1.351 . S
N78 N79 1.365 . S
N79 C76 1.341 . S
N79 N78 1.365 . S
N79 H99 0.862 . S
C80 C75 1.501 . S
C80 H81 0.961 . S
C80 H82 0.961 . S
C80 H83 0.960 . S
H81 C80 0.961 . S
H82 C80 0.961 . S
H83 C80 0.960 . S
C84 N85 1.342 . S
C84 C88 1.401 . S
C84 C89 1.499 . S
N85 Co68 1.989 . S
N85 C84 1.342 . S
N85 N86 1.388 . S
N86 Co69 1.993 . S
N86 N85 1.388 . S
N86 C87 1.346 . S
C87 N86 1.346 . S
C87 C88 1.396 . S
C87 C97 1.510 . S
C88 C84 1.401 . S
C88 C87 1.396 . S
C89 C84 1.499 . S
C89 H90 0.959 . S
C89 H91 0.960 . S
C89 H92 0.961 . S
H90 C89 0.959 . S
H91 C89 0.960 . S
H92 C89 0.961 . S
O93 Co68 1.967 . S
O93 C101 1.258 . S
O94 Co69 1.941 . S
O94 C101 1.266 . S
H95 C97 0.959 . S
H96 C97 0.961 . S
C97 C87 1.510 . S
C97 H95 0.959 . S
C97 H96 0.961 . S
C97 H98 0.960 . S
H98 C97 0.960 . S
H99 N79 0.862 . S
O100 Co68 1.920 . S
O100 C73 1.289 . S
C101 O93 1.258 . S
C101 O94 1.266 . S
Co102 O105 1.970 1_545 S
Co102 N119 1.989 . S
Co102 O127 1.967 . S
Co102 O134 1.920 . S
Co103 O106 1.966 1_545 S
Co103 N112 2.022 . S
Co103 N120 1.993 . S
Co103 O128 1.941 . S
C104 O105 1.258 . S
C104 O106 1.263 . S
O105 Co102 1.970 1_565 S
O105 C104 1.258 . S
O106 Co103 1.966 1_565 S
O106 C104 1.263 . S
C107 O108 1.235 1_545 S
C107 O134 1.289 . S
O108 C107 1.235 1_565 S
C109 C111 1.400 . S
C109 N112 1.351 . S
C109 C114 1.501 1_545 S
C110 C111 1.387 . S
C110 N113 1.341 . S
C111 C109 1.400 . S
C111 C110 1.387 . S
N112 Co103 2.022 . S
N112 C109 1.351 . S
N112 N113 1.365 . S
N113 C110 1.341 . S
N113 N112 1.365 . S
N113 H133 0.862 . S
C114 C109 1.501 1_565 S
C114 H115 0.961 . S
C114 H116 0.961 . S
C114 H117 0.960 . S
H115 C114 0.961 . S
H116 C114 0.961 . S
H117 C114 0.960 . S
C118 N119 1.342 . S
C118 C122 1.401 . S
C118 C123 1.499 . S
N119 Co102 1.989 . S
N119 C118 1.342 . S
N119 N120 1.388 . S
N120 Co103 1.993 . S
N120 N119 1.388 . S
N120 C121 1.346 . S
C121 N120 1.346 . S
C121 C122 1.396 . S
C121 C131 1.510 . S
C122 C118 1.401 . S
C122 C121 1.396 . S
C123 C118 1.499 . S
C123 H124 0.959 . S
C123 H125 0.960 . S
C123 H126 0.961 . S
H124 C123 0.959 . S
H125 C123 0.960 . S
H126 C123 0.961 . S
O127 Co102 1.967 . S
O127 C135 1.258 . S
O128 Co103 1.941 . S
O128 C135 1.266 . S
H129 C131 0.959 . S
H130 C131 0.961 . S
C131 C121 1.510 . S
C131 H129 0.959 . S
C131 H130 0.961 . S
C131 H132 0.960 . S
H132 C131 0.960 . S
H133 N113 0.862 . S
O134 Co102 1.920 . S
O134 C107 1.289 . S
C135 O127 1.258 . S
C135 O128 1.266 . S
Co136 O139 1.970 . S
Co136 N153 1.989 . S
Co136 O161 1.967 . S
Co136 O168 1.920 . S
Co137 O140 1.966 . S
Co137 N146 2.022 . S
Co137 N154 1.993 . S
Co137 O162 1.941 . S
C138 O139 1.258 . S
C138 O140 1.263 . S
O139 Co136 1.970 . S
O139 C138 1.258 . S
O140 Co137 1.966 . S
O140 C138 1.263 . S
C141 O142 1.235 . S
C141 O168 1.289 . S
O142 C141 1.235 . S
C143 C145 1.400 . S
C143 N146 1.351 1_554 S
C143 C148 1.501 . S
C144 C145 1.387 . S
C144 N147 1.341 . S
C145 C143 1.400 . S
C145 C144 1.387 . S
N146 Co137 2.022 . S
N146 C143 1.351 1_556 S
N146 N147 1.365 1_556 S
N147 C144 1.341 . S
N147 N146 1.365 1_554 S
N147 H167 0.862 . S
C148 C143 1.501 . S
C148 H149 0.961 1_554 S
C148 H150 0.961 . S
C148 H151 0.960 . S
H149 C148 0.961 1_556 S
H150 C148 0.961 . S
H151 C148 0.960 . S
C152 N153 1.342 . S
C152 C156 1.401 . S
C152 C157 1.499 . S
N153 Co136 1.989 . S
N153 C152 1.342 . S
N153 N154 1.388 . S
N154 Co137 1.993 . S
N154 N153 1.388 . S
N154 C155 1.346 . S
C155 N154 1.346 . S
C155 C156 1.396 . S
C155 C165 1.510 . S
C156 C152 1.401 . S
C156 C155 1.396 . S
C157 C152 1.499 . S
C157 H158 0.959 . S
C157 H159 0.960 . S
C157 H160 0.961 . S
H158 C157 0.959 . S
H159 C157 0.960 . S
H160 C157 0.961 . S
O161 Co136 1.967 . S
O161 C169 1.258 . S
O162 Co137 1.941 . S
O162 C169 1.266 . S
H163 C165 0.959 1_554 S
H164 C165 0.958 1_554 S
C165 C155 1.510 . S
C165 H163 0.959 1_556 S
C165 H164 0.958 1_556 S
C165 H166 0.961 . S
H166 C165 0.961 . S
H167 N147 0.862 . S
O168 Co136 1.920 . S
O168 C141 1.289 . S
C169 O161 1.258 . S
C169 O162 1.266 . S
Co170 O173 1.970 1_565 S
Co170 N187 1.989 . S
Co170 O195 1.967 . S
Co170 O202 1.920 . S
Co171 O174 1.966 1_565 S
Co171 N180 2.022 . S
Co171 N188 1.993 . S
Co171 O196 1.941 . S
C172 O173 1.258 . S
C172 O174 1.263 . S
O173 Co170 1.970 1_545 S
O173 C172 1.258 . S
O174 Co171 1.966 1_545 S
O174 C172 1.263 . S
C175 O176 1.235 1_565 S
C175 O202 1.289 . S
O176 C175 1.235 1_545 S
C177 C179 1.400 . S
C177 N180 1.351 . S
C177 C182 1.501 1_565 S
C178 C179 1.387 . S
C178 N181 1.341 . S
C179 C177 1.400 . S
C179 C178 1.387 . S
N180 Co171 2.022 . S
N180 C177 1.351 . S
N180 N181 1.365 . S
N181 C178 1.341 . S
N181 N180 1.365 . S
N181 H201 0.862 . S
C182 C177 1.501 1_545 S
C182 H183 0.961 . S
C182 H184 0.961 . S
C182 H185 0.960 . S
H183 C182 0.961 . S
H184 C182 0.961 . S
H185 C182 0.960 . S
C186 N187 1.342 . S
C186 C190 1.401 . S
C186 C191 1.499 . S
N187 Co170 1.989 . S
N187 C186 1.342 . S
N187 N188 1.388 . S
N188 Co171 1.993 . S
N188 N187 1.388 . S
N188 C189 1.346 . S
C189 N188 1.346 . S
C189 C190 1.396 . S
C189 C199 1.510 . S
C190 C186 1.401 . S
C190 C189 1.396 . S
C191 C186 1.499 . S
C191 H192 0.959 . S
C191 H193 0.960 . S
C191 H194 0.961 . S
H192 C191 0.959 . S
H193 C191 0.960 . S
H194 C191 0.961 . S
O195 Co170 1.967 . S
O195 C203 1.258 . S
O196 Co171 1.941 . S
O196 C203 1.266 . S
H197 C199 0.959 . S
H198 C199 0.961 . S
C199 C189 1.510 . S
C199 H197 0.959 . S
C199 H198 0.961 . S
C199 H200 0.960 . S
H200 C199 0.960 . S
H201 N181 0.862 . S
O202 Co170 1.920 . S
O202 C175 1.289 . S
C203 O195 1.258 . S
C203 O196 1.266 . S
Co204 O207 1.970 . S
Co204 N221 1.989 . S
Co204 O229 1.967 . S
Co204 O236 1.920 . S
Co205 O208 1.966 . S
Co205 N214 2.022 . S
Co205 N222 1.993 . S
Co205 O230 1.941 . S
C206 O207 1.258 . S
C206 O208 1.263 . S
O207 Co204 1.970 . S
O207 C206 1.258 . S
O208 Co205 1.966 . S
O208 C206 1.263 . S
C209 O210 1.235 . S
C209 O236 1.289 . S
O210 C209 1.235 . S
C211 C213 1.400 . S
C211 N214 1.351 . S
C211 C216 1.501 . S
C212 C213 1.387 . S
C212 N215 1.341 . S
C213 C211 1.400 . S
C213 C212 1.387 . S
N214 Co205 2.022 . S
N214 C211 1.351 . S
N214 N215 1.365 . S
N215 C212 1.341 . S
N215 N214 1.365 . S
N215 H235 0.862 . S
C216 C211 1.501 . S
C216 H217 0.961 . S
C216 H218 0.961 . S
C216 H219 0.960 . S
H217 C216 0.961 . S
H218 C216 0.961 . S
H219 C216 0.960 . S
C220 N221 1.342 . S
C220 C224 1.401 . S
C220 C225 1.499 . S
N221 Co204 1.989 . S
N221 C220 1.342 . S
N221 N222 1.388 . S
N222 Co205 1.993 . S
N222 N221 1.388 . S
N222 C223 1.346 . S
C223 N222 1.346 . S
C223 C224 1.396 . S
C223 C233 1.510 . S
C224 C220 1.401 . S
C224 C223 1.396 . S
C225 C220 1.499 . S
C225 H226 0.959 . S
C225 H227 0.960 . S
C225 H228 0.961 . S
H226 C225 0.959 . S
H227 C225 0.960 . S
H228 C225 0.961 . S
O229 Co204 1.967 . S
O229 C237 1.258 . S
O230 Co205 1.941 . S
O230 C237 1.266 . S
H231 C233 0.959 . S
H232 C233 0.961 . S
C233 C223 1.510 . S
C233 H231 0.959 . S
C233 H232 0.961 . S
C233 H234 0.960 . S
H234 C233 0.960 . S
H235 N215 0.862 . S
O236 Co204 1.920 . S
O236 C209 1.289 . S
C237 O229 1.258 . S
C237 O230 1.266 . S
Co238 O241 1.970 1_545 S
Co238 N255 1.989 . S
Co238 O263 1.967 . S
Co238 O270 1.920 . S
Co239 O242 1.966 1_545 S
Co239 N248 2.022 . S
Co239 N256 1.993 . S
Co239 O264 1.941 . S
C240 O241 1.258 . S
C240 O242 1.263 . S
O241 Co238 1.970 1_565 S
O241 C240 1.258 . S
O242 Co239 1.966 1_565 S
O242 C240 1.263 . S
C243 O244 1.235 1_545 S
C243 O270 1.289 . S
O244 C243 1.235 1_565 S
C245 C247 1.400 . S
C245 N248 1.351 . S
C245 C250 1.501 1_545 S
C246 C247 1.387 . S
C246 N249 1.341 . S
C247 C245 1.400 . S
C247 C246 1.387 . S
N248 Co239 2.022 . S
N248 C245 1.351 . S
N248 N249 1.365 . S
N249 C246 1.341 . S
N249 N248 1.365 . S
N249 H269 0.862 . S
C250 C245 1.501 1_565 S
C250 H251 0.961 . S
C250 H252 0.961 . S
C250 H253 0.960 . S
H251 C250 0.961 . S
H252 C250 0.961 . S
H253 C250 0.960 . S
C254 N255 1.342 . S
C254 C258 1.401 . S
C254 C259 1.499 . S
N255 Co238 1.989 . S
N255 C254 1.342 . S
N255 N256 1.388 . S
N256 Co239 1.993 . S
N256 N255 1.388 . S
N256 C257 1.346 . S
C257 N256 1.346 . S
C257 C258 1.396 . S
C257 C267 1.510 . S
C258 C254 1.401 . S
C258 C257 1.396 . S
C259 C254 1.499 . S
C259 H260 0.959 . S
C259 H261 0.960 . S
C259 H262 0.961 . S
H260 C259 0.959 . S
H261 C259 0.960 . S
H262 C259 0.961 . S
O263 Co238 1.967 . S
O263 C271 1.258 . S
O264 Co239 1.941 . S
O264 C271 1.266 . S
H265 C267 0.959 . S
H266 C267 0.961 . S
C267 C257 1.510 . S
C267 H265 0.959 . S
C267 H266 0.961 . S
C267 H268 0.960 . S
H268 C267 0.960 . S
H269 N249 0.862 . S
O270 Co238 1.920 . S
O270 C243 1.289 . S
C271 O263 1.258 . S
C271 O264 1.266 . S
Co272 O275 1.970 . S
Co272 N289 1.989 . S
Co272 O297 1.967 . S
Co272 O304 1.920 . S
Co273 O276 1.966 . S
Co273 N282 2.022 . S
Co273 N290 1.993 . S
Co273 O298 1.941 . S
C274 O275 1.258 . S
C274 O276 1.263 . S
O275 Co272 1.970 . S
O275 C274 1.258 . S
O276 Co273 1.966 . S
O276 C274 1.263 . S
C277 O278 1.235 . S
C277 O304 1.289 . S
O278 C277 1.235 . S
C279 C281 1.400 . S
C279 N282 1.351 1_554 S
C279 C284 1.501 . S
C280 C281 1.387 . S
C280 N283 1.341 . S
C281 C279 1.400 . S
C281 C280 1.387 . S
N282 Co273 2.022 . S
N282 C279 1.351 1_556 S
N282 N283 1.365 1_556 S
N283 C280 1.341 . S
N283 N282 1.365 1_554 S
N283 H303 0.862 . S
C284 C279 1.501 . S
C284 H285 0.961 1_554 S
C284 H286 0.961 . S
C284 H287 0.960 . S
H285 C284 0.961 1_556 S
H286 C284 0.961 . S
H287 C284 0.960 . S
C288 N289 1.342 . S
C288 C292 1.401 . S
C288 C293 1.499 . S
N289 Co272 1.989 . S
N289 C288 1.342 . S
N289 N290 1.388 . S
N290 Co273 1.993 . S
N290 N289 1.388 . S
N290 C291 1.346 . S
C291 N290 1.346 . S
C291 C292 1.396 . S
C291 C301 1.510 . S
C292 C288 1.401 . S
C292 C291 1.396 . S
C293 C288 1.499 . S
C293 H294 0.959 . S
C293 H295 0.960 . S
C293 H296 0.961 . S
H294 C293 0.959 . S
H295 C293 0.960 . S
H296 C293 0.961 . S
O297 Co272 1.967 . S
O297 C305 1.258 . S
O298 Co273 1.941 . S
O298 C305 1.266 . S
H299 C301 0.959 1_554 S
H300 C301 0.958 1_554 S
C301 C291 1.510 . S
C301 H299 0.959 1_556 S
C301 H300 0.958 1_556 S
C301 H302 0.961 . S
H302 C301 0.961 . S
H303 N283 0.862 . S
O304 Co272 1.920 . S
O304 C277 1.289 . S
C305 O297 1.258 . S
C305 O298 1.266 . S
Co306 O309 1.970 1_545 S
Co306 N323 1.989 . S
Co306 O331 1.967 . S
Co306 O338 1.920 . S
Co307 O310 1.966 1_545 S
Co307 N316 2.022 . S
Co307 N324 1.993 . S
Co307 O332 1.941 . S
C308 O309 1.258 . S
C308 O310 1.263 . S
O309 Co306 1.970 1_565 S
O309 C308 1.258 . S
O310 Co307 1.966 1_565 S
O310 C308 1.263 . S
C311 O312 1.235 1_545 S
C311 O338 1.289 . S
O312 C311 1.235 1_565 S
C313 C315 1.400 . S
C313 N316 1.351 . S
C313 C318 1.501 1_545 S
C314 C315 1.387 . S
C314 N317 1.341 . S
C315 C313 1.400 . S
C315 C314 1.387 . S
N316 Co307 2.022 . S
N316 C313 1.351 . S
N316 N317 1.365 . S
N317 C314 1.341 . S
N317 N316 1.365 . S
N317 H337 0.862 . S
C318 C313 1.501 1_565 S
C318 H319 0.961 . S
C318 H320 0.961 . S
C318 H321 0.960 . S
H319 C318 0.961 . S
H320 C318 0.961 . S
H321 C318 0.960 . S
C322 N323 1.342 . S
C322 C326 1.401 . S
C322 C327 1.499 . S
N323 Co306 1.989 . S
N323 C322 1.342 . S
N323 N324 1.388 . S
N324 Co307 1.993 . S
N324 N323 1.388 . S
N324 C325 1.346 . S
C325 N324 1.346 . S
C325 C326 1.396 . S
C325 C335 1.510 . S
C326 C322 1.401 . S
C326 C325 1.396 . S
C327 C322 1.499 . S
C327 H328 0.959 . S
C327 H329 0.960 . S
C327 H330 0.961 . S
H328 C327 0.959 . S
H329 C327 0.960 . S
H330 C327 0.961 . S
O331 Co306 1.967 . S
O331 C339 1.258 . S
O332 Co307 1.941 . S
O332 C339 1.266 . S
H333 C335 0.959 . S
H334 C335 0.961 . S
C335 C325 1.510 . S
C335 H333 0.959 . S
C335 H334 0.961 . S
C335 H336 0.960 . S
H336 C335 0.960 . S
H337 N317 0.862 . S
O338 Co306 1.920 . S
O338 C311 1.289 . S
C339 O331 1.258 . S
C339 O332 1.266 . S
Co340 O343 1.970 . S
Co340 N357 1.989 . S
Co340 O365 1.967 . S
Co340 O372 1.920 . S
Co341 O344 1.966 . S
Co341 N350 2.022 . S
Co341 N358 1.993 . S
Co341 O366 1.941 . S
C342 O343 1.258 . S
C342 O344 1.263 . S
O343 Co340 1.970 . S
O343 C342 1.258 . S
O344 Co341 1.966 . S
O344 C342 1.263 . S
C345 O346 1.235 . S
C345 O372 1.289 . S
O346 C345 1.235 . S
C347 C349 1.400 . S
C347 N350 1.351 . S
C347 C352 1.501 . S
C348 C349 1.387 . S
C348 N351 1.341 . S
C349 C347 1.400 . S
C349 C348 1.387 . S
N350 Co341 2.022 . S
N350 C347 1.351 . S
N350 N351 1.365 . S
N351 C348 1.341 . S
N351 N350 1.365 . S
N351 H371 0.862 . S
C352 C347 1.501 . S
C352 H353 0.961 . S
C352 H354 0.961 . S
C352 H355 0.960 . S
H353 C352 0.961 . S
H354 C352 0.961 . S
H355 C352 0.960 . S
C356 N357 1.342 . S
C356 C360 1.401 . S
C356 C361 1.499 . S
N357 Co340 1.989 . S
N357 C356 1.342 . S
N357 N358 1.388 . S
N358 Co341 1.993 . S
N358 N357 1.388 . S
N358 C359 1.346 . S
C359 N358 1.346 . S
C359 C360 1.396 . S
C359 C369 1.510 . S
C360 C356 1.401 . S
C360 C359 1.396 . S
C361 C356 1.499 . S
C361 H362 0.959 . S
C361 H363 0.960 . S
C361 H364 0.961 . S
H362 C361 0.959 . S
H363 C361 0.960 . S
H364 C361 0.961 . S
O365 Co340 1.967 . S
O365 C373 1.258 . S
O366 Co341 1.941 . S
O366 C373 1.266 . S
H367 C369 0.959 . S
H368 C369 0.961 . S
C369 C359 1.510 . S
C369 H367 0.959 . S
C369 H368 0.961 . S
C369 H370 0.960 . S
H370 C369 0.960 . S
H371 N351 0.862 . S
O372 Co340 1.920 . S
O372 C345 1.289 . S
C373 O365 1.258 . S
C373 O366 1.266 . S
Co374 O377 1.970 1_565 S
Co374 N391 1.989 . S
Co374 O399 1.967 . S
Co374 O406 1.920 . S
Co375 O378 1.966 1_565 S
Co375 N384 2.022 . S
Co375 N392 1.993 . S
Co375 O400 1.941 . S
C376 O377 1.258 . S
C376 O378 1.263 . S
O377 Co374 1.970 1_545 S
O377 C376 1.258 . S
O378 Co375 1.966 1_545 S
O378 C376 1.263 . S
C379 O380 1.235 1_565 S
C379 O406 1.289 . S
O380 C379 1.235 1_545 S
C381 C383 1.400 . S
C381 N384 1.351 . S
C381 C386 1.501 1_565 S
C382 C383 1.387 . S
C382 N385 1.341 . S
C383 C381 1.400 . S
C383 C382 1.387 . S
N384 Co375 2.022 . S
N384 C381 1.351 . S
N384 N385 1.365 . S
N385 C382 1.341 . S
N385 N384 1.365 . S
N385 H405 0.862 . S
C386 C381 1.501 1_545 S
C386 H387 0.961 . S
C386 H388 0.961 . S
C386 H389 0.960 . S
H387 C386 0.961 . S
H388 C386 0.961 . S
H389 C386 0.960 . S
C390 N391 1.342 . S
C390 C394 1.401 . S
C390 C395 1.499 . S
N391 Co374 1.989 . S
N391 C390 1.342 . S
N391 N392 1.388 . S
N392 Co375 1.993 . S
N392 N391 1.388 . S
N392 C393 1.346 . S
C393 N392 1.346 . S
C393 C394 1.396 . S
C393 C403 1.510 . S
C394 C390 1.401 . S
C394 C393 1.396 . S
C395 C390 1.499 . S
C395 H396 0.959 . S
C395 H397 0.960 . S
C395 H398 0.961 . S
H396 C395 0.959 . S
H397 C395 0.960 . S
H398 C395 0.961 . S
O399 Co374 1.967 . S
O399 C407 1.258 . S
O400 Co375 1.941 . S
O400 C407 1.266 . S
H401 C403 0.959 . S
H402 C403 0.961 . S
C403 C393 1.510 . S
C403 H401 0.959 . S
C403 H402 0.961 . S
C403 H404 0.960 . S
H404 C403 0.960 . S
H405 N385 0.862 . S
O406 Co374 1.920 . S
O406 C379 1.289 . S
C407 O399 1.258 . S
C407 O400 1.266 . S
Co408 O411 1.970 . S
Co408 N425 1.989 . S
Co408 O433 1.967 . S
Co408 O440 1.920 . S
Co409 O412 1.966 . S
Co409 N418 2.022 . S
Co409 N426 1.993 . S
Co409 O434 1.941 . S
C410 O411 1.258 . S
C410 O412 1.263 . S
O411 Co408 1.970 . S
O411 C410 1.258 . S
O412 Co409 1.966 . S
O412 C410 1.263 . S
C413 O414 1.235 . S
C413 O440 1.289 . S
O414 C413 1.235 . S
C415 C417 1.400 . S
C415 N418 1.351 1_556 S
C415 C420 1.501 . S
C416 C417 1.387 . S
C416 N419 1.341 . S
C417 C415 1.400 . S
C417 C416 1.387 . S
N418 Co409 2.022 . S
N418 C415 1.351 1_554 S
N418 N419 1.365 1_554 S
N419 C416 1.341 . S
N419 N418 1.365 1_556 S
N419 H439 0.862 . S
C420 C415 1.501 . S
C420 H421 0.961 1_556 S
C420 H422 0.961 . S
C420 H423 0.960 . S
H421 C420 0.961 1_554 S
H422 C420 0.961 . S
H423 C420 0.960 . S
C424 N425 1.342 . S
C424 C428 1.401 . S
C424 C429 1.499 . S
N425 Co408 1.989 . S
N425 C424 1.342 . S
N425 N426 1.388 . S
N426 Co409 1.993 . S
N426 N425 1.388 . S
N426 C427 1.346 . S
C427 N426 1.346 . S
C427 C428 1.396 . S
C427 C437 1.510 . S
C428 C424 1.401 . S
C428 C427 1.396 . S
C429 C424 1.499 . S
C429 H430 0.959 . S
C429 H431 0.960 . S
C429 H432 0.961 . S
H430 C429 0.959 . S
H431 C429 0.960 . S
H432 C429 0.961 . S
O433 Co408 1.967 . S
O433 C441 1.258 . S
O434 Co409 1.941 . S
O434 C441 1.266 . S
H435 C437 0.959 1_556 S
H436 C437 0.958 1_556 S
C437 C427 1.510 . S
C437 H435 0.959 1_554 S
C437 H436 0.958 1_554 S
C437 H438 0.961 . S
H438 C437 0.961 . S
H439 N419 0.862 . S
O440 Co408 1.920 . S
O440 C413 1.289 . S
C441 O433 1.258 . S
C441 O434 1.266 . S
Co442 O445 1.970 1_545 S
Co442 N459 1.989 . S
Co442 O467 1.967 . S
Co442 O474 1.920 . S
Co443 O446 1.966 1_545 S
Co443 N452 2.022 . S
Co443 N460 1.993 . S
Co443 O468 1.941 . S
C444 O445 1.258 . S
C444 O446 1.263 . S
O445 Co442 1.970 1_565 S
O445 C444 1.258 . S
O446 Co443 1.966 1_565 S
O446 C444 1.263 . S
C447 O448 1.235 1_545 S
C447 O474 1.289 . S
O448 C447 1.235 1_565 S
C449 C451 1.400 . S
C449 N452 1.351 . S
C449 C454 1.501 1_545 S
C450 C451 1.387 . S
C450 N453 1.341 . S
C451 C449 1.400 . S
C451 C450 1.387 . S
N452 Co443 2.022 . S
N452 C449 1.351 . S
N452 N453 1.365 . S
N453 C450 1.341 . S
N453 N452 1.365 . S
N453 H473 0.862 . S
C454 C449 1.501 1_565 S
C454 H455 0.961 . S
C454 H456 0.961 . S
C454 H457 0.960 . S
H455 C454 0.961 . S
H456 C454 0.961 . S
H457 C454 0.960 . S
C458 N459 1.342 . S
C458 C462 1.401 . S
C458 C463 1.499 . S
N459 Co442 1.989 . S
N459 C458 1.342 . S
N459 N460 1.388 . S
N460 Co443 1.993 . S
N460 N459 1.388 . S
N460 C461 1.346 . S
C461 N460 1.346 . S
C461 C462 1.396 . S
C461 C471 1.510 . S
C462 C458 1.401 . S
C462 C461 1.396 . S
C463 C458 1.499 . S
C463 H464 0.959 . S
C463 H465 0.960 . S
C463 H466 0.961 . S
H464 C463 0.959 . S
H465 C463 0.960 . S
H466 C463 0.961 . S
O467 Co442 1.967 . S
O467 C475 1.258 . S
O468 Co443 1.941 . S
O468 C475 1.266 . S
H469 C471 0.959 . S
H470 C471 0.961 . S
C471 C461 1.510 . S
C471 H469 0.959 . S
C471 H470 0.961 . S
C471 H472 0.960 . S
H472 C471 0.960 . S
H473 N453 0.862 . S
O474 Co442 1.920 . S
O474 C447 1.289 . S
C475 O467 1.258 . S
C475 O468 1.266 . S
Co476 O479 1.970 . S
Co476 N493 1.989 . S
Co476 O501 1.967 . S
Co476 O508 1.920 . S
Co477 O480 1.966 . S
Co477 N486 2.022 . S
Co477 N494 1.993 . S
Co477 O502 1.941 . S
C478 O479 1.258 . S
C478 O480 1.263 . S
O479 Co476 1.970 . S
O479 C478 1.258 . S
O480 Co477 1.966 . S
O480 C478 1.263 . S
C481 O482 1.235 . S
C481 O508 1.289 . S
O482 C481 1.235 . S
C483 C485 1.400 . S
C483 N486 1.351 . S
C483 C488 1.501 . S
C484 C485 1.387 . S
C484 N487 1.341 . S
C485 C483 1.400 . S
C485 C484 1.387 . S
N486 Co477 2.022 . S
N486 C483 1.351 . S
N486 N487 1.365 . S
N487 C484 1.341 . S
N487 N486 1.365 . S
N487 H507 0.862 . S
C488 C483 1.501 . S
C488 H489 0.961 . S
C488 H490 0.961 . S
C488 H491 0.960 . S
H489 C488 0.961 . S
H490 C488 0.961 . S
H491 C488 0.960 . S
C492 N493 1.342 . S
C492 C496 1.401 . S
C492 C497 1.499 . S
N493 Co476 1.989 . S
N493 C492 1.342 . S
N493 N494 1.388 . S
N494 Co477 1.993 . S
N494 N493 1.388 . S
N494 C495 1.346 . S
C495 N494 1.346 . S
C495 C496 1.396 . S
C495 C505 1.510 . S
C496 C492 1.401 . S
C496 C495 1.396 . S
C497 C492 1.499 . S
C497 H498 0.959 . S
C497 H499 0.960 . S
C497 H500 0.961 . S
H498 C497 0.959 . S
H499 C497 0.960 . S
H500 C497 0.961 . S
O501 Co476 1.967 . S
O501 C509 1.258 . S
O502 Co477 1.941 . S
O502 C509 1.266 . S
H503 C505 0.959 . S
H504 C505 0.961 . S
C505 C495 1.510 . S
C505 H503 0.959 . S
C505 H504 0.961 . S
C505 H506 0.960 . S
H506 C505 0.960 . S
H507 N487 0.862 . S
O508 Co476 1.920 . S
O508 C481 1.289 . S
C509 O501 1.258 . S
C509 O502 1.266 . S
Co510 O513 1.970 1_565 S
Co510 N527 1.989 . S
Co510 O535 1.967 . S
Co510 O542 1.920 . S
Co511 O514 1.966 1_565 S
Co511 N520 2.022 . S
Co511 N528 1.993 . S
Co511 O536 1.941 . S
C512 O513 1.258 . S
C512 O514 1.263 . S
O513 Co510 1.970 1_545 S
O513 C512 1.258 . S
O514 Co511 1.966 1_545 S
O514 C512 1.263 . S
C515 O516 1.235 1_565 S
C515 O542 1.289 . S
O516 C515 1.235 1_545 S
C517 C519 1.400 . S
C517 N520 1.351 . S
C517 C522 1.501 1_565 S
C518 C519 1.387 . S
C518 N521 1.341 . S
C519 C517 1.400 . S
C519 C518 1.387 . S
N520 Co511 2.022 . S
N520 C517 1.351 . S
N520 N521 1.365 . S
N521 C518 1.341 . S
N521 N520 1.365 . S
N521 H541 0.862 . S
C522 C517 1.501 1_545 S
C522 H523 0.961 . S
C522 H524 0.961 . S
C522 H525 0.960 . S
H523 C522 0.961 . S
H524 C522 0.961 . S
H525 C522 0.960 . S
C526 N527 1.342 . S
C526 C530 1.401 . S
C526 C531 1.499 . S
N527 Co510 1.989 . S
N527 C526 1.342 . S
N527 N528 1.388 . S
N528 Co511 1.993 . S
N528 N527 1.388 . S
N528 C529 1.346 . S
C529 N528 1.346 . S
C529 C530 1.396 . S
C529 C539 1.510 . S
C530 C526 1.401 . S
C530 C529 1.396 . S
C531 C526 1.499 . S
C531 H532 0.959 . S
C531 H533 0.960 . S
C531 H534 0.961 . S
H532 C531 0.959 . S
H533 C531 0.960 . S
H534 C531 0.961 . S
O535 Co510 1.967 . S
O535 C543 1.258 . S
O536 Co511 1.941 . S
O536 C543 1.266 . S
H537 C539 0.959 . S
H538 C539 0.961 . S
C539 C529 1.510 . S
C539 H537 0.959 . S
C539 H538 0.961 . S
C539 H540 0.960 . S
H540 C539 0.960 . S
H541 N521 0.862 . S
O542 Co510 1.920 . S
O542 C515 1.289 . S
C543 O535 1.258 . S
C543 O536 1.266 . S
Co544 O547 1.970 . S
Co544 N561 1.989 . S
Co544 O569 1.967 . S
Co544 O576 1.920 . S
Co545 O548 1.966 . S
Co545 N554 2.022 . S
Co545 N562 1.993 . S
Co545 O570 1.941 . S
C546 O547 1.258 . S
C546 O548 1.263 . S
O547 Co544 1.970 . S
O547 C546 1.258 . S
O548 Co545 1.966 . S
O548 C546 1.263 . S
C549 O550 1.235 . S
C549 O576 1.289 . S
O550 C549 1.235 . S
C551 C553 1.400 . S
C551 N554 1.351 . S
C551 C556 1.501 . S
C552 C553 1.387 . S
C552 N555 1.341 . S
C553 C551 1.400 . S
C553 C552 1.387 . S
N554 Co545 2.022 . S
N554 C551 1.351 . S
N554 N555 1.365 . S
N555 C552 1.341 . S
N555 N554 1.365 . S
N555 H575 0.862 . S
C556 C551 1.501 . S
C556 H557 0.961 . S
C556 H558 0.961 . S
C556 H559 0.960 . S
H557 C556 0.961 . S
H558 C556 0.961 . S
H559 C556 0.960 . S
C560 N561 1.342 . S
C560 C564 1.401 . S
C560 C565 1.499 . S
N561 Co544 1.989 . S
N561 C560 1.342 . S
N561 N562 1.388 . S
N562 Co545 1.993 . S
N562 N561 1.388 . S
N562 C563 1.346 . S
C563 N562 1.346 . S
C563 C564 1.396 . S
C563 C573 1.510 . S
C564 C560 1.401 . S
C564 C563 1.396 . S
C565 C560 1.499 . S
C565 H566 0.959 . S
C565 H567 0.960 . S
C565 H568 0.961 . S
H566 C565 0.959 . S
H567 C565 0.960 . S
H568 C565 0.961 . S
O569 Co544 1.967 . S
O569 C577 1.258 . S
O570 Co545 1.941 . S
O570 C577 1.266 . S
H571 C573 0.959 . S
H572 C573 0.961 . S
C573 C563 1.510 . S
C573 H571 0.959 . S
C573 H572 0.961 . S
C573 H574 0.960 . S
H574 C573 0.960 . S
H575 N555 0.862 . S
O576 Co544 1.920 . S
O576 C549 1.289 . S
C577 O569 1.258 . S
C577 O570 1.266 . S
Co578 O581 1.970 . S
Co578 N595 1.989 . S
Co578 O603 1.967 . S
Co578 O610 1.920 . S
Co579 O582 1.966 . S
Co579 N588 2.022 . S
Co579 N596 1.993 . S
Co579 O604 1.941 . S
C580 O581 1.258 . S
C580 O582 1.263 . S
O581 Co578 1.970 . S
O581 C580 1.258 . S
O582 Co579 1.966 . S
O582 C580 1.263 . S
C583 O584 1.235 . S
C583 O610 1.289 . S
O584 C583 1.235 . S
C585 C587 1.400 . S
C585 N588 1.351 . S
C585 C590 1.501 . S
C586 C587 1.387 . S
C586 N589 1.341 . S
C587 C585 1.400 . S
C587 C586 1.387 . S
N588 Co579 2.022 . S
N588 C585 1.351 . S
N588 N589 1.365 . S
N589 C586 1.341 . S
N589 N588 1.365 . S
N589 H609 0.862 . S
C590 C585 1.501 . S
C590 H591 0.961 . S
C590 H592 0.961 . S
C590 H593 0.960 . S
H591 C590 0.961 . S
H592 C590 0.961 . S
H593 C590 0.960 . S
C594 N595 1.342 . S
C594 C598 1.401 . S
C594 C599 1.499 . S
N595 Co578 1.989 . S
N595 C594 1.342 . S
N595 N596 1.388 . S
N596 Co579 1.993 . S
N596 N595 1.388 . S
N596 C597 1.346 . S
C597 N596 1.346 . S
C597 C598 1.396 . S
C597 C607 1.510 . S
C598 C594 1.401 . S
C598 C597 1.396 . S
C599 C594 1.499 . S
C599 H600 0.959 . S
C599 H601 0.960 . S
C599 H602 0.961 . S
H600 C599 0.959 . S
H601 C599 0.960 . S
H602 C599 0.961 . S
O603 Co578 1.967 . S
O603 C611 1.258 . S
O604 Co579 1.941 . S
O604 C611 1.266 . S
H605 C607 0.959 . S
H606 C607 0.961 . S
C607 C597 1.510 . S
C607 H605 0.959 . S
C607 H606 0.961 . S
C607 H608 0.960 . S
H608 C607 0.960 . S
H609 N589 0.862 . S
O610 Co578 1.920 . S
O610 C583 1.289 . S
C611 O603 1.258 . S
C611 O604 1.266 . S
Co612 O615 1.970 . S
Co612 N629 1.989 . S
Co612 O637 1.967 . S
Co612 O644 1.920 . S
Co613 O616 1.966 . S
Co613 N622 2.022 . S
Co613 N630 1.993 . S
Co613 O638 1.941 . S
C614 O615 1.258 . S
C614 O616 1.263 . S
O615 Co612 1.970 . S
O615 C614 1.258 . S
O616 Co613 1.966 . S
O616 C614 1.263 . S
C617 O618 1.235 . S
C617 O644 1.289 . S
O618 C617 1.235 . S
C619 C621 1.400 . S
C619 N622 1.351 1_556 S
C619 C624 1.501 . S
C620 C621 1.387 . S
C620 N623 1.341 . S
C621 C619 1.400 . S
C621 C620 1.387 . S
N622 Co613 2.022 . S
N622 C619 1.351 1_554 S
N622 N623 1.365 1_554 S
N623 C620 1.341 . S
N623 N622 1.365 1_556 S
N623 H643 0.862 . S
C624 C619 1.501 . S
C624 H625 0.961 1_556 S
C624 H626 0.961 . S
C624 H627 0.960 . S
H625 C624 0.961 1_554 S
H626 C624 0.961 . S
H627 C624 0.960 . S
C628 N629 1.342 . S
C628 C632 1.401 . S
C628 C633 1.499 . S
N629 Co612 1.989 . S
N629 C628 1.342 . S
N629 N630 1.388 . S
N630 Co613 1.993 . S
N630 N629 1.388 . S
N630 C631 1.346 . S
C631 N630 1.346 . S
C631 C632 1.396 . S
C631 C641 1.510 . S
C632 C628 1.401 . S
C632 C631 1.396 . S
C633 C628 1.499 . S
C633 H634 0.959 . S
C633 H635 0.960 . S
C633 H636 0.961 . S
H634 C633 0.959 . S
H635 C633 0.960 . S
H636 C633 0.961 . S
O637 Co612 1.967 . S
O637 C645 1.258 . S
O638 Co613 1.941 . S
O638 C645 1.266 . S
H639 C641 0.959 1_556 S
H640 C641 0.958 1_556 S
C641 C631 1.510 . S
C641 H639 0.959 1_554 S
C641 H640 0.958 1_554 S
C641 H642 0.961 . S
H642 C641 0.961 . S
H643 N623 0.862 . S
O644 Co612 1.920 . S
O644 C617 1.289 . S
C645 O637 1.258 . S
C645 O638 1.266 . S
Co646 O649 1.970 . S
Co646 N663 1.989 . S
Co646 O671 1.967 . S
Co646 O678 1.920 . S
Co647 O650 1.966 . S
Co647 N656 2.022 . S
Co647 N664 1.993 . S
Co647 O672 1.941 . S
C648 O649 1.258 . S
C648 O650 1.263 . S
O649 Co646 1.970 . S
O649 C648 1.258 . S
O650 Co647 1.966 . S
O650 C648 1.263 . S
C651 O652 1.235 . S
C651 O678 1.289 . S
O652 C651 1.235 . S
C653 C655 1.400 . S
C653 N656 1.351 . S
C653 C658 1.501 . S
C654 C655 1.387 . S
C654 N657 1.341 . S
C655 C653 1.400 . S
C655 C654 1.387 . S
N656 Co647 2.022 . S
N656 C653 1.351 . S
N656 N657 1.365 . S
N657 C654 1.341 . S
N657 N656 1.365 . S
N657 H677 0.862 . S
C658 C653 1.501 . S
C658 H659 0.961 . S
C658 H660 0.961 . S
C658 H661 0.960 . S
H659 C658 0.961 . S
H660 C658 0.961 . S
H661 C658 0.960 . S
C662 N663 1.342 . S
C662 C666 1.401 . S
C662 C667 1.499 . S
N663 Co646 1.989 . S
N663 C662 1.342 . S
N663 N664 1.388 . S
N664 Co647 1.993 . S
N664 N663 1.388 . S
N664 C665 1.346 . S
C665 N664 1.346 . S
C665 C666 1.396 . S
C665 C675 1.510 . S
C666 C662 1.401 . S
C666 C665 1.396 . S
C667 C662 1.499 . S
C667 H668 0.959 . S
C667 H669 0.960 . S
C667 H670 0.961 . S
H668 C667 0.959 . S
H669 C667 0.960 . S
H670 C667 0.961 . S
O671 Co646 1.967 . S
O671 C679 1.258 . S
O672 Co647 1.941 . S
O672 C679 1.266 . S
H673 C675 0.959 . S
H674 C675 0.961 . S
C675 C665 1.510 . S
C675 H673 0.959 . S
C675 H674 0.961 . S
C675 H676 0.960 . S
H676 C675 0.960 . S
H677 N657 0.862 . S
O678 Co646 1.920 . S
O678 C651 1.289 . S
C679 O671 1.258 . S
C679 O672 1.266 . S
Co680 O683 1.970 . S
Co680 N697 1.989 . S
Co680 O705 1.967 . S
Co680 O712 1.920 . S
Co681 O684 1.966 . S
Co681 N690 2.022 . S
Co681 N698 1.993 . S
Co681 O706 1.941 . S
C682 O683 1.258 . S
C682 O684 1.263 . S
O683 Co680 1.970 . S
O683 C682 1.258 . S
O684 Co681 1.966 . S
O684 C682 1.263 . S
C685 O686 1.235 . S
C685 O712 1.289 . S
O686 C685 1.235 . S
C687 C689 1.400 . S
C687 N690 1.351 . S
C687 C692 1.501 . S
C688 C689 1.387 . S
C688 N691 1.341 . S
C689 C687 1.400 . S
C689 C688 1.387 . S
N690 Co681 2.022 . S
N690 C687 1.351 . S
N690 N691 1.365 . S
N691 C688 1.341 . S
N691 N690 1.365 . S
N691 H711 0.862 . S
C692 C687 1.501 . S
C692 H693 0.961 . S
C692 H694 0.961 . S
C692 H695 0.960 . S
H693 C692 0.961 . S
H694 C692 0.961 . S
H695 C692 0.960 . S
C696 N697 1.342 . S
C696 C700 1.401 . S
C696 C701 1.499 . S
N697 Co680 1.989 . S
N697 C696 1.342 . S
N697 N698 1.388 . S
N698 Co681 1.993 . S
N698 N697 1.388 . S
N698 C699 1.346 . S
C699 N698 1.346 . S
C699 C700 1.396 . S
C699 C709 1.510 . S
C700 C696 1.401 . S
C700 C699 1.396 . S
C701 C696 1.499 . S
C701 H702 0.959 . S
C701 H703 0.960 . S
C701 H704 0.961 . S
H702 C701 0.959 . S
H703 C701 0.960 . S
H704 C701 0.961 . S
O705 Co680 1.967 . S
O705 C713 1.258 . S
O706 Co681 1.941 . S
O706 C713 1.266 . S
H707 C709 0.959 . S
H708 C709 0.961 . S
C709 C699 1.510 . S
C709 H707 0.959 . S
C709 H708 0.961 . S
C709 H710 0.960 . S
H710 C709 0.960 . S
H711 N691 0.862 . S
O712 Co680 1.920 . S
O712 C685 1.289 . S
C713 O705 1.258 . S
C713 O706 1.266 . S
Co714 O717 1.970 . S
Co714 N731 1.989 . S
Co714 O739 1.967 . S
Co714 O746 1.920 . S
Co715 O718 1.966 . S
Co715 N724 2.022 . S
Co715 N732 1.993 . S
Co715 O740 1.941 . S
C716 O717 1.258 . S
C716 O718 1.263 . S
O717 Co714 1.970 . S
O717 C716 1.258 . S
O718 Co715 1.966 . S
O718 C716 1.263 . S
C719 O720 1.235 . S
C719 O746 1.289 . S
O720 C719 1.235 . S
C721 C723 1.400 . S
C721 N724 1.351 . S
C721 C726 1.501 . S
C722 C723 1.387 . S
C722 N725 1.341 . S
C723 C721 1.400 . S
C723 C722 1.387 . S
N724 Co715 2.022 . S
N724 C721 1.351 . S
N724 N725 1.365 . S
N725 C722 1.341 . S
N725 N724 1.365 . S
N725 H745 0.862 . S
C726 C721 1.501 . S
C726 H727 0.961 . S
C726 H728 0.961 . S
C726 H729 0.960 . S
H727 C726 0.961 . S
H728 C726 0.961 . S
H729 C726 0.960 . S
C730 N731 1.342 . S
C730 C734 1.401 . S
C730 C735 1.499 . S
N731 Co714 1.989 . S
N731 C730 1.342 . S
N731 N732 1.388 . S
N732 Co715 1.993 . S
N732 N731 1.388 . S
N732 C733 1.346 . S
C733 N732 1.346 . S
C733 C734 1.396 . S
C733 C743 1.510 . S
C734 C730 1.401 . S
C734 C733 1.396 . S
C735 C730 1.499 . S
C735 H736 0.959 . S
C735 H737 0.960 . S
C735 H738 0.961 . S
H736 C735 0.959 . S
H737 C735 0.960 . S
H738 C735 0.961 . S
O739 Co714 1.967 . S
O739 C747 1.258 . S
O740 Co715 1.941 . S
O740 C747 1.266 . S
H741 C743 0.959 . S
H742 C743 0.961 . S
C743 C733 1.510 . S
C743 H741 0.959 . S
C743 H742 0.961 . S
C743 H744 0.960 . S
H744 C743 0.960 . S
H745 N725 0.862 . S
O746 Co714 1.920 . S
O746 C719 1.289 . S
C747 O739 1.258 . S
C747 O740 1.266 . S
Co748 O751 1.970 . S
Co748 N765 1.989 . S
Co748 O773 1.967 . S
Co748 O780 1.920 . S
Co749 O752 1.966 . S
Co749 N758 2.022 . S
Co749 N766 1.993 . S
Co749 O774 1.941 . S
C750 O751 1.258 . S
C750 O752 1.263 . S
O751 Co748 1.970 . S
O751 C750 1.258 . S
O752 Co749 1.966 . S
O752 C750 1.263 . S
C753 O754 1.235 . S
C753 O780 1.289 . S
O754 C753 1.235 . S
C755 C757 1.400 . S
C755 N758 1.351 1_554 S
C755 C760 1.501 . S
C756 C757 1.387 . S
C756 N759 1.341 . S
C757 C755 1.400 . S
C757 C756 1.387 . S
N758 Co749 2.022 . S
N758 C755 1.351 1_556 S
N758 N759 1.365 1_556 S
N759 C756 1.341 . S
N759 N758 1.365 1_554 S
N759 H779 0.862 . S
C760 C755 1.501 . S
C760 H761 0.961 1_554 S
C760 H762 0.961 . S
C760 H763 0.960 . S
H761 C760 0.961 1_556 S
H762 C760 0.961 . S
H763 C760 0.960 . S
C764 N765 1.342 . S
C764 C768 1.401 . S
C764 C769 1.499 . S
N765 Co748 1.989 . S
N765 C764 1.342 . S
N765 N766 1.388 . S
N766 Co749 1.993 . S
N766 N765 1.388 . S
N766 C767 1.346 . S
C767 N766 1.346 . S
C767 C768 1.396 . S
C767 C777 1.510 . S
C768 C764 1.401 . S
C768 C767 1.396 . S
C769 C764 1.499 . S
C769 H770 0.959 . S
C769 H771 0.960 . S
C769 H772 0.961 . S
H770 C769 0.959 . S
H771 C769 0.960 . S
H772 C769 0.961 . S
O773 Co748 1.967 . S
O773 C781 1.258 . S
O774 Co749 1.941 . S
O774 C781 1.266 . S
H775 C777 0.959 1_554 S
H776 C777 0.958 1_554 S
C777 C767 1.510 . S
C777 H775 0.959 1_556 S
C777 H776 0.958 1_556 S
C777 H778 0.961 . S
H778 C777 0.961 . S
H779 N759 0.862 . S
O780 Co748 1.920 . S
O780 C753 1.289 . S
C781 O773 1.258 . S
C781 O774 1.266 . S
Co782 O785 1.970 . S
Co782 N799 1.989 . S
Co782 O807 1.967 . S
Co782 O814 1.920 . S
Co783 O786 1.966 . S
Co783 N792 2.022 . S
Co783 N800 1.993 . S
Co783 O808 1.941 . S
C784 O785 1.258 . S
C784 O786 1.263 . S
O785 Co782 1.970 . S
O785 C784 1.258 . S
O786 Co783 1.966 . S
O786 C784 1.263 . S
C787 O788 1.235 . S
C787 O814 1.289 . S
O788 C787 1.235 . S
C789 C791 1.400 . S
C789 N792 1.351 . S
C789 C794 1.501 . S
C790 C791 1.387 . S
C790 N793 1.341 . S
C791 C789 1.400 . S
C791 C790 1.387 . S
N792 Co783 2.022 . S
N792 C789 1.351 . S
N792 N793 1.365 . S
N793 C790 1.341 . S
N793 N792 1.365 . S
N793 H813 0.862 . S
C794 C789 1.501 . S
C794 H795 0.961 . S
C794 H796 0.961 . S
C794 H797 0.960 . S
H795 C794 0.961 . S
H796 C794 0.961 . S
H797 C794 0.960 . S
C798 N799 1.342 . S
C798 C802 1.401 . S
C798 C803 1.499 . S
N799 Co782 1.989 . S
N799 C798 1.342 . S
N799 N800 1.388 . S
N800 Co783 1.993 . S
N800 N799 1.388 . S
N800 C801 1.346 . S
C801 N800 1.346 . S
C801 C802 1.396 . S
C801 C811 1.510 . S
C802 C798 1.401 . S
C802 C801 1.396 . S
C803 C798 1.499 . S
C803 H804 0.959 . S
C803 H805 0.960 . S
C803 H806 0.961 . S
H804 C803 0.959 . S
H805 C803 0.960 . S
H806 C803 0.961 . S
O807 Co782 1.967 . S
O807 C815 1.258 . S
O808 Co783 1.941 . S
O808 C815 1.266 . S
H809 C811 0.959 . S
H810 C811 0.961 . S
C811 C801 1.510 . S
C811 H809 0.959 . S
C811 H810 0.961 . S
C811 H812 0.960 . S
H812 C811 0.960 . S
H813 N793 0.862 . S
O814 Co782 1.920 . S
O814 C787 1.289 . S
C815 O807 1.258 . S
C815 O808 1.266 . S
Co816 O819 1.970 . S
Co816 N833 1.989 . S
Co816 O841 1.967 . S
Co816 O848 1.920 . S
Co817 O820 1.966 . S
Co817 N826 2.022 . S
Co817 N834 1.993 . S
Co817 O842 1.941 . S
C818 O819 1.258 . S
C818 O820 1.263 . S
O819 Co816 1.970 . S
O819 C818 1.258 . S
O820 Co817 1.966 . S
O820 C818 1.263 . S
C821 O822 1.235 . S
C821 O848 1.289 . S
O822 C821 1.235 . S
C823 C825 1.400 . S
C823 N826 1.351 . S
C823 C828 1.501 . S
C824 C825 1.387 . S
C824 N827 1.341 . S
C825 C823 1.400 . S
C825 C824 1.387 . S
N826 Co817 2.022 . S
N826 C823 1.351 . S
N826 N827 1.365 . S
N827 C824 1.341 . S
N827 N826 1.365 . S
N827 H847 0.862 . S
C828 C823 1.501 . S
C828 H829 0.961 . S
C828 H830 0.961 . S
C828 H831 0.960 . S
H829 C828 0.961 . S
H830 C828 0.961 . S
H831 C828 0.960 . S
C832 N833 1.342 . S
C832 C836 1.401 . S
C832 C837 1.499 . S
N833 Co816 1.989 . S
N833 C832 1.342 . S
N833 N834 1.388 . S
N834 Co817 1.993 . S
N834 N833 1.388 . S
N834 C835 1.346 . S
C835 N834 1.346 . S
C835 C836 1.396 . S
C835 C845 1.510 . S
C836 C832 1.401 . S
C836 C835 1.396 . S
C837 C832 1.499 . S
C837 H838 0.959 . S
C837 H839 0.960 . S
C837 H840 0.961 . S
H838 C837 0.959 . S
H839 C837 0.960 . S
H840 C837 0.961 . S
O841 Co816 1.967 . S
O841 C849 1.258 . S
O842 Co817 1.941 . S
O842 C849 1.266 . S
H843 C845 0.959 . S
H844 C845 0.961 . S
C845 C835 1.510 . S
C845 H843 0.959 . S
C845 H844 0.961 . S
C845 H846 0.960 . S
H846 C845 0.960 . S
H847 N827 0.862 . S
O848 Co816 1.920 . S
O848 C821 1.289 . S
C849 O841 1.258 . S
C849 O842 1.266 . S
Co850 O853 1.970 . S
Co850 N867 1.989 . S
Co850 O875 1.967 . S
Co850 O882 1.920 . S
Co851 O854 1.966 . S
Co851 N860 2.022 . S
Co851 N868 1.993 . S
Co851 O876 1.941 . S
C852 O853 1.258 . S
C852 O854 1.263 . S
O853 Co850 1.970 . S
O853 C852 1.258 . S
O854 Co851 1.966 . S
O854 C852 1.263 . S
C855 O856 1.235 . S
C855 O882 1.289 . S
O856 C855 1.235 . S
C857 C859 1.400 . S
C857 N860 1.351 . S
C857 C862 1.501 . S
C858 C859 1.387 . S
C858 N861 1.341 . S
C859 C857 1.400 . S
C859 C858 1.387 . S
N860 Co851 2.022 . S
N860 C857 1.351 . S
N860 N861 1.365 . S
N861 C858 1.341 . S
N861 N860 1.365 . S
N861 H881 0.862 . S
C862 C857 1.501 . S
C862 H863 0.961 . S
C862 H864 0.961 . S
C862 H865 0.960 . S
H863 C862 0.961 . S
H864 C862 0.961 . S
H865 C862 0.960 . S
C866 N867 1.342 . S
C866 C870 1.401 . S
C866 C871 1.499 . S
N867 Co850 1.989 . S
N867 C866 1.342 . S
N867 N868 1.388 . S
N868 Co851 1.993 . S
N868 N867 1.388 . S
N868 C869 1.346 . S
C869 N868 1.346 . S
C869 C870 1.396 . S
C869 C879 1.510 . S
C870 C866 1.401 . S
C870 C869 1.396 . S
C871 C866 1.499 . S
C871 H872 0.959 . S
C871 H873 0.960 . S
C871 H874 0.961 . S
H872 C871 0.959 . S
H873 C871 0.960 . S
H874 C871 0.961 . S
O875 Co850 1.967 . S
O875 C883 1.258 . S
O876 Co851 1.941 . S
O876 C883 1.266 . S
H877 C879 0.959 . S
H878 C879 0.961 . S
C879 C869 1.510 . S
C879 H877 0.959 . S
C879 H878 0.961 . S
C879 H880 0.960 . S
H880 C879 0.960 . S
H881 N861 0.862 . S
O882 Co850 1.920 . S
O882 C855 1.289 . S
C883 O875 1.258 . S
C883 O876 1.266 . S
Co884 O887 1.970 . S
Co884 N901 1.989 . S
Co884 O909 1.967 . S
Co884 O916 1.920 . S
Co885 O888 1.966 . S
Co885 N894 2.022 . S
Co885 N902 1.993 . S
Co885 O910 1.941 . S
C886 O887 1.258 . S
C886 O888 1.263 . S
O887 Co884 1.970 . S
O887 C886 1.258 . S
O888 Co885 1.966 . S
O888 C886 1.263 . S
C889 O890 1.235 . S
C889 O916 1.289 . S
O890 C889 1.235 . S
C891 C893 1.400 . S
C891 N894 1.351 1_554 S
C891 C896 1.501 . S
C892 C893 1.387 . S
C892 N895 1.341 . S
C893 C891 1.400 . S
C893 C892 1.387 . S
N894 Co885 2.022 . S
N894 C891 1.351 1_556 S
N894 N895 1.365 1_556 S
N895 C892 1.341 . S
N895 N894 1.365 1_554 S
N895 H915 0.862 . S
C896 C891 1.501 . S
C896 H897 0.961 1_554 S
C896 H898 0.961 . S
C896 H899 0.960 . S
H897 C896 0.961 1_556 S
H898 C896 0.961 . S
H899 C896 0.960 . S
C900 N901 1.342 . S
C900 C904 1.401 . S
C900 C905 1.499 . S
N901 Co884 1.989 . S
N901 C900 1.342 . S
N901 N902 1.388 . S
N902 Co885 1.993 . S
N902 N901 1.388 . S
N902 C903 1.346 . S
C903 N902 1.346 . S
C903 C904 1.396 . S
C903 C913 1.510 . S
C904 C900 1.401 . S
C904 C903 1.396 . S
C905 C900 1.499 . S
C905 H906 0.959 . S
C905 H907 0.960 . S
C905 H908 0.961 . S
H906 C905 0.959 . S
H907 C905 0.960 . S
H908 C905 0.961 . S
O909 Co884 1.967 . S
O909 C917 1.258 . S
O910 Co885 1.941 . S
O910 C917 1.266 . S
H911 C913 0.959 1_554 S
H912 C913 0.958 1_554 S
C913 C903 1.510 . S
C913 H911 0.959 1_556 S
C913 H912 0.958 1_556 S
C913 H914 0.961 . S
H914 C913 0.961 . S
H915 N895 0.862 . S
O916 Co884 1.920 . S
O916 C889 1.289 . S
C917 O909 1.258 . S
C917 O910 1.266 . S
Co918 O921 1.970 . S
Co918 N935 1.989 . S
Co918 O943 1.967 . S
Co918 O950 1.920 . S
Co919 O922 1.966 . S
Co919 N928 2.022 . S
Co919 N936 1.993 . S
Co919 O944 1.941 . S
C920 O921 1.258 . S
C920 O922 1.263 . S
O921 Co918 1.970 . S
O921 C920 1.258 . S
O922 Co919 1.966 . S
O922 C920 1.263 . S
C923 O924 1.235 . S
C923 O950 1.289 . S
O924 C923 1.235 . S
C925 C927 1.400 . S
C925 N928 1.351 . S
C925 C930 1.501 . S
C926 C927 1.387 . S
C926 N929 1.341 . S
C927 C925 1.400 . S
C927 C926 1.387 . S
N928 Co919 2.022 . S
N928 C925 1.351 . S
N928 N929 1.365 . S
N929 C926 1.341 . S
N929 N928 1.365 . S
N929 H949 0.862 . S
C930 C925 1.501 . S
C930 H931 0.961 . S
C930 H932 0.961 . S
C930 H933 0.960 . S
H931 C930 0.961 . S
H932 C930 0.961 . S
H933 C930 0.960 . S
C934 N935 1.342 . S
C934 C938 1.401 . S
C934 C939 1.499 . S
N935 Co918 1.989 . S
N935 C934 1.342 . S
N935 N936 1.388 . S
N936 Co919 1.993 . S
N936 N935 1.388 . S
N936 C937 1.346 . S
C937 N936 1.346 . S
C937 C938 1.396 . S
C937 C947 1.510 . S
C938 C934 1.401 . S
C938 C937 1.396 . S
C939 C934 1.499 . S
C939 H940 0.959 . S
C939 H941 0.960 . S
C939 H942 0.961 . S
H940 C939 0.959 . S
H941 C939 0.960 . S
H942 C939 0.961 . S
O943 Co918 1.967 . S
O943 C951 1.258 . S
O944 Co919 1.941 . S
O944 C951 1.266 . S
H945 C947 0.959 . S
H946 C947 0.961 . S
C947 C937 1.510 . S
C947 H945 0.959 . S
C947 H946 0.961 . S
C947 H948 0.960 . S
H948 C947 0.960 . S
H949 N929 0.862 . S
O950 Co918 1.920 . S
O950 C923 1.289 . S
C951 O943 1.258 . S
C951 O944 1.266 . S
Co952 O955 1.970 . S
Co952 N969 1.989 . S
Co952 O977 1.967 . S
Co952 O984 1.920 . S
Co953 O956 1.966 . S
Co953 N962 2.022 . S
Co953 N970 1.993 . S
Co953 O978 1.941 . S
C954 O955 1.258 . S
C954 O956 1.263 . S
O955 Co952 1.970 . S
O955 C954 1.258 . S
O956 Co953 1.966 . S
O956 C954 1.263 . S
C957 O958 1.235 . S
C957 O984 1.289 . S
O958 C957 1.235 . S
C959 C961 1.400 . S
C959 N962 1.351 . S
C959 C964 1.501 . S
C960 C961 1.387 . S
C960 N963 1.341 . S
C961 C959 1.400 . S
C961 C960 1.387 . S
N962 Co953 2.022 . S
N962 C959 1.351 . S
N962 N963 1.365 . S
N963 C960 1.341 . S
N963 N962 1.365 . S
N963 H983 0.862 . S
C964 C959 1.501 . S
C964 H965 0.961 . S
C964 H966 0.961 . S
C964 H967 0.960 . S
H965 C964 0.961 . S
H966 C964 0.961 . S
H967 C964 0.960 . S
C968 N969 1.342 . S
C968 C972 1.401 . S
C968 C973 1.499 . S
N969 Co952 1.989 . S
N969 C968 1.342 . S
N969 N970 1.388 . S
N970 Co953 1.993 . S
N970 N969 1.388 . S
N970 C971 1.346 . S
C971 N970 1.346 . S
C971 C972 1.396 . S
C971 C981 1.510 . S
C972 C968 1.401 . S
C972 C971 1.396 . S
C973 C968 1.499 . S
C973 H974 0.959 . S
C973 H975 0.960 . S
C973 H976 0.961 . S
H974 C973 0.959 . S
H975 C973 0.960 . S
H976 C973 0.961 . S
O977 Co952 1.967 . S
O977 C985 1.258 . S
O978 Co953 1.941 . S
O978 C985 1.266 . S
H979 C981 0.959 . S
H980 C981 0.961 . S
C981 C971 1.510 . S
C981 H979 0.959 . S
C981 H980 0.961 . S
C981 H982 0.960 . S
H982 C981 0.960 . S
H983 N963 0.862 . S
O984 Co952 1.920 . S
O984 C957 1.289 . S
C985 O977 1.258 . S
C985 O978 1.266 . S
Co986 O989 1.970 . S
Co986 N1003 1.989 . S
Co986 O1011 1.967 . S
Co986 O1018 1.920 . S
Co987 O990 1.966 . S
Co987 N996 2.022 . S
Co987 N1004 1.993 . S
Co987 O1012 1.941 . S
C988 O989 1.258 . S
C988 O990 1.263 . S
O989 Co986 1.970 . S
O989 C988 1.258 . S
O990 Co987 1.966 . S
O990 C988 1.263 . S
C991 O992 1.235 . S
C991 O1018 1.289 . S
O992 C991 1.235 . S
C993 C995 1.400 . S
C993 N996 1.351 . S
C993 C998 1.501 . S
C994 C995 1.387 . S
C994 N997 1.341 . S
C995 C993 1.400 . S
C995 C994 1.387 . S
N996 Co987 2.022 . S
N996 C993 1.351 . S
N996 N997 1.365 . S
N997 C994 1.341 . S
N997 N996 1.365 . S
N997 H1017 0.862 . S
C998 C993 1.501 . S
C998 H999 0.961 . S
C998 H1000 0.961 . S
C998 H1001 0.960 . S
H999 C998 0.961 . S
H1000 C998 0.961 . S
H1001 C998 0.960 . S
C1002 N1003 1.342 . S
C1002 C1006 1.401 . S
C1002 C1007 1.499 . S
N1003 Co986 1.989 . S
N1003 C1002 1.342 . S
N1003 N1004 1.388 . S
N1004 Co987 1.993 . S
N1004 N1003 1.388 . S
N1004 C1005 1.346 . S
C1005 N1004 1.346 . S
C1005 C1006 1.396 . S
C1005 C1015 1.510 . S
C1006 C1002 1.401 . S
C1006 C1005 1.396 . S
C1007 C1002 1.499 . S
C1007 H1008 0.959 . S
C1007 H1009 0.960 . S
C1007 H1010 0.961 . S
H1008 C1007 0.959 . S
H1009 C1007 0.960 . S
H1010 C1007 0.961 . S
O1011 Co986 1.967 . S
O1011 C1019 1.258 . S
O1012 Co987 1.941 . S
O1012 C1019 1.266 . S
H1013 C1015 0.959 . S
H1014 C1015 0.961 . S
C1015 C1005 1.510 . S
C1015 H1013 0.959 . S
C1015 H1014 0.961 . S
C1015 H1016 0.960 . S
H1016 C1015 0.960 . S
H1017 N997 0.862 . S
O1018 Co986 1.920 . S
O1018 C991 1.289 . S
C1019 O1011 1.258 . S
C1019 O1012 1.266 . S
Co1020 O1023 1.970 . S
Co1020 N1037 1.989 . S
Co1020 O1045 1.967 . S
Co1020 O1052 1.920 . S
Co1021 O1024 1.966 . S
Co1021 N1030 2.022 . S
Co1021 N1038 1.993 . S
Co1021 O1046 1.941 . S
C1022 O1023 1.258 . S
C1022 O1024 1.263 . S
O1023 Co1020 1.970 . S
O1023 C1022 1.258 . S
O1024 Co1021 1.966 . S
O1024 C1022 1.263 . S
C1025 O1026 1.235 . S
C1025 O1052 1.289 . S
O1026 C1025 1.235 . S
C1027 C1029 1.400 . S
C1027 N1030 1.351 1_556 S
C1027 C1032 1.501 . S
C1028 C1029 1.387 . S
C1028 N1031 1.341 . S
C1029 C1027 1.400 . S
C1029 C1028 1.387 . S
N1030 Co1021 2.022 . S
N1030 C1027 1.351 1_554 S
N1030 N1031 1.365 1_554 S
N1031 C1028 1.341 . S
N1031 N1030 1.365 1_556 S
N1031 H1051 0.862 . S
C1032 C1027 1.501 . S
C1032 H1033 0.961 1_556 S
C1032 H1034 0.961 . S
C1032 H1035 0.960 . S
H1033 C1032 0.961 1_554 S
H1034 C1032 0.961 . S
H1035 C1032 0.960 . S
C1036 N1037 1.342 . S
C1036 C1040 1.401 . S
C1036 C1041 1.499 . S
N1037 Co1020 1.989 . S
N1037 C1036 1.342 . S
N1037 N1038 1.388 . S
N1038 Co1021 1.993 . S
N1038 N1037 1.388 . S
N1038 C1039 1.346 . S
C1039 N1038 1.346 . S
C1039 C1040 1.396 . S
C1039 C1049 1.510 . S
C1040 C1036 1.401 . S
C1040 C1039 1.396 . S
C1041 C1036 1.499 . S
C1041 H1042 0.959 . S
C1041 H1043 0.960 . S
C1041 H1044 0.961 . S
H1042 C1041 0.959 . S
H1043 C1041 0.960 . S
H1044 C1041 0.961 . S
O1045 Co1020 1.967 . S
O1045 C1053 1.258 . S
O1046 Co1021 1.941 . S
O1046 C1053 1.266 . S
H1047 C1049 0.959 1_556 S
H1048 C1049 0.958 1_556 S
C1049 C1039 1.510 . S
C1049 H1047 0.959 1_554 S
C1049 H1048 0.958 1_554 S
C1049 H1050 0.961 . S
H1050 C1049 0.961 . S
H1051 N1031 0.862 . S
O1052 Co1020 1.920 . S
O1052 C1025 1.289 . S
C1053 O1045 1.258 . S
C1053 O1046 1.266 . S
Co1054 O1057 1.970 . S
Co1054 N1071 1.989 . S
Co1054 O1079 1.967 . S
Co1054 O1086 1.920 . S
Co1055 O1058 1.966 . S
Co1055 N1064 2.022 . S
Co1055 N1072 1.993 . S
Co1055 O1080 1.941 . S
C1056 O1057 1.258 . S
C1056 O1058 1.263 . S
O1057 Co1054 1.970 . S
O1057 C1056 1.258 . S
O1058 Co1055 1.966 . S
O1058 C1056 1.263 . S
C1059 O1060 1.235 . S
C1059 O1086 1.289 . S
O1060 C1059 1.235 . S
C1061 C1063 1.400 . S
C1061 N1064 1.351 . S
C1061 C1066 1.501 . S
C1062 C1063 1.387 . S
C1062 N1065 1.341 . S
C1063 C1061 1.400 . S
C1063 C1062 1.387 . S
N1064 Co1055 2.022 . S
N1064 C1061 1.351 . S
N1064 N1065 1.365 . S
N1065 C1062 1.341 . S
N1065 N1064 1.365 . S
N1065 H1085 0.862 . S
C1066 C1061 1.501 . S
C1066 H1067 0.961 . S
C1066 H1068 0.961 . S
C1066 H1069 0.960 . S
H1067 C1066 0.961 . S
H1068 C1066 0.961 . S
H1069 C1066 0.960 . S
C1070 N1071 1.342 . S
C1070 C1074 1.401 . S
C1070 C1075 1.499 . S
N1071 Co1054 1.989 . S
N1071 C1070 1.342 . S
N1071 N1072 1.388 . S
N1072 Co1055 1.993 . S
N1072 N1071 1.388 . S
N1072 C1073 1.346 . S
C1073 N1072 1.346 . S
C1073 C1074 1.396 . S
C1073 C1083 1.510 . S
C1074 C1070 1.401 . S
C1074 C1073 1.396 . S
C1075 C1070 1.499 . S
C1075 H1076 0.959 . S
C1075 H1077 0.960 . S
C1075 H1078 0.961 . S
H1076 C1075 0.959 . S
H1077 C1075 0.960 . S
H1078 C1075 0.961 . S
O1079 Co1054 1.967 . S
O1079 C1087 1.258 . S
O1080 Co1055 1.941 . S
O1080 C1087 1.266 . S
H1081 C1083 0.959 . S
H1082 C1083 0.961 . S
C1083 C1073 1.510 . S
C1083 H1081 0.959 . S
C1083 H1082 0.961 . S
C1083 H1084 0.960 . S
H1084 C1083 0.960 . S
H1085 N1065 0.862 . S
O1086 Co1054 1.920 . S
O1086 C1059 1.289 . S
C1087 O1079 1.258 . S
C1087 O1080 1.266 . S
C1088 C1089 1.369 . S
C1088 C1090 1.419 . S
C1088 H1092 0.930 . S
C1089 C1088 1.369 . S
C1089 C1098 1.429 . S
C1090 C1088 1.419 . S
C1090 C1091 1.363 . S
C1090 H1093 0.929 . S
C1091 C1090 1.363 . S
C1091 C1097 1.428 . S
H1092 C1088 0.930 . S
H1093 C1090 0.929 . S
S1094 N1095 1.613 . S
S1094 N1096 1.610 . S
N1095 S1094 1.613 . S
N1095 C1098 1.350 . S
N1096 S1094 1.610 . S
N1096 C1097 1.351 . S
C1097 C1091 1.428 . S
C1097 N1096 1.351 . S
C1097 C1098 1.434 . S
C1098 C1089 1.429 . S
C1098 N1095 1.350 . S
C1098 C1097 1.434 . S
C1099 C1100 1.369 . S
C1099 C1101 1.419 . S
C1099 H1103 0.930 . S
C1100 C1099 1.369 . S
C1100 C1109 1.429 . S
C1101 C1099 1.419 . S
C1101 C1102 1.363 . S
C1101 H1104 0.929 . S
C1102 C1101 1.363 . S
C1102 C1108 1.428 . S
H1103 C1099 0.930 . S
H1104 C1101 0.929 . S
S1105 N1106 1.613 . S
S1105 N1107 1.610 . S
N1106 S1105 1.613 . S
N1106 C1109 1.350 . S
N1107 S1105 1.610 . S
N1107 C1108 1.351 . S
C1108 C1102 1.428 . S
C1108 N1107 1.351 . S
C1108 C1109 1.434 . S
C1109 C1100 1.429 . S
C1109 N1106 1.350 . S
C1109 C1108 1.434 . S
C1110 C1111 1.369 . S
C1110 C1112 1.419 . S
C1110 H1114 0.930 . S
C1111 C1110 1.369 . S
C1111 C1120 1.429 . S
C1112 C1110 1.419 . S
C1112 C1113 1.363 . S
C1112 H1115 0.929 1_565 S
C1113 C1112 1.363 . S
C1113 C1119 1.428 . S
H1114 C1110 0.930 . S
H1115 C1112 0.929 1_545 S
S1116 N1117 1.613 . S
S1116 N1118 1.610 . S
N1117 S1116 1.613 . S
N1117 C1120 1.350 . S
N1118 S1116 1.610 . S
N1118 C1119 1.351 . S
C1119 C1113 1.428 . S
C1119 N1118 1.351 . S
C1119 C1120 1.434 . S
C1120 C1111 1.429 . S
C1120 N1117 1.350 . S
C1120 C1119 1.434 . S
C1121 C1122 1.369 . S
C1121 C1123 1.419 . S
C1121 H1125 0.930 . S
C1122 C1121 1.369 . S
C1122 C1131 1.429 . S
C1123 C1121 1.419 . S
C1123 C1124 1.363 . S
C1123 H1126 0.929 . S
C1124 C1123 1.363 . S
C1124 C1130 1.428 . S
H1125 C1121 0.930 . S
H1126 C1123 0.929 . S
S1127 N1128 1.613 . S
S1127 N1129 1.610 . S
N1128 S1127 1.613 . S
N1128 C1131 1.350 . S
N1129 S1127 1.610 . S
N1129 C1130 1.351 . S
C1130 C1124 1.428 . S
C1130 N1129 1.351 . S
C1130 C1131 1.434 . S
C1131 C1122 1.429 . S
C1131 N1128 1.350 . S
C1131 C1130 1.434 . S
C1132 C1133 1.369 . S
C1132 C1134 1.419 . S
C1132 H1136 0.930 . S
C1133 C1132 1.369 . S
C1133 C1142 1.429 . S
C1134 C1132 1.419 . S
C1134 C1135 1.363 . S
C1134 H1137 0.929 . S
C1135 C1134 1.363 . S
C1135 C1141 1.428 . S
H1136 C1132 0.930 . S
H1137 C1134 0.929 . S
S1138 N1139 1.613 . S
S1138 N1140 1.610 . S
N1139 S1138 1.613 . S
N1139 C1142 1.350 . S
N1140 S1138 1.610 . S
N1140 C1141 1.351 . S
C1141 C1135 1.428 . S
C1141 N1140 1.351 . S
C1141 C1142 1.434 . S
C1142 C1133 1.429 . S
C1142 N1139 1.350 . S
C1142 C1141 1.434 . S
C1143 C1144 1.369 . S
C1143 C1145 1.419 . S
C1143 H1147 0.930 . S
C1144 C1143 1.369 . S
C1144 C1153 1.429 . S
C1145 C1143 1.419 . S
C1145 C1146 1.363 . S
C1145 H1148 0.929 . S
C1146 C1145 1.363 . S
C1146 C1152 1.428 . S
H1147 C1143 0.930 . S
H1148 C1145 0.929 . S
S1149 N1150 1.613 . S
S1149 N1151 1.610 . S
N1150 S1149 1.613 . S
N1150 C1153 1.350 . S
N1151 S1149 1.610 . S
N1151 C1152 1.351 . S
C1152 C1146 1.428 . S
C1152 N1151 1.351 . S
C1152 C1153 1.434 . S
C1153 C1144 1.429 . S
C1153 N1150 1.350 . S
C1153 C1152 1.434 . S
C1154 C1155 1.369 . S
C1154 C1156 1.419 . S
C1154 H1158 0.930 . S
C1155 C1154 1.369 . S
C1155 C1164 1.429 . S
C1156 C1154 1.419 . S
C1156 C1157 1.363 . S
C1156 H1159 0.929 . S
C1157 C1156 1.363 . S
C1157 C1163 1.428 . S
H1158 C1154 0.930 . S
H1159 C1156 0.929 . S
S1160 N1161 1.613 . S
S1160 N1162 1.610 . S
N1161 S1160 1.613 . S
N1161 C1164 1.350 . S
N1162 S1160 1.610 . S
N1162 C1163 1.351 . S
C1163 C1157 1.428 . S
C1163 N1162 1.351 . S
C1163 C1164 1.434 . S
C1164 C1155 1.429 . S
C1164 N1161 1.350 . S
C1164 C1163 1.434 . S
C1165 C1166 1.369 . S
C1165 C1167 1.419 . S
C1165 H1169 0.930 . S
C1166 C1165 1.369 . S
C1166 C1175 1.429 . S
C1167 C1165 1.419 . S
C1167 C1168 1.363 . S
C1167 H1170 0.929 . S
C1168 C1167 1.363 . S
C1168 C1174 1.428 . S
H1169 C1165 0.930 . S
H1170 C1167 0.929 . S
S1171 N1172 1.613 . S
S1171 N1173 1.610 . S
N1172 S1171 1.613 . S
N1172 C1175 1.350 . S
N1173 S1171 1.610 . S
N1173 C1174 1.351 . S
C1174 C1168 1.428 . S
C1174 N1173 1.351 . S
C1174 C1175 1.434 . S
C1175 C1166 1.429 . S
C1175 N1172 1.350 . S
C1175 C1174 1.434 . S
C1176 C1177 1.369 . S
C1176 C1178 1.419 . S
C1176 H1180 0.930 . S
C1177 C1176 1.369 . S
C1177 C1186 1.429 . S
C1178 C1176 1.419 . S
C1178 C1179 1.363 . S
C1178 H1181 0.929 . S
C1179 C1178 1.363 . S
C1179 C1185 1.428 . S
H1180 C1176 0.930 . S
H1181 C1178 0.929 . S
S1182 N1183 1.613 . S
S1182 N1184 1.610 1_545 S
N1183 S1182 1.613 . S
N1183 C1186 1.350 1_545 S
N1184 S1182 1.610 1_565 S
N1184 C1185 1.351 . S
C1185 C1179 1.428 . S
C1185 N1184 1.351 . S
C1185 C1186 1.434 . S
C1186 C1177 1.429 . S
C1186 N1183 1.350 1_565 S
C1186 C1185 1.434 . S
C1187 C1188 1.369 . S
C1187 C1189 1.419 . S
C1187 H1191 0.930 . S
C1188 C1187 1.369 . S
C1188 C1197 1.429 . S
C1189 C1187 1.419 . S
C1189 C1190 1.363 . S
C1189 H1192 0.929 . S
C1190 C1189 1.363 . S
C1190 C1196 1.428 . S
H1191 C1187 0.930 . S
H1192 C1189 0.929 . S
S1193 N1194 1.613 . S
S1193 N1195 1.610 . S
N1194 S1193 1.613 . S
N1194 C1197 1.350 . S
N1195 S1193 1.610 . S
N1195 C1196 1.351 . S
C1196 C1190 1.428 . S
C1196 N1195 1.351 . S
C1196 C1197 1.434 . S
C1197 C1188 1.429 . S
C1197 N1194 1.350 . S
C1197 C1196 1.434 . S
C1198 C1199 1.369 . S
C1198 C1200 1.419 . S
C1198 H1202 0.930 . S
C1199 C1198 1.369 . S
C1199 C1208 1.429 . S
C1200 C1198 1.419 . S
C1200 C1201 1.363 . S
C1200 H1203 0.929 . S
C1201 C1200 1.363 . S
C1201 C1207 1.428 . S
H1202 C1198 0.930 . S
H1203 C1200 0.929 . S
S1204 N1205 1.613 . S
S1204 N1206 1.610 . S
N1205 S1204 1.613 . S
N1205 C1208 1.350 . S
N1206 S1204 1.610 . S
N1206 C1207 1.351 . S
C1207 C1201 1.428 . S
C1207 N1206 1.351 . S
C1207 C1208 1.434 . S
C1208 C1199 1.429 . S
C1208 N1205 1.350 . S
C1208 C1207 1.434 . S
C1209 C1210 1.369 . S
C1209 C1211 1.419 . S
C1209 H1213 0.930 . S
C1210 C1209 1.369 . S
C1210 C1219 1.429 . S
C1211 C1209 1.419 . S
C1211 C1212 1.363 . S
C1211 H1214 0.929 . S
C1212 C1211 1.363 . S
C1212 C1218 1.428 . S
H1213 C1209 0.930 . S
H1214 C1211 0.929 . S
S1215 N1216 1.613 . S
S1215 N1217 1.610 . S
N1216 S1215 1.613 . S
N1216 C1219 1.350 . S
N1217 S1215 1.610 . S
N1217 C1218 1.351 . S
C1218 C1212 1.428 . S
C1218 N1217 1.351 . S
C1218 C1219 1.434 . S
C1219 C1210 1.429 . S
C1219 N1216 1.350 . S
C1219 C1218 1.434 . S
C1220 C1221 1.369 . S
C1220 C1222 1.419 . S
C1220 H1224 0.930 . S
C1221 C1220 1.369 . S
C1221 C1230 1.429 . S
C1222 C1220 1.419 . S
C1222 C1223 1.363 . S
C1222 H1225 0.929 . S
C1223 C1222 1.363 . S
C1223 C1229 1.428 . S
H1224 C1220 0.930 . S
H1225 C1222 0.929 . S
S1226 N1227 1.613 . S
S1226 N1228 1.609 . S
N1227 S1226 1.613 . S
N1227 C1230 1.350 . S
N1228 S1226 1.609 . S
N1228 C1229 1.349 . S
C1229 C1223 1.428 . S
C1229 N1228 1.349 . S
C1229 C1230 1.434 . S
C1230 C1221 1.429 . S
C1230 N1227 1.350 . S
C1230 C1229 1.434 . S
C1231 C1232 1.369 . S
C1231 C1233 1.419 . S
C1231 H1235 0.930 . S
C1232 C1231 1.369 . S
C1232 C1241 1.429 . S
C1233 C1231 1.419 . S
C1233 C1234 1.363 . S
C1233 H1236 0.929 . S
C1234 C1233 1.363 . S
C1234 C1240 1.428 . S
H1235 C1231 0.930 . S
H1236 C1233 0.929 . S
S1237 N1238 1.613 . S
S1237 N1239 1.610 . S
N1238 S1237 1.613 . S
N1238 C1241 1.350 . S
N1239 S1237 1.610 . S
N1239 C1240 1.351 . S
C1240 C1234 1.428 . S
C1240 N1239 1.351 . S
C1240 C1241 1.434 . S
C1241 C1232 1.429 . S
C1241 N1238 1.350 . S
C1241 C1240 1.434 . S
C1242 C1243 1.369 . S
C1242 C1244 1.419 . S
C1242 H1246 0.930 1_565 S
C1243 C1242 1.369 . S
C1243 C1252 1.429 . S
C1244 C1242 1.419 . S
C1244 C1245 1.363 . S
C1244 H1247 0.929 . S
C1245 C1244 1.363 . S
C1245 C1251 1.428 . S
H1246 C1242 0.930 1_545 S
H1247 C1244 0.929 . S
S1248 N1249 1.613 . S
S1248 N1250 1.610 . S
N1249 S1248 1.613 . S
N1249 C1252 1.350 . S
N1250 S1248 1.610 . S
N1250 C1251 1.351 . S
C1251 C1245 1.428 . S
C1251 N1250 1.351 . S
C1251 C1252 1.434 . S
C1252 C1243 1.429 . S
C1252 N1249 1.350 . S
C1252 C1251 1.434 . S
C1253 C1254 1.369 . S
C1253 C1255 1.419 . S
C1253 H1257 0.930 . S
C1254 C1253 1.369 . S
C1254 C1263 1.429 . S
C1255 C1253 1.419 . S
C1255 C1256 1.363 . S
C1255 H1258 0.929 . S
C1256 C1255 1.363 . S
C1256 C1262 1.428 . S
H1257 C1253 0.930 . S
H1258 C1255 0.929 . S
S1259 N1260 1.613 . S
S1259 N1261 1.610 . S
N1260 S1259 1.613 . S
N1260 C1263 1.350 . S
N1261 S1259 1.610 . S
N1261 C1262 1.351 . S
C1262 C1256 1.428 . S
C1262 N1261 1.351 . S
C1262 C1263 1.434 . S
C1263 C1254 1.429 . S
C1263 N1260 1.350 . S
C1263 C1262 1.434 . S
C1264 C1265 1.369 . S
C1264 C1266 1.419 . S
C1264 H1268 0.930 . S
C1265 C1264 1.369 . S
C1265 C1274 1.429 . S
C1266 C1264 1.419 . S
C1266 C1267 1.363 . S
C1266 H1269 0.929 . S
C1267 C1266 1.363 . S
C1267 C1273 1.428 . S
H1268 C1264 0.930 . S
H1269 C1266 0.929 . S
S1270 N1271 1.613 . S
S1270 N1272 1.610 . S
N1271 S1270 1.613 . S
N1271 C1274 1.350 . S
N1272 S1270 1.610 . S
N1272 C1273 1.351 . S
C1273 C1267 1.428 . S
C1273 N1272 1.351 . S
C1273 C1274 1.434 . S
C1274 C1265 1.429 . S
C1274 N1271 1.350 . S
C1274 C1273 1.434 . S
C1275 C1276 1.369 . S
C1275 C1277 1.419 . S
C1275 H1279 0.930 . S
C1276 C1275 1.369 . S
C1276 C1285 1.429 . S
C1277 C1275 1.419 . S
C1277 C1278 1.363 . S
C1277 H1280 0.929 . S
C1278 C1277 1.363 . S
C1278 C1284 1.428 . S
H1279 C1275 0.930 . S
H1280 C1277 0.929 . S
S1281 N1282 1.613 . S
S1281 N1283 1.610 . S
N1282 S1281 1.613 . S
N1282 C1285 1.350 . S
N1283 S1281 1.610 . S
N1283 C1284 1.351 . S
C1284 C1278 1.428 . S
C1284 N1283 1.351 . S
C1284 C1285 1.434 . S
C1285 C1276 1.429 . S
C1285 N1282 1.350 . S
C1285 C1284 1.434 . S
C1286 C1287 1.369 . S
C1286 C1288 1.419 . S
C1286 H1290 0.930 . S
C1287 C1286 1.369 . S
C1287 C1296 1.429 . S
C1288 C1286 1.419 . S
C1288 C1289 1.363 . S
C1288 H1291 0.929 . S
C1289 C1288 1.363 . S
C1289 C1295 1.428 . S
H1290 C1286 0.930 . S
H1291 C1288 0.929 . S
S1292 N1293 1.613 . S
S1292 N1294 1.610 . S
N1293 S1292 1.613 . S
N1293 C1296 1.350 . S
N1294 S1292 1.610 . S
N1294 C1295 1.351 . S
C1295 C1289 1.428 . S
C1295 N1294 1.351 . S
C1295 C1296 1.434 . S
C1296 C1287 1.429 . S
C1296 N1293 1.350 . S
C1296 C1295 1.434 . S
C1297 C1298 1.369 . S
C1297 C1299 1.419 . S
C1297 H1301 0.930 . S
C1298 C1297 1.369 . S
C1298 C1307 1.429 . S
C1299 C1297 1.419 . S
C1299 C1300 1.363 . S
C1299 H1302 0.929 . S
C1300 C1299 1.363 . S
C1300 C1306 1.428 . S
H1301 C1297 0.930 . S
H1302 C1299 0.929 . S
S1303 N1304 1.613 . S
S1303 N1305 1.610 . S
N1304 S1303 1.613 . S
N1304 C1307 1.350 . S
N1305 S1303 1.610 . S
N1305 C1306 1.351 . S
C1306 C1300 1.428 . S
C1306 N1305 1.351 . S
C1306 C1307 1.434 . S
C1307 C1298 1.429 . S
C1307 N1304 1.350 . S
C1307 C1306 1.434 . S
C1308 C1309 1.369 . S
C1308 C1310 1.419 . S
C1308 H1312 0.930 . S
C1309 C1308 1.369 . S
C1309 C1318 1.429 . S
C1310 C1308 1.419 . S
C1310 C1311 1.363 . S
C1310 H1313 0.929 . S
C1311 C1310 1.363 . S
C1311 C1317 1.428 . S
H1312 C1308 0.930 . S
H1313 C1310 0.929 . S
S1314 N1315 1.613 . S
S1314 N1316 1.610 . S
N1315 S1314 1.613 . S
N1315 C1318 1.350 . S
N1316 S1314 1.610 . S
N1316 C1317 1.351 . S
C1317 C1311 1.428 . S
C1317 N1316 1.351 . S
C1317 C1318 1.434 . S
C1318 C1309 1.429 . S
C1318 N1315 1.350 . S
C1318 C1317 1.434 . S
C1319 C1320 1.369 . S
C1319 C1321 1.419 . S
C1319 H1323 0.930 . S
C1320 C1319 1.369 . S
C1320 C1329 1.429 . S
C1321 C1319 1.419 . S
C1321 C1322 1.363 . S
C1321 H1324 0.929 . S
C1322 C1321 1.363 . S
C1322 C1328 1.428 . S
H1323 C1319 0.930 . S
H1324 C1321 0.929 . S
S1325 N1326 1.613 . S
S1325 N1327 1.610 . S
N1326 S1325 1.613 . S
N1326 C1329 1.350 . S
N1327 S1325 1.610 . S
N1327 C1328 1.351 . S
C1328 C1322 1.428 . S
C1328 N1327 1.351 . S
C1328 C1329 1.434 . S
C1329 C1320 1.429 . S
C1329 N1326 1.350 . S
C1329 C1328 1.434 . S
C1330 C1331 1.369 . S
C1330 C1332 1.419 . S
C1330 H1334 0.930 . S
C1331 C1330 1.369 . S
C1331 C1340 1.429 . S
C1332 C1330 1.419 . S
C1332 C1333 1.363 . S
C1332 H1335 0.929 . S
C1333 C1332 1.363 . S
C1333 C1339 1.428 . S
H1334 C1330 0.930 . S
H1335 C1332 0.929 . S
S1336 N1337 1.613 . S
S1336 N1338 1.610 . S
N1337 S1336 1.613 . S
N1337 C1340 1.350 . S
N1338 S1336 1.610 . S
N1338 C1339 1.351 . S
C1339 C1333 1.428 . S
C1339 N1338 1.351 . S
C1339 C1340 1.434 . S
C1340 C1331 1.429 . S
C1340 N1337 1.350 . S
C1340 C1339 1.434 . S
C1341 C1342 1.369 . S
C1341 C1343 1.419 . S
C1341 H1345 0.930 . S
C1342 C1341 1.369 . S
C1342 C1351 1.429 . S
C1343 C1341 1.419 . S
C1343 C1344 1.363 . S
C1343 H1346 0.929 . S
C1344 C1343 1.363 . S
C1344 C1350 1.428 . S
H1345 C1341 0.930 . S
H1346 C1343 0.929 . S
S1347 N1348 1.613 . S
S1347 N1349 1.610 . S
N1348 S1347 1.613 . S
N1348 C1351 1.350 . S
N1349 S1347 1.610 . S
N1349 C1350 1.351 . S
C1350 C1344 1.428 . S
C1350 N1349 1.351 . S
C1350 C1351 1.434 . S
C1351 C1342 1.429 . S
C1351 N1348 1.350 . S
C1351 C1350 1.434 . S
C1352 C1353 1.369 . S
C1352 C1354 1.419 . S
C1352 H1356 0.930 . S
C1353 C1352 1.369 . S
C1353 C1362 1.429 . S
C1354 C1352 1.419 . S
C1354 C1355 1.363 . S
C1354 H1357 0.929 . S
C1355 C1354 1.363 . S
C1355 C1361 1.428 . S
H1356 C1352 0.930 . S
H1357 C1354 0.929 . S
S1358 N1359 1.613 . S
S1358 N1360 1.610 . S
N1359 S1358 1.613 . S
N1359 C1362 1.350 . S
N1360 S1358 1.610 . S
N1360 C1361 1.351 . S
C1361 C1355 1.428 . S
C1361 N1360 1.351 . S
C1361 C1362 1.434 . S
C1362 C1353 1.429 . S
C1362 N1359 1.350 . S
C1362 C1361 1.434 . S
C1363 C1364 1.369 . S
C1363 C1365 1.419 . S
C1363 H1367 0.930 . S
C1364 C1363 1.369 . S
C1364 C1373 1.429 . S
C1365 C1363 1.419 . S
C1365 C1366 1.363 . S
C1365 H1368 0.929 . S
C1366 C1365 1.363 . S
C1366 C1372 1.428 . S
H1367 C1363 0.930 . S
H1368 C1365 0.929 . S
S1369 N1370 1.613 . S
S1369 N1371 1.610 . S
N1370 S1369 1.613 . S
N1370 C1373 1.350 . S
N1371 S1369 1.610 . S
N1371 C1372 1.351 . S
C1372 C1366 1.428 . S
C1372 N1371 1.351 . S
C1372 C1373 1.434 . S
C1373 C1364 1.429 . S
C1373 N1370 1.350 . S
C1373 C1372 1.434 . S
C1374 C1375 1.369 . S
C1374 C1376 1.419 . S
C1374 H1378 0.930 . S
C1375 C1374 1.369 . S
C1375 C1384 1.429 . S
C1376 C1374 1.419 . S
C1376 C1377 1.363 . S
C1376 H1379 0.929 . S
C1377 C1376 1.363 . S
C1377 C1383 1.428 . S
H1378 C1374 0.930 . S
H1379 C1376 0.929 . S
S1380 N1381 1.613 . S
S1380 N1382 1.610 . S
N1381 S1380 1.613 . S
N1381 C1384 1.350 . S
N1382 S1380 1.610 . S
N1382 C1383 1.351 . S
C1383 C1377 1.428 . S
C1383 N1382 1.351 . S
C1383 C1384 1.434 . S
C1384 C1375 1.429 . S
C1384 N1381 1.350 . S
C1384 C1383 1.434 . S
C1385 C1386 1.369 . S
C1385 C1387 1.419 . S
C1385 H1389 0.930 . S
C1386 C1385 1.369 . S
C1386 C1395 1.429 . S
C1387 C1385 1.419 . S
C1387 C1388 1.363 . S
C1387 H1390 0.929 . S
C1388 C1387 1.363 . S
C1388 C1394 1.428 . S
H1389 C1385 0.930 . S
H1390 C1387 0.929 . S
S1391 N1392 1.613 . S
S1391 N1393 1.610 . S
N1392 S1391 1.613 . S
N1392 C1395 1.350 . S
N1393 S1391 1.610 . S
N1393 C1394 1.351 . S
C1394 C1388 1.428 . S
C1394 N1393 1.351 . S
C1394 C1395 1.434 . S
C1395 C1386 1.429 . S
C1395 N1392 1.350 . S
C1395 C1394 1.434 . S
C1396 C1397 1.369 . S
C1396 C1398 1.419 . S
C1396 H1400 0.930 . S
C1397 C1396 1.369 . S
C1397 C1406 1.429 . S
C1398 C1396 1.419 . S
C1398 C1399 1.363 . S
C1398 H1401 0.929 . S
C1399 C1398 1.363 . S
C1399 C1405 1.428 . S
H1400 C1396 0.930 . S
H1401 C1398 0.929 . S
S1402 N1403 1.613 . S
S1402 N1404 1.610 . S
N1403 S1402 1.613 . S
N1403 C1406 1.350 . S
N1404 S1402 1.610 . S
N1404 C1405 1.351 . S
C1405 C1399 1.428 . S
C1405 N1404 1.351 . S
C1405 C1406 1.434 . S
C1406 C1397 1.429 . S
C1406 N1403 1.350 . S
C1406 C1405 1.434 . S
C1407 C1408 1.369 . S
C1407 C1409 1.419 . S
C1407 H1411 0.930 . S
C1408 C1407 1.369 . S
C1408 C1417 1.429 . S
C1409 C1407 1.419 . S
C1409 C1410 1.363 . S
C1409 H1412 0.929 . S
C1410 C1409 1.363 . S
C1410 C1416 1.428 . S
H1411 C1407 0.930 . S
H1412 C1409 0.929 . S
S1413 N1414 1.613 . S
S1413 N1415 1.610 . S
N1414 S1413 1.613 . S
N1414 C1417 1.350 . S
N1415 S1413 1.610 . S
N1415 C1416 1.351 . S
C1416 C1410 1.428 . S
C1416 N1415 1.351 . S
C1416 C1417 1.434 . S
C1417 C1408 1.429 . S
C1417 N1414 1.350 . S
C1417 C1416 1.434 . S
C1418 C1419 1.369 . S
C1418 C1420 1.419 . S
C1418 H1422 0.930 . S
C1419 C1418 1.369 . S
C1419 C1428 1.429 . S
C1420 C1418 1.419 . S
C1420 C1421 1.363 . S
C1420 H1423 0.929 . S
C1421 C1420 1.363 . S
C1421 C1427 1.428 . S
H1422 C1418 0.930 . S
H1423 C1420 0.929 . S
S1424 N1425 1.613 . S
S1424 N1426 1.610 . S
N1425 S1424 1.613 . S
N1425 C1428 1.350 . S
N1426 S1424 1.610 . S
N1426 C1427 1.351 . S
C1427 C1421 1.428 . S
C1427 N1426 1.351 . S
C1427 C1428 1.434 . S
C1428 C1419 1.429 . S
C1428 N1425 1.350 . S
C1428 C1427 1.434 . S
C1429 C1430 1.369 . S
C1429 C1431 1.419 . S
C1429 H1433 0.930 . S
C1430 C1429 1.369 . S
C1430 C1439 1.429 . S
C1431 C1429 1.419 . S
C1431 C1432 1.363 . S
C1431 H1434 0.929 . S
C1432 C1431 1.363 . S
C1432 C1438 1.428 . S
H1433 C1429 0.930 . S
H1434 C1431 0.929 . S
S1435 N1436 1.613 . S
S1435 N1437 1.610 . S
N1436 S1435 1.613 . S
N1436 C1439 1.350 . S
N1437 S1435 1.610 . S
N1437 C1438 1.351 . S
C1438 C1432 1.428 . S
C1438 N1437 1.351 . S
C1438 C1439 1.434 . S
C1439 C1430 1.429 . S
C1439 N1436 1.350 . S
C1439 C1438 1.434 . S
C1440 C1441 1.369 . S
C1440 C1442 1.419 . S
C1440 H1444 0.930 . S
C1441 C1440 1.369 . S
C1441 C1450 1.429 . S
C1442 C1440 1.419 . S
C1442 C1443 1.363 . S
C1442 H1445 0.929 . S
C1443 C1442 1.363 . S
C1443 C1449 1.428 . S
H1444 C1440 0.930 . S
H1445 C1442 0.929 . S
S1446 N1447 1.613 . S
S1446 N1448 1.610 . S
N1447 S1446 1.613 . S
N1447 C1450 1.350 . S
N1448 S1446 1.610 . S
N1448 C1449 1.351 . S
C1449 C1443 1.428 . S
C1449 N1448 1.351 . S
C1449 C1450 1.434 . S
C1450 C1441 1.429 . S
C1450 N1447 1.350 . S
C1450 C1449 1.434 . S
C1451 C1452 1.369 . S
C1451 C1453 1.419 . S
C1451 H1455 0.930 . S
C1452 C1451 1.369 . S
C1452 C1461 1.429 1_565 S
C1453 C1451 1.419 . S
C1453 C1454 1.363 1_565 S
C1453 H1456 0.929 . S
C1454 C1453 1.363 1_545 S
C1454 C1460 1.428 . S
H1455 C1451 0.930 . S
H1456 C1453 0.929 . S
S1457 N1458 1.613 . S
S1457 N1459 1.610 . S
N1458 S1457 1.613 . S
N1458 C1461 1.350 . S
N1459 S1457 1.610 . S
N1459 C1460 1.351 . S
C1460 C1454 1.428 . S
C1460 N1459 1.351 . S
C1460 C1461 1.434 . S
C1461 C1452 1.429 1_545 S
C1461 N1458 1.350 . S
C1461 C1460 1.434 . S
C1462 C1463 1.369 . S
C1462 C1464 1.419 . S
C1462 H1466 0.930 . S
C1463 C1462 1.369 . S
C1463 C1472 1.429 . S
C1464 C1462 1.419 . S
C1464 C1465 1.363 . S
C1464 H1467 0.929 . S
C1465 C1464 1.363 . S
C1465 C1471 1.428 . S
H1466 C1462 0.930 . S
H1467 C1464 0.929 . S
S1468 N1469 1.613 . S
S1468 N1470 1.610 . S
N1469 S1468 1.613 . S
N1469 C1472 1.350 . S
N1470 S1468 1.610 . S
N1470 C1471 1.351 . S
C1471 C1465 1.428 . S
C1471 N1470 1.351 . S
C1471 C1472 1.434 . S
C1472 C1463 1.429 . S
C1472 N1469 1.350 . S
C1472 C1471 1.434 . S
C1473 C1474 1.369 . S
C1473 C1475 1.419 1_556 S
C1473 H1477 0.930 . S
C1474 C1473 1.369 . S
C1474 C1483 1.429 1_545 S
C1475 C1473 1.419 1_554 S
C1475 C1476 1.363 1_545 S
C1475 H1478 0.929 . S
C1476 C1475 1.363 1_565 S
C1476 C1482 1.428 . S
H1477 C1473 0.930 . S
H1478 C1475 0.929 . S
S1479 N1480 1.613 . S
S1479 N1481 1.610 1_556 S
N1480 S1479 1.613 . S
N1480 C1483 1.350 . S
N1481 S1479 1.610 1_554 S
N1481 C1482 1.351 . S
C1482 C1476 1.428 . S
C1482 N1481 1.351 . S
C1482 C1483 1.434 1_554 S
C1483 C1474 1.429 1_565 S
C1483 N1480 1.350 . S
C1483 C1482 1.434 1_556 S
C1484 C1485 1.369 . S
C1484 C1486 1.419 . S
C1484 H1488 0.930 . S
C1485 C1484 1.369 . S
C1485 C1494 1.429 . S
C1486 C1484 1.419 . S
C1486 C1487 1.363 . S
C1486 H1489 0.929 . S
C1487 C1486 1.363 . S
C1487 C1493 1.428 . S
H1488 C1484 0.930 . S
H1489 C1486 0.929 . S
S1490 N1491 1.613 . S
S1490 N1492 1.610 . S
N1491 S1490 1.613 . S
N1491 C1494 1.350 . S
N1492 S1490 1.610 . S
N1492 C1493 1.351 . S
C1493 C1487 1.428 . S
C1493 N1492 1.351 . S
C1493 C1494 1.434 . S
C1494 C1485 1.429 . S
C1494 N1491 1.350 . S
C1494 C1493 1.434 . S
C1495 C1496 1.369 . S
C1495 C1497 1.419 . S
C1495 H1499 0.930 . S
C1496 C1495 1.369 . S
C1496 C1505 1.429 1_565 S
C1497 C1495 1.419 . S
C1497 C1498 1.363 1_565 S
C1497 H1500 0.929 . S
C1498 C1497 1.363 1_545 S
C1498 C1504 1.428 . S
H1499 C1495 0.930 . S
H1500 C1497 0.929 . S
S1501 N1502 1.613 . S
S1501 N1503 1.610 . S
N1502 S1501 1.613 . S
N1502 C1505 1.350 . S
N1503 S1501 1.610 . S
N1503 C1504 1.351 . S
C1504 C1498 1.428 . S
C1504 N1503 1.351 . S
C1504 C1505 1.434 . S
C1505 C1496 1.429 1_545 S
C1505 N1502 1.350 . S
C1505 C1504 1.434 . S
C1506 C1507 1.369 . S
C1506 C1508 1.419 . S
C1506 H1510 0.930 . S
C1507 C1506 1.369 . S
C1507 C1516 1.429 . S
C1508 C1506 1.419 . S
C1508 C1509 1.363 . S
C1508 H1511 0.929 . S
C1509 C1508 1.363 . S
C1509 C1515 1.428 . S
H1510 C1506 0.930 . S
H1511 C1508 0.929 . S
S1512 N1513 1.613 . S
S1512 N1514 1.610 . S
N1513 S1512 1.613 . S
N1513 C1516 1.350 . S
N1514 S1512 1.610 . S
N1514 C1515 1.351 . S
C1515 C1509 1.428 . S
C1515 N1514 1.351 . S
C1515 C1516 1.434 . S
C1516 C1507 1.429 . S
C1516 N1513 1.350 . S
C1516 C1515 1.434 . S
C1517 C1518 1.369 1_565 S
C1517 C1519 1.419 1_556 S
C1517 H1521 0.930 . S
C1518 C1517 1.369 1_545 S
C1518 C1527 1.429 . S
C1519 C1517 1.419 1_554 S
C1519 C1520 1.363 . S
C1519 H1522 0.929 . S
C1520 C1519 1.363 . S
C1520 C1526 1.428 1_565 S
H1521 C1517 0.930 . S
H1522 C1519 0.929 . S
S1523 N1524 1.613 1_554 S
S1523 N1525 1.610 . S
N1524 S1523 1.613 1_556 S
N1524 C1527 1.350 . S
N1525 S1523 1.610 . S
N1525 C1526 1.351 . S
C1526 C1520 1.428 1_545 S
C1526 N1525 1.351 . S
C1526 C1527 1.434 1_554 S
C1527 C1518 1.429 . S
C1527 N1524 1.350 . S
C1527 C1526 1.434 1_556 S
C1528 C1529 1.369 . S
C1528 C1530 1.419 . S
C1528 H1532 0.930 . S
C1529 C1528 1.369 . S
C1529 C1538 1.429 . S
C1530 C1528 1.419 . S
C1530 C1531 1.363 . S
C1530 H1533 0.929 . S
C1531 C1530 1.363 . S
C1531 C1537 1.428 . S
H1532 C1528 0.930 . S
H1533 C1530 0.929 . S
S1534 N1535 1.613 . S
S1534 N1536 1.610 . S
N1535 S1534 1.613 . S
N1535 C1538 1.350 . S
N1536 S1534 1.610 . S
N1536 C1537 1.351 . S
C1537 C1531 1.428 . S
C1537 N1536 1.351 . S
C1537 C1538 1.434 . S
C1538 C1529 1.429 . S
C1538 N1535 1.350 . S
C1538 C1537 1.434 . S
C1539 C1540 1.369 . S
C1539 C1541 1.419 1_556 S
C1539 H1543 0.930 . S
C1540 C1539 1.369 . S
C1540 C1549 1.429 . S
C1541 C1539 1.419 1_554 S
C1541 C1542 1.363 . S
C1541 H1544 0.929 . S
C1542 C1541 1.363 . S
C1542 C1548 1.428 . S
H1543 C1539 0.930 . S
H1544 C1541 0.929 . S
S1545 N1546 1.613 1_554 S
S1545 N1547 1.610 . S
N1546 S1545 1.613 1_556 S
N1546 C1549 1.350 . S
N1547 S1545 1.610 . S
N1547 C1548 1.351 . S
C1548 C1542 1.428 . S
C1548 N1547 1.351 . S
C1548 C1549 1.434 1_554 S
C1549 C1540 1.429 . S
C1549 N1546 1.350 . S
C1549 C1548 1.434 1_556 S
C1550 C1551 1.369 . S
C1550 C1552 1.419 . S
C1550 H1554 0.930 . S
C1551 C1550 1.369 . S
C1551 C1560 1.429 . S
C1552 C1550 1.419 . S
C1552 C1553 1.363 . S
C1552 H1555 0.929 . S
C1553 C1552 1.363 . S
C1553 C1559 1.428 . S
H1554 C1550 0.930 . S
H1555 C1552 0.929 . S
S1556 N1557 1.613 . S
S1556 N1558 1.610 . S
N1557 S1556 1.613 . S
N1557 C1560 1.350 . S
N1558 S1556 1.610 . S
N1558 C1559 1.351 . S
C1559 C1553 1.428 . S
C1559 N1558 1.351 . S
C1559 C1560 1.434 . S
C1560 C1551 1.429 . S
C1560 N1557 1.350 . S
C1560 C1559 1.434 . S
C1561 C1562 1.369 . S
C1561 C1563 1.419 . S
C1561 H1565 0.930 . S
C1562 C1561 1.369 . S
C1562 C1571 1.429 . S
C1563 C1561 1.419 . S
C1563 C1564 1.363 . S
C1563 H1566 0.929 . S
C1564 C1563 1.363 . S
C1564 C1570 1.428 . S
H1565 C1561 0.930 . S
H1566 C1563 0.929 . S
S1567 N1568 1.613 . S
S1567 N1569 1.610 . S
N1568 S1567 1.613 . S
N1568 C1571 1.350 . S
N1569 S1567 1.610 . S
N1569 C1570 1.351 . S
C1570 C1564 1.428 . S
C1570 N1569 1.351 . S
C1570 C1571 1.434 . S
C1571 C1562 1.429 . S
C1571 N1568 1.350 . S
C1571 C1570 1.434 . S
C1572 C1573 1.369 . S
C1572 C1574 1.419 . S
C1572 H1576 0.930 . S
C1573 C1572 1.369 . S
C1573 C1582 1.429 . S
C1574 C1572 1.419 . S
C1574 C1575 1.363 . S
C1574 H1577 0.929 . S
C1575 C1574 1.363 . S
C1575 C1581 1.428 . S
H1576 C1572 0.930 . S
H1577 C1574 0.929 . S
S1578 N1579 1.613 . S
S1578 N1580 1.610 . S
N1579 S1578 1.613 . S
N1579 C1582 1.350 . S
N1580 S1578 1.610 . S
N1580 C1581 1.351 . S
C1581 C1575 1.428 . S
C1581 N1580 1.351 . S
C1581 C1582 1.434 . S
C1582 C1573 1.429 . S
C1582 N1579 1.350 . S
C1582 C1581 1.434 . S
C1583 C1584 1.369 . S
C1583 C1585 1.419 1_556 S
C1583 H1587 0.930 . S
C1584 C1583 1.369 . S
C1584 C1593 1.429 . S
C1585 C1583 1.419 1_554 S
C1585 C1586 1.363 . S
C1585 H1588 0.929 . S
C1586 C1585 1.363 . S
C1586 C1592 1.428 . S
H1587 C1583 0.930 . S
H1588 C1585 0.929 . S
S1589 N1590 1.613 1_554 S
S1589 N1591 1.610 . S
N1590 S1589 1.613 1_556 S
N1590 C1593 1.350 . S
N1591 S1589 1.610 . S
N1591 C1592 1.351 . S
C1592 C1586 1.428 . S
C1592 N1591 1.351 . S
C1592 C1593 1.434 1_554 S
C1593 C1584 1.429 . S
C1593 N1590 1.350 . S
C1593 C1592 1.434 1_556 S
C1594 C1595 1.369 . S
C1594 C1596 1.419 . S
C1594 H1598 0.930 . S
C1595 C1594 1.369 . S
C1595 C1604 1.429 . S
C1596 C1594 1.419 . S
C1596 C1597 1.363 . S
C1596 H1599 0.929 . S
C1597 C1596 1.363 . S
C1597 C1603 1.428 . S
H1598 C1594 0.930 . S
H1599 C1596 0.929 . S
S1600 N1601 1.613 . S
S1600 N1602 1.610 . S
N1601 S1600 1.613 . S
N1601 C1604 1.350 . S
N1602 S1600 1.610 . S
N1602 C1603 1.351 . S
C1603 C1597 1.428 . S
C1603 N1602 1.351 . S
C1603 C1604 1.434 . S
C1604 C1595 1.429 . S
C1604 N1601 1.350 . S
C1604 C1603 1.434 . S
C1605 C1606 1.369 . S
C1605 C1607 1.419 . S
C1605 H1609 0.930 . S
C1606 C1605 1.369 . S
C1606 C1615 1.429 . S
C1607 C1605 1.419 . S
C1607 C1608 1.363 . S
C1607 H1610 0.929 . S
C1608 C1607 1.363 . S
C1608 C1614 1.428 . S
H1609 C1605 0.930 . S
H1610 C1607 0.929 . S
S1611 N1612 1.613 . S
S1611 N1613 1.610 . S
N1612 S1611 1.613 . S
N1612 C1615 1.350 . S
N1613 S1611 1.610 . S
N1613 C1614 1.351 . S
C1614 C1608 1.428 . S
C1614 N1613 1.351 . S
C1614 C1615 1.434 . S
C1615 C1606 1.429 . S
C1615 N1612 1.350 . S
C1615 C1614 1.434 . S
C1616 C1617 1.369 . S
C1616 C1618 1.419 . S
C1616 H1620 0.930 . S
C1617 C1616 1.369 . S
C1617 C1626 1.429 . S
C1618 C1616 1.419 . S
C1618 C1619 1.363 . S
C1618 H1621 0.929 . S
C1619 C1618 1.363 . S
C1619 C1625 1.428 . S
H1620 C1616 0.930 . S
H1621 C1618 0.929 . S
S1622 N1623 1.613 . S
S1622 N1624 1.610 . S
N1623 S1622 1.613 . S
N1623 C1626 1.350 . S
N1624 S1622 1.610 . S
N1624 C1625 1.351 . S
C1625 C1619 1.428 . S
C1625 N1624 1.351 . S
C1625 C1626 1.434 . S
C1626 C1617 1.429 . S
C1626 N1623 1.350 . S
C1626 C1625 1.434 . S
C1627 C1628 1.369 . S
C1627 C1629 1.419 . S
C1627 H1631 0.930 . S
C1628 C1627 1.369 . S
C1628 C1637 1.429 . S
C1629 C1627 1.419 . S
C1629 C1630 1.363 . S
C1629 H1632 0.929 . S
C1630 C1629 1.363 . S
C1630 C1636 1.428 . S
H1631 C1627 0.930 . S
H1632 C1629 0.929 . S
S1633 N1634 1.614 . S
S1633 N1635 1.588 1_565 S
N1634 S1633 1.614 . S
N1634 C1637 1.350 1_565 S
N1635 S1633 1.588 1_545 S
N1635 C1636 1.351 . S
C1636 C1630 1.428 . S
C1636 N1635 1.351 . S
C1636 C1637 1.434 . S
C1637 C1628 1.429 . S
C1637 N1634 1.350 1_545 S
C1637 C1636 1.434 . S
C1638 C1639 1.369 . S
C1638 C1640 1.419 . S
C1638 H1642 0.930 . S
C1639 C1638 1.369 . S
C1639 C1648 1.429 . S
C1640 C1638 1.419 . S
C1640 C1641 1.363 . S
C1640 H1643 0.929 . S
C1641 C1640 1.363 . S
C1641 C1647 1.428 . S
H1642 C1638 0.930 . S
H1643 C1640 0.929 . S
S1644 N1645 1.613 1_545 S
S1644 N1646 1.610 . S
N1645 S1644 1.613 1_565 S
N1645 C1648 1.350 . S
N1646 S1644 1.610 . S
N1646 C1647 1.351 1_545 S
C1647 C1641 1.428 . S
C1647 N1646 1.351 1_565 S
C1647 C1648 1.434 . S
C1648 C1639 1.429 . S
C1648 N1645 1.350 . S
C1648 C1647 1.434 . S
C1649 C1650 1.369 . S
C1649 C1651 1.419 . S
C1649 H1653 0.930 . S
C1650 C1649 1.369 . S
C1650 C1659 1.429 . S
C1651 C1649 1.419 . S
C1651 C1652 1.363 . S
C1651 H1654 0.929 . S
C1652 C1651 1.363 . S
C1652 C1658 1.428 . S
H1653 C1649 0.930 . S
H1654 C1651 0.929 . S
S1655 N1656 1.613 . S
S1655 N1657 1.610 . S
N1656 S1655 1.613 . S
N1656 C1659 1.350 . S
N1657 S1655 1.610 . S
N1657 C1658 1.351 . S
C1658 C1652 1.428 . S
C1658 N1657 1.351 . S
C1658 C1659 1.434 . S
C1659 C1650 1.429 . S
C1659 N1656 1.350 . S
C1659 C1658 1.434 . S
C1660 C1661 1.369 . S
C1660 C1662 1.419 . S
C1660 H1664 0.930 . S
C1661 C1660 1.369 . S
C1661 C1670 1.429 . S
C1662 C1660 1.419 . S
C1662 C1663 1.363 . S
C1662 H1665 0.929 . S
C1663 C1662 1.363 . S
C1663 C1669 1.428 . S
H1664 C1660 0.930 . S
H1665 C1662 0.929 . S
S1666 N1667 1.613 . S
S1666 N1668 1.610 . S
N1667 S1666 1.613 . S
N1667 C1670 1.350 . S
N1668 S1666 1.610 . S
N1668 C1669 1.351 . S
C1669 C1663 1.428 . S
C1669 N1668 1.351 . S
C1669 C1670 1.434 . S
C1670 C1661 1.429 . S
C1670 N1667 1.350 . S
C1670 C1669 1.434 . S
C1671 C1672 1.369 . S
C1671 C1673 1.419 . S
C1671 H1675 0.930 . S
C1672 C1671 1.369 . S
C1672 C1681 1.429 . S
C1673 C1671 1.419 . S
C1673 C1674 1.363 . S
C1673 H1676 0.929 . S
C1674 C1673 1.363 . S
C1674 C1680 1.428 . S
H1675 C1671 0.930 . S
H1676 C1673 0.929 . S
S1677 N1678 1.613 . S
S1677 N1679 1.610 1_545 S
N1678 S1677 1.613 . S
N1678 C1681 1.350 1_545 S
N1679 S1677 1.610 1_565 S
N1679 C1680 1.351 . S
C1680 C1674 1.428 . S
C1680 N1679 1.351 . S
C1680 C1681 1.434 . S
C1681 C1672 1.429 . S
C1681 N1678 1.350 1_565 S
C1681 C1680 1.434 . S
C1682 C1683 1.369 . S
C1682 C1684 1.419 . S
C1682 H1686 0.930 . S
C1683 C1682 1.369 . S
C1683 C1692 1.429 . S
C1684 C1682 1.419 . S
C1684 C1685 1.363 . S
C1684 H1687 0.929 . S
C1685 C1684 1.363 . S
C1685 C1691 1.428 . S
H1686 C1682 0.930 . S
H1687 C1684 0.929 . S
S1688 N1689 1.613 . S
S1688 N1690 1.610 . S
N1689 S1688 1.613 . S
N1689 C1692 1.350 . S
N1690 S1688 1.610 . S
N1690 C1691 1.351 . S
C1691 C1685 1.428 . S
C1691 N1690 1.351 . S
C1691 C1692 1.434 . S
C1692 C1683 1.429 . S
C1692 N1689 1.350 . S
C1692 C1691 1.434 . S
C1693 C1694 1.369 . S
C1693 C1695 1.419 . S
C1693 H1697 0.930 . S
C1694 C1693 1.369 . S
C1694 C1703 1.429 . S
C1695 C1693 1.419 . S
C1695 C1696 1.363 . S
C1695 H1698 0.929 . S
C1696 C1695 1.363 . S
C1696 C1702 1.428 . S
H1697 C1693 0.930 . S
H1698 C1695 0.929 . S
S1699 N1700 1.613 . S
S1699 N1701 1.610 . S
N1700 S1699 1.613 . S
N1700 C1703 1.350 . S
N1701 S1699 1.610 . S
N1701 C1702 1.351 . S
C1702 C1696 1.428 . S
C1702 N1701 1.351 . S
C1702 C1703 1.434 . S
C1703 C1694 1.429 . S
C1703 N1700 1.350 . S
C1703 C1702 1.434 . S
C1704 C1705 1.369 . S
C1704 C1706 1.419 . S
C1704 H1708 0.930 . S
C1705 C1704 1.369 . S
C1705 C1714 1.429 . S
C1706 C1704 1.419 . S
C1706 C1707 1.363 . S
C1706 H1709 0.929 . S
C1707 C1706 1.363 . S
C1707 C1713 1.428 . S
H1708 C1704 0.930 . S
H1709 C1706 0.929 . S
S1710 N1711 1.613 . S
S1710 N1712 1.610 . S
N1711 S1710 1.613 . S
N1711 C1714 1.350 . S
N1712 S1710 1.610 . S
N1712 C1713 1.351 . S
C1713 C1707 1.428 . S
C1713 N1712 1.351 . S
C1713 C1714 1.434 . S
C1714 C1705 1.429 . S
C1714 N1711 1.350 . S
C1714 C1713 1.434 . S
C1715 C1716 1.369 . S
C1715 C1717 1.419 . S
C1715 H1719 0.930 . S
C1716 C1715 1.369 . S
C1716 C1725 1.429 . S
C1717 C1715 1.419 . S
C1717 C1718 1.363 . S
C1717 H1720 0.929 . S
C1718 C1717 1.363 . S
C1718 C1724 1.428 . S
H1719 C1715 0.930 . S
H1720 C1717 0.929 . S
S1721 N1722 1.613 . S
S1721 N1723 1.610 . S
N1722 S1721 1.613 . S
N1722 C1725 1.350 . S
N1723 S1721 1.610 . S
N1723 C1724 1.351 . S
C1724 C1718 1.428 . S
C1724 N1723 1.351 . S
C1724 C1725 1.434 . S
C1725 C1716 1.429 . S
C1725 N1722 1.350 . S
C1725 C1724 1.434 . S
C1726 C1727 1.369 . S
C1726 C1728 1.419 . S
C1726 H1730 0.930 . S
C1727 C1726 1.369 . S
C1727 C1736 1.429 . S
C1728 C1726 1.419 . S
C1728 C1729 1.363 . S
C1728 H1731 0.929 . S
C1729 C1728 1.363 . S
C1729 C1735 1.428 . S
H1730 C1726 0.930 . S
H1731 C1728 0.929 . S
S1732 N1733 1.613 . S
S1732 N1734 1.610 . S
N1733 S1732 1.613 . S
N1733 C1736 1.350 . S
N1734 S1732 1.610 . S
N1734 C1735 1.351 . S
C1735 C1729 1.428 . S
C1735 N1734 1.351 . S
C1735 C1736 1.434 . S
C1736 C1727 1.429 . S
C1736 N1733 1.350 . S
C1736 C1735 1.434 . S
C1737 C1738 1.369 . S
C1737 C1739 1.419 . S
C1737 H1741 0.930 . S
C1738 C1737 1.369 . S
C1738 C1747 1.429 . S
C1739 C1737 1.419 . S
C1739 C1740 1.363 . S
C1739 H1742 0.929 . S
C1740 C1739 1.363 . S
C1740 C1746 1.428 . S
H1741 C1737 0.930 . S
H1742 C1739 0.929 . S
S1743 N1744 1.613 . S
S1743 N1745 1.610 . S
N1744 S1743 1.613 . S
N1744 C1747 1.350 . S
N1745 S1743 1.610 . S
N1745 C1746 1.351 . S
C1746 C1740 1.428 . S
C1746 N1745 1.351 . S
C1746 C1747 1.434 . S
C1747 C1738 1.429 . S
C1747 N1744 1.350 . S
C1747 C1746 1.434 . S
C1748 C1749 1.369 . S
C1748 C1750 1.419 . S
C1748 H1752 0.930 . S
C1749 C1748 1.369 . S
C1749 C1758 1.429 . S
C1750 C1748 1.419 . S
C1750 C1751 1.363 . S
C1750 H1753 0.929 . S
C1751 C1750 1.363 . S
C1751 C1757 1.428 . S
H1752 C1748 0.930 . S
H1753 C1750 0.929 . S
S1754 N1755 1.613 . S
S1754 N1756 1.610 . S
N1755 S1754 1.613 . S
N1755 C1758 1.350 . S
N1756 S1754 1.610 . S
N1756 C1757 1.351 . S
C1757 C1751 1.428 . S
C1757 N1756 1.351 . S
C1757 C1758 1.434 . S
C1758 C1749 1.429 . S
C1758 N1755 1.350 . S
C1758 C1757 1.434 . S
C1759 C1760 1.369 . S
C1759 C1761 1.419 . S
C1759 H1763 0.930 . S
C1760 C1759 1.369 . S
C1760 C1769 1.429 . S
C1761 C1759 1.419 . S
C1761 C1762 1.363 . S
C1761 H1764 0.929 . S
C1762 C1761 1.363 . S
C1762 C1768 1.428 . S
H1763 C1759 0.930 . S
H1764 C1761 0.929 . S
S1765 N1766 1.613 . S
S1765 N1767 1.610 . S
N1766 S1765 1.613 . S
N1766 C1769 1.350 . S
N1767 S1765 1.610 . S
N1767 C1768 1.351 . S
C1768 C1762 1.428 . S
C1768 N1767 1.351 . S
C1768 C1769 1.434 . S
C1769 C1760 1.429 . S
C1769 N1766 1.350 . S
C1769 C1768 1.434 . S
C1770 C1771 1.369 . S
C1770 C1772 1.419 . S
C1770 H1774 0.930 . S
C1771 C1770 1.369 . S
C1771 C1780 1.429 . S
C1772 C1770 1.419 . S
C1772 C1773 1.363 . S
C1772 H1775 0.929 . S
C1773 C1772 1.363 . S
C1773 C1779 1.428 . S
H1774 C1770 0.930 . S
H1775 C1772 0.929 . S
S1776 N1777 1.613 . S
S1776 N1778 1.610 . S
N1777 S1776 1.613 . S
N1777 C1780 1.350 . S
N1778 S1776 1.610 . S
N1778 C1779 1.351 . S
C1779 C1773 1.428 . S
C1779 N1778 1.351 . S
C1779 C1780 1.434 . S
C1780 C1771 1.429 . S
C1780 N1777 1.350 . S
C1780 C1779 1.434 . S
C1781 C1782 1.369 . S
C1781 C1783 1.419 . S
C1781 H1785 0.930 . S
C1782 C1781 1.369 . S
C1782 C1791 1.429 . S
C1783 C1781 1.419 . S
C1783 C1784 1.363 . S
C1783 H1786 0.929 . S
C1784 C1783 1.363 . S
C1784 C1790 1.428 . S
H1785 C1781 0.930 . S
H1786 C1783 0.929 . S
S1787 N1788 1.613 . S
S1787 N1789 1.610 . S
N1788 S1787 1.613 . S
N1788 C1791 1.350 . S
N1789 S1787 1.610 . S
N1789 C1790 1.351 . S
C1790 C1784 1.428 . S
C1790 N1789 1.351 . S
C1790 C1791 1.434 . S
C1791 C1782 1.429 . S
C1791 N1788 1.350 . S
C1791 C1790 1.434 . S
C1792 C1793 1.369 . S
C1792 C1794 1.419 . S
C1792 H1796 0.930 . S
C1793 C1792 1.369 . S
C1793 C1802 1.429 . S
C1794 C1792 1.419 . S
C1794 C1795 1.363 . S
C1794 H1797 0.929 . S
C1795 C1794 1.363 . S
C1795 C1801 1.428 . S
H1796 C1792 0.930 . S
H1797 C1794 0.929 . S
S1798 N1799 1.613 . S
S1798 N1800 1.610 . S
N1799 S1798 1.613 . S
N1799 C1802 1.350 . S
N1800 S1798 1.610 . S
N1800 C1801 1.351 . S
C1801 C1795 1.428 . S
C1801 N1800 1.351 . S
C1801 C1802 1.434 . S
C1802 C1793 1.429 . S
C1802 N1799 1.350 . S
C1802 C1801 1.434 . S
C1803 C1804 1.369 . S
C1803 C1805 1.419 1_655 S
C1803 H1807 0.930 . S
C1804 C1803 1.369 . S
C1804 C1813 1.429 . S
C1805 C1803 1.419 1_455 S
C1805 C1806 1.363 . S
C1805 H1808 0.929 . S
C1806 C1805 1.363 . S
C1806 C1812 1.428 . S
H1807 C1803 0.930 . S
H1808 C1805 0.929 . S
S1809 N1810 1.616 1_455 S
S1809 N1811 1.607 . S
N1810 S1809 1.616 1_655 S
N1810 C1813 1.350 1_545 S
N1811 S1809 1.607 . S
N1811 C1812 1.351 1_545 S
C1812 C1806 1.428 . S
C1812 N1811 1.351 1_565 S
C1812 C1813 1.434 1_455 S
C1813 C1804 1.429 . S
C1813 N1810 1.350 1_565 S
C1813 C1812 1.434 1_655 S
C1814 C1815 1.369 . S
C1814 C1816 1.419 . S
C1814 H1818 0.930 . S
C1815 C1814 1.369 . S
C1815 C1824 1.429 . S
C1816 C1814 1.419 . S
C1816 C1817 1.363 . S
C1816 H1819 0.929 . S
C1817 C1816 1.363 . S
C1817 C1823 1.428 . S
H1818 C1814 0.930 . S
H1819 C1816 0.929 . S
S1820 N1821 1.613 . S
S1820 N1822 1.610 . S
N1821 S1820 1.613 . S
N1821 C1824 1.350 . S
N1822 S1820 1.610 . S
N1822 C1823 1.351 . S
C1823 C1817 1.428 . S
C1823 N1822 1.351 . S
C1823 C1824 1.434 . S
C1824 C1815 1.429 . S
C1824 N1821 1.350 . S
C1824 C1823 1.434 . S
C1825 C1826 1.369 . S
C1825 C1827 1.419 . S
C1825 H1829 0.930 . S
C1826 C1825 1.369 . S
C1826 C1835 1.429 . S
C1827 C1825 1.419 . S
C1827 C1828 1.363 . S
C1827 H1830 0.929 . S
C1828 C1827 1.363 . S
C1828 C1834 1.428 . S
H1829 C1825 0.930 . S
H1830 C1827 0.929 . S
S1831 N1832 1.613 . S
S1831 N1833 1.610 . S
N1832 S1831 1.613 . S
N1832 C1835 1.350 . S
N1833 S1831 1.610 . S
N1833 C1834 1.351 . S
C1834 C1828 1.428 . S
C1834 N1833 1.351 . S
C1834 C1835 1.434 . S
C1835 C1826 1.429 . S
C1835 N1832 1.350 . S
C1835 C1834 1.434 . S
C1836 C1837 1.369 . S
C1836 C1838 1.419 . S
C1836 H1840 0.930 . S
C1837 C1836 1.369 . S
C1837 C1846 1.429 . S
C1838 C1836 1.419 . S
C1838 C1839 1.363 . S
C1838 H1841 0.929 . S
C1839 C1838 1.363 . S
C1839 C1845 1.428 . S
H1840 C1836 0.930 . S
H1841 C1838 0.929 . S
S1842 N1843 1.613 . S
S1842 N1844 1.610 . S
N1843 S1842 1.613 . S
N1843 C1846 1.350 . S
N1844 S1842 1.610 . S
N1844 C1845 1.351 . S
C1845 C1839 1.428 . S
C1845 N1844 1.351 . S
C1845 C1846 1.434 . S
C1846 C1837 1.429 . S
C1846 N1843 1.350 . S
C1846 C1845 1.434 . S
C1847 C1848 1.369 . S
C1847 C1849 1.419 . S
C1847 H1851 0.930 . S
C1848 C1847 1.369 . S
C1848 C1857 1.429 . S
C1849 C1847 1.419 . S
C1849 C1850 1.363 . S
C1849 H1852 0.929 . S
C1850 C1849 1.363 . S
C1850 C1856 1.428 . S
H1851 C1847 0.930 . S
H1852 C1849 0.929 . S
S1853 N1854 1.613 . S
S1853 N1855 1.610 . S
N1854 S1853 1.613 . S
N1854 C1857 1.350 . S
N1855 S1853 1.610 . S
N1855 C1856 1.351 . S
C1856 C1850 1.428 . S
C1856 N1855 1.351 . S
C1856 C1857 1.434 . S
C1857 C1848 1.429 . S
C1857 N1854 1.350 . S
C1857 C1856 1.434 . S
C1858 C1859 1.369 . S
C1858 C1860 1.419 . S
C1858 H1862 0.930 . S
C1859 C1858 1.369 . S
C1859 C1868 1.429 . S
C1860 C1858 1.419 . S
C1860 C1861 1.363 . S
C1860 H1863 0.929 . S
C1861 C1860 1.363 . S
C1861 C1867 1.428 . S
H1862 C1858 0.930 . S
H1863 C1860 0.929 . S
S1864 N1865 1.613 . S
S1864 N1866 1.610 . S
N1865 S1864 1.613 . S
N1865 C1868 1.350 . S
N1866 S1864 1.610 . S
N1866 C1867 1.351 . S
C1867 C1861 1.428 . S
C1867 N1866 1.351 . S
C1867 C1868 1.434 . S
C1868 C1859 1.429 . S
C1868 N1865 1.350 . S
C1868 C1867 1.434 . S
C1869 C1870 1.369 . S
C1869 C1871 1.419 1_455 S
C1869 H1873 0.930 1_545 S
C1870 C1869 1.369 . S
C1870 C1879 1.429 . S
C1871 C1869 1.419 1_655 S
C1871 C1872 1.363 . S
C1871 H1874 0.929 1_545 S
C1872 C1871 1.363 . S
C1872 C1878 1.428 . S
H1873 C1869 0.930 1_565 S
H1874 C1871 0.929 1_565 S
S1875 N1876 1.616 1_655 S
S1875 N1877 1.607 . S
N1876 S1875 1.616 1_455 S
N1876 C1879 1.350 . S
N1877 S1875 1.607 . S
N1877 C1878 1.351 . S
C1878 C1872 1.428 . S
C1878 N1877 1.351 . S
C1878 C1879 1.434 1_655 S
C1879 C1870 1.429 . S
C1879 N1876 1.350 . S
C1879 C1878 1.434 1_455 S
C1880 C1881 1.369 . S
C1880 C1882 1.419 . S
C1880 H1884 0.930 . S
C1881 C1880 1.369 . S
C1881 C1890 1.429 . S
C1882 C1880 1.419 . S
C1882 C1883 1.363 . S
C1882 H1885 0.929 . S
C1883 C1882 1.363 . S
C1883 C1889 1.428 . S
H1884 C1880 0.930 . S
H1885 C1882 0.929 . S
S1886 N1887 1.613 . S
S1886 N1888 1.610 . S
N1887 S1886 1.613 . S
N1887 C1890 1.350 . S
N1888 S1886 1.610 . S
N1888 C1889 1.351 . S
C1889 C1883 1.428 . S
C1889 N1888 1.351 . S
C1889 C1890 1.434 . S
C1890 C1881 1.429 . S
C1890 N1887 1.350 . S
C1890 C1889 1.434 . S
C1891 C1892 1.369 . S
C1891 C1893 1.419 . S
C1891 H1895 0.930 . S
C1892 C1891 1.369 . S
C1892 C1901 1.429 . S
C1893 C1891 1.419 . S
C1893 C1894 1.363 . S
C1893 H1896 0.929 . S
C1894 C1893 1.363 . S
C1894 C1900 1.428 . S
H1895 C1891 0.930 . S
H1896 C1893 0.929 . S
S1897 N1898 1.613 . S
S1897 N1899 1.610 . S
N1898 S1897 1.613 . S
N1898 C1901 1.350 . S
N1899 S1897 1.610 . S
N1899 C1900 1.351 . S
C1900 C1894 1.428 . S
C1900 N1899 1.351 . S
C1900 C1901 1.434 . S
C1901 C1892 1.429 . S
C1901 N1898 1.350 . S
C1901 C1900 1.434 . S
C1902 C1903 1.369 . S
C1902 C1904 1.419 . S
C1902 H1906 0.930 . S
C1903 C1902 1.369 . S
C1903 C1912 1.429 . S
C1904 C1902 1.419 . S
C1904 C1905 1.363 . S
C1904 H1907 0.929 . S
C1905 C1904 1.363 . S
C1905 C1911 1.428 . S
H1906 C1902 0.930 . S
H1907 C1904 0.929 . S
S1908 N1909 1.613 . S
S1908 N1910 1.610 . S
N1909 S1908 1.613 . S
N1909 C1912 1.350 . S
N1910 S1908 1.610 . S
N1910 C1911 1.351 . S
C1911 C1905 1.428 . S
C1911 N1910 1.351 . S
C1911 C1912 1.434 . S
C1912 C1903 1.429 . S
C1912 N1909 1.350 . S
C1912 C1911 1.434 . S
C1913 C1914 1.369 . S
C1913 C1915 1.419 . S
C1913 H1917 0.930 . S
C1914 C1913 1.369 . S
C1914 C1923 1.429 . S
C1915 C1913 1.419 . S
C1915 C1916 1.363 . S
C1915 H1918 0.929 . S
C1916 C1915 1.363 . S
C1916 C1922 1.428 . S
H1917 C1913 0.930 . S
H1918 C1915 0.929 . S
S1919 N1920 1.613 . S
S1919 N1921 1.610 . S
N1920 S1919 1.613 . S
N1920 C1923 1.350 . S
N1921 S1919 1.610 . S
N1921 C1922 1.351 . S
C1922 C1916 1.428 . S
C1922 N1921 1.351 . S
C1922 C1923 1.434 . S
C1923 C1914 1.429 . S
C1923 N1920 1.350 . S
C1923 C1922 1.434 . S
C1924 C1925 1.369 . S
C1924 C1926 1.419 . S
C1924 H1928 0.930 . S
C1925 C1924 1.369 . S
C1925 C1934 1.429 . S
C1926 C1924 1.419 . S
C1926 C1927 1.363 . S
C1926 H1929 0.929 . S
C1927 C1926 1.363 . S
C1927 C1933 1.428 . S
H1928 C1924 0.930 . S
H1929 C1926 0.929 . S
S1930 N1931 1.613 . S
S1930 N1932 1.610 . S
N1931 S1930 1.613 . S
N1931 C1934 1.350 . S
N1932 S1930 1.610 . S
N1932 C1933 1.351 . S
C1933 C1927 1.428 . S
C1933 N1932 1.351 . S
C1933 C1934 1.434 . S
C1934 C1925 1.429 . S
C1934 N1931 1.350 . S
C1934 C1933 1.434 . S
C1935 C1936 1.369 . S
C1935 C1937 1.419 1_455 S
C1935 H1939 0.930 . S
C1936 C1935 1.369 . S
C1936 C1945 1.429 . S
C1937 C1935 1.419 1_655 S
C1937 C1938 1.363 . S
C1937 H1940 0.929 . S
C1938 C1937 1.363 . S
C1938 C1944 1.428 . S
H1939 C1935 0.930 . S
H1940 C1937 0.929 . S
S1941 N1942 1.616 1_655 S
S1941 N1943 1.607 . S
N1942 S1941 1.616 1_455 S
N1942 C1945 1.350 . S
N1943 S1941 1.607 . S
N1943 C1944 1.351 . S
C1944 C1938 1.428 . S
C1944 N1943 1.351 . S
C1944 C1945 1.434 1_655 S
C1945 C1936 1.429 . S
C1945 N1942 1.350 . S
C1945 C1944 1.434 1_455 S
C1946 C1947 1.369 . S
C1946 C1948 1.419 1_455 S
C1946 H1950 0.930 . S
C1947 C1946 1.369 . S
C1947 C1956 1.429 . S
C1948 C1946 1.419 1_655 S
C1948 C1949 1.363 . S
C1948 H1951 0.929 . S
C1949 C1948 1.363 . S
C1949 C1955 1.428 . S
H1950 C1946 0.930 . S
H1951 C1948 0.929 . S
S1952 N1953 1.616 1_655 S
S1952 N1954 1.607 . S
N1953 S1952 1.616 1_455 S
N1953 C1956 1.350 . S
N1954 S1952 1.607 . S
N1954 C1955 1.351 . S
C1955 C1949 1.428 . S
C1955 N1954 1.351 . S
C1955 C1956 1.434 1_655 S
C1956 C1947 1.429 . S
C1956 N1953 1.350 . S
C1956 C1955 1.434 1_455 S
C1957 C1958 1.369 . S
C1957 C1959 1.419 . S
C1957 H1961 0.930 . S
C1958 C1957 1.369 . S
C1958 C1967 1.429 . S
C1959 C1957 1.419 . S
C1959 C1960 1.363 . S
C1959 H1962 0.929 . S
C1960 C1959 1.363 . S
C1960 C1966 1.428 . S
H1961 C1957 0.930 . S
H1962 C1959 0.929 . S
S1963 N1964 1.613 . S
S1963 N1965 1.610 . S
N1964 S1963 1.613 . S
N1964 C1967 1.350 . S
N1965 S1963 1.610 . S
N1965 C1966 1.351 . S
C1966 C1960 1.428 . S
C1966 N1965 1.351 . S
C1966 C1967 1.434 . S
C1967 C1958 1.429 . S
C1967 N1964 1.350 . S
C1967 C1966 1.434 . S
C1089 C43 1.907 1_545 S
C1091 C33 1.819 . S
C1100 C67 1.820 . S
C1102 C77 1.905 . S
C1111 C101 1.817 . S
C1113 C111 1.904 1_565 S
C1122 C135 1.818 . S
C1124 C9 1.904 . S
C1133 C169 1.811 . S
C1135 C247 1.903 1_565 S
C1144 C145 1.904 . S
C1146 C203 1.817 . S
C1155 C237 1.811 . S
C1157 C179 1.904 1_545 S
C1166 C271 1.820 . S
C1168 C213 1.906 . S
C1177 C315 1.907 1_565 S
C1179 C305 1.818 . S
C1188 C349 1.907 . S
C1190 C339 1.819 . S
C1199 C373 1.813 . S
C1201 C383 1.903 1_545 S
C1210 C281 1.907 . S
C1212 C407 1.815 . S
C1221 C441 1.811 . S
C1223 C519 1.904 1_545 S
C1232 C475 1.812 . S
C1234 C417 1.903 . S
C1243 C451 1.903 1_565 S
C1245 C509 1.814 . S
C1254 C485 1.907 . S
C1256 C543 1.816 . S
C1265 C587 1.904 . S
C1267 C577 1.812 . S
C1276 C611 1.818 . S
C1278 C621 1.907 . S
C1287 C655 1.904 . S
C1289 C645 1.818 . S
C1298 C553 1.907 . S
C1300 C679 1.819 . S
C1309 C791 1.905 . S
C1311 C713 1.819 . S
C1320 C747 1.819 . S
C1322 C689 1.907 . S
C1331 C723 1.903 . S
C1333 C781 1.814 . S
C1342 C815 1.820 . S
C1344 C757 1.905 . S
C1353 C859 1.906 . S
C1355 C849 1.820 . S
C1364 C883 1.820 . S
C1366 C893 1.906 . S
C1375 C917 1.812 . S
C1377 C927 1.903 . S
C1386 C951 1.812 . S
C1388 C825 1.903 . S
C1397 C1063 1.903 . S
C1399 C985 1.817 . S
C1408 C961 1.903 . S
C1410 C1019 1.814 . S
C1419 C995 1.903 . S
C1421 C1053 1.814 . S
C1430 C1029 1.907 . S
C1432 C1087 1.816 . S
C1441 C209 1.014 . S
C1443 C5 1.017 . S
C1452 C39 1.014 . S
C1454 C243 1.019 . S
C1463 C73 1.021 . S
C1465 C141 1.017 . S
C1474 C107 1.014 . S
C1476 C175 1.020 . S
C1485 C481 1.019 . S
C1487 C277 1.015 . S
C1496 C515 1.016 . S
C1498 C311 1.020 . S
C1507 C345 1.016 . S
C1509 C413 1.020 . S
C1518 C447 1.015 . S
C1520 C379 1.015 . S
C1529 C549 1.018 . S
C1531 C753 1.014 . S
C1540 C583 1.019 . S
C1542 C787 1.015 . S
C1551 C685 1.021 . S
C1553 C617 1.019 . S
C1562 C719 1.020 . S
C1564 C651 1.015 . S
C1573 C1025 1.017 . S
C1575 C821 1.014 . S
C1584 C1059 1.021 . S
C1586 C855 1.016 . S
C1595 C957 1.018 . S
C1597 C889 1.020 . S
C1606 C991 1.019 . S
C1608 C923 1.020 . S
C1617 C172 1.118 . S
C1619 C2 1.108 . S
C1628 C36 1.107 . S
C1630 C206 1.117 . S
C1639 C70 1.111 . S
C1641 C240 1.113 . S
C1650 C104 1.107 . S
C1652 C138 1.117 . S
C1661 C444 1.107 . S
C1663 C274 1.117 . S
C1672 C308 1.114 . S
C1674 C478 1.112 . S
C1683 C512 1.117 . S
C1685 C342 1.109 . S
C1694 C376 1.116 . S
C1696 C410 1.110 . S
C1705 C546 1.114 . S
C1707 C716 1.112 . S
C1716 C750 1.114 . S
C1718 C580 1.111 . S
C1727 C784 1.109 . S
C1729 C614 1.115 . S
C1738 C648 1.117 . S
C1740 C682 1.109 . S
C1749 C818 1.118 . S
C1751 C988 1.109 . S
C1760 C1022 1.113 . S
C1762 C852 1.113 . S
C1771 C1056 1.118 . S
C1773 C886 1.108 . S
C1782 C954 1.115 . S
C1784 C920 1.110 . S
C1793 C20 1.553 . S
C1795 C1040 1.552 . S
C1804 C530 1.548 . S
C1806 C54 1.549 . S
C1815 C972 1.548 . S
C1817 C88 1.549 . S
C1826 C122 1.548 . S
C1828 C462 1.549 . S
C1837 C156 1.548 . S
C1839 C904 1.549 . S
C1848 C394 1.553 . S
C1850 C190 1.552 . S
C1859 C224 1.552 . S
C1861 C836 1.552 . S
C1870 C258 1.554 . S
C1872 C326 1.553 . S
C1881 C292 1.549 . S
C1883 C768 1.549 . S
C1892 C360 1.552 . S
C1894 C700 1.552 . S
C1903 C428 1.548 . S
C1905 C632 1.548 . S
C1914 C496 1.550 . S
C1916 C564 1.550 . S
C1925 C598 1.550 . S
C1927 C1074 1.550 . S
C1936 C1006 1.553 . S
C1938 C666 1.552 . S
C1947 C938 1.550 . S
C1949 C734 1.550 . S
C1958 C870 1.553 . S
C1960 C802 1.553 . S
