# Generated by pormake.
# Topology gis, (4)-cn, num edge types: 1
# Building blocks:
#     Node 0, Type 0, BuildingBlock: KUFVIS_clean_sbu_0, # of connection points: 4
#     Node 1, Type 0, BuildingBlock: KUFVIS_clean_sbu_0, # of connection points: 4
#     Node 2, Type 0, BuildingBlock: KUFVIS_clean_sbu_0, # of connection points: 4
#     Node 3, Type 0, BuildingBlock: KUFVIS_clean_sbu_0, # of connection points: 4
#     Node 4, Type 0, BuildingBlock: KUFVIS_clean_sbu_0, # of connection points: 4
#     Node 5, Type 0, BuildingBlock: KUFVIS_clean_sbu_0, # of connection points: 4
#     Node 6, Type 0, BuildingBlock: KUFVIS_clean_sbu_0, # of connection points: 4
#     Node 7, Type 0, BuildingBlock: KUFVIS_clean_sbu_0, # of connection points: 4
#     Node 8, Type 0, BuildingBlock: KUFVIS_clean_sbu_0, # of connection points: 4
#     Node 9, Type 0, BuildingBlock: KUFVIS_clean_sbu_0, # of connection points: 4
#     Node 10, Type 0, BuildingBlock: KUFVIS_clean_sbu_0, # of connection points: 4
#     Node 11, Type 0, BuildingBlock: KUFVIS_clean_sbu_0, # of connection points: 4
#     Node 12, Type 0, BuildingBlock: KUFVIS_clean_sbu_0, # of connection points: 4
#     Node 13, Type 0, BuildingBlock: KUFVIS_clean_sbu_0, # of connection points: 4
#     Node 14, Type 0, BuildingBlock: KUFVIS_clean_sbu_0, # of connection points: 4
#     Node 15, Type 0, BuildingBlock: KUFVIS_clean_sbu_0, # of connection points: 4
#     Edge 16, Type (0, 0), BuildingBlock: KIFKEQ_clean_linker_1, # of connection points: 2
#     Edge 17, Type (0, 0), BuildingBlock: KIFKEQ_clean_linker_1, # of connection points: 2
#     Edge 18, Type (0, 0), BuildingBlock: KIFKEQ_clean_linker_1, # of connection points: 2
#     Edge 19, Type (0, 0), BuildingBlock: KIFKEQ_clean_linker_1, # of connection points: 2
#     Edge 20, Type (0, 0), BuildingBlock: KIFKEQ_clean_linker_1, # of connection points: 2
#     Edge 21, Type (0, 0), BuildingBlock: KIFKEQ_clean_linker_1, # of connection points: 2
#     Edge 22, Type (0, 0), BuildingBlock: KIFKEQ_clean_linker_1, # of connection points: 2
#     Edge 23, Type (0, 0), BuildingBlock: KIFKEQ_clean_linker_1, # of connection points: 2
#     Edge 24, Type (0, 0), BuildingBlock: KIFKEQ_clean_linker_1, # of connection points: 2
#     Edge 25, Type (0, 0), BuildingBlock: KIFKEQ_clean_linker_1, # of connection points: 2
#     Edge 26, Type (0, 0), BuildingBlock: KIFKEQ_clean_linker_1, # of connection points: 2
#     Edge 27, Type (0, 0), BuildingBlock: KIFKEQ_clean_linker_1, # of connection points: 2
#     Edge 28, Type (0, 0), BuildingBlock: KIFKEQ_clean_linker_1, # of connection points: 2
#     Edge 29, Type (0, 0), BuildingBlock: KIFKEQ_clean_linker_1, # of connection points: 2
#     Edge 30, Type (0, 0), BuildingBlock: KIFKEQ_clean_linker_1, # of connection points: 2
#     Edge 31, Type (0, 0), BuildingBlock: KIFKEQ_clean_linker_1, # of connection points: 2
#     Edge 32, Type (0, 0), BuildingBlock: KIFKEQ_clean_linker_1, # of connection points: 2
#     Edge 33, Type (0, 0), BuildingBlock: KIFKEQ_clean_linker_1, # of connection points: 2
#     Edge 34, Type (0, 0), BuildingBlock: KIFKEQ_clean_linker_1, # of connection points: 2
#     Edge 35, Type (0, 0), BuildingBlock: KIFKEQ_clean_linker_1, # of connection points: 2
#     Edge 36, Type (0, 0), BuildingBlock: KIFKEQ_clean_linker_1, # of connection points: 2
#     Edge 37, Type (0, 0), BuildingBlock: KIFKEQ_clean_linker_1, # of connection points: 2
#     Edge 38, Type (0, 0), BuildingBlock: KIFKEQ_clean_linker_1, # of connection points: 2
#     Edge 39, Type (0, 0), BuildingBlock: KIFKEQ_clean_linker_1, # of connection points: 2
#     Edge 40, Type (0, 0), BuildingBlock: KIFKEQ_clean_linker_1, # of connection points: 2
#     Edge 41, Type (0, 0), BuildingBlock: KIFKEQ_clean_linker_1, # of connection points: 2
#     Edge 42, Type (0, 0), BuildingBlock: KIFKEQ_clean_linker_1, # of connection points: 2
#     Edge 43, Type (0, 0), BuildingBlock: KIFKEQ_clean_linker_1, # of connection points: 2
#     Edge 44, Type (0, 0), BuildingBlock: KIFKEQ_clean_linker_1, # of connection points: 2
#     Edge 45, Type (0, 0), BuildingBlock: KIFKEQ_clean_linker_1, # of connection points: 2
#     Edge 46, Type (0, 0), BuildingBlock: KIFKEQ_clean_linker_1, # of connection points: 2
#     Edge 47, Type (0, 0), BuildingBlock: KIFKEQ_clean_linker_1, # of connection points: 2
# Relax obj value: 0.089
# Max RMSD: 0.145
# Mean RMSD: 0.139
data_MOF--net-gis--node1-KUFVIS_clean_sbu_0--edge1-KIFKEQ_clean_linker_1
_symmetry_space_group_name_H-M    P1
_symmetry_Int_Tables_number       1
_symmetry_cell_setting            triclinic
loop_
_symmetry_equiv_pos_as_xyz
'x, y, z'
_cell_length_a     50.833797
_cell_length_b     54.72342
_cell_length_c     38.882806
_cell_angle_alpha  90.487365
_cell_angle_beta   90.290317
_cell_angle_gamma 90.07777
loop_
_atom_site_label
_atom_site_type_symbol
_atom_site_fract_x
_atom_site_fract_y
_atom_site_fract_z
_atom_type_partial_charge
Mn0 Mn 0.13656 0.60863 0.11004 0.0
Mn1 Mn 0.10293 0.63082 0.17801 0.0
C2 C 0.09176 0.61422 0.10555 0.0
C3 C 0.15389 0.5741 0.08263 0.0
C4 C 0.13678 0.6625 0.13165 0.0
O5 O 0.16222 0.60522 0.14988 0.0
O6 O 0.13667 0.6165 0.19444 0.0
C7 C 0.09106 0.58421 0.2127 0.0
N8 N 0.0826 0.60534 0.19813 0.0
C9 C 0.03744 0.59562 0.21032 0.0
C10 C 0.04568 0.57381 0.22568 0.0
C11 C 0.0726 0.56805 0.22677 0.0
C12 C 0.05674 0.61099 0.19673 0.0
H13 H 0.11174 0.57972 0.21352 0.0
C14 C 0.15826 0.60832 0.182 0.0
O15 O 0.16309 0.59577 0.07624 0.0
O16 O 0.13509 0.57262 0.10479 0.0
N17 N 0.06986 0.64529 0.16627 0.0
C18 C 0.06512 0.6666 0.14946 0.0
C19 C 0.0391 0.67475 0.14547 0.0
C20 C 0.01829 0.66108 0.15916 0.0
C21 C 0.02369 0.63943 0.17687 0.0
C22 C 0.05002 0.63226 0.18013 0.0
H23 H 0.08105 0.67725 0.13902 0.0
O24 O 0.106 0.61209 0.07813 0.0
O25 O 0.1041 0.61236 0.13479 0.0
O26 O 0.14299 0.64601 0.10952 0.0
O27 O 0.12278 0.65821 0.15819 0.0
C28 C 0.00398 0.62453 0.19105 0.0
C29 C 0.01083 0.60257 0.20759 0.0
H30 H 0.0315 0.56128 0.2365 0.0
H31 H 0.0791 0.5512 0.23843 0.0
H32 H 0.0351 0.6915 0.13183 0.0
H33 H 0.99823 0.66732 0.15581 0.0
H34 H 0.98346 0.62963 0.189 0.0
H35 H 0.99546 0.59108 0.21794 0.0
Mn36 Mn 0.65308 0.87986 0.39527 0.0
Mn37 Mn 0.63976 0.85739 0.47394 0.0
C38 C 0.64962 0.83807 0.40249 0.0
C39 C 0.68414 0.89325 0.3558 0.0
C40 C 0.59822 0.87955 0.42706 0.0
O41 O 0.65958 0.90911 0.42691 0.0
O42 O 0.65365 0.89132 0.47826 0.0
C43 C 0.69437 0.85507 0.50045 0.0
N44 N 0.67108 0.84378 0.49318 0.0
C45 C 0.68728 0.80541 0.51428 0.0
C46 C 0.71139 0.81666 0.52223 0.0
C47 C 0.71496 0.84158 0.51519 0.0
C48 C 0.66749 0.81978 0.49964 0.0
H49 H 0.69721 0.87421 0.49497 0.0
C50 C 0.65969 0.90973 0.45971 0.0
O51 O 0.65969 0.89996 0.3534 0.0
O52 O 0.69046 0.87949 0.3815 0.0
N53 N 0.62624 0.82473 0.47442 0.0
C54 C 0.60201 0.81652 0.46452 0.0
C55 C 0.5954 0.79187 0.46936 0.0
C56 C 0.61359 0.776 0.48475 0.0
C57 C 0.63817 0.78499 0.49544 0.0
C58 C 0.64361 0.80977 0.49013 0.0
H59 H 0.58791 0.82863 0.45276 0.0
O60 O 0.64762 0.8476 0.3722 0.0
O61 O 0.65446 0.85322 0.42777 0.0
O62 O 0.61321 0.88386 0.40151 0.0
O63 O 0.60644 0.8704 0.45533 0.0
C64 C 0.65768 0.77025 0.51058 0.0
C65 C 0.68224 0.78043 0.5199 0.0
H66 H 0.72734 0.8063 0.53353 0.0
H67 H 0.73355 0.85037 0.5211 0.0
H68 H 0.57635 0.78509 0.46113 0.0
H69 H 0.60852 0.75694 0.48811 0.0
H70 H 0.6541 0.75099 0.51482 0.0
H71 H 0.69718 0.76885 0.53118 0.0
Mn72 Mn 0.3577 0.40441 0.60569 0.0
Mn73 Mn 0.38361 0.38111 0.67811 0.0
C74 C 0.40279 0.39781 0.6091 0.0
C75 C 0.34379 0.43886 0.57561 0.0
C76 C 0.35245 0.3512 0.62556 0.0
O77 O 0.32833 0.40829 0.64129 0.0
O78 O 0.35103 0.39912 0.6895 0.0
C79 C 0.39816 0.42654 0.71541 0.0
N80 N 0.40504 0.4044 0.70201 0.0
C81 C 0.44973 0.40933 0.72134 0.0
C82 C 0.44307 0.43204 0.7358 0.0
C83 C 0.41717 0.4407 0.73275 0.0
C84 C 0.42987 0.39587 0.70479 0.0
H85 H 0.37837 0.43339 0.71266 0.0
C86 C 0.33058 0.40721 0.67401 0.0
O87 O 0.3347 0.41724 0.56812 0.0
O88 O 0.36036 0.44043 0.60098 0.0
N89 N 0.41544 0.36334 0.67061 0.0
C90 C 0.41918 0.3421 0.65271 0.0
C91 C 0.44432 0.33153 0.65179 0.0
C92 C 0.4653 0.34287 0.66929 0.0
C93 C 0.46088 0.36458 0.68774 0.0
C94 C 0.43535 0.37406 0.68825 0.0
H95 H 0.4032 0.33331 0.63908 0.0
O96 O 0.39139 0.40039 0.57944 0.0
O97 O 0.38755 0.3997 0.63571 0.0
O98 O 0.35065 0.36747 0.60233 0.0
O99 O 0.36248 0.35537 0.65523 0.0
C100 C 0.48106 0.37777 0.70431 0.0
C101 C 0.47554 0.40004 0.72132 0.0
H102 H 0.45778 0.44316 0.74876 0.0
H103 H 0.41193 0.45832 0.74351 0.0
H104 H 0.44755 0.31479 0.6374 0.0
H105 H 0.48479 0.33493 0.66801 0.0
H106 H 0.50104 0.37141 0.70261 0.0
H107 H 0.4914 0.41032 0.73322 0.0
Mn108 Mn 0.85329 0.10801 0.90341 0.0
Mn109 Mn 0.87721 0.12989 0.82925 0.0
C110 C 0.89825 0.11356 0.89791 0.0
C111 C 0.83974 0.07441 0.93529 0.0
C112 C 0.84835 0.16087 0.88208 0.0
O113 O 0.82275 0.10414 0.86919 0.0
O114 O 0.84343 0.11304 0.81967 0.0
C115 C 0.88848 0.08394 0.79157 0.0
N116 N 0.89687 0.10569 0.80493 0.0
C117 C 0.94097 0.09854 0.78524 0.0
C118 C 0.9328 0.07612 0.77105 0.0
C119 C 0.90642 0.06881 0.77421 0.0
C120 C 0.92211 0.11305 0.80171 0.0
H121 H 0.86827 0.07817 0.79427 0.0
C122 C 0.82335 0.10552 0.83636 0.0
O123 O 0.83134 0.09628 0.94246 0.0
O124 O 0.85527 0.07208 0.90914 0.0
N125 N 0.90996 0.1466 0.83523 0.0
C126 C 0.9151 0.16776 0.85276 0.0
C127 C 0.94084 0.17709 0.85344 0.0
C128 C 0.96097 0.16455 0.83619 0.0
C129 C 0.95508 0.14293 0.81811 0.0
C130 C 0.92902 0.13477 0.81771 0.0
H131 H 0.89978 0.17736 0.86639 0.0
O132 O 0.88775 0.11179 0.92811 0.0
O133 O 0.88213 0.11161 0.87192 0.0
O134 O 0.84715 0.14509 0.90597 0.0
O135 O 0.85768 0.15641 0.85229 0.0
C136 C 0.97432 0.12852 0.802 0.0
C137 C 0.96732 0.1065 0.78518 0.0
H138 H 0.94669 0.06422 0.75816 0.0
H139 H 0.9 0.05146 0.76353 0.0
H140 H 0.9452 0.19375 0.86756 0.0
H141 H 0.98094 0.17147 0.8374 0.0
H142 H 0.9947 0.13367 0.80413 0.0
H143 H 0.98248 0.09534 0.77352 0.0
Mn144 Mn 0.16332 0.38474 0.89204 0.0
Mn145 Mn 0.14963 0.35906 0.96868 0.0
C146 C 0.16079 0.34278 0.89595 0.0
C147 C 0.19357 0.4006 0.85341 0.0
C148 C 0.10774 0.37994 0.92195 0.0
O149 O 0.16877 0.41304 0.9255 0.0
O150 O 0.15942 0.39415 0.97505 0.0
C151 C 0.20382 0.36134 0.99672 0.0
N152 N 0.18206 0.34805 0.98814 0.0
C153 C 0.20252 0.3108 0.00687 0.0
C154 C 0.2251 0.32412 0.01614 0.0
C155 C 0.22576 0.3495 0.01096 0.0
C156 C 0.18128 0.32361 0.99278 0.0
H157 H 0.20445 0.38083 0.99264 0.0
C158 C 0.16598 0.41315 0.95802 0.0
O159 O 0.16889 0.40665 0.85193 0.0
O160 O 0.20066 0.38607 0.87794 0.0
N161 N 0.13971 0.32532 0.96762 0.0
C162 C 0.11631 0.3152 0.95773 0.0
C163 C 0.11246 0.28992 0.96109 0.0
C164 C 0.13247 0.27538 0.97522 0.0
C165 C 0.15603 0.28632 0.98627 0.0
C166 C 0.1587 0.31163 0.98239 0.0
H167 H 0.10082 0.3263 0.94699 0.0
O168 O 0.15891 0.35353 0.86649 0.0
O169 O 0.16533 0.35688 0.92262 0.0
O170 O 0.12328 0.3871 0.89829 0.0
O171 O 0.11553 0.36933 0.94935 0.0
C172 C 0.17709 0.27308 0.0006 0.0
C173 C 0.20035 0.2853 0.01081 0.0
H174 H 0.24207 0.31505 0.02709 0.0
H175 H 0.24315 0.35989 0.01791 0.0
H176 H 0.09414 0.28164 0.95274 0.0
H177 H 0.12951 0.25585 0.9775 0.0
H178 H 0.17567 0.25347 0.0037 0.0
H179 H 0.21647 0.2749 0.02162 0.0
Mn180 Mn 0.85721 0.89315 0.11591 0.0
Mn181 Mn 0.88146 0.86331 0.18482 0.0
C182 C 0.9021 0.88554 0.12013 0.0
C183 C 0.84391 0.92859 0.08782 0.0
C184 C 0.85678 0.83741 0.12429 0.0
O185 O 0.82663 0.89557 0.14949 0.0
O186 O 0.84465 0.8737 0.19196 0.0
C187 C 0.88112 0.90607 0.23201 0.0
N188 N 0.89409 0.88691 0.21735 0.0
C189 C 0.93161 0.89319 0.25422 0.0
C190 C 0.9187 0.91299 0.26981 0.0
C191 C 0.89343 0.91961 0.2584 0.0
C192 C 0.91868 0.88091 0.22731 0.0
H193 H 0.86148 0.91086 0.22382 0.0
C194 C 0.82552 0.88561 0.1789 0.0
O195 O 0.83515 0.90721 0.07866 0.0
O196 O 0.85996 0.92945 0.1139 0.0
N197 N 0.91681 0.85162 0.18358 0.0
C198 C 0.92663 0.83227 0.16551 0.0
C199 C 0.95152 0.82299 0.17411 0.0
C200 C 0.96563 0.8332 0.20186 0.0
C201 C 0.95517 0.85316 0.22003 0.0
C202 C 0.93049 0.86185 0.20993 0.0
H203 H 0.91533 0.82369 0.14514 0.0
O204 O 0.89097 0.89 0.09077 0.0
O205 O 0.88685 0.88649 0.14701 0.0
O206 O 0.84983 0.85651 0.10802 0.0
O207 O 0.8694 0.83774 0.15269 0.0
C208 C 0.96808 0.86455 0.2481 0.0
C209 C 0.95657 0.88487 0.26471 0.0
H210 H 0.92794 0.92318 0.29061 0.0
H211 H 0.88332 0.93485 0.2703 0.0
H212 H 0.9595 0.8076 0.15998 0.0
H213 H 0.98445 0.82553 0.20913 0.0
H214 H 0.98705 0.85802 0.25685 0.0
H215 H 0.96692 0.89375 0.28579 0.0
Mn216 Mn 0.3562 0.61707 0.38747 0.0
Mn217 Mn 0.37678 0.63772 0.3109 0.0
C218 C 0.40083 0.62259 0.37763 0.0
C219 C 0.3438 0.5839 0.4212 0.0
C220 C 0.35292 0.67044 0.36613 0.0
O221 O 0.32374 0.61294 0.35672 0.0
O222 O 0.34148 0.62288 0.30587 0.0
C223 C 0.38193 0.59065 0.27357 0.0
N224 N 0.39273 0.61203 0.28499 0.0
C225 C 0.43237 0.60471 0.25315 0.0
C226 C 0.42173 0.58259 0.24099 0.0
C227 C 0.39649 0.57541 0.25155 0.0
C228 C 0.41732 0.61869 0.27599 0.0
H229 H 0.36227 0.58541 0.28098 0.0
C230 C 0.32243 0.61502 0.32408 0.0
O231 O 0.33622 0.60597 0.42871 0.0
O232 O 0.35816 0.58119 0.39399 0.0
N233 N 0.41078 0.65262 0.31138 0.0
C234 C 0.41816 0.67449 0.32545 0.0
C235 C 0.44298 0.68422 0.31773 0.0
C236 C 0.45955 0.6718 0.29472 0.0
C237 C 0.45137 0.64948 0.28021 0.0
C238 C 0.42677 0.64033 0.28966 0.0
H239 H 0.40515 0.68456 0.34221 0.0
O240 O 0.39191 0.62104 0.40872 0.0
O241 O 0.38354 0.61991 0.35322 0.0
O242 O 0.35057 0.65431 0.38949 0.0
O243 O 0.36127 0.66557 0.33591 0.0
C244 C 0.46629 0.63632 0.25595 0.0
C245 C 0.45701 0.61376 0.24283 0.0
H246 H 0.43268 0.57105 0.22341 0.0
H247 H 0.38811 0.55839 0.24224 0.0
H248 H 0.44908 0.70152 0.32889 0.0
H249 H 0.4784 0.67969 0.28814 0.0
H250 H 0.48494 0.64344 0.24713 0.0
H251 H 0.46884 0.60367 0.2245 0.0
Mn252 Mn 0.63976 0.10475 0.61574 0.0
Mn253 Mn 0.60959 0.13156 0.6833 0.0
C254 C 0.59573 0.1143 0.61182 0.0
C255 C 0.65326 0.06848 0.58914 0.0
C256 C 0.64559 0.15866 0.63448 0.0
O257 O 0.66563 0.10018 0.65527 0.0
O258 O 0.64185 0.11463 0.69969 0.0
C259 C 0.59337 0.08705 0.72033 0.0
N260 N 0.58696 0.10851 0.70496 0.0
C261 C 0.54113 0.10304 0.71806 0.0
C262 C 0.54726 0.08095 0.73426 0.0
C263 C 0.57349 0.07289 0.73531 0.0
C264 C 0.56178 0.11636 0.70362 0.0
H265 H 0.61351 0.08078 0.72109 0.0
C266 C 0.66244 0.10441 0.68731 0.0
O267 O 0.66462 0.08916 0.58221 0.0
O268 O 0.63467 0.06899 0.61177 0.0
N269 N 0.57805 0.1487 0.67155 0.0
C270 C 0.57535 0.17001 0.654 0.0
C271 C 0.55025 0.18035 0.65006 0.0
C272 C 0.52826 0.16884 0.66451 0.0
C273 C 0.53159 0.14716 0.68298 0.0
C274 C 0.5571 0.13778 0.68622 0.0
H275 H 0.59218 0.179 0.64293 0.0
O276 O 0.6093 0.11009 0.58425 0.0
O277 O 0.60818 0.11201 0.64094 0.0
O278 O 0.6496 0.14122 0.61304 0.0
O279 O 0.63199 0.15659 0.66186 0.0
C280 C 0.51057 0.13431 0.69792 0.0
C281 C 0.51532 0.1122 0.7153 0.0
H282 H 0.53197 0.06995 0.74576 0.0
H283 H 0.57835 0.05581 0.74761 0.0
H284 H 0.54786 0.19712 0.63584 0.0
H285 H 0.5089 0.17675 0.66117 0.0
H286 H 0.49064 0.14112 0.69583 0.0
H287 H 0.49894 0.10232 0.72626 0.0
Mn288 Mn 0.86659 0.393 0.88854 0.0
Mn289 Mn 0.8973 0.37005 0.81886 0.0
C290 C 0.91127 0.3865 0.89072 0.0
C291 C 0.85057 0.42777 0.91634 0.0
C292 C 0.8641 0.33942 0.86739 0.0
O293 O 0.8397 0.39637 0.85021 0.0
O294 O 0.86379 0.38573 0.80401 0.0
C295 C 0.91015 0.41629 0.78377 0.0
N296 N 0.91813 0.39484 0.79791 0.0
C297 C 0.96336 0.40323 0.78434 0.0
C298 C 0.95561 0.42534 0.76939 0.0
C299 C 0.9289 0.43191 0.76919 0.0
C300 C 0.94378 0.38839 0.7984 0.0
H301 H 0.88965 0.42144 0.7837 0.0
C302 C 0.84264 0.3938 0.81784 0.0
O303 O 0.8411 0.40626 0.92317 0.0
O304 O 0.86891 0.42887 0.89343 0.0
N305 N 0.93003 0.35438 0.82907 0.0
C306 C 0.93434 0.33285 0.84552 0.0
C307 C 0.96011 0.32389 0.84856 0.0
C308 C 0.98114 0.337 0.83436 0.0
C309 C 0.97617 0.35889 0.81703 0.0
C310 C 0.95006 0.36685 0.81462 0.0
H311 H 0.91826 0.32264 0.85641 0.0
O312 O 0.89799 0.38923 0.91888 0.0
O313 O 0.89809 0.38849 0.86213 0.0
O314 O 0.85957 0.35602 0.88995 0.0
O315 O 0.87684 0.34327 0.83963 0.0
C316 C 0.99615 0.37331 0.80248 0.0
C317 C 0.98976 0.39551 0.78627 0.0
H318 H 0.97002 0.43748 0.75823 0.0
H319 H 0.92279 0.449 0.75787 0.0
H320 H 0.96377 0.30695 0.8619 0.0
H321 H 0.00102 0.33014 0.83703 0.0
H322 H 0.01652 0.36764 0.80398 0.0
H323 H 0.00533 0.4066 0.7756 0.0
Mn324 Mn 0.34447 0.12879 0.60671 0.0
Mn325 Mn 0.35854 0.14972 0.5274 0.0
C326 C 0.34637 0.17026 0.59772 0.0
C327 C 0.31407 0.11459 0.64634 0.0
C328 C 0.40011 0.13133 0.57689 0.0
O329 O 0.33956 0.0988 0.5765 0.0
O330 O 0.34792 0.11456 0.52447 0.0
C331 C 0.3046 0.14695 0.4986 0.0
N332 N 0.32653 0.16028 0.5063 0.0
C333 C 0.30697 0.19683 0.4837 0.0
C334 C 0.28425 0.18346 0.47529 0.0
C335 C 0.28305 0.15842 0.48283 0.0
C336 C 0.32786 0.18439 0.49928 0.0
H337 H 0.30355 0.12773 0.50453 0.0
C338 C 0.34158 0.09673 0.54397 0.0
O339 O 0.33885 0.1091 0.64898 0.0
O340 O 0.30702 0.12783 0.62035 0.0
N341 N 0.36908 0.18327 0.52551 0.0
C342 C 0.3923 0.19359 0.53565 0.0
C343 C 0.39651 0.21865 0.5304 0.0
C344 C 0.377 0.23274 0.51433 0.0
C345 C 0.35355 0.22158 0.50331 0.0
C346 C 0.35051 0.19651 0.50908 0.0
H347 H 0.40738 0.18285 0.54801 0.0
O348 O 0.34829 0.16145 0.62847 0.0
O349 O 0.34238 0.15449 0.57283 0.0
O350 O 0.38446 0.1263 0.60144 0.0
O351 O 0.39246 0.13987 0.548 0.0
C352 C 0.33288 0.23443 0.48736 0.0
C353 C 0.3096 0.22207 0.47761 0.0
H354 H 0.26754 0.19226 0.46324 0.0
H355 H 0.26553 0.14801 0.47658 0.0
H356 H 0.41471 0.22711 0.53884 0.0
H357 H 0.38021 0.25212 0.51063 0.0
H358 H 0.3346 0.25386 0.48275 0.0
H359 H 0.29376 0.23218 0.46563 0.0
Mn360 Mn 0.64323 0.60117 0.39284 0.0
Mn361 Mn 0.61874 0.62825 0.3219 0.0
C362 C 0.5982 0.60577 0.38661 0.0
C363 C 0.65768 0.56646 0.42184 0.0
C364 C 0.63906 0.6569 0.38255 0.0
O365 O 0.67464 0.60003 0.3607 0.0
O366 O 0.65683 0.62154 0.31768 0.0
C367 C 0.62612 0.58477 0.27709 0.0
N368 N 0.61019 0.6025 0.29027 0.0
C369 C 0.57297 0.58676 0.25879 0.0
C370 C 0.58899 0.56845 0.24468 0.0
C371 C 0.61569 0.56745 0.25392 0.0
C372 C 0.58448 0.60359 0.28164 0.0
H373 H 0.64662 0.58376 0.28423 0.0
C374 C 0.6762 0.61062 0.33181 0.0
O375 O 0.6651 0.58823 0.4314 0.0
O376 O 0.64249 0.56493 0.39503 0.0
N377 N 0.58219 0.63612 0.32055 0.0
C378 C 0.56947 0.65505 0.3362 0.0
C379 C 0.54258 0.65864 0.32968 0.0
C380 C 0.52923 0.643 0.3067 0.0
C381 C 0.54296 0.62422 0.28987 0.0
C382 C 0.56978 0.62171 0.29713 0.0
H383 H 0.57971 0.66712 0.35384 0.0
O384 O 0.60874 0.60256 0.41664 0.0
O385 O 0.61424 0.60558 0.36047 0.0
O386 O 0.64789 0.63858 0.39931 0.0
O387 O 0.62667 0.65523 0.35396 0.0
C388 C 0.53096 0.60735 0.26713 0.0
C389 C 0.54592 0.5887 0.25153 0.0
H390 H 0.58096 0.55499 0.22693 0.0
H391 H 0.62819 0.55331 0.24329 0.0
H392 H 0.5321 0.67322 0.34262 0.0
H393 H 0.50838 0.64532 0.30271 0.0
H394 H 0.51016 0.60815 0.26195 0.0
H395 H 0.53636 0.5758 0.23425 0.0
Mn396 Mn 0.14538 0.89502 0.09945 0.0
Mn397 Mn 0.12209 0.87508 0.17479 0.0
C398 C 0.10051 0.88796 0.10494 0.0
C399 C 0.15809 0.92887 0.06723 0.0
C400 C 0.15185 0.84297 0.12384 0.0
O401 O 0.17596 0.9003 0.13335 0.0
O402 O 0.15477 0.89396 0.18325 0.0
C403 C 0.10811 0.92243 0.2071 0.0
N404 N 0.10099 0.89962 0.19626 0.0
C405 C 0.0562 0.90625 0.21349 0.0
C406 C 0.06311 0.92968 0.22532 0.0
C407 C 0.08919 0.93781 0.22206 0.0
C408 C 0.07598 0.89162 0.1992 0.0
H409 H 0.12802 0.9289 0.2041 0.0
C410 C 0.17479 0.90103 0.16616 0.0
O411 O 0.16709 0.90716 0.06018 0.0
O412 O 0.1422 0.93077 0.093 0.0
N413 N 0.09028 0.85669 0.17025 0.0
C414 C 0.08659 0.83402 0.15624 0.0
C415 C 0.06141 0.82348 0.15653 0.0
C416 C 0.04035 0.83634 0.17123 0.0
C417 C 0.04478 0.85944 0.18606 0.0
C418 C 0.07036 0.86881 0.18565 0.0
H419 H 0.10263 0.82407 0.14471 0.0
O420 O 0.11096 0.88984 0.07474 0.0
O421 O 0.11655 0.89108 0.13074 0.0
O422 O 0.15237 0.85799 0.09884 0.0
O423 O 0.14308 0.84841 0.15375 0.0
C424 C 0.02465 0.87392 0.2001 0.0
C425 C 0.03029 0.89719 0.21412 0.0
H426 H 0.04848 0.9417 0.23646 0.0
H427 H 0.09463 0.95596 0.23079 0.0
H428 H 0.05818 0.80563 0.14507 0.0
H429 H 0.02085 0.82843 0.17051 0.0
H430 H 0.00462 0.86772 0.19888 0.0
H431 H 0.01443 0.9082 0.22441 0.0
Mn432 Mn 0.84081 0.61646 0.10672 0.0
Mn433 Mn 0.85263 0.63818 0.02716 0.0
C434 C 0.84364 0.65804 0.0985 0.0
C435 C 0.81106 0.60322 0.14777 0.0
C436 C 0.89524 0.61769 0.07366 0.0
O437 O 0.83429 0.58679 0.0761 0.0
O438 O 0.83971 0.60387 0.02417 0.0
C439 C 0.79751 0.6387 0.00227 0.0
N440 N 0.82054 0.6507 0.00861 0.0
C441 C 0.80254 0.68848 0.98784 0.0
C442 C 0.77869 0.67648 0.98084 0.0
C443 C 0.77616 0.65149 0.98817 0.0
C444 C 0.82313 0.67478 0.00189 0.0
H445 H 0.79545 0.61952 0.00801 0.0
C446 C 0.83405 0.58569 0.04335 0.0
O447 O 0.83563 0.59677 0.14918 0.0
O448 O 0.80379 0.61646 0.12192 0.0
N449 N 0.86514 0.67115 0.02535 0.0
C450 C 0.88946 0.68001 0.0336 0.0
C451 C 0.89519 0.70476 0.02798 0.0
C452 C 0.87603 0.72006 0.01346 0.0
C453 C 0.8514 0.71037 0.0043 0.0
C454 C 0.84687 0.68552 0.0103 0.0
H455 H 0.90432 0.66834 0.04465 0.0
O456 O 0.84618 0.64891 0.12897 0.0
O457 O 0.8385 0.64263 0.07363 0.0
O458 O 0.88048 0.61315 0.09933 0.0
O459 O 0.88669 0.62634 0.04525 0.0
C460 C 0.83105 0.72447 0.98984 0.0
C461 C 0.80661 0.71355 0.98173 0.0
H462 H 0.76215 0.68629 0.97002 0.0
H463 H 0.75777 0.64213 0.983 0.0
H464 H 0.9143 0.71206 0.03494 0.0
H465 H 0.88044 0.73919 0.00948 0.0
H466 H 0.83391 0.74377 0.98512 0.0
H467 H 0.79104 0.72462 0.97088 0.0
Mn468 Mn 0.14065 0.10856 0.88219 0.0
Mn469 Mn 0.11764 0.12829 0.80602 0.0
C470 C 0.09587 0.11571 0.87506 0.0
C471 C 0.15337 0.07521 0.91555 0.0
C472 C 0.14467 0.16148 0.85882 0.0
O473 O 0.17185 0.1032 0.85007 0.0
O474 O 0.15213 0.11228 0.79994 0.0
C475 C 0.10944 0.0799 0.77309 0.0
N476 N 0.10004 0.10227 0.78239 0.0
C477 C 0.05968 0.09533 0.75145 0.0
C478 C 0.06898 0.0723 0.74115 0.0
C479 C 0.09385 0.06442 0.75241 0.0
C480 C 0.0757 0.10953 0.77312 0.0
H481 H 0.12871 0.07399 0.7813 0.0
C482 C 0.17163 0.10434 0.81736 0.0
O483 O 0.16199 0.09711 0.92241 0.0
O484 O 0.13762 0.07284 0.88945 0.0
N485 N 0.08418 0.14417 0.80659 0.0
C486 C 0.07806 0.1668 0.81904 0.0
C487 C 0.05374 0.17731 0.81048 0.0
C488 C 0.03646 0.16491 0.78808 0.0
C489 C 0.0434 0.14183 0.77506 0.0
C490 C 0.06747 0.13192 0.78545 0.0
H491 H 0.09174 0.17686 0.8351 0.0
O492 O 0.10611 0.11395 0.90553 0.0
O493 O 0.11184 0.11194 0.84963 0.0
O494 O 0.14764 0.14561 0.88249 0.0
O495 O 0.13489 0.15639 0.82919 0.0
C496 C 0.0276 0.12845 0.75164 0.0
C497 C 0.03543 0.10499 0.74047 0.0
H498 H 0.05723 0.06055 0.72458 0.0
H499 H 0.10114 0.04663 0.74473 0.0
H500 H 0.0486 0.19518 0.82047 0.0
H501 H 0.01796 0.17331 0.78094 0.0
H502 H 0.00917 0.13591 0.74241 0.0
H503 H 0.0228 0.09468 0.72313 0.0
Mn504 Mn 0.64414 0.3904 0.61374 0.0
Mn505 Mn 0.62564 0.37502 0.69355 0.0
C506 C 0.59984 0.38501 0.62564 0.0
C507 C 0.6557 0.42204 0.57682 0.0
C508 C 0.64866 0.33883 0.64175 0.0
O509 O 0.67736 0.39598 0.64228 0.0
O510 O 0.66089 0.39048 0.69523 0.0
C511 C 0.62057 0.42477 0.72317 0.0
N512 N 0.60996 0.40241 0.7161 0.0
C513 C 0.57092 0.41204 0.74801 0.0
C514 C 0.58144 0.43514 0.75585 0.0
C515 C 0.60627 0.44163 0.74305 0.0
C516 C 0.58571 0.39635 0.72712 0.0
H517 H 0.63984 0.42962 0.71383 0.0
C518 C 0.67945 0.39651 0.67493 0.0
O519 O 0.6632 0.3997 0.57072 0.0
O520 O 0.64172 0.42575 0.60408 0.0
N521 N 0.59183 0.35992 0.69687 0.0
C522 C 0.58445 0.33701 0.68674 0.0
C523 C 0.56005 0.32772 0.69724 0.0
C524 C 0.54394 0.34172 0.71902 0.0
C525 C 0.55212 0.36513 0.72948 0.0
C526 C 0.57627 0.37369 0.71739 0.0
H527 H 0.59718 0.32581 0.67107 0.0
O528 O 0.60814 0.38509 0.59417 0.0
O529 O 0.61754 0.38936 0.64911 0.0
O530 O 0.65001 0.35328 0.61612 0.0
O531 O 0.64102 0.34562 0.67167 0.0
C532 C 0.53751 0.38013 0.752 0.0
C533 C 0.54662 0.40376 0.76068 0.0
H534 H 0.57068 0.448 0.77175 0.0
H535 H 0.61452 0.45943 0.74892 0.0
H536 H 0.55392 0.3096 0.68918 0.0
H537 H 0.52537 0.33428 0.72763 0.0
H538 H 0.51909 0.37376 0.76256 0.0
H539 H 0.53494 0.41528 0.77745 0.0
Mn540 Mn 0.34735 0.89285 0.38282 0.0
Mn541 Mn 0.35841 0.8739 0.46402 0.0
C542 C 0.34957 0.8516 0.39372 0.0
C543 C 0.31707 0.90527 0.34125 0.0
C544 C 0.40151 0.89278 0.41735 0.0
O545 O 0.34142 0.92351 0.41151 0.0
O546 O 0.34597 0.90847 0.46486 0.0
C547 C 0.30327 0.87434 0.48798 0.0
N548 N 0.32615 0.86202 0.48258 0.0
C549 C 0.30755 0.82479 0.50428 0.0
C550 C 0.28383 0.83712 0.51032 0.0
C551 C 0.28167 0.86199 0.50208 0.0
C552 C 0.32842 0.83808 0.49031 0.0
H553 H 0.3015 0.89342 0.48148 0.0
C554 C 0.34114 0.92601 0.44413 0.0
O555 O 0.34176 0.9113 0.33907 0.0
O556 O 0.31015 0.89271 0.3678 0.0
N557 N 0.37059 0.84095 0.46771 0.0
C558 C 0.3947 0.83166 0.45978 0.0
C559 C 0.39996 0.80689 0.46596 0.0
C560 C 0.38053 0.79202 0.48062 0.0
C561 C 0.3561 0.80214 0.48933 0.0
C562 C 0.35206 0.82699 0.48279 0.0
H563 H 0.40971 0.843 0.44851 0.0
O564 O 0.3521 0.85973 0.36271 0.0
O565 O 0.34467 0.86788 0.41753 0.0
O566 O 0.38734 0.89594 0.39046 0.0
O567 O 0.39247 0.88527 0.44606 0.0
C568 C 0.33546 0.78846 0.50371 0.0
C569 C 0.31119 0.79977 0.51113 0.0
H570 H 0.26709 0.82764 0.52106 0.0
H571 H 0.26339 0.8716 0.50651 0.0
H572 H 0.4189 0.79925 0.4593 0.0
H573 H 0.38456 0.77287 0.485 0.0
H574 H 0.33796 0.76918 0.50886 0.0
H575 H 0.29539 0.78901 0.5219 0.0
H576 H 0.13967 0.81356 0.06872 0.0
H577 H 0.17955 0.81392 0.16687 0.0
H578 H 0.14155 0.76881 0.06717 0.0
H579 H 0.18256 0.76953 0.16478 0.0
H580 H 0.13842 0.69815 0.18046 0.0
H581 H 0.14812 0.74095 0.17391 0.0
H582 H 0.16495 0.72908 0.06626 0.0
H583 H 0.15447 0.68545 0.07274 0.0
C584 C 0.14978 0.8041 0.08926 0.0
C585 C 0.15925 0.81713 0.11808 0.0
C586 C 0.15085 0.77846 0.08841 0.0
C587 C 0.16166 0.76549 0.11625 0.0
C588 C 0.17342 0.77884 0.14336 0.0
C589 C 0.17192 0.8043 0.14447 0.0
C590 C 0.14436 0.70443 0.15531 0.0
C591 C 0.1455 0.68823 0.12707 0.0
C592 C 0.15025 0.72911 0.15164 0.0
C593 C 0.15759 0.73858 0.11961 0.0
C594 C 0.1593 0.7224 0.09129 0.0
C595 C 0.15347 0.6974 0.09504 0.0
H596 H 0.43402 0.88651 0.36183 0.0
H597 H 0.43386 0.90754 0.4691 0.0
H598 H 0.48221 0.88615 0.36256 0.0
H599 H 0.48165 0.90808 0.4696 0.0
H600 H 0.56002 0.86932 0.47375 0.0
H601 H 0.51321 0.876 0.4689 0.0
H602 H 0.52395 0.90829 0.36892 0.0
H603 H 0.57135 0.90096 0.37334 0.0
C604 C 0.44429 0.89167 0.38527 0.0
C605 C 0.43024 0.8967 0.41554 0.0
C606 C 0.47188 0.89151 0.3857 0.0
C607 C 0.4858 0.8966 0.41634 0.0
C608 C 0.47158 0.90336 0.44583 0.0
C609 C 0.44418 0.9032 0.44551 0.0
C610 C 0.55261 0.87798 0.45072 0.0
C611 C 0.56962 0.88466 0.42398 0.0
C612 C 0.52563 0.88199 0.44805 0.0
C613 C 0.51477 0.89297 0.41869 0.0
C614 C 0.53168 0.8997 0.39183 0.0
C615 C 0.55885 0.8956 0.39445 0.0
H616 H 0.34401 0.32933 0.56206 0.0
H617 H 0.34509 0.31447 0.67114 0.0
H618 H 0.34053 0.28518 0.55012 0.0
H619 H 0.34204 0.27098 0.65901 0.0
H620 H 0.30889 0.19915 0.56784 0.0
H621 H 0.3069 0.24417 0.57001 0.0
H622 H 0.38097 0.24577 0.62466 0.0
H623 H 0.38317 0.2012 0.62184 0.0
C624 C 0.3429 0.31682 0.58343 0.0
C625 C 0.3452 0.32546 0.61756 0.0
C626 C 0.34096 0.29162 0.57655 0.0
C627 C 0.34142 0.27486 0.6037 0.0
C628 C 0.34199 0.2836 0.63767 0.0
C629 C 0.34373 0.30855 0.64454 0.0
C630 C 0.32509 0.20931 0.57921 0.0
C631 C 0.34662 0.19694 0.59371 0.0
C632 C 0.32387 0.23492 0.58063 0.0
C633 C 0.34381 0.24827 0.59746 0.0
C634 C 0.3654 0.23582 0.61149 0.0
C635 C 0.3667 0.21042 0.60983 0.0
H636 H 0.06379 0.15348 0.89166 0.0
H637 H 0.06358 0.07963 0.8529 0.0
H638 H 0.01619 0.15287 0.89525 0.0
H639 H 0.01645 0.07722 0.86077 0.0
H640 H 0.92759 0.0815 0.8611 0.0
H641 H 0.97467 0.08193 0.8525 0.0
H642 H 0.98126 0.14278 0.92432 0.0
H643 H 0.93377 0.14308 0.9301 0.0
C644 C 0.0533 0.13711 0.88375 0.0
C645 C 0.0671 0.1168 0.87134 0.0
C646 C 0.02591 0.13638 0.8867 0.0
C647 C 0.0117 0.11467 0.87961 0.0
C648 C 0.02589 0.0945 0.86635 0.0
C649 C 0.05316 0.09574 0.86177 0.0
C650 C 0.93929 0.09526 0.87432 0.0
C651 C 0.92709 0.11325 0.89442 0.0
C652 C 0.96659 0.09532 0.87001 0.0
C653 C 0.98255 0.11313 0.88642 0.0
C654 C 0.97011 0.12968 0.90925 0.0
C655 C 0.94275 0.12975 0.91309 0.0
H656 H 0.12139 0.31568 0.86981 0.0
H657 H 0.19661 0.30987 0.92077 0.0
H658 H 0.1196 0.27134 0.86301 0.0
H659 H 0.19484 0.26506 0.9142 0.0
H660 H 0.16095 0.18287 0.92008 0.0
H661 H 0.16606 0.22673 0.9324 0.0
H662 H 0.14734 0.24279 0.82663 0.0
H663 H 0.14228 0.19958 0.81418 0.0
C664 C 0.13733 0.30476 0.88008 0.0
C665 C 0.15872 0.31598 0.89674 0.0
C666 C 0.13641 0.27945 0.87603 0.0
C667 C 0.15712 0.26477 0.888 0.0
C668 C 0.17851 0.27594 0.90504 0.0
C669 C 0.17946 0.30146 0.90896 0.0
C670 C 0.15827 0.19575 0.89937 0.0
C671 C 0.15094 0.18759 0.86619 0.0
C672 C 0.16123 0.22082 0.90646 0.0
C673 C 0.15671 0.23812 0.88057 0.0
C674 C 0.15047 0.22989 0.84724 0.0
C675 C 0.14769 0.20502 0.84012 0.0
H676 H 0.93661 0.90559 0.16671 0.0
H677 H 0.93269 0.86145 0.07459 0.0
H678 H 0.98451 0.90503 0.16431 0.0
H679 H 0.98031 0.86219 0.07032 0.0
H680 H 0.06802 0.85166 0.08267 0.0
H681 H 0.02037 0.84924 0.08868 0.0
H682 H 0.02036 0.92092 0.13672 0.0
H683 H 0.06823 0.92211 0.13277 0.0
C684 C 0.94611 0.89527 0.14641 0.0
C685 C 0.93102 0.88286 0.12154 0.0
C686 C 0.97364 0.89535 0.14447 0.0
C687 C 0.98674 0.88354 0.11705 0.0
C688 C 0.97135 0.87104 0.09231 0.0
C689 C 0.94392 0.87071 0.09457 0.0
C690 C 0.05768 0.8667 0.09481 0.0
C691 C 0.07169 0.88661 0.10845 0.0
C692 C 0.03027 0.86554 0.09792 0.0
C693 C 0.0161 0.88478 0.11358 0.0
C694 C 0.03034 0.90533 0.12555 0.0
C695 C 0.05781 0.90615 0.12317 0.0
H696 H 0.35209 0.70832 0.3213 0.0
H697 H 0.34281 0.69215 0.42933 0.0
H698 H 0.3506 0.75164 0.33429 0.0
H699 H 0.34094 0.73628 0.44207 0.0
H700 H 0.31124 0.82258 0.42093 0.0
H701 H 0.30986 0.77756 0.41945 0.0
H702 H 0.38677 0.77644 0.37301 0.0
H703 H 0.38826 0.82106 0.37502 0.0
C704 C 0.3494 0.71391 0.34784 0.0
C705 C 0.34792 0.6966 0.37433 0.0
C706 C 0.34859 0.73881 0.3552 0.0
C707 C 0.34603 0.74717 0.38916 0.0
C708 C 0.34299 0.73013 0.41566 0.0
C709 C 0.34404 0.70496 0.40832 0.0
C710 C 0.32816 0.81255 0.41163 0.0
C711 C 0.35021 0.82507 0.39904 0.0
C712 C 0.32733 0.78693 0.41065 0.0
C713 C 0.34824 0.77369 0.39616 0.0
C714 C 0.37046 0.78629 0.38437 0.0
C715 C 0.37134 0.81173 0.38556 0.0
H716 H 0.55792 0.08591 0.63986 0.0
H717 H 0.56982 0.14842 0.5751 0.0
H718 H 0.51031 0.08916 0.63143 0.0
H719 H 0.5223 0.15239 0.56733 0.0
H720 H 0.42567 0.11796 0.63616 0.0
H721 H 0.47286 0.11397 0.64542 0.0
H722 H 0.48658 0.13231 0.53912 0.0
H723 H 0.43957 0.13685 0.53 0.0
C724 C 0.55016 0.10064 0.62439 0.0
C725 C 0.56718 0.11743 0.60899 0.0
C726 C 0.52299 0.10252 0.61949 0.0
C727 C 0.51243 0.1211 0.59879 0.0
C728 C 0.52972 0.13769 0.58308 0.0
C729 C 0.55686 0.13562 0.58775 0.0
C730 C 0.43873 0.1211 0.61472 0.0
C731 C 0.42875 0.12782 0.58235 0.0
C732 C 0.46583 0.11874 0.62003 0.0
C733 C 0.48357 0.12304 0.59311 0.0
C734 C 0.47354 0.12937 0.56064 0.0
C735 C 0.4465 0.13179 0.55534 0.0
H736 H 0.8639 0.19061 0.93512 0.0
H737 H 0.81652 0.1886 0.84285 0.0
H738 H 0.86175 0.23536 0.93563 0.0
H739 H 0.81337 0.23303 0.84396 0.0
H740 H 0.85913 0.30298 0.82 0.0
H741 H 0.84855 0.26052 0.82932 0.0
H742 H 0.83771 0.27514 0.93769 0.0
H743 H 0.84885 0.31825 0.92835 0.0
C744 C 0.85204 0.19973 0.9159 0.0
C745 C 0.84051 0.18633 0.88881 0.0
C746 C 0.85082 0.22534 0.91612 0.0
C747 C 0.83787 0.23777 0.88937 0.0
C748 C 0.82405 0.22404 0.86444 0.0
C749 C 0.82563 0.19862 0.86393 0.0
C750 C 0.85427 0.29734 0.84585 0.0
C751 C 0.85499 0.31407 0.87345 0.0
C752 C 0.8479 0.27293 0.85115 0.0
C753 C 0.84205 0.26441 0.88424 0.0
C754 C 0.84216 0.28116 0.91191 0.0
C755 C 0.84841 0.30583 0.90652 0.0
H756 H 0.60147 0.68642 0.40821 0.0
H757 H 0.68437 0.68332 0.38602 0.0
H758 H 0.6049 0.73032 0.41922 0.0
H759 H 0.68787 0.72754 0.39559 0.0
H760 H 0.68673 0.80801 0.43019 0.0
H761 H 0.68545 0.7632 0.43275 0.0
H762 H 0.61005 0.76369 0.38076 0.0
H763 H 0.61125 0.80817 0.37932 0.0
C764 C 0.62055 0.69518 0.40642 0.0
C765 C 0.64269 0.68169 0.3965 0.0
C766 C 0.6225 0.72032 0.4123 0.0
C767 C 0.64655 0.73258 0.40754 0.0
C768 C 0.66909 0.71871 0.39966 0.0
C769 C 0.66715 0.69341 0.39421 0.0
C770 C 0.66972 0.79837 0.42006 0.0
C771 C 0.64855 0.81136 0.4059 0.0
C772 C 0.66909 0.77277 0.4211 0.0
C773 C 0.6474 0.7598 0.40757 0.0
C774 C 0.62667 0.77302 0.39246 0.0
C775 C 0.62738 0.79848 0.39137 0.0
H776 H 0.80558 0.68805 0.07317 0.0
H777 H 0.88329 0.68761 0.11801 0.0
H778 H 0.80665 0.73296 0.07148 0.0
H779 H 0.8845 0.73215 0.11664 0.0
H780 H 0.89074 0.8096 0.08846 0.0
H781 H 0.88619 0.76605 0.07498 0.0
H782 H 0.80716 0.76709 0.11538 0.0
H783 H 0.81176 0.81086 0.12825 0.0
C784 C 0.82303 0.69764 0.08201 0.0
C785 C 0.84478 0.68462 0.09451 0.0
C786 C 0.82357 0.72323 0.08136 0.0
C787 C 0.84585 0.73604 0.09335 0.0
C788 C 0.86736 0.72281 0.10633 0.0
C789 C 0.86667 0.69738 0.10731 0.0
C790 C 0.87216 0.80059 0.09338 0.0
C791 C 0.85153 0.81333 0.10912 0.0
C792 C 0.8696 0.7757 0.08597 0.0
C793 C 0.84645 0.76312 0.0946 0.0
C794 C 0.82514 0.77634 0.10824 0.0
C795 C 0.82772 0.80131 0.11559 0.0
H796 H 0.65227 0.30414 0.69133 0.0
H797 H 0.65889 0.31358 0.58142 0.0
H798 H 0.65786 0.26065 0.68429 0.0
H799 H 0.6653 0.26944 0.57442 0.0
H800 H 0.63263 0.18807 0.58103 0.0
H801 H 0.63903 0.2324 0.57904 0.0
H802 H 0.6874 0.22878 0.67063 0.0
H803 H 0.67974 0.18482 0.67331 0.0
C804 C 0.65536 0.29701 0.66559 0.0
C805 C 0.65496 0.3125 0.63692 0.0
C806 C 0.65887 0.27192 0.66157 0.0
C807 C 0.66226 0.26141 0.62878 0.0
C808 C 0.66261 0.2769 0.60004 0.0
C809 C 0.65907 0.30221 0.60408 0.0
C810 C 0.64536 0.19677 0.59994 0.0
C811 C 0.65575 0.18323 0.62729 0.0
C812 C 0.64902 0.22215 0.59889 0.0
C813 C 0.66329 0.23428 0.6251 0.0
C814 C 0.67572 0.22017 0.65055 0.0
C815 C 0.67164 0.19497 0.65192 0.0
H816 H 0.08124 0.39387 0.86355 0.0
H817 H 0.06903 0.37266 0.96918 0.0
H818 H 0.03372 0.39564 0.85482 0.0
H819 H 0.02182 0.37495 0.96061 0.0
H820 H 0.94032 0.35327 0.92485 0.0
H821 H 0.9881 0.35242 0.93149 0.0
H822 H 0.99421 0.4178 0.87028 0.0
H823 H 0.94632 0.41799 0.86301 0.0
C824 C 0.06848 0.38985 0.885 0.0
C825 C 0.07901 0.38296 0.91701 0.0
C826 C 0.04123 0.39089 0.87999 0.0
C827 C 0.02396 0.3851 0.90687 0.0
C828 C 0.03454 0.37894 0.9391 0.0
C829 C 0.06168 0.37781 0.94407 0.0
C830 C 0.95204 0.36722 0.91256 0.0
C831 C 0.94002 0.38519 0.89252 0.0
C832 C 0.97932 0.36693 0.91658 0.0
C833 C 0.99502 0.38508 0.90146 0.0
C834 C 0.98277 0.40334 0.8818 0.0
C835 C 0.95544 0.40346 0.87756 0.0
H836 H 0.56531 0.57974 0.34441 0.0
H837 H 0.56612 0.63405 0.42508 0.0
H838 H 0.51797 0.58432 0.3382 0.0
H839 H 0.51867 0.63738 0.42168 0.0
H840 H 0.43682 0.65685 0.3962 0.0
H841 H 0.48437 0.65303 0.39514 0.0
H842 H 0.47612 0.58036 0.35092 0.0
H843 H 0.42882 0.58607 0.34819 0.0
C844 C 0.55516 0.59276 0.36074 0.0
C845 C 0.56936 0.60765 0.38369 0.0
C846 C 0.52779 0.59513 0.35779 0.0
C847 C 0.51388 0.61202 0.3785 0.0
C848 C 0.52829 0.62528 0.40361 0.0
C849 C 0.55562 0.62317 0.40604 0.0
C850 C 0.44546 0.64044 0.38534 0.0
C851 C 0.42938 0.62191 0.37186 0.0
C852 C 0.47281 0.63785 0.38544 0.0
C853 C 0.48475 0.61592 0.37417 0.0
C854 C 0.46831 0.59766 0.35971 0.0
C855 C 0.441 0.60081 0.35815 0.0
H856 H 0.56482 0.34843 0.61433 0.0
H857 H 0.57104 0.42331 0.64803 0.0
H858 H 0.5172 0.35185 0.61236 0.0
H859 H 0.52384 0.42819 0.64207 0.0
H860 H 0.43468 0.42814 0.64566 0.0
H861 H 0.48186 0.42503 0.65376 0.0
H862 H 0.48346 0.36451 0.58107 0.0
H863 H 0.43588 0.36691 0.57556 0.0
C864 C 0.55577 0.3656 0.62167 0.0
C865 C 0.57137 0.38546 0.63195 0.0
C866 C 0.52841 0.36789 0.61964 0.0
C867 C 0.51607 0.39062 0.62571 0.0
C868 C 0.53197 0.41026 0.6373 0.0
C869 C 0.55924 0.40756 0.64082 0.0
C870 C 0.44529 0.41394 0.63198 0.0
C871 C 0.43168 0.39685 0.61165 0.0
C872 C 0.47258 0.41232 0.63607 0.0
C873 C 0.48706 0.3938 0.61923 0.0
C874 C 0.47331 0.37814 0.59626 0.0
C875 C 0.44595 0.37964 0.59259 0.0
H876 H 0.06211 0.646 0.0694 0.0
H877 H 0.05743 0.58157 0.13205 0.0
H878 H 0.01442 0.64528 0.06139 0.0
H879 H 0.00971 0.58019 0.12341 0.0
H880 H 0.93333 0.62463 0.02521 0.0
H881 H 0.9807 0.62241 0.03282 0.0
H882 H 0.97003 0.60139 0.1387 0.0
H883 H 0.92255 0.6032 0.13103 0.0
C884 C 0.05071 0.63173 0.08149 0.0
C885 C 0.06303 0.61437 0.10229 0.0
C886 C 0.02349 0.63112 0.07667 0.0
C887 C 0.00819 0.61267 0.09177 0.0
C888 C 0.02081 0.59489 0.11191 0.0
C889 C 0.04804 0.59568 0.11695 0.0
C890 C 0.94101 0.61936 0.05009 0.0
C891 C 0.92403 0.61426 0.07757 0.0
C892 C 0.96824 0.61829 0.05452 0.0
C893 C 0.97922 0.61215 0.08655 0.0
C894 C 0.96227 0.6062 0.1137 0.0
C895 C 0.93499 0.60727 0.10929 0.0
H896 H 0.16466 0.56764 0.01428 0.0
H897 H 0.16303 0.53015 0.11126 0.0
H898 H 0.17089 0.52864 0.98424 0.0
H899 H 0.1712 0.49148 0.08206 0.0
H900 H 0.14606 0.4249 0.02087 0.0
H901 H 0.14729 0.4639 0.05047 0.0
H902 H 0.19462 0.49388 0.96879 0.0
H903 H 0.19197 0.45481 0.93809 0.0
C904 C 0.16654 0.55109 0.02919 0.0
C905 C 0.16317 0.55178 0.06497 0.0
C906 C 0.17015 0.52867 0.01205 0.0
C907 C 0.17101 0.50658 0.03051 0.0
C908 C 0.16967 0.5078 0.06666 0.0
C909 C 0.16534 0.53003 0.08357 0.0
C910 C 0.15696 0.43971 0.0093 0.0
C911 C 0.16891 0.43666 0.97707 0.0
C912 C 0.15787 0.4622 0.02648 0.0
C913 C 0.17127 0.4823 0.01237 0.0
C914 C 0.18378 0.47906 0.98039 0.0
C915 C 0.18244 0.45658 0.96283 0.0
H916 H 0.67559 0.90643 0.28859 0.0
H917 H 0.73707 0.89209 0.36274 0.0
H918 H 0.7085 0.90702 0.2425 0.0
H919 H 0.76965 0.89315 0.31727 0.0
H920 H 0.81038 0.85571 0.23011 0.0
H921 H 0.7753 0.86173 0.27109 0.0
H922 H 0.75127 0.92727 0.21853 0.0
H923 H 0.78688 0.92112 0.1766 0.0
C924 C 0.69616 0.90408 0.29515 0.0
C925 C 0.70377 0.8988 0.32911 0.0
C926 C 0.71494 0.90442 0.26881 0.0
C927 C 0.74151 0.89956 0.27624 0.0
C928 C 0.74921 0.89633 0.31066 0.0
C929 C 0.73057 0.89583 0.33674 0.0
C930 C 0.79763 0.8714 0.227 0.0
C931 C 0.80171 0.88817 0.2004 0.0
C932 C 0.77757 0.8749 0.25065 0.0
C933 C 0.761 0.89532 0.24856 0.0
C934 C 0.76394 0.91147 0.22086 0.0
C935 C 0.78422 0.90792 0.19689 0.0
H936 H 0.35494 0.48647 0.59068 0.0
H937 H 0.31845 0.44036 0.51331 0.0
H938 H 0.34971 0.52173 0.55346 0.0
H939 H 0.31311 0.47581 0.47599 0.0
H940 H 0.35094 0.53571 0.40621 0.0
H941 H 0.34557 0.50101 0.44432 0.0
H942 H 0.31775 0.54938 0.52455 0.0
H943 H 0.32323 0.5843 0.48626 0.0
C944 C 0.34541 0.48393 0.56592 0.0
C945 C 0.33731 0.46058 0.55481 0.0
C946 C 0.34226 0.50419 0.54467 0.0
C947 C 0.33112 0.50155 0.5117 0.0
C948 C 0.322 0.47837 0.50115 0.0
C949 C 0.32493 0.4581 0.52257 0.0
C950 C 0.34336 0.53894 0.43183 0.0
C951 C 0.3377 0.56278 0.44332 0.0
C952 C 0.34009 0.51901 0.4536 0.0
C953 C 0.33129 0.52244 0.48749 0.0
C954 C 0.32477 0.54619 0.49864 0.0
C955 C 0.3278 0.56616 0.47669 0.0
H956 H 0.7072 0.07798 0.67429 0.0
H957 H 0.66731 0.11793 0.75497 0.0
H958 H 0.74508 0.07262 0.71209 0.0
H959 H 0.70543 0.11332 0.79218 0.0
H960 H 0.77391 0.09348 0.85972 0.0
H961 H 0.73397 0.08774 0.82531 0.0
H962 H 0.77879 0.09898 0.73261 0.0
H963 H 0.81845 0.10383 0.76649 0.0
C964 C 0.70641 0.0855 0.70013 0.0
C965 C 0.68429 0.09867 0.71137 0.0
C966 C 0.72819 0.08251 0.72178 0.0
C967 C 0.7285 0.09281 0.75509 0.0
C968 C 0.70586 0.10492 0.76688 0.0
C969 C 0.684 0.10772 0.74535 0.0
C970 C 0.77527 0.09433 0.83197 0.0
C971 C 0.79941 0.0994 0.81599 0.0
C972 C 0.75234 0.09119 0.81224 0.0
C973 C 0.75307 0.09304 0.77614 0.0
C974 C 0.77743 0.09708 0.76024 0.0
C975 C 0.80025 0.10012 0.77984 0.0
H976 H 0.86164 0.47432 0.8985 0.0
H977 H 0.82033 0.43218 0.97466 0.0
H978 H 0.85178 0.51158 0.92977 0.0
H979 H 0.80996 0.47003 0.00616 0.0
H980 H 0.81912 0.57777 0.97673 0.0
H981 H 0.81673 0.53889 0.94608 0.0
H982 H 0.83504 0.50084 0.04008 0.0
H983 H 0.83675 0.53981 0.07108 0.0
C984 C 0.8501 0.47304 0.92177 0.0
C985 C 0.84188 0.45028 0.93422 0.0
C986 C 0.84422 0.4945 0.93959 0.0
C987 C 0.82996 0.49383 0.97042 0.0
C988 C 0.8211 0.47111 0.98255 0.0
C989 C 0.8269 0.44949 0.96447 0.0
C990 C 0.82225 0.56111 0.99102 0.0
C991 C 0.82861 0.56192 0.02622 0.0
C992 C 0.82093 0.53881 0.97342 0.0
C993 C 0.8262 0.5168 0.99049 0.0
C994 C 0.83078 0.51745 0.02619 0.0
C995 C 0.83189 0.53981 0.04392 0.0
H996 H 0.22346 0.11355 0.83252 0.0
H997 H 0.17238 0.07975 0.75689 0.0
H998 H 0.26022 0.11084 0.79199 0.0
H999 H 0.20892 0.07629 0.71714 0.0
H1000 H 0.26101 0.11835 0.642 0.0
H1001 H 0.22887 0.10999 0.6862 0.0
H1002 H 0.29078 0.08609 0.75459 0.0
H1003 H 0.32336 0.09478 0.70993 0.0
C1004 C 0.22036 0.10475 0.80777 0.0
C1005 C 0.19507 0.09721 0.79756 0.0
C1006 C 0.24136 0.10318 0.78458 0.0
C1007 C 0.23726 0.09386 0.7511 0.0
C1008 C 0.21252 0.08413 0.74241 0.0
C1009 C 0.19162 0.08599 0.76525 0.0
C1010 C 0.26783 0.11106 0.66628 0.0
C1011 C 0.2947 0.10726 0.67249 0.0
C1012 C 0.24936 0.10608 0.69159 0.0
C1013 C 0.25727 0.09719 0.72385 0.0
C1014 C 0.28414 0.09297 0.73 0.0
C1015 C 0.30272 0.09782 0.7044 0.0
H1016 H 0.68345 0.56424 0.48372 0.0
H1017 H 0.64646 0.51894 0.40579 0.0
H1018 H 0.68866 0.52851 0.52039 0.0
H1019 H 0.65137 0.48339 0.44254 0.0
H1020 H 0.6499 0.4704 0.59052 0.0
H1021 H 0.65597 0.50448 0.5518 0.0
H1022 H 0.68168 0.45471 0.472 0.0
H1023 H 0.67537 0.42023 0.51107 0.0
C1024 C 0.6768 0.54661 0.47419 0.0
C1025 C 0.66428 0.54447 0.44203 0.0
C1026 C 0.67968 0.52617 0.49525 0.0
C1027 C 0.6702 0.50315 0.4845 0.0
C1028 C 0.65907 0.50079 0.45149 0.0
C1029 C 0.65609 0.52123 0.43052 0.0
C1030 C 0.65712 0.46667 0.56484 0.0
C1031 C 0.66197 0.44259 0.55375 0.0
C1032 C 0.66083 0.48628 0.54271 0.0
C1033 C 0.66934 0.48234 0.50882 0.0
C1034 C 0.67494 0.4583 0.49793 0.0
C1035 C 0.67143 0.43859 0.5203 0.0
H1036 H 0.32581 0.92163 0.27545 0.0
H1037 H 0.26417 0.90107 0.34562 0.0
H1038 H 0.2929 0.9265 0.22951 0.0
H1039 H 0.23181 0.90547 0.3003 0.0
H1040 H 0.17393 0.92783 0.22492 0.0
H1041 H 0.21002 0.93501 0.26495 0.0
H1042 H 0.26349 0.89936 0.19464 0.0
H1043 H 0.22718 0.89302 0.15371 0.0
C1044 C 0.30526 0.9185 0.28117 0.0
C1045 C 0.29757 0.91095 0.31412 0.0
C1046 C 0.28647 0.92112 0.25486 0.0
C1047 C 0.2597 0.9165 0.26124 0.0
C1048 C 0.25214 0.90966 0.29453 0.0
C1049 C 0.27078 0.90693 0.32055 0.0
C1050 C 0.1935 0.92203 0.21762 0.0
C1051 C 0.19771 0.90956 0.18645 0.0
C1052 C 0.21418 0.92604 0.24065 0.0
C1053 C 0.23951 0.91721 0.2334 0.0
C1054 C 0.24421 0.90642 0.20099 0.0
C1055 C 0.22345 0.90273 0.17758 0.0
H1056 H 0.63705 0.02294 0.60593 0.0
H1057 H 0.68383 0.06164 0.53158 0.0
H1058 H 0.64355 0.98512 0.5743 0.0
H1059 H 0.69075 0.02325 0.49978 0.0
H1060 H 0.66046 0.95603 0.43284 0.0
H1061 H 0.6638 0.99465 0.46456 0.0
H1062 H 0.67613 0.95501 0.55884 0.0
H1063 H 0.67222 0.91655 0.52747 0.0
C1064 C 0.64907 0.02331 0.58301 0.0
C1065 C 0.65986 0.04533 0.57121 0.0
C1066 C 0.65297 1.00152 0.56496 0.0
C1067 C 0.66776 1.00108 0.53452 0.0
C1068 C 0.67912 0.02301 0.52303 0.0
C1069 C 0.67531 0.04494 0.54133 0.0
C1070 C 0.66429 0.95557 0.46025 0.0
C1071 C 0.66558 0.93316 0.47768 0.0
C1072 C 0.66633 0.97773 0.47841 0.0
C1073 C 0.66983 0.97792 0.51433 0.0
C1074 C 0.67283 0.95551 0.53131 0.0
C1075 C 0.67064 0.93344 0.51327 0.0
H1076 H 0.27772 0.40051 0.66271 0.0
H1077 H 0.33371 0.43026 0.73569 0.0
H1078 H 0.24286 0.40447 0.70577 0.0
H1079 H 0.29906 0.435 0.778 0.0
H1080 H 0.24659 0.39558 0.85568 0.0
H1081 H 0.27785 0.40302 0.81011 0.0
H1082 H 0.21526 0.42991 0.74509 0.0
H1083 H 0.18357 0.42206 0.7911 0.0
C1084 C 0.28236 0.40864 0.68751 0.0
C1085 C 0.30844 0.41469 0.69612 0.0
C1086 C 0.26243 0.41095 0.71215 0.0
C1087 C 0.26835 0.41956 0.74556 0.0
C1088 C 0.294 0.42771 0.75283 0.0
C1089 C 0.31384 0.4251 0.72852 0.0
C1090 C 0.23947 0.4034 0.83189 0.0
C1091 C 0.21262 0.40818 0.82697 0.0
C1092 C 0.25745 0.40784 0.80576 0.0
C1093 C 0.24907 0.41717 0.77395 0.0
C1094 C 0.22227 0.42261 0.76925 0.0
C1095 C 0.2042 0.41828 0.79565 0.0
H1096 H 0.8205 0.07465 0.00097 0.0
H1097 H 0.8463 0.02633 0.91951 0.0
H1098 H 0.81662 0.03967 0.03957 0.0
H1099 H 0.84238 0.99157 0.95784 0.0
H1100 H 0.81642 0.93106 0.02747 0.0
H1101 H 0.81008 0.96675 0.99113 0.0
H1102 H 0.85054 0.01171 0.06635 0.0
H1103 H 0.85689 0.97603 0.10279 0.0
C1104 C 0.82487 0.05654 0.99114 0.0
C1105 C 0.83383 0.05322 0.95729 0.0
C1106 C 0.82281 0.03657 0.01327 0.0
C1107 C 0.82928 0.01291 0.00175 0.0
C1108 C 0.83701 0.00953 0.9674 0.0
C1109 C 0.83939 0.02947 0.94548 0.0
C1110 C 0.82364 0.94862 0.03651 0.0
C1111 C 0.83737 0.95069 0.06787 0.0
C1112 C 0.82007 0.96902 0.01563 0.0
C1113 C 0.82994 0.99198 0.02581 0.0
C1114 C 0.84252 0.9943 0.05795 0.0
C1115 C 0.8463 0.97383 0.07872 0.0
H1116 H 0.1638 0.62436 0.2485 0.0
H1117 H 0.20265 0.58144 0.17003 0.0
H1118 H 0.20261 0.62133 0.2851 0.0
H1119 H 0.2411 0.57763 0.20716 0.0
H1120 H 0.31507 0.61176 0.25484 0.0
H1121 H 0.27446 0.60573 0.22355 0.0
H1122 H 0.23266 0.59727 0.31924 0.0
H1123 H 0.27372 0.60417 0.35111 0.0
C1124 C 0.1804 0.61382 0.23934 0.0
C1125 C 0.18031 0.60352 0.20606 0.0
C1126 C 0.20263 0.61194 0.26048 0.0
C1127 C 0.22515 0.59952 0.24893 0.0
C1128 C 0.22433 0.58784 0.21655 0.0
C1129 C 0.20225 0.58996 0.19527 0.0
C1130 C 0.29733 0.60848 0.26944 0.0
C1131 C 0.29768 0.60877 0.30562 0.0
C1132 C 0.27397 0.60472 0.25134 0.0
C1133 C 0.25021 0.60095 0.26879 0.0
C1134 C 0.25059 0.60037 0.30501 0.0
C1135 C 0.27413 0.60419 0.32326 0.0
H1136 H 0.35351 0.08167 0.47846 0.0
H1137 H 0.32024 0.05611 0.57371 0.0
H1138 H 0.35027 0.04059 0.45437 0.0
H1139 H 0.31617 0.0152 0.54922 0.0
H1140 H 0.34676 0.94086 0.51119 0.0
H1141 H 0.34403 0.98211 0.5343 0.0
H1142 H 0.32203 0.00881 0.43392 0.0
H1143 H 0.32561 0.96753 0.41045 0.0
C1144 C 0.34512 0.06739 0.49411 0.0
C1145 C 0.33738 0.07221 0.52817 0.0
C1146 C 0.3431 0.04379 0.4802 0.0
C1147 C 0.33309 0.02444 0.49987 0.0
C1148 C 0.32447 0.0295 0.53351 0.0
C1149 C 0.32668 0.05303 0.54752 0.0
C1150 C 0.34107 0.95544 0.49403 0.0
C1151 C 0.3366 0.9508 0.45885 0.0
C1152 C 0.33936 0.97918 0.50738 0.0
C1153 C 0.33292 0.99893 0.486 0.0
C1154 C 0.32752 0.99416 0.45105 0.0
C1155 C 0.3294 0.97041 0.43762 0.0
H1156 H 0.7581 0.60822 0.14606 0.0
H1157 H 0.82215 0.58775 0.21334 0.0
H1158 H 0.72818 0.60822 0.19456 0.0
H1159 H 0.79185 0.58796 0.26239 0.0
H1160 H 0.71299 0.57374 0.33022 0.0
H1161 H 0.74773 0.56836 0.28692 0.0
H1162 H 0.7284 0.63875 0.2444 0.0
H1163 H 0.69404 0.64404 0.28694 0.0
C1164 C 0.76572 0.60335 0.17115 0.0
C1165 C 0.79253 0.59834 0.176 0.0
C1166 C 0.7486 0.60347 0.19895 0.0
C1167 C 0.75788 0.59867 0.23229 0.0
C1168 C 0.78428 0.59184 0.23693 0.0
C1169 C 0.80155 0.5917 0.2089 0.0
C1170 C 0.71671 0.58826 0.31211 0.0
C1171 C 0.7006 0.60914 0.31153 0.0
C1172 C 0.73644 0.58514 0.28733 0.0
C1173 C 0.74018 0.60287 0.26185 0.0
C1174 C 0.72543 0.62451 0.26318 0.0
C1175 C 0.70586 0.62758 0.28765 0.0
H1176 H 0.18014 0.93016 0.00295 0.0
H1177 H 0.14935 0.97652 0.08363 0.0
H1178 H 0.1846 0.96586 0.96578 0.0
H1179 H 0.15367 0.01194 0.04669 0.0
H1180 H 0.14446 0.0273 0.90036 0.0
H1181 H 0.15134 0.99213 0.93716 0.0
H1182 H 0.18449 0.03923 0.01588 0.0
H1183 H 0.17747 0.07468 0.97888 0.0
C1184 C 0.17475 0.94799 0.01293 0.0
C1185 C 0.16418 0.9505 0.04607 0.0
C1186 C 0.17717 0.9684 0.99163 0.0
C1187 C 0.16936 0.99172 0.00325 0.0
C1188 C 0.1601 0.99432 0.03704 0.0
C1189 C 0.15744 0.97395 0.05814 0.0
C1190 C 0.15351 0.03017 0.92536 0.0
C1191 C 0.1602 0.05382 0.93685 0.0
C1192 C 0.15766 0.00994 0.94635 0.0
C1193 C 0.16842 0.01287 0.97947 0.0
C1194 C 0.17598 0.03642 0.99056 0.0
C1195 C 0.17204 0.0567 0.96936 0.0
H1196 H 0.68757 0.42345 0.73284 0.0
H1197 H 0.72847 0.3834 0.65349 0.0
H1198 H 0.72846 0.42822 0.76494 0.0
H1199 H 0.76927 0.38666 0.68656 0.0
H1200 H 0.84267 0.40227 0.74836 0.0
H1201 H 0.80462 0.40856 0.71093 0.0
H1202 H 0.75332 0.4024 0.79888 0.0
H1203 H 0.79115 0.39736 0.83609 0.0
C1204 C 0.70546 0.41586 0.72216 0.0
C1205 C 0.70491 0.40291 0.69088 0.0
C1206 C 0.72887 0.41835 0.7407 0.0
C1207 C 0.75216 0.40729 0.72889 0.0
C1208 C 0.75186 0.39557 0.69647 0.0
C1209 C 0.72846 0.39361 0.67748 0.0
C1210 C 0.82323 0.40256 0.75966 0.0
C1211 C 0.81994 0.39927 0.79521 0.0
C1212 C 0.80139 0.40605 0.73818 0.0
C1213 C 0.77576 0.406 0.75172 0.0
C1214 C 0.77267 0.40315 0.78743 0.0
C1215 C 0.79444 0.40005 0.80888 0.0
loop_
_geom_bond_atom_site_label_1
_geom_bond_atom_site_label_2
_geom_bond_distance
_geom_bond_site_symmetry_2
_ccdc_geom_bond_type
Mn0 O5 2.095 . S
Mn0 O15 2.162 . S
Mn0 O16 2.297 . S
Mn0 O24 2.385 . S
Mn0 O25 2.209 . S
Mn0 O26 2.094 . S
Mn1 O6 2.121 . S
Mn1 N8 2.257 . S
Mn1 N17 2.282 . S
Mn1 O25 2.215 . S
Mn1 O27 2.117 . S
C2 O24 1.234 . S
C2 O25 1.283 . S
C3 O15 1.281 . S
C3 O16 1.236 . S
C4 O26 1.240 . S
C4 O27 1.264 . S
O5 Mn0 2.095 . S
O5 C14 1.250 . S
O6 Mn1 2.121 . S
O6 C14 1.258 . S
C7 N8 1.326 . S
C7 C11 1.460 . S
C7 H13 0.929 . S
N8 Mn1 2.257 . S
N8 C7 1.326 . S
N8 C12 1.362 . S
C9 C10 1.258 . S
C9 C12 1.431 . S
C9 C29 1.449 . S
C10 C9 1.258 . S
C10 C11 1.477 . S
C10 H30 0.931 . S
C11 C7 1.460 . S
C11 C10 1.477 . S
C11 H31 0.930 . S
C12 N8 1.362 . S
C12 C9 1.431 . S
C12 C22 1.476 . S
H13 C7 0.929 . S
C14 O5 1.250 . S
C14 O6 1.258 . S
O15 Mn0 2.162 . S
O15 C3 1.281 . S
O16 Mn0 2.297 . S
O16 C3 1.236 . S
N17 Mn1 2.282 . S
N17 C18 1.328 . S
N17 C22 1.318 . S
C18 N17 1.328 . S
C18 C19 1.457 . S
C18 H23 0.929 . S
C19 C18 1.457 . S
C19 C20 1.291 . S
C19 H32 0.931 . S
C20 C19 1.291 . S
C20 C21 1.373 . S
C20 H33 0.929 . S
C21 C20 1.373 . S
C21 C22 1.396 . S
C21 C28 1.403 . S
C22 C12 1.476 . S
C22 N17 1.318 . S
C22 C21 1.396 . S
H23 C18 0.929 . S
O24 Mn0 2.385 . S
O24 C2 1.234 . S
O25 Mn0 2.209 . S
O25 Mn1 2.215 . S
O25 C2 1.283 . S
O26 Mn0 2.094 . S
O26 C4 1.240 . S
O27 Mn1 2.117 . S
O27 C4 1.264 . S
C28 C21 1.403 . S
C28 C29 1.399 . S
C28 H34 0.929 . S
C29 C9 1.449 . S
C29 C28 1.399 . S
C29 H35 0.930 . S
H30 C10 0.931 . S
H31 C11 0.930 . S
H32 C19 0.931 . S
H33 C20 0.929 . S
H34 C28 0.929 . S
H35 C29 0.930 . S
Mn36 O41 2.095 . S
Mn36 O51 2.162 . S
Mn36 O52 2.297 . S
Mn36 O60 2.385 . S
Mn36 O61 2.209 . S
Mn36 O62 2.094 . S
Mn37 O42 2.121 . S
Mn37 N44 2.257 . S
Mn37 N53 2.282 . S
Mn37 O61 2.215 . S
Mn37 O63 2.117 . S
C38 O60 1.234 . S
C38 O61 1.283 . S
C39 O51 1.281 . S
C39 O52 1.236 . S
C40 O62 1.240 . S
C40 O63 1.264 . S
O41 Mn36 2.095 . S
O41 C50 1.250 . S
O42 Mn37 2.121 . S
O42 C50 1.258 . S
C43 N44 1.326 . S
C43 C47 1.460 . S
C43 H49 0.929 . S
N44 Mn37 2.257 . S
N44 C43 1.326 . S
N44 C48 1.362 . S
C45 C46 1.258 . S
C45 C48 1.431 . S
C45 C65 1.449 . S
C46 C45 1.258 . S
C46 C47 1.477 . S
C46 H66 0.931 . S
C47 C43 1.460 . S
C47 C46 1.477 . S
C47 H67 0.930 . S
C48 N44 1.362 . S
C48 C45 1.431 . S
C48 C58 1.476 . S
H49 C43 0.929 . S
C50 O41 1.250 . S
C50 O42 1.258 . S
O51 Mn36 2.162 . S
O51 C39 1.281 . S
O52 Mn36 2.297 . S
O52 C39 1.236 . S
N53 Mn37 2.282 . S
N53 C54 1.328 . S
N53 C58 1.318 . S
C54 N53 1.328 . S
C54 C55 1.457 . S
C54 H59 0.929 . S
C55 C54 1.457 . S
C55 C56 1.291 . S
C55 H68 0.931 . S
C56 C55 1.291 . S
C56 C57 1.373 . S
C56 H69 0.929 . S
C57 C56 1.373 . S
C57 C58 1.396 . S
C57 C64 1.403 . S
C58 C48 1.476 . S
C58 N53 1.318 . S
C58 C57 1.396 . S
H59 C54 0.929 . S
O60 Mn36 2.385 . S
O60 C38 1.234 . S
O61 Mn36 2.209 . S
O61 Mn37 2.215 . S
O61 C38 1.283 . S
O62 Mn36 2.094 . S
O62 C40 1.240 . S
O63 Mn37 2.117 . S
O63 C40 1.264 . S
C64 C57 1.403 . S
C64 C65 1.399 . S
C64 H70 0.929 . S
C65 C45 1.449 . S
C65 C64 1.399 . S
C65 H71 0.930 . S
H66 C46 0.931 . S
H67 C47 0.930 . S
H68 C55 0.931 . S
H69 C56 0.929 . S
H70 C64 0.929 . S
H71 C65 0.930 . S
Mn72 O77 2.095 . S
Mn72 O87 2.162 . S
Mn72 O88 2.297 . S
Mn72 O96 2.385 . S
Mn72 O97 2.209 . S
Mn72 O98 2.094 . S
Mn73 O78 2.121 . S
Mn73 N80 2.257 . S
Mn73 N89 2.282 . S
Mn73 O97 2.215 . S
Mn73 O99 2.117 . S
C74 O96 1.234 . S
C74 O97 1.283 . S
C75 O87 1.281 . S
C75 O88 1.236 . S
C76 O98 1.240 . S
C76 O99 1.264 . S
O77 Mn72 2.095 . S
O77 C86 1.250 . S
O78 Mn73 2.121 . S
O78 C86 1.258 . S
C79 N80 1.326 . S
C79 C83 1.460 . S
C79 H85 0.929 . S
N80 Mn73 2.257 . S
N80 C79 1.326 . S
N80 C84 1.362 . S
C81 C82 1.258 . S
C81 C84 1.431 . S
C81 C101 1.449 . S
C82 C81 1.258 . S
C82 C83 1.477 . S
C82 H102 0.931 . S
C83 C79 1.460 . S
C83 C82 1.477 . S
C83 H103 0.930 . S
C84 N80 1.362 . S
C84 C81 1.431 . S
C84 C94 1.476 . S
H85 C79 0.929 . S
C86 O77 1.250 . S
C86 O78 1.258 . S
O87 Mn72 2.162 . S
O87 C75 1.281 . S
O88 Mn72 2.297 . S
O88 C75 1.236 . S
N89 Mn73 2.282 . S
N89 C90 1.328 . S
N89 C94 1.318 . S
C90 N89 1.328 . S
C90 C91 1.457 . S
C90 H95 0.929 . S
C91 C90 1.457 . S
C91 C92 1.291 . S
C91 H104 0.931 . S
C92 C91 1.291 . S
C92 C93 1.373 . S
C92 H105 0.929 . S
C93 C92 1.373 . S
C93 C94 1.396 . S
C93 C100 1.403 . S
C94 C84 1.476 . S
C94 N89 1.318 . S
C94 C93 1.396 . S
H95 C90 0.929 . S
O96 Mn72 2.385 . S
O96 C74 1.234 . S
O97 Mn72 2.209 . S
O97 Mn73 2.215 . S
O97 C74 1.283 . S
O98 Mn72 2.094 . S
O98 C76 1.240 . S
O99 Mn73 2.117 . S
O99 C76 1.264 . S
C100 C93 1.403 . S
C100 C101 1.399 . S
C100 H106 0.929 . S
C101 C81 1.449 . S
C101 C100 1.399 . S
C101 H107 0.930 . S
H102 C82 0.931 . S
H103 C83 0.930 . S
H104 C91 0.931 . S
H105 C92 0.929 . S
H106 C100 0.929 . S
H107 C101 0.930 . S
Mn108 O113 2.095 . S
Mn108 O123 2.162 . S
Mn108 O124 2.297 . S
Mn108 O132 2.385 . S
Mn108 O133 2.209 . S
Mn108 O134 2.094 . S
Mn109 O114 2.121 . S
Mn109 N116 2.257 . S
Mn109 N125 2.282 . S
Mn109 O133 2.215 . S
Mn109 O135 2.117 . S
C110 O132 1.234 . S
C110 O133 1.283 . S
C111 O123 1.281 . S
C111 O124 1.236 . S
C112 O134 1.240 . S
C112 O135 1.264 . S
O113 Mn108 2.095 . S
O113 C122 1.250 . S
O114 Mn109 2.121 . S
O114 C122 1.258 . S
C115 N116 1.326 . S
C115 C119 1.460 . S
C115 H121 0.929 . S
N116 Mn109 2.257 . S
N116 C115 1.326 . S
N116 C120 1.362 . S
C117 C118 1.258 . S
C117 C120 1.431 . S
C117 C137 1.449 . S
C118 C117 1.258 . S
C118 C119 1.477 . S
C118 H138 0.931 . S
C119 C115 1.460 . S
C119 C118 1.477 . S
C119 H139 0.930 . S
C120 N116 1.362 . S
C120 C117 1.431 . S
C120 C130 1.476 . S
H121 C115 0.929 . S
C122 O113 1.250 . S
C122 O114 1.258 . S
O123 Mn108 2.162 . S
O123 C111 1.281 . S
O124 Mn108 2.297 . S
O124 C111 1.236 . S
N125 Mn109 2.282 . S
N125 C126 1.328 . S
N125 C130 1.318 . S
C126 N125 1.328 . S
C126 C127 1.457 . S
C126 H131 0.929 . S
C127 C126 1.457 . S
C127 C128 1.291 . S
C127 H140 0.931 . S
C128 C127 1.291 . S
C128 C129 1.373 . S
C128 H141 0.929 . S
C129 C128 1.373 . S
C129 C130 1.396 . S
C129 C136 1.403 . S
C130 C120 1.476 . S
C130 N125 1.318 . S
C130 C129 1.396 . S
H131 C126 0.929 . S
O132 Mn108 2.385 . S
O132 C110 1.234 . S
O133 Mn108 2.209 . S
O133 Mn109 2.215 . S
O133 C110 1.283 . S
O134 Mn108 2.094 . S
O134 C112 1.240 . S
O135 Mn109 2.117 . S
O135 C112 1.264 . S
C136 C129 1.403 . S
C136 C137 1.399 . S
C136 H142 0.929 . S
C137 C117 1.449 . S
C137 C136 1.399 . S
C137 H143 0.930 . S
H138 C118 0.931 . S
H139 C119 0.930 . S
H140 C127 0.931 . S
H141 C128 0.929 . S
H142 C136 0.929 . S
H143 C137 0.930 . S
Mn144 O149 2.095 . S
Mn144 O159 2.162 . S
Mn144 O160 2.297 . S
Mn144 O168 2.385 . S
Mn144 O169 2.209 . S
Mn144 O170 2.094 . S
Mn145 O150 2.121 . S
Mn145 N152 2.257 . S
Mn145 N161 2.282 . S
Mn145 O169 2.215 . S
Mn145 O171 2.117 . S
C146 O168 1.234 . S
C146 O169 1.283 . S
C147 O159 1.281 . S
C147 O160 1.236 . S
C148 O170 1.240 . S
C148 O171 1.264 . S
O149 Mn144 2.095 . S
O149 C158 1.250 . S
O150 Mn145 2.121 . S
O150 C158 1.258 . S
C151 N152 1.326 1_554 S
C151 C155 1.460 . S
C151 H157 0.929 . S
N152 Mn145 2.257 . S
N152 C151 1.326 1_556 S
N152 C156 1.368 . S
C153 C154 1.258 . S
C153 C156 1.411 1_554 S
C153 C173 1.449 . S
C154 C153 1.258 . S
C154 C155 1.477 . S
C154 H174 0.931 . S
C155 C151 1.460 . S
C155 C154 1.477 . S
C155 H175 0.930 . S
C156 N152 1.368 . S
C156 C153 1.411 1_556 S
C156 C166 1.492 . S
H157 C151 0.929 . S
C158 O149 1.250 . S
C158 O150 1.258 . S
O159 Mn144 2.162 . S
O159 C147 1.281 . S
O160 Mn144 2.297 . S
O160 C147 1.236 . S
N161 Mn145 2.282 . S
N161 C162 1.328 . S
N161 C166 1.318 . S
C162 N161 1.328 . S
C162 C163 1.457 . S
C162 H167 0.929 . S
C163 C162 1.457 . S
C163 C164 1.291 . S
C163 H176 0.931 . S
C164 C163 1.291 . S
C164 C165 1.373 . S
C164 H177 0.929 . S
C165 C164 1.373 . S
C165 C166 1.396 . S
C165 C172 1.403 1_556 S
C166 C156 1.492 . S
C166 N161 1.318 . S
C166 C165 1.396 . S
H167 C162 0.929 . S
O168 Mn144 2.385 . S
O168 C146 1.234 . S
O169 Mn144 2.209 . S
O169 Mn145 2.215 . S
O169 C146 1.283 . S
O170 Mn144 2.094 . S
O170 C148 1.240 . S
O171 Mn145 2.117 . S
O171 C148 1.264 . S
C172 C165 1.403 1_554 S
C172 C173 1.399 . S
C172 H178 0.929 . S
C173 C153 1.449 . S
C173 C172 1.399 . S
C173 H179 0.930 . S
H174 C154 0.931 . S
H175 C155 0.930 . S
H176 C163 0.931 . S
H177 C164 0.929 . S
H178 C172 0.929 . S
H179 C173 0.930 . S
Mn180 O185 2.095 . S
Mn180 O195 2.162 . S
Mn180 O196 2.297 . S
Mn180 O204 2.385 . S
Mn180 O205 2.209 . S
Mn180 O206 2.094 . S
Mn181 O186 2.121 . S
Mn181 N188 2.257 . S
Mn181 N197 2.282 . S
Mn181 O205 2.215 . S
Mn181 O207 2.117 . S
C182 O204 1.234 . S
C182 O205 1.283 . S
C183 O195 1.281 . S
C183 O196 1.236 . S
C184 O206 1.240 . S
C184 O207 1.264 . S
O185 Mn180 2.095 . S
O185 C194 1.250 . S
O186 Mn181 2.121 . S
O186 C194 1.258 . S
C187 N188 1.326 . S
C187 C191 1.460 . S
C187 H193 0.929 . S
N188 Mn181 2.257 . S
N188 C187 1.326 . S
N188 C192 1.362 . S
C189 C190 1.258 . S
C189 C192 1.431 . S
C189 C209 1.449 . S
C190 C189 1.258 . S
C190 C191 1.477 . S
C190 H210 0.931 . S
C191 C187 1.460 . S
C191 C190 1.477 . S
C191 H211 0.930 . S
C192 N188 1.362 . S
C192 C189 1.431 . S
C192 C202 1.476 . S
H193 C187 0.929 . S
C194 O185 1.250 . S
C194 O186 1.258 . S
O195 Mn180 2.162 . S
O195 C183 1.281 . S
O196 Mn180 2.297 . S
O196 C183 1.236 . S
N197 Mn181 2.282 . S
N197 C198 1.328 . S
N197 C202 1.318 . S
C198 N197 1.328 . S
C198 C199 1.457 . S
C198 H203 0.929 . S
C199 C198 1.457 . S
C199 C200 1.291 . S
C199 H212 0.931 . S
C200 C199 1.291 . S
C200 C201 1.373 . S
C200 H213 0.929 . S
C201 C200 1.373 . S
C201 C202 1.396 . S
C201 C208 1.403 . S
C202 C192 1.476 . S
C202 N197 1.318 . S
C202 C201 1.396 . S
H203 C198 0.929 . S
O204 Mn180 2.385 . S
O204 C182 1.234 . S
O205 Mn180 2.209 . S
O205 Mn181 2.215 . S
O205 C182 1.283 . S
O206 Mn180 2.094 . S
O206 C184 1.240 . S
O207 Mn181 2.117 . S
O207 C184 1.264 . S
C208 C201 1.403 . S
C208 C209 1.399 . S
C208 H214 0.929 . S
C209 C189 1.449 . S
C209 C208 1.399 . S
C209 H215 0.930 . S
H210 C190 0.931 . S
H211 C191 0.930 . S
H212 C199 0.931 . S
H213 C200 0.929 . S
H214 C208 0.929 . S
H215 C209 0.930 . S
Mn216 O221 2.095 . S
Mn216 O231 2.162 . S
Mn216 O232 2.297 . S
Mn216 O240 2.385 . S
Mn216 O241 2.209 . S
Mn216 O242 2.094 . S
Mn217 O222 2.121 . S
Mn217 N224 2.257 . S
Mn217 N233 2.282 . S
Mn217 O241 2.215 . S
Mn217 O243 2.117 . S
C218 O240 1.234 . S
C218 O241 1.283 . S
C219 O231 1.281 . S
C219 O232 1.236 . S
C220 O242 1.240 . S
C220 O243 1.264 . S
O221 Mn216 2.095 . S
O221 C230 1.250 . S
O222 Mn217 2.121 . S
O222 C230 1.258 . S
C223 N224 1.326 . S
C223 C227 1.460 . S
C223 H229 0.929 . S
N224 Mn217 2.257 . S
N224 C223 1.326 . S
N224 C228 1.362 . S
C225 C226 1.258 . S
C225 C228 1.431 . S
C225 C245 1.449 . S
C226 C225 1.258 . S
C226 C227 1.477 . S
C226 H246 0.931 . S
C227 C223 1.460 . S
C227 C226 1.477 . S
C227 H247 0.930 . S
C228 N224 1.362 . S
C228 C225 1.431 . S
C228 C238 1.476 . S
H229 C223 0.929 . S
C230 O221 1.250 . S
C230 O222 1.258 . S
O231 Mn216 2.162 . S
O231 C219 1.281 . S
O232 Mn216 2.297 . S
O232 C219 1.236 . S
N233 Mn217 2.282 . S
N233 C234 1.328 . S
N233 C238 1.318 . S
C234 N233 1.328 . S
C234 C235 1.457 . S
C234 H239 0.929 . S
C235 C234 1.457 . S
C235 C236 1.291 . S
C235 H248 0.931 . S
C236 C235 1.291 . S
C236 C237 1.373 . S
C236 H249 0.929 . S
C237 C236 1.373 . S
C237 C238 1.396 . S
C237 C244 1.403 . S
C238 C228 1.476 . S
C238 N233 1.318 . S
C238 C237 1.396 . S
H239 C234 0.929 . S
O240 Mn216 2.385 . S
O240 C218 1.234 . S
O241 Mn216 2.209 . S
O241 Mn217 2.215 . S
O241 C218 1.283 . S
O242 Mn216 2.094 . S
O242 C220 1.240 . S
O243 Mn217 2.117 . S
O243 C220 1.264 . S
C244 C237 1.403 . S
C244 C245 1.399 . S
C244 H250 0.929 . S
C245 C225 1.449 . S
C245 C244 1.399 . S
C245 H251 0.930 . S
H246 C226 0.931 . S
H247 C227 0.930 . S
H248 C235 0.931 . S
H249 C236 0.929 . S
H250 C244 0.929 . S
H251 C245 0.930 . S
Mn252 O257 2.095 . S
Mn252 O267 2.162 . S
Mn252 O268 2.297 . S
Mn252 O276 2.385 . S
Mn252 O277 2.209 . S
Mn252 O278 2.094 . S
Mn253 O258 2.121 . S
Mn253 N260 2.257 . S
Mn253 N269 2.282 . S
Mn253 O277 2.215 . S
Mn253 O279 2.117 . S
C254 O276 1.234 . S
C254 O277 1.283 . S
C255 O267 1.281 . S
C255 O268 1.236 . S
C256 O278 1.240 . S
C256 O279 1.264 . S
O257 Mn252 2.095 . S
O257 C266 1.250 . S
O258 Mn253 2.121 . S
O258 C266 1.258 . S
C259 N260 1.326 . S
C259 C263 1.460 . S
C259 H265 0.929 . S
N260 Mn253 2.257 . S
N260 C259 1.326 . S
N260 C264 1.362 . S
C261 C262 1.258 . S
C261 C264 1.431 . S
C261 C281 1.449 . S
C262 C261 1.258 . S
C262 C263 1.477 . S
C262 H282 0.931 . S
C263 C259 1.460 . S
C263 C262 1.477 . S
C263 H283 0.930 . S
C264 N260 1.362 . S
C264 C261 1.431 . S
C264 C274 1.476 . S
H265 C259 0.929 . S
C266 O257 1.250 . S
C266 O258 1.258 . S
O267 Mn252 2.162 . S
O267 C255 1.281 . S
O268 Mn252 2.297 . S
O268 C255 1.236 . S
N269 Mn253 2.282 . S
N269 C270 1.328 . S
N269 C274 1.318 . S
C270 N269 1.328 . S
C270 C271 1.457 . S
C270 H275 0.929 . S
C271 C270 1.457 . S
C271 C272 1.291 . S
C271 H284 0.931 . S
C272 C271 1.291 . S
C272 C273 1.373 . S
C272 H285 0.929 . S
C273 C272 1.373 . S
C273 C274 1.396 . S
C273 C280 1.403 . S
C274 C264 1.476 . S
C274 N269 1.318 . S
C274 C273 1.396 . S
H275 C270 0.929 . S
O276 Mn252 2.385 . S
O276 C254 1.234 . S
O277 Mn252 2.209 . S
O277 Mn253 2.215 . S
O277 C254 1.283 . S
O278 Mn252 2.094 . S
O278 C256 1.240 . S
O279 Mn253 2.117 . S
O279 C256 1.264 . S
C280 C273 1.403 . S
C280 C281 1.399 . S
C280 H286 0.929 . S
C281 C261 1.449 . S
C281 C280 1.399 . S
C281 H287 0.930 . S
H282 C262 0.931 . S
H283 C263 0.930 . S
H284 C271 0.931 . S
H285 C272 0.929 . S
H286 C280 0.929 . S
H287 C281 0.930 . S
Mn288 O293 2.095 . S
Mn288 O303 2.162 . S
Mn288 O304 2.297 . S
Mn288 O312 2.385 . S
Mn288 O313 2.209 . S
Mn288 O314 2.094 . S
Mn289 O294 2.121 . S
Mn289 N296 2.257 . S
Mn289 N305 2.282 . S
Mn289 O313 2.215 . S
Mn289 O315 2.117 . S
C290 O312 1.234 . S
C290 O313 1.283 . S
C291 O303 1.281 . S
C291 O304 1.236 . S
C292 O314 1.240 . S
C292 O315 1.264 . S
O293 Mn288 2.095 . S
O293 C302 1.250 . S
O294 Mn289 2.121 . S
O294 C302 1.258 . S
C295 N296 1.326 . S
C295 C299 1.460 . S
C295 H301 0.929 . S
N296 Mn289 2.257 . S
N296 C295 1.326 . S
N296 C300 1.362 . S
C297 C298 1.258 . S
C297 C300 1.431 . S
C297 C317 1.449 . S
C298 C297 1.258 . S
C298 C299 1.477 . S
C298 H318 0.931 . S
C299 C295 1.460 . S
C299 C298 1.477 . S
C299 H319 0.930 . S
C300 N296 1.362 . S
C300 C297 1.431 . S
C300 C310 1.476 . S
H301 C295 0.929 . S
C302 O293 1.250 . S
C302 O294 1.258 . S
O303 Mn288 2.162 . S
O303 C291 1.281 . S
O304 Mn288 2.297 . S
O304 C291 1.236 . S
N305 Mn289 2.282 . S
N305 C306 1.328 . S
N305 C310 1.318 . S
C306 N305 1.328 . S
C306 C307 1.457 . S
C306 H311 0.929 . S
C307 C306 1.457 . S
C307 C308 1.291 . S
C307 H320 0.931 . S
C308 C307 1.291 . S
C308 C309 1.373 . S
C308 H321 0.929 . S
C309 C308 1.373 . S
C309 C310 1.396 . S
C309 C316 1.403 . S
C310 C300 1.476 . S
C310 N305 1.318 . S
C310 C309 1.396 . S
H311 C306 0.929 . S
O312 Mn288 2.385 . S
O312 C290 1.234 . S
O313 Mn288 2.209 . S
O313 Mn289 2.215 . S
O313 C290 1.283 . S
O314 Mn288 2.094 . S
O314 C292 1.240 . S
O315 Mn289 2.117 . S
O315 C292 1.264 . S
C316 C309 1.403 . S
C316 C317 1.399 . S
C316 H322 0.929 . S
C317 C297 1.449 . S
C317 C316 1.399 . S
C317 H323 0.930 . S
H318 C298 0.931 . S
H319 C299 0.930 . S
H320 C307 0.931 . S
H321 C308 0.929 . S
H322 C316 0.929 . S
H323 C317 0.930 . S
Mn324 O329 2.095 . S
Mn324 O339 2.162 . S
Mn324 O340 2.297 . S
Mn324 O348 2.385 . S
Mn324 O349 2.209 . S
Mn324 O350 2.094 . S
Mn325 O330 2.121 . S
Mn325 N332 2.257 . S
Mn325 N341 2.282 . S
Mn325 O349 2.215 . S
Mn325 O351 2.117 . S
C326 O348 1.234 . S
C326 O349 1.283 . S
C327 O339 1.281 . S
C327 O340 1.236 . S
C328 O350 1.240 . S
C328 O351 1.264 . S
O329 Mn324 2.095 . S
O329 C338 1.250 . S
O330 Mn325 2.121 . S
O330 C338 1.258 . S
C331 N332 1.326 . S
C331 C335 1.460 . S
C331 H337 0.929 . S
N332 Mn325 2.257 . S
N332 C331 1.326 . S
N332 C336 1.362 . S
C333 C334 1.258 . S
C333 C336 1.431 . S
C333 C353 1.449 . S
C334 C333 1.258 . S
C334 C335 1.477 . S
C334 H354 0.931 . S
C335 C331 1.460 . S
C335 C334 1.477 . S
C335 H355 0.930 . S
C336 N332 1.362 . S
C336 C333 1.431 . S
C336 C346 1.476 . S
H337 C331 0.929 . S
C338 O329 1.250 . S
C338 O330 1.258 . S
O339 Mn324 2.162 . S
O339 C327 1.281 . S
O340 Mn324 2.297 . S
O340 C327 1.236 . S
N341 Mn325 2.282 . S
N341 C342 1.328 . S
N341 C346 1.318 . S
C342 N341 1.328 . S
C342 C343 1.457 . S
C342 H347 0.929 . S
C343 C342 1.457 . S
C343 C344 1.291 . S
C343 H356 0.931 . S
C344 C343 1.291 . S
C344 C345 1.373 . S
C344 H357 0.929 . S
C345 C344 1.373 . S
C345 C346 1.396 . S
C345 C352 1.403 . S
C346 C336 1.476 . S
C346 N341 1.318 . S
C346 C345 1.396 . S
H347 C342 0.929 . S
O348 Mn324 2.385 . S
O348 C326 1.234 . S
O349 Mn324 2.209 . S
O349 Mn325 2.215 . S
O349 C326 1.283 . S
O350 Mn324 2.094 . S
O350 C328 1.240 . S
O351 Mn325 2.117 . S
O351 C328 1.264 . S
C352 C345 1.403 . S
C352 C353 1.399 . S
C352 H358 0.929 . S
C353 C333 1.449 . S
C353 C352 1.399 . S
C353 H359 0.930 . S
H354 C334 0.931 . S
H355 C335 0.930 . S
H356 C343 0.931 . S
H357 C344 0.929 . S
H358 C352 0.929 . S
H359 C353 0.930 . S
Mn360 O365 2.095 . S
Mn360 O375 2.162 . S
Mn360 O376 2.297 . S
Mn360 O384 2.385 . S
Mn360 O385 2.209 . S
Mn360 O386 2.094 . S
Mn361 O366 2.121 . S
Mn361 N368 2.257 . S
Mn361 N377 2.282 . S
Mn361 O385 2.215 . S
Mn361 O387 2.117 . S
C362 O384 1.234 . S
C362 O385 1.283 . S
C363 O375 1.281 . S
C363 O376 1.236 . S
C364 O386 1.240 . S
C364 O387 1.264 . S
O365 Mn360 2.095 . S
O365 C374 1.250 . S
O366 Mn361 2.121 . S
O366 C374 1.258 . S
C367 N368 1.326 . S
C367 C371 1.460 . S
C367 H373 0.929 . S
N368 Mn361 2.257 . S
N368 C367 1.326 . S
N368 C372 1.362 . S
C369 C370 1.258 . S
C369 C372 1.431 . S
C369 C389 1.449 . S
C370 C369 1.258 . S
C370 C371 1.477 . S
C370 H390 0.931 . S
C371 C367 1.460 . S
C371 C370 1.477 . S
C371 H391 0.930 . S
C372 N368 1.362 . S
C372 C369 1.431 . S
C372 C382 1.476 . S
H373 C367 0.929 . S
C374 O365 1.250 . S
C374 O366 1.258 . S
O375 Mn360 2.162 . S
O375 C363 1.281 . S
O376 Mn360 2.297 . S
O376 C363 1.236 . S
N377 Mn361 2.282 . S
N377 C378 1.328 . S
N377 C382 1.318 . S
C378 N377 1.328 . S
C378 C379 1.457 . S
C378 H383 0.929 . S
C379 C378 1.457 . S
C379 C380 1.291 . S
C379 H392 0.931 . S
C380 C379 1.291 . S
C380 C381 1.373 . S
C380 H393 0.929 . S
C381 C380 1.373 . S
C381 C382 1.396 . S
C381 C388 1.403 . S
C382 C372 1.476 . S
C382 N377 1.318 . S
C382 C381 1.396 . S
H383 C378 0.929 . S
O384 Mn360 2.385 . S
O384 C362 1.234 . S
O385 Mn360 2.209 . S
O385 Mn361 2.215 . S
O385 C362 1.283 . S
O386 Mn360 2.094 . S
O386 C364 1.240 . S
O387 Mn361 2.117 . S
O387 C364 1.264 . S
C388 C381 1.403 . S
C388 C389 1.399 . S
C388 H394 0.929 . S
C389 C369 1.449 . S
C389 C388 1.399 . S
C389 H395 0.930 . S
H390 C370 0.931 . S
H391 C371 0.930 . S
H392 C379 0.931 . S
H393 C380 0.929 . S
H394 C388 0.929 . S
H395 C389 0.930 . S
Mn396 O401 2.095 . S
Mn396 O411 2.162 . S
Mn396 O412 2.297 . S
Mn396 O420 2.385 . S
Mn396 O421 2.209 . S
Mn396 O422 2.094 . S
Mn397 O402 2.121 . S
Mn397 N404 2.257 . S
Mn397 N413 2.282 . S
Mn397 O421 2.215 . S
Mn397 O423 2.117 . S
C398 O420 1.234 . S
C398 O421 1.283 . S
C399 O411 1.281 . S
C399 O412 1.236 . S
C400 O422 1.240 . S
C400 O423 1.264 . S
O401 Mn396 2.095 . S
O401 C410 1.250 . S
O402 Mn397 2.121 . S
O402 C410 1.258 . S
C403 N404 1.326 . S
C403 C407 1.460 . S
C403 H409 0.929 . S
N404 Mn397 2.257 . S
N404 C403 1.326 . S
N404 C408 1.362 . S
C405 C406 1.258 . S
C405 C408 1.431 . S
C405 C425 1.449 . S
C406 C405 1.258 . S
C406 C407 1.477 . S
C406 H426 0.931 . S
C407 C403 1.460 . S
C407 C406 1.477 . S
C407 H427 0.930 . S
C408 N404 1.362 . S
C408 C405 1.431 . S
C408 C418 1.476 . S
H409 C403 0.929 . S
C410 O401 1.250 . S
C410 O402 1.258 . S
O411 Mn396 2.162 . S
O411 C399 1.281 . S
O412 Mn396 2.297 . S
O412 C399 1.236 . S
N413 Mn397 2.282 . S
N413 C414 1.328 . S
N413 C418 1.318 . S
C414 N413 1.328 . S
C414 C415 1.457 . S
C414 H419 0.929 . S
C415 C414 1.457 . S
C415 C416 1.291 . S
C415 H428 0.931 . S
C416 C415 1.291 . S
C416 C417 1.373 . S
C416 H429 0.929 . S
C417 C416 1.373 . S
C417 C418 1.396 . S
C417 C424 1.403 . S
C418 C408 1.476 . S
C418 N413 1.318 . S
C418 C417 1.396 . S
H419 C414 0.929 . S
O420 Mn396 2.385 . S
O420 C398 1.234 . S
O421 Mn396 2.209 . S
O421 Mn397 2.215 . S
O421 C398 1.283 . S
O422 Mn396 2.094 . S
O422 C400 1.240 . S
O423 Mn397 2.117 . S
O423 C400 1.264 . S
C424 C417 1.403 . S
C424 C425 1.399 . S
C424 H430 0.929 . S
C425 C405 1.449 . S
C425 C424 1.399 . S
C425 H431 0.930 . S
H426 C406 0.931 . S
H427 C407 0.930 . S
H428 C415 0.931 . S
H429 C416 0.929 . S
H430 C424 0.929 . S
H431 C425 0.930 . S
Mn432 O437 2.095 . S
Mn432 O447 2.162 . S
Mn432 O448 2.297 . S
Mn432 O456 2.385 . S
Mn432 O457 2.209 . S
Mn432 O458 2.094 . S
Mn433 O438 2.121 . S
Mn433 N440 2.257 . S
Mn433 N449 2.282 . S
Mn433 O457 2.215 . S
Mn433 O459 2.117 . S
C434 O456 1.234 . S
C434 O457 1.283 . S
C435 O447 1.281 . S
C435 O448 1.236 . S
C436 O458 1.240 . S
C436 O459 1.264 . S
O437 Mn432 2.095 . S
O437 C446 1.250 . S
O438 Mn433 2.121 . S
O438 C446 1.258 . S
C439 N440 1.326 1_556 S
C439 C443 1.460 . S
C439 H445 0.929 . S
N440 Mn433 2.257 . S
N440 C439 1.326 1_554 S
N440 C444 1.362 . S
C441 C442 1.258 . S
C441 C444 1.431 1_556 S
C441 C461 1.449 . S
C442 C441 1.258 . S
C442 C443 1.477 . S
C442 H462 0.931 . S
C443 C439 1.460 . S
C443 C442 1.477 . S
C443 H463 0.930 . S
C444 N440 1.362 . S
C444 C441 1.431 1_554 S
C444 C454 1.476 . S
H445 C439 0.929 . S
C446 O437 1.250 . S
C446 O438 1.258 . S
O447 Mn432 2.162 . S
O447 C435 1.281 . S
O448 Mn432 2.297 . S
O448 C435 1.236 . S
N449 Mn433 2.282 . S
N449 C450 1.328 . S
N449 C454 1.318 . S
C450 N449 1.328 . S
C450 C451 1.457 . S
C450 H455 0.929 . S
C451 C450 1.457 . S
C451 C452 1.291 . S
C451 H464 0.931 . S
C452 C451 1.291 . S
C452 C453 1.373 . S
C452 H465 0.929 . S
C453 C452 1.373 . S
C453 C454 1.396 . S
C453 C460 1.403 1_554 S
C454 C444 1.476 . S
C454 N449 1.318 . S
C454 C453 1.396 . S
H455 C450 0.929 . S
O456 Mn432 2.385 . S
O456 C434 1.234 . S
O457 Mn432 2.209 . S
O457 Mn433 2.215 . S
O457 C434 1.283 . S
O458 Mn432 2.094 . S
O458 C436 1.240 . S
O459 Mn433 2.117 . S
O459 C436 1.264 . S
C460 C453 1.403 1_556 S
C460 C461 1.399 . S
C460 H466 0.929 . S
C461 C441 1.449 . S
C461 C460 1.399 . S
C461 H467 0.930 . S
H462 C442 0.931 . S
H463 C443 0.930 . S
H464 C451 0.931 . S
H465 C452 0.929 . S
H466 C460 0.929 . S
H467 C461 0.930 . S
Mn468 O473 2.095 . S
Mn468 O483 2.162 . S
Mn468 O484 2.297 . S
Mn468 O492 2.385 . S
Mn468 O493 2.209 . S
Mn468 O494 2.094 . S
Mn469 O474 2.121 . S
Mn469 N476 2.257 . S
Mn469 N485 2.282 . S
Mn469 O493 2.215 . S
Mn469 O495 2.117 . S
C470 O492 1.234 . S
C470 O493 1.283 . S
C471 O483 1.281 . S
C471 O484 1.236 . S
C472 O494 1.240 . S
C472 O495 1.264 . S
O473 Mn468 2.095 . S
O473 C482 1.250 . S
O474 Mn469 2.121 . S
O474 C482 1.258 . S
C475 N476 1.326 . S
C475 C479 1.460 . S
C475 H481 0.929 . S
N476 Mn469 2.257 . S
N476 C475 1.326 . S
N476 C480 1.362 . S
C477 C478 1.258 . S
C477 C480 1.431 . S
C477 C497 1.449 . S
C478 C477 1.258 . S
C478 C479 1.477 . S
C478 H498 0.931 . S
C479 C475 1.460 . S
C479 C478 1.477 . S
C479 H499 0.930 . S
C480 N476 1.362 . S
C480 C477 1.431 . S
C480 C490 1.476 . S
H481 C475 0.929 . S
C482 O473 1.250 . S
C482 O474 1.258 . S
O483 Mn468 2.162 . S
O483 C471 1.281 . S
O484 Mn468 2.297 . S
O484 C471 1.236 . S
N485 Mn469 2.282 . S
N485 C486 1.328 . S
N485 C490 1.318 . S
C486 N485 1.328 . S
C486 C487 1.457 . S
C486 H491 0.929 . S
C487 C486 1.457 . S
C487 C488 1.291 . S
C487 H500 0.931 . S
C488 C487 1.291 . S
C488 C489 1.373 . S
C488 H501 0.929 . S
C489 C488 1.373 . S
C489 C490 1.396 . S
C489 C496 1.403 . S
C490 C480 1.476 . S
C490 N485 1.318 . S
C490 C489 1.396 . S
H491 C486 0.929 . S
O492 Mn468 2.385 . S
O492 C470 1.234 . S
O493 Mn468 2.209 . S
O493 Mn469 2.215 . S
O493 C470 1.283 . S
O494 Mn468 2.094 . S
O494 C472 1.240 . S
O495 Mn469 2.117 . S
O495 C472 1.264 . S
C496 C489 1.403 . S
C496 C497 1.399 . S
C496 H502 0.929 . S
C497 C477 1.449 . S
C497 C496 1.399 . S
C497 H503 0.930 . S
H498 C478 0.931 . S
H499 C479 0.930 . S
H500 C487 0.931 . S
H501 C488 0.929 . S
H502 C496 0.929 . S
H503 C497 0.930 . S
Mn504 O509 2.095 . S
Mn504 O519 2.162 . S
Mn504 O520 2.297 . S
Mn504 O528 2.385 . S
Mn504 O529 2.209 . S
Mn504 O530 2.094 . S
Mn505 O510 2.121 . S
Mn505 N512 2.257 . S
Mn505 N521 2.282 . S
Mn505 O529 2.215 . S
Mn505 O531 2.117 . S
C506 O528 1.234 . S
C506 O529 1.283 . S
C507 O519 1.281 . S
C507 O520 1.236 . S
C508 O530 1.240 . S
C508 O531 1.264 . S
O509 Mn504 2.095 . S
O509 C518 1.250 . S
O510 Mn505 2.121 . S
O510 C518 1.258 . S
C511 N512 1.326 . S
C511 C515 1.460 . S
C511 H517 0.929 . S
N512 Mn505 2.257 . S
N512 C511 1.326 . S
N512 C516 1.362 . S
C513 C514 1.258 . S
C513 C516 1.431 . S
C513 C533 1.449 . S
C514 C513 1.258 . S
C514 C515 1.477 . S
C514 H534 0.931 . S
C515 C511 1.460 . S
C515 C514 1.477 . S
C515 H535 0.930 . S
C516 N512 1.362 . S
C516 C513 1.431 . S
C516 C526 1.476 . S
H517 C511 0.929 . S
C518 O509 1.250 . S
C518 O510 1.258 . S
O519 Mn504 2.162 . S
O519 C507 1.281 . S
O520 Mn504 2.297 . S
O520 C507 1.236 . S
N521 Mn505 2.282 . S
N521 C522 1.328 . S
N521 C526 1.318 . S
C522 N521 1.328 . S
C522 C523 1.457 . S
C522 H527 0.929 . S
C523 C522 1.457 . S
C523 C524 1.291 . S
C523 H536 0.931 . S
C524 C523 1.291 . S
C524 C525 1.373 . S
C524 H537 0.929 . S
C525 C524 1.373 . S
C525 C526 1.396 . S
C525 C532 1.403 . S
C526 C516 1.476 . S
C526 N521 1.318 . S
C526 C525 1.396 . S
H527 C522 0.929 . S
O528 Mn504 2.385 . S
O528 C506 1.234 . S
O529 Mn504 2.209 . S
O529 Mn505 2.215 . S
O529 C506 1.283 . S
O530 Mn504 2.094 . S
O530 C508 1.240 . S
O531 Mn505 2.117 . S
O531 C508 1.264 . S
C532 C525 1.403 . S
C532 C533 1.399 . S
C532 H538 0.929 . S
C533 C513 1.449 . S
C533 C532 1.399 . S
C533 H539 0.930 . S
H534 C514 0.931 . S
H535 C515 0.930 . S
H536 C523 0.931 . S
H537 C524 0.929 . S
H538 C532 0.929 . S
H539 C533 0.930 . S
Mn540 O545 2.095 . S
Mn540 O555 2.162 . S
Mn540 O556 2.297 . S
Mn540 O564 2.385 . S
Mn540 O565 2.209 . S
Mn540 O566 2.094 . S
Mn541 O546 2.121 . S
Mn541 N548 2.257 . S
Mn541 N557 2.282 . S
Mn541 O565 2.215 . S
Mn541 O567 2.117 . S
C542 O564 1.234 . S
C542 O565 1.283 . S
C543 O555 1.281 . S
C543 O556 1.236 . S
C544 O566 1.240 . S
C544 O567 1.264 . S
O545 Mn540 2.095 . S
O545 C554 1.250 . S
O546 Mn541 2.121 . S
O546 C554 1.258 . S
C547 N548 1.326 . S
C547 C551 1.460 . S
C547 H553 0.929 . S
N548 Mn541 2.257 . S
N548 C547 1.326 . S
N548 C552 1.362 . S
C549 C550 1.258 . S
C549 C552 1.431 . S
C549 C569 1.449 . S
C550 C549 1.258 . S
C550 C551 1.477 . S
C550 H570 0.931 . S
C551 C547 1.460 . S
C551 C550 1.477 . S
C551 H571 0.930 . S
C552 N548 1.362 . S
C552 C549 1.431 . S
C552 C562 1.476 . S
H553 C547 0.929 . S
C554 O545 1.250 . S
C554 O546 1.258 . S
O555 Mn540 2.162 . S
O555 C543 1.281 . S
O556 Mn540 2.297 . S
O556 C543 1.236 . S
N557 Mn541 2.282 . S
N557 C558 1.328 . S
N557 C562 1.318 . S
C558 N557 1.328 . S
C558 C559 1.457 . S
C558 H563 0.929 . S
C559 C558 1.457 . S
C559 C560 1.291 . S
C559 H572 0.931 . S
C560 C559 1.291 . S
C560 C561 1.373 . S
C560 H573 0.929 . S
C561 C560 1.373 . S
C561 C562 1.396 . S
C561 C568 1.403 . S
C562 C552 1.476 . S
C562 N557 1.318 . S
C562 C561 1.396 . S
H563 C558 0.929 . S
O564 Mn540 2.385 . S
O564 C542 1.234 . S
O565 Mn540 2.209 . S
O565 Mn541 2.215 . S
O565 C542 1.283 . S
O566 Mn540 2.094 . S
O566 C544 1.240 . S
O567 Mn541 2.117 . S
O567 C544 1.264 . S
C568 C561 1.403 . S
C568 C569 1.399 . S
C568 H574 0.929 . S
C569 C549 1.449 . S
C569 C568 1.399 . S
C569 H575 0.930 . S
H570 C550 0.931 . S
H571 C551 0.930 . S
H572 C559 0.931 . S
H573 C560 0.929 . S
H574 C568 0.929 . S
H575 C569 0.930 . S
H576 C584 0.950 . S
H577 C589 0.950 . S
H578 C586 0.950 . S
H579 C588 0.950 . S
H580 C590 0.950 . S
H581 C592 0.950 . S
H582 C594 0.950 . S
H583 C595 0.950 . S
C584 H576 0.950 . S
C584 C585 1.386 . S
C584 C586 1.391 . S
C585 C584 1.386 . S
C585 C589 1.393 . S
C586 H578 0.950 . S
C586 C584 1.391 . S
C586 C587 1.400 . S
C587 C586 1.400 . S
C587 C588 1.398 . S
C587 C593 1.491 . S
C588 H579 0.950 . S
C588 C587 1.398 . S
C588 C589 1.391 . S
C589 H577 0.950 . S
C589 C585 1.393 . S
C589 C588 1.391 . S
C590 H580 0.950 . S
C590 C591 1.386 . S
C590 C592 1.391 . S
C591 C590 1.386 . S
C591 C595 1.393 . S
C592 H581 0.950 . S
C592 C590 1.391 . S
C592 C593 1.400 . S
C593 C587 1.491 . S
C593 C592 1.400 . S
C593 C594 1.398 . S
C594 H582 0.950 . S
C594 C593 1.398 . S
C594 C595 1.391 . S
C595 H583 0.950 . S
C595 C591 1.393 . S
C595 C594 1.391 . S
H596 C604 0.950 . S
H597 C609 0.950 . S
H598 C606 0.950 . S
H599 C608 0.950 . S
H600 C610 0.950 . S
H601 C612 0.950 . S
H602 C614 0.950 . S
H603 C615 0.950 . S
C604 H596 0.950 . S
C604 C605 1.386 . S
C604 C606 1.391 . S
C605 C604 1.386 . S
C605 C609 1.393 . S
C606 H598 0.950 . S
C606 C604 1.391 . S
C606 C607 1.400 . S
C607 C606 1.400 . S
C607 C608 1.398 . S
C607 C613 1.491 . S
C608 H599 0.950 . S
C608 C607 1.398 . S
C608 C609 1.391 . S
C609 H597 0.950 . S
C609 C605 1.393 . S
C609 C608 1.391 . S
C610 H600 0.950 . S
C610 C611 1.386 . S
C610 C612 1.391 . S
C611 C610 1.386 . S
C611 C615 1.393 . S
C612 H601 0.950 . S
C612 C610 1.391 . S
C612 C613 1.400 . S
C613 C607 1.491 . S
C613 C612 1.400 . S
C613 C614 1.398 . S
C614 H602 0.950 . S
C614 C613 1.398 . S
C614 C615 1.391 . S
C615 H603 0.950 . S
C615 C611 1.393 . S
C615 C614 1.391 . S
H616 C624 0.950 . S
H617 C629 0.950 . S
H618 C626 0.950 . S
H619 C628 0.950 . S
H620 C630 0.950 . S
H621 C632 0.950 . S
H622 C634 0.950 . S
H623 C635 0.950 . S
C624 H616 0.950 . S
C624 C625 1.386 . S
C624 C626 1.391 . S
C625 C624 1.386 . S
C625 C629 1.393 . S
C626 H618 0.950 . S
C626 C624 1.391 . S
C626 C627 1.400 . S
C627 C626 1.400 . S
C627 C628 1.398 . S
C627 C633 1.491 . S
C628 H619 0.950 . S
C628 C627 1.398 . S
C628 C629 1.391 . S
C629 H617 0.950 . S
C629 C625 1.393 . S
C629 C628 1.391 . S
C630 H620 0.950 . S
C630 C631 1.386 . S
C630 C632 1.391 . S
C631 C630 1.386 . S
C631 C635 1.393 . S
C632 H621 0.950 . S
C632 C630 1.391 . S
C632 C633 1.400 . S
C633 C627 1.491 . S
C633 C632 1.400 . S
C633 C634 1.398 . S
C634 H622 0.950 . S
C634 C633 1.398 . S
C634 C635 1.391 . S
C635 H623 0.950 . S
C635 C631 1.393 . S
C635 C634 1.391 . S
H636 C644 0.950 . S
H637 C649 0.950 . S
H638 C646 0.950 . S
H639 C648 0.950 . S
H640 C650 0.950 . S
H641 C652 0.950 . S
H642 C654 0.950 . S
H643 C655 0.950 . S
C644 H636 0.950 . S
C644 C645 1.386 . S
C644 C646 1.391 . S
C645 C644 1.386 . S
C645 C649 1.393 . S
C646 H638 0.950 . S
C646 C644 1.391 . S
C646 C647 1.400 . S
C647 C646 1.400 . S
C647 C648 1.398 . S
C647 C653 1.491 1_455 S
C648 H639 0.950 . S
C648 C647 1.398 . S
C648 C649 1.391 . S
C649 H637 0.950 . S
C649 C645 1.393 . S
C649 C648 1.391 . S
C650 H640 0.950 . S
C650 C651 1.386 . S
C650 C652 1.391 . S
C651 C650 1.386 . S
C651 C655 1.393 . S
C652 H641 0.950 . S
C652 C650 1.391 . S
C652 C653 1.400 . S
C653 C647 1.491 1_655 S
C653 C652 1.400 . S
C653 C654 1.398 . S
C654 H642 0.950 . S
C654 C653 1.398 . S
C654 C655 1.391 . S
C655 H643 0.950 . S
C655 C651 1.393 . S
C655 C654 1.391 . S
H656 C664 0.950 . S
H657 C669 0.950 . S
H658 C666 0.950 . S
H659 C668 0.950 . S
H660 C670 0.950 . S
H661 C672 0.950 . S
H662 C674 0.950 . S
H663 C675 0.950 . S
C664 H656 0.950 . S
C664 C665 1.386 . S
C664 C666 1.391 . S
C665 C664 1.386 . S
C665 C669 1.393 . S
C666 H658 0.950 . S
C666 C664 1.391 . S
C666 C667 1.400 . S
C667 C666 1.400 . S
C667 C668 1.398 . S
C667 C673 1.491 . S
C668 H659 0.950 . S
C668 C667 1.398 . S
C668 C669 1.391 . S
C669 H657 0.950 . S
C669 C665 1.393 . S
C669 C668 1.391 . S
C670 H660 0.950 . S
C670 C671 1.386 . S
C670 C672 1.391 . S
C671 C670 1.386 . S
C671 C675 1.393 . S
C672 H661 0.950 . S
C672 C670 1.391 . S
C672 C673 1.400 . S
C673 C667 1.491 . S
C673 C672 1.400 . S
C673 C674 1.398 . S
C674 H662 0.950 . S
C674 C673 1.398 . S
C674 C675 1.391 . S
C675 H663 0.950 . S
C675 C671 1.393 . S
C675 C674 1.391 . S
H676 C684 0.950 . S
H677 C689 0.950 . S
H678 C686 0.950 . S
H679 C688 0.950 . S
H680 C690 0.950 . S
H681 C692 0.950 . S
H682 C694 0.950 . S
H683 C695 0.950 . S
C684 H676 0.950 . S
C684 C685 1.386 . S
C684 C686 1.391 . S
C685 C684 1.386 . S
C685 C689 1.393 . S
C686 H678 0.950 . S
C686 C684 1.391 . S
C686 C687 1.400 . S
C687 C686 1.400 . S
C687 C688 1.398 . S
C687 C693 1.491 1_655 S
C688 H679 0.950 . S
C688 C687 1.398 . S
C688 C689 1.391 . S
C689 H677 0.950 . S
C689 C685 1.393 . S
C689 C688 1.391 . S
C690 H680 0.950 . S
C690 C691 1.386 . S
C690 C692 1.391 . S
C691 C690 1.386 . S
C691 C695 1.393 . S
C692 H681 0.950 . S
C692 C690 1.391 . S
C692 C693 1.400 . S
C693 C687 1.491 1_455 S
C693 C692 1.400 . S
C693 C694 1.398 . S
C694 H682 0.950 . S
C694 C693 1.398 . S
C694 C695 1.391 . S
C695 H683 0.950 . S
C695 C691 1.393 . S
C695 C694 1.391 . S
H696 C704 0.950 . S
H697 C709 0.950 . S
H698 C706 0.950 . S
H699 C708 0.950 . S
H700 C710 0.950 . S
H701 C712 0.950 . S
H702 C714 0.950 . S
H703 C715 0.950 . S
C704 H696 0.950 . S
C704 C705 1.386 . S
C704 C706 1.391 . S
C705 C704 1.386 . S
C705 C709 1.393 . S
C706 H698 0.950 . S
C706 C704 1.391 . S
C706 C707 1.400 . S
C707 C706 1.400 . S
C707 C708 1.398 . S
C707 C713 1.491 . S
C708 H699 0.950 . S
C708 C707 1.398 . S
C708 C709 1.391 . S
C709 H697 0.950 . S
C709 C705 1.393 . S
C709 C708 1.391 . S
C710 H700 0.950 . S
C710 C711 1.386 . S
C710 C712 1.391 . S
C711 C710 1.386 . S
C711 C715 1.393 . S
C712 H701 0.950 . S
C712 C710 1.391 . S
C712 C713 1.400 . S
C713 C707 1.491 . S
C713 C712 1.400 . S
C713 C714 1.398 . S
C714 H702 0.950 . S
C714 C713 1.398 . S
C714 C715 1.391 . S
C715 H703 0.950 . S
C715 C711 1.393 . S
C715 C714 1.391 . S
H716 C724 0.950 . S
H717 C729 0.950 . S
H718 C726 0.950 . S
H719 C728 0.950 . S
H720 C730 0.950 . S
H721 C732 0.950 . S
H722 C734 0.950 . S
H723 C735 0.950 . S
C724 H716 0.950 . S
C724 C725 1.386 . S
C724 C726 1.391 . S
C725 C724 1.386 . S
C725 C729 1.393 . S
C726 H718 0.950 . S
C726 C724 1.391 . S
C726 C727 1.400 . S
C727 C726 1.400 . S
C727 C728 1.398 . S
C727 C733 1.491 . S
C728 H719 0.950 . S
C728 C727 1.398 . S
C728 C729 1.391 . S
C729 H717 0.950 . S
C729 C725 1.393 . S
C729 C728 1.391 . S
C730 H720 0.950 . S
C730 C731 1.386 . S
C730 C732 1.391 . S
C731 C730 1.386 . S
C731 C735 1.393 . S
C732 H721 0.950 . S
C732 C730 1.391 . S
C732 C733 1.400 . S
C733 C727 1.491 . S
C733 C732 1.400 . S
C733 C734 1.398 . S
C734 H722 0.950 . S
C734 C733 1.398 . S
C734 C735 1.391 . S
C735 H723 0.950 . S
C735 C731 1.393 . S
C735 C734 1.391 . S
H736 C744 0.950 . S
H737 C749 0.950 . S
H738 C746 0.950 . S
H739 C748 0.950 . S
H740 C750 0.950 . S
H741 C752 0.950 . S
H742 C754 0.950 . S
H743 C755 0.950 . S
C744 H736 0.950 . S
C744 C745 1.386 . S
C744 C746 1.391 . S
C745 C744 1.386 . S
C745 C749 1.393 . S
C746 H738 0.950 . S
C746 C744 1.391 . S
C746 C747 1.400 . S
C747 C746 1.400 . S
C747 C748 1.398 . S
C747 C753 1.491 . S
C748 H739 0.950 . S
C748 C747 1.398 . S
C748 C749 1.391 . S
C749 H737 0.950 . S
C749 C745 1.393 . S
C749 C748 1.391 . S
C750 H740 0.950 . S
C750 C751 1.386 . S
C750 C752 1.391 . S
C751 C750 1.386 . S
C751 C755 1.393 . S
C752 H741 0.950 . S
C752 C750 1.391 . S
C752 C753 1.400 . S
C753 C747 1.491 . S
C753 C752 1.400 . S
C753 C754 1.398 . S
C754 H742 0.950 . S
C754 C753 1.398 . S
C754 C755 1.391 . S
C755 H743 0.950 . S
C755 C751 1.393 . S
C755 C754 1.391 . S
H756 C764 0.950 . S
H757 C769 0.950 . S
H758 C766 0.950 . S
H759 C768 0.950 . S
H760 C770 0.950 . S
H761 C772 0.950 . S
H762 C774 0.950 . S
H763 C775 0.950 . S
C764 H756 0.950 . S
C764 C765 1.386 . S
C764 C766 1.391 . S
C765 C764 1.386 . S
C765 C769 1.393 . S
C766 H758 0.950 . S
C766 C764 1.391 . S
C766 C767 1.400 . S
C767 C766 1.400 . S
C767 C768 1.398 . S
C767 C773 1.491 . S
C768 H759 0.950 . S
C768 C767 1.398 . S
C768 C769 1.391 . S
C769 H757 0.950 . S
C769 C765 1.393 . S
C769 C768 1.391 . S
C770 H760 0.950 . S
C770 C771 1.386 . S
C770 C772 1.391 . S
C771 C770 1.386 . S
C771 C775 1.393 . S
C772 H761 0.950 . S
C772 C770 1.391 . S
C772 C773 1.400 . S
C773 C767 1.491 . S
C773 C772 1.400 . S
C773 C774 1.398 . S
C774 H762 0.950 . S
C774 C773 1.398 . S
C774 C775 1.391 . S
C775 H763 0.950 . S
C775 C771 1.393 . S
C775 C774 1.391 . S
H776 C784 0.950 . S
H777 C789 0.950 . S
H778 C786 0.950 . S
H779 C788 0.950 . S
H780 C790 0.950 . S
H781 C792 0.950 . S
H782 C794 0.950 . S
H783 C795 0.950 . S
C784 H776 0.950 . S
C784 C785 1.386 . S
C784 C786 1.391 . S
C785 C784 1.386 . S
C785 C789 1.393 . S
C786 H778 0.950 . S
C786 C784 1.391 . S
C786 C787 1.400 . S
C787 C786 1.400 . S
C787 C788 1.398 . S
C787 C793 1.491 . S
C788 H779 0.950 . S
C788 C787 1.398 . S
C788 C789 1.391 . S
C789 H777 0.950 . S
C789 C785 1.393 . S
C789 C788 1.391 . S
C790 H780 0.950 . S
C790 C791 1.386 . S
C790 C792 1.391 . S
C791 C790 1.386 . S
C791 C795 1.393 . S
C792 H781 0.950 . S
C792 C790 1.391 . S
C792 C793 1.400 . S
C793 C787 1.491 . S
C793 C792 1.400 . S
C793 C794 1.398 . S
C794 H782 0.950 . S
C794 C793 1.398 . S
C794 C795 1.391 . S
C795 H783 0.950 . S
C795 C791 1.393 . S
C795 C794 1.391 . S
H796 C804 0.950 . S
H797 C809 0.950 . S
H798 C806 0.950 . S
H799 C808 0.950 . S
H800 C810 0.950 . S
H801 C812 0.950 . S
H802 C814 0.950 . S
H803 C815 0.950 . S
C804 H796 0.950 . S
C804 C805 1.386 . S
C804 C806 1.391 . S
C805 C804 1.386 . S
C805 C809 1.393 . S
C806 H798 0.950 . S
C806 C804 1.391 . S
C806 C807 1.400 . S
C807 C806 1.400 . S
C807 C808 1.398 . S
C807 C813 1.491 . S
C808 H799 0.950 . S
C808 C807 1.398 . S
C808 C809 1.391 . S
C809 H797 0.950 . S
C809 C805 1.393 . S
C809 C808 1.391 . S
C810 H800 0.950 . S
C810 C811 1.386 . S
C810 C812 1.391 . S
C811 C810 1.386 . S
C811 C815 1.393 . S
C812 H801 0.950 . S
C812 C810 1.391 . S
C812 C813 1.400 . S
C813 C807 1.491 . S
C813 C812 1.400 . S
C813 C814 1.398 . S
C814 H802 0.950 . S
C814 C813 1.398 . S
C814 C815 1.391 . S
C815 H803 0.950 . S
C815 C811 1.393 . S
C815 C814 1.391 . S
H816 C824 0.950 . S
H817 C829 0.950 . S
H818 C826 0.950 . S
H819 C828 0.950 . S
H820 C830 0.950 . S
H821 C832 0.950 . S
H822 C834 0.950 . S
H823 C835 0.950 . S
C824 H816 0.950 . S
C824 C825 1.386 . S
C824 C826 1.391 . S
C825 C824 1.386 . S
C825 C829 1.393 . S
C826 H818 0.950 . S
C826 C824 1.391 . S
C826 C827 1.400 . S
C827 C826 1.400 . S
C827 C828 1.398 . S
C827 C833 1.491 1_455 S
C828 H819 0.950 . S
C828 C827 1.398 . S
C828 C829 1.391 . S
C829 H817 0.950 . S
C829 C825 1.393 . S
C829 C828 1.391 . S
C830 H820 0.950 . S
C830 C831 1.386 . S
C830 C832 1.391 . S
C831 C830 1.386 . S
C831 C835 1.393 . S
C832 H821 0.950 . S
C832 C830 1.391 . S
C832 C833 1.400 . S
C833 C827 1.491 1_655 S
C833 C832 1.400 . S
C833 C834 1.398 . S
C834 H822 0.950 . S
C834 C833 1.398 . S
C834 C835 1.391 . S
C835 H823 0.950 . S
C835 C831 1.393 . S
C835 C834 1.391 . S
H836 C844 0.950 . S
H837 C849 0.950 . S
H838 C846 0.950 . S
H839 C848 0.950 . S
H840 C850 0.950 . S
H841 C852 0.950 . S
H842 C854 0.950 . S
H843 C855 0.950 . S
C844 H836 0.950 . S
C844 C845 1.386 . S
C844 C846 1.391 . S
C845 C844 1.386 . S
C845 C849 1.393 . S
C846 H838 0.950 . S
C846 C844 1.391 . S
C846 C847 1.400 . S
C847 C846 1.400 . S
C847 C848 1.398 . S
C847 C853 1.491 . S
C848 H839 0.950 . S
C848 C847 1.398 . S
C848 C849 1.391 . S
C849 H837 0.950 . S
C849 C845 1.393 . S
C849 C848 1.391 . S
C850 H840 0.950 . S
C850 C851 1.386 . S
C850 C852 1.391 . S
C851 C850 1.386 . S
C851 C855 1.393 . S
C852 H841 0.950 . S
C852 C850 1.391 . S
C852 C853 1.400 . S
C853 C847 1.491 . S
C853 C852 1.400 . S
C853 C854 1.398 . S
C854 H842 0.950 . S
C854 C853 1.398 . S
C854 C855 1.391 . S
C855 H843 0.950 . S
C855 C851 1.393 . S
C855 C854 1.391 . S
H856 C864 0.950 . S
H857 C869 0.950 . S
H858 C866 0.950 . S
H859 C868 0.950 . S
H860 C870 0.950 . S
H861 C872 0.950 . S
H862 C874 0.950 . S
H863 C875 0.950 . S
C864 H856 0.950 . S
C864 C865 1.386 . S
C864 C866 1.391 . S
C865 C864 1.386 . S
C865 C869 1.393 . S
C866 H858 0.950 . S
C866 C864 1.391 . S
C866 C867 1.400 . S
C867 C866 1.400 . S
C867 C868 1.398 . S
C867 C873 1.491 . S
C868 H859 0.950 . S
C868 C867 1.398 . S
C868 C869 1.391 . S
C869 H857 0.950 . S
C869 C865 1.393 . S
C869 C868 1.391 . S
C870 H860 0.950 . S
C870 C871 1.386 . S
C870 C872 1.391 . S
C871 C870 1.386 . S
C871 C875 1.393 . S
C872 H861 0.950 . S
C872 C870 1.391 . S
C872 C873 1.400 . S
C873 C867 1.491 . S
C873 C872 1.400 . S
C873 C874 1.398 . S
C874 H862 0.950 . S
C874 C873 1.398 . S
C874 C875 1.391 . S
C875 H863 0.950 . S
C875 C871 1.393 . S
C875 C874 1.391 . S
H876 C884 0.950 . S
H877 C889 0.950 . S
H878 C886 0.950 . S
H879 C888 0.950 . S
H880 C890 0.950 . S
H881 C892 0.950 . S
H882 C894 0.950 . S
H883 C895 0.950 . S
C884 H876 0.950 . S
C884 C885 1.386 . S
C884 C886 1.391 . S
C885 C884 1.386 . S
C885 C889 1.393 . S
C886 H878 0.950 . S
C886 C884 1.391 . S
C886 C887 1.400 . S
C887 C886 1.400 . S
C887 C888 1.398 . S
C887 C893 1.491 1_455 S
C888 H879 0.950 . S
C888 C887 1.398 . S
C888 C889 1.391 . S
C889 H877 0.950 . S
C889 C885 1.393 . S
C889 C888 1.391 . S
C890 H880 0.950 . S
C890 C891 1.386 . S
C890 C892 1.391 . S
C891 C890 1.386 . S
C891 C895 1.393 . S
C892 H881 0.950 . S
C892 C890 1.391 . S
C892 C893 1.400 . S
C893 C887 1.491 1_655 S
C893 C892 1.400 . S
C893 C894 1.398 . S
C894 H882 0.950 . S
C894 C893 1.398 . S
C894 C895 1.391 . S
C895 H883 0.950 . S
C895 C891 1.393 . S
C895 C894 1.391 . S
H896 C904 0.950 . S
H897 C909 0.950 . S
H898 C906 0.950 . S
H899 C908 0.950 . S
H900 C910 0.950 . S
H901 C912 0.950 1_554 S
H902 C914 0.950 . S
H903 C915 0.950 . S
C904 H896 0.950 . S
C904 C905 1.386 . S
C904 C906 1.391 1_554 S
C905 C904 1.386 . S
C905 C909 1.393 . S
C906 H898 0.950 . S
C906 C904 1.391 1_556 S
C906 C907 1.400 1_556 S
C907 C906 1.400 1_554 S
C907 C908 1.398 . S
C907 C913 1.491 1_554 S
C908 H899 0.950 . S
C908 C907 1.398 . S
C908 C909 1.391 . S
C909 H897 0.950 . S
C909 C905 1.393 . S
C909 C908 1.391 . S
C910 H900 0.950 . S
C910 C911 1.386 . S
C910 C912 1.391 . S
C911 C910 1.386 . S
C911 C915 1.393 . S
C912 H901 0.950 1_556 S
C912 C910 1.391 . S
C912 C913 1.400 . S
C913 C907 1.491 1_556 S
C913 C912 1.400 . S
C913 C914 1.398 . S
C914 H902 0.950 . S
C914 C913 1.398 . S
C914 C915 1.391 . S
C915 H903 0.950 . S
C915 C911 1.393 . S
C915 C914 1.391 . S
H916 C924 0.950 . S
H917 C929 0.950 . S
H918 C926 0.950 . S
H919 C928 0.950 . S
H920 C930 0.950 . S
H921 C932 0.950 . S
H922 C934 0.950 . S
H923 C935 0.950 . S
C924 H916 0.950 . S
C924 C925 1.386 . S
C924 C926 1.391 . S
C925 C924 1.386 . S
C925 C929 1.393 . S
C926 H918 0.950 . S
C926 C924 1.391 . S
C926 C927 1.400 . S
C927 C926 1.400 . S
C927 C928 1.398 . S
C927 C933 1.491 . S
C928 H919 0.950 . S
C928 C927 1.398 . S
C928 C929 1.391 . S
C929 H917 0.950 . S
C929 C925 1.393 . S
C929 C928 1.391 . S
C930 H920 0.950 . S
C930 C931 1.386 . S
C930 C932 1.391 . S
C931 C930 1.386 . S
C931 C935 1.393 . S
C932 H921 0.950 . S
C932 C930 1.391 . S
C932 C933 1.400 . S
C933 C927 1.491 . S
C933 C932 1.400 . S
C933 C934 1.398 . S
C934 H922 0.950 . S
C934 C933 1.398 . S
C934 C935 1.391 . S
C935 H923 0.950 . S
C935 C931 1.393 . S
C935 C934 1.391 . S
H936 C944 0.950 . S
H937 C949 0.950 . S
H938 C946 0.950 . S
H939 C948 0.950 . S
H940 C950 0.950 . S
H941 C952 0.950 . S
H942 C954 0.950 . S
H943 C955 0.950 . S
C944 H936 0.950 . S
C944 C945 1.386 . S
C944 C946 1.391 . S
C945 C944 1.386 . S
C945 C949 1.393 . S
C946 H938 0.950 . S
C946 C944 1.391 . S
C946 C947 1.400 . S
C947 C946 1.400 . S
C947 C948 1.398 . S
C947 C953 1.491 . S
C948 H939 0.950 . S
C948 C947 1.398 . S
C948 C949 1.391 . S
C949 H937 0.950 . S
C949 C945 1.393 . S
C949 C948 1.391 . S
C950 H940 0.950 . S
C950 C951 1.386 . S
C950 C952 1.391 . S
C951 C950 1.386 . S
C951 C955 1.393 . S
C952 H941 0.950 . S
C952 C950 1.391 . S
C952 C953 1.400 . S
C953 C947 1.491 . S
C953 C952 1.400 . S
C953 C954 1.398 . S
C954 H942 0.950 . S
C954 C953 1.398 . S
C954 C955 1.391 . S
C955 H943 0.950 . S
C955 C951 1.393 . S
C955 C954 1.391 . S
H956 C964 0.950 . S
H957 C969 0.950 . S
H958 C966 0.950 . S
H959 C968 0.950 . S
H960 C970 0.950 . S
H961 C972 0.950 . S
H962 C974 0.950 . S
H963 C975 0.950 . S
C964 H956 0.950 . S
C964 C965 1.386 . S
C964 C966 1.391 . S
C965 C964 1.386 . S
C965 C969 1.393 . S
C966 H958 0.950 . S
C966 C964 1.391 . S
C966 C967 1.400 . S
C967 C966 1.400 . S
C967 C968 1.398 . S
C967 C973 1.491 . S
C968 H959 0.950 . S
C968 C967 1.398 . S
C968 C969 1.391 . S
C969 H957 0.950 . S
C969 C965 1.393 . S
C969 C968 1.391 . S
C970 H960 0.950 . S
C970 C971 1.386 . S
C970 C972 1.391 . S
C971 C970 1.386 . S
C971 C975 1.393 . S
C972 H961 0.950 . S
C972 C970 1.391 . S
C972 C973 1.400 . S
C973 C967 1.491 . S
C973 C972 1.400 . S
C973 C974 1.398 . S
C974 H962 0.950 . S
C974 C973 1.398 . S
C974 C975 1.391 . S
C975 H963 0.950 . S
C975 C971 1.393 . S
C975 C974 1.391 . S
H976 C984 0.950 . S
H977 C989 0.950 . S
H978 C986 0.950 . S
H979 C988 0.950 . S
H980 C990 0.950 . S
H981 C992 0.950 . S
H982 C994 0.950 . S
H983 C995 0.950 . S
C984 H976 0.950 . S
C984 C985 1.386 . S
C984 C986 1.391 . S
C985 C984 1.386 . S
C985 C989 1.393 . S
C986 H978 0.950 . S
C986 C984 1.391 . S
C986 C987 1.403 . S
C987 C986 1.403 . S
C987 C988 1.401 . S
C987 C993 1.486 1_556 S
C988 H979 0.950 . S
C988 C987 1.401 . S
C988 C989 1.391 . S
C989 H977 0.950 . S
C989 C985 1.393 . S
C989 C988 1.391 . S
C990 H980 0.950 . S
C990 C991 1.386 . S
C990 C992 1.391 . S
C991 C990 1.386 . S
C991 C995 1.393 . S
C992 H981 0.950 . S
C992 C990 1.391 . S
C992 C993 1.400 . S
C993 C987 1.486 1_554 S
C993 C992 1.400 . S
C993 C994 1.398 . S
C994 H982 0.950 . S
C994 C993 1.398 . S
C994 C995 1.391 . S
C995 H983 0.950 . S
C995 C991 1.393 . S
C995 C994 1.391 . S
H996 C1004 0.950 . S
H997 C1009 0.950 . S
H998 C1006 0.950 . S
H999 C1008 0.950 . S
H1000 C1010 0.950 . S
H1001 C1012 0.950 . S
H1002 C1014 0.950 . S
H1003 C1015 0.950 . S
C1004 H996 0.950 . S
C1004 C1005 1.386 . S
C1004 C1006 1.391 . S
C1005 C1004 1.386 . S
C1005 C1009 1.393 . S
C1006 H998 0.950 . S
C1006 C1004 1.391 . S
C1006 C1007 1.400 . S
C1007 C1006 1.400 . S
C1007 C1008 1.398 . S
C1007 C1013 1.491 . S
C1008 H999 0.950 . S
C1008 C1007 1.398 . S
C1008 C1009 1.391 . S
C1009 H997 0.950 . S
C1009 C1005 1.393 . S
C1009 C1008 1.391 . S
C1010 H1000 0.950 . S
C1010 C1011 1.386 . S
C1010 C1012 1.391 . S
C1011 C1010 1.386 . S
C1011 C1015 1.393 . S
C1012 H1001 0.950 . S
C1012 C1010 1.391 . S
C1012 C1013 1.400 . S
C1013 C1007 1.491 . S
C1013 C1012 1.400 . S
C1013 C1014 1.398 . S
C1014 H1002 0.950 . S
C1014 C1013 1.398 . S
C1014 C1015 1.391 . S
C1015 H1003 0.950 . S
C1015 C1011 1.393 . S
C1015 C1014 1.391 . S
H1016 C1024 0.950 . S
H1017 C1029 0.950 . S
H1018 C1026 0.950 . S
H1019 C1028 0.950 . S
H1020 C1030 0.950 . S
H1021 C1032 0.950 . S
H1022 C1034 0.950 . S
H1023 C1035 0.950 . S
C1024 H1016 0.950 . S
C1024 C1025 1.386 . S
C1024 C1026 1.391 . S
C1025 C1024 1.386 . S
C1025 C1029 1.393 . S
C1026 H1018 0.950 . S
C1026 C1024 1.391 . S
C1026 C1027 1.400 . S
C1027 C1026 1.400 . S
C1027 C1028 1.398 . S
C1027 C1033 1.491 . S
C1028 H1019 0.950 . S
C1028 C1027 1.398 . S
C1028 C1029 1.391 . S
C1029 H1017 0.950 . S
C1029 C1025 1.393 . S
C1029 C1028 1.391 . S
C1030 H1020 0.950 . S
C1030 C1031 1.386 . S
C1030 C1032 1.391 . S
C1031 C1030 1.386 . S
C1031 C1035 1.393 . S
C1032 H1021 0.950 . S
C1032 C1030 1.391 . S
C1032 C1033 1.400 . S
C1033 C1027 1.491 . S
C1033 C1032 1.400 . S
C1033 C1034 1.398 . S
C1034 H1022 0.950 . S
C1034 C1033 1.398 . S
C1034 C1035 1.391 . S
C1035 H1023 0.950 . S
C1035 C1031 1.393 . S
C1035 C1034 1.391 . S
H1036 C1044 0.950 . S
H1037 C1049 0.950 . S
H1038 C1046 0.950 . S
H1039 C1048 0.950 . S
H1040 C1050 0.950 . S
H1041 C1052 0.950 . S
H1042 C1054 0.950 . S
H1043 C1055 0.950 . S
C1044 H1036 0.950 . S
C1044 C1045 1.386 . S
C1044 C1046 1.391 . S
C1045 C1044 1.386 . S
C1045 C1049 1.393 . S
C1046 H1038 0.950 . S
C1046 C1044 1.391 . S
C1046 C1047 1.400 . S
C1047 C1046 1.400 . S
C1047 C1048 1.398 . S
C1047 C1053 1.491 . S
C1048 H1039 0.950 . S
C1048 C1047 1.398 . S
C1048 C1049 1.391 . S
C1049 H1037 0.950 . S
C1049 C1045 1.393 . S
C1049 C1048 1.391 . S
C1050 H1040 0.950 . S
C1050 C1051 1.386 . S
C1050 C1052 1.391 . S
C1051 C1050 1.386 . S
C1051 C1055 1.393 . S
C1052 H1041 0.950 . S
C1052 C1050 1.391 . S
C1052 C1053 1.400 . S
C1053 C1047 1.491 . S
C1053 C1052 1.400 . S
C1053 C1054 1.398 . S
C1054 H1042 0.950 . S
C1054 C1053 1.398 . S
C1054 C1055 1.391 . S
C1055 H1043 0.950 . S
C1055 C1051 1.393 . S
C1055 C1054 1.391 . S
H1056 C1064 0.950 . S
H1057 C1069 0.950 . S
H1058 C1066 0.950 . S
H1059 C1068 0.950 . S
H1060 C1070 0.950 . S
H1061 C1072 0.950 . S
H1062 C1074 0.950 . S
H1063 C1075 0.950 . S
C1064 H1056 0.950 . S
C1064 C1065 1.386 . S
C1064 C1066 1.391 . S
C1065 C1064 1.386 . S
C1065 C1069 1.393 . S
C1066 H1058 0.950 . S
C1066 C1064 1.391 . S
C1066 C1067 1.400 . S
C1067 C1066 1.400 . S
C1067 C1068 1.398 . S
C1067 C1073 1.491 1_545 S
C1068 H1059 0.950 . S
C1068 C1067 1.398 . S
C1068 C1069 1.391 . S
C1069 H1057 0.950 . S
C1069 C1065 1.393 . S
C1069 C1068 1.391 . S
C1070 H1060 0.950 . S
C1070 C1071 1.386 . S
C1070 C1072 1.391 . S
C1071 C1070 1.386 . S
C1071 C1075 1.393 . S
C1072 H1061 0.950 . S
C1072 C1070 1.391 . S
C1072 C1073 1.400 . S
C1073 C1067 1.491 1_565 S
C1073 C1072 1.400 . S
C1073 C1074 1.398 . S
C1074 H1062 0.950 . S
C1074 C1073 1.398 . S
C1074 C1075 1.391 . S
C1075 H1063 0.950 . S
C1075 C1071 1.393 . S
C1075 C1074 1.391 . S
H1076 C1084 0.950 . S
H1077 C1089 0.950 . S
H1078 C1086 0.950 . S
H1079 C1088 0.950 . S
H1080 C1090 0.950 . S
H1081 C1092 0.950 . S
H1082 C1094 0.950 . S
H1083 C1095 0.950 . S
C1084 H1076 0.950 . S
C1084 C1085 1.386 . S
C1084 C1086 1.391 . S
C1085 C1084 1.386 . S
C1085 C1089 1.393 . S
C1086 H1078 0.950 . S
C1086 C1084 1.391 . S
C1086 C1087 1.400 . S
C1087 C1086 1.400 . S
C1087 C1088 1.398 . S
C1087 C1093 1.491 . S
C1088 H1079 0.950 . S
C1088 C1087 1.398 . S
C1088 C1089 1.391 . S
C1089 H1077 0.950 . S
C1089 C1085 1.393 . S
C1089 C1088 1.391 . S
C1090 H1080 0.950 . S
C1090 C1091 1.386 . S
C1090 C1092 1.391 . S
C1091 C1090 1.386 . S
C1091 C1095 1.393 . S
C1092 H1081 0.950 . S
C1092 C1090 1.391 . S
C1092 C1093 1.400 . S
C1093 C1087 1.491 . S
C1093 C1092 1.400 . S
C1093 C1094 1.398 . S
C1094 H1082 0.950 . S
C1094 C1093 1.398 . S
C1094 C1095 1.391 . S
C1095 H1083 0.950 . S
C1095 C1091 1.393 . S
C1095 C1094 1.391 . S
H1096 C1104 0.950 . S
H1097 C1109 0.950 . S
H1098 C1106 0.950 1_554 S
H1099 C1108 0.950 1_565 S
H1100 C1110 0.950 1_556 S
H1101 C1112 0.950 . S
H1102 C1114 0.950 . S
H1103 C1115 0.950 . S
C1104 H1096 0.950 . S
C1104 C1105 1.386 . S
C1104 C1106 1.391 . S
C1105 C1104 1.386 . S
C1105 C1109 1.393 . S
C1106 H1098 0.950 1_556 S
C1106 C1104 1.391 . S
C1106 C1107 1.400 . S
C1107 C1106 1.400 . S
C1107 C1108 1.398 . S
C1107 C1113 1.491 1_546 S
C1108 H1099 0.950 1_545 S
C1108 C1107 1.398 . S
C1108 C1109 1.391 . S
C1109 H1097 0.950 . S
C1109 C1105 1.393 . S
C1109 C1108 1.391 . S
C1110 H1100 0.950 1_554 S
C1110 C1111 1.386 . S
C1110 C1112 1.391 1_554 S
C1111 C1110 1.386 . S
C1111 C1115 1.393 . S
C1112 H1101 0.950 . S
C1112 C1110 1.391 1_556 S
C1112 C1113 1.400 1_556 S
C1113 C1107 1.491 1_564 S
C1113 C1112 1.400 1_554 S
C1113 C1114 1.398 . S
C1114 H1102 0.950 . S
C1114 C1113 1.398 . S
C1114 C1115 1.391 . S
C1115 H1103 0.950 . S
C1115 C1111 1.393 . S
C1115 C1114 1.391 . S
H1116 C1124 0.950 . S
H1117 C1129 0.950 . S
H1118 C1126 0.950 . S
H1119 C1128 0.950 . S
H1120 C1130 0.950 . S
H1121 C1132 0.950 . S
H1122 C1134 0.950 . S
H1123 C1135 0.950 . S
C1124 H1116 0.950 . S
C1124 C1125 1.386 . S
C1124 C1126 1.391 . S
C1125 C1124 1.386 . S
C1125 C1129 1.393 . S
C1126 H1118 0.950 . S
C1126 C1124 1.391 . S
C1126 C1127 1.400 . S
C1127 C1126 1.400 . S
C1127 C1128 1.398 . S
C1127 C1133 1.491 . S
C1128 H1119 0.950 . S
C1128 C1127 1.398 . S
C1128 C1129 1.391 . S
C1129 H1117 0.950 . S
C1129 C1125 1.393 . S
C1129 C1128 1.391 . S
C1130 H1120 0.950 . S
C1130 C1131 1.386 . S
C1130 C1132 1.391 . S
C1131 C1130 1.386 . S
C1131 C1135 1.393 . S
C1132 H1121 0.950 . S
C1132 C1130 1.391 . S
C1132 C1133 1.400 . S
C1133 C1127 1.491 . S
C1133 C1132 1.400 . S
C1133 C1134 1.398 . S
C1134 H1122 0.950 . S
C1134 C1133 1.398 . S
C1134 C1135 1.391 . S
C1135 H1123 0.950 . S
C1135 C1131 1.393 . S
C1135 C1134 1.391 . S
H1136 C1144 0.950 . S
H1137 C1149 0.950 . S
H1138 C1146 0.950 . S
H1139 C1148 0.950 . S
H1140 C1150 0.950 . S
H1141 C1152 0.950 . S
H1142 C1154 0.950 . S
H1143 C1155 0.950 . S
C1144 H1136 0.950 . S
C1144 C1145 1.386 . S
C1144 C1146 1.391 . S
C1145 C1144 1.386 . S
C1145 C1149 1.393 . S
C1146 H1138 0.950 . S
C1146 C1144 1.391 . S
C1146 C1147 1.400 . S
C1147 C1146 1.400 . S
C1147 C1148 1.398 . S
C1147 C1153 1.491 1_545 S
C1148 H1139 0.950 . S
C1148 C1147 1.398 . S
C1148 C1149 1.391 . S
C1149 H1137 0.950 . S
C1149 C1145 1.393 . S
C1149 C1148 1.391 . S
C1150 H1140 0.950 . S
C1150 C1151 1.386 . S
C1150 C1152 1.391 . S
C1151 C1150 1.386 . S
C1151 C1155 1.393 . S
C1152 H1141 0.950 . S
C1152 C1150 1.391 . S
C1152 C1153 1.400 . S
C1153 C1147 1.491 1_565 S
C1153 C1152 1.400 . S
C1153 C1154 1.398 . S
C1154 H1142 0.950 . S
C1154 C1153 1.398 . S
C1154 C1155 1.391 . S
C1155 H1143 0.950 . S
C1155 C1151 1.393 . S
C1155 C1154 1.391 . S
H1156 C1164 0.950 . S
H1157 C1169 0.950 . S
H1158 C1166 0.950 . S
H1159 C1168 0.950 . S
H1160 C1170 0.950 . S
H1161 C1172 0.950 . S
H1162 C1174 0.950 . S
H1163 C1175 0.950 . S
C1164 H1156 0.950 . S
C1164 C1165 1.386 . S
C1164 C1166 1.391 . S
C1165 C1164 1.386 . S
C1165 C1169 1.393 . S
C1166 H1158 0.950 . S
C1166 C1164 1.391 . S
C1166 C1167 1.400 . S
C1167 C1166 1.400 . S
C1167 C1168 1.398 . S
C1167 C1173 1.491 . S
C1168 H1159 0.950 . S
C1168 C1167 1.398 . S
C1168 C1169 1.391 . S
C1169 H1157 0.950 . S
C1169 C1165 1.393 . S
C1169 C1168 1.391 . S
C1170 H1160 0.950 . S
C1170 C1171 1.386 . S
C1170 C1172 1.391 . S
C1171 C1170 1.386 . S
C1171 C1175 1.393 . S
C1172 H1161 0.950 . S
C1172 C1170 1.391 . S
C1172 C1173 1.400 . S
C1173 C1167 1.491 . S
C1173 C1172 1.400 . S
C1173 C1174 1.398 . S
C1174 H1162 0.950 . S
C1174 C1173 1.398 . S
C1174 C1175 1.391 . S
C1175 H1163 0.950 . S
C1175 C1171 1.393 . S
C1175 C1174 1.391 . S
H1176 C1184 0.950 . S
H1177 C1189 0.950 . S
H1178 C1186 0.950 . S
H1179 C1188 0.937 1_556 S
H1180 C1190 0.950 . S
H1181 C1192 0.950 . S
H1182 C1194 0.950 1_554 S
H1183 C1195 0.950 . S
C1184 H1176 0.950 . S
C1184 C1185 1.386 . S
C1184 C1186 1.391 . S
C1185 C1184 1.386 . S
C1185 C1189 1.393 . S
C1186 H1178 0.950 . S
C1186 C1184 1.391 . S
C1186 C1187 1.400 . S
C1187 C1186 1.400 . S
C1187 C1188 1.398 . S
C1187 C1193 1.491 1_564 S
C1188 H1179 0.937 1_554 S
C1188 C1187 1.398 . S
C1188 C1189 1.391 . S
C1189 H1177 0.950 . S
C1189 C1185 1.393 . S
C1189 C1188 1.391 . S
C1190 H1180 0.950 . S
C1190 C1191 1.386 . S
C1190 C1192 1.391 . S
C1191 C1190 1.386 . S
C1191 C1195 1.393 . S
C1192 H1181 0.950 . S
C1192 C1190 1.391 . S
C1192 C1193 1.400 . S
C1193 C1187 1.491 1_546 S
C1193 C1192 1.400 . S
C1193 C1194 1.398 . S
C1194 H1182 0.950 1_556 S
C1194 C1193 1.398 . S
C1194 C1195 1.391 . S
C1195 H1183 0.950 . S
C1195 C1191 1.393 . S
C1195 C1194 1.391 . S
H1196 C1204 0.950 . S
H1197 C1209 0.950 . S
H1198 C1206 0.950 . S
H1199 C1208 0.950 . S
H1200 C1210 0.950 . S
H1201 C1212 0.950 . S
H1202 C1214 0.950 . S
H1203 C1215 0.950 . S
C1204 H1196 0.950 . S
C1204 C1205 1.386 . S
C1204 C1206 1.391 . S
C1205 C1204 1.386 . S
C1205 C1209 1.393 . S
C1206 H1198 0.950 . S
C1206 C1204 1.391 . S
C1206 C1207 1.400 . S
C1207 C1206 1.400 . S
C1207 C1208 1.398 . S
C1207 C1213 1.491 . S
C1208 H1199 0.950 . S
C1208 C1207 1.398 . S
C1208 C1209 1.391 . S
C1209 H1197 0.950 . S
C1209 C1205 1.393 . S
C1209 C1208 1.391 . S
C1210 H1200 0.950 . S
C1210 C1211 1.386 . S
C1210 C1212 1.391 . S
C1211 C1210 1.386 . S
C1211 C1215 1.393 . S
C1212 H1201 0.950 . S
C1212 C1210 1.391 . S
C1212 C1213 1.400 . S
C1213 C1207 1.491 . S
C1213 C1212 1.400 . S
C1213 C1214 1.398 . S
C1214 H1202 0.950 . S
C1214 C1213 1.398 . S
C1214 C1215 1.391 . S
C1215 H1203 0.950 . S
C1215 C1211 1.393 . S
C1215 C1214 1.391 . S
C585 C400 1.264 . S
C591 C4 1.244 . S
C605 C544 1.303 . S
C611 C40 1.303 . S
C625 C76 1.372 . S
C631 C326 1.387 . S
C645 C470 1.423 . S
C651 C110 1.411 . S
C665 C146 1.323 . S
C671 C472 1.311 . S
C685 C182 1.357 . S
C691 C398 1.370 . S
C705 C220 1.411 . S
C711 C542 1.372 . S
C725 C254 1.438 . S
C731 C328 1.426 . S
C745 C112 1.282 . S
C751 C292 1.287 . S
C765 C364 1.283 . S
C771 C38 1.250 . S
C785 C434 1.294 . S
C791 C184 1.309 . S
C805 C508 1.288 . S
C811 C256 1.300 . S
C825 C148 1.396 . S
C831 C290 1.401 . S
C845 C362 1.455 . S
C851 C218 1.471 . S
C865 C506 1.437 . S
C871 C74 1.427 . S
C885 C2 1.378 . S
C891 C436 1.398 . S
C905 C3 1.191 . S
C911 C158 1.147 . S
C925 C39 1.300 . S
C931 C194 1.246 . S
C945 C75 1.294 . S
C951 C219 1.300 . S
C965 C266 1.207 . S
C971 C122 1.223 . S
C985 C291 1.166 . S
C991 C446 1.138 . S
C1005 C482 1.307 . S
C1011 C327 1.344 . S
C1025 C363 1.233 . S
C1031 C507 1.232 . S
C1045 C543 1.265 . S
C1051 C410 1.226 . S
C1065 C255 1.131 . S
C1071 C50 1.089 . S
C1085 C86 1.269 . S
C1091 C147 1.340 . S
C1105 C111 1.232 . S
C1111 C183 1.225 . S
C1125 C14 1.263 . S
C1131 C230 1.273 . S
C1145 C338 1.177 . S
C1151 C554 1.183 . S
C1165 C435 1.330 . S
C1171 C374 1.263 . S
C1185 C399 1.223 . S
C1191 C471 1.221 . S
C1205 C518 1.217 . S
C1211 C302 1.245 . S
