# Generated by pormake.
# Topology smk, (6)-cn, num edge types: 1
# Building blocks:
#     Node 0, Type 0, BuildingBlock: UKALOJ_clean_sbu_0, # of connection points: 6
#     Node 1, Type 0, BuildingBlock: UKALOJ_clean_sbu_0, # of connection points: 6
#     Node 2, Type 0, BuildingBlock: UKALOJ_clean_sbu_0, # of connection points: 6
#     Node 3, Type 0, BuildingBlock: UKALOJ_clean_sbu_0, # of connection points: 6
#     Node 4, Type 0, BuildingBlock: UKALOJ_clean_sbu_0, # of connection points: 6
#     Node 5, Type 0, BuildingBlock: UKALOJ_clean_sbu_0, # of connection points: 6
#     Edge 6, Type (0, 0), BuildingBlock: AJUNOK_clean_linker_0, # of connection points: 2
#     Edge 7, Type (0, 0), BuildingBlock: AJUNOK_clean_linker_0, # of connection points: 2
#     Edge 8, Type (0, 0), BuildingBlock: AJUNOK_clean_linker_0, # of connection points: 2
#     Edge 9, Type (0, 0), BuildingBlock: AJUNOK_clean_linker_0, # of connection points: 2
#     Edge 10, Type (0, 0), BuildingBlock: AJUNOK_clean_linker_0, # of connection points: 2
#     Edge 11, Type (0, 0), BuildingBlock: AJUNOK_clean_linker_0, # of connection points: 2
#     Edge 12, Type (0, 0), BuildingBlock: AJUNOK_clean_linker_0, # of connection points: 2
#     Edge 13, Type (0, 0), BuildingBlock: AJUNOK_clean_linker_0, # of connection points: 2
#     Edge 14, Type (0, 0), BuildingBlock: AJUNOK_clean_linker_0, # of connection points: 2
#     Edge 15, Type (0, 0), BuildingBlock: AJUNOK_clean_linker_0, # of connection points: 2
#     Edge 16, Type (0, 0), BuildingBlock: AJUNOK_clean_linker_0, # of connection points: 2
#     Edge 17, Type (0, 0), BuildingBlock: AJUNOK_clean_linker_0, # of connection points: 2
#     Edge 18, Type (0, 0), BuildingBlock: AJUNOK_clean_linker_0, # of connection points: 2
#     Edge 19, Type (0, 0), BuildingBlock: AJUNOK_clean_linker_0, # of connection points: 2
#     Edge 20, Type (0, 0), BuildingBlock: AJUNOK_clean_linker_0, # of connection points: 2
#     Edge 21, Type (0, 0), BuildingBlock: AJUNOK_clean_linker_0, # of connection points: 2
#     Edge 22, Type (0, 0), BuildingBlock: AJUNOK_clean_linker_0, # of connection points: 2
#     Edge 23, Type (0, 0), BuildingBlock: AJUNOK_clean_linker_0, # of connection points: 2
# Relax obj value: 0.274
# Max RMSD: 0.205
# Mean RMSD: 0.205
data_MOF--net-smk--node1-UKALOJ_clean_sbu_0--edge1-AJUNOK_clean_linker_0
_symmetry_space_group_name_H-M    P1
_symmetry_Int_Tables_number       1
_symmetry_cell_setting            triclinic
loop_
_symmetry_equiv_pos_as_xyz
'x, y, z'
_cell_length_a     36.059707
_cell_length_b     36.042859
_cell_length_c     11.291079
_cell_angle_alpha  89.68224
_cell_angle_beta   90.211164
_cell_angle_gamma 120.03264
loop_
_atom_site_label
_atom_site_type_symbol
_atom_site_fract_x
_atom_site_fract_y
_atom_site_fract_z
_atom_type_partial_charge
Zn0 Zn 0.43407 0.22918 0.50505 0.0
O1 O 0.38716 0.16295 0.50998 0.0
C2 C 0.46137 0.22313 0.7492 0.0
Zn3 Zn 0.48726 0.21415 0.50735 0.0
C4 C 0.39954 0.13555 0.50707 0.0
O5 O 0.43945 0.14855 0.50961 0.0
C6 C 0.52112 0.30727 0.4863 0.0
O7 O 0.48686 0.21226 0.32182 0.0
O8 O 0.4341 0.22644 0.31866 0.0
N9 N 0.53344 0.19634 0.52298 0.0
C10 C 0.57236 0.21637 0.57559 0.0
C11 C 0.55472 0.15081 0.55577 0.0
N12 N 0.52277 0.15566 0.51038 0.0
N13 N 0.58591 0.18824 0.59953 0.0
C14 C 0.38265 0.27445 0.56768 0.0
C15 C 0.32873 0.24467 0.45209 0.0
N16 N 0.38689 0.24541 0.50285 0.0
N17 N 0.35335 0.22697 0.43107 0.0
N18 N 0.34637 0.27445 0.53774 0.0
H19 H 0.3966 0.28215 0.75246 0.0
H20 H 0.41535 0.33169 0.67583 0.0
H21 H 0.44352 0.30277 0.66056 0.0
C22 C 0.41145 0.29936 0.66877 0.0
C23 C 0.59829 0.26386 0.59464 0.0
H24 H 0.60104 0.28063 0.50977 0.0
H25 H 0.63134 0.27419 0.62449 0.0
H26 H 0.58212 0.27369 0.6605 0.0
O27 O 0.5332 0.27991 0.49806 0.0
O28 O 0.48144 0.29504 0.48977 0.0
C29 C 0.46036 0.21885 0.26365 0.0
O30 O 0.43516 0.23068 0.69355 0.0
O31 O 0.48704 0.21594 0.69115 0.0
Zn32 Zn 0.22493 0.42208 0.66982 0.0
O33 O 0.24454 0.37531 0.67632 0.0
C34 C 0.25813 0.44979 0.91363 0.0
Zn35 Zn 0.29321 0.47562 0.67125 0.0
C36 C 0.28442 0.38808 0.67297 0.0
O37 O 0.31112 0.42808 0.6747 0.0
C38 C 0.23378 0.50898 0.64796 0.0
O39 O 0.2949 0.47513 0.48569 0.0
O40 O 0.22806 0.42201 0.48357 0.0
N41 N 0.35719 0.52217 0.68633 0.0
C42 C 0.3759 0.56083 0.73998 0.0
C43 C 0.42432 0.5442 0.71538 0.0
N44 N 0.3875 0.51211 0.67082 0.0
N45 N 0.4178 0.57485 0.76154 0.0
C46 C 0.12812 0.37071 0.73301 0.0
C47 C 0.10287 0.31869 0.6114 0.0
N48 N 0.16126 0.37485 0.6675 0.0
N49 N 0.14548 0.34244 0.59208 0.0
N50 N 0.09126 0.33581 0.69948 0.0
H51 H 0.14116 0.3855 0.91559 0.0
H52 H 0.10213 0.3973 0.85894 0.0
H53 H 0.15792 0.43184 0.8228 0.0
C54 C 0.13249 0.39823 0.83738 0.0
C55 C 0.35384 0.58605 0.76227 0.0
H56 H 0.33981 0.58946 0.67827 0.0
H57 H 0.3762 0.61889 0.79392 0.0
H58 H 0.32772 0.56891 0.82767 0.0
O59 O 0.27323 0.52123 0.66045 0.0
O60 O 0.20632 0.46928 0.65255 0.0
C61 C 0.26188 0.44841 0.42807 0.0
O62 O 0.22433 0.42354 0.85849 0.0
O63 O 0.29101 0.47544 0.85504 0.0
Zn64 Zn 0.82317 0.21546 0.83921 0.0
O65 O 0.88989 0.23619 0.84286 0.0
C66 C 0.82829 0.24804 0.08293 0.0
Zn67 Zn 0.83561 0.28295 0.84056 0.0
C68 C 0.91599 0.27635 0.83711 0.0
O69 O 0.90144 0.30198 0.84031 0.0
C70 C 0.74341 0.22242 0.82193 0.0
O71 O 0.83668 0.28376 0.65248 0.0
O72 O 0.8258 0.21793 0.65472 0.0
N73 N 0.85232 0.34673 0.85178 0.0
C74 C 0.83326 0.3657 0.90849 0.0
C75 C 0.89651 0.41474 0.86462 0.0
N76 N 0.89156 0.37739 0.82441 0.0
N77 N 0.86057 0.40837 0.91907 0.0
C78 C 0.77875 0.11867 0.90568 0.0
C79 C 0.8052 0.09369 0.78239 0.0
N80 N 0.8074 0.15192 0.83904 0.0
N81 N 0.82387 0.1363 0.76272 0.0
N82 N 0.77677 0.08186 0.87167 0.0
H83 H 0.77783 0.13504 0.0864 0.0
H84 H 0.728 0.09169 0.03802 0.0
H85 H 0.7443 0.14578 -0.00833 0.0
C86 C 0.75548 0.12282 0.0103 0.0
C87 C 0.7871 0.34258 0.94553 0.0
H88 H 0.7668 0.32749 0.86662 0.0
H89 H 0.77669 0.36417 -0.01706 0.0
H90 H 0.78135 0.31705 0.01054 0.0
O91 O 0.76983 0.26211 0.83362 0.0
O92 O 0.75686 0.19589 0.82478 0.0
C93 C 0.8318 0.25087 0.59703 0.0
O94 O 0.82182 0.21514 0.02557 0.0
O95 O 0.83449 0.28121 0.02677 0.0
Zn96 Zn 0.62839 0.812 9e-05 0.0
O97 O 0.67426 0.87896 0.00356 0.0
C98 C 0.5993 0.8163 0.24382 0.0
Zn99 Zn 0.57345 0.82449 0.00163 0.0
C100 C 0.66022 0.90509 -0.00104 0.0
O101 O 0.62002 0.89046 0.00207 0.0
C102 C 0.54169 0.73211 -0.01708 0.0
O103 O 0.57425 0.82568 0.81606 0.0
O104 O 0.6289 0.81444 0.81349 0.0
N105 N 0.52607 0.8406 0.00987 0.0
C106 C 0.48828 0.8217 0.06813 0.0
C107 C 0.50053 0.88346 0.01312 0.0
N108 N 0.53347 0.87891 -0.02446 0.0
N109 N 0.47184 0.84817 0.07254 0.0
C110 C 0.68127 0.76861 0.07153 0.0
C111 C 0.73245 0.79413 0.94687 0.0
N112 N 0.67637 0.79652 0.00204 0.0
N113 N 0.70832 0.81242 0.92489 0.0
N114 N 0.71613 0.76651 0.03851 0.0
H115 H 0.66389 0.76944 0.25143 0.0
H116 H 0.65825 0.71942 0.20913 0.0
H117 H 0.61979 0.73422 0.15842 0.0
C118 C 0.65405 0.74622 0.17769 0.0
C119 C 0.46624 0.77617 0.1117 0.0
H120 H 0.45867 0.75462 0.03464 0.0
H121 H 0.43558 0.7666 0.15693 0.0
H122 H 0.48772 0.77113 0.17169 0.0
O123 O 0.52851 0.75859 -0.00579 0.0
O124 O 0.58167 0.74548 -0.01375 0.0
C125 C 0.60126 0.82008 0.75815 0.0
O126 O 0.6265 0.81049 0.18814 0.0
O127 O 0.57313 0.82303 0.18584 0.0
Zn128 Zn 0.77046 0.56406 0.17658 0.0
O129 O 0.76925 0.5649 -0.01136 0.0
C130 C 0.83067 0.53239 0.154 0.0
Zn131 Zn 0.83777 0.6192 0.17421 0.0
C132 C 0.80219 0.59284 0.93257 0.0
O133 O 0.83518 0.61973 -0.01032 0.0
C134 C 0.80561 0.59105 0.41853 0.0
O135 O 0.81716 0.66539 0.17837 0.0
O136 O 0.75152 0.61098 0.17815 0.0
N137 N 0.90131 0.66682 0.17362 0.0
C138 C 0.93437 0.67098 0.24029 0.0
C139 C 0.95966 0.72325 0.11821 0.0
N140 N 0.91712 0.69941 0.098 0.0
N141 N 0.97123 0.70605 0.20709 0.0
C142 C 0.68821 0.47869 0.24523 0.0
C143 C 0.63933 0.49432 0.21353 0.0
N144 N 0.7068 0.51716 0.18983 0.0
N145 N 0.67623 0.52661 0.16989 0.0
N146 N 0.64607 0.46417 0.26347 0.0
H147 H 0.72501 0.45031 0.18974 0.0
H148 H 0.68857 0.4214 0.30597 0.0
H149 H 0.73668 0.47194 0.3375 0.0
C150 C 0.7107 0.45409 0.27224 0.0
C151 C 0.92998 0.64293 0.34442 0.0
H152 H 0.91877 0.65342 0.42162 0.0
H153 H 0.96085 0.64558 0.37013 0.0
H154 H 0.90625 0.609 0.32653 0.0
O155 O 0.83827 0.6178 0.36047 0.0
O156 O 0.77252 0.56391 0.363 0.0
C157 C 0.77698 0.65122 0.17441 0.0
O158 O 0.79105 0.519 0.16719 0.0
O159 O 0.85719 0.57237 0.15884 0.0
Zn160 Zn 0.23959 0.82724 0.33561 0.0
O161 O 0.17316 0.80669 0.34219 0.0
C162 C 0.23765 0.79558 0.58189 0.0
Zn163 Zn 0.22848 0.76028 0.3406 0.0
C164 C 0.14734 0.76647 0.33945 0.0
O165 O 0.16232 0.74117 0.34343 0.0
C166 C 0.3197 0.82029 0.31383 0.0
O167 O 0.22673 0.75957 0.15254 0.0
O168 O 0.236 0.82491 0.14951 0.0
N169 N 0.2116 0.69647 0.3536 0.0
C170 C 0.23119 0.6776 0.40917 0.0
C171 C 0.16693 0.62876 0.37446 0.0
N172 N 0.17175 0.66592 0.33183 0.0
N173 N 0.20352 0.63527 0.42555 0.0
C174 C 0.28344 0.92341 0.40316 0.0
C175 C 0.25588 0.94857 0.28258 0.0
N176 N 0.25522 0.89056 0.33518 0.0
N177 N 0.23811 0.90628 0.2604 0.0
N178 N 0.28433 0.96007 0.37204 0.0
H179 H 0.28498 0.90722 0.58453 0.0
H180 H 0.33526 0.94926 0.53294 0.0
H181 H 0.31691 0.89484 0.48866 0.0
C182 C 0.30686 0.91862 0.50718 0.0
C183 C 0.27812 0.70007 0.43785 0.0
H184 H 0.2967 0.71446 0.35576 0.0
H185 H 0.28843 0.67793 0.47312 0.0
H186 H 0.28594 0.7261 0.50226 0.0
O187 O 0.29376 0.7807 0.32981 0.0
O188 O 0.30605 0.84668 0.31747 0.0
C189 C 0.23134 0.79211 0.09466 0.0
O190 O 0.24187 0.82767 0.52369 0.0
O191 O 0.23156 0.76242 0.52697 0.0
C192 C 0.43826 0.23528 0.06952 0.0
C193 C 0.46066 0.21886 0.13274 0.0
C194 C 0.43867 0.23658 0.94564 0.0
C195 C 0.46155 0.22159 0.88011 0.0
H196 H 0.4205 0.24764 0.11591 0.0
H197 H 0.4211 0.24968 0.9012 0.0
S198 S 0.52336 0.17297 0.00305 0.0
N199 N 0.50496 0.18564 0.1204 0.0
N200 N 0.50587 0.18812 0.88776 0.0
C201 C 0.48373 0.2046 0.94218 0.0
C202 C 0.48325 0.20323 0.06837 0.0
C203 C 0.22317 0.42684 0.23479 0.0
C204 C 0.2621 0.44877 0.29719 0.0
C205 C 0.22215 0.42739 0.11097 0.0
C206 C 0.25998 0.44993 0.04457 0.0
H207 H 0.19304 0.40938 0.28178 0.0
H208 H 0.1914 0.41019 0.06742 0.0
S209 S 0.37068 0.51035 0.16534 0.0
N210 N 0.3397 0.49221 0.28334 0.0
N211 N 0.33789 0.49336 0.05068 0.0
C212 C 0.29928 0.47163 0.10588 0.0
C213 C 0.3003 0.47101 0.23207 0.0
C214 C 0.82449 0.27895 0.2769 0.0
C215 C 0.82959 0.24824 0.21371 0.0
C216 C 0.82578 0.27997 0.40088 0.0
C217 C 0.83216 0.25029 0.46618 0.0
H218 H 0.81905 0.30218 0.23037 0.0
H219 H 0.8211 0.30381 0.44574 0.0
S220 S 0.85103 0.16582 0.3426 0.0
N221 N 0.84408 0.18926 0.22548 0.0
N222 N 0.84597 0.19075 0.45817 0.0
C223 C 0.83809 0.2199 0.40396 0.0
C224 C 0.83692 0.21897 0.27783 0.0
C225 C 0.63353 0.8195 0.43922 0.0
C226 C 0.59863 0.81631 0.37473 0.0
C227 C 0.63416 0.8208 0.56312 0.0
C228 C 0.59991 0.81903 0.62728 0.0
H229 H 0.66093 0.82159 0.39384 0.0
H230 H 0.6619 0.82355 0.60874 0.0
S231 S 0.49968 0.80804 0.50074 0.0
N232 N 0.52814 0.80981 0.38457 0.0
N233 N 0.52928 0.81216 0.61709 0.0
C234 C 0.56453 0.8153 0.56395 0.0
C235 C 0.5639 0.81397 0.43783 0.0
C236 C 0.77451 0.55667 0.61369 0.0
C237 C 0.80542 0.59228 0.54932 0.0
C238 C 0.77328 0.55727 0.73762 0.0
C239 C 0.80293 0.59348 0.8017 0.0
H240 H 0.75123 0.52793 0.56816 0.0
H241 H 0.74928 0.52889 0.78341 0.0
S242 S 0.88813 0.69628 0.67475 0.0
N243 N 0.86474 0.66568 0.55872 0.0
N244 N 0.86285 0.66663 0.79126 0.0
C245 C 0.83361 0.62954 0.73831 0.0
C246 C 0.83475 0.62898 0.61225 0.0
C247 C 0.21638 0.81403 0.89822 0.0
C248 C 0.23349 0.79291 -0.03571 0.0
C249 C 0.21861 0.81555 0.77415 0.0
C250 C 0.23806 0.79602 0.71242 0.0
H251 H 0.20064 0.82897 0.94261 0.0
H252 H 0.20422 0.8313 0.72621 0.0
S253 S 0.2953 0.74466 0.84565 0.0
N254 N 0.27541 0.75718 -0.03993 0.0
N255 N 0.27943 0.75983 0.72678 0.0
C256 C 0.25687 0.77644 0.77771 0.0
C257 C 0.25462 0.77492 0.90381 0.0
C258 C 0.38441 0.06253 0.44844 0.0
C259 C 0.3687 0.0895 0.48462 0.0
C260 C 0.35667 0.02034 0.41244 0.0
C261 C 0.31209 1.00296 0.4138 0.0
H262 H 0.41854 0.07446 0.44362 0.0
H263 H 0.37021 1.00137 0.38071 0.0
S264 S 0.25399 0.05878 0.50286 0.0
N265 N 0.30507 0.09507 0.52017 0.0
N266 N 0.25313 1.01515 0.45464 0.0
C267 C 0.29574 0.02905 0.45077 0.0
C268 C 0.32396 0.07232 0.48644 0.0
C269 C 0.3572 0.34654 0.57327 0.0
C270 C 0.33082 0.30187 0.57903 0.0
C271 C 0.3424 0.37389 0.60957 0.0
C272 C 0.30009 0.35769 0.65017 0.0
H273 H 0.38924 0.36046 0.53734 0.0
H274 H 0.36398 0.4081 0.60126 0.0
S275 S 0.21802 0.24255 0.67962 0.0
N276 N 0.2607 0.24227 0.62807 0.0
N277 N 0.23198 0.29352 0.69367 0.0
C278 C 0.27325 0.31286 0.65585 0.0
C279 C 0.28872 0.28502 0.62014 0.0
C280 C 0.9801 0.26633 0.82074 0.0
C281 C 0.96214 0.29314 0.8109 0.0
C282 C 1.02247 0.28048 0.78492 0.0
C283 C 0.04826 0.32182 0.73813 0.0
H284 H 0.96116 0.23401 0.85494 0.0
H285 H 0.03521 0.25903 0.79349 0.0
S286 S 1.0164 0.40344 0.68431 0.0
N287 N 0.9739 0.36292 0.74605 0.0
N288 N 0.05259 0.38831 0.67622 0.0
C289 C 0.03074 0.34865 0.72605 0.0
C290 C 0.988 0.33468 0.76353 0.0
C291 C 0.73451 0.9693 -0.01555 0.0
C292 C 0.68975 0.95156 -0.02429 0.0
C293 C 0.76289 1.0121 0.9516 0.0
C294 C 0.74753 0.03862 0.90916 0.0
H295 H 0.74778 0.94986 0.01531 0.0
H296 H 0.79707 0.02458 -0.0412 0.0
S297 S 0.6341 1.00779 0.86048 0.0
N298 N 0.63192 0.96442 0.91704 0.0
N299 N 0.6855 0.04397 0.85286 0.0
C300 C 0.70318 0.02139 0.89857 0.0
C301 C 0.67425 0.97817 0.93292 0.0
C302 C 0.78693 0.72539 0.15478 0.0
C303 C 0.75985 0.68054 0.14999 0.0
C304 C 0.77237 0.75344 0.11962 0.0
C305 C 0.73027 0.73766 0.07877 0.0
H306 H 0.81982 0.73897 0.18402 0.0
H307 H 0.79413 0.78769 0.12363 0.0
S308 S 0.64733 0.62374 0.04067 0.0
N309 N 0.68879 0.62213 0.09712 0.0
N310 N 0.66258 0.67506 0.02839 0.0
C311 C 0.70307 0.6932 0.0723 0.0
C312 C 0.7175 0.66461 0.10905 0.0
C313 C 0.0402 0.76149 0.29085 0.0
C314 C 1.01428 0.72002 0.24588 0.0
C315 C 0.0828 0.77589 0.32527 0.0
C316 C 0.10091 0.74924 0.31574 0.0
H317 H 1.02743 0.7829 0.29875 0.0
H318 H 0.10183 0.80833 0.35786 0.0
S319 S 0.0463 0.63858 0.19429 0.0
N320 N 1.00989 0.65347 0.18654 0.0
N321 N 0.08908 0.67939 0.25369 0.0
C322 C 0.07489 0.70752 0.2706 0.0
C323 C 0.03187 0.69327 0.23458 0.0
C324 C 0.54258 0.36403 0.33368 0.0
C325 C 0.5517 0.35035 0.44119 0.0
C326 C 0.57351 0.40146 0.27692 0.0
C327 C 0.61449 0.42668 0.32613 0.0
H328 H 0.51197 0.3446 0.29026 0.0
H329 H 0.56581 0.41018 0.19221 0.0
S330 S 0.65124 0.4087 0.61725 0.0
N331 N 0.60287 0.36662 0.60035 0.0
N332 N 0.65998 0.43894 0.49839 0.0
C333 C 0.62286 0.41493 0.43804 0.0
C334 C 0.59177 0.37612 0.49413 0.0
C335 C 0.19983 0.5313 0.49313 0.0
C336 C 0.22142 0.53957 0.60225 0.0
C337 C 0.19388 0.56268 0.43658 0.0
C338 C 0.20905 0.60326 0.48754 0.0
H339 H 0.18922 0.50106 0.44854 0.0
H340 H 0.17834 0.55565 0.3508 0.0
S341 S 0.26041 0.6373 0.7828 0.0
N342 N 0.25436 0.58917 0.76449 0.0
N343 N 0.2404 0.64724 0.66276 0.0
C344 C 0.22798 0.61069 0.60077 0.0
C345 C 0.23503 0.57911 0.65672 0.0
C346 C 0.68496 0.18359 0.67597 0.0
C347 C 0.6998 0.20874 0.77889 0.0
C348 C 0.6474 0.17661 0.6189 0.0
C349 C 0.62327 0.19427 0.66317 0.0
H350 H 0.70368 0.17108 0.63572 0.0
H351 H 0.63786 0.15845 0.53739 0.0
S352 S 0.64421 0.25534 0.94287 0.0
N353 N 0.68539 0.24748 0.92977 0.0
N354 N 0.61316 0.2319 0.82711 0.0
C355 C 0.63605 0.21665 0.7712 0.0
C356 C 0.67486 0.22466 0.82763 0.0
C357 C 0.52151 0.67441 0.83478 0.0
C358 C 0.51169 0.68861 0.93961 0.0
C359 C 0.49077 0.63695 0.77804 0.0
C360 C 0.44926 0.61225 0.82449 0.0
H361 H 0.55248 0.69355 0.79299 0.0
H362 H 0.49904 0.6279 0.69522 0.0
S363 S 0.41046 0.63159 0.10887 0.0
N364 N 0.45928 0.67313 0.094 0.0
N365 N 0.4024 0.60106 -0.00804 0.0
C366 C 0.44017 0.62446 0.93409 0.0
C367 C 0.47112 0.66319 -0.00978 0.0
C368 C 0.82901 0.46209 0.15246 0.0
C369 C 0.84394 0.50311 0.10394 0.0
C370 C 0.83588 0.43172 0.09401 0.0
C371 C 0.85568 0.4405 -0.01817 0.0
H372 H 0.81159 0.45335 0.23541 0.0
H373 H 0.82505 0.40094 0.13613 0.0
S374 S 0.90073 0.54343 0.81783 0.0
N375 N 0.88099 0.55165 0.94021 0.0
N376 N 0.89155 0.49379 0.82745 0.0
C377 C 0.87167 0.48182 0.93428 0.0
C378 C 0.86605 0.51318 -0.00444 0.0
C379 C 0.42658 0.82805 0.2529 0.0
C380 C 0.43491 0.84342 0.13532 0.0
C381 C 0.3899 0.82194 0.31321 0.0
C382 C 0.3616 0.83315 0.26001 0.0
H383 H 0.44827 0.82013 0.29783 0.0
H384 H 0.3834 0.80801 0.40126 0.0
S385 S 0.36968 0.87607 -0.04397 0.0
N386 N 0.41208 0.87015 -0.03075 0.0
N387 N 0.34444 0.86087 0.08429 0.0
C388 C 0.37058 0.85033 0.1447 0.0
C389 C 0.4071 0.85526 0.08224 0.0
loop_
_geom_bond_atom_site_label_1
_geom_bond_atom_site_label_2
_geom_bond_distance
_geom_bond_site_symmetry_2
_ccdc_geom_bond_type
Zn0 O1 2.055 . S
Zn0 O8 2.046 . S
Zn0 N16 2.036 . S
Zn0 O28 2.053 . S
Zn0 O30 2.066 . S
O1 Zn0 2.055 . S
O1 C4 1.259 . S
C2 O30 1.256 . S
C2 O31 1.244 . S
Zn3 O5 2.046 . S
Zn3 O7 2.055 . S
Zn3 N9 2.036 . S
Zn3 O27 2.066 . S
Zn3 O31 2.053 . S
C4 O1 1.259 . S
C4 O5 1.254 . S
O5 Zn3 2.046 . S
O5 C4 1.254 . S
C6 O27 1.256 . S
C6 O28 1.244 . S
O7 Zn3 2.055 . S
O7 C29 1.259 . S
O8 Zn0 2.046 . S
O8 C29 1.254 . S
N9 Zn3 2.036 . S
N9 C10 1.298 . S
N9 N12 1.398 . S
C10 N9 1.298 . S
C10 N13 1.367 . S
C10 C23 1.481 . S
C11 N12 1.299 . S
C11 N13 1.379 . S
N12 N9 1.398 . S
N12 C11 1.299 . S
N13 C10 1.367 . S
N13 C11 1.379 . S
C14 N16 1.298 . S
C14 N18 1.367 . S
C14 C22 1.481 . S
C15 N17 1.299 . S
C15 N18 1.379 . S
N16 Zn0 2.036 . S
N16 C14 1.298 . S
N16 N17 1.398 . S
N17 C15 1.299 . S
N17 N16 1.398 . S
N18 C14 1.367 . S
N18 C15 1.379 . S
H19 C22 0.980 . S
H20 C22 0.981 . S
H21 C22 0.981 . S
C22 C14 1.481 . S
C22 H19 0.980 . S
C22 H20 0.981 . S
C22 H21 0.981 . S
C23 C10 1.481 . S
C23 H24 0.980 . S
C23 H25 0.981 . S
C23 H26 0.981 . S
H24 C23 0.980 . S
H25 C23 0.981 . S
H26 C23 0.981 . S
O27 Zn3 2.066 . S
O27 C6 1.256 . S
O28 Zn0 2.053 . S
O28 C6 1.244 . S
C29 O7 1.259 . S
C29 O8 1.254 . S
O30 Zn0 2.066 . S
O30 C2 1.256 . S
O31 C2 1.244 . S
O31 Zn3 2.053 . S
Zn32 O33 2.055 . S
Zn32 O40 2.046 . S
Zn32 N48 2.036 . S
Zn32 O60 2.053 . S
Zn32 O62 2.066 . S
O33 Zn32 2.055 . S
O33 C36 1.259 . S
C34 O62 1.256 . S
C34 O63 1.244 . S
Zn35 O37 2.046 . S
Zn35 O39 2.055 . S
Zn35 N41 2.036 . S
Zn35 O59 2.066 . S
Zn35 O63 2.053 . S
C36 O33 1.259 . S
C36 O37 1.254 . S
O37 Zn35 2.046 . S
O37 C36 1.254 . S
C38 O59 1.256 . S
C38 O60 1.244 . S
O39 Zn35 2.055 . S
O39 C61 1.259 . S
O40 Zn32 2.046 . S
O40 C61 1.254 . S
N41 Zn35 2.036 . S
N41 C42 1.298 . S
N41 N44 1.398 . S
C42 N41 1.298 . S
C42 N45 1.367 . S
C42 C55 1.481 . S
C43 N44 1.299 . S
C43 N45 1.379 . S
N44 N41 1.398 . S
N44 C43 1.299 . S
N45 C42 1.367 . S
N45 C43 1.379 . S
C46 N48 1.298 . S
C46 N50 1.367 . S
C46 C54 1.481 . S
C47 N49 1.299 . S
C47 N50 1.379 . S
N48 Zn32 2.036 . S
N48 C46 1.298 . S
N48 N49 1.398 . S
N49 C47 1.299 . S
N49 N48 1.398 . S
N50 C46 1.367 . S
N50 C47 1.379 . S
H51 C54 0.980 . S
H52 C54 0.981 . S
H53 C54 0.981 . S
C54 C46 1.481 . S
C54 H51 0.980 . S
C54 H52 0.981 . S
C54 H53 0.981 . S
C55 C42 1.481 . S
C55 H56 0.980 . S
C55 H57 0.981 . S
C55 H58 0.981 . S
H56 C55 0.980 . S
H57 C55 0.981 . S
H58 C55 0.981 . S
O59 Zn35 2.066 . S
O59 C38 1.256 . S
O60 Zn32 2.053 . S
O60 C38 1.244 . S
C61 O39 1.259 . S
C61 O40 1.254 . S
O62 Zn32 2.066 . S
O62 C34 1.256 . S
O63 C34 1.244 . S
O63 Zn35 2.053 . S
Zn64 O65 2.055 . S
Zn64 O72 2.046 . S
Zn64 N80 2.036 . S
Zn64 O92 2.053 . S
Zn64 O94 2.066 1_556 S
O65 Zn64 2.055 . S
O65 C68 1.259 . S
C66 O94 1.256 . S
C66 O95 1.244 . S
Zn67 O69 2.046 . S
Zn67 O71 2.055 . S
Zn67 N73 2.036 . S
Zn67 O91 2.066 . S
Zn67 O95 2.053 1_556 S
C68 O65 1.259 . S
C68 O69 1.254 . S
O69 Zn67 2.046 . S
O69 C68 1.254 . S
C70 O91 1.256 . S
C70 O92 1.244 . S
O71 Zn67 2.055 . S
O71 C93 1.259 . S
O72 Zn64 2.046 . S
O72 C93 1.254 . S
N73 Zn67 2.036 . S
N73 C74 1.298 . S
N73 N76 1.398 1_556 S
C74 N73 1.298 . S
C74 N77 1.367 . S
C74 C87 1.481 . S
C75 N76 1.299 . S
C75 N77 1.379 1_554 S
N76 N73 1.398 1_554 S
N76 C75 1.299 . S
N77 C74 1.367 . S
N77 C75 1.379 1_556 S
C78 N80 1.298 . S
C78 N82 1.367 . S
C78 C86 1.481 . S
C79 N81 1.299 . S
C79 N82 1.379 . S
N80 Zn64 2.036 . S
N80 C78 1.298 . S
N80 N81 1.398 . S
N81 C79 1.299 . S
N81 N80 1.398 . S
N82 C78 1.367 . S
N82 C79 1.379 . S
H83 C86 0.980 . S
H84 C86 0.981 . S
H85 C86 0.981 1_554 S
C86 C78 1.481 . S
C86 H83 0.980 . S
C86 H84 0.981 . S
C86 H85 0.981 1_556 S
C87 C74 1.481 . S
C87 H88 0.980 . S
C87 H89 0.981 . S
C87 H90 0.981 . S
H88 C87 0.980 . S
H89 C87 0.981 . S
H90 C87 0.981 . S
O91 Zn67 2.066 . S
O91 C70 1.256 . S
O92 Zn64 2.053 . S
O92 C70 1.244 . S
C93 O71 1.259 . S
C93 O72 1.254 . S
O94 Zn64 2.066 1_554 S
O94 C66 1.256 . S
O95 C66 1.244 . S
O95 Zn67 2.053 1_554 S
Zn96 O97 2.055 . S
Zn96 O104 2.046 1_554 S
Zn96 N112 2.036 . S
Zn96 O124 2.053 . S
Zn96 O126 2.066 . S
O97 Zn96 2.055 . S
O97 C100 1.259 . S
C98 O126 1.256 . S
C98 O127 1.244 . S
Zn99 O101 2.046 . S
Zn99 O103 2.055 1_554 S
Zn99 N105 2.036 . S
Zn99 O123 2.066 . S
Zn99 O127 2.053 . S
C100 O97 1.259 . S
C100 O101 1.254 . S
O101 Zn99 2.046 . S
O101 C100 1.254 . S
C102 O123 1.256 . S
C102 O124 1.244 . S
O103 Zn99 2.055 1_556 S
O103 C125 1.259 . S
O104 Zn96 2.046 1_556 S
O104 C125 1.254 . S
N105 Zn99 2.036 . S
N105 C106 1.298 . S
N105 N108 1.398 . S
C106 N105 1.298 . S
C106 N109 1.367 . S
C106 C119 1.481 1_554 S
C107 N108 1.299 . S
C107 N109 1.379 . S
N108 N105 1.398 . S
N108 C107 1.299 . S
N109 C106 1.367 . S
N109 C107 1.379 . S
C110 N112 1.298 . S
C110 N114 1.367 . S
C110 C118 1.481 . S
C111 N113 1.298 1_554 S
C111 N114 1.379 . S
N112 Zn96 2.036 . S
N112 C110 1.298 . S
N112 N113 1.397 1_554 S
N113 C111 1.298 1_556 S
N113 N112 1.397 1_556 S
N114 C110 1.367 . S
N114 C111 1.379 . S
H115 C118 0.980 . S
H116 C118 0.981 . S
H117 C118 0.981 . S
C118 C110 1.481 . S
C118 H115 0.980 . S
C118 H116 0.981 . S
C118 H117 0.981 . S
C119 C106 1.481 1_556 S
C119 H120 0.980 . S
C119 H121 0.981 . S
C119 H122 0.981 . S
H120 C119 0.980 . S
H121 C119 0.981 . S
H122 C119 0.981 . S
O123 Zn99 2.066 . S
O123 C102 1.256 . S
O124 Zn96 2.053 . S
O124 C102 1.244 . S
C125 O103 1.259 . S
C125 O104 1.254 . S
O126 Zn96 2.066 . S
O126 C98 1.256 . S
O127 C98 1.244 . S
O127 Zn99 2.053 . S
Zn128 O129 2.055 . S
Zn128 O136 2.046 . S
Zn128 N144 2.036 . S
Zn128 O156 2.053 . S
Zn128 O158 2.066 . S
O129 Zn128 2.055 . S
O129 C132 1.259 1_554 S
C130 O158 1.256 . S
C130 O159 1.244 . S
Zn131 O133 2.046 . S
Zn131 O135 2.055 . S
Zn131 N137 2.036 . S
Zn131 O155 2.066 . S
Zn131 O159 2.053 . S
C132 O129 1.259 1_556 S
C132 O133 1.254 1_556 S
O133 Zn131 2.046 . S
O133 C132 1.254 1_554 S
C134 O155 1.256 . S
C134 O156 1.244 . S
O135 Zn131 2.055 . S
O135 C157 1.259 . S
O136 Zn128 2.046 . S
O136 C157 1.254 . S
N137 Zn131 2.036 . S
N137 C138 1.298 . S
N137 N140 1.398 . S
C138 N137 1.298 . S
C138 N141 1.367 . S
C138 C151 1.481 . S
C139 N140 1.299 . S
C139 N141 1.379 . S
N140 N137 1.398 . S
N140 C139 1.299 . S
N141 C138 1.367 . S
N141 C139 1.379 . S
C142 N144 1.298 . S
C142 N146 1.367 . S
C142 C150 1.481 . S
C143 N145 1.299 . S
C143 N146 1.379 . S
N144 Zn128 2.036 . S
N144 C142 1.298 . S
N144 N145 1.398 . S
N145 C143 1.299 . S
N145 N144 1.398 . S
N146 C142 1.367 . S
N146 C143 1.379 . S
H147 C150 0.980 . S
H148 C150 0.981 . S
H149 C150 0.981 . S
C150 C142 1.481 . S
C150 H147 0.980 . S
C150 H148 0.981 . S
C150 H149 0.981 . S
C151 C138 1.481 . S
C151 H152 0.980 . S
C151 H153 0.981 . S
C151 H154 0.981 . S
H152 C151 0.980 . S
H153 C151 0.981 . S
H154 C151 0.981 . S
O155 Zn131 2.066 . S
O155 C134 1.256 . S
O156 Zn128 2.053 . S
O156 C134 1.244 . S
C157 O135 1.259 . S
C157 O136 1.254 . S
O158 Zn128 2.066 . S
O158 C130 1.256 . S
O159 C130 1.244 . S
O159 Zn131 2.053 . S
Zn160 O161 2.055 . S
Zn160 O168 2.046 . S
Zn160 N176 2.036 . S
Zn160 O188 2.053 . S
Zn160 O190 2.066 . S
O161 Zn160 2.055 . S
O161 C164 1.259 . S
C162 O190 1.256 . S
C162 O191 1.244 . S
Zn163 O165 2.046 . S
Zn163 O167 2.055 . S
Zn163 N169 2.036 . S
Zn163 O187 2.066 . S
Zn163 O191 2.053 . S
C164 O161 1.259 . S
C164 O165 1.254 . S
O165 Zn163 2.046 . S
O165 C164 1.254 . S
C166 O187 1.256 . S
C166 O188 1.244 . S
O167 Zn163 2.055 . S
O167 C189 1.259 . S
O168 Zn160 2.046 . S
O168 C189 1.254 . S
N169 Zn163 2.036 . S
N169 C170 1.298 . S
N169 N172 1.398 . S
C170 N169 1.298 . S
C170 N173 1.367 . S
C170 C183 1.481 . S
C171 N172 1.299 . S
C171 N173 1.379 . S
N172 N169 1.398 . S
N172 C171 1.299 . S
N173 C170 1.367 . S
N173 C171 1.379 . S
C174 N176 1.298 . S
C174 N178 1.367 . S
C174 C182 1.481 . S
C175 N177 1.299 . S
C175 N178 1.379 . S
N176 Zn160 2.036 . S
N176 C174 1.298 . S
N176 N177 1.398 . S
N177 C175 1.299 . S
N177 N176 1.398 . S
N178 C174 1.367 . S
N178 C175 1.379 . S
H179 C182 0.980 . S
H180 C182 0.981 . S
H181 C182 0.981 . S
C182 C174 1.481 . S
C182 H179 0.980 . S
C182 H180 0.981 . S
C182 H181 0.981 . S
C183 C170 1.481 . S
C183 H184 0.980 . S
C183 H185 0.981 . S
C183 H186 0.981 . S
H184 C183 0.980 . S
H185 C183 0.981 . S
H186 C183 0.981 . S
O187 Zn163 2.066 . S
O187 C166 1.256 . S
O188 Zn160 2.053 . S
O188 C166 1.244 . S
C189 O167 1.259 . S
C189 O168 1.254 . S
O190 Zn160 2.066 . S
O190 C162 1.256 . S
O191 C162 1.244 . S
O191 Zn163 2.053 . S
C192 C193 1.369 . S
C192 C194 1.419 . S
C192 H196 0.930 . S
C193 C192 1.369 . S
C193 C202 1.429 . S
C194 C192 1.419 . S
C194 C195 1.363 1_554 S
C194 H197 0.929 1_554 S
C195 C194 1.363 1_556 S
C195 C201 1.428 . S
H196 C192 0.930 . S
H197 C194 0.929 1_556 S
S198 N199 1.613 . S
S198 N200 1.610 1_554 S
N199 S198 1.613 . S
N199 C202 1.350 . S
N200 S198 1.610 1_556 S
N200 C201 1.351 . S
C201 C195 1.428 . S
C201 N200 1.351 . S
C201 C202 1.434 1_556 S
C202 C193 1.429 . S
C202 N199 1.350 . S
C202 C201 1.434 1_554 S
C203 C204 1.369 . S
C203 C205 1.419 . S
C203 H207 0.930 . S
C204 C203 1.369 . S
C204 C213 1.429 . S
C205 C203 1.419 . S
C205 C206 1.363 . S
C205 H208 0.929 . S
C206 C205 1.363 . S
C206 C212 1.428 . S
H207 C203 0.930 . S
H208 C205 0.929 . S
S209 N210 1.613 . S
S209 N211 1.610 . S
N210 S209 1.613 . S
N210 C213 1.350 . S
N211 S209 1.610 . S
N211 C212 1.351 . S
C212 C206 1.428 . S
C212 N211 1.351 . S
C212 C213 1.434 . S
C213 C204 1.429 . S
C213 N210 1.350 . S
C213 C212 1.434 . S
C214 C215 1.369 . S
C214 C216 1.419 . S
C214 H218 0.930 . S
C215 C214 1.369 . S
C215 C224 1.429 . S
C216 C214 1.419 . S
C216 C217 1.363 . S
C216 H219 0.929 . S
C217 C216 1.363 . S
C217 C223 1.428 . S
H218 C214 0.930 . S
H219 C216 0.929 . S
S220 N221 1.613 . S
S220 N222 1.610 . S
N221 S220 1.613 . S
N221 C224 1.350 . S
N222 S220 1.610 . S
N222 C223 1.351 . S
C223 C217 1.428 . S
C223 N222 1.351 . S
C223 C224 1.434 . S
C224 C215 1.429 . S
C224 N221 1.350 . S
C224 C223 1.434 . S
C225 C226 1.369 . S
C225 C227 1.419 . S
C225 H229 0.930 . S
C226 C225 1.369 . S
C226 C235 1.429 . S
C227 C225 1.419 . S
C227 C228 1.363 . S
C227 H230 0.929 . S
C228 C227 1.363 . S
C228 C234 1.428 . S
H229 C225 0.930 . S
H230 C227 0.929 . S
S231 N232 1.613 . S
S231 N233 1.610 . S
N232 S231 1.613 . S
N232 C235 1.350 . S
N233 S231 1.610 . S
N233 C234 1.351 . S
C234 C228 1.428 . S
C234 N233 1.351 . S
C234 C235 1.434 . S
C235 C226 1.429 . S
C235 N232 1.350 . S
C235 C234 1.434 . S
C236 C237 1.369 . S
C236 C238 1.419 . S
C236 H240 0.930 . S
C237 C236 1.369 . S
C237 C246 1.429 . S
C238 C236 1.419 . S
C238 C239 1.363 . S
C238 H241 0.929 . S
C239 C238 1.363 . S
C239 C245 1.428 . S
H240 C236 0.930 . S
H241 C238 0.929 . S
S242 N243 1.613 . S
S242 N244 1.610 . S
N243 S242 1.613 . S
N243 C246 1.350 . S
N244 S242 1.610 . S
N244 C245 1.351 . S
C245 C239 1.428 . S
C245 N244 1.351 . S
C245 C246 1.434 . S
C246 C237 1.429 . S
C246 N243 1.350 . S
C246 C245 1.434 . S
C247 C248 1.369 1_556 S
C247 C249 1.419 . S
C247 H251 0.930 1_556 S
C248 C247 1.369 1_554 S
C248 C257 1.429 1_554 S
C249 C247 1.419 . S
C249 C250 1.363 . S
C249 H252 0.929 . S
C250 C249 1.363 . S
C250 C256 1.428 . S
H251 C247 0.930 1_554 S
H252 C249 0.929 . S
S253 N254 1.613 . S
S253 N255 1.610 . S
N254 S253 1.613 . S
N254 C257 1.350 . S
N255 S253 1.610 . S
N255 C256 1.351 . S
C256 C250 1.428 . S
C256 N255 1.351 . S
C256 C257 1.434 . S
C257 C248 1.429 1_556 S
C257 N254 1.350 . S
C257 C256 1.434 . S
C258 C259 1.369 . S
C258 C260 1.419 . S
C258 H262 0.930 . S
C259 C258 1.369 . S
C259 C268 1.429 . S
C260 C258 1.419 . S
C260 C261 1.363 1_545 S
C260 H263 0.929 1_545 S
C261 C260 1.363 1_565 S
C261 C267 1.428 1_565 S
H262 C258 0.930 . S
H263 C260 0.929 1_565 S
S264 N265 1.613 . S
S264 N266 1.610 . S
N265 S264 1.613 . S
N265 C268 1.350 . S
N266 S264 1.610 . S
N266 C267 1.351 . S
C267 C261 1.428 1_545 S
C267 N266 1.351 . S
C267 C268 1.434 . S
C268 C259 1.429 . S
C268 N265 1.350 . S
C268 C267 1.434 . S
C269 C270 1.369 . S
C269 C271 1.419 . S
C269 H273 0.930 . S
C270 C269 1.369 . S
C270 C279 1.429 . S
C271 C269 1.419 . S
C271 C272 1.363 . S
C271 H274 0.929 . S
C272 C271 1.363 . S
C272 C278 1.428 . S
H273 C269 0.930 . S
H274 C271 0.929 . S
S275 N276 1.613 . S
S275 N277 1.610 . S
N276 S275 1.613 . S
N276 C279 1.350 . S
N277 S275 1.610 . S
N277 C278 1.351 . S
C278 C272 1.428 . S
C278 N277 1.351 . S
C278 C279 1.434 . S
C279 C270 1.429 . S
C279 N276 1.350 . S
C279 C278 1.434 . S
C280 C281 1.369 . S
C280 C282 1.419 . S
C280 H284 0.930 . S
C281 C280 1.369 . S
C281 C290 1.429 1_556 S
C282 C280 1.419 . S
C282 C283 1.355 1_655 S
C282 H285 0.929 . S
C283 C282 1.355 1_455 S
C283 C289 1.426 1_455 S
H284 C280 0.930 . S
H285 C282 0.929 . S
S286 N287 1.613 . S
S286 N288 1.610 1_655 S
N287 S286 1.613 . S
N287 C290 1.350 . S
N288 S286 1.610 1_455 S
N288 C289 1.351 1_454 S
C289 C283 1.426 1_655 S
C289 N288 1.351 1_656 S
C289 C290 1.434 1_556 S
C290 C281 1.429 1_554 S
C290 N287 1.350 . S
C290 C289 1.434 1_554 S
C291 C292 1.369 1_556 S
C291 C293 1.419 . S
C291 H295 0.930 . S
C292 C291 1.369 1_554 S
C292 C301 1.429 . S
C293 C291 1.419 . S
C293 C294 1.361 1_565 S
C293 H296 0.929 . S
C294 C293 1.361 1_545 S
C294 C300 1.424 1_546 S
H295 C291 0.930 . S
H296 C293 0.929 . S
S297 N298 1.613 . S
S297 N299 1.610 1_565 S
N298 S297 1.613 . S
N298 C301 1.350 . S
N299 S297 1.610 1_545 S
N299 C300 1.351 1_545 S
C300 C294 1.424 1_564 S
C300 N299 1.351 1_565 S
C300 C301 1.434 . S
C301 C292 1.429 . S
C301 N298 1.350 . S
C301 C300 1.434 . S
C302 C303 1.369 . S
C302 C304 1.419 . S
C302 H306 0.930 . S
C303 C302 1.369 . S
C303 C312 1.429 . S
C304 C302 1.419 . S
C304 C305 1.363 . S
C304 H307 0.929 1_554 S
C305 C304 1.363 . S
C305 C311 1.428 . S
H306 C302 0.930 . S
H307 C304 0.929 1_556 S
S308 N309 1.613 . S
S308 N310 1.610 . S
N309 S308 1.613 . S
N309 C312 1.350 . S
N310 S308 1.610 . S
N310 C311 1.351 . S
C311 C305 1.428 . S
C311 N310 1.351 . S
C311 C312 1.434 . S
C312 C303 1.429 . S
C312 N309 1.350 . S
C312 C311 1.434 . S
C313 C314 1.365 1_455 S
C313 C315 1.419 . S
C313 H317 0.930 . S
C314 C313 1.365 1_655 S
C314 C323 1.428 1_655 S
C315 C313 1.419 . S
C315 C316 1.363 . S
C315 H318 0.929 . S
C316 C315 1.363 . S
C316 C322 1.428 . S
H317 C313 0.930 . S
H318 C315 0.929 . S
S319 N320 1.613 1_455 S
S319 N321 1.610 . S
N320 S319 1.613 1_655 S
N320 C323 1.350 1_655 S
N321 S319 1.610 . S
N321 C322 1.351 . S
C322 C316 1.428 . S
C322 N321 1.351 . S
C322 C323 1.434 . S
C323 C314 1.428 1_455 S
C323 N320 1.350 1_455 S
C323 C322 1.434 . S
C324 C325 1.369 . S
C324 C326 1.419 . S
C324 H328 0.930 . S
C325 C324 1.369 . S
C325 C334 1.429 . S
C326 C324 1.419 . S
C326 C327 1.363 . S
C326 H329 0.929 . S
C327 C326 1.363 . S
C327 C333 1.428 . S
H328 C324 0.930 . S
H329 C326 0.929 . S
S330 N331 1.613 . S
S330 N332 1.610 . S
N331 S330 1.613 . S
N331 C334 1.350 . S
N332 S330 1.610 . S
N332 C333 1.351 . S
C333 C327 1.428 . S
C333 N332 1.351 . S
C333 C334 1.434 . S
C334 C325 1.429 . S
C334 N331 1.350 . S
C334 C333 1.434 . S
C335 C336 1.369 . S
C335 C337 1.419 . S
C335 H339 0.930 . S
C336 C335 1.369 . S
C336 C345 1.429 . S
C337 C335 1.419 . S
C337 C338 1.363 . S
C337 H340 0.929 . S
C338 C337 1.363 . S
C338 C344 1.428 . S
H339 C335 0.930 . S
H340 C337 0.929 . S
S341 N342 1.613 . S
S341 N343 1.610 . S
N342 S341 1.613 . S
N342 C345 1.350 . S
N343 S341 1.610 . S
N343 C344 1.351 . S
C344 C338 1.428 . S
C344 N343 1.351 . S
C344 C345 1.434 . S
C345 C336 1.429 . S
C345 N342 1.350 . S
C345 C344 1.434 . S
C346 C347 1.369 . S
C346 C348 1.419 . S
C346 H350 0.930 . S
C347 C346 1.369 . S
C347 C356 1.429 . S
C348 C346 1.419 . S
C348 C349 1.363 . S
C348 H351 0.929 . S
C349 C348 1.363 . S
C349 C355 1.428 . S
H350 C346 0.930 . S
H351 C348 0.929 . S
S352 N353 1.613 . S
S352 N354 1.610 . S
N353 S352 1.613 . S
N353 C356 1.350 . S
N354 S352 1.610 . S
N354 C355 1.351 . S
C355 C349 1.428 . S
C355 N354 1.351 . S
C355 C356 1.434 . S
C356 C347 1.429 . S
C356 N353 1.350 . S
C356 C355 1.434 . S
C357 C358 1.369 1_554 S
C357 C359 1.419 1_554 S
C357 H361 0.930 . S
C358 C357 1.369 1_556 S
C358 C367 1.429 . S
C359 C357 1.419 1_556 S
C359 C360 1.363 . S
C359 H362 0.929 . S
C360 C359 1.363 . S
C360 C366 1.428 . S
H361 C357 0.930 . S
H362 C359 0.929 . S
S363 N364 1.613 . S
S363 N365 1.610 . S
N364 S363 1.613 . S
N364 C367 1.350 . S
N365 S363 1.610 . S
N365 C366 1.351 . S
C366 C360 1.428 . S
C366 N365 1.351 . S
C366 C367 1.434 . S
C367 C358 1.429 . S
C367 N364 1.350 . S
C367 C366 1.434 . S
C368 C369 1.369 . S
C368 C370 1.419 . S
C368 H372 0.930 . S
C369 C368 1.369 . S
C369 C378 1.429 . S
C370 C368 1.419 . S
C370 C371 1.363 1_554 S
C370 H373 0.929 . S
C371 C370 1.363 1_556 S
C371 C377 1.428 . S
H372 C368 0.930 . S
H373 C370 0.929 . S
S374 N375 1.613 1_556 S
S374 N376 1.610 . S
N375 S374 1.613 1_554 S
N375 C378 1.350 . S
N376 S374 1.610 . S
N376 C377 1.351 . S
C377 C371 1.428 . S
C377 N376 1.351 . S
C377 C378 1.434 1_556 S
C378 C369 1.429 . S
C378 N375 1.350 . S
C378 C377 1.434 1_554 S
C379 C380 1.369 . S
C379 C381 1.419 . S
C379 H383 0.930 . S
C380 C379 1.369 . S
C380 C389 1.429 . S
C381 C379 1.419 . S
C381 C382 1.363 . S
C381 H384 0.929 . S
C382 C381 1.363 . S
C382 C388 1.428 . S
H383 C379 0.930 . S
H384 C381 0.929 . S
S385 N386 1.613 . S
S385 N387 1.610 . S
N386 S385 1.613 . S
N386 C389 1.350 . S
N387 S385 1.610 . S
N387 C388 1.351 . S
C388 C382 1.428 . S
C388 N387 1.351 . S
C388 C389 1.434 . S
C389 C380 1.429 . S
C389 N386 1.350 . S
C389 C388 1.434 . S
C193 C29 1.169 . S
C195 C2 1.174 . S
C204 C61 1.167 . S
C206 C34 1.174 1_554 S
C215 C66 1.177 . S
C217 C93 1.165 . S
C226 C98 1.173 . S
C228 C125 1.169 . S
C237 C134 1.177 . S
C239 C132 1.164 . S
C248 C189 1.169 . S
C250 C162 1.174 . S
C259 C4 1.559 . S
C261 N178 1.544 . S
C270 N18 1.543 . S
C272 C36 1.560 . S
C281 C68 1.568 . S
C283 N50 1.553 . S
C292 C100 1.569 . S
C294 N82 1.555 . S
C303 C157 1.569 . S
C305 N114 1.546 . S
C314 N141 1.554 . S
C316 C164 1.567 . S
C325 C6 1.867 . S
C327 N146 1.748 . S
C336 C38 1.872 . S
C338 N173 1.741 . S
C347 C70 1.868 . S
C349 N13 1.747 . S
C358 C102 1.867 1_556 S
C360 N45 1.749 . S
C369 C130 1.867 . S
C371 N77 1.748 . S
C380 N109 1.740 . S
C382 C166 1.871 . S
