# Generated by pormake.
# Topology snl, (6)-cn, num edge types: 1
# Building blocks:
#     Node 0, Type 0, BuildingBlock: BETDIP_clean_sbu_0, # of connection points: 6
#     Node 1, Type 0, BuildingBlock: BETDIP_clean_sbu_0, # of connection points: 6
#     Node 2, Type 0, BuildingBlock: BETDIP_clean_sbu_0, # of connection points: 6
#     Node 3, Type 0, BuildingBlock: BETDIP_clean_sbu_0, # of connection points: 6
#     Node 4, Type 0, BuildingBlock: BETDIP_clean_sbu_0, # of connection points: 6
#     Node 5, Type 0, BuildingBlock: BETDIP_clean_sbu_0, # of connection points: 6
#     Node 6, Type 0, BuildingBlock: BETDIP_clean_sbu_0, # of connection points: 6
#     Node 7, Type 0, BuildingBlock: BETDIP_clean_sbu_0, # of connection points: 6
#     Node 8, Type 0, BuildingBlock: BETDIP_clean_sbu_0, # of connection points: 6
#     Node 9, Type 0, BuildingBlock: BETDIP_clean_sbu_0, # of connection points: 6
#     Node 10, Type 0, BuildingBlock: BETDIP_clean_sbu_0, # of connection points: 6
#     Node 11, Type 0, BuildingBlock: BETDIP_clean_sbu_0, # of connection points: 6
#     Node 12, Type 0, BuildingBlock: BETDIP_clean_sbu_0, # of connection points: 6
#     Node 13, Type 0, BuildingBlock: BETDIP_clean_sbu_0, # of connection points: 6
#     Node 14, Type 0, BuildingBlock: BETDIP_clean_sbu_0, # of connection points: 6
#     Node 15, Type 0, BuildingBlock: BETDIP_clean_sbu_0, # of connection points: 6
#     Edge 16, Type (0, 0), BuildingBlock: XUDNAN_clean_linker_2, # of connection points: 2
#     Edge 17, Type (0, 0), BuildingBlock: XUDNAN_clean_linker_2, # of connection points: 2
#     Edge 18, Type (0, 0), BuildingBlock: XUDNAN_clean_linker_2, # of connection points: 2
#     Edge 19, Type (0, 0), BuildingBlock: XUDNAN_clean_linker_2, # of connection points: 2
#     Edge 20, Type (0, 0), BuildingBlock: XUDNAN_clean_linker_2, # of connection points: 2
#     Edge 21, Type (0, 0), BuildingBlock: XUDNAN_clean_linker_2, # of connection points: 2
#     Edge 22, Type (0, 0), BuildingBlock: XUDNAN_clean_linker_2, # of connection points: 2
#     Edge 23, Type (0, 0), BuildingBlock: XUDNAN_clean_linker_2, # of connection points: 2
#     Edge 24, Type (0, 0), BuildingBlock: XUDNAN_clean_linker_2, # of connection points: 2
#     Edge 25, Type (0, 0), BuildingBlock: XUDNAN_clean_linker_2, # of connection points: 2
#     Edge 26, Type (0, 0), BuildingBlock: XUDNAN_clean_linker_2, # of connection points: 2
#     Edge 27, Type (0, 0), BuildingBlock: XUDNAN_clean_linker_2, # of connection points: 2
#     Edge 28, Type (0, 0), BuildingBlock: XUDNAN_clean_linker_2, # of connection points: 2
#     Edge 29, Type (0, 0), BuildingBlock: XUDNAN_clean_linker_2, # of connection points: 2
#     Edge 30, Type (0, 0), BuildingBlock: XUDNAN_clean_linker_2, # of connection points: 2
#     Edge 31, Type (0, 0), BuildingBlock: XUDNAN_clean_linker_2, # of connection points: 2
#     Edge 32, Type (0, 0), BuildingBlock: XUDNAN_clean_linker_2, # of connection points: 2
#     Edge 33, Type (0, 0), BuildingBlock: XUDNAN_clean_linker_2, # of connection points: 2
#     Edge 34, Type (0, 0), BuildingBlock: XUDNAN_clean_linker_2, # of connection points: 2
#     Edge 35, Type (0, 0), BuildingBlock: XUDNAN_clean_linker_2, # of connection points: 2
#     Edge 36, Type (0, 0), BuildingBlock: XUDNAN_clean_linker_2, # of connection points: 2
#     Edge 37, Type (0, 0), BuildingBlock: XUDNAN_clean_linker_2, # of connection points: 2
#     Edge 38, Type (0, 0), BuildingBlock: XUDNAN_clean_linker_2, # of connection points: 2
#     Edge 39, Type (0, 0), BuildingBlock: XUDNAN_clean_linker_2, # of connection points: 2
#     Edge 40, Type (0, 0), BuildingBlock: XUDNAN_clean_linker_2, # of connection points: 2
#     Edge 41, Type (0, 0), BuildingBlock: XUDNAN_clean_linker_2, # of connection points: 2
#     Edge 42, Type (0, 0), BuildingBlock: XUDNAN_clean_linker_2, # of connection points: 2
#     Edge 43, Type (0, 0), BuildingBlock: XUDNAN_clean_linker_2, # of connection points: 2
#     Edge 44, Type (0, 0), BuildingBlock: XUDNAN_clean_linker_2, # of connection points: 2
#     Edge 45, Type (0, 0), BuildingBlock: XUDNAN_clean_linker_2, # of connection points: 2
#     Edge 46, Type (0, 0), BuildingBlock: XUDNAN_clean_linker_2, # of connection points: 2
#     Edge 47, Type (0, 0), BuildingBlock: XUDNAN_clean_linker_2, # of connection points: 2
#     Edge 48, Type (0, 0), BuildingBlock: XUDNAN_clean_linker_2, # of connection points: 2
#     Edge 49, Type (0, 0), BuildingBlock: XUDNAN_clean_linker_2, # of connection points: 2
#     Edge 50, Type (0, 0), BuildingBlock: XUDNAN_clean_linker_2, # of connection points: 2
#     Edge 51, Type (0, 0), BuildingBlock: XUDNAN_clean_linker_2, # of connection points: 2
#     Edge 52, Type (0, 0), BuildingBlock: XUDNAN_clean_linker_2, # of connection points: 2
#     Edge 53, Type (0, 0), BuildingBlock: XUDNAN_clean_linker_2, # of connection points: 2
#     Edge 54, Type (0, 0), BuildingBlock: XUDNAN_clean_linker_2, # of connection points: 2
#     Edge 55, Type (0, 0), BuildingBlock: XUDNAN_clean_linker_2, # of connection points: 2
#     Edge 56, Type (0, 0), BuildingBlock: XUDNAN_clean_linker_2, # of connection points: 2
#     Edge 57, Type (0, 0), BuildingBlock: XUDNAN_clean_linker_2, # of connection points: 2
#     Edge 58, Type (0, 0), BuildingBlock: XUDNAN_clean_linker_2, # of connection points: 2
#     Edge 59, Type (0, 0), BuildingBlock: XUDNAN_clean_linker_2, # of connection points: 2
#     Edge 60, Type (0, 0), BuildingBlock: XUDNAN_clean_linker_2, # of connection points: 2
#     Edge 61, Type (0, 0), BuildingBlock: XUDNAN_clean_linker_2, # of connection points: 2
#     Edge 62, Type (0, 0), BuildingBlock: XUDNAN_clean_linker_2, # of connection points: 2
#     Edge 63, Type (0, 0), BuildingBlock: XUDNAN_clean_linker_2, # of connection points: 2
# Relax obj value: 0.208
# Max RMSD: 0.260
# Mean RMSD: 0.231
data_MOF--net-snl--node1-BETDIP_clean_sbu_0--edge1-XUDNAN_clean_linker_2
_symmetry_space_group_name_H-M    P1
_symmetry_Int_Tables_number       1
_symmetry_cell_setting            triclinic
loop_
_symmetry_equiv_pos_as_xyz
'x, y, z'
_cell_length_a     56.885854
_cell_length_b     55.814026
_cell_length_c     25.632277
_cell_angle_alpha  87.030293
_cell_angle_beta   93.168369
_cell_angle_gamma 90.251435
loop_
_atom_site_label
_atom_site_type_symbol
_atom_site_fract_x
_atom_site_fract_y
_atom_site_fract_z
_atom_type_partial_charge
Tb0 Tb 0.14152 0.61465 0.21231 0.0
Tb1 Tb 0.14567 0.6371 0.10711 0.0
C2 C 0.14645 0.60143 0.30826 0.0
C3 C 0.15018 0.61051 0.36176 0.0
C4 C 0.173 0.61336 0.38467 0.0
C5 C 0.17639 0.61904 0.43724 0.0
C6 C 0.15707 0.62189 0.4685 0.0
C7 C 0.13426 0.61942 0.44523 0.0
C8 C 0.13087 0.61373 0.39272 0.0
C9 C 0.10058 0.61785 0.15772 0.0
C10 C 0.14025 0.67174 0.19482 0.0
C11 C 0.14084 0.65062 1.01144 0.0
C12 C 0.14605 0.64393 0.95788 0.0
C13 C 0.12745 0.64251 0.91974 0.0
C14 C 0.13188 0.63945 0.86724 0.0
C15 C 0.1551 0.63788 0.85142 0.0
C16 C 0.1737 0.63839 0.89006 0.0
C17 C 0.16924 0.64139 0.94263 0.0
C18 C 0.18601 0.63201 0.1649 0.0
C19 C 0.1452 0.57987 0.12033 0.0
O20 O 0.16385 0.603 0.27685 0.0
O21 O 0.12614 0.60585 0.28334 0.0
O22 O 0.11662 0.63381 0.15819 0.0
O23 O 0.10756 0.59993 0.18869 0.0
O24 O 0.14662 0.65329 0.22718 0.0
O25 O 0.13447 0.66837 0.14527 0.0
O26 O 0.12519 0.63778 0.03602 0.0
O27 O 0.15843 0.65696 0.04286 0.0
O28 O 0.16938 0.61721 0.16101 0.0
O29 O 0.18099 0.65032 0.1332 0.0
O30 O 0.14431 0.59918 0.08818 0.0
O31 O 0.14623 0.58152 0.17186 0.0
H32 H 0.18831 0.61058 0.36241 0.0
H33 H 0.19424 0.62045 0.45379 0.0
H34 H 0.11893 0.62179 0.46766 0.0
H35 H 0.11304 0.61133 0.37671 0.0
H36 H 0.10941 0.64464 0.93025 0.0
H37 H 0.11711 0.63939 0.83872 0.0
H38 H 0.19178 0.63685 0.87955 0.0
H39 H 0.18401 0.64237 0.97098 0.0
Tb40 Tb 0.64094 0.89602 0.33751 0.0
Tb41 Tb 0.64908 0.87653 0.4437 0.0
C42 C 0.6452 0.908 0.24207 0.0
C43 C 0.64006 0.90159 0.18716 0.0
C44 C 0.6589 0.89703 0.15589 0.0
C45 C 0.65516 0.89513 0.10183 0.0
C46 C 0.63247 0.89791 0.07761 0.0
C47 C 0.61346 0.90142 0.1093 0.0
C48 C 0.6172 0.9033 0.16344 0.0
C49 C 0.60124 0.89359 0.38763 0.0
C50 C 0.63922 0.83858 0.36193 0.0
C51 C 0.65144 0.86525 0.54056 0.0
C52 C 0.64722 0.87482 0.59206 0.0
C53 C 0.62476 0.88222 0.60495 0.0
C54 C 0.62078 0.8885 0.65596 0.0
C55 C 0.63915 0.88753 0.69521 0.0
C56 C 0.66176 0.88088 0.68158 0.0
C57 C 0.66569 0.87453 0.63071 0.0
C58 C 0.68709 0.87957 0.38629 0.0
C59 C 0.64671 0.93221 0.42614 0.0
O60 O 0.66071 0.89511 0.27062 0.0
O61 O 0.62775 0.9147 0.26907 0.0
O62 O 0.61768 0.87813 0.39146 0.0
O63 O 0.60678 0.91034 0.35367 0.0
O64 O 0.64054 0.85651 0.32577 0.0
O65 O 0.64002 0.84278 0.41196 0.0
O66 O 0.63312 0.86108 0.50919 0.0
O67 O 0.66902 0.87437 0.51541 0.0
O68 O 0.67122 0.89499 0.38916 0.0
O69 O 0.6822 0.86139 0.4172 0.0
O70 O 0.64092 0.91387 0.45725 0.0
O71 O 0.65162 0.92862 0.37721 0.0
H72 H 0.67675 0.896 0.17292 0.0
H73 H 0.67027 0.89269 0.07874 0.0
H74 H 0.5957 0.90327 0.09209 0.0
H75 H 0.60229 0.90694 0.18629 0.0
H76 H 0.6101 0.88255 0.57609 0.0
H77 H 0.6031 0.89332 0.66499 0.0
H78 H 0.67644 0.88037 0.71036 0.0
H79 H 0.68315 0.86883 0.62186 0.0
Tb80 Tb 0.38028 0.39258 0.74103 0.0
Tb81 Tb 0.37487 0.37324 0.63842 0.0
C82 C 0.37504 0.40361 0.83412 0.0
C83 C 0.38176 0.39701 0.88976 0.0
C84 C 0.36482 0.3869 0.92223 0.0
C85 C 0.36967 0.38354 0.97624 0.0
C86 C 0.39153 0.39041 0.99927 0.0
C87 C 0.4087 0.39998 0.96653 0.0
C88 C 0.40386 0.4033 0.91247 0.0
C89 C 0.42083 0.39266 0.69282 0.0
C90 C 0.38607 0.33594 0.72935 0.0
C91 C 0.37414 0.36189 0.54426 0.0
C92 C 0.37865 0.37054 0.49024 0.0
C93 C 0.39985 0.38183 0.47737 0.0
C94 C 0.40468 0.38677 0.4248 0.0
C95 C 0.38843 0.38053 0.3842 0.0
C96 C 0.36687 0.37011 0.39758 0.0
C97 C 0.36209 0.36517 0.44994 0.0
C98 C 0.33597 0.37103 0.69282 0.0
C99 C 0.37367 0.42853 0.64538 0.0
O100 O 0.36105 0.38904 0.80878 0.0
O101 O 0.39118 0.41284 0.80474 0.0
O102 O 0.40511 0.37653 0.69192 0.0
O103 O 0.41446 0.40865 0.72395 0.0
O104 O 0.38235 0.35335 0.76135 0.0
O105 O 0.3866 0.34036 0.67852 0.0
O106 O 0.39224 0.35852 0.57754 0.0
O107 O 0.35611 0.37093 0.56576 0.0
O108 O 0.35002 0.38863 0.68932 0.0
O109 O 0.34344 0.35446 0.6645 0.0
O110 O 0.38141 0.41094 0.61888 0.0
O111 O 0.36765 0.42431 0.69411 0.0
H112 H 0.34753 0.38216 0.90604 0.0
H113 H 0.35614 0.37578 1.00002 0.0
H114 H 0.42562 0.40575 0.98286 0.0
H115 H 0.41721 0.41147 0.88879 0.0
H116 H 0.41292 0.38623 0.50772 0.0
H117 H 0.42131 0.39512 0.41594 0.0
H118 H 0.35406 0.36476 0.36755 0.0
H119 H 0.34571 0.35629 0.45891 0.0
Tb120 Tb 0.88729 0.11539 0.83249 0.0
Tb121 Tb 0.88322 0.14093 0.93035 0.0
C122 C 0.88157 0.10123 0.74015 0.0
C123 C 0.87827 0.11006 0.6841 0.0
C124 C 0.85561 0.11178 0.65928 0.0
C125 C 0.85255 0.11748 0.60531 0.0
C126 C 0.87205 0.12151 0.57428 0.0
C127 C 0.89472 0.11996 0.59927 0.0
C128 C 0.89778 0.11427 0.65327 0.0
C129 C 0.92816 0.11999 0.88599 0.0
C130 C 0.89003 0.17294 0.83258 0.0
C131 C 0.88697 0.15561 0.02245 0.0
C132 C 0.88242 0.14864 0.07804 0.0
C133 C 0.90128 0.14794 0.116 0.0
C134 C 0.89732 0.14446 0.16949 0.0
C135 C 0.87432 0.14173 0.18664 0.0
C136 C 0.85552 0.14156 0.14836 0.0
C137 C 0.85949 0.14501 0.09486 0.0
C138 C 0.84313 0.13469 0.87356 0.0
C139 C 0.88521 0.08368 0.93659 0.0
O140 O 0.86433 0.10405 0.77109 0.0
O141 O 0.90209 0.10467 0.76413 0.0
O142 O 0.91197 0.13569 0.88049 0.0
O143 O 0.92178 0.10182 0.85906 0.0
O144 O 0.88323 0.15402 0.80601 0.0
O145 O 0.89552 0.17066 0.8831 0.0
O146 O 0.90362 0.14421 1.00082 0.0
O147 O 0.86893 0.16014 0.98956 0.0
O148 O 0.85957 0.11982 0.88303 0.0
O149 O 0.84833 0.15381 0.89836 0.0
O150 O 0.88666 0.10412 0.96007 0.0
O151 O 0.88256 0.08317 0.8848 0.0
H152 H 0.84017 0.10818 0.68135 0.0
H153 H 0.83481 0.11806 0.5877 0.0
H154 H 0.91019 0.1232 0.57714 0.0
H155 H 0.91553 0.11275 0.67067 0.0
H156 H 0.91913 0.15091 0.1044 0.0
H157 H 0.91226 0.14493 0.1975 0.0
H158 H 0.83759 0.1391 0.15976 0.0
H159 H 0.84451 0.14541 0.06685 0.0
Tb160 Tb 0.14558 0.39709 0.8327 0.0
Tb161 Tb 0.15002 0.374 0.94307 0.0
C162 C 0.15746 0.41108 0.74263 0.0
C163 C 0.15068 0.40888 0.68614 0.0
C164 C 0.1461 0.42977 0.6544 0.0
C165 C 0.14152 0.42862 0.60031 0.0
C166 C 0.14149 0.4065 0.57624 0.0
C167 C 0.14594 0.3855 0.60815 0.0
C168 C 0.15046 0.38666 0.66244 0.0
C169 C 0.10206 0.39013 0.86424 0.0
C170 C 0.13841 0.33991 0.85498 0.0
C171 C 0.15271 0.3623 0.03974 0.0
C172 C 0.14626 0.36962 0.09182 0.0
C173 C 0.14565 0.35211 0.13303 0.0
C174 C 0.14202 0.35853 0.18409 0.0
C175 C 0.13883 0.38269 0.19526 0.0
C176 C 0.13892 0.4002 0.15352 0.0
C177 C 0.1427 0.39375 0.10238 0.0
C178 C 0.18872 0.3744 0.88795 0.0
C179 C 0.14301 0.42993 0.92867 0.0
O180 O 0.16626 0.3921 0.76889 0.0
O181 O 0.14335 0.42318 0.77025 0.0
O182 O 0.12129 0.38482 0.88972 0.0
O183 O 0.10731 0.39949 0.81905 0.0
O184 O 0.14451 0.35762 0.82124 0.0
O185 O 0.13579 0.3436 0.90472 0.0
O186 O 0.13591 0.35487 1.00733 0.0
O187 O 0.16826 0.37564 1.01595 0.0
O188 O 0.17396 0.39119 0.88961 0.0
O189 O 0.18174 0.3567 0.91776 0.0
O190 O 0.13917 0.40995 0.95647 0.0
O191 O 0.14954 0.42947 0.87963 0.0
H192 H 0.14649 0.44716 0.67137 0.0
H193 H 0.13858 0.44523 0.57717 0.0
H194 H 0.14583 0.36812 0.59123 0.0
H195 H 0.15404 0.37018 0.68566 0.0
H196 H 0.14848 0.3334 0.1259 0.0
H197 H 0.1417 0.34451 0.21487 0.0
H198 H 0.13673 0.419 0.16058 0.0
H199 H 0.14336 0.40763 0.07139 0.0
Tb200 Tb 0.88266 0.89354 0.24589 0.0
Tb201 Tb 0.87225 0.87495 0.13665 0.0
C202 C 0.87361 0.90689 0.33473 0.0
C203 C 0.87973 0.90292 0.39121 0.0
C204 C 0.8614 0.90093 0.42554 0.0
C205 C 0.86623 0.89916 0.4796 0.0
C206 C 0.88958 0.89937 0.50069 0.0
C207 C 0.90802 0.9009 0.46614 0.0
C208 C 0.90314 0.90263 0.41184 0.0
C209 C 0.92368 0.88595 0.2046 0.0
C210 C 0.88575 0.8375 0.22714 0.0
C211 C 0.86774 0.86498 0.042 0.0
C212 C 0.87397 0.87379 0.98915 0.0
C213 C 0.89743 0.87787 0.97635 0.0
C214 C 0.90275 0.88379 0.9245 0.0
C215 C 0.88475 0.8857 0.88451 0.0
C216 C 0.86128 0.88242 0.89799 0.0
C217 C 0.85599 0.87646 0.94963 0.0
C218 C 0.8362 0.87761 0.19911 0.0
C219 C 0.88082 0.93024 0.14729 0.0
O220 O 0.86229 0.8895 0.31156 0.0
O221 O 0.88929 0.91737 0.30549 0.0
O222 O 0.90321 0.88274 0.1837 0.0
O223 O 0.9212 0.89278 0.25164 0.0
O224 O 0.88203 0.8541 0.26122 0.0
O225 O 0.88554 0.84254 0.17628 0.0
O226 O 0.88472 0.85661 0.07449 0.0
O227 O 0.85242 0.87764 0.06506 0.0
O228 O 0.85272 0.89235 0.19289 0.0
O229 O 0.83924 0.86029 0.16849 0.0
O230 O 0.88147 0.91198 0.11673 0.0
O231 O 0.87861 0.92724 0.19852 0.0
H232 H 0.84321 0.90131 0.41048 0.0
H233 H 0.85158 0.89839 0.50489 0.0
H234 H 0.9262 0.90084 0.48107 0.0
H235 H 0.91763 0.90411 0.38616 0.0
H236 H 0.91169 0.87594 1.00606 0.0
H237 H 0.92103 0.88606 0.91551 0.0
H238 H 0.84692 0.88425 0.86851 0.0
H239 H 0.83778 0.87342 0.95852 0.0
Tb240 Tb 0.38477 0.6118 0.32744 0.0
Tb241 Tb 0.37961 0.63524 0.42675 0.0
C242 C 0.37858 0.59855 0.23469 0.0
C243 C 0.38397 0.60558 0.17974 0.0
C244 C 0.36568 0.61312 0.14349 0.0
C245 C 0.36988 0.61764 0.09045 0.0
C246 C 0.3925 0.61461 0.07206 0.0
C247 C 0.41084 0.60728 0.10856 0.0
C248 C 0.40664 0.6028 0.1616 0.0
C249 C 0.42556 0.61603 0.38171 0.0
C250 C 0.38545 0.6697 0.33104 0.0
C251 C 0.38032 0.64893 0.51939 0.0
C252 C 0.38439 0.64089 0.57538 0.0
C253 C 0.40654 0.63293 0.59633 0.0
C254 C 0.41057 0.62857 0.65054 0.0
C255 C 0.39261 0.63214 0.68515 0.0
C256 C 0.37026 0.63925 0.66374 0.0
C257 C 0.36625 0.64362 0.60965 0.0
C258 C 0.34023 0.63054 0.36651 0.0
C259 C 0.38012 0.57931 0.42892 0.0
O260 O 0.36368 0.61189 0.25727 0.0
O261 O 0.39596 0.59124 0.2671 0.0
O262 O 0.40906 0.63141 0.37788 0.0
O263 O 0.41976 0.5988 0.35163 0.0
O264 O 0.38402 0.65065 0.30186 0.0
O265 O 0.38683 0.66761 0.38244 0.0
O266 O 0.39839 0.65046 0.48983 0.0
O267 O 0.3615 0.64087 0.49441 0.0
O268 O 0.3563 0.61528 0.37616 0.0
O269 O 0.34553 0.6493 0.39241 0.0
O270 O 0.38742 0.59844 0.45299 0.0
O271 O 0.37445 0.58071 0.37795 0.0
H272 H 0.34795 0.61517 0.15603 0.0
H273 H 0.35536 0.62356 0.06389 0.0
H274 H 0.42842 0.60436 0.096 0.0
H275 H 0.42111 0.59669 0.18812 0.0
H276 H 0.42093 0.63064 0.57109 0.0
H277 H 0.42791 0.62275 0.66541 0.0
H278 H 0.35606 0.64248 0.68891 0.0
H279 H 0.34908 0.64998 0.59472 0.0
Tb280 Tb 0.64584 0.11375 0.7134 0.0
Tb281 Tb 0.64951 0.13937 0.61046 0.0
C282 C 0.6528 0.0995 0.80855 0.0
C283 C 0.64857 0.10589 0.86313 0.0
C284 C 0.66782 0.10921 0.89895 0.0
C285 C 0.66445 0.11193 0.95225 0.0
C286 C 0.6417 0.11118 0.97133 0.0
C287 C 0.62239 0.10876 0.93501 0.0
C288 C 0.62576 0.10613 0.88175 0.0
C289 C 0.6046 0.11832 0.66031 0.0
C290 C 0.6425 0.17204 0.70131 0.0
C291 C 0.64718 0.15357 0.51468 0.0
C292 C 0.64487 0.14433 0.46088 0.0
C293 C 0.62275 0.13848 0.4376 0.0
C294 C 0.62048 0.13206 0.3853 0.0
C295 C 0.64023 0.13135 0.35446 0.0
C296 C 0.66238 0.13705 0.37795 0.0
C297 C 0.66465 0.14349 0.43029 0.0
C298 C 0.68951 0.13409 0.6693 0.0
C299 C 0.64962 0.08267 0.61627 0.0
O300 O 0.66789 0.11244 0.78252 0.0
O301 O 0.63469 0.09327 0.77855 0.0
O302 O 0.62082 0.134 0.66197 0.0
O303 O 0.61112 0.10012 0.69096 0.0
O304 O 0.64625 0.15248 0.73279 0.0
O305 O 0.64031 0.17068 0.65011 0.0
O306 O 0.62897 0.15179 0.54375 0.0
O307 O 0.66689 0.14932 0.5422 0.0
O308 O 0.67357 0.1187 0.66236 0.0
O309 O 0.68364 0.15343 0.64159 0.0
O310 O 0.64318 0.10253 0.58934 0.0
O311 O 0.65499 0.08296 0.66736 0.0
H312 H 0.68563 0.10886 0.88602 0.0
H313 H 0.67977 0.11355 0.97885 0.0
H314 H 0.60458 0.10851 0.9479 0.0
H315 H 0.61048 0.10361 0.8555 0.0
H316 H 0.60703 0.13932 0.45941 0.0
H317 H 0.60304 0.12823 0.3687 0.0
H318 H 0.67807 0.13648 0.35597 0.0
H319 H 0.68192 0.14821 0.44659 0.0
Tb320 Tb 0.88234 0.37893 0.91107 0.0
Tb321 Tb 0.88749 0.40223 0.80708 0.0
C322 C 0.88682 0.36499 1.00666 0.0
C323 C 0.88214 0.37197 0.06038 0.0
C324 C 0.9006 0.3709 0.0992 0.0
C325 C 0.89641 0.3746 0.15159 0.0
C326 C 0.87354 0.37935 0.1667 0.0
C327 C 0.85519 0.38127 0.12738 0.0
C328 C 0.85942 0.37762 0.07489 0.0
C329 C 0.8421 0.38441 0.8526 0.0
C330 C 0.8836 0.43606 0.90027 0.0
C331 C 0.88359 0.41604 0.71119 0.0
C332 C 0.87931 0.40745 0.65726 0.0
C333 C 0.85654 0.40785 0.63286 0.0
C334 C 0.85289 0.40261 0.58005 0.0
C335 C 0.87191 0.39697 0.54989 0.0
C336 C 0.89465 0.39628 0.57457 0.0
C337 C 0.8983 0.40151 0.62739 0.0
C338 C 0.92828 0.39773 0.86309 0.0
C339 C 0.88792 0.34533 0.82196 0.0
O340 O 0.90294 0.3771 0.98202 0.0
O341 O 0.86888 0.35953 0.9753 0.0
O342 O 0.85879 0.39929 0.85686 0.0
O343 O 0.84715 0.36601 0.88403 0.0
O344 O 0.88399 0.41646 0.93136 0.0
O345 O 0.88306 0.43506 0.84864 0.0
O346 O 0.86609 0.41558 0.74236 0.0
O347 O 0.90351 0.41018 0.73636 0.0
O348 O 0.9118 0.38226 0.86117 0.0
O349 O 0.92188 0.41596 0.83236 0.0
O350 O 0.88152 0.36402 0.79048 0.0
O351 O 0.8936 0.34809 0.87177 0.0
H352 H 0.91826 0.36642 0.08924 0.0
H353 H 0.91096 0.37272 0.18056 0.0
H354 H 0.83742 0.3853 0.13725 0.0
H355 H 0.84479 0.37866 0.04597 0.0
H356 H 0.84154 0.41283 0.65418 0.0
H357 H 0.83515 0.40372 0.56248 0.0
H358 H 0.90972 0.39173 0.55306 0.0
H359 H 0.91615 0.40138 0.64448 0.0
Tb360 Tb 0.38488 0.13302 0.61333 0.0
Tb361 Tb 0.3938 0.10658 0.71698 0.0
C362 C 0.38611 0.14801 0.5183 0.0
C363 C 0.38417 0.13907 0.46417 0.0
C364 C 0.40322 0.14196 0.43162 0.0
C365 C 0.40132 0.13533 0.37935 0.0
C366 C 0.38023 0.12566 0.35785 0.0
C367 C 0.3612 0.12268 0.39072 0.0
C368 C 0.36312 0.12926 0.44299 0.0
C369 C 0.3467 0.12475 0.66734 0.0
C370 C 0.3908 0.07598 0.61783 0.0
C371 C 0.39412 0.09139 0.81221 0.0
C372 C 0.38922 0.0982 0.86637 0.0
C373 C 0.36685 0.09448 0.88626 0.0
C374 C 0.36325 0.09718 0.93946 0.0
C375 C 0.38192 0.10353 0.97466 0.0
C376 C 0.40407 0.10819 0.9543 0.0
C377 C 0.40769 0.10544 0.90107 0.0
C378 C 0.43214 0.11407 0.66404 0.0
C379 C 0.39117 0.16415 0.70766 0.0
O380 O 0.40477 0.14174 0.5479 0.0
O381 O 0.36717 0.14791 0.54506 0.0
O382 O 0.36381 0.11063 0.6639 0.0
O383 O 0.35005 0.14378 0.63744 0.0
O384 O 0.38994 0.09673 0.5909 0.0
O385 O 0.38991 0.0746 0.66965 0.0
O386 O 0.37638 0.08871 0.77827 0.0
O387 O 0.41221 0.10125 0.79018 0.0
O388 O 0.41536 0.12877 0.667 0.0
O389 O 0.42779 0.09499 0.69284 0.0
O390 O 0.38677 0.14425 0.73629 0.0
O391 O 0.39486 0.16344 0.65748 0.0
H392 H 0.41962 0.14963 0.44652 0.0
H393 H 0.41651 0.13766 0.35593 0.0
H394 H 0.3445 0.11569 0.37582 0.0
H395 H 0.34796 0.12697 0.46652 0.0
H396 H 0.35221 0.0887 0.86109 0.0
H397 H 0.34582 0.0938 0.95322 0.0
H398 H 0.41896 0.11289 0.97994 0.0
H399 H 0.42526 0.10811 0.88755 0.0
Tb400 Tb 0.63666 0.61836 0.31253 0.0
Tb401 Tb 0.65431 0.61959 0.42987 0.0
C402 C 0.62676 0.6272 0.21678 0.0
C403 C 0.63431 0.62167 0.16481 0.0
C404 C 0.6322 0.63947 0.12423 0.0
C405 C 0.63578 0.63391 0.07277 0.0
C406 C 0.64143 0.61037 0.06103 0.0
C407 C 0.64472 0.59283 0.1022 0.0
C408 C 0.64125 0.59844 0.15374 0.0
C409 C 0.6384 0.57679 0.36828 0.0
C410 C 0.69206 0.61925 0.34048 0.0
C411 C 0.66734 0.60279 0.51948 0.0
C412 C 0.66146 0.60222 0.57463 0.0
C413 C 0.66205 0.58001 0.60278 0.0
C414 C 0.65717 0.57846 0.65552 0.0
C415 C 0.65152 0.59912 0.6813 0.0
C416 C 0.65078 0.62142 0.65289 0.0
C417 C 0.65567 0.62296 0.59984 0.0
C418 C 0.64487 0.66373 0.39107 0.0
C419 C 0.59938 0.62445 0.3967 0.0
O420 O 0.64065 0.64081 0.2451 0.0
O421 O 0.61754 0.60951 0.2444 0.0
O422 O 0.65258 0.59413 0.37106 0.0
O423 O 0.62283 0.5821 0.33066 0.0
O424 O 0.67482 0.61705 0.30389 0.0
O425 O 0.68802 0.62034 0.39106 0.0
O426 O 0.65232 0.59208 0.48789 0.0
O427 O 0.67573 0.6228 0.49852 0.0
O428 O 0.6432 0.64425 0.36843 0.0
O429 O 0.65161 0.65846 0.43962 0.0
O430 O 0.61549 0.61786 0.43451 0.0
O431 O 0.60505 0.62985 0.34802 0.0
H432 H 0.62679 0.65747 0.13203 0.0
H433 H 0.63294 0.64776 0.04191 0.0
H434 H 0.6494 0.57462 0.09436 0.0
H435 H 0.64314 0.58445 0.18457 0.0
H436 H 0.66649 0.56381 0.58396 0.0
H437 H 0.65826 0.56107 0.67633 0.0
H438 H 0.64625 0.63762 0.67153 0.0
H439 H 0.65497 0.64028 0.57869 0.0
Tb440 Tb 0.14114 0.88569 0.11422 0.0
Tb441 Tb 0.13615 0.90275 0.21843 0.0
C442 C 0.14001 0.87484 1.01955 0.0
C443 C 0.13387 0.88376 0.96478 0.0
C444 C 0.11231 0.87739 0.93968 0.0
C445 C 0.10786 0.88259 0.88596 0.0
C446 C 0.12494 0.89412 0.85577 0.0
C447 C 0.14627 0.90104 0.88117 0.0
C448 C 0.1507 0.89589 0.9349 0.0
C449 C 0.18107 0.88728 0.17466 0.0
C450 C 0.13542 0.94125 0.1217 0.0
C451 C 0.14185 0.92069 0.30661 0.0
C452 C 0.13727 0.91542 0.36234 0.0
C453 C 0.15395 0.92245 0.40098 0.0
C454 C 0.1495 0.91938 0.45411 0.0
C455 C 0.12818 0.90923 0.4699 0.0
C456 C 0.11169 0.90166 0.43101 0.0
C457 C 0.11619 0.90469 0.37779 0.0
C458 C 0.09561 0.88605 0.17866 0.0
C459 C 0.1375 0.84702 0.20332 0.0
O460 O 0.12289 0.87012 0.05071 0.0
O461 O 0.15819 0.88447 0.04399 0.0
O462 O 0.16489 0.90264 0.16943 0.0
O463 O 0.17521 0.86988 0.14514 0.0
O464 O 0.13805 0.92347 0.09085 0.0
O465 O 0.13399 0.93752 0.17296 0.0
O466 O 0.15771 0.90751 0.28652 0.0
O467 O 0.12361 0.925 0.27412 0.0
O468 O 0.11061 0.89827 0.15313 0.0
O469 O 0.10351 0.88335 0.22693 0.0
O470 O 0.1441 0.86407 0.23543 0.0
O471 O 0.13126 0.8526 0.15408 0.0
H472 H 0.09914 0.86762 0.96118 0.0
H473 H 0.09135 0.87671 0.86774 0.0
H474 H 0.15971 0.91023 0.8594 0.0
H475 H 0.16764 0.90081 0.95266 0.0
H476 H 0.17029 0.93084 0.38999 0.0
H477 H 0.1625 0.92567 0.48273 0.0
H478 H 0.09523 0.89346 0.44169 0.0
H479 H 0.10307 0.89896 0.34879 0.0
Tb480 Tb 0.88076 0.63546 0.10779 0.0
Tb481 Tb 0.88681 0.60724 0.21661 0.0
C482 C 0.87911 0.64934 1.0121 0.0
C483 C 0.88292 0.64088 0.95895 0.0
C484 C 0.90318 0.62829 0.94733 0.0
C485 C 0.90617 0.6212 0.89615 0.0
C486 C 0.88897 0.62645 0.85521 0.0
C487 C 0.86869 0.63895 0.86742 0.0
C488 C 0.86577 0.64606 0.91839 0.0
C489 C 0.84283 0.63022 0.16355 0.0
C490 C 0.88756 0.57859 0.11416 0.0
C491 C 0.87631 0.59128 0.30661 0.0
C492 C 0.88148 0.59547 0.36336 0.0
C493 C 0.86415 0.60561 0.3926 0.0
C494 C 0.86766 0.60766 0.44692 0.0
C495 C 0.88858 0.59948 0.4739 0.0
C496 C 0.90615 0.58984 0.44433 0.0
C497 C 0.90265 0.58781 0.38998 0.0
C498 C 0.92895 0.61779 0.18054 0.0
C499 C 0.89192 0.6652 0.20455 0.0
O500 O 0.89746 0.65252 0.04445 0.0
O501 O 0.86127 0.63989 0.03597 0.0
O502 O 0.85872 0.61477 0.15933 0.0
O503 O 0.84793 0.64941 0.13585 0.0
O504 O 0.88957 0.59954 0.08844 0.0
O505 O 0.88303 0.57677 0.1647 0.0
O506 O 0.8644 0.60795 0.27889 0.0
O507 O 0.8928 0.58199 0.27999 0.0
O508 O 0.90881 0.6231 0.16003 0.0
O509 O 0.92553 0.6059 0.22433 0.0
O510 O 0.88725 0.64576 0.23484 0.0
O511 O 0.89339 0.66464 0.15326 0.0
H512 H 0.91675 0.62402 0.97764 0.0
H513 H 0.92218 0.61188 0.88862 0.0
H514 H 0.85479 0.643 0.83775 0.0
H515 H 0.84995 0.6557 0.92616 0.0
H516 H 0.84751 0.61144 0.37359 0.0
H517 H 0.85356 0.61491 0.46801 0.0
H518 H 0.92267 0.58368 0.46324 0.0
H519 H 0.9164 0.57984 0.36904 0.0
Tb520 Tb 0.13823 0.12017 0.8088 0.0
Tb521 Tb 0.15715 0.12205 0.92601 0.0
C522 C 0.12791 0.12393 0.7122 0.0
C523 C 0.13746 0.13018 0.66089 0.0
C524 C 0.12219 0.13994 0.62061 0.0
C525 C 0.12957 0.14312 0.56959 0.0
C526 C 0.15243 0.13653 0.55767 0.0
C527 C 0.16805 0.12764 0.59868 0.0
C528 C 0.16063 0.12447 0.64985 0.0
C529 C 0.13579 0.08033 0.87034 0.0
C530 C 0.19335 0.11902 0.83549 0.0
C531 C 0.17096 0.10864 1.01764 0.0
C532 C 0.17066 0.11491 0.07279 0.0
C533 C 0.19035 0.10901 0.10613 0.0
C534 C 0.1909 0.11423 0.15886 0.0
C535 C 0.17169 0.1255 0.17963 0.0
C536 C 0.15182 0.13133 0.14614 0.0
C537 C 0.15133 0.12615 0.09304 0.0
C538 C 0.15142 0.16614 0.88185 0.0
C539 C 0.10182 0.12821 0.89352 0.0
O540 O 0.12492 0.1414 0.74366 0.0
O541 O 0.13582 0.10415 0.73692 0.0
O542 O 0.1521 0.09556 0.86997 0.0
O543 O 0.12008 0.08686 0.83395 0.0
O544 O 0.17615 0.12448 0.79997 0.0
O545 O 0.18932 0.1143 0.88563 0.0
O546 O 0.15115 0.10139 0.99468 0.0
O547 O 0.18322 0.12279 0.98692 0.0
O548 O 0.14884 0.14618 0.86184 0.0
O549 O 0.15769 0.1615 0.9308 0.0
O550 O 0.11826 0.12235 0.93127 0.0
O551 O 0.10663 0.13167 0.84368 0.0
H552 H 0.10424 0.14445 0.62831 0.0
H553 H 0.11722 0.15046 0.5393 0.0
H554 H 0.18574 0.12226 0.59095 0.0
H555 H 0.17274 0.11686 0.68034 0.0
H556 H 0.20537 0.10017 0.09136 0.0
H557 H 0.20629 0.10909 0.1836 0.0
H558 H 0.1368 0.14016 0.16082 0.0
H559 H 0.13594 0.1309 0.06793 0.0
Tb560 Tb 0.64005 0.38313 0.62242 0.0
Tb561 Tb 0.63585 0.4029 0.72374 0.0
C562 C 0.63505 0.37089 0.52895 0.0
C563 C 0.64068 0.37747 0.47435 0.0
C564 C 0.6231 0.37488 0.43446 0.0
C565 C 0.62823 0.3782 0.38183 0.0
C566 C 0.65116 0.38417 0.36769 0.0
C567 C 0.66863 0.38755 0.40788 0.0
C568 C 0.66345 0.38423 0.46069 0.0
C569 C 0.6809 0.38702 0.67854 0.0
C570 C 0.63872 0.43994 0.62737 0.0
C571 C 0.64069 0.41458 0.81782 0.0
C572 C 0.64601 0.40552 0.87281 0.0
C573 C 0.66875 0.40799 0.89639 0.0
C574 C 0.67303 0.40305 0.95026 0.0
C575 C 0.65463 0.3957 0.98204 0.0
C576 C 0.63204 0.39257 0.95813 0.0
C577 C 0.62777 0.39748 0.9043 0.0
C578 C 0.59436 0.3999 0.67095 0.0
C579 C 0.63479 0.34617 0.7126 0.0
O580 O 0.62009 0.38448 0.55068 0.0
O581 O 0.65227 0.36353 0.56175 0.0
O582 O 0.6643 0.402 0.67358 0.0
O583 O 0.67538 0.36941 0.64928 0.0
O584 O 0.63876 0.42123 0.59802 0.0
O585 O 0.63892 0.4374 0.6791 0.0
O586 O 0.65775 0.41543 0.78553 0.0
O587 O 0.62071 0.40822 0.79495 0.0
O588 O 0.61079 0.38442 0.6731 0.0
O589 O 0.60141 0.4175 0.69881 0.0
O590 O 0.6419 0.36373 0.7429 0.0
O591 O 0.62801 0.3513 0.66354 0.0
H592 H 0.60545 0.3695 0.44402 0.0
H593 H 0.61438 0.37513 0.35221 0.0
H594 H 0.68639 0.3925 0.39854 0.0
H595 H 0.67735 0.38641 0.49069 0.0
H596 H 0.68312 0.41458 0.87357 0.0
H597 H 0.69059 0.40592 0.96729 0.0
H598 H 0.61751 0.38661 0.98114 0.0
H599 H 0.60996 0.39567 0.88773 0.0
Tb600 Tb 0.38025 0.87709 0.41464 0.0
Tb601 Tb 0.38732 0.90026 0.31143 0.0
C602 C 0.38075 0.86292 0.51013 0.0
C603 C 0.38509 0.87073 0.56458 0.0
C604 C 0.40807 0.87299 0.58706 0.0
C605 C 0.41188 0.87649 0.64068 0.0
C606 C 0.39285 0.8777 0.6734 0.0
C607 C 0.36986 0.87654 0.6504 0.0
C608 C 0.36605 0.87299 0.59679 0.0
C609 C 0.34122 0.88321 0.35272 0.0
C610 C 0.3844 0.93344 0.40487 0.0
C611 C 0.38268 0.914 0.21568 0.0
C612 C 0.38628 0.90583 0.16228 0.0
C613 C 0.36687 0.904 0.12626 0.0
C614 C 0.36999 0.89848 0.07429 0.0
C615 C 0.39267 0.89476 0.05678 0.0
C616 C 0.41206 0.89641 0.09313 0.0
C617 C 0.40893 0.90186 0.1451 0.0
C618 C 0.42742 0.89488 0.3689 0.0
C619 C 0.38569 0.84257 0.32581 0.0
O620 O 0.39875 0.86123 0.48078 0.0
O621 O 0.36204 0.87124 0.48339 0.0
O622 O 0.35788 0.89801 0.35896 0.0
O623 O 0.34582 0.86436 0.38304 0.0
O624 O 0.38792 0.91384 0.43506 0.0
O625 O 0.38031 0.93236 0.35365 0.0
O626 O 0.36586 0.90375 0.24168 0.0
O627 O 0.40135 0.91807 0.24602 0.0
O628 O 0.4106 0.87975 0.36679 0.0
O629 O 0.42201 0.91288 0.33666 0.0
O630 O 0.38601 0.86181 0.29317 0.0
O631 O 0.3856 0.84431 0.37681 0.0
H632 H 0.42319 0.87125 0.56366 0.0
H633 H 0.42983 0.87771 0.65675 0.0
H634 H 0.35477 0.87716 0.67424 0.0
H635 H 0.34814 0.87101 0.58095 0.0
H636 H 0.34922 0.90719 0.13814 0.0
H637 H 0.35458 0.89706 0.04789 0.0
H638 H 0.42984 0.89408 0.08121 0.0
H639 H 0.42434 0.9034 0.17147 0.0
H640 H 0.13105 0.61307 0.77409 0.0
H641 H 0.18975 0.66183 0.79953 0.0
H642 H 0.19692 0.66258 0.70545 0.0
H643 H 0.15732 0.57927 0.67486 0.0
H644 H 0.12994 0.57591 0.63708 0.0
H645 H 0.12986 0.57859 0.70681 0.0
H646 H 0.10141 0.61474 0.69257 0.0
H647 H 0.10148 0.61224 0.62281 0.0
H648 H 0.10948 0.64021 0.65117 0.0
H649 H 0.19693 0.65926 0.60764 0.0
H650 H 0.1904 0.65123 0.51419 0.0
H651 H 0.13197 0.60428 0.5518 0.0
C652 C 0.14542 0.62392 0.75994 0.0
C653 C 0.15991 0.63729 0.79465 0.0
C654 C 0.17864 0.65108 0.77423 0.0
C655 C 0.18276 0.65177 0.72065 0.0
C656 C 0.16807 0.63854 0.6876 0.0
C657 C 0.14984 0.62477 0.70646 0.0
C658 C 0.13659 0.61232 0.66245 0.0
C659 C 0.13855 0.5849 0.67081 0.0
C660 C 0.11071 0.62037 0.65694 0.0
C661 C 0.15004 0.62146 0.61587 0.0
C662 C 0.16815 0.63653 0.63127 0.0
C663 C 0.18289 0.64734 0.59522 0.0
C664 C 0.17911 0.64254 0.54212 0.0
C665 C 0.16072 0.62703 0.52519 0.0
C666 C 0.14603 0.61643 0.56299 0.0
H667 H 0.65351 0.86995 1.00758 0.0
H668 H 0.60398 0.92844 1.01546 0.0
H669 H 0.59977 0.93177 0.91906 0.0
H670 H 0.68295 0.89444 0.89744 0.0
H671 H 0.68687 0.86594 0.86913 0.0
H672 H 0.68523 0.86735 0.93887 0.0
H673 H 0.65074 0.83686 0.93747 0.0
H674 H 0.65238 0.83524 0.86777 0.0
H675 H 0.62499 0.84299 0.89474 0.0
H676 H 0.60228 0.92997 0.82124 0.0
H677 H 0.61031 0.92215 0.72996 0.0
H678 H 0.65779 0.86454 0.78588 0.0
C679 C 0.64175 0.88345 0.9891 0.0
C680 C 0.62898 0.89884 1.01938 0.0
C681 C 0.61364 0.91613 0.99338 0.0
C682 C 0.61126 0.9183 0.93853 0.0
C683 C 0.62429 0.90303 0.90997 0.0
C684 C 0.63912 0.88584 0.93435 0.0
C685 C 0.65132 0.87182 0.89457 0.0
C686 C 0.67818 0.8751 0.90036 0.0
C687 C 0.64444 0.84515 0.8989 0.0
C688 C 0.64117 0.88395 0.84405 0.0
C689 C 0.62562 0.90191 0.85375 0.0
C690 C 0.61429 0.91581 0.8132 0.0
C691 C 0.61888 0.91114 0.76139 0.0
C692 C 0.63465 0.89268 0.75039 0.0
C693 C 0.64588 0.87899 0.79264 0.0
H694 H 0.35937 0.39499 0.29873 0.0
H695 H 0.43077 0.37164 0.34253 0.0
H696 H 0.43976 0.3728 0.24932 0.0
H697 H 0.35122 0.36009 0.18768 0.0
H698 H 0.33432 0.38247 0.1489 0.0
H699 H 0.33394 0.38156 0.21916 0.0
H700 H 0.34748 0.42595 0.21947 0.0
H701 H 0.34772 0.42705 0.14913 0.0
H702 H 0.37384 0.43489 0.18762 0.0
H703 H 0.44023 0.37404 0.1506 0.0
H704 H 0.43254 0.37677 0.05469 0.0
H705 H 0.36089 0.39944 0.07551 0.0
C706 C 0.37695 0.39022 0.28882 0.0
C707 C 0.39438 0.3833 0.32822 0.0
C708 C 0.4172 0.37739 0.31333 0.0
C709 C 0.42244 0.37782 0.26038 0.0
C710 C 0.40472 0.38428 0.22261 0.0
C711 C 0.38248 0.39056 0.23618 0.0
C712 C 0.36641 0.39628 0.18803 0.0
C713 C 0.34522 0.37907 0.18583 0.0
C714 C 0.3584 0.42261 0.18595 0.0
C715 C 0.38297 0.39186 0.14522 0.0
C716 C 0.405 0.38504 0.16593 0.0
C717 C 0.42309 0.37959 0.13397 0.0
C718 C 0.41857 0.38128 0.07947 0.0
C719 C 0.39612 0.38834 0.05725 0.0
C720 C 0.37817 0.39369 0.09097 0.0
H721 H 0.899 0.10687 0.49429 0.0
H722 H 0.8375 0.14925 0.52202 0.0
H723 H 0.83111 0.15803 0.42709 0.0
H724 H 0.91969 0.1457 0.3888 0.0
H725 H 0.92965 0.12135 0.35213 0.0
H726 H 0.92928 0.11797 0.42236 0.0
H727 H 0.90335 0.07995 0.41419 0.0
H728 H 0.90359 0.08326 0.34393 0.0
H729 H 0.87598 0.08169 0.37523 0.0
H730 H 0.83126 0.16247 0.32867 0.0
H731 H 0.8385 0.16305 0.23472 0.0
H732 H 0.90016 0.11823 0.26939 0.0
C733 C 0.88429 0.11819 0.4806 0.0
C734 C 0.86867 0.1272 0.5163 0.0
C735 C 0.84951 0.14169 0.496 0.0
C736 C 0.84579 0.14694 0.44193 0.0
C737 C 0.86139 0.13767 0.40806 0.0
C738 C 0.88031 0.12366 0.42655 0.0
C739 C 0.89449 0.11606 0.38157 0.0
C740 C 0.91978 0.12586 0.38652 0.0
C741 C 0.89434 0.08861 0.37857 0.0
C742 C 0.88065 0.12807 0.33498 0.0
C743 C 0.86156 0.14035 0.35123 0.0
C744 C 0.84612 0.15283 0.31555 0.0
C745 C 0.8503 0.15288 0.26201 0.0
C746 C 0.86982 0.14056 0.24401 0.0
C747 C 0.88516 0.12799 0.28147 0.0
H748 H 0.16194 0.36468 0.28661 0.0
H749 H 0.10849 0.41617 0.22877 0.0
H750 H 0.10305 0.42738 0.31932 0.0
H751 H 0.13379 0.34481 0.40426 0.0
H752 H 0.161 0.34199 0.44355 0.0
H753 H 0.16072 0.33799 0.37422 0.0
H754 H 0.19265 0.3709 0.36457 0.0
H755 H 0.19307 0.37496 0.43387 0.0
H756 H 0.18759 0.40021 0.38815 0.0
H757 H 0.1032 0.43281 0.41674 0.0
H758 H 0.10959 0.43284 0.51271 0.0
H759 H 0.16324 0.37805 0.50764 0.0
C760 C 0.14892 0.37816 0.29293 0.0
C761 C 0.13561 0.3895 0.25021 0.0
C762 C 0.11909 0.40738 0.26049 0.0
C763 C 0.11577 0.41377 0.31193 0.0
C764 C 0.12912 0.4022 0.35298 0.0
C765 C 0.14543 0.38482 0.34405 0.0
C766 C 0.15778 0.3754 0.39504 0.0
C767 C 0.15303 0.34845 0.40483 0.0
C768 C 0.18435 0.38069 0.39541 0.0
C769 C 0.14583 0.39012 0.4341 0.0
C770 C 0.12933 0.40545 0.40899 0.0
C771 C 0.11614 0.42093 0.43671 0.0
C772 C 0.12001 0.42091 0.49134 0.0
C773 C 0.13701 0.40555 0.51816 0.0
C774 C 0.14993 0.38985 0.48875 0.0
H775 H 0.86413 0.86515 0.79831 0.0
H776 H 0.91795 0.9165 0.84413 0.0
H777 H 0.92669 0.92405 0.75123 0.0
H778 H 0.89412 0.84092 0.69241 0.0
H779 H 0.86751 0.83798 0.65165 0.0
H780 H 0.86634 0.83591 0.72183 0.0
H781 H 0.83541 0.87004 0.71673 0.0
H782 H 0.83644 0.87217 0.64658 0.0
H783 H 0.84204 0.89836 0.68366 0.0
H784 H 0.92844 0.92694 0.65223 0.0
H785 H 0.92242 0.92563 0.55616 0.0
H786 H 0.86734 0.87243 0.57621 0.0
C787 C 0.87767 0.87812 0.78896 0.0
C788 C 0.89032 0.89026 0.82871 0.0
C789 C 0.90819 0.90676 0.81455 0.0
C790 C 0.91321 0.91124 0.76184 0.0
C791 C 0.90028 0.89902 0.72372 0.0
C792 C 0.88287 0.88281 0.73672 0.0
C793 C 0.87107 0.87245 0.68848 0.0
C794 C 0.87501 0.8452 0.68862 0.0
C795 C 0.84468 0.87864 0.68359 0.0
C796 C 0.88435 0.88557 0.64613 0.0
C797 C 0.90124 0.90071 0.66714 0.0
C798 C 0.91536 0.91502 0.63541 0.0
C799 C 0.91192 0.91403 0.58085 0.0
C800 C 0.89443 0.89891 0.55847 0.0
C801 C 0.88072 0.88434 0.59191 0.0
H802 H 0.36379 0.61357 0.76126 0.0
H803 H 0.43229 0.64633 0.74131 0.0
H804 H 0.43986 0.64482 0.83707 0.0
H805 H 0.34999 0.64493 0.87395 0.0
H806 H 0.33558 0.61974 0.90552 0.0
H807 H 0.33582 0.62239 0.83522 0.0
H808 H 0.35458 0.58021 0.83461 0.0
H809 H 0.35428 0.57738 0.90491 0.0
H810 H 0.38148 0.57383 0.87325 0.0
H811 H 0.43944 0.64134 0.93556 0.0
H812 H 0.43157 0.63497 0.0289 0.0
H813 H 0.3635 0.60407 0.98565 0.0
C814 C 0.3804 0.62044 0.77694 0.0
C815 C 0.39749 0.62996 0.74327 0.0
C816 C 0.41906 0.63854 0.76582 0.0
C817 C 0.42346 0.63794 0.82035 0.0
C818 C 0.40619 0.62866 0.85224 0.0
C819 C 0.38513 0.61993 0.8314 0.0
C820 C 0.36945 0.61107 0.87448 0.0
C821 C 0.34634 0.62539 0.87214 0.0
C822 C 0.36467 0.58401 0.87163 0.0
C823 C 0.38488 0.6164 0.92277 0.0
C824 C 0.406 0.62652 0.90902 0.0
C825 C 0.42302 0.63323 0.94674 0.0
C826 C 0.41842 0.6294 0.99983 0.0
C827 C 0.39695 0.61887 1.01517 0.0
C828 C 0.38 0.61238 0.97567 0.0
H829 H 0.66475 0.13842 0.04661 0.0
H830 H 0.61078 0.08386 0.02744 0.0
H831 H 0.60485 0.08306 0.122 0.0
H832 H 0.68983 0.11466 0.17131 0.0
H833 H 0.69522 0.14369 0.19733 0.0
H834 H 0.69525 0.14028 0.12782 0.0
H835 H 0.66346 0.17331 0.11212 0.0
H836 H 0.66338 0.17688 0.18157 0.0
H837 H 0.63632 0.17036 0.14505 0.0
H838 H 0.60507 0.08747 0.21929 0.0
H839 H 0.61062 0.09763 0.31155 0.0
H840 H 0.66394 0.14994 0.26913 0.0
C841 C 0.65174 0.12624 0.06228 0.0
C842 C 0.63812 0.11132 0.02898 0.0
C843 C 0.62116 0.09581 0.05148 0.0
C844 C 0.61777 0.09507 0.10542 0.0
C845 C 0.63142 0.10998 0.13696 0.0
C846 C 0.64802 0.12535 0.11628 0.0
C847 C 0.66016 0.13964 0.15904 0.0
C848 C 0.68669 0.13424 0.16417 0.0
C849 C 0.65555 0.16665 0.14883 0.0
C850 C 0.64785 0.12983 0.20688 0.0
C851 C 0.63138 0.1127 0.19316 0.0
C852 C 0.61782 0.10099 0.23038 0.0
C853 C 0.62102 0.10704 0.28286 0.0
C854 C 0.63759 0.12477 0.29823 0.0
C855 C 0.65125 0.13616 0.25927 0.0
H856 H 0.9006 0.40056 0.24532 0.0
H857 H 0.83564 0.36096 0.21733 0.0
H858 H 0.82807 0.36158 0.31103 0.0
H859 H 0.91752 0.37085 0.36902 0.0
H860 H 0.9293 0.39745 0.39784 0.0
H861 H 0.92935 0.39472 0.32814 0.0
H862 H 0.90643 0.43468 0.31294 0.0
H863 H 0.90641 0.4376 0.38261 0.0
H864 H 0.87901 0.43823 0.34372 0.0
H865 H 0.82808 0.36521 0.40879 0.0
H866 H 0.83514 0.37258 0.5024 0.0
H867 H 0.89988 0.4102 0.46775 0.0
C868 C 0.88478 0.39199 0.25881 0.0
C869 C 0.86866 0.38082 0.2234 0.0
C870 C 0.84809 0.37003 0.24306 0.0
C871 C 0.8437 0.37012 0.29647 0.0
C872 C 0.85998 0.38111 0.33019 0.0
C873 C 0.88006 0.39197 0.31214 0.0
C874 C 0.89474 0.40247 0.35679 0.0
C875 C 0.91918 0.39066 0.36332 0.0
C876 C 0.89676 0.42987 0.34851 0.0
C877 C 0.87992 0.3956 0.4028 0.0
C878 C 0.85992 0.38331 0.38653 0.0
C879 C 0.84361 0.37497 0.42187 0.0
C880 C 0.84773 0.37938 0.4751 0.0
C881 C 0.86802 0.3921 0.49298 0.0
C882 C 0.88431 0.40021 0.45589 0.0
H883 H 0.39969 0.14764 0.26986 0.0
H884 H 0.35598 0.0873 0.31777 0.0
H885 H 0.35126 0.07593 0.22623 0.0
H886 H 0.36816 0.16249 0.1469 0.0
H887 H 0.39417 0.1698 0.11222 0.0
H888 H 0.39407 0.17356 0.1816 0.0
H889 H 0.43076 0.14629 0.19673 0.0
H890 H 0.43102 0.1425 0.12738 0.0
H891 H 0.43 0.11658 0.17218 0.0
H892 H 0.35097 0.07093 0.12899 0.0
H893 H 0.3561 0.07195 0.03411 0.0
H894 H 0.40064 0.13495 0.04753 0.0
C895 C 0.38929 0.13189 0.26137 0.0
C896 C 0.37804 0.11857 0.30177 0.0
C897 C 0.36441 0.09823 0.28806 0.0
C898 C 0.36174 0.09148 0.23596 0.0
C899 C 0.37287 0.10508 0.19733 0.0
C900 C 0.38648 0.1248 0.20934 0.0
C901 C 0.39666 0.1362 0.1602 0.0
C902 C 0.38773 0.16205 0.14962 0.0
C903 C 0.42372 0.13533 0.16439 0.0
C904 C 0.38666 0.1198 0.11878 0.0
C905 C 0.37291 0.10203 0.14117 0.0
C906 C 0.36166 0.08482 0.11109 0.0
C907 C 0.36454 0.08569 0.0569 0.0
C908 C 0.37862 0.10363 0.03259 0.0
C909 C 0.38985 0.12089 0.06448 0.0
H910 H 0.66182 0.63521 0.97966 0.0
H911 H 0.62152 0.57101 1.01735 0.0
H912 H 0.61953 0.56136 0.92436 0.0
H913 H 0.63065 0.65127 0.85847 0.0
H914 H 0.65636 0.66161 0.82582 0.0
H915 H 0.65547 0.66314 0.8957 0.0
H916 H 0.69394 0.63832 0.90877 0.0
H917 H 0.69507 0.63692 0.83891 0.0
H918 H 0.69554 0.60966 0.87982 0.0
H919 H 0.62032 0.5596 0.82722 0.0
H920 H 0.62605 0.56443 0.73258 0.0
H921 H 0.66641 0.62943 0.75786 0.0
C922 C 0.65265 0.61908 0.96832 0.0
C923 C 0.64191 0.60379 1.00576 0.0
C924 C 0.6302 0.58277 0.98948 0.0
C925 C 0.62881 0.57724 0.9367 0.0
C926 C 0.6393 0.59286 0.90074 0.0
C927 C 0.65119 0.61322 0.91582 0.0
C928 C 0.66093 0.62696 0.86923 0.0
C929 C 0.6502 0.65224 0.86189 0.0
C930 C 0.68798 0.62802 0.87451 0.0
C931 C 0.65245 0.61124 0.82556 0.0
C932 C 0.63997 0.5917 0.84462 0.0
C933 C 0.63024 0.57472 0.81185 0.0
C934 C 0.63367 0.57757 0.75819 0.0
C935 C 0.64681 0.59721 0.73779 0.0
C936 C 0.6561 0.61435 0.77209 0.0
H937 H 0.15819 0.89661 0.55536 0.0
H938 H 0.08615 0.91822 0.51293 0.0
H939 H 0.07748 0.9167 0.60634 0.0
H940 H 0.14486 0.85571 0.66375 0.0
H941 H 0.1707 0.86357 0.70316 0.0
H942 H 0.17108 0.8659 0.63286 0.0
H943 H 0.18345 0.91053 0.63662 0.0
H944 H 0.18301 0.90837 0.70692 0.0
H945 H 0.16561 0.9309 0.6698 0.0
H946 H 0.07683 0.91368 0.70504 0.0
H947 H 0.08405 0.90841 0.80087 0.0
H948 H 0.15647 0.88873 0.77913 0.0
C949 C 0.1406 0.90111 0.56563 0.0
C950 C 0.12284 0.90747 0.52646 0.0
C951 C 0.09999 0.91293 0.54189 0.0
C952 C 0.09492 0.91229 0.59498 0.0
C953 C 0.11286 0.90612 0.63246 0.0
C954 C 0.13522 0.90053 0.61847 0.0
C955 C 0.15132 0.89442 0.66645 0.0
C956 C 0.15999 0.86835 0.66655 0.0
C957 C 0.17207 0.91212 0.67015 0.0
C958 C 0.13459 0.89763 0.70962 0.0
C959 C 0.11248 0.90436 0.68919 0.0
C960 C 0.09407 0.90832 0.72142 0.0
C961 C 0.09832 0.90517 0.77588 0.0
C962 C 0.12082 0.89814 0.79785 0.0
C963 C 0.13915 0.89443 0.76389 0.0
H964 H 0.87475 0.64991 0.76014 0.0
H965 H 0.90953 0.58503 0.825 0.0
H966 H 0.91403 0.57189 0.73576 0.0
H967 H 0.84186 0.62183 0.65549 0.0
H968 H 0.84463 0.64696 0.60916 0.0
H969 H 0.84486 0.65179 0.67814 0.0
H970 H 0.88494 0.6737 0.67296 0.0
H971 H 0.88485 0.66893 0.60397 0.0
H972 H 0.90938 0.65873 0.6468 0.0
H973 H 0.91417 0.56523 0.63864 0.0
H974 H 0.90957 0.5654 0.54245 0.0
H975 H 0.87415 0.63425 0.53957 0.0
C976 C 0.88319 0.63284 0.75587 0.0
C977 C 0.89189 0.61866 0.80044 0.0
C978 C 0.90308 0.59659 0.79215 0.0
C979 C 0.90558 0.58883 0.74135 0.0
C980 C 0.89677 0.60321 0.69861 0.0
C981 C 0.88576 0.62475 0.70532 0.0
C982 C 0.87756 0.63666 0.65272 0.0
C983 C 0.85063 0.63947 0.64865 0.0
C984 C 0.88992 0.66094 0.64359 0.0
C985 C 0.88558 0.61842 0.61537 0.0
C986 C 0.89671 0.5993 0.64272 0.0
C987 C 0.90559 0.58019 0.61692 0.0
C988 C 0.90303 0.58056 0.56197 0.0
C989 C 0.89163 0.59989 0.53266 0.0
C990 C 0.88281 0.61906 0.5603 0.0
H991 H 0.12592 0.12522 0.46924 0.0
H992 H 0.19507 0.15091 0.52082 0.0
H993 H 0.207 0.15222 0.42945 0.0
H994 H 0.1449 0.0875 0.3727 0.0
H995 H 0.12026 0.09412 0.32702 0.0
H996 H 0.11696 0.09596 0.39613 0.0
H997 H 0.10266 0.13991 0.38083 0.0
H998 H 0.10593 0.1382 0.3116 0.0
H999 H 0.12079 0.16148 0.34689 0.0
H1000 H 0.21163 0.1499 0.33256 0.0
H1001 H 0.20894 0.14348 0.23787 0.0
H1002 H 0.13665 0.11946 0.2494 0.0
C1003 C 0.14347 0.13151 0.46135 0.0
C1004 C 0.15952 0.13806 0.50241 0.0
C1005 C 0.1825 0.14561 0.49026 0.0
C1006 C 0.18939 0.14657 0.43839 0.0
C1007 C 0.17311 0.13996 0.399 0.0
C1008 C 0.15062 0.13259 0.40986 0.0
C1009 C 0.13669 0.12582 0.3606 0.0
C1010 C 0.12928 0.09928 0.36436 0.0
C1011 C 0.11525 0.14234 0.34932 0.0
C1012 C 0.15493 0.13032 0.3203 0.0
C1013 C 0.17579 0.13857 0.34325 0.0
C1014 C 0.19538 0.14348 0.3142 0.0
C1015 C 0.1937 0.13966 0.26045 0.0
C1016 C 0.17261 0.1309 0.23608 0.0
C1017 C 0.15292 0.12645 0.2666 0.0
H1018 H 0.62425 0.40308 0.28243 0.0
H1019 H 0.69097 0.36785 0.32497 0.0
H1020 H 0.69954 0.3677 0.23163 0.0
H1021 H 0.61006 0.37042 0.16923 0.0
H1022 H 0.59693 0.3956 0.13167 0.0
H1023 H 0.5966 0.39422 0.20197 0.0
H1024 H 0.61713 0.43571 0.20461 0.0
H1025 H 0.61739 0.43728 0.13427 0.0
H1026 H 0.6445 0.44035 0.17323 0.0
H1027 H 0.70007 0.36977 0.13273 0.0
H1028 H 0.6929 0.37488 0.03684 0.0
H1029 H 0.6258 0.40861 0.05894 0.0
C1030 C 0.64069 0.39534 0.27224 0.0
C1031 C 0.65695 0.38555 0.31141 0.0
C1032 C 0.67836 0.37583 0.29605 0.0
C1033 C 0.68333 0.3755 0.24299 0.0
C1034 C 0.66676 0.38498 0.20549 0.0
C1035 C 0.64593 0.39485 0.21947 0.0
C1036 C 0.63091 0.40353 0.17154 0.0
C1037 C 0.60723 0.39014 0.16843 0.0
C1038 C 0.62728 0.43084 0.17088 0.0
C1039 C 0.6464 0.39673 0.12837 0.0
C1040 C 0.66705 0.38613 0.14874 0.0
C1041 C 0.68401 0.37819 0.1164 0.0
C1042 C 0.67982 0.38126 0.06191 0.0
C1043 C 0.65879 0.39214 0.04003 0.0
C1044 C 0.64193 0.39993 0.07411 0.0
H1045 H 0.3684 0.91288 0.96631 0.0
H1046 H 0.4248 0.86391 1.02028 0.0
H1047 H 0.43153 0.85543 0.92893 0.0
H1048 H 0.34532 0.87717 0.86123 0.0
H1049 H 0.33822 0.90273 0.81742 0.0
H1050 H 0.33809 0.90548 0.88712 0.0
H1051 H 0.36762 0.94081 0.88053 0.0
H1052 H 0.36792 0.93811 0.81084 0.0
H1053 H 0.39511 0.93663 0.85044 0.0
H1054 H 0.4323 0.85205 0.83166 0.0
H1055 H 0.42607 0.85284 0.7357 0.0
H1056 H 0.36869 0.90336 0.74352 0.0
C1057 C 0.38204 0.90019 0.95911 0.0
C1058 C 0.39618 0.88924 1.00105 0.0
C1059 C 0.414 0.87296 0.98926 0.0
C1060 C 0.41789 0.86789 0.93734 0.0
C1061 C 0.40378 0.8791 0.89717 0.0
C1062 C 0.38613 0.89483 0.90736 0.0
C1063 C 0.37331 0.90422 0.85683 0.0
C1064 C 0.34719 0.89696 0.85559 0.0
C1065 C 0.37617 0.93157 0.84923 0.0
C1066 C 0.38646 0.89123 0.81671 0.0
C1067 C 0.40406 0.87695 0.84092 0.0
C1068 C 0.41862 0.86324 0.8123 0.0
C1069 C 0.41505 0.86397 0.7576 0.0
C1070 C 0.397 0.87829 0.73159 0.0
C1071 C 0.38257 0.89212 0.76195 0.0
H1072 H 0.11846 0.71038 0.14455 0.0
H1073 H 0.16136 0.68988 0.28466 0.0
H1074 H 0.16324 0.73259 0.30778 0.0
H1075 H 0.14855 0.76292 0.11124 0.0
H1076 H 0.12259 0.77925 0.08708 0.0
H1077 H 0.12318 0.7471 0.08524 0.0
H1078 H 0.08563 0.74408 0.13818 0.0
H1079 H 0.0849 0.77628 0.14012 0.0
H1080 H 0.08528 0.75793 0.20013 0.0
H1081 H 0.16274 0.77959 0.31017 0.0
H1082 H 0.15953 0.82374 0.29159 0.0
H1083 H 0.11631 0.81108 0.15097 0.0
C1084 C 0.12804 0.7147 0.18055 0.0
C1085 C 0.13977 0.6967 0.21277 0.0
C1086 C 0.15208 0.70331 0.25948 0.0
C1087 C 0.15328 0.72756 0.27284 0.0
C1088 C 0.14183 0.74495 0.2394 0.0
C1089 C 0.12926 0.73859 0.19445 0.0
C1090 C 0.11923 0.76031 0.16346 0.0
C1091 C 0.12898 0.76252 0.10854 0.0
C1092 C 0.09216 0.7596 0.16032 0.0
C1093 C 0.12845 0.78009 0.19712 0.0
C1094 C 0.14136 0.77115 0.24103 0.0
C1095 C 0.15241 0.78663 0.27612 0.0
C1096 C 0.15045 0.81171 0.26543 0.0
C1097 C 0.13767 0.821 0.21987 0.0
C1098 C 0.12625 0.80476 0.18622 0.0
H1099 H 0.56468 0.92507 0.37307 0.0
H1100 H 0.58016 0.85139 0.42434 0.0
H1101 H 0.53731 0.84355 0.43133 0.0
H1102 H 0.5149 0.93341 0.45526 0.0
H1103 H 0.49908 0.95178 0.40523 0.0
H1104 H 0.5308 0.95151 0.40869 0.0
H1105 H 0.53042 0.93966 0.31224 0.0
H1106 H 0.49875 0.93982 0.30854 0.0
H1107 H 0.51438 0.91333 0.29294 0.0
H1108 H 0.49086 0.84373 0.42569 0.0
H1109 H 0.44804 0.85208 0.40915 0.0
H1110 H 0.46448 0.92571 0.36264 0.0
C1111 C 0.55915 0.90733 0.38662 0.0
C1112 C 0.57592 0.88887 0.39836 0.0
C1113 C 0.56777 0.8659 0.41553 0.0
C1114 C 0.54339 0.8613 0.41944 0.0
C1115 C 0.52727 0.87988 0.40642 0.0
C1116 C 0.53503 0.90251 0.39077 0.0
C1117 C 0.51451 0.91934 0.37689 0.0
C1118 C 0.51485 0.94024 0.41372 0.0
C1119 C 0.51452 0.92857 0.31924 0.0
C1120 C 0.49383 0.90271 0.38622 0.0
C1121 C 0.50133 0.87999 0.40349 0.0
C1122 C 0.48499 0.86157 0.41263 0.0
C1123 C 0.46063 0.86645 0.40327 0.0
C1124 C 0.45273 0.88957 0.38476 0.0
C1125 C 0.46976 0.90785 0.37704 0.0
H1126 H 0.4129 0.30332 0.68677 0.0
H1127 H 0.36641 0.31138 0.81289 0.0
H1128 H 0.36649 0.26709 0.83024 0.0
H1129 H 0.38513 0.25567 0.63499 0.0
H1130 H 0.41124 0.24091 0.61613 0.0
H1131 H 0.41119 0.27286 0.62134 0.0
H1132 H 0.44748 0.26983 0.68712 0.0
H1133 H 0.44785 0.23777 0.68167 0.0
H1134 H 0.4465 0.25016 0.745 0.0
H1135 H 0.36741 0.22075 0.82354 0.0
H1136 H 0.36934 0.179 0.79442 0.0
H1137 H 0.41462 0.20334 0.67179 0.0
C1138 C 0.40328 0.29586 0.71915 0.0
C1139 C 0.38974 0.31071 0.7487 0.0
C1140 C 0.37721 0.30029 0.79036 0.0
C1141 C 0.37709 0.27516 0.80023 0.0
C1142 C 0.38987 0.26089 0.76853 0.0
C1143 C 0.403 0.27108 0.72929 0.0
C1144 C 0.41337 0.25233 0.69694 0.0
C1145 C 0.4047 0.25565 0.63897 0.0
C1146 C 0.4404 0.25254 0.70308 0.0
C1147 C 0.40333 0.22988 0.7225 0.0
C1148 C 0.39012 0.23489 0.7643 0.0
C1149 C 0.37803 0.21671 0.79138 0.0
C1150 C 0.37922 0.19304 0.77468 0.0
C1151 C 0.39208 0.18796 0.73079 0.0
C1152 C 0.40461 0.20662 0.70544 0.0
H1153 H 0.96487 0.10562 0.8317 0.0
H1154 H 0.94918 0.14614 0.96507 0.0
H1155 H 0.99214 0.15193 0.98491 0.0
H1156 H 0.01651 0.07577 0.8856 0.0
H1157 H 0.03158 0.07832 0.82552 0.0
H1158 H 0.99991 0.07714 0.82354 0.0
H1159 H 0.9977 0.11723 0.76776 0.0
H1160 H 0.02936 0.11843 0.7692 0.0
H1161 H 1.01303 0.1432 0.7914 0.0
H1162 H 0.03851 0.15066 0.99178 0.0
H1163 H 0.08138 0.14737 0.97791 0.0
H1164 H 0.06487 0.11078 0.83552 0.0
C1165 C 0.97041 0.11573 0.8652 0.0
C1166 C 0.95363 0.12521 0.89726 0.0
C1167 C 0.96169 0.13867 0.94008 0.0
C1168 C 0.98608 0.14193 0.95168 0.0
C1169 C 1.0022 0.13203 0.91944 0.0
C1170 C 0.99448 0.1196 0.87643 0.0
C1171 C 0.0149 0.1116 0.84607 0.0
C1172 C 0.01577 0.08408 0.84516 0.0
C1173 C 1.01367 0.12332 0.79032 0.0
C1174 C 0.0355 0.12118 0.87873 0.0
C1175 C 0.02804 0.13262 0.92145 0.0
C1176 C 0.04436 0.14198 0.95801 0.0
C1177 C 0.06869 0.13994 0.95007 0.0
C1178 C 0.07646 0.12909 0.90535 0.0
C1179 C 0.0595 0.11952 0.86969 0.0
H1180 H 0.12293 0.30197 0.91454 0.0
H1181 H 0.15068 0.31965 0.76303 0.0
H1182 H 0.15251 0.27611 0.74706 0.0
H1183 H 0.16089 0.2553 0.94808 0.0
H1184 H 0.1399 0.23757 0.98358 0.0
H1185 H 0.1371 0.26966 0.97801 0.0
H1186 H 0.09449 0.26555 0.93795 0.0
H1187 H 0.09714 0.23335 0.94348 0.0
H1188 H 0.08912 0.24825 0.88101 0.0
H1189 H 0.15422 0.22886 0.75289 0.0
H1190 H 0.1582 0.18568 0.78218 0.0
H1191 H 0.13203 0.20159 0.93187 0.0
C1192 C 0.12897 0.29694 0.8773 0.0
C1193 C 0.13651 0.31444 0.83988 0.0
C1194 C 0.14449 0.3067 0.7921 0.0
C1195 C 0.14563 0.28195 0.78281 0.0
C1196 C 0.13872 0.26518 0.82163 0.0
C1197 C 0.13053 0.27261 0.86793 0.0
C1198 C 0.12642 0.25169 0.90621 0.0
C1199 C 0.14201 0.25368 0.95692 0.0
C1200 C 0.10024 0.24959 0.91782 0.0
C1201 C 0.13402 0.23114 0.87504 0.0
C1202 C 0.14061 0.23895 0.82584 0.0
C1203 C 0.14891 0.22272 0.79122 0.0
C1204 C 0.15101 0.19822 0.80795 0.0
C1205 C 0.14534 0.19041 0.85916 0.0
C1206 C 0.13639 0.20708 0.89239 0.0
H1207 H 0.06207 0.87115 0.24448 0.0
H1208 H 0.06977 0.89786 0.0846 0.0
H1209 H 0.02608 0.89718 0.06928 0.0
H1210 H 1.01132 0.83255 0.22208 0.0
H1211 H 0.99868 0.84012 0.28204 0.0
H1212 H 0.03017 0.84057 0.27735 0.0
H1213 H 0.03154 0.88471 0.30427 0.0
H1214 H 1.00014 0.88435 0.30931 0.0
H1215 H 1.01353 0.90685 0.26749 0.0
H1216 H 0.97936 0.8945 0.07496 0.0
H1217 H 0.93797 0.89374 0.10268 0.0
H1218 H 0.96321 0.87122 0.25985 0.0
C1219 C 0.05475 0.8766 0.20581 0.0
C1220 C 0.06958 0.88441 0.16561 0.0
C1221 C 0.05893 0.89163 0.11598 0.0
C1222 C 0.03406 0.89127 0.10703 0.0
C1223 C 0.01997 0.88375 0.14813 0.0
C1224 C 0.03021 0.87668 0.19663 0.0
C1225 C 1.01182 0.87101 0.23604 0.0
C1226 C 1.01308 0.84449 0.25551 0.0
C1227 C 0.01441 0.88772 0.28196 0.0
C1228 C 0.98942 0.87617 0.20278 0.0
C1229 C 0.99416 0.88312 0.15183 0.0
C1230 C 0.9757 0.889 0.1148 0.0
C1231 C 0.95216 0.88835 0.13068 0.0
C1232 C 0.94729 0.88226 0.18337 0.0
C1233 C 0.96628 0.8758 0.2192 0.0
H1234 H 0.36048 0.70494 0.36744 0.0
H1235 H 0.40714 0.69059 0.245 0.0
H1236 H 0.40879 0.73444 0.22093 0.0
H1237 H 0.32892 0.75706 0.30076 0.0
H1238 H 0.32767 0.77166 0.36165 0.0
H1239 H 0.3272 0.73938 0.36131 0.0
H1240 H 0.36321 0.73742 0.42805 0.0
H1241 H 0.36396 0.76957 0.42823 0.0
H1242 H 0.38976 0.75337 0.41248 0.0
H1243 H 0.40877 0.78154 0.2197 0.0
H1244 H 0.40743 0.82447 0.24184 0.0
H1245 H 0.36171 0.80531 0.36703 0.0
C1246 C 0.3706 0.71093 0.3346 0.0
C1247 C 0.38367 0.69451 0.30798 0.0
C1248 C 0.39678 0.70295 0.26543 0.0
C1249 C 0.39784 0.72781 0.25174 0.0
C1250 C 0.38541 0.74371 0.28062 0.0
C1251 C 0.37181 0.73533 0.3208 0.0
C1252 C 0.36183 0.75548 0.3497 0.0
C1253 C 0.3348 0.75592 0.34292 0.0
C1254 C 0.37021 0.75385 0.40802 0.0
C1255 C 0.37255 0.77673 0.32107 0.0
C1256 C 0.38578 0.76992 0.28064 0.0
C1257 C 0.39821 0.78693 0.25089 0.0
C1258 C 0.39735 0.81125 0.26359 0.0
C1259 C 0.38457 0.81808 0.30629 0.0
C1260 C 0.37171 0.80059 0.3343 0.0
H1261 H 0.56888 0.08587 0.66183 0.0
H1262 H 0.5824 0.1616 0.63138 0.0
H1263 H 0.53926 0.16906 0.62134 0.0
H1264 H 0.5164 0.08135 0.5722 0.0
H1265 H 0.50229 0.06033 0.61623 0.0
H1266 H 0.53394 0.06117 0.61543 0.0
H1267 H 0.53675 0.06762 0.71497 0.0
H1268 H 0.50517 0.06688 0.71606 0.0
H1269 H 0.52127 0.09237 0.73976 0.0
H1270 H 0.49322 0.16797 0.62262 0.0
H1271 H 0.45102 0.15844 0.63471 0.0
H1272 H 0.4691 0.08345 0.66397 0.0
C1273 C 0.56283 0.104 0.65205 0.0
C1274 C 0.57909 0.12314 0.64716 0.0
C1275 C 0.57034 0.14661 0.63483 0.0
C1276 C 0.54582 0.15099 0.62922 0.0
C1277 C 0.53023 0.13168 0.63561 0.0
C1278 C 0.53857 0.10861 0.64633 0.0
C1279 C 0.5186 0.09098 0.65422 0.0
C1280 C 0.51776 0.07236 0.612 0.0
C1281 C 0.52057 0.07876 0.70953 0.0
C1282 C 0.49759 0.10765 0.64745 0.0
C1283 C 0.50444 0.13108 0.63632 0.0
C1284 C 0.4878 0.14961 0.63078 0.0
C1285 C 0.46382 0.14406 0.63756 0.0
C1286 C 0.45668 0.12019 0.65009 0.0
C1287 C 0.47389 0.10187 0.65411 0.0
H1288 H 0.91868 0.20859 0.86387 0.0
H1289 H 0.86308 0.19297 0.74822 0.0
H1290 H 0.86004 0.23647 0.72238 0.0
H1291 H 0.89275 0.25677 0.91005 0.0
H1292 H 0.91937 0.27368 0.92236 0.0
H1293 H 0.92051 0.24154 0.92296 0.0
H1294 H 0.9515 0.24387 0.8524 0.0
H1295 H 0.95067 0.27616 0.85195 0.0
H1296 H 0.94523 0.26114 0.79187 0.0
H1297 H 0.85949 0.28302 0.71979 0.0
H1298 H 0.86126 0.32597 0.74111 0.0
H1299 H 0.9163 0.3092 0.86085 0.0
C1300 C 0.90633 0.21418 0.83191 0.0
C1301 C 0.8912 0.19745 0.80781 0.0
C1302 C 0.87511 0.20549 0.76658 0.0
C1303 C 0.87323 0.23018 0.75189 0.0
C1304 C 0.88777 0.24639 0.77844 0.0
C1305 C 0.90422 0.2385 0.81721 0.0
C1306 C 0.91601 0.25912 0.84434 0.0
C1307 C 0.91189 0.25768 0.90337 0.0
C1308 C 0.94242 0.26013 0.83453 0.0
C1309 C 0.90302 0.27999 0.81649 0.0
C1310 C 0.88711 0.27256 0.77781 0.0
C1311 C 0.87218 0.28895 0.74942 0.0
C1312 C 0.87331 0.31331 0.76167 0.0
C1313 C 0.88891 0.32085 0.80261 0.0
C1314 C 0.90421 0.30397 0.82928 0.0
H1315 H 0.62665 0.80145 0.42698 0.0
H1316 H 0.64657 0.81722 0.26794 0.0
H1317 H 0.64626 0.77343 0.25327 0.0
H1318 H 0.66344 0.75284 0.45361 0.0
H1319 H 0.64331 0.73645 0.4941 0.0
H1320 H 0.64214 0.76865 0.48835 0.0
H1321 H 0.59798 0.76676 0.45772 0.0
H1322 H 0.599 0.73446 0.46343 0.0
H1323 H 0.58908 0.74955 0.40236 0.0
H1324 H 0.6466 0.72609 0.26067 0.0
H1325 H 0.64925 0.68289 0.28998 0.0
H1326 H 0.63064 0.70069 0.44473 0.0
C1327 C 0.63067 0.79595 0.38858 0.0
C1328 C 0.63665 0.81294 0.34856 0.0
C1329 C 0.64175 0.80463 0.29912 0.0
C1330 C 0.64164 0.77975 0.29056 0.0
C1331 C 0.63625 0.76348 0.33173 0.0
C1332 C 0.63078 0.7715 0.37969 0.0
C1333 C 0.62727 0.751 0.41936 0.0
C1334 C 0.6451 0.75232 0.4666 0.0
C1335 C 0.60182 0.75041 0.43672 0.0
C1336 C 0.63217 0.72993 0.38702 0.0
C1337 C 0.63693 0.73719 0.33623 0.0
C1338 C 0.64266 0.72039 0.30023 0.0
C1339 C 0.64398 0.69586 0.31702 0.0
C1340 C 0.63997 0.68848 0.36948 0.0
C1341 C 0.63367 0.70579 0.40429 0.0
H1342 H 0.91329 0.70482 0.16286 0.0
H1343 H 0.8747 0.6799 0.29646 0.0
H1344 H 0.87321 0.72164 0.32517 0.0
H1345 H 0.94697 0.75333 0.22782 0.0
H1346 H 0.9447 0.77254 0.16903 0.0
H1347 H 0.94575 0.74044 0.16468 0.0
H1348 H 0.90668 0.74186 0.10746 0.0
H1349 H 0.90547 0.77384 0.11178 0.0
H1350 H 0.88109 0.7555 0.1319 0.0
H1351 H 0.87152 0.76786 0.33154 0.0
H1352 H 0.86992 0.81213 0.31432 0.0
H1353 H 0.90997 0.80498 0.177 0.0
C1354 C 0.90497 0.70797 0.19888 0.0
C1355 C 0.89413 0.68907 0.22741 0.0
C1356 C 0.88335 0.69406 0.2742 0.0
C1357 C 0.88239 0.71774 0.29073 0.0
C1358 C 0.89262 0.73613 0.26049 0.0
C1359 C 0.90398 0.7313 0.21585 0.0
C1360 C 0.91194 0.75403 0.1874 0.0
C1361 C 0.93894 0.75514 0.18725 0.0
C1362 C 0.90061 0.75644 0.13136 0.0
C1363 C 0.90252 0.77259 0.22164 0.0
C1364 C 0.8917 0.76214 0.26415 0.0
C1365 C 0.88031 0.77615 0.29883 0.0
C1366 C 0.87954 0.80128 0.28895 0.0
C1367 C 0.88982 0.81199 0.24438 0.0
C1368 C 0.90196 0.79737 0.21148 0.0
H1369 H 0.61717 0.20941 0.65657 0.0
H1370 H 0.6636 0.1899 0.79156 0.0
H1371 H 0.66404 0.23246 0.81636 0.0
H1372 H 0.64417 0.26277 0.62136 0.0
H1373 H 0.61734 0.27834 0.6003 0.0
H1374 H 0.61873 0.24626 0.59805 0.0
H1375 H 0.58267 0.24191 0.65545 0.0
H1376 H 0.5811 0.27407 0.65771 0.0
H1377 H 0.58333 0.25565 0.71764 0.0
H1378 H 0.66254 0.27955 0.81882 0.0
H1379 H 0.6585 0.3236 0.79967 0.0
H1380 H 0.61219 0.30985 0.66444 0.0
C1381 C 0.62711 0.21392 0.692 0.0
C1382 C 0.64034 0.1963 0.72217 0.0
C1383 C 0.65311 0.20304 0.76816 0.0
C1384 C 0.65352 0.22722 0.78234 0.0
C1385 C 0.64073 0.24433 0.75061 0.0
C1386 C 0.6275 0.2377 0.70675 0.0
C1387 C 0.61623 0.25915 0.67704 0.0
C1388 C 0.62463 0.26178 0.62091 0.0
C1389 C 0.58923 0.2576 0.67699 0.0
C1390 C 0.62562 0.27916 0.70989 0.0
C1391 C 0.63962 0.27053 0.75246 0.0
C1392 C 0.65128 0.28632 0.78599 0.0
C1393 C 0.64884 0.31135 0.77501 0.0
C1394 C 0.63497 0.32031 0.73068 0.0
C1395 C 0.62289 0.30378 0.69882 0.0
H1396 H 0.96598 0.42361 0.82994 0.0
H1397 H 0.94902 0.35986 0.92416 0.0
H1398 H 0.99188 0.35173 0.94142 0.0
H1399 H 1.01343 0.39795 0.76833 0.0
H1400 H 0.03031 0.42535 0.76585 0.0
H1401 H 0.9987 0.42655 0.76542 0.0
H1402 H 1.0016 0.45257 0.84639 0.0
H1403 H 0.03326 0.45134 0.84722 0.0
H1404 H 0.01821 0.44171 0.90473 0.0
H1405 H 0.03888 0.35121 0.94684 0.0
H1406 H 0.08173 0.3563 0.9326 0.0
H1407 H 0.0657 0.41888 0.83022 0.0
C1408 C 0.97114 0.40801 0.85475 0.0
C1409 C 0.95392 0.39251 0.87612 0.0
C1410 C 0.96174 0.37213 0.90758 0.0
C1411 C 0.98613 0.36741 0.91761 0.0
C1412 C 1.00264 0.3831 0.8955 0.0
C1413 C 0.99521 0.40289 0.86427 0.0
C1414 C 0.0159 0.41637 0.84202 0.0
C1415 C 0.0145 0.41655 0.78185 0.0
C1416 C 0.01732 0.44202 0.86125 0.0
C1417 C 0.03631 0.40122 0.86522 0.0
C1418 C 0.02861 0.38224 0.89671 0.0
C1419 C 0.04486 0.36605 0.92212 0.0
C1420 C 0.06924 0.36913 0.91418 0.0
C1421 C 0.07717 0.388 0.88038 0.0
C1422 C 0.06031 0.40424 0.85634 0.0
H1423 H 0.46238 0.60825 0.3215 0.0
H1424 H 0.4461 0.6356 0.47033 0.0
H1425 H 0.48898 0.6405 0.49273 0.0
H1426 H 0.51358 0.57526 0.36402 0.0
H1427 H 0.52906 0.5828 0.30591 0.0
H1428 H 0.49738 0.58178 0.30251 0.0
H1429 H 0.49574 0.6255 0.26319 0.0
H1430 H 0.52742 0.62657 0.26601 0.0
H1431 H 0.51109 0.64881 0.29743 0.0
H1432 H 0.53532 0.6391 0.50002 0.0
H1433 H 0.57827 0.63666 0.48675 0.0
H1434 H 0.56253 0.61321 0.33016 0.0
C1435 C 0.46779 0.61544 0.35875 0.0
C1436 C 0.45088 0.62148 0.39432 0.0
C1437 C 0.45872 0.63099 0.4424 0.0
C1438 C 0.48308 0.63367 0.45547 0.0
C1439 C 0.49935 0.62716 0.41962 0.0
C1440 C 0.49183 0.61867 0.37177 0.0
C1441 C 0.51243 0.61346 0.33908 0.0
C1442 C 0.51315 0.58674 0.3272 0.0
C1443 C 0.51162 0.62955 0.28844 0.0
C1444 C 0.5329 0.62007 0.37592 0.0
C1445 C 0.52521 0.62763 0.4226 0.0
C1446 C 0.54135 0.63352 0.46324 0.0
C1447 C 0.56575 0.63198 0.45554 0.0
C1448 C 0.57382 0.62507 0.40721 0.0
C1449 C 0.557 0.61898 0.36727 0.0
H1450 H 0.45733 0.42473 0.7039 0.0
H1451 H 0.4416 0.35339 0.65253 0.0
H1452 H 0.48386 0.34763 0.63675 0.0
H1453 H 0.50234 0.4395 0.61091 0.0
H1454 H 0.52014 0.45582 0.65744 0.0
H1455 H 0.48867 0.45439 0.66212 0.0
H1456 H 0.49437 0.43734 0.75788 0.0
H1457 H 0.52582 0.43871 0.75349 0.0
H1458 H 0.5119 0.41073 0.77216 0.0
H1459 H 0.52968 0.34931 0.63155 0.0
H1460 H 0.57254 0.35853 0.63643 0.0
H1461 H 0.55737 0.42905 0.68923 0.0
C1462 C 0.46269 0.40795 0.68882 0.0
C1463 C 0.44598 0.38951 0.67945 0.0
C1464 C 0.45392 0.36784 0.65987 0.0
C1465 C 0.47798 0.36441 0.65086 0.0
C1466 C 0.49405 0.38288 0.66118 0.0
C1467 C 0.48657 0.4043 0.67942 0.0
C1468 C 0.5072 0.42125 0.68859 0.0
C1469 C 0.50442 0.44409 0.65262 0.0
C1470 C 0.50998 0.42736 0.74646 0.0
C1471 C 0.52758 0.40603 0.67341 0.0
C1472 C 0.51978 0.38393 0.65756 0.0
C1473 C 0.53579 0.36668 0.6435 0.0
C1474 C 0.56018 0.37207 0.64624 0.0
C1475 C 0.56852 0.39456 0.66287 0.0
C1476 C 0.55175 0.41173 0.67592 0.0
H1477 H 0.06479 0.58765 0.18181 0.0
H1478 H 0.07779 0.65791 0.10908 0.0
H1479 H 0.0345 0.66485 0.09819 0.0
H1480 H 1.01114 0.57304 0.10569 0.0
H1481 H 0.99806 0.55857 0.16156 0.0
H1482 H 0.02958 0.55867 0.1575 0.0
H1483 H 0.03433 0.57792 0.24739 0.0
H1484 H 1.0029 0.57782 0.25176 0.0
H1485 H 0.01913 0.60549 0.25697 0.0
H1486 H 0.98785 0.66385 0.09981 0.0
H1487 H 0.94594 0.65638 0.1201 0.0
H1488 H 0.96597 0.58796 0.19646 0.0
C1489 C 0.05867 0.60443 0.16276 0.0
C1490 C 0.07482 0.62216 0.1459 0.0
C1491 C 0.06583 0.64394 0.12192 0.0
C1492 C 0.04122 0.648 0.11562 0.0
C1493 C 0.02578 0.63016 0.13371 0.0
C1494 C 0.03441 0.60883 0.157 0.0
C1495 C 0.01483 0.59305 0.17714 0.0
C1496 C 1.01332 0.56944 0.14877 0.0
C1497 C 0.01799 0.58831 0.23683 0.0
C1498 C 0.99366 0.60877 0.16235 0.0
C1499 C 0.99999 0.62998 0.13646 0.0
C1500 C 0.9829 0.64721 0.11993 0.0
C1501 C 0.95909 0.64281 0.13124 0.0
C1502 C 0.95269 0.62156 0.15966 0.0
C1503 C 0.97028 0.60436 0.17451 0.0
H1504 H 0.16264 0.56498 0.02801 0.0
H1505 H 0.12333 0.54051 0.16108 0.0
H1506 H 0.11667 0.50151 0.12173 0.0
H1507 H 0.12879 0.53449 0.92785 0.0
H1508 H 0.15379 0.52591 0.89283 0.0
H1509 H 0.15514 0.55256 0.92973 0.0
H1510 H 0.19248 0.53653 0.98211 0.0
H1511 H 0.19141 0.50996 0.94497 0.0
H1512 H 0.19182 0.50729 1.01541 0.0
H1513 H 0.11184 0.46679 0.06724 0.0
H1514 H 0.11492 0.434 1.00891 0.0
H1515 H 0.16125 0.47709 0.91223 0.0
C1516 C 0.15273 0.55131 0.04883 0.0
C1517 C 0.1434 0.55583 0.09774 0.0
C1518 C 0.13074 0.53745 0.12398 0.0
C1519 C 0.12671 0.5153 0.10164 0.0
C1520 C 0.13583 0.51149 0.05335 0.0
C1521 C 0.14908 0.52864 0.02766 0.0
C1522 C 0.15798 0.51893 0.97764 0.0
C1523 C 0.14835 0.53387 0.92914 0.0
C1524 C 0.18503 0.51813 0.9802 0.0
C1525 C 0.14747 0.4937 0.97925 0.0
C1526 C 0.13441 0.49028 0.023 0.0
C1527 C 0.12236 0.46909 0.03342 0.0
C1528 C 0.12434 0.45046 0.9997 0.0
C1529 C 0.13879 0.45249 0.95613 0.0
C1530 C 0.15011 0.4748 0.94502 0.0
H1531 H 0.71697 0.84573 0.34888 0.0
H1532 H 0.70775 0.92231 0.35992 0.0
H1533 H 0.74496 0.92975 0.31623 0.0
H1534 H 0.78061 0.84385 0.36736 0.0
H1535 H 0.78445 0.822 0.31917 0.0
H1536 H 0.75763 0.82239 0.35338 0.0
H1537 H 0.7333 0.82638 0.26504 0.0
H1538 H 0.76004 0.82592 0.23056 0.0
H1539 H 0.73969 0.85051 0.21843 0.0
H1540 H 0.78452 0.92894 0.27528 0.0
H1541 H 0.82056 0.92043 0.23 0.0
H1542 H 0.80309 0.84469 0.23585 0.0
C1543 C 0.72288 0.86404 0.34226 0.0
C1544 C 0.70948 0.88346 0.35862 0.0
C1545 C 0.71765 0.90715 0.34816 0.0
C1546 C 0.73886 0.91155 0.32342 0.0
C1547 C 0.75172 0.89211 0.30801 0.0
C1548 C 0.74385 0.86882 0.31613 0.0
C1549 C 0.76048 0.85132 0.29293 0.0
C1550 C 0.77144 0.83385 0.33577 0.0
C1551 C 0.74761 0.83773 0.24914 0.0
C1552 C 0.779 0.86836 0.27108 0.0
C1553 C 0.77373 0.89179 0.28105 0.0
C1554 C 0.7886 0.91069 0.26673 0.0
C1555 C 0.80915 0.90566 0.24107 0.0
C1556 C 0.81467 0.88195 0.22867 0.0
C1557 C 0.79929 0.86305 0.24412 0.0
H1558 H 0.38633 0.44314 0.54647 0.0
H1559 H 0.35606 0.46914 0.6848 0.0
H1560 H 0.35234 0.50953 0.64112 0.0
H1561 H 0.42039 0.49554 0.51664 0.0
H1562 H 0.41574 0.4942 0.44672 0.0
H1563 H 0.41519 0.46707 0.48784 0.0
H1564 H 0.37365 0.45723 0.44833 0.0
H1565 H 0.37397 0.48441 0.40719 0.0
H1566 H 0.35033 0.47889 0.45029 0.0
H1567 H 0.35325 0.54704 0.5849 0.0
H1568 H 0.35947 0.58024 0.52034 0.0
H1569 H 0.3887 0.53074 0.4161 0.0
C1570 C 0.3788 0.45728 0.56759 0.0
C1571 C 0.37143 0.45289 0.61926 0.0
C1572 C 0.36182 0.47198 0.64539 0.0
C1573 C 0.35957 0.49498 0.62078 0.0
C1574 C 0.36697 0.49864 0.56995 0.0
C1575 C 0.37643 0.48038 0.54358 0.0
C1576 C 0.38368 0.48941 0.48974 0.0
C1577 C 0.41033 0.48638 0.48498 0.0
C1578 C 0.36956 0.47673 0.44632 0.0
C1579 C 0.37698 0.51572 0.49011 0.0
C1580 C 0.36731 0.52049 0.53689 0.0
C1581 C 0.36063 0.5435 0.54806 0.0
C1582 C 0.36428 0.56224 0.51107 0.0
C1583 C 0.37445 0.55806 0.46308 0.0
C1584 C 0.38052 0.53437 0.45201 0.0
H1585 H 0.81062 0.16767 0.82929 0.0
H1586 H 0.82474 0.09136 0.84777 0.0
H1587 H 0.78709 0.08306 0.79899 0.0
H1588 H 0.74766 0.16488 0.8405 0.0
H1589 H 0.74114 0.18818 0.79054 0.0
H1590 H 0.76892 0.18823 0.82791 0.0
H1591 H 0.79108 0.1889 0.74231 0.0
H1592 H 0.76338 0.18892 0.70466 0.0
H1593 H 0.78492 0.16606 0.6962 0.0
H1594 H 0.74672 0.08289 0.7518 0.0
H1595 H 0.70881 0.09091 0.70217 0.0
H1596 H 0.72162 0.16741 0.70728 0.0
C1597 C 0.80571 0.14922 0.82313 0.0
C1598 C 0.82058 0.13011 0.84289 0.0
C1599 C 0.81367 0.10626 0.83326 0.0
C1600 C 0.79225 0.10138 0.80564 0.0
C1601 C 0.77793 0.12055 0.78693 0.0
C1602 C 0.78451 0.14403 0.7946 0.0
C1603 C 0.76623 0.16132 0.76858 0.0
C1604 C 0.75535 0.17655 0.80932 0.0
C1605 C 0.77705 0.17724 0.72537 0.0
C1606 C 0.74825 0.14392 0.74561 0.0
C1607 C 0.75526 0.12047 0.75724 0.0
C1608 C 0.74123 0.10119 0.74203 0.0
C1609 C 0.71965 0.10592 0.7139 0.0
C1610 C 0.71228 0.12975 0.70028 0.0
C1611 C 0.72687 0.14898 0.7165 0.0
H1612 H 0.8711 0.53075 0.12553 0.0
H1613 H 0.91306 0.57866 0.02869 0.0
H1614 H 0.9152 0.54821 0.96436 0.0
H1615 H 0.90392 0.47561 0.09588 0.0
H1616 H 0.87798 0.45694 0.09518 0.0
H1617 H 0.87999 0.48229 0.13601 0.0
H1618 H 0.84084 0.49872 0.09207 0.0
H1619 H 0.83893 0.47361 0.0506 0.0
H1620 H 0.83818 0.5038 0.02195 0.0
H1621 H 0.90984 0.51518 0.90505 0.0
H1622 H 0.90314 0.47729 0.86089 0.0
H1623 H 0.86797 0.44778 0.99595 0.0
C1624 C 0.88112 0.53457 0.09137 0.0
C1625 C 0.89149 0.55747 0.08217 0.0
C1626 C 0.90445 0.56161 0.03664 0.0
C1627 C 0.90586 0.54436 0.99949 0.0
C1628 C 0.8947 0.52253 1.00831 0.0
C1629 C 0.88312 0.51714 0.05357 0.0
C1630 C 0.87313 0.49176 0.05259 0.0
C1631 C 0.88443 0.4757 0.09759 0.0
C1632 C 0.84617 0.492 0.05441 0.0
C1633 C 0.88067 0.48423 0.99962 0.0
C1634 C 0.89279 0.5025 0.97464 0.0
C1635 C 0.90066 0.50053 0.92443 0.0
C1636 C 0.8966 0.47903 0.8994 0.0
C1637 C 0.88513 0.45957 0.92485 0.0
C1638 C 0.87693 0.46232 0.97559 0.0
H1639 H 0.21563 0.14705 0.76084 0.0
H1640 H 0.22633 0.08547 0.86954 0.0
H1641 H 0.26597 0.07957 0.83693 0.0
H1642 H 0.24658 0.12552 0.65414 0.0
H1643 H 0.2598 0.15405 0.63689 0.0
H1644 H 0.23199 0.15298 0.66737 0.0
H1645 H 0.24929 0.17902 0.74098 0.0
H1646 H 0.27711 0.18026 0.7106 0.0
H1647 H 0.2758 0.16946 0.77787 0.0
H1648 H 0.30325 0.07829 0.78606 0.0
H1649 H 0.33753 0.08552 0.73228 0.0
H1650 H 0.30577 0.15147 0.6662 0.0
C1651 C 0.22637 0.13236 0.7778 0.0
C1652 C 0.21776 0.11658 0.81762 0.0
C1653 C 0.2325 0.09779 0.83921 0.0
C1654 C 0.25502 0.09423 0.82067 0.0
C1655 C 0.26294 0.10997 0.78123 0.0
C1656 C 0.24926 0.12901 0.76088 0.0
C1657 C 0.26249 0.14407 0.72077 0.0
C1658 C 0.24944 0.14416 0.66659 0.0
C1659 C 0.2664 0.16972 0.73864 0.0
C1660 C 0.28564 0.13042 0.72134 0.0
C1661 C 0.28531 0.11053 0.75573 0.0
C1662 C 0.30395 0.09424 0.76033 0.0
C1663 C 0.32358 0.09864 0.73003 0.0
C1664 C 0.32506 0.11963 0.69687 0.0
C1665 C 0.30556 0.13556 0.6922 0.0
H1666 H 0.66918 0.54154 0.40781 0.0
H1667 H 0.59951 0.57014 0.42474 0.0
H1668 H 0.59397 0.54109 0.49942 0.0
H1669 H 0.65147 0.47992 0.43009 0.0
H1670 H 0.67895 0.47075 0.46337 0.0
H1671 H 0.67835 0.49542 0.4152 0.0
H1672 H 0.69829 0.52268 0.48362 0.0
H1673 H 0.69874 0.49808 0.53209 0.0
H1674 H 0.68492 0.526 0.54496 0.0
H1675 H 0.59655 0.50927 0.57453 0.0
H1676 H 0.60363 0.4726 0.63202 0.0
H1677 H 0.66912 0.46089 0.55875 0.0
C1678 C 0.65284 0.54168 0.42753 0.0
C1679 C 0.63491 0.55836 0.41117 0.0
C1680 C 0.61353 0.55768 0.43699 0.0
C1681 C 0.6103 0.54132 0.47966 0.0
C1682 C 0.62835 0.52519 0.49523 0.0
C1683 C 0.64896 0.52481 0.46903 0.0
C1684 C 0.66453 0.50403 0.49014 0.0
C1685 C 0.66855 0.48649 0.44714 0.0
C1686 C 0.68801 0.51326 0.51412 0.0
C1687 C 0.64948 0.49276 0.53211 0.0
C1688 C 0.62898 0.50567 0.53544 0.0
C1689 C 0.61251 0.499 0.57201 0.0
C1690 C 0.61674 0.47827 0.60485 0.0
C1691 C 0.63698 0.46408 0.60016 0.0
C1692 C 0.6536 0.47157 0.5635 0.0
H1693 H 0.30735 0.85105 0.31787 0.0
H1694 H 0.32238 0.92713 0.32246 0.0
H1695 H 0.28319 0.93624 0.27932 0.0
H1696 H 0.27683 0.855 0.18844 0.0
H1697 H 0.25577 0.83188 0.20425 0.0
H1698 H 0.2847 0.83134 0.2367 0.0
H1699 H 0.26601 0.83035 0.32655 0.0
H1700 H 0.23702 0.83102 0.2944 0.0
H1701 H 0.24547 0.85345 0.34 0.0
H1702 H 0.24097 0.93711 0.24053 0.0
H1703 H 0.20142 0.92986 0.19931 0.0
H1704 H 0.21447 0.85327 0.21128 0.0
C1705 C 0.30236 0.86963 0.3097 0.0
C1706 C 0.31796 0.88842 0.32411 0.0
C1707 C 0.31084 0.91245 0.31203 0.0
C1708 C 0.28852 0.91779 0.28763 0.0
C1709 C 0.27348 0.89891 0.27437 0.0
C1710 C 0.28027 0.87528 0.28411 0.0
C1711 C 0.26109 0.85839 0.26388 0.0
C1712 C 0.27014 0.84326 0.22075 0.0
C1713 C 0.25185 0.84235 0.3089 0.0
C1714 C 0.24235 0.87616 0.2418 0.0
C1715 C 0.24978 0.89944 0.249 0.0
C1716 C 0.23518 0.91895 0.23412 0.0
C1717 C 0.21265 0.91465 0.21082 0.0
C1718 C 0.20483 0.89105 0.20138 0.0
C1719 C 0.22 0.87155 0.21725 0.0
H1720 H 0.6374 0.94623 0.52535 0.0
H1721 H 0.66136 0.97361 0.37566 0.0
H1722 H 0.66635 0.01373 0.41072 0.0
H1723 H 0.60451 0.99902 0.55278 0.0
H1724 H 0.61222 0.99715 0.62203 0.0
H1725 H 0.61085 0.97029 0.58589 0.0
H1726 H 0.65363 0.96004 0.61833 0.0
H1727 H 0.65525 0.98695 0.65435 0.0
H1728 H 0.67671 0.98164 0.60709 0.0
H1729 H 0.66838 0.05074 0.46016 0.0
H1730 H 0.66593 0.08348 0.51982 0.0
H1731 H 0.64081 0.03366 0.64017 0.0
C1732 C 0.64369 0.96066 0.49989 0.0
C1733 C 0.64899 0.95661 0.44744 0.0
C1734 C 0.65713 0.97609 0.4157 0.0
C1735 C 0.66011 0.999 0.4354 0.0
C1736 C 0.65489 1.00231 0.48709 0.0
C1737 C 0.64674 0.98378 0.51899 0.0
C1738 C 0.642 0.99257 0.57285 0.0
C1739 C 0.61584 0.98958 0.58403 0.0
C1740 C 0.65785 0.97952 0.61569 0.0
C1741 C 0.6487 0.01899 0.56612 0.0
C1742 C 0.65613 0.02399 0.51618 0.0
C1743 C 0.66266 0.04701 0.49933 0.0
C1744 C 0.66117 0.06554 0.53372 0.0
C1745 C 0.65325 0.06127 0.58494 0.0
C1746 C 0.64727 0.03749 0.60168 0.0
H1747 H 0.22307 0.40817 0.85671 0.0
H1748 H 0.19942 0.33496 0.83824 0.0
H1749 H 0.23344 0.32742 0.78616 0.0
H1750 H 0.24773 0.41747 0.72579 0.0
H1751 H 0.27289 0.43428 0.74953 0.0
H1752 H 0.24571 0.43505 0.78242 0.0
H1753 H 0.26787 0.42111 0.86946 0.0
H1754 H 0.29508 0.42013 0.83676 0.0
H1755 H 0.28486 0.39383 0.8726 0.0
H1756 H 0.27037 0.32637 0.74003 0.0
H1757 H 0.30825 0.33194 0.69986 0.0
H1758 H 0.31129 0.40559 0.7467 0.0
C1759 C 0.22486 0.39076 0.84065 0.0
C1760 C 0.20823 0.37218 0.85124 0.0
C1761 C 0.21168 0.34948 0.83064 0.0
C1762 C 0.23104 0.345 0.80094 0.0
C1763 C 0.24733 0.3633 0.79213 0.0
C1764 C 0.24459 0.38579 0.81112 0.0
C1765 C 0.26565 0.40169 0.79722 0.0
C1766 C 0.25751 0.42342 0.76162 0.0
C1767 C 0.27916 0.40967 0.84698 0.0
C1768 C 0.28051 0.38457 0.76779 0.0
C1769 C 0.26933 0.36258 0.76551 0.0
C1770 C 0.2792 0.34356 0.74135 0.0
C1771 C 0.3009 0.34695 0.71853 0.0
C1772 C 0.31301 0.3692 0.71955 0.0
C1773 C 0.3026 0.38834 0.74495 0.0
H1774 H 0.87192 0.94546 0.0437 0.0
H1775 H 0.89458 0.97068 0.19596 0.0
H1776 H 0.89939 0.01144 0.15628 0.0
H1777 H 0.91044 0.98288 0.96616 0.0
H1778 H 0.88882 0.98889 0.91306 0.0
H1779 H 0.8876 0.96124 0.9524 0.0
H1780 H 0.84472 0.97049 0.97338 0.0
H1781 H 0.84573 0.99811 0.93395 0.0
H1782 H 0.83813 0.99853 1.00124 0.0
H1783 H 0.90261 0.04849 0.10219 0.0
H1784 H 0.90109 0.08212 0.038 0.0
H1785 H 0.87438 0.03526 0.91761 0.0
C1786 C 0.87796 0.95958 0.06862 0.0
C1787 C 0.88299 0.95484 0.1231 0.0
C1788 C 0.89056 0.97384 0.15438 0.0
C1789 C 0.89345 0.99703 0.1321 0.0
C1790 C 0.88846 1.00107 0.0785 0.0
C1791 C 0.88061 0.98306 0.04705 0.0
C1792 C 0.87565 0.99281 0.99081 0.0
C1793 C 0.89158 0.98073 0.9534 0.0
C1794 C 0.8495 0.98981 0.97385 0.0
C1795 C 0.88207 0.01915 0.99571 0.0
C1796 C 0.88957 0.02317 0.0468 0.0
C1797 C 0.89658 0.04564 0.06219 0.0
C1798 C 0.89552 0.06474 0.02494 0.0
C1799 C 0.88725 0.06167 0.97228 0.0
C1800 C 0.88073 0.03833 0.95731 0.0
H1801 H 0.21892 0.66498 0.20098 0.0
H1802 H 0.20459 0.58869 0.19848 0.0
H1803 H 0.24253 0.58019 0.24753 0.0
H1804 H 0.28197 0.66249 0.18922 0.0
H1805 H 0.28862 0.68547 0.23471 0.0
H1806 H 0.26077 0.6857 0.19764 0.0
H1807 H 0.23884 0.68568 0.28349 0.0
H1808 H 0.26663 0.6855 0.32081 0.0
H1809 H 0.24508 0.6625 0.3339 0.0
H1810 H 0.28309 0.57978 0.29337 0.0
H1811 H 0.32106 0.58752 0.3413 0.0
H1812 H 0.30824 0.66407 0.32221 0.0
C1813 C 0.22388 0.6465 0.2106 0.0
C1814 C 0.20887 0.62745 0.19524 0.0
C1815 C 0.21579 0.60355 0.2095 0.0
C1816 C 0.23737 0.59855 0.2373 0.0
C1817 C 0.25183 0.61764 0.25169 0.0
C1818 C 0.24523 0.64118 0.23959 0.0
C1819 C 0.26359 0.65834 0.26211 0.0
C1820 C 0.27437 0.67392 0.2183 0.0
C1821 C 0.25289 0.67393 0.30248 0.0
C1822 C 0.2816 0.6408 0.28819 0.0
C1823 C 0.27457 0.61741 0.28102 0.0
C1824 C 0.28861 0.59803 0.29969 0.0
C1825 C 0.31022 0.6026 0.32681 0.0
C1826 C 0.31757 0.62635 0.33607 0.0
C1827 C 0.30298 0.64569 0.31633 0.0
H1828 H 0.37183 0.94449 0.50309 0.0
H1829 H 0.40188 0.97509 0.36257 0.0
H1830 H 0.40909 0.01313 0.40606 0.0
H1831 H 0.34155 0.99935 0.53291 0.0
H1832 H 0.34611 0.99437 0.60277 0.0
H1833 H 0.34396 0.9692 0.56148 0.0
H1834 H 0.38433 0.95382 0.60074 0.0
H1835 H 0.38677 0.97912 0.64166 0.0
H1836 H 0.40967 0.97328 0.59816 0.0
H1837 H 0.41527 0.04629 0.46472 0.0
H1838 H 0.41383 0.0768 0.52923 0.0
H1839 H 0.37629 0.02758 0.63229 0.0
C1840 C 0.37982 0.9593 0.48151 0.0
C1841 C 0.38642 0.95688 0.4294 0.0
C1842 C 0.39659 0.97663 0.40221 0.0
C1843 C 0.40093 0.9982 0.42682 0.0
C1844 C 0.39459 0.99989 0.47834 0.0
C1845 C 0.38373 0.98127 0.50512 0.0
C1846 C 0.37748 0.98861 0.5592 0.0
C1847 C 0.35068 0.98784 0.56438 0.0
C1848 C 0.39033 0.97276 0.6025 0.0
C1849 C 0.38673 0.01427 0.55868 0.0
C1850 C 0.39687 0.01998 0.51174 0.0
C1851 C 0.40705 0.04217 0.50121 0.0
C1852 C 0.40607 0.05943 0.53844 0.0
C1853 C 0.39454 0.05489 0.58579 0.0
C1854 C 0.38524 0.03166 0.59671 0.0
H1855 H 0.80003 0.60716 0.15087 0.0
H1856 H 0.84063 0.65166 0.25615 0.0
H1857 H 0.80766 0.6514 0.31526 0.0
H1858 H 0.74564 0.63824 0.16329 0.0
H1859 H 0.72731 0.61193 0.15857 0.0
H1860 H 0.75494 0.61332 0.12743 0.0
H1861 H 0.76819 0.57389 0.17793 0.0
H1862 H 0.74058 0.57237 0.2092 0.0
H1863 H 0.76792 0.57177 0.24832 0.0
H1864 H 0.77 0.64612 0.36346 0.0
H1865 H 0.72951 0.64031 0.39202 0.0
H1866 H 0.71112 0.60287 0.25125 0.0
C1867 C 0.80207 0.61641 0.18695 0.0
C1868 C 0.8233 0.62864 0.20009 0.0
C1869 C 0.82489 0.64153 0.24626 0.0
C1870 C 0.80617 0.64153 0.27998 0.0
C1871 C 0.7855 0.62921 0.26624 0.0
C1872 C 0.78317 0.61721 0.22036 0.0
C1873 C 0.75832 0.60718 0.21266 0.0
C1874 C 0.74582 0.61834 0.16251 0.0
C1875 C 0.75879 0.57967 0.212 0.0
C1876 C 0.74709 0.61536 0.26131 0.0
C1877 C 0.76324 0.62768 0.2921 0.0
C1878 C 0.75722 0.6366 0.33945 0.0
C1879 C 0.73412 0.63311 0.35552 0.0
C1880 C 0.71694 0.62118 0.32406 0.0
C1881 C 0.7237 0.61217 0.27625 0.0
H1882 H 0.16771 0.04815 0.91746 0.0
H1883 H 0.09518 0.07119 0.91962 0.0
H1884 H 0.0885 0.04094 0.99155 0.0
H1885 H 0.15448 0.98568 0.9334 0.0
H1886 H 0.181 0.97829 0.97256 0.0
H1887 H 0.18068 1.00355 0.92594 0.0
H1888 H 0.19475 0.03118 0.99966 0.0
H1889 H 0.19488 0.00601 0.04669 0.0
H1890 H 0.17804 0.03245 0.05717 0.0
H1891 H 0.08985 0.00772 0.06394 0.0
H1892 H 0.09715 0.97059 0.11995 0.0
H1893 H 0.16723 0.96607 0.06342 0.0
C1894 C 0.15053 0.04694 0.93361 0.0
C1895 C 0.13201 0.06218 0.91355 0.0
C1896 C 0.1096 0.05974 0.93465 0.0
C1897 C 0.10571 0.0427 0.97572 0.0
C1898 C 0.12428 0.02781 0.99461 0.0
C1899 C 0.14613 0.02945 0.97349 0.0
C1900 C 0.16239 0.00975 0.99709 0.0
C1901 C 0.17008 0.99335 0.95473 0.0
C1902 C 0.18378 0.02049 0.02693 0.0
C1903 C 0.14626 0.99664 0.03438 0.0
C1904 C 0.12455 0.00773 0.03346 0.0
C1905 C 0.1068 0.99893 0.06488 0.0
C1906 C 0.11112 0.97795 0.0969 0.0
C1907 C 0.1328 0.96568 0.09642 0.0
C1908 C 0.1506 0.9753 0.06499 0.0
H1909 H 0.71472 0.35351 0.71475 0.0
H1910 H 0.70098 0.42996 0.70274 0.0
H1911 H 0.74063 0.43757 0.74335 0.0
H1912 H 0.74593 0.35397 0.8428 0.0
H1913 H 0.7665 0.33095 0.8291 0.0
H1914 H 0.73747 0.33154 0.79717 0.0
H1915 H 0.75581 0.33254 0.7069 0.0
H1916 H 0.7849 0.33205 0.73855 0.0
H1917 H 0.77672 0.35573 0.69059 0.0
H1918 H 0.78318 0.43698 0.78121 0.0
H1919 H 0.82267 0.42814 0.82309 0.0
H1920 H 0.80801 0.35197 0.81938 0.0
C1921 C 0.72011 0.37185 0.72059 0.0
C1922 C 0.70471 0.39119 0.70485 0.0
C1923 C 0.71237 0.41487 0.71412 0.0
C1924 C 0.73496 0.41936 0.73709 0.0
C1925 C 0.74977 0.39998 0.75183 0.0
C1926 C 0.7425 0.37664 0.7448 0.0
C1927 C 0.76145 0.35901 0.76658 0.0
C1928 C 0.75229 0.34292 0.81159 0.0
C1929 C 0.77024 0.34394 0.72306 0.0
C1930 C 0.78059 0.37602 0.78645 0.0
C1931 C 0.7736 0.3996 0.77677 0.0
C1932 C 0.78863 0.41857 0.7895 0.0
C1933 C 0.81113 0.41337 0.81321 0.0
C1934 C 0.81848 0.3894 0.8252 0.0
C1935 C 0.80287 0.37051 0.8114 0.0
loop_
_geom_bond_atom_site_label_1
_geom_bond_atom_site_label_2
_geom_bond_distance
_geom_bond_site_symmetry_2
_ccdc_geom_bond_type
Tb0 C2 2.809 . S
Tb0 O20 2.484 . S
Tb0 O21 2.440 . S
Tb0 O22 2.658 . S
Tb0 O23 2.409 . S
Tb0 O24 2.378 . S
Tb0 O28 2.325 . S
Tb0 O31 2.341 . S
Tb1 C11 2.809 . S
Tb1 O22 2.325 . S
Tb1 O25 2.341 . S
Tb1 O26 2.484 . S
Tb1 O27 2.440 . S
Tb1 O28 2.658 . S
Tb1 O29 2.409 . S
Tb1 O30 2.378 . S
C2 Tb0 2.809 . S
C2 C3 1.514 . S
C2 O20 1.248 . S
C2 O21 1.266 . S
C3 C2 1.514 . S
C3 C4 1.359 . S
C3 C8 1.348 . S
C4 C3 1.359 . S
C4 C5 1.380 . S
C4 H32 0.929 . S
C5 C4 1.380 . S
C5 C6 1.347 . S
C5 H33 0.931 . S
C6 C5 1.347 . S
C6 C7 1.369 . S
C7 C6 1.369 . S
C7 C8 1.408 . S
C7 H34 0.930 . S
C8 C3 1.348 . S
C8 C7 1.408 . S
C8 H35 0.930 . S
C9 O22 1.281 . S
C9 O23 1.254 . S
C10 O24 1.236 . S
C10 O25 1.266 . S
C11 Tb1 2.809 . S
C11 C12 1.514 1_554 S
C11 O26 1.248 . S
C11 O27 1.266 . S
C12 C11 1.514 1_556 S
C12 C13 1.359 . S
C12 C17 1.348 . S
C13 C12 1.359 . S
C13 C14 1.380 . S
C13 H36 0.929 . S
C14 C13 1.380 . S
C14 C15 1.347 . S
C14 H37 0.931 . S
C15 C14 1.347 . S
C15 C16 1.369 . S
C16 C15 1.369 . S
C16 C17 1.408 . S
C16 H38 0.930 . S
C17 C12 1.348 . S
C17 C16 1.408 . S
C17 H39 0.930 . S
C18 O28 1.281 . S
C18 O29 1.254 . S
C19 O30 1.236 . S
C19 O31 1.266 . S
O20 Tb0 2.484 . S
O20 C2 1.248 . S
O21 Tb0 2.440 . S
O21 C2 1.266 . S
O22 Tb0 2.658 . S
O22 Tb1 2.325 . S
O22 C9 1.281 . S
O23 Tb0 2.409 . S
O23 C9 1.254 . S
O24 Tb0 2.378 . S
O24 C10 1.236 . S
O25 Tb1 2.341 . S
O25 C10 1.266 . S
O26 Tb1 2.484 . S
O26 C11 1.248 . S
O27 Tb1 2.440 . S
O27 C11 1.266 . S
O28 Tb0 2.325 . S
O28 Tb1 2.658 . S
O28 C18 1.281 . S
O29 Tb1 2.409 . S
O29 C18 1.254 . S
O30 Tb1 2.378 . S
O30 C19 1.236 . S
O31 Tb0 2.341 . S
O31 C19 1.266 . S
H32 C4 0.929 . S
H33 C5 0.931 . S
H34 C7 0.930 . S
H35 C8 0.930 . S
H36 C13 0.929 . S
H37 C14 0.931 . S
H38 C16 0.930 . S
H39 C17 0.930 . S
Tb40 C42 2.809 . S
Tb40 O60 2.484 . S
Tb40 O61 2.440 . S
Tb40 O62 2.658 . S
Tb40 O63 2.409 . S
Tb40 O64 2.378 . S
Tb40 O68 2.325 . S
Tb40 O71 2.341 . S
Tb41 C51 2.809 . S
Tb41 O62 2.325 . S
Tb41 O65 2.341 . S
Tb41 O66 2.484 . S
Tb41 O67 2.440 . S
Tb41 O68 2.658 . S
Tb41 O69 2.409 . S
Tb41 O70 2.378 . S
C42 Tb40 2.809 . S
C42 C43 1.514 . S
C42 O60 1.248 . S
C42 O61 1.266 . S
C43 C42 1.514 . S
C43 C44 1.359 . S
C43 C48 1.348 . S
C44 C43 1.359 . S
C44 C45 1.380 . S
C44 H72 0.929 . S
C45 C44 1.380 . S
C45 C46 1.347 . S
C45 H73 0.931 . S
C46 C45 1.347 . S
C46 C47 1.369 . S
C47 C46 1.369 . S
C47 C48 1.408 . S
C47 H74 0.930 . S
C48 C43 1.348 . S
C48 C47 1.408 . S
C48 H75 0.930 . S
C49 O62 1.281 . S
C49 O63 1.254 . S
C50 O64 1.236 . S
C50 O65 1.266 . S
C51 Tb41 2.809 . S
C51 C52 1.514 . S
C51 O66 1.248 . S
C51 O67 1.266 . S
C52 C51 1.514 . S
C52 C53 1.359 . S
C52 C57 1.348 . S
C53 C52 1.359 . S
C53 C54 1.380 . S
C53 H76 0.929 . S
C54 C53 1.380 . S
C54 C55 1.347 . S
C54 H77 0.931 . S
C55 C54 1.347 . S
C55 C56 1.369 . S
C56 C55 1.369 . S
C56 C57 1.408 . S
C56 H78 0.930 . S
C57 C52 1.348 . S
C57 C56 1.408 . S
C57 H79 0.930 . S
C58 O68 1.281 . S
C58 O69 1.254 . S
C59 O70 1.236 . S
C59 O71 1.266 . S
O60 Tb40 2.484 . S
O60 C42 1.248 . S
O61 Tb40 2.440 . S
O61 C42 1.266 . S
O62 Tb40 2.658 . S
O62 Tb41 2.325 . S
O62 C49 1.281 . S
O63 Tb40 2.409 . S
O63 C49 1.254 . S
O64 Tb40 2.378 . S
O64 C50 1.236 . S
O65 Tb41 2.341 . S
O65 C50 1.266 . S
O66 Tb41 2.484 . S
O66 C51 1.248 . S
O67 Tb41 2.440 . S
O67 C51 1.266 . S
O68 Tb40 2.325 . S
O68 Tb41 2.658 . S
O68 C58 1.281 . S
O69 Tb41 2.409 . S
O69 C58 1.254 . S
O70 Tb41 2.378 . S
O70 C59 1.236 . S
O71 Tb40 2.341 . S
O71 C59 1.266 . S
H72 C44 0.929 . S
H73 C45 0.931 . S
H74 C47 0.930 . S
H75 C48 0.930 . S
H76 C53 0.929 . S
H77 C54 0.931 . S
H78 C56 0.930 . S
H79 C57 0.930 . S
Tb80 C82 2.809 . S
Tb80 O100 2.484 . S
Tb80 O101 2.440 . S
Tb80 O102 2.658 . S
Tb80 O103 2.409 . S
Tb80 O104 2.378 . S
Tb80 O108 2.325 . S
Tb80 O111 2.341 . S
Tb81 C91 2.809 . S
Tb81 O102 2.325 . S
Tb81 O105 2.341 . S
Tb81 O106 2.484 . S
Tb81 O107 2.440 . S
Tb81 O108 2.658 . S
Tb81 O109 2.409 . S
Tb81 O110 2.378 . S
C82 Tb80 2.809 . S
C82 C83 1.514 . S
C82 O100 1.248 . S
C82 O101 1.266 . S
C83 C82 1.514 . S
C83 C84 1.359 . S
C83 C88 1.348 . S
C84 C83 1.359 . S
C84 C85 1.380 . S
C84 H112 0.929 . S
C85 C84 1.380 . S
C85 C86 1.347 1_556 S
C85 H113 0.931 . S
C86 C85 1.347 1_554 S
C86 C87 1.369 1_554 S
C87 C86 1.369 1_556 S
C87 C88 1.408 . S
C87 H114 0.930 1_556 S
C88 C83 1.348 . S
C88 C87 1.408 . S
C88 H115 0.930 . S
C89 O102 1.281 . S
C89 O103 1.254 . S
C90 O104 1.236 . S
C90 O105 1.266 . S
C91 Tb81 2.809 . S
C91 C92 1.514 . S
C91 O106 1.248 . S
C91 O107 1.266 . S
C92 C91 1.514 . S
C92 C93 1.359 . S
C92 C97 1.348 . S
C93 C92 1.359 . S
C93 C94 1.380 . S
C93 H116 0.929 . S
C94 C93 1.380 . S
C94 C95 1.347 . S
C94 H117 0.931 . S
C95 C94 1.347 . S
C95 C96 1.369 . S
C96 C95 1.369 . S
C96 C97 1.408 . S
C96 H118 0.930 . S
C97 C92 1.348 . S
C97 C96 1.408 . S
C97 H119 0.930 . S
C98 O108 1.281 . S
C98 O109 1.254 . S
C99 O110 1.236 . S
C99 O111 1.266 . S
O100 Tb80 2.484 . S
O100 C82 1.248 . S
O101 Tb80 2.440 . S
O101 C82 1.266 . S
O102 Tb80 2.658 . S
O102 Tb81 2.325 . S
O102 C89 1.281 . S
O103 Tb80 2.409 . S
O103 C89 1.254 . S
O104 Tb80 2.378 . S
O104 C90 1.236 . S
O105 Tb81 2.341 . S
O105 C90 1.266 . S
O106 Tb81 2.484 . S
O106 C91 1.248 . S
O107 Tb81 2.440 . S
O107 C91 1.266 . S
O108 Tb80 2.325 . S
O108 Tb81 2.658 . S
O108 C98 1.281 . S
O109 Tb81 2.409 . S
O109 C98 1.254 . S
O110 Tb81 2.378 . S
O110 C99 1.236 . S
O111 Tb80 2.341 . S
O111 C99 1.266 . S
H112 C84 0.929 . S
H113 C85 0.931 . S
H114 C87 0.930 1_554 S
H115 C88 0.930 . S
H116 C93 0.929 . S
H117 C94 0.931 . S
H118 C96 0.930 . S
H119 C97 0.930 . S
Tb120 C122 2.809 . S
Tb120 O140 2.484 . S
Tb120 O141 2.440 . S
Tb120 O142 2.658 . S
Tb120 O143 2.409 . S
Tb120 O144 2.378 . S
Tb120 O148 2.325 . S
Tb120 O151 2.341 . S
Tb121 C131 2.809 1_556 S
Tb121 O142 2.325 . S
Tb121 O145 2.341 . S
Tb121 O146 2.484 . S
Tb121 O147 2.440 . S
Tb121 O148 2.658 . S
Tb121 O149 2.409 . S
Tb121 O150 2.378 . S
C122 Tb120 2.809 . S
C122 C123 1.514 . S
C122 O140 1.248 . S
C122 O141 1.266 . S
C123 C122 1.514 . S
C123 C124 1.359 . S
C123 C128 1.348 . S
C124 C123 1.359 . S
C124 C125 1.380 . S
C124 H152 0.929 . S
C125 C124 1.380 . S
C125 C126 1.347 . S
C125 H153 0.931 . S
C126 C125 1.347 . S
C126 C127 1.369 . S
C127 C126 1.369 . S
C127 C128 1.408 . S
C127 H154 0.930 . S
C128 C123 1.348 . S
C128 C127 1.408 . S
C128 H155 0.930 . S
C129 O142 1.281 . S
C129 O143 1.254 . S
C130 O144 1.236 . S
C130 O145 1.266 . S
C131 Tb121 2.809 1_554 S
C131 C132 1.514 . S
C131 O146 1.248 1_554 S
C131 O147 1.266 1_554 S
C132 C131 1.514 . S
C132 C133 1.359 . S
C132 C137 1.348 . S
C133 C132 1.359 . S
C133 C134 1.380 . S
C133 H156 0.929 . S
C134 C133 1.380 . S
C134 C135 1.347 . S
C134 H157 0.931 . S
C135 C134 1.347 . S
C135 C136 1.369 . S
C136 C135 1.369 . S
C136 C137 1.408 . S
C136 H158 0.930 . S
C137 C132 1.348 . S
C137 C136 1.408 . S
C137 H159 0.930 . S
C138 O148 1.281 . S
C138 O149 1.254 . S
C139 O150 1.236 . S
C139 O151 1.266 . S
O140 Tb120 2.484 . S
O140 C122 1.248 . S
O141 Tb120 2.440 . S
O141 C122 1.266 . S
O142 Tb120 2.658 . S
O142 Tb121 2.325 . S
O142 C129 1.281 . S
O143 Tb120 2.409 . S
O143 C129 1.254 . S
O144 Tb120 2.378 . S
O144 C130 1.236 . S
O145 Tb121 2.341 . S
O145 C130 1.266 . S
O146 Tb121 2.484 . S
O146 C131 1.248 1_556 S
O147 Tb121 2.440 . S
O147 C131 1.266 1_556 S
O148 Tb120 2.325 . S
O148 Tb121 2.658 . S
O148 C138 1.281 . S
O149 Tb121 2.409 . S
O149 C138 1.254 . S
O150 Tb121 2.378 . S
O150 C139 1.236 . S
O151 Tb120 2.341 . S
O151 C139 1.266 . S
H152 C124 0.929 . S
H153 C125 0.931 . S
H154 C127 0.930 . S
H155 C128 0.930 . S
H156 C133 0.929 . S
H157 C134 0.931 . S
H158 C136 0.930 . S
H159 C137 0.930 . S
Tb160 C162 2.809 . S
Tb160 O180 2.484 . S
Tb160 O181 2.440 . S
Tb160 O182 2.658 . S
Tb160 O183 2.409 . S
Tb160 O184 2.378 . S
Tb160 O188 2.325 . S
Tb160 O191 2.341 . S
Tb161 C171 2.809 1_556 S
Tb161 O182 2.325 . S
Tb161 O185 2.341 . S
Tb161 O186 2.484 . S
Tb161 O187 2.440 . S
Tb161 O188 2.658 . S
Tb161 O189 2.409 . S
Tb161 O190 2.378 . S
C162 Tb160 2.809 . S
C162 C163 1.514 . S
C162 O180 1.248 . S
C162 O181 1.266 . S
C163 C162 1.514 . S
C163 C164 1.359 . S
C163 C168 1.348 . S
C164 C163 1.359 . S
C164 C165 1.380 . S
C164 H192 0.929 . S
C165 C164 1.380 . S
C165 C166 1.347 . S
C165 H193 0.931 . S
C166 C165 1.347 . S
C166 C167 1.369 . S
C167 C166 1.369 . S
C167 C168 1.408 . S
C167 H194 0.930 . S
C168 C163 1.348 . S
C168 C167 1.408 . S
C168 H195 0.930 . S
C169 O182 1.281 . S
C169 O183 1.254 . S
C170 O184 1.236 . S
C170 O185 1.266 . S
C171 Tb161 2.809 1_554 S
C171 C172 1.514 . S
C171 O186 1.248 1_554 S
C171 O187 1.266 1_554 S
C172 C171 1.514 . S
C172 C173 1.359 . S
C172 C177 1.348 . S
C173 C172 1.359 . S
C173 C174 1.380 . S
C173 H196 0.929 . S
C174 C173 1.380 . S
C174 C175 1.347 . S
C174 H197 0.931 . S
C175 C174 1.347 . S
C175 C176 1.369 . S
C176 C175 1.369 . S
C176 C177 1.408 . S
C176 H198 0.930 . S
C177 C172 1.348 . S
C177 C176 1.408 . S
C177 H199 0.930 . S
C178 O188 1.281 . S
C178 O189 1.254 . S
C179 O190 1.236 . S
C179 O191 1.266 . S
O180 Tb160 2.484 . S
O180 C162 1.248 . S
O181 Tb160 2.440 . S
O181 C162 1.266 . S
O182 Tb160 2.658 . S
O182 Tb161 2.325 . S
O182 C169 1.281 . S
O183 Tb160 2.409 . S
O183 C169 1.254 . S
O184 Tb160 2.378 . S
O184 C170 1.236 . S
O185 Tb161 2.341 . S
O185 C170 1.266 . S
O186 Tb161 2.484 . S
O186 C171 1.248 1_556 S
O187 Tb161 2.440 . S
O187 C171 1.266 1_556 S
O188 Tb160 2.325 . S
O188 Tb161 2.658 . S
O188 C178 1.281 . S
O189 Tb161 2.409 . S
O189 C178 1.254 . S
O190 Tb161 2.378 . S
O190 C179 1.236 . S
O191 Tb160 2.341 . S
O191 C179 1.266 . S
H192 C164 0.929 . S
H193 C165 0.931 . S
H194 C167 0.930 . S
H195 C168 0.930 . S
H196 C173 0.929 . S
H197 C174 0.931 . S
H198 C176 0.930 . S
H199 C177 0.930 . S
Tb200 C202 2.809 . S
Tb200 O220 2.484 . S
Tb200 O221 2.440 . S
Tb200 O222 2.658 . S
Tb200 O223 2.409 . S
Tb200 O224 2.378 . S
Tb200 O228 2.325 . S
Tb200 O231 2.341 . S
Tb201 C211 2.809 . S
Tb201 O222 2.325 . S
Tb201 O225 2.341 . S
Tb201 O226 2.484 . S
Tb201 O227 2.440 . S
Tb201 O228 2.658 . S
Tb201 O229 2.409 . S
Tb201 O230 2.378 . S
C202 Tb200 2.809 . S
C202 C203 1.514 . S
C202 O220 1.248 . S
C202 O221 1.266 . S
C203 C202 1.514 . S
C203 C204 1.359 . S
C203 C208 1.348 . S
C204 C203 1.359 . S
C204 C205 1.380 . S
C204 H232 0.929 . S
C205 C204 1.380 . S
C205 C206 1.347 . S
C205 H233 0.931 . S
C206 C205 1.347 . S
C206 C207 1.369 . S
C207 C206 1.369 . S
C207 C208 1.408 . S
C207 H234 0.930 . S
C208 C203 1.348 . S
C208 C207 1.408 . S
C208 H235 0.930 . S
C209 O222 1.281 . S
C209 O223 1.254 . S
C210 O224 1.236 . S
C210 O225 1.266 . S
C211 Tb201 2.809 . S
C211 C212 1.514 1_554 S
C211 O226 1.248 . S
C211 O227 1.266 . S
C212 C211 1.514 1_556 S
C212 C213 1.359 . S
C212 C217 1.348 . S
C213 C212 1.359 . S
C213 C214 1.380 . S
C213 H236 0.929 . S
C214 C213 1.380 . S
C214 C215 1.347 . S
C214 H237 0.931 . S
C215 C214 1.347 . S
C215 C216 1.369 . S
C216 C215 1.369 . S
C216 C217 1.408 . S
C216 H238 0.930 . S
C217 C212 1.348 . S
C217 C216 1.408 . S
C217 H239 0.930 . S
C218 O228 1.281 . S
C218 O229 1.254 . S
C219 O230 1.236 . S
C219 O231 1.266 . S
O220 Tb200 2.484 . S
O220 C202 1.248 . S
O221 Tb200 2.440 . S
O221 C202 1.266 . S
O222 Tb200 2.658 . S
O222 Tb201 2.325 . S
O222 C209 1.281 . S
O223 Tb200 2.409 . S
O223 C209 1.254 . S
O224 Tb200 2.378 . S
O224 C210 1.236 . S
O225 Tb201 2.341 . S
O225 C210 1.266 . S
O226 Tb201 2.484 . S
O226 C211 1.248 . S
O227 Tb201 2.440 . S
O227 C211 1.266 . S
O228 Tb200 2.325 . S
O228 Tb201 2.658 . S
O228 C218 1.281 . S
O229 Tb201 2.409 . S
O229 C218 1.254 . S
O230 Tb201 2.378 . S
O230 C219 1.236 . S
O231 Tb200 2.341 . S
O231 C219 1.266 . S
H232 C204 0.929 . S
H233 C205 0.931 . S
H234 C207 0.930 . S
H235 C208 0.930 . S
H236 C213 0.929 . S
H237 C214 0.931 . S
H238 C216 0.930 . S
H239 C217 0.930 . S
Tb240 C242 2.809 . S
Tb240 O260 2.484 . S
Tb240 O261 2.440 . S
Tb240 O262 2.658 . S
Tb240 O263 2.409 . S
Tb240 O264 2.378 . S
Tb240 O268 2.325 . S
Tb240 O271 2.341 . S
Tb241 C251 2.809 . S
Tb241 O262 2.325 . S
Tb241 O265 2.341 . S
Tb241 O266 2.484 . S
Tb241 O267 2.440 . S
Tb241 O268 2.658 . S
Tb241 O269 2.409 . S
Tb241 O270 2.378 . S
C242 Tb240 2.809 . S
C242 C243 1.514 . S
C242 O260 1.248 . S
C242 O261 1.266 . S
C243 C242 1.514 . S
C243 C244 1.359 . S
C243 C248 1.348 . S
C244 C243 1.359 . S
C244 C245 1.380 . S
C244 H272 0.929 . S
C245 C244 1.380 . S
C245 C246 1.347 . S
C245 H273 0.931 . S
C246 C245 1.347 . S
C246 C247 1.369 . S
C247 C246 1.369 . S
C247 C248 1.408 . S
C247 H274 0.930 . S
C248 C243 1.348 . S
C248 C247 1.408 . S
C248 H275 0.930 . S
C249 O262 1.281 . S
C249 O263 1.254 . S
C250 O264 1.236 . S
C250 O265 1.266 . S
C251 Tb241 2.809 . S
C251 C252 1.514 . S
C251 O266 1.248 . S
C251 O267 1.266 . S
C252 C251 1.514 . S
C252 C253 1.359 . S
C252 C257 1.348 . S
C253 C252 1.359 . S
C253 C254 1.380 . S
C253 H276 0.929 . S
C254 C253 1.380 . S
C254 C255 1.347 . S
C254 H277 0.931 . S
C255 C254 1.347 . S
C255 C256 1.369 . S
C256 C255 1.369 . S
C256 C257 1.408 . S
C256 H278 0.930 . S
C257 C252 1.348 . S
C257 C256 1.408 . S
C257 H279 0.930 . S
C258 O268 1.281 . S
C258 O269 1.254 . S
C259 O270 1.236 . S
C259 O271 1.266 . S
O260 Tb240 2.484 . S
O260 C242 1.248 . S
O261 Tb240 2.440 . S
O261 C242 1.266 . S
O262 Tb240 2.658 . S
O262 Tb241 2.325 . S
O262 C249 1.281 . S
O263 Tb240 2.409 . S
O263 C249 1.254 . S
O264 Tb240 2.378 . S
O264 C250 1.236 . S
O265 Tb241 2.341 . S
O265 C250 1.266 . S
O266 Tb241 2.484 . S
O266 C251 1.248 . S
O267 Tb241 2.440 . S
O267 C251 1.266 . S
O268 Tb240 2.325 . S
O268 Tb241 2.658 . S
O268 C258 1.281 . S
O269 Tb241 2.409 . S
O269 C258 1.254 . S
O270 Tb241 2.378 . S
O270 C259 1.236 . S
O271 Tb240 2.341 . S
O271 C259 1.266 . S
H272 C244 0.929 . S
H273 C245 0.931 . S
H274 C247 0.930 . S
H275 C248 0.930 . S
H276 C253 0.929 . S
H277 C254 0.931 . S
H278 C256 0.930 . S
H279 C257 0.930 . S
Tb280 C282 2.809 . S
Tb280 O300 2.484 . S
Tb280 O301 2.440 . S
Tb280 O302 2.658 . S
Tb280 O303 2.409 . S
Tb280 O304 2.378 . S
Tb280 O308 2.325 . S
Tb280 O311 2.341 . S
Tb281 C291 2.809 . S
Tb281 O302 2.325 . S
Tb281 O305 2.341 . S
Tb281 O306 2.484 . S
Tb281 O307 2.440 . S
Tb281 O308 2.658 . S
Tb281 O309 2.409 . S
Tb281 O310 2.378 . S
C282 Tb280 2.809 . S
C282 C283 1.514 . S
C282 O300 1.248 . S
C282 O301 1.266 . S
C283 C282 1.514 . S
C283 C284 1.359 . S
C283 C288 1.348 . S
C284 C283 1.359 . S
C284 C285 1.380 . S
C284 H312 0.929 . S
C285 C284 1.380 . S
C285 C286 1.347 1_556 S
C285 H313 0.931 . S
C286 C285 1.347 1_554 S
C286 C287 1.369 1_554 S
C287 C286 1.369 1_556 S
C287 C288 1.408 . S
C287 H314 0.930 1_556 S
C288 C283 1.348 . S
C288 C287 1.408 . S
C288 H315 0.930 . S
C289 O302 1.281 . S
C289 O303 1.254 . S
C290 O304 1.236 . S
C290 O305 1.266 . S
C291 Tb281 2.809 . S
C291 C292 1.514 . S
C291 O306 1.248 . S
C291 O307 1.266 . S
C292 C291 1.514 . S
C292 C293 1.359 . S
C292 C297 1.348 . S
C293 C292 1.359 . S
C293 C294 1.380 . S
C293 H316 0.929 . S
C294 C293 1.380 . S
C294 C295 1.347 . S
C294 H317 0.931 . S
C295 C294 1.347 . S
C295 C296 1.369 . S
C296 C295 1.369 . S
C296 C297 1.408 . S
C296 H318 0.930 . S
C297 C292 1.348 . S
C297 C296 1.408 . S
C297 H319 0.930 . S
C298 O308 1.281 . S
C298 O309 1.254 . S
C299 O310 1.236 . S
C299 O311 1.266 . S
O300 Tb280 2.484 . S
O300 C282 1.248 . S
O301 Tb280 2.440 . S
O301 C282 1.266 . S
O302 Tb280 2.658 . S
O302 Tb281 2.325 . S
O302 C289 1.281 . S
O303 Tb280 2.409 . S
O303 C289 1.254 . S
O304 Tb280 2.378 . S
O304 C290 1.236 . S
O305 Tb281 2.341 . S
O305 C290 1.266 . S
O306 Tb281 2.484 . S
O306 C291 1.248 . S
O307 Tb281 2.440 . S
O307 C291 1.266 . S
O308 Tb280 2.325 . S
O308 Tb281 2.658 . S
O308 C298 1.281 . S
O309 Tb281 2.409 . S
O309 C298 1.254 . S
O310 Tb281 2.378 . S
O310 C299 1.236 . S
O311 Tb280 2.341 . S
O311 C299 1.266 . S
H312 C284 0.929 . S
H313 C285 0.931 . S
H314 C287 0.930 1_554 S
H315 C288 0.930 . S
H316 C293 0.929 . S
H317 C294 0.931 . S
H318 C296 0.930 . S
H319 C297 0.930 . S
Tb320 C322 2.809 . S
Tb320 O340 2.484 . S
Tb320 O341 2.440 . S
Tb320 O342 2.658 . S
Tb320 O343 2.409 . S
Tb320 O344 2.378 . S
Tb320 O348 2.325 . S
Tb320 O351 2.341 . S
Tb321 C331 2.809 . S
Tb321 O342 2.325 . S
Tb321 O345 2.341 . S
Tb321 O346 2.484 . S
Tb321 O347 2.440 . S
Tb321 O348 2.658 . S
Tb321 O349 2.409 . S
Tb321 O350 2.378 . S
C322 Tb320 2.809 . S
C322 C323 1.514 1_556 S
C322 O340 1.248 . S
C322 O341 1.266 . S
C323 C322 1.514 1_554 S
C323 C324 1.359 . S
C323 C328 1.348 . S
C324 C323 1.359 . S
C324 C325 1.380 . S
C324 H352 0.929 . S
C325 C324 1.380 . S
C325 C326 1.347 . S
C325 H353 0.931 . S
C326 C325 1.347 . S
C326 C327 1.369 . S
C327 C326 1.369 . S
C327 C328 1.408 . S
C327 H354 0.930 . S
C328 C323 1.348 . S
C328 C327 1.408 . S
C328 H355 0.930 . S
C329 O342 1.281 . S
C329 O343 1.254 . S
C330 O344 1.236 . S
C330 O345 1.266 . S
C331 Tb321 2.809 . S
C331 C332 1.514 . S
C331 O346 1.248 . S
C331 O347 1.266 . S
C332 C331 1.514 . S
C332 C333 1.359 . S
C332 C337 1.348 . S
C333 C332 1.359 . S
C333 C334 1.380 . S
C333 H356 0.929 . S
C334 C333 1.380 . S
C334 C335 1.347 . S
C334 H357 0.931 . S
C335 C334 1.347 . S
C335 C336 1.369 . S
C336 C335 1.369 . S
C336 C337 1.408 . S
C336 H358 0.930 . S
C337 C332 1.348 . S
C337 C336 1.408 . S
C337 H359 0.930 . S
C338 O348 1.281 . S
C338 O349 1.254 . S
C339 O350 1.236 . S
C339 O351 1.266 . S
O340 Tb320 2.484 . S
O340 C322 1.248 . S
O341 Tb320 2.440 . S
O341 C322 1.266 . S
O342 Tb320 2.658 . S
O342 Tb321 2.325 . S
O342 C329 1.281 . S
O343 Tb320 2.409 . S
O343 C329 1.254 . S
O344 Tb320 2.378 . S
O344 C330 1.236 . S
O345 Tb321 2.341 . S
O345 C330 1.266 . S
O346 Tb321 2.484 . S
O346 C331 1.248 . S
O347 Tb321 2.440 . S
O347 C331 1.266 . S
O348 Tb320 2.325 . S
O348 Tb321 2.658 . S
O348 C338 1.281 . S
O349 Tb321 2.409 . S
O349 C338 1.254 . S
O350 Tb321 2.378 . S
O350 C339 1.236 . S
O351 Tb320 2.341 . S
O351 C339 1.266 . S
H352 C324 0.929 . S
H353 C325 0.931 . S
H354 C327 0.930 . S
H355 C328 0.930 . S
H356 C333 0.929 . S
H357 C334 0.931 . S
H358 C336 0.930 . S
H359 C337 0.930 . S
Tb360 C362 2.809 . S
Tb360 O380 2.484 . S
Tb360 O381 2.440 . S
Tb360 O382 2.658 . S
Tb360 O383 2.409 . S
Tb360 O384 2.378 . S
Tb360 O388 2.325 . S
Tb360 O391 2.341 . S
Tb361 C371 2.809 . S
Tb361 O382 2.325 . S
Tb361 O385 2.341 . S
Tb361 O386 2.484 . S
Tb361 O387 2.440 . S
Tb361 O388 2.658 . S
Tb361 O389 2.409 . S
Tb361 O390 2.378 . S
C362 Tb360 2.809 . S
C362 C363 1.514 . S
C362 O380 1.248 . S
C362 O381 1.266 . S
C363 C362 1.514 . S
C363 C364 1.359 . S
C363 C368 1.348 . S
C364 C363 1.359 . S
C364 C365 1.380 . S
C364 H392 0.929 . S
C365 C364 1.380 . S
C365 C366 1.347 . S
C365 H393 0.931 . S
C366 C365 1.347 . S
C366 C367 1.369 . S
C367 C366 1.369 . S
C367 C368 1.408 . S
C367 H394 0.930 . S
C368 C363 1.348 . S
C368 C367 1.408 . S
C368 H395 0.930 . S
C369 O382 1.281 . S
C369 O383 1.254 . S
C370 O384 1.236 . S
C370 O385 1.266 . S
C371 Tb361 2.809 . S
C371 C372 1.514 . S
C371 O386 1.248 . S
C371 O387 1.266 . S
C372 C371 1.514 . S
C372 C373 1.359 . S
C372 C377 1.348 . S
C373 C372 1.359 . S
C373 C374 1.380 . S
C373 H396 0.929 . S
C374 C373 1.380 . S
C374 C375 1.347 . S
C374 H397 0.931 . S
C375 C374 1.347 . S
C375 C376 1.369 . S
C376 C375 1.369 . S
C376 C377 1.408 . S
C376 H398 0.930 . S
C377 C372 1.348 . S
C377 C376 1.408 . S
C377 H399 0.930 . S
C378 O388 1.281 . S
C378 O389 1.254 . S
C379 O390 1.236 . S
C379 O391 1.266 . S
O380 Tb360 2.484 . S
O380 C362 1.248 . S
O381 Tb360 2.440 . S
O381 C362 1.266 . S
O382 Tb360 2.658 . S
O382 Tb361 2.325 . S
O382 C369 1.281 . S
O383 Tb360 2.409 . S
O383 C369 1.254 . S
O384 Tb360 2.378 . S
O384 C370 1.236 . S
O385 Tb361 2.341 . S
O385 C370 1.266 . S
O386 Tb361 2.484 . S
O386 C371 1.248 . S
O387 Tb361 2.440 . S
O387 C371 1.266 . S
O388 Tb360 2.325 . S
O388 Tb361 2.658 . S
O388 C378 1.281 . S
O389 Tb361 2.409 . S
O389 C378 1.254 . S
O390 Tb361 2.378 . S
O390 C379 1.236 . S
O391 Tb360 2.341 . S
O391 C379 1.266 . S
H392 C364 0.929 . S
H393 C365 0.931 . S
H394 C367 0.930 . S
H395 C368 0.930 . S
H396 C373 0.929 . S
H397 C374 0.931 . S
H398 C376 0.930 . S
H399 C377 0.930 . S
Tb400 C402 2.809 . S
Tb400 O420 2.484 . S
Tb400 O421 2.440 . S
Tb400 O422 2.658 . S
Tb400 O423 2.409 . S
Tb400 O424 2.378 . S
Tb400 O428 2.325 . S
Tb400 O431 2.341 . S
Tb401 C411 2.809 . S
Tb401 O422 2.325 . S
Tb401 O425 2.341 . S
Tb401 O426 2.484 . S
Tb401 O427 2.440 . S
Tb401 O428 2.658 . S
Tb401 O429 2.409 . S
Tb401 O430 2.378 . S
C402 Tb400 2.809 . S
C402 C403 1.514 . S
C402 O420 1.248 . S
C402 O421 1.266 . S
C403 C402 1.514 . S
C403 C404 1.359 . S
C403 C408 1.348 . S
C404 C403 1.359 . S
C404 C405 1.380 . S
C404 H432 0.929 . S
C405 C404 1.380 . S
C405 C406 1.357 . S
C405 H433 0.931 . S
C406 C405 1.357 . S
C406 C407 1.377 . S
C407 C406 1.377 . S
C407 C408 1.408 . S
C407 H434 0.930 . S
C408 C403 1.348 . S
C408 C407 1.408 . S
C408 H435 0.930 . S
C409 O422 1.281 . S
C409 O423 1.254 . S
C410 O424 1.236 . S
C410 O425 1.266 . S
C411 Tb401 2.809 . S
C411 C412 1.514 . S
C411 O426 1.248 . S
C411 O427 1.266 . S
C412 C411 1.514 . S
C412 C413 1.359 . S
C412 C417 1.348 . S
C413 C412 1.359 . S
C413 C414 1.380 . S
C413 H436 0.929 . S
C414 C413 1.380 . S
C414 C415 1.347 . S
C414 H437 0.931 . S
C415 C414 1.347 . S
C415 C416 1.369 . S
C416 C415 1.369 . S
C416 C417 1.408 . S
C416 H438 0.930 . S
C417 C412 1.348 . S
C417 C416 1.408 . S
C417 H439 0.930 . S
C418 O428 1.281 . S
C418 O429 1.254 . S
C419 O430 1.236 . S
C419 O431 1.266 . S
O420 Tb400 2.484 . S
O420 C402 1.248 . S
O421 Tb400 2.440 . S
O421 C402 1.266 . S
O422 Tb400 2.658 . S
O422 Tb401 2.325 . S
O422 C409 1.281 . S
O423 Tb400 2.409 . S
O423 C409 1.254 . S
O424 Tb400 2.378 . S
O424 C410 1.236 . S
O425 Tb401 2.341 . S
O425 C410 1.266 . S
O426 Tb401 2.484 . S
O426 C411 1.248 . S
O427 Tb401 2.440 . S
O427 C411 1.266 . S
O428 Tb400 2.325 . S
O428 Tb401 2.658 . S
O428 C418 1.281 . S
O429 Tb401 2.409 . S
O429 C418 1.254 . S
O430 Tb401 2.378 . S
O430 C419 1.236 . S
O431 Tb400 2.341 . S
O431 C419 1.266 . S
H432 C404 0.929 . S
H433 C405 0.931 . S
H434 C407 0.930 . S
H435 C408 0.930 . S
H436 C413 0.929 . S
H437 C414 0.931 . S
H438 C416 0.930 . S
H439 C417 0.930 . S
Tb440 C442 2.809 1_554 S
Tb440 O460 2.484 . S
Tb440 O461 2.440 . S
Tb440 O462 2.658 . S
Tb440 O463 2.409 . S
Tb440 O464 2.378 . S
Tb440 O468 2.325 . S
Tb440 O471 2.341 . S
Tb441 C451 2.809 . S
Tb441 O462 2.325 . S
Tb441 O465 2.341 . S
Tb441 O466 2.484 . S
Tb441 O467 2.440 . S
Tb441 O468 2.658 . S
Tb441 O469 2.409 . S
Tb441 O470 2.378 . S
C442 Tb440 2.809 1_556 S
C442 C443 1.514 . S
C442 O460 1.248 1_556 S
C442 O461 1.266 1_556 S
C443 C442 1.514 . S
C443 C444 1.359 . S
C443 C448 1.348 . S
C444 C443 1.359 . S
C444 C445 1.380 . S
C444 H472 0.929 . S
C445 C444 1.380 . S
C445 C446 1.347 . S
C445 H473 0.931 . S
C446 C445 1.347 . S
C446 C447 1.369 . S
C447 C446 1.369 . S
C447 C448 1.408 . S
C447 H474 0.930 . S
C448 C443 1.348 . S
C448 C447 1.408 . S
C448 H475 0.930 . S
C449 O462 1.281 . S
C449 O463 1.254 . S
C450 O464 1.236 . S
C450 O465 1.266 . S
C451 Tb441 2.809 . S
C451 C452 1.514 . S
C451 O466 1.248 . S
C451 O467 1.266 . S
C452 C451 1.514 . S
C452 C453 1.359 . S
C452 C457 1.348 . S
C453 C452 1.359 . S
C453 C454 1.380 . S
C453 H476 0.929 . S
C454 C453 1.380 . S
C454 C455 1.347 . S
C454 H477 0.931 . S
C455 C454 1.347 . S
C455 C456 1.369 . S
C456 C455 1.369 . S
C456 C457 1.408 . S
C456 H478 0.930 . S
C457 C452 1.348 . S
C457 C456 1.408 . S
C457 H479 0.930 . S
C458 O468 1.281 . S
C458 O469 1.254 . S
C459 O470 1.236 . S
C459 O471 1.266 . S
O460 Tb440 2.484 . S
O460 C442 1.248 1_554 S
O461 Tb440 2.440 . S
O461 C442 1.266 1_554 S
O462 Tb440 2.658 . S
O462 Tb441 2.325 . S
O462 C449 1.281 . S
O463 Tb440 2.409 . S
O463 C449 1.254 . S
O464 Tb440 2.378 . S
O464 C450 1.236 . S
O465 Tb441 2.341 . S
O465 C450 1.266 . S
O466 Tb441 2.484 . S
O466 C451 1.248 . S
O467 Tb441 2.440 . S
O467 C451 1.266 . S
O468 Tb440 2.325 . S
O468 Tb441 2.658 . S
O468 C458 1.281 . S
O469 Tb441 2.409 . S
O469 C458 1.254 . S
O470 Tb441 2.378 . S
O470 C459 1.236 . S
O471 Tb440 2.341 . S
O471 C459 1.266 . S
H472 C444 0.929 . S
H473 C445 0.931 . S
H474 C447 0.930 . S
H475 C448 0.930 . S
H476 C453 0.929 . S
H477 C454 0.931 . S
H478 C456 0.930 . S
H479 C457 0.930 . S
Tb480 C482 2.809 1_554 S
Tb480 O500 2.484 . S
Tb480 O501 2.440 . S
Tb480 O502 2.658 . S
Tb480 O503 2.409 . S
Tb480 O504 2.378 . S
Tb480 O508 2.325 . S
Tb480 O511 2.341 . S
Tb481 C491 2.809 . S
Tb481 O502 2.325 . S
Tb481 O505 2.341 . S
Tb481 O506 2.484 . S
Tb481 O507 2.440 . S
Tb481 O508 2.658 . S
Tb481 O509 2.409 . S
Tb481 O510 2.378 . S
C482 Tb480 2.809 1_556 S
C482 C483 1.514 . S
C482 O500 1.248 1_556 S
C482 O501 1.266 1_556 S
C483 C482 1.514 . S
C483 C484 1.359 . S
C483 C488 1.348 . S
C484 C483 1.359 . S
C484 C485 1.380 . S
C484 H512 0.929 . S
C485 C484 1.380 . S
C485 C486 1.347 . S
C485 H513 0.931 . S
C486 C485 1.347 . S
C486 C487 1.369 . S
C487 C486 1.369 . S
C487 C488 1.408 . S
C487 H514 0.930 . S
C488 C483 1.348 . S
C488 C487 1.408 . S
C488 H515 0.930 . S
C489 O502 1.281 . S
C489 O503 1.254 . S
C490 O504 1.236 . S
C490 O505 1.266 . S
C491 Tb481 2.809 . S
C491 C492 1.514 . S
C491 O506 1.248 . S
C491 O507 1.266 . S
C492 C491 1.514 . S
C492 C493 1.359 . S
C492 C497 1.348 . S
C493 C492 1.359 . S
C493 C494 1.380 . S
C493 H516 0.929 . S
C494 C493 1.380 . S
C494 C495 1.347 . S
C494 H517 0.931 . S
C495 C494 1.347 . S
C495 C496 1.369 . S
C496 C495 1.369 . S
C496 C497 1.408 . S
C496 H518 0.930 . S
C497 C492 1.348 . S
C497 C496 1.408 . S
C497 H519 0.930 . S
C498 O508 1.281 . S
C498 O509 1.254 . S
C499 O510 1.236 . S
C499 O511 1.266 . S
O500 Tb480 2.484 . S
O500 C482 1.248 1_554 S
O501 Tb480 2.440 . S
O501 C482 1.266 1_554 S
O502 Tb480 2.658 . S
O502 Tb481 2.325 . S
O502 C489 1.281 . S
O503 Tb480 2.409 . S
O503 C489 1.254 . S
O504 Tb480 2.378 . S
O504 C490 1.236 . S
O505 Tb481 2.341 . S
O505 C490 1.266 . S
O506 Tb481 2.484 . S
O506 C491 1.248 . S
O507 Tb481 2.440 . S
O507 C491 1.266 . S
O508 Tb480 2.325 . S
O508 Tb481 2.658 . S
O508 C498 1.281 . S
O509 Tb481 2.409 . S
O509 C498 1.254 . S
O510 Tb481 2.378 . S
O510 C499 1.236 . S
O511 Tb480 2.341 . S
O511 C499 1.266 . S
H512 C484 0.929 . S
H513 C485 0.931 . S
H514 C487 0.930 . S
H515 C488 0.930 . S
H516 C493 0.929 . S
H517 C494 0.931 . S
H518 C496 0.930 . S
H519 C497 0.930 . S
Tb520 C522 2.809 . S
Tb520 O540 2.484 . S
Tb520 O541 2.440 . S
Tb520 O542 2.658 . S
Tb520 O543 2.409 . S
Tb520 O544 2.378 . S
Tb520 O548 2.325 . S
Tb520 O551 2.341 . S
Tb521 C531 2.809 . S
Tb521 O542 2.325 . S
Tb521 O545 2.341 . S
Tb521 O546 2.484 . S
Tb521 O547 2.440 . S
Tb521 O548 2.658 . S
Tb521 O549 2.409 . S
Tb521 O550 2.378 . S
C522 Tb520 2.809 . S
C522 C523 1.514 . S
C522 O540 1.248 . S
C522 O541 1.266 . S
C523 C522 1.514 . S
C523 C524 1.359 . S
C523 C528 1.348 . S
C524 C523 1.359 . S
C524 C525 1.380 . S
C524 H552 0.929 . S
C525 C524 1.380 . S
C525 C526 1.347 . S
C525 H553 0.931 . S
C526 C525 1.347 . S
C526 C527 1.369 . S
C527 C526 1.369 . S
C527 C528 1.408 . S
C527 H554 0.930 . S
C528 C523 1.348 . S
C528 C527 1.408 . S
C528 H555 0.930 . S
C529 O542 1.281 . S
C529 O543 1.254 . S
C530 O544 1.236 . S
C530 O545 1.266 . S
C531 Tb521 2.809 . S
C531 C532 1.514 1_556 S
C531 O546 1.248 . S
C531 O547 1.266 . S
C532 C531 1.514 1_554 S
C532 C533 1.359 . S
C532 C537 1.348 . S
C533 C532 1.359 . S
C533 C534 1.380 . S
C533 H556 0.929 . S
C534 C533 1.380 . S
C534 C535 1.347 . S
C534 H557 0.931 . S
C535 C534 1.347 . S
C535 C536 1.369 . S
C536 C535 1.369 . S
C536 C537 1.408 . S
C536 H558 0.930 . S
C537 C532 1.348 . S
C537 C536 1.408 . S
C537 H559 0.930 . S
C538 O548 1.281 . S
C538 O549 1.254 . S
C539 O550 1.236 . S
C539 O551 1.266 . S
O540 Tb520 2.484 . S
O540 C522 1.248 . S
O541 Tb520 2.440 . S
O541 C522 1.266 . S
O542 Tb520 2.658 . S
O542 Tb521 2.325 . S
O542 C529 1.281 . S
O543 Tb520 2.409 . S
O543 C529 1.254 . S
O544 Tb520 2.378 . S
O544 C530 1.236 . S
O545 Tb521 2.341 . S
O545 C530 1.266 . S
O546 Tb521 2.484 . S
O546 C531 1.248 . S
O547 Tb521 2.440 . S
O547 C531 1.266 . S
O548 Tb520 2.325 . S
O548 Tb521 2.658 . S
O548 C538 1.281 . S
O549 Tb521 2.409 . S
O549 C538 1.254 . S
O550 Tb521 2.378 . S
O550 C539 1.236 . S
O551 Tb520 2.341 . S
O551 C539 1.266 . S
H552 C524 0.929 . S
H553 C525 0.931 . S
H554 C527 0.930 . S
H555 C528 0.930 . S
H556 C533 0.929 . S
H557 C534 0.931 . S
H558 C536 0.930 . S
H559 C537 0.930 . S
Tb560 C562 2.809 . S
Tb560 O580 2.484 . S
Tb560 O581 2.440 . S
Tb560 O582 2.658 . S
Tb560 O583 2.409 . S
Tb560 O584 2.378 . S
Tb560 O588 2.325 . S
Tb560 O591 2.341 . S
Tb561 C571 2.809 . S
Tb561 O582 2.325 . S
Tb561 O585 2.341 . S
Tb561 O586 2.484 . S
Tb561 O587 2.440 . S
Tb561 O588 2.658 . S
Tb561 O589 2.409 . S
Tb561 O590 2.378 . S
C562 Tb560 2.809 . S
C562 C563 1.514 . S
C562 O580 1.248 . S
C562 O581 1.266 . S
C563 C562 1.514 . S
C563 C564 1.359 . S
C563 C568 1.348 . S
C564 C563 1.359 . S
C564 C565 1.380 . S
C564 H592 0.929 . S
C565 C564 1.380 . S
C565 C566 1.347 . S
C565 H593 0.931 . S
C566 C565 1.347 . S
C566 C567 1.369 . S
C567 C566 1.369 . S
C567 C568 1.408 . S
C567 H594 0.930 . S
C568 C563 1.348 . S
C568 C567 1.408 . S
C568 H595 0.930 . S
C569 O582 1.281 . S
C569 O583 1.254 . S
C570 O584 1.236 . S
C570 O585 1.266 . S
C571 Tb561 2.809 . S
C571 C572 1.514 . S
C571 O586 1.248 . S
C571 O587 1.266 . S
C572 C571 1.514 . S
C572 C573 1.359 . S
C572 C577 1.348 . S
C573 C572 1.359 . S
C573 C574 1.380 . S
C573 H596 0.929 . S
C574 C573 1.380 . S
C574 C575 1.347 . S
C574 H597 0.931 . S
C575 C574 1.347 . S
C575 C576 1.369 . S
C576 C575 1.369 . S
C576 C577 1.408 . S
C576 H598 0.930 . S
C577 C572 1.348 . S
C577 C576 1.408 . S
C577 H599 0.930 . S
C578 O588 1.281 . S
C578 O589 1.254 . S
C579 O590 1.236 . S
C579 O591 1.266 . S
O580 Tb560 2.484 . S
O580 C562 1.248 . S
O581 Tb560 2.440 . S
O581 C562 1.266 . S
O582 Tb560 2.658 . S
O582 Tb561 2.325 . S
O582 C569 1.281 . S
O583 Tb560 2.409 . S
O583 C569 1.254 . S
O584 Tb560 2.378 . S
O584 C570 1.236 . S
O585 Tb561 2.341 . S
O585 C570 1.266 . S
O586 Tb561 2.484 . S
O586 C571 1.248 . S
O587 Tb561 2.440 . S
O587 C571 1.266 . S
O588 Tb560 2.325 . S
O588 Tb561 2.658 . S
O588 C578 1.281 . S
O589 Tb561 2.409 . S
O589 C578 1.254 . S
O590 Tb561 2.378 . S
O590 C579 1.236 . S
O591 Tb560 2.341 . S
O591 C579 1.266 . S
H592 C564 0.929 . S
H593 C565 0.931 . S
H594 C567 0.930 . S
H595 C568 0.930 . S
H596 C573 0.929 . S
H597 C574 0.931 . S
H598 C576 0.930 . S
H599 C577 0.930 . S
Tb600 C602 2.809 . S
Tb600 O620 2.484 . S
Tb600 O621 2.440 . S
Tb600 O622 2.658 . S
Tb600 O623 2.409 . S
Tb600 O624 2.378 . S
Tb600 O628 2.325 . S
Tb600 O631 2.341 . S
Tb601 C611 2.809 . S
Tb601 O622 2.325 . S
Tb601 O625 2.341 . S
Tb601 O626 2.484 . S
Tb601 O627 2.440 . S
Tb601 O628 2.658 . S
Tb601 O629 2.409 . S
Tb601 O630 2.378 . S
C602 Tb600 2.809 . S
C602 C603 1.514 . S
C602 O620 1.248 . S
C602 O621 1.266 . S
C603 C602 1.514 . S
C603 C604 1.359 . S
C603 C608 1.348 . S
C604 C603 1.359 . S
C604 C605 1.380 . S
C604 H632 0.929 . S
C605 C604 1.380 . S
C605 C606 1.347 . S
C605 H633 0.931 . S
C606 C605 1.347 . S
C606 C607 1.369 . S
C607 C606 1.369 . S
C607 C608 1.408 . S
C607 H634 0.930 . S
C608 C603 1.348 . S
C608 C607 1.408 . S
C608 H635 0.930 . S
C609 O622 1.281 . S
C609 O623 1.254 . S
C610 O624 1.236 . S
C610 O625 1.266 . S
C611 Tb601 2.809 . S
C611 C612 1.514 . S
C611 O626 1.248 . S
C611 O627 1.266 . S
C612 C611 1.514 . S
C612 C613 1.359 . S
C612 C617 1.348 . S
C613 C612 1.359 . S
C613 C614 1.380 . S
C613 H636 0.929 . S
C614 C613 1.380 . S
C614 C615 1.347 1_554 S
C614 H637 0.931 . S
C615 C614 1.347 1_556 S
C615 C616 1.369 1_556 S
C616 C615 1.369 1_554 S
C616 C617 1.408 . S
C616 H638 0.930 1_554 S
C617 C612 1.348 . S
C617 C616 1.408 . S
C617 H639 0.930 . S
C618 O628 1.281 . S
C618 O629 1.254 . S
C619 O630 1.236 . S
C619 O631 1.266 . S
O620 Tb600 2.484 . S
O620 C602 1.248 . S
O621 Tb600 2.440 . S
O621 C602 1.266 . S
O622 Tb600 2.658 . S
O622 Tb601 2.325 . S
O622 C609 1.281 . S
O623 Tb600 2.409 . S
O623 C609 1.254 . S
O624 Tb600 2.378 . S
O624 C610 1.236 . S
O625 Tb601 2.341 . S
O625 C610 1.266 . S
O626 Tb601 2.484 . S
O626 C611 1.248 . S
O627 Tb601 2.440 . S
O627 C611 1.266 . S
O628 Tb600 2.325 . S
O628 Tb601 2.658 . S
O628 C618 1.281 . S
O629 Tb601 2.409 . S
O629 C618 1.254 . S
O630 Tb601 2.378 . S
O630 C619 1.236 . S
O631 Tb600 2.341 . S
O631 C619 1.266 . S
H632 C604 0.929 . S
H633 C605 0.931 . S
H634 C607 0.930 . S
H635 C608 0.930 . S
H636 C613 0.929 . S
H637 C614 0.931 . S
H638 C616 0.930 1_556 S
H639 C617 0.930 . S
H640 C652 0.930 . S
H641 C654 0.930 . S
H642 C655 0.930 . S
H643 C659 0.959 . S
H644 C659 0.959 . S
H645 C659 0.961 . S
H646 C660 0.960 . S
H647 C660 0.961 . S
H648 C660 0.959 . S
H649 C663 0.929 . S
H650 C664 0.931 . S
H651 C666 0.930 . S
C652 H640 0.930 . S
C652 C653 1.399 . S
C652 C657 1.399 . S
C653 C652 1.399 . S
C653 C654 1.376 . S
C654 H641 0.930 . S
C654 C653 1.376 . S
C654 C655 1.388 . S
C655 H642 0.930 . S
C655 C654 1.388 . S
C655 C656 1.390 . S
C656 C655 1.390 . S
C656 C657 1.394 . S
C656 C662 1.465 . S
C657 C652 1.399 . S
C657 C656 1.394 . S
C657 C658 1.516 . S
C658 C657 1.516 . S
C658 C659 1.502 . S
C658 C660 1.561 . S
C658 C661 1.526 . S
C659 H643 0.959 . S
C659 H644 0.959 . S
C659 H645 0.961 . S
C659 C658 1.502 . S
C660 H646 0.960 . S
C660 H647 0.961 . S
C660 H648 0.959 . S
C660 C658 1.561 . S
C661 C658 1.526 . S
C661 C662 1.396 . S
C661 C666 1.390 . S
C662 C656 1.465 . S
C662 C661 1.396 . S
C662 C663 1.399 . S
C663 H649 0.929 . S
C663 C662 1.399 . S
C663 C664 1.385 . S
C664 H650 0.931 . S
C664 C663 1.385 . S
C664 C665 1.389 . S
C665 C664 1.389 . S
C665 C666 1.387 . S
C666 H651 0.930 . S
C666 C661 1.390 . S
C666 C665 1.387 . S
H667 C679 0.930 . S
H668 C681 0.930 . S
H669 C682 0.930 . S
H670 C686 0.959 . S
H671 C686 0.959 . S
H672 C686 0.961 . S
H673 C687 0.960 . S
H674 C687 0.961 . S
H675 C687 0.959 . S
H676 C690 0.929 . S
H677 C691 0.931 . S
H678 C693 0.930 . S
C679 H667 0.930 . S
C679 C680 1.399 . S
C679 C684 1.399 . S
C680 C679 1.399 . S
C680 C681 1.376 . S
C681 H668 0.930 . S
C681 C680 1.376 . S
C681 C682 1.388 . S
C682 H669 0.930 . S
C682 C681 1.388 . S
C682 C683 1.390 . S
C683 C682 1.390 . S
C683 C684 1.394 . S
C683 C689 1.465 . S
C684 C679 1.399 . S
C684 C683 1.394 . S
C684 C685 1.516 . S
C685 C684 1.516 . S
C685 C686 1.502 . S
C685 C687 1.561 . S
C685 C688 1.526 . S
C686 H670 0.959 . S
C686 H671 0.959 . S
C686 H672 0.961 . S
C686 C685 1.502 . S
C687 H673 0.960 . S
C687 H674 0.961 . S
C687 H675 0.959 . S
C687 C685 1.561 . S
C688 C685 1.526 . S
C688 C689 1.396 . S
C688 C693 1.390 . S
C689 C683 1.465 . S
C689 C688 1.396 . S
C689 C690 1.399 . S
C690 H676 0.929 . S
C690 C689 1.399 . S
C690 C691 1.385 . S
C691 H677 0.931 . S
C691 C690 1.385 . S
C691 C692 1.389 . S
C692 C691 1.389 . S
C692 C693 1.387 . S
C693 H678 0.930 . S
C693 C688 1.390 . S
C693 C692 1.387 . S
H694 C706 0.930 . S
H695 C708 0.930 . S
H696 C709 0.930 . S
H697 C713 0.959 . S
H698 C713 0.959 . S
H699 C713 0.961 . S
H700 C714 0.960 . S
H701 C714 0.961 . S
H702 C714 0.959 . S
H703 C717 0.929 . S
H704 C718 0.931 . S
H705 C720 0.930 . S
C706 H694 0.930 . S
C706 C707 1.399 . S
C706 C711 1.399 . S
C707 C706 1.399 . S
C707 C708 1.376 . S
C708 H695 0.930 . S
C708 C707 1.376 . S
C708 C709 1.388 . S
C709 H696 0.930 . S
C709 C708 1.388 . S
C709 C710 1.390 . S
C710 C709 1.390 . S
C710 C711 1.394 . S
C710 C716 1.465 . S
C711 C706 1.399 . S
C711 C710 1.394 . S
C711 C712 1.516 . S
C712 C711 1.516 . S
C712 C713 1.502 . S
C712 C714 1.561 . S
C712 C715 1.526 . S
C713 H697 0.959 . S
C713 H698 0.959 . S
C713 H699 0.961 . S
C713 C712 1.502 . S
C714 H700 0.960 . S
C714 H701 0.961 . S
C714 H702 0.959 . S
C714 C712 1.561 . S
C715 C712 1.526 . S
C715 C716 1.396 . S
C715 C720 1.390 . S
C716 C710 1.465 . S
C716 C715 1.396 . S
C716 C717 1.399 . S
C717 H703 0.929 . S
C717 C716 1.399 . S
C717 C718 1.385 . S
C718 H704 0.931 . S
C718 C717 1.385 . S
C718 C719 1.389 . S
C719 C718 1.389 . S
C719 C720 1.387 . S
C720 H705 0.930 . S
C720 C715 1.390 . S
C720 C719 1.387 . S
H721 C733 0.930 . S
H722 C735 0.930 . S
H723 C736 0.930 . S
H724 C740 0.959 . S
H725 C740 0.959 . S
H726 C740 0.961 . S
H727 C741 0.960 . S
H728 C741 0.961 . S
H729 C741 0.959 . S
H730 C744 0.929 . S
H731 C745 0.931 . S
H732 C747 0.930 . S
C733 H721 0.930 . S
C733 C734 1.399 . S
C733 C738 1.399 . S
C734 C733 1.399 . S
C734 C735 1.376 . S
C735 H722 0.930 . S
C735 C734 1.376 . S
C735 C736 1.388 . S
C736 H723 0.930 . S
C736 C735 1.388 . S
C736 C737 1.390 . S
C737 C736 1.390 . S
C737 C738 1.394 . S
C737 C743 1.465 . S
C738 C733 1.399 . S
C738 C737 1.394 . S
C738 C739 1.516 . S
C739 C738 1.516 . S
C739 C740 1.502 . S
C739 C741 1.561 . S
C739 C742 1.526 . S
C740 H724 0.959 . S
C740 H725 0.959 . S
C740 H726 0.961 . S
C740 C739 1.502 . S
C741 H727 0.960 . S
C741 H728 0.961 . S
C741 H729 0.959 . S
C741 C739 1.561 . S
C742 C739 1.526 . S
C742 C743 1.396 . S
C742 C747 1.390 . S
C743 C737 1.465 . S
C743 C742 1.396 . S
C743 C744 1.399 . S
C744 H730 0.929 . S
C744 C743 1.399 . S
C744 C745 1.385 . S
C745 H731 0.931 . S
C745 C744 1.385 . S
C745 C746 1.389 . S
C746 C745 1.389 . S
C746 C747 1.387 . S
C747 H732 0.930 . S
C747 C742 1.390 . S
C747 C746 1.387 . S
H748 C760 0.930 . S
H749 C762 0.930 . S
H750 C763 0.930 . S
H751 C767 0.959 . S
H752 C767 0.959 . S
H753 C767 0.961 . S
H754 C768 0.960 . S
H755 C768 0.961 . S
H756 C768 0.959 . S
H757 C771 0.929 . S
H758 C772 0.931 . S
H759 C774 0.930 . S
C760 H748 0.930 . S
C760 C761 1.399 . S
C760 C765 1.399 . S
C761 C760 1.399 . S
C761 C762 1.376 . S
C762 H749 0.930 . S
C762 C761 1.376 . S
C762 C763 1.388 . S
C763 H750 0.930 . S
C763 C762 1.388 . S
C763 C764 1.390 . S
C764 C763 1.390 . S
C764 C765 1.394 . S
C764 C770 1.465 . S
C765 C760 1.399 . S
C765 C764 1.394 . S
C765 C766 1.516 . S
C766 C765 1.516 . S
C766 C767 1.502 . S
C766 C768 1.561 . S
C766 C769 1.526 . S
C767 H751 0.959 . S
C767 H752 0.959 . S
C767 H753 0.961 . S
C767 C766 1.502 . S
C768 H754 0.960 . S
C768 H755 0.961 . S
C768 H756 0.959 . S
C768 C766 1.561 . S
C769 C766 1.526 . S
C769 C770 1.396 . S
C769 C774 1.390 . S
C770 C764 1.465 . S
C770 C769 1.396 . S
C770 C771 1.399 . S
C771 H757 0.929 . S
C771 C770 1.399 . S
C771 C772 1.385 . S
C772 H758 0.931 . S
C772 C771 1.385 . S
C772 C773 1.389 . S
C773 C772 1.389 . S
C773 C774 1.387 . S
C774 H759 0.930 . S
C774 C769 1.390 . S
C774 C773 1.387 . S
H775 C787 0.930 . S
H776 C789 0.930 . S
H777 C790 0.930 . S
H778 C794 0.959 . S
H779 C794 0.959 . S
H780 C794 0.961 . S
H781 C795 0.960 . S
H782 C795 0.961 . S
H783 C795 0.959 . S
H784 C798 0.929 . S
H785 C799 0.931 . S
H786 C801 0.930 . S
C787 H775 0.930 . S
C787 C788 1.399 . S
C787 C792 1.399 . S
C788 C787 1.399 . S
C788 C789 1.376 . S
C789 H776 0.930 . S
C789 C788 1.376 . S
C789 C790 1.388 . S
C790 H777 0.930 . S
C790 C789 1.388 . S
C790 C791 1.390 . S
C791 C790 1.390 . S
C791 C792 1.394 . S
C791 C797 1.465 . S
C792 C787 1.399 . S
C792 C791 1.394 . S
C792 C793 1.516 . S
C793 C792 1.516 . S
C793 C794 1.502 . S
C793 C795 1.561 . S
C793 C796 1.526 . S
C794 H778 0.959 . S
C794 H779 0.959 . S
C794 H780 0.961 . S
C794 C793 1.502 . S
C795 H781 0.960 . S
C795 H782 0.961 . S
C795 H783 0.959 . S
C795 C793 1.561 . S
C796 C793 1.526 . S
C796 C797 1.396 . S
C796 C801 1.390 . S
C797 C791 1.465 . S
C797 C796 1.396 . S
C797 C798 1.399 . S
C798 H784 0.929 . S
C798 C797 1.399 . S
C798 C799 1.385 . S
C799 H785 0.931 . S
C799 C798 1.385 . S
C799 C800 1.389 . S
C800 C799 1.389 . S
C800 C801 1.387 . S
C801 H786 0.930 . S
C801 C796 1.390 . S
C801 C800 1.387 . S
H802 C814 0.930 . S
H803 C816 0.930 . S
H804 C817 0.930 . S
H805 C821 0.959 . S
H806 C821 0.959 . S
H807 C821 0.961 . S
H808 C822 0.960 . S
H809 C822 0.961 . S
H810 C822 0.959 . S
H811 C825 0.929 . S
H812 C826 0.931 . S
H813 C828 0.930 . S
C814 H802 0.930 . S
C814 C815 1.399 . S
C814 C819 1.399 . S
C815 C814 1.399 . S
C815 C816 1.376 . S
C816 H803 0.930 . S
C816 C815 1.376 . S
C816 C817 1.388 . S
C817 H804 0.930 . S
C817 C816 1.388 . S
C817 C818 1.390 . S
C818 C817 1.390 . S
C818 C819 1.394 . S
C818 C824 1.465 . S
C819 C814 1.399 . S
C819 C818 1.394 . S
C819 C820 1.516 . S
C820 C819 1.516 . S
C820 C821 1.502 . S
C820 C822 1.561 . S
C820 C823 1.526 . S
C821 H805 0.959 . S
C821 H806 0.959 . S
C821 H807 0.961 . S
C821 C820 1.502 . S
C822 H808 0.960 . S
C822 H809 0.961 . S
C822 H810 0.959 . S
C822 C820 1.561 . S
C823 C820 1.526 . S
C823 C824 1.396 . S
C823 C828 1.390 . S
C824 C818 1.465 . S
C824 C823 1.396 . S
C824 C825 1.399 . S
C825 H811 0.929 . S
C825 C824 1.399 . S
C825 C826 1.385 . S
C826 H812 0.931 . S
C826 C825 1.385 . S
C826 C827 1.389 . S
C827 C826 1.389 . S
C827 C828 1.387 . S
C828 H813 0.930 . S
C828 C823 1.390 . S
C828 C827 1.387 . S
H829 C841 0.930 . S
H830 C843 0.930 . S
H831 C844 0.930 . S
H832 C848 0.959 . S
H833 C848 0.959 . S
H834 C848 0.961 . S
H835 C849 0.960 . S
H836 C849 0.961 . S
H837 C849 0.959 . S
H838 C852 0.929 . S
H839 C853 0.931 . S
H840 C855 0.930 . S
C841 H829 0.930 . S
C841 C842 1.399 . S
C841 C846 1.399 . S
C842 C841 1.399 . S
C842 C843 1.376 . S
C843 H830 0.930 . S
C843 C842 1.376 . S
C843 C844 1.388 . S
C844 H831 0.930 . S
C844 C843 1.388 . S
C844 C845 1.390 . S
C845 C844 1.390 . S
C845 C846 1.394 . S
C845 C851 1.465 . S
C846 C841 1.399 . S
C846 C845 1.394 . S
C846 C847 1.516 . S
C847 C846 1.516 . S
C847 C848 1.502 . S
C847 C849 1.561 . S
C847 C850 1.526 . S
C848 H832 0.959 . S
C848 H833 0.959 . S
C848 H834 0.961 . S
C848 C847 1.502 . S
C849 H835 0.960 . S
C849 H836 0.961 . S
C849 H837 0.959 . S
C849 C847 1.561 . S
C850 C847 1.526 . S
C850 C851 1.396 . S
C850 C855 1.390 . S
C851 C845 1.465 . S
C851 C850 1.396 . S
C851 C852 1.399 . S
C852 H838 0.929 . S
C852 C851 1.399 . S
C852 C853 1.385 . S
C853 H839 0.931 . S
C853 C852 1.385 . S
C853 C854 1.389 . S
C854 C853 1.389 . S
C854 C855 1.387 . S
C855 H840 0.930 . S
C855 C850 1.390 . S
C855 C854 1.387 . S
H856 C868 0.930 . S
H857 C870 0.930 . S
H858 C871 0.930 . S
H859 C875 0.959 . S
H860 C875 0.959 . S
H861 C875 0.961 . S
H862 C876 0.960 . S
H863 C876 0.961 . S
H864 C876 0.959 . S
H865 C879 0.929 . S
H866 C880 0.931 . S
H867 C882 0.930 . S
C868 H856 0.930 . S
C868 C869 1.399 . S
C868 C873 1.399 . S
C869 C868 1.399 . S
C869 C870 1.376 . S
C870 H857 0.930 . S
C870 C869 1.376 . S
C870 C871 1.388 . S
C871 H858 0.930 . S
C871 C870 1.388 . S
C871 C872 1.390 . S
C872 C871 1.390 . S
C872 C873 1.394 . S
C872 C878 1.465 . S
C873 C868 1.399 . S
C873 C872 1.394 . S
C873 C874 1.516 . S
C874 C873 1.516 . S
C874 C875 1.502 . S
C874 C876 1.561 . S
C874 C877 1.526 . S
C875 H859 0.959 . S
C875 H860 0.959 . S
C875 H861 0.961 . S
C875 C874 1.502 . S
C876 H862 0.960 . S
C876 H863 0.961 . S
C876 H864 0.959 . S
C876 C874 1.561 . S
C877 C874 1.526 . S
C877 C878 1.396 . S
C877 C882 1.390 . S
C878 C872 1.465 . S
C878 C877 1.396 . S
C878 C879 1.399 . S
C879 H865 0.929 . S
C879 C878 1.399 . S
C879 C880 1.385 . S
C880 H866 0.931 . S
C880 C879 1.385 . S
C880 C881 1.389 . S
C881 C880 1.389 . S
C881 C882 1.387 . S
C882 H867 0.930 . S
C882 C877 1.390 . S
C882 C881 1.387 . S
H883 C895 0.930 . S
H884 C897 0.930 . S
H885 C898 0.930 . S
H886 C902 0.959 . S
H887 C902 0.959 . S
H888 C902 0.961 . S
H889 C903 0.960 . S
H890 C903 0.961 . S
H891 C903 0.959 . S
H892 C906 0.929 . S
H893 C907 0.931 . S
H894 C909 0.930 . S
C895 H883 0.930 . S
C895 C896 1.399 . S
C895 C900 1.399 . S
C896 C895 1.399 . S
C896 C897 1.376 . S
C897 H884 0.930 . S
C897 C896 1.376 . S
C897 C898 1.388 . S
C898 H885 0.930 . S
C898 C897 1.388 . S
C898 C899 1.390 . S
C899 C898 1.390 . S
C899 C900 1.394 . S
C899 C905 1.465 . S
C900 C895 1.399 . S
C900 C899 1.394 . S
C900 C901 1.516 . S
C901 C900 1.516 . S
C901 C902 1.502 . S
C901 C903 1.561 . S
C901 C904 1.526 . S
C902 H886 0.959 . S
C902 H887 0.959 . S
C902 H888 0.961 . S
C902 C901 1.502 . S
C903 H889 0.960 . S
C903 H890 0.961 . S
C903 H891 0.959 . S
C903 C901 1.561 . S
C904 C901 1.526 . S
C904 C905 1.396 . S
C904 C909 1.390 . S
C905 C899 1.465 . S
C905 C904 1.396 . S
C905 C906 1.399 . S
C906 H892 0.929 . S
C906 C905 1.399 . S
C906 C907 1.385 . S
C907 H893 0.931 . S
C907 C906 1.385 . S
C907 C908 1.389 . S
C908 C907 1.389 . S
C908 C909 1.387 . S
C909 H894 0.930 . S
C909 C904 1.390 . S
C909 C908 1.387 . S
H910 C922 0.930 . S
H911 C924 0.930 . S
H912 C925 0.930 . S
H913 C929 0.959 . S
H914 C929 0.959 . S
H915 C929 0.961 . S
H916 C930 0.960 . S
H917 C930 0.961 . S
H918 C930 0.959 . S
H919 C933 0.929 . S
H920 C934 0.931 . S
H921 C936 0.930 . S
C922 H910 0.930 . S
C922 C923 1.399 . S
C922 C927 1.399 . S
C923 C922 1.399 . S
C923 C924 1.376 . S
C924 H911 0.930 . S
C924 C923 1.376 . S
C924 C925 1.388 . S
C925 H912 0.930 . S
C925 C924 1.388 . S
C925 C926 1.390 . S
C926 C925 1.390 . S
C926 C927 1.394 . S
C926 C932 1.465 . S
C927 C922 1.399 . S
C927 C926 1.394 . S
C927 C928 1.516 . S
C928 C927 1.516 . S
C928 C929 1.502 . S
C928 C930 1.561 . S
C928 C931 1.526 . S
C929 H913 0.959 . S
C929 H914 0.959 . S
C929 H915 0.961 . S
C929 C928 1.502 . S
C930 H916 0.960 . S
C930 H917 0.961 . S
C930 H918 0.959 . S
C930 C928 1.561 . S
C931 C928 1.526 . S
C931 C932 1.396 . S
C931 C936 1.390 . S
C932 C926 1.465 . S
C932 C931 1.396 . S
C932 C933 1.399 . S
C933 H919 0.929 . S
C933 C932 1.399 . S
C933 C934 1.385 . S
C934 H920 0.931 . S
C934 C933 1.385 . S
C934 C935 1.389 . S
C935 C934 1.389 . S
C935 C936 1.387 . S
C936 H921 0.930 . S
C936 C931 1.390 . S
C936 C935 1.387 . S
H937 C949 0.930 . S
H938 C951 0.930 . S
H939 C952 0.930 . S
H940 C956 0.959 . S
H941 C956 0.959 . S
H942 C956 0.961 . S
H943 C957 0.960 . S
H944 C957 0.961 . S
H945 C957 0.959 . S
H946 C960 0.929 . S
H947 C961 0.931 . S
H948 C963 0.930 . S
C949 H937 0.930 . S
C949 C950 1.399 . S
C949 C954 1.399 . S
C950 C949 1.399 . S
C950 C951 1.376 . S
C951 H938 0.930 . S
C951 C950 1.376 . S
C951 C952 1.388 . S
C952 H939 0.930 . S
C952 C951 1.388 . S
C952 C953 1.390 . S
C953 C952 1.390 . S
C953 C954 1.394 . S
C953 C959 1.465 . S
C954 C949 1.399 . S
C954 C953 1.394 . S
C954 C955 1.516 . S
C955 C954 1.516 . S
C955 C956 1.502 . S
C955 C957 1.561 . S
C955 C958 1.526 . S
C956 H940 0.959 . S
C956 H941 0.959 . S
C956 H942 0.961 . S
C956 C955 1.502 . S
C957 H943 0.960 . S
C957 H944 0.961 . S
C957 H945 0.959 . S
C957 C955 1.561 . S
C958 C955 1.526 . S
C958 C959 1.396 . S
C958 C963 1.390 . S
C959 C953 1.465 . S
C959 C958 1.396 . S
C959 C960 1.399 . S
C960 H946 0.929 . S
C960 C959 1.399 . S
C960 C961 1.385 . S
C961 H947 0.931 . S
C961 C960 1.385 . S
C961 C962 1.389 . S
C962 C961 1.389 . S
C962 C963 1.387 . S
C963 H948 0.930 . S
C963 C958 1.390 . S
C963 C962 1.387 . S
H964 C976 0.930 . S
H965 C978 0.930 . S
H966 C979 0.930 . S
H967 C983 0.959 . S
H968 C983 0.959 . S
H969 C983 0.961 . S
H970 C984 0.960 . S
H971 C984 0.961 . S
H972 C984 0.959 . S
H973 C987 0.929 . S
H974 C988 0.931 . S
H975 C990 0.930 . S
C976 H964 0.930 . S
C976 C977 1.399 . S
C976 C981 1.399 . S
C977 C976 1.399 . S
C977 C978 1.376 . S
C978 H965 0.930 . S
C978 C977 1.376 . S
C978 C979 1.388 . S
C979 H966 0.930 . S
C979 C978 1.388 . S
C979 C980 1.390 . S
C980 C979 1.390 . S
C980 C981 1.394 . S
C980 C986 1.465 . S
C981 C976 1.399 . S
C981 C980 1.394 . S
C981 C982 1.516 . S
C982 C981 1.516 . S
C982 C983 1.502 . S
C982 C984 1.561 . S
C982 C985 1.526 . S
C983 H967 0.959 . S
C983 H968 0.959 . S
C983 H969 0.961 . S
C983 C982 1.502 . S
C984 H970 0.960 . S
C984 H971 0.961 . S
C984 H972 0.959 . S
C984 C982 1.561 . S
C985 C982 1.526 . S
C985 C986 1.396 . S
C985 C990 1.390 . S
C986 C980 1.465 . S
C986 C985 1.396 . S
C986 C987 1.399 . S
C987 H973 0.929 . S
C987 C986 1.399 . S
C987 C988 1.385 . S
C988 H974 0.931 . S
C988 C987 1.385 . S
C988 C989 1.389 . S
C989 C988 1.389 . S
C989 C990 1.387 . S
C990 H975 0.930 . S
C990 C985 1.390 . S
C990 C989 1.387 . S
H991 C1003 0.930 . S
H992 C1005 0.930 . S
H993 C1006 0.930 . S
H994 C1010 0.959 . S
H995 C1010 0.959 . S
H996 C1010 0.961 . S
H997 C1011 0.960 . S
H998 C1011 0.961 . S
H999 C1011 0.959 . S
H1000 C1014 0.929 . S
H1001 C1015 0.931 . S
H1002 C1017 0.930 . S
C1003 H991 0.930 . S
C1003 C1004 1.399 . S
C1003 C1008 1.399 . S
C1004 C1003 1.399 . S
C1004 C1005 1.376 . S
C1005 H992 0.930 . S
C1005 C1004 1.376 . S
C1005 C1006 1.388 . S
C1006 H993 0.930 . S
C1006 C1005 1.388 . S
C1006 C1007 1.390 . S
C1007 C1006 1.390 . S
C1007 C1008 1.394 . S
C1007 C1013 1.465 . S
C1008 C1003 1.399 . S
C1008 C1007 1.394 . S
C1008 C1009 1.516 . S
C1009 C1008 1.516 . S
C1009 C1010 1.502 . S
C1009 C1011 1.561 . S
C1009 C1012 1.526 . S
C1010 H994 0.959 . S
C1010 H995 0.959 . S
C1010 H996 0.961 . S
C1010 C1009 1.502 . S
C1011 H997 0.960 . S
C1011 H998 0.961 . S
C1011 H999 0.959 . S
C1011 C1009 1.561 . S
C1012 C1009 1.526 . S
C1012 C1013 1.396 . S
C1012 C1017 1.390 . S
C1013 C1007 1.465 . S
C1013 C1012 1.396 . S
C1013 C1014 1.399 . S
C1014 H1000 0.929 . S
C1014 C1013 1.399 . S
C1014 C1015 1.385 . S
C1015 H1001 0.931 . S
C1015 C1014 1.385 . S
C1015 C1016 1.389 . S
C1016 C1015 1.389 . S
C1016 C1017 1.387 . S
C1017 H1002 0.930 . S
C1017 C1012 1.390 . S
C1017 C1016 1.387 . S
H1018 C1030 0.930 . S
H1019 C1032 0.930 . S
H1020 C1033 0.930 . S
H1021 C1037 0.959 . S
H1022 C1037 0.959 . S
H1023 C1037 0.961 . S
H1024 C1038 0.960 . S
H1025 C1038 0.961 . S
H1026 C1038 0.959 . S
H1027 C1041 0.929 . S
H1028 C1042 0.931 . S
H1029 C1044 0.930 . S
C1030 H1018 0.930 . S
C1030 C1031 1.399 . S
C1030 C1035 1.399 . S
C1031 C1030 1.399 . S
C1031 C1032 1.376 . S
C1032 H1019 0.930 . S
C1032 C1031 1.376 . S
C1032 C1033 1.388 . S
C1033 H1020 0.930 . S
C1033 C1032 1.388 . S
C1033 C1034 1.390 . S
C1034 C1033 1.390 . S
C1034 C1035 1.394 . S
C1034 C1040 1.465 . S
C1035 C1030 1.399 . S
C1035 C1034 1.394 . S
C1035 C1036 1.516 . S
C1036 C1035 1.516 . S
C1036 C1037 1.502 . S
C1036 C1038 1.561 . S
C1036 C1039 1.526 . S
C1037 H1021 0.959 . S
C1037 H1022 0.959 . S
C1037 H1023 0.961 . S
C1037 C1036 1.502 . S
C1038 H1024 0.960 . S
C1038 H1025 0.961 . S
C1038 H1026 0.959 . S
C1038 C1036 1.561 . S
C1039 C1036 1.526 . S
C1039 C1040 1.396 . S
C1039 C1044 1.390 . S
C1040 C1034 1.465 . S
C1040 C1039 1.396 . S
C1040 C1041 1.399 . S
C1041 H1027 0.929 . S
C1041 C1040 1.399 . S
C1041 C1042 1.385 . S
C1042 H1028 0.931 . S
C1042 C1041 1.385 . S
C1042 C1043 1.389 . S
C1043 C1042 1.389 . S
C1043 C1044 1.387 . S
C1044 H1029 0.930 . S
C1044 C1039 1.390 . S
C1044 C1043 1.387 . S
H1045 C1057 0.930 . S
H1046 C1059 0.930 . S
H1047 C1060 0.930 . S
H1048 C1064 0.959 . S
H1049 C1064 0.959 . S
H1050 C1064 0.961 . S
H1051 C1065 0.960 . S
H1052 C1065 0.961 . S
H1053 C1065 0.959 . S
H1054 C1068 0.929 . S
H1055 C1069 0.931 . S
H1056 C1071 0.930 . S
C1057 H1045 0.930 . S
C1057 C1058 1.399 . S
C1057 C1062 1.399 . S
C1058 C1057 1.399 . S
C1058 C1059 1.376 . S
C1059 H1046 0.930 . S
C1059 C1058 1.376 . S
C1059 C1060 1.388 . S
C1060 H1047 0.930 . S
C1060 C1059 1.388 . S
C1060 C1061 1.390 . S
C1061 C1060 1.390 . S
C1061 C1062 1.394 . S
C1061 C1067 1.465 . S
C1062 C1057 1.399 . S
C1062 C1061 1.394 . S
C1062 C1063 1.516 . S
C1063 C1062 1.516 . S
C1063 C1064 1.502 . S
C1063 C1065 1.561 . S
C1063 C1066 1.526 . S
C1064 H1048 0.959 . S
C1064 H1049 0.959 . S
C1064 H1050 0.961 . S
C1064 C1063 1.502 . S
C1065 H1051 0.960 . S
C1065 H1052 0.961 . S
C1065 H1053 0.959 . S
C1065 C1063 1.561 . S
C1066 C1063 1.526 . S
C1066 C1067 1.396 . S
C1066 C1071 1.390 . S
C1067 C1061 1.465 . S
C1067 C1066 1.396 . S
C1067 C1068 1.399 . S
C1068 H1054 0.929 . S
C1068 C1067 1.399 . S
C1068 C1069 1.385 . S
C1069 H1055 0.931 . S
C1069 C1068 1.385 . S
C1069 C1070 1.389 . S
C1070 C1069 1.389 . S
C1070 C1071 1.387 . S
C1071 H1056 0.930 . S
C1071 C1066 1.390 . S
C1071 C1070 1.387 . S
H1072 C1084 0.930 . S
H1073 C1086 0.930 . S
H1074 C1087 0.930 . S
H1075 C1091 0.959 . S
H1076 C1091 0.959 . S
H1077 C1091 0.961 . S
H1078 C1092 0.960 . S
H1079 C1092 0.961 . S
H1080 C1092 0.959 . S
H1081 C1095 0.929 . S
H1082 C1096 0.931 . S
H1083 C1098 0.930 . S
C1084 H1072 0.930 . S
C1084 C1085 1.399 . S
C1084 C1089 1.399 . S
C1085 C1084 1.399 . S
C1085 C1086 1.376 . S
C1086 H1073 0.930 . S
C1086 C1085 1.376 . S
C1086 C1087 1.388 . S
C1087 H1074 0.930 . S
C1087 C1086 1.388 . S
C1087 C1088 1.390 . S
C1088 C1087 1.390 . S
C1088 C1089 1.394 . S
C1088 C1094 1.465 . S
C1089 C1084 1.399 . S
C1089 C1088 1.394 . S
C1089 C1090 1.516 . S
C1090 C1089 1.516 . S
C1090 C1091 1.502 . S
C1090 C1092 1.561 . S
C1090 C1093 1.526 . S
C1091 H1075 0.959 . S
C1091 H1076 0.959 . S
C1091 H1077 0.961 . S
C1091 C1090 1.502 . S
C1092 H1078 0.960 . S
C1092 H1079 0.961 . S
C1092 H1080 0.959 . S
C1092 C1090 1.561 . S
C1093 C1090 1.526 . S
C1093 C1094 1.396 . S
C1093 C1098 1.390 . S
C1094 C1088 1.465 . S
C1094 C1093 1.396 . S
C1094 C1095 1.399 . S
C1095 H1081 0.929 . S
C1095 C1094 1.399 . S
C1095 C1096 1.385 . S
C1096 H1082 0.931 . S
C1096 C1095 1.385 . S
C1096 C1097 1.389 . S
C1097 C1096 1.389 . S
C1097 C1098 1.387 . S
C1098 H1083 0.930 . S
C1098 C1093 1.390 . S
C1098 C1097 1.387 . S
H1099 C1111 0.930 . S
H1100 C1113 0.930 . S
H1101 C1114 0.930 . S
H1102 C1118 0.959 . S
H1103 C1118 0.959 . S
H1104 C1118 0.961 . S
H1105 C1119 0.960 . S
H1106 C1119 0.961 . S
H1107 C1119 0.959 . S
H1108 C1122 0.929 . S
H1109 C1123 0.931 . S
H1110 C1125 0.930 . S
C1111 H1099 0.930 . S
C1111 C1112 1.399 . S
C1111 C1116 1.399 . S
C1112 C1111 1.399 . S
C1112 C1113 1.376 . S
C1113 H1100 0.930 . S
C1113 C1112 1.376 . S
C1113 C1114 1.388 . S
C1114 H1101 0.930 . S
C1114 C1113 1.388 . S
C1114 C1115 1.390 . S
C1115 C1114 1.390 . S
C1115 C1116 1.394 . S
C1115 C1121 1.465 . S
C1116 C1111 1.399 . S
C1116 C1115 1.394 . S
C1116 C1117 1.516 . S
C1117 C1116 1.516 . S
C1117 C1118 1.502 . S
C1117 C1119 1.561 . S
C1117 C1120 1.526 . S
C1118 H1102 0.959 . S
C1118 H1103 0.959 . S
C1118 H1104 0.961 . S
C1118 C1117 1.502 . S
C1119 H1105 0.960 . S
C1119 H1106 0.961 . S
C1119 H1107 0.959 . S
C1119 C1117 1.561 . S
C1120 C1117 1.526 . S
C1120 C1121 1.396 . S
C1120 C1125 1.390 . S
C1121 C1115 1.465 . S
C1121 C1120 1.396 . S
C1121 C1122 1.399 . S
C1122 H1108 0.929 . S
C1122 C1121 1.399 . S
C1122 C1123 1.385 . S
C1123 H1109 0.931 . S
C1123 C1122 1.385 . S
C1123 C1124 1.389 . S
C1124 C1123 1.389 . S
C1124 C1125 1.387 . S
C1125 H1110 0.930 . S
C1125 C1120 1.390 . S
C1125 C1124 1.387 . S
H1126 C1138 0.930 . S
H1127 C1140 0.930 . S
H1128 C1141 0.930 . S
H1129 C1145 0.959 . S
H1130 C1145 0.959 . S
H1131 C1145 0.961 . S
H1132 C1146 0.960 . S
H1133 C1146 0.961 . S
H1134 C1146 0.959 . S
H1135 C1149 0.929 . S
H1136 C1150 0.931 . S
H1137 C1152 0.930 . S
C1138 H1126 0.930 . S
C1138 C1139 1.399 . S
C1138 C1143 1.399 . S
C1139 C1138 1.399 . S
C1139 C1140 1.376 . S
C1140 H1127 0.930 . S
C1140 C1139 1.376 . S
C1140 C1141 1.388 . S
C1141 H1128 0.930 . S
C1141 C1140 1.388 . S
C1141 C1142 1.390 . S
C1142 C1141 1.390 . S
C1142 C1143 1.394 . S
C1142 C1148 1.465 . S
C1143 C1138 1.399 . S
C1143 C1142 1.394 . S
C1143 C1144 1.516 . S
C1144 C1143 1.516 . S
C1144 C1145 1.502 . S
C1144 C1146 1.561 . S
C1144 C1147 1.526 . S
C1145 H1129 0.959 . S
C1145 H1130 0.959 . S
C1145 H1131 0.961 . S
C1145 C1144 1.502 . S
C1146 H1132 0.960 . S
C1146 H1133 0.961 . S
C1146 H1134 0.959 . S
C1146 C1144 1.561 . S
C1147 C1144 1.526 . S
C1147 C1148 1.396 . S
C1147 C1152 1.390 . S
C1148 C1142 1.465 . S
C1148 C1147 1.396 . S
C1148 C1149 1.399 . S
C1149 H1135 0.929 . S
C1149 C1148 1.399 . S
C1149 C1150 1.385 . S
C1150 H1136 0.931 . S
C1150 C1149 1.385 . S
C1150 C1151 1.389 . S
C1151 C1150 1.389 . S
C1151 C1152 1.387 . S
C1152 H1137 0.930 . S
C1152 C1147 1.390 . S
C1152 C1151 1.387 . S
H1153 C1165 0.930 . S
H1154 C1167 0.930 . S
H1155 C1168 0.930 . S
H1156 C1172 0.959 . S
H1157 C1172 0.959 . S
H1158 C1172 0.961 1_655 S
H1159 C1173 0.960 . S
H1160 C1173 0.961 1_455 S
H1161 C1173 0.959 . S
H1162 C1176 0.929 . S
H1163 C1177 0.931 . S
H1164 C1179 0.930 . S
C1165 H1153 0.930 . S
C1165 C1166 1.399 . S
C1165 C1170 1.399 . S
C1166 C1165 1.399 . S
C1166 C1167 1.376 . S
C1167 H1154 0.930 . S
C1167 C1166 1.376 . S
C1167 C1168 1.388 . S
C1168 H1155 0.930 . S
C1168 C1167 1.388 . S
C1168 C1169 1.390 . S
C1169 C1168 1.390 . S
C1169 C1170 1.394 . S
C1169 C1175 1.465 1_655 S
C1170 C1165 1.399 . S
C1170 C1169 1.394 . S
C1170 C1171 1.516 . S
C1171 C1170 1.516 . S
C1171 C1172 1.502 1_655 S
C1171 C1173 1.561 . S
C1171 C1174 1.526 1_655 S
C1172 H1156 0.959 . S
C1172 H1157 0.959 . S
C1172 H1158 0.961 1_455 S
C1172 C1171 1.502 1_455 S
C1173 H1159 0.960 . S
C1173 H1160 0.961 1_655 S
C1173 H1161 0.959 . S
C1173 C1171 1.561 . S
C1174 C1171 1.526 1_455 S
C1174 C1175 1.396 . S
C1174 C1179 1.390 . S
C1175 C1169 1.465 1_455 S
C1175 C1174 1.396 . S
C1175 C1176 1.399 . S
C1176 H1162 0.929 . S
C1176 C1175 1.399 . S
C1176 C1177 1.385 . S
C1177 H1163 0.931 . S
C1177 C1176 1.385 . S
C1177 C1178 1.389 . S
C1178 C1177 1.389 . S
C1178 C1179 1.387 . S
C1179 H1164 0.930 . S
C1179 C1174 1.390 . S
C1179 C1178 1.387 . S
H1180 C1192 0.930 . S
H1181 C1194 0.930 . S
H1182 C1195 0.930 . S
H1183 C1199 0.959 . S
H1184 C1199 0.959 . S
H1185 C1199 0.961 . S
H1186 C1200 0.960 . S
H1187 C1200 0.961 . S
H1188 C1200 0.959 . S
H1189 C1203 0.929 . S
H1190 C1204 0.931 . S
H1191 C1206 0.930 . S
C1192 H1180 0.930 . S
C1192 C1193 1.399 . S
C1192 C1197 1.399 . S
C1193 C1192 1.399 . S
C1193 C1194 1.376 . S
C1194 H1181 0.930 . S
C1194 C1193 1.376 . S
C1194 C1195 1.388 . S
C1195 H1182 0.930 . S
C1195 C1194 1.388 . S
C1195 C1196 1.390 . S
C1196 C1195 1.390 . S
C1196 C1197 1.394 . S
C1196 C1202 1.465 . S
C1197 C1192 1.399 . S
C1197 C1196 1.394 . S
C1197 C1198 1.516 . S
C1198 C1197 1.516 . S
C1198 C1199 1.502 . S
C1198 C1200 1.561 . S
C1198 C1201 1.526 . S
C1199 H1183 0.959 . S
C1199 H1184 0.959 . S
C1199 H1185 0.961 . S
C1199 C1198 1.502 . S
C1200 H1186 0.960 . S
C1200 H1187 0.961 . S
C1200 H1188 0.959 . S
C1200 C1198 1.561 . S
C1201 C1198 1.526 . S
C1201 C1202 1.396 . S
C1201 C1206 1.390 . S
C1202 C1196 1.465 . S
C1202 C1201 1.396 . S
C1202 C1203 1.399 . S
C1203 H1189 0.929 . S
C1203 C1202 1.399 . S
C1203 C1204 1.385 . S
C1204 H1190 0.931 . S
C1204 C1203 1.385 . S
C1204 C1205 1.389 . S
C1205 C1204 1.389 . S
C1205 C1206 1.387 . S
C1206 H1191 0.930 . S
C1206 C1201 1.390 . S
C1206 C1205 1.387 . S
H1207 C1219 0.930 . S
H1208 C1221 0.930 . S
H1209 C1222 0.930 . S
H1210 C1226 0.959 . S
H1211 C1226 0.959 . S
H1212 C1226 0.961 1_455 S
H1213 C1227 0.984 . S
H1214 C1227 0.937 1_655 S
H1215 C1227 0.960 . S
H1216 C1230 0.929 . S
H1217 C1231 0.931 . S
H1218 C1233 0.930 . S
C1219 H1207 0.930 . S
C1219 C1220 1.399 . S
C1219 C1224 1.399 . S
C1220 C1219 1.399 . S
C1220 C1221 1.376 . S
C1221 H1208 0.930 . S
C1221 C1220 1.376 . S
C1221 C1222 1.388 . S
C1222 H1209 0.930 . S
C1222 C1221 1.388 . S
C1222 C1223 1.390 . S
C1223 C1222 1.390 . S
C1223 C1224 1.394 . S
C1223 C1229 1.465 1_455 S
C1224 C1219 1.399 . S
C1224 C1223 1.394 . S
C1224 C1225 1.516 1_455 S
C1225 C1224 1.516 1_655 S
C1225 C1226 1.502 . S
C1225 C1227 1.560 1_655 S
C1225 C1228 1.526 . S
C1226 H1210 0.959 . S
C1226 H1211 0.959 . S
C1226 H1212 0.961 1_655 S
C1226 C1225 1.502 . S
C1227 H1213 0.984 . S
C1227 H1214 0.937 1_455 S
C1227 H1215 0.960 . S
C1227 C1225 1.560 1_455 S
C1228 C1225 1.526 . S
C1228 C1229 1.396 . S
C1228 C1233 1.390 . S
C1229 C1223 1.465 1_655 S
C1229 C1228 1.396 . S
C1229 C1230 1.399 . S
C1230 H1216 0.929 . S
C1230 C1229 1.399 . S
C1230 C1231 1.385 . S
C1231 H1217 0.931 . S
C1231 C1230 1.385 . S
C1231 C1232 1.389 . S
C1232 C1231 1.389 . S
C1232 C1233 1.387 . S
C1233 H1218 0.930 . S
C1233 C1228 1.390 . S
C1233 C1232 1.387 . S
H1234 C1246 0.930 . S
H1235 C1248 0.930 . S
H1236 C1249 0.930 . S
H1237 C1253 0.959 . S
H1238 C1253 0.959 . S
H1239 C1253 0.961 . S
H1240 C1254 0.960 . S
H1241 C1254 0.961 . S
H1242 C1254 0.959 . S
H1243 C1257 0.929 . S
H1244 C1258 0.931 . S
H1245 C1260 0.930 . S
C1246 H1234 0.930 . S
C1246 C1247 1.399 . S
C1246 C1251 1.399 . S
C1247 C1246 1.399 . S
C1247 C1248 1.376 . S
C1248 H1235 0.930 . S
C1248 C1247 1.376 . S
C1248 C1249 1.388 . S
C1249 H1236 0.930 . S
C1249 C1248 1.388 . S
C1249 C1250 1.390 . S
C1250 C1249 1.390 . S
C1250 C1251 1.394 . S
C1250 C1256 1.465 . S
C1251 C1246 1.399 . S
C1251 C1250 1.394 . S
C1251 C1252 1.516 . S
C1252 C1251 1.516 . S
C1252 C1253 1.502 . S
C1252 C1254 1.561 . S
C1252 C1255 1.526 . S
C1253 H1237 0.959 . S
C1253 H1238 0.959 . S
C1253 H1239 0.961 . S
C1253 C1252 1.502 . S
C1254 H1240 0.960 . S
C1254 H1241 0.961 . S
C1254 H1242 0.959 . S
C1254 C1252 1.561 . S
C1255 C1252 1.526 . S
C1255 C1256 1.396 . S
C1255 C1260 1.390 . S
C1256 C1250 1.465 . S
C1256 C1255 1.396 . S
C1256 C1257 1.399 . S
C1257 H1243 0.929 . S
C1257 C1256 1.399 . S
C1257 C1258 1.385 . S
C1258 H1244 0.931 . S
C1258 C1257 1.385 . S
C1258 C1259 1.389 . S
C1259 C1258 1.389 . S
C1259 C1260 1.387 . S
C1260 H1245 0.930 . S
C1260 C1255 1.390 . S
C1260 C1259 1.387 . S
H1261 C1273 0.930 . S
H1262 C1275 0.930 . S
H1263 C1276 0.930 . S
H1264 C1280 0.959 . S
H1265 C1280 0.959 . S
H1266 C1280 0.961 . S
H1267 C1281 0.960 . S
H1268 C1281 0.961 . S
H1269 C1281 0.959 . S
H1270 C1284 0.929 . S
H1271 C1285 0.931 . S
H1272 C1287 0.930 . S
C1273 H1261 0.930 . S
C1273 C1274 1.399 . S
C1273 C1278 1.399 . S
C1274 C1273 1.399 . S
C1274 C1275 1.376 . S
C1275 H1262 0.930 . S
C1275 C1274 1.376 . S
C1275 C1276 1.388 . S
C1276 H1263 0.930 . S
C1276 C1275 1.388 . S
C1276 C1277 1.390 . S
C1277 C1276 1.390 . S
C1277 C1278 1.394 . S
C1277 C1283 1.465 . S
C1278 C1273 1.399 . S
C1278 C1277 1.394 . S
C1278 C1279 1.516 . S
C1279 C1278 1.516 . S
C1279 C1280 1.502 . S
C1279 C1281 1.561 . S
C1279 C1282 1.526 . S
C1280 H1264 0.959 . S
C1280 H1265 0.959 . S
C1280 H1266 0.961 . S
C1280 C1279 1.502 . S
C1281 H1267 0.960 . S
C1281 H1268 0.961 . S
C1281 H1269 0.959 . S
C1281 C1279 1.561 . S
C1282 C1279 1.526 . S
C1282 C1283 1.396 . S
C1282 C1287 1.390 . S
C1283 C1277 1.465 . S
C1283 C1282 1.396 . S
C1283 C1284 1.399 . S
C1284 H1270 0.929 . S
C1284 C1283 1.399 . S
C1284 C1285 1.385 . S
C1285 H1271 0.931 . S
C1285 C1284 1.385 . S
C1285 C1286 1.389 . S
C1286 C1285 1.389 . S
C1286 C1287 1.387 . S
C1287 H1272 0.930 . S
C1287 C1282 1.390 . S
C1287 C1286 1.387 . S
H1288 C1300 0.930 . S
H1289 C1302 0.930 . S
H1290 C1303 0.930 . S
H1291 C1307 0.959 . S
H1292 C1307 0.959 . S
H1293 C1307 0.961 . S
H1294 C1308 0.960 . S
H1295 C1308 0.961 . S
H1296 C1308 0.959 . S
H1297 C1311 0.929 . S
H1298 C1312 0.931 . S
H1299 C1314 0.930 . S
C1300 H1288 0.930 . S
C1300 C1301 1.399 . S
C1300 C1305 1.399 . S
C1301 C1300 1.399 . S
C1301 C1302 1.376 . S
C1302 H1289 0.930 . S
C1302 C1301 1.376 . S
C1302 C1303 1.388 . S
C1303 H1290 0.930 . S
C1303 C1302 1.388 . S
C1303 C1304 1.390 . S
C1304 C1303 1.390 . S
C1304 C1305 1.394 . S
C1304 C1310 1.465 . S
C1305 C1300 1.399 . S
C1305 C1304 1.394 . S
C1305 C1306 1.516 . S
C1306 C1305 1.516 . S
C1306 C1307 1.502 . S
C1306 C1308 1.561 . S
C1306 C1309 1.526 . S
C1307 H1291 0.959 . S
C1307 H1292 0.959 . S
C1307 H1293 0.961 . S
C1307 C1306 1.502 . S
C1308 H1294 0.960 . S
C1308 H1295 0.961 . S
C1308 H1296 0.959 . S
C1308 C1306 1.561 . S
C1309 C1306 1.526 . S
C1309 C1310 1.396 . S
C1309 C1314 1.390 . S
C1310 C1304 1.465 . S
C1310 C1309 1.396 . S
C1310 C1311 1.399 . S
C1311 H1297 0.929 . S
C1311 C1310 1.399 . S
C1311 C1312 1.385 . S
C1312 H1298 0.931 . S
C1312 C1311 1.385 . S
C1312 C1313 1.389 . S
C1313 C1312 1.389 . S
C1313 C1314 1.387 . S
C1314 H1299 0.930 . S
C1314 C1309 1.390 . S
C1314 C1313 1.387 . S
H1315 C1327 0.930 . S
H1316 C1329 0.930 . S
H1317 C1330 0.930 . S
H1318 C1334 0.959 . S
H1319 C1334 0.959 . S
H1320 C1334 0.961 . S
H1321 C1335 0.960 . S
H1322 C1335 0.961 . S
H1323 C1335 0.959 . S
H1324 C1338 0.929 . S
H1325 C1339 0.931 . S
H1326 C1341 0.930 . S
C1327 H1315 0.930 . S
C1327 C1328 1.399 . S
C1327 C1332 1.399 . S
C1328 C1327 1.399 . S
C1328 C1329 1.376 . S
C1329 H1316 0.930 . S
C1329 C1328 1.376 . S
C1329 C1330 1.388 . S
C1330 H1317 0.930 . S
C1330 C1329 1.388 . S
C1330 C1331 1.390 . S
C1331 C1330 1.390 . S
C1331 C1332 1.394 . S
C1331 C1337 1.465 . S
C1332 C1327 1.399 . S
C1332 C1331 1.394 . S
C1332 C1333 1.516 . S
C1333 C1332 1.516 . S
C1333 C1334 1.502 . S
C1333 C1335 1.561 . S
C1333 C1336 1.526 . S
C1334 H1318 0.959 . S
C1334 H1319 0.959 . S
C1334 H1320 0.961 . S
C1334 C1333 1.502 . S
C1335 H1321 0.960 . S
C1335 H1322 0.961 . S
C1335 H1323 0.959 . S
C1335 C1333 1.561 . S
C1336 C1333 1.526 . S
C1336 C1337 1.396 . S
C1336 C1341 1.390 . S
C1337 C1331 1.465 . S
C1337 C1336 1.396 . S
C1337 C1338 1.399 . S
C1338 H1324 0.929 . S
C1338 C1337 1.399 . S
C1338 C1339 1.385 . S
C1339 H1325 0.931 . S
C1339 C1338 1.385 . S
C1339 C1340 1.389 . S
C1340 C1339 1.389 . S
C1340 C1341 1.387 . S
C1341 H1326 0.930 . S
C1341 C1336 1.390 . S
C1341 C1340 1.387 . S
H1342 C1354 0.930 . S
H1343 C1356 0.930 . S
H1344 C1357 0.930 . S
H1345 C1361 0.959 . S
H1346 C1361 0.959 . S
H1347 C1361 0.961 . S
H1348 C1362 0.960 . S
H1349 C1362 0.961 . S
H1350 C1362 0.959 . S
H1351 C1365 0.929 . S
H1352 C1366 0.931 . S
H1353 C1368 0.930 . S
C1354 H1342 0.930 . S
C1354 C1355 1.399 . S
C1354 C1359 1.399 . S
C1355 C1354 1.399 . S
C1355 C1356 1.376 . S
C1356 H1343 0.930 . S
C1356 C1355 1.376 . S
C1356 C1357 1.388 . S
C1357 H1344 0.930 . S
C1357 C1356 1.388 . S
C1357 C1358 1.390 . S
C1358 C1357 1.390 . S
C1358 C1359 1.394 . S
C1358 C1364 1.465 . S
C1359 C1354 1.399 . S
C1359 C1358 1.394 . S
C1359 C1360 1.516 . S
C1360 C1359 1.516 . S
C1360 C1361 1.502 . S
C1360 C1362 1.561 . S
C1360 C1363 1.526 . S
C1361 H1345 0.959 . S
C1361 H1346 0.959 . S
C1361 H1347 0.961 . S
C1361 C1360 1.502 . S
C1362 H1348 0.960 . S
C1362 H1349 0.961 . S
C1362 H1350 0.959 . S
C1362 C1360 1.561 . S
C1363 C1360 1.526 . S
C1363 C1364 1.396 . S
C1363 C1368 1.390 . S
C1364 C1358 1.465 . S
C1364 C1363 1.396 . S
C1364 C1365 1.399 . S
C1365 H1351 0.929 . S
C1365 C1364 1.399 . S
C1365 C1366 1.385 . S
C1366 H1352 0.931 . S
C1366 C1365 1.385 . S
C1366 C1367 1.389 . S
C1367 C1366 1.389 . S
C1367 C1368 1.387 . S
C1368 H1353 0.930 . S
C1368 C1363 1.390 . S
C1368 C1367 1.387 . S
H1369 C1381 0.930 . S
H1370 C1383 0.930 . S
H1371 C1384 0.930 . S
H1372 C1388 0.959 . S
H1373 C1388 0.959 . S
H1374 C1388 0.961 . S
H1375 C1389 0.960 . S
H1376 C1389 0.961 . S
H1377 C1389 0.959 . S
H1378 C1392 0.929 . S
H1379 C1393 0.931 . S
H1380 C1395 0.930 . S
C1381 H1369 0.930 . S
C1381 C1382 1.399 . S
C1381 C1386 1.399 . S
C1382 C1381 1.399 . S
C1382 C1383 1.376 . S
C1383 H1370 0.930 . S
C1383 C1382 1.376 . S
C1383 C1384 1.388 . S
C1384 H1371 0.930 . S
C1384 C1383 1.388 . S
C1384 C1385 1.390 . S
C1385 C1384 1.390 . S
C1385 C1386 1.394 . S
C1385 C1391 1.465 . S
C1386 C1381 1.399 . S
C1386 C1385 1.394 . S
C1386 C1387 1.516 . S
C1387 C1386 1.516 . S
C1387 C1388 1.502 . S
C1387 C1389 1.561 . S
C1387 C1390 1.526 . S
C1388 H1372 0.959 . S
C1388 H1373 0.959 . S
C1388 H1374 0.961 . S
C1388 C1387 1.502 . S
C1389 H1375 0.960 . S
C1389 H1376 0.961 . S
C1389 H1377 0.959 . S
C1389 C1387 1.561 . S
C1390 C1387 1.526 . S
C1390 C1391 1.396 . S
C1390 C1395 1.390 . S
C1391 C1385 1.465 . S
C1391 C1390 1.396 . S
C1391 C1392 1.399 . S
C1392 H1378 0.929 . S
C1392 C1391 1.399 . S
C1392 C1393 1.385 . S
C1393 H1379 0.931 . S
C1393 C1392 1.385 . S
C1393 C1394 1.389 . S
C1394 C1393 1.389 . S
C1394 C1395 1.387 . S
C1395 H1380 0.930 . S
C1395 C1390 1.390 . S
C1395 C1394 1.387 . S
H1396 C1408 0.930 . S
H1397 C1410 0.930 . S
H1398 C1411 0.930 . S
H1399 C1415 0.959 . S
H1400 C1415 0.959 . S
H1401 C1415 0.961 1_655 S
H1402 C1416 0.960 1_655 S
H1403 C1416 0.961 . S
H1404 C1416 0.959 . S
H1405 C1419 0.929 . S
H1406 C1420 0.931 . S
H1407 C1422 0.930 . S
C1408 H1396 0.930 . S
C1408 C1409 1.399 . S
C1408 C1413 1.399 . S
C1409 C1408 1.399 . S
C1409 C1410 1.376 . S
C1410 H1397 0.930 . S
C1410 C1409 1.376 . S
C1410 C1411 1.388 . S
C1411 H1398 0.930 . S
C1411 C1410 1.388 . S
C1411 C1412 1.390 . S
C1412 C1411 1.390 . S
C1412 C1413 1.394 . S
C1412 C1418 1.465 1_655 S
C1413 C1408 1.399 . S
C1413 C1412 1.394 . S
C1413 C1414 1.516 1_655 S
C1414 C1413 1.516 1_455 S
C1414 C1415 1.502 . S
C1414 C1416 1.561 . S
C1414 C1417 1.526 . S
C1415 H1399 0.959 . S
C1415 H1400 0.959 . S
C1415 H1401 0.961 1_455 S
C1415 C1414 1.502 . S
C1416 H1402 0.960 1_455 S
C1416 H1403 0.961 . S
C1416 H1404 0.959 . S
C1416 C1414 1.561 . S
C1417 C1414 1.526 . S
C1417 C1418 1.396 . S
C1417 C1422 1.390 . S
C1418 C1412 1.465 1_455 S
C1418 C1417 1.396 . S
C1418 C1419 1.399 . S
C1419 H1405 0.929 . S
C1419 C1418 1.399 . S
C1419 C1420 1.385 . S
C1420 H1406 0.931 . S
C1420 C1419 1.385 . S
C1420 C1421 1.389 . S
C1421 C1420 1.389 . S
C1421 C1422 1.387 . S
C1422 H1407 0.930 . S
C1422 C1417 1.390 . S
C1422 C1421 1.387 . S
H1423 C1435 0.930 . S
H1424 C1437 0.930 . S
H1425 C1438 0.930 . S
H1426 C1442 0.959 . S
H1427 C1442 0.959 . S
H1428 C1442 0.961 . S
H1429 C1443 0.960 . S
H1430 C1443 0.961 . S
H1431 C1443 0.959 . S
H1432 C1446 0.929 . S
H1433 C1447 0.931 . S
H1434 C1449 0.930 . S
C1435 H1423 0.930 . S
C1435 C1436 1.399 . S
C1435 C1440 1.399 . S
C1436 C1435 1.399 . S
C1436 C1437 1.376 . S
C1437 H1424 0.930 . S
C1437 C1436 1.376 . S
C1437 C1438 1.388 . S
C1438 H1425 0.930 . S
C1438 C1437 1.388 . S
C1438 C1439 1.390 . S
C1439 C1438 1.390 . S
C1439 C1440 1.394 . S
C1439 C1445 1.465 . S
C1440 C1435 1.399 . S
C1440 C1439 1.394 . S
C1440 C1441 1.516 . S
C1441 C1440 1.516 . S
C1441 C1442 1.502 . S
C1441 C1443 1.561 . S
C1441 C1444 1.526 . S
C1442 H1426 0.959 . S
C1442 H1427 0.959 . S
C1442 H1428 0.961 . S
C1442 C1441 1.502 . S
C1443 H1429 0.960 . S
C1443 H1430 0.961 . S
C1443 H1431 0.959 . S
C1443 C1441 1.561 . S
C1444 C1441 1.526 . S
C1444 C1445 1.396 . S
C1444 C1449 1.390 . S
C1445 C1439 1.465 . S
C1445 C1444 1.396 . S
C1445 C1446 1.399 . S
C1446 H1432 0.929 . S
C1446 C1445 1.399 . S
C1446 C1447 1.385 . S
C1447 H1433 0.931 . S
C1447 C1446 1.385 . S
C1447 C1448 1.389 . S
C1448 C1447 1.389 . S
C1448 C1449 1.387 . S
C1449 H1434 0.930 . S
C1449 C1444 1.390 . S
C1449 C1448 1.387 . S
H1450 C1462 0.930 . S
H1451 C1464 0.930 . S
H1452 C1465 0.930 . S
H1453 C1469 0.959 . S
H1454 C1469 0.959 . S
H1455 C1469 0.961 . S
H1456 C1470 0.960 . S
H1457 C1470 0.961 . S
H1458 C1470 0.959 . S
H1459 C1473 0.929 . S
H1460 C1474 0.931 . S
H1461 C1476 0.930 . S
C1462 H1450 0.930 . S
C1462 C1463 1.399 . S
C1462 C1467 1.399 . S
C1463 C1462 1.399 . S
C1463 C1464 1.376 . S
C1464 H1451 0.930 . S
C1464 C1463 1.376 . S
C1464 C1465 1.388 . S
C1465 H1452 0.930 . S
C1465 C1464 1.388 . S
C1465 C1466 1.390 . S
C1466 C1465 1.390 . S
C1466 C1467 1.394 . S
C1466 C1472 1.465 . S
C1467 C1462 1.399 . S
C1467 C1466 1.394 . S
C1467 C1468 1.516 . S
C1468 C1467 1.516 . S
C1468 C1469 1.502 . S
C1468 C1470 1.561 . S
C1468 C1471 1.526 . S
C1469 H1453 0.959 . S
C1469 H1454 0.959 . S
C1469 H1455 0.961 . S
C1469 C1468 1.502 . S
C1470 H1456 0.960 . S
C1470 H1457 0.961 . S
C1470 H1458 0.959 . S
C1470 C1468 1.561 . S
C1471 C1468 1.526 . S
C1471 C1472 1.396 . S
C1471 C1476 1.390 . S
C1472 C1466 1.465 . S
C1472 C1471 1.396 . S
C1472 C1473 1.399 . S
C1473 H1459 0.929 . S
C1473 C1472 1.399 . S
C1473 C1474 1.385 . S
C1474 H1460 0.931 . S
C1474 C1473 1.385 . S
C1474 C1475 1.389 . S
C1475 C1474 1.389 . S
C1475 C1476 1.387 . S
C1476 H1461 0.930 . S
C1476 C1471 1.390 . S
C1476 C1475 1.387 . S
H1477 C1489 0.930 . S
H1478 C1491 0.930 . S
H1479 C1492 0.930 . S
H1480 C1496 0.959 . S
H1481 C1496 0.959 . S
H1482 C1496 0.961 1_455 S
H1483 C1497 0.964 1_455 S
H1484 C1497 0.957 . S
H1485 C1497 0.959 . S
H1486 C1500 0.929 . S
H1487 C1501 0.931 . S
H1488 C1503 0.930 . S
C1489 H1477 0.930 . S
C1489 C1490 1.399 . S
C1489 C1494 1.399 . S
C1490 C1489 1.399 . S
C1490 C1491 1.376 . S
C1491 H1478 0.930 . S
C1491 C1490 1.376 . S
C1491 C1492 1.388 . S
C1492 H1479 0.930 . S
C1492 C1491 1.388 . S
C1492 C1493 1.390 . S
C1493 C1492 1.390 . S
C1493 C1494 1.394 . S
C1493 C1499 1.465 1_455 S
C1494 C1489 1.399 . S
C1494 C1493 1.394 . S
C1494 C1495 1.493 1_455 S
C1495 C1494 1.493 1_655 S
C1495 C1496 1.505 . S
C1495 C1497 1.561 . S
C1495 C1498 1.548 . S
C1496 H1480 0.959 . S
C1496 H1481 0.959 . S
C1496 H1482 0.961 1_655 S
C1496 C1495 1.505 . S
C1497 H1483 0.964 1_655 S
C1497 H1484 0.957 . S
C1497 H1485 0.959 . S
C1497 C1495 1.561 . S
C1498 C1495 1.548 . S
C1498 C1499 1.396 . S
C1498 C1503 1.390 . S
C1499 C1493 1.465 1_655 S
C1499 C1498 1.396 . S
C1499 C1500 1.399 . S
C1500 H1486 0.929 . S
C1500 C1499 1.399 . S
C1500 C1501 1.385 . S
C1501 H1487 0.931 . S
C1501 C1500 1.385 . S
C1501 C1502 1.389 . S
C1502 C1501 1.389 . S
C1502 C1503 1.387 . S
C1503 H1488 0.930 . S
C1503 C1498 1.390 . S
C1503 C1502 1.387 . S
H1504 C1516 0.930 . S
H1505 C1518 0.930 . S
H1506 C1519 0.930 . S
H1507 C1523 0.959 . S
H1508 C1523 0.959 . S
H1509 C1523 0.961 . S
H1510 C1524 0.960 . S
H1511 C1524 0.961 . S
H1512 C1524 0.959 . S
H1513 C1527 0.929 . S
H1514 C1528 0.931 . S
H1515 C1530 0.930 . S
C1516 H1504 0.930 . S
C1516 C1517 1.399 . S
C1516 C1521 1.399 . S
C1517 C1516 1.399 . S
C1517 C1518 1.376 . S
C1518 H1505 0.930 . S
C1518 C1517 1.376 . S
C1518 C1519 1.388 . S
C1519 H1506 0.930 . S
C1519 C1518 1.388 . S
C1519 C1520 1.390 . S
C1520 C1519 1.390 . S
C1520 C1521 1.394 . S
C1520 C1526 1.465 . S
C1521 C1516 1.399 . S
C1521 C1520 1.394 . S
C1521 C1522 1.516 1_554 S
C1522 C1521 1.516 1_556 S
C1522 C1523 1.502 . S
C1522 C1524 1.561 . S
C1522 C1525 1.526 . S
C1523 H1507 0.959 . S
C1523 H1508 0.959 . S
C1523 H1509 0.961 . S
C1523 C1522 1.502 . S
C1524 H1510 0.960 . S
C1524 H1511 0.961 . S
C1524 H1512 0.959 . S
C1524 C1522 1.561 . S
C1525 C1522 1.526 . S
C1525 C1526 1.396 1_556 S
C1525 C1530 1.390 . S
C1526 C1520 1.465 . S
C1526 C1525 1.396 1_554 S
C1526 C1527 1.399 . S
C1527 H1513 0.929 . S
C1527 C1526 1.399 . S
C1527 C1528 1.385 1_554 S
C1528 H1514 0.931 . S
C1528 C1527 1.385 1_556 S
C1528 C1529 1.389 . S
C1529 C1528 1.389 . S
C1529 C1530 1.387 . S
C1530 H1515 0.930 . S
C1530 C1525 1.390 . S
C1530 C1529 1.387 . S
H1531 C1543 0.930 . S
H1532 C1545 0.930 . S
H1533 C1546 0.930 . S
H1534 C1550 0.959 . S
H1535 C1550 0.959 . S
H1536 C1550 0.961 . S
H1537 C1551 0.960 . S
H1538 C1551 0.961 . S
H1539 C1551 0.959 . S
H1540 C1554 0.929 . S
H1541 C1555 0.931 . S
H1542 C1557 0.930 . S
C1543 H1531 0.930 . S
C1543 C1544 1.399 . S
C1543 C1548 1.399 . S
C1544 C1543 1.399 . S
C1544 C1545 1.376 . S
C1545 H1532 0.930 . S
C1545 C1544 1.376 . S
C1545 C1546 1.388 . S
C1546 H1533 0.930 . S
C1546 C1545 1.388 . S
C1546 C1547 1.390 . S
C1547 C1546 1.390 . S
C1547 C1548 1.394 . S
C1547 C1553 1.465 . S
C1548 C1543 1.399 . S
C1548 C1547 1.394 . S
C1548 C1549 1.516 . S
C1549 C1548 1.516 . S
C1549 C1550 1.502 . S
C1549 C1551 1.561 . S
C1549 C1552 1.526 . S
C1550 H1534 0.959 . S
C1550 H1535 0.959 . S
C1550 H1536 0.961 . S
C1550 C1549 1.502 . S
C1551 H1537 0.960 . S
C1551 H1538 0.961 . S
C1551 H1539 0.959 . S
C1551 C1549 1.561 . S
C1552 C1549 1.526 . S
C1552 C1553 1.396 . S
C1552 C1557 1.390 . S
C1553 C1547 1.465 . S
C1553 C1552 1.396 . S
C1553 C1554 1.399 . S
C1554 H1540 0.929 . S
C1554 C1553 1.399 . S
C1554 C1555 1.385 . S
C1555 H1541 0.931 . S
C1555 C1554 1.385 . S
C1555 C1556 1.389 . S
C1556 C1555 1.389 . S
C1556 C1557 1.387 . S
C1557 H1542 0.930 . S
C1557 C1552 1.390 . S
C1557 C1556 1.387 . S
H1558 C1570 0.930 . S
H1559 C1572 0.930 . S
H1560 C1573 0.930 . S
H1561 C1577 0.959 . S
H1562 C1577 0.959 . S
H1563 C1577 0.961 . S
H1564 C1578 0.960 . S
H1565 C1578 0.961 . S
H1566 C1578 0.959 . S
H1567 C1581 0.929 . S
H1568 C1582 0.931 . S
H1569 C1584 0.930 . S
C1570 H1558 0.930 . S
C1570 C1571 1.399 . S
C1570 C1575 1.399 . S
C1571 C1570 1.399 . S
C1571 C1572 1.376 . S
C1572 H1559 0.930 . S
C1572 C1571 1.376 . S
C1572 C1573 1.388 . S
C1573 H1560 0.930 . S
C1573 C1572 1.388 . S
C1573 C1574 1.390 . S
C1574 C1573 1.390 . S
C1574 C1575 1.394 . S
C1574 C1580 1.465 . S
C1575 C1570 1.399 . S
C1575 C1574 1.394 . S
C1575 C1576 1.516 . S
C1576 C1575 1.516 . S
C1576 C1577 1.502 . S
C1576 C1578 1.561 . S
C1576 C1579 1.526 . S
C1577 H1561 0.959 . S
C1577 H1562 0.959 . S
C1577 H1563 0.961 . S
C1577 C1576 1.502 . S
C1578 H1564 0.960 . S
C1578 H1565 0.961 . S
C1578 H1566 0.959 . S
C1578 C1576 1.561 . S
C1579 C1576 1.526 . S
C1579 C1580 1.396 . S
C1579 C1584 1.390 . S
C1580 C1574 1.465 . S
C1580 C1579 1.396 . S
C1580 C1581 1.399 . S
C1581 H1567 0.929 . S
C1581 C1580 1.399 . S
C1581 C1582 1.385 . S
C1582 H1568 0.931 . S
C1582 C1581 1.385 . S
C1582 C1583 1.389 . S
C1583 C1582 1.389 . S
C1583 C1584 1.387 . S
C1584 H1569 0.930 . S
C1584 C1579 1.390 . S
C1584 C1583 1.387 . S
H1585 C1597 0.930 . S
H1586 C1599 0.930 . S
H1587 C1600 0.930 . S
H1588 C1604 0.959 . S
H1589 C1604 0.959 . S
H1590 C1604 0.961 . S
H1591 C1605 0.960 . S
H1592 C1605 0.961 . S
H1593 C1605 0.959 . S
H1594 C1608 0.929 . S
H1595 C1609 0.931 . S
H1596 C1611 0.930 . S
C1597 H1585 0.930 . S
C1597 C1598 1.399 . S
C1597 C1602 1.399 . S
C1598 C1597 1.399 . S
C1598 C1599 1.376 . S
C1599 H1586 0.930 . S
C1599 C1598 1.376 . S
C1599 C1600 1.388 . S
C1600 H1587 0.930 . S
C1600 C1599 1.388 . S
C1600 C1601 1.390 . S
C1601 C1600 1.390 . S
C1601 C1602 1.394 . S
C1601 C1607 1.465 . S
C1602 C1597 1.399 . S
C1602 C1601 1.394 . S
C1602 C1603 1.516 . S
C1603 C1602 1.516 . S
C1603 C1604 1.502 . S
C1603 C1605 1.561 . S
C1603 C1606 1.526 . S
C1604 H1588 0.959 . S
C1604 H1589 0.959 . S
C1604 H1590 0.961 . S
C1604 C1603 1.502 . S
C1605 H1591 0.960 . S
C1605 H1592 0.961 . S
C1605 H1593 0.959 . S
C1605 C1603 1.561 . S
C1606 C1603 1.526 . S
C1606 C1607 1.396 . S
C1606 C1611 1.390 . S
C1607 C1601 1.465 . S
C1607 C1606 1.396 . S
C1607 C1608 1.399 . S
C1608 H1594 0.929 . S
C1608 C1607 1.399 . S
C1608 C1609 1.385 . S
C1609 H1595 0.931 . S
C1609 C1608 1.385 . S
C1609 C1610 1.389 . S
C1610 C1609 1.389 . S
C1610 C1611 1.387 . S
C1611 H1596 0.930 . S
C1611 C1606 1.390 . S
C1611 C1610 1.387 . S
H1612 C1624 0.930 . S
H1613 C1626 0.930 . S
H1614 C1627 0.930 . S
H1615 C1631 0.959 . S
H1616 C1631 0.959 . S
H1617 C1631 0.961 . S
H1618 C1632 0.960 . S
H1619 C1632 0.961 . S
H1620 C1632 0.959 . S
H1621 C1635 0.929 . S
H1622 C1636 0.931 . S
H1623 C1638 0.930 . S
C1624 H1612 0.930 . S
C1624 C1625 1.399 . S
C1624 C1629 1.399 . S
C1625 C1624 1.399 . S
C1625 C1626 1.376 . S
C1626 H1613 0.930 . S
C1626 C1625 1.376 . S
C1626 C1627 1.388 1_554 S
C1627 H1614 0.930 . S
C1627 C1626 1.388 1_556 S
C1627 C1628 1.390 . S
C1628 C1627 1.390 . S
C1628 C1629 1.394 1_556 S
C1628 C1634 1.465 . S
C1629 C1624 1.399 . S
C1629 C1628 1.394 1_554 S
C1629 C1630 1.516 . S
C1630 C1629 1.516 . S
C1630 C1631 1.502 . S
C1630 C1632 1.561 . S
C1630 C1633 1.526 1_554 S
C1631 H1615 0.959 . S
C1631 H1616 0.959 . S
C1631 H1617 0.961 . S
C1631 C1630 1.502 . S
C1632 H1618 0.960 . S
C1632 H1619 0.961 . S
C1632 H1620 0.959 . S
C1632 C1630 1.561 . S
C1633 C1630 1.526 1_556 S
C1633 C1634 1.396 . S
C1633 C1638 1.390 . S
C1634 C1628 1.465 . S
C1634 C1633 1.396 . S
C1634 C1635 1.399 . S
C1635 H1621 0.929 . S
C1635 C1634 1.399 . S
C1635 C1636 1.385 . S
C1636 H1622 0.931 . S
C1636 C1635 1.385 . S
C1636 C1637 1.389 . S
C1637 C1636 1.389 . S
C1637 C1638 1.387 . S
C1638 H1623 0.930 . S
C1638 C1633 1.390 . S
C1638 C1637 1.387 . S
H1639 C1651 0.930 . S
H1640 C1653 0.930 . S
H1641 C1654 0.930 . S
H1642 C1658 0.959 . S
H1643 C1658 0.959 . S
H1644 C1658 0.961 . S
H1645 C1659 0.960 . S
H1646 C1659 0.961 . S
H1647 C1659 0.959 . S
H1648 C1662 0.929 . S
H1649 C1663 0.931 . S
H1650 C1665 0.930 . S
C1651 H1639 0.930 . S
C1651 C1652 1.399 . S
C1651 C1656 1.399 . S
C1652 C1651 1.399 . S
C1652 C1653 1.376 . S
C1653 H1640 0.930 . S
C1653 C1652 1.376 . S
C1653 C1654 1.388 . S
C1654 H1641 0.930 . S
C1654 C1653 1.388 . S
C1654 C1655 1.390 . S
C1655 C1654 1.390 . S
C1655 C1656 1.394 . S
C1655 C1661 1.465 . S
C1656 C1651 1.399 . S
C1656 C1655 1.394 . S
C1656 C1657 1.516 . S
C1657 C1656 1.516 . S
C1657 C1658 1.502 . S
C1657 C1659 1.561 . S
C1657 C1660 1.526 . S
C1658 H1642 0.959 . S
C1658 H1643 0.959 . S
C1658 H1644 0.961 . S
C1658 C1657 1.502 . S
C1659 H1645 0.960 . S
C1659 H1646 0.961 . S
C1659 H1647 0.959 . S
C1659 C1657 1.561 . S
C1660 C1657 1.526 . S
C1660 C1661 1.396 . S
C1660 C1665 1.390 . S
C1661 C1655 1.465 . S
C1661 C1660 1.396 . S
C1661 C1662 1.399 . S
C1662 H1648 0.929 . S
C1662 C1661 1.399 . S
C1662 C1663 1.385 . S
C1663 H1649 0.931 . S
C1663 C1662 1.385 . S
C1663 C1664 1.389 . S
C1664 C1663 1.389 . S
C1664 C1665 1.387 . S
C1665 H1650 0.930 . S
C1665 C1660 1.390 . S
C1665 C1664 1.387 . S
H1666 C1678 0.930 . S
H1667 C1680 0.930 . S
H1668 C1681 0.930 . S
H1669 C1685 0.959 . S
H1670 C1685 0.959 . S
H1671 C1685 0.961 . S
H1672 C1686 0.960 . S
H1673 C1686 0.961 . S
H1674 C1686 0.959 . S
H1675 C1689 0.929 . S
H1676 C1690 0.931 . S
H1677 C1692 0.930 . S
C1678 H1666 0.930 . S
C1678 C1679 1.399 . S
C1678 C1683 1.399 . S
C1679 C1678 1.399 . S
C1679 C1680 1.376 . S
C1680 H1667 0.930 . S
C1680 C1679 1.376 . S
C1680 C1681 1.388 . S
C1681 H1668 0.930 . S
C1681 C1680 1.388 . S
C1681 C1682 1.390 . S
C1682 C1681 1.390 . S
C1682 C1683 1.394 . S
C1682 C1688 1.465 . S
C1683 C1678 1.399 . S
C1683 C1682 1.394 . S
C1683 C1684 1.516 . S
C1684 C1683 1.516 . S
C1684 C1685 1.502 . S
C1684 C1686 1.561 . S
C1684 C1687 1.526 . S
C1685 H1669 0.959 . S
C1685 H1670 0.959 . S
C1685 H1671 0.961 . S
C1685 C1684 1.502 . S
C1686 H1672 0.960 . S
C1686 H1673 0.961 . S
C1686 H1674 0.959 . S
C1686 C1684 1.561 . S
C1687 C1684 1.526 . S
C1687 C1688 1.396 . S
C1687 C1692 1.390 . S
C1688 C1682 1.465 . S
C1688 C1687 1.396 . S
C1688 C1689 1.399 . S
C1689 H1675 0.929 . S
C1689 C1688 1.399 . S
C1689 C1690 1.385 . S
C1690 H1676 0.931 . S
C1690 C1689 1.385 . S
C1690 C1691 1.389 . S
C1691 C1690 1.389 . S
C1691 C1692 1.387 . S
C1692 H1677 0.930 . S
C1692 C1687 1.390 . S
C1692 C1691 1.387 . S
H1693 C1705 0.930 . S
H1694 C1707 0.930 . S
H1695 C1708 0.930 . S
H1696 C1712 0.959 . S
H1697 C1712 0.959 . S
H1698 C1712 0.961 . S
H1699 C1713 0.960 . S
H1700 C1713 0.961 . S
H1701 C1713 0.959 . S
H1702 C1716 0.929 . S
H1703 C1717 0.931 . S
H1704 C1719 0.930 . S
C1705 H1693 0.930 . S
C1705 C1706 1.399 . S
C1705 C1710 1.399 . S
C1706 C1705 1.399 . S
C1706 C1707 1.376 . S
C1707 H1694 0.930 . S
C1707 C1706 1.376 . S
C1707 C1708 1.388 . S
C1708 H1695 0.930 . S
C1708 C1707 1.388 . S
C1708 C1709 1.390 . S
C1709 C1708 1.390 . S
C1709 C1710 1.394 . S
C1709 C1715 1.465 . S
C1710 C1705 1.399 . S
C1710 C1709 1.394 . S
C1710 C1711 1.516 . S
C1711 C1710 1.516 . S
C1711 C1712 1.502 . S
C1711 C1713 1.561 . S
C1711 C1714 1.526 . S
C1712 H1696 0.959 . S
C1712 H1697 0.959 . S
C1712 H1698 0.961 . S
C1712 C1711 1.502 . S
C1713 H1699 0.960 . S
C1713 H1700 0.961 . S
C1713 H1701 0.959 . S
C1713 C1711 1.561 . S
C1714 C1711 1.526 . S
C1714 C1715 1.396 . S
C1714 C1719 1.390 . S
C1715 C1709 1.465 . S
C1715 C1714 1.396 . S
C1715 C1716 1.399 . S
C1716 H1702 0.929 . S
C1716 C1715 1.399 . S
C1716 C1717 1.385 . S
C1717 H1703 0.931 . S
C1717 C1716 1.385 . S
C1717 C1718 1.389 . S
C1718 C1717 1.389 . S
C1718 C1719 1.387 . S
C1719 H1704 0.930 . S
C1719 C1714 1.390 . S
C1719 C1718 1.387 . S
H1720 C1732 0.930 . S
H1721 C1734 0.930 . S
H1722 C1735 0.930 . S
H1723 C1739 0.959 1_545 S
H1724 C1739 0.959 1_545 S
H1725 C1739 0.961 . S
H1726 C1740 0.960 . S
H1727 C1740 0.961 . S
H1728 C1740 0.959 . S
H1729 C1743 0.929 . S
H1730 C1744 0.931 . S
H1731 C1746 0.930 . S
C1732 H1720 0.930 . S
C1732 C1733 1.399 . S
C1732 C1737 1.399 . S
C1733 C1732 1.399 . S
C1733 C1734 1.376 . S
C1734 H1721 0.930 . S
C1734 C1733 1.376 . S
C1734 C1735 1.388 . S
C1735 H1722 0.930 . S
C1735 C1734 1.388 . S
C1735 C1736 1.390 . S
C1736 C1735 1.390 . S
C1736 C1737 1.394 . S
C1736 C1742 1.465 1_565 S
C1737 C1732 1.399 . S
C1737 C1736 1.394 . S
C1737 C1738 1.516 . S
C1738 C1737 1.516 . S
C1738 C1739 1.502 . S
C1738 C1740 1.561 . S
C1738 C1741 1.526 1_565 S
C1739 H1723 0.959 1_565 S
C1739 H1724 0.959 1_565 S
C1739 H1725 0.961 . S
C1739 C1738 1.502 . S
C1740 H1726 0.960 . S
C1740 H1727 0.961 . S
C1740 H1728 0.959 . S
C1740 C1738 1.561 . S
C1741 C1738 1.526 1_545 S
C1741 C1742 1.396 . S
C1741 C1746 1.390 . S
C1742 C1736 1.465 1_545 S
C1742 C1741 1.396 . S
C1742 C1743 1.399 . S
C1743 H1729 0.929 . S
C1743 C1742 1.399 . S
C1743 C1744 1.385 . S
C1744 H1730 0.931 . S
C1744 C1743 1.385 . S
C1744 C1745 1.389 . S
C1745 C1744 1.389 . S
C1745 C1746 1.387 . S
C1746 H1731 0.930 . S
C1746 C1741 1.390 . S
C1746 C1745 1.387 . S
H1747 C1759 0.930 . S
H1748 C1761 0.930 . S
H1749 C1762 0.930 . S
H1750 C1766 0.959 . S
H1751 C1766 0.959 . S
H1752 C1766 0.961 . S
H1753 C1767 0.960 . S
H1754 C1767 0.961 . S
H1755 C1767 0.959 . S
H1756 C1770 0.929 . S
H1757 C1771 0.931 . S
H1758 C1773 0.930 . S
C1759 H1747 0.930 . S
C1759 C1760 1.399 . S
C1759 C1764 1.399 . S
C1760 C1759 1.399 . S
C1760 C1761 1.376 . S
C1761 H1748 0.930 . S
C1761 C1760 1.376 . S
C1761 C1762 1.388 . S
C1762 H1749 0.930 . S
C1762 C1761 1.388 . S
C1762 C1763 1.390 . S
C1763 C1762 1.390 . S
C1763 C1764 1.394 . S
C1763 C1769 1.465 . S
C1764 C1759 1.399 . S
C1764 C1763 1.394 . S
C1764 C1765 1.516 . S
C1765 C1764 1.516 . S
C1765 C1766 1.502 . S
C1765 C1767 1.561 . S
C1765 C1768 1.526 . S
C1766 H1750 0.959 . S
C1766 H1751 0.959 . S
C1766 H1752 0.961 . S
C1766 C1765 1.502 . S
C1767 H1753 0.960 . S
C1767 H1754 0.961 . S
C1767 H1755 0.959 . S
C1767 C1765 1.561 . S
C1768 C1765 1.526 . S
C1768 C1769 1.396 . S
C1768 C1773 1.390 . S
C1769 C1763 1.465 . S
C1769 C1768 1.396 . S
C1769 C1770 1.399 . S
C1770 H1756 0.929 . S
C1770 C1769 1.399 . S
C1770 C1771 1.385 . S
C1771 H1757 0.931 . S
C1771 C1770 1.385 . S
C1771 C1772 1.389 . S
C1772 C1771 1.389 . S
C1772 C1773 1.387 . S
C1773 H1758 0.930 . S
C1773 C1768 1.390 . S
C1773 C1772 1.387 . S
H1774 C1786 0.930 . S
H1775 C1788 0.930 . S
H1776 C1789 0.930 1_545 S
H1777 C1793 0.959 . S
H1778 C1793 0.959 . S
H1779 C1793 0.961 . S
H1780 C1794 0.960 . S
H1781 C1794 0.961 . S
H1782 C1794 0.959 . S
H1783 C1797 0.929 . S
H1784 C1798 0.931 . S
H1785 C1800 0.930 . S
C1786 H1774 0.930 . S
C1786 C1787 1.399 . S
C1786 C1791 1.399 . S
C1787 C1786 1.399 . S
C1787 C1788 1.376 . S
C1788 H1775 0.930 . S
C1788 C1787 1.376 . S
C1788 C1789 1.388 . S
C1789 H1776 0.930 1_565 S
C1789 C1788 1.388 . S
C1789 C1790 1.390 1_565 S
C1790 C1789 1.390 1_545 S
C1790 C1791 1.394 1_545 S
C1790 C1796 1.465 . S
C1791 C1786 1.399 . S
C1791 C1790 1.394 1_565 S
C1791 C1792 1.516 1_554 S
C1792 C1791 1.516 1_556 S
C1792 C1793 1.502 . S
C1792 C1794 1.561 . S
C1792 C1795 1.526 1_565 S
C1793 H1777 0.959 . S
C1793 H1778 0.959 . S
C1793 H1779 0.961 . S
C1793 C1792 1.502 . S
C1794 H1780 0.960 . S
C1794 H1781 0.961 . S
C1794 H1782 0.959 . S
C1794 C1792 1.561 . S
C1795 C1792 1.526 1_545 S
C1795 C1796 1.396 1_556 S
C1795 C1800 1.390 . S
C1796 C1790 1.465 . S
C1796 C1795 1.396 1_554 S
C1796 C1797 1.399 . S
C1797 H1783 0.929 . S
C1797 C1796 1.399 . S
C1797 C1798 1.385 1_554 S
C1798 H1784 0.931 . S
C1798 C1797 1.385 1_556 S
C1798 C1799 1.389 . S
C1799 C1798 1.389 . S
C1799 C1800 1.387 . S
C1800 H1785 0.930 . S
C1800 C1795 1.390 . S
C1800 C1799 1.387 . S
H1801 C1813 0.930 . S
H1802 C1815 0.930 . S
H1803 C1816 0.930 . S
H1804 C1820 0.959 . S
H1805 C1820 0.959 . S
H1806 C1820 0.961 . S
H1807 C1821 0.960 . S
H1808 C1821 0.961 . S
H1809 C1821 0.959 . S
H1810 C1824 0.929 . S
H1811 C1825 0.931 . S
H1812 C1827 0.930 . S
C1813 H1801 0.930 . S
C1813 C1814 1.399 . S
C1813 C1818 1.399 . S
C1814 C1813 1.399 . S
C1814 C1815 1.376 . S
C1815 H1802 0.930 . S
C1815 C1814 1.376 . S
C1815 C1816 1.388 . S
C1816 H1803 0.930 . S
C1816 C1815 1.388 . S
C1816 C1817 1.390 . S
C1817 C1816 1.390 . S
C1817 C1818 1.394 . S
C1817 C1823 1.465 . S
C1818 C1813 1.399 . S
C1818 C1817 1.394 . S
C1818 C1819 1.516 . S
C1819 C1818 1.516 . S
C1819 C1820 1.502 . S
C1819 C1821 1.561 . S
C1819 C1822 1.526 . S
C1820 H1804 0.959 . S
C1820 H1805 0.959 . S
C1820 H1806 0.961 . S
C1820 C1819 1.502 . S
C1821 H1807 0.960 . S
C1821 H1808 0.961 . S
C1821 H1809 0.959 . S
C1821 C1819 1.561 . S
C1822 C1819 1.526 . S
C1822 C1823 1.396 . S
C1822 C1827 1.390 . S
C1823 C1817 1.465 . S
C1823 C1822 1.396 . S
C1823 C1824 1.399 . S
C1824 H1810 0.929 . S
C1824 C1823 1.399 . S
C1824 C1825 1.385 . S
C1825 H1811 0.931 . S
C1825 C1824 1.385 . S
C1825 C1826 1.389 . S
C1826 C1825 1.389 . S
C1826 C1827 1.387 . S
C1827 H1812 0.930 . S
C1827 C1822 1.390 . S
C1827 C1826 1.387 . S
H1828 C1840 0.930 . S
H1829 C1842 0.930 . S
H1830 C1843 0.930 1_545 S
H1831 C1847 0.932 1_545 S
H1832 C1847 0.959 . S
H1833 C1847 0.961 . S
H1834 C1848 0.960 . S
H1835 C1848 0.961 . S
H1836 C1848 0.959 . S
H1837 C1851 0.929 . S
H1838 C1852 0.931 . S
H1839 C1854 0.930 . S
C1840 H1828 0.930 . S
C1840 C1841 1.399 . S
C1840 C1845 1.399 . S
C1841 C1840 1.399 . S
C1841 C1842 1.376 . S
C1842 H1829 0.930 . S
C1842 C1841 1.376 . S
C1842 C1843 1.388 . S
C1843 H1830 0.930 1_565 S
C1843 C1842 1.388 . S
C1843 C1844 1.390 . S
C1844 C1843 1.390 . S
C1844 C1845 1.394 . S
C1844 C1850 1.465 1_565 S
C1845 C1840 1.399 . S
C1845 C1844 1.394 . S
C1845 C1846 1.516 . S
C1846 C1845 1.516 . S
C1846 C1847 1.502 . S
C1846 C1848 1.561 . S
C1846 C1849 1.526 1_565 S
C1847 H1831 0.932 1_565 S
C1847 H1832 0.959 . S
C1847 H1833 0.961 . S
C1847 C1846 1.502 . S
C1848 H1834 0.960 . S
C1848 H1835 0.961 . S
C1848 H1836 0.959 . S
C1848 C1846 1.561 . S
C1849 C1846 1.526 1_545 S
C1849 C1850 1.396 . S
C1849 C1854 1.390 . S
C1850 C1844 1.465 1_545 S
C1850 C1849 1.396 . S
C1850 C1851 1.399 . S
C1851 H1837 0.929 . S
C1851 C1850 1.399 . S
C1851 C1852 1.385 . S
C1852 H1838 0.931 . S
C1852 C1851 1.385 . S
C1852 C1853 1.389 . S
C1853 C1852 1.389 . S
C1853 C1854 1.387 . S
C1854 H1839 0.930 . S
C1854 C1849 1.390 . S
C1854 C1853 1.387 . S
H1855 C1867 0.930 . S
H1856 C1869 0.930 . S
H1857 C1870 0.930 . S
H1858 C1874 0.959 . S
H1859 C1874 0.959 . S
H1860 C1874 0.961 . S
H1861 C1875 0.960 . S
H1862 C1875 0.961 . S
H1863 C1875 0.959 . S
H1864 C1878 0.929 . S
H1865 C1879 0.931 . S
H1866 C1881 0.930 . S
C1867 H1855 0.930 . S
C1867 C1868 1.399 . S
C1867 C1872 1.399 . S
C1868 C1867 1.399 . S
C1868 C1869 1.376 . S
C1869 H1856 0.930 . S
C1869 C1868 1.376 . S
C1869 C1870 1.388 . S
C1870 H1857 0.930 . S
C1870 C1869 1.388 . S
C1870 C1871 1.390 . S
C1871 C1870 1.390 . S
C1871 C1872 1.394 . S
C1871 C1877 1.465 . S
C1872 C1867 1.399 . S
C1872 C1871 1.394 . S
C1872 C1873 1.516 . S
C1873 C1872 1.516 . S
C1873 C1874 1.502 . S
C1873 C1875 1.561 . S
C1873 C1876 1.526 . S
C1874 H1858 0.959 . S
C1874 H1859 0.959 . S
C1874 H1860 0.961 . S
C1874 C1873 1.502 . S
C1875 H1861 0.960 . S
C1875 H1862 0.961 . S
C1875 H1863 0.959 . S
C1875 C1873 1.561 . S
C1876 C1873 1.526 . S
C1876 C1877 1.396 . S
C1876 C1881 1.390 . S
C1877 C1871 1.465 . S
C1877 C1876 1.396 . S
C1877 C1878 1.399 . S
C1878 H1864 0.929 . S
C1878 C1877 1.399 . S
C1878 C1879 1.385 . S
C1879 H1865 0.931 . S
C1879 C1878 1.385 . S
C1879 C1880 1.389 . S
C1880 C1879 1.389 . S
C1880 C1881 1.387 . S
C1881 H1866 0.930 . S
C1881 C1876 1.390 . S
C1881 C1880 1.387 . S
H1882 C1894 0.930 . S
H1883 C1896 0.930 . S
H1884 C1897 0.930 . S
H1885 C1901 0.959 . S
H1886 C1901 0.959 . S
H1887 C1901 0.961 . S
H1888 C1902 0.960 . S
H1889 C1902 0.961 . S
H1890 C1902 0.959 . S
H1891 C1905 0.929 1_545 S
H1892 C1906 0.931 . S
H1893 C1908 0.930 . S
C1894 H1882 0.930 . S
C1894 C1895 1.399 . S
C1894 C1899 1.399 . S
C1895 C1894 1.399 . S
C1895 C1896 1.376 . S
C1896 H1883 0.930 . S
C1896 C1895 1.376 . S
C1896 C1897 1.388 . S
C1897 H1884 0.930 . S
C1897 C1896 1.388 . S
C1897 C1898 1.390 . S
C1898 C1897 1.390 . S
C1898 C1899 1.394 . S
C1898 C1904 1.465 1_546 S
C1899 C1894 1.399 . S
C1899 C1898 1.394 . S
C1899 C1900 1.516 1_545 S
C1900 C1899 1.516 1_565 S
C1900 C1901 1.502 . S
C1900 C1902 1.561 . S
C1900 C1903 1.526 . S
C1901 H1885 0.959 . S
C1901 H1886 0.959 . S
C1901 H1887 0.961 . S
C1901 C1900 1.502 . S
C1902 H1888 0.960 . S
C1902 H1889 0.961 . S
C1902 H1890 0.959 . S
C1902 C1900 1.561 . S
C1903 C1900 1.526 . S
C1903 C1904 1.396 1_556 S
C1903 C1908 1.390 1_556 S
C1904 C1898 1.465 1_564 S
C1904 C1903 1.396 1_554 S
C1904 C1905 1.399 . S
C1905 H1891 0.929 1_565 S
C1905 C1904 1.399 . S
C1905 C1906 1.385 . S
C1906 H1892 0.931 . S
C1906 C1905 1.385 . S
C1906 C1907 1.389 . S
C1907 C1906 1.389 . S
C1907 C1908 1.387 . S
C1908 H1893 0.930 . S
C1908 C1903 1.390 1_554 S
C1908 C1907 1.387 . S
H1909 C1921 0.930 . S
H1910 C1923 0.930 . S
H1911 C1924 0.930 . S
H1912 C1928 0.959 . S
H1913 C1928 0.959 . S
H1914 C1928 0.961 . S
H1915 C1929 0.960 . S
H1916 C1929 0.961 . S
H1917 C1929 0.959 . S
H1918 C1932 0.929 . S
H1919 C1933 0.931 . S
H1920 C1935 0.930 . S
C1921 H1909 0.930 . S
C1921 C1922 1.399 . S
C1921 C1926 1.399 . S
C1922 C1921 1.399 . S
C1922 C1923 1.376 . S
C1923 H1910 0.930 . S
C1923 C1922 1.376 . S
C1923 C1924 1.388 . S
C1924 H1911 0.930 . S
C1924 C1923 1.388 . S
C1924 C1925 1.390 . S
C1925 C1924 1.390 . S
C1925 C1926 1.394 . S
C1925 C1931 1.465 . S
C1926 C1921 1.399 . S
C1926 C1925 1.394 . S
C1926 C1927 1.516 . S
C1927 C1926 1.516 . S
C1927 C1928 1.502 . S
C1927 C1929 1.561 . S
C1927 C1930 1.526 . S
C1928 H1912 0.959 . S
C1928 H1913 0.959 . S
C1928 H1914 0.961 . S
C1928 C1927 1.502 . S
C1929 H1915 0.960 . S
C1929 H1916 0.961 . S
C1929 H1917 0.959 . S
C1929 C1927 1.561 . S
C1930 C1927 1.526 . S
C1930 C1931 1.396 . S
C1930 C1935 1.390 . S
C1931 C1925 1.465 . S
C1931 C1930 1.396 . S
C1931 C1932 1.399 . S
C1932 H1918 0.929 . S
C1932 C1931 1.399 . S
C1932 C1933 1.385 . S
C1933 H1919 0.931 . S
C1933 C1932 1.385 . S
C1933 C1934 1.389 . S
C1934 C1933 1.389 . S
C1934 C1935 1.387 . S
C1935 H1920 0.930 . S
C1935 C1930 1.390 . S
C1935 C1934 1.387 . S
C653 C15 1.603 . S
C665 C6 1.662 . S
C680 C46 1.534 1_556 S
C692 C55 1.570 . S
C707 C95 1.875 . S
C719 C86 1.874 . S
C734 C126 1.764 . S
C746 C135 1.700 . S
C761 C175 1.566 . S
C773 C166 1.524 . S
C788 C215 1.903 . S
C800 C206 1.840 . S
C815 C255 1.746 . S
C827 C246 1.733 1_556 S
C842 C286 1.605 . S
C854 C295 1.660 . S
C869 C326 1.599 . S
C881 C335 1.655 . S
C896 C366 1.575 . S
C908 C375 1.516 1_554 S
C923 C406 1.893 1_556 S
C935 C415 1.959 . S
C950 C455 1.702 . S
C962 C446 1.770 . S
C977 C486 1.570 . S
C989 C495 1.517 . S
C1004 C526 1.966 . S
C1016 C535 1.903 . S
C1031 C566 1.720 . S
C1043 C575 1.764 1_554 S
C1058 C615 1.641 . S
C1070 C606 1.601 . S
C1085 C10 1.982 . S
C1097 C459 1.984 . S
C1112 C49 1.588 . S
C1124 C618 1.601 . S
C1139 C90 2.013 . S
C1151 C379 2.073 . S
C1166 C129 1.458 . S
C1178 C539 1.493 . S
C1193 C170 1.921 . S
C1205 C538 1.902 . S
C1220 C458 1.410 . S
C1232 C209 1.485 . S
C1247 C250 1.965 . S
C1259 C619 1.971 . S
C1274 C289 1.498 . S
C1286 C378 1.498 . S
C1301 C130 1.938 . S
C1313 C339 1.945 . S
C1328 C50 1.940 . S
C1340 C418 1.900 . S
C1355 C499 2.082 . S
C1367 C210 2.030 . S
C1382 C290 1.981 . S
C1394 C579 1.983 . S
C1409 C338 1.576 . S
C1421 C169 1.568 . S
C1436 C249 1.445 . S
C1448 C419 1.495 . S
C1463 C89 1.516 . S
C1475 C578 1.466 . S
C1490 C9 1.547 . S
C1502 C498 1.524 . S
C1517 C19 2.029 . S
C1529 C179 2.016 . S
C1544 C58 1.748 . S
C1556 C218 1.737 . S
C1571 C99 1.728 . S
C1583 C259 1.718 . S
C1598 C138 1.448 . S
C1610 C298 1.458 . S
C1625 C490 1.977 . S
C1637 C330 1.997 . S
C1652 C530 1.615 . S
C1664 C369 1.639 . S
C1679 C409 1.941 . S
C1691 C570 1.954 . S
C1706 C609 1.508 . S
C1718 C449 1.496 . S
C1733 C59 2.017 . S
C1745 C299 2.005 . S
C1760 C178 1.715 . S
C1772 C98 1.721 . S
C1787 C219 1.737 . S
C1799 C139 1.725 . S
C1814 C18 1.443 . S
C1826 C258 1.466 . S
C1841 C610 2.000 . S
C1853 C370 1.993 . S
C1868 C489 1.608 . S
C1880 C410 1.637 . S
C1895 C529 1.945 . S
C1907 C450 1.966 . S
C1922 C569 1.492 . S
C1934 C329 1.449 . S
