# Generated by pormake.
# Topology vcm, (7)-cn, num edge types: 1
# Building blocks:
#     Node 0, Type 0, BuildingBlock: HICVOG_clean_sbu_0, # of connection points: 7
#     Node 1, Type 0, BuildingBlock: HICVOG_clean_sbu_0, # of connection points: 7
#     Node 2, Type 0, BuildingBlock: HICVOG_clean_sbu_0, # of connection points: 7
#     Node 3, Type 0, BuildingBlock: HICVOG_clean_sbu_0, # of connection points: 7
#     Node 4, Type 0, BuildingBlock: HICVOG_clean_sbu_0, # of connection points: 7
#     Node 5, Type 0, BuildingBlock: HICVOG_clean_sbu_0, # of connection points: 7
#     Node 6, Type 0, BuildingBlock: HICVOG_clean_sbu_0, # of connection points: 7
#     Node 7, Type 0, BuildingBlock: HICVOG_clean_sbu_0, # of connection points: 7
#     Edge 8, Type (0, 0), BuildingBlock: UVAHIK_clean_linker_0, # of connection points: 2
#     Edge 9, Type (0, 0), BuildingBlock: UVAHIK_clean_linker_0, # of connection points: 2
#     Edge 10, Type (0, 0), BuildingBlock: UVAHIK_clean_linker_0, # of connection points: 2
#     Edge 11, Type (0, 0), BuildingBlock: UVAHIK_clean_linker_0, # of connection points: 2
#     Edge 12, Type (0, 0), BuildingBlock: UVAHIK_clean_linker_0, # of connection points: 2
#     Edge 13, Type (0, 0), BuildingBlock: UVAHIK_clean_linker_0, # of connection points: 2
#     Edge 14, Type (0, 0), BuildingBlock: UVAHIK_clean_linker_0, # of connection points: 2
#     Edge 15, Type (0, 0), BuildingBlock: UVAHIK_clean_linker_0, # of connection points: 2
#     Edge 16, Type (0, 0), BuildingBlock: UVAHIK_clean_linker_0, # of connection points: 2
#     Edge 17, Type (0, 0), BuildingBlock: UVAHIK_clean_linker_0, # of connection points: 2
#     Edge 18, Type (0, 0), BuildingBlock: UVAHIK_clean_linker_0, # of connection points: 2
#     Edge 19, Type (0, 0), BuildingBlock: UVAHIK_clean_linker_0, # of connection points: 2
#     Edge 20, Type (0, 0), BuildingBlock: UVAHIK_clean_linker_0, # of connection points: 2
#     Edge 21, Type (0, 0), BuildingBlock: UVAHIK_clean_linker_0, # of connection points: 2
#     Edge 22, Type (0, 0), BuildingBlock: UVAHIK_clean_linker_0, # of connection points: 2
#     Edge 23, Type (0, 0), BuildingBlock: UVAHIK_clean_linker_0, # of connection points: 2
#     Edge 24, Type (0, 0), BuildingBlock: UVAHIK_clean_linker_0, # of connection points: 2
#     Edge 25, Type (0, 0), BuildingBlock: UVAHIK_clean_linker_0, # of connection points: 2
#     Edge 26, Type (0, 0), BuildingBlock: UVAHIK_clean_linker_0, # of connection points: 2
#     Edge 27, Type (0, 0), BuildingBlock: UVAHIK_clean_linker_0, # of connection points: 2
#     Edge 28, Type (0, 0), BuildingBlock: UVAHIK_clean_linker_0, # of connection points: 2
#     Edge 29, Type (0, 0), BuildingBlock: UVAHIK_clean_linker_0, # of connection points: 2
#     Edge 30, Type (0, 0), BuildingBlock: UVAHIK_clean_linker_0, # of connection points: 2
#     Edge 31, Type (0, 0), BuildingBlock: UVAHIK_clean_linker_0, # of connection points: 2
#     Edge 32, Type (0, 0), BuildingBlock: UVAHIK_clean_linker_0, # of connection points: 2
#     Edge 33, Type (0, 0), BuildingBlock: UVAHIK_clean_linker_0, # of connection points: 2
#     Edge 34, Type (0, 0), BuildingBlock: UVAHIK_clean_linker_0, # of connection points: 2
#     Edge 35, Type (0, 0), BuildingBlock: UVAHIK_clean_linker_0, # of connection points: 2
# Relax obj value: 0.260
# Max RMSD: 0.251
# Mean RMSD: 0.251
data_MOF--net-vcm--node1-HICVOG_clean_sbu_0--edge1-UVAHIK_clean_linker_0
_symmetry_space_group_name_H-M    P1
_symmetry_Int_Tables_number       1
_symmetry_cell_setting            triclinic
loop_
_symmetry_equiv_pos_as_xyz
'x, y, z'
_cell_length_a     48.739812
_cell_length_b     42.270809
_cell_length_c     34.813464
_cell_angle_alpha  89.91652
_cell_angle_beta   89.979261
_cell_angle_gamma 90.013249
loop_
_atom_site_label
_atom_site_type_symbol
_atom_site_fract_x
_atom_site_fract_y
_atom_site_fract_z
_atom_type_partial_charge
Zn0 Zn 0.0195 0.30715 0.18525 0.0
C1 C 0.06091 0.36145 0.1108 0.0
N2 N 0.04888 0.34274 0.08463 0.0
C3 C 0.03659 0.32078 0.10664 0.0
N4 N 0.0412 0.32556 0.14438 0.0
N5 N 0.05684 0.35108 0.147 0.0
C6 C 0.06154 0.42042 0.21427 0.0
O7 O 0.03978 0.40281 0.22064 0.0
O8 O 0.01423 0.26049 0.17702 0.0
Zn9 Zn 0.08184 0.36118 0.18838 0.0
N10 N 0.98403 0.32845 0.18477 0.0
C11 C 0.9594 0.37446 0.16549 0.0
C12 C 0.98405 0.35829 0.17012 0.0
C13 C 0.96014 0.31435 0.1961 0.0
N14 N 0.9356 0.36026 0.17594 0.0
C15 C 0.93516 0.33068 0.19138 0.0
O16 O 0.07402 0.34015 0.23932 0.0
C17 C 0.05685 0.32204 0.25591 0.0
O18 O 0.0366 0.3101 0.23797 0.0
H19 H 1.00306 0.36936 0.16152 0.0
H20 H 0.96051 0.29054 0.20759 0.0
C21 C 0.14139 0.35972 0.18689 0.0
C22 C 0.167 0.34951 0.1728 0.0
C23 C 0.14415 0.31539 0.12916 0.0
C24 C 0.11893 0.32515 0.14357 0.0
N25 N 0.11794 0.34749 0.17162 0.0
N26 N 0.1675 0.32775 0.14402 0.0
H27 H 0.14002 0.37735 0.20931 0.0
C28 C 0.03562 0.24331 0.17781 0.0
O29 O 0.05974 0.2571 0.1799 0.0
O30 O 0.08251 0.40789 0.19883 0.0
H31 H 0.10028 0.31501 0.13226 0.0
H32 H 0.95915 0.39807 0.15345 0.0
H33 H 0.14521 0.29794 0.10651 0.0
Zn34 Zn 0.51555 0.63458 0.68746 0.0
C35 C 0.56067 0.67654 0.60584 0.0
N36 N 0.54945 0.65384 0.58389 0.0
C37 C 0.53725 0.63514 0.60997 0.0
N38 N 0.54022 0.64611 0.64605 0.0
N39 N 0.55526 0.67213 0.64352 0.0
C40 C 0.5607 0.75413 0.68187 0.0
O41 O 0.53688 0.74015 0.68688 0.0
O42 O 0.51594 0.58765 0.69743 0.0
Zn43 Zn 0.5767 0.69026 0.68484 0.0
N44 N 0.47898 0.6469 0.67117 0.0
C45 C 0.45092 0.67676 0.62856 0.0
C46 C 0.47674 0.6679 0.64171 0.0
C47 C 0.45625 0.63505 0.68886 0.0
N48 N 0.42828 0.66493 0.64604 0.0
C49 C 0.43003 0.64445 0.67618 0.0
O50 O 0.5593 0.68668 0.73729 0.0
C51 C 0.5393 0.67414 0.75523 0.0
O52 O 0.52259 0.65552 0.73865 0.0
H53 H 0.49484 0.67778 0.6284 0.0
H54 H 0.45872 0.61842 0.71225 0.0
C55 C 0.63586 0.68292 0.69688 0.0
C56 C 0.66087 0.66658 0.69278 0.0
C57 C 0.63703 0.62306 0.66577 0.0
C58 C 0.61233 0.63922 0.66981 0.0
N59 N 0.61215 0.66895 0.68472 0.0
N60 N 0.66067 0.63714 0.67708 0.0
H61 H 0.63533 0.70659 0.70867 0.0
C62 C 0.53676 0.57509 0.71326 0.0
O63 O 0.55828 0.5928 0.72064 0.0
O64 O 0.58196 0.73709 0.6775 0.0
H65 H 0.59345 0.62822 0.66061 0.0
H66 H 0.44885 0.69319 0.60487 0.0
H67 H 0.63745 0.59955 0.65356 0.0
Zn68 Zn 0.01723 0.68802 0.83508 0.0
C69 C 0.06004 0.6349 0.90937 0.0
N70 N 0.04648 0.65197 0.93567 0.0
C71 C 0.0336 0.67366 0.91395 0.0
N72 N 0.0391 0.67017 0.87619 0.0
N73 N 0.05601 0.64575 0.87338 0.0
C74 C 0.05995 0.5766 0.80639 0.0
O75 O 0.03827 0.59442 0.80039 0.0
O76 O 0.01109 0.7346 0.84274 0.0
Zn77 Zn 0.08073 0.63574 0.83165 0.0
N78 N 0.98207 0.66613 0.83554 0.0
C79 C 0.95741 0.62048 0.8559 0.0
C80 C 0.98202 0.63678 0.85158 0.0
C81 C 0.95835 0.6796 0.8226 0.0
N82 N 0.93376 0.63402 0.84372 0.0
C83 C 0.93338 0.66312 0.82691 0.0
O84 O 0.07261 0.65665 0.78082 0.0
C85 C 0.05492 0.6741 0.76431 0.0
O86 O 0.03438 0.6853 0.78233 0.0
H87 H 1.00093 0.62623 0.86148 0.0
H88 H 0.95886 0.70305 0.8101 0.0
C89 C 0.14029 0.63699 0.83281 0.0
C90 C 0.16594 0.6472 0.84674 0.0
C91 C 0.14322 0.68165 0.89016 0.0
C92 C 0.11796 0.67185 0.87592 0.0
N93 N 0.11689 0.64938 0.84803 0.0
N94 N 0.16652 0.66913 0.87533 0.0
H95 H 0.13885 0.61921 0.81057 0.0
C96 C 0.03184 0.75256 0.83892 0.0
O97 O 0.05616 0.73968 0.83438 0.0
O98 O 0.08119 0.58898 0.82127 0.0
H99 H 0.09932 0.68205 0.88724 0.0
H100 H 0.95707 0.59726 0.86901 0.0
H101 H 0.14434 0.69921 0.91266 0.0
Zn102 Zn 0.57847 0.30574 0.33559 0.0
C103 C 0.53761 0.36062 0.40965 0.0
N104 N 0.54938 0.34179 0.43597 0.0
C105 C 0.56115 0.31937 0.41417 0.0
N106 N 0.55653 0.32408 0.37636 0.0
N107 N 0.54142 0.35001 0.37355 0.0
C108 C 0.53771 0.42113 0.30693 0.0
O109 O 0.55954 0.40379 0.30011 0.0
O110 O 0.58195 0.25865 0.34228 0.0
Zn111 Zn 0.51706 0.36123 0.33174 0.0
N112 N 0.61463 0.32555 0.3378 0.0
C113 C 0.64092 0.36855 0.36218 0.0
C114 C 0.61577 0.35373 0.35655 0.0
C115 C 0.63784 0.31197 0.3233 0.0
N116 N 0.66405 0.35483 0.34847 0.0
C117 C 0.66338 0.32699 0.3289 0.0
O118 O 0.52524 0.34087 0.28061 0.0
C119 C 0.5425 0.32286 0.26413 0.0
O120 O 0.56235 0.31036 0.28241 0.0
H121 H 0.59731 0.36456 0.36752 0.0
H122 H 0.63651 0.28953 0.30848 0.0
C123 C 0.45771 0.3599 0.32973 0.0
C124 C 0.43156 0.34979 0.34194 0.0
C125 C 0.45268 0.3165 0.38833 0.0
C126 C 0.47844 0.32611 0.37568 0.0
N127 N 0.48052 0.34792 0.34706 0.0
N128 N 0.42995 0.32848 0.37124 0.0
H129 H 0.46005 0.37719 0.30703 0.0
C130 C 0.55996 0.24291 0.33782 0.0
O131 O 0.53675 0.25829 0.33326 0.0
O132 O 0.51681 0.40819 0.32215 0.0
H133 H 0.49661 0.3162 0.3887 0.0
H134 H 0.6421 0.39079 0.37744 0.0
H135 H 0.45072 0.29943 0.41135 0.0
Zn136 Zn 0.51567 0.80871 0.18269 0.0
C137 C 0.56059 0.85976 0.10836 0.0
N138 N 0.54738 0.8423 0.08208 0.0
C139 C 0.53386 0.82124 0.10399 0.0
N140 N 0.53851 0.82557 0.14184 0.0
N141 N 0.55567 0.84974 0.14449 0.0
C142 C 0.55896 0.91912 0.21168 0.0
O143 O 0.53712 0.90148 0.21737 0.0
O144 O 0.51225 0.76146 0.17777 0.0
Zn145 Zn 0.57971 0.85979 0.18671 0.0
N146 N 0.47962 0.82811 0.17755 0.0
C147 C 0.45308 0.86907 0.14883 0.0
C148 C 0.47835 0.85503 0.15617 0.0
C149 C 0.45647 0.81509 0.19295 0.0
N150 N 0.43 0.8559 0.16357 0.0
C151 C 0.43083 0.82936 0.18573 0.0
O152 O 0.57051 0.83936 0.23738 0.0
C153 C 0.55126 0.82476 0.25453 0.0
O154 O 0.53 0.81494 0.23693 0.0
H155 H 0.49681 0.86542 0.14449 0.0
H156 H 0.45796 0.79364 0.20982 0.0
C157 C 0.63886 0.8586 0.18868 0.0
C158 C 0.66502 0.84837 0.17679 0.0
C159 C 0.64398 0.81393 0.1317 0.0
C160 C 0.6182 0.82368 0.14407 0.0
N161 N 0.6161 0.84609 0.1719 0.0
N162 N 0.66669 0.82641 0.14829 0.0
H163 H 0.63648 0.87643 0.21069 0.0
C164 C 0.53415 0.74539 0.18125 0.0
O165 O 0.55768 0.76039 0.18406 0.0
O166 O 0.58021 0.90659 0.197 0.0
H167 H 0.6 0.81347 0.13144 0.0
H168 H 0.45178 0.89028 0.1315 0.0
H169 H 0.64597 0.79637 0.1093 0.0
Zn170 Zn 0.01519 0.13668 0.68899 0.0
C171 C 0.06031 0.17671 0.60651 0.0
N172 N 0.04739 0.15523 0.5846 0.0
C173 C 0.03459 0.13728 0.61086 0.0
N174 N 0.03922 0.14738 0.64697 0.0
N175 N 0.05573 0.17217 0.64437 0.0
C176 C 0.06 0.25241 0.68172 0.0
O177 O 0.03655 0.23722 0.6844 0.0
O178 O 0.01567 0.08967 0.70059 0.0
Zn179 Zn 0.07848 0.18941 0.68511 0.0
N180 N 0.97853 0.14934 0.67361 0.0
C181 C 0.95029 0.18043 0.63253 0.0
C182 C 0.97618 0.1712 0.64509 0.0
C183 C 0.95589 0.13698 0.69093 0.0
N184 N 0.92772 0.16811 0.64971 0.0
C185 C 0.92964 0.14678 0.67894 0.0
O186 O 0.06372 0.18444 0.73946 0.0
C187 C 0.04217 0.17438 0.75621 0.0
O188 O 0.02389 0.15875 0.73848 0.0
H189 H 0.99424 0.18147 0.63212 0.0
H190 H 0.95838 0.11967 0.71354 0.0
C191 C 0.13765 0.18286 0.69597 0.0
C192 C 0.16329 0.16855 0.68891 0.0
C193 C 0.14108 0.1288 0.6522 0.0
C194 C 0.11581 0.14289 0.65936 0.0
N195 N 0.11451 0.16984 0.68059 0.0
N196 N 0.16413 0.14196 0.66693 0.0
H197 H 0.13614 0.20438 0.71264 0.0
C198 C 1.00899 0.08064 0.73421 0.0
O199 O 1.00147 0.10192 0.75958 0.0
O200 O 0.08204 0.2365 0.67898 0.0
H201 H 0.09739 0.13253 0.6476 0.0
H202 H 0.94812 0.19754 0.6096 0.0
H203 H 0.1424 0.10756 0.63498 0.0
Zn204 Zn 0.51713 0.1871 0.83717 0.0
C205 C 0.56129 0.13548 0.9114 0.0
N206 N 0.54787 0.1527 0.93772 0.0
C207 C 0.53469 0.1741 0.91592 0.0
N208 N 0.5398 0.17025 0.87811 0.0
N209 N 0.55682 0.14596 0.87536 0.0
C210 C 0.56249 0.07725 0.80805 0.0
O211 O 0.54035 0.09438 0.80235 0.0
O212 O 0.51328 0.23433 0.84215 0.0
Zn213 Zn 0.58167 0.13695 0.83375 0.0
N214 N 0.48135 0.16704 0.84199 0.0
C215 C 0.45605 0.12401 0.86841 0.0
C216 C 0.48096 0.13881 0.86079 0.0
C217 C 0.45764 0.18068 0.82931 0.0
N218 N 0.43242 0.13783 0.85656 0.0
C219 C 0.4324 0.16569 0.83694 0.0
O220 O 0.57266 0.15731 0.78297 0.0
C221 C 0.55328 0.17155 0.76567 0.0
O222 O 0.53182 0.181 0.78311 0.0
H223 H 0.49985 0.12799 0.87029 0.0
H224 H 0.45839 0.20316 0.81443 0.0
C225 C 0.64093 0.13939 0.83535 0.0
C226 C 0.66641 0.15012 0.84922 0.0
C227 C 0.64322 0.18508 0.89153 0.0
C228 C 0.6181 0.17473 0.87736 0.0
N229 N 0.61739 0.1518 0.85001 0.0
N230 N 0.6667 0.17257 0.87723 0.0
H231 H 0.63972 0.12116 0.81363 0.0
C232 C 0.53505 0.25064 0.83854 0.0
O233 O 0.55868 0.23587 0.83559 0.0
O234 O 0.5834 0.09021 0.82314 0.0
H235 H 0.5993 0.18479 0.88833 0.0
H236 H 0.45545 0.10176 0.88376 0.0
H237 H 0.6441 0.20304 0.91361 0.0
Zn238 Zn 0.0767 0.80714 0.33504 0.0
C239 C 0.03366 0.8608 0.40803 0.0
N240 N 0.04628 0.84316 0.43476 0.0
C241 C 0.05895 0.82111 0.41341 0.0
N242 N 0.05437 0.82505 0.37548 0.0
N243 N 0.03822 0.85008 0.37217 0.0
C244 C 0.03409 0.91951 0.30317 0.0
O245 O 0.05567 0.9018 0.29619 0.0
O246 O 0.08185 0.76046 0.34296 0.0
Zn247 Zn 0.01397 0.8603 0.33006 0.0
N248 N 0.11201 0.82858 0.3369 0.0
C249 C 0.13655 0.87382 0.35877 0.0
C250 C 0.11192 0.85786 0.35308 0.0
C251 C 0.13592 0.81493 0.32502 0.0
N252 N 0.16038 0.86003 0.34775 0.0
C253 C 0.16087 0.83107 0.33076 0.0
O254 O 0.02251 0.83936 0.27953 0.0
C255 C 0.04019 0.82175 0.26331 0.0
O256 O 0.06044 0.81023 0.2817 0.0
H257 H 0.09288 0.86861 0.36208 0.0
H258 H 0.13557 0.79159 0.3123 0.0
C259 C 0.95448 0.85933 0.33101 0.0
C260 C 0.92878 0.84917 0.3448 0.0
C261 C 0.95122 0.8139 0.38758 0.0
C262 C 0.97655 0.82366 0.37349 0.0
N263 N 0.97778 0.84652 0.346 0.0
N264 N 0.92802 0.82685 0.37301 0.0
H265 H 0.95604 0.8774 0.30906 0.0
C266 C 0.06037 0.74357 0.34013 0.0
O267 O 0.03651 0.75771 0.33636 0.0
O268 O 0.01335 0.90709 0.31939 0.0
H269 H 0.99511 0.81312 0.38463 0.0
H270 H 0.13676 0.89695 0.37204 0.0
H271 H 0.94997 0.79602 0.40978 0.0
C272 C 0.21624 0.36386 0.16435 0.0
C273 C 0.19345 0.36074 0.18876 0.0
C274 C 0.24226 0.37007 0.17929 0.0
C275 C 0.28005 0.3933 0.26816 0.0
H276 H 0.3381 0.34328 0.22223 0.0
C277 C 0.38145 0.36187 0.34512 0.0
C278 C 0.40576 0.3606 0.32343 0.0
C279 C 0.35628 0.36811 0.32749 0.0
C280 C 0.32229 0.35788 0.235 0.0
H281 H 0.17997 0.36247 0.24807 0.0
H282 H 0.22551 0.37268 0.27435 0.0
H283 H 0.29259 0.34273 0.19393 0.0
H284 H 0.42265 0.36557 0.26602 0.0
H285 H 0.37869 0.37667 0.2353 0.0
H286 H 0.3098 0.40737 0.31018 0.0
C287 C 0.22321 0.37106 0.24349 0.0
C288 C 0.29611 0.35761 0.21873 0.0
C289 C 0.19705 0.36521 0.22843 0.0
C290 C 0.40444 0.36681 0.28377 0.0
C291 C 0.37919 0.37282 0.26606 0.0
C292 C 0.30627 0.39339 0.28461 0.0
C293 C 0.24626 0.3728 0.21915 0.0
C294 C 0.27454 0.37506 0.23527 0.0
C295 C 0.35476 0.37293 0.28762 0.0
C296 C 0.3276 0.3754 0.26842 0.0
H297 H 0.21405 0.36082 0.1336 0.0
H298 H 0.25936 0.37202 0.15957 0.0
H299 H 0.26407 0.40737 0.28137 0.0
H300 H 0.38175 0.35726 0.37574 0.0
H301 H 0.33785 0.36771 0.34488 0.0
C302 C 0.21518 0.63292 0.85522 0.0
C303 C 0.19235 0.63576 0.83086 0.0
C304 C 0.24116 0.62647 0.84027 0.0
C305 C 0.27875 0.60186 0.75184 0.0
H306 H 0.33684 0.65284 0.79612 0.0
C307 C 0.37997 0.63194 0.67355 0.0
C308 C 0.40431 0.63386 0.69511 0.0
C309 C 0.35486 0.62595 0.69147 0.0
C310 C 0.32102 0.63797 0.78383 0.0
H311 H 0.17876 0.63327 0.77164 0.0
H312 H 0.22422 0.6226 0.74536 0.0
H313 H 0.29139 0.65379 0.82464 0.0
H314 H 0.42127 0.63027 0.75262 0.0
H315 H 0.37742 0.61953 0.78382 0.0
H316 H 0.30844 0.58705 0.71009 0.0
C317 C 0.22198 0.62464 0.7762 0.0
C318 C 0.29488 0.63848 0.80022 0.0
C319 C 0.19586 0.63076 0.79126 0.0
C320 C 0.40306 0.62852 0.73496 0.0
C321 C 0.37786 0.62272 0.75294 0.0
C322 C 0.30494 0.6015 0.73528 0.0
C323 C 0.24507 0.6232 0.80046 0.0
C324 C 0.2733 0.62069 0.78426 0.0
C325 C 0.35341 0.622 0.73148 0.0
C326 C 0.32629 0.61983 0.75087 0.0
H327 H 0.21306 0.63636 0.88591 0.0
H328 H 0.25831 0.62477 0.85994 0.0
H329 H 0.26275 0.58754 0.7391 0.0
H330 H 0.38022 0.63588 0.64279 0.0
H331 H 0.33641 0.62587 0.67413 0.0
C332 C 0.70857 0.68333 0.6778 0.0
C333 C 0.68745 0.68002 0.70484 0.0
C334 C 0.73532 0.69034 0.68957 0.0
C335 C 0.77823 0.71142 0.77593 0.0
H336 H 0.8346 0.66752 0.71819 0.0
C337 C 0.88327 0.67175 0.83678 0.0
C338 C 0.90669 0.676 0.81379 0.0
C339 C 0.85724 0.67964 0.82293 0.0
C340 C 0.81918 0.68036 0.73429 0.0
H341 H 0.67732 0.68187 0.76522 0.0
H342 H 0.72417 0.6927 0.7863 0.0
H343 H 0.78764 0.66721 0.69506 0.0
H344 H 0.92131 0.69241 0.75848 0.0
H345 H 0.87551 0.7055 0.73375 0.0
H346 H 0.80998 0.72256 0.8165 0.0
C347 C 0.72019 0.69114 0.75578 0.0
C348 C 0.79212 0.68036 0.72096 0.0
C349 C 0.69326 0.68487 0.74382 0.0
C350 C 0.90365 0.68924 0.77698 0.0
C351 C 0.87747 0.69651 0.76277 0.0
C352 C 0.80528 0.71088 0.78962 0.0
C353 C 0.7418 0.69315 0.72887 0.0
C354 C 0.77109 0.69558 0.74175 0.0
C355 C 0.85396 0.6913 0.78542 0.0
C356 C 0.82596 0.69506 0.76912 0.0
H357 H 0.70452 0.6796 0.64754 0.0
H358 H 0.75103 0.69262 0.66777 0.0
H359 H 0.76291 0.72396 0.79247 0.0
H360 H 0.88503 0.66153 0.86523 0.0
H361 H 0.83951 0.67509 0.8409 0.0
C362 C 0.8869 0.31671 0.17555 0.0
C363 C 0.90833 0.31708 0.2024 0.0
C364 C 0.86016 0.30915 0.18684 0.0
C365 C 0.81762 0.28065 0.27051 0.0
H366 H 0.7613 0.33018 0.21969 0.0
C367 C 0.71313 0.31537 0.33742 0.0
C368 C 0.68961 0.31408 0.31414 0.0
C369 C 0.73899 0.30825 0.32238 0.0
C370 C 0.77669 0.31576 0.23378 0.0
H371 H 0.91893 0.30929 0.26195 0.0
H372 H 0.87208 0.29748 0.28238 0.0
H373 H 0.80815 0.33228 0.19627 0.0
H374 H 0.6746 0.30359 0.25703 0.0
H375 H 0.72012 0.29182 0.2303 0.0
H376 H 0.78596 0.26599 0.30963 0.0
C377 C 0.87583 0.30186 0.2522 0.0
C378 C 0.8037 0.31681 0.22026 0.0
C379 C 0.90277 0.30868 0.24061 0.0
C380 C 0.69233 0.30439 0.27574 0.0
C381 C 0.71837 0.2979 0.26042 0.0
C382 C 0.79062 0.2801 0.28446 0.0
C383 C 0.85395 0.30278 0.22563 0.0
C384 C 0.82472 0.29953 0.2386 0.0
C385 C 0.74201 0.30035 0.28345 0.0
C386 C 0.76994 0.29789 0.26644 0.0
H387 H 0.89074 0.32307 0.14587 0.0
H388 H 0.84425 0.30916 0.16516 0.0
H389 H 0.83293 0.2665 0.28507 0.0
H390 H 0.71162 0.32288 0.3671 0.0
H391 H 0.75682 0.31063 0.34074 0.0
C392 C 0.87989 0.86462 0.35363 0.0
C393 C 0.90253 0.86106 0.32907 0.0
C394 C 0.85392 0.87128 0.33881 0.0
C395 C 0.81605 0.89428 0.24979 0.0
H396 H 0.75805 0.84448 0.29643 0.0
C397 C 0.71505 0.86082 0.17327 0.0
C398 C 0.69072 0.85976 0.19494 0.0
C399 C 0.74013 0.86768 0.19077 0.0
C400 C 0.77386 0.85902 0.28347 0.0
H401 H 0.91589 0.86259 0.2697 0.0
H402 H 0.87042 0.87349 0.24362 0.0
H403 H 0.80352 0.84426 0.32479 0.0
H404 H 0.67368 0.86576 0.25211 0.0
H405 H 0.71749 0.87792 0.28257 0.0
H406 H 0.78632 0.90785 0.20745 0.0
C407 C 0.87279 0.87191 0.27448 0.0
C408 C 0.8 0.85896 0.29977 0.0
C409 C 0.8989 0.86564 0.28941 0.0
C410 C 0.69191 0.86682 0.23437 0.0
C411 C 0.71706 0.87346 0.25195 0.0
C412 C 0.78986 0.89415 0.23329 0.0
C413 C 0.84984 0.87398 0.29895 0.0
C414 C 0.82156 0.8763 0.28296 0.0
C415 C 0.74151 0.87333 0.23046 0.0
C416 C 0.76857 0.87621 0.24973 0.0
H417 H 0.88214 0.8615 0.38436 0.0
H418 H 0.83689 0.8735 0.35862 0.0
H419 H 0.83203 0.90826 0.23637 0.0
H420 H 0.71482 0.85555 0.14282 0.0
H421 H 0.7586 0.86708 0.17349 0.0
C422 C 0.71558 0.13589 0.85843 0.0
C423 C 0.69288 0.13854 0.83383 0.0
C424 C 0.74156 0.12896 0.84382 0.0
C425 C 0.77912 0.10298 0.75583 0.0
H426 H 0.83746 0.15398 0.7994 0.0
C427 C 0.87964 0.13404 0.67658 0.0
C428 C 0.9041 0.13573 0.69787 0.0
C429 C 0.85469 0.12766 0.69472 0.0
C430 C 0.82155 0.13911 0.78733 0.0
H431 H 0.67947 0.13532 0.77459 0.0
H432 H 0.72492 0.12393 0.74886 0.0
H433 H 0.7921 0.15528 0.82815 0.0
H434 H 0.92152 0.13129 0.75503 0.0
H435 H 0.87792 0.11996 0.78661 0.0
H436 H 0.80862 0.08797 0.71392 0.0
C437 C 0.7226 0.1264 0.77964 0.0
C438 C 0.79547 0.1398 0.80385 0.0
C439 C 0.69649 0.13296 0.79438 0.0
C440 C 0.90318 0.12972 0.7376 0.0
C441 C 0.87815 0.12357 0.7558 0.0
C442 C 0.80523 0.10248 0.7391 0.0
C443 C 0.74558 0.12504 0.8041 0.0
C444 C 0.7738 0.12205 0.78808 0.0
C445 C 0.85357 0.12312 0.73466 0.0
C446 C 0.82663 0.12086 0.75442 0.0
H447 H 0.71336 0.13979 0.88903 0.0
H448 H 0.75863 0.12736 0.86363 0.0
H449 H 0.76305 0.08865 0.74327 0.0
H450 H 0.87967 0.1385 0.64593 0.0
H451 H 0.83609 0.12778 0.67769 0.0
C452 C 0.38383 0.17993 0.85041 0.0
C453 C 0.40576 0.17883 0.82436 0.0
C454 C 0.35737 0.18734 0.83791 0.0
C455 C 0.31655 0.21453 0.75228 0.0
H456 H 0.25939 0.16524 0.80167 0.0
C457 C 0.21326 0.17984 0.68212 0.0
C458 C 0.18939 0.18093 0.70474 0.0
C459 C 0.23887 0.18692 0.69798 0.0
C460 C 0.27501 0.17959 0.78797 0.0
H461 H 0.41752 0.18532 0.76495 0.0
H462 H 0.37112 0.19691 0.7425 0.0
H463 H 0.30578 0.16349 0.8268 0.0
H464 H 0.17351 0.19104 0.76154 0.0
H465 H 0.21852 0.20286 0.78961 0.0
H466 H 0.28562 0.22887 0.71193 0.0
C467 C 0.3743 0.19314 0.77293 0.0
C468 C 0.30174 0.17874 0.80246 0.0
C469 C 0.40097 0.18644 0.78569 0.0
C470 C 0.19151 0.19036 0.74331 0.0
C471 C 0.21726 0.19689 0.75942 0.0
C472 C 0.28984 0.21494 0.73739 0.0
C473 C 0.35196 0.19289 0.79874 0.0
C474 C 0.32304 0.19594 0.78466 0.0
C475 C 0.24125 0.19465 0.73705 0.0
C476 C 0.26886 0.19722 0.7549 0.0
H477 H 0.38707 0.1743 0.88045 0.0
H478 H 0.34104 0.18787 0.85898 0.0
H479 H 0.33214 0.22857 0.7381 0.0
H480 H 0.21223 0.17261 0.65231 0.0
H481 H 0.25697 0.18472 0.68013 0.0
C482 C 0.20945 0.81774 0.34536 0.0
C483 C 0.18768 0.81793 0.31904 0.0
C484 C 0.23607 0.81044 0.33342 0.0
C485 C 0.2777 0.78228 0.24897 0.0
H486 H 0.33409 0.83309 0.29761 0.0
C487 C 0.38091 0.81775 0.17886 0.0
C488 C 0.40472 0.81698 0.2016 0.0
C489 C 0.3553 0.81057 0.19468 0.0
C490 C 0.31869 0.81832 0.28413 0.0
H491 H 0.17636 0.81 0.25979 0.0
H492 H 0.22301 0.79865 0.23823 0.0
H493 H 0.28756 0.83455 0.32229 0.0
H494 H 0.42047 0.80738 0.25863 0.0
H495 H 0.37542 0.79544 0.28663 0.0
H496 H 0.30899 0.76786 0.20921 0.0
C497 C 0.21961 0.803 0.26848 0.0
C498 C 0.29188 0.81901 0.29837 0.0
C499 C 0.19279 0.80957 0.28072 0.0
C500 C 0.40252 0.8078 0.2403 0.0
C501 C 0.37675 0.80121 0.25636 0.0
C502 C 0.30449 0.78207 0.23431 0.0
C503 C 0.2418 0.80414 0.29451 0.0
C504 C 0.27084 0.80125 0.28082 0.0
C505 C 0.35284 0.80307 0.23383 0.0
C506 C 0.32518 0.80034 0.25154 0.0
H507 H 0.20595 0.82401 0.37514 0.0
H508 H 0.25227 0.8106 0.35468 0.0
H509 H 0.26235 0.7678 0.23502 0.0
H510 H 0.38201 0.82479 0.14896 0.0
H511 H 0.33724 0.81249 0.1767 0.0
C512 C 0.08783 0.69441 0.32826 0.0
C513 C 0.06239 0.70887 0.33553 0.0
C514 C 0.08916 0.66235 0.31853 0.0
C515 C 0.05051 0.5872 0.32039 0.0
H516 H 0.09262 0.56745 0.22897 0.0
C517 C 0.03851 0.46806 0.24214 0.0
C518 C 0.06221 0.45375 0.22717 0.0
C519 C 0.03943 0.49892 0.25642 0.0
C520 C 0.08109 0.57239 0.25487 0.0
H521 H 0.01859 0.70068 0.34041 0.0
H522 H 0.02097 0.64476 0.32379 0.0
H523 H 0.09344 0.621 0.25478 0.0
H524 H 0.10543 0.46077 0.21496 0.0
H525 H 0.10718 0.51437 0.2405 0.0
H526 H 0.03817 0.53865 0.32063 0.0
C527 C 0.03986 0.65818 0.32547 0.0
C528 C 0.08158 0.60311 0.26966 0.0
C529 C 0.0385 0.69026 0.33484 0.0
C530 C 0.08677 0.47116 0.2262 0.0
C531 C 0.08775 0.50196 0.24072 0.0
C532 C 0.05017 0.55642 0.30577 0.0
C533 C 0.06513 0.64406 0.31631 0.0
C534 C 0.06608 0.61091 0.30236 0.0
C535 C 0.06413 0.51615 0.25631 0.0
C536 C 0.06522 0.54869 0.27257 0.0
H537 H 0.10662 0.70809 0.32859 0.0
H538 H 0.10896 0.65199 0.3121 0.0
H539 H 0.03861 0.59244 0.34588 0.0
H540 H 0.0192 0.45538 0.24307 0.0
H541 H 0.02071 0.5093 0.26744 0.0
C542 C 0.5085 0.30023 0.82483 0.0
C543 C 0.53366 0.2853 0.8327 0.0
C544 C 0.50772 0.33222 0.81452 0.0
C545 C 0.54733 0.40668 0.81663 0.0
H546 H 0.50563 0.42763 0.72522 0.0
C547 C 0.55974 0.52707 0.7406 0.0
C548 C 0.53613 0.54152 0.72549 0.0
C549 C 0.55879 0.49597 0.75426 0.0
C550 C 0.51707 0.42237 0.75111 0.0
H551 H 0.57756 0.29263 0.83775 0.0
H552 H 0.57614 0.34846 0.82018 0.0
H553 H 0.50433 0.37387 0.75055 0.0
H554 H 0.49305 0.53446 0.71241 0.0
H555 H 0.49124 0.4805 0.73691 0.0
H556 H 0.55995 0.45512 0.81748 0.0
C557 C 0.55703 0.33543 0.82184 0.0
C558 C 0.51631 0.39151 0.76562 0.0
C559 C 0.55785 0.30339 0.83176 0.0
C560 C 0.51165 0.52399 0.72375 0.0
C561 C 0.51065 0.49295 0.73768 0.0
C562 C 0.54792 0.4376 0.80232 0.0
C563 C 0.53204 0.35003 0.81232 0.0
C564 C 0.53161 0.38326 0.79835 0.0
C565 C 0.53416 0.47861 0.75341 0.0
C566 C 0.533 0.4458 0.76915 0.0
H567 H 0.48949 0.28695 0.82531 0.0
H568 H 0.48812 0.34295 0.8078 0.0
H569 H 0.55908 0.40111 0.84216 0.0
H570 H 0.57898 0.53983 0.74212 0.0
H571 H 0.57745 0.48552 0.76539 0.0
C572 C 0.08431 0.52515 0.79526 0.0
C573 C 0.06002 0.54307 0.7942 0.0
C574 C 0.08462 0.49403 0.78167 0.0
C575 C 0.03975 0.42608 0.7614 0.0
H576 H 0.09878 0.39901 0.69433 0.0
C577 C 0.03641 0.30467 0.68776 0.0
C578 C 0.06086 0.28709 0.68728 0.0
C579 C 0.03663 0.33662 0.69793 0.0
C580 C 0.08229 0.40606 0.71333 0.0
H581 H 0.0169 0.54215 0.77879 0.0
H582 H 0.01745 0.48783 0.75536 0.0
H583 H 0.09869 0.45281 0.71979 0.0
H584 H 0.10491 0.28959 0.69554 0.0
H585 H 0.10527 0.34519 0.71396 0.0
H586 H 0.02352 0.37938 0.75565 0.0
C587 C 0.03623 0.49783 0.7667 0.0
C588 C 0.08226 0.43689 0.72791 0.0
C589 C 0.03596 0.529 0.78 0.0
C590 C 0.08571 0.3025 0.69555 0.0
C591 C 0.08592 0.33444 0.70602 0.0
C592 C 0.03987 0.39524 0.74705 0.0
C593 C 0.06061 0.48009 0.76708 0.0
C594 C 0.06094 0.44724 0.75203 0.0
C595 C 0.06129 0.35172 0.70816 0.0
C596 C 0.06109 0.38483 0.72273 0.0
H597 H 0.1032 0.53528 0.80608 0.0
H598 H 0.10364 0.4808 0.78276 0.0
H599 H 0.02325 0.43322 0.78035 0.0
H600 H 0.01694 0.29357 0.68116 0.0
H601 H 0.01737 0.34938 0.69833 0.0
C602 C 0.50791 0.69554 0.19478 0.0
C603 C 0.533 0.71072 0.18715 0.0
C604 C 0.50731 0.66355 0.20514 0.0
C605 C 0.54754 0.58955 0.20364 0.0
H606 H 0.50531 0.5682 0.29449 0.0
C607 C 0.56046 0.46949 0.28013 0.0
C608 C 0.53685 0.4547 0.29475 0.0
C609 C 0.55934 0.50057 0.26644 0.0
C610 C 0.51691 0.57358 0.26876 0.0
H611 H 0.57698 0.70386 0.18258 0.0
H612 H 0.57588 0.64805 0.20026 0.0
H613 H 0.50377 0.62193 0.26906 0.0
H614 H 0.49357 0.46113 0.30701 0.0
H615 H 0.49146 0.51509 0.28248 0.0
H616 H 0.56059 0.54126 0.20307 0.0
C617 C 0.55669 0.66087 0.19837 0.0
C618 C 0.51601 0.60441 0.25419 0.0
C619 C 0.55732 0.69289 0.18838 0.0
C620 C 0.51217 0.47187 0.29603 0.0
C621 C 0.511 0.5029 0.28209 0.0
C622 C 0.54829 0.55866 0.21801 0.0
C623 C 0.53175 0.64601 0.20764 0.0
C624 C 0.53149 0.6128 0.22166 0.0
C625 C 0.53452 0.51757 0.2668 0.0
C626 C 0.53318 0.55032 0.25098 0.0
H627 H 0.48879 0.7086 0.19408 0.0
H628 H 0.48775 0.65262 0.21166 0.0
H629 H 0.55944 0.59522 0.17826 0.0
H630 H 0.57985 0.45701 0.27898 0.0
H631 H 0.578 0.51129 0.25566 0.0
C632 C 0.53514 0.96686 0.23803 0.0
C633 C 0.5592 0.95261 0.22407 0.0
C634 C 0.53556 0.99796 0.25154 0.0
C635 C 0.58168 0.05835 0.29139 0.0
H636 H 0.52363 0.11648 0.2629 0.0
C637 C 0.58562 0.19265 0.32471 0.0
C638 C 0.56074 0.20822 0.33237 0.0
C639 C 0.58577 0.16072 0.31413 0.0
C640 C 0.53978 0.10044 0.27171 0.0
H641 H 0.60253 0.96002 0.21289 0.0
H642 H 0.60322 0.0144 0.23659 0.0
H643 H 0.52322 0.06274 0.23792 0.0
H644 H 0.51673 0.20206 0.3374 0.0
H645 H 0.51704 0.14628 0.32011 0.0
H646 H 0.59814 0.09597 0.32548 0.0
C647 C 0.58409 0.00136 0.2373 0.0
C648 C 0.53958 0.06966 0.25721 0.0
C649 C 0.58364 0.9703 0.22349 0.0
C650 C 0.53621 0.19082 0.33125 0.0
C651 C 0.53638 0.15889 0.32102 0.0
C652 C 0.58179 0.08913 0.30614 0.0
C653 C 0.56008 0.01547 0.25163 0.0
C654 C 0.56053 0.04827 0.26684 0.0
C655 C 0.56107 0.14363 0.3113 0.0
C656 C 0.56082 0.11058 0.29649 0.0
H657 H 0.51598 0.9539 0.23889 0.0
H658 H 0.51676 0.0081 0.26267 0.0
H659 H 0.59793 0.04225 0.29971 0.0
H660 H 0.60487 0.20544 0.32521 0.0
H661 H 0.60515 0.14985 0.30662 0.0
C662 C 1.00229 0.80021 0.82766 0.0
C663 C 0.02838 0.78714 0.83442 0.0
C664 C 0.99949 0.8323 0.81864 0.0
C665 C 1.00395 0.89381 0.7726 0.0
H666 H 0.04309 0.95903 0.82847 0.0
C667 C 0.01498 0.0231 0.71799 0.0
C668 C 1.01036 0.04689 0.74542 0.0
C669 C 0.01655 0.99132 0.72923 0.0
C670 C 0.03196 0.94108 0.81267 0.0
H671 H 0.0718 0.79776 0.83871 0.0
H672 H 0.06683 0.85383 0.82352 0.0
H673 H 0.04643 0.90397 0.84943 0.0
H674 H 1.00372 0.05594 0.80609 0.0
H675 H 1.00666 0.00072 0.82553 0.0
H676 H 0.98958 0.93095 0.73574 0.0
C677 C 0.04859 0.83923 0.82499 0.0
C678 C 0.03401 0.90957 0.82454 0.0
C679 C 0.05143 0.8071 0.83359 0.0
C680 C 1.00731 0.03823 0.7842 0.0
C681 C 1.00914 0.0066 0.79543 0.0
C682 C 1.00214 0.9253 0.76048 0.0
C683 C 0.02266 0.85204 0.81668 0.0
C684 C 0.01998 0.88561 0.80468 0.0
C685 C 0.01384 0.9828 0.76813 0.0
C686 C 0.01607 0.94927 0.78046 0.0
H687 H 0.98412 0.78546 0.82804 0.0
H688 H 0.97921 0.84163 0.81284 0.0
H689 H 0.99315 0.87578 0.75648 0.0
H690 H 0.0174 0.02901 0.68789 0.0
H691 H 0.02035 0.97346 0.70759 0.0
C692 C 0.58864 0.80306 0.69334 0.0
C693 C 0.56302 0.7888 0.6866 0.0
C694 C 0.59028 0.83512 0.70305 0.0
C695 C 0.55194 0.91053 0.70168 0.0
H696 H 0.59497 0.93052 0.79214 0.0
C697 C 0.53981 0.0293 0.78041 0.0
C698 C 0.56348 0.04395 0.79501 0.0
C699 C 0.54094 -0.00149 0.76599 0.0
C700 C 0.58318 0.92551 0.7665 0.0
H701 H 0.51924 0.79734 0.68275 0.0
H702 H 0.52215 0.85323 0.69929 0.0
H703 H 0.59558 0.8769 0.76642 0.0
H704 H 0.60687 0.03755 0.80643 0.0
H705 H 0.60897 0.98398 0.78067 0.0
H706 H 0.53952 0.95904 0.70162 0.0
C707 C 0.54094 0.83967 0.69722 0.0
C708 C 0.58355 0.89476 0.75176 0.0
C709 C 0.53927 0.8076 0.68789 0.0
C710 C 0.58823 0.0269 0.79548 0.0
C711 C 0.58941 0.99612 0.78082 0.0
C712 C 0.55171 0.94133 0.71625 0.0
C713 C 0.56639 0.85362 0.70575 0.0
C714 C 0.56767 0.88685 0.71947 0.0
C715 C 0.56581 0.98163 0.76557 0.0
C716 C 0.56704 0.94913 0.74916 0.0
H717 H 0.60733 0.78922 0.69259 0.0
H718 H 0.61021 0.84533 0.70904 0.0
H719 H 0.53976 0.90524 0.67647 0.0
H720 H 0.52036 0.04169 0.77988 0.0
H721 H 0.52223 0.98789 0.75529 0.0
C722 C 0.05706 0.18964 0.18174 0.0
C723 C 0.03338 0.20859 0.18239 0.0
C724 C 0.05561 0.15753 0.19117 0.0
C725 C 0.01464 0.10272 0.24893 0.0
H726 H 0.05629 0.03794 0.196 0.0
C727 C 1.00903 0.97057 0.29222 0.0
C728 C 0.03341 0.95289 0.29027 0.0
C729 C 1.00803 0.00145 0.27779 0.0
C730 C 0.04479 0.0558 0.21141 0.0
H731 H 0.98936 0.20836 0.19174 0.0
H732 H 0.98687 0.15224 0.20824 0.0
H733 H 0.05587 0.09185 0.17094 0.0
H734 H 0.07609 0.95413 0.27267 0.0
H735 H 0.07456 0.00814 0.24843 0.0
H736 H 1.00405 0.06699 0.28991 0.0
C737 C 1.0066 0.16235 0.20078 0.0
C738 C 0.04446 0.08666 0.1969 0.0
C739 C 1.00801 0.19443 0.19103 0.0
C740 C 0.05692 0.96701 0.27437 0.0
C741 C 0.05598 0.99793 0.26016 0.0
C742 C 0.0151 0.07191 0.26358 0.0
C743 C 0.03047 0.14371 0.20168 0.0
C744 C 0.02952 0.1105 0.21563 0.0
C745 C 0.03145 0.01544 0.26129 0.0
C746 C 0.03035 0.04809 0.24517 0.0
H747 H 0.07691 0.1998 0.17511 0.0
H748 H 0.0744 0.14385 0.1918 0.0
H749 H 1.00327 0.12068 0.26435 0.0
H750 H 0.99052 0.96035 0.30418 0.0
H751 H 0.98872 0.01408 0.27881 0.0
C752 C 0.04571 0.26761 0.08193 0.0
C753 C 0.02646 0.2914 0.08947 0.0
C754 C 0.04164 0.24649 0.05165 0.0
C755 C 1.0045 0.24735 0.95855 0.0
H756 H 0.04708 0.17114 0.94179 0.0
C757 C 0.0108 0.18214 0.81234 0.0
C758 C 0.03762 0.18167 0.79734 0.0
C759 C 1.00611 0.19026 0.85069 0.0
C760 C 0.035 0.19232 0.94624 0.0
H761 H 0.98666 0.31004 0.07439 0.0
H762 H 0.9782 0.27152 0.02352 0.0
H763 H 0.04128 0.19138 1.00699 0.0
H764 H 0.08059 0.18835 0.81119 0.0
H765 H 0.07234 0.20171 0.87879 0.0
H766 H 0.99792 0.24768 0.89768 0.0
C767 C 0.99716 0.26989 0.03957 0.0
C768 C 0.03174 0.20411 0.98355 0.0
C769 C 1.00162 0.29154 0.06933 0.0
C770 C 0.05971 0.18865 0.82186 0.0
C771 C 0.05503 0.19606 0.86051 0.0
C772 C 1.00719 0.23509 0.9215 0.0
C773 C 0.01798 0.24855 0.02849 0.0
C774 C 0.01717 0.23242 0.99019 0.0
C775 C 0.02817 0.19732 0.87507 0.0
C776 C 0.02307 0.20801 0.9149 0.0
H777 H 0.06535 0.26761 0.09656 0.0
H778 H 0.05834 0.23076 0.04437 0.0
H779 H 0.99363 0.26949 0.9618 0.0
H780 H 0.99332 0.17697 0.79419 0.0
H781 H 0.98522 0.19119 0.8613 0.0
C782 C 0.55197 0.73185 0.58759 0.0
C783 C 0.57016 0.70614 0.58819 0.0
C784 C 0.55318 0.75407 0.55783 0.0
C785 C 0.59016 0.78498 0.47419 0.0
H786 H 0.52257 0.76934 0.41871 0.0
C787 C 0.58021 0.81247 0.31198 0.0
C788 C 0.55419 0.81807 0.29606 0.0
C789 C 0.58299 0.80442 0.35078 0.0
C790 C 0.54132 0.77493 0.43387 0.0
H791 H 0.60524 0.68481 0.56044 0.0
H792 H 0.60819 0.72447 0.50926 0.0
H793 H 0.52784 0.74936 0.48351 0.0
H794 H 0.51079 0.82124 0.30859 0.0
H795 H 0.51559 0.8093 0.37666 0.0
H796 H 0.60361 0.81105 0.425 0.0
C797 C 0.593 0.72747 0.5317 0.0
C798 C 0.54433 0.76325 0.47116 0.0
C799 C 0.59146 0.70492 0.56111 0.0
C800 C 0.53107 0.8166 0.32001 0.0
C801 C 0.5339 0.80947 0.35908 0.0
C802 C 0.5869 0.79746 0.43712 0.0
C803 C 0.57283 0.75105 0.52853 0.0
C804 C 0.56891 0.76766 0.49142 0.0
C805 C 0.55986 0.80259 0.37501 0.0
C806 C 0.56261 0.79203 0.41599 0.0
H807 H 0.53477 0.73266 0.60729 0.0
H808 H 0.53735 0.77199 0.55589 0.0
H809 H 0.60935 0.78858 0.48926 0.0
H810 H 0.59839 0.81324 0.29409 0.0
H811 H 0.60328 0.79874 0.3613 0.0
C812 C 0.05077 0.78738 0.20658 0.0
C813 C 0.03611 0.81283 0.22248 0.0
C814 C 0.04539 0.77721 0.16917 0.0
C815 C 0.01705 0.80002 0.07567 0.0
H816 H 1.00791 0.70948 0.06354 0.0
C817 C 0.99751 0.69338 0.9571 0.0
C818 C 0.01916 0.70024 0.93193 0.0
C819 C 0.99201 0.71328 0.98816 0.0
C820 C 1.00986 0.7349 0.06635 0.0
H821 H 1.00501 0.84833 0.21081 0.0
H822 H 0.99594 0.83067 0.14509 0.0
H823 H 0.01534 0.73137 0.12714 0.0
H824 H 0.05046 0.73441 0.91721 0.0
H825 H 0.04079 0.76942 0.97114 0.0
H826 H 0.01237 0.80326 0.01439 0.0
C827 C 0.01146 0.81857 0.16184 0.0
C828 C 0.01454 0.74736 0.10282 0.0
C829 C 0.0166 0.82856 0.19952 0.0
C830 C 0.0331 0.72912 0.93557 0.0
C831 C 0.02772 0.74901 0.96682 0.0
C832 C 0.01264 0.78745 0.03889 0.0
C833 C 0.02544 0.7924 0.14658 0.0
C834 C 0.01866 0.77995 0.10785 0.0
C835 C 1.00842 0.7401 0.99488 0.0
C836 C 1.00929 0.75465 0.0338 0.0
H837 H 0.06593 0.77472 0.22336 0.0
H838 H 0.05674 0.75721 0.15796 0.0
H839 H 0.02016 0.82526 0.07876 0.0
H840 H 0.9868 0.67097 0.95514 0.0
H841 H 0.9766 0.70612 1.00886 0.0
C842 C 0.59231 0.29137 0.45868 0.0
C843 C 0.57089 0.2899 0.43181 0.0
C844 C 0.59413 0.26888 0.48813 0.0
C845 C 0.54581 0.23252 0.54899 0.0
H846 H 0.60574 0.18594 0.59526 0.0
C847 C 0.53315 0.17907 0.70011 0.0
C848 C 0.55623 0.17819 0.72414 0.0
C849 C 0.53595 0.18617 0.66103 0.0
C850 C 0.58884 0.19918 0.5831 0.0
H851 H 0.53557 0.26305 0.41316 0.0
H852 H 0.53866 0.2238 0.46456 0.0
H853 H 0.61118 0.20839 0.53092 0.0
H854 H 0.60034 0.18399 0.72626 0.0
H855 H 0.60515 0.19843 0.65899 0.0
H856 H 0.52412 0.22609 0.60146 0.0
C857 C 0.55437 0.24187 0.46243 0.0
C858 C 0.59194 0.21166 0.54599 0.0
C859 C 0.55286 0.26403 0.43267 0.0
C860 C 0.58219 0.18432 0.7083 0.0
C861 C 0.58493 0.19233 0.66948 0.0
C862 C 0.54295 0.22084 0.58629 0.0
C863 C 0.57412 0.24511 0.49154 0.0
C864 C 0.57045 0.22853 0.52872 0.0
C865 C 0.56182 0.1936 0.64518 0.0
C866 C 0.56447 0.20417 0.6042 0.0
H867 H 0.60596 0.3116 0.45915 0.0
H868 H 0.60939 0.27206 0.51041 0.0
H869 H 0.52913 0.24606 0.53662 0.0
H870 H 0.51292 0.174 0.71147 0.0
H871 H 0.51768 0.18588 0.64339 0.0
C872 C 0.53231 0.76587 0.08225 0.0
C873 C 0.5188 0.79497 0.08635 0.0
C874 C 0.52625 0.74612 0.05111 0.0
C875 C 0.51024 0.70806 0.97938 0.0
H876 H 0.51161 0.76425 0.89119 0.0
C877 C 0.5149 0.66702 0.81852 0.0
C878 C 0.5344 0.68312 0.7959 0.0
C879 C 0.50922 0.67696 0.8561 0.0
C880 C 0.51114 0.74821 0.91549 0.0
H881 H 0.48648 0.82478 0.06417 0.0
H882 H 0.47501 0.78984 0.01074 0.0
H883 H 0.50471 0.786 0.95495 0.0
H884 H 0.56356 0.72196 0.79552 0.0
H885 H 0.55345 0.73932 0.86063 0.0
H886 H 0.51772 0.67038 0.93929 0.0
C887 C 0.49066 0.78242 0.03091 0.0
C888 C 0.50677 0.7606 0.95208 0.0
C889 C 0.49688 0.80221 0.06184 0.0
C890 C 0.54842 0.70897 0.812 0.0
C891 C 0.54251 0.71908 0.84926 0.0
C892 C 0.51437 0.69557 0.94248 0.0
C893 C 0.50664 0.75535 0.02363 0.0
C894 C 0.5068 0.74083 0.98464 0.0
C895 C 0.52263 0.70346 0.87156 0.0
C896 C 0.51556 0.71569 0.91031 0.0
H897 H 0.54983 0.76025 0.10013 0.0
H898 H 0.53902 0.72552 0.0464 0.0
H899 H 0.51038 0.6922 1.00384 0.0
H900 H 0.50378 0.64695 0.80706 0.0
H901 H 0.49378 0.66452 0.87264 0.0
C902 C 0.06109 0.23192 0.58395 0.0
C903 C 0.0751 0.20322 0.58885 0.0
C904 C 0.06719 0.25158 0.55268 0.0
C905 C 0.08368 0.28954 0.48087 0.0
H906 H 0.08362 0.23271 0.39346 0.0
C907 C 0.08067 0.32942 0.31948 0.0
C908 C 0.06141 0.31316 0.29669 0.0
C909 C 0.08598 0.3197 0.35727 0.0
C910 C 0.08374 0.24892 0.41754 0.0
H911 H 0.10824 0.17404 0.56789 0.0
H912 H 0.11968 0.20881 0.51413 0.0
H913 H 0.09013 0.21149 0.45767 0.0
H914 H 0.03232 0.27427 0.29618 0.0
H915 H 0.04183 0.25724 0.36169 0.0
H916 H 0.07632 0.32685 0.44012 0.0
C917 C 0.10368 0.21601 0.53386 0.0
C918 C 0.08787 0.23684 0.45438 0.0
C919 C 0.09746 0.19633 0.56497 0.0
C920 C 0.04727 0.28736 0.31281 0.0
C921 C 0.05284 0.27746 0.35029 0.0
C922 C 0.07983 0.30172 0.44374 0.0
C923 C 0.08731 0.24263 0.52582 0.0
C924 C 0.08737 0.25685 0.48664 0.0
C925 C 0.07245 0.29327 0.37279 0.0
C926 C 0.07913 0.28135 0.41184 0.0
H927 H 0.04322 0.23723 0.6013 0.0
H928 H 0.05411 0.27183 0.54734 0.0
H929 H 0.08317 0.30556 0.50511 0.0
H930 H 0.09185 0.34947 0.30801 0.0
H931 H 0.10122 0.33229 0.37396 0.0
C932 C 0.53382 0.22967 0.93709 0.0
C933 C 0.52008 0.20063 0.93374 0.0
C934 C 0.52834 0.2497 0.96817 0.0
C935 C 0.51337 0.28842 0.03998 0.0
H936 H 0.51611 0.23282 0.12867 0.0
C937 C 0.51855 0.33009 0.20058 0.0
C938 C 0.53817 0.31423 0.22323 0.0
C939 C 0.51304 0.32011 0.16298 0.0
C940 C 0.51528 0.24869 0.10423 0.0
H941 H 0.48792 0.17123 0.95724 0.0
H942 H 0.47749 0.20665 1.01063 0.0
H943 H 0.50846 0.21061 0.06531 0.0
H944 H 0.56786 0.27596 0.22354 0.0
H945 H 0.55806 0.25853 0.15836 0.0
H946 H 0.52115 0.32642 0.07951 0.0
C947 C 0.49286 0.21381 0.98988 0.0
C948 C 0.51047 0.23603 0.06789 0.0
C949 C 0.49849 0.19375 0.959 0.0
C950 C 0.55262 0.28874 0.20704 0.0
C951 C 0.54688 0.27859 0.16974 0.0
C952 C 0.51791 0.30118 0.07664 0.0
C953 C 0.5091 0.24081 0.99635 0.0
C954 C 0.50994 0.25559 0.03516 0.0
C955 C 0.52677 0.29384 0.14751 0.0
C956 C 0.51958 0.28127 0.10897 0.0
H957 H 0.55112 0.235 0.91865 0.0
H958 H 0.54129 0.27024 0.97228 0.0
H959 H 0.5131 0.3041 0.01536 0.0
H960 H 0.50711 0.34988 0.2121 0.0
H961 H 0.49742 0.33226 0.14648 0.0
C962 C 0.09538 0.80137 0.45605 0.0
C963 C 0.07327 0.79456 0.43171 0.0
C964 C 0.10124 0.78164 0.48723 0.0
C965 C 0.08465 0.7605 0.56632 0.0
H966 H 0.07397 0.67026 0.57985 0.0
C967 C 0.04454 0.70862 0.70755 0.0
C968 C 0.05918 0.68314 0.72351 0.0
C969 C 0.04986 0.71873 0.67007 0.0
C970 C 0.07721 0.69546 0.57644 0.0
H971 H 0.04136 0.76073 0.41868 0.0
H972 H 0.05168 0.72597 0.47274 0.0
H973 H 0.08086 0.69198 0.51505 0.0
H974 H 0.09022 0.64759 0.71194 0.0
H975 H 0.09915 0.66511 0.646 0.0
H976 H 0.08011 0.76427 0.62725 0.0
C977 C 0.06484 0.7462 0.46767 0.0
C978 C 0.0811 0.70788 0.53942 0.0
C979 C 0.05908 0.76594 0.43636 0.0
C980 C 0.07866 0.66738 0.70058 0.0
C981 C 0.08372 0.67729 0.6628 0.0
C982 C 0.08047 0.74819 0.60304 0.0
C983 C 0.08476 0.75503 0.49487 0.0
C984 C 0.08454 0.74063 0.53393 0.0
C985 C 0.0697 0.70343 0.64744 0.0
C986 C 0.07621 0.71566 0.60848 0.0
H987 H 0.10628 0.82362 0.45334 0.0
H988 H 0.11708 0.78875 0.50726 0.0
H989 H 0.08671 0.78589 0.56322 0.0
H990 H 0.02941 0.72132 0.72431 0.0
H991 H 0.0385 0.73871 0.65878 0.0
C992 C 0.06747 0.41962 0.11093 0.0
C993 C 0.07661 0.38965 0.0996 0.0
C994 C 0.07665 0.4467 0.09167 0.0
C995 C 0.10095 0.46782 0.99474 0.0
H996 H 0.09993 0.55231 0.03754 0.0
C997 C 0.06698 0.57688 0.90902 0.0
C998 C 0.07613 0.6069 0.9201 0.0
C999 C 0.07633 0.54988 0.92822 0.0
C1000 C 0.10092 0.52894 0.02494 0.0
H1001 H 0.10363 0.36419 0.06131 0.0
H1002 H 0.12063 0.41147 0.02857 0.0
H1003 H 0.10086 0.50689 0.08033 0.0
H1004 H 0.10321 0.63256 0.95809 0.0
H1005 H 0.1205 0.58539 0.9908 0.0
H1006 H 0.10086 0.48986 0.93936 0.0
C1007 C 0.10595 0.41425 0.05167 0.0
C1008 C 0.10105 0.50281 0.04963 0.0
C1009 C 0.09651 0.38721 0.07068 0.0
C1010 C 0.09617 0.60948 0.94881 0.0
C1011 C 0.10575 0.5825 0.96782 0.0
C1012 C 0.10106 0.49395 0.97006 0.0
C1013 C 0.09513 0.44422 0.06065 0.0
C1014 C 0.10011 0.47189 0.03488 0.0
C1015 C 0.09497 0.55248 0.95903 0.0
C1016 C 0.10008 0.52486 0.9848 0.0
H1017 H 0.05141 0.42192 0.13225 0.0
H1018 H 0.06753 0.4692 0.09918 0.0
H1019 H 0.09999 0.44445 0.98213 0.0
H1020 H 0.05073 0.57447 0.88801 0.0
H1021 H 0.06721 0.52733 0.9209 0.0
C1022 C 0.53137 0.57688 0.61 0.0
C1023 C 0.52192 0.60675 0.59872 0.0
C1024 C 0.52232 0.54974 0.59087 0.0
C1025 C 0.49811 0.52844 0.49423 0.0
H1026 H 0.49878 0.44402 0.53755 0.0
C1027 C 0.53184 0.41886 0.40953 0.0
C1028 C 0.5222 0.38902 0.42063 0.0
C1029 C 0.52272 0.44602 0.42854 0.0
C1030 C 0.4979 0.46738 0.52483 0.0
H1031 H 0.49459 0.632 0.56057 0.0
H1032 H 0.4779 0.5846 0.52798 0.0
H1033 H 0.49789 0.48953 0.58008 0.0
H1034 H 0.49449 0.36384 0.45833 0.0
H1035 H 0.4777 0.4113 0.49075 0.0
H1036 H 0.49836 0.5063 0.43899 0.0
C1037 C 0.49265 0.58194 0.551 0.0
C1038 C 0.49778 0.49354 0.54935 0.0
C1039 C 0.50192 0.60904 0.56991 0.0
C1040 C 0.50196 0.38678 0.44913 0.0
C1041 C 0.49263 0.41391 0.46794 0.0
C1042 C 0.49804 0.50228 0.46972 0.0
C1043 C 0.5037 0.55209 0.56 0.0
C1044 C 0.4988 0.52442 0.5344 0.0
C1045 C 0.50385 0.44373 0.45912 0.0
C1046 C 0.49886 0.47141 0.48468 0.0
H1047 H 0.5475 0.57474 0.63122 0.0
H1048 H 0.53161 0.5273 0.59835 0.0
H1049 H 0.49916 0.5518 0.48152 0.0
H1050 H 0.54818 0.42097 0.3886 0.0
H1051 H 0.53214 0.46843 0.42122 0.0
C1052 C 0.59646 0.88557 0.06864 0.0
C1053 C 0.57653 0.8879 0.09754 0.0
C1054 C 0.6061 0.91275 0.05005 0.0
C1055 C 0.60176 0.0014 0.04967 0.0
H1056 H 0.60187 0.99004 0.93915 0.0
C1057 C 0.56822 0.07744 0.91028 0.0
C1058 C 0.57724 0.10734 0.92208 0.0
C1059 C 0.5775 0.0502 0.92904 0.0
C1060 C 0.60198 0.99369 0.96993 0.0
H1061 H 0.55123 0.92005 0.13019 0.0
H1062 H 0.5678 0.9675 0.09808 0.0
H1063 H 0.60074 0.94402 0.98096 0.0
H1064 H 0.60401 0.13253 0.96094 0.0
H1065 H 0.62118 0.08494 0.99289 0.0
H1066 H 0.60077 0.05107 0.03865 0.0
C1067 C 0.57685 0.94501 0.09033 0.0
C1068 C 0.60173 0.9672 0.99406 0.0
C1069 C 0.56745 0.91783 0.1091 0.0
C1070 C 0.59705 0.10957 0.95113 0.0
C1071 C 0.60657 0.08234 0.96969 0.0
C1072 C 0.60175 0.02789 0.02555 0.0
C1073 C 0.59547 0.94272 0.05944 0.0
C1074 C 0.60075 0.97069 0.03427 0.0
C1075 C 0.59594 0.0524 0.96011 0.0
C1076 C 0.60099 0.0244 0.98532 0.0
H1077 H 0.60346 0.86259 0.05899 0.0
H1078 H 0.62082 0.91008 0.02698 0.0
H1079 H 0.6015 0.00505 0.08045 0.0
H1080 H 0.55212 0.07529 0.88901 0.0
H1081 H 0.56846 0.02774 0.92111 0.0
C1082 C 0.02924 0.0791 0.61436 0.0
C1083 C 0.01998 0.10823 0.60015 0.0
C1084 C 0.0223 0.05106 0.5955 0.0
C1085 C 0.02985 0.01028 0.52448 0.0
H1086 H 0.96098 0.97845 0.48414 0.0
C1087 C 0.03057 0.9191 0.4056 0.0
C1088 C 0.01949 0.89027 0.41804 0.0
C1089 C 0.02394 0.94713 0.42467 0.0
C1090 C 0.98029 0.98732 0.49513 0.0
H1091 H 0.9948 0.13111 0.55715 0.0
H1092 H 0.98216 0.08192 0.52451 0.0
H1093 H 0.96089 0.02299 0.52986 0.0
H1094 H 0.99159 0.86798 0.45813 0.0
H1095 H 0.97945 0.91725 0.4911 0.0
H1096 H 0.04941 0.9755 0.48941 0.0
C1097 C 0.9946 0.08069 0.55025 0.0
C1098 C 0.98023 0.01256 0.52128 0.0
C1099 C 1.00181 0.10877 0.56887 0.0
C1100 C 0.99996 0.89013 0.44768 0.0
C1101 C 0.99306 0.91824 0.46651 0.0
C1102 C 0.02994 0.9857 0.49789 0.0
C1103 C 1.00597 0.05181 0.56221 0.0
C1104 C 1.00507 0.02404 0.53638 0.0
C1105 C 1.00611 0.94666 0.45643 0.0
C1106 C 1.00522 0.97399 0.48291 0.0
H1107 H 0.04399 0.07822 0.63761 0.0
H1108 H 0.03132 0.02903 0.60524 0.0
H1109 H 0.04931 0.01903 0.53515 0.0
H1110 H 0.04642 0.91957 0.3838 0.0
H1111 H 0.0343 0.96879 0.41646 0.0
loop_
_geom_bond_atom_site_label_1
_geom_bond_atom_site_label_2
_geom_bond_distance
_geom_bond_site_symmetry_2
_ccdc_geom_bond_type
Zn0 N4 2.020 . S
Zn0 O8 2.019 . S
Zn0 N10 2.119 1_455 S
Zn0 O18 1.975 . S
C1 N2 1.334 . S
C1 N5 1.336 . S
N2 C1 1.334 . S
N2 C3 1.334 . S
C3 N2 1.334 . S
C3 N4 1.336 . S
N4 Zn0 2.020 . S
N4 C3 1.336 . S
N4 N5 1.354 . S
N5 C1 1.336 . S
N5 N4 1.354 . S
N5 Zn9 2.020 . S
C6 O7 1.244 . S
C6 O30 1.257 . S
O7 C6 1.244 . S
O8 Zn0 2.019 . S
O8 C28 1.257 . S
Zn9 N5 2.020 . S
Zn9 O16 1.975 . S
Zn9 N25 2.119 . S
Zn9 O30 2.019 . S
N10 Zn0 2.119 1_655 S
N10 C12 1.334 . S
N10 C13 1.328 . S
C11 C12 1.391 . S
C11 N14 1.329 . S
C11 H32 0.930 . S
C12 N10 1.334 . S
C12 C11 1.391 . S
C12 H19 0.930 . S
C13 N10 1.328 . S
C13 C15 1.392 . S
C13 H20 0.930 . S
N14 C11 1.329 . S
N14 C15 1.331 . S
C15 C13 1.392 . S
C15 N14 1.331 . S
O16 Zn9 1.975 . S
O16 C17 1.252 . S
C17 O16 1.252 . S
C17 O18 1.252 . S
O18 Zn0 1.975 . S
O18 C17 1.252 . S
H19 C12 0.930 . S
H20 C13 0.930 . S
C21 C22 1.392 . S
C21 N25 1.328 . S
C21 H27 0.930 . S
C22 C21 1.392 . S
C22 N26 1.331 . S
C23 C24 1.391 . S
C23 N26 1.329 . S
C23 H33 0.930 . S
C24 C23 1.391 . S
C24 N25 1.334 . S
C24 H31 0.930 . S
N25 Zn9 2.119 . S
N25 C21 1.328 . S
N25 C24 1.334 . S
N26 C22 1.331 . S
N26 C23 1.329 . S
H27 C21 0.930 . S
C28 O8 1.257 . S
C28 O29 1.244 . S
O29 C28 1.244 . S
O30 C6 1.257 . S
O30 Zn9 2.019 . S
H31 C24 0.930 . S
H32 C11 0.930 . S
H33 C23 0.930 . S
Zn34 N38 2.020 . S
Zn34 O42 2.019 . S
Zn34 N44 2.119 . S
Zn34 O52 1.975 . S
C35 N36 1.334 . S
C35 N39 1.336 . S
N36 C35 1.334 . S
N36 C37 1.334 . S
C37 N36 1.334 . S
C37 N38 1.336 . S
N38 Zn34 2.020 . S
N38 C37 1.336 . S
N38 N39 1.354 . S
N39 C35 1.336 . S
N39 N38 1.354 . S
N39 Zn43 2.020 . S
C40 O41 1.244 . S
C40 O64 1.257 . S
O41 C40 1.244 . S
O42 Zn34 2.019 . S
O42 C62 1.257 . S
Zn43 N39 2.020 . S
Zn43 O50 1.975 . S
Zn43 N59 2.119 . S
Zn43 O64 2.019 . S
N44 Zn34 2.119 . S
N44 C46 1.334 . S
N44 C47 1.328 . S
C45 C46 1.391 . S
C45 N48 1.329 . S
C45 H66 0.930 . S
C46 N44 1.334 . S
C46 C45 1.391 . S
C46 H53 0.930 . S
C47 N44 1.328 . S
C47 C49 1.392 . S
C47 H54 0.930 . S
N48 C45 1.329 . S
N48 C49 1.331 . S
C49 C47 1.392 . S
C49 N48 1.331 . S
O50 Zn43 1.975 . S
O50 C51 1.252 . S
C51 O50 1.252 . S
C51 O52 1.252 . S
O52 Zn34 1.975 . S
O52 C51 1.252 . S
H53 C46 0.930 . S
H54 C47 0.930 . S
C55 C56 1.392 . S
C55 N59 1.328 . S
C55 H61 0.930 . S
C56 C55 1.392 . S
C56 N60 1.331 . S
C57 C58 1.391 . S
C57 N60 1.329 . S
C57 H67 0.930 . S
C58 C57 1.391 . S
C58 N59 1.334 . S
C58 H65 0.930 . S
N59 Zn43 2.119 . S
N59 C55 1.328 . S
N59 C58 1.334 . S
N60 C56 1.331 . S
N60 C57 1.329 . S
H61 C55 0.930 . S
C62 O42 1.257 . S
C62 O63 1.244 . S
O63 C62 1.244 . S
O64 C40 1.257 . S
O64 Zn43 2.019 . S
H65 C58 0.930 . S
H66 C45 0.930 . S
H67 C57 0.930 . S
Zn68 N72 2.020 . S
Zn68 O76 2.019 . S
Zn68 N78 2.119 1_455 S
Zn68 O86 1.975 . S
C69 N70 1.334 . S
C69 N73 1.336 . S
N70 C69 1.334 . S
N70 C71 1.334 . S
C71 N70 1.334 . S
C71 N72 1.336 . S
N72 Zn68 2.020 . S
N72 C71 1.336 . S
N72 N73 1.354 . S
N73 C69 1.336 . S
N73 N72 1.354 . S
N73 Zn77 2.020 . S
C74 O75 1.244 . S
C74 O98 1.257 . S
O75 C74 1.244 . S
O76 Zn68 2.019 . S
O76 C96 1.257 . S
Zn77 N73 2.020 . S
Zn77 O84 1.975 . S
Zn77 N93 2.119 . S
Zn77 O98 2.019 . S
N78 Zn68 2.119 1_655 S
N78 C80 1.334 . S
N78 C81 1.328 . S
C79 C80 1.391 . S
C79 N82 1.329 . S
C79 H100 0.930 . S
C80 N78 1.334 . S
C80 C79 1.391 . S
C80 H87 0.930 . S
C81 N78 1.328 . S
C81 C83 1.392 . S
C81 H88 0.930 . S
N82 C79 1.329 . S
N82 C83 1.331 . S
C83 C81 1.392 . S
C83 N82 1.331 . S
O84 Zn77 1.975 . S
O84 C85 1.252 . S
C85 O84 1.252 . S
C85 O86 1.252 . S
O86 Zn68 1.975 . S
O86 C85 1.252 . S
H87 C80 0.930 . S
H88 C81 0.930 . S
C89 C90 1.392 . S
C89 N93 1.328 . S
C89 H95 0.930 . S
C90 C89 1.392 . S
C90 N94 1.331 . S
C91 C92 1.391 . S
C91 N94 1.329 . S
C91 H101 0.930 . S
C92 C91 1.391 . S
C92 N93 1.334 . S
C92 H99 0.930 . S
N93 Zn77 2.119 . S
N93 C89 1.328 . S
N93 C92 1.334 . S
N94 C90 1.331 . S
N94 C91 1.329 . S
H95 C89 0.930 . S
C96 O76 1.257 . S
C96 O97 1.244 . S
O97 C96 1.244 . S
O98 C74 1.257 . S
O98 Zn77 2.019 . S
H99 C92 0.930 . S
H100 C79 0.930 . S
H101 C91 0.930 . S
Zn102 N106 2.020 . S
Zn102 O110 2.019 . S
Zn102 N112 2.119 . S
Zn102 O120 1.975 . S
C103 N104 1.334 . S
C103 N107 1.336 . S
N104 C103 1.334 . S
N104 C105 1.334 . S
C105 N104 1.334 . S
C105 N106 1.336 . S
N106 Zn102 2.020 . S
N106 C105 1.336 . S
N106 N107 1.354 . S
N107 C103 1.336 . S
N107 N106 1.354 . S
N107 Zn111 2.020 . S
C108 O109 1.244 . S
C108 O132 1.257 . S
O109 C108 1.244 . S
O110 Zn102 2.019 . S
O110 C130 1.257 . S
Zn111 N107 2.020 . S
Zn111 O118 1.975 . S
Zn111 N127 2.119 . S
Zn111 O132 2.019 . S
N112 Zn102 2.119 . S
N112 C114 1.334 . S
N112 C115 1.328 . S
C113 C114 1.391 . S
C113 N116 1.329 . S
C113 H134 0.930 . S
C114 N112 1.334 . S
C114 C113 1.391 . S
C114 H121 0.930 . S
C115 N112 1.328 . S
C115 C117 1.392 . S
C115 H122 0.930 . S
N116 C113 1.329 . S
N116 C117 1.331 . S
C117 C115 1.392 . S
C117 N116 1.331 . S
O118 Zn111 1.975 . S
O118 C119 1.252 . S
C119 O118 1.252 . S
C119 O120 1.252 . S
O120 Zn102 1.975 . S
O120 C119 1.252 . S
H121 C114 0.930 . S
H122 C115 0.930 . S
C123 C124 1.392 . S
C123 N127 1.328 . S
C123 H129 0.930 . S
C124 C123 1.392 . S
C124 N128 1.331 . S
C125 C126 1.391 . S
C125 N128 1.329 . S
C125 H135 0.930 . S
C126 C125 1.391 . S
C126 N127 1.334 . S
C126 H133 0.930 . S
N127 Zn111 2.119 . S
N127 C123 1.328 . S
N127 C126 1.334 . S
N128 C124 1.331 . S
N128 C125 1.329 . S
H129 C123 0.930 . S
C130 O110 1.257 . S
C130 O131 1.244 . S
O131 C130 1.244 . S
O132 C108 1.257 . S
O132 Zn111 2.019 . S
H133 C126 0.930 . S
H134 C113 0.930 . S
H135 C125 0.930 . S
Zn136 N140 2.020 . S
Zn136 O144 2.019 . S
Zn136 N146 2.119 . S
Zn136 O154 1.975 . S
C137 N138 1.334 . S
C137 N141 1.336 . S
N138 C137 1.334 . S
N138 C139 1.334 . S
C139 N138 1.334 . S
C139 N140 1.336 . S
N140 Zn136 2.020 . S
N140 C139 1.336 . S
N140 N141 1.354 . S
N141 C137 1.336 . S
N141 N140 1.354 . S
N141 Zn145 2.020 . S
C142 O143 1.244 . S
C142 O166 1.257 . S
O143 C142 1.244 . S
O144 Zn136 2.019 . S
O144 C164 1.257 . S
Zn145 N141 2.020 . S
Zn145 O152 1.975 . S
Zn145 N161 2.119 . S
Zn145 O166 2.019 . S
N146 Zn136 2.119 . S
N146 C148 1.334 . S
N146 C149 1.328 . S
C147 C148 1.391 . S
C147 N150 1.329 . S
C147 H168 0.930 . S
C148 N146 1.334 . S
C148 C147 1.391 . S
C148 H155 0.930 . S
C149 N146 1.328 . S
C149 C151 1.392 . S
C149 H156 0.930 . S
N150 C147 1.329 . S
N150 C151 1.331 . S
C151 C149 1.392 . S
C151 N150 1.331 . S
O152 Zn145 1.975 . S
O152 C153 1.252 . S
C153 O152 1.252 . S
C153 O154 1.252 . S
O154 Zn136 1.975 . S
O154 C153 1.252 . S
H155 C148 0.930 . S
H156 C149 0.930 . S
C157 C158 1.392 . S
C157 N161 1.328 . S
C157 H163 0.930 . S
C158 C157 1.392 . S
C158 N162 1.331 . S
C159 C160 1.391 . S
C159 N162 1.329 . S
C159 H169 0.930 . S
C160 C159 1.391 . S
C160 N161 1.334 . S
C160 H167 0.930 . S
N161 Zn145 2.119 . S
N161 C157 1.328 . S
N161 C160 1.334 . S
N162 C158 1.331 . S
N162 C159 1.329 . S
H163 C157 0.930 . S
C164 O144 1.257 . S
C164 O165 1.244 . S
O165 C164 1.244 . S
O166 C142 1.257 . S
O166 Zn145 2.019 . S
H167 C160 0.930 . S
H168 C147 0.930 . S
H169 C159 0.930 . S
Zn170 N174 2.020 . S
Zn170 O178 2.019 1_455 S
Zn170 N180 2.119 1_455 S
Zn170 O188 1.975 . S
C171 N172 1.334 . S
C171 N175 1.336 . S
N172 C171 1.334 . S
N172 C173 1.334 . S
C173 N172 1.334 . S
C173 N174 1.336 . S
N174 Zn170 2.020 . S
N174 C173 1.336 . S
N174 N175 1.354 . S
N175 C171 1.336 . S
N175 N174 1.354 . S
N175 Zn179 2.020 . S
C176 O177 1.244 . S
C176 O200 1.257 . S
O177 C176 1.244 . S
O178 Zn170 2.019 1_655 S
O178 C198 1.257 1_655 S
Zn179 N175 2.020 . S
Zn179 O186 1.975 . S
Zn179 N195 2.119 . S
Zn179 O200 2.019 . S
N180 Zn170 2.119 1_655 S
N180 C182 1.334 . S
N180 C183 1.328 . S
C181 C182 1.391 . S
C181 N184 1.329 . S
C181 H202 0.930 . S
C182 N180 1.334 . S
C182 C181 1.391 . S
C182 H189 0.930 . S
C183 N180 1.328 . S
C183 C185 1.392 . S
C183 H190 0.930 . S
N184 C181 1.329 . S
N184 C185 1.331 . S
C185 C183 1.392 . S
C185 N184 1.331 . S
O186 Zn179 1.975 . S
O186 C187 1.252 . S
C187 O186 1.252 . S
C187 O188 1.252 . S
O188 Zn170 1.975 . S
O188 C187 1.252 . S
H189 C182 0.930 . S
H190 C183 0.930 . S
C191 C192 1.392 . S
C191 N195 1.328 . S
C191 H197 0.930 . S
C192 C191 1.392 . S
C192 N196 1.331 . S
C193 C194 1.391 . S
C193 N196 1.329 . S
C193 H203 0.930 . S
C194 C193 1.391 . S
C194 N195 1.334 . S
C194 H201 0.930 . S
N195 Zn179 2.119 . S
N195 C191 1.328 . S
N195 C194 1.334 . S
N196 C192 1.331 . S
N196 C193 1.329 . S
H197 C191 0.930 . S
C198 O178 1.257 1_455 S
C198 O199 1.244 . S
O199 C198 1.244 . S
O200 C176 1.257 . S
O200 Zn179 2.019 . S
H201 C194 0.930 . S
H202 C181 0.930 . S
H203 C193 0.930 . S
Zn204 N208 2.020 . S
Zn204 O212 2.019 . S
Zn204 N214 2.119 . S
Zn204 O222 1.975 . S
C205 N206 1.334 . S
C205 N209 1.336 . S
N206 C205 1.334 . S
N206 C207 1.334 . S
C207 N206 1.334 . S
C207 N208 1.336 . S
N208 Zn204 2.020 . S
N208 C207 1.336 . S
N208 N209 1.354 . S
N209 C205 1.336 . S
N209 N208 1.354 . S
N209 Zn213 2.020 . S
C210 O211 1.244 . S
C210 O234 1.257 . S
O211 C210 1.244 . S
O212 Zn204 2.019 . S
O212 C232 1.257 . S
Zn213 N209 2.020 . S
Zn213 O220 1.975 . S
Zn213 N229 2.119 . S
Zn213 O234 2.019 . S
N214 Zn204 2.119 . S
N214 C216 1.334 . S
N214 C217 1.328 . S
C215 C216 1.391 . S
C215 N218 1.329 . S
C215 H236 0.930 . S
C216 N214 1.334 . S
C216 C215 1.391 . S
C216 H223 0.930 . S
C217 N214 1.328 . S
C217 C219 1.392 . S
C217 H224 0.930 . S
N218 C215 1.329 . S
N218 C219 1.331 . S
C219 C217 1.392 . S
C219 N218 1.331 . S
O220 Zn213 1.975 . S
O220 C221 1.252 . S
C221 O220 1.252 . S
C221 O222 1.252 . S
O222 Zn204 1.975 . S
O222 C221 1.252 . S
H223 C216 0.930 . S
H224 C217 0.930 . S
C225 C226 1.392 . S
C225 N229 1.328 . S
C225 H231 0.930 . S
C226 C225 1.392 . S
C226 N230 1.331 . S
C227 C228 1.391 . S
C227 N230 1.329 . S
C227 H237 0.930 . S
C228 C227 1.391 . S
C228 N229 1.334 . S
C228 H235 0.930 . S
N229 Zn213 2.119 . S
N229 C225 1.328 . S
N229 C228 1.334 . S
N230 C226 1.331 . S
N230 C227 1.329 . S
H231 C225 0.930 . S
C232 O212 1.257 . S
C232 O233 1.244 . S
O233 C232 1.244 . S
O234 C210 1.257 . S
O234 Zn213 2.019 . S
H235 C228 0.930 . S
H236 C215 0.930 . S
H237 C227 0.930 . S
Zn238 N242 2.020 . S
Zn238 O246 2.019 . S
Zn238 N248 2.119 . S
Zn238 O256 1.975 . S
C239 N240 1.334 . S
C239 N243 1.336 . S
N240 C239 1.334 . S
N240 C241 1.334 . S
C241 N240 1.334 . S
C241 N242 1.336 . S
N242 Zn238 2.020 . S
N242 C241 1.336 . S
N242 N243 1.354 . S
N243 C239 1.336 . S
N243 N242 1.354 . S
N243 Zn247 2.020 . S
C244 O245 1.244 . S
C244 O268 1.257 1_455 S
O245 C244 1.244 . S
O246 Zn238 2.019 . S
O246 C266 1.257 . S
Zn247 N243 2.020 . S
Zn247 O254 1.975 . S
Zn247 N263 2.119 1_455 S
Zn247 O268 2.019 1_455 S
N248 Zn238 2.119 . S
N248 C250 1.334 . S
N248 C251 1.328 . S
C249 C250 1.391 . S
C249 N252 1.329 . S
C249 H270 0.930 . S
C250 N248 1.334 . S
C250 C249 1.391 . S
C250 H257 0.930 . S
C251 N248 1.328 . S
C251 C253 1.392 . S
C251 H258 0.930 . S
N252 C249 1.329 . S
N252 C253 1.331 . S
C253 C251 1.392 . S
C253 N252 1.331 . S
O254 Zn247 1.975 . S
O254 C255 1.252 . S
C255 O254 1.252 . S
C255 O256 1.252 . S
O256 Zn238 1.975 . S
O256 C255 1.252 . S
H257 C250 0.930 . S
H258 C251 0.930 . S
C259 C260 1.392 . S
C259 N263 1.328 . S
C259 H265 0.930 . S
C260 C259 1.392 . S
C260 N264 1.331 . S
C261 C262 1.391 . S
C261 N264 1.329 . S
C261 H271 0.930 . S
C262 C261 1.391 . S
C262 N263 1.334 . S
C262 H269 0.930 . S
N263 Zn247 2.119 1_655 S
N263 C259 1.328 . S
N263 C262 1.334 . S
N264 C260 1.331 . S
N264 C261 1.329 . S
H265 C259 0.930 . S
C266 O246 1.257 . S
C266 O267 1.244 . S
O267 C266 1.244 . S
O268 C244 1.257 1_655 S
O268 Zn247 2.019 1_655 S
H269 C262 0.930 . S
H270 C249 0.930 . S
H271 C261 0.930 . S
C272 C273 1.349 . S
C272 C274 1.327 . S
C272 H297 0.950 . S
C273 C272 1.349 . S
C273 C289 1.349 . S
C274 C272 1.327 . S
C274 C293 1.429 . S
C274 H298 0.950 . S
C275 C292 1.574 . S
C275 C294 1.368 . S
C275 H299 0.949 . S
H276 C280 0.949 . S
C277 C278 1.349 . S
C277 C279 1.327 . S
C277 H300 0.950 . S
C278 C277 1.349 . S
C278 C290 1.349 . S
C279 C277 1.327 . S
C279 C295 1.429 . S
C279 H301 0.950 . S
C280 H276 0.949 . S
C280 C288 1.574 . S
C280 C296 1.368 . S
H281 C289 0.950 . S
H282 C287 0.950 . S
H283 C288 0.949 . S
H284 C290 0.950 . S
H285 C291 0.950 . S
H286 C292 0.949 . S
C287 H282 0.950 . S
C287 C289 1.327 . S
C287 C293 1.429 . S
C288 C280 1.574 . S
C288 H283 0.949 . S
C288 C294 1.368 . S
C289 C273 1.349 . S
C289 H281 0.950 . S
C289 C287 1.327 . S
C290 C278 1.349 . S
C290 H284 0.950 . S
C290 C291 1.327 . S
C291 H285 0.950 . S
C291 C290 1.327 . S
C291 C295 1.429 . S
C292 C275 1.574 . S
C292 H286 0.949 . S
C292 C296 1.368 . S
C293 C274 1.429 . S
C293 C287 1.429 . S
C293 C294 1.523 . S
C294 C275 1.368 . S
C294 C288 1.368 . S
C294 C293 1.523 . S
C295 C279 1.429 . S
C295 C291 1.429 . S
C295 C296 1.523 . S
C296 C280 1.368 . S
C296 C292 1.368 . S
C296 C295 1.523 . S
H297 C272 0.950 . S
H298 C274 0.950 . S
H299 C275 0.949 . S
H300 C277 0.950 . S
H301 C279 0.950 . S
C302 C303 1.349 . S
C302 C304 1.327 . S
C302 H327 0.950 . S
C303 C302 1.349 . S
C303 C319 1.349 . S
C304 C302 1.327 . S
C304 C323 1.429 . S
C304 H328 0.950 . S
C305 C322 1.574 . S
C305 C324 1.368 . S
C305 H329 0.949 . S
H306 C310 0.949 . S
C307 C308 1.349 . S
C307 C309 1.327 . S
C307 H330 0.950 . S
C308 C307 1.349 . S
C308 C320 1.349 . S
C309 C307 1.327 . S
C309 C325 1.429 . S
C309 H331 0.950 . S
C310 H306 0.949 . S
C310 C318 1.574 . S
C310 C326 1.368 . S
H311 C319 0.950 . S
H312 C317 0.950 . S
H313 C318 0.949 . S
H314 C320 0.950 . S
H315 C321 0.950 . S
H316 C322 0.949 . S
C317 H312 0.950 . S
C317 C319 1.327 . S
C317 C323 1.429 . S
C318 C310 1.574 . S
C318 H313 0.949 . S
C318 C324 1.368 . S
C319 C303 1.349 . S
C319 H311 0.950 . S
C319 C317 1.327 . S
C320 C308 1.349 . S
C320 H314 0.950 . S
C320 C321 1.327 . S
C321 H315 0.950 . S
C321 C320 1.327 . S
C321 C325 1.429 . S
C322 C305 1.574 . S
C322 H316 0.949 . S
C322 C326 1.368 . S
C323 C304 1.429 . S
C323 C317 1.429 . S
C323 C324 1.523 . S
C324 C305 1.368 . S
C324 C318 1.368 . S
C324 C323 1.523 . S
C325 C309 1.429 . S
C325 C321 1.429 . S
C325 C326 1.523 . S
C326 C310 1.368 . S
C326 C322 1.368 . S
C326 C325 1.523 . S
H327 C302 0.950 . S
H328 C304 0.950 . S
H329 C305 0.949 . S
H330 C307 0.950 . S
H331 C309 0.950 . S
C332 C333 1.349 . S
C332 C334 1.327 . S
C332 H357 0.950 . S
C333 C332 1.349 . S
C333 C349 1.349 . S
C334 C332 1.327 . S
C334 C353 1.429 . S
C334 H358 0.950 . S
C335 C352 1.574 . S
C335 C354 1.368 . S
C335 H359 0.949 . S
H336 C340 0.949 . S
C337 C338 1.349 . S
C337 C339 1.327 . S
C337 H360 0.950 . S
C338 C337 1.349 . S
C338 C350 1.349 . S
C339 C337 1.327 . S
C339 C355 1.429 . S
C339 H361 0.950 . S
C340 H336 0.949 . S
C340 C348 1.574 . S
C340 C356 1.368 . S
H341 C349 0.950 . S
H342 C347 0.950 . S
H343 C348 0.949 . S
H344 C350 0.950 . S
H345 C351 0.950 . S
H346 C352 0.949 . S
C347 H342 0.950 . S
C347 C349 1.327 . S
C347 C353 1.429 . S
C348 C340 1.574 . S
C348 H343 0.949 . S
C348 C354 1.368 . S
C349 C333 1.349 . S
C349 H341 0.950 . S
C349 C347 1.327 . S
C350 C338 1.349 . S
C350 H344 0.950 . S
C350 C351 1.327 . S
C351 H345 0.950 . S
C351 C350 1.327 . S
C351 C355 1.429 . S
C352 C335 1.574 . S
C352 H346 0.949 . S
C352 C356 1.368 . S
C353 C334 1.429 . S
C353 C347 1.429 . S
C353 C354 1.523 . S
C354 C335 1.368 . S
C354 C348 1.368 . S
C354 C353 1.523 . S
C355 C339 1.429 . S
C355 C351 1.429 . S
C355 C356 1.523 . S
C356 C340 1.368 . S
C356 C352 1.368 . S
C356 C355 1.523 . S
H357 C332 0.950 . S
H358 C334 0.950 . S
H359 C335 0.949 . S
H360 C337 0.950 . S
H361 C339 0.950 . S
C362 C363 1.349 . S
C362 C364 1.327 . S
C362 H387 0.950 . S
C363 C362 1.349 . S
C363 C379 1.349 . S
C364 C362 1.327 . S
C364 C383 1.429 . S
C364 H388 0.950 . S
C365 C382 1.574 . S
C365 C384 1.368 . S
C365 H389 0.949 . S
H366 C370 0.949 . S
C367 C368 1.349 . S
C367 C369 1.327 . S
C367 H390 0.950 . S
C368 C367 1.349 . S
C368 C380 1.349 . S
C369 C367 1.327 . S
C369 C385 1.429 . S
C369 H391 0.950 . S
C370 H366 0.949 . S
C370 C378 1.574 . S
C370 C386 1.368 . S
H371 C379 0.950 . S
H372 C377 0.950 . S
H373 C378 0.949 . S
H374 C380 0.950 . S
H375 C381 0.950 . S
H376 C382 0.949 . S
C377 H372 0.950 . S
C377 C379 1.327 . S
C377 C383 1.429 . S
C378 C370 1.574 . S
C378 H373 0.949 . S
C378 C384 1.368 . S
C379 C363 1.349 . S
C379 H371 0.950 . S
C379 C377 1.327 . S
C380 C368 1.349 . S
C380 H374 0.950 . S
C380 C381 1.327 . S
C381 H375 0.950 . S
C381 C380 1.327 . S
C381 C385 1.429 . S
C382 C365 1.574 . S
C382 H376 0.949 . S
C382 C386 1.368 . S
C383 C364 1.429 . S
C383 C377 1.429 . S
C383 C384 1.523 . S
C384 C365 1.368 . S
C384 C378 1.368 . S
C384 C383 1.523 . S
C385 C369 1.429 . S
C385 C381 1.429 . S
C385 C386 1.523 . S
C386 C370 1.368 . S
C386 C382 1.368 . S
C386 C385 1.523 . S
H387 C362 0.950 . S
H388 C364 0.950 . S
H389 C365 0.949 . S
H390 C367 0.950 . S
H391 C369 0.950 . S
C392 C393 1.349 . S
C392 C394 1.327 . S
C392 H417 0.950 . S
C393 C392 1.349 . S
C393 C409 1.349 . S
C394 C392 1.327 . S
C394 C413 1.429 . S
C394 H418 0.950 . S
C395 C412 1.574 . S
C395 C414 1.368 . S
C395 H419 0.949 . S
H396 C400 0.949 . S
C397 C398 1.349 . S
C397 C399 1.327 . S
C397 H420 0.950 . S
C398 C397 1.349 . S
C398 C410 1.349 . S
C399 C397 1.327 . S
C399 C415 1.429 . S
C399 H421 0.950 . S
C400 H396 0.949 . S
C400 C408 1.574 . S
C400 C416 1.368 . S
H401 C409 0.950 . S
H402 C407 0.950 . S
H403 C408 0.949 . S
H404 C410 0.950 . S
H405 C411 0.950 . S
H406 C412 0.949 . S
C407 H402 0.950 . S
C407 C409 1.327 . S
C407 C413 1.429 . S
C408 C400 1.574 . S
C408 H403 0.949 . S
C408 C414 1.368 . S
C409 C393 1.349 . S
C409 H401 0.950 . S
C409 C407 1.327 . S
C410 C398 1.349 . S
C410 H404 0.950 . S
C410 C411 1.327 . S
C411 H405 0.950 . S
C411 C410 1.327 . S
C411 C415 1.429 . S
C412 C395 1.574 . S
C412 H406 0.949 . S
C412 C416 1.368 . S
C413 C394 1.429 . S
C413 C407 1.429 . S
C413 C414 1.523 . S
C414 C395 1.368 . S
C414 C408 1.368 . S
C414 C413 1.523 . S
C415 C399 1.429 . S
C415 C411 1.429 . S
C415 C416 1.523 . S
C416 C400 1.368 . S
C416 C412 1.368 . S
C416 C415 1.523 . S
H417 C392 0.950 . S
H418 C394 0.950 . S
H419 C395 0.949 . S
H420 C397 0.950 . S
H421 C399 0.950 . S
C422 C423 1.349 . S
C422 C424 1.327 . S
C422 H447 0.950 . S
C423 C422 1.349 . S
C423 C439 1.349 . S
C424 C422 1.327 . S
C424 C443 1.429 . S
C424 H448 0.950 . S
C425 C442 1.574 . S
C425 C444 1.368 . S
C425 H449 0.949 . S
H426 C430 0.949 . S
C427 C428 1.349 . S
C427 C429 1.327 . S
C427 H450 0.950 . S
C428 C427 1.349 . S
C428 C440 1.349 . S
C429 C427 1.327 . S
C429 C445 1.429 . S
C429 H451 0.950 . S
C430 H426 0.949 . S
C430 C438 1.574 . S
C430 C446 1.368 . S
H431 C439 0.950 . S
H432 C437 0.950 . S
H433 C438 0.949 . S
H434 C440 0.950 . S
H435 C441 0.950 . S
H436 C442 0.949 . S
C437 H432 0.950 . S
C437 C439 1.327 . S
C437 C443 1.429 . S
C438 C430 1.574 . S
C438 H433 0.949 . S
C438 C444 1.368 . S
C439 C423 1.349 . S
C439 H431 0.950 . S
C439 C437 1.327 . S
C440 C428 1.349 . S
C440 H434 0.950 . S
C440 C441 1.327 . S
C441 H435 0.950 . S
C441 C440 1.327 . S
C441 C445 1.429 . S
C442 C425 1.574 . S
C442 H436 0.949 . S
C442 C446 1.368 . S
C443 C424 1.429 . S
C443 C437 1.429 . S
C443 C444 1.523 . S
C444 C425 1.368 . S
C444 C438 1.368 . S
C444 C443 1.523 . S
C445 C429 1.429 . S
C445 C441 1.429 . S
C445 C446 1.523 . S
C446 C430 1.368 . S
C446 C442 1.368 . S
C446 C445 1.523 . S
H447 C422 0.950 . S
H448 C424 0.950 . S
H449 C425 0.949 . S
H450 C427 0.950 . S
H451 C429 0.950 . S
C452 C453 1.349 . S
C452 C454 1.327 . S
C452 H477 0.950 . S
C453 C452 1.349 . S
C453 C469 1.349 . S
C454 C452 1.327 . S
C454 C473 1.429 . S
C454 H478 0.950 . S
C455 C472 1.574 . S
C455 C474 1.368 . S
C455 H479 0.949 . S
H456 C460 0.949 . S
C457 C458 1.349 . S
C457 C459 1.327 . S
C457 H480 0.950 . S
C458 C457 1.349 . S
C458 C470 1.349 . S
C459 C457 1.327 . S
C459 C475 1.429 . S
C459 H481 0.950 . S
C460 H456 0.949 . S
C460 C468 1.574 . S
C460 C476 1.368 . S
H461 C469 0.950 . S
H462 C467 0.950 . S
H463 C468 0.949 . S
H464 C470 0.950 . S
H465 C471 0.950 . S
H466 C472 0.949 . S
C467 H462 0.950 . S
C467 C469 1.327 . S
C467 C473 1.429 . S
C468 C460 1.574 . S
C468 H463 0.949 . S
C468 C474 1.368 . S
C469 C453 1.349 . S
C469 H461 0.950 . S
C469 C467 1.327 . S
C470 C458 1.349 . S
C470 H464 0.950 . S
C470 C471 1.327 . S
C471 H465 0.950 . S
C471 C470 1.327 . S
C471 C475 1.429 . S
C472 C455 1.574 . S
C472 H466 0.949 . S
C472 C476 1.368 . S
C473 C454 1.429 . S
C473 C467 1.429 . S
C473 C474 1.523 . S
C474 C455 1.368 . S
C474 C468 1.368 . S
C474 C473 1.523 . S
C475 C459 1.429 . S
C475 C471 1.429 . S
C475 C476 1.523 . S
C476 C460 1.368 . S
C476 C472 1.368 . S
C476 C475 1.523 . S
H477 C452 0.950 . S
H478 C454 0.950 . S
H479 C455 0.949 . S
H480 C457 0.950 . S
H481 C459 0.950 . S
C482 C483 1.349 . S
C482 C484 1.327 . S
C482 H507 0.950 . S
C483 C482 1.349 . S
C483 C499 1.349 . S
C484 C482 1.327 . S
C484 C503 1.429 . S
C484 H508 0.950 . S
C485 C502 1.574 . S
C485 C504 1.368 . S
C485 H509 0.949 . S
H486 C490 0.949 . S
C487 C488 1.349 . S
C487 C489 1.327 . S
C487 H510 0.950 . S
C488 C487 1.349 . S
C488 C500 1.349 . S
C489 C487 1.327 . S
C489 C505 1.429 . S
C489 H511 0.950 . S
C490 H486 0.949 . S
C490 C498 1.574 . S
C490 C506 1.368 . S
H491 C499 0.950 . S
H492 C497 0.950 . S
H493 C498 0.949 . S
H494 C500 0.950 . S
H495 C501 0.950 . S
H496 C502 0.949 . S
C497 H492 0.950 . S
C497 C499 1.327 . S
C497 C503 1.429 . S
C498 C490 1.574 . S
C498 H493 0.949 . S
C498 C504 1.368 . S
C499 C483 1.349 . S
C499 H491 0.950 . S
C499 C497 1.327 . S
C500 C488 1.349 . S
C500 H494 0.950 . S
C500 C501 1.327 . S
C501 H495 0.950 . S
C501 C500 1.327 . S
C501 C505 1.429 . S
C502 C485 1.574 . S
C502 H496 0.949 . S
C502 C506 1.368 . S
C503 C484 1.429 . S
C503 C497 1.429 . S
C503 C504 1.523 . S
C504 C485 1.368 . S
C504 C498 1.368 . S
C504 C503 1.523 . S
C505 C489 1.429 . S
C505 C501 1.429 . S
C505 C506 1.523 . S
C506 C490 1.368 . S
C506 C502 1.368 . S
C506 C505 1.523 . S
H507 C482 0.950 . S
H508 C484 0.950 . S
H509 C485 0.949 . S
H510 C487 0.950 . S
H511 C489 0.950 . S
C512 C513 1.349 . S
C512 C514 1.327 . S
C512 H537 0.950 . S
C513 C512 1.349 . S
C513 C529 1.349 . S
C514 C512 1.327 . S
C514 C533 1.429 . S
C514 H538 0.950 . S
C515 C532 1.574 . S
C515 C534 1.368 . S
C515 H539 0.949 . S
H516 C520 0.949 . S
C517 C518 1.349 . S
C517 C519 1.327 . S
C517 H540 0.950 . S
C518 C517 1.349 . S
C518 C530 1.349 . S
C519 C517 1.327 . S
C519 C535 1.429 . S
C519 H541 0.950 . S
C520 H516 0.949 . S
C520 C528 1.574 . S
C520 C536 1.368 . S
H521 C529 0.950 . S
H522 C527 0.950 . S
H523 C528 0.949 . S
H524 C530 0.950 . S
H525 C531 0.950 . S
H526 C532 0.949 . S
C527 H522 0.950 . S
C527 C529 1.327 . S
C527 C533 1.429 . S
C528 C520 1.574 . S
C528 H523 0.949 . S
C528 C534 1.368 . S
C529 C513 1.349 . S
C529 H521 0.950 . S
C529 C527 1.327 . S
C530 C518 1.349 . S
C530 H524 0.950 . S
C530 C531 1.327 . S
C531 H525 0.950 . S
C531 C530 1.327 . S
C531 C535 1.429 . S
C532 C515 1.574 . S
C532 H526 0.949 . S
C532 C536 1.368 . S
C533 C514 1.429 . S
C533 C527 1.429 . S
C533 C534 1.523 . S
C534 C515 1.368 . S
C534 C528 1.368 . S
C534 C533 1.523 . S
C535 C519 1.429 . S
C535 C531 1.429 . S
C535 C536 1.523 . S
C536 C520 1.368 . S
C536 C532 1.368 . S
C536 C535 1.523 . S
H537 C512 0.950 . S
H538 C514 0.950 . S
H539 C515 0.949 . S
H540 C517 0.950 . S
H541 C519 0.950 . S
C542 C543 1.349 . S
C542 C544 1.327 . S
C542 H567 0.950 . S
C543 C542 1.349 . S
C543 C559 1.349 . S
C544 C542 1.327 . S
C544 C563 1.429 . S
C544 H568 0.950 . S
C545 C562 1.574 . S
C545 C564 1.368 . S
C545 H569 0.949 . S
H546 C550 0.949 . S
C547 C548 1.349 . S
C547 C549 1.327 . S
C547 H570 0.950 . S
C548 C547 1.349 . S
C548 C560 1.349 . S
C549 C547 1.327 . S
C549 C565 1.429 . S
C549 H571 0.950 . S
C550 H546 0.949 . S
C550 C558 1.574 . S
C550 C566 1.368 . S
H551 C559 0.950 . S
H552 C557 0.950 . S
H553 C558 0.949 . S
H554 C560 0.950 . S
H555 C561 0.950 . S
H556 C562 0.949 . S
C557 H552 0.950 . S
C557 C559 1.327 . S
C557 C563 1.429 . S
C558 C550 1.574 . S
C558 H553 0.949 . S
C558 C564 1.368 . S
C559 C543 1.349 . S
C559 H551 0.950 . S
C559 C557 1.327 . S
C560 C548 1.349 . S
C560 H554 0.950 . S
C560 C561 1.327 . S
C561 H555 0.950 . S
C561 C560 1.327 . S
C561 C565 1.429 . S
C562 C545 1.574 . S
C562 H556 0.949 . S
C562 C566 1.368 . S
C563 C544 1.429 . S
C563 C557 1.429 . S
C563 C564 1.523 . S
C564 C545 1.368 . S
C564 C558 1.368 . S
C564 C563 1.523 . S
C565 C549 1.429 . S
C565 C561 1.429 . S
C565 C566 1.523 . S
C566 C550 1.368 . S
C566 C562 1.368 . S
C566 C565 1.523 . S
H567 C542 0.950 . S
H568 C544 0.950 . S
H569 C545 0.949 . S
H570 C547 0.950 . S
H571 C549 0.950 . S
C572 C573 1.349 . S
C572 C574 1.327 . S
C572 H597 0.950 . S
C573 C572 1.349 . S
C573 C589 1.349 . S
C574 C572 1.327 . S
C574 C593 1.429 . S
C574 H598 0.950 . S
C575 C592 1.574 . S
C575 C594 1.368 . S
C575 H599 0.949 . S
H576 C580 0.949 . S
C577 C578 1.349 . S
C577 C579 1.327 . S
C577 H600 0.950 . S
C578 C577 1.349 . S
C578 C590 1.349 . S
C579 C577 1.327 . S
C579 C595 1.429 . S
C579 H601 0.950 . S
C580 H576 0.949 . S
C580 C588 1.574 . S
C580 C596 1.368 . S
H581 C589 0.950 . S
H582 C587 0.950 . S
H583 C588 0.949 . S
H584 C590 0.950 . S
H585 C591 0.950 . S
H586 C592 0.949 . S
C587 H582 0.950 . S
C587 C589 1.327 . S
C587 C593 1.429 . S
C588 C580 1.574 . S
C588 H583 0.949 . S
C588 C594 1.368 . S
C589 C573 1.349 . S
C589 H581 0.950 . S
C589 C587 1.327 . S
C590 C578 1.349 . S
C590 H584 0.950 . S
C590 C591 1.327 . S
C591 H585 0.950 . S
C591 C590 1.327 . S
C591 C595 1.429 . S
C592 C575 1.574 . S
C592 H586 0.949 . S
C592 C596 1.368 . S
C593 C574 1.429 . S
C593 C587 1.429 . S
C593 C594 1.523 . S
C594 C575 1.368 . S
C594 C588 1.368 . S
C594 C593 1.523 . S
C595 C579 1.429 . S
C595 C591 1.429 . S
C595 C596 1.523 . S
C596 C580 1.368 . S
C596 C592 1.368 . S
C596 C595 1.523 . S
H597 C572 0.950 . S
H598 C574 0.950 . S
H599 C575 0.949 . S
H600 C577 0.950 . S
H601 C579 0.950 . S
C602 C603 1.349 . S
C602 C604 1.327 . S
C602 H627 0.950 . S
C603 C602 1.349 . S
C603 C619 1.349 . S
C604 C602 1.327 . S
C604 C623 1.429 . S
C604 H628 0.950 . S
C605 C622 1.574 . S
C605 C624 1.368 . S
C605 H629 0.949 . S
H606 C610 0.949 . S
C607 C608 1.349 . S
C607 C609 1.327 . S
C607 H630 0.950 . S
C608 C607 1.349 . S
C608 C620 1.349 . S
C609 C607 1.327 . S
C609 C625 1.429 . S
C609 H631 0.950 . S
C610 H606 0.949 . S
C610 C618 1.574 . S
C610 C626 1.368 . S
H611 C619 0.950 . S
H612 C617 0.950 . S
H613 C618 0.949 . S
H614 C620 0.950 . S
H615 C621 0.950 . S
H616 C622 0.949 . S
C617 H612 0.950 . S
C617 C619 1.327 . S
C617 C623 1.429 . S
C618 C610 1.574 . S
C618 H613 0.949 . S
C618 C624 1.368 . S
C619 C603 1.349 . S
C619 H611 0.950 . S
C619 C617 1.327 . S
C620 C608 1.349 . S
C620 H614 0.950 . S
C620 C621 1.327 . S
C621 H615 0.950 . S
C621 C620 1.327 . S
C621 C625 1.429 . S
C622 C605 1.574 . S
C622 H616 0.949 . S
C622 C626 1.368 . S
C623 C604 1.429 . S
C623 C617 1.429 . S
C623 C624 1.523 . S
C624 C605 1.368 . S
C624 C618 1.368 . S
C624 C623 1.523 . S
C625 C609 1.429 . S
C625 C621 1.429 . S
C625 C626 1.523 . S
C626 C610 1.368 . S
C626 C622 1.368 . S
C626 C625 1.523 . S
H627 C602 0.950 . S
H628 C604 0.950 . S
H629 C605 0.949 . S
H630 C607 0.950 . S
H631 C609 0.950 . S
C632 C633 1.349 . S
C632 C634 1.327 . S
C632 H657 0.950 . S
C633 C632 1.349 . S
C633 C649 1.349 . S
C634 C632 1.327 . S
C634 C653 1.429 1_565 S
C634 H658 0.950 1_565 S
C635 C652 1.574 . S
C635 C654 1.368 . S
C635 H659 0.949 . S
H636 C640 0.949 . S
C637 C638 1.349 . S
C637 C639 1.327 . S
C637 H660 0.950 . S
C638 C637 1.349 . S
C638 C650 1.349 . S
C639 C637 1.327 . S
C639 C655 1.429 . S
C639 H661 0.950 . S
C640 H636 0.949 . S
C640 C648 1.574 . S
C640 C656 1.368 . S
H641 C649 0.950 . S
H642 C647 0.950 1_545 S
H643 C648 0.949 . S
H644 C650 0.950 . S
H645 C651 0.950 . S
H646 C652 0.949 . S
C647 H642 0.950 1_565 S
C647 C649 1.327 . S
C647 C653 1.429 1_565 S
C648 C640 1.574 . S
C648 H643 0.949 . S
C648 C654 1.368 . S
C649 C633 1.349 . S
C649 H641 0.950 . S
C649 C647 1.327 . S
C650 C638 1.349 . S
C650 H644 0.950 . S
C650 C651 1.327 . S
C651 H645 0.950 . S
C651 C650 1.327 . S
C651 C655 1.429 . S
C652 C635 1.574 . S
C652 H646 0.949 . S
C652 C656 1.368 . S
C653 C634 1.429 1_545 S
C653 C647 1.429 1_545 S
C653 C654 1.523 . S
C654 C635 1.368 . S
C654 C648 1.368 . S
C654 C653 1.523 . S
C655 C639 1.429 . S
C655 C651 1.429 . S
C655 C656 1.523 . S
C656 C640 1.368 . S
C656 C652 1.368 . S
C656 C655 1.523 . S
H657 C632 0.950 . S
H658 C634 0.950 1_545 S
H659 C635 0.949 . S
H660 C637 0.950 . S
H661 C639 0.950 . S
C662 C663 1.349 . S
C662 C664 1.327 . S
C662 H687 0.950 . S
C663 C662 1.349 . S
C663 C679 1.349 . S
C664 C662 1.327 . S
C664 C683 1.429 . S
C664 H688 0.950 . S
C665 C682 1.574 . S
C665 C684 1.368 . S
C665 H689 0.949 . S
H666 C670 0.949 . S
C667 C668 1.349 . S
C667 C669 1.327 1_545 S
C667 H690 0.950 . S
C668 C667 1.349 . S
C668 C680 1.349 . S
C669 C667 1.327 1_565 S
C669 C685 1.429 . S
C669 H691 0.950 . S
C670 H666 0.949 . S
C670 C678 1.574 . S
C670 C686 1.368 . S
H671 C679 0.950 . S
H672 C677 0.950 . S
H673 C678 0.949 . S
H674 C680 0.950 . S
H675 C681 0.950 . S
H676 C682 0.949 . S
C677 H672 0.950 . S
C677 C679 1.327 . S
C677 C683 1.429 . S
C678 C670 1.574 . S
C678 H673 0.949 . S
C678 C684 1.368 . S
C679 C663 1.349 . S
C679 H671 0.950 . S
C679 C677 1.327 . S
C680 C668 1.349 . S
C680 H674 0.950 . S
C680 C681 1.327 . S
C681 H675 0.950 . S
C681 C680 1.327 . S
C681 C685 1.429 1_545 S
C682 C665 1.574 . S
C682 H676 0.949 . S
C682 C686 1.368 . S
C683 C664 1.429 . S
C683 C677 1.429 . S
C683 C684 1.523 . S
C684 C665 1.368 . S
C684 C678 1.368 . S
C684 C683 1.523 . S
C685 C669 1.429 . S
C685 C681 1.429 1_565 S
C685 C686 1.523 . S
C686 C670 1.368 . S
C686 C682 1.368 . S
C686 C685 1.523 . S
H687 C662 0.950 . S
H688 C664 0.950 . S
H689 C665 0.949 . S
H690 C667 0.950 . S
H691 C669 0.950 . S
C692 C693 1.349 . S
C692 C694 1.327 . S
C692 H717 0.950 . S
C693 C692 1.349 . S
C693 C709 1.349 . S
C694 C692 1.327 . S
C694 C713 1.429 . S
C694 H718 0.950 . S
C695 C712 1.574 . S
C695 C714 1.368 . S
C695 H719 0.949 . S
H696 C700 0.949 . S
C697 C698 1.349 . S
C697 C699 1.327 . S
C697 H720 0.950 . S
C698 C697 1.349 . S
C698 C710 1.349 . S
C699 C697 1.327 . S
C699 C715 1.429 1_545 S
C699 H721 0.950 . S
C700 H696 0.949 . S
C700 C708 1.574 . S
C700 C716 1.368 . S
H701 C709 0.950 . S
H702 C707 0.950 . S
H703 C708 0.949 . S
H704 C710 0.950 . S
H705 C711 0.950 . S
H706 C712 0.949 . S
C707 H702 0.950 . S
C707 C709 1.327 . S
C707 C713 1.429 . S
C708 C700 1.574 . S
C708 H703 0.949 . S
C708 C714 1.368 . S
C709 C693 1.349 . S
C709 H701 0.950 . S
C709 C707 1.327 . S
C710 C698 1.349 . S
C710 H704 0.950 . S
C710 C711 1.327 1_545 S
C711 H705 0.950 . S
C711 C710 1.327 1_565 S
C711 C715 1.429 . S
C712 C695 1.574 . S
C712 H706 0.949 . S
C712 C716 1.368 . S
C713 C694 1.429 . S
C713 C707 1.429 . S
C713 C714 1.523 . S
C714 C695 1.368 . S
C714 C708 1.368 . S
C714 C713 1.523 . S
C715 C699 1.429 1_565 S
C715 C711 1.429 . S
C715 C716 1.523 . S
C716 C700 1.368 . S
C716 C712 1.368 . S
C716 C715 1.523 . S
H717 C692 0.950 . S
H718 C694 0.950 . S
H719 C695 0.949 . S
H720 C697 0.950 . S
H721 C699 0.950 . S
C722 C723 1.349 . S
C722 C724 1.327 . S
C722 H747 0.950 . S
C723 C722 1.349 . S
C723 C739 1.349 . S
C724 C722 1.327 . S
C724 C743 1.429 . S
C724 H748 0.950 . S
C725 C742 1.574 . S
C725 C744 1.368 . S
C725 H749 0.949 . S
H726 C730 0.949 . S
C727 C728 1.349 . S
C727 C729 1.327 1_565 S
C727 H750 0.950 1_455 S
C728 C727 1.349 . S
C728 C740 1.349 . S
C729 C727 1.327 1_545 S
C729 C745 1.429 . S
C729 H751 0.950 1_455 S
C730 H726 0.949 . S
C730 C738 1.574 . S
C730 C746 1.368 . S
H731 C739 0.950 . S
H732 C737 0.950 . S
H733 C738 0.949 . S
H734 C740 0.950 . S
H735 C741 0.950 . S
H736 C742 0.949 1_655 S
C737 H732 0.950 . S
C737 C739 1.327 . S
C737 C743 1.429 . S
C738 C730 1.574 . S
C738 H733 0.949 . S
C738 C744 1.368 . S
C739 C723 1.349 . S
C739 H731 0.950 . S
C739 C737 1.327 . S
C740 C728 1.349 . S
C740 H734 0.950 . S
C740 C741 1.327 . S
C741 H735 0.950 . S
C741 C740 1.327 . S
C741 C745 1.429 1_565 S
C742 C725 1.574 . S
C742 H736 0.949 1_455 S
C742 C746 1.368 . S
C743 C724 1.429 . S
C743 C737 1.429 . S
C743 C744 1.523 . S
C744 C725 1.368 . S
C744 C738 1.368 . S
C744 C743 1.523 . S
C745 C729 1.429 . S
C745 C741 1.429 1_545 S
C745 C746 1.523 . S
C746 C730 1.368 . S
C746 C742 1.368 . S
C746 C745 1.523 . S
H747 C722 0.950 . S
H748 C724 0.950 . S
H749 C725 0.949 . S
H750 C727 0.950 1_655 S
H751 C729 0.950 1_655 S
C752 C753 1.349 . S
C752 C754 1.327 . S
C752 H777 0.950 . S
C753 C752 1.349 . S
C753 C769 1.349 . S
C754 C752 1.327 . S
C754 C773 1.429 . S
C754 H778 0.950 . S
C755 C772 1.574 . S
C755 C774 1.368 . S
C755 H779 0.949 1_455 S
H756 C760 0.949 . S
C757 C758 1.349 . S
C757 C759 1.327 . S
C757 H780 0.950 1_455 S
C758 C757 1.349 . S
C758 C770 1.349 . S
C759 C757 1.327 . S
C759 C775 1.429 . S
C759 H781 0.950 1_455 S
C760 H756 0.949 . S
C760 C768 1.574 . S
C760 C776 1.368 . S
H761 C769 0.950 1_655 S
H762 C767 0.950 1_655 S
H763 C768 0.949 . S
H764 C770 0.950 . S
H765 C771 0.950 . S
H766 C772 0.949 1_655 S
C767 H762 0.950 1_455 S
C767 C769 1.327 . S
C767 C773 1.429 . S
C768 C760 1.574 . S
C768 H763 0.949 . S
C768 C774 1.368 . S
C769 C753 1.349 . S
C769 H761 0.950 1_455 S
C769 C767 1.327 . S
C770 C758 1.349 . S
C770 H764 0.950 . S
C770 C771 1.327 . S
C771 H765 0.950 . S
C771 C770 1.327 . S
C771 C775 1.429 . S
C772 C755 1.574 . S
C772 H766 0.949 1_455 S
C772 C776 1.368 . S
C773 C754 1.429 . S
C773 C767 1.429 . S
C773 C774 1.523 1_554 S
C774 C755 1.368 . S
C774 C768 1.368 . S
C774 C773 1.523 1_556 S
C775 C759 1.429 . S
C775 C771 1.429 . S
C775 C776 1.523 . S
C776 C760 1.368 . S
C776 C772 1.368 . S
C776 C775 1.523 . S
H777 C752 0.950 . S
H778 C754 0.950 . S
H779 C755 0.949 1_655 S
H780 C757 0.950 1_655 S
H781 C759 0.950 1_655 S
C782 C783 1.349 . S
C782 C784 1.327 . S
C782 H807 0.950 . S
C783 C782 1.349 . S
C783 C799 1.349 . S
C784 C782 1.327 . S
C784 C803 1.429 . S
C784 H808 0.950 . S
C785 C802 1.574 . S
C785 C804 1.368 . S
C785 H809 0.949 . S
H786 C790 0.949 . S
C787 C788 1.349 . S
C787 C789 1.327 . S
C787 H810 0.950 . S
C788 C787 1.349 . S
C788 C800 1.349 . S
C789 C787 1.327 . S
C789 C805 1.429 . S
C789 H811 0.950 . S
C790 H786 0.949 . S
C790 C798 1.574 . S
C790 C806 1.368 . S
H791 C799 0.950 . S
H792 C797 0.950 . S
H793 C798 0.949 . S
H794 C800 0.950 . S
H795 C801 0.950 . S
H796 C802 0.949 . S
C797 H792 0.950 . S
C797 C799 1.327 . S
C797 C803 1.429 . S
C798 C790 1.574 . S
C798 H793 0.949 . S
C798 C804 1.368 . S
C799 C783 1.349 . S
C799 H791 0.950 . S
C799 C797 1.327 . S
C800 C788 1.349 . S
C800 H794 0.950 . S
C800 C801 1.327 . S
C801 H795 0.950 . S
C801 C800 1.327 . S
C801 C805 1.429 . S
C802 C785 1.574 . S
C802 H796 0.949 . S
C802 C806 1.368 . S
C803 C784 1.429 . S
C803 C797 1.429 . S
C803 C804 1.523 . S
C804 C785 1.368 . S
C804 C798 1.368 . S
C804 C803 1.523 . S
C805 C789 1.429 . S
C805 C801 1.429 . S
C805 C806 1.523 . S
C806 C790 1.368 . S
C806 C802 1.368 . S
C806 C805 1.523 . S
H807 C782 0.950 . S
H808 C784 0.950 . S
H809 C785 0.949 . S
H810 C787 0.950 . S
H811 C789 0.950 . S
C812 C813 1.349 . S
C812 C814 1.327 . S
C812 H837 0.950 . S
C813 C812 1.349 . S
C813 C829 1.349 . S
C814 C812 1.327 . S
C814 C833 1.429 . S
C814 H838 0.950 . S
C815 C832 1.574 . S
C815 C834 1.368 . S
C815 H839 0.973 . S
H816 C820 0.949 . S
C817 C818 1.349 . S
C817 C819 1.327 . S
C817 H840 0.950 . S
C818 C817 1.349 . S
C818 C830 1.349 . S
C819 C817 1.327 . S
C819 C835 1.429 . S
C819 H841 0.950 . S
C820 H816 0.949 . S
C820 C828 1.574 . S
C820 C836 1.368 . S
H821 C829 0.950 . S
H822 C827 0.950 . S
H823 C828 0.949 . S
H824 C830 0.950 . S
H825 C831 0.950 . S
H826 C832 0.949 1_556 S
C827 H822 0.950 . S
C827 C829 1.327 . S
C827 C833 1.429 . S
C828 C820 1.574 . S
C828 H823 0.949 . S
C828 C834 1.368 . S
C829 C813 1.349 . S
C829 H821 0.950 . S
C829 C827 1.327 . S
C830 C818 1.349 . S
C830 H824 0.950 . S
C830 C831 1.327 . S
C831 H825 0.950 . S
C831 C830 1.327 . S
C831 C835 1.429 . S
C832 C815 1.574 . S
C832 H826 0.949 1_554 S
C832 C836 1.368 . S
C833 C814 1.429 . S
C833 C827 1.429 . S
C833 C834 1.523 . S
C834 C815 1.368 . S
C834 C828 1.368 . S
C834 C833 1.523 . S
C835 C819 1.429 . S
C835 C831 1.429 . S
C835 C836 1.523 1_556 S
C836 C820 1.368 . S
C836 C832 1.368 . S
C836 C835 1.523 1_554 S
H837 C812 0.950 . S
H838 C814 0.950 . S
H839 C815 0.973 . S
H840 C817 0.950 . S
H841 C819 0.950 . S
C842 C843 1.349 . S
C842 C844 1.327 . S
C842 H867 0.950 . S
C843 C842 1.349 . S
C843 C859 1.349 . S
C844 C842 1.327 . S
C844 C863 1.429 . S
C844 H868 0.950 . S
C845 C862 1.574 . S
C845 C864 1.368 . S
C845 H869 0.949 . S
H846 C850 0.949 . S
C847 C848 1.349 . S
C847 C849 1.327 . S
C847 H870 0.950 . S
C848 C847 1.349 . S
C848 C860 1.349 . S
C849 C847 1.327 . S
C849 C865 1.429 . S
C849 H871 0.950 . S
C850 H846 0.949 . S
C850 C858 1.574 . S
C850 C866 1.368 . S
H851 C859 0.950 . S
H852 C857 0.950 . S
H853 C858 0.949 . S
H854 C860 0.950 . S
H855 C861 0.950 . S
H856 C862 0.949 . S
C857 H852 0.950 . S
C857 C859 1.327 . S
C857 C863 1.429 . S
C858 C850 1.574 . S
C858 H853 0.949 . S
C858 C864 1.368 . S
C859 C843 1.349 . S
C859 H851 0.950 . S
C859 C857 1.327 . S
C860 C848 1.349 . S
C860 H854 0.950 . S
C860 C861 1.327 . S
C861 H855 0.950 . S
C861 C860 1.327 . S
C861 C865 1.429 . S
C862 C845 1.574 . S
C862 H856 0.949 . S
C862 C866 1.368 . S
C863 C844 1.429 . S
C863 C857 1.429 . S
C863 C864 1.523 . S
C864 C845 1.368 . S
C864 C858 1.368 . S
C864 C863 1.523 . S
C865 C849 1.429 . S
C865 C861 1.429 . S
C865 C866 1.523 . S
C866 C850 1.368 . S
C866 C862 1.368 . S
C866 C865 1.523 . S
H867 C842 0.950 . S
H868 C844 0.950 . S
H869 C845 0.949 . S
H870 C847 0.950 . S
H871 C849 0.950 . S
C872 C873 1.349 . S
C872 C874 1.327 . S
C872 H897 0.950 . S
C873 C872 1.349 . S
C873 C889 1.349 . S
C874 C872 1.327 . S
C874 C893 1.429 . S
C874 H898 0.950 . S
C875 C892 1.574 . S
C875 C894 1.368 . S
C875 H899 0.949 1_556 S
H876 C880 0.949 . S
C877 C878 1.349 . S
C877 C879 1.327 . S
C877 H900 0.950 . S
C878 C877 1.349 . S
C878 C890 1.349 . S
C879 C877 1.327 . S
C879 C895 1.429 . S
C879 H901 0.950 . S
C880 H876 0.949 . S
C880 C888 1.574 . S
C880 C896 1.368 . S
H881 C889 0.950 . S
H882 C887 0.950 . S
H883 C888 0.949 . S
H884 C890 0.950 . S
H885 C891 0.950 . S
H886 C892 0.949 . S
C887 H882 0.950 . S
C887 C889 1.327 . S
C887 C893 1.429 . S
C888 C880 1.574 . S
C888 H883 0.949 . S
C888 C894 1.368 . S
C889 C873 1.349 . S
C889 H881 0.950 . S
C889 C887 1.327 . S
C890 C878 1.349 . S
C890 H884 0.950 . S
C890 C891 1.327 . S
C891 H885 0.950 . S
C891 C890 1.327 . S
C891 C895 1.429 . S
C892 C875 1.574 . S
C892 H886 0.949 . S
C892 C896 1.368 . S
C893 C874 1.429 . S
C893 C887 1.429 . S
C893 C894 1.523 1_554 S
C894 C875 1.368 . S
C894 C888 1.368 . S
C894 C893 1.523 1_556 S
C895 C879 1.429 . S
C895 C891 1.429 . S
C895 C896 1.523 . S
C896 C880 1.368 . S
C896 C892 1.368 . S
C896 C895 1.523 . S
H897 C872 0.950 . S
H898 C874 0.950 . S
H899 C875 0.949 1_554 S
H900 C877 0.950 . S
H901 C879 0.950 . S
C902 C903 1.349 . S
C902 C904 1.327 . S
C902 H927 0.950 . S
C903 C902 1.349 . S
C903 C919 1.349 . S
C904 C902 1.327 . S
C904 C923 1.429 . S
C904 H928 0.950 . S
C905 C922 1.574 . S
C905 C924 1.368 . S
C905 H929 0.949 . S
H906 C910 0.949 . S
C907 C908 1.349 . S
C907 C909 1.327 . S
C907 H930 0.950 . S
C908 C907 1.349 . S
C908 C920 1.349 . S
C909 C907 1.327 . S
C909 C925 1.429 . S
C909 H931 0.950 . S
C910 H906 0.949 . S
C910 C918 1.574 . S
C910 C926 1.368 . S
H911 C919 0.950 . S
H912 C917 0.950 . S
H913 C918 0.949 . S
H914 C920 0.950 . S
H915 C921 0.950 . S
H916 C922 0.949 . S
C917 H912 0.950 . S
C917 C919 1.327 . S
C917 C923 1.429 . S
C918 C910 1.574 . S
C918 H913 0.949 . S
C918 C924 1.368 . S
C919 C903 1.349 . S
C919 H911 0.950 . S
C919 C917 1.327 . S
C920 C908 1.349 . S
C920 H914 0.950 . S
C920 C921 1.327 . S
C921 H915 0.950 . S
C921 C920 1.327 . S
C921 C925 1.429 . S
C922 C905 1.574 . S
C922 H916 0.949 . S
C922 C926 1.368 . S
C923 C904 1.429 . S
C923 C917 1.429 . S
C923 C924 1.523 . S
C924 C905 1.368 . S
C924 C918 1.368 . S
C924 C923 1.523 . S
C925 C909 1.429 . S
C925 C921 1.429 . S
C925 C926 1.523 . S
C926 C910 1.368 . S
C926 C922 1.368 . S
C926 C925 1.523 . S
H927 C902 0.950 . S
H928 C904 0.950 . S
H929 C905 0.949 . S
H930 C907 0.950 . S
H931 C909 0.950 . S
C932 C933 1.349 . S
C932 C934 1.327 . S
C932 H957 0.950 . S
C933 C932 1.349 . S
C933 C949 1.349 . S
C934 C932 1.327 . S
C934 C953 1.429 . S
C934 H958 0.950 . S
C935 C952 1.574 . S
C935 C954 1.368 . S
C935 H959 0.949 1_554 S
H936 C940 0.949 . S
C937 C938 1.349 . S
C937 C939 1.327 . S
C937 H960 0.950 . S
C938 C937 1.349 . S
C938 C950 1.349 . S
C939 C937 1.327 . S
C939 C955 1.429 . S
C939 H961 0.950 . S
C940 H936 0.949 . S
C940 C948 1.574 . S
C940 C956 1.368 . S
H941 C949 0.950 . S
H942 C947 0.950 . S
H943 C948 0.949 . S
H944 C950 0.950 . S
H945 C951 0.950 . S
H946 C952 0.949 . S
C947 H942 0.950 . S
C947 C949 1.327 . S
C947 C953 1.429 . S
C948 C940 1.574 . S
C948 H943 0.949 . S
C948 C954 1.368 . S
C949 C933 1.349 . S
C949 H941 0.950 . S
C949 C947 1.327 . S
C950 C938 1.349 . S
C950 H944 0.950 . S
C950 C951 1.327 . S
C951 H945 0.950 . S
C951 C950 1.327 . S
C951 C955 1.429 . S
C952 C935 1.574 . S
C952 H946 0.949 . S
C952 C956 1.368 . S
C953 C934 1.429 . S
C953 C947 1.429 . S
C953 C954 1.523 1_556 S
C954 C935 1.368 . S
C954 C948 1.368 . S
C954 C953 1.523 1_554 S
C955 C939 1.429 . S
C955 C951 1.429 . S
C955 C956 1.523 . S
C956 C940 1.368 . S
C956 C952 1.368 . S
C956 C955 1.523 . S
H957 C932 0.950 . S
H958 C934 0.950 . S
H959 C935 0.949 1_556 S
H960 C937 0.950 . S
H961 C939 0.950 . S
C962 C963 1.349 . S
C962 C964 1.327 . S
C962 H987 0.950 . S
C963 C962 1.349 . S
C963 C979 1.349 . S
C964 C962 1.327 . S
C964 C983 1.429 . S
C964 H988 0.950 . S
C965 C982 1.574 . S
C965 C984 1.368 . S
C965 H989 0.949 . S
H966 C970 0.949 . S
C967 C968 1.349 . S
C967 C969 1.327 . S
C967 H990 0.950 . S
C968 C967 1.349 . S
C968 C980 1.349 . S
C969 C967 1.327 . S
C969 C985 1.429 . S
C969 H991 0.950 . S
C970 H966 0.949 . S
C970 C978 1.574 . S
C970 C986 1.368 . S
H971 C979 0.950 . S
H972 C977 0.950 . S
H973 C978 0.949 . S
H974 C980 0.950 . S
H975 C981 0.950 . S
H976 C982 0.949 . S
C977 H972 0.950 . S
C977 C979 1.327 . S
C977 C983 1.429 . S
C978 C970 1.574 . S
C978 H973 0.949 . S
C978 C984 1.368 . S
C979 C963 1.349 . S
C979 H971 0.950 . S
C979 C977 1.327 . S
C980 C968 1.349 . S
C980 H974 0.950 . S
C980 C981 1.327 . S
C981 H975 0.950 . S
C981 C980 1.327 . S
C981 C985 1.429 . S
C982 C965 1.574 . S
C982 H976 0.949 . S
C982 C986 1.368 . S
C983 C964 1.429 . S
C983 C977 1.429 . S
C983 C984 1.523 . S
C984 C965 1.368 . S
C984 C978 1.368 . S
C984 C983 1.523 . S
C985 C969 1.429 . S
C985 C981 1.429 . S
C985 C986 1.523 . S
C986 C970 1.368 . S
C986 C982 1.368 . S
C986 C985 1.523 . S
H987 C962 0.950 . S
H988 C964 0.950 . S
H989 C965 0.949 . S
H990 C967 0.950 . S
H991 C969 0.950 . S
C992 C993 1.349 . S
C992 C994 1.327 . S
C992 H1017 0.950 . S
C993 C992 1.349 . S
C993 C1009 1.349 . S
C994 C992 1.327 . S
C994 C1013 1.429 . S
C994 H1018 0.950 . S
C995 C1012 1.574 . S
C995 C1014 1.368 1_556 S
C995 H1019 0.949 . S
H996 C1000 0.949 . S
C997 C998 1.349 . S
C997 C999 1.327 . S
C997 H1020 0.950 . S
C998 C997 1.349 . S
C998 C1010 1.349 . S
C999 C997 1.327 . S
C999 C1015 1.429 . S
C999 H1021 0.950 . S
C1000 H996 0.949 . S
C1000 C1008 1.574 . S
C1000 C1016 1.368 1_554 S
H1001 C1009 0.950 . S
H1002 C1007 0.950 . S
H1003 C1008 0.949 . S
H1004 C1010 0.950 . S
H1005 C1011 0.950 . S
H1006 C1012 0.949 . S
C1007 H1002 0.950 . S
C1007 C1009 1.327 . S
C1007 C1013 1.429 . S
C1008 C1000 1.574 . S
C1008 H1003 0.949 . S
C1008 C1014 1.368 . S
C1009 C993 1.349 . S
C1009 H1001 0.950 . S
C1009 C1007 1.327 . S
C1010 C998 1.349 . S
C1010 H1004 0.950 . S
C1010 C1011 1.327 . S
C1011 H1005 0.950 . S
C1011 C1010 1.327 . S
C1011 C1015 1.429 . S
C1012 C995 1.574 . S
C1012 H1006 0.949 . S
C1012 C1016 1.368 . S
C1013 C994 1.429 . S
C1013 C1007 1.429 . S
C1013 C1014 1.523 . S
C1014 C995 1.368 1_554 S
C1014 C1008 1.368 . S
C1014 C1013 1.523 . S
C1015 C999 1.429 . S
C1015 C1011 1.429 . S
C1015 C1016 1.523 . S
C1016 C1000 1.368 1_556 S
C1016 C1012 1.368 . S
C1016 C1015 1.523 . S
H1017 C992 0.950 . S
H1018 C994 0.950 . S
H1019 C995 0.949 . S
H1020 C997 0.950 . S
H1021 C999 0.950 . S
C1022 C1023 1.349 . S
C1022 C1024 1.327 . S
C1022 H1047 0.950 . S
C1023 C1022 1.349 . S
C1023 C1039 1.349 . S
C1024 C1022 1.327 . S
C1024 C1043 1.429 . S
C1024 H1048 0.950 . S
C1025 C1042 1.574 . S
C1025 C1044 1.368 . S
C1025 H1049 0.949 . S
H1026 C1030 0.949 . S
C1027 C1028 1.349 . S
C1027 C1029 1.327 . S
C1027 H1050 0.950 . S
C1028 C1027 1.349 . S
C1028 C1040 1.349 . S
C1029 C1027 1.327 . S
C1029 C1045 1.429 . S
C1029 H1051 0.950 . S
C1030 H1026 0.949 . S
C1030 C1038 1.574 . S
C1030 C1046 1.368 . S
H1031 C1039 0.950 . S
H1032 C1037 0.950 . S
H1033 C1038 0.949 . S
H1034 C1040 0.950 . S
H1035 C1041 0.950 . S
H1036 C1042 0.949 . S
C1037 H1032 0.950 . S
C1037 C1039 1.327 . S
C1037 C1043 1.429 . S
C1038 C1030 1.574 . S
C1038 H1033 0.949 . S
C1038 C1044 1.368 . S
C1039 C1023 1.349 . S
C1039 H1031 0.950 . S
C1039 C1037 1.327 . S
C1040 C1028 1.349 . S
C1040 H1034 0.950 . S
C1040 C1041 1.327 . S
C1041 H1035 0.950 . S
C1041 C1040 1.327 . S
C1041 C1045 1.429 . S
C1042 C1025 1.574 . S
C1042 H1036 0.949 . S
C1042 C1046 1.368 . S
C1043 C1024 1.429 . S
C1043 C1037 1.429 . S
C1043 C1044 1.523 . S
C1044 C1025 1.368 . S
C1044 C1038 1.368 . S
C1044 C1043 1.523 . S
C1045 C1029 1.429 . S
C1045 C1041 1.429 . S
C1045 C1046 1.523 . S
C1046 C1030 1.368 . S
C1046 C1042 1.368 . S
C1046 C1045 1.523 . S
H1047 C1022 0.950 . S
H1048 C1024 0.950 . S
H1049 C1025 0.949 . S
H1050 C1027 0.950 . S
H1051 C1029 0.950 . S
C1052 C1053 1.349 . S
C1052 C1054 1.327 . S
C1052 H1077 0.950 . S
C1053 C1052 1.349 . S
C1053 C1069 1.349 . S
C1054 C1052 1.327 . S
C1054 C1073 1.429 . S
C1054 H1078 0.950 . S
C1055 C1072 1.574 1_565 S
C1055 C1074 1.368 1_556 S
C1055 H1079 0.949 . S
H1056 C1060 0.949 . S
C1057 C1058 1.349 . S
C1057 C1059 1.327 . S
C1057 H1080 0.950 . S
C1058 C1057 1.349 . S
C1058 C1070 1.349 . S
C1059 C1057 1.327 . S
C1059 C1075 1.429 . S
C1059 H1081 0.950 . S
C1060 H1056 0.949 . S
C1060 C1068 1.574 1_545 S
C1060 C1076 1.368 1_554 S
H1061 C1069 0.950 . S
H1062 C1067 0.950 . S
H1063 C1068 0.949 . S
H1064 C1070 0.950 . S
H1065 C1071 0.950 . S
H1066 C1072 0.949 . S
C1067 H1062 0.950 . S
C1067 C1069 1.327 . S
C1067 C1073 1.429 . S
C1068 C1060 1.574 1_565 S
C1068 H1063 0.949 . S
C1068 C1074 1.368 . S
C1069 C1053 1.349 . S
C1069 H1061 0.950 . S
C1069 C1067 1.327 . S
C1070 C1058 1.349 . S
C1070 H1064 0.950 . S
C1070 C1071 1.327 . S
C1071 H1065 0.950 . S
C1071 C1070 1.327 . S
C1071 C1075 1.429 . S
C1072 C1055 1.574 1_545 S
C1072 H1066 0.949 . S
C1072 C1076 1.368 . S
C1073 C1054 1.429 . S
C1073 C1067 1.429 . S
C1073 C1074 1.523 . S
C1074 C1055 1.368 1_554 S
C1074 C1068 1.368 . S
C1074 C1073 1.523 . S
C1075 C1059 1.429 . S
C1075 C1071 1.429 . S
C1075 C1076 1.523 . S
C1076 C1060 1.368 1_556 S
C1076 C1072 1.368 . S
C1076 C1075 1.523 . S
H1077 C1052 0.950 . S
H1078 C1054 0.950 . S
H1079 C1055 0.949 . S
H1080 C1057 0.950 . S
H1081 C1059 0.950 . S
C1082 C1083 1.349 1_655 S
C1082 C1084 1.327 . S
C1082 H1107 0.950 . S
C1083 C1082 1.349 1_455 S
C1083 C1099 1.349 . S
C1084 C1082 1.327 . S
C1084 C1103 1.429 1_655 S
C1084 H1108 0.950 . S
C1085 C1102 1.574 . S
C1085 C1104 1.368 . S
C1085 H1109 0.949 . S
H1086 C1090 0.949 . S
C1087 C1088 1.349 . S
C1087 C1089 1.327 . S
C1087 H1110 0.950 . S
C1088 C1087 1.349 . S
C1088 C1100 1.349 1_455 S
C1089 C1087 1.327 . S
C1089 C1105 1.429 . S
C1089 H1111 0.950 . S
C1090 H1086 0.949 . S
C1090 C1098 1.574 . S
C1090 C1106 1.368 1_655 S
H1091 C1099 0.950 . S
H1092 C1097 0.950 . S
H1093 C1098 0.949 . S
H1094 C1100 0.950 . S
H1095 C1101 0.950 . S
H1096 C1102 0.949 . S
C1097 H1092 0.950 . S
C1097 C1099 1.327 . S
C1097 C1103 1.429 . S
C1098 C1090 1.574 . S
C1098 H1093 0.949 . S
C1098 C1104 1.368 1_665 S
C1099 C1083 1.349 . S
C1099 H1091 0.950 . S
C1099 C1097 1.327 . S
C1100 C1088 1.349 1_655 S
C1100 H1094 0.950 . S
C1100 C1101 1.327 . S
C1101 H1095 0.950 . S
C1101 C1100 1.327 . S
C1101 C1105 1.429 1_655 S
C1102 C1085 1.574 . S
C1102 H1096 0.949 . S
C1102 C1106 1.368 1_545 S
C1103 C1084 1.429 1_455 S
C1103 C1097 1.429 . S
C1103 C1104 1.523 . S
C1104 C1085 1.368 . S
C1104 C1098 1.368 1_445 S
C1104 C1103 1.523 . S
C1105 C1089 1.429 . S
C1105 C1101 1.429 1_455 S
C1105 C1106 1.523 . S
C1106 C1090 1.368 1_455 S
C1106 C1102 1.368 1_565 S
C1106 C1105 1.523 . S
H1107 C1082 0.950 . S
H1108 C1084 0.950 . S
H1109 C1085 0.949 . S
H1110 C1087 0.950 . S
H1111 C1089 0.950 . S
C273 C22 1.193 . S
C278 C124 1.193 . S
C303 C90 1.193 . S
C308 C49 1.193 . S
C333 C56 2.116 . S
C338 C83 2.116 . S
C363 C15 2.116 . S
C368 C117 2.116 . S
C393 C260 1.193 . S
C398 C158 1.193 . S
C423 C226 1.193 . S
C428 C185 1.193 . S
C453 C219 2.116 . S
C458 C192 2.116 . S
C483 C253 2.116 . S
C488 C151 2.116 . S
C513 C266 0.914 . S
C518 C6 0.916 . S
C543 C232 0.914 . S
C548 C62 0.916 . S
C573 C74 0.916 . S
C578 C176 0.914 . S
C603 C164 0.914 . S
C608 C108 0.916 . S
C633 C142 0.916 . S
C638 C130 0.914 . S
C663 C96 0.914 . S
C668 C198 0.916 . S
C693 C40 0.914 . S
C698 C210 0.916 . S
C723 C28 0.914 . S
C728 C244 0.916 . S
C753 C3 1.428 . S
C758 C187 1.535 . S
C783 C35 1.428 . S
C788 C153 1.535 . S
C813 C255 1.535 . S
C818 C71 1.428 . S
C843 C105 1.428 . S
C848 C221 1.535 . S
C873 C139 1.428 . S
C878 C51 1.535 . S
C903 C171 1.428 . S
C908 C17 1.535 . S
C933 C207 1.428 . S
C938 C119 1.535 . S
C963 C241 1.428 . S
C968 C85 1.535 . S
C993 C1 1.918 . S
C998 C69 1.918 . S
C1023 C37 1.918 . S
C1028 C103 1.918 . S
C1053 C137 1.918 . S
C1058 C205 1.918 . S
C1083 C173 1.918 . S
C1088 C239 1.918 . S
