# Generated by pormake.
# Topology uky, (4)-cn, num edge types: 1
# Building blocks:
#     Node 0, Type 0, BuildingBlock: CEKHIL_clean_sbu_0, # of connection points: 4
#     Node 1, Type 0, BuildingBlock: CEKHIL_clean_sbu_0, # of connection points: 4
#     Node 2, Type 0, BuildingBlock: CEKHIL_clean_sbu_0, # of connection points: 4
#     Node 3, Type 0, BuildingBlock: CEKHIL_clean_sbu_0, # of connection points: 4
#     Node 4, Type 0, BuildingBlock: CEKHIL_clean_sbu_0, # of connection points: 4
#     Node 5, Type 0, BuildingBlock: CEKHIL_clean_sbu_0, # of connection points: 4
#     Node 6, Type 0, BuildingBlock: CEKHIL_clean_sbu_0, # of connection points: 4
#     Node 7, Type 0, BuildingBlock: CEKHIL_clean_sbu_0, # of connection points: 4
#     Node 8, Type 0, BuildingBlock: CEKHIL_clean_sbu_0, # of connection points: 4
#     Node 9, Type 0, BuildingBlock: CEKHIL_clean_sbu_0, # of connection points: 4
#     Node 10, Type 0, BuildingBlock: CEKHIL_clean_sbu_0, # of connection points: 4
#     Node 11, Type 0, BuildingBlock: CEKHIL_clean_sbu_0, # of connection points: 4
#     Node 12, Type 0, BuildingBlock: CEKHIL_clean_sbu_0, # of connection points: 4
#     Node 13, Type 0, BuildingBlock: CEKHIL_clean_sbu_0, # of connection points: 4
#     Node 14, Type 0, BuildingBlock: CEKHIL_clean_sbu_0, # of connection points: 4
#     Node 15, Type 0, BuildingBlock: CEKHIL_clean_sbu_0, # of connection points: 4
#     Node 16, Type 0, BuildingBlock: CEKHIL_clean_sbu_0, # of connection points: 4
#     Node 17, Type 0, BuildingBlock: CEKHIL_clean_sbu_0, # of connection points: 4
#     Node 18, Type 0, BuildingBlock: CEKHIL_clean_sbu_0, # of connection points: 4
#     Node 19, Type 0, BuildingBlock: CEKHIL_clean_sbu_0, # of connection points: 4
#     Node 20, Type 0, BuildingBlock: CEKHIL_clean_sbu_0, # of connection points: 4
#     Node 21, Type 0, BuildingBlock: CEKHIL_clean_sbu_0, # of connection points: 4
#     Node 22, Type 0, BuildingBlock: CEKHIL_clean_sbu_0, # of connection points: 4
#     Node 23, Type 0, BuildingBlock: CEKHIL_clean_sbu_0, # of connection points: 4
#     Node 24, Type 0, BuildingBlock: CEKHIL_clean_sbu_0, # of connection points: 4
#     Node 25, Type 0, BuildingBlock: CEKHIL_clean_sbu_0, # of connection points: 4
#     Node 26, Type 0, BuildingBlock: CEKHIL_clean_sbu_0, # of connection points: 4
#     Node 27, Type 0, BuildingBlock: CEKHIL_clean_sbu_0, # of connection points: 4
#     Node 28, Type 0, BuildingBlock: CEKHIL_clean_sbu_0, # of connection points: 4
#     Node 29, Type 0, BuildingBlock: CEKHIL_clean_sbu_0, # of connection points: 4
#     Node 30, Type 0, BuildingBlock: CEKHIL_clean_sbu_0, # of connection points: 4
#     Node 31, Type 0, BuildingBlock: CEKHIL_clean_sbu_0, # of connection points: 4
#     Node 32, Type 0, BuildingBlock: CEKHIL_clean_sbu_0, # of connection points: 4
#     Node 33, Type 0, BuildingBlock: CEKHIL_clean_sbu_0, # of connection points: 4
#     Node 34, Type 0, BuildingBlock: CEKHIL_clean_sbu_0, # of connection points: 4
#     Node 35, Type 0, BuildingBlock: CEKHIL_clean_sbu_0, # of connection points: 4
#     Node 36, Type 0, BuildingBlock: CEKHIL_clean_sbu_0, # of connection points: 4
#     Node 37, Type 0, BuildingBlock: CEKHIL_clean_sbu_0, # of connection points: 4
#     Node 38, Type 0, BuildingBlock: CEKHIL_clean_sbu_0, # of connection points: 4
#     Node 39, Type 0, BuildingBlock: CEKHIL_clean_sbu_0, # of connection points: 4
#     Node 40, Type 0, BuildingBlock: CEKHIL_clean_sbu_0, # of connection points: 4
#     Node 41, Type 0, BuildingBlock: CEKHIL_clean_sbu_0, # of connection points: 4
#     Node 42, Type 0, BuildingBlock: CEKHIL_clean_sbu_0, # of connection points: 4
#     Node 43, Type 0, BuildingBlock: CEKHIL_clean_sbu_0, # of connection points: 4
#     Node 44, Type 0, BuildingBlock: CEKHIL_clean_sbu_0, # of connection points: 4
#     Node 45, Type 0, BuildingBlock: CEKHIL_clean_sbu_0, # of connection points: 4
#     Node 46, Type 0, BuildingBlock: CEKHIL_clean_sbu_0, # of connection points: 4
#     Node 47, Type 0, BuildingBlock: CEKHIL_clean_sbu_0, # of connection points: 4
#     Edge 48, Type (0, 0), BuildingBlock: ZUJKAS_clean_linker_0, # of connection points: 2
#     Edge 49, Type (0, 0), BuildingBlock: ZUJKAS_clean_linker_0, # of connection points: 2
#     Edge 50, Type (0, 0), BuildingBlock: ZUJKAS_clean_linker_0, # of connection points: 2
#     Edge 51, Type (0, 0), BuildingBlock: ZUJKAS_clean_linker_0, # of connection points: 2
#     Edge 52, Type (0, 0), BuildingBlock: ZUJKAS_clean_linker_0, # of connection points: 2
#     Edge 53, Type (0, 0), BuildingBlock: ZUJKAS_clean_linker_0, # of connection points: 2
#     Edge 54, Type (0, 0), BuildingBlock: ZUJKAS_clean_linker_0, # of connection points: 2
#     Edge 55, Type (0, 0), BuildingBlock: ZUJKAS_clean_linker_0, # of connection points: 2
#     Edge 56, Type (0, 0), BuildingBlock: ZUJKAS_clean_linker_0, # of connection points: 2
#     Edge 57, Type (0, 0), BuildingBlock: ZUJKAS_clean_linker_0, # of connection points: 2
#     Edge 58, Type (0, 0), BuildingBlock: ZUJKAS_clean_linker_0, # of connection points: 2
#     Edge 59, Type (0, 0), BuildingBlock: ZUJKAS_clean_linker_0, # of connection points: 2
#     Edge 60, Type (0, 0), BuildingBlock: ZUJKAS_clean_linker_0, # of connection points: 2
#     Edge 61, Type (0, 0), BuildingBlock: ZUJKAS_clean_linker_0, # of connection points: 2
#     Edge 62, Type (0, 0), BuildingBlock: ZUJKAS_clean_linker_0, # of connection points: 2
#     Edge 63, Type (0, 0), BuildingBlock: ZUJKAS_clean_linker_0, # of connection points: 2
#     Edge 64, Type (0, 0), BuildingBlock: ZUJKAS_clean_linker_0, # of connection points: 2
#     Edge 65, Type (0, 0), BuildingBlock: ZUJKAS_clean_linker_0, # of connection points: 2
#     Edge 66, Type (0, 0), BuildingBlock: ZUJKAS_clean_linker_0, # of connection points: 2
#     Edge 67, Type (0, 0), BuildingBlock: ZUJKAS_clean_linker_0, # of connection points: 2
#     Edge 68, Type (0, 0), BuildingBlock: ZUJKAS_clean_linker_0, # of connection points: 2
#     Edge 69, Type (0, 0), BuildingBlock: ZUJKAS_clean_linker_0, # of connection points: 2
#     Edge 70, Type (0, 0), BuildingBlock: ZUJKAS_clean_linker_0, # of connection points: 2
#     Edge 71, Type (0, 0), BuildingBlock: ZUJKAS_clean_linker_0, # of connection points: 2
#     Edge 72, Type (0, 0), BuildingBlock: ZUJKAS_clean_linker_0, # of connection points: 2
#     Edge 73, Type (0, 0), BuildingBlock: ZUJKAS_clean_linker_0, # of connection points: 2
#     Edge 74, Type (0, 0), BuildingBlock: ZUJKAS_clean_linker_0, # of connection points: 2
#     Edge 75, Type (0, 0), BuildingBlock: ZUJKAS_clean_linker_0, # of connection points: 2
#     Edge 76, Type (0, 0), BuildingBlock: ZUJKAS_clean_linker_0, # of connection points: 2
#     Edge 77, Type (0, 0), BuildingBlock: ZUJKAS_clean_linker_0, # of connection points: 2
#     Edge 78, Type (0, 0), BuildingBlock: ZUJKAS_clean_linker_0, # of connection points: 2
#     Edge 79, Type (0, 0), BuildingBlock: ZUJKAS_clean_linker_0, # of connection points: 2
#     Edge 80, Type (0, 0), BuildingBlock: ZUJKAS_clean_linker_0, # of connection points: 2
#     Edge 81, Type (0, 0), BuildingBlock: ZUJKAS_clean_linker_0, # of connection points: 2
#     Edge 82, Type (0, 0), BuildingBlock: ZUJKAS_clean_linker_0, # of connection points: 2
#     Edge 83, Type (0, 0), BuildingBlock: ZUJKAS_clean_linker_0, # of connection points: 2
#     Edge 84, Type (0, 0), BuildingBlock: ZUJKAS_clean_linker_0, # of connection points: 2
#     Edge 85, Type (0, 0), BuildingBlock: ZUJKAS_clean_linker_0, # of connection points: 2
#     Edge 86, Type (0, 0), BuildingBlock: ZUJKAS_clean_linker_0, # of connection points: 2
#     Edge 87, Type (0, 0), BuildingBlock: ZUJKAS_clean_linker_0, # of connection points: 2
#     Edge 88, Type (0, 0), BuildingBlock: ZUJKAS_clean_linker_0, # of connection points: 2
#     Edge 89, Type (0, 0), BuildingBlock: ZUJKAS_clean_linker_0, # of connection points: 2
#     Edge 90, Type (0, 0), BuildingBlock: ZUJKAS_clean_linker_0, # of connection points: 2
#     Edge 91, Type (0, 0), BuildingBlock: ZUJKAS_clean_linker_0, # of connection points: 2
#     Edge 92, Type (0, 0), BuildingBlock: ZUJKAS_clean_linker_0, # of connection points: 2
#     Edge 93, Type (0, 0), BuildingBlock: ZUJKAS_clean_linker_0, # of connection points: 2
#     Edge 94, Type (0, 0), BuildingBlock: ZUJKAS_clean_linker_0, # of connection points: 2
#     Edge 95, Type (0, 0), BuildingBlock: ZUJKAS_clean_linker_0, # of connection points: 2
#     Edge 96, Type (0, 0), BuildingBlock: ZUJKAS_clean_linker_0, # of connection points: 2
#     Edge 97, Type (0, 0), BuildingBlock: ZUJKAS_clean_linker_0, # of connection points: 2
#     Edge 98, Type (0, 0), BuildingBlock: ZUJKAS_clean_linker_0, # of connection points: 2
#     Edge 99, Type (0, 0), BuildingBlock: ZUJKAS_clean_linker_0, # of connection points: 2
#     Edge 100, Type (0, 0), BuildingBlock: ZUJKAS_clean_linker_0, # of connection points: 2
#     Edge 101, Type (0, 0), BuildingBlock: ZUJKAS_clean_linker_0, # of connection points: 2
#     Edge 102, Type (0, 0), BuildingBlock: ZUJKAS_clean_linker_0, # of connection points: 2
#     Edge 103, Type (0, 0), BuildingBlock: ZUJKAS_clean_linker_0, # of connection points: 2
#     Edge 104, Type (0, 0), BuildingBlock: ZUJKAS_clean_linker_0, # of connection points: 2
#     Edge 105, Type (0, 0), BuildingBlock: ZUJKAS_clean_linker_0, # of connection points: 2
#     Edge 106, Type (0, 0), BuildingBlock: ZUJKAS_clean_linker_0, # of connection points: 2
#     Edge 107, Type (0, 0), BuildingBlock: ZUJKAS_clean_linker_0, # of connection points: 2
#     Edge 108, Type (0, 0), BuildingBlock: ZUJKAS_clean_linker_0, # of connection points: 2
#     Edge 109, Type (0, 0), BuildingBlock: ZUJKAS_clean_linker_0, # of connection points: 2
#     Edge 110, Type (0, 0), BuildingBlock: ZUJKAS_clean_linker_0, # of connection points: 2
#     Edge 111, Type (0, 0), BuildingBlock: ZUJKAS_clean_linker_0, # of connection points: 2
#     Edge 112, Type (0, 0), BuildingBlock: ZUJKAS_clean_linker_0, # of connection points: 2
#     Edge 113, Type (0, 0), BuildingBlock: ZUJKAS_clean_linker_0, # of connection points: 2
#     Edge 114, Type (0, 0), BuildingBlock: ZUJKAS_clean_linker_0, # of connection points: 2
#     Edge 115, Type (0, 0), BuildingBlock: ZUJKAS_clean_linker_0, # of connection points: 2
#     Edge 116, Type (0, 0), BuildingBlock: ZUJKAS_clean_linker_0, # of connection points: 2
#     Edge 117, Type (0, 0), BuildingBlock: ZUJKAS_clean_linker_0, # of connection points: 2
#     Edge 118, Type (0, 0), BuildingBlock: ZUJKAS_clean_linker_0, # of connection points: 2
#     Edge 119, Type (0, 0), BuildingBlock: ZUJKAS_clean_linker_0, # of connection points: 2
#     Edge 120, Type (0, 0), BuildingBlock: ZUJKAS_clean_linker_0, # of connection points: 2
#     Edge 121, Type (0, 0), BuildingBlock: ZUJKAS_clean_linker_0, # of connection points: 2
#     Edge 122, Type (0, 0), BuildingBlock: ZUJKAS_clean_linker_0, # of connection points: 2
#     Edge 123, Type (0, 0), BuildingBlock: ZUJKAS_clean_linker_0, # of connection points: 2
#     Edge 124, Type (0, 0), BuildingBlock: ZUJKAS_clean_linker_0, # of connection points: 2
#     Edge 125, Type (0, 0), BuildingBlock: ZUJKAS_clean_linker_0, # of connection points: 2
#     Edge 126, Type (0, 0), BuildingBlock: ZUJKAS_clean_linker_0, # of connection points: 2
#     Edge 127, Type (0, 0), BuildingBlock: ZUJKAS_clean_linker_0, # of connection points: 2
#     Edge 128, Type (0, 0), BuildingBlock: ZUJKAS_clean_linker_0, # of connection points: 2
#     Edge 129, Type (0, 0), BuildingBlock: ZUJKAS_clean_linker_0, # of connection points: 2
#     Edge 130, Type (0, 0), BuildingBlock: ZUJKAS_clean_linker_0, # of connection points: 2
#     Edge 131, Type (0, 0), BuildingBlock: ZUJKAS_clean_linker_0, # of connection points: 2
#     Edge 132, Type (0, 0), BuildingBlock: ZUJKAS_clean_linker_0, # of connection points: 2
#     Edge 133, Type (0, 0), BuildingBlock: ZUJKAS_clean_linker_0, # of connection points: 2
#     Edge 134, Type (0, 0), BuildingBlock: ZUJKAS_clean_linker_0, # of connection points: 2
#     Edge 135, Type (0, 0), BuildingBlock: ZUJKAS_clean_linker_0, # of connection points: 2
#     Edge 136, Type (0, 0), BuildingBlock: ZUJKAS_clean_linker_0, # of connection points: 2
#     Edge 137, Type (0, 0), BuildingBlock: ZUJKAS_clean_linker_0, # of connection points: 2
#     Edge 138, Type (0, 0), BuildingBlock: ZUJKAS_clean_linker_0, # of connection points: 2
#     Edge 139, Type (0, 0), BuildingBlock: ZUJKAS_clean_linker_0, # of connection points: 2
#     Edge 140, Type (0, 0), BuildingBlock: ZUJKAS_clean_linker_0, # of connection points: 2
#     Edge 141, Type (0, 0), BuildingBlock: ZUJKAS_clean_linker_0, # of connection points: 2
#     Edge 142, Type (0, 0), BuildingBlock: ZUJKAS_clean_linker_0, # of connection points: 2
#     Edge 143, Type (0, 0), BuildingBlock: ZUJKAS_clean_linker_0, # of connection points: 2
# Relax obj value: 0.312
# Max RMSD: 0.250
# Mean RMSD: 0.250
data_MOF--net-uky--node1-CEKHIL_clean_sbu_0--edge1-ZUJKAS_clean_linker_0
_symmetry_space_group_name_H-M    P1
_symmetry_Int_Tables_number       1
_symmetry_cell_setting            triclinic
loop_
_symmetry_equiv_pos_as_xyz
'x, y, z'
_cell_length_a     78.401788
_cell_length_b     78.387186
_cell_length_c     78.388654
_cell_angle_alpha  90.023659
_cell_angle_beta   89.980626
_cell_angle_gamma 89.977647
loop_
_atom_site_label
_atom_site_type_symbol
_atom_site_fract_x
_atom_site_fract_y
_atom_site_fract_z
_atom_type_partial_charge
Co0 Co 0.21546 0.19503 0.37473 0.0
O1 O 0.19342 0.18878 0.3831 0.0
O2 O 0.21212 0.1708 0.37171 0.0
C3 C 0.20673 0.21781 0.35969 0.0
O4 O 0.23904 0.19696 0.36403 0.0
Co5 Co 0.23193 0.22971 0.38438 0.0
O6 O 0.24727 0.22442 0.36499 0.0
C7 C 0.23026 0.20193 0.4098 0.0
C8 C 0.19712 0.17337 0.37832 0.0
C9 C 0.24901 0.20921 0.35953 0.0
O10 O 0.22525 0.19146 0.3982 0.0
O11 O 0.23251 0.21788 0.40708 0.0
O12 O 0.20547 0.20257 0.35332 0.0
O13 O 0.21176 0.21865 0.37538 0.0
Co14 Co 0.04386 0.968 0.62691 0.0
O15 O 0.04551 0.94447 0.63313 0.0
O16 O 0.06717 0.96034 0.62424 0.0
C17 C 0.02068 0.96507 0.61034 0.0
O18 O 0.04678 0.99233 0.61839 0.0
Co19 Co 0.01253 0.98955 0.63741 0.0
O20 O 0.02182 0.00622 0.62088 0.0
C21 C 0.03844 0.98071 0.66317 0.0
C22 C 0.06151 0.94549 0.62902 0.0
C23 C 0.03708 0.00524 0.6154 0.0
O24 O 0.04819 0.97482 0.65135 0.0
O25 O 0.02324 0.98598 0.66034 0.0
O26 O 0.03577 0.96174 0.6044 0.0
O27 O 0.01986 0.96859 0.62645 0.0
Co28 Co 0.27548 0.79876 0.87226 0.0
O29 O 0.29624 0.80425 0.88395 0.0
O30 O 0.27952 0.82301 0.87087 0.0
C31 C 0.28583 0.7765 0.85736 0.0
O32 O 0.25369 0.7979 0.85819 0.0
Co33 Co 0.2572 0.7641 0.87785 0.0
O34 O 0.24322 0.7712 0.85811 0.0
C35 C 0.25431 0.79107 0.90394 0.0
C36 C 0.29344 0.81992 0.87933 0.0
C37 C 0.24313 0.78655 0.8528 0.0
O38 O 0.26239 0.80156 0.89425 0.0
O39 O 0.25172 0.77542 0.90011 0.0
O40 O 0.28828 0.79202 0.85213 0.0
O41 O 0.27868 0.77498 0.87217 0.0
Co42 Co 0.43916 0.02509 0.12419 0.0
O43 O 0.43172 0.04721 0.13139 0.0
O44 O 0.41479 0.02707 0.12087 0.0
C45 C 0.46161 0.03383 0.10863 0.0
O46 O 0.44251 0.00111 0.11472 0.0
Co47 Co 0.47461 0.01138 0.13556 0.0
O48 O 0.46963 0.99275 0.11928 0.0
C49 C 0.44637 0.01293 0.1603 0.0
C50 C 0.41655 0.04247 0.12679 0.0
C51 C 0.45491 0.9905 0.11277 0.0
O52 O 0.43584 0.01635 0.14818 0.0
O53 O 0.4625 0.01187 0.15804 0.0
O54 O 0.44633 0.0342 0.10226 0.0
O55 O 0.46257 0.03 0.12464 0.0
Co56 Co 0.21338 0.80078 0.11644 0.0
O57 O 0.19071 0.80638 0.10926 0.0
O58 O 0.20981 0.82509 0.11858 0.0
C59 C 0.20596 0.77876 0.13324 0.0
O60 O 0.23763 0.79964 0.12576 0.0
Co61 Co 0.22967 0.76566 0.10794 0.0
O62 O 0.24553 0.77209 0.12648 0.0
C63 C 0.22759 0.79232 0.08131 0.0
C64 C 0.1944 0.822 0.11326 0.0
C65 C 0.24764 0.78762 0.13077 0.0
O66 O 0.2217 0.80316 0.09216 0.0
O67 O 0.23074 0.77671 0.08494 0.0
O68 O 0.20496 0.79431 0.13886 0.0
O69 O 0.20989 0.77711 0.11731 0.0
Co70 Co 0.44251 0.96565 0.36544 0.0
O71 O 0.43416 0.94557 0.35428 0.0
O72 O 0.41845 0.96313 0.37002 0.0
C73 C 0.46571 0.95341 0.37703 0.0
O74 O 0.44672 0.98698 0.37962 0.0
Co75 Co 0.47733 0.98177 0.35574 0.0
O76 O 0.47408 0.99508 0.37695 0.0
C77 C 0.4477 0.98584 0.33281 0.0
C78 C 0.4195 0.94918 0.36111 0.0
C79 C 0.45953 -0.00377 0.38409 0.0
O80 O 0.43782 0.9794 0.34423 0.0
O81 O 0.46392 0.98675 0.33454 0.0
O82 O 0.45089 0.95186 0.38424 0.0
O83 O 0.4658 0.96092 0.36234 0.0
Co84 Co 0.27571 0.19641 0.61547 0.0
O85 O 0.2946 0.18592 0.60405 0.0
O86 O 0.2758 0.17222 0.62021 0.0
C87 C 0.29056 0.21826 0.62666 0.0
O88 O 0.25511 0.20304 0.62985 0.0
Co89 Co 0.26332 0.23277 0.60579 0.0
O90 O 0.25128 0.2314 0.62795 0.0
C91 C 0.25573 0.20355 0.58313 0.0
C92 C 0.28961 0.17176 0.61104 0.0
C93 C 0.24818 0.21705 0.63491 0.0
O94 O 0.26126 0.19309 0.5945 0.0
O95 O 0.25651 0.21979 0.5848 0.0
O96 O 0.2906 0.20342 0.63401 0.0
O97 O 0.28286 0.21901 0.61208 0.0
Co98 Co 0.04735 0.02215 0.86833 0.0
O99 O 0.05421 0.04162 0.85523 0.0
O100 O 0.07144 0.02608 0.87146 0.0
C101 C 0.0241 0.03437 0.87988 0.0
O102 O 0.04492 0.00182 0.88426 0.0
Co103 Co 0.01296 0.0037 0.86194 0.0
O104 O 0.01803 0.99197 0.8837 0.0
C105 C 0.04144 -0.00044 0.83754 0.0
C106 C 0.06934 0.03918 0.86151 0.0
C107 C 0.033 0.99213 0.89003 0.0
O108 O 0.05167 0.00699 0.84801 0.0
O109 O 0.02539 -0.00183 0.84026 0.0
O110 O 0.03909 0.03704 0.88638 0.0
O111 O 0.02377 0.02557 0.86593 0.0
Co112 Co 0.37523 0.20915 0.19546 0.0
O113 O 0.38275 0.18749 0.18697 0.0
O114 O 0.37062 0.20773 0.17128 0.0
C115 C 0.36128 0.19912 0.21842 0.0
O116 O 0.36509 0.23264 0.19983 0.0
Co117 Co 0.38714 0.22275 0.2307 0.0
O118 O 0.36854 0.23954 0.22745 0.0
C119 C 0.41076 0.2235 0.20131 0.0
C120 C 0.37704 0.19247 0.17224 0.0
C121 C 0.36201 0.24223 0.21281 0.0
O122 O 0.39865 0.21894 0.19121 0.0
O123 O 0.40896 0.22457 0.21752 0.0
O124 O 0.35405 0.19907 0.20352 0.0
O125 O 0.37714 0.20362 0.21869 0.0
Co126 Co 0.02655 0.12017 0.44531 0.0
O127 O 0.04722 0.13155 0.43891 0.0
O128 O 0.03112 0.11608 0.4215 0.0
C129 C 0.03683 0.10835 0.46933 0.0
O130 O 0.00507 0.1058 0.44724 0.0
Co131 Co 0.0071 0.12873 0.47867 0.0
O132 O 0.99453 0.10738 0.47382 0.0
C133 C 0.00561 0.15246 0.4494 0.0
C134 C 0.04488 0.12502 0.42385 0.0
C135 C 0.99479 0.10075 0.45899 0.0
O136 O 0.01314 0.14141 0.43986 0.0
O137 O 0.00309 0.15022 0.46539 0.0
O138 O 0.03969 0.1013 0.45461 0.0
O139 O 0.02912 0.12293 0.46898 0.0
Co140 Co 0.11786 0.77337 0.69018 0.0
O141 O 0.10533 0.793 0.68281 0.0
O142 O 0.12021 0.77591 0.66578 0.0
C143 C 0.13101 0.786 0.7123 0.0
O144 O 0.13299 0.75249 0.69332 0.0
Co145 Co 0.11124 0.75728 0.72575 0.0
O146 O 0.13273 0.7449 0.72097 0.0
C147 C 0.08611 0.75265 0.69814 0.0
C148 C 0.11081 0.78946 0.66758 0.0
C149 C 0.1388 0.74371 0.70593 0.0
O150 O 0.09673 0.75899 0.68736 0.0
O151 O 0.08903 0.75198 0.7142 0.0
O152 O 0.1369 0.78776 0.69692 0.0
O153 O 0.11656 0.77814 0.71359 0.0
Co154 Co 0.47043 0.86647 0.94644 0.0
O155 O 0.44832 0.85714 0.94185 0.0
O156 O 0.46406 0.87148 0.92319 0.0
C157 C 0.46349 0.87871 0.97144 0.0
O158 O 0.49331 0.8787 0.94671 0.0
Co159 Co 0.49157 0.8549 0.97778 0.0
O160 O 0.50639 0.87444 0.97186 0.0
C161 C 0.48812 0.83208 0.94802 0.0
C162 C 0.44987 0.86367 0.92671 0.0
C163 C 0.50536 0.88181 0.95742 0.0
O164 O 0.4812 0.8442 0.93941 0.0
O165 O 0.49202 0.83346 0.96382 0.0
O166 O 0.46008 0.88629 0.95712 0.0
O167 O 0.46961 0.86343 0.97022 0.0
Co168 Co 0.37231 0.78067 0.29262 0.0
O169 O 0.38229 0.80165 0.30019 0.0
O170 O 0.36817 0.78352 0.31674 0.0
C171 C 0.35955 0.79157 0.26939 0.0
O172 O 0.35954 0.75837 0.28942 0.0
Co173 Co 0.38187 0.76412 0.25806 0.0
O174 O 0.36146 0.74978 0.26217 0.0
C175 C 0.40583 0.76209 0.28712 0.0
C176 C 0.37619 0.79794 0.31514 0.0
C177 C 0.35505 0.74857 0.27706 0.0
O178 O 0.39446 0.76845 0.29711 0.0
O179 O 0.40363 0.76042 0.27101 0.0
O180 O 0.35238 0.79283 0.28427 0.0
O181 O 0.3747 0.78504 0.26917 0.0
Co182 Co 0.46156 0.12598 0.54876 0.0
O183 O 0.43983 0.13566 0.55445 0.0
O184 O 0.45757 0.1236 0.57294 0.0
C185 C 0.45275 0.11073 0.52615 0.0
O186 O 0.48444 0.1138 0.54755 0.0
Co187 Co 0.4792 0.13407 0.51417 0.0
O188 O 0.49462 0.11521 0.52074 0.0
C189 C 0.47893 0.15991 0.54154 0.0
C190 C 0.44293 0.1308 0.56998 0.0
C191 C 0.4952 0.10945 0.53593 0.0
O192 O 0.47269 0.14896 0.55206 0.0
O193 O 0.48129 0.15677 0.52569 0.0
O194 O 0.45062 0.10496 0.54152 0.0
O195 O 0.45844 0.12618 0.52503 0.0
Co196 Co 0.1146 0.22039 0.79887 0.0
O197 O 0.1072 0.19719 0.80015 0.0
O198 O 0.11684 0.21226 0.82207 0.0
C199 C 0.13107 0.21725 0.77569 0.0
O200 O 0.12438 0.24425 0.80201 0.0
Co201 Co 0.10478 0.24266 0.76771 0.0
O202 O 0.12243 0.25812 0.77695 0.0
C203 C 0.07888 0.23479 0.79372 0.0
C204 C 0.11125 0.19778 0.81618 0.0
C205 C 0.12807 0.25686 0.79214 0.0
O206 O 0.09049 0.22829 0.80333 0.0
O207 O 0.08181 0.24011 0.77857 0.0
O208 O 0.1368 0.21319 0.79068 0.0
O209 O 0.1151 0.22135 0.77493 0.0
Co210 Co 0.0299 0.86435 0.04991 0.0
O211 O 0.04865 0.85333 0.061 0.0
O212 O 0.02823 0.86777 0.0743 0.0
C213 C 0.04516 0.87773 0.02962 0.0
O214 O 0.00907 0.8781 0.04253 0.0
Co215 Co 0.0207 0.85553 0.01235 0.0
O216 O 0.0077 0.87715 0.01387 0.0
C217 C 0.01169 0.83153 0.03995 0.0
C218 C 0.04245 0.85926 0.07516 0.0
C219 C 0.00319 0.88348 0.02815 0.0
O220 O 0.01629 0.84255 0.05121 0.0
O221 O 0.01349 0.83388 0.02388 0.0
O222 O 0.04411 0.88403 0.04489 0.0
O223 O 0.03868 0.86267 0.0277 0.0
Co224 Co 0.20033 0.37552 0.21382 0.0
O225 O 0.19502 0.38377 0.19149 0.0
O226 O 0.1763 0.37232 0.20936 0.0
C227 C 0.22363 0.3606 0.20635 0.0
O228 O 0.20137 0.36476 0.23742 0.0
Co229 Co 0.2341 0.38591 0.23174 0.0
O230 O 0.22823 0.36686 0.24722 0.0
C231 C 0.20588 0.41067 0.22934 0.0
C232 C 0.17948 0.37887 0.19445 0.0
C233 C 0.21317 0.36082 0.24814 0.0
O234 O 0.19599 0.39897 0.22348 0.0
O235 O 0.22175 0.40829 0.23238 0.0
O236 O 0.20851 0.35418 0.20424 0.0
O237 O 0.2241 0.37636 0.21123 0.0
Co238 Co 0.69429 0.11279 0.78156 0.0
O239 O 0.68583 0.1033 0.80239 0.0
O240 O 0.6699 0.11638 0.78297 0.0
C241 C 0.71651 0.12701 0.79272 0.0
O242 O 0.69895 0.12501 0.75906 0.0
Co243 Co 0.73012 0.10223 0.76818 0.0
O244 O 0.72697 0.12239 0.75336 0.0
C245 C 0.70142 0.07818 0.76534 0.0
C246 C 0.67096 0.10889 0.79774 0.0
C247 C 0.71245 0.12918 0.75064 0.0
O248 O 0.691 0.09001 0.76995 0.0
O249 O 0.71762 0.08019 0.76503 0.0
O250 O 0.70124 0.13338 0.79342 0.0
O251 O 0.71746 0.11143 0.78732 0.0
Co252 Co 0.12441 0.44797 0.02212 0.0
O253 O 0.13271 0.44473 0.04484 0.0
O254 O 0.12065 0.42461 0.02904 0.0
C255 C 0.11019 0.4723 0.02759 0.0
O256 O 0.11338 0.4468 -0.00131 0.0
Co257 Co 0.13509 0.47946 0.00073 0.0
O258 O 0.11659 0.47195 0.98528 0.0
C259 C 0.15935 0.45105 0.00551 0.0
C260 C 0.12724 0.42916 0.04358 0.0
C261 C 0.11011 0.45709 0.98632 0.0
O262 O 0.14759 0.44206 0.01259 0.0
O263 O 0.15719 0.46662 0.00106 0.0
O264 O 0.1034 0.4576 0.03104 0.0
O265 O 0.12585 0.47192 0.02239 0.0
Co266 Co 0.7974 0.87825 0.27417 0.0
O267 O 0.80482 0.88806 0.29531 0.0
O268 O 0.8214 0.87369 0.27741 0.0
C269 C 0.77391 0.86565 0.28475 0.0
O270 O 0.79416 0.86546 0.25174 0.0
Co271 Co 0.76304 0.88858 0.25746 0.0
O272 O 0.76686 0.86796 0.24341 0.0
C273 C 0.79247 0.91209 0.25592 0.0
C274 C 0.81966 0.88153 0.29192 0.0
C275 C 0.78156 0.86116 0.24211 0.0
O276 O 0.8023 0.90049 0.26214 0.0
O277 O 0.77635 0.91014 0.25412 0.0
O278 O 0.78874 0.85845 0.28627 0.0
O279 O 0.77391 0.88082 0.27825 0.0
Co280 Co 0.86948 0.04755 0.01988 0.0
O281 O 0.86384 0.04823 0.04362 0.0
O282 O 0.87184 0.07063 0.02834 0.0
C283 C 0.88656 0.02458 0.02146 0.0
O284 O 0.87731 0.0515 -0.00454 0.0
Co285 Co 0.85894 0.01673 -0.00244 0.0
O286 O 0.8748 0.02698 0.98079 0.0
C287 C 0.83301 0.04195 0.00781 0.0
C288 C 0.8675 0.06436 0.04308 0.0
C289 C 0.88006 0.0423 0.98214 0.0
O290 O 0.84479 0.05168 0.0138 0.0
O291 O 0.83596 0.02697 0.002 0.0
O292 O 0.89231 0.03963 0.02525 0.0
O293 O 0.87038 0.02362 0.01838 0.0
Co294 Co 0.30268 0.61574 0.71238 0.0
O295 O 0.30981 0.60457 0.69181 0.0
O296 O 0.32702 0.61837 0.70954 0.0
C297 C 0.28037 0.62974 0.70101 0.0
O298 O 0.29983 0.6296 0.73425 0.0
Co299 Co 0.26729 0.60834 0.72859 0.0
O300 O 0.27207 0.62953 0.74139 0.0
C301 C 0.29529 0.58354 0.73289 0.0
C302 C 0.32503 0.61005 0.69533 0.0
C303 C 0.28716 0.63531 0.74304 0.0
O304 O 0.30577 0.59372 0.7254 0.0
O305 O 0.27937 0.58668 0.73471 0.0
O306 O 0.29574 0.63567 0.69941 0.0
O307 O 0.27916 0.61478 0.70787 0.0
Co308 Co 0.12339 0.54152 0.46933 0.0
O309 O 0.13163 0.543 0.4464 0.0
O310 O 0.12044 0.56453 0.46095 0.0
C311 C 0.10814 0.51755 0.46537 0.0
O312 O 0.11255 0.54453 0.49274 0.0
Co313 Co 0.1332 0.51104 0.49244 0.0
O314 O 0.11492 0.51998 0.50736 0.0
C315 C 0.15841 0.53816 0.48581 0.0
C316 C 0.12666 0.5588 0.44666 0.0
C317 C 0.10892 0.53498 0.50559 0.0
O318 O 0.14688 0.54709 0.47828 0.0
O319 O 0.15576 0.523 0.49129 0.0
O320 O 0.10197 0.53231 0.46112 0.0
O321 O 0.12385 0.51753 0.47047 0.0
Co322 Co 0.36717 0.43913 0.96658 0.0
O323 O 0.35848 0.43222 0.94486 0.0
O324 O 0.37049 0.41484 0.96372 0.0
C325 C 0.38186 0.46187 0.95709 0.0
O326 O 0.37826 0.44188 0.9899 0.0
Co327 Co 0.35688 0.47422 0.982 0.0
O328 O 0.37423 0.46869 -0.00056 0.0
C329 C 0.33213 0.44588 0.98174 0.0
C330 C 0.36358 0.41698 0.94879 0.0
C331 C 0.38083 0.4539 0.0008 0.0
O332 O 0.3439 0.43545 0.977 0.0
O333 O 0.33449 0.46199 0.98305 0.0
O334 O 0.38833 0.44667 0.95601 0.0
O335 O 0.36622 0.46265 0.96227 0.0
Co336 Co 0.71952 0.69159 0.87725 0.0
O337 O 0.69903 0.68533 0.88891 0.0
O338 O 0.71552 0.66737 0.87451 0.0
C339 C 0.70872 0.7145 0.86382 0.0
O340 O 0.74113 0.69377 0.86291 0.0
Co341 Co 0.73709 0.72611 0.88545 0.0
O342 O 0.75052 0.72083 0.86476 0.0
C343 C 0.73921 0.69783 0.91009 0.0
C344 C 0.70173 0.66997 0.88338 0.0
C345 C 0.75104 0.70599 0.85814 0.0
O346 O 0.73286 0.68763 0.8989 0.0
O347 O 0.74074 0.7139 0.90763 0.0
O348 O 0.70635 0.69929 0.85773 0.0
O349 O 0.71597 0.71523 0.87863 0.0
Co350 Co 0.54545 0.46578 0.12519 0.0
O351 O 0.55356 0.44457 0.13425 0.0
O352 O 0.56916 0.46275 0.11915 0.0
C353 C 0.52122 0.45542 0.11388 0.0
O354 O 0.54132 0.48839 0.11307 0.0
Co355 Co 0.51172 0.48214 0.13809 0.0
O356 O 0.51462 0.49749 0.11829 0.0
C357 C 0.54269 0.48357 0.15951 0.0
C358 C 0.56801 0.44821 0.12703 0.0
C359 C 0.52877 0.49866 0.11039 0.0
O360 O 0.55173 0.47755 0.1472 0.0
O361 O 0.52646 0.48521 0.15873 0.0
O362 O 0.53559 0.45394 0.10577 0.0
O363 O 0.5222 0.46161 0.12914 0.0
Co364 Co 0.76834 0.29879 0.37713 0.0
O365 O 0.7888 0.30464 0.3892 0.0
O366 O 0.77264 0.32296 0.37491 0.0
C367 C 0.77915 0.27604 0.36334 0.0
O368 O 0.74694 0.29735 0.36241 0.0
Co369 Co 0.74995 0.26429 0.38337 0.0
O370 O 0.73799 0.27013 0.36198 0.0
C371 C 0.7458 0.29234 0.40817 0.0
C372 C 0.78638 0.32008 0.38374 0.0
C373 C 0.73746 0.28536 0.35637 0.0
O374 O 0.75458 0.30239 0.39861 0.0
O375 O 0.74315 0.2766 0.40473 0.0
O376 O 0.78174 0.29137 0.35767 0.0
O377 O 0.77157 0.27501 0.37798 0.0
Co378 Co 0.9411 0.52357 0.62433 0.0
O379 O 0.93376 0.54483 0.6338 0.0
O380 O 0.91688 0.52636 0.62052 0.0
C381 C 0.96406 0.53409 0.61076 0.0
O382 O 0.94429 0.50077 0.61227 0.0
Co383 Co 0.97596 0.50778 0.63443 0.0
O384 O 0.97158 0.49237 0.61493 0.0
C385 C 0.94714 0.50673 0.65866 0.0
C386 C 0.9187 0.54101 0.6281 0.0
C387 C 0.95677 0.49077 0.60845 0.0
O388 O 0.93698 0.51218 0.647 0.0
O389 O 0.96327 0.50525 0.6565 0.0
O390 O 0.94903 0.53516 0.60391 0.0
O391 O 0.96455 0.52807 0.62611 0.0
Co392 Co 0.72112 0.29634 0.62125 0.0
O393 O 0.69704 0.29809 0.61735 0.0
O394 O 0.7142 0.31988 0.62331 0.0
C395 C 0.71953 0.27408 0.63929 0.0
O396 O 0.74621 0.29945 0.62701 0.0
Co397 Co 0.74152 0.26412 0.6109 0.0
O398 O 0.75985 0.27434 0.62488 0.0
C399 C 0.73056 0.28856 0.58444 0.0
C400 C 0.69891 0.31427 0.62029 0.0
C401 C 0.75943 0.28999 0.62925 0.0
O402 O 0.72545 0.29906 0.596 0.0
O403 O 0.73626 0.27363 0.58779 0.0
O404 O 0.717 0.28952 0.64473 0.0
O405 O 0.7216 0.27242 0.62301 0.0
Co406 Co 0.94324 0.46279 0.86455 0.0
O407 O 0.93647 0.44201 0.85365 0.0
O408 O 0.91918 0.45902 0.8683 0.0
C409 C 0.96666 0.45218 0.87723 0.0
O410 O 0.94579 0.48474 0.8782 0.0
Co411 Co 0.97751 0.48049 0.85557 0.0
O412 O 0.97324 0.49298 0.87713 0.0
C413 C 0.94845 0.48254 0.83163 0.0
C414 C 0.92136 0.44496 0.85976 0.0
C415 C 0.9583 0.49399 0.88345 0.0
O416 O 0.9386 0.47569 0.84282 0.0
O417 O 0.96451 0.48452 0.83389 0.0
O418 O 0.95172 0.45 0.88403 0.0
O419 O 0.96681 0.45928 0.86234 0.0
Co420 Co 0.77416 0.69161 0.11916 0.0
O421 O 0.79597 0.685 0.11031 0.0
O422 O 0.77773 0.66752 0.12311 0.0
C423 C 0.78312 0.71504 0.13309 0.0
O424 O 0.75094 0.69406 0.13066 0.0
Co425 Co 0.75749 0.72583 0.10812 0.0
O426 O 0.74175 0.72103 0.12723 0.0
C427 C 0.75824 0.69685 0.08415 0.0
C428 C 0.79249 0.66981 0.11588 0.0
C429 C 0.74051 0.70632 0.13402 0.0
O430 O 0.76362 0.68698 0.09611 0.0
O431 O 0.75614 0.71293 0.0861 0.0
O432 O 0.78477 0.70005 0.13992 0.0
O433 O 0.77777 0.71523 0.11749 0.0
Co434 Co 0.54617 0.52419 0.36424 0.0
O435 O 0.54932 0.54633 0.35434 0.0
O436 O 0.56946 0.53141 0.36749 0.0
C437 C 0.5219 0.5301 0.37833 0.0
O438 O 0.54755 0.50161 0.37689 0.0
Co439 Co 0.51494 0.50178 0.35489 0.0
O440 O 0.5225 0.48785 0.37454 0.0
C441 C 0.54318 0.50548 0.33032 0.0
C442 C 0.56491 0.54542 0.35987 0.0
C443 C 0.53729 0.48949 0.38105 0.0
O444 O 0.55211 0.51319 0.34173 0.0
O445 O 0.52765 0.50103 0.3327 0.0
O446 O 0.53658 0.53442 0.38464 0.0
O447 O 0.52221 0.52402 0.36297 0.0
Co448 Co 0.87536 0.71709 0.68898 0.0
O449 O 0.88348 0.69439 0.685 0.0
O450 O 0.87334 0.71168 0.66502 0.0
C451 C 0.85904 0.71058 0.71167 0.0
O452 O 0.86492 0.74085 0.68837 0.0
Co453 Co 0.88394 0.7363 0.72246 0.0
O454 O 0.86661 0.75278 0.71441 0.0
C455 C 0.91048 0.73184 0.69618 0.0
C456 C 0.87933 0.69677 0.66915 0.0
C457 C 0.8612 0.75273 0.69909 0.0
O458 O 0.89923 0.72616 0.68567 0.0
O459 O 0.90714 0.7354 0.71177 0.0
O460 O 0.85342 0.70816 0.69629 0.0
O461 O 0.87478 0.71539 0.71289 0.0
Co462 Co 0.52075 0.62693 0.94492 0.0
O463 O 0.54241 0.63753 0.94097 0.0
O464 O 0.52764 0.62321 0.92155 0.0
C465 C 0.52795 0.61389 0.9694 0.0
O466 O 0.49855 0.61346 0.94457 0.0
Co467 Co 0.49896 0.63651 0.97657 0.0
O468 O 0.48524 0.61644 0.96984 0.0
C469 C 0.50125 0.66037 0.94759 0.0
C470 C 0.54146 0.63144 0.9256 0.0
C471 C 0.48671 0.60946 0.95524 0.0
O472 O 0.50883 0.64887 0.93866 0.0
O473 O 0.49744 0.65834 0.96334 0.0
O474 O 0.53201 0.60724 0.95479 0.0
O475 O 0.5212 0.62895 0.96882 0.0
Co476 Co 0.61501 0.27906 0.18945 0.0
O477 O 0.60404 0.29929 0.18123 0.0
O478 O 0.61832 0.2809 0.1651 0.0
C479 C 0.62834 0.29128 0.21174 0.0
O480 O 0.6287 0.25734 0.19348 0.0
Co481 Co 0.60656 0.26424 0.22522 0.0
O482 O 0.62732 0.25042 0.22128 0.0
C483 C 0.58211 0.25995 0.19687 0.0
C484 C 0.60986 0.29511 0.1663 0.0
C485 C 0.63364 0.2485 0.20642 0.0
O486 O 0.59313 0.26589 0.18626 0.0
O487 O 0.58463 0.25939 0.213 0.0
O488 O 0.63474 0.29233 0.19651 0.0
O489 O 0.61336 0.28444 0.21272 0.0
Co490 Co 0.96239 0.35901 0.44744 0.0
O491 O 0.94112 0.34955 0.44009 0.0
O492 O 0.95951 0.36296 0.42325 0.0
C493 C 0.95218 0.37268 0.47048 0.0
O494 O 0.98518 0.37111 0.45081 0.0
Co495 Co 0.97799 0.3482 0.48222 0.0
O496 O 0.99355 0.3676 0.47805 0.0
C497 C 0.97923 0.32449 0.45304 0.0
C498 C 0.94487 0.35537 0.42506 0.0
C499 C 0.99515 0.37453 0.46343 0.0
O500 O 0.97383 0.33637 0.44311 0.0
O501 O 0.98058 0.32632 0.46922 0.0
O502 O 0.95087 0.37941 0.45542 0.0
O503 O 0.95794 0.35721 0.47093 0.0
Co504 Co 0.87495 0.27437 0.79154 0.0
O505 O 0.88711 0.29378 0.80011 0.0
O506 O 0.86984 0.2774 0.81543 0.0
C507 C 0.86511 0.28735 0.76795 0.0
O508 O 0.85958 0.25395 0.78717 0.0
Co509 Co 0.8841 0.25715 0.75716 0.0
O510 O 0.86222 0.2449 0.76012 0.0
C511 C 0.90624 0.25211 0.7873 0.0
C512 C 0.87959 0.29078 0.81457 0.0
C513 C 0.85484 0.24454 0.77459 0.0
O514 O 0.89505 0.25932 0.7969 0.0
O515 O 0.90475 0.25111 0.77106 0.0
O516 O 0.85741 0.28933 0.78248 0.0
O517 O 0.87914 0.27868 0.76832 0.0
Co518 Co 0.96105 0.6239 0.04682 0.0
O519 O 0.9391 0.63081 0.05495 0.0
O520 O 0.96002 0.62096 0.07132 0.0
C521 C 0.95163 0.60788 0.02499 0.0
O522 O 0.98507 0.61483 0.04271 0.0
Co523 Co 0.97314 0.63465 0.01063 0.0
O524 O 0.9917 0.61807 0.01496 0.0
C525 C 0.97171 0.6601 0.03831 0.0
C526 C 0.94445 0.62655 0.07001 0.0
C527 C 0.99488 0.61219 0.02978 0.0
O528 O 0.96941 0.64813 0.04932 0.0
O529 O 0.97204 0.65741 0.0222 0.0
O530 O 0.95216 0.60164 0.04032 0.0
O531 O 0.95514 0.62392 0.02367 0.0
Co532 Co 0.61405 0.72306 0.30021 0.0
O533 O 0.60446 0.70137 0.30599 0.0
O534 O 0.61653 0.71918 0.32444 0.0
C535 C 0.6291 0.71402 0.27753 0.0
O536 O 0.62596 0.74609 0.2988 0.0
Co537 Co 0.60542 0.7404 0.26572 0.0
O538 O 0.62414 0.75611 0.27199 0.0
C539 C 0.57971 0.73956 0.29316 0.0
C540 C 0.60915 0.70462 0.32152 0.0
C541 C 0.63004 0.75688 0.28712 0.0
O542 O 0.591 0.73394 0.30365 0.0
O543 O 0.58264 0.74181 0.27725 0.0
O544 O 0.6351 0.71221 0.29286 0.0
O545 O 0.61364 0.71971 0.2765 0.0
Co546 Co 0.52455 0.36826 0.54897 0.0
O547 O 0.54591 0.35765 0.55403 0.0
O548 O 0.52862 0.36912 0.5733 0.0
C549 C 0.53411 0.38403 0.52701 0.0
O550 O 0.50183 0.38084 0.54823 0.0
Co551 Co 0.50706 0.36186 0.51397 0.0
O552 O 0.49287 0.38156 0.52098 0.0
C553 C 0.50665 0.33497 0.54029 0.0
C554 C 0.5429 0.36137 0.56988 0.0
C555 C 0.49175 0.38633 0.53648 0.0
O556 O 0.51284 0.34552 0.55122 0.0
O557 O 0.50453 0.33867 0.52452 0.0
O558 O 0.53619 0.38928 0.54259 0.0
O559 O 0.52781 0.36889 0.52534 0.0
Co560 Co 0.69364 0.87201 0.71619 0.0
O561 O 0.68705 0.88311 0.69545 0.0
O562 O 0.66953 0.86865 0.71237 0.0
C563 C 0.71689 0.85903 0.70551 0.0
O564 O 0.69591 0.85824 0.7381 0.0
Co565 Co 0.72798 0.88054 0.73393 0.0
O566 O 0.72263 0.8605 0.74828 0.0
C567 C 0.69942 0.90506 0.73549 0.0
C568 C 0.67184 0.87728 0.6984 0.0
C569 C 0.70777 0.85392 0.74861 0.0
O570 O 0.68929 0.89384 0.72911 0.0
O571 O 0.71548 0.90262 0.73721 0.0
O572 O 0.70186 0.85243 0.70335 0.0
O573 O 0.71725 0.87388 0.71269 0.0
Co574 Co 0.19684 0.61564 0.27682 0.0
O575 O 0.18922 0.60342 0.29652 0.0
O576 O 0.17239 0.61798 0.279 0.0
C577 C 0.21881 0.62912 0.28934 0.0
O578 O 0.20036 0.63042 0.25576 0.0
Co579 Co 0.23268 0.60864 0.2614 0.0
O580 O 0.22848 0.63081 0.25001 0.0
C581 C 0.20491 0.5838 0.25612 0.0
C582 C 0.17403 0.60878 0.29271 0.0
C583 C 0.21345 0.63669 0.24806 0.0
O584 O 0.19418 0.59436 0.26265 0.0
O585 O 0.22099 0.58666 0.25549 0.0
O586 O 0.20338 0.63493 0.29095 0.0
O587 O 0.22015 0.61444 0.28191 0.0
Co588 Co 0.62221 0.94422 0.52268 0.0
O589 O 0.63163 0.94002 0.54482 0.0
O590 O 0.62079 0.92016 0.5278 0.0
C591 C 0.60605 0.96659 0.53045 0.0
O592 O 0.61061 0.94382 0.49946 0.0
Co593 Co 0.62933 0.97816 0.50361 0.0
O594 O 0.61182 0.96985 0.48747 0.0
C595 C 0.6564 0.95217 0.50633 0.0
C596 C 0.6276 0.92414 0.54239 0.0
C597 C 0.60656 0.95447 0.48765 0.0
O598 O 0.64555 0.94138 0.51226 0.0
O599 O 0.6527 0.9678 0.50333 0.0
O600 O 0.60071 0.95112 0.53294 0.0
O601 O 0.62147 0.96806 0.52477 0.0
Co602 Co 0.3003 0.37178 0.77366 0.0
O603 O 0.304 0.38027 0.79627 0.0
O604 O 0.32407 0.36928 0.77963 0.0
C605 C 0.27703 0.35636 0.78038 0.0
O606 O 0.30131 0.36079 0.75015 0.0
Co607 Co 0.26751 0.38005 0.75326 0.0
O608 O 0.27559 0.36204 0.73758 0.0
C609 C 0.29432 0.40626 0.75703 0.0
C610 C 0.31977 0.37558 0.79436 0.0
C611 C 0.29093 0.35673 0.7381 0.0
O612 O 0.30434 0.39535 0.76411 0.0
O613 O 0.27894 0.40288 0.75273 0.0
O614 O 0.29221 0.35029 0.78302 0.0
O615 O 0.27633 0.3719 0.77489 0.0
Co616 Co 0.36508 0.54468 0.52578 0.0
O617 O 0.35558 0.55431 0.54612 0.0
O618 O 0.36997 0.56886 0.52656 0.0
C619 C 0.37753 0.52222 0.53856 0.0
O620 O 0.37745 0.53893 0.50363 0.0
Co621 Co 0.35408 0.50892 0.51296 0.0
O622 O 0.3744 0.51096 0.4981 0.0
C623 C 0.33107 0.53846 0.50829 0.0
C624 C 0.36214 0.56868 0.54118 0.0
C625 C 0.38133 0.52537 0.49518 0.0
O626 O 0.34282 0.54867 0.51351 0.0
O627 O 0.33274 0.52221 0.5082 0.0
O628 O 0.38499 0.537 0.53836 0.0
O629 O 0.36224 0.5218 0.53241 0.0
Co630 Co 0.79785 0.11975 0.21455 0.0
O631 O 0.80516 0.10954 0.19361 0.0
O632 O 0.82223 0.12263 0.21206 0.0
C633 C 0.77541 0.13402 0.20385 0.0
O634 O 0.79462 0.1324 0.23705 0.0
Co635 Co 0.76254 0.11046 0.22991 0.0
O636 O 0.76697 0.13059 0.2445 0.0
C637 C 0.79075 0.08569 0.23179 0.0
C638 C 0.82038 0.11462 0.19764 0.0
C639 C 0.78184 0.13689 0.24638 0.0
O640 O 0.80117 0.09718 0.22646 0.0
O641 O 0.77463 0.08811 0.23291 0.0
O642 O 0.79071 0.14022 0.20254 0.0
O643 O 0.77442 0.11868 0.20985 0.0
Co644 Co 0.62648 0.04833 0.96828 0.0
O645 O 0.6377 0.05642 0.94814 0.0
O646 O 0.62214 0.07244 0.96554 0.0
C647 C 0.61463 0.02517 0.95617 0.0
O648 O 0.6122 0.04434 0.98963 0.0
Co649 Co 0.63574 0.01337 0.98447 0.0
O650 O 0.61425 0.01677 -0.00274 0.0
C651 C 0.65902 0.04276 0.98856 0.0
C652 C 0.63095 0.07116 0.95154 0.0
C653 C 0.60733 0.03142 -0.00145 0.0
O654 O 0.64779 0.05281 0.98203 0.0
O655 O 0.65703 0.02657 0.9895 0.0
O656 O 0.60756 0.04006 0.95456 0.0
O657 O 0.62933 0.025 0.96364 0.0
Co658 Co 0.86507 0.94083 0.46073 0.0
O659 O 0.85439 0.93153 0.44086 0.0
O660 O 0.86736 0.91623 0.46085 0.0
C661 C 0.8798 0.96143 0.44728 0.0
O662 O 0.87814 0.94626 0.48258 0.0
Co663 Co 0.85736 0.97811 0.47196 0.0
O664 O 0.87832 0.97481 0.48565 0.0
C665 C 0.8319 0.95107 0.47814 0.0
C666 C 0.85938 0.91672 0.44631 0.0
C667 C 0.88381 0.96002 0.48957 0.0
O668 O 0.84265 0.93965 0.47328 0.0
O669 O 0.83497 0.9671 0.47755 0.0
O670 O 0.88554 0.9459 0.44768 0.0
O671 O 0.8646 0.96356 0.45336 0.0
H672 H 0.25794 0.17068 0.57106 0.0
H673 H 0.25081 0.1607 0.54229 0.0
H674 H 0.23195 0.2108 0.52959 0.0
H675 H 0.23873 0.2208 0.55818 0.0
H676 H 0.2122 0.18339 0.51592 0.0
H677 H 0.2819 0.17706 0.50288 0.0
H678 H 0.27302 0.16515 0.52037 0.0
H679 H 0.27403 0.18799 0.52155 0.0
C680 C 0.25197 0.17948 0.56224 0.0
C681 C 0.24916 0.19663 0.56683 0.0
C682 C 0.24797 0.17376 0.54581 0.0
C683 C 0.24111 0.1851 0.53378 0.0
C684 C 0.23727 0.20186 0.53869 0.0
H685 H 0.24649 0.21809 0.43595 0.0
H686 H 0.24885 0.20881 0.46548 0.0
C687 C 0.24126 0.20759 0.55503 0.0
C688 C 0.23949 0.18043 0.51558 0.0
H689 H 0.26354 0.17714 0.47944 0.0
C690 C 0.22334 0.18151 0.50792 0.0
C691 C 0.25411 0.17806 0.50526 0.0
C692 C 0.27179 0.17706 0.51282 0.0
C693 C 0.22157 0.18155 0.49011 0.0
C694 C 0.23632 0.18039 0.47981 0.0
C695 C 0.25229 0.17798 0.48746 0.0
C696 C 0.23582 0.18482 0.46151 0.0
C697 C 0.20414 0.18423 0.48241 0.0
C698 C 0.22797 0.1742 0.44945 0.0
C699 C 0.2266 0.17947 0.43243 0.0
C700 C 0.233 0.19547 0.42733 0.0
C701 C 0.24131 0.20576 0.43943 0.0
C702 C 0.24274 0.20046 0.45632 0.0
H703 H 0.19409 0.1859 0.49227 0.0
H704 H 0.20423 0.19567 0.47405 0.0
H705 H 0.20074 0.17307 0.47438 0.0
H706 H 0.22266 0.16203 0.45325 0.0
H707 H 0.22012 0.17125 0.42342 0.0
H708 H 0.06862 0.96798 0.67592 0.0
H709 H 0.07845 0.96873 0.70565 0.0
H710 H 0.03271 -0.00436 0.72013 0.0
H711 H 0.02287 0.99513 0.69074 0.0
H712 H 0.06424 0.00955 0.73325 0.0
H713 H 0.05667 0.9398 0.74503 0.0
H714 H 0.06906 0.94679 0.72698 0.0
H715 H 0.04644 0.95018 0.7272 0.0
C716 C 0.06069 0.97412 0.68543 0.0
C717 C 0.0449 0.98144 0.68092 0.0
C718 C 0.06632 0.97447 0.7024 0.0
C719 C 0.05624 0.98215 0.71504 0.0
C720 C 0.04067 0.98967 0.71052 0.0
H721 H 0.02445 0.98125 0.81331 0.0
H722 H 0.03365 0.97516 0.78435 0.0
C723 C 0.03504 0.98931 0.69368 0.0
C724 C 0.06137 0.98228 0.73319 0.0
H725 H 0.06032 0.95744 0.76889 0.0
C726 C 0.06387 -0.00186 0.74107 0.0
C727 C 0.06085 0.96733 0.74322 0.0
C728 C 0.05806 0.95001 0.7353 0.0
C729 C 0.06444 -0.00036 0.75889 0.0
C730 C 0.06277 0.98479 0.76902 0.0
C731 C 0.06165 0.96877 0.76106 0.0
C732 C 0.05885 0.98598 0.78746 0.0
C733 C 0.06535 0.01724 0.76669 0.0
C734 C 0.07021 0.99352 0.79906 0.0
C735 C 0.0649 -0.00278 0.81572 0.0
C736 C 0.04818 0.99333 0.821 0.0
C737 C 0.03733 0.98465 0.80966 0.0
C738 C 0.04261 0.98103 0.79308 0.0
H739 H 0.06433 0.02749 0.75697 0.0
H740 H 0.05498 0.019 0.77618 0.0
H741 H 0.07771 0.01877 0.77341 0.0
H742 H 0.08292 -0.00285 0.79504 0.0
H743 H 0.07365 0.00377 0.82417 0.0
H744 H 0.22468 0.78269 0.91971 0.0
H745 H 0.21642 0.7891 0.94907 0.0
H746 H 0.26287 0.81792 0.95578 0.0
H747 H 0.27057 0.81241 0.92603 0.0
H748 H 0.23206 0.77753 0.97458 0.0
H749 H 0.23177 0.84747 0.98235 0.0
H750 H 0.23223 0.83747 0.96161 0.0
H751 H 0.25168 0.84057 0.9735 0.0
C752 C 0.23286 0.79079 0.92735 0.0
C753 C 0.24826 0.79703 0.9207 0.0
C754 C 0.22815 0.79447 0.94411 0.0
C755 C 0.23895 0.8041 0.9547 0.0
C756 C 0.25406 0.81089 0.94782 0.0
H757 H 0.25236 0.78122 0.05994 0.0
H758 H 0.25466 0.78637 0.02934 0.0
C759 C 0.25854 0.8076 0.93085 0.0
C760 C 0.23564 0.8048 0.97336 0.0
H761 H 0.23586 0.83096 0.00828 0.0
C762 C 0.2326 0.78931 0.98183 0.0
C763 C 0.23613 0.82012 0.98294 0.0
C764 C 0.23794 0.83735 0.97457 0.0
C765 C 0.23067 0.7886 -0.00045 0.0
C766 C 0.23255 0.80371 0.00925 0.0
C767 C 0.23482 0.81934 0.00083 0.0
C768 C 0.23275 0.80314 0.02813 0.0
C769 C 0.22667 0.7716 0.00769 0.0
C770 C 0.22039 0.81183 0.03777 0.0
C771 C 0.21928 0.80917 0.05542 0.0
C772 C 0.23041 0.79768 0.06351 0.0
C773 C 0.24344 0.78992 0.05396 0.0
C774 C 0.24472 0.79281 0.03648 0.0
H775 H 0.22031 0.76285 -0.00147 0.0
H776 H 0.23873 0.76545 0.01182 0.0
H777 H 0.2183 0.77314 0.01901 0.0
H778 H 0.21113 0.81998 0.03156 0.0
H779 H 0.20914 0.81532 0.06253 0.0
H780 H 0.41527 0.98039 0.32053 0.0
H781 H 0.40463 0.98706 0.29187 0.0
H782 H 0.45264 0.0109 0.27957 0.0
H783 H 0.46326 0.0046 0.30802 0.0
H784 H 0.42359 0.02837 0.26647 0.0
H785 H 0.42345 0.95875 0.25155 0.0
H786 H 0.41084 0.96613 0.26925 0.0
H787 H 0.43368 0.96701 0.27043 0.0
C788 C 0.42345 0.98732 0.31181 0.0
C789 C 0.44023 0.99172 0.31649 0.0
C790 C 0.41735 0.99106 0.29544 0.0
C791 C 0.42794 -0.00075 0.28356 0.0
C792 C 0.44427 0.00455 0.28856 0.0
H793 H 0.46336 -0.00073 0.1873 0.0
H794 H 0.45339 -0.00392 0.2165 0.0
C795 C 0.45036 0.00082 0.30482 0.0
C796 C 0.4231 0.00095 0.2654 0.0
H797 H 0.42238 0.97768 0.22861 0.0
C798 C 0.42277 0.01733 0.25817 0.0
C799 C 0.42209 0.98646 0.25467 0.0
C800 C 0.42259 0.96856 0.26175 0.0
C801 C 0.42286 0.01958 0.24041 0.0
C802 C 0.42321 0.00507 0.22972 0.0
C803 C 0.42207 0.98874 0.23693 0.0
C804 C 0.42827 0.00641 0.21163 0.0
C805 C 0.42409 0.03737 0.23317 0.0
C806 C 0.41733 0.01313 0.19917 0.0
C807 C 0.423 0.01497 0.18231 0.0
C808 C 0.43973 0.0102 0.17778 0.0
C809 C 0.45046 0.00319 0.19032 0.0
C810 C 0.44476 0.00128 0.20703 0.0
H811 H 0.42407 0.0473 0.24328 0.0
H812 H 0.43596 0.03864 0.22555 0.0
H813 H 0.41316 0.03974 0.2245 0.0
H814 H 0.40452 0.01708 0.20253 0.0
H815 H 0.41444 0.02043 0.17295 0.0
H816 H 0.56826 0.26449 0.16492 0.0
H817 H 0.53937 0.25681 0.15559 0.0
H818 H 0.52942 0.23443 0.20483 0.0
H819 H 0.55806 0.24177 0.21417 0.0
H820 H 0.51682 0.21509 0.17638 0.0
H821 H 0.49786 0.28369 0.17475 0.0
H822 H 0.51585 0.27694 0.16219 0.0
H823 H 0.51726 0.2768 0.18503 0.0
C824 C 0.55999 0.25771 0.17367 0.0
C825 C 0.56542 0.25393 0.19037 0.0
C826 C 0.54349 0.2534 0.16832 0.0
C827 C 0.53225 0.24522 0.1796 0.0
C828 C 0.53792 0.24074 0.19594 0.0
H829 H 0.43676 0.24022 0.21707 0.0
H830 H 0.46536 0.24547 0.20629 0.0
C831 C 0.55429 0.24506 0.20129 0.0
C832 C 0.51411 0.24238 0.17528 0.0
H833 H 0.47601 0.26342 0.17486 0.0
C834 C 0.50786 0.2256 0.17549 0.0
C835 C 0.50254 0.25618 0.17419 0.0
C836 C 0.50859 0.27446 0.17408 0.0
C837 C 0.49028 0.2223 0.17603 0.0
C838 C 0.47875 0.23616 0.17626 0.0
C839 C 0.48496 0.25286 0.17462 0.0
C840 C 0.46086 0.23384 0.18168 0.0
C841 C 0.48417 0.20415 0.17785 0.0
C842 C 0.44877 0.22574 0.17126 0.0
C843 C 0.43226 0.22269 0.17741 0.0
C844 C 0.42772 0.22761 0.19409 0.0
C845 C 0.43982 0.2361 0.20423 0.0
C846 C 0.45617 0.23921 0.19806 0.0
H847 H 0.49488 0.19486 0.17816 0.0
H848 H 0.47661 0.20277 0.18976 0.0
H849 H 0.47571 0.20088 0.16699 0.0
H850 H 0.45218 0.22158 0.15853 0.0
H851 H 0.42322 0.21613 0.16928 0.0
H852 H -0.00278 0.29881 0.46807 0.0
H853 H 0.00218 0.27018 0.45718 0.0
H854 H 0.97617 0.28309 0.41046 0.0
H855 H 0.97099 0.31199 0.42135 0.0
H856 H 0.96405 0.25348 0.4257 0.0
H857 H 0.03419 0.25095 0.42091 0.0
H858 H 0.02771 0.25952 0.44111 0.0
H859 H 0.02256 0.27084 0.42179 0.0
C860 C 0.99272 0.2957 0.45538 0.0
C861 C 0.98365 0.30769 0.44562 0.0
C862 C -0.00427 0.27935 0.4491 0.0
C863 C 0.9898 0.27461 0.4329 0.0
C864 C 0.98103 0.28659 0.42292 0.0
H865 H 0.01598 0.16667 0.4191 0.0
H866 H 0.0104 0.19578 0.4091 0.0
C867 C 0.9781 0.30308 0.42917 0.0
C868 C 0.99131 0.25658 0.42749 0.0
H869 H 0.01999 0.22392 0.42704 0.0
C870 C 0.9763 0.24704 0.42548 0.0
C871 C 0.00728 0.24824 0.42681 0.0
C872 C 0.02384 0.25798 0.42758 0.0
C873 C 0.97681 0.22917 0.42461 0.0
C874 C 0.99269 0.22074 0.42604 0.0
C875 C 0.00777 0.23037 0.42621 0.0
C876 C 0.99385 0.20235 0.4302 0.0
C877 C 0.96027 0.21949 0.423 0.0
C878 C 0.98625 0.19636 0.44525 0.0
C879 C 0.98945 0.17987 0.45102 0.0
C880 C 0.00042 0.16899 0.4419 0.0
C881 C 0.00742 0.17471 0.42639 0.0
C882 C 0.00427 0.19133 0.42066 0.0
H883 H 0.95072 0.22697 0.41568 0.0
H884 H 0.96218 0.20698 0.41662 0.0
H885 H 0.95494 0.21721 0.43591 0.0
H886 H 0.9785 0.20475 0.45305 0.0
H887 H 0.98379 0.17586 0.46298 0.0
H888 H 0.06199 0.73481 0.71586 0.0
H889 H 0.0329 0.72853 0.70712 0.0
H890 H 0.04264 0.75076 0.65776 0.0
H891 H 0.07188 0.75737 0.66648 0.0
H892 H 0.01471 0.76435 0.67324 0.0
H893 H 0.01044 0.69413 0.67579 0.0
H894 H 0.01978 0.70244 0.69493 0.0
H895 H 0.03061 0.70524 0.67485 0.0
C896 C 0.05811 0.73812 0.70303 0.0
C897 C 0.06928 0.74671 0.69192 0.0
C898 C 0.04148 0.73434 0.69798 0.0
C899 C 0.03567 0.73894 0.6817 0.0
C900 C 0.04693 0.74695 0.67032 0.0
H901 H 0.92581 0.71803 0.66781 0.0
H902 H 0.95602 0.72004 0.65974 0.0
C903 C 0.06364 0.75071 0.67535 0.0
C904 C 0.01729 0.73732 0.67761 0.0
H905 H 0.98389 0.70961 0.68081 0.0
C906 C 0.00801 0.75231 0.67444 0.0
C907 C 0.00855 0.72159 0.67891 0.0
C908 C 0.01791 0.70493 0.68112 0.0
C909 C 0.99014 0.75218 0.67402 0.0
C910 C 0.98138 0.73672 0.67704 0.0
C911 C 0.99065 0.7215 0.67872 0.0
C912 C 0.96289 0.73647 0.68081 0.0
C913 C 0.98076 0.76872 0.67108 0.0
C914 C 0.95685 0.74501 0.69532 0.0
C915 C 0.93975 0.74382 0.70001 0.0
C916 C 0.92829 0.73404 0.69028 0.0
C917 C 0.93429 0.72576 0.67551 0.0
C918 C 0.95152 0.72685 0.67089 0.0
H919 H 0.98866 0.77786 0.66367 0.0
H920 H 0.96857 0.76655 0.6642 0.0
H921 H 0.97781 0.77469 0.68358 0.0
H922 H 0.96549 0.75223 0.70333 0.0
H923 H 0.93558 0.75037 0.71144 0.0
H924 H 0.50784 0.80588 0.95951 0.0
H925 H 0.50992 0.77723 0.94792 0.0
H926 H 0.47725 0.79145 0.906 0.0
H927 H 0.47486 0.82038 0.91773 0.0
H928 H 0.46609 0.76304 0.92199 0.0
H929 H 0.53446 0.75518 0.90845 0.0
H930 H 0.53189 0.76406 0.92936 0.0
H931 H 0.52475 0.77594 0.911 0.0
C932 C 0.5013 0.80308 0.94767 0.0
C933 C 0.4911 0.81542 0.93961 0.0
C934 C 0.50268 0.7867 0.94093 0.0
C935 C 0.494 0.78227 0.92592 0.0
C936 C 0.48421 0.79468 0.91749 0.0
H937 H 0.51112 0.67224 0.91606 0.0
H938 H 0.50705 0.70105 0.90461 0.0
C939 C 0.48288 0.81118 0.92421 0.0
C940 C 0.49354 0.76413 0.92063 0.0
H941 H 0.51956 0.72938 0.91854 0.0
C942 C 0.47776 0.7557 0.92068 0.0
C943 C 0.50867 0.75455 0.91841 0.0
C944 C 0.52586 0.76298 0.9166 0.0
C945 C 0.47687 0.73783 0.92061 0.0
C946 C 0.49217 0.72825 0.92087 0.0
C947 C 0.50782 0.73669 0.91874 0.0
C948 C 0.49246 0.71012 0.92622 0.0
C949 C 0.45958 0.72942 0.92113 0.0
C950 C 0.48555 0.70565 0.94211 0.0
C951 C 0.48785 0.6893 0.94868 0.0
C952 C 0.4973 0.67705 0.9396 0.0
C953 C 0.50376 0.68135 0.92339 0.0
C954 C 0.50144 0.6978 0.91681 0.0
H955 H 0.45005 0.73709 0.91397 0.0
H956 H 0.45996 0.71635 0.91569 0.0
H957 H 0.45517 0.72865 0.93457 0.0
H958 H 0.47902 0.71504 0.94986 0.0
H959 H 0.48266 0.68648 0.96117 0.0
H960 H 0.55526 0.75907 0.27807 0.0
H961 H 0.52559 0.76231 0.28667 0.0
H962 H 0.53467 0.73094 0.33093 0.0
H963 H 0.56461 0.72756 0.32237 0.0
H964 H 0.50693 0.72037 0.31065 0.0
H965 H 0.50231 0.78916 0.32518 0.0
H966 H 0.51319 0.78543 0.30538 0.0
H967 H 0.52239 0.77782 0.325 0.0
C968 C 0.55106 0.75305 0.28978 0.0
C969 C 0.56229 0.74302 0.29951 0.0
C970 C 0.53412 0.75505 0.29476 0.0
C971 C 0.52802 0.74708 0.30956 0.0
C972 C 0.53922 0.73735 0.31956 0.0
H973 H 0.41851 0.76877 0.31911 0.0
H974 H 0.44735 0.7628 0.32962 0.0
C975 C 0.5563 0.73547 0.31467 0.0
C976 C 0.50954 0.74761 0.31329 0.0
H977 H 0.47631 0.77558 0.31509 0.0
C978 C 0.50022 0.73238 0.31211 0.0
C979 C 0.50081 0.76323 0.31552 0.0
C980 C 0.51022 0.77981 0.31803 0.0
C981 C 0.48234 0.73257 0.31145 0.0
C982 C 0.47369 0.74841 0.31174 0.0
C983 C 0.48296 0.76345 0.31461 0.0
C984 C 0.45559 0.74995 0.30661 0.0
C985 C 0.47294 0.71589 0.30967 0.0
C986 C 0.45068 0.74465 0.29025 0.0
C987 C 0.43433 0.74807 0.28419 0.0
C988 C 0.42253 0.757 0.29434 0.0
C989 C 0.42728 0.76184 0.31097 0.0
C990 C 0.44373 0.75844 0.31701 0.0
H991 H 0.48009 0.70534 0.31586 0.0
H992 H 0.45998 0.71661 0.31536 0.0
H993 H 0.47166 0.7127 0.29593 0.0
H994 H 0.45974 0.73847 0.28184 0.0
H995 H 0.43113 0.74412 0.27135 0.0
H996 H 0.48947 0.31046 0.52247 0.0
H997 H 0.48395 0.28112 0.53102 0.0
H998 H 0.50817 0.29038 0.57953 0.0
H999 H 0.51394 0.3199 0.57104 0.0
H1000 H 0.52039 0.26157 0.5627 0.0
H1001 H 0.44994 0.26071 0.56488 0.0
H1002 H 0.45771 0.27 0.54547 0.0
H1003 H 0.46212 0.28028 0.56554 0.0
C1004 C 0.49347 0.30638 0.53505 0.0
C1005 C 0.50216 0.31756 0.54606 0.0
C1006 C 0.49016 0.28962 0.53997 0.0
C1007 C 0.49539 0.28369 0.55602 0.0
C1008 C 0.50387 0.29481 0.56717 0.0
H1009 H 0.46812 0.17573 0.57091 0.0
H1010 H 0.47327 0.20546 0.57933 0.0
C1011 C 0.50714 0.31166 0.56228 0.0
C1012 C 0.49328 0.26544 0.56027 0.0
H1013 H 0.46376 0.23353 0.5595 0.0
C1014 C 0.50798 0.25546 0.56244 0.0
C1015 C 0.47708 0.25752 0.56024 0.0
C1016 C 0.46081 0.26773 0.55909 0.0
C1017 C 0.50698 0.23761 0.56309 0.0
C1018 C 0.49091 0.22964 0.56132 0.0
C1019 C 0.4761 0.23967 0.56067 0.0
C1020 C 0.48936 0.2112 0.55766 0.0
C1021 C 0.5232 0.22744 0.56494 0.0
C1022 C 0.49672 0.20466 0.54273 0.0
C1023 C 0.49373 0.18784 0.53784 0.0
C1024 C 0.48327 0.17719 0.54777 0.0
C1025 C 0.47631 0.1836 0.56303 0.0
C1026 C 0.47922 0.20055 0.56786 0.0
H1027 H 0.53309 0.23481 0.57191 0.0
H1028 H 0.52089 0.21525 0.57179 0.0
H1029 H 0.52831 0.22444 0.55208 0.0
H1030 H 0.50428 0.21277 0.53447 0.0
H1031 H 0.49935 0.18332 0.52604 0.0
H1032 H 0.93124 0.23326 0.77205 0.0
H1033 H 0.95929 0.22655 0.7833 0.0
H1034 H 0.94573 0.24938 0.83152 0.0
H1035 H 0.91752 0.25653 0.8202 0.0
H1036 H 0.9743 0.26276 0.81911 0.0
H1037 H 0.98036 0.19293 0.81559 0.0
H1038 H 0.97237 0.20081 0.7957 0.0
H1039 H 0.95988 0.20351 0.81485 0.0
C1040 C 0.93402 0.23658 0.78517 0.0
C1041 C 0.92215 0.24561 0.79515 0.0
C1042 C 0.95006 0.23252 0.79168 0.0
C1043 C 0.95455 0.23722 0.80835 0.0
C1044 C 0.94246 0.24549 0.81867 0.0
H1045 H 0.0648 0.21852 0.82143 0.0
H1046 H 0.03482 0.21913 0.83053 0.0
C1047 C 0.92635 0.24958 0.81216 0.0
C1048 C 0.97261 0.23581 0.81375 0.0
H1049 H 0.00685 0.20916 0.81054 0.0
C1050 C 0.98135 0.25092 0.81777 0.0
C1051 C 0.98182 0.22035 0.81239 0.0
C1052 C 0.97304 0.20348 0.80959 0.0
C1053 C -0.00081 0.25128 0.81863 0.0
C1054 C 0.00848 0.23623 0.81509 0.0
C1055 C -0.00029 0.22077 0.81292 0.0
C1056 C 0.02686 0.2368 0.81089 0.0
C1057 C 0.00798 0.26797 0.82239 0.0
C1058 C 0.03222 0.24645 0.79682 0.0
C1059 C 0.04918 0.24607 0.79156 0.0
C1060 C 0.06119 0.23597 0.80022 0.0
C1061 C 0.05588 0.22652 0.81455 0.0
C1062 C 0.03878 0.22682 0.81975 0.0
H1063 H -0.00011 0.27626 0.83057 0.0
H1064 H 0.02043 0.26592 0.82882 0.0
H1065 H 0.01028 0.27486 0.81023 0.0
H1066 H 0.02314 0.25393 0.78956 0.0
H1067 H 0.05279 0.25351 0.7805 0.0
H1068 H 0.97562 0.68855 0.01874 0.0
H1069 H 0.97918 0.71787 0.02812 0.0
H1070 H 0.97654 0.70186 0.08064 0.0
H1071 H 0.97289 0.6721 0.07139 0.0
H1072 H 0.95486 0.73663 0.05288 0.0
H1073 H 0.02292 0.731 0.0729 0.0
H1074 H 0.01414 0.71635 0.05744 0.0
H1075 H 0.00739 0.71523 0.07924 0.0
C1076 C 0.97579 0.69112 0.03231 0.0
C1077 C 0.97401 0.67789 0.0443 0.0
C1078 C 0.97778 0.70794 0.03763 0.0
C1079 C 0.97812 0.71196 0.05502 0.0
C1080 C 0.97635 0.69892 0.06714 0.0
H1081 H 0.01148 0.81787 0.07227 0.0
H1082 H 0.00081 0.7897 0.08085 0.0
C1083 C 0.97428 0.68197 0.06182 0.0
C1084 C 0.98053 0.72995 0.06 0.0
H1085 H 0.01231 0.75859 0.06769 0.0
C1086 C 0.96728 0.74147 0.05662 0.0
C1087 C -0.00333 0.73614 0.06503 0.0
C1088 C 0.01119 0.72413 0.06891 0.0
C1089 C 0.97015 0.75911 0.05681 0.0
C1090 C 0.98677 0.76528 0.06011 0.0
C1091 C -0.00039 0.75381 0.06505 0.0
C1092 C 0.99174 0.78294 0.05569 0.0
C1093 C 0.95557 0.77094 0.05261 0.0
C1094 C 0.99025 0.78837 0.03871 0.0
C1095 C -0.00363 0.80429 0.03376 0.0
C1096 C 0.00422 0.81515 0.04568 0.0
C1097 C 0.00543 0.80984 0.0628 0.0
C1098 C -0.00065 0.79377 0.06773 0.0
H1099 H 0.94317 0.76533 0.05655 0.0
H1100 H 0.95712 0.78353 0.05892 0.0
H1101 H 0.95511 0.77296 0.0386 0.0
H1102 H 0.98481 0.78004 0.02912 0.0
H1103 H 0.99519 0.80793 0.02049 0.0
H1104 H 0.21899 0.43553 0.24971 0.0
H1105 H 0.20915 0.46485 0.25262 0.0
H1106 H 0.16729 0.45454 0.21847 0.0
H1107 H 0.17707 0.42491 0.21546 0.0
H1108 H 0.18769 0.48339 0.20965 0.0
H1109 H 0.16758 0.48596 0.27716 0.0
H1110 H 0.18785 0.47559 0.27467 0.0
H1111 H 0.16909 0.46619 0.26535 0.0
C1112 C 0.20755 0.43938 0.24297 0.0
C1113 C 0.19884 0.42791 0.23231 0.0
C1114 C 0.20186 0.45612 0.24478 0.0
C1115 C 0.18737 0.46177 0.23595 0.0
C1116 C 0.1784 0.45032 0.22553 0.0
H1117 H 0.17284 0.57014 0.25963 0.0
H1118 H 0.16363 0.54132 0.25186 0.0
C1119 C 0.18399 0.43344 0.22385 0.0
C1120 C 0.18291 0.48007 0.23652 0.0
H1121 H 0.17781 0.51254 0.26496 0.0
C1122 C 0.18504 0.48978 0.22164 0.0
C1123 C 0.17913 0.48835 0.25208 0.0
C1124 C 0.1756 0.47845 0.26819 0.0
C1125 C 0.18515 0.50766 0.22228 0.0
C1126 C 0.18331 0.51592 0.23822 0.0
C1127 C 0.17948 0.50621 0.25277 0.0
C1128 C 0.18778 0.53411 0.24061 0.0
C1129 C 0.188 0.51752 0.206 0.0
C1130 C 0.20436 0.53961 0.23675 0.0
C1131 C 0.20968 0.55598 0.24119 0.0
C1132 C 0.19856 0.56719 0.24972 0.0
C1133 C 0.18174 0.56186 0.25304 0.0
C1134 C 0.17643 0.5454 0.24861 0.0
H1135 H 0.18285 0.51047 0.19483 0.0
H1136 H 0.18193 0.53031 0.20655 0.0
H1137 H 0.2019 0.5192 0.20396 0.0
H1138 H 0.21348 0.53097 0.23098 0.0
H1139 H 0.22271 0.55963 0.23841 0.0
H1140 H 0.66907 0.06555 0.77055 0.0
H1141 H 0.65904 0.0364 0.76494 0.0
H1142 H 0.70829 0.02342 0.74417 0.0
H1143 H 0.71834 0.05227 0.7495 0.0
H1144 H 0.6795 0.01094 0.72501 0.0
H1145 H 0.67643 -0.00439 0.79443 0.0
H1146 H 0.66481 0.01382 0.78663 0.0
H1147 H 0.68768 0.01413 0.78667 0.0
C1148 C 0.67768 0.05653 0.76459 0.0
C1149 C 0.69457 0.06121 0.76063 0.0
C1150 C 0.67194 0.03989 0.76147 0.0
C1151 C 0.68299 0.02776 0.7543 0.0
C1152 C 0.69957 0.03261 0.74972 0.0
H1153 H 0.71501 0.92945 0.75472 0.0
H1154 H 0.70552 0.95855 0.75982 0.0
C1155 C 0.70532 0.04912 0.75287 0.0
C1156 C 0.67805 0.00966 0.75238 0.0
H1157 H 0.67559 0.97273 0.77527 0.0
C1158 C 0.67814 0.00257 0.73594 0.0
C1159 C 0.67634 -0.00114 0.76672 0.0
C1160 C 0.67635 0.00587 0.78466 0.0
C1161 C 0.67789 0.98484 0.73351 0.0
C1162 C 0.67736 0.974 0.74792 0.0
C1163 C 0.67594 0.98113 0.76428 0.0
C1164 C 0.68154 0.95565 0.74647 0.0
C1165 C 0.67964 0.97782 0.71566 0.0
C1166 C 0.67096 0.94421 0.73766 0.0
C1167 C 0.6764 0.92745 0.73465 0.0
C1168 C 0.69252 0.92196 0.74039 0.0
C1169 C 0.70263 0.93327 0.74995 0.0
C1170 C 0.69717 0.94991 0.75297 0.0
H1171 H 0.6816 0.98804 0.70603 0.0
H1172 H 0.69055 0.96881 0.71497 0.0
H1173 H 0.66791 0.97069 0.71222 0.0
H1174 H 0.65876 0.94838 0.7327 0.0
H1175 H 0.66828 0.91903 0.72729 0.0
H1176 H 0.17125 0.4197 0.01613 0.0
H1177 H 0.20009 0.40808 0.01227 0.0
H1178 H 0.2145 0.45321 0.98433 0.0
H1179 H 0.18596 0.46475 0.98783 0.0
H1180 H 0.22642 0.42213 0.96973 0.0
H1181 H 0.24108 0.42772 0.03916 0.0
H1182 H 0.22288 0.41532 0.03269 0.0
H1183 H 0.2227 0.43803 0.0299 0.0
C1184 C 0.18053 0.42707 0.00903 0.0
C1185 C 0.17632 0.44326 0.00246 0.0
C1186 C 0.19699 0.42042 0.00688 0.0
C1187 C 0.20943 0.42987 -0.00186 0.0
C1188 C 0.20506 0.4457 0.99109 0.0
H1189 H 0.30594 0.46296 -0.00315 0.0
H1190 H 0.27696 0.45313 0.00155 0.0
C1191 C 0.18873 0.45233 0.99322 0.0
C1192 C 0.22741 0.42421 -0.00292 0.0
H1193 H 0.26408 0.42464 0.02047 0.0
C1194 C 0.23467 0.42213 0.98084 0.0
C1195 C 0.23805 0.42421 0.01164 0.0
C1196 C 0.2309 0.42649 0.02937 0.0
C1197 C 0.25243 0.42163 0.97863 0.0
C1198 C 0.2631 0.42308 0.99309 0.0
C1199 C 0.2558 0.42353 0.00944 0.0
C1200 C 0.28127 0.42784 0.99136 0.0
C1201 C 0.25965 0.42115 0.96079 0.0
C1202 C 0.29341 0.41675 0.98427 0.0
C1203 C 0.31015 0.42239 0.98147 0.0
C1204 C 0.3149 0.4392 0.98569 0.0
C1205 C 0.30275 0.44999 0.99329 0.0
C1206 C 0.28616 0.44437 -0.00391 0.0
H1207 H 0.24952 0.42125 0.95088 0.0
H1208 H 0.26815 0.43228 0.95867 0.0
H1209 H 0.26739 0.40942 0.95913 0.0
H1210 H 0.28988 0.40389 0.98067 0.0
H1211 H 0.31922 0.41373 0.97564 0.0
H1212 H 0.77444 0.06031 0.24914 0.0
H1213 H 0.78431 0.03129 0.25406 0.0
H1214 H 0.83208 0.04301 0.22944 0.0
H1215 H 0.82224 0.07226 0.22429 0.0
H1216 H 0.81636 0.01401 0.21659 0.0
H1217 H 0.81909 0.01071 0.28686 0.0
H1218 H 0.79929 0.01975 0.2798 0.0
H1219 H 0.81899 0.03072 0.27541 0.0
C1220 C 0.78715 0.05686 0.24496 0.0
C1221 C 0.79752 0.06863 0.23628 0.0
C1222 C 0.79284 0.04027 0.24794 0.0
C1223 C 0.80904 0.03508 0.24237 0.0
C1224 C 0.81961 0.04684 0.234 0.0
H1225 H 0.82251 0.9264 0.2669 0.0
H1226 H 0.83216 0.95583 0.26221 0.0
C1227 C 0.81396 0.06354 0.2311 0.0
C1228 C 0.81391 0.01689 0.24383 0.0
H1229 H 0.81338 0.98392 0.27217 0.0
C1230 C 0.81619 0.00746 0.22877 0.0
C1231 C 0.81405 0.00838 0.25972 0.0
C1232 C 0.81291 0.01797 0.27637 0.0
C1233 C 0.81693 0.98958 0.22912 0.0
C1234 C 0.81511 0.98099 0.24488 0.0
C1235 C 0.81453 0.99049 0.26005 0.0
C1236 C 0.81106 0.96256 0.24574 0.0
C1237 C 0.81886 0.98002 0.21253 0.0
C1238 C 0.79612 0.9566 0.23792 0.0
C1239 C 0.79055 0.93995 0.24065 0.0
C1240 C 0.79978 0.92887 0.2513 0.0
C1241 C 0.81517 0.9346 0.25855 0.0
C1242 C 0.82068 0.95139 0.25591 0.0
H1243 H 0.82619 0.98765 0.20309 0.0
H1244 H 0.82539 0.96759 0.21444 0.0
H1245 H 0.80604 0.97758 0.20705 0.0
H1246 H 0.78828 0.96509 0.23034 0.0
H1247 H 0.77868 0.93594 0.23482 0.0
H1248 H 0.67173 0.0752 0.98387 0.0
H1249 H 0.70065 0.08519 0.99048 0.0
H1250 H 0.71242 0.03632 0.01283 0.0
H1251 H 0.68373 0.02642 0.00673 0.0
H1252 H 0.72686 0.06351 0.03065 0.0
H1253 H 0.73971 0.06747 0.96074 0.0
H1254 H 0.72281 0.08042 0.96927 0.0
H1255 H 0.72063 0.05762 0.96898 0.0
C1256 C 0.68039 0.0667 0.99048 0.0
C1257 C 0.67549 0.04989 0.9945 0.0
C1258 C 0.69692 0.07242 0.99417 0.0
C1259 C 0.70875 0.06139 0.00187 0.0
C1260 C 0.70351 0.04504 0.00685 0.0
H1261 H 0.80534 0.02599 0.99408 0.0
H1262 H 0.77595 0.03577 0.99354 0.0
C1263 C 0.68709 0.03935 0.00322 0.0
C1264 C 0.72708 0.06577 0.00328 0.0
H1265 H 0.76316 0.06742 0.97899 0.0
C1266 C 0.73483 0.06487 0.01941 0.0
C1267 C 0.73739 0.06749 0.98856 0.0
C1268 C 0.72982 0.06823 0.97087 0.0
C1269 C 0.75265 0.06424 0.0211 0.0
C1270 C 0.76288 0.0647 0.00627 0.0
C1271 C 0.75519 0.06707 0.9903 0.0
C1272 C 0.78102 0.05952 0.00665 0.0
C1273 C 0.76037 0.06163 0.03853 0.0
C1274 C 0.79364 0.0697 0.0142 0.0
C1275 C 0.81063 0.0641 0.01458 0.0
C1276 C 0.81517 0.04824 0.00741 0.0
C1277 C 0.80239 0.03823 -0.00023 0.0
C1278 C 0.78555 0.04383 -0.00061 0.0
H1279 H 0.75053 0.06053 0.04867 0.0
H1280 H 0.76832 0.0499 0.0386 0.0
H1281 H 0.76881 0.07256 0.04165 0.0
H1282 H 0.79038 0.08192 0.01977 0.0
H1283 H 0.82015 0.07214 0.02054 0.0
H1284 H 0.31672 0.42458 0.77661 0.0
H1285 H 0.32207 0.45544 0.77492 0.0
H1286 H 0.29103 0.4583 0.7296 0.0
H1287 H 0.28519 0.42778 0.73154 0.0
H1288 H 0.33466 0.47884 0.7507 0.0
H1289 H 0.26594 0.48892 0.76328 0.0
H1290 H 0.27602 0.46838 0.76563 0.0
H1291 H 0.26944 0.47576 0.74489 0.0
C1292 C 0.31132 0.43178 0.76612 0.0
C1293 C 0.30031 0.4239 0.75437 0.0
C1294 C 0.31437 0.44937 0.76518 0.0
C1295 C 0.30657 0.45918 0.75239 0.0
C1296 C 0.29679 0.45102 0.73983 0.0
H1297 H 0.31761 0.56208 0.71708 0.0
H1298 H 0.32303 0.5322 0.72435 0.0
C1299 C 0.29351 0.43359 0.74092 0.0
C1300 C 0.30728 0.47805 0.75282 0.0
H1301 H 0.28141 0.51295 0.75298 0.0
C1302 C 0.32307 0.48637 0.75139 0.0
C1303 C 0.2922 0.48785 0.75424 0.0
C1304 C 0.27497 0.47978 0.75729 0.0
C1305 C 0.32406 0.50428 0.75051 0.0
C1306 C 0.30881 0.51399 0.75062 0.0
C1307 C 0.29314 0.5056 0.75276 0.0
C1308 C 0.30841 0.53274 0.74782 0.0
C1309 C 0.3414 0.51254 0.74957 0.0
C1310 C 0.29846 0.5431 0.75857 0.0
C1311 C 0.29488 0.55995 0.7541 0.0
C1312 C 0.30152 0.5669 0.73901 0.0
C1313 C 0.31251 0.55702 0.72888 0.0
C1314 C 0.31571 0.53997 0.73312 0.0
H1315 H 0.35123 0.50449 0.75586 0.0
H1316 H 0.34513 0.51399 0.736 0.0
H1317 H 0.34141 0.52532 0.75567 0.0
H1318 H 0.2927 0.53787 0.77 0.0
H1319 H 0.28644 0.56737 0.76215 0.0
H1320 H 0.30614 0.52221 0.49038 0.0
H1321 H 0.27766 0.53249 0.48389 0.0
H1322 H 0.28962 0.5811 0.50675 0.0
H1323 H 0.31838 0.57076 0.51356 0.0
H1324 H 0.2605 0.56732 0.51954 0.0
H1325 H 0.25737 0.56499 0.44943 0.0
H1326 H 0.26601 0.54539 0.45742 0.0
H1327 H 0.2774 0.56508 0.46085 0.0
C1328 C 0.30288 0.53519 0.49383 0.0
C1329 C 0.31453 0.54562 0.5026 0.0
C1330 C 0.28661 0.54114 0.4899 0.0
C1331 C 0.28159 0.55767 0.49455 0.0
C1332 C 0.29332 0.56836 0.50287 0.0
H1333 H 0.17218 0.56657 0.47048 0.0
H1334 H 0.20157 0.57709 0.47302 0.0
C1335 C 0.30973 0.56243 0.50674 0.0
C1336 C 0.26346 0.56263 0.4926 0.0
H1337 H 0.23051 0.55891 0.46447 0.0
C1338 C 0.25398 0.56601 0.50741 0.0
C1339 C 0.25494 0.56135 0.47674 0.0
C1340 C 0.26453 0.5592 0.4602 0.0
C1341 C 0.2361 0.56625 0.50704 0.0
C1342 C 0.22757 0.56274 0.49154 0.0
C1343 C 0.23705 0.56127 0.47643 0.0
C1344 C 0.20933 0.55784 0.4912 0.0
C1345 C 0.22651 0.56939 0.52342 0.0
C1346 C 0.20403 0.54352 0.50051 0.0
C1347 C 0.1874 0.53744 0.49903 0.0
C1348 C 0.17567 0.5455 0.48812 0.0
C1349 C 0.18088 0.5601 0.47905 0.0
C1350 C 0.19764 0.56614 0.48047 0.0
H1351 H 0.23388 0.57786 0.53208 0.0
H1352 H 0.21384 0.57525 0.52098 0.0
H1353 H 0.22457 0.55707 0.53011 0.0
H1354 H 0.21294 0.53665 0.50853 0.0
H1355 H 0.18386 0.5262 0.50624 0.0
H1356 H 0.73849 0.71038 0.05903 0.0
H1357 H 0.73585 0.70066 0.02967 0.0
H1358 H 0.76809 0.65747 0.04072 0.0
H1359 H 0.77087 0.6672 0.07039 0.0
H1360 H 0.77883 0.67672 0.01267 0.0
H1361 H 0.71042 0.66134 0.0067 0.0
H1362 H 0.71344 0.68158 0.01695 0.0
H1363 H 0.72113 0.66244 0.02709 0.0
C1364 C 0.74481 0.69865 0.05535 0.0
C1365 C 0.75495 0.6896 0.06703 0.0
C1366 C 0.74315 0.69302 0.03857 0.0
C1367 C 0.75157 0.67822 0.03308 0.0
C1368 C 0.76134 0.66883 0.04479 0.0
H1369 H 0.73247 0.66607 0.92333 0.0
H1370 H 0.73786 0.65623 0.95251 0.0
C1371 C 0.76288 0.67439 0.06171 0.0
C1372 C 0.75155 0.67396 0.01468 0.0
H1373 H 0.72447 0.67122 0.98078 0.0
C1374 C 0.767 0.67503 0.0057 0.0
C1375 C 0.73619 0.67141 0.0056 0.0
C1376 C 0.71938 0.66894 0.01462 0.0
C1377 C 0.76727 0.67528 0.9878 0.0
C1378 C 0.75167 0.67471 0.97875 0.0
C1379 C 0.73642 0.67194 0.98771 0.0
C1380 C 0.75057 0.6794 0.96047 0.0
C1381 C 0.78419 0.6769 0.97879 0.0
C1382 C 0.75603 0.69562 0.95525 0.0
C1383 C 0.75295 0.70129 0.93869 0.0
C1384 C 0.74422 0.6909 0.92696 0.0
C1385 C 0.73928 0.67439 0.93201 0.0
C1386 C 0.74233 0.66874 0.94868 0.0
H1387 H 0.79455 0.67086 0.98634 0.0
H1388 H 0.78382 0.67095 0.96593 0.0
H1389 H 0.78738 0.69061 0.97733 0.0
H1390 H 0.76202 0.70424 0.96423 0.0
H1391 H 0.75696 0.71406 0.93526 0.0
H1392 H 0.52987 0.48628 0.30453 0.0
H1393 H 0.54117 0.48233 0.27597 0.0
H1394 H 0.58538 0.51238 0.28893 0.0
H1395 H 0.57399 0.51668 0.31775 0.0
H1396 H 0.57061 0.52315 0.25972 0.0
H1397 H 0.57877 0.45356 0.25587 0.0
H1398 H 0.55802 0.45831 0.26419 0.0
H1399 H 0.57673 0.46459 0.27602 0.0
C1400 C 0.54212 0.49189 0.30148 0.0
C1401 C 0.55097 0.50186 0.31347 0.0
C1402 C 0.54867 0.48944 0.28514 0.0
C1403 C 0.5643 0.49675 0.28041 0.0
C1404 C 0.5734 0.50644 0.2924 0.0
H1405 H 0.57403 0.47328 0.17139 0.0
H1406 H 0.58588 0.4783 0.19995 0.0
C1407 C 0.56685 0.50889 0.30885 0.0
C1408 C 0.56979 0.49578 0.26234 0.0
H1409 H 0.57045 0.46776 0.22909 0.0
C1410 C 0.57113 0.51103 0.25306 0.0
C1411 C 0.57099 0.48 0.25365 0.0
C1412 C 0.57125 0.46321 0.26303 0.0
C1413 C 0.57157 0.51089 0.23518 0.0
C1414 C 0.5703 0.49515 0.22645 0.0
C1415 C 0.57106 0.47988 0.23576 0.0
C1416 C 0.56498 0.49427 0.20835 0.0
C1417 C 0.57242 0.52765 0.22579 0.0
C1418 C 0.5494 0.50166 0.2036 0.0
C1419 C 0.54258 0.49875 0.18746 0.0
C1420 C 0.55116 0.48829 0.17569 0.0
C1421 C 0.56715 0.48145 0.18016 0.0
C1422 C 0.57394 0.4843 0.19645 0.0
H1423 H 0.57999 0.53714 0.23311 0.0
H1424 H 0.57815 0.52613 0.21292 0.0
H1425 H 0.55933 0.53286 0.22434 0.0
H1426 H 0.54202 0.50902 0.21268 0.0
H1427 H 0.53029 0.50428 0.18442 0.0
H1428 H 0.71465 0.28637 0.42203 0.0
H1429 H 0.70546 0.29282 0.45113 0.0
H1430 H 0.75368 0.31768 0.46068 0.0
H1431 H 0.7623 0.31229 0.43122 0.0
H1432 H 0.71842 0.27914 0.47652 0.0
H1433 H 0.72481 0.34796 0.48827 0.0
H1434 H 0.72507 0.33925 0.46695 0.0
H1435 H 0.74441 0.34031 0.4794 0.0
C1436 C 0.723 0.29372 0.43023 0.0
C1437 C 0.73917 0.29882 0.4245 0.0
C1438 C 0.71777 0.2974 0.44685 0.0
C1439 C 0.72879 0.30584 0.4582 0.0
C1440 C 0.74467 0.31164 0.45215 0.0
H1441 H 0.7491 0.27564 0.5582 0.0
H1442 H 0.74618 0.28182 0.52794 0.0
C1443 C 0.74969 0.30841 0.43534 0.0
C1444 C 0.72503 0.30589 0.47681 0.0
H1445 H 0.72955 0.32946 0.51322 0.0
C1446 C 0.72044 0.29033 0.48441 0.0
C1447 C 0.72731 0.32045 0.48729 0.0
C1448 C 0.73047 0.33795 0.47997 0.0
C1449 C 0.71928 0.28862 0.50213 0.0
C1450 C 0.72348 0.30267 0.51263 0.0
C1451 C 0.72677 0.31858 0.50513 0.0
C1452 C 0.72604 0.30044 0.53121 0.0
C1453 C 0.71401 0.2716 0.50944 0.0
C1454 C 0.71631 0.30955 0.54317 0.0
C1455 C 0.71812 0.30619 0.56065 0.0
C1456 C 0.72965 0.29363 0.5663 0.0
C1457 C 0.73988 0.28516 0.55426 0.0
C1458 C 0.7382 0.28864 0.53694 0.0
H1459 H 0.7057 0.2645 0.5004 0.0
H1460 H 0.72555 0.26373 0.51173 0.0
H1461 H 0.70708 0.27315 0.5217 0.0
H1462 H 0.70697 0.31883 0.53898 0.0
H1463 H 0.7101 0.31295 0.56965 0.0
H1464 H 0.96208 0.48767 0.68356 0.0
H1465 H 0.95226 0.48351 0.71271 0.0
H1466 H 0.90672 0.5124 0.70184 0.0
H1467 H 0.91653 0.51674 0.67242 0.0
H1468 H 0.92466 0.52386 0.73047 0.0
H1469 H 0.91476 0.45426 0.73418 0.0
H1470 H 0.93481 0.45923 0.72434 0.0
H1471 H 0.91525 0.46565 0.71414 0.0
C1472 C 0.94984 0.49294 0.68723 0.0
C1473 C 0.94012 0.50259 0.67568 0.0
C1474 C 0.94416 0.4904 0.70388 0.0
C1475 C 0.92864 0.49742 0.70935 0.0
C1476 C 0.91865 0.50672 0.69777 0.0
H1477 H 0.91717 0.47418 0.81827 0.0
H1478 H 0.90691 0.47984 0.78929 0.0
C1479 C 0.92426 0.50916 0.68099 0.0
C1480 C 0.92412 0.49651 0.72764 0.0
H1481 H 0.92314 0.46828 0.76066 0.0
C1482 C 0.92382 0.51173 0.73707 0.0
C1483 C 0.92268 0.48072 0.73621 0.0
C1484 C 0.9217 0.46405 0.72665 0.0
C1485 C 0.92384 0.51147 0.75496 0.0
C1486 C 0.92442 0.49561 0.76352 0.0
C1487 C 0.92296 0.48046 0.75409 0.0
C1488 C 0.92915 0.49432 0.78175 0.0
C1489 C 0.92406 0.52818 0.7645 0.0
C1490 C 0.94498 0.50069 0.78712 0.0
C1491 C 0.9509 0.49744 0.80355 0.0
C1492 C 0.94115 0.48765 0.81498 0.0
C1493 C 0.92498 0.48181 0.80981 0.0
C1494 C 0.91909 0.48502 0.79326 0.0
H1495 H 0.91734 0.53829 0.75719 0.0
H1496 H 0.91802 0.52695 0.77726 0.0
H1497 H 0.93747 0.53236 0.76625 0.0
H1498 H 0.95315 0.50753 0.77833 0.0
H1499 H 0.96339 0.50217 0.8071 0.0
H1500 H 0.80863 0.96986 0.49592 0.0
H1501 H 0.77938 0.96213 0.50291 0.0
H1502 H 0.78698 0.91235 0.48074 0.0
H1503 H 0.81644 0.92001 0.47356 0.0
H1504 H 0.7588 0.93002 0.46781 0.0
H1505 H 0.75779 0.93032 0.53835 0.0
H1506 H 0.76787 0.949 0.52979 0.0
H1507 H 0.7773 0.92836 0.5262 0.0
C1508 C 0.80422 0.95716 0.49274 0.0
C1509 C 0.81485 0.94558 0.4841 0.0
C1510 C 0.78752 0.95271 0.49691 0.0
C1511 C 0.78111 0.93659 0.49256 0.0
C1512 C 0.79178 0.92479 0.48436 0.0
H1513 H 0.67225 0.9231 0.51778 0.0
H1514 H 0.7023 0.91514 0.51394 0.0
C1515 C 0.80859 0.92919 0.48028 0.0
C1516 C 0.76273 0.93306 0.49485 0.0
H1517 H 0.73079 0.93584 0.52428 0.0
C1518 C 0.75269 0.93085 0.4802 0.0
C1519 C 0.7548 0.93396 0.51103 0.0
C1520 C 0.76503 0.93536 0.52725 0.0
C1521 C 0.73484 0.93088 0.48118 0.0
C1522 C 0.72691 0.93331 0.49719 0.0
C1523 C 0.73693 0.93414 0.51199 0.0
C1524 C 0.70852 0.93718 0.49857 0.0
C1525 C 0.7246 0.92902 0.465 0.0
C1526 C 0.70219 0.95222 0.49126 0.0
C1527 C 0.68518 0.95684 0.49349 0.0
C1528 C 0.67412 0.94652 0.50311 0.0
C1529 C 0.68042 0.93127 0.5102 0.0
C1530 C 0.69755 0.92671 0.50806 0.0
H1531 H 0.73194 0.92215 0.455 0.0
H1532 H 0.71248 0.92209 0.46739 0.0
H1533 H 0.72144 0.94189 0.46001 0.0
H1534 H 0.71055 0.96063 0.48416 0.0
H1535 H 0.68078 0.96866 0.48783 0.0
H1536 H 0.23455 0.34989 0.27338 0.0
H1537 H 0.22995 0.32645 0.29325 0.0
H1538 H 0.17925 0.31912 0.27335 0.0
H1539 H 0.18364 0.34267 0.25327 0.0
H1540 H 0.18393 0.31715 0.31162 0.0
H1541 H 0.22754 0.27631 0.27336 0.0
H1542 H 0.23583 0.29694 0.27901 0.0
H1543 H 0.21783 0.29543 0.26493 0.0
C1544 C 0.22231 0.34348 0.2733 0.0
C1545 C 0.20952 0.34806 0.26156 0.0
C1546 C 0.21974 0.33008 0.28468 0.0
C1547 C 0.20437 0.321 0.28455 0.0
C1548 C 0.19122 0.32601 0.27353 0.0
H1549 H 0.19557 0.21916 0.32685 0.0
H1550 H 0.19262 0.24443 0.30883 0.0
C1551 C 0.19378 0.33944 0.26208 0.0
C1552 C 0.2026 0.30557 0.29515 0.0
H1553 H 0.21892 0.2656 0.30025 0.0
C1554 C 0.19145 0.3058 0.30913 0.0
C1555 C 0.2123 0.29079 0.29164 0.0
C1556 C 0.22396 0.2897 0.27634 0.0
C1557 C 0.19013 0.29168 0.32007 0.0
C1558 C 0.20038 0.27715 0.31695 0.0
C1559 C 0.21115 0.2768 0.30266 0.0
C1560 C 0.2005 0.26221 0.32843 0.0
C1561 C 0.17777 0.2924 0.3348 0.0
C1562 C 0.20586 0.26387 0.34543 0.0
C1563 C 0.20753 0.24946 0.35576 0.0
C1564 C 0.20403 0.23316 0.34918 0.0
C1565 C 0.1984 0.23156 0.33225 0.0
C1566 C 0.19667 0.24597 0.32196 0.0
H1567 H 0.16767 0.30212 0.33267 0.0
H1568 H 0.17162 0.27981 0.3369 0.0
H1569 H 0.18477 0.29591 0.34658 0.0
H1570 H 0.20925 0.27625 0.35055 0.0
H1571 H 0.21194 0.25105 0.36876 0.0
H1572 H 0.02008 0.96518 0.57575 0.0
H1573 H 0.99524 0.96317 0.55713 0.0
H1574 H 0.96229 0.96082 0.60119 0.0
H1575 H 0.98718 0.9635 0.61994 0.0
H1576 H 0.9726 0.93799 0.55409 0.0
H1577 H 0.93938 -0.00254 0.57363 0.0
H1578 H 0.96102 0.99282 0.57987 0.0
H1579 H 0.94346 0.98297 0.59086 0.0
C1580 C 0.00753 0.96439 0.58147 0.0
C1581 C 0.00552 0.96456 0.59927 0.0
C1582 C 0.99335 0.96319 0.57082 0.0
C1583 C 0.97689 0.96199 0.57775 0.0
C1584 C 0.97484 0.9621 0.59555 0.0
H1585 H 0.89161 0.93293 0.51035 0.0
H1586 H 0.91331 0.93207 0.53289 0.0
C1587 C 0.98905 0.96356 0.60625 0.0
C1588 C 0.96206 0.96032 0.56616 0.0
H1589 H 0.92502 0.97966 0.55406 0.0
C1590 C 0.96215 0.94707 0.55409 0.0
C1591 C 0.94852 0.97225 0.56616 0.0
C1592 C 0.9481 0.98727 0.57821 0.0
C1593 C 0.94932 0.94567 0.5417 0.0
C1594 C 0.93574 0.95755 0.54174 0.0
C1595 C 0.9354 0.97052 0.55412 0.0
C1596 C 0.92249 0.95772 0.52826 0.0
C1597 C 0.95088 0.93197 0.52826 0.0
C1598 C 0.92021 0.9725 0.51846 0.0
C1599 C 0.90769 0.97313 0.50589 0.0
C1600 C 0.89723 0.95892 0.50274 0.0
C1601 C 0.89959 0.94402 0.51242 0.0
C1602 C 0.91201 0.94349 0.52524 0.0
H1603 H 0.96405 0.92676 0.52752 0.0
H1604 H 0.94218 0.92128 0.53146 0.0
H1605 H 0.94729 0.93693 0.51549 0.0
H1606 H 0.92819 0.9836 0.52052 0.0
H1607 H 0.90629 0.98475 0.49854 0.0
H1608 H 0.27845 0.74293 0.8633 0.0
H1609 H 0.2831 0.71885 0.84396 0.0
H1610 H 0.30661 0.75259 0.80741 0.0
H1611 H 0.30174 0.77675 0.82651 0.0
H1612 H 0.28171 0.73317 0.79338 0.0
H1613 H 0.32577 0.69234 0.83059 0.0
H1614 H 0.30701 0.69825 0.84231 0.0
H1615 H 0.32191 0.71445 0.83585 0.0
C1616 C 0.28479 0.74517 0.85123 0.0
C1617 C 0.28967 0.76171 0.84638 0.0
C1618 C 0.28757 0.73138 0.84026 0.0
C1619 C 0.29544 0.7339 0.82436 0.0
C1620 C 0.30062 0.75037 0.81967 0.0
H1621 H 0.31722 0.65158 0.7511 0.0
H1622 H 0.32096 0.67589 0.7705 0.0
C1623 C 0.29779 0.76415 0.83058 0.0
C1624 C 0.29681 0.7197 0.81199 0.0
H1625 H 0.31152 0.679 0.80695 0.0
C1626 C 0.28842 0.72141 0.79627 0.0
C1627 C 0.30574 0.70446 0.81569 0.0
C1628 C 0.31577 0.70229 0.83196 0.0
C1629 C 0.2881 0.70802 0.78445 0.0
C1630 C 0.29618 0.69244 0.78858 0.0
C1631 C 0.30522 0.69094 0.80394 0.0
C1632 C 0.29433 0.6773 0.77754 0.0
C1633 C 0.2789 0.71054 0.76773 0.0
C1634 C 0.2782 0.66992 0.77544 0.0
C1635 C 0.27601 0.65612 0.76448 0.0
C1636 C 0.28994 0.64935 0.75538 0.0
C1637 C 0.30622 0.65651 0.75786 0.0
C1638 C 0.3084 0.67036 0.76893 0.0
H1639 H 0.27738 0.72429 0.76462 0.0
H1640 H 0.28583 0.7042 0.75711 0.0
H1641 H 0.266 0.7048 0.76861 0.0
H1642 H 0.26724 0.67498 0.78219 0.0
H1643 H 0.2633 0.65093 0.76299 0.0
H1644 H 0.59415 0.00744 0.02013 0.0
H1645 H 0.56947 0.01015 0.03882 0.0
H1646 H 0.56283 0.06238 0.02296 0.0
H1647 H 0.58773 0.05992 0.00423 0.0
H1648 H 0.55971 0.057 0.05876 0.0
H1649 H 0.51998 0.01195 0.02133 0.0
H1650 H 0.54034 0.00343 0.02744 0.0
H1651 H 0.53935 0.02125 0.01303 0.0
C1652 C 0.58753 0.01956 0.0206 0.0
C1653 C 0.59289 0.03344 0.01056 0.0
C1654 C 0.57337 0.02103 0.03126 0.0
C1655 C 0.5642 0.03636 0.03202 0.0
C1656 C 0.56973 0.05041 0.02243 0.0
H1657 H 0.46247 0.043 0.07518 0.0
H1658 H 0.48748 0.04537 0.05673 0.0
C1659 C 0.58394 0.04897 0.01174 0.0
C1660 C 0.54876 0.03756 0.04275 0.0
H1661 H 0.50951 0.01979 0.04872 0.0
C1662 C 0.54866 0.04898 0.05654 0.0
C1663 C 0.53432 0.02722 0.03962 0.0
C1664 C 0.53337 0.01538 0.02446 0.0
C1665 C 0.53462 0.04998 0.06761 0.0
C1666 C 0.5205 0.03909 0.06492 0.0
C1667 C 0.52044 0.02802 0.05085 0.0
C1668 C 0.5056 0.03886 0.07651 0.0
C1669 C 0.53499 0.06277 0.082 0.0
C1670 C 0.50752 0.03442 0.09375 0.0
C1671 C 0.49324 0.03314 0.10436 0.0
C1672 C 0.47682 0.03608 0.09781 0.0
C1673 C 0.47497 0.04066 0.08058 0.0
C1674 C 0.48923 0.04201 0.07003 0.0
H1675 H 0.54426 0.07319 0.07948 0.0
H1676 H 0.52219 0.06848 0.08409 0.0
H1677 H 0.53892 0.05624 0.09392 0.0
H1678 H 0.52001 0.03155 0.09891 0.0
H1679 H 0.49504 0.0295 0.11756 0.0
H1680 H 0.20689 0.77899 0.16796 0.0
H1681 H 0.20672 0.75436 0.18707 0.0
H1682 H 0.20163 0.72071 0.14379 0.0
H1683 H 0.20248 0.74529 0.12455 0.0
H1684 H 0.18379 0.72999 0.19327 0.0
H1685 H 0.24268 0.70084 0.16702 0.0
H1686 H 0.23588 0.72208 0.16141 0.0
H1687 H 0.2264 0.7038 0.15124 0.0
C1688 C 0.20571 0.76634 0.16252 0.0
C1689 C 0.20483 0.764 0.14478 0.0
C1690 C 0.2056 0.75229 0.17345 0.0
C1691 C 0.20448 0.73569 0.16683 0.0
C1692 C 0.20297 0.73338 0.14914 0.0
H1693 H 0.18458 0.64628 0.23088 0.0
H1694 H 0.18151 0.67019 0.21098 0.0
C1695 C 0.20334 0.74741 0.13818 0.0
C1696 C 0.20509 0.72085 0.1785 0.0
H1697 H 0.22718 0.68436 0.18704 0.0
C1698 C 0.19328 0.72001 0.19194 0.0
C1699 C 0.21766 0.708 0.17688 0.0
C1700 C 0.23148 0.70877 0.16347 0.0
C1701 C 0.19371 0.70665 0.20385 0.0
C1702 C 0.20595 0.69353 0.20191 0.0
C1703 C 0.2177 0.69435 0.18841 0.0
C1704 C 0.20744 0.6792 0.21413 0.0
C1705 C 0.18143 0.70708 0.21868 0.0
C1706 C 0.22311 0.67608 0.22217 0.0
C1707 C 0.22499 0.66227 0.23318 0.0
C1708 C 0.21117 0.65135 0.2365 0.0
C1709 C 0.1954 0.65457 0.22863 0.0
C1710 C 0.1936 0.66828 0.21736 0.0
H1711 H 0.17639 0.72013 0.22094 0.0
H1712 H 0.17043 0.69864 0.21585 0.0
H1713 H 0.18761 0.70251 0.23057 0.0
H1714 H 0.23395 0.68435 0.21989 0.0
H1715 H 0.23726 0.66021 0.23919 0.0
H1716 H 0.58459 0.92735 0.48804 0.0
H1717 H 0.56232 0.92085 0.46709 0.0
H1718 H 0.57934 0.96276 0.43583 0.0
H1719 H 0.6015 0.96944 0.45665 0.0
H1720 H 0.53755 0.94797 0.45874 0.0
H1721 H 0.57069 0.92204 0.40169 0.0
H1722 H 0.57956 0.92074 0.42295 0.0
H1723 H 0.58036 0.94047 0.41136 0.0
C1724 C 0.58383 0.93494 0.47653 0.0
C1725 C 0.5947 0.949 0.47406 0.0
C1726 C 0.57113 0.9312 0.46459 0.0
C1727 C 0.56936 0.94123 0.44988 0.0
C1728 C 0.58071 0.95471 0.44698 0.0
H1729 H 0.49812 0.96484 0.37119 0.0
H1730 H 0.52338 0.95933 0.38869 0.0
C1731 C 0.59326 0.9586 0.45897 0.0
C1732 C 0.55428 0.9393 0.4388 0.0
H1733 H 0.54207 0.9316 0.39775 0.0
C1734 C 0.53842 0.94411 0.44547 0.0
C1735 C 0.55565 0.9345 0.4215 0.0
C1736 C 0.57245 0.92901 0.41391 0.0
C1737 C 0.52392 0.94501 0.43509 0.0
C1738 C 0.52525 0.94038 0.41767 0.0
C1739 C 0.54107 0.93508 0.41111 0.0
C1740 C 0.51055 0.94197 0.40592 0.0
C1741 C 0.50758 0.95183 0.44271 0.0
C1742 C 0.49515 0.93356 0.40944 0.0
C1743 C 0.48065 0.937 0.39972 0.0
C1744 C 0.48144 0.94853 0.38604 0.0
C1745 C 0.49714 0.95599 0.38175 0.0
C1746 C 0.51158 0.95281 0.3917 0.0
H1747 H 0.50993 0.95897 0.45473 0.0
H1748 H 0.50091 0.96044 0.43365 0.0
H1749 H 0.49898 0.94102 0.44575 0.0
H1750 H 0.49421 0.92475 0.42003 0.0
H1751 H 0.46875 0.93085 0.4031 0.0
H1752 H 0.28329 0.25162 0.61974 0.0
H1753 H 0.29071 0.27639 0.63708 0.0
H1754 H 0.3202 0.24419 0.67061 0.0
H1755 H 0.31213 0.21925 0.65374 0.0
H1756 H 0.29858 0.262 0.68803 0.0
H1757 H 0.33113 0.30631 0.64408 0.0
H1758 H 0.31099 0.29982 0.63546 0.0
H1759 H 0.32755 0.28419 0.63874 0.0
C1760 C 0.2916 0.24988 0.63063 0.0
C1761 C 0.29698 0.23352 0.63553 0.0
C1762 C 0.296 0.26409 0.64044 0.0
C1763 C 0.30623 0.26221 0.65503 0.0
C1764 C 0.31234 0.24595 0.65938 0.0
H1765 H 0.31959 0.33666 0.73798 0.0
H1766 H 0.32693 0.31439 0.71727 0.0
C1767 C 0.30769 0.23172 0.64977 0.0
C1768 C 0.30852 0.27668 0.667 0.0
H1769 H 0.31785 0.3192 0.66904 0.0
C1770 C 0.30321 0.27439 0.68395 0.0
C1771 C 0.31454 0.29286 0.6617 0.0
C1772 C 0.32154 0.29588 0.64404 0.0
C1773 C 0.30286 0.28802 0.69548 0.0
C1774 C 0.30795 0.30436 0.6899 0.0
C1775 C 0.31392 0.3066 0.67319 0.0
C1776 C 0.30536 0.31941 0.70085 0.0
C1777 C 0.29624 0.2851 0.71333 0.0
C1778 C 0.29107 0.32977 0.69812 0.0
C1779 C 0.28674 0.34235 0.70993 0.0
C1780 C 0.29672 0.34484 0.72464 0.0
C1781 C 0.31161 0.33504 0.72681 0.0
C1782 C 0.31586 0.32235 0.71501 0.0
H1783 H 0.29166 0.27183 0.71528 0.0
H1784 H 0.30654 0.2877 0.72268 0.0
H1785 H 0.28559 0.29403 0.71609 0.0
H1786 H 0.28281 0.32758 0.68726 0.0
H1787 H 0.27529 0.34977 0.70778 0.0
H1788 H 0.90167 0.06967 0.98374 0.0
H1789 H 0.92445 0.07656 0.96357 0.0
H1790 H 0.90685 0.03679 0.9299 0.0
H1791 H 0.88406 0.02985 0.94985 0.0
H1792 H 0.94805 0.05043 0.95704 0.0
H1793 H 0.92092 0.07492 0.8966 0.0
H1794 H 0.90961 0.07599 0.91668 0.0
H1795 H 0.91005 0.05645 0.90466 0.0
C1796 C 0.90229 0.06277 0.97179 0.0
C1797 C 0.8912 0.04904 0.9685 0.0
C1798 C 0.91531 0.06674 0.96028 0.0
C1799 C 0.91726 0.05725 0.94522 0.0
C1800 C 0.90539 0.04447 0.9413 0.0
H1801 H 0.99148 0.02365 0.87429 0.0
H1802 H 0.96585 0.0322 0.88993 0.0
C1803 C 0.89246 0.0404 0.95282 0.0
C1804 C 0.93325 0.05832 0.93532 0.0
H1805 H 0.94886 0.06223 0.89489 0.0
C1806 C 0.94835 0.05338 0.94352 0.0
C1807 C 0.93347 0.06196 0.91768 0.0
C1808 C 0.91766 0.06778 0.9084 0.0
C1809 C 0.96351 0.05098 0.93438 0.0
C1810 C 0.96367 0.05416 0.9166 0.0
C1811 C 0.94871 0.05981 0.90851 0.0
C1812 C 0.9789 0.05041 0.90608 0.0
C1813 C 0.97888 0.04405 0.94371 0.0
C1814 C 0.99464 0.05812 0.9097 0.0
C1815 C 0.00934 0.05298 0.90105 0.0
C1816 C 0.00845 0.04036 0.88836 0.0
C1817 C 0.99254 0.03333 0.8841 0.0
C1818 C 0.97789 0.03826 0.89296 0.0
H1819 H 0.97537 0.03836 0.95622 0.0
H1820 H 0.98548 0.03416 0.93601 0.0
H1821 H 0.98799 0.05458 0.94618 0.0
H1822 H -0.00438 0.06785 0.91946 0.0
H1823 H 0.02141 0.05882 0.90437 0.0
H1824 H 0.37353 0.19265 0.25033 0.0
H1825 H 0.35701 0.18927 0.27666 0.0
H1826 H 0.31046 0.19731 0.24837 0.0
H1827 H 0.32681 0.19985 0.22204 0.0
H1828 H 0.33835 0.21115 0.29248 0.0
H1829 H 0.29649 0.15726 0.27584 0.0
H1830 H 0.31469 0.16298 0.26296 0.0
H1831 H 0.29449 0.17362 0.26003 0.0
C1832 C 0.35975 0.1934 0.24974 0.0
C1833 C 0.35142 0.19637 0.23417 0.0
C1834 C 0.35033 0.19148 0.26476 0.0
C1835 C 0.33245 0.19265 0.26446 0.0
C1836 C 0.32417 0.19571 0.24888 0.0
H1837 H 0.26558 0.23203 0.33933 0.0
H1838 H 0.28741 0.22625 0.31803 0.0
C1839 C 0.33355 0.19733 0.23384 0.0
C1840 C 0.32248 0.19212 0.28054 0.0
H1841 H 0.28582 0.17634 0.29785 0.0
C1842 C 0.32705 0.20329 0.29378 0.0
C1843 C 0.30796 0.18156 0.28251 0.0
C1844 C 0.30327 0.16805 0.26963 0.0
C1845 C 0.31692 0.20496 0.30843 0.0
C1846 C 0.30146 0.1957 0.30956 0.0
C1847 C 0.29748 0.18372 0.29685 0.0
C1848 C 0.2887 0.19911 0.3231 0.0
C1849 C 0.32288 0.21674 0.32244 0.0
C1850 C 0.28165 0.1857 0.33265 0.0
C1851 C 0.2688 0.18892 0.34461 0.0
C1852 C 0.26289 0.20565 0.34729 0.0
C1853 C 0.27005 0.21904 0.33777 0.0
C1854 C 0.28265 0.21577 0.32567 0.0
H1855 H 0.33703 0.21743 0.32282 0.0
H1856 H 0.31806 0.22981 0.31992 0.0
H1857 H 0.31821 0.21255 0.33514 0.0
H1858 H 0.286 0.17271 0.33077 0.0
H1859 H 0.26351 0.17834 0.35174 0.0
H1860 H 0.06416 0.0039 0.59342 0.0
H1861 H 0.07053 0.02397 0.5704 0.0
H1862 H 0.03013 0.05699 0.58782 0.0
H1863 H 0.02362 0.03706 0.61082 0.0
H1864 H 0.04317 0.03078 0.54668 0.0
H1865 H 0.06957 0.09028 0.57459 0.0
H1866 H 0.07097 0.06984 0.58518 0.0
H1867 H 0.05133 0.08163 0.58547 0.0
C1868 C 0.05696 0.01567 0.59268 0.0
C1869 C 0.04325 0.0188 0.60383 0.0
C1870 C 0.06063 0.02711 0.57952 0.0
C1871 C 0.05087 0.04197 0.57751 0.0
C1872 C 0.03798 0.04571 0.58933 0.0
H1873 H 0.02482 0.11538 0.50126 0.0
H1874 H 0.03038 0.09937 0.52748 0.0
C1875 C 0.03419 0.03422 0.60238 0.0
C1876 C 0.05207 0.052 0.56163 0.0
H1877 H 0.05877 0.09211 0.54615 0.0
C1878 C 0.04686 0.04412 0.54646 0.0
C1879 C 0.05664 0.06942 0.56155 0.0
C1880 C 0.06258 0.07831 0.57754 0.0
C1881 C 0.04538 0.05337 0.53126 0.0
C1882 C 0.04979 0.07089 0.53114 0.0
C1883 C 0.05545 0.07868 0.54626 0.0
C1884 C 0.04775 0.08144 0.51562 0.0
C1885 C 0.03823 0.04447 0.51573 0.0
C1886 C 0.056 0.07694 0.50038 0.0
C1887 C 0.05256 0.08583 0.48535 0.0
C1888 C 0.04114 0.09964 0.4854 0.0
C1889 C 0.0336 0.10472 0.50084 0.0
C1890 C 0.03682 0.09564 0.51583 0.0
H1891 H 0.03129 0.0326 0.51918 0.0
H1892 H 0.02936 0.05292 0.50862 0.0
H1893 H 0.04885 0.04088 0.50709 0.0
H1894 H 0.06483 0.06633 0.50004 0.0
H1895 H 0.05876 0.08182 0.47366 0.0
H1896 H 0.15851 0.80714 0.71302 0.0
H1897 H 0.17694 0.81344 0.73738 0.0
H1898 H 0.14532 0.7819 0.76953 0.0
H1899 H 0.12644 0.77613 0.74538 0.0
H1900 H 0.15595 0.81044 0.78608 0.0
H1901 H 0.21081 0.77868 0.75416 0.0
H1902 H 0.20211 0.79637 0.74254 0.0
H1903 H 0.18941 0.77755 0.74584 0.0
C1904 C 0.15541 0.80168 0.72532 0.0
C1905 C 0.1412 0.79094 0.72728 0.0
C1906 C 0.16599 0.80523 0.7392 0.0
C1907 C 0.16274 0.79778 0.75514 0.0
C1908 C 0.14811 0.78769 0.75729 0.0
H1909 H 0.21344 0.77018 0.84527 0.0
H1910 H 0.19365 0.77648 0.82207 0.0
C1911 C 0.13737 0.78435 0.74348 0.0
C1912 C 0.17498 0.7997 0.76938 0.0
H1913 H 0.21575 0.79021 0.78141 0.0
C1914 C 0.16906 0.80616 0.78502 0.0
C1915 C 0.19209 0.79404 0.76796 0.0
C1916 C 0.19898 0.78613 0.75179 0.0
C1917 C 0.1797 0.80672 0.79939 0.0
C1918 C 0.19662 0.80076 0.79799 0.0
C1919 C 0.20276 0.79492 0.78227 0.0
C1920 C 0.20756 0.79852 0.81309 0.0
C1921 C 0.17276 0.81326 0.8161 0.0
C1922 C 0.22185 0.80895 0.81567 0.0
C1923 C 0.23316 0.80547 0.82901 0.0
C1924 C 0.23048 0.7913 0.83969 0.0
C1925 C 0.21592 0.78113 0.83721 0.0
C1926 C 0.20454 0.78475 0.82405 0.0
H1927 H 0.16055 0.82025 0.8144 0.0
H1928 H 0.17048 0.80232 0.82478 0.0
H1929 H 0.18216 0.82183 0.82233 0.0
H1930 H 0.22441 0.81953 0.80716 0.0
H1931 H 0.24431 0.81348 0.83057 0.0
H1932 H 0.475 0.86875 0.00285 0.0
H1933 H 0.4713 0.88391 0.03003 0.0
H1934 H 0.44219 0.92291 0.00442 0.0
H1935 H 0.44596 0.90803 0.97727 0.0
H1936 H 0.48179 0.92078 0.03399 0.0
H1937 H 0.41347 0.90815 0.04815 0.0
H1938 H 0.42624 0.89423 0.03489 0.0
H1939 H 0.41848 0.91408 0.02654 0.0
C1940 C 0.4677 0.88048 0.00307 0.0
C1941 C 0.46081 0.88726 0.98797 0.0
C1942 C 0.46557 0.88907 0.01856 0.0
C1943 C 0.45628 0.90435 0.01918 0.0
C1944 C 0.44917 0.91098 0.00419 0.0
H1945 H 0.43305 0.98721 0.08586 0.0
H1946 H 0.43278 0.96429 0.06463 0.0
C1947 C 0.45145 0.90253 0.9887 0.0
C1948 C 0.45519 0.91428 0.03512 0.0
H1949 H 0.42699 0.92995 0.06435 0.0
C1950 C 0.4699 0.92262 0.04083 0.0
C1951 C 0.43958 0.91672 0.04377 0.0
C1952 C 0.42352 0.90775 0.03815 0.0
C1953 C 0.4693 0.93399 0.05462 0.0
C1954 C 0.45363 0.9366 0.06325 0.0
C1955 C 0.43898 0.92787 0.05777 0.0
C1956 C 0.45208 0.94912 0.07731 0.0
C1957 C 0.48528 0.94373 0.05919 0.0
C1958 C 0.46245 0.94781 0.09183 0.0
C1959 C 0.46283 0.961 0.10378 0.0
C1960 C 0.45252 0.97551 0.10164 0.0
C1961 C 0.44114 0.97618 0.08782 0.0
C1962 C 0.44098 0.9631 0.07569 0.0
H1963 H 0.49477 0.94355 0.04866 0.0
H1964 H 0.48231 0.95722 0.06232 0.0
H1965 H 0.49131 0.93776 0.07052 0.0
H1966 H 0.47072 0.93689 0.09359 0.0
H1967 H 0.47153 0.96003 0.11447 0.0
H1968 H 0.37327 0.7986 0.23822 0.0
H1969 H 0.35793 0.80509 0.21179 0.0
H1970 H 0.31003 0.79985 0.23849 0.0
H1971 H 0.32531 0.79436 0.26499 0.0
H1972 H 0.33878 0.78613 0.19432 0.0
H1973 H 0.2992 0.84115 0.21207 0.0
H1974 H 0.31648 0.83388 0.22541 0.0
H1975 H 0.29549 0.82457 0.2273 0.0
C1976 C 0.35946 0.79913 0.23844 0.0
C1977 C 0.35044 0.79606 0.25361 0.0
C1978 C 0.35071 0.80287 0.22337 0.0
C1979 C 0.33279 0.80336 0.22317 0.0
C1980 C 0.32383 0.80024 0.23838 0.0
H1981 H 0.26536 0.76562 0.15082 0.0
H1982 H 0.28806 0.77213 0.17082 0.0
C1983 C 0.33257 0.79689 0.2535 0.0
C1984 C 0.32337 0.80521 0.20685 0.0
H1985 H 0.28714 0.82241 0.18999 0.0
C1986 C 0.32773 0.79439 0.19325 0.0
C1987 C 0.30926 0.81635 0.20506 0.0
C1988 C 0.30501 0.82977 0.2182 0.0
C1989 C 0.31754 0.79334 0.17862 0.0
C1990 C 0.3022 0.80282 0.17787 0.0
C1991 C 0.29865 0.81477 0.19074 0.0
C1992 C 0.28887 0.79913 0.16499 0.0
C1993 C 0.32317 0.78177 0.16429 0.0
C1994 C 0.28122 0.81225 0.15548 0.0
C1995 C 0.26786 0.8086 0.14421 0.0
C1996 C 0.26201 0.79175 0.14224 0.0
C1997 C 0.26974 0.77869 0.15179 0.0
C1998 C 0.28286 0.78237 0.16315 0.0
H1999 H 0.33732 0.78128 0.16347 0.0
H2000 H 0.31864 0.76861 0.16686 0.0
H2001 H 0.31805 0.78602 0.15179 0.0
H2002 H 0.28552 0.82531 0.15686 0.0
H2003 H 0.26212 0.81894 0.13707 0.0
H2004 H 0.48302 0.019 0.39616 0.0
H2005 H 0.47993 0.03864 0.42009 0.0
H2006 H 0.4284 0.02118 0.4281 0.0
H2007 H 0.43124 0.00154 0.404 0.0
H2008 H 0.43244 0.05724 0.42933 0.0
H2009 H 0.47926 0.02351 0.4704 0.0
H2010 H 0.48726 0.02909 0.44967 0.0
H2011 H 0.47016 0.01393 0.45154 0.0
C2012 C 0.47099 0.01931 0.40295 0.0
C2013 C 0.4574 0.00859 0.3982 0.0
C2014 C 0.46929 0.03051 0.41668 0.0
C2015 C 0.45404 0.03113 0.42598 0.0
C2016 C 0.4403 0.02079 0.42108 0.0
H2017 H 0.44324 0.07735 0.52577 0.0
H2018 H 0.44201 0.05823 0.50118 0.0
C2019 C 0.44197 0.00957 0.40732 0.0
C2020 C 0.45253 0.04252 0.44091 0.0
H2021 H 0.46981 0.05068 0.47998 0.0
C2022 C 0.44053 0.05579 0.44046 0.0
C2023 C 0.46299 0.04041 0.45545 0.0
C2024 C 0.47554 0.02588 0.45693 0.0
C2025 C 0.43898 0.0673 0.45408 0.0
C2026 C 0.44985 0.06554 0.46835 0.0
C2027 C 0.46159 0.05204 0.46894 0.0
C2028 C 0.44934 0.07752 0.48287 0.0
C2029 C 0.42565 0.08116 0.45319 0.0
C2030 C 0.45384 0.0947 0.48066 0.0
C2031 C 0.45457 0.10567 0.49469 0.0
C2032 C 0.4509 0.09957 0.51113 0.0
C2033 C 0.44613 0.08242 0.51325 0.0
C2034 C 0.44542 0.07148 0.49924 0.0
H2035 H 0.41573 0.07829 0.44349 0.0
H2036 H 0.41936 0.08293 0.46576 0.0
H2037 H 0.43186 0.09337 0.44964 0.0
H2038 H 0.45721 0.09951 0.46815 0.0
H2039 H 0.45834 0.11881 0.4927 0.0
H2040 H 0.1656 0.21902 0.77582 0.0
H2041 H 0.18473 0.21943 0.75126 0.0
H2042 H 0.14143 0.21641 0.7174 0.0
H2043 H 0.12215 0.21678 0.74202 0.0
H2044 H 0.18992 0.19605 0.72796 0.0
H2045 H 0.16716 0.25493 0.69614 0.0
H2046 H 0.16065 0.24915 0.71743 0.0
H2047 H 0.15052 0.23954 0.6992 0.0
C2048 C 0.16016 0.21858 0.76312 0.0
C2049 C 0.14243 0.21789 0.76076 0.0
C2050 C 0.1711 0.2188 0.74911 0.0
C2051 C 0.16452 0.21815 0.73247 0.0
C2052 C 0.14678 0.21736 0.73009 0.0
H2053 H 0.22891 0.19008 0.64578 0.0
H2054 H 0.20815 0.18985 0.66911 0.0
C2055 C 0.13579 0.21746 0.74414 0.0
C2056 C 0.17638 0.21769 0.71776 0.0
H2057 H 0.18652 0.23764 0.68046 0.0
C2058 C 0.18922 0.20519 0.7176 0.0
C2059 C 0.17557 0.22974 0.70436 0.0
C2060 C 0.16285 0.2442 0.70434 0.0
C2061 C 0.20133 0.20444 0.70446 0.0
C2062 C 0.20016 0.21612 0.69075 0.0
C2063 C 0.18729 0.22858 0.69088 0.0
C2064 C 0.21255 0.21612 0.67647 0.0
C2065 C 0.21555 0.1915 0.70574 0.0
C2066 C 0.2215 0.2311 0.67251 0.0
C2067 C 0.23304 0.23137 0.65897 0.0
C2068 C 0.23597 0.21661 0.64922 0.0
C2069 C 0.22704 0.20159 0.6532 0.0
C2070 C 0.21525 0.20142 0.66658 0.0
H2071 H 0.21751 0.18722 0.71911 0.0
H2072 H 0.21221 0.18011 0.69803 0.0
H2073 H 0.22775 0.19678 0.70088 0.0
H2074 H 0.21962 0.24259 0.67996 0.0
H2075 H 0.2398 0.24311 0.65626 0.0
H2076 H 0.04278 0.87018 -0.00438 0.0
H2077 H 0.04549 0.89017 0.97184 0.0
H2078 H 0.06059 0.92989 0.00681 0.0
H2079 H 0.05756 0.91011 0.03067 0.0
H2080 H 0.03332 0.93876 0.98727 0.0
H2081 H 0.08487 0.91277 0.94644 0.0
H2082 H 0.06893 0.89724 0.95182 0.0
H2083 H 0.08195 0.90633 0.96837 0.0
C2084 C 0.04702 0.88307 -0.0018 0.0
C2085 C 0.04976 0.88865 0.01501 0.0
C2086 C 0.04869 0.89445 0.98458 0.0
C2087 C 0.05335 0.91148 0.98757 0.0
C2088 C 0.05702 0.91679 0.00425 0.0
H2089 H 0.06324 0.98839 0.90724 0.0
H2090 H 0.06916 0.96949 0.93137 0.0
C2091 C 0.05527 0.90547 0.01786 0.0
C2092 C 0.0523 0.92421 0.9737 0.0
H2093 H 0.06625 0.93335 0.93348 0.0
C2094 C 0.04068 0.9377 0.9756 0.0
C2095 C 0.06201 0.92285 0.95856 0.0
C2096 C 0.07527 0.90911 0.9562 0.0
C2097 C 0.03808 0.94958 0.96252 0.0
C2098 C 0.04712 0.94771 0.94704 0.0
C2099 C 0.05921 0.9346 0.94534 0.0
C2100 C 0.0437 0.95891 0.93228 0.0
C2101 C 0.02561 0.96398 0.96538 0.0
C2102 C 0.02751 0.95898 0.92471 0.0
C2103 C 0.02406 0.96975 0.91098 0.0
C2104 C 0.0368 0.98058 0.90448 0.0
C2105 C 0.05312 0.98026 0.91195 0.0
C2106 C 0.05655 0.96946 0.92571 0.0
H2107 H 0.02347 0.96637 0.97919 0.0
H2108 H 0.03018 0.97595 0.95935 0.0
H2109 H 0.01317 0.96057 0.95958 0.0
H2110 H 0.01752 0.95069 0.92944 0.0
H2111 H 0.01138 0.96956 0.90551 0.0
H2112 H 0.25655 0.36965 0.2135 0.0
H2113 H 0.28174 0.35114 0.21304 0.0
H2114 H 0.25068 0.30917 0.19569 0.0
H2115 H 0.22547 0.32746 0.19633 0.0
H2116 H 0.27062 0.30156 0.22394 0.0
H2117 H 0.30908 0.33168 0.17257 0.0
H2118 H 0.30191 0.34594 0.18904 0.0
H2119 H 0.28659 0.33585 0.17532 0.0
C2120 C 0.25514 0.35653 0.20941 0.0
C2121 C 0.23906 0.34997 0.20499 0.0
C2122 C 0.26955 0.34601 0.20906 0.0
C2123 C 0.26806 0.32886 0.20415 0.0
C2124 C 0.25207 0.3224 0.19945 0.0
H2125 H 0.34365 0.25116 0.18441 0.0
H2126 H 0.32165 0.27318 0.18226 0.0
C2127 C 0.2377 0.33286 0.19983 0.0
C2128 C 0.28288 0.31725 0.20502 0.0
H2129 H 0.32241 0.30957 0.18843 0.0
C2130 C 0.28195 0.3033 0.21618 0.0
C2131 C 0.29753 0.31953 0.19477 0.0
C2132 C 0.29887 0.33397 0.18212 0.0
C2133 C 0.29533 0.29154 0.21741 0.0
C2134 C 0.31014 0.29399 0.20742 0.0
C2135 C 0.31106 0.30788 0.19617 0.0
C2136 C 0.32458 0.28193 0.20826 0.0
C2137 C 0.29337 0.2764 0.22915 0.0
C2138 C 0.33376 0.27994 0.22346 0.0
C2139 C 0.34628 0.26736 0.22478 0.0
C2140 C 0.34989 0.25659 0.21087 0.0
C2141 C 0.34115 0.25916 0.1954 0.0
C2142 C 0.32861 0.27175 0.19411 0.0
H2143 H 0.27986 0.27432 0.23289 0.0
H2144 H 0.29825 0.26459 0.22301 0.0
H2145 H 0.30088 0.27863 0.24094 0.0
H2146 H 0.33097 0.28788 0.23443 0.0
H2147 H 0.35284 0.26585 0.23684 0.0
H2148 H 0.74994 0.11883 0.78672 0.0
H2149 H 0.77411 0.1386 0.78543 0.0
H2150 H 0.7412 0.17998 0.80073 0.0
H2151 H 0.71702 0.16043 0.80187 0.0
H2152 H 0.75976 0.18613 0.77069 0.0
H2153 H 0.80137 0.16317 0.8233 0.0
H2154 H 0.79439 0.14702 0.80858 0.0
H2155 H 0.77904 0.15769 0.82184 0.0
C2156 C 0.74794 0.13208 0.7901 0.0
C2157 C 0.73159 0.13811 0.7943 0.0
C2158 C 0.76175 0.14333 0.78941 0.0
C2159 C 0.75941 0.1607 0.79306 0.0
C2160 C 0.74324 0.1666 0.79788 0.0
H2161 H 0.83567 0.23989 0.80343 0.0
H2162 H 0.81223 0.21979 0.80765 0.0
C2163 C 0.72945 0.1554 0.79855 0.0
C2164 C 0.77343 0.17303 0.79061 0.0
H2165 H 0.81302 0.1841 0.80479 0.0
C2166 C 0.7714 0.18574 0.77817 0.0
C2167 C 0.78848 0.1725 0.80048 0.0
C2168 C 0.79098 0.15946 0.81441 0.0
C2169 C 0.78414 0.19792 0.77523 0.0
C2170 C 0.79938 0.19716 0.78483 0.0
C2171 C 0.80134 0.18455 0.7974 0.0
C2172 C 0.81343 0.20942 0.7821 0.0
C2173 C 0.78105 0.21163 0.76208 0.0
C2174 C 0.8219 0.21011 0.76637 0.0
C2175 C 0.83527 0.2216 0.76387 0.0
C2176 C 0.8405 0.23252 0.77714 0.0
C2177 C 0.83199 0.2317 0.79293 0.0
C2178 C 0.81861 0.22021 0.79539 0.0
H2179 H 0.76727 0.213 0.75903 0.0
H2180 H 0.78598 0.22414 0.76653 0.0
H2181 H 0.78783 0.20822 0.75012 0.0
H2182 H 0.81827 0.20166 0.75606 0.0
H2183 H 0.84157 0.22182 0.75158 0.0
H2184 H 0.00221 0.59036 0.05611 0.0
H2185 H 0.02515 0.56923 0.05719 0.0
H2186 H 0.04466 0.58773 0.0092 0.0
H2187 H 0.02168 0.60865 0.00783 0.0
H2188 H 0.03858 0.55362 0.00894 0.0
H2189 H 0.07634 0.57093 0.06621 0.0
H2190 H 0.05388 0.56903 0.07026 0.0
H2191 H 0.06153 0.58551 0.05626 0.0
C2192 C 0.01159 0.59018 0.04597 0.0
C2193 C 0.01003 0.60111 0.03182 0.0
C2194 C 0.02476 0.57815 0.04666 0.0
C2195 C 0.03669 0.57702 0.03334 0.0
C2196 C 0.0356 0.58843 0.01962 0.0
H2197 H 0.12136 0.50492 0.02212 0.0
H2198 H 0.10446 0.53127 0.02382 0.0
C2199 C 0.02242 0.60036 0.01885 0.0
C2200 C 0.04904 0.56275 0.03267 0.0
H2201 H 0.08122 0.54308 0.0545 0.0
C2202 C 0.04802 0.55145 0.01881 0.0
C2203 C 0.06138 0.55997 0.04554 0.0
C2204 C 0.0635 0.57209 0.06033 0.0
C2205 C 0.0587 0.53717 0.01771 0.0
C2206 C 0.07057 0.53405 0.03086 0.0
C2207 C 0.07198 0.54554 0.0445 0.0
C2208 C 0.08108 0.51845 0.03086 0.0
C2209 C 0.05712 0.52536 0.00258 0.0
C2210 C 0.07346 0.50269 0.03441 0.0
C2211 C 0.08301 0.48771 0.03347 0.0
C2212 C 0.10034 0.48827 0.02891 0.0
C2213 C 0.10802 0.50413 0.0256 0.0
C2214 C 0.09844 0.51915 0.02663 0.0
H2215 H 0.04948 0.53111 0.99212 0.0
H2216 H 0.06994 0.52199 -0.00244 0.0
H2217 H 0.05079 0.51337 0.00665 0.0
H2218 H 0.06006 0.50198 0.03773 0.0
H2219 H 0.07676 0.47569 0.03615 0.0
H2220 H 0.63795 0.78484 0.2679 0.0
H2221 H 0.66116 0.80506 0.27255 0.0
H2222 H 0.6742 0.77969 0.31953 0.0
H2223 H 0.65091 0.7593 0.31509 0.0
H2224 H 0.67117 0.82558 0.30866 0.0
H2225 H 0.71548 0.7779 0.27975 0.0
H2226 H 0.69326 0.77856 0.27374 0.0
H2227 H 0.69917 0.77114 0.29452 0.0
C2228 C 0.64556 0.78366 0.27937 0.0
C2229 C 0.64267 0.77033 0.29105 0.0
C2230 C 0.65874 0.79529 0.28203 0.0
C2231 C 0.66929 0.79378 0.29635 0.0
C2232 C 0.66606 0.78102 0.30844 0.0
H2233 H 0.77095 0.8368 0.30367 0.0
H2234 H 0.74513 0.82033 0.30931 0.0
C2235 C 0.65278 0.7694 0.30586 0.0
C2236 C 0.6847 0.80443 0.29756 0.0
H2237 H 0.72656 0.80491 0.28602 0.0
C2238 C 0.68336 0.82109 0.3039 0.0
C2239 C 0.70048 0.79839 0.29137 0.0
C2240 C 0.70235 0.78053 0.28441 0.0
C2241 C 0.69754 0.83204 0.30403 0.0
C2242 C 0.71323 0.82622 0.2972 0.0
C2243 C 0.71455 0.80938 0.29124 0.0
C2244 C 0.72837 0.83739 0.29551 0.0
C2245 C 0.69559 0.84965 0.31155 0.0
C2246 C 0.72751 0.85256 0.286 0.0
C2247 C 0.74224 0.86211 0.28293 0.0
C2248 C 0.7581 0.85644 0.28902 0.0
C2249 C 0.75889 0.84142 0.29874 0.0
C2250 C 0.74415 0.83202 0.30201 0.0
H2251 H 0.68505 0.85009 0.32102 0.0
H2252 H 0.70753 0.85393 0.31785 0.0
H2253 H 0.69246 0.8588 0.30121 0.0
H2254 H 0.71556 0.85671 0.28045 0.0
H2255 H 0.74129 0.8736 0.27532 0.0
H2256 H 0.92118 0.02448 0.02013 0.0
H2257 H 0.94017 -0.00021 0.02067 0.0
H2258 H 0.8966 0.96624 0.02307 0.0
H2259 H 0.8775 0.99094 0.02185 0.0
H2260 H 0.94413 0.9769 0.04508 0.0
H2261 H 0.92378 0.94395 0.98591 0.0
H2262 H 0.91729 0.96546 0.9909 0.0
H2263 H 0.90651 0.94759 0.00048 0.0
C2264 C 0.91565 0.01182 0.02059 0.0
C2265 C 0.89788 0.00959 0.02093 0.0
C2266 C 0.92651 -0.00226 0.02092 0.0
C2267 C 0.91982 0.98115 0.02173 0.0
C2268 C 0.90205 0.97888 0.02203 0.0
H2269 H 0.98216 0.89418 0.05399 0.0
H2270 H 0.96136 0.9175 0.05303 0.0
C2271 C 0.89115 0.993 0.02143 0.0
C2272 C 0.93155 0.96637 0.02302 0.0
H2273 H 0.94228 0.92855 0.00432 0.0
C2274 C 0.94376 0.96634 0.03613 0.0
C2275 C 0.93117 0.9527 0.01124 0.0
C2276 C 0.9191 0.95246 -0.00376 0.0
C2277 C 0.95565 0.95307 0.03776 0.0
C2278 C 0.95493 0.93915 0.0263 0.0
C2279 C 0.94268 0.93915 0.01322 0.0
C2280 C 0.96729 0.92486 0.02706 0.0
C2281 C 0.96919 0.95441 0.05139 0.0
C2282 C 0.97716 0.92095 0.01265 0.0
C2283 C 0.98875 0.90748 0.01307 0.0
C2284 C 0.9908 0.89767 0.02795 0.0
C2285 C 0.98094 0.9016 0.0424 0.0
C2286 C 0.96913 0.91497 0.04189 0.0
H2287 H 0.97089 0.96778 0.05578 0.0
H2288 H 0.96532 0.94665 0.06257 0.0
H2289 H 0.98165 0.94958 0.04671 0.0
H2290 H 0.97597 0.92842 0.00108 0.0
H2291 H -0.00374 0.90487 0.00175 0.0
H2292 H 0.24691 0.62297 0.70823 0.0
H2293 H 0.22266 0.6424 0.70508 0.0
H2294 H 0.25575 0.68024 0.6827 0.0
H2295 H 0.28007 0.66106 0.68611 0.0
H2296 H 0.23711 0.69276 0.70909 0.0
H2297 H 0.19503 0.65822 0.66399 0.0
H2298 H 0.20145 0.64548 0.6819 0.0
H2299 H 0.21722 0.65276 0.6669 0.0
C2300 C 0.24896 0.63533 0.7024 0.0
C2301 C 0.26538 0.64054 0.69749 0.0
C2302 C 0.23508 0.64637 0.7005 0.0
C2303 C 0.23739 0.66268 0.69347 0.0
C2304 C 0.2537 0.66767 0.68809 0.0
H2305 H 0.15489 0.73613 0.67571 0.0
H2306 H 0.17926 0.71699 0.67147 0.0
C2307 C 0.26757 0.6567 0.69006 0.0
C2308 C 0.2232 0.67512 0.69324 0.0
H2309 H 0.18229 0.68123 0.67965 0.0
C2310 C 0.22519 0.69032 0.70249 0.0
C2311 C 0.20775 0.67199 0.68447 0.0
C2312 C 0.20525 0.6563 0.67361 0.0
C2313 C 0.21192 0.70222 0.7037 0.0
C2314 C 0.19618 0.69867 0.6957 0.0
C2315 C 0.19436 0.68379 0.68591 0.0
C2316 C 0.18124 0.70991 0.69806 0.0
C2317 C 0.21484 0.71846 0.71364 0.0
C2318 C 0.17419 0.71198 0.71435 0.0
C2319 C 0.16033 0.72284 0.71683 0.0
C2320 C 0.15318 0.7318 0.70303 0.0
C2321 C 0.16011 0.72946 0.68662 0.0
C2322 C 0.174 0.71853 0.68416 0.0
H2323 H 0.22865 0.72138 0.71494 0.0
H2324 H 0.20842 0.72946 0.70744 0.0
H2325 H 0.20946 0.71699 0.72666 0.0
H2326 H 0.17946 0.70521 0.72518 0.0
H2327 H 0.15533 0.72426 0.72964 0.0
H2328 H 0.02151 0.38136 0.48512 0.0
H2329 H 0.04217 0.40456 0.48324 0.0
H2330 H 0.02032 0.42047 0.43539 0.0
H2331 H -0.00053 0.39719 0.43706 0.0
H2332 H 0.0644 0.41578 0.4468 0.0
H2333 H 0.01865 0.4595 0.47945 0.0
H2334 H 0.01909 0.43704 0.48455 0.0
H2335 H 0.01121 0.44389 0.46424 0.0
C2336 C 0.02116 0.38963 0.47407 0.0
C2337 C 0.00873 0.38748 0.46128 0.0
C2338 C 0.03303 0.40283 0.47302 0.0
C2339 C 0.03268 0.41412 0.45921 0.0
C2340 C 0.02075 0.41175 0.4461 0.0
H2341 H 0.07725 0.51419 0.45019 0.0
H2342 H 0.05982 0.48855 0.44785 0.0
C2343 C 0.00887 0.39847 0.44709 0.0
C2344 C 0.04394 0.42915 0.45928 0.0
H2345 H 0.04583 0.47031 0.47311 0.0
C2346 C 0.0604 0.42776 0.45246 0.0
C2347 C 0.03855 0.44463 0.4667 0.0
C2348 C 0.02092 0.44653 0.47419 0.0
C2349 C 0.0717 0.44167 0.4528 0.0
C2350 C 0.06641 0.45713 0.46051 0.0
C2351 C 0.04987 0.45844 0.46726 0.0
C2352 C 0.07759 0.47234 0.4614 0.0
C2353 C 0.08902 0.43976 0.44463 0.0
C2354 C 0.09336 0.47177 0.46989 0.0
C2355 C 0.10346 0.48643 0.47112 0.0
C2356 C 0.09778 0.50192 0.46412 0.0
C2357 C 0.08195 0.50245 0.45576 0.0
C2358 C 0.07198 0.4878 0.45439 0.0
H2359 H 0.0893 0.42902 0.43538 0.0
H2360 H 0.09283 0.45164 0.43791 0.0
H2361 H 0.09863 0.43709 0.45467 0.0
H2362 H 0.09774 0.46007 0.47578 0.0
H2363 H 0.11557 0.48571 0.47774 0.0
H2364 H 0.49104 0.58397 0.93174 0.0
H2365 H 0.47263 0.55904 0.92739 0.0
H2366 H 0.43713 0.57865 0.96454 0.0
H2367 H 0.45543 0.60344 0.96915 0.0
H2368 H 0.46226 0.53762 0.95942 0.0
H2369 H 0.40886 0.56246 0.91979 0.0
H2370 H 0.43012 0.57137 0.91893 0.0
H2371 H 0.41659 0.57582 0.93683 0.0
C2372 C 0.47915 0.58314 0.93873 0.0
C2373 C 0.47471 0.59562 0.95085 0.0
C2374 C 0.4687 0.5689 0.93624 0.0
C2375 C 0.45354 0.56716 0.94557 0.0
C2376 C 0.44872 0.57992 0.95712 0.0
H2377 H 0.37399 0.49493 0.96478 0.0
H2378 H 0.39194 0.52011 0.96054 0.0
C2379 C 0.45924 0.59401 0.95978 0.0
C2380 C 0.44356 0.55127 0.94471 0.0
H2381 H 0.40518 0.53514 0.93221 0.0
C2382 C 0.44988 0.53692 0.95328 0.0
C2383 C 0.42738 0.55065 0.93689 0.0
C2384 C 0.42027 0.56584 0.92748 0.0
C2385 C 0.44011 0.52202 0.95477 0.0
C2386 C 0.42381 0.52137 0.94701 0.0
C2387 C 0.41768 0.53566 0.9381 0.0
C2388 C 0.41266 0.50623 0.94864 0.0
C2389 C 0.44702 0.50747 0.96533 0.0
C2390 C 0.41821 0.49016 0.94304 0.0
C2391 C 0.40811 0.47575 0.94569 0.0
C2392 C 0.39213 0.47723 0.95368 0.0
C2393 C 0.38628 0.49341 0.95866 0.0
C2394 C 0.3965 0.5078 0.9562 0.0
H2395 H 0.45736 0.51173 0.97404 0.0
H2396 H 0.43679 0.50149 0.97309 0.0
H2397 H 0.45242 0.49761 0.95672 0.0
H2398 H 0.43044 0.48874 0.93677 0.0
H2399 H 0.41283 0.46345 0.94152 0.0
H2400 H 0.71977 0.74721 0.86885 0.0
H2401 H 0.71488 0.77178 0.85023 0.0
H2402 H 0.68306 0.74085 0.81765 0.0
H2403 H 0.68843 0.71614 0.83584 0.0
H2404 H 0.70618 0.75719 0.79968 0.0
H2405 H 0.67532 0.80344 0.84317 0.0
H2406 H 0.69517 0.79583 0.8516 0.0
H2407 H 0.67774 0.78118 0.84856 0.0
C2408 C 0.71155 0.74574 0.85784 0.0
C2409 C 0.70454 0.72978 0.85372 0.0
C2410 C 0.70863 0.75981 0.8473 0.0
C2411 C 0.69838 0.75823 0.83268 0.0
C2412 C 0.69096 0.74239 0.82888 0.0
H2413 H 0.68033 0.83225 0.75033 0.0
H2414 H 0.67571 0.80913 0.77092 0.0
C2415 C 0.69406 0.72829 0.83927 0.0
C2416 C 0.69675 0.77255 0.82046 0.0
H2417 H 0.68751 0.81503 0.81738 0.0
C2418 C 0.7018 0.76975 0.8035 0.0
C2419 C 0.69098 0.78893 0.82543 0.0
C2420 C 0.68432 0.79249 0.84314 0.0
C2421 C 0.70192 0.78304 0.79156 0.0
C2422 C 0.69691 0.79953 0.79676 0.0
C2423 C 0.69138 0.80231 0.81353 0.0
C2424 C 0.69873 0.81423 0.7852 0.0
C2425 C 0.708 0.7796 0.77362 0.0
C2426 C 0.71309 0.82472 0.78666 0.0
C2427 C 0.71585 0.83779 0.77492 0.0
C2428 C 0.70421 0.84066 0.76156 0.0
C2429 C 0.68953 0.83039 0.76047 0.0
C2430 C 0.68685 0.81721 0.77219 0.0
H2431 H 0.71212 0.76616 0.77181 0.0
H2432 H 0.69757 0.78241 0.76447 0.0
H2433 H 0.71885 0.78816 0.77049 0.0
H2434 H 0.7224 0.82252 0.79664 0.0
H2435 H 0.72724 0.8455 0.77622 0.0
H2436 H 0.4893 0.46484 0.12433 0.0
H2437 H 0.46254 0.46145 0.10848 0.0
H2438 H 0.48943 0.43473 0.0686 0.0
H2439 H 0.51622 0.43827 0.08417 0.0
H2440 H 0.46114 0.47442 0.07158 0.0
H2441 H 0.44402 0.40607 0.08019 0.0
H2442 H 0.45643 0.41781 0.0957 0.0
H2443 H 0.46608 0.41101 0.07611 0.0
C2444 C 0.48946 0.45803 0.11231 0.0
C2445 C 0.50483 0.45193 0.1054 0.0
C2446 C 0.47419 0.45607 0.10332 0.0
C2447 C 0.47408 0.4477 0.08752 0.0
C2448 C 0.48929 0.44103 0.08091 0.0
H2449 H 0.40722 0.43117 0.00255 0.0
H2450 H 0.42868 0.42901 0.02515 0.0
C2451 C 0.50457 0.44316 0.08976 0.0
C2452 C 0.45858 0.44764 0.0769 0.0
H2453 H 0.4286 0.42154 0.05924 0.0
C2454 C 0.45384 0.46294 0.06902 0.0
C2455 C 0.44939 0.43255 0.07349 0.0
C2456 C 0.4541 0.41589 0.08186 0.0
C2457 C 0.44038 0.46349 0.05729 0.0
C2458 C 0.43108 0.44838 0.05385 0.0
C2459 C 0.43568 0.4331 0.06199 0.0
C2460 C 0.41701 0.44817 0.04127 0.0
C2461 C 0.43682 0.48007 0.04815 0.0
C2462 C 0.40302 0.45917 0.04318 0.0
C2463 C 0.39096 0.46064 0.0302 0.0
C2464 C 0.39244 0.45081 0.01527 0.0
C2465 C 0.40578 0.43891 0.0139 0.0
C2466 C 0.41803 0.43767 0.0268 0.0
H2467 H 0.44788 0.4889 0.04876 0.0
H2468 H 0.43363 0.47782 0.03453 0.0
H2469 H 0.42582 0.48652 0.0543 0.0
H2470 H 0.40173 0.46701 0.05448 0.0
H2471 H 0.38063 0.4697 0.03172 0.0
H2472 H 0.77062 0.24272 0.36942 0.0
H2473 H 0.775 0.21835 0.35033 0.0
H2474 H 0.80084 0.25103 0.31439 0.0
H2475 H 0.79627 0.27543 0.33321 0.0
H2476 H 0.77509 0.23264 0.29993 0.0
H2477 H 0.81718 0.19024 0.33782 0.0
H2478 H 0.79838 0.19702 0.34904 0.0
H2479 H 0.81414 0.21251 0.34292 0.0
C2480 C 0.77744 0.24464 0.35756 0.0
C2481 C 0.78303 0.26097 0.35276 0.0
C2482 C 0.78004 0.2307 0.34673 0.0
C2483 C 0.78843 0.23287 0.33105 0.0
C2484 C 0.79441 0.24908 0.32648 0.0
H2485 H 0.81143 0.15339 0.25556 0.0
H2486 H 0.81445 0.17672 0.27623 0.0
C2487 C 0.79176 0.263 0.33723 0.0
C2488 C 0.78953 0.21866 0.31867 0.0
H2489 H 0.80379 0.17783 0.31331 0.0
C2490 C 0.78152 0.22073 0.3028 0.0
C2491 C 0.79807 0.2032 0.32239 0.0
C2492 C 0.80758 0.20062 0.3389 0.0
C2493 C 0.78132 0.20754 0.29075 0.0
C2494 C 0.78916 0.19183 0.29478 0.0
C2495 C 0.79769 0.18989 0.31038 0.0
C2496 C 0.78777 0.17705 0.2832 0.0
C2497 C 0.77257 0.21044 0.27385 0.0
C2498 C 0.77184 0.1694 0.28063 0.0
C2499 C 0.77006 0.15613 0.26894 0.0
C2500 C 0.78419 0.15023 0.25956 0.0
C2501 C 0.80027 0.15765 0.26252 0.0
C2502 C 0.80205 0.17094 0.27432 0.0
H2503 H 0.77073 0.22424 0.27117 0.0
H2504 H 0.78002 0.20468 0.26326 0.0
H2505 H 0.75983 0.20427 0.27408 0.0
H2506 H 0.76072 0.17388 0.28751 0.0
H2507 H 0.75748 0.15073 0.26707 0.0
H2508 H -0.00288 0.52663 0.61877 0.0
H2509 H 0.02255 0.53306 0.60189 0.0
H2510 H 0.9914 0.5592 0.56479 0.0
H2511 H 0.96589 0.55225 0.58129 0.0
H2512 H 0.01169 0.53718 0.5499 0.0
H2513 H 0.05037 0.57533 0.59483 0.0
H2514 H 0.0442 0.55532 0.60402 0.0
H2515 H 0.0281 0.57079 0.59855 0.0
C2516 C -0.00426 0.5339 0.60711 0.0
C2517 C 0.97956 0.53888 0.60129 0.0
C2518 C 0.01029 0.53774 0.59757 0.0
C2519 C 0.00892 0.54691 0.58224 0.0
C2520 C 0.99277 0.55221 0.57663 0.0
H2521 H 0.08627 0.56144 0.5025 0.0
H2522 H 0.06239 0.568 0.5216 0.0
C2523 C 0.97821 0.54818 0.58604 0.0
C2524 C 0.02405 0.54941 0.57119 0.0
H2525 H 0.06562 0.56246 0.57126 0.0
C2526 C 0.02336 0.54304 0.55447 0.0
C2527 C 0.03927 0.55708 0.57715 0.0
C2528 C 0.04048 0.56518 0.59457 0.0
C2529 C 0.0377 0.54335 0.54383 0.0
C2530 C 0.05311 0.55026 0.55009 0.0
C2531 C 0.05373 0.55717 0.56657 0.0
C2532 C 0.06902 0.54872 0.54018 0.0
C2533 C 0.03655 0.53554 0.52626 0.0
C2534 C 0.08088 0.53616 0.54471 0.0
C2535 C 0.09442 0.53231 0.53384 0.0
C2536 C 0.09637 0.54104 0.51829 0.0
C2537 C 0.08511 0.55446 0.51436 0.0
C2538 C 0.07146 0.55822 0.52523 0.0
H2539 H 0.02412 0.5291 0.52404 0.0
H2540 H 0.03812 0.54567 0.5165 0.0
H2541 H 0.04695 0.5261 0.52438 0.0
H2542 H 0.07914 0.52871 0.55622 0.0
H2543 H 0.10297 0.52202 0.53733 0.0
H2544 H 0.72455 0.24056 0.63126 0.0
H2545 H 0.72252 0.21599 0.65042 0.0
H2546 H 0.71169 0.24963 0.69261 0.0
H2547 H 0.71395 0.27428 0.67361 0.0
H2548 H 0.73522 0.22452 0.70052 0.0
H2549 H 0.67785 0.19689 0.66966 0.0
H2550 H 0.69524 0.2006 0.65521 0.0
H2551 H 0.68504 0.21838 0.66553 0.0
C2552 C 0.72178 0.24272 0.64463 0.0
C2553 C 0.71927 0.25931 0.65093 0.0
C2554 C 0.72051 0.22867 0.65552 0.0
C2555 C 0.71659 0.231 0.67284 0.0
C2556 C 0.71457 0.24758 0.67925 0.0
H2557 H 0.68595 0.15132 0.74453 0.0
H2558 H 0.68629 0.1764 0.72585 0.0
C2559 C 0.71588 0.26163 0.66838 0.0
C2560 C 0.7147 0.21615 0.68431 0.0
H2561 H 0.69194 0.17949 0.6902 0.0
C2562 C 0.72572 0.21471 0.69833 0.0
C2563 C 0.70207 0.20355 0.68157 0.0
C2564 C 0.68925 0.20496 0.66728 0.0
C2565 C 0.72477 0.20072 0.70942 0.0
C2566 C 0.71266 0.18773 0.7062 0.0
C2567 C 0.70131 0.18941 0.6925 0.0
C2568 C 0.71196 0.17208 0.71668 0.0
C2569 C 0.73668 0.2 0.72455 0.0
C2570 C 0.72605 0.16111 0.7172 0.0
C2571 C 0.7259 0.14683 0.72777 0.0
C2572 C 0.71159 0.14315 0.73797 0.0
C2573 C 0.69716 0.15377 0.73684 0.0
C2574 C 0.69735 0.16813 0.72624 0.0
H2575 H 0.74174 0.21283 0.72784 0.0
H2576 H 0.73016 0.19463 0.73592 0.0
H2577 H 0.74768 0.19165 0.72142 0.0
H2578 H 0.73729 0.16375 0.7096 0.0
H2579 H 0.73719 0.13887 0.72817 0.0
H2580 H 0.08665 0.43132 0.98821 0.0
H2581 H 0.06357 0.42535 0.96804 0.0
H2582 H 0.08203 0.46513 0.93488 0.0
H2583 H 0.10505 0.47132 0.95494 0.0
H2584 H 0.04001 0.45407 0.95855 0.0
H2585 H 0.07109 0.42244 0.90313 0.0
H2586 H 0.07982 0.42155 0.92447 0.0
H2587 H 0.08187 0.44066 0.91204 0.0
C2588 C 0.08603 0.43857 0.97646 0.0
C2589 C 0.09761 0.45188 0.97322 0.0
C2590 C 0.07284 0.43512 0.96498 0.0
C2591 C 0.07126 0.44471 0.94998 0.0
C2592 C 0.08323 0.45746 0.94632 0.0
H2593 H -0.00105 0.46328 0.87028 0.0
H2594 H 0.02435 0.45958 0.88803 0.0
C2595 C 0.09629 0.46104 0.95785 0.0
C2596 C 0.05597 0.44297 0.93918 0.0
H2597 H 0.04266 0.43218 0.89921 0.0
C2598 C 0.04047 0.44907 0.94565 0.0
C2599 C 0.05683 0.43667 0.92234 0.0
C2600 C 0.07326 0.42983 0.91503 0.0
C2601 C 0.02581 0.44961 0.93547 0.0
C2602 C 0.0266 0.44333 0.91855 0.0
C2603 C 0.04208 0.4369 0.9122 0.0
C2604 C 0.01166 0.4441 0.90706 0.0
C2605 C 0.00986 0.45766 0.94271 0.0
C2606 C -0.00373 0.43621 0.91162 0.0
C2607 C 0.98169 0.43857 0.90169 0.0
C2608 C 0.98238 0.44855 0.88683 0.0
C2609 C -0.00197 0.45561 0.88173 0.0
C2610 C 0.01255 0.45346 0.89182 0.0
H2611 H 0.01271 0.46585 0.95393 0.0
H2612 H 0.00325 0.46555 0.93298 0.0
H2613 H 0.00101 0.44747 0.94695 0.0
H2614 H -0.00457 0.42853 0.92308 0.0
H2615 H 0.96984 0.43276 0.90577 0.0
H2616 H 0.75778 0.84824 0.22015 0.0
H2617 H 0.76088 0.82414 0.20076 0.0
H2618 H 0.81353 0.81859 0.21555 0.0
H2619 H 0.81065 0.84283 0.23512 0.0
H2620 H 0.80522 0.81607 0.17802 0.0
H2621 H 0.76665 0.77425 0.22033 0.0
H2622 H 0.75733 0.79465 0.2155 0.0
H2623 H 0.77663 0.79363 0.22778 0.0
C2624 C 0.7701 0.84205 0.21924 0.0
C2625 C 0.78394 0.84742 0.22934 0.0
C2626 C 0.77181 0.82825 0.20815 0.0
C2627 C 0.78736 0.81954 0.20691 0.0
C2628 C 0.80141 0.82519 0.21642 0.0
H2629 H 0.79625 0.71758 0.16509 0.0
H2630 H 0.79921 0.74327 0.18247 0.0
C2631 C 0.79972 0.839 0.2276 0.0
C2632 C 0.78857 0.80407 0.19624 0.0
H2633 H 0.77315 0.76356 0.19284 0.0
C2634 C 0.79833 0.80452 0.18126 0.0
C2635 C 0.77969 0.78903 0.20068 0.0
C2636 C 0.76958 0.78771 0.21702 0.0
C2637 C 0.79909 0.79035 0.1703 0.0
C2638 C 0.78967 0.77552 0.17443 0.0
C2639 C 0.78027 0.77499 0.18965 0.0
C2640 C 0.78925 0.76033 0.1632 0.0
C2641 C 0.81005 0.79134 0.15451 0.0
C2642 C 0.78271 0.76143 0.14656 0.0
C2643 C 0.78108 0.74675 0.13655 0.0
C2644 C 0.78576 0.73075 0.14312 0.0
C2645 C 0.79249 0.72974 0.15969 0.0
C2646 C 0.79422 0.7444 0.16964 0.0
H2647 H 0.81992 0.80144 0.15564 0.0
H2648 H 0.81644 0.77896 0.15195 0.0
H2649 H 0.80188 0.79447 0.14338 0.0
H2650 H 0.77843 0.77354 0.14149 0.0
H2651 H 0.77576 0.74789 0.12385 0.0
H2652 H 0.39355 0.49938 0.47533 0.0
H2653 H 0.41617 0.50068 0.45399 0.0
H2654 H 0.42176 0.55465 0.46294 0.0
H2655 H 0.39901 0.55358 0.48432 0.0
H2656 H 0.42154 0.54419 0.42726 0.0
H2657 H 0.46709 0.50731 0.46721 0.0
H2658 H 0.44662 0.49749 0.46406 0.0
H2659 H 0.44811 0.51708 0.47586 0.0
C2660 C 0.39949 0.51158 0.47275 0.0
C2661 C 0.39451 0.52637 0.48165 0.0
C2662 C 0.41245 0.51226 0.46057 0.0
C2663 C 0.42072 0.52771 0.45708 0.0
C2664 C 0.41552 0.5426 0.46553 0.0
H2665 H 0.51859 0.54295 0.41033 0.0
H2666 H 0.49327 0.54281 0.42843 0.0
C2667 C 0.40255 0.54194 0.47777 0.0
C2668 C 0.43515 0.5282 0.44495 0.0
H2669 H 0.47579 0.51379 0.43909 0.0
C2670 C 0.43342 0.53757 0.4298 0.0
C2671 C 0.45062 0.51962 0.44843 0.0
C2672 C 0.45336 0.50991 0.46483 0.0
C2673 C 0.44682 0.53851 0.41793 0.0
C2674 C 0.46221 0.52973 0.42132 0.0
C2675 C 0.46391 0.52041 0.4365 0.0
C2676 C 0.47707 0.53061 0.40972 0.0
C2677 C 0.44457 0.54918 0.40208 0.0
C2678 C 0.47631 0.52382 0.39316 0.0
C2679 C 0.4908 0.52391 0.38272 0.0
C2680 C 0.50625 0.53069 0.38878 0.0
C2681 C 0.50688 0.53762 0.4053 0.0
C2682 C 0.49243 0.53755 0.41567 0.0
H2683 H 0.43351 0.55798 0.40316 0.0
H2684 H 0.45622 0.55679 0.39945 0.0
H2685 H 0.44235 0.54064 0.39101 0.0
H2686 H 0.46464 0.51813 0.38845 0.0
H2687 H 0.48999 0.51841 0.37007 0.0
H2688 H 0.75209 0.67925 0.83543 0.0
H2689 H 0.77072 0.67648 0.81036 0.0
H2690 H 0.79583 0.72351 0.82371 0.0
H2691 H 0.77748 0.72646 0.84864 0.0
H2692 H 0.77697 0.71543 0.78631 0.0
H2693 H 0.82942 0.67423 0.81101 0.0
H2694 H 0.80753 0.67077 0.81739 0.0
H2695 H 0.81874 0.68917 0.82494 0.0
C2696 C 0.76175 0.68886 0.83317 0.0
C2697 C 0.76322 0.70312 0.84399 0.0
C2698 C 0.77233 0.68726 0.81886 0.0
C2699 C 0.78456 0.69981 0.81531 0.0
C2700 C 0.78643 0.71372 0.82633 0.0
H2701 H 0.86595 0.71879 0.74484 0.0
H2702 H 0.84722 0.71507 0.76958 0.0
C2703 C 0.77589 0.71537 0.84054 0.0
C2704 C 0.79473 0.69925 0.79952 0.0
H2705 H 0.83288 0.68586 0.78347 0.0
C2706 C 0.7891 0.70881 0.78552 0.0
C2707 C 0.81058 0.69077 0.79882 0.0
C2708 C 0.81706 0.6806 0.81379 0.0
C2709 C 0.79916 0.71044 0.77082 0.0
C2710 C 0.81512 0.70203 0.77009 0.0
C2711 C 0.82061 0.69224 0.78406 0.0
C2712 C 0.82656 0.70376 0.75517 0.0
C2713 C 0.79289 0.72171 0.75652 0.0
C2714 C 0.82121 0.69844 0.73895 0.0
C2715 C 0.83179 0.70073 0.72481 0.0
C2716 C 0.848 0.70814 0.7267 0.0
C2717 C 0.85351 0.71309 0.74301 0.0
C2718 C 0.84285 0.71092 0.75714 0.0
H2719 H 0.78265 0.73052 0.76084 0.0
H2720 H 0.80348 0.7294 0.7511 0.0
H2721 H 0.78759 0.71361 0.74619 0.0
H2722 H 0.80884 0.69255 0.73722 0.0
H2723 H 0.82728 0.69662 0.71241 0.0
H2724 H 0.50749 0.5257 0.1047 0.0
H2725 H 0.50945 0.547 0.08205 0.0
H2726 H 0.55589 0.5238 0.06395 0.0
H2727 H 0.55417 0.50237 0.08663 0.0
H2728 H 0.54115 0.56988 0.07249 0.0
H2729 H 0.51757 0.52363 0.02388 0.0
H2730 H 0.51311 0.52114 0.04635 0.0
H2731 H 0.53406 0.51672 0.03831 0.0
C2732 C 0.51822 0.52516 0.09601 0.0
C2733 C 0.53063 0.51224 0.09742 0.0
C2734 C 0.51933 0.5374 0.08314 0.0
C2735 C 0.53277 0.53686 0.0714 0.0
C2736 C 0.54543 0.52433 0.07296 0.0
H2737 H 0.54754 0.58585 0.97426 0.0
H2738 H 0.54984 0.56844 -6e-05 0.0
C2739 C 0.54441 0.51213 0.08592 0.0
C2740 C 0.53296 0.54882 0.05691 0.0
H2741 H 0.52446 0.55117 0.01437 0.0
C2742 C 0.53756 0.56587 0.05974 0.0
C2743 C 0.52821 0.54342 0.04041 0.0
C2744 C 0.52285 0.52526 0.03693 0.0
C2745 C 0.5378 0.57771 0.04629 0.0
C2746 C 0.53291 0.57234 0.02976 0.0
C2747 C 0.52825 0.55526 0.02704 0.0
C2748 C 0.53266 0.58403 0.01493 0.0
C2749 C 0.54366 0.59569 0.04985 0.0
C2750 C 0.52236 0.59871 0.01488 0.0
C2751 C 0.52119 0.60884 0.00023 0.0
C2752 C 0.53004 0.60421 0.98535 0.0
C2753 C 0.5405 0.58967 0.98553 0.0
C2754 C 0.54184 0.57972 0.00019 0.0
H2755 H 0.55147 0.5964 0.06165 0.0
H2756 H 0.55127 0.60081 0.03905 0.0
H2757 H 0.53234 0.604 0.05164 0.0
H2758 H 0.51484 0.60205 0.02598 0.0
H2759 H 0.51296 0.61993 0.00039 0.0
H2760 H 0.65954 0.30649 0.21274 0.0
H2761 H 0.67799 0.31021 0.23761 0.0
H2762 H 0.6391 0.2885 0.26988 0.0
H2763 H 0.6204 0.28503 0.24511 0.0
H2764 H 0.65671 0.31694 0.28456 0.0
H2765 H 0.70058 0.26758 0.25844 0.0
H2766 H 0.69649 0.28538 0.2446 0.0
H2767 H 0.67946 0.27103 0.25 0.0
C2768 C 0.65483 0.30269 0.22516 0.0
C2769 C 0.63863 0.29524 0.22697 0.0
C2770 C 0.6654 0.30481 0.23933 0.0
C2771 C 0.65999 0.29935 0.25548 0.0
C2772 C 0.64349 0.29273 0.25748 0.0
H2773 H 0.71521 0.26343 0.34112 0.0
H2774 H 0.69652 0.26893 0.31699 0.0
C2775 C 0.63286 0.2907 0.24332 0.0
C2776 C 0.67196 0.29929 0.27004 0.0
H2777 H 0.70833 0.2803 0.28449 0.0
C2778 C 0.66808 0.30906 0.28455 0.0
C2779 C 0.68665 0.28882 0.26996 0.0
C2780 C 0.69104 0.27748 0.255 0.0
C2781 C 0.67849 0.30847 0.29912 0.0
C2782 C 0.69313 0.29796 0.29902 0.0
C2783 C 0.69713 0.28843 0.28441 0.0
C2784 C 0.70375 0.29542 0.31436 0.0
C2785 C 0.67346 0.31855 0.31473 0.0
C2786 C 0.71394 0.30858 0.32092 0.0
C2787 C 0.72474 0.30549 0.3348 0.0
C2788 C 0.72551 0.28917 0.34225 0.0
C2789 C 0.71501 0.27615 0.33573 0.0
C2790 C 0.7043 0.27925 0.32192 0.0
H2791 H 0.66044 0.32402 0.31359 0.0
H2792 H 0.67398 0.31035 0.32627 0.0
H2793 H 0.68261 0.32918 0.31658 0.0
H2794 H 0.71383 0.32109 0.31507 0.0
H2795 H 0.73268 0.31578 0.33948 0.0
H2796 H 0.98016 0.46777 0.59666 0.0
H2797 H 0.97627 0.4463 0.5745 0.0
H2798 H 0.92351 0.46084 0.5693 0.0
H2799 H 0.92718 0.48248 0.59159 0.0
H2800 H 0.93203 0.42291 0.56986 0.0
H2801 H 0.96861 0.46203 0.52333 0.0
H2802 H 0.9786 0.45892 0.54375 0.0
H2803 H 0.95917 0.47097 0.54236 0.0
C2804 C 0.96766 0.46638 0.59095 0.0
C2805 C 0.95401 0.47699 0.59582 0.0
C2806 C 0.96549 0.45409 0.57829 0.0
C2807 C 0.94966 0.45215 0.57025 0.0
C2808 C 0.93582 0.46222 0.57542 0.0
H2809 H 0.93709 0.40377 0.47219 0.0
H2810 H 0.93423 0.42218 0.49712 0.0
C2811 C 0.93797 0.4746 0.58809 0.0
C2812 C 0.94798 0.44026 0.55577 0.0
H2813 H 0.96173 0.43387 0.51503 0.0
C2814 C 0.9384 0.42528 0.55781 0.0
C2815 C 0.95621 0.44357 0.54009 0.0
C2816 C 0.96613 0.4598 0.53711 0.0
C2817 C 0.93716 0.41327 0.54456 0.0
C2818 C 0.94586 0.41635 0.52905 0.0
C2819 C 0.95513 0.43152 0.52698 0.0
C2820 C 0.94561 0.40417 0.51466 0.0
C2821 C 0.92646 0.3975 0.54718 0.0
C2822 C 0.95274 0.38782 0.51633 0.0
C2823 C 0.95433 0.37719 0.50207 0.0
C2824 C 0.94901 0.3829 0.48594 0.0
C2825 C 0.94141 0.39906 0.48444 0.0
C2826 C 0.93973 0.40959 0.49867 0.0
H2827 H 0.91724 0.39914 0.55782 0.0
H2828 H 0.91932 0.39421 0.5354 0.0
H2829 H 0.93494 0.38662 0.55035 0.0
H2830 H 0.95767 0.38353 0.5285 0.0
H2831 H 0.96028 0.36481 0.50356 0.0
H2832 H 0.8721 0.27712 0.73541 0.0
H2833 H 0.85752 0.2861 0.70938 0.0
H2834 H 0.82758 0.32205 0.73846 0.0
H2835 H 0.84157 0.31252 0.76462 0.0
H2836 H 0.80794 0.30267 0.72073 0.0
H2837 H 0.85837 0.32553 0.67733 0.0
H2838 H 0.86346 0.30467 0.68514 0.0
H2839 H 0.86208 0.32232 0.69984 0.0
C2840 C 0.8626 0.28713 0.73618 0.0
C2841 C 0.85779 0.294 0.75201 0.0
C2842 C 0.85442 0.29242 0.72126 0.0
C2843 C 0.84163 0.30498 0.72189 0.0
C2844 C 0.83745 0.31241 0.73765 0.0
H2845 H 0.76178 0.32092 0.64547 0.0
H2846 H 0.78352 0.32945 0.66614 0.0
C2847 C 0.84538 0.3069 0.75258 0.0
C2848 C 0.8309 0.30839 0.70672 0.0
H2849 H 0.83234 0.31517 0.6637 0.0
C2850 C 0.81325 0.30587 0.70836 0.0
C2851 C 0.83781 0.31255 0.69056 0.0
C2852 C 0.85646 0.3166 0.68817 0.0
C2853 C 0.80248 0.3063 0.69416 0.0
C2854 C 0.80953 0.30945 0.67787 0.0
C2855 C 0.82703 0.31277 0.67625 0.0
C2856 C 0.79912 0.307 0.6624 0.0
C2857 C 0.78377 0.30233 0.69654 0.0
C2858 C 0.80129 0.29206 0.65284 0.0
C2859 C 0.78891 0.2871 0.64108 0.0
C2860 C 0.77415 0.29704 0.63871 0.0
C2861 C 0.77288 0.31286 0.64713 0.0
C2862 C 0.78529 0.3178 0.65892 0.0
H2863 H 0.7808 0.29809 0.70973 0.0
H2864 H 0.77611 0.31392 0.69381 0.0
H2865 H 0.77968 0.29219 0.68752 0.0
H2866 H 0.81192 0.28359 0.65538 0.0
H2867 H 0.79044 0.27497 0.63463 0.0
H2868 H 0.92793 0.50804 0.8936 0.0
H2869 H 0.92348 0.52931 0.9161 0.0
H2870 H 0.97733 0.52859 0.9274 0.0
H2871 H 0.98195 0.50791 0.90466 0.0
H2872 H 0.9286 0.52821 0.94945 0.0
H2873 H 0.96955 0.57873 0.92248 0.0
H2874 H 0.96347 0.56012 0.91039 0.0
H2875 H 0.9813 0.55927 0.92488 0.0
C2876 C 0.93882 0.51251 0.90084 0.0
C2877 C 0.95532 0.50649 0.89722 0.0
C2878 C 0.93626 0.52466 0.91366 0.0
C2879 C 0.95014 0.53087 0.92313 0.0
C2880 C 0.96652 0.52445 0.91986 0.0
H2881 H 0.95334 0.57324 0.0234 0.0
H2882 H 0.95075 0.5553 -0.00191 0.0
C2883 C 0.96913 0.51254 0.90692 0.0
C2884 C 0.94755 0.54361 0.93683 0.0
H2885 H 0.96343 0.58093 0.95253 0.0
C2886 C 0.93602 0.53987 0.95001 0.0
C2887 C 0.95691 0.55904 0.93737 0.0
C2888 C 0.96834 0.56461 0.92291 0.0
C2889 C 0.93425 0.55072 0.96414 0.0
C2890 C 0.94471 0.56539 0.96536 0.0
C2891 C 0.9556 0.56955 0.95176 0.0
C2892 C 0.94522 0.5762 0.98087 0.0
C2893 C 0.92118 0.54632 0.97757 0.0
C2894 C 0.9435 0.59399 0.97957 0.0
C2895 C 0.94541 0.60431 0.99397 0.0
C2896 C 0.94893 0.59699 0.00993 0.0
C2897 C 0.95042 0.5792 0.01128 0.0
C2898 C 0.94878 0.56891 -0.00316 0.0
H2899 H 0.91044 0.53892 0.97201 0.0
H2900 H 0.92723 0.53825 0.98749 0.0
H2901 H 0.91594 0.55794 0.98375 0.0
H2902 H 0.94087 0.59991 0.96736 0.0
H2903 H 0.94422 0.61801 0.99259 0.0
H2904 H 0.66243 0.70429 0.27674 0.0
H2905 H 0.6804 0.69996 0.25159 0.0
H2906 H 0.63781 0.71187 0.21891 0.0
H2907 H 0.61967 0.71625 0.24404 0.0
H2908 H 0.65983 0.68124 0.20965 0.0
H2909 H 0.69463 0.74214 0.22086 0.0
H2910 H 0.69273 0.72792 0.23878 0.0
H2911 H 0.67399 0.73783 0.23015 0.0
C2912 C 0.65685 0.7059 0.2642 0.0
C2913 C 0.63968 0.71073 0.26233 0.0
C2914 C 0.66712 0.7034 0.24988 0.0
C2915 C 0.6604 0.70568 0.23348 0.0
C2916 C 0.64317 0.71004 0.23152 0.0
H2917 H 0.71321 0.72691 0.14038 0.0
H2918 H 0.69294 0.72485 0.16383 0.0
C2919 C 0.63287 0.71261 0.24585 0.0
C2920 C 0.67162 0.70443 0.21842 0.0
H2921 H 0.70412 0.72494 0.19812 0.0
C2922 C 0.66954 0.69074 0.20707 0.0
C2923 C 0.68415 0.71695 0.21517 0.0
C2924 C 0.68652 0.73213 0.22677 0.0
C2925 C 0.67982 0.68923 0.19246 0.0
C2926 C 0.69242 0.70171 0.18927 0.0
C2927 C 0.69445 0.71538 0.20066 0.0
C2928 C 0.70334 0.70138 0.1739 0.0
C2929 C 0.67693 0.67455 0.18037 0.0
C2930 C 0.7157 0.68862 0.17162 0.0
C2931 C 0.72738 0.68973 0.15815 0.0
C2932 C 0.72693 0.70371 0.14689 0.0
C2933 C 0.71404 0.71605 0.14888 0.0
C2934 C 0.70241 0.7149 0.16226 0.0
H2935 H 0.66468 0.6679 0.18293 0.0
H2936 H 0.67698 0.67907 0.16694 0.0
H2937 H 0.68744 0.66517 0.18181 0.0
H2938 H 0.71676 0.67821 0.18064 0.0
H2939 H 0.73718 0.68005 0.15701 0.0
H2940 H 0.56154 0.49426 0.40566 0.0
H2941 H 0.56689 0.47614 0.43057 0.0
H2942 H 0.52975 0.43993 0.41233 0.0
H2943 H 0.52417 0.45795 0.38754 0.0
H2944 H 0.53744 0.46678 0.45333 0.0
H2945 H 0.57313 0.4112 0.42759 0.0
H2946 H 0.57346 0.43198 0.41758 0.0
H2947 H 0.55527 0.41831 0.41505 0.0
C2948 C 0.55478 0.48226 0.40677 0.0
C2949 C 0.54237 0.47756 0.39469 0.0
C2950 C 0.55785 0.47197 0.421 0.0
C2951 C 0.5488 0.4567 0.42313 0.0
C2952 C 0.537 0.45159 0.41073 0.0
H2953 H 0.52517 0.37864 0.49388 0.0
H2954 H 0.53081 0.39715 0.46946 0.0
C2955 C 0.53376 0.46195 0.39664 0.0
C2956 C 0.5501 0.44698 0.43917 0.0
H2957 H 0.56031 0.40779 0.45494 0.0
C2958 C 0.5427 0.45399 0.45386 0.0
C2959 C 0.55687 0.43031 0.4396 0.0
C2960 C 0.56527 0.42248 0.42417 0.0
C2961 C 0.541 0.44436 0.46883 0.0
C2962 C 0.54736 0.42745 0.46917 0.0
C2963 C 0.55543 0.42073 0.45464 0.0
C2964 C 0.54465 0.41611 0.48401 0.0
C2965 C 0.53156 0.45206 0.48376 0.0
C2966 C 0.55074 0.42053 0.50026 0.0
C2967 C 0.54729 0.41011 0.51429 0.0
C2968 C 0.53797 0.39493 0.51221 0.0
C2969 C 0.53234 0.39028 0.49586 0.0
C2970 C 0.5356 0.40081 0.4819 0.0
H2971 H 0.52396 0.4634 0.47993 0.0
H2972 H 0.52285 0.4426 0.48968 0.0
H2973 H 0.5409 0.45622 0.49354 0.0
H2974 H 0.55811 0.43207 0.5021 0.0
H2975 H 0.55196 0.41389 0.52673 0.0
H2976 H 0.71958 0.83234 0.68354 0.0
H2977 H 0.74522 0.816 0.67651 0.0
H2978 H 0.77485 0.848 0.71009 0.0
H2979 H 0.74938 0.86488 0.71656 0.0
H2980 H 0.79225 0.84055 0.68124 0.0
H2981 H 0.76467 0.78128 0.70858 0.0
H2982 H 0.75231 0.79009 0.69148 0.0
H2983 H 0.75462 0.8018 0.7111 0.0
C2984 C 0.73159 0.83592 0.68936 0.0
C2985 C 0.73249 0.84972 0.70076 0.0
C2986 C 0.7462 0.82655 0.68539 0.0
C2987 C 0.76185 0.83053 0.6931 0.0
C2988 C 0.76288 0.84467 0.70406 0.0
H2989 H 0.85646 0.78376 0.71413 0.0
H2990 H 0.83332 0.80391 0.70879 0.0
C2991 C 0.74832 0.85425 0.7078 0.0
C2992 C 0.777 0.81957 0.69036 0.0
H2993 H 0.79178 0.77899 0.69589 0.0
C2994 C 0.79213 0.82707 0.68436 0.0
C2995 C 0.77682 0.80198 0.69448 0.0
C2996 C 0.7613 0.79333 0.70192 0.0
C2997 C 0.80716 0.81748 0.68261 0.0
C2998 C 0.80696 0.80001 0.68693 0.0
C2999 C 0.79176 0.79239 0.69242 0.0
C3000 C 0.82268 0.78967 0.68769 0.0
C3001 C 0.82319 0.82608 0.67638 0.0
C3002 C 0.82447 0.77516 0.67738 0.0
C3003 C 0.83774 0.76362 0.68035 0.0
C3004 C 0.84917 0.76629 0.69392 0.0
C3005 C 0.8478 0.7813 0.70365 0.0
C3006 C 0.83467 0.7929 0.70054 0.0
H3007 H 0.82036 0.8383 0.66977 0.0
H3008 H 0.83155 0.82889 0.68745 0.0
H3009 H 0.83033 0.8176 0.66755 0.0
H3010 H 0.8152 0.77241 0.66751 0.0
H3011 H 0.83842 0.75215 0.67267 0.0
H3012 H 0.25232 0.62217 0.2827 0.0
H3013 H 0.27626 0.64211 0.28425 0.0
H3014 H 0.24288 0.68077 0.30479 0.0
H3015 H 0.21884 0.66103 0.30301 0.0
H3016 H 0.26055 0.69122 0.27633 0.0
H3017 H 0.30443 0.66197 0.32351 0.0
H3018 H 0.29763 0.64758 0.30702 0.0
H3019 H 0.28224 0.65599 0.3218 0.0
C3020 C 0.25015 0.63482 0.28784 0.0
C3021 C 0.2337 0.64011 0.2926 0.0
C3022 C 0.26386 0.64615 0.28882 0.0
C3023 C 0.26134 0.66285 0.29476 0.0
C3024 C 0.24507 0.6679 0.30022 0.0
H3025 H 0.33908 0.74115 0.30724 0.0
H3026 H 0.31632 0.7204 0.31209 0.0
C3027 C 0.23137 0.65661 0.29919 0.0
C3028 C 0.27518 0.67557 0.29355 0.0
H3029 H 0.31595 0.68421 0.3061 0.0
C3030 C 0.27261 0.68977 0.28296 0.0
C3031 C 0.29083 0.67367 0.3023 0.0
C3032 C 0.29394 0.65907 0.31443 0.0
C3033 C 0.28544 0.70195 0.28055 0.0
C3034 C 0.30134 0.69968 0.28874 0.0
C3035 C 0.30378 0.68575 0.2997 0.0
C3036 C 0.31558 0.71166 0.28594 0.0
C3037 C 0.28187 0.71717 0.26932 0.0
C3038 C 0.32284 0.71335 0.26968 0.0
C3039 C 0.33582 0.72518 0.26683 0.0
C3040 C 0.34181 0.7355 0.28023 0.0
C3041 C 0.33474 0.73347 0.29662 0.0
C3042 C 0.32176 0.7216 0.29944 0.0
H3043 H 0.26796 0.71921 0.2675 0.0
H3044 H 0.28751 0.72895 0.2748 0.0
H3045 H 0.28767 0.71502 0.25659 0.0
H3046 H 0.31836 0.70558 0.25916 0.0
H3047 H 0.341 0.72634 0.25407 0.0
H3048 H 0.49447 0.08555 0.56133 0.0
H3049 H 0.51427 0.06164 0.56524 0.0
H3050 H 0.54495 0.08005 0.52349 0.0
H3051 H 0.52521 0.10381 0.51932 0.0
H3052 H 0.5218 0.03867 0.53377 0.0
H3053 H 0.57846 0.06729 0.56549 0.0
H3054 H 0.55715 0.07573 0.56816 0.0
H3055 H 0.56855 0.07942 0.54867 0.0
C3056 C 0.50563 0.08471 0.55322 0.0
C3057 C 0.50825 0.09649 0.53996 0.0
C3058 C 0.51688 0.07105 0.55547 0.0
C3059 C 0.53105 0.06924 0.54472 0.0
C3060 C 0.53414 0.0814 0.53201 0.0
H3061 H 0.61097 -0.00059 0.51997 0.0
H3062 H 0.59221 0.02388 0.52493 0.0
C3063 C 0.52281 0.0949 0.5296 0.0
C3064 C 0.5416 0.05371 0.54534 0.0
H3065 H 0.58181 0.03956 0.55382 0.0
C3066 C 0.53486 0.03871 0.53837 0.0
C3067 C 0.5586 0.05404 0.55117 0.0
C3068 C 0.56619 0.06993 0.55891 0.0
C3069 C 0.54496 0.02409 0.5364 0.0
C3070 C 0.56211 0.02441 0.54206 0.0
C3071 C 0.56868 0.03934 0.5495 0.0
C3072 C 0.57365 0.00967 0.53965 0.0
C3073 C 0.53738 0.00877 0.5275 0.0
C3074 C 0.56956 0.99365 0.54648 0.0
C3075 C 0.58008 0.97962 0.5434 0.0
C3076 C 0.59508 0.98147 0.53376 0.0
C3077 C 0.59946 -0.00238 0.52739 0.0
C3078 C 0.58879 0.0116 0.53026 0.0
H3079 H 0.52589 0.01221 0.51996 0.0
H3080 H 0.5468 0.00271 0.51883 0.0
H3081 H 0.53348 -0.00078 0.53719 0.0
H3082 H 0.55819 0.99197 0.55415 0.0
H3083 H 0.57653 0.96735 0.54867 0.0
H3084 H 0.27494 0.32686 0.79856 0.0
H3085 H 0.24924 0.31076 0.80576 0.0
H3086 H 0.21861 0.34705 0.77792 0.0
H3087 H 0.24425 0.36357 0.7712 0.0
H3088 H 0.20416 0.33872 0.80826 0.0
H3089 H 0.22364 0.27988 0.77387 0.0
H3090 H 0.23856 0.28652 0.78989 0.0
H3091 H 0.23489 0.29979 0.77153 0.0
C3092 C 0.26273 0.33136 0.7939 0.0
C3093 C 0.26158 0.34638 0.7842 0.0
C3094 C 0.24807 0.32212 0.79798 0.0
C3095 C 0.23205 0.32754 0.79213 0.0
C3096 C 0.23086 0.34262 0.78254 0.0
H3097 H 0.13226 0.28928 0.78041 0.0
H3098 H 0.15713 0.30752 0.78458 0.0
C3099 C 0.2455 0.352 0.77864 0.0
C3100 C 0.21651 0.31748 0.79588 0.0
H3101 H 0.19815 0.2785 0.78979 0.0
C3102 C 0.20286 0.32553 0.80428 0.0
C3103 C 0.21486 0.30026 0.7907 0.0
C3104 C 0.22869 0.29113 0.78086 0.0
C3105 C 0.18751 0.31687 0.80742 0.0
C3106 C 0.18584 0.29978 0.80202 0.0
C3107 C 0.19962 0.29158 0.79409 0.0
C3108 C 0.16939 0.29064 0.80264 0.0
C3109 C 0.17314 0.32607 0.8163 0.0
C3110 C 0.16787 0.27532 0.81177 0.0
C3111 C 0.1536 0.26489 0.80948 0.0
C3112 C 0.14083 0.2695 0.79776 0.0
C3113 C 0.14191 0.28537 0.78948 0.0
C3114 C 0.15607 0.29586 0.79193 0.0
H3115 H 0.17779 0.33737 0.82348 0.0
H3116 H 0.16382 0.33054 0.80662 0.0
H3117 H 0.16636 0.31741 0.82522 0.0
H3118 H 0.17813 0.27105 0.81998 0.0
H3119 H 0.15318 0.25268 0.81594 0.0
H3120 H 0.36401 0.49098 0.54603 0.0
H3121 H 0.37961 0.46495 0.55362 0.0
H3122 H 0.42715 0.49244 0.54961 0.0
H3123 H 0.41165 0.51847 0.54293 0.0
H3124 H 0.39988 0.44778 0.53524 0.0
H3125 H 0.43712 0.46642 0.59146 0.0
H3126 H 0.4197 0.47931 0.5837 0.0
H3127 H 0.44094 0.48192 0.57516 0.0
C3128 C 0.37778 0.49147 0.5471 0.0
C3129 C 0.38664 0.50671 0.54395 0.0
C3130 C 0.38667 0.47663 0.55147 0.0
C3131 C 0.40456 0.47678 0.55259 0.0
C3132 C 0.41335 0.49208 0.54952 0.0
H3133 H 0.4751 0.4079 0.51512 0.0
H3134 H 0.45209 0.42752 0.52196 0.0
C3135 C 0.40447 0.50694 0.54547 0.0
C3136 C 0.4143 0.46069 0.55482 0.0
H3137 H 0.45086 0.44519 0.57261 0.0
C3138 C 0.41075 0.44706 0.54376 0.0
C3139 C 0.42819 0.45935 0.56628 0.0
C3140 C 0.43153 0.47249 0.57994 0.0
C3141 C 0.42165 0.43294 0.54271 0.0
C3142 C 0.43683 0.43279 0.55246 0.0
C3143 C 0.43949 0.44555 0.56473 0.0
C3144 C 0.45086 0.42068 0.5487 0.0
C3145 C 0.41699 0.41858 0.53075 0.0
C3146 C 0.45847 0.41093 0.56165 0.0
C3147 C 0.472 0.39989 0.55783 0.0
C3148 C 0.47802 0.39843 0.54098 0.0
C3149 C 0.47056 0.40848 0.52817 0.0
C3150 C 0.45728 0.41961 0.53203 0.0
H3151 H 0.40292 0.41714 0.52987 0.0
H3152 H 0.42177 0.42157 0.51777 0.0
H3153 H 0.42257 0.40626 0.53494 0.0
H3154 H 0.45387 0.41175 0.57466 0.0
H3155 H 0.47753 0.39231 0.56797 0.0
H3156 H 0.64751 0.22764 0.23066 0.0
H3157 H 0.67117 0.20774 0.22738 0.0
H3158 H 0.6749 0.22051 0.17402 0.0
H3159 H 0.65104 0.24047 0.17707 0.0
H3160 H 0.67699 0.18452 0.1817 0.0
H3161 H 0.72106 0.22374 0.22086 0.0
H3162 H 0.70109 0.21908 0.23107 0.0
H3163 H 0.70143 0.23208 0.21218 0.0
C3164 C 0.65326 0.22622 0.21817 0.0
C3165 C 0.64742 0.23577 0.20414 0.0
C3166 C 0.66683 0.21487 0.21636 0.0
C3167 C 0.67489 0.21289 0.20053 0.0
C3168 C 0.66885 0.22197 0.18636 0.0
H3169 H 0.77464 0.16608 0.19064 0.0
H3170 H 0.74992 0.18482 0.18765 0.0
C3171 C 0.65524 0.23337 0.18815 0.0
C3172 C 0.68987 0.20155 0.19898 0.0
H3173 H 0.73016 0.1956 0.21418 0.0
C3174 C 0.68869 0.18696 0.18868 0.0
C3175 C 0.70513 0.20495 0.20794 0.0
C3176 C 0.70738 0.22089 0.21852 0.0
C3177 C 0.70228 0.17535 0.18751 0.0
C3178 C 0.71728 0.17839 0.19706 0.0
C3179 C 0.71859 0.19324 0.20697 0.0
C3180 C 0.73179 0.16633 0.1972 0.0
C3181 C 0.70053 0.16002 0.176 0.0
C3182 C 0.72975 0.14966 0.20342 0.0
C3183 C 0.74387 0.13888 0.20509 0.0
C3184 C 0.76024 0.1447 0.20073 0.0
C3185 C 0.76217 0.16126 0.19415 0.0
C3186 C 0.74808 0.17197 0.19242 0.0
H3187 H 0.69051 0.162 0.16617 0.0
H3188 H 0.71277 0.15708 0.16951 0.0
H3189 H 0.69684 0.14878 0.18377 0.0
H3190 H 0.71735 0.14518 0.20752 0.0
H3191 H 0.74201 0.12621 0.21026 0.0
H3192 H 0.62245 0.99243 0.96523 0.0
H3193 H 0.6052 0.96694 0.96031 0.0
H3194 H 0.56901 -0.00313 0.9316 0.0
H3195 H 0.58588 0.0225 0.93699 0.0
H3196 H 0.5537 0.97897 0.95571 0.0
H3197 H 0.59709 0.93598 0.92027 0.0
H3198 H 0.6065 0.94357 0.93969 0.0
H3199 H 0.60144 0.95845 0.92294 0.0
C3200 C 0.61095 0.99352 0.95765 0.0
C3201 C 0.60542 0.00945 0.9516 0.0
C3202 C 0.60118 0.97891 0.95471 0.0
C3203 C 0.58593 0.97995 0.94538 0.0
C3204 C 0.58076 -0.00424 0.93878 0.0
H3205 H 0.50484 0.90457 0.93088 0.0
H3206 H 0.52489 0.92794 0.92562 0.0
C3207 C 0.5904 0.01039 0.9419 0.0
C3208 C 0.57441 0.96503 0.94416 0.0
H3209 H 0.57276 0.92276 0.93368 0.0
C3210 C 0.55779 0.96677 0.95061 0.0
C3211 C 0.57978 0.94911 0.93754 0.0
C3212 C 0.59713 0.94669 0.92956 0.0
C3213 C 0.54659 0.95288 0.95116 0.0
C3214 C 0.55217 0.93687 0.94512 0.0
C3215 C 0.56861 0.93512 0.93831 0.0
C3216 C 0.54131 0.92165 0.94686 0.0
C3217 C 0.52905 0.95521 0.95876 0.0
C3218 C 0.5442 0.9103 0.96033 0.0
C3219 C 0.53276 0.89704 0.96347 0.0
C3220 C 0.51827 0.89487 0.9531 0.0
C3221 C 0.51585 0.90588 0.93912 0.0
C3222 C 0.52727 0.91922 0.93607 0.0
H3223 H 0.52718 0.96819 0.96415 0.0
H3224 H 0.51926 0.95304 0.94877 0.0
H3225 H 0.52689 0.94567 0.96901 0.0
H3226 H 0.55498 0.91208 0.96879 0.0
H3227 H 0.53509 0.88874 0.97426 0.0
H3228 H 0.97147 0.08615 0.48044 0.0
H3229 H 0.95256 0.0622 0.47445 0.0
H3230 H 0.97216 0.05916 0.42315 0.0
H3231 H 0.99111 0.08328 0.4289 0.0
H3232 H 0.93582 0.05698 0.42577 0.0
H3233 H 0.96899 0.01234 0.46953 0.0
H3234 H 0.96307 0.03218 0.47937 0.0
H3235 H 0.97848 0.03207 0.46237 0.0
C3236 C 0.97178 0.08046 0.46785 0.0
C3237 C 0.9829 0.0866 0.45518 0.0
C3238 C 0.96101 0.06672 0.46449 0.0
C3239 C 0.96119 0.0588 0.44846 0.0
C3240 C 0.97194 0.06509 0.43563 0.0
H3241 H 0.91255 0.95996 0.43585 0.0
H3242 H 0.93257 0.98365 0.43285 0.0
C3243 C 0.98276 0.07885 0.43897 0.0
C3244 C 0.95016 0.0439 0.44522 0.0
H3245 H 0.94152 0.00384 0.45967 0.0
C3246 C 0.93713 0.04527 0.43303 0.0
C3247 C 0.95215 0.02859 0.4545 0.0
C3248 C 0.96653 0.02609 0.46706 0.0
C3249 C 0.92552 0.0319 0.43042 0.0
C3250 C 0.92693 0.01697 0.44042 0.0
C3251 C 0.9404 0.01537 0.45209 0.0
C3252 C 0.9142 0.00309 0.43969 0.0
C3253 C 0.91184 0.0339 0.41704 0.0
C3254 C 0.89717 0.00624 0.44424 0.0
C3255 C 0.88569 0.99274 0.44592 0.0
C3256 C 0.89113 0.97587 0.44326 0.0
C3257 C 0.908 0.97283 0.43804 0.0
C3258 C 0.91945 0.98633 0.43631 0.0
H3259 H 0.91554 0.04342 0.40722 0.0
H3260 H 0.90912 0.02156 0.41063 0.0
H3261 H 0.89993 0.03842 0.42321 0.0
H3262 H 0.89295 0.01906 0.44725 0.0
H3263 H 0.87276 -0.00454 0.44997 0.0
H3264 H 0.05062 0.10338 0.39707 0.0
H3265 H 0.07641 0.1023 0.37921 0.0
H3266 H 0.0951 0.14787 0.40369 0.0
H3267 H 0.06969 0.1489 0.42164 0.0
H3268 H 0.09872 0.1421 0.36306 0.0
H3269 H 0.1244 0.09311 0.4077 0.0
H3270 H 0.10292 0.09199 0.39944 0.0
H3271 H 0.10821 0.10757 0.41534 0.0
C3272 C 0.06005 0.11341 0.39828 0.0
C3273 C 0.05829 0.12617 0.41079 0.0
C3274 C 0.07473 0.11273 0.38812 0.0
C3275 C 0.08757 0.12497 0.39026 0.0
C3276 C 0.08524 0.13835 0.4019 0.0
H3277 H 0.17177 0.17082 0.40139 0.0
H3278 H 0.14683 0.15229 0.39985 0.0
C3279 C 0.07077 0.13891 0.41215 0.0
C3280 C 0.1044 0.12321 0.38211 0.0
H3281 H 0.14441 0.11124 0.39409 0.0
C3282 C 0.10871 0.13474 0.36917 0.0
C3283 C 0.1173 0.11354 0.39016 0.0
C3284 C 0.1131 0.10077 0.40391 0.0
C3285 C 0.12584 0.13832 0.36551 0.0
C3286 C 0.13874 0.13032 0.37523 0.0
C3287 C 0.13443 0.1173 0.38667 0.0
C3288 C 0.15536 0.13877 0.37735 0.0
C3289 C 0.13004 0.15216 0.35282 0.0
C3290 C 0.16863 0.13677 0.36551 0.0
C3291 C 0.18307 0.14725 0.36652 0.0
C3292 C 0.18411 0.15993 0.37918 0.0
C3293 C 0.17121 0.16118 0.39149 0.0
C3294 C 0.15701 0.1506 0.39065 0.0
H3295 H 0.11884 0.15564 0.34487 0.0
H3296 H 0.13442 0.16371 0.35974 0.0
H3297 H 0.14057 0.14795 0.34433 0.0
H3298 H 0.16745 0.12772 0.35514 0.0
H3299 H 0.19285 0.14618 0.35681 0.0
H3300 H 0.05434 0.91502 0.64348 0.0
H3301 H 0.06933 0.88814 0.63946 0.0
H3302 H 0.10721 0.91344 0.60863 0.0
H3303 H 0.0922 0.94075 0.61272 0.0
H3304 H 0.07654 0.87363 0.60474 0.0
H3305 H 0.13382 0.88396 0.64569 0.0
H3306 H 0.1147 0.89626 0.64934 0.0
H3307 H 0.12712 0.8999 0.6305 0.0
C3308 C 0.06597 0.91497 0.63601 0.0
C3309 C 0.07208 0.92996 0.62838 0.0
C3310 C 0.07447 0.89959 0.63366 0.0
C3311 C 0.08924 0.89883 0.62363 0.0
C3312 C 0.09581 0.91383 0.61642 0.0
H3313 H 0.1326 0.79795 0.64182 0.0
H3314 H 0.13024 0.82318 0.62329 0.0
C3315 C 0.08728 0.92938 0.61884 0.0
C3316 C 0.0972 0.88201 0.62082 0.0
H3317 H 0.12591 0.8556 0.63987 0.0
C3318 C 0.08772 0.86972 0.61189 0.0
C3319 C 0.11191 0.87704 0.62992 0.0
C3320 C 0.12258 0.8899 0.63943 0.0
C3321 C 0.09142 0.85232 0.61353 0.0
C3322 C 0.10478 0.84721 0.62445 0.0
C3323 C 0.11559 0.8596 0.63156 0.0
C3324 C 0.105 0.83002 0.63211 0.0
C3325 C 0.08011 0.83948 0.60477 0.0
C3326 C 0.09145 0.8254 0.64286 0.0
C3327 C 0.0929 0.81133 0.65358 0.0
C3328 C 0.10783 0.80151 0.65357 0.0
C3329 C 0.12088 0.80528 0.64187 0.0
C3330 C 0.11958 0.81965 0.63134 0.0
H3331 H 0.07491 0.84472 0.59267 0.0
H3332 H 0.08713 0.82748 0.60199 0.0
H3333 H 0.06916 0.83641 0.61321 0.0
H3334 H 0.08024 0.83342 0.6439 0.0
H3335 H 0.08271 0.80867 0.66254 0.0
H3336 H 0.42518 0.83972 0.92471 0.0
H3337 H 0.39845 0.84156 0.90882 0.0
H3338 H 0.41445 0.88938 0.88688 0.0
H3339 H 0.44163 0.88739 0.90252 0.0
H3340 H 0.37925 0.88303 0.91102 0.0
H3341 H 0.38906 0.8456 0.8516 0.0
H3342 H 0.39967 0.83777 0.87043 0.0
H3343 H 0.40586 0.85794 0.86154 0.0
C3344 C 0.4232 0.85041 0.91618 0.0
C3345 C 0.43538 0.86342 0.91482 0.0
C3346 C 0.40797 0.85144 0.90712 0.0
C3347 C 0.40459 0.8656 0.89676 0.0
C3348 C 0.41699 0.87832 0.89476 0.0
H3349 H 0.30085 0.84724 0.8591 0.0
H3350 H 0.32648 0.86526 0.86087 0.0
C3351 C 0.43246 0.87713 0.90362 0.0
C3352 C 0.38728 0.86753 0.88979 0.0
H3353 H 0.36046 0.84701 0.86252 0.0
C3354 C 0.3751 0.87574 0.90001 0.0
C3355 C 0.38202 0.85809 0.87542 0.0
C3356 C 0.39482 0.84941 0.86398 0.0
C3357 C 0.35763 0.87312 0.89729 0.0
C3358 C 0.35241 0.86204 0.8841 0.0
C3359 C 0.36454 0.85549 0.87267 0.0
C3360 C 0.33544 0.85396 0.88438 0.0
C3361 C 0.34493 0.88098 0.90941 0.0
C3362 C 0.332 0.84192 0.89715 0.0
C3363 C 0.31769 0.83147 0.89599 0.0
C3364 C 0.30646 0.83308 0.88218 0.0
C3365 C 0.30927 0.84591 0.86997 0.0
C3366 C 0.32386 0.85616 0.87093 0.0
H3367 H 0.35011 0.89273 0.9154 0.0
H3368 H 0.33284 0.88412 0.90273 0.0
H3369 H 0.342 0.87172 0.91971 0.0
H3370 H 0.34095 0.83989 0.90749 0.0
H3371 H 0.31579 0.82165 0.90553 0.0
H3372 H 0.40128 0.16971 0.16342 0.0
H3373 H 0.39796 0.14543 0.14421 0.0
H3374 H 0.34752 0.16278 0.13071 0.0
H3375 H 0.35109 0.18761 0.14963 0.0
H3376 H 0.35085 0.12881 0.14708 0.0
H3377 H 0.39356 0.13601 0.09149 0.0
H3378 H 0.40303 0.14384 0.11084 0.0
H3379 H 0.3842 0.15403 0.10253 0.0
C3380 C 0.38976 0.16869 0.15586 0.0
C3381 C 0.37646 0.18045 0.1579 0.0
C3382 C 0.38789 0.15489 0.14484 0.0
C3383 C 0.37255 0.15243 0.13594 0.0
C3384 C 0.35953 0.16464 0.13728 0.0
H3385 H 0.39273 0.04847 0.10215 0.0
H3386 H 0.37416 0.07377 0.10026 0.0
C3387 C 0.36159 0.17877 0.14803 0.0
C3388 C 0.3695 0.13561 0.12806 0.0
H3389 H 0.39119 0.1072 0.1034 0.0
C3390 C 0.35908 0.12412 0.13699 0.0
C3391 C 0.38003 0.12956 0.11476 0.0
C3392 C 0.39072 0.14156 0.10422 0.0
C3393 C 0.36085 0.10647 0.13464 0.0
C3394 C 0.37327 0.10037 0.12311 0.0
C3395 C 0.38178 0.11192 0.1124 0.0
C3396 C 0.38091 0.0833 0.12526 0.0
C3397 C 0.35072 0.09448 0.14572 0.0
C3398 C 0.39056 0.08024 0.14003 0.0
C3399 C 0.40136 0.06618 0.14094 0.0
C3400 C 0.40244 0.05476 0.12724 0.0
C3401 C 0.39186 0.05704 0.11296 0.0
C3402 C 0.38131 0.07144 0.11185 0.0
H3403 H 0.33829 0.10021 0.1494 0.0
H3404 H 0.34839 0.08216 0.1391 0.0
H3405 H 0.35798 0.09185 0.15758 0.0
H3406 H 0.39068 0.08942 0.15037 0.0
H3407 H 0.4095 0.06468 0.15201 0.0
H3408 H 0.16889 0.82585 0.09051 0.0
H3409 H 0.14283 0.84251 0.09439 0.0
H3410 H 0.16245 0.86268 0.14166 0.0
H3411 H 0.18899 0.84636 0.13749 0.0
H3412 H 0.12869 0.84147 0.14094 0.0
H3413 H 0.1309 0.8964 0.09658 0.0
H3414 H 0.14018 0.87719 0.0881 0.0
H3415 H 0.14979 0.88733 0.10629 0.0
C3416 C 0.16789 0.83432 0.1014 0.0
C3417 C 0.18088 0.83495 0.11365 0.0
C3418 C 0.15305 0.84382 0.10361 0.0
C3419 C 0.15082 0.85384 0.11827 0.0
C3420 C 0.16408 0.85515 0.13019 0.0
H3421 H 0.04711 0.8845 0.09854 0.0
H3422 H 0.07163 0.88679 0.11788 0.0
C3423 C 0.1792 0.84592 0.12775 0.0
C3424 C 0.13364 0.86062 0.12185 0.0
H3425 H 0.10313 0.88366 0.10138 0.0
C3426 C 0.12311 0.85121 0.13284 0.0
C3427 C 0.12647 0.87344 0.11148 0.0
C3428 C 0.13744 0.88431 0.10004 0.0
C3429 C 0.1053 0.85274 0.13198 0.0
C3430 C 0.09805 0.86387 0.11982 0.0
C3431 C 0.10868 0.87498 0.11063 0.0
C3432 C 0.08063 0.86112 0.11315 0.0
C3433 C 0.09439 0.84135 0.14297 0.0
C3434 C 0.07721 0.84572 0.10465 0.0
C3435 C 0.06349 0.84452 0.09344 0.0
C3436 C 0.05282 0.85861 0.09074 0.0
C3437 C 0.05508 0.8734 0.10061 0.0
C3438 C 0.06908 0.87474 0.11161 0.0
H3439 H 0.10071 0.83877 0.15539 0.0
H3440 H 0.08167 0.84711 0.14535 0.0
H3441 H 0.09256 0.82893 0.13642 0.0
H3442 H 0.08612 0.83517 0.10535 0.0
H3443 H 0.06202 0.83304 0.08587 0.0
H3444 H 0.39499 0.94346 0.38523 0.0
H3445 H 0.37704 0.91782 0.38747 0.0
H3446 H 0.39527 0.90091 0.33838 0.0
H3447 H 0.41331 0.92616 0.33621 0.0
H3448 H 0.35735 0.89489 0.34779 0.0
H3449 H 0.40658 0.87169 0.39362 0.0
H3450 H 0.39648 0.8922 0.39634 0.0
H3451 H 0.41159 0.8891 0.37944 0.0
C3452 C 0.39467 0.93453 0.37468 0.0
C3453 C 0.40559 0.93663 0.36059 0.0
C3454 C 0.38449 0.91992 0.37602 0.0
C3455 C 0.38498 0.90751 0.36314 0.0
C3456 C 0.39473 0.91041 0.34842 0.0
H3457 H 0.39977 0.8227 0.31935 0.0
H3458 H 0.39783 0.84732 0.33827 0.0
C3459 C 0.40504 0.92479 0.3472 0.0
C3460 C 0.37771 0.89035 0.36558 0.0
H3461 H 0.39226 0.85105 0.37714 0.0
C3462 C 0.36436 0.88527 0.35485 0.0
C3463 C 0.38692 0.87793 0.37486 0.0
C3464 C 0.4012 0.88287 0.38678 0.0
C3465 C 0.36139 0.86795 0.35153 0.0
C3466 C 0.37217 0.8556 0.35906 0.0
C3467 C 0.38406 0.86061 0.37142 0.0
C3468 C 0.37464 0.83895 0.35069 0.0
C3469 C 0.3482 0.86304 0.33841 0.0
C3470 C 0.36258 0.8258 0.35196 0.0
C3471 C 0.36378 0.81156 0.34122 0.0
C3472 C 0.37689 0.81056 0.329 0.0
C3473 C 0.3895 0.82323 0.3286 0.0
C3474 C 0.38843 0.83724 0.33943 0.0
H3475 H 0.34024 0.87408 0.33445 0.0
H3476 H 0.35462 0.85774 0.32695 0.0
H3477 H 0.33972 0.85298 0.34364 0.0
H3478 H 0.35185 0.82697 0.36059 0.0
H3479 H 0.35386 0.80196 0.34169 0.0
H3480 H 0.41802 0.15453 0.57259 0.0
H3481 H 0.39223 0.1527 0.58999 0.0
H3482 H 0.41078 0.10633 0.61303 0.0
H3483 H 0.43701 0.10838 0.59591 0.0
H3484 H 0.37681 0.1063 0.59305 0.0
H3485 H 0.3815 0.15536 0.64374 0.0
H3486 H 0.39004 0.16196 0.62349 0.0
H3487 H 0.39996 0.14468 0.63484 0.0
C3488 C 0.41684 0.14426 0.58176 0.0
C3489 C 0.42943 0.13161 0.58296 0.0
C3490 C 0.40216 0.14324 0.59171 0.0
C3491 C 0.39971 0.12942 0.6028 0.0
C3492 C 0.41259 0.11716 0.60465 0.0
H3493 H 0.2966 0.14995 0.63708 0.0
H3494 H 0.32199 0.1317 0.63907 0.0
C3495 C 0.42753 0.11839 0.59493 0.0
C3496 C 0.38264 0.12692 0.61028 0.0
H3497 H 0.35321 0.14949 0.63281 0.0
C3498 C 0.37167 0.11526 0.60227 0.0
C3499 C 0.37607 0.13847 0.62241 0.0
C3500 C 0.38753 0.15074 0.63176 0.0
C3501 C 0.35396 0.11636 0.60451 0.0
C3502 C 0.34725 0.12939 0.61498 0.0
C3503 C 0.35838 0.13954 0.62469 0.0
C3504 C 0.32959 0.1356 0.61283 0.0
C3505 C 0.3425 0.10455 0.59457 0.0
C3506 C 0.3252 0.14328 0.59727 0.0
C3507 C 0.31101 0.15392 0.59622 0.0
C3508 C 0.30084 0.15679 0.61064 0.0
C3509 C 0.30418 0.14772 0.62573 0.0
C3510 C 0.31866 0.13735 0.6269 0.0
H3511 H 0.34887 0.09212 0.59216 0.0
H3512 H 0.33031 0.10228 0.60143 0.0
H3513 H 0.33955 0.11042 0.58203 0.0
H3514 H 0.33364 0.14237 0.58635 0.0
H3515 H 0.3087 0.16087 0.5845 0.0
H3516 H 0.09463 0.16853 0.80868 0.0
H3517 H 0.09694 0.14118 0.82316 0.0
H3518 H 0.12956 0.16371 0.86128 0.0
H3519 H 0.12724 0.1915 0.84676 0.0
H3520 H 0.13191 0.12513 0.83001 0.0
H3521 H 0.09014 0.13492 0.8868 0.0
H3522 H 0.08664 0.14744 0.86779 0.0
H3523 H 0.10544 0.15087 0.88032 0.0
C3524 C 0.10213 0.16779 0.82026 0.0
C3525 C 0.11082 0.18211 0.82656 0.0
C3526 C 0.10348 0.15214 0.82848 0.0
C3527 C 0.11354 0.15046 0.84314 0.0
C3528 C 0.12175 0.16483 0.84995 0.0
H3529 H 0.09469 0.04809 0.88361 0.0
H3530 H 0.11247 0.07387 0.88196 0.0
C3531 C 0.12034 0.18065 0.84171 0.0
C3532 C 0.11557 0.13331 0.85055 0.0
H3533 H 0.0952 0.10657 0.87804 0.0
C3534 C 0.12439 0.12107 0.8409 0.0
C3535 C 0.10594 0.12815 0.86485 0.0
C3536 C 0.09648 0.14095 0.87565 0.0
C3537 C 0.12229 0.10362 0.84406 0.0
C3538 C 0.111 0.09841 0.85707 0.0
C3539 C 0.10381 0.11065 0.86801 0.0
C3540 C 0.10338 0.0812 0.85697 0.0
C3541 C 0.13104 0.09088 0.83261 0.0
C3542 C 0.0927 0.07671 0.84333 0.0
C3543 C 0.0824 0.06229 0.84436 0.0
C3544 C 0.08277 0.05199 0.85897 0.0
C3545 C 0.09435 0.05577 0.87213 0.0
C3546 C 0.10445 0.07047 0.87124 0.0
H3547 H 0.14316 0.09613 0.82746 0.0
H3548 H 0.13379 0.07883 0.83953 0.0
H3549 H 0.12259 0.08791 0.82165 0.0
H3550 H 0.09147 0.08501 0.83234 0.0
H3551 H 0.07355 0.05964 0.83408 0.0
H3552 H 0.1487 0.36214 0.19254 0.0
H3553 H 0.12919 0.36155 0.16786 0.0
H3554 H 0.16193 0.39687 0.14132 0.0
H3555 H 0.18127 0.39755 0.16558 0.0
H3556 H 0.11628 0.3973 0.14666 0.0
H3557 H 0.15325 0.34719 0.11303 0.0
H3558 H 0.15079 0.34776 0.136 0.0
H3559 H 0.16583 0.36164 0.12569 0.0
C3560 C 0.15154 0.36995 0.18151 0.0
C3561 C 0.16653 0.37982 0.18089 0.0
C3562 C 0.14047 0.36952 0.16746 0.0
C3563 C 0.14434 0.379 0.15281 0.0
C3564 C 0.1589 0.38934 0.15251 0.0
H3565 H 0.14064 0.43604 0.07463 0.0
H3566 H 0.13847 0.41908 0.10046 0.0
C3567 C 0.16991 0.38973 0.16638 0.0
C3568 C 0.13381 0.37833 0.1373 0.0
H3569 H 0.14057 0.36918 0.09538 0.0
C3570 C 0.12092 0.39056 0.13549 0.0
C3571 C 0.13974 0.36937 0.12284 0.0
C3572 C 0.15308 0.35562 0.12443 0.0
C3573 C 0.1156 0.39575 0.11924 0.0
C3574 C 0.12362 0.3887 0.1047 0.0
C3575 C 0.13459 0.37472 0.10657 0.0
C3576 C 0.12444 0.39845 0.08864 0.0
C3577 C 0.1028 0.41003 0.11773 0.0
C3578 C 0.11787 0.39208 0.07327 0.0
C3579 C 0.11915 0.40181 0.05831 0.0
C3580 C 0.1272 0.41786 0.05862 0.0
C3581 C 0.13427 0.4238 0.07396 0.0
C3582 C 0.1329 0.41419 0.08878 0.0
H3583 H 0.09381 0.40998 0.12869 0.0
H3584 H 0.10963 0.42243 0.1178 0.0
H3585 H 0.09544 0.40905 0.10567 0.0
H3586 H 0.11157 0.37979 0.07292 0.0
H3587 H 0.11358 0.39694 0.04664 0.0
H3588 H 0.64589 0.13276 0.80211 0.0
H3589 H 0.62781 0.13582 0.82761 0.0
H3590 H 0.64658 0.08765 0.84646 0.0
H3591 H 0.66465 0.08468 0.82133 0.0
H3592 H 0.60984 0.09587 0.85344 0.0
H3593 H 0.65687 0.1459 0.87218 0.0
H3594 H 0.64556 0.14734 0.85222 0.0
H3595 H 0.66171 0.13137 0.85499 0.0
C3596 C 0.64561 0.12256 0.81142 0.0
C3597 C 0.65672 0.10855 0.80993 0.0
C3598 C 0.63538 0.12437 0.82598 0.0
C3599 C 0.63605 0.11204 0.83895 0.0
C3600 C 0.64589 0.09728 0.83657 0.0
H3601 H 0.65516 0.07653 0.92756 0.0
H3602 H 0.65216 0.09361 0.90174 0.0
C3603 C 0.65623 0.0956 0.82225 0.0
C3604 C 0.62905 0.11523 0.85615 0.0
H3605 H 0.64355 0.13061 0.89417 0.0
C3606 C 0.61658 0.10403 0.86235 0.0
C3607 C 0.63791 0.12594 0.86766 0.0
C3608 C 0.65128 0.13837 0.86155 0.0
C3609 C 0.61421 0.10178 0.87995 0.0
C3610 C 0.62465 0.11095 0.89146 0.0
C3611 C 0.63561 0.12362 0.88525 0.0
C3612 C 0.6277 0.1043 0.90881 0.0
C3613 C 0.60204 0.08819 0.88608 0.0
C3614 C 0.61531 0.10536 0.92168 0.0
C3615 C 0.61713 0.09571 0.93662 0.0
C3616 C 0.63121 0.08477 0.93862 0.0
C3617 C 0.64417 0.08482 0.92629 0.0
C3618 C 0.64247 0.09459 0.91156 0.0
H3619 H 0.59464 0.08242 0.87546 0.0
H3620 H 0.60925 0.07793 0.89266 0.0
H3621 H 0.59296 0.09376 0.89541 0.0
H3622 H 0.60384 0.11282 0.91975 0.0
H3623 H 0.6069 0.09579 0.94591 0.0
H3624 H 0.82611 0.9055 0.31589 0.0
H3625 H 0.84268 0.90165 0.34199 0.0
H3626 H 0.85828 0.8517 0.32496 0.0
H3627 H 0.84203 0.85574 0.29843 0.0
H3628 H 0.83848 0.85443 0.35757 0.0
H3629 H 0.89477 0.89695 0.35551 0.0
H3630 H 0.87591 0.90648 0.34662 0.0
H3631 H 0.88511 0.88803 0.33653 0.0
C3632 C 0.8336 0.89398 0.31743 0.0
C3633 C 0.83287 0.88094 0.30521 0.0
C3634 C 0.84308 0.8918 0.33229 0.0
C3635 C 0.85175 0.87643 0.33531 0.0
C3636 C 0.85182 0.86371 0.32272 0.0
H3637 H 0.88366 0.89273 0.43997 0.0
H3638 H 0.88491 0.87462 0.4144 0.0
C3639 C 0.84261 0.86607 0.30759 0.0
C3640 C 0.85813 0.87303 0.35269 0.0
H3641 H 0.88178 0.89264 0.38334 0.0
C3642 C 0.84841 0.86226 0.36319 0.0
C3643 C 0.8712 0.88305 0.35992 0.0
C3644 C 0.88248 0.89417 0.34903 0.0
C3645 C 0.85001 0.86294 0.381 0.0
C3646 C 0.86156 0.87466 0.38832 0.0
C3647 C 0.87281 0.88373 0.37772 0.0
C3648 C 0.85939 0.88088 0.406 0.0
C3649 C 0.83837 0.85217 0.39186 0.0
C3650 C 0.84442 0.88986 0.41001 0.0
C3651 C 0.84381 0.90036 0.42433 0.0
C3652 C 0.85807 0.90186 0.435 0.0
C3653 C 0.87243 0.89156 0.43202 0.0
C3654 C 0.87318 0.88127 0.41741 0.0
H3655 H 0.83511 0.84004 0.3853 0.0
H3656 H 0.84428 0.84923 0.40439 0.0
H3657 H 0.8263 0.85923 0.39415 0.0
H3658 H 0.83376 0.89003 0.40122 0.0
H3659 H 0.83267 0.9083 0.42635 0.0
H3660 H 0.82608 0.08695 0.17812 0.0
H3661 H 0.84559 0.08472 0.15399 0.0
H3662 H 0.86514 0.13499 0.1649 0.0
H3663 H 0.84579 0.13706 0.18959 0.0
H3664 H 0.84938 0.12908 0.13106 0.0
H3665 H 0.89845 0.08091 0.14645 0.0
H3666 H 0.87771 0.07507 0.15424 0.0
H3667 H 0.88806 0.0938 0.16256 0.0
C3668 C 0.83494 0.09728 0.17571 0.0
C3669 C 0.83452 0.11214 0.18562 0.0
C3670 C 0.84613 0.09597 0.162 0.0
C3671 C 0.8569 0.10963 0.15779 0.0
C3672 C 0.85708 0.12424 0.16813 0.0
H3673 H 0.88092 0.09639 0.04813 0.0
H3674 H 0.88335 0.11169 0.07545 0.0
C3675 C 0.84609 0.12539 0.18219 0.0
C3676 C 0.86553 0.10926 0.14106 0.0
H3677 H 0.88848 0.08141 0.11692 0.0
C3678 C 0.85849 0.11915 0.12791 0.0
C3679 C 0.87747 0.0964 0.13711 0.0
C3680 C 0.886 0.08604 0.15088 0.0
C3681 C 0.86136 0.11495 0.11073 0.0
C3682 C 0.87168 0.10069 0.10682 0.0
C3683 C 0.88041 0.09223 0.11998 0.0
C3684 C 0.87055 0.09209 0.09009 0.0
C3685 C 0.8519 0.12456 0.097 0.0
C3686 C 0.86251 0.07615 0.08934 0.0
C3687 C 0.86114 0.06746 0.07393 0.0
C3688 C 0.86777 0.07455 0.05889 0.0
C3689 C 0.87558 0.0907 0.05953 0.0
C3690 C 0.87702 0.09942 0.07509 0.0
H3691 H 0.84375 0.13488 0.1023 0.0
H3692 H 0.86117 0.13034 0.08801 0.0
H3693 H 0.84372 0.11566 0.08962 0.0
H3694 H 0.85729 0.07036 0.10076 0.0
H3695 H 0.85503 0.05507 0.07388 0.0
H3696 H 0.33678 0.5793 0.56191 0.0
H3697 H 0.34002 0.59702 0.58728 0.0
H3698 H 0.39243 0.60698 0.57382 0.0
H3699 H 0.38903 0.58953 0.54797 0.0
H3700 H 0.38681 0.5891 0.60546 0.0
H3701 H 0.34737 0.64738 0.60212 0.0
H3702 H 0.33664 0.62928 0.59307 0.0
H3703 H 0.35595 0.63702 0.58334 0.0
C3704 C 0.34874 0.58592 0.56395 0.0
C3705 C 0.36263 0.58315 0.55306 0.0
C3706 C 0.35058 0.59609 0.57841 0.0
C3707 C 0.36644 0.6034 0.58236 0.0
C3708 C 0.38004 0.60163 0.57085 0.0
H3709 H 0.35006 0.63323 0.68861 0.0
H3710 H 0.36742 0.63456 0.66252 0.0
C3711 C 0.37806 0.59174 0.5561 0.0
C3712 C 0.36926 0.60956 0.59995 0.0
H3713 H 0.3489 0.63339 0.63004 0.0
C3714 C 0.37907 0.59925 0.61083 0.0
C3715 C 0.35936 0.62289 0.60692 0.0
C3716 C 0.34937 0.63489 0.59571 0.0
C3717 C 0.37744 0.60051 0.62859 0.0
C3718 C 0.36578 0.61237 0.6355 0.0
C3719 C 0.35772 0.62416 0.62469 0.0
C3720 C 0.35877 0.61021 0.65286 0.0
C3721 C 0.38706 0.58821 0.6398 0.0
C3722 C 0.34853 0.59591 0.65616 0.0
C3723 C 0.33844 0.59528 0.67078 0.0
C3724 C 0.33862 0.60882 0.68246 0.0
C3725 C 0.34989 0.62253 0.67987 0.0
C3726 C 0.35974 0.62334 0.66498 0.0
H3727 H 0.3991 0.58399 0.63361 0.0
H3728 H 0.39008 0.59404 0.65235 0.0
H3729 H 0.37907 0.57674 0.64203 0.0
H3730 H 0.34739 0.58578 0.64682 0.0
H3731 H 0.3298 0.58462 0.67249 0.0
H3732 H 0.146 0.62889 0.29829 0.0
H3733 H 0.12622 0.62669 0.32261 0.0
H3734 H 0.15075 0.57993 0.3381 0.0
H3735 H 0.17046 0.58213 0.31417 0.0
H3736 H 0.11223 0.58199 0.34141 0.0
H3737 H 0.14917 0.63501 0.37131 0.0
H3738 H 0.14011 0.63729 0.3503 0.0
H3739 H 0.15806 0.62348 0.35347 0.0
C3740 C 0.14677 0.6179 0.30663 0.0
C3741 C 0.15981 0.60575 0.30454 0.0
C3742 C 0.13555 0.61672 0.3205 0.0
C3743 C 0.13718 0.60323 0.33215 0.0
C3744 C 0.14931 0.59042 0.32921 0.0
H3745 H 0.14028 0.54983 0.41621 0.0
H3746 H 0.13717 0.56439 0.38903 0.0
C3747 C 0.16059 0.59171 0.31558 0.0
C3748 C 0.12817 0.60313 0.34866 0.0
H3749 H 0.13616 0.61521 0.38969 0.0
C3750 C 0.11686 0.5897 0.35194 0.0
C3751 C 0.13411 0.61333 0.36232 0.0
C3752 C 0.14603 0.62814 0.35932 0.0
C3753 C 0.11294 0.58495 0.36871 0.0
C3754 C 0.12083 0.59367 0.38238 0.0
C3755 C 0.13032 0.60845 0.37912 0.0
C3756 C 0.12258 0.58549 0.39924 0.0
C3757 C 0.1016 0.5697 0.37166 0.0
C3758 C 0.1161 0.59301 0.41414 0.0
C3759 C 0.11796 0.5847 0.42987 0.0
C3760 C 0.12646 0.56891 0.43081 0.0
C3761 C 0.13355 0.5619 0.41593 0.0
C3762 C 0.13164 0.57012 0.40034 0.0
H3763 H 0.09214 0.5683 0.3612 0.0
H3764 H 0.10953 0.55797 0.3719 0.0
H3765 H 0.09472 0.57072 0.38401 0.0
H3766 H 0.10933 0.60504 0.41353 0.0
H3767 H 0.11236 0.59038 0.44116 0.0
H3768 H 0.38635 0.39101 0.94357 0.0
H3769 H 0.388 0.37275 0.918 0.0
H3770 H 0.34089 0.39449 0.8997 0.0
H3771 H 0.33937 0.41279 0.9248 0.0
H3772 H 0.34748 0.35543 0.89523 0.0
H3773 H 0.39681 0.40038 0.87065 0.0
H3774 H 0.39834 0.39106 0.89165 0.0
H3775 H 0.38283 0.40737 0.88755 0.0
C3776 C 0.37612 0.39144 0.9343 0.0
C3777 C 0.36277 0.40331 0.936 0.0
C3778 C 0.37712 0.38109 0.91974 0.0
C3779 C 0.3646 0.3824 0.90702 0.0
C3780 C 0.35064 0.3933 0.90944 0.0
H3781 H 0.31537 0.39215 0.82432 0.0
H3782 H 0.33197 0.38879 0.85035 0.0
C3783 C 0.34979 0.40376 0.92373 0.0
C3784 C 0.36661 0.37443 0.89011 0.0
H3785 H 0.37851 0.38753 0.85039 0.0
C3786 C 0.3549 0.36177 0.88542 0.0
C3787 C 0.37636 0.38271 0.87739 0.0
C3788 C 0.38937 0.39612 0.88194 0.0
C3789 C 0.35111 0.3588 0.86821 0.0
C3790 C 0.35907 0.36891 0.85561 0.0
C3791 C 0.3724 0.37988 0.86017 0.0
C3792 C 0.35053 0.37173 0.83912 0.0
C3793 C 0.33719 0.34634 0.86368 0.0
C3794 C 0.35594 0.3637 0.82409 0.0
C3795 C 0.34646 0.36568 0.80905 0.0
C3796 C 0.33152 0.37567 0.80903 0.0
C3797 C 0.32675 0.38431 0.82396 0.0
C3798 C 0.33618 0.38237 0.83884 0.0
H3799 H 0.33541 0.33663 0.87385 0.0
H3800 H 0.325 0.35338 0.86209 0.0
H3801 H 0.3401 0.33979 0.85146 0.0
H3802 H 0.36707 0.35551 0.82414 0.0
H3803 H 0.35037 0.35881 0.79772 0.0
H3804 H 0.54916 0.6103 0.89886 0.0
H3805 H 0.57682 0.60821 0.88414 0.0
H3806 H 0.59503 0.65174 0.91239 0.0
H3807 H 0.56772 0.6538 0.9272 0.0
H3808 H 0.60156 0.64537 0.87041 0.0
H3809 H 0.62232 0.59793 0.91904 0.0
H3810 H 0.60106 0.59784 0.91013 0.0
H3811 H 0.60701 0.61397 0.92521 0.0
C3812 C 0.55893 0.61968 0.90156 0.0
C3813 C 0.55639 0.63216 0.91422 0.0
C3814 C 0.57469 0.61841 0.89322 0.0
C3815 C 0.58787 0.62976 0.89733 0.0
C3816 C 0.58494 0.64287 0.90912 0.0
H3817 H 0.67961 0.66717 0.9096 0.0
H3818 H 0.65322 0.65073 0.90993 0.0
C3819 C 0.56936 0.64403 0.91755 0.0
C3820 C 0.60532 0.62742 0.89077 0.0
H3821 H 0.64403 0.61367 0.90501 0.0
C3822 C 0.61086 0.63791 0.87743 0.0
C3823 C 0.61729 0.61768 0.90007 0.0
C3824 C 0.61173 0.60612 0.9144 0.0
C3825 C 0.62832 0.64016 0.8742 0.0
C3826 C 0.64037 0.63172 0.88467 0.0
C3827 C 0.63474 0.62001 0.89695 0.0
C3828 C 0.65804 0.63809 0.88585 0.0
C3829 C 0.6338 0.65286 0.86081 0.0
C3830 C 0.66984 0.63574 0.8726 0.0
C3831 C 0.68511 0.64503 0.8725 0.0
C3832 C 0.68848 0.65688 0.88553 0.0
C3833 C 0.67724 0.65816 0.89939 0.0
C3834 C 0.66219 0.64875 0.89959 0.0
H3835 H 0.62278 0.65849 0.8539 0.0
H3836 H 0.64118 0.66333 0.86685 0.0
H3837 H 0.64225 0.6465 0.85139 0.0
H3838 H 0.66681 0.62751 0.86192 0.0
H3839 H 0.69357 0.64393 0.86163 0.0
H3840 H 0.58399 0.31696 0.15981 0.0
H3841 H 0.58496 0.34178 0.14109 0.0
H3842 H 0.63462 0.32645 0.12298 0.0
H3843 H 0.63349 0.30117 0.14152 0.0
H3844 H 0.63262 0.35915 0.14003 0.0
H3845 H 0.58396 0.3538 0.08941 0.0
H3846 H 0.57632 0.34582 0.10946 0.0
H3847 H 0.59397 0.33538 0.09909 0.0
C3848 C 0.59481 0.31852 0.15134 0.0
C3849 C 0.60866 0.30724 0.15207 0.0
C3850 C 0.59533 0.33264 0.14058 0.0
C3851 C 0.60981 0.33585 0.13055 0.0
C3852 C 0.62325 0.32403 0.13046 0.0
H3853 H 0.58898 0.44106 0.10022 0.0
H3854 H 0.60608 0.41497 0.09662 0.0
C3855 C 0.62257 0.30963 0.141 0.0
C3856 C 0.61183 0.35303 0.1231 0.0
H3857 H 0.58796 0.38231 0.10172 0.0
C3858 C 0.62334 0.36418 0.13108 0.0
C3859 C 0.59991 0.35953 0.11129 0.0
C3860 C 0.58795 0.34795 0.10168 0.0
C3861 C 0.62163 0.3819 0.12932 0.0
C3862 C 0.60815 0.38844 0.11935 0.0
C3863 C 0.5982 0.37725 0.10953 0.0
C3864 C 0.60147 0.4058 0.12223 0.0
C3865 C 0.63321 0.3935 0.13935 0.0
C3866 C 0.59357 0.40934 0.1379 0.0
C3867 C 0.58358 0.42391 0.13984 0.0
C3868 C 0.58159 0.43532 0.12624 0.0
C3869 C 0.59055 0.43251 0.11096 0.0
C3870 C 0.60026 0.41764 0.10887 0.0
H3871 H 0.64577 0.38737 0.14174 0.0
H3872 H 0.63524 0.40577 0.13257 0.0
H3873 H 0.62726 0.3963 0.1519 0.0
H3874 H 0.59411 0.4002 0.14825 0.0
H3875 H 0.57671 0.4258 0.15169 0.0
H3876 H 0.80893 0.32314 0.40969 0.0
H3877 H 0.83563 0.33918 0.40928 0.0
H3878 H 0.82222 0.36065 0.36045 0.0
H3879 H 0.79511 0.34491 0.36103 0.0
H3880 H 0.85397 0.33942 0.36296 0.0
H3881 H 0.85083 0.39103 0.41114 0.0
H3882 H 0.84105 0.37144 0.41795 0.0
H3883 H 0.83217 0.38296 0.40021 0.0
C3884 C 0.81138 0.33178 0.39919 0.0
C3885 C 0.80002 0.33284 0.38542 0.0
C3886 C 0.8266 0.34096 0.39897 0.0
C3887 C 0.83081 0.35114 0.38487 0.0
C3888 C 0.81906 0.353 0.37151 0.0
H3889 H 0.93707 0.38076 0.40267 0.0
H3890 H 0.91045 0.38314 0.38624 0.0
C3891 C 0.8036 0.34407 0.3719 0.0
C3892 C 0.84853 0.35725 0.38318 0.0
H3893 H 0.87865 0.37847 0.40617 0.0
C3894 C 0.85936 0.34844 0.37196 0.0
C3895 C 0.85548 0.36909 0.39482 0.0
C3896 C 0.84426 0.37931 0.40663 0.0
C3897 C 0.87714 0.34975 0.37344 0.0
C3898 C 0.8841 0.36015 0.38639 0.0
C3899 C 0.87326 0.37044 0.39627 0.0
C3900 C 0.90175 0.35771 0.39246 0.0
C3901 C 0.88835 0.33904 0.36207 0.0
C3902 C 0.90577 0.34249 0.40098 0.0
C3903 C 0.92067 0.34125 0.41056 0.0
C3904 C 0.93193 0.3551 0.41154 0.0
C3905 C 0.92866 0.36983 0.40187 0.0
C3906 C 0.91347 0.37123 0.39256 0.0
H3907 H 0.88186 0.33597 0.34985 0.0
H3908 H 0.90057 0.34564 0.3593 0.0
H3909 H 0.89131 0.32684 0.36863 0.0
H3910 H 0.89675 0.33203 0.40128 0.0
H3911 H 0.92292 0.32983 0.41802 0.0
H3912 H 0.86067 0.69268 0.63985 0.0
H3913 H 0.85774 0.66617 0.62319 0.0
H3914 H 0.8957 0.64216 0.6549 0.0
H3915 H 0.89857 0.66826 0.67158 0.0
H3916 H 0.89294 0.63944 0.61116 0.0
H3917 H 0.84067 0.61884 0.65441 0.0
H3918 H 0.84322 0.64071 0.64751 0.0
H3919 H 0.85707 0.63209 0.66357 0.0
C3920 C 0.86867 0.68185 0.64295 0.0
C3921 C 0.87978 0.68242 0.65704 0.0
C3922 C 0.86692 0.66677 0.63349 0.0
C3923 C 0.87643 0.65231 0.63798 0.0
C3924 C 0.88825 0.65325 0.65134 0.0
H3925 H 0.91354 0.56444 0.65274 0.0
H3926 H 0.89597 0.59002 0.65066 0.0
C3927 C 0.88987 0.66815 0.66084 0.0
C3928 C 0.87346 0.63555 0.63004 0.0
H3929 H 0.85823 0.59682 0.64249 0.0
C3930 C 0.88476 0.63014 0.61732 0.0
C3931 C 0.86272 0.62358 0.63816 0.0
C3932 C 0.85011 0.62903 0.65162 0.0
C3933 C 0.88709 0.6127 0.614 0.0
C3934 C 0.87797 0.60061 0.6238 0.0
C3935 C 0.86517 0.60615 0.635 0.0
C3936 C 0.88497 0.58332 0.62624 0.0
C3937 C 0.90077 0.60727 0.60159 0.0
C3938 C 0.88393 0.57076 0.61354 0.0
C3939 C 0.89385 0.55593 0.61484 0.0
C3940 C 0.90503 0.55381 0.6287 0.0
C3941 C 0.90504 0.56584 0.64193 0.0
C3942 C 0.89499 0.58041 0.64076 0.0
H3943 H 0.90617 0.61824 0.59443 0.0
H3944 H 0.91127 0.60083 0.60858 0.0
H3945 H 0.89545 0.59799 0.59231 0.0
H3946 H 0.87625 0.57285 0.60225 0.0
H3947 H 0.89376 0.54684 0.60443 0.0
H3948 H 0.54657 0.37595 0.60156 0.0
H3949 H 0.57094 0.37226 0.62107 0.0
H3950 H 0.59249 0.33489 0.58688 0.0
H3951 H 0.5685 0.33847 0.56755 0.0
H3952 H 0.59413 0.32705 0.62382 0.0
H3953 H 0.61915 0.39104 0.60522 0.0
H3954 H 0.59765 0.3888 0.61309 0.0
H3955 H 0.6031 0.38061 0.59244 0.0
C3956 C 0.55637 0.36672 0.59845 0.0
C3957 C 0.55579 0.35761 0.58299 0.0
C3958 C 0.57026 0.36469 0.60954 0.0
C3959 C 0.5835 0.35341 0.60529 0.0
C3960 C 0.58236 0.34364 0.59037 0.0
H3961 H 0.68036 0.32628 0.59394 0.0
H3962 H 0.65218 0.3398 0.59568 0.0
C3963 C 0.56868 0.34576 0.5793 0.0
C3964 C 0.59949 0.35252 0.61517 0.0
H3965 H 0.63888 0.371 0.61549 0.0
C3966 C 0.6038 0.33688 0.62269 0.0
C3967 C 0.61201 0.3654 0.61353 0.0
C3968 C 0.60789 0.38245 0.60564 0.0
C3969 C 0.62073 0.33314 0.62706 0.0
C3970 C 0.63352 0.34544 0.62386 0.0
C3971 C 0.62896 0.36166 0.61789 0.0
C3972 C 0.65164 0.34043 0.62329 0.0
C3973 C 0.6251 0.31552 0.63347 0.0
C3974 C 0.66078 0.33689 0.63825 0.0
C3975 C 0.67694 0.3294 0.63722 0.0
C3976 C 0.68396 0.32533 0.62126 0.0
C3977 C 0.67516 0.32956 0.60633 0.0
C3978 C 0.65915 0.33724 0.60734 0.0
H3979 H 0.61366 0.30725 0.63472 0.0
H3980 H 0.63425 0.30929 0.62462 0.0
H3981 H 0.63135 0.3165 0.64613 0.0
H3982 H 0.6551 0.33919 0.65064 0.0
H3983 H 0.68351 0.3259 0.64887 0.0
H3984 H 0.85577 0.29676 0.83933 0.0
H3985 H 0.85375 0.32249 0.85715 0.0
H3986 H 0.90257 0.33929 0.83818 0.0
H3987 H 0.90457 0.31389 0.82032 0.0
H3988 H 0.89426 0.34575 0.87569 0.0
H3989 H 0.84638 0.36817 0.82805 0.0
H3990 H 0.84391 0.34783 0.83849 0.0
H3991 H 0.86044 0.35067 0.82294 0.0
C3992 C 0.86631 0.30569 0.83943 0.0
C3993 C 0.88027 0.30349 0.82836 0.0
C3994 C 0.86509 0.32037 0.84954 0.0
C3995 C 0.87794 0.33278 0.84881 0.0
C3996 C 0.89254 0.32981 0.83891 0.0
H3997 H 0.91785 0.42122 0.83502 0.0
H3998 H 0.90046 0.39547 0.83627 0.0
C3999 C 0.89366 0.31533 0.82868 0.0
C4000 C 0.87556 0.34996 0.85609 0.0
H4001 H 0.86204 0.38907 0.84271 0.0
C4002 C 0.88665 0.35522 0.86908 0.0
C4003 C 0.86559 0.3622 0.84736 0.0
C4004 C 0.85336 0.35707 0.83342 0.0
C4005 C 0.88942 0.3726 0.87227 0.0
C4006 C 0.88095 0.38485 0.8621 0.0
C4007 C 0.86845 0.37958 0.85047 0.0
C4008 C 0.88819 0.40208 0.86011 0.0
C4009 C 0.90281 0.37777 0.88509 0.0
C4010 C 0.88644 0.41461 0.87276 0.0
C4011 C 0.89626 0.42952 0.87195 0.0
C4012 C 0.90808 0.43178 0.85863 0.0
C4013 C 0.90888 0.41973 0.84544 0.0
C4014 C 0.89894 0.40505 0.84613 0.0
H4015 H 0.90775 0.3667 0.89244 0.0
H4016 H 0.91365 0.38397 0.87841 0.0
H4017 H 0.89739 0.38719 0.89417 0.0
H4018 H 0.87819 0.41247 0.88364 0.0
H4019 H 0.89552 0.43861 0.88233 0.0
H4020 H 0.81532 0.6645 0.09068 0.0
H4021 H 0.84065 0.64643 0.09185 0.0
H4022 H 0.82534 0.62778 0.14129 0.0
H4023 H 0.79949 0.6456 0.13992 0.0
H4024 H 0.85916 0.64596 0.13788 0.0
H4025 H 0.85085 0.59323 0.09167 0.0
H4026 H 0.84239 0.6132 0.08424 0.0
H4027 H 0.83314 0.60317 0.10268 0.0
C4028 C 0.81707 0.65612 0.10154 0.0
C4029 C 0.80553 0.65637 0.11519 0.0
C4030 C 0.83148 0.64576 0.10217 0.0
C4031 C 0.83475 0.6357 0.1166 0.0
C4032 C 0.82287 0.63531 0.12997 0.0
H4033 H 0.93806 0.60129 0.09298 0.0
H4034 H 0.91283 0.59947 0.11165 0.0
C4035 C 0.80815 0.64543 0.12915 0.0
C4036 C 0.85184 0.62801 0.11837 0.0
H4037 H 0.87963 0.60452 0.09466 0.0
C4038 C 0.86362 0.63636 0.12895 0.0
C4039 C 0.85758 0.6154 0.10688 0.0
C4040 C 0.84529 0.6056 0.09582 0.0
C4041 C 0.88121 0.634 0.12669 0.0
C4042 C 0.88698 0.62306 0.1136 0.0
C4043 C 0.87517 0.61302 0.10464 0.0
C4044 C 0.90413 0.62506 0.10608 0.0
C4045 C 0.8935 0.64439 0.1372 0.0
C4046 C 0.90767 0.64014 0.09711 0.0
C4047 C 0.9217 0.64104 0.08626 0.0
C4048 C 0.93261 0.627 0.08447 0.0
C4049 C 0.92991 0.61236 0.09444 0.0
C4050 C 0.91554 0.61129 0.10503 0.0
H4051 H 0.88794 0.64766 0.14982 0.0
H4052 H 0.90568 0.63742 0.13915 0.0
H4053 H 0.89634 0.65649 0.13042 0.0
H4054 H 0.89884 0.65078 0.09749 0.0
H4055 H 0.92351 0.65236 0.07855 0.0
H4056 H 0.58206 0.68409 0.32646 0.0
H4057 H 0.5814 0.65793 0.34333 0.0
H4058 H 0.63211 0.66841 0.3619 0.0
H4059 H 0.63257 0.69509 0.34534 0.0
H4060 H 0.62638 0.63667 0.3416 0.0
H4061 H 0.58092 0.64358 0.3952 0.0
H4062 H 0.5738 0.65372 0.37592 0.0
H4063 H 0.59271 0.66139 0.38642 0.0
C4064 C 0.59278 0.68113 0.33466 0.0
C4065 C 0.60733 0.69149 0.3347 0.0
C4066 C 0.59239 0.66625 0.34433 0.0
C4067 C 0.60666 0.66135 0.35393 0.0
C4068 C 0.62091 0.67215 0.35474 0.0
H4069 H 0.59285 0.55227 0.37962 0.0
H4070 H 0.60828 0.57955 0.38137 0.0
C4071 C 0.62113 0.68734 0.34534 0.0
C4072 C 0.60744 0.64366 0.36027 0.0
H4073 H 0.58274 0.61543 0.38217 0.0
C4074 C 0.61738 0.63198 0.35101 0.0
C4075 C 0.59569 0.63765 0.3725 0.0
C4076 C 0.58527 0.64976 0.38321 0.0
C4077 C 0.6144 0.61439 0.35228 0.0
C4078 C 0.60133 0.60853 0.36315 0.0
C4079 C 0.59273 0.62006 0.37379 0.0
C4080 C 0.59397 0.5914 0.36101 0.0
C4081 C 0.62404 0.60228 0.34087 0.0
C4082 C 0.58117 0.58912 0.34876 0.0
C4083 C 0.5723 0.57377 0.34782 0.0
C4084 C 0.5762 0.5604 0.35905 0.0
C4085 C 0.58968 0.56237 0.37073 0.0
C4086 C 0.59844 0.5779 0.37181 0.0
H4087 H 0.63568 0.60827 0.33545 0.0
H4088 H 0.62772 0.59063 0.34803 0.0
H4089 H 0.61565 0.5983 0.33017 0.0
H4090 H 0.57759 0.5995 0.34035 0.0
H4091 H 0.56201 0.57258 0.33868 0.0
H4092 H 0.65029 0.92506 0.5683 0.0
H4093 H 0.64957 0.90819 0.59447 0.0
H4094 H 0.60705 0.87926 0.57501 0.0
H4095 H 0.60793 0.89597 0.54841 0.0
H4096 H 0.6081 0.90378 0.61144 0.0
H4097 H 0.65323 0.8499 0.60188 0.0
H4098 H 0.65876 0.86988 0.59196 0.0
H4099 H 0.64024 0.85849 0.58483 0.0
C4100 C 0.64107 0.91482 0.5694 0.0
C4101 C 0.62914 0.91181 0.55642 0.0
C4102 C 0.64068 0.90521 0.58431 0.0
C4103 C 0.62824 0.89259 0.58658 0.0
C4104 C 0.61678 0.88893 0.57336 0.0
H4105 H 0.64751 0.854 0.6897 0.0
H4106 H 0.63009 0.85435 0.66358 0.0
C4107 C 0.61735 0.8984 0.55821 0.0
C4108 C 0.62645 0.88488 0.60359 0.0
H4109 H 0.64895 0.85946 0.63063 0.0
C4110 C 0.6165 0.89361 0.61564 0.0
C4111 C 0.63735 0.87161 0.60891 0.0
C4112 C 0.64796 0.86179 0.59624 0.0
C4113 C 0.61864 0.89066 0.63314 0.0
C4114 C 0.63101 0.87875 0.63853 0.0
C4115 C 0.63947 0.86862 0.62642 0.0
C4116 C 0.63829 0.87953 0.65586 0.0
C4117 C 0.60877 0.9013 0.64575 0.0
C4118 C 0.64833 0.89368 0.66019 0.0
C4119 C 0.65846 0.89337 0.67477 0.0
C4120 C 0.65848 0.879 0.68539 0.0
C4121 C 0.6475 0.8653 0.68176 0.0
C4122 C 0.63762 0.86546 0.66688 0.0
H4123 H 0.59654 0.90583 0.64021 0.0
H4124 H 0.60607 0.89396 0.65757 0.0
H4125 H 0.61646 0.91266 0.64927 0.0
H4126 H 0.64921 0.90454 0.65167 0.0
H4127 H 0.66688 0.90403 0.67731 0.0
loop_
_geom_bond_atom_site_label_1
_geom_bond_atom_site_label_2
_geom_bond_distance
_geom_bond_site_symmetry_2
_ccdc_geom_bond_type
Co0 O1 2.216 . S
Co0 O2 2.091 . S
Co0 O4 2.004 . S
Co0 O10 2.021 . S
Co0 O12 2.137 . S
Co0 O13 2.244 . S
O1 Co0 2.216 . S
O1 C8 1.247 . S
O2 Co0 2.091 . S
O2 C8 1.261 . S
C3 O12 1.247 . S
C3 O13 1.272 . S
O4 Co0 2.004 . S
O4 C9 1.259 . S
Co5 O6 2.061 . S
Co5 O11 2.052 . S
Co5 O13 2.135 . S
O6 Co5 2.061 . S
O6 C9 1.235 . S
C7 O10 1.238 . S
C7 O11 1.241 . S
C8 O1 1.247 . S
C8 O2 1.261 . S
C9 O4 1.259 . S
C9 O6 1.235 . S
O10 Co0 2.021 . S
O10 C7 1.238 . S
O11 Co5 2.052 . S
O11 C7 1.241 . S
O12 Co0 2.137 . S
O12 C3 1.247 . S
O13 Co0 2.244 . S
O13 C3 1.272 . S
O13 Co5 2.135 . S
Co14 O15 2.216 . S
Co14 O16 2.091 . S
Co14 O18 2.004 . S
Co14 O24 2.021 . S
Co14 O26 2.137 . S
Co14 O27 2.244 . S
O15 Co14 2.216 . S
O15 C22 1.247 . S
O16 Co14 2.091 . S
O16 C22 1.261 . S
C17 O26 1.247 . S
C17 O27 1.272 . S
O18 Co14 2.004 . S
O18 C23 1.259 1_565 S
Co19 O20 2.061 . S
Co19 O25 2.052 1_545 S
Co19 O27 2.135 1_545 S
O20 Co19 2.061 . S
O20 C23 1.235 . S
C21 O24 1.238 . S
C21 O25 1.241 . S
C22 O15 1.247 . S
C22 O16 1.261 . S
C23 O18 1.259 1_545 S
C23 O20 1.235 . S
O24 Co14 2.021 . S
O24 C21 1.238 . S
O25 Co19 2.052 1_565 S
O25 C21 1.241 . S
O26 Co14 2.137 . S
O26 C17 1.247 . S
O27 Co14 2.244 . S
O27 C17 1.272 . S
O27 Co19 2.135 1_565 S
Co28 O29 2.216 . S
Co28 O30 2.091 . S
Co28 O32 2.004 . S
Co28 O38 2.021 . S
Co28 O40 2.137 . S
Co28 O41 2.244 . S
O29 Co28 2.216 . S
O29 C36 1.247 . S
O30 Co28 2.091 . S
O30 C36 1.261 . S
C31 O40 1.247 . S
C31 O41 1.272 . S
O32 Co28 2.004 . S
O32 C37 1.259 . S
Co33 O34 2.061 . S
Co33 O39 2.052 . S
Co33 O41 2.135 . S
O34 Co33 2.061 . S
O34 C37 1.235 . S
C35 O38 1.238 . S
C35 O39 1.241 . S
C36 O29 1.247 . S
C36 O30 1.261 . S
C37 O32 1.259 . S
C37 O34 1.235 . S
O38 Co28 2.021 . S
O38 C35 1.238 . S
O39 Co33 2.052 . S
O39 C35 1.241 . S
O40 Co28 2.137 . S
O40 C31 1.247 . S
O41 Co28 2.244 . S
O41 C31 1.272 . S
O41 Co33 2.135 . S
Co42 O43 2.216 . S
Co42 O44 2.091 . S
Co42 O46 2.004 . S
Co42 O52 2.021 . S
Co42 O54 2.137 . S
Co42 O55 2.244 . S
O43 Co42 2.216 . S
O43 C50 1.247 . S
O44 Co42 2.091 . S
O44 C50 1.261 . S
C45 O54 1.247 . S
C45 O55 1.272 . S
O46 Co42 2.004 . S
O46 C51 1.259 1_545 S
Co47 O48 2.061 . S
Co47 O53 2.052 1_565 S
Co47 O55 2.135 1_565 S
O48 Co47 2.061 . S
O48 C51 1.235 . S
C49 O52 1.238 . S
C49 O53 1.241 . S
C50 O43 1.247 . S
C50 O44 1.261 . S
C51 O46 1.259 1_565 S
C51 O48 1.235 . S
O52 Co42 2.021 . S
O52 C49 1.238 . S
O53 Co47 2.052 1_545 S
O53 C49 1.241 . S
O54 Co42 2.137 . S
O54 C45 1.247 . S
O55 Co42 2.244 . S
O55 C45 1.272 . S
O55 Co47 2.135 1_545 S
Co56 O57 2.216 . S
Co56 O58 2.091 . S
Co56 O60 2.004 . S
Co56 O66 2.021 . S
Co56 O68 2.137 . S
Co56 O69 2.244 . S
O57 Co56 2.216 . S
O57 C64 1.247 . S
O58 Co56 2.091 . S
O58 C64 1.261 . S
C59 O68 1.247 . S
C59 O69 1.272 . S
O60 Co56 2.004 . S
O60 C65 1.259 . S
Co61 O62 2.061 . S
Co61 O67 2.052 . S
Co61 O69 2.135 . S
O62 Co61 2.061 . S
O62 C65 1.235 . S
C63 O66 1.238 . S
C63 O67 1.241 . S
C64 O57 1.247 . S
C64 O58 1.261 . S
C65 O60 1.259 . S
C65 O62 1.235 . S
O66 Co56 2.021 . S
O66 C63 1.238 . S
O67 Co61 2.052 . S
O67 C63 1.241 . S
O68 Co56 2.137 . S
O68 C59 1.247 . S
O69 Co56 2.244 . S
O69 C59 1.272 . S
O69 Co61 2.135 . S
Co70 O71 2.216 . S
Co70 O72 2.091 . S
Co70 O74 2.004 . S
Co70 O80 2.021 . S
Co70 O82 2.137 . S
Co70 O83 2.244 . S
O71 Co70 2.216 . S
O71 C78 1.247 . S
O72 Co70 2.091 . S
O72 C78 1.261 . S
C73 O82 1.247 . S
C73 O83 1.272 . S
O74 Co70 2.004 . S
O74 C79 1.259 1_565 S
Co75 O76 2.061 . S
Co75 O81 2.052 1_545 S
Co75 O83 2.135 1_545 S
O76 Co75 2.061 . S
O76 C79 1.235 . S
C77 O80 1.238 . S
C77 O81 1.241 . S
C78 O71 1.247 . S
C78 O72 1.261 . S
C79 O74 1.259 1_545 S
C79 O76 1.235 . S
O80 Co70 2.021 . S
O80 C77 1.238 . S
O81 Co75 2.052 1_565 S
O81 C77 1.241 . S
O82 Co70 2.137 . S
O82 C73 1.247 . S
O83 Co70 2.244 . S
O83 C73 1.272 . S
O83 Co75 2.135 1_565 S
Co84 O85 2.216 . S
Co84 O86 2.091 . S
Co84 O88 2.004 . S
Co84 O94 2.021 . S
Co84 O96 2.137 . S
Co84 O97 2.244 . S
O85 Co84 2.216 . S
O85 C92 1.247 . S
O86 Co84 2.091 . S
O86 C92 1.261 . S
C87 O96 1.247 . S
C87 O97 1.272 . S
O88 Co84 2.004 . S
O88 C93 1.259 . S
Co89 O90 2.061 . S
Co89 O95 2.052 . S
Co89 O97 2.135 . S
O90 Co89 2.061 . S
O90 C93 1.235 . S
C91 O94 1.238 . S
C91 O95 1.241 . S
C92 O85 1.247 . S
C92 O86 1.261 . S
C93 O88 1.259 . S
C93 O90 1.235 . S
O94 Co84 2.021 . S
O94 C91 1.238 . S
O95 Co89 2.052 . S
O95 C91 1.241 . S
O96 Co84 2.137 . S
O96 C87 1.247 . S
O97 Co84 2.244 . S
O97 C87 1.272 . S
O97 Co89 2.135 . S
Co98 O99 2.216 . S
Co98 O100 2.091 . S
Co98 O102 2.004 . S
Co98 O108 2.021 . S
Co98 O110 2.137 . S
Co98 O111 2.244 . S
O99 Co98 2.216 . S
O99 C106 1.247 . S
O100 Co98 2.091 . S
O100 C106 1.261 . S
C101 O110 1.247 . S
C101 O111 1.272 . S
O102 Co98 2.004 . S
O102 C107 1.259 1_545 S
Co103 O104 2.061 . S
Co103 O109 2.052 1_565 S
Co103 O111 2.135 1_565 S
O104 Co103 2.061 . S
O104 C107 1.235 . S
C105 O108 1.238 . S
C105 O109 1.241 . S
C106 O99 1.247 . S
C106 O100 1.261 . S
C107 O102 1.259 1_565 S
C107 O104 1.235 . S
O108 Co98 2.021 . S
O108 C105 1.238 . S
O109 Co103 2.052 1_545 S
O109 C105 1.241 . S
O110 Co98 2.137 . S
O110 C101 1.247 . S
O111 Co98 2.244 . S
O111 C101 1.272 . S
O111 Co103 2.135 1_545 S
Co112 O113 2.216 . S
Co112 O114 2.091 . S
Co112 O116 2.004 . S
Co112 O122 2.021 . S
Co112 O124 2.137 . S
Co112 O125 2.244 . S
O113 Co112 2.216 . S
O113 C120 1.247 . S
O114 Co112 2.091 . S
O114 C120 1.261 . S
C115 O124 1.247 . S
C115 O125 1.272 . S
O116 Co112 2.004 . S
O116 C121 1.259 . S
Co117 O118 2.061 . S
Co117 O123 2.052 . S
Co117 O125 2.135 . S
O118 Co117 2.061 . S
O118 C121 1.235 . S
C119 O122 1.238 . S
C119 O123 1.241 . S
C120 O113 1.247 . S
C120 O114 1.261 . S
C121 O116 1.259 . S
C121 O118 1.235 . S
O122 Co112 2.021 . S
O122 C119 1.238 . S
O123 Co117 2.052 . S
O123 C119 1.241 . S
O124 Co112 2.137 . S
O124 C115 1.247 . S
O125 Co112 2.244 . S
O125 C115 1.272 . S
O125 Co117 2.135 . S
Co126 O127 2.216 . S
Co126 O128 2.091 . S
Co126 O130 2.004 . S
Co126 O136 2.021 . S
Co126 O138 2.137 . S
Co126 O139 2.244 . S
O127 Co126 2.216 . S
O127 C134 1.247 . S
O128 Co126 2.091 . S
O128 C134 1.261 . S
C129 O138 1.247 . S
C129 O139 1.272 . S
O130 Co126 2.004 . S
O130 C135 1.259 1_455 S
Co131 O132 2.061 . S
Co131 O137 2.052 1_655 S
Co131 O139 2.135 1_655 S
O132 Co131 2.061 . S
O132 C135 1.235 . S
C133 O136 1.238 . S
C133 O137 1.241 . S
C134 O127 1.247 . S
C134 O128 1.261 . S
C135 O130 1.259 1_655 S
C135 O132 1.235 . S
O136 Co126 2.021 . S
O136 C133 1.238 . S
O137 Co131 2.052 1_455 S
O137 C133 1.241 . S
O138 Co126 2.137 . S
O138 C129 1.247 . S
O139 Co126 2.244 . S
O139 C129 1.272 . S
O139 Co131 2.135 1_455 S
Co140 O141 2.216 . S
Co140 O142 2.091 . S
Co140 O144 2.004 . S
Co140 O150 2.021 . S
Co140 O152 2.137 . S
Co140 O153 2.244 . S
O141 Co140 2.216 . S
O141 C148 1.247 . S
O142 Co140 2.091 . S
O142 C148 1.261 . S
C143 O152 1.247 . S
C143 O153 1.272 . S
O144 Co140 2.004 . S
O144 C149 1.259 . S
Co145 O146 2.061 . S
Co145 O151 2.052 . S
Co145 O153 2.135 . S
O146 Co145 2.061 . S
O146 C149 1.235 . S
C147 O150 1.238 . S
C147 O151 1.241 . S
C148 O141 1.247 . S
C148 O142 1.261 . S
C149 O144 1.259 . S
C149 O146 1.235 . S
O150 Co140 2.021 . S
O150 C147 1.238 . S
O151 Co145 2.052 . S
O151 C147 1.241 . S
O152 Co140 2.137 . S
O152 C143 1.247 . S
O153 Co140 2.244 . S
O153 C143 1.272 . S
O153 Co145 2.135 . S
Co154 O155 2.216 . S
Co154 O156 2.091 . S
Co154 O158 2.004 . S
Co154 O164 2.021 . S
Co154 O166 2.137 . S
Co154 O167 2.244 . S
O155 Co154 2.216 . S
O155 C162 1.247 . S
O156 Co154 2.091 . S
O156 C162 1.261 . S
C157 O166 1.247 . S
C157 O167 1.272 . S
O158 Co154 2.004 . S
O158 C163 1.259 . S
Co159 O160 2.061 . S
Co159 O165 2.052 . S
Co159 O167 2.135 . S
O160 Co159 2.061 . S
O160 C163 1.235 . S
C161 O164 1.238 . S
C161 O165 1.241 . S
C162 O155 1.247 . S
C162 O156 1.261 . S
C163 O158 1.259 . S
C163 O160 1.235 . S
O164 Co154 2.021 . S
O164 C161 1.238 . S
O165 Co159 2.052 . S
O165 C161 1.241 . S
O166 Co154 2.137 . S
O166 C157 1.247 . S
O167 Co154 2.244 . S
O167 C157 1.272 . S
O167 Co159 2.135 . S
Co168 O169 2.216 . S
Co168 O170 2.091 . S
Co168 O172 2.004 . S
Co168 O178 2.021 . S
Co168 O180 2.137 . S
Co168 O181 2.244 . S
O169 Co168 2.216 . S
O169 C176 1.247 . S
O170 Co168 2.091 . S
O170 C176 1.261 . S
C171 O180 1.247 . S
C171 O181 1.272 . S
O172 Co168 2.004 . S
O172 C177 1.259 . S
Co173 O174 2.061 . S
Co173 O179 2.052 . S
Co173 O181 2.135 . S
O174 Co173 2.061 . S
O174 C177 1.235 . S
C175 O178 1.238 . S
C175 O179 1.241 . S
C176 O169 1.247 . S
C176 O170 1.261 . S
C177 O172 1.259 . S
C177 O174 1.235 . S
O178 Co168 2.021 . S
O178 C175 1.238 . S
O179 Co173 2.052 . S
O179 C175 1.241 . S
O180 Co168 2.137 . S
O180 C171 1.247 . S
O181 Co168 2.244 . S
O181 C171 1.272 . S
O181 Co173 2.135 . S
Co182 O183 2.216 . S
Co182 O184 2.091 . S
Co182 O186 2.004 . S
Co182 O192 2.021 . S
Co182 O194 2.137 . S
Co182 O195 2.244 . S
O183 Co182 2.216 . S
O183 C190 1.247 . S
O184 Co182 2.091 . S
O184 C190 1.261 . S
C185 O194 1.247 . S
C185 O195 1.272 . S
O186 Co182 2.004 . S
O186 C191 1.259 . S
Co187 O188 2.061 . S
Co187 O193 2.052 . S
Co187 O195 2.135 . S
O188 Co187 2.061 . S
O188 C191 1.235 . S
C189 O192 1.238 . S
C189 O193 1.241 . S
C190 O183 1.247 . S
C190 O184 1.261 . S
C191 O186 1.259 . S
C191 O188 1.235 . S
O192 Co182 2.021 . S
O192 C189 1.238 . S
O193 Co187 2.052 . S
O193 C189 1.241 . S
O194 Co182 2.137 . S
O194 C185 1.247 . S
O195 Co182 2.244 . S
O195 C185 1.272 . S
O195 Co187 2.135 . S
Co196 O197 2.216 . S
Co196 O198 2.091 . S
Co196 O200 2.004 . S
Co196 O206 2.021 . S
Co196 O208 2.137 . S
Co196 O209 2.244 . S
O197 Co196 2.216 . S
O197 C204 1.247 . S
O198 Co196 2.091 . S
O198 C204 1.261 . S
C199 O208 1.247 . S
C199 O209 1.272 . S
O200 Co196 2.004 . S
O200 C205 1.259 . S
Co201 O202 2.061 . S
Co201 O207 2.052 . S
Co201 O209 2.135 . S
O202 Co201 2.061 . S
O202 C205 1.235 . S
C203 O206 1.238 . S
C203 O207 1.241 . S
C204 O197 1.247 . S
C204 O198 1.261 . S
C205 O200 1.259 . S
C205 O202 1.235 . S
O206 Co196 2.021 . S
O206 C203 1.238 . S
O207 Co201 2.052 . S
O207 C203 1.241 . S
O208 Co196 2.137 . S
O208 C199 1.247 . S
O209 Co196 2.244 . S
O209 C199 1.272 . S
O209 Co201 2.135 . S
Co210 O211 2.216 . S
Co210 O212 2.091 . S
Co210 O214 2.004 . S
Co210 O220 2.021 . S
Co210 O222 2.137 . S
Co210 O223 2.244 . S
O211 Co210 2.216 . S
O211 C218 1.247 . S
O212 Co210 2.091 . S
O212 C218 1.261 . S
C213 O222 1.247 . S
C213 O223 1.272 . S
O214 Co210 2.004 . S
O214 C219 1.259 1_455 S
Co215 O216 2.061 . S
Co215 O221 2.052 1_655 S
Co215 O223 2.135 1_655 S
O216 Co215 2.061 . S
O216 C219 1.235 . S
C217 O220 1.238 . S
C217 O221 1.241 . S
C218 O211 1.247 . S
C218 O212 1.261 . S
C219 O214 1.259 1_655 S
C219 O216 1.235 . S
O220 Co210 2.021 . S
O220 C217 1.238 . S
O221 Co215 2.052 1_455 S
O221 C217 1.241 . S
O222 Co210 2.137 . S
O222 C213 1.247 . S
O223 Co210 2.244 . S
O223 C213 1.272 . S
O223 Co215 2.135 1_455 S
Co224 O225 2.216 . S
Co224 O226 2.091 . S
Co224 O228 2.004 . S
Co224 O234 2.021 . S
Co224 O236 2.137 . S
Co224 O237 2.244 . S
O225 Co224 2.216 . S
O225 C232 1.247 . S
O226 Co224 2.091 . S
O226 C232 1.261 . S
C227 O236 1.247 . S
C227 O237 1.272 . S
O228 Co224 2.004 . S
O228 C233 1.259 . S
Co229 O230 2.061 . S
Co229 O235 2.052 . S
Co229 O237 2.135 . S
O230 Co229 2.061 . S
O230 C233 1.235 . S
C231 O234 1.238 . S
C231 O235 1.241 . S
C232 O225 1.247 . S
C232 O226 1.261 . S
C233 O228 1.259 . S
C233 O230 1.235 . S
O234 Co224 2.021 . S
O234 C231 1.238 . S
O235 Co229 2.052 . S
O235 C231 1.241 . S
O236 Co224 2.137 . S
O236 C227 1.247 . S
O237 Co224 2.244 . S
O237 C227 1.272 . S
O237 Co229 2.135 . S
Co238 O239 2.216 . S
Co238 O240 2.091 . S
Co238 O242 2.004 . S
Co238 O248 2.021 . S
Co238 O250 2.137 . S
Co238 O251 2.244 . S
O239 Co238 2.216 . S
O239 C246 1.247 . S
O240 Co238 2.091 . S
O240 C246 1.261 . S
C241 O250 1.247 . S
C241 O251 1.272 . S
O242 Co238 2.004 . S
O242 C247 1.259 . S
Co243 O244 2.061 . S
Co243 O249 2.052 . S
Co243 O251 2.135 . S
O244 Co243 2.061 . S
O244 C247 1.235 . S
C245 O248 1.238 . S
C245 O249 1.241 . S
C246 O239 1.247 . S
C246 O240 1.261 . S
C247 O242 1.259 . S
C247 O244 1.235 . S
O248 Co238 2.021 . S
O248 C245 1.238 . S
O249 Co243 2.052 . S
O249 C245 1.241 . S
O250 Co238 2.137 . S
O250 C241 1.247 . S
O251 Co238 2.244 . S
O251 C241 1.272 . S
O251 Co243 2.135 . S
Co252 O253 2.216 . S
Co252 O254 2.091 . S
Co252 O256 2.004 . S
Co252 O262 2.021 . S
Co252 O264 2.137 . S
Co252 O265 2.244 . S
O253 Co252 2.216 . S
O253 C260 1.247 . S
O254 Co252 2.091 . S
O254 C260 1.261 . S
C255 O264 1.247 . S
C255 O265 1.272 . S
O256 Co252 2.004 . S
O256 C261 1.259 1_554 S
Co257 O258 2.061 . S
Co257 O263 2.052 1_556 S
Co257 O265 2.135 1_556 S
O258 Co257 2.061 . S
O258 C261 1.235 . S
C259 O262 1.238 . S
C259 O263 1.241 . S
C260 O253 1.247 . S
C260 O254 1.261 . S
C261 O256 1.259 1_556 S
C261 O258 1.235 . S
O262 Co252 2.021 . S
O262 C259 1.238 . S
O263 Co257 2.052 1_554 S
O263 C259 1.241 . S
O264 Co252 2.137 . S
O264 C255 1.247 . S
O265 Co252 2.244 . S
O265 C255 1.272 . S
O265 Co257 2.135 1_554 S
Co266 O267 2.216 . S
Co266 O268 2.091 . S
Co266 O270 2.004 . S
Co266 O276 2.021 . S
Co266 O278 2.137 . S
Co266 O279 2.244 . S
O267 Co266 2.216 . S
O267 C274 1.247 . S
O268 Co266 2.091 . S
O268 C274 1.261 . S
C269 O278 1.247 . S
C269 O279 1.272 . S
O270 Co266 2.004 . S
O270 C275 1.259 . S
Co271 O272 2.061 . S
Co271 O277 2.052 . S
Co271 O279 2.135 . S
O272 Co271 2.061 . S
O272 C275 1.235 . S
C273 O276 1.238 . S
C273 O277 1.241 . S
C274 O267 1.247 . S
C274 O268 1.261 . S
C275 O270 1.259 . S
C275 O272 1.235 . S
O276 Co266 2.021 . S
O276 C273 1.238 . S
O277 Co271 2.052 . S
O277 C273 1.241 . S
O278 Co266 2.137 . S
O278 C269 1.247 . S
O279 Co266 2.244 . S
O279 C269 1.272 . S
O279 Co271 2.135 . S
Co280 O281 2.216 . S
Co280 O282 2.091 . S
Co280 O284 2.004 . S
Co280 O290 2.021 . S
Co280 O292 2.137 . S
Co280 O293 2.244 . S
O281 Co280 2.216 . S
O281 C288 1.247 . S
O282 Co280 2.091 . S
O282 C288 1.261 . S
C283 O292 1.247 . S
C283 O293 1.272 . S
O284 Co280 2.004 . S
O284 C289 1.259 1_554 S
Co285 O286 2.061 . S
Co285 O291 2.052 1_556 S
Co285 O293 2.135 1_556 S
O286 Co285 2.061 . S
O286 C289 1.235 . S
C287 O290 1.238 . S
C287 O291 1.241 . S
C288 O281 1.247 . S
C288 O282 1.261 . S
C289 O284 1.259 1_556 S
C289 O286 1.235 . S
O290 Co280 2.021 . S
O290 C287 1.238 . S
O291 Co285 2.052 1_554 S
O291 C287 1.241 . S
O292 Co280 2.137 . S
O292 C283 1.247 . S
O293 Co280 2.244 . S
O293 C283 1.272 . S
O293 Co285 2.135 1_554 S
Co294 O295 2.216 . S
Co294 O296 2.091 . S
Co294 O298 2.004 . S
Co294 O304 2.021 . S
Co294 O306 2.137 . S
Co294 O307 2.244 . S
O295 Co294 2.216 . S
O295 C302 1.247 . S
O296 Co294 2.091 . S
O296 C302 1.261 . S
C297 O306 1.247 . S
C297 O307 1.272 . S
O298 Co294 2.004 . S
O298 C303 1.259 . S
Co299 O300 2.061 . S
Co299 O305 2.052 . S
Co299 O307 2.135 . S
O300 Co299 2.061 . S
O300 C303 1.235 . S
C301 O304 1.238 . S
C301 O305 1.241 . S
C302 O295 1.247 . S
C302 O296 1.261 . S
C303 O298 1.259 . S
C303 O300 1.235 . S
O304 Co294 2.021 . S
O304 C301 1.238 . S
O305 Co299 2.052 . S
O305 C301 1.241 . S
O306 Co294 2.137 . S
O306 C297 1.247 . S
O307 Co294 2.244 . S
O307 C297 1.272 . S
O307 Co299 2.135 . S
Co308 O309 2.216 . S
Co308 O310 2.091 . S
Co308 O312 2.004 . S
Co308 O318 2.021 . S
Co308 O320 2.137 . S
Co308 O321 2.244 . S
O309 Co308 2.216 . S
O309 C316 1.247 . S
O310 Co308 2.091 . S
O310 C316 1.261 . S
C311 O320 1.247 . S
C311 O321 1.272 . S
O312 Co308 2.004 . S
O312 C317 1.259 . S
Co313 O314 2.061 . S
Co313 O319 2.052 . S
Co313 O321 2.135 . S
O314 Co313 2.061 . S
O314 C317 1.235 . S
C315 O318 1.238 . S
C315 O319 1.241 . S
C316 O309 1.247 . S
C316 O310 1.261 . S
C317 O312 1.259 . S
C317 O314 1.235 . S
O318 Co308 2.021 . S
O318 C315 1.238 . S
O319 Co313 2.052 . S
O319 C315 1.241 . S
O320 Co308 2.137 . S
O320 C311 1.247 . S
O321 Co308 2.244 . S
O321 C311 1.272 . S
O321 Co313 2.135 . S
Co322 O323 2.216 . S
Co322 O324 2.091 . S
Co322 O326 2.004 . S
Co322 O332 2.021 . S
Co322 O334 2.137 . S
Co322 O335 2.244 . S
O323 Co322 2.216 . S
O323 C330 1.247 . S
O324 Co322 2.091 . S
O324 C330 1.261 . S
C325 O334 1.247 . S
C325 O335 1.272 . S
O326 Co322 2.004 . S
O326 C331 1.259 1_556 S
Co327 O328 2.061 . S
Co327 O333 2.052 1_554 S
Co327 O335 2.135 1_554 S
O328 Co327 2.061 . S
O328 C331 1.235 . S
C329 O332 1.238 . S
C329 O333 1.241 . S
C330 O323 1.247 . S
C330 O324 1.261 . S
C331 O326 1.259 1_554 S
C331 O328 1.235 . S
O332 Co322 2.021 . S
O332 C329 1.238 . S
O333 Co327 2.052 1_556 S
O333 C329 1.241 . S
O334 Co322 2.137 . S
O334 C325 1.247 . S
O335 Co322 2.244 . S
O335 C325 1.272 . S
O335 Co327 2.135 1_556 S
Co336 O337 2.216 . S
Co336 O338 2.091 . S
Co336 O340 2.004 . S
Co336 O346 2.021 . S
Co336 O348 2.137 . S
Co336 O349 2.244 . S
O337 Co336 2.216 . S
O337 C344 1.247 . S
O338 Co336 2.091 . S
O338 C344 1.261 . S
C339 O348 1.247 . S
C339 O349 1.272 . S
O340 Co336 2.004 . S
O340 C345 1.259 . S
Co341 O342 2.061 . S
Co341 O347 2.052 . S
Co341 O349 2.135 . S
O342 Co341 2.061 . S
O342 C345 1.235 . S
C343 O346 1.238 . S
C343 O347 1.241 . S
C344 O337 1.247 . S
C344 O338 1.261 . S
C345 O340 1.259 . S
C345 O342 1.235 . S
O346 Co336 2.021 . S
O346 C343 1.238 . S
O347 Co341 2.052 . S
O347 C343 1.241 . S
O348 Co336 2.137 . S
O348 C339 1.247 . S
O349 Co336 2.244 . S
O349 C339 1.272 . S
O349 Co341 2.135 . S
Co350 O351 2.216 . S
Co350 O352 2.091 . S
Co350 O354 2.004 . S
Co350 O360 2.021 . S
Co350 O362 2.137 . S
Co350 O363 2.244 . S
O351 Co350 2.216 . S
O351 C358 1.247 . S
O352 Co350 2.091 . S
O352 C358 1.261 . S
C353 O362 1.247 . S
C353 O363 1.272 . S
O354 Co350 2.004 . S
O354 C359 1.259 . S
Co355 O356 2.061 . S
Co355 O361 2.052 . S
Co355 O363 2.135 . S
O356 Co355 2.061 . S
O356 C359 1.235 . S
C357 O360 1.238 . S
C357 O361 1.241 . S
C358 O351 1.247 . S
C358 O352 1.261 . S
C359 O354 1.259 . S
C359 O356 1.235 . S
O360 Co350 2.021 . S
O360 C357 1.238 . S
O361 Co355 2.052 . S
O361 C357 1.241 . S
O362 Co350 2.137 . S
O362 C353 1.247 . S
O363 Co350 2.244 . S
O363 C353 1.272 . S
O363 Co355 2.135 . S
Co364 O365 2.216 . S
Co364 O366 2.091 . S
Co364 O368 2.004 . S
Co364 O374 2.021 . S
Co364 O376 2.137 . S
Co364 O377 2.244 . S
O365 Co364 2.216 . S
O365 C372 1.247 . S
O366 Co364 2.091 . S
O366 C372 1.261 . S
C367 O376 1.247 . S
C367 O377 1.272 . S
O368 Co364 2.004 . S
O368 C373 1.259 . S
Co369 O370 2.061 . S
Co369 O375 2.052 . S
Co369 O377 2.135 . S
O370 Co369 2.061 . S
O370 C373 1.235 . S
C371 O374 1.238 . S
C371 O375 1.241 . S
C372 O365 1.247 . S
C372 O366 1.261 . S
C373 O368 1.259 . S
C373 O370 1.235 . S
O374 Co364 2.021 . S
O374 C371 1.238 . S
O375 Co369 2.052 . S
O375 C371 1.241 . S
O376 Co364 2.137 . S
O376 C367 1.247 . S
O377 Co364 2.244 . S
O377 C367 1.272 . S
O377 Co369 2.135 . S
Co378 O379 2.216 . S
Co378 O380 2.091 . S
Co378 O382 2.004 . S
Co378 O388 2.021 . S
Co378 O390 2.137 . S
Co378 O391 2.244 . S
O379 Co378 2.216 . S
O379 C386 1.247 . S
O380 Co378 2.091 . S
O380 C386 1.261 . S
C381 O390 1.247 . S
C381 O391 1.272 . S
O382 Co378 2.004 . S
O382 C387 1.259 . S
Co383 O384 2.061 . S
Co383 O389 2.052 . S
Co383 O391 2.135 . S
O384 Co383 2.061 . S
O384 C387 1.235 . S
C385 O388 1.238 . S
C385 O389 1.241 . S
C386 O379 1.247 . S
C386 O380 1.261 . S
C387 O382 1.259 . S
C387 O384 1.235 . S
O388 Co378 2.021 . S
O388 C385 1.238 . S
O389 Co383 2.052 . S
O389 C385 1.241 . S
O390 Co378 2.137 . S
O390 C381 1.247 . S
O391 Co378 2.244 . S
O391 C381 1.272 . S
O391 Co383 2.135 . S
Co392 O393 2.216 . S
Co392 O394 2.091 . S
Co392 O396 2.004 . S
Co392 O402 2.021 . S
Co392 O404 2.137 . S
Co392 O405 2.244 . S
O393 Co392 2.216 . S
O393 C400 1.247 . S
O394 Co392 2.091 . S
O394 C400 1.261 . S
C395 O404 1.247 . S
C395 O405 1.272 . S
O396 Co392 2.004 . S
O396 C401 1.259 . S
Co397 O398 2.061 . S
Co397 O403 2.052 . S
Co397 O405 2.135 . S
O398 Co397 2.061 . S
O398 C401 1.235 . S
C399 O402 1.238 . S
C399 O403 1.241 . S
C400 O393 1.247 . S
C400 O394 1.261 . S
C401 O396 1.259 . S
C401 O398 1.235 . S
O402 Co392 2.021 . S
O402 C399 1.238 . S
O403 Co397 2.052 . S
O403 C399 1.241 . S
O404 Co392 2.137 . S
O404 C395 1.247 . S
O405 Co392 2.244 . S
O405 C395 1.272 . S
O405 Co397 2.135 . S
Co406 O407 2.216 . S
Co406 O408 2.091 . S
Co406 O410 2.004 . S
Co406 O416 2.021 . S
Co406 O418 2.137 . S
Co406 O419 2.244 . S
O407 Co406 2.216 . S
O407 C414 1.247 . S
O408 Co406 2.091 . S
O408 C414 1.261 . S
C409 O418 1.247 . S
C409 O419 1.272 . S
O410 Co406 2.004 . S
O410 C415 1.259 . S
Co411 O412 2.061 . S
Co411 O417 2.052 . S
Co411 O419 2.135 . S
O412 Co411 2.061 . S
O412 C415 1.235 . S
C413 O416 1.238 . S
C413 O417 1.241 . S
C414 O407 1.247 . S
C414 O408 1.261 . S
C415 O410 1.259 . S
C415 O412 1.235 . S
O416 Co406 2.021 . S
O416 C413 1.238 . S
O417 Co411 2.052 . S
O417 C413 1.241 . S
O418 Co406 2.137 . S
O418 C409 1.247 . S
O419 Co406 2.244 . S
O419 C409 1.272 . S
O419 Co411 2.135 . S
Co420 O421 2.216 . S
Co420 O422 2.091 . S
Co420 O424 2.004 . S
Co420 O430 2.021 . S
Co420 O432 2.137 . S
Co420 O433 2.244 . S
O421 Co420 2.216 . S
O421 C428 1.247 . S
O422 Co420 2.091 . S
O422 C428 1.261 . S
C423 O432 1.247 . S
C423 O433 1.272 . S
O424 Co420 2.004 . S
O424 C429 1.259 . S
Co425 O426 2.061 . S
Co425 O431 2.052 . S
Co425 O433 2.135 . S
O426 Co425 2.061 . S
O426 C429 1.235 . S
C427 O430 1.238 . S
C427 O431 1.241 . S
C428 O421 1.247 . S
C428 O422 1.261 . S
C429 O424 1.259 . S
C429 O426 1.235 . S
O430 Co420 2.021 . S
O430 C427 1.238 . S
O431 Co425 2.052 . S
O431 C427 1.241 . S
O432 Co420 2.137 . S
O432 C423 1.247 . S
O433 Co420 2.244 . S
O433 C423 1.272 . S
O433 Co425 2.135 . S
Co434 O435 2.216 . S
Co434 O436 2.091 . S
Co434 O438 2.004 . S
Co434 O444 2.021 . S
Co434 O446 2.137 . S
Co434 O447 2.244 . S
O435 Co434 2.216 . S
O435 C442 1.247 . S
O436 Co434 2.091 . S
O436 C442 1.261 . S
C437 O446 1.247 . S
C437 O447 1.272 . S
O438 Co434 2.004 . S
O438 C443 1.259 . S
Co439 O440 2.061 . S
Co439 O445 2.052 . S
Co439 O447 2.135 . S
O440 Co439 2.061 . S
O440 C443 1.235 . S
C441 O444 1.238 . S
C441 O445 1.241 . S
C442 O435 1.247 . S
C442 O436 1.261 . S
C443 O438 1.259 . S
C443 O440 1.235 . S
O444 Co434 2.021 . S
O444 C441 1.238 . S
O445 Co439 2.052 . S
O445 C441 1.241 . S
O446 Co434 2.137 . S
O446 C437 1.247 . S
O447 Co434 2.244 . S
O447 C437 1.272 . S
O447 Co439 2.135 . S
Co448 O449 2.216 . S
Co448 O450 2.091 . S
Co448 O452 2.004 . S
Co448 O458 2.021 . S
Co448 O460 2.137 . S
Co448 O461 2.244 . S
O449 Co448 2.216 . S
O449 C456 1.247 . S
O450 Co448 2.091 . S
O450 C456 1.261 . S
C451 O460 1.247 . S
C451 O461 1.272 . S
O452 Co448 2.004 . S
O452 C457 1.259 . S
Co453 O454 2.061 . S
Co453 O459 2.052 . S
Co453 O461 2.135 . S
O454 Co453 2.061 . S
O454 C457 1.235 . S
C455 O458 1.238 . S
C455 O459 1.241 . S
C456 O449 1.247 . S
C456 O450 1.261 . S
C457 O452 1.259 . S
C457 O454 1.235 . S
O458 Co448 2.021 . S
O458 C455 1.238 . S
O459 Co453 2.052 . S
O459 C455 1.241 . S
O460 Co448 2.137 . S
O460 C451 1.247 . S
O461 Co448 2.244 . S
O461 C451 1.272 . S
O461 Co453 2.135 . S
Co462 O463 2.216 . S
Co462 O464 2.091 . S
Co462 O466 2.004 . S
Co462 O472 2.021 . S
Co462 O474 2.137 . S
Co462 O475 2.244 . S
O463 Co462 2.216 . S
O463 C470 1.247 . S
O464 Co462 2.091 . S
O464 C470 1.261 . S
C465 O474 1.247 . S
C465 O475 1.272 . S
O466 Co462 2.004 . S
O466 C471 1.259 . S
Co467 O468 2.061 . S
Co467 O473 2.052 . S
Co467 O475 2.135 . S
O468 Co467 2.061 . S
O468 C471 1.235 . S
C469 O472 1.238 . S
C469 O473 1.241 . S
C470 O463 1.247 . S
C470 O464 1.261 . S
C471 O466 1.259 . S
C471 O468 1.235 . S
O472 Co462 2.021 . S
O472 C469 1.238 . S
O473 Co467 2.052 . S
O473 C469 1.241 . S
O474 Co462 2.137 . S
O474 C465 1.247 . S
O475 Co462 2.244 . S
O475 C465 1.272 . S
O475 Co467 2.135 . S
Co476 O477 2.216 . S
Co476 O478 2.091 . S
Co476 O480 2.004 . S
Co476 O486 2.021 . S
Co476 O488 2.137 . S
Co476 O489 2.244 . S
O477 Co476 2.216 . S
O477 C484 1.247 . S
O478 Co476 2.091 . S
O478 C484 1.261 . S
C479 O488 1.247 . S
C479 O489 1.272 . S
O480 Co476 2.004 . S
O480 C485 1.259 . S
Co481 O482 2.061 . S
Co481 O487 2.052 . S
Co481 O489 2.135 . S
O482 Co481 2.061 . S
O482 C485 1.235 . S
C483 O486 1.238 . S
C483 O487 1.241 . S
C484 O477 1.247 . S
C484 O478 1.261 . S
C485 O480 1.259 . S
C485 O482 1.235 . S
O486 Co476 2.021 . S
O486 C483 1.238 . S
O487 Co481 2.052 . S
O487 C483 1.241 . S
O488 Co476 2.137 . S
O488 C479 1.247 . S
O489 Co476 2.244 . S
O489 C479 1.272 . S
O489 Co481 2.135 . S
Co490 O491 2.216 . S
Co490 O492 2.091 . S
Co490 O494 2.004 . S
Co490 O500 2.021 . S
Co490 O502 2.137 . S
Co490 O503 2.244 . S
O491 Co490 2.216 . S
O491 C498 1.247 . S
O492 Co490 2.091 . S
O492 C498 1.261 . S
C493 O502 1.247 . S
C493 O503 1.272 . S
O494 Co490 2.004 . S
O494 C499 1.259 1_655 S
Co495 O496 2.061 . S
Co495 O501 2.052 1_455 S
Co495 O503 2.135 1_455 S
O496 Co495 2.061 . S
O496 C499 1.235 . S
C497 O500 1.238 . S
C497 O501 1.241 . S
C498 O491 1.247 . S
C498 O492 1.261 . S
C499 O494 1.259 1_455 S
C499 O496 1.235 . S
O500 Co490 2.021 . S
O500 C497 1.238 . S
O501 Co495 2.052 1_655 S
O501 C497 1.241 . S
O502 Co490 2.137 . S
O502 C493 1.247 . S
O503 Co490 2.244 . S
O503 C493 1.272 . S
O503 Co495 2.135 1_655 S
Co504 O505 2.216 . S
Co504 O506 2.091 . S
Co504 O508 2.004 . S
Co504 O514 2.021 . S
Co504 O516 2.137 . S
Co504 O517 2.244 . S
O505 Co504 2.216 . S
O505 C512 1.247 . S
O506 Co504 2.091 . S
O506 C512 1.261 . S
C507 O516 1.247 . S
C507 O517 1.272 . S
O508 Co504 2.004 . S
O508 C513 1.259 . S
Co509 O510 2.061 . S
Co509 O515 2.052 . S
Co509 O517 2.135 . S
O510 Co509 2.061 . S
O510 C513 1.235 . S
C511 O514 1.238 . S
C511 O515 1.241 . S
C512 O505 1.247 . S
C512 O506 1.261 . S
C513 O508 1.259 . S
C513 O510 1.235 . S
O514 Co504 2.021 . S
O514 C511 1.238 . S
O515 Co509 2.052 . S
O515 C511 1.241 . S
O516 Co504 2.137 . S
O516 C507 1.247 . S
O517 Co504 2.244 . S
O517 C507 1.272 . S
O517 Co509 2.135 . S
Co518 O519 2.216 . S
Co518 O520 2.091 . S
Co518 O522 2.004 . S
Co518 O528 2.021 . S
Co518 O530 2.137 . S
Co518 O531 2.244 . S
O519 Co518 2.216 . S
O519 C526 1.247 . S
O520 Co518 2.091 . S
O520 C526 1.261 . S
C521 O530 1.247 . S
C521 O531 1.272 . S
O522 Co518 2.004 . S
O522 C527 1.259 1_655 S
Co523 O524 2.061 . S
Co523 O529 2.052 1_455 S
Co523 O531 2.135 1_455 S
O524 Co523 2.061 . S
O524 C527 1.235 . S
C525 O528 1.238 . S
C525 O529 1.241 . S
C526 O519 1.247 . S
C526 O520 1.261 . S
C527 O522 1.259 1_455 S
C527 O524 1.235 . S
O528 Co518 2.021 . S
O528 C525 1.238 . S
O529 Co523 2.052 1_655 S
O529 C525 1.241 . S
O530 Co518 2.137 . S
O530 C521 1.247 . S
O531 Co518 2.244 . S
O531 C521 1.272 . S
O531 Co523 2.135 1_655 S
Co532 O533 2.216 . S
Co532 O534 2.091 . S
Co532 O536 2.004 . S
Co532 O542 2.021 . S
Co532 O544 2.137 . S
Co532 O545 2.244 . S
O533 Co532 2.216 . S
O533 C540 1.247 . S
O534 Co532 2.091 . S
O534 C540 1.261 . S
C535 O544 1.247 . S
C535 O545 1.272 . S
O536 Co532 2.004 . S
O536 C541 1.259 . S
Co537 O538 2.061 . S
Co537 O543 2.052 . S
Co537 O545 2.135 . S
O538 Co537 2.061 . S
O538 C541 1.235 . S
C539 O542 1.238 . S
C539 O543 1.241 . S
C540 O533 1.247 . S
C540 O534 1.261 . S
C541 O536 1.259 . S
C541 O538 1.235 . S
O542 Co532 2.021 . S
O542 C539 1.238 . S
O543 Co537 2.052 . S
O543 C539 1.241 . S
O544 Co532 2.137 . S
O544 C535 1.247 . S
O545 Co532 2.244 . S
O545 C535 1.272 . S
O545 Co537 2.135 . S
Co546 O547 2.216 . S
Co546 O548 2.091 . S
Co546 O550 2.004 . S
Co546 O556 2.021 . S
Co546 O558 2.137 . S
Co546 O559 2.244 . S
O547 Co546 2.216 . S
O547 C554 1.247 . S
O548 Co546 2.091 . S
O548 C554 1.261 . S
C549 O558 1.247 . S
C549 O559 1.272 . S
O550 Co546 2.004 . S
O550 C555 1.259 . S
Co551 O552 2.061 . S
Co551 O557 2.052 . S
Co551 O559 2.135 . S
O552 Co551 2.061 . S
O552 C555 1.235 . S
C553 O556 1.238 . S
C553 O557 1.241 . S
C554 O547 1.247 . S
C554 O548 1.261 . S
C555 O550 1.259 . S
C555 O552 1.235 . S
O556 Co546 2.021 . S
O556 C553 1.238 . S
O557 Co551 2.052 . S
O557 C553 1.241 . S
O558 Co546 2.137 . S
O558 C549 1.247 . S
O559 Co546 2.244 . S
O559 C549 1.272 . S
O559 Co551 2.135 . S
Co560 O561 2.216 . S
Co560 O562 2.091 . S
Co560 O564 2.004 . S
Co560 O570 2.021 . S
Co560 O572 2.137 . S
Co560 O573 2.244 . S
O561 Co560 2.216 . S
O561 C568 1.247 . S
O562 Co560 2.091 . S
O562 C568 1.261 . S
C563 O572 1.247 . S
C563 O573 1.272 . S
O564 Co560 2.004 . S
O564 C569 1.259 . S
Co565 O566 2.061 . S
Co565 O571 2.052 . S
Co565 O573 2.135 . S
O566 Co565 2.061 . S
O566 C569 1.235 . S
C567 O570 1.238 . S
C567 O571 1.241 . S
C568 O561 1.247 . S
C568 O562 1.261 . S
C569 O564 1.259 . S
C569 O566 1.235 . S
O570 Co560 2.021 . S
O570 C567 1.238 . S
O571 Co565 2.052 . S
O571 C567 1.241 . S
O572 Co560 2.137 . S
O572 C563 1.247 . S
O573 Co560 2.244 . S
O573 C563 1.272 . S
O573 Co565 2.135 . S
Co574 O575 2.216 . S
Co574 O576 2.091 . S
Co574 O578 2.004 . S
Co574 O584 2.021 . S
Co574 O586 2.137 . S
Co574 O587 2.244 . S
O575 Co574 2.216 . S
O575 C582 1.247 . S
O576 Co574 2.091 . S
O576 C582 1.261 . S
C577 O586 1.247 . S
C577 O587 1.272 . S
O578 Co574 2.004 . S
O578 C583 1.259 . S
Co579 O580 2.061 . S
Co579 O585 2.052 . S
Co579 O587 2.135 . S
O580 Co579 2.061 . S
O580 C583 1.235 . S
C581 O584 1.238 . S
C581 O585 1.241 . S
C582 O575 1.247 . S
C582 O576 1.261 . S
C583 O578 1.259 . S
C583 O580 1.235 . S
O584 Co574 2.021 . S
O584 C581 1.238 . S
O585 Co579 2.052 . S
O585 C581 1.241 . S
O586 Co574 2.137 . S
O586 C577 1.247 . S
O587 Co574 2.244 . S
O587 C577 1.272 . S
O587 Co579 2.135 . S
Co588 O589 2.216 . S
Co588 O590 2.091 . S
Co588 O592 2.004 . S
Co588 O598 2.021 . S
Co588 O600 2.137 . S
Co588 O601 2.244 . S
O589 Co588 2.216 . S
O589 C596 1.247 . S
O590 Co588 2.091 . S
O590 C596 1.261 . S
C591 O600 1.247 . S
C591 O601 1.272 . S
O592 Co588 2.004 . S
O592 C597 1.259 . S
Co593 O594 2.061 . S
Co593 O599 2.052 . S
Co593 O601 2.135 . S
O594 Co593 2.061 . S
O594 C597 1.235 . S
C595 O598 1.238 . S
C595 O599 1.241 . S
C596 O589 1.247 . S
C596 O590 1.261 . S
C597 O592 1.259 . S
C597 O594 1.235 . S
O598 Co588 2.021 . S
O598 C595 1.238 . S
O599 Co593 2.052 . S
O599 C595 1.241 . S
O600 Co588 2.137 . S
O600 C591 1.247 . S
O601 Co588 2.244 . S
O601 C591 1.272 . S
O601 Co593 2.135 . S
Co602 O603 2.216 . S
Co602 O604 2.091 . S
Co602 O606 2.004 . S
Co602 O612 2.021 . S
Co602 O614 2.137 . S
Co602 O615 2.244 . S
O603 Co602 2.216 . S
O603 C610 1.247 . S
O604 Co602 2.091 . S
O604 C610 1.261 . S
C605 O614 1.247 . S
C605 O615 1.272 . S
O606 Co602 2.004 . S
O606 C611 1.259 . S
Co607 O608 2.061 . S
Co607 O613 2.052 . S
Co607 O615 2.135 . S
O608 Co607 2.061 . S
O608 C611 1.235 . S
C609 O612 1.238 . S
C609 O613 1.241 . S
C610 O603 1.247 . S
C610 O604 1.261 . S
C611 O606 1.259 . S
C611 O608 1.235 . S
O612 Co602 2.021 . S
O612 C609 1.238 . S
O613 Co607 2.052 . S
O613 C609 1.241 . S
O614 Co602 2.137 . S
O614 C605 1.247 . S
O615 Co602 2.244 . S
O615 C605 1.272 . S
O615 Co607 2.135 . S
Co616 O617 2.216 . S
Co616 O618 2.091 . S
Co616 O620 2.004 . S
Co616 O626 2.021 . S
Co616 O628 2.137 . S
Co616 O629 2.244 . S
O617 Co616 2.216 . S
O617 C624 1.247 . S
O618 Co616 2.091 . S
O618 C624 1.261 . S
C619 O628 1.247 . S
C619 O629 1.272 . S
O620 Co616 2.004 . S
O620 C625 1.259 . S
Co621 O622 2.061 . S
Co621 O627 2.052 . S
Co621 O629 2.135 . S
O622 Co621 2.061 . S
O622 C625 1.235 . S
C623 O626 1.238 . S
C623 O627 1.241 . S
C624 O617 1.247 . S
C624 O618 1.261 . S
C625 O620 1.259 . S
C625 O622 1.235 . S
O626 Co616 2.021 . S
O626 C623 1.238 . S
O627 Co621 2.052 . S
O627 C623 1.241 . S
O628 Co616 2.137 . S
O628 C619 1.247 . S
O629 Co616 2.244 . S
O629 C619 1.272 . S
O629 Co621 2.135 . S
Co630 O631 2.216 . S
Co630 O632 2.091 . S
Co630 O634 2.004 . S
Co630 O640 2.021 . S
Co630 O642 2.137 . S
Co630 O643 2.244 . S
O631 Co630 2.216 . S
O631 C638 1.247 . S
O632 Co630 2.091 . S
O632 C638 1.261 . S
C633 O642 1.247 . S
C633 O643 1.272 . S
O634 Co630 2.004 . S
O634 C639 1.259 . S
Co635 O636 2.061 . S
Co635 O641 2.052 . S
Co635 O643 2.135 . S
O636 Co635 2.061 . S
O636 C639 1.235 . S
C637 O640 1.238 . S
C637 O641 1.241 . S
C638 O631 1.247 . S
C638 O632 1.261 . S
C639 O634 1.259 . S
C639 O636 1.235 . S
O640 Co630 2.021 . S
O640 C637 1.238 . S
O641 Co635 2.052 . S
O641 C637 1.241 . S
O642 Co630 2.137 . S
O642 C633 1.247 . S
O643 Co630 2.244 . S
O643 C633 1.272 . S
O643 Co635 2.135 . S
Co644 O645 2.216 . S
Co644 O646 2.091 . S
Co644 O648 2.004 . S
Co644 O654 2.021 . S
Co644 O656 2.137 . S
Co644 O657 2.244 . S
O645 Co644 2.216 . S
O645 C652 1.247 . S
O646 Co644 2.091 . S
O646 C652 1.261 . S
C647 O656 1.247 . S
C647 O657 1.272 . S
O648 Co644 2.004 . S
O648 C653 1.259 1_556 S
Co649 O650 2.061 . S
Co649 O655 2.052 1_554 S
Co649 O657 2.135 1_554 S
O650 Co649 2.061 . S
O650 C653 1.235 . S
C651 O654 1.238 . S
C651 O655 1.241 . S
C652 O645 1.247 . S
C652 O646 1.261 . S
C653 O648 1.259 1_554 S
C653 O650 1.235 . S
O654 Co644 2.021 . S
O654 C651 1.238 . S
O655 Co649 2.052 1_556 S
O655 C651 1.241 . S
O656 Co644 2.137 . S
O656 C647 1.247 . S
O657 Co644 2.244 . S
O657 C647 1.272 . S
O657 Co649 2.135 1_556 S
Co658 O659 2.216 . S
Co658 O660 2.091 . S
Co658 O662 2.004 . S
Co658 O668 2.021 . S
Co658 O670 2.137 . S
Co658 O671 2.244 . S
O659 Co658 2.216 . S
O659 C666 1.247 . S
O660 Co658 2.091 . S
O660 C666 1.261 . S
C661 O670 1.247 . S
C661 O671 1.272 . S
O662 Co658 2.004 . S
O662 C667 1.259 . S
Co663 O664 2.061 . S
Co663 O669 2.052 . S
Co663 O671 2.135 . S
O664 Co663 2.061 . S
O664 C667 1.235 . S
C665 O668 1.238 . S
C665 O669 1.241 . S
C666 O659 1.247 . S
C666 O660 1.261 . S
C667 O662 1.259 . S
C667 O664 1.235 . S
O668 Co658 2.021 . S
O668 C665 1.238 . S
O669 Co663 2.052 . S
O669 C665 1.241 . S
O670 Co658 2.137 . S
O670 C661 1.247 . S
O671 Co658 2.244 . S
O671 C661 1.272 . S
O671 Co663 2.135 . S
H672 C680 0.929 . S
H673 C682 0.930 . S
H674 C684 0.930 . S
H675 C687 0.929 . S
H676 C690 0.930 . S
H677 C692 0.960 . S
H678 C692 0.960 . S
H679 C692 0.960 . S
C680 H672 0.929 . S
C680 C681 1.377 . S
C680 C682 1.384 . S
C681 C680 1.377 . S
C681 C687 1.390 . S
C682 H673 0.930 . S
C682 C680 1.384 . S
C682 C683 1.372 . S
C683 C682 1.372 . S
C683 C684 1.400 . S
C683 C688 1.490 . S
C684 H674 0.930 . S
C684 C683 1.400 . S
C684 C687 1.386 . S
H685 C701 0.930 . S
H686 C702 0.931 . S
C687 H675 0.929 . S
C687 C681 1.390 . S
C687 C684 1.386 . S
C688 C683 1.490 . S
C688 C690 1.395 . S
C688 C691 1.403 . S
H689 C695 0.930 . S
C690 H676 0.930 . S
C690 C688 1.395 . S
C690 C693 1.403 . S
C691 C688 1.403 . S
C691 C692 1.524 . S
C691 C695 1.400 . S
C692 H677 0.960 . S
C692 H678 0.960 . S
C692 H679 0.960 . S
C692 C691 1.524 . S
C693 C690 1.403 . S
C693 C694 1.392 . S
C693 C697 1.495 . S
C694 C693 1.392 . S
C694 C695 1.385 . S
C694 C696 1.478 . S
C695 H689 0.930 . S
C695 C691 1.400 . S
C695 C694 1.385 . S
C696 C694 1.478 . S
C696 C698 1.381 . S
C696 C702 1.383 . S
C697 C693 1.495 . S
C697 H703 0.959 . S
C697 H704 0.961 . S
C697 H705 0.960 . S
C698 C696 1.381 . S
C698 C699 1.394 . S
C698 H706 0.930 . S
C699 C698 1.394 . S
C699 C700 1.383 . S
C699 H707 0.929 . S
C700 C699 1.383 . S
C700 C701 1.377 . S
C701 H685 0.930 . S
C701 C700 1.377 . S
C701 C702 1.379 . S
C702 H686 0.931 . S
C702 C696 1.383 . S
C702 C701 1.379 . S
H703 C697 0.959 . S
H704 C697 0.961 . S
H705 C697 0.960 . S
H706 C698 0.930 . S
H707 C699 0.929 . S
H708 C716 0.929 . S
H709 C718 0.930 . S
H710 C720 0.930 . S
H711 C723 0.929 . S
H712 C726 0.930 . S
H713 C728 0.960 . S
H714 C728 0.960 . S
H715 C728 0.960 . S
C716 H708 0.929 . S
C716 C717 1.377 . S
C716 C718 1.384 . S
C717 C716 1.377 . S
C717 C723 1.390 . S
C718 H709 0.930 . S
C718 C716 1.384 . S
C718 C719 1.372 . S
C719 C718 1.372 . S
C719 C720 1.400 . S
C719 C724 1.490 . S
C720 H710 0.930 . S
C720 C719 1.400 . S
C720 C723 1.386 . S
H721 C737 0.930 . S
H722 C738 0.931 . S
C723 H711 0.929 . S
C723 C717 1.390 . S
C723 C720 1.386 . S
C724 C719 1.490 . S
C724 C726 1.395 1_565 S
C724 C727 1.403 . S
H725 C731 0.930 . S
C726 H712 0.930 . S
C726 C724 1.395 1_545 S
C726 C729 1.403 . S
C727 C724 1.403 . S
C727 C728 1.524 . S
C727 C731 1.400 . S
C728 H713 0.960 . S
C728 H714 0.960 . S
C728 H715 0.960 . S
C728 C727 1.524 . S
C729 C726 1.403 . S
C729 C730 1.392 . S
C729 C733 1.495 . S
C730 C729 1.392 . S
C730 C731 1.385 1_545 S
C730 C732 1.478 . S
C731 H725 0.930 . S
C731 C727 1.400 . S
C731 C730 1.385 1_565 S
C732 C730 1.478 . S
C732 C734 1.381 . S
C732 C738 1.383 . S
C733 C729 1.495 . S
C733 H739 0.959 . S
C733 H740 0.961 . S
C733 H741 0.960 . S
C734 C732 1.381 . S
C734 C735 1.394 . S
C734 H742 0.930 . S
C735 C734 1.394 . S
C735 C736 1.383 . S
C735 H743 0.929 . S
C736 C735 1.383 . S
C736 C737 1.377 . S
C737 H721 0.930 . S
C737 C736 1.377 . S
C737 C738 1.379 . S
C738 H722 0.931 . S
C738 C732 1.383 . S
C738 C737 1.379 . S
H739 C733 0.959 . S
H740 C733 0.961 . S
H741 C733 0.960 . S
H742 C734 0.930 . S
H743 C735 0.929 . S
H744 C752 0.929 . S
H745 C754 0.930 . S
H746 C756 0.930 . S
H747 C759 0.929 . S
H748 C762 0.930 . S
H749 C764 0.960 . S
H750 C764 0.960 . S
H751 C764 0.960 . S
C752 H744 0.929 . S
C752 C753 1.377 . S
C752 C754 1.384 . S
C753 C752 1.377 . S
C753 C759 1.390 . S
C754 H745 0.930 . S
C754 C752 1.384 . S
C754 C755 1.372 . S
C755 C754 1.372 . S
C755 C756 1.400 . S
C755 C760 1.490 . S
C756 H746 0.930 . S
C756 C755 1.400 . S
C756 C759 1.386 . S
H757 C773 0.930 . S
H758 C774 0.931 . S
C759 H747 0.929 . S
C759 C753 1.390 . S
C759 C756 1.386 . S
C760 C755 1.490 . S
C760 C762 1.395 . S
C760 C763 1.403 . S
H761 C767 0.930 . S
C762 H748 0.930 . S
C762 C760 1.395 . S
C762 C765 1.403 1_556 S
C763 C760 1.403 . S
C763 C764 1.524 . S
C763 C767 1.400 1_556 S
C764 H749 0.960 . S
C764 H750 0.960 . S
C764 H751 0.960 . S
C764 C763 1.524 . S
C765 C762 1.403 1_554 S
C765 C766 1.392 . S
C765 C769 1.495 . S
C766 C765 1.392 . S
C766 C767 1.385 . S
C766 C768 1.478 . S
C767 H761 0.930 . S
C767 C763 1.400 1_554 S
C767 C766 1.385 . S
C768 C766 1.478 . S
C768 C770 1.381 . S
C768 C774 1.383 . S
C769 C765 1.495 . S
C769 H775 0.959 . S
C769 H776 0.961 . S
C769 H777 0.960 . S
C770 C768 1.381 . S
C770 C771 1.394 . S
C770 H778 0.930 . S
C771 C770 1.394 . S
C771 C772 1.383 . S
C771 H779 0.929 . S
C772 C771 1.383 . S
C772 C773 1.377 . S
C773 H757 0.930 . S
C773 C772 1.377 . S
C773 C774 1.379 . S
C774 H758 0.931 . S
C774 C768 1.383 . S
C774 C773 1.379 . S
H775 C769 0.959 . S
H776 C769 0.961 . S
H777 C769 0.960 . S
H778 C770 0.930 . S
H779 C771 0.929 . S
H780 C788 0.928 1_545 S
H781 C790 0.930 . S
H782 C792 0.930 . S
H783 C795 0.929 . S
H784 C798 0.930 . S
H785 C800 0.960 . S
H786 C800 0.960 . S
H787 C800 0.960 . S
C788 H780 0.928 1_565 S
C788 C789 1.379 . S
C788 C790 1.383 1_565 S
C789 C788 1.379 . S
C789 C795 1.390 . S
C790 H781 0.930 . S
C790 C788 1.383 1_545 S
C790 C791 1.372 1_545 S
C791 C790 1.372 1_565 S
C791 C792 1.400 . S
C791 C796 1.490 . S
C792 H782 0.930 . S
C792 C791 1.400 . S
C792 C795 1.386 . S
H793 C809 0.909 1_565 S
H794 C810 0.931 1_565 S
C795 H783 0.929 . S
C795 C789 1.390 . S
C795 C792 1.386 . S
C796 C791 1.490 . S
C796 C798 1.395 1_565 S
C796 C799 1.403 . S
H797 C803 0.930 . S
C798 H784 0.930 . S
C798 C796 1.395 1_545 S
C798 C801 1.403 . S
C799 C796 1.403 . S
C799 C800 1.524 . S
C799 C803 1.400 . S
C800 H785 0.960 . S
C800 H786 0.960 . S
C800 H787 0.960 . S
C800 C799 1.524 . S
C801 C798 1.403 . S
C801 C802 1.392 . S
C801 C805 1.495 . S
C802 C801 1.392 . S
C802 C803 1.385 1_545 S
C802 C804 1.478 . S
C803 H797 0.930 . S
C803 C799 1.400 . S
C803 C802 1.385 1_565 S
C804 C802 1.478 . S
C804 C806 1.381 . S
C804 C810 1.383 . S
C805 C801 1.495 . S
C805 H811 0.959 . S
C805 H812 0.961 . S
C805 H813 0.960 . S
C806 C804 1.381 . S
C806 C807 1.394 . S
C806 H814 0.930 . S
C807 C806 1.394 . S
C807 C808 1.383 . S
C807 H815 0.929 . S
C808 C807 1.383 . S
C808 C809 1.377 . S
C809 H793 0.909 1_545 S
C809 C808 1.377 . S
C809 C810 1.379 . S
C810 H794 0.931 1_545 S
C810 C804 1.383 . S
C810 C809 1.379 . S
H811 C805 0.959 . S
H812 C805 0.961 . S
H813 C805 0.960 . S
H814 C806 0.930 . S
H815 C807 0.929 . S
H816 C824 0.929 . S
H817 C826 0.930 . S
H818 C828 0.930 . S
H819 C831 0.929 . S
H820 C834 0.930 . S
H821 C836 0.960 . S
H822 C836 0.960 . S
H823 C836 0.960 . S
C824 H816 0.929 . S
C824 C825 1.377 . S
C824 C826 1.384 . S
C825 C824 1.377 . S
C825 C831 1.390 . S
C826 H817 0.930 . S
C826 C824 1.384 . S
C826 C827 1.372 . S
C827 C826 1.372 . S
C827 C828 1.400 . S
C827 C832 1.490 . S
C828 H818 0.930 . S
C828 C827 1.400 . S
C828 C831 1.386 . S
H829 C845 0.930 . S
H830 C846 0.931 . S
C831 H819 0.929 . S
C831 C825 1.390 . S
C831 C828 1.386 . S
C832 C827 1.490 . S
C832 C834 1.395 . S
C832 C835 1.403 . S
H833 C839 0.930 . S
C834 H820 0.930 . S
C834 C832 1.395 . S
C834 C837 1.403 . S
C835 C832 1.403 . S
C835 C836 1.524 . S
C835 C839 1.400 . S
C836 H821 0.960 . S
C836 H822 0.960 . S
C836 H823 0.960 . S
C836 C835 1.524 . S
C837 C834 1.403 . S
C837 C838 1.392 . S
C837 C841 1.495 . S
C838 C837 1.392 . S
C838 C839 1.385 . S
C838 C840 1.478 . S
C839 H833 0.930 . S
C839 C835 1.400 . S
C839 C838 1.385 . S
C840 C838 1.478 . S
C840 C842 1.381 . S
C840 C846 1.383 . S
C841 C837 1.495 . S
C841 H847 0.959 . S
C841 H848 0.961 . S
C841 H849 0.960 . S
C842 C840 1.381 . S
C842 C843 1.394 . S
C842 H850 0.930 . S
C843 C842 1.394 . S
C843 C844 1.383 . S
C843 H851 0.929 . S
C844 C843 1.383 . S
C844 C845 1.377 . S
C845 H829 0.930 . S
C845 C844 1.377 . S
C845 C846 1.379 . S
C846 H830 0.931 . S
C846 C840 1.383 . S
C846 C845 1.379 . S
H847 C841 0.959 . S
H848 C841 0.961 . S
H849 C841 0.960 . S
H850 C842 0.930 . S
H851 C843 0.929 . S
H852 C860 0.929 . S
H853 C862 0.930 . S
H854 C864 0.930 1_455 S
H855 C867 0.929 . S
H856 C870 0.930 . S
H857 C872 0.960 . S
H858 C872 0.960 . S
H859 C872 0.960 . S
C860 H852 0.929 . S
C860 C861 1.377 . S
C860 C862 1.384 . S
C861 C860 1.377 . S
C861 C867 1.390 . S
C862 H853 0.930 . S
C862 C860 1.384 . S
C862 C863 1.372 . S
C863 C862 1.372 . S
C863 C864 1.400 . S
C863 C868 1.490 . S
C864 H854 0.930 1_655 S
C864 C863 1.400 . S
C864 C867 1.386 . S
H865 C881 0.930 . S
H866 C882 0.931 . S
C867 H855 0.929 . S
C867 C861 1.390 . S
C867 C864 1.386 . S
C868 C863 1.490 . S
C868 C870 1.395 . S
C868 C871 1.403 1_655 S
H869 C875 0.930 . S
C870 H856 0.930 . S
C870 C868 1.395 . S
C870 C873 1.403 . S
C871 C868 1.403 1_455 S
C871 C872 1.524 . S
C871 C875 1.400 . S
C872 H857 0.960 . S
C872 H858 0.960 . S
C872 H859 0.960 . S
C872 C871 1.524 . S
C873 C870 1.403 . S
C873 C874 1.447 . S
C873 C877 1.495 . S
C874 C873 1.447 . S
C874 C875 1.336 1_655 S
C874 C876 1.472 1_655 S
C875 H869 0.930 . S
C875 C871 1.400 . S
C875 C874 1.336 1_455 S
C876 C874 1.472 1_455 S
C876 C878 1.384 . S
C876 C882 1.383 . S
C877 C873 1.495 . S
C877 H883 0.959 . S
C877 H884 0.961 . S
C877 H885 0.960 . S
C878 C876 1.384 . S
C878 C879 1.407 . S
C878 H886 0.919 1_455 S
C879 C878 1.407 . S
C879 C880 1.383 . S
C879 H887 0.929 . S
C880 C879 1.383 . S
C880 C881 1.377 . S
C881 H865 0.930 . S
C881 C880 1.377 . S
C881 C882 1.379 . S
C882 H866 0.931 . S
C882 C876 1.383 . S
C882 C881 1.379 . S
H883 C877 0.959 . S
H884 C877 0.961 . S
H885 C877 0.960 . S
H886 C878 0.919 1_655 S
H887 C879 0.929 . S
H888 C896 0.929 . S
H889 C898 0.930 . S
H890 C900 0.930 . S
H891 C903 0.929 . S
H892 C906 0.930 . S
H893 C908 0.960 . S
H894 C908 0.960 . S
H895 C908 0.960 . S
C896 H888 0.929 . S
C896 C897 1.377 . S
C896 C898 1.384 . S
C897 C896 1.377 . S
C897 C903 1.390 . S
C898 H889 0.930 . S
C898 C896 1.384 . S
C898 C899 1.372 . S
C899 C898 1.372 . S
C899 C900 1.400 . S
C899 C904 1.490 . S
C900 H890 0.930 . S
C900 C899 1.400 . S
C900 C903 1.386 . S
H901 C917 0.930 . S
H902 C918 0.931 . S
C903 H891 0.929 . S
C903 C897 1.390 . S
C903 C900 1.386 . S
C904 C899 1.490 . S
C904 C906 1.395 . S
C904 C907 1.403 . S
H905 C911 0.930 . S
C906 H892 0.930 . S
C906 C904 1.395 . S
C906 C909 1.403 1_455 S
C907 C904 1.403 . S
C907 C908 1.524 . S
C907 C911 1.400 1_455 S
C908 H893 0.960 . S
C908 H894 0.960 . S
C908 H895 0.960 . S
C908 C907 1.524 . S
C909 C906 1.403 1_655 S
C909 C910 1.392 . S
C909 C913 1.495 . S
C910 C909 1.392 . S
C910 C911 1.385 . S
C910 C912 1.478 . S
C911 H905 0.930 . S
C911 C907 1.400 1_655 S
C911 C910 1.385 . S
C912 C910 1.478 . S
C912 C914 1.381 . S
C912 C918 1.383 . S
C913 C909 1.495 . S
C913 H919 0.959 . S
C913 H920 0.961 . S
C913 H921 0.960 . S
C914 C912 1.381 . S
C914 C915 1.394 . S
C914 H922 0.930 . S
C915 C914 1.394 . S
C915 C916 1.383 . S
C915 H923 0.929 . S
C916 C915 1.383 . S
C916 C917 1.377 . S
C917 H901 0.930 . S
C917 C916 1.377 . S
C917 C918 1.379 . S
C918 H902 0.931 . S
C918 C912 1.383 . S
C918 C917 1.379 . S
H919 C913 0.959 . S
H920 C913 0.961 . S
H921 C913 0.960 . S
H922 C914 0.930 . S
H923 C915 0.929 . S
H924 C932 0.929 . S
H925 C934 0.930 . S
H926 C936 0.930 . S
H927 C939 0.929 . S
H928 C942 0.930 . S
H929 C944 0.960 . S
H930 C944 0.960 . S
H931 C944 0.960 . S
C932 H924 0.929 . S
C932 C933 1.377 . S
C932 C934 1.384 . S
C933 C932 1.377 . S
C933 C939 1.390 . S
C934 H925 0.930 . S
C934 C932 1.384 . S
C934 C935 1.372 . S
C935 C934 1.372 . S
C935 C936 1.400 . S
C935 C940 1.490 . S
C936 H926 0.930 . S
C936 C935 1.400 . S
C936 C939 1.386 . S
H937 C953 0.930 . S
H938 C954 0.931 . S
C939 H927 0.929 . S
C939 C933 1.390 . S
C939 C936 1.386 . S
C940 C935 1.490 . S
C940 C942 1.395 . S
C940 C943 1.403 . S
H941 C947 0.930 . S
C942 H928 0.930 . S
C942 C940 1.395 . S
C942 C945 1.403 . S
C943 C940 1.403 . S
C943 C944 1.524 . S
C943 C947 1.400 . S
C944 H929 0.960 . S
C944 H930 0.960 . S
C944 H931 0.960 . S
C944 C943 1.524 . S
C945 C942 1.403 . S
C945 C946 1.392 . S
C945 C949 1.495 . S
C946 C945 1.392 . S
C946 C947 1.385 . S
C946 C948 1.478 . S
C947 H941 0.930 . S
C947 C943 1.400 . S
C947 C946 1.385 . S
C948 C946 1.478 . S
C948 C950 1.381 . S
C948 C954 1.383 . S
C949 C945 1.495 . S
C949 H955 0.959 . S
C949 H956 0.961 . S
C949 H957 0.960 . S
C950 C948 1.381 . S
C950 C951 1.394 . S
C950 H958 0.930 . S
C951 C950 1.394 . S
C951 C952 1.383 . S
C951 H959 0.929 . S
C952 C951 1.383 . S
C952 C953 1.377 . S
C953 H937 0.930 . S
C953 C952 1.377 . S
C953 C954 1.379 . S
C954 H938 0.931 . S
C954 C948 1.383 . S
C954 C953 1.379 . S
H955 C949 0.959 . S
H956 C949 0.961 . S
H957 C949 0.960 . S
H958 C950 0.930 . S
H959 C951 0.929 . S
H960 C968 0.929 . S
H961 C970 0.930 . S
H962 C972 0.930 . S
H963 C975 0.929 . S
H964 C978 0.930 . S
H965 C980 0.960 . S
H966 C980 0.960 . S
H967 C980 0.960 . S
C968 H960 0.929 . S
C968 C969 1.377 . S
C968 C970 1.384 . S
C969 C968 1.377 . S
C969 C975 1.390 . S
C970 H961 0.930 . S
C970 C968 1.384 . S
C970 C971 1.372 . S
C971 C970 1.372 . S
C971 C972 1.400 . S
C971 C976 1.490 . S
C972 H962 0.930 . S
C972 C971 1.400 . S
C972 C975 1.386 . S
H973 C989 0.930 . S
H974 C990 0.931 . S
C975 H963 0.929 . S
C975 C969 1.390 . S
C975 C972 1.386 . S
C976 C971 1.490 . S
C976 C978 1.395 . S
C976 C979 1.403 . S
H977 C983 0.930 . S
C978 H964 0.930 . S
C978 C976 1.395 . S
C978 C981 1.403 . S
C979 C976 1.403 . S
C979 C980 1.524 . S
C979 C983 1.400 . S
C980 H965 0.960 . S
C980 H966 0.960 . S
C980 H967 0.960 . S
C980 C979 1.524 . S
C981 C978 1.403 . S
C981 C982 1.392 . S
C981 C985 1.495 . S
C982 C981 1.392 . S
C982 C983 1.385 . S
C982 C984 1.478 . S
C983 H977 0.930 . S
C983 C979 1.400 . S
C983 C982 1.385 . S
C984 C982 1.478 . S
C984 C986 1.381 . S
C984 C990 1.383 . S
C985 C981 1.495 . S
C985 H991 0.959 . S
C985 H992 0.961 . S
C985 H993 0.960 . S
C986 C984 1.381 . S
C986 C987 1.394 . S
C986 H994 0.930 . S
C987 C986 1.394 . S
C987 C988 1.383 . S
C987 H995 0.929 . S
C988 C987 1.383 . S
C988 C989 1.377 . S
C989 H973 0.930 . S
C989 C988 1.377 . S
C989 C990 1.379 . S
C990 H974 0.931 . S
C990 C984 1.383 . S
C990 C989 1.379 . S
H991 C985 0.959 . S
H992 C985 0.961 . S
H993 C985 0.960 . S
H994 C986 0.930 . S
H995 C987 0.929 . S
H996 C1004 0.929 . S
H997 C1006 0.930 . S
H998 C1008 0.930 . S
H999 C1011 0.929 . S
H1000 C1014 0.930 . S
H1001 C1016 0.960 . S
H1002 C1016 0.960 . S
H1003 C1016 0.960 . S
C1004 H996 0.929 . S
C1004 C1005 1.377 . S
C1004 C1006 1.384 . S
C1005 C1004 1.377 . S
C1005 C1011 1.390 . S
C1006 H997 0.930 . S
C1006 C1004 1.384 . S
C1006 C1007 1.372 . S
C1007 C1006 1.372 . S
C1007 C1008 1.400 . S
C1007 C1012 1.490 . S
C1008 H998 0.930 . S
C1008 C1007 1.400 . S
C1008 C1011 1.386 . S
H1009 C1025 0.930 . S
H1010 C1026 0.931 . S
C1011 H999 0.929 . S
C1011 C1005 1.390 . S
C1011 C1008 1.386 . S
C1012 C1007 1.490 . S
C1012 C1014 1.395 . S
C1012 C1015 1.403 . S
H1013 C1019 0.930 . S
C1014 H1000 0.930 . S
C1014 C1012 1.395 . S
C1014 C1017 1.403 . S
C1015 C1012 1.403 . S
C1015 C1016 1.524 . S
C1015 C1019 1.400 . S
C1016 H1001 0.960 . S
C1016 H1002 0.960 . S
C1016 H1003 0.960 . S
C1016 C1015 1.524 . S
C1017 C1014 1.403 . S
C1017 C1018 1.392 . S
C1017 C1021 1.495 . S
C1018 C1017 1.392 . S
C1018 C1019 1.385 . S
C1018 C1020 1.478 . S
C1019 H1013 0.930 . S
C1019 C1015 1.400 . S
C1019 C1018 1.385 . S
C1020 C1018 1.478 . S
C1020 C1022 1.381 . S
C1020 C1026 1.383 . S
C1021 C1017 1.495 . S
C1021 H1027 0.959 . S
C1021 H1028 0.961 . S
C1021 H1029 0.960 . S
C1022 C1020 1.381 . S
C1022 C1023 1.394 . S
C1022 H1030 0.930 . S
C1023 C1022 1.394 . S
C1023 C1024 1.383 . S
C1023 H1031 0.929 . S
C1024 C1023 1.383 . S
C1024 C1025 1.377 . S
C1025 H1009 0.930 . S
C1025 C1024 1.377 . S
C1025 C1026 1.379 . S
C1026 H1010 0.931 . S
C1026 C1020 1.383 . S
C1026 C1025 1.379 . S
H1027 C1021 0.959 . S
H1028 C1021 0.961 . S
H1029 C1021 0.960 . S
H1030 C1022 0.930 . S
H1031 C1023 0.929 . S
H1032 C1040 0.929 . S
H1033 C1042 0.930 . S
H1034 C1044 0.930 . S
H1035 C1047 0.929 . S
H1036 C1050 0.930 . S
H1037 C1052 0.960 . S
H1038 C1052 0.960 . S
H1039 C1052 0.960 . S
C1040 H1032 0.929 . S
C1040 C1041 1.377 . S
C1040 C1042 1.384 . S
C1041 C1040 1.377 . S
C1041 C1047 1.390 . S
C1042 H1033 0.930 . S
C1042 C1040 1.384 . S
C1042 C1043 1.372 . S
C1043 C1042 1.372 . S
C1043 C1044 1.400 . S
C1043 C1048 1.490 . S
C1044 H1034 0.930 . S
C1044 C1043 1.400 . S
C1044 C1047 1.386 . S
H1045 C1061 0.930 . S
H1046 C1062 0.931 . S
C1047 H1035 0.929 . S
C1047 C1041 1.390 . S
C1047 C1044 1.386 . S
C1048 C1043 1.490 . S
C1048 C1050 1.395 . S
C1048 C1051 1.403 . S
H1049 C1055 0.930 . S
C1050 H1036 0.930 . S
C1050 C1048 1.395 . S
C1050 C1053 1.403 1_655 S
C1051 C1048 1.403 . S
C1051 C1052 1.524 . S
C1051 C1055 1.400 1_655 S
C1052 H1037 0.960 . S
C1052 H1038 0.960 . S
C1052 H1039 0.960 . S
C1052 C1051 1.524 . S
C1053 C1050 1.403 1_455 S
C1053 C1054 1.392 . S
C1053 C1057 1.495 . S
C1054 C1053 1.392 . S
C1054 C1055 1.385 . S
C1054 C1056 1.478 . S
C1055 H1049 0.930 . S
C1055 C1051 1.400 1_455 S
C1055 C1054 1.385 . S
C1056 C1054 1.478 . S
C1056 C1058 1.381 . S
C1056 C1062 1.383 . S
C1057 C1053 1.495 . S
C1057 H1063 0.959 . S
C1057 H1064 0.961 . S
C1057 H1065 0.960 . S
C1058 C1056 1.381 . S
C1058 C1059 1.394 . S
C1058 H1066 0.930 . S
C1059 C1058 1.394 . S
C1059 C1060 1.383 . S
C1059 H1067 0.929 . S
C1060 C1059 1.383 . S
C1060 C1061 1.377 . S
C1061 H1045 0.930 . S
C1061 C1060 1.377 . S
C1061 C1062 1.379 . S
C1062 H1046 0.931 . S
C1062 C1056 1.383 . S
C1062 C1061 1.379 . S
H1063 C1057 0.959 . S
H1064 C1057 0.961 . S
H1065 C1057 0.960 . S
H1066 C1058 0.930 . S
H1067 C1059 0.929 . S
H1068 C1076 0.929 . S
H1069 C1078 0.919 1_455 S
H1070 C1080 0.930 . S
H1071 C1083 0.929 . S
H1072 C1086 0.930 . S
H1073 C1088 0.960 . S
H1074 C1088 0.960 . S
H1075 C1088 0.960 . S
C1076 H1068 0.929 . S
C1076 C1077 1.377 . S
C1076 C1078 1.384 . S
C1077 C1076 1.377 . S
C1077 C1083 1.390 . S
C1078 H1069 0.919 1_655 S
C1078 C1076 1.384 . S
C1078 C1079 1.372 . S
C1079 C1078 1.372 . S
C1079 C1080 1.400 . S
C1079 C1084 1.490 . S
C1080 H1070 0.930 . S
C1080 C1079 1.400 . S
C1080 C1083 1.386 . S
H1081 C1097 0.922 1_655 S
H1082 C1098 0.931 . S
C1083 H1071 0.929 . S
C1083 C1077 1.390 . S
C1083 C1080 1.386 . S
C1084 C1079 1.490 . S
C1084 C1086 1.395 . S
C1084 C1087 1.403 1_655 S
H1085 C1091 0.930 . S
C1086 H1072 0.930 . S
C1086 C1084 1.395 . S
C1086 C1089 1.403 . S
C1087 C1084 1.403 1_455 S
C1087 C1088 1.524 . S
C1087 C1091 1.400 . S
C1088 H1073 0.960 . S
C1088 H1074 0.960 . S
C1088 H1075 0.960 . S
C1088 C1087 1.524 . S
C1089 C1086 1.403 . S
C1089 C1090 1.394 1_655 S
C1089 C1093 1.495 . S
C1090 C1089 1.394 1_455 S
C1090 C1091 1.383 . S
C1090 C1092 1.477 . S
C1091 H1085 0.930 . S
C1091 C1087 1.400 . S
C1091 C1090 1.383 . S
C1092 C1090 1.477 . S
C1092 C1094 1.381 . S
C1092 C1098 1.383 1_455 S
C1093 C1089 1.495 . S
C1093 H1099 0.959 . S
C1093 H1100 0.961 . S
C1093 H1101 0.960 . S
C1094 C1092 1.381 . S
C1094 C1095 1.394 . S
C1094 H1102 0.930 . S
C1095 C1094 1.394 . S
C1095 C1096 1.383 . S
C1095 H1103 0.929 . S
C1096 C1095 1.383 . S
C1096 C1097 1.377 . S
C1097 H1081 0.922 1_455 S
C1097 C1096 1.377 . S
C1097 C1098 1.379 1_455 S
C1098 H1082 0.931 . S
C1098 C1092 1.383 1_655 S
C1098 C1097 1.379 1_655 S
H1099 C1093 0.959 . S
H1100 C1093 0.961 . S
H1101 C1093 0.960 . S
H1102 C1094 0.930 . S
H1103 C1095 0.929 . S
H1104 C1112 0.929 . S
H1105 C1114 0.930 . S
H1106 C1116 0.930 . S
H1107 C1119 0.929 . S
H1108 C1122 0.930 . S
H1109 C1124 0.960 . S
H1110 C1124 0.960 . S
H1111 C1124 0.960 . S
C1112 H1104 0.929 . S
C1112 C1113 1.377 . S
C1112 C1114 1.384 . S
C1113 C1112 1.377 . S
C1113 C1119 1.390 . S
C1114 H1105 0.930 . S
C1114 C1112 1.384 . S
C1114 C1115 1.372 . S
C1115 C1114 1.372 . S
C1115 C1116 1.400 . S
C1115 C1120 1.490 . S
C1116 H1106 0.930 . S
C1116 C1115 1.400 . S
C1116 C1119 1.386 . S
H1117 C1133 0.930 . S
H1118 C1134 0.931 . S
C1119 H1107 0.929 . S
C1119 C1113 1.390 . S
C1119 C1116 1.386 . S
C1120 C1115 1.490 . S
C1120 C1122 1.395 . S
C1120 C1123 1.403 . S
H1121 C1127 0.930 . S
C1122 H1108 0.930 . S
C1122 C1120 1.395 . S
C1122 C1125 1.403 . S
C1123 C1120 1.403 . S
C1123 C1124 1.524 . S
C1123 C1127 1.400 . S
C1124 H1109 0.960 . S
C1124 H1110 0.960 . S
C1124 H1111 0.960 . S
C1124 C1123 1.524 . S
C1125 C1122 1.403 . S
C1125 C1126 1.392 . S
C1125 C1129 1.495 . S
C1126 C1125 1.392 . S
C1126 C1127 1.385 . S
C1126 C1128 1.478 . S
C1127 H1121 0.930 . S
C1127 C1123 1.400 . S
C1127 C1126 1.385 . S
C1128 C1126 1.478 . S
C1128 C1130 1.381 . S
C1128 C1134 1.383 . S
C1129 C1125 1.495 . S
C1129 H1135 0.959 . S
C1129 H1136 0.961 . S
C1129 H1137 0.960 . S
C1130 C1128 1.381 . S
C1130 C1131 1.394 . S
C1130 H1138 0.930 . S
C1131 C1130 1.394 . S
C1131 C1132 1.383 . S
C1131 H1139 0.929 . S
C1132 C1131 1.383 . S
C1132 C1133 1.377 . S
C1133 H1117 0.930 . S
C1133 C1132 1.377 . S
C1133 C1134 1.379 . S
C1134 H1118 0.931 . S
C1134 C1128 1.383 . S
C1134 C1133 1.379 . S
H1135 C1129 0.959 . S
H1136 C1129 0.961 . S
H1137 C1129 0.960 . S
H1138 C1130 0.930 . S
H1139 C1131 0.929 . S
H1140 C1148 0.929 . S
H1141 C1150 0.930 . S
H1142 C1152 0.930 . S
H1143 C1155 0.929 . S
H1144 C1158 0.930 . S
H1145 C1160 0.960 . S
H1146 C1160 0.960 . S
H1147 C1160 0.960 . S
C1148 H1140 0.929 . S
C1148 C1149 1.377 . S
C1148 C1150 1.384 . S
C1149 C1148 1.377 . S
C1149 C1155 1.390 . S
C1150 H1141 0.930 . S
C1150 C1148 1.384 . S
C1150 C1151 1.372 . S
C1151 C1150 1.372 . S
C1151 C1152 1.400 . S
C1151 C1156 1.490 . S
C1152 H1142 0.930 . S
C1152 C1151 1.400 . S
C1152 C1155 1.386 . S
H1153 C1169 0.930 . S
H1154 C1170 0.931 . S
C1155 H1143 0.929 . S
C1155 C1149 1.390 . S
C1155 C1152 1.386 . S
C1156 C1151 1.490 . S
C1156 C1158 1.395 . S
C1156 C1159 1.403 . S
H1157 C1163 0.930 . S
C1158 H1144 0.930 . S
C1158 C1156 1.395 . S
C1158 C1161 1.403 1_545 S
C1159 C1156 1.403 . S
C1159 C1160 1.524 . S
C1159 C1163 1.400 1_545 S
C1160 H1145 0.960 . S
C1160 H1146 0.960 . S
C1160 H1147 0.960 . S
C1160 C1159 1.524 . S
C1161 C1158 1.403 1_565 S
C1161 C1162 1.392 . S
C1161 C1165 1.495 . S
C1162 C1161 1.392 . S
C1162 C1163 1.385 . S
C1162 C1164 1.478 . S
C1163 H1157 0.930 . S
C1163 C1159 1.400 1_565 S
C1163 C1162 1.385 . S
C1164 C1162 1.478 . S
C1164 C1166 1.381 . S
C1164 C1170 1.383 . S
C1165 C1161 1.495 . S
C1165 H1171 0.959 . S
C1165 H1172 0.961 . S
C1165 H1173 0.960 . S
C1166 C1164 1.381 . S
C1166 C1167 1.394 . S
C1166 H1174 0.930 . S
C1167 C1166 1.394 . S
C1167 C1168 1.383 . S
C1167 H1175 0.929 . S
C1168 C1167 1.383 . S
C1168 C1169 1.377 . S
C1169 H1153 0.930 . S
C1169 C1168 1.377 . S
C1169 C1170 1.379 . S
C1170 H1154 0.931 . S
C1170 C1164 1.383 . S
C1170 C1169 1.379 . S
H1171 C1165 0.959 . S
H1172 C1165 0.961 . S
H1173 C1165 0.960 . S
H1174 C1166 0.930 . S
H1175 C1167 0.929 . S
H1176 C1184 0.929 . S
H1177 C1186 0.920 1_556 S
H1178 C1188 0.930 . S
H1179 C1191 0.929 . S
H1180 C1194 0.930 . S
H1181 C1196 0.960 . S
H1182 C1196 0.960 . S
H1183 C1196 0.960 . S
C1184 H1176 0.929 . S
C1184 C1185 1.377 . S
C1184 C1186 1.384 . S
C1185 C1184 1.377 . S
C1185 C1191 1.390 . S
C1186 H1177 0.920 1_554 S
C1186 C1184 1.384 . S
C1186 C1187 1.372 . S
C1187 C1186 1.372 . S
C1187 C1188 1.400 . S
C1187 C1192 1.490 . S
C1188 H1178 0.930 . S
C1188 C1187 1.400 . S
C1188 C1191 1.386 . S
H1189 C1205 0.930 . S
H1190 C1206 0.931 . S
C1191 H1179 0.929 . S
C1191 C1185 1.390 . S
C1191 C1188 1.386 . S
C1192 C1187 1.490 . S
C1192 C1194 1.395 1_554 S
C1192 C1195 1.403 . S
H1193 C1199 0.930 . S
C1194 H1180 0.930 . S
C1194 C1192 1.395 1_556 S
C1194 C1197 1.403 . S
C1195 C1192 1.403 . S
C1195 C1196 1.524 . S
C1195 C1199 1.400 . S
C1196 H1181 0.960 . S
C1196 H1182 0.960 . S
C1196 H1183 0.960 . S
C1196 C1195 1.524 . S
C1197 C1194 1.403 . S
C1197 C1198 1.392 . S
C1197 C1201 1.495 . S
C1198 C1197 1.392 . S
C1198 C1199 1.385 1_556 S
C1198 C1200 1.478 . S
C1199 H1193 0.930 . S
C1199 C1195 1.400 . S
C1199 C1198 1.385 1_554 S
C1200 C1198 1.478 . S
C1200 C1202 1.381 . S
C1200 C1206 1.383 . S
C1201 C1197 1.495 . S
C1201 H1207 0.959 . S
C1201 H1208 0.961 . S
C1201 H1209 0.960 . S
C1202 C1200 1.381 . S
C1202 C1203 1.394 . S
C1202 H1210 0.930 . S
C1203 C1202 1.394 . S
C1203 C1204 1.383 . S
C1203 H1211 0.929 . S
C1204 C1203 1.383 . S
C1204 C1205 1.377 . S
C1205 H1189 0.930 . S
C1205 C1204 1.377 . S
C1205 C1206 1.379 . S
C1206 H1190 0.931 . S
C1206 C1200 1.383 . S
C1206 C1205 1.379 . S
H1207 C1201 0.959 . S
H1208 C1201 0.961 . S
H1209 C1201 0.960 . S
H1210 C1202 0.930 . S
H1211 C1203 0.929 . S
H1212 C1220 0.929 . S
H1213 C1222 0.930 . S
H1214 C1224 0.930 . S
H1215 C1227 0.929 . S
H1216 C1230 0.930 . S
H1217 C1232 0.960 . S
H1218 C1232 0.960 . S
H1219 C1232 0.960 . S
C1220 H1212 0.929 . S
C1220 C1221 1.377 . S
C1220 C1222 1.384 . S
C1221 C1220 1.377 . S
C1221 C1227 1.390 . S
C1222 H1213 0.930 . S
C1222 C1220 1.384 . S
C1222 C1223 1.372 . S
C1223 C1222 1.372 . S
C1223 C1224 1.400 . S
C1223 C1228 1.490 . S
C1224 H1214 0.930 . S
C1224 C1223 1.400 . S
C1224 C1227 1.386 . S
H1225 C1241 0.930 . S
H1226 C1242 0.931 . S
C1227 H1215 0.929 . S
C1227 C1221 1.390 . S
C1227 C1224 1.386 . S
C1228 C1223 1.490 . S
C1228 C1230 1.395 . S
C1228 C1231 1.403 . S
H1229 C1235 0.930 . S
C1230 H1216 0.930 . S
C1230 C1228 1.395 . S
C1230 C1233 1.403 1_545 S
C1231 C1228 1.403 . S
C1231 C1232 1.524 . S
C1231 C1235 1.400 1_545 S
C1232 H1217 0.960 . S
C1232 H1218 0.960 . S
C1232 H1219 0.960 . S
C1232 C1231 1.524 . S
C1233 C1230 1.403 1_565 S
C1233 C1234 1.392 . S
C1233 C1237 1.495 . S
C1234 C1233 1.392 . S
C1234 C1235 1.385 . S
C1234 C1236 1.478 . S
C1235 H1229 0.930 . S
C1235 C1231 1.400 1_565 S
C1235 C1234 1.385 . S
C1236 C1234 1.478 . S
C1236 C1238 1.381 . S
C1236 C1242 1.383 . S
C1237 C1233 1.495 . S
C1237 H1243 0.959 . S
C1237 H1244 0.961 . S
C1237 H1245 0.960 . S
C1238 C1236 1.381 . S
C1238 C1239 1.394 . S
C1238 H1246 0.930 . S
C1239 C1238 1.394 . S
C1239 C1240 1.383 . S
C1239 H1247 0.929 . S
C1240 C1239 1.383 . S
C1240 C1241 1.377 . S
C1241 H1225 0.930 . S
C1241 C1240 1.377 . S
C1241 C1242 1.379 . S
C1242 H1226 0.931 . S
C1242 C1236 1.383 . S
C1242 C1241 1.379 . S
H1243 C1237 0.959 . S
H1244 C1237 0.961 . S
H1245 C1237 0.960 . S
H1246 C1238 0.930 . S
H1247 C1239 0.929 . S
H1248 C1256 0.929 . S
H1249 C1258 0.930 . S
H1250 C1260 0.930 . S
H1251 C1263 0.929 . S
H1252 C1266 0.930 . S
H1253 C1268 0.960 . S
H1254 C1268 0.960 . S
H1255 C1268 0.960 . S
C1256 H1248 0.929 . S
C1256 C1257 1.377 . S
C1256 C1258 1.384 . S
C1257 C1256 1.377 . S
C1257 C1263 1.390 . S
C1258 H1249 0.930 . S
C1258 C1256 1.384 . S
C1258 C1259 1.372 . S
C1259 C1258 1.372 . S
C1259 C1260 1.400 . S
C1259 C1264 1.490 . S
C1260 H1250 0.930 . S
C1260 C1259 1.400 . S
C1260 C1263 1.386 . S
H1261 C1277 0.930 . S
H1262 C1278 0.931 . S
C1263 H1251 0.929 . S
C1263 C1257 1.390 . S
C1263 C1260 1.386 . S
C1264 C1259 1.490 . S
C1264 C1266 1.395 1_556 S
C1264 C1267 1.403 . S
H1265 C1271 0.930 . S
C1266 H1252 0.930 . S
C1266 C1264 1.395 1_554 S
C1266 C1269 1.403 . S
C1267 C1264 1.403 . S
C1267 C1268 1.524 . S
C1267 C1271 1.400 . S
C1268 H1253 0.960 . S
C1268 H1254 0.960 . S
C1268 H1255 0.960 . S
C1268 C1267 1.524 . S
C1269 C1266 1.403 . S
C1269 C1270 1.392 . S
C1269 C1273 1.495 . S
C1270 C1269 1.392 . S
C1270 C1271 1.385 1_554 S
C1270 C1272 1.478 . S
C1271 H1265 0.930 . S
C1271 C1267 1.400 . S
C1271 C1270 1.385 1_556 S
C1272 C1270 1.478 . S
C1272 C1274 1.381 . S
C1272 C1278 1.383 . S
C1273 C1269 1.495 . S
C1273 H1279 0.959 . S
C1273 H1280 0.961 . S
C1273 H1281 0.960 . S
C1274 C1272 1.381 . S
C1274 C1275 1.394 . S
C1274 H1282 0.930 . S
C1275 C1274 1.394 . S
C1275 C1276 1.383 . S
C1275 H1283 0.929 . S
C1276 C1275 1.383 . S
C1276 C1277 1.377 . S
C1277 H1261 0.930 . S
C1277 C1276 1.377 . S
C1277 C1278 1.379 . S
C1278 H1262 0.931 . S
C1278 C1272 1.383 . S
C1278 C1277 1.379 . S
H1279 C1273 0.959 . S
H1280 C1273 0.961 . S
H1281 C1273 0.960 . S
H1282 C1274 0.930 . S
H1283 C1275 0.929 . S
H1284 C1292 0.929 . S
H1285 C1294 0.930 . S
H1286 C1296 0.930 . S
H1287 C1299 0.929 . S
H1288 C1302 0.930 . S
H1289 C1304 0.960 . S
H1290 C1304 0.960 . S
H1291 C1304 0.960 . S
C1292 H1284 0.929 . S
C1292 C1293 1.377 . S
C1292 C1294 1.384 . S
C1293 C1292 1.377 . S
C1293 C1299 1.390 . S
C1294 H1285 0.930 . S
C1294 C1292 1.384 . S
C1294 C1295 1.372 . S
C1295 C1294 1.372 . S
C1295 C1296 1.400 . S
C1295 C1300 1.490 . S
C1296 H1286 0.930 . S
C1296 C1295 1.400 . S
C1296 C1299 1.386 . S
H1297 C1313 0.930 . S
H1298 C1314 0.931 . S
C1299 H1287 0.929 . S
C1299 C1293 1.390 . S
C1299 C1296 1.386 . S
C1300 C1295 1.490 . S
C1300 C1302 1.395 . S
C1300 C1303 1.403 . S
H1301 C1307 0.930 . S
C1302 H1288 0.930 . S
C1302 C1300 1.395 . S
C1302 C1305 1.403 . S
C1303 C1300 1.403 . S
C1303 C1304 1.524 . S
C1303 C1307 1.400 . S
C1304 H1289 0.960 . S
C1304 H1290 0.960 . S
C1304 H1291 0.960 . S
C1304 C1303 1.524 . S
C1305 C1302 1.403 . S
C1305 C1306 1.392 . S
C1305 C1309 1.495 . S
C1306 C1305 1.392 . S
C1306 C1307 1.385 . S
C1306 C1308 1.478 . S
C1307 H1301 0.930 . S
C1307 C1303 1.400 . S
C1307 C1306 1.385 . S
C1308 C1306 1.478 . S
C1308 C1310 1.381 . S
C1308 C1314 1.383 . S
C1309 C1305 1.495 . S
C1309 H1315 0.959 . S
C1309 H1316 0.961 . S
C1309 H1317 0.960 . S
C1310 C1308 1.381 . S
C1310 C1311 1.394 . S
C1310 H1318 0.930 . S
C1311 C1310 1.394 . S
C1311 C1312 1.383 . S
C1311 H1319 0.929 . S
C1312 C1311 1.383 . S
C1312 C1313 1.377 . S
C1313 H1297 0.930 . S
C1313 C1312 1.377 . S
C1313 C1314 1.379 . S
C1314 H1298 0.931 . S
C1314 C1308 1.383 . S
C1314 C1313 1.379 . S
H1315 C1309 0.959 . S
H1316 C1309 0.961 . S
H1317 C1309 0.960 . S
H1318 C1310 0.930 . S
H1319 C1311 0.929 . S
H1320 C1328 0.929 . S
H1321 C1330 0.930 . S
H1322 C1332 0.930 . S
H1323 C1335 0.929 . S
H1324 C1338 0.930 . S
H1325 C1340 0.960 . S
H1326 C1340 0.960 . S
H1327 C1340 0.960 . S
C1328 H1320 0.929 . S
C1328 C1329 1.377 . S
C1328 C1330 1.384 . S
C1329 C1328 1.377 . S
C1329 C1335 1.390 . S
C1330 H1321 0.930 . S
C1330 C1328 1.384 . S
C1330 C1331 1.372 . S
C1331 C1330 1.372 . S
C1331 C1332 1.400 . S
C1331 C1336 1.490 . S
C1332 H1322 0.930 . S
C1332 C1331 1.400 . S
C1332 C1335 1.386 . S
H1333 C1349 0.930 . S
H1334 C1350 0.931 . S
C1335 H1323 0.929 . S
C1335 C1329 1.390 . S
C1335 C1332 1.386 . S
C1336 C1331 1.490 . S
C1336 C1338 1.395 . S
C1336 C1339 1.403 . S
H1337 C1343 0.930 . S
C1338 H1324 0.930 . S
C1338 C1336 1.395 . S
C1338 C1341 1.403 . S
C1339 C1336 1.403 . S
C1339 C1340 1.524 . S
C1339 C1343 1.400 . S
C1340 H1325 0.960 . S
C1340 H1326 0.960 . S
C1340 H1327 0.960 . S
C1340 C1339 1.524 . S
C1341 C1338 1.403 . S
C1341 C1342 1.392 . S
C1341 C1345 1.495 . S
C1342 C1341 1.392 . S
C1342 C1343 1.385 . S
C1342 C1344 1.478 . S
C1343 H1337 0.930 . S
C1343 C1339 1.400 . S
C1343 C1342 1.385 . S
C1344 C1342 1.478 . S
C1344 C1346 1.381 . S
C1344 C1350 1.383 . S
C1345 C1341 1.495 . S
C1345 H1351 0.959 . S
C1345 H1352 0.961 . S
C1345 H1353 0.960 . S
C1346 C1344 1.381 . S
C1346 C1347 1.394 . S
C1346 H1354 0.930 . S
C1347 C1346 1.394 . S
C1347 C1348 1.383 . S
C1347 H1355 0.929 . S
C1348 C1347 1.383 . S
C1348 C1349 1.377 . S
C1349 H1333 0.930 . S
C1349 C1348 1.377 . S
C1349 C1350 1.379 . S
C1350 H1334 0.931 . S
C1350 C1344 1.383 . S
C1350 C1349 1.379 . S
H1351 C1345 0.959 . S
H1352 C1345 0.961 . S
H1353 C1345 0.960 . S
H1354 C1346 0.930 . S
H1355 C1347 0.929 . S
H1356 C1364 0.929 . S
H1357 C1366 0.930 . S
H1358 C1368 0.930 . S
H1359 C1371 0.929 . S
H1360 C1374 0.930 . S
H1361 C1376 0.960 . S
H1362 C1376 0.960 . S
H1363 C1376 0.960 . S
C1364 H1356 0.929 . S
C1364 C1365 1.377 . S
C1364 C1366 1.384 . S
C1365 C1364 1.377 . S
C1365 C1371 1.390 . S
C1366 H1357 0.930 . S
C1366 C1364 1.384 . S
C1366 C1367 1.372 . S
C1367 C1366 1.372 . S
C1367 C1368 1.400 . S
C1367 C1372 1.490 . S
C1368 H1358 0.930 . S
C1368 C1367 1.400 . S
C1368 C1371 1.386 . S
H1369 C1385 0.930 . S
H1370 C1386 0.931 . S
C1371 H1359 0.929 . S
C1371 C1365 1.390 . S
C1371 C1368 1.386 . S
C1372 C1367 1.490 . S
C1372 C1374 1.395 . S
C1372 C1375 1.403 . S
H1373 C1379 0.930 . S
C1374 H1360 0.930 . S
C1374 C1372 1.395 . S
C1374 C1377 1.403 1_554 S
C1375 C1372 1.403 . S
C1375 C1376 1.524 . S
C1375 C1379 1.400 1_554 S
C1376 H1361 0.960 . S
C1376 H1362 0.960 . S
C1376 H1363 0.960 . S
C1376 C1375 1.524 . S
C1377 C1374 1.403 1_556 S
C1377 C1378 1.392 . S
C1377 C1381 1.495 . S
C1378 C1377 1.392 . S
C1378 C1379 1.385 . S
C1378 C1380 1.478 . S
C1379 H1373 0.930 . S
C1379 C1375 1.400 1_556 S
C1379 C1378 1.385 . S
C1380 C1378 1.478 . S
C1380 C1382 1.381 . S
C1380 C1386 1.383 . S
C1381 C1377 1.495 . S
C1381 H1387 0.959 . S
C1381 H1388 0.961 . S
C1381 H1389 0.960 . S
C1382 C1380 1.381 . S
C1382 C1383 1.394 . S
C1382 H1390 0.930 . S
C1383 C1382 1.394 . S
C1383 C1384 1.383 . S
C1383 H1391 0.929 . S
C1384 C1383 1.383 . S
C1384 C1385 1.377 . S
C1385 H1369 0.930 . S
C1385 C1384 1.377 . S
C1385 C1386 1.379 . S
C1386 H1370 0.931 . S
C1386 C1380 1.383 . S
C1386 C1385 1.379 . S
H1387 C1381 0.959 . S
H1388 C1381 0.961 . S
H1389 C1381 0.960 . S
H1390 C1382 0.930 . S
H1391 C1383 0.929 . S
H1392 C1400 0.929 . S
H1393 C1402 0.930 . S
H1394 C1404 0.930 . S
H1395 C1407 0.929 . S
H1396 C1410 0.930 . S
H1397 C1412 0.960 . S
H1398 C1412 0.960 . S
H1399 C1412 0.960 . S
C1400 H1392 0.929 . S
C1400 C1401 1.377 . S
C1400 C1402 1.384 . S
C1401 C1400 1.377 . S
C1401 C1407 1.390 . S
C1402 H1393 0.930 . S
C1402 C1400 1.384 . S
C1402 C1403 1.372 . S
C1403 C1402 1.372 . S
C1403 C1404 1.400 . S
C1403 C1408 1.490 . S
C1404 H1394 0.930 . S
C1404 C1403 1.400 . S
C1404 C1407 1.386 . S
H1405 C1421 0.930 . S
H1406 C1422 0.931 . S
C1407 H1395 0.929 . S
C1407 C1401 1.390 . S
C1407 C1404 1.386 . S
C1408 C1403 1.490 . S
C1408 C1410 1.395 . S
C1408 C1411 1.403 . S
H1409 C1415 0.930 . S
C1410 H1396 0.930 . S
C1410 C1408 1.395 . S
C1410 C1413 1.403 . S
C1411 C1408 1.403 . S
C1411 C1412 1.524 . S
C1411 C1415 1.400 . S
C1412 H1397 0.960 . S
C1412 H1398 0.960 . S
C1412 H1399 0.960 . S
C1412 C1411 1.524 . S
C1413 C1410 1.403 . S
C1413 C1414 1.392 . S
C1413 C1417 1.495 . S
C1414 C1413 1.392 . S
C1414 C1415 1.385 . S
C1414 C1416 1.478 . S
C1415 H1409 0.930 . S
C1415 C1411 1.400 . S
C1415 C1414 1.385 . S
C1416 C1414 1.478 . S
C1416 C1418 1.381 . S
C1416 C1422 1.383 . S
C1417 C1413 1.495 . S
C1417 H1423 0.959 . S
C1417 H1424 0.961 . S
C1417 H1425 0.960 . S
C1418 C1416 1.381 . S
C1418 C1419 1.394 . S
C1418 H1426 0.930 . S
C1419 C1418 1.394 . S
C1419 C1420 1.383 . S
C1419 H1427 0.929 . S
C1420 C1419 1.383 . S
C1420 C1421 1.377 . S
C1421 H1405 0.930 . S
C1421 C1420 1.377 . S
C1421 C1422 1.379 . S
C1422 H1406 0.931 . S
C1422 C1416 1.383 . S
C1422 C1421 1.379 . S
H1423 C1417 0.959 . S
H1424 C1417 0.961 . S
H1425 C1417 0.960 . S
H1426 C1418 0.930 . S
H1427 C1419 0.929 . S
H1428 C1436 0.929 . S
H1429 C1438 0.930 . S
H1430 C1440 0.930 . S
H1431 C1443 0.929 . S
H1432 C1446 0.930 . S
H1433 C1448 0.960 . S
H1434 C1448 0.960 . S
H1435 C1448 0.960 . S
C1436 H1428 0.929 . S
C1436 C1437 1.377 . S
C1436 C1438 1.384 . S
C1437 C1436 1.377 . S
C1437 C1443 1.390 . S
C1438 H1429 0.930 . S
C1438 C1436 1.384 . S
C1438 C1439 1.372 . S
C1439 C1438 1.372 . S
C1439 C1440 1.400 . S
C1439 C1444 1.490 . S
C1440 H1430 0.930 . S
C1440 C1439 1.400 . S
C1440 C1443 1.386 . S
H1441 C1457 0.930 . S
H1442 C1458 0.931 . S
C1443 H1431 0.929 . S
C1443 C1437 1.390 . S
C1443 C1440 1.386 . S
C1444 C1439 1.490 . S
C1444 C1446 1.395 . S
C1444 C1447 1.403 . S
H1445 C1451 0.930 . S
C1446 H1432 0.930 . S
C1446 C1444 1.395 . S
C1446 C1449 1.403 . S
C1447 C1444 1.403 . S
C1447 C1448 1.524 . S
C1447 C1451 1.400 . S
C1448 H1433 0.960 . S
C1448 H1434 0.960 . S
C1448 H1435 0.960 . S
C1448 C1447 1.524 . S
C1449 C1446 1.403 . S
C1449 C1450 1.392 . S
C1449 C1453 1.495 . S
C1450 C1449 1.392 . S
C1450 C1451 1.385 . S
C1450 C1452 1.478 . S
C1451 H1445 0.930 . S
C1451 C1447 1.400 . S
C1451 C1450 1.385 . S
C1452 C1450 1.478 . S
C1452 C1454 1.381 . S
C1452 C1458 1.383 . S
C1453 C1449 1.495 . S
C1453 H1459 0.959 . S
C1453 H1460 0.961 . S
C1453 H1461 0.960 . S
C1454 C1452 1.381 . S
C1454 C1455 1.394 . S
C1454 H1462 0.930 . S
C1455 C1454 1.394 . S
C1455 C1456 1.383 . S
C1455 H1463 0.929 . S
C1456 C1455 1.383 . S
C1456 C1457 1.377 . S
C1457 H1441 0.930 . S
C1457 C1456 1.377 . S
C1457 C1458 1.379 . S
C1458 H1442 0.931 . S
C1458 C1452 1.383 . S
C1458 C1457 1.379 . S
H1459 C1453 0.959 . S
H1460 C1453 0.961 . S
H1461 C1453 0.960 . S
H1462 C1454 0.930 . S
H1463 C1455 0.929 . S
H1464 C1472 0.929 . S
H1465 C1474 0.930 . S
H1466 C1476 0.930 . S
H1467 C1479 0.929 . S
H1468 C1482 0.930 . S
H1469 C1484 0.960 . S
H1470 C1484 0.960 . S
H1471 C1484 0.960 . S
C1472 H1464 0.929 . S
C1472 C1473 1.377 . S
C1472 C1474 1.384 . S
C1473 C1472 1.377 . S
C1473 C1479 1.390 . S
C1474 H1465 0.930 . S
C1474 C1472 1.384 . S
C1474 C1475 1.372 . S
C1475 C1474 1.372 . S
C1475 C1476 1.400 . S
C1475 C1480 1.490 . S
C1476 H1466 0.930 . S
C1476 C1475 1.400 . S
C1476 C1479 1.386 . S
H1477 C1493 0.930 . S
H1478 C1494 0.931 . S
C1479 H1467 0.929 . S
C1479 C1473 1.390 . S
C1479 C1476 1.386 . S
C1480 C1475 1.490 . S
C1480 C1482 1.395 . S
C1480 C1483 1.403 . S
H1481 C1487 0.930 . S
C1482 H1468 0.930 . S
C1482 C1480 1.395 . S
C1482 C1485 1.403 . S
C1483 C1480 1.403 . S
C1483 C1484 1.524 . S
C1483 C1487 1.400 . S
C1484 H1469 0.960 . S
C1484 H1470 0.960 . S
C1484 H1471 0.960 . S
C1484 C1483 1.524 . S
C1485 C1482 1.403 . S
C1485 C1486 1.392 . S
C1485 C1489 1.495 . S
C1486 C1485 1.392 . S
C1486 C1487 1.385 . S
C1486 C1488 1.478 . S
C1487 H1481 0.930 . S
C1487 C1483 1.400 . S
C1487 C1486 1.385 . S
C1488 C1486 1.478 . S
C1488 C1490 1.381 . S
C1488 C1494 1.383 . S
C1489 C1485 1.495 . S
C1489 H1495 0.959 . S
C1489 H1496 0.961 . S
C1489 H1497 0.960 . S
C1490 C1488 1.381 . S
C1490 C1491 1.394 . S
C1490 H1498 0.930 . S
C1491 C1490 1.394 . S
C1491 C1492 1.383 . S
C1491 H1499 0.929 . S
C1492 C1491 1.383 . S
C1492 C1493 1.377 . S
C1493 H1477 0.930 . S
C1493 C1492 1.377 . S
C1493 C1494 1.379 . S
C1494 H1478 0.931 . S
C1494 C1488 1.383 . S
C1494 C1493 1.379 . S
H1495 C1489 0.959 . S
H1496 C1489 0.961 . S
H1497 C1489 0.960 . S
H1498 C1490 0.930 . S
H1499 C1491 0.929 . S
H1500 C1508 0.929 . S
H1501 C1510 0.930 . S
H1502 C1512 0.930 . S
H1503 C1515 0.929 . S
H1504 C1518 0.930 . S
H1505 C1520 0.960 . S
H1506 C1520 0.960 . S
H1507 C1520 0.960 . S
C1508 H1500 0.929 . S
C1508 C1509 1.377 . S
C1508 C1510 1.384 . S
C1509 C1508 1.377 . S
C1509 C1515 1.390 . S
C1510 H1501 0.930 . S
C1510 C1508 1.384 . S
C1510 C1511 1.372 . S
C1511 C1510 1.372 . S
C1511 C1512 1.400 . S
C1511 C1516 1.490 . S
C1512 H1502 0.930 . S
C1512 C1511 1.400 . S
C1512 C1515 1.386 . S
H1513 C1529 0.930 . S
H1514 C1530 0.931 . S
C1515 H1503 0.929 . S
C1515 C1509 1.390 . S
C1515 C1512 1.386 . S
C1516 C1511 1.490 . S
C1516 C1518 1.395 . S
C1516 C1519 1.403 . S
H1517 C1523 0.930 . S
C1518 H1504 0.930 . S
C1518 C1516 1.395 . S
C1518 C1521 1.403 . S
C1519 C1516 1.403 . S
C1519 C1520 1.524 . S
C1519 C1523 1.400 . S
C1520 H1505 0.960 . S
C1520 H1506 0.960 . S
C1520 H1507 0.960 . S
C1520 C1519 1.524 . S
C1521 C1518 1.403 . S
C1521 C1522 1.392 . S
C1521 C1525 1.495 . S
C1522 C1521 1.392 . S
C1522 C1523 1.385 . S
C1522 C1524 1.478 . S
C1523 H1517 0.930 . S
C1523 C1519 1.400 . S
C1523 C1522 1.385 . S
C1524 C1522 1.478 . S
C1524 C1526 1.381 . S
C1524 C1530 1.383 . S
C1525 C1521 1.495 . S
C1525 H1531 0.959 1_565 S
C1525 H1532 0.961 . S
C1525 H1533 0.960 1_565 S
C1526 C1524 1.381 . S
C1526 C1527 1.394 . S
C1526 H1534 0.930 . S
C1527 C1526 1.394 . S
C1527 C1528 1.383 . S
C1527 H1535 0.929 . S
C1528 C1527 1.383 . S
C1528 C1529 1.377 . S
C1529 H1513 0.930 . S
C1529 C1528 1.377 . S
C1529 C1530 1.379 . S
C1530 H1514 0.931 . S
C1530 C1524 1.383 . S
C1530 C1529 1.379 . S
H1531 C1525 0.959 1_545 S
H1532 C1525 0.961 . S
H1533 C1525 0.960 1_545 S
H1534 C1526 0.930 . S
H1535 C1527 0.929 . S
H1536 C1544 0.929 . S
H1537 C1546 0.930 . S
H1538 C1548 0.930 . S
H1539 C1551 0.929 . S
H1540 C1554 0.930 . S
H1541 C1556 0.960 . S
H1542 C1556 0.960 . S
H1543 C1556 0.960 . S
C1544 H1536 0.929 . S
C1544 C1545 1.377 . S
C1544 C1546 1.384 . S
C1545 C1544 1.377 . S
C1545 C1551 1.390 . S
C1546 H1537 0.930 . S
C1546 C1544 1.384 . S
C1546 C1547 1.372 . S
C1547 C1546 1.372 . S
C1547 C1548 1.400 . S
C1547 C1552 1.490 . S
C1548 H1538 0.930 . S
C1548 C1547 1.400 . S
C1548 C1551 1.386 . S
H1549 C1565 0.930 . S
H1550 C1566 0.931 . S
C1551 H1539 0.929 . S
C1551 C1545 1.390 . S
C1551 C1548 1.386 . S
C1552 C1547 1.490 . S
C1552 C1554 1.395 . S
C1552 C1555 1.403 . S
H1553 C1559 0.930 . S
C1554 H1540 0.930 . S
C1554 C1552 1.395 . S
C1554 C1557 1.403 . S
C1555 C1552 1.403 . S
C1555 C1556 1.524 . S
C1555 C1559 1.400 . S
C1556 H1541 0.960 . S
C1556 H1542 0.960 . S
C1556 H1543 0.960 . S
C1556 C1555 1.524 . S
C1557 C1554 1.403 . S
C1557 C1558 1.392 . S
C1557 C1561 1.495 . S
C1558 C1557 1.392 . S
C1558 C1559 1.385 . S
C1558 C1560 1.478 . S
C1559 H1553 0.930 . S
C1559 C1555 1.400 . S
C1559 C1558 1.385 . S
C1560 C1558 1.478 . S
C1560 C1562 1.381 . S
C1560 C1566 1.383 . S
C1561 C1557 1.495 . S
C1561 H1567 0.959 . S
C1561 H1568 0.961 . S
C1561 H1569 0.960 . S
C1562 C1560 1.381 . S
C1562 C1563 1.394 . S
C1562 H1570 0.930 . S
C1563 C1562 1.394 . S
C1563 C1564 1.383 . S
C1563 H1571 0.929 . S
C1564 C1563 1.383 . S
C1564 C1565 1.377 . S
C1565 H1549 0.930 . S
C1565 C1564 1.377 . S
C1565 C1566 1.379 . S
C1566 H1550 0.931 . S
C1566 C1560 1.383 . S
C1566 C1565 1.379 . S
H1567 C1561 0.959 . S
H1568 C1561 0.961 . S
H1569 C1561 0.960 . S
H1570 C1562 0.930 . S
H1571 C1563 0.929 . S
H1572 C1580 0.879 1_455 S
H1573 C1582 0.930 . S
H1574 C1584 0.930 . S
H1575 C1587 0.929 . S
H1576 C1590 0.930 . S
H1577 C1592 0.960 . S
H1578 C1592 0.960 . S
H1579 C1592 0.960 . S
C1580 H1572 0.879 1_655 S
C1580 C1581 1.381 . S
C1580 C1582 1.433 . S
C1581 C1580 1.381 . S
C1581 C1587 1.390 . S
C1582 H1573 0.930 . S
C1582 C1580 1.433 . S
C1582 C1583 1.372 . S
C1583 C1582 1.372 . S
C1583 C1584 1.400 . S
C1583 C1588 1.490 . S
C1584 H1574 0.930 . S
C1584 C1583 1.400 . S
C1584 C1587 1.386 . S
H1585 C1601 0.930 . S
H1586 C1602 0.931 . S
C1587 H1575 0.929 . S
C1587 C1581 1.390 . S
C1587 C1584 1.386 . S
C1588 C1583 1.490 . S
C1588 C1590 1.395 . S
C1588 C1591 1.403 . S
H1589 C1595 0.930 . S
C1590 H1576 0.930 . S
C1590 C1588 1.395 . S
C1590 C1593 1.403 . S
C1591 C1588 1.403 . S
C1591 C1592 1.524 . S
C1591 C1595 1.400 . S
C1592 H1577 0.960 . S
C1592 H1578 0.960 . S
C1592 H1579 0.960 . S
C1592 C1591 1.524 . S
C1593 C1590 1.403 . S
C1593 C1594 1.392 . S
C1593 C1597 1.495 . S
C1594 C1593 1.392 . S
C1594 C1595 1.385 . S
C1594 C1596 1.478 . S
C1595 H1589 0.930 . S
C1595 C1591 1.400 . S
C1595 C1594 1.385 . S
C1596 C1594 1.478 . S
C1596 C1598 1.381 . S
C1596 C1602 1.383 . S
C1597 C1593 1.495 . S
C1597 H1603 0.959 . S
C1597 H1604 0.961 . S
C1597 H1605 0.960 . S
C1598 C1596 1.381 . S
C1598 C1599 1.394 . S
C1598 H1606 0.930 . S
C1599 C1598 1.394 . S
C1599 C1600 1.383 . S
C1599 H1607 0.929 . S
C1600 C1599 1.383 . S
C1600 C1601 1.377 . S
C1601 H1585 0.930 . S
C1601 C1600 1.377 . S
C1601 C1602 1.379 . S
C1602 H1586 0.931 . S
C1602 C1596 1.383 . S
C1602 C1601 1.379 . S
H1603 C1597 0.959 . S
H1604 C1597 0.961 . S
H1605 C1597 0.960 . S
H1606 C1598 0.930 . S
H1607 C1599 0.929 . S
H1608 C1616 0.929 . S
H1609 C1618 0.930 . S
H1610 C1620 0.930 . S
H1611 C1623 0.929 . S
H1612 C1626 0.930 . S
H1613 C1628 0.960 . S
H1614 C1628 0.960 . S
H1615 C1628 0.960 . S
C1616 H1608 0.929 . S
C1616 C1617 1.377 . S
C1616 C1618 1.384 . S
C1617 C1616 1.377 . S
C1617 C1623 1.390 . S
C1618 H1609 0.930 . S
C1618 C1616 1.384 . S
C1618 C1619 1.372 . S
C1619 C1618 1.372 . S
C1619 C1620 1.400 . S
C1619 C1624 1.490 . S
C1620 H1610 0.930 . S
C1620 C1619 1.400 . S
C1620 C1623 1.386 . S
H1621 C1637 0.930 . S
H1622 C1638 0.931 . S
C1623 H1611 0.929 . S
C1623 C1617 1.390 . S
C1623 C1620 1.386 . S
C1624 C1619 1.490 . S
C1624 C1626 1.395 . S
C1624 C1627 1.403 . S
H1625 C1631 0.930 . S
C1626 H1612 0.930 . S
C1626 C1624 1.395 . S
C1626 C1629 1.403 . S
C1627 C1624 1.403 . S
C1627 C1628 1.524 . S
C1627 C1631 1.400 . S
C1628 H1613 0.960 . S
C1628 H1614 0.960 . S
C1628 H1615 0.960 . S
C1628 C1627 1.524 . S
C1629 C1626 1.403 . S
C1629 C1630 1.392 . S
C1629 C1633 1.495 . S
C1630 C1629 1.392 . S
C1630 C1631 1.385 . S
C1630 C1632 1.478 . S
C1631 H1625 0.930 . S
C1631 C1627 1.400 . S
C1631 C1630 1.385 . S
C1632 C1630 1.478 . S
C1632 C1634 1.381 . S
C1632 C1638 1.383 . S
C1633 C1629 1.495 . S
C1633 H1639 0.959 . S
C1633 H1640 0.961 . S
C1633 H1641 0.960 . S
C1634 C1632 1.381 . S
C1634 C1635 1.394 . S
C1634 H1642 0.930 . S
C1635 C1634 1.394 . S
C1635 C1636 1.383 . S
C1635 H1643 0.929 . S
C1636 C1635 1.383 . S
C1636 C1637 1.377 . S
C1637 H1621 0.930 . S
C1637 C1636 1.377 . S
C1637 C1638 1.379 . S
C1638 H1622 0.931 . S
C1638 C1632 1.383 . S
C1638 C1637 1.379 . S
H1639 C1633 0.959 . S
H1640 C1633 0.961 . S
H1641 C1633 0.960 . S
H1642 C1634 0.930 . S
H1643 C1635 0.929 . S
H1644 C1652 0.929 . S
H1645 C1654 0.930 . S
H1646 C1656 0.930 . S
H1647 C1659 0.929 1_556 S
H1648 C1662 0.930 . S
H1649 C1664 0.960 . S
H1650 C1664 0.960 . S
H1651 C1664 0.960 . S
C1652 H1644 0.929 . S
C1652 C1653 1.377 . S
C1652 C1654 1.384 . S
C1653 C1652 1.377 . S
C1653 C1659 1.390 . S
C1654 H1645 0.930 . S
C1654 C1652 1.384 . S
C1654 C1655 1.372 . S
C1655 C1654 1.372 . S
C1655 C1656 1.400 . S
C1655 C1660 1.490 . S
C1656 H1646 0.930 . S
C1656 C1655 1.400 . S
C1656 C1659 1.386 . S
H1657 C1673 0.930 . S
H1658 C1674 0.931 . S
C1659 H1647 0.929 1_554 S
C1659 C1653 1.390 . S
C1659 C1656 1.386 . S
C1660 C1655 1.490 . S
C1660 C1662 1.395 . S
C1660 C1663 1.403 . S
H1661 C1667 0.930 . S
C1662 H1648 0.930 . S
C1662 C1660 1.395 . S
C1662 C1665 1.403 . S
C1663 C1660 1.403 . S
C1663 C1664 1.524 . S
C1663 C1667 1.400 . S
C1664 H1649 0.960 . S
C1664 H1650 0.960 . S
C1664 H1651 0.960 . S
C1664 C1663 1.524 . S
C1665 C1662 1.403 . S
C1665 C1666 1.392 . S
C1665 C1669 1.495 . S
C1666 C1665 1.392 . S
C1666 C1667 1.385 . S
C1666 C1668 1.478 . S
C1667 H1661 0.930 . S
C1667 C1663 1.400 . S
C1667 C1666 1.385 . S
C1668 C1666 1.478 . S
C1668 C1670 1.381 . S
C1668 C1674 1.383 . S
C1669 C1665 1.495 . S
C1669 H1675 0.959 . S
C1669 H1676 0.961 . S
C1669 H1677 0.960 . S
C1670 C1668 1.381 . S
C1670 C1671 1.394 . S
C1670 H1678 0.930 . S
C1671 C1670 1.394 . S
C1671 C1672 1.383 . S
C1671 H1679 0.929 . S
C1672 C1671 1.383 . S
C1672 C1673 1.377 . S
C1673 H1657 0.930 . S
C1673 C1672 1.377 . S
C1673 C1674 1.379 . S
C1674 H1658 0.931 . S
C1674 C1668 1.383 . S
C1674 C1673 1.379 . S
H1675 C1669 0.959 . S
H1676 C1669 0.961 . S
H1677 C1669 0.960 . S
H1678 C1670 0.930 . S
H1679 C1671 0.929 . S
H1680 C1688 0.929 . S
H1681 C1690 0.930 . S
H1682 C1692 0.930 . S
H1683 C1695 0.929 . S
H1684 C1698 0.930 . S
H1685 C1700 0.960 . S
H1686 C1700 0.960 . S
H1687 C1700 0.960 . S
C1688 H1680 0.929 . S
C1688 C1689 1.377 . S
C1688 C1690 1.384 . S
C1689 C1688 1.377 . S
C1689 C1695 1.390 . S
C1690 H1681 0.930 . S
C1690 C1688 1.384 . S
C1690 C1691 1.372 . S
C1691 C1690 1.372 . S
C1691 C1692 1.400 . S
C1691 C1696 1.490 . S
C1692 H1682 0.930 . S
C1692 C1691 1.400 . S
C1692 C1695 1.386 . S
H1693 C1709 0.930 . S
H1694 C1710 0.931 . S
C1695 H1683 0.929 . S
C1695 C1689 1.390 . S
C1695 C1692 1.386 . S
C1696 C1691 1.490 . S
C1696 C1698 1.395 . S
C1696 C1699 1.403 . S
H1697 C1703 0.930 . S
C1698 H1684 0.930 . S
C1698 C1696 1.395 . S
C1698 C1701 1.403 . S
C1699 C1696 1.403 . S
C1699 C1700 1.524 . S
C1699 C1703 1.400 . S
C1700 H1685 0.960 . S
C1700 H1686 0.960 . S
C1700 H1687 0.960 . S
C1700 C1699 1.524 . S
C1701 C1698 1.403 . S
C1701 C1702 1.392 . S
C1701 C1705 1.495 . S
C1702 C1701 1.392 . S
C1702 C1703 1.385 . S
C1702 C1704 1.478 . S
C1703 H1697 0.930 . S
C1703 C1699 1.400 . S
C1703 C1702 1.385 . S
C1704 C1702 1.478 . S
C1704 C1706 1.381 . S
C1704 C1710 1.383 . S
C1705 C1701 1.495 . S
C1705 H1711 0.959 . S
C1705 H1712 0.961 . S
C1705 H1713 0.960 . S
C1706 C1704 1.381 . S
C1706 C1707 1.394 . S
C1706 H1714 0.930 . S
C1707 C1706 1.394 . S
C1707 C1708 1.383 . S
C1707 H1715 0.929 . S
C1708 C1707 1.383 . S
C1708 C1709 1.377 . S
C1709 H1693 0.930 . S
C1709 C1708 1.377 . S
C1709 C1710 1.379 . S
C1710 H1694 0.931 . S
C1710 C1704 1.383 . S
C1710 C1709 1.379 . S
H1711 C1705 0.959 . S
H1712 C1705 0.961 . S
H1713 C1705 0.960 . S
H1714 C1706 0.930 . S
H1715 C1707 0.929 . S
H1716 C1724 0.929 . S
H1717 C1726 0.930 . S
H1718 C1728 0.930 . S
H1719 C1731 0.929 . S
H1720 C1734 0.930 . S
H1721 C1736 0.960 . S
H1722 C1736 0.960 . S
H1723 C1736 0.960 . S
C1724 H1716 0.929 . S
C1724 C1725 1.377 . S
C1724 C1726 1.384 . S
C1725 C1724 1.377 . S
C1725 C1731 1.390 . S
C1726 H1717 0.930 . S
C1726 C1724 1.384 . S
C1726 C1727 1.372 . S
C1727 C1726 1.372 . S
C1727 C1728 1.400 . S
C1727 C1732 1.490 . S
C1728 H1718 0.930 . S
C1728 C1727 1.400 . S
C1728 C1731 1.386 . S
H1729 C1745 0.930 . S
H1730 C1746 0.931 . S
C1731 H1719 0.929 . S
C1731 C1725 1.390 . S
C1731 C1728 1.386 . S
C1732 C1727 1.490 . S
C1732 C1734 1.395 . S
C1732 C1735 1.403 . S
H1733 C1739 0.930 . S
C1734 H1720 0.930 . S
C1734 C1732 1.395 . S
C1734 C1737 1.403 . S
C1735 C1732 1.403 . S
C1735 C1736 1.524 . S
C1735 C1739 1.400 . S
C1736 H1721 0.960 . S
C1736 H1722 0.960 . S
C1736 H1723 0.960 . S
C1736 C1735 1.524 . S
C1737 C1734 1.403 . S
C1737 C1738 1.392 . S
C1737 C1741 1.495 . S
C1738 C1737 1.392 . S
C1738 C1739 1.385 . S
C1738 C1740 1.478 . S
C1739 H1733 0.930 . S
C1739 C1735 1.400 . S
C1739 C1738 1.385 . S
C1740 C1738 1.478 . S
C1740 C1742 1.381 . S
C1740 C1746 1.383 . S
C1741 C1737 1.495 . S
C1741 H1747 0.959 . S
C1741 H1748 0.961 . S
C1741 H1749 0.960 . S
C1742 C1740 1.381 . S
C1742 C1743 1.394 . S
C1742 H1750 0.930 . S
C1743 C1742 1.394 . S
C1743 C1744 1.383 . S
C1743 H1751 0.929 . S
C1744 C1743 1.383 . S
C1744 C1745 1.377 . S
C1745 H1729 0.930 . S
C1745 C1744 1.377 . S
C1745 C1746 1.379 . S
C1746 H1730 0.931 . S
C1746 C1740 1.383 . S
C1746 C1745 1.379 . S
H1747 C1741 0.959 . S
H1748 C1741 0.961 . S
H1749 C1741 0.960 . S
H1750 C1742 0.930 . S
H1751 C1743 0.929 . S
H1752 C1760 0.929 . S
H1753 C1762 0.930 . S
H1754 C1764 0.930 . S
H1755 C1767 0.929 . S
H1756 C1770 0.930 . S
H1757 C1772 0.960 . S
H1758 C1772 0.960 . S
H1759 C1772 0.960 . S
C1760 H1752 0.929 . S
C1760 C1761 1.377 . S
C1760 C1762 1.384 . S
C1761 C1760 1.377 . S
C1761 C1767 1.390 . S
C1762 H1753 0.930 . S
C1762 C1760 1.384 . S
C1762 C1763 1.372 . S
C1763 C1762 1.372 . S
C1763 C1764 1.400 . S
C1763 C1768 1.490 . S
C1764 H1754 0.930 . S
C1764 C1763 1.400 . S
C1764 C1767 1.386 . S
H1765 C1781 0.930 . S
H1766 C1782 0.931 . S
C1767 H1755 0.929 . S
C1767 C1761 1.390 . S
C1767 C1764 1.386 . S
C1768 C1763 1.490 . S
C1768 C1770 1.395 . S
C1768 C1771 1.403 . S
H1769 C1775 0.930 . S
C1770 H1756 0.930 . S
C1770 C1768 1.395 . S
C1770 C1773 1.403 . S
C1771 C1768 1.403 . S
C1771 C1772 1.524 . S
C1771 C1775 1.400 . S
C1772 H1757 0.960 . S
C1772 H1758 0.960 . S
C1772 H1759 0.960 . S
C1772 C1771 1.524 . S
C1773 C1770 1.403 . S
C1773 C1774 1.392 . S
C1773 C1777 1.495 . S
C1774 C1773 1.392 . S
C1774 C1775 1.385 . S
C1774 C1776 1.478 . S
C1775 H1769 0.930 . S
C1775 C1771 1.400 . S
C1775 C1774 1.385 . S
C1776 C1774 1.478 . S
C1776 C1778 1.381 . S
C1776 C1782 1.383 . S
C1777 C1773 1.495 . S
C1777 H1783 0.959 . S
C1777 H1784 0.961 . S
C1777 H1785 0.960 . S
C1778 C1776 1.381 . S
C1778 C1779 1.394 . S
C1778 H1786 0.930 . S
C1779 C1778 1.394 . S
C1779 C1780 1.383 . S
C1779 H1787 0.929 . S
C1780 C1779 1.383 . S
C1780 C1781 1.377 . S
C1781 H1765 0.930 . S
C1781 C1780 1.377 . S
C1781 C1782 1.379 . S
C1782 H1766 0.931 . S
C1782 C1776 1.383 . S
C1782 C1781 1.379 . S
H1783 C1777 0.959 . S
H1784 C1777 0.961 . S
H1785 C1777 0.960 . S
H1786 C1778 0.930 . S
H1787 C1779 0.929 . S
H1788 C1796 0.929 . S
H1789 C1798 0.930 . S
H1790 C1800 0.930 . S
H1791 C1803 0.929 . S
H1792 C1806 0.930 . S
H1793 C1808 0.960 . S
H1794 C1808 0.960 . S
H1795 C1808 0.960 . S
C1796 H1788 0.929 . S
C1796 C1797 1.377 . S
C1796 C1798 1.384 . S
C1797 C1796 1.377 . S
C1797 C1803 1.390 . S
C1798 H1789 0.930 . S
C1798 C1796 1.384 . S
C1798 C1799 1.372 . S
C1799 C1798 1.372 . S
C1799 C1800 1.400 . S
C1799 C1804 1.490 . S
C1800 H1790 0.930 . S
C1800 C1799 1.400 . S
C1800 C1803 1.386 . S
H1801 C1817 0.930 . S
H1802 C1818 0.931 . S
C1803 H1791 0.929 . S
C1803 C1797 1.390 . S
C1803 C1800 1.386 . S
C1804 C1799 1.490 . S
C1804 C1806 1.395 . S
C1804 C1807 1.403 . S
H1805 C1811 0.930 . S
C1806 H1792 0.930 . S
C1806 C1804 1.395 . S
C1806 C1809 1.403 . S
C1807 C1804 1.403 . S
C1807 C1808 1.524 . S
C1807 C1811 1.400 . S
C1808 H1793 0.960 . S
C1808 H1794 0.960 . S
C1808 H1795 0.960 . S
C1808 C1807 1.524 . S
C1809 C1806 1.403 . S
C1809 C1810 1.392 . S
C1809 C1813 1.495 . S
C1810 C1809 1.392 . S
C1810 C1811 1.385 . S
C1810 C1812 1.478 . S
C1811 H1805 0.930 . S
C1811 C1807 1.400 . S
C1811 C1810 1.385 . S
C1812 C1810 1.478 . S
C1812 C1814 1.381 . S
C1812 C1818 1.383 . S
C1813 C1809 1.495 . S
C1813 H1819 0.959 . S
C1813 H1820 0.961 . S
C1813 H1821 0.960 . S
C1814 C1812 1.381 . S
C1814 C1815 1.394 . S
C1814 H1822 0.930 . S
C1815 C1814 1.394 . S
C1815 C1816 1.386 . S
C1815 H1823 0.929 1_655 S
C1816 C1815 1.386 . S
C1816 C1817 1.401 . S
C1817 H1801 0.930 . S
C1817 C1816 1.401 . S
C1817 C1818 1.379 . S
C1818 H1802 0.931 . S
C1818 C1812 1.383 . S
C1818 C1817 1.379 . S
H1819 C1813 0.959 . S
H1820 C1813 0.961 . S
H1821 C1813 0.960 . S
H1822 C1814 0.930 . S
H1823 C1815 0.929 1_455 S
H1824 C1832 0.929 . S
H1825 C1834 0.930 . S
H1826 C1836 0.930 . S
H1827 C1839 0.929 . S
H1828 C1842 0.930 . S
H1829 C1844 0.960 . S
H1830 C1844 0.960 . S
H1831 C1844 0.960 . S
C1832 H1824 0.929 . S
C1832 C1833 1.377 . S
C1832 C1834 1.384 . S
C1833 C1832 1.377 . S
C1833 C1839 1.390 . S
C1834 H1825 0.930 . S
C1834 C1832 1.384 . S
C1834 C1835 1.372 . S
C1835 C1834 1.372 . S
C1835 C1836 1.400 . S
C1835 C1840 1.490 . S
C1836 H1826 0.930 . S
C1836 C1835 1.400 . S
C1836 C1839 1.386 . S
H1837 C1853 0.930 . S
H1838 C1854 0.931 . S
C1839 H1827 0.929 . S
C1839 C1833 1.390 . S
C1839 C1836 1.386 . S
C1840 C1835 1.490 . S
C1840 C1842 1.395 . S
C1840 C1843 1.403 . S
H1841 C1847 0.930 . S
C1842 H1828 0.930 . S
C1842 C1840 1.395 . S
C1842 C1845 1.403 . S
C1843 C1840 1.403 . S
C1843 C1844 1.524 . S
C1843 C1847 1.400 . S
C1844 H1829 0.960 . S
C1844 H1830 0.960 . S
C1844 H1831 0.960 . S
C1844 C1843 1.524 . S
C1845 C1842 1.403 . S
C1845 C1846 1.392 . S
C1845 C1849 1.495 . S
C1846 C1845 1.392 . S
C1846 C1847 1.385 . S
C1846 C1848 1.478 . S
C1847 H1841 0.930 . S
C1847 C1843 1.400 . S
C1847 C1846 1.385 . S
C1848 C1846 1.478 . S
C1848 C1850 1.381 . S
C1848 C1854 1.383 . S
C1849 C1845 1.495 . S
C1849 H1855 0.959 . S
C1849 H1856 0.961 . S
C1849 H1857 0.960 . S
C1850 C1848 1.381 . S
C1850 C1851 1.394 . S
C1850 H1858 0.930 . S
C1851 C1850 1.394 . S
C1851 C1852 1.383 . S
C1851 H1859 0.929 . S
C1852 C1851 1.383 . S
C1852 C1853 1.377 . S
C1853 H1837 0.930 . S
C1853 C1852 1.377 . S
C1853 C1854 1.379 . S
C1854 H1838 0.931 . S
C1854 C1848 1.383 . S
C1854 C1853 1.379 . S
H1855 C1849 0.959 . S
H1856 C1849 0.961 . S
H1857 C1849 0.960 . S
H1858 C1850 0.930 . S
H1859 C1851 0.929 . S
H1860 C1868 0.929 . S
H1861 C1870 0.930 . S
H1862 C1872 0.930 . S
H1863 C1875 0.929 . S
H1864 C1878 0.930 . S
H1865 C1880 0.960 . S
H1866 C1880 0.960 . S
H1867 C1880 0.960 . S
C1868 H1860 0.929 . S
C1868 C1869 1.377 . S
C1868 C1870 1.384 . S
C1869 C1868 1.377 . S
C1869 C1875 1.390 . S
C1870 H1861 0.930 . S
C1870 C1868 1.384 . S
C1870 C1871 1.372 . S
C1871 C1870 1.372 . S
C1871 C1872 1.400 . S
C1871 C1876 1.490 . S
C1872 H1862 0.930 . S
C1872 C1871 1.400 . S
C1872 C1875 1.386 . S
H1873 C1889 0.930 . S
H1874 C1890 0.931 . S
C1875 H1863 0.929 . S
C1875 C1869 1.390 . S
C1875 C1872 1.386 . S
C1876 C1871 1.490 . S
C1876 C1878 1.395 . S
C1876 C1879 1.403 . S
H1877 C1883 0.930 . S
C1878 H1864 0.930 . S
C1878 C1876 1.395 . S
C1878 C1881 1.403 . S
C1879 C1876 1.403 . S
C1879 C1880 1.524 . S
C1879 C1883 1.400 . S
C1880 H1865 0.960 . S
C1880 H1866 0.960 . S
C1880 H1867 0.960 . S
C1880 C1879 1.524 . S
C1881 C1878 1.403 . S
C1881 C1882 1.392 . S
C1881 C1885 1.495 . S
C1882 C1881 1.392 . S
C1882 C1883 1.385 . S
C1882 C1884 1.478 . S
C1883 H1877 0.930 . S
C1883 C1879 1.400 . S
C1883 C1882 1.385 . S
C1884 C1882 1.478 . S
C1884 C1886 1.381 . S
C1884 C1890 1.383 . S
C1885 C1881 1.495 . S
C1885 H1891 0.959 . S
C1885 H1892 0.961 . S
C1885 H1893 0.960 . S
C1886 C1884 1.381 . S
C1886 C1887 1.394 . S
C1886 H1894 0.930 . S
C1887 C1886 1.394 . S
C1887 C1888 1.383 . S
C1887 H1895 0.929 . S
C1888 C1887 1.383 . S
C1888 C1889 1.377 . S
C1889 H1873 0.930 . S
C1889 C1888 1.377 . S
C1889 C1890 1.379 . S
C1890 H1874 0.931 . S
C1890 C1884 1.383 . S
C1890 C1889 1.379 . S
H1891 C1885 0.959 . S
H1892 C1885 0.961 . S
H1893 C1885 0.960 . S
H1894 C1886 0.930 . S
H1895 C1887 0.929 . S
H1896 C1904 0.929 . S
H1897 C1906 0.930 . S
H1898 C1908 0.930 . S
H1899 C1911 0.929 . S
H1900 C1914 0.930 . S
H1901 C1916 0.960 . S
H1902 C1916 0.960 . S
H1903 C1916 0.960 . S
C1904 H1896 0.929 . S
C1904 C1905 1.377 . S
C1904 C1906 1.384 . S
C1905 C1904 1.377 . S
C1905 C1911 1.390 . S
C1906 H1897 0.930 . S
C1906 C1904 1.384 . S
C1906 C1907 1.372 . S
C1907 C1906 1.372 . S
C1907 C1908 1.400 . S
C1907 C1912 1.490 . S
C1908 H1898 0.930 . S
C1908 C1907 1.400 . S
C1908 C1911 1.386 . S
H1909 C1925 0.930 . S
H1910 C1926 0.931 . S
C1911 H1899 0.929 . S
C1911 C1905 1.390 . S
C1911 C1908 1.386 . S
C1912 C1907 1.490 . S
C1912 C1914 1.395 . S
C1912 C1915 1.403 . S
H1913 C1919 0.930 . S
C1914 H1900 0.930 . S
C1914 C1912 1.395 . S
C1914 C1917 1.403 . S
C1915 C1912 1.403 . S
C1915 C1916 1.524 . S
C1915 C1919 1.400 . S
C1916 H1901 0.960 . S
C1916 H1902 0.960 . S
C1916 H1903 0.960 . S
C1916 C1915 1.524 . S
C1917 C1914 1.403 . S
C1917 C1918 1.392 . S
C1917 C1921 1.495 . S
C1918 C1917 1.392 . S
C1918 C1919 1.385 . S
C1918 C1920 1.478 . S
C1919 H1913 0.930 . S
C1919 C1915 1.400 . S
C1919 C1918 1.385 . S
C1920 C1918 1.478 . S
C1920 C1922 1.381 . S
C1920 C1926 1.383 . S
C1921 C1917 1.495 . S
C1921 H1927 0.959 . S
C1921 H1928 0.961 . S
C1921 H1929 0.960 . S
C1922 C1920 1.381 . S
C1922 C1923 1.394 . S
C1922 H1930 0.930 . S
C1923 C1922 1.394 . S
C1923 C1924 1.383 . S
C1923 H1931 0.929 . S
C1924 C1923 1.383 . S
C1924 C1925 1.377 . S
C1925 H1909 0.930 . S
C1925 C1924 1.377 . S
C1925 C1926 1.379 . S
C1926 H1910 0.931 . S
C1926 C1920 1.383 . S
C1926 C1925 1.379 . S
H1927 C1921 0.959 . S
H1928 C1921 0.961 . S
H1929 C1921 0.960 . S
H1930 C1922 0.930 . S
H1931 C1923 0.929 . S
H1932 C1940 0.929 . S
H1933 C1942 0.930 . S
H1934 C1944 0.930 . S
H1935 C1947 0.929 . S
H1936 C1950 0.930 . S
H1937 C1952 0.960 . S
H1938 C1952 0.960 . S
H1939 C1952 0.960 . S
C1940 H1932 0.929 . S
C1940 C1941 1.377 . S
C1940 C1942 1.384 . S
C1941 C1940 1.377 . S
C1941 C1947 1.390 1_554 S
C1942 H1933 0.930 . S
C1942 C1940 1.384 . S
C1942 C1943 1.372 . S
C1943 C1942 1.372 . S
C1943 C1944 1.400 . S
C1943 C1948 1.490 . S
C1944 H1934 0.930 . S
C1944 C1943 1.400 . S
C1944 C1947 1.386 1_554 S
H1945 C1961 0.930 1_545 S
H1946 C1962 0.931 . S
C1947 H1935 0.929 . S
C1947 C1941 1.390 1_556 S
C1947 C1944 1.386 1_556 S
C1948 C1943 1.490 . S
C1948 C1950 1.395 . S
C1948 C1951 1.403 . S
H1949 C1955 0.930 . S
C1950 H1936 0.930 . S
C1950 C1948 1.395 . S
C1950 C1953 1.403 . S
C1951 C1948 1.403 . S
C1951 C1952 1.524 . S
C1951 C1955 1.400 . S
C1952 H1937 0.960 . S
C1952 H1938 0.960 . S
C1952 H1939 0.960 . S
C1952 C1951 1.524 . S
C1953 C1950 1.403 . S
C1953 C1954 1.392 . S
C1953 C1957 1.495 . S
C1954 C1953 1.392 . S
C1954 C1955 1.385 . S
C1954 C1956 1.478 . S
C1955 H1949 0.930 . S
C1955 C1951 1.400 . S
C1955 C1954 1.385 . S
C1956 C1954 1.478 . S
C1956 C1958 1.381 . S
C1956 C1962 1.383 . S
C1957 C1953 1.495 . S
C1957 H1963 0.959 . S
C1957 H1964 0.961 . S
C1957 H1965 0.960 . S
C1958 C1956 1.381 . S
C1958 C1959 1.394 . S
C1958 H1966 0.930 . S
C1959 C1958 1.394 . S
C1959 C1960 1.383 . S
C1959 H1967 0.929 . S
C1960 C1959 1.383 . S
C1960 C1961 1.377 . S
C1961 H1945 0.930 1_565 S
C1961 C1960 1.377 . S
C1961 C1962 1.379 . S
C1962 H1946 0.931 . S
C1962 C1956 1.383 . S
C1962 C1961 1.379 . S
H1963 C1957 0.959 . S
H1964 C1957 0.961 . S
H1965 C1957 0.960 . S
H1966 C1958 0.930 . S
H1967 C1959 0.929 . S
H1968 C1976 0.929 . S
H1969 C1978 0.930 . S
H1970 C1980 0.930 . S
H1971 C1983 0.929 . S
H1972 C1986 0.930 . S
H1973 C1988 0.960 . S
H1974 C1988 0.960 . S
H1975 C1988 0.960 . S
C1976 H1968 0.929 . S
C1976 C1977 1.377 . S
C1976 C1978 1.384 . S
C1977 C1976 1.377 . S
C1977 C1983 1.390 . S
C1978 H1969 0.930 . S
C1978 C1976 1.384 . S
C1978 C1979 1.372 . S
C1979 C1978 1.372 . S
C1979 C1980 1.400 . S
C1979 C1984 1.490 . S
C1980 H1970 0.930 . S
C1980 C1979 1.400 . S
C1980 C1983 1.386 . S
H1981 C1997 0.930 . S
H1982 C1998 0.931 . S
C1983 H1971 0.929 . S
C1983 C1977 1.390 . S
C1983 C1980 1.386 . S
C1984 C1979 1.490 . S
C1984 C1986 1.395 . S
C1984 C1987 1.403 . S
H1985 C1991 0.930 . S
C1986 H1972 0.930 . S
C1986 C1984 1.395 . S
C1986 C1989 1.403 . S
C1987 C1984 1.403 . S
C1987 C1988 1.524 . S
C1987 C1991 1.400 . S
C1988 H1973 0.960 . S
C1988 H1974 0.960 . S
C1988 H1975 0.960 . S
C1988 C1987 1.524 . S
C1989 C1986 1.403 . S
C1989 C1990 1.392 . S
C1989 C1993 1.495 . S
C1990 C1989 1.392 . S
C1990 C1991 1.385 . S
C1990 C1992 1.478 . S
C1991 H1985 0.930 . S
C1991 C1987 1.400 . S
C1991 C1990 1.385 . S
C1992 C1990 1.478 . S
C1992 C1994 1.381 . S
C1992 C1998 1.383 . S
C1993 C1989 1.495 . S
C1993 H1999 0.959 . S
C1993 H2000 0.961 . S
C1993 H2001 0.960 . S
C1994 C1992 1.381 . S
C1994 C1995 1.394 . S
C1994 H2002 0.930 . S
C1995 C1994 1.394 . S
C1995 C1996 1.383 . S
C1995 H2003 0.929 . S
C1996 C1995 1.383 . S
C1996 C1997 1.377 . S
C1997 H1981 0.930 . S
C1997 C1996 1.377 . S
C1997 C1998 1.379 . S
C1998 H1982 0.931 . S
C1998 C1992 1.383 . S
C1998 C1997 1.379 . S
H1999 C1993 0.959 . S
H2000 C1993 0.961 . S
H2001 C1993 0.960 . S
H2002 C1994 0.930 . S
H2003 C1995 0.929 . S
H2004 C2012 0.929 . S
H2005 C2014 0.930 . S
H2006 C2016 0.930 . S
H2007 C2019 0.929 1_565 S
H2008 C2022 0.930 . S
H2009 C2024 0.960 . S
H2010 C2024 0.960 . S
H2011 C2024 0.960 . S
C2012 H2004 0.929 . S
C2012 C2013 1.377 . S
C2012 C2014 1.384 . S
C2013 C2012 1.377 . S
C2013 C2019 1.390 . S
C2014 H2005 0.930 . S
C2014 C2012 1.384 . S
C2014 C2015 1.372 . S
C2015 C2014 1.372 . S
C2015 C2016 1.400 . S
C2015 C2020 1.490 . S
C2016 H2006 0.930 . S
C2016 C2015 1.400 . S
C2016 C2019 1.386 . S
H2017 C2033 0.930 . S
H2018 C2034 0.931 . S
C2019 H2007 0.929 1_545 S
C2019 C2013 1.390 . S
C2019 C2016 1.386 . S
C2020 C2015 1.490 . S
C2020 C2022 1.395 . S
C2020 C2023 1.403 . S
H2021 C2027 0.930 . S
C2022 H2008 0.930 . S
C2022 C2020 1.395 . S
C2022 C2025 1.403 . S
C2023 C2020 1.403 . S
C2023 C2024 1.524 . S
C2023 C2027 1.400 . S
C2024 H2009 0.960 . S
C2024 H2010 0.960 . S
C2024 H2011 0.960 . S
C2024 C2023 1.524 . S
C2025 C2022 1.403 . S
C2025 C2026 1.392 . S
C2025 C2029 1.495 . S
C2026 C2025 1.392 . S
C2026 C2027 1.385 . S
C2026 C2028 1.478 . S
C2027 H2021 0.930 . S
C2027 C2023 1.400 . S
C2027 C2026 1.385 . S
C2028 C2026 1.478 . S
C2028 C2030 1.381 . S
C2028 C2034 1.383 . S
C2029 C2025 1.495 . S
C2029 H2035 0.959 . S
C2029 H2036 0.961 . S
C2029 H2037 0.960 . S
C2030 C2028 1.381 . S
C2030 C2031 1.394 . S
C2030 H2038 0.930 . S
C2031 C2030 1.394 . S
C2031 C2032 1.383 . S
C2031 H2039 0.929 . S
C2032 C2031 1.383 . S
C2032 C2033 1.377 . S
C2033 H2017 0.930 . S
C2033 C2032 1.377 . S
C2033 C2034 1.379 . S
C2034 H2018 0.931 . S
C2034 C2028 1.383 . S
C2034 C2033 1.379 . S
H2035 C2029 0.959 . S
H2036 C2029 0.961 . S
H2037 C2029 0.960 . S
H2038 C2030 0.930 . S
H2039 C2031 0.929 . S
H2040 C2048 0.929 . S
H2041 C2050 0.930 . S
H2042 C2052 0.930 . S
H2043 C2055 0.929 . S
H2044 C2058 0.930 . S
H2045 C2060 0.960 . S
H2046 C2060 0.960 . S
H2047 C2060 0.960 . S
C2048 H2040 0.929 . S
C2048 C2049 1.377 . S
C2048 C2050 1.384 . S
C2049 C2048 1.377 . S
C2049 C2055 1.390 . S
C2050 H2041 0.930 . S
C2050 C2048 1.384 . S
C2050 C2051 1.372 . S
C2051 C2050 1.372 . S
C2051 C2052 1.400 . S
C2051 C2056 1.490 . S
C2052 H2042 0.930 . S
C2052 C2051 1.400 . S
C2052 C2055 1.386 . S
H2053 C2069 0.930 . S
H2054 C2070 0.931 . S
C2055 H2043 0.929 . S
C2055 C2049 1.390 . S
C2055 C2052 1.386 . S
C2056 C2051 1.490 . S
C2056 C2058 1.395 . S
C2056 C2059 1.403 . S
H2057 C2063 0.930 . S
C2058 H2044 0.930 . S
C2058 C2056 1.395 . S
C2058 C2061 1.403 . S
C2059 C2056 1.403 . S
C2059 C2060 1.524 . S
C2059 C2063 1.400 . S
C2060 H2045 0.960 . S
C2060 H2046 0.960 . S
C2060 H2047 0.960 . S
C2060 C2059 1.524 . S
C2061 C2058 1.403 . S
C2061 C2062 1.392 . S
C2061 C2065 1.495 . S
C2062 C2061 1.392 . S
C2062 C2063 1.385 . S
C2062 C2064 1.478 . S
C2063 H2057 0.930 . S
C2063 C2059 1.400 . S
C2063 C2062 1.385 . S
C2064 C2062 1.478 . S
C2064 C2066 1.381 . S
C2064 C2070 1.383 . S
C2065 C2061 1.495 . S
C2065 H2071 0.959 . S
C2065 H2072 0.961 . S
C2065 H2073 0.960 . S
C2066 C2064 1.381 . S
C2066 C2067 1.394 . S
C2066 H2074 0.930 . S
C2067 C2066 1.394 . S
C2067 C2068 1.383 . S
C2067 H2075 0.929 . S
C2068 C2067 1.383 . S
C2068 C2069 1.377 . S
C2069 H2053 0.930 . S
C2069 C2068 1.377 . S
C2069 C2070 1.379 . S
C2070 H2054 0.931 . S
C2070 C2064 1.383 . S
C2070 C2069 1.379 . S
H2071 C2065 0.959 . S
H2072 C2065 0.961 . S
H2073 C2065 0.960 . S
H2074 C2066 0.930 . S
H2075 C2067 0.929 . S
H2076 C2084 0.929 . S
H2077 C2086 0.930 . S
H2078 C2088 0.930 . S
H2079 C2091 0.929 . S
H2080 C2094 0.930 . S
H2081 C2096 0.960 . S
H2082 C2096 0.960 . S
H2083 C2096 0.960 . S
C2084 H2076 0.929 . S
C2084 C2085 1.377 . S
C2084 C2086 1.384 . S
C2085 C2084 1.377 . S
C2085 C2091 1.390 1_556 S
C2086 H2077 0.930 . S
C2086 C2084 1.384 . S
C2086 C2087 1.372 . S
C2087 C2086 1.372 . S
C2087 C2088 1.400 . S
C2087 C2092 1.490 . S
C2088 H2078 0.930 . S
C2088 C2087 1.400 . S
C2088 C2091 1.386 1_556 S
H2089 C2105 0.930 1_545 S
H2090 C2106 0.931 . S
C2091 H2079 0.929 . S
C2091 C2085 1.390 1_554 S
C2091 C2088 1.386 1_554 S
C2092 C2087 1.490 . S
C2092 C2094 1.395 . S
C2092 C2095 1.403 . S
H2093 C2099 0.930 . S
C2094 H2080 0.930 . S
C2094 C2092 1.395 . S
C2094 C2097 1.403 . S
C2095 C2092 1.403 . S
C2095 C2096 1.524 . S
C2095 C2099 1.400 . S
C2096 H2081 0.960 . S
C2096 H2082 0.960 . S
C2096 H2083 0.960 . S
C2096 C2095 1.524 . S
C2097 C2094 1.403 . S
C2097 C2098 1.392 . S
C2097 C2101 1.495 . S
C2098 C2097 1.392 . S
C2098 C2099 1.385 . S
C2098 C2100 1.478 . S
C2099 H2093 0.930 . S
C2099 C2095 1.400 . S
C2099 C2098 1.385 . S
C2100 C2098 1.478 . S
C2100 C2102 1.381 . S
C2100 C2106 1.383 . S
C2101 C2097 1.495 . S
C2101 H2107 0.959 1_455 S
C2101 H2108 0.961 . S
C2101 H2109 0.960 . S
C2102 C2100 1.381 . S
C2102 C2103 1.394 . S
C2102 H2110 0.930 . S
C2103 C2102 1.394 . S
C2103 C2104 1.383 . S
C2103 H2111 0.929 . S
C2104 C2103 1.383 . S
C2104 C2105 1.377 . S
C2105 H2089 0.930 1_565 S
C2105 C2104 1.377 . S
C2105 C2106 1.379 . S
C2106 H2090 0.931 . S
C2106 C2100 1.383 . S
C2106 C2105 1.379 . S
H2107 C2101 0.959 1_655 S
H2108 C2101 0.961 . S
H2109 C2101 0.960 . S
H2110 C2102 0.930 . S
H2111 C2103 0.929 . S
H2112 C2120 0.929 . S
H2113 C2122 0.930 . S
H2114 C2124 0.930 . S
H2115 C2127 0.929 . S
H2116 C2130 0.930 . S
H2117 C2132 0.960 . S
H2118 C2132 0.960 . S
H2119 C2132 0.960 . S
C2120 H2112 0.929 . S
C2120 C2121 1.377 . S
C2120 C2122 1.384 . S
C2121 C2120 1.377 . S
C2121 C2127 1.390 . S
C2122 H2113 0.930 . S
C2122 C2120 1.384 . S
C2122 C2123 1.372 . S
C2123 C2122 1.372 . S
C2123 C2124 1.400 . S
C2123 C2128 1.490 . S
C2124 H2114 0.930 . S
C2124 C2123 1.400 . S
C2124 C2127 1.386 . S
H2125 C2141 0.930 . S
H2126 C2142 0.931 . S
C2127 H2115 0.929 . S
C2127 C2121 1.390 . S
C2127 C2124 1.386 . S
C2128 C2123 1.490 . S
C2128 C2130 1.395 . S
C2128 C2131 1.403 . S
H2129 C2135 0.930 . S
C2130 H2116 0.930 . S
C2130 C2128 1.395 . S
C2130 C2133 1.403 . S
C2131 C2128 1.403 . S
C2131 C2132 1.524 . S
C2131 C2135 1.400 . S
C2132 H2117 0.960 . S
C2132 H2118 0.960 . S
C2132 H2119 0.960 . S
C2132 C2131 1.524 . S
C2133 C2130 1.403 . S
C2133 C2134 1.392 . S
C2133 C2137 1.495 . S
C2134 C2133 1.392 . S
C2134 C2135 1.385 . S
C2134 C2136 1.478 . S
C2135 H2129 0.930 . S
C2135 C2131 1.400 . S
C2135 C2134 1.385 . S
C2136 C2134 1.478 . S
C2136 C2138 1.381 . S
C2136 C2142 1.383 . S
C2137 C2133 1.495 . S
C2137 H2143 0.959 . S
C2137 H2144 0.961 . S
C2137 H2145 0.960 . S
C2138 C2136 1.381 . S
C2138 C2139 1.394 . S
C2138 H2146 0.930 . S
C2139 C2138 1.394 . S
C2139 C2140 1.383 . S
C2139 H2147 0.929 . S
C2140 C2139 1.383 . S
C2140 C2141 1.377 . S
C2141 H2125 0.930 . S
C2141 C2140 1.377 . S
C2141 C2142 1.379 . S
C2142 H2126 0.931 . S
C2142 C2136 1.383 . S
C2142 C2141 1.379 . S
H2143 C2137 0.959 . S
H2144 C2137 0.961 . S
H2145 C2137 0.960 . S
H2146 C2138 0.930 . S
H2147 C2139 0.929 . S
H2148 C2156 0.929 . S
H2149 C2158 0.930 . S
H2150 C2160 0.930 . S
H2151 C2163 0.929 . S
H2152 C2166 0.930 . S
H2153 C2168 0.960 . S
H2154 C2168 0.960 . S
H2155 C2168 0.960 . S
C2156 H2148 0.929 . S
C2156 C2157 1.377 . S
C2156 C2158 1.384 . S
C2157 C2156 1.377 . S
C2157 C2163 1.390 . S
C2158 H2149 0.930 . S
C2158 C2156 1.384 . S
C2158 C2159 1.372 . S
C2159 C2158 1.372 . S
C2159 C2160 1.400 . S
C2159 C2164 1.490 . S
C2160 H2150 0.930 . S
C2160 C2159 1.400 . S
C2160 C2163 1.386 . S
H2161 C2177 0.930 . S
H2162 C2178 0.931 . S
C2163 H2151 0.929 . S
C2163 C2157 1.390 . S
C2163 C2160 1.386 . S
C2164 C2159 1.490 . S
C2164 C2166 1.395 . S
C2164 C2167 1.403 . S
H2165 C2171 0.930 . S
C2166 H2152 0.930 . S
C2166 C2164 1.395 . S
C2166 C2169 1.403 . S
C2167 C2164 1.403 . S
C2167 C2168 1.524 . S
C2167 C2171 1.400 . S
C2168 H2153 0.960 . S
C2168 H2154 0.960 . S
C2168 H2155 0.960 . S
C2168 C2167 1.524 . S
C2169 C2166 1.403 . S
C2169 C2170 1.392 . S
C2169 C2173 1.495 . S
C2170 C2169 1.392 . S
C2170 C2171 1.385 . S
C2170 C2172 1.478 . S
C2171 H2165 0.930 . S
C2171 C2167 1.400 . S
C2171 C2170 1.385 . S
C2172 C2170 1.478 . S
C2172 C2174 1.381 . S
C2172 C2178 1.383 . S
C2173 C2169 1.495 . S
C2173 H2179 0.959 . S
C2173 H2180 0.961 . S
C2173 H2181 0.960 . S
C2174 C2172 1.381 . S
C2174 C2175 1.394 . S
C2174 H2182 0.930 . S
C2175 C2174 1.394 . S
C2175 C2176 1.383 . S
C2175 H2183 0.929 . S
C2176 C2175 1.383 . S
C2176 C2177 1.377 . S
C2177 H2161 0.930 . S
C2177 C2176 1.377 . S
C2177 C2178 1.379 . S
C2178 H2162 0.931 . S
C2178 C2172 1.383 . S
C2178 C2177 1.379 . S
H2179 C2173 0.959 . S
H2180 C2173 0.961 . S
H2181 C2173 0.960 . S
H2182 C2174 0.930 . S
H2183 C2175 0.929 . S
H2184 C2192 0.929 1_655 S
H2185 C2194 0.930 . S
H2186 C2196 0.930 . S
H2187 C2199 0.929 . S
H2188 C2202 0.930 . S
H2189 C2204 0.960 . S
H2190 C2204 0.960 . S
H2191 C2204 0.960 . S
C2192 H2184 0.929 1_455 S
C2192 C2193 1.377 . S
C2192 C2194 1.384 . S
C2193 C2192 1.377 . S
C2193 C2199 1.390 . S
C2194 H2185 0.930 . S
C2194 C2192 1.384 . S
C2194 C2195 1.372 . S
C2195 C2194 1.372 . S
C2195 C2196 1.400 . S
C2195 C2200 1.490 . S
C2196 H2186 0.930 . S
C2196 C2195 1.400 . S
C2196 C2199 1.386 . S
H2197 C2213 0.930 . S
H2198 C2214 0.931 . S
C2199 H2187 0.929 . S
C2199 C2193 1.390 . S
C2199 C2196 1.386 . S
C2200 C2195 1.490 . S
C2200 C2202 1.395 . S
C2200 C2203 1.403 . S
H2201 C2207 0.930 . S
C2202 H2188 0.930 . S
C2202 C2200 1.395 . S
C2202 C2205 1.403 . S
C2203 C2200 1.403 . S
C2203 C2204 1.524 . S
C2203 C2207 1.400 . S
C2204 H2189 0.960 . S
C2204 H2190 0.960 . S
C2204 H2191 0.960 . S
C2204 C2203 1.524 . S
C2205 C2202 1.403 . S
C2205 C2206 1.392 . S
C2205 C2209 1.495 . S
C2206 C2205 1.392 . S
C2206 C2207 1.385 . S
C2206 C2208 1.478 . S
C2207 H2201 0.930 . S
C2207 C2203 1.400 . S
C2207 C2206 1.385 . S
C2208 C2206 1.478 . S
C2208 C2210 1.381 . S
C2208 C2214 1.383 . S
C2209 C2205 1.495 . S
C2209 H2215 0.959 1_554 S
C2209 H2216 0.961 . S
C2209 H2217 0.960 . S
C2210 C2208 1.381 . S
C2210 C2211 1.394 . S
C2210 H2218 0.930 . S
C2211 C2210 1.394 . S
C2211 C2212 1.383 . S
C2211 H2219 0.929 . S
C2212 C2211 1.383 . S
C2212 C2213 1.377 . S
C2213 H2197 0.930 . S
C2213 C2212 1.377 . S
C2213 C2214 1.379 . S
C2214 H2198 0.931 . S
C2214 C2208 1.383 . S
C2214 C2213 1.379 . S
H2215 C2209 0.959 1_556 S
H2216 C2209 0.961 . S
H2217 C2209 0.960 . S
H2218 C2210 0.930 . S
H2219 C2211 0.929 . S
H2220 C2228 0.929 . S
H2221 C2230 0.930 . S
H2222 C2232 0.930 . S
H2223 C2235 0.929 . S
H2224 C2238 0.930 . S
H2225 C2240 0.960 . S
H2226 C2240 0.960 . S
H2227 C2240 0.960 . S
C2228 H2220 0.929 . S
C2228 C2229 1.377 . S
C2228 C2230 1.384 . S
C2229 C2228 1.377 . S
C2229 C2235 1.390 . S
C2230 H2221 0.930 . S
C2230 C2228 1.384 . S
C2230 C2231 1.372 . S
C2231 C2230 1.372 . S
C2231 C2232 1.400 . S
C2231 C2236 1.490 . S
C2232 H2222 0.930 . S
C2232 C2231 1.400 . S
C2232 C2235 1.386 . S
H2233 C2249 0.930 . S
H2234 C2250 0.931 . S
C2235 H2223 0.929 . S
C2235 C2229 1.390 . S
C2235 C2232 1.386 . S
C2236 C2231 1.490 . S
C2236 C2238 1.395 . S
C2236 C2239 1.403 . S
H2237 C2243 0.930 . S
C2238 H2224 0.930 . S
C2238 C2236 1.395 . S
C2238 C2241 1.403 . S
C2239 C2236 1.403 . S
C2239 C2240 1.524 . S
C2239 C2243 1.400 . S
C2240 H2225 0.960 . S
C2240 H2226 0.960 . S
C2240 H2227 0.960 . S
C2240 C2239 1.524 . S
C2241 C2238 1.403 . S
C2241 C2242 1.392 . S
C2241 C2245 1.495 . S
C2242 C2241 1.392 . S
C2242 C2243 1.385 . S
C2242 C2244 1.478 . S
C2243 H2237 0.930 . S
C2243 C2239 1.400 . S
C2243 C2242 1.385 . S
C2244 C2242 1.478 . S
C2244 C2246 1.381 . S
C2244 C2250 1.383 . S
C2245 C2241 1.495 . S
C2245 H2251 0.959 . S
C2245 H2252 0.961 . S
C2245 H2253 0.960 . S
C2246 C2244 1.381 . S
C2246 C2247 1.394 . S
C2246 H2254 0.930 . S
C2247 C2246 1.394 . S
C2247 C2248 1.383 . S
C2247 H2255 0.929 . S
C2248 C2247 1.383 . S
C2248 C2249 1.377 . S
C2249 H2233 0.930 . S
C2249 C2248 1.377 . S
C2249 C2250 1.379 . S
C2250 H2234 0.931 . S
C2250 C2244 1.383 . S
C2250 C2249 1.379 . S
H2251 C2245 0.959 . S
H2252 C2245 0.961 . S
H2253 C2245 0.960 . S
H2254 C2246 0.930 . S
H2255 C2247 0.929 . S
H2256 C2264 0.929 1_545 S
H2257 C2266 0.930 . S
H2258 C2268 0.930 . S
H2259 C2271 0.929 . S
H2260 C2274 0.930 . S
H2261 C2276 0.960 . S
H2262 C2276 0.960 . S
H2263 C2276 0.960 . S
C2264 H2256 0.929 1_565 S
C2264 C2265 1.377 . S
C2264 C2266 1.384 . S
C2265 C2264 1.377 . S
C2265 C2271 1.390 . S
C2266 H2257 0.930 . S
C2266 C2264 1.384 . S
C2266 C2267 1.372 . S
C2267 C2266 1.372 . S
C2267 C2268 1.400 . S
C2267 C2272 1.490 . S
C2268 H2258 0.930 . S
C2268 C2267 1.400 . S
C2268 C2271 1.386 . S
H2269 C2285 0.930 . S
H2270 C2286 0.931 . S
C2271 H2259 0.929 . S
C2271 C2265 1.390 . S
C2271 C2268 1.386 . S
C2272 C2267 1.490 . S
C2272 C2274 1.395 . S
C2272 C2275 1.403 . S
H2273 C2279 0.930 . S
C2274 H2260 0.930 . S
C2274 C2272 1.395 . S
C2274 C2277 1.403 . S
C2275 C2272 1.403 . S
C2275 C2276 1.524 . S
C2275 C2279 1.400 . S
C2276 H2261 0.960 . S
C2276 H2262 0.960 . S
C2276 H2263 0.960 . S
C2276 C2275 1.524 . S
C2277 C2274 1.403 . S
C2277 C2278 1.392 . S
C2277 C2281 1.495 . S
C2278 C2277 1.392 . S
C2278 C2279 1.385 . S
C2278 C2280 1.478 . S
C2279 H2273 0.930 . S
C2279 C2275 1.400 . S
C2279 C2278 1.385 . S
C2280 C2278 1.478 . S
C2280 C2282 1.381 . S
C2280 C2286 1.383 . S
C2281 C2277 1.495 . S
C2281 H2287 0.959 . S
C2281 H2288 0.961 . S
C2281 H2289 0.960 . S
C2282 C2280 1.381 . S
C2282 C2283 1.394 . S
C2282 H2290 0.930 . S
C2283 C2282 1.394 . S
C2283 C2284 1.383 . S
C2283 H2291 0.929 . S
C2284 C2283 1.383 . S
C2284 C2285 1.377 . S
C2285 H2269 0.930 . S
C2285 C2284 1.377 . S
C2285 C2286 1.379 . S
C2286 H2270 0.931 . S
C2286 C2280 1.383 . S
C2286 C2285 1.379 . S
H2287 C2281 0.959 . S
H2288 C2281 0.961 . S
H2289 C2281 0.960 . S
H2290 C2282 0.930 . S
H2291 C2283 0.929 . S
H2292 C2300 0.929 . S
H2293 C2302 0.930 . S
H2294 C2304 0.930 . S
H2295 C2307 0.929 . S
H2296 C2310 0.930 . S
H2297 C2312 0.960 . S
H2298 C2312 0.960 . S
H2299 C2312 0.960 . S
C2300 H2292 0.929 . S
C2300 C2301 1.377 . S
C2300 C2302 1.384 . S
C2301 C2300 1.377 . S
C2301 C2307 1.390 . S
C2302 H2293 0.930 . S
C2302 C2300 1.384 . S
C2302 C2303 1.372 . S
C2303 C2302 1.372 . S
C2303 C2304 1.400 . S
C2303 C2308 1.490 . S
C2304 H2294 0.930 . S
C2304 C2303 1.400 . S
C2304 C2307 1.386 . S
H2305 C2321 0.930 . S
H2306 C2322 0.931 . S
C2307 H2295 0.929 . S
C2307 C2301 1.390 . S
C2307 C2304 1.386 . S
C2308 C2303 1.490 . S
C2308 C2310 1.395 . S
C2308 C2311 1.403 . S
H2309 C2315 0.930 . S
C2310 H2296 0.930 . S
C2310 C2308 1.395 . S
C2310 C2313 1.403 . S
C2311 C2308 1.403 . S
C2311 C2312 1.524 . S
C2311 C2315 1.400 . S
C2312 H2297 0.960 . S
C2312 H2298 0.960 . S
C2312 H2299 0.960 . S
C2312 C2311 1.524 . S
C2313 C2310 1.403 . S
C2313 C2314 1.392 . S
C2313 C2317 1.495 . S
C2314 C2313 1.392 . S
C2314 C2315 1.385 . S
C2314 C2316 1.478 . S
C2315 H2309 0.930 . S
C2315 C2311 1.400 . S
C2315 C2314 1.385 . S
C2316 C2314 1.478 . S
C2316 C2318 1.381 . S
C2316 C2322 1.383 . S
C2317 C2313 1.495 . S
C2317 H2323 0.959 . S
C2317 H2324 0.961 . S
C2317 H2325 0.960 . S
C2318 C2316 1.381 . S
C2318 C2319 1.394 . S
C2318 H2326 0.930 . S
C2319 C2318 1.394 . S
C2319 C2320 1.383 . S
C2319 H2327 0.929 . S
C2320 C2319 1.383 . S
C2320 C2321 1.377 . S
C2321 H2305 0.930 . S
C2321 C2320 1.377 . S
C2321 C2322 1.379 . S
C2322 H2306 0.931 . S
C2322 C2316 1.383 . S
C2322 C2321 1.379 . S
H2323 C2317 0.959 . S
H2324 C2317 0.961 . S
H2325 C2317 0.960 . S
H2326 C2318 0.930 . S
H2327 C2319 0.929 . S
H2328 C2336 0.929 . S
H2329 C2338 0.930 . S
H2330 C2340 0.930 . S
H2331 C2343 0.929 . S
H2332 C2346 0.930 . S
H2333 C2348 0.960 . S
H2334 C2348 0.960 . S
H2335 C2348 0.960 . S
C2336 H2328 0.929 . S
C2336 C2337 1.377 . S
C2336 C2338 1.384 . S
C2337 C2336 1.377 . S
C2337 C2343 1.390 . S
C2338 H2329 0.930 . S
C2338 C2336 1.384 . S
C2338 C2339 1.372 . S
C2339 C2338 1.372 . S
C2339 C2340 1.400 . S
C2339 C2344 1.490 . S
C2340 H2330 0.930 . S
C2340 C2339 1.400 . S
C2340 C2343 1.386 . S
H2341 C2357 0.930 . S
H2342 C2358 0.931 . S
C2343 H2331 0.929 . S
C2343 C2337 1.390 . S
C2343 C2340 1.386 . S
C2344 C2339 1.490 . S
C2344 C2346 1.395 . S
C2344 C2347 1.403 . S
H2345 C2351 0.930 . S
C2346 H2332 0.930 . S
C2346 C2344 1.395 . S
C2346 C2349 1.403 . S
C2347 C2344 1.403 . S
C2347 C2348 1.524 . S
C2347 C2351 1.400 . S
C2348 H2333 0.960 . S
C2348 H2334 0.960 . S
C2348 H2335 0.960 . S
C2348 C2347 1.524 . S
C2349 C2346 1.403 . S
C2349 C2350 1.392 . S
C2349 C2353 1.495 . S
C2350 C2349 1.392 . S
C2350 C2351 1.385 . S
C2350 C2352 1.478 . S
C2351 H2345 0.930 . S
C2351 C2347 1.400 . S
C2351 C2350 1.385 . S
C2352 C2350 1.478 . S
C2352 C2354 1.381 . S
C2352 C2358 1.383 . S
C2353 C2349 1.495 . S
C2353 H2359 0.959 . S
C2353 H2360 0.961 . S
C2353 H2361 0.960 . S
C2354 C2352 1.381 . S
C2354 C2355 1.394 . S
C2354 H2362 0.930 . S
C2355 C2354 1.394 . S
C2355 C2356 1.383 . S
C2355 H2363 0.929 . S
C2356 C2355 1.383 . S
C2356 C2357 1.377 . S
C2357 H2341 0.930 . S
C2357 C2356 1.377 . S
C2357 C2358 1.379 . S
C2358 H2342 0.931 . S
C2358 C2352 1.383 . S
C2358 C2357 1.379 . S
H2359 C2353 0.959 . S
H2360 C2353 0.961 . S
H2361 C2353 0.960 . S
H2362 C2354 0.930 . S
H2363 C2355 0.929 . S
H2364 C2372 0.929 . S
H2365 C2374 0.930 . S
H2366 C2376 0.930 . S
H2367 C2379 0.929 . S
H2368 C2382 0.930 . S
H2369 C2384 0.960 . S
H2370 C2384 0.960 . S
H2371 C2384 0.960 . S
C2372 H2364 0.929 . S
C2372 C2373 1.377 . S
C2372 C2374 1.384 . S
C2373 C2372 1.377 . S
C2373 C2379 1.390 . S
C2374 H2365 0.930 . S
C2374 C2372 1.384 . S
C2374 C2375 1.372 . S
C2375 C2374 1.372 . S
C2375 C2376 1.400 . S
C2375 C2380 1.490 . S
C2376 H2366 0.930 . S
C2376 C2375 1.400 . S
C2376 C2379 1.386 . S
H2377 C2393 0.930 . S
H2378 C2394 0.931 . S
C2379 H2367 0.929 . S
C2379 C2373 1.390 . S
C2379 C2376 1.386 . S
C2380 C2375 1.490 . S
C2380 C2382 1.395 . S
C2380 C2383 1.403 . S
H2381 C2387 0.930 . S
C2382 H2368 0.930 . S
C2382 C2380 1.395 . S
C2382 C2385 1.403 . S
C2383 C2380 1.403 . S
C2383 C2384 1.524 . S
C2383 C2387 1.400 . S
C2384 H2369 0.960 . S
C2384 H2370 0.960 . S
C2384 H2371 0.960 . S
C2384 C2383 1.524 . S
C2385 C2382 1.403 . S
C2385 C2386 1.392 . S
C2385 C2389 1.495 . S
C2386 C2385 1.392 . S
C2386 C2387 1.385 . S
C2386 C2388 1.478 . S
C2387 H2381 0.930 . S
C2387 C2383 1.400 . S
C2387 C2386 1.385 . S
C2388 C2386 1.478 . S
C2388 C2390 1.381 . S
C2388 C2394 1.383 . S
C2389 C2385 1.495 . S
C2389 H2395 0.959 . S
C2389 H2396 0.961 . S
C2389 H2397 0.960 . S
C2390 C2388 1.381 . S
C2390 C2391 1.394 . S
C2390 H2398 0.930 . S
C2391 C2390 1.394 . S
C2391 C2392 1.383 . S
C2391 H2399 0.929 . S
C2392 C2391 1.383 . S
C2392 C2393 1.377 . S
C2393 H2377 0.930 . S
C2393 C2392 1.377 . S
C2393 C2394 1.379 . S
C2394 H2378 0.931 . S
C2394 C2388 1.383 . S
C2394 C2393 1.379 . S
H2395 C2389 0.959 . S
H2396 C2389 0.961 . S
H2397 C2389 0.960 . S
H2398 C2390 0.930 . S
H2399 C2391 0.929 . S
H2400 C2408 0.929 . S
H2401 C2410 0.930 . S
H2402 C2412 0.930 . S
H2403 C2415 0.929 . S
H2404 C2418 0.930 . S
H2405 C2420 0.960 . S
H2406 C2420 0.960 . S
H2407 C2420 0.960 . S
C2408 H2400 0.929 . S
C2408 C2409 1.377 . S
C2408 C2410 1.384 . S
C2409 C2408 1.377 . S
C2409 C2415 1.390 . S
C2410 H2401 0.930 . S
C2410 C2408 1.384 . S
C2410 C2411 1.372 . S
C2411 C2410 1.372 . S
C2411 C2412 1.400 . S
C2411 C2416 1.490 . S
C2412 H2402 0.930 . S
C2412 C2411 1.400 . S
C2412 C2415 1.386 . S
H2413 C2429 0.930 . S
H2414 C2430 0.931 . S
C2415 H2403 0.929 . S
C2415 C2409 1.390 . S
C2415 C2412 1.386 . S
C2416 C2411 1.490 . S
C2416 C2418 1.395 . S
C2416 C2419 1.403 . S
H2417 C2423 0.930 . S
C2418 H2404 0.930 . S
C2418 C2416 1.395 . S
C2418 C2421 1.403 . S
C2419 C2416 1.403 . S
C2419 C2420 1.524 . S
C2419 C2423 1.400 . S
C2420 H2405 0.960 . S
C2420 H2406 0.960 . S
C2420 H2407 0.960 . S
C2420 C2419 1.524 . S
C2421 C2418 1.403 . S
C2421 C2422 1.392 . S
C2421 C2425 1.495 . S
C2422 C2421 1.392 . S
C2422 C2423 1.385 . S
C2422 C2424 1.478 . S
C2423 H2417 0.930 . S
C2423 C2419 1.400 . S
C2423 C2422 1.385 . S
C2424 C2422 1.478 . S
C2424 C2426 1.381 . S
C2424 C2430 1.383 . S
C2425 C2421 1.495 . S
C2425 H2431 0.959 . S
C2425 H2432 0.961 . S
C2425 H2433 0.960 . S
C2426 C2424 1.381 . S
C2426 C2427 1.394 . S
C2426 H2434 0.930 . S
C2427 C2426 1.394 . S
C2427 C2428 1.383 . S
C2427 H2435 0.929 . S
C2428 C2427 1.383 . S
C2428 C2429 1.377 . S
C2429 H2413 0.930 . S
C2429 C2428 1.377 . S
C2429 C2430 1.379 . S
C2430 H2414 0.931 . S
C2430 C2424 1.383 . S
C2430 C2429 1.379 . S
H2431 C2425 0.959 . S
H2432 C2425 0.961 . S
H2433 C2425 0.960 . S
H2434 C2426 0.930 . S
H2435 C2427 0.929 . S
H2436 C2444 0.929 . S
H2437 C2446 0.930 . S
H2438 C2448 0.930 . S
H2439 C2451 0.929 . S
H2440 C2454 0.930 . S
H2441 C2456 0.960 . S
H2442 C2456 0.960 . S
H2443 C2456 0.960 . S
C2444 H2436 0.929 . S
C2444 C2445 1.377 . S
C2444 C2446 1.384 . S
C2445 C2444 1.377 . S
C2445 C2451 1.390 . S
C2446 H2437 0.930 . S
C2446 C2444 1.384 . S
C2446 C2447 1.372 . S
C2447 C2446 1.372 . S
C2447 C2448 1.400 . S
C2447 C2452 1.490 . S
C2448 H2438 0.930 . S
C2448 C2447 1.400 . S
C2448 C2451 1.386 . S
H2449 C2465 0.930 1_556 S
H2450 C2466 0.931 . S
C2451 H2439 0.929 . S
C2451 C2445 1.390 . S
C2451 C2448 1.386 . S
C2452 C2447 1.490 . S
C2452 C2454 1.395 . S
C2452 C2455 1.403 . S
H2453 C2459 0.930 . S
C2454 H2440 0.930 . S
C2454 C2452 1.395 . S
C2454 C2457 1.403 . S
C2455 C2452 1.403 . S
C2455 C2456 1.524 . S
C2455 C2459 1.400 . S
C2456 H2441 0.960 . S
C2456 H2442 0.960 . S
C2456 H2443 0.960 . S
C2456 C2455 1.524 . S
C2457 C2454 1.403 . S
C2457 C2458 1.392 . S
C2457 C2461 1.495 . S
C2458 C2457 1.392 . S
C2458 C2459 1.385 . S
C2458 C2460 1.478 . S
C2459 H2453 0.930 . S
C2459 C2455 1.400 . S
C2459 C2458 1.385 . S
C2460 C2458 1.478 . S
C2460 C2462 1.381 . S
C2460 C2466 1.383 . S
C2461 C2457 1.495 . S
C2461 H2467 0.959 . S
C2461 H2468 0.961 . S
C2461 H2469 0.960 . S
C2462 C2460 1.381 . S
C2462 C2463 1.394 . S
C2462 H2470 0.930 . S
C2463 C2462 1.394 . S
C2463 C2464 1.383 . S
C2463 H2471 0.929 . S
C2464 C2463 1.383 . S
C2464 C2465 1.377 . S
C2465 H2449 0.930 1_554 S
C2465 C2464 1.377 . S
C2465 C2466 1.379 . S
C2466 H2450 0.931 . S
C2466 C2460 1.383 . S
C2466 C2465 1.379 . S
H2467 C2461 0.959 . S
H2468 C2461 0.961 . S
H2469 C2461 0.960 . S
H2470 C2462 0.930 . S
H2471 C2463 0.929 . S
H2472 C2480 0.929 . S
H2473 C2482 0.930 . S
H2474 C2484 0.930 . S
H2475 C2487 0.929 . S
H2476 C2490 0.930 . S
H2477 C2492 0.960 . S
H2478 C2492 0.960 . S
H2479 C2492 0.960 . S
C2480 H2472 0.929 . S
C2480 C2481 1.377 . S
C2480 C2482 1.384 . S
C2481 C2480 1.377 . S
C2481 C2487 1.390 . S
C2482 H2473 0.930 . S
C2482 C2480 1.384 . S
C2482 C2483 1.372 . S
C2483 C2482 1.372 . S
C2483 C2484 1.400 . S
C2483 C2488 1.490 . S
C2484 H2474 0.930 . S
C2484 C2483 1.400 . S
C2484 C2487 1.386 . S
H2485 C2501 0.930 . S
H2486 C2502 0.931 . S
C2487 H2475 0.929 . S
C2487 C2481 1.390 . S
C2487 C2484 1.386 . S
C2488 C2483 1.490 . S
C2488 C2490 1.395 . S
C2488 C2491 1.403 . S
H2489 C2495 0.930 . S
C2490 H2476 0.930 . S
C2490 C2488 1.395 . S
C2490 C2493 1.403 . S
C2491 C2488 1.403 . S
C2491 C2492 1.524 . S
C2491 C2495 1.400 . S
C2492 H2477 0.960 . S
C2492 H2478 0.960 . S
C2492 H2479 0.960 . S
C2492 C2491 1.524 . S
C2493 C2490 1.403 . S
C2493 C2494 1.392 . S
C2493 C2497 1.495 . S
C2494 C2493 1.392 . S
C2494 C2495 1.385 . S
C2494 C2496 1.478 . S
C2495 H2489 0.930 . S
C2495 C2491 1.400 . S
C2495 C2494 1.385 . S
C2496 C2494 1.478 . S
C2496 C2498 1.381 . S
C2496 C2502 1.383 . S
C2497 C2493 1.495 . S
C2497 H2503 0.959 . S
C2497 H2504 0.961 . S
C2497 H2505 0.960 . S
C2498 C2496 1.381 . S
C2498 C2499 1.394 . S
C2498 H2506 0.930 . S
C2499 C2498 1.394 . S
C2499 C2500 1.383 . S
C2499 H2507 0.929 . S
C2500 C2499 1.383 . S
C2500 C2501 1.377 . S
C2501 H2485 0.930 . S
C2501 C2500 1.377 . S
C2501 C2502 1.379 . S
C2502 H2486 0.931 . S
C2502 C2496 1.383 . S
C2502 C2501 1.379 . S
H2503 C2497 0.959 . S
H2504 C2497 0.961 . S
H2505 C2497 0.960 . S
H2506 C2498 0.930 . S
H2507 C2499 0.929 . S
H2508 C2516 0.929 . S
H2509 C2518 0.930 . S
H2510 C2520 0.930 . S
H2511 C2523 0.929 1_655 S
H2512 C2526 0.930 . S
H2513 C2528 0.960 . S
H2514 C2528 0.960 . S
H2515 C2528 0.960 . S
C2516 H2508 0.929 . S
C2516 C2517 1.377 . S
C2516 C2518 1.384 . S
C2517 C2516 1.377 . S
C2517 C2523 1.390 . S
C2518 H2509 0.930 . S
C2518 C2516 1.384 . S
C2518 C2519 1.372 . S
C2519 C2518 1.372 . S
C2519 C2520 1.400 . S
C2519 C2524 1.490 . S
C2520 H2510 0.930 . S
C2520 C2519 1.400 . S
C2520 C2523 1.386 . S
H2521 C2537 0.930 . S
H2522 C2538 0.931 . S
C2523 H2511 0.929 1_455 S
C2523 C2517 1.390 . S
C2523 C2520 1.386 . S
C2524 C2519 1.490 . S
C2524 C2526 1.395 . S
C2524 C2527 1.403 . S
H2525 C2531 0.930 . S
C2526 H2512 0.930 . S
C2526 C2524 1.395 . S
C2526 C2529 1.403 . S
C2527 C2524 1.403 . S
C2527 C2528 1.524 . S
C2527 C2531 1.400 . S
C2528 H2513 0.960 . S
C2528 H2514 0.960 . S
C2528 H2515 0.960 . S
C2528 C2527 1.524 . S
C2529 C2526 1.403 . S
C2529 C2530 1.392 . S
C2529 C2533 1.495 . S
C2530 C2529 1.392 . S
C2530 C2531 1.385 . S
C2530 C2532 1.478 . S
C2531 H2525 0.930 . S
C2531 C2527 1.400 . S
C2531 C2530 1.385 . S
C2532 C2530 1.478 . S
C2532 C2534 1.381 . S
C2532 C2538 1.383 . S
C2533 C2529 1.495 . S
C2533 H2539 0.959 . S
C2533 H2540 0.961 . S
C2533 H2541 0.960 . S
C2534 C2532 1.381 . S
C2534 C2535 1.394 . S
C2534 H2542 0.930 . S
C2535 C2534 1.394 . S
C2535 C2536 1.383 . S
C2535 H2543 0.929 . S
C2536 C2535 1.383 . S
C2536 C2537 1.377 . S
C2537 H2521 0.930 . S
C2537 C2536 1.377 . S
C2537 C2538 1.379 . S
C2538 H2522 0.931 . S
C2538 C2532 1.383 . S
C2538 C2537 1.379 . S
H2539 C2533 0.959 . S
H2540 C2533 0.961 . S
H2541 C2533 0.960 . S
H2542 C2534 0.930 . S
H2543 C2535 0.929 . S
H2544 C2552 0.929 . S
H2545 C2554 0.930 . S
H2546 C2556 0.930 . S
H2547 C2559 0.929 . S
H2548 C2562 0.930 . S
H2549 C2564 0.960 . S
H2550 C2564 0.960 . S
H2551 C2564 0.960 . S
C2552 H2544 0.929 . S
C2552 C2553 1.377 . S
C2552 C2554 1.384 . S
C2553 C2552 1.377 . S
C2553 C2559 1.390 . S
C2554 H2545 0.930 . S
C2554 C2552 1.384 . S
C2554 C2555 1.372 . S
C2555 C2554 1.372 . S
C2555 C2556 1.400 . S
C2555 C2560 1.490 . S
C2556 H2546 0.930 . S
C2556 C2555 1.400 . S
C2556 C2559 1.386 . S
H2557 C2573 0.930 . S
H2558 C2574 0.931 . S
C2559 H2547 0.929 . S
C2559 C2553 1.390 . S
C2559 C2556 1.386 . S
C2560 C2555 1.490 . S
C2560 C2562 1.395 . S
C2560 C2563 1.403 . S
H2561 C2567 0.930 . S
C2562 H2548 0.930 . S
C2562 C2560 1.395 . S
C2562 C2565 1.403 . S
C2563 C2560 1.403 . S
C2563 C2564 1.524 . S
C2563 C2567 1.400 . S
C2564 H2549 0.960 . S
C2564 H2550 0.960 . S
C2564 H2551 0.960 . S
C2564 C2563 1.524 . S
C2565 C2562 1.403 . S
C2565 C2566 1.392 . S
C2565 C2569 1.495 . S
C2566 C2565 1.392 . S
C2566 C2567 1.385 . S
C2566 C2568 1.478 . S
C2567 H2561 0.930 . S
C2567 C2563 1.400 . S
C2567 C2566 1.385 . S
C2568 C2566 1.478 . S
C2568 C2570 1.381 . S
C2568 C2574 1.383 . S
C2569 C2565 1.495 . S
C2569 H2575 0.959 . S
C2569 H2576 0.961 . S
C2569 H2577 0.960 . S
C2570 C2568 1.381 . S
C2570 C2571 1.394 . S
C2570 H2578 0.930 . S
C2571 C2570 1.394 . S
C2571 C2572 1.383 . S
C2571 H2579 0.929 . S
C2572 C2571 1.383 . S
C2572 C2573 1.377 . S
C2573 H2557 0.930 . S
C2573 C2572 1.377 . S
C2573 C2574 1.379 . S
C2574 H2558 0.931 . S
C2574 C2568 1.383 . S
C2574 C2573 1.379 . S
H2575 C2569 0.959 . S
H2576 C2569 0.961 . S
H2577 C2569 0.960 . S
H2578 C2570 0.930 . S
H2579 C2571 0.929 . S
H2580 C2588 0.929 . S
H2581 C2590 0.930 . S
H2582 C2592 0.930 . S
H2583 C2595 0.929 . S
H2584 C2598 0.930 . S
H2585 C2600 0.960 . S
H2586 C2600 0.960 . S
H2587 C2600 0.960 . S
C2588 H2580 0.929 . S
C2588 C2589 1.377 . S
C2588 C2590 1.384 . S
C2589 C2588 1.377 . S
C2589 C2595 1.390 . S
C2590 H2581 0.930 . S
C2590 C2588 1.384 . S
C2590 C2591 1.372 . S
C2591 C2590 1.372 . S
C2591 C2592 1.400 . S
C2591 C2596 1.490 . S
C2592 H2582 0.930 . S
C2592 C2591 1.400 . S
C2592 C2595 1.386 . S
H2593 C2609 0.930 1_655 S
H2594 C2610 0.931 . S
C2595 H2583 0.929 . S
C2595 C2589 1.390 . S
C2595 C2592 1.386 . S
C2596 C2591 1.490 . S
C2596 C2598 1.395 . S
C2596 C2599 1.403 . S
H2597 C2603 0.930 . S
C2598 H2584 0.930 . S
C2598 C2596 1.395 . S
C2598 C2601 1.403 . S
C2599 C2596 1.403 . S
C2599 C2600 1.524 . S
C2599 C2603 1.400 . S
C2600 H2585 0.960 . S
C2600 H2586 0.960 . S
C2600 H2587 0.960 . S
C2600 C2599 1.524 . S
C2601 C2598 1.403 . S
C2601 C2602 1.392 . S
C2601 C2605 1.495 . S
C2602 C2601 1.392 . S
C2602 C2603 1.385 . S
C2602 C2604 1.478 . S
C2603 H2597 0.930 . S
C2603 C2599 1.400 . S
C2603 C2602 1.385 . S
C2604 C2602 1.478 . S
C2604 C2606 1.381 . S
C2604 C2610 1.383 . S
C2605 C2601 1.495 . S
C2605 H2611 0.959 . S
C2605 H2612 0.961 . S
C2605 H2613 0.960 . S
C2606 C2604 1.381 . S
C2606 C2607 1.394 . S
C2606 H2614 0.930 . S
C2607 C2606 1.394 . S
C2607 C2608 1.418 . S
C2607 H2615 0.929 . S
C2608 C2607 1.418 . S
C2608 C2609 1.384 . S
C2609 H2593 0.930 1_455 S
C2609 C2608 1.384 . S
C2609 C2610 1.379 . S
C2610 H2594 0.931 . S
C2610 C2604 1.383 . S
C2610 C2609 1.379 . S
H2611 C2605 0.959 . S
H2612 C2605 0.961 . S
H2613 C2605 0.960 . S
H2614 C2606 0.930 . S
H2615 C2607 0.929 . S
H2616 C2624 0.929 . S
H2617 C2626 0.930 . S
H2618 C2628 0.930 . S
H2619 C2631 0.929 . S
H2620 C2634 0.930 . S
H2621 C2636 0.960 . S
H2622 C2636 0.960 . S
H2623 C2636 0.960 . S
C2624 H2616 0.929 . S
C2624 C2625 1.377 . S
C2624 C2626 1.384 . S
C2625 C2624 1.377 . S
C2625 C2631 1.390 . S
C2626 H2617 0.930 . S
C2626 C2624 1.384 . S
C2626 C2627 1.372 . S
C2627 C2626 1.372 . S
C2627 C2628 1.400 . S
C2627 C2632 1.490 . S
C2628 H2618 0.930 . S
C2628 C2627 1.400 . S
C2628 C2631 1.386 . S
H2629 C2645 0.930 . S
H2630 C2646 0.931 . S
C2631 H2619 0.929 . S
C2631 C2625 1.390 . S
C2631 C2628 1.386 . S
C2632 C2627 1.490 . S
C2632 C2634 1.395 . S
C2632 C2635 1.403 . S
H2633 C2639 0.930 . S
C2634 H2620 0.930 . S
C2634 C2632 1.395 . S
C2634 C2637 1.403 . S
C2635 C2632 1.403 . S
C2635 C2636 1.524 . S
C2635 C2639 1.400 . S
C2636 H2621 0.960 . S
C2636 H2622 0.960 . S
C2636 H2623 0.960 . S
C2636 C2635 1.524 . S
C2637 C2634 1.403 . S
C2637 C2638 1.392 . S
C2637 C2641 1.495 . S
C2638 C2637 1.392 . S
C2638 C2639 1.385 . S
C2638 C2640 1.478 . S
C2639 H2633 0.930 . S
C2639 C2635 1.400 . S
C2639 C2638 1.385 . S
C2640 C2638 1.478 . S
C2640 C2642 1.381 . S
C2640 C2646 1.383 . S
C2641 C2637 1.495 . S
C2641 H2647 0.959 . S
C2641 H2648 0.961 . S
C2641 H2649 0.960 . S
C2642 C2640 1.381 . S
C2642 C2643 1.394 . S
C2642 H2650 0.930 . S
C2643 C2642 1.394 . S
C2643 C2644 1.383 . S
C2643 H2651 0.929 . S
C2644 C2643 1.383 . S
C2644 C2645 1.377 . S
C2645 H2629 0.930 . S
C2645 C2644 1.377 . S
C2645 C2646 1.379 . S
C2646 H2630 0.931 . S
C2646 C2640 1.383 . S
C2646 C2645 1.379 . S
H2647 C2641 0.959 . S
H2648 C2641 0.961 . S
H2649 C2641 0.960 . S
H2650 C2642 0.930 . S
H2651 C2643 0.929 . S
H2652 C2660 0.929 . S
H2653 C2662 0.930 . S
H2654 C2664 0.930 . S
H2655 C2667 0.929 . S
H2656 C2670 0.930 . S
H2657 C2672 0.960 . S
H2658 C2672 0.960 . S
H2659 C2672 0.960 . S
C2660 H2652 0.929 . S
C2660 C2661 1.377 . S
C2660 C2662 1.384 . S
C2661 C2660 1.377 . S
C2661 C2667 1.390 . S
C2662 H2653 0.930 . S
C2662 C2660 1.384 . S
C2662 C2663 1.372 . S
C2663 C2662 1.372 . S
C2663 C2664 1.400 . S
C2663 C2668 1.490 . S
C2664 H2654 0.930 . S
C2664 C2663 1.400 . S
C2664 C2667 1.386 . S
H2665 C2681 0.930 . S
H2666 C2682 0.931 . S
C2667 H2655 0.929 . S
C2667 C2661 1.390 . S
C2667 C2664 1.386 . S
C2668 C2663 1.490 . S
C2668 C2670 1.395 . S
C2668 C2671 1.403 . S
H2669 C2675 0.930 . S
C2670 H2656 0.930 . S
C2670 C2668 1.395 . S
C2670 C2673 1.403 . S
C2671 C2668 1.403 . S
C2671 C2672 1.524 . S
C2671 C2675 1.400 . S
C2672 H2657 0.960 . S
C2672 H2658 0.960 . S
C2672 H2659 0.960 . S
C2672 C2671 1.524 . S
C2673 C2670 1.403 . S
C2673 C2674 1.392 . S
C2673 C2677 1.495 . S
C2674 C2673 1.392 . S
C2674 C2675 1.385 . S
C2674 C2676 1.478 . S
C2675 H2669 0.930 . S
C2675 C2671 1.400 . S
C2675 C2674 1.385 . S
C2676 C2674 1.478 . S
C2676 C2678 1.381 . S
C2676 C2682 1.383 . S
C2677 C2673 1.495 . S
C2677 H2683 0.959 . S
C2677 H2684 0.961 . S
C2677 H2685 0.960 . S
C2678 C2676 1.381 . S
C2678 C2679 1.394 . S
C2678 H2686 0.930 . S
C2679 C2678 1.394 . S
C2679 C2680 1.383 . S
C2679 H2687 0.929 . S
C2680 C2679 1.383 . S
C2680 C2681 1.377 . S
C2681 H2665 0.930 . S
C2681 C2680 1.377 . S
C2681 C2682 1.379 . S
C2682 H2666 0.931 . S
C2682 C2676 1.383 . S
C2682 C2681 1.379 . S
H2683 C2677 0.959 . S
H2684 C2677 0.961 . S
H2685 C2677 0.960 . S
H2686 C2678 0.930 . S
H2687 C2679 0.929 . S
H2688 C2696 0.929 . S
H2689 C2698 0.930 . S
H2690 C2700 0.930 . S
H2691 C2703 0.929 . S
H2692 C2706 0.930 . S
H2693 C2708 0.960 . S
H2694 C2708 0.960 . S
H2695 C2708 0.960 . S
C2696 H2688 0.929 . S
C2696 C2697 1.377 . S
C2696 C2698 1.384 . S
C2697 C2696 1.377 . S
C2697 C2703 1.390 . S
C2698 H2689 0.930 . S
C2698 C2696 1.384 . S
C2698 C2699 1.372 . S
C2699 C2698 1.372 . S
C2699 C2700 1.400 . S
C2699 C2704 1.490 . S
C2700 H2690 0.930 . S
C2700 C2699 1.400 . S
C2700 C2703 1.386 . S
H2701 C2717 0.930 . S
H2702 C2718 0.931 . S
C2703 H2691 0.929 . S
C2703 C2697 1.390 . S
C2703 C2700 1.386 . S
C2704 C2699 1.490 . S
C2704 C2706 1.395 . S
C2704 C2707 1.403 . S
H2705 C2711 0.930 . S
C2706 H2692 0.930 . S
C2706 C2704 1.395 . S
C2706 C2709 1.403 . S
C2707 C2704 1.403 . S
C2707 C2708 1.524 . S
C2707 C2711 1.400 . S
C2708 H2693 0.960 . S
C2708 H2694 0.960 . S
C2708 H2695 0.960 . S
C2708 C2707 1.524 . S
C2709 C2706 1.403 . S
C2709 C2710 1.392 . S
C2709 C2713 1.495 . S
C2710 C2709 1.392 . S
C2710 C2711 1.385 . S
C2710 C2712 1.478 . S
C2711 H2705 0.930 . S
C2711 C2707 1.400 . S
C2711 C2710 1.385 . S
C2712 C2710 1.478 . S
C2712 C2714 1.381 . S
C2712 C2718 1.383 . S
C2713 C2709 1.495 . S
C2713 H2719 0.959 . S
C2713 H2720 0.961 . S
C2713 H2721 0.960 . S
C2714 C2712 1.381 . S
C2714 C2715 1.394 . S
C2714 H2722 0.930 . S
C2715 C2714 1.394 . S
C2715 C2716 1.383 . S
C2715 H2723 0.929 . S
C2716 C2715 1.383 . S
C2716 C2717 1.377 . S
C2717 H2701 0.930 . S
C2717 C2716 1.377 . S
C2717 C2718 1.379 . S
C2718 H2702 0.931 . S
C2718 C2712 1.383 . S
C2718 C2717 1.379 . S
H2719 C2713 0.959 . S
H2720 C2713 0.961 . S
H2721 C2713 0.960 . S
H2722 C2714 0.930 . S
H2723 C2715 0.929 . S
H2724 C2732 0.929 . S
H2725 C2734 0.930 . S
H2726 C2736 0.930 . S
H2727 C2739 0.929 . S
H2728 C2742 0.930 . S
H2729 C2744 0.960 . S
H2730 C2744 0.960 . S
H2731 C2744 0.960 . S
C2732 H2724 0.929 . S
C2732 C2733 1.377 . S
C2732 C2734 1.384 . S
C2733 C2732 1.377 . S
C2733 C2739 1.390 . S
C2734 H2725 0.930 . S
C2734 C2732 1.384 . S
C2734 C2735 1.372 . S
C2735 C2734 1.372 . S
C2735 C2736 1.400 . S
C2735 C2740 1.490 . S
C2736 H2726 0.930 . S
C2736 C2735 1.400 . S
C2736 C2739 1.386 . S
H2737 C2753 0.930 1_556 S
H2738 C2754 0.931 . S
C2739 H2727 0.929 . S
C2739 C2733 1.390 . S
C2739 C2736 1.386 . S
C2740 C2735 1.490 . S
C2740 C2742 1.395 . S
C2740 C2743 1.403 . S
H2741 C2747 0.930 . S
C2742 H2728 0.930 . S
C2742 C2740 1.395 . S
C2742 C2745 1.403 . S
C2743 C2740 1.403 . S
C2743 C2744 1.524 . S
C2743 C2747 1.400 . S
C2744 H2729 0.960 . S
C2744 H2730 0.960 . S
C2744 H2731 0.960 . S
C2744 C2743 1.524 . S
C2745 C2742 1.403 . S
C2745 C2746 1.392 . S
C2745 C2749 1.495 . S
C2746 C2745 1.392 . S
C2746 C2747 1.385 . S
C2746 C2748 1.478 . S
C2747 H2741 0.930 . S
C2747 C2743 1.400 . S
C2747 C2746 1.385 . S
C2748 C2746 1.478 . S
C2748 C2750 1.381 . S
C2748 C2754 1.383 . S
C2749 C2745 1.495 . S
C2749 H2755 0.959 . S
C2749 H2756 0.961 . S
C2749 H2757 0.960 . S
C2750 C2748 1.381 . S
C2750 C2751 1.394 . S
C2750 H2758 0.930 . S
C2751 C2750 1.394 . S
C2751 C2752 1.383 . S
C2751 H2759 0.929 . S
C2752 C2751 1.383 . S
C2752 C2753 1.377 . S
C2753 H2737 0.930 1_554 S
C2753 C2752 1.377 . S
C2753 C2754 1.379 . S
C2754 H2738 0.931 . S
C2754 C2748 1.383 . S
C2754 C2753 1.379 . S
H2755 C2749 0.959 . S
H2756 C2749 0.961 . S
H2757 C2749 0.960 . S
H2758 C2750 0.930 . S
H2759 C2751 0.929 . S
H2760 C2768 0.929 . S
H2761 C2770 0.930 . S
H2762 C2772 0.930 . S
H2763 C2775 0.929 . S
H2764 C2778 0.930 . S
H2765 C2780 0.960 . S
H2766 C2780 0.960 . S
H2767 C2780 0.960 . S
C2768 H2760 0.929 . S
C2768 C2769 1.377 . S
C2768 C2770 1.384 . S
C2769 C2768 1.377 . S
C2769 C2775 1.390 . S
C2770 H2761 0.930 . S
C2770 C2768 1.384 . S
C2770 C2771 1.372 . S
C2771 C2770 1.372 . S
C2771 C2772 1.400 . S
C2771 C2776 1.490 . S
C2772 H2762 0.930 . S
C2772 C2771 1.400 . S
C2772 C2775 1.386 . S
H2773 C2789 0.930 . S
H2774 C2790 0.931 . S
C2775 H2763 0.929 . S
C2775 C2769 1.390 . S
C2775 C2772 1.386 . S
C2776 C2771 1.490 . S
C2776 C2778 1.395 . S
C2776 C2779 1.403 . S
H2777 C2783 0.930 . S
C2778 H2764 0.930 . S
C2778 C2776 1.395 . S
C2778 C2781 1.403 . S
C2779 C2776 1.403 . S
C2779 C2780 1.524 . S
C2779 C2783 1.400 . S
C2780 H2765 0.960 . S
C2780 H2766 0.960 . S
C2780 H2767 0.960 . S
C2780 C2779 1.524 . S
C2781 C2778 1.403 . S
C2781 C2782 1.392 . S
C2781 C2785 1.495 . S
C2782 C2781 1.392 . S
C2782 C2783 1.385 . S
C2782 C2784 1.478 . S
C2783 H2777 0.930 . S
C2783 C2779 1.400 . S
C2783 C2782 1.385 . S
C2784 C2782 1.478 . S
C2784 C2786 1.381 . S
C2784 C2790 1.383 . S
C2785 C2781 1.495 . S
C2785 H2791 0.959 . S
C2785 H2792 0.961 . S
C2785 H2793 0.960 . S
C2786 C2784 1.381 . S
C2786 C2787 1.394 . S
C2786 H2794 0.930 . S
C2787 C2786 1.394 . S
C2787 C2788 1.383 . S
C2787 H2795 0.929 . S
C2788 C2787 1.383 . S
C2788 C2789 1.377 . S
C2789 H2773 0.930 . S
C2789 C2788 1.377 . S
C2789 C2790 1.379 . S
C2790 H2774 0.931 . S
C2790 C2784 1.383 . S
C2790 C2789 1.379 . S
H2791 C2785 0.959 . S
H2792 C2785 0.961 . S
H2793 C2785 0.960 . S
H2794 C2786 0.930 . S
H2795 C2787 0.929 . S
H2796 C2804 0.929 . S
H2797 C2806 0.930 . S
H2798 C2808 0.930 . S
H2799 C2811 0.929 . S
H2800 C2814 0.930 . S
H2801 C2816 0.960 . S
H2802 C2816 0.960 . S
H2803 C2816 0.960 . S
C2804 H2796 0.929 . S
C2804 C2805 1.377 . S
C2804 C2806 1.384 . S
C2805 C2804 1.377 . S
C2805 C2811 1.390 . S
C2806 H2797 0.930 . S
C2806 C2804 1.384 . S
C2806 C2807 1.372 . S
C2807 C2806 1.372 . S
C2807 C2808 1.400 . S
C2807 C2812 1.490 . S
C2808 H2798 0.930 . S
C2808 C2807 1.400 . S
C2808 C2811 1.386 . S
H2809 C2825 0.930 . S
H2810 C2826 0.931 . S
C2811 H2799 0.929 . S
C2811 C2805 1.390 . S
C2811 C2808 1.386 . S
C2812 C2807 1.490 . S
C2812 C2814 1.395 . S
C2812 C2815 1.403 . S
H2813 C2819 0.930 . S
C2814 H2800 0.930 . S
C2814 C2812 1.395 . S
C2814 C2817 1.403 . S
C2815 C2812 1.403 . S
C2815 C2816 1.524 . S
C2815 C2819 1.400 . S
C2816 H2801 0.960 . S
C2816 H2802 0.960 . S
C2816 H2803 0.960 . S
C2816 C2815 1.524 . S
C2817 C2814 1.403 . S
C2817 C2818 1.392 . S
C2817 C2821 1.495 . S
C2818 C2817 1.392 . S
C2818 C2819 1.385 . S
C2818 C2820 1.478 . S
C2819 H2813 0.930 . S
C2819 C2815 1.400 . S
C2819 C2818 1.385 . S
C2820 C2818 1.478 . S
C2820 C2822 1.381 . S
C2820 C2826 1.383 . S
C2821 C2817 1.495 . S
C2821 H2827 0.959 . S
C2821 H2828 0.961 . S
C2821 H2829 0.960 . S
C2822 C2820 1.381 . S
C2822 C2823 1.394 . S
C2822 H2830 0.930 . S
C2823 C2822 1.394 . S
C2823 C2824 1.383 . S
C2823 H2831 0.929 . S
C2824 C2823 1.383 . S
C2824 C2825 1.377 . S
C2825 H2809 0.930 . S
C2825 C2824 1.377 . S
C2825 C2826 1.379 . S
C2826 H2810 0.931 . S
C2826 C2820 1.383 . S
C2826 C2825 1.379 . S
H2827 C2821 0.959 . S
H2828 C2821 0.961 . S
H2829 C2821 0.960 . S
H2830 C2822 0.930 . S
H2831 C2823 0.929 . S
H2832 C2840 0.929 . S
H2833 C2842 0.930 . S
H2834 C2844 0.930 . S
H2835 C2847 0.929 . S
H2836 C2850 0.930 . S
H2837 C2852 0.960 . S
H2838 C2852 0.960 . S
H2839 C2852 0.960 . S
C2840 H2832 0.929 . S
C2840 C2841 1.377 . S
C2840 C2842 1.384 . S
C2841 C2840 1.377 . S
C2841 C2847 1.390 . S
C2842 H2833 0.930 . S
C2842 C2840 1.384 . S
C2842 C2843 1.372 . S
C2843 C2842 1.372 . S
C2843 C2844 1.400 . S
C2843 C2848 1.490 . S
C2844 H2834 0.930 . S
C2844 C2843 1.400 . S
C2844 C2847 1.386 . S
H2845 C2861 0.930 . S
H2846 C2862 0.931 . S
C2847 H2835 0.929 . S
C2847 C2841 1.390 . S
C2847 C2844 1.386 . S
C2848 C2843 1.490 . S
C2848 C2850 1.395 . S
C2848 C2851 1.403 . S
H2849 C2855 0.930 . S
C2850 H2836 0.930 . S
C2850 C2848 1.395 . S
C2850 C2853 1.403 . S
C2851 C2848 1.403 . S
C2851 C2852 1.524 . S
C2851 C2855 1.400 . S
C2852 H2837 0.960 . S
C2852 H2838 0.960 . S
C2852 H2839 0.960 . S
C2852 C2851 1.524 . S
C2853 C2850 1.403 . S
C2853 C2854 1.392 . S
C2853 C2857 1.495 . S
C2854 C2853 1.392 . S
C2854 C2855 1.385 . S
C2854 C2856 1.478 . S
C2855 H2849 0.930 . S
C2855 C2851 1.400 . S
C2855 C2854 1.385 . S
C2856 C2854 1.478 . S
C2856 C2858 1.381 . S
C2856 C2862 1.383 . S
C2857 C2853 1.495 . S
C2857 H2863 0.959 . S
C2857 H2864 0.961 . S
C2857 H2865 0.960 . S
C2858 C2856 1.381 . S
C2858 C2859 1.394 . S
C2858 H2866 0.930 . S
C2859 C2858 1.394 . S
C2859 C2860 1.383 . S
C2859 H2867 0.929 . S
C2860 C2859 1.383 . S
C2860 C2861 1.377 . S
C2861 H2845 0.930 . S
C2861 C2860 1.377 . S
C2861 C2862 1.379 . S
C2862 H2846 0.931 . S
C2862 C2856 1.383 . S
C2862 C2861 1.379 . S
H2863 C2857 0.959 . S
H2864 C2857 0.961 . S
H2865 C2857 0.960 . S
H2866 C2858 0.930 . S
H2867 C2859 0.929 . S
H2868 C2876 0.929 . S
H2869 C2878 0.930 . S
H2870 C2880 0.930 . S
H2871 C2883 0.929 . S
H2872 C2886 0.930 . S
H2873 C2888 0.960 . S
H2874 C2888 0.960 . S
H2875 C2888 0.960 . S
C2876 H2868 0.929 . S
C2876 C2877 1.377 . S
C2876 C2878 1.384 . S
C2877 C2876 1.377 . S
C2877 C2883 1.390 . S
C2878 H2869 0.930 . S
C2878 C2876 1.384 . S
C2878 C2879 1.372 . S
C2879 C2878 1.372 . S
C2879 C2880 1.400 . S
C2879 C2884 1.490 . S
C2880 H2870 0.930 . S
C2880 C2879 1.400 . S
C2880 C2883 1.386 . S
H2881 C2897 0.915 1_554 S
H2882 C2898 0.931 . S
C2883 H2871 0.929 . S
C2883 C2877 1.390 . S
C2883 C2880 1.386 . S
C2884 C2879 1.490 . S
C2884 C2886 1.395 . S
C2884 C2887 1.403 . S
H2885 C2891 0.930 . S
C2886 H2872 0.930 . S
C2886 C2884 1.395 . S
C2886 C2889 1.403 . S
C2887 C2884 1.403 . S
C2887 C2888 1.524 . S
C2887 C2891 1.400 . S
C2888 H2873 0.960 . S
C2888 H2874 0.960 . S
C2888 H2875 0.960 . S
C2888 C2887 1.524 . S
C2889 C2886 1.403 . S
C2889 C2890 1.392 . S
C2889 C2893 1.495 . S
C2890 C2889 1.392 . S
C2890 C2891 1.385 . S
C2890 C2892 1.478 . S
C2891 H2885 0.930 . S
C2891 C2887 1.400 . S
C2891 C2890 1.385 . S
C2892 C2890 1.478 . S
C2892 C2894 1.381 . S
C2892 C2898 1.383 . S
C2893 C2889 1.495 . S
C2893 H2899 0.959 . S
C2893 H2900 0.961 . S
C2893 H2901 0.960 . S
C2894 C2892 1.381 . S
C2894 C2895 1.394 . S
C2894 H2902 0.930 . S
C2895 C2894 1.394 . S
C2895 C2896 1.383 . S
C2895 H2903 0.929 . S
C2896 C2895 1.383 . S
C2896 C2897 1.378 . S
C2897 H2881 0.915 1_556 S
C2897 C2896 1.378 . S
C2897 C2898 1.393 . S
C2898 H2882 0.931 . S
C2898 C2892 1.383 . S
C2898 C2897 1.393 . S
H2899 C2893 0.959 . S
H2900 C2893 0.961 . S
H2901 C2893 0.960 . S
H2902 C2894 0.930 . S
H2903 C2895 0.929 . S
H2904 C2912 0.929 . S
H2905 C2914 0.930 . S
H2906 C2916 0.930 . S
H2907 C2919 0.929 . S
H2908 C2922 0.930 . S
H2909 C2924 0.960 . S
H2910 C2924 0.960 . S
H2911 C2924 0.960 . S
C2912 H2904 0.929 . S
C2912 C2913 1.377 . S
C2912 C2914 1.384 . S
C2913 C2912 1.377 . S
C2913 C2919 1.390 . S
C2914 H2905 0.930 . S
C2914 C2912 1.384 . S
C2914 C2915 1.372 . S
C2915 C2914 1.372 . S
C2915 C2916 1.400 . S
C2915 C2920 1.490 . S
C2916 H2906 0.930 . S
C2916 C2915 1.400 . S
C2916 C2919 1.386 . S
H2917 C2933 0.930 . S
H2918 C2934 0.931 . S
C2919 H2907 0.929 . S
C2919 C2913 1.390 . S
C2919 C2916 1.386 . S
C2920 C2915 1.490 . S
C2920 C2922 1.395 . S
C2920 C2923 1.403 . S
H2921 C2927 0.930 . S
C2922 H2908 0.930 . S
C2922 C2920 1.395 . S
C2922 C2925 1.403 . S
C2923 C2920 1.403 . S
C2923 C2924 1.524 . S
C2923 C2927 1.400 . S
C2924 H2909 0.960 . S
C2924 H2910 0.960 . S
C2924 H2911 0.960 . S
C2924 C2923 1.524 . S
C2925 C2922 1.403 . S
C2925 C2926 1.392 . S
C2925 C2929 1.495 . S
C2926 C2925 1.392 . S
C2926 C2927 1.385 . S
C2926 C2928 1.478 . S
C2927 H2921 0.930 . S
C2927 C2923 1.400 . S
C2927 C2926 1.385 . S
C2928 C2926 1.478 . S
C2928 C2930 1.381 . S
C2928 C2934 1.383 . S
C2929 C2925 1.495 . S
C2929 H2935 0.959 . S
C2929 H2936 0.961 . S
C2929 H2937 0.960 . S
C2930 C2928 1.381 . S
C2930 C2931 1.394 . S
C2930 H2938 0.930 . S
C2931 C2930 1.394 . S
C2931 C2932 1.383 . S
C2931 H2939 0.929 . S
C2932 C2931 1.383 . S
C2932 C2933 1.377 . S
C2933 H2917 0.930 . S
C2933 C2932 1.377 . S
C2933 C2934 1.379 . S
C2934 H2918 0.931 . S
C2934 C2928 1.383 . S
C2934 C2933 1.379 . S
H2935 C2929 0.959 . S
H2936 C2929 0.961 . S
H2937 C2929 0.960 . S
H2938 C2930 0.930 . S
H2939 C2931 0.929 . S
H2940 C2948 0.929 . S
H2941 C2950 0.930 . S
H2942 C2952 0.930 . S
H2943 C2955 0.929 . S
H2944 C2958 0.930 . S
H2945 C2960 0.960 . S
H2946 C2960 0.960 . S
H2947 C2960 0.960 . S
C2948 H2940 0.929 . S
C2948 C2949 1.377 . S
C2948 C2950 1.384 . S
C2949 C2948 1.377 . S
C2949 C2955 1.390 . S
C2950 H2941 0.930 . S
C2950 C2948 1.384 . S
C2950 C2951 1.372 . S
C2951 C2950 1.372 . S
C2951 C2952 1.400 . S
C2951 C2956 1.490 . S
C2952 H2942 0.930 . S
C2952 C2951 1.400 . S
C2952 C2955 1.386 . S
H2953 C2969 0.930 . S
H2954 C2970 0.931 . S
C2955 H2943 0.929 . S
C2955 C2949 1.390 . S
C2955 C2952 1.386 . S
C2956 C2951 1.490 . S
C2956 C2958 1.395 . S
C2956 C2959 1.403 . S
H2957 C2963 0.930 . S
C2958 H2944 0.930 . S
C2958 C2956 1.395 . S
C2958 C2961 1.403 . S
C2959 C2956 1.403 . S
C2959 C2960 1.524 . S
C2959 C2963 1.400 . S
C2960 H2945 0.960 . S
C2960 H2946 0.960 . S
C2960 H2947 0.960 . S
C2960 C2959 1.524 . S
C2961 C2958 1.403 . S
C2961 C2962 1.392 . S
C2961 C2965 1.495 . S
C2962 C2961 1.392 . S
C2962 C2963 1.385 . S
C2962 C2964 1.478 . S
C2963 H2957 0.930 . S
C2963 C2959 1.400 . S
C2963 C2962 1.385 . S
C2964 C2962 1.478 . S
C2964 C2966 1.381 . S
C2964 C2970 1.383 . S
C2965 C2961 1.495 . S
C2965 H2971 0.959 . S
C2965 H2972 0.961 . S
C2965 H2973 0.960 . S
C2966 C2964 1.381 . S
C2966 C2967 1.394 . S
C2966 H2974 0.930 . S
C2967 C2966 1.394 . S
C2967 C2968 1.383 . S
C2967 H2975 0.929 . S
C2968 C2967 1.383 . S
C2968 C2969 1.377 . S
C2969 H2953 0.930 . S
C2969 C2968 1.377 . S
C2969 C2970 1.379 . S
C2970 H2954 0.931 . S
C2970 C2964 1.383 . S
C2970 C2969 1.379 . S
H2971 C2965 0.959 . S
H2972 C2965 0.961 . S
H2973 C2965 0.960 . S
H2974 C2966 0.930 . S
H2975 C2967 0.929 . S
H2976 C2984 0.929 . S
H2977 C2986 0.930 . S
H2978 C2988 0.930 . S
H2979 C2991 0.929 . S
H2980 C2994 0.930 . S
H2981 C2996 0.960 . S
H2982 C2996 0.960 . S
H2983 C2996 0.960 . S
C2984 H2976 0.929 . S
C2984 C2985 1.377 . S
C2984 C2986 1.384 . S
C2985 C2984 1.377 . S
C2985 C2991 1.390 . S
C2986 H2977 0.930 . S
C2986 C2984 1.384 . S
C2986 C2987 1.372 . S
C2987 C2986 1.372 . S
C2987 C2988 1.400 . S
C2987 C2992 1.490 . S
C2988 H2978 0.930 . S
C2988 C2987 1.400 . S
C2988 C2991 1.386 . S
H2989 C3005 0.930 . S
H2990 C3006 0.931 . S
C2991 H2979 0.929 . S
C2991 C2985 1.390 . S
C2991 C2988 1.386 . S
C2992 C2987 1.490 . S
C2992 C2994 1.395 . S
C2992 C2995 1.403 . S
H2993 C2999 0.930 . S
C2994 H2980 0.930 . S
C2994 C2992 1.395 . S
C2994 C2997 1.403 . S
C2995 C2992 1.403 . S
C2995 C2996 1.524 . S
C2995 C2999 1.400 . S
C2996 H2981 0.960 . S
C2996 H2982 0.960 . S
C2996 H2983 0.960 . S
C2996 C2995 1.524 . S
C2997 C2994 1.403 . S
C2997 C2998 1.392 . S
C2997 C3001 1.495 . S
C2998 C2997 1.392 . S
C2998 C2999 1.385 . S
C2998 C3000 1.478 . S
C2999 H2993 0.930 . S
C2999 C2995 1.400 . S
C2999 C2998 1.385 . S
C3000 C2998 1.478 . S
C3000 C3002 1.381 . S
C3000 C3006 1.383 . S
C3001 C2997 1.495 . S
C3001 H3007 0.959 . S
C3001 H3008 0.961 . S
C3001 H3009 0.960 . S
C3002 C3000 1.381 . S
C3002 C3003 1.394 . S
C3002 H3010 0.930 . S
C3003 C3002 1.394 . S
C3003 C3004 1.383 . S
C3003 H3011 0.929 . S
C3004 C3003 1.383 . S
C3004 C3005 1.377 . S
C3005 H2989 0.930 . S
C3005 C3004 1.377 . S
C3005 C3006 1.379 . S
C3006 H2990 0.931 . S
C3006 C3000 1.383 . S
C3006 C3005 1.379 . S
H3007 C3001 0.959 . S
H3008 C3001 0.961 . S
H3009 C3001 0.960 . S
H3010 C3002 0.930 . S
H3011 C3003 0.929 . S
H3012 C3020 0.929 . S
H3013 C3022 0.930 . S
H3014 C3024 0.930 . S
H3015 C3027 0.929 . S
H3016 C3030 0.930 . S
H3017 C3032 0.960 . S
H3018 C3032 0.960 . S
H3019 C3032 0.960 . S
C3020 H3012 0.929 . S
C3020 C3021 1.377 . S
C3020 C3022 1.384 . S
C3021 C3020 1.377 . S
C3021 C3027 1.390 . S
C3022 H3013 0.930 . S
C3022 C3020 1.384 . S
C3022 C3023 1.372 . S
C3023 C3022 1.372 . S
C3023 C3024 1.400 . S
C3023 C3028 1.490 . S
C3024 H3014 0.930 . S
C3024 C3023 1.400 . S
C3024 C3027 1.386 . S
H3025 C3041 0.930 . S
H3026 C3042 0.931 . S
C3027 H3015 0.929 . S
C3027 C3021 1.390 . S
C3027 C3024 1.386 . S
C3028 C3023 1.490 . S
C3028 C3030 1.395 . S
C3028 C3031 1.403 . S
H3029 C3035 0.930 . S
C3030 H3016 0.930 . S
C3030 C3028 1.395 . S
C3030 C3033 1.403 . S
C3031 C3028 1.403 . S
C3031 C3032 1.524 . S
C3031 C3035 1.400 . S
C3032 H3017 0.960 . S
C3032 H3018 0.960 . S
C3032 H3019 0.960 . S
C3032 C3031 1.524 . S
C3033 C3030 1.403 . S
C3033 C3034 1.392 . S
C3033 C3037 1.495 . S
C3034 C3033 1.392 . S
C3034 C3035 1.385 . S
C3034 C3036 1.478 . S
C3035 H3029 0.930 . S
C3035 C3031 1.400 . S
C3035 C3034 1.385 . S
C3036 C3034 1.478 . S
C3036 C3038 1.381 . S
C3036 C3042 1.383 . S
C3037 C3033 1.495 . S
C3037 H3043 0.959 . S
C3037 H3044 0.961 . S
C3037 H3045 0.960 . S
C3038 C3036 1.381 . S
C3038 C3039 1.394 . S
C3038 H3046 0.930 . S
C3039 C3038 1.394 . S
C3039 C3040 1.383 . S
C3039 H3047 0.929 . S
C3040 C3039 1.383 . S
C3040 C3041 1.377 . S
C3041 H3025 0.930 . S
C3041 C3040 1.377 . S
C3041 C3042 1.379 . S
C3042 H3026 0.931 . S
C3042 C3036 1.383 . S
C3042 C3041 1.379 . S
H3043 C3037 0.959 . S
H3044 C3037 0.961 . S
H3045 C3037 0.960 . S
H3046 C3038 0.930 . S
H3047 C3039 0.929 . S
H3048 C3056 0.929 . S
H3049 C3058 0.930 . S
H3050 C3060 0.930 . S
H3051 C3063 0.929 . S
H3052 C3066 0.930 . S
H3053 C3068 0.960 . S
H3054 C3068 0.960 . S
H3055 C3068 0.960 . S
C3056 H3048 0.929 . S
C3056 C3057 1.377 . S
C3056 C3058 1.384 . S
C3057 C3056 1.377 . S
C3057 C3063 1.390 . S
C3058 H3049 0.930 . S
C3058 C3056 1.384 . S
C3058 C3059 1.372 . S
C3059 C3058 1.372 . S
C3059 C3060 1.400 . S
C3059 C3064 1.490 . S
C3060 H3050 0.930 . S
C3060 C3059 1.400 . S
C3060 C3063 1.386 . S
H3061 C3077 0.930 . S
H3062 C3078 0.931 . S
C3063 H3051 0.929 . S
C3063 C3057 1.390 . S
C3063 C3060 1.386 . S
C3064 C3059 1.490 . S
C3064 C3066 1.395 . S
C3064 C3067 1.403 . S
H3065 C3071 0.930 . S
C3066 H3052 0.930 . S
C3066 C3064 1.395 . S
C3066 C3069 1.403 . S
C3067 C3064 1.403 . S
C3067 C3068 1.524 . S
C3067 C3071 1.400 . S
C3068 H3053 0.960 . S
C3068 H3054 0.960 . S
C3068 H3055 0.960 . S
C3068 C3067 1.524 . S
C3069 C3066 1.403 . S
C3069 C3070 1.392 . S
C3069 C3073 1.495 . S
C3070 C3069 1.392 . S
C3070 C3071 1.385 . S
C3070 C3072 1.478 . S
C3071 H3065 0.930 . S
C3071 C3067 1.400 . S
C3071 C3070 1.385 . S
C3072 C3070 1.478 . S
C3072 C3074 1.381 . S
C3072 C3078 1.383 . S
C3073 C3069 1.495 . S
C3073 H3079 0.959 . S
C3073 H3080 0.961 . S
C3073 H3081 0.960 . S
C3074 C3072 1.381 . S
C3074 C3075 1.394 . S
C3074 H3082 0.930 . S
C3075 C3074 1.394 . S
C3075 C3076 1.393 . S
C3075 H3083 0.919 1_545 S
C3076 C3075 1.393 . S
C3076 C3077 1.394 . S
C3077 H3061 0.930 . S
C3077 C3076 1.394 . S
C3077 C3078 1.379 . S
C3078 H3062 0.931 . S
C3078 C3072 1.383 . S
C3078 C3077 1.379 . S
H3079 C3073 0.959 . S
H3080 C3073 0.961 . S
H3081 C3073 0.960 . S
H3082 C3074 0.930 . S
H3083 C3075 0.919 1_565 S
H3084 C3092 0.929 . S
H3085 C3094 0.930 . S
H3086 C3096 0.930 . S
H3087 C3099 0.929 . S
H3088 C3102 0.930 . S
H3089 C3104 0.960 . S
H3090 C3104 0.960 . S
H3091 C3104 0.960 . S
C3092 H3084 0.929 . S
C3092 C3093 1.377 . S
C3092 C3094 1.384 . S
C3093 C3092 1.377 . S
C3093 C3099 1.390 . S
C3094 H3085 0.930 . S
C3094 C3092 1.384 . S
C3094 C3095 1.372 . S
C3095 C3094 1.372 . S
C3095 C3096 1.400 . S
C3095 C3100 1.490 . S
C3096 H3086 0.930 . S
C3096 C3095 1.400 . S
C3096 C3099 1.386 . S
H3097 C3113 0.930 . S
H3098 C3114 0.931 . S
C3099 H3087 0.929 . S
C3099 C3093 1.390 . S
C3099 C3096 1.386 . S
C3100 C3095 1.490 . S
C3100 C3102 1.395 . S
C3100 C3103 1.403 . S
H3101 C3107 0.930 . S
C3102 H3088 0.930 . S
C3102 C3100 1.395 . S
C3102 C3105 1.403 . S
C3103 C3100 1.403 . S
C3103 C3104 1.524 . S
C3103 C3107 1.400 . S
C3104 H3089 0.960 . S
C3104 H3090 0.960 . S
C3104 H3091 0.960 . S
C3104 C3103 1.524 . S
C3105 C3102 1.403 . S
C3105 C3106 1.392 . S
C3105 C3109 1.495 . S
C3106 C3105 1.392 . S
C3106 C3107 1.385 . S
C3106 C3108 1.478 . S
C3107 H3101 0.930 . S
C3107 C3103 1.400 . S
C3107 C3106 1.385 . S
C3108 C3106 1.478 . S
C3108 C3110 1.381 . S
C3108 C3114 1.383 . S
C3109 C3105 1.495 . S
C3109 H3115 0.959 . S
C3109 H3116 0.961 . S
C3109 H3117 0.960 . S
C3110 C3108 1.381 . S
C3110 C3111 1.394 . S
C3110 H3118 0.930 . S
C3111 C3110 1.394 . S
C3111 C3112 1.383 . S
C3111 H3119 0.929 . S
C3112 C3111 1.383 . S
C3112 C3113 1.377 . S
C3113 H3097 0.930 . S
C3113 C3112 1.377 . S
C3113 C3114 1.379 . S
C3114 H3098 0.931 . S
C3114 C3108 1.383 . S
C3114 C3113 1.379 . S
H3115 C3109 0.959 . S
H3116 C3109 0.961 . S
H3117 C3109 0.960 . S
H3118 C3110 0.930 . S
H3119 C3111 0.929 . S
H3120 C3128 0.929 . S
H3121 C3130 0.930 . S
H3122 C3132 0.930 . S
H3123 C3135 0.929 . S
H3124 C3138 0.930 . S
H3125 C3140 0.960 . S
H3126 C3140 0.960 . S
H3127 C3140 0.960 . S
C3128 H3120 0.929 . S
C3128 C3129 1.377 . S
C3128 C3130 1.384 . S
C3129 C3128 1.377 . S
C3129 C3135 1.390 . S
C3130 H3121 0.930 . S
C3130 C3128 1.384 . S
C3130 C3131 1.372 . S
C3131 C3130 1.372 . S
C3131 C3132 1.400 . S
C3131 C3136 1.490 . S
C3132 H3122 0.930 . S
C3132 C3131 1.400 . S
C3132 C3135 1.386 . S
H3133 C3149 0.930 . S
H3134 C3150 0.931 . S
C3135 H3123 0.929 . S
C3135 C3129 1.390 . S
C3135 C3132 1.386 . S
C3136 C3131 1.490 . S
C3136 C3138 1.395 . S
C3136 C3139 1.403 . S
H3137 C3143 0.930 . S
C3138 H3124 0.930 . S
C3138 C3136 1.395 . S
C3138 C3141 1.403 . S
C3139 C3136 1.403 . S
C3139 C3140 1.524 . S
C3139 C3143 1.400 . S
C3140 H3125 0.960 . S
C3140 H3126 0.960 . S
C3140 H3127 0.960 . S
C3140 C3139 1.524 . S
C3141 C3138 1.403 . S
C3141 C3142 1.392 . S
C3141 C3145 1.495 . S
C3142 C3141 1.392 . S
C3142 C3143 1.385 . S
C3142 C3144 1.478 . S
C3143 H3137 0.930 . S
C3143 C3139 1.400 . S
C3143 C3142 1.385 . S
C3144 C3142 1.478 . S
C3144 C3146 1.381 . S
C3144 C3150 1.383 . S
C3145 C3141 1.495 . S
C3145 H3151 0.959 . S
C3145 H3152 0.961 . S
C3145 H3153 0.960 . S
C3146 C3144 1.381 . S
C3146 C3147 1.394 . S
C3146 H3154 0.930 . S
C3147 C3146 1.394 . S
C3147 C3148 1.383 . S
C3147 H3155 0.929 . S
C3148 C3147 1.383 . S
C3148 C3149 1.377 . S
C3149 H3133 0.930 . S
C3149 C3148 1.377 . S
C3149 C3150 1.379 . S
C3150 H3134 0.931 . S
C3150 C3144 1.383 . S
C3150 C3149 1.379 . S
H3151 C3145 0.959 . S
H3152 C3145 0.961 . S
H3153 C3145 0.960 . S
H3154 C3146 0.930 . S
H3155 C3147 0.929 . S
H3156 C3164 0.929 . S
H3157 C3166 0.930 . S
H3158 C3168 0.930 . S
H3159 C3171 0.929 . S
H3160 C3174 0.930 . S
H3161 C3176 0.960 . S
H3162 C3176 0.960 . S
H3163 C3176 0.960 . S
C3164 H3156 0.929 . S
C3164 C3165 1.377 . S
C3164 C3166 1.384 . S
C3165 C3164 1.377 . S
C3165 C3171 1.390 . S
C3166 H3157 0.930 . S
C3166 C3164 1.384 . S
C3166 C3167 1.372 . S
C3167 C3166 1.372 . S
C3167 C3168 1.400 . S
C3167 C3172 1.490 . S
C3168 H3158 0.930 . S
C3168 C3167 1.400 . S
C3168 C3171 1.386 . S
H3169 C3185 0.930 . S
H3170 C3186 0.931 . S
C3171 H3159 0.929 . S
C3171 C3165 1.390 . S
C3171 C3168 1.386 . S
C3172 C3167 1.490 . S
C3172 C3174 1.395 . S
C3172 C3175 1.403 . S
H3173 C3179 0.930 . S
C3174 H3160 0.930 . S
C3174 C3172 1.395 . S
C3174 C3177 1.403 . S
C3175 C3172 1.403 . S
C3175 C3176 1.524 . S
C3175 C3179 1.400 . S
C3176 H3161 0.960 . S
C3176 H3162 0.960 . S
C3176 H3163 0.960 . S
C3176 C3175 1.524 . S
C3177 C3174 1.403 . S
C3177 C3178 1.392 . S
C3177 C3181 1.495 . S
C3178 C3177 1.392 . S
C3178 C3179 1.385 . S
C3178 C3180 1.478 . S
C3179 H3173 0.930 . S
C3179 C3175 1.400 . S
C3179 C3178 1.385 . S
C3180 C3178 1.478 . S
C3180 C3182 1.381 . S
C3180 C3186 1.383 . S
C3181 C3177 1.495 . S
C3181 H3187 0.959 . S
C3181 H3188 0.961 . S
C3181 H3189 0.960 . S
C3182 C3180 1.381 . S
C3182 C3183 1.394 . S
C3182 H3190 0.930 . S
C3183 C3182 1.394 . S
C3183 C3184 1.383 . S
C3183 H3191 0.929 . S
C3184 C3183 1.383 . S
C3184 C3185 1.377 . S
C3185 H3169 0.930 . S
C3185 C3184 1.377 . S
C3185 C3186 1.379 . S
C3186 H3170 0.931 . S
C3186 C3180 1.383 . S
C3186 C3185 1.379 . S
H3187 C3181 0.959 . S
H3188 C3181 0.961 . S
H3189 C3181 0.960 . S
H3190 C3182 0.930 . S
H3191 C3183 0.929 . S
H3192 C3200 0.929 . S
H3193 C3202 0.930 . S
H3194 C3204 0.930 . S
H3195 C3207 0.945 . S
H3196 C3210 0.930 . S
H3197 C3212 0.960 . S
H3198 C3212 0.960 . S
H3199 C3212 0.960 . S
C3200 H3192 0.929 . S
C3200 C3201 1.377 . S
C3200 C3202 1.384 . S
C3201 C3200 1.377 . S
C3201 C3207 1.390 . S
C3202 H3193 0.930 . S
C3202 C3200 1.384 . S
C3202 C3203 1.372 . S
C3203 C3202 1.372 . S
C3203 C3204 1.400 . S
C3203 C3208 1.490 . S
C3204 H3194 0.930 . S
C3204 C3203 1.400 . S
C3204 C3207 1.386 . S
H3205 C3221 0.930 . S
H3206 C3222 0.931 . S
C3207 H3195 0.945 . S
C3207 C3201 1.390 . S
C3207 C3204 1.386 . S
C3208 C3203 1.490 . S
C3208 C3210 1.395 . S
C3208 C3211 1.403 . S
H3209 C3215 0.930 . S
C3210 H3196 0.930 . S
C3210 C3208 1.395 . S
C3210 C3213 1.403 . S
C3211 C3208 1.403 . S
C3211 C3212 1.524 . S
C3211 C3215 1.400 . S
C3212 H3197 0.960 . S
C3212 H3198 0.960 . S
C3212 H3199 0.960 . S
C3212 C3211 1.524 . S
C3213 C3210 1.403 . S
C3213 C3214 1.392 . S
C3213 C3217 1.495 . S
C3214 C3213 1.392 . S
C3214 C3215 1.385 . S
C3214 C3216 1.478 . S
C3215 H3209 0.930 . S
C3215 C3211 1.400 . S
C3215 C3214 1.385 . S
C3216 C3214 1.478 . S
C3216 C3218 1.381 . S
C3216 C3222 1.383 . S
C3217 C3213 1.495 . S
C3217 H3223 0.959 . S
C3217 H3224 0.961 . S
C3217 H3225 0.960 . S
C3218 C3216 1.381 . S
C3218 C3219 1.394 . S
C3218 H3226 0.930 . S
C3219 C3218 1.394 . S
C3219 C3220 1.383 . S
C3219 H3227 0.929 . S
C3220 C3219 1.383 . S
C3220 C3221 1.377 . S
C3221 H3205 0.930 . S
C3221 C3220 1.377 . S
C3221 C3222 1.379 . S
C3222 H3206 0.931 . S
C3222 C3216 1.383 . S
C3222 C3221 1.379 . S
H3223 C3217 0.959 . S
H3224 C3217 0.961 . S
H3225 C3217 0.960 . S
H3226 C3218 0.930 . S
H3227 C3219 0.929 . S
H3228 C3236 0.929 . S
H3229 C3238 0.930 . S
H3230 C3240 0.930 . S
H3231 C3243 0.929 1_455 S
H3232 C3246 0.930 . S
H3233 C3248 0.960 . S
H3234 C3248 0.960 . S
H3235 C3248 0.960 . S
C3236 H3228 0.929 . S
C3236 C3237 1.377 . S
C3236 C3238 1.384 . S
C3237 C3236 1.377 . S
C3237 C3243 1.390 . S
C3238 H3229 0.930 . S
C3238 C3236 1.384 . S
C3238 C3239 1.372 . S
C3239 C3238 1.372 . S
C3239 C3240 1.400 . S
C3239 C3244 1.490 . S
C3240 H3230 0.930 . S
C3240 C3239 1.400 . S
C3240 C3243 1.386 . S
H3241 C3257 0.930 . S
H3242 C3258 0.931 . S
C3243 H3231 0.929 1_655 S
C3243 C3237 1.390 . S
C3243 C3240 1.386 . S
C3244 C3239 1.490 . S
C3244 C3246 1.395 . S
C3244 C3247 1.403 . S
H3245 C3251 0.930 . S
C3246 H3232 0.930 . S
C3246 C3244 1.395 . S
C3246 C3249 1.403 . S
C3247 C3244 1.403 . S
C3247 C3248 1.524 . S
C3247 C3251 1.400 . S
C3248 H3233 0.960 . S
C3248 H3234 0.960 . S
C3248 H3235 0.960 . S
C3248 C3247 1.524 . S
C3249 C3246 1.403 . S
C3249 C3250 1.392 . S
C3249 C3253 1.495 . S
C3250 C3249 1.392 . S
C3250 C3251 1.385 . S
C3250 C3252 1.478 . S
C3251 H3245 0.930 . S
C3251 C3247 1.400 . S
C3251 C3250 1.385 . S
C3252 C3250 1.478 . S
C3252 C3254 1.381 . S
C3252 C3258 1.383 . S
C3253 C3249 1.495 . S
C3253 H3259 0.959 . S
C3253 H3260 0.961 . S
C3253 H3261 0.960 . S
C3254 C3252 1.381 . S
C3254 C3255 1.394 . S
C3254 H3262 0.930 . S
C3255 C3254 1.394 . S
C3255 C3256 1.383 . S
C3255 H3263 0.929 . S
C3256 C3255 1.383 . S
C3256 C3257 1.377 1_545 S
C3257 H3241 0.930 . S
C3257 C3256 1.377 1_565 S
C3257 C3258 1.379 1_565 S
C3258 H3242 0.931 . S
C3258 C3252 1.383 . S
C3258 C3257 1.379 1_545 S
H3259 C3253 0.959 . S
H3260 C3253 0.961 . S
H3261 C3253 0.960 . S
H3262 C3254 0.930 . S
H3263 C3255 0.929 . S
H3264 C3272 0.929 . S
H3265 C3274 0.930 . S
H3266 C3276 0.930 . S
H3267 C3279 0.929 . S
H3268 C3282 0.930 . S
H3269 C3284 0.960 . S
H3270 C3284 0.960 . S
H3271 C3284 0.960 . S
C3272 H3264 0.929 . S
C3272 C3273 1.377 . S
C3272 C3274 1.384 . S
C3273 C3272 1.377 . S
C3273 C3279 1.390 . S
C3274 H3265 0.930 . S
C3274 C3272 1.384 . S
C3274 C3275 1.372 . S
C3275 C3274 1.372 . S
C3275 C3276 1.400 . S
C3275 C3280 1.490 . S
C3276 H3266 0.930 . S
C3276 C3275 1.400 . S
C3276 C3279 1.386 . S
H3277 C3293 0.930 . S
H3278 C3294 0.931 . S
C3279 H3267 0.929 . S
C3279 C3273 1.390 . S
C3279 C3276 1.386 . S
C3280 C3275 1.490 . S
C3280 C3282 1.395 . S
C3280 C3283 1.403 . S
H3281 C3287 0.930 . S
C3282 H3268 0.930 . S
C3282 C3280 1.395 . S
C3282 C3285 1.403 . S
C3283 C3280 1.403 . S
C3283 C3284 1.524 . S
C3283 C3287 1.400 . S
C3284 H3269 0.960 . S
C3284 H3270 0.960 . S
C3284 H3271 0.960 . S
C3284 C3283 1.524 . S
C3285 C3282 1.403 . S
C3285 C3286 1.392 . S
C3285 C3289 1.495 . S
C3286 C3285 1.392 . S
C3286 C3287 1.385 . S
C3286 C3288 1.478 . S
C3287 H3281 0.930 . S
C3287 C3283 1.400 . S
C3287 C3286 1.385 . S
C3288 C3286 1.478 . S
C3288 C3290 1.381 . S
C3288 C3294 1.383 . S
C3289 C3285 1.495 . S
C3289 H3295 0.959 . S
C3289 H3296 0.961 . S
C3289 H3297 0.960 . S
C3290 C3288 1.381 . S
C3290 C3291 1.394 . S
C3290 H3298 0.930 . S
C3291 C3290 1.394 . S
C3291 C3292 1.383 . S
C3291 H3299 0.929 . S
C3292 C3291 1.383 . S
C3292 C3293 1.377 . S
C3293 H3277 0.930 . S
C3293 C3292 1.377 . S
C3293 C3294 1.379 . S
C3294 H3278 0.931 . S
C3294 C3288 1.383 . S
C3294 C3293 1.379 . S
H3295 C3289 0.959 . S
H3296 C3289 0.961 . S
H3297 C3289 0.960 . S
H3298 C3290 0.930 . S
H3299 C3291 0.929 . S
H3300 C3308 0.929 . S
H3301 C3310 0.930 . S
H3302 C3312 0.930 . S
H3303 C3315 0.929 . S
H3304 C3318 0.930 . S
H3305 C3320 0.960 . S
H3306 C3320 0.960 . S
H3307 C3320 0.960 . S
C3308 H3300 0.929 . S
C3308 C3309 1.377 . S
C3308 C3310 1.384 . S
C3309 C3308 1.377 . S
C3309 C3315 1.390 . S
C3310 H3301 0.930 . S
C3310 C3308 1.384 . S
C3310 C3311 1.372 . S
C3311 C3310 1.372 . S
C3311 C3312 1.400 . S
C3311 C3316 1.490 . S
C3312 H3302 0.930 . S
C3312 C3311 1.400 . S
C3312 C3315 1.386 . S
H3313 C3329 0.930 . S
H3314 C3330 0.931 . S
C3315 H3303 0.929 . S
C3315 C3309 1.390 . S
C3315 C3312 1.386 . S
C3316 C3311 1.490 . S
C3316 C3318 1.395 . S
C3316 C3319 1.403 . S
H3317 C3323 0.930 . S
C3318 H3304 0.930 . S
C3318 C3316 1.395 . S
C3318 C3321 1.403 . S
C3319 C3316 1.403 . S
C3319 C3320 1.524 . S
C3319 C3323 1.400 . S
C3320 H3305 0.960 . S
C3320 H3306 0.960 . S
C3320 H3307 0.960 . S
C3320 C3319 1.524 . S
C3321 C3318 1.403 . S
C3321 C3322 1.392 . S
C3321 C3325 1.495 . S
C3322 C3321 1.392 . S
C3322 C3323 1.385 . S
C3322 C3324 1.478 . S
C3323 H3317 0.930 . S
C3323 C3319 1.400 . S
C3323 C3322 1.385 . S
C3324 C3322 1.478 . S
C3324 C3326 1.381 . S
C3324 C3330 1.383 . S
C3325 C3321 1.495 . S
C3325 H3331 0.959 . S
C3325 H3332 0.961 . S
C3325 H3333 0.960 . S
C3326 C3324 1.381 . S
C3326 C3327 1.394 . S
C3326 H3334 0.930 . S
C3327 C3326 1.394 . S
C3327 C3328 1.383 . S
C3327 H3335 0.929 . S
C3328 C3327 1.383 . S
C3328 C3329 1.377 . S
C3329 H3313 0.930 . S
C3329 C3328 1.377 . S
C3329 C3330 1.379 . S
C3330 H3314 0.931 . S
C3330 C3324 1.383 . S
C3330 C3329 1.379 . S
H3331 C3325 0.959 . S
H3332 C3325 0.961 . S
H3333 C3325 0.960 . S
H3334 C3326 0.930 . S
H3335 C3327 0.929 . S
H3336 C3344 0.929 . S
H3337 C3346 0.930 . S
H3338 C3348 0.930 . S
H3339 C3351 0.929 . S
H3340 C3354 0.930 . S
H3341 C3356 0.960 . S
H3342 C3356 0.960 . S
H3343 C3356 0.960 . S
C3344 H3336 0.929 . S
C3344 C3345 1.377 . S
C3344 C3346 1.384 . S
C3345 C3344 1.377 . S
C3345 C3351 1.390 . S
C3346 H3337 0.930 . S
C3346 C3344 1.384 . S
C3346 C3347 1.372 . S
C3347 C3346 1.372 . S
C3347 C3348 1.400 . S
C3347 C3352 1.490 . S
C3348 H3338 0.930 . S
C3348 C3347 1.400 . S
C3348 C3351 1.386 . S
H3349 C3365 0.930 . S
H3350 C3366 0.931 . S
C3351 H3339 0.929 . S
C3351 C3345 1.390 . S
C3351 C3348 1.386 . S
C3352 C3347 1.490 . S
C3352 C3354 1.395 . S
C3352 C3355 1.403 . S
H3353 C3359 0.930 . S
C3354 H3340 0.930 . S
C3354 C3352 1.395 . S
C3354 C3357 1.403 . S
C3355 C3352 1.403 . S
C3355 C3356 1.524 . S
C3355 C3359 1.400 . S
C3356 H3341 0.960 . S
C3356 H3342 0.960 . S
C3356 H3343 0.960 . S
C3356 C3355 1.524 . S
C3357 C3354 1.403 . S
C3357 C3358 1.392 . S
C3357 C3361 1.495 . S
C3358 C3357 1.392 . S
C3358 C3359 1.385 . S
C3358 C3360 1.478 . S
C3359 H3353 0.930 . S
C3359 C3355 1.400 . S
C3359 C3358 1.385 . S
C3360 C3358 1.478 . S
C3360 C3362 1.381 . S
C3360 C3366 1.383 . S
C3361 C3357 1.495 . S
C3361 H3367 0.959 . S
C3361 H3368 0.961 . S
C3361 H3369 0.960 . S
C3362 C3360 1.381 . S
C3362 C3363 1.394 . S
C3362 H3370 0.930 . S
C3363 C3362 1.394 . S
C3363 C3364 1.383 . S
C3363 H3371 0.929 . S
C3364 C3363 1.383 . S
C3364 C3365 1.377 . S
C3365 H3349 0.930 . S
C3365 C3364 1.377 . S
C3365 C3366 1.379 . S
C3366 H3350 0.931 . S
C3366 C3360 1.383 . S
C3366 C3365 1.379 . S
H3367 C3361 0.959 . S
H3368 C3361 0.961 . S
H3369 C3361 0.960 . S
H3370 C3362 0.930 . S
H3371 C3363 0.929 . S
H3372 C3380 0.929 . S
H3373 C3382 0.930 . S
H3374 C3384 0.930 . S
H3375 C3387 0.929 . S
H3376 C3390 0.930 . S
H3377 C3392 0.960 . S
H3378 C3392 0.960 . S
H3379 C3392 0.960 . S
C3380 H3372 0.929 . S
C3380 C3381 1.377 . S
C3380 C3382 1.384 . S
C3381 C3380 1.377 . S
C3381 C3387 1.390 . S
C3382 H3373 0.930 . S
C3382 C3380 1.384 . S
C3382 C3383 1.372 . S
C3383 C3382 1.372 . S
C3383 C3384 1.400 . S
C3383 C3388 1.490 . S
C3384 H3374 0.930 . S
C3384 C3383 1.400 . S
C3384 C3387 1.386 . S
H3385 C3401 0.930 . S
H3386 C3402 0.931 . S
C3387 H3375 0.929 . S
C3387 C3381 1.390 . S
C3387 C3384 1.386 . S
C3388 C3383 1.490 . S
C3388 C3390 1.395 . S
C3388 C3391 1.403 . S
H3389 C3395 0.930 . S
C3390 H3376 0.930 . S
C3390 C3388 1.395 . S
C3390 C3393 1.403 . S
C3391 C3388 1.403 . S
C3391 C3392 1.524 . S
C3391 C3395 1.400 . S
C3392 H3377 0.960 . S
C3392 H3378 0.960 . S
C3392 H3379 0.960 . S
C3392 C3391 1.524 . S
C3393 C3390 1.403 . S
C3393 C3394 1.392 . S
C3393 C3397 1.495 . S
C3394 C3393 1.392 . S
C3394 C3395 1.385 . S
C3394 C3396 1.478 . S
C3395 H3389 0.930 . S
C3395 C3391 1.400 . S
C3395 C3394 1.385 . S
C3396 C3394 1.478 . S
C3396 C3398 1.381 . S
C3396 C3402 1.383 . S
C3397 C3393 1.495 . S
C3397 H3403 0.959 . S
C3397 H3404 0.961 . S
C3397 H3405 0.960 . S
C3398 C3396 1.381 . S
C3398 C3399 1.394 . S
C3398 H3406 0.930 . S
C3399 C3398 1.394 . S
C3399 C3400 1.383 . S
C3399 H3407 0.929 . S
C3400 C3399 1.383 . S
C3400 C3401 1.377 . S
C3401 H3385 0.930 . S
C3401 C3400 1.377 . S
C3401 C3402 1.379 . S
C3402 H3386 0.931 . S
C3402 C3396 1.383 . S
C3402 C3401 1.379 . S
H3403 C3397 0.959 . S
H3404 C3397 0.961 . S
H3405 C3397 0.960 . S
H3406 C3398 0.930 . S
H3407 C3399 0.929 . S
H3408 C3416 0.929 . S
H3409 C3418 0.930 . S
H3410 C3420 0.930 . S
H3411 C3423 0.929 . S
H3412 C3426 0.930 . S
H3413 C3428 0.960 . S
H3414 C3428 0.960 . S
H3415 C3428 0.960 . S
C3416 H3408 0.929 . S
C3416 C3417 1.377 . S
C3416 C3418 1.384 . S
C3417 C3416 1.377 . S
C3417 C3423 1.390 . S
C3418 H3409 0.930 . S
C3418 C3416 1.384 . S
C3418 C3419 1.372 . S
C3419 C3418 1.372 . S
C3419 C3420 1.400 . S
C3419 C3424 1.490 . S
C3420 H3410 0.930 . S
C3420 C3419 1.400 . S
C3420 C3423 1.386 . S
H3421 C3437 0.930 . S
H3422 C3438 0.931 . S
C3423 H3411 0.929 . S
C3423 C3417 1.390 . S
C3423 C3420 1.386 . S
C3424 C3419 1.490 . S
C3424 C3426 1.395 . S
C3424 C3427 1.403 . S
H3425 C3431 0.930 . S
C3426 H3412 0.930 . S
C3426 C3424 1.395 . S
C3426 C3429 1.403 . S
C3427 C3424 1.403 . S
C3427 C3428 1.524 . S
C3427 C3431 1.400 . S
C3428 H3413 0.960 . S
C3428 H3414 0.960 . S
C3428 H3415 0.960 . S
C3428 C3427 1.524 . S
C3429 C3426 1.403 . S
C3429 C3430 1.392 . S
C3429 C3433 1.495 . S
C3430 C3429 1.392 . S
C3430 C3431 1.385 . S
C3430 C3432 1.478 . S
C3431 H3425 0.930 . S
C3431 C3427 1.400 . S
C3431 C3430 1.385 . S
C3432 C3430 1.478 . S
C3432 C3434 1.381 . S
C3432 C3438 1.383 . S
C3433 C3429 1.495 . S
C3433 H3439 0.959 . S
C3433 H3440 0.961 . S
C3433 H3441 0.960 . S
C3434 C3432 1.381 . S
C3434 C3435 1.394 . S
C3434 H3442 0.930 . S
C3435 C3434 1.394 . S
C3435 C3436 1.383 . S
C3435 H3443 0.929 . S
C3436 C3435 1.383 . S
C3436 C3437 1.377 . S
C3437 H3421 0.930 . S
C3437 C3436 1.377 . S
C3437 C3438 1.379 . S
C3438 H3422 0.931 . S
C3438 C3432 1.383 . S
C3438 C3437 1.379 . S
H3439 C3433 0.959 . S
H3440 C3433 0.961 . S
H3441 C3433 0.960 . S
H3442 C3434 0.930 . S
H3443 C3435 0.929 . S
H3444 C3452 0.929 . S
H3445 C3454 0.930 . S
H3446 C3456 0.930 . S
H3447 C3459 0.929 . S
H3448 C3462 0.930 . S
H3449 C3464 0.960 . S
H3450 C3464 0.960 . S
H3451 C3464 0.960 . S
C3452 H3444 0.929 . S
C3452 C3453 1.377 . S
C3452 C3454 1.384 . S
C3453 C3452 1.377 . S
C3453 C3459 1.390 . S
C3454 H3445 0.930 . S
C3454 C3452 1.384 . S
C3454 C3455 1.372 . S
C3455 C3454 1.372 . S
C3455 C3456 1.400 . S
C3455 C3460 1.490 . S
C3456 H3446 0.930 . S
C3456 C3455 1.400 . S
C3456 C3459 1.386 . S
H3457 C3473 0.930 . S
H3458 C3474 0.931 . S
C3459 H3447 0.929 . S
C3459 C3453 1.390 . S
C3459 C3456 1.386 . S
C3460 C3455 1.490 . S
C3460 C3462 1.395 . S
C3460 C3463 1.403 . S
H3461 C3467 0.930 . S
C3462 H3448 0.930 . S
C3462 C3460 1.395 . S
C3462 C3465 1.403 . S
C3463 C3460 1.403 . S
C3463 C3464 1.524 . S
C3463 C3467 1.400 . S
C3464 H3449 0.960 . S
C3464 H3450 0.960 . S
C3464 H3451 0.960 . S
C3464 C3463 1.524 . S
C3465 C3462 1.403 . S
C3465 C3466 1.392 . S
C3465 C3469 1.495 . S
C3466 C3465 1.392 . S
C3466 C3467 1.385 . S
C3466 C3468 1.478 . S
C3467 H3461 0.930 . S
C3467 C3463 1.400 . S
C3467 C3466 1.385 . S
C3468 C3466 1.478 . S
C3468 C3470 1.381 . S
C3468 C3474 1.383 . S
C3469 C3465 1.495 . S
C3469 H3475 0.959 . S
C3469 H3476 0.961 . S
C3469 H3477 0.960 . S
C3470 C3468 1.381 . S
C3470 C3471 1.394 . S
C3470 H3478 0.930 . S
C3471 C3470 1.394 . S
C3471 C3472 1.383 . S
C3471 H3479 0.929 . S
C3472 C3471 1.383 . S
C3472 C3473 1.377 . S
C3473 H3457 0.930 . S
C3473 C3472 1.377 . S
C3473 C3474 1.379 . S
C3474 H3458 0.931 . S
C3474 C3468 1.383 . S
C3474 C3473 1.379 . S
H3475 C3469 0.959 . S
H3476 C3469 0.961 . S
H3477 C3469 0.960 . S
H3478 C3470 0.930 . S
H3479 C3471 0.929 . S
H3480 C3488 0.929 . S
H3481 C3490 0.930 . S
H3482 C3492 0.930 . S
H3483 C3495 0.929 . S
H3484 C3498 0.930 . S
H3485 C3500 0.960 . S
H3486 C3500 0.960 . S
H3487 C3500 0.960 . S
C3488 H3480 0.929 . S
C3488 C3489 1.377 . S
C3488 C3490 1.384 . S
C3489 C3488 1.377 . S
C3489 C3495 1.390 . S
C3490 H3481 0.930 . S
C3490 C3488 1.384 . S
C3490 C3491 1.372 . S
C3491 C3490 1.372 . S
C3491 C3492 1.400 . S
C3491 C3496 1.490 . S
C3492 H3482 0.930 . S
C3492 C3491 1.400 . S
C3492 C3495 1.386 . S
H3493 C3509 0.930 . S
H3494 C3510 0.931 . S
C3495 H3483 0.929 . S
C3495 C3489 1.390 . S
C3495 C3492 1.386 . S
C3496 C3491 1.490 . S
C3496 C3498 1.395 . S
C3496 C3499 1.403 . S
H3497 C3503 0.930 . S
C3498 H3484 0.930 . S
C3498 C3496 1.395 . S
C3498 C3501 1.403 . S
C3499 C3496 1.403 . S
C3499 C3500 1.524 . S
C3499 C3503 1.400 . S
C3500 H3485 0.960 . S
C3500 H3486 0.960 . S
C3500 H3487 0.960 . S
C3500 C3499 1.524 . S
C3501 C3498 1.403 . S
C3501 C3502 1.392 . S
C3501 C3505 1.495 . S
C3502 C3501 1.392 . S
C3502 C3503 1.385 . S
C3502 C3504 1.478 . S
C3503 H3497 0.930 . S
C3503 C3499 1.400 . S
C3503 C3502 1.385 . S
C3504 C3502 1.478 . S
C3504 C3506 1.381 . S
C3504 C3510 1.383 . S
C3505 C3501 1.495 . S
C3505 H3511 0.959 . S
C3505 H3512 0.961 . S
C3505 H3513 0.960 . S
C3506 C3504 1.381 . S
C3506 C3507 1.394 . S
C3506 H3514 0.930 . S
C3507 C3506 1.394 . S
C3507 C3508 1.383 . S
C3507 H3515 0.929 . S
C3508 C3507 1.383 . S
C3508 C3509 1.377 . S
C3509 H3493 0.930 . S
C3509 C3508 1.377 . S
C3509 C3510 1.379 . S
C3510 H3494 0.931 . S
C3510 C3504 1.383 . S
C3510 C3509 1.379 . S
H3511 C3505 0.959 . S
H3512 C3505 0.961 . S
H3513 C3505 0.960 . S
H3514 C3506 0.930 . S
H3515 C3507 0.929 . S
H3516 C3524 0.929 . S
H3517 C3526 0.930 . S
H3518 C3528 0.930 . S
H3519 C3531 0.929 . S
H3520 C3534 0.930 . S
H3521 C3536 0.960 . S
H3522 C3536 0.960 . S
H3523 C3536 0.960 . S
C3524 H3516 0.929 . S
C3524 C3525 1.377 . S
C3524 C3526 1.384 . S
C3525 C3524 1.377 . S
C3525 C3531 1.390 . S
C3526 H3517 0.930 . S
C3526 C3524 1.384 . S
C3526 C3527 1.372 . S
C3527 C3526 1.372 . S
C3527 C3528 1.400 . S
C3527 C3532 1.490 . S
C3528 H3518 0.930 . S
C3528 C3527 1.400 . S
C3528 C3531 1.386 . S
H3529 C3545 0.930 . S
H3530 C3546 0.931 . S
C3531 H3519 0.929 . S
C3531 C3525 1.390 . S
C3531 C3528 1.386 . S
C3532 C3527 1.490 . S
C3532 C3534 1.395 . S
C3532 C3535 1.403 . S
H3533 C3539 0.930 . S
C3534 H3520 0.930 . S
C3534 C3532 1.395 . S
C3534 C3537 1.403 . S
C3535 C3532 1.403 . S
C3535 C3536 1.524 . S
C3535 C3539 1.400 . S
C3536 H3521 0.960 . S
C3536 H3522 0.960 . S
C3536 H3523 0.960 . S
C3536 C3535 1.524 . S
C3537 C3534 1.403 . S
C3537 C3538 1.392 . S
C3537 C3541 1.495 . S
C3538 C3537 1.392 . S
C3538 C3539 1.385 . S
C3538 C3540 1.478 . S
C3539 H3533 0.930 . S
C3539 C3535 1.400 . S
C3539 C3538 1.385 . S
C3540 C3538 1.478 . S
C3540 C3542 1.381 . S
C3540 C3546 1.383 . S
C3541 C3537 1.495 . S
C3541 H3547 0.959 . S
C3541 H3548 0.961 . S
C3541 H3549 0.960 . S
C3542 C3540 1.381 . S
C3542 C3543 1.394 . S
C3542 H3550 0.930 . S
C3543 C3542 1.394 . S
C3543 C3544 1.383 . S
C3543 H3551 0.929 . S
C3544 C3543 1.383 . S
C3544 C3545 1.377 . S
C3545 H3529 0.930 . S
C3545 C3544 1.377 . S
C3545 C3546 1.379 . S
C3546 H3530 0.931 . S
C3546 C3540 1.383 . S
C3546 C3545 1.379 . S
H3547 C3541 0.959 . S
H3548 C3541 0.961 . S
H3549 C3541 0.960 . S
H3550 C3542 0.930 . S
H3551 C3543 0.929 . S
H3552 C3560 0.929 . S
H3553 C3562 0.930 . S
H3554 C3564 0.930 . S
H3555 C3567 0.929 . S
H3556 C3570 0.930 . S
H3557 C3572 0.960 . S
H3558 C3572 0.960 . S
H3559 C3572 0.960 . S
C3560 H3552 0.929 . S
C3560 C3561 1.377 . S
C3560 C3562 1.384 . S
C3561 C3560 1.377 . S
C3561 C3567 1.390 . S
C3562 H3553 0.930 . S
C3562 C3560 1.384 . S
C3562 C3563 1.372 . S
C3563 C3562 1.372 . S
C3563 C3564 1.400 . S
C3563 C3568 1.490 . S
C3564 H3554 0.930 . S
C3564 C3563 1.400 . S
C3564 C3567 1.386 . S
H3565 C3581 0.930 . S
H3566 C3582 0.931 . S
C3567 H3555 0.929 . S
C3567 C3561 1.390 . S
C3567 C3564 1.386 . S
C3568 C3563 1.490 . S
C3568 C3570 1.395 . S
C3568 C3571 1.403 . S
H3569 C3575 0.930 . S
C3570 H3556 0.930 . S
C3570 C3568 1.395 . S
C3570 C3573 1.403 . S
C3571 C3568 1.403 . S
C3571 C3572 1.524 . S
C3571 C3575 1.400 . S
C3572 H3557 0.960 . S
C3572 H3558 0.960 . S
C3572 H3559 0.960 . S
C3572 C3571 1.524 . S
C3573 C3570 1.403 . S
C3573 C3574 1.392 . S
C3573 C3577 1.495 . S
C3574 C3573 1.392 . S
C3574 C3575 1.385 . S
C3574 C3576 1.478 . S
C3575 H3569 0.930 . S
C3575 C3571 1.400 . S
C3575 C3574 1.385 . S
C3576 C3574 1.478 . S
C3576 C3578 1.381 . S
C3576 C3582 1.383 . S
C3577 C3573 1.495 . S
C3577 H3583 0.959 . S
C3577 H3584 0.961 . S
C3577 H3585 0.960 . S
C3578 C3576 1.381 . S
C3578 C3579 1.394 . S
C3578 H3586 0.930 . S
C3579 C3578 1.394 . S
C3579 C3580 1.383 . S
C3579 H3587 0.929 . S
C3580 C3579 1.383 . S
C3580 C3581 1.377 . S
C3581 H3565 0.930 . S
C3581 C3580 1.377 . S
C3581 C3582 1.379 . S
C3582 H3566 0.931 . S
C3582 C3576 1.383 . S
C3582 C3581 1.379 . S
H3583 C3577 0.959 . S
H3584 C3577 0.961 . S
H3585 C3577 0.960 . S
H3586 C3578 0.930 . S
H3587 C3579 0.929 . S
H3588 C3596 0.929 . S
H3589 C3598 0.930 . S
H3590 C3600 0.930 . S
H3591 C3603 0.929 . S
H3592 C3606 0.930 . S
H3593 C3608 0.960 . S
H3594 C3608 0.960 . S
H3595 C3608 0.960 . S
C3596 H3588 0.929 . S
C3596 C3597 1.377 . S
C3596 C3598 1.384 . S
C3597 C3596 1.377 . S
C3597 C3603 1.390 . S
C3598 H3589 0.930 . S
C3598 C3596 1.384 . S
C3598 C3599 1.372 . S
C3599 C3598 1.372 . S
C3599 C3600 1.400 . S
C3599 C3604 1.490 . S
C3600 H3590 0.930 . S
C3600 C3599 1.400 . S
C3600 C3603 1.386 . S
H3601 C3617 0.930 . S
H3602 C3618 0.931 . S
C3603 H3591 0.929 . S
C3603 C3597 1.390 . S
C3603 C3600 1.386 . S
C3604 C3599 1.490 . S
C3604 C3606 1.395 . S
C3604 C3607 1.403 . S
H3605 C3611 0.930 . S
C3606 H3592 0.930 . S
C3606 C3604 1.395 . S
C3606 C3609 1.403 . S
C3607 C3604 1.403 . S
C3607 C3608 1.524 . S
C3607 C3611 1.400 . S
C3608 H3593 0.960 . S
C3608 H3594 0.960 . S
C3608 H3595 0.960 . S
C3608 C3607 1.524 . S
C3609 C3606 1.403 . S
C3609 C3610 1.392 . S
C3609 C3613 1.495 . S
C3610 C3609 1.392 . S
C3610 C3611 1.385 . S
C3610 C3612 1.478 . S
C3611 H3605 0.930 . S
C3611 C3607 1.400 . S
C3611 C3610 1.385 . S
C3612 C3610 1.478 . S
C3612 C3614 1.381 . S
C3612 C3618 1.383 . S
C3613 C3609 1.495 . S
C3613 H3619 0.959 . S
C3613 H3620 0.961 . S
C3613 H3621 0.960 . S
C3614 C3612 1.381 . S
C3614 C3615 1.394 . S
C3614 H3622 0.930 . S
C3615 C3614 1.394 . S
C3615 C3616 1.383 . S
C3615 H3623 0.929 . S
C3616 C3615 1.383 . S
C3616 C3617 1.377 . S
C3617 H3601 0.930 . S
C3617 C3616 1.377 . S
C3617 C3618 1.379 . S
C3618 H3602 0.931 . S
C3618 C3612 1.383 . S
C3618 C3617 1.379 . S
H3619 C3613 0.959 . S
H3620 C3613 0.961 . S
H3621 C3613 0.960 . S
H3622 C3614 0.930 . S
H3623 C3615 0.929 . S
H3624 C3632 0.929 . S
H3625 C3634 0.930 . S
H3626 C3636 0.930 . S
H3627 C3639 0.929 . S
H3628 C3642 0.930 . S
H3629 C3644 0.960 . S
H3630 C3644 0.960 . S
H3631 C3644 0.960 . S
C3632 H3624 0.929 . S
C3632 C3633 1.377 . S
C3632 C3634 1.384 . S
C3633 C3632 1.377 . S
C3633 C3639 1.390 . S
C3634 H3625 0.930 . S
C3634 C3632 1.384 . S
C3634 C3635 1.372 . S
C3635 C3634 1.372 . S
C3635 C3636 1.400 . S
C3635 C3640 1.490 . S
C3636 H3626 0.930 . S
C3636 C3635 1.400 . S
C3636 C3639 1.386 . S
H3637 C3653 0.930 . S
H3638 C3654 0.931 . S
C3639 H3627 0.929 . S
C3639 C3633 1.390 . S
C3639 C3636 1.386 . S
C3640 C3635 1.490 . S
C3640 C3642 1.395 . S
C3640 C3643 1.403 . S
H3641 C3647 0.930 . S
C3642 H3628 0.930 . S
C3642 C3640 1.395 . S
C3642 C3645 1.403 . S
C3643 C3640 1.403 . S
C3643 C3644 1.524 . S
C3643 C3647 1.400 . S
C3644 H3629 0.960 . S
C3644 H3630 0.960 . S
C3644 H3631 0.960 . S
C3644 C3643 1.524 . S
C3645 C3642 1.403 . S
C3645 C3646 1.392 . S
C3645 C3649 1.495 . S
C3646 C3645 1.392 . S
C3646 C3647 1.385 . S
C3646 C3648 1.478 . S
C3647 H3641 0.930 . S
C3647 C3643 1.400 . S
C3647 C3646 1.385 . S
C3648 C3646 1.478 . S
C3648 C3650 1.381 . S
C3648 C3654 1.383 . S
C3649 C3645 1.495 . S
C3649 H3655 0.959 . S
C3649 H3656 0.961 . S
C3649 H3657 0.960 . S
C3650 C3648 1.381 . S
C3650 C3651 1.394 . S
C3650 H3658 0.930 . S
C3651 C3650 1.394 . S
C3651 C3652 1.383 . S
C3651 H3659 0.929 . S
C3652 C3651 1.383 . S
C3652 C3653 1.377 . S
C3653 H3637 0.930 . S
C3653 C3652 1.377 . S
C3653 C3654 1.379 . S
C3654 H3638 0.931 . S
C3654 C3648 1.383 . S
C3654 C3653 1.379 . S
H3655 C3649 0.959 . S
H3656 C3649 0.961 . S
H3657 C3649 0.960 . S
H3658 C3650 0.930 . S
H3659 C3651 0.929 . S
H3660 C3668 0.929 . S
H3661 C3670 0.930 . S
H3662 C3672 0.930 . S
H3663 C3675 0.929 . S
H3664 C3678 0.930 . S
H3665 C3680 0.960 . S
H3666 C3680 0.960 . S
H3667 C3680 0.960 . S
C3668 H3660 0.929 . S
C3668 C3669 1.377 . S
C3668 C3670 1.384 . S
C3669 C3668 1.377 . S
C3669 C3675 1.390 . S
C3670 H3661 0.930 . S
C3670 C3668 1.384 . S
C3670 C3671 1.372 . S
C3671 C3670 1.372 . S
C3671 C3672 1.400 . S
C3671 C3676 1.490 . S
C3672 H3662 0.930 . S
C3672 C3671 1.400 . S
C3672 C3675 1.386 . S
H3673 C3689 0.930 . S
H3674 C3690 0.931 . S
C3675 H3663 0.929 . S
C3675 C3669 1.390 . S
C3675 C3672 1.386 . S
C3676 C3671 1.490 . S
C3676 C3678 1.395 . S
C3676 C3679 1.403 . S
H3677 C3683 0.930 . S
C3678 H3664 0.930 . S
C3678 C3676 1.395 . S
C3678 C3681 1.403 . S
C3679 C3676 1.403 . S
C3679 C3680 1.524 . S
C3679 C3683 1.400 . S
C3680 H3665 0.960 . S
C3680 H3666 0.960 . S
C3680 H3667 0.960 . S
C3680 C3679 1.524 . S
C3681 C3678 1.403 . S
C3681 C3682 1.392 . S
C3681 C3685 1.495 . S
C3682 C3681 1.392 . S
C3682 C3683 1.385 . S
C3682 C3684 1.478 . S
C3683 H3677 0.930 . S
C3683 C3679 1.400 . S
C3683 C3682 1.385 . S
C3684 C3682 1.478 . S
C3684 C3686 1.381 . S
C3684 C3690 1.383 . S
C3685 C3681 1.495 . S
C3685 H3691 0.959 . S
C3685 H3692 0.961 . S
C3685 H3693 0.960 . S
C3686 C3684 1.381 . S
C3686 C3687 1.394 . S
C3686 H3694 0.930 . S
C3687 C3686 1.394 . S
C3687 C3688 1.383 . S
C3687 H3695 0.929 . S
C3688 C3687 1.383 . S
C3688 C3689 1.377 . S
C3689 H3673 0.930 . S
C3689 C3688 1.377 . S
C3689 C3690 1.379 . S
C3690 H3674 0.931 . S
C3690 C3684 1.383 . S
C3690 C3689 1.379 . S
H3691 C3685 0.959 . S
H3692 C3685 0.961 . S
H3693 C3685 0.960 . S
H3694 C3686 0.930 . S
H3695 C3687 0.929 . S
H3696 C3704 0.929 . S
H3697 C3706 0.930 . S
H3698 C3708 0.930 . S
H3699 C3711 0.929 . S
H3700 C3714 0.930 . S
H3701 C3716 0.960 . S
H3702 C3716 0.960 . S
H3703 C3716 0.960 . S
C3704 H3696 0.929 . S
C3704 C3705 1.377 . S
C3704 C3706 1.384 . S
C3705 C3704 1.377 . S
C3705 C3711 1.390 . S
C3706 H3697 0.930 . S
C3706 C3704 1.384 . S
C3706 C3707 1.372 . S
C3707 C3706 1.372 . S
C3707 C3708 1.400 . S
C3707 C3712 1.490 . S
C3708 H3698 0.930 . S
C3708 C3707 1.400 . S
C3708 C3711 1.386 . S
H3709 C3725 0.930 . S
H3710 C3726 0.931 . S
C3711 H3699 0.929 . S
C3711 C3705 1.390 . S
C3711 C3708 1.386 . S
C3712 C3707 1.490 . S
C3712 C3714 1.395 . S
C3712 C3715 1.403 . S
H3713 C3719 0.930 . S
C3714 H3700 0.930 . S
C3714 C3712 1.395 . S
C3714 C3717 1.403 . S
C3715 C3712 1.403 . S
C3715 C3716 1.524 . S
C3715 C3719 1.400 . S
C3716 H3701 0.960 . S
C3716 H3702 0.960 . S
C3716 H3703 0.960 . S
C3716 C3715 1.524 . S
C3717 C3714 1.403 . S
C3717 C3718 1.392 . S
C3717 C3721 1.495 . S
C3718 C3717 1.392 . S
C3718 C3719 1.385 . S
C3718 C3720 1.478 . S
C3719 H3713 0.930 . S
C3719 C3715 1.400 . S
C3719 C3718 1.385 . S
C3720 C3718 1.478 . S
C3720 C3722 1.381 . S
C3720 C3726 1.383 . S
C3721 C3717 1.495 . S
C3721 H3727 0.959 . S
C3721 H3728 0.961 . S
C3721 H3729 0.960 . S
C3722 C3720 1.381 . S
C3722 C3723 1.394 . S
C3722 H3730 0.930 . S
C3723 C3722 1.394 . S
C3723 C3724 1.383 . S
C3723 H3731 0.929 . S
C3724 C3723 1.383 . S
C3724 C3725 1.377 . S
C3725 H3709 0.930 . S
C3725 C3724 1.377 . S
C3725 C3726 1.379 . S
C3726 H3710 0.931 . S
C3726 C3720 1.383 . S
C3726 C3725 1.379 . S
H3727 C3721 0.959 . S
H3728 C3721 0.961 . S
H3729 C3721 0.960 . S
H3730 C3722 0.930 . S
H3731 C3723 0.929 . S
H3732 C3740 0.929 . S
H3733 C3742 0.930 . S
H3734 C3744 0.930 . S
H3735 C3747 0.929 . S
H3736 C3750 0.930 . S
H3737 C3752 0.960 . S
H3738 C3752 0.960 . S
H3739 C3752 0.960 . S
C3740 H3732 0.929 . S
C3740 C3741 1.377 . S
C3740 C3742 1.384 . S
C3741 C3740 1.377 . S
C3741 C3747 1.390 . S
C3742 H3733 0.930 . S
C3742 C3740 1.384 . S
C3742 C3743 1.372 . S
C3743 C3742 1.372 . S
C3743 C3744 1.400 . S
C3743 C3748 1.490 . S
C3744 H3734 0.930 . S
C3744 C3743 1.400 . S
C3744 C3747 1.386 . S
H3745 C3761 0.930 . S
H3746 C3762 0.931 . S
C3747 H3735 0.929 . S
C3747 C3741 1.390 . S
C3747 C3744 1.386 . S
C3748 C3743 1.490 . S
C3748 C3750 1.395 . S
C3748 C3751 1.403 . S
H3749 C3755 0.930 . S
C3750 H3736 0.930 . S
C3750 C3748 1.395 . S
C3750 C3753 1.403 . S
C3751 C3748 1.403 . S
C3751 C3752 1.524 . S
C3751 C3755 1.400 . S
C3752 H3737 0.960 . S
C3752 H3738 0.960 . S
C3752 H3739 0.960 . S
C3752 C3751 1.524 . S
C3753 C3750 1.403 . S
C3753 C3754 1.392 . S
C3753 C3757 1.495 . S
C3754 C3753 1.392 . S
C3754 C3755 1.385 . S
C3754 C3756 1.478 . S
C3755 H3749 0.930 . S
C3755 C3751 1.400 . S
C3755 C3754 1.385 . S
C3756 C3754 1.478 . S
C3756 C3758 1.381 . S
C3756 C3762 1.383 . S
C3757 C3753 1.495 . S
C3757 H3763 0.959 . S
C3757 H3764 0.961 . S
C3757 H3765 0.960 . S
C3758 C3756 1.381 . S
C3758 C3759 1.394 . S
C3758 H3766 0.930 . S
C3759 C3758 1.394 . S
C3759 C3760 1.383 . S
C3759 H3767 0.929 . S
C3760 C3759 1.383 . S
C3760 C3761 1.377 . S
C3761 H3745 0.930 . S
C3761 C3760 1.377 . S
C3761 C3762 1.379 . S
C3762 H3746 0.931 . S
C3762 C3756 1.383 . S
C3762 C3761 1.379 . S
H3763 C3757 0.959 . S
H3764 C3757 0.961 . S
H3765 C3757 0.960 . S
H3766 C3758 0.930 . S
H3767 C3759 0.929 . S
H3768 C3776 0.929 . S
H3769 C3778 0.930 . S
H3770 C3780 0.930 . S
H3771 C3783 0.929 . S
H3772 C3786 0.930 . S
H3773 C3788 0.960 . S
H3774 C3788 0.960 . S
H3775 C3788 0.960 . S
C3776 H3768 0.929 . S
C3776 C3777 1.377 . S
C3776 C3778 1.384 . S
C3777 C3776 1.377 . S
C3777 C3783 1.390 . S
C3778 H3769 0.930 . S
C3778 C3776 1.384 . S
C3778 C3779 1.372 . S
C3779 C3778 1.372 . S
C3779 C3780 1.400 . S
C3779 C3784 1.490 . S
C3780 H3770 0.930 . S
C3780 C3779 1.400 . S
C3780 C3783 1.386 . S
H3781 C3797 0.930 . S
H3782 C3798 0.931 . S
C3783 H3771 0.929 . S
C3783 C3777 1.390 . S
C3783 C3780 1.386 . S
C3784 C3779 1.490 . S
C3784 C3786 1.395 . S
C3784 C3787 1.403 . S
H3785 C3791 0.930 . S
C3786 H3772 0.930 . S
C3786 C3784 1.395 . S
C3786 C3789 1.403 . S
C3787 C3784 1.403 . S
C3787 C3788 1.524 . S
C3787 C3791 1.400 . S
C3788 H3773 0.960 . S
C3788 H3774 0.960 . S
C3788 H3775 0.960 . S
C3788 C3787 1.524 . S
C3789 C3786 1.403 . S
C3789 C3790 1.392 . S
C3789 C3793 1.495 . S
C3790 C3789 1.392 . S
C3790 C3791 1.385 . S
C3790 C3792 1.478 . S
C3791 H3785 0.930 . S
C3791 C3787 1.400 . S
C3791 C3790 1.385 . S
C3792 C3790 1.478 . S
C3792 C3794 1.381 . S
C3792 C3798 1.383 . S
C3793 C3789 1.495 . S
C3793 H3799 0.959 . S
C3793 H3800 0.961 . S
C3793 H3801 0.960 . S
C3794 C3792 1.381 . S
C3794 C3795 1.394 . S
C3794 H3802 0.930 . S
C3795 C3794 1.394 . S
C3795 C3796 1.383 . S
C3795 H3803 0.929 . S
C3796 C3795 1.383 . S
C3796 C3797 1.377 . S
C3797 H3781 0.930 . S
C3797 C3796 1.377 . S
C3797 C3798 1.379 . S
C3798 H3782 0.931 . S
C3798 C3792 1.383 . S
C3798 C3797 1.379 . S
H3799 C3793 0.959 . S
H3800 C3793 0.961 . S
H3801 C3793 0.960 . S
H3802 C3794 0.930 . S
H3803 C3795 0.929 . S
H3804 C3812 0.929 . S
H3805 C3814 0.930 . S
H3806 C3816 0.930 . S
H3807 C3819 0.929 . S
H3808 C3822 0.930 . S
H3809 C3824 0.960 . S
H3810 C3824 0.960 . S
H3811 C3824 0.960 . S
C3812 H3804 0.929 . S
C3812 C3813 1.377 . S
C3812 C3814 1.384 . S
C3813 C3812 1.377 . S
C3813 C3819 1.390 . S
C3814 H3805 0.930 . S
C3814 C3812 1.384 . S
C3814 C3815 1.372 . S
C3815 C3814 1.372 . S
C3815 C3816 1.400 . S
C3815 C3820 1.490 . S
C3816 H3806 0.930 . S
C3816 C3815 1.400 . S
C3816 C3819 1.386 . S
H3817 C3833 0.930 . S
H3818 C3834 0.931 . S
C3819 H3807 0.929 . S
C3819 C3813 1.390 . S
C3819 C3816 1.386 . S
C3820 C3815 1.490 . S
C3820 C3822 1.395 . S
C3820 C3823 1.403 . S
H3821 C3827 0.930 . S
C3822 H3808 0.930 . S
C3822 C3820 1.395 . S
C3822 C3825 1.403 . S
C3823 C3820 1.403 . S
C3823 C3824 1.524 . S
C3823 C3827 1.400 . S
C3824 H3809 0.960 . S
C3824 H3810 0.960 . S
C3824 H3811 0.960 . S
C3824 C3823 1.524 . S
C3825 C3822 1.403 . S
C3825 C3826 1.392 . S
C3825 C3829 1.495 . S
C3826 C3825 1.392 . S
C3826 C3827 1.385 . S
C3826 C3828 1.478 . S
C3827 H3821 0.930 . S
C3827 C3823 1.400 . S
C3827 C3826 1.385 . S
C3828 C3826 1.478 . S
C3828 C3830 1.381 . S
C3828 C3834 1.383 . S
C3829 C3825 1.495 . S
C3829 H3835 0.959 . S
C3829 H3836 0.961 . S
C3829 H3837 0.960 . S
C3830 C3828 1.381 . S
C3830 C3831 1.394 . S
C3830 H3838 0.930 . S
C3831 C3830 1.394 . S
C3831 C3832 1.383 . S
C3831 H3839 0.929 . S
C3832 C3831 1.383 . S
C3832 C3833 1.377 . S
C3833 H3817 0.930 . S
C3833 C3832 1.377 . S
C3833 C3834 1.379 . S
C3834 H3818 0.931 . S
C3834 C3828 1.383 . S
C3834 C3833 1.379 . S
H3835 C3829 0.959 . S
H3836 C3829 0.961 . S
H3837 C3829 0.960 . S
H3838 C3830 0.930 . S
H3839 C3831 0.929 . S
H3840 C3848 0.929 . S
H3841 C3850 0.930 . S
H3842 C3852 0.930 . S
H3843 C3855 0.929 . S
H3844 C3858 0.930 . S
H3845 C3860 0.960 . S
H3846 C3860 0.960 . S
H3847 C3860 0.960 . S
C3848 H3840 0.929 . S
C3848 C3849 1.377 . S
C3848 C3850 1.384 . S
C3849 C3848 1.377 . S
C3849 C3855 1.390 . S
C3850 H3841 0.930 . S
C3850 C3848 1.384 . S
C3850 C3851 1.372 . S
C3851 C3850 1.372 . S
C3851 C3852 1.400 . S
C3851 C3856 1.490 . S
C3852 H3842 0.930 . S
C3852 C3851 1.400 . S
C3852 C3855 1.386 . S
H3853 C3869 0.930 . S
H3854 C3870 0.931 . S
C3855 H3843 0.929 . S
C3855 C3849 1.390 . S
C3855 C3852 1.386 . S
C3856 C3851 1.490 . S
C3856 C3858 1.395 . S
C3856 C3859 1.403 . S
H3857 C3863 0.930 . S
C3858 H3844 0.930 . S
C3858 C3856 1.395 . S
C3858 C3861 1.403 . S
C3859 C3856 1.403 . S
C3859 C3860 1.524 . S
C3859 C3863 1.400 . S
C3860 H3845 0.960 . S
C3860 H3846 0.960 . S
C3860 H3847 0.960 . S
C3860 C3859 1.524 . S
C3861 C3858 1.403 . S
C3861 C3862 1.392 . S
C3861 C3865 1.495 . S
C3862 C3861 1.392 . S
C3862 C3863 1.385 . S
C3862 C3864 1.478 . S
C3863 H3857 0.930 . S
C3863 C3859 1.400 . S
C3863 C3862 1.385 . S
C3864 C3862 1.478 . S
C3864 C3866 1.381 . S
C3864 C3870 1.383 . S
C3865 C3861 1.495 . S
C3865 H3871 0.959 . S
C3865 H3872 0.961 . S
C3865 H3873 0.960 . S
C3866 C3864 1.381 . S
C3866 C3867 1.394 . S
C3866 H3874 0.930 . S
C3867 C3866 1.394 . S
C3867 C3868 1.383 . S
C3867 H3875 0.929 . S
C3868 C3867 1.383 . S
C3868 C3869 1.377 . S
C3869 H3853 0.930 . S
C3869 C3868 1.377 . S
C3869 C3870 1.379 . S
C3870 H3854 0.931 . S
C3870 C3864 1.383 . S
C3870 C3869 1.379 . S
H3871 C3865 0.959 . S
H3872 C3865 0.961 . S
H3873 C3865 0.960 . S
H3874 C3866 0.930 . S
H3875 C3867 0.929 . S
H3876 C3884 0.929 . S
H3877 C3886 0.930 . S
H3878 C3888 0.930 . S
H3879 C3891 0.929 . S
H3880 C3894 0.930 . S
H3881 C3896 0.960 . S
H3882 C3896 0.960 . S
H3883 C3896 0.960 . S
C3884 H3876 0.929 . S
C3884 C3885 1.377 . S
C3884 C3886 1.384 . S
C3885 C3884 1.377 . S
C3885 C3891 1.390 . S
C3886 H3877 0.930 . S
C3886 C3884 1.384 . S
C3886 C3887 1.372 . S
C3887 C3886 1.372 . S
C3887 C3888 1.400 . S
C3887 C3892 1.490 . S
C3888 H3878 0.930 . S
C3888 C3887 1.400 . S
C3888 C3891 1.386 . S
H3889 C3905 0.930 . S
H3890 C3906 0.931 . S
C3891 H3879 0.929 . S
C3891 C3885 1.390 . S
C3891 C3888 1.386 . S
C3892 C3887 1.490 . S
C3892 C3894 1.395 . S
C3892 C3895 1.403 . S
H3893 C3899 0.930 . S
C3894 H3880 0.930 . S
C3894 C3892 1.395 . S
C3894 C3897 1.403 . S
C3895 C3892 1.403 . S
C3895 C3896 1.524 . S
C3895 C3899 1.400 . S
C3896 H3881 0.960 . S
C3896 H3882 0.960 . S
C3896 H3883 0.960 . S
C3896 C3895 1.524 . S
C3897 C3894 1.403 . S
C3897 C3898 1.392 . S
C3897 C3901 1.495 . S
C3898 C3897 1.392 . S
C3898 C3899 1.385 . S
C3898 C3900 1.478 . S
C3899 H3893 0.930 . S
C3899 C3895 1.400 . S
C3899 C3898 1.385 . S
C3900 C3898 1.478 . S
C3900 C3902 1.381 . S
C3900 C3906 1.383 . S
C3901 C3897 1.495 . S
C3901 H3907 0.959 . S
C3901 H3908 0.961 . S
C3901 H3909 0.960 . S
C3902 C3900 1.381 . S
C3902 C3903 1.394 . S
C3902 H3910 0.930 . S
C3903 C3902 1.394 . S
C3903 C3904 1.383 . S
C3903 H3911 0.929 . S
C3904 C3903 1.383 . S
C3904 C3905 1.377 . S
C3905 H3889 0.930 . S
C3905 C3904 1.377 . S
C3905 C3906 1.379 . S
C3906 H3890 0.931 . S
C3906 C3900 1.383 . S
C3906 C3905 1.379 . S
H3907 C3901 0.959 . S
H3908 C3901 0.961 . S
H3909 C3901 0.960 . S
H3910 C3902 0.930 . S
H3911 C3903 0.929 . S
H3912 C3920 0.929 . S
H3913 C3922 0.930 . S
H3914 C3924 0.930 . S
H3915 C3927 0.929 . S
H3916 C3930 0.930 . S
H3917 C3932 0.960 . S
H3918 C3932 0.960 . S
H3919 C3932 0.960 . S
C3920 H3912 0.929 . S
C3920 C3921 1.377 . S
C3920 C3922 1.384 . S
C3921 C3920 1.377 . S
C3921 C3927 1.390 . S
C3922 H3913 0.930 . S
C3922 C3920 1.384 . S
C3922 C3923 1.372 . S
C3923 C3922 1.372 . S
C3923 C3924 1.400 . S
C3923 C3928 1.490 . S
C3924 H3914 0.930 . S
C3924 C3923 1.400 . S
C3924 C3927 1.386 . S
H3925 C3941 0.930 . S
H3926 C3942 0.931 . S
C3927 H3915 0.929 . S
C3927 C3921 1.390 . S
C3927 C3924 1.386 . S
C3928 C3923 1.490 . S
C3928 C3930 1.395 . S
C3928 C3931 1.403 . S
H3929 C3935 0.930 . S
C3930 H3916 0.930 . S
C3930 C3928 1.395 . S
C3930 C3933 1.403 . S
C3931 C3928 1.403 . S
C3931 C3932 1.524 . S
C3931 C3935 1.400 . S
C3932 H3917 0.960 . S
C3932 H3918 0.960 . S
C3932 H3919 0.960 . S
C3932 C3931 1.524 . S
C3933 C3930 1.403 . S
C3933 C3934 1.392 . S
C3933 C3937 1.495 . S
C3934 C3933 1.392 . S
C3934 C3935 1.385 . S
C3934 C3936 1.478 . S
C3935 H3929 0.930 . S
C3935 C3931 1.400 . S
C3935 C3934 1.385 . S
C3936 C3934 1.478 . S
C3936 C3938 1.381 . S
C3936 C3942 1.383 . S
C3937 C3933 1.495 . S
C3937 H3943 0.959 . S
C3937 H3944 0.961 . S
C3937 H3945 0.960 . S
C3938 C3936 1.381 . S
C3938 C3939 1.394 . S
C3938 H3946 0.930 . S
C3939 C3938 1.394 . S
C3939 C3940 1.383 . S
C3939 H3947 0.929 . S
C3940 C3939 1.383 . S
C3940 C3941 1.377 . S
C3941 H3925 0.930 . S
C3941 C3940 1.377 . S
C3941 C3942 1.379 . S
C3942 H3926 0.931 . S
C3942 C3936 1.383 . S
C3942 C3941 1.379 . S
H3943 C3937 0.959 . S
H3944 C3937 0.961 . S
H3945 C3937 0.960 . S
H3946 C3938 0.930 . S
H3947 C3939 0.929 . S
H3948 C3956 0.929 . S
H3949 C3958 0.930 . S
H3950 C3960 0.930 . S
H3951 C3963 0.929 . S
H3952 C3966 0.930 . S
H3953 C3968 0.960 . S
H3954 C3968 0.960 . S
H3955 C3968 0.960 . S
C3956 H3948 0.929 . S
C3956 C3957 1.377 . S
C3956 C3958 1.384 . S
C3957 C3956 1.377 . S
C3957 C3963 1.390 . S
C3958 H3949 0.930 . S
C3958 C3956 1.384 . S
C3958 C3959 1.372 . S
C3959 C3958 1.372 . S
C3959 C3960 1.400 . S
C3959 C3964 1.490 . S
C3960 H3950 0.930 . S
C3960 C3959 1.400 . S
C3960 C3963 1.386 . S
H3961 C3977 0.930 . S
H3962 C3978 0.931 . S
C3963 H3951 0.929 . S
C3963 C3957 1.390 . S
C3963 C3960 1.386 . S
C3964 C3959 1.490 . S
C3964 C3966 1.395 . S
C3964 C3967 1.403 . S
H3965 C3971 0.930 . S
C3966 H3952 0.930 . S
C3966 C3964 1.395 . S
C3966 C3969 1.403 . S
C3967 C3964 1.403 . S
C3967 C3968 1.524 . S
C3967 C3971 1.400 . S
C3968 H3953 0.960 . S
C3968 H3954 0.960 . S
C3968 H3955 0.960 . S
C3968 C3967 1.524 . S
C3969 C3966 1.403 . S
C3969 C3970 1.392 . S
C3969 C3973 1.495 . S
C3970 C3969 1.392 . S
C3970 C3971 1.385 . S
C3970 C3972 1.478 . S
C3971 H3965 0.930 . S
C3971 C3967 1.400 . S
C3971 C3970 1.385 . S
C3972 C3970 1.478 . S
C3972 C3974 1.381 . S
C3972 C3978 1.383 . S
C3973 C3969 1.495 . S
C3973 H3979 0.959 . S
C3973 H3980 0.961 . S
C3973 H3981 0.960 . S
C3974 C3972 1.381 . S
C3974 C3975 1.394 . S
C3974 H3982 0.930 . S
C3975 C3974 1.394 . S
C3975 C3976 1.383 . S
C3975 H3983 0.929 . S
C3976 C3975 1.383 . S
C3976 C3977 1.377 . S
C3977 H3961 0.930 . S
C3977 C3976 1.377 . S
C3977 C3978 1.379 . S
C3978 H3962 0.931 . S
C3978 C3972 1.383 . S
C3978 C3977 1.379 . S
H3979 C3973 0.959 . S
H3980 C3973 0.961 . S
H3981 C3973 0.960 . S
H3982 C3974 0.930 . S
H3983 C3975 0.929 . S
H3984 C3992 0.929 . S
H3985 C3994 0.930 . S
H3986 C3996 0.930 . S
H3987 C3999 0.929 . S
H3988 C4002 0.930 . S
H3989 C4004 0.960 . S
H3990 C4004 0.960 . S
H3991 C4004 0.960 . S
C3992 H3984 0.929 . S
C3992 C3993 1.377 . S
C3992 C3994 1.384 . S
C3993 C3992 1.377 . S
C3993 C3999 1.390 . S
C3994 H3985 0.930 . S
C3994 C3992 1.384 . S
C3994 C3995 1.372 . S
C3995 C3994 1.372 . S
C3995 C3996 1.400 . S
C3995 C4000 1.490 . S
C3996 H3986 0.930 . S
C3996 C3995 1.400 . S
C3996 C3999 1.386 . S
H3997 C4013 0.930 . S
H3998 C4014 0.931 . S
C3999 H3987 0.929 . S
C3999 C3993 1.390 . S
C3999 C3996 1.386 . S
C4000 C3995 1.490 . S
C4000 C4002 1.395 . S
C4000 C4003 1.403 . S
H4001 C4007 0.930 . S
C4002 H3988 0.930 . S
C4002 C4000 1.395 . S
C4002 C4005 1.403 . S
C4003 C4000 1.403 . S
C4003 C4004 1.524 . S
C4003 C4007 1.400 . S
C4004 H3989 0.960 . S
C4004 H3990 0.960 . S
C4004 H3991 0.960 . S
C4004 C4003 1.524 . S
C4005 C4002 1.403 . S
C4005 C4006 1.392 . S
C4005 C4009 1.495 . S
C4006 C4005 1.392 . S
C4006 C4007 1.385 . S
C4006 C4008 1.478 . S
C4007 H4001 0.930 . S
C4007 C4003 1.400 . S
C4007 C4006 1.385 . S
C4008 C4006 1.478 . S
C4008 C4010 1.381 . S
C4008 C4014 1.383 . S
C4009 C4005 1.495 . S
C4009 H4015 0.959 . S
C4009 H4016 0.961 . S
C4009 H4017 0.960 . S
C4010 C4008 1.381 . S
C4010 C4011 1.394 . S
C4010 H4018 0.930 . S
C4011 C4010 1.394 . S
C4011 C4012 1.383 . S
C4011 H4019 0.929 . S
C4012 C4011 1.383 . S
C4012 C4013 1.377 . S
C4013 H3997 0.930 . S
C4013 C4012 1.377 . S
C4013 C4014 1.379 . S
C4014 H3998 0.931 . S
C4014 C4008 1.383 . S
C4014 C4013 1.379 . S
H4015 C4009 0.959 . S
H4016 C4009 0.961 . S
H4017 C4009 0.960 . S
H4018 C4010 0.930 . S
H4019 C4011 0.929 . S
H4020 C4028 0.929 . S
H4021 C4030 0.930 . S
H4022 C4032 0.930 . S
H4023 C4035 0.929 . S
H4024 C4038 0.930 . S
H4025 C4040 0.960 . S
H4026 C4040 0.960 . S
H4027 C4040 0.960 . S
C4028 H4020 0.929 . S
C4028 C4029 1.377 . S
C4028 C4030 1.384 . S
C4029 C4028 1.377 . S
C4029 C4035 1.390 . S
C4030 H4021 0.930 . S
C4030 C4028 1.384 . S
C4030 C4031 1.372 . S
C4031 C4030 1.372 . S
C4031 C4032 1.400 . S
C4031 C4036 1.490 . S
C4032 H4022 0.930 . S
C4032 C4031 1.400 . S
C4032 C4035 1.386 . S
H4033 C4049 0.930 . S
H4034 C4050 0.931 . S
C4035 H4023 0.929 . S
C4035 C4029 1.390 . S
C4035 C4032 1.386 . S
C4036 C4031 1.490 . S
C4036 C4038 1.395 . S
C4036 C4039 1.403 . S
H4037 C4043 0.930 . S
C4038 H4024 0.930 . S
C4038 C4036 1.395 . S
C4038 C4041 1.403 . S
C4039 C4036 1.403 . S
C4039 C4040 1.524 . S
C4039 C4043 1.400 . S
C4040 H4025 0.960 . S
C4040 H4026 0.960 . S
C4040 H4027 0.960 . S
C4040 C4039 1.524 . S
C4041 C4038 1.403 . S
C4041 C4042 1.392 . S
C4041 C4045 1.495 . S
C4042 C4041 1.392 . S
C4042 C4043 1.385 . S
C4042 C4044 1.478 . S
C4043 H4037 0.930 . S
C4043 C4039 1.400 . S
C4043 C4042 1.385 . S
C4044 C4042 1.478 . S
C4044 C4046 1.381 . S
C4044 C4050 1.383 . S
C4045 C4041 1.495 . S
C4045 H4051 0.959 . S
C4045 H4052 0.961 . S
C4045 H4053 0.960 . S
C4046 C4044 1.381 . S
C4046 C4047 1.394 . S
C4046 H4054 0.930 . S
C4047 C4046 1.394 . S
C4047 C4048 1.383 . S
C4047 H4055 0.929 . S
C4048 C4047 1.383 . S
C4048 C4049 1.377 . S
C4049 H4033 0.930 . S
C4049 C4048 1.377 . S
C4049 C4050 1.379 . S
C4050 H4034 0.931 . S
C4050 C4044 1.383 . S
C4050 C4049 1.379 . S
H4051 C4045 0.959 . S
H4052 C4045 0.961 . S
H4053 C4045 0.960 . S
H4054 C4046 0.930 . S
H4055 C4047 0.929 . S
H4056 C4064 0.929 . S
H4057 C4066 0.930 . S
H4058 C4068 0.930 . S
H4059 C4071 0.929 . S
H4060 C4074 0.930 . S
H4061 C4076 0.960 . S
H4062 C4076 0.960 . S
H4063 C4076 0.960 . S
C4064 H4056 0.929 . S
C4064 C4065 1.377 . S
C4064 C4066 1.384 . S
C4065 C4064 1.377 . S
C4065 C4071 1.390 . S
C4066 H4057 0.930 . S
C4066 C4064 1.384 . S
C4066 C4067 1.372 . S
C4067 C4066 1.372 . S
C4067 C4068 1.400 . S
C4067 C4072 1.490 . S
C4068 H4058 0.930 . S
C4068 C4067 1.400 . S
C4068 C4071 1.386 . S
H4069 C4085 0.930 . S
H4070 C4086 0.931 . S
C4071 H4059 0.929 . S
C4071 C4065 1.390 . S
C4071 C4068 1.386 . S
C4072 C4067 1.490 . S
C4072 C4074 1.395 . S
C4072 C4075 1.403 . S
H4073 C4079 0.930 . S
C4074 H4060 0.930 . S
C4074 C4072 1.395 . S
C4074 C4077 1.403 . S
C4075 C4072 1.403 . S
C4075 C4076 1.524 . S
C4075 C4079 1.400 . S
C4076 H4061 0.960 . S
C4076 H4062 0.960 . S
C4076 H4063 0.960 . S
C4076 C4075 1.524 . S
C4077 C4074 1.403 . S
C4077 C4078 1.392 . S
C4077 C4081 1.495 . S
C4078 C4077 1.392 . S
C4078 C4079 1.385 . S
C4078 C4080 1.478 . S
C4079 H4073 0.930 . S
C4079 C4075 1.400 . S
C4079 C4078 1.385 . S
C4080 C4078 1.478 . S
C4080 C4082 1.381 . S
C4080 C4086 1.383 . S
C4081 C4077 1.495 . S
C4081 H4087 0.959 . S
C4081 H4088 0.961 . S
C4081 H4089 0.960 . S
C4082 C4080 1.381 . S
C4082 C4083 1.394 . S
C4082 H4090 0.930 . S
C4083 C4082 1.394 . S
C4083 C4084 1.383 . S
C4083 H4091 0.929 . S
C4084 C4083 1.383 . S
C4084 C4085 1.377 . S
C4085 H4069 0.930 . S
C4085 C4084 1.377 . S
C4085 C4086 1.379 . S
C4086 H4070 0.931 . S
C4086 C4080 1.383 . S
C4086 C4085 1.379 . S
H4087 C4081 0.959 . S
H4088 C4081 0.961 . S
H4089 C4081 0.960 . S
H4090 C4082 0.930 . S
H4091 C4083 0.929 . S
H4092 C4100 0.929 . S
H4093 C4102 0.930 . S
H4094 C4104 0.930 . S
H4095 C4107 0.929 . S
H4096 C4110 0.930 . S
H4097 C4112 0.960 . S
H4098 C4112 0.960 . S
H4099 C4112 0.960 . S
C4100 H4092 0.929 . S
C4100 C4101 1.377 . S
C4100 C4102 1.384 . S
C4101 C4100 1.377 . S
C4101 C4107 1.390 . S
C4102 H4093 0.930 . S
C4102 C4100 1.384 . S
C4102 C4103 1.372 . S
C4103 C4102 1.372 . S
C4103 C4104 1.400 . S
C4103 C4108 1.490 . S
C4104 H4094 0.930 . S
C4104 C4103 1.400 . S
C4104 C4107 1.386 . S
H4105 C4121 0.930 . S
H4106 C4122 0.931 . S
C4107 H4095 0.929 . S
C4107 C4101 1.390 . S
C4107 C4104 1.386 . S
C4108 C4103 1.490 . S
C4108 C4110 1.395 . S
C4108 C4111 1.403 . S
H4109 C4115 0.930 . S
C4110 H4096 0.930 . S
C4110 C4108 1.395 . S
C4110 C4113 1.403 . S
C4111 C4108 1.403 . S
C4111 C4112 1.524 . S
C4111 C4115 1.400 . S
C4112 H4097 0.960 . S
C4112 H4098 0.960 . S
C4112 H4099 0.960 . S
C4112 C4111 1.524 . S
C4113 C4110 1.403 . S
C4113 C4114 1.392 . S
C4113 C4117 1.495 . S
C4114 C4113 1.392 . S
C4114 C4115 1.385 . S
C4114 C4116 1.478 . S
C4115 H4109 0.930 . S
C4115 C4111 1.400 . S
C4115 C4114 1.385 . S
C4116 C4114 1.478 . S
C4116 C4118 1.381 . S
C4116 C4122 1.383 . S
C4117 C4113 1.495 . S
C4117 H4123 0.959 . S
C4117 H4124 0.961 . S
C4117 H4125 0.960 . S
C4118 C4116 1.381 . S
C4118 C4119 1.394 . S
C4118 H4126 0.930 . S
C4119 C4118 1.394 . S
C4119 C4120 1.383 . S
C4119 H4127 0.929 . S
C4120 C4119 1.383 . S
C4120 C4121 1.377 . S
C4121 H4105 0.930 . S
C4121 C4120 1.377 . S
C4121 C4122 1.379 . S
C4122 H4106 0.931 . S
C4122 C4116 1.383 . S
C4122 C4121 1.379 . S
H4123 C4117 0.959 . S
H4124 C4117 0.961 . S
H4125 C4117 0.960 . S
H4126 C4118 0.930 . S
H4127 C4119 0.929 . S
C681 C91 1.010 . S
C700 C7 0.995 . S
C717 C21 1.009 . S
C736 C105 1.013 . S
C753 C35 1.008 . S
C772 C63 0.986 . S
C789 C77 1.010 . S
C808 C49 1.004 . S
C825 C483 1.010 . S
C844 C119 0.998 . S
C861 C497 1.003 . S
C880 C133 1.000 . S
C897 C147 1.004 . S
C916 C455 0.994 . S
C933 C161 1.003 . S
C952 C469 1.003 . S
C969 C539 1.007 . S
C988 C175 0.986 . S
C1005 C553 1.003 . S
C1024 C189 1.005 . S
C1041 C511 1.002 . S
C1060 C203 1.008 . S
C1077 C525 1.004 . S
C1096 C217 0.992 . S
C1113 C231 1.006 . S
C1132 C581 0.987 . S
C1149 C245 1.010 . S
C1168 C567 1.009 . S
C1185 C259 1.010 . S
C1204 C329 1.010 . S
C1221 C637 1.006 . S
C1240 C273 0.988 . S
C1257 C651 1.009 . S
C1276 C287 1.014 . S
C1293 C609 1.005 . S
C1312 C301 1.024 . S
C1329 C623 1.003 . S
C1348 C315 0.999 . S
C1365 C427 1.004 . S
C1384 C343 0.993 . S
C1401 C441 1.002 . S
C1420 C357 1.011 . S
C1437 C371 1.009 . S
C1456 C399 0.986 . S
C1473 C385 1.002 . S
C1492 C413 1.009 . S
C1509 C665 1.006 . S
C1528 C595 0.987 . S
C1545 C233 0.983 . S
C1564 C3 1.027 . S
C1581 C17 1.022 1_655 S
C1600 C667 0.997 . S
C1617 C31 1.024 . S
C1636 C303 0.977 . S
C1653 C653 0.980 . S
C1672 C45 1.040 . S
C1689 C59 1.023 . S
C1708 C583 0.989 . S
C1725 C597 0.996 . S
C1744 C73 1.011 . S
C1761 C87 1.024 . S
C1780 C611 0.971 . S
C1797 C289 0.998 . S
C1816 C101 0.978 1_655 S
C1833 C115 1.026 . S
C1852 C9 0.978 . S
C1869 C23 0.998 . S
C1888 C129 1.005 . S
C1905 C143 1.025 . S
C1924 C37 0.993 . S
C1941 C157 1.028 1_554 S
C1960 C51 0.943 . S
C1977 C171 1.025 . S
C1996 C65 0.987 . S
C2013 C79 0.985 . S
C2032 C185 1.033 . S
C2049 C199 1.023 . S
C2068 C93 0.990 . S
C2085 C213 1.028 1_556 S
C2104 C107 0.941 . S
C2121 C227 1.027 . S
C2140 C121 0.943 . S
C2157 C241 1.028 . S
C2176 C513 0.940 . S
C2193 C527 0.988 . S
C2212 C255 1.017 . S
C2229 C541 0.979 . S
C2248 C269 1.039 . S
C2265 C283 1.023 1_565 S
C2284 C219 0.988 . S
C2301 C297 1.024 . S
C2320 C149 0.979 . S
C2337 C499 0.981 . S
C2356 C311 1.031 . S
C2373 C471 0.995 . S
C2392 C325 1.007 . S
C2409 C339 1.026 . S
C2428 C569 0.953 . S
C2445 C353 1.027 . S
C2464 C331 0.958 . S
C2481 C367 1.023 . S
C2500 C639 0.984 . S
C2517 C381 1.027 1_455 S
C2536 C317 0.947 . S
C2553 C395 1.027 . S
C2572 C247 0.941 . S
C2589 C261 0.992 . S
C2608 C409 0.978 1_455 S
C2625 C275 0.979 . S
C2644 C423 1.038 . S
C2661 C625 0.982 . S
C2680 C437 1.031 . S
C2697 C345 0.992 . S
C2716 C451 1.011 . S
C2733 C359 0.979 . S
C2752 C465 1.039 1_554 S
C2769 C479 1.025 . S
C2788 C373 0.994 . S
C2805 C387 0.979 . S
C2824 C493 1.040 . S
C2841 C507 1.026 . S
C2860 C401 0.958 . S
C2877 C415 0.989 . S
C2896 C521 1.027 1_556 S
C2913 C535 1.020 . S
C2932 C429 1.028 . S
C2949 C443 0.994 . S
C2968 C549 1.008 . S
C2985 C563 1.024 . S
C3004 C457 1.005 . S
C3021 C577 1.024 . S
C3040 C177 0.978 . S
C3057 C191 0.997 . S
C3076 C591 0.982 1_545 S
C3093 C605 1.021 . S
C3112 C205 1.029 . S
C3129 C619 1.027 . S
C3148 C555 0.963 . S
C3165 C485 0.980 . S
C3184 C633 1.040 . S
C3201 C647 1.026 1_565 S
C3220 C163 0.954 . S
C3237 C135 0.985 . S
C3256 C661 1.033 1_545 S
C3273 C134 0.448 . S
C3292 C8 0.467 . S
C3309 C22 0.443 . S
C3328 C148 0.453 . S
C3345 C162 0.442 . S
C3364 C36 0.449 . S
C3381 C120 0.446 . S
C3400 C50 0.435 . S
C3417 C64 0.442 . S
C3436 C218 0.434 . S
C3453 C78 0.449 . S
C3472 C176 0.459 . S
C3489 C190 0.442 . S
C3508 C92 0.451 . S
C3525 C204 0.443 . S
C3544 C106 0.453 . S
C3561 C232 0.448 . S
C3580 C260 0.467 . S
C3597 C246 0.449 . S
C3616 C652 0.457 . S
C3633 C274 0.444 . S
C3652 C666 0.432 . S
C3669 C638 0.444 . S
C3688 C288 0.432 . S
C3705 C624 0.442 . S
C3724 C302 0.448 . S
C3741 C582 0.447 . S
C3760 C316 0.439 . S
C3777 C330 0.448 . S
C3796 C610 0.468 . S
C3813 C470 0.449 . S
C3832 C344 0.466 . S
C3849 C484 0.442 . S
C3868 C358 0.446 . S
C3885 C372 0.442 . S
C3904 C498 0.434 . S
C3921 C456 0.449 . S
C3940 C386 0.459 . S
C3957 C554 0.448 . S
C3976 C400 0.442 . S
C3993 C512 0.449 . S
C4012 C414 0.458 . S
C4029 C428 0.443 . S
C4048 C526 0.455 . S
C4065 C540 0.445 . S
C4084 C442 0.433 . S
C4101 C596 0.444 . S
C4120 C568 0.432 . S
