# Generated by pormake.
# Topology snx, (6)-cn, num edge types: 1
# Building blocks:
#     Node 0, Type 0, BuildingBlock: IZENUY_clean_sbu_0, # of connection points: 6
#     Node 1, Type 0, BuildingBlock: IZENUY_clean_sbu_0, # of connection points: 6
#     Node 2, Type 0, BuildingBlock: IZENUY_clean_sbu_0, # of connection points: 6
#     Node 3, Type 0, BuildingBlock: IZENUY_clean_sbu_0, # of connection points: 6
#     Node 4, Type 0, BuildingBlock: IZENUY_clean_sbu_0, # of connection points: 6
#     Node 5, Type 0, BuildingBlock: IZENUY_clean_sbu_0, # of connection points: 6
#     Edge 6, Type (0, 0), BuildingBlock: OJICUG_clean_linker_0, # of connection points: 2
#     Edge 7, Type (0, 0), BuildingBlock: OJICUG_clean_linker_0, # of connection points: 2
#     Edge 8, Type (0, 0), BuildingBlock: OJICUG_clean_linker_0, # of connection points: 2
#     Edge 9, Type (0, 0), BuildingBlock: OJICUG_clean_linker_0, # of connection points: 2
#     Edge 10, Type (0, 0), BuildingBlock: OJICUG_clean_linker_0, # of connection points: 2
#     Edge 11, Type (0, 0), BuildingBlock: OJICUG_clean_linker_0, # of connection points: 2
#     Edge 12, Type (0, 0), BuildingBlock: OJICUG_clean_linker_0, # of connection points: 2
#     Edge 13, Type (0, 0), BuildingBlock: OJICUG_clean_linker_0, # of connection points: 2
#     Edge 14, Type (0, 0), BuildingBlock: OJICUG_clean_linker_0, # of connection points: 2
#     Edge 15, Type (0, 0), BuildingBlock: OJICUG_clean_linker_0, # of connection points: 2
#     Edge 16, Type (0, 0), BuildingBlock: OJICUG_clean_linker_0, # of connection points: 2
#     Edge 17, Type (0, 0), BuildingBlock: OJICUG_clean_linker_0, # of connection points: 2
#     Edge 18, Type (0, 0), BuildingBlock: OJICUG_clean_linker_0, # of connection points: 2
#     Edge 19, Type (0, 0), BuildingBlock: OJICUG_clean_linker_0, # of connection points: 2
#     Edge 20, Type (0, 0), BuildingBlock: OJICUG_clean_linker_0, # of connection points: 2
#     Edge 21, Type (0, 0), BuildingBlock: OJICUG_clean_linker_0, # of connection points: 2
#     Edge 22, Type (0, 0), BuildingBlock: OJICUG_clean_linker_0, # of connection points: 2
#     Edge 23, Type (0, 0), BuildingBlock: OJICUG_clean_linker_0, # of connection points: 2
# Relax obj value: 0.026
# Max RMSD: 0.069
# Mean RMSD: 0.067
data_MOF--net-snx--node1-IZENUY_clean_sbu_0--edge1-OJICUG_clean_linker_0
_symmetry_space_group_name_H-M    P1
_symmetry_Int_Tables_number       1
_symmetry_cell_setting            triclinic
loop_
_symmetry_equiv_pos_as_xyz
'x, y, z'
_cell_length_a     26.691604
_cell_length_b     26.76529
_cell_length_c     15.700472
_cell_angle_alpha  89.56645
_cell_angle_beta   90.490776
_cell_angle_gamma 120.1368
loop_
_atom_site_label
_atom_site_type_symbol
_atom_site_fract_x
_atom_site_fract_y
_atom_site_fract_z
_atom_type_partial_charge
Fe0 Fe 0.17313 0.31549 0.27941 0.0
Fe1 Fe 0.23293 0.43032 0.37532 0.0
O2 O 0.21163 0.39189 0.27795 0.0
Fe3 Fe 0.22839 0.42941 0.17918 0.0
O4 O 0.15218 0.39562 0.14948 0.0
O5 O 0.13149 0.30751 0.18191 0.0
O6 O 0.11409 0.31366 0.33864 0.0
C7 C 0.12043 0.33719 0.4104 0.0
C8 C 0.24721 0.33592 0.14797 0.0
O9 O 0.16977 0.37655 0.4354 0.0
C10 C 0.32923 0.49635 0.2676 0.0
O11 O 0.20734 0.30872 0.37719 0.0
O12 O 0.27558 0.39722 0.40638 0.0
O13 O 0.23745 0.37506 0.12139 0.0
O14 O 0.22997 0.31301 0.22035 0.0
C15 C 0.19813 0.49559 0.28454 0.0
O16 O 0.29947 0.49073 0.33301 0.0
O17 O 0.30593 0.46664 0.20161 0.0
C18 C 0.25457 0.34339 0.41375 0.0
O19 O 0.19222 0.46652 0.35132 0.0
O20 O 0.22229 0.49002 0.21924 0.0
C21 C 0.11876 0.34176 0.14461 0.0
Fe22 Fe 0.81437 0.22069 0.67437 0.0
Fe23 Fe 0.81353 0.21943 0.87026 0.0
O24 O 0.83407 0.20204 0.7728 0.0
Fe25 Fe 0.87453 0.16593 0.77325 0.0
O26 O 0.93397 0.22544 0.71685 0.0
O27 O 0.87922 0.23244 0.61756 0.0
O28 O 0.85317 0.29736 0.70014 0.0
C29 C 0.84518 0.31838 0.76702 0.0
C30 C 0.79622 0.11382 0.63574 0.0
O31 O 0.81989 0.2867 0.83081 0.0
C32 C 0.79641 0.10723 0.89985 0.0
O33 O 0.74611 0.21246 0.71241 0.0
O34 O 0.73703 0.17855 0.84258 0.0
O35 O 0.84318 0.12667 0.67363 0.0
O36 O 0.77385 0.14538 0.64217 0.0
C37 C 0.92308 0.24308 0.91208 0.0
O38 O 0.80314 0.15472 0.92666 0.0
O39 O 0.81792 0.10423 0.83 0.0
C40 C 0.71498 0.18633 0.77599 0.0
O41 O 0.88855 0.26214 0.90583 0.0
O42 O 0.91331 0.19803 0.87272 0.0
C43 C 0.92841 0.24298 0.64444 0.0
Fe44 Fe 0.72641 0.86556 0.27636 0.0
Fe45 Fe 0.61093 0.81135 0.17925 0.0
O46 O 0.6496 0.82852 0.27711 0.0
Fe47 Fe 0.61208 0.80881 0.3753 0.0
O48 O 0.66657 0.87355 0.43179 0.0
O49 O 0.7307 0.92608 0.33371 0.0
O50 O 0.73392 0.90545 0.17689 0.0
C51 C 0.6996 0.91846 0.1402 0.0
C52 C 0.69939 0.78719 0.41399 0.0
O53 O 0.64561 0.88706 0.14885 0.0
C54 C 0.54419 0.71155 0.26907 0.0
O55 O 0.72629 0.80689 0.21917 0.0
O56 O 0.66428 0.80066 0.12062 0.0
O57 O 0.64552 0.76679 0.40741 0.0
O58 O 0.73417 0.83326 0.37543 0.0
C59 C 0.54521 0.84228 0.28612 0.0
O60 O 0.57313 0.73446 0.20252 0.0
O61 O 0.5511 0.74133 0.33513 0.0
C62 C 0.70286 0.78979 0.14696 0.0
O63 O 0.55077 0.81862 0.22013 0.0
O64 O 0.57528 0.84877 0.35178 0.0
C65 C 0.70628 0.9219 0.40411 0.0
Fe66 Fe 0.87604 0.71494 0.78583 0.0
Fe67 Fe 0.81689 0.59993 0.88431 0.0
O68 O 0.83556 0.63848 0.78633 0.0
Fe69 Fe 0.81372 0.60093 0.68807 0.0
O70 O 0.87766 0.65441 0.62884 0.0
O71 O 0.93439 0.7149 0.72706 0.0
O72 O 0.9172 0.7213 0.88314 0.0
C73 C 0.92684 0.68551 0.92223 0.0
C74 C 0.79476 0.68974 0.6519 0.0
O75 O 0.89203 0.63196 0.91742 0.0
C76 C 0.71652 0.53497 0.79439 0.0
O77 O 0.82014 0.71921 0.84513 0.0
O78 O 0.80838 0.6544 0.94237 0.0
O79 O 0.77256 0.63577 0.65875 0.0
O80 O 0.84265 0.72343 0.68793 0.0
C81 C 0.84606 0.53316 0.77662 0.0
O82 O 0.73987 0.56443 0.8603 0.0
O83 O 0.74628 0.54069 0.72896 0.0
C84 C 0.80108 0.69527 0.91652 0.0
O85 O 0.82252 0.53908 0.84269 0.0
O86 O 0.8529 0.56312 0.71063 0.0
C87 C 0.92765 0.6913 0.65539 0.0
Fe88 Fe 0.17067 0.8622 0.28959 0.0
Fe89 Fe 0.23109 0.80819 0.19377 0.0
O90 O 0.21125 0.82634 0.29137 0.0
Fe91 Fe 0.23195 0.8085 0.38982 0.0
O92 O 0.15739 0.76582 0.42476 0.0
O93 O 0.13005 0.82792 0.38665 0.0
O94 O 0.11164 0.80331 0.23088 0.0
C95 C 0.11774 0.78586 0.15946 0.0
C96 C 0.24644 0.91943 0.42042 0.0
O97 O 0.16726 0.79769 0.13398 0.0
C98 C 0.33029 0.84186 0.29703 0.0
O99 O 0.20393 0.9032 0.19159 0.0
O100 O 0.27254 0.88362 0.16173 0.0
O101 O 0.24108 0.87213 0.4463 0.0
O102 O 0.22663 0.92326 0.34879 0.0
C103 C 0.19925 0.71002 0.28697 0.0
O104 O 0.29847 0.81514 0.23416 0.0
O105 O 0.30876 0.84984 0.36331 0.0
C106 C 0.25107 0.91608 0.15492 0.0
O107 O 0.19122 0.73168 0.22 0.0
O108 O 0.22563 0.74132 0.35062 0.0
C109 C 0.12159 0.7834 0.42718 0.0
Fe110 Fe 0.43609 0.22323 0.68975 0.0
Fe111 Fe 0.43566 0.21901 0.88578 0.0
O112 O 0.39775 0.20231 0.7872 0.0
Fe113 Fe 0.32114 0.16444 0.78603 0.0
O114 O 0.31855 0.10532 0.72636 0.0
O115 O 0.38161 0.16045 0.62948 0.0
O116 O 0.47184 0.18206 0.7135 0.0
C117 C 0.50124 0.18799 0.78007 0.0
C118 C 0.34959 0.24598 0.6521 0.0
O119 O 0.49619 0.21255 0.84531 0.0
C120 C 0.34252 0.23848 0.91774 0.0
O121 O 0.4971 0.28942 0.73214 0.0
O122 O 0.47301 0.29623 0.86335 0.0
O123 O 0.3145 0.19895 0.6885 0.0
O124 O 0.40348 0.26632 0.65912 0.0
C125 C 0.34756 0.11009 0.92079 0.0
O126 O 0.38157 0.22839 0.94407 0.0
O127 O 0.31931 0.22136 0.84544 0.0
C128 C 0.50258 0.31933 0.7973 0.0
O129 O 0.40158 0.14313 0.91536 0.0
O130 O 0.31314 0.12272 0.88341 0.0
C131 C 0.3417 0.11145 0.65434 0.0
C132 C 0.18671 0.57009 0.36362 0.0
C133 C 0.18669 0.54414 0.28628 0.0
H134 H 0.19057 0.64325 0.42428 0.0
C135 C 0.18253 0.56925 0.20943 0.0
H136 H 0.1897 0.55171 0.42383 0.0
C137 C 0.18258 0.62145 0.20962 0.0
C138 C 0.18754 0.64988 0.28667 0.0
H139 H 0.18176 0.5498 0.1488 0.0
H140 H 0.1822 0.6411 0.14922 0.0
C141 C 0.1875 0.62268 0.36377 0.0
C142 C 0.62688 0.17095 0.85412 0.0
C143 C 0.65472 0.17494 0.77681 0.0
H144 H 0.55605 0.17179 0.91553 0.0
C145 C 0.62712 0.17483 0.69996 0.0
H146 H 0.64686 0.17072 0.91436 0.0
C147 C 0.57481 0.17493 0.70055 0.0
C148 C 0.54953 0.1759 0.77808 0.0
H149 H 0.64725 0.17725 0.63927 0.0
H150 H 0.55617 0.17782 0.64045 0.0
C151 C 0.57498 0.17182 0.85474 0.0
C152 C 0.41783 0.57056 0.18899 0.0
C153 C 0.38964 0.54516 0.26595 0.0
H154 H 0.48953 0.64359 0.12929 0.0
C155 C 0.41715 0.57104 0.34317 0.0
H156 H 0.39779 0.55155 0.12847 0.0
C157 C 0.46918 0.62342 0.34369 0.0
C158 C 0.49522 0.65131 0.26698 0.0
H159 H 0.39713 0.55208 0.40367 0.0
H160 H 0.48774 0.64327 0.40448 0.0
C161 C 0.47031 0.62329 0.18951 0.0
C162 C 0.86199 0.46163 0.69509 0.0
C163 C 0.85667 0.48397 0.77326 0.0
H164 H 0.86279 0.39132 0.63134 0.0
C165 C 0.85584 0.4553 0.84893 0.0
H166 H 0.86303 0.4829 0.63563 0.0
C167 C 0.85588 0.40333 0.84645 0.0
C168 C 0.8566 0.37851 0.76821 0.0
H169 H 0.85279 0.47182 0.91029 0.0
H170 H 0.85284 0.38133 0.90605 0.0
C171 C 0.86193 0.40922 0.69258 0.0
C172 C 0.4678 0.85361 0.21451 0.0
C173 C 0.49635 0.85361 0.28996 0.0
H174 H 0.39381 0.8514 0.15792 0.0
C175 C 0.47405 0.85862 0.36843 0.0
H176 H 0.4843 0.85082 0.15298 0.0
C177 C 0.42161 0.85882 0.37137 0.0
C178 C 0.39089 0.85411 0.29587 0.0
H179 H 0.49526 0.85905 0.42776 0.0
H180 H 0.40356 0.85915 0.43275 0.0
C181 C 0.41586 0.85398 0.21742 0.0
C182 C 0.6287 0.4612 0.87467 0.0
C183 C 0.65619 0.48614 0.79702 0.0
H184 H 0.55778 0.38831 0.93611 0.0
C185 C 0.62808 0.45979 0.72047 0.0
H186 H 0.64924 0.48064 0.93475 0.0
C187 C 0.57613 0.40736 0.72127 0.0
C188 C 0.55092 0.37984 0.79865 0.0
H189 H 0.64756 0.47837 0.65955 0.0
H190 H 0.55704 0.38709 0.66091 0.0
C191 C 0.57636 0.40835 0.87548 0.0
C192 C 0.2909 0.29305 0.94479 0.0
C193 C 0.31925 0.26456 0.97649 0.0
H194 H 0.24666 0.3388 0.97438 0.0
C195 C 0.32452 0.2604 0.06512 0.0
H196 H 0.28641 0.29703 0.8768 0.0
C197 C 0.30095 0.28342 0.121 0.0
C198 C 0.27279 0.31211 0.08929 0.0
H199 H 0.34593 0.2384 0.09138 0.0
H200 H 0.30507 0.27907 0.18899 0.0
C201 C 0.26843 0.31715 1.00066 0.0
C202 C 0.03501 0.29708 0.6156 0.0
C203 C 0.97778 0.26842 0.58505 0.0
H204 H 0.12511 0.34216 0.58404 0.0
C205 C 0.96778 0.26306 0.49656 0.0
H206 H 0.04393 0.30186 0.68342 0.0
C207 C 1.01409 0.28515 0.43973 0.0
C208 C 0.07132 0.3141 0.47021 0.0
H209 H 0.92407 0.24078 0.4711 0.0
H210 H 1.0051 0.2799 0.37195 0.0
C211 C 0.08137 0.32028 0.55868 0.0
C212 C 0.72214 0.04692 1.00821 0.0
C213 C 0.76913 0.05656 0.95693 0.0
H214 H 0.66226 0.99446 0.10549 0.0
C215 C 0.79203 0.01965 0.96484 0.0
H216 H 0.70378 0.0749 1.00315 0.0
C217 C 0.76955 0.97501 1.02505 0.0
C218 C 0.7227 0.96547 0.07657 0.0
H219 H 0.82853 0.0265 0.92652 0.0
H220 H 0.78861 0.94768 1.03101 0.0
C221 C 0.69845 1.00109 0.06658 0.0
C222 C 0.68845 0.70459 0.50568 0.0
C223 C 0.72282 0.76134 0.47492 0.0
H224 H 0.68432 0.63704 0.58536 0.0
C225 C 0.78042 0.79409 0.50363 0.0
H226 H 0.64393 0.67827 0.4847 0.0
C227 C 0.80313 0.77095 0.56185 0.0
C228 C 0.76919 0.71407 0.59204 0.0
H229 H 0.80805 0.83805 0.48172 0.0
H230 H 0.84773 0.79759 0.58233 0.0
C231 C 0.71159 0.681 0.56317 0.0
C232 C 0.96733 0.69054 0.06809 0.0
C233 C 0.97592 0.70788 0.98223 0.0
H234 H 1.00568 0.70332 0.19288 0.0
C235 C 0.03108 0.75046 0.95526 0.0
H236 H 0.92479 0.65828 0.09029 0.0
C237 C 0.07725 0.77498 1.01299 0.0
C238 C 0.06857 0.75883 0.09934 0.0
H239 H 0.03841 0.76472 0.88943 0.0
H240 H 0.11954 0.80766 0.9905 0.0
C241 C 1.01322 0.71656 0.12665 0.0
C242 C 0.32125 0.07232 0.50583 0.0
C243 C 0.31767 0.06247 0.59435 0.0
H244 H 0.3005 0.03464 0.3811 0.0
C245 C 0.29047 1.00547 0.62487 0.0
H246 H 0.34167 0.1159 0.48053 0.0
C247 C 0.26796 0.95921 0.56806 0.0
C248 C 0.27099 0.96894 0.47955 0.0
H249 H 0.28719 0.99666 0.69269 0.0
H250 H 0.24742 0.91568 0.59358 0.0
C251 C 0.29749 0.02593 0.44893 0.0
C252 C 0.72325 0.77046 0.99929 0.0
C253 C 0.72647 0.76421 0.08789 0.0
H254 H 0.7453 0.75434 0.87543 0.0
C255 C 0.75389 0.73478 0.11945 0.0
H256 H 0.70272 0.79336 0.97319 0.0
C257 C 0.77737 0.71173 0.06352 0.0
C258 C 0.77504 0.71878 0.97497 0.0
H259 H 0.75693 0.72931 0.18739 0.0
H260 H 0.79829 0.68923 0.08978 0.0
C261 C 0.74789 0.74849 0.94336 0.0
C262 C 0.96939 0.71892 0.50975 0.0
C263 C 0.97718 0.71255 0.59693 0.0
H264 H 1.00987 0.7475 0.38782 0.0
C265 C 0.03249 0.72706 0.62738 0.0
H266 H 0.9272 0.70825 0.48484 0.0
C267 C 0.07931 0.74762 0.57128 0.0
C268 C 0.07167 0.75564 0.48468 0.0
H269 H 0.03938 0.72227 0.69434 0.0
H270 H 0.1218 0.7592 0.59596 0.0
C271 C 1.01648 0.74126 0.45438 0.0
C272 C 0.33419 0.98987 0.06673 0.0
C273 C 0.27673 0.96573 0.09508 0.0
H274 H 0.40208 0.05499 0.9898 0.0
C275 C 0.24312 0.98916 0.065 0.0
H276 H 0.36117 0.97277 0.08885 0.0
C277 C 0.26611 0.03536 1.00776 0.0
C278 C 0.32365 0.06004 0.97993 0.0
H279 H 0.19861 0.97145 0.08502 0.0
H280 H 0.23876 0.05217 0.98613 0.0
C281 C 0.35761 0.03695 1.0102 0.0
C282 C 0.36068 0.32945 0.56199 0.0
C283 C 0.32644 0.27239 0.59176 0.0
H284 H 0.36471 0.39724 0.48272 0.0
C285 C 0.26907 0.23955 0.56232 0.0
H286 H 0.40504 0.35585 0.58362 0.0
C287 C 0.24649 0.26274 0.50419 0.0
C288 C 0.28028 0.31979 0.4746 0.0
H289 H 0.2415 0.19537 0.58341 0.0
H290 H 0.20206 0.23584 0.48309 0.0
C291 C 0.3376 0.35315 0.50442 0.0
C292 C 0.99675 0.23649 1.00245 0.0
C293 C 0.97246 0.26936 0.97271 0.0
H294 H 0.06099 0.23322 0.08001 0.0
C295 C 0.9962 0.32667 1.00089 0.0
H296 H 0.97937 0.1921 0.98257 0.0
C297 C 0.04401 0.35076 0.05662 0.0
C298 C 0.06808 0.31754 0.08622 0.0
H299 H 0.97842 0.35306 0.97891 0.0
H300 H 0.06189 0.39514 0.07684 0.0
C301 C 0.04354 0.26007 0.05883 0.0
C302 C 0.78853 1.01184 0.46481 0.0
C303 C 0.7288 0.97267 0.46007 0.0
H304 H 0.85665 0.08675 0.526 0.0
C305 C 0.69093 0.98117 0.51164 0.0
H306 H 0.81856 1.006 0.42601 0.0
C307 C 0.71257 0.02823 0.56721 0.0
C308 C 0.77248 0.06618 0.57395 0.0
H309 H 0.64463 0.9515 0.50874 0.0
H310 H 0.68275 0.03401 0.60661 0.0
C311 C 0.81025 0.0577 0.52224 0.0
loop_
_geom_bond_atom_site_label_1
_geom_bond_atom_site_label_2
_geom_bond_distance
_geom_bond_site_symmetry_2
_ccdc_geom_bond_type
Fe0 O2 1.918 . S
Fe0 O5 1.997 . S
Fe0 O6 2.002 . S
Fe0 O11 1.976 . S
Fe0 O14 1.996 . S
Fe1 O2 1.918 . S
Fe1 O9 1.997 . S
Fe1 O12 1.996 . S
Fe1 O16 1.976 . S
Fe1 O19 2.002 . S
O2 Fe0 1.918 . S
O2 Fe1 1.918 . S
O2 Fe3 1.918 . S
Fe3 O2 1.918 . S
Fe3 O4 2.002 . S
Fe3 O13 1.976 . S
Fe3 O17 1.996 . S
Fe3 O20 1.997 . S
O4 Fe3 2.002 . S
O4 C21 1.295 . S
O5 Fe0 1.997 . S
O5 C21 1.235 . S
O6 Fe0 2.002 . S
O6 C7 1.295 . S
C7 O6 1.295 . S
C7 O9 1.235 . S
C8 O13 1.287 . S
C8 O14 1.255 . S
O9 Fe1 1.997 . S
O9 C7 1.235 . S
C10 O16 1.287 . S
C10 O17 1.255 . S
O11 Fe0 1.976 . S
O11 C18 1.287 . S
O12 Fe1 1.996 . S
O12 C18 1.255 . S
O13 Fe3 1.976 . S
O13 C8 1.287 . S
O14 Fe0 1.996 . S
O14 C8 1.255 . S
C15 O19 1.295 . S
C15 O20 1.235 . S
O16 Fe1 1.976 . S
O16 C10 1.287 . S
O17 Fe3 1.996 . S
O17 C10 1.255 . S
C18 O11 1.287 . S
C18 O12 1.255 . S
O19 Fe1 2.002 . S
O19 C15 1.295 . S
O20 Fe3 1.997 . S
O20 C15 1.235 . S
C21 O4 1.295 . S
C21 O5 1.235 . S
Fe22 O24 1.918 . S
Fe22 O27 1.997 . S
Fe22 O28 2.002 . S
Fe22 O33 1.976 . S
Fe22 O36 1.996 . S
Fe23 O24 1.918 . S
Fe23 O31 1.997 . S
Fe23 O34 1.996 . S
Fe23 O38 1.976 . S
Fe23 O41 2.002 . S
O24 Fe22 1.918 . S
O24 Fe23 1.918 . S
O24 Fe25 1.918 . S
Fe25 O24 1.918 . S
Fe25 O26 2.002 . S
Fe25 O35 1.976 . S
Fe25 O39 1.996 . S
Fe25 O42 1.997 . S
O26 Fe25 2.002 . S
O26 C43 1.295 . S
O27 Fe22 1.997 . S
O27 C43 1.235 . S
O28 Fe22 2.002 . S
O28 C29 1.295 . S
C29 O28 1.295 . S
C29 O31 1.235 . S
C30 O35 1.287 . S
C30 O36 1.255 . S
O31 Fe23 1.997 . S
O31 C29 1.235 . S
C32 O38 1.287 . S
C32 O39 1.255 . S
O33 Fe22 1.976 . S
O33 C40 1.287 . S
O34 Fe23 1.996 . S
O34 C40 1.255 . S
O35 Fe25 1.976 . S
O35 C30 1.287 . S
O36 Fe22 1.996 . S
O36 C30 1.255 . S
C37 O41 1.295 . S
C37 O42 1.235 . S
O38 Fe23 1.976 . S
O38 C32 1.287 . S
O39 Fe25 1.996 . S
O39 C32 1.255 . S
C40 O33 1.287 . S
C40 O34 1.255 . S
O41 Fe23 2.002 . S
O41 C37 1.295 . S
O42 Fe25 1.997 . S
O42 C37 1.235 . S
C43 O26 1.295 . S
C43 O27 1.235 . S
Fe44 O46 1.918 . S
Fe44 O49 1.997 . S
Fe44 O50 2.002 . S
Fe44 O55 1.976 . S
Fe44 O58 1.996 . S
Fe45 O46 1.918 . S
Fe45 O53 1.997 . S
Fe45 O56 1.996 . S
Fe45 O60 1.976 . S
Fe45 O63 2.002 . S
O46 Fe44 1.918 . S
O46 Fe45 1.918 . S
O46 Fe47 1.918 . S
Fe47 O46 1.918 . S
Fe47 O48 2.002 . S
Fe47 O57 1.976 . S
Fe47 O61 1.996 . S
Fe47 O64 1.997 . S
O48 Fe47 2.002 . S
O48 C65 1.295 . S
O49 Fe44 1.997 . S
O49 C65 1.235 . S
O50 Fe44 2.002 . S
O50 C51 1.295 . S
C51 O50 1.295 . S
C51 O53 1.235 . S
C52 O57 1.287 . S
C52 O58 1.255 . S
O53 Fe45 1.997 . S
O53 C51 1.235 . S
C54 O60 1.287 . S
C54 O61 1.255 . S
O55 Fe44 1.976 . S
O55 C62 1.287 . S
O56 Fe45 1.996 . S
O56 C62 1.255 . S
O57 Fe47 1.976 . S
O57 C52 1.287 . S
O58 Fe44 1.996 . S
O58 C52 1.255 . S
C59 O63 1.295 . S
C59 O64 1.235 . S
O60 Fe45 1.976 . S
O60 C54 1.287 . S
O61 Fe47 1.996 . S
O61 C54 1.255 . S
C62 O55 1.287 . S
C62 O56 1.255 . S
O63 Fe45 2.002 . S
O63 C59 1.295 . S
O64 Fe47 1.997 . S
O64 C59 1.235 . S
C65 O48 1.295 . S
C65 O49 1.235 . S
Fe66 O68 1.918 . S
Fe66 O71 1.997 . S
Fe66 O72 2.002 . S
Fe66 O77 1.976 . S
Fe66 O80 1.996 . S
Fe67 O68 1.918 . S
Fe67 O75 1.997 . S
Fe67 O78 1.996 . S
Fe67 O82 1.976 . S
Fe67 O85 2.002 . S
O68 Fe66 1.918 . S
O68 Fe67 1.918 . S
O68 Fe69 1.918 . S
Fe69 O68 1.918 . S
Fe69 O70 2.002 . S
Fe69 O79 1.976 . S
Fe69 O83 1.996 . S
Fe69 O86 1.997 . S
O70 Fe69 2.002 . S
O70 C87 1.295 . S
O71 Fe66 1.997 . S
O71 C87 1.235 . S
O72 Fe66 2.002 . S
O72 C73 1.295 . S
C73 O72 1.295 . S
C73 O75 1.235 . S
C74 O79 1.287 . S
C74 O80 1.255 . S
O75 Fe67 1.997 . S
O75 C73 1.235 . S
C76 O82 1.287 . S
C76 O83 1.255 . S
O77 Fe66 1.976 . S
O77 C84 1.287 . S
O78 Fe67 1.996 . S
O78 C84 1.255 . S
O79 Fe69 1.976 . S
O79 C74 1.287 . S
O80 Fe66 1.996 . S
O80 C74 1.255 . S
C81 O85 1.295 . S
C81 O86 1.235 . S
O82 Fe67 1.976 . S
O82 C76 1.287 . S
O83 Fe69 1.996 . S
O83 C76 1.255 . S
C84 O77 1.287 . S
C84 O78 1.255 . S
O85 Fe67 2.002 . S
O85 C81 1.295 . S
O86 Fe69 1.997 . S
O86 C81 1.235 . S
C87 O70 1.295 . S
C87 O71 1.235 . S
Fe88 O90 1.918 . S
Fe88 O93 1.997 . S
Fe88 O94 2.002 . S
Fe88 O99 1.976 . S
Fe88 O102 1.996 . S
Fe89 O90 1.918 . S
Fe89 O97 1.997 . S
Fe89 O100 1.996 . S
Fe89 O104 1.976 . S
Fe89 O107 2.002 . S
O90 Fe88 1.918 . S
O90 Fe89 1.918 . S
O90 Fe91 1.918 . S
Fe91 O90 1.918 . S
Fe91 O92 2.002 . S
Fe91 O101 1.976 . S
Fe91 O105 1.996 . S
Fe91 O108 1.997 . S
O92 Fe91 2.002 . S
O92 C109 1.295 . S
O93 Fe88 1.997 . S
O93 C109 1.235 . S
O94 Fe88 2.002 . S
O94 C95 1.295 . S
C95 O94 1.295 . S
C95 O97 1.235 . S
C96 O101 1.287 . S
C96 O102 1.255 . S
O97 Fe89 1.997 . S
O97 C95 1.235 . S
C98 O104 1.287 . S
C98 O105 1.255 . S
O99 Fe88 1.976 . S
O99 C106 1.287 . S
O100 Fe89 1.996 . S
O100 C106 1.255 . S
O101 Fe91 1.976 . S
O101 C96 1.287 . S
O102 Fe88 1.996 . S
O102 C96 1.255 . S
C103 O107 1.295 . S
C103 O108 1.235 . S
O104 Fe89 1.976 . S
O104 C98 1.287 . S
O105 Fe91 1.996 . S
O105 C98 1.255 . S
C106 O99 1.287 . S
C106 O100 1.255 . S
O107 Fe89 2.002 . S
O107 C103 1.295 . S
O108 Fe91 1.997 . S
O108 C103 1.235 . S
C109 O92 1.295 . S
C109 O93 1.235 . S
Fe110 O112 1.918 . S
Fe110 O115 1.997 . S
Fe110 O116 2.002 . S
Fe110 O121 1.976 . S
Fe110 O124 1.996 . S
Fe111 O112 1.918 . S
Fe111 O119 1.997 . S
Fe111 O122 1.996 . S
Fe111 O126 1.976 . S
Fe111 O129 2.002 . S
O112 Fe110 1.918 . S
O112 Fe111 1.918 . S
O112 Fe113 1.918 . S
Fe113 O112 1.918 . S
Fe113 O114 2.002 . S
Fe113 O123 1.976 . S
Fe113 O127 1.996 . S
Fe113 O130 1.997 . S
O114 Fe113 2.002 . S
O114 C131 1.295 . S
O115 Fe110 1.997 . S
O115 C131 1.235 . S
O116 Fe110 2.002 . S
O116 C117 1.295 . S
C117 O116 1.295 . S
C117 O119 1.235 . S
C118 O123 1.287 . S
C118 O124 1.255 . S
O119 Fe111 1.997 . S
O119 C117 1.235 . S
C120 O126 1.287 . S
C120 O127 1.255 . S
O121 Fe110 1.976 . S
O121 C128 1.287 . S
O122 Fe111 1.996 . S
O122 C128 1.255 . S
O123 Fe113 1.976 . S
O123 C118 1.287 . S
O124 Fe110 1.996 . S
O124 C118 1.255 . S
C125 O129 1.295 . S
C125 O130 1.235 . S
O126 Fe111 1.976 . S
O126 C120 1.287 . S
O127 Fe113 1.996 . S
O127 C120 1.255 . S
C128 O121 1.287 . S
C128 O122 1.255 . S
O129 Fe111 2.002 . S
O129 C125 1.295 . S
O130 Fe113 1.997 . S
O130 C125 1.235 . S
C131 O114 1.295 . S
C131 O115 1.235 . S
C132 C133 1.387 . S
C132 H136 0.950 . S
C132 C141 1.390 . S
C133 C132 1.387 . S
C133 C135 1.387 . S
H134 C141 0.950 . S
C135 C133 1.387 . S
C135 C137 1.390 . S
C135 H139 0.950 . S
H136 C132 0.950 . S
C137 C135 1.390 . S
C137 C138 1.387 . S
C137 H140 0.950 . S
C138 C137 1.387 . S
C138 C141 1.387 . S
H139 C135 0.950 . S
H140 C137 0.950 . S
C141 C132 1.390 . S
C141 H134 0.950 . S
C141 C138 1.387 . S
C142 C143 1.387 . S
C142 H146 0.950 . S
C142 C151 1.390 . S
C143 C142 1.387 . S
C143 C145 1.387 . S
H144 C151 0.950 . S
C145 C143 1.387 . S
C145 C147 1.390 . S
C145 H149 0.950 . S
H146 C142 0.950 . S
C147 C145 1.390 . S
C147 C148 1.387 . S
C147 H150 0.950 . S
C148 C147 1.387 . S
C148 C151 1.387 . S
H149 C145 0.950 . S
H150 C147 0.950 . S
C151 C142 1.390 . S
C151 H144 0.950 . S
C151 C148 1.387 . S
C152 C153 1.387 . S
C152 H156 0.950 . S
C152 C161 1.390 . S
C153 C152 1.387 . S
C153 C155 1.387 . S
H154 C161 0.950 . S
C155 C153 1.387 . S
C155 C157 1.390 . S
C155 H159 0.950 . S
H156 C152 0.950 . S
C157 C155 1.390 . S
C157 C158 1.387 . S
C157 H160 0.950 . S
C158 C157 1.387 . S
C158 C161 1.387 . S
H159 C155 0.950 . S
H160 C157 0.950 . S
C161 C152 1.390 . S
C161 H154 0.950 . S
C161 C158 1.387 . S
C162 C163 1.387 . S
C162 H166 0.950 . S
C162 C171 1.390 . S
C163 C162 1.387 . S
C163 C165 1.387 . S
H164 C171 0.950 . S
C165 C163 1.387 . S
C165 C167 1.390 . S
C165 H169 0.950 . S
H166 C162 0.950 . S
C167 C165 1.390 . S
C167 C168 1.387 . S
C167 H170 0.950 . S
C168 C167 1.387 . S
C168 C171 1.387 . S
H169 C165 0.950 . S
H170 C167 0.950 . S
C171 C162 1.390 . S
C171 H164 0.950 . S
C171 C168 1.387 . S
C172 C173 1.387 . S
C172 H176 0.950 . S
C172 C181 1.390 . S
C173 C172 1.387 . S
C173 C175 1.387 . S
H174 C181 0.950 . S
C175 C173 1.387 . S
C175 C177 1.390 . S
C175 H179 0.950 . S
H176 C172 0.950 . S
C177 C175 1.390 . S
C177 C178 1.387 . S
C177 H180 0.950 . S
C178 C177 1.387 . S
C178 C181 1.387 . S
H179 C175 0.950 . S
H180 C177 0.950 . S
C181 C172 1.390 . S
C181 H174 0.950 . S
C181 C178 1.387 . S
C182 C183 1.387 . S
C182 H186 0.950 . S
C182 C191 1.390 . S
C183 C182 1.387 . S
C183 C185 1.387 . S
H184 C191 0.950 . S
C185 C183 1.387 . S
C185 C187 1.390 . S
C185 H189 0.950 . S
H186 C182 0.950 . S
C187 C185 1.390 . S
C187 C188 1.387 . S
C187 H190 0.950 . S
C188 C187 1.387 . S
C188 C191 1.387 . S
H189 C185 0.950 . S
H190 C187 0.950 . S
C191 C182 1.390 . S
C191 H184 0.950 . S
C191 C188 1.387 . S
C192 C193 1.387 . S
C192 H196 0.950 . S
C192 C201 1.390 . S
C193 C192 1.387 . S
C193 C195 1.387 1_556 S
H194 C201 0.950 . S
C195 C193 1.387 1_554 S
C195 C197 1.390 . S
C195 H199 0.950 . S
H196 C192 0.950 . S
C197 C195 1.390 . S
C197 C198 1.387 . S
C197 H200 0.950 . S
C198 C197 1.387 . S
C198 C201 1.387 1_554 S
H199 C195 0.950 . S
H200 C197 0.950 . S
C201 C192 1.390 . S
C201 H194 0.950 . S
C201 C198 1.387 1_556 S
C202 C203 1.387 1_455 S
C202 H206 0.950 . S
C202 C211 1.390 . S
C203 C202 1.387 1_655 S
C203 C205 1.387 . S
H204 C211 0.950 . S
C205 C203 1.387 . S
C205 C207 1.390 . S
C205 H209 0.950 . S
H206 C202 0.950 . S
C207 C205 1.390 . S
C207 C208 1.387 1_655 S
C207 H210 0.950 . S
C208 C207 1.387 1_455 S
C208 C211 1.387 . S
H209 C205 0.950 . S
H210 C207 0.950 . S
C211 C202 1.390 . S
C211 H204 0.950 . S
C211 C208 1.387 . S
C212 C213 1.387 . S
C212 H216 0.950 . S
C212 C221 1.390 1_546 S
C213 C212 1.387 . S
C213 C215 1.387 . S
H214 C221 0.950 . S
C215 C213 1.387 . S
C215 C217 1.390 1_546 S
C215 H219 0.950 . S
H216 C212 0.950 . S
C217 C215 1.390 1_564 S
C217 C218 1.387 . S
C217 H220 0.950 . S
C218 C217 1.387 . S
C218 C221 1.387 . S
H219 C215 0.950 . S
H220 C217 0.950 . S
C221 C212 1.390 1_564 S
C221 H214 0.950 . S
C221 C218 1.387 . S
C222 C223 1.387 . S
C222 H226 0.950 . S
C222 C231 1.390 . S
C223 C222 1.387 . S
C223 C225 1.387 . S
H224 C231 0.950 . S
C225 C223 1.387 . S
C225 C227 1.390 . S
C225 H229 0.950 . S
H226 C222 0.950 . S
C227 C225 1.390 . S
C227 C228 1.387 . S
C227 H230 0.950 . S
C228 C227 1.387 . S
C228 C231 1.387 . S
H229 C225 0.950 . S
H230 C227 0.950 . S
C231 C222 1.390 . S
C231 H224 0.950 . S
C231 C228 1.387 . S
C232 C233 1.387 1_554 S
C232 H236 0.950 . S
C232 C241 1.390 . S
C233 C232 1.387 1_556 S
C233 C235 1.387 1_655 S
H234 C241 0.950 . S
C235 C233 1.387 1_455 S
C235 C237 1.390 . S
C235 H239 0.950 . S
H236 C232 0.950 . S
C237 C235 1.390 . S
C237 C238 1.387 1_556 S
C237 H240 0.950 . S
C238 C237 1.387 1_554 S
C238 C241 1.387 1_455 S
H239 C235 0.950 . S
H240 C237 0.950 . S
C241 C232 1.390 . S
C241 H234 0.950 . S
C241 C238 1.387 1_655 S
C242 C243 1.387 . S
C242 H246 0.950 . S
C242 C251 1.390 1_545 S
C243 C242 1.387 . S
C243 C245 1.387 . S
H244 C251 0.950 . S
C245 C243 1.387 . S
C245 C247 1.390 1_545 S
C245 H249 0.950 . S
H246 C242 0.950 . S
C247 C245 1.390 1_565 S
C247 C248 1.387 . S
C247 H250 0.950 . S
C248 C247 1.387 . S
C248 C251 1.387 . S
H249 C245 0.950 . S
H250 C247 0.950 . S
C251 C242 1.390 1_565 S
C251 H244 0.950 . S
C251 C248 1.387 . S
C252 C253 1.387 1_556 S
C252 H256 0.950 . S
C252 C261 1.390 . S
C253 C252 1.387 1_554 S
C253 C255 1.387 . S
H254 C261 0.950 . S
C255 C253 1.387 . S
C255 C257 1.390 . S
C255 H259 0.950 . S
H256 C252 0.950 . S
C257 C255 1.390 . S
C257 C258 1.387 1_554 S
C257 H260 0.950 . S
C258 C257 1.387 1_556 S
C258 C261 1.387 . S
H259 C255 0.950 . S
H260 C257 0.950 . S
C261 C252 1.390 . S
C261 H254 0.950 . S
C261 C258 1.387 . S
C262 C263 1.387 . S
C262 H266 0.950 . S
C262 C271 1.390 . S
C263 C262 1.387 . S
C263 C265 1.387 1_655 S
H264 C271 0.950 . S
C265 C263 1.387 1_455 S
C265 C267 1.390 . S
C265 H269 0.950 . S
H266 C262 0.950 . S
C267 C265 1.390 . S
C267 C268 1.387 . S
C267 H270 0.950 . S
C268 C267 1.387 . S
C268 C271 1.387 1_455 S
H269 C265 0.950 . S
H270 C267 0.950 . S
C271 C262 1.390 . S
C271 H264 0.950 . S
C271 C268 1.387 1_655 S
C272 C273 1.387 . S
C272 H276 0.950 . S
C272 C281 1.390 1_564 S
C273 C272 1.387 . S
C273 C275 1.387 . S
H274 C281 0.950 . S
C275 C273 1.387 . S
C275 C277 1.390 1_564 S
C275 H279 0.950 . S
H276 C272 0.950 . S
C277 C275 1.390 1_546 S
C277 C278 1.387 . S
C277 H280 0.950 . S
C278 C277 1.387 . S
C278 C281 1.387 . S
H279 C275 0.950 . S
H280 C277 0.950 . S
C281 C272 1.390 1_546 S
C281 H274 0.950 . S
C281 C278 1.387 . S
C282 C283 1.387 . S
C282 H286 0.950 . S
C282 C291 1.390 . S
C283 C282 1.387 . S
C283 C285 1.387 . S
H284 C291 0.950 . S
C285 C283 1.387 . S
C285 C287 1.390 . S
C285 H289 0.950 . S
H286 C282 0.950 . S
C287 C285 1.390 . S
C287 C288 1.387 . S
C287 H290 0.950 . S
C288 C287 1.387 . S
C288 C291 1.387 . S
H289 C285 0.950 . S
H290 C287 0.950 . S
C291 C282 1.390 . S
C291 H284 0.950 . S
C291 C288 1.387 . S
C292 C293 1.387 1_554 S
C292 H296 0.950 . S
C292 C301 1.390 . S
C293 C292 1.387 1_556 S
C293 C295 1.387 1_655 S
H294 C301 0.950 . S
C295 C293 1.387 1_455 S
C295 C297 1.392 . S
C295 H299 0.949 . S
H296 C292 0.950 . S
C297 C295 1.392 . S
C297 C298 1.387 1_556 S
C297 H300 0.950 . S
C298 C297 1.387 1_554 S
C298 C301 1.387 1_455 S
H299 C295 0.949 . S
H300 C297 0.950 . S
C301 C292 1.390 . S
C301 H294 0.950 . S
C301 C298 1.387 1_655 S
C302 C303 1.387 . S
C302 H306 0.950 . S
C302 C311 1.390 1_565 S
C303 C302 1.387 . S
C303 C305 1.387 . S
H304 C311 0.950 . S
C305 C303 1.387 . S
C305 C307 1.390 1_565 S
C305 H309 0.950 . S
H306 C302 0.950 . S
C307 C305 1.390 1_545 S
C307 C308 1.387 . S
C307 H310 0.950 . S
C308 C307 1.387 . S
C308 C311 1.387 . S
H309 C305 0.950 . S
H310 C307 0.950 . S
C311 C302 1.390 1_545 S
C311 H304 0.950 . S
C311 C308 1.387 . S
C133 C15 1.476 . S
C138 C103 1.478 . S
C143 C40 1.464 . S
C148 C117 1.440 . S
C153 C10 1.430 . S
C158 C54 1.426 . S
C163 C81 1.474 . S
C168 C29 1.480 . S
C173 C59 1.443 . S
C178 C98 1.463 . S
C183 C76 1.428 . S
C188 C128 1.428 . S
C193 C120 1.485 . S
C198 C8 1.485 . S
C203 C43 1.542 . S
C208 C7 1.541 . S
C213 C32 1.518 . S
C218 C51 1.509 . S
C223 C52 1.485 . S
C228 C74 1.485 . S
C233 C73 1.541 . S
C238 C95 1.542 . S
C243 C131 1.510 . S
C248 C96 1.518 . S
C253 C62 1.485 . S
C258 C84 1.485 . S
C263 C87 1.541 . S
C268 C109 1.540 . S
C273 C106 1.517 . S
C278 C125 1.509 . S
C283 C118 1.485 . S
C288 C18 1.485 . S
C293 C37 1.540 . S
C298 C21 1.540 . S
C303 C65 1.508 . S
C308 C30 1.517 . S
