# Generated by pormake.
# Topology smw, (6)-cn, num edge types: 1
# Building blocks:
#     Node 0, Type 0, BuildingBlock: MIDCAF_clean_sbu_0, # of connection points: 6
#     Node 1, Type 0, BuildingBlock: MIDCAF_clean_sbu_0, # of connection points: 6
#     Node 2, Type 0, BuildingBlock: MIDCAF_clean_sbu_0, # of connection points: 6
#     Node 3, Type 0, BuildingBlock: MIDCAF_clean_sbu_0, # of connection points: 6
#     Node 4, Type 0, BuildingBlock: MIDCAF_clean_sbu_0, # of connection points: 6
#     Node 5, Type 0, BuildingBlock: MIDCAF_clean_sbu_0, # of connection points: 6
#     Node 6, Type 0, BuildingBlock: MIDCAF_clean_sbu_0, # of connection points: 6
#     Node 7, Type 0, BuildingBlock: MIDCAF_clean_sbu_0, # of connection points: 6
#     Node 8, Type 0, BuildingBlock: MIDCAF_clean_sbu_0, # of connection points: 6
#     Node 9, Type 0, BuildingBlock: MIDCAF_clean_sbu_0, # of connection points: 6
#     Node 10, Type 0, BuildingBlock: MIDCAF_clean_sbu_0, # of connection points: 6
#     Node 11, Type 0, BuildingBlock: MIDCAF_clean_sbu_0, # of connection points: 6
#     Edge 12, Type (0, 0), BuildingBlock: AJUNOK_clean_linker_0, # of connection points: 2
#     Edge 13, Type (0, 0), BuildingBlock: AJUNOK_clean_linker_0, # of connection points: 2
#     Edge 14, Type (0, 0), BuildingBlock: AJUNOK_clean_linker_0, # of connection points: 2
#     Edge 15, Type (0, 0), BuildingBlock: AJUNOK_clean_linker_0, # of connection points: 2
#     Edge 16, Type (0, 0), BuildingBlock: AJUNOK_clean_linker_0, # of connection points: 2
#     Edge 17, Type (0, 0), BuildingBlock: AJUNOK_clean_linker_0, # of connection points: 2
#     Edge 18, Type (0, 0), BuildingBlock: AJUNOK_clean_linker_0, # of connection points: 2
#     Edge 19, Type (0, 0), BuildingBlock: AJUNOK_clean_linker_0, # of connection points: 2
#     Edge 20, Type (0, 0), BuildingBlock: AJUNOK_clean_linker_0, # of connection points: 2
#     Edge 21, Type (0, 0), BuildingBlock: AJUNOK_clean_linker_0, # of connection points: 2
#     Edge 22, Type (0, 0), BuildingBlock: AJUNOK_clean_linker_0, # of connection points: 2
#     Edge 23, Type (0, 0), BuildingBlock: AJUNOK_clean_linker_0, # of connection points: 2
#     Edge 24, Type (0, 0), BuildingBlock: AJUNOK_clean_linker_0, # of connection points: 2
#     Edge 25, Type (0, 0), BuildingBlock: AJUNOK_clean_linker_0, # of connection points: 2
#     Edge 26, Type (0, 0), BuildingBlock: AJUNOK_clean_linker_0, # of connection points: 2
#     Edge 27, Type (0, 0), BuildingBlock: AJUNOK_clean_linker_0, # of connection points: 2
#     Edge 28, Type (0, 0), BuildingBlock: AJUNOK_clean_linker_0, # of connection points: 2
#     Edge 29, Type (0, 0), BuildingBlock: AJUNOK_clean_linker_0, # of connection points: 2
#     Edge 30, Type (0, 0), BuildingBlock: AJUNOK_clean_linker_0, # of connection points: 2
#     Edge 31, Type (0, 0), BuildingBlock: AJUNOK_clean_linker_0, # of connection points: 2
#     Edge 32, Type (0, 0), BuildingBlock: AJUNOK_clean_linker_0, # of connection points: 2
#     Edge 33, Type (0, 0), BuildingBlock: AJUNOK_clean_linker_0, # of connection points: 2
#     Edge 34, Type (0, 0), BuildingBlock: AJUNOK_clean_linker_0, # of connection points: 2
#     Edge 35, Type (0, 0), BuildingBlock: AJUNOK_clean_linker_0, # of connection points: 2
#     Edge 36, Type (0, 0), BuildingBlock: AJUNOK_clean_linker_0, # of connection points: 2
#     Edge 37, Type (0, 0), BuildingBlock: AJUNOK_clean_linker_0, # of connection points: 2
#     Edge 38, Type (0, 0), BuildingBlock: AJUNOK_clean_linker_0, # of connection points: 2
#     Edge 39, Type (0, 0), BuildingBlock: AJUNOK_clean_linker_0, # of connection points: 2
#     Edge 40, Type (0, 0), BuildingBlock: AJUNOK_clean_linker_0, # of connection points: 2
#     Edge 41, Type (0, 0), BuildingBlock: AJUNOK_clean_linker_0, # of connection points: 2
#     Edge 42, Type (0, 0), BuildingBlock: AJUNOK_clean_linker_0, # of connection points: 2
#     Edge 43, Type (0, 0), BuildingBlock: AJUNOK_clean_linker_0, # of connection points: 2
#     Edge 44, Type (0, 0), BuildingBlock: AJUNOK_clean_linker_0, # of connection points: 2
#     Edge 45, Type (0, 0), BuildingBlock: AJUNOK_clean_linker_0, # of connection points: 2
#     Edge 46, Type (0, 0), BuildingBlock: AJUNOK_clean_linker_0, # of connection points: 2
#     Edge 47, Type (0, 0), BuildingBlock: AJUNOK_clean_linker_0, # of connection points: 2
# Relax obj value: 0.362
# Max RMSD: 0.258
# Mean RMSD: 0.258
data_MOF--net-smw--node1-MIDCAF_clean_sbu_0--edge1-AJUNOK_clean_linker_0
_symmetry_space_group_name_H-M    P1
_symmetry_Int_Tables_number       1
_symmetry_cell_setting            triclinic
loop_
_symmetry_equiv_pos_as_xyz
'x, y, z'
_cell_length_a     44.381187
_cell_length_b     44.190708
_cell_length_c     12.516149
_cell_angle_alpha  89.529321
_cell_angle_beta   91.053381
_cell_angle_gamma 119.61643
loop_
_atom_site_label
_atom_site_type_symbol
_atom_site_fract_x
_atom_site_fract_y
_atom_site_fract_z
_atom_type_partial_charge
Zn0 Zn 0.43804 0.10818 0.66043 0.0
Zn1 Zn 0.42826 0.1237 0.219 0.0
Zn2 Zn 0.43095 0.11513 0.03295 0.0
C3 C 0.49419 0.13197 0.19132 0.0
C4 C 0.37641 0.05664 0.17923 0.0
O5 O 0.42453 0.15408 0.94448 0.0
O6 O 0.43187 0.12901 0.80593 0.0
C7 C 0.48014 0.11538 0.88035 0.0
O8 O 0.48175 0.12316 0.09554 0.0
O9 O 0.47613 0.13542 0.26185 0.0
O10 O 0.39048 0.07795 0.25491 0.0
O11 O 0.38752 0.06541 0.08342 0.0
O12 O 0.45528 0.11425 0.82407 0.0
O13 O 0.47845 0.11711 0.98194 0.0
O14 O 0.39003 0.0651 0.9639 0.0
O15 O 0.41555 0.08909 0.81449 0.0
C16 C 0.39182 0.06243 0.8622 0.0
O17 O 0.42574 0.16295 0.0527 0.0
O18 O 0.41687 0.16045 0.2263 0.0
C19 C 0.42602 0.1525 0.84274 0.0
C20 C 0.41931 0.17499 0.13759 0.0
Zn21 Zn 0.25341 0.35848 0.21323 0.0
Zn22 Zn 0.24903 0.3676 0.84714 0.0
Zn23 Zn 0.26549 0.38843 0.03952 0.0
C24 C 0.30162 0.36035 0.88159 0.0
C25 C 0.30263 0.43718 0.84408 0.0
O26 O 0.24422 0.40922 0.15715 0.0
O27 O 0.21096 0.36108 0.24536 0.0
C28 C 0.28485 0.33095 0.14661 0.0
O29 O 0.30496 0.38194 0.95549 0.0
O30 O 0.27188 0.33971 0.84368 0.0
O31 O 0.27851 0.4167 0.78122 0.0
O32 O 0.30227 0.42808 0.94115 0.0
O33 O 0.25634 0.31519 0.19511 0.0
O34 O 0.29053 0.35721 0.08829 0.0
O35 O 0.28751 0.42921 0.15359 0.0
O36 O 0.29896 0.40001 0.27425 0.0
C37 C 0.30527 0.42905 0.23516 0.0
O38 O 0.21422 0.37703 0.97637 0.0
O39 O 0.19842 0.34414 0.83367 0.0
C40 C 0.2203 0.39264 0.22553 0.0
C41 C 0.19195 0.36101 0.90136 0.0
Zn42 Zn 0.83837 0.26579 0.84057 0.0
Zn43 Zn 0.85027 0.29545 0.19508 0.0
Zn44 Zn 0.84272 0.28638 0.02341 0.0
C45 C 0.85621 0.35323 0.12794 0.0
C46 C 0.90282 0.29038 0.17707 0.0
O47 O 0.79898 0.23131 1.0114 0.0
O48 O 0.80233 0.21739 0.84496 0.0
C49 C 0.8256 0.32361 0.8361 0.0
O50 O 0.83577 0.33073 0.0586 0.0
O51 O 0.87624 0.34651 0.18275 0.0
O52 O 0.87765 0.27295 0.23765 0.0
O53 O 0.89654 0.30046 0.08617 0.0
O54 O 0.82724 0.30127 0.77767 0.0
O55 O 0.82956 0.32257 0.93805 0.0
O56 O 0.89403 0.29988 0.96782 0.0
O57 O 0.88491 0.2748 0.80984 0.0
C58 C 0.90556 0.29565 0.87878 0.0
O59 O 0.80495 0.2422 0.12146 0.0
O60 O 0.8033 0.27403 0.25323 0.0
C61 C 0.78793 0.20902 0.9344 0.0
C62 C 0.79199 0.24456 0.21055 0.0
Zn63 Zn 0.49899 0.85099 0.39007 0.0
Zn64 Zn 0.53324 0.83742 0.69194 0.0
Zn65 Zn 0.50373 0.84012 1.01333 0.0
C66 C 0.55672 0.89325 0.87912 0.0
C67 C 0.46699 0.82983 0.75664 0.0
O68 O 0.50939 0.80074 0.10804 0.0
O69 O 0.50562 0.82955 0.244 0.0
C70 C 0.54034 0.89412 0.17967 0.0
O71 O 0.54696 0.89204 0.97518 0.0
O72 O 0.54609 0.86386 0.83491 0.0
O73 O 0.48282 0.82735 0.67521 0.0
O74 O 0.4799 0.83372 0.85182 0.0
O75 O 0.51979 0.8674 0.2341 0.0
O76 O 0.54048 0.89025 0.07856 0.0
O77 O 0.45446 0.83231 0.07287 0.0
O78 O 0.4799 0.8429 0.22898 0.0
C79 C 0.45277 0.83573 0.17338 0.0
O80 O 0.51569 0.79842 1.00069 0.0
O81 O 0.53386 0.82633 0.85183 0.0
C82 C 0.50769 0.80345 0.20968 0.0
C83 C 0.52585 0.79897 0.9054 0.0
Zn84 Zn 0.65787 0.54441 0.67325 0.0
Zn85 Zn 0.66759 0.5819 0.34441 0.0
Zn86 Zn 0.66256 0.56845 0.03023 0.0
C87 C 0.61879 0.51236 0.22374 0.0
C88 C 0.64774 0.61172 0.14698 0.0
O89 O 0.71268 0.57644 0.97552 0.0
O90 O 0.68306 0.56139 0.82668 0.0
C91 C 0.62365 0.50761 0.89475 0.0
O92 O 0.62673 0.52316 0.12623 0.0
O93 O 0.63269 0.53138 0.30675 0.0
O94 O 0.66584 0.60143 0.1983 0.0
O95 O 0.64684 0.60774 0.04606 0.0
O96 O 0.64473 0.53307 0.83732 0.0
O97 O 0.62439 0.51368 0.99512 0.0
O98 O 0.64665 0.60005 0.93449 0.0
O99 O 0.65741 0.57228 0.81175 0.0
C100 C 0.64567 0.59254 0.83554 0.0
O101 O 0.7147 0.58322 0.08298 0.0
O102 O 0.7002 0.60232 0.21871 0.0
C103 C 0.7114 0.56896 0.87651 0.0
C104 C 0.71801 0.58943 0.18303 0.0
Zn105 Zn 0.05599 0.64506 0.16096 0.0
Zn106 Zn 0.06944 0.69661 0.67388 0.0
Zn107 Zn 0.06708 0.65422 0.98778 0.0
C108 C 0.01642 0.65194 0.83371 0.0
C109 C 0.08541 0.64035 0.72429 0.0
O110 O 0.10524 0.70015 0.0857 0.0
O111 O 0.10185 0.66915 0.22811 0.0
C112 C 0.00369 0.64974 0.12263 0.0
O113 O 0.01621 0.63957 0.92644 0.0
O114 O 0.04231 0.68154 0.81321 0.0
O115 O 0.08322 0.65953 0.65074 0.0
O116 O 0.07915 0.64313 0.82335 0.0
O117 O 0.02686 0.66605 0.19238 0.0
O118 O 0.01234 0.63995 0.03698 0.0
O119 O 0.07739 0.6138 0.04436 0.0
O120 O 0.03321 0.59336 0.15129 0.0
C121 C 0.05614 0.58959 0.10515 0.0
O122 O 0.10735 0.7075 0.97505 0.0
O123 O 0.07791 0.70748 0.83497 0.0
C124 C 0.11637 0.69794 0.18015 0.0
C125 C 0.10713 0.71994 0.88275 0.0
Zn126 Zn 0.81256 0.50047 0.3244 0.0
Zn127 Zn 0.84747 0.50866 0.66595 0.0
Zn128 Zn 0.83483 0.50789 0.4941 0.0
C129 C 0.90954 0.54719 0.58378 0.0
C130 C 0.81928 0.44213 0.64748 0.0
O131 O 0.79046 0.5192 0.47128 0.0
O132 O 0.76325 0.48388 0.33822 0.0
C133 C 0.87289 0.56164 0.31287 0.0
O134 O 0.88921 0.54986 0.51455 0.0
O135 O 0.89674 0.52264 0.65031 0.0
O136 O 0.81816 0.46142 0.71888 0.0
O137 O 0.8278 0.45478 0.55173 0.0
O138 O 0.84357 0.54766 0.26659 0.0
O139 O 0.87682 0.54918 0.4022 0.0
O140 O 0.82792 0.4577 0.43467 0.0
O141 O 0.82126 0.46654 0.26378 0.0
C142 C 0.82552 0.44895 0.3354 0.0
O143 O 0.80162 0.52198 0.58521 0.0
O144 O 0.83679 0.54337 0.72416 0.0
C145 C 0.76479 0.50599 0.40375 0.0
C146 C 0.80986 0.53868 0.67462 0.0
Zn147 Zn 0.29888 0.86392 0.71155 0.0
Zn148 Zn 0.29101 0.85274 0.34878 0.0
Zn149 Zn 0.29674 0.86082 0.52406 0.0
C150 C 0.33213 0.8286 0.37246 0.0
C151 C 0.32098 0.92071 0.35871 0.0
O152 O 0.2452 0.81991 0.58789 0.0
O153 O 0.26025 0.82004 0.75666 0.0
C154 C 0.35476 0.85727 0.66355 0.0
O155 O 0.33519 0.84658 0.45718 0.0
O156 O 0.30543 0.81851 0.31411 0.0
O157 O 0.32346 0.8989 0.30117 0.0
O158 O 0.3086 0.91172 0.45338 0.0
O159 O 0.34426 0.86793 0.73959 0.0
O160 O 0.33877 0.85046 0.57253 0.0
O161 O 0.31245 0.91579 0.57492 0.0
O162 O 0.29571 0.90564 0.74203 0.0
C163 C 0.3087 0.92692 0.66626 0.0
O164 O 0.2427 0.82035 0.47409 0.0
O165 O 0.24349 0.84075 0.31316 0.0
C166 C 0.23794 0.8068 0.68277 0.0
C167 C 0.22689 0.81922 0.38518 0.0
Zn168 Zn 0.45709 0.35677 0.15847 0.0
Zn169 Zn 0.45631 0.33492 0.69885 0.0
Zn170 Zn 0.45458 0.33872 0.52628 0.0
C171 C 0.4157 0.36242 0.6692 0.0
C172 C 0.52008 0.37925 0.68588 0.0
O173 O 0.44752 0.29402 0.43591 0.0
O174 O 0.45469 0.32857 0.30089 0.0
C175 C 0.4091 0.34629 0.363 0.0
O176 O 0.41317 0.34701 0.58015 0.0
O177 O 0.43945 0.3672 0.73493 0.0
O178 O 0.50482 0.35184 0.74062 0.0
O179 O 0.50546 0.38115 0.59743 0.0
O180 O 0.4365 0.35219 0.31377 0.0
O181 O 0.40986 0.34294 0.46475 0.0
O182 O 0.50267 0.38199 0.47735 0.0
O183 O 0.47617 0.3672 0.32169 0.0
C184 C 0.50344 0.3874 0.37664 0.0
O185 O 0.44485 0.28528 0.55324 0.0
O186 O 0.42322 0.28487 0.70958 0.0
C187 C 0.4481 0.29859 0.33459 0.0
C188 C 0.42818 0.26846 0.63637 0.0
Zn189 Zn 0.08156 0.45952 0.70001 0.0
Zn190 Zn 0.08918 0.43742 0.35918 0.0
Zn191 Zn 0.08157 0.44518 0.52688 0.0
C192 C 0.07281 0.486 0.33637 0.0
C193 C 0.03542 0.37841 0.38626 0.0
O194 O 0.118 0.43247 0.61906 0.0
O195 O 0.09979 0.43416 0.78029 0.0
C196 C 0.10036 0.52054 0.62763 0.0
O197 O 0.08504 0.49003 0.43294 0.0
O198 O 0.06543 0.45861 0.28626 0.0
O199 O 0.06402 0.38615 0.34433 0.0
O200 O 0.03478 0.39857 0.45929 0.0
O201 O 0.10784 0.50988 0.71208 0.0
O202 O 0.08795 0.49963 0.54654 0.0
O203 O 0.03206 0.40476 0.5802 0.0
O204 O 0.03073 0.43746 0.70913 0.0
C205 C 0.01618 0.40921 0.65767 0.0
O206 O 0.12819 0.43963 0.50994 0.0
O207 O 0.14017 0.46463 0.35294 0.0
C208 C 0.11735 0.42633 0.7205 0.0
C209 C 0.14908 0.45263 0.43116 0.0
Zn210 Zn 0.65628 0.10119 0.33888 0.0
Zn211 Zn 0.59784 0.06153 0.88964 0.0
Zn212 Zn 0.63222 0.08853 0.53639 0.0
C213 C 0.60464 0.02661 0.67175 0.0
C214 C 0.58324 0.09376 0.67368 0.0
O215 O 0.68673 0.12807 0.53894 0.0
O216 O 0.69461 0.0985 0.4186 0.0
C217 C 0.6112 0.03172 0.35841 0.0
O218 O 0.61301 0.0336 0.57357 0.0
O219 O 0.60696 0.05144 0.72962 0.0
O220 O 0.59805 0.08017 0.72916 0.0
O221 O 0.59254 0.10149 0.57653 0.0
O222 O 0.62203 0.05603 0.29092 0.0
O223 O 0.61698 0.0383 0.45925 0.0
O224 O 0.60324 0.10985 0.45955 0.0
O225 O 0.6409 0.13757 0.33134 0.0
C226 C 0.61309 0.13042 0.37865 0.0
O227 O 0.6742 0.11682 0.65052 0.0
O228 O 0.63476 0.08878 0.76961 0.0
C229 C 0.70723 0.12571 0.47338 0.0
C230 C 0.66638 0.1104 0.74889 0.0
Zn231 Zn 0.48961 0.60746 0.69749 0.0
Zn232 Zn 0.47345 0.6211 0.33673 0.0
Zn233 Zn 0.48215 0.6151 0.52351 0.0
C234 C 0.41986 0.5578 0.38345 0.0
C235 C 0.53648 0.62512 0.33856 0.0
O236 O 0.49102 0.66266 0.61084 0.0
O237 O 0.51813 0.65512 0.74821 0.0
C238 C 0.42352 0.56345 0.68864 0.0
O239 O 0.43215 0.56872 0.47815 0.0
O240 O 0.43543 0.57545 0.3029 0.0
O241 O 0.51849 0.63245 0.27581 0.0
O242 O 0.52614 0.61572 0.43509 0.0
O243 O 0.44354 0.58469 0.75766 0.0
O244 O 0.43347 0.56801 0.59033 0.0
O245 O 0.52908 0.61103 0.54735 0.0
O246 O 0.51326 0.57992 0.69483 0.0
C247 C 0.53467 0.59389 0.62092 0.0
O248 O 0.48569 0.66645 0.49672 0.0
O249 O 0.46195 0.65832 0.33589 0.0
C250 C 0.50811 0.67372 0.69987 0.0
C251 C 0.47506 0.67738 0.41682 0.0
C252 C 0.45334 0.2388 0.13158 0.0
C253 C 0.42072 0.20877 0.1417 0.0
C254 C 0.46167 0.26904 0.1899 0.0
C255 C 0.43759 0.26968 0.25977 0.0
H256 H 0.47374 0.23762 0.08874 0.0
H257 H 0.48779 0.29093 0.1868 0.0
S258 S 0.34633 0.20114 0.29305 0.0
N259 N 0.36244 0.18401 0.21029 0.0
N260 N 0.37824 0.24075 0.32045 0.0
C261 C 0.4038 0.24148 0.26042 0.0
C262 C 0.39523 0.21105 0.20027 0.0
C263 C 0.16636 0.4076 0.42704 0.0
C264 C 0.17518 0.44236 0.40915 0.0
C265 C 0.18181 0.39211 0.36922 0.0
C266 C 0.20657 0.41079 0.29073 0.0
H267 H 0.14487 0.39115 0.47741 0.0
H268 H 0.17287 0.36475 0.38267 0.0
S269 S 0.24214 0.50434 0.22548 0.0
N270 N 0.213 0.49633 0.31763 0.0
N271 N 0.24201 0.46731 0.20745 0.0
C272 C 0.21769 0.44646 0.2785 0.0
C273 C 0.20209 0.46224 0.33835 0.0
C274 C 0.75084 0.21643 0.35926 0.0
C275 C 0.76973 0.21357 0.27448 0.0
C276 C 0.73288 0.18885 0.43014 0.0
C277 C 0.73331 0.15743 0.41907 0.0
H278 H 0.74978 0.24016 0.37072 0.0
H279 H 0.71743 0.19175 0.49096 0.0
S280 S 0.78139 0.13787 0.21612 0.0
N281 N 0.78945 0.17765 0.18735 0.0
N282 N 0.75615 0.12593 0.32122 0.0
C283 C 0.75328 0.15482 0.33715 0.0
C284 C 0.77112 0.1827 0.26417 0.0
C285 C 0.51815 0.73143 0.33453 0.0
C286 C 0.48853 0.7145 0.39822 0.0
C287 C 0.52527 0.7614 0.27689 0.0
C288 C 0.50333 0.77562 0.28311 0.0
H289 H 0.53421 0.71966 0.3217 0.0
H290 H 0.54723 0.77271 0.2241 0.0
S291 S 0.42542 0.74402 0.45073 0.0
N292 N 0.43896 0.71566 0.47181 0.0
N293 N 0.45325 0.77329 0.36747 0.0
C294 C 0.47551 0.76089 0.35439 0.0
C295 C 0.4678 0.72984 0.41104 0.0
C296 C 0.74873 0.58051 0.33944 0.0
C297 C 0.72532 0.56663 0.2527 0.0
C298 C 0.75906 0.55973 0.39786 0.0
C299 C 0.7452 0.52411 0.37384 0.0
H300 H 0.76085 0.60803 0.35757 0.0
H301 H 0.77985 0.57228 0.45647 0.0
S302 S 0.67826 0.47433 0.16546 0.0
N303 N 0.6865 0.51483 0.15109 0.0
N304 N 0.70261 0.47507 0.26771 0.0
C305 C 0.71879 0.50937 0.29481 0.0
C306 C 0.70981 0.53082 0.23204 0.0
C307 C 0.17629 0.79165 0.26076 0.0
C308 C 0.19382 0.78865 0.35194 0.0
C309 C 0.15166 0.76228 0.20471 0.0
C310 C 0.1432 0.72871 0.23853 0.0
H311 H 0.18304 0.81706 0.22891 0.0
H312 H 0.13944 0.76599 0.13393 0.0
S313 S 0.17927 0.70636 0.47795 0.0
N314 N 0.19952 0.74928 0.47662 0.0
N315 N 0.1525 0.69392 0.3738 0.0
C316 C 0.15906 0.7252 0.33319 0.0
C317 C 0.18436 0.7552 0.38971 0.0
C318 C 0.51023 0.73141 0.69427 0.0
C319 C 0.5138 0.70607 0.75232 0.0
C320 C 0.51435 0.76148 0.74413 0.0
C321 C 0.52211 0.76732 0.85418 0.0
H322 H 0.50412 0.72803 0.60992 0.0
H323 H 0.51044 0.77965 0.69605 0.0
S324 S 0.53278 0.7085 0.04423 0.0
N325 N 0.52469 0.68846 0.92787 0.0
N326 N 0.53251 0.74512 1.0203 0.0
C327 C 0.52545 0.74213 0.91358 0.0
C328 C 0.52143 0.71156 0.863 0.0
C329 C 0.7318 0.54913 0.72311 0.0
C330 C 0.73876 0.56502 0.82422 0.0
C331 C 0.75518 0.54135 0.67497 0.0
C332 C 0.78703 0.54994 0.72418 0.0
H333 H 0.70744 0.54113 0.68191 0.0
H334 H 0.7474 0.52724 0.60045 0.0
S335 S 0.81823 0.59229 0.98995 0.0
N336 N 0.77981 0.58916 0.97309 0.0
N337 N 0.82467 0.5757 0.8808 0.0
C338 C 0.79488 0.56669 0.82472 0.0
C339 C 0.77059 0.57402 0.87495 0.0
C340 C 0.17338 0.78023 0.68193 0.0
C341 C 0.20324 0.77886 0.7132 0.0
C342 C 0.14193 0.76024 0.7353 0.0
C343 C 0.13959 0.73859 0.82186 0.0
H344 H 0.17487 0.79846 0.62101 0.0
H345 H 0.11979 0.763 0.71197 0.0
S346 S 0.20892 0.72096 0.91926 0.0
N347 N 0.2273 0.75047 0.82473 0.0
N348 N 0.16861 0.71323 0.92502 0.0
C349 C 0.16864 0.73506 0.84774 0.0
C350 C 0.20035 0.75507 0.79312 0.0
C351 C 0.398 0.21571 0.74759 0.0
C352 C 0.42028 0.23259 0.66159 0.0
C353 C 0.39905 0.18873 0.80295 0.0
C354 C 0.42148 0.17675 0.77212 0.0
H355 H 0.38164 0.22534 0.77838 0.0
H356 H 0.38322 0.17819 0.87316 0.0
S357 S 0.47948 0.20666 0.53868 0.0
N358 N 0.46168 0.23184 0.53854 0.0
N359 N 0.46262 0.17982 0.6407 0.0
C360 C 0.44085 0.19039 0.67875 0.0
C361 C 0.44032 0.21854 0.6233 0.0
C362 C 0.13518 0.38083 0.71837 0.0
C363 C 0.13513 0.40879 0.77 0.0
C364 C 0.15061 0.36299 0.76665 0.0
C365 C 0.16673 0.37249 0.86882 0.0
H366 H 0.12275 0.37229 0.6409 0.0
H367 H 0.15123 0.3426 0.72096 0.0
S368 S 0.1674 0.43985 0.04559 0.0
N369 N 0.1481 0.44221 0.93445 0.0
N370 N 0.17709 0.40879 0.02548 0.0
C371 C 0.16429 0.39866 0.92468 0.0
C372 C 0.14858 0.41681 0.87521 0.0
C373 C 0.72425 0.17719 0.95071 0.0
C374 C 0.75507 0.17594 0.93853 0.0
C375 C 0.6935 0.15291 0.89801 0.0
C376 C 0.69309 0.12697 0.83281 0.0
H377 H 0.72496 0.19948 0.98873 0.0
H378 H 0.67121 0.15676 0.89899 0.0
S379 S 0.76423 0.1072 0.80056 0.0
N380 N 0.78114 0.14237 0.87662 0.0
N381 N 0.72358 0.09712 0.77688 0.0
C382 C 0.72223 0.12259 0.83316 0.0
C383 C 0.75321 0.1469 0.8873 0.0
C384 C 0.34665 0.96245 0.20875 0.0
C385 C 0.33067 0.95478 0.30966 0.0
C386 C 0.35754 -0.00554 0.1591 0.0
C387 C 0.35342 0.02028 0.20927 0.0
H388 H 0.35205 0.94407 0.16862 0.0
H389 H 0.37188 -8e-05 0.08563 0.0
S390 S 0.30681 0.01129 0.46123 0.0
N391 N 0.30587 0.97367 0.44799 0.0
N392 N 0.32784 0.03484 0.3567 0.0
C393 C 0.33485 0.01211 0.30526 0.0
C394 C 0.32327 -0.02082 0.35532 0.0
C395 C 0.37892 0.3561 0.20545 0.0
C396 C 0.37693 0.33934 0.30327 0.0
C397 C 0.34883 0.35098 0.15012 0.0
C398 C 0.31536 0.3284 0.18916 0.0
H399 H 0.40398 0.37439 0.17333 0.0
H400 H 0.35198 0.36615 0.07873 0.0
S401 S 0.29625 0.27313 0.43206 0.0
N402 N 0.33897 0.29578 0.42963 0.0
N403 N 0.28256 0.28565 0.32608 0.0
C404 C 0.31317 0.30937 0.28283 0.0
C405 C 0.34385 0.31505 0.33985 0.0
C406 C -0.02711 0.3322 0.39152 0.0
C407 C 0.00309 0.35165 0.33311 0.0
C408 C 0.94124 0.31014 0.33988 0.0
C409 C 0.93814 0.30752 0.22705 0.0
H410 H -0.02655 0.33471 0.47744 0.0
H411 H 0.91859 0.29669 0.38936 0.0
S412 S 0.01015 0.35225 0.03718 0.0
N413 N 0.02856 0.36564 0.1561 0.0
N414 N -0.03122 0.3251 0.05961 0.0
C415 C -0.03154 0.32593 0.16793 0.0
C416 C 0.00095 0.34778 0.22072 0.0
C417 C 0.57522 0.93484 0.32585 0.0
C418 C 0.55794 0.92874 0.22661 0.0
C419 C 0.59245 0.9684 0.36974 0.0
C420 C 0.59172 -0.00384 0.31676 0.0
H421 H 0.57602 0.91378 0.36835 0.0
H422 H 0.6068 0.97272 0.44429 0.0
S423 S 0.54809 -0.0076 0.05654 0.0
N424 N 0.54037 0.95234 0.07747 0.0
N425 N 0.57131 0.01494 0.16097 0.0
C426 C 0.57385 -0.01008 0.21804 0.0
C427 C 0.55718 0.95621 0.17275 0.0
C428 C 0.60772 0.60225 0.29837 0.0
C429 C 0.62228 0.61866 0.20078 0.0
C430 C 0.58087 0.60545 0.34492 0.0
C431 C 0.56784 0.62554 0.29653 0.0
H432 H 0.61588 0.58543 0.33682 0.0
H433 H 0.5692 0.59073 0.41643 0.0
S434 S 0.60019 0.67726 0.04729 0.0
N435 N 0.62355 0.65775 0.06156 0.0
N436 N 0.57393 0.6647 0.14997 0.0
C437 C 0.58346 0.64348 0.20157 0.0
C438 C 0.61042 0.6398 0.15353 0.0
C439 C 0.92907 0.61715 0.31086 0.0
C440 C 0.90296 0.58864 0.25553 0.0
C441 C 0.96038 0.63969 0.26179 0.0
C442 C -0.03291 0.63388 0.15615 0.0
H443 H 0.92566 0.62145 0.39344 0.0
H444 H -0.0196 0.66022 0.31029 0.0
S445 S 0.9039 0.56622 0.97078 0.0
N446 N 0.88317 0.55867 0.08469 0.0
N447 N 0.9425 0.60044 0.99284 0.0
C448 C 0.93971 0.6074 0.0966 0.0
C449 C 0.90753 0.5848 0.14638 0.0
C450 C 0.60621 -0.01025 0.82037 0.0
C451 C 0.59347 -0.00796 0.71873 0.0
C452 C 0.59508 0.95744 0.86983 0.0
C453 C 0.57101 0.92629 0.81906 0.0
H454 H 0.62471 0.01315 0.86244 0.0
H455 H 0.60498 0.95686 0.94917 0.0
S456 S 0.526 0.91874 0.55984 0.0
N457 N 0.55278 0.96093 0.57439 0.0
N458 N 0.53283 0.90008 0.66519 0.0
C459 C 0.55793 0.92829 0.71766 0.0
C460 C 0.56892 0.96125 0.66797 0.0
C461 C 0.60033 0.56896 0.69492 0.0
C462 C 0.62336 0.59756 0.75818 0.0
C463 C 0.57316 0.56912 0.63794 0.0
C464 C 0.56907 0.59846 0.63957 0.0
H465 H 0.60127 0.54509 0.69714 0.0
H466 H 0.55376 0.54534 0.59961 0.0
S467 S 0.62637 0.68251 0.77429 0.0
N468 N 0.64305 0.65752 0.80794 0.0
N469 N 0.59253 0.65856 0.69592 0.0
C470 C 0.59405 0.62862 0.69265 0.0
C471 C 0.62113 0.62802 0.75368 0.0
C472 C 0.94979 0.61047 0.61185 0.0
C473 C 0.94435 0.57626 0.61059 0.0
C474 C -0.02448 0.63608 0.67805 0.0
C475 C -0.0045 0.62775 0.74764 0.0
H476 H 0.93168 0.61652 0.57152 0.0
H477 H -0.0225 0.66149 0.68216 0.0
S478 S -0.00531 0.54345 0.76341 0.0
N479 N -0.03506 0.53722 0.67179 0.0
N480 N 0.0107 0.58408 0.80358 0.0
C481 C -0.00786 0.5945 0.74101 0.0
C482 C -0.03269 0.56912 0.67003 0.0
C483 C 0.3146 -0.02542 0.78608 0.0
C484 C 0.32616 0.96446 0.69574 0.0
C485 C 0.3356 0.00646 0.83837 0.0
C486 C 0.36892 0.02984 0.80178 0.0
H487 H 0.28977 0.95678 0.82054 0.0
H488 H 0.32596 0.01244 0.90946 0.0
S489 S 0.41125 0.01661 0.56684 0.0
N490 N 0.3729 -0.01888 0.57065 0.0
N491 N 0.41217 0.04102 0.66735 0.0
C492 C 0.38016 0.02086 0.70844 0.0
C493 C 0.35881 -0.01172 0.65558 0.0
C494 C 0.32613 0.33714 0.75053 0.0
C495 C 0.33177 0.36219 0.82891 0.0
C496 C 0.35335 0.33935 0.69124 0.0
C497 C 0.38723 0.36644 0.70894 0.0
H498 H 0.30047 0.31532 0.73505 0.0
H499 H 0.34809 0.3185 0.63612 0.0
S500 S 0.41584 0.44031 0.89727 0.0
N501 N 0.37365 0.41651 0.91508 0.0
N502 N 0.42525 0.41997 0.80481 0.0
C503 C 0.3933 0.39232 0.78428 0.0
C504 C 0.36548 0.3903 0.84433 0.0
C505 C 0.95771 0.31913 0.76534 0.0
C506 C 0.93686 0.32502 0.83567 0.0
C507 C -0.01759 0.34627 0.70316 0.0
C508 C -0.01392 0.37976 0.70672 0.0
H509 H 0.95455 0.29332 0.75745 0.0
H510 H -0.00076 0.34116 0.654 0.0
S511 S 0.93532 0.40762 0.87088 0.0
N512 N 0.92042 0.36638 0.90229 0.0
N513 N -0.0342 0.41687 0.78244 0.0
C514 C -0.03516 0.3857 0.77524 0.0
C515 C 0.94052 0.35848 0.84058 0.0
C516 C 0.54544 0.15661 0.3162 0.0
C517 C 0.52835 0.13626 0.22501 0.0
C518 C 0.57448 0.1566 0.3625 0.0
C519 C 0.58722 0.13605 0.32004 0.0
H520 H 0.53568 0.17191 0.35422 0.0
H521 H 0.58672 0.17229 0.43253 0.0
S522 S 0.55425 0.0803 0.07899 0.0
N523 N 0.52817 0.09673 0.09105 0.0
N524 N 0.58276 0.09688 0.17825 0.0
C525 C 0.57189 0.11728 0.22573 0.0
C526 C 0.54241 0.11731 0.1782 0.0
C527 C 0.35323 0.46242 0.36832 0.0
C528 C 0.33133 0.46217 0.28479 0.0
C529 C 0.38093 0.49382 0.40675 0.0
C530 C 0.38701 0.52573 0.36379 0.0
H531 H 0.35001 0.43822 0.40083 0.0
H532 H 0.39858 0.49306 0.46625 0.0
S533 S 0.33574 0.53983 0.15216 0.0
N534 N 0.31693 0.49719 0.1652 0.0
N535 N 0.36782 0.55576 0.24081 0.0
C536 C 0.36412 0.52594 0.28545 0.0
C537 C 0.3365 0.49425 0.24509 0.0
C538 C 0.80732 0.39554 0.23223 0.0
C539 C 0.8324 0.42203 0.29759 0.0
C540 C 0.81582 0.37483 0.16982 0.0
C541 C 0.84983 0.38039 0.1699 0.0
H542 H 0.78111 0.39132 0.22783 0.0
H543 H 0.79539 0.35364 0.12435 0.0
S544 S 0.92555 0.44908 0.31973 0.0
N545 N 0.89281 0.45469 0.35301 0.0
N546 N 0.90917 0.41569 0.23643 0.0
C547 C 0.87538 0.40768 0.23254 0.0
C548 C 0.86657 0.42851 0.29637 0.0
C549 C 0.39542 0.84694 0.37193 0.0
C550 C 0.36176 0.8257 0.33017 0.0
C551 C 0.42451 0.84925 0.32189 0.0
C552 C 0.42128 0.83136 0.226 0.0
H553 H 0.39961 0.86314 0.44117 0.0
H554 H 0.4499 0.86636 0.35647 0.0
S555 S 0.33924 0.77096 0.08527 0.0
N556 N 0.327 0.78462 0.18954 0.0
N557 N 0.38195 0.7906 0.09338 0.0
C558 C 0.38793 0.80959 0.18405 0.0
C559 C 0.35816 0.80637 0.23658 0.0
C560 C 0.55872 0.46329 0.19678 0.0
C561 C 0.59165 0.47652 0.24486 0.0
C562 C 0.53033 0.43305 0.23645 0.0
C563 C 0.53423 0.41548 0.32537 0.0
H564 H 0.55444 0.47755 0.13303 0.0
H565 H 0.5049 0.42458 0.20135 0.0
S566 S 0.61669 0.43589 0.46373 0.0
N567 N 0.62759 0.46743 0.37545 0.0
N568 N 0.57448 0.41007 0.44777 0.0
C569 C 0.56761 0.4268 0.36751 0.0
C570 C 0.59632 0.45754 0.32773 0.0
C571 C 0.09417 0.54784 0.2828 0.0
C572 C 0.06843 0.51264 0.27812 0.0
C573 C 0.09155 0.57262 0.2184 0.0
C574 C 0.06316 0.5628 0.14783 0.0
H575 H 0.11637 0.5562 0.33619 0.0
H576 H 0.11098 0.59981 0.22734 0.0
S577 S -0.01033 0.474 0.10329 0.0
N578 N 0.01427 0.46912 0.19462 0.0
N579 N 0.00933 0.51601 0.07575 0.0
C580 C 0.03764 0.52777 0.14141 0.0
C581 C 0.04033 0.50257 0.20592 0.0
C582 C 0.41281 0.81695 0.65666 0.0
C583 C 0.43747 0.83552 0.73733 0.0
C584 C 0.38619 0.82433 0.63171 0.0
C585 C 0.38418 0.85126 0.68424 0.0
H586 H 0.41397 0.79645 0.61326 0.0
H587 H 0.36686 0.8086 0.57202 0.0
S588 S 0.44479 0.90971 0.89436 0.0
N589 N 0.45936 0.8829 0.86599 0.0
N590 N 0.41024 0.89767 0.81676 0.0
C591 C 0.40925 0.87047 0.76349 0.0
C592 C 0.43574 0.86244 0.79045 0.0
C593 C 0.59097 0.47289 0.73292 0.0
C594 C 0.59903 0.4738 0.84294 0.0
C595 C 0.56633 0.44223 0.68177 0.0
C596 C 0.54982 0.41048 0.73676 0.0
H597 H 0.60299 0.4962 0.68537 0.0
H598 H 0.55961 0.44375 0.59914 0.0
S599 S 0.56503 0.39759 0.02367 0.0
N600 N 0.5903 0.4397 1.00367 0.0
N601 N 0.54546 0.38146 0.90776 0.0
C602 C 0.55918 0.41055 0.84594 0.0
C603 C 0.58342 0.44222 0.89878 0.0
C604 C 0.12027 0.57757 0.71817 0.0
C605 C 0.10076 0.55436 0.63458 0.0
C606 C 0.11538 0.60544 0.74672 0.0
C607 C 0.09159 0.61193 0.69069 0.0
H608 H 0.13841 0.57321 0.76572 0.0
H609 H 0.13009 0.62181 0.81366 0.0
S610 S 0.0346 0.56035 0.4642 0.0
N611 N 0.05634 0.54016 0.49723 0.0
N612 N 0.04925 0.59423 0.54503 0.0
C613 C 0.07326 0.59033 0.60333 0.0
C614 C 0.07738 0.56119 0.57644 0.0
C615 C 0.53448 0.07588 0.79848 0.0
C616 C 0.55665 0.09972 0.72237 0.0
C617 C 0.50982 0.08129 0.85015 0.0
C618 C 0.50712 0.11105 0.82906 0.0
H619 H 0.53599 0.0527 0.81765 0.0
H620 H 0.49254 0.06191 0.9062 0.0
S621 S 0.55904 0.18152 0.63876 0.0
N622 N 0.5744 0.15435 0.62973 0.0
N623 N 0.52764 0.16423 0.72666 0.0
C624 C 0.52863 0.13481 0.75243 0.0
C625 C 0.55366 0.12929 0.69937 0.0
C626 C 0.36313 0.5117 0.66029 0.0
C627 C 0.39182 0.53196 0.72753 0.0
C628 C 0.3341 0.48124 0.69808 0.0
C629 C 0.33252 0.4702 0.80509 0.0
H630 H 0.3629 0.51962 0.57856 0.0
H631 H 0.31282 0.46625 0.6429 0.0
S632 S 0.40049 0.51479 1.01555 0.0
N633 N 0.4164 0.53874 0.90769 0.0
N634 N 0.36211 0.48292 0.97837 0.0
C635 C 0.36075 0.49083 0.87367 0.0
C636 C 0.39023 0.52133 0.83516 0.0
C637 C 0.80409 0.39638 0.78899 0.0
C638 C 0.81618 0.40831 0.68446 0.0
C639 C 0.80694 0.36905 0.83746 0.0
C640 C 0.82138 0.35177 0.7831 0.0
H641 H 0.79333 0.40911 0.83604 0.0
H642 H 0.79797 0.36161 0.91839 0.0
S643 S 0.85625 0.37157 0.50776 0.0
N644 N 0.84283 0.39981 0.52872 0.0
N645 N 0.84734 0.34796 0.61754 0.0
C646 C 0.83243 0.36242 0.67724 0.0
C647 C 0.82993 0.39063 0.62845 0.0
loop_
_geom_bond_atom_site_label_1
_geom_bond_atom_site_label_2
_geom_bond_distance
_geom_bond_site_symmetry_2
_ccdc_geom_bond_type
Zn0 O6 1.920 . S
Zn0 O12 1.898 . S
Zn0 O15 1.905 . S
Zn1 O9 1.905 . S
Zn1 O10 1.898 . S
Zn1 O18 1.920 . S
Zn2 O5 2.080 1_554 S
Zn2 O8 2.114 . S
Zn2 O11 2.120 . S
Zn2 O13 2.120 1_554 S
Zn2 O14 2.114 1_554 S
Zn2 O17 2.080 . S
C3 O8 1.166 . S
C3 O9 1.182 . S
C4 O10 1.167 . S
C4 O11 1.299 . S
O5 Zn2 2.080 1_556 S
O5 C19 1.305 . S
O6 Zn0 1.920 . S
O6 C19 1.234 . S
C7 O12 1.167 . S
C7 O13 1.299 . S
O8 Zn2 2.114 . S
O8 C3 1.166 . S
O9 Zn1 1.905 . S
O9 C3 1.182 . S
O10 Zn1 1.898 . S
O10 C4 1.167 . S
O11 Zn2 2.120 . S
O11 C4 1.299 . S
O12 Zn0 1.898 . S
O12 C7 1.167 . S
O13 Zn2 2.120 1_556 S
O13 C7 1.299 . S
O14 Zn2 2.114 1_556 S
O14 C16 1.166 . S
O15 Zn0 1.905 . S
O15 C16 1.182 . S
C16 O14 1.166 . S
C16 O15 1.182 . S
O17 Zn2 2.080 . S
O17 C20 1.305 . S
O18 Zn1 1.920 . S
O18 C20 1.234 . S
C19 O5 1.305 . S
C19 O6 1.234 . S
C20 O17 1.305 . S
C20 O18 1.234 . S
Zn21 O27 1.920 . S
Zn21 O33 1.898 . S
Zn21 O36 1.905 . S
Zn22 O30 1.905 . S
Zn22 O31 1.898 . S
Zn22 O39 1.920 . S
Zn23 O26 2.080 . S
Zn23 O29 2.114 1_554 S
Zn23 O32 2.120 1_554 S
Zn23 O34 2.120 . S
Zn23 O35 2.114 . S
Zn23 O38 2.080 1_554 S
C24 O29 1.166 . S
C24 O30 1.182 . S
C25 O31 1.167 . S
C25 O32 1.299 . S
O26 Zn23 2.080 . S
O26 C40 1.305 . S
O27 Zn21 1.920 . S
O27 C40 1.234 . S
C28 O33 1.167 . S
C28 O34 1.299 . S
O29 Zn23 2.114 1_556 S
O29 C24 1.166 . S
O30 Zn22 1.905 . S
O30 C24 1.182 . S
O31 Zn22 1.898 . S
O31 C25 1.167 . S
O32 Zn23 2.120 1_556 S
O32 C25 1.299 . S
O33 Zn21 1.898 . S
O33 C28 1.167 . S
O34 Zn23 2.120 . S
O34 C28 1.299 . S
O35 Zn23 2.114 . S
O35 C37 1.166 . S
O36 Zn21 1.905 . S
O36 C37 1.182 . S
C37 O35 1.166 . S
C37 O36 1.182 . S
O38 Zn23 2.080 1_556 S
O38 C41 1.305 . S
O39 Zn22 1.920 . S
O39 C41 1.234 . S
C40 O26 1.305 . S
C40 O27 1.234 . S
C41 O38 1.305 . S
C41 O39 1.234 . S
Zn42 O48 1.920 . S
Zn42 O54 1.898 . S
Zn42 O57 1.905 . S
Zn43 O51 1.905 . S
Zn43 O52 1.898 . S
Zn43 O60 1.920 . S
Zn44 O47 2.080 1_554 S
Zn44 O50 2.114 . S
Zn44 O53 2.120 . S
Zn44 O55 2.120 1_554 S
Zn44 O56 2.114 1_554 S
Zn44 O59 2.080 . S
C45 O50 1.166 . S
C45 O51 1.182 . S
C46 O52 1.167 . S
C46 O53 1.299 . S
O47 Zn44 2.080 1_556 S
O47 C61 1.305 . S
O48 Zn42 1.920 . S
O48 C61 1.234 . S
C49 O54 1.167 . S
C49 O55 1.299 . S
O50 Zn44 2.114 . S
O50 C45 1.166 . S
O51 Zn43 1.905 . S
O51 C45 1.182 . S
O52 Zn43 1.898 . S
O52 C46 1.167 . S
O53 Zn44 2.120 . S
O53 C46 1.299 . S
O54 Zn42 1.898 . S
O54 C49 1.167 . S
O55 Zn44 2.120 1_556 S
O55 C49 1.299 . S
O56 Zn44 2.114 1_556 S
O56 C58 1.166 . S
O57 Zn42 1.905 . S
O57 C58 1.182 . S
C58 O56 1.166 . S
C58 O57 1.182 . S
O59 Zn44 2.080 . S
O59 C62 1.305 . S
O60 Zn43 1.920 . S
O60 C62 1.234 . S
C61 O47 1.305 . S
C61 O48 1.234 . S
C62 O59 1.305 . S
C62 O60 1.234 . S
Zn63 O69 1.920 . S
Zn63 O75 1.898 . S
Zn63 O78 1.905 . S
Zn64 O72 1.905 . S
Zn64 O73 1.898 . S
Zn64 O81 1.920 . S
Zn65 O68 2.080 . S
Zn65 O71 2.114 1_554 S
Zn65 O74 2.120 1_554 S
Zn65 O76 2.120 . S
Zn65 O77 2.114 . S
Zn65 O80 2.080 1_554 S
C66 O71 1.166 . S
C66 O72 1.182 . S
C67 O73 1.167 . S
C67 O74 1.299 . S
O68 Zn65 2.080 . S
O68 C82 1.305 . S
O69 Zn63 1.920 . S
O69 C82 1.234 . S
C70 O75 1.167 . S
C70 O76 1.299 . S
O71 Zn65 2.114 1_556 S
O71 C66 1.166 . S
O72 Zn64 1.905 . S
O72 C66 1.182 . S
O73 Zn64 1.898 . S
O73 C67 1.167 . S
O74 Zn65 2.120 1_556 S
O74 C67 1.299 . S
O75 Zn63 1.898 . S
O75 C70 1.167 . S
O76 Zn65 2.120 . S
O76 C70 1.299 . S
O77 Zn65 2.114 . S
O77 C79 1.166 . S
O78 Zn63 1.905 . S
O78 C79 1.182 . S
C79 O77 1.166 . S
C79 O78 1.182 . S
O80 Zn65 2.080 1_556 S
O80 C83 1.305 . S
O81 Zn64 1.920 . S
O81 C83 1.234 . S
C82 O68 1.305 . S
C82 O69 1.234 . S
C83 O80 1.305 . S
C83 O81 1.234 . S
Zn84 O90 1.920 . S
Zn84 O96 1.898 . S
Zn84 O99 1.905 . S
Zn85 O93 1.905 . S
Zn85 O94 1.898 . S
Zn85 O102 1.920 . S
Zn86 O89 2.080 1_554 S
Zn86 O92 2.114 . S
Zn86 O95 2.120 . S
Zn86 O97 2.120 1_554 S
Zn86 O98 2.114 1_554 S
Zn86 O101 2.080 . S
C87 O92 1.166 . S
C87 O93 1.182 . S
C88 O94 1.167 . S
C88 O95 1.299 . S
O89 Zn86 2.080 1_556 S
O89 C103 1.305 . S
O90 Zn84 1.920 . S
O90 C103 1.234 . S
C91 O96 1.167 . S
C91 O97 1.299 . S
O92 Zn86 2.114 . S
O92 C87 1.166 . S
O93 Zn85 1.905 . S
O93 C87 1.182 . S
O94 Zn85 1.898 . S
O94 C88 1.167 . S
O95 Zn86 2.120 . S
O95 C88 1.299 . S
O96 Zn84 1.898 . S
O96 C91 1.167 . S
O97 Zn86 2.120 1_556 S
O97 C91 1.299 . S
O98 Zn86 2.114 1_556 S
O98 C100 1.166 . S
O99 Zn84 1.905 . S
O99 C100 1.182 . S
C100 O98 1.166 . S
C100 O99 1.182 . S
O101 Zn86 2.080 . S
O101 C104 1.305 . S
O102 Zn85 1.920 . S
O102 C104 1.234 . S
C103 O89 1.305 . S
C103 O90 1.234 . S
C104 O101 1.305 . S
C104 O102 1.234 . S
Zn105 O111 1.920 . S
Zn105 O117 1.898 . S
Zn105 O120 1.905 . S
Zn106 O114 1.905 . S
Zn106 O115 1.898 . S
Zn106 O123 1.920 . S
Zn107 O110 2.080 . S
Zn107 O113 2.114 1_554 S
Zn107 O116 2.120 1_554 S
Zn107 O118 2.120 . S
Zn107 O119 2.114 . S
Zn107 O122 2.080 1_554 S
C108 O113 1.166 . S
C108 O114 1.182 . S
C109 O115 1.167 . S
C109 O116 1.299 . S
O110 Zn107 2.080 . S
O110 C124 1.305 . S
O111 Zn105 1.920 . S
O111 C124 1.234 . S
C112 O117 1.167 . S
C112 O118 1.299 . S
O113 Zn107 2.114 1_556 S
O113 C108 1.166 . S
O114 Zn106 1.905 . S
O114 C108 1.182 . S
O115 Zn106 1.898 . S
O115 C109 1.167 . S
O116 Zn107 2.120 1_556 S
O116 C109 1.299 . S
O117 Zn105 1.898 . S
O117 C112 1.167 . S
O118 Zn107 2.120 . S
O118 C112 1.299 . S
O119 Zn107 2.114 . S
O119 C121 1.166 . S
O120 Zn105 1.905 . S
O120 C121 1.182 . S
C121 O119 1.166 . S
C121 O120 1.182 . S
O122 Zn107 2.080 1_556 S
O122 C125 1.305 . S
O123 Zn106 1.920 . S
O123 C125 1.234 . S
C124 O110 1.305 . S
C124 O111 1.234 . S
C125 O122 1.305 . S
C125 O123 1.234 . S
Zn126 O132 1.920 . S
Zn126 O138 1.898 . S
Zn126 O141 1.905 . S
Zn127 O135 1.905 . S
Zn127 O136 1.898 . S
Zn127 O144 1.920 . S
Zn128 O131 2.080 . S
Zn128 O134 2.114 . S
Zn128 O137 2.120 . S
Zn128 O139 2.120 . S
Zn128 O140 2.114 . S
Zn128 O143 2.080 . S
C129 O134 1.166 . S
C129 O135 1.182 . S
C130 O136 1.167 . S
C130 O137 1.299 . S
O131 Zn128 2.080 . S
O131 C145 1.305 . S
O132 Zn126 1.920 . S
O132 C145 1.234 . S
C133 O138 1.167 . S
C133 O139 1.299 . S
O134 Zn128 2.114 . S
O134 C129 1.166 . S
O135 Zn127 1.905 . S
O135 C129 1.182 . S
O136 Zn127 1.898 . S
O136 C130 1.167 . S
O137 Zn128 2.120 . S
O137 C130 1.299 . S
O138 Zn126 1.898 . S
O138 C133 1.167 . S
O139 Zn128 2.120 . S
O139 C133 1.299 . S
O140 Zn128 2.114 . S
O140 C142 1.166 . S
O141 Zn126 1.905 . S
O141 C142 1.182 . S
C142 O140 1.166 . S
C142 O141 1.182 . S
O143 Zn128 2.080 . S
O143 C146 1.305 . S
O144 Zn127 1.920 . S
O144 C146 1.234 . S
C145 O131 1.305 . S
C145 O132 1.234 . S
C146 O143 1.305 . S
C146 O144 1.234 . S
Zn147 O153 1.920 . S
Zn147 O159 1.898 . S
Zn147 O162 1.905 . S
Zn148 O156 1.905 . S
Zn148 O157 1.898 . S
Zn148 O165 1.920 . S
Zn149 O152 2.080 . S
Zn149 O155 2.114 . S
Zn149 O158 2.120 . S
Zn149 O160 2.120 . S
Zn149 O161 2.114 . S
Zn149 O164 2.080 . S
C150 O155 1.166 . S
C150 O156 1.182 . S
C151 O157 1.167 . S
C151 O158 1.299 . S
O152 Zn149 2.080 . S
O152 C166 1.305 . S
O153 Zn147 1.920 . S
O153 C166 1.234 . S
C154 O159 1.167 . S
C154 O160 1.299 . S
O155 Zn149 2.114 . S
O155 C150 1.166 . S
O156 Zn148 1.905 . S
O156 C150 1.182 . S
O157 Zn148 1.898 . S
O157 C151 1.167 . S
O158 Zn149 2.120 . S
O158 C151 1.299 . S
O159 Zn147 1.898 . S
O159 C154 1.167 . S
O160 Zn149 2.120 . S
O160 C154 1.299 . S
O161 Zn149 2.114 . S
O161 C163 1.166 . S
O162 Zn147 1.905 . S
O162 C163 1.182 . S
C163 O161 1.166 . S
C163 O162 1.182 . S
O164 Zn149 2.080 . S
O164 C167 1.305 . S
O165 Zn148 1.920 . S
O165 C167 1.234 . S
C166 O152 1.305 . S
C166 O153 1.234 . S
C167 O164 1.305 . S
C167 O165 1.234 . S
Zn168 O174 1.920 . S
Zn168 O180 1.898 . S
Zn168 O183 1.905 . S
Zn169 O177 1.905 . S
Zn169 O178 1.898 . S
Zn169 O186 1.920 . S
Zn170 O173 2.080 . S
Zn170 O176 2.114 . S
Zn170 O179 2.120 . S
Zn170 O181 2.120 . S
Zn170 O182 2.114 . S
Zn170 O185 2.080 . S
C171 O176 1.166 . S
C171 O177 1.182 . S
C172 O178 1.167 . S
C172 O179 1.299 . S
O173 Zn170 2.080 . S
O173 C187 1.305 . S
O174 Zn168 1.920 . S
O174 C187 1.234 . S
C175 O180 1.167 . S
C175 O181 1.299 . S
O176 Zn170 2.114 . S
O176 C171 1.166 . S
O177 Zn169 1.905 . S
O177 C171 1.182 . S
O178 Zn169 1.898 . S
O178 C172 1.167 . S
O179 Zn170 2.120 . S
O179 C172 1.299 . S
O180 Zn168 1.898 . S
O180 C175 1.167 . S
O181 Zn170 2.120 . S
O181 C175 1.299 . S
O182 Zn170 2.114 . S
O182 C184 1.166 . S
O183 Zn168 1.905 . S
O183 C184 1.182 . S
C184 O182 1.166 . S
C184 O183 1.182 . S
O185 Zn170 2.080 . S
O185 C188 1.305 . S
O186 Zn169 1.920 . S
O186 C188 1.234 . S
C187 O173 1.305 . S
C187 O174 1.234 . S
C188 O185 1.305 . S
C188 O186 1.234 . S
Zn189 O195 1.920 . S
Zn189 O201 1.898 . S
Zn189 O204 1.905 . S
Zn190 O198 1.905 . S
Zn190 O199 1.898 . S
Zn190 O207 1.920 . S
Zn191 O194 2.080 . S
Zn191 O197 2.114 . S
Zn191 O200 2.120 . S
Zn191 O202 2.120 . S
Zn191 O203 2.114 . S
Zn191 O206 2.080 . S
C192 O197 1.166 . S
C192 O198 1.182 . S
C193 O199 1.167 . S
C193 O200 1.299 . S
O194 Zn191 2.080 . S
O194 C208 1.305 . S
O195 Zn189 1.920 . S
O195 C208 1.234 . S
C196 O201 1.167 . S
C196 O202 1.299 . S
O197 Zn191 2.114 . S
O197 C192 1.166 . S
O198 Zn190 1.905 . S
O198 C192 1.182 . S
O199 Zn190 1.898 . S
O199 C193 1.167 . S
O200 Zn191 2.120 . S
O200 C193 1.299 . S
O201 Zn189 1.898 . S
O201 C196 1.167 . S
O202 Zn191 2.120 . S
O202 C196 1.299 . S
O203 Zn191 2.114 . S
O203 C205 1.166 . S
O204 Zn189 1.905 . S
O204 C205 1.182 . S
C205 O203 1.166 . S
C205 O204 1.182 . S
O206 Zn191 2.080 . S
O206 C209 1.305 . S
O207 Zn190 1.920 . S
O207 C209 1.234 . S
C208 O194 1.305 . S
C208 O195 1.234 . S
C209 O206 1.305 . S
C209 O207 1.234 . S
Zn210 O216 1.920 . S
Zn210 O222 1.898 . S
Zn210 O225 1.905 . S
Zn211 O219 1.905 . S
Zn211 O220 1.898 . S
Zn211 O228 1.920 . S
Zn212 O215 2.080 . S
Zn212 O218 2.114 . S
Zn212 O221 2.120 . S
Zn212 O223 2.120 . S
Zn212 O224 2.114 . S
Zn212 O227 2.080 . S
C213 O218 1.166 . S
C213 O219 1.182 . S
C214 O220 1.167 . S
C214 O221 1.299 . S
O215 Zn212 2.080 . S
O215 C229 1.305 . S
O216 Zn210 1.920 . S
O216 C229 1.234 . S
C217 O222 1.167 . S
C217 O223 1.299 . S
O218 Zn212 2.114 . S
O218 C213 1.166 . S
O219 Zn211 1.905 . S
O219 C213 1.182 . S
O220 Zn211 1.898 . S
O220 C214 1.167 . S
O221 Zn212 2.120 . S
O221 C214 1.299 . S
O222 Zn210 1.898 . S
O222 C217 1.167 . S
O223 Zn212 2.120 . S
O223 C217 1.299 . S
O224 Zn212 2.114 . S
O224 C226 1.166 . S
O225 Zn210 1.905 . S
O225 C226 1.182 . S
C226 O224 1.166 . S
C226 O225 1.182 . S
O227 Zn212 2.080 . S
O227 C230 1.305 . S
O228 Zn211 1.920 . S
O228 C230 1.234 . S
C229 O215 1.305 . S
C229 O216 1.234 . S
C230 O227 1.305 . S
C230 O228 1.234 . S
Zn231 O237 1.920 . S
Zn231 O243 1.898 . S
Zn231 O246 1.905 . S
Zn232 O240 1.905 . S
Zn232 O241 1.898 . S
Zn232 O249 1.920 . S
Zn233 O236 2.080 . S
Zn233 O239 2.114 . S
Zn233 O242 2.120 . S
Zn233 O244 2.120 . S
Zn233 O245 2.114 . S
Zn233 O248 2.080 . S
C234 O239 1.166 . S
C234 O240 1.182 . S
C235 O241 1.167 . S
C235 O242 1.299 . S
O236 Zn233 2.080 . S
O236 C250 1.305 . S
O237 Zn231 1.920 . S
O237 C250 1.234 . S
C238 O243 1.167 . S
C238 O244 1.299 . S
O239 Zn233 2.114 . S
O239 C234 1.166 . S
O240 Zn232 1.905 . S
O240 C234 1.182 . S
O241 Zn232 1.898 . S
O241 C235 1.167 . S
O242 Zn233 2.120 . S
O242 C235 1.299 . S
O243 Zn231 1.898 . S
O243 C238 1.167 . S
O244 Zn233 2.120 . S
O244 C238 1.299 . S
O245 Zn233 2.114 . S
O245 C247 1.166 . S
O246 Zn231 1.905 . S
O246 C247 1.182 . S
C247 O245 1.166 . S
C247 O246 1.182 . S
O248 Zn233 2.080 . S
O248 C251 1.305 . S
O249 Zn232 1.920 . S
O249 C251 1.234 . S
C250 O236 1.305 . S
C250 O237 1.234 . S
C251 O248 1.305 . S
C251 O249 1.234 . S
C252 C253 1.369 . S
C252 C254 1.419 . S
C252 H256 0.930 . S
C253 C252 1.369 . S
C253 C262 1.429 . S
C254 C252 1.419 . S
C254 C255 1.363 . S
C254 H257 0.929 . S
C255 C254 1.363 . S
C255 C261 1.428 . S
H256 C252 0.930 . S
H257 C254 0.929 . S
S258 N259 1.613 . S
S258 N260 1.610 . S
N259 S258 1.613 . S
N259 C262 1.350 . S
N260 S258 1.610 . S
N260 C261 1.351 . S
C261 C255 1.428 . S
C261 N260 1.351 . S
C261 C262 1.434 . S
C262 C253 1.429 . S
C262 N259 1.350 . S
C262 C261 1.434 . S
C263 C264 1.369 . S
C263 C265 1.419 . S
C263 H267 0.930 . S
C264 C263 1.369 . S
C264 C273 1.429 . S
C265 C263 1.419 . S
C265 C266 1.363 . S
C265 H268 0.929 . S
C266 C265 1.363 . S
C266 C272 1.428 . S
H267 C263 0.930 . S
H268 C265 0.929 . S
S269 N270 1.613 . S
S269 N271 1.610 . S
N270 S269 1.613 . S
N270 C273 1.350 . S
N271 S269 1.610 . S
N271 C272 1.351 . S
C272 C266 1.428 . S
C272 N271 1.351 . S
C272 C273 1.434 . S
C273 C264 1.429 . S
C273 N270 1.350 . S
C273 C272 1.434 . S
C274 C275 1.369 . S
C274 C276 1.419 . S
C274 H278 0.930 . S
C275 C274 1.369 . S
C275 C284 1.429 . S
C276 C274 1.419 . S
C276 C277 1.363 . S
C276 H279 0.929 . S
C277 C276 1.363 . S
C277 C283 1.428 . S
H278 C274 0.930 . S
H279 C276 0.929 . S
S280 N281 1.613 . S
S280 N282 1.610 . S
N281 S280 1.613 . S
N281 C284 1.350 . S
N282 S280 1.610 . S
N282 C283 1.351 . S
C283 C277 1.428 . S
C283 N282 1.351 . S
C283 C284 1.434 . S
C284 C275 1.429 . S
C284 N281 1.350 . S
C284 C283 1.434 . S
C285 C286 1.369 . S
C285 C287 1.419 . S
C285 H289 0.930 . S
C286 C285 1.369 . S
C286 C295 1.429 . S
C287 C285 1.419 . S
C287 C288 1.363 . S
C287 H290 0.929 . S
C288 C287 1.363 . S
C288 C294 1.428 . S
H289 C285 0.930 . S
H290 C287 0.929 . S
S291 N292 1.613 . S
S291 N293 1.610 . S
N292 S291 1.613 . S
N292 C295 1.350 . S
N293 S291 1.610 . S
N293 C294 1.351 . S
C294 C288 1.428 . S
C294 N293 1.351 . S
C294 C295 1.434 . S
C295 C286 1.429 . S
C295 N292 1.350 . S
C295 C294 1.434 . S
C296 C297 1.369 . S
C296 C298 1.419 . S
C296 H300 0.930 . S
C297 C296 1.369 . S
C297 C306 1.429 . S
C298 C296 1.419 . S
C298 C299 1.363 . S
C298 H301 0.929 . S
C299 C298 1.363 . S
C299 C305 1.428 . S
H300 C296 0.930 . S
H301 C298 0.929 . S
S302 N303 1.613 . S
S302 N304 1.610 . S
N303 S302 1.613 . S
N303 C306 1.350 . S
N304 S302 1.610 . S
N304 C305 1.351 . S
C305 C299 1.428 . S
C305 N304 1.351 . S
C305 C306 1.434 . S
C306 C297 1.429 . S
C306 N303 1.350 . S
C306 C305 1.434 . S
C307 C308 1.369 . S
C307 C309 1.419 . S
C307 H311 0.930 . S
C308 C307 1.369 . S
C308 C317 1.429 . S
C309 C307 1.419 . S
C309 C310 1.363 . S
C309 H312 0.929 . S
C310 C309 1.363 . S
C310 C316 1.428 . S
H311 C307 0.930 . S
H312 C309 0.929 . S
S313 N314 1.613 . S
S313 N315 1.610 . S
N314 S313 1.613 . S
N314 C317 1.350 . S
N315 S313 1.610 . S
N315 C316 1.351 . S
C316 C310 1.428 . S
C316 N315 1.351 . S
C316 C317 1.434 . S
C317 C308 1.429 . S
C317 N314 1.350 . S
C317 C316 1.434 . S
C318 C319 1.369 . S
C318 C320 1.419 . S
C318 H322 0.930 . S
C319 C318 1.369 . S
C319 C328 1.429 . S
C320 C318 1.419 . S
C320 C321 1.363 . S
C320 H323 0.929 . S
C321 C320 1.363 . S
C321 C327 1.428 . S
H322 C318 0.930 . S
H323 C320 0.929 . S
S324 N325 1.613 . S
S324 N326 1.610 . S
N325 S324 1.613 . S
N325 C328 1.350 . S
N326 S324 1.610 . S
N326 C327 1.351 . S
C327 C321 1.428 . S
C327 N326 1.351 . S
C327 C328 1.434 . S
C328 C319 1.429 . S
C328 N325 1.350 . S
C328 C327 1.434 . S
C329 C330 1.369 . S
C329 C331 1.419 . S
C329 H333 0.930 . S
C330 C329 1.369 . S
C330 C339 1.429 . S
C331 C329 1.419 . S
C331 C332 1.363 . S
C331 H334 0.929 . S
C332 C331 1.363 . S
C332 C338 1.428 . S
H333 C329 0.930 . S
H334 C331 0.929 . S
S335 N336 1.613 . S
S335 N337 1.610 . S
N336 S335 1.613 . S
N336 C339 1.350 . S
N337 S335 1.610 . S
N337 C338 1.351 . S
C338 C332 1.428 . S
C338 N337 1.351 . S
C338 C339 1.434 . S
C339 C330 1.429 . S
C339 N336 1.350 . S
C339 C338 1.434 . S
C340 C341 1.369 . S
C340 C342 1.419 . S
C340 H344 0.930 . S
C341 C340 1.369 . S
C341 C350 1.429 . S
C342 C340 1.419 . S
C342 C343 1.363 . S
C342 H345 0.929 . S
C343 C342 1.363 . S
C343 C349 1.428 . S
H344 C340 0.930 . S
H345 C342 0.929 . S
S346 N347 1.613 . S
S346 N348 1.610 . S
N347 S346 1.613 . S
N347 C350 1.350 . S
N348 S346 1.610 . S
N348 C349 1.351 . S
C349 C343 1.428 . S
C349 N348 1.351 . S
C349 C350 1.434 . S
C350 C341 1.429 . S
C350 N347 1.350 . S
C350 C349 1.434 . S
C351 C352 1.369 . S
C351 C353 1.419 . S
C351 H355 0.930 . S
C352 C351 1.369 . S
C352 C361 1.429 . S
C353 C351 1.419 . S
C353 C354 1.363 . S
C353 H356 0.929 . S
C354 C353 1.363 . S
C354 C360 1.428 . S
H355 C351 0.930 . S
H356 C353 0.929 . S
S357 N358 1.613 . S
S357 N359 1.610 . S
N358 S357 1.613 . S
N358 C361 1.350 . S
N359 S357 1.610 . S
N359 C360 1.351 . S
C360 C354 1.428 . S
C360 N359 1.351 . S
C360 C361 1.434 . S
C361 C352 1.429 . S
C361 N358 1.350 . S
C361 C360 1.434 . S
C362 C363 1.369 . S
C362 C364 1.419 . S
C362 H366 0.930 . S
C363 C362 1.369 . S
C363 C372 1.429 . S
C364 C362 1.419 . S
C364 C365 1.363 . S
C364 H367 0.929 . S
C365 C364 1.363 . S
C365 C371 1.428 . S
H366 C362 0.930 . S
H367 C364 0.929 . S
S368 N369 1.613 . S
S368 N370 1.610 . S
N369 S368 1.613 . S
N369 C372 1.350 . S
N370 S368 1.610 . S
N370 C371 1.351 . S
C371 C365 1.428 . S
C371 N370 1.351 . S
C371 C372 1.434 . S
C372 C363 1.429 . S
C372 N369 1.350 . S
C372 C371 1.434 . S
C373 C374 1.369 . S
C373 C375 1.419 . S
C373 H377 0.930 . S
C374 C373 1.369 . S
C374 C383 1.429 . S
C375 C373 1.419 . S
C375 C376 1.363 . S
C375 H378 0.929 . S
C376 C375 1.363 . S
C376 C382 1.428 . S
H377 C373 0.930 . S
H378 C375 0.929 . S
S379 N380 1.613 . S
S379 N381 1.610 . S
N380 S379 1.613 . S
N380 C383 1.350 . S
N381 S379 1.610 . S
N381 C382 1.351 . S
C382 C376 1.428 . S
C382 N381 1.351 . S
C382 C383 1.434 . S
C383 C374 1.429 . S
C383 N380 1.350 . S
C383 C382 1.434 . S
C384 C385 1.369 . S
C384 C386 1.419 1_565 S
C384 H388 0.930 . S
C385 C384 1.369 . S
C385 C394 1.429 1_565 S
C386 C384 1.419 1_545 S
C386 C387 1.362 . S
C386 H389 0.929 1_545 S
C387 C386 1.362 . S
C387 C393 1.428 . S
H388 C384 0.930 . S
H389 C386 0.929 1_565 S
S390 N391 1.613 . S
S390 N392 1.610 . S
N391 S390 1.613 . S
N391 C394 1.350 . S
N392 S390 1.610 . S
N392 C393 1.351 . S
C393 C387 1.428 . S
C393 N392 1.351 . S
C393 C394 1.434 . S
C394 C385 1.429 1_545 S
C394 N391 1.350 . S
C394 C393 1.434 . S
C395 C396 1.369 . S
C395 C397 1.419 . S
C395 H399 0.930 . S
C396 C395 1.369 . S
C396 C405 1.429 . S
C397 C395 1.419 . S
C397 C398 1.363 . S
C397 H400 0.929 . S
C398 C397 1.363 . S
C398 C404 1.428 . S
H399 C395 0.930 . S
H400 C397 0.929 . S
S401 N402 1.613 . S
S401 N403 1.610 . S
N402 S401 1.613 . S
N402 C405 1.350 . S
N403 S401 1.610 . S
N403 C404 1.351 . S
C404 C398 1.428 . S
C404 N403 1.351 . S
C404 C405 1.434 . S
C405 C396 1.429 . S
C405 N402 1.350 . S
C405 C404 1.434 . S
C406 C407 1.385 . S
C406 C408 1.400 1_455 S
C406 H410 0.936 1_455 S
C407 C406 1.385 . S
C407 C416 1.429 . S
C408 C406 1.400 1_655 S
C408 C409 1.363 . S
C408 H411 0.929 . S
C409 C408 1.363 . S
C409 C415 1.423 1_655 S
H410 C406 0.936 1_655 S
H411 C408 0.929 . S
S412 N413 1.613 . S
S412 N414 1.610 . S
N413 S412 1.613 . S
N413 C416 1.350 . S
N414 S412 1.610 . S
N414 C415 1.350 . S
C415 C409 1.423 1_455 S
C415 N414 1.350 . S
C415 C416 1.441 . S
C416 C407 1.429 . S
C416 N413 1.350 . S
C416 C415 1.441 . S
C417 C418 1.369 . S
C417 C419 1.419 1_565 S
C417 H421 0.930 . S
C418 C417 1.369 . S
C418 C427 1.429 . S
C419 C417 1.419 1_545 S
C419 C420 1.363 . S
C419 H422 0.929 . S
C420 C419 1.363 . S
C420 C426 1.428 . S
H421 C417 0.930 . S
H422 C419 0.929 . S
S423 N424 1.613 1_545 S
S423 N425 1.610 . S
N424 S423 1.613 1_565 S
N424 C427 1.350 . S
N425 S423 1.610 . S
N425 C426 1.351 . S
C426 C420 1.428 . S
C426 N425 1.351 . S
C426 C427 1.434 1_545 S
C427 C418 1.429 . S
C427 N424 1.350 . S
C427 C426 1.434 1_565 S
C428 C429 1.369 . S
C428 C430 1.419 . S
C428 H432 0.930 . S
C429 C428 1.369 . S
C429 C438 1.429 . S
C430 C428 1.419 . S
C430 C431 1.363 . S
C430 H433 0.929 . S
C431 C430 1.363 . S
C431 C437 1.428 . S
H432 C428 0.930 . S
H433 C430 0.929 . S
S434 N435 1.613 . S
S434 N436 1.610 . S
N435 S434 1.613 . S
N435 C438 1.350 . S
N436 S434 1.610 . S
N436 C437 1.351 . S
C437 C431 1.428 . S
C437 N436 1.351 . S
C437 C438 1.434 . S
C438 C429 1.429 . S
C438 N435 1.350 . S
C438 C437 1.434 . S
C439 C440 1.369 . S
C439 C441 1.419 1_655 S
C439 H443 0.930 . S
C440 C439 1.369 . S
C440 C449 1.429 . S
C441 C439 1.419 1_455 S
C441 C442 1.363 . S
C441 H444 0.929 . S
C442 C441 1.363 . S
C442 C448 1.428 . S
H443 C439 0.930 . S
H444 C441 0.929 . S
S445 N446 1.613 . S
S445 N447 1.610 1_655 S
N446 S445 1.613 . S
N446 C449 1.350 . S
N447 S445 1.610 1_455 S
N447 C448 1.351 . S
C448 C442 1.428 . S
C448 N447 1.351 . S
C448 C449 1.434 1_455 S
C449 C440 1.429 . S
C449 N446 1.350 . S
C449 C448 1.434 1_655 S
C450 C451 1.369 . S
C450 C452 1.419 . S
C450 H454 0.930 . S
C451 C450 1.369 . S
C451 C460 1.429 1_545 S
C452 C450 1.419 . S
C452 C453 1.363 1_545 S
C452 H455 0.929 . S
C453 C452 1.363 1_565 S
C453 C459 1.428 . S
H454 C450 0.930 . S
H455 C452 0.929 . S
S456 N457 1.613 . S
S456 N458 1.610 . S
N457 S456 1.613 . S
N457 C460 1.350 . S
N458 S456 1.610 . S
N458 C459 1.351 . S
C459 C453 1.428 . S
C459 N458 1.351 . S
C459 C460 1.434 . S
C460 C451 1.429 1_565 S
C460 N457 1.350 . S
C460 C459 1.434 . S
C461 C462 1.369 . S
C461 C463 1.419 . S
C461 H465 0.930 . S
C462 C461 1.369 . S
C462 C471 1.429 . S
C463 C461 1.419 . S
C463 C464 1.363 . S
C463 H466 0.929 . S
C464 C463 1.363 . S
C464 C470 1.428 . S
H465 C461 0.930 . S
H466 C463 0.929 . S
S467 N468 1.613 . S
S467 N469 1.610 . S
N468 S467 1.613 . S
N468 C471 1.350 . S
N469 S467 1.610 . S
N469 C470 1.351 . S
C470 C464 1.428 . S
C470 N469 1.351 . S
C470 C471 1.434 . S
C471 C462 1.429 . S
C471 N468 1.350 . S
C471 C470 1.434 . S
C472 C473 1.369 . S
C472 C474 1.419 1_655 S
C472 H476 0.930 . S
C473 C472 1.369 . S
C473 C482 1.429 . S
C474 C472 1.419 1_455 S
C474 C475 1.363 . S
C474 H477 0.929 . S
C475 C474 1.363 . S
C475 C481 1.428 . S
H476 C472 0.930 . S
H477 C474 0.929 . S
S478 N479 1.613 1_455 S
S478 N480 1.610 . S
N479 S478 1.613 1_655 S
N479 C482 1.350 . S
N480 S478 1.610 . S
N480 C481 1.351 . S
C481 C475 1.428 . S
C481 N480 1.351 . S
C481 C482 1.434 1_455 S
C482 C473 1.429 . S
C482 N479 1.350 . S
C482 C481 1.434 1_655 S
C483 C484 1.369 . S
C483 C485 1.419 . S
C483 H487 0.930 . S
C484 C483 1.369 . S
C484 C493 1.429 1_565 S
C485 C483 1.419 . S
C485 C486 1.363 1_565 S
C485 H488 0.929 . S
C486 C485 1.363 1_545 S
C486 C492 1.428 . S
H487 C483 0.930 . S
H488 C485 0.929 . S
S489 N490 1.613 . S
S489 N491 1.610 . S
N490 S489 1.613 . S
N490 C493 1.350 . S
N491 S489 1.610 . S
N491 C492 1.351 . S
C492 C486 1.428 . S
C492 N491 1.351 . S
C492 C493 1.434 . S
C493 C484 1.429 1_545 S
C493 N490 1.350 . S
C493 C492 1.434 . S
C494 C495 1.369 . S
C494 C496 1.419 . S
C494 H498 0.930 . S
C495 C494 1.369 . S
C495 C504 1.429 . S
C496 C494 1.419 . S
C496 C497 1.363 . S
C496 H499 0.929 . S
C497 C496 1.363 . S
C497 C503 1.428 . S
H498 C494 0.930 . S
H499 C496 0.929 . S
S500 N501 1.613 . S
S500 N502 1.610 . S
N501 S500 1.613 . S
N501 C504 1.350 . S
N502 S500 1.610 . S
N502 C503 1.351 . S
C503 C497 1.428 . S
C503 N502 1.351 . S
C503 C504 1.434 . S
C504 C495 1.429 . S
C504 N501 1.350 . S
C504 C503 1.434 . S
C505 C506 1.348 1_455 S
C505 C507 1.432 . S
C505 H509 0.939 . S
C506 C505 1.348 1_655 S
C506 C515 1.429 . S
C507 C505 1.432 . S
C507 C508 1.363 . S
C507 H510 0.929 . S
C508 C507 1.363 . S
C508 C514 1.428 1_455 S
H509 C505 0.939 . S
H510 C507 0.929 . S
S511 N512 1.613 . S
S511 N513 1.610 . S
N512 S511 1.613 . S
N512 C515 1.350 . S
N513 S511 1.610 . S
N513 C514 1.351 . S
C514 C508 1.428 1_655 S
C514 N513 1.351 . S
C514 C515 1.434 . S
C515 C506 1.429 . S
C515 N512 1.350 . S
C515 C514 1.434 . S
C516 C517 1.369 . S
C516 C518 1.419 . S
C516 H520 0.930 . S
C517 C516 1.369 . S
C517 C526 1.429 . S
C518 C516 1.419 . S
C518 C519 1.363 . S
C518 H521 0.929 . S
C519 C518 1.363 . S
C519 C525 1.428 . S
H520 C516 0.930 . S
H521 C518 0.929 . S
S522 N523 1.613 . S
S522 N524 1.610 . S
N523 S522 1.613 . S
N523 C526 1.350 . S
N524 S522 1.610 . S
N524 C525 1.351 . S
C525 C519 1.428 . S
C525 N524 1.351 . S
C525 C526 1.434 . S
C526 C517 1.429 . S
C526 N523 1.350 . S
C526 C525 1.434 . S
C527 C528 1.369 . S
C527 C529 1.419 . S
C527 H531 0.930 . S
C528 C527 1.369 . S
C528 C537 1.429 . S
C529 C527 1.419 . S
C529 C530 1.363 . S
C529 H532 0.929 . S
C530 C529 1.363 . S
C530 C536 1.428 . S
H531 C527 0.930 . S
H532 C529 0.929 . S
S533 N534 1.613 . S
S533 N535 1.610 . S
N534 S533 1.613 . S
N534 C537 1.350 . S
N535 S533 1.610 . S
N535 C536 1.351 . S
C536 C530 1.428 . S
C536 N535 1.351 . S
C536 C537 1.434 . S
C537 C528 1.429 . S
C537 N534 1.350 . S
C537 C536 1.434 . S
C538 C539 1.369 . S
C538 C540 1.419 . S
C538 H542 0.930 . S
C539 C538 1.369 . S
C539 C548 1.429 . S
C540 C538 1.419 . S
C540 C541 1.363 . S
C540 H543 0.929 . S
C541 C540 1.363 . S
C541 C547 1.428 . S
H542 C538 0.930 . S
H543 C540 0.929 . S
S544 N545 1.613 . S
S544 N546 1.610 . S
N545 S544 1.613 . S
N545 C548 1.350 . S
N546 S544 1.610 . S
N546 C547 1.351 . S
C547 C541 1.428 . S
C547 N546 1.351 . S
C547 C548 1.434 . S
C548 C539 1.429 . S
C548 N545 1.350 . S
C548 C547 1.434 . S
C549 C550 1.369 . S
C549 C551 1.419 . S
C549 H553 0.930 . S
C550 C549 1.369 . S
C550 C559 1.429 . S
C551 C549 1.419 . S
C551 C552 1.363 . S
C551 H554 0.929 . S
C552 C551 1.363 . S
C552 C558 1.428 . S
H553 C549 0.930 . S
H554 C551 0.929 . S
S555 N556 1.613 . S
S555 N557 1.610 . S
N556 S555 1.613 . S
N556 C559 1.350 . S
N557 S555 1.610 . S
N557 C558 1.351 . S
C558 C552 1.428 . S
C558 N557 1.351 . S
C558 C559 1.434 . S
C559 C550 1.429 . S
C559 N556 1.350 . S
C559 C558 1.434 . S
C560 C561 1.369 . S
C560 C562 1.419 . S
C560 H564 0.930 . S
C561 C560 1.369 . S
C561 C570 1.429 . S
C562 C560 1.419 . S
C562 C563 1.363 . S
C562 H565 0.929 . S
C563 C562 1.363 . S
C563 C569 1.428 . S
H564 C560 0.930 . S
H565 C562 0.929 . S
S566 N567 1.613 . S
S566 N568 1.610 . S
N567 S566 1.613 . S
N567 C570 1.350 . S
N568 S566 1.610 . S
N568 C569 1.351 . S
C569 C563 1.428 . S
C569 N568 1.351 . S
C569 C570 1.434 . S
C570 C561 1.429 . S
C570 N567 1.350 . S
C570 C569 1.434 . S
C571 C572 1.369 . S
C571 C573 1.419 . S
C571 H575 0.930 . S
C572 C571 1.369 . S
C572 C581 1.429 . S
C573 C571 1.419 . S
C573 C574 1.363 . S
C573 H576 0.929 . S
C574 C573 1.363 . S
C574 C580 1.428 . S
H575 C571 0.930 . S
H576 C573 0.929 . S
S577 N578 1.613 . S
S577 N579 1.610 . S
N578 S577 1.613 . S
N578 C581 1.350 . S
N579 S577 1.610 . S
N579 C580 1.351 . S
C580 C574 1.428 . S
C580 N579 1.351 . S
C580 C581 1.434 . S
C581 C572 1.429 . S
C581 N578 1.350 . S
C581 C580 1.434 . S
C582 C583 1.369 . S
C582 C584 1.419 . S
C582 H586 0.930 . S
C583 C582 1.369 . S
C583 C592 1.429 . S
C584 C582 1.419 . S
C584 C585 1.363 . S
C584 H587 0.929 . S
C585 C584 1.363 . S
C585 C591 1.428 . S
H586 C582 0.930 . S
H587 C584 0.929 . S
S588 N589 1.613 . S
S588 N590 1.610 . S
N589 S588 1.613 . S
N589 C592 1.350 . S
N590 S588 1.610 . S
N590 C591 1.351 . S
C591 C585 1.428 . S
C591 N590 1.351 . S
C591 C592 1.434 . S
C592 C583 1.429 . S
C592 N589 1.350 . S
C592 C591 1.434 . S
C593 C594 1.369 . S
C593 C595 1.419 . S
C593 H597 0.930 . S
C594 C593 1.369 . S
C594 C603 1.429 . S
C595 C593 1.419 . S
C595 C596 1.363 . S
C595 H598 0.929 . S
C596 C595 1.363 . S
C596 C602 1.428 . S
H597 C593 0.930 . S
H598 C595 0.929 . S
S599 N600 1.613 . S
S599 N601 1.610 . S
N600 S599 1.613 . S
N600 C603 1.350 . S
N601 S599 1.610 . S
N601 C602 1.351 . S
C602 C596 1.428 . S
C602 N601 1.351 . S
C602 C603 1.434 . S
C603 C594 1.429 . S
C603 N600 1.350 . S
C603 C602 1.434 . S
C604 C605 1.369 . S
C604 C606 1.419 . S
C604 H608 0.930 . S
C605 C604 1.369 . S
C605 C614 1.429 . S
C606 C604 1.419 . S
C606 C607 1.363 . S
C606 H609 0.929 . S
C607 C606 1.363 . S
C607 C613 1.428 . S
H608 C604 0.930 . S
H609 C606 0.929 . S
S610 N611 1.613 . S
S610 N612 1.610 . S
N611 S610 1.613 . S
N611 C614 1.350 . S
N612 S610 1.610 . S
N612 C613 1.351 . S
C613 C607 1.428 . S
C613 N612 1.351 . S
C613 C614 1.434 . S
C614 C605 1.429 . S
C614 N611 1.350 . S
C614 C613 1.434 . S
C615 C616 1.369 . S
C615 C617 1.419 . S
C615 H619 0.930 . S
C616 C615 1.369 . S
C616 C625 1.429 . S
C617 C615 1.419 . S
C617 C618 1.363 . S
C617 H620 0.929 . S
C618 C617 1.363 . S
C618 C624 1.428 . S
H619 C615 0.930 . S
H620 C617 0.929 . S
S621 N622 1.613 . S
S621 N623 1.610 . S
N622 S621 1.613 . S
N622 C625 1.350 . S
N623 S621 1.610 . S
N623 C624 1.351 . S
C624 C618 1.428 . S
C624 N623 1.351 . S
C624 C625 1.434 . S
C625 C616 1.429 . S
C625 N622 1.350 . S
C625 C624 1.434 . S
C626 C627 1.369 . S
C626 C628 1.419 . S
C626 H630 0.930 . S
C627 C626 1.369 . S
C627 C636 1.429 . S
C628 C626 1.419 . S
C628 C629 1.363 . S
C628 H631 0.929 . S
C629 C628 1.363 . S
C629 C635 1.428 . S
H630 C626 0.930 . S
H631 C628 0.929 . S
S632 N633 1.613 . S
S632 N634 1.610 . S
N633 S632 1.613 . S
N633 C636 1.350 . S
N634 S632 1.610 . S
N634 C635 1.351 . S
C635 C629 1.428 . S
C635 N634 1.351 . S
C635 C636 1.434 . S
C636 C627 1.429 . S
C636 N633 1.350 . S
C636 C635 1.434 . S
C637 C638 1.369 . S
C637 C639 1.419 . S
C637 H641 0.930 . S
C638 C637 1.369 . S
C638 C647 1.429 . S
C639 C637 1.419 . S
C639 C640 1.363 . S
C639 H642 0.929 . S
C640 C639 1.363 . S
C640 C646 1.428 . S
H641 C637 0.930 . S
H642 C639 0.929 . S
S643 N644 1.613 . S
S643 N645 1.610 . S
N644 S643 1.613 . S
N644 C647 1.350 . S
N645 S643 1.610 . S
N645 C646 1.351 . S
C646 C640 1.428 . S
C646 N645 1.351 . S
C646 C647 1.434 . S
C647 C638 1.429 . S
C647 N644 1.350 . S
C647 C646 1.434 . S
C253 C20 1.073 . S
C255 C187 1.054 . S
C264 C209 1.068 . S
C266 C40 1.058 . S
C275 C62 1.062 . S
C277 C229 1.062 . S
C286 C251 1.053 . S
C288 C82 1.070 . S
C297 C104 1.070 . S
C299 C145 1.057 . S
C308 C167 1.054 . S
C310 C124 1.069 . S
C319 C250 1.250 . S
C321 C83 1.264 . S
C330 C103 1.266 . S
C332 C146 1.257 . S
C341 C166 1.260 . S
C343 C125 1.253 . S
C352 C188 1.266 . S
C354 C19 1.252 . S
C363 C208 1.252 . S
C365 C41 1.258 . S
C374 C61 1.250 . S
C376 C230 1.263 . S
C385 C151 1.373 . S
C387 C4 1.361 . S
C396 C175 1.373 . S
C398 C28 1.366 . S
C407 C193 1.358 . S
C409 C46 1.367 . S
C418 C70 1.370 . S
C420 C217 1.360 . S
C429 C88 1.372 . S
C431 C235 1.368 . S
C440 C133 1.362 . S
C442 C112 1.362 . S
C451 C213 1.064 . S
C453 C66 1.050 . S
C462 C100 1.068 . S
C464 C247 1.050 . S
C473 C129 1.057 . S
C475 C108 1.054 . S
C484 C163 1.066 . S
C486 C16 1.049 . S
C495 C24 1.048 . S
C497 C171 1.062 . S
C506 C58 1.047 . S
C508 C205 1.064 . S
C517 C3 1.362 . S
C519 C226 1.353 . S
C528 C37 1.362 . S
C530 C234 1.352 . S
C539 C142 1.356 . S
C541 C45 1.358 . S
C550 C150 1.350 . S
C552 C79 1.362 . S
C561 C87 1.359 . S
C563 C184 1.354 . S
C572 C192 1.355 . S
C574 C121 1.359 . S
C583 C67 1.469 . S
C585 C154 1.465 . S
C594 C91 1.473 . S
C596 C172 1.470 . S
C605 C196 1.474 . S
C607 C109 1.464 . S
C616 C214 1.475 . S
C618 C7 1.468 . S
C627 C238 1.464 . S
C629 C25 1.468 . S
C638 C130 1.476 . S
C640 C49 1.465 . S
