# Generated by pormake.
# Topology wmc, (6)-cn, num edge types: 1
# Building blocks:
#     Node 0, Type 0, BuildingBlock: UKALOJ_clean_sbu_0, # of connection points: 6
#     Node 1, Type 0, BuildingBlock: UKALOJ_clean_sbu_0, # of connection points: 6
#     Node 2, Type 0, BuildingBlock: UKALOJ_clean_sbu_0, # of connection points: 6
#     Node 3, Type 0, BuildingBlock: UKALOJ_clean_sbu_0, # of connection points: 6
#     Node 4, Type 0, BuildingBlock: UKALOJ_clean_sbu_0, # of connection points: 6
#     Node 5, Type 0, BuildingBlock: UKALOJ_clean_sbu_0, # of connection points: 6
#     Node 6, Type 0, BuildingBlock: UKALOJ_clean_sbu_0, # of connection points: 6
#     Node 7, Type 0, BuildingBlock: UKALOJ_clean_sbu_0, # of connection points: 6
#     Node 8, Type 0, BuildingBlock: UKALOJ_clean_sbu_0, # of connection points: 6
#     Node 9, Type 0, BuildingBlock: UKALOJ_clean_sbu_0, # of connection points: 6
#     Node 10, Type 0, BuildingBlock: UKALOJ_clean_sbu_0, # of connection points: 6
#     Node 11, Type 0, BuildingBlock: UKALOJ_clean_sbu_0, # of connection points: 6
#     Node 12, Type 0, BuildingBlock: UKALOJ_clean_sbu_0, # of connection points: 6
#     Node 13, Type 0, BuildingBlock: UKALOJ_clean_sbu_0, # of connection points: 6
#     Node 14, Type 0, BuildingBlock: UKALOJ_clean_sbu_0, # of connection points: 6
#     Node 15, Type 0, BuildingBlock: UKALOJ_clean_sbu_0, # of connection points: 6
#     Node 16, Type 0, BuildingBlock: UKALOJ_clean_sbu_0, # of connection points: 6
#     Node 17, Type 0, BuildingBlock: UKALOJ_clean_sbu_0, # of connection points: 6
#     Edge 18, Type (0, 0), BuildingBlock: AJUNOK_clean_linker_0, # of connection points: 2
#     Edge 19, Type (0, 0), BuildingBlock: AJUNOK_clean_linker_0, # of connection points: 2
#     Edge 20, Type (0, 0), BuildingBlock: AJUNOK_clean_linker_0, # of connection points: 2
#     Edge 21, Type (0, 0), BuildingBlock: AJUNOK_clean_linker_0, # of connection points: 2
#     Edge 22, Type (0, 0), BuildingBlock: AJUNOK_clean_linker_0, # of connection points: 2
#     Edge 23, Type (0, 0), BuildingBlock: AJUNOK_clean_linker_0, # of connection points: 2
#     Edge 24, Type (0, 0), BuildingBlock: AJUNOK_clean_linker_0, # of connection points: 2
#     Edge 25, Type (0, 0), BuildingBlock: AJUNOK_clean_linker_0, # of connection points: 2
#     Edge 26, Type (0, 0), BuildingBlock: AJUNOK_clean_linker_0, # of connection points: 2
#     Edge 27, Type (0, 0), BuildingBlock: AJUNOK_clean_linker_0, # of connection points: 2
#     Edge 28, Type (0, 0), BuildingBlock: AJUNOK_clean_linker_0, # of connection points: 2
#     Edge 29, Type (0, 0), BuildingBlock: AJUNOK_clean_linker_0, # of connection points: 2
#     Edge 30, Type (0, 0), BuildingBlock: AJUNOK_clean_linker_0, # of connection points: 2
#     Edge 31, Type (0, 0), BuildingBlock: AJUNOK_clean_linker_0, # of connection points: 2
#     Edge 32, Type (0, 0), BuildingBlock: AJUNOK_clean_linker_0, # of connection points: 2
#     Edge 33, Type (0, 0), BuildingBlock: AJUNOK_clean_linker_0, # of connection points: 2
#     Edge 34, Type (0, 0), BuildingBlock: AJUNOK_clean_linker_0, # of connection points: 2
#     Edge 35, Type (0, 0), BuildingBlock: AJUNOK_clean_linker_0, # of connection points: 2
#     Edge 36, Type (0, 0), BuildingBlock: AJUNOK_clean_linker_0, # of connection points: 2
#     Edge 37, Type (0, 0), BuildingBlock: AJUNOK_clean_linker_0, # of connection points: 2
#     Edge 38, Type (0, 0), BuildingBlock: AJUNOK_clean_linker_0, # of connection points: 2
#     Edge 39, Type (0, 0), BuildingBlock: AJUNOK_clean_linker_0, # of connection points: 2
#     Edge 40, Type (0, 0), BuildingBlock: AJUNOK_clean_linker_0, # of connection points: 2
#     Edge 41, Type (0, 0), BuildingBlock: AJUNOK_clean_linker_0, # of connection points: 2
#     Edge 42, Type (0, 0), BuildingBlock: AJUNOK_clean_linker_0, # of connection points: 2
#     Edge 43, Type (0, 0), BuildingBlock: AJUNOK_clean_linker_0, # of connection points: 2
#     Edge 44, Type (0, 0), BuildingBlock: AJUNOK_clean_linker_0, # of connection points: 2
#     Edge 45, Type (0, 0), BuildingBlock: AJUNOK_clean_linker_0, # of connection points: 2
#     Edge 46, Type (0, 0), BuildingBlock: AJUNOK_clean_linker_0, # of connection points: 2
#     Edge 47, Type (0, 0), BuildingBlock: AJUNOK_clean_linker_0, # of connection points: 2
#     Edge 48, Type (0, 0), BuildingBlock: AJUNOK_clean_linker_0, # of connection points: 2
#     Edge 49, Type (0, 0), BuildingBlock: AJUNOK_clean_linker_0, # of connection points: 2
#     Edge 50, Type (0, 0), BuildingBlock: AJUNOK_clean_linker_0, # of connection points: 2
#     Edge 51, Type (0, 0), BuildingBlock: AJUNOK_clean_linker_0, # of connection points: 2
#     Edge 52, Type (0, 0), BuildingBlock: AJUNOK_clean_linker_0, # of connection points: 2
#     Edge 53, Type (0, 0), BuildingBlock: AJUNOK_clean_linker_0, # of connection points: 2
#     Edge 54, Type (0, 0), BuildingBlock: AJUNOK_clean_linker_0, # of connection points: 2
#     Edge 55, Type (0, 0), BuildingBlock: AJUNOK_clean_linker_0, # of connection points: 2
#     Edge 56, Type (0, 0), BuildingBlock: AJUNOK_clean_linker_0, # of connection points: 2
#     Edge 57, Type (0, 0), BuildingBlock: AJUNOK_clean_linker_0, # of connection points: 2
#     Edge 58, Type (0, 0), BuildingBlock: AJUNOK_clean_linker_0, # of connection points: 2
#     Edge 59, Type (0, 0), BuildingBlock: AJUNOK_clean_linker_0, # of connection points: 2
#     Edge 60, Type (0, 0), BuildingBlock: AJUNOK_clean_linker_0, # of connection points: 2
#     Edge 61, Type (0, 0), BuildingBlock: AJUNOK_clean_linker_0, # of connection points: 2
#     Edge 62, Type (0, 0), BuildingBlock: AJUNOK_clean_linker_0, # of connection points: 2
#     Edge 63, Type (0, 0), BuildingBlock: AJUNOK_clean_linker_0, # of connection points: 2
#     Edge 64, Type (0, 0), BuildingBlock: AJUNOK_clean_linker_0, # of connection points: 2
#     Edge 65, Type (0, 0), BuildingBlock: AJUNOK_clean_linker_0, # of connection points: 2
#     Edge 66, Type (0, 0), BuildingBlock: AJUNOK_clean_linker_0, # of connection points: 2
#     Edge 67, Type (0, 0), BuildingBlock: AJUNOK_clean_linker_0, # of connection points: 2
#     Edge 68, Type (0, 0), BuildingBlock: AJUNOK_clean_linker_0, # of connection points: 2
#     Edge 69, Type (0, 0), BuildingBlock: AJUNOK_clean_linker_0, # of connection points: 2
#     Edge 70, Type (0, 0), BuildingBlock: AJUNOK_clean_linker_0, # of connection points: 2
#     Edge 71, Type (0, 0), BuildingBlock: AJUNOK_clean_linker_0, # of connection points: 2
# Relax obj value: 0.415
# Max RMSD: 0.232
# Mean RMSD: 0.232
data_MOF--net-wmc--node1-UKALOJ_clean_sbu_0--edge1-AJUNOK_clean_linker_0
_symmetry_space_group_name_H-M    P1
_symmetry_Int_Tables_number       1
_symmetry_cell_setting            triclinic
loop_
_symmetry_equiv_pos_as_xyz
'x, y, z'
_cell_length_a     39.493199
_cell_length_b     39.668809
_cell_length_c     21.509995
_cell_angle_alpha  90.119942
_cell_angle_beta   89.835525
_cell_angle_gamma 120.0518
loop_
_atom_site_label
_atom_site_type_symbol
_atom_site_fract_x
_atom_site_fract_y
_atom_site_fract_z
_atom_type_partial_charge
Zn0 Zn 0.5856 0.10126 0.98311 0.0
O1 O 0.55359 0.13164 0.96357 0.0
C2 C 0.62041 0.12235 0.85728 0.0
Zn3 Zn 0.63945 0.16055 0.97935 0.0
C4 C 0.57167 0.16825 0.95439 0.0
O5 O 0.60854 0.18708 0.95595 0.0
C6 C 0.66054 0.10096 0.01616 0.0
O7 O 0.63011 0.16818 0.07518 0.0
O8 O 0.57833 0.10928 0.07503 0.0
N9 N 0.68919 0.21279 0.97255 0.0
C10 C 0.72114 0.23242 0.0085 0.0
C11 C 0.73219 0.26349 0.9231 0.0
N12 N 0.69618 0.23218 0.91964 0.0
N13 N 0.74877 0.26413 0.978 0.0
C14 C 0.50092 0.036 0.93806 0.0
C15 C 0.47799 0.99829 0.01597 0.0
N16 N 0.53039 0.0485 0.98054 0.0
N17 N 0.5157 0.02481 0.02882 0.0
N18 N 0.46757 1.00463 0.95933 0.0
H19 H 0.47553 0.05331 0.86486 0.0
H20 H 0.51171 0.04121 0.84024 0.0
H21 H 0.5267 0.08675 0.87769 0.0
C22 C 0.50394 0.05573 0.87714 0.0
C23 C 0.72556 0.21993 0.07231 0.0
H24 H 0.70736 0.18806 0.07832 0.0
H25 H 0.71557 0.23374 0.10714 0.0
H26 H 0.75664 0.22922 0.08176 0.0
O27 O 0.67231 0.13601 0.0025 0.0
O28 O 0.62371 0.07584 0.01176 0.0
C29 C 0.6003 0.1411 0.10303 0.0
O30 O 0.59322 0.09479 0.88803 0.0
O31 O 0.64564 0.15247 0.88561 0.0
Zn32 Zn 0.94983 0.49215 0.03912 0.0
O33 O 0.91223 0.42929 0.02664 0.0
C34 C 0.91418 0.49548 0.92189 0.0
Zn35 Zn 0.89187 0.48828 0.05355 0.0
C36 C 0.87548 0.41123 0.03734 0.0
O37 O 0.85851 0.42997 0.05194 0.0
C38 C 0.9598 0.57012 0.05888 0.0
O39 O 0.89878 0.48414 0.1497 0.0
O40 O 0.95279 0.48243 0.13221 0.0
N41 N 0.84589 0.49667 0.06967 0.0
C42 C 0.8139 0.48876 0.03644 0.0
C43 C 0.81943 0.52808 0.10875 0.0
N44 N 0.8492 0.52104 0.11455 0.0
N45 N 0.79723 0.50887 0.05931 0.0
C46 C 1.00445 0.46116 0.98513 0.0
C47 C 0.0569 0.49325 0.03701 0.0
N48 N 0.99956 0.48635 0.02197 0.0
N49 N 0.03239 0.5062 0.05394 0.0
N50 N 0.04015 0.46485 -0.0061 0.0
H51 H 0.95456 0.40457 0.97596 0.0
H52 H 0.98461 0.41999 0.90837 0.0
H53 H 0.95402 0.4407 0.92578 0.0
C54 C 0.97276 0.43014 0.94605 0.0
C55 C 0.79814 0.45959 0.98457 0.0
H56 H 0.81149 0.47432 0.94001 0.0
H57 H 0.76589 0.44601 0.98116 0.0
H58 H 0.80579 0.43656 -0.00814 0.0
O59 O 0.92362 0.54677 0.05647 0.0
O60 O 0.98343 0.55685 0.05502 0.0
C61 C 0.92657 0.47959 0.16945 0.0
O62 O 0.9457 0.50062 0.94588 0.0
O63 O 0.88558 0.48972 0.95634 0.0
Zn64 Zn 0.56189 0.46169 -0.00337 0.0
O65 O 0.62563 0.49352 -0.00622 0.0
C66 C 0.56509 0.42779 0.87549 0.0
Zn67 Zn 0.56976 0.40931 0.0049 0.0
C68 C 0.64569 0.47653 -0.00249 0.0
O69 O 0.6288 0.43995 0.00226 0.0
C70 C 0.48536 0.38783 0.0126 0.0
O71 O 0.5723 0.41943 0.10354 0.0
O72 O 0.56555 0.47066 0.0888 0.0
N73 N 0.57052 0.3586 0.01819 0.0
C74 C 0.55382 0.32502 0.98544 0.0
C75 C 0.58038 0.31632 0.06515 0.0
N76 N 0.58683 0.35302 0.06787 0.0
N77 N 0.55944 0.29801 0.01411 0.0
C78 C 0.58694 0.54625 0.94453 0.0
C79 C 0.56153 0.56714 0.01027 0.0
N80 N 0.56423 0.51594 0.9831 0.0
N81 N 0.54854 0.52932 0.02368 0.0
N82 N 0.58617 0.579 0.96109 0.0
H83 H 0.6395 0.57219 0.88889 0.0
H84 H 0.59526 0.53941 0.84817 0.0
H85 H 0.61726 0.52015 0.89824 0.0
C86 C 0.61135 0.54435 0.89253 0.0
C87 C 0.53051 0.31799 0.92706 0.0
H88 H 0.514 0.33374 0.92813 0.0
H89 H 0.50966 0.28646 0.92042 0.0
H90 H 0.55076 0.32873 0.8867 0.0
O91 O 0.51027 0.37688 0.00931 0.0
O92 O 0.49682 0.42433 0.00772 0.0
C93 C 0.57045 0.44848 0.12506 0.0
O94 O 0.55858 0.45246 0.90233 0.0
O95 O 0.5703 0.40385 0.90729 0.0
Zn96 Zn 0.94644 0.46566 0.54224 0.0
O97 O 0.91157 0.49251 0.52313 0.0
C98 C 0.92033 0.42908 0.42015 0.0
Zn99 Zn 0.88709 0.41091 0.54617 0.0
C100 C 0.87437 0.47404 0.52449 0.0
O101 O 0.85562 0.43781 0.53412 0.0
C102 C 0.95326 0.39586 0.56899 0.0
O103 O 0.88689 0.42074 0.64361 0.0
O104 O 0.9426 0.47599 0.63438 0.0
N105 N 0.83651 0.35769 0.55321 0.0
C106 C 0.8225 0.32508 0.51823 0.0
C107 C 0.78219 0.31275 0.59242 0.0
N108 N 0.81149 0.34979 0.59954 0.0
N109 N 0.78856 0.29645 0.54199 0.0
C110 C 1.00451 0.54966 0.48513 0.0
C111 C 0.04693 0.5776 0.55598 0.0
N112 N 0.99668 0.52239 0.53002 0.0
N113 N 1.02331 0.54021 0.57381 0.0
N114 N 0.03583 0.58486 0.50053 0.0
H115 H 0.97856 0.5685 0.41506 0.0
H116 H 0.99452 0.53558 0.38849 0.0
H117 H 0.95057 0.51738 0.43224 0.0
C118 C 0.98042 0.54234 0.42744 0.0
C119 C 0.84291 0.32046 0.46281 0.0
H120 H 0.87498 0.3361 0.47012 0.0
H121 H 0.83264 0.28926 0.45369 0.0
H122 H 0.83646 0.33287 0.42134 0.0
O123 O 0.91728 0.38267 0.55955 0.0
O124 O 0.97705 0.43284 0.56666 0.0
C125 C 0.91369 0.4524 0.66736 0.0
O126 O 0.94929 0.45476 0.45019 0.0
O127 O 0.88896 0.40578 0.44862 0.0
Zn128 Zn 0.58556 0.49481 0.50252 0.0
O129 O 0.56189 0.43222 0.49042 0.0
C130 C 0.61394 0.50403 0.37496 0.0
Zn131 Zn 0.64184 0.49432 0.49689 0.0
C132 C 0.58271 0.41656 0.47989 0.0
O133 O 0.61955 0.43725 0.47808 0.0
C134 C 0.65243 0.57373 0.52383 0.0
O135 O 0.63782 0.48165 0.59457 0.0
O136 O 0.58399 0.48531 0.59512 0.0
N137 N 0.69775 0.50638 0.48843 0.0
C138 C 0.72018 0.49336 0.51349 0.0
C139 C 0.75655 0.54043 0.45281 0.0
N140 N 0.72044 0.53562 0.45095 0.0
N141 N 0.75733 0.51463 0.49228 0.0
C142 C 0.49627 0.46025 0.46668 0.0
C143 C 0.47366 0.47775 0.54199 0.0
N144 N 0.52708 0.48347 0.50409 0.0
N145 N 0.51265 0.49415 0.55079 0.0
N146 N 0.46216 0.45586 0.48976 0.0
H147 H 0.50093 0.45821 0.36789 0.0
H148 H 0.52577 0.43801 0.40792 0.0
H149 H 0.47323 0.41113 0.40407 0.0
C150 C 0.4993 0.44058 0.40888 0.0
C151 C 0.70508 0.45888 0.55589 0.0
H152 H 0.67365 0.43835 0.5471 0.0
H153 H 0.72199 0.44364 0.54997 0.0
H154 H 0.70806 0.46899 0.60471 0.0
O155 O 0.66627 0.55164 0.51549 0.0
O156 O 0.61522 0.55946 0.52056 0.0
C157 C 0.60807 0.47853 0.62342 0.0
O158 O 0.58699 0.50319 0.40797 0.0
O159 O 0.64246 0.50358 0.40094 0.0
Zn160 Zn 0.57303 0.16794 0.48642 0.0
O161 O 0.58095 0.15868 0.58169 0.0
C162 C 0.48848 0.10896 0.50426 0.0
Zn163 Zn 0.56295 0.10716 0.47573 0.0
C164 C 0.58001 0.12814 0.60264 0.0
O165 O 0.57113 0.09937 0.56713 0.0
C166 C 0.56098 0.1471 0.35754 0.0
O167 O 0.6267 0.13623 0.46261 0.0
O168 O 0.6316 0.19344 0.47385 0.0
N169 N 0.55832 0.05334 0.44955 0.0
C170 C 0.58484 0.04092 0.44932 0.0
C171 C 0.53726 1.00157 0.3927 0.0
N172 N 0.52876 0.02843 0.41454 0.0
N173 N 0.57254 1.00875 0.41314 0.0
C174 C 0.55892 0.23778 0.48846 0.0
C175 C 0.60453 0.27794 0.54784 0.0
N176 N 0.57948 0.2208 0.50687 0.0
N177 N 0.60769 0.24572 0.54398 0.0
N178 N 0.57394 0.27338 0.5139 0.0
H179 H 0.49674 0.20567 0.48172 0.0
H180 H 0.51989 0.24037 0.42073 0.0
H181 H 0.5209 0.19539 0.42002 0.0
C182 C 0.52235 0.21871 0.44995 0.0
C183 C 0.62404 0.06217 0.48016 0.0
H184 H 0.64599 0.08235 0.44615 0.0
H185 H 0.6231 0.07897 0.52073 0.0
H186 H 0.63366 0.04178 0.49596 0.0
O187 O 0.55579 0.11586 0.38226 0.0
O188 O 0.56823 0.17615 0.39138 0.0
C189 C 0.64767 0.17324 0.46507 0.0
O190 O 0.51425 0.14442 0.5005 0.0
O191 O 0.49844 0.08298 0.49543 0.0
Zn192 Zn 0.25065 0.43166 0.37294 0.0
O193 O 0.22926 0.47209 0.35475 0.0
C194 C 0.29062 0.45817 0.2519 0.0
Zn195 Zn 0.30757 0.48777 0.3798 0.0
C196 C 0.25114 0.50912 0.3551 0.0
O197 O 0.28723 0.52421 0.36605 0.0
C198 C 0.31513 0.41698 0.40058 0.0
O199 O 0.29473 0.48714 0.47752 0.0
O200 O 0.23861 0.43322 0.46428 0.0
N201 N 0.36336 0.53169 0.39348 0.0
C202 C 0.38895 0.56243 0.35929 0.0
C203 C 0.41999 0.55839 0.43723 0.0
N204 N 0.38277 0.52921 0.44168 0.0
N205 N 0.42497 0.5793 0.38531 0.0
C206 C 0.16439 0.37952 0.32021 0.0
C207 C 0.14192 0.3278 0.37416 0.0
N208 N 0.19362 0.38395 0.35869 0.0
N209 N 0.17933 0.35163 0.39204 0.0
N210 N 0.13159 0.34449 0.32909 0.0
H211 H 0.1625 0.43186 0.30763 0.0
H212 H 0.14356 0.39973 0.24317 0.0
H213 H 0.19584 0.427 0.25613 0.0
C214 C 0.16677 0.41107 0.27888 0.0
C215 C 0.37797 0.57651 0.30238 0.0
H216 H 0.38263 0.56284 0.26066 0.0
H217 H 0.39606 0.60862 0.29799 0.0
H218 H 0.34671 0.56805 0.30365 0.0
O219 O 0.33024 0.45311 0.3939 0.0
O220 O 0.27792 0.39523 0.39553 0.0
C221 C 0.26202 0.46069 0.49927 0.0
O222 O 0.26226 0.43062 0.28054 0.0
O223 O 0.31638 0.48747 0.282 0.0
Zn224 Zn 0.60718 0.81762 0.32446 0.0
O225 O 0.57657 0.75437 0.32406 0.0
C226 C 0.56508 0.8119 0.20695 0.0
Zn227 Zn 0.54654 0.8087 0.33873 0.0
C228 C 0.5397 0.73378 0.33111 0.0
O229 O 0.51934 0.74992 0.33792 0.0
C230 C 0.60836 0.89342 0.33984 0.0
O231 O 0.55762 0.80733 0.43568 0.0
O232 O 0.61618 0.81556 0.41748 0.0
N233 N 0.49463 0.80638 0.35784 0.0
C234 C 0.47496 0.82073 0.32674 0.0
C235 C 0.44326 0.79499 0.41006 0.0
N236 N 0.47497 0.7906 0.40978 0.0
N237 N 0.44277 0.81409 0.35866 0.0
C238 C 0.66514 0.79085 0.27044 0.0
C239 C 0.71844 0.82733 0.31788 0.0
N240 N 0.65949 0.81662 0.30458 0.0
N241 N 0.69287 0.83918 0.33379 0.0
N242 N 0.70184 0.79687 0.27828 0.0
H243 H 0.61135 0.7639 0.21763 0.0
H244 H 0.61904 0.73158 0.26681 0.0
H245 H 0.64548 0.74833 0.19582 0.0
C246 C 0.63351 0.75705 0.23526 0.0
C247 C 0.48806 0.84281 0.26671 0.0
H248 H 0.47515 0.86183 0.26078 0.0
H249 H 0.47828 0.82181 0.22751 0.0
H250 H 0.52034 0.86094 0.26489 0.0
O251 O 0.57251 0.86809 0.3417 0.0
O252 O 0.63381 0.8826 0.33144 0.0
C253 C 0.5892 0.80972 0.45537 0.0
O254 O 0.59737 0.8189 0.23047 0.0
O255 O 0.5369 0.80682 0.24176 0.0
Zn256 Zn 0.21689 0.7932 0.34003 0.0
O257 O 0.2791 0.81738 0.31979 0.0
C258 C 0.20197 0.75755 0.2154 0.0
Zn259 Zn 0.21862 0.73749 0.33886 0.0
C260 C 0.29549 0.79704 0.31066 0.0
O261 O 0.27539 0.76031 0.31304 0.0
C262 C 0.13976 0.72578 0.37652 0.0
O263 O 0.23654 0.74769 0.43454 0.0
O264 O 0.23201 0.80082 0.43166 0.0
N265 N 0.20823 0.68199 0.3372 0.0
C266 C 0.22821 0.66378 0.35096 0.0
C267 C 0.17204 0.62059 0.31776 0.0
N268 N 0.17345 0.65508 0.31656 0.0
N269 N 0.20597 0.62516 0.3393 0.0
C270 C 0.24839 0.88098 0.2963 0.0
C271 C 0.21784 0.9003 0.35438 0.0
N272 N 0.22453 0.85044 0.3337 0.0
N273 N 0.20572 0.86286 0.36965 0.0
N274 N 0.24469 0.91264 0.30829 0.0
H275 H 0.30355 0.88484 0.2804 0.0
H276 H 0.28965 0.90538 0.21933 0.0
H277 H 0.26571 0.853 0.22731 0.0
C278 C 0.27818 0.88099 0.25282 0.0
C279 C 0.26877 0.68386 0.3771 0.0
H280 H 0.27397 0.70955 0.40501 0.0
H281 H 0.29017 0.69431 0.33823 0.0
H282 H 0.27361 0.66361 0.40627 0.0
O283 O 0.16215 0.7126 0.36554 0.0
O284 O 0.15277 0.7624 0.36862 0.0
C285 C 0.24101 0.77862 0.46073 0.0
O286 O 0.20352 0.78583 0.24537 0.0
O287 O 0.20394 0.73087 0.2446 0.0
Zn288 Zn 0.55738 0.73712 0.82737 0.0
O289 O 0.5468 0.74076 0.92505 0.0
C290 C 0.62491 0.72501 0.85977 0.0
Zn291 Zn 0.61451 0.79273 0.83525 0.0
C292 C 0.57278 0.77051 0.9545 0.0
O293 O 0.60434 0.79439 0.92734 0.0
C294 C 0.59793 0.76502 0.70657 0.0
O295 O 0.57639 0.8174 0.82046 0.0
O296 O 0.52329 0.76044 0.80725 0.0
N297 N 0.66293 0.85023 0.83841 0.0
C298 C 0.67348 0.88075 0.79906 0.0
C299 C 0.71189 0.90242 0.87646 0.0
N300 N 0.68697 0.86407 0.88648 0.0
N301 N 0.70409 0.91398 0.82198 0.0
C302 C 0.47791 0.6589 0.84299 0.0
C303 C 0.48879 0.62351 0.7803 0.0
N304 N 0.51312 0.68177 0.81693 0.0
N305 N 0.51973 0.6597 0.77812 0.0
N306 N 0.46233 0.62204 0.82124 0.0
H307 H 0.46811 0.70439 0.87693 0.0
H308 H 0.42617 0.65562 0.88313 0.0
H309 H 0.46723 0.67165 0.93499 0.0
C310 C 0.45848 0.67343 0.88673 0.0
C311 C 0.65265 0.87853 0.73959 0.0
H312 H 0.65315 0.90633 0.73083 0.0
H313 H 0.66774 0.87321 0.70053 0.0
H314 H 0.62205 0.85453 0.73989 0.0
O315 O 0.62385 0.79144 0.74034 0.0
O316 O 0.56803 0.73709 0.73184 0.0
C317 C 0.5397 0.79713 0.81006 0.0
O318 O 0.58928 0.71146 0.84794 0.0
O319 O 0.64802 0.76206 0.85765 0.0
Zn320 Zn 0.2465 0.81344 0.83285 0.0
O321 O 0.21328 0.74987 0.82415 0.0
C322 C 0.28752 0.8155 0.71426 0.0
Zn323 Zn 0.29821 0.80423 0.84395 0.0
C324 C 0.23003 0.72953 0.82606 0.0
O325 O 0.26659 0.74594 0.8332 0.0
C326 C 0.32174 0.88853 0.85785 0.0
O327 O 0.28227 0.79684 0.94031 0.0
O328 O 0.2324 0.80624 0.92551 0.0
N329 N 0.34704 0.80063 0.86276 0.0
C330 C 0.38224 0.8171 0.83428 0.0
C331 C 0.38506 0.78564 0.9123 0.0
N332 N 0.34895 0.78128 0.91146 0.0
N333 N 0.40658 0.80823 0.86457 0.0
C334 C 0.16445 0.79065 0.77114 0.0
C335 C 0.14489 0.82349 0.82262 0.0
N336 N 0.19381 0.8136 0.81118 0.0
N337 N 0.18127 0.83391 0.84291 0.0
N338 N 0.1334 0.79621 0.7776 0.0
H339 H 0.14979 0.73168 0.75608 0.0
H340 H 0.14725 0.75563 0.68765 0.0
H341 H 0.19421 0.76678 0.71788 0.0
C342 C 0.16424 0.75975 0.73058 0.0
C343 C 0.39349 0.84323 0.77854 0.0
H344 H 0.42566 0.86287 0.77635 0.0
H345 H 0.38408 0.8251 0.73582 0.0
H346 H 0.37915 0.86108 0.77954 0.0
O347 O 0.33184 0.86301 0.85597 0.0
O348 O 0.28556 0.87823 0.84894 0.0
C349 C 0.25256 0.79789 0.96136 0.0
O350 O 0.26101 0.82019 0.73904 0.0
O351 O 0.30964 0.80849 0.7478 0.0
Zn352 Zn 0.2315 0.49135 0.88392 0.0
O353 O 0.23888 0.48627 0.98108 0.0
C354 C 0.14815 0.42622 0.89797 0.0
Zn355 Zn 0.22455 0.4319 0.87148 0.0
C356 C 0.24223 0.45775 0.00072 0.0
O357 O 0.2367 0.43046 0.96385 0.0
C358 C 0.21928 0.46518 0.75307 0.0
O359 O 0.28699 0.46615 0.85478 0.0
O360 O 0.29008 0.52187 0.87624 0.0
N361 N 0.22808 0.38097 0.853 0.0
C362 C 0.25137 0.37531 0.81245 0.0
C363 C 0.22027 0.32329 0.86527 0.0
N364 N 0.20886 0.3484 0.88556 0.0
N365 N 0.24703 0.33936 0.81933 0.0
C366 C 0.21068 0.5563 0.86518 0.0
C367 C 0.2382 0.5938 0.94236 0.0
N368 N 0.22953 0.54145 0.89734 0.0
N369 N 0.24637 0.56467 0.94558 0.0
N370 N 0.21554 0.58901 0.8926 0.0
H371 H 0.16397 0.54729 0.80308 0.0
H372 H 0.20516 0.5474 0.76679 0.0
H373 H 0.1709 0.50594 0.81129 0.0
C374 C 0.18608 0.53806 0.80856 0.0
C375 C 0.28151 0.4064 0.77112 0.0
H376 H 0.30849 0.42425 0.79852 0.0
H377 H 0.28992 0.39413 0.73177 0.0
H378 H 0.27097 0.42556 0.75283 0.0
O379 O 0.2134 0.43419 0.77931 0.0
O380 O 0.22792 0.49521 0.78555 0.0
C381 C 0.30681 0.50289 0.86227 0.0
O382 O 0.17231 0.46214 0.89362 0.0
O383 O 0.16029 0.40174 0.8925 0.0
Zn384 Zn 0.9192 0.77071 0.65465 0.0
O385 O 0.89157 0.80663 0.65155 0.0
C386 C 0.95805 0.81032 0.53522 0.0
Zn387 Zn 0.97294 0.82966 0.66547 0.0
C388 C 0.91015 0.84372 0.65523 0.0
O389 O 0.94688 0.86219 0.66191 0.0
C390 C 0.98967 0.76303 0.67074 0.0
O391 O 0.95894 0.82052 0.76272 0.0
O392 O 0.90694 0.76312 0.74696 0.0
N393 N 1.02658 0.8753 0.6864 0.0
C394 C 0.0523 0.90845 0.65731 0.0
C395 C 0.08255 0.89948 0.73166 0.0
N396 N 0.04547 0.86995 0.73256 0.0
N397 N 0.08807 0.92383 0.68423 0.0
C398 C 0.83263 0.71686 0.60276 0.0
C399 C 0.81403 0.66304 0.64903 0.0
N400 N 0.86385 0.72085 0.63569 0.0
N401 N 0.85192 0.68716 0.66416 0.0
N402 N 0.80093 0.68085 0.61061 0.0
H403 H 0.82435 0.76604 0.60182 0.0
H404 H 0.80961 0.73864 0.53164 0.0
H405 H 0.86109 0.76942 0.54805 0.0
C406 C 0.83203 0.74947 0.56861 0.0
C407 C 0.04118 0.92631 0.6057 0.0
H408 H 1.01011 0.91845 0.61037 0.0
H409 H 0.04442 0.91468 0.56051 0.0
H410 H 0.05994 0.95848 0.60578 0.0
O411 O 1.0013 0.79885 0.66947 0.0
O412 O 0.95291 0.73878 0.66474 0.0
C413 C 0.92882 0.79029 0.78361 0.0
O414 O 0.93132 0.77936 0.56023 0.0
O415 O 0.98292 0.83807 0.56881 0.0
Zn416 Zn 0.2818 0.15876 0.67109 0.0
O417 O 0.25031 0.09609 0.65378 0.0
C418 C 0.24894 0.1678 0.55178 0.0
Zn419 Zn 0.22129 0.1507 0.67906 0.0
C420 C 0.21307 0.07645 0.65212 0.0
O421 O 0.19337 0.09312 0.66078 0.0
C422 C 0.28338 0.23325 0.70402 0.0
O423 O 0.22463 0.13793 0.77446 0.0
O424 O 0.28353 0.14614 0.76297 0.0
N425 N 0.16931 0.14794 0.69644 0.0
C426 C 0.1525 0.16724 0.67183 0.0
C427 C 0.11726 0.13421 0.74846 0.0
N428 N 0.14741 0.12754 0.74414 0.0
N429 N 0.12005 0.15938 0.70406 0.0
C430 C 0.34443 0.14061 0.60859 0.0
C431 C 0.38764 0.15771 0.67897 0.0
N432 N 0.33462 0.158 0.65438 0.0
N433 N 0.36177 0.16853 0.69782 0.0
N434 N 0.37745 0.13969 0.62319 0.0
H435 H 0.32278 0.09698 0.53633 0.0
H436 H 0.33205 0.14441 0.51314 0.0
H437 H 0.28949 0.11364 0.55828 0.0
C438 C 0.32058 0.12261 0.55119 0.0
C439 C 0.16874 0.19512 0.61841 0.0
H440 H 0.15802 0.21618 0.61945 0.0
H441 H 0.15923 0.17849 0.57423 0.0
H442 H 0.20107 0.21127 0.6194 0.0
O443 O 0.24757 0.20854 0.69838 0.0
O444 O 0.30892 0.22259 0.6951 0.0
C445 C 0.25384 0.13677 0.79683 0.0
O446 O 0.27881 0.17039 0.57825 0.0
O447 O 0.21886 0.16044 0.5836 0.0
Zn448 Zn 0.8938 0.13335 0.69629 0.0
O449 O 0.95694 0.16518 0.68113 0.0
C450 C 0.885 0.09556 0.57359 0.0
Zn451 Zn 0.90167 0.08114 0.69921 0.0
C452 C 0.9764 0.14778 0.67437 0.0
O453 O 0.95946 0.11117 0.67864 0.0
C454 C 0.81889 0.06029 0.7257 0.0
O455 O 0.91573 0.09493 0.79479 0.0
O456 O 0.90511 0.14409 0.78849 0.0
N457 N 0.90443 0.0317 0.71062 0.0
C458 C 0.88577 0.99675 0.68206 0.0
C459 C 0.91954 0.99252 0.7555 0.0
N460 N 0.92525 0.02894 0.75639 0.0
N461 N 0.89455 0.97165 0.70971 0.0
C462 C 0.91571 0.2169 0.6466 0.0
C463 C 0.89567 0.23887 0.71943 0.0
N464 N 0.89529 0.18703 0.68699 0.0
N465 N 0.8829 0.20101 0.732 0.0
N466 N 0.91688 0.25004 0.6664 0.0
H467 H 0.94109 0.18926 0.59065 0.0
H468 H 0.9644 0.24143 0.58264 0.0
H469 H 0.91732 0.20986 0.54834 0.0
C470 C 0.93604 0.21416 0.58933 0.0
C471 C 0.85757 0.98659 0.6293 0.0
H472 H 0.83785 0.95461 0.62591 0.0
H473 H 0.87423 0.9971 0.58517 0.0
H474 H 0.83975 1.00079 0.63536 0.0
O475 O 0.84368 0.0493 0.72004 0.0
O476 O 0.82967 0.09641 0.7175 0.0
C477 C 0.91583 0.12408 0.81971 0.0
O478 O 0.88326 0.12265 0.60213 0.0
O479 O 0.89056 0.07127 0.60378 0.0
Zn480 Zn 0.21841 0.08048 0.17808 0.0
O481 O 0.21993 0.09546 0.27452 0.0
C482 C 0.27913 0.05803 0.20421 0.0
Zn483 Zn 0.27913 0.13217 0.17223 0.0
C484 C 0.24957 0.12536 0.29731 0.0
O485 O 0.2795 0.14504 0.26379 0.0
C486 C 0.24896 0.09246 0.05137 0.0
O487 O 0.2486 0.1648 0.15534 0.0
O488 O 0.19149 0.11119 0.15867 0.0
N489 N 0.33214 0.18541 0.15821 0.0
C490 C 0.34208 0.2128 0.11297 0.0
C491 C 0.38453 0.2387 0.18451 0.0
N492 N 0.35877 0.20188 0.20244 0.0
N493 N 0.37469 0.24669 0.12863 0.0
C494 C 0.14815 0.99721 0.16041 0.0
C495 C 0.10962 0.99352 0.23303 0.0
N496 N 0.16542 0.03174 0.19033 0.0
N497 N 0.14153 0.0293 0.23568 0.0
N498 N 0.11327 0.97284 0.18643 0.0
H499 H 0.15243 0.95456 0.10348 0.0
H500 H 0.16086 0.99794 0.06356 0.0
H501 H 0.19782 0.99978 0.11427 0.0
C502 C 0.1659 0.98664 0.1076 0.0
C503 C 0.31875 0.20727 0.05502 0.0
H504 H 0.2876 0.1853 0.06109 0.0
H505 H 0.32103 0.23514 0.04041 0.0
H506 H 0.33059 0.1971 0.01712 0.0
O507 O 0.27829 0.11925 0.07934 0.0
O508 O 0.21826 0.06983 0.0818 0.0
C509 C 0.21144 0.14761 0.15167 0.0
O510 O 0.24343 0.04753 0.19821 0.0
O511 O 0.30507 0.0941 0.19574 0.0
Zn512 Zn 0.91802 0.15906 0.1926 0.0
O513 O 0.88977 0.09672 0.17533 0.0
C514 C 0.95833 0.16757 0.07341 0.0
Zn515 Zn 0.97263 0.15447 0.20193 0.0
C516 C 0.90837 0.07825 0.1792 0.0
O517 O 0.94458 0.09614 0.1903 0.0
C518 C 0.98916 0.23604 0.22092 0.0
O519 O 0.95997 0.14491 0.29783 0.0
O520 O 0.90528 0.14633 0.28554 0.0
N521 N 1.02448 0.15526 0.21376 0.0
C522 C 0.05832 0.17319 0.18126 0.0
C523 C 0.06635 0.14245 0.25548 0.0
N524 N 1.02967 0.1364 0.2601 0.0
N525 N 0.08496 0.16557 0.20653 0.0
C526 C 0.83534 0.13617 0.13113 0.0
C527 C 0.80818 0.15312 0.20005 0.0
N528 N 0.8624 0.1547 0.1768 0.0
N529 N 0.84507 0.16507 0.21935 0.0
N530 N 0.8008 0.13446 0.14483 0.0
H531 H 0.81473 0.09131 0.06086 0.0
H532 H 0.85145 0.13912 0.03557 0.0
H533 H 0.86528 0.11075 0.08192 0.0
C534 C 0.84207 0.11805 0.07457 0.0
C535 C 0.06604 0.19961 0.12679 0.0
H536 H 0.0979 0.21974 0.12056 0.0
H537 H 0.05445 0.1819 0.08396 0.0
H538 H 0.05121 0.21677 0.13311 0.0
O539 O 1.00216 0.21292 0.21515 0.0
O540 O 0.95221 0.22305 0.21515 0.0
C541 C 0.92806 0.14063 0.31981 0.0
O542 O 0.93138 0.17086 0.09975 0.0
O543 O 0.98121 0.16097 0.10569 0.0
Zn544 Zn 0.8914 0.82604 0.15745 0.0
O545 O 0.90617 0.8351 0.25558 0.0
C546 C 0.81121 0.75814 0.18797 0.0
Zn547 Zn 0.88918 0.76859 0.16217 0.0
C548 C 0.90908 0.8081 0.28324 0.0
O549 O 0.90091 0.77711 0.25415 0.0
C550 C 0.87783 0.78638 0.03528 0.0
O551 O 0.95176 0.80678 0.14626 0.0
O552 O 0.94844 0.86016 0.13593 0.0
N553 N 0.89848 0.72038 0.16156 0.0
C554 C 0.92396 0.71429 0.12723 0.0
C555 C 0.89445 0.66584 0.18805 0.0
N556 N 0.8803 0.69008 0.19927 0.0
N557 N 0.92199 0.6803 0.14304 0.0
C558 C 0.89335 0.90616 0.17308 0.0
C559 C 0.84555 0.89438 0.11328 0.0
N560 N 0.87986 0.87026 0.14942 0.0
N561 N 0.85018 0.86312 0.11248 0.0
N562 N 0.87196 0.92169 0.1514 0.0
H563 H 0.9493 0.91594 0.20422 0.0
H564 H 0.94313 0.95825 0.20892 0.0
H565 H 0.91887 0.9187 0.26354 0.0
C566 C 0.9284 0.92617 0.21448 0.0
C567 C 0.95367 0.74349 0.0831 0.0
H568 H 0.97901 0.76542 0.11028 0.0
H569 H 0.96533 0.73021 0.0505 0.0
H570 H 0.94119 0.75849 0.05632 0.0
O571 O 0.87859 0.76054 0.06848 0.0
O572 O 0.88021 0.81629 0.06101 0.0
C573 C 0.96837 0.84328 0.13585 0.0
O574 O 0.83395 0.79386 0.17891 0.0
O575 O 0.82464 0.73468 0.18361 0.0
C576 C 0.56334 0.22209 0.91613 0.0
C577 C 0.55229 0.19149 0.95877 0.0
C578 C 0.56249 0.25585 0.93268 0.0
C579 C 0.55089 0.26019 -0.00737 0.0
H580 H 0.57652 0.22161 0.8721 0.0
H581 H 0.57444 0.28005 0.90048 0.0
S582 S 0.51526 0.18685 0.11876 0.0
N583 N 0.5258 0.16606 0.06107 0.0
N584 N 0.52452 0.22975 0.09239 0.0
C585 C 0.53666 0.2285 0.0337 0.0
C586 C 0.53698 0.19392 0.01652 0.0
C587 C 0.78823 0.31256 0.05729 0.0
C588 C 0.78566 0.29545 -0.00096 0.0
C589 C 0.82035 0.34873 0.07221 0.0
C590 C 0.85081 0.36909 0.02928 0.0
H591 H 0.76384 0.29984 0.08933 0.0
H592 H 0.81981 0.36235 0.11568 0.0
S593 S 0.85995 0.33498 0.87321 0.0
N594 N 0.81804 0.29957 0.90072 0.0
N595 N 0.87815 0.3684 0.92841 0.0
C596 C 0.85021 0.35105 0.97295 0.0
C597 C 0.81752 0.31405 0.9578 0.0
C598 C 0.69873 0.49991 0.07273 0.0
C599 C 0.6875 0.49782 0.01039 0.0
C600 C 0.7354 0.50518 0.08811 0.0
C601 C 0.76192 0.50839 0.04163 0.0
H602 H 0.67781 0.49411 0.10975 0.0
H603 H 0.74212 0.50428 0.13665 0.0
S604 S 0.74907 0.51307 0.8717 0.0
N605 N 0.70685 0.50405 0.90207 0.0
N606 N 0.77726 0.51678 0.93103 0.0
C607 C 0.75248 0.51036 0.9792 0.0
C608 C 0.71475 0.50429 0.96354 0.0
C609 C 0.81038 0.50637 0.45009 0.0
C610 C 0.79028 0.50952 0.50182 0.0
C611 C 0.84073 0.49827 0.45776 0.0
C612 C 0.85197 0.49371 0.5174 0.0
H613 H 0.80121 0.5083 0.40346 0.0
H614 H 0.85382 0.49325 0.417 0.0
S615 S 0.81254 0.50477 0.66755 0.0
N616 N 0.78692 0.51229 0.61436 0.0
N617 N 0.84343 0.49584 0.62887 0.0
C618 C 0.83382 0.49914 0.56945 0.0
C619 C 0.80304 0.50746 0.56166 0.0
C620 C 0.55283 0.31938 0.54601 0.0
C621 C 0.56554 0.30355 0.49923 0.0
C622 C 0.55278 0.35427 0.53608 0.0
C623 C 0.56621 0.3744 0.47953 0.0
H624 H 0.54532 0.30595 0.59153 0.0
H625 H 0.54616 0.36753 0.57485 0.0
S626 S 0.59951 0.34318 0.34135 0.0
N627 N 0.58886 0.30865 0.39333 0.0
N628 N 0.58951 0.37469 0.37494 0.0
C629 C 0.57622 0.35731 0.43111 0.0
C630 C 0.57585 0.32173 0.44098 0.0
C631 C 0.7122 0.22645 0.43289 0.0
C632 C 0.69041 0.19392 0.47139 0.0
C633 C 0.7468 0.25882 0.45411 0.0
C634 C 0.76046 0.2598 0.51474 0.0
H635 H 0.70012 0.2287 0.38893 0.0
H636 H 0.76066 0.28465 0.42532 0.0
S637 S 0.71763 0.17964 0.62969 0.0
N638 N 0.68779 0.16258 0.56947 0.0
N639 N 0.75262 0.22372 0.6097 0.0
C640 C 0.74114 0.226 0.55116 0.0
C641 C 0.70627 0.19281 0.52915 0.0
C642 C 0.25133 0.60149 0.31664 0.0
C643 C 0.21586 0.59504 0.34181 0.0
C644 C 0.26133 0.57243 0.31832 0.0
C645 C 0.23603 0.53574 0.34473 0.0
H646 H 0.27143 0.62912 0.29531 0.0
H647 H 0.2895 0.57903 0.29968 0.0
S648 S 0.13829 0.50351 0.41272 0.0
N649 N 0.1542 0.54889 0.39058 0.0
N650 N 0.17314 0.49385 0.3938 0.0
C651 C 0.19961 0.52822 0.36743 0.0
C652 C 0.18946 0.55802 0.36594 0.0
C653 C 0.50781 0.68069 0.40557 0.0
C654 C 0.52044 0.69221 0.34427 0.0
C655 C 0.4779 0.64298 0.41872 0.0
C656 C 0.45947 0.61564 0.37092 0.0
H657 H 0.51902 0.70187 0.44299 0.0
H658 H 0.46731 0.63592 0.46609 0.0
S659 S 0.48771 0.62961 0.20437 0.0
N660 N 0.51623 0.67268 0.23636 0.0
N661 N 0.46091 0.60057 0.26151 0.0
C662 C 0.47455 0.62571 0.31018 0.0
C663 C 0.50487 0.66445 0.2967 0.0
C664 C 0.39181 0.8035 0.28298 0.0
C665 C 0.41102 0.81952 0.33946 0.0
C666 C 0.3557 0.80058 0.26974 0.0
C667 C 0.33813 0.81428 0.31203 0.0
H668 H 0.40312 0.79023 0.25135 0.0
H669 H 0.33995 0.7847 0.2286 0.0
S670 S 0.37864 0.86203 0.46341 0.0
N671 N 0.41153 0.85178 0.43565 0.0
N672 N 0.34397 0.8471 0.4102 0.0
C673 C 0.35867 0.83331 0.36613 0.0
C674 C 0.39501 0.83556 0.38016 0.0
C675 C 0.48415 0.80324 0.77178 0.0
C676 C 0.51387 0.81357 0.81602 0.0
C677 C 0.45015 0.80438 0.78647 0.0
C678 C 0.44456 0.8152 0.84622 0.0
H679 H 0.48582 0.79123 0.72733 0.0
H680 H 0.42679 0.7937 0.75263 0.0
S681 S 0.51458 0.84704 0.97717 0.0
N682 N 0.53674 0.83741 0.9204 0.0
N683 N 0.47236 0.83882 0.94834 0.0
C684 C 0.47502 0.82781 0.88953 0.0
C685 C 0.50994 0.82736 0.87422 0.0
C686 C 0.2176 0.63184 0.80837 0.0
C687 C 0.20637 0.61739 0.86909 0.0
C688 C 0.21871 0.66619 0.78984 0.0
C689 C 0.20853 0.68706 0.83138 0.0
H690 H 0.22935 0.6188 0.77714 0.0
H691 H 0.23191 0.67884 0.74538 0.0
S692 S 0.17087 0.65783 -0.00834 0.0
N693 N 0.17993 0.62351 0.96768 0.0
N694 N 0.18199 0.68828 0.93271 0.0
C695 C 0.19308 0.67057 0.88961 0.0
C696 C 0.19232 0.6358 0.90874 0.0
C697 C 0.36375 0.53522 0.79286 0.0
C698 C 0.34892 0.52487 0.85336 0.0
C699 C 0.40153 0.56648 0.78291 0.0
C700 C 0.42513 0.58828 0.83315 0.0
H701 H 0.34514 0.52096 0.75313 0.0
H702 H 0.41167 0.57501 0.73562 0.0
S703 S 0.4014 0.5681 0.00043 0.0
N704 N 0.36137 0.53566 0.9641 0.0
N705 N 0.43323 0.59358 0.94532 0.0
C706 C 0.41162 0.57612 0.89386 0.0
C707 C 0.37314 0.54454 0.90396 0.0
C708 C 0.89598 0.92808 0.62994 0.0
C709 C 0.88589 0.93358 0.69027 0.0
C710 C 0.89845 0.89496 0.6153 0.0
C711 C 0.89023 0.86622 0.6603 0.0
H712 H 0.90572 0.95118 0.59589 0.0
H713 H 0.9105 0.89365 0.57061 0.0
S714 S 0.85733 0.86468 0.82201 0.0
N715 N 0.86366 0.90599 0.79295 0.0
N716 N 0.86766 0.84325 0.76504 0.0
C717 C 0.87627 0.86954 0.71862 0.0
C718 C 0.87438 0.9035 0.73383 0.0
C719 C 0.17921 1.01838 0.71598 0.0
C720 C 0.19145 0.03411 0.65635 0.0
C721 C 0.14608 0.98181 0.72415 0.0
C722 C 0.12408 0.95959 0.67297 0.0
H723 H 0.19324 0.03594 0.75679 0.0
H724 H 0.13629 0.97183 0.7711 0.0
S725 S 0.14989 0.98455 0.50685 0.0
N726 N 0.18268 0.02339 0.54516 0.0
N727 N 0.12195 0.95274 0.56023 0.0
C728 C 0.13858 0.9733 0.61284 0.0
C729 C 0.17195 1.01113 0.60462 0.0
C730 C 0.03752 0.16092 0.62367 0.0
C731 C 1.01909 0.16843 0.67342 0.0
C732 C 0.07315 0.16191 0.63224 0.0
C733 C 0.09095 0.16991 0.69102 0.0
H734 H 1.02226 0.15009 0.57992 0.0
H735 H 0.08463 0.15242 0.59457 0.0
S736 S 0.05691 0.19647 0.83361 0.0
N737 N 1.0233 0.18855 0.78103 0.0
N738 N 0.09017 0.18995 0.79741 0.0
C739 C 0.07473 0.18116 0.7393 0.0
C740 C 0.03883 0.18074 0.7303 0.0
C741 C 0.18839 0.18694 0.20594 0.0
C742 C 0.18953 0.16845 0.15081 0.0
C743 C 0.15493 0.18894 0.22186 0.0
C744 C 0.12214 0.17326 0.18256 0.0
H745 H 0.21127 0.1955 0.24033 0.0
H746 H 0.15341 0.20004 0.2672 0.0
S747 S 0.11308 0.12667 0.02937 0.0
N748 N 0.15716 0.13817 0.05402 0.0
N749 N 0.09449 0.14222 0.08364 0.0
C750 C 0.1247 0.15849 0.12449 0.0
C751 C 0.15855 0.15623 0.10854 0.0
C752 C 0.87816 0.98161 0.10769 0.0
C753 C 0.87671 0.95964 0.15997 0.0
C754 C 0.88464 0.01951 0.11428 0.0
C755 C 0.88918 0.03607 0.17341 0.0
H756 H 0.87602 0.96996 0.06136 0.0
H757 H 0.88853 0.03671 0.07298 0.0
S758 S 0.88236 0.98886 0.32488 0.0
N759 N 0.8757 0.95547 0.27264 0.0
N760 N 0.88897 0.02729 0.28509 0.0
C761 C 0.88551 1.01367 0.22605 0.0
C762 C 0.87892 0.97517 0.21936 0.0
C763 C 0.06661 0.90372 0.20526 0.0
C764 C 0.08296 0.93579 0.16481 0.0
C765 C 0.03121 0.87007 0.19076 0.0
C766 C 1.01094 0.86819 0.1361 0.0
H767 H 0.08 0.90582 0.25004 0.0
H768 H 1.01765 0.84736 0.22553 0.0
S769 S 0.04356 0.94295 0.0126 0.0
N770 N 0.07836 0.96226 0.06567 0.0
N771 N 1.01136 0.89931 0.03889 0.0
C772 C 1.02867 0.89876 0.09311 0.0
C773 C 0.06485 0.93267 0.10747 0.0
C774 C 0.54392 0.11739 0.25373 0.0
C775 C 0.56601 0.15071 0.28996 0.0
C776 C 0.55504 0.11521 0.19309 0.0
C777 C 0.58896 0.1462 0.16632 0.0
H778 H 0.51898 0.09193 0.27359 0.0
H779 H 0.53739 0.08828 0.16794 0.0
S780 S 0.65473 0.24159 0.24049 0.0
N781 N 0.62155 0.21663 0.2942 0.0
N782 N 0.64262 0.21271 0.17918 0.0
C783 C 0.61003 0.18074 0.20082 0.0
C784 C 0.59842 0.18301 0.26288 0.0
C785 C 0.88722 0.42984 0.32355 0.0
C786 C 0.92082 0.43396 0.35277 0.0
C787 C 0.88956 0.44555 0.26459 0.0
C788 C 0.92549 0.46547 0.23282 0.0
H789 H 0.85941 0.41659 0.34783 0.0
H790 H 0.86304 0.44218 0.24397 0.0
S791 S 1.02131 0.48109 0.28778 0.0
N792 N 0.99046 0.457 0.34465 0.0
N793 N 0.99496 0.48647 0.23345 0.0
C794 C 0.95895 0.46814 0.26045 0.0
C795 C 0.95655 0.45223 0.32045 0.0
C796 C 0.62076 0.47229 0.28022 0.0
C797 C 0.60635 0.4946 0.30873 0.0
C798 C 0.60731 0.45539 0.22183 0.0
C799 C 0.57931 0.46058 0.19005 0.0
H800 H 0.64151 0.46658 0.30404 0.0
H801 H 0.61955 0.43894 0.20094 0.0
S802 S 0.53284 0.51688 0.24399 0.0
N803 N 0.56315 0.52154 0.30038 0.0
N804 N 0.53757 0.48952 0.19069 0.0
C805 C 0.5649 0.48306 0.21776 0.0
C806 C 0.57862 0.50028 0.277 0.0
C807 C 0.94212 0.5099 0.81669 0.0
C808 C 0.90944 0.48865 0.85492 0.0
C809 C 0.94284 0.49784 0.75615 0.0
C810 C 0.91097 0.4638 0.73163 0.0
H811 H 0.96808 0.53512 0.83468 0.0
H812 H 0.96918 0.51499 0.72908 0.0
S813 S 0.81746 0.39888 0.81287 0.0
N814 N 0.84377 0.43292 0.8644 0.0
N815 N 0.84481 0.41009 0.7496 0.0
C816 C 0.87735 0.44302 0.76873 0.0
C817 C 0.8766 0.45559 0.8306 0.0
C818 C 0.5638 0.46037 0.71418 0.0
C819 C 0.59782 0.46334 0.6874 0.0
C820 C 0.55149 0.44525 0.77338 0.0
C821 C 0.5726 0.43246 0.80863 0.0
H822 H 0.5465 0.47037 0.68979 0.0
H823 H 0.52609 0.44516 0.79286 0.0
S824 S 0.66255 0.43198 0.76032 0.0
N825 N 0.65148 0.45035 0.70003 0.0
N826 N 0.6284 0.42234 0.81312 0.0
C827 C 0.60583 0.43372 0.78228 0.0
C828 C 0.61854 0.44926 0.72134 0.0
C829 C 0.58961 0.0895 0.75773 0.0
C830 C 0.61656 0.12351 0.78932 0.0
C831 C 0.57802 0.09124 0.69708 0.0
C832 C 0.59254 0.12711 0.66637 0.0
H833 H 0.57622 0.06148 0.78082 0.0
H834 H 0.55665 0.06443 0.67479 0.0
S835 S 0.66732 0.22409 0.72518 0.0
N836 N 0.66041 0.19381 0.78267 0.0
N837 N 0.63791 0.19688 0.66899 0.0
C838 C 0.62089 0.1611 0.69601 0.0
C839 C 0.63327 0.15931 0.75733 0.0
C840 C 0.26957 0.49702 0.59851 0.0
C841 C 0.24922 0.46272 0.56309 0.0
C842 C 0.25724 0.4993 0.65881 0.0
C843 C 0.22431 0.46731 0.68544 0.0
H844 H 0.29553 0.52202 0.58005 0.0
H845 H 0.27503 0.5253 0.68604 0.0
S846 S 0.15911 0.37201 0.61126 0.0
N847 N 0.19297 0.39678 0.55852 0.0
N848 N 0.17013 0.40158 0.67132 0.0
C849 C 0.20268 0.43368 0.64961 0.0
C850 C 0.21512 0.43119 0.58863 0.0
C851 C 0.55854 0.77294 0.55197 0.0
C852 C 0.59245 0.79964 0.51987 0.0
C853 C 0.56092 0.75942 0.61075 0.0
C854 C 0.59729 0.77257 0.63988 0.0
H855 H 0.52993 0.76193 0.53124 0.0
H856 H 0.53388 0.73978 0.63451 0.0
S857 S 0.69485 0.84151 0.57438 0.0
N858 N 0.66361 0.8379 0.5203 0.0
N859 N 0.66798 0.81272 0.63154 0.0
C860 C 0.63148 0.79871 0.60781 0.0
C861 C 0.62909 0.81226 0.54767 0.0
C862 C 0.27932 0.77556 0.62108 0.0
C863 C 0.28661 0.81116 0.64681 0.0
C864 C 0.26543 0.76538 0.56005 0.0
C865 C 0.2585 0.79059 0.52327 0.0
H866 H 0.28153 0.75428 0.64969 0.0
H867 H 0.25856 0.73701 0.54266 0.0
S868 S 0.27954 0.89004 0.56774 0.0
N869 N 0.29024 0.8732 0.63023 0.0
N870 N 0.26522 0.85518 0.51523 0.0
C871 C 0.26876 0.82764 0.54751 0.0
C872 C 0.28257 0.83766 0.60944 0.0
C873 C 0.59407 0.8178 0.04137 0.0
C874 C 0.5664 0.7809 0.01777 0.0
C875 C 0.59107 0.82917 0.10132 0.0
C876 C 0.56012 0.8044 0.14015 0.0
H877 H 0.61917 0.83805 0.01408 0.0
H878 H 0.61432 0.85682 0.1186 0.0
S879 S 0.47792 0.70643 0.10046 0.0
N880 N 0.50524 0.72077 0.037 0.0
N881 N 0.49978 0.74244 0.15101 0.0
C882 C 0.53082 0.76846 0.11663 0.0
C883 C 0.53395 0.7566 0.0551 0.0
C884 C 0.2161 0.79969 0.05453 0.0
C885 C 0.23886 0.78599 0.02551 0.0
C886 C 0.20164 0.78802 0.11478 0.0
C887 C 0.20878 0.76166 0.14773 0.0
H888 H 0.21019 0.82035 0.0311 0.0
H889 H 0.1859 0.8008 0.13648 0.0
S890 S 0.26393 0.71459 0.08985 0.0
N891 N 0.26592 0.74294 0.03224 0.0
N892 N 0.23833 0.72042 0.1453 0.0
C893 C 0.22994 0.74626 0.11795 0.0
C894 C 0.24526 0.75873 0.05699 0.0
C895 C 0.27879 0.4931 0.09619 0.0
C896 C 0.25655 0.4578 0.06393 0.0
C897 C 0.29388 0.49375 0.15538 0.0
C898 C 0.28694 0.45908 0.18417 0.0
H899 H 0.28428 0.52036 0.07589 0.0
H900 H 0.30882 0.52118 0.18024 0.0
S901 S 0.23296 0.35948 0.11783 0.0
N902 N 0.23028 0.38761 0.06397 0.0
N903 N 0.25876 0.38903 0.17487 0.0
C904 C 0.26646 0.42394 0.15115 0.0
C905 C 0.2511 0.42321 0.09121 0.0
C906 C 0.92299 0.82299 0.87819 0.0
C907 C 0.91575 0.7886 0.84798 0.0
C908 C 0.90752 0.82176 0.93722 0.0
C909 C 0.88476 0.78611 0.96823 0.0
H910 H 0.94036 0.85102 0.85584 0.0
H911 H 0.91504 0.84908 0.95977 0.0
S912 S 0.85635 0.68779 0.90789 0.0
N913 N 0.88334 0.71788 0.8521 0.0
N914 N 0.8546 0.71558 0.96355 0.0
C915 C 0.87655 0.75147 0.93779 0.0
C916 C 0.89206 0.75271 0.87759 0.0
C917 C 0.21671 0.10347 0.89308 0.0
C918 C 0.25236 0.12196 0.86022 0.0
C919 C 0.21477 0.08986 0.95369 0.0
C920 C 0.24849 0.09458 0.98343 0.0
H921 H 0.19024 0.10025 0.87248 0.0
H922 H 0.18732 0.07808 0.97876 0.0
S923 S 0.34793 0.13681 0.91585 0.0
N924 N 0.32147 0.14103 0.86046 0.0
N925 N 0.31753 0.11547 0.97441 0.0
C926 C 0.2837 0.11073 0.94993 0.0
C927 C 0.28575 0.12455 0.88836 0.0
C928 C 0.92386 0.16499 0.91156 0.0
C929 C 0.93052 0.1369 0.88303 0.0
C930 C 0.93665 0.17778 0.97172 0.0
C931 C 0.95653 0.16294 0.00575 0.0
H932 H 0.90755 0.17648 0.88808 0.0
H933 H 0.92901 0.1979 -0.00707 0.0
S934 S 0.98621 0.09302 0.94936 0.0
N935 N 0.96212 0.0978 0.89061 0.0
N936 N 0.98585 0.1216 0.00497 0.0
C937 C 0.96587 0.13688 0.97653 0.0
C938 C 0.95267 0.12369 0.91493 0.0
C939 C 0.21391 0.12181 0.39558 0.0
C940 C 0.24882 0.13917 0.36081 0.0
C941 C 0.21297 0.13421 0.45623 0.0
C942 C 0.24697 0.16418 0.48399 0.0
H943 H 0.18735 0.09788 0.3765 0.0
H944 H 0.18619 0.11843 0.48289 0.0
S945 S 0.34462 0.22213 0.41118 0.0
N946 N 0.3175 0.19038 0.35739 0.0
N947 N 0.3153 0.21323 0.47128 0.0
C948 C 0.28134 0.18331 0.44867 0.0
C949 C 0.28243 0.17083 0.38714 0.0
C950 C 0.8877 0.13282 0.41301 0.0
C951 C 0.91552 0.12613 0.38331 0.0
C952 C 0.87517 0.11959 0.47333 0.0
C953 C 0.88965 0.09879 0.50582 0.0
H954 H 0.87639 0.14949 0.39027 0.0
H955 H 0.85534 0.12727 0.49574 0.0
S956 S 0.95938 0.06953 0.44582 0.0
N957 N 0.95458 0.09436 0.38839 0.0
N958 N 0.93086 0.0693 0.50227 0.0
C959 C 0.91562 0.08973 0.47529 0.0
C960 C 0.92879 0.10366 0.41398 0.0
C961 C 0.92787 0.78076 0.37135 0.0
C962 C 0.9249 0.81219 0.3469 0.0
C963 C 0.94238 0.78214 0.43066 0.0
C964 C 0.95477 0.81499 0.46835 0.0
H965 H 0.91809 0.75411 0.34518 0.0
H966 H 0.94215 0.75645 0.44833 0.0
S967 S 0.95573 0.90614 0.42665 0.0
N968 N 0.93787 0.87825 0.36439 0.0
N969 N 0.96491 0.88053 0.47743 0.0
C970 C 0.95384 0.84746 0.44423 0.0
C971 C 0.93882 0.84608 0.38322 0.0
C972 C 0.38869 0.94452 0.84113 0.0
C973 C 0.35371 0.92815 0.8762 0.0
C974 C 0.42539 0.97074 0.8674 0.0
C975 C 0.42909 0.98206 0.9303 0.0
H976 H 0.38815 0.93419 0.79426 0.0
H977 H 0.45124 0.97986 0.83921 0.0
S978 S 0.34653 0.95 0.0418 0.0
N979 N 0.32529 0.92693 0.97676 0.0
N980 N 0.39372 0.97665 0.02588 0.0
C981 C 0.39411 0.96767 0.96503 0.0
C982 C 0.35669 0.94092 0.93806 0.0
C983 C 0.07387 0.42643 0.00388 0.0
C984 C 0.05796 0.44404 0.96604 0.0
C985 C 0.09825 0.41307 0.97905 0.0
C986 C 0.10793 0.417 0.91533 0.0
H987 H 0.06944 0.42529 0.0537 0.0
H988 H 0.11306 0.40371 0.01103 0.0
S989 S 0.07253 0.45934 0.79591 0.0
N990 N 0.05274 0.46333 0.86123 0.0
N991 N 0.09711 0.43724 0.81457 0.0
C992 C 0.08948 0.43159 0.87651 0.0
C993 C 0.06519 0.44565 0.9018 0.0
C994 C 0.62358 0.66246 0.84558 0.0
C995 C 0.6343 0.69538 0.88363 0.0
C996 C 0.60994 0.62495 0.87071 0.0
C997 C 0.60669 0.61844 0.9354 0.0
H998 H 0.62148 0.66492 0.79574 0.0
H999 H 0.59885 0.6006 0.83893 0.0
S1000 S 0.63497 0.69517 0.05598 0.0
N1001 N 0.6434 0.71904 0.98965 0.0
N1002 N 0.61922 0.64929 0.03704 0.0
C1003 C 0.62031 0.6516 0.97401 0.0
C1004 C 0.63406 0.68978 0.94822 0.0
C1005 C 0.05824 0.62466 0.40266 0.0
C1006 C 0.05432 0.62243 0.46796 0.0
C1007 C 0.08059 0.66056 0.37164 0.0
C1008 C 0.10137 0.69629 0.40398 0.0
H1009 H 0.0467 0.59846 0.3751 0.0
H1010 H 0.08537 0.6598 0.32213 0.0
S1011 S 0.09896 0.7076 0.57477 0.0
N1012 N 0.07058 0.66031 0.56341 0.0
N1013 N 0.11433 0.72703 0.50525 0.0
C1014 C 0.09583 0.69485 0.46878 0.0
C1015 C 0.07239 0.65827 0.50057 0.0
C1016 C 0.41422 0.43184 0.40182 0.0
C1017 C 0.42213 0.43408 0.46605 0.0
C1018 C 0.37588 0.41678 0.37913 0.0
C1019 C 0.34358 0.40488 0.41939 0.0
H1020 H 0.43776 0.44491 0.36848 0.0
H1021 H 0.37231 0.41979 0.32986 0.0
S1022 S 0.3469 0.39945 0.59105 0.0
N1023 N 0.39293 0.41747 0.56924 0.0
N1024 N 0.32161 0.39205 0.52641 0.0
C1025 C 0.35046 0.40359 0.48319 0.0
C1026 C 0.38946 0.41804 0.50652 0.0
C1027 C 0.61759 0.94387 0.41726 0.0
C1028 C 0.61713 0.93375 0.35413 0.0
C1029 C 0.60543 0.97034 0.43641 0.0
C1030 C 0.59248 0.98804 0.39314 0.0
H1031 H 0.62338 0.92809 0.45278 0.0
H1032 H 0.60308 0.97435 0.48567 0.0
S1033 S 0.58809 0.97373 0.22221 0.0
N1034 N 0.60436 0.94537 0.24856 0.0
N1035 N 0.58265 0.9955 0.28387 0.0
C1036 C 0.59437 0.98015 0.32972 0.0
C1037 C 0.60658 0.95318 0.31042 0.0
C1038 C 0.05891 0.30954 0.33265 0.0
C1039 C 0.09394 0.32644 0.29784 0.0
C1040 C 1.02222 0.28489 0.30471 0.0
C1041 C 1.01908 0.27598 0.24078 0.0
H1042 H 0.06022 0.31342 0.3826 0.0
H1043 H 0.99688 0.26935 0.33457 0.0
S1044 S 0.10155 0.31398 0.12843 0.0
N1045 N 0.12266 0.33313 0.19558 0.0
N1046 N 0.05414 0.28859 0.143 0.0
C1047 C 0.05358 0.29537 0.20487 0.0
C1048 C 0.09089 0.31983 0.23335 0.0
C1049 C 0.7376 0.7606 0.29308 0.0
C1050 C 0.72038 0.77597 0.25317 0.0
C1051 C 0.76223 0.74698 0.27008 0.0
C1052 C 0.77087 0.74835 0.20615 0.0
H1053 H 0.73392 0.76138 0.34287 0.0
H1054 H 0.77801 0.73949 0.30324 0.0
S1055 S 0.73274 0.78525 0.0821 0.0
N1056 N 0.71331 0.79095 0.14652 0.0
N1057 N 0.75821 0.76455 0.10339 0.0
C1058 C 0.75125 0.76085 0.16564 0.0
C1059 C 0.72672 0.77518 0.18903 0.0
C1060 C 0.28003 0.9852 0.31471 0.0
C1061 C 0.2627 0.9508 0.27864 0.0
C1062 C 0.29175 0.02213 0.28819 0.0
C1063 C 0.28668 0.02635 0.22434 0.0
H1064 H 0.28262 0.9832 0.36449 0.0
H1065 H 0.3014 0.04693 0.31894 0.0
S1066 S 0.24285 0.94575 0.10939 0.0
N1067 N 0.24102 0.92381 0.1755 0.0
N1068 N 0.2643 0.99269 0.12572 0.0
C1069 C 0.27145 0.9924 0.18743 0.0
C1070 C 0.25899 0.95486 0.21443 0.0
C1071 C 0.76145 0.99535 0.70687 0.0
C1072 C 0.77917 0.02902 0.74449 0.0
C1073 C 0.73567 0.95826 0.73157 0.0
C1074 C 0.72577 0.95296 0.79518 0.0
H1075 H 0.77073 0.9971 0.65893 0.0
H1076 H 0.72603 0.93339 0.70125 0.0
S1077 S 0.76125 0.03199 0.9131 0.0
N1078 N 0.78314 0.05477 0.84815 0.0
N1079 N 0.73361 0.98554 0.89441 0.0
C1080 C 0.7412 0.98677 0.83259 0.0
C1081 C 0.7678 0.02459 0.8073 0.0
C1082 C 1.02375 0.74595 0.75152 0.0
C1083 C 1.02076 0.75388 0.68845 0.0
C1084 C 0.06047 0.75783 0.77962 0.0
C1085 C 0.0958 0.7778 0.74583 0.0
H1086 H 0.99807 0.73434 0.78105 0.0
H1087 H 0.06146 0.75337 0.82907 0.0
S1088 S 0.10444 0.80494 0.57945 0.0
N1089 N 0.05685 0.78172 0.59296 0.0
N1090 N 0.12512 0.80403 0.64557 0.0
C1091 C 0.09307 0.78373 0.68211 0.0
C1092 C 0.05582 0.77153 0.65352 0.0
C1093 C 0.297 0.28033 0.79042 0.0
C1094 C 0.29132 0.27217 0.72622 0.0
C1095 C 0.28444 0.30411 0.82001 0.0
C1096 C 0.26573 0.32079 0.78672 0.0
H1097 H 0.30756 0.26512 0.8191 0.0
H1098 H 0.28741 0.30774 0.86997 0.0
S1099 S 0.2444 0.30912 0.61779 0.0
N1100 N 0.26737 0.28458 0.6302 0.0
N1101 N 0.24252 0.32748 0.68582 0.0
C1102 C 0.26169 0.3145 0.72216 0.0
C1103 C 0.27504 0.29093 0.69201 0.0
C1104 C 0.69033 0.62225 0.60541 0.0
C1105 C 0.68242 0.61415 0.54152 0.0
C1106 C 0.72891 0.64636 0.62746 0.0
C1107 C 0.76125 0.66371 0.58664 0.0
H1108 H 0.66735 0.6062 0.6391 0.0
H1109 H 0.73383 0.64935 0.67717 0.0
S1110 S 0.75638 0.65376 0.41505 0.0
N1111 N 0.7103 0.62813 0.43776 0.0
N1112 N 0.78226 0.6721 0.47903 0.0
C1113 C 0.75345 0.65825 0.52259 0.0
C1114 C 0.71421 0.63422 0.50019 0.0
C1115 C 0.40644 0.13013 0.5259 0.0
C1116 C 0.39803 0.12314 0.58983 0.0
C1117 C 0.43171 0.11976 0.49555 0.0
C1118 C 0.44963 0.10163 0.52733 0.0
H1119 H 0.39584 0.14634 0.50005 0.0
H1120 H 0.44006 0.12916 0.44791 0.0
S1121 S 0.43494 0.07405 0.69391 0.0
N1122 N 0.4076 0.09423 0.68279 0.0
N1123 N 0.45512 0.07533 0.62591 0.0
C1124 C 0.43942 0.09222 0.59018 0.0
C1125 C 0.41388 0.10298 0.62132 0.0
C1126 C 0.94944 0.33273 0.55104 0.0
C1127 C 0.96286 0.36589 0.58944 0.0
C1128 C 0.93619 0.29531 0.57578 0.0
C1129 C 0.93649 0.28925 0.64023 0.0
H1130 H 0.94478 0.33502 0.50195 0.0
H1131 H 0.92265 0.27083 0.54435 0.0
S1132 S 0.97341 0.36692 0.76067 0.0
N1133 N 0.97855 0.39045 0.69486 0.0
N1134 N 0.95551 0.32072 0.74141 0.0
C1135 C 0.95303 0.32266 0.67869 0.0
C1136 C 0.96613 0.36076 0.65331 0.0
C1137 C 0.40359 0.2854 0.0319 0.0
C1138 C 0.39506 0.28384 0.09582 0.0
C1139 C 0.42844 0.32106 0.00185 0.0
C1140 C 0.446 0.35695 0.03406 0.0
H1141 H 0.39348 0.25872 0.00583 0.0
H1142 H 0.43706 0.32014 0.95428 0.0
S1143 S 0.43064 0.36943 0.20072 0.0
N1144 N 0.40381 0.32195 0.18915 0.0
N1145 N 0.45081 0.3885 0.13289 0.0
C1146 C 0.43549 0.35602 0.09684 0.0
C1147 C 0.41029 0.31968 0.12766 0.0
C1148 C 0.76293 0.12125 0.0457 0.0
C1149 C 0.76374 0.1173 0.11072 0.0
C1150 C 0.72764 0.10992 0.01362 0.0
C1151 C 0.69121 0.09416 0.04459 0.0
H1152 H 0.78995 0.13585 0.01965 0.0
H1153 H 0.7294 0.11685 0.96459 0.0
S1154 S 0.67641 0.07541 0.21405 0.0
N1155 N 0.72398 0.09382 0.20432 0.0
N1156 N 0.65833 0.07371 0.14419 0.0
C1157 C 0.69126 0.08799 0.10896 0.0
C1158 C 0.72723 0.09947 0.14186 0.0
C1159 C 0.97521 0.62325 0.13414 0.0
C1160 C 0.96999 0.61095 0.07159 0.0
C1161 C 0.96155 0.64788 0.15655 0.0
C1162 C 0.94231 0.66138 0.11731 0.0
H1163 H 0.98574 0.61022 0.16751 0.0
H1164 H 0.96387 0.65449 0.20575 0.0
S1165 S 0.92246 0.63886 0.9495 0.0
N1166 N 0.94645 0.61652 0.97029 0.0
N1167 N 0.91951 0.66099 0.01264 0.0
C1168 C 0.93919 0.65136 0.05405 0.0
C1169 C 0.95377 0.62706 0.03112 0.0
loop_
_geom_bond_atom_site_label_1
_geom_bond_atom_site_label_2
_geom_bond_distance
_geom_bond_site_symmetry_2
_ccdc_geom_bond_type
Zn0 O1 2.055 . S
Zn0 O8 2.046 . S
Zn0 N16 2.036 . S
Zn0 O28 2.053 . S
Zn0 O30 2.066 1_554 S
O1 Zn0 2.055 . S
O1 C4 1.259 1_554 S
C2 O30 1.256 . S
C2 O31 1.244 . S
Zn3 O5 2.046 . S
Zn3 O7 2.055 . S
Zn3 N9 2.036 . S
Zn3 O27 2.066 . S
Zn3 O31 2.053 1_554 S
C4 O1 1.259 1_556 S
C4 O5 1.251 1_556 S
O5 Zn3 2.046 . S
O5 C4 1.251 1_554 S
C6 O27 1.256 . S
C6 O28 1.244 . S
O7 Zn3 2.055 . S
O7 C29 1.259 . S
O8 Zn0 2.046 . S
O8 C29 1.254 . S
N9 Zn3 2.036 . S
N9 C10 1.298 . S
N9 N12 1.398 1_554 S
C10 N9 1.298 . S
C10 N13 1.367 . S
C10 C23 1.481 . S
C11 N12 1.299 . S
C11 N13 1.379 1_556 S
N12 N9 1.398 1_556 S
N12 C11 1.299 . S
N13 C10 1.367 . S
N13 C11 1.379 1_554 S
C14 N16 1.298 1_556 S
C14 N18 1.367 1_545 S
C14 C22 1.481 . S
C15 N17 1.299 1_565 S
C15 N18 1.379 1_554 S
N16 Zn0 2.036 . S
N16 C14 1.298 1_554 S
N16 N17 1.398 . S
N17 C15 1.299 1_545 S
N17 N16 1.398 . S
N18 C14 1.367 1_565 S
N18 C15 1.379 1_556 S
H19 C22 0.980 . S
H20 C22 0.981 . S
H21 C22 0.981 . S
C22 C14 1.481 . S
C22 H19 0.980 . S
C22 H20 0.981 . S
C22 H21 0.981 . S
C23 C10 1.481 . S
C23 H24 0.980 . S
C23 H25 0.981 . S
C23 H26 0.981 . S
H24 C23 0.980 . S
H25 C23 0.981 . S
H26 C23 0.981 . S
O27 Zn3 2.066 . S
O27 C6 1.256 . S
O28 Zn0 2.053 . S
O28 C6 1.244 . S
C29 O7 1.259 . S
C29 O8 1.254 . S
O30 Zn0 2.066 1_556 S
O30 C2 1.256 . S
O31 C2 1.244 . S
O31 Zn3 2.053 1_556 S
Zn32 O33 2.055 . S
Zn32 O40 2.046 . S
Zn32 N48 2.036 . S
Zn32 O60 2.053 . S
Zn32 O62 2.066 1_554 S
O33 Zn32 2.055 . S
O33 C36 1.259 1_554 S
C34 O62 1.256 . S
C34 O63 1.244 . S
Zn35 O37 2.046 . S
Zn35 O39 2.055 . S
Zn35 N41 2.036 . S
Zn35 O59 2.066 . S
Zn35 O63 2.053 1_554 S
C36 O33 1.259 1_556 S
C36 O37 1.251 1_556 S
O37 Zn35 2.046 . S
O37 C36 1.251 1_554 S
C38 O59 1.256 . S
C38 O60 1.244 . S
O39 Zn35 2.055 . S
O39 C61 1.259 . S
O40 Zn32 2.046 . S
O40 C61 1.254 . S
N41 Zn35 2.036 . S
N41 C42 1.298 . S
N41 N44 1.398 1_554 S
C42 N41 1.298 . S
C42 N45 1.367 . S
C42 C55 1.481 . S
C43 N44 1.299 . S
C43 N45 1.379 1_556 S
N44 N41 1.398 1_556 S
N44 C43 1.299 . S
N45 C42 1.367 . S
N45 C43 1.379 1_554 S
C46 N48 1.298 1_556 S
C46 N50 1.367 1_655 S
C46 C54 1.481 . S
C47 N49 1.299 1_455 S
C47 N50 1.379 1_554 S
N48 Zn32 2.036 . S
N48 C46 1.298 1_554 S
N48 N49 1.398 . S
N49 C47 1.299 1_655 S
N49 N48 1.398 . S
N50 C46 1.367 1_455 S
N50 C47 1.379 1_556 S
H51 C54 0.980 . S
H52 C54 0.981 . S
H53 C54 0.981 . S
C54 C46 1.481 . S
C54 H51 0.980 . S
C54 H52 0.981 . S
C54 H53 0.981 . S
C55 C42 1.481 . S
C55 H56 0.980 . S
C55 H57 0.981 . S
C55 H58 0.981 . S
H56 C55 0.980 . S
H57 C55 0.981 . S
H58 C55 0.981 . S
O59 Zn35 2.066 . S
O59 C38 1.256 . S
O60 Zn32 2.053 . S
O60 C38 1.244 . S
C61 O39 1.259 . S
C61 O40 1.254 . S
O62 Zn32 2.066 1_556 S
O62 C34 1.256 . S
O63 C34 1.244 . S
O63 Zn35 2.053 1_556 S
Zn64 O65 2.055 . S
Zn64 O72 2.046 . S
Zn64 N80 2.036 . S
Zn64 O92 2.053 . S
Zn64 O94 2.066 1_554 S
O65 Zn64 2.055 . S
O65 C68 1.259 1_554 S
C66 O94 1.256 . S
C66 O95 1.244 . S
Zn67 O69 2.046 . S
Zn67 O71 2.055 . S
Zn67 N73 2.036 . S
Zn67 O91 2.066 . S
Zn67 O95 2.053 1_554 S
C68 O65 1.259 1_556 S
C68 O69 1.251 1_556 S
O69 Zn67 2.046 . S
O69 C68 1.251 1_554 S
C70 O91 1.256 . S
C70 O92 1.244 . S
O71 Zn67 2.055 . S
O71 C93 1.259 . S
O72 Zn64 2.046 . S
O72 C93 1.254 . S
N73 Zn67 2.036 . S
N73 C74 1.298 . S
N73 N76 1.398 1_554 S
C74 N73 1.298 . S
C74 N77 1.367 . S
C74 C87 1.481 . S
C75 N76 1.299 . S
C75 N77 1.379 1_556 S
N76 N73 1.398 1_556 S
N76 C75 1.299 . S
N77 C74 1.367 . S
N77 C75 1.379 1_554 S
C78 N80 1.298 1_556 S
C78 N82 1.367 . S
C78 C86 1.481 . S
C79 N81 1.299 . S
C79 N82 1.379 1_554 S
N80 Zn64 2.036 . S
N80 C78 1.298 1_554 S
N80 N81 1.398 . S
N81 C79 1.299 . S
N81 N80 1.398 . S
N82 C78 1.367 . S
N82 C79 1.379 1_556 S
H83 C86 0.980 . S
H84 C86 0.981 . S
H85 C86 0.981 . S
C86 C78 1.481 . S
C86 H83 0.980 . S
C86 H84 0.981 . S
C86 H85 0.981 . S
C87 C74 1.481 . S
C87 H88 0.980 . S
C87 H89 0.981 . S
C87 H90 0.981 . S
H88 C87 0.980 . S
H89 C87 0.981 . S
H90 C87 0.981 . S
O91 Zn67 2.066 . S
O91 C70 1.256 . S
O92 Zn64 2.053 . S
O92 C70 1.244 . S
C93 O71 1.259 . S
C93 O72 1.254 . S
O94 Zn64 2.066 1_556 S
O94 C66 1.256 . S
O95 C66 1.244 . S
O95 Zn67 2.053 1_556 S
Zn96 O97 2.055 . S
Zn96 O104 2.046 . S
Zn96 N112 2.036 . S
Zn96 O124 2.053 . S
Zn96 O126 2.066 . S
O97 Zn96 2.055 . S
O97 C100 1.259 . S
C98 O126 1.256 . S
C98 O127 1.244 . S
Zn99 O101 2.046 . S
Zn99 O103 2.055 . S
Zn99 N105 2.036 . S
Zn99 O123 2.066 . S
Zn99 O127 2.053 . S
C100 O97 1.259 . S
C100 O101 1.254 . S
O101 Zn99 2.046 . S
O101 C100 1.254 . S
C102 O123 1.256 . S
C102 O124 1.244 . S
O103 Zn99 2.055 . S
O103 C125 1.259 . S
O104 Zn96 2.046 . S
O104 C125 1.254 . S
N105 Zn99 2.036 . S
N105 C106 1.298 . S
N105 N108 1.398 . S
C106 N105 1.298 . S
C106 N109 1.367 . S
C106 C119 1.481 . S
C107 N108 1.299 . S
C107 N109 1.379 . S
N108 N105 1.398 . S
N108 C107 1.299 . S
N109 C106 1.367 . S
N109 C107 1.379 . S
C110 N112 1.298 . S
C110 N114 1.367 1_655 S
C110 C118 1.481 . S
C111 N113 1.299 1_455 S
C111 N114 1.379 . S
N112 Zn96 2.036 . S
N112 C110 1.298 . S
N112 N113 1.398 . S
N113 C111 1.299 1_655 S
N113 N112 1.398 . S
N114 C110 1.367 1_455 S
N114 C111 1.379 . S
H115 C118 0.980 . S
H116 C118 0.981 . S
H117 C118 0.981 . S
C118 C110 1.481 . S
C118 H115 0.980 . S
C118 H116 0.981 . S
C118 H117 0.981 . S
C119 C106 1.481 . S
C119 H120 0.980 . S
C119 H121 0.981 . S
C119 H122 0.981 . S
H120 C119 0.980 . S
H121 C119 0.981 . S
H122 C119 0.981 . S
O123 Zn99 2.066 . S
O123 C102 1.256 . S
O124 Zn96 2.053 . S
O124 C102 1.244 . S
C125 O103 1.259 . S
C125 O104 1.254 . S
O126 Zn96 2.066 . S
O126 C98 1.256 . S
O127 C98 1.244 . S
O127 Zn99 2.053 . S
Zn128 O129 2.055 . S
Zn128 O136 2.046 . S
Zn128 N144 2.036 . S
Zn128 O156 2.053 . S
Zn128 O158 2.066 . S
O129 Zn128 2.055 . S
O129 C132 1.259 . S
C130 O158 1.256 . S
C130 O159 1.244 . S
Zn131 O133 2.046 . S
Zn131 O135 2.055 . S
Zn131 N137 2.036 . S
Zn131 O155 2.066 . S
Zn131 O159 2.053 . S
C132 O129 1.259 . S
C132 O133 1.254 . S
O133 Zn131 2.046 . S
O133 C132 1.254 . S
C134 O155 1.256 . S
C134 O156 1.244 . S
O135 Zn131 2.055 . S
O135 C157 1.259 . S
O136 Zn128 2.046 . S
O136 C157 1.254 . S
N137 Zn131 2.036 . S
N137 C138 1.298 . S
N137 N140 1.398 . S
C138 N137 1.298 . S
C138 N141 1.367 . S
C138 C151 1.481 . S
C139 N140 1.299 . S
C139 N141 1.379 . S
N140 N137 1.398 . S
N140 C139 1.299 . S
N141 C138 1.367 . S
N141 C139 1.379 . S
C142 N144 1.298 . S
C142 N146 1.367 . S
C142 C150 1.481 . S
C143 N145 1.299 . S
C143 N146 1.379 . S
N144 Zn128 2.036 . S
N144 C142 1.298 . S
N144 N145 1.398 . S
N145 C143 1.299 . S
N145 N144 1.398 . S
N146 C142 1.367 . S
N146 C143 1.379 . S
H147 C150 0.980 . S
H148 C150 0.981 . S
H149 C150 0.981 . S
C150 C142 1.481 . S
C150 H147 0.980 . S
C150 H148 0.981 . S
C150 H149 0.981 . S
C151 C138 1.481 . S
C151 H152 0.980 . S
C151 H153 0.981 . S
C151 H154 0.981 . S
H152 C151 0.980 . S
H153 C151 0.981 . S
H154 C151 0.981 . S
O155 Zn131 2.066 . S
O155 C134 1.256 . S
O156 Zn128 2.053 . S
O156 C134 1.244 . S
C157 O135 1.259 . S
C157 O136 1.254 . S
O158 Zn128 2.066 . S
O158 C130 1.256 . S
O159 C130 1.244 . S
O159 Zn131 2.053 . S
Zn160 O161 2.055 . S
Zn160 O168 2.046 . S
Zn160 N176 2.036 . S
Zn160 O188 2.053 . S
Zn160 O190 2.066 . S
O161 Zn160 2.055 . S
O161 C164 1.259 . S
C162 O190 1.256 . S
C162 O191 1.244 . S
Zn163 O165 2.046 . S
Zn163 O167 2.055 . S
Zn163 N169 2.036 . S
Zn163 O187 2.066 . S
Zn163 O191 2.053 . S
C164 O161 1.259 . S
C164 O165 1.254 . S
O165 Zn163 2.046 . S
O165 C164 1.254 . S
C166 O187 1.256 . S
C166 O188 1.244 . S
O167 Zn163 2.055 . S
O167 C189 1.259 . S
O168 Zn160 2.046 . S
O168 C189 1.254 . S
N169 Zn163 2.036 . S
N169 C170 1.298 . S
N169 N172 1.398 . S
C170 N169 1.298 . S
C170 N173 1.367 1_545 S
C170 C183 1.481 . S
C171 N172 1.299 1_565 S
C171 N173 1.379 . S
N172 N169 1.398 . S
N172 C171 1.299 1_545 S
N173 C170 1.367 1_565 S
N173 C171 1.379 . S
C174 N176 1.298 . S
C174 N178 1.367 . S
C174 C182 1.481 . S
C175 N177 1.299 . S
C175 N178 1.379 . S
N176 Zn160 2.036 . S
N176 C174 1.298 . S
N176 N177 1.398 . S
N177 C175 1.299 . S
N177 N176 1.398 . S
N178 C174 1.367 . S
N178 C175 1.379 . S
H179 C182 0.980 . S
H180 C182 0.981 . S
H181 C182 0.981 . S
C182 C174 1.481 . S
C182 H179 0.980 . S
C182 H180 0.981 . S
C182 H181 0.981 . S
C183 C170 1.481 . S
C183 H184 0.980 . S
C183 H185 0.981 . S
C183 H186 0.981 . S
H184 C183 0.980 . S
H185 C183 0.981 . S
H186 C183 0.981 . S
O187 Zn163 2.066 . S
O187 C166 1.256 . S
O188 Zn160 2.053 . S
O188 C166 1.244 . S
C189 O167 1.259 . S
C189 O168 1.254 . S
O190 Zn160 2.066 . S
O190 C162 1.256 . S
O191 C162 1.244 . S
O191 Zn163 2.053 . S
Zn192 O193 2.055 . S
Zn192 O200 2.046 . S
Zn192 N208 2.036 . S
Zn192 O220 2.053 . S
Zn192 O222 2.066 . S
O193 Zn192 2.055 . S
O193 C196 1.259 . S
C194 O222 1.256 . S
C194 O223 1.244 . S
Zn195 O197 2.046 . S
Zn195 O199 2.055 . S
Zn195 N201 2.036 . S
Zn195 O219 2.066 . S
Zn195 O223 2.053 . S
C196 O193 1.259 . S
C196 O197 1.254 . S
O197 Zn195 2.046 . S
O197 C196 1.254 . S
C198 O219 1.256 . S
C198 O220 1.244 . S
O199 Zn195 2.055 . S
O199 C221 1.259 . S
O200 Zn192 2.046 . S
O200 C221 1.254 . S
N201 Zn195 2.036 . S
N201 C202 1.298 . S
N201 N204 1.398 . S
C202 N201 1.298 . S
C202 N205 1.367 . S
C202 C215 1.481 . S
C203 N204 1.299 . S
C203 N205 1.379 . S
N204 N201 1.398 . S
N204 C203 1.299 . S
N205 C202 1.367 . S
N205 C203 1.379 . S
C206 N208 1.298 . S
C206 N210 1.367 . S
C206 C214 1.481 . S
C207 N209 1.299 . S
C207 N210 1.379 . S
N208 Zn192 2.036 . S
N208 C206 1.298 . S
N208 N209 1.398 . S
N209 C207 1.299 . S
N209 N208 1.398 . S
N210 C206 1.367 . S
N210 C207 1.379 . S
H211 C214 0.980 . S
H212 C214 0.981 . S
H213 C214 0.981 . S
C214 C206 1.481 . S
C214 H211 0.980 . S
C214 H212 0.981 . S
C214 H213 0.981 . S
C215 C202 1.481 . S
C215 H216 0.980 . S
C215 H217 0.981 . S
C215 H218 0.981 . S
H216 C215 0.980 . S
H217 C215 0.981 . S
H218 C215 0.981 . S
O219 Zn195 2.066 . S
O219 C198 1.256 . S
O220 Zn192 2.053 . S
O220 C198 1.244 . S
C221 O199 1.259 . S
C221 O200 1.254 . S
O222 Zn192 2.066 . S
O222 C194 1.256 . S
O223 C194 1.244 . S
O223 Zn195 2.053 . S
Zn224 O225 2.055 . S
Zn224 O232 2.046 . S
Zn224 N240 2.036 . S
Zn224 O252 2.053 . S
Zn224 O254 2.066 . S
O225 Zn224 2.055 . S
O225 C228 1.259 . S
C226 O254 1.256 . S
C226 O255 1.244 . S
Zn227 O229 2.046 . S
Zn227 O231 2.055 . S
Zn227 N233 2.036 . S
Zn227 O251 2.066 . S
Zn227 O255 2.053 . S
C228 O225 1.259 . S
C228 O229 1.254 . S
O229 Zn227 2.046 . S
O229 C228 1.254 . S
C230 O251 1.256 . S
C230 O252 1.244 . S
O231 Zn227 2.055 . S
O231 C253 1.259 . S
O232 Zn224 2.046 . S
O232 C253 1.254 . S
N233 Zn227 2.036 . S
N233 C234 1.298 . S
N233 N236 1.398 . S
C234 N233 1.298 . S
C234 N237 1.367 . S
C234 C247 1.481 . S
C235 N236 1.299 . S
C235 N237 1.379 . S
N236 N233 1.398 . S
N236 C235 1.299 . S
N237 C234 1.367 . S
N237 C235 1.379 . S
C238 N240 1.298 . S
C238 N242 1.367 . S
C238 C246 1.481 . S
C239 N241 1.299 . S
C239 N242 1.379 . S
N240 Zn224 2.036 . S
N240 C238 1.298 . S
N240 N241 1.398 . S
N241 C239 1.299 . S
N241 N240 1.398 . S
N242 C238 1.367 . S
N242 C239 1.379 . S
H243 C246 0.980 . S
H244 C246 0.981 . S
H245 C246 0.981 . S
C246 C238 1.481 . S
C246 H243 0.980 . S
C246 H244 0.981 . S
C246 H245 0.981 . S
C247 C234 1.481 . S
C247 H248 0.980 . S
C247 H249 0.981 . S
C247 H250 0.981 . S
H248 C247 0.980 . S
H249 C247 0.981 . S
H250 C247 0.981 . S
O251 Zn227 2.066 . S
O251 C230 1.256 . S
O252 Zn224 2.053 . S
O252 C230 1.244 . S
C253 O231 1.259 . S
C253 O232 1.254 . S
O254 Zn224 2.066 . S
O254 C226 1.256 . S
O255 C226 1.244 . S
O255 Zn227 2.053 . S
Zn256 O257 2.055 . S
Zn256 O264 2.046 . S
Zn256 N272 2.036 . S
Zn256 O284 2.053 . S
Zn256 O286 2.066 . S
O257 Zn256 2.055 . S
O257 C260 1.259 . S
C258 O286 1.256 . S
C258 O287 1.244 . S
Zn259 O261 2.046 . S
Zn259 O263 2.055 . S
Zn259 N265 2.036 . S
Zn259 O283 2.066 . S
Zn259 O287 2.053 . S
C260 O257 1.259 . S
C260 O261 1.254 . S
O261 Zn259 2.046 . S
O261 C260 1.254 . S
C262 O283 1.256 . S
C262 O284 1.244 . S
O263 Zn259 2.055 . S
O263 C285 1.259 . S
O264 Zn256 2.046 . S
O264 C285 1.254 . S
N265 Zn259 2.036 . S
N265 C266 1.298 . S
N265 N268 1.398 . S
C266 N265 1.298 . S
C266 N269 1.367 . S
C266 C279 1.481 . S
C267 N268 1.299 . S
C267 N269 1.379 . S
N268 N265 1.398 . S
N268 C267 1.299 . S
N269 C266 1.367 . S
N269 C267 1.379 . S
C270 N272 1.298 . S
C270 N274 1.367 . S
C270 C278 1.481 . S
C271 N273 1.299 . S
C271 N274 1.379 . S
N272 Zn256 2.036 . S
N272 C270 1.298 . S
N272 N273 1.398 . S
N273 C271 1.299 . S
N273 N272 1.398 . S
N274 C270 1.367 . S
N274 C271 1.379 . S
H275 C278 0.980 . S
H276 C278 0.981 . S
H277 C278 0.981 . S
C278 C270 1.481 . S
C278 H275 0.980 . S
C278 H276 0.981 . S
C278 H277 0.981 . S
C279 C266 1.481 . S
C279 H280 0.980 . S
C279 H281 0.981 . S
C279 H282 0.981 . S
H280 C279 0.980 . S
H281 C279 0.981 . S
H282 C279 0.981 . S
O283 Zn259 2.066 . S
O283 C262 1.256 . S
O284 Zn256 2.053 . S
O284 C262 1.244 . S
C285 O263 1.259 . S
C285 O264 1.254 . S
O286 Zn256 2.066 . S
O286 C258 1.256 . S
O287 C258 1.244 . S
O287 Zn259 2.053 . S
Zn288 O289 2.055 . S
Zn288 O296 2.046 . S
Zn288 N304 2.036 . S
Zn288 O316 2.053 . S
Zn288 O318 2.066 . S
O289 Zn288 2.055 . S
O289 C292 1.259 . S
C290 O318 1.256 . S
C290 O319 1.244 . S
Zn291 O293 2.046 . S
Zn291 O295 2.055 . S
Zn291 N297 2.036 . S
Zn291 O315 2.066 . S
Zn291 O319 2.053 . S
C292 O289 1.259 . S
C292 O293 1.254 . S
O293 Zn291 2.046 . S
O293 C292 1.254 . S
C294 O315 1.256 . S
C294 O316 1.244 . S
O295 Zn291 2.055 . S
O295 C317 1.259 . S
O296 Zn288 2.046 . S
O296 C317 1.254 . S
N297 Zn291 2.036 . S
N297 C298 1.298 . S
N297 N300 1.398 . S
C298 N297 1.298 . S
C298 N301 1.367 . S
C298 C311 1.481 . S
C299 N300 1.299 . S
C299 N301 1.379 . S
N300 N297 1.398 . S
N300 C299 1.299 . S
N301 C298 1.367 . S
N301 C299 1.379 . S
C302 N304 1.298 . S
C302 N306 1.367 . S
C302 C310 1.481 . S
C303 N305 1.299 . S
C303 N306 1.379 . S
N304 Zn288 2.036 . S
N304 C302 1.298 . S
N304 N305 1.398 . S
N305 C303 1.299 . S
N305 N304 1.398 . S
N306 C302 1.367 . S
N306 C303 1.379 . S
H307 C310 0.980 . S
H308 C310 0.981 . S
H309 C310 0.981 . S
C310 C302 1.481 . S
C310 H307 0.980 . S
C310 H308 0.981 . S
C310 H309 0.981 . S
C311 C298 1.481 . S
C311 H312 0.980 . S
C311 H313 0.981 . S
C311 H314 0.981 . S
H312 C311 0.980 . S
H313 C311 0.981 . S
H314 C311 0.981 . S
O315 Zn291 2.066 . S
O315 C294 1.256 . S
O316 Zn288 2.053 . S
O316 C294 1.244 . S
C317 O295 1.259 . S
C317 O296 1.254 . S
O318 Zn288 2.066 . S
O318 C290 1.256 . S
O319 C290 1.244 . S
O319 Zn291 2.053 . S
Zn320 O321 2.055 . S
Zn320 O328 2.046 . S
Zn320 N336 2.036 . S
Zn320 O348 2.053 . S
Zn320 O350 2.066 . S
O321 Zn320 2.055 . S
O321 C324 1.259 . S
C322 O350 1.256 . S
C322 O351 1.244 . S
Zn323 O325 2.046 . S
Zn323 O327 2.055 . S
Zn323 N329 2.036 . S
Zn323 O347 2.066 . S
Zn323 O351 2.053 . S
C324 O321 1.259 . S
C324 O325 1.254 . S
O325 Zn323 2.046 . S
O325 C324 1.254 . S
C326 O347 1.256 . S
C326 O348 1.244 . S
O327 Zn323 2.055 . S
O327 C349 1.259 . S
O328 Zn320 2.046 . S
O328 C349 1.254 . S
N329 Zn323 2.036 . S
N329 C330 1.298 . S
N329 N332 1.398 . S
C330 N329 1.298 . S
C330 N333 1.367 . S
C330 C343 1.481 . S
C331 N332 1.299 . S
C331 N333 1.379 . S
N332 N329 1.398 . S
N332 C331 1.299 . S
N333 C330 1.367 . S
N333 C331 1.379 . S
C334 N336 1.298 . S
C334 N338 1.367 . S
C334 C342 1.481 . S
C335 N337 1.299 . S
C335 N338 1.379 . S
N336 Zn320 2.036 . S
N336 C334 1.298 . S
N336 N337 1.398 . S
N337 C335 1.299 . S
N337 N336 1.398 . S
N338 C334 1.367 . S
N338 C335 1.379 . S
H339 C342 0.980 . S
H340 C342 0.981 . S
H341 C342 0.981 . S
C342 C334 1.481 . S
C342 H339 0.980 . S
C342 H340 0.981 . S
C342 H341 0.981 . S
C343 C330 1.481 . S
C343 H344 0.980 . S
C343 H345 0.981 . S
C343 H346 0.981 . S
H344 C343 0.980 . S
H345 C343 0.981 . S
H346 C343 0.981 . S
O347 Zn323 2.066 . S
O347 C326 1.256 . S
O348 Zn320 2.053 . S
O348 C326 1.244 . S
C349 O327 1.259 . S
C349 O328 1.254 . S
O350 Zn320 2.066 . S
O350 C322 1.256 . S
O351 C322 1.244 . S
O351 Zn323 2.053 . S
Zn352 O353 2.055 . S
Zn352 O360 2.046 . S
Zn352 N368 2.036 . S
Zn352 O380 2.053 . S
Zn352 O382 2.066 . S
O353 Zn352 2.055 . S
O353 C356 1.259 . S
C354 O382 1.256 . S
C354 O383 1.244 . S
Zn355 O357 2.046 . S
Zn355 O359 2.055 . S
Zn355 N361 2.036 . S
Zn355 O379 2.066 . S
Zn355 O383 2.053 . S
C356 O353 1.259 . S
C356 O357 1.254 . S
O357 Zn355 2.046 . S
O357 C356 1.254 . S
C358 O379 1.256 . S
C358 O380 1.244 . S
O359 Zn355 2.055 . S
O359 C381 1.259 . S
O360 Zn352 2.046 . S
O360 C381 1.254 . S
N361 Zn355 2.036 . S
N361 C362 1.298 . S
N361 N364 1.398 . S
C362 N361 1.298 . S
C362 N365 1.367 . S
C362 C375 1.481 . S
C363 N364 1.299 . S
C363 N365 1.379 . S
N364 N361 1.398 . S
N364 C363 1.299 . S
N365 C362 1.367 . S
N365 C363 1.379 . S
C366 N368 1.298 . S
C366 N370 1.367 . S
C366 C374 1.481 . S
C367 N369 1.299 . S
C367 N370 1.379 . S
N368 Zn352 2.036 . S
N368 C366 1.298 . S
N368 N369 1.398 . S
N369 C367 1.299 . S
N369 N368 1.398 . S
N370 C366 1.367 . S
N370 C367 1.379 . S
H371 C374 0.980 . S
H372 C374 0.981 . S
H373 C374 0.981 . S
C374 C366 1.481 . S
C374 H371 0.980 . S
C374 H372 0.981 . S
C374 H373 0.981 . S
C375 C362 1.481 . S
C375 H376 0.980 . S
C375 H377 0.981 . S
C375 H378 0.981 . S
H376 C375 0.980 . S
H377 C375 0.981 . S
H378 C375 0.981 . S
O379 Zn355 2.066 . S
O379 C358 1.256 . S
O380 Zn352 2.053 . S
O380 C358 1.244 . S
C381 O359 1.259 . S
C381 O360 1.254 . S
O382 Zn352 2.066 . S
O382 C354 1.256 . S
O383 C354 1.244 . S
O383 Zn355 2.053 . S
Zn384 O385 2.055 . S
Zn384 O392 2.046 . S
Zn384 N400 2.036 . S
Zn384 O412 2.053 . S
Zn384 O414 2.066 . S
O385 Zn384 2.055 . S
O385 C388 1.259 . S
C386 O414 1.256 . S
C386 O415 1.244 . S
Zn387 O389 2.046 . S
Zn387 O391 2.055 . S
Zn387 N393 2.036 1_655 S
Zn387 O411 2.066 . S
Zn387 O415 2.053 . S
C388 O385 1.259 . S
C388 O389 1.254 . S
O389 Zn387 2.046 . S
O389 C388 1.254 . S
C390 O411 1.256 . S
C390 O412 1.244 . S
O391 Zn387 2.055 . S
O391 C413 1.259 . S
O392 Zn384 2.046 . S
O392 C413 1.254 . S
N393 Zn387 2.036 1_455 S
N393 C394 1.298 . S
N393 N396 1.398 . S
C394 N393 1.298 . S
C394 N397 1.367 . S
C394 C407 1.481 . S
C395 N396 1.299 . S
C395 N397 1.379 . S
N396 N393 1.398 . S
N396 C395 1.299 . S
N397 C394 1.367 . S
N397 C395 1.379 . S
C398 N400 1.298 . S
C398 N402 1.367 . S
C398 C406 1.481 . S
C399 N401 1.299 . S
C399 N402 1.379 . S
N400 Zn384 2.036 . S
N400 C398 1.298 . S
N400 N401 1.398 . S
N401 C399 1.299 . S
N401 N400 1.398 . S
N402 C398 1.367 . S
N402 C399 1.379 . S
H403 C406 0.980 . S
H404 C406 0.981 . S
H405 C406 0.981 . S
C406 C398 1.481 . S
C406 H403 0.980 . S
C406 H404 0.981 . S
C406 H405 0.981 . S
C407 C394 1.481 . S
C407 H408 0.980 . S
C407 H409 0.981 . S
C407 H410 0.981 . S
H408 C407 0.980 . S
H409 C407 0.981 . S
H410 C407 0.981 . S
O411 Zn387 2.066 . S
O411 C390 1.256 . S
O412 Zn384 2.053 . S
O412 C390 1.244 . S
C413 O391 1.259 . S
C413 O392 1.254 . S
O414 Zn384 2.066 . S
O414 C386 1.256 . S
O415 C386 1.244 . S
O415 Zn387 2.053 . S
Zn416 O417 2.055 . S
Zn416 O424 2.046 . S
Zn416 N432 2.036 . S
Zn416 O444 2.053 . S
Zn416 O446 2.066 . S
O417 Zn416 2.055 . S
O417 C420 1.259 . S
C418 O446 1.256 . S
C418 O447 1.244 . S
Zn419 O421 2.046 . S
Zn419 O423 2.055 . S
Zn419 N425 2.036 . S
Zn419 O443 2.066 . S
Zn419 O447 2.053 . S
C420 O417 1.259 . S
C420 O421 1.254 . S
O421 Zn419 2.046 . S
O421 C420 1.254 . S
C422 O443 1.256 . S
C422 O444 1.244 . S
O423 Zn419 2.055 . S
O423 C445 1.259 . S
O424 Zn416 2.046 . S
O424 C445 1.254 . S
N425 Zn419 2.036 . S
N425 C426 1.298 . S
N425 N428 1.398 . S
C426 N425 1.298 . S
C426 N429 1.367 . S
C426 C439 1.481 . S
C427 N428 1.299 . S
C427 N429 1.379 . S
N428 N425 1.398 . S
N428 C427 1.299 . S
N429 C426 1.367 . S
N429 C427 1.379 . S
C430 N432 1.298 . S
C430 N434 1.367 . S
C430 C438 1.481 . S
C431 N433 1.299 . S
C431 N434 1.379 . S
N432 Zn416 2.036 . S
N432 C430 1.298 . S
N432 N433 1.398 . S
N433 C431 1.299 . S
N433 N432 1.398 . S
N434 C430 1.367 . S
N434 C431 1.379 . S
H435 C438 0.980 . S
H436 C438 0.981 . S
H437 C438 0.981 . S
C438 C430 1.481 . S
C438 H435 0.980 . S
C438 H436 0.981 . S
C438 H437 0.981 . S
C439 C426 1.481 . S
C439 H440 0.980 . S
C439 H441 0.981 . S
C439 H442 0.981 . S
H440 C439 0.980 . S
H441 C439 0.981 . S
H442 C439 0.981 . S
O443 Zn419 2.066 . S
O443 C422 1.256 . S
O444 Zn416 2.053 . S
O444 C422 1.244 . S
C445 O423 1.259 . S
C445 O424 1.254 . S
O446 Zn416 2.066 . S
O446 C418 1.256 . S
O447 C418 1.244 . S
O447 Zn419 2.053 . S
Zn448 O449 2.055 . S
Zn448 O456 2.046 . S
Zn448 N464 2.036 . S
Zn448 O476 2.053 . S
Zn448 O478 2.066 . S
O449 Zn448 2.055 . S
O449 C452 1.259 . S
C450 O478 1.256 . S
C450 O479 1.244 . S
Zn451 O453 2.046 . S
Zn451 O455 2.055 . S
Zn451 N457 2.036 1_545 S
Zn451 O475 2.066 . S
Zn451 O479 2.053 . S
C452 O449 1.259 . S
C452 O453 1.254 . S
O453 Zn451 2.046 . S
O453 C452 1.254 . S
C454 O475 1.256 . S
C454 O476 1.244 . S
O455 Zn451 2.055 . S
O455 C477 1.259 . S
O456 Zn448 2.046 . S
O456 C477 1.254 . S
N457 Zn451 2.036 1_565 S
N457 C458 1.298 . S
N457 N460 1.398 . S
C458 N457 1.298 . S
C458 N461 1.367 . S
C458 C471 1.481 . S
C459 N460 1.299 . S
C459 N461 1.379 . S
N460 N457 1.398 . S
N460 C459 1.299 . S
N461 C458 1.367 . S
N461 C459 1.379 . S
C462 N464 1.298 . S
C462 N466 1.367 . S
C462 C470 1.481 . S
C463 N465 1.299 . S
C463 N466 1.379 . S
N464 Zn448 2.036 . S
N464 C462 1.298 . S
N464 N465 1.398 . S
N465 C463 1.299 . S
N465 N464 1.398 . S
N466 C462 1.367 . S
N466 C463 1.379 . S
H467 C470 0.980 . S
H468 C470 0.981 . S
H469 C470 0.981 . S
C470 C462 1.481 . S
C470 H467 0.980 . S
C470 H468 0.981 . S
C470 H469 0.981 . S
C471 C458 1.481 . S
C471 H472 0.980 . S
C471 H473 0.981 . S
C471 H474 0.981 . S
H472 C471 0.980 . S
H473 C471 0.981 . S
H474 C471 0.981 . S
O475 Zn451 2.066 . S
O475 C454 1.256 . S
O476 Zn448 2.053 . S
O476 C454 1.244 . S
C477 O455 1.259 . S
C477 O456 1.254 . S
O478 Zn448 2.066 . S
O478 C450 1.256 . S
O479 C450 1.244 . S
O479 Zn451 2.053 . S
Zn480 O481 2.055 . S
Zn480 O488 2.046 . S
Zn480 N496 2.036 1_545 S
Zn480 O508 2.053 . S
Zn480 O510 2.066 . S
O481 Zn480 2.055 . S
O481 C484 1.259 . S
C482 O510 1.256 . S
C482 O511 1.244 . S
Zn483 O485 2.046 . S
Zn483 O487 2.055 . S
Zn483 N489 2.036 . S
Zn483 O507 2.066 . S
Zn483 O511 2.053 . S
C484 O481 1.259 . S
C484 O485 1.254 . S
O485 Zn483 2.046 . S
O485 C484 1.254 . S
C486 O507 1.256 . S
C486 O508 1.244 . S
O487 Zn483 2.055 . S
O487 C509 1.259 . S
O488 Zn480 2.046 . S
O488 C509 1.254 . S
N489 Zn483 2.036 . S
N489 C490 1.298 . S
N489 N492 1.398 . S
C490 N489 1.298 . S
C490 N493 1.367 . S
C490 C503 1.481 . S
C491 N492 1.299 . S
C491 N493 1.379 . S
N492 N489 1.398 . S
N492 C491 1.299 . S
N493 C490 1.367 . S
N493 C491 1.379 . S
C494 N496 1.298 . S
C494 N498 1.367 . S
C494 C502 1.481 . S
C495 N497 1.299 . S
C495 N498 1.379 . S
N496 Zn480 2.036 1_565 S
N496 C494 1.298 . S
N496 N497 1.398 . S
N497 C495 1.299 . S
N497 N496 1.398 . S
N498 C494 1.367 . S
N498 C495 1.379 . S
H499 C502 0.980 . S
H500 C502 0.981 . S
H501 C502 0.981 . S
C502 C494 1.481 . S
C502 H499 0.980 . S
C502 H500 0.981 . S
C502 H501 0.981 . S
C503 C490 1.481 . S
C503 H504 0.980 . S
C503 H505 0.981 . S
C503 H506 0.981 . S
H504 C503 0.980 . S
H505 C503 0.981 . S
H506 C503 0.981 . S
O507 Zn483 2.066 . S
O507 C486 1.256 . S
O508 Zn480 2.053 . S
O508 C486 1.244 . S
C509 O487 1.259 . S
C509 O488 1.254 . S
O510 Zn480 2.066 . S
O510 C482 1.256 . S
O511 C482 1.244 . S
O511 Zn483 2.053 . S
Zn512 O513 2.055 . S
Zn512 O520 2.046 . S
Zn512 N528 2.036 . S
Zn512 O540 2.053 . S
Zn512 O542 2.066 . S
O513 Zn512 2.055 . S
O513 C516 1.259 . S
C514 O542 1.256 . S
C514 O543 1.244 . S
Zn515 O517 2.046 . S
Zn515 O519 2.055 . S
Zn515 N521 2.036 1_655 S
Zn515 O539 2.066 . S
Zn515 O543 2.053 . S
C516 O513 1.259 . S
C516 O517 1.254 . S
O517 Zn515 2.046 . S
O517 C516 1.254 . S
C518 O539 1.256 . S
C518 O540 1.244 . S
O519 Zn515 2.055 . S
O519 C541 1.259 . S
O520 Zn512 2.046 . S
O520 C541 1.254 . S
N521 Zn515 2.036 1_455 S
N521 C522 1.298 . S
N521 N524 1.398 . S
C522 N521 1.298 . S
C522 N525 1.367 . S
C522 C535 1.481 . S
C523 N524 1.299 . S
C523 N525 1.379 . S
N524 N521 1.398 . S
N524 C523 1.299 . S
N525 C522 1.367 . S
N525 C523 1.379 . S
C526 N528 1.298 . S
C526 N530 1.367 . S
C526 C534 1.481 . S
C527 N529 1.299 . S
C527 N530 1.379 . S
N528 Zn512 2.036 . S
N528 C526 1.298 . S
N528 N529 1.398 . S
N529 C527 1.299 . S
N529 N528 1.398 . S
N530 C526 1.367 . S
N530 C527 1.379 . S
H531 C534 0.980 . S
H532 C534 0.981 . S
H533 C534 0.981 . S
C534 C526 1.481 . S
C534 H531 0.980 . S
C534 H532 0.981 . S
C534 H533 0.981 . S
C535 C522 1.481 . S
C535 H536 0.980 . S
C535 H537 0.981 . S
C535 H538 0.981 . S
H536 C535 0.980 . S
H537 C535 0.981 . S
H538 C535 0.981 . S
O539 Zn515 2.066 . S
O539 C518 1.256 . S
O540 Zn512 2.053 . S
O540 C518 1.244 . S
C541 O519 1.259 . S
C541 O520 1.254 . S
O542 Zn512 2.066 . S
O542 C514 1.256 . S
O543 C514 1.244 . S
O543 Zn515 2.053 . S
Zn544 O545 2.055 . S
Zn544 O552 2.046 . S
Zn544 N560 2.036 . S
Zn544 O572 2.053 . S
Zn544 O574 2.066 . S
O545 Zn544 2.055 . S
O545 C548 1.259 . S
C546 O574 1.256 . S
C546 O575 1.244 . S
Zn547 O549 2.046 . S
Zn547 O551 2.055 . S
Zn547 N553 2.036 . S
Zn547 O571 2.066 . S
Zn547 O575 2.053 . S
C548 O545 1.259 . S
C548 O549 1.254 . S
O549 Zn547 2.046 . S
O549 C548 1.254 . S
C550 O571 1.256 . S
C550 O572 1.244 . S
O551 Zn547 2.055 . S
O551 C573 1.259 . S
O552 Zn544 2.046 . S
O552 C573 1.254 . S
N553 Zn547 2.036 . S
N553 C554 1.298 . S
N553 N556 1.398 . S
C554 N553 1.298 . S
C554 N557 1.367 . S
C554 C567 1.481 . S
C555 N556 1.299 . S
C555 N557 1.379 . S
N556 N553 1.398 . S
N556 C555 1.299 . S
N557 C554 1.367 . S
N557 C555 1.379 . S
C558 N560 1.298 . S
C558 N562 1.367 . S
C558 C566 1.481 . S
C559 N561 1.299 . S
C559 N562 1.379 . S
N560 Zn544 2.036 . S
N560 C558 1.298 . S
N560 N561 1.398 . S
N561 C559 1.299 . S
N561 N560 1.398 . S
N562 C558 1.367 . S
N562 C559 1.379 . S
H563 C566 0.980 . S
H564 C566 0.981 . S
H565 C566 0.981 . S
C566 C558 1.481 . S
C566 H563 0.980 . S
C566 H564 0.981 . S
C566 H565 0.981 . S
C567 C554 1.481 . S
C567 H568 0.980 . S
C567 H569 0.981 . S
C567 H570 0.981 . S
H568 C567 0.980 . S
H569 C567 0.981 . S
H570 C567 0.981 . S
O571 Zn547 2.066 . S
O571 C550 1.256 . S
O572 Zn544 2.053 . S
O572 C550 1.244 . S
C573 O551 1.259 . S
C573 O552 1.254 . S
O574 Zn544 2.066 . S
O574 C546 1.256 . S
O575 C546 1.244 . S
O575 Zn547 2.053 . S
C576 C577 1.369 . S
C576 C578 1.419 1_556 S
C576 H580 0.930 . S
C577 C576 1.369 . S
C577 C586 1.429 1_556 S
C578 C576 1.419 1_554 S
C578 C579 1.363 . S
C578 H581 0.929 . S
C579 C578 1.363 . S
C579 C585 1.428 . S
H580 C576 0.930 . S
H581 C578 0.929 . S
S582 N583 1.613 . S
S582 N584 1.610 . S
N583 S582 1.613 . S
N583 C586 1.350 . S
N584 S582 1.610 . S
N584 C585 1.351 . S
C585 C579 1.428 . S
C585 N584 1.351 . S
C585 C586 1.434 . S
C586 C577 1.429 1_554 S
C586 N583 1.350 . S
C586 C585 1.434 . S
C587 C588 1.369 . S
C587 C589 1.419 . S
C587 H591 0.930 . S
C588 C587 1.369 . S
C588 C597 1.429 1_554 S
C589 C587 1.419 . S
C589 C590 1.363 1_554 S
C589 H592 0.929 . S
C590 C589 1.363 1_556 S
C590 C596 1.428 . S
H591 C587 0.930 . S
H592 C589 0.929 . S
S593 N594 1.613 . S
S593 N595 1.610 . S
N594 S593 1.613 . S
N594 C597 1.350 . S
N595 S593 1.610 . S
N595 C596 1.351 . S
C596 C590 1.428 . S
C596 N595 1.351 . S
C596 C597 1.434 . S
C597 C588 1.429 1_556 S
C597 N594 1.350 . S
C597 C596 1.434 . S
C598 C599 1.369 1_554 S
C598 C600 1.419 . S
C598 H602 0.930 . S
C599 C598 1.369 1_556 S
C599 C608 1.429 . S
C600 C598 1.419 . S
C600 C601 1.363 . S
C600 H603 0.929 . S
C601 C600 1.363 . S
C601 C607 1.428 . S
H602 C598 0.930 . S
H603 C600 0.929 . S
S604 N605 1.613 . S
S604 N606 1.610 1_556 S
N605 S604 1.613 . S
N605 C608 1.350 . S
N606 S604 1.610 1_554 S
N606 C607 1.351 . S
C607 C601 1.428 . S
C607 N606 1.351 . S
C607 C608 1.434 1_554 S
C608 C599 1.429 . S
C608 N605 1.350 . S
C608 C607 1.434 1_556 S
C609 C610 1.369 . S
C609 C611 1.419 . S
C609 H613 0.930 . S
C610 C609 1.369 . S
C610 C619 1.429 . S
C611 C609 1.419 . S
C611 C612 1.363 . S
C611 H614 0.929 . S
C612 C611 1.363 . S
C612 C618 1.428 . S
H613 C609 0.930 . S
H614 C611 0.929 . S
S615 N616 1.613 . S
S615 N617 1.610 . S
N616 S615 1.613 . S
N616 C619 1.350 . S
N617 S615 1.610 . S
N617 C618 1.351 . S
C618 C612 1.428 . S
C618 N617 1.351 . S
C618 C619 1.434 . S
C619 C610 1.429 . S
C619 N616 1.350 . S
C619 C618 1.434 . S
C620 C621 1.369 . S
C620 C622 1.419 . S
C620 H624 0.930 . S
C621 C620 1.369 . S
C621 C630 1.429 . S
C622 C620 1.419 . S
C622 C623 1.363 . S
C622 H625 0.929 . S
C623 C622 1.363 . S
C623 C629 1.428 . S
H624 C620 0.930 . S
H625 C622 0.929 . S
S626 N627 1.613 . S
S626 N628 1.610 . S
N627 S626 1.613 . S
N627 C630 1.350 . S
N628 S626 1.610 . S
N628 C629 1.351 . S
C629 C623 1.428 . S
C629 N628 1.351 . S
C629 C630 1.434 . S
C630 C621 1.429 . S
C630 N627 1.350 . S
C630 C629 1.434 . S
C631 C632 1.369 . S
C631 C633 1.419 . S
C631 H635 0.930 . S
C632 C631 1.369 . S
C632 C641 1.429 . S
C633 C631 1.419 . S
C633 C634 1.363 . S
C633 H636 0.929 . S
C634 C633 1.363 . S
C634 C640 1.428 . S
H635 C631 0.930 . S
H636 C633 0.929 . S
S637 N638 1.613 . S
S637 N639 1.610 . S
N638 S637 1.613 . S
N638 C641 1.350 . S
N639 S637 1.610 . S
N639 C640 1.351 . S
C640 C634 1.428 . S
C640 N639 1.351 . S
C640 C641 1.434 . S
C641 C632 1.429 . S
C641 N638 1.350 . S
C641 C640 1.434 . S
C642 C643 1.369 . S
C642 C644 1.419 . S
C642 H646 0.930 . S
C643 C642 1.369 . S
C643 C652 1.429 . S
C644 C642 1.419 . S
C644 C645 1.363 . S
C644 H647 0.929 . S
C645 C644 1.363 . S
C645 C651 1.428 . S
H646 C642 0.930 . S
H647 C644 0.929 . S
S648 N649 1.613 . S
S648 N650 1.610 . S
N649 S648 1.613 . S
N649 C652 1.350 . S
N650 S648 1.610 . S
N650 C651 1.351 . S
C651 C645 1.428 . S
C651 N650 1.351 . S
C651 C652 1.434 . S
C652 C643 1.429 . S
C652 N649 1.350 . S
C652 C651 1.434 . S
C653 C654 1.369 . S
C653 C655 1.419 . S
C653 H657 0.930 . S
C654 C653 1.369 . S
C654 C663 1.429 . S
C655 C653 1.419 . S
C655 C656 1.363 . S
C655 H658 0.929 . S
C656 C655 1.363 . S
C656 C662 1.428 . S
H657 C653 0.930 . S
H658 C655 0.929 . S
S659 N660 1.613 . S
S659 N661 1.610 . S
N660 S659 1.613 . S
N660 C663 1.350 . S
N661 S659 1.610 . S
N661 C662 1.351 . S
C662 C656 1.428 . S
C662 N661 1.351 . S
C662 C663 1.434 . S
C663 C654 1.429 . S
C663 N660 1.350 . S
C663 C662 1.434 . S
C664 C665 1.369 . S
C664 C666 1.419 . S
C664 H668 0.930 . S
C665 C664 1.369 . S
C665 C674 1.429 . S
C666 C664 1.419 . S
C666 C667 1.363 . S
C666 H669 0.929 . S
C667 C666 1.363 . S
C667 C673 1.428 . S
H668 C664 0.930 . S
H669 C666 0.929 . S
S670 N671 1.613 . S
S670 N672 1.610 . S
N671 S670 1.613 . S
N671 C674 1.350 . S
N672 S670 1.610 . S
N672 C673 1.351 . S
C673 C667 1.428 . S
C673 N672 1.351 . S
C673 C674 1.434 . S
C674 C665 1.429 . S
C674 N671 1.350 . S
C674 C673 1.434 . S
C675 C676 1.369 . S
C675 C677 1.419 . S
C675 H679 0.930 . S
C676 C675 1.369 . S
C676 C685 1.429 . S
C677 C675 1.419 . S
C677 C678 1.363 . S
C677 H680 0.929 . S
C678 C677 1.363 . S
C678 C684 1.428 . S
H679 C675 0.930 . S
H680 C677 0.929 . S
S681 N682 1.613 1_554 S
S681 N683 1.610 1_554 S
N682 S681 1.613 1_556 S
N682 C685 1.350 . S
N683 S681 1.610 1_556 S
N683 C684 1.351 . S
C684 C678 1.428 . S
C684 N683 1.351 . S
C684 C685 1.434 . S
C685 C676 1.429 . S
C685 N682 1.350 . S
C685 C684 1.434 . S
C686 C687 1.369 . S
C686 C688 1.419 . S
C686 H690 0.930 . S
C687 C686 1.369 . S
C687 C696 1.429 . S
C688 C686 1.419 . S
C688 C689 1.363 . S
C688 H691 0.929 . S
C689 C688 1.363 . S
C689 C695 1.428 . S
H690 C686 0.930 . S
H691 C688 0.929 . S
S692 N693 1.613 1_554 S
S692 N694 1.610 1_554 S
N693 S692 1.613 1_556 S
N693 C696 1.350 . S
N694 S692 1.610 1_556 S
N694 C695 1.351 . S
C695 C689 1.428 . S
C695 N694 1.351 . S
C695 C696 1.434 . S
C696 C687 1.429 . S
C696 N693 1.350 . S
C696 C695 1.434 . S
C697 C698 1.369 . S
C697 C699 1.419 . S
C697 H701 0.930 . S
C698 C697 1.369 . S
C698 C707 1.429 . S
C699 C697 1.419 . S
C699 C700 1.363 . S
C699 H702 0.929 . S
C700 C699 1.363 . S
C700 C706 1.428 . S
H701 C697 0.930 . S
H702 C699 0.929 . S
S703 N704 1.613 . S
S703 N705 1.610 . S
N704 S703 1.613 . S
N704 C707 1.350 . S
N705 S703 1.610 . S
N705 C706 1.351 . S
C706 C700 1.428 . S
C706 N705 1.351 . S
C706 C707 1.434 . S
C707 C698 1.429 . S
C707 N704 1.350 . S
C707 C706 1.434 . S
C708 C709 1.369 . S
C708 C710 1.419 . S
C708 H712 0.930 . S
C709 C708 1.369 . S
C709 C718 1.429 . S
C710 C708 1.419 . S
C710 C711 1.363 . S
C710 H713 0.929 . S
C711 C710 1.363 . S
C711 C717 1.428 . S
H712 C708 0.930 . S
H713 C710 0.929 . S
S714 N715 1.613 . S
S714 N716 1.610 . S
N715 S714 1.613 . S
N715 C718 1.350 . S
N716 S714 1.610 . S
N716 C717 1.351 . S
C717 C711 1.428 . S
C717 N716 1.351 . S
C717 C718 1.434 . S
C718 C709 1.429 . S
C718 N715 1.350 . S
C718 C717 1.434 . S
C719 C720 1.369 . S
C719 C721 1.419 1_545 S
C719 H723 0.930 . S
C720 C719 1.369 . S
C720 C729 1.429 . S
C721 C719 1.419 1_565 S
C721 C722 1.363 . S
C721 H724 0.929 . S
C722 C721 1.363 . S
C722 C728 1.428 . S
H723 C719 0.930 . S
H724 C721 0.929 . S
S725 N726 1.613 . S
S725 N727 1.610 1_545 S
N726 S725 1.613 . S
N726 C729 1.350 . S
N727 S725 1.610 1_565 S
N727 C728 1.351 . S
C728 C722 1.428 . S
C728 N727 1.351 . S
C728 C729 1.434 1_565 S
C729 C720 1.429 . S
C729 N726 1.350 . S
C729 C728 1.434 1_545 S
C730 C731 1.369 . S
C730 C732 1.419 1_655 S
C730 H734 0.930 . S
C731 C730 1.369 . S
C731 C740 1.429 . S
C732 C730 1.419 1_455 S
C732 C733 1.363 . S
C732 H735 0.929 . S
C733 C732 1.363 . S
C733 C739 1.428 . S
H734 C730 0.930 . S
H735 C732 0.929 . S
S736 N737 1.613 . S
S736 N738 1.610 1_655 S
N737 S736 1.613 . S
N737 C740 1.350 . S
N738 S736 1.610 1_455 S
N738 C739 1.351 . S
C739 C733 1.428 . S
C739 N738 1.351 . S
C739 C740 1.434 1_455 S
C740 C731 1.429 . S
C740 N737 1.350 . S
C740 C739 1.434 1_655 S
C741 C742 1.369 . S
C741 C743 1.419 . S
C741 H745 0.930 . S
C742 C741 1.369 . S
C742 C751 1.429 . S
C743 C741 1.419 . S
C743 C744 1.363 . S
C743 H746 0.929 . S
C744 C743 1.363 . S
C744 C750 1.428 . S
H745 C741 0.930 . S
H746 C743 0.929 . S
S747 N748 1.613 . S
S747 N749 1.610 . S
N748 S747 1.613 . S
N748 C751 1.350 . S
N749 S747 1.610 . S
N749 C750 1.351 . S
C750 C744 1.428 . S
C750 N749 1.351 . S
C750 C751 1.434 . S
C751 C742 1.429 . S
C751 N748 1.350 . S
C751 C750 1.434 . S
C752 C753 1.369 . S
C752 C754 1.419 1_565 S
C752 H756 0.930 . S
C753 C752 1.369 . S
C753 C762 1.429 . S
C754 C752 1.419 1_545 S
C754 C755 1.363 . S
C754 H757 0.929 . S
C755 C754 1.363 . S
C755 C761 1.428 . S
H756 C752 0.930 . S
H757 C754 0.929 . S
S758 N759 1.613 . S
S758 N760 1.610 1_565 S
N759 S758 1.613 . S
N759 C762 1.350 . S
N760 S758 1.610 1_545 S
N760 C761 1.351 . S
C761 C755 1.428 . S
C761 N760 1.351 . S
C761 C762 1.434 1_545 S
C762 C753 1.429 . S
C762 N759 1.350 . S
C762 C761 1.434 1_565 S
C763 C764 1.369 . S
C763 C765 1.419 1_455 S
C763 H767 0.930 . S
C764 C763 1.369 . S
C764 C773 1.429 . S
C765 C763 1.419 1_655 S
C765 C766 1.363 . S
C765 H768 0.929 . S
C766 C765 1.363 . S
C766 C772 1.428 1_655 S
H767 C763 0.930 . S
H768 C765 0.929 . S
S769 N770 1.613 . S
S769 N771 1.599 1_455 S
N770 S769 1.613 . S
N770 C773 1.350 . S
N771 S769 1.599 1_655 S
N771 C772 1.352 1_655 S
C772 C766 1.428 1_455 S
C772 N771 1.352 1_455 S
C772 C773 1.434 . S
C773 C764 1.429 . S
C773 N770 1.350 . S
C773 C772 1.434 . S
C774 C775 1.369 . S
C774 C776 1.419 . S
C774 H778 0.930 . S
C775 C774 1.369 . S
C775 C784 1.429 . S
C776 C774 1.419 . S
C776 C777 1.363 . S
C776 H779 0.929 . S
C777 C776 1.363 . S
C777 C783 1.428 . S
H778 C774 0.930 . S
H779 C776 0.929 . S
S780 N781 1.613 . S
S780 N782 1.610 . S
N781 S780 1.613 . S
N781 C784 1.350 . S
N782 S780 1.610 . S
N782 C783 1.351 . S
C783 C777 1.428 . S
C783 N782 1.351 . S
C783 C784 1.434 . S
C784 C775 1.429 . S
C784 N781 1.350 . S
C784 C783 1.434 . S
C785 C786 1.369 . S
C785 C787 1.419 . S
C785 H789 0.930 . S
C786 C785 1.369 . S
C786 C795 1.429 . S
C787 C785 1.419 . S
C787 C788 1.363 . S
C787 H790 0.929 . S
C788 C787 1.363 . S
C788 C794 1.428 . S
H789 C785 0.930 . S
H790 C787 0.929 . S
S791 N792 1.613 . S
S791 N793 1.610 . S
N792 S791 1.613 . S
N792 C795 1.350 . S
N793 S791 1.610 . S
N793 C794 1.351 . S
C794 C788 1.428 . S
C794 N793 1.351 . S
C794 C795 1.434 . S
C795 C786 1.429 . S
C795 N792 1.350 . S
C795 C794 1.434 . S
C796 C797 1.369 . S
C796 C798 1.419 . S
C796 H800 0.930 . S
C797 C796 1.369 . S
C797 C806 1.429 . S
C798 C796 1.419 . S
C798 C799 1.363 . S
C798 H801 0.929 . S
C799 C798 1.363 . S
C799 C805 1.428 . S
H800 C796 0.930 . S
H801 C798 0.929 . S
S802 N803 1.613 . S
S802 N804 1.610 . S
N803 S802 1.613 . S
N803 C806 1.350 . S
N804 S802 1.610 . S
N804 C805 1.351 . S
C805 C799 1.428 . S
C805 N804 1.351 . S
C805 C806 1.434 . S
C806 C797 1.429 . S
C806 N803 1.350 . S
C806 C805 1.434 . S
C807 C808 1.369 . S
C807 C809 1.419 . S
C807 H811 0.930 . S
C808 C807 1.369 . S
C808 C817 1.429 . S
C809 C807 1.419 . S
C809 C810 1.363 . S
C809 H812 0.929 . S
C810 C809 1.363 . S
C810 C816 1.428 . S
H811 C807 0.930 . S
H812 C809 0.929 . S
S813 N814 1.613 . S
S813 N815 1.610 . S
N814 S813 1.613 . S
N814 C817 1.350 . S
N815 S813 1.610 . S
N815 C816 1.351 . S
C816 C810 1.428 . S
C816 N815 1.351 . S
C816 C817 1.434 . S
C817 C808 1.429 . S
C817 N814 1.350 . S
C817 C816 1.434 . S
C818 C819 1.369 . S
C818 C820 1.419 . S
C818 H822 0.930 . S
C819 C818 1.369 . S
C819 C828 1.429 . S
C820 C818 1.419 . S
C820 C821 1.363 . S
C820 H823 0.929 . S
C821 C820 1.363 . S
C821 C827 1.428 . S
H822 C818 0.930 . S
H823 C820 0.929 . S
S824 N825 1.613 . S
S824 N826 1.610 . S
N825 S824 1.613 . S
N825 C828 1.350 . S
N826 S824 1.610 . S
N826 C827 1.351 . S
C827 C821 1.428 . S
C827 N826 1.351 . S
C827 C828 1.434 . S
C828 C819 1.429 . S
C828 N825 1.350 . S
C828 C827 1.434 . S
C829 C830 1.369 . S
C829 C831 1.419 . S
C829 H833 0.930 . S
C830 C829 1.369 . S
C830 C839 1.429 . S
C831 C829 1.419 . S
C831 C832 1.363 . S
C831 H834 0.929 . S
C832 C831 1.363 . S
C832 C838 1.428 . S
H833 C829 0.930 . S
H834 C831 0.929 . S
S835 N836 1.613 . S
S835 N837 1.610 . S
N836 S835 1.613 . S
N836 C839 1.350 . S
N837 S835 1.610 . S
N837 C838 1.351 . S
C838 C832 1.428 . S
C838 N837 1.351 . S
C838 C839 1.434 . S
C839 C830 1.429 . S
C839 N836 1.350 . S
C839 C838 1.434 . S
C840 C841 1.369 . S
C840 C842 1.419 . S
C840 H844 0.930 . S
C841 C840 1.369 . S
C841 C850 1.429 . S
C842 C840 1.419 . S
C842 C843 1.363 . S
C842 H845 0.929 . S
C843 C842 1.363 . S
C843 C849 1.428 . S
H844 C840 0.930 . S
H845 C842 0.929 . S
S846 N847 1.613 . S
S846 N848 1.610 . S
N847 S846 1.613 . S
N847 C850 1.350 . S
N848 S846 1.610 . S
N848 C849 1.351 . S
C849 C843 1.428 . S
C849 N848 1.351 . S
C849 C850 1.434 . S
C850 C841 1.429 . S
C850 N847 1.350 . S
C850 C849 1.434 . S
C851 C852 1.369 . S
C851 C853 1.419 . S
C851 H855 0.930 . S
C852 C851 1.369 . S
C852 C861 1.429 . S
C853 C851 1.419 . S
C853 C854 1.363 . S
C853 H856 0.929 . S
C854 C853 1.363 . S
C854 C860 1.428 . S
H855 C851 0.930 . S
H856 C853 0.929 . S
S857 N858 1.613 . S
S857 N859 1.610 . S
N858 S857 1.613 . S
N858 C861 1.350 . S
N859 S857 1.610 . S
N859 C860 1.351 . S
C860 C854 1.428 . S
C860 N859 1.351 . S
C860 C861 1.434 . S
C861 C852 1.429 . S
C861 N858 1.350 . S
C861 C860 1.434 . S
C862 C863 1.369 . S
C862 C864 1.419 . S
C862 H866 0.930 . S
C863 C862 1.369 . S
C863 C872 1.429 . S
C864 C862 1.419 . S
C864 C865 1.363 . S
C864 H867 0.929 . S
C865 C864 1.363 . S
C865 C871 1.428 . S
H866 C862 0.930 . S
H867 C864 0.929 . S
S868 N869 1.613 . S
S868 N870 1.610 . S
N869 S868 1.613 . S
N869 C872 1.350 . S
N870 S868 1.610 . S
N870 C871 1.351 . S
C871 C865 1.428 . S
C871 N870 1.351 . S
C871 C872 1.434 . S
C872 C863 1.429 . S
C872 N869 1.350 . S
C872 C871 1.434 . S
C873 C874 1.369 . S
C873 C875 1.419 . S
C873 H877 0.930 . S
C874 C873 1.369 . S
C874 C883 1.429 . S
C875 C873 1.419 . S
C875 C876 1.363 . S
C875 H878 0.929 . S
C876 C875 1.363 . S
C876 C882 1.428 . S
H877 C873 0.930 . S
H878 C875 0.929 . S
S879 N880 1.613 . S
S879 N881 1.610 . S
N880 S879 1.613 . S
N880 C883 1.350 . S
N881 S879 1.610 . S
N881 C882 1.351 . S
C882 C876 1.428 . S
C882 N881 1.351 . S
C882 C883 1.434 . S
C883 C874 1.429 . S
C883 N880 1.350 . S
C883 C882 1.434 . S
C884 C885 1.369 . S
C884 C886 1.419 . S
C884 H888 0.930 . S
C885 C884 1.369 . S
C885 C894 1.429 . S
C886 C884 1.419 . S
C886 C887 1.363 . S
C886 H889 0.929 . S
C887 C886 1.363 . S
C887 C893 1.428 . S
H888 C884 0.930 . S
H889 C886 0.929 . S
S890 N891 1.613 . S
S890 N892 1.610 . S
N891 S890 1.613 . S
N891 C894 1.350 . S
N892 S890 1.610 . S
N892 C893 1.351 . S
C893 C887 1.428 . S
C893 N892 1.351 . S
C893 C894 1.434 . S
C894 C885 1.429 . S
C894 N891 1.350 . S
C894 C893 1.434 . S
C895 C896 1.369 . S
C895 C897 1.419 . S
C895 H899 0.930 . S
C896 C895 1.369 . S
C896 C905 1.429 . S
C897 C895 1.419 . S
C897 C898 1.363 . S
C897 H900 0.929 . S
C898 C897 1.363 . S
C898 C904 1.428 . S
H899 C895 0.930 . S
H900 C897 0.929 . S
S901 N902 1.613 . S
S901 N903 1.610 . S
N902 S901 1.613 . S
N902 C905 1.350 . S
N903 S901 1.610 . S
N903 C904 1.351 . S
C904 C898 1.428 . S
C904 N903 1.351 . S
C904 C905 1.434 . S
C905 C896 1.429 . S
C905 N902 1.350 . S
C905 C904 1.434 . S
C906 C907 1.369 . S
C906 C908 1.419 . S
C906 H910 0.930 . S
C907 C906 1.369 . S
C907 C916 1.429 . S
C908 C906 1.419 . S
C908 C909 1.363 . S
C908 H911 0.929 1_556 S
C909 C908 1.363 . S
C909 C915 1.428 . S
H910 C906 0.930 . S
H911 C908 0.929 1_554 S
S912 N913 1.613 . S
S912 N914 1.610 . S
N913 S912 1.613 . S
N913 C916 1.350 . S
N914 S912 1.610 . S
N914 C915 1.351 . S
C915 C909 1.428 . S
C915 N914 1.351 . S
C915 C916 1.434 . S
C916 C907 1.429 . S
C916 N913 1.350 . S
C916 C915 1.434 . S
C917 C918 1.369 . S
C917 C919 1.419 . S
C917 H921 0.930 . S
C918 C917 1.369 . S
C918 C927 1.429 . S
C919 C917 1.419 . S
C919 C920 1.363 . S
C919 H922 0.929 1_556 S
C920 C919 1.363 . S
C920 C926 1.428 . S
H921 C917 0.930 . S
H922 C919 0.929 1_554 S
S923 N924 1.613 . S
S923 N925 1.610 . S
N924 S923 1.613 . S
N924 C927 1.350 . S
N925 S923 1.610 . S
N925 C926 1.351 . S
C926 C920 1.428 . S
C926 N925 1.351 . S
C926 C927 1.434 . S
C927 C918 1.429 . S
C927 N924 1.350 . S
C927 C926 1.434 . S
C928 C929 1.369 . S
C928 C930 1.419 . S
C928 H932 0.930 . S
C929 C928 1.369 . S
C929 C938 1.429 . S
C930 C928 1.419 . S
C930 C931 1.363 . S
C930 H933 0.929 1_556 S
C931 C930 1.363 . S
C931 C937 1.428 . S
H932 C928 0.930 . S
H933 C930 0.929 1_554 S
S934 N935 1.613 . S
S934 N936 1.610 . S
N935 S934 1.613 . S
N935 C938 1.350 . S
N936 S934 1.610 . S
N936 C937 1.351 . S
C937 C931 1.428 . S
C937 N936 1.351 . S
C937 C938 1.434 . S
C938 C929 1.429 . S
C938 N935 1.350 . S
C938 C937 1.434 . S
C939 C940 1.369 . S
C939 C941 1.419 . S
C939 H943 0.930 . S
C940 C939 1.369 . S
C940 C949 1.429 . S
C941 C939 1.419 . S
C941 C942 1.363 . S
C941 H944 0.929 . S
C942 C941 1.363 . S
C942 C948 1.428 . S
H943 C939 0.930 . S
H944 C941 0.929 . S
S945 N946 1.613 . S
S945 N947 1.610 . S
N946 S945 1.613 . S
N946 C949 1.350 . S
N947 S945 1.610 . S
N947 C948 1.351 . S
C948 C942 1.428 . S
C948 N947 1.351 . S
C948 C949 1.434 . S
C949 C940 1.429 . S
C949 N946 1.350 . S
C949 C948 1.434 . S
C950 C951 1.369 . S
C950 C952 1.419 . S
C950 H954 0.930 . S
C951 C950 1.369 . S
C951 C960 1.429 . S
C952 C950 1.419 . S
C952 C953 1.363 . S
C952 H955 0.929 . S
C953 C952 1.363 . S
C953 C959 1.428 . S
H954 C950 0.930 . S
H955 C952 0.929 . S
S956 N957 1.613 . S
S956 N958 1.610 . S
N957 S956 1.613 . S
N957 C960 1.350 . S
N958 S956 1.610 . S
N958 C959 1.351 . S
C959 C953 1.428 . S
C959 N958 1.351 . S
C959 C960 1.434 . S
C960 C951 1.429 . S
C960 N957 1.350 . S
C960 C959 1.434 . S
C961 C962 1.369 . S
C961 C963 1.419 . S
C961 H965 0.930 . S
C962 C961 1.369 . S
C962 C971 1.429 . S
C963 C961 1.419 . S
C963 C964 1.363 . S
C963 H966 0.929 . S
C964 C963 1.363 . S
C964 C970 1.428 . S
H965 C961 0.930 . S
H966 C963 0.929 . S
S967 N968 1.613 . S
S967 N969 1.610 . S
N968 S967 1.613 . S
N968 C971 1.350 . S
N969 S967 1.610 . S
N969 C970 1.351 . S
C970 C964 1.428 . S
C970 N969 1.351 . S
C970 C971 1.434 . S
C971 C962 1.429 . S
C971 N968 1.350 . S
C971 C970 1.434 . S
C972 C973 1.369 . S
C972 C974 1.419 . S
C972 H976 0.930 . S
C973 C972 1.369 . S
C973 C982 1.429 . S
C974 C972 1.419 . S
C974 C975 1.363 . S
C974 H977 0.929 . S
C975 C974 1.363 . S
C975 C981 1.428 . S
H976 C972 0.930 . S
H977 C974 0.929 . S
S978 N979 1.613 1_554 S
S978 N980 1.610 . S
N979 S978 1.613 1_556 S
N979 C982 1.350 . S
N980 S978 1.610 . S
N980 C981 1.351 1_554 S
C981 C975 1.428 . S
C981 N980 1.351 1_556 S
C981 C982 1.434 . S
C982 C973 1.429 . S
C982 N979 1.350 . S
C982 C981 1.434 . S
C983 C984 1.369 . S
C983 C985 1.419 . S
C983 H987 0.939 . S
C984 C983 1.369 . S
C984 C993 1.429 . S
C985 C983 1.419 . S
C985 C986 1.363 . S
C985 H988 0.929 . S
C986 C985 1.363 . S
C986 C992 1.428 . S
H987 C983 0.939 . S
H988 C985 0.929 . S
S989 N990 1.613 . S
S989 N991 1.610 . S
N990 S989 1.613 . S
N990 C993 1.350 . S
N991 S989 1.610 . S
N991 C992 1.351 . S
C992 C986 1.428 . S
C992 N991 1.351 . S
C992 C993 1.434 . S
C993 C984 1.429 . S
C993 N990 1.350 . S
C993 C992 1.434 . S
C994 C995 1.369 . S
C994 C996 1.419 . S
C994 H998 0.930 . S
C995 C994 1.369 . S
C995 C1004 1.429 . S
C996 C994 1.419 . S
C996 C997 1.363 . S
C996 H999 0.929 . S
C997 C996 1.363 . S
C997 C1003 1.428 . S
H998 C994 0.930 . S
H999 C996 0.929 . S
S1000 N1001 1.613 . S
S1000 N1002 1.610 . S
N1001 S1000 1.613 . S
N1001 C1004 1.350 . S
N1002 S1000 1.610 . S
N1002 C1003 1.351 . S
C1003 C997 1.428 . S
C1003 N1002 1.351 . S
C1003 C1004 1.434 . S
C1004 C995 1.429 . S
C1004 N1001 1.350 . S
C1004 C1003 1.434 . S
C1005 C1006 1.369 . S
C1005 C1007 1.419 . S
C1005 H1009 0.930 . S
C1006 C1005 1.369 . S
C1006 C1015 1.429 . S
C1007 C1005 1.419 . S
C1007 C1008 1.363 . S
C1007 H1010 0.929 . S
C1008 C1007 1.363 . S
C1008 C1014 1.428 . S
H1009 C1005 0.930 . S
H1010 C1007 0.929 . S
S1011 N1012 1.613 . S
S1011 N1013 1.610 . S
N1012 S1011 1.613 . S
N1012 C1015 1.350 . S
N1013 S1011 1.610 . S
N1013 C1014 1.351 . S
C1014 C1008 1.428 . S
C1014 N1013 1.351 . S
C1014 C1015 1.434 . S
C1015 C1006 1.429 . S
C1015 N1012 1.350 . S
C1015 C1014 1.434 . S
C1016 C1017 1.369 . S
C1016 C1018 1.419 . S
C1016 H1020 0.930 . S
C1017 C1016 1.369 . S
C1017 C1026 1.429 . S
C1018 C1016 1.419 . S
C1018 C1019 1.363 . S
C1018 H1021 0.929 . S
C1019 C1018 1.363 . S
C1019 C1025 1.428 . S
H1020 C1016 0.930 . S
H1021 C1018 0.929 . S
S1022 N1023 1.613 . S
S1022 N1024 1.610 . S
N1023 S1022 1.613 . S
N1023 C1026 1.350 . S
N1024 S1022 1.610 . S
N1024 C1025 1.351 . S
C1025 C1019 1.428 . S
C1025 N1024 1.351 . S
C1025 C1026 1.434 . S
C1026 C1017 1.429 . S
C1026 N1023 1.350 . S
C1026 C1025 1.434 . S
C1027 C1028 1.369 . S
C1027 C1029 1.419 . S
C1027 H1031 0.930 . S
C1028 C1027 1.369 . S
C1028 C1037 1.429 . S
C1029 C1027 1.419 . S
C1029 C1030 1.363 . S
C1029 H1032 0.929 . S
C1030 C1029 1.363 . S
C1030 C1036 1.428 . S
H1031 C1027 0.930 . S
H1032 C1029 0.929 . S
S1033 N1034 1.613 . S
S1033 N1035 1.610 . S
N1034 S1033 1.613 . S
N1034 C1037 1.350 . S
N1035 S1033 1.610 . S
N1035 C1036 1.351 . S
C1036 C1030 1.428 . S
C1036 N1035 1.351 . S
C1036 C1037 1.434 . S
C1037 C1028 1.429 . S
C1037 N1034 1.350 . S
C1037 C1036 1.434 . S
C1038 C1039 1.369 . S
C1038 C1040 1.419 . S
C1038 H1042 0.930 . S
C1039 C1038 1.369 . S
C1039 C1048 1.429 . S
C1040 C1038 1.419 . S
C1040 C1041 1.363 . S
C1040 H1043 0.929 . S
C1041 C1040 1.363 . S
C1041 C1047 1.428 . S
H1042 C1038 0.930 . S
H1043 C1040 0.929 . S
S1044 N1045 1.613 . S
S1044 N1046 1.610 . S
N1045 S1044 1.613 . S
N1045 C1048 1.350 . S
N1046 S1044 1.610 . S
N1046 C1047 1.351 . S
C1047 C1041 1.428 . S
C1047 N1046 1.351 . S
C1047 C1048 1.434 . S
C1048 C1039 1.429 . S
C1048 N1045 1.350 . S
C1048 C1047 1.434 . S
C1049 C1050 1.369 . S
C1049 C1051 1.419 . S
C1049 H1053 0.930 . S
C1050 C1049 1.369 . S
C1050 C1059 1.429 . S
C1051 C1049 1.419 . S
C1051 C1052 1.363 . S
C1051 H1054 0.929 . S
C1052 C1051 1.363 . S
C1052 C1058 1.428 . S
H1053 C1049 0.930 . S
H1054 C1051 0.929 . S
S1055 N1056 1.613 . S
S1055 N1057 1.610 . S
N1056 S1055 1.613 . S
N1056 C1059 1.350 . S
N1057 S1055 1.610 . S
N1057 C1058 1.351 . S
C1058 C1052 1.428 . S
C1058 N1057 1.351 . S
C1058 C1059 1.434 . S
C1059 C1050 1.429 . S
C1059 N1056 1.350 . S
C1059 C1058 1.434 . S
C1060 C1061 1.369 . S
C1060 C1062 1.419 . S
C1060 H1064 0.930 . S
C1061 C1060 1.369 . S
C1061 C1070 1.429 . S
C1062 C1060 1.419 . S
C1062 C1063 1.363 . S
C1062 H1065 0.929 . S
C1063 C1062 1.363 . S
C1063 C1069 1.428 . S
H1064 C1060 0.930 . S
H1065 C1062 0.929 . S
S1066 N1067 1.613 . S
S1066 N1068 1.610 . S
N1067 S1066 1.613 . S
N1067 C1070 1.350 . S
N1068 S1066 1.610 . S
N1068 C1069 1.351 . S
C1069 C1063 1.428 . S
C1069 N1068 1.351 . S
C1069 C1070 1.434 . S
C1070 C1061 1.429 . S
C1070 N1067 1.350 . S
C1070 C1069 1.434 . S
C1071 C1072 1.369 . S
C1071 C1073 1.419 . S
C1071 H1075 0.930 . S
C1072 C1071 1.369 . S
C1072 C1081 1.429 . S
C1073 C1071 1.419 . S
C1073 C1074 1.363 . S
C1073 H1076 0.929 . S
C1074 C1073 1.363 . S
C1074 C1080 1.428 . S
H1075 C1071 0.930 . S
H1076 C1073 0.929 . S
S1077 N1078 1.629 . S
S1077 N1079 1.610 . S
N1078 S1077 1.629 . S
N1078 C1081 1.361 . S
N1079 S1077 1.610 . S
N1079 C1080 1.351 . S
C1080 C1074 1.428 . S
C1080 N1079 1.351 . S
C1080 C1081 1.434 . S
C1081 C1072 1.429 . S
C1081 N1078 1.361 . S
C1081 C1080 1.434 . S
C1082 C1083 1.369 . S
C1082 C1084 1.419 . S
C1082 H1086 0.930 . S
C1083 C1082 1.369 . S
C1083 C1092 1.429 . S
C1084 C1082 1.419 . S
C1084 C1085 1.363 . S
C1084 H1087 0.929 . S
C1085 C1084 1.363 . S
C1085 C1091 1.428 . S
H1086 C1082 0.930 . S
H1087 C1084 0.929 . S
S1088 N1089 1.613 . S
S1088 N1090 1.610 . S
N1089 S1088 1.613 . S
N1089 C1092 1.350 . S
N1090 S1088 1.610 . S
N1090 C1091 1.351 . S
C1091 C1085 1.428 . S
C1091 N1090 1.351 . S
C1091 C1092 1.434 . S
C1092 C1083 1.429 . S
C1092 N1089 1.350 . S
C1092 C1091 1.434 . S
C1093 C1094 1.369 . S
C1093 C1095 1.419 . S
C1093 H1097 0.930 . S
C1094 C1093 1.369 . S
C1094 C1103 1.429 . S
C1095 C1093 1.419 . S
C1095 C1096 1.363 . S
C1095 H1098 0.929 . S
C1096 C1095 1.363 . S
C1096 C1102 1.428 . S
H1097 C1093 0.930 . S
H1098 C1095 0.929 . S
S1099 N1100 1.613 . S
S1099 N1101 1.610 . S
N1100 S1099 1.613 . S
N1100 C1103 1.350 . S
N1101 S1099 1.610 . S
N1101 C1102 1.351 . S
C1102 C1096 1.428 . S
C1102 N1101 1.351 . S
C1102 C1103 1.434 . S
C1103 C1094 1.429 . S
C1103 N1100 1.350 . S
C1103 C1102 1.434 . S
C1104 C1105 1.369 . S
C1104 C1106 1.419 . S
C1104 H1108 0.930 . S
C1105 C1104 1.369 . S
C1105 C1114 1.429 . S
C1106 C1104 1.419 . S
C1106 C1107 1.363 . S
C1106 H1109 0.929 . S
C1107 C1106 1.363 . S
C1107 C1113 1.428 . S
H1108 C1104 0.930 . S
H1109 C1106 0.929 . S
S1110 N1111 1.613 . S
S1110 N1112 1.610 . S
N1111 S1110 1.613 . S
N1111 C1114 1.350 . S
N1112 S1110 1.610 . S
N1112 C1113 1.351 . S
C1113 C1107 1.428 . S
C1113 N1112 1.351 . S
C1113 C1114 1.434 . S
C1114 C1105 1.429 . S
C1114 N1111 1.350 . S
C1114 C1113 1.434 . S
C1115 C1116 1.369 . S
C1115 C1117 1.419 . S
C1115 H1119 0.930 . S
C1116 C1115 1.369 . S
C1116 C1125 1.429 . S
C1117 C1115 1.419 . S
C1117 C1118 1.363 . S
C1117 H1120 0.929 . S
C1118 C1117 1.363 . S
C1118 C1124 1.428 . S
H1119 C1115 0.930 . S
H1120 C1117 0.929 . S
S1121 N1122 1.613 . S
S1121 N1123 1.610 . S
N1122 S1121 1.613 . S
N1122 C1125 1.350 . S
N1123 S1121 1.610 . S
N1123 C1124 1.351 . S
C1124 C1118 1.428 . S
C1124 N1123 1.351 . S
C1124 C1125 1.434 . S
C1125 C1116 1.429 . S
C1125 N1122 1.350 . S
C1125 C1124 1.434 . S
C1126 C1127 1.369 . S
C1126 C1128 1.419 . S
C1126 H1130 0.930 . S
C1127 C1126 1.369 . S
C1127 C1136 1.429 . S
C1128 C1126 1.419 . S
C1128 C1129 1.363 . S
C1128 H1131 0.929 . S
C1129 C1128 1.363 . S
C1129 C1135 1.428 . S
H1130 C1126 0.930 . S
H1131 C1128 0.929 . S
S1132 N1133 1.613 . S
S1132 N1134 1.610 . S
N1133 S1132 1.613 . S
N1133 C1136 1.350 . S
N1134 S1132 1.610 . S
N1134 C1135 1.351 . S
C1135 C1129 1.428 . S
C1135 N1134 1.351 . S
C1135 C1136 1.434 . S
C1136 C1127 1.429 . S
C1136 N1133 1.350 . S
C1136 C1135 1.434 . S
C1137 C1138 1.369 . S
C1137 C1139 1.419 . S
C1137 H1141 0.930 . S
C1138 C1137 1.369 . S
C1138 C1147 1.429 . S
C1139 C1137 1.419 . S
C1139 C1140 1.363 . S
C1139 H1142 0.929 . S
C1140 C1139 1.363 . S
C1140 C1146 1.428 . S
H1141 C1137 0.930 . S
H1142 C1139 0.929 . S
S1143 N1144 1.613 . S
S1143 N1145 1.610 . S
N1144 S1143 1.613 . S
N1144 C1147 1.350 . S
N1145 S1143 1.610 . S
N1145 C1146 1.351 . S
C1146 C1140 1.428 . S
C1146 N1145 1.351 . S
C1146 C1147 1.434 . S
C1147 C1138 1.429 . S
C1147 N1144 1.350 . S
C1147 C1146 1.434 . S
C1148 C1149 1.369 . S
C1148 C1150 1.419 . S
C1148 H1152 0.930 . S
C1149 C1148 1.369 . S
C1149 C1158 1.429 . S
C1150 C1148 1.419 . S
C1150 C1151 1.363 . S
C1150 H1153 0.929 1_554 S
C1151 C1150 1.363 . S
C1151 C1157 1.428 . S
H1152 C1148 0.930 . S
H1153 C1150 0.929 1_556 S
S1154 N1155 1.613 . S
S1154 N1156 1.610 . S
N1155 S1154 1.613 . S
N1155 C1158 1.350 . S
N1156 S1154 1.610 . S
N1156 C1157 1.351 . S
C1157 C1151 1.428 . S
C1157 N1156 1.351 . S
C1157 C1158 1.434 . S
C1158 C1149 1.429 . S
C1158 N1155 1.350 . S
C1158 C1157 1.434 . S
C1159 C1160 1.369 . S
C1159 C1161 1.419 . S
C1159 H1163 0.930 . S
C1160 C1159 1.369 . S
C1160 C1169 1.429 . S
C1161 C1159 1.419 . S
C1161 C1162 1.363 . S
C1161 H1164 0.929 . S
C1162 C1161 1.363 . S
C1162 C1168 1.428 . S
H1163 C1159 0.930 . S
H1164 C1161 0.929 . S
S1165 N1166 1.613 . S
S1165 N1167 1.610 . S
N1166 S1165 1.613 . S
N1166 C1169 1.350 . S
N1167 S1165 1.610 . S
N1167 C1168 1.351 . S
C1168 C1162 1.428 . S
C1168 N1167 1.351 . S
C1168 C1169 1.434 . S
C1169 C1160 1.429 . S
C1169 N1166 1.350 . S
C1169 C1168 1.434 . S
C577 C4 0.890 . S
C579 N77 0.897 . S
C588 N13 0.889 . S
C590 C36 0.906 . S
C599 C68 0.892 . S
C601 N45 0.893 . S
C610 N141 0.905 . S
C612 C100 0.901 . S
C621 N178 0.887 . S
C623 C132 0.900 . S
C632 C189 0.891 . S
C634 N109 0.892 . S
C643 N269 0.907 . S
C645 C196 0.895 . S
C654 C228 0.893 . S
C656 N205 0.890 . S
C665 N237 0.894 . S
C667 C260 0.890 . S
C676 C317 0.887 . S
C678 N333 0.901 . S
C687 N370 0.907 . S
C689 C324 0.893 . S
C698 C381 0.896 . S
C700 N306 0.905 . S
C709 N461 0.892 . S
C711 C388 0.891 . S
C720 C420 0.893 . S
C722 N397 0.890 . S
C731 C452 0.894 . S
C733 N429 0.905 . S
C742 C509 0.907 . S
C744 N525 0.894 . S
C753 N562 0.906 . S
C755 C516 0.899 . S
C764 N498 0.888 . S
C766 C573 0.902 . S
C775 C166 1.501 . S
C777 C29 1.467 . S
C786 C98 1.504 . S
C788 C61 1.464 . S
C797 C130 1.509 . S
C799 C93 1.460 . S
C808 C34 1.506 . S
C810 C125 1.462 . S
C819 C157 1.458 . S
C821 C66 1.508 . S
C830 C2 1.504 . S
C832 C164 1.465 . S
C841 C221 1.458 . S
C843 C358 1.508 . S
C852 C253 1.460 . S
C854 C294 1.508 . S
C863 C322 1.509 . S
C865 C285 1.459 . S
C874 C292 1.468 1_554 S
C876 C226 1.503 . S
C885 C349 1.459 1_554 S
C887 C258 1.508 . S
C896 C356 1.467 1_554 S
C898 C194 1.504 . S
C907 C413 1.459 . S
C909 C550 1.508 1_556 S
C918 C445 1.458 . S
C920 C486 1.508 1_556 S
C929 C477 1.462 . S
C931 C514 1.507 1_556 S
C940 C484 1.458 . S
C942 C418 1.508 . S
C951 C541 1.462 . S
C953 C450 1.506 . S
C962 C548 1.458 . S
C964 C386 1.508 . S
C973 C326 1.818 . S
C975 N18 1.925 . S
C984 N50 1.926 . S
C986 C354 1.824 . S
C995 C290 1.817 . S
C997 N82 1.926 . S
C1006 N114 1.925 . S
C1008 C262 1.819 . S
C1017 N146 1.926 . S
C1019 C198 1.824 . S
C1028 C230 1.823 . S
C1030 N173 1.927 . S
C1039 N210 1.927 . S
C1041 C518 1.823 1_455 S
C1050 N242 1.927 . S
C1052 C546 1.817 . S
C1061 N274 1.927 . S
C1063 C482 1.823 1_565 S
C1072 C454 1.817 1_565 S
C1074 N301 1.926 . S
C1083 C390 1.825 1_455 S
C1085 N338 1.926 . S
C1094 C422 1.817 . S
C1096 N365 1.927 . S
C1105 C134 1.824 . S
C1107 N402 1.926 . S
C1116 N434 1.925 . S
C1118 C162 1.819 . S
C1127 C102 1.816 . S
C1129 N466 1.926 . S
C1138 N493 1.926 . S
C1140 C70 1.817 . S
C1149 N530 1.925 . S
C1151 C6 1.820 . S
C1160 C38 1.818 . S
C1162 N557 1.927 . S
