# Generated by pormake.
# Topology sxc, (6)-cn, num edge types: 1
# Building blocks:
#     Node 0, Type 0, BuildingBlock: KUMBUR_clean_sbu_1, # of connection points: 6
#     Node 1, Type 0, BuildingBlock: KUMBUR_clean_sbu_1, # of connection points: 6
#     Node 2, Type 0, BuildingBlock: KUMBUR_clean_sbu_1, # of connection points: 6
#     Edge 3, Type (0, 0), BuildingBlock: EZIPEK_clean_linker_0, # of connection points: 2
#     Edge 4, Type (0, 0), BuildingBlock: EZIPEK_clean_linker_0, # of connection points: 2
#     Edge 5, Type (0, 0), BuildingBlock: EZIPEK_clean_linker_0, # of connection points: 2
#     Edge 6, Type (0, 0), BuildingBlock: EZIPEK_clean_linker_0, # of connection points: 2
#     Edge 7, Type (0, 0), BuildingBlock: EZIPEK_clean_linker_0, # of connection points: 2
#     Edge 8, Type (0, 0), BuildingBlock: EZIPEK_clean_linker_0, # of connection points: 2
#     Edge 9, Type (0, 0), BuildingBlock: EZIPEK_clean_linker_0, # of connection points: 2
#     Edge 10, Type (0, 0), BuildingBlock: EZIPEK_clean_linker_0, # of connection points: 2
#     Edge 11, Type (0, 0), BuildingBlock: EZIPEK_clean_linker_0, # of connection points: 2
# Relax obj value: 0.409
# Max RMSD: 0.177
# Mean RMSD: 0.134
data_MOF--net-sxc--node1-KUMBUR_clean_sbu_1--edge1-EZIPEK_clean_linker_0
_symmetry_space_group_name_H-M    P1
_symmetry_Int_Tables_number       1
_symmetry_cell_setting            triclinic
loop_
_symmetry_equiv_pos_as_xyz
'x, y, z'
_cell_length_a     11.630938
_cell_length_b     12.885588
_cell_length_c     32.836716
_cell_angle_alpha  107.65403
_cell_angle_beta   97.83144
_cell_angle_gamma 95.926287
loop_
_atom_site_label
_atom_site_type_symbol
_atom_site_fract_x
_atom_site_fract_y
_atom_site_fract_z
_atom_type_partial_charge
Tb0 Tb 0.94435 0.17974 0.97226 0.0
C1 C 0.4028 0.13205 0.05742 0.0
N2 N 0.31997 0.19456 0.07111 0.0
C3 C 0.38094 0.1938 0.14372 0.0
C4 C 0.46942 1.08838 0.08552 0.0
C5 C 0.31212 0.22967 0.11413 0.0
C6 C 0.45647 1.11975 0.12904 0.0
C7 C 0.50906 1.05182 0.00036 0.0
C8 C 0.42641 1.11881 0.01608 0.0
C9 C 0.57142 1.00323 0.02754 0.0
C10 C 0.55209 1.02169 0.07005 0.0
Tb11 Tb 0.23253 0.27055 0.02331 0.0
N12 N 0.37361 0.17693 -0.00753 0.0
C13 C 0.52911 1.03907 0.95836 0.0
C14 C 0.41066 0.17911 0.95488 0.0
C15 C 0.48391 1.10631 0.93617 0.0
H16 H 0.25765 0.29027 0.12644 0.0
H17 H 0.50756 1.10395 0.90517 0.0
H18 H 0.95922 0.23244 0.88033 0.0
H19 H 0.67212 0.30666 0.09441 0.0
H20 H 0.38745 0.2375 0.93917 0.0
H21 H 0.58249 0.98081 0.94334 0.0
H22 H 0.79435 0.18166 0.05555 0.0
H23 H 0.37807 0.22546 0.178 0.0
H24 H 0.63808 0.95461 0.01686 0.0
H25 H 0.60257 0.9849 0.09062 0.0
H26 H 0.84433 0.31772 0.8348 0.0
H27 H 0.50905 1.09362 0.1523 0.0
H28 H 0.594 0.44028 0.06227 0.0
N29 N 0.86283 0.27725 0.93188 0.0
C30 C 0.7685 0.32196 0.94526 0.0
C31 C 0.82368 0.32201 0.86619 0.0
C32 C 0.70023 0.37231 0.92014 0.0
C33 C 0.88998 0.27473 0.89251 0.0
C34 C 0.72857 0.37142 0.88002 0.0
N35 N 0.79931 0.25665 0.00547 0.0
C36 C 0.76467 0.24237 0.0419 0.0
C37 C 0.65398 0.37461 0.00195 0.0
C38 C 0.74117 0.31748 -0.01547 0.0
C39 C 0.64093 0.38065 0.04413 0.0
C40 C 0.69061 0.30957 0.0633 0.0
H41 H 0.6768 0.4068 0.8592 0.0
H42 H 0.55199 0.45994 0.91705 0.0
H43 H 0.51239 0.4627 -0.01128 0.0
O44 O 0.77691 1.0878 0.94951 0.0
O45 O 0.9956 0.37916 -0.01345 0.0
O46 O 0.19459 0.41975 -0.00018 0.0
O47 O 0.91043 1.06224 0.90965 0.0
O48 O 0.97703 0.16244 0.03851 0.0
O49 O 0.09873 0.31806 0.06353 0.0
O50 O 0.3996 0.35738 0.04763 0.0
O51 O 0.18152 1.07071 0.00968 0.0
O52 O 0.98386 1.02265 -0.0103 0.0
O53 O 0.2572 0.40586 0.08117 0.0
O54 O 0.2106 0.28316 0.95705 0.0
O55 O 1.07695 0.13482 0.93134 0.0
C56 C 0.09244 0.45861 -0.0066 0.0
C57 C 0.78011 0.9055 0.90518 0.0
C58 C 0.70178 0.75329 0.92711 0.0
C59 C 0.6947 0.68081 0.88511 0.0
C60 C 0.77786 0.83228 0.86355 0.0
C61 C 0.73693 0.71956 0.85383 0.0
C62 C 0.75096 0.86334 0.93753 0.0
C63 C 1.02963 0.24571 0.07231 0.0
C64 C 0.80636 1.02553 0.91432 0.0
C65 C 0.60581 0.42082 0.93576 0.0
C66 C 0.58419 0.42368 0.97695 0.0
C67 C 0.08635 0.98694 -0.00138 0.0
C68 C 0.42415 0.54003 0.09464 0.0
C69 C 0.52766 0.68059 0.07267 0.0
C70 C 0.58661 0.7322 0.11549 0.0
C71 C 0.48612 0.58893 0.13713 0.0
C72 C 0.43952 0.59021 0.06327 0.0
C73 C 0.56681 0.68497 0.14745 0.0
C74 C 0.15406 0.20266 0.9231 0.0
C75 C 0.36932 0.42514 0.0814 0.0
H76 H 0.65609 0.59539 0.87667 0.0
H77 H 0.80542 0.86323 0.83871 0.0
H78 H 0.73272 0.66222 0.82174 0.0
H79 H 0.75945 0.91771 0.97045 0.0
H80 H 0.65694 0.80059 0.12281 0.0
H81 H 0.47821 0.5488 0.16146 0.0
H82 H 0.39394 0.55068 0.03023 0.0
H83 H 0.62151 0.71682 0.17915 0.0
Tb84 Tb 1.00947 1.09532 0.30267 0.0
C85 C 0.31176 0.4959 0.42399 0.0
N86 N 0.20542 0.44422 0.42562 0.0
C87 C 0.26922 0.46977 0.50097 0.0
C88 C 0.4062 0.52009 0.45873 0.0
C89 C 0.17959 0.44362 0.46491 0.0
C90 C 0.38452 0.49943 0.4966 0.0
C91 C 0.43551 0.57576 0.38415 0.0
C92 C 0.32468 0.52753 0.38792 0.0
C93 C 0.53186 0.59448 0.41768 0.0
C94 C 0.51728 0.56655 0.4549 0.0
Tb95 Tb 1.06845 0.39711 0.36373 0.0
N96 N 0.23017 0.50235 0.35501 0.0
C97 C 0.44756 0.59854 0.34591 0.0
C98 C 0.24109 0.528 0.31817 0.0
C99 C 0.35045 0.57364 0.31277 0.0
H100 H 0.09052 0.4199 0.46833 0.0
H101 H 0.36052 0.58773 0.28258 0.0
H102 H 0.89008 0.13402 0.21028 0.0
H103 H 0.79372 0.92813 0.41125 0.0
H104 H 0.16806 0.50883 0.29186 0.0
H105 H 0.5318 0.63291 0.3412 0.0
H106 H 0.96033 1.02018 0.39007 0.0
H107 H 0.24985 0.46314 0.53148 0.0
H108 H 0.618 0.63023 0.4151 0.0
H109 H 0.59211 0.58251 0.48058 0.0
H110 H 0.70952 1.0742 0.1589 0.0
H111 H 0.45491 0.50856 0.52289 0.0
H112 H 0.62103 0.82879 0.35668 0.0
N113 N 0.83539 1.05973 0.25527 0.0
C114 C 0.75087 0.98683 0.26098 0.0
C115 C 0.71756 1.0511 0.18802 0.0
C116 C 0.64414 0.94826 0.23151 0.0
C117 C 0.82056 1.08905 0.21851 0.0
C118 C 0.62839 0.98057 0.19463 0.0
N119 N 0.87221 0.99617 0.32615 0.0
C120 C 0.88253 0.98503 0.36645 0.0
C121 C 0.67856 0.88833 0.30668 0.0
C122 C 0.76943 0.95433 0.29757 0.0
C123 C 0.68983 0.87595 0.3477 0.0
C124 C 0.78909 0.9301 0.37842 0.0
H125 H 0.54918 0.94808 0.17052 0.0
H126 H 0.47766 0.84327 0.21548 0.0
H127 H 0.51235 0.78184 0.27971 0.0
O128 O 1.02872 0.92907 0.28115 0.0
O129 O 0.85912 0.1698 0.33028 0.0
O130 O 0.88006 0.34452 0.32809 0.0
O131 O 1.04059 1.02802 0.2392 0.0
O132 O 0.11115 1.12064 0.36894 0.0
O133 O 1.03449 0.27391 0.39586 0.0
O134 O 1.07633 0.56456 0.39435 0.0
O135 O 0.23037 0.32891 0.34036 0.0
O136 O 0.20454 0.14204 0.32578 0.0
O137 O 0.94472 0.4501 0.40452 0.0
O138 O 1.01147 0.37755 0.29339 0.0
O139 O 1.06932 0.21077 0.27062 0.0
C140 C 0.80964 0.25639 0.3285 0.0
C141 C 0.16553 0.89703 0.23338 0.0
C142 C 0.27723 0.79217 0.26493 0.0
C143 C 0.29109 0.72336 0.22396 0.0
C144 C 0.16896 0.82821 0.19145 0.0
C145 C 0.24074 0.74557 0.18659 0.0
C146 C 0.24997 0.89582 0.26738 0.0
C147 C 0.09802 0.20153 0.40333 0.0
C148 C 1.05558 0.93461 0.24432 0.0
C149 C 0.55785 0.87562 0.23882 0.0
C150 C 0.57682 0.84241 0.27554 0.0
C151 C 0.27548 0.23533 0.33185 0.0
C152 C 0.90295 0.63044 0.41196 0.0
C153 C 0.97538 0.7674 0.3844 0.0
C154 C 0.98775 0.84799 0.42562 0.0
C155 C 0.89799 0.70947 0.45169 0.0
C156 C 0.90388 0.66657 0.37645 0.0
C157 C 0.93953 0.82035 0.45843 0.0
C158 C 1.03429 0.29523 0.26127 0.0
C159 C 0.98655 0.55324 0.41342 0.0
H160 H 0.32236 0.64544 0.22045 0.0
H161 H 0.1095 0.83211 0.16384 0.0
H162 H 0.24272 0.6896 0.15466 0.0
H163 H 0.24938 0.95252 0.29927 0.0
H164 H 1.04152 0.92743 0.43328 0.0
H165 H 0.87825 0.68472 0.47875 0.0
H166 H 0.89663 0.60269 0.34536 0.0
H167 H 0.9472 0.8811 0.49016 0.0
Tb168 Tb 0.21468 0.32692 0.69134 0.0
C169 C 0.43529 0.93578 0.60763 0.0
N170 N 0.33699 0.96783 0.59048 0.0
C171 C 0.40051 0.92628 0.5214 0.0
C172 C 0.52388 0.9058 0.58298 0.0
C173 C 0.31829 0.96268 0.54775 0.0
C174 C 0.50368 0.89747 0.53904 0.0
C175 C 0.56413 0.93824 0.67249 0.0
C176 C 0.45332 0.94825 0.65175 0.0
C177 C 0.65392 0.91229 0.6484 0.0
C178 C 0.6327 0.89292 0.60358 0.0
Tb179 Tb 0.20319 1.01609 0.63562 0.0
N180 N 0.36622 0.97922 0.67493 0.0
C181 C 0.58303 0.95853 0.7172 0.0
C182 C 0.3793 0.97885 0.71696 0.0
C183 C 0.48911 0.97547 0.73933 0.0
H184 H 0.23913 0.98521 0.53367 0.0
H185 H 0.50055 0.98448 0.77354 0.0
H186 H 0.17922 0.37224 0.79408 0.0
H187 H 0.93209 0.37877 0.55483 0.0
H188 H 0.30663 0.97825 0.73379 0.0
H189 H 0.66909 0.95828 0.73449 0.0
H190 H 0.12444 0.38795 0.59725 0.0
H191 H 0.38538 0.92256 0.48772 0.0
H192 H 0.73984 0.90557 0.66404 0.0
H193 H 0.70245 0.87095 0.58533 0.0
H194 H 1.03332 0.43779 0.8394 0.0
H195 H 0.56902 0.87295 0.5189 0.0
H196 H 0.75639 0.39215 0.59046 0.0
N197 N 1.08044 0.3816 0.73619 0.0
C198 C 0.98174 0.41184 0.71848 0.0
C199 C 1.01719 0.43004 0.80534 0.0
C200 C 0.89259 0.44336 0.74269 0.0
C201 C 0.09943 0.39161 0.77934 0.0
C202 C 0.9129 0.45554 0.78693 0.0
N203 N 1.05574 0.37208 0.65266 0.0
C204 C 1.04827 0.38197 0.61212 0.0
C205 C 0.85552 0.40795 0.65305 0.0
C206 C 0.96553 0.39868 0.67458 0.0
C207 C 0.84125 0.39212 0.60867 0.0
C208 C 0.93954 0.384 0.58854 0.0
H209 H 0.84746 0.48158 0.80683 0.0
H210 H 0.71355 0.47733 0.73936 0.0
H211 H 0.67881 0.44005 0.66026 0.0
O212 O 0.25878 0.49139 0.69335 0.0
O213 O 1.04864 0.22257 0.693 0.0
O214 O 1.01671 1.06315 0.6359 0.0
O215 O 0.3022 0.44334 0.74978 0.0
O216 O 0.24392 0.27772 0.62176 0.0
O217 O 0.13583 1.10479 0.59293 0.0
O218 O 0.12271 0.89486 0.57743 0.0
O219 O 0.36634 1.12474 0.63381 0.0
O220 O 0.40107 0.28078 0.69182 0.0
O221 O 0.16717 0.85182 0.6349 0.0
O222 O 0.16345 1.06019 0.70334 0.0
O223 O 0.27211 0.23088 0.73293 0.0
C224 C 0.97271 0.14464 0.66271 0.0
C225 C 0.40895 0.60486 0.74977 0.0
C226 C 0.58513 0.68667 0.73347 0.0
C227 C 0.59127 0.77977 0.77008 0.0
C228 C 0.41521 0.69717 0.78652 0.0
C229 C 0.50834 0.78343 0.79729 0.0
C230 C 0.49892 0.59563 0.72569 0.0
C231 C 0.18863 0.19326 0.58729 0.0
C232 C 0.30272 0.52459 0.73464 0.0
C233 C 0.784 0.45531 0.7215 0.0
C234 C 0.76407 0.43352 0.67647 0.0
C235 C 0.44401 0.19967 0.66469 0.0
C236 C 1.02042 0.73392 0.57875 0.0
C237 C 0.83837 0.65914 0.59299 0.0
C238 C 0.82691 0.56813 0.55519 0.0
C239 C 1.01361 0.64058 0.54235 0.0
C240 C 0.92907 0.74665 0.60198 0.0
C241 C 0.91433 0.55967 0.52961 0.0
C242 C 0.21055 0.14598 0.73829 0.0
C243 C 0.12529 0.81527 0.59344 0.0
H244 H 0.65842 0.85028 0.7772 0.0
H245 H 0.34658 0.7038 0.80602 0.0
H246 H 0.51314 0.85531 0.82546 0.0
H247 H 0.4933 0.52348 0.69739 0.0
H248 H 0.75376 0.50191 0.54657 0.0
H249 H 1.08391 0.63127 0.52363 0.0
H250 H 0.9358 0.81874 0.63042 0.0
H251 H 0.90734 0.48855 0.50097 0.0
C252 C 0.11914 0.64082 0.96007 0.0
C253 C 0.08946 0.59428 -0.00613 0.0
C254 C 1.04758 0.79901 0.02799 0.0
C255 C 0.09084 0.85066 -0.00249 0.0
N256 N 0.15272 0.7945 0.92873 0.0
N257 N 1.05334 0.6608 0.06664 0.0
C258 C 0.12296 0.76243 0.96233 0.0
C259 C 1.0633 0.68411 0.02945 0.0
N260 N 0.14405 0.56623 0.92428 0.0
N261 N 0.9785 0.85582 0.05419 0.0
H262 H 1.06179 0.58322 0.06941 0.0
H263 H 1.04375 0.72016 0.09504 0.0
H264 H 0.95109 0.92746 0.05051 0.0
H265 H 0.93496 0.82387 0.07449 0.0
H266 H 0.1745 0.58493 0.89868 0.0
H267 H 0.13207 0.48215 0.92023 0.0
H268 H 0.17142 0.74272 0.9002 0.0
H269 H 0.15808 0.87645 0.92957 0.0
C270 C 0.4706 0.29209 0.30347 0.0
C271 C 0.41192 0.23653 0.32898 0.0
C272 C 0.61326 0.19884 0.35489 0.0
C273 C 0.67193 0.25151 0.32872 0.0
N274 N 0.64003 0.3204 0.26863 0.0
N275 N 0.43653 1.10593 0.36787 0.0
C276 C 0.59549 0.29089 0.30063 0.0
C277 C 0.48605 0.18097 0.35114 0.0
N278 N 0.40631 0.34414 0.28023 0.0
N279 N 0.67892 0.16761 0.3854 0.0
H280 H 0.34709 1.08735 0.36676 0.0
H281 H 0.48415 1.05361 0.3795 0.0
H282 H 0.76808 0.16875 0.38753 0.0
H283 H 0.646 0.14819 0.4106 0.0
H284 H 0.44236 0.39413 0.26412 0.0
H285 H 0.31668 0.34291 0.27909 0.0
H286 H 0.58913 0.33628 0.24322 0.0
H287 H 0.72693 0.31701 0.2645 0.0
C288 C 0.83398 0.67164 0.66964 0.0
C289 C 0.77058 0.65806 0.62769 0.0
C290 C 0.58773 0.67172 0.65615 0.0
C291 C 0.65199 0.68889 0.69843 0.0
N292 N 0.83811 0.72259 0.74668 0.0
N293 N 0.59179 0.65748 0.58133 0.0
C294 C 0.77585 0.69594 0.70565 0.0
C295 C 0.64814 0.65839 0.62073 0.0
N296 N 0.94836 0.65334 0.67443 0.0
N297 N 0.46909 0.67307 0.65032 0.0
H298 H 0.63401 0.6534 0.55507 0.0
H299 H 0.50644 0.67385 0.57575 0.0
H300 H 0.42515 0.70481 0.67595 0.0
H301 H 0.41352 0.64222 0.6203 0.0
H302 H 0.99659 0.65184 0.7033 0.0
H303 H 0.99163 0.62544 0.64829 0.0
H304 H 0.92895 0.74479 0.75461 0.0
H305 H 0.79869 0.72835 0.77346 0.0
C306 C 0.78618 0.17931 0.7023 0.0
C307 C 0.8343 0.14968 0.66274 0.0
C308 C 0.63192 0.16411 0.62578 0.0
C309 C 0.5827 0.19305 0.66512 0.0
N310 N 0.63174 0.24612 0.74284 0.0
N311 N 0.77761 1.07921 0.58527 0.0
C312 C 0.66574 0.20513 0.70371 0.0
C313 C 0.75017 0.13428 0.62429 0.0
N314 N 0.85301 0.17415 0.73893 0.0
N315 N 0.56632 0.16778 0.58878 0.0
H316 H 0.85011 1.03836 0.58302 0.0
H317 H 0.72004 1.05719 0.55581 0.0
H318 H 0.47994 0.18114 0.58723 0.0
H319 H 0.60012 0.16642 0.56087 0.0
H320 H 0.82039 0.17501 0.76695 0.0
H321 H 0.93828 0.15642 0.73982 0.0
H322 H 0.68877 0.27127 0.77247 0.0
H323 H 0.54831 0.26561 0.74564 0.0
C324 C 0.53759 0.74392 0.96774 0.0
C325 C 0.65012 0.71918 0.96035 0.0
C326 C 0.68251 0.66816 0.02617 0.0
C327 C 0.57377 0.70211 0.03578 0.0
N328 N 0.40192 0.78049 0.01852 0.0
N329 N 0.81247 0.62706 0.97346 0.0
C330 C 0.50137 0.74064 0.00695 0.0
C331 C 0.71852 0.6736 -0.01277 0.0
N332 N 0.465 0.76841 0.9367 0.0
N333 N 0.75071 0.62904 0.05382 0.0
H334 H 0.84368 0.63284 0.9458 0.0
H335 H 0.84945 0.57063 -0.01406 0.0
H336 H 0.72606 0.61489 0.08114 0.0
H337 H 0.83357 0.60951 0.04997 0.0
H338 H 0.37826 0.77873 0.93832 0.0
H339 H 0.48909 0.77045 0.90745 0.0
H340 H 0.35473 0.82453 0.00218 0.0
H341 H 0.37343 0.78034 0.04729 0.0
C342 C 0.18287 0.79006 0.36942 0.0
C343 C 1.05908 0.77023 0.35435 0.0
C344 C 0.09607 0.703 0.2804 0.0
C345 C 0.21691 0.74886 0.29481 0.0
N346 N 0.37259 0.84359 0.35573 0.0
N347 N 0.89955 0.71581 0.29246 0.0
C348 C 0.25888 0.79542 0.34015 0.0
C349 C 1.01658 0.73046 0.30896 0.0
N350 N 0.23298 0.79864 0.41052 0.0
N351 N 1.05228 0.63438 0.23949 0.0
H352 H 0.83659 0.73736 0.31184 0.0
H353 H 0.86692 0.68763 0.25913 0.0
H354 H 0.10323 0.59739 0.21711 0.0
H355 H 0.10323 0.59739 0.21711 0.0
H356 H 0.18769 0.784 0.43399 0.0
H357 H 0.18769 0.784 0.43399 0.0
H358 H 0.40608 0.87781 0.38892 0.0
H359 H 0.43054 0.85285 0.33532 0.0
C360 C 0.09222 0.21164 0.18586 0.0
C361 C 1.03729 0.29449 0.21362 0.0
C362 C 0.97805 0.34918 0.14761 0.0
C363 C 1.01956 0.25718 0.11992 0.0
N364 N 0.09206 1.08634 0.1144 0.0
N365 N 0.8967 0.42088 0.21316 0.0
C366 C 1.06484 0.18248 0.13958 0.0
C367 C 0.97152 0.35763 0.19235 0.0
N368 N 0.17766 0.16363 0.20299 0.0
N369 N 0.94345 0.42897 0.13139 0.0
H370 H 0.88562 0.42899 0.24476 0.0
H371 H 0.83769 0.45801 0.19747 0.0
H372 H 0.94266 0.42437 0.09909 0.0
H373 H 0.92297 0.50274 0.15077 0.0
H374 H 0.22001 1.10371 0.18452 0.0
H375 H 0.21924 0.19181 0.23507 0.0
H376 H 0.10808 1.02124 0.12593 0.0
H377 H 0.09417 1.07053 0.08171 0.0
C378 C 0.23935 0.21185 0.47351 0.0
C379 C 0.12228 0.19515 0.4501 0.0
C380 C 1.05234 0.17401 0.51583 0.0
C381 C 0.16787 0.20118 0.5408 0.0
N382 N 0.36663 0.28197 0.54429 0.0
N383 N 0.92184 0.21208 0.46113 0.0
C384 C 0.26059 0.22909 0.51979 0.0
C385 C 1.02986 0.18942 0.47438 0.0
N386 N 0.33126 0.2222 0.45268 0.0
N387 N 0.95997 0.14251 0.53293 0.0
H388 H 0.90668 0.24995 0.43787 0.0
H389 H 0.85373 0.21503 0.47886 0.0
H390 H 0.96487 0.15803 0.56604 0.0
H391 H 0.87874 1.10338 0.51381 0.0
H392 H 0.41763 0.22047 0.46572 0.0
H393 H 0.31971 0.231 0.42199 0.0
H394 H 0.43587 0.3111 0.53168 0.0
H395 H 0.38036 0.30975 0.57804 0.0
C396 C 0.28478 0.22424 0.82094 0.0
C397 C 0.20473 0.14628 0.78534 0.0
C398 C 0.12686 1.0818 0.84176 0.0
C399 C 0.1807 0.18103 0.87623 0.0
N400 N 0.30372 0.35919 0.89126 0.0
N401 N 1.03374 1.00308 0.76649 0.0
C402 C 0.25659 0.25648 0.8637 0.0
C403 C 0.12046 1.07607 0.79697 0.0
N404 N 0.39273 0.26298 0.81515 0.0
N405 N 0.09034 0.98846 0.85083 0.0
H406 H 1.02213 0.99256 0.73353 0.0
H407 H 0.96518 0.96 0.77509 0.0
H408 H 0.11271 0.98029 0.88134 0.0
H409 H 1.05684 0.91351 0.82664 0.0
H410 H 0.45594 0.3156 0.8407 0.0
H411 H 0.42494 0.2273 0.78695 0.0
H412 H 0.34793 0.41756 0.8804 0.0
H413 H 0.29193 0.3908 0.92311 0.0
loop_
_geom_bond_atom_site_label_1
_geom_bond_atom_site_label_2
_geom_bond_distance
_geom_bond_site_symmetry_2
_ccdc_geom_bond_type
Tb0 N29 2.617 . S
Tb0 N35 2.572 1_556 S
Tb0 O44 2.465 1_546 S
Tb0 O45 2.389 1_556 S
Tb0 O47 2.428 1_545 S
Tb0 O48 2.308 1_556 S
Tb0 O52 2.349 1_545 S
Tb0 O55 2.393 . S
Tb0 C64 2.802 1_545 S
C1 N2 1.379 . S
C1 C4 1.416 . S
C1 C8 1.424 . S
N2 C1 1.379 . S
N2 C5 1.334 . S
N2 Tb11 2.617 . S
C3 C5 1.390 . S
C3 C6 1.339 . S
C3 H23 0.930 . S
C4 C1 1.416 . S
C4 C6 1.416 . S
C4 C10 1.448 . S
C5 N2 1.334 . S
C5 C3 1.390 . S
C5 H16 0.930 . S
C6 C3 1.339 . S
C6 C4 1.416 . S
C6 H27 0.930 . S
C7 C8 1.420 . S
C7 C9 1.419 1_545 S
C7 C13 1.416 1_544 S
C8 C1 1.424 . S
C8 C7 1.420 . S
C8 N12 1.361 . S
C9 C7 1.419 1_565 S
C9 C10 1.328 1_565 S
C9 H24 0.929 . S
C10 C4 1.448 . S
C10 C9 1.328 1_545 S
C10 H25 0.930 1_545 S
Tb11 N2 2.617 . S
Tb11 N12 2.572 . S
Tb11 O46 2.349 . S
Tb11 O49 2.393 . S
Tb11 O50 2.465 . S
Tb11 O51 2.387 . S
Tb11 O53 2.428 . S
Tb11 O54 2.308 1_554 S
Tb11 C75 2.802 . S
N12 C8 1.361 . S
N12 Tb11 2.572 . S
N12 C14 1.340 1_554 S
C13 C7 1.416 1_566 S
C13 C15 1.332 . S
C13 H21 0.931 . S
C14 N12 1.340 1_556 S
C14 C15 1.407 1_545 S
C14 H20 0.930 . S
C15 C13 1.332 . S
C15 C14 1.407 1_565 S
C15 H17 0.929 . S
H16 C5 0.930 . S
H17 C15 0.929 . S
H18 C33 0.930 1_565 S
H19 C40 0.929 . S
H20 C14 0.930 . S
H21 C13 0.931 . S
H22 C36 0.930 . S
H23 C3 0.930 . S
H24 C9 0.929 . S
H25 C10 0.930 1_565 S
H26 C31 0.930 . S
H27 C6 0.930 . S
H28 C39 0.931 . S
N29 Tb0 2.617 . S
N29 C30 1.379 . S
N29 C33 1.334 . S
C30 N29 1.379 . S
C30 C32 1.416 . S
C30 C38 1.424 . S
C31 H26 0.930 . S
C31 C33 1.390 . S
C31 C34 1.339 . S
C32 C30 1.416 . S
C32 C34 1.416 . S
C32 C65 1.448 . S
C33 H18 0.930 1_545 S
C33 N29 1.334 . S
C33 C31 1.390 . S
C34 C31 1.339 . S
C34 C32 1.416 . S
C34 H41 0.930 . S
N35 Tb0 2.572 1_554 S
N35 C36 1.340 . S
N35 C38 1.361 1_554 S
C36 H22 0.930 . S
C36 N35 1.340 . S
C36 C40 1.407 . S
C37 C38 1.413 1_554 S
C37 C39 1.416 . S
C37 C66 1.427 1_554 S
C38 C30 1.424 . S
C38 N35 1.361 1_556 S
C38 C37 1.413 1_556 S
C39 H28 0.931 . S
C39 C37 1.416 . S
C39 C40 1.332 . S
C40 H19 0.929 . S
C40 C36 1.407 . S
C40 C39 1.332 . S
H41 C34 0.930 . S
H42 C65 0.930 . S
H43 C66 0.929 . S
O44 Tb0 2.465 1_564 S
O44 C64 1.264 1_554 S
O45 Tb0 2.389 1_554 S
O45 C56 1.265 . S
O46 Tb11 2.349 . S
O46 C56 1.243 1_455 S
O47 Tb0 2.428 1_565 S
O47 C64 1.256 . S
O48 Tb0 2.308 1_554 S
O48 C63 1.266 . S
O49 Tb11 2.393 . S
O49 C63 1.248 1_455 S
O50 Tb11 2.465 . S
O50 C75 1.264 . S
O51 Tb11 2.387 . S
O51 C67 1.264 1_545 S
O52 Tb0 2.349 1_565 S
O52 C67 1.243 1_656 S
O53 Tb11 2.428 . S
O53 C75 1.256 . S
O54 Tb11 2.308 1_556 S
O54 C74 1.266 . S
O55 Tb0 2.393 . S
O55 C74 1.248 1_655 S
C56 O45 1.265 . S
C56 O46 1.243 1_655 S
C57 C60 1.399 . S
C57 C62 1.383 1_556 S
C57 C64 1.496 . S
C58 C59 1.399 1_554 S
C58 C62 1.389 . S
C59 C58 1.399 1_556 S
C59 C61 1.380 . S
C59 H76 0.929 . S
C60 C57 1.399 . S
C60 C61 1.392 . S
C60 H77 0.929 . S
C61 C59 1.380 . S
C61 C60 1.392 . S
C61 H78 0.929 . S
C62 C57 1.383 1_554 S
C62 C58 1.389 . S
C62 H79 0.931 . S
C63 O48 1.266 . S
C63 O49 1.248 1_655 S
C64 Tb0 2.802 1_565 S
C64 O44 1.264 1_556 S
C64 O47 1.256 . S
C64 C57 1.496 . S
C65 C32 1.448 . S
C65 H42 0.930 . S
C65 C66 1.328 . S
C66 C37 1.427 1_556 S
C66 H43 0.929 . S
C66 C65 1.328 . S
C67 O51 1.264 1_565 S
C67 O52 1.243 1_454 S
C68 C71 1.399 . S
C68 C72 1.383 . S
C68 C75 1.496 . S
C69 C70 1.399 . S
C69 C72 1.389 . S
C70 C69 1.399 . S
C70 C73 1.380 . S
C70 H80 0.929 . S
C71 C68 1.399 . S
C71 C73 1.392 . S
C71 H81 0.929 . S
C72 C68 1.383 . S
C72 C69 1.389 . S
C72 H82 0.931 1_554 S
C73 C70 1.380 . S
C73 C71 1.392 . S
C73 H83 0.929 . S
C74 O54 1.266 . S
C74 O55 1.248 1_455 S
C75 Tb11 2.802 . S
C75 O50 1.264 . S
C75 O53 1.256 . S
C75 C68 1.496 . S
H76 C59 0.929 . S
H77 C60 0.929 . S
H78 C61 0.929 . S
H79 C62 0.931 . S
H80 C70 0.929 . S
H81 C71 0.929 . S
H82 C72 0.931 1_556 S
H83 C73 0.929 . S
Tb84 N113 2.617 . S
Tb84 N119 2.572 . S
Tb84 O128 2.465 1_655 S
Tb84 O129 2.387 1_565 S
Tb84 O131 2.428 1_655 S
Tb84 O132 2.308 1_565 S
Tb84 O136 2.349 1_665 S
Tb84 O139 2.393 1_565 S
Tb84 C148 2.802 1_655 S
C85 N86 1.379 . S
C85 C88 1.416 . S
C85 C92 1.424 . S
N86 C85 1.379 . S
N86 C89 1.334 . S
N86 Tb95 2.617 . S
C87 C89 1.390 . S
C87 C90 1.339 . S
C87 H107 0.930 . S
C88 C85 1.416 . S
C88 C90 1.416 . S
C88 C94 1.448 . S
C89 N86 1.334 . S
C89 C87 1.390 . S
C89 H100 0.930 . S
C90 C87 1.339 . S
C90 C88 1.416 . S
C90 H111 0.930 . S
C91 C92 1.413 . S
C91 C93 1.427 . S
C91 C97 1.416 . S
C92 C85 1.424 . S
C92 C91 1.413 . S
C92 N96 1.361 . S
C93 C91 1.427 . S
C93 C94 1.328 . S
C93 H108 0.929 . S
C94 C88 1.448 . S
C94 C93 1.328 . S
C94 H109 0.930 . S
Tb95 N86 2.617 . S
Tb95 N96 2.572 . S
Tb95 O130 2.349 1_455 S
Tb95 O133 2.393 . S
Tb95 O134 2.465 . S
Tb95 O135 2.387 . S
Tb95 O137 2.428 . S
Tb95 O138 2.308 . S
Tb95 C159 2.802 . S
N96 C92 1.361 . S
N96 Tb95 2.572 . S
N96 C98 1.340 . S
C97 C91 1.416 . S
C97 C99 1.332 . S
C97 H105 0.931 . S
C98 N96 1.340 . S
C98 C99 1.407 . S
C98 H104 0.930 . S
C99 C97 1.332 . S
C99 C98 1.407 . S
C99 H101 0.929 . S
H100 C89 0.930 . S
H101 C99 0.929 . S
H102 C117 0.930 . S
H103 C124 0.929 . S
H104 C98 0.930 . S
H105 C97 0.931 . S
H106 C120 0.930 . S
H107 C87 0.930 . S
H108 C93 0.929 . S
H109 C94 0.930 . S
H110 C115 0.930 . S
H111 C90 0.930 . S
H112 C123 0.931 . S
N113 Tb84 2.617 . S
N113 C114 1.379 . S
N113 C117 1.334 . S
C114 N113 1.379 . S
C114 C116 1.416 . S
C114 C122 1.424 . S
C115 H110 0.930 . S
C115 C117 1.390 . S
C115 C118 1.339 . S
C116 C114 1.416 . S
C116 C118 1.416 . S
C116 C149 1.448 . S
C117 H102 0.930 . S
C117 N113 1.334 . S
C117 C115 1.390 . S
C118 C115 1.339 . S
C118 C116 1.416 . S
C118 H125 0.930 . S
N119 Tb84 2.572 . S
N119 C120 1.340 . S
N119 C122 1.361 . S
C120 H106 0.930 . S
C120 N119 1.340 . S
C120 C124 1.407 . S
C121 C122 1.413 . S
C121 C123 1.416 . S
C121 C150 1.427 . S
C122 C114 1.424 . S
C122 N119 1.361 . S
C122 C121 1.413 . S
C123 H112 0.931 . S
C123 C121 1.416 . S
C123 C124 1.332 . S
C124 H103 0.929 . S
C124 C120 1.407 . S
C124 C123 1.332 . S
H125 C118 0.930 . S
H126 C149 0.930 . S
H127 C150 0.929 . S
O128 Tb84 2.465 1_455 S
O128 C148 1.264 . S
O129 Tb84 2.387 1_545 S
O129 C140 1.264 . S
O130 Tb95 2.349 1_655 S
O130 C140 1.243 . S
O131 Tb84 2.428 1_455 S
O131 C148 1.256 . S
O132 Tb84 2.308 1_545 S
O132 C147 1.266 1_655 S
O133 Tb95 2.393 . S
O133 C147 1.248 . S
O134 Tb95 2.465 . S
O134 C159 1.264 . S
O135 Tb95 2.387 . S
O135 C151 1.264 . S
O136 Tb84 2.349 1_445 S
O136 C151 1.243 . S
O137 Tb95 2.428 . S
O137 C159 1.256 . S
O138 Tb95 2.308 . S
O138 C158 1.266 . S
O139 Tb84 2.393 1_545 S
O139 C158 1.248 1_655 S
C140 O129 1.264 . S
C140 O130 1.243 . S
C141 C144 1.399 . S
C141 C146 1.383 . S
C141 C148 1.496 . S
C142 C143 1.399 . S
C142 C146 1.389 . S
C143 C142 1.399 . S
C143 C145 1.380 . S
C143 H160 0.929 . S
C144 C141 1.399 . S
C144 C145 1.392 . S
C144 H161 0.929 . S
C145 C143 1.380 . S
C145 C144 1.392 . S
C145 H162 0.929 . S
C146 C141 1.383 . S
C146 C142 1.389 . S
C146 H163 0.931 . S
C147 O132 1.266 1_455 S
C147 O133 1.248 . S
C148 Tb84 2.802 1_455 S
C148 O128 1.264 . S
C148 O131 1.256 . S
C148 C141 1.496 . S
C149 C116 1.448 . S
C149 H126 0.930 . S
C149 C150 1.328 . S
C150 C121 1.427 . S
C150 H127 0.929 . S
C150 C149 1.328 . S
C151 O135 1.264 . S
C151 O136 1.243 . S
C152 C155 1.399 . S
C152 C156 1.383 . S
C152 C159 1.496 1_655 S
C153 C154 1.399 . S
C153 C156 1.389 . S
C154 C153 1.399 . S
C154 C157 1.380 . S
C154 H164 0.929 . S
C155 C152 1.399 . S
C155 C157 1.392 . S
C155 H165 0.929 1_655 S
C156 C152 1.383 . S
C156 C153 1.389 . S
C156 H166 0.931 . S
C157 C154 1.380 . S
C157 C155 1.392 . S
C157 H167 0.929 . S
C158 O138 1.266 . S
C158 O139 1.248 1_455 S
C159 Tb95 2.802 . S
C159 O134 1.264 . S
C159 O137 1.256 . S
C159 C152 1.496 1_455 S
H160 C143 0.929 . S
H161 C144 0.929 . S
H162 C145 0.929 . S
H163 C146 0.931 . S
H164 C154 0.929 . S
H165 C155 0.929 1_455 S
H166 C156 0.931 . S
H167 C157 0.929 . S
Tb168 N197 2.617 . S
Tb168 N203 2.572 . S
Tb168 O212 2.465 . S
Tb168 O213 2.387 1_455 S
Tb168 O215 2.428 . S
Tb168 O216 2.308 . S
Tb168 O220 2.349 . S
Tb168 O223 2.393 . S
Tb168 C232 2.802 . S
C169 N170 1.379 . S
C169 C172 1.416 . S
C169 C176 1.424 . S
N170 C169 1.379 . S
N170 C173 1.334 . S
N170 Tb179 2.617 . S
C171 C173 1.390 . S
C171 C174 1.339 . S
C171 H191 0.930 . S
C172 C169 1.416 . S
C172 C174 1.416 . S
C172 C178 1.448 . S
C173 N170 1.334 . S
C173 C171 1.390 . S
C173 H184 0.930 . S
C174 C171 1.339 . S
C174 C172 1.416 . S
C174 H195 0.930 . S
C175 C176 1.413 . S
C175 C177 1.427 . S
C175 C181 1.416 . S
C176 C169 1.424 . S
C176 C175 1.413 . S
C176 N180 1.361 . S
C177 C175 1.427 . S
C177 C178 1.328 . S
C177 H192 0.929 . S
C178 C172 1.448 . S
C178 C177 1.328 . S
C178 H193 0.930 . S
Tb179 N170 2.617 . S
Tb179 N180 2.572 . S
Tb179 O214 2.349 1_455 S
Tb179 O217 2.393 . S
Tb179 O218 2.465 1_455 S
Tb179 O219 2.387 . S
Tb179 O221 2.428 1_455 S
Tb179 O222 2.308 . S
Tb179 C243 2.802 1_455 S
N180 C176 1.361 . S
N180 Tb179 2.572 . S
N180 C182 1.340 . S
C181 C175 1.416 . S
C181 C183 1.332 . S
C181 H189 0.931 . S
C182 N180 1.340 . S
C182 C183 1.407 . S
C182 H188 0.930 . S
C183 C181 1.332 . S
C183 C182 1.407 . S
C183 H185 0.929 . S
H184 C173 0.930 . S
H185 C183 0.929 . S
H186 C201 0.930 . S
H187 C208 0.929 . S
H188 C182 0.930 . S
H189 C181 0.931 . S
H190 C204 0.930 . S
H191 C171 0.930 . S
H192 C177 0.929 . S
H193 C178 0.930 . S
H194 C199 0.930 . S
H195 C174 0.930 . S
H196 C207 0.931 . S
N197 Tb168 2.617 . S
N197 C198 1.379 . S
N197 C201 1.334 . S
C198 N197 1.379 . S
C198 C200 1.416 1_455 S
C198 C206 1.424 1_455 S
C199 H194 0.930 . S
C199 C201 1.390 . S
C199 C202 1.339 1_455 S
C200 C198 1.416 1_655 S
C200 C202 1.416 . S
C200 C233 1.448 . S
C201 H186 0.930 . S
C201 N197 1.334 . S
C201 C199 1.390 . S
C202 C199 1.339 1_655 S
C202 C200 1.416 . S
C202 H209 0.930 . S
N203 Tb168 2.572 . S
N203 C204 1.340 . S
N203 C206 1.361 1_455 S
C204 H190 0.930 . S
C204 N203 1.340 . S
C204 C208 1.407 1_455 S
C205 C206 1.413 . S
C205 C207 1.416 . S
C205 C234 1.427 . S
C206 C198 1.424 1_655 S
C206 N203 1.361 1_655 S
C206 C205 1.413 . S
C207 H196 0.931 . S
C207 C205 1.416 . S
C207 C208 1.332 . S
C208 H187 0.929 . S
C208 C204 1.407 1_655 S
C208 C207 1.332 . S
H209 C202 0.930 . S
H210 C233 0.930 . S
H211 C234 0.929 . S
O212 Tb168 2.465 . S
O212 C232 1.264 . S
O213 Tb168 2.387 1_655 S
O213 C224 1.264 . S
O214 Tb179 2.349 1_655 S
O214 C224 1.243 1_565 S
O215 Tb168 2.428 . S
O215 C232 1.256 . S
O216 Tb168 2.308 . S
O216 C231 1.266 . S
O217 Tb179 2.393 . S
O217 C231 1.248 1_565 S
O218 Tb179 2.465 1_655 S
O218 C243 1.264 . S
O219 Tb179 2.387 . S
O219 C235 1.264 1_565 S
O220 Tb168 2.349 . S
O220 C235 1.243 . S
O221 Tb179 2.428 1_655 S
O221 C243 1.256 . S
O222 Tb179 2.308 . S
O222 C242 1.266 1_565 S
O223 Tb168 2.393 . S
O223 C242 1.248 . S
C224 O213 1.264 . S
C224 O214 1.243 1_545 S
C225 C228 1.399 . S
C225 C230 1.383 . S
C225 C232 1.496 . S
C226 C227 1.399 . S
C226 C230 1.389 . S
C227 C226 1.399 . S
C227 C229 1.380 . S
C227 H244 0.929 . S
C228 C225 1.399 . S
C228 C229 1.392 . S
C228 H245 0.929 . S
C229 C227 1.380 . S
C229 C228 1.392 . S
C229 H246 0.929 . S
C230 C225 1.383 . S
C230 C226 1.389 . S
C230 H247 0.931 . S
C231 O216 1.266 . S
C231 O217 1.248 1_545 S
C232 Tb168 2.802 . S
C232 O212 1.264 . S
C232 O215 1.256 . S
C232 C225 1.496 . S
C233 C200 1.448 . S
C233 H210 0.930 . S
C233 C234 1.328 . S
C234 C205 1.427 . S
C234 H211 0.929 . S
C234 C233 1.328 . S
C235 O219 1.264 1_545 S
C235 O220 1.243 . S
C236 C239 1.399 . S
C236 C240 1.383 . S
C236 C243 1.496 . S
C237 C238 1.399 . S
C237 C240 1.389 . S
C238 C237 1.399 . S
C238 C241 1.380 . S
C238 H248 0.929 . S
C239 C236 1.399 . S
C239 C241 1.392 . S
C239 H249 0.929 . S
C240 C236 1.383 . S
C240 C237 1.389 . S
C240 H250 0.931 . S
C241 C238 1.380 . S
C241 C239 1.392 . S
C241 H251 0.929 . S
C242 O222 1.266 1_545 S
C242 O223 1.248 . S
C243 Tb179 2.802 1_655 S
C243 O218 1.264 . S
C243 O221 1.256 . S
C243 C236 1.496 . S
H244 C227 0.929 . S
H245 C228 0.929 . S
H246 C229 0.929 . S
H247 C230 0.931 . S
H248 C238 0.929 . S
H249 C239 0.929 . S
H250 C240 0.931 . S
H251 C241 0.929 . S
C252 C253 1.363 1_556 S
C252 C258 1.379 1_655 S
C252 N260 1.356 . S
C253 C252 1.363 1_554 S
C253 C259 1.363 . S
C254 C255 1.363 . S
C254 C259 1.379 1_455 S
C254 N261 1.356 . S
C255 C254 1.363 . S
C255 C258 1.363 1_554 S
N256 C258 1.356 . S
N256 H268 0.984 . S
N256 H269 0.985 . S
N257 C259 1.356 . S
N257 H262 0.984 . S
N257 H263 0.985 . S
C258 C252 1.379 1_455 S
C258 C255 1.363 1_556 S
C258 N256 1.356 . S
C259 C253 1.363 . S
C259 C254 1.379 1_655 S
C259 N257 1.356 . S
N260 C252 1.356 . S
N260 H266 0.984 . S
N260 H267 0.984 . S
N261 C254 1.356 . S
N261 H264 0.984 . S
N261 H265 0.985 . S
H262 N257 0.984 . S
H263 N257 0.985 . S
H264 N261 0.984 . S
H265 N261 0.985 . S
H266 N260 0.984 . S
H267 N260 0.984 . S
H268 N256 0.984 . S
H269 N256 0.985 . S
C270 C271 1.363 . S
C270 C276 1.379 . S
C270 N278 1.356 . S
C271 C270 1.363 . S
C271 C277 1.363 . S
C272 C273 1.363 . S
C272 C277 1.379 . S
C272 N279 1.356 . S
C273 C272 1.363 . S
C273 C276 1.363 . S
N274 C276 1.356 . S
N274 H286 0.984 . S
N274 H287 0.985 . S
N275 C277 1.356 . S
N275 H280 0.984 . S
N275 H281 0.985 . S
C276 C270 1.379 . S
C276 C273 1.363 . S
C276 N274 1.356 . S
C277 C271 1.363 . S
C277 C272 1.379 . S
C277 N275 1.356 . S
N278 C270 1.356 . S
N278 H284 0.984 . S
N278 H285 0.984 . S
N279 C272 1.356 . S
N279 H282 0.984 . S
N279 H283 0.985 . S
H280 N275 0.984 . S
H281 N275 0.985 . S
H282 N279 0.984 . S
H283 N279 0.985 . S
H284 N278 0.984 . S
H285 N278 0.984 . S
H286 N274 0.984 . S
H287 N274 0.985 . S
C288 C289 1.363 . S
C288 C294 1.379 . S
C288 N296 1.356 . S
C289 C288 1.363 . S
C289 C295 1.363 . S
C290 C291 1.363 . S
C290 C295 1.379 . S
C290 N297 1.356 . S
C291 C290 1.363 . S
C291 C294 1.363 . S
N292 C294 1.356 . S
N292 H304 0.984 . S
N292 H305 0.985 . S
N293 C295 1.356 . S
N293 H298 0.984 . S
N293 H299 0.985 . S
C294 C288 1.379 . S
C294 C291 1.363 . S
C294 N292 1.356 . S
C295 C289 1.363 . S
C295 C290 1.379 . S
C295 N293 1.356 . S
N296 C288 1.356 . S
N296 H302 0.984 . S
N296 H303 0.984 . S
N297 C290 1.356 . S
N297 H300 0.984 . S
N297 H301 0.985 . S
H298 N293 0.984 . S
H299 N293 0.985 . S
H300 N297 0.984 . S
H301 N297 0.985 . S
H302 N296 0.984 . S
H303 N296 0.984 . S
H304 N292 0.984 . S
H305 N292 0.985 . S
C306 C307 1.363 . S
C306 C312 1.379 . S
C306 N314 1.356 . S
C307 C306 1.363 . S
C307 C313 1.363 1_545 S
C308 C309 1.363 1_565 S
C308 C313 1.379 . S
C308 N315 1.356 . S
C309 C308 1.363 1_545 S
C309 C312 1.363 . S
N310 C312 1.356 . S
N310 H322 0.984 . S
N310 H323 0.985 . S
N311 C313 1.356 . S
N311 H316 0.984 . S
N311 H317 0.985 . S
C312 C306 1.379 . S
C312 C309 1.363 . S
C312 N310 1.356 . S
C313 C307 1.363 1_565 S
C313 C308 1.379 . S
C313 N311 1.356 . S
N314 C306 1.356 . S
N314 H320 0.984 . S
N314 H321 0.984 . S
N315 C308 1.356 . S
N315 H318 0.984 . S
N315 H319 0.985 . S
H316 N311 0.984 . S
H317 N311 0.985 . S
H318 N315 0.984 . S
H319 N315 0.985 . S
H320 N314 0.984 . S
H321 N314 0.984 . S
H322 N310 0.984 . S
H323 N310 0.985 . S
C324 C325 1.363 1_556 S
C324 C330 1.379 . S
C324 N332 1.356 . S
C325 C324 1.363 1_554 S
C325 C331 1.363 . S
C326 C327 1.363 . S
C326 C331 1.379 . S
C326 N333 1.356 . S
C327 C326 1.363 . S
C327 C330 1.363 1_554 S
N328 C330 1.356 . S
N328 H340 0.984 . S
N328 H341 0.985 . S
N329 C331 1.356 . S
N329 H334 0.984 . S
N329 H335 0.985 . S
C330 C324 1.379 . S
C330 C327 1.363 1_556 S
C330 N328 1.356 . S
C331 C325 1.363 . S
C331 C326 1.379 . S
C331 N329 1.356 . S
N332 C324 1.356 . S
N332 H338 0.984 . S
N332 H339 0.984 . S
N333 C326 1.356 . S
N333 H336 0.984 . S
N333 H337 0.985 . S
H334 N329 0.984 . S
H335 N329 0.985 . S
H336 N333 0.984 . S
H337 N333 0.985 . S
H338 N332 0.984 . S
H339 N332 0.984 . S
H340 N328 0.984 . S
H341 N328 0.985 . S
C342 C343 1.363 . S
C342 C348 1.379 1_655 S
C342 N350 1.356 . S
C343 C342 1.363 . S
C343 C349 1.363 . S
C344 C345 1.363 . S
C344 C349 1.379 1_455 S
C344 N351 1.356 . S
C345 C344 1.363 . S
C345 C348 1.363 . S
N346 C348 1.356 . S
N346 H358 0.984 . S
N346 H359 0.985 . S
N347 C349 1.356 . S
N347 H352 0.984 . S
N347 H353 0.985 . S
C348 C342 1.379 1_455 S
C348 C345 1.363 . S
C348 N346 1.356 . S
C349 C343 1.363 . S
C349 C344 1.379 1_655 S
C349 N347 1.356 . S
N350 C342 1.356 . S
N350 H356 0.984 . S
N350 H357 0.984 . S
N351 C344 1.356 . S
N351 H354 0.984 . S
N351 H355 0.985 . S
H352 N347 0.984 . S
H353 N347 0.985 . S
H354 N351 0.984 . S
H355 N351 0.985 . S
H356 N350 0.984 . S
H357 N350 0.984 . S
H358 N346 0.984 . S
H359 N346 0.985 . S
C360 C361 1.363 1_455 S
C360 C366 1.379 . S
C360 N368 1.356 . S
C361 C360 1.363 1_655 S
C361 C367 1.363 . S
C362 C363 1.363 . S
C362 C367 1.379 . S
C362 N369 1.356 . S
C363 C362 1.363 . S
C363 C366 1.363 1_655 S
N364 C366 1.356 . S
N364 H376 0.984 1_545 S
N364 H377 0.985 . S
N365 C367 1.356 . S
N365 H370 0.984 . S
N365 H371 0.985 . S
C366 C360 1.379 . S
C366 C363 1.363 1_455 S
C366 N364 1.356 . S
C367 C361 1.363 . S
C367 C362 1.379 . S
C367 N365 1.356 . S
N368 C360 1.356 . S
N368 H374 0.975 1_545 S
N368 H375 0.984 . S
N369 C362 1.356 . S
N369 H372 0.984 . S
N369 H373 0.985 . S
H370 N365 0.984 . S
H371 N365 0.985 . S
H372 N369 0.984 . S
H373 N369 0.985 . S
H374 N368 0.975 1_565 S
H375 N368 0.984 . S
H376 N364 0.984 1_565 S
H377 N364 0.985 . S
C378 C379 1.363 . S
C378 C384 1.379 . S
C378 N386 1.356 . S
C379 C378 1.363 . S
C379 C385 1.363 1_455 S
C380 C381 1.363 1_655 S
C380 C385 1.379 . S
C380 N387 1.356 1_545 S
C381 C380 1.363 1_455 S
C381 C384 1.363 . S
N382 C384 1.356 . S
N382 H394 0.984 . S
N382 H395 0.985 . S
N383 C385 1.356 . S
N383 H388 0.984 . S
N383 H389 0.985 1_545 S
C384 C378 1.379 . S
C384 C381 1.363 . S
C384 N382 1.356 . S
C385 C379 1.363 1_655 S
C385 C380 1.379 . S
C385 N383 1.356 . S
N386 C378 1.356 . S
N386 H392 0.984 . S
N386 H393 0.984 . S
N387 C380 1.356 1_565 S
N387 H390 0.984 . S
N387 H391 0.985 . S
H388 N383 0.984 . S
H389 N383 0.985 1_565 S
H390 N387 0.984 . S
H391 N387 0.985 . S
H392 N386 0.984 . S
H393 N386 0.984 . S
H394 N382 0.984 . S
H395 N382 0.985 . S
C396 C397 1.363 . S
C396 C402 1.379 . S
C396 N404 1.356 . S
C397 C396 1.363 . S
C397 C403 1.363 1_545 S
C398 C399 1.363 1_565 S
C398 C403 1.379 . S
C398 N405 1.357 1_455 S
C399 C398 1.363 1_545 S
C399 C402 1.363 . S
N400 C402 1.356 . S
N400 H412 0.984 . S
N400 H413 0.985 . S
N401 C403 1.356 1_655 S
N401 H406 0.984 1_655 S
N401 H407 0.985 . S
C402 C396 1.379 . S
C402 C399 1.363 . S
C402 N400 1.356 . S
C403 C397 1.363 1_565 S
C403 C398 1.379 . S
C403 N401 1.356 1_455 S
N404 C396 1.356 . S
N404 H410 0.984 . S
N404 H411 0.984 . S
N405 C398 1.357 1_655 S
N405 H408 0.984 . S
N405 H409 0.985 . S
H406 N401 0.984 1_455 S
H407 N401 0.985 . S
H408 N405 0.984 . S
H409 N405 0.985 . S
H410 N404 0.984 . S
H411 N404 0.984 . S
H412 N400 0.984 . S
H413 N400 0.985 . S
C253 C56 4.391 . S
C255 C67 4.391 . S
C271 C151 2.702 . S
C273 C140 2.702 . S
C289 C237 0.680 . S
C291 C226 0.680 . S
C307 C224 2.641 . S
C309 C235 2.641 . S
C325 C58 1.019 . S
C327 C69 1.019 . S
C343 C153 0.800 . S
C345 C142 0.800 . S
C361 C158 1.520 1_655 S
C363 C63 1.527 . S
C379 C147 1.625 . S
C381 C231 1.589 . S
C397 C242 1.572 . S
C399 C74 1.588 . S
