# Generated by pormake.
# Topology fnl, (5)-cn, num edge types: 1
# Building blocks:
#     Node 0, Type 0, BuildingBlock: XOMCOT_clean_sbu_1, # of connection points: 5
#     Node 1, Type 0, BuildingBlock: XOMCOT_clean_sbu_1, # of connection points: 5
#     Node 2, Type 0, BuildingBlock: XOMCOT_clean_sbu_1, # of connection points: 5
#     Node 3, Type 0, BuildingBlock: XOMCOT_clean_sbu_1, # of connection points: 5
#     Node 4, Type 0, BuildingBlock: XOMCOT_clean_sbu_1, # of connection points: 5
#     Node 5, Type 0, BuildingBlock: XOMCOT_clean_sbu_1, # of connection points: 5
#     Node 6, Type 0, BuildingBlock: XOMCOT_clean_sbu_1, # of connection points: 5
#     Node 7, Type 0, BuildingBlock: XOMCOT_clean_sbu_1, # of connection points: 5
#     Node 8, Type 0, BuildingBlock: XOMCOT_clean_sbu_1, # of connection points: 5
#     Node 9, Type 0, BuildingBlock: XOMCOT_clean_sbu_1, # of connection points: 5
#     Node 10, Type 0, BuildingBlock: XOMCOT_clean_sbu_1, # of connection points: 5
#     Node 11, Type 0, BuildingBlock: XOMCOT_clean_sbu_1, # of connection points: 5
#     Node 12, Type 0, BuildingBlock: XOMCOT_clean_sbu_1, # of connection points: 5
#     Node 13, Type 0, BuildingBlock: XOMCOT_clean_sbu_1, # of connection points: 5
#     Node 14, Type 0, BuildingBlock: XOMCOT_clean_sbu_1, # of connection points: 5
#     Node 15, Type 0, BuildingBlock: XOMCOT_clean_sbu_1, # of connection points: 5
#     Edge 16, Type (0, 0), BuildingBlock: UVAHIK_clean_linker_0, # of connection points: 2
#     Edge 17, Type (0, 0), BuildingBlock: UVAHIK_clean_linker_0, # of connection points: 2
#     Edge 18, Type (0, 0), BuildingBlock: UVAHIK_clean_linker_0, # of connection points: 2
#     Edge 19, Type (0, 0), BuildingBlock: UVAHIK_clean_linker_0, # of connection points: 2
#     Edge 20, Type (0, 0), BuildingBlock: UVAHIK_clean_linker_0, # of connection points: 2
#     Edge 21, Type (0, 0), BuildingBlock: UVAHIK_clean_linker_0, # of connection points: 2
#     Edge 22, Type (0, 0), BuildingBlock: UVAHIK_clean_linker_0, # of connection points: 2
#     Edge 23, Type (0, 0), BuildingBlock: UVAHIK_clean_linker_0, # of connection points: 2
#     Edge 24, Type (0, 0), BuildingBlock: UVAHIK_clean_linker_0, # of connection points: 2
#     Edge 25, Type (0, 0), BuildingBlock: UVAHIK_clean_linker_0, # of connection points: 2
#     Edge 26, Type (0, 0), BuildingBlock: UVAHIK_clean_linker_0, # of connection points: 2
#     Edge 27, Type (0, 0), BuildingBlock: UVAHIK_clean_linker_0, # of connection points: 2
#     Edge 28, Type (0, 0), BuildingBlock: UVAHIK_clean_linker_0, # of connection points: 2
#     Edge 29, Type (0, 0), BuildingBlock: UVAHIK_clean_linker_0, # of connection points: 2
#     Edge 30, Type (0, 0), BuildingBlock: UVAHIK_clean_linker_0, # of connection points: 2
#     Edge 31, Type (0, 0), BuildingBlock: UVAHIK_clean_linker_0, # of connection points: 2
#     Edge 32, Type (0, 0), BuildingBlock: UVAHIK_clean_linker_0, # of connection points: 2
#     Edge 33, Type (0, 0), BuildingBlock: UVAHIK_clean_linker_0, # of connection points: 2
#     Edge 34, Type (0, 0), BuildingBlock: UVAHIK_clean_linker_0, # of connection points: 2
#     Edge 35, Type (0, 0), BuildingBlock: UVAHIK_clean_linker_0, # of connection points: 2
#     Edge 36, Type (0, 0), BuildingBlock: UVAHIK_clean_linker_0, # of connection points: 2
#     Edge 37, Type (0, 0), BuildingBlock: UVAHIK_clean_linker_0, # of connection points: 2
#     Edge 38, Type (0, 0), BuildingBlock: UVAHIK_clean_linker_0, # of connection points: 2
#     Edge 39, Type (0, 0), BuildingBlock: UVAHIK_clean_linker_0, # of connection points: 2
#     Edge 40, Type (0, 0), BuildingBlock: UVAHIK_clean_linker_0, # of connection points: 2
#     Edge 41, Type (0, 0), BuildingBlock: UVAHIK_clean_linker_0, # of connection points: 2
#     Edge 42, Type (0, 0), BuildingBlock: UVAHIK_clean_linker_0, # of connection points: 2
#     Edge 43, Type (0, 0), BuildingBlock: UVAHIK_clean_linker_0, # of connection points: 2
#     Edge 44, Type (0, 0), BuildingBlock: UVAHIK_clean_linker_0, # of connection points: 2
#     Edge 45, Type (0, 0), BuildingBlock: UVAHIK_clean_linker_0, # of connection points: 2
#     Edge 46, Type (0, 0), BuildingBlock: UVAHIK_clean_linker_0, # of connection points: 2
#     Edge 47, Type (0, 0), BuildingBlock: UVAHIK_clean_linker_0, # of connection points: 2
#     Edge 48, Type (0, 0), BuildingBlock: UVAHIK_clean_linker_0, # of connection points: 2
#     Edge 49, Type (0, 0), BuildingBlock: UVAHIK_clean_linker_0, # of connection points: 2
#     Edge 50, Type (0, 0), BuildingBlock: UVAHIK_clean_linker_0, # of connection points: 2
#     Edge 51, Type (0, 0), BuildingBlock: UVAHIK_clean_linker_0, # of connection points: 2
#     Edge 52, Type (0, 0), BuildingBlock: UVAHIK_clean_linker_0, # of connection points: 2
#     Edge 53, Type (0, 0), BuildingBlock: UVAHIK_clean_linker_0, # of connection points: 2
#     Edge 54, Type (0, 0), BuildingBlock: UVAHIK_clean_linker_0, # of connection points: 2
#     Edge 55, Type (0, 0), BuildingBlock: UVAHIK_clean_linker_0, # of connection points: 2
# Relax obj value: 0.490
# Max RMSD: 0.265
# Mean RMSD: 0.265
data_MOF--net-fnl--node1-XOMCOT_clean_sbu_1--edge1-UVAHIK_clean_linker_0
_symmetry_space_group_name_H-M    P1
_symmetry_Int_Tables_number       1
_symmetry_cell_setting            triclinic
loop_
_symmetry_equiv_pos_as_xyz
'x, y, z'
_cell_length_a     42.592546
_cell_length_b     42.499654
_cell_length_c     123.57523
_cell_angle_alpha  90.03757
_cell_angle_beta   89.961131
_cell_angle_gamma 89.990673
loop_
_atom_site_label
_atom_site_type_symbol
_atom_site_fract_x
_atom_site_fract_y
_atom_site_fract_z
_atom_type_partial_charge
C0 C 0.00607 0.04705 0.06121 0.0
C1 C 0.99557 0.01678 0.05971 0.0
N2 N 0.01394 -0.00261 0.06555 0.0
N3 N 0.03072 0.04673 0.06804 0.0
C4 C 0.03521 0.01607 0.07048 0.0
H5 H 0.99584 0.06816 0.05783 0.0
Co6 Co 0.04893 0.08323 0.07319 0.0
C7 C 0.08573 0.06618 0.09252 0.0
O8 O 0.07548 0.09197 0.09722 0.0
N9 N 0.06738 0.12118 0.07808 0.0
C10 C 0.103 0.15837 0.08153 0.0
C11 C 0.09851 0.12752 0.07848 0.0
C12 C 0.05362 0.14871 0.08081 0.0
N13 N 0.07462 0.1715 0.08304 0.0
O14 O 0.07977 0.08041 0.062 0.0
H15 H 0.11682 0.11087 0.07648 0.0
H16 H 0.02875 0.15297 0.08063 0.0
O17 O 0.07647 0.05921 0.08295 0.0
C18 C 0.07835 0.10112 0.05458 0.0
O19 O 0.05756 0.12386 0.05538 0.0
N20 N 0.01638 0.08572 0.08345 0.0
C21 C 0.96204 0.08884 0.09608 0.0
C22 C 0.98566 0.06676 0.09835 0.0
C23 C 0.01228 0.06514 0.09182 0.0
C24 C 0.99254 0.10545 0.0806 0.0
C25 C 0.9656 0.10814 0.08697 0.0
H26 H 0.02859 0.04622 0.09324 0.0
H27 H 0.9943 0.11897 0.07321 0.0
H28 H 0.0527 0.00764 0.07611 0.0
H29 H 0.97579 0.00957 0.0548 0.0
H30 H 0.12531 0.1703 0.0824 0.0
H31 H 0.98305 0.04985 0.10484 0.0
H32 H 0.94765 0.12489 0.08468 0.0
C33 C 0.30633 0.78586 0.30621 0.0
C34 C 0.33747 0.78312 0.30339 0.0
N35 N 0.35303 0.80811 0.30744 0.0
N36 N 0.30241 0.81225 0.3121 0.0
C37 C 0.33116 0.82547 0.31264 0.0
H38 H 0.28768 0.76971 0.30412 0.0
Co39 Co 0.2647 0.82636 0.31764 0.0
C40 C 0.27925 0.8576 0.3382 0.0
O41 O 0.25504 0.84288 0.34244 0.0
N42 N 0.22585 0.84149 0.32295 0.0
C43 C 0.18852 0.87587 0.32741 0.0
C44 C 0.21887 0.87241 0.32387 0.0
C45 C 0.19911 0.82673 0.32594 0.0
N46 N 0.17605 0.84702 0.32871 0.0
O47 O 0.26552 0.85966 0.30734 0.0
H48 H 0.23485 0.89141 0.32199 0.0
H49 H 0.19624 0.80165 0.32612 0.0
O50 O 0.28644 0.85298 0.32826 0.0
C51 C 0.24749 0.85474 0.29931 0.0
O52 O 0.22896 0.83001 0.29956 0.0
N53 N 0.26444 0.79125 0.32695 0.0
C54 C 0.26731 0.73344 0.33749 0.0
C55 C 0.28884 0.7572 0.33996 0.0
C56 C 0.2874 0.78577 0.33446 0.0
C57 C 0.24482 0.7674 0.32395 0.0
C58 C 0.24507 0.73859 0.32938 0.0
H59 H 0.30587 0.80265 0.33585 0.0
H60 H 0.22954 0.77042 0.31704 0.0
H61 H 0.33605 0.84722 0.31686 0.0
H62 H 0.34775 0.76441 0.29862 0.0
H63 H 0.17643 0.89798 0.32861 0.0
H64 H 0.30726 0.75333 0.34586 0.0
H65 H 0.22912 0.72006 0.32694 0.0
C66 C 0.50141 0.11638 0.54769 0.0
C67 C 0.50527 0.14731 0.54466 0.0
N68 N 0.49345 0.16575 0.55256 0.0
N69 N 0.4874 0.11538 0.55745 0.0
C70 C 0.4826 0.14577 0.56018 0.0
H71 H 0.50886 0.09587 0.54318 0.0
Co72 Co 0.47978 0.0788 0.56508 0.0
C73 C 0.46045 0.09828 0.58698 0.0
O74 O 0.47928 0.0766 0.59091 0.0
N75 N 0.47143 0.04102 0.57261 0.0
C76 C 0.44513 0.00391 0.58155 0.0
C77 C 0.44333 0.03327 0.57695 0.0
C78 C 0.48958 0.0155 0.57444 0.0
N79 N 0.47436 0.99276 0.57997 0.0
O80 O 0.4408 0.0749 0.55756 0.0
H81 H 0.42271 0.04812 0.57679 0.0
H82 H 0.51311 0.01279 0.57143 0.0
O83 O 0.45865 0.10229 0.57672 0.0
C84 C 0.4378 0.05233 0.55087 0.0
O85 O 0.45955 0.03042 0.55049 0.0
N86 N 0.51974 0.0832 0.57147 0.0
C87 C 0.58228 0.09193 0.5774 0.0
C88 C 0.55892 0.11227 0.5812 0.0
C89 C 0.52793 0.10789 0.57798 0.0
C90 C 0.54263 0.06458 0.56712 0.0
C91 C 0.57398 0.06777 0.57027 0.0
H92 H 0.51102 0.12543 0.58037 0.0
H93 H 0.53667 0.04782 0.56087 0.0
H94 H 0.47251 0.15321 0.56779 0.0
H95 H 0.51607 0.15555 0.53726 0.0
H96 H 0.42631 0.99183 0.58571 0.0
H97 H 0.56469 0.13185 0.58646 0.0
H98 H 0.5917 0.05246 0.56682 0.0
C99 C 0.23423 0.37456 0.81389 0.0
C100 C 0.20498 0.38103 0.80971 0.0
N101 N 0.18575 0.35684 0.81215 0.0
N102 N 0.23334 0.34652 0.81895 0.0
C103 C 0.20363 0.33626 0.81773 0.0
H104 H 0.25484 0.38932 0.81332 0.0
Co105 Co 0.26674 0.32757 0.82588 0.0
C106 C 0.23969 0.26865 0.83374 0.0
O107 O 0.2619 0.25289 0.82871 0.0
N108 N 0.30052 0.30915 0.8328 0.0
C109 C 0.33296 0.28903 0.84503 0.0
C110 C 0.30275 0.29903 0.84313 0.0
C111 C 0.32945 0.30546 0.82865 0.0
N112 N 0.3497 0.29326 0.8359 0.0
O113 O 0.27079 0.29922 0.81398 0.0
H114 H 0.28387 0.2997 0.84898 0.0
H115 H 0.33569 0.31219 0.8205 0.0
O116 O 0.23884 0.29856 0.83311 0.0
C117 C 0.28546 0.30984 0.8058 0.0
O118 O 0.29748 0.33829 0.80632 0.0
N119 N 0.26343 0.35673 0.83704 0.0
C120 C 0.26028 0.40638 0.85166 0.0
C121 C 0.23844 0.38173 0.85212 0.0
C122 C 0.24016 0.35723 0.84464 0.0
C123 C 0.28527 0.3801 0.83661 0.0
C124 C 0.28405 0.40535 0.84383 0.0
H125 H 0.22215 0.33941 0.84481 0.0
H126 H 0.30321 0.37949 0.83041 0.0
H127 H 0.1951 0.31435 0.82105 0.0
H128 H 0.19853 0.40185 0.8052 0.0
H129 H 0.34218 0.28068 0.85267 0.0
H130 H 0.21929 0.38213 0.85789 0.0
H131 H 0.30118 0.4241 0.84319 0.0
C132 C 0.98558 0.10664 0.94258 0.0
C133 C 0.97735 0.1371 0.9451 0.0
N134 N -0.0013 0.15648 0.94061 0.0
N135 N 0.01169 0.10699 0.93643 0.0
C136 C 0.01941 0.13765 0.93548 0.0
H137 H 0.97279 0.0856 0.94478 0.0
Co138 Co 0.02942 0.07194 0.93001 0.0
C139 C 0.05507 0.09313 0.90924 0.0
O140 O 0.04196 0.06828 0.9048 0.0
N141 N 0.0482 0.03596 0.92377 0.0
C142 C 0.08577 0.0041 0.91756 0.0
C143 C 0.07926 0.03352 0.92158 0.0
C144 C 0.03656 0.00737 0.92116 0.0
N145 N 0.05877 0.98776 0.91727 0.0
O146 O 0.06393 0.07535 0.93974 0.0
H147 H 0.09625 0.05204 0.92291 0.0
H148 H 0.01267 0.00016 0.92247 0.0
O149 O 0.05179 0.09818 0.9194 0.0
C150 C 0.06462 0.05524 0.94736 0.0
O151 O 0.04357 0.03263 0.94743 0.0
N152 N 0.9933 0.06893 0.92118 0.0
C153 C 0.9347 0.06746 0.91119 0.0
C154 C 0.95549 0.09223 0.90922 0.0
C155 C 0.98438 0.09288 0.91446 0.0
C156 C 0.97222 0.04591 0.92377 0.0
C157 C 0.94311 0.04405 0.91856 0.0
H158 H -0.00128 0.1136 0.91349 0.0
H159 H 0.97733 0.02978 0.93028 0.0
H160 H 0.03899 0.14619 0.93073 0.0
H161 H 0.95704 0.14446 0.94972 0.0
H162 H 0.10858 0.99539 0.91512 0.0
H163 H 0.94905 0.11144 0.9039 0.0
H164 H 0.92681 0.02546 0.92066 0.0
C165 C 0.23047 0.77856 0.18826 0.0
C166 C 0.19862 0.77585 0.18973 0.0
N167 N 0.18415 0.79095 0.18154 0.0
N168 N 0.23605 0.79536 0.17923 0.0
C169 C 0.20742 0.80244 0.17526 0.0
H170 H 0.24851 0.76896 0.19345 0.0
Co171 Co 0.27578 0.80399 0.17415 0.0
C172 C 0.2698 0.85221 0.15654 0.0
O173 O 0.29663 0.84357 0.15224 0.0
N174 N 0.31692 0.8119 0.16938 0.0
C175 C 0.36455 0.80748 0.16216 0.0
C176 C 0.33624 0.79279 0.16368 0.0
C177 C 0.33439 0.83789 0.17133 0.0
N178 N 0.3633 0.83584 0.16697 0.0
O179 O 0.28067 0.83395 0.18552 0.0
H180 H 0.33066 0.76942 0.16088 0.0
H181 H 0.32602 0.85818 0.17576 0.0
O182 O 0.25901 0.83771 0.16484 0.0
C183 C 0.29622 0.82485 0.19372 0.0
O184 O 0.30901 0.7967 0.19354 0.0
N185 N 0.27041 0.77277 0.16366 0.0
C186 C 0.26436 0.72 0.15051 0.0
C187 C 0.25681 0.74997 0.14657 0.0
C188 C 0.25947 0.77607 0.15334 0.0
C189 C 0.27731 0.74369 0.16767 0.0
C190 C 0.27444 0.71689 0.16122 0.0
H191 H 0.25192 0.79839 0.15024 0.0
H192 H 0.28527 0.74144 0.17594 0.0
H193 H 0.20366 0.81527 0.16782 0.0
H194 H 0.18704 0.76426 0.19643 0.0
H195 H 0.38493 0.7975 0.1582 0.0
H196 H 0.2478 0.75305 0.13845 0.0
H197 H 0.28 0.69402 0.16458 0.0
C198 C 0.5226 0.0367 0.4441 0.0
C199 C 0.52727 0.00577 0.44696 0.0
N200 N 0.50864 0.98764 0.44072 0.0
N201 N 0.5012 0.038 0.4361 0.0
C202 C 0.493 0.00783 0.43424 0.0
H203 H 0.53415 0.05701 0.44756 0.0
Co204 Co 0.48747 0.07466 0.4297 0.0
C205 C 0.46132 0.05673 0.40844 0.0
O206 O 0.47552 0.08113 0.40411 0.0
N207 N 0.47297 0.11244 0.42347 0.0
C208 C 0.44052 0.14813 0.41646 0.0
C209 C 0.44275 0.11851 0.42084 0.0
C210 C 0.48839 0.13914 0.42088 0.0
N211 N 0.46938 0.161 0.41644 0.0
O212 O 0.45126 0.07347 0.43875 0.0
H213 H 0.42352 0.10218 0.42192 0.0
H214 H 0.51288 0.14318 0.42244 0.0
O215 O 0.46459 0.05097 0.41855 0.0
C216 C 0.45043 0.09317 0.4465 0.0
O217 O 0.47274 0.11443 0.44719 0.0
N218 N 0.52498 0.07541 0.42157 0.0
C219 C 0.5835 0.07784 0.4115 0.0
C220 C 0.56109 0.05556 0.40833 0.0
C221 C 0.53241 0.054 0.41372 0.0
C222 C 0.54765 0.09512 0.42544 0.0
C223 C 0.57697 0.09719 0.42039 0.0
H224 H 0.51677 0.03494 0.41172 0.0
H225 H 0.54289 0.10939 0.4325 0.0
H226 H 0.4756 0.00077 0.42836 0.0
H227 H 0.54353 -0.00268 0.45303 0.0
H228 H 0.41935 0.15913 0.41344 0.0
H229 H 0.5661 0.03881 0.40194 0.0
H230 H 0.59421 0.1138 0.42336 0.0
C231 C 0.30714 0.36071 0.6929 0.0
C232 C 0.3381 0.3624 0.69604 0.0
N233 N 0.35391 0.33913 0.69102 0.0
N234 N 0.30365 0.33652 0.68596 0.0
C235 C 0.33247 0.32376 0.68499 0.0
H236 H 0.28823 0.37576 0.69562 0.0
Co237 Co 0.26589 0.3232 0.68041 0.0
C238 C 0.27982 0.29029 0.66004 0.0
O239 O 0.25582 0.30522 0.65576 0.0
N240 N 0.22689 0.309 0.67523 0.0
C241 C 0.18848 0.27539 0.67121 0.0
C242 C 0.2196 0.27825 0.67388 0.0
C243 C 0.19956 0.32426 0.67347 0.0
N244 N 0.17602 0.30442 0.67095 0.0
O245 O 0.26542 0.29044 0.69093 0.0
H246 H 0.23578 0.25894 0.67508 0.0
H247 H 0.19602 0.34909 0.67467 0.0
O248 O 0.28711 0.29525 0.66996 0.0
C249 C 0.24739 0.2963 0.69889 0.0
O250 O 0.23009 0.3219 0.69858 0.0
N251 N 0.26688 0.35764 0.67077 0.0
C252 C 0.26986 0.41292 0.65859 0.0
C253 C 0.29121 0.38834 0.65681 0.0
C254 C 0.28988 0.36135 0.66316 0.0
C255 C 0.24781 0.3824 0.67326 0.0
C256 C 0.24828 0.40997 0.6671 0.0
H257 H 0.30825 0.34411 0.6622 0.0
H258 H 0.23284 0.38121 0.68031 0.0
H259 H 0.33753 0.30297 0.68024 0.0
H260 H 0.34819 0.37939 0.70156 0.0
H261 H 0.17583 0.25367 0.66983 0.0
H262 H 0.30973 0.39043 0.65084 0.0
H263 H 0.23223 0.42888 0.66908 0.0
C264 C 0.73083 0.26842 0.68361 0.0
C265 C 0.7018 0.2617 0.68792 0.0
N266 N 0.68309 0.28699 0.6865 0.0
N267 N 0.73034 0.29769 0.67946 0.0
C268 C 0.70111 0.30846 0.68137 0.0
H269 H 0.75109 0.25308 0.68353 0.0
Co270 Co 0.76391 0.31792 0.67311 0.0
C271 C 0.73516 0.37776 0.66664 0.0
O272 O 0.75435 0.3928 0.67316 0.0
N273 N 0.79792 0.33784 0.66682 0.0
C274 C 0.83102 0.36028 0.65529 0.0
C275 C 0.80031 0.3516 0.65701 0.0
C276 C 0.82722 0.33813 0.67085 0.0
N277 N 0.84788 0.35155 0.664 0.0
O278 O 0.76719 0.3442 0.68556 0.0
H279 H 0.78128 0.35387 0.65127 0.0
H280 H 0.83344 0.32771 0.67852 0.0
O281 O 0.73618 0.34781 0.66608 0.0
C282 C 0.78181 0.33258 0.69358 0.0
O283 O 0.79379 0.30419 0.69267 0.0
N284 N 0.76154 0.29073 0.66133 0.0
C285 C 0.76138 0.24763 0.64439 0.0
C286 C 0.7357 0.26774 0.64607 0.0
C287 C 0.73607 0.2889 0.65468 0.0
C288 C 0.78642 0.27093 0.65999 0.0
C289 C 0.78686 0.24913 0.65153 0.0
H290 H 0.7156 0.30326 0.65613 0.0
H291 H 0.806 0.27205 0.66555 0.0
H292 H 0.69313 0.33151 0.67892 0.0
H293 H 0.6952 0.24 0.69188 0.0
H294 H 0.84048 0.37056 0.64796 0.0
H295 H 0.71514 0.26656 0.64093 0.0
H296 H 0.80696 0.23378 0.65055 0.0
C297 C 0.81192 0.87649 0.1928 0.0
C298 C 0.84405 0.87706 0.19373 0.0
N299 N 0.85587 0.85261 0.18808 0.0
N300 N 0.80353 0.85191 0.18657 0.0
C301 C 0.83071 0.83766 0.18385 0.0
H302 H 0.79562 0.89319 0.19628 0.0
Co303 Co 0.76254 0.84321 0.18297 0.0
C304 C 0.76557 0.80516 0.16296 0.0
O305 O 0.74251 0.82215 0.15898 0.0
N306 N 0.72032 0.83441 0.17981 0.0
C307 C 0.67567 0.80761 0.17807 0.0
C308 C 0.7078 0.80536 0.17863 0.0
C309 C 0.69515 0.85369 0.18029 0.0
N310 N 0.66785 0.83812 0.17913 0.0
O311 O 0.76118 0.8122 0.19406 0.0
H312 H 0.72114 0.78371 0.17859 0.0
H313 H 0.69621 0.8783 0.18227 0.0
O314 O 0.77602 0.81107 0.17246 0.0
C315 C 0.74796 0.82231 0.20261 0.0
O316 O 0.73699 0.85122 0.20266 0.0
N317 N 0.76452 0.87577 0.17262 0.0
C318 C 0.76919 0.92865 0.15924 0.0
C319 C 0.78645 0.90124 0.15702 0.0
C320 C 0.78429 0.87538 0.16391 0.0
C321 C 0.75002 0.90316 0.17546 0.0
C322 C 0.75104 0.92948 0.16871 0.0
H323 H 0.79969 0.85569 0.16244 0.0
H324 H 0.73869 0.90514 0.18324 0.0
H325 H 0.83205 0.81673 0.17889 0.0
H326 H 0.85762 0.89461 0.19801 0.0
H327 H 0.65937 0.78824 0.17721 0.0
H328 H 0.80265 0.90011 0.15028 0.0
H329 H 0.73824 0.95039 0.17106 0.0
C330 C 0.81114 0.28009 0.80989 0.0
C331 C 0.84224 0.27916 0.80692 0.0
N332 N 0.85661 0.30446 0.81123 0.0
N333 N 0.8061 0.30579 0.81603 0.0
C334 C 0.8342 0.32023 0.81671 0.0
H335 H 0.79308 0.26364 0.80747 0.0
Co336 Co 0.76709 0.31889 0.82044 0.0
C337 C 0.77535 0.35637 0.84027 0.0
O338 O 0.75037 0.34225 0.84421 0.0
N339 N 0.72673 0.33254 0.82441 0.0
C340 C 0.6859 0.36467 0.82664 0.0
C341 C 0.71754 0.36302 0.8246 0.0
C342 C 0.7001 0.31618 0.82626 0.0
N343 N 0.67513 0.33512 0.82771 0.0
O344 O 0.76795 0.35012 0.80938 0.0
H345 H 0.73283 0.38286 0.82309 0.0
H346 H 0.6982 0.29094 0.82595 0.0
O347 O 0.78553 0.34888 0.83084 0.0
C348 C 0.75146 0.34252 0.80121 0.0
O349 O 0.73531 0.31618 0.80158 0.0
N350 N 0.76672 0.28588 0.83061 0.0
C351 C 0.76708 0.23181 0.84341 0.0
C352 C 0.7861 0.25764 0.84602 0.0
C353 C 0.78629 0.28405 0.83934 0.0
C354 C 0.75003 0.26003 0.8275 0.0
C355 C 0.7493 0.23295 0.83389 0.0
H356 H 0.80316 0.3023 0.84103 0.0
H357 H 0.7376 0.26023 0.81987 0.0
H358 H 0.83791 0.3426 0.8207 0.0
H359 H 0.85335 0.26147 0.80191 0.0
H360 H 0.67181 0.38583 0.82709 0.0
H361 H 0.80173 0.25694 0.85293 0.0
H362 H 0.7352 0.21307 0.83136 0.0
C363 C 0.73222 0.87714 0.31341 0.0
C364 C 0.70267 0.88275 0.30932 0.0
N365 N 0.68404 0.85837 0.31205 0.0
N366 N 0.73199 0.84959 0.31879 0.0
C367 C 0.70248 0.83855 0.31773 0.0
H368 H 0.7525 0.89228 0.31263 0.0
Co369 Co 0.76546 0.83154 0.326 0.0
C370 C 0.7385 0.80426 0.34577 0.0
O371 O 0.76141 0.81758 0.35124 0.0
N372 N 0.79983 0.81215 0.33297 0.0
C373 C 0.82995 0.77333 0.33926 0.0
C374 C 0.80055 0.78129 0.33567 0.0
C375 C 0.82957 0.82205 0.33468 0.0
N376 N 0.84818 0.79906 0.33862 0.0
O377 O 0.76487 0.79797 0.31581 0.0
H378 H 0.78118 0.7651 0.33466 0.0
H379 H 0.83845 0.8447 0.3323 0.0
O380 O 0.73679 0.80804 0.3355 0.0
C381 C 0.7856 0.80031 0.30844 0.0
O382 O 0.80622 0.82323 0.30913 0.0
N383 N 0.76597 0.86672 0.33542 0.0
C384 C 0.76463 0.92356 0.34668 0.0
C385 C 0.73889 0.9032 0.34697 0.0
C386 C 0.73977 0.87522 0.34113 0.0
C387 C 0.79025 0.88751 0.33444 0.0
C388 C 0.79061 0.91564 0.34032 0.0
H389 H 0.7187 0.86115 0.34084 0.0
H390 H 0.80848 0.88341 0.32856 0.0
H391 H 0.69447 0.81669 0.32126 0.0
H392 H 0.6955 0.90309 0.30467 0.0
H393 H 0.83757 0.75017 0.34177 0.0
H394 H 0.7179 0.90925 0.35147 0.0
H395 H 0.81016 0.93176 0.33948 0.0
C396 C 0.48368 0.55131 0.56178 0.0
C397 C 0.47574 0.52107 0.55898 0.0
N398 N 0.49918 0.50175 0.56209 0.0
N399 N 0.51187 0.5511 0.5667 0.0
C400 C 0.52086 0.52065 0.56674 0.0
H401 H 0.46982 0.57222 0.56035 0.0
Co402 Co 0.53167 0.58707 0.57152 0.0
C403 C 0.5704 0.56919 0.59017 0.0
O404 O 0.56063 0.595 0.59498 0.0
N405 N 0.55208 0.62435 0.57595 0.0
C406 C 0.59049 0.65868 0.57919 0.0
C407 C 0.58357 0.62845 0.57607 0.0
C408 C 0.5405 0.65287 0.57867 0.0
N409 N 0.56328 0.67405 0.58085 0.0
O410 O 0.56029 0.58395 0.55976 0.0
H411 H 0.60053 0.61047 0.57401 0.0
H412 H 0.51596 0.65869 0.57862 0.0
O413 O 0.56028 0.56224 0.5807 0.0
C414 C 0.55277 0.60153 0.55185 0.0
O415 O 0.52807 0.61984 0.55288 0.0
N416 N 0.50116 0.58999 0.58259 0.0
C417 C 0.44966 0.59205 0.59663 0.0
C418 C 0.47276 0.56875 0.59769 0.0
C419 C 0.49779 0.56764 0.59045 0.0
C420 C 0.47775 0.61138 0.58095 0.0
C421 C 0.4522 0.61341 0.58803 0.0
H422 H 0.51336 0.54769 0.59089 0.0
H423 H 0.4782 0.62617 0.57384 0.0
H424 H 0.54309 0.51259 0.56992 0.0
H425 H 0.45416 0.5139 0.55508 0.0
H426 H 0.61378 0.66847 0.5801 0.0
H427 H 0.47073 0.5504 0.60373 0.0
H428 H 0.43433 0.63105 0.58662 0.0
C429 C 0.98128 0.61592 0.05644 0.0
C430 C 0.98849 0.64711 0.05487 0.0
N431 N 0.97745 0.66353 0.06338 0.0
N432 N 0.96592 0.61272 0.0659 0.0
C433 C 0.96374 0.64219 0.06995 0.0
H434 H 0.9877 0.59658 0.05119 0.0
Co435 Co 0.95615 0.57386 0.07166 0.0
C436 C 0.92432 0.58591 0.09267 0.0
O437 O 0.93771 0.56087 0.09687 0.0
N438 N 0.9466 0.53354 0.0771 0.0
C439 C 0.92094 0.48973 0.08156 0.0
C440 C 0.91787 0.52107 0.07889 0.0
C441 C 0.96652 0.50924 0.07862 0.0
N442 N 0.95168 0.48235 0.08131 0.0
O443 O 0.92054 0.57172 0.06235 0.0
H444 H 0.896 0.53375 0.078 0.0
H445 H 0.9915 0.51077 0.07753 0.0
O446 O 0.93027 0.59369 0.08288 0.0
C447 C 0.92512 0.55362 0.05429 0.0
O448 O 0.9514 0.53743 0.05389 0.0
N449 N 0.99313 0.57609 0.07985 0.0
C450 C 0.05318 0.57704 0.08877 0.0
C451 C 0.02813 0.59228 0.09397 0.0
C452 C -0.00162 0.59218 0.08924 0.0
C453 C 0.01769 0.56316 0.07434 0.0
C454 C 0.04779 0.56276 0.07873 0.0
H455 H 0.98031 0.60608 0.093 0.0
H456 H 0.01362 0.5525 0.06651 0.0
H457 H 0.9537 0.64778 0.07777 0.0
H458 H 0.00118 0.65693 0.04808 0.0
H459 H 0.90193 0.47342 0.08309 0.0
H460 H 0.03172 0.60513 0.10144 0.0
H461 H 0.06657 0.5513 0.07433 0.0
C462 C 0.47554 0.60158 0.43938 0.0
C463 C 0.46884 0.63192 0.4425 0.0
N464 N 0.49019 0.65124 0.43795 0.0
N465 N 0.50083 0.60183 0.43283 0.0
C466 C 0.50937 0.63233 0.43216 0.0
H467 H 0.46286 0.5806 0.44171 0.0
Co468 Co 0.51855 0.56648 0.42668 0.0
C469 C 0.55033 0.58779 0.40682 0.0
O470 O 0.53869 0.5631 0.40181 0.0
N471 N 0.53715 0.53007 0.42081 0.0
C472 C 0.5741 0.49699 0.41504 0.0
C473 C 0.56828 0.52653 0.41906 0.0
C474 C 0.5248 0.50184 0.41816 0.0
N475 N 0.54663 0.48141 0.41447 0.0
O476 O 0.55097 0.56805 0.43724 0.0
H477 H 0.58576 0.54444 0.4206 0.0
H478 H 0.50056 0.4957 0.41934 0.0
O479 O 0.544 0.5924 0.41683 0.0
C480 C 0.54651 0.54906 0.44504 0.0
O481 O 0.5222 0.53004 0.44459 0.0
N482 N 0.48445 0.565 0.41694 0.0
C483 C 0.43058 0.56221 0.40418 0.0
C484 C 0.45253 0.58636 0.40275 0.0
C485 C 0.47869 0.58798 0.40946 0.0
C486 C 0.4618 0.54319 0.41912 0.0
C487 C 0.43484 0.54094 0.4127 0.0
H488 H 0.49366 0.60833 0.40879 0.0
H489 H 0.46433 0.52783 0.42603 0.0
H490 H 0.52899 0.64059 0.42739 0.0
H491 H 0.44996 0.6391 0.44782 0.0
H492 H 0.59688 0.48783 0.41279 0.0
H493 H 0.44894 0.6045 0.39672 0.0
H494 H 0.41756 0.52291 0.41439 0.0
C495 C -0.00077 0.54058 0.94729 0.0
C496 C 0.00583 0.50933 0.94899 0.0
N497 N 0.99348 0.49273 0.94075 0.0
N498 N 0.98294 0.54363 0.93801 0.0
C499 C 0.97976 0.51404 0.93418 0.0
H500 H 0.00615 0.55998 0.95243 0.0
Co501 Co 0.97124 0.58228 0.9325 0.0
C502 C 0.93135 0.57046 0.91289 0.0
O503 O 0.93768 0.59847 0.90898 0.0
N504 N 0.96 0.62236 0.92742 0.0
C505 C 0.93372 0.66662 0.92421 0.0
C506 C 0.93138 0.63607 0.92777 0.0
C507 C 0.97927 0.64519 0.92373 0.0
N508 N 0.96396 0.67233 0.92169 0.0
O509 O 0.93729 0.58336 0.94256 0.0
H510 H 0.91014 0.62471 0.93055 0.0
H511 H 0.00421 0.64219 0.92269 0.0
O512 O 0.94379 0.56158 0.92181 0.0
C513 C 0.94286 0.60031 0.95083 0.0
O514 O 0.96948 0.61593 0.95121 0.0
N515 N 0.00655 0.58107 0.92341 0.0
C516 C 0.06473 0.57917 0.91315 0.0
C517 C 0.03746 0.57037 0.90761 0.0
C518 C 0.00858 0.57093 0.91294 0.0
C519 C 0.03295 0.58983 0.92888 0.0
C520 C 0.06237 0.58892 0.92393 0.0
H521 H 0.98853 0.56225 0.90863 0.0
H522 H 0.03106 0.59738 0.93722 0.0
H523 H 0.96848 0.50821 0.92662 0.0
H524 H 0.01842 0.49952 0.9558 0.0
H525 H 0.91477 0.68355 0.92389 0.0
H526 H 0.03865 0.56183 0.89935 0.0
H527 H 0.08306 0.59555 0.92848 0.0
C528 C 0.99524 0.44517 0.07792 0.0
C529 C 0.96594 0.4518 0.08267 0.0
C530 C 0.00917 0.41574 0.07913 0.0
C531 C 0.00743 0.34295 0.09552 0.0
H532 H 0.04776 0.3072 0.07018 0.0
C533 C 0.03953 0.21157 0.09088 0.0
C534 C 0.0673 0.20387 0.08533 0.0
C535 C 0.03003 0.24285 0.09188 0.0
C536 C 0.03708 0.31706 0.07738 0.0
H537 H 0.92852 0.43245 0.09253 0.0
H538 H 0.95248 0.38048 0.09438 0.0
H539 H 0.02434 0.35923 0.06911 0.0
H540 H 0.10775 0.22294 0.07698 0.0
H541 H 0.09127 0.2778 0.07877 0.0
H542 H 0.0196 0.30015 0.10367 0.0
C543 C 0.96487 0.39844 0.08986 0.0
C544 C 0.02359 0.34689 0.07677 0.0
C545 C 0.95095 0.42809 0.08869 0.0
C546 C 0.08629 0.2282 0.08131 0.0
C547 C 0.07669 0.25953 0.08225 0.0
C548 C 0.02083 0.31296 0.09611 0.0
C549 C 0.99408 0.39191 0.08503 0.0
C550 C 0.00854 0.3602 0.08582 0.0
C551 C 0.04807 0.26709 0.08731 0.0
C552 C 0.03572 0.29969 0.08703 0.0
H553 H 0.00739 0.46247 0.07306 0.0
H554 H 0.03186 0.41168 0.07542 0.0
H555 H -0.00361 0.35271 0.10267 0.0
H556 H 0.0247 0.19328 0.09421 0.0
H557 H 0.0078 0.24789 0.09578 0.0
C558 C 0.12506 0.86181 0.33694 0.0
C559 C 0.14423 0.8394 0.33177 0.0
C560 C 0.09371 0.85503 0.33929 0.0
C561 C 0.02997 0.80259 0.33033 0.0
H562 H 0.98689 0.83484 0.35568 0.0
C563 C 0.9006 0.7744 0.33824 0.0
C564 C 0.88155 0.80077 0.34023 0.0
C565 C 0.9332 0.77691 0.33876 0.0
C566 C -0.00131 0.82574 0.34857 0.0
H567 H 0.14517 0.79175 0.32533 0.0
H568 H 0.0913 0.77968 0.32983 0.0
H569 H 0.04345 0.84304 0.35373 0.0
H570 H 0.88156 0.84988 0.34495 0.0
H571 H 0.93871 0.85437 0.34577 0.0
H572 H 0.98531 0.78545 0.32513 0.0
C573 C 0.10029 0.8028 0.33183 0.0
C574 C 0.031 0.8305 0.34743 0.0
C575 C 0.13148 0.80966 0.32937 0.0
C576 C 0.89572 0.82932 0.34323 0.0
C577 C 0.92836 0.83178 0.34381 0.0
C578 C -0.00216 0.79763 0.33151 0.0
C579 C 0.08085 0.82559 0.33662 0.0
C580 C 0.04693 0.81921 0.33824 0.0
C581 C 0.94739 0.80577 0.34134 0.0
C582 C 0.98184 0.80937 0.34058 0.0
H583 H 0.13408 0.88475 0.33909 0.0
H584 H 0.07933 0.87323 0.34291 0.0
H585 H 0.04131 0.79417 0.32303 0.0
H586 H 0.89041 0.75214 0.33585 0.0
H587 H 0.94737 0.75642 0.33691 0.0
C588 C 0.46614 0.93696 0.585 0.0
C589 C 0.48655 0.96231 0.58296 0.0
C590 C 0.47806 0.907 0.58712 0.0
C591 C 0.54454 0.85811 0.58043 0.0
H592 H 0.512 0.80216 0.60252 0.0
C593 C 0.5831 0.72879 0.58194 0.0
C594 C 0.55899 0.70674 0.58365 0.0
C595 C 0.57799 0.76076 0.58389 0.0
C596 C 0.5212 0.81742 0.59626 0.0
H597 H 0.53564 0.97614 0.58227 0.0
H598 H 0.55623 0.92361 0.58561 0.0
H599 H 0.49531 0.85714 0.60219 0.0
H600 H 0.5112 0.70111 0.58949 0.0
H601 H 0.50179 0.75663 0.59229 0.0
H602 H 0.56901 0.8184 0.57408 0.0
C603 C 0.53103 0.92709 0.58549 0.0
C604 C 0.51173 0.84888 0.59612 0.0
C605 C 0.51916 0.95712 0.5835 0.0
C606 C 0.5301 0.71736 0.58779 0.0
C607 C 0.52487 0.74931 0.58961 0.0
C608 C 0.55367 0.8266 0.58047 0.0
C609 C 0.51058 0.9017 0.58716 0.0
C610 C 0.52295 0.86934 0.5881 0.0
C611 C 0.54855 0.77149 0.58749 0.0
C612 C 0.54167 0.8057 0.58827 0.0
H613 H 0.44096 0.9399 0.58458 0.0
H614 H 0.46179 0.88769 0.58828 0.0
H615 H 0.55324 0.87336 0.57408 0.0
H616 H 0.60568 0.72162 0.57878 0.0
H617 H 0.59697 0.77712 0.58237 0.0
C618 C 0.39935 0.30751 0.82697 0.0
C619 C 0.38291 0.28894 0.83446 0.0
C620 C 0.43168 0.30458 0.82587 0.0
C621 C 0.50126 0.2824 0.84108 0.0
H622 H 0.5411 0.29466 0.81315 0.0
C623 C 0.6357 0.29804 0.83475 0.0
C624 C 0.64312 0.32528 0.82883 0.0
C625 C 0.60469 0.28759 0.8354 0.0
C626 C 0.53025 0.29103 0.82099 0.0
H627 H 0.38741 0.25205 0.84647 0.0
H628 H 0.44441 0.24704 0.84459 0.0
H629 H 0.48473 0.28485 0.81406 0.0
H630 H 0.62432 0.36286 0.81895 0.0
H631 H 0.57008 0.34458 0.82004 0.0
H632 H 0.5469 0.28935 0.84798 0.0
C633 C 0.43206 0.26399 0.83963 0.0
C634 C 0.49809 0.28546 0.82152 0.0
C635 C 0.39953 0.26693 0.84072 0.0
C636 C 0.6191 0.342 0.82364 0.0
C637 C 0.58824 0.33134 0.82416 0.0
C638 C 0.53357 0.2877 0.84054 0.0
C639 C 0.44844 0.28299 0.83223 0.0
C640 C 0.48308 0.28236 0.83159 0.0
C641 C 0.58083 0.30398 0.82999 0.0
C642 C 0.54801 0.29322 0.83051 0.0
H643 H 0.38747 0.32518 0.82219 0.0
H644 H 0.44371 0.32013 0.8203 0.0
H645 H 0.4903 0.28029 0.84896 0.0
H646 H 0.65391 0.28492 0.83887 0.0
H647 H 0.59941 0.2665 0.83997 0.0
C648 C 0.95896 0.72564 0.91382 0.0
C649 C 0.97763 0.70188 0.91842 0.0
C650 C 0.9718 0.75504 0.91138 0.0
C651 C 0.03637 0.80621 0.92 0.0
H652 H 0.00971 0.85778 0.89582 0.0
C653 C 0.0788 0.93338 0.91588 0.0
C654 C 0.05452 0.95529 0.91433 0.0
C655 C 0.07342 0.90134 0.91419 0.0
C656 C 0.01739 0.84359 0.9026 0.0
H657 H 0.02496 0.69042 0.92372 0.0
H658 H 0.04732 0.74105 0.91917 0.0
H659 H 0.99258 0.80296 0.89693 0.0
H660 H 0.00637 0.96114 0.90902 0.0
H661 H -0.00325 0.90523 0.90632 0.0
H662 H 0.06042 0.84685 0.92585 0.0
C663 C 0.0226 0.73714 0.91763 0.0
C664 C 0.00754 0.81228 0.90325 0.0
C665 C 0.00975 0.70787 0.92012 0.0
C666 C 0.02533 0.94473 0.91049 0.0
C667 C 0.01996 0.91274 0.90879 0.0
C668 C 0.04626 0.83739 0.91934 0.0
C669 C 0.00365 0.76127 0.91345 0.0
C670 C 0.01647 0.79344 0.91207 0.0
C671 C 0.04369 0.89064 0.91091 0.0
C672 C 0.0364 0.85658 0.91075 0.0
H673 H 0.9343 0.72174 0.91222 0.0
H674 H 0.95649 0.77322 0.90825 0.0
H675 H 0.04325 0.79254 0.92701 0.0
H676 H 0.10152 0.94077 0.91885 0.0
H677 H 0.09226 0.88485 0.91577 0.0
C678 C 0.41272 0.8587 0.16044 0.0
C679 C 0.38906 0.85725 0.16831 0.0
C680 C 0.4409 0.874 0.16263 0.0
C681 C 0.5005 0.90698 0.16865 0.0
H682 H 0.52915 0.87045 0.19564 0.0
C683 C 0.63142 0.8827 0.17656 0.0
C684 C 0.63687 0.85143 0.17978 0.0
C685 C 0.60123 0.89546 0.177 0.0
C686 C 0.5215 0.88114 0.18813 0.0
H687 H 0.37482 0.87352 0.18421 0.0
H688 H 0.42415 0.90059 0.18804 0.0
H689 H 0.47327 0.87508 0.1922 0.0
H690 H 0.61522 0.80946 0.18636 0.0
H691 H 0.56253 0.83127 0.18685 0.0
H692 H 0.54887 0.91012 0.16418 0.0
C693 C 0.42106 0.88949 0.18022 0.0
C694 C 0.48942 0.88425 0.18621 0.0
C695 C 0.39278 0.87414 0.17801 0.0
C696 C 0.6117 0.83343 0.18368 0.0
C697 C 0.5816 0.84617 0.18415 0.0
C698 C 0.53263 0.90366 0.17055 0.0
C699 C 0.44599 0.88817 0.17277 0.0
C700 C 0.47859 0.89535 0.17616 0.0
C701 C 0.57597 0.87722 0.18072 0.0
C702 C 0.5433 0.88892 0.18004 0.0
H703 H 0.41011 0.84643 0.15282 0.0
H704 H 0.45956 0.87229 0.15671 0.0
H705 H 0.49282 0.91626 0.16093 0.0
H706 H 0.65036 0.89707 0.17345 0.0
H707 H 0.59758 0.91942 0.17429 0.0
C708 C 0.45624 0.2165 0.41247 0.0
C709 C 0.47833 0.19193 0.41282 0.0
C710 C 0.46561 0.24702 0.40982 0.0
C711 C 0.53314 0.29741 0.4125 0.0
H712 H 0.48705 0.35485 0.39403 0.0
C713 C 0.56674 0.42771 0.41083 0.0
C714 C 0.5416 0.44914 0.41125 0.0
C715 C 0.56141 0.39599 0.40855 0.0
C716 C 0.50007 0.33915 0.39927 0.0
H717 H 0.52715 0.17985 0.40985 0.0
H718 H 0.54353 0.23328 0.40557 0.0
H719 H 0.47231 0.29929 0.3946 0.0
H720 H 0.49131 0.45401 0.40877 0.0
H721 H 0.48188 0.39877 0.40548 0.0
H722 H 0.5597 0.33709 0.41772 0.0
C723 C 0.51907 0.22885 0.40744 0.0
C724 C 0.4917 0.30738 0.39954 0.0
C725 C 0.50968 0.19832 0.40998 0.0
C726 C 0.51122 0.43823 0.40884 0.0
C727 C 0.50584 0.40646 0.40673 0.0
C728 C 0.54122 0.32917 0.41236 0.0
C729 C 0.49724 0.25355 0.40754 0.0
C730 C 0.50789 0.28639 0.40629 0.0
C731 C 0.53078 0.38482 0.40678 0.0
C732 C 0.52445 0.35056 0.40589 0.0
H733 H 0.43198 0.21249 0.41465 0.0
H734 H 0.4484 0.26578 0.41005 0.0
H735 H 0.54572 0.28174 0.41789 0.0
H736 H 0.5905 0.43504 0.41258 0.0
H737 H 0.58128 0.3801 0.40842 0.0
C738 C 0.89678 0.32933 0.67131 0.0
C739 C 0.88141 0.35248 0.66519 0.0
C740 C 0.9293 0.32936 0.67221 0.0
C741 C 0.00043 0.3555 0.65838 0.0
H742 H 0.03923 0.33003 0.68539 0.0
C743 C 0.135 0.34133 0.66492 0.0
C744 C 0.14356 0.31257 0.66969 0.0
C745 C 0.10347 0.3501 0.6643 0.0
C746 C 0.02866 0.33718 0.6778 0.0
H747 H 0.88801 0.39411 0.65533 0.0
H748 H 0.94532 0.39421 0.65692 0.0
H749 H 0.98294 0.34017 0.68482 0.0
H750 H 0.12609 0.27041 0.67749 0.0
H751 H 0.07099 0.28571 0.67642 0.0
H752 H 0.0464 0.35212 0.65138 0.0
C753 C 0.93202 0.37591 0.66094 0.0
C754 C -0.00348 0.34296 0.67747 0.0
C755 C 0.89931 0.37585 0.66002 0.0
C756 C 0.12009 0.29254 0.67368 0.0
C757 C 0.08867 0.30145 0.67318 0.0
C758 C 0.03274 0.34995 0.65874 0.0
C759 C 0.94729 0.35258 0.66703 0.0
C760 C 0.98192 0.35122 0.66768 0.0
C761 C 0.08014 0.33041 0.66858 0.0
C762 C 0.04687 0.33987 0.66839 0.0
H763 H 0.8838 0.31055 0.67516 0.0
H764 H 0.94041 0.31059 0.67673 0.0
H765 H 0.98978 0.36163 0.65071 0.0
H766 H 0.15274 0.35702 0.66172 0.0
H767 H 0.09736 0.37253 0.66071 0.0
C768 C 0.10462 0.1249 0.03859 0.0
C769 C 0.09659 0.09794 0.04451 0.0
C770 C 0.11599 0.12224 0.02804 0.0
C771 C 0.13828 0.06406 0.00642 0.0
H772 H 0.094 0.12353 0.98818 0.0
C773 C 0.08773 0.03576 0.96463 0.0
C774 C 0.08514 0.05975 0.95687 0.0
C775 C 0.1017 0.04173 0.97464 0.0
C776 C 0.10725 0.10714 0.9931 0.0
H777 H 0.09603 0.04702 0.04441 0.0
H778 H 0.11438 0.04221 0.02581 0.0
H779 H 0.09561 0.13198 0.0075 0.0
H780 H 0.09759 0.10799 0.9531 0.0
H781 H 0.12187 0.11849 0.97066 0.0
H782 H 0.14776 0.03809 0.99188 0.0
C783 C 0.11288 0.06548 0.02934 0.0
C784 C 0.10825 0.112 0.00425 0.0
C785 C 0.10221 0.06817 0.04001 0.0
C786 C 0.09908 0.08909 0.95896 0.0
C787 C 0.11288 0.09513 0.96902 0.0
C788 C 0.13697 0.05903 0.99523 0.0
C789 C 0.11865 0.09256 0.02306 0.0
C790 C 0.12292 0.09004 0.01111 0.0
C791 C 0.1132 0.07186 0.97711 0.0
C792 C 0.1206 0.08005 0.9885 0.0
H793 H 0.10089 0.14814 0.04197 0.0
H794 H 0.12115 0.14358 0.0236 0.0
H795 H 0.15033 0.04699 0.01141 0.0
H796 H 0.07746 0.01281 0.96321 0.0
H797 H 0.10137 0.02335 0.98071 0.0
C798 C 0.22925 0.86764 0.28073 0.0
C799 C 0.2508 0.87268 0.28914 0.0
C800 C 0.23547 0.87859 0.27033 0.0
C801 C 0.3044 0.89294 0.25351 0.0
H802 H 0.23978 0.90115 0.23163 0.0
C803 C 0.28129 0.87275 0.2045 0.0
C804 C 0.29772 0.84415 0.20367 0.0
C805 C 0.27974 0.88875 0.2144 0.0
C806 C 0.25839 0.89966 0.23757 0.0
H807 H 0.29428 0.89594 0.29352 0.0
H808 H 0.30501 0.91562 0.2753 0.0
H809 H 0.2268 0.91048 0.25051 0.0
H810 H 0.32695 0.81094 0.21238 0.0
H811 H 0.32366 0.83808 0.22954 0.0
H812 H 0.3359 0.88176 0.2406 0.0
C813 C 0.28358 0.90254 0.27671 0.0
C814 C 0.25082 0.90464 0.24845 0.0
C815 C 0.27734 0.89146 0.28717 0.0
C816 C 0.31396 0.83283 0.21274 0.0
C817 C 0.31234 0.84868 0.2226 0.0
C818 C 0.31207 0.88841 0.24263 0.0
C819 C 0.26339 0.89501 0.26806 0.0
C820 C 0.27327 0.89941 0.2566 0.0
C821 C 0.29458 0.87643 0.22365 0.0
C822 C 0.28873 0.88981 0.2346 0.0
H823 H 0.20839 0.85353 0.28202 0.0
H824 H 0.21942 0.87198 0.26393 0.0
H825 H 0.32242 0.88877 0.25952 0.0
H826 H 0.26873 0.88223 0.19762 0.0
H827 H 0.26618 0.91026 0.21488 0.0
C828 C 0.40866 0.08401 0.53723 0.0
C829 C 0.41537 0.05459 0.54183 0.0
C830 C 0.39569 0.08585 0.52686 0.0
C831 C 0.39769 0.03723 0.50228 0.0
H832 H 0.36108 0.11212 0.48961 0.0
C833 C 0.41267 0.06049 0.45725 0.0
C834 C 0.42811 0.0893 0.45556 0.0
C835 C 0.39707 0.05469 0.46701 0.0
C836 C 0.37097 0.09086 0.49303 0.0
H837 H 0.4102 0.00425 0.53993 0.0
H838 H 0.38581 0.00738 0.52212 0.0
H839 H 0.35728 0.10361 0.50913 0.0
H840 H 0.43662 0.13568 0.46226 0.0
H841 H 0.40955 0.12559 0.47924 0.0
H842 H 0.41243 0.02507 0.48631 0.0
C843 C 0.39189 0.02905 0.52622 0.0
C844 C 0.36897 0.08604 0.50422 0.0
C845 C 0.40556 0.02721 0.53647 0.0
C846 C 0.42521 0.11313 0.46338 0.0
C847 C 0.40942 0.10744 0.47308 0.0
C848 C 0.39935 0.04188 0.49113 0.0
C849 C 0.38869 0.05829 0.52098 0.0
C850 C 0.38361 0.05986 0.50905 0.0
C851 C 0.3964 0.0777 0.4752 0.0
C852 C 0.38728 0.06941 0.48644 0.0
H853 H 0.41618 0.10551 0.54117 0.0
H854 H 0.3938 0.10883 0.52315 0.0
H855 H 0.40971 0.017 0.50561 0.0
H856 H 0.41438 0.0417 0.45135 0.0
H857 H 0.38698 0.03164 0.46839 0.0
C858 C 0.27393 0.25712 0.71105 0.0
C859 C 0.24888 0.27779 0.70899 0.0
C860 C 0.27835 0.2447 0.72143 0.0
C861 C 0.24214 0.24119 0.74916 0.0
H862 H 0.32738 0.25747 0.75855 0.0
C863 C 0.30448 0.30393 0.78684 0.0
C864 C 0.28694 0.29199 0.79554 0.0
C865 C 0.30318 0.28964 0.77671 0.0
C866 C 0.30348 0.2526 0.75607 0.0
H867 H 0.20722 0.29924 0.71588 0.0
H868 H 0.21513 0.27838 0.73386 0.0
H869 H 0.31591 0.25402 0.73935 0.0
H870 H 0.25573 0.25446 0.8006 0.0
H871 H 0.25356 0.22923 0.78281 0.0
H872 H 0.22924 0.24285 0.76586 0.0
C873 C 0.23135 0.27133 0.72756 0.0
C874 C 0.29694 0.25015 0.74503 0.0
C875 C 0.22696 0.28366 0.71723 0.0
C876 C 0.26937 0.26433 0.79403 0.0
C877 C 0.26804 0.24996 0.78383 0.0
C878 C 0.24863 0.24403 0.7602 0.0
C879 C 0.25777 0.2527 0.72992 0.0
C880 C 0.26589 0.24613 0.74142 0.0
C881 C 0.28435 0.26292 0.77498 0.0
C882 C 0.2791 0.25147 0.76375 0.0
H883 H 0.29111 0.252 0.70482 0.0
H884 H 0.29867 0.23002 0.72293 0.0
H885 H 0.21809 0.23723 0.74667 0.0
H886 H 0.31841 0.3251 0.78774 0.0
H887 H 0.31565 0.30069 0.77009 0.0
C888 C 0.73048 0.3543 0.7829 0.0
C889 C 0.75258 0.36064 0.79103 0.0
C890 C 0.73413 0.3668 0.77257 0.0
C891 C 0.79797 0.389 0.75462 0.0
H892 H 0.72862 0.39739 0.73453 0.0
C893 C 0.76665 0.37729 0.70585 0.0
C894 C 0.78373 0.34948 0.70402 0.0
C895 C 0.76614 0.39109 0.71615 0.0
C896 C 0.74845 0.39591 0.73998 0.0
H897 H 0.79452 0.38713 0.79499 0.0
H898 H 0.80095 0.40923 0.77682 0.0
H899 H 0.71906 0.40224 0.75386 0.0
H900 H 0.81507 0.31539 0.71136 0.0
H901 H 0.81374 0.33886 0.7292 0.0
H902 H 0.82722 0.38192 0.74076 0.0
C903 C 0.78095 0.39422 0.77844 0.0
C904 C 0.74289 0.39834 0.7511 0.0
C905 C 0.7772 0.38171 0.78885 0.0
C906 C 0.80151 0.3367 0.7125 0.0
C907 C 0.80104 0.35044 0.72274 0.0
C908 C 0.80358 0.38687 0.74351 0.0
C909 C 0.76003 0.386 0.77008 0.0
C910 C 0.76725 0.39303 0.75856 0.0
C911 C 0.78281 0.3774 0.72477 0.0
C912 C 0.77858 0.38843 0.7361 0.0
H913 H 0.71106 0.33839 0.78437 0.0
H914 H 0.71773 0.35957 0.76636 0.0
H915 H 0.81736 0.38486 0.7601 0.0
H916 H 0.75285 0.3878 0.69944 0.0
H917 H 0.75207 0.412 0.71742 0.0
C918 C 0.72906 0.81438 0.22145 0.0
C919 C 0.74626 0.80313 0.21256 0.0
C920 C 0.72988 0.79868 0.23133 0.0
C921 C 0.78278 0.74927 0.24711 0.0
H922 H 0.7158 0.76004 0.26803 0.0
C923 C 0.7574 0.76235 0.29626 0.0
C924 C 0.78354 0.78154 0.29839 0.0
C925 C 0.75268 0.74991 0.28588 0.0
C926 C 0.73468 0.75588 0.26233 0.0
H927 H 0.77634 0.76546 0.20686 0.0
H928 H 0.77772 0.7377 0.22423 0.0
H929 H 0.70451 0.7651 0.24889 0.0
H930 H 0.82674 0.80017 0.29166 0.0
H931 H 0.8182 0.77962 0.27368 0.0
H932 H 0.81304 0.74034 0.26057 0.0
C933 C 0.76386 0.75898 0.22355 0.0
C934 C 0.72824 0.75927 0.25132 0.0
C935 C 0.76301 0.77479 0.2136 0.0
C936 C 0.80615 0.78578 0.29025 0.0
C937 C 0.80138 0.77359 0.27991 0.0
C938 C 0.78914 0.74535 0.25812 0.0
C939 C 0.74786 0.77118 0.2326 0.0
C940 C 0.75261 0.7581 0.24365 0.0
C941 C 0.77394 0.7566 0.27745 0.0
C942 C 0.76559 0.75069 0.26591 0.0
H943 H 0.71573 0.83603 0.22092 0.0
H944 H 0.71771 0.80921 0.23812 0.0
H945 H 0.80214 0.74791 0.24144 0.0
H946 H 0.7397 0.75837 0.3024 0.0
H947 H 0.73161 0.73638 0.28435 0.0
C948 C 0.55857 0.53045 0.46367 0.0
C949 C 0.56541 0.55082 0.45505 0.0
C950 C 0.57236 0.53491 0.47377 0.0
C951 C 0.60622 0.54446 0.49471 0.0
H952 H 0.60297 0.63205 0.50332 0.0
C953 C 0.59337 0.57765 0.53954 0.0
C954 C 0.56928 0.59965 0.54134 0.0
C955 C 0.60596 0.57361 0.52915 0.0
C956 C 0.6041 0.60745 0.50107 0.0
H957 H 0.59419 0.59023 0.44999 0.0
H958 H 0.61893 0.5977 0.46765 0.0
H959 H 0.60125 0.61856 0.48427 0.0
H960 H 0.5409 0.63596 0.53383 0.0
H961 H 0.56187 0.6284 0.51587 0.0
H962 H 0.60577 0.53326 0.51155 0.0
C963 C 0.60224 0.57871 0.46666 0.0
C964 C 0.60361 0.59968 0.49008 0.0
C965 C 0.5882 0.57434 0.45652 0.0
C966 C 0.55931 0.61866 0.53273 0.0
C967 C 0.5717 0.61455 0.52239 0.0
C968 C 0.60613 0.55221 0.5057 0.0
C969 C 0.59363 0.55972 0.47552 0.0
C970 C 0.60294 0.568 0.48679 0.0
C971 C 0.59463 0.59145 0.52038 0.0
C972 C 0.60333 0.58376 0.50901 0.0
H973 H 0.54129 0.51192 0.4628 0.0
H974 H 0.56467 0.52002 0.48037 0.0
H975 H 0.60677 0.51984 0.49246 0.0
H976 H 0.60174 0.56281 0.54605 0.0
H977 H 0.6239 0.5559 0.52794 0.0
C978 C 0.89578 0.58004 0.96097 0.0
C979 C 0.92174 0.60037 0.96033 0.0
C980 C 0.87883 0.57728 0.97065 0.0
C981 C 0.86879 0.55637 0.99389 0.0
H982 H 0.87211 0.62226 0.01554 0.0
C983 C 0.90988 0.53282 0.03626 0.0
C984 C 0.90449 0.5543 0.04468 0.0
C985 C 0.89599 0.53715 0.02617 0.0
C986 C 0.87001 0.60354 0.00965 0.0
H987 H 0.94885 0.63536 0.96905 0.0
H988 H 0.92039 0.62996 0.98581 0.0
H989 H 0.87573 0.63588 0.99656 0.0
H990 H 0.87756 0.59521 0.04955 0.0
H991 H 0.85255 0.60247 0.03191 0.0
H992 H 0.86306 0.52403 0.00698 0.0
C993 C 0.91241 0.61644 0.97891 0.0
C994 C 0.87264 0.61137 0.99871 0.0
C995 C 0.92913 0.61928 0.96928 0.0
C996 C 0.88242 0.57845 0.04315 0.0
C997 C 0.86828 0.58272 0.03302 0.0
C998 C 0.86546 0.5486 0.00482 0.0
C999 C 0.8876 0.59475 0.97986 0.0
C1000 C 0.87443 0.58769 0.99077 0.0
C1001 C 0.87609 0.56298 0.02425 0.0
C1002 C 0.86842 0.57184 0.01288 0.0
H1003 H 0.88934 0.56535 0.95416 0.0
H1004 H 0.85959 0.56067 0.97103 0.0
H1005 H 0.86968 0.53742 0.98804 0.0
H1006 H 0.92647 0.5137 0.03722 0.0
H1007 H 0.90299 0.52151 0.01969 0.0
C1008 C 0.26419 0.894 0.14252 0.0
C1009 C 0.25056 0.87589 0.1508 0.0
C1010 C 0.2461 0.91505 0.13653 0.0
C1011 C 0.16587 0.93024 0.12755 0.0
H1012 H 0.1977 0.01374 0.1212 0.0
C1013 C 0.11033 0.01304 0.09544 0.0
C1014 C 0.10555 0.04426 0.09882 0.0
C1015 C 0.12782 0.99224 0.10183 0.0
C1016 C 0.18847 0.99052 0.12293 0.0
H1017 H 0.20725 0.86625 0.15942 0.0
H1018 H 0.17543 0.90294 0.14881 0.0
H1019 H 0.22792 0.9786 0.13283 0.0
H1020 H 0.11591 0.0783 0.11143 0.0
H1021 H 0.14655 0.04223 0.12245 0.0
H1022 H 0.1264 0.94226 0.11761 0.0
C1023 C 0.20019 0.9006 0.14697 0.0
C1024 C 0.20583 0.97037 0.12953 0.0
C1025 C 0.21844 0.87973 0.15308 0.0
C1026 C 0.11907 0.05439 0.10859 0.0
C1027 C 0.13677 0.03377 0.1149 0.0
C1028 C 0.14861 0.95033 0.12084 0.0
C1029 C 0.21387 0.91835 0.1386 0.0
C1030 C 0.19474 0.94003 0.13191 0.0
C1031 C 0.14119 0.00245 0.11163 0.0
C1032 C 0.15973 0.98069 0.11849 0.0
H1033 H 0.28889 0.89174 0.14057 0.0
H1034 H 0.25723 0.92824 0.13008 0.0
H1035 H 0.15692 0.90686 0.12918 0.0
H1036 H 0.10022 0.00452 0.08796 0.0
H1037 H 0.13111 0.96826 0.09908 0.0
C1038 C 0.29479 0.87664 0.35651 0.0
C1039 C 0.29915 0.87738 0.34525 0.0
C1040 C 0.3132 0.89518 0.36331 0.0
C1041 C 0.3873 0.94083 0.36434 0.0
H1042 H 0.34776 0.97879 0.38945 0.0
C1043 C 0.44553 0.03799 0.39008 0.0
C1044 C 0.44363 0.03494 0.40139 0.0
C1045 C 0.42884 0.01773 0.38332 0.0
C1046 C 0.35918 0.96806 0.38253 0.0
H1047 H 0.32639 0.8981 0.33226 0.0
H1048 H 0.35814 0.93131 0.34414 0.0
H1049 H 0.31664 0.94642 0.37723 0.0
H1050 H 0.42285 0.00811 0.41449 0.0
H1051 H 0.39323 0.97283 0.40261 0.0
H1052 H 0.42969 0.96331 0.36957 0.0
C1053 C 0.34081 0.91587 0.34773 0.0
C1054 C 0.3414 0.94946 0.37553 0.0
C1055 C 0.32251 0.89701 0.34091 0.0
C1056 C 0.42473 0.01108 0.4058 0.0
C1057 C 0.40772 0.99098 0.39902 0.0
C1058 C 0.40501 0.95973 0.3713 0.0
C1059 C 0.33627 0.91525 0.35902 0.0
C1060 C 0.35524 0.9355 0.36636 0.0
C1061 C 0.40963 0.99415 0.38771 0.0
C1062 C 0.39112 0.97347 0.38047 0.0
H1063 H 0.27723 0.86151 0.36014 0.0
H1064 H 0.3095 0.89351 0.37196 0.0
H1065 H 0.39886 0.93008 0.35746 0.0
H1066 H 0.45996 0.05606 0.38641 0.0
H1067 H 0.4305 0.0209 0.37464 0.0
C1068 C 0.4486 0.11682 0.60571 0.0
C1069 C 0.44301 0.11887 0.59452 0.0
C1070 C 0.43224 0.13592 0.61296 0.0
C1071 C 0.38471 0.20875 0.61454 0.0
H1072 H 0.357 0.17306 0.64182 0.0
C1073 C 0.29368 0.26926 0.64182 0.0
C1074 C 0.29968 0.27038 0.653 0.0
C1075 C 0.31251 0.25129 0.63497 0.0
C1076 C 0.36493 0.18343 0.6343 0.0
H1077 H 0.41587 0.14269 0.58216 0.0
H1078 H 0.38667 0.17565 0.59485 0.0
H1079 H 0.38658 0.14061 0.62911 0.0
H1080 H 0.3301 0.25328 0.66578 0.0
H1081 H 0.36301 0.2214 0.65373 0.0
H1082 H 0.36238 0.25136 0.61967 0.0
C1083 C 0.40416 0.15961 0.59801 0.0
C1084 C 0.38189 0.16489 0.62701 0.0
C1085 C 0.42074 0.14059 0.59073 0.0
C1086 C 0.32487 0.25285 0.65721 0.0
C1087 C 0.34362 0.23457 0.65032 0.0
C1088 C 0.36756 0.2272 0.6218 0.0
C1089 C 0.40967 0.15742 0.60922 0.0
C1090 C 0.39189 0.17728 0.61702 0.0
C1091 C 0.3377 0.23381 0.63913 0.0
C1092 C 0.35734 0.21468 0.63172 0.0
H1093 H 0.4658 0.10053 0.60891 0.0
H1094 H 0.43754 0.13401 0.6215 0.0
H1095 H 0.39254 0.21925 0.60703 0.0
H1096 H 0.27448 0.28243 0.6383 0.0
H1097 H 0.30711 0.2508 0.62641 0.0
C1098 C 0.06739 0.11469 0.89101 0.0
C1099 C 0.07187 0.11573 0.90227 0.0
C1100 C 0.08386 0.13497 0.88422 0.0
C1101 C 0.15718 0.17754 0.88219 0.0
H1102 H 0.11665 0.21907 0.85798 0.0
C1103 C 0.22541 0.22191 0.84498 0.0
C1104 C 0.21837 0.25238 0.84132 0.0
C1105 C 0.20677 0.20757 0.85286 0.0
C1106 C 0.12824 0.20783 0.86475 0.0
H1107 H 0.09673 0.13916 0.91528 0.0
H1108 H 0.12624 0.17446 0.90329 0.0
H1109 H 0.0848 0.19133 0.87139 0.0
H1110 H 0.18571 0.29135 0.84278 0.0
H1111 H 0.15289 0.26604 0.85646 0.0
H1112 H 0.20068 0.19344 0.87541 0.0
C1113 C 0.10977 0.15792 0.89979 0.0
C1114 C 0.11007 0.19186 0.87238 0.0
C1115 C 0.09286 0.13785 0.90663 0.0
C1116 C 0.19181 0.26789 0.84548 0.0
C1117 C 0.17297 0.2534 0.85328 0.0
C1118 C 0.17539 0.19321 0.87449 0.0
C1119 C 0.10547 0.15653 0.88851 0.0
C1120 C 0.1244 0.17623 0.8811 0.0
C1121 C 0.18053 0.22328 0.85715 0.0
C1122 C 0.16111 0.20815 0.86562 0.0
H1123 H 0.05122 0.09805 0.8874 0.0
H1124 H 0.08034 0.13315 0.87556 0.0
H1125 H 0.16882 0.16548 0.88879 0.0
H1126 H 0.24575 0.20938 0.84196 0.0
H1127 H 0.21285 0.18414 0.8556 0.0
C1128 C 0.89602 0.04669 0.89781 0.0
C1129 C 0.90352 0.06801 0.90608 0.0
C1130 C 0.86941 0.05167 0.89139 0.0
C1131 C 0.83545 0.08952 0.87411 0.0
H1132 H 0.76009 0.13232 0.88379 0.0
C1133 C 0.76783 0.20605 0.86157 0.0
C1134 C 0.76785 0.20321 0.85026 0.0
C1135 C 0.7733 0.17986 0.86809 0.0
C1136 C 0.78084 0.12014 0.88093 0.0
H1137 H 0.88849 0.10953 0.91477 0.0
H1138 H 0.84208 0.11825 0.90369 0.0
H1139 H 0.79061 0.10113 0.89662 0.0
H1140 H 0.77145 0.17032 0.83689 0.0
H1141 H 0.78084 0.12434 0.84832 0.0
H1142 H 0.8272 0.11032 0.85866 0.0
C1143 C 0.85629 0.0976 0.90212 0.0
C1144 C 0.79825 0.10223 0.88827 0.0
C1145 C 0.88296 0.09281 0.90843 0.0
C1146 C 0.77129 0.17322 0.8456 0.0
C1147 C 0.77685 0.14694 0.85213 0.0
C1148 C 0.81811 0.10747 0.86679 0.0
C1149 C 0.84992 0.07787 0.89325 0.0
C1150 C 0.82665 0.08818 0.88506 0.0
C1151 C 0.77895 0.15018 0.86344 0.0
C1152 C 0.79159 0.12438 0.87027 0.0
H1153 H 0.91178 0.02748 0.89587 0.0
H1154 H 0.86499 0.03603 0.88464 0.0
H1155 H 0.85732 0.07917 0.87138 0.0
H1156 H 0.76479 0.22882 0.86538 0.0
H1157 H 0.7751 0.18337 0.87675 0.0
C1158 C 0.63246 0.07379 0.58587 0.0
C1159 C 0.61524 0.09729 0.58055 0.0
C1160 C 0.66152 0.08097 0.59056 0.0
C1161 C 0.72227 0.14391 0.59289 0.0
H1162 H 0.7163 0.12667 0.62362 0.0
C1163 C 0.75048 0.23382 0.62513 0.0
C1164 C 0.76066 0.22452 0.63544 0.0
C1165 C 0.74545 0.2115 0.61705 0.0
C1166 C 0.71911 0.13105 0.61504 0.0
H1167 H 0.61562 0.14563 0.57506 0.0
H1168 H 0.66607 0.15824 0.58316 0.0
H1169 H 0.68364 0.09749 0.61105 0.0
H1170 H 0.7755 0.18489 0.64521 0.0
H1171 H 0.7665 0.14563 0.63104 0.0
H1172 H 0.75616 0.17912 0.59702 0.0
C1173 C 0.65752 0.1343 0.58376 0.0
C1174 C 0.70034 0.11425 0.60781 0.0
C1175 C 0.62846 0.12724 0.57921 0.0
C1176 C 0.76764 0.19267 0.63732 0.0
C1177 C 0.76238 0.17023 0.62924 0.0
C1178 C 0.74107 0.16071 0.60012 0.0
C1179 C 0.67383 0.11162 0.58983 0.0
C1180 C 0.7004 0.12182 0.59674 0.0
C1181 C 0.75035 0.17934 0.61912 0.0
C1182 C 0.7383 0.15569 0.61133 0.0
H1183 H 0.62262 0.05051 0.58697 0.0
H1184 H 0.67365 0.06302 0.59516 0.0
H1185 H 0.72323 0.14979 0.58437 0.0
H1186 H 0.7453 0.25829 0.62344 0.0
H1187 H 0.73579 0.21934 0.60941 0.0
C1188 C 0.73865 0.97495 0.34985 0.0
C1189 C 0.7628 0.95387 0.35242 0.0
C1190 C 0.73271 0.00083 0.35646 0.0
C1191 C 0.73501 0.01821 0.38487 0.0
H1192 H 0.69401 0.09457 0.37513 0.0
C1193 C 0.6424 0.07741 0.4114 0.0
C1194 C 0.61388 0.07946 0.40574 0.0
C1195 C 0.67068 0.07367 0.40575 0.0
C1196 C 0.70576 0.07359 0.37803 0.0
H1197 H 0.8011 0.94402 0.3634 0.0
H1198 H 0.7904 0.98936 0.37519 0.0
H1199 H 0.72856 0.06589 0.36281 0.0
H1200 H 0.59259 0.08196 0.38986 0.0
H1201 H 0.64157 0.07534 0.38002 0.0
H1202 H 0.71038 0.02444 0.39978 0.0
C1203 C 0.77619 0.98593 0.36802 0.0
C1204 C 0.72554 0.05721 0.37098 0.0
C1205 C 0.78237 0.96013 0.36129 0.0
C1206 C 0.61428 0.08011 0.3944 0.0
C1207 C 0.64243 0.0767 0.38877 0.0
C1208 C 0.71521 0.03458 0.39191 0.0
C1209 C 0.7506 0.00592 0.36586 0.0
C1210 C 0.73881 0.02835 0.37412 0.0
C1211 C 0.67082 0.07231 0.39437 0.0
C1212 C 0.6989 0.06136 0.38833 0.0
H1213 H 0.72334 0.97046 0.34302 0.0
H1214 H 0.71255 0.01542 0.35463 0.0
H1215 H 0.74476 0.996 0.38753 0.0
H1216 H 0.64265 0.07684 0.42016 0.0
H1217 H 0.69221 0.07048 0.41028 0.0
C1218 C 0.77339 0.98734 0.15663 0.0
C1219 C 0.77265 0.95684 0.1522 0.0
C1220 C 0.78144 0.01317 0.1502 0.0
C1221 C 0.80434 0.03528 0.12169 0.0
H1222 H 0.86439 0.08773 0.13679 0.0
C1223 C 0.90336 0.09381 0.09798 0.0
C1224 C 0.93304 0.0897 0.10277 0.0
C1225 C 0.87598 0.09001 0.1041 0.0
C1226 C 0.84777 0.07325 0.13241 0.0
H1227 H 0.77651 0.93025 0.13726 0.0
H1228 H 0.79284 0.9743 0.12634 0.0
H1229 H 0.82841 0.05562 0.14707 0.0
H1230 H 0.95716 0.08139 0.11794 0.0
H1231 H 0.91005 0.07277 0.12838 0.0
H1232 H 0.8263 0.05003 0.10706 0.0
C1233 C 0.78658 0.97884 0.13469 0.0
C1234 C 0.82655 0.05514 0.13834 0.0
C1235 C 0.77783 0.95321 0.14104 0.0
C1236 C 0.9347 0.08389 0.11393 0.0
C1237 C 0.90745 0.07957 0.11999 0.0
C1238 C 0.8262 0.05268 0.11577 0.0
C1239 C 0.78966 0.00904 0.13926 0.0
C1240 C 0.80571 0.03451 0.13306 0.0
C1241 C 0.87768 0.08155 0.11509 0.0
C1242 C 0.84939 0.07049 0.12109 0.0
H1243 H 0.76949 0.99124 0.16518 0.0
H1244 H 0.78262 0.03614 0.15397 0.0
H1245 H 0.78778 0.02077 0.1173 0.0
H1246 H 0.90111 0.09832 0.08939 0.0
H1247 H 0.85353 0.09243 0.10008 0.0
C1248 C 0.71607 0.42865 0.65889 0.0
C1249 C 0.71601 0.39561 0.65876 0.0
C1250 C 0.70072 0.4456 0.65079 0.0
C1251 C 0.64102 0.43945 0.62917 0.0
H1252 H 0.68393 0.51314 0.61805 0.0
C1253 C 0.59159 0.51509 0.59393 0.0
C1254 C 0.59071 0.54744 0.59628 0.0
C1255 C 0.60858 0.49453 0.60058 0.0
C1256 C 0.67166 0.49263 0.62108 0.0
H1257 H 0.69876 0.35448 0.65021 0.0
H1258 H 0.67225 0.38406 0.63604 0.0
H1259 H 0.70886 0.48133 0.632 0.0
H1260 H 0.60781 0.5838 0.6071 0.0
H1261 H 0.63747 0.5482 0.61856 0.0
H1262 H 0.60366 0.4511 0.61826 0.0
C1263 C 0.68401 0.39687 0.64244 0.0
C1264 C 0.68584 0.47451 0.62911 0.0
C1265 C 0.69931 0.37991 0.65056 0.0
C1266 C 0.60796 0.55897 0.60511 0.0
C1267 C 0.62514 0.53859 0.61164 0.0
C1268 C 0.62685 0.45758 0.62109 0.0
C1269 C 0.68502 0.42991 0.64236 0.0
C1270 C 0.67044 0.44806 0.63341 0.0
C1271 C 0.6253 0.50613 0.60956 0.0
C1272 C 0.64179 0.48469 0.61712 0.0
H1273 H 0.7285 0.44151 0.66513 0.0
H1274 H 0.70135 0.47106 0.6511 0.0
H1275 H 0.62848 0.4193 0.63235 0.0
H1276 H 0.57836 0.50557 0.5872 0.0
H1277 H 0.60847 0.46959 0.59877 0.0
C1278 C 0.90167 0.55768 0.89602 0.0
C1279 C 0.91435 0.54772 0.90595 0.0
C1280 C 0.88774 0.53616 0.88898 0.0
C1281 C 0.85298 0.45656 0.88772 0.0
H1282 H 0.86585 0.46735 0.85686 0.0
C1283 C 0.77812 0.3903 0.85666 0.0
C1284 C 0.79254 0.37879 0.84723 0.0
C1285 C 0.79431 0.41018 0.86368 0.0
C1286 C 0.8623 0.46375 0.86545 0.0
H1287 H 0.92129 0.50734 0.9164 0.0
H1288 H 0.89758 0.46959 0.90399 0.0
H1289 H 0.89189 0.50263 0.86954 0.0
H1290 H 0.83523 0.37944 0.83768 0.0
H1291 H 0.86388 0.414 0.85007 0.0
H1292 H 0.82398 0.41727 0.88365 0.0
C1293 C 0.89822 0.49416 0.90169 0.0
C1294 C 0.87689 0.48426 0.87272 0.0
C1295 C 0.912 0.51579 0.90879 0.0
C1296 C 0.82346 0.38804 0.84486 0.0
C1297 C 0.83982 0.40787 0.85195 0.0
C1298 C 0.83854 0.43597 0.88045 0.0
C1299 C 0.88624 0.50406 0.89164 0.0
C1300 C 0.87204 0.48119 0.88394 0.0
C1301 C 0.82549 0.41892 0.86151 0.0
C1302 C 0.84262 0.4396 0.86922 0.0
H1303 H 0.90275 0.58214 0.8936 0.0
H1304 H 0.87806 0.54477 0.88144 0.0
H1305 H 0.84856 0.45358 0.89629 0.0
H1306 H 0.75419 0.38393 0.85867 0.0
H1307 H 0.78225 0.41885 0.8708 0.0
C1308 C 0.90666 0.6031 0.11105 0.0
C1309 C 0.90624 0.60735 0.09977 0.0
C1310 C 0.89098 0.62405 0.11788 0.0
C1311 C 0.85682 0.70456 0.11847 0.0
H1312 H 0.81828 0.67453 0.14497 0.0
C1313 C 0.77496 0.781 0.14481 0.0
C1314 C 0.78122 0.78158 0.15598 0.0
C1315 C 0.79023 0.75957 0.13806 0.0
C1316 C 0.82917 0.68324 0.13764 0.0
H1317 H 0.88846 0.63664 0.0868 0.0
H1318 H 0.86009 0.67264 0.09868 0.0
H1319 H 0.84352 0.63718 0.13275 0.0
H1320 H 0.80818 0.75986 0.16884 0.0
H1321 H 0.83452 0.72182 0.157 0.0
H1322 H 0.84159 0.75054 0.12328 0.0
C1323 C 0.87327 0.65357 0.10229 0.0
C1324 C 0.84373 0.66189 0.13063 0.0
C1325 C 0.88932 0.63278 0.09546 0.0
C1326 C 0.80285 0.75997 0.16027 0.0
C1327 C 0.81783 0.73816 0.15351 0.0
C1328 C 0.84188 0.72581 0.1254 0.0
C1329 C 0.87409 0.64963 0.11361 0.0
C1330 C 0.85788 0.67227 0.12096 0.0
C1331 C 0.81182 0.73795 0.14233 0.0
C1332 C 0.82799 0.71537 0.13507 0.0
H1333 H 0.9197 0.58391 0.11466 0.0
H1334 H 0.89272 0.6205 0.12653 0.0
H1335 H 0.86797 0.71359 0.11123 0.0
H1336 H 0.7585 0.79738 0.14123 0.0
H1337 H 0.78495 0.75972 0.12948 0.0
C1338 C 0.714 0.78575 0.36294 0.0
C1339 C 0.71523 0.78487 0.35158 0.0
C1340 C 0.69341 0.76627 0.3686 0.0
C1341 C 0.65357 0.69094 0.36635 0.0
H1342 H 0.60551 0.72021 0.39106 0.0
C1343 C 0.56927 0.60901 0.38918 0.0
C1344 C 0.56798 0.61142 0.40051 0.0
C1345 C 0.5855 0.63125 0.38308 0.0
C1346 C 0.61907 0.71159 0.38426 0.0
H1347 H 0.6953 0.76348 0.33721 0.0
H1348 H 0.65939 0.72901 0.34715 0.0
H1349 H 0.63601 0.75772 0.3804 0.0
H1350 H 0.58268 0.63914 0.41435 0.0
H1351 H 0.61189 0.67768 0.40368 0.0
H1352 H 0.63755 0.64476 0.37032 0.0
C1353 C 0.67449 0.74482 0.35165 0.0
C1354 C 0.63637 0.7331 0.37813 0.0
C1355 C 0.69491 0.7646 0.34596 0.0
C1356 C 0.58325 0.63667 0.40562 0.0
C1357 C 0.59978 0.65886 0.3995 0.0
C1358 C 0.63651 0.66941 0.37252 0.0
C1359 C 0.67378 0.74529 0.36302 0.0
C1360 C 0.65387 0.72294 0.36914 0.0
C1361 C 0.60115 0.65634 0.38814 0.0
C1362 C 0.6191 0.67944 0.38157 0.0
H1363 H 0.72924 0.80124 0.36751 0.0
H1364 H 0.69357 0.76692 0.37736 0.0
H1365 H 0.66728 0.68238 0.35957 0.0
H1366 H 0.55747 0.59004 0.38497 0.0
H1367 H 0.58549 0.62891 0.37435 0.0
C1368 C 0.40653 0.56347 0.38586 0.0
C1369 C 0.40268 0.56097 0.3971 0.0
C1370 C 0.38068 0.56844 0.37919 0.0
C1371 C 0.3224 0.57614 0.36583 0.0
H1372 H 0.27818 0.64928 0.37677 0.0
C1373 C 0.24783 0.69219 0.35024 0.0
C1374 C 0.27028 0.70251 0.34273 0.0
C1375 C 0.25329 0.66493 0.35631 0.0
C1376 C 0.2895 0.62834 0.37364 0.0
H1377 H 0.36874 0.55919 0.41014 0.0
H1378 H 0.32317 0.56803 0.39841 0.0
H1379 H 0.308 0.61657 0.38917 0.0
H1380 H 0.31477 0.69211 0.33509 0.0
H1381 H 0.32427 0.64443 0.34555 0.0
H1382 H 0.30596 0.58969 0.35013 0.0
C1383 C 0.34626 0.56628 0.39478 0.0
C1384 C 0.30662 0.60949 0.38076 0.0
C1385 C 0.37225 0.56107 0.40148 0.0
C1386 C 0.29722 0.68441 0.34086 0.0
C1387 C 0.30245 0.65703 0.34678 0.0
C1388 C 0.30542 0.5951 0.35869 0.0
C1389 C 0.35037 0.57118 0.38361 0.0
C1390 C 0.32476 0.5843 0.37682 0.0
C1391 C 0.28102 0.64748 0.35479 0.0
C1392 C 0.29032 0.62238 0.36246 0.0
H1393 H 0.42978 0.5632 0.3823 0.0
H1394 H 0.38486 0.57247 0.37065 0.0
H1395 H 0.33556 0.55645 0.36259 0.0
H1396 H 0.22692 0.70601 0.35177 0.0
H1397 H 0.23645 0.6581 0.36245 0.0
C1398 C 0.23964 0.66767 0.14739 0.0
C1399 C 0.25889 0.69211 0.14365 0.0
C1400 C 0.22895 0.6446 0.14025 0.0
C1401 C 0.20979 0.64041 0.11155 0.0
H1402 H 0.17628 0.55925 0.12001 0.0
C1403 C 0.11136 0.58446 0.08706 0.0
C1404 C 0.08506 0.57772 0.09353 0.0
C1405 C 0.14084 0.58869 0.09177 0.0
C1406 C 0.18578 0.58173 0.11748 0.0
H1407 H 0.28498 0.70993 0.12992 0.0
H1408 H 0.26714 0.66903 0.11747 0.0
H1409 H 0.21654 0.58434 0.13115 0.0
H1410 H 0.06941 0.56769 0.10986 0.0
H1411 H 0.12068 0.5758 0.11812 0.0
H1412 H 0.17812 0.63864 0.09821 0.0
C1413 C 0.2594 0.66817 0.12581 0.0
C1414 C 0.20875 0.59612 0.12386 0.0
C1415 C 0.26969 0.69152 0.13292 0.0
C1416 C 0.08919 0.57339 0.10471 0.0
C1417 C 0.11866 0.57755 0.10941 0.0
C1418 C 0.18707 0.62596 0.10516 0.0
C1419 C 0.23761 0.6454 0.12926 0.0
C1420 C 0.21989 0.62634 0.12124 0.0
C1421 C 0.14458 0.58621 0.10303 0.0
C1422 C 0.17379 0.59717 0.10832 0.0
H1423 H 0.23092 0.66773 0.15563 0.0
H1424 H 0.21196 0.6277 0.1432 0.0
H1425 H 0.21741 0.66382 0.10931 0.0
H1426 H 0.1089 0.58802 0.07842 0.0
H1427 H 0.16047 0.59517 0.08665 0.0
C1428 C 0.11816 0.55554 0.91256 0.0
C1429 C 0.09564 0.57543 0.90792 0.0
C1430 C 0.14528 0.54763 0.90682 0.0
C1431 C 0.20432 0.5356 0.89407 0.0
H1432 H 0.18579 0.51825 0.86395 0.0
C1433 C 0.25455 0.46442 0.85411 0.0
C1434 C 0.25614 0.43422 0.85869 0.0
C1435 C 0.24441 0.48996 0.86031 0.0
C1436 C 0.19174 0.5236 0.87227 0.0
H1437 H 0.08462 0.60485 0.89417 0.0
H1438 H 0.13275 0.59237 0.8843 0.0
H1439 H 0.14918 0.54894 0.87456 0.0
H1440 H 0.25122 0.40739 0.87348 0.0
H1441 H 0.23371 0.45206 0.88437 0.0
H1442 H 0.24574 0.50756 0.89184 0.0
C1443 C 0.12907 0.5818 0.89217 0.0
C1444 C 0.17073 0.54136 0.8784 0.0
C1445 C 0.10162 0.58915 0.89782 0.0
C1446 C 0.24994 0.43044 0.86977 0.0
C1447 C 0.24021 0.45604 0.876 0.0
C1448 C 0.22511 0.51732 0.88796 0.0
C1449 C 0.15064 0.55989 0.89639 0.0
C1450 C 0.17613 0.54667 0.88949 0.0
C1451 C 0.23613 0.48574 0.87122 0.0
C1452 C 0.21845 0.51035 0.8771 0.0
H1453 H 0.11387 0.54455 0.92033 0.0
H1454 H 0.16093 0.53035 0.91032 0.0
H1455 H 0.20971 0.53987 0.90251 0.0
H1456 H 0.25907 0.4679 0.84556 0.0
H1457 H 0.24151 0.51266 0.85646 0.0
C1458 C 0.27025 0.47197 0.65694 0.0
C1459 C 0.27216 0.44214 0.65205 0.0
C1460 C 0.27748 0.49911 0.65103 0.0
C1461 C 0.29889 0.52698 0.62309 0.0
H1462 H 0.35747 0.57963 0.6388 0.0
C1463 C 0.39138 0.59602 0.59973 0.0
C1464 C 0.42181 0.59165 0.60388 0.0
C1465 C 0.36506 0.58984 0.60617 0.0
C1466 C 0.34115 0.56522 0.63427 0.0
H1467 H 0.28019 0.41766 0.63691 0.0
H1468 H 0.29408 0.46429 0.62679 0.0
H1469 H 0.32383 0.54372 0.64867 0.0
H1470 H 0.44842 0.58064 0.61833 0.0
H1471 H 0.40309 0.56838 0.62932 0.0
H1472 H 0.31856 0.54589 0.60864 0.0
C1473 C 0.28663 0.4672 0.6351 0.0
C1474 C 0.32138 0.54489 0.63997 0.0
C1475 C 0.27916 0.44024 0.64097 0.0
C1476 C 0.4253 0.58351 0.61482 0.0
C1477 C 0.39911 0.57698 0.6212 0.0
C1478 C 0.31911 0.54681 0.61739 0.0
C1479 C 0.28694 0.49692 0.64013 0.0
C1480 C 0.30122 0.52425 0.63441 0.0
C1481 C 0.36863 0.57885 0.61685 0.0
C1482 C 0.34171 0.56491 0.62289 0.0
H1483 H 0.2649 0.47428 0.66547 0.0
H1484 H 0.2769 0.52163 0.65512 0.0
H1485 H 0.28289 0.51222 0.61856 0.0
H1486 H 0.3878 0.60233 0.59134 0.0
H1487 H 0.34197 0.59224 0.60261 0.0
C1488 C 0.03646 0.94408 0.06711 0.0
C1489 C 0.0102 0.96395 0.06675 0.0
C1490 C 0.03264 0.91143 0.06776 0.0
C1491 C 0.97216 0.84894 0.06347 0.0
H1492 H 0.03413 0.79633 0.07762 0.0
C1493 C 0.95667 0.71458 0.06971 0.0
C1494 C 0.98122 0.69671 0.06525 0.0
C1495 C 0.95981 0.74719 0.07087 0.0
C1496 C 0.01665 0.81083 0.07366 0.0
H1497 H 0.95948 0.96567 0.06733 0.0
H1498 H 0.9526 0.90902 0.06897 0.0
H1499 H 0.04007 0.85345 0.07803 0.0
H1500 H 0.02867 0.69845 0.05899 0.0
H1501 H 0.03446 0.75537 0.06127 0.0
H1502 H 0.94847 0.80607 0.05935 0.0
C1503 C 0.97622 0.91822 0.06828 0.0
C1504 C 0.02013 0.84355 0.0738 0.0
C1505 C 0.98008 0.95074 0.06739 0.0
C1506 C 0.00932 0.7118 0.06234 0.0
C1507 C 0.0127 0.74424 0.06372 0.0
C1508 C 0.96839 0.81629 0.06352 0.0
C1509 C 0.00241 0.89799 0.0683 0.0
C1510 C -0.00188 0.86311 0.06859 0.0
C1511 C 0.98783 0.76229 0.06784 0.0
C1512 C 0.99077 0.79694 0.06851 0.0
H1513 H 0.05991 0.95379 0.06655 0.0
H1514 H 0.05341 0.89678 0.06757 0.0
H1515 H 0.95503 0.86295 0.05915 0.0
H1516 H 0.93479 0.70342 0.07197 0.0
H1517 H 0.94033 0.76066 0.0741 0.0
C1518 C 0.40784 0.78987 0.3056 0.0
C1519 C 0.38614 0.8146 0.3066 0.0
C1520 C 0.44002 0.79606 0.30511 0.0
C1521 C 0.49846 0.8567 0.31226 0.0
H1522 H 0.55324 0.80681 0.29395 0.0
C1523 C 0.63143 0.88127 0.30899 0.0
C1524 C 0.651 0.85477 0.3099 0.0
C1525 C 0.59907 0.87769 0.30758 0.0
C1526 C 0.53824 0.82083 0.29914 0.0
H1527 H 0.38116 0.8653 0.30752 0.0
H1528 H 0.4373 0.87615 0.30658 0.0
H1529 H 0.49662 0.7983 0.29332 0.0
H1530 H 0.65213 0.80379 0.3096 0.0
H1531 H 0.59566 0.79751 0.30723 0.0
H1532 H 0.54012 0.87909 0.31812 0.0
C1533 C 0.42949 0.85191 0.3064 0.0
C1534 C 0.50581 0.81592 0.2988 0.0
C1535 C 0.39731 0.8457 0.30693 0.0
C1536 C 0.63763 0.82464 0.30906 0.0
C1537 C 0.60533 0.82106 0.30759 0.0
C1538 C 0.53086 0.86169 0.31256 0.0
C1539 C 0.45125 0.82714 0.30556 0.0
C1540 C 0.48556 0.83355 0.30545 0.0
C1541 C 0.58564 0.84753 0.30696 0.0
C1542 C 0.55112 0.84357 0.3061 0.0
H1543 H 0.40004 0.76565 0.30548 0.0
H1544 H 0.45612 0.77638 0.30466 0.0
H1545 H 0.48361 0.87037 0.31761 0.0
H1546 H 0.64099 0.90478 0.30968 0.0
H1547 H 0.58452 0.89853 0.30703 0.0
C1548 C 0.51773 0.21683 0.54787 0.0
C1549 C 0.49404 0.19962 0.55313 0.0
C1550 C 0.51887 0.24961 0.54872 0.0
C1551 C 0.46986 0.31869 0.55494 0.0
H1552 H 0.54964 0.36033 0.55984 0.0
C1553 C 0.48281 0.45327 0.55257 0.0
C1554 C 0.50039 0.46804 0.56075 0.0
C1555 C 0.48284 0.42058 0.55151 0.0
C1556 C 0.52718 0.34901 0.55853 0.0
H1557 H 0.45262 0.20345 0.56325 0.0
H1558 H 0.45473 0.2606 0.56482 0.0
H1559 H 0.54776 0.30302 0.55834 0.0
H1560 H 0.5321 0.45979 0.57419 0.0
H1561 H 0.53231 0.40262 0.57229 0.0
H1562 H 0.4492 0.36456 0.55525 0.0
C1563 C 0.47237 0.24874 0.56 0.0
C1564 C 0.52614 0.31625 0.55756 0.0
C1565 C 0.47133 0.21597 0.55918 0.0
C1566 C 0.51856 0.44927 0.56772 0.0
C1567 C 0.51866 0.41649 0.56664 0.0
C1568 C 0.47092 0.35142 0.55585 0.0
C1569 C 0.49623 0.26592 0.55481 0.0
C1570 C 0.49745 0.30073 0.55577 0.0
C1571 C 0.50054 0.40179 0.55859 0.0
C1572 C 0.49958 0.36696 0.55765 0.0
H1573 H 0.53576 0.20495 0.54324 0.0
H1574 H 0.53736 0.26221 0.54455 0.0
H1575 H 0.44744 0.30746 0.55346 0.0
H1576 H 0.46908 0.46696 0.54691 0.0
H1577 H 0.46911 0.41 0.54509 0.0
C1578 C 0.13421 0.38071 0.80783 0.0
C1579 C 0.15273 0.35392 0.80979 0.0
C1580 C 0.10183 0.37789 0.80627 0.0
C1581 C 0.03899 0.31921 0.80067 0.0
H1582 H 0.98584 0.37992 0.81528 0.0
C1583 C 0.90456 0.30715 0.8001 0.0
C1584 C 0.88884 0.31352 0.80985 0.0
C1585 C 0.93609 0.31525 0.79884 0.0
C1586 C 0.00034 0.36265 0.8112 0.0
H1587 H 0.15174 0.30299 0.8111 0.0
H1588 H 0.09551 0.29823 0.80887 0.0
H1589 H 0.04245 0.38731 0.81525 0.0
H1590 H 0.8935 0.33346 0.82588 0.0
H1591 H 0.94888 0.34671 0.82388 0.0
H1592 H -0.00283 0.29352 0.79719 0.0
C1593 C 0.10592 0.32143 0.80836 0.0
C1594 C 0.03281 0.36716 0.81104 0.0
C1595 C 0.13824 0.32421 0.80983 0.0
C1596 C 0.90508 0.32854 0.81826 0.0
C1597 C 0.93675 0.33627 0.81707 0.0
C1598 C 0.00659 0.31453 0.80094 0.0
C1599 C 0.08724 0.34824 0.80669 0.0
C1600 C 0.05257 0.34519 0.80593 0.0
C1601 C 0.95272 0.3295 0.80737 0.0
C1602 C 0.98689 0.33593 0.80635 0.0
H1603 H 0.14449 0.40398 0.80778 0.0
H1604 H 0.0882 0.399 0.80485 0.0
H1605 H 0.05345 0.30212 0.79649 0.0
H1606 H 0.89236 0.29612 0.79342 0.0
H1607 H 0.94743 0.31029 0.79119 0.0
C1608 C 0.02602 0.20761 0.94078 0.0
C1609 C -0.00199 0.19029 0.94043 0.0
C1610 C 0.02537 0.24047 0.94039 0.0
C1611 C 0.97121 0.30881 0.94367 0.0
H1612 H 0.03862 0.35364 0.92926 0.0
C1613 C 0.96834 0.44285 0.93535 0.0
C1614 C 0.99446 0.45915 0.93942 0.0
C1615 C 0.96854 0.40998 0.93482 0.0
C1616 C 0.01968 0.34135 0.93331 0.0
H1617 H 0.94744 0.19348 0.93917 0.0
H1618 H 0.94616 0.25068 0.9381 0.0
H1619 H 0.03912 0.29626 0.92963 0.0
H1620 H 0.04166 0.45423 0.94569 0.0
H1621 H 0.04231 0.39674 0.94454 0.0
H1622 H 0.95151 0.35417 0.94708 0.0
C1623 C 0.96866 0.23917 0.93905 0.0
C1624 C 0.02003 0.30849 0.93361 0.0
C1625 C 0.96933 0.20636 0.93963 0.0
C1626 C 0.02116 0.44213 0.94261 0.0
C1627 C 0.0216 0.40935 0.94189 0.0
C1628 C 0.97061 0.34164 0.9432 0.0
C1629 C -0.00333 0.25672 0.93944 0.0
C1630 C -0.00406 0.29175 0.93888 0.0
C1631 C 0.99513 0.39298 0.93814 0.0
C1632 C 0.99497 0.35818 0.9381 0.0
H1633 H 0.04839 0.1957 0.94149 0.0
H1634 H 0.04739 0.25308 0.94095 0.0
H1635 H 0.95255 0.29691 0.94798 0.0
H1636 H 0.94744 0.45548 0.93291 0.0
H1637 H 0.9479 0.39782 0.93186 0.0
C1638 C 0.13907 0.82231 0.17507 0.0
C1639 C 0.15086 0.79526 0.18019 0.0
C1640 C 0.10675 0.82769 0.17457 0.0
C1641 C 0.02924 0.78935 0.17737 0.0
H1642 H 0.0016 0.87268 0.18594 0.0
C1643 C 0.89858 0.82779 0.17747 0.0
C1644 C 0.88855 0.84491 0.18659 0.0
C1645 C 0.93041 0.82123 0.1759 0.0
C1646 C 0.00897 0.84928 0.18356 0.0
H1647 H 0.13797 0.7519 0.18828 0.0
H1648 H 0.0816 0.76145 0.18751 0.0
H1649 H 0.05755 0.86176 0.18423 0.0
H1650 H 0.90416 0.86764 0.20136 0.0
H1651 H 0.95956 0.85642 0.19857 0.0
H1652 H 0.98055 0.77672 0.17697 0.0
C1653 C 0.09732 0.77846 0.18388 0.0
C1654 C 0.04098 0.84313 0.18245 0.0
C1655 C 0.12962 0.77316 0.18443 0.0
C1656 C 0.91106 0.85496 0.19415 0.0
C1657 C 0.94284 0.84852 0.19255 0.0
C1658 C -0.00284 0.79556 0.17843 0.0
C1659 C 0.08557 0.80605 0.17911 0.0
C1660 C 0.05148 0.81301 0.17946 0.0
C1661 C 0.95288 0.83177 0.18338 0.0
C1662 C 0.98674 0.82548 0.18168 0.0
H1663 H 0.15481 0.83986 0.17179 0.0
H1664 H 0.09834 0.84901 0.17074 0.0
H1665 H 0.03666 0.76597 0.17498 0.0
H1666 H 0.88197 0.82004 0.1714 0.0
H1667 H 0.93752 0.80849 0.16871 0.0
C1668 C 0.52058 0.70081 0.43742 0.0
C1669 C 0.49188 0.68501 0.43888 0.0
C1670 C 0.52209 0.73358 0.43809 0.0
C1671 C 0.47286 0.80447 0.43571 0.0
H1672 H 0.54306 0.84543 0.44989 0.0
C1673 C 0.49674 0.93739 0.43151 0.0
C1674 C 0.50625 0.95381 0.44083 0.0
C1675 C 0.49458 0.90461 0.43158 0.0
C1676 C 0.52317 0.83435 0.44598 0.0
H1677 H 0.44227 0.69141 0.44218 0.0
H1678 H 0.445 0.74853 0.44352 0.0
H1679 H 0.53984 0.78812 0.44974 0.0
H1680 H 0.52048 0.94856 0.45757 0.0
H1681 H 0.51674 0.89133 0.45769 0.0
H1682 H 0.45598 0.85067 0.43206 0.0
C1683 C 0.46629 0.73555 0.44176 0.0
C1684 C 0.52151 0.80152 0.44579 0.0
C1685 C 0.46479 0.70277 0.44111 0.0
C1686 C 0.51353 0.93664 0.45022 0.0
C1687 C 0.51138 0.90384 0.45028 0.0
C1688 C 0.47455 0.83728 0.43588 0.0
C1689 C 0.49493 0.75133 0.44021 0.0
C1690 C 0.49639 0.78621 0.44062 0.0
C1691 C 0.50188 0.88746 0.44096 0.0
C1692 C 0.49978 0.85259 0.44098 0.0
H1693 H 0.54197 0.68788 0.43583 0.0
H1694 H 0.54446 0.74505 0.43676 0.0
H1695 H 0.45337 0.7934 0.43157 0.0
H1696 H 0.4915 0.94978 0.42408 0.0
H1697 H 0.4877 0.89266 0.42421 0.0
C1698 C 0.63154 0.2635 0.69108 0.0
C1699 C 0.65042 0.2902 0.6894 0.0
C1700 C 0.59942 0.26666 0.69312 0.0
C1701 C 0.53774 0.32541 0.70026 0.0
H1702 H 0.48328 0.26749 0.68495 0.0
C1703 C 0.4027 0.33695 0.70176 0.0
C1704 C 0.38669 0.33169 0.692 0.0
C1705 C 0.43454 0.32953 0.70268 0.0
C1706 C 0.49815 0.28399 0.68923 0.0
H1707 H 0.65032 0.34131 0.68917 0.0
H1708 H 0.59445 0.34672 0.69219 0.0
H1709 H 0.53971 0.25947 0.68452 0.0
H1710 H 0.39141 0.31506 0.67551 0.0
H1711 H 0.44704 0.30287 0.67698 0.0
H1712 H 0.49626 0.35099 0.70443 0.0
C1713 C 0.60444 0.32329 0.69211 0.0
C1714 C 0.53054 0.27909 0.68913 0.0
C1715 C 0.63655 0.32015 0.69018 0.0
C1716 C 0.40308 0.31893 0.68317 0.0
C1717 C 0.43494 0.31182 0.68405 0.0
C1718 C 0.50535 0.3305 0.70027 0.0
C1719 C 0.58538 0.29659 0.69344 0.0
C1720 C 0.55079 0.30005 0.69449 0.0
C1721 C 0.45108 0.31699 0.69382 0.0
C1722 C 0.48521 0.31015 0.69459 0.0
H1723 H 0.64127 0.24005 0.69053 0.0
H1724 H 0.58554 0.2456 0.69429 0.0
H1725 H 0.5526 0.34171 0.70464 0.0
H1726 H 0.39047 0.34635 0.70873 0.0
H1727 H 0.4461 0.33339 0.71037 0.0
loop_
_geom_bond_atom_site_label_1
_geom_bond_atom_site_label_2
_geom_bond_distance
_geom_bond_site_symmetry_2
_ccdc_geom_bond_type
C0 C1 1.351 1_545 S
C0 N3 1.368 1_655 S
C0 H5 0.931 . S
C1 C0 1.351 1_565 S
C1 N2 1.373 1_655 S
C1 H29 0.930 . S
N2 C1 1.373 1_455 S
N2 C4 1.340 . S
N3 C0 1.368 1_455 S
N3 C4 1.321 1_545 S
N3 Co6 2.135 . S
C4 N2 1.340 . S
C4 N3 1.321 1_565 S
C4 H28 0.930 . S
H5 C0 0.931 . S
Co6 N3 2.135 . S
Co6 N9 2.121 . S
Co6 O14 2.055 . S
Co6 O17 2.039 . S
Co6 N20 2.140 1_455 S
C7 O8 1.227 . S
C7 O17 1.265 . S
O8 C7 1.227 . S
N9 Co6 2.121 . S
N9 C11 1.375 . S
N9 C12 1.313 . S
C10 C11 1.338 . S
C10 N13 1.377 . S
C10 H30 0.930 . S
C11 N9 1.375 . S
C11 C10 1.338 . S
C11 H15 0.931 . S
C12 N9 1.313 . S
C12 N13 1.344 . S
C12 H16 0.930 . S
N13 C10 1.377 . S
N13 C12 1.344 . S
O14 Co6 2.055 . S
O14 C18 1.253 . S
H15 C11 0.931 . S
H16 C12 0.930 . S
O17 Co6 2.039 . S
O17 C7 1.265 . S
C18 O14 1.253 . S
C18 O19 1.227 1_455 S
O19 C18 1.227 1_655 S
N20 Co6 2.140 1_655 S
N20 C23 1.346 . S
N20 C24 1.345 . S
C21 C22 1.387 . S
C21 C25 1.391 . S
C22 C21 1.387 . S
C22 C23 1.369 . S
C22 H31 0.929 . S
C23 N20 1.346 . S
C23 C22 1.369 . S
C23 H26 0.928 . S
C24 N20 1.345 . S
C24 C25 1.371 . S
C24 H27 0.931 . S
C25 C21 1.391 . S
C25 C24 1.371 . S
C25 H32 0.930 . S
H26 C23 0.928 . S
H27 C24 0.931 . S
H28 C4 0.930 . S
H29 C1 0.930 . S
H30 C10 0.930 . S
H31 C22 0.929 . S
H32 C25 0.930 . S
C33 C34 1.351 . S
C33 N36 1.368 . S
C33 H38 0.931 . S
C34 C33 1.351 . S
C34 N35 1.373 . S
C34 H62 0.930 . S
N35 C34 1.373 . S
N35 C37 1.340 . S
N36 C33 1.368 . S
N36 C37 1.321 . S
N36 Co39 2.135 . S
C37 N35 1.340 . S
C37 N36 1.321 . S
C37 H61 0.930 . S
H38 C33 0.931 . S
Co39 N36 2.135 . S
Co39 N42 2.121 . S
Co39 O47 2.055 . S
Co39 O50 2.039 . S
Co39 N53 2.140 . S
C40 O41 1.227 . S
C40 O50 1.265 . S
O41 C40 1.227 . S
N42 Co39 2.121 . S
N42 C44 1.375 . S
N42 C45 1.313 . S
C43 C44 1.338 . S
C43 N46 1.377 . S
C43 H63 0.930 . S
C44 N42 1.375 . S
C44 C43 1.338 . S
C44 H48 0.931 . S
C45 N42 1.313 . S
C45 N46 1.344 . S
C45 H49 0.930 . S
N46 C43 1.377 . S
N46 C45 1.344 . S
O47 Co39 2.055 . S
O47 C51 1.253 . S
H48 C44 0.931 . S
H49 C45 0.930 . S
O50 Co39 2.039 . S
O50 C40 1.265 . S
C51 O47 1.253 . S
C51 O52 1.227 . S
O52 C51 1.227 . S
N53 Co39 2.140 . S
N53 C56 1.346 . S
N53 C57 1.345 . S
C54 C55 1.387 . S
C54 C58 1.391 . S
C55 C54 1.387 . S
C55 C56 1.369 . S
C55 H64 0.929 . S
C56 N53 1.346 . S
C56 C55 1.369 . S
C56 H59 0.928 . S
C57 N53 1.345 . S
C57 C58 1.371 . S
C57 H60 0.931 . S
C58 C54 1.391 . S
C58 C57 1.371 . S
C58 H65 0.930 . S
H59 C56 0.928 . S
H60 C57 0.931 . S
H61 C37 0.930 . S
H62 C34 0.930 . S
H63 C43 0.930 . S
H64 C55 0.929 . S
H65 C58 0.930 . S
C66 C67 1.351 . S
C66 N69 1.368 . S
C66 H71 0.931 . S
C67 C66 1.351 . S
C67 N68 1.373 . S
C67 H95 0.930 . S
N68 C67 1.373 . S
N68 C70 1.340 . S
N69 C66 1.368 . S
N69 C70 1.321 . S
N69 Co72 2.135 . S
C70 N68 1.340 . S
C70 N69 1.321 . S
C70 H94 0.930 . S
H71 C66 0.931 . S
Co72 N69 2.135 . S
Co72 N75 2.121 . S
Co72 O80 2.055 . S
Co72 O83 2.039 . S
Co72 N86 2.140 . S
C73 O74 1.227 . S
C73 O83 1.265 . S
O74 C73 1.227 . S
N75 Co72 2.121 . S
N75 C77 1.375 . S
N75 C78 1.313 . S
C76 C77 1.338 . S
C76 N79 1.377 1_545 S
C76 H96 0.930 1_545 S
C77 N75 1.375 . S
C77 C76 1.338 . S
C77 H81 0.931 . S
C78 N75 1.313 . S
C78 N79 1.344 1_545 S
C78 H82 0.930 . S
N79 C76 1.377 1_565 S
N79 C78 1.344 1_565 S
O80 Co72 2.055 . S
O80 C84 1.253 . S
H81 C77 0.931 . S
H82 C78 0.930 . S
O83 Co72 2.039 . S
O83 C73 1.265 . S
C84 O80 1.253 . S
C84 O85 1.227 . S
O85 C84 1.227 . S
N86 Co72 2.140 . S
N86 C89 1.346 . S
N86 C90 1.345 . S
C87 C88 1.387 . S
C87 C91 1.391 . S
C88 C87 1.387 . S
C88 C89 1.369 . S
C88 H97 0.929 . S
C89 N86 1.346 . S
C89 C88 1.369 . S
C89 H92 0.928 . S
C90 N86 1.345 . S
C90 C91 1.371 . S
C90 H93 0.931 . S
C91 C87 1.391 . S
C91 C90 1.371 . S
C91 H98 0.930 . S
H92 C89 0.928 . S
H93 C90 0.931 . S
H94 C70 0.930 . S
H95 C67 0.930 . S
H96 C76 0.930 1_565 S
H97 C88 0.929 . S
H98 C91 0.930 . S
C99 C100 1.351 . S
C99 N102 1.368 . S
C99 H104 0.931 . S
C100 C99 1.351 . S
C100 N101 1.373 . S
C100 H128 0.930 . S
N101 C100 1.373 . S
N101 C103 1.340 . S
N102 C99 1.368 . S
N102 C103 1.321 . S
N102 Co105 2.135 . S
C103 N101 1.340 . S
C103 N102 1.321 . S
C103 H127 0.930 . S
H104 C99 0.931 . S
Co105 N102 2.135 . S
Co105 N108 2.121 . S
Co105 O113 2.055 . S
Co105 O116 2.039 . S
Co105 N119 2.140 . S
C106 O107 1.227 . S
C106 O116 1.265 . S
O107 C106 1.227 . S
N108 Co105 2.121 . S
N108 C110 1.375 . S
N108 C111 1.313 . S
C109 C110 1.338 . S
C109 N112 1.377 . S
C109 H129 0.930 . S
C110 N108 1.375 . S
C110 C109 1.338 . S
C110 H114 0.931 . S
C111 N108 1.313 . S
C111 N112 1.344 . S
C111 H115 0.930 . S
N112 C109 1.377 . S
N112 C111 1.344 . S
O113 Co105 2.055 . S
O113 C117 1.253 . S
H114 C110 0.931 . S
H115 C111 0.930 . S
O116 Co105 2.039 . S
O116 C106 1.265 . S
C117 O113 1.253 . S
C117 O118 1.227 . S
O118 C117 1.227 . S
N119 Co105 2.140 . S
N119 C122 1.346 . S
N119 C123 1.345 . S
C120 C121 1.387 . S
C120 C124 1.391 . S
C121 C120 1.387 . S
C121 C122 1.369 . S
C121 H130 0.929 . S
C122 N119 1.346 . S
C122 C121 1.369 . S
C122 H125 0.928 . S
C123 N119 1.345 . S
C123 C124 1.371 . S
C123 H126 0.931 . S
C124 C120 1.391 . S
C124 C123 1.371 . S
C124 H131 0.930 . S
H125 C122 0.928 . S
H126 C123 0.931 . S
H127 C103 0.930 . S
H128 C100 0.930 . S
H129 C109 0.930 . S
H130 C121 0.929 . S
H131 C124 0.930 . S
C132 C133 1.351 . S
C132 N135 1.368 1_655 S
C132 H137 0.931 . S
C133 C132 1.351 . S
C133 N134 1.373 1_655 S
C133 H161 0.930 . S
N134 C133 1.373 1_455 S
N134 C136 1.340 . S
N135 C132 1.368 1_455 S
N135 C136 1.321 . S
N135 Co138 2.135 . S
C136 N134 1.340 . S
C136 N135 1.321 . S
C136 H160 0.930 . S
H137 C132 0.931 . S
Co138 N135 2.135 . S
Co138 N141 2.121 . S
Co138 O146 2.055 . S
Co138 O149 2.039 . S
Co138 N152 2.140 1_455 S
C139 O140 1.227 . S
C139 O149 1.265 . S
O140 C139 1.227 . S
N141 Co138 2.121 . S
N141 C143 1.375 . S
N141 C144 1.313 . S
C142 C143 1.338 . S
C142 N145 1.377 1_545 S
C142 H162 0.930 1_545 S
C143 N141 1.375 . S
C143 C142 1.338 . S
C143 H147 0.931 . S
C144 N141 1.313 . S
C144 N145 1.344 1_545 S
C144 H148 0.930 . S
N145 C142 1.377 1_565 S
N145 C144 1.344 1_565 S
O146 Co138 2.055 . S
O146 C150 1.253 . S
H147 C143 0.931 . S
H148 C144 0.930 . S
O149 Co138 2.039 . S
O149 C139 1.265 . S
C150 O146 1.253 . S
C150 O151 1.227 1_455 S
O151 C150 1.227 1_655 S
N152 Co138 2.140 1_655 S
N152 C155 1.346 . S
N152 C156 1.345 . S
C153 C154 1.387 . S
C153 C157 1.391 . S
C154 C153 1.387 . S
C154 C155 1.369 . S
C154 H163 0.929 . S
C155 N152 1.346 . S
C155 C154 1.369 . S
C155 H158 0.928 . S
C156 N152 1.345 . S
C156 C157 1.371 . S
C156 H159 0.931 . S
C157 C153 1.391 . S
C157 C156 1.371 . S
C157 H164 0.930 . S
H158 C155 0.928 . S
H159 C156 0.931 . S
H160 C136 0.930 . S
H161 C133 0.930 . S
H162 C142 0.930 1_565 S
H163 C154 0.929 . S
H164 C157 0.930 . S
C165 C166 1.351 . S
C165 N168 1.368 . S
C165 H170 0.931 . S
C166 C165 1.351 . S
C166 N167 1.373 . S
C166 H194 0.930 . S
N167 C166 1.373 . S
N167 C169 1.340 . S
N168 C165 1.368 . S
N168 C169 1.321 . S
N168 Co171 2.135 . S
C169 N167 1.340 . S
C169 N168 1.321 . S
C169 H193 0.930 . S
H170 C165 0.931 . S
Co171 N168 2.135 . S
Co171 N174 2.121 . S
Co171 O179 2.055 . S
Co171 O182 2.039 . S
Co171 N185 2.140 . S
C172 O173 1.227 . S
C172 O182 1.265 . S
O173 C172 1.227 . S
N174 Co171 2.121 . S
N174 C176 1.375 . S
N174 C177 1.313 . S
C175 C176 1.338 . S
C175 N178 1.377 . S
C175 H195 0.930 . S
C176 N174 1.375 . S
C176 C175 1.338 . S
C176 H180 0.931 . S
C177 N174 1.313 . S
C177 N178 1.344 . S
C177 H181 0.930 . S
N178 C175 1.377 . S
N178 C177 1.344 . S
O179 Co171 2.055 . S
O179 C183 1.253 . S
H180 C176 0.931 . S
H181 C177 0.930 . S
O182 Co171 2.039 . S
O182 C172 1.265 . S
C183 O179 1.253 . S
C183 O184 1.227 . S
O184 C183 1.227 . S
N185 Co171 2.140 . S
N185 C188 1.346 . S
N185 C189 1.345 . S
C186 C187 1.387 . S
C186 C190 1.391 . S
C187 C186 1.387 . S
C187 C188 1.369 . S
C187 H196 0.929 . S
C188 N185 1.346 . S
C188 C187 1.369 . S
C188 H191 0.928 . S
C189 N185 1.345 . S
C189 C190 1.371 . S
C189 H192 0.931 . S
C190 C186 1.391 . S
C190 C189 1.371 . S
C190 H197 0.930 . S
H191 C188 0.928 . S
H192 C189 0.931 . S
H193 C169 0.930 . S
H194 C166 0.930 . S
H195 C175 0.930 . S
H196 C187 0.929 . S
H197 C190 0.930 . S
C198 C199 1.351 1_545 S
C198 N201 1.368 . S
C198 H203 0.931 . S
C199 C198 1.351 1_565 S
C199 N200 1.373 . S
C199 H227 0.930 . S
N200 C199 1.373 . S
N200 C202 1.340 . S
N201 C198 1.368 . S
N201 C202 1.321 1_545 S
N201 Co204 2.135 . S
C202 N200 1.340 . S
C202 N201 1.321 1_565 S
C202 H226 0.930 . S
H203 C198 0.931 . S
Co204 N201 2.135 . S
Co204 N207 2.121 . S
Co204 O212 2.055 . S
Co204 O215 2.039 . S
Co204 N218 2.140 . S
C205 O206 1.227 . S
C205 O215 1.265 . S
O206 C205 1.227 . S
N207 Co204 2.121 . S
N207 C209 1.375 . S
N207 C210 1.313 . S
C208 C209 1.338 . S
C208 N211 1.377 . S
C208 H228 0.930 . S
C209 N207 1.375 . S
C209 C208 1.338 . S
C209 H213 0.931 . S
C210 N207 1.313 . S
C210 N211 1.344 . S
C210 H214 0.930 . S
N211 C208 1.377 . S
N211 C210 1.344 . S
O212 Co204 2.055 . S
O212 C216 1.253 . S
H213 C209 0.931 . S
H214 C210 0.930 . S
O215 Co204 2.039 . S
O215 C205 1.265 . S
C216 O212 1.253 . S
C216 O217 1.227 . S
O217 C216 1.227 . S
N218 Co204 2.140 . S
N218 C221 1.346 . S
N218 C222 1.345 . S
C219 C220 1.387 . S
C219 C223 1.391 . S
C220 C219 1.387 . S
C220 C221 1.369 . S
C220 H229 0.929 . S
C221 N218 1.346 . S
C221 C220 1.369 . S
C221 H224 0.928 . S
C222 N218 1.345 . S
C222 C223 1.371 . S
C222 H225 0.931 . S
C223 C219 1.391 . S
C223 C222 1.371 . S
C223 H230 0.930 . S
H224 C221 0.928 . S
H225 C222 0.931 . S
H226 C202 0.930 . S
H227 C199 0.930 . S
H228 C208 0.930 . S
H229 C220 0.929 . S
H230 C223 0.930 . S
C231 C232 1.351 . S
C231 N234 1.368 . S
C231 H236 0.931 . S
C232 C231 1.351 . S
C232 N233 1.373 . S
C232 H260 0.930 . S
N233 C232 1.373 . S
N233 C235 1.340 . S
N234 C231 1.368 . S
N234 C235 1.321 . S
N234 Co237 2.135 . S
C235 N233 1.340 . S
C235 N234 1.321 . S
C235 H259 0.930 . S
H236 C231 0.931 . S
Co237 N234 2.135 . S
Co237 N240 2.121 . S
Co237 O245 2.055 . S
Co237 O248 2.039 . S
Co237 N251 2.140 . S
C238 O239 1.227 . S
C238 O248 1.265 . S
O239 C238 1.227 . S
N240 Co237 2.121 . S
N240 C242 1.375 . S
N240 C243 1.313 . S
C241 C242 1.338 . S
C241 N244 1.377 . S
C241 H261 0.930 . S
C242 N240 1.375 . S
C242 C241 1.338 . S
C242 H246 0.931 . S
C243 N240 1.313 . S
C243 N244 1.344 . S
C243 H247 0.930 . S
N244 C241 1.377 . S
N244 C243 1.344 . S
O245 Co237 2.055 . S
O245 C249 1.253 . S
H246 C242 0.931 . S
H247 C243 0.930 . S
O248 Co237 2.039 . S
O248 C238 1.265 . S
C249 O245 1.253 . S
C249 O250 1.227 . S
O250 C249 1.227 . S
N251 Co237 2.140 . S
N251 C254 1.346 . S
N251 C255 1.345 . S
C252 C253 1.387 . S
C252 C256 1.391 . S
C253 C252 1.387 . S
C253 C254 1.369 . S
C253 H262 0.929 . S
C254 N251 1.346 . S
C254 C253 1.369 . S
C254 H257 0.928 . S
C255 N251 1.345 . S
C255 C256 1.371 . S
C255 H258 0.931 . S
C256 C252 1.391 . S
C256 C255 1.371 . S
C256 H263 0.930 . S
H257 C254 0.928 . S
H258 C255 0.931 . S
H259 C235 0.930 . S
H260 C232 0.930 . S
H261 C241 0.930 . S
H262 C253 0.929 . S
H263 C256 0.930 . S
C264 C265 1.351 . S
C264 N267 1.368 . S
C264 H269 0.931 . S
C265 C264 1.351 . S
C265 N266 1.373 . S
C265 H293 0.930 . S
N266 C265 1.373 . S
N266 C268 1.340 . S
N267 C264 1.368 . S
N267 C268 1.321 . S
N267 Co270 2.135 . S
C268 N266 1.340 . S
C268 N267 1.321 . S
C268 H292 0.930 . S
H269 C264 0.931 . S
Co270 N267 2.135 . S
Co270 N273 2.121 . S
Co270 O278 2.055 . S
Co270 O281 2.039 . S
Co270 N284 2.140 . S
C271 O272 1.227 . S
C271 O281 1.265 . S
O272 C271 1.227 . S
N273 Co270 2.121 . S
N273 C275 1.375 . S
N273 C276 1.313 . S
C274 C275 1.338 . S
C274 N277 1.377 . S
C274 H294 0.930 . S
C275 N273 1.375 . S
C275 C274 1.338 . S
C275 H279 0.931 . S
C276 N273 1.313 . S
C276 N277 1.344 . S
C276 H280 0.930 . S
N277 C274 1.377 . S
N277 C276 1.344 . S
O278 Co270 2.055 . S
O278 C282 1.253 . S
H279 C275 0.931 . S
H280 C276 0.930 . S
O281 Co270 2.039 . S
O281 C271 1.265 . S
C282 O278 1.253 . S
C282 O283 1.227 . S
O283 C282 1.227 . S
N284 Co270 2.140 . S
N284 C287 1.346 . S
N284 C288 1.345 . S
C285 C286 1.387 . S
C285 C289 1.391 . S
C286 C285 1.387 . S
C286 C287 1.369 . S
C286 H295 0.929 . S
C287 N284 1.346 . S
C287 C286 1.369 . S
C287 H290 0.928 . S
C288 N284 1.345 . S
C288 C289 1.371 . S
C288 H291 0.931 . S
C289 C285 1.391 . S
C289 C288 1.371 . S
C289 H296 0.930 . S
H290 C287 0.928 . S
H291 C288 0.931 . S
H292 C268 0.930 . S
H293 C265 0.930 . S
H294 C274 0.930 . S
H295 C286 0.929 . S
H296 C289 0.930 . S
C297 C298 1.351 . S
C297 N300 1.368 . S
C297 H302 0.931 . S
C298 C297 1.351 . S
C298 N299 1.373 . S
C298 H326 0.930 . S
N299 C298 1.373 . S
N299 C301 1.340 . S
N300 C297 1.368 . S
N300 C301 1.321 . S
N300 Co303 2.135 . S
C301 N299 1.340 . S
C301 N300 1.321 . S
C301 H325 0.930 . S
H302 C297 0.931 . S
Co303 N300 2.135 . S
Co303 N306 2.121 . S
Co303 O311 2.055 . S
Co303 O314 2.039 . S
Co303 N317 2.140 . S
C304 O305 1.227 . S
C304 O314 1.265 . S
O305 C304 1.227 . S
N306 Co303 2.121 . S
N306 C308 1.375 . S
N306 C309 1.313 . S
C307 C308 1.338 . S
C307 N310 1.377 . S
C307 H327 0.930 . S
C308 N306 1.375 . S
C308 C307 1.338 . S
C308 H312 0.931 . S
C309 N306 1.313 . S
C309 N310 1.344 . S
C309 H313 0.930 . S
N310 C307 1.377 . S
N310 C309 1.344 . S
O311 Co303 2.055 . S
O311 C315 1.253 . S
H312 C308 0.931 . S
H313 C309 0.930 . S
O314 Co303 2.039 . S
O314 C304 1.265 . S
C315 O311 1.253 . S
C315 O316 1.227 . S
O316 C315 1.227 . S
N317 Co303 2.140 . S
N317 C320 1.346 . S
N317 C321 1.345 . S
C318 C319 1.387 . S
C318 C322 1.391 . S
C319 C318 1.387 . S
C319 C320 1.369 . S
C319 H328 0.929 . S
C320 N317 1.346 . S
C320 C319 1.369 . S
C320 H323 0.928 . S
C321 N317 1.345 . S
C321 C322 1.371 . S
C321 H324 0.931 . S
C322 C318 1.391 . S
C322 C321 1.371 . S
C322 H329 0.930 . S
H323 C320 0.928 . S
H324 C321 0.931 . S
H325 C301 0.930 . S
H326 C298 0.930 . S
H327 C307 0.930 . S
H328 C319 0.929 . S
H329 C322 0.930 . S
C330 C331 1.351 . S
C330 N333 1.368 . S
C330 H335 0.931 . S
C331 C330 1.351 . S
C331 N332 1.373 . S
C331 H359 0.930 . S
N332 C331 1.373 . S
N332 C334 1.340 . S
N333 C330 1.368 . S
N333 C334 1.321 . S
N333 Co336 2.135 . S
C334 N332 1.340 . S
C334 N333 1.321 . S
C334 H358 0.930 . S
H335 C330 0.931 . S
Co336 N333 2.135 . S
Co336 N339 2.121 . S
Co336 O344 2.055 . S
Co336 O347 2.039 . S
Co336 N350 2.140 . S
C337 O338 1.227 . S
C337 O347 1.265 . S
O338 C337 1.227 . S
N339 Co336 2.121 . S
N339 C341 1.375 . S
N339 C342 1.313 . S
C340 C341 1.338 . S
C340 N343 1.377 . S
C340 H360 0.930 . S
C341 N339 1.375 . S
C341 C340 1.338 . S
C341 H345 0.931 . S
C342 N339 1.313 . S
C342 N343 1.344 . S
C342 H346 0.930 . S
N343 C340 1.377 . S
N343 C342 1.344 . S
O344 Co336 2.055 . S
O344 C348 1.253 . S
H345 C341 0.931 . S
H346 C342 0.930 . S
O347 Co336 2.039 . S
O347 C337 1.265 . S
C348 O344 1.253 . S
C348 O349 1.227 . S
O349 C348 1.227 . S
N350 Co336 2.140 . S
N350 C353 1.346 . S
N350 C354 1.345 . S
C351 C352 1.387 . S
C351 C355 1.391 . S
C352 C351 1.387 . S
C352 C353 1.369 . S
C352 H361 0.929 . S
C353 N350 1.346 . S
C353 C352 1.369 . S
C353 H356 0.928 . S
C354 N350 1.345 . S
C354 C355 1.371 . S
C354 H357 0.931 . S
C355 C351 1.391 . S
C355 C354 1.371 . S
C355 H362 0.930 . S
H356 C353 0.928 . S
H357 C354 0.931 . S
H358 C334 0.930 . S
H359 C331 0.930 . S
H360 C340 0.930 . S
H361 C352 0.929 . S
H362 C355 0.930 . S
C363 C364 1.351 . S
C363 N366 1.368 . S
C363 H368 0.931 . S
C364 C363 1.351 . S
C364 N365 1.373 . S
C364 H392 0.930 . S
N365 C364 1.373 . S
N365 C367 1.340 . S
N366 C363 1.368 . S
N366 C367 1.321 . S
N366 Co369 2.135 . S
C367 N365 1.340 . S
C367 N366 1.321 . S
C367 H391 0.930 . S
H368 C363 0.931 . S
Co369 N366 2.135 . S
Co369 N372 2.121 . S
Co369 O377 2.055 . S
Co369 O380 2.039 . S
Co369 N383 2.140 . S
C370 O371 1.227 . S
C370 O380 1.265 . S
O371 C370 1.227 . S
N372 Co369 2.121 . S
N372 C374 1.375 . S
N372 C375 1.313 . S
C373 C374 1.338 . S
C373 N376 1.377 . S
C373 H393 0.930 . S
C374 N372 1.375 . S
C374 C373 1.338 . S
C374 H378 0.931 . S
C375 N372 1.313 . S
C375 N376 1.344 . S
C375 H379 0.930 . S
N376 C373 1.377 . S
N376 C375 1.344 . S
O377 Co369 2.055 . S
O377 C381 1.253 . S
H378 C374 0.931 . S
H379 C375 0.930 . S
O380 Co369 2.039 . S
O380 C370 1.265 . S
C381 O377 1.253 . S
C381 O382 1.227 . S
O382 C381 1.227 . S
N383 Co369 2.140 . S
N383 C386 1.346 . S
N383 C387 1.345 . S
C384 C385 1.387 . S
C384 C388 1.391 . S
C385 C384 1.387 . S
C385 C386 1.369 . S
C385 H394 0.929 . S
C386 N383 1.346 . S
C386 C385 1.369 . S
C386 H389 0.928 . S
C387 N383 1.345 . S
C387 C388 1.371 . S
C387 H390 0.931 . S
C388 C384 1.391 . S
C388 C387 1.371 . S
C388 H395 0.930 . S
H389 C386 0.928 . S
H390 C387 0.931 . S
H391 C367 0.930 . S
H392 C364 0.930 . S
H393 C373 0.930 . S
H394 C385 0.929 . S
H395 C388 0.930 . S
C396 C397 1.351 . S
C396 N399 1.368 . S
C396 H401 0.931 . S
C397 C396 1.351 . S
C397 N398 1.373 . S
C397 H425 0.930 . S
N398 C397 1.373 . S
N398 C400 1.340 . S
N399 C396 1.368 . S
N399 C400 1.321 . S
N399 Co402 2.135 . S
C400 N398 1.340 . S
C400 N399 1.321 . S
C400 H424 0.930 . S
H401 C396 0.931 . S
Co402 N399 2.135 . S
Co402 N405 2.121 . S
Co402 O410 2.055 . S
Co402 O413 2.039 . S
Co402 N416 2.140 . S
C403 O404 1.227 . S
C403 O413 1.265 . S
O404 C403 1.227 . S
N405 Co402 2.121 . S
N405 C407 1.375 . S
N405 C408 1.313 . S
C406 C407 1.338 . S
C406 N409 1.377 . S
C406 H426 0.930 . S
C407 N405 1.375 . S
C407 C406 1.338 . S
C407 H411 0.931 . S
C408 N405 1.313 . S
C408 N409 1.344 . S
C408 H412 0.930 . S
N409 C406 1.377 . S
N409 C408 1.344 . S
O410 Co402 2.055 . S
O410 C414 1.253 . S
H411 C407 0.931 . S
H412 C408 0.930 . S
O413 Co402 2.039 . S
O413 C403 1.265 . S
C414 O410 1.253 . S
C414 O415 1.227 . S
O415 C414 1.227 . S
N416 Co402 2.140 . S
N416 C419 1.346 . S
N416 C420 1.345 . S
C417 C418 1.387 . S
C417 C421 1.391 . S
C418 C417 1.387 . S
C418 C419 1.369 . S
C418 H427 0.929 . S
C419 N416 1.346 . S
C419 C418 1.369 . S
C419 H422 0.928 . S
C420 N416 1.345 . S
C420 C421 1.371 . S
C420 H423 0.931 . S
C421 C417 1.391 . S
C421 C420 1.371 . S
C421 H428 0.930 . S
H422 C419 0.928 . S
H423 C420 0.931 . S
H424 C400 0.930 . S
H425 C397 0.930 . S
H426 C406 0.930 . S
H427 C418 0.929 . S
H428 C421 0.930 . S
C429 C430 1.351 . S
C429 N432 1.368 . S
C429 H434 0.931 . S
C430 C429 1.351 . S
C430 N431 1.373 . S
C430 H458 0.930 . S
N431 C430 1.373 . S
N431 C433 1.340 1_455 S
N432 C429 1.368 . S
N432 C433 1.321 1_455 S
N432 Co435 2.135 . S
C433 N431 1.340 1_655 S
C433 N432 1.321 1_655 S
C433 H457 0.930 . S
H434 C429 0.931 . S
Co435 N432 2.135 . S
Co435 N438 2.121 . S
Co435 O443 2.055 1_455 S
Co435 O446 2.039 1_455 S
Co435 N449 2.140 . S
C436 O437 1.227 . S
C436 O446 1.265 . S
O437 C436 1.227 . S
N438 Co435 2.121 . S
N438 C440 1.375 1_455 S
N438 C441 1.313 . S
C439 C440 1.338 . S
C439 N442 1.377 1_655 S
C439 H459 0.930 . S
C440 N438 1.375 1_655 S
C440 C439 1.338 . S
C440 H444 0.931 . S
C441 N438 1.313 . S
C441 N442 1.344 . S
C441 H445 0.930 . S
N442 C439 1.377 1_455 S
N442 C441 1.344 . S
O443 Co435 2.055 1_655 S
O443 C447 1.253 1_655 S
H444 C440 0.931 . S
H445 C441 0.930 . S
O446 Co435 2.039 1_655 S
O446 C436 1.265 . S
C447 O443 1.253 1_455 S
C447 O448 1.227 . S
O448 C447 1.227 . S
N449 Co435 2.140 . S
N449 C452 1.346 . S
N449 C453 1.345 . S
C450 C451 1.387 . S
C450 C454 1.391 . S
C451 C450 1.387 . S
C451 C452 1.369 . S
C451 H460 0.929 . S
C452 N449 1.346 . S
C452 C451 1.369 . S
C452 H455 0.928 . S
C453 N449 1.345 . S
C453 C454 1.371 . S
C453 H456 0.931 . S
C454 C450 1.391 . S
C454 C453 1.371 . S
C454 H461 0.930 . S
H455 C452 0.928 . S
H456 C453 0.931 . S
H457 C433 0.930 . S
H458 C430 0.930 . S
H459 C439 0.930 . S
H460 C451 0.929 . S
H461 C454 0.930 . S
C462 C463 1.351 . S
C462 N465 1.368 . S
C462 H467 0.931 . S
C463 C462 1.351 . S
C463 N464 1.373 . S
C463 H491 0.930 . S
N464 C463 1.373 . S
N464 C466 1.340 . S
N465 C462 1.368 . S
N465 C466 1.321 . S
N465 Co468 2.135 . S
C466 N464 1.340 . S
C466 N465 1.321 . S
C466 H490 0.930 . S
H467 C462 0.931 . S
Co468 N465 2.135 . S
Co468 N471 2.121 . S
Co468 O476 2.055 . S
Co468 O479 2.039 . S
Co468 N482 2.140 . S
C469 O470 1.227 . S
C469 O479 1.265 . S
O470 C469 1.227 . S
N471 Co468 2.121 . S
N471 C473 1.375 . S
N471 C474 1.313 . S
C472 C473 1.338 . S
C472 N475 1.377 . S
C472 H492 0.930 . S
C473 N471 1.375 . S
C473 C472 1.338 . S
C473 H477 0.931 . S
C474 N471 1.313 . S
C474 N475 1.344 . S
C474 H478 0.930 . S
N475 C472 1.377 . S
N475 C474 1.344 . S
O476 Co468 2.055 . S
O476 C480 1.253 . S
H477 C473 0.931 . S
H478 C474 0.930 . S
O479 Co468 2.039 . S
O479 C469 1.265 . S
C480 O476 1.253 . S
C480 O481 1.227 . S
O481 C480 1.227 . S
N482 Co468 2.140 . S
N482 C485 1.346 . S
N482 C486 1.345 . S
C483 C484 1.387 . S
C483 C487 1.391 . S
C484 C483 1.387 . S
C484 C485 1.369 . S
C484 H493 0.929 . S
C485 N482 1.346 . S
C485 C484 1.369 . S
C485 H488 0.928 . S
C486 N482 1.345 . S
C486 C487 1.371 . S
C486 H489 0.931 . S
C487 C483 1.391 . S
C487 C486 1.371 . S
C487 H494 0.930 . S
H488 C485 0.928 . S
H489 C486 0.931 . S
H490 C466 0.930 . S
H491 C463 0.930 . S
H492 C472 0.930 . S
H493 C484 0.929 . S
H494 C487 0.930 . S
C495 C496 1.351 . S
C495 N498 1.368 . S
C495 H500 0.931 . S
C496 C495 1.351 . S
C496 N497 1.373 . S
C496 H524 0.930 . S
N497 C496 1.373 . S
N497 C499 1.340 1_455 S
N498 C495 1.368 . S
N498 C499 1.321 1_455 S
N498 Co501 2.135 . S
C499 N497 1.340 1_655 S
C499 N498 1.321 1_655 S
C499 H523 0.930 . S
H500 C495 0.931 . S
Co501 N498 2.135 . S
Co501 N504 2.121 . S
Co501 O509 2.055 1_455 S
Co501 O512 2.039 1_455 S
Co501 N515 2.140 . S
C502 O503 1.227 . S
C502 O512 1.265 . S
O503 C502 1.227 . S
N504 Co501 2.121 . S
N504 C506 1.375 1_455 S
N504 C507 1.313 . S
C505 C506 1.338 . S
C505 N508 1.377 1_655 S
C505 H525 0.930 . S
C506 N504 1.375 1_655 S
C506 C505 1.338 . S
C506 H510 0.931 . S
C507 N504 1.313 . S
C507 N508 1.344 . S
C507 H511 0.930 . S
N508 C505 1.377 1_455 S
N508 C507 1.344 . S
O509 Co501 2.055 1_655 S
O509 C513 1.253 1_655 S
H510 C506 0.931 . S
H511 C507 0.930 . S
O512 Co501 2.039 1_655 S
O512 C502 1.265 . S
C513 O509 1.253 1_455 S
C513 O514 1.227 . S
O514 C513 1.227 . S
N515 Co501 2.140 . S
N515 C518 1.346 . S
N515 C519 1.345 . S
C516 C517 1.387 . S
C516 C520 1.391 . S
C517 C516 1.387 . S
C517 C518 1.369 . S
C517 H526 0.929 . S
C518 N515 1.346 . S
C518 C517 1.369 . S
C518 H521 0.928 . S
C519 N515 1.345 . S
C519 C520 1.371 . S
C519 H522 0.931 . S
C520 C516 1.391 . S
C520 C519 1.371 . S
C520 H527 0.930 . S
H521 C518 0.928 . S
H522 C519 0.931 . S
H523 C499 0.930 . S
H524 C496 0.930 . S
H525 C505 0.930 . S
H526 C517 0.929 . S
H527 C520 0.930 . S
C528 C529 1.349 . S
C528 C530 1.327 . S
C528 H553 0.950 . S
C529 C528 1.349 . S
C529 C545 1.349 1_455 S
C530 C528 1.327 . S
C530 C549 1.429 . S
C530 H554 0.950 . S
C531 C548 1.574 . S
C531 C550 1.368 1_655 S
C531 H555 0.949 . S
H532 C536 0.949 . S
C533 C534 1.349 . S
C533 C535 1.327 . S
C533 H556 0.950 1_455 S
C534 C533 1.349 . S
C534 C546 1.349 . S
C535 C533 1.327 . S
C535 C551 1.429 . S
C535 H557 0.950 1_455 S
C536 H532 0.949 . S
C536 C544 1.574 . S
C536 C552 1.368 . S
H537 C545 0.950 . S
H538 C543 0.950 . S
H539 C544 0.949 . S
H540 C546 0.950 . S
H541 C547 0.950 . S
H542 C548 0.949 . S
C543 H538 0.950 . S
C543 C545 1.327 . S
C543 C549 1.429 1_655 S
C544 C536 1.574 . S
C544 H539 0.949 . S
C544 C550 1.368 . S
C545 C529 1.349 1_655 S
C545 H537 0.950 . S
C545 C543 1.327 . S
C546 C534 1.349 . S
C546 H540 0.950 . S
C546 C547 1.327 . S
C547 H541 0.950 . S
C547 C546 1.327 . S
C547 C551 1.429 . S
C548 C531 1.574 . S
C548 H542 0.949 . S
C548 C552 1.368 1_655 S
C549 C530 1.429 . S
C549 C543 1.429 1_455 S
C549 C550 1.523 . S
C550 C531 1.368 1_455 S
C550 C544 1.368 . S
C550 C549 1.523 . S
C551 C535 1.429 . S
C551 C547 1.429 . S
C551 C552 1.523 . S
C552 C536 1.368 . S
C552 C548 1.368 1_455 S
C552 C551 1.523 . S
H553 C528 0.950 . S
H554 C530 0.950 . S
H555 C531 0.949 . S
H556 C533 0.950 1_655 S
H557 C535 0.950 1_655 S
C558 C559 1.349 . S
C558 C560 1.327 . S
C558 H583 0.950 . S
C559 C558 1.349 . S
C559 C575 1.349 . S
C560 C558 1.327 . S
C560 C579 1.429 . S
C560 H584 0.950 . S
C561 C578 1.574 1_455 S
C561 C580 1.368 . S
C561 H585 0.949 . S
H562 C566 0.949 . S
C563 C564 1.349 . S
C563 C565 1.327 . S
C563 H586 0.950 . S
C564 C563 1.349 . S
C564 C576 1.349 . S
C565 C563 1.327 . S
C565 C581 1.429 . S
C565 H587 0.950 . S
C566 H562 0.949 . S
C566 C574 1.574 1_655 S
C566 C582 1.368 . S
H567 C575 0.950 . S
H568 C573 0.950 . S
H569 C574 0.949 . S
H570 C576 0.950 . S
H571 C577 0.950 . S
H572 C578 0.949 . S
C573 H568 0.950 . S
C573 C575 1.327 . S
C573 C579 1.429 . S
C574 C566 1.574 1_455 S
C574 H569 0.949 . S
C574 C580 1.368 . S
C575 C559 1.349 . S
C575 H567 0.950 . S
C575 C573 1.327 . S
C576 C564 1.349 . S
C576 H570 0.950 . S
C576 C577 1.327 . S
C577 H571 0.950 . S
C577 C576 1.327 . S
C577 C581 1.429 . S
C578 C561 1.574 1_655 S
C578 H572 0.949 . S
C578 C582 1.368 . S
C579 C560 1.429 . S
C579 C573 1.429 . S
C579 C580 1.523 . S
C580 C561 1.368 . S
C580 C574 1.368 . S
C580 C579 1.523 . S
C581 C565 1.429 . S
C581 C577 1.429 . S
C581 C582 1.523 . S
C582 C566 1.368 . S
C582 C578 1.368 . S
C582 C581 1.523 . S
H583 C558 0.950 . S
H584 C560 0.950 . S
H585 C561 0.949 . S
H586 C563 0.950 . S
H587 C565 0.950 . S
C588 C589 1.349 . S
C588 C590 1.327 . S
C588 H613 0.950 . S
C589 C588 1.349 . S
C589 C605 1.349 . S
C590 C588 1.327 . S
C590 C609 1.429 . S
C590 H614 0.950 . S
C591 C608 1.574 . S
C591 C610 1.368 . S
C591 H615 0.949 . S
H592 C596 0.949 . S
C593 C594 1.349 . S
C593 C595 1.327 . S
C593 H616 0.950 . S
C594 C593 1.349 . S
C594 C606 1.349 . S
C595 C593 1.327 . S
C595 C611 1.429 . S
C595 H617 0.950 . S
C596 H592 0.949 . S
C596 C604 1.574 . S
C596 C612 1.368 . S
H597 C605 0.950 . S
H598 C603 0.950 . S
H599 C604 0.949 . S
H600 C606 0.950 . S
H601 C607 0.950 . S
H602 C608 0.949 . S
C603 H598 0.950 . S
C603 C605 1.327 . S
C603 C609 1.429 . S
C604 C596 1.574 . S
C604 H599 0.949 . S
C604 C610 1.368 . S
C605 C589 1.349 . S
C605 H597 0.950 . S
C605 C603 1.327 . S
C606 C594 1.349 . S
C606 H600 0.950 . S
C606 C607 1.327 . S
C607 H601 0.950 . S
C607 C606 1.327 . S
C607 C611 1.429 . S
C608 C591 1.574 . S
C608 H602 0.949 . S
C608 C612 1.368 . S
C609 C590 1.429 . S
C609 C603 1.429 . S
C609 C610 1.523 . S
C610 C591 1.368 . S
C610 C604 1.368 . S
C610 C609 1.523 . S
C611 C595 1.429 . S
C611 C607 1.429 . S
C611 C612 1.523 . S
C612 C596 1.368 . S
C612 C608 1.368 . S
C612 C611 1.523 . S
H613 C588 0.950 . S
H614 C590 0.950 . S
H615 C591 0.949 . S
H616 C593 0.950 . S
H617 C595 0.950 . S
C618 C619 1.349 . S
C618 C620 1.327 . S
C618 H643 0.950 . S
C619 C618 1.349 . S
C619 C635 1.349 . S
C620 C618 1.327 . S
C620 C639 1.429 . S
C620 H644 0.950 . S
C621 C638 1.574 . S
C621 C640 1.368 . S
C621 H645 0.949 . S
H622 C626 0.949 . S
C623 C624 1.349 . S
C623 C625 1.327 . S
C623 H646 0.950 . S
C624 C623 1.349 . S
C624 C636 1.349 . S
C625 C623 1.327 . S
C625 C641 1.429 . S
C625 H647 0.950 . S
C626 H622 0.949 . S
C626 C634 1.574 . S
C626 C642 1.368 . S
H627 C635 0.950 . S
H628 C633 0.950 . S
H629 C634 0.949 . S
H630 C636 0.950 . S
H631 C637 0.950 . S
H632 C638 0.949 . S
C633 H628 0.950 . S
C633 C635 1.327 . S
C633 C639 1.429 . S
C634 C626 1.574 . S
C634 H629 0.949 . S
C634 C640 1.368 . S
C635 C619 1.349 . S
C635 H627 0.950 . S
C635 C633 1.327 . S
C636 C624 1.349 . S
C636 H630 0.950 . S
C636 C637 1.327 . S
C637 H631 0.950 . S
C637 C636 1.327 . S
C637 C641 1.429 . S
C638 C621 1.574 . S
C638 H632 0.949 . S
C638 C642 1.368 . S
C639 C620 1.429 . S
C639 C633 1.429 . S
C639 C640 1.523 . S
C640 C621 1.368 . S
C640 C634 1.368 . S
C640 C639 1.523 . S
C641 C625 1.429 . S
C641 C637 1.429 . S
C641 C642 1.523 . S
C642 C626 1.368 . S
C642 C638 1.368 . S
C642 C641 1.523 . S
H643 C618 0.950 . S
H644 C620 0.950 . S
H645 C621 0.949 . S
H646 C623 0.950 . S
H647 C625 0.950 . S
C648 C649 1.349 1_655 S
C648 C650 1.327 . S
C648 H673 0.950 . S
C649 C648 1.349 1_455 S
C649 C665 1.349 . S
C650 C648 1.327 . S
C650 C669 1.429 1_655 S
C650 H674 0.950 . S
C651 C668 1.574 . S
C651 C670 1.368 . S
C651 H675 0.949 . S
H652 C656 0.949 . S
C653 C654 1.349 . S
C653 C655 1.327 . S
C653 H676 0.950 . S
C654 C653 1.349 . S
C654 C666 1.349 . S
C655 C653 1.327 . S
C655 C671 1.429 . S
C655 H677 0.950 . S
C656 H652 0.949 . S
C656 C664 1.574 . S
C656 C672 1.368 1_655 S
H657 C665 0.950 . S
H658 C663 0.950 . S
H659 C664 0.949 . S
H660 C666 0.950 1_655 S
H661 C667 0.950 1_655 S
H662 C668 0.949 . S
C663 H658 0.950 . S
C663 C665 1.327 . S
C663 C669 1.429 . S
C664 C656 1.574 . S
C664 H659 0.949 . S
C664 C670 1.368 1_655 S
C665 C649 1.349 . S
C665 H657 0.950 . S
C665 C663 1.327 . S
C666 C654 1.349 . S
C666 H660 0.950 1_455 S
C666 C667 1.327 . S
C667 H661 0.950 1_455 S
C667 C666 1.327 . S
C667 C671 1.429 . S
C668 C651 1.574 . S
C668 H662 0.949 . S
C668 C672 1.368 . S
C669 C650 1.429 1_455 S
C669 C663 1.429 . S
C669 C670 1.523 . S
C670 C651 1.368 . S
C670 C664 1.368 1_455 S
C670 C669 1.523 . S
C671 C655 1.429 . S
C671 C667 1.429 . S
C671 C672 1.523 . S
C672 C656 1.368 1_455 S
C672 C668 1.368 . S
C672 C671 1.523 . S
H673 C648 0.950 . S
H674 C650 0.950 . S
H675 C651 0.949 . S
H676 C653 0.950 . S
H677 C655 0.950 . S
C678 C679 1.349 . S
C678 C680 1.327 . S
C678 H703 0.950 . S
C679 C678 1.349 . S
C679 C695 1.349 . S
C680 C678 1.327 . S
C680 C699 1.429 . S
C680 H704 0.950 . S
C681 C698 1.574 . S
C681 C700 1.368 . S
C681 H705 0.949 . S
H682 C686 0.949 . S
C683 C684 1.349 . S
C683 C685 1.327 . S
C683 H706 0.950 . S
C684 C683 1.349 . S
C684 C696 1.349 . S
C685 C683 1.327 . S
C685 C701 1.429 . S
C685 H707 0.950 . S
C686 H682 0.949 . S
C686 C694 1.574 . S
C686 C702 1.368 . S
H687 C695 0.950 . S
H688 C693 0.950 . S
H689 C694 0.949 . S
H690 C696 0.950 . S
H691 C697 0.950 . S
H692 C698 0.949 . S
C693 H688 0.950 . S
C693 C695 1.327 . S
C693 C699 1.429 . S
C694 C686 1.574 . S
C694 H689 0.949 . S
C694 C700 1.368 . S
C695 C679 1.349 . S
C695 H687 0.950 . S
C695 C693 1.327 . S
C696 C684 1.349 . S
C696 H690 0.950 . S
C696 C697 1.327 . S
C697 H691 0.950 . S
C697 C696 1.327 . S
C697 C701 1.429 . S
C698 C681 1.574 . S
C698 H692 0.949 . S
C698 C702 1.368 . S
C699 C680 1.429 . S
C699 C693 1.429 . S
C699 C700 1.523 . S
C700 C681 1.368 . S
C700 C694 1.368 . S
C700 C699 1.523 . S
C701 C685 1.429 . S
C701 C697 1.429 . S
C701 C702 1.523 . S
C702 C686 1.368 . S
C702 C698 1.368 . S
C702 C701 1.523 . S
H703 C678 0.950 . S
H704 C680 0.950 . S
H705 C681 0.949 . S
H706 C683 0.950 . S
H707 C685 0.950 . S
C708 C709 1.349 . S
C708 C710 1.327 . S
C708 H733 0.950 . S
C709 C708 1.349 . S
C709 C725 1.349 . S
C710 C708 1.327 . S
C710 C729 1.429 . S
C710 H734 0.950 . S
C711 C728 1.574 . S
C711 C730 1.368 . S
C711 H735 0.949 . S
H712 C716 0.949 . S
C713 C714 1.349 . S
C713 C715 1.327 . S
C713 H736 0.950 . S
C714 C713 1.349 . S
C714 C726 1.349 . S
C715 C713 1.327 . S
C715 C731 1.429 . S
C715 H737 0.950 . S
C716 H712 0.949 . S
C716 C724 1.574 . S
C716 C732 1.368 . S
H717 C725 0.950 . S
H718 C723 0.950 . S
H719 C724 0.949 . S
H720 C726 0.950 . S
H721 C727 0.950 . S
H722 C728 0.949 . S
C723 H718 0.950 . S
C723 C725 1.327 . S
C723 C729 1.429 . S
C724 C716 1.574 . S
C724 H719 0.949 . S
C724 C730 1.368 . S
C725 C709 1.349 . S
C725 H717 0.950 . S
C725 C723 1.327 . S
C726 C714 1.349 . S
C726 H720 0.950 . S
C726 C727 1.327 . S
C727 H721 0.950 . S
C727 C726 1.327 . S
C727 C731 1.429 . S
C728 C711 1.574 . S
C728 H722 0.949 . S
C728 C732 1.368 . S
C729 C710 1.429 . S
C729 C723 1.429 . S
C729 C730 1.523 . S
C730 C711 1.368 . S
C730 C724 1.368 . S
C730 C729 1.523 . S
C731 C715 1.429 . S
C731 C727 1.429 . S
C731 C732 1.523 . S
C732 C716 1.368 . S
C732 C728 1.368 . S
C732 C731 1.523 . S
H733 C708 0.950 . S
H734 C710 0.950 . S
H735 C711 0.949 . S
H736 C713 0.950 . S
H737 C715 0.950 . S
C738 C739 1.349 . S
C738 C740 1.327 . S
C738 H763 0.950 . S
C739 C738 1.349 . S
C739 C755 1.349 . S
C740 C738 1.327 . S
C740 C759 1.429 . S
C740 H764 0.950 . S
C741 C758 1.574 1_655 S
C741 C760 1.368 . S
C741 H765 0.949 . S
H742 C746 0.949 . S
C743 C744 1.349 . S
C743 C745 1.327 . S
C743 H766 0.950 . S
C744 C743 1.349 . S
C744 C756 1.349 . S
C745 C743 1.327 . S
C745 C761 1.429 . S
C745 H767 0.950 . S
C746 H742 0.949 . S
C746 C754 1.574 1_455 S
C746 C762 1.368 . S
H747 C755 0.950 . S
H748 C753 0.950 . S
H749 C754 0.949 . S
H750 C756 0.950 . S
H751 C757 0.950 . S
H752 C758 0.949 . S
C753 H748 0.950 . S
C753 C755 1.327 . S
C753 C759 1.429 . S
C754 C746 1.574 1_655 S
C754 H749 0.949 . S
C754 C760 1.368 . S
C755 C739 1.349 . S
C755 H747 0.950 . S
C755 C753 1.327 . S
C756 C744 1.349 . S
C756 H750 0.950 . S
C756 C757 1.327 . S
C757 H751 0.950 . S
C757 C756 1.327 . S
C757 C761 1.429 . S
C758 C741 1.574 1_455 S
C758 H752 0.949 . S
C758 C762 1.368 . S
C759 C740 1.429 . S
C759 C753 1.429 . S
C759 C760 1.523 . S
C760 C741 1.368 . S
C760 C754 1.368 . S
C760 C759 1.523 . S
C761 C745 1.429 . S
C761 C757 1.429 . S
C761 C762 1.523 . S
C762 C746 1.368 . S
C762 C758 1.368 . S
C762 C761 1.523 . S
H763 C738 0.950 . S
H764 C740 0.950 . S
H765 C741 0.949 . S
H766 C743 0.950 . S
H767 C745 0.950 . S
C768 C769 1.349 . S
C768 C770 1.327 . S
C768 H793 0.950 . S
C769 C768 1.349 . S
C769 C785 1.349 1_455 S
C770 C768 1.327 . S
C770 C789 1.429 . S
C770 H794 0.950 . S
C771 C788 1.574 1_554 S
C771 C790 1.368 1_655 S
C771 H795 0.949 . S
H772 C776 0.949 . S
C773 C774 1.349 1_655 S
C773 C775 1.327 . S
C773 H796 0.950 . S
C774 C773 1.349 1_455 S
C774 C786 1.349 . S
C775 C773 1.327 . S
C775 C791 1.429 1_655 S
C775 H797 0.950 . S
C776 H772 0.949 . S
C776 C784 1.574 1_556 S
C776 C792 1.368 . S
H777 C785 0.950 . S
H778 C783 0.950 . S
H779 C784 0.949 . S
H780 C786 0.950 . S
H781 C787 0.950 . S
H782 C788 0.949 . S
C783 H778 0.950 . S
C783 C785 1.327 . S
C783 C789 1.429 1_655 S
C784 C776 1.574 1_554 S
C784 H779 0.949 . S
C784 C790 1.368 . S
C785 C769 1.349 1_655 S
C785 H777 0.950 . S
C785 C783 1.327 . S
C786 C774 1.349 . S
C786 H780 0.950 . S
C786 C787 1.327 . S
C787 H781 0.950 . S
C787 C786 1.327 . S
C787 C791 1.429 . S
C788 C771 1.574 1_556 S
C788 H782 0.949 . S
C788 C792 1.368 1_655 S
C789 C770 1.429 . S
C789 C783 1.429 1_455 S
C789 C790 1.523 . S
C790 C771 1.368 1_455 S
C790 C784 1.368 . S
C790 C789 1.523 . S
C791 C775 1.429 1_455 S
C791 C787 1.429 . S
C791 C792 1.523 . S
C792 C776 1.368 . S
C792 C788 1.368 1_455 S
C792 C791 1.523 . S
H793 C768 0.950 . S
H794 C770 0.950 . S
H795 C771 0.949 . S
H796 C773 0.950 . S
H797 C775 0.950 . S
C798 C799 1.349 . S
C798 C800 1.327 . S
C798 H823 0.950 . S
C799 C798 1.349 . S
C799 C815 1.349 . S
C800 C798 1.327 . S
C800 C819 1.429 . S
C800 H824 0.950 . S
C801 C818 1.574 . S
C801 C820 1.368 . S
C801 H825 0.949 . S
H802 C806 0.949 . S
C803 C804 1.349 . S
C803 C805 1.327 . S
C803 H826 0.950 . S
C804 C803 1.349 . S
C804 C816 1.349 . S
C805 C803 1.327 . S
C805 C821 1.429 . S
C805 H827 0.950 . S
C806 H802 0.949 . S
C806 C814 1.574 . S
C806 C822 1.368 . S
H807 C815 0.950 . S
H808 C813 0.950 . S
H809 C814 0.949 . S
H810 C816 0.950 . S
H811 C817 0.950 . S
H812 C818 0.949 . S
C813 H808 0.950 . S
C813 C815 1.327 . S
C813 C819 1.429 . S
C814 C806 1.574 . S
C814 H809 0.949 . S
C814 C820 1.368 . S
C815 C799 1.349 . S
C815 H807 0.950 . S
C815 C813 1.327 . S
C816 C804 1.349 . S
C816 H810 0.950 . S
C816 C817 1.327 . S
C817 H811 0.950 . S
C817 C816 1.327 . S
C817 C821 1.429 . S
C818 C801 1.574 . S
C818 H812 0.949 . S
C818 C822 1.368 . S
C819 C800 1.429 . S
C819 C813 1.429 . S
C819 C820 1.523 . S
C820 C801 1.368 . S
C820 C814 1.368 . S
C820 C819 1.523 . S
C821 C805 1.429 . S
C821 C817 1.429 . S
C821 C822 1.523 . S
C822 C806 1.368 . S
C822 C818 1.368 . S
C822 C821 1.523 . S
H823 C798 0.950 . S
H824 C800 0.950 . S
H825 C801 0.949 . S
H826 C803 0.950 . S
H827 C805 0.950 . S
C828 C829 1.349 . S
C828 C830 1.327 . S
C828 H853 0.950 . S
C829 C828 1.349 . S
C829 C845 1.349 . S
C830 C828 1.327 . S
C830 C849 1.429 . S
C830 H854 0.950 . S
C831 C848 1.574 . S
C831 C850 1.368 . S
C831 H855 0.949 . S
H832 C836 0.949 . S
C833 C834 1.349 . S
C833 C835 1.327 . S
C833 H856 0.950 . S
C834 C833 1.349 . S
C834 C846 1.349 . S
C835 C833 1.327 . S
C835 C851 1.429 . S
C835 H857 0.950 . S
C836 H832 0.949 . S
C836 C844 1.574 . S
C836 C852 1.368 . S
H837 C845 0.950 . S
H838 C843 0.950 . S
H839 C844 0.949 . S
H840 C846 0.950 . S
H841 C847 0.950 . S
H842 C848 0.949 . S
C843 H838 0.950 . S
C843 C845 1.327 . S
C843 C849 1.429 . S
C844 C836 1.574 . S
C844 H839 0.949 . S
C844 C850 1.368 . S
C845 C829 1.349 . S
C845 H837 0.950 . S
C845 C843 1.327 . S
C846 C834 1.349 . S
C846 H840 0.950 . S
C846 C847 1.327 . S
C847 H841 0.950 . S
C847 C846 1.327 . S
C847 C851 1.429 . S
C848 C831 1.574 . S
C848 H842 0.949 . S
C848 C852 1.368 . S
C849 C830 1.429 . S
C849 C843 1.429 . S
C849 C850 1.523 . S
C850 C831 1.368 . S
C850 C844 1.368 . S
C850 C849 1.523 . S
C851 C835 1.429 . S
C851 C847 1.429 . S
C851 C852 1.523 . S
C852 C836 1.368 . S
C852 C848 1.368 . S
C852 C851 1.523 . S
H853 C828 0.950 . S
H854 C830 0.950 . S
H855 C831 0.949 . S
H856 C833 0.950 . S
H857 C835 0.950 . S
C858 C859 1.349 . S
C858 C860 1.327 . S
C858 H883 0.950 . S
C859 C858 1.349 . S
C859 C875 1.349 . S
C860 C858 1.327 . S
C860 C879 1.429 . S
C860 H884 0.950 . S
C861 C878 1.574 . S
C861 C880 1.368 . S
C861 H885 0.949 . S
H862 C866 0.949 . S
C863 C864 1.349 . S
C863 C865 1.327 . S
C863 H886 0.950 . S
C864 C863 1.349 . S
C864 C876 1.349 . S
C865 C863 1.327 . S
C865 C881 1.429 . S
C865 H887 0.950 . S
C866 H862 0.949 . S
C866 C874 1.574 . S
C866 C882 1.368 . S
H867 C875 0.950 . S
H868 C873 0.950 . S
H869 C874 0.949 . S
H870 C876 0.950 . S
H871 C877 0.950 . S
H872 C878 0.949 . S
C873 H868 0.950 . S
C873 C875 1.327 . S
C873 C879 1.429 . S
C874 C866 1.574 . S
C874 H869 0.949 . S
C874 C880 1.368 . S
C875 C859 1.349 . S
C875 H867 0.950 . S
C875 C873 1.327 . S
C876 C864 1.349 . S
C876 H870 0.950 . S
C876 C877 1.327 . S
C877 H871 0.950 . S
C877 C876 1.327 . S
C877 C881 1.429 . S
C878 C861 1.574 . S
C878 H872 0.949 . S
C878 C882 1.368 . S
C879 C860 1.429 . S
C879 C873 1.429 . S
C879 C880 1.523 . S
C880 C861 1.368 . S
C880 C874 1.368 . S
C880 C879 1.523 . S
C881 C865 1.429 . S
C881 C877 1.429 . S
C881 C882 1.523 . S
C882 C866 1.368 . S
C882 C878 1.368 . S
C882 C881 1.523 . S
H883 C858 0.950 . S
H884 C860 0.950 . S
H885 C861 0.949 . S
H886 C863 0.950 . S
H887 C865 0.950 . S
C888 C889 1.349 . S
C888 C890 1.327 . S
C888 H913 0.950 . S
C889 C888 1.349 . S
C889 C905 1.349 . S
C890 C888 1.327 . S
C890 C909 1.429 . S
C890 H914 0.950 . S
C891 C908 1.574 . S
C891 C910 1.368 . S
C891 H915 0.949 . S
H892 C896 0.949 . S
C893 C894 1.349 . S
C893 C895 1.327 . S
C893 H916 0.950 . S
C894 C893 1.349 . S
C894 C906 1.349 . S
C895 C893 1.327 . S
C895 C911 1.429 . S
C895 H917 0.950 . S
C896 H892 0.949 . S
C896 C904 1.574 . S
C896 C912 1.368 . S
H897 C905 0.950 . S
H898 C903 0.950 . S
H899 C904 0.949 . S
H900 C906 0.950 . S
H901 C907 0.950 . S
H902 C908 0.949 . S
C903 H898 0.950 . S
C903 C905 1.327 . S
C903 C909 1.429 . S
C904 C896 1.574 . S
C904 H899 0.949 . S
C904 C910 1.368 . S
C905 C889 1.349 . S
C905 H897 0.950 . S
C905 C903 1.327 . S
C906 C894 1.349 . S
C906 H900 0.950 . S
C906 C907 1.327 . S
C907 H901 0.950 . S
C907 C906 1.327 . S
C907 C911 1.429 . S
C908 C891 1.574 . S
C908 H902 0.949 . S
C908 C912 1.368 . S
C909 C890 1.429 . S
C909 C903 1.429 . S
C909 C910 1.523 . S
C910 C891 1.368 . S
C910 C904 1.368 . S
C910 C909 1.523 . S
C911 C895 1.429 . S
C911 C907 1.429 . S
C911 C912 1.523 . S
C912 C896 1.368 . S
C912 C908 1.368 . S
C912 C911 1.523 . S
H913 C888 0.950 . S
H914 C890 0.950 . S
H915 C891 0.949 . S
H916 C893 0.950 . S
H917 C895 0.950 . S
C918 C919 1.349 . S
C918 C920 1.327 . S
C918 H943 0.950 . S
C919 C918 1.349 . S
C919 C935 1.349 . S
C920 C918 1.327 . S
C920 C939 1.429 . S
C920 H944 0.950 . S
C921 C938 1.574 . S
C921 C940 1.368 . S
C921 H945 0.949 . S
H922 C926 0.949 . S
C923 C924 1.349 . S
C923 C925 1.327 . S
C923 H946 0.950 . S
C924 C923 1.349 . S
C924 C936 1.349 . S
C925 C923 1.327 . S
C925 C941 1.429 . S
C925 H947 0.950 . S
C926 H922 0.949 . S
C926 C934 1.574 . S
C926 C942 1.368 . S
H927 C935 0.950 . S
H928 C933 0.950 . S
H929 C934 0.949 . S
H930 C936 0.950 . S
H931 C937 0.950 . S
H932 C938 0.949 . S
C933 H928 0.950 . S
C933 C935 1.327 . S
C933 C939 1.429 . S
C934 C926 1.574 . S
C934 H929 0.949 . S
C934 C940 1.368 . S
C935 C919 1.349 . S
C935 H927 0.950 . S
C935 C933 1.327 . S
C936 C924 1.349 . S
C936 H930 0.950 . S
C936 C937 1.327 . S
C937 H931 0.950 . S
C937 C936 1.327 . S
C937 C941 1.429 . S
C938 C921 1.574 . S
C938 H932 0.949 . S
C938 C942 1.368 . S
C939 C920 1.429 . S
C939 C933 1.429 . S
C939 C940 1.523 . S
C940 C921 1.368 . S
C940 C934 1.368 . S
C940 C939 1.523 . S
C941 C925 1.429 . S
C941 C937 1.429 . S
C941 C942 1.523 . S
C942 C926 1.368 . S
C942 C938 1.368 . S
C942 C941 1.523 . S
H943 C918 0.950 . S
H944 C920 0.950 . S
H945 C921 0.949 . S
H946 C923 0.950 . S
H947 C925 0.950 . S
C948 C949 1.349 . S
C948 C950 1.327 . S
C948 H973 0.950 . S
C949 C948 1.349 . S
C949 C965 1.349 . S
C950 C948 1.327 . S
C950 C969 1.429 . S
C950 H974 0.950 . S
C951 C968 1.574 . S
C951 C970 1.368 . S
C951 H975 0.949 . S
H952 C956 0.949 . S
C953 C954 1.349 . S
C953 C955 1.327 . S
C953 H976 0.950 . S
C954 C953 1.349 . S
C954 C966 1.349 . S
C955 C953 1.327 . S
C955 C971 1.429 . S
C955 H977 0.950 . S
C956 H952 0.949 . S
C956 C964 1.574 . S
C956 C972 1.368 . S
H957 C965 0.950 . S
H958 C963 0.950 . S
H959 C964 0.949 . S
H960 C966 0.950 . S
H961 C967 0.950 . S
H962 C968 0.949 . S
C963 H958 0.950 . S
C963 C965 1.327 . S
C963 C969 1.429 . S
C964 C956 1.574 . S
C964 H959 0.949 . S
C964 C970 1.368 . S
C965 C949 1.349 . S
C965 H957 0.950 . S
C965 C963 1.327 . S
C966 C954 1.349 . S
C966 H960 0.950 . S
C966 C967 1.327 . S
C967 H961 0.950 . S
C967 C966 1.327 . S
C967 C971 1.429 . S
C968 C951 1.574 . S
C968 H962 0.949 . S
C968 C972 1.368 . S
C969 C950 1.429 . S
C969 C963 1.429 . S
C969 C970 1.523 . S
C970 C951 1.368 . S
C970 C964 1.368 . S
C970 C969 1.523 . S
C971 C955 1.429 . S
C971 C967 1.429 . S
C971 C972 1.523 . S
C972 C956 1.368 . S
C972 C968 1.368 . S
C972 C971 1.523 . S
H973 C948 0.950 . S
H974 C950 0.950 . S
H975 C951 0.949 . S
H976 C953 0.950 . S
H977 C955 0.950 . S
C978 C979 1.349 . S
C978 C980 1.327 . S
C978 H1003 0.950 1_455 S
C979 C978 1.349 . S
C979 C995 1.349 . S
C980 C978 1.327 . S
C980 C999 1.429 . S
C980 H1004 0.950 1_455 S
C981 C998 1.574 1_556 S
C981 C1000 1.368 . S
C981 H1005 0.949 . S
H982 C986 0.949 1_655 S
C983 C984 1.349 . S
C983 C985 1.327 . S
C983 H1006 0.950 . S
C984 C983 1.349 . S
C984 C996 1.349 . S
C985 C983 1.327 . S
C985 C1001 1.429 . S
C985 H1007 0.950 . S
C986 H982 0.949 1_455 S
C986 C994 1.574 1_554 S
C986 C1002 1.368 . S
H987 C995 0.950 . S
H988 C993 0.950 . S
H989 C994 0.949 1_655 S
H990 C996 0.950 1_655 S
H991 C997 0.950 1_655 S
H992 C998 0.949 . S
C993 H988 0.950 . S
C993 C995 1.327 . S
C993 C999 1.429 . S
C994 C986 1.574 1_556 S
C994 H989 0.949 1_455 S
C994 C1000 1.368 . S
C995 C979 1.349 . S
C995 H987 0.950 . S
C995 C993 1.327 . S
C996 C984 1.349 . S
C996 H990 0.950 1_455 S
C996 C997 1.327 . S
C997 H991 0.950 1_455 S
C997 C996 1.327 . S
C997 C1001 1.429 . S
C998 C981 1.574 1_554 S
C998 H992 0.949 . S
C998 C1002 1.368 . S
C999 C980 1.429 . S
C999 C993 1.429 . S
C999 C1000 1.523 . S
C1000 C981 1.368 . S
C1000 C994 1.368 . S
C1000 C999 1.523 . S
C1001 C985 1.429 . S
C1001 C997 1.429 . S
C1001 C1002 1.523 . S
C1002 C986 1.368 . S
C1002 C998 1.368 . S
C1002 C1001 1.523 . S
H1003 C978 0.950 1_655 S
H1004 C980 0.950 1_655 S
H1005 C981 0.949 . S
H1006 C983 0.950 . S
H1007 C985 0.950 . S
C1008 C1009 1.349 . S
C1008 C1010 1.327 . S
C1008 H1033 0.950 . S
C1009 C1008 1.349 . S
C1009 C1025 1.349 . S
C1010 C1008 1.327 . S
C1010 C1029 1.429 . S
C1010 H1034 0.950 . S
C1011 C1028 1.574 . S
C1011 C1030 1.368 . S
C1011 H1035 0.949 . S
H1012 C1016 0.949 . S
C1013 C1014 1.349 . S
C1013 C1015 1.327 . S
C1013 H1036 0.950 . S
C1014 C1013 1.349 . S
C1014 C1026 1.349 . S
C1015 C1013 1.327 . S
C1015 C1031 1.429 . S
C1015 H1037 0.950 1_545 S
C1016 H1012 0.949 . S
C1016 C1024 1.574 1_545 S
C1016 C1032 1.368 1_545 S
H1017 C1025 0.950 . S
H1018 C1023 0.950 . S
H1019 C1024 0.949 . S
H1020 C1026 0.950 . S
H1021 C1027 0.950 . S
H1022 C1028 0.949 . S
C1023 H1018 0.950 . S
C1023 C1025 1.327 . S
C1023 C1029 1.429 . S
C1024 C1016 1.574 1_565 S
C1024 H1019 0.949 . S
C1024 C1030 1.368 . S
C1025 C1009 1.349 . S
C1025 H1017 0.950 . S
C1025 C1023 1.327 . S
C1026 C1014 1.349 . S
C1026 H1020 0.950 . S
C1026 C1027 1.327 . S
C1027 H1021 0.950 . S
C1027 C1026 1.327 . S
C1027 C1031 1.429 . S
C1028 C1011 1.574 . S
C1028 H1022 0.949 . S
C1028 C1032 1.368 . S
C1029 C1010 1.429 . S
C1029 C1023 1.429 . S
C1029 C1030 1.523 . S
C1030 C1011 1.368 . S
C1030 C1024 1.368 . S
C1030 C1029 1.523 . S
C1031 C1015 1.429 . S
C1031 C1027 1.429 . S
C1031 C1032 1.523 1_545 S
C1032 C1016 1.368 1_565 S
C1032 C1028 1.368 . S
C1032 C1031 1.523 1_565 S
H1033 C1008 0.950 . S
H1034 C1010 0.950 . S
H1035 C1011 0.949 . S
H1036 C1013 0.950 . S
H1037 C1015 0.950 1_565 S
C1038 C1039 1.349 . S
C1038 C1040 1.327 . S
C1038 H1063 0.950 . S
C1039 C1038 1.349 . S
C1039 C1055 1.349 . S
C1040 C1038 1.327 . S
C1040 C1059 1.429 . S
C1040 H1064 0.950 . S
C1041 C1058 1.574 . S
C1041 C1060 1.368 . S
C1041 H1065 0.949 . S
H1042 C1046 0.949 1_545 S
C1043 C1044 1.349 . S
C1043 C1045 1.327 . S
C1043 H1066 0.950 . S
C1044 C1043 1.349 . S
C1044 C1056 1.349 . S
C1045 C1043 1.327 . S
C1045 C1061 1.429 . S
C1045 H1067 0.950 . S
C1046 H1042 0.949 1_565 S
C1046 C1054 1.574 . S
C1046 C1062 1.368 . S
H1047 C1055 0.950 . S
H1048 C1053 0.950 . S
H1049 C1054 0.949 . S
H1050 C1056 0.950 . S
H1051 C1057 0.950 . S
H1052 C1058 0.949 . S
C1053 H1048 0.950 . S
C1053 C1055 1.327 . S
C1053 C1059 1.429 . S
C1054 C1046 1.574 . S
C1054 H1049 0.949 . S
C1054 C1060 1.368 . S
C1055 C1039 1.349 . S
C1055 H1047 0.950 . S
C1055 C1053 1.327 . S
C1056 C1044 1.349 . S
C1056 H1050 0.950 . S
C1056 C1057 1.327 . S
C1057 H1051 0.950 . S
C1057 C1056 1.327 . S
C1057 C1061 1.429 . S
C1058 C1041 1.574 . S
C1058 H1052 0.949 . S
C1058 C1062 1.368 . S
C1059 C1040 1.429 . S
C1059 C1053 1.429 . S
C1059 C1060 1.523 . S
C1060 C1041 1.368 . S
C1060 C1054 1.368 . S
C1060 C1059 1.523 . S
C1061 C1045 1.429 . S
C1061 C1057 1.429 . S
C1061 C1062 1.523 1_545 S
C1062 C1046 1.368 . S
C1062 C1058 1.368 . S
C1062 C1061 1.523 1_565 S
H1063 C1038 0.950 . S
H1064 C1040 0.950 . S
H1065 C1041 0.949 . S
H1066 C1043 0.950 . S
H1067 C1045 0.950 . S
C1068 C1069 1.349 . S
C1068 C1070 1.327 . S
C1068 H1093 0.950 . S
C1069 C1068 1.349 . S
C1069 C1085 1.349 . S
C1070 C1068 1.327 . S
C1070 C1089 1.429 . S
C1070 H1094 0.950 . S
C1071 C1088 1.574 . S
C1071 C1090 1.368 . S
C1071 H1095 0.949 . S
H1072 C1076 0.949 . S
C1073 C1074 1.349 . S
C1073 C1075 1.327 . S
C1073 H1096 0.950 . S
C1074 C1073 1.349 . S
C1074 C1086 1.349 . S
C1075 C1073 1.327 . S
C1075 C1091 1.429 . S
C1075 H1097 0.950 . S
C1076 H1072 0.949 . S
C1076 C1084 1.574 . S
C1076 C1092 1.368 . S
H1077 C1085 0.950 . S
H1078 C1083 0.950 . S
H1079 C1084 0.949 . S
H1080 C1086 0.950 . S
H1081 C1087 0.950 . S
H1082 C1088 0.949 . S
C1083 H1078 0.950 . S
C1083 C1085 1.327 . S
C1083 C1089 1.429 . S
C1084 C1076 1.574 . S
C1084 H1079 0.949 . S
C1084 C1090 1.368 . S
C1085 C1069 1.349 . S
C1085 H1077 0.950 . S
C1085 C1083 1.327 . S
C1086 C1074 1.349 . S
C1086 H1080 0.950 . S
C1086 C1087 1.327 . S
C1087 H1081 0.950 . S
C1087 C1086 1.327 . S
C1087 C1091 1.429 . S
C1088 C1071 1.574 . S
C1088 H1082 0.949 . S
C1088 C1092 1.368 . S
C1089 C1070 1.429 . S
C1089 C1083 1.429 . S
C1089 C1090 1.523 . S
C1090 C1071 1.368 . S
C1090 C1084 1.368 . S
C1090 C1089 1.523 . S
C1091 C1075 1.429 . S
C1091 C1087 1.429 . S
C1091 C1092 1.523 . S
C1092 C1076 1.368 . S
C1092 C1088 1.368 . S
C1092 C1091 1.523 . S
H1093 C1068 0.950 . S
H1094 C1070 0.950 . S
H1095 C1071 0.949 . S
H1096 C1073 0.950 . S
H1097 C1075 0.950 . S
C1098 C1099 1.349 . S
C1098 C1100 1.327 . S
C1098 H1123 0.950 . S
C1099 C1098 1.349 . S
C1099 C1115 1.349 . S
C1100 C1098 1.327 . S
C1100 C1119 1.429 . S
C1100 H1124 0.950 . S
C1101 C1118 1.574 . S
C1101 C1120 1.368 . S
C1101 H1125 0.949 . S
H1102 C1106 0.949 . S
C1103 C1104 1.349 . S
C1103 C1105 1.327 . S
C1103 H1126 0.950 . S
C1104 C1103 1.349 . S
C1104 C1116 1.349 . S
C1105 C1103 1.327 . S
C1105 C1121 1.429 . S
C1105 H1127 0.950 . S
C1106 H1102 0.949 . S
C1106 C1114 1.574 . S
C1106 C1122 1.368 . S
H1107 C1115 0.950 . S
H1108 C1113 0.950 . S
H1109 C1114 0.949 . S
H1110 C1116 0.950 . S
H1111 C1117 0.950 . S
H1112 C1118 0.949 . S
C1113 H1108 0.950 . S
C1113 C1115 1.327 . S
C1113 C1119 1.429 . S
C1114 C1106 1.574 . S
C1114 H1109 0.949 . S
C1114 C1120 1.368 . S
C1115 C1099 1.349 . S
C1115 H1107 0.950 . S
C1115 C1113 1.327 . S
C1116 C1104 1.349 . S
C1116 H1110 0.950 . S
C1116 C1117 1.327 . S
C1117 H1111 0.950 . S
C1117 C1116 1.327 . S
C1117 C1121 1.429 . S
C1118 C1101 1.574 . S
C1118 H1112 0.949 . S
C1118 C1122 1.368 . S
C1119 C1100 1.429 . S
C1119 C1113 1.429 . S
C1119 C1120 1.523 . S
C1120 C1101 1.368 . S
C1120 C1114 1.368 . S
C1120 C1119 1.523 . S
C1121 C1105 1.429 . S
C1121 C1117 1.429 . S
C1121 C1122 1.523 . S
C1122 C1106 1.368 . S
C1122 C1118 1.368 . S
C1122 C1121 1.523 . S
H1123 C1098 0.950 . S
H1124 C1100 0.950 . S
H1125 C1101 0.949 . S
H1126 C1103 0.950 . S
H1127 C1105 0.950 . S
C1128 C1129 1.349 . S
C1128 C1130 1.327 . S
C1128 H1153 0.950 . S
C1129 C1128 1.349 . S
C1129 C1145 1.349 . S
C1130 C1128 1.327 . S
C1130 C1149 1.429 . S
C1130 H1154 0.950 . S
C1131 C1148 1.574 . S
C1131 C1150 1.368 . S
C1131 H1155 0.949 . S
H1132 C1136 0.949 . S
C1133 C1134 1.349 . S
C1133 C1135 1.327 . S
C1133 H1156 0.950 . S
C1134 C1133 1.349 . S
C1134 C1146 1.349 . S
C1135 C1133 1.327 . S
C1135 C1151 1.429 . S
C1135 H1157 0.950 . S
C1136 H1132 0.949 . S
C1136 C1144 1.574 . S
C1136 C1152 1.368 . S
H1137 C1145 0.950 . S
H1138 C1143 0.950 . S
H1139 C1144 0.949 . S
H1140 C1146 0.950 . S
H1141 C1147 0.950 . S
H1142 C1148 0.949 . S
C1143 H1138 0.950 . S
C1143 C1145 1.327 . S
C1143 C1149 1.429 . S
C1144 C1136 1.574 . S
C1144 H1139 0.949 . S
C1144 C1150 1.368 . S
C1145 C1129 1.349 . S
C1145 H1137 0.950 . S
C1145 C1143 1.327 . S
C1146 C1134 1.349 . S
C1146 H1140 0.950 . S
C1146 C1147 1.327 . S
C1147 H1141 0.950 . S
C1147 C1146 1.327 . S
C1147 C1151 1.429 . S
C1148 C1131 1.574 . S
C1148 H1142 0.949 . S
C1148 C1152 1.368 . S
C1149 C1130 1.429 . S
C1149 C1143 1.429 . S
C1149 C1150 1.523 . S
C1150 C1131 1.368 . S
C1150 C1144 1.368 . S
C1150 C1149 1.523 . S
C1151 C1135 1.429 . S
C1151 C1147 1.429 . S
C1151 C1152 1.523 . S
C1152 C1136 1.368 . S
C1152 C1148 1.368 . S
C1152 C1151 1.523 . S
H1153 C1128 0.950 . S
H1154 C1130 0.950 . S
H1155 C1131 0.949 . S
H1156 C1133 0.950 . S
H1157 C1135 0.950 . S
C1158 C1159 1.349 . S
C1158 C1160 1.327 . S
C1158 H1183 0.950 . S
C1159 C1158 1.349 . S
C1159 C1175 1.349 . S
C1160 C1158 1.327 . S
C1160 C1179 1.429 . S
C1160 H1184 0.950 . S
C1161 C1178 1.574 . S
C1161 C1180 1.368 . S
C1161 H1185 0.949 . S
H1162 C1166 0.949 . S
C1163 C1164 1.349 . S
C1163 C1165 1.327 . S
C1163 H1186 0.950 . S
C1164 C1163 1.349 . S
C1164 C1176 1.349 . S
C1165 C1163 1.327 . S
C1165 C1181 1.429 . S
C1165 H1187 0.950 . S
C1166 H1162 0.949 . S
C1166 C1174 1.574 . S
C1166 C1182 1.368 . S
H1167 C1175 0.950 . S
H1168 C1173 0.950 . S
H1169 C1174 0.949 . S
H1170 C1176 0.950 . S
H1171 C1177 0.950 . S
H1172 C1178 0.949 . S
C1173 H1168 0.950 . S
C1173 C1175 1.327 . S
C1173 C1179 1.429 . S
C1174 C1166 1.574 . S
C1174 H1169 0.949 . S
C1174 C1180 1.368 . S
C1175 C1159 1.349 . S
C1175 H1167 0.950 . S
C1175 C1173 1.327 . S
C1176 C1164 1.349 . S
C1176 H1170 0.950 . S
C1176 C1177 1.327 . S
C1177 H1171 0.950 . S
C1177 C1176 1.327 . S
C1177 C1181 1.429 . S
C1178 C1161 1.574 . S
C1178 H1172 0.949 . S
C1178 C1182 1.368 . S
C1179 C1160 1.429 . S
C1179 C1173 1.429 . S
C1179 C1180 1.523 . S
C1180 C1161 1.368 . S
C1180 C1174 1.368 . S
C1180 C1179 1.523 . S
C1181 C1165 1.429 . S
C1181 C1177 1.429 . S
C1181 C1182 1.523 . S
C1182 C1166 1.368 . S
C1182 C1178 1.368 . S
C1182 C1181 1.523 . S
H1183 C1158 0.950 . S
H1184 C1160 0.950 . S
H1185 C1161 0.949 . S
H1186 C1163 0.950 . S
H1187 C1165 0.950 . S
C1188 C1189 1.349 . S
C1188 C1190 1.327 . S
C1188 H1213 0.950 . S
C1189 C1188 1.349 . S
C1189 C1205 1.349 . S
C1190 C1188 1.327 . S
C1190 C1209 1.429 . S
C1190 H1214 0.950 . S
C1191 C1208 1.574 . S
C1191 C1210 1.368 . S
C1191 H1215 0.949 . S
H1192 C1196 0.949 . S
C1193 C1194 1.349 . S
C1193 C1195 1.327 . S
C1193 H1216 0.950 . S
C1194 C1193 1.349 . S
C1194 C1206 1.349 . S
C1195 C1193 1.327 . S
C1195 C1211 1.429 . S
C1195 H1217 0.950 . S
C1196 H1192 0.949 . S
C1196 C1204 1.574 1_545 S
C1196 C1212 1.368 . S
H1197 C1205 0.950 . S
H1198 C1203 0.950 . S
H1199 C1204 0.949 1_545 S
H1200 C1206 0.950 . S
H1201 C1207 0.950 . S
H1202 C1208 0.949 . S
C1203 H1198 0.950 . S
C1203 C1205 1.327 . S
C1203 C1209 1.429 . S
C1204 C1196 1.574 1_565 S
C1204 H1199 0.949 1_565 S
C1204 C1210 1.368 . S
C1205 C1189 1.349 . S
C1205 H1197 0.950 . S
C1205 C1203 1.327 . S
C1206 C1194 1.349 . S
C1206 H1200 0.950 . S
C1206 C1207 1.327 . S
C1207 H1201 0.950 . S
C1207 C1206 1.327 . S
C1207 C1211 1.429 . S
C1208 C1191 1.574 . S
C1208 H1202 0.949 . S
C1208 C1212 1.368 1_565 S
C1209 C1190 1.429 . S
C1209 C1203 1.429 . S
C1209 C1210 1.523 . S
C1210 C1191 1.368 . S
C1210 C1204 1.368 . S
C1210 C1209 1.523 . S
C1211 C1195 1.429 . S
C1211 C1207 1.429 . S
C1211 C1212 1.523 . S
C1212 C1196 1.368 . S
C1212 C1208 1.368 1_545 S
C1212 C1211 1.523 . S
H1213 C1188 0.950 . S
H1214 C1190 0.950 . S
H1215 C1191 0.949 . S
H1216 C1193 0.950 . S
H1217 C1195 0.950 . S
C1218 C1219 1.349 . S
C1218 C1220 1.327 . S
C1218 H1243 0.950 . S
C1219 C1218 1.349 . S
C1219 C1235 1.349 . S
C1220 C1218 1.327 . S
C1220 C1239 1.429 . S
C1220 H1244 0.950 . S
C1221 C1238 1.574 . S
C1221 C1240 1.368 . S
C1221 H1245 0.949 . S
H1222 C1226 0.949 . S
C1223 C1224 1.349 . S
C1223 C1225 1.327 . S
C1223 H1246 0.950 . S
C1224 C1223 1.349 . S
C1224 C1236 1.349 . S
C1225 C1223 1.327 . S
C1225 C1241 1.429 . S
C1225 H1247 0.950 . S
C1226 H1222 0.949 . S
C1226 C1234 1.574 1_545 S
C1226 C1242 1.368 . S
H1227 C1235 0.950 . S
H1228 C1233 0.950 . S
H1229 C1234 0.946 1_545 S
H1230 C1236 0.950 . S
H1231 C1237 0.950 . S
H1232 C1238 0.949 . S
C1233 H1228 0.950 . S
C1233 C1235 1.327 . S
C1233 C1239 1.429 . S
C1234 C1226 1.574 1_565 S
C1234 H1229 0.946 1_565 S
C1234 C1240 1.368 . S
C1235 C1219 1.349 . S
C1235 H1227 0.950 . S
C1235 C1233 1.327 . S
C1236 C1224 1.349 . S
C1236 H1230 0.950 . S
C1236 C1237 1.327 . S
C1237 H1231 0.950 . S
C1237 C1236 1.327 . S
C1237 C1241 1.429 . S
C1238 C1221 1.574 . S
C1238 H1232 0.949 . S
C1238 C1242 1.368 1_565 S
C1239 C1220 1.429 . S
C1239 C1233 1.429 . S
C1239 C1240 1.523 . S
C1240 C1221 1.368 . S
C1240 C1234 1.368 . S
C1240 C1239 1.523 . S
C1241 C1225 1.429 . S
C1241 C1237 1.429 . S
C1241 C1242 1.523 . S
C1242 C1226 1.368 . S
C1242 C1238 1.368 1_545 S
C1242 C1241 1.523 . S
H1243 C1218 0.950 . S
H1244 C1220 0.950 . S
H1245 C1221 0.949 . S
H1246 C1223 0.950 . S
H1247 C1225 0.950 . S
C1248 C1249 1.349 . S
C1248 C1250 1.327 . S
C1248 H1273 0.950 . S
C1249 C1248 1.349 . S
C1249 C1265 1.349 . S
C1250 C1248 1.327 . S
C1250 C1269 1.429 . S
C1250 H1274 0.950 . S
C1251 C1268 1.574 . S
C1251 C1270 1.368 . S
C1251 H1275 0.949 . S
H1252 C1256 0.949 . S
C1253 C1254 1.349 . S
C1253 C1255 1.327 . S
C1253 H1276 0.950 . S
C1254 C1253 1.349 . S
C1254 C1266 1.349 . S
C1255 C1253 1.327 . S
C1255 C1271 1.429 . S
C1255 H1277 0.950 . S
C1256 H1252 0.949 . S
C1256 C1264 1.574 . S
C1256 C1272 1.368 . S
H1257 C1265 0.950 . S
H1258 C1263 0.950 . S
H1259 C1264 0.949 . S
H1260 C1266 0.950 . S
H1261 C1267 0.950 . S
H1262 C1268 0.949 . S
C1263 H1258 0.950 . S
C1263 C1265 1.327 . S
C1263 C1269 1.429 . S
C1264 C1256 1.574 . S
C1264 H1259 0.949 . S
C1264 C1270 1.368 . S
C1265 C1249 1.349 . S
C1265 H1257 0.950 . S
C1265 C1263 1.327 . S
C1266 C1254 1.349 . S
C1266 H1260 0.950 . S
C1266 C1267 1.327 . S
C1267 H1261 0.950 . S
C1267 C1266 1.327 . S
C1267 C1271 1.429 . S
C1268 C1251 1.574 . S
C1268 H1262 0.949 . S
C1268 C1272 1.368 . S
C1269 C1250 1.429 . S
C1269 C1263 1.429 . S
C1269 C1270 1.523 . S
C1270 C1251 1.368 . S
C1270 C1264 1.368 . S
C1270 C1269 1.523 . S
C1271 C1255 1.429 . S
C1271 C1267 1.429 . S
C1271 C1272 1.523 . S
C1272 C1256 1.368 . S
C1272 C1268 1.368 . S
C1272 C1271 1.523 . S
H1273 C1248 0.950 . S
H1274 C1250 0.950 . S
H1275 C1251 0.949 . S
H1276 C1253 0.950 . S
H1277 C1255 0.950 . S
C1278 C1279 1.349 . S
C1278 C1280 1.327 . S
C1278 H1303 0.950 . S
C1279 C1278 1.349 . S
C1279 C1295 1.349 . S
C1280 C1278 1.327 . S
C1280 C1299 1.429 . S
C1280 H1304 0.950 . S
C1281 C1298 1.574 . S
C1281 C1300 1.368 . S
C1281 H1305 0.949 . S
H1282 C1286 0.949 . S
C1283 C1284 1.349 . S
C1283 C1285 1.327 . S
C1283 H1306 0.950 . S
C1284 C1283 1.349 . S
C1284 C1296 1.349 . S
C1285 C1283 1.327 . S
C1285 C1301 1.429 . S
C1285 H1307 0.950 . S
C1286 H1282 0.949 . S
C1286 C1294 1.574 . S
C1286 C1302 1.368 . S
H1287 C1295 0.950 . S
H1288 C1293 0.950 . S
H1289 C1294 0.949 . S
H1290 C1296 0.950 . S
H1291 C1297 0.950 . S
H1292 C1298 0.949 . S
C1293 H1288 0.950 . S
C1293 C1295 1.327 . S
C1293 C1299 1.429 . S
C1294 C1286 1.574 . S
C1294 H1289 0.949 . S
C1294 C1300 1.368 . S
C1295 C1279 1.349 . S
C1295 H1287 0.950 . S
C1295 C1293 1.327 . S
C1296 C1284 1.349 . S
C1296 H1290 0.950 . S
C1296 C1297 1.327 . S
C1297 H1291 0.950 . S
C1297 C1296 1.327 . S
C1297 C1301 1.429 . S
C1298 C1281 1.574 . S
C1298 H1292 0.949 . S
C1298 C1302 1.368 . S
C1299 C1280 1.429 . S
C1299 C1293 1.429 . S
C1299 C1300 1.523 . S
C1300 C1281 1.368 . S
C1300 C1294 1.368 . S
C1300 C1299 1.523 . S
C1301 C1285 1.429 . S
C1301 C1297 1.429 . S
C1301 C1302 1.523 . S
C1302 C1286 1.368 . S
C1302 C1298 1.368 . S
C1302 C1301 1.523 . S
H1303 C1278 0.950 . S
H1304 C1280 0.950 . S
H1305 C1281 0.949 . S
H1306 C1283 0.950 . S
H1307 C1285 0.950 . S
C1308 C1309 1.349 . S
C1308 C1310 1.327 . S
C1308 H1333 0.950 . S
C1309 C1308 1.349 . S
C1309 C1325 1.349 . S
C1310 C1308 1.327 . S
C1310 C1329 1.429 . S
C1310 H1334 0.950 . S
C1311 C1328 1.574 . S
C1311 C1330 1.368 . S
C1311 H1335 0.949 . S
H1312 C1316 0.949 . S
C1313 C1314 1.349 . S
C1313 C1315 1.327 . S
C1313 H1336 0.950 . S
C1314 C1313 1.349 . S
C1314 C1326 1.349 . S
C1315 C1313 1.327 . S
C1315 C1331 1.429 . S
C1315 H1337 0.950 . S
C1316 H1312 0.949 . S
C1316 C1324 1.574 . S
C1316 C1332 1.368 . S
H1317 C1325 0.950 . S
H1318 C1323 0.950 . S
H1319 C1324 0.949 . S
H1320 C1326 0.950 . S
H1321 C1327 0.950 . S
H1322 C1328 0.949 . S
C1323 H1318 0.950 . S
C1323 C1325 1.327 . S
C1323 C1329 1.429 . S
C1324 C1316 1.574 . S
C1324 H1319 0.949 . S
C1324 C1330 1.368 . S
C1325 C1309 1.349 . S
C1325 H1317 0.950 . S
C1325 C1323 1.327 . S
C1326 C1314 1.349 . S
C1326 H1320 0.950 . S
C1326 C1327 1.327 . S
C1327 H1321 0.950 . S
C1327 C1326 1.327 . S
C1327 C1331 1.429 . S
C1328 C1311 1.574 . S
C1328 H1322 0.949 . S
C1328 C1332 1.368 . S
C1329 C1310 1.429 . S
C1329 C1323 1.429 . S
C1329 C1330 1.523 . S
C1330 C1311 1.368 . S
C1330 C1324 1.368 . S
C1330 C1329 1.523 . S
C1331 C1315 1.429 . S
C1331 C1327 1.429 . S
C1331 C1332 1.523 . S
C1332 C1316 1.368 . S
C1332 C1328 1.368 . S
C1332 C1331 1.523 . S
H1333 C1308 0.950 . S
H1334 C1310 0.950 . S
H1335 C1311 0.949 . S
H1336 C1313 0.950 . S
H1337 C1315 0.950 . S
C1338 C1339 1.349 . S
C1338 C1340 1.327 . S
C1338 H1363 0.950 . S
C1339 C1338 1.349 . S
C1339 C1355 1.349 . S
C1340 C1338 1.327 . S
C1340 C1359 1.429 . S
C1340 H1364 0.950 . S
C1341 C1358 1.574 . S
C1341 C1360 1.368 . S
C1341 H1365 0.949 . S
H1342 C1346 0.949 . S
C1343 C1344 1.349 . S
C1343 C1345 1.327 . S
C1343 H1366 0.950 . S
C1344 C1343 1.349 . S
C1344 C1356 1.349 . S
C1345 C1343 1.327 . S
C1345 C1361 1.429 . S
C1345 H1367 0.950 . S
C1346 H1342 0.949 . S
C1346 C1354 1.574 . S
C1346 C1362 1.368 . S
H1347 C1355 0.950 . S
H1348 C1353 0.950 . S
H1349 C1354 0.949 . S
H1350 C1356 0.950 . S
H1351 C1357 0.950 . S
H1352 C1358 0.949 . S
C1353 H1348 0.950 . S
C1353 C1355 1.327 . S
C1353 C1359 1.429 . S
C1354 C1346 1.574 . S
C1354 H1349 0.949 . S
C1354 C1360 1.368 . S
C1355 C1339 1.349 . S
C1355 H1347 0.950 . S
C1355 C1353 1.327 . S
C1356 C1344 1.349 . S
C1356 H1350 0.950 . S
C1356 C1357 1.327 . S
C1357 H1351 0.950 . S
C1357 C1356 1.327 . S
C1357 C1361 1.429 . S
C1358 C1341 1.574 . S
C1358 H1352 0.949 . S
C1358 C1362 1.368 . S
C1359 C1340 1.429 . S
C1359 C1353 1.429 . S
C1359 C1360 1.523 . S
C1360 C1341 1.368 . S
C1360 C1354 1.368 . S
C1360 C1359 1.523 . S
C1361 C1345 1.429 . S
C1361 C1357 1.429 . S
C1361 C1362 1.523 . S
C1362 C1346 1.368 . S
C1362 C1358 1.368 . S
C1362 C1361 1.523 . S
H1363 C1338 0.950 . S
H1364 C1340 0.950 . S
H1365 C1341 0.949 . S
H1366 C1343 0.950 . S
H1367 C1345 0.950 . S
C1368 C1369 1.349 . S
C1368 C1370 1.327 . S
C1368 H1393 0.950 . S
C1369 C1368 1.349 . S
C1369 C1385 1.349 . S
C1370 C1368 1.327 . S
C1370 C1389 1.429 . S
C1370 H1394 0.950 . S
C1371 C1388 1.574 . S
C1371 C1390 1.368 . S
C1371 H1395 0.949 . S
H1372 C1376 0.949 . S
C1373 C1374 1.349 . S
C1373 C1375 1.327 . S
C1373 H1396 0.950 . S
C1374 C1373 1.349 . S
C1374 C1386 1.349 . S
C1375 C1373 1.327 . S
C1375 C1391 1.429 . S
C1375 H1397 0.950 . S
C1376 H1372 0.949 . S
C1376 C1384 1.574 . S
C1376 C1392 1.368 . S
H1377 C1385 0.950 . S
H1378 C1383 0.950 . S
H1379 C1384 0.949 . S
H1380 C1386 0.950 . S
H1381 C1387 0.950 . S
H1382 C1388 0.949 . S
C1383 H1378 0.950 . S
C1383 C1385 1.327 . S
C1383 C1389 1.429 . S
C1384 C1376 1.574 . S
C1384 H1379 0.949 . S
C1384 C1390 1.368 . S
C1385 C1369 1.349 . S
C1385 H1377 0.950 . S
C1385 C1383 1.327 . S
C1386 C1374 1.349 . S
C1386 H1380 0.950 . S
C1386 C1387 1.327 . S
C1387 H1381 0.950 . S
C1387 C1386 1.327 . S
C1387 C1391 1.429 . S
C1388 C1371 1.574 . S
C1388 H1382 0.949 . S
C1388 C1392 1.368 . S
C1389 C1370 1.429 . S
C1389 C1383 1.429 . S
C1389 C1390 1.523 . S
C1390 C1371 1.368 . S
C1390 C1384 1.368 . S
C1390 C1389 1.523 . S
C1391 C1375 1.429 . S
C1391 C1387 1.429 . S
C1391 C1392 1.523 . S
C1392 C1376 1.368 . S
C1392 C1388 1.368 . S
C1392 C1391 1.523 . S
H1393 C1368 0.950 . S
H1394 C1370 0.950 . S
H1395 C1371 0.949 . S
H1396 C1373 0.950 . S
H1397 C1375 0.950 . S
C1398 C1399 1.349 . S
C1398 C1400 1.327 . S
C1398 H1423 0.950 . S
C1399 C1398 1.349 . S
C1399 C1415 1.349 . S
C1400 C1398 1.327 . S
C1400 C1419 1.429 . S
C1400 H1424 0.950 . S
C1401 C1418 1.574 . S
C1401 C1420 1.368 . S
C1401 H1425 0.949 . S
H1402 C1406 0.949 . S
C1403 C1404 1.349 . S
C1403 C1405 1.327 . S
C1403 H1426 0.950 . S
C1404 C1403 1.349 . S
C1404 C1416 1.349 . S
C1405 C1403 1.327 . S
C1405 C1421 1.429 . S
C1405 H1427 0.950 . S
C1406 H1402 0.949 . S
C1406 C1414 1.574 . S
C1406 C1422 1.368 . S
H1407 C1415 0.950 . S
H1408 C1413 0.950 . S
H1409 C1414 0.949 . S
H1410 C1416 0.950 . S
H1411 C1417 0.950 . S
H1412 C1418 0.949 . S
C1413 H1408 0.950 . S
C1413 C1415 1.327 . S
C1413 C1419 1.429 . S
C1414 C1406 1.574 . S
C1414 H1409 0.949 . S
C1414 C1420 1.368 . S
C1415 C1399 1.349 . S
C1415 H1407 0.950 . S
C1415 C1413 1.327 . S
C1416 C1404 1.349 . S
C1416 H1410 0.950 . S
C1416 C1417 1.327 . S
C1417 H1411 0.950 . S
C1417 C1416 1.327 . S
C1417 C1421 1.429 . S
C1418 C1401 1.574 . S
C1418 H1412 0.949 . S
C1418 C1422 1.368 . S
C1419 C1400 1.429 . S
C1419 C1413 1.429 . S
C1419 C1420 1.523 . S
C1420 C1401 1.368 . S
C1420 C1414 1.368 . S
C1420 C1419 1.523 . S
C1421 C1405 1.429 . S
C1421 C1417 1.429 . S
C1421 C1422 1.523 . S
C1422 C1406 1.368 . S
C1422 C1418 1.368 . S
C1422 C1421 1.523 . S
H1423 C1398 0.950 . S
H1424 C1400 0.950 . S
H1425 C1401 0.949 . S
H1426 C1403 0.950 . S
H1427 C1405 0.950 . S
C1428 C1429 1.349 . S
C1428 C1430 1.327 . S
C1428 H1453 0.950 . S
C1429 C1428 1.349 . S
C1429 C1445 1.349 . S
C1430 C1428 1.327 . S
C1430 C1449 1.429 . S
C1430 H1454 0.950 . S
C1431 C1448 1.574 . S
C1431 C1450 1.368 . S
C1431 H1455 0.949 . S
H1432 C1436 0.949 . S
C1433 C1434 1.349 . S
C1433 C1435 1.327 . S
C1433 H1456 0.950 . S
C1434 C1433 1.349 . S
C1434 C1446 1.349 . S
C1435 C1433 1.327 . S
C1435 C1451 1.429 . S
C1435 H1457 0.950 . S
C1436 H1432 0.949 . S
C1436 C1444 1.574 . S
C1436 C1452 1.368 . S
H1437 C1445 0.950 . S
H1438 C1443 0.950 . S
H1439 C1444 0.949 . S
H1440 C1446 0.950 . S
H1441 C1447 0.950 . S
H1442 C1448 0.949 . S
C1443 H1438 0.950 . S
C1443 C1445 1.327 . S
C1443 C1449 1.429 . S
C1444 C1436 1.574 . S
C1444 H1439 0.949 . S
C1444 C1450 1.368 . S
C1445 C1429 1.349 . S
C1445 H1437 0.950 . S
C1445 C1443 1.327 . S
C1446 C1434 1.349 . S
C1446 H1440 0.950 . S
C1446 C1447 1.327 . S
C1447 H1441 0.950 . S
C1447 C1446 1.327 . S
C1447 C1451 1.429 . S
C1448 C1431 1.574 . S
C1448 H1442 0.949 . S
C1448 C1452 1.368 . S
C1449 C1430 1.429 . S
C1449 C1443 1.429 . S
C1449 C1450 1.523 . S
C1450 C1431 1.368 . S
C1450 C1444 1.368 . S
C1450 C1449 1.523 . S
C1451 C1435 1.429 . S
C1451 C1447 1.429 . S
C1451 C1452 1.523 . S
C1452 C1436 1.368 . S
C1452 C1448 1.368 . S
C1452 C1451 1.523 . S
H1453 C1428 0.950 . S
H1454 C1430 0.950 . S
H1455 C1431 0.949 . S
H1456 C1433 0.950 . S
H1457 C1435 0.950 . S
C1458 C1459 1.349 . S
C1458 C1460 1.327 . S
C1458 H1483 0.950 . S
C1459 C1458 1.349 . S
C1459 C1475 1.349 . S
C1460 C1458 1.327 . S
C1460 C1479 1.429 . S
C1460 H1484 0.950 . S
C1461 C1478 1.574 . S
C1461 C1480 1.368 . S
C1461 H1485 0.949 . S
H1462 C1466 0.949 . S
C1463 C1464 1.349 . S
C1463 C1465 1.327 . S
C1463 H1486 0.950 . S
C1464 C1463 1.349 . S
C1464 C1476 1.349 . S
C1465 C1463 1.327 . S
C1465 C1481 1.429 . S
C1465 H1487 0.950 . S
C1466 H1462 0.949 . S
C1466 C1474 1.574 . S
C1466 C1482 1.368 . S
H1467 C1475 0.950 . S
H1468 C1473 0.950 . S
H1469 C1474 0.949 . S
H1470 C1476 0.950 . S
H1471 C1477 0.950 . S
H1472 C1478 0.949 . S
C1473 H1468 0.950 . S
C1473 C1475 1.327 . S
C1473 C1479 1.429 . S
C1474 C1466 1.574 . S
C1474 H1469 0.949 . S
C1474 C1480 1.368 . S
C1475 C1459 1.349 . S
C1475 H1467 0.950 . S
C1475 C1473 1.327 . S
C1476 C1464 1.349 . S
C1476 H1470 0.950 . S
C1476 C1477 1.327 . S
C1477 H1471 0.950 . S
C1477 C1476 1.327 . S
C1477 C1481 1.429 . S
C1478 C1461 1.574 . S
C1478 H1472 0.949 . S
C1478 C1482 1.368 . S
C1479 C1460 1.429 . S
C1479 C1473 1.429 . S
C1479 C1480 1.523 . S
C1480 C1461 1.368 . S
C1480 C1474 1.368 . S
C1480 C1479 1.523 . S
C1481 C1465 1.429 . S
C1481 C1477 1.429 . S
C1481 C1482 1.523 . S
C1482 C1466 1.368 . S
C1482 C1478 1.368 . S
C1482 C1481 1.523 . S
H1483 C1458 0.950 . S
H1484 C1460 0.950 . S
H1485 C1461 0.949 . S
H1486 C1463 0.950 . S
H1487 C1465 0.950 . S
C1488 C1489 1.349 . S
C1488 C1490 1.327 . S
C1488 H1513 0.950 . S
C1489 C1488 1.349 . S
C1489 C1505 1.349 . S
C1490 C1488 1.327 . S
C1490 C1509 1.429 . S
C1490 H1514 0.950 . S
C1491 C1508 1.574 . S
C1491 C1510 1.368 1_655 S
C1491 H1515 0.949 . S
H1492 C1496 0.949 . S
C1493 C1494 1.349 1_655 S
C1493 C1495 1.327 . S
C1493 H1516 0.950 . S
C1494 C1493 1.349 1_455 S
C1494 C1506 1.349 . S
C1495 C1493 1.327 . S
C1495 C1511 1.429 1_655 S
C1495 H1517 0.950 . S
C1496 H1492 0.949 . S
C1496 C1504 1.574 . S
C1496 C1512 1.368 . S
H1497 C1505 0.950 1_655 S
H1498 C1503 0.950 1_655 S
H1499 C1504 0.949 . S
H1500 C1506 0.950 . S
H1501 C1507 0.950 . S
H1502 C1508 0.949 . S
C1503 H1498 0.950 1_455 S
C1503 C1505 1.327 . S
C1503 C1509 1.429 . S
C1504 C1496 1.574 . S
C1504 H1499 0.949 . S
C1504 C1510 1.368 . S
C1505 C1489 1.349 . S
C1505 H1497 0.950 1_455 S
C1505 C1503 1.327 . S
C1506 C1494 1.349 . S
C1506 H1500 0.950 . S
C1506 C1507 1.327 . S
C1507 H1501 0.950 . S
C1507 C1506 1.327 . S
C1507 C1511 1.429 . S
C1508 C1491 1.574 . S
C1508 H1502 0.949 . S
C1508 C1512 1.368 1_655 S
C1509 C1490 1.429 . S
C1509 C1503 1.429 . S
C1509 C1510 1.523 . S
C1510 C1491 1.368 1_455 S
C1510 C1504 1.368 . S
C1510 C1509 1.523 . S
C1511 C1495 1.429 1_455 S
C1511 C1507 1.429 . S
C1511 C1512 1.523 . S
C1512 C1496 1.368 . S
C1512 C1508 1.368 1_455 S
C1512 C1511 1.523 . S
H1513 C1488 0.950 . S
H1514 C1490 0.950 . S
H1515 C1491 0.949 . S
H1516 C1493 0.950 . S
H1517 C1495 0.950 . S
C1518 C1519 1.349 . S
C1518 C1520 1.327 . S
C1518 H1543 0.950 . S
C1519 C1518 1.349 . S
C1519 C1535 1.349 . S
C1520 C1518 1.327 . S
C1520 C1539 1.429 . S
C1520 H1544 0.950 . S
C1521 C1538 1.574 . S
C1521 C1540 1.368 . S
C1521 H1545 0.949 . S
H1522 C1526 0.949 . S
C1523 C1524 1.349 . S
C1523 C1525 1.327 . S
C1523 H1546 0.950 . S
C1524 C1523 1.349 . S
C1524 C1536 1.349 . S
C1525 C1523 1.327 . S
C1525 C1541 1.429 . S
C1525 H1547 0.950 . S
C1526 H1522 0.949 . S
C1526 C1534 1.574 . S
C1526 C1542 1.368 . S
H1527 C1535 0.950 . S
H1528 C1533 0.950 . S
H1529 C1534 0.949 . S
H1530 C1536 0.950 . S
H1531 C1537 0.950 . S
H1532 C1538 0.949 . S
C1533 H1528 0.950 . S
C1533 C1535 1.327 . S
C1533 C1539 1.429 . S
C1534 C1526 1.574 . S
C1534 H1529 0.949 . S
C1534 C1540 1.368 . S
C1535 C1519 1.349 . S
C1535 H1527 0.950 . S
C1535 C1533 1.327 . S
C1536 C1524 1.349 . S
C1536 H1530 0.950 . S
C1536 C1537 1.327 . S
C1537 H1531 0.950 . S
C1537 C1536 1.327 . S
C1537 C1541 1.429 . S
C1538 C1521 1.574 . S
C1538 H1532 0.949 . S
C1538 C1542 1.368 . S
C1539 C1520 1.429 . S
C1539 C1533 1.429 . S
C1539 C1540 1.523 . S
C1540 C1521 1.368 . S
C1540 C1534 1.368 . S
C1540 C1539 1.523 . S
C1541 C1525 1.429 . S
C1541 C1537 1.429 . S
C1541 C1542 1.523 . S
C1542 C1526 1.368 . S
C1542 C1538 1.368 . S
C1542 C1541 1.523 . S
H1543 C1518 0.950 . S
H1544 C1520 0.950 . S
H1545 C1521 0.949 . S
H1546 C1523 0.950 . S
H1547 C1525 0.950 . S
C1548 C1549 1.349 . S
C1548 C1550 1.327 . S
C1548 H1573 0.950 . S
C1549 C1548 1.349 . S
C1549 C1565 1.349 . S
C1550 C1548 1.327 . S
C1550 C1569 1.429 . S
C1550 H1574 0.950 . S
C1551 C1568 1.574 . S
C1551 C1570 1.368 . S
C1551 H1575 0.949 . S
H1552 C1556 0.949 . S
C1553 C1554 1.349 . S
C1553 C1555 1.327 . S
C1553 H1576 0.950 . S
C1554 C1553 1.349 . S
C1554 C1566 1.349 . S
C1555 C1553 1.327 . S
C1555 C1571 1.429 . S
C1555 H1577 0.950 . S
C1556 H1552 0.949 . S
C1556 C1564 1.574 . S
C1556 C1572 1.368 . S
H1557 C1565 0.950 . S
H1558 C1563 0.950 . S
H1559 C1564 0.949 . S
H1560 C1566 0.950 . S
H1561 C1567 0.950 . S
H1562 C1568 0.949 . S
C1563 H1558 0.950 . S
C1563 C1565 1.327 . S
C1563 C1569 1.429 . S
C1564 C1556 1.574 . S
C1564 H1559 0.949 . S
C1564 C1570 1.368 . S
C1565 C1549 1.349 . S
C1565 H1557 0.950 . S
C1565 C1563 1.327 . S
C1566 C1554 1.349 . S
C1566 H1560 0.950 . S
C1566 C1567 1.327 . S
C1567 H1561 0.950 . S
C1567 C1566 1.327 . S
C1567 C1571 1.429 . S
C1568 C1551 1.574 . S
C1568 H1562 0.949 . S
C1568 C1572 1.368 . S
C1569 C1550 1.429 . S
C1569 C1563 1.429 . S
C1569 C1570 1.523 . S
C1570 C1551 1.368 . S
C1570 C1564 1.368 . S
C1570 C1569 1.523 . S
C1571 C1555 1.429 . S
C1571 C1567 1.429 . S
C1571 C1572 1.523 . S
C1572 C1556 1.368 . S
C1572 C1568 1.368 . S
C1572 C1571 1.523 . S
H1573 C1548 0.950 . S
H1574 C1550 0.950 . S
H1575 C1551 0.949 . S
H1576 C1553 0.950 . S
H1577 C1555 0.950 . S
C1578 C1579 1.349 . S
C1578 C1580 1.327 . S
C1578 H1603 0.950 . S
C1579 C1578 1.349 . S
C1579 C1595 1.349 . S
C1580 C1578 1.327 . S
C1580 C1599 1.429 . S
C1580 H1604 0.950 . S
C1581 C1598 1.574 1_455 S
C1581 C1600 1.368 . S
C1581 H1605 0.949 . S
H1582 C1586 0.949 . S
C1583 C1584 1.349 . S
C1583 C1585 1.327 . S
C1583 H1606 0.950 . S
C1584 C1583 1.349 . S
C1584 C1596 1.349 . S
C1585 C1583 1.327 . S
C1585 C1601 1.429 . S
C1585 H1607 0.950 . S
C1586 H1582 0.949 . S
C1586 C1594 1.574 1_655 S
C1586 C1602 1.368 . S
H1587 C1595 0.950 . S
H1588 C1593 0.950 . S
H1589 C1594 0.949 . S
H1590 C1596 0.950 . S
H1591 C1597 0.950 . S
H1592 C1598 0.949 . S
C1593 H1588 0.950 . S
C1593 C1595 1.327 . S
C1593 C1599 1.429 . S
C1594 C1586 1.574 1_455 S
C1594 H1589 0.949 . S
C1594 C1600 1.368 . S
C1595 C1579 1.349 . S
C1595 H1587 0.950 . S
C1595 C1593 1.327 . S
C1596 C1584 1.349 . S
C1596 H1590 0.950 . S
C1596 C1597 1.327 . S
C1597 H1591 0.950 . S
C1597 C1596 1.327 . S
C1597 C1601 1.429 . S
C1598 C1581 1.574 1_655 S
C1598 H1592 0.949 . S
C1598 C1602 1.368 . S
C1599 C1580 1.429 . S
C1599 C1593 1.429 . S
C1599 C1600 1.523 . S
C1600 C1581 1.368 . S
C1600 C1594 1.368 . S
C1600 C1599 1.523 . S
C1601 C1585 1.429 . S
C1601 C1597 1.429 . S
C1601 C1602 1.523 . S
C1602 C1586 1.368 . S
C1602 C1598 1.368 . S
C1602 C1601 1.523 . S
H1603 C1578 0.950 . S
H1604 C1580 0.950 . S
H1605 C1581 0.949 . S
H1606 C1583 0.950 . S
H1607 C1585 0.950 . S
C1608 C1609 1.349 . S
C1608 C1610 1.327 . S
C1608 H1633 0.950 . S
C1609 C1608 1.349 . S
C1609 C1625 1.349 . S
C1610 C1608 1.327 . S
C1610 C1629 1.429 . S
C1610 H1634 0.950 . S
C1611 C1628 1.574 . S
C1611 C1630 1.368 1_655 S
C1611 H1635 0.949 . S
H1612 C1616 0.949 . S
C1613 C1614 1.349 1_655 S
C1613 C1615 1.327 . S
C1613 H1636 0.950 . S
C1614 C1613 1.349 1_455 S
C1614 C1626 1.349 . S
C1615 C1613 1.327 . S
C1615 C1631 1.429 1_655 S
C1615 H1637 0.950 . S
C1616 H1612 0.949 . S
C1616 C1624 1.574 . S
C1616 C1632 1.368 . S
H1617 C1625 0.950 1_655 S
H1618 C1623 0.950 1_655 S
H1619 C1624 0.949 . S
H1620 C1626 0.950 . S
H1621 C1627 0.950 . S
H1622 C1628 0.949 . S
C1623 H1618 0.950 1_455 S
C1623 C1625 1.327 . S
C1623 C1629 1.429 . S
C1624 C1616 1.574 . S
C1624 H1619 0.949 . S
C1624 C1630 1.368 . S
C1625 C1609 1.349 . S
C1625 H1617 0.950 1_455 S
C1625 C1623 1.327 . S
C1626 C1614 1.349 . S
C1626 H1620 0.950 . S
C1626 C1627 1.327 . S
C1627 H1621 0.950 . S
C1627 C1626 1.327 . S
C1627 C1631 1.429 . S
C1628 C1611 1.574 . S
C1628 H1622 0.949 . S
C1628 C1632 1.368 1_655 S
C1629 C1610 1.429 . S
C1629 C1623 1.429 . S
C1629 C1630 1.523 . S
C1630 C1611 1.368 1_455 S
C1630 C1624 1.368 . S
C1630 C1629 1.523 . S
C1631 C1615 1.429 1_455 S
C1631 C1627 1.429 . S
C1631 C1632 1.523 . S
C1632 C1616 1.368 . S
C1632 C1628 1.368 1_455 S
C1632 C1631 1.523 . S
H1633 C1608 0.950 . S
H1634 C1610 0.950 . S
H1635 C1611 0.949 . S
H1636 C1613 0.950 . S
H1637 C1615 0.950 . S
C1638 C1639 1.349 . S
C1638 C1640 1.327 . S
C1638 H1663 0.950 . S
C1639 C1638 1.349 . S
C1639 C1655 1.349 . S
C1640 C1638 1.327 . S
C1640 C1659 1.429 . S
C1640 H1664 0.950 . S
C1641 C1658 1.574 1_455 S
C1641 C1660 1.368 . S
C1641 H1665 0.949 . S
H1642 C1646 0.949 . S
C1643 C1644 1.349 . S
C1643 C1645 1.327 . S
C1643 H1666 0.950 . S
C1644 C1643 1.349 . S
C1644 C1656 1.349 . S
C1645 C1643 1.327 . S
C1645 C1661 1.429 . S
C1645 H1667 0.950 . S
C1646 H1642 0.949 . S
C1646 C1654 1.574 1_655 S
C1646 C1662 1.368 . S
H1647 C1655 0.950 . S
H1648 C1653 0.950 . S
H1649 C1654 0.949 . S
H1650 C1656 0.950 . S
H1651 C1657 0.950 . S
H1652 C1658 0.949 . S
C1653 H1648 0.950 . S
C1653 C1655 1.327 . S
C1653 C1659 1.429 . S
C1654 C1646 1.574 1_455 S
C1654 H1649 0.949 . S
C1654 C1660 1.368 . S
C1655 C1639 1.349 . S
C1655 H1647 0.950 . S
C1655 C1653 1.327 . S
C1656 C1644 1.349 . S
C1656 H1650 0.950 . S
C1656 C1657 1.327 . S
C1657 H1651 0.950 . S
C1657 C1656 1.327 . S
C1657 C1661 1.429 . S
C1658 C1641 1.574 1_655 S
C1658 H1652 0.949 . S
C1658 C1662 1.368 . S
C1659 C1640 1.429 . S
C1659 C1653 1.429 . S
C1659 C1660 1.523 . S
C1660 C1641 1.368 . S
C1660 C1654 1.368 . S
C1660 C1659 1.523 . S
C1661 C1645 1.429 . S
C1661 C1657 1.429 . S
C1661 C1662 1.523 . S
C1662 C1646 1.368 . S
C1662 C1658 1.368 . S
C1662 C1661 1.523 . S
H1663 C1638 0.950 . S
H1664 C1640 0.950 . S
H1665 C1641 0.949 . S
H1666 C1643 0.950 . S
H1667 C1645 0.950 . S
C1668 C1669 1.349 . S
C1668 C1670 1.327 . S
C1668 H1693 0.950 . S
C1669 C1668 1.349 . S
C1669 C1685 1.349 . S
C1670 C1668 1.327 . S
C1670 C1689 1.429 . S
C1670 H1694 0.950 . S
C1671 C1688 1.574 . S
C1671 C1690 1.368 . S
C1671 H1695 0.949 . S
H1672 C1676 0.949 . S
C1673 C1674 1.349 . S
C1673 C1675 1.327 . S
C1673 H1696 0.950 . S
C1674 C1673 1.349 . S
C1674 C1686 1.349 . S
C1675 C1673 1.327 . S
C1675 C1691 1.429 . S
C1675 H1697 0.950 . S
C1676 H1672 0.949 . S
C1676 C1684 1.574 . S
C1676 C1692 1.368 . S
H1677 C1685 0.950 . S
H1678 C1683 0.950 . S
H1679 C1684 0.949 . S
H1680 C1686 0.950 . S
H1681 C1687 0.950 . S
H1682 C1688 0.949 . S
C1683 H1678 0.950 . S
C1683 C1685 1.327 . S
C1683 C1689 1.429 . S
C1684 C1676 1.574 . S
C1684 H1679 0.949 . S
C1684 C1690 1.368 . S
C1685 C1669 1.349 . S
C1685 H1677 0.950 . S
C1685 C1683 1.327 . S
C1686 C1674 1.349 . S
C1686 H1680 0.950 . S
C1686 C1687 1.327 . S
C1687 H1681 0.950 . S
C1687 C1686 1.327 . S
C1687 C1691 1.429 . S
C1688 C1671 1.574 . S
C1688 H1682 0.949 . S
C1688 C1692 1.368 . S
C1689 C1670 1.429 . S
C1689 C1683 1.429 . S
C1689 C1690 1.523 . S
C1690 C1671 1.368 . S
C1690 C1684 1.368 . S
C1690 C1689 1.523 . S
C1691 C1675 1.429 . S
C1691 C1687 1.429 . S
C1691 C1692 1.523 . S
C1692 C1676 1.368 . S
C1692 C1688 1.368 . S
C1692 C1691 1.523 . S
H1693 C1668 0.950 . S
H1694 C1670 0.950 . S
H1695 C1671 0.949 . S
H1696 C1673 0.950 . S
H1697 C1675 0.950 . S
C1698 C1699 1.349 . S
C1698 C1700 1.327 . S
C1698 H1723 0.950 . S
C1699 C1698 1.349 . S
C1699 C1715 1.349 . S
C1700 C1698 1.327 . S
C1700 C1719 1.429 . S
C1700 H1724 0.950 . S
C1701 C1718 1.574 . S
C1701 C1720 1.368 . S
C1701 H1725 0.949 . S
H1702 C1706 0.949 . S
C1703 C1704 1.349 . S
C1703 C1705 1.327 . S
C1703 H1726 0.950 . S
C1704 C1703 1.349 . S
C1704 C1716 1.349 . S
C1705 C1703 1.327 . S
C1705 C1721 1.429 . S
C1705 H1727 0.950 . S
C1706 H1702 0.949 . S
C1706 C1714 1.574 . S
C1706 C1722 1.368 . S
H1707 C1715 0.950 . S
H1708 C1713 0.950 . S
H1709 C1714 0.949 . S
H1710 C1716 0.950 . S
H1711 C1717 0.950 . S
H1712 C1718 0.949 . S
C1713 H1708 0.950 . S
C1713 C1715 1.327 . S
C1713 C1719 1.429 . S
C1714 C1706 1.574 . S
C1714 H1709 0.949 . S
C1714 C1720 1.368 . S
C1715 C1699 1.349 . S
C1715 H1707 0.950 . S
C1715 C1713 1.327 . S
C1716 C1704 1.349 . S
C1716 H1710 0.950 . S
C1716 C1717 1.327 . S
C1717 H1711 0.950 . S
C1717 C1716 1.327 . S
C1717 C1721 1.429 . S
C1718 C1701 1.574 . S
C1718 H1712 0.949 . S
C1718 C1722 1.368 . S
C1719 C1700 1.429 . S
C1719 C1713 1.429 . S
C1719 C1720 1.523 . S
C1720 C1701 1.368 . S
C1720 C1714 1.368 . S
C1720 C1719 1.523 . S
C1721 C1705 1.429 . S
C1721 C1717 1.429 . S
C1721 C1722 1.523 . S
C1722 C1706 1.368 . S
C1722 C1718 1.368 . S
C1722 C1721 1.523 . S
H1723 C1698 0.950 . S
H1724 C1700 0.950 . S
H1725 C1701 0.949 . S
H1726 C1703 0.950 . S
H1727 C1705 0.950 . S
C529 N442 1.308 . S
C534 N13 1.308 . S
C559 N46 1.308 . S
C564 N376 1.308 . S
C589 N79 1.308 . S
C594 N409 1.308 . S
C619 N112 1.308 . S
C624 N343 1.308 . S
C649 N508 1.308 . S
C654 N145 1.308 . S
C679 N178 1.308 . S
C684 N310 1.308 . S
C709 N211 1.308 . S
C714 N475 1.308 . S
C739 N277 1.308 . S
C744 N244 1.308 . S
C769 C18 1.647 . S
C774 C150 1.647 . S
C799 C51 1.647 . S
C804 C183 1.647 . S
C829 C84 1.647 . S
C834 C216 1.647 . S
C859 C249 1.647 . S
C864 C117 1.647 . S
C889 C348 1.647 . S
C894 C282 1.647 . S
C919 C315 1.647 . S
C924 C381 1.647 . S
C949 C480 1.647 . S
C954 C414 1.647 . S
C979 C513 1.647 . S
C984 C447 1.647 . S
C1009 C172 0.772 . S
C1014 C7 0.772 . S
C1039 C40 0.772 . S
C1044 C205 0.772 . S
C1069 C73 0.772 . S
C1074 C238 0.772 . S
C1099 C139 0.772 . S
C1104 C106 0.772 . S
C1129 C153 0.647 . S
C1134 C351 0.647 . S
C1159 C87 0.647 . S
C1164 C285 0.647 . S
C1189 C384 0.647 . S
C1194 C219 0.647 . S
C1219 C318 0.647 . S
C1224 C21 0.647 . S
C1249 C271 0.772 . S
C1254 C403 0.772 . S
C1279 C502 0.772 . S
C1284 C337 0.772 . S
C1309 C436 0.772 . S
C1314 C304 0.772 . S
C1339 C370 0.772 . S
C1344 C469 0.772 . S
C1369 C483 0.647 . S
C1374 C54 0.647 . S
C1399 C186 0.647 . S
C1404 C450 0.647 . S
C1429 C516 0.647 . S
C1434 C120 0.647 . S
C1459 C252 0.647 . S
C1464 C417 0.647 . S
C1489 N2 0.331 . S
C1494 N431 0.331 . S
C1519 N35 0.331 . S
C1524 N365 0.331 . S
C1549 N68 0.331 . S
C1554 N398 0.331 . S
C1579 N101 0.330 . S
C1584 N332 0.330 . S
C1609 N134 0.330 . S
C1614 N497 0.330 . S
C1639 N167 0.331 . S
C1644 N299 0.331 . S
C1669 N464 0.330 . S
C1674 N200 0.330 . S
C1699 N266 0.331 . S
C1704 N233 0.331 . S
