# Generated by pormake.
# Topology whk, (6)-cn, num edge types: 1
# Building blocks:
#     Node 0, Type 0, BuildingBlock: OJICUG_clean_sbu_0, # of connection points: 6
#     Node 1, Type 0, BuildingBlock: OJICUG_clean_sbu_0, # of connection points: 6
#     Node 2, Type 0, BuildingBlock: OJICUG_clean_sbu_0, # of connection points: 6
#     Node 3, Type 0, BuildingBlock: OJICUG_clean_sbu_0, # of connection points: 6
#     Node 4, Type 0, BuildingBlock: OJICUG_clean_sbu_0, # of connection points: 6
#     Node 5, Type 0, BuildingBlock: OJICUG_clean_sbu_0, # of connection points: 6
#     Node 6, Type 0, BuildingBlock: OJICUG_clean_sbu_0, # of connection points: 6
#     Node 7, Type 0, BuildingBlock: OJICUG_clean_sbu_0, # of connection points: 6
#     Node 8, Type 0, BuildingBlock: OJICUG_clean_sbu_0, # of connection points: 6
#     Node 9, Type 0, BuildingBlock: OJICUG_clean_sbu_0, # of connection points: 6
#     Node 10, Type 0, BuildingBlock: OJICUG_clean_sbu_0, # of connection points: 6
#     Node 11, Type 0, BuildingBlock: OJICUG_clean_sbu_0, # of connection points: 6
#     Node 12, Type 0, BuildingBlock: OJICUG_clean_sbu_0, # of connection points: 6
#     Node 13, Type 0, BuildingBlock: OJICUG_clean_sbu_0, # of connection points: 6
#     Node 14, Type 0, BuildingBlock: OJICUG_clean_sbu_0, # of connection points: 6
#     Node 15, Type 0, BuildingBlock: OJICUG_clean_sbu_0, # of connection points: 6
#     Edge 16, Type (0, 0), BuildingBlock: XUDNAN_clean_linker_2, # of connection points: 2
#     Edge 17, Type (0, 0), BuildingBlock: XUDNAN_clean_linker_2, # of connection points: 2
#     Edge 18, Type (0, 0), BuildingBlock: XUDNAN_clean_linker_2, # of connection points: 2
#     Edge 19, Type (0, 0), BuildingBlock: XUDNAN_clean_linker_2, # of connection points: 2
#     Edge 20, Type (0, 0), BuildingBlock: XUDNAN_clean_linker_2, # of connection points: 2
#     Edge 21, Type (0, 0), BuildingBlock: XUDNAN_clean_linker_2, # of connection points: 2
#     Edge 22, Type (0, 0), BuildingBlock: XUDNAN_clean_linker_2, # of connection points: 2
#     Edge 23, Type (0, 0), BuildingBlock: XUDNAN_clean_linker_2, # of connection points: 2
#     Edge 24, Type (0, 0), BuildingBlock: XUDNAN_clean_linker_2, # of connection points: 2
#     Edge 25, Type (0, 0), BuildingBlock: XUDNAN_clean_linker_2, # of connection points: 2
#     Edge 26, Type (0, 0), BuildingBlock: XUDNAN_clean_linker_2, # of connection points: 2
#     Edge 27, Type (0, 0), BuildingBlock: XUDNAN_clean_linker_2, # of connection points: 2
#     Edge 28, Type (0, 0), BuildingBlock: XUDNAN_clean_linker_2, # of connection points: 2
#     Edge 29, Type (0, 0), BuildingBlock: XUDNAN_clean_linker_2, # of connection points: 2
#     Edge 30, Type (0, 0), BuildingBlock: XUDNAN_clean_linker_2, # of connection points: 2
#     Edge 31, Type (0, 0), BuildingBlock: XUDNAN_clean_linker_2, # of connection points: 2
#     Edge 32, Type (0, 0), BuildingBlock: XUDNAN_clean_linker_2, # of connection points: 2
#     Edge 33, Type (0, 0), BuildingBlock: XUDNAN_clean_linker_2, # of connection points: 2
#     Edge 34, Type (0, 0), BuildingBlock: XUDNAN_clean_linker_2, # of connection points: 2
#     Edge 35, Type (0, 0), BuildingBlock: XUDNAN_clean_linker_2, # of connection points: 2
#     Edge 36, Type (0, 0), BuildingBlock: XUDNAN_clean_linker_2, # of connection points: 2
#     Edge 37, Type (0, 0), BuildingBlock: XUDNAN_clean_linker_2, # of connection points: 2
#     Edge 38, Type (0, 0), BuildingBlock: XUDNAN_clean_linker_2, # of connection points: 2
#     Edge 39, Type (0, 0), BuildingBlock: XUDNAN_clean_linker_2, # of connection points: 2
#     Edge 40, Type (0, 0), BuildingBlock: XUDNAN_clean_linker_2, # of connection points: 2
#     Edge 41, Type (0, 0), BuildingBlock: XUDNAN_clean_linker_2, # of connection points: 2
#     Edge 42, Type (0, 0), BuildingBlock: XUDNAN_clean_linker_2, # of connection points: 2
#     Edge 43, Type (0, 0), BuildingBlock: XUDNAN_clean_linker_2, # of connection points: 2
#     Edge 44, Type (0, 0), BuildingBlock: XUDNAN_clean_linker_2, # of connection points: 2
#     Edge 45, Type (0, 0), BuildingBlock: XUDNAN_clean_linker_2, # of connection points: 2
#     Edge 46, Type (0, 0), BuildingBlock: XUDNAN_clean_linker_2, # of connection points: 2
#     Edge 47, Type (0, 0), BuildingBlock: XUDNAN_clean_linker_2, # of connection points: 2
#     Edge 48, Type (0, 0), BuildingBlock: XUDNAN_clean_linker_2, # of connection points: 2
#     Edge 49, Type (0, 0), BuildingBlock: XUDNAN_clean_linker_2, # of connection points: 2
#     Edge 50, Type (0, 0), BuildingBlock: XUDNAN_clean_linker_2, # of connection points: 2
#     Edge 51, Type (0, 0), BuildingBlock: XUDNAN_clean_linker_2, # of connection points: 2
#     Edge 52, Type (0, 0), BuildingBlock: XUDNAN_clean_linker_2, # of connection points: 2
#     Edge 53, Type (0, 0), BuildingBlock: XUDNAN_clean_linker_2, # of connection points: 2
#     Edge 54, Type (0, 0), BuildingBlock: XUDNAN_clean_linker_2, # of connection points: 2
#     Edge 55, Type (0, 0), BuildingBlock: XUDNAN_clean_linker_2, # of connection points: 2
#     Edge 56, Type (0, 0), BuildingBlock: XUDNAN_clean_linker_2, # of connection points: 2
#     Edge 57, Type (0, 0), BuildingBlock: XUDNAN_clean_linker_2, # of connection points: 2
#     Edge 58, Type (0, 0), BuildingBlock: XUDNAN_clean_linker_2, # of connection points: 2
#     Edge 59, Type (0, 0), BuildingBlock: XUDNAN_clean_linker_2, # of connection points: 2
#     Edge 60, Type (0, 0), BuildingBlock: XUDNAN_clean_linker_2, # of connection points: 2
#     Edge 61, Type (0, 0), BuildingBlock: XUDNAN_clean_linker_2, # of connection points: 2
#     Edge 62, Type (0, 0), BuildingBlock: XUDNAN_clean_linker_2, # of connection points: 2
#     Edge 63, Type (0, 0), BuildingBlock: XUDNAN_clean_linker_2, # of connection points: 2
# Relax obj value: 0.277
# Max RMSD: 0.215
# Mean RMSD: 0.215
data_MOF--net-whk--node1-OJICUG_clean_sbu_0--edge1-XUDNAN_clean_linker_2
_symmetry_space_group_name_H-M    P1
_symmetry_Int_Tables_number       1
_symmetry_cell_setting            triclinic
loop_
_symmetry_equiv_pos_as_xyz
'x, y, z'
_cell_length_a     36.555913
_cell_length_b     36.489911
_cell_length_c     53.825325
_cell_angle_alpha  89.893176
_cell_angle_beta   89.885658
_cell_angle_gamma 90.115845
loop_
_atom_site_label
_atom_site_type_symbol
_atom_site_fract_x
_atom_site_fract_y
_atom_site_fract_z
_atom_type_partial_charge
Sc0 Sc 0.57835 0.14321 0.4027 0.0
Sc1 Sc 0.57934 0.22834 0.37453 0.0
Sc2 Sc 0.51934 0.2111 0.42394 0.0
O3 O 0.55736 0.19397 0.39988 0.0
C4 C 0.4927 0.1314 0.40529 0.0
C5 C 0.57589 0.15863 0.34316 0.0
C6 C 0.49831 0.26121 0.37933 0.0
C7 C 0.64583 0.19139 0.39549 0.0
C8 C 0.5661 0.16034 0.45995 0.0
C9 C 0.57932 0.27554 0.42364 0.0
O10 O 0.52417 0.12085 0.39772 0.0
O11 O 0.56502 0.19189 0.34442 0.0
O12 O 0.48778 0.23826 0.39566 0.0
O13 O 0.6314 0.1679 0.40986 0.0
O14 O 0.54754 0.18902 0.45586 0.0
O15 O 0.59632 0.2647 0.40421 0.0
O16 O 0.57464 0.13834 0.44266 0.0
O17 O 0.63006 0.19942 0.37542 0.0
O18 O 0.54941 0.26107 0.43118 0.0
O19 O 0.58556 0.14027 0.36234 0.0
O20 O 0.48755 0.16142 0.41714 0.0
O21 O 0.53067 0.26123 0.37059 0.0
Sc22 Sc 0.36418 0.58015 0.40799 0.0
Sc23 Sc 0.27831 0.57695 0.38155 0.0
Sc24 Sc 0.30043 0.51931 0.43121 0.0
O25 O 0.31427 0.55739 0.40646 0.0
C26 C 0.37922 0.49602 0.40955 0.0
C27 C 0.34778 0.57889 0.34937 0.0
C28 C 0.25269 0.49324 0.38655 0.0
C29 C 0.31188 0.6444 0.4044 0.0
C30 C 0.35173 0.56693 0.46517 0.0
C31 C 0.2304 0.5724 0.43012 0.0
O32 O 0.38705 0.52725 0.40009 0.0
O33 O 0.3157 0.56492 0.3509 0.0
O34 O 0.27637 0.48517 0.40297 0.0
O35 O 0.33751 0.63111 0.41751 0.0
O36 O 0.32093 0.55138 0.46237 0.0
O37 O 0.24022 0.59107 0.41113 0.0
O38 O 0.37342 0.57209 0.44714 0.0
O39 O 0.30381 0.62974 0.38384 0.0
O40 O 0.24773 0.54434 0.43794 0.0
O41 O 0.36422 0.59154 0.36843 0.0
O42 O 0.35227 0.49099 0.42451 0.0
O43 O 0.24916 0.52548 0.37775 0.0
Sc44 Sc 0.93777 0.3657 0.40599 0.0
Sc45 Sc 0.91802 0.28056 0.37872 0.0
Sc46 Sc 0.98254 0.28747 0.42664 0.0
O47 O 0.94666 0.3111 0.40333 0.0
C48 C 0.02355 0.36026 0.40717 0.0
C49 C 0.92418 0.35221 0.34714 0.0
C50 C 0.99672 0.24144 0.37775 0.0
C51 C 0.85881 0.33388 0.40306 0.0
C52 C 0.94718 0.34534 0.46284 0.0
C53 C 0.91757 0.22873 0.42665 0.0
O54 O 0.99526 0.37655 0.3987 0.0
O55 O 0.92856 0.31755 0.34768 0.0
O56 O 0.00814 0.25729 0.39729 0.0
O57 O 0.88109 0.35502 0.41416 0.0
O58 O 0.95842 0.31314 0.45862 0.0
O59 O 0.90232 0.24094 0.40704 0.0
O60 O 0.94558 0.36938 0.4458 0.0
O61 O 0.86847 0.31001 0.38709 0.0
O62 O 0.94738 0.2418 0.43496 0.0
O63 O 0.92527 0.37152 0.36682 0.0
O64 O 0.02176 0.33084 0.42 0.0
O65 O 0.96482 0.2468 0.36885 0.0
Sc66 Sc 0.19705 0.99051 0.42998 0.0
Sc67 Sc 0.2335 0.91883 0.39437 0.0
Sc68 Sc 0.13779 0.92893 0.39932 0.0
O69 O 0.18953 0.94646 0.40753 0.0
C70 C 0.13141 0.94803 0.45696 0.0
C71 C 0.26276 0.94087 0.44851 0.0
C72 C 0.18025 0.85586 0.41326 0.0
C73 C 0.26055 0.00106 0.38898 0.0
C74 C 0.13009 0.01576 0.39538 0.0
C75 C 0.1773 0.91029 0.34839 0.0
O76 O 0.15843 0.97006 0.4574 0.0
O77 O 0.26478 0.92256 0.4285 0.0
O78 O 0.15046 0.87271 0.40906 0.0
O79 O 0.23939 0.01293 0.40608 0.0
O80 O 0.12011 0.9835 0.38948 0.0
O81 O 0.209 0.9085 0.35815 0.0
O82 O 0.15653 0.02205 0.41015 0.0
O83 O 0.25928 0.96824 0.38084 0.0
O84 O 0.14914 0.9197 0.3606 0.0
O85 O 0.23866 0.96523 0.4521 0.0
O86 O 0.11976 0.93385 0.437 0.0
O87 O 0.21172 0.86899 0.40871 0.0
Sc88 Sc 0.06901 0.85233 0.13364 0.0
Sc89 Sc 0.08313 0.75823 0.14534 0.0
Sc90 Sc 0.01417 0.78607 0.10421 0.0
O91 O 0.05515 0.79877 0.12806 0.0
C92 C 0.98281 0.8556 0.13409 0.0
C93 C 0.08526 0.81864 0.18785 0.0
C94 C 0.00135 0.72752 0.14732 0.0
C95 C 0.1452 0.81436 0.12726 0.0
C96 C 0.05357 0.85054 0.07518 0.0
C97 C 0.07107 0.72212 0.09208 0.0
O98 O 0.01342 0.86607 0.14282 0.0
O99 O 0.08316 0.78537 0.18093 0.0
O100 O 0.98953 0.74877 0.13036 0.0
O101 O 0.12509 0.84226 0.12426 0.0
O102 O 0.03658 0.82021 0.07546 0.0
O103 O 0.08862 0.72591 0.11223 0.0
O104 O 0.06251 0.86726 0.09497 0.0
O105 O 0.13406 0.78387 0.13594 0.0
O106 O 0.04332 0.74149 0.08671 0.0
O107 O 0.08079 0.8454 0.17296 0.0
O108 O 0.97972 0.82923 0.11874 0.0
O109 O 0.03434 0.7276 0.15493 0.0
Sc110 Sc 0.70395 0.01735 0.09239 0.0
Sc111 Sc 0.72535 0.07632 0.141 0.0
Sc112 Sc 0.63292 0.05956 0.12603 0.0
O113 O 0.68723 0.05087 0.11999 0.0
C114 C 0.63679 0.05834 0.06671 0.0
C115 C 0.76508 0.07697 0.08759 0.0
C116 C 0.66939 0.1389 0.12859 0.0
C117 C 0.75904 0.998 0.13747 0.0
C118 C 0.63784 0.97317 0.1169 0.0
C119 C 0.66041 0.06571 0.18131 0.0
O120 O 0.66586 0.03944 0.06557 0.0
O121 O 0.76463 0.08398 0.11076 0.0
O122 O 0.64093 0.11861 0.12864 0.0
O123 O 0.74568 0.99319 0.11581 0.0
O124 O 0.62079 0.00127 0.12485 0.0
O125 O 0.69251 0.07579 0.175 0.0
O126 O 0.66762 0.97522 0.10479 0.0
O127 O 0.751 0.02548 0.15098 0.0
O128 O 0.63705 0.0543 0.16572 0.0
O129 O 0.74185 0.05596 0.07759 0.0
O130 O 0.62161 0.06707 0.08709 0.0
O131 O 0.70181 0.1271 0.13119 0.0
Sc132 Sc 0.47477 0.70297 0.09794 0.0
Sc133 Sc 0.42435 0.71679 0.15129 0.0
Sc134 Sc 0.42467 0.63184 0.123 0.0
O135 O 0.442 0.68395 0.12423 0.0
C136 C 0.42557 0.65279 0.06557 0.0
C137 C 0.41795 0.7687 0.1055 0.0
C138 C 0.35693 0.67696 0.13332 0.0
C139 C 0.50543 0.74637 0.14228 0.0
C140 C 0.50842 0.62744 0.11385 0.0
C141 C 0.43246 0.64719 0.18176 0.0
O142 O 0.43865 0.68454 0.06927 0.0
O143 O 0.40172 0.75476 0.12432 0.0
O144 O 0.37005 0.65334 0.11846 0.0
O145 O 0.51224 0.72327 0.12525 0.0
O146 O 0.48146 0.61516 0.1266 0.0
O147 O 0.44551 0.67938 0.17879 0.0
O148 O 0.50461 0.65214 0.09728 0.0
O149 O 0.47377 0.7498 0.15195 0.0
O150 O 0.41908 0.62879 0.16369 0.0
O151 O 0.44722 0.7552 0.09644 0.0
O152 O 0.42602 0.62807 0.08239 0.0
O153 O 0.3745 0.68572 0.15266 0.0
Sc154 Sc 0.79469 0.47583 0.0933 0.0
Sc155 Sc 0.76378 0.42487 0.14438 0.0
Sc156 Sc 0.85583 0.41799 0.12526 0.0
O157 O 0.8047 0.43955 0.12096 0.0
C158 C 0.85199 0.42373 0.06583 0.0
C159 C 0.72508 0.42341 0.09056 0.0
C160 C 0.80655 0.34978 0.13495 0.0
C161 C 0.74103 0.5073 0.13503 0.0
C162 C 0.86797 0.50438 0.11906 0.0
C163 C 0.82966 0.42525 0.18229 0.0
O164 O 0.82569 0.44628 0.06594 0.0
O165 O 0.72718 0.41297 0.11323 0.0
O166 O 0.83509 0.3623 0.1243 0.0
O167 O 0.76044 0.51065 0.11559 0.0
O168 O 0.87834 0.4734 0.12766 0.0
O169 O 0.79674 0.43446 0.1775 0.0
O170 O 0.84028 0.50833 0.105 0.0
O171 O 0.74012 0.4782 0.14788 0.0
O172 O 0.85255 0.41691 0.16542 0.0
O173 O 0.7477 0.44583 0.08086 0.0
O174 O 0.86686 0.41266 0.08578 0.0
O175 O 0.78133 0.36967 0.14377 0.0
Sc176 Sc 0.47612 0.80068 0.60493 0.0
Sc177 Sc 0.42374 0.76503 0.65384 0.0
Sc178 Sc 0.4223 0.85877 0.6412 0.0
O179 O 0.44092 0.80792 0.63332 0.0
C180 C 0.50644 0.87155 0.63383 0.0
C181 C 0.50636 0.74177 0.64249 0.0
C182 C 0.42628 0.82346 0.69582 0.0
C183 C 0.42243 0.73123 0.59947 0.0
C184 C 0.42645 0.86249 0.58218 0.0
C185 C 0.35205 0.81439 0.64771 0.0
O186 O 0.50816 0.84822 0.61617 0.0
O187 O 0.47556 0.73715 0.65305 0.0
O188 O 0.4175 0.84843 0.68051 0.0
O189 O 0.44855 0.75173 0.59208 0.0
O190 O 0.42246 0.87747 0.60326 0.0
O191 O 0.37009 0.78753 0.65636 0.0
O192 O 0.44227 0.83179 0.57952 0.0
O193 O 0.40753 0.73437 0.62083 0.0
O194 O 0.36656 0.84157 0.63665 0.0
O195 O 0.51246 0.76724 0.62683 0.0
O196 O 0.47746 0.87714 0.64642 0.0
O197 O 0.43734 0.79197 0.68877 0.0
Sc198 Sc 0.63586 0.42808 0.61443 0.0
Sc199 Sc 0.72188 0.41277 0.64115 0.0
Sc200 Sc 0.71104 0.47697 0.59329 0.0
O201 O 0.68977 0.43974 0.61673 0.0
C202 C 0.65473 0.43977 0.55754 0.0
C203 C 0.67172 0.35098 0.61654 0.0
C204 C 0.77344 0.41586 0.5931 0.0
C205 C 0.65059 0.41406 0.67316 0.0
C206 C 0.63756 0.51388 0.61365 0.0
C207 C 0.75643 0.49379 0.6417 0.0
O208 O 0.63098 0.43753 0.57474 0.0
O209 O 0.69466 0.36187 0.63278 0.0
O210 O 0.75869 0.44503 0.58507 0.0
O211 O 0.63129 0.41377 0.65348 0.0
O212 O 0.66555 0.51323 0.59949 0.0
O213 O 0.75328 0.46143 0.65054 0.0
O214 O 0.62309 0.4849 0.62281 0.0
O215 O 0.68478 0.42117 0.67256 0.0
O216 O 0.73915 0.50456 0.62257 0.0
O217 O 0.64941 0.37216 0.60546 0.0
O218 O 0.68683 0.45122 0.56162 0.0
O219 O 0.76211 0.39938 0.61258 0.0
Sc220 Sc 0.06768 0.63507 0.61749 0.0
Sc221 Sc 0.06774 0.72752 0.63708 0.0
Sc222 Sc 0.00993 0.69946 0.58847 0.0
O223 O 0.04838 0.68739 0.61447 0.0
C224 C 0.05963 0.64234 0.55873 0.0
C225 C 0.13914 0.68218 0.62278 0.0
C226 C 0.06176 0.76936 0.58451 0.0
C227 C 0.06737 0.65907 0.6746 0.0
C228 C 0.98139 0.62453 0.61279 0.0
C229 C 0.98506 0.75155 0.63354 0.0
O230 O 0.07275 0.62754 0.57805 0.0
O231 O 0.12211 0.71055 0.62985 0.0
O232 O 0.04012 0.74622 0.57462 0.0
O233 O 0.06656 0.63548 0.65733 0.0
O234 O 0.97568 0.65441 0.60111 0.0
O235 O 0.01477 0.74989 0.64572 0.0
O236 O 0.01318 0.61363 0.61873 0.0
O237 O 0.06698 0.69353 0.67055 0.0
O238 O 0.9799 0.73466 0.6132 0.0
O239 O 0.12401 0.65182 0.61772 0.0
O240 O 0.03619 0.66792 0.55944 0.0
O241 O 0.07297 0.76637 0.6068 0.0
Sc242 Sc 0.85972 0.06656 0.61193 0.0
Sc243 Sc 0.77814 0.07892 0.64332 0.0
Sc244 Sc 0.78344 0.01833 0.59349 0.0
O245 O 0.80709 0.05283 0.61702 0.0
C246 C 0.83656 0.05799 0.55621 0.0
C247 C 0.82033 0.1394 0.61845 0.0
C248 C 0.72536 0.08331 0.59662 0.0
C249 C 0.84975 0.07167 0.67186 0.0
C250 C 0.85882 0.98097 0.60999 0.0
C251 C 0.73889 0.00031 0.64148 0.0
O252 O 0.86183 0.05768 0.5723 0.0
O253 O 0.81334 0.12539 0.63936 0.0
O254 O 0.73567 0.05182 0.58932 0.0
O255 O 0.86644 0.07794 0.65138 0.0
O256 O 0.82996 0.98214 0.59661 0.0
O257 O 0.74169 0.03292 0.64979 0.0
O258 O 0.87419 0.00967 0.61892 0.0
O259 O 0.81605 0.06197 0.67233 0.0
O260 O 0.75798 0.98863 0.62335 0.0
O261 O 0.84054 0.12194 0.6033 0.0
O262 O 0.80453 0.04704 0.56141 0.0
O263 O 0.74024 0.09972 0.61505 0.0
Sc264 Sc 0.92676 0.13599 0.89278 0.0
Sc265 Sc 0.93266 0.22771 0.87321 0.0
Sc266 Sc 0.98598 0.19801 0.92343 0.0
O267 O 0.94859 0.18722 0.89642 0.0
C268 C 0.93342 0.14195 0.95187 0.0
C269 C 0.85807 0.18454 0.88353 0.0
C270 C 0.9329 0.26682 0.92711 0.0
C271 C 0.93255 0.16096 0.83557 0.0
C272 C 0.01297 0.12286 0.89927 0.0
C273 C 0.01538 0.25121 0.8805 0.0
O274 O 0.92111 0.12746 0.93218 0.0
O275 O 0.87753 0.21052 0.87516 0.0
O276 O 0.95594 0.24465 0.93642 0.0
O277 O 0.92606 0.13776 0.85268 0.0
O278 O 0.01827 0.152 0.91179 0.0
O279 O 0.98598 0.25028 0.86813 0.0
O280 O 0.98153 0.11305 0.89131 0.0
O281 O 0.94025 0.19445 0.83999 0.0
O282 O 0.01965 0.23319 0.90051 0.0
O283 O 0.87102 0.15567 0.89333 0.0
O284 O 0.95746 0.167 0.95149 0.0
O285 O 0.92209 0.26462 0.90454 0.0
Sc286 Sc 0.36209 0.92116 0.91946 0.0
Sc287 Sc 0.27338 0.91309 0.89445 0.0
Sc288 Sc 0.29149 0.97924 0.94018 0.0
O289 O 0.30897 0.93792 0.91787 0.0
C290 C 0.34724 0.93918 0.97661 0.0
C291 C 0.31967 0.84676 0.91758 0.0
C292 C 0.2254 0.92309 0.9443 0.0
C293 C 0.34565 0.90816 0.86145 0.0
C294 C 0.36685 0.00835 0.91722 0.0
C295 C 0.24385 0.99432 0.89109 0.0
O296 O 0.36627 0.92588 0.95913 0.0
O297 O 0.29306 0.86111 0.906 0.0
O298 O 0.24536 0.94836 0.95325 0.0
O299 O 0.36611 0.91099 0.88036 0.0
O300 O 0.33639 0.0136 0.92823 0.0
O301 O 0.24923 0.96315 0.88124 0.0
O302 O 0.37986 0.97663 0.91286 0.0
O303 O 0.31102 0.91219 0.8627 0.0
O304 O 0.25806 0.0036 0.9117 0.0
O305 O 0.34757 0.86442 0.92498 0.0
O306 O 0.31947 0.95905 0.97263 0.0
O307 O 0.23153 0.90861 0.92315 0.0
Sc308 Sc 0.56635 0.35877 0.89608 0.0
Sc309 Sc 0.57251 0.26447 0.88088 0.0
Sc310 Sc 0.51226 0.29286 0.92748 0.0
O311 O 0.5504 0.30536 0.90135 0.0
C312 C 0.55781 0.35482 0.95543 0.0
C313 C 0.64062 0.31539 0.89469 0.0
C314 C 0.56599 0.22565 0.9345 0.0
C315 C 0.57101 0.32903 0.84006 0.0
C316 C 0.47935 0.36297 0.90004 0.0
C317 C 0.49054 0.2368 0.88421 0.0
O318 O 0.56849 0.37039 0.93555 0.0
O319 O 0.62552 0.28576 0.88783 0.0
O320 O 0.5425 0.24818 0.94263 0.0
O321 O 0.57015 0.35469 0.856 0.0
O322 O 0.47732 0.33507 0.9141 0.0
O323 O 0.52091 0.23893 0.87273 0.0
O324 O 0.50957 0.37598 0.89199 0.0
O325 O 0.56933 0.29524 0.8461 0.0
O326 O 0.48367 0.25522 0.9037 0.0
O327 O 0.62362 0.34516 0.89869 0.0
O328 O 0.53717 0.32686 0.95528 0.0
O329 O 0.57958 0.22767 0.91271 0.0
Sc330 Sc 0.2025 0.52074 0.92175 0.0
Sc331 Sc 0.22836 0.57918 0.87266 0.0
Sc332 Sc 0.13611 0.57518 0.8921 0.0
O333 O 0.18901 0.55821 0.89537 0.0
C334 C 0.1295 0.48837 0.89816 0.0
C335 C 0.25645 0.4973 0.87797 0.0
C336 C 0.16193 0.57337 0.8349 0.0
C337 C 0.26776 0.57861 0.92609 0.0
C338 C 0.14301 0.5677 0.95107 0.0
C339 C 0.17843 0.64885 0.88423 0.0
O340 O 0.15841 0.48534 0.91108 0.0
O341 O 0.25627 0.52814 0.86706 0.0
O342 O 0.13833 0.57563 0.85218 0.0
O343 O 0.24804 0.55269 0.93456 0.0
O344 O 0.1268 0.57869 0.93161 0.0
O345 O 0.20617 0.63227 0.87577 0.0
O346 O 0.17068 0.54683 0.95027 0.0
O347 O 0.26379 0.59158 0.9042 0.0
O348 O 0.15082 0.63264 0.89353 0.0
O349 O 0.23726 0.49023 0.89708 0.0
O350 O 0.11781 0.51886 0.88978 0.0
O351 O 0.19628 0.57128 0.83893 0.0
H352 H 0.61457 0.18422 0.30279 0.0
H353 H 0.55123 0.09153 0.32928 0.0
H354 H 0.56676 0.05716 0.2911 0.0
H355 H 0.59497 0.1739 0.23614 0.0
H356 H 0.64081 0.18613 0.22686 0.0
H357 H 0.62172 0.20457 0.25508 0.0
H358 H 0.67697 0.17919 0.2797 0.0
H359 H 0.6959 0.16018 0.25163 0.0
H360 H 0.68748 0.131 0.2781 0.0
H361 H 0.58937 0.03274 0.25003 0.0
H362 H 0.618 0.0198 0.20927 0.0
H363 H 0.67155 0.12585 0.21091 0.0
C364 C 0.6032 0.15708 0.30014 0.0
C365 C 0.58089 0.14078 0.31866 0.0
C366 C 0.56776 0.10466 0.31509 0.0
C367 C 0.5766 0.08491 0.29353 0.0
C368 C 0.59929 0.10135 0.27585 0.0
C369 C 0.6125 0.1366 0.27891 0.0
C370 C 0.63811 0.14698 0.25773 0.0
C371 C 0.62299 0.17984 0.24308 0.0
C372 C 0.67691 0.15479 0.26738 0.0
C373 C 0.63713 0.11215 0.24229 0.0
C374 C 0.61429 0.08632 0.25299 0.0
C375 C 0.60761 0.05262 0.24164 0.0
C376 C 0.62412 0.0454 0.21856 0.0
C377 C 0.6477 0.07137 0.20724 0.0
C378 C 0.65459 0.10499 0.2195 0.0
H379 H 0.37174 0.61465 0.2023 0.0
H380 H 0.48229 0.64953 0.21935 0.0
H381 H 0.4736 0.62974 0.26298 0.0
H382 H 0.33284 0.64861 0.25801 0.0
H383 H 0.2998 0.61224 0.26165 0.0
H384 H 0.31594 0.62456 0.23113 0.0
H385 H 0.33601 0.55751 0.22352 0.0
H386 H 0.31993 0.54496 0.25407 0.0
H387 H 0.36655 0.53563 0.24519 0.0
H388 H 0.45276 0.60853 0.30446 0.0
H389 H 0.42003 0.5931 0.34278 0.0
H390 H 0.32011 0.57564 0.30075 0.0
C391 C 0.39435 0.61726 0.21515 0.0
C392 C 0.42807 0.63288 0.2074 0.0
C393 C 0.45653 0.63722 0.22488 0.0
C394 C 0.45181 0.62596 0.24964 0.0
C395 C 0.4182 0.61098 0.25676 0.0
C396 C 0.38976 0.60696 0.24016 0.0
C397 C 0.35535 0.59337 0.25333 0.0
C398 C 0.32414 0.62137 0.25089 0.0
C399 C 0.34378 0.55562 0.24343 0.0
C400 C 0.36882 0.59073 0.28 0.0
C401 C 0.40537 0.60046 0.28129 0.0
C402 C 0.42415 0.60094 0.30368 0.0
C403 C 0.40508 0.59216 0.32544 0.0
C404 C 0.36718 0.58337 0.32505 0.0
C405 C 0.349 0.58199 0.3018 0.0
H406 H 0.92638 0.32642 0.29829 0.0
H407 H 0.89324 0.4199 0.34278 0.0
H408 H 0.866 0.44857 0.30592 0.0
H409 H 0.94986 0.38081 0.24262 0.0
H410 H 0.93352 0.34629 0.22143 0.0
H411 H 0.95137 0.3331 0.25132 0.0
H412 H 0.89096 0.2987 0.261 0.0
H413 H 0.87281 0.31207 0.23126 0.0
H414 H 0.84815 0.32303 0.25931 0.0
H415 H 0.83648 0.46487 0.26501 0.0
H416 H 0.81479 0.47099 0.22153 0.0
H417 H 0.87124 0.37055 0.20237 0.0
C418 C 0.91388 0.35314 0.30021 0.0
C419 C 0.91217 0.37071 0.32367 0.0
C420 C 0.89535 0.40573 0.32518 0.0
C421 C 0.87949 0.42231 0.30429 0.0
C422 C 0.88101 0.40405 0.28165 0.0
C423 C 0.89844 0.37061 0.27931 0.0
C424 C 0.89659 0.35724 0.25261 0.0
C425 C 0.93513 0.35419 0.24133 0.0
C426 C 0.87589 0.32059 0.25096 0.0
C427 C 0.87499 0.38808 0.24054 0.0
C428 C 0.86583 0.41459 0.2577 0.0
C429 C 0.84404 0.44459 0.25129 0.0
C430 C 0.83168 0.44782 0.22662 0.0
C431 C 0.84177 0.42164 0.20853 0.0
C432 C 0.86372 0.39142 0.21571 0.0
H433 H 0.12659 0.93168 0.31319 0.0
H434 H 0.21393 0.85387 0.32677 0.0
H435 H 0.1981 0.82139 0.28807 0.0
H436 H 0.06207 0.87046 0.28762 0.0
H437 H 0.04573 0.90101 0.26376 0.0
H438 H 0.06424 0.91936 0.29214 0.0
H439 H 0.11132 0.95767 0.26713 0.0
H440 H 0.09251 0.93998 0.23864 0.0
H441 H 0.14066 0.93515 0.24497 0.0
H442 H 0.16857 0.79331 0.25079 0.0
H443 H 0.13558 0.77798 0.21234 0.0
H444 H 0.07096 0.87706 0.21956 0.0
C445 C 0.14281 0.90823 0.30772 0.0
C446 C 0.17164 0.89538 0.323 0.0
C447 C 0.19212 0.86453 0.31526 0.0
C448 C 0.18307 0.84566 0.29341 0.0
C449 C 0.15395 0.85841 0.27914 0.0
C450 C 0.13479 0.8896 0.28552 0.0
C451 C 0.10541 0.89794 0.26634 0.0
C452 C 0.0671 0.89714 0.27818 0.0
C453 C 0.11294 0.93487 0.2535 0.0
C454 C 0.11059 0.86612 0.24849 0.0
C455 C 0.13834 0.84337 0.25657 0.0
C456 C 0.14716 0.8112 0.24408 0.0
C457 C 0.12792 0.80251 0.22237 0.0
C458 C 0.10054 0.8262 0.21292 0.0
C459 C 0.09171 0.85842 0.2263 0.0
H460 H 0.32359 0.91566 0.81191 0.0
H461 H 0.40748 0.86744 0.85866 0.0
H462 H 0.43627 0.83973 0.82206 0.0
H463 H 0.31594 0.841 0.76849 0.0
H464 H 0.31101 0.8699 0.74152 0.0
H465 H 0.296 0.88594 0.77149 0.0
H466 H 0.33731 0.94335 0.76701 0.0
H467 H 0.35225 0.92758 0.73697 0.0
H468 H 0.38543 0.93768 0.76073 0.0
H469 H 0.45484 0.81392 0.78057 0.0
H470 H 0.46509 0.79815 0.73625 0.0
H471 H 0.37273 0.86622 0.7158 0.0
C472 C 0.3481 0.89944 0.81438 0.0
C473 C 0.36322 0.89405 0.83831 0.0
C474 C 0.39544 0.87257 0.84062 0.0
C475 C 0.412 0.85635 0.8199 0.0
C476 C 0.39651 0.86206 0.79668 0.0
C477 C 0.36562 0.88353 0.79367 0.0
C478 C 0.35549 0.88618 0.76639 0.0
C479 C 0.31735 0.86977 0.76171 0.0
C480 C 0.35777 0.92607 0.75724 0.0
C481 C 0.38529 0.86275 0.75476 0.0
C482 C 0.40839 0.84865 0.77258 0.0
C483 C 0.43717 0.82514 0.76638 0.0
C484 C 0.44277 0.8162 0.74121 0.0
C485 C 0.42014 0.83132 0.72257 0.0
C486 C 0.39097 0.85474 0.7296 0.0
H487 H 0.62001 0.37856 0.8204 0.0
H488 H 0.53552 0.30104 0.79957 0.0
H489 H 0.54529 0.31682 0.75525 0.0
H490 H 0.60343 0.44726 0.77278 0.0
H491 H 0.65123 0.45654 0.76733 0.0
H492 H 0.6361 0.44115 0.79748 0.0
H493 H 0.68169 0.38704 0.79552 0.0
H494 H 0.69703 0.40232 0.7654 0.0
H495 H 0.68031 0.35618 0.76943 0.0
H496 H 0.56292 0.34213 0.71352 0.0
H497 H 0.59142 0.36927 0.67647 0.0
H498 H 0.66956 0.42677 0.72303 0.0
C499 C 0.60328 0.36528 0.80647 0.0
C500 C 0.57643 0.33901 0.81344 0.0
C501 C 0.5559 0.32141 0.79467 0.0
C502 C 0.56126 0.3303 0.76947 0.0
C503 C 0.58789 0.35627 0.76321 0.0
C504 C 0.60903 0.3731 0.7811 0.0
C505 C 0.6375 0.39817 0.76913 0.0
C506 C 0.63171 0.43815 0.77716 0.0
C507 C 0.67644 0.38514 0.77524 0.0
C508 C 0.62887 0.39308 0.74169 0.0
C509 C 0.59974 0.36918 0.73886 0.0
C510 C 0.58585 0.36069 0.71553 0.0
C511 C 0.60224 0.37655 0.69452 0.0
C512 C 0.63285 0.40041 0.69659 0.0
C513 C 0.64632 0.40868 0.72067 0.0
H514 H 0.11832 0.68124 0.70891 0.0
H515 H 0.03147 0.60237 0.69655 0.0
H516 H 0.04822 0.57023 0.73536 0.0
H517 H 0.18316 0.61676 0.73073 0.0
H518 H 0.20334 0.64642 0.7537 0.0
H519 H 0.18255 0.66575 0.72634 0.0
H520 H 0.13991 0.70554 0.75367 0.0
H521 H 0.16112 0.68692 0.7811 0.0
H522 H 0.11223 0.6839 0.77728 0.0
H523 H 0.07495 0.5459 0.77493 0.0
H524 H 0.10827 0.53262 0.81387 0.0
H525 H 0.18101 0.62416 0.7995 0.0
C526 C 0.10213 0.65793 0.71488 0.0
C527 C 0.07295 0.64477 0.70009 0.0
C528 C 0.05341 0.61324 0.70788 0.0
C529 C 0.06292 0.59468 0.72979 0.0
C530 C 0.09251 0.60759 0.74355 0.0
C531 C 0.11175 0.6386 0.73654 0.0
C532 C 0.14345 0.64561 0.75416 0.0
C533 C 0.1803 0.64351 0.74041 0.0
C534 C 0.13889 0.68269 0.76734 0.0
C535 C 0.1389 0.61381 0.7722 0.0
C536 C 0.10925 0.59231 0.76571 0.0
C537 C 0.09844 0.56232 0.78006 0.0
C538 C 0.11767 0.55476 0.80201 0.0
C539 C 0.14781 0.57664 0.80925 0.0
C540 C 0.15893 0.60617 0.79389 0.0
H541 H 0.8261 0.06801 0.72142 0.0
H542 H 0.91874 0.09977 0.67535 0.0
H543 H 0.94978 0.12489 0.71179 0.0
H544 H 0.8271 0.14519 0.76127 0.0
H545 H 0.81668 0.12031 0.78937 0.0
H546 H 0.80143 0.10301 0.75983 0.0
H547 H 0.83431 0.04144 0.76823 0.0
H548 H 0.84937 0.05843 0.79792 0.0
H549 H 0.88233 0.04152 0.77581 0.0
H550 H 0.96859 0.15326 0.75219 0.0
H551 H 0.97711 0.17469 0.79553 0.0
H552 H 0.87624 0.12034 0.81683 0.0
C553 C 0.85314 0.07966 0.71906 0.0
C554 C 0.86957 0.08189 0.6952 0.0
C555 C 0.90512 0.09759 0.69317 0.0
C556 C 0.92317 0.11217 0.71385 0.0
C557 C 0.90593 0.11046 0.73683 0.0
C558 C 0.87209 0.09392 0.73976 0.0
C559 C 0.86002 0.09566 0.76678 0.0
C560 C 0.82419 0.11733 0.76946 0.0
C561 C 0.8563 0.05696 0.77784 0.0
C562 C 0.89201 0.11626 0.77828 0.0
C563 C 0.91799 0.12493 0.76059 0.0
C564 C 0.94879 0.14602 0.76635 0.0
C565 C 0.95339 0.15823 0.79093 0.0
C566 C 0.92776 0.14864 0.80953 0.0
C567 C 0.89673 0.12735 0.80304 0.0
H568 H 0.42278 0.13534 0.42442 0.0
H569 H 0.48869 0.07772 0.36985 0.0
H570 H 0.43397 0.04397 0.35593 0.0
H571 H 0.36782 0.05834 0.44138 0.0
H572 H 0.32684 0.08495 0.44577 0.0
H573 H 0.37093 0.10586 0.45027 0.0
H574 H 0.35389 0.15623 0.41827 0.0
H575 H 0.31 0.13491 0.41332 0.0
H576 H 0.34017 0.14316 0.38737 0.0
H577 H 0.37245 0.01524 0.34854 0.0
H578 H 0.31093 0.98791 0.3521 0.0
H579 H 0.28506 0.06393 0.41158 0.0
C580 C 0.42575 0.1157 0.4095 0.0
C581 C 0.46016 0.1093 0.39824 0.0
C582 C 0.46277 0.08304 0.37892 0.0
C583 C 0.43174 0.06396 0.37068 0.0
C584 C 0.3982 0.0713 0.38194 0.0
C585 C 0.39509 0.09617 0.40115 0.0
C586 C 0.35635 0.09718 0.41121 0.0
C587 C 0.35545 0.0859 0.43878 0.0
C588 C 0.33909 0.13513 0.4073 0.0
C589 C 0.33829 0.0686 0.39488 0.0
C590 C 0.36277 0.05442 0.37786 0.0
C591 C 0.35297 0.02629 0.3617 0.0
C592 C 0.31781 0.01104 0.36378 0.0
C593 C 0.29289 0.02372 0.38206 0.0
C594 C 0.30303 0.05388 0.39711 0.0
H595 H 0.37754 0.42574 0.42851 0.0
H596 H 0.4272 0.4922 0.37044 0.0
H597 H 0.45659 0.43713 0.35315 0.0
H598 H 0.45527 0.36751 0.43796 0.0
H599 H 0.42797 0.32725 0.44393 0.0
H600 H 0.41002 0.37191 0.45098 0.0
H601 H 0.35358 0.35795 0.4234 0.0
H602 H 0.37192 0.31354 0.41579 0.0
H603 H 0.36026 0.34525 0.39135 0.0
H604 H 0.48129 0.37509 0.34233 0.0
H605 H 0.50649 0.31245 0.34241 0.0
H606 H 0.44083 0.28624 0.4074 0.0
C607 C 0.39468 0.42881 0.41221 0.0
C608 C 0.39995 0.46346 0.40089 0.0
C609 C 0.42281 0.46612 0.37962 0.0
C610 C 0.43936 0.43489 0.36946 0.0
C611 C 0.43293 0.40111 0.38076 0.0
C612 C 0.41162 0.39794 0.40189 0.0
C613 C 0.41081 0.35875 0.41125 0.0
C614 C 0.42699 0.35621 0.43758 0.0
C615 C 0.37182 0.34295 0.41039 0.0
C616 C 0.43534 0.34046 0.39223 0.0
C617 C 0.44739 0.36529 0.3746 0.0
C618 C 0.47189 0.35534 0.35595 0.0
C619 C 0.48589 0.31957 0.35605 0.0
C620 C 0.47556 0.2942 0.37479 0.0
C621 C 0.4488 0.30456 0.39248 0.0
H622 H 0.04517 0.43053 0.39353 0.0
H623 H 0.08633 0.32052 0.40632 0.0
H624 H 0.14861 0.34135 0.39651 0.0
H625 H 0.10877 0.45507 0.34274 0.0
H626 H 0.11459 0.50148 0.35345 0.0
H627 H 0.07215 0.47762 0.35913 0.0
H628 H 0.07842 0.48978 0.40641 0.0
H629 H 0.12051 0.51404 0.40075 0.0
H630 H 0.11966 0.47604 0.42217 0.0
H631 H 0.20706 0.37422 0.38914 0.0
H632 H 0.25821 0.41849 0.38695 0.0
H633 H 0.18051 0.50723 0.37806 0.0
C634 C 0.06724 0.41079 0.39393 0.0
C635 C 0.06071 0.37388 0.40074 0.0
C636 C 0.09051 0.34901 0.40138 0.0
C637 C 0.12607 0.36047 0.39561 0.0
C638 C 0.13168 0.39696 0.38919 0.0
C639 C 0.10323 0.42188 0.38842 0.0
C640 C 0.11746 0.46014 0.38288 0.0
C641 C 0.10234 0.47441 0.35807 0.0
C642 C 0.10849 0.48653 0.40433 0.0
C643 C 0.15826 0.45278 0.38114 0.0
C644 C 0.16579 0.41606 0.38458 0.0
C645 C 0.20156 0.40297 0.38595 0.0
C646 C 0.23046 0.42825 0.3846 0.0
C647 C 0.22341 0.46613 0.38176 0.0
C648 C 0.18683 0.47829 0.3793 0.0
H649 H 0.14075 0.08871 0.40539 0.0
H650 H 0.07353 0.01493 0.36163 0.0
H651 H 0.03844 0.06781 0.34586 0.0
H652 H 0.07074 0.14458 0.42501 0.0
H653 H 0.09691 0.18648 0.424 0.0
H654 H 0.11975 0.1435 0.42866 0.0
H655 H 0.16122 0.15697 0.39054 0.0
H656 H 0.13804 0.19993 0.38561 0.0
H657 H 0.14063 0.16681 0.36087 0.0
H658 H 0.00599 0.12796 0.33888 0.0
H659 H 0.97658 0.18827 0.34415 0.0
H660 H 0.06611 0.22255 0.39167 0.0
C661 C 0.11913 0.08358 0.39212 0.0
C662 C 0.11004 0.04753 0.38476 0.0
C663 C 0.08114 0.04222 0.36758 0.0
C664 C 0.06118 0.07215 0.35836 0.0
C665 C 0.07064 0.10729 0.36625 0.0
C666 C 0.09899 0.11307 0.38275 0.0
C667 C 0.10145 0.15289 0.39034 0.0
C668 C 0.09691 0.15708 0.41867 0.0
C669 C 0.13748 0.17017 0.38129 0.0
C670 C 0.06905 0.16841 0.37641 0.0
C671 C 0.05202 0.14192 0.36219 0.0
C672 C 0.01947 0.14909 0.3496 0.0
C673 C 0.00303 0.18359 0.3526 0.0
C674 C 0.01894 0.21033 0.36833 0.0
C675 C 0.0533 0.20299 0.37931 0.0
H676 H 0.91612 0.85509 0.11106 0.0
H677 H 0.97389 0.90134 0.17408 0.0
H678 H 0.91865 0.93642 0.18547 0.0
H679 H 0.87286 0.93547 0.09358 0.0
H680 H 0.83087 0.91389 0.08387 0.0
H681 H 0.87301 0.88867 0.0829 0.0
H682 H 0.8441 0.83802 0.11057 0.0
H683 H 0.80183 0.86332 0.11176 0.0
H684 H 0.82436 0.85015 0.14015 0.0
H685 H 0.85912 0.97051 0.18779 0.0
H686 H 0.80238 0.00448 0.17893 0.0
H687 H 0.78413 0.93634 0.11401 0.0
C688 C 0.91698 0.87198 0.12757 0.0
C689 C 0.94928 0.87528 0.14176 0.0
C690 C 0.94945 0.89836 0.16291 0.0
C691 C 0.91813 0.91818 0.16965 0.0
C692 C 0.88686 0.91459 0.15507 0.0
C693 C 0.88612 0.89215 0.13441 0.0
C694 C 0.85049 0.89589 0.1204 0.0
C695 C 0.85723 0.90929 0.09362 0.0
C696 C 0.82892 0.85969 0.12075 0.0
C697 C 0.83173 0.92482 0.13593 0.0
C698 C 0.85279 0.93474 0.15613 0.0
C699 C 0.84218 0.96266 0.17221 0.0
C700 C 0.80981 0.98178 0.16703 0.0
C701 C 0.78869 0.97317 0.14574 0.0
C702 C 0.79939 0.9435 0.13053 0.0
H703 H 0.49276 0.81831 0.15203 0.0
H704 H 0.57965 0.73952 0.13997 0.0
H705 H 0.62428 0.79016 0.13654 0.0
H706 H 0.52013 0.87752 0.10719 0.0
H707 H 0.50842 0.91942 0.12296 0.0
H708 H 0.4844 0.87774 0.13031 0.0
H709 H 0.50158 0.88431 0.17677 0.0
H710 H 0.52499 0.92661 0.16973 0.0
H711 H 0.54887 0.89011 0.18538 0.0
H712 H 0.65679 0.84794 0.12735 0.0
H713 H 0.67711 0.90987 0.11595 0.0
H714 H 0.56894 0.95232 0.13296 0.0
C715 C 0.52147 0.81169 0.14992 0.0
C716 C 0.533 0.77505 0.14674 0.0
C717 C 0.57048 0.76742 0.14282 0.0
C718 C 0.59594 0.79599 0.14079 0.0
C719 C 0.58337 0.83192 0.14269 0.0
C720 C 0.54712 0.83993 0.14747 0.0
C721 C 0.53997 0.88079 0.14561 0.0
C722 C 0.51156 0.88934 0.12531 0.0
C723 C 0.52817 0.89638 0.17088 0.0
C724 C 0.57765 0.89436 0.13828 0.0
C725 C 0.60225 0.86568 0.13692 0.0
C726 C 0.63801 0.87072 0.12879 0.0
C727 C 0.64913 0.90605 0.1221 0.0
C728 C 0.62459 0.93607 0.12353 0.0
C729 C 0.58841 0.93005 0.13189 0.0
H730 H 0.53334 0.56362 0.13649 0.0
H731 H 0.56962 0.66694 0.1045 0.0
H732 H 0.63322 0.65135 0.11379 0.0
H733 H 0.60455 0.55819 0.1858 0.0
H734 H 0.61031 0.50945 0.18212 0.0
H735 H 0.56651 0.53022 0.17604 0.0
H736 H 0.5663 0.50257 0.13168 0.0
H737 H 0.60966 0.4813 0.13785 0.0
H738 H 0.60465 0.5111 0.11134 0.0
H739 H 0.69281 0.62302 0.12172 0.0
H740 H 0.74509 0.58059 0.12503 0.0
H741 H 0.67228 0.49586 0.15283 0.0
C742 C 0.55469 0.58302 0.13174 0.0
C743 C 0.54639 0.61632 0.1196 0.0
C744 C 0.57517 0.64095 0.11347 0.0
C745 C 0.61149 0.63263 0.11897 0.0
C746 C 0.6189 0.59958 0.1307 0.0
C747 C 0.59148 0.57497 0.13691 0.0
C748 C 0.6076 0.5398 0.14709 0.0
C749 C 0.59658 0.53409 0.17439 0.0
C750 C 0.5964 0.50676 0.13103 0.0
C751 C 0.64817 0.54816 0.14471 0.0
C752 C 0.654 0.58311 0.13566 0.0
C753 C 0.6888 0.59584 0.12934 0.0
C754 C 0.71834 0.57165 0.13132 0.0
C755 C 0.71281 0.53528 0.1396 0.0
C756 C 0.6775 0.52393 0.14728 0.0
H757 H 0.01924 0.65544 0.14915 0.0
H758 H 0.92881 0.73077 0.15841 0.0
H759 H 0.88557 0.67874 0.15822 0.0
H760 H 0.97911 0.60412 0.1053 0.0
H761 H 0.99644 0.55995 0.11455 0.0
H762 H 0.02153 0.6008 0.12219 0.0
H763 H 0.02013 0.58365 0.16886 0.0
H764 H 0.99571 0.54213 0.16137 0.0
H765 H 0.97699 0.57371 0.18373 0.0
H766 H 0.85225 0.62244 0.14864 0.0
H767 H 0.82961 0.56368 0.13276 0.0
H768 H 0.94078 0.5225 0.12851 0.0
C769 C 0.9905 0.66063 0.15258 0.0
C770 C 0.97726 0.69692 0.15454 0.0
C771 C 0.93938 0.70309 0.1575 0.0
C772 C 0.9147 0.6737 0.15734 0.0
C773 C 0.92839 0.63838 0.15403 0.0
C774 C 0.96543 0.63153 0.152 0.0
C775 C 0.97243 0.59178 0.14498 0.0
C776 C 0.99362 0.58904 0.1203 0.0
C777 C 0.9925 0.57162 0.16599 0.0
C778 C 0.93352 0.57785 0.14226 0.0
C779 C 0.90872 0.60523 0.14793 0.0
C780 C 0.87132 0.60057 0.14467 0.0
C781 C 0.85881 0.56718 0.13535 0.0
C782 C 0.88349 0.53859 0.12931 0.0
C783 C 0.92135 0.54374 0.13325 0.0
H784 H 0.7127 0.93774 0.61988 0.0
H785 H 0.69264 0.01289 0.68086 0.0
H786 H 0.63233 0.98415 0.68781 0.0
H787 H 0.62824 0.9436 0.59459 0.0
H788 H 0.62414 0.8964 0.58515 0.0
H789 H 0.66863 0.917 0.58804 0.0
H790 H 0.68857 0.86638 0.61895 0.0
H791 H 0.64437 0.84494 0.61571 0.0
H792 H 0.66103 0.85721 0.64608 0.0
H793 H 0.57087 0.95417 0.68377 0.0
H794 H 0.51462 0.92174 0.67136 0.0
H795 H 0.57462 0.86728 0.61229 0.0
C796 C 0.69636 0.9473 0.63535 0.0
C797 C 0.70758 0.97756 0.64988 0.0
C798 C 0.6848 0.98965 0.66955 0.0
C799 C 0.65043 0.97353 0.67362 0.0
C800 C 0.63937 0.94522 0.65797 0.0
C801 C 0.66191 0.93178 0.63949 0.0
C802 C 0.64228 0.90373 0.62363 0.0
C803 C 0.64074 0.91594 0.59624 0.0
C804 C 0.66012 0.86582 0.62626 0.0
C805 C 0.60477 0.90445 0.63551 0.0
C806 C 0.60374 0.92823 0.65544 0.0
C807 C 0.57151 0.935 0.66846 0.0
C808 C 0.53961 0.91661 0.66112 0.0
C809 C 0.54006 0.89187 0.64081 0.0
C810 C 0.57324 0.88585 0.62793 0.0
H811 H 0.56839 0.53442 0.63005 0.0
H812 H 0.67703 0.5768 0.61386 0.0
H813 H 0.65693 0.63875 0.62482 0.0
H814 H 0.5208 0.60957 0.6037 0.0
H815 H 0.48455 0.6098 0.62643 0.0
H816 H 0.50822 0.56783 0.61957 0.0
H817 H 0.52404 0.56036 0.66628 0.0
H818 H 0.50068 0.60261 0.67318 0.0
H819 H 0.54778 0.59674 0.68218 0.0
H820 H 0.62471 0.69682 0.63344 0.0
H821 H 0.58075 0.74777 0.63803 0.0
H822 H 0.49325 0.6691 0.64989 0.0
C823 C 0.58797 0.55669 0.62914 0.0
C824 C 0.62421 0.55065 0.62096 0.0
C825 C 0.64895 0.58066 0.61976 0.0
C826 C 0.63795 0.61603 0.62618 0.0
C827 C 0.60207 0.62123 0.63387 0.0
C828 C 0.57732 0.59254 0.63533 0.0
C829 C 0.53964 0.60644 0.64236 0.0
C830 C 0.51167 0.5979 0.62179 0.0
C831 C 0.52732 0.59059 0.6675 0.0
C832 C 0.54716 0.64727 0.64418 0.0
C833 C 0.58343 0.65514 0.63937 0.0
C834 C 0.59634 0.69108 0.63773 0.0
C835 C 0.57127 0.71983 0.6404 0.0
C836 C 0.53384 0.7124 0.64485 0.0
C837 C 0.52194 0.67564 0.64738 0.0
H838 H 0.9079 0.6343 0.60297 0.0
H839 H 0.98338 0.56647 0.645 0.0
H840 H 0.93155 0.53337 0.66361 0.0
H841 H 0.83531 0.63852 0.65056 0.0
H842 H 0.79914 0.63524 0.62796 0.0
H843 H 0.84198 0.65663 0.61969 0.0
H844 H 0.84957 0.61188 0.58261 0.0
H845 H 0.80642 0.59118 0.59045 0.0
H846 H 0.84687 0.5632 0.58815 0.0
H847 H 0.87235 0.50445 0.67551 0.0
H848 H 0.81125 0.47597 0.67444 0.0
H849 H 0.77367 0.56292 0.62558 0.0
C850 C 0.91355 0.61263 0.61618 0.0
C851 C 0.94984 0.60315 0.62245 0.0
C852 C 0.95592 0.57432 0.63971 0.0
C853 C 0.92661 0.55556 0.65069 0.0
C854 C 0.89124 0.5659 0.64436 0.0
C855 C 0.88456 0.59345 0.62729 0.0
C856 C 0.84408 0.59674 0.62193 0.0
C857 C 0.82926 0.634 0.63055 0.0
C858 C 0.83629 0.59034 0.59415 0.0
C859 C 0.82928 0.56582 0.63792 0.0
C860 C 0.85682 0.54896 0.65119 0.0
C861 C 0.8504 0.51767 0.66546 0.0
C862 C 0.81543 0.50179 0.66489 0.0
C863 C 0.78755 0.51698 0.64982 0.0
C864 C 0.79418 0.55066 0.63745 0.0
H865 H 0.92768 0.95905 0.62646 0.0
H866 H 0.81851 0.91858 0.61 0.0
H867 H 0.83707 0.85656 0.62175 0.0
H868 H 0.97405 0.88335 0.60087 0.0
H869 H 0.01001 0.88236 0.62372 0.0
H870 H 0.9871 0.92473 0.61685 0.0
H871 H 0.97096 0.93193 0.66352 0.0
H872 H 0.99336 0.88912 0.6704 0.0
H873 H 0.94628 0.89589 0.67927 0.0
H874 H 0.86765 0.79821 0.63047 0.0
H875 H 0.9108 0.74632 0.63273 0.0
H876 H 0.00017 0.82231 0.64502 0.0
C877 C 0.90767 0.93718 0.62564 0.0
C878 C 0.8717 0.94387 0.61715 0.0
C879 C 0.8464 0.91432 0.6161 0.0
C880 C 0.85649 0.87889 0.62305 0.0
C881 C 0.89204 0.87308 0.63114 0.0
C882 C 0.91742 0.9012 0.63235 0.0
C883 C 0.95475 0.88643 0.63945 0.0
C884 C 0.98314 0.8947 0.619 0.0
C885 C 0.96705 0.90176 0.66467 0.0
C886 C 0.94642 0.84568 0.64122 0.0
C887 C 0.90987 0.83875 0.63674 0.0
C888 C 0.89618 0.80318 0.63462 0.0
C889 C 0.92076 0.77386 0.63606 0.0
C890 C 0.95847 0.78033 0.63979 0.0
C891 C 0.9712 0.8166 0.64328 0.0
H892 H 0.08219 0.12919 0.91802 0.0
H893 H 0.01795 0.06754 0.86464 0.0
H894 H 0.07374 0.03444 0.85158 0.0
H895 H 0.16531 0.13722 0.88081 0.0
H896 H 0.19482 0.13148 0.90732 0.0
H897 H 0.15046 0.15224 0.91108 0.0
H898 H 0.1332 0.10392 0.94458 0.0
H899 H 0.17772 0.0837 0.9413 0.0
H900 H 0.13735 0.05588 0.93734 0.0
H901 H 0.13626 0.00603 0.84597 0.0
H902 H 0.19714 0.9788 0.85245 0.0
H903 H 0.21994 0.06018 0.90916 0.0
C904 C 0.07972 0.10891 0.90345 0.0
C905 C 0.04561 0.10108 0.89232 0.0
C906 C 0.04372 0.07396 0.87354 0.0
C907 C 0.07534 0.05532 0.8658 0.0
C908 C 0.10861 0.0642 0.87695 0.0
C909 C 0.11085 0.09011 0.89556 0.0
C910 C 0.14913 0.0927 0.906 0.0
C911 C 0.16591 0.13067 0.90099 0.0
C912 C 0.14935 0.08348 0.93394 0.0
C913 C 0.168 0.06343 0.89085 0.0
C914 C 0.14442 0.04777 0.87384 0.0
C915 C 0.15504 0.01832 0.85906 0.0
C916 C 0.18989 0.00317 0.86279 0.0
C917 C 0.21348 0.01719 0.88141 0.0
C918 C 0.20288 0.0489 0.89462 0.0
H919 H 0.36112 0.08015 0.93179 0.0
H920 H 0.41593 0.00924 0.87886 0.0
H921 H 0.44496 0.06321 0.8594 0.0
H922 H 0.34626 0.15835 0.89009 0.0
H923 H 0.35615 0.19159 0.91389 0.0
H924 H 0.33649 0.14788 0.92218 0.0
H925 H 0.39013 0.13541 0.9526 0.0
H926 H 0.40921 0.1794 0.94485 0.0
H927 H 0.43652 0.13866 0.94135 0.0
H928 H 0.47049 0.12406 0.84708 0.0
H929 H 0.49887 0.18528 0.8475 0.0
H930 H 0.42783 0.21663 0.90864 0.0
C931 C 0.37902 0.07601 0.91599 0.0
C932 C 0.38618 0.04051 0.90682 0.0
C933 C 0.4102 0.03617 0.88633 0.0
C934 C 0.42643 0.0667 0.87492 0.0
C935 C 0.41842 0.10135 0.88422 0.0
C936 C 0.39576 0.10612 0.90454 0.0
C937 C 0.39468 0.14582 0.91254 0.0
C938 C 0.35609 0.16185 0.90948 0.0
C939 C 0.40847 0.15006 0.93941 0.0
C940 C 0.4211 0.16246 0.89397 0.0
C941 C 0.43379 0.13652 0.87741 0.0
C942 C 0.46055 0.14473 0.85979 0.0
C943 C 0.47639 0.17974 0.8601 0.0
C944 C 0.46582 0.20584 0.87821 0.0
C945 C 0.43639 0.19755 0.89439 0.0
H946 H 0.46116 0.43395 0.88603 0.0
H947 H 0.41777 0.32351 0.89293 0.0
H948 H 0.35732 0.34508 0.88002 0.0
H949 H 0.38635 0.47726 0.91208 0.0
H950 H 0.38693 0.51695 0.89209 0.0
H951 H 0.4285 0.49211 0.89775 0.0
H952 H 0.43731 0.48351 0.85031 0.0
H953 H 0.39543 0.50812 0.84456 0.0
H954 H 0.40142 0.4626 0.83227 0.0
H955 H 0.30028 0.37848 0.87358 0.0
H956 H 0.24962 0.42319 0.87443 0.0
H957 H 0.32794 0.51221 0.8695 0.0
C958 C 0.43906 0.41433 0.88423 0.0
C959 C 0.44415 0.37716 0.89065 0.0
C960 C 0.41446 0.35227 0.88845 0.0
C961 C 0.38002 0.36412 0.88083 0.0
C962 C 0.3755 0.40098 0.87524 0.0
C963 C 0.40409 0.42583 0.87674 0.0
C964 C 0.39055 0.46453 0.87233 0.0
C965 C 0.39854 0.48914 0.89491 0.0
C966 C 0.40717 0.48063 0.84844 0.0
C967 C 0.34984 0.4575 0.86934 0.0
C968 C 0.34191 0.42053 0.87068 0.0
C969 C 0.30604 0.40745 0.8717 0.0
C970 C 0.27746 0.43292 0.87215 0.0
C971 C 0.28501 0.47085 0.8713 0.0
C972 C 0.32153 0.48321 0.86907 0.0
H973 H 0.12797 0.42316 0.92316 0.0
H974 H 0.09092 0.47613 0.8555 0.0
H975 H 0.06709 0.41679 0.84037 0.0
H976 H 0.1542 0.33587 0.89604 0.0
H977 H 0.13719 0.30943 0.92193 0.0
H978 H 0.15385 0.35538 0.92678 0.0
H979 H 0.09206 0.37398 0.94692 0.0
H980 H 0.07579 0.32788 0.94279 0.0
H981 H 0.05012 0.36574 0.93025 0.0
H982 H 0.04656 0.35234 0.83299 0.0
H983 H 0.01936 0.29091 0.83738 0.0
H984 H 0.06853 0.28034 0.91041 0.0
C985 C 0.11485 0.42225 0.90515 0.0
C986 C 0.11131 0.45414 0.89046 0.0
C987 C 0.0936 0.45203 0.86714 0.0
C988 C 0.08051 0.41838 0.85823 0.0
C989 C 0.08523 0.38727 0.87295 0.0
C990 C 0.10126 0.38906 0.89613 0.0
C991 C 0.0999 0.35238 0.90927 0.0
C992 C 0.1386 0.33739 0.91376 0.0
C993 C 0.07816 0.35517 0.93374 0.0
C994 C 0.07978 0.32981 0.89008 0.0
C995 C 0.07246 0.35021 0.869 0.0
C996 C 0.05223 0.33604 0.84935 0.0
C997 C 0.03704 0.30098 0.85198 0.0
C998 C 0.0416 0.2808 0.87431 0.0
C999 C 0.06492 0.29472 0.89298 0.0
H1000 H 0.67925 0.24417 0.36837 0.0
H1001 H 0.67925 0.19422 0.44161 0.0
H1002 H 0.7261 0.2392 0.45519 0.0
H1003 H 0.77085 0.2568 0.36277 0.0
H1004 H 0.7674 0.2997 0.34626 0.0
H1005 H 0.73079 0.26711 0.34457 0.0
H1006 H 0.68553 0.31712 0.36039 0.0
H1007 H 0.72282 0.34942 0.3623 0.0
H1008 H 0.69487 0.34037 0.38923 0.0
H1009 H 0.77802 0.28488 0.45868 0.0
H1010 H 0.83547 0.31825 0.44967 0.0
H1011 H 0.79892 0.3385 0.37459 0.0
C1012 C 0.68873 0.24271 0.3874 0.0
C1013 C 0.67575 0.21556 0.4039 0.0
C1014 C 0.6891 0.21462 0.42857 0.0
C1015 C 0.71519 0.24045 0.43654 0.0
C1016 C 0.72696 0.26725 0.41973 0.0
C1017 C 0.71415 0.26826 0.39562 0.0
C1018 C 0.73372 0.29662 0.38009 0.0
C1019 C 0.75177 0.27899 0.35711 0.0
C1020 C 0.70766 0.32772 0.37257 0.0
C1021 C 0.76158 0.30983 0.39867 0.0
C1022 C 0.75648 0.29369 0.42176 0.0
C1023 C 0.78171 0.29837 0.44092 0.0
C1024 C 0.81408 0.31772 0.43576 0.0
C1025 C 0.82091 0.33124 0.41155 0.0
C1026 C 0.79349 0.32928 0.39339 0.0
H1027 H 0.25034 0.67009 0.38263 0.0
H1028 H 0.31547 0.68003 0.44959 0.0
H1029 H 0.27175 0.72592 0.46572 0.0
H1030 H 0.23538 0.7575 0.37262 0.0
H1031 H 0.18908 0.75312 0.36146 0.0
H1032 H 0.21973 0.71521 0.35894 0.0
H1033 H 0.17331 0.67481 0.38317 0.0
H1034 H 0.14278 0.7133 0.38643 0.0
H1035 H 0.158 0.68867 0.41355 0.0
H1036 H 0.2304 0.77882 0.46993 0.0
H1037 H 0.20224 0.83801 0.4593 0.0
H1038 H 0.1624 0.79301 0.39032 0.0
C1039 C 0.25521 0.68142 0.4009 0.0
C1040 C 0.28657 0.67192 0.41471 0.0
C1041 C 0.29182 0.68727 0.43855 0.0
C1042 C 0.26675 0.71282 0.44802 0.0
C1043 C 0.23632 0.72201 0.43363 0.0
C1044 C 0.23049 0.70656 0.41057 0.0
C1045 C 0.19943 0.72485 0.39689 0.0
C1046 C 0.21168 0.73851 0.371 0.0
C1047 C 0.16642 0.69887 0.39491 0.0
C1048 C 0.19146 0.75602 0.41452 0.0
C1049 C 0.21161 0.75273 0.43626 0.0
C1050 C 0.21361 0.78113 0.45347 0.0
C1051 C 0.19738 0.81461 0.44736 0.0
C1052 C 0.17977 0.81929 0.42423 0.0
C1053 C 0.17451 0.78917 0.40849 0.0
H1054 H 0.32236 0.72653 0.16205 0.0
H1055 H 0.32565 0.68382 0.08689 0.0
H1056 H 0.2805 0.73068 0.07402 0.0
H1057 H 0.23112 0.73945 0.1659 0.0
H1058 H 0.23399 0.78062 0.18428 0.0
H1059 H 0.27028 0.74782 0.18542 0.0
H1060 H 0.31652 0.79925 0.17278 0.0
H1061 H 0.27937 0.83164 0.17145 0.0
H1062 H 0.30863 0.82539 0.14485 0.0
H1063 H 0.22932 0.77556 0.07123 0.0
H1064 H 0.17022 0.80521 0.08053 0.0
H1065 H 0.20313 0.8204 0.15682 0.0
C1066 C 0.31391 0.72716 0.14278 0.0
C1067 C 0.32729 0.70152 0.12549 0.0
C1068 C 0.31535 0.70303 0.10052 0.0
C1069 C 0.29037 0.73 0.09296 0.0
C1070 C 0.2783 0.75541 0.11052 0.0
C1071 C 0.28958 0.7539 0.13497 0.0
C1072 C 0.26933 0.78075 0.15115 0.0
C1073 C 0.25002 0.76097 0.17292 0.0
C1074 C 0.29502 0.81104 0.1606 0.0
C1075 C 0.24259 0.7957 0.13243 0.0
C1076 C 0.24913 0.78198 0.1088 0.0
C1077 C 0.22455 0.78739 0.08937 0.0
C1078 C 0.19123 0.80455 0.09471 0.0
C1079 C 0.18311 0.81547 0.11925 0.0
C1080 C 0.20983 0.81339 0.1378 0.0
H1081 H 0.78891 0.30386 0.0971 0.0
H1082 H 0.80205 0.31079 0.17693 0.0
H1083 H 0.75387 0.26427 0.18272 0.0
H1084 H 0.69612 0.29457 0.09485 0.0
H1085 H 0.69353 0.26022 0.07089 0.0
H1086 H 0.73199 0.29111 0.07195 0.0
H1087 H 0.77806 0.23706 0.07441 0.0
H1088 H 0.73987 0.20628 0.07119 0.0
H1089 H 0.77072 0.20131 0.09706 0.0
H1090 H 0.69681 0.22764 0.18012 0.0
H1091 H 0.65545 0.17661 0.16999 0.0
H1092 H 0.6827 0.18824 0.09209 0.0
C1093 C 0.78334 0.29371 0.11566 0.0
C1094 C 0.79892 0.31072 0.13662 0.0
C1095 C 0.79053 0.29754 0.16071 0.0
C1096 C 0.76246 0.27203 0.16419 0.0
C1097 C 0.74436 0.25912 0.14327 0.0
C1098 C 0.75596 0.26745 0.11946 0.0
C1099 C 0.73295 0.2478 0.10026 0.0
C1100 C 0.71245 0.27507 0.08351 0.0
C1101 C 0.7568 0.22153 0.08484 0.0
C1102 C 0.70663 0.22732 0.11712 0.0
C1103 C 0.71272 0.23573 0.14179 0.0
C1104 C 0.69216 0.22026 0.16092 0.0
C1105 C 0.66787 0.19202 0.15492 0.0
C1106 C 0.66649 0.17849 0.13036 0.0
C1107 C 0.68305 0.1986 0.11095 0.0
H1108 H 0.18792 0.71054 0.59008 0.0
H1109 H 0.1755 0.66345 0.66355 0.0
H1110 H 0.22505 0.7029 0.67905 0.0
H1111 H 0.29286 0.72187 0.59544 0.0
H1112 H 0.29071 0.76281 0.57672 0.0
H1113 H 0.25892 0.72597 0.57132 0.0
H1114 H 0.20626 0.77288 0.57654 0.0
H1115 H 0.23774 0.80917 0.58408 0.0
H1116 H 0.20156 0.79731 0.60546 0.0
H1117 H 0.26214 0.75732 0.68851 0.0
H1118 H 0.31189 0.8028 0.68858 0.0
H1119 H 0.30601 0.8107 0.60834 0.0
C1120 C 0.19768 0.70664 0.6089 0.0
C1121 C 0.17833 0.68428 0.62575 0.0
C1122 C 0.19072 0.68017 0.65043 0.0
C1123 C 0.21807 0.70316 0.65952 0.0
C1124 C 0.23347 0.72844 0.6432 0.0
C1125 C 0.22582 0.72857 0.61807 0.0
C1126 C 0.24713 0.75826 0.60464 0.0
C1127 C 0.27402 0.74122 0.58594 0.0
C1128 C 0.22162 0.78603 0.59194 0.0
C1129 C 0.26683 0.77546 0.6264 0.0
C1130 C 0.2573 0.75858 0.6485 0.0
C1131 C 0.27075 0.7701 0.6713 0.0
C1132 C 0.29823 0.79659 0.67122 0.0
C1133 C 0.3127 0.80952 0.64845 0.0
C1134 C 0.29494 0.80139 0.62595 0.0
H1135 H 0.77695 0.17891 0.64851 0.0
H1136 H 0.80996 0.16948 0.57129 0.0
H1137 H 0.76381 0.21683 0.56005 0.0
H1138 H 0.67918 0.18957 0.63699 0.0
H1139 H 0.67479 0.2201 0.66304 0.0
H1140 H 0.70894 0.18454 0.66344 0.0
H1141 H 0.75934 0.23389 0.67157 0.0
H1142 H 0.72482 0.26872 0.67139 0.0
H1143 H 0.76337 0.27224 0.65057 0.0
H1144 H 0.71721 0.27012 0.55913 0.0
H1145 H 0.68199 0.32615 0.56922 0.0
H1146 H 0.67626 0.29251 0.64618 0.0
C1147 C 0.77472 0.18651 0.62911 0.0
C1148 C 0.79726 0.17063 0.61079 0.0
C1149 C 0.79328 0.18169 0.5857 0.0
C1150 C 0.76676 0.20805 0.57915 0.0
C1151 C 0.74416 0.22215 0.59784 0.0
C1152 C 0.74812 0.21151 0.6223 0.0
C1153 C 0.72237 0.2313 0.63947 0.0
C1154 C 0.6947 0.20477 0.65142 0.0
C1155 C 0.74374 0.25282 0.65939 0.0
C1156 C 0.70399 0.25632 0.62112 0.0
C1157 C 0.71632 0.25054 0.59707 0.0
C1158 C 0.70669 0.27417 0.57773 0.0
C1159 C 0.68625 0.30567 0.58353 0.0
C1160 C 0.67612 0.31297 0.60842 0.0
C1161 C 0.68291 0.28677 0.62694 0.0
H1162 H 0.80906 0.19325 0.92139 0.0
H1163 H 0.82144 0.19411 0.84128 0.0
H1164 H 0.77186 0.23925 0.83777 0.0
H1165 H 0.70456 0.2037 0.91891 0.0
H1166 H 0.70512 0.23019 0.94712 0.0
H1167 H 0.73854 0.19473 0.94236 0.0
H1168 H 0.78917 0.2431 0.9506 0.0
H1169 H 0.75598 0.27927 0.95344 0.0
H1170 H 0.79234 0.283 0.93089 0.0
H1171 H 0.73327 0.29366 0.84358 0.0
H1172 H 0.68109 0.33254 0.85522 0.0
H1173 H 0.68661 0.29146 0.93067 0.0
C1174 C 0.79955 0.20109 0.90308 0.0
C1175 C 0.81893 0.19072 0.88157 0.0
C1176 C 0.80649 0.20186 0.85787 0.0
C1177 C 0.77908 0.22813 0.85575 0.0
C1178 C 0.76351 0.24136 0.87749 0.0
C1179 C 0.77115 0.22646 0.90054 0.0
C1180 C 0.74858 0.24465 0.92067 0.0
C1181 C 0.72265 0.21667 0.93297 0.0
C1182 C 0.773 0.26362 0.94003 0.0
C1183 C 0.72794 0.27256 0.90523 0.0
C1184 C 0.73837 0.2711 0.88058 0.0
C1185 C 0.72413 0.29461 0.8627 0.0
C1186 C 0.69523 0.31735 0.86962 0.0
C1187 C 0.6802 0.31474 0.89374 0.0
C1188 C 0.69831 0.29432 0.91225 0.0
H1189 H 0.28811 0.80024 0.95114 0.0
H1190 H 0.34668 0.8056 0.88125 0.0
H1191 H 0.30408 0.76085 0.86323 0.0
H1192 H 0.26738 0.69469 0.94344 0.0
H1193 H 0.22515 0.70065 0.96028 0.0
H1194 H 0.26463 0.72782 0.96816 0.0
H1195 H 0.22439 0.78568 0.96233 0.0
H1196 H 0.18583 0.75893 0.95216 0.0
H1197 H 0.20397 0.79465 0.93247 0.0
H1198 H 0.24374 0.73625 0.84977 0.0
H1199 H 0.19189 0.6937 0.84581 0.0
H1200 H 0.17942 0.69168 0.92589 0.0
C1201 C 0.29386 0.78953 0.93279 0.0
C1202 C 0.31961 0.80701 0.91717 0.0
C1203 C 0.32673 0.79253 0.89332 0.0
C1204 C 0.30197 0.76804 0.88268 0.0
C1205 C 0.27285 0.75602 0.89723 0.0
C1206 C 0.27064 0.76326 0.92236 0.0
C1207 C 0.2374 0.74478 0.93382 0.0
C1208 C 0.24934 0.71521 0.95251 0.0
C1209 C 0.21139 0.7727 0.9459 0.0
C1210 C 0.22037 0.72804 0.91082 0.0
C1211 C 0.2405 0.73664 0.88986 0.0
C1212 C 0.22876 0.72758 0.86612 0.0
C1213 C 0.19851 0.70446 0.86403 0.0
C1214 C 0.183 0.68844 0.8856 0.0
C1215 C 0.19122 0.70325 0.90913 0.0
H1216 H 0.59667 0.09735 0.47844 0.0
H1217 H 0.57334 0.2102 0.49801 0.0
H1218 H 0.60815 0.20256 0.53705 0.0
H1219 H 0.59178 0.0598 0.54196 0.0
H1220 H 0.62857 0.02812 0.53615 0.0
H1221 H 0.599 0.04201 0.51112 0.0
H1222 H 0.65558 0.06338 0.48573 0.0
H1223 H 0.68522 0.0498 0.51071 0.0
H1224 H 0.68673 0.09617 0.49916 0.0
H1225 H 0.65245 0.18357 0.57236 0.0
H1226 H 0.69728 0.15382 0.60052 0.0
H1227 H 0.68818 0.05372 0.55759 0.0
C1228 C 0.59815 0.12029 0.49114 0.0
C1229 C 0.582 0.1543 0.48511 0.0
C1230 C 0.58502 0.18367 0.50226 0.0
C1231 C 0.60494 0.17966 0.52448 0.0
C1232 C 0.62132 0.14595 0.52953 0.0
C1233 C 0.61756 0.11667 0.51342 0.0
C1234 C 0.63881 0.08372 0.52237 0.0
C1235 C 0.61299 0.05152 0.52825 0.0
C1236 C 0.66833 0.07265 0.50337 0.0
C1237 C 0.65572 0.0991 0.54576 0.0
C1238 C 0.64554 0.13502 0.54976 0.0
C1239 C 0.65997 0.15519 0.56958 0.0
C1240 C 0.68541 0.13812 0.58554 0.0
C1241 C 0.69619 0.1013 0.58159 0.0
C1242 C 0.68053 0.08177 0.56152 0.0
H1243 H 0.35786 0.71439 0.57478 0.0
H1244 H 0.46835 0.67647 0.58827 0.0
H1245 H 0.45879 0.62523 0.55916 0.0
H1246 H 0.31558 0.62092 0.56569 0.0
H1247 H 0.28604 0.63699 0.54121 0.0
H1248 H 0.29953 0.66754 0.56583 0.0
H1249 H 0.32434 0.71343 0.533 0.0
H1250 H 0.31127 0.68269 0.50845 0.0
H1251 H 0.35798 0.6982 0.51077 0.0
H1252 H 0.4409 0.58313 0.52544 0.0
H1253 H 0.41546 0.55231 0.48849 0.0
H1254 H 0.31561 0.61517 0.49591 0.0
C1255 C 0.37951 0.69461 0.57201 0.0
C1256 C 0.41374 0.69896 0.58394 0.0
C1257 C 0.44194 0.67335 0.57939 0.0
C1258 C 0.4367 0.64412 0.56296 0.0
C1259 C 0.40305 0.64079 0.55106 0.0
C1260 C 0.37478 0.66516 0.55536 0.0
C1261 C 0.34248 0.65673 0.53844 0.0
C1262 C 0.30892 0.64484 0.5537 0.0
C1263 C 0.33351 0.68972 0.52167 0.0
C1264 C 0.35762 0.62477 0.52347 0.0
C1265 C 0.39244 0.61584 0.53139 0.0
C1266 C 0.41337 0.58929 0.5194 0.0
C1267 C 0.39871 0.57185 0.49847 0.0
C1268 C 0.36331 0.58063 0.48981 0.0
C1269 C 0.34223 0.60701 0.50274 0.0
H1270 H 0.90542 0.4048 0.4756 0.0
H1271 H 0.9489 0.30324 0.50536 0.0
H1272 H 0.91203 0.31173 0.54345 0.0
H1273 H 0.89859 0.45509 0.53486 0.0
H1274 H 0.85624 0.4765 0.52584 0.0
H1275 H 0.88957 0.46449 0.50255 0.0
H1276 H 0.8403 0.42659 0.47935 0.0
H1277 H 0.80696 0.43799 0.50269 0.0
H1278 H 0.81628 0.39064 0.49565 0.0
H1279 H 0.86503 0.32866 0.57682 0.0
H1280 H 0.81463 0.35373 0.60252 0.0
H1281 H 0.80252 0.44337 0.55 0.0
C1282 C 0.90817 0.38485 0.49039 0.0
C1283 C 0.93051 0.35355 0.48748 0.0
C1284 C 0.93233 0.32767 0.50716 0.0
C1285 C 0.91138 0.3322 0.52888 0.0
C1286 C 0.88871 0.36277 0.53074 0.0
C1287 C 0.8873 0.3888 0.51206 0.0
C1288 C 0.85894 0.41781 0.51763 0.0
C1289 C 0.87692 0.45572 0.52039 0.0
C1290 C 0.82885 0.41826 0.49765 0.0
C1291 C 0.84433 0.40394 0.54224 0.0
C1292 C 0.86179 0.37224 0.54964 0.0
C1293 C 0.85152 0.35375 0.57133 0.0
C1294 C 0.8228 0.36815 0.5858 0.0
C1295 C 0.80457 0.40069 0.57848 0.0
C1296 C 0.81587 0.41864 0.5564 0.0
H1297 H 0.04763 0.78414 0.53529 0.0
H1298 H 0.10298 0.82818 0.60005 0.0
H1299 H 0.12169 0.88242 0.57562 0.0
H1300 H 0.11489 0.81249 0.49124 0.0
H1301 H 0.08194 0.82247 0.46733 0.0
H1302 H 0.07192 0.7882 0.49045 0.0
H1303 H 0.01212 0.82268 0.50178 0.0
H1304 H 0.02235 0.85738 0.47893 0.0
H1305 H 0.01441 0.87018 0.51082 0.0
H1306 H 0.13694 0.93094 0.54311 0.0
H1307 H 0.15013 0.96677 0.50504 0.0
H1308 H 0.08293 0.89135 0.46252 0.0
C1309 C 0.0635 0.80522 0.54446 0.0
C1310 C 0.07364 0.80177 0.56969 0.0
C1311 C 0.09476 0.83003 0.58077 0.0
C1312 C 0.10541 0.86111 0.56707 0.0
C1313 C 0.09471 0.86369 0.54229 0.0
C1314 C 0.07437 0.83636 0.53109 0.0
C1315 C 0.06779 0.84477 0.50393 0.0
C1316 C 0.08518 0.81524 0.48727 0.0
C1317 C 0.02673 0.84901 0.49856 0.0
C1318 C 0.08768 0.88105 0.50155 0.0
C1319 C 0.103 0.89166 0.52383 0.0
C1320 C 0.12468 0.92309 0.52562 0.0
C1321 C 0.13186 0.94345 0.5039 0.0
C1322 C 0.11735 0.93231 0.48069 0.0
C1323 C 0.09404 0.90126 0.4799 0.0
H1324 H 0.2099 0.94006 0.99275 0.0
H1325 H 0.16967 0.87636 0.93041 0.0
H1326 H 0.11737 0.85546 0.95605 0.0
H1327 H 0.18817 0.87403 0.03906 0.0
H1328 H 0.17624 0.90775 0.06209 0.0
H1329 H 0.20898 0.91885 0.03822 0.0
H1330 H 0.16973 0.97502 0.02553 0.0
H1331 H 0.1366 0.96373 0.04917 0.0
H1332 H 0.12239 0.96844 0.01728 0.0
H1333 H 0.07061 0.8397 0.98942 0.0
H1334 H 0.0363 0.82704 0.02809 0.0
H1335 H 0.1076 0.90171 0.06803 0.0
C1336 C 0.18996 0.92202 0.98429 0.0
C1337 C 0.19381 0.91018 0.95941 0.0
C1338 C 0.16731 0.886 0.94936 0.0
C1339 C 0.1374 0.87409 0.96376 0.0
C1340 C 0.1344 0.88657 0.98817 0.0
C1341 C 0.16017 0.9098 0.99837 0.0
C1342 C 0.15203 0.91762 0.02542 0.0
C1343 C 0.18319 0.90373 0.04217 0.0
C1344 C 0.14475 0.95864 0.02958 0.0
C1345 C 0.11757 0.89517 0.02895 0.0
C1346 C 0.10769 0.87755 1.00726 0.0
C1347 C 0.07792 0.85365 1.00644 0.0
C1348 C 0.05848 0.84674 0.02851 0.0
C1349 C 0.06888 0.86365 0.05115 0.0
C1350 C 0.0983 0.88889 0.05104 0.0
H1351 H 0.67272 0.09579 0.02982 0.0
H1352 H 0.56551 0.05761 0.05281 0.0
H1353 H 0.53759 0.09032 0.0174 0.0
H1354 H 0.6448 0.18449 0.01582 0.0
H1355 H 0.67453 0.19133 0.98944 0.0
H1356 H 0.68733 0.15975 0.0136 0.0
H1357 H 0.69386 0.10793 0.98119 0.0
H1358 H 0.68126 0.13949 0.95687 0.0
H1359 H 0.65604 0.09739 0.96095 0.0
H1360 H 0.52041 0.1317 0.9834 0.0
H1361 H 0.51391 0.18188 0.95314 0.0
H1362 H 0.63167 0.19663 0.95171 0.0
C1363 C 0.64354 0.09334 0.02675 0.0
C1364 C 0.62119 0.07347 0.04359 0.0
C1365 C 0.58298 0.07217 0.03983 0.0
C1366 C 0.56698 0.0906 0.01977 0.0
C1367 C 0.58953 0.11063 1.00379 0.0
C1368 C 0.62699 0.11231 1.00701 0.0
C1369 C 0.64421 0.13944 0.98887 0.0
C1370 C 0.66386 0.17059 1.00277 0.0
C1371 C 0.67039 0.11988 0.9709 0.0
C1372 C 0.61042 0.15334 0.97541 0.0
C1373 C 0.57935 0.13578 0.98419 0.0
C1374 C 0.54452 0.14526 0.97612 0.0
C1375 C 0.54111 0.17386 0.959 0.0
C1376 C 0.57227 0.19283 0.95001 0.0
C1377 C 0.60752 0.18201 0.95793 0.0
H1378 H 0.2871 0.55418 0.9725 0.0
H1379 H 0.31199 0.63908 0.91833 0.0
H1380 H 0.35713 0.66571 0.9474 0.0
H1381 H 0.2921 0.61107 0.02597 0.0
H1382 H 0.31217 0.57621 0.04537 0.0
H1383 H 0.28299 0.56334 0.01992 0.0
H1384 H 0.33459 0.52245 1.00205 0.0
H1385 H 0.36401 0.53528 0.02741 0.0
H1386 H 0.3789 0.54222 0.99581 0.0
H1387 H 0.39813 0.68417 0.98332 0.0
H1388 H 0.431 0.69339 0.0228 0.0
H1389 H 0.37942 0.59578 0.05316 0.0
C1390 C 0.30214 0.57825 0.96655 0.0
C1391 C 0.29597 0.59438 0.94295 0.0
C1392 C 0.3163 0.62599 0.93616 0.0
C1393 C 0.342 0.64134 0.95258 0.0
C1394 C 0.34724 0.62468 0.97568 0.0
C1395 C 0.32786 0.5938 0.98262 0.0
C1396 C 0.33779 0.58159 1.00869 0.0
C1397 C 0.30427 0.58316 0.026 0.0
C1398 C 0.35484 0.5431 1.00846 0.0
C1399 C 0.3658 0.61049 0.01548 0.0
C1400 C 0.37088 0.6351 0.9962 0.0
C1401 C 0.39451 0.6649 0.99844 0.0
C1402 C 0.41308 0.66988 0.021 0.0
C1403 C 0.40811 0.64517 0.04114 0.0
C1404 C 0.38434 0.61488 0.03809 0.0
H1405 H 0.9006 0.36715 0.05735 0.0
H1406 H 0.82832 0.44281 0.01915 0.0
H1407 H 0.84208 0.41232 0.97939 0.0
H1408 H 0.96912 0.36036 1.00794 0.0
H1409 H 0.97693 0.31227 0.01344 0.0
H1410 H 0.96296 0.3415 0.03866 0.0
H1411 H 0.90783 0.29857 0.04745 0.0
H1412 H 0.92148 0.26939 0.02216 0.0
H1413 H 0.87605 0.28847 0.02281 0.0
H1414 H 0.86109 0.37079 0.94369 0.0
H1415 H 0.88581 0.32349 0.91535 0.0
H1416 H 0.94571 0.27573 0.977 0.0
C1417 C 0.88811 0.37778 0.0406 0.0
C1418 C 0.86346 0.40764 0.04155 0.0
C1419 C 0.8474 0.42016 0.01908 0.0
C1420 C 0.855 0.40295 0.99632 0.0
C1421 C 0.87884 0.37321 0.99614 0.0
C1422 C 0.89535 0.3609 0.01769 0.0
C1423 C 0.9191 0.32774 1.0126 0.0
C1424 C 0.95942 0.33597 0.01851 0.0
C1425 C 0.90527 0.29406 0.02711 0.0
C1426 C 0.91318 0.32319 0.9849 0.0
C1427 C 0.88987 0.34961 0.97569 0.0
C1428 C 0.87965 0.35016 0.95069 0.0
C1429 C 0.8938 0.32312 0.93471 0.0
C1430 C 0.91797 0.29587 0.94375 0.0
C1431 C 0.9276 0.29621 0.96926 0.0
H1432 H 0.3972 0.83136 0.53985 0.0
H1433 H 0.41607 0.93562 0.57641 0.0
H1434 H 0.3797 0.96686 0.54434 0.0
H1435 H 0.39739 0.86768 0.47478 0.0
H1436 H 0.36117 0.83725 0.46522 0.0
H1437 H 0.39254 0.82331 0.48923 0.0
H1438 H 0.33789 0.81103 0.51877 0.0
H1439 H 0.30639 0.82535 0.49502 0.0
H1440 H 0.30573 0.84729 0.52499 0.0
H1441 H 0.33593 0.98599 0.51215 0.0
H1442 H 0.28985 0.99298 0.47921 0.0
H1443 H 0.29891 0.87722 0.46185 0.0
C1444 C 0.39459 0.86089 0.54061 0.0
C1445 C 0.40971 0.88112 0.56055 0.0
C1446 C 0.40482 0.9196 0.5613 0.0
C1447 C 0.38422 0.93762 0.54316 0.0
C1448 C 0.36864 0.91685 0.52426 0.0
C1449 C 0.37379 0.87942 0.5226 0.0
C1450 C 0.35182 0.86354 0.50119 0.0
C1451 C 0.37725 0.84697 0.48143 0.0
C1452 C 0.3238 0.83513 0.51056 0.0
C1453 C 0.33301 0.89782 0.49153 0.0
C1454 C 0.34327 0.92817 0.50518 0.0
C1455 C 0.32807 0.96257 0.50106 0.0
C1456 C 0.30171 0.96621 0.48242 0.0
C1457 C 0.29091 0.93571 0.46793 0.0
C1458 C 0.30705 0.90109 0.47242 0.0
H1459 H 0.59312 0.40205 0.54334 0.0
H1460 H 0.69802 0.44079 0.51574 0.0
H1461 H 0.68852 0.40626 0.47692 0.0
H1462 H 0.60153 0.31317 0.52163 0.0
H1463 H 0.55406 0.30739 0.51352 0.0
H1464 H 0.56673 0.33883 0.53774 0.0
H1465 H 0.53342 0.39164 0.51481 0.0
H1466 H 0.52023 0.36024 0.49061 0.0
H1467 H 0.54488 0.40156 0.4829 0.0
H1468 H 0.67062 0.36144 0.44295 0.0
H1469 H 0.6439 0.31334 0.41614 0.0
H1470 H 0.55089 0.30512 0.4662 0.0
C1471 C 0.61367 0.40422 0.52889 0.0
C1472 C 0.6462 0.42444 0.53264 0.0
C1473 C 0.6727 0.42576 0.51334 0.0
C1474 C 0.66761 0.40615 0.49118 0.0
C1475 C 0.63577 0.38551 0.48847 0.0
C1476 C 0.60906 0.3848 0.50671 0.0
C1477 C 0.57846 0.35867 0.50003 0.0
C1478 C 0.57502 0.32769 0.51938 0.0
C1479 C 0.5421 0.37927 0.4969 0.0
C1480 C 0.59238 0.34433 0.47542 0.0
C1481 C 0.62542 0.36011 0.46896 0.0
C1482 C 0.6444 0.34942 0.44763 0.0
C1483 C 0.62904 0.32204 0.43251 0.0
C1484 C 0.59508 0.30561 0.43883 0.0
C1485 C 0.57666 0.31727 0.46056 0.0
H1486 H 0.21079 0.63734 0.45255 0.0
H1487 H 0.17389 0.52653 0.43796 0.0
H1488 H 0.12017 0.53626 0.46494 0.0
H1489 H 0.1915 0.63567 0.51518 0.0
H1490 H 0.1764 0.68248 0.51795 0.0
H1491 H 0.20791 0.67 0.49372 0.0
H1492 H 0.16409 0.6963 0.46077 0.0
H1493 H 0.1321 0.70905 0.48474 0.0
H1494 H 0.11745 0.68037 0.45938 0.0
H1495 H 0.07681 0.55355 0.49814 0.0
H1496 H 0.0454 0.57825 0.53528 0.0
H1497 H 0.10897 0.67816 0.52934 0.0
C1498 C 0.19059 0.61575 0.45444 0.0
C1499 C 0.19596 0.58135 0.44301 0.0
C1500 C 0.16987 0.55313 0.44647 0.0
C1501 C 0.13928 0.55845 0.46169 0.0
C1502 C 0.13521 0.59215 0.47347 0.0
C1503 C 0.15997 0.62049 0.46998 0.0
C1504 C 0.15131 0.65237 0.48712 0.0
C1505 C 0.18369 0.66058 0.50452 0.0
C1506 C 0.14057 0.68654 0.4721 0.0
C1507 C 0.11874 0.63692 0.50134 0.0
C1508 C 0.10968 0.60232 0.49288 0.0
C1509 C 0.08292 0.58098 0.50452 0.0
C1510 C 0.06522 0.59513 0.52555 0.0
C1511 C 0.07415 0.63031 0.53457 0.0
C1512 C 0.10087 0.65166 0.52215 0.0
H1513 H 0.89989 0.09128 0.54073 0.0
H1514 H 0.7892 0.06665 0.51681 0.0
H1515 H 0.79898 0.10429 0.47911 0.0
H1516 H 0.89877 0.18295 0.52361 0.0
H1517 H 0.94589 0.18474 0.51377 0.0
H1518 H 0.93183 0.15218 0.53704 0.0
H1519 H 0.95762 0.09893 0.51047 0.0
H1520 H 0.97215 0.1314 0.48717 0.0
H1521 H 0.94274 0.09372 0.47875 0.0
H1522 H 0.81957 0.14991 0.44567 0.0
H1523 H 0.84927 0.19767 0.41978 0.0
H1524 H 0.94563 0.19201 0.46668 0.0
C1525 C 0.87791 0.0929 0.52732 0.0
C1526 C 0.84386 0.0756 0.53173 0.0
C1527 C 0.81569 0.07926 0.5138 0.0
C1528 C 0.82096 0.10068 0.49232 0.0
C1529 C 0.85457 0.11822 0.48896 0.0
C1530 C 0.88262 0.11426 0.50594 0.0
C1531 C 0.91523 0.13783 0.49912 0.0
C1532 C 0.92338 0.16609 0.5196 0.0
C1533 C 0.94892 0.11404 0.49354 0.0
C1534 C 0.90105 0.15616 0.47585 0.0
C1535 C 0.86613 0.14443 0.47009 0.0
C1536 C 0.84709 0.15891 0.44987 0.0
C1537 C 0.86419 0.18606 0.43526 0.0
C1538 C 0.8999 0.19864 0.44105 0.0
C1539 C 0.91841 0.18306 0.46156 0.0
H1540 H 0.86879 0.1054 0.95901 0.0
H1541 H 0.95682 0.15894 0.99911 0.0
H1542 H 0.92316 0.14946 0.03854 0.0
H1543 H 0.79645 0.14467 0.99419 0.0
H1544 H 0.76807 0.10427 0.99307 0.0
H1545 H 0.79996 0.1136 0.9683 0.0
H1546 H 0.83 0.04993 0.97476 0.0
H1547 H 0.79786 0.04023 0.9993 0.0
H1548 H 0.84629 0.03725 1.00518 0.0
H1549 H 0.87807 0.13518 0.07379 0.0
H1550 H 0.82743 0.11491 0.10131 0.0
H1551 H 0.7695 0.07277 0.03702 0.0
C1552 C 0.88146 0.11456 0.97609 0.0
C1553 C 0.91573 0.13255 0.97592 0.0
C1554 C 0.93075 0.14481 0.99874 0.0
C1555 C 0.91175 0.1397 0.02123 0.0
C1556 C 0.87765 0.12253 0.02059 0.0
C1557 C 0.86276 0.11009 0.99856 0.0
C1558 C 0.82532 0.09343 1.0026 0.0
C1559 C 0.79572 0.1153 0.98872 0.0
C1560 C 0.82487 0.0528 0.99502 0.0
C1561 C 0.82162 0.09787 0.03041 0.0
C1562 C 0.85186 0.11489 0.04055 0.0
C1563 C 0.8543 0.12175 0.06601 0.0
C1564 C 0.82536 0.11026 0.0815 0.0
C1565 C 0.7945 0.09203 0.07143 0.0
C1566 C 0.79268 0.08639 0.04547 0.0
H1567 H 0.41072 0.91008 0.99456 0.0
H1568 H 0.29919 0.93567 0.01585 0.0
H1569 H 0.30697 0.90005 0.05457 0.0
H1570 H 0.40938 0.82108 1.01205 0.0
H1571 H 0.45562 0.81902 0.02353 0.0
H1572 H 0.44373 0.85201 1.00011 0.0
H1573 H 0.46736 0.9048 0.02805 0.0
H1574 H 0.47986 0.87183 0.05151 0.0
H1575 H 0.44999 0.90935 0.05926 0.0
H1576 H 0.32393 0.85213 0.08739 0.0
H1577 H 0.35026 0.80116 0.11207 0.0
H1578 H 0.45062 0.80943 0.06924 0.0
C1579 C 0.38834 0.90932 1.00777 0.0
C1580 C 0.35446 0.92587 1.0022 0.0
C1581 C 0.32564 0.92373 0.01984 0.0
C1582 C 0.32974 0.90336 0.04187 0.0
C1583 C 0.36304 0.88591 0.04622 0.0
C1584 C 0.39209 0.88944 0.02985 0.0
C1585 C 0.42398 0.86571 0.03752 0.0
C1586 C 0.43371 0.83782 0.01709 0.0
C1587 C 0.45726 0.88934 0.04451 0.0
C1588 C 0.40787 0.84702 0.06011 0.0
C1589 C 0.37284 0.85909 0.06512 0.0
C1590 C 0.3517 0.84319 0.08396 0.0
C1591 C 0.36681 0.81422 0.0979 0.0
C1592 C 0.40256 0.80133 0.09276 0.0
C1593 C 0.42329 0.81861 0.07386 0.0
H1594 H 0.71473 0.43734 0.04101 0.0
H1595 H 0.66674 0.37874 0.10341 0.0
H1596 H 0.61598 0.35833 0.0763 0.0
H1597 H 0.63081 0.46824 0.01342 0.0
H1598 H 0.64697 0.46203 0.98205 0.0
H1599 H 0.67891 0.47249 1.00648 0.0
H1600 H 0.71639 0.41436 0.99576 0.0
H1601 H 0.68484 0.40396 0.97112 0.0
H1602 H 0.69373 0.37045 0.99498 0.0
H1603 H 0.57076 0.34371 0.04163 0.0
H1604 H 0.53768 0.33269 1.00239 0.0
H1605 H 0.61587 0.40151 0.9632 0.0
C1606 C 0.69357 0.42032 0.04916 0.0
C1607 C 0.69477 0.40987 0.07452 0.0
C1608 C 0.6665 0.38725 0.08413 0.0
C1609 C 0.63746 0.37563 0.06887 0.0
C1610 C 0.63705 0.38687 0.04404 0.0
C1611 C 0.66457 0.40852 0.03427 0.0
C1612 C 0.65865 0.41593 1.00687 0.0
C1613 C 0.65353 0.45712 1.00192 0.0
C1614 C 0.69027 0.40023 0.99127 0.0
C1615 C 0.62348 0.39495 1.00259 0.0
C1616 C 0.6113 0.37851 0.02426 0.0
C1617 C 0.58001 0.35663 0.02462 0.0
C1618 C 0.56131 0.35064 1.00219 0.0
C1619 C 0.5739 0.36641 0.97959 0.0
C1620 C 0.60504 0.38948 0.98009 0.0
H1621 H 0.05469 0.71567 0.0423 0.0
H1622 H 0.11538 0.66368 0.10198 0.0
H1623 H 0.13645 0.61598 0.07297 0.0
H1624 H 0.02689 0.63215 1.01049 0.0
H1625 H 0.03298 0.65152 0.97993 0.0
H1626 H 0.02082 0.68065 1.00564 0.0
H1627 H 0.07744 0.72162 0.99685 0.0
H1628 H 0.08961 0.69277 0.97104 0.0
H1629 H 0.12218 0.701 0.99551 0.0
H1630 H 0.15284 0.57519 0.03743 0.0
H1631 H 0.16593 0.54576 0.99722 0.0
H1632 H 0.09515 0.62429 0.96032 0.0
C1633 C 0.0721 0.69405 0.04932 0.0
C1634 C 0.08325 0.6934 0.07447 0.0
C1635 C 0.10652 0.66489 0.08281 0.0
C1636 C 0.1185 0.63751 0.0665 0.0
C1637 C 0.10712 0.63901 0.04186 0.0
C1638 C 0.08462 0.66662 0.03323 0.0
C1639 C 0.07802 0.66288 1.00555 0.0
C1640 C 0.03725 0.65641 1.00009 0.0
C1641 C 0.09269 0.69656 0.99141 0.0
C1642 C 0.1005 0.62899 0.99998 0.0
C1643 C 0.11683 0.61554 0.02123 0.0
C1644 C 0.14 0.5853 0.02067 0.0
C1645 C 0.14725 0.56875 0.9977 0.0
C1646 C 0.13145 0.58249 0.97553 0.0
C1647 C 0.10729 0.6127 0.97689 0.0
loop_
_geom_bond_atom_site_label_1
_geom_bond_atom_site_label_2
_geom_bond_distance
_geom_bond_site_symmetry_2
_ccdc_geom_bond_type
Sc0 O3 2.025 . S
Sc0 O10 2.105 . S
Sc0 O13 2.105 . S
Sc0 O16 2.105 . S
Sc0 O19 2.105 . S
Sc1 O3 2.025 . S
Sc1 O11 2.105 . S
Sc1 O15 2.105 . S
Sc1 O17 2.105 . S
Sc1 O21 2.105 . S
Sc2 O3 2.025 . S
Sc2 O12 2.105 . S
Sc2 O14 2.105 . S
Sc2 O18 2.105 . S
Sc2 O20 2.105 . S
O3 Sc0 2.025 . S
O3 Sc1 2.025 . S
O3 Sc2 2.025 . S
C4 O10 1.268 . S
C4 O20 1.268 . S
C5 O11 1.268 . S
C5 O19 1.268 . S
C6 O12 1.268 . S
C6 O21 1.268 . S
C7 O13 1.268 . S
C7 O17 1.268 . S
C8 O14 1.268 . S
C8 O16 1.268 . S
C9 O15 1.268 . S
C9 O18 1.268 . S
O10 Sc0 2.105 . S
O10 C4 1.268 . S
O11 Sc1 2.105 . S
O11 C5 1.268 . S
O12 Sc2 2.105 . S
O12 C6 1.268 . S
O13 Sc0 2.105 . S
O13 C7 1.268 . S
O14 Sc2 2.105 . S
O14 C8 1.268 . S
O15 Sc1 2.105 . S
O15 C9 1.268 . S
O16 Sc0 2.105 . S
O16 C8 1.268 . S
O17 Sc1 2.105 . S
O17 C7 1.268 . S
O18 Sc2 2.105 . S
O18 C9 1.268 . S
O19 Sc0 2.105 . S
O19 C5 1.268 . S
O20 Sc2 2.105 . S
O20 C4 1.268 . S
O21 Sc1 2.105 . S
O21 C6 1.268 . S
Sc22 O25 2.025 . S
Sc22 O32 2.105 . S
Sc22 O35 2.105 . S
Sc22 O38 2.105 . S
Sc22 O41 2.105 . S
Sc23 O25 2.025 . S
Sc23 O33 2.105 . S
Sc23 O37 2.105 . S
Sc23 O39 2.105 . S
Sc23 O43 2.105 . S
Sc24 O25 2.025 . S
Sc24 O34 2.105 . S
Sc24 O36 2.105 . S
Sc24 O40 2.105 . S
Sc24 O42 2.105 . S
O25 Sc22 2.025 . S
O25 Sc23 2.025 . S
O25 Sc24 2.025 . S
C26 O32 1.268 . S
C26 O42 1.268 . S
C27 O33 1.268 . S
C27 O41 1.268 . S
C28 O34 1.268 . S
C28 O43 1.268 . S
C29 O35 1.268 . S
C29 O39 1.268 . S
C30 O36 1.268 . S
C30 O38 1.268 . S
C31 O37 1.268 . S
C31 O40 1.268 . S
O32 Sc22 2.105 . S
O32 C26 1.268 . S
O33 Sc23 2.105 . S
O33 C27 1.268 . S
O34 Sc24 2.105 . S
O34 C28 1.268 . S
O35 Sc22 2.105 . S
O35 C29 1.268 . S
O36 Sc24 2.105 . S
O36 C30 1.268 . S
O37 Sc23 2.105 . S
O37 C31 1.268 . S
O38 Sc22 2.105 . S
O38 C30 1.268 . S
O39 Sc23 2.105 . S
O39 C29 1.268 . S
O40 Sc24 2.105 . S
O40 C31 1.268 . S
O41 Sc22 2.105 . S
O41 C27 1.268 . S
O42 Sc24 2.105 . S
O42 C26 1.268 . S
O43 Sc23 2.105 . S
O43 C28 1.268 . S
Sc44 O47 2.025 . S
Sc44 O54 2.105 . S
Sc44 O57 2.105 . S
Sc44 O60 2.105 . S
Sc44 O63 2.105 . S
Sc45 O47 2.025 . S
Sc45 O55 2.105 . S
Sc45 O59 2.105 . S
Sc45 O61 2.105 . S
Sc45 O65 2.105 . S
Sc46 O47 2.025 . S
Sc46 O56 2.105 1_655 S
Sc46 O58 2.105 . S
Sc46 O62 2.105 . S
Sc46 O64 2.105 1_655 S
O47 Sc44 2.025 . S
O47 Sc45 2.025 . S
O47 Sc46 2.025 . S
C48 O54 1.268 . S
C48 O64 1.268 1_655 S
C49 O55 1.268 . S
C49 O63 1.268 . S
C50 O56 1.267 1_655 S
C50 O65 1.276 . S
C51 O57 1.268 . S
C51 O61 1.268 . S
C52 O58 1.268 . S
C52 O60 1.268 . S
C53 O59 1.268 . S
C53 O62 1.268 . S
O54 Sc44 2.105 . S
O54 C48 1.268 . S
O55 Sc45 2.105 . S
O55 C49 1.268 . S
O56 Sc46 2.105 1_455 S
O56 C50 1.267 1_455 S
O57 Sc44 2.105 . S
O57 C51 1.268 . S
O58 Sc46 2.105 . S
O58 C52 1.268 . S
O59 Sc45 2.105 . S
O59 C53 1.268 . S
O60 Sc44 2.105 . S
O60 C52 1.268 . S
O61 Sc45 2.105 . S
O61 C51 1.268 . S
O62 Sc46 2.105 . S
O62 C53 1.268 . S
O63 Sc44 2.105 . S
O63 C49 1.268 . S
O64 Sc46 2.105 1_455 S
O64 C48 1.268 1_455 S
O65 Sc45 2.105 . S
O65 C50 1.276 . S
Sc66 O69 2.025 . S
Sc66 O76 2.105 . S
Sc66 O79 2.105 1_565 S
Sc66 O82 2.105 1_565 S
Sc66 O85 2.105 . S
Sc67 O69 2.025 . S
Sc67 O77 2.105 . S
Sc67 O81 2.105 . S
Sc67 O83 2.105 . S
Sc67 O87 2.105 . S
Sc68 O69 2.025 . S
Sc68 O78 2.105 . S
Sc68 O80 2.105 . S
Sc68 O84 2.105 . S
Sc68 O86 2.105 . S
O69 Sc66 2.025 . S
O69 Sc67 2.025 . S
O69 Sc68 2.025 . S
C70 O76 1.268 . S
C70 O86 1.268 . S
C71 O77 1.268 . S
C71 O85 1.268 . S
C72 O78 1.268 . S
C72 O87 1.268 . S
C73 O79 1.267 1_565 S
C73 O83 1.276 . S
C74 O80 1.268 . S
C74 O82 1.268 1_565 S
C75 O81 1.268 . S
C75 O84 1.268 . S
O76 Sc66 2.105 . S
O76 C70 1.268 . S
O77 Sc67 2.105 . S
O77 C71 1.268 . S
O78 Sc68 2.105 . S
O78 C72 1.268 . S
O79 Sc66 2.105 1_545 S
O79 C73 1.267 1_545 S
O80 Sc68 2.105 . S
O80 C74 1.268 . S
O81 Sc67 2.105 . S
O81 C75 1.268 . S
O82 Sc66 2.105 1_545 S
O82 C74 1.268 1_545 S
O83 Sc67 2.105 . S
O83 C73 1.276 . S
O84 Sc68 2.105 . S
O84 C75 1.268 . S
O85 Sc66 2.105 . S
O85 C71 1.268 . S
O86 Sc68 2.105 . S
O86 C70 1.268 . S
O87 Sc67 2.105 . S
O87 C72 1.268 . S
Sc88 O91 2.025 . S
Sc88 O98 2.105 . S
Sc88 O101 2.105 . S
Sc88 O104 2.105 . S
Sc88 O107 2.105 . S
Sc89 O91 2.025 . S
Sc89 O99 2.105 . S
Sc89 O103 2.105 . S
Sc89 O105 2.105 . S
Sc89 O109 2.105 . S
Sc90 O91 2.025 . S
Sc90 O100 2.105 1_455 S
Sc90 O102 2.105 . S
Sc90 O106 2.105 . S
Sc90 O108 2.105 1_455 S
O91 Sc88 2.025 . S
O91 Sc89 2.025 . S
O91 Sc90 2.025 . S
C92 O98 1.268 . S
C92 O108 1.268 1_455 S
C93 O99 1.268 . S
C93 O107 1.268 . S
C94 O100 1.267 1_455 S
C94 O109 1.276 . S
C95 O101 1.268 . S
C95 O105 1.268 . S
C96 O102 1.268 . S
C96 O104 1.268 . S
C97 O103 1.268 . S
C97 O106 1.268 . S
O98 Sc88 2.105 . S
O98 C92 1.268 . S
O99 Sc89 2.105 . S
O99 C93 1.268 . S
O100 Sc90 2.105 1_655 S
O100 C94 1.267 1_655 S
O101 Sc88 2.105 . S
O101 C95 1.268 . S
O102 Sc90 2.105 . S
O102 C96 1.268 . S
O103 Sc89 2.105 . S
O103 C97 1.268 . S
O104 Sc88 2.105 . S
O104 C96 1.268 . S
O105 Sc89 2.105 . S
O105 C95 1.268 . S
O106 Sc90 2.105 . S
O106 C97 1.268 . S
O107 Sc88 2.105 . S
O107 C93 1.268 . S
O108 Sc90 2.105 1_655 S
O108 C92 1.268 1_655 S
O109 Sc89 2.105 . S
O109 C94 1.276 . S
Sc110 O113 2.025 . S
Sc110 O120 2.105 . S
Sc110 O123 2.105 1_545 S
Sc110 O126 2.105 1_545 S
Sc110 O129 2.105 . S
Sc111 O113 2.025 . S
Sc111 O121 2.105 . S
Sc111 O125 2.105 . S
Sc111 O127 2.105 . S
Sc111 O131 2.105 . S
Sc112 O113 2.025 . S
Sc112 O122 2.105 . S
Sc112 O124 2.105 . S
Sc112 O128 2.105 . S
Sc112 O130 2.105 . S
O113 Sc110 2.025 . S
O113 Sc111 2.025 . S
O113 Sc112 2.025 . S
C114 O120 1.268 . S
C114 O130 1.268 . S
C115 O121 1.268 . S
C115 O129 1.268 . S
C116 O122 1.268 . S
C116 O131 1.268 . S
C117 O123 1.267 1_545 S
C117 O127 1.276 . S
C118 O124 1.268 . S
C118 O126 1.268 1_545 S
C119 O125 1.268 . S
C119 O128 1.268 . S
O120 Sc110 2.105 . S
O120 C114 1.268 . S
O121 Sc111 2.105 . S
O121 C115 1.268 . S
O122 Sc112 2.105 . S
O122 C116 1.268 . S
O123 Sc110 2.105 1_565 S
O123 C117 1.267 1_565 S
O124 Sc112 2.105 . S
O124 C118 1.268 . S
O125 Sc111 2.105 . S
O125 C119 1.268 . S
O126 Sc110 2.105 1_565 S
O126 C118 1.268 1_565 S
O127 Sc111 2.105 . S
O127 C117 1.276 . S
O128 Sc112 2.105 . S
O128 C119 1.268 . S
O129 Sc110 2.105 . S
O129 C115 1.268 . S
O130 Sc112 2.105 . S
O130 C114 1.268 . S
O131 Sc111 2.105 . S
O131 C116 1.268 . S
Sc132 O135 2.025 . S
Sc132 O142 2.105 . S
Sc132 O145 2.105 . S
Sc132 O148 2.105 . S
Sc132 O151 2.105 . S
Sc133 O135 2.025 . S
Sc133 O143 2.105 . S
Sc133 O147 2.105 . S
Sc133 O149 2.105 . S
Sc133 O153 2.105 . S
Sc134 O135 2.025 . S
Sc134 O144 2.105 . S
Sc134 O146 2.105 . S
Sc134 O150 2.105 . S
Sc134 O152 2.105 . S
O135 Sc132 2.025 . S
O135 Sc133 2.025 . S
O135 Sc134 2.025 . S
C136 O142 1.268 . S
C136 O152 1.268 . S
C137 O143 1.268 . S
C137 O151 1.268 . S
C138 O144 1.268 . S
C138 O153 1.268 . S
C139 O145 1.268 . S
C139 O149 1.268 . S
C140 O146 1.268 . S
C140 O148 1.268 . S
C141 O147 1.268 . S
C141 O150 1.268 . S
O142 Sc132 2.105 . S
O142 C136 1.268 . S
O143 Sc133 2.105 . S
O143 C137 1.268 . S
O144 Sc134 2.105 . S
O144 C138 1.268 . S
O145 Sc132 2.105 . S
O145 C139 1.268 . S
O146 Sc134 2.105 . S
O146 C140 1.268 . S
O147 Sc133 2.105 . S
O147 C141 1.268 . S
O148 Sc132 2.105 . S
O148 C140 1.268 . S
O149 Sc133 2.105 . S
O149 C139 1.268 . S
O150 Sc134 2.105 . S
O150 C141 1.268 . S
O151 Sc132 2.105 . S
O151 C137 1.268 . S
O152 Sc134 2.105 . S
O152 C136 1.268 . S
O153 Sc133 2.105 . S
O153 C138 1.268 . S
Sc154 O157 2.025 . S
Sc154 O164 2.105 . S
Sc154 O167 2.105 . S
Sc154 O170 2.105 . S
Sc154 O173 2.105 . S
Sc155 O157 2.025 . S
Sc155 O165 2.105 . S
Sc155 O169 2.105 . S
Sc155 O171 2.105 . S
Sc155 O175 2.105 . S
Sc156 O157 2.025 . S
Sc156 O166 2.105 . S
Sc156 O168 2.105 . S
Sc156 O172 2.105 . S
Sc156 O174 2.105 . S
O157 Sc154 2.025 . S
O157 Sc155 2.025 . S
O157 Sc156 2.025 . S
C158 O164 1.268 . S
C158 O174 1.268 . S
C159 O165 1.268 . S
C159 O173 1.268 . S
C160 O166 1.268 . S
C160 O175 1.268 . S
C161 O167 1.268 . S
C161 O171 1.268 . S
C162 O168 1.268 . S
C162 O170 1.268 . S
C163 O169 1.268 . S
C163 O172 1.268 . S
O164 Sc154 2.105 . S
O164 C158 1.268 . S
O165 Sc155 2.105 . S
O165 C159 1.268 . S
O166 Sc156 2.105 . S
O166 C160 1.268 . S
O167 Sc154 2.105 . S
O167 C161 1.268 . S
O168 Sc156 2.105 . S
O168 C162 1.268 . S
O169 Sc155 2.105 . S
O169 C163 1.268 . S
O170 Sc154 2.105 . S
O170 C162 1.268 . S
O171 Sc155 2.105 . S
O171 C161 1.268 . S
O172 Sc156 2.105 . S
O172 C163 1.268 . S
O173 Sc154 2.105 . S
O173 C159 1.268 . S
O174 Sc156 2.105 . S
O174 C158 1.268 . S
O175 Sc155 2.105 . S
O175 C160 1.268 . S
Sc176 O179 2.025 . S
Sc176 O186 2.105 . S
Sc176 O189 2.105 . S
Sc176 O192 2.105 . S
Sc176 O195 2.105 . S
Sc177 O179 2.025 . S
Sc177 O187 2.105 . S
Sc177 O191 2.105 . S
Sc177 O193 2.105 . S
Sc177 O197 2.105 . S
Sc178 O179 2.025 . S
Sc178 O188 2.105 . S
Sc178 O190 2.105 . S
Sc178 O194 2.105 . S
Sc178 O196 2.105 . S
O179 Sc176 2.025 . S
O179 Sc177 2.025 . S
O179 Sc178 2.025 . S
C180 O186 1.268 . S
C180 O196 1.268 . S
C181 O187 1.268 . S
C181 O195 1.268 . S
C182 O188 1.268 . S
C182 O197 1.268 . S
C183 O189 1.268 . S
C183 O193 1.268 . S
C184 O190 1.268 . S
C184 O192 1.268 . S
C185 O191 1.268 . S
C185 O194 1.268 . S
O186 Sc176 2.105 . S
O186 C180 1.268 . S
O187 Sc177 2.105 . S
O187 C181 1.268 . S
O188 Sc178 2.105 . S
O188 C182 1.268 . S
O189 Sc176 2.105 . S
O189 C183 1.268 . S
O190 Sc178 2.105 . S
O190 C184 1.268 . S
O191 Sc177 2.105 . S
O191 C185 1.268 . S
O192 Sc176 2.105 . S
O192 C184 1.268 . S
O193 Sc177 2.105 . S
O193 C183 1.268 . S
O194 Sc178 2.105 . S
O194 C185 1.268 . S
O195 Sc176 2.105 . S
O195 C181 1.268 . S
O196 Sc178 2.105 . S
O196 C180 1.268 . S
O197 Sc177 2.105 . S
O197 C182 1.268 . S
Sc198 O201 2.025 . S
Sc198 O208 2.105 . S
Sc198 O211 2.105 . S
Sc198 O214 2.105 . S
Sc198 O217 2.105 . S
Sc199 O201 2.025 . S
Sc199 O209 2.105 . S
Sc199 O213 2.105 . S
Sc199 O215 2.105 . S
Sc199 O219 2.105 . S
Sc200 O201 2.025 . S
Sc200 O210 2.105 . S
Sc200 O212 2.105 . S
Sc200 O216 2.105 . S
Sc200 O218 2.105 . S
O201 Sc198 2.025 . S
O201 Sc199 2.025 . S
O201 Sc200 2.025 . S
C202 O208 1.268 . S
C202 O218 1.268 . S
C203 O209 1.268 . S
C203 O217 1.268 . S
C204 O210 1.268 . S
C204 O219 1.268 . S
C205 O211 1.268 . S
C205 O215 1.268 . S
C206 O212 1.268 . S
C206 O214 1.268 . S
C207 O213 1.268 . S
C207 O216 1.268 . S
O208 Sc198 2.105 . S
O208 C202 1.268 . S
O209 Sc199 2.105 . S
O209 C203 1.268 . S
O210 Sc200 2.105 . S
O210 C204 1.268 . S
O211 Sc198 2.105 . S
O211 C205 1.268 . S
O212 Sc200 2.105 . S
O212 C206 1.268 . S
O213 Sc199 2.105 . S
O213 C207 1.268 . S
O214 Sc198 2.105 . S
O214 C206 1.268 . S
O215 Sc199 2.105 . S
O215 C205 1.268 . S
O216 Sc200 2.105 . S
O216 C207 1.268 . S
O217 Sc198 2.105 . S
O217 C203 1.268 . S
O218 Sc200 2.105 . S
O218 C202 1.268 . S
O219 Sc199 2.105 . S
O219 C204 1.268 . S
Sc220 O223 2.025 . S
Sc220 O230 2.105 . S
Sc220 O233 2.105 . S
Sc220 O236 2.105 . S
Sc220 O239 2.105 . S
Sc221 O223 2.025 . S
Sc221 O231 2.105 . S
Sc221 O235 2.105 . S
Sc221 O237 2.105 . S
Sc221 O241 2.105 . S
Sc222 O223 2.025 . S
Sc222 O232 2.105 . S
Sc222 O234 2.105 1_455 S
Sc222 O238 2.105 1_455 S
Sc222 O240 2.105 . S
O223 Sc220 2.025 . S
O223 Sc221 2.025 . S
O223 Sc222 2.025 . S
C224 O230 1.268 . S
C224 O240 1.268 . S
C225 O231 1.268 . S
C225 O239 1.268 . S
C226 O232 1.268 . S
C226 O241 1.268 . S
C227 O233 1.268 . S
C227 O237 1.268 . S
C228 O234 1.268 1_455 S
C228 O236 1.268 . S
C229 O235 1.276 . S
C229 O238 1.267 1_455 S
O230 Sc220 2.105 . S
O230 C224 1.268 . S
O231 Sc221 2.105 . S
O231 C225 1.268 . S
O232 Sc222 2.105 . S
O232 C226 1.268 . S
O233 Sc220 2.105 . S
O233 C227 1.268 . S
O234 Sc222 2.105 1_655 S
O234 C228 1.268 1_655 S
O235 Sc221 2.105 . S
O235 C229 1.276 . S
O236 Sc220 2.105 . S
O236 C228 1.268 . S
O237 Sc221 2.105 . S
O237 C227 1.268 . S
O238 Sc222 2.105 1_655 S
O238 C229 1.267 1_655 S
O239 Sc220 2.105 . S
O239 C225 1.268 . S
O240 Sc222 2.105 . S
O240 C224 1.268 . S
O241 Sc221 2.105 . S
O241 C226 1.268 . S
Sc242 O245 2.025 . S
Sc242 O252 2.105 . S
Sc242 O255 2.105 . S
Sc242 O258 2.105 . S
Sc242 O261 2.105 . S
Sc243 O245 2.025 . S
Sc243 O253 2.105 . S
Sc243 O257 2.105 . S
Sc243 O259 2.105 . S
Sc243 O263 2.105 . S
Sc244 O245 2.025 . S
Sc244 O254 2.105 . S
Sc244 O256 2.105 1_545 S
Sc244 O260 2.105 1_545 S
Sc244 O262 2.105 . S
O245 Sc242 2.025 . S
O245 Sc243 2.025 . S
O245 Sc244 2.025 . S
C246 O252 1.268 . S
C246 O262 1.268 . S
C247 O253 1.268 . S
C247 O261 1.268 . S
C248 O254 1.268 . S
C248 O263 1.268 . S
C249 O255 1.268 . S
C249 O259 1.268 . S
C250 O256 1.268 1_545 S
C250 O258 1.268 . S
C251 O257 1.276 . S
C251 O260 1.267 1_545 S
O252 Sc242 2.105 . S
O252 C246 1.268 . S
O253 Sc243 2.105 . S
O253 C247 1.268 . S
O254 Sc244 2.105 . S
O254 C248 1.268 . S
O255 Sc242 2.105 . S
O255 C249 1.268 . S
O256 Sc244 2.105 1_565 S
O256 C250 1.268 1_565 S
O257 Sc243 2.105 . S
O257 C251 1.276 . S
O258 Sc242 2.105 . S
O258 C250 1.268 . S
O259 Sc243 2.105 . S
O259 C249 1.268 . S
O260 Sc244 2.105 1_565 S
O260 C251 1.267 1_565 S
O261 Sc242 2.105 . S
O261 C247 1.268 . S
O262 Sc244 2.105 . S
O262 C246 1.268 . S
O263 Sc243 2.105 . S
O263 C248 1.268 . S
Sc264 O267 2.025 . S
Sc264 O274 2.105 . S
Sc264 O277 2.105 . S
Sc264 O280 2.105 . S
Sc264 O283 2.105 . S
Sc265 O267 2.025 . S
Sc265 O275 2.105 . S
Sc265 O279 2.105 . S
Sc265 O281 2.105 . S
Sc265 O285 2.105 . S
Sc266 O267 2.025 . S
Sc266 O276 2.105 . S
Sc266 O278 2.105 1_655 S
Sc266 O282 2.105 1_655 S
Sc266 O284 2.105 . S
O267 Sc264 2.025 . S
O267 Sc265 2.025 . S
O267 Sc266 2.025 . S
C268 O274 1.268 . S
C268 O284 1.268 . S
C269 O275 1.268 . S
C269 O283 1.268 . S
C270 O276 1.268 . S
C270 O285 1.268 . S
C271 O277 1.268 . S
C271 O281 1.268 . S
C272 O278 1.268 1_655 S
C272 O280 1.268 . S
C273 O279 1.276 . S
C273 O282 1.267 1_655 S
O274 Sc264 2.105 . S
O274 C268 1.268 . S
O275 Sc265 2.105 . S
O275 C269 1.268 . S
O276 Sc266 2.105 . S
O276 C270 1.268 . S
O277 Sc264 2.105 . S
O277 C271 1.268 . S
O278 Sc266 2.105 1_455 S
O278 C272 1.268 1_455 S
O279 Sc265 2.105 . S
O279 C273 1.276 . S
O280 Sc264 2.105 . S
O280 C272 1.268 . S
O281 Sc265 2.105 . S
O281 C271 1.268 . S
O282 Sc266 2.105 1_455 S
O282 C273 1.267 1_455 S
O283 Sc264 2.105 . S
O283 C269 1.268 . S
O284 Sc266 2.105 . S
O284 C268 1.268 . S
O285 Sc265 2.105 . S
O285 C270 1.268 . S
Sc286 O289 2.025 . S
Sc286 O296 2.105 . S
Sc286 O299 2.105 . S
Sc286 O302 2.105 . S
Sc286 O305 2.105 . S
Sc287 O289 2.025 . S
Sc287 O297 2.105 . S
Sc287 O301 2.105 . S
Sc287 O303 2.105 . S
Sc287 O307 2.105 . S
Sc288 O289 2.025 . S
Sc288 O298 2.105 . S
Sc288 O300 2.105 1_565 S
Sc288 O304 2.105 1_565 S
Sc288 O306 2.105 . S
O289 Sc286 2.025 . S
O289 Sc287 2.025 . S
O289 Sc288 2.025 . S
C290 O296 1.268 . S
C290 O306 1.268 . S
C291 O297 1.268 . S
C291 O305 1.268 . S
C292 O298 1.268 . S
C292 O307 1.268 . S
C293 O299 1.268 . S
C293 O303 1.268 . S
C294 O300 1.268 1_565 S
C294 O302 1.268 . S
C295 O301 1.276 . S
C295 O304 1.267 1_565 S
O296 Sc286 2.105 . S
O296 C290 1.268 . S
O297 Sc287 2.105 . S
O297 C291 1.268 . S
O298 Sc288 2.105 . S
O298 C292 1.268 . S
O299 Sc286 2.105 . S
O299 C293 1.268 . S
O300 Sc288 2.105 1_545 S
O300 C294 1.268 1_545 S
O301 Sc287 2.105 . S
O301 C295 1.276 . S
O302 Sc286 2.105 . S
O302 C294 1.268 . S
O303 Sc287 2.105 . S
O303 C293 1.268 . S
O304 Sc288 2.105 1_545 S
O304 C295 1.267 1_545 S
O305 Sc286 2.105 . S
O305 C291 1.268 . S
O306 Sc288 2.105 . S
O306 C290 1.268 . S
O307 Sc287 2.105 . S
O307 C292 1.268 . S
Sc308 O311 2.025 . S
Sc308 O318 2.105 . S
Sc308 O321 2.105 . S
Sc308 O324 2.105 . S
Sc308 O327 2.105 . S
Sc309 O311 2.025 . S
Sc309 O319 2.105 . S
Sc309 O323 2.105 . S
Sc309 O325 2.105 . S
Sc309 O329 2.105 . S
Sc310 O311 2.025 . S
Sc310 O320 2.105 . S
Sc310 O322 2.105 . S
Sc310 O326 2.105 . S
Sc310 O328 2.105 . S
O311 Sc308 2.025 . S
O311 Sc309 2.025 . S
O311 Sc310 2.025 . S
C312 O318 1.268 . S
C312 O328 1.268 . S
C313 O319 1.268 . S
C313 O327 1.268 . S
C314 O320 1.268 . S
C314 O329 1.268 . S
C315 O321 1.268 . S
C315 O325 1.268 . S
C316 O322 1.268 . S
C316 O324 1.268 . S
C317 O323 1.268 . S
C317 O326 1.268 . S
O318 Sc308 2.105 . S
O318 C312 1.268 . S
O319 Sc309 2.105 . S
O319 C313 1.268 . S
O320 Sc310 2.105 . S
O320 C314 1.268 . S
O321 Sc308 2.105 . S
O321 C315 1.268 . S
O322 Sc310 2.105 . S
O322 C316 1.268 . S
O323 Sc309 2.105 . S
O323 C317 1.268 . S
O324 Sc308 2.105 . S
O324 C316 1.268 . S
O325 Sc309 2.105 . S
O325 C315 1.268 . S
O326 Sc310 2.105 . S
O326 C317 1.268 . S
O327 Sc308 2.105 . S
O327 C313 1.268 . S
O328 Sc310 2.105 . S
O328 C312 1.268 . S
O329 Sc309 2.105 . S
O329 C314 1.268 . S
Sc330 O333 2.025 . S
Sc330 O340 2.105 . S
Sc330 O343 2.105 . S
Sc330 O346 2.105 . S
Sc330 O349 2.105 . S
Sc331 O333 2.025 . S
Sc331 O341 2.105 . S
Sc331 O345 2.105 . S
Sc331 O347 2.105 . S
Sc331 O351 2.105 . S
Sc332 O333 2.025 . S
Sc332 O342 2.105 . S
Sc332 O344 2.105 . S
Sc332 O348 2.105 . S
Sc332 O350 2.105 . S
O333 Sc330 2.025 . S
O333 Sc331 2.025 . S
O333 Sc332 2.025 . S
C334 O340 1.268 . S
C334 O350 1.268 . S
C335 O341 1.268 . S
C335 O349 1.268 . S
C336 O342 1.268 . S
C336 O351 1.268 . S
C337 O343 1.268 . S
C337 O347 1.268 . S
C338 O344 1.268 . S
C338 O346 1.268 . S
C339 O345 1.268 . S
C339 O348 1.268 . S
O340 Sc330 2.105 . S
O340 C334 1.268 . S
O341 Sc331 2.105 . S
O341 C335 1.268 . S
O342 Sc332 2.105 . S
O342 C336 1.268 . S
O343 Sc330 2.105 . S
O343 C337 1.268 . S
O344 Sc332 2.105 . S
O344 C338 1.268 . S
O345 Sc331 2.105 . S
O345 C339 1.268 . S
O346 Sc330 2.105 . S
O346 C338 1.268 . S
O347 Sc331 2.105 . S
O347 C337 1.268 . S
O348 Sc332 2.105 . S
O348 C339 1.268 . S
O349 Sc330 2.105 . S
O349 C335 1.268 . S
O350 Sc332 2.105 . S
O350 C334 1.268 . S
O351 Sc331 2.105 . S
O351 C336 1.268 . S
H352 C364 0.930 . S
H353 C366 0.930 . S
H354 C367 0.930 . S
H355 C371 0.959 . S
H356 C371 0.959 . S
H357 C371 0.961 . S
H358 C372 0.960 . S
H359 C372 0.961 . S
H360 C372 0.959 . S
H361 C375 0.929 . S
H362 C376 0.931 . S
H363 C378 0.930 . S
C364 H352 0.930 . S
C364 C365 1.399 . S
C364 C369 1.399 . S
C365 C364 1.399 . S
C365 C366 1.376 . S
C366 H353 0.930 . S
C366 C365 1.376 . S
C366 C367 1.388 . S
C367 H354 0.930 . S
C367 C366 1.388 . S
C367 C368 1.390 . S
C368 C367 1.390 . S
C368 C369 1.394 . S
C368 C374 1.465 . S
C369 C364 1.399 . S
C369 C368 1.394 . S
C369 C370 1.516 . S
C370 C369 1.516 . S
C370 C371 1.502 . S
C370 C372 1.561 . S
C370 C373 1.526 . S
C371 H355 0.959 . S
C371 H356 0.959 . S
C371 H357 0.961 . S
C371 C370 1.502 . S
C372 H358 0.960 . S
C372 H359 0.961 . S
C372 H360 0.959 . S
C372 C370 1.561 . S
C373 C370 1.526 . S
C373 C374 1.396 . S
C373 C378 1.390 . S
C374 C368 1.465 . S
C374 C373 1.396 . S
C374 C375 1.399 . S
C375 H361 0.929 . S
C375 C374 1.399 . S
C375 C376 1.385 . S
C376 H362 0.931 . S
C376 C375 1.385 . S
C376 C377 1.389 . S
C377 C376 1.389 . S
C377 C378 1.387 . S
C378 H363 0.930 . S
C378 C373 1.390 . S
C378 C377 1.387 . S
H379 C391 0.930 . S
H380 C393 0.930 . S
H381 C394 0.930 . S
H382 C398 0.959 . S
H383 C398 0.959 . S
H384 C398 0.961 . S
H385 C399 0.960 . S
H386 C399 0.961 . S
H387 C399 0.959 . S
H388 C402 0.929 . S
H389 C403 0.931 . S
H390 C405 0.930 . S
C391 H379 0.930 . S
C391 C392 1.399 . S
C391 C396 1.399 . S
C392 C391 1.399 . S
C392 C393 1.376 . S
C393 H380 0.930 . S
C393 C392 1.376 . S
C393 C394 1.388 . S
C394 H381 0.930 . S
C394 C393 1.388 . S
C394 C395 1.390 . S
C395 C394 1.390 . S
C395 C396 1.394 . S
C395 C401 1.465 . S
C396 C391 1.399 . S
C396 C395 1.394 . S
C396 C397 1.516 . S
C397 C396 1.516 . S
C397 C398 1.502 . S
C397 C399 1.561 . S
C397 C400 1.526 . S
C398 H382 0.959 . S
C398 H383 0.959 . S
C398 H384 0.961 . S
C398 C397 1.502 . S
C399 H385 0.960 . S
C399 H386 0.961 . S
C399 H387 0.959 . S
C399 C397 1.561 . S
C400 C397 1.526 . S
C400 C401 1.396 . S
C400 C405 1.390 . S
C401 C395 1.465 . S
C401 C400 1.396 . S
C401 C402 1.399 . S
C402 H388 0.929 . S
C402 C401 1.399 . S
C402 C403 1.385 . S
C403 H389 0.931 . S
C403 C402 1.385 . S
C403 C404 1.389 . S
C404 C403 1.389 . S
C404 C405 1.387 . S
C405 H390 0.930 . S
C405 C400 1.390 . S
C405 C404 1.387 . S
H406 C418 0.930 . S
H407 C420 0.930 . S
H408 C421 0.930 . S
H409 C425 0.959 . S
H410 C425 0.959 . S
H411 C425 0.961 . S
H412 C426 0.960 . S
H413 C426 0.961 . S
H414 C426 0.959 . S
H415 C429 0.929 . S
H416 C430 0.931 . S
H417 C432 0.930 . S
C418 H406 0.930 . S
C418 C419 1.399 . S
C418 C423 1.399 . S
C419 C418 1.399 . S
C419 C420 1.376 . S
C420 H407 0.930 . S
C420 C419 1.376 . S
C420 C421 1.388 . S
C421 H408 0.930 . S
C421 C420 1.388 . S
C421 C422 1.390 . S
C422 C421 1.390 . S
C422 C423 1.394 . S
C422 C428 1.465 . S
C423 C418 1.399 . S
C423 C422 1.394 . S
C423 C424 1.516 . S
C424 C423 1.516 . S
C424 C425 1.502 . S
C424 C426 1.561 . S
C424 C427 1.526 . S
C425 H409 0.959 . S
C425 H410 0.959 . S
C425 H411 0.961 . S
C425 C424 1.502 . S
C426 H412 0.960 . S
C426 H413 0.961 . S
C426 H414 0.959 . S
C426 C424 1.561 . S
C427 C424 1.526 . S
C427 C428 1.396 . S
C427 C432 1.390 . S
C428 C422 1.465 . S
C428 C427 1.396 . S
C428 C429 1.399 . S
C429 H415 0.929 . S
C429 C428 1.399 . S
C429 C430 1.385 . S
C430 H416 0.931 . S
C430 C429 1.385 . S
C430 C431 1.389 . S
C431 C430 1.389 . S
C431 C432 1.387 . S
C432 H417 0.930 . S
C432 C427 1.390 . S
C432 C431 1.387 . S
H433 C445 0.930 . S
H434 C447 0.930 . S
H435 C448 0.930 . S
H436 C452 0.959 . S
H437 C452 0.959 . S
H438 C452 0.961 . S
H439 C453 0.960 . S
H440 C453 0.961 . S
H441 C453 0.959 . S
H442 C456 0.929 . S
H443 C457 0.931 . S
H444 C459 0.930 . S
C445 H433 0.930 . S
C445 C446 1.399 . S
C445 C450 1.399 . S
C446 C445 1.399 . S
C446 C447 1.376 . S
C447 H434 0.930 . S
C447 C446 1.376 . S
C447 C448 1.388 . S
C448 H435 0.930 . S
C448 C447 1.388 . S
C448 C449 1.390 . S
C449 C448 1.390 . S
C449 C450 1.394 . S
C449 C455 1.465 . S
C450 C445 1.399 . S
C450 C449 1.394 . S
C450 C451 1.516 . S
C451 C450 1.516 . S
C451 C452 1.502 . S
C451 C453 1.561 . S
C451 C454 1.526 . S
C452 H436 0.959 . S
C452 H437 0.959 . S
C452 H438 0.961 . S
C452 C451 1.502 . S
C453 H439 0.960 . S
C453 H440 0.961 . S
C453 H441 0.959 . S
C453 C451 1.561 . S
C454 C451 1.526 . S
C454 C455 1.396 . S
C454 C459 1.390 . S
C455 C449 1.465 . S
C455 C454 1.396 . S
C455 C456 1.399 . S
C456 H442 0.929 . S
C456 C455 1.399 . S
C456 C457 1.385 . S
C457 H443 0.931 . S
C457 C456 1.385 . S
C457 C458 1.389 . S
C458 C457 1.389 . S
C458 C459 1.387 . S
C459 H444 0.930 . S
C459 C454 1.390 . S
C459 C458 1.387 . S
H460 C472 0.930 . S
H461 C474 0.930 . S
H462 C475 0.930 . S
H463 C479 0.959 . S
H464 C479 0.959 . S
H465 C479 0.961 . S
H466 C480 0.960 . S
H467 C480 0.961 . S
H468 C480 0.959 . S
H469 C483 0.929 . S
H470 C484 0.931 . S
H471 C486 0.930 . S
C472 H460 0.930 . S
C472 C473 1.399 . S
C472 C477 1.399 . S
C473 C472 1.399 . S
C473 C474 1.376 . S
C474 H461 0.930 . S
C474 C473 1.376 . S
C474 C475 1.388 . S
C475 H462 0.930 . S
C475 C474 1.388 . S
C475 C476 1.390 . S
C476 C475 1.390 . S
C476 C477 1.394 . S
C476 C482 1.465 . S
C477 C472 1.399 . S
C477 C476 1.394 . S
C477 C478 1.516 . S
C478 C477 1.516 . S
C478 C479 1.502 . S
C478 C480 1.561 . S
C478 C481 1.526 . S
C479 H463 0.959 . S
C479 H464 0.959 . S
C479 H465 0.961 . S
C479 C478 1.502 . S
C480 H466 0.960 . S
C480 H467 0.961 . S
C480 H468 0.959 . S
C480 C478 1.561 . S
C481 C478 1.526 . S
C481 C482 1.396 . S
C481 C486 1.390 . S
C482 C476 1.465 . S
C482 C481 1.396 . S
C482 C483 1.399 . S
C483 H469 0.929 . S
C483 C482 1.399 . S
C483 C484 1.385 . S
C484 H470 0.931 . S
C484 C483 1.385 . S
C484 C485 1.389 . S
C485 C484 1.389 . S
C485 C486 1.387 . S
C486 H471 0.930 . S
C486 C481 1.390 . S
C486 C485 1.387 . S
H487 C499 0.930 . S
H488 C501 0.930 . S
H489 C502 0.930 . S
H490 C506 0.959 . S
H491 C506 0.959 . S
H492 C506 0.961 . S
H493 C507 0.960 . S
H494 C507 0.961 . S
H495 C507 0.959 . S
H496 C510 0.929 . S
H497 C511 0.931 . S
H498 C513 0.930 . S
C499 H487 0.930 . S
C499 C500 1.399 . S
C499 C504 1.399 . S
C500 C499 1.399 . S
C500 C501 1.376 . S
C501 H488 0.930 . S
C501 C500 1.376 . S
C501 C502 1.388 . S
C502 H489 0.930 . S
C502 C501 1.388 . S
C502 C503 1.390 . S
C503 C502 1.390 . S
C503 C504 1.394 . S
C503 C509 1.465 . S
C504 C499 1.399 . S
C504 C503 1.394 . S
C504 C505 1.516 . S
C505 C504 1.516 . S
C505 C506 1.502 . S
C505 C507 1.561 . S
C505 C508 1.526 . S
C506 H490 0.959 . S
C506 H491 0.959 . S
C506 H492 0.961 . S
C506 C505 1.502 . S
C507 H493 0.960 . S
C507 H494 0.961 . S
C507 H495 0.959 . S
C507 C505 1.561 . S
C508 C505 1.526 . S
C508 C509 1.396 . S
C508 C513 1.390 . S
C509 C503 1.465 . S
C509 C508 1.396 . S
C509 C510 1.399 . S
C510 H496 0.929 . S
C510 C509 1.399 . S
C510 C511 1.385 . S
C511 H497 0.931 . S
C511 C510 1.385 . S
C511 C512 1.389 . S
C512 C511 1.389 . S
C512 C513 1.387 . S
C513 H498 0.930 . S
C513 C508 1.390 . S
C513 C512 1.387 . S
H514 C526 0.930 . S
H515 C528 0.930 . S
H516 C529 0.930 . S
H517 C533 0.959 . S
H518 C533 0.959 . S
H519 C533 0.961 . S
H520 C534 0.960 . S
H521 C534 0.961 . S
H522 C534 0.959 . S
H523 C537 0.929 . S
H524 C538 0.931 . S
H525 C540 0.930 . S
C526 H514 0.930 . S
C526 C527 1.399 . S
C526 C531 1.399 . S
C527 C526 1.399 . S
C527 C528 1.376 . S
C528 H515 0.930 . S
C528 C527 1.376 . S
C528 C529 1.388 . S
C529 H516 0.930 . S
C529 C528 1.388 . S
C529 C530 1.390 . S
C530 C529 1.390 . S
C530 C531 1.394 . S
C530 C536 1.465 . S
C531 C526 1.399 . S
C531 C530 1.394 . S
C531 C532 1.516 . S
C532 C531 1.516 . S
C532 C533 1.502 . S
C532 C534 1.561 . S
C532 C535 1.526 . S
C533 H517 0.959 . S
C533 H518 0.959 . S
C533 H519 0.961 . S
C533 C532 1.502 . S
C534 H520 0.960 . S
C534 H521 0.961 . S
C534 H522 0.959 . S
C534 C532 1.561 . S
C535 C532 1.526 . S
C535 C536 1.396 . S
C535 C540 1.390 . S
C536 C530 1.465 . S
C536 C535 1.396 . S
C536 C537 1.399 . S
C537 H523 0.929 . S
C537 C536 1.399 . S
C537 C538 1.385 . S
C538 H524 0.931 . S
C538 C537 1.385 . S
C538 C539 1.389 . S
C539 C538 1.389 . S
C539 C540 1.387 . S
C540 H525 0.930 . S
C540 C535 1.390 . S
C540 C539 1.387 . S
H541 C553 0.930 . S
H542 C555 0.930 . S
H543 C556 0.930 . S
H544 C560 0.959 . S
H545 C560 0.959 . S
H546 C560 0.961 . S
H547 C561 0.960 . S
H548 C561 0.961 . S
H549 C561 0.959 . S
H550 C564 0.929 . S
H551 C565 0.931 . S
H552 C567 0.930 . S
C553 H541 0.930 . S
C553 C554 1.399 . S
C553 C558 1.399 . S
C554 C553 1.399 . S
C554 C555 1.376 . S
C555 H542 0.930 . S
C555 C554 1.376 . S
C555 C556 1.388 . S
C556 H543 0.930 . S
C556 C555 1.388 . S
C556 C557 1.390 . S
C557 C556 1.390 . S
C557 C558 1.394 . S
C557 C563 1.465 . S
C558 C553 1.399 . S
C558 C557 1.394 . S
C558 C559 1.516 . S
C559 C558 1.516 . S
C559 C560 1.502 . S
C559 C561 1.561 . S
C559 C562 1.526 . S
C560 H544 0.959 . S
C560 H545 0.959 . S
C560 H546 0.961 . S
C560 C559 1.502 . S
C561 H547 0.960 . S
C561 H548 0.961 . S
C561 H549 0.959 . S
C561 C559 1.561 . S
C562 C559 1.526 . S
C562 C563 1.396 . S
C562 C567 1.390 . S
C563 C557 1.465 . S
C563 C562 1.396 . S
C563 C564 1.399 . S
C564 H550 0.929 . S
C564 C563 1.399 . S
C564 C565 1.385 . S
C565 H551 0.931 . S
C565 C564 1.385 . S
C565 C566 1.389 . S
C566 C565 1.389 . S
C566 C567 1.387 . S
C567 H552 0.930 . S
C567 C562 1.390 . S
C567 C566 1.387 . S
H568 C580 0.930 . S
H569 C582 0.930 . S
H570 C583 0.930 . S
H571 C587 0.959 . S
H572 C587 0.959 . S
H573 C587 0.961 . S
H574 C588 0.960 . S
H575 C588 0.961 . S
H576 C588 0.959 . S
H577 C591 0.929 . S
H578 C592 0.931 . S
H579 C594 0.930 . S
C580 H568 0.930 . S
C580 C581 1.399 . S
C580 C585 1.399 . S
C581 C580 1.399 . S
C581 C582 1.376 . S
C582 H569 0.930 . S
C582 C581 1.376 . S
C582 C583 1.388 . S
C583 H570 0.930 . S
C583 C582 1.388 . S
C583 C584 1.390 . S
C584 C583 1.390 . S
C584 C585 1.394 . S
C584 C590 1.465 . S
C585 C580 1.399 . S
C585 C584 1.394 . S
C585 C586 1.516 . S
C586 C585 1.516 . S
C586 C587 1.502 . S
C586 C588 1.561 . S
C586 C589 1.526 . S
C587 H571 0.959 . S
C587 H572 0.959 . S
C587 H573 0.961 . S
C587 C586 1.502 . S
C588 H574 0.960 . S
C588 H575 0.961 . S
C588 H576 0.959 . S
C588 C586 1.561 . S
C589 C586 1.526 . S
C589 C590 1.396 . S
C589 C594 1.390 . S
C590 C584 1.465 . S
C590 C589 1.396 . S
C590 C591 1.399 . S
C591 H577 0.929 . S
C591 C590 1.399 . S
C591 C592 1.385 . S
C592 H578 0.931 . S
C592 C591 1.385 . S
C592 C593 1.389 . S
C593 C592 1.389 . S
C593 C594 1.387 . S
C594 H579 0.930 . S
C594 C589 1.390 . S
C594 C593 1.387 . S
H595 C607 0.930 . S
H596 C609 0.930 . S
H597 C610 0.930 . S
H598 C614 0.959 . S
H599 C614 0.959 . S
H600 C614 0.961 . S
H601 C615 0.960 . S
H602 C615 0.961 . S
H603 C615 0.959 . S
H604 C618 0.929 . S
H605 C619 0.931 . S
H606 C621 0.930 . S
C607 H595 0.930 . S
C607 C608 1.399 . S
C607 C612 1.399 . S
C608 C607 1.399 . S
C608 C609 1.376 . S
C609 H596 0.930 . S
C609 C608 1.376 . S
C609 C610 1.388 . S
C610 H597 0.930 . S
C610 C609 1.388 . S
C610 C611 1.390 . S
C611 C610 1.390 . S
C611 C612 1.394 . S
C611 C617 1.465 . S
C612 C607 1.399 . S
C612 C611 1.394 . S
C612 C613 1.516 . S
C613 C612 1.516 . S
C613 C614 1.502 . S
C613 C615 1.561 . S
C613 C616 1.526 . S
C614 H598 0.959 . S
C614 H599 0.959 . S
C614 H600 0.961 . S
C614 C613 1.502 . S
C615 H601 0.960 . S
C615 H602 0.961 . S
C615 H603 0.959 . S
C615 C613 1.561 . S
C616 C613 1.526 . S
C616 C617 1.396 . S
C616 C621 1.390 . S
C617 C611 1.465 . S
C617 C616 1.396 . S
C617 C618 1.399 . S
C618 H604 0.929 . S
C618 C617 1.399 . S
C618 C619 1.385 . S
C619 H605 0.931 . S
C619 C618 1.385 . S
C619 C620 1.389 . S
C620 C619 1.389 . S
C620 C621 1.387 . S
C621 H606 0.930 . S
C621 C616 1.390 . S
C621 C620 1.387 . S
H622 C634 0.930 . S
H623 C636 0.930 . S
H624 C637 0.930 . S
H625 C641 0.959 . S
H626 C641 0.959 . S
H627 C641 0.961 . S
H628 C642 0.960 . S
H629 C642 0.961 . S
H630 C642 0.959 . S
H631 C645 0.929 . S
H632 C646 0.931 . S
H633 C648 0.930 . S
C634 H622 0.930 . S
C634 C635 1.399 . S
C634 C639 1.399 . S
C635 C634 1.399 . S
C635 C636 1.376 . S
C636 H623 0.930 . S
C636 C635 1.376 . S
C636 C637 1.388 . S
C637 H624 0.930 . S
C637 C636 1.388 . S
C637 C638 1.390 . S
C638 C637 1.390 . S
C638 C639 1.394 . S
C638 C644 1.465 . S
C639 C634 1.399 . S
C639 C638 1.394 . S
C639 C640 1.516 . S
C640 C639 1.516 . S
C640 C641 1.502 . S
C640 C642 1.561 . S
C640 C643 1.526 . S
C641 H625 0.959 . S
C641 H626 0.959 . S
C641 H627 0.961 . S
C641 C640 1.502 . S
C642 H628 0.960 . S
C642 H629 0.961 . S
C642 H630 0.959 . S
C642 C640 1.561 . S
C643 C640 1.526 . S
C643 C644 1.396 . S
C643 C648 1.390 . S
C644 C638 1.465 . S
C644 C643 1.396 . S
C644 C645 1.399 . S
C645 H631 0.929 . S
C645 C644 1.399 . S
C645 C646 1.385 . S
C646 H632 0.931 . S
C646 C645 1.385 . S
C646 C647 1.389 . S
C647 C646 1.389 . S
C647 C648 1.387 . S
C648 H633 0.930 . S
C648 C643 1.390 . S
C648 C647 1.387 . S
H649 C661 0.930 . S
H650 C663 0.930 . S
H651 C664 0.930 . S
H652 C668 0.959 . S
H653 C668 0.959 . S
H654 C668 0.961 . S
H655 C669 0.960 . S
H656 C669 0.961 . S
H657 C669 0.959 . S
H658 C672 0.929 . S
H659 C673 0.931 . S
H660 C675 0.930 . S
C661 H649 0.930 . S
C661 C662 1.399 . S
C661 C666 1.399 . S
C662 C661 1.399 . S
C662 C663 1.376 . S
C663 H650 0.930 . S
C663 C662 1.376 . S
C663 C664 1.388 . S
C664 H651 0.930 . S
C664 C663 1.388 . S
C664 C665 1.390 . S
C665 C664 1.390 . S
C665 C666 1.394 . S
C665 C671 1.465 . S
C666 C661 1.399 . S
C666 C665 1.394 . S
C666 C667 1.516 . S
C667 C666 1.516 . S
C667 C668 1.502 . S
C667 C669 1.561 . S
C667 C670 1.526 . S
C668 H652 0.959 . S
C668 H653 0.959 . S
C668 H654 0.961 . S
C668 C667 1.502 . S
C669 H655 0.960 . S
C669 H656 0.961 . S
C669 H657 0.959 . S
C669 C667 1.561 . S
C670 C667 1.526 . S
C670 C671 1.396 . S
C670 C675 1.390 . S
C671 C665 1.465 . S
C671 C670 1.396 . S
C671 C672 1.399 . S
C672 H658 0.929 . S
C672 C671 1.399 . S
C672 C673 1.385 . S
C673 H659 0.931 . S
C673 C672 1.385 . S
C673 C674 1.389 . S
C674 C673 1.389 . S
C674 C675 1.387 . S
C675 H660 0.930 . S
C675 C670 1.390 . S
C675 C674 1.387 . S
H676 C688 0.930 . S
H677 C690 0.930 . S
H678 C691 0.930 . S
H679 C695 0.959 . S
H680 C695 0.959 . S
H681 C695 0.961 . S
H682 C696 0.960 . S
H683 C696 0.961 . S
H684 C696 0.959 . S
H685 C699 0.929 . S
H686 C700 0.931 . S
H687 C702 0.930 . S
C688 H676 0.930 . S
C688 C689 1.399 . S
C688 C693 1.399 . S
C689 C688 1.399 . S
C689 C690 1.376 . S
C690 H677 0.930 . S
C690 C689 1.376 . S
C690 C691 1.388 . S
C691 H678 0.930 . S
C691 C690 1.388 . S
C691 C692 1.390 . S
C692 C691 1.390 . S
C692 C693 1.394 . S
C692 C698 1.465 . S
C693 C688 1.399 . S
C693 C692 1.394 . S
C693 C694 1.516 . S
C694 C693 1.516 . S
C694 C695 1.502 . S
C694 C696 1.561 . S
C694 C697 1.526 . S
C695 H679 0.959 . S
C695 H680 0.959 . S
C695 H681 0.961 . S
C695 C694 1.502 . S
C696 H682 0.960 . S
C696 H683 0.961 . S
C696 H684 0.959 . S
C696 C694 1.561 . S
C697 C694 1.526 . S
C697 C698 1.396 . S
C697 C702 1.390 . S
C698 C692 1.465 . S
C698 C697 1.396 . S
C698 C699 1.399 . S
C699 H685 0.929 . S
C699 C698 1.399 . S
C699 C700 1.385 . S
C700 H686 0.931 . S
C700 C699 1.385 . S
C700 C701 1.389 . S
C701 C700 1.389 . S
C701 C702 1.387 . S
C702 H687 0.930 . S
C702 C697 1.390 . S
C702 C701 1.387 . S
H703 C715 0.930 . S
H704 C717 0.930 . S
H705 C718 0.930 . S
H706 C722 0.959 . S
H707 C722 0.959 . S
H708 C722 0.961 . S
H709 C723 0.960 . S
H710 C723 0.961 . S
H711 C723 0.959 . S
H712 C726 0.929 . S
H713 C727 0.931 . S
H714 C729 0.930 . S
C715 H703 0.930 . S
C715 C716 1.399 . S
C715 C720 1.399 . S
C716 C715 1.399 . S
C716 C717 1.376 . S
C717 H704 0.930 . S
C717 C716 1.376 . S
C717 C718 1.388 . S
C718 H705 0.930 . S
C718 C717 1.388 . S
C718 C719 1.390 . S
C719 C718 1.390 . S
C719 C720 1.394 . S
C719 C725 1.465 . S
C720 C715 1.399 . S
C720 C719 1.394 . S
C720 C721 1.516 . S
C721 C720 1.516 . S
C721 C722 1.502 . S
C721 C723 1.561 . S
C721 C724 1.526 . S
C722 H706 0.959 . S
C722 H707 0.959 . S
C722 H708 0.961 . S
C722 C721 1.502 . S
C723 H709 0.960 . S
C723 H710 0.961 . S
C723 H711 0.959 . S
C723 C721 1.561 . S
C724 C721 1.526 . S
C724 C725 1.396 . S
C724 C729 1.390 . S
C725 C719 1.465 . S
C725 C724 1.396 . S
C725 C726 1.399 . S
C726 H712 0.929 . S
C726 C725 1.399 . S
C726 C727 1.385 . S
C727 H713 0.931 . S
C727 C726 1.385 . S
C727 C728 1.389 . S
C728 C727 1.389 . S
C728 C729 1.387 . S
C729 H714 0.930 . S
C729 C724 1.390 . S
C729 C728 1.387 . S
H730 C742 0.930 . S
H731 C744 0.930 . S
H732 C745 0.930 . S
H733 C749 0.959 . S
H734 C749 0.959 . S
H735 C749 0.961 . S
H736 C750 0.960 . S
H737 C750 0.961 . S
H738 C750 0.959 . S
H739 C753 0.929 . S
H740 C754 0.931 . S
H741 C756 0.930 . S
C742 H730 0.930 . S
C742 C743 1.399 . S
C742 C747 1.399 . S
C743 C742 1.399 . S
C743 C744 1.376 . S
C744 H731 0.930 . S
C744 C743 1.376 . S
C744 C745 1.388 . S
C745 H732 0.930 . S
C745 C744 1.388 . S
C745 C746 1.390 . S
C746 C745 1.390 . S
C746 C747 1.394 . S
C746 C752 1.465 . S
C747 C742 1.399 . S
C747 C746 1.394 . S
C747 C748 1.516 . S
C748 C747 1.516 . S
C748 C749 1.502 . S
C748 C750 1.561 . S
C748 C751 1.526 . S
C749 H733 0.959 . S
C749 H734 0.959 . S
C749 H735 0.961 . S
C749 C748 1.502 . S
C750 H736 0.960 . S
C750 H737 0.961 . S
C750 H738 0.959 . S
C750 C748 1.561 . S
C751 C748 1.526 . S
C751 C752 1.396 . S
C751 C756 1.390 . S
C752 C746 1.465 . S
C752 C751 1.396 . S
C752 C753 1.399 . S
C753 H739 0.929 . S
C753 C752 1.399 . S
C753 C754 1.385 . S
C754 H740 0.931 . S
C754 C753 1.385 . S
C754 C755 1.389 . S
C755 C754 1.389 . S
C755 C756 1.387 . S
C756 H741 0.930 . S
C756 C751 1.390 . S
C756 C755 1.387 . S
H757 C769 0.930 . S
H758 C771 0.930 . S
H759 C772 0.930 . S
H760 C776 0.959 . S
H761 C776 0.959 . S
H762 C776 0.961 . S
H763 C777 0.960 . S
H764 C777 0.961 . S
H765 C777 0.959 . S
H766 C780 0.929 . S
H767 C781 0.931 . S
H768 C783 0.930 . S
C769 H757 0.930 . S
C769 C770 1.399 . S
C769 C774 1.399 . S
C770 C769 1.399 . S
C770 C771 1.376 . S
C771 H758 0.930 . S
C771 C770 1.376 . S
C771 C772 1.388 . S
C772 H759 0.930 . S
C772 C771 1.388 . S
C772 C773 1.390 . S
C773 C772 1.390 . S
C773 C774 1.394 . S
C773 C779 1.465 . S
C774 C769 1.399 . S
C774 C773 1.394 . S
C774 C775 1.516 . S
C775 C774 1.516 . S
C775 C776 1.502 . S
C775 C777 1.561 . S
C775 C778 1.526 . S
C776 H760 0.959 . S
C776 H761 0.959 . S
C776 H762 0.961 . S
C776 C775 1.502 . S
C777 H763 0.960 . S
C777 H764 0.961 . S
C777 H765 0.959 . S
C777 C775 1.561 . S
C778 C775 1.526 . S
C778 C779 1.396 . S
C778 C783 1.390 . S
C779 C773 1.465 . S
C779 C778 1.396 . S
C779 C780 1.399 . S
C780 H766 0.929 . S
C780 C779 1.399 . S
C780 C781 1.385 . S
C781 H767 0.931 . S
C781 C780 1.385 . S
C781 C782 1.389 . S
C782 C781 1.389 . S
C782 C783 1.387 . S
C783 H768 0.930 . S
C783 C778 1.390 . S
C783 C782 1.387 . S
H784 C796 0.930 . S
H785 C798 0.930 . S
H786 C799 0.930 . S
H787 C803 0.959 . S
H788 C803 0.959 . S
H789 C803 0.961 . S
H790 C804 0.960 . S
H791 C804 0.961 . S
H792 C804 0.959 . S
H793 C807 0.929 . S
H794 C808 0.931 . S
H795 C810 0.930 . S
C796 H784 0.930 . S
C796 C797 1.399 . S
C796 C801 1.399 . S
C797 C796 1.399 . S
C797 C798 1.376 . S
C798 H785 0.930 . S
C798 C797 1.376 . S
C798 C799 1.388 . S
C799 H786 0.930 . S
C799 C798 1.388 . S
C799 C800 1.390 . S
C800 C799 1.390 . S
C800 C801 1.394 . S
C800 C806 1.465 . S
C801 C796 1.399 . S
C801 C800 1.394 . S
C801 C802 1.516 . S
C802 C801 1.516 . S
C802 C803 1.502 . S
C802 C804 1.561 . S
C802 C805 1.526 . S
C803 H787 0.959 . S
C803 H788 0.959 . S
C803 H789 0.961 . S
C803 C802 1.502 . S
C804 H790 0.960 . S
C804 H791 0.961 . S
C804 H792 0.959 . S
C804 C802 1.561 . S
C805 C802 1.526 . S
C805 C806 1.396 . S
C805 C810 1.390 . S
C806 C800 1.465 . S
C806 C805 1.396 . S
C806 C807 1.399 . S
C807 H793 0.929 . S
C807 C806 1.399 . S
C807 C808 1.385 . S
C808 H794 0.931 . S
C808 C807 1.385 . S
C808 C809 1.389 . S
C809 C808 1.389 . S
C809 C810 1.387 . S
C810 H795 0.930 . S
C810 C805 1.390 . S
C810 C809 1.387 . S
H811 C823 0.930 . S
H812 C825 0.930 . S
H813 C826 0.930 . S
H814 C830 0.959 . S
H815 C830 0.959 . S
H816 C830 0.961 . S
H817 C831 0.960 . S
H818 C831 0.961 . S
H819 C831 0.959 . S
H820 C834 0.929 . S
H821 C835 0.931 . S
H822 C837 0.930 . S
C823 H811 0.930 . S
C823 C824 1.399 . S
C823 C828 1.399 . S
C824 C823 1.399 . S
C824 C825 1.376 . S
C825 H812 0.930 . S
C825 C824 1.376 . S
C825 C826 1.388 . S
C826 H813 0.930 . S
C826 C825 1.388 . S
C826 C827 1.390 . S
C827 C826 1.390 . S
C827 C828 1.394 . S
C827 C833 1.465 . S
C828 C823 1.399 . S
C828 C827 1.394 . S
C828 C829 1.516 . S
C829 C828 1.516 . S
C829 C830 1.502 . S
C829 C831 1.561 . S
C829 C832 1.526 . S
C830 H814 0.959 . S
C830 H815 0.959 . S
C830 H816 0.961 . S
C830 C829 1.502 . S
C831 H817 0.960 . S
C831 H818 0.961 . S
C831 H819 0.959 . S
C831 C829 1.561 . S
C832 C829 1.526 . S
C832 C833 1.396 . S
C832 C837 1.390 . S
C833 C827 1.465 . S
C833 C832 1.396 . S
C833 C834 1.399 . S
C834 H820 0.929 . S
C834 C833 1.399 . S
C834 C835 1.385 . S
C835 H821 0.931 . S
C835 C834 1.385 . S
C835 C836 1.389 . S
C836 C835 1.389 . S
C836 C837 1.387 . S
C837 H822 0.930 . S
C837 C832 1.390 . S
C837 C836 1.387 . S
H838 C850 0.930 . S
H839 C852 0.930 . S
H840 C853 0.930 . S
H841 C857 0.959 . S
H842 C857 0.959 . S
H843 C857 0.961 . S
H844 C858 0.960 . S
H845 C858 0.961 . S
H846 C858 0.959 . S
H847 C861 0.929 . S
H848 C862 0.931 . S
H849 C864 0.930 . S
C850 H838 0.930 . S
C850 C851 1.399 . S
C850 C855 1.399 . S
C851 C850 1.399 . S
C851 C852 1.376 . S
C852 H839 0.930 . S
C852 C851 1.376 . S
C852 C853 1.388 . S
C853 H840 0.930 . S
C853 C852 1.388 . S
C853 C854 1.390 . S
C854 C853 1.390 . S
C854 C855 1.394 . S
C854 C860 1.465 . S
C855 C850 1.399 . S
C855 C854 1.394 . S
C855 C856 1.516 . S
C856 C855 1.516 . S
C856 C857 1.502 . S
C856 C858 1.561 . S
C856 C859 1.526 . S
C857 H841 0.959 . S
C857 H842 0.959 . S
C857 H843 0.961 . S
C857 C856 1.502 . S
C858 H844 0.960 . S
C858 H845 0.961 . S
C858 H846 0.959 . S
C858 C856 1.561 . S
C859 C856 1.526 . S
C859 C860 1.396 . S
C859 C864 1.390 . S
C860 C854 1.465 . S
C860 C859 1.396 . S
C860 C861 1.399 . S
C861 H847 0.929 . S
C861 C860 1.399 . S
C861 C862 1.385 . S
C862 H848 0.931 . S
C862 C861 1.385 . S
C862 C863 1.389 . S
C863 C862 1.389 . S
C863 C864 1.387 . S
C864 H849 0.930 . S
C864 C859 1.390 . S
C864 C863 1.387 . S
H865 C877 0.930 . S
H866 C879 0.930 . S
H867 C880 0.930 . S
H868 C884 0.959 . S
H869 C884 0.959 . S
H870 C884 0.961 . S
H871 C885 0.960 . S
H872 C885 0.961 . S
H873 C885 0.959 . S
H874 C888 0.929 . S
H875 C889 0.931 . S
H876 C891 0.930 . S
C877 H865 0.930 . S
C877 C878 1.399 . S
C877 C882 1.399 . S
C878 C877 1.399 . S
C878 C879 1.376 . S
C879 H866 0.930 . S
C879 C878 1.376 . S
C879 C880 1.388 . S
C880 H867 0.930 . S
C880 C879 1.388 . S
C880 C881 1.390 . S
C881 C880 1.390 . S
C881 C882 1.394 . S
C881 C887 1.465 . S
C882 C877 1.399 . S
C882 C881 1.394 . S
C882 C883 1.516 . S
C883 C882 1.516 . S
C883 C884 1.502 . S
C883 C885 1.561 . S
C883 C886 1.526 . S
C884 H868 0.959 . S
C884 H869 0.959 . S
C884 H870 0.961 . S
C884 C883 1.502 . S
C885 H871 0.960 . S
C885 H872 0.961 . S
C885 H873 0.959 . S
C885 C883 1.561 . S
C886 C883 1.526 . S
C886 C887 1.396 . S
C886 C891 1.390 . S
C887 C881 1.465 . S
C887 C886 1.396 . S
C887 C888 1.399 . S
C888 H874 0.929 . S
C888 C887 1.399 . S
C888 C889 1.385 . S
C889 H875 0.931 . S
C889 C888 1.385 . S
C889 C890 1.389 . S
C890 C889 1.389 . S
C890 C891 1.387 . S
C891 H876 0.930 . S
C891 C886 1.390 . S
C891 C890 1.387 . S
H892 C904 0.930 . S
H893 C906 0.930 . S
H894 C907 0.930 . S
H895 C911 0.959 . S
H896 C911 0.959 . S
H897 C911 0.961 . S
H898 C912 0.960 . S
H899 C912 0.961 . S
H900 C912 0.959 . S
H901 C915 0.929 . S
H902 C916 0.931 . S
H903 C918 0.930 . S
C904 H892 0.930 . S
C904 C905 1.399 . S
C904 C909 1.399 . S
C905 C904 1.399 . S
C905 C906 1.376 . S
C906 H893 0.930 . S
C906 C905 1.376 . S
C906 C907 1.388 . S
C907 H894 0.930 . S
C907 C906 1.388 . S
C907 C908 1.390 . S
C908 C907 1.390 . S
C908 C909 1.394 . S
C908 C914 1.465 . S
C909 C904 1.399 . S
C909 C908 1.394 . S
C909 C910 1.516 . S
C910 C909 1.516 . S
C910 C911 1.502 . S
C910 C912 1.561 . S
C910 C913 1.526 . S
C911 H895 0.959 . S
C911 H896 0.959 . S
C911 H897 0.961 . S
C911 C910 1.502 . S
C912 H898 0.960 . S
C912 H899 0.961 . S
C912 H900 0.959 . S
C912 C910 1.561 . S
C913 C910 1.526 . S
C913 C914 1.396 . S
C913 C918 1.390 . S
C914 C908 1.465 . S
C914 C913 1.396 . S
C914 C915 1.399 . S
C915 H901 0.929 . S
C915 C914 1.399 . S
C915 C916 1.385 . S
C916 H902 0.931 . S
C916 C915 1.385 . S
C916 C917 1.389 . S
C917 C916 1.389 . S
C917 C918 1.387 . S
C918 H903 0.930 . S
C918 C913 1.390 . S
C918 C917 1.387 . S
H919 C931 0.930 . S
H920 C933 0.935 . S
H921 C934 0.930 . S
H922 C938 0.959 . S
H923 C938 0.959 . S
H924 C938 0.961 . S
H925 C939 0.960 . S
H926 C939 0.961 . S
H927 C939 0.959 . S
H928 C942 0.929 . S
H929 C943 0.931 . S
H930 C945 0.930 . S
C931 H919 0.930 . S
C931 C932 1.399 . S
C931 C936 1.399 . S
C932 C931 1.399 . S
C932 C933 1.376 . S
C933 H920 0.935 . S
C933 C932 1.376 . S
C933 C934 1.388 . S
C934 H921 0.930 . S
C934 C933 1.388 . S
C934 C935 1.390 . S
C935 C934 1.390 . S
C935 C936 1.394 . S
C935 C941 1.465 . S
C936 C931 1.399 . S
C936 C935 1.394 . S
C936 C937 1.516 . S
C937 C936 1.516 . S
C937 C938 1.502 . S
C937 C939 1.561 . S
C937 C940 1.526 . S
C938 H922 0.959 . S
C938 H923 0.959 . S
C938 H924 0.961 . S
C938 C937 1.502 . S
C939 H925 0.960 . S
C939 H926 0.961 . S
C939 H927 0.959 . S
C939 C937 1.561 . S
C940 C937 1.526 . S
C940 C941 1.396 . S
C940 C945 1.390 . S
C941 C935 1.465 . S
C941 C940 1.396 . S
C941 C942 1.399 . S
C942 H928 0.929 . S
C942 C941 1.399 . S
C942 C943 1.385 . S
C943 H929 0.931 . S
C943 C942 1.385 . S
C943 C944 1.389 . S
C944 C943 1.389 . S
C944 C945 1.387 . S
C945 H930 0.930 . S
C945 C940 1.390 . S
C945 C944 1.387 . S
H946 C958 0.930 . S
H947 C960 0.930 . S
H948 C961 0.930 . S
H949 C965 0.959 . S
H950 C965 0.959 . S
H951 C965 0.961 . S
H952 C966 0.960 . S
H953 C966 0.961 . S
H954 C966 0.959 . S
H955 C969 0.929 . S
H956 C970 0.931 . S
H957 C972 0.930 . S
C958 H946 0.930 . S
C958 C959 1.399 . S
C958 C963 1.399 . S
C959 C958 1.399 . S
C959 C960 1.376 . S
C960 H947 0.930 . S
C960 C959 1.376 . S
C960 C961 1.388 . S
C961 H948 0.930 . S
C961 C960 1.388 . S
C961 C962 1.390 . S
C962 C961 1.390 . S
C962 C963 1.394 . S
C962 C968 1.465 . S
C963 C958 1.399 . S
C963 C962 1.394 . S
C963 C964 1.516 . S
C964 C963 1.516 . S
C964 C965 1.502 . S
C964 C966 1.561 . S
C964 C967 1.526 . S
C965 H949 0.959 . S
C965 H950 0.959 . S
C965 H951 0.961 . S
C965 C964 1.502 . S
C966 H952 0.960 . S
C966 H953 0.961 . S
C966 H954 0.959 . S
C966 C964 1.561 . S
C967 C964 1.526 . S
C967 C968 1.396 . S
C967 C972 1.390 . S
C968 C962 1.465 . S
C968 C967 1.396 . S
C968 C969 1.399 . S
C969 H955 0.929 . S
C969 C968 1.399 . S
C969 C970 1.385 . S
C970 H956 0.931 . S
C970 C969 1.385 . S
C970 C971 1.389 . S
C971 C970 1.389 . S
C971 C972 1.387 . S
C972 H957 0.930 . S
C972 C967 1.390 . S
C972 C971 1.387 . S
H973 C985 0.930 . S
H974 C987 0.930 . S
H975 C988 0.930 . S
H976 C992 0.959 . S
H977 C992 0.959 . S
H978 C992 0.961 . S
H979 C993 0.960 . S
H980 C993 0.961 . S
H981 C993 0.959 . S
H982 C996 0.929 . S
H983 C997 0.931 1_655 S
H984 C999 0.930 . S
C985 H973 0.930 . S
C985 C986 1.399 . S
C985 C990 1.399 . S
C986 C985 1.399 . S
C986 C987 1.376 . S
C987 H974 0.930 . S
C987 C986 1.376 . S
C987 C988 1.388 . S
C988 H975 0.930 . S
C988 C987 1.388 . S
C988 C989 1.390 . S
C989 C988 1.390 . S
C989 C990 1.394 . S
C989 C995 1.465 . S
C990 C985 1.399 . S
C990 C989 1.394 . S
C990 C991 1.516 . S
C991 C990 1.516 . S
C991 C992 1.502 . S
C991 C993 1.561 . S
C991 C994 1.526 . S
C992 H976 0.959 . S
C992 H977 0.959 . S
C992 H978 0.961 . S
C992 C991 1.502 . S
C993 H979 0.960 . S
C993 H980 0.961 . S
C993 H981 0.959 . S
C993 C991 1.561 . S
C994 C991 1.526 . S
C994 C995 1.396 . S
C994 C999 1.390 . S
C995 C989 1.465 . S
C995 C994 1.396 . S
C995 C996 1.399 . S
C996 H982 0.929 . S
C996 C995 1.399 . S
C996 C997 1.385 . S
C997 H983 0.931 1_455 S
C997 C996 1.385 . S
C997 C998 1.389 . S
C998 C997 1.389 . S
C998 C999 1.387 . S
C999 H984 0.930 . S
C999 C994 1.390 . S
C999 C998 1.387 . S
H1000 C1012 0.930 . S
H1001 C1014 0.930 . S
H1002 C1015 0.930 . S
H1003 C1019 0.959 . S
H1004 C1019 0.959 . S
H1005 C1019 0.961 . S
H1006 C1020 0.960 . S
H1007 C1020 0.961 . S
H1008 C1020 0.959 . S
H1009 C1023 0.929 . S
H1010 C1024 0.931 . S
H1011 C1026 0.930 . S
C1012 H1000 0.930 . S
C1012 C1013 1.399 . S
C1012 C1017 1.399 . S
C1013 C1012 1.399 . S
C1013 C1014 1.376 . S
C1014 H1001 0.930 . S
C1014 C1013 1.376 . S
C1014 C1015 1.388 . S
C1015 H1002 0.930 . S
C1015 C1014 1.388 . S
C1015 C1016 1.390 . S
C1016 C1015 1.390 . S
C1016 C1017 1.394 . S
C1016 C1022 1.465 . S
C1017 C1012 1.399 . S
C1017 C1016 1.394 . S
C1017 C1018 1.516 . S
C1018 C1017 1.516 . S
C1018 C1019 1.502 . S
C1018 C1020 1.561 . S
C1018 C1021 1.526 . S
C1019 H1003 0.959 . S
C1019 H1004 0.959 . S
C1019 H1005 0.961 . S
C1019 C1018 1.502 . S
C1020 H1006 0.960 . S
C1020 H1007 0.961 . S
C1020 H1008 0.959 . S
C1020 C1018 1.561 . S
C1021 C1018 1.526 . S
C1021 C1022 1.396 . S
C1021 C1026 1.390 . S
C1022 C1016 1.465 . S
C1022 C1021 1.396 . S
C1022 C1023 1.399 . S
C1023 H1009 0.929 . S
C1023 C1022 1.399 . S
C1023 C1024 1.385 . S
C1024 H1010 0.931 . S
C1024 C1023 1.385 . S
C1024 C1025 1.389 . S
C1025 C1024 1.389 . S
C1025 C1026 1.387 . S
C1026 H1011 0.930 . S
C1026 C1021 1.390 . S
C1026 C1025 1.387 . S
H1027 C1039 0.930 . S
H1028 C1041 0.930 . S
H1029 C1042 0.930 . S
H1030 C1046 0.959 . S
H1031 C1046 0.959 . S
H1032 C1046 0.961 . S
H1033 C1047 0.960 . S
H1034 C1047 0.961 . S
H1035 C1047 0.959 . S
H1036 C1050 0.929 . S
H1037 C1051 0.931 . S
H1038 C1053 0.930 . S
C1039 H1027 0.930 . S
C1039 C1040 1.399 . S
C1039 C1044 1.399 . S
C1040 C1039 1.399 . S
C1040 C1041 1.376 . S
C1041 H1028 0.930 . S
C1041 C1040 1.376 . S
C1041 C1042 1.388 . S
C1042 H1029 0.930 . S
C1042 C1041 1.388 . S
C1042 C1043 1.390 . S
C1043 C1042 1.390 . S
C1043 C1044 1.394 . S
C1043 C1049 1.465 . S
C1044 C1039 1.399 . S
C1044 C1043 1.394 . S
C1044 C1045 1.516 . S
C1045 C1044 1.516 . S
C1045 C1046 1.502 . S
C1045 C1047 1.561 . S
C1045 C1048 1.526 . S
C1046 H1030 0.959 . S
C1046 H1031 0.959 . S
C1046 H1032 0.961 . S
C1046 C1045 1.502 . S
C1047 H1033 0.960 . S
C1047 H1034 0.961 . S
C1047 H1035 0.959 . S
C1047 C1045 1.561 . S
C1048 C1045 1.526 . S
C1048 C1049 1.396 . S
C1048 C1053 1.390 . S
C1049 C1043 1.465 . S
C1049 C1048 1.396 . S
C1049 C1050 1.399 . S
C1050 H1036 0.929 . S
C1050 C1049 1.399 . S
C1050 C1051 1.385 . S
C1051 H1037 0.931 . S
C1051 C1050 1.385 . S
C1051 C1052 1.389 . S
C1052 C1051 1.389 . S
C1052 C1053 1.387 . S
C1053 H1038 0.930 . S
C1053 C1048 1.390 . S
C1053 C1052 1.387 . S
H1054 C1066 0.930 . S
H1055 C1068 0.930 . S
H1056 C1069 0.930 . S
H1057 C1073 0.959 . S
H1058 C1073 0.959 . S
H1059 C1073 0.961 . S
H1060 C1074 0.960 . S
H1061 C1074 0.961 . S
H1062 C1074 0.959 . S
H1063 C1077 0.929 . S
H1064 C1078 0.931 . S
H1065 C1080 0.930 . S
C1066 H1054 0.930 . S
C1066 C1067 1.399 . S
C1066 C1071 1.399 . S
C1067 C1066 1.399 . S
C1067 C1068 1.376 . S
C1068 H1055 0.930 . S
C1068 C1067 1.376 . S
C1068 C1069 1.388 . S
C1069 H1056 0.930 . S
C1069 C1068 1.388 . S
C1069 C1070 1.390 . S
C1070 C1069 1.390 . S
C1070 C1071 1.394 . S
C1070 C1076 1.465 . S
C1071 C1066 1.399 . S
C1071 C1070 1.394 . S
C1071 C1072 1.516 . S
C1072 C1071 1.516 . S
C1072 C1073 1.502 . S
C1072 C1074 1.561 . S
C1072 C1075 1.526 . S
C1073 H1057 0.959 . S
C1073 H1058 0.959 . S
C1073 H1059 0.961 . S
C1073 C1072 1.502 . S
C1074 H1060 0.960 . S
C1074 H1061 0.961 . S
C1074 H1062 0.959 . S
C1074 C1072 1.561 . S
C1075 C1072 1.526 . S
C1075 C1076 1.396 . S
C1075 C1080 1.390 . S
C1076 C1070 1.465 . S
C1076 C1075 1.396 . S
C1076 C1077 1.399 . S
C1077 H1063 0.929 . S
C1077 C1076 1.399 . S
C1077 C1078 1.385 . S
C1078 H1064 0.931 . S
C1078 C1077 1.385 . S
C1078 C1079 1.389 . S
C1079 C1078 1.389 . S
C1079 C1080 1.387 . S
C1080 H1065 0.930 . S
C1080 C1075 1.390 . S
C1080 C1079 1.387 . S
H1081 C1093 0.930 . S
H1082 C1095 0.930 . S
H1083 C1096 0.930 . S
H1084 C1100 0.959 . S
H1085 C1100 0.959 . S
H1086 C1100 0.961 . S
H1087 C1101 0.960 . S
H1088 C1101 0.961 . S
H1089 C1101 0.959 . S
H1090 C1104 0.929 . S
H1091 C1105 0.931 . S
H1092 C1107 0.930 . S
C1093 H1081 0.930 . S
C1093 C1094 1.399 . S
C1093 C1098 1.399 . S
C1094 C1093 1.399 . S
C1094 C1095 1.376 . S
C1095 H1082 0.930 . S
C1095 C1094 1.376 . S
C1095 C1096 1.388 . S
C1096 H1083 0.930 . S
C1096 C1095 1.388 . S
C1096 C1097 1.390 . S
C1097 C1096 1.390 . S
C1097 C1098 1.394 . S
C1097 C1103 1.465 . S
C1098 C1093 1.399 . S
C1098 C1097 1.394 . S
C1098 C1099 1.516 . S
C1099 C1098 1.516 . S
C1099 C1100 1.502 . S
C1099 C1101 1.561 . S
C1099 C1102 1.526 . S
C1100 H1084 0.959 . S
C1100 H1085 0.959 . S
C1100 H1086 0.961 . S
C1100 C1099 1.502 . S
C1101 H1087 0.960 . S
C1101 H1088 0.961 . S
C1101 H1089 0.959 . S
C1101 C1099 1.561 . S
C1102 C1099 1.526 . S
C1102 C1103 1.396 . S
C1102 C1107 1.390 . S
C1103 C1097 1.465 . S
C1103 C1102 1.396 . S
C1103 C1104 1.399 . S
C1104 H1090 0.929 . S
C1104 C1103 1.399 . S
C1104 C1105 1.385 . S
C1105 H1091 0.931 . S
C1105 C1104 1.385 . S
C1105 C1106 1.389 . S
C1106 C1105 1.389 . S
C1106 C1107 1.387 . S
C1107 H1092 0.930 . S
C1107 C1102 1.390 . S
C1107 C1106 1.387 . S
H1108 C1120 0.930 . S
H1109 C1122 0.930 . S
H1110 C1123 0.930 . S
H1111 C1127 0.959 . S
H1112 C1127 0.959 . S
H1113 C1127 0.961 . S
H1114 C1128 0.960 . S
H1115 C1128 0.961 . S
H1116 C1128 0.959 . S
H1117 C1131 0.929 . S
H1118 C1132 0.931 . S
H1119 C1134 0.930 . S
C1120 H1108 0.930 . S
C1120 C1121 1.399 . S
C1120 C1125 1.399 . S
C1121 C1120 1.399 . S
C1121 C1122 1.376 . S
C1122 H1109 0.930 . S
C1122 C1121 1.376 . S
C1122 C1123 1.388 . S
C1123 H1110 0.930 . S
C1123 C1122 1.388 . S
C1123 C1124 1.390 . S
C1124 C1123 1.390 . S
C1124 C1125 1.394 . S
C1124 C1130 1.465 . S
C1125 C1120 1.399 . S
C1125 C1124 1.394 . S
C1125 C1126 1.516 . S
C1126 C1125 1.516 . S
C1126 C1127 1.502 . S
C1126 C1128 1.561 . S
C1126 C1129 1.526 . S
C1127 H1111 0.959 . S
C1127 H1112 0.959 . S
C1127 H1113 0.961 . S
C1127 C1126 1.502 . S
C1128 H1114 0.960 . S
C1128 H1115 0.961 . S
C1128 H1116 0.959 . S
C1128 C1126 1.561 . S
C1129 C1126 1.526 . S
C1129 C1130 1.396 . S
C1129 C1134 1.390 . S
C1130 C1124 1.465 . S
C1130 C1129 1.396 . S
C1130 C1131 1.399 . S
C1131 H1117 0.929 . S
C1131 C1130 1.399 . S
C1131 C1132 1.385 . S
C1132 H1118 0.931 . S
C1132 C1131 1.385 . S
C1132 C1133 1.389 . S
C1133 C1132 1.389 . S
C1133 C1134 1.387 . S
C1134 H1119 0.930 . S
C1134 C1129 1.390 . S
C1134 C1133 1.387 . S
H1135 C1147 0.930 . S
H1136 C1149 0.930 . S
H1137 C1150 0.930 . S
H1138 C1154 0.959 . S
H1139 C1154 0.959 . S
H1140 C1154 0.961 . S
H1141 C1155 0.960 . S
H1142 C1155 0.961 . S
H1143 C1155 0.959 . S
H1144 C1158 0.929 . S
H1145 C1159 0.931 . S
H1146 C1161 0.930 . S
C1147 H1135 0.930 . S
C1147 C1148 1.399 . S
C1147 C1152 1.399 . S
C1148 C1147 1.399 . S
C1148 C1149 1.376 . S
C1149 H1136 0.930 . S
C1149 C1148 1.376 . S
C1149 C1150 1.388 . S
C1150 H1137 0.930 . S
C1150 C1149 1.388 . S
C1150 C1151 1.390 . S
C1151 C1150 1.390 . S
C1151 C1152 1.394 . S
C1151 C1157 1.465 . S
C1152 C1147 1.399 . S
C1152 C1151 1.394 . S
C1152 C1153 1.516 . S
C1153 C1152 1.516 . S
C1153 C1154 1.502 . S
C1153 C1155 1.561 . S
C1153 C1156 1.526 . S
C1154 H1138 0.959 . S
C1154 H1139 0.959 . S
C1154 H1140 0.961 . S
C1154 C1153 1.502 . S
C1155 H1141 0.960 . S
C1155 H1142 0.961 . S
C1155 H1143 0.959 . S
C1155 C1153 1.561 . S
C1156 C1153 1.526 . S
C1156 C1157 1.396 . S
C1156 C1161 1.390 . S
C1157 C1151 1.465 . S
C1157 C1156 1.396 . S
C1157 C1158 1.399 . S
C1158 H1144 0.929 . S
C1158 C1157 1.399 . S
C1158 C1159 1.385 . S
C1159 H1145 0.931 . S
C1159 C1158 1.385 . S
C1159 C1160 1.389 . S
C1160 C1159 1.389 . S
C1160 C1161 1.387 . S
C1161 H1146 0.930 . S
C1161 C1156 1.390 . S
C1161 C1160 1.387 . S
H1162 C1174 0.930 . S
H1163 C1176 0.930 . S
H1164 C1177 0.930 . S
H1165 C1181 0.959 . S
H1166 C1181 0.959 . S
H1167 C1181 0.961 . S
H1168 C1182 0.960 . S
H1169 C1182 0.961 . S
H1170 C1182 0.959 . S
H1171 C1185 0.929 . S
H1172 C1186 0.931 . S
H1173 C1188 0.930 . S
C1174 H1162 0.930 . S
C1174 C1175 1.399 . S
C1174 C1179 1.399 . S
C1175 C1174 1.399 . S
C1175 C1176 1.376 . S
C1176 H1163 0.930 . S
C1176 C1175 1.376 . S
C1176 C1177 1.388 . S
C1177 H1164 0.930 . S
C1177 C1176 1.388 . S
C1177 C1178 1.390 . S
C1178 C1177 1.390 . S
C1178 C1179 1.394 . S
C1178 C1184 1.465 . S
C1179 C1174 1.399 . S
C1179 C1178 1.394 . S
C1179 C1180 1.516 . S
C1180 C1179 1.516 . S
C1180 C1181 1.502 . S
C1180 C1182 1.561 . S
C1180 C1183 1.526 . S
C1181 H1165 0.959 . S
C1181 H1166 0.959 . S
C1181 H1167 0.961 . S
C1181 C1180 1.502 . S
C1182 H1168 0.960 . S
C1182 H1169 0.961 . S
C1182 H1170 0.959 . S
C1182 C1180 1.561 . S
C1183 C1180 1.526 . S
C1183 C1184 1.396 . S
C1183 C1188 1.390 . S
C1184 C1178 1.465 . S
C1184 C1183 1.396 . S
C1184 C1185 1.399 . S
C1185 H1171 0.929 . S
C1185 C1184 1.399 . S
C1185 C1186 1.385 . S
C1186 H1172 0.931 . S
C1186 C1185 1.385 . S
C1186 C1187 1.389 . S
C1187 C1186 1.389 . S
C1187 C1188 1.387 . S
C1188 H1173 0.930 . S
C1188 C1183 1.390 . S
C1188 C1187 1.387 . S
H1189 C1201 0.930 . S
H1190 C1203 0.930 . S
H1191 C1204 0.930 . S
H1192 C1208 0.959 . S
H1193 C1208 0.959 . S
H1194 C1208 0.961 . S
H1195 C1209 0.960 . S
H1196 C1209 0.961 . S
H1197 C1209 0.959 . S
H1198 C1212 0.929 . S
H1199 C1213 0.931 . S
H1200 C1215 0.930 . S
C1201 H1189 0.930 . S
C1201 C1202 1.399 . S
C1201 C1206 1.399 . S
C1202 C1201 1.399 . S
C1202 C1203 1.376 . S
C1203 H1190 0.930 . S
C1203 C1202 1.376 . S
C1203 C1204 1.388 . S
C1204 H1191 0.930 . S
C1204 C1203 1.388 . S
C1204 C1205 1.390 . S
C1205 C1204 1.390 . S
C1205 C1206 1.394 . S
C1205 C1211 1.465 . S
C1206 C1201 1.399 . S
C1206 C1205 1.394 . S
C1206 C1207 1.516 . S
C1207 C1206 1.516 . S
C1207 C1208 1.502 . S
C1207 C1209 1.561 . S
C1207 C1210 1.526 . S
C1208 H1192 0.959 . S
C1208 H1193 0.959 . S
C1208 H1194 0.961 . S
C1208 C1207 1.502 . S
C1209 H1195 0.960 . S
C1209 H1196 0.961 . S
C1209 H1197 0.959 . S
C1209 C1207 1.561 . S
C1210 C1207 1.526 . S
C1210 C1211 1.396 . S
C1210 C1215 1.390 . S
C1211 C1205 1.465 . S
C1211 C1210 1.396 . S
C1211 C1212 1.399 . S
C1212 H1198 0.929 . S
C1212 C1211 1.399 . S
C1212 C1213 1.385 . S
C1213 H1199 0.931 . S
C1213 C1212 1.385 . S
C1213 C1214 1.389 . S
C1214 C1213 1.389 . S
C1214 C1215 1.387 . S
C1215 H1200 0.930 . S
C1215 C1210 1.390 . S
C1215 C1214 1.387 . S
H1216 C1228 0.930 . S
H1217 C1230 0.930 . S
H1218 C1231 0.930 . S
H1219 C1235 0.959 . S
H1220 C1235 0.959 . S
H1221 C1235 0.961 . S
H1222 C1236 0.960 . S
H1223 C1236 0.961 . S
H1224 C1236 0.959 . S
H1225 C1239 0.929 . S
H1226 C1240 0.931 . S
H1227 C1242 0.930 . S
C1228 H1216 0.930 . S
C1228 C1229 1.399 . S
C1228 C1233 1.399 . S
C1229 C1228 1.399 . S
C1229 C1230 1.376 . S
C1230 H1217 0.930 . S
C1230 C1229 1.376 . S
C1230 C1231 1.388 . S
C1231 H1218 0.930 . S
C1231 C1230 1.388 . S
C1231 C1232 1.390 . S
C1232 C1231 1.390 . S
C1232 C1233 1.394 . S
C1232 C1238 1.465 . S
C1233 C1228 1.399 . S
C1233 C1232 1.394 . S
C1233 C1234 1.516 . S
C1234 C1233 1.516 . S
C1234 C1235 1.502 . S
C1234 C1236 1.561 . S
C1234 C1237 1.526 . S
C1235 H1219 0.959 . S
C1235 H1220 0.959 . S
C1235 H1221 0.961 . S
C1235 C1234 1.502 . S
C1236 H1222 0.960 . S
C1236 H1223 0.961 . S
C1236 H1224 0.959 . S
C1236 C1234 1.561 . S
C1237 C1234 1.526 . S
C1237 C1238 1.396 . S
C1237 C1242 1.390 . S
C1238 C1232 1.465 . S
C1238 C1237 1.396 . S
C1238 C1239 1.399 . S
C1239 H1225 0.929 . S
C1239 C1238 1.399 . S
C1239 C1240 1.385 . S
C1240 H1226 0.931 . S
C1240 C1239 1.385 . S
C1240 C1241 1.389 . S
C1241 C1240 1.389 . S
C1241 C1242 1.387 . S
C1242 H1227 0.930 . S
C1242 C1237 1.390 . S
C1242 C1241 1.387 . S
H1243 C1255 0.930 . S
H1244 C1257 0.930 . S
H1245 C1258 0.930 . S
H1246 C1262 0.959 . S
H1247 C1262 0.959 . S
H1248 C1262 0.961 . S
H1249 C1263 0.960 . S
H1250 C1263 0.961 . S
H1251 C1263 0.959 . S
H1252 C1266 0.929 . S
H1253 C1267 0.931 . S
H1254 C1269 0.930 . S
C1255 H1243 0.930 . S
C1255 C1256 1.399 . S
C1255 C1260 1.399 . S
C1256 C1255 1.399 . S
C1256 C1257 1.376 . S
C1257 H1244 0.930 . S
C1257 C1256 1.376 . S
C1257 C1258 1.388 . S
C1258 H1245 0.930 . S
C1258 C1257 1.388 . S
C1258 C1259 1.390 . S
C1259 C1258 1.390 . S
C1259 C1260 1.394 . S
C1259 C1265 1.465 . S
C1260 C1255 1.399 . S
C1260 C1259 1.394 . S
C1260 C1261 1.516 . S
C1261 C1260 1.516 . S
C1261 C1262 1.502 . S
C1261 C1263 1.561 . S
C1261 C1264 1.526 . S
C1262 H1246 0.959 . S
C1262 H1247 0.959 . S
C1262 H1248 0.961 . S
C1262 C1261 1.502 . S
C1263 H1249 0.960 . S
C1263 H1250 0.961 . S
C1263 H1251 0.959 . S
C1263 C1261 1.561 . S
C1264 C1261 1.526 . S
C1264 C1265 1.396 . S
C1264 C1269 1.390 . S
C1265 C1259 1.465 . S
C1265 C1264 1.396 . S
C1265 C1266 1.399 . S
C1266 H1252 0.929 . S
C1266 C1265 1.399 . S
C1266 C1267 1.385 . S
C1267 H1253 0.931 . S
C1267 C1266 1.385 . S
C1267 C1268 1.389 . S
C1268 C1267 1.389 . S
C1268 C1269 1.387 . S
C1269 H1254 0.930 . S
C1269 C1264 1.390 . S
C1269 C1268 1.387 . S
H1270 C1282 0.930 . S
H1271 C1284 0.930 . S
H1272 C1285 0.930 . S
H1273 C1289 0.959 . S
H1274 C1289 0.959 . S
H1275 C1289 0.961 . S
H1276 C1290 0.960 . S
H1277 C1290 0.961 . S
H1278 C1290 0.959 . S
H1279 C1293 0.929 . S
H1280 C1294 0.931 . S
H1281 C1296 0.930 . S
C1282 H1270 0.930 . S
C1282 C1283 1.399 . S
C1282 C1287 1.399 . S
C1283 C1282 1.399 . S
C1283 C1284 1.376 . S
C1284 H1271 0.930 . S
C1284 C1283 1.376 . S
C1284 C1285 1.388 . S
C1285 H1272 0.930 . S
C1285 C1284 1.388 . S
C1285 C1286 1.390 . S
C1286 C1285 1.390 . S
C1286 C1287 1.394 . S
C1286 C1292 1.465 . S
C1287 C1282 1.399 . S
C1287 C1286 1.394 . S
C1287 C1288 1.516 . S
C1288 C1287 1.516 . S
C1288 C1289 1.502 . S
C1288 C1290 1.561 . S
C1288 C1291 1.526 . S
C1289 H1273 0.959 . S
C1289 H1274 0.959 . S
C1289 H1275 0.961 . S
C1289 C1288 1.502 . S
C1290 H1276 0.960 . S
C1290 H1277 0.961 . S
C1290 H1278 0.959 . S
C1290 C1288 1.561 . S
C1291 C1288 1.526 . S
C1291 C1292 1.396 . S
C1291 C1296 1.390 . S
C1292 C1286 1.465 . S
C1292 C1291 1.396 . S
C1292 C1293 1.399 . S
C1293 H1279 0.929 . S
C1293 C1292 1.399 . S
C1293 C1294 1.385 . S
C1294 H1280 0.931 . S
C1294 C1293 1.385 . S
C1294 C1295 1.389 . S
C1295 C1294 1.389 . S
C1295 C1296 1.387 . S
C1296 H1281 0.930 . S
C1296 C1291 1.390 . S
C1296 C1295 1.387 . S
H1297 C1309 0.930 . S
H1298 C1311 0.930 . S
H1299 C1312 0.930 . S
H1300 C1316 0.959 . S
H1301 C1316 0.959 . S
H1302 C1316 0.961 . S
H1303 C1317 0.960 . S
H1304 C1317 0.961 . S
H1305 C1317 0.959 . S
H1306 C1320 0.929 . S
H1307 C1321 0.931 . S
H1308 C1323 0.930 . S
C1309 H1297 0.930 . S
C1309 C1310 1.399 . S
C1309 C1314 1.399 . S
C1310 C1309 1.399 . S
C1310 C1311 1.376 . S
C1311 H1298 0.930 . S
C1311 C1310 1.376 . S
C1311 C1312 1.388 . S
C1312 H1299 0.930 . S
C1312 C1311 1.388 . S
C1312 C1313 1.390 . S
C1313 C1312 1.390 . S
C1313 C1314 1.394 . S
C1313 C1319 1.465 . S
C1314 C1309 1.399 . S
C1314 C1313 1.394 . S
C1314 C1315 1.516 . S
C1315 C1314 1.516 . S
C1315 C1316 1.502 . S
C1315 C1317 1.561 . S
C1315 C1318 1.526 . S
C1316 H1300 0.959 . S
C1316 H1301 0.959 . S
C1316 H1302 0.961 . S
C1316 C1315 1.502 . S
C1317 H1303 0.960 . S
C1317 H1304 0.961 . S
C1317 H1305 0.959 . S
C1317 C1315 1.561 . S
C1318 C1315 1.526 . S
C1318 C1319 1.396 . S
C1318 C1323 1.390 . S
C1319 C1313 1.465 . S
C1319 C1318 1.396 . S
C1319 C1320 1.399 . S
C1320 H1306 0.929 . S
C1320 C1319 1.399 . S
C1320 C1321 1.385 . S
C1321 H1307 0.931 . S
C1321 C1320 1.385 . S
C1321 C1322 1.389 . S
C1322 C1321 1.389 . S
C1322 C1323 1.387 . S
C1323 H1308 0.930 . S
C1323 C1318 1.390 . S
C1323 C1322 1.387 . S
H1324 C1336 0.930 . S
H1325 C1338 0.930 . S
H1326 C1339 0.930 . S
H1327 C1343 0.937 1_556 S
H1328 C1343 1.001 . S
H1329 C1343 0.935 1_556 S
H1330 C1344 0.960 . S
H1331 C1344 0.961 . S
H1332 C1344 0.959 . S
H1333 C1347 0.929 . S
H1334 C1348 0.931 . S
H1335 C1350 0.930 . S
C1336 H1324 0.930 . S
C1336 C1337 1.399 . S
C1336 C1341 1.399 . S
C1337 C1336 1.399 . S
C1337 C1338 1.376 . S
C1338 H1325 0.930 . S
C1338 C1337 1.376 . S
C1338 C1339 1.388 . S
C1339 H1326 0.930 . S
C1339 C1338 1.388 . S
C1339 C1340 1.390 . S
C1340 C1339 1.390 . S
C1340 C1341 1.394 . S
C1340 C1346 1.465 1_556 S
C1341 C1336 1.399 . S
C1341 C1340 1.394 . S
C1341 C1342 1.516 1_556 S
C1342 C1341 1.516 1_554 S
C1342 C1343 1.509 . S
C1342 C1344 1.561 . S
C1342 C1345 1.526 . S
C1343 H1327 0.937 1_554 S
C1343 H1328 1.001 . S
C1343 H1329 0.935 1_554 S
C1343 C1342 1.509 . S
C1344 H1330 0.960 . S
C1344 H1331 0.961 . S
C1344 H1332 0.959 . S
C1344 C1342 1.561 . S
C1345 C1342 1.526 . S
C1345 C1346 1.396 . S
C1345 C1350 1.390 . S
C1346 C1340 1.465 1_554 S
C1346 C1345 1.396 . S
C1346 C1347 1.399 . S
C1347 H1333 0.929 . S
C1347 C1346 1.399 . S
C1347 C1348 1.385 . S
C1348 H1334 0.931 . S
C1348 C1347 1.385 . S
C1348 C1349 1.389 . S
C1349 C1348 1.389 . S
C1349 C1350 1.387 . S
C1350 H1335 0.930 . S
C1350 C1345 1.390 . S
C1350 C1349 1.387 . S
H1351 C1363 0.930 . S
H1352 C1365 0.930 . S
H1353 C1366 0.930 . S
H1354 C1370 0.959 . S
H1355 C1370 0.959 . S
H1356 C1370 0.961 . S
H1357 C1371 0.960 . S
H1358 C1371 0.961 . S
H1359 C1371 0.959 . S
H1360 C1374 0.963 . S
H1361 C1375 0.931 . S
H1362 C1377 0.930 . S
C1363 H1351 0.930 . S
C1363 C1364 1.399 . S
C1363 C1368 1.399 . S
C1364 C1363 1.399 . S
C1364 C1365 1.376 . S
C1365 H1352 0.930 . S
C1365 C1364 1.376 . S
C1365 C1366 1.388 . S
C1366 H1353 0.930 . S
C1366 C1365 1.388 . S
C1366 C1367 1.390 . S
C1367 C1366 1.390 . S
C1367 C1368 1.394 . S
C1367 C1373 1.465 1_554 S
C1368 C1363 1.399 . S
C1368 C1367 1.394 . S
C1368 C1369 1.516 1_554 S
C1369 C1368 1.516 1_556 S
C1369 C1370 1.502 . S
C1369 C1371 1.561 . S
C1369 C1372 1.526 . S
C1370 H1354 0.959 . S
C1370 H1355 0.959 . S
C1370 H1356 0.961 . S
C1370 C1369 1.502 . S
C1371 H1357 0.960 . S
C1371 H1358 0.961 . S
C1371 H1359 0.959 . S
C1371 C1369 1.561 . S
C1372 C1369 1.526 . S
C1372 C1373 1.396 . S
C1372 C1377 1.390 . S
C1373 C1367 1.465 1_556 S
C1373 C1372 1.396 . S
C1373 C1374 1.399 . S
C1374 H1360 0.963 . S
C1374 C1373 1.399 . S
C1374 C1375 1.385 . S
C1375 H1361 0.931 . S
C1375 C1374 1.385 . S
C1375 C1376 1.389 . S
C1376 C1375 1.389 . S
C1376 C1377 1.387 . S
C1377 H1362 0.930 . S
C1377 C1372 1.390 . S
C1377 C1376 1.387 . S
H1378 C1390 0.930 . S
H1379 C1392 0.930 . S
H1380 C1393 0.930 . S
H1381 C1397 0.959 . S
H1382 C1397 0.959 . S
H1383 C1397 0.961 . S
H1384 C1398 0.960 . S
H1385 C1398 0.961 1_554 S
H1386 C1398 0.959 . S
H1387 C1401 0.933 . S
H1388 C1402 0.931 . S
H1389 C1404 0.930 . S
C1390 H1378 0.930 . S
C1390 C1391 1.399 . S
C1390 C1395 1.399 . S
C1391 C1390 1.399 . S
C1391 C1392 1.376 . S
C1392 H1379 0.930 . S
C1392 C1391 1.376 . S
C1392 C1393 1.388 . S
C1393 H1380 0.930 . S
C1393 C1392 1.388 . S
C1393 C1394 1.390 . S
C1394 C1393 1.390 . S
C1394 C1395 1.394 . S
C1394 C1400 1.465 1_556 S
C1395 C1390 1.399 . S
C1395 C1394 1.394 . S
C1395 C1396 1.516 1_556 S
C1396 C1395 1.516 1_554 S
C1396 C1397 1.502 . S
C1396 C1398 1.561 1_554 S
C1396 C1399 1.526 . S
C1397 H1381 0.959 . S
C1397 H1382 0.959 . S
C1397 H1383 0.961 . S
C1397 C1396 1.502 . S
C1398 H1384 0.960 . S
C1398 H1385 0.961 1_556 S
C1398 H1386 0.959 . S
C1398 C1396 1.561 1_556 S
C1399 C1396 1.526 . S
C1399 C1400 1.396 . S
C1399 C1404 1.390 . S
C1400 C1394 1.465 1_554 S
C1400 C1399 1.396 . S
C1400 C1401 1.399 . S
C1401 H1387 0.933 . S
C1401 C1400 1.399 . S
C1401 C1402 1.385 . S
C1402 H1388 0.931 . S
C1402 C1401 1.385 . S
C1402 C1403 1.389 . S
C1403 C1402 1.389 . S
C1403 C1404 1.387 . S
C1404 H1389 0.930 . S
C1404 C1399 1.390 . S
C1404 C1403 1.387 . S
H1405 C1417 0.930 . S
H1406 C1419 0.930 . S
H1407 C1420 0.930 1_556 S
H1408 C1424 0.959 . S
H1409 C1424 0.959 . S
H1410 C1424 0.961 . S
H1411 C1425 0.960 . S
H1412 C1425 0.961 . S
H1413 C1425 0.959 . S
H1414 C1428 0.929 . S
H1415 C1429 0.931 . S
H1416 C1431 0.930 . S
C1417 H1405 0.930 . S
C1417 C1418 1.399 . S
C1417 C1422 1.399 . S
C1418 C1417 1.399 . S
C1418 C1419 1.376 . S
C1419 H1406 0.930 . S
C1419 C1418 1.376 . S
C1419 C1420 1.388 . S
C1420 H1407 0.930 1_554 S
C1420 C1419 1.388 . S
C1420 C1421 1.387 1_554 S
C1421 C1420 1.387 1_556 S
C1421 C1422 1.376 1_556 S
C1421 C1427 1.484 . S
C1422 C1417 1.399 . S
C1422 C1421 1.376 1_554 S
C1422 C1423 1.516 . S
C1423 C1422 1.516 . S
C1423 C1424 1.502 . S
C1423 C1425 1.561 . S
C1423 C1426 1.526 1_554 S
C1424 H1408 0.959 . S
C1424 H1409 0.959 . S
C1424 H1410 0.961 . S
C1424 C1423 1.502 . S
C1425 H1411 0.960 . S
C1425 H1412 0.961 . S
C1425 H1413 0.959 . S
C1425 C1423 1.561 . S
C1426 C1423 1.526 1_556 S
C1426 C1427 1.396 . S
C1426 C1431 1.390 . S
C1427 C1421 1.484 . S
C1427 C1426 1.396 . S
C1427 C1428 1.399 . S
C1428 H1414 0.929 . S
C1428 C1427 1.399 . S
C1428 C1429 1.385 . S
C1429 H1415 0.931 . S
C1429 C1428 1.385 . S
C1429 C1430 1.389 . S
C1430 C1429 1.389 . S
C1430 C1431 1.387 . S
C1431 H1416 0.930 . S
C1431 C1426 1.390 . S
C1431 C1430 1.387 . S
H1432 C1444 0.930 . S
H1433 C1446 0.930 . S
H1434 C1447 0.930 . S
H1435 C1451 0.959 . S
H1436 C1451 0.959 . S
H1437 C1451 0.961 . S
H1438 C1452 0.960 . S
H1439 C1452 0.961 . S
H1440 C1452 0.959 . S
H1441 C1455 0.929 . S
H1442 C1456 0.931 . S
H1443 C1458 0.930 . S
C1444 H1432 0.930 . S
C1444 C1445 1.399 . S
C1444 C1449 1.399 . S
C1445 C1444 1.399 . S
C1445 C1446 1.376 . S
C1446 H1433 0.930 . S
C1446 C1445 1.376 . S
C1446 C1447 1.388 . S
C1447 H1434 0.930 . S
C1447 C1446 1.388 . S
C1447 C1448 1.390 . S
C1448 C1447 1.390 . S
C1448 C1449 1.394 . S
C1448 C1454 1.465 . S
C1449 C1444 1.399 . S
C1449 C1448 1.394 . S
C1449 C1450 1.516 . S
C1450 C1449 1.516 . S
C1450 C1451 1.502 . S
C1450 C1452 1.561 . S
C1450 C1453 1.526 . S
C1451 H1435 0.959 . S
C1451 H1436 0.959 . S
C1451 H1437 0.961 . S
C1451 C1450 1.502 . S
C1452 H1438 0.960 . S
C1452 H1439 0.961 . S
C1452 H1440 0.959 . S
C1452 C1450 1.561 . S
C1453 C1450 1.526 . S
C1453 C1454 1.396 . S
C1453 C1458 1.390 . S
C1454 C1448 1.465 . S
C1454 C1453 1.396 . S
C1454 C1455 1.399 . S
C1455 H1441 0.929 . S
C1455 C1454 1.399 . S
C1455 C1456 1.385 . S
C1456 H1442 0.931 . S
C1456 C1455 1.385 . S
C1456 C1457 1.389 . S
C1457 C1456 1.389 . S
C1457 C1458 1.387 . S
C1458 H1443 0.930 . S
C1458 C1453 1.390 . S
C1458 C1457 1.387 . S
H1459 C1471 0.930 . S
H1460 C1473 0.930 . S
H1461 C1474 0.930 . S
H1462 C1478 0.959 . S
H1463 C1478 0.959 . S
H1464 C1478 0.961 . S
H1465 C1479 0.960 . S
H1466 C1479 0.961 . S
H1467 C1479 0.959 . S
H1468 C1482 0.929 . S
H1469 C1483 0.931 . S
H1470 C1485 0.930 . S
C1471 H1459 0.930 . S
C1471 C1472 1.399 . S
C1471 C1476 1.399 . S
C1472 C1471 1.399 . S
C1472 C1473 1.376 . S
C1473 H1460 0.930 . S
C1473 C1472 1.376 . S
C1473 C1474 1.388 . S
C1474 H1461 0.930 . S
C1474 C1473 1.388 . S
C1474 C1475 1.390 . S
C1475 C1474 1.390 . S
C1475 C1476 1.394 . S
C1475 C1481 1.465 . S
C1476 C1471 1.399 . S
C1476 C1475 1.394 . S
C1476 C1477 1.516 . S
C1477 C1476 1.516 . S
C1477 C1478 1.502 . S
C1477 C1479 1.561 . S
C1477 C1480 1.526 . S
C1478 H1462 0.959 . S
C1478 H1463 0.959 . S
C1478 H1464 0.961 . S
C1478 C1477 1.502 . S
C1479 H1465 0.960 . S
C1479 H1466 0.961 . S
C1479 H1467 0.959 . S
C1479 C1477 1.561 . S
C1480 C1477 1.526 . S
C1480 C1481 1.396 . S
C1480 C1485 1.390 . S
C1481 C1475 1.465 . S
C1481 C1480 1.396 . S
C1481 C1482 1.399 . S
C1482 H1468 0.929 . S
C1482 C1481 1.399 . S
C1482 C1483 1.385 . S
C1483 H1469 0.931 . S
C1483 C1482 1.385 . S
C1483 C1484 1.389 . S
C1484 C1483 1.389 . S
C1484 C1485 1.387 . S
C1485 H1470 0.930 . S
C1485 C1480 1.390 . S
C1485 C1484 1.387 . S
H1486 C1498 0.930 . S
H1487 C1500 0.930 . S
H1488 C1501 0.930 . S
H1489 C1505 0.959 . S
H1490 C1505 0.959 . S
H1491 C1505 0.961 . S
H1492 C1506 0.960 . S
H1493 C1506 0.961 . S
H1494 C1506 0.959 . S
H1495 C1509 0.929 . S
H1496 C1510 0.931 . S
H1497 C1512 0.930 . S
C1498 H1486 0.930 . S
C1498 C1499 1.399 . S
C1498 C1503 1.399 . S
C1499 C1498 1.399 . S
C1499 C1500 1.376 . S
C1500 H1487 0.930 . S
C1500 C1499 1.376 . S
C1500 C1501 1.388 . S
C1501 H1488 0.930 . S
C1501 C1500 1.388 . S
C1501 C1502 1.390 . S
C1502 C1501 1.390 . S
C1502 C1503 1.394 . S
C1502 C1508 1.465 . S
C1503 C1498 1.399 . S
C1503 C1502 1.394 . S
C1503 C1504 1.516 . S
C1504 C1503 1.516 . S
C1504 C1505 1.502 . S
C1504 C1506 1.561 . S
C1504 C1507 1.526 . S
C1505 H1489 0.959 . S
C1505 H1490 0.959 . S
C1505 H1491 0.961 . S
C1505 C1504 1.502 . S
C1506 H1492 0.960 . S
C1506 H1493 0.961 . S
C1506 H1494 0.959 . S
C1506 C1504 1.561 . S
C1507 C1504 1.526 . S
C1507 C1508 1.396 . S
C1507 C1512 1.390 . S
C1508 C1502 1.465 . S
C1508 C1507 1.396 . S
C1508 C1509 1.399 . S
C1509 H1495 0.929 . S
C1509 C1508 1.399 . S
C1509 C1510 1.385 . S
C1510 H1496 0.931 . S
C1510 C1509 1.385 . S
C1510 C1511 1.389 . S
C1511 C1510 1.389 . S
C1511 C1512 1.387 . S
C1512 H1497 0.930 . S
C1512 C1507 1.390 . S
C1512 C1511 1.387 . S
H1513 C1525 0.930 . S
H1514 C1527 0.930 . S
H1515 C1528 0.930 . S
H1516 C1532 0.959 . S
H1517 C1532 0.959 . S
H1518 C1532 0.961 . S
H1519 C1533 0.960 . S
H1520 C1533 0.961 . S
H1521 C1533 0.959 . S
H1522 C1536 0.929 . S
H1523 C1537 0.931 . S
H1524 C1539 0.930 . S
C1525 H1513 0.930 . S
C1525 C1526 1.399 . S
C1525 C1530 1.399 . S
C1526 C1525 1.399 . S
C1526 C1527 1.376 . S
C1527 H1514 0.930 . S
C1527 C1526 1.376 . S
C1527 C1528 1.388 . S
C1528 H1515 0.930 . S
C1528 C1527 1.388 . S
C1528 C1529 1.390 . S
C1529 C1528 1.390 . S
C1529 C1530 1.394 . S
C1529 C1535 1.465 . S
C1530 C1525 1.399 . S
C1530 C1529 1.394 . S
C1530 C1531 1.516 . S
C1531 C1530 1.516 . S
C1531 C1532 1.502 . S
C1531 C1533 1.561 . S
C1531 C1534 1.526 . S
C1532 H1516 0.959 . S
C1532 H1517 0.959 . S
C1532 H1518 0.961 . S
C1532 C1531 1.502 . S
C1533 H1519 0.960 . S
C1533 H1520 0.961 . S
C1533 H1521 0.959 . S
C1533 C1531 1.561 . S
C1534 C1531 1.526 . S
C1534 C1535 1.396 . S
C1534 C1539 1.390 . S
C1535 C1529 1.465 . S
C1535 C1534 1.396 . S
C1535 C1536 1.399 . S
C1536 H1522 0.929 . S
C1536 C1535 1.399 . S
C1536 C1537 1.385 . S
C1537 H1523 0.931 . S
C1537 C1536 1.385 . S
C1537 C1538 1.389 . S
C1538 C1537 1.389 . S
C1538 C1539 1.387 . S
C1539 H1524 0.930 . S
C1539 C1534 1.390 . S
C1539 C1538 1.387 . S
H1540 C1552 0.930 . S
H1541 C1554 0.930 . S
H1542 C1555 0.930 1_554 S
H1543 C1559 0.959 . S
H1544 C1559 0.959 . S
H1545 C1559 0.961 . S
H1546 C1560 0.960 . S
H1547 C1560 0.961 . S
H1548 C1560 0.959 . S
H1549 C1563 0.929 . S
H1550 C1564 0.931 . S
H1551 C1566 0.930 . S
C1552 H1540 0.930 . S
C1552 C1553 1.399 . S
C1552 C1557 1.399 . S
C1553 C1552 1.399 . S
C1553 C1554 1.376 . S
C1554 H1541 0.930 . S
C1554 C1553 1.376 . S
C1554 C1555 1.388 . S
C1555 H1542 0.930 1_556 S
C1555 C1554 1.388 . S
C1555 C1556 1.385 1_556 S
C1556 C1555 1.385 1_554 S
C1556 C1557 1.365 1_554 S
C1556 C1562 1.497 . S
C1557 C1552 1.399 . S
C1557 C1556 1.365 1_556 S
C1557 C1558 1.516 . S
C1558 C1557 1.516 . S
C1558 C1559 1.502 . S
C1558 C1560 1.561 . S
C1558 C1561 1.526 1_556 S
C1559 H1543 0.959 . S
C1559 H1544 0.959 . S
C1559 H1545 0.961 . S
C1559 C1558 1.502 . S
C1560 H1546 0.960 . S
C1560 H1547 0.961 . S
C1560 H1548 0.959 . S
C1560 C1558 1.561 . S
C1561 C1558 1.526 1_554 S
C1561 C1562 1.396 . S
C1561 C1566 1.390 . S
C1562 C1556 1.497 . S
C1562 C1561 1.396 . S
C1562 C1563 1.399 . S
C1563 H1549 0.929 . S
C1563 C1562 1.399 . S
C1563 C1564 1.385 . S
C1564 H1550 0.931 . S
C1564 C1563 1.385 . S
C1564 C1565 1.389 . S
C1565 C1564 1.389 . S
C1565 C1566 1.387 . S
C1566 H1551 0.930 . S
C1566 C1561 1.390 . S
C1566 C1565 1.387 . S
H1567 C1579 0.930 . S
H1568 C1581 0.930 . S
H1569 C1582 0.930 1_554 S
H1570 C1586 0.937 1_554 S
H1571 C1586 0.959 . S
H1572 C1586 0.961 . S
H1573 C1587 0.960 . S
H1574 C1587 0.961 . S
H1575 C1587 0.959 . S
H1576 C1590 0.929 . S
H1577 C1591 0.931 . S
H1578 C1593 0.930 . S
C1579 H1567 0.930 . S
C1579 C1580 1.399 . S
C1579 C1584 1.399 . S
C1580 C1579 1.399 . S
C1580 C1581 1.376 . S
C1581 H1568 0.930 . S
C1581 C1580 1.376 . S
C1581 C1582 1.388 . S
C1582 H1569 0.930 1_556 S
C1582 C1581 1.388 . S
C1582 C1583 1.390 . S
C1583 C1582 1.390 . S
C1583 C1584 1.394 . S
C1583 C1589 1.465 1_556 S
C1584 C1579 1.399 . S
C1584 C1583 1.394 . S
C1584 C1585 1.516 . S
C1585 C1584 1.516 . S
C1585 C1586 1.502 . S
C1585 C1587 1.561 . S
C1585 C1588 1.526 1_556 S
C1586 H1570 0.937 1_556 S
C1586 H1571 0.959 . S
C1586 H1572 0.961 . S
C1586 C1585 1.502 . S
C1587 H1573 0.960 . S
C1587 H1574 0.961 . S
C1587 H1575 0.959 . S
C1587 C1585 1.561 . S
C1588 C1585 1.526 1_554 S
C1588 C1589 1.396 . S
C1588 C1593 1.390 . S
C1589 C1583 1.465 1_554 S
C1589 C1588 1.396 . S
C1589 C1590 1.399 . S
C1590 H1576 0.929 . S
C1590 C1589 1.399 . S
C1590 C1591 1.385 . S
C1591 H1577 0.931 . S
C1591 C1590 1.385 . S
C1591 C1592 1.389 . S
C1592 C1591 1.389 . S
C1592 C1593 1.387 . S
C1593 H1578 0.930 . S
C1593 C1588 1.390 . S
C1593 C1592 1.387 . S
H1594 C1606 0.930 . S
H1595 C1608 0.930 . S
H1596 C1609 0.930 . S
H1597 C1613 0.959 . S
H1598 C1613 0.959 1_556 S
H1599 C1613 0.961 . S
H1600 C1614 0.960 . S
H1601 C1614 0.961 . S
H1602 C1614 0.959 . S
H1603 C1617 0.929 . S
H1604 C1618 0.931 . S
H1605 C1620 0.930 . S
C1606 H1594 0.930 . S
C1606 C1607 1.399 . S
C1606 C1611 1.399 . S
C1607 C1606 1.399 . S
C1607 C1608 1.376 . S
C1608 H1595 0.930 . S
C1608 C1607 1.376 . S
C1608 C1609 1.388 . S
C1609 H1596 0.930 . S
C1609 C1608 1.388 . S
C1609 C1610 1.390 . S
C1610 C1609 1.390 . S
C1610 C1611 1.394 . S
C1610 C1616 1.465 1_554 S
C1611 C1606 1.399 . S
C1611 C1610 1.394 . S
C1611 C1612 1.516 . S
C1612 C1611 1.516 . S
C1612 C1613 1.502 . S
C1612 C1614 1.561 1_554 S
C1612 C1615 1.526 1_554 S
C1613 H1597 0.959 . S
C1613 H1598 0.959 1_554 S
C1613 H1599 0.961 . S
C1613 C1612 1.502 . S
C1614 H1600 0.960 . S
C1614 H1601 0.961 . S
C1614 H1602 0.959 . S
C1614 C1612 1.561 1_556 S
C1615 C1612 1.526 1_556 S
C1615 C1616 1.396 . S
C1615 C1620 1.390 . S
C1616 C1610 1.465 1_556 S
C1616 C1615 1.396 . S
C1616 C1617 1.399 . S
C1617 H1603 0.929 . S
C1617 C1616 1.399 . S
C1617 C1618 1.385 . S
C1618 H1604 0.931 . S
C1618 C1617 1.385 . S
C1618 C1619 1.389 . S
C1619 C1618 1.389 . S
C1619 C1620 1.387 . S
C1620 H1605 0.930 . S
C1620 C1615 1.390 . S
C1620 C1619 1.387 . S
H1621 C1633 0.930 . S
H1622 C1635 0.930 . S
H1623 C1636 0.930 . S
H1624 C1640 0.959 . S
H1625 C1640 0.959 . S
H1626 C1640 0.961 . S
H1627 C1641 0.960 . S
H1628 C1641 0.961 . S
H1629 C1641 0.959 . S
H1630 C1644 0.929 . S
H1631 C1645 0.931 . S
H1632 C1647 0.930 . S
C1633 H1621 0.930 . S
C1633 C1634 1.399 . S
C1633 C1638 1.399 . S
C1634 C1633 1.399 . S
C1634 C1635 1.376 . S
C1635 H1622 0.930 . S
C1635 C1634 1.376 . S
C1635 C1636 1.388 . S
C1636 H1623 0.930 . S
C1636 C1635 1.388 . S
C1636 C1637 1.390 . S
C1637 C1636 1.390 . S
C1637 C1638 1.394 . S
C1637 C1643 1.465 1_554 S
C1638 C1633 1.399 . S
C1638 C1637 1.394 . S
C1638 C1639 1.516 . S
C1639 C1638 1.516 . S
C1639 C1640 1.502 1_554 S
C1639 C1641 1.561 . S
C1639 C1642 1.526 1_554 S
C1640 H1624 0.959 . S
C1640 H1625 0.959 . S
C1640 H1626 0.961 . S
C1640 C1639 1.502 1_556 S
C1641 H1627 0.960 . S
C1641 H1628 0.961 . S
C1641 H1629 0.959 . S
C1641 C1639 1.561 . S
C1642 C1639 1.526 1_556 S
C1642 C1643 1.396 . S
C1642 C1647 1.390 . S
C1643 C1637 1.465 1_556 S
C1643 C1642 1.396 . S
C1643 C1644 1.399 . S
C1644 H1630 0.929 . S
C1644 C1643 1.399 . S
C1644 C1645 1.385 . S
C1645 H1631 0.931 . S
C1645 C1644 1.385 . S
C1645 C1646 1.389 . S
C1646 C1645 1.389 . S
C1646 C1647 1.387 . S
C1647 H1632 0.930 . S
C1647 C1642 1.390 . S
C1647 C1646 1.387 . S
C365 C5 2.232 . S
C377 C119 2.308 . S
C392 C141 2.307 . S
C404 C27 2.229 . S
C419 C49 2.228 . S
C431 C163 2.307 . S
C446 C75 2.269 . S
C458 C93 2.250 . S
C473 C293 2.262 . S
C485 C182 2.305 . S
C500 C315 2.261 . S
C512 C205 2.237 . S
C527 C227 2.280 . S
C539 C336 2.296 . S
C554 C249 2.231 . S
C566 C271 2.300 . S
C581 C4 1.630 . S
C593 C73 1.558 1_545 S
C608 C26 1.626 . S
C620 C6 1.568 . S
C635 C48 1.597 1_455 S
C647 C28 1.497 . S
C662 C74 1.632 1_545 S
C674 C50 1.554 1_455 S
C689 C92 1.601 1_655 S
C701 C117 1.467 1_565 S
C716 C139 1.532 . S
C728 C118 1.603 1_565 S
C743 C140 1.620 . S
C755 C161 1.565 . S
C770 C94 1.511 1_655 S
C782 C162 1.600 . S
C797 C251 1.556 1_565 S
C809 C180 1.634 . S
C824 C206 1.614 . S
C836 C181 1.535 . S
C851 C228 1.599 1_655 S
C863 C207 1.471 . S
C878 C250 1.605 1_565 S
C890 C229 1.503 1_655 S
C905 C272 1.599 1_455 S
C917 C295 1.483 1_545 S
C932 C294 1.617 1_545 S
C944 C317 1.505 . S
C959 C316 1.600 . S
C971 C335 1.494 . S
C986 C334 1.612 . S
C998 C273 1.485 1_455 S
C1013 C7 0.413 . S
C1025 C51 0.291 . S
C1040 C29 0.273 . S
C1052 C72 0.416 . S
C1067 C138 0.343 . S
C1079 C95 0.383 . S
C1094 C160 0.371 . S
C1106 C116 0.166 . S
C1121 C225 0.177 . S
C1133 C185 0.279 . S
C1148 C247 0.421 . S
C1160 C203 0.342 . S
C1175 C269 0.166 . S
C1187 C313 0.296 . S
C1202 C291 0.158 . S
C1214 C339 0.311 . S
C1229 C8 1.221 . S
C1241 C248 1.209 . S
C1256 C183 1.216 . S
C1268 C30 1.220 . S
C1283 C52 1.212 . S
C1295 C204 1.228 . S
C1310 C226 1.219 . S
C1322 C70 1.219 . S
C1337 C292 1.200 . S
C1349 C96 1.217 . S
C1364 C114 1.222 . S
C1376 C314 1.201 . S
C1391 C337 1.231 . S
C1403 C136 1.213 . S
C1418 C158 1.212 . S
C1430 C270 1.229 . S
C1445 C184 1.223 . S
C1457 C71 1.192 . S
C1472 C202 1.216 . S
C1484 C9 1.215 . S
C1499 C31 1.200 . S
C1511 C224 1.220 . S
C1526 C246 1.217 . S
C1538 C53 1.214 . S
C1553 C268 1.213 . S
C1565 C115 1.228 . S
C1580 C290 1.216 . S
C1592 C137 1.213 . S
C1607 C159 1.216 . S
C1619 C312 1.217 . S
C1634 C97 1.212 . S
C1646 C338 1.217 . S
