# Generated by pormake.
# Topology sml, (6)-cn, num edge types: 1
# Building blocks:
#     Node 0, Type 0, BuildingBlock: PAMTOO_clean_sbu_0, # of connection points: 6
#     Node 1, Type 0, BuildingBlock: PAMTOO_clean_sbu_0, # of connection points: 6
#     Node 2, Type 0, BuildingBlock: PAMTOO_clean_sbu_0, # of connection points: 6
#     Node 3, Type 0, BuildingBlock: PAMTOO_clean_sbu_0, # of connection points: 6
#     Node 4, Type 0, BuildingBlock: PAMTOO_clean_sbu_0, # of connection points: 6
#     Node 5, Type 0, BuildingBlock: PAMTOO_clean_sbu_0, # of connection points: 6
#     Edge 6, Type (0, 0), BuildingBlock: AJUNOK_clean_linker_0, # of connection points: 2
#     Edge 7, Type (0, 0), BuildingBlock: AJUNOK_clean_linker_0, # of connection points: 2
#     Edge 8, Type (0, 0), BuildingBlock: AJUNOK_clean_linker_0, # of connection points: 2
#     Edge 9, Type (0, 0), BuildingBlock: AJUNOK_clean_linker_0, # of connection points: 2
#     Edge 10, Type (0, 0), BuildingBlock: AJUNOK_clean_linker_0, # of connection points: 2
#     Edge 11, Type (0, 0), BuildingBlock: AJUNOK_clean_linker_0, # of connection points: 2
#     Edge 12, Type (0, 0), BuildingBlock: AJUNOK_clean_linker_0, # of connection points: 2
#     Edge 13, Type (0, 0), BuildingBlock: AJUNOK_clean_linker_0, # of connection points: 2
#     Edge 14, Type (0, 0), BuildingBlock: AJUNOK_clean_linker_0, # of connection points: 2
#     Edge 15, Type (0, 0), BuildingBlock: AJUNOK_clean_linker_0, # of connection points: 2
#     Edge 16, Type (0, 0), BuildingBlock: AJUNOK_clean_linker_0, # of connection points: 2
#     Edge 17, Type (0, 0), BuildingBlock: AJUNOK_clean_linker_0, # of connection points: 2
#     Edge 18, Type (0, 0), BuildingBlock: AJUNOK_clean_linker_0, # of connection points: 2
#     Edge 19, Type (0, 0), BuildingBlock: AJUNOK_clean_linker_0, # of connection points: 2
#     Edge 20, Type (0, 0), BuildingBlock: AJUNOK_clean_linker_0, # of connection points: 2
#     Edge 21, Type (0, 0), BuildingBlock: AJUNOK_clean_linker_0, # of connection points: 2
#     Edge 22, Type (0, 0), BuildingBlock: AJUNOK_clean_linker_0, # of connection points: 2
#     Edge 23, Type (0, 0), BuildingBlock: AJUNOK_clean_linker_0, # of connection points: 2
# Relax obj value: 0.270
# Max RMSD: 0.278
# Mean RMSD: 0.278
data_MOF--net-sml--node1-PAMTOO_clean_sbu_0--edge1-AJUNOK_clean_linker_0
_symmetry_space_group_name_H-M    P1
_symmetry_Int_Tables_number       1
_symmetry_cell_setting            triclinic
loop_
_symmetry_equiv_pos_as_xyz
'x, y, z'
_cell_length_a     23.325797
_cell_length_b     23.198538
_cell_length_c     20.064379
_cell_angle_alpha  90.47074
_cell_angle_beta   89.743906
_cell_angle_gamma 120.42679
loop_
_atom_site_label
_atom_site_type_symbol
_atom_site_fract_x
_atom_site_fract_y
_atom_site_fract_z
_atom_type_partial_charge
Dy0 Dy 0.13266 0.41446 0.99325 0.0
Dy1 Dy 0.23356 0.4152 0.11249 0.0
C2 C 0.20322 0.32582 0.98084 0.0
O3 O 0.06747 0.32404 0.05416 0.0
O4 O 0.13024 0.3566 0.14975 0.0
O5 O 0.05787 0.36439 0.91695 0.0
O6 O 0.10886 0.47196 0.92617 0.0
O7 O 0.21414 0.49933 0.12763 0.0
O8 O 0.10997 0.45544 0.08419 0.0
O9 O 0.29916 0.46189 1.02455 0.0
O10 O 0.23556 0.5018 0.98153 0.0
O11 O 0.31596 0.47317 0.17949 0.0
O12 O 0.25687 0.36565 0.18944 0.0
C13 C 0.07474 0.31718 0.11807 0.0
O14 O 0.18186 0.36187 0.95211 0.0
O15 O 0.21694 0.33076 0.04496 0.0
C16 C 0.09595 0.4263 0.81839 0.0
C17 C 0.14403 0.43559 0.68691 0.0
C18 C 0.178 0.42905 0.74116 0.0
C19 C 0.15414 0.42436 0.80586 0.0
C20 C 0.06167 0.43322 0.76464 0.0
C21 C 0.08553 0.43779 0.69922 0.0
C22 C 0.07253 0.42035 0.88788 0.0
C23 C 0.15486 0.49278 0.12881 0.0
C24 C 0.29033 0.49887 0.98143 0.0
C25 C 0.28267 0.4298 0.28735 0.0
C26 C 0.24474 0.44051 0.41868 0.0
C27 C 0.20658 0.43897 0.36408 0.0
C28 C 0.22523 0.43342 0.29928 0.0
C29 C 0.32142 0.43173 0.34152 0.0
C30 C 0.30238 0.43672 0.40687 0.0
C31 C 0.29941 0.42202 0.21815 0.0
H32 H 0.22344 0.42789 0.73364 0.0
H33 H 0.18155 0.41948 0.84646 0.0
H34 H 0.01647 0.43459 0.77313 0.0
H35 H 0.05766 0.44181 0.6583 0.0
H36 H 0.16121 0.44026 0.37155 0.0
H37 H 0.19411 0.431 0.25825 0.0
H38 H 0.36578 0.42871 0.3334 0.0
H39 H 0.33257 0.4376 0.44817 0.0
Dy40 Dy 0.69027 0.13756 0.29846 0.0
Dy41 Dy 0.79247 0.22797 0.42098 0.0
C42 C 0.84831 0.19677 0.28919 0.0
O43 O 0.67391 0.06332 0.37638 0.0
O44 O 0.7731 0.12364 0.43259 0.0
O45 O 0.65167 0.05839 0.22417 0.0
O46 O 0.61378 0.12646 0.23056 0.0
O47 O 0.69258 0.16737 0.46467 0.0
O48 O 0.63326 0.1631 0.37286 0.0
O49 O 0.76997 0.29496 0.35928 0.0
O50 O 0.7561 0.23984 0.2613 0.0
O51 O 0.81423 0.30254 0.4972 0.0
O52 O 0.8755 0.25734 0.48775 0.0
C53 C 0.71749 0.06723 0.42023 0.0
O54 O 0.7885 0.14732 0.27413 0.0
O55 O 0.85968 0.24003 0.33729 0.0
C56 C 0.63747 0.10138 0.12365 0.0
C57 C 0.68344 0.13823 0.99165 0.0
C58 C 0.70781 0.18601 0.04314 0.0
C59 C 0.68495 0.16782 0.1082 0.0
C60 C 0.61213 0.05346 0.07232 0.0
C61 C 0.63471 0.07187 1.00667 0.0
C62 C 0.61885 0.08242 0.19391 0.0
C63 C 0.63834 0.15925 0.43776 0.0
C64 C 0.76833 0.29364 0.29378 0.0
C65 C 0.84152 0.26874 0.59525 0.0
C66 C 0.79413 0.2245 0.72529 0.0
C67 C 0.77105 0.17947 0.6713 0.0
C68 C 0.79385 0.20161 0.60699 0.0
C69 C 0.86702 0.31358 0.64914 0.0
C70 C 0.84356 0.29154 0.71389 0.0
C71 C 0.85791 0.29167 0.52596 0.0
H72 H 0.74472 0.23764 1.0331 0.0
H73 H 0.70512 0.20581 0.14662 0.0
H74 H 0.57587 0.00182 0.08312 0.0
H75 H 0.61528 0.03404 0.9679 0.0
H76 H 0.73432 0.12723 0.67851 0.0
H77 H 0.77266 0.16664 0.56592 0.0
H78 H 0.90332 0.36578 0.64094 0.0
H79 H 0.86233 0.32735 0.75462 0.0
Dy80 Dy 0.54917 0.69691 0.6336 0.0
Dy81 Dy 0.54581 0.79572 0.75266 0.0
C82 C 0.62024 0.85783 0.61623 0.0
O83 O 0.61671 0.70054 0.7142 0.0
O84 O 0.64582 0.80527 0.75135 0.0
O85 O 0.60062 0.66469 0.56669 0.0
O86 O 0.49318 0.61703 0.56265 0.0
O87 O 0.52269 0.69874 0.79521 0.0
O88 O 0.46722 0.63419 0.70612 0.0
O89 O 0.45368 0.76023 0.69017 0.0
O90 O 0.49343 0.74198 0.59303 0.0
O91 O 0.48403 0.80957 0.8237 0.0
O92 O 0.59103 0.87205 0.82991 0.0
C93 C 0.6548 0.75386 0.75068 0.0
O94 O 0.62083 0.8023 0.6037 0.0
O95 O 0.58813 0.86508 0.66679 0.0
C96 C 0.55009 0.64722 0.46006 0.0
C97 C 0.54731 0.68889 0.32809 0.0
C98 C 0.59525 0.73266 0.37413 0.0
C99 C 0.59669 0.71215 0.43904 0.0
C100 C 0.50186 0.60323 0.4145 0.0
C101 C 0.50036 0.62386 0.34924 0.0
C102 C 0.54701 0.62857 0.53109 0.0
C103 C 0.47661 0.64207 0.77081 0.0
C104 C 0.45 0.75119 0.62508 0.0
C105 C 0.53203 0.82771 0.93109 0.0
C106 C 0.53501 0.78424 0.06199 0.0
C107 C 0.49484 0.73823 1.01274 0.0
C108 C 0.49363 0.75959 0.94801 0.0
C109 C 0.57103 0.87391 0.98068 0.0
C110 C 0.57246 0.85246 0.04555 0.0
C111 C 0.53449 0.84957 0.86119 0.0
H112 H 0.63055 0.78384 0.36089 0.0
H113 H 0.6333 0.74812 0.47334 0.0
H114 H 0.46461 0.55331 0.42974 0.0
H115 H 0.46263 0.58874 0.31526 0.0
H116 H 0.46569 0.68539 1.02387 0.0
H117 H 0.46339 0.72241 0.91094 0.0
H118 H 0.60177 0.9263 0.96878 0.0
H119 H 0.60348 0.88913 0.08269 0.0
Dy120 Dy 0.80805 0.57744 0.98661 0.0
Dy121 Dy 0.72298 0.60275 0.1058 0.0
C122 C 0.76048 0.68336 0.97149 0.0
O123 O 0.87618 0.61964 0.07373 0.0
O124 O 0.83066 0.68121 0.10814 0.0
O125 O 0.8919 0.61462 0.91925 0.0
O126 O 0.81149 0.51143 0.91211 0.0
O127 O 0.76246 0.54323 0.1505 0.0
O128 O 0.77363 0.49132 0.05791 0.0
O129 O 0.64859 0.51461 0.04471 0.0
O130 O 0.70755 0.54459 0.94715 0.0
O131 O 0.6469 0.56328 0.1821 0.0
O132 O 0.71336 0.67006 0.17393 0.0
C133 C 0.87764 0.6663 0.11228 0.0
O134 O 0.81133 0.67381 0.96759 0.0
O135 O 0.71363 0.65371 1.01669 0.0
C136 C 0.85141 0.56945 0.81077 0.0
C137 C 0.81471 0.58065 0.67894 0.0
C138 C 0.8428 0.63619 0.72232 0.0
C139 C 0.86111 0.63075 0.7873 0.0
C140 C 0.82564 0.51454 0.76676 0.0
C141 C 0.80787 0.52015 0.70149 0.0
C142 C 0.86229 0.56067 0.88202 0.0
C143 C 0.76725 0.4946 0.12305 0.0
C144 C 0.65173 0.51021 0.97949 0.0
C145 C 0.69262 0.62265 0.28161 0.0
C146 C 0.7303 0.61018 0.41247 0.0
C147 C 0.77684 0.63293 0.36005 0.0
C148 C 0.75821 0.63903 0.29548 0.0
C149 C 0.64629 0.60097 0.33369 0.0
C150 C 0.66504 0.59559 0.39864 0.0
C151 C 0.67148 0.62118 0.21193 0.0
H152 H 0.84875 0.68351 0.70674 0.0
H153 H 0.88077 0.67416 0.81976 0.0
H154 H 0.81816 0.46686 0.78326 0.0
H155 H 0.78852 0.47694 0.6688 0.0
H156 H 0.82727 0.64402 0.36842 0.0
H157 H 0.79466 0.65461 0.25588 0.0
H158 H 0.59525 0.58666 0.32374 0.0
H159 H 0.62822 0.57951 0.43785 0.0
Dy160 Dy 0.16986 0.78649 0.35619 0.0
Dy161 Dy 0.08109 0.68484 0.47821 0.0
C162 C 0.01701 0.72378 0.36291 0.0
O163 O 0.19869 0.85462 0.44295 0.0
O164 O 0.10869 0.78875 0.5109 0.0
O165 O 0.18908 0.8667 0.28916 0.0
O166 O 0.2394 0.81063 0.27507 0.0
O167 O 0.1854 0.73671 0.51313 0.0
O168 O 0.23867 0.76254 0.41187 0.0
O169 O 0.10759 0.62731 0.4052 0.0
O170 O 0.10759 0.68475 0.31383 0.0
O171 O 0.06113 0.60499 0.54598 0.0
O172 O -0.00088 0.6498 0.54755 0.0
C173 C 0.16154 0.84643 0.49542 0.0
O174 O 0.07234 0.78116 0.36713 0.0
O175 O 0.01089 0.67316 0.39726 0.0
C176 C 0.19619 0.83274 0.18043 0.0
C177 C 0.14712 0.78312 0.05202 0.0
C178 C 0.10571 0.75645 0.10789 0.0
C179 C 0.1301 0.78099 0.17151 0.0
C180 C 0.23703 0.86128 0.12467 0.0
C181 C 0.2125 0.83681 0.06071 0.0
C182 C 0.22306 0.85135 0.24826 0.0
C183 C 0.23796 0.7531 0.47661 0.0
C184 C 0.10433 0.63205 0.3402 0.0
C185 C 0.03449 0.63135 0.64996 0.0
C186 C 0.06699 0.67332 0.78381 0.0
C187 C 0.10887 0.71213 0.73166 0.0
C188 C 0.09264 0.69149 0.66564 0.0
C189 C -0.0067 0.59116 0.7014 0.0
C190 C 0.00948 0.61198 0.76794 0.0
C191 C 0.01763 0.61309 0.57955 0.0
H192 H 0.05483 0.71587 0.10246 0.0
H193 H 0.09787 0.75823 0.21403 0.0
H194 H 0.28822 0.90099 0.13072 0.0
H195 H 0.24531 0.85817 1.01826 0.0
H196 H 0.15434 0.7588 0.74176 0.0
H197 H 0.12533 0.72299 0.6266 0.0
H198 H 0.94849 0.54431 0.69011 0.0
H199 H -0.0238 0.58069 0.80662 0.0
Dy200 Dy 0.39273 0.23602 0.66916 0.0
Dy201 Dy 0.4001 0.13923 0.78754 0.0
C202 C 0.30216 0.0765 0.66491 0.0
O203 O 0.30976 0.21679 0.73841 0.0
O204 O 0.3438 0.18388 0.83084 0.0
O205 O 0.33803 0.25236 0.59216 0.0
O206 O 0.44473 0.31656 0.59881 0.0
O207 O 0.47842 0.24581 0.80749 0.0
O208 O 0.43867 0.30639 0.75473 0.0
O209 O 0.4466 0.12429 0.6957 0.0
O210 O 0.48468 0.23031 0.66091 0.0
O211 O 0.46087 0.11811 0.85245 0.0
O212 O 0.35387 0.06166 0.86165 0.0
C213 C 0.3063 0.20369 0.80256 0.0
O214 O 0.34245 0.13113 0.63255 0.0
O215 O 0.30872 0.0713 0.72916 0.0
C216 C 0.3988 0.27679 0.49259 0.0
C217 C 0.40782 0.23473 0.36234 0.0
C218 C 0.40986 0.19969 0.41812 0.0
C219 C 0.40504 0.2203 0.48233 0.0
C220 C 0.39807 0.31301 0.43727 0.0
C221 C 0.40276 0.29221 0.37248 0.0
C222 C 0.39214 0.29573 0.56135 0.0
C223 C 0.47524 0.30058 0.80087 0.0
C224 C 0.48331 0.17348 0.65489 0.0
C225 C 0.4156 0.10042 0.96029 0.0
C226 C 0.41987 0.14313 0.09337 0.0
C227 C 0.41632 0.18014 1.04027 0.0
C228 C 0.41371 0.1587 0.97468 0.0
C229 C 0.42058 0.06374 1.01286 0.0
C230 C 0.42261 0.08493 0.07909 0.0
C231 C 0.4105 0.07875 0.89019 0.0
H232 H 0.41522 0.1562 0.41213 0.0
H233 H 0.40596 0.19177 0.52424 0.0
H234 H 0.3933 0.35677 0.44409 0.0
H235 H 0.40114 0.32023 0.33032 0.0
H236 H 0.41361 0.22479 0.04952 0.0
H237 H 0.40916 0.18724 0.93493 0.0
H238 H 0.42221 0.01865 1.00281 0.0
H239 H 0.42625 0.05586 0.11907 0.0
C240 C 0.24874 0.26761 0.82341 0.0
C241 C 0.2683 0.22342 0.84693 0.0
C242 C 0.22524 0.29804 0.86706 0.0
C243 C 0.22039 0.28575 0.9362 0.0
H244 H 0.25483 0.28181 0.77141 0.0
H245 H 0.21374 0.33389 0.84625 0.0
S246 S 0.25347 0.16436 1.02139 0.0
N247 N 0.27233 0.16125 0.94254 0.0
N248 N 0.22898 0.21977 1.02486 0.0
C249 C 0.23528 0.23809 0.95986 0.0
C250 C 0.25887 0.20651 0.91516 0.0
C251 C 0.95155 0.24505 0.13319 0.0
C252 C 0.01624 0.27191 0.15899 0.0
C253 C 0.89594 0.21486 0.17527 0.0
C254 C 0.9036 0.21123 0.24427 0.0
H255 H 0.94388 0.25111 0.08111 0.0
H256 H 0.84733 0.19903 0.15445 0.0
S257 S 0.05999 0.26145 0.33488 0.0
N258 N 0.08304 0.28224 0.25671 0.0
N259 N -0.02154 0.22807 0.33541 0.0
C260 C -0.03302 0.23252 0.26979 0.0
C261 C 0.0234 0.26209 0.22713 0.0
C262 C 0.72968 0.02101 0.52809 0.0
C263 C 0.69789 0.01029 0.46573 0.0
C264 C 0.70432 0.97161 0.5773 0.0
C265 C 0.6478 0.90929 0.56478 0.0
H266 H 0.77314 0.06861 0.54012 0.0
H267 H 0.72885 -0.01775 0.6253 0.0
S268 S 0.54923 0.85304 0.40889 0.0
N269 N 0.60845 0.93056 0.39374 0.0
N270 N 0.56262 0.83731 0.48552 0.0
C271 C 0.61749 0.89644 0.50194 0.0
C272 C 0.64224 0.94698 0.45241 0.0
C273 C 0.71967 0.70455 0.79586 0.0
C274 C 0.69562 0.74878 0.80377 0.0
C275 C 0.74564 0.68768 0.85011 0.0
C276 C 0.74718 0.71347 0.91414 0.0
H277 H 0.71544 0.68029 0.74825 0.0
H278 H 0.75984 0.6503 0.84289 0.0
S279 S 0.69723 0.83615 0.96051 0.0
N280 N 0.68122 0.82304 0.87999 0.0
N281 N 0.72796 0.78869 0.98206 0.0
C282 C 0.72672 0.76017 0.92227 0.0
C283 C 0.70169 0.77873 0.86689 0.0
C284 C 0.94027 0.64508 0.27721 0.0
C285 C -0.02464 0.71049 0.30308 0.0
C286 C 0.91231 0.63227 0.21362 0.0
C287 C 0.91565 0.68381 0.17462 0.0
H288 H 0.93641 0.60348 0.30506 0.0
H289 H 0.88675 0.58123 0.19555 0.0
S290 S -0.00437 0.8627 0.22131 0.0
N291 N 0.00936 0.82731 0.28564 0.0
N292 N 0.95228 0.8018 0.16731 0.0
C293 C 0.94738 0.74887 0.20088 0.0
C294 C -0.02196 0.76251 0.26494 0.0
C295 C 0.23 0.95234 0.65035 0.0
C296 C 0.25505 0.01728 0.62527 0.0
C297 C 0.19488 0.89607 0.60898 0.0
C298 C 0.18426 0.90327 0.54144 0.0
H299 H 0.24062 0.94496 0.70104 0.0
H300 H 0.17988 0.84716 0.62882 0.0
S301 S 0.22794 0.06054 0.45484 0.0
N302 N 0.25724 0.08419 0.53107 0.0
N303 N 0.19348 -0.02159 0.45336 0.0
C304 C 0.20464 0.96716 0.5171 0.0
C305 C 0.23939 0.02423 0.55912 0.0
C306 C 0.18881 0.39215 0.59808 0.0
C307 C 0.16961 0.43836 0.61806 0.0
C308 C 0.21457 0.39423 0.53422 0.0
C309 C 0.222 0.44248 0.48763 0.0
H310 H 0.18312 0.35341 0.63188 0.0
H311 H 0.22735 0.3568 0.5207 0.0
S312 S 0.18511 0.57847 0.51671 0.0
N313 N 0.16395 0.53642 0.58724 0.0
N314 N 0.2119 0.54002 0.46701 0.0
C315 C 0.20421 0.48974 0.50723 0.0
C316 C 0.17807 0.48771 0.57236 0.0
C317 C 0.77953 0.19691 0.91279 0.0
C318 C 0.71031 0.15817 0.92301 0.0
C319 C 0.80631 0.21832 0.84891 0.0
C320 C 0.76492 0.20173 0.79274 0.0
H321 H 0.81338 0.21045 0.95454 0.0
H322 H 0.85986 0.24745 0.84339 0.0
S323 S 0.5804 0.10472 0.79296 0.0
N324 N 0.60099 0.1062 0.87183 0.0
N325 N 0.65111 0.14667 0.75188 0.0
C326 C 0.69561 0.16344 0.80233 0.0
C327 C 0.66839 0.14154 0.86734 0.0
C328 C 0.48395 0.69601 0.22989 0.0
C329 C 0.54519 0.71201 0.25915 0.0
C330 C 0.48099 0.71938 0.16626 0.0
C331 C 0.53915 0.76045 0.12962 0.0
H332 H 0.43788 0.66614 0.25679 0.0
H333 H 0.43282 0.70604 0.14598 0.0
S334 S 0.71144 0.81243 0.18035 0.0
N335 N 0.66512 0.76766 0.24352 0.0
N336 N 0.65932 0.81316 0.12548 0.0
C337 C 0.6005 0.7761 0.15769 0.0
C338 C 0.60357 0.75156 0.22194 0.0
C339 C 0.83258 0.64216 0.57103 0.0
C340 C 0.79213 0.58619 0.61084 0.0
C341 C 0.81209 0.64948 0.50751 0.0
C342 C 0.75018 0.60117 0.48076 0.0
H343 H 0.88084 0.68062 0.58894 0.0
H344 H 0.84498 0.69386 0.47936 0.0
S345 S 0.62559 0.4446 0.56439 0.0
N346 N 0.6865 0.48185 0.61912 0.0
N347 N 0.64933 0.49404 0.49886 0.0
C348 C 0.70937 0.5446 0.51986 0.0
C349 C 0.73006 0.53741 0.58485 0.0
C350 C 0.10866 0.76729 0.86707 0.0
C351 C 0.08335 0.69874 0.85376 0.0
C352 C 0.12869 0.7941 0.93126 0.0
C353 C 0.12306 0.75328 0.98506 0.0
H354 H 0.11334 0.80084 0.82744 0.0
H355 H 0.1486 0.84718 0.93891 0.0
S356 S 0.05956 0.571 0.9784 0.0
N357 N 0.05433 0.59084 0.90075 0.0
N358 N 0.08982 0.64112 1.02183 0.0
C359 C 0.09637 0.68453 0.97323 0.0
C360 C 0.07689 0.65727 0.90759 0.0
C361 C 0.4558 0.25454 0.24662 0.0
C362 C 0.41041 0.21054 0.294 0.0
C363 C 0.45962 0.23207 0.1824 0.0
C364 C 0.41818 0.16474 0.16309 0.0
H365 H 0.48905 0.30658 0.25948 0.0
H366 H 0.49535 0.2677 0.14752 0.0
S367 S 0.28724 0.03087 0.26677 0.0
N368 N 0.32096 0.09732 0.31598 0.0
N369 N 0.32802 0.0553 0.19553 0.0
C370 C 0.37227 0.12046 0.20981 0.0
C371 C 0.36838 0.1433 0.2751 0.0
C372 C 0.18124 0.55137 0.23966 0.0
C373 C 0.13803 0.5244 0.18441 0.0
C374 C 0.16663 0.58057 0.29365 0.0
C375 C 0.10907 0.5853 0.29373 0.0
H376 H 0.22742 0.55096 0.24106 0.0
H377 H 0.20258 0.60312 0.33363 0.0
S378 S -0.02161 0.52123 0.16357 0.0
N379 N 0.03316 0.50173 0.13564 0.0
N380 N 0.00788 0.55976 0.23561 0.0
C381 C 0.06491 0.55775 0.23981 0.0
C382 C 0.07883 0.52655 0.18552 0.0
C383 C 0.57255 0.20478 0.48856 0.0
C384 C 0.58697 0.15319 0.4844 0.0
C385 C 0.5394 0.21075 0.54421 0.0
C386 C 0.51791 0.16436 0.597 0.0
H387 H 0.59077 0.24322 0.45079 0.0
H388 H 0.53164 0.25297 0.54613 0.0
S389 S 0.54098 0.01769 0.60677 0.0
N390 N 0.57684 0.05411 0.53591 0.0
N391 N 0.51089 0.06281 0.63887 0.0
C392 C 0.52945 0.11062 0.59157 0.0
C393 C 0.56484 0.10567 0.53565 0.0
C394 C 0.31775 0.54581 0.86661 0.0
C395 C 0.3391 0.53255 0.92722 0.0
C396 C 0.36144 0.57518 0.81297 0.0
C397 C 0.4287 0.59471 0.81896 0.0
H398 H 0.26701 0.53439 0.86069 0.0
H399 H 0.34339 0.58665 0.76823 0.0
S400 S 0.51117 0.57465 0.96732 0.0
N401 N 0.4324 0.54113 0.98948 0.0
N402 N 0.5156 0.60066 0.89007 0.0
C403 C 0.451 0.58202 0.87906 0.0
C404 C 0.40602 0.55005 0.93294 0.0
C405 C 0.79158 0.3543 0.1859 0.0
C406 C 0.77478 0.35013 0.25404 0.0
C407 C 0.78917 0.40099 0.1439 0.0
C408 C 0.7701 0.44568 0.16836 0.0
H409 H 0.80583 0.3204 0.16433 0.0
H410 H 0.80209 0.40169 0.09187 0.0
S411 S 0.72307 0.45653 0.34389 0.0
N412 N 0.74012 0.39566 0.34451 0.0
N413 N 0.73553 0.48369 0.26643 0.0
C414 C 0.75492 0.44325 0.2371 0.0
C415 C 0.75751 0.39563 0.27976 0.0
C416 C 0.30865 0.77937 0.57766 0.0
C417 C 0.29613 0.75796 0.51068 0.0
C418 C 0.3586 0.77737 0.61431 0.0
C419 C 0.39737 0.7531 0.58556 0.0
H420 H 0.27912 0.7973 0.60225 0.0
H421 H 0.36652 0.79466 0.66558 0.0
S422 S 0.38051 0.68639 0.41267 0.0
N423 N 0.32477 0.71009 0.41745 0.0
N424 N 0.41734 0.70413 0.48615 0.0
C425 C 0.38493 0.73114 0.51837 0.0
C426 C 0.33477 0.7343 0.4809 0.0
C427 C 0.56473 0.39249 0.9588 0.0
C428 C 0.59513 0.45974 0.94031 0.0
C429 C 0.52539 0.34158 0.91333 0.0
C430 C 0.51335 0.35607 0.84854 0.0
H431 H 0.57544 0.37895 1.00679 0.0
H432 H 0.50604 0.29049 0.92858 0.0
S433 S 0.57779 0.52518 0.77817 0.0
N434 N 0.6089 0.53893 0.8543 0.0
N435 N 0.53188 0.44312 0.76997 0.0
C436 C 0.54014 0.42338 0.831 0.0
C437 C 0.58178 0.47524 0.87668 0.0
loop_
_geom_bond_atom_site_label_1
_geom_bond_atom_site_label_2
_geom_bond_distance
_geom_bond_site_symmetry_2
_ccdc_geom_bond_type
Dy0 O3 2.307 1_556 S
Dy0 O5 2.395 . S
Dy0 O6 2.379 . S
Dy0 O8 2.339 . S
Dy0 O10 2.298 . S
Dy0 O14 2.275 . S
Dy0 C22 2.738 . S
Dy1 O4 2.298 . S
Dy1 O7 2.275 . S
Dy1 O9 2.307 1_554 S
Dy1 O11 2.395 . S
Dy1 O12 2.379 . S
Dy1 O15 2.339 . S
Dy1 C31 2.738 . S
C2 O14 1.254 . S
C2 O15 1.257 1_556 S
O3 Dy0 2.307 1_554 S
O3 C13 1.266 . S
O4 Dy1 2.298 . S
O4 C13 1.236 . S
O5 Dy0 2.395 . S
O5 C22 1.255 . S
O6 Dy0 2.379 . S
O6 C22 1.249 . S
O7 Dy1 2.275 . S
O7 C23 1.254 . S
O8 Dy0 2.339 . S
O8 C23 1.257 1_556 S
O9 Dy1 2.307 1_556 S
O9 C24 1.266 . S
O10 Dy0 2.298 . S
O10 C24 1.236 . S
O11 Dy1 2.395 . S
O11 C31 1.255 . S
O12 Dy1 2.379 . S
O12 C31 1.249 . S
C13 O3 1.266 . S
C13 O4 1.236 . S
O14 Dy0 2.275 . S
O14 C2 1.254 . S
O15 Dy1 2.339 . S
O15 C2 1.257 1_554 S
C16 C19 1.344 . S
C16 C20 1.328 . S
C16 C22 1.516 . S
C17 C18 1.304 . S
C17 C21 1.323 . S
C18 C17 1.304 . S
C18 C19 1.371 . S
C18 H32 0.930 . S
C19 C16 1.344 . S
C19 C18 1.371 . S
C19 H33 0.931 . S
C20 C16 1.328 . S
C20 C21 1.433 . S
C20 H34 0.931 . S
C21 C17 1.323 . S
C21 C20 1.433 . S
C21 H35 0.933 . S
C22 Dy0 2.738 . S
C22 O5 1.255 . S
C22 O6 1.249 . S
C22 C16 1.516 . S
C23 O7 1.254 . S
C23 O8 1.257 1_554 S
C24 O9 1.266 . S
C24 O10 1.236 . S
C25 C28 1.344 . S
C25 C29 1.328 . S
C25 C31 1.516 . S
C26 C27 1.304 . S
C26 C30 1.323 . S
C27 C26 1.304 . S
C27 C28 1.371 . S
C27 H36 0.930 . S
C28 C25 1.344 . S
C28 C27 1.371 . S
C28 H37 0.931 . S
C29 C25 1.328 . S
C29 C30 1.433 . S
C29 H38 0.931 . S
C30 C26 1.323 . S
C30 C29 1.433 . S
C30 H39 0.933 . S
C31 Dy1 2.738 . S
C31 O11 1.255 . S
C31 O12 1.249 . S
C31 C25 1.516 . S
H32 C18 0.930 . S
H33 C19 0.931 . S
H34 C20 0.931 . S
H35 C21 0.933 . S
H36 C27 0.930 . S
H37 C28 0.931 . S
H38 C29 0.931 . S
H39 C30 0.933 . S
Dy40 O43 2.307 . S
Dy40 O45 2.395 . S
Dy40 O46 2.379 . S
Dy40 O48 2.339 . S
Dy40 O50 2.298 . S
Dy40 O54 2.275 . S
Dy40 C62 2.738 . S
Dy41 O44 2.298 . S
Dy41 O47 2.275 . S
Dy41 O49 2.307 . S
Dy41 O51 2.395 . S
Dy41 O52 2.379 . S
Dy41 O55 2.339 . S
Dy41 C71 2.738 . S
C42 O54 1.254 . S
C42 O55 1.257 . S
O43 Dy40 2.307 . S
O43 C53 1.266 . S
O44 Dy41 2.298 . S
O44 C53 1.236 . S
O45 Dy40 2.395 . S
O45 C62 1.255 . S
O46 Dy40 2.379 . S
O46 C62 1.249 . S
O47 Dy41 2.275 . S
O47 C63 1.254 . S
O48 Dy40 2.339 . S
O48 C63 1.257 . S
O49 Dy41 2.307 . S
O49 C64 1.266 . S
O50 Dy40 2.298 . S
O50 C64 1.236 . S
O51 Dy41 2.395 . S
O51 C71 1.255 . S
O52 Dy41 2.379 . S
O52 C71 1.249 . S
C53 O43 1.266 . S
C53 O44 1.236 . S
O54 Dy40 2.275 . S
O54 C42 1.254 . S
O55 Dy41 2.339 . S
O55 C42 1.257 . S
C56 C59 1.344 . S
C56 C60 1.328 . S
C56 C62 1.516 . S
C57 C58 1.304 . S
C57 C61 1.323 . S
C58 C57 1.304 . S
C58 C59 1.371 1_556 S
C58 H72 0.930 . S
C59 C56 1.344 . S
C59 C58 1.371 1_554 S
C59 H73 0.931 . S
C60 C56 1.328 . S
C60 C61 1.433 1_554 S
C60 H74 0.931 . S
C61 C57 1.323 . S
C61 C60 1.433 1_556 S
C61 H75 0.933 . S
C62 Dy40 2.738 . S
C62 O45 1.255 . S
C62 O46 1.249 . S
C62 C56 1.516 . S
C63 O47 1.254 . S
C63 O48 1.257 . S
C64 O49 1.266 . S
C64 O50 1.236 . S
C65 C68 1.344 . S
C65 C69 1.328 . S
C65 C71 1.516 . S
C66 C67 1.304 . S
C66 C70 1.323 . S
C67 C66 1.304 . S
C67 C68 1.371 . S
C67 H76 0.930 . S
C68 C65 1.344 . S
C68 C67 1.371 . S
C68 H77 0.931 . S
C69 C65 1.328 . S
C69 C70 1.433 . S
C69 H78 0.931 1_655 S
C70 C66 1.323 . S
C70 C69 1.433 . S
C70 H79 0.933 1_655 S
C71 Dy41 2.738 . S
C71 O51 1.255 . S
C71 O52 1.249 . S
C71 C65 1.516 . S
H72 C58 0.930 . S
H73 C59 0.931 . S
H74 C60 0.931 . S
H75 C61 0.933 . S
H76 C67 0.930 . S
H77 C68 0.931 . S
H78 C69 0.931 1_455 S
H79 C70 0.933 1_455 S
Dy80 O83 2.307 . S
Dy80 O85 2.395 . S
Dy80 O86 2.379 . S
Dy80 O88 2.339 . S
Dy80 O90 2.298 . S
Dy80 O94 2.275 . S
Dy80 C102 2.738 . S
Dy81 O84 2.298 . S
Dy81 O87 2.275 . S
Dy81 O89 2.307 . S
Dy81 O91 2.395 . S
Dy81 O92 2.379 . S
Dy81 O95 2.339 . S
Dy81 C111 2.738 . S
C82 O94 1.254 . S
C82 O95 1.257 . S
O83 Dy80 2.307 . S
O83 C93 1.266 . S
O84 Dy81 2.298 . S
O84 C93 1.236 . S
O85 Dy80 2.395 . S
O85 C102 1.255 . S
O86 Dy80 2.379 . S
O86 C102 1.249 . S
O87 Dy81 2.275 . S
O87 C103 1.254 . S
O88 Dy80 2.339 . S
O88 C103 1.257 . S
O89 Dy81 2.307 . S
O89 C104 1.266 . S
O90 Dy80 2.298 . S
O90 C104 1.236 . S
O91 Dy81 2.395 . S
O91 C111 1.255 . S
O92 Dy81 2.379 . S
O92 C111 1.249 . S
C93 O83 1.266 . S
C93 O84 1.236 . S
O94 Dy80 2.275 . S
O94 C82 1.254 . S
O95 Dy81 2.339 . S
O95 C82 1.257 . S
C96 C99 1.344 . S
C96 C100 1.328 . S
C96 C102 1.516 . S
C97 C98 1.304 . S
C97 C101 1.323 . S
C98 C97 1.304 . S
C98 C99 1.371 . S
C98 H112 0.930 . S
C99 C96 1.344 . S
C99 C98 1.371 . S
C99 H113 0.931 . S
C100 C96 1.328 . S
C100 C101 1.433 . S
C100 H114 0.931 . S
C101 C97 1.323 . S
C101 C100 1.433 . S
C101 H115 0.933 . S
C102 Dy80 2.738 . S
C102 O85 1.255 . S
C102 O86 1.249 . S
C102 C96 1.516 . S
C103 O87 1.254 . S
C103 O88 1.257 . S
C104 O89 1.266 . S
C104 O90 1.236 . S
C105 C108 1.344 . S
C105 C109 1.328 . S
C105 C111 1.516 . S
C106 C107 1.304 . S
C106 C110 1.323 . S
C107 C106 1.304 . S
C107 C108 1.371 1_554 S
C107 H116 0.930 . S
C108 C105 1.344 . S
C108 C107 1.371 1_556 S
C108 H117 0.931 . S
C109 C105 1.328 . S
C109 C110 1.433 1_556 S
C109 H118 0.931 1_565 S
C110 C106 1.323 . S
C110 C109 1.433 1_554 S
C110 H119 0.933 1_565 S
C111 Dy81 2.738 . S
C111 O91 1.255 . S
C111 O92 1.249 . S
C111 C105 1.516 . S
H112 C98 0.930 . S
H113 C99 0.931 . S
H114 C100 0.931 . S
H115 C101 0.933 . S
H116 C107 0.930 . S
H117 C108 0.931 . S
H118 C109 0.931 1_545 S
H119 C110 0.933 1_545 S
Dy120 O123 2.307 1_556 S
Dy120 O125 2.395 . S
Dy120 O126 2.379 . S
Dy120 O128 2.339 . S
Dy120 O130 2.298 . S
Dy120 O134 2.275 . S
Dy120 C142 2.738 . S
Dy121 O124 2.298 . S
Dy121 O127 2.275 . S
Dy121 O129 2.307 1_554 S
Dy121 O131 2.395 . S
Dy121 O132 2.379 . S
Dy121 O135 2.339 . S
Dy121 C151 2.738 . S
C122 O134 1.254 . S
C122 O135 1.257 1_556 S
O123 Dy120 2.307 1_554 S
O123 C133 1.266 . S
O124 Dy121 2.298 . S
O124 C133 1.236 . S
O125 Dy120 2.395 . S
O125 C142 1.255 . S
O126 Dy120 2.379 . S
O126 C142 1.249 . S
O127 Dy121 2.275 . S
O127 C143 1.254 . S
O128 Dy120 2.339 . S
O128 C143 1.257 1_556 S
O129 Dy121 2.307 1_556 S
O129 C144 1.266 . S
O130 Dy120 2.298 . S
O130 C144 1.236 . S
O131 Dy121 2.395 . S
O131 C151 1.255 . S
O132 Dy121 2.379 . S
O132 C151 1.249 . S
C133 O123 1.266 . S
C133 O124 1.236 . S
O134 Dy120 2.275 . S
O134 C122 1.254 . S
O135 Dy121 2.339 . S
O135 C122 1.257 1_554 S
C136 C139 1.344 . S
C136 C140 1.328 . S
C136 C142 1.516 . S
C137 C138 1.304 . S
C137 C141 1.323 . S
C138 C137 1.304 . S
C138 C139 1.371 . S
C138 H152 0.930 . S
C139 C136 1.344 . S
C139 C138 1.371 . S
C139 H153 0.931 . S
C140 C136 1.328 . S
C140 C141 1.433 . S
C140 H154 0.931 . S
C141 C137 1.323 . S
C141 C140 1.433 . S
C141 H155 0.933 . S
C142 Dy120 2.738 . S
C142 O125 1.255 . S
C142 O126 1.249 . S
C142 C136 1.516 . S
C143 O127 1.254 . S
C143 O128 1.257 1_554 S
C144 O129 1.266 . S
C144 O130 1.236 . S
C145 C148 1.344 . S
C145 C149 1.328 . S
C145 C151 1.516 . S
C146 C147 1.304 . S
C146 C150 1.323 . S
C147 C146 1.304 . S
C147 C148 1.371 . S
C147 H156 0.930 . S
C148 C145 1.344 . S
C148 C147 1.371 . S
C148 H157 0.931 . S
C149 C145 1.328 . S
C149 C150 1.433 . S
C149 H158 0.931 . S
C150 C146 1.323 . S
C150 C149 1.433 . S
C150 H159 0.933 . S
C151 Dy121 2.738 . S
C151 O131 1.255 . S
C151 O132 1.249 . S
C151 C145 1.516 . S
H152 C138 0.930 . S
H153 C139 0.931 . S
H154 C140 0.931 . S
H155 C141 0.933 . S
H156 C147 0.930 . S
H157 C148 0.931 . S
H158 C149 0.931 . S
H159 C150 0.933 . S
Dy160 O163 2.307 . S
Dy160 O165 2.395 . S
Dy160 O166 2.379 . S
Dy160 O168 2.339 . S
Dy160 O170 2.298 . S
Dy160 O174 2.275 . S
Dy160 C182 2.738 . S
Dy161 O164 2.298 . S
Dy161 O167 2.275 . S
Dy161 O169 2.307 . S
Dy161 O171 2.395 . S
Dy161 O172 2.379 . S
Dy161 O175 2.339 . S
Dy161 C191 2.738 . S
C162 O174 1.254 . S
C162 O175 1.257 . S
O163 Dy160 2.307 . S
O163 C173 1.266 . S
O164 Dy161 2.298 . S
O164 C173 1.236 . S
O165 Dy160 2.395 . S
O165 C182 1.255 . S
O166 Dy160 2.379 . S
O166 C182 1.249 . S
O167 Dy161 2.275 . S
O167 C183 1.254 . S
O168 Dy160 2.339 . S
O168 C183 1.257 . S
O169 Dy161 2.307 . S
O169 C184 1.266 . S
O170 Dy160 2.298 . S
O170 C184 1.236 . S
O171 Dy161 2.395 . S
O171 C191 1.255 . S
O172 Dy161 2.379 . S
O172 C191 1.249 . S
C173 O163 1.266 . S
C173 O164 1.236 . S
O174 Dy160 2.275 . S
O174 C162 1.254 . S
O175 Dy161 2.339 . S
O175 C162 1.257 . S
C176 C179 1.344 . S
C176 C180 1.328 . S
C176 C182 1.516 . S
C177 C178 1.304 . S
C177 C181 1.323 . S
C178 C177 1.304 . S
C178 C179 1.371 1_556 S
C178 H192 0.930 . S
C179 C176 1.344 . S
C179 C178 1.371 1_554 S
C179 H193 0.931 . S
C180 C176 1.328 . S
C180 C181 1.433 1_554 S
C180 H194 0.931 . S
C181 C177 1.323 . S
C181 C180 1.433 1_556 S
C181 H195 0.933 . S
C182 Dy160 2.738 . S
C182 O165 1.255 . S
C182 O166 1.249 . S
C182 C176 1.516 . S
C183 O167 1.254 . S
C183 O168 1.257 . S
C184 O169 1.266 . S
C184 O170 1.236 . S
C185 C188 1.344 . S
C185 C189 1.328 . S
C185 C191 1.516 . S
C186 C187 1.304 . S
C186 C190 1.323 . S
C187 C186 1.304 . S
C187 C188 1.371 . S
C187 H196 0.930 . S
C188 C185 1.344 . S
C188 C187 1.371 . S
C188 H197 0.931 . S
C189 C185 1.328 . S
C189 C190 1.433 . S
C189 H198 0.931 1_455 S
C190 C186 1.323 . S
C190 C189 1.433 . S
C190 H199 0.933 1_455 S
C191 Dy161 2.738 . S
C191 O171 1.255 . S
C191 O172 1.249 . S
C191 C185 1.516 . S
H192 C178 0.930 . S
H193 C179 0.931 . S
H194 C180 0.931 . S
H195 C181 0.933 . S
H196 C187 0.930 . S
H197 C188 0.931 . S
H198 C189 0.931 1_655 S
H199 C190 0.933 1_655 S
Dy200 O203 2.307 . S
Dy200 O205 2.395 . S
Dy200 O206 2.379 . S
Dy200 O208 2.339 . S
Dy200 O210 2.298 . S
Dy200 O214 2.275 . S
Dy200 C222 2.738 . S
Dy201 O204 2.298 . S
Dy201 O207 2.275 . S
Dy201 O209 2.307 . S
Dy201 O211 2.395 . S
Dy201 O212 2.379 . S
Dy201 O215 2.339 . S
Dy201 C231 2.738 . S
C202 O214 1.254 . S
C202 O215 1.257 . S
O203 Dy200 2.307 . S
O203 C213 1.266 . S
O204 Dy201 2.298 . S
O204 C213 1.236 . S
O205 Dy200 2.395 . S
O205 C222 1.255 . S
O206 Dy200 2.379 . S
O206 C222 1.249 . S
O207 Dy201 2.275 . S
O207 C223 1.254 . S
O208 Dy200 2.339 . S
O208 C223 1.257 . S
O209 Dy201 2.307 . S
O209 C224 1.266 . S
O210 Dy200 2.298 . S
O210 C224 1.236 . S
O211 Dy201 2.395 . S
O211 C231 1.255 . S
O212 Dy201 2.379 . S
O212 C231 1.249 . S
C213 O203 1.266 . S
C213 O204 1.236 . S
O214 Dy200 2.275 . S
O214 C202 1.254 . S
O215 Dy201 2.339 . S
O215 C202 1.257 . S
C216 C219 1.344 . S
C216 C220 1.328 . S
C216 C222 1.516 . S
C217 C218 1.304 . S
C217 C221 1.323 . S
C218 C217 1.304 . S
C218 C219 1.371 . S
C218 H232 0.930 . S
C219 C216 1.344 . S
C219 C218 1.371 . S
C219 H233 0.931 . S
C220 C216 1.328 . S
C220 C221 1.433 . S
C220 H234 0.931 . S
C221 C217 1.323 . S
C221 C220 1.433 . S
C221 H235 0.933 . S
C222 Dy200 2.738 . S
C222 O205 1.255 . S
C222 O206 1.249 . S
C222 C216 1.516 . S
C223 O207 1.254 . S
C223 O208 1.257 . S
C224 O209 1.266 . S
C224 O210 1.236 . S
C225 C228 1.344 . S
C225 C229 1.328 . S
C225 C231 1.516 . S
C226 C227 1.304 . S
C226 C230 1.323 . S
C227 C226 1.304 . S
C227 C228 1.371 1_554 S
C227 H236 0.930 . S
C228 C225 1.344 . S
C228 C227 1.371 1_556 S
C228 H237 0.931 . S
C229 C225 1.328 . S
C229 C230 1.433 1_556 S
C229 H238 0.931 1_545 S
C230 C226 1.323 . S
C230 C229 1.433 1_554 S
C230 H239 0.933 1_545 S
C231 Dy201 2.738 . S
C231 O211 1.255 . S
C231 O212 1.249 . S
C231 C225 1.516 . S
H232 C218 0.930 . S
H233 C219 0.931 . S
H234 C220 0.931 . S
H235 C221 0.933 . S
H236 C227 0.930 . S
H237 C228 0.931 . S
H238 C229 0.931 1_565 S
H239 C230 0.933 1_565 S
C240 C241 1.369 . S
C240 C242 1.419 . S
C240 H244 0.930 . S
C241 C240 1.369 . S
C241 C250 1.429 . S
C242 C240 1.419 . S
C242 C243 1.363 . S
C242 H245 0.929 . S
C243 C242 1.363 . S
C243 C249 1.428 . S
H244 C240 0.930 . S
H245 C242 0.929 . S
S246 N247 1.613 . S
S246 N248 1.610 . S
N247 S246 1.613 . S
N247 C250 1.350 . S
N248 S246 1.610 . S
N248 C249 1.351 . S
C249 C243 1.428 . S
C249 N248 1.351 . S
C249 C250 1.434 . S
C250 C241 1.429 . S
C250 N247 1.350 . S
C250 C249 1.434 . S
C251 C252 1.369 1_655 S
C251 C253 1.419 . S
C251 H255 0.930 . S
C252 C251 1.369 1_455 S
C252 C261 1.429 . S
C253 C251 1.419 . S
C253 C254 1.363 . S
C253 H256 0.929 . S
C254 C253 1.363 . S
C254 C260 1.428 1_655 S
H255 C251 0.930 . S
H256 C253 0.929 . S
S257 N258 1.613 . S
S257 N259 1.610 . S
N258 S257 1.613 . S
N258 C261 1.350 . S
N259 S257 1.610 . S
N259 C260 1.351 . S
C260 C254 1.428 1_455 S
C260 N259 1.351 . S
C260 C261 1.434 . S
C261 C252 1.429 . S
C261 N258 1.350 . S
C261 C260 1.434 . S
C262 C263 1.369 . S
C262 C264 1.419 . S
C262 H266 0.930 . S
C263 C262 1.369 . S
C263 C272 1.429 1_545 S
C264 C262 1.419 . S
C264 C265 1.363 1_545 S
C264 H267 0.929 . S
C265 C264 1.363 1_565 S
C265 C271 1.428 . S
H266 C262 0.930 . S
H267 C264 0.929 . S
S268 N269 1.613 . S
S268 N270 1.610 . S
N269 S268 1.613 . S
N269 C272 1.350 . S
N270 S268 1.610 . S
N270 C271 1.351 . S
C271 C265 1.428 . S
C271 N270 1.351 . S
C271 C272 1.434 . S
C272 C263 1.429 1_565 S
C272 N269 1.350 . S
C272 C271 1.434 . S
C273 C274 1.369 . S
C273 C275 1.419 . S
C273 H277 0.930 . S
C274 C273 1.369 . S
C274 C283 1.429 . S
C275 C273 1.419 . S
C275 C276 1.363 . S
C275 H278 0.929 . S
C276 C275 1.363 . S
C276 C282 1.428 . S
H277 C273 0.930 . S
H278 C275 0.929 . S
S279 N280 1.613 . S
S279 N281 1.610 . S
N280 S279 1.613 . S
N280 C283 1.350 . S
N281 S279 1.610 . S
N281 C282 1.351 . S
C282 C276 1.428 . S
C282 N281 1.351 . S
C282 C283 1.434 . S
C283 C274 1.429 . S
C283 N280 1.350 . S
C283 C282 1.434 . S
C284 C285 1.369 1_655 S
C284 C286 1.419 . S
C284 H288 0.930 . S
C285 C284 1.369 1_455 S
C285 C294 1.429 . S
C286 C284 1.419 . S
C286 C287 1.363 . S
C286 H289 0.929 . S
C287 C286 1.363 . S
C287 C293 1.428 1_655 S
H288 C284 0.930 . S
H289 C286 0.929 . S
S290 N291 1.613 . S
S290 N292 1.610 . S
N291 S290 1.613 . S
N291 C294 1.350 . S
N292 S290 1.610 . S
N292 C293 1.351 . S
C293 C287 1.428 1_455 S
C293 N292 1.351 . S
C293 C294 1.434 . S
C294 C285 1.429 . S
C294 N291 1.350 . S
C294 C293 1.434 . S
C295 C296 1.369 1_565 S
C295 C297 1.419 . S
C295 H299 0.930 . S
C296 C295 1.369 1_545 S
C296 C305 1.429 . S
C297 C295 1.419 . S
C297 C298 1.363 . S
C297 H300 0.929 . S
C298 C297 1.363 . S
C298 C304 1.428 1_565 S
H299 C295 0.930 . S
H300 C297 0.929 . S
S301 N302 1.613 . S
S301 N303 1.610 . S
N302 S301 1.613 . S
N302 C305 1.350 . S
N303 S301 1.610 . S
N303 C304 1.351 . S
C304 C298 1.428 1_545 S
C304 N303 1.351 . S
C304 C305 1.434 . S
C305 C296 1.429 . S
C305 N302 1.350 . S
C305 C304 1.434 . S
C306 C307 1.369 . S
C306 C308 1.419 . S
C306 H310 0.930 . S
C307 C306 1.369 . S
C307 C316 1.429 . S
C308 C306 1.419 . S
C308 C309 1.363 . S
C308 H311 0.929 . S
C309 C308 1.363 . S
C309 C315 1.428 . S
H310 C306 0.930 . S
H311 C308 0.929 . S
S312 N313 1.613 . S
S312 N314 1.610 . S
N313 S312 1.613 . S
N313 C316 1.350 . S
N314 S312 1.610 . S
N314 C315 1.351 . S
C315 C309 1.428 . S
C315 N314 1.351 . S
C315 C316 1.434 . S
C316 C307 1.429 . S
C316 N313 1.350 . S
C316 C315 1.434 . S
C317 C318 1.369 . S
C317 C319 1.419 . S
C317 H321 0.930 . S
C318 C317 1.369 . S
C318 C327 1.429 . S
C319 C317 1.419 . S
C319 C320 1.363 . S
C319 H322 0.929 . S
C320 C319 1.363 . S
C320 C326 1.428 . S
H321 C317 0.930 . S
H322 C319 0.929 . S
S323 N324 1.613 . S
S323 N325 1.610 . S
N324 S323 1.613 . S
N324 C327 1.350 . S
N325 S323 1.610 . S
N325 C326 1.351 . S
C326 C320 1.428 . S
C326 N325 1.351 . S
C326 C327 1.434 . S
C327 C318 1.429 . S
C327 N324 1.350 . S
C327 C326 1.434 . S
C328 C329 1.369 . S
C328 C330 1.419 . S
C328 H332 0.930 . S
C329 C328 1.369 . S
C329 C338 1.429 . S
C330 C328 1.419 . S
C330 C331 1.363 . S
C330 H333 0.929 . S
C331 C330 1.363 . S
C331 C337 1.428 . S
H332 C328 0.930 . S
H333 C330 0.929 . S
S334 N335 1.613 . S
S334 N336 1.610 . S
N335 S334 1.613 . S
N335 C338 1.350 . S
N336 S334 1.610 . S
N336 C337 1.351 . S
C337 C331 1.428 . S
C337 N336 1.351 . S
C337 C338 1.434 . S
C338 C329 1.429 . S
C338 N335 1.350 . S
C338 C337 1.434 . S
C339 C340 1.369 . S
C339 C341 1.419 . S
C339 H343 0.930 . S
C340 C339 1.369 . S
C340 C349 1.429 . S
C341 C339 1.419 . S
C341 C342 1.363 . S
C341 H344 0.929 . S
C342 C341 1.363 . S
C342 C348 1.428 . S
H343 C339 0.930 . S
H344 C341 0.929 . S
S345 N346 1.613 . S
S345 N347 1.610 . S
N346 S345 1.613 . S
N346 C349 1.350 . S
N347 S345 1.610 . S
N347 C348 1.351 . S
C348 C342 1.428 . S
C348 N347 1.351 . S
C348 C349 1.434 . S
C349 C340 1.429 . S
C349 N346 1.350 . S
C349 C348 1.434 . S
C350 C351 1.369 . S
C350 C352 1.419 . S
C350 H354 0.930 . S
C351 C350 1.369 . S
C351 C360 1.429 . S
C352 C350 1.419 . S
C352 C353 1.363 . S
C352 H355 0.929 . S
C353 C352 1.363 . S
C353 C359 1.428 . S
H354 C350 0.930 . S
H355 C352 0.929 . S
S356 N357 1.613 . S
S356 N358 1.610 . S
N357 S356 1.613 . S
N357 C360 1.350 . S
N358 S356 1.610 . S
N358 C359 1.351 . S
C359 C353 1.428 . S
C359 N358 1.351 . S
C359 C360 1.434 . S
C360 C351 1.429 . S
C360 N357 1.350 . S
C360 C359 1.434 . S
C361 C362 1.369 . S
C361 C363 1.419 . S
C361 H365 0.930 . S
C362 C361 1.369 . S
C362 C371 1.429 . S
C363 C361 1.419 . S
C363 C364 1.363 . S
C363 H366 0.929 . S
C364 C363 1.363 . S
C364 C370 1.428 . S
H365 C361 0.930 . S
H366 C363 0.929 . S
S367 N368 1.613 . S
S367 N369 1.610 . S
N368 S367 1.613 . S
N368 C371 1.350 . S
N369 S367 1.610 . S
N369 C370 1.351 . S
C370 C364 1.428 . S
C370 N369 1.351 . S
C370 C371 1.434 . S
C371 C362 1.429 . S
C371 N368 1.350 . S
C371 C370 1.434 . S
C372 C373 1.369 . S
C372 C374 1.419 . S
C372 H376 0.930 . S
C373 C372 1.369 . S
C373 C382 1.429 . S
C374 C372 1.419 . S
C374 C375 1.363 . S
C374 H377 0.929 . S
C375 C374 1.363 . S
C375 C381 1.428 . S
H376 C372 0.930 . S
H377 C374 0.929 . S
S378 N379 1.613 . S
S378 N380 1.610 . S
N379 S378 1.613 . S
N379 C382 1.350 . S
N380 S378 1.610 . S
N380 C381 1.351 . S
C381 C375 1.428 . S
C381 N380 1.351 . S
C381 C382 1.434 . S
C382 C373 1.429 . S
C382 N379 1.350 . S
C382 C381 1.434 . S
C383 C384 1.369 . S
C383 C385 1.419 . S
C383 H387 0.930 . S
C384 C383 1.369 . S
C384 C393 1.429 . S
C385 C383 1.419 . S
C385 C386 1.363 . S
C385 H388 0.929 . S
C386 C385 1.363 . S
C386 C392 1.428 . S
H387 C383 0.930 . S
H388 C385 0.929 . S
S389 N390 1.613 . S
S389 N391 1.610 . S
N390 S389 1.613 . S
N390 C393 1.350 . S
N391 S389 1.610 . S
N391 C392 1.351 . S
C392 C386 1.428 . S
C392 N391 1.351 . S
C392 C393 1.434 . S
C393 C384 1.429 . S
C393 N390 1.350 . S
C393 C392 1.434 . S
C394 C395 1.369 . S
C394 C396 1.419 . S
C394 H398 0.930 . S
C395 C394 1.369 . S
C395 C404 1.429 . S
C396 C394 1.419 . S
C396 C397 1.363 . S
C396 H399 0.929 . S
C397 C396 1.363 . S
C397 C403 1.428 . S
H398 C394 0.930 . S
H399 C396 0.929 . S
S400 N401 1.613 . S
S400 N402 1.610 . S
N401 S400 1.613 . S
N401 C404 1.350 . S
N402 S400 1.610 . S
N402 C403 1.351 . S
C403 C397 1.428 . S
C403 N402 1.351 . S
C403 C404 1.434 . S
C404 C395 1.429 . S
C404 N401 1.350 . S
C404 C403 1.434 . S
C405 C406 1.369 . S
C405 C407 1.419 . S
C405 H409 0.930 . S
C406 C405 1.369 . S
C406 C415 1.429 . S
C407 C405 1.419 . S
C407 C408 1.363 . S
C407 H410 0.929 . S
C408 C407 1.363 . S
C408 C414 1.428 . S
H409 C405 0.930 . S
H410 C407 0.929 . S
S411 N412 1.613 . S
S411 N413 1.610 . S
N412 S411 1.613 . S
N412 C415 1.350 . S
N413 S411 1.610 . S
N413 C414 1.351 . S
C414 C408 1.428 . S
C414 N413 1.351 . S
C414 C415 1.434 . S
C415 C406 1.429 . S
C415 N412 1.350 . S
C415 C414 1.434 . S
C416 C417 1.369 . S
C416 C418 1.419 . S
C416 H420 0.930 . S
C417 C416 1.369 . S
C417 C426 1.429 . S
C418 C416 1.419 . S
C418 C419 1.363 . S
C418 H421 0.929 . S
C419 C418 1.363 . S
C419 C425 1.428 . S
H420 C416 0.930 . S
H421 C418 0.929 . S
S422 N423 1.613 . S
S422 N424 1.610 . S
N423 S422 1.613 . S
N423 C426 1.350 . S
N424 S422 1.610 . S
N424 C425 1.351 . S
C425 C419 1.428 . S
C425 N424 1.351 . S
C425 C426 1.434 . S
C426 C417 1.429 . S
C426 N423 1.350 . S
C426 C425 1.434 . S
C427 C428 1.369 . S
C427 C429 1.419 . S
C427 H431 0.930 . S
C428 C427 1.369 . S
C428 C437 1.429 . S
C429 C427 1.419 . S
C429 C430 1.363 . S
C429 H432 0.929 . S
C430 C429 1.363 . S
C430 C436 1.428 . S
H431 C427 0.930 . S
H432 C429 0.929 . S
S433 N434 1.613 . S
S433 N435 1.610 . S
N434 S433 1.613 . S
N434 C437 1.350 . S
N435 S433 1.610 . S
N435 C436 1.351 . S
C436 C430 1.428 . S
C436 N435 1.351 . S
C436 C437 1.434 . S
C437 C428 1.429 . S
C437 N434 1.350 . S
C437 C436 1.434 . S
C241 C213 1.537 . S
C243 C2 1.542 . S
C252 C13 1.537 . S
C254 C42 1.542 . S
C263 C53 1.538 . S
C265 C82 1.537 . S
C274 C93 1.536 . S
C276 C122 1.541 . S
C285 C162 1.540 . S
C287 C133 1.541 . S
C296 C202 1.540 . S
C298 C173 1.541 . S
C307 C17 2.099 . S
C309 C26 2.089 . S
C318 C57 2.099 . S
C320 C66 2.089 . S
C329 C97 2.088 . S
C331 C106 2.098 . S
C340 C137 2.097 . S
C342 C146 2.090 . S
C351 C186 2.099 . S
C353 C177 2.089 . S
C362 C217 2.087 . S
C364 C226 2.098 . S
C373 C23 1.764 . S
C375 C184 1.741 . S
C384 C63 1.763 . S
C386 C224 1.744 . S
C395 C24 1.743 . S
C397 C103 1.763 . S
C406 C64 1.741 . S
C408 C143 1.763 . S
C417 C183 1.763 . S
C419 C104 1.741 . S
C428 C144 1.740 . S
C430 C223 1.764 . S
