# Generated by pormake.
# Topology wjd, (6)-cn, num edge types: 1
# Building blocks:
#     Node 0, Type 0, BuildingBlock: CUKXOW_clean_sbu_0, # of connection points: 6
#     Node 1, Type 0, BuildingBlock: CUKXOW_clean_sbu_0, # of connection points: 6
#     Node 2, Type 0, BuildingBlock: CUKXOW_clean_sbu_0, # of connection points: 6
#     Node 3, Type 0, BuildingBlock: CUKXOW_clean_sbu_0, # of connection points: 6
#     Node 4, Type 0, BuildingBlock: CUKXOW_clean_sbu_0, # of connection points: 6
#     Node 5, Type 0, BuildingBlock: CUKXOW_clean_sbu_0, # of connection points: 6
#     Node 6, Type 0, BuildingBlock: CUKXOW_clean_sbu_0, # of connection points: 6
#     Node 7, Type 0, BuildingBlock: CUKXOW_clean_sbu_0, # of connection points: 6
#     Node 8, Type 0, BuildingBlock: CUKXOW_clean_sbu_0, # of connection points: 6
#     Node 9, Type 0, BuildingBlock: CUKXOW_clean_sbu_0, # of connection points: 6
#     Node 10, Type 0, BuildingBlock: CUKXOW_clean_sbu_0, # of connection points: 6
#     Node 11, Type 0, BuildingBlock: CUKXOW_clean_sbu_0, # of connection points: 6
#     Edge 12, Type (0, 0), BuildingBlock: XUDNAN_clean_linker_2, # of connection points: 2
#     Edge 13, Type (0, 0), BuildingBlock: XUDNAN_clean_linker_2, # of connection points: 2
#     Edge 14, Type (0, 0), BuildingBlock: XUDNAN_clean_linker_2, # of connection points: 2
#     Edge 15, Type (0, 0), BuildingBlock: XUDNAN_clean_linker_2, # of connection points: 2
#     Edge 16, Type (0, 0), BuildingBlock: XUDNAN_clean_linker_2, # of connection points: 2
#     Edge 17, Type (0, 0), BuildingBlock: XUDNAN_clean_linker_2, # of connection points: 2
#     Edge 18, Type (0, 0), BuildingBlock: XUDNAN_clean_linker_2, # of connection points: 2
#     Edge 19, Type (0, 0), BuildingBlock: XUDNAN_clean_linker_2, # of connection points: 2
#     Edge 20, Type (0, 0), BuildingBlock: XUDNAN_clean_linker_2, # of connection points: 2
#     Edge 21, Type (0, 0), BuildingBlock: XUDNAN_clean_linker_2, # of connection points: 2
#     Edge 22, Type (0, 0), BuildingBlock: XUDNAN_clean_linker_2, # of connection points: 2
#     Edge 23, Type (0, 0), BuildingBlock: XUDNAN_clean_linker_2, # of connection points: 2
#     Edge 24, Type (0, 0), BuildingBlock: XUDNAN_clean_linker_2, # of connection points: 2
#     Edge 25, Type (0, 0), BuildingBlock: XUDNAN_clean_linker_2, # of connection points: 2
#     Edge 26, Type (0, 0), BuildingBlock: XUDNAN_clean_linker_2, # of connection points: 2
#     Edge 27, Type (0, 0), BuildingBlock: XUDNAN_clean_linker_2, # of connection points: 2
#     Edge 28, Type (0, 0), BuildingBlock: XUDNAN_clean_linker_2, # of connection points: 2
#     Edge 29, Type (0, 0), BuildingBlock: XUDNAN_clean_linker_2, # of connection points: 2
#     Edge 30, Type (0, 0), BuildingBlock: XUDNAN_clean_linker_2, # of connection points: 2
#     Edge 31, Type (0, 0), BuildingBlock: XUDNAN_clean_linker_2, # of connection points: 2
#     Edge 32, Type (0, 0), BuildingBlock: XUDNAN_clean_linker_2, # of connection points: 2
#     Edge 33, Type (0, 0), BuildingBlock: XUDNAN_clean_linker_2, # of connection points: 2
#     Edge 34, Type (0, 0), BuildingBlock: XUDNAN_clean_linker_2, # of connection points: 2
#     Edge 35, Type (0, 0), BuildingBlock: XUDNAN_clean_linker_2, # of connection points: 2
#     Edge 36, Type (0, 0), BuildingBlock: XUDNAN_clean_linker_2, # of connection points: 2
#     Edge 37, Type (0, 0), BuildingBlock: XUDNAN_clean_linker_2, # of connection points: 2
#     Edge 38, Type (0, 0), BuildingBlock: XUDNAN_clean_linker_2, # of connection points: 2
#     Edge 39, Type (0, 0), BuildingBlock: XUDNAN_clean_linker_2, # of connection points: 2
#     Edge 40, Type (0, 0), BuildingBlock: XUDNAN_clean_linker_2, # of connection points: 2
#     Edge 41, Type (0, 0), BuildingBlock: XUDNAN_clean_linker_2, # of connection points: 2
#     Edge 42, Type (0, 0), BuildingBlock: XUDNAN_clean_linker_2, # of connection points: 2
#     Edge 43, Type (0, 0), BuildingBlock: XUDNAN_clean_linker_2, # of connection points: 2
#     Edge 44, Type (0, 0), BuildingBlock: XUDNAN_clean_linker_2, # of connection points: 2
#     Edge 45, Type (0, 0), BuildingBlock: XUDNAN_clean_linker_2, # of connection points: 2
#     Edge 46, Type (0, 0), BuildingBlock: XUDNAN_clean_linker_2, # of connection points: 2
#     Edge 47, Type (0, 0), BuildingBlock: XUDNAN_clean_linker_2, # of connection points: 2
# Relax obj value: 0.060
# Max RMSD: 0.159
# Mean RMSD: 0.159
data_MOF--net-wjd--node1-CUKXOW_clean_sbu_0--edge1-XUDNAN_clean_linker_2
_symmetry_space_group_name_H-M    P1
_symmetry_Int_Tables_number       1
_symmetry_cell_setting            triclinic
loop_
_symmetry_equiv_pos_as_xyz
'x, y, z'
_cell_length_a     31.837455
_cell_length_b     31.777278
_cell_length_c     56.734783
_cell_angle_alpha  89.889503
_cell_angle_beta   90.022925
_cell_angle_gamma 119.89486
loop_
_atom_site_label
_atom_site_type_symbol
_atom_site_fract_x
_atom_site_fract_y
_atom_site_fract_z
_atom_type_partial_charge
Tb0 Tb 0.39832 0.14885 0.12233 0.0
C1 C 0.32808 0.12501 0.07927 0.0
Tb2 Tb 0.31199 0.16646 0.12763 0.0
O3 O 0.352 0.07111 0.11721 0.0
O4 O 0.32722 0.11059 0.1363 0.0
O5 O 0.37228 0.13534 0.08598 0.0
C6 C 0.22777 0.16556 0.12988 0.0
O7 O 0.29803 0.13127 0.0932 0.0
C8 C 0.39782 0.24409 0.12234 0.0
C9 C 0.37203 0.175 0.17266 0.0
O10 O 0.26443 0.19451 0.11685 0.0
O11 O 0.23833 0.13671 0.1414 0.0
O12 O 0.36303 0.24366 0.13442 0.0
O13 O 0.38229 0.20345 0.11263 0.0
O14 O 0.32935 0.16636 0.1646 0.0
O15 O 0.40599 0.17565 0.1587 0.0
C16 C 0.48859 0.16413 0.11874 0.0
O17 O 0.45429 0.13031 0.13137 0.0
O18 O 0.47187 0.18886 0.10813 0.0
C19 C 0.31444 0.06972 0.1271 0.0
Tb20 Tb 0.87974 0.72754 0.39315 0.0
C21 C 0.83959 0.66979 0.34597 0.0
Tb22 Tb 0.77459 0.64399 0.39254 0.0
O23 O 0.90582 0.6761 0.38913 0.0
O24 O 0.84113 0.65613 0.40697 0.0
O25 O 0.87285 0.71178 0.35534 0.0
C26 C 0.69977 0.55338 0.39386 0.0
O27 O 0.80157 0.63672 0.35813 0.0
C28 C 0.78806 0.73138 0.38469 0.0
C29 C 0.81062 0.70606 0.43786 0.0
O30 O 0.69896 0.58986 0.38382 0.0
O31 O 0.74217 0.56822 0.40282 0.0
O32 O 0.74902 0.69726 0.39474 0.0
O33 O 0.81402 0.71423 0.3783 0.0
O34 O 0.78059 0.66246 0.42935 0.0
O35 O 0.84776 0.73969 0.42541 0.0
C36 C 0.9643 0.8082 0.4003 0.0
O37 O 0.94669 0.76875 0.41268 0.0
O38 O 0.93423 0.80256 0.38343 0.0
C39 C 0.86815 0.64079 0.39919 0.0
Tb40 Tb 0.89611 0.26017 0.12834 0.0
C41 C 0.92995 0.22151 0.08612 0.0
Tb42 Tb 0.87113 0.15325 0.12994 0.0
O43 O 0.97446 0.28522 0.12886 0.0
O44 O 0.92397 0.21976 0.14426 0.0
O45 O 0.91965 0.25545 0.09284 0.0
C46 C 0.87014 0.06888 0.13003 0.0
O47 O 0.91689 0.18126 0.09854 0.0
C48 C 0.79821 0.16748 0.12201 0.0
C49 C 0.85311 0.19647 0.17539 0.0
O50 O 0.84287 0.07892 0.11691 0.0
O51 O 0.89776 0.10622 0.14291 0.0
O52 O 0.79416 0.1293 0.13248 0.0
O53 O 0.84097 0.19337 0.11451 0.0
O54 O 0.86276 0.1632 0.16711 0.0
O55 O 0.85686 0.23283 0.16206 0.0
C56 C 0.88897 0.34046 0.13012 0.0
O57 O 0.91261 0.32875 0.14487 0.0
O58 O 0.87007 0.3074 0.1139 0.0
C59 C 0.96786 0.24556 0.13897 0.0
Tb60 Tb 0.30938 0.16656 0.39187 0.0
C61 C 0.36448 0.17013 0.34597 0.0
Tb62 Tb 0.38901 0.13909 0.39542 0.0
O63 O 0.36402 0.24076 0.38302 0.0
O64 O 0.38164 0.19936 0.40519 0.0
O65 O 0.32262 0.16359 0.35435 0.0
C66 C 0.47258 0.13806 0.39405 0.0
O67 O 0.39751 0.16849 0.35969 0.0
C68 C 0.30096 0.06502 0.39214 0.0
C69 C 0.32465 0.12236 0.43984 0.0
O70 O 0.43361 0.10955 0.38234 0.0
O71 O 0.46452 0.16723 0.40677 0.0
O72 O 0.33699 0.0629 0.40165 0.0
O73 O 0.31686 0.10617 0.38264 0.0
O74 O 0.36752 0.1299 0.43243 0.0
O75 O 0.29538 0.13066 0.42628 0.0
C76 C 0.23573 0.18438 0.39524 0.0
O77 O 0.27678 0.20706 0.40619 0.0
O78 O 0.23529 0.15021 0.38239 0.0
C79 C 0.39845 0.23933 0.39445 0.0
Tb80 Tb 0.78252 0.64344 0.12448 0.0
C81 C 0.8236 0.71611 0.08217 0.0
Tb82 Tb 0.89008 0.72618 0.12679 0.0
O83 O 0.75705 0.69689 0.12357 0.0
O84 O 0.82238 0.71263 0.13919 0.0
O85 O 0.79031 0.67147 0.0886 0.0
C86 C 0.9774 0.80436 0.1208 0.0
O87 O 0.86196 0.74416 0.09542 0.0
C88 C 0.87665 0.63826 0.12211 0.0
C89 C 0.84235 0.66852 0.17316 0.0
O90 O 0.95721 0.76673 0.10715 0.0
O91 O 0.94824 0.7983 0.13822 0.0
O92 O 0.91422 0.67393 0.13194 0.0
O93 O 0.85079 0.65428 0.11335 0.0
O94 O 0.87716 0.71049 0.16439 0.0
O95 O 0.80581 0.63552 0.16007 0.0
C96 C 0.70579 0.55411 0.12105 0.0
O97 O 0.70839 0.5883 0.13463 0.0
O98 O 0.74619 0.5704 0.10955 0.0
C99 C 0.79672 0.73056 0.13335 0.0
Tb100 Tb 0.87035 0.15652 0.39685 0.0
C101 C 0.86026 0.20213 0.34828 0.0
Tb102 Tb 0.88951 0.25985 0.39562 0.0
O103 O 0.80044 0.13213 0.41404 0.0
O104 O 0.82764 0.19024 0.39165 0.0
O105 O 0.86808 0.16875 0.35844 0.0
C106 C 0.8783 0.33696 0.4025 0.0
O107 O 0.85978 0.23726 0.36061 0.0
C108 C 0.96496 0.24961 0.38528 0.0
C109 C 0.90641 0.21848 0.44346 0.0
O110 O 0.91022 0.33582 0.38866 0.0
O111 O 0.8533 0.29498 0.41262 0.0
O112 O 0.96089 0.28677 0.37895 0.0
O113 O 0.93172 0.22563 0.39976 0.0
O114 O 0.89517 0.24929 0.43332 0.0
O115 O 0.90649 0.18271 0.43126 0.0
C116 C 0.86857 0.07214 0.39087 0.0
O117 O 0.84656 0.08158 0.40746 0.0
O118 O 0.89197 0.11036 0.37772 0.0
C119 C 0.79393 0.16666 0.40606 0.0
Tb120 Tb 0.15918 0.29854 0.62902 0.0
C121 C 0.17599 0.3527 0.67729 0.0
Tb122 Tb 0.1424 0.38579 0.63145 0.0
O123 O 0.23716 0.34815 0.63434 0.0
O124 O 0.19519 0.37158 0.61689 0.0
O125 O 0.16447 0.31036 0.66727 0.0
C126 C 0.16051 0.47764 0.62974 0.0
O127 O 0.17548 0.38871 0.66554 0.0
C128 C 0.0633 0.30037 0.63605 0.0
C129 C 0.10948 0.32259 0.58605 0.0
O130 O 0.12786 0.44371 0.64308 0.0
O131 O 0.1824 0.45963 0.6178 0.0
O132 O 0.06361 0.33952 0.62888 0.0
O133 O 0.10555 0.31225 0.64282 0.0
O134 O 0.12642 0.36684 0.59469 0.0
O135 O 0.11455 0.28855 0.59732 0.0
C136 C 0.16402 0.21824 0.62061 0.0
O137 O 0.18248 0.25708 0.60771 0.0
O138 O 0.1419 0.2241 0.63852 0.0
C139 C 0.23688 0.38514 0.62493 0.0
Tb140 Tb 0.26693 0.88473 0.89759 0.0
C141 C 0.22313 0.91619 0.93854 0.0
Tb142 Tb 0.16259 0.86413 0.89196 0.0
O143 O 0.2946 0.96361 0.89905 0.0
O144 O 0.2318 0.91704 0.88045 0.0
O145 O 0.25659 0.90455 0.93295 0.0
C146 C 0.07937 0.86463 0.88953 0.0
O147 O 0.18593 0.90665 0.92452 0.0
C148 C 0.17199 0.78825 0.90021 0.0
C149 C 0.21279 0.85061 0.84759 0.0
O150 O 0.08741 0.83623 0.9029 0.0
O151 O 0.1182 0.89284 0.87763 0.0
O152 O 0.13703 0.78691 0.88791 0.0
O153 O 0.19736 0.83009 0.90893 0.0
O154 O 0.17789 0.85847 0.85523 0.0
O155 O 0.24778 0.85372 0.86172 0.0
C156 C 0.34204 0.87005 0.90251 0.0
O157 O 0.29973 0.84409 0.91201 0.0
O158 O 0.34241 0.90485 0.89026 0.0
C159 C 0.25775 0.95999 0.88731 0.0
Tb160 Tb 0.72964 0.87052 0.6263 0.0
C161 C 0.67216 0.83153 0.67377 0.0
Tb162 Tb 0.64228 0.76573 0.62788 0.0
O163 O 0.67938 0.89819 0.63099 0.0
O164 O 0.65727 0.83321 0.61333 0.0
O165 O 0.71503 0.86246 0.66428 0.0
C166 C 0.55109 0.69052 0.62613 0.0
O167 O 0.63696 0.79535 0.66167 0.0
C168 C 0.72726 0.77208 0.63403 0.0
C169 C 0.70863 0.79774 0.58329 0.0
O170 O 0.58515 0.69312 0.63979 0.0
O171 O 0.56858 0.73006 0.61379 0.0
O172 O 0.68856 0.73313 0.62685 0.0
O173 O 0.71517 0.80276 0.6402 0.0
O174 O 0.66441 0.76851 0.59156 0.0
O175 O 0.74131 0.83713 0.59474 0.0
C176 C 0.80907 0.9577 0.61971 0.0
O177 O 0.77059 0.93801 0.60663 0.0
O178 O 0.80354 0.92755 0.63662 0.0
C179 C 0.64317 0.86116 0.62117 0.0
Tb180 Tb 0.14899 0.38558 0.89857 0.0
C181 C 0.1422 0.32872 0.94656 0.0
Tb182 Tb 0.18506 0.31048 0.89918 0.0
O183 O 0.07659 0.33078 0.88491 0.0
O184 O 0.12074 0.31169 0.90344 0.0
O185 O 0.14248 0.36692 0.93651 0.0
C186 C 0.19436 0.23231 0.89216 0.0
O187 O 0.15241 0.29897 0.93439 0.0
C188 C 0.25177 0.40217 0.90531 0.0
C189 C 0.17772 0.35719 0.85035 0.0
O190 O 0.21495 0.26366 0.90899 0.0
O191 O 0.16892 0.24516 0.87932 0.0
O192 O 0.25561 0.36569 0.91292 0.0
O193 O 0.21445 0.38517 0.89284 0.0
O194 O 0.17915 0.32047 0.861 0.0
O195 O 0.17297 0.39075 0.86217 0.0
C196 C 0.15646 0.47183 0.90625 0.0
O197 O 0.12418 0.43808 0.89272 0.0
O198 O 0.18369 0.45655 0.91557 0.0
C199 C 0.08324 0.29499 0.89129 0.0
Tb200 Tb 0.15975 0.86811 0.62944 0.0
C201 C 0.2121 0.86088 0.67447 0.0
Tb202 Tb 0.26545 0.89019 0.62435 0.0
O203 O 0.13737 0.79252 0.63739 0.0
O204 O 0.1959 0.83283 0.61499 0.0
O205 O 0.17727 0.86904 0.66669 0.0
C206 C 0.34186 0.87674 0.62003 0.0
O207 O 0.24582 0.86159 0.66031 0.0
C208 C 0.25642 0.96739 0.62983 0.0
C209 C 0.21927 0.91518 0.58181 0.0
O210 O 0.33953 0.90768 0.63419 0.0
O211 O 0.3016 0.85414 0.6084 0.0
O212 O 0.29406 0.96815 0.62033 0.0
O213 O 0.22945 0.92556 0.63831 0.0
O214 O 0.2531 0.90451 0.58813 0.0
O215 O 0.18276 0.9076 0.59592 0.0
C216 C 0.06971 0.85401 0.62514 0.0
O217 O 0.08891 0.83357 0.61288 0.0
O218 O 0.10183 0.8838 0.64013 0.0
C219 C 0.17195 0.79255 0.6254 0.0
Tb220 Tb 0.65476 0.77253 0.89344 0.0
C221 C 0.72079 0.81523 0.93804 0.0
Tb222 Tb 0.73316 0.87823 0.89156 0.0
O223 O 0.70967 0.74964 0.89411 0.0
O224 O 0.72253 0.81306 0.87707 0.0
O225 O 0.68048 0.77812 0.92952 0.0
C226 C 0.81646 0.96135 0.89021 0.0
O227 O 0.74649 0.85666 0.92625 0.0
C228 C 0.6467 0.86429 0.90054 0.0
C229 C 0.67335 0.83308 0.84637 0.0
O230 O 0.77452 0.95632 0.88523 0.0
O231 O 0.81154 0.91979 0.89626 0.0
O232 O 0.68077 0.90313 0.89069 0.0
O233 O 0.66375 0.83818 0.9076 0.0
O234 O 0.71754 0.86327 0.85426 0.0
O235 O 0.63992 0.79946 0.86038 0.0
C236 C 0.57062 0.6903 0.89181 0.0
O237 O 0.6048 0.7043 0.87624 0.0
O238 O 0.58393 0.7222 0.90851 0.0
C239 C 0.74165 0.78868 0.88332 0.0
H240 H 0.05192 0.27599 0.11366 0.0
H241 H 0.96408 0.17858 0.16958 0.0
H242 H 1.01896 0.14483 0.17186 0.0
H243 H 0.08115 0.19344 0.08492 0.0
H244 H 0.14279 0.23844 0.07804 0.0
H245 H 0.09717 0.25592 0.08056 0.0
H246 H 0.14768 0.31978 0.1121 0.0
H247 H 0.19422 0.30357 0.10948 0.0
H248 H 0.16788 0.30161 0.13787 0.0
H249 H 0.08242 0.12152 0.16825 0.0
H250 H 0.15416 0.11312 0.16047 0.0
H251 H 0.2023 0.22582 0.10714 0.0
C252 C 0.04474 0.24797 0.12653 0.0
C253 C 1.00367 0.22941 0.14133 0.0
C254 C 0.99504 0.19261 0.15787 0.0
C255 C 0.026 0.17331 0.15932 0.0
C256 C 0.06567 0.19155 0.1442 0.0
C257 C 0.0755 0.22832 0.12826 0.0
C258 C 0.12112 0.24165 0.11432 0.0
C259 C 0.10986 0.23174 0.08789 0.0
C260 C 0.16003 0.2948 0.11872 0.0
C261 C 0.1354 0.20681 0.12507 0.0
C262 C 0.10266 0.17809 0.14216 0.0
C263 C 0.10829 0.14366 0.15486 0.0
C264 C 0.14896 0.13895 0.15024 0.0
C265 C 0.18338 0.16847 0.13311 0.0
C266 C 0.17627 0.20255 0.12024 0.0
H267 H 0.2174 0.04251 0.36744 0.0
H268 H 0.27096 1.00983 0.43125 0.0
H269 H 0.18807 0.94936 0.44251 0.0
H270 H 0.09767 0.01875 0.39205 0.0
H271 H 0.06554 0.9899 0.36536 0.0
H272 H 0.12808 0.03743 0.36399 0.0
H273 H 0.14964 0.97989 0.34144 0.0
H274 H 0.08736 0.93223 0.3428 0.0
H275 H 0.13436 0.92197 0.35422 0.0
H276 H 0.10347 0.8875 0.44527 0.0
H277 H 1.01985 0.82255 0.43849 0.0
H278 H 1.01727 0.88895 0.37195 0.0
C279 C 0.21118 0.02322 0.38399 0.0
C280 C 0.25032 0.03114 0.39866 0.0
C281 C 0.2414 1.00451 0.41986 0.0
C282 C 0.19439 0.97025 0.42649 0.0
C283 C 0.15657 0.96237 0.41154 0.0
C284 C 0.16411 0.98767 0.39065 0.0
C285 C 0.11727 0.96756 0.37668 0.0
C286 C 0.10119 1.00567 0.37439 0.0
C287 C 0.12249 0.94932 0.35235 0.0
C288 C 0.08309 0.92583 0.39256 0.0
C289 C 0.10661 0.92463 0.41281 0.0
C290 C 0.08432 0.88828 0.42966 0.0
C291 C 0.03686 0.85143 0.42559 0.0
C292 C 1.01222 0.85086 0.40474 0.0
C293 C 0.03523 0.889 0.38817 0.0
H294 H 0.80765 0.98387 0.10731 0.0
H295 H 0.928 0.04782 0.15649 0.0
H296 H 0.92232 0.96817 0.16182 0.0
H297 H 0.73831 0.87276 0.13756 0.0
H298 H 0.71729 0.83525 0.1116 0.0
H299 H 0.73239 0.89786 0.11006 0.0
H300 H 0.79309 0.91313 0.07621 0.0
H301 H 0.77784 0.8504 0.07753 0.0
H302 H 0.84002 0.89783 0.08047 0.0
H303 H 0.90171 0.88276 0.1637 0.0
H304 H 0.869 0.79465 0.16098 0.0
H305 H 0.7616 0.78355 0.11042 0.0
C306 C 0.8331 0.98103 0.11894 0.0
C307 C 0.86826 0.02178 0.13154 0.0
C308 C 0.90082 0.01693 0.14673 0.0
C309 C 0.8979 0.97191 0.14985 0.0
C310 C 0.86236 0.93223 0.13756 0.0
C311 C 0.83074 0.93617 0.12224 0.0
C312 C 0.7952 0.88714 0.11174 0.0
C313 C 0.74269 0.8724 0.11813 0.0
C314 C 0.80195 0.88715 0.08489 0.0
C315 C 0.81116 0.85503 0.12405 0.0
C316 C 0.85021 0.88212 0.1387 0.0
C317 C 0.87139 0.86114 0.15218 0.0
C318 C 0.85255 0.8111 0.1505 0.0
C319 C 0.81294 0.78254 0.13547 0.0
C320 C 0.7917 0.80466 0.12216 0.0
H321 H 0.14089 0.13658 0.3786 0.0
H322 H 0.24899 0.26909 0.41248 0.0
H323 H 0.19267 0.30086 0.41185 0.0
H324 H 0.08969 0.19141 0.34092 0.0
H325 H 0.02789 0.14329 0.34449 0.0
H326 H 0.07679 0.13037 0.34695 0.0
H327 H 0.04648 0.0934 0.38841 0.0
H328 H 0.99732 0.10589 0.38594 0.0
H329 H 0.03813 0.12897 0.41069 0.0
H330 H 0.12728 0.32069 0.40619 0.0
H331 H 0.05139 0.32285 0.40026 0.0
H332 H 0.98227 0.17641 0.37263 0.0
C333 C 0.15246 0.17219 0.38589 0.0
C334 C 0.19945 0.20053 0.39546 0.0
C335 C 0.21323 0.24675 0.40504 0.0
C336 C 0.18157 0.26528 0.40469 0.0
C337 C 0.1358 0.23694 0.39496 0.0
C338 C 0.12073 0.19106 0.38608 0.0
C339 C 0.06866 0.1678 0.37749 0.0
C340 C 0.0656 0.15763 0.35088 0.0
C341 C 0.0357 0.12126 0.39147 0.0
C342 C 0.05721 0.20784 0.38297 0.0
C343 C 0.09684 0.24765 0.39268 0.0
C344 C 0.09585 0.28968 0.39871 0.0
C345 C 0.05284 0.29078 0.39513 0.0
C346 C 1.01133 0.24988 0.38599 0.0
C347 C 1.01358 0.20801 0.37974 0.0
H348 H 0.2306 0.04205 0.15285 0.0
H349 H 0.2859 1.01075 0.08933 0.0
H350 H 0.20417 0.94502 0.07955 0.0
H351 H 0.15073 0.91839 0.16779 0.0
H352 H 0.10295 0.92748 0.17911 0.0
H353 H 0.16483 0.97622 0.18012 0.0
H354 H 0.14076 0.03132 0.15746 0.0
H355 H 0.07869 0.98295 0.15594 0.0
H356 H 0.11096 1.01234 0.1293 0.0
H357 H 0.11954 0.88058 0.07734 0.0
H358 H 0.03513 0.81668 0.08364 0.0
H359 H 0.03145 0.88431 0.14945 0.0
C360 C 0.22506 0.02166 0.13676 0.0
C361 C 0.26439 0.03164 0.12172 0.0
C362 C 0.25626 1.00372 0.10106 0.0
C363 C 0.2099 0.96643 0.09528 0.0
C364 C 0.17196 0.95689 0.11052 0.0
C365 C 0.17876 0.98324 0.13093 0.0
C366 C 0.13191 0.96235 0.145 0.0
C367 C 0.13799 0.94508 0.16945 0.0
C368 C 0.11452 0.99945 0.14702 0.0
C369 C 0.09827 0.9198 0.12946 0.0
C370 C 0.12231 0.91807 0.10953 0.0
C371 C 0.10012 0.88162 0.09278 0.0
C372 C 0.05215 0.84542 0.09656 0.0
C373 C 0.02679 0.84557 0.11701 0.0
C374 C 0.04996 0.88358 0.13359 0.0
H375 H 0.77286 0.79061 0.41464 0.0
H376 H 0.83771 0.78812 0.34787 0.0
H377 H 0.86702 0.87559 0.34238 0.0
H378 H 0.73399 0.87427 0.40118 0.0
H379 H 0.75279 0.90663 0.42872 0.0
H380 H 0.73701 0.84384 0.42745 0.0
H381 H 0.82462 0.86525 0.44333 0.0
H382 H 0.83372 0.92559 0.44705 0.0
H383 H 0.87626 0.91586 0.43032 0.0
H384 H 0.8896 0.96337 0.34419 0.0
H385 H 0.90224 0.04518 0.35294 0.0
H386 H 0.82437 0.9914 0.41886 0.0
C387 C 0.79252 0.80851 0.39873 0.0
C388 C 0.80212 0.78271 0.38137 0.0
C389 C 0.82951 0.80739 0.36118 0.0
C390 C 0.84646 0.85702 0.35795 0.0
C391 C 0.83669 0.88169 0.37539 0.0
C392 C 0.81091 0.85852 0.39551 0.0
C393 C 0.80769 0.89423 0.41202 0.0
C394 C 0.75471 0.87882 0.41766 0.0
C395 C 0.83721 0.90064 0.43454 0.0
C396 C 0.83206 0.93999 0.39723 0.0
C397 C 0.84992 0.93236 0.37647 0.0
C398 C 0.87566 0.96976 0.36036 0.0
C399 C 0.88278 0.01606 0.36549 0.0
C400 C 0.86391 0.02431 0.38644 0.0
C401 C 0.83873 0.98589 0.40259 0.0
H402 H 0.19201 0.98733 0.6534 0.0
H403 H 0.28836 0.02931 0.59301 0.0
H404 H 0.26601 0.09028 0.58194 0.0
H405 H 0.09857 1.00985 0.6262 0.0
H406 H 0.08927 0.03527 0.65272 0.0
H407 H 0.10715 0.98971 0.65458 0.0
H408 H 0.18126 0.04746 0.68001 0.0
H409 H 0.16359 0.09308 0.67832 0.0
H410 H 0.22337 0.10723 0.66902 0.0
H411 H 0.23837 0.14907 0.5782 0.0
H412 H 0.21257 0.20938 0.58389 0.0
H413 H 0.13731 0.13618 0.64814 0.0
C414 C 0.20778 1.00911 0.63774 0.0
C415 C 0.24163 1.00343 0.62394 0.0
C416 C 0.26237 0.03305 0.60381 0.0
C417 C 0.24963 0.06758 0.59727 0.0
C418 C 0.21667 0.07281 0.61125 0.0
C419 C 0.1963 0.04497 0.63122 0.0
C420 C 0.16552 0.06183 0.64423 0.0
C421 C 0.11195 0.02178 0.64444 0.0
C422 C 0.1846 0.07839 0.66939 0.0
C423 C 0.17327 0.10437 0.62882 0.0
C424 C 0.20193 0.10891 0.6096 0.0
C425 C 0.21571 0.14587 0.59309 0.0
C426 C 0.20086 0.18 0.59651 0.0
C427 C 0.17305 0.17753 0.61646 0.0
C428 C 0.15829 0.13868 0.63265 0.0
H429 H 0.99373 0.80182 0.911 0.0
H430 H 0.05969 0.92256 0.86186 0.0
H431 H 0.97999 0.91618 0.85527 0.0
H432 H 0.88457 0.73183 0.87938 0.0
H433 H 0.84623 0.71021 0.90507 0.0
H434 H 0.90879 0.72576 0.9071 0.0
H435 H 0.92239 0.78596 0.94094 0.0
H436 H 0.85974 0.77029 0.93914 0.0
H437 H 0.9069 0.83278 0.93645 0.0
H438 H 0.89375 0.89481 0.85269 0.0
H439 H 0.80549 0.8616 0.85528 0.0
H440 H 0.79469 0.75447 0.90615 0.0
C441 C 0.99136 0.82719 0.89906 0.0
C442 C 0.03257 0.86271 0.8869 0.0
C443 C 0.02835 0.89515 0.87131 0.0
C444 C 0.98334 0.89179 0.86746 0.0
C445 C 0.94318 0.85586 0.87941 0.0
C446 C 0.94668 0.82432 0.89501 0.0
C447 C 0.89761 0.78839 0.90519 0.0
C448 C 0.88348 0.73595 0.89879 0.0
C449 C 0.89662 0.79475 0.93202 0.0
C450 C 0.8659 0.80423 0.89255 0.0
C451 C 0.89306 0.84334 0.87786 0.0
C452 C 0.87209 0.86434 0.86419 0.0
C453 C 0.822 0.84518 0.86576 0.0
C454 C 0.79359 0.80561 0.88093 0.0
C455 C 0.81571 0.7846 0.89434 0.0
H456 H 0.89475 1.00922 0.64548 0.0
H457 H 0.81114 0.02252 0.58841 0.0
H458 H 0.86902 0.10986 0.58573 0.0
H459 H 0.92703 0.11972 0.6738 0.0
H460 H 0.98842 0.13575 0.68092 0.0
H461 H 0.94275 0.0729 0.67766 0.0
H462 H 0.995 0.06175 0.646 0.0
H463 H 0.04105 0.12454 0.64935 0.0
H464 H 1.01567 0.10144 0.6207 0.0
H465 H 0.92812 0.19582 0.59199 0.0
H466 H 0.99249 0.27683 0.60392 0.0
H467 H 0.04541 0.21181 0.65465 0.0
C468 C 0.88929 0.03053 0.63219 0.0
C469 C 0.84822 1.00897 0.61718 0.0
C470 C 0.84218 0.03804 0.60008 0.0
C471 C 0.8749 0.08782 0.59841 0.0
C472 C 0.91424 0.10826 0.61369 0.0
C473 C 0.92243 0.0807 0.62996 0.0
C474 C 0.96777 0.11286 0.64434 0.0
C475 C 0.95575 0.11013 0.67074 0.0
C476 C 1.0072 0.09933 0.63982 0.0
C477 C 0.98229 0.16271 0.63417 0.0
C478 C 0.9506 0.15878 0.61653 0.0
C479 C 0.95377 0.19938 0.60545 0.0
C480 C 0.99043 0.24533 0.61243 0.0
C481 C 0.02433 0.25067 0.62998 0.0
C482 C 1.02035 0.20871 0.64095 0.0
H483 H 0.24735 0.20087 0.91748 0.0
H484 H 0.14997 0.16509 0.85787 0.0
H485 H 0.1562 0.09196 0.85034 0.0
H486 H 0.32606 0.16332 0.89167 0.0
H487 H 0.33476 0.1381 0.91849 0.0
H488 H 0.32189 0.18719 0.91983 0.0
H489 H 0.24802 0.13544 0.94688 0.0
H490 H 0.26097 0.08638 0.94567 0.0
H491 H 0.20201 0.07608 0.93726 0.0
H492 H 0.17282 0.02359 0.84892 0.0
H493 H 0.19918 0.96305 0.8537 0.0
H494 H 0.28668 0.04223 0.91396 0.0
C495 C 0.22734 0.1775 0.9029 0.0
C496 C 0.19828 0.18855 0.88818 0.0
C497 C 0.17252 0.15726 0.86929 0.0
C498 C 0.17578 0.11564 0.86489 0.0
C499 C 0.20491 0.10582 0.87958 0.0
C500 C 0.23017 0.13563 0.89826 0.0
C501 C 0.25915 0.1166 0.91117 0.0
C502 C 0.3137 0.15351 0.91022 0.0
C503 C 0.24147 0.10282 0.93676 0.0
C504 C 0.2467 0.07191 0.8966 0.0
C505 C 0.21504 0.06632 0.87859 0.0
C506 C 0.19761 0.02756 0.86293 0.0
C507 C 0.2127 0.99337 0.8658 0.0
C508 C 0.24495 0.99821 0.88412 0.0
C509 C 0.26245 0.03814 0.89963 0.0
H510 H 1.01879 0.89548 0.64601 0.0
H511 H 1.00288 0.77931 0.59995 0.0
H512 H 0.91575 0.74884 0.59712 0.0
H513 H 0.90732 0.82706 0.67756 0.0
H514 H 0.89213 0.87459 0.6788 0.0
H515 H 0.95465 0.8898 0.67708 0.0
H516 H 0.96633 0.94179 0.63987 0.0
H517 H 0.90383 0.92683 0.64153 0.0
H518 H 0.92682 0.91472 0.61492 0.0
H519 H 0.83125 0.7256 0.60139 0.0
H520 H 0.75088 0.71439 0.60967 0.0
H521 H 0.8159 0.84761 0.65046 0.0
C522 C 0.99681 0.86391 0.63523 0.0
C523 C 1.01777 0.83964 0.62328 0.0
C524 C 0.98791 0.79856 0.60928 0.0
C525 C 0.93819 0.78082 0.60754 0.0
C526 C 0.91845 0.80485 0.61962 0.0
C527 C 0.94647 0.84588 0.63293 0.0
C528 C 0.9147 0.86411 0.64389 0.0
C529 C 0.91737 0.86386 0.67094 0.0
C530 C 0.92877 0.91488 0.63449 0.0
C531 C 0.86471 0.82604 0.63507 0.0
C532 C 0.86832 0.79234 0.62117 0.0
C533 C 0.82786 0.75217 0.61187 0.0
C534 C 0.78223 0.74615 0.6167 0.0
C535 C 0.77699 0.78052 0.63031 0.0
C536 C 0.81889 0.82116 0.63967 0.0
H537 H 0.98944 0.2469 0.87373 0.0
H538 H 0.10009 0.22472 0.90648 0.0
H539 H 0.04677 0.13707 0.90512 0.0
H540 H 0.89517 0.15728 0.90826 0.0
H541 H 0.84948 0.13604 0.88558 0.0
H542 H 0.89891 0.19765 0.88494 0.0
H543 H 0.92128 0.1847 0.8427 0.0
H544 H 0.87168 0.12303 0.84317 0.0
H545 H 0.93229 0.1352 0.83708 0.0
H546 H 0.98188 0.05317 0.90318 0.0
H547 H 0.90453 0.9757 0.90314 0.0
H548 H 0.83141 0.04946 0.87515 0.0
C549 C 1.00255 0.22333 0.88002 0.0
C550 C 0.04978 0.24256 0.88917 0.0
C551 C 0.06511 0.21087 0.89826 0.0
C552 C 0.03485 0.16083 0.89778 0.0
C553 C 0.98864 0.14281 0.88873 0.0
C554 C 0.97201 0.17276 0.88028 0.0
C555 C 0.91864 0.14352 0.87419 0.0
C556 C 0.88881 0.15958 0.88914 0.0
C557 C 0.91051 0.14681 0.84771 0.0
C558 C 0.90824 0.09302 0.881 0.0
C559 C 0.94947 0.09358 0.88894 0.0
C560 C 0.9492 0.05195 0.89688 0.0
C561 C 0.90525 1.00828 0.89686 0.0
C562 C 0.86243 1.00703 0.88923 0.0
C563 C 0.8639 0.04973 0.88104 0.0
H564 H 0.30183 0.15706 0.30929 0.0
H565 H 0.45209 0.20209 0.32472 0.0
H566 H 0.47072 0.21188 0.28235 0.0
H567 H 0.29202 0.08733 0.25867 0.0
H568 H 0.25408 0.10417 0.24231 0.0
H569 H 0.25265 0.10365 0.27404 0.0
H570 H 0.27299 0.1934 0.27416 0.0
H571 H 0.27435 0.19414 0.2424 0.0
H572 H 0.32608 0.23841 0.25879 0.0
H573 H 0.47286 0.21264 0.23844 0.0
H574 H 0.45812 0.20496 0.19557 0.0
H575 H 0.30682 0.15987 0.20807 0.0
C576 C 0.33875 0.16963 0.30377 0.0
C577 C 0.37543 0.17881 0.32042 0.0
C578 C 0.42321 0.19463 0.31239 0.0
C579 C 0.4343 0.20047 0.28831 0.0
C580 C 0.3973 0.19046 0.27236 0.0
C581 C 0.35052 0.17553 0.27968 0.0
C582 C 0.31724 0.1654 0.25872 0.0
C583 C 0.27661 0.11197 0.25842 0.0
C584 C 0.29645 0.1999 0.25851 0.0
C585 C 0.35259 0.17647 0.23856 0.0
C586 C 0.39859 0.19102 0.24686 0.0
C587 C 0.43706 0.20165 0.23169 0.0
C588 C 0.42827 0.19707 0.20735 0.0
C589 C 0.38137 0.182 0.19837 0.0
C590 C 0.3432 0.17196 0.21429 0.0
H591 H 0.88799 0.73551 0.31019 0.0
H592 H 0.79508 0.58171 0.32433 0.0
H593 H 0.79069 0.56461 0.28183 0.0
H594 H 0.82622 0.73917 0.25955 0.0
H595 H 0.87946 0.78199 0.24353 0.0
H596 H 0.87975 0.78227 0.27526 0.0
H597 H 0.95536 0.77175 0.27538 0.0
H598 H 0.95544 0.77166 0.24361 0.0
H599 H 0.95376 0.72177 0.2596 0.0
H600 H 0.79006 0.56425 0.23804 0.0
H601 H 0.79491 0.58067 0.19535 0.0
H602 H 0.88874 0.73449 0.2088 0.0
C603 C 0.8677 0.69817 0.30436 0.0
C604 C 0.84205 0.65994 0.32063 0.0
C605 C 0.815 0.61165 0.31224 0.0
C606 C 0.81236 0.60149 0.28811 0.0
C607 C 0.83706 0.63997 0.27249 0.0
C608 C 0.86446 0.68734 0.28021 0.0
C609 C 0.88505 0.72212 0.25949 0.0
C610 C 0.86649 0.75852 0.25946 0.0
C611 C 0.94071 0.74837 0.25953 0.0
C612 C 0.86425 0.68691 0.23903 0.0
C613 C 0.83686 0.63971 0.24698 0.0
C614 C 0.81187 0.60098 0.23156 0.0
C615 C 0.8147 0.61071 0.20733 0.0
C616 C 0.84239 0.65878 0.1987 0.0
C617 C 0.86789 0.69725 0.21482 0.0
H618 H 0.87366 0.15091 0.21104 0.0
H619 H 0.81107 0.24269 0.19743 0.0
H620 H 0.80062 0.24816 0.24023 0.0
H621 H 0.79873 0.08623 0.26274 0.0
H622 H 0.84835 0.08604 0.27796 0.0
H623 H 0.84648 0.08506 0.2462 0.0
H624 H 0.93161 0.16175 0.2449 0.0
H625 H 0.9337 0.16306 0.27661 0.0
H626 H 0.94202 0.21556 0.26043 0.0
H627 H 0.80198 0.24854 0.2839 0.0
H628 H 0.81601 0.2455 0.32623 0.0
H629 H 0.87931 0.15438 0.31251 0.0
C630 C 0.85672 0.17123 0.21703 0.0
C631 C 0.84265 0.19598 0.20086 0.0
C632 C 0.82187 0.22326 0.20946 0.0
C633 C 0.8157 0.22648 0.23373 0.0
C634 C 0.83064 0.20234 0.24919 0.0
C635 C 0.85073 0.17523 0.24125 0.0
C636 C 0.86684 0.15572 0.26174 0.0
C637 C 0.83839 0.09994 0.26218 0.0
C638 C 0.9218 0.1752 0.26086 0.0
C639 C 0.85325 0.17672 0.28244 0.0
C640 C 0.83208 0.20312 0.27468 0.0
C641 C 0.81817 0.22772 0.2902 0.0
C642 C 0.82654 0.22586 0.31427 0.0
C643 C 0.84882 0.19969 0.32279 0.0
C644 C 0.86172 0.17421 0.3066 0.0
H645 H 0.151 0.28479 0.71328 0.0
H646 H 0.22756 0.43975 0.69898 0.0
H647 H 0.24012 0.45644 0.74139 0.0
H648 H 0.08866 0.28924 0.76352 0.0
H649 H 0.09324 0.24325 0.7801 0.0
H650 H 0.09392 0.24224 0.74837 0.0
H651 H 0.17571 0.24323 0.7491 0.0
H652 H 0.17515 0.24393 0.78087 0.0
H653 H 0.22626 0.29052 0.76495 0.0
H654 H 0.23721 0.45771 0.78463 0.0
H655 H 0.22357 0.44326 0.82728 0.0
H656 H 0.15157 0.28776 0.81542 0.0
C657 C 0.17139 0.32213 0.7191 0.0
C658 C 0.18823 0.36095 0.70273 0.0
C659 C 0.21402 0.40936 0.7111 0.0
C660 C 0.22151 0.4193 0.7352 0.0
C661 C 0.20334 0.3805 0.7509 0.0
C662 C 0.17927 0.33284 0.74332 0.0
C663 C 0.16158 0.29827 0.76428 0.0
C664 C 0.10605 0.26638 0.76404 0.0
C665 C 0.18615 0.26715 0.76483 0.0
C666 C 0.17857 0.3341 0.78465 0.0
C667 C 0.2026 0.38129 0.77636 0.0
C668 C 0.21912 0.42097 0.7914 0.0
C669 C 0.21092 0.41236 0.8156 0.0
C670 C 0.18675 0.36445 0.82467 0.0
C671 C 0.17081 0.32478 0.80898 0.0
H672 H 0.16056 0.86217 0.81224 0.0
H673 H 0.27211 0.82404 0.82475 0.0
H674 H 0.28059 0.81828 0.78174 0.0
H675 H 0.10545 0.78489 0.76078 0.0
H676 H 0.09486 0.8291 0.74609 0.0
H677 H 0.09499 0.82663 0.77782 0.0
H678 H 0.16097 0.9175 0.77917 0.0
H679 H 0.16118 0.92024 0.74748 0.0
H680 H 0.21675 0.93787 0.76317 0.0
H681 H 0.27997 0.82091 0.73756 0.0
H682 H 0.2711 0.83207 0.69531 0.0
H683 H 0.1604 0.86962 0.71143 0.0
C684 C 0.18619 0.85177 0.80603 0.0
C685 C 0.21544 0.8432 0.82195 0.0
C686 C 0.24915 0.83059 0.81294 0.0
C687 C 0.25421 0.82718 0.78855 0.0
C688 C 0.2253 0.83654 0.77339 0.0
C689 C 0.19192 0.84851 0.78177 0.0
C690 C 0.16704 0.85922 0.76173 0.0
C691 C 0.11234 0.82278 0.7616 0.0
C692 C 0.17711 0.91183 0.76297 0.0
C693 C 0.192 0.85184 0.74072 0.0
C694 C 0.22528 0.83852 0.74787 0.0
C695 C 0.25384 0.83104 0.73177 0.0
C696 C 0.24854 0.83762 0.70774 0.0
C697 C 0.21499 0.85173 0.69993 0.0
C698 C 0.1861 0.85848 0.71674 0.0
H699 H 0.7389 0.87721 0.70938 0.0
H700 H 0.58445 0.79147 0.69564 0.0
H701 H 0.56791 0.78749 0.73817 0.0
H702 H 0.73891 0.81284 0.75966 0.0
H703 H 0.78365 0.8649 0.77569 0.0
H704 H 0.78373 0.86562 0.74397 0.0
H705 H 0.77815 0.94421 0.74421 0.0
H706 H 0.77831 0.94387 0.77598 0.0
H707 H 0.72988 0.9454 0.76025 0.0
H708 H 0.56781 0.78565 0.78209 0.0
H709 H 0.58464 0.78903 0.82478 0.0
H710 H 0.73869 0.87698 0.81047 0.0
C711 C 0.70159 0.85861 0.7153 0.0
C712 C 0.66301 0.83474 0.69913 0.0
C713 C 0.6147 0.80995 0.70765 0.0
C714 C 0.60483 0.80754 0.73181 0.0
C715 C 0.6436 0.83031 0.74733 0.0
C716 C 0.69102 0.85572 0.73948 0.0
C717 C 0.72602 0.87454 0.76006 0.0
C718 C 0.76007 0.85318 0.75982 0.0
C719 C 0.75478 0.93032 0.76012 0.0
C720 C 0.69084 0.85495 0.78059 0.0
C721 C 0.64348 0.82969 0.77284 0.0
C722 C 0.60472 0.80594 0.78843 0.0
C723 C 0.61463 0.80794 0.81263 0.0
C724 C 0.66288 0.8336 0.82099 0.0
C725 C 0.70135 0.85775 0.80469 0.0
H726 H 0.29767 0.95027 0.97113 0.0
H727 H 0.16533 0.95164 0.95387 0.0
H728 H 0.18015 1.0077 0.98671 0.0
H729 H 0.28632 0.95441 0.03485 0.0
H730 H 0.35048 0.99327 0.03932 0.0
H731 H 0.32891 0.95219 0.01467 0.0
H732 H 0.37787 0.02453 0.98629 0.0
H733 H 0.39897 0.06588 0.01085 0.0
H734 H 0.36792 0.07563 0.98672 0.0
H735 H 0.20892 0.06393 0.02105 0.0
H736 H 0.24806 0.11397 0.05608 0.0
H737 H 0.36249 0.07767 0.05137 0.0
C738 C 0.27146 0.96185 0.97441 0.0
C739 C 0.23012 0.94609 0.95988 0.0
C740 C 0.19708 0.96268 0.96474 0.0
C741 C 0.20527 0.9948 0.98334 0.0
C742 C 0.24662 1.01013 0.99705 0.0
C743 C 0.27902 0.99399 0.99299 0.0
C744 C 0.32059 0.01621 0.01049 0.0
C745 C 0.32161 0.97666 0.02574 0.0
C746 C 0.36921 0.04742 0.99782 0.0
C747 C 0.30644 0.04737 0.02494 0.0
C748 C 0.26365 0.04327 0.01682 0.0
C749 C 0.24253 0.06755 0.02755 0.0
C750 C 0.26517 0.09602 0.04743 0.0
C751 C 0.30865 0.10021 0.05642 0.0
C752 C 0.32982 0.076 0.04473 0.0
H753 H 0.81838 0.7906 0.45623 0.0
H754 H 0.77877 0.64251 0.47393 0.0
H755 H 0.75192 0.65216 0.51317 0.0
H756 H 0.86059 0.84461 0.51439 0.0
H757 H 0.83347 0.88259 0.51278 0.0
H758 H 0.85233 0.86573 0.4862 0.0
H759 H 0.76341 0.8278 0.46901 0.0
H760 H 0.74796 0.84837 0.49539 0.0
H761 H 0.71393 0.78544 0.48691 0.0
H762 H 0.72011 0.67273 0.54785 0.0
H763 H 0.6932 0.70711 0.57922 0.0
H764 H 0.75796 0.84511 0.54235 0.0
C765 C 0.80509 0.76083 0.46865 0.0
C766 C 0.80101 0.71592 0.46215 0.0
C767 C 0.78228 0.67719 0.47858 0.0
C768 C 0.76687 0.68228 0.5009 0.0
C769 C 0.77012 0.72634 0.50662 0.0
C770 C 0.78886 0.76516 0.49116 0.0
C771 C 0.78562 0.80749 0.50175 0.0
C772 C 0.83601 0.8528 0.50391 0.0
C773 C 0.75078 0.81796 0.48741 0.0
C774 C 0.76387 0.78681 0.52576 0.0
C775 C 0.75399 0.73938 0.52774 0.0
C776 C 0.72872 0.7102 0.54682 0.0
C777 C 0.71341 0.73002 0.5645 0.0
C778 C 0.72448 0.77898 0.56345 0.0
C779 C 0.75023 0.80794 0.54385 0.0
H780 H 0.09035 0.3612 0.97253 0.0
H781 H 0.14101 0.25704 0.9736 0.0
H782 H 0.0925 0.21939 1.00921 0.0
H783 H 0.08723 0.3735 0.03736 0.0
H784 H 0.03315 0.37824 0.03634 0.0
H785 H 0.07494 0.39972 0.01192 0.0
H786 H 1.00508 0.3444 0.98372 0.0
H787 H 0.96324 0.32217 1.00808 0.0
H788 H 0.97034 0.28012 0.98955 0.0
H789 H 0.03342 0.18802 0.04209 0.0
H790 H 0.97395 0.16999 0.07355 0.0
H791 H 0.96134 0.29491 0.05258 0.0
C792 C 0.09223 0.33125 0.98058 0.0
C793 C 0.11972 0.3122 0.97018 0.0
C794 C 0.1204 0.27241 0.98114 0.0
C795 C 0.0928 0.25061 1.00138 0.0
C796 C 0.06483 0.2691 0.01064 0.0
C797 C 0.06484 0.30897 1.00091 0.0
C798 C 0.03037 0.32058 0.01417 0.0
C799 C 0.05808 0.371 0.02563 0.0
C800 C 0.98986 0.31657 0.99791 0.0
C801 C 1.01058 0.28055 0.03262 0.0
C802 C 0.03092 0.25125 0.03009 0.0
C803 C 1.01754 0.21095 0.0444 0.0
C804 C 0.98329 0.20085 0.06216 0.0
C805 C 0.96256 0.23089 0.06562 0.0
C806 C 0.97638 0.27121 0.05047 0.0
H807 H 0.36082 0.07807 0.46917 0.0
H808 H 0.24206 0.10757 0.46181 0.0
H809 H 0.20203 0.0562 0.49635 0.0
H810 H 0.28905 0.95433 0.48566 0.0
H811 H 0.3314 0.95475 0.50689 0.0
H812 H 0.353 0.99612 0.48227 0.0
H813 H 0.39589 0.06917 0.51073 0.0
H814 H 0.37512 0.02797 0.53543 0.0
H815 H 0.3615 0.07659 0.53396 0.0
H816 H 0.17254 0.99902 0.53031 0.0
H817 H 0.15825 0.94435 0.5638 0.0
H818 H 0.29584 0.95118 0.55014 0.0
C819 C 0.32697 0.07461 0.47511 0.0
C820 C 0.30488 0.09729 0.46272 0.0
C821 C 0.26 0.0909 0.47094 0.0
C822 C 0.23676 0.06157 0.49053 0.0
C823 C 0.25878 0.0388 0.50192 0.0
C824 C 0.3031 0.04533 0.49476 0.0
C825 C 0.31831 0.01593 0.51008 0.0
C826 C 0.32322 0.97804 0.49534 0.0
C827 C 0.3655 0.04942 0.52334 0.0
C828 C 0.2755 0.99181 0.52685 0.0
C829 C 0.24157 1.00549 0.5217 0.0
C830 C 0.19889 0.98815 0.53457 0.0
C831 C 0.191 0.95678 0.55356 0.0
C832 C 0.22571 0.94302 0.55969 0.0
C833 C 0.26828 0.96049 0.54587 0.0
H834 H 0.75096 0.67323 0.04843 0.0
H835 H 0.87739 0.81031 0.06762 0.0
H836 H 0.86263 0.85002 0.03407 0.0
H837 H 0.76792 0.69003 0.98508 0.0
H838 H 0.70408 0.6622 0.97882 0.0
H839 H 0.72437 0.6439 1.00448 0.0
H840 H 0.67004 0.66368 0.03085 0.0
H841 H 0.64995 0.68247 1.00527 0.0
H842 H 0.67691 0.72351 0.02971 0.0
H843 H 0.83501 0.87586 0.99873 0.0
H844 H 0.79775 0.88547 0.96262 0.0
H845 H 0.68885 0.73241 0.96535 0.0
C846 C 0.77577 0.71153 0.04547 0.0
C847 C 0.81559 0.73837 0.06074 0.0
C848 C 0.84689 0.78855 0.05622 0.0
C849 C 0.83872 0.81169 0.03719 0.0
C850 C 0.79915 0.78436 0.02263 0.0
C851 C 0.76829 0.73535 0.02637 0.0
C852 C 0.72867 0.71464 1.00778 0.0
C853 C 0.73145 0.67537 0.99318 0.0
C854 C 0.67842 0.69491 0.01908 0.0
C855 C 0.74228 0.75969 0.99306 0.0
C856 C 0.78297 0.79944 1.00207 0.0
C857 C 0.80306 0.84501 0.9915 0.0
C858 C 0.78145 0.85002 0.97097 0.0
C859 C 0.74008 0.80978 0.96106 0.0
C860 C 0.72005 0.76404 0.97251 0.0
H861 H 0.08637 0.25209 0.55109 0.0
H862 H 0.05472 0.36287 0.57557 0.0
H863 H 0.99433 0.34103 0.54444 0.0
H864 H 0.07867 0.27515 0.48916 0.0
H865 H 0.05138 0.21251 0.48032 0.0
H866 H 0.09021 0.23357 0.5058 0.0
H867 H 0.02156 0.16703 0.53117 0.0
H868 H 0.98226 0.14608 0.50581 0.0
H869 H 0.96331 0.16353 0.5322 0.0
H870 H 0.93776 0.3092 0.51177 0.0
H871 H 0.89494 0.27653 0.47452 0.0
H872 H 0.96425 0.18902 0.46722 0.0
C873 C 0.06663 0.27158 0.5498 0.0
C874 C 0.07556 0.30934 0.56584 0.0
C875 C 0.04923 0.33428 0.56344 0.0
C876 C 1.01426 0.32178 0.54593 0.0
C877 C 1.00618 0.28464 0.5305 0.0
C878 C 0.03202 0.26037 0.53179 0.0
C879 C 1.01809 0.22454 0.51146 0.0
C880 C 0.06221 0.23722 0.49575 0.0
C881 C 0.99493 0.17218 0.52072 0.0
C882 C 0.98099 0.23321 0.49861 0.0
C883 C 0.97424 0.26736 0.5104 0.0
C884 C 0.94275 0.28252 0.50226 0.0
C885 C 0.91855 0.26365 0.48101 0.0
C886 C 0.92627 0.23034 0.46777 0.0
C887 C 0.95716 0.21402 0.47701 0.0
H888 H 0.70978 0.11915 0.1428 0.0
H889 H 0.79474 0.23612 0.09384 0.0
H890 H 0.72546 0.25035 0.08879 0.0
H891 H 0.59845 0.07111 0.11165 0.0
H892 H 0.56154 0.05534 0.13783 0.0
H893 H 0.61873 0.05669 0.13857 0.0
H894 H 0.64674 0.11738 0.17339 0.0
H895 H 0.58954 0.1161 0.17283 0.0
H896 H 0.64532 0.17314 0.17035 0.0
H897 H 0.64552 0.24965 0.0884 0.0
H898 H 0.56151 0.23395 0.09228 0.0
H899 H 0.52864 0.11569 0.14072 0.0
C900 C 0.7139 0.14796 0.13111 0.0
C901 C 0.75777 0.17714 0.11896 0.0
C902 C 0.76177 0.2142 0.1037 0.0
C903 C 0.72251 0.22225 0.10063 0.0
C904 C 0.67962 0.19269 0.11287 0.0
C905 C 0.67514 0.15625 0.12779 0.0
C906 C 0.62485 0.12853 0.13837 0.0
C907 C 0.5994 0.07474 0.13116 0.0
C908 C 0.62675 0.13415 0.16533 0.0
C909 C 0.60139 0.15469 0.12691 0.0
C910 C 0.63362 0.19176 0.11236 0.0
C911 C 0.62005 0.22077 0.09976 0.0
C912 C 0.5723 0.21155 0.10204 0.0
C913 C 0.53873 0.17355 0.11673 0.0
C914 C 0.5536 0.14493 0.12935 0.0
H915 H 0.60982 0.512 0.37285 0.0
H916 H 0.69923 0.48131 0.41957 0.0
H917 H 0.63254 0.3971 0.42434 0.0
H918 H 0.49749 0.44028 0.40323 0.0
H919 H 0.46154 0.41876 0.37679 0.0
H920 H 0.51652 0.47672 0.3768 0.0
H921 H 0.54875 0.44947 0.34145 0.0
H922 H 0.49384 0.3914 0.34135 0.0
H923 H 0.55175 0.39442 0.34371 0.0
H924 H 0.55494 0.31751 0.42582 0.0
H925 H 0.47238 0.24668 0.42214 0.0
H926 H 0.43507 0.32697 0.37262 0.0
C927 C 0.61522 0.48742 0.38401 0.0
C928 C 0.65945 0.50306 0.39592 0.0
C929 C 0.66548 0.46998 0.41032 0.0
C930 C 0.62786 0.42208 0.41315 0.0
C931 C 0.58456 0.40768 0.40129 0.0
C932 C 0.5781 0.43916 0.38685 0.0
C933 C 0.52794 0.41418 0.37604 0.0
C934 C 0.49918 0.43896 0.38368 0.0
C935 C 0.53076 0.41226 0.34904 0.0
C936 C 0.50722 0.36409 0.38687 0.0
C937 C 0.5404 0.36113 0.40144 0.0
C938 C 0.52885 0.31909 0.41415 0.0
C939 C 0.48209 0.27893 0.41183 0.0
C940 C 0.44789 0.28101 0.3967 0.0
C941 C 0.46076 0.32417 0.3841 0.0
H942 H 0.86064 0.38504 0.09687 0.0
H943 H 0.89821 0.38863 0.17064 0.0
H944 H 0.88401 0.45707 0.17725 0.0
H945 H 0.92257 0.51179 0.08941 0.0
H946 H 0.87932 0.51345 0.06946 0.0
H947 H 0.88529 0.46013 0.07106 0.0
H948 H 0.79347 0.40801 0.08006 0.0
H949 H 0.78746 0.46149 0.0788 0.0
H950 H 0.76819 0.42358 0.10472 0.0
H951 H 0.87403 0.52812 0.17571 0.0
H952 H 0.87809 0.6049 0.16532 0.0
H953 H 0.8474 0.55981 0.09233 0.0
C954 C 0.86509 0.39995 0.11443 0.0
C955 C 0.88019 0.38149 0.13333 0.0
C956 C 0.88668 0.40231 0.15597 0.0
C957 C 0.87821 0.44086 0.15994 0.0
C958 C 0.86353 0.45846 0.14104 0.0
C959 C 0.85753 0.43928 0.11865 0.0
C960 C 0.84698 0.46902 0.10105 0.0
C961 C 0.88586 0.48984 0.08161 0.0
C962 C 0.79599 0.4387 0.09053 0.0
C963 C 0.8498 0.50881 0.11696 0.0
C964 C 0.85816 0.50094 0.14005 0.0
C965 C 0.86644 0.53421 0.15783 0.0
C966 C 0.86832 0.57768 0.15177 0.0
C967 C 0.86152 0.58758 0.12819 0.0
C968 C 0.85079 0.55218 0.11062 0.0
H969 H 0.55898 0.19702 0.41695 0.0
H970 H 0.48942 0.0766 0.36803 0.0
H971 H 0.56467 0.07268 0.36544 0.0
H972 H 0.67823 0.25464 0.38915 0.0
H973 H 0.71086 0.27244 0.41664 0.0
H974 H 0.65183 0.2669 0.41446 0.0
H975 H 0.62179 0.20657 0.44954 0.0
H976 H 0.68071 0.21197 0.45182 0.0
H977 H 0.62765 0.15304 0.44822 0.0
H978 H 0.64535 0.07955 0.36871 0.0
H979 H 0.72879 0.09774 0.37747 0.0
H980 H 0.74863 0.21453 0.42382 0.0
C981 C 0.5598 0.16998 0.40567 0.0
C982 C 0.51839 0.13699 0.3927 0.0
C983 C 0.5207 0.10213 0.37812 0.0
C984 C 0.56329 0.09966 0.37651 0.0
C985 C 0.60341 0.13243 0.38953 0.0
C986 C 0.60231 0.16708 0.40379 0.0
C987 C 0.65071 0.19745 0.4161 0.0
C988 C 0.67429 0.25103 0.40864 0.0
C989 C 0.64484 0.1919 0.44301 0.0
C990 C 0.67885 0.17407 0.40664 0.0
C991 C 0.65066 0.13667 0.39133 0.0
C992 C 0.66785 0.1088 0.38061 0.0
C993 C 0.71508 0.11924 0.38571 0.0
C994 C 0.74457 0.15721 0.40133 0.0
C995 C 0.7265 0.18527 0.41183 0.0
H996 H 0.44072 0.32924 0.14739 0.0
H997 H 0.46368 0.25635 0.08846 0.0
H998 H 0.54605 0.32619 0.08302 0.0
H999 H 0.50118 0.44821 0.12086 0.0
H1000 H 0.52666 0.47961 0.14815 0.0
H1001 H 0.47051 0.42269 0.14835 0.0
H1002 H 0.50715 0.38731 0.17777 0.0
H1003 H 0.56343 0.44413 0.17767 0.0
H1004 H 0.56289 0.38866 0.17042 0.0
H1005 H 0.62575 0.40346 0.08401 0.0
H1006 H 0.69613 0.4854 0.08971 0.0
H1007 H 0.62048 0.51143 0.14639 0.0
C1008 C 0.46324 0.32804 0.13341 0.0
C1009 C 0.44652 0.28675 0.1188 0.0
C1010 C 0.47657 0.28677 0.10044 0.0
C1011 C 0.52321 0.32649 0.09707 0.0
C1012 C 0.53895 0.36638 0.11195 0.0
C1013 C 0.50977 0.36777 0.12961 0.0
C1014 C 0.53495 0.41596 0.14253 0.0
C1015 C 0.50663 0.44322 0.1398 0.0
C1016 C 0.54255 0.40856 0.16865 0.0
C1017 C 0.58277 0.44143 0.12934 0.0
C1018 C 0.58437 0.41192 0.11191 0.0
C1019 C 0.62484 0.42698 0.09752 0.0
C1020 C 0.66463 0.47358 0.1009 0.0
C1021 C 0.66359 0.50478 0.11837 0.0
C1022 C 0.62213 0.48838 0.13282 0.0
H1023 H 0.91493 0.60036 0.37673 0.0
H1024 H 0.80791 0.57175 0.43091 0.0
H1025 H 0.79718 0.48979 0.43696 0.0
H1026 H 0.85903 0.47941 0.35233 0.0
H1027 H 0.9159 0.48133 0.34742 0.0
H1028 H 0.91317 0.53659 0.34671 0.0
H1029 H 0.98004 0.57363 0.37869 0.0
H1030 H 0.98285 0.51844 0.37956 0.0
H1031 H 0.97149 0.54192 0.40622 0.0
H1032 H 0.79897 0.41115 0.4372 0.0
H1033 H 0.81428 0.3426 0.43235 0.0
H1034 H 0.92294 0.42423 0.37923 0.0
C1035 C 0.8891 0.57672 0.3898 0.0
C1036 C 0.86134 0.59179 0.40298 0.0
C1037 C 0.82837 0.56022 0.42012 0.0
C1038 C 0.82239 0.51382 0.4238 0.0
C1039 C 0.85017 0.49993 0.41041 0.0
C1040 C 0.88303 0.53054 0.39382 0.0
C1041 C 0.90941 0.50745 0.38218 0.0
C1042 C 0.89872 0.5008 0.35558 0.0
C1043 C 0.96419 0.53713 0.38696 0.0
C1044 C 0.88645 0.45907 0.39489 0.0
C1045 C 0.85217 0.45533 0.41101 0.0
C1046 C 0.82584 0.41378 0.4247 0.0
C1047 C 0.83482 0.37509 0.42185 0.0
C1048 C 0.86999 0.37837 0.40555 0.0
C1049 C 0.89608 0.42093 0.39194 0.0
H1050 H 0.12881 0.70934 0.65152 0.0
H1051 H 0.22844 0.77865 0.59343 0.0
H1052 H 0.24002 0.70751 0.59011 0.0
H1053 H 0.18756 0.6476 0.67762 0.0
H1054 H 0.1313 0.59347 0.68457 0.0
H1055 H 0.13395 0.65143 0.68358 0.0
H1056 H 0.06411 0.61756 0.6531 0.0
H1057 H 0.06126 0.55955 0.65396 0.0
H1058 H 0.07003 0.5907 0.62625 0.0
H1059 H 0.23941 0.62841 0.59269 0.0
H1060 H 0.22369 0.54507 0.59921 0.0
H1061 H 0.11994 0.52405 0.65403 0.0
C1062 C 0.15338 0.70967 0.63823 0.0
C1063 C 0.1791 0.75019 0.62321 0.0
C1064 C 0.2101 0.74892 0.60575 0.0
C1065 C 0.21643 0.70842 0.60359 0.0
C1066 C 0.1908 0.66917 0.61879 0.0
C1067 C 0.15955 0.66924 0.63564 0.0
C1068 C 0.13436 0.62137 0.64892 0.0
C1069 C 0.1476 0.62894 0.67523 0.0
C1070 C 0.07917 0.59579 0.64533 0.0
C1071 C 0.15611 0.59416 0.63681 0.0
C1072 C 0.18893 0.62269 0.61964 0.0
C1073 C 0.21376 0.60576 0.60603 0.0
C1074 C 0.20455 0.55834 0.60989 0.0
C1075 C 0.17048 0.5281 0.62706 0.0
C1076 C 0.14613 0.54639 0.64077 0.0
H1077 H 0.43198 0.92052 0.88257 0.0
H1078 H 0.34309 0.79767 0.92787 0.0
H1079 H 0.41085 0.78105 0.93204 0.0
H1080 H 0.49239 0.86568 0.85226 0.0
H1081 H 0.5496 0.92145 0.85068 0.0
H1082 H 0.49389 0.92313 0.85116 0.0
H1083 H 0.52421 0.97992 0.88754 0.0
H1084 H 0.58002 0.97848 0.88713 0.0
H1085 H 0.54351 0.9613 0.91347 0.0
H1086 H 0.48971 0.77907 0.93174 0.0
H1087 H 0.57304 0.79258 0.92691 0.0
H1088 H 0.60839 0.91556 0.88135 0.0
C1089 C 0.42685 0.89014 0.89335 0.0
C1090 C 0.38256 0.86044 0.90496 0.0
C1091 C 0.37696 0.82093 0.91889 0.0
C1092 C 0.41516 0.81116 0.92132 0.0
C1093 C 0.45854 0.8412 0.90965 0.0
C1094 C 0.4645 0.87984 0.89592 0.0
C1095 C 0.51472 0.90681 0.88533 0.0
C1096 C 0.51249 0.90408 0.85825 0.0
C1097 C 0.54223 0.95975 0.89389 0.0
C1098 C 0.53623 0.87764 0.89541 0.0
C1099 C 0.50338 0.83981 0.90935 0.0
C1100 C 0.51565 0.80843 0.92074 0.0
C1101 C 0.56284 0.81614 0.91784 0.0
C1102 C 0.59679 0.85478 0.90364 0.0
C1103 C 0.5831 0.88566 0.89231 0.0
H1104 H 0.50749 0.6025 0.64995 0.0
H1105 H 0.48121 0.68533 0.59697 0.0
H1106 H 0.39822 0.61701 0.59136 0.0
H1107 H 0.4411 0.48658 0.62158 0.0
H1108 H 0.41659 0.45277 0.64846 0.0
H1109 H 0.47383 0.50855 0.64888 0.0
H1110 H 0.44113 0.54279 0.68092 0.0
H1111 H 0.38378 0.48706 0.6806 0.0
H1112 H 0.386 0.54415 0.67555 0.0
H1113 H 0.31937 0.53873 0.58997 0.0
H1114 H 0.2487 0.45631 0.59407 0.0
H1115 H 0.32314 0.42406 0.64904 0.0
C1116 C 0.4841 0.60621 0.63728 0.0
C1117 C 0.50086 0.64925 0.62385 0.0
C1118 C 0.46922 0.65274 0.60742 0.0
C1119 C 0.42195 0.6141 0.6041 0.0
C1120 C 0.40654 0.57206 0.61742 0.0
C1121 C 0.43645 0.56784 0.63379 0.0
C1122 C 0.41063 0.51834 0.64566 0.0
C1123 C 0.43712 0.48989 0.64085 0.0
C1124 C 0.40506 0.5234 0.67226 0.0
C1125 C 0.36188 0.4954 0.63324 0.0
C1126 C 0.36039 0.52711 0.61702 0.0
C1127 C 0.31984 0.51387 0.60289 0.0
C1128 C 0.27962 0.46713 0.60551 0.0
C1129 C 0.27982 0.4343 0.62232 0.0
C1130 C 0.32175 0.44862 0.63621 0.0
H1131 H 0.12673 0.70169 0.87732 0.0
H1132 H 0.22701 0.77714 0.93434 0.0
H1133 H 0.23494 0.70457 0.9417 0.0
H1134 H 0.06411 0.58612 0.90631 0.0
H1135 H 0.05537 0.55169 0.87974 0.0
H1136 H 0.0597 0.61034 0.87824 0.0
H1137 H 0.13033 0.63947 0.84834 0.0
H1138 H 0.12608 0.58084 0.84965 0.0
H1139 H 0.18289 0.63484 0.85588 0.0
H1140 H 0.23158 0.62342 0.94265 0.0
H1141 H 0.21613 0.53957 0.93786 0.0
H1142 H 0.11427 0.51561 0.88164 0.0
C1143 C 0.15051 0.70298 0.89131 0.0
C1144 C 0.17728 0.74539 0.90491 0.0
C1145 C 0.20752 0.74557 0.92322 0.0
C1146 C 0.21181 0.70435 0.92766 0.0
C1147 C 0.18502 0.66312 0.91384 0.0
C1148 C 0.15476 0.66207 0.89611 0.0
C1149 C 0.12897 0.61293 0.88417 0.0
C1150 C 0.07376 0.58886 0.88732 0.0
C1151 C 0.14292 0.6173 0.85796 0.0
C1152 C 0.14934 0.58631 0.89797 0.0
C1153 C 0.18181 0.616 0.91492 0.0
C1154 C 0.20605 0.59982 0.92954 0.0
C1155 C 0.19699 0.55216 0.9267 0.0
C1156 C 0.16373 0.52112 0.90953 0.0
C1157 C 0.13948 0.53843 0.89508 0.0
H1158 H 0.42928 0.92005 0.6437 0.0
H1159 H 0.34651 0.81192 0.59064 0.0
H1160 H 0.41375 0.7951 0.58564 0.0
H1161 H 0.54568 0.96698 0.61594 0.0
H1162 H 0.57822 0.97556 0.64314 0.0
H1163 H 0.5233 0.97872 0.64287 0.0
H1164 H 0.48681 0.91209 0.67511 0.0
H1165 H 0.54161 0.90866 0.67544 0.0
H1166 H 0.48413 0.85476 0.6702 0.0
H1167 H 0.49081 0.79154 0.58541 0.0
H1168 H 0.57232 0.80119 0.59043 0.0
H1169 H 0.60469 0.90943 0.64447 0.0
C1170 C 0.42543 0.89284 0.63107 0.0
C1171 C 0.38278 0.86738 0.61748 0.0
C1172 C 0.37894 0.83196 0.60116 0.0
C1173 C 0.41691 0.82209 0.59822 0.0
C1174 C 0.45855 0.84781 0.61179 0.0
C1175 C 0.46308 0.88239 0.62794 0.0
C1176 C 0.51191 0.90496 0.64019 0.0
C1177 C 0.54152 0.9598 0.63523 0.0
C1178 C 0.50573 0.89448 0.66681 0.0
C1179 C 0.53417 0.87798 0.62824 0.0
C1180 C 0.50271 0.84511 0.61195 0.0
C1181 C 0.51552 0.81673 0.59834 0.0
C1182 C 0.56169 0.82207 0.60146 0.0
C1183 C 0.59428 0.85511 0.61821 0.0
C1184 C 0.58029 0.88352 0.63167 0.0
H1185 H 0.5068 0.63982 0.92703 0.0
H1186 H 0.52639 0.64565 0.85121 0.0
H1187 H 0.4434 0.57629 0.84658 0.0
H1188 H 0.44364 0.51032 0.93077 0.0
H1189 H 0.40377 0.50709 0.95414 0.0
H1190 H 0.46308 0.55975 0.95135 0.0
H1191 H 0.42434 0.6147 0.94957 0.0
H1192 H 0.36483 0.56207 0.95214 0.0
H1193 H 0.37887 0.60314 0.92763 0.0
H1194 H 0.35902 0.50854 0.85 0.0
H1195 H 0.28174 0.43682 0.86143 0.0
H1196 H 0.31905 0.46908 0.93527 0.0
C1197 C 0.49332 0.62644 0.9095 0.0
C1198 C 0.52232 0.64785 0.88942 0.0
C1199 C 0.50434 0.62936 0.86674 0.0
C1200 C 0.45729 0.59039 0.86395 0.0
C1201 C 0.42932 0.57011 0.88407 0.0
C1202 C 0.44684 0.58675 0.90645 0.0
C1203 C 0.41058 0.55583 0.92518 0.0
C1204 C 0.43152 0.53182 0.9413 0.0
C1205 C 0.39366 0.58573 0.93947 0.0
C1206 C 0.37024 0.51886 0.9098 0.0
C1207 C 0.38141 0.52872 0.88615 0.0
C1208 C 0.34984 0.50029 0.86844 0.0
C1209 C 0.30603 0.45991 0.87509 0.0
C1210 C 0.29489 0.44799 0.89918 0.0
C1211 C 0.32708 0.47786 0.91676 0.0
loop_
_geom_bond_atom_site_label_1
_geom_bond_atom_site_label_2
_geom_bond_distance
_geom_bond_site_symmetry_2
_ccdc_geom_bond_type
Tb0 O3 2.453 . S
Tb0 O4 2.596 . S
Tb0 O5 2.374 . S
Tb0 O13 2.343 . S
Tb0 O15 2.353 . S
Tb0 O17 2.427 . S
Tb0 O18 2.513 . S
C1 O5 1.251 . S
C1 O7 1.263 . S
Tb2 O4 2.343 . S
Tb2 O7 2.353 . S
Tb2 O10 2.427 . S
Tb2 O11 2.513 . S
Tb2 O12 2.453 . S
Tb2 O13 2.596 . S
Tb2 O14 2.374 . S
O3 Tb0 2.453 . S
O3 C19 1.245 . S
O4 Tb0 2.596 . S
O4 Tb2 2.343 . S
O4 C19 1.259 . S
O5 Tb0 2.374 . S
O5 C1 1.251 . S
C6 O10 1.275 . S
C6 O11 1.246 . S
O7 C1 1.263 . S
O7 Tb2 2.353 . S
C8 O12 1.245 . S
C8 O13 1.259 . S
C9 O14 1.250 . S
C9 O15 1.263 . S
O10 Tb2 2.427 . S
O10 C6 1.275 . S
O11 Tb2 2.513 . S
O11 C6 1.246 . S
O12 Tb2 2.453 . S
O12 C8 1.245 . S
O13 Tb0 2.343 . S
O13 Tb2 2.596 . S
O13 C8 1.259 . S
O14 Tb2 2.374 . S
O14 C9 1.250 . S
O15 Tb0 2.353 . S
O15 C9 1.263 . S
C16 O17 1.275 . S
C16 O18 1.246 . S
O17 Tb0 2.427 . S
O17 C16 1.275 . S
O18 Tb0 2.513 . S
O18 C16 1.246 . S
C19 O3 1.245 . S
C19 O4 1.259 . S
Tb20 O23 2.453 . S
Tb20 O24 2.596 . S
Tb20 O25 2.374 . S
Tb20 O33 2.343 . S
Tb20 O35 2.353 . S
Tb20 O37 2.427 . S
Tb20 O38 2.513 . S
C21 O25 1.251 . S
C21 O27 1.263 . S
Tb22 O24 2.343 . S
Tb22 O27 2.353 . S
Tb22 O30 2.427 . S
Tb22 O31 2.513 . S
Tb22 O32 2.453 . S
Tb22 O33 2.596 . S
Tb22 O34 2.374 . S
O23 Tb20 2.453 . S
O23 C39 1.245 . S
O24 Tb20 2.596 . S
O24 Tb22 2.343 . S
O24 C39 1.259 . S
O25 Tb20 2.374 . S
O25 C21 1.251 . S
C26 O30 1.275 . S
C26 O31 1.246 . S
O27 C21 1.263 . S
O27 Tb22 2.353 . S
C28 O32 1.245 . S
C28 O33 1.259 . S
C29 O34 1.250 . S
C29 O35 1.263 . S
O30 Tb22 2.427 . S
O30 C26 1.275 . S
O31 Tb22 2.513 . S
O31 C26 1.246 . S
O32 Tb22 2.453 . S
O32 C28 1.245 . S
O33 Tb20 2.343 . S
O33 Tb22 2.596 . S
O33 C28 1.259 . S
O34 Tb22 2.374 . S
O34 C29 1.250 . S
O35 Tb20 2.353 . S
O35 C29 1.263 . S
C36 O37 1.275 . S
C36 O38 1.246 . S
O37 Tb20 2.427 . S
O37 C36 1.275 . S
O38 Tb20 2.513 . S
O38 C36 1.246 . S
C39 O23 1.245 . S
C39 O24 1.259 . S
Tb40 O43 2.453 . S
Tb40 O44 2.596 . S
Tb40 O45 2.374 . S
Tb40 O53 2.343 . S
Tb40 O55 2.353 . S
Tb40 O57 2.427 . S
Tb40 O58 2.513 . S
C41 O45 1.251 . S
C41 O47 1.263 . S
Tb42 O44 2.343 . S
Tb42 O47 2.353 . S
Tb42 O50 2.427 . S
Tb42 O51 2.513 . S
Tb42 O52 2.453 . S
Tb42 O53 2.596 . S
Tb42 O54 2.374 . S
O43 Tb40 2.453 . S
O43 C59 1.245 . S
O44 Tb40 2.596 . S
O44 Tb42 2.343 . S
O44 C59 1.259 . S
O45 Tb40 2.374 . S
O45 C41 1.251 . S
C46 O50 1.275 . S
C46 O51 1.246 . S
O47 C41 1.263 . S
O47 Tb42 2.353 . S
C48 O52 1.245 . S
C48 O53 1.259 . S
C49 O54 1.250 . S
C49 O55 1.263 . S
O50 Tb42 2.427 . S
O50 C46 1.275 . S
O51 Tb42 2.513 . S
O51 C46 1.246 . S
O52 Tb42 2.453 . S
O52 C48 1.245 . S
O53 Tb40 2.343 . S
O53 Tb42 2.596 . S
O53 C48 1.259 . S
O54 Tb42 2.374 . S
O54 C49 1.250 . S
O55 Tb40 2.353 . S
O55 C49 1.263 . S
C56 O57 1.275 . S
C56 O58 1.246 . S
O57 Tb40 2.427 . S
O57 C56 1.275 . S
O58 Tb40 2.513 . S
O58 C56 1.246 . S
C59 O43 1.245 . S
C59 O44 1.259 . S
Tb60 O63 2.453 . S
Tb60 O64 2.596 . S
Tb60 O65 2.374 . S
Tb60 O73 2.343 . S
Tb60 O75 2.353 . S
Tb60 O77 2.427 . S
Tb60 O78 2.513 . S
C61 O65 1.251 . S
C61 O67 1.263 . S
Tb62 O64 2.343 . S
Tb62 O67 2.353 . S
Tb62 O70 2.427 . S
Tb62 O71 2.513 . S
Tb62 O72 2.453 . S
Tb62 O73 2.596 . S
Tb62 O74 2.374 . S
O63 Tb60 2.453 . S
O63 C79 1.245 . S
O64 Tb60 2.596 . S
O64 Tb62 2.343 . S
O64 C79 1.259 . S
O65 Tb60 2.374 . S
O65 C61 1.251 . S
C66 O70 1.275 . S
C66 O71 1.246 . S
O67 C61 1.263 . S
O67 Tb62 2.353 . S
C68 O72 1.245 . S
C68 O73 1.259 . S
C69 O74 1.250 . S
C69 O75 1.263 . S
O70 Tb62 2.427 . S
O70 C66 1.275 . S
O71 Tb62 2.513 . S
O71 C66 1.246 . S
O72 Tb62 2.453 . S
O72 C68 1.245 . S
O73 Tb60 2.343 . S
O73 Tb62 2.596 . S
O73 C68 1.259 . S
O74 Tb62 2.374 . S
O74 C69 1.250 . S
O75 Tb60 2.353 . S
O75 C69 1.263 . S
C76 O77 1.275 . S
C76 O78 1.246 . S
O77 Tb60 2.427 . S
O77 C76 1.275 . S
O78 Tb60 2.513 . S
O78 C76 1.246 . S
C79 O63 1.245 . S
C79 O64 1.259 . S
Tb80 O83 2.453 . S
Tb80 O84 2.596 . S
Tb80 O85 2.374 . S
Tb80 O93 2.343 . S
Tb80 O95 2.353 . S
Tb80 O97 2.427 . S
Tb80 O98 2.513 . S
C81 O85 1.251 . S
C81 O87 1.263 . S
Tb82 O84 2.343 . S
Tb82 O87 2.353 . S
Tb82 O90 2.427 . S
Tb82 O91 2.513 . S
Tb82 O92 2.453 . S
Tb82 O93 2.596 . S
Tb82 O94 2.374 . S
O83 Tb80 2.453 . S
O83 C99 1.245 . S
O84 Tb80 2.596 . S
O84 Tb82 2.343 . S
O84 C99 1.259 . S
O85 Tb80 2.374 . S
O85 C81 1.251 . S
C86 O90 1.275 . S
C86 O91 1.246 . S
O87 C81 1.263 . S
O87 Tb82 2.353 . S
C88 O92 1.245 . S
C88 O93 1.259 . S
C89 O94 1.250 . S
C89 O95 1.263 . S
O90 Tb82 2.427 . S
O90 C86 1.275 . S
O91 Tb82 2.513 . S
O91 C86 1.246 . S
O92 Tb82 2.453 . S
O92 C88 1.245 . S
O93 Tb80 2.343 . S
O93 Tb82 2.596 . S
O93 C88 1.259 . S
O94 Tb82 2.374 . S
O94 C89 1.250 . S
O95 Tb80 2.353 . S
O95 C89 1.263 . S
C96 O97 1.275 . S
C96 O98 1.246 . S
O97 Tb80 2.427 . S
O97 C96 1.275 . S
O98 Tb80 2.513 . S
O98 C96 1.246 . S
C99 O83 1.245 . S
C99 O84 1.259 . S
Tb100 O103 2.453 . S
Tb100 O104 2.596 . S
Tb100 O105 2.374 . S
Tb100 O113 2.343 . S
Tb100 O115 2.353 . S
Tb100 O117 2.427 . S
Tb100 O118 2.513 . S
C101 O105 1.251 . S
C101 O107 1.263 . S
Tb102 O104 2.343 . S
Tb102 O107 2.353 . S
Tb102 O110 2.427 . S
Tb102 O111 2.513 . S
Tb102 O112 2.453 . S
Tb102 O113 2.596 . S
Tb102 O114 2.374 . S
O103 Tb100 2.453 . S
O103 C119 1.245 . S
O104 Tb100 2.596 . S
O104 Tb102 2.343 . S
O104 C119 1.259 . S
O105 Tb100 2.374 . S
O105 C101 1.251 . S
C106 O110 1.275 . S
C106 O111 1.246 . S
O107 C101 1.263 . S
O107 Tb102 2.353 . S
C108 O112 1.245 . S
C108 O113 1.259 . S
C109 O114 1.250 . S
C109 O115 1.263 . S
O110 Tb102 2.427 . S
O110 C106 1.275 . S
O111 Tb102 2.513 . S
O111 C106 1.246 . S
O112 Tb102 2.453 . S
O112 C108 1.245 . S
O113 Tb100 2.343 . S
O113 Tb102 2.596 . S
O113 C108 1.259 . S
O114 Tb102 2.374 . S
O114 C109 1.250 . S
O115 Tb100 2.353 . S
O115 C109 1.263 . S
C116 O117 1.275 . S
C116 O118 1.246 . S
O117 Tb100 2.427 . S
O117 C116 1.275 . S
O118 Tb100 2.513 . S
O118 C116 1.246 . S
C119 O103 1.245 . S
C119 O104 1.259 . S
Tb120 O123 2.453 . S
Tb120 O124 2.596 . S
Tb120 O125 2.374 . S
Tb120 O133 2.343 . S
Tb120 O135 2.353 . S
Tb120 O137 2.427 . S
Tb120 O138 2.513 . S
C121 O125 1.251 . S
C121 O127 1.263 . S
Tb122 O124 2.343 . S
Tb122 O127 2.353 . S
Tb122 O130 2.427 . S
Tb122 O131 2.513 . S
Tb122 O132 2.453 . S
Tb122 O133 2.596 . S
Tb122 O134 2.374 . S
O123 Tb120 2.453 . S
O123 C139 1.245 . S
O124 Tb120 2.596 . S
O124 Tb122 2.343 . S
O124 C139 1.259 . S
O125 Tb120 2.374 . S
O125 C121 1.251 . S
C126 O130 1.275 . S
C126 O131 1.246 . S
O127 C121 1.263 . S
O127 Tb122 2.353 . S
C128 O132 1.245 . S
C128 O133 1.259 . S
C129 O134 1.250 . S
C129 O135 1.263 . S
O130 Tb122 2.427 . S
O130 C126 1.275 . S
O131 Tb122 2.513 . S
O131 C126 1.246 . S
O132 Tb122 2.453 . S
O132 C128 1.245 . S
O133 Tb120 2.343 . S
O133 Tb122 2.596 . S
O133 C128 1.259 . S
O134 Tb122 2.374 . S
O134 C129 1.250 . S
O135 Tb120 2.353 . S
O135 C129 1.263 . S
C136 O137 1.275 . S
C136 O138 1.246 . S
O137 Tb120 2.427 . S
O137 C136 1.275 . S
O138 Tb120 2.513 . S
O138 C136 1.246 . S
C139 O123 1.245 . S
C139 O124 1.259 . S
Tb140 O143 2.453 . S
Tb140 O144 2.596 . S
Tb140 O145 2.374 . S
Tb140 O153 2.343 . S
Tb140 O155 2.353 . S
Tb140 O157 2.427 . S
Tb140 O158 2.513 . S
C141 O145 1.251 . S
C141 O147 1.263 . S
Tb142 O144 2.343 . S
Tb142 O147 2.353 . S
Tb142 O150 2.427 . S
Tb142 O151 2.513 . S
Tb142 O152 2.453 . S
Tb142 O153 2.596 . S
Tb142 O154 2.374 . S
O143 Tb140 2.453 . S
O143 C159 1.245 . S
O144 Tb140 2.596 . S
O144 Tb142 2.343 . S
O144 C159 1.259 . S
O145 Tb140 2.374 . S
O145 C141 1.251 . S
C146 O150 1.275 . S
C146 O151 1.246 . S
O147 C141 1.263 . S
O147 Tb142 2.353 . S
C148 O152 1.245 . S
C148 O153 1.259 . S
C149 O154 1.250 . S
C149 O155 1.263 . S
O150 Tb142 2.427 . S
O150 C146 1.275 . S
O151 Tb142 2.513 . S
O151 C146 1.246 . S
O152 Tb142 2.453 . S
O152 C148 1.245 . S
O153 Tb140 2.343 . S
O153 Tb142 2.596 . S
O153 C148 1.259 . S
O154 Tb142 2.374 . S
O154 C149 1.250 . S
O155 Tb140 2.353 . S
O155 C149 1.263 . S
C156 O157 1.275 . S
C156 O158 1.246 . S
O157 Tb140 2.427 . S
O157 C156 1.275 . S
O158 Tb140 2.513 . S
O158 C156 1.246 . S
C159 O143 1.245 . S
C159 O144 1.259 . S
Tb160 O163 2.453 . S
Tb160 O164 2.596 . S
Tb160 O165 2.374 . S
Tb160 O173 2.343 . S
Tb160 O175 2.353 . S
Tb160 O177 2.427 . S
Tb160 O178 2.513 . S
C161 O165 1.251 . S
C161 O167 1.263 . S
Tb162 O164 2.343 . S
Tb162 O167 2.353 . S
Tb162 O170 2.427 . S
Tb162 O171 2.513 . S
Tb162 O172 2.453 . S
Tb162 O173 2.596 . S
Tb162 O174 2.374 . S
O163 Tb160 2.453 . S
O163 C179 1.245 . S
O164 Tb160 2.596 . S
O164 Tb162 2.343 . S
O164 C179 1.259 . S
O165 Tb160 2.374 . S
O165 C161 1.251 . S
C166 O170 1.275 . S
C166 O171 1.246 . S
O167 C161 1.263 . S
O167 Tb162 2.353 . S
C168 O172 1.245 . S
C168 O173 1.259 . S
C169 O174 1.250 . S
C169 O175 1.263 . S
O170 Tb162 2.427 . S
O170 C166 1.275 . S
O171 Tb162 2.513 . S
O171 C166 1.246 . S
O172 Tb162 2.453 . S
O172 C168 1.245 . S
O173 Tb160 2.343 . S
O173 Tb162 2.596 . S
O173 C168 1.259 . S
O174 Tb162 2.374 . S
O174 C169 1.250 . S
O175 Tb160 2.353 . S
O175 C169 1.263 . S
C176 O177 1.275 . S
C176 O178 1.246 . S
O177 Tb160 2.427 . S
O177 C176 1.275 . S
O178 Tb160 2.513 . S
O178 C176 1.246 . S
C179 O163 1.245 . S
C179 O164 1.259 . S
Tb180 O183 2.453 . S
Tb180 O184 2.596 . S
Tb180 O185 2.374 . S
Tb180 O193 2.343 . S
Tb180 O195 2.353 . S
Tb180 O197 2.427 . S
Tb180 O198 2.513 . S
C181 O185 1.251 . S
C181 O187 1.263 . S
Tb182 O184 2.343 . S
Tb182 O187 2.353 . S
Tb182 O190 2.427 . S
Tb182 O191 2.513 . S
Tb182 O192 2.453 . S
Tb182 O193 2.596 . S
Tb182 O194 2.374 . S
O183 Tb180 2.453 . S
O183 C199 1.245 . S
O184 Tb180 2.596 . S
O184 Tb182 2.343 . S
O184 C199 1.259 . S
O185 Tb180 2.374 . S
O185 C181 1.251 . S
C186 O190 1.275 . S
C186 O191 1.246 . S
O187 C181 1.263 . S
O187 Tb182 2.353 . S
C188 O192 1.245 . S
C188 O193 1.259 . S
C189 O194 1.250 . S
C189 O195 1.263 . S
O190 Tb182 2.427 . S
O190 C186 1.275 . S
O191 Tb182 2.513 . S
O191 C186 1.246 . S
O192 Tb182 2.453 . S
O192 C188 1.245 . S
O193 Tb180 2.343 . S
O193 Tb182 2.596 . S
O193 C188 1.259 . S
O194 Tb182 2.374 . S
O194 C189 1.250 . S
O195 Tb180 2.353 . S
O195 C189 1.263 . S
C196 O197 1.275 . S
C196 O198 1.246 . S
O197 Tb180 2.427 . S
O197 C196 1.275 . S
O198 Tb180 2.513 . S
O198 C196 1.246 . S
C199 O183 1.245 . S
C199 O184 1.259 . S
Tb200 O203 2.453 . S
Tb200 O204 2.596 . S
Tb200 O205 2.374 . S
Tb200 O213 2.343 . S
Tb200 O215 2.353 . S
Tb200 O217 2.427 . S
Tb200 O218 2.513 . S
C201 O205 1.251 . S
C201 O207 1.263 . S
Tb202 O204 2.343 . S
Tb202 O207 2.353 . S
Tb202 O210 2.427 . S
Tb202 O211 2.513 . S
Tb202 O212 2.453 . S
Tb202 O213 2.596 . S
Tb202 O214 2.374 . S
O203 Tb200 2.453 . S
O203 C219 1.245 . S
O204 Tb200 2.596 . S
O204 Tb202 2.343 . S
O204 C219 1.259 . S
O205 Tb200 2.374 . S
O205 C201 1.251 . S
C206 O210 1.275 . S
C206 O211 1.246 . S
O207 C201 1.263 . S
O207 Tb202 2.353 . S
C208 O212 1.245 . S
C208 O213 1.259 . S
C209 O214 1.250 . S
C209 O215 1.263 . S
O210 Tb202 2.427 . S
O210 C206 1.275 . S
O211 Tb202 2.513 . S
O211 C206 1.246 . S
O212 Tb202 2.453 . S
O212 C208 1.245 . S
O213 Tb200 2.343 . S
O213 Tb202 2.596 . S
O213 C208 1.259 . S
O214 Tb202 2.374 . S
O214 C209 1.250 . S
O215 Tb200 2.353 . S
O215 C209 1.263 . S
C216 O217 1.275 . S
C216 O218 1.246 . S
O217 Tb200 2.427 . S
O217 C216 1.275 . S
O218 Tb200 2.513 . S
O218 C216 1.246 . S
C219 O203 1.245 . S
C219 O204 1.259 . S
Tb220 O223 2.453 . S
Tb220 O224 2.596 . S
Tb220 O225 2.374 . S
Tb220 O233 2.343 . S
Tb220 O235 2.353 . S
Tb220 O237 2.427 . S
Tb220 O238 2.513 . S
C221 O225 1.251 . S
C221 O227 1.263 . S
Tb222 O224 2.343 . S
Tb222 O227 2.353 . S
Tb222 O230 2.427 . S
Tb222 O231 2.513 . S
Tb222 O232 2.453 . S
Tb222 O233 2.596 . S
Tb222 O234 2.374 . S
O223 Tb220 2.453 . S
O223 C239 1.245 . S
O224 Tb220 2.596 . S
O224 Tb222 2.343 . S
O224 C239 1.259 . S
O225 Tb220 2.374 . S
O225 C221 1.251 . S
C226 O230 1.275 . S
C226 O231 1.246 . S
O227 C221 1.263 . S
O227 Tb222 2.353 . S
C228 O232 1.245 . S
C228 O233 1.259 . S
C229 O234 1.250 . S
C229 O235 1.263 . S
O230 Tb222 2.427 . S
O230 C226 1.275 . S
O231 Tb222 2.513 . S
O231 C226 1.246 . S
O232 Tb222 2.453 . S
O232 C228 1.245 . S
O233 Tb220 2.343 . S
O233 Tb222 2.596 . S
O233 C228 1.259 . S
O234 Tb222 2.374 . S
O234 C229 1.250 . S
O235 Tb220 2.353 . S
O235 C229 1.263 . S
C236 O237 1.275 . S
C236 O238 1.246 . S
O237 Tb220 2.427 . S
O237 C236 1.275 . S
O238 Tb220 2.513 . S
O238 C236 1.246 . S
C239 O223 1.245 . S
C239 O224 1.259 . S
H240 C252 0.930 . S
H241 C254 0.930 . S
H242 C255 0.930 . S
H243 C259 0.959 . S
H244 C259 0.959 . S
H245 C259 0.961 . S
H246 C260 0.960 . S
H247 C260 0.961 . S
H248 C260 0.959 . S
H249 C263 0.929 . S
H250 C264 0.931 . S
H251 C266 0.930 . S
C252 H240 0.930 . S
C252 C253 1.399 . S
C252 C257 1.399 1_655 S
C253 C252 1.399 . S
C253 C254 1.376 . S
C254 H241 0.930 . S
C254 C253 1.376 . S
C254 C255 1.388 1_655 S
C255 H242 0.930 . S
C255 C254 1.388 1_455 S
C255 C256 1.390 . S
C256 C255 1.390 . S
C256 C257 1.394 . S
C256 C262 1.465 . S
C257 C252 1.399 1_455 S
C257 C256 1.394 . S
C257 C258 1.516 . S
C258 C257 1.516 . S
C258 C259 1.502 . S
C258 C260 1.561 . S
C258 C261 1.526 . S
C259 H243 0.959 . S
C259 H244 0.959 . S
C259 H245 0.961 . S
C259 C258 1.502 . S
C260 H246 0.960 . S
C260 H247 0.961 . S
C260 H248 0.959 . S
C260 C258 1.561 . S
C261 C258 1.526 . S
C261 C262 1.396 . S
C261 C266 1.390 . S
C262 C256 1.465 . S
C262 C261 1.396 . S
C262 C263 1.399 . S
C263 H249 0.929 . S
C263 C262 1.399 . S
C263 C264 1.385 . S
C264 H250 0.931 . S
C264 C263 1.385 . S
C264 C265 1.389 . S
C265 C264 1.389 . S
C265 C266 1.387 . S
C266 H251 0.930 . S
C266 C261 1.390 . S
C266 C265 1.387 . S
H267 C279 0.930 . S
H268 C281 0.930 . S
H269 C282 0.930 . S
H270 C286 0.959 . S
H271 C286 0.959 . S
H272 C286 0.961 . S
H273 C287 0.960 . S
H274 C287 0.961 . S
H275 C287 0.959 . S
H276 C290 0.929 . S
H277 C291 0.931 1_655 S
H278 C293 0.930 . S
C279 H267 0.930 . S
C279 C280 1.399 . S
C279 C284 1.399 1_545 S
C280 C279 1.399 . S
C280 C281 1.376 . S
C281 H268 0.930 . S
C281 C280 1.376 . S
C281 C282 1.388 1_545 S
C282 H269 0.930 . S
C282 C281 1.388 1_565 S
C282 C283 1.390 . S
C283 C282 1.390 . S
C283 C284 1.394 . S
C283 C289 1.465 . S
C284 C279 1.399 1_565 S
C284 C283 1.394 . S
C284 C285 1.516 . S
C285 C284 1.516 . S
C285 C286 1.502 . S
C285 C287 1.561 . S
C285 C288 1.526 . S
C286 H270 0.959 . S
C286 H271 0.959 . S
C286 H272 0.961 . S
C286 C285 1.502 . S
C287 H273 0.960 . S
C287 H274 0.961 . S
C287 H275 0.959 . S
C287 C285 1.561 . S
C288 C285 1.526 . S
C288 C289 1.396 . S
C288 C293 1.390 . S
C289 C283 1.465 . S
C289 C288 1.396 . S
C289 C290 1.399 . S
C290 H276 0.929 . S
C290 C289 1.399 . S
C290 C291 1.385 . S
C291 H277 0.931 1_455 S
C291 C290 1.385 . S
C291 C292 1.389 1_455 S
C292 C291 1.389 1_655 S
C292 C293 1.387 1_655 S
C293 H278 0.930 . S
C293 C288 1.390 . S
C293 C292 1.387 1_455 S
H294 C306 0.930 . S
H295 C308 0.930 . S
H296 C309 0.930 . S
H297 C313 0.959 . S
H298 C313 0.959 . S
H299 C313 0.961 . S
H300 C314 0.960 . S
H301 C314 0.961 . S
H302 C314 0.959 . S
H303 C317 0.929 . S
H304 C318 0.931 . S
H305 C320 0.930 . S
C306 H294 0.930 . S
C306 C307 1.399 1_565 S
C306 C311 1.399 . S
C307 C306 1.399 1_545 S
C307 C308 1.376 . S
C308 H295 0.930 . S
C308 C307 1.376 . S
C308 C309 1.388 1_545 S
C309 H296 0.930 . S
C309 C308 1.388 1_565 S
C309 C310 1.390 . S
C310 C309 1.390 . S
C310 C311 1.394 . S
C310 C316 1.465 . S
C311 C306 1.399 . S
C311 C310 1.394 . S
C311 C312 1.516 . S
C312 C311 1.516 . S
C312 C313 1.502 . S
C312 C314 1.561 . S
C312 C315 1.526 . S
C313 H297 0.959 . S
C313 H298 0.959 . S
C313 H299 0.961 . S
C313 C312 1.502 . S
C314 H300 0.960 . S
C314 H301 0.961 . S
C314 H302 0.959 . S
C314 C312 1.561 . S
C315 C312 1.526 . S
C315 C316 1.396 . S
C315 C320 1.390 . S
C316 C310 1.465 . S
C316 C315 1.396 . S
C316 C317 1.399 . S
C317 H303 0.929 . S
C317 C316 1.399 . S
C317 C318 1.385 . S
C318 H304 0.931 . S
C318 C317 1.385 . S
C318 C319 1.389 . S
C319 C318 1.389 . S
C319 C320 1.387 . S
C320 H305 0.930 . S
C320 C315 1.390 . S
C320 C319 1.387 . S
H321 C333 0.930 . S
H322 C335 0.930 . S
H323 C336 0.930 . S
H324 C340 0.959 . S
H325 C340 0.959 . S
H326 C340 0.961 . S
H327 C341 0.960 . S
H328 C341 0.961 . S
H329 C341 0.959 . S
H330 C344 0.929 . S
H331 C345 0.931 . S
H332 C347 0.930 . S
C333 H321 0.930 . S
C333 C334 1.399 . S
C333 C338 1.399 . S
C334 C333 1.399 . S
C334 C335 1.376 . S
C335 H322 0.930 . S
C335 C334 1.376 . S
C335 C336 1.388 . S
C336 H323 0.930 . S
C336 C335 1.388 . S
C336 C337 1.390 . S
C337 C336 1.390 . S
C337 C338 1.394 . S
C337 C343 1.465 . S
C338 C333 1.399 . S
C338 C337 1.394 . S
C338 C339 1.516 . S
C339 C338 1.516 . S
C339 C340 1.502 . S
C339 C341 1.561 . S
C339 C342 1.526 . S
C340 H324 0.959 . S
C340 H325 0.959 . S
C340 H326 0.961 . S
C340 C339 1.502 . S
C341 H327 0.960 . S
C341 H328 0.961 . S
C341 H329 0.959 . S
C341 C339 1.561 . S
C342 C339 1.526 . S
C342 C343 1.396 . S
C342 C347 1.390 1_455 S
C343 C337 1.465 . S
C343 C342 1.396 . S
C343 C344 1.399 . S
C344 H330 0.929 . S
C344 C343 1.399 . S
C344 C345 1.385 1_455 S
C345 H331 0.931 . S
C345 C344 1.385 1_655 S
C345 C346 1.389 . S
C346 C345 1.389 . S
C346 C347 1.387 . S
C347 H332 0.930 . S
C347 C342 1.390 1_655 S
C347 C346 1.387 . S
H348 C360 0.930 . S
H349 C362 0.930 . S
H350 C363 0.930 . S
H351 C367 0.959 . S
H352 C367 0.959 . S
H353 C367 0.961 . S
H354 C368 0.964 . S
H355 C368 0.961 . S
H356 C368 0.959 . S
H357 C371 0.929 . S
H358 C372 0.923 1_655 S
H359 C374 0.930 . S
C360 H348 0.930 . S
C360 C361 1.399 . S
C360 C365 1.399 1_545 S
C361 C360 1.399 . S
C361 C362 1.376 . S
C362 H349 0.930 . S
C362 C361 1.376 . S
C362 C363 1.388 1_545 S
C363 H350 0.930 . S
C363 C362 1.388 1_565 S
C363 C364 1.390 . S
C364 C363 1.390 . S
C364 C365 1.394 . S
C364 C370 1.465 . S
C365 C360 1.399 1_565 S
C365 C364 1.394 . S
C365 C366 1.516 . S
C366 C365 1.516 . S
C366 C367 1.502 . S
C366 C368 1.561 . S
C366 C369 1.526 . S
C367 H351 0.959 . S
C367 H352 0.959 . S
C367 H353 0.961 . S
C367 C366 1.502 . S
C368 H354 0.964 . S
C368 H355 0.961 . S
C368 H356 0.959 . S
C368 C366 1.561 . S
C369 C366 1.526 . S
C369 C370 1.396 . S
C369 C374 1.390 . S
C370 C364 1.465 . S
C370 C369 1.396 . S
C370 C371 1.399 . S
C371 H357 0.929 . S
C371 C370 1.399 . S
C371 C372 1.400 . S
C372 H358 0.923 1_455 S
C372 C371 1.400 . S
C372 C373 1.383 1_455 S
C373 C372 1.383 1_655 S
C373 C374 1.387 1_655 S
C374 H359 0.930 . S
C374 C369 1.390 . S
C374 C373 1.387 1_455 S
H375 C387 0.930 . S
H376 C389 0.930 . S
H377 C390 0.930 . S
H378 C394 0.959 . S
H379 C394 0.959 . S
H380 C394 0.961 . S
H381 C395 0.960 . S
H382 C395 0.961 . S
H383 C395 0.959 . S
H384 C398 0.929 . S
H385 C399 0.931 . S
H386 C401 0.930 . S
C387 H375 0.930 . S
C387 C388 1.399 . S
C387 C392 1.399 . S
C388 C387 1.399 . S
C388 C389 1.376 . S
C389 H376 0.930 . S
C389 C388 1.376 . S
C389 C390 1.388 . S
C390 H377 0.930 . S
C390 C389 1.388 . S
C390 C391 1.390 . S
C391 C390 1.390 . S
C391 C392 1.394 . S
C391 C397 1.465 . S
C392 C387 1.399 . S
C392 C391 1.394 . S
C392 C393 1.516 . S
C393 C392 1.516 . S
C393 C394 1.502 . S
C393 C395 1.561 . S
C393 C396 1.526 . S
C394 H378 0.959 . S
C394 H379 0.959 . S
C394 H380 0.961 . S
C394 C393 1.502 . S
C395 H381 0.960 . S
C395 H382 0.961 . S
C395 H383 0.959 . S
C395 C393 1.561 . S
C396 C393 1.526 . S
C396 C397 1.396 . S
C396 C401 1.390 . S
C397 C391 1.465 . S
C397 C396 1.396 . S
C397 C398 1.399 . S
C398 H384 0.929 . S
C398 C397 1.399 . S
C398 C399 1.385 1_565 S
C399 H385 0.931 . S
C399 C398 1.385 1_545 S
C399 C400 1.389 . S
C400 C399 1.389 . S
C400 C401 1.387 1_545 S
C401 H386 0.930 . S
C401 C396 1.390 . S
C401 C400 1.387 1_565 S
H402 C414 0.930 . S
H403 C416 0.930 . S
H404 C417 0.930 . S
H405 C421 0.959 . S
H406 C421 0.959 . S
H407 C421 0.961 . S
H408 C422 0.960 . S
H409 C422 0.961 . S
H410 C422 0.959 . S
H411 C425 0.929 . S
H412 C426 0.931 . S
H413 C428 0.930 . S
C414 H402 0.930 . S
C414 C415 1.399 . S
C414 C419 1.399 1_565 S
C415 C414 1.399 . S
C415 C416 1.376 . S
C416 H403 0.930 . S
C416 C415 1.376 . S
C416 C417 1.388 1_565 S
C417 H404 0.930 . S
C417 C416 1.388 1_545 S
C417 C418 1.390 . S
C418 C417 1.390 . S
C418 C419 1.394 . S
C418 C424 1.465 . S
C419 C414 1.399 1_545 S
C419 C418 1.394 . S
C419 C420 1.516 . S
C420 C419 1.516 . S
C420 C421 1.502 . S
C420 C422 1.561 . S
C420 C423 1.526 . S
C421 H405 0.959 . S
C421 H406 0.959 . S
C421 H407 0.961 . S
C421 C420 1.502 . S
C422 H408 0.960 . S
C422 H409 0.961 . S
C422 H410 0.959 . S
C422 C420 1.561 . S
C423 C420 1.526 . S
C423 C424 1.396 . S
C423 C428 1.390 . S
C424 C418 1.465 . S
C424 C423 1.396 . S
C424 C425 1.399 . S
C425 H411 0.929 . S
C425 C424 1.399 . S
C425 C426 1.385 . S
C426 H412 0.931 . S
C426 C425 1.385 . S
C426 C427 1.389 . S
C427 C426 1.389 . S
C427 C428 1.387 . S
C428 H413 0.930 . S
C428 C423 1.390 . S
C428 C427 1.387 . S
H429 C441 0.930 . S
H430 C443 0.930 . S
H431 C444 0.930 . S
H432 C448 0.959 . S
H433 C448 0.959 . S
H434 C448 0.961 . S
H435 C449 0.960 . S
H436 C449 0.961 . S
H437 C449 0.959 . S
H438 C452 0.929 . S
H439 C453 0.931 . S
H440 C455 0.930 . S
C441 H429 0.930 . S
C441 C442 1.399 1_655 S
C441 C446 1.399 . S
C442 C441 1.399 1_455 S
C442 C443 1.376 . S
C443 H430 0.930 . S
C443 C442 1.376 . S
C443 C444 1.388 1_455 S
C444 H431 0.930 . S
C444 C443 1.388 1_655 S
C444 C445 1.390 . S
C445 C444 1.390 . S
C445 C446 1.394 . S
C445 C451 1.465 . S
C446 C441 1.399 . S
C446 C445 1.394 . S
C446 C447 1.516 . S
C447 C446 1.516 . S
C447 C448 1.502 . S
C447 C449 1.561 . S
C447 C450 1.526 . S
C448 H432 0.959 . S
C448 H433 0.959 . S
C448 H434 0.961 . S
C448 C447 1.502 . S
C449 H435 0.960 . S
C449 H436 0.961 . S
C449 H437 0.959 . S
C449 C447 1.561 . S
C450 C447 1.526 . S
C450 C451 1.396 . S
C450 C455 1.390 . S
C451 C445 1.465 . S
C451 C450 1.396 . S
C451 C452 1.399 . S
C452 H438 0.929 . S
C452 C451 1.399 . S
C452 C453 1.385 . S
C453 H439 0.931 . S
C453 C452 1.385 . S
C453 C454 1.389 . S
C454 C453 1.389 . S
C454 C455 1.387 . S
C455 H440 0.930 . S
C455 C450 1.390 . S
C455 C454 1.387 . S
H456 C468 0.930 1_565 S
H457 C470 0.930 1_565 S
H458 C471 0.930 . S
H459 C475 0.959 . S
H460 C475 0.959 . S
H461 C475 0.961 . S
H462 C476 0.960 . S
H463 C476 0.961 1_455 S
H464 C476 0.959 . S
H465 C479 0.929 . S
H466 C480 0.931 . S
H467 C482 0.930 . S
C468 H456 0.930 1_545 S
C468 C469 1.399 1_545 S
C468 C473 1.399 . S
C469 C468 1.399 1_565 S
C469 C470 1.376 1_565 S
C470 H457 0.930 1_545 S
C470 C469 1.376 1_545 S
C470 C471 1.388 . S
C471 H458 0.930 . S
C471 C470 1.388 . S
C471 C472 1.390 . S
C472 C471 1.390 . S
C472 C473 1.394 . S
C472 C478 1.465 . S
C473 C468 1.399 . S
C473 C472 1.394 . S
C473 C474 1.516 . S
C474 C473 1.516 . S
C474 C475 1.502 . S
C474 C476 1.561 . S
C474 C477 1.526 . S
C475 H459 0.959 . S
C475 H460 0.959 . S
C475 H461 0.961 . S
C475 C474 1.502 . S
C476 H462 0.960 . S
C476 H463 0.961 1_655 S
C476 H464 0.959 . S
C476 C474 1.561 . S
C477 C474 1.526 . S
C477 C478 1.396 . S
C477 C482 1.390 1_655 S
C478 C472 1.465 . S
C478 C477 1.396 . S
C478 C479 1.399 . S
C479 H465 0.929 . S
C479 C478 1.399 . S
C479 C480 1.385 1_655 S
C480 H466 0.931 . S
C480 C479 1.385 1_455 S
C480 C481 1.389 . S
C481 C480 1.389 . S
C481 C482 1.387 . S
C482 H467 0.930 . S
C482 C477 1.390 1_455 S
C482 C481 1.387 . S
H483 C495 0.930 . S
H484 C497 0.930 . S
H485 C498 0.930 . S
H486 C502 0.959 . S
H487 C502 0.959 . S
H488 C502 0.961 . S
H489 C503 0.960 . S
H490 C503 0.961 . S
H491 C503 0.959 . S
H492 C506 0.923 . S
H493 C507 0.931 . S
H494 C509 0.930 . S
C495 H483 0.930 . S
C495 C496 1.399 . S
C495 C500 1.399 . S
C496 C495 1.399 . S
C496 C497 1.376 . S
C497 H484 0.930 . S
C497 C496 1.376 . S
C497 C498 1.388 . S
C498 H485 0.930 . S
C498 C497 1.388 . S
C498 C499 1.390 . S
C499 C498 1.390 . S
C499 C500 1.394 . S
C499 C505 1.465 . S
C500 C495 1.399 . S
C500 C499 1.394 . S
C500 C501 1.516 . S
C501 C500 1.516 . S
C501 C502 1.502 . S
C501 C503 1.561 . S
C501 C504 1.526 . S
C502 H486 0.959 . S
C502 H487 0.959 . S
C502 H488 0.961 . S
C502 C501 1.502 . S
C503 H489 0.960 . S
C503 H490 0.961 . S
C503 H491 0.959 . S
C503 C501 1.561 . S
C504 C501 1.526 . S
C504 C505 1.396 . S
C504 C509 1.390 1_545 S
C505 C499 1.465 . S
C505 C504 1.396 . S
C505 C506 1.398 . S
C506 H492 0.923 . S
C506 C505 1.398 . S
C506 C507 1.386 1_545 S
C507 H493 0.931 . S
C507 C506 1.386 1_565 S
C507 C508 1.389 . S
C508 C507 1.389 . S
C508 C509 1.387 . S
C509 H494 0.930 . S
C509 C504 1.390 1_565 S
C509 C508 1.387 . S
H510 C522 0.930 . S
H511 C524 0.930 . S
H512 C525 0.930 . S
H513 C529 0.959 . S
H514 C529 0.959 . S
H515 C529 0.961 . S
H516 C530 0.960 . S
H517 C530 0.961 . S
H518 C530 0.959 . S
H519 C533 0.929 . S
H520 C534 0.931 . S
H521 C536 0.930 . S
C522 H510 0.930 . S
C522 C523 1.399 1_655 S
C522 C527 1.399 . S
C523 C522 1.399 1_455 S
C523 C524 1.376 . S
C524 H511 0.930 . S
C524 C523 1.376 . S
C524 C525 1.388 1_455 S
C525 H512 0.930 . S
C525 C524 1.388 1_655 S
C525 C526 1.390 . S
C526 C525 1.390 . S
C526 C527 1.394 . S
C526 C532 1.465 . S
C527 C522 1.399 . S
C527 C526 1.394 . S
C527 C528 1.516 . S
C528 C527 1.516 . S
C528 C529 1.502 . S
C528 C530 1.561 . S
C528 C531 1.526 . S
C529 H513 0.959 . S
C529 H514 0.959 . S
C529 H515 0.961 . S
C529 C528 1.502 . S
C530 H516 0.960 . S
C530 H517 0.961 . S
C530 H518 0.959 . S
C530 C528 1.561 . S
C531 C528 1.526 . S
C531 C532 1.396 . S
C531 C536 1.390 . S
C532 C526 1.465 . S
C532 C531 1.396 . S
C532 C533 1.399 . S
C533 H519 0.929 . S
C533 C532 1.399 . S
C533 C534 1.385 . S
C534 H520 0.931 . S
C534 C533 1.385 . S
C534 C535 1.389 . S
C535 C534 1.389 . S
C535 C536 1.387 . S
C536 H521 0.930 . S
C536 C531 1.390 . S
C536 C535 1.387 . S
H537 C549 0.930 . S
H538 C551 0.930 . S
H539 C552 0.930 . S
H540 C556 0.959 . S
H541 C556 0.959 . S
H542 C556 0.961 . S
H543 C557 0.960 . S
H544 C557 0.961 . S
H545 C557 0.959 . S
H546 C560 0.929 . S
H547 C561 0.931 . S
H548 C563 0.930 . S
C549 H537 0.930 . S
C549 C550 1.399 1_655 S
C549 C554 1.399 . S
C550 C549 1.399 1_455 S
C550 C551 1.376 . S
C551 H538 0.930 . S
C551 C550 1.376 . S
C551 C552 1.388 . S
C552 H539 0.930 . S
C552 C551 1.388 . S
C552 C553 1.390 1_455 S
C553 C552 1.390 1_655 S
C553 C554 1.394 . S
C553 C559 1.465 . S
C554 C549 1.399 . S
C554 C553 1.394 . S
C554 C555 1.516 . S
C555 C554 1.516 . S
C555 C556 1.502 . S
C555 C557 1.561 . S
C555 C558 1.526 . S
C556 H540 0.959 . S
C556 H541 0.959 . S
C556 H542 0.961 . S
C556 C555 1.502 . S
C557 H543 0.960 . S
C557 H544 0.961 . S
C557 H545 0.959 . S
C557 C555 1.561 . S
C558 C555 1.526 . S
C558 C559 1.396 . S
C558 C563 1.390 . S
C559 C553 1.465 . S
C559 C558 1.396 . S
C559 C560 1.399 . S
C560 H546 0.929 . S
C560 C559 1.399 . S
C560 C561 1.385 1_545 S
C561 H547 0.931 . S
C561 C560 1.385 1_565 S
C561 C562 1.389 . S
C562 C561 1.389 . S
C562 C563 1.387 1_565 S
C563 H548 0.930 . S
C563 C558 1.390 . S
C563 C562 1.387 1_545 S
H564 C576 0.930 . S
H565 C578 0.930 . S
H566 C579 0.930 . S
H567 C583 0.959 . S
H568 C583 0.959 . S
H569 C583 0.961 . S
H570 C584 0.960 . S
H571 C584 0.961 . S
H572 C584 0.959 . S
H573 C587 0.929 . S
H574 C588 0.931 . S
H575 C590 0.930 . S
C576 H564 0.930 . S
C576 C577 1.399 . S
C576 C581 1.399 . S
C577 C576 1.399 . S
C577 C578 1.376 . S
C578 H565 0.930 . S
C578 C577 1.376 . S
C578 C579 1.388 . S
C579 H566 0.930 . S
C579 C578 1.388 . S
C579 C580 1.390 . S
C580 C579 1.390 . S
C580 C581 1.394 . S
C580 C586 1.465 . S
C581 C576 1.399 . S
C581 C580 1.394 . S
C581 C582 1.516 . S
C582 C581 1.516 . S
C582 C583 1.502 . S
C582 C584 1.561 . S
C582 C585 1.526 . S
C583 H567 0.959 . S
C583 H568 0.959 . S
C583 H569 0.961 . S
C583 C582 1.502 . S
C584 H570 0.960 . S
C584 H571 0.961 . S
C584 H572 0.959 . S
C584 C582 1.561 . S
C585 C582 1.526 . S
C585 C586 1.396 . S
C585 C590 1.390 . S
C586 C580 1.465 . S
C586 C585 1.396 . S
C586 C587 1.399 . S
C587 H573 0.929 . S
C587 C586 1.399 . S
C587 C588 1.385 . S
C588 H574 0.931 . S
C588 C587 1.385 . S
C588 C589 1.389 . S
C589 C588 1.389 . S
C589 C590 1.387 . S
C590 H575 0.930 . S
C590 C585 1.390 . S
C590 C589 1.387 . S
H591 C603 0.930 . S
H592 C605 0.930 . S
H593 C606 0.930 . S
H594 C610 0.959 . S
H595 C610 0.959 . S
H596 C610 0.961 . S
H597 C611 0.960 . S
H598 C611 0.961 . S
H599 C611 0.959 . S
H600 C614 0.929 . S
H601 C615 0.931 . S
H602 C617 0.930 . S
C603 H591 0.930 . S
C603 C604 1.399 . S
C603 C608 1.399 . S
C604 C603 1.399 . S
C604 C605 1.376 . S
C605 H592 0.930 . S
C605 C604 1.376 . S
C605 C606 1.388 . S
C606 H593 0.930 . S
C606 C605 1.388 . S
C606 C607 1.390 . S
C607 C606 1.390 . S
C607 C608 1.394 . S
C607 C613 1.465 . S
C608 C603 1.399 . S
C608 C607 1.394 . S
C608 C609 1.516 . S
C609 C608 1.516 . S
C609 C610 1.502 . S
C609 C611 1.561 . S
C609 C612 1.526 . S
C610 H594 0.959 . S
C610 H595 0.959 . S
C610 H596 0.961 . S
C610 C609 1.502 . S
C611 H597 0.960 . S
C611 H598 0.961 . S
C611 H599 0.959 . S
C611 C609 1.561 . S
C612 C609 1.526 . S
C612 C613 1.396 . S
C612 C617 1.390 . S
C613 C607 1.465 . S
C613 C612 1.396 . S
C613 C614 1.399 . S
C614 H600 0.929 . S
C614 C613 1.399 . S
C614 C615 1.385 . S
C615 H601 0.931 . S
C615 C614 1.385 . S
C615 C616 1.389 . S
C616 C615 1.389 . S
C616 C617 1.387 . S
C617 H602 0.930 . S
C617 C612 1.390 . S
C617 C616 1.387 . S
H618 C630 0.930 . S
H619 C632 0.930 . S
H620 C633 0.930 . S
H621 C637 0.959 . S
H622 C637 0.959 . S
H623 C637 0.961 . S
H624 C638 0.960 . S
H625 C638 0.961 . S
H626 C638 0.959 . S
H627 C641 0.929 . S
H628 C642 0.931 . S
H629 C644 0.930 . S
C630 H618 0.930 . S
C630 C631 1.399 . S
C630 C635 1.399 . S
C631 C630 1.399 . S
C631 C632 1.376 . S
C632 H619 0.930 . S
C632 C631 1.376 . S
C632 C633 1.388 . S
C633 H620 0.930 . S
C633 C632 1.388 . S
C633 C634 1.390 . S
C634 C633 1.390 . S
C634 C635 1.394 . S
C634 C640 1.465 . S
C635 C630 1.399 . S
C635 C634 1.394 . S
C635 C636 1.516 . S
C636 C635 1.516 . S
C636 C637 1.502 . S
C636 C638 1.561 . S
C636 C639 1.526 . S
C637 H621 0.959 . S
C637 H622 0.959 . S
C637 H623 0.961 . S
C637 C636 1.502 . S
C638 H624 0.960 . S
C638 H625 0.961 . S
C638 H626 0.959 . S
C638 C636 1.561 . S
C639 C636 1.526 . S
C639 C640 1.396 . S
C639 C644 1.390 . S
C640 C634 1.465 . S
C640 C639 1.396 . S
C640 C641 1.399 . S
C641 H627 0.929 . S
C641 C640 1.399 . S
C641 C642 1.385 . S
C642 H628 0.931 . S
C642 C641 1.385 . S
C642 C643 1.389 . S
C643 C642 1.389 . S
C643 C644 1.387 . S
C644 H629 0.930 . S
C644 C639 1.390 . S
C644 C643 1.387 . S
H645 C657 0.930 . S
H646 C659 0.930 . S
H647 C660 0.930 . S
H648 C664 0.959 . S
H649 C664 0.959 . S
H650 C664 0.961 . S
H651 C665 0.960 . S
H652 C665 0.961 . S
H653 C665 0.959 . S
H654 C668 0.929 . S
H655 C669 0.931 . S
H656 C671 0.930 . S
C657 H645 0.930 . S
C657 C658 1.399 . S
C657 C662 1.399 . S
C658 C657 1.399 . S
C658 C659 1.376 . S
C659 H646 0.930 . S
C659 C658 1.376 . S
C659 C660 1.388 . S
C660 H647 0.930 . S
C660 C659 1.388 . S
C660 C661 1.390 . S
C661 C660 1.390 . S
C661 C662 1.394 . S
C661 C667 1.465 . S
C662 C657 1.399 . S
C662 C661 1.394 . S
C662 C663 1.516 . S
C663 C662 1.516 . S
C663 C664 1.502 . S
C663 C665 1.561 . S
C663 C666 1.526 . S
C664 H648 0.959 . S
C664 H649 0.959 . S
C664 H650 0.961 . S
C664 C663 1.502 . S
C665 H651 0.960 . S
C665 H652 0.961 . S
C665 H653 0.959 . S
C665 C663 1.561 . S
C666 C663 1.526 . S
C666 C667 1.396 . S
C666 C671 1.390 . S
C667 C661 1.465 . S
C667 C666 1.396 . S
C667 C668 1.399 . S
C668 H654 0.929 . S
C668 C667 1.399 . S
C668 C669 1.385 . S
C669 H655 0.931 . S
C669 C668 1.385 . S
C669 C670 1.389 . S
C670 C669 1.389 . S
C670 C671 1.387 . S
C671 H656 0.930 . S
C671 C666 1.390 . S
C671 C670 1.387 . S
H672 C684 0.930 . S
H673 C686 0.930 . S
H674 C687 0.930 . S
H675 C691 0.959 . S
H676 C691 0.959 . S
H677 C691 0.961 . S
H678 C692 0.960 . S
H679 C692 0.961 . S
H680 C692 0.959 . S
H681 C695 0.929 . S
H682 C696 0.931 . S
H683 C698 0.930 . S
C684 H672 0.930 . S
C684 C685 1.399 . S
C684 C689 1.399 . S
C685 C684 1.399 . S
C685 C686 1.376 . S
C686 H673 0.930 . S
C686 C685 1.376 . S
C686 C687 1.388 . S
C687 H674 0.930 . S
C687 C686 1.388 . S
C687 C688 1.390 . S
C688 C687 1.390 . S
C688 C689 1.394 . S
C688 C694 1.465 . S
C689 C684 1.399 . S
C689 C688 1.394 . S
C689 C690 1.516 . S
C690 C689 1.516 . S
C690 C691 1.502 . S
C690 C692 1.561 . S
C690 C693 1.526 . S
C691 H675 0.959 . S
C691 H676 0.959 . S
C691 H677 0.961 . S
C691 C690 1.502 . S
C692 H678 0.960 . S
C692 H679 0.961 . S
C692 H680 0.959 . S
C692 C690 1.561 . S
C693 C690 1.526 . S
C693 C694 1.396 . S
C693 C698 1.390 . S
C694 C688 1.465 . S
C694 C693 1.396 . S
C694 C695 1.399 . S
C695 H681 0.929 . S
C695 C694 1.399 . S
C695 C696 1.385 . S
C696 H682 0.931 . S
C696 C695 1.385 . S
C696 C697 1.389 . S
C697 C696 1.389 . S
C697 C698 1.387 . S
C698 H683 0.930 . S
C698 C693 1.390 . S
C698 C697 1.387 . S
H699 C711 0.930 . S
H700 C713 0.930 . S
H701 C714 0.930 . S
H702 C718 0.959 . S
H703 C718 0.959 . S
H704 C718 0.961 . S
H705 C719 0.960 . S
H706 C719 0.961 . S
H707 C719 0.959 . S
H708 C722 0.929 . S
H709 C723 0.931 . S
H710 C725 0.930 . S
C711 H699 0.930 . S
C711 C712 1.399 . S
C711 C716 1.399 . S
C712 C711 1.399 . S
C712 C713 1.376 . S
C713 H700 0.930 . S
C713 C712 1.376 . S
C713 C714 1.388 . S
C714 H701 0.930 . S
C714 C713 1.388 . S
C714 C715 1.390 . S
C715 C714 1.390 . S
C715 C716 1.394 . S
C715 C721 1.465 . S
C716 C711 1.399 . S
C716 C715 1.394 . S
C716 C717 1.516 . S
C717 C716 1.516 . S
C717 C718 1.502 . S
C717 C719 1.561 . S
C717 C720 1.526 . S
C718 H702 0.959 . S
C718 H703 0.959 . S
C718 H704 0.961 . S
C718 C717 1.502 . S
C719 H705 0.960 . S
C719 H706 0.961 . S
C719 H707 0.959 . S
C719 C717 1.561 . S
C720 C717 1.526 . S
C720 C721 1.396 . S
C720 C725 1.390 . S
C721 C715 1.465 . S
C721 C720 1.396 . S
C721 C722 1.399 . S
C722 H708 0.929 . S
C722 C721 1.399 . S
C722 C723 1.385 . S
C723 H709 0.931 . S
C723 C722 1.385 . S
C723 C724 1.389 . S
C724 C723 1.389 . S
C724 C725 1.387 . S
C725 H710 0.930 . S
C725 C720 1.390 . S
C725 C724 1.387 . S
H726 C738 0.930 . S
H727 C740 0.930 . S
H728 C741 0.930 . S
H729 C745 0.959 . S
H730 C745 0.959 . S
H731 C745 0.961 . S
H732 C746 0.960 . S
H733 C746 0.961 . S
H734 C746 0.959 . S
H735 C749 0.931 . S
H736 C750 0.931 . S
H737 C752 0.930 . S
C738 H726 0.930 . S
C738 C739 1.399 . S
C738 C743 1.399 . S
C739 C738 1.399 . S
C739 C740 1.376 . S
C740 H727 0.930 . S
C740 C739 1.376 . S
C740 C741 1.388 1_565 S
C741 H728 0.930 . S
C741 C740 1.388 1_545 S
C741 C742 1.390 1_545 S
C742 C741 1.390 1_565 S
C742 C743 1.394 . S
C742 C748 1.465 1_566 S
C743 C738 1.399 . S
C743 C742 1.394 . S
C743 C744 1.516 1_556 S
C744 C743 1.516 1_554 S
C744 C745 1.502 . S
C744 C746 1.561 . S
C744 C747 1.526 1_565 S
C745 H729 0.959 . S
C745 H730 0.959 . S
C745 H731 0.961 . S
C745 C744 1.502 . S
C746 H732 0.960 . S
C746 H733 0.961 . S
C746 H734 0.959 . S
C746 C744 1.561 . S
C747 C744 1.526 1_545 S
C747 C748 1.396 . S
C747 C752 1.390 . S
C748 C742 1.465 1_544 S
C748 C747 1.396 . S
C748 C749 1.399 1_554 S
C749 H735 0.931 . S
C749 C748 1.399 1_556 S
C749 C750 1.384 1_556 S
C750 H736 0.931 . S
C750 C749 1.384 1_554 S
C750 C751 1.389 . S
C751 C750 1.389 . S
C751 C752 1.387 . S
C752 H737 0.930 . S
C752 C747 1.390 . S
C752 C751 1.387 . S
H753 C765 0.930 . S
H754 C767 0.930 . S
H755 C768 0.930 . S
H756 C772 0.959 . S
H757 C772 0.959 . S
H758 C772 0.961 . S
H759 C773 0.960 . S
H760 C773 0.961 . S
H761 C773 0.959 . S
H762 C776 0.929 . S
H763 C777 0.931 . S
H764 C779 0.930 . S
C765 H753 0.930 . S
C765 C766 1.399 . S
C765 C770 1.399 . S
C766 C765 1.399 . S
C766 C767 1.376 . S
C767 H754 0.930 . S
C767 C766 1.376 . S
C767 C768 1.388 . S
C768 H755 0.930 . S
C768 C767 1.388 . S
C768 C769 1.390 . S
C769 C768 1.390 . S
C769 C770 1.394 . S
C769 C775 1.465 . S
C770 C765 1.399 . S
C770 C769 1.394 . S
C770 C771 1.516 . S
C771 C770 1.516 . S
C771 C772 1.502 . S
C771 C773 1.561 . S
C771 C774 1.526 . S
C772 H756 0.959 . S
C772 H757 0.959 . S
C772 H758 0.961 . S
C772 C771 1.502 . S
C773 H759 0.960 . S
C773 H760 0.961 . S
C773 H761 0.959 . S
C773 C771 1.561 . S
C774 C771 1.526 . S
C774 C775 1.396 . S
C774 C779 1.390 . S
C775 C769 1.465 . S
C775 C774 1.396 . S
C775 C776 1.399 . S
C776 H762 0.929 . S
C776 C775 1.399 . S
C776 C777 1.385 . S
C777 H763 0.931 . S
C777 C776 1.385 . S
C777 C778 1.389 . S
C778 C777 1.389 . S
C778 C779 1.387 . S
C779 H764 0.930 . S
C779 C774 1.390 . S
C779 C778 1.387 . S
H780 C792 0.930 . S
H781 C794 0.930 . S
H782 C795 0.930 . S
H783 C799 0.959 . S
H784 C799 0.959 . S
H785 C799 0.961 . S
H786 C800 0.960 . S
H787 C800 0.961 . S
H788 C800 0.959 . S
H789 C803 0.949 . S
H790 C804 0.931 . S
H791 C806 0.930 . S
C792 H780 0.930 . S
C792 C793 1.399 . S
C792 C797 1.399 . S
C793 C792 1.399 . S
C793 C794 1.376 . S
C794 H781 0.930 . S
C794 C793 1.376 . S
C794 C795 1.388 1_455 S
C795 H782 0.930 . S
C795 C794 1.388 1_655 S
C795 C796 1.389 1_655 S
C796 C795 1.389 1_455 S
C796 C797 1.405 . S
C796 C802 1.426 1_456 S
C797 C792 1.399 . S
C797 C796 1.405 . S
C797 C798 1.516 1_556 S
C798 C797 1.516 1_554 S
C798 C799 1.502 . S
C798 C800 1.561 . S
C798 C801 1.526 1_455 S
C799 H783 0.959 . S
C799 H784 0.959 . S
C799 H785 0.961 . S
C799 C798 1.502 . S
C800 H786 0.960 . S
C800 H787 0.961 . S
C800 H788 0.959 . S
C800 C798 1.561 . S
C801 C798 1.526 1_655 S
C801 C802 1.434 . S
C801 C806 1.390 . S
C802 C796 1.426 1_654 S
C802 C801 1.434 . S
C802 C803 1.397 1_554 S
C803 H789 0.949 . S
C803 C802 1.397 1_556 S
C803 C804 1.367 1_556 S
C804 H790 0.931 . S
C804 C803 1.367 1_554 S
C804 C805 1.389 . S
C805 C804 1.389 . S
C805 C806 1.387 . S
C806 H791 0.930 . S
C806 C801 1.390 . S
C806 C805 1.387 . S
H807 C819 0.930 . S
H808 C821 0.930 . S
H809 C822 0.930 . S
H810 C826 0.959 . S
H811 C826 0.959 . S
H812 C826 0.961 1_545 S
H813 C827 0.960 . S
H814 C827 0.961 . S
H815 C827 0.959 . S
H816 C830 0.929 . S
H817 C831 0.931 . S
H818 C833 0.930 . S
C819 H807 0.930 . S
C819 C820 1.399 . S
C819 C824 1.399 . S
C820 C819 1.399 . S
C820 C821 1.376 . S
C821 H808 0.930 . S
C821 C820 1.376 . S
C821 C822 1.388 . S
C822 H809 0.930 . S
C822 C821 1.388 . S
C822 C823 1.390 . S
C823 C822 1.390 . S
C823 C824 1.394 . S
C823 C829 1.465 1_545 S
C824 C819 1.399 . S
C824 C823 1.394 . S
C824 C825 1.516 . S
C825 C824 1.516 . S
C825 C826 1.502 1_545 S
C825 C827 1.561 . S
C825 C828 1.526 1_545 S
C826 H810 0.959 . S
C826 H811 0.959 . S
C826 H812 0.961 1_565 S
C826 C825 1.502 1_565 S
C827 H813 0.960 . S
C827 H814 0.961 . S
C827 H815 0.959 . S
C827 C825 1.561 . S
C828 C825 1.526 1_565 S
C828 C829 1.396 . S
C828 C833 1.390 . S
C829 C823 1.465 1_565 S
C829 C828 1.396 . S
C829 C830 1.399 . S
C830 H816 0.929 . S
C830 C829 1.399 . S
C830 C831 1.385 . S
C831 H817 0.931 . S
C831 C830 1.385 . S
C831 C832 1.389 . S
C832 C831 1.389 . S
C832 C833 1.387 . S
C833 H818 0.930 . S
C833 C828 1.390 . S
C833 C832 1.387 . S
H834 C846 0.930 . S
H835 C848 0.930 . S
H836 C849 0.959 . S
H837 C853 0.959 1_556 S
H838 C853 0.959 . S
H839 C853 0.961 . S
H840 C854 0.960 . S
H841 C854 0.961 . S
H842 C854 0.959 . S
H843 C857 0.929 . S
H844 C858 0.931 . S
H845 C860 0.930 . S
C846 H834 0.930 . S
C846 C847 1.399 . S
C846 C851 1.399 . S
C847 C846 1.399 . S
C847 C848 1.376 . S
C848 H835 0.930 . S
C848 C847 1.376 . S
C848 C849 1.388 . S
C849 H836 0.959 . S
C849 C848 1.388 . S
C849 C850 1.390 . S
C850 C849 1.390 . S
C850 C851 1.394 . S
C850 C856 1.465 1_554 S
C851 C846 1.399 . S
C851 C850 1.394 . S
C851 C852 1.516 . S
C852 C851 1.516 . S
C852 C853 1.502 . S
C852 C854 1.561 . S
C852 C855 1.526 1_554 S
C853 H837 0.959 1_554 S
C853 H838 0.959 . S
C853 H839 0.961 . S
C853 C852 1.502 . S
C854 H840 0.960 . S
C854 H841 0.961 . S
C854 H842 0.959 . S
C854 C852 1.561 . S
C855 C852 1.526 1_556 S
C855 C856 1.396 . S
C855 C860 1.390 . S
C856 C850 1.465 1_556 S
C856 C855 1.396 . S
C856 C857 1.399 . S
C857 H843 0.929 . S
C857 C856 1.399 . S
C857 C858 1.385 . S
C858 H844 0.931 . S
C858 C857 1.385 . S
C858 C859 1.389 . S
C859 C858 1.389 . S
C859 C860 1.387 . S
C860 H845 0.930 . S
C860 C855 1.390 . S
C860 C859 1.387 . S
H861 C873 0.930 . S
H862 C875 0.930 . S
H863 C876 0.930 . S
H864 C880 0.959 . S
H865 C880 0.959 1_655 S
H866 C880 0.961 . S
H867 C881 0.960 . S
H868 C881 0.961 . S
H869 C881 0.959 . S
H870 C884 0.929 . S
H871 C885 0.931 . S
H872 C887 0.930 . S
C873 H861 0.930 . S
C873 C874 1.399 . S
C873 C878 1.399 . S
C874 C873 1.399 . S
C874 C875 1.376 . S
C875 H862 0.930 . S
C875 C874 1.376 . S
C875 C876 1.388 . S
C876 H863 0.930 . S
C876 C875 1.388 . S
C876 C877 1.390 . S
C877 C876 1.390 . S
C877 C878 1.394 . S
C877 C883 1.465 1_455 S
C878 C873 1.399 . S
C878 C877 1.394 . S
C878 C879 1.516 1_455 S
C879 C878 1.516 1_655 S
C879 C880 1.502 1_655 S
C879 C881 1.561 . S
C879 C882 1.526 . S
C880 H864 0.959 . S
C880 H865 0.959 1_455 S
C880 H866 0.961 . S
C880 C879 1.502 1_455 S
C881 H867 0.960 . S
C881 H868 0.961 . S
C881 H869 0.959 . S
C881 C879 1.561 . S
C882 C879 1.526 . S
C882 C883 1.396 . S
C882 C887 1.390 . S
C883 C877 1.465 1_655 S
C883 C882 1.396 . S
C883 C884 1.399 . S
C884 H870 0.929 . S
C884 C883 1.399 . S
C884 C885 1.385 . S
C885 H871 0.931 . S
C885 C884 1.385 . S
C885 C886 1.389 . S
C886 C885 1.389 . S
C886 C887 1.387 . S
C887 H872 0.930 . S
C887 C882 1.390 . S
C887 C886 1.387 . S
H888 C900 0.930 . S
H889 C902 0.930 . S
H890 C903 0.930 . S
H891 C907 0.959 . S
H892 C907 0.959 . S
H893 C907 0.961 . S
H894 C908 0.960 . S
H895 C908 0.961 . S
H896 C908 0.959 . S
H897 C911 0.929 . S
H898 C912 0.931 . S
H899 C914 0.930 . S
C900 H888 0.930 . S
C900 C901 1.399 . S
C900 C905 1.399 . S
C901 C900 1.399 . S
C901 C902 1.376 . S
C902 H889 0.930 . S
C902 C901 1.376 . S
C902 C903 1.388 . S
C903 H890 0.930 . S
C903 C902 1.388 . S
C903 C904 1.390 . S
C904 C903 1.390 . S
C904 C905 1.394 . S
C904 C910 1.465 . S
C905 C900 1.399 . S
C905 C904 1.394 . S
C905 C906 1.516 . S
C906 C905 1.516 . S
C906 C907 1.502 . S
C906 C908 1.561 . S
C906 C909 1.526 . S
C907 H891 0.959 . S
C907 H892 0.959 . S
C907 H893 0.961 . S
C907 C906 1.502 . S
C908 H894 0.960 . S
C908 H895 0.961 . S
C908 H896 0.959 . S
C908 C906 1.561 . S
C909 C906 1.526 . S
C909 C910 1.396 . S
C909 C914 1.390 . S
C910 C904 1.465 . S
C910 C909 1.396 . S
C910 C911 1.399 . S
C911 H897 0.929 . S
C911 C910 1.399 . S
C911 C912 1.385 . S
C912 H898 0.931 . S
C912 C911 1.385 . S
C912 C913 1.389 . S
C913 C912 1.389 . S
C913 C914 1.387 . S
C914 H899 0.930 . S
C914 C909 1.390 . S
C914 C913 1.387 . S
H915 C927 0.930 . S
H916 C929 0.930 . S
H917 C930 0.930 . S
H918 C934 0.959 . S
H919 C934 0.959 . S
H920 C934 0.961 . S
H921 C935 0.960 . S
H922 C935 0.961 . S
H923 C935 0.959 . S
H924 C938 0.929 . S
H925 C939 0.931 . S
H926 C941 0.930 . S
C927 H915 0.930 . S
C927 C928 1.399 . S
C927 C932 1.399 . S
C928 C927 1.399 . S
C928 C929 1.376 . S
C929 H916 0.930 . S
C929 C928 1.376 . S
C929 C930 1.388 . S
C930 H917 0.930 . S
C930 C929 1.388 . S
C930 C931 1.390 . S
C931 C930 1.390 . S
C931 C932 1.394 . S
C931 C937 1.465 . S
C932 C927 1.399 . S
C932 C931 1.394 . S
C932 C933 1.516 . S
C933 C932 1.516 . S
C933 C934 1.502 . S
C933 C935 1.561 . S
C933 C936 1.526 . S
C934 H918 0.959 . S
C934 H919 0.959 . S
C934 H920 0.961 . S
C934 C933 1.502 . S
C935 H921 0.960 . S
C935 H922 0.961 . S
C935 H923 0.959 . S
C935 C933 1.561 . S
C936 C933 1.526 . S
C936 C937 1.396 . S
C936 C941 1.390 . S
C937 C931 1.465 . S
C937 C936 1.396 . S
C937 C938 1.399 . S
C938 H924 0.929 . S
C938 C937 1.399 . S
C938 C939 1.385 . S
C939 H925 0.931 . S
C939 C938 1.385 . S
C939 C940 1.389 . S
C940 C939 1.389 . S
C940 C941 1.387 . S
C941 H926 0.930 . S
C941 C936 1.390 . S
C941 C940 1.387 . S
H942 C954 0.930 . S
H943 C956 0.930 . S
H944 C957 0.930 . S
H945 C961 0.959 . S
H946 C961 0.959 . S
H947 C961 0.961 . S
H948 C962 0.960 . S
H949 C962 0.961 . S
H950 C962 0.959 . S
H951 C965 0.929 . S
H952 C966 0.931 . S
H953 C968 0.930 . S
C954 H942 0.930 . S
C954 C955 1.399 . S
C954 C959 1.399 . S
C955 C954 1.399 . S
C955 C956 1.376 . S
C956 H943 0.930 . S
C956 C955 1.376 . S
C956 C957 1.388 . S
C957 H944 0.930 . S
C957 C956 1.388 . S
C957 C958 1.390 . S
C958 C957 1.390 . S
C958 C959 1.394 . S
C958 C964 1.465 . S
C959 C954 1.399 . S
C959 C958 1.394 . S
C959 C960 1.516 . S
C960 C959 1.516 . S
C960 C961 1.502 . S
C960 C962 1.561 . S
C960 C963 1.526 . S
C961 H945 0.959 . S
C961 H946 0.959 . S
C961 H947 0.961 . S
C961 C960 1.502 . S
C962 H948 0.960 . S
C962 H949 0.961 . S
C962 H950 0.959 . S
C962 C960 1.561 . S
C963 C960 1.526 . S
C963 C964 1.396 . S
C963 C968 1.390 . S
C964 C958 1.465 . S
C964 C963 1.396 . S
C964 C965 1.399 . S
C965 H951 0.929 . S
C965 C964 1.399 . S
C965 C966 1.385 . S
C966 H952 0.931 . S
C966 C965 1.385 . S
C966 C967 1.389 . S
C967 C966 1.389 . S
C967 C968 1.387 . S
C968 H953 0.930 . S
C968 C963 1.390 . S
C968 C967 1.387 . S
H969 C981 0.930 . S
H970 C983 0.930 . S
H971 C984 0.930 . S
H972 C988 0.959 . S
H973 C988 0.959 . S
H974 C988 0.961 . S
H975 C989 0.960 . S
H976 C989 0.961 . S
H977 C989 0.959 . S
H978 C992 0.929 . S
H979 C993 0.931 . S
H980 C995 0.930 . S
C981 H969 0.930 . S
C981 C982 1.399 . S
C981 C986 1.399 . S
C982 C981 1.399 . S
C982 C983 1.376 . S
C983 H970 0.930 . S
C983 C982 1.376 . S
C983 C984 1.388 . S
C984 H971 0.930 . S
C984 C983 1.388 . S
C984 C985 1.390 . S
C985 C984 1.390 . S
C985 C986 1.394 . S
C985 C991 1.465 . S
C986 C981 1.399 . S
C986 C985 1.394 . S
C986 C987 1.516 . S
C987 C986 1.516 . S
C987 C988 1.502 . S
C987 C989 1.561 . S
C987 C990 1.526 . S
C988 H972 0.959 . S
C988 H973 0.959 . S
C988 H974 0.961 . S
C988 C987 1.502 . S
C989 H975 0.960 . S
C989 H976 0.961 . S
C989 H977 0.959 . S
C989 C987 1.561 . S
C990 C987 1.526 . S
C990 C991 1.396 . S
C990 C995 1.390 . S
C991 C985 1.465 . S
C991 C990 1.396 . S
C991 C992 1.399 . S
C992 H978 0.929 . S
C992 C991 1.399 . S
C992 C993 1.385 . S
C993 H979 0.931 . S
C993 C992 1.385 . S
C993 C994 1.389 . S
C994 C993 1.389 . S
C994 C995 1.387 . S
C995 H980 0.930 . S
C995 C990 1.390 . S
C995 C994 1.387 . S
H996 C1008 0.930 . S
H997 C1010 0.930 . S
H998 C1011 0.930 . S
H999 C1015 0.959 . S
H1000 C1015 0.959 . S
H1001 C1015 0.961 . S
H1002 C1016 0.960 . S
H1003 C1016 0.961 . S
H1004 C1016 0.959 . S
H1005 C1019 0.929 . S
H1006 C1020 0.931 . S
H1007 C1022 0.930 . S
C1008 H996 0.930 . S
C1008 C1009 1.399 . S
C1008 C1013 1.399 . S
C1009 C1008 1.399 . S
C1009 C1010 1.376 . S
C1010 H997 0.930 . S
C1010 C1009 1.376 . S
C1010 C1011 1.388 . S
C1011 H998 0.930 . S
C1011 C1010 1.388 . S
C1011 C1012 1.390 . S
C1012 C1011 1.390 . S
C1012 C1013 1.394 . S
C1012 C1018 1.465 . S
C1013 C1008 1.399 . S
C1013 C1012 1.394 . S
C1013 C1014 1.516 . S
C1014 C1013 1.516 . S
C1014 C1015 1.502 . S
C1014 C1016 1.561 . S
C1014 C1017 1.526 . S
C1015 H999 0.959 . S
C1015 H1000 0.959 . S
C1015 H1001 0.961 . S
C1015 C1014 1.502 . S
C1016 H1002 0.960 . S
C1016 H1003 0.961 . S
C1016 H1004 0.959 . S
C1016 C1014 1.561 . S
C1017 C1014 1.526 . S
C1017 C1018 1.396 . S
C1017 C1022 1.390 . S
C1018 C1012 1.465 . S
C1018 C1017 1.396 . S
C1018 C1019 1.399 . S
C1019 H1005 0.929 . S
C1019 C1018 1.399 . S
C1019 C1020 1.385 . S
C1020 H1006 0.931 . S
C1020 C1019 1.385 . S
C1020 C1021 1.389 . S
C1021 C1020 1.389 . S
C1021 C1022 1.387 . S
C1022 H1007 0.930 . S
C1022 C1017 1.390 . S
C1022 C1021 1.387 . S
H1023 C1035 0.930 . S
H1024 C1037 0.930 . S
H1025 C1038 0.930 . S
H1026 C1042 0.959 . S
H1027 C1042 0.959 . S
H1028 C1042 0.961 . S
H1029 C1043 0.960 . S
H1030 C1043 0.961 . S
H1031 C1043 0.959 . S
H1032 C1046 0.929 . S
H1033 C1047 0.931 . S
H1034 C1049 0.930 . S
C1035 H1023 0.930 . S
C1035 C1036 1.399 . S
C1035 C1040 1.399 . S
C1036 C1035 1.399 . S
C1036 C1037 1.376 . S
C1037 H1024 0.930 . S
C1037 C1036 1.376 . S
C1037 C1038 1.388 . S
C1038 H1025 0.930 . S
C1038 C1037 1.388 . S
C1038 C1039 1.390 . S
C1039 C1038 1.390 . S
C1039 C1040 1.394 . S
C1039 C1045 1.465 . S
C1040 C1035 1.399 . S
C1040 C1039 1.394 . S
C1040 C1041 1.516 . S
C1041 C1040 1.516 . S
C1041 C1042 1.502 . S
C1041 C1043 1.561 . S
C1041 C1044 1.526 . S
C1042 H1026 0.959 . S
C1042 H1027 0.959 . S
C1042 H1028 0.961 . S
C1042 C1041 1.502 . S
C1043 H1029 0.960 . S
C1043 H1030 0.961 . S
C1043 H1031 0.959 . S
C1043 C1041 1.561 . S
C1044 C1041 1.526 . S
C1044 C1045 1.396 . S
C1044 C1049 1.390 . S
C1045 C1039 1.465 . S
C1045 C1044 1.396 . S
C1045 C1046 1.399 . S
C1046 H1032 0.929 . S
C1046 C1045 1.399 . S
C1046 C1047 1.385 . S
C1047 H1033 0.931 . S
C1047 C1046 1.385 . S
C1047 C1048 1.389 . S
C1048 C1047 1.389 . S
C1048 C1049 1.387 . S
C1049 H1034 0.930 . S
C1049 C1044 1.390 . S
C1049 C1048 1.387 . S
H1050 C1062 0.930 . S
H1051 C1064 0.930 . S
H1052 C1065 0.930 . S
H1053 C1069 0.959 . S
H1054 C1069 0.959 . S
H1055 C1069 0.961 . S
H1056 C1070 0.960 . S
H1057 C1070 0.961 . S
H1058 C1070 0.959 . S
H1059 C1073 0.929 . S
H1060 C1074 0.931 . S
H1061 C1076 0.930 . S
C1062 H1050 0.930 . S
C1062 C1063 1.399 . S
C1062 C1067 1.399 . S
C1063 C1062 1.399 . S
C1063 C1064 1.376 . S
C1064 H1051 0.930 . S
C1064 C1063 1.376 . S
C1064 C1065 1.388 . S
C1065 H1052 0.930 . S
C1065 C1064 1.388 . S
C1065 C1066 1.390 . S
C1066 C1065 1.390 . S
C1066 C1067 1.394 . S
C1066 C1072 1.465 . S
C1067 C1062 1.399 . S
C1067 C1066 1.394 . S
C1067 C1068 1.516 . S
C1068 C1067 1.516 . S
C1068 C1069 1.502 . S
C1068 C1070 1.561 . S
C1068 C1071 1.526 . S
C1069 H1053 0.959 . S
C1069 H1054 0.959 . S
C1069 H1055 0.961 . S
C1069 C1068 1.502 . S
C1070 H1056 0.960 . S
C1070 H1057 0.961 . S
C1070 H1058 0.959 . S
C1070 C1068 1.561 . S
C1071 C1068 1.526 . S
C1071 C1072 1.396 . S
C1071 C1076 1.390 . S
C1072 C1066 1.465 . S
C1072 C1071 1.396 . S
C1072 C1073 1.399 . S
C1073 H1059 0.929 . S
C1073 C1072 1.399 . S
C1073 C1074 1.385 . S
C1074 H1060 0.931 . S
C1074 C1073 1.385 . S
C1074 C1075 1.389 . S
C1075 C1074 1.389 . S
C1075 C1076 1.387 . S
C1076 H1061 0.930 . S
C1076 C1071 1.390 . S
C1076 C1075 1.387 . S
H1077 C1089 0.930 . S
H1078 C1091 0.930 . S
H1079 C1092 0.930 . S
H1080 C1096 0.959 . S
H1081 C1096 0.959 . S
H1082 C1096 0.961 . S
H1083 C1097 0.960 . S
H1084 C1097 0.961 . S
H1085 C1097 0.959 . S
H1086 C1100 0.929 . S
H1087 C1101 0.931 . S
H1088 C1103 0.930 . S
C1089 H1077 0.930 . S
C1089 C1090 1.399 . S
C1089 C1094 1.399 . S
C1090 C1089 1.399 . S
C1090 C1091 1.376 . S
C1091 H1078 0.930 . S
C1091 C1090 1.376 . S
C1091 C1092 1.388 . S
C1092 H1079 0.930 . S
C1092 C1091 1.388 . S
C1092 C1093 1.390 . S
C1093 C1092 1.390 . S
C1093 C1094 1.394 . S
C1093 C1099 1.465 . S
C1094 C1089 1.399 . S
C1094 C1093 1.394 . S
C1094 C1095 1.516 . S
C1095 C1094 1.516 . S
C1095 C1096 1.502 . S
C1095 C1097 1.561 . S
C1095 C1098 1.526 . S
C1096 H1080 0.959 . S
C1096 H1081 0.959 . S
C1096 H1082 0.961 . S
C1096 C1095 1.502 . S
C1097 H1083 0.960 . S
C1097 H1084 0.961 . S
C1097 H1085 0.959 . S
C1097 C1095 1.561 . S
C1098 C1095 1.526 . S
C1098 C1099 1.396 . S
C1098 C1103 1.390 . S
C1099 C1093 1.465 . S
C1099 C1098 1.396 . S
C1099 C1100 1.399 . S
C1100 H1086 0.929 . S
C1100 C1099 1.399 . S
C1100 C1101 1.385 . S
C1101 H1087 0.931 . S
C1101 C1100 1.385 . S
C1101 C1102 1.389 . S
C1102 C1101 1.389 . S
C1102 C1103 1.387 . S
C1103 H1088 0.930 . S
C1103 C1098 1.390 . S
C1103 C1102 1.387 . S
H1104 C1116 0.930 . S
H1105 C1118 0.930 . S
H1106 C1119 0.930 . S
H1107 C1123 0.959 . S
H1108 C1123 0.959 . S
H1109 C1123 0.961 . S
H1110 C1124 0.960 . S
H1111 C1124 0.961 . S
H1112 C1124 0.959 . S
H1113 C1127 0.929 . S
H1114 C1128 0.931 . S
H1115 C1130 0.930 . S
C1116 H1104 0.930 . S
C1116 C1117 1.399 . S
C1116 C1121 1.399 . S
C1117 C1116 1.399 . S
C1117 C1118 1.376 . S
C1118 H1105 0.930 . S
C1118 C1117 1.376 . S
C1118 C1119 1.388 . S
C1119 H1106 0.930 . S
C1119 C1118 1.388 . S
C1119 C1120 1.390 . S
C1120 C1119 1.390 . S
C1120 C1121 1.394 . S
C1120 C1126 1.465 . S
C1121 C1116 1.399 . S
C1121 C1120 1.394 . S
C1121 C1122 1.516 . S
C1122 C1121 1.516 . S
C1122 C1123 1.502 . S
C1122 C1124 1.561 . S
C1122 C1125 1.526 . S
C1123 H1107 0.959 . S
C1123 H1108 0.959 . S
C1123 H1109 0.961 . S
C1123 C1122 1.502 . S
C1124 H1110 0.960 . S
C1124 H1111 0.961 . S
C1124 H1112 0.959 . S
C1124 C1122 1.561 . S
C1125 C1122 1.526 . S
C1125 C1126 1.396 . S
C1125 C1130 1.390 . S
C1126 C1120 1.465 . S
C1126 C1125 1.396 . S
C1126 C1127 1.399 . S
C1127 H1113 0.929 . S
C1127 C1126 1.399 . S
C1127 C1128 1.385 . S
C1128 H1114 0.931 . S
C1128 C1127 1.385 . S
C1128 C1129 1.389 . S
C1129 C1128 1.389 . S
C1129 C1130 1.387 . S
C1130 H1115 0.930 . S
C1130 C1125 1.390 . S
C1130 C1129 1.387 . S
H1131 C1143 0.930 . S
H1132 C1145 0.930 . S
H1133 C1146 0.930 . S
H1134 C1150 0.959 . S
H1135 C1150 0.959 . S
H1136 C1150 0.961 . S
H1137 C1151 0.960 . S
H1138 C1151 0.961 . S
H1139 C1151 0.959 . S
H1140 C1154 0.929 . S
H1141 C1155 0.931 . S
H1142 C1157 0.930 . S
C1143 H1131 0.930 . S
C1143 C1144 1.399 . S
C1143 C1148 1.399 . S
C1144 C1143 1.399 . S
C1144 C1145 1.376 . S
C1145 H1132 0.930 . S
C1145 C1144 1.376 . S
C1145 C1146 1.388 . S
C1146 H1133 0.930 . S
C1146 C1145 1.388 . S
C1146 C1147 1.390 . S
C1147 C1146 1.390 . S
C1147 C1148 1.394 . S
C1147 C1153 1.465 . S
C1148 C1143 1.399 . S
C1148 C1147 1.394 . S
C1148 C1149 1.516 . S
C1149 C1148 1.516 . S
C1149 C1150 1.502 . S
C1149 C1151 1.561 . S
C1149 C1152 1.526 . S
C1150 H1134 0.959 . S
C1150 H1135 0.959 . S
C1150 H1136 0.961 . S
C1150 C1149 1.502 . S
C1151 H1137 0.960 . S
C1151 H1138 0.961 . S
C1151 H1139 0.959 . S
C1151 C1149 1.561 . S
C1152 C1149 1.526 . S
C1152 C1153 1.396 . S
C1152 C1157 1.390 . S
C1153 C1147 1.465 . S
C1153 C1152 1.396 . S
C1153 C1154 1.399 . S
C1154 H1140 0.929 . S
C1154 C1153 1.399 . S
C1154 C1155 1.385 . S
C1155 H1141 0.931 . S
C1155 C1154 1.385 . S
C1155 C1156 1.389 . S
C1156 C1155 1.389 . S
C1156 C1157 1.387 . S
C1157 H1142 0.930 . S
C1157 C1152 1.390 . S
C1157 C1156 1.387 . S
H1158 C1170 0.930 . S
H1159 C1172 0.930 . S
H1160 C1173 0.930 . S
H1161 C1177 0.959 . S
H1162 C1177 0.959 . S
H1163 C1177 0.961 . S
H1164 C1178 0.960 . S
H1165 C1178 0.961 . S
H1166 C1178 0.959 . S
H1167 C1181 0.929 . S
H1168 C1182 0.931 . S
H1169 C1184 0.930 . S
C1170 H1158 0.930 . S
C1170 C1171 1.399 . S
C1170 C1175 1.399 . S
C1171 C1170 1.399 . S
C1171 C1172 1.376 . S
C1172 H1159 0.930 . S
C1172 C1171 1.376 . S
C1172 C1173 1.388 . S
C1173 H1160 0.930 . S
C1173 C1172 1.388 . S
C1173 C1174 1.390 . S
C1174 C1173 1.390 . S
C1174 C1175 1.394 . S
C1174 C1180 1.465 . S
C1175 C1170 1.399 . S
C1175 C1174 1.394 . S
C1175 C1176 1.516 . S
C1176 C1175 1.516 . S
C1176 C1177 1.502 . S
C1176 C1178 1.561 . S
C1176 C1179 1.526 . S
C1177 H1161 0.959 . S
C1177 H1162 0.959 . S
C1177 H1163 0.961 . S
C1177 C1176 1.502 . S
C1178 H1164 0.960 . S
C1178 H1165 0.961 . S
C1178 H1166 0.959 . S
C1178 C1176 1.561 . S
C1179 C1176 1.526 . S
C1179 C1180 1.396 . S
C1179 C1184 1.390 . S
C1180 C1174 1.465 . S
C1180 C1179 1.396 . S
C1180 C1181 1.399 . S
C1181 H1167 0.929 . S
C1181 C1180 1.399 . S
C1181 C1182 1.385 . S
C1182 H1168 0.931 . S
C1182 C1181 1.385 . S
C1182 C1183 1.389 . S
C1183 C1182 1.389 . S
C1183 C1184 1.387 . S
C1184 H1169 0.930 . S
C1184 C1179 1.390 . S
C1184 C1183 1.387 . S
H1185 C1197 0.930 . S
H1186 C1199 0.930 . S
H1187 C1200 0.930 . S
H1188 C1204 0.959 . S
H1189 C1204 0.959 . S
H1190 C1204 0.961 . S
H1191 C1205 0.960 . S
H1192 C1205 0.961 . S
H1193 C1205 0.959 . S
H1194 C1208 0.929 . S
H1195 C1209 0.931 . S
H1196 C1211 0.930 . S
C1197 H1185 0.930 . S
C1197 C1198 1.399 . S
C1197 C1202 1.399 . S
C1198 C1197 1.399 . S
C1198 C1199 1.376 . S
C1199 H1186 0.930 . S
C1199 C1198 1.376 . S
C1199 C1200 1.388 . S
C1200 H1187 0.930 . S
C1200 C1199 1.388 . S
C1200 C1201 1.390 . S
C1201 C1200 1.390 . S
C1201 C1202 1.394 . S
C1201 C1207 1.465 . S
C1202 C1197 1.399 . S
C1202 C1201 1.394 . S
C1202 C1203 1.516 . S
C1203 C1202 1.516 . S
C1203 C1204 1.502 . S
C1203 C1205 1.561 . S
C1203 C1206 1.526 . S
C1204 H1188 0.959 . S
C1204 H1189 0.959 . S
C1204 H1190 0.961 . S
C1204 C1203 1.502 . S
C1205 H1191 0.960 . S
C1205 H1192 0.961 . S
C1205 H1193 0.959 . S
C1205 C1203 1.561 . S
C1206 C1203 1.526 . S
C1206 C1207 1.396 . S
C1206 C1211 1.390 . S
C1207 C1201 1.465 . S
C1207 C1206 1.396 . S
C1207 C1208 1.399 . S
C1208 H1194 0.929 . S
C1208 C1207 1.399 . S
C1208 C1209 1.385 . S
C1209 H1195 0.931 . S
C1209 C1208 1.385 . S
C1209 C1210 1.389 . S
C1210 C1209 1.389 . S
C1210 C1211 1.387 . S
C1211 H1196 0.930 . S
C1211 C1206 1.390 . S
C1211 C1210 1.387 . S
C253 C59 1.330 . S
C265 C6 1.335 . S
C280 C68 1.365 . S
C292 C36 1.348 . S
C307 C46 1.378 . S
C319 C99 1.362 . S
C334 C76 1.381 . S
C346 C108 1.392 . S
C361 C19 1.392 . S
C373 C86 1.359 . S
C388 C28 1.374 . S
C400 C116 1.368 . S
C415 C208 1.357 . S
C427 C136 1.339 . S
C442 C146 1.361 . S
C454 C239 1.346 . S
C469 C176 1.361 . S
C481 C128 1.376 . S
C496 C186 1.379 . S
C508 C159 1.363 . S
C523 C216 1.384 . S
C535 C168 1.394 . S
C550 C199 1.393 . S
C562 C226 1.392 . S
C577 C61 1.751 . S
C589 C9 1.742 . S
C604 C21 1.778 . S
C616 C89 1.779 . S
C631 C49 1.724 . S
C643 C101 1.732 . S
C658 C121 1.775 . S
C670 C189 1.778 . S
C685 C149 1.778 . S
C697 C201 1.779 . S
C712 C161 1.766 . S
C724 C229 1.758 . S
C739 C141 1.908 . S
C751 C1 1.941 . S
C766 C29 1.926 . S
C778 C169 1.909 . S
C793 C181 1.909 . S
C805 C41 1.943 . S
C820 C69 1.945 . S
C832 C209 1.941 . S
C847 C81 1.943 . S
C859 C221 1.932 . S
C874 C129 1.912 . S
C886 C109 1.916 . S
C901 C48 1.517 . S
C913 C16 1.569 . S
C928 C26 1.574 . S
C940 C79 1.505 . S
C955 C56 1.576 . S
C967 C88 1.525 . S
C982 C66 1.538 . S
C994 C119 1.450 . S
C1009 C8 1.521 . S
C1021 C96 1.571 . S
C1036 C39 1.455 . S
C1048 C106 1.551 . S
C1063 C219 1.452 . S
C1075 C126 1.549 . S
C1090 C156 1.579 . S
C1102 C228 1.532 . S
C1117 C166 1.566 . S
C1129 C139 1.483 . S
C1144 C148 1.512 . S
C1156 C196 1.567 . S
C1171 C206 1.579 . S
C1183 C179 1.533 . S
C1198 C236 1.539 . S
C1210 C188 1.447 . S
