# Generated by pormake.
# Topology lta, (4)-cn, num edge types: 1
# Building blocks:
#     Node 0, Type 0, BuildingBlock: KUFVIS_clean_sbu_0, # of connection points: 4
#     Node 1, Type 0, BuildingBlock: KUFVIS_clean_sbu_0, # of connection points: 4
#     Node 2, Type 0, BuildingBlock: KUFVIS_clean_sbu_0, # of connection points: 4
#     Node 3, Type 0, BuildingBlock: KUFVIS_clean_sbu_0, # of connection points: 4
#     Node 4, Type 0, BuildingBlock: KUFVIS_clean_sbu_0, # of connection points: 4
#     Node 5, Type 0, BuildingBlock: KUFVIS_clean_sbu_0, # of connection points: 4
#     Node 6, Type 0, BuildingBlock: KUFVIS_clean_sbu_0, # of connection points: 4
#     Node 7, Type 0, BuildingBlock: KUFVIS_clean_sbu_0, # of connection points: 4
#     Node 8, Type 0, BuildingBlock: KUFVIS_clean_sbu_0, # of connection points: 4
#     Node 9, Type 0, BuildingBlock: KUFVIS_clean_sbu_0, # of connection points: 4
#     Node 10, Type 0, BuildingBlock: KUFVIS_clean_sbu_0, # of connection points: 4
#     Node 11, Type 0, BuildingBlock: KUFVIS_clean_sbu_0, # of connection points: 4
#     Node 12, Type 0, BuildingBlock: KUFVIS_clean_sbu_0, # of connection points: 4
#     Node 13, Type 0, BuildingBlock: KUFVIS_clean_sbu_0, # of connection points: 4
#     Node 14, Type 0, BuildingBlock: KUFVIS_clean_sbu_0, # of connection points: 4
#     Node 15, Type 0, BuildingBlock: KUFVIS_clean_sbu_0, # of connection points: 4
#     Node 16, Type 0, BuildingBlock: KUFVIS_clean_sbu_0, # of connection points: 4
#     Node 17, Type 0, BuildingBlock: KUFVIS_clean_sbu_0, # of connection points: 4
#     Node 18, Type 0, BuildingBlock: KUFVIS_clean_sbu_0, # of connection points: 4
#     Node 19, Type 0, BuildingBlock: KUFVIS_clean_sbu_0, # of connection points: 4
#     Node 20, Type 0, BuildingBlock: KUFVIS_clean_sbu_0, # of connection points: 4
#     Node 21, Type 0, BuildingBlock: KUFVIS_clean_sbu_0, # of connection points: 4
#     Node 22, Type 0, BuildingBlock: KUFVIS_clean_sbu_0, # of connection points: 4
#     Node 23, Type 0, BuildingBlock: KUFVIS_clean_sbu_0, # of connection points: 4
#     Edge 24, Type (0, 0), BuildingBlock: XIVTED_clean_linker_0, # of connection points: 2
#     Edge 25, Type (0, 0), BuildingBlock: XIVTED_clean_linker_0, # of connection points: 2
#     Edge 26, Type (0, 0), BuildingBlock: XIVTED_clean_linker_0, # of connection points: 2
#     Edge 27, Type (0, 0), BuildingBlock: XIVTED_clean_linker_0, # of connection points: 2
#     Edge 28, Type (0, 0), BuildingBlock: XIVTED_clean_linker_0, # of connection points: 2
#     Edge 29, Type (0, 0), BuildingBlock: XIVTED_clean_linker_0, # of connection points: 2
#     Edge 30, Type (0, 0), BuildingBlock: XIVTED_clean_linker_0, # of connection points: 2
#     Edge 31, Type (0, 0), BuildingBlock: XIVTED_clean_linker_0, # of connection points: 2
#     Edge 32, Type (0, 0), BuildingBlock: XIVTED_clean_linker_0, # of connection points: 2
#     Edge 33, Type (0, 0), BuildingBlock: XIVTED_clean_linker_0, # of connection points: 2
#     Edge 34, Type (0, 0), BuildingBlock: XIVTED_clean_linker_0, # of connection points: 2
#     Edge 35, Type (0, 0), BuildingBlock: XIVTED_clean_linker_0, # of connection points: 2
#     Edge 36, Type (0, 0), BuildingBlock: XIVTED_clean_linker_0, # of connection points: 2
#     Edge 37, Type (0, 0), BuildingBlock: XIVTED_clean_linker_0, # of connection points: 2
#     Edge 38, Type (0, 0), BuildingBlock: XIVTED_clean_linker_0, # of connection points: 2
#     Edge 39, Type (0, 0), BuildingBlock: XIVTED_clean_linker_0, # of connection points: 2
#     Edge 40, Type (0, 0), BuildingBlock: XIVTED_clean_linker_0, # of connection points: 2
#     Edge 41, Type (0, 0), BuildingBlock: XIVTED_clean_linker_0, # of connection points: 2
#     Edge 42, Type (0, 0), BuildingBlock: XIVTED_clean_linker_0, # of connection points: 2
#     Edge 43, Type (0, 0), BuildingBlock: XIVTED_clean_linker_0, # of connection points: 2
#     Edge 44, Type (0, 0), BuildingBlock: XIVTED_clean_linker_0, # of connection points: 2
#     Edge 45, Type (0, 0), BuildingBlock: XIVTED_clean_linker_0, # of connection points: 2
#     Edge 46, Type (0, 0), BuildingBlock: XIVTED_clean_linker_0, # of connection points: 2
#     Edge 47, Type (0, 0), BuildingBlock: XIVTED_clean_linker_0, # of connection points: 2
#     Edge 48, Type (0, 0), BuildingBlock: XIVTED_clean_linker_0, # of connection points: 2
#     Edge 49, Type (0, 0), BuildingBlock: XIVTED_clean_linker_0, # of connection points: 2
#     Edge 50, Type (0, 0), BuildingBlock: XIVTED_clean_linker_0, # of connection points: 2
#     Edge 51, Type (0, 0), BuildingBlock: XIVTED_clean_linker_0, # of connection points: 2
#     Edge 52, Type (0, 0), BuildingBlock: XIVTED_clean_linker_0, # of connection points: 2
#     Edge 53, Type (0, 0), BuildingBlock: XIVTED_clean_linker_0, # of connection points: 2
#     Edge 54, Type (0, 0), BuildingBlock: XIVTED_clean_linker_0, # of connection points: 2
#     Edge 55, Type (0, 0), BuildingBlock: XIVTED_clean_linker_0, # of connection points: 2
#     Edge 56, Type (0, 0), BuildingBlock: XIVTED_clean_linker_0, # of connection points: 2
#     Edge 57, Type (0, 0), BuildingBlock: XIVTED_clean_linker_0, # of connection points: 2
#     Edge 58, Type (0, 0), BuildingBlock: XIVTED_clean_linker_0, # of connection points: 2
#     Edge 59, Type (0, 0), BuildingBlock: XIVTED_clean_linker_0, # of connection points: 2
#     Edge 60, Type (0, 0), BuildingBlock: XIVTED_clean_linker_0, # of connection points: 2
#     Edge 61, Type (0, 0), BuildingBlock: XIVTED_clean_linker_0, # of connection points: 2
#     Edge 62, Type (0, 0), BuildingBlock: XIVTED_clean_linker_0, # of connection points: 2
#     Edge 63, Type (0, 0), BuildingBlock: XIVTED_clean_linker_0, # of connection points: 2
#     Edge 64, Type (0, 0), BuildingBlock: XIVTED_clean_linker_0, # of connection points: 2
#     Edge 65, Type (0, 0), BuildingBlock: XIVTED_clean_linker_0, # of connection points: 2
#     Edge 66, Type (0, 0), BuildingBlock: XIVTED_clean_linker_0, # of connection points: 2
#     Edge 67, Type (0, 0), BuildingBlock: XIVTED_clean_linker_0, # of connection points: 2
#     Edge 68, Type (0, 0), BuildingBlock: XIVTED_clean_linker_0, # of connection points: 2
#     Edge 69, Type (0, 0), BuildingBlock: XIVTED_clean_linker_0, # of connection points: 2
#     Edge 70, Type (0, 0), BuildingBlock: XIVTED_clean_linker_0, # of connection points: 2
#     Edge 71, Type (0, 0), BuildingBlock: XIVTED_clean_linker_0, # of connection points: 2
# Relax obj value: 0.252
# Max RMSD: 0.133
# Mean RMSD: 0.133
data_MOF--net-lta--node1-KUFVIS_clean_sbu_0--edge1-XIVTED_clean_linker_0
_symmetry_space_group_name_H-M    P1
_symmetry_Int_Tables_number       1
_symmetry_cell_setting            triclinic
loop_
_symmetry_equiv_pos_as_xyz
'x, y, z'
_cell_length_a     56.729444
_cell_length_b     56.727949
_cell_length_c     56.724066
_cell_angle_alpha  89.991599
_cell_angle_beta   90.004102
_cell_angle_gamma 90.009997
loop_
_atom_site_label
_atom_site_type_symbol
_atom_site_fract_x
_atom_site_fract_y
_atom_site_fract_z
_atom_type_partial_charge
Mn0 Mn 0.13004 0.31984 0.51459 0.0
Mn1 Mn 0.17649 0.35686 0.51515 0.0
C2 C 0.14235 0.33701 0.54951 0.0
C3 C 0.08943 0.31506 0.51034 0.0
C4 C 0.18136 0.30369 0.51126 0.0
O5 O 0.13346 0.32888 0.48004 0.0
O6 O 0.16385 0.35446 0.48257 0.0
C7 C 0.15131 0.40116 0.50374 0.0
N8 N 0.16517 0.38843 0.51866 0.0
C9 C 0.16776 0.42091 0.54583 0.0
C10 C 0.15356 0.43438 0.53073 0.0
C11 C 0.14529 0.42445 0.5096 0.0
C12 C 0.17316 0.39779 0.53906 0.0
H13 H 0.1449 0.39361 0.48748 0.0
C14 C 0.14799 0.34342 0.47089 0.0
O15 O 0.10368 0.29737 0.50717 0.0
O16 O 0.09887 0.33512 0.51566 0.0
N17 N 0.19014 0.36103 0.54573 0.0
C18 C 0.20328 0.34554 0.55855 0.0
C19 C 0.21283 0.35272 0.58024 0.0
C20 C 0.20895 0.37578 0.58841 0.0
C21 C 0.19557 0.39148 0.57478 0.0
C22 C 0.18655 0.38335 0.5533 0.0
H23 H 0.20642 0.32785 0.55228 0.0
O24 O 0.12995 0.31778 0.54993 0.0
O25 O 0.14724 0.34516 0.52874 0.0
O26 O 0.1594 0.29871 0.51239 0.0
O27 O 0.18938 0.32475 0.51206 0.0
C28 C 0.19074 0.41483 0.58173 0.0
C29 C 0.17669 0.42948 0.56737 0.0
H30 H 0.14887 0.45235 0.5352 0.0
H31 H 0.13432 0.43472 0.49785 0.0
H32 H 0.22317 0.34052 0.59063 0.0
H33 H 0.21626 0.38122 0.60519 0.0
H34 H 0.19764 0.42167 0.59817 0.0
H35 H 0.17286 0.44731 0.57306 0.0
Mn36 Mn 0.68066 0.12869 0.51381 0.0
Mn37 Mn 0.64382 0.17525 0.51468 0.0
C38 C 0.66383 0.14108 0.5489 0.0
C39 C 0.68493 0.08801 0.50953 0.0
C40 C 0.69697 0.17989 0.50991 0.0
O41 O 0.67129 0.13216 0.47935 0.0
O42 O 0.64553 0.16238 0.48218 0.0
C43 C 0.59915 0.15027 0.50435 0.0
N44 N 0.61227 0.16416 0.51891 0.0
C45 C 0.58031 0.16727 0.54664 0.0
C46 C 0.56645 0.15304 0.53193 0.0
C47 C 0.57593 0.14449 0.51071 0.0
C48 C 0.60335 0.17241 0.5394 0.0
H49 H 0.60635 0.14365 0.48802 0.0
C50 C 0.65653 0.14658 0.47039 0.0
O51 O 0.70277 0.10204 0.50621 0.0
O52 O 0.66506 0.0977 0.51506 0.0
N53 N 0.64038 0.18912 0.54524 0.0
C54 C 0.65623 0.20218 0.55768 0.0
C55 C 0.64955 0.21198 0.57942 0.0
C56 C 0.6266 0.2084 0.58803 0.0
C57 C 0.61052 0.19507 0.5748 0.0
C58 C 0.61817 0.18579 0.55325 0.0
H59 H 0.67384 0.2051 0.55107 0.0
O60 O 0.68299 0.12859 0.54917 0.0
O61 O 0.65562 0.14604 0.52818 0.0
O62 O 0.70199 0.15794 0.51134 0.0
O63 O 0.67592 0.1879 0.51084 0.0
C64 C 0.58725 0.19055 0.5822 0.0
C65 C 0.57221 0.17649 0.56824 0.0
H66 H 0.54853 0.14855 0.53678 0.0
H67 H 0.56535 0.13349 0.49926 0.0
H68 H 0.66205 0.22227 0.58951 0.0
H69 H 0.62154 0.21592 0.60483 0.0
H70 H 0.58078 0.19767 0.59869 0.0
H71 H 0.55446 0.17288 0.57428 0.0
Mn72 Mn 0.87143 0.68029 0.51304 0.0
Mn73 Mn 0.82475 0.64354 0.5145 0.0
C74 C 0.85988 0.66298 0.54817 0.0
C75 C 0.9119 0.68486 0.50755 0.0
C76 C 0.82017 0.69676 0.51076 0.0
O77 O 0.86702 0.67152 0.47852 0.0
O78 O 0.83678 0.64582 0.48171 0.0
C79 C 0.84938 0.59904 0.50274 0.0
N80 N 0.83588 0.6119 0.51788 0.0
C81 C 0.83338 0.57944 0.54509 0.0
C82 C 0.84722 0.56583 0.52977 0.0
C83 C 0.85526 0.57569 0.50852 0.0
C84 C 0.82812 0.60261 0.5384 0.0
H85 H 0.8556 0.60654 0.48639 0.0
C86 C 0.85229 0.65698 0.46969 0.0
O87 O 0.89767 0.70267 0.50504 0.0
O88 O 0.90255 0.66481 0.5131 0.0
N89 N 0.81157 0.63952 0.5453 0.0
C90 C 0.79862 0.65507 0.55823 0.0
C91 C 0.78918 0.64793 0.57998 0.0
C92 C 0.79297 0.62484 0.5881 0.0
C93 C 0.80614 0.60907 0.57437 0.0
C94 C 0.81505 0.61716 0.55281 0.0
H95 H 0.79553 0.67279 0.55199 0.0
O96 O 0.87249 0.68207 0.5484 0.0
O97 O 0.85439 0.655 0.52748 0.0
O98 O 0.84217 0.70163 0.51171 0.0
O99 O 0.81205 0.67574 0.51156 0.0
C100 C 0.81089 0.58568 0.58127 0.0
C101 C 0.82466 0.57093 0.56674 0.0
H102 H 0.85179 0.54782 0.53417 0.0
H103 H 0.86594 0.56531 0.4966 0.0
H104 H 0.779 0.66019 0.59047 0.0
H105 H 0.78576 0.61943 0.60494 0.0
H106 H 0.80415 0.5789 0.5978 0.0
H107 H 0.82841 0.55307 0.57238 0.0
Mn108 Mn 0.31974 0.87151 0.51378 0.0
Mn109 Mn 0.35597 0.82442 0.51535 0.0
C110 C 0.33705 0.85999 0.54887 0.0
C111 C 0.31576 0.91205 0.50816 0.0
C112 C 0.30265 0.82033 0.51269 0.0
O113 O 0.32814 0.86682 0.47925 0.0
O114 O 0.35295 0.83588 0.48239 0.0
C115 C 0.40034 0.84842 0.50185 0.0
N116 N 0.38778 0.83535 0.51762 0.0
C117 C 0.42099 0.83307 0.54393 0.0
C118 C 0.43428 0.84647 0.52795 0.0
C119 C 0.4239 0.85418 0.50683 0.0
C120 C 0.39759 0.82788 0.53801 0.0
H121 H 0.39245 0.85439 0.48559 0.0
C122 C 0.34207 0.85158 0.47035 0.0
O123 O 0.2977 0.89811 0.50583 0.0
O124 O 0.33568 0.90236 0.51356 0.0
N125 N 0.36077 0.81171 0.54624 0.0
C126 C 0.34551 0.79908 0.55982 0.0
C127 C 0.3532 0.78998 0.58153 0.0
C128 C 0.37652 0.79378 0.58894 0.0
C129 C 0.39198 0.80663 0.57455 0.0
C130 C 0.38335 0.81518 0.55306 0.0
H131 H 0.32761 0.79599 0.55413 0.0
O132 O 0.31812 0.8728 0.5491 0.0
O133 O 0.34499 0.85431 0.52819 0.0
O134 O 0.29803 0.84241 0.51284 0.0
O135 O 0.32359 0.812 0.51358 0.0
C136 C 0.41558 0.81135 0.58072 0.0
C137 C 0.43003 0.8247 0.5655 0.0
H138 H 0.45246 0.85095 0.53174 0.0
H139 H 0.43404 0.86451 0.4944 0.0
H140 H 0.34117 0.78006 0.59253 0.0
H141 H 0.38235 0.78681 0.60574 0.0
H142 H 0.42278 0.80489 0.59718 0.0
H143 H 0.44807 0.82841 0.57055 0.0
Mn144 Mn 0.12837 0.67886 0.48542 0.0
Mn145 Mn 0.17485 0.64188 0.48493 0.0
C146 C 0.14094 0.662 0.45043 0.0
C147 C 0.08772 0.68334 0.48964 0.0
C148 C 0.17961 0.69506 0.48946 0.0
O149 O 0.13162 0.66958 0.51992 0.0
O150 O 0.16176 0.64372 0.51734 0.0
C151 C 0.14961 0.59735 0.49524 0.0
N152 N 0.16365 0.61036 0.48073 0.0
C153 C 0.16672 0.57834 0.45307 0.0
C154 C 0.15234 0.56458 0.46774 0.0
C155 C 0.14374 0.57414 0.48891 0.0
C156 C 0.17195 0.60136 0.46029 0.0
H157 H 0.14295 0.60462 0.51152 0.0
C158 C 0.14591 0.65477 0.52901 0.0
O159 O 0.10184 0.70112 0.49291 0.0
O160 O 0.09729 0.6634 0.48412 0.0
N161 N 0.18897 0.63825 0.4545 0.0
C162 C 0.2024 0.65392 0.44221 0.0
C163 C 0.21243 0.64707 0.42063 0.0
C164 C 0.20871 0.62415 0.41202 0.0
C165 C 0.19503 0.60825 0.4251 0.0
C166 C 0.18555 0.61605 0.44652 0.0
H167 H 0.20543 0.67151 0.44882 0.0
O168 O 0.12843 0.68115 0.45008 0.0
O169 O 0.14574 0.65373 0.47117 0.0
O170 O 0.15767 0.70009 0.48794 0.0
O171 O 0.18759 0.67398 0.48871 0.0
C172 C 0.19031 0.58502 0.41767 0.0
C173 C 0.17602 0.57013 0.43155 0.0
H174 H 0.14778 0.54667 0.46292 0.0
H175 H 0.13264 0.56364 0.50033 0.0
H176 H 0.223 0.65943 0.41066 0.0
H177 H 0.21638 0.61897 0.39532 0.0
H178 H 0.19747 0.57848 0.40123 0.0
H179 H 0.1723 0.5524 0.4255 0.0
Mn180 Mn 0.32179 0.12852 0.48623 0.0
Mn181 Mn 0.3592 0.1747 0.48446 0.0
C182 C 0.33853 0.14016 0.4509 0.0
C183 C 0.31664 0.08805 0.49132 0.0
C184 C 0.30612 0.18014 0.48829 0.0
O185 O 0.33112 0.13247 0.52063 0.0
O186 O 0.35649 0.16294 0.51734 0.0
C187 C 0.40308 0.14919 0.49674 0.0
N188 N 0.39063 0.16287 0.48142 0.0
C189 C 0.42337 0.16454 0.45449 0.0
C190 C 0.43656 0.15051 0.47 0.0
C191 C 0.42634 0.14279 0.49121 0.0
C192 C 0.40025 0.17031 0.46093 0.0
H193 H 0.39532 0.14321 0.51306 0.0
C194 C 0.34552 0.14734 0.52941 0.0
O195 O 0.29912 0.10253 0.49434 0.0
O196 O 0.33675 0.09717 0.48561 0.0
N197 N 0.36379 0.1877 0.45366 0.0
C198 C 0.34873 0.20114 0.44065 0.0
C199 C 0.3563 0.21041 0.41896 0.0
C200 C 0.37934 0.20597 0.41101 0.0
C201 C 0.39463 0.19236 0.42487 0.0
C202 C 0.38612 0.18366 0.44634 0.0
H203 H 0.33107 0.20474 0.44676 0.0
O204 O 0.31927 0.12782 0.45096 0.0
O205 O 0.34715 0.14527 0.47146 0.0
O206 O 0.30098 0.15817 0.48806 0.0
O207 O 0.32722 0.188 0.487 0.0
C208 C 0.41796 0.18706 0.41819 0.0
C209 C 0.43227 0.17301 0.4329 0.0
H210 H 0.45452 0.14557 0.46581 0.0
H211 H 0.4364 0.13197 0.50328 0.0
H212 H 0.34442 0.22095 0.4084 0.0
H213 H 0.38508 0.21306 0.39423 0.0
H214 H 0.42507 0.19365 0.40174 0.0
H215 H 0.45011 0.16889 0.42746 0.0
Mn216 Mn 0.87315 0.3202 0.48747 0.0
Mn217 Mn 0.82617 0.35657 0.48614 0.0
C218 C 0.86217 0.33844 0.45266 0.0
C219 C 0.91352 0.31588 0.4937 0.0
C220 C 0.82199 0.30321 0.48761 0.0
O221 O 0.86795 0.32778 0.52213 0.0
O222 O 0.83734 0.35299 0.51912 0.0
C223 C 0.85006 0.40068 0.50064 0.0
N224 N 0.83714 0.38841 0.48453 0.0
C225 C 0.83515 0.42208 0.45879 0.0
C226 C 0.8484 0.43507 0.47512 0.0
C227 C 0.85589 0.42431 0.49613 0.0
C228 C 0.82989 0.39858 0.46424 0.0
H229 H 0.85586 0.39251 0.51683 0.0
C230 C 0.85281 0.34176 0.53113 0.0
O231 O 0.89946 0.29783 0.49529 0.0
O232 O 0.90407 0.33599 0.48861 0.0
N233 N 0.81381 0.36191 0.45519 0.0
C234 C 0.80134 0.34689 0.4412 0.0
C235 C 0.79248 0.35496 0.41953 0.0
C236 C 0.79635 0.37841 0.41258 0.0
C237 C 0.80905 0.39362 0.42737 0.0
C238 C 0.81736 0.38461 0.4488 0.0
H239 H 0.7982 0.32889 0.44653 0.0
O240 O 0.87496 0.31949 0.45214 0.0
O241 O 0.85621 0.34583 0.47345 0.0
O242 O 0.84405 0.29857 0.48746 0.0
O243 O 0.81368 0.32417 0.48721 0.0
C244 C 0.81383 0.41733 0.42168 0.0
C245 C 0.82702 0.4315 0.43729 0.0
H246 H 0.85294 0.45331 0.4717 0.0
H247 H 0.86611 0.43422 0.50884 0.0
H248 H 0.78267 0.34314 0.40823 0.0
H249 H 0.78952 0.38455 0.39584 0.0
H250 H 0.80755 0.42482 0.40528 0.0
H251 H 0.83078 0.44963 0.43259 0.0
Mn252 Mn 0.67963 0.8718 0.48621 0.0
Mn253 Mn 0.64235 0.8255 0.48483 0.0
C254 C 0.66175 0.86077 0.45123 0.0
C255 C 0.68478 0.91216 0.492 0.0
C256 C 0.69556 0.82028 0.48718 0.0
O257 O 0.67136 0.8672 0.5208 0.0
O258 O 0.64574 0.83691 0.51776 0.0
C259 C 0.59855 0.8504 0.49851 0.0
N260 N 0.61077 0.83711 0.48267 0.0
C261 C 0.57742 0.83555 0.4565 0.0
C262 C 0.56447 0.84919 0.47254 0.0
C263 C 0.5751 0.85665 0.49363 0.0
C264 C 0.60073 0.82988 0.46231 0.0
H265 H 0.60662 0.85618 0.51476 0.0
C266 C 0.65707 0.85232 0.52975 0.0
O267 O 0.70245 0.8977 0.4941 0.0
O268 O 0.66454 0.90309 0.48668 0.0
N269 N 0.63715 0.81291 0.45395 0.0
C270 C 0.65205 0.79988 0.44035 0.0
C271 C 0.64407 0.79093 0.41868 0.0
C272 C 0.62082 0.79528 0.41134 0.0
C273 C 0.60572 0.80849 0.42577 0.0
C274 C 0.61463 0.81688 0.44721 0.0
H275 H 0.66989 0.79638 0.44598 0.0
O276 O 0.68097 0.87316 0.45088 0.0
O277 O 0.65387 0.85521 0.47196 0.0
O278 O 0.70062 0.84225 0.48692 0.0
O279 O 0.67446 0.81236 0.48648 0.0
C280 C 0.5822 0.81371 0.41969 0.0
C281 C 0.56811 0.82738 0.43496 0.0
H282 H 0.54637 0.85404 0.46884 0.0
H283 H 0.56522 0.86716 0.50612 0.0
H284 H 0.65582 0.78072 0.40766 0.0
H285 H 0.61477 0.78845 0.39456 0.0
H286 H 0.5748 0.80739 0.40327 0.0
H287 H 0.55013 0.83145 0.42999 0.0
Mn288 Mn 0.51284 0.12778 0.31973 0.0
Mn289 Mn 0.51392 0.17452 0.35639 0.0
C290 C 0.54758 0.13878 0.33806 0.0
C291 C 0.50669 0.08739 0.31536 0.0
C292 C 0.51243 0.17902 0.30303 0.0
O293 O 0.47817 0.13278 0.32731 0.0
O294 O 0.48098 0.16315 0.35284 0.0
C295 C 0.49965 0.15031 0.4004 0.0
N296 N 0.51567 0.16337 0.38817 0.0
C297 C 0.54152 0.16525 0.42175 0.0
C298 C 0.52528 0.15185 0.43472 0.0
C299 C 0.50427 0.14434 0.42398 0.0
C300 C 0.53596 0.17065 0.39831 0.0
H301 H 0.48346 0.14449 0.39225 0.0
C302 C 0.46908 0.14768 0.34147 0.0
O303 O 0.50509 0.10146 0.29731 0.0
O304 O 0.5118 0.09685 0.33546 0.0
N305 N 0.54481 0.18701 0.36172 0.0
C306 C 0.55873 0.19957 0.34671 0.0
C307 C 0.58042 0.20842 0.35474 0.0
C308 C 0.58747 0.20442 0.37815 0.0
C309 C 0.57275 0.19163 0.39334 0.0
C310 C 0.5513 0.18333 0.38437 0.0
H311 H 0.55334 0.20278 0.32874 0.0
O312 O 0.54817 0.1261 0.31904 0.0
O313 O 0.52676 0.14463 0.34544 0.0
O314 O 0.51275 0.15699 0.29823 0.0
O315 O 0.5127 0.18718 0.32406 0.0
C316 C 0.57855 0.1867 0.41699 0.0
C317 C 0.56303 0.17338 0.43114 0.0
H318 H 0.52879 0.1472 0.45291 0.0
H319 H 0.49163 0.13401 0.43387 0.0
H320 H 0.59167 0.2183 0.34293 0.0
H321 H 0.60423 0.21122 0.38425 0.0
H322 H 0.59497 0.19297 0.42446 0.0
H323 H 0.56781 0.1695 0.44922 0.0
Mn324 Mn 0.87199 0.51412 0.32017 0.0
Mn325 Mn 0.82506 0.5148 0.35661 0.0
C326 C 0.85958 0.54909 0.33711 0.0
C327 C 0.9126 0.50943 0.31602 0.0
C328 C 0.82086 0.51096 0.30335 0.0
O329 O 0.86829 0.4796 0.32913 0.0
O330 O 0.83767 0.48222 0.35439 0.0
C331 C 0.84957 0.50329 0.40125 0.0
N332 N 0.83594 0.51826 0.38834 0.0
C333 C 0.83274 0.54527 0.42089 0.0
C334 C 0.8467 0.53012 0.43455 0.0
C335 C 0.85516 0.50904 0.42467 0.0
C336 C 0.82776 0.5386 0.39764 0.0
H337 H 0.85611 0.48706 0.39376 0.0
C338 C 0.8536 0.4705 0.34351 0.0
O339 O 0.8986 0.5065 0.29809 0.0
O340 O 0.90294 0.51496 0.33592 0.0
N341 N 0.81134 0.54537 0.36064 0.0
C342 C 0.79836 0.55818 0.34502 0.0
C343 C 0.78859 0.57979 0.35215 0.0
C344 C 0.79208 0.58788 0.3753 0.0
C345 C 0.80531 0.57426 0.39113 0.0
C346 C 0.81456 0.55286 0.38305 0.0
H347 H 0.7955 0.55197 0.32725 0.0
O348 O 0.8723 0.54945 0.3181 0.0
O349 O 0.8545 0.52836 0.34527 0.0
O350 O 0.84289 0.51207 0.29862 0.0
O351 O 0.81261 0.51176 0.32433 0.0
C352 C 0.80976 0.58113 0.41459 0.0
C353 C 0.82362 0.56674 0.42941 0.0
H354 H 0.85105 0.53451 0.45262 0.0
H355 H 0.86594 0.49725 0.4351 0.0
H356 H 0.77838 0.59018 0.33983 0.0
H357 H 0.7846 0.60459 0.3807 0.0
H358 H 0.80272 0.59752 0.4214 0.0
H359 H 0.82713 0.57236 0.44732 0.0
Mn360 Mn 0.48459 0.87107 0.32056 0.0
Mn361 Mn 0.48446 0.8246 0.35763 0.0
C362 C 0.44979 0.85847 0.33771 0.0
C363 C 0.48861 0.91165 0.31552 0.0
C364 C 0.48805 0.8197 0.30446 0.0
O365 O 0.51917 0.86796 0.32955 0.0
O366 O 0.51694 0.83738 0.35491 0.0
C367 C 0.49624 0.8499 0.40177 0.0
N368 N 0.48123 0.83597 0.38921 0.0
C369 C 0.45451 0.83318 0.42205 0.0
C370 C 0.4697 0.84745 0.43534 0.0
C371 C 0.49065 0.85586 0.42514 0.0
C372 C 0.46101 0.82784 0.39883 0.0
H373 H 0.51236 0.85641 0.39403 0.0
C374 C 0.52848 0.85339 0.34394 0.0
O375 O 0.49184 0.8973 0.29793 0.0
O376 O 0.48331 0.90233 0.33566 0.0
N377 N 0.45403 0.81074 0.36218 0.0
C378 C 0.4412 0.79734 0.34692 0.0
C379 C 0.41974 0.78753 0.35443 0.0
C380 C 0.41181 0.7914 0.37757 0.0
C381 C 0.42545 0.80503 0.39304 0.0
C382 C 0.44671 0.8143 0.38459 0.0
H383 H 0.44728 0.7942 0.32916 0.0
O384 O 0.44927 0.87087 0.31849 0.0
O385 O 0.47059 0.85379 0.34597 0.0
O386 O 0.48697 0.84166 0.29951 0.0
O387 O 0.48728 0.81164 0.32551 0.0
C388 C 0.41874 0.80986 0.41647 0.0
C389 C 0.43316 0.82407 0.43091 0.0
H390 H 0.46544 0.85208 0.45337 0.0
H391 H 0.50247 0.86687 0.43528 0.0
H392 H 0.40933 0.77699 0.3424 0.0
H393 H 0.39521 0.78387 0.38326 0.0
H394 H 0.40246 0.80283 0.42354 0.0
H395 H 0.42769 0.82786 0.44881 0.0
Mn396 Mn 0.12879 0.48509 0.31986 0.0
Mn397 Mn 0.17554 0.48404 0.35652 0.0
C398 C 0.14078 0.45002 0.33699 0.0
C399 C 0.08828 0.49019 0.31529 0.0
C400 C 0.17996 0.48818 0.3033 0.0
O401 O 0.13284 0.51961 0.32878 0.0
O402 O 0.16303 0.51666 0.35456 0.0
C403 C 0.15087 0.49505 0.40119 0.0
N404 N 0.16456 0.48023 0.38816 0.0
C405 C 0.16757 0.4528 0.42039 0.0
C406 C 0.15355 0.46779 0.43417 0.0
C407 C 0.14515 0.48899 0.42451 0.0
C408 C 0.17265 0.45975 0.39725 0.0
H409 H 0.14438 0.51137 0.39385 0.0
C410 C 0.14738 0.52855 0.34344 0.0
O411 O 0.10251 0.49294 0.29752 0.0
O412 O 0.09766 0.48462 0.33533 0.0
N413 N 0.18917 0.4534 0.36023 0.0
C414 C 0.20223 0.44078 0.34452 0.0
C415 C 0.21201 0.41911 0.35144 0.0
C416 C 0.20844 0.41076 0.37449 0.0
C417 C 0.19513 0.42417 0.39042 0.0
C418 C 0.18589 0.44566 0.38254 0.0
H419 H 0.20516 0.4472 0.32684 0.0
O420 O 0.12813 0.44973 0.31793 0.0
O421 O 0.14605 0.47074 0.34504 0.0
O422 O 0.15798 0.48685 0.29848 0.0
O423 O 0.18813 0.48745 0.32431 0.0
C424 C 0.19058 0.41701 0.41377 0.0
C425 C 0.17665 0.43122 0.42869 0.0
H426 H 0.1491 0.46318 0.45216 0.0
H427 H 0.13432 0.50066 0.43502 0.0
H428 H 0.22228 0.40888 0.33905 0.0
H429 H 0.21592 0.39399 0.37973 0.0
H430 H 0.19759 0.40053 0.42039 0.0
H431 H 0.17305 0.42538 0.44652 0.0
Mn432 Mn 0.51352 0.87136 0.67932 0.0
Mn433 Mn 0.51395 0.82465 0.6426 0.0
C434 C 0.54829 0.85921 0.66176 0.0
C435 C 0.50894 0.91193 0.68404 0.0
C436 C 0.51087 0.82007 0.69584 0.0
O437 O 0.47887 0.86763 0.67078 0.0
O438 O 0.48131 0.83692 0.64558 0.0
C439 C 0.50134 0.84943 0.5984 0.0
N440 N 0.5167 0.83585 0.61091 0.0
C441 C 0.54319 0.83336 0.57787 0.0
C442 C 0.52764 0.84729 0.56463 0.0
C443 C 0.50663 0.85536 0.57495 0.0
C444 C 0.53698 0.82804 0.60117 0.0
H445 H 0.48516 0.85569 0.60624 0.0
C446 C 0.46965 0.85278 0.65663 0.0
O447 O 0.5062 0.8977 0.70181 0.0
O448 O 0.51411 0.90251 0.66392 0.0
N449 N 0.54456 0.81128 0.63786 0.0
C450 C 0.55777 0.79824 0.65311 0.0
C451 C 0.57936 0.7888 0.6455 0.0
C452 C 0.58702 0.79268 0.62226 0.0
C453 C 0.57301 0.80595 0.60682 0.0
C454 C 0.55164 0.81485 0.61537 0.0
H455 H 0.55188 0.7951 0.67094 0.0
O456 O 0.54888 0.87172 0.68089 0.0
O457 O 0.52745 0.85412 0.65388 0.0
O458 O 0.51179 0.84208 0.70063 0.0
O459 O 0.5116 0.81189 0.67484 0.0
C460 C 0.57943 0.81075 0.5833 0.0
C461 C 0.56463 0.8246 0.56889 0.0
H462 H 0.53167 0.8519 0.54653 0.0
H463 H 0.49453 0.8661 0.56484 0.0
H464 H 0.59006 0.77854 0.6575 0.0
H465 H 0.60371 0.78542 0.61649 0.0
H466 H 0.59576 0.80397 0.57613 0.0
H467 H 0.56989 0.82838 0.55092 0.0
Mn468 Mn 0.12788 0.51212 0.68027 0.0
Mn469 Mn 0.17402 0.51394 0.64282 0.0
C470 C 0.13832 0.54713 0.66211 0.0
C471 C 0.08761 0.50569 0.68544 0.0
C472 C 0.17945 0.51215 0.69605 0.0
O473 O 0.13306 0.47753 0.67237 0.0
O474 O 0.1631 0.48089 0.64654 0.0
C475 C 0.14917 0.49948 0.59923 0.0
N476 N 0.16228 0.51562 0.61126 0.0
C477 C 0.16344 0.54145 0.57762 0.0
C478 C 0.14998 0.5251 0.56488 0.0
C479 C 0.14281 0.50402 0.57574 0.0
C480 C 0.16922 0.53597 0.601 0.0
H481 H 0.14363 0.48324 0.60748 0.0
C482 C 0.14797 0.4687 0.65804 0.0
O483 O 0.10207 0.50403 0.70316 0.0
O484 O 0.09662 0.51096 0.66516 0.0
N485 N 0.18618 0.54493 0.63729 0.0
C486 C 0.1991 0.55883 0.652 0.0
C487 C 0.20778 0.58052 0.64377 0.0
C488 C 0.20328 0.58756 0.62045 0.0
C489 C 0.1902 0.57281 0.60553 0.0
C490 C 0.18207 0.55138 0.6147 0.0
H491 H 0.20273 0.55343 0.66989 0.0
O492 O 0.12592 0.54742 0.68132 0.0
O493 O 0.14418 0.52644 0.65436 0.0
O494 O 0.15749 0.5121 0.70121 0.0
O495 O 0.18727 0.51278 0.67491 0.0
C496 C 0.18485 0.57857 0.58196 0.0
C497 C 0.17134 0.56298 0.56806 0.0
H498 H 0.14506 0.52853 0.54674 0.0
H499 H 0.13245 0.49129 0.56602 0.0
H500 H 0.21791 0.59178 0.65536 0.0
H501 H 0.2099 0.60435 0.61419 0.0
H502 H 0.19097 0.59498 0.57436 0.0
H503 H 0.16718 0.5677 0.55003 0.0
Mn504 Mn 0.48798 0.1286 0.67993 0.0
Mn505 Mn 0.48716 0.17572 0.64374 0.0
C506 C 0.45304 0.14073 0.66267 0.0
C507 C 0.49305 0.088 0.68388 0.0
C508 C 0.49063 0.17962 0.69706 0.0
O509 O 0.52259 0.13281 0.67145 0.0
O510 O 0.51981 0.16335 0.6461 0.0
C511 C 0.49912 0.15164 0.599 0.0
N512 N 0.48397 0.16505 0.61192 0.0
C513 C 0.45713 0.16831 0.57923 0.0
C514 C 0.47247 0.15456 0.56556 0.0
C515 C 0.49355 0.14618 0.5755 0.0
C516 C 0.46362 0.17316 0.60255 0.0
H517 H 0.51536 0.14517 0.60655 0.0
C518 C 0.53165 0.14759 0.65711 0.0
O519 O 0.49562 0.10191 0.70193 0.0
O520 O 0.4877 0.09775 0.66397 0.0
N521 N 0.45651 0.18922 0.63964 0.0
C522 C 0.4435 0.20197 0.65529 0.0
C523 C 0.42186 0.21163 0.6481 0.0
C524 C 0.41394 0.20826 0.62488 0.0
C525 C 0.42775 0.19528 0.60902 0.0
C526 C 0.44918 0.18613 0.61716 0.0
H527 H 0.44959 0.20473 0.67311 0.0
O528 O 0.45263 0.12786 0.68158 0.0
O529 O 0.47381 0.14609 0.65479 0.0
O530 O 0.4895 0.15757 0.70169 0.0
O531 O 0.48997 0.18797 0.67612 0.0
C532 C 0.42105 0.19096 0.58548 0.0
C533 C 0.43564 0.17733 0.57065 0.0
H534 H 0.46822 0.15031 0.54743 0.0
H535 H 0.50549 0.13558 0.56507 0.0
H536 H 0.41132 0.22165 0.66044 0.0
H537 H 0.3972 0.21565 0.61943 0.0
H538 H 0.40466 0.19793 0.57863 0.0
H539 H 0.43016 0.17391 0.55268 0.0
Mn540 Mn 0.87105 0.4855 0.67907 0.0
Mn541 Mn 0.82489 0.4848 0.64167 0.0
C542 C 0.85843 0.45041 0.66252 0.0
C543 C 0.91173 0.48928 0.68391 0.0
C544 C 0.81956 0.48926 0.69475 0.0
O545 O 0.86809 0.51993 0.66949 0.0
O546 O 0.83766 0.51732 0.64399 0.0
C547 C 0.85074 0.49573 0.59764 0.0
N548 N 0.83661 0.48098 0.61029 0.0
C549 C 0.83439 0.45355 0.578 0.0
C550 C 0.84886 0.46847 0.56461 0.0
C551 C 0.85708 0.48964 0.57449 0.0
C552 C 0.82868 0.46054 0.60098 0.0
H553 H 0.85712 0.51202 0.60514 0.0
C554 C 0.85359 0.52903 0.6549 0.0
O555 O 0.89749 0.49297 0.70151 0.0
O556 O 0.90224 0.48378 0.66393 0.0
N557 N 0.811 0.45432 0.6375 0.0
C558 C 0.79727 0.44187 0.65277 0.0
C559 C 0.78751 0.42028 0.64555 0.0
C560 C 0.7918 0.41184 0.62266 0.0
C561 C 0.80576 0.42511 0.60716 0.0
C562 C 0.81492 0.44654 0.61531 0.0
H563 H 0.79381 0.44834 0.67033 0.0
O564 O 0.87074 0.45022 0.6818 0.0
O565 O 0.85387 0.47106 0.65387 0.0
O566 O 0.8415 0.48833 0.69994 0.0
O567 O 0.81171 0.48813 0.67363 0.0
C568 C 0.811 0.41788 0.58398 0.0
C569 C 0.82544 0.432 0.56946 0.0
H570 H 0.85378 0.46383 0.54675 0.0
H571 H 0.86825 0.50125 0.56428 0.0
H572 H 0.77672 0.41017 0.6576 0.0
H573 H 0.78435 0.39513 0.6172 0.0
H574 H 0.80409 0.40144 0.57716 0.0
H575 H 0.82953 0.42613 0.55175 0.0
Mn576 Mn 0.31973 0.51209 0.12762 0.0
Mn577 Mn 0.35698 0.51343 0.17391 0.0
C578 C 0.33814 0.5469 0.13824 0.0
C579 C 0.31468 0.50585 0.08731 0.0
C580 C 0.30373 0.51206 0.17912 0.0
O581 O 0.32736 0.47744 0.13267 0.0
O582 O 0.35297 0.4804 0.16296 0.0
C583 C 0.40049 0.4986 0.14916 0.0
N584 N 0.3886 0.51481 0.1623 0.0
C585 C 0.42246 0.54034 0.16354 0.0
C586 C 0.43507 0.5239 0.15006 0.0
C587 C 0.42402 0.50295 0.14282 0.0
C588 C 0.39904 0.53504 0.16929 0.0
H589 H 0.39209 0.48246 0.14355 0.0
C590 C 0.34147 0.46841 0.14768 0.0
O591 O 0.29689 0.50425 0.10169 0.0
O592 O 0.33495 0.51097 0.09642 0.0
N593 N 0.36276 0.54438 0.18606 0.0
C594 C 0.34806 0.55853 0.19872 0.0
C595 C 0.35642 0.58022 0.20725 0.0
C596 C 0.37983 0.58703 0.20287 0.0
C597 C 0.39471 0.57204 0.19004 0.0
C598 C 0.38542 0.55061 0.18204 0.0
H599 H 0.33009 0.55332 0.20223 0.0
O600 O 0.31894 0.5474 0.12581 0.0
O601 O 0.34568 0.52612 0.14406 0.0
O602 O 0.29868 0.51207 0.15714 0.0
O603 O 0.32484 0.51257 0.18704 0.0
C604 C 0.41837 0.57755 0.18481 0.0
C605 C 0.43218 0.56179 0.17142 0.0
H606 H 0.45323 0.5272 0.14514 0.0
H607 H 0.43362 0.49018 0.1324 0.0
H608 H 0.34484 0.59168 0.21718 0.0
H609 H 0.38617 0.60382 0.20938 0.0
H610 H 0.42609 0.59391 0.1909 0.0
H611 H 0.45026 0.56636 0.16729 0.0
Mn612 Mn 0.32053 0.48488 0.87081 0.0
Mn613 Mn 0.35716 0.48442 0.82405 0.0
C614 C 0.33732 0.44995 0.85806 0.0
C615 C 0.31606 0.48873 0.91149 0.0
C616 C 0.304 0.48865 0.81959 0.0
O617 O 0.32983 0.51939 0.86766 0.0
O618 O 0.35482 0.51694 0.83679 0.0
C619 C 0.40157 0.49581 0.84904 0.0
N620 N 0.38878 0.4809 0.83523 0.0
C621 C 0.42126 0.45375 0.83247 0.0
C622 C 0.43479 0.46885 0.84662 0.0
C623 C 0.42489 0.48996 0.85495 0.0
C624 C 0.39811 0.46051 0.82718 0.0
H625 H 0.39405 0.51206 0.8555 0.0
C626 C 0.34409 0.52856 0.85289 0.0
O627 O 0.2983 0.49222 0.8974 0.0
O628 O 0.33601 0.48335 0.90186 0.0
N629 N 0.3613 0.45389 0.81027 0.0
C630 C 0.3458 0.44114 0.79708 0.0
C631 C 0.35297 0.41951 0.78741 0.0
C632 C 0.37604 0.41133 0.79122 0.0
C633 C 0.39175 0.42488 0.80466 0.0
C634 C 0.38363 0.44631 0.8138 0.0
H635 H 0.3281 0.44743 0.794 0.0
O636 O 0.31817 0.44956 0.87056 0.0
O637 O 0.34561 0.4707 0.8533 0.0
O638 O 0.29923 0.48756 0.84161 0.0
O639 O 0.32497 0.48756 0.81135 0.0
C640 C 0.41513 0.41792 0.80941 0.0
C641 C 0.42981 0.43225 0.82346 0.0
H642 H 0.45279 0.46439 0.85121 0.0
H643 H 0.43522 0.50171 0.86587 0.0
H644 H 0.34076 0.40917 0.77702 0.0
H645 H 0.38148 0.3946 0.78379 0.0
H646 H 0.42198 0.40153 0.80242 0.0
H647 H 0.44766 0.42658 0.8272 0.0
Mn648 Mn 0.5126 0.32027 0.87248 0.0
Mn649 Mn 0.51351 0.35706 0.82579 0.0
C650 C 0.54714 0.33922 0.8618 0.0
C651 C 0.50633 0.31542 0.91282 0.0
C652 C 0.51292 0.30374 0.82115 0.0
O653 O 0.47784 0.32734 0.86724 0.0
O654 O 0.48054 0.35277 0.83676 0.0
C655 C 0.49807 0.40072 0.84989 0.0
N656 N 0.51448 0.38884 0.837 0.0
C657 C 0.53962 0.42298 0.83537 0.0
C658 C 0.52297 0.43558 0.8486 0.0
C659 C 0.50212 0.42439 0.8559 0.0
C660 C 0.53462 0.39942 0.82992 0.0
H661 H 0.482 0.39222 0.85553 0.0
C662 C 0.46867 0.34121 0.85209 0.0
O663 O 0.50506 0.29751 0.89855 0.0
O664 O 0.51112 0.33571 0.90359 0.0
N665 N 0.5444 0.36305 0.81361 0.0
C666 C 0.55872 0.34838 0.80111 0.0
C667 C 0.58028 0.3569 0.79242 0.0
C668 C 0.58679 0.38044 0.7965 0.0
C669 C 0.57167 0.39528 0.80924 0.0
C670 C 0.55037 0.38583 0.81736 0.0
H671 H 0.55373 0.33031 0.79782 0.0
O672 O 0.54794 0.32014 0.8744 0.0
O673 O 0.52625 0.3463 0.85582 0.0
O674 O 0.51301 0.2989 0.84318 0.0
O675 O 0.51307 0.32477 0.81303 0.0
C676 C 0.57694 0.41904 0.81425 0.0
C677 C 0.561 0.43284 0.82744 0.0
H678 H 0.52604 0.45384 0.85328 0.0
H679 H 0.48917 0.434 0.8661 0.0
H680 H 0.59184 0.34536 0.78258 0.0
H681 H 0.60345 0.38693 0.7898 0.0
H682 H 0.59325 0.42686 0.80815 0.0
H683 H 0.56535 0.45101 0.83137 0.0
Mn684 Mn 0.68013 0.51558 0.87118 0.0
Mn685 Mn 0.643 0.51656 0.82479 0.0
C686 C 0.66361 0.55075 0.8587 0.0
C687 C 0.68499 0.51133 0.91178 0.0
C688 C 0.6961 0.51192 0.8198 0.0
O689 O 0.67047 0.48117 0.86796 0.0
O690 O 0.64495 0.48402 0.83756 0.0
C691 C 0.59867 0.50594 0.85025 0.0
N692 N 0.61154 0.52059 0.83624 0.0
C693 C 0.57941 0.54816 0.83357 0.0
C694 C 0.56579 0.53334 0.84793 0.0
C695 C 0.57549 0.51215 0.85632 0.0
C696 C 0.60243 0.54106 0.82816 0.0
H697 H 0.60602 0.48963 0.85676 0.0
C698 C 0.65579 0.47222 0.85346 0.0
O699 O 0.70256 0.50784 0.89747 0.0
O700 O 0.66499 0.51702 0.90242 0.0
N701 N 0.63918 0.54709 0.81092 0.0
C702 C 0.65469 0.55948 0.79738 0.0
C703 C 0.64768 0.58108 0.78751 0.0
C704 C 0.62476 0.5896 0.79147 0.0
C705 C 0.60903 0.57641 0.80523 0.0
C706 C 0.61698 0.55498 0.81455 0.0
H707 H 0.67226 0.55293 0.79415 0.0
O708 O 0.68282 0.55087 0.87112 0.0
O709 O 0.65502 0.53012 0.85395 0.0
O710 O 0.70113 0.51294 0.84176 0.0
O711 O 0.67504 0.51299 0.8118 0.0
C712 C 0.5858 0.58372 0.81013 0.0
C713 C 0.57106 0.56971 0.82445 0.0
H714 H 0.5479 0.53806 0.85263 0.0
H715 H 0.56509 0.50061 0.86741 0.0
H716 H 0.65991 0.59114 0.77686 0.0
H717 H 0.61946 0.60631 0.78391 0.0
H718 H 0.57913 0.60015 0.80307 0.0
H719 H 0.55332 0.57565 0.8283 0.0
Mn720 Mn 0.48726 0.67977 0.87147 0.0
Mn721 Mn 0.48664 0.64264 0.82508 0.0
C722 C 0.45264 0.66128 0.8603 0.0
C723 C 0.4928 0.68451 0.91194 0.0
C724 C 0.48812 0.69593 0.82002 0.0
O725 O 0.52199 0.67216 0.86691 0.0
O726 O 0.51948 0.64651 0.8366 0.0
C727 C 0.50094 0.59897 0.84988 0.0
N728 N 0.48496 0.61099 0.83657 0.0
C729 C 0.45925 0.57728 0.83495 0.0
C730 C 0.47545 0.56454 0.8486 0.0
C731 C 0.49639 0.57545 0.8561 0.0
C732 C 0.46476 0.60067 0.8293 0.0
H733 H 0.51706 0.60727 0.8557 0.0
C734 C 0.53124 0.65802 0.85207 0.0
O735 O 0.49464 0.70243 0.89773 0.0
O736 O 0.4879 0.66433 0.90255 0.0
N737 N 0.45586 0.63702 0.81244 0.0
C738 C 0.44197 0.65182 0.79959 0.0
C739 C 0.42038 0.64358 0.7907 0.0
C740 C 0.41339 0.6202 0.79495 0.0
C741 C 0.42808 0.60524 0.80803 0.0
C742 C 0.44944 0.61439 0.81634 0.0
H743 H 0.44732 0.66976 0.79618 0.0
O744 O 0.4519 0.68045 0.87275 0.0
O745 O 0.47353 0.65387 0.85473 0.0
O746 O 0.48769 0.70096 0.84201 0.0
O747 O 0.48781 0.67482 0.81208 0.0
C748 C 0.42233 0.58163 0.81322 0.0
C749 C 0.43782 0.5677 0.8268 0.0
H750 H 0.47199 0.54639 0.85345 0.0
H751 H 0.50899 0.56574 0.86664 0.0
H752 H 0.40915 0.65523 0.78059 0.0
H753 H 0.39669 0.61395 0.78811 0.0
H754 H 0.40597 0.57402 0.80696 0.0
H755 H 0.43308 0.54965 0.83088 0.0
Mn756 Mn 0.67973 0.48851 0.12815 0.0
Mn757 Mn 0.64288 0.48779 0.17477 0.0
C758 C 0.66139 0.45384 0.13938 0.0
C759 C 0.68426 0.49425 0.0877 0.0
C760 C 0.6962 0.48935 0.17949 0.0
O761 O 0.6721 0.52322 0.13281 0.0
O762 O 0.64655 0.52062 0.16319 0.0
C763 C 0.59899 0.50191 0.15027 0.0
N764 N 0.61116 0.48597 0.16349 0.0
C765 C 0.57757 0.46013 0.16538 0.0
C766 C 0.56466 0.47628 0.15182 0.0
C767 C 0.57544 0.49726 0.14423 0.0
C768 C 0.60098 0.46573 0.17085 0.0
H769 H 0.60717 0.51806 0.14439 0.0
C770 C 0.65798 0.53241 0.14769 0.0
O771 O 0.70225 0.49602 0.10183 0.0
O772 O 0.66413 0.48924 0.09714 0.0
N773 N 0.63746 0.45701 0.18752 0.0
C774 C 0.65235 0.44325 0.20039 0.0
C775 C 0.64424 0.42167 0.20942 0.0
C776 C 0.62088 0.41455 0.20529 0.0
C777 C 0.6058 0.42914 0.19222 0.0
C778 C 0.61483 0.4505 0.18376 0.0
H779 H 0.67029 0.44869 0.20371 0.0
O780 O 0.68046 0.45316 0.12677 0.0
O781 O 0.65395 0.4747 0.14503 0.0
O782 O 0.70111 0.48888 0.15747 0.0
O783 O 0.67514 0.48908 0.18754 0.0
C784 C 0.58219 0.42327 0.18716 0.0
C785 C 0.56813 0.43868 0.17362 0.0
H786 H 0.54649 0.47276 0.14711 0.0
H787 H 0.5656 0.50983 0.13378 0.0
H788 H 0.65598 0.41052 0.21952 0.0
H789 H 0.61473 0.39783 0.21217 0.0
H790 H 0.57471 0.40689 0.1935 0.0
H791 H 0.55007 0.43386 0.16968 0.0
Mn792 Mn 0.51313 0.68012 0.12856 0.0
Mn793 Mn 0.51416 0.64239 0.17444 0.0
C794 C 0.5482 0.66291 0.14035 0.0
C795 C 0.50847 0.68531 0.08802 0.0
C796 C 0.51049 0.69549 0.18019 0.0
O797 O 0.47862 0.67104 0.13215 0.0
O798 O 0.48149 0.64513 0.16219 0.0
C799 C 0.5022 0.59858 0.14866 0.0
N800 N 0.51736 0.611 0.16254 0.0
C801 C 0.54428 0.57826 0.16442 0.0
C802 C 0.52894 0.56512 0.15017 0.0
C803 C 0.50781 0.57534 0.14225 0.0
C804 C 0.53776 0.60136 0.1702 0.0
H805 H 0.48594 0.60634 0.14252 0.0
C806 C 0.46961 0.65632 0.14659 0.0
O807 O 0.50545 0.70288 0.10246 0.0
O808 O 0.51392 0.66519 0.09723 0.0
N809 N 0.54483 0.63778 0.18776 0.0
C810 C 0.55778 0.6529 0.20119 0.0
C811 C 0.57942 0.64535 0.21057 0.0
C812 C 0.58739 0.62231 0.20623 0.0
C813 C 0.57363 0.60699 0.19255 0.0
C814 C 0.5522 0.61547 0.18373 0.0
H815 H 0.55166 0.67057 0.20471 0.0
O816 O 0.54845 0.68227 0.12817 0.0
O817 O 0.5275 0.65458 0.14528 0.0
O818 O 0.51119 0.70082 0.15828 0.0
O819 O 0.51142 0.6743 0.18787 0.0
C820 C 0.58036 0.58366 0.18728 0.0
C821 C 0.56579 0.56937 0.17307 0.0
H822 H 0.5332 0.54718 0.1452 0.0
H823 H 0.49587 0.5653 0.13126 0.0
H824 H 0.58992 0.65726 0.22115 0.0
H825 H 0.6041 0.61658 0.21346 0.0
H826 H 0.59676 0.57655 0.19398 0.0
H827 H 0.57129 0.55155 0.16894 0.0
Mn828 Mn 0.48447 0.32089 0.12934 0.0
Mn829 Mn 0.48313 0.3577 0.17594 0.0
C830 C 0.44903 0.33647 0.14233 0.0
C831 C 0.48837 0.31656 0.08863 0.0
C832 C 0.48961 0.30473 0.1805 0.0
O833 O 0.51867 0.33136 0.13232 0.0
O834 O 0.51546 0.35704 0.16256 0.0
C835 C 0.49149 0.40258 0.1506 0.0
N836 N 0.47767 0.38906 0.16485 0.0
C837 C 0.44895 0.42009 0.16837 0.0
C838 C 0.46291 0.43437 0.1538 0.0
C839 C 0.48425 0.42555 0.14484 0.0
C840 C 0.45704 0.39732 0.17344 0.0
H841 H 0.50791 0.39588 0.14367 0.0
C842 C 0.52737 0.34642 0.1466 0.0
O843 O 0.49247 0.29893 0.10272 0.0
O844 O 0.4823 0.33631 0.09827 0.0
N845 N 0.45275 0.3602 0.1904 0.0
C846 C 0.4412 0.34408 0.20396 0.0
C847 C 0.41956 0.35016 0.21432 0.0
C848 C 0.41013 0.37279 0.21083 0.0
C849 C 0.42245 0.38917 0.19701 0.0
C850 C 0.44397 0.38213 0.18717 0.0
H851 H 0.44847 0.32672 0.20685 0.0
O852 O 0.44923 0.31737 0.12976 0.0
O853 O 0.46953 0.34544 0.14695 0.0
O854 O 0.48799 0.29971 0.15857 0.0
O855 O 0.48821 0.32574 0.18858 0.0
C856 C 0.41419 0.41215 0.19251 0.0
C857 C 0.42732 0.42754 0.17804 0.0
H858 H 0.45741 0.4521 0.14934 0.0
H859 H 0.49512 0.43644 0.13356 0.0
H860 H 0.41017 0.33743 0.225 0.0
H861 H 0.39338 0.37738 0.21877 0.0
H862 H 0.39767 0.41813 0.19998 0.0
H863 H 0.42062 0.44507 0.17447 0.0
H864 H 0.16156 0.40657 0.3311 0.0
H865 H 0.10686 0.35448 0.44916 0.0
H866 H 0.11799 0.44717 0.37825 0.0
H867 H 0.18178 0.3498 0.43724 0.0
H868 H 0.10283 0.37619 0.41192 0.0
H869 H 0.16143 0.37392 0.36012 0.0
C870 C 0.15181 0.40842 0.34741 0.0
C871 C 0.14033 0.4296 0.35282 0.0
C872 C 0.11999 0.36965 0.41715 0.0
C873 C 0.13898 0.39248 0.38487 0.0
C874 C 0.12229 0.35721 0.43823 0.0
C875 C 0.14469 0.35053 0.44619 0.0
C876 C 0.14014 0.37483 0.40379 0.0
C877 C 0.16424 0.35481 0.43164 0.0
C878 C 0.15165 0.38991 0.36376 0.0
C879 C 0.12749 0.43121 0.37382 0.0
N880 N 0.16154 0.36684 0.41109 0.0
N881 N 0.12716 0.41288 0.38914 0.0
H882 H 0.65215 0.17989 0.43601 0.0
H883 H 0.54846 0.11752 0.38024 0.0
H884 H 0.64235 0.10584 0.44998 0.0
H885 H 0.59199 0.15744 0.33245 0.0
H886 H 0.5811 0.11619 0.40839 0.0
H887 H 0.63027 0.17531 0.39886 0.0
C888 C 0.64594 0.16257 0.43087 0.0
C889 C 0.64902 0.14316 0.44587 0.0
C890 C 0.58361 0.12499 0.39162 0.0
C891 C 0.62319 0.13819 0.40447 0.0
C892 C 0.56499 0.12599 0.37574 0.0
C893 C 0.56758 0.13805 0.35439 0.0
C894 C 0.60478 0.13652 0.38627 0.0
C895 C 0.58939 0.14833 0.34902 0.0
C896 C 0.6335 0.16 0.40979 0.0
C897 C 0.64046 0.12115 0.43871 0.0
N898 N 0.60714 0.14786 0.3652 0.0
N899 N 0.62727 0.11937 0.41881 0.0
H900 H 0.81793 0.65355 0.43627 0.0
H901 H 0.8394 0.59254 0.32959 0.0
H902 H 0.89229 0.64302 0.44774 0.0
H903 H 0.88063 0.5525 0.37927 0.0
H904 H 0.83889 0.62584 0.35778 0.0
H905 H 0.82124 0.63272 0.39843 0.0
C906 C 0.83506 0.64745 0.43042 0.0
C907 C 0.85492 0.65003 0.44491 0.0
C908 C 0.84816 0.60977 0.36227 0.0
C909 C 0.85857 0.62552 0.40255 0.0
C910 C 0.84841 0.59091 0.34634 0.0
C911 C 0.85941 0.56973 0.35265 0.0
C912 C 0.85981 0.60745 0.38401 0.0
C913 C 0.87141 0.56843 0.37417 0.0
C914 C 0.83693 0.63565 0.4089 0.0
C915 C 0.87666 0.64155 0.43687 0.0
N916 N 0.8713 0.58705 0.38912 0.0
N917 N 0.87777 0.62898 0.41652 0.0
H918 H 0.34605 0.81669 0.43748 0.0
H919 H 0.40661 0.83767 0.33035 0.0
H920 H 0.35514 0.89145 0.44758 0.0
H921 H 0.44604 0.87997 0.37961 0.0
H922 H 0.37326 0.83706 0.35849 0.0
H923 H 0.36678 0.81975 0.39957 0.0
C924 C 0.3518 0.83384 0.43132 0.0
C925 C 0.34887 0.85389 0.44547 0.0
C926 C 0.3892 0.84659 0.3629 0.0
C927 C 0.37325 0.85728 0.40301 0.0
C928 C 0.4081 0.84689 0.347 0.0
C929 C 0.42913 0.85823 0.35322 0.0
C930 C 0.39134 0.85853 0.3845 0.0
C931 C 0.43024 0.8705 0.3746 0.0
C932 C 0.36355 0.83556 0.40976 0.0
C933 C 0.35689 0.87566 0.437 0.0
N934 N 0.41158 0.87033 0.3895 0.0
N935 N 0.36942 0.87666 0.41663 0.0
H936 H 0.15773 0.59103 0.66859 0.0
H937 H 0.10458 0.64277 0.54978 0.0
H938 H 0.11641 0.54947 0.62026 0.0
H939 H 0.17917 0.64858 0.56319 0.0
H940 H 0.1002 0.62057 0.58671 0.0
H941 H 0.1574 0.6238 0.63974 0.0
C942 C 0.14843 0.58899 0.65204 0.0
C943 C 0.1377 0.56752 0.64626 0.0
C944 C 0.11734 0.62746 0.58187 0.0
C945 C 0.13609 0.60474 0.61437 0.0
C946 C 0.11984 0.64017 0.56098 0.0
C947 C 0.14227 0.64734 0.55355 0.0
C948 C 0.13731 0.6225 0.59557 0.0
C949 C 0.16161 0.64322 0.56841 0.0
C950 C 0.14815 0.60757 0.63579 0.0
C951 C 0.12538 0.56566 0.62496 0.0
N952 N 0.15872 0.63093 0.58878 0.0
N953 N 0.12491 0.58405 0.60972 0.0
H954 H 0.34868 0.18174 0.56284 0.0
H955 H 0.40935 0.16049 0.66989 0.0
H956 H 0.36003 0.10751 0.55133 0.0
H957 H 0.45021 0.11994 0.62034 0.0
H958 H 0.3763 0.16087 0.6414 0.0
H959 H 0.36953 0.17863 0.60069 0.0
C960 C 0.35498 0.16468 0.56867 0.0
C961 C 0.35259 0.1448 0.55418 0.0
C962 C 0.3925 0.15178 0.63699 0.0
C963 C 0.37714 0.14138 0.59656 0.0
C964 C 0.41122 0.1516 0.65309 0.0
C965 C 0.43256 0.14082 0.64692 0.0
C966 C 0.39512 0.14027 0.61521 0.0
C967 C 0.43415 0.12898 0.62534 0.0
C968 C 0.3668 0.16292 0.5902 0.0
C969 C 0.36133 0.12315 0.56221 0.0
N970 N 0.41566 0.12901 0.61022 0.0
N971 N 0.3739 0.12216 0.58256 0.0
H972 H 0.83669 0.4076 0.66947 0.0
H973 H 0.89332 0.35052 0.55501 0.0
H974 H 0.88156 0.44592 0.62162 0.0
H975 H 0.81774 0.34949 0.5632 0.0
H976 H 0.89651 0.37252 0.59211 0.0
H977 H 0.83672 0.37397 0.64158 0.0
C978 C 0.84668 0.40875 0.65324 0.0
C979 C 0.85857 0.42956 0.64728 0.0
C980 C 0.87934 0.36666 0.58613 0.0
C981 C 0.85986 0.39134 0.61661 0.0
C982 C 0.8775 0.35405 0.56512 0.0
C983 C 0.85522 0.34841 0.55607 0.0
C984 C 0.85882 0.37307 0.59832 0.0
C985 C 0.83521 0.35371 0.56963 0.0
C986 C 0.84679 0.38969 0.63755 0.0
C987 C 0.87173 0.43027 0.62643 0.0
N988 N 0.83745 0.36596 0.5901 0.0
N989 N 0.87204 0.41141 0.6118 0.0
H990 H 0.55025 0.88115 0.62002 0.0
H991 H 0.65174 0.81779 0.56288 0.0
H992 H 0.59219 0.83926 0.66754 0.0
H993 H 0.64521 0.89274 0.55217 0.0
H994 H 0.63027 0.82173 0.60035 0.0
H995 H 0.58325 0.88225 0.59232 0.0
C996 C 0.56652 0.8722 0.62455 0.0
C997 C 0.56854 0.8597 0.64571 0.0
C998 C 0.63414 0.83734 0.59006 0.0
C999 C 0.60616 0.86094 0.61432 0.0
C1000 C 0.64637 0.83513 0.5688 0.0
C1001 C 0.65018 0.855 0.55457 0.0
C1002 C 0.62476 0.85931 0.59631 0.0
C1003 C 0.64271 0.87705 0.56277 0.0
C1004 C 0.58534 0.87305 0.60893 0.0
C1005 C 0.59002 0.84876 0.65113 0.0
N1006 N 0.62965 0.87853 0.58278 0.0
N1007 N 0.60799 0.8491 0.63517 0.0
H1008 H 0.3307 0.16103 0.40786 0.0
H1009 H 0.44601 0.10678 0.35035 0.0
H1010 H 0.37995 0.1179 0.44639 0.0
H1011 H 0.43642 0.18219 0.3494 0.0
H1012 H 0.4091 0.10288 0.37256 0.0
H1013 H 0.35833 0.16129 0.37403 0.0
C1014 C 0.34718 0.15147 0.40901 0.0
C1015 C 0.3536 0.14002 0.42993 0.0
C1016 C 0.41472 0.12016 0.36666 0.0
C1017 C 0.38403 0.13906 0.39151 0.0
C1018 C 0.43562 0.1224 0.35393 0.0
C1019 C 0.44422 0.14485 0.34825 0.0
C1020 C 0.40218 0.14044 0.37313 0.0
C1021 C 0.43033 0.1646 0.35363 0.0
C1022 C 0.36273 0.15152 0.38983 0.0
C1023 C 0.37478 0.12739 0.43065 0.0
N1024 N 0.40996 0.16197 0.36598 0.0
N1025 N 0.38929 0.12725 0.41169 0.0
H1026 H 0.88303 0.38082 0.4516 0.0
H1027 H 0.82022 0.43617 0.34823 0.0
H1028 H 0.84357 0.33248 0.40826 0.0
H1029 H 0.89441 0.44993 0.35719 0.0
H1030 H 0.82495 0.39901 0.37008 0.0
H1031 H 0.88408 0.40885 0.41884 0.0
C1032 C 0.87461 0.37618 0.43508 0.0
C1033 C 0.86275 0.3547 0.43258 0.0
C1034 C 0.84025 0.4099 0.36667 0.0
C1035 C 0.86396 0.38644 0.39526 0.0
C1036 C 0.83759 0.43099 0.35425 0.0
C1037 C 0.857 0.44594 0.35095 0.0
C1038 C 0.86215 0.40455 0.37677 0.0
C1039 C 0.8791 0.43872 0.35926 0.0
C1040 C 0.87544 0.39199 0.41641 0.0
C1041 C 0.85252 0.34914 0.41079 0.0
N1042 N 0.88096 0.41884 0.37246 0.0
N1043 N 0.85282 0.36526 0.39297 0.0
H1044 H 0.5497 0.89465 0.35544 0.0
H1045 H 0.66812 0.84094 0.40747 0.0
H1046 H 0.56248 0.81992 0.35007 0.0
H1047 H 0.62005 0.88289 0.44868 0.0
H1048 H 0.63929 0.84122 0.37468 0.0
H1049 H 0.58673 0.89888 0.37747 0.0
C1050 C 0.56078 0.87932 0.35807 0.0
C1051 C 0.55313 0.8569 0.3511 0.0
C1052 C 0.63539 0.85061 0.39084 0.0
C1053 C 0.59527 0.86168 0.37577 0.0
C1054 C 0.65164 0.85036 0.40943 0.0
C1055 C 0.64592 0.86131 0.43081 0.0
C1056 C 0.61406 0.86285 0.39355 0.0
C1057 C 0.6247 0.87377 0.43256 0.0
C1058 C 0.58174 0.88173 0.3707 0.0
C1059 C 0.56786 0.83748 0.35528 0.0
N1060 N 0.60948 0.8742 0.41416 0.0
N1061 N 0.58828 0.84027 0.3675 0.0
H1062 H 0.16246 0.6678 0.40731 0.0
H1063 H 0.10644 0.55096 0.35392 0.0
H1064 H 0.11756 0.62114 0.44705 0.0
H1065 H 0.18163 0.5616 0.35034 0.0
H1066 H 0.10275 0.58822 0.37566 0.0
H1067 H 0.16228 0.63898 0.37449 0.0
C1068 C 0.15242 0.65165 0.40894 0.0
C1069 C 0.14056 0.6463 0.42992 0.0
C1070 C 0.11991 0.5827 0.36935 0.0
C1071 C 0.13916 0.61452 0.3926 0.0
C1072 C 0.12202 0.56161 0.3569 0.0
C1073 C 0.14438 0.55328 0.35054 0.0
C1074 C 0.14022 0.59568 0.37487 0.0
C1075 C 0.16411 0.56749 0.35511 0.0
C1076 C 0.15223 0.63541 0.39032 0.0
C1077 C 0.12735 0.6255 0.43124 0.0
N1078 N 0.16161 0.58805 0.36716 0.0
N1079 N 0.127 0.61032 0.41282 0.0
H1080 H 0.32925 0.84099 0.59276 0.0
H1081 H 0.4357 0.81888 0.65389 0.0
H1082 H 0.37961 0.88039 0.55174 0.0
H1083 H 0.44822 0.8929 0.64223 0.0
H1084 H 0.39793 0.82241 0.633 0.0
H1085 H 0.35744 0.84077 0.62606 0.0
C1086 C 0.34616 0.84966 0.59091 0.0
C1087 C 0.35266 0.86003 0.56946 0.0
C1088 C 0.4086 0.838 0.63572 0.0
C1089 C 0.38403 0.86078 0.60717 0.0
C1090 C 0.43008 0.836 0.64756 0.0
C1091 C 0.44485 0.85569 0.64983 0.0
C1092 C 0.40255 0.85958 0.62526 0.0
C1093 C 0.43712 0.87742 0.64102 0.0
C1094 C 0.36209 0.84958 0.60978 0.0
C1095 C 0.37437 0.87163 0.56788 0.0
N1096 N 0.41679 0.87863 0.62843 0.0
N1097 N 0.38933 0.8717 0.5865 0.0
H1098 H 0.10759 0.44342 0.65244 0.0
H1099 H 0.12004 0.37851 0.55181 0.0
H1100 H 0.18325 0.43772 0.64747 0.0
H1101 H 0.16242 0.33106 0.59335 0.0
H1102 H 0.11863 0.40588 0.5851 0.0
H1103 H 0.1039 0.40642 0.63033 0.0
C1104 C 0.12341 0.4339 0.64755 0.0
C1105 C 0.14576 0.44369 0.65144 0.0
C1106 C 0.12793 0.38931 0.58703 0.0
C1107 C 0.14161 0.40164 0.62653 0.0
C1108 C 0.12899 0.3739 0.56805 0.0
C1109 C 0.14171 0.35286 0.5699 0.0
C1110 C 0.13994 0.38377 0.60788 0.0
C1111 C 0.15271 0.34736 0.59135 0.0
C1112 C 0.12126 0.41294 0.63488 0.0
C1113 C 0.16571 0.4308 0.64452 0.0
N1114 N 0.15212 0.36312 0.60949 0.0
N1115 N 0.16318 0.41045 0.63213 0.0
H1116 H 0.55554 0.10657 0.65022 0.0
H1117 H 0.62267 0.11817 0.55097 0.0
H1118 H 0.56366 0.18212 0.6472 0.0
H1119 H 0.66924 0.16123 0.59279 0.0
H1120 H 0.59499 0.11657 0.58396 0.0
H1121 H 0.59254 0.10228 0.62818 0.0
C1122 C 0.56556 0.1222 0.64571 0.0
C1123 C 0.55649 0.14473 0.65017 0.0
C1124 C 0.61145 0.12603 0.58605 0.0
C1125 C 0.59851 0.13992 0.62532 0.0
C1126 C 0.62704 0.1272 0.56723 0.0
C1127 C 0.64792 0.14018 0.56923 0.0
C1128 C 0.61664 0.1382 0.6069 0.0
C1129 C 0.65309 0.1513 0.59068 0.0
C1130 C 0.58651 0.11972 0.63308 0.0
C1131 C 0.57002 0.16445 0.64378 0.0
N1132 N 0.63714 0.15062 0.60865 0.0
N1133 N 0.59035 0.1616 0.63145 0.0
H1134 H 0.89466 0.55048 0.6431 0.0
H1135 H 0.83968 0.66881 0.5919 0.0
H1136 H 0.8199 0.56282 0.64894 0.0
H1137 H 0.88263 0.62167 0.55065 0.0
H1138 H 0.84017 0.63973 0.62449 0.0
H1139 H 0.89857 0.58769 0.62128 0.0
C1140 C 0.87926 0.56149 0.64059 0.0
C1141 C 0.85692 0.55368 0.64764 0.0
C1142 C 0.84973 0.6361 0.60837 0.0
C1143 C 0.86133 0.59602 0.62322 0.0
C1144 C 0.84937 0.65249 0.58989 0.0
C1145 C 0.86056 0.6471 0.56855 0.0
C1146 C 0.86232 0.61497 0.60559 0.0
C1147 C 0.87334 0.62607 0.56674 0.0
C1148 C 0.88148 0.58254 0.62808 0.0
C1149 C 0.83739 0.56832 0.64364 0.0
N1150 N 0.87388 0.61072 0.58503 0.0
N1151 N 0.84001 0.58885 0.63155 0.0
H1152 H 0.3496 0.4442 0.10723 0.0
H1153 H 0.40634 0.32974 0.16451 0.0
H1154 H 0.34905 0.43641 0.18287 0.0
H1155 H 0.44421 0.37686 0.11849 0.0
H1156 H 0.37277 0.35771 0.16444 0.0
H1157 H 0.37101 0.40676 0.10407 0.0
C1158 C 0.35311 0.43412 0.12308 0.0
C1159 C 0.34781 0.44338 0.14536 0.0
C1160 C 0.38835 0.36154 0.15411 0.0
C1161 C 0.37177 0.40073 0.14179 0.0
C1162 C 0.40739 0.3458 0.15424 0.0
C1163 C 0.42807 0.35155 0.14202 0.0
C1164 C 0.3899 0.3823 0.14072 0.0
C1165 C 0.42866 0.3722 0.12854 0.0
C1166 C 0.36537 0.41291 0.12125 0.0
C1167 C 0.35304 0.42984 0.1654 0.0
N1168 N 0.40984 0.38687 0.12824 0.0
N1169 N 0.36495 0.40917 0.16317 0.0
H1170 H 0.4517 0.61934 0.88203 0.0
H1171 H 0.34843 0.56283 0.81943 0.0
H1172 H 0.40833 0.66656 0.84128 0.0
H1173 H 0.35805 0.54928 0.89359 0.0
H1174 H 0.37021 0.60004 0.82387 0.0
H1175 H 0.41913 0.59111 0.88342 0.0
C1176 C 0.43521 0.62369 0.8734 0.0
C1177 C 0.43267 0.6449 0.86108 0.0
C1178 C 0.36695 0.58919 0.83924 0.0
C1179 C 0.39554 0.61294 0.86268 0.0
C1180 C 0.35457 0.56807 0.83674 0.0
C1181 C 0.35148 0.55315 0.85622 0.0
C1182 C 0.37719 0.59466 0.86105 0.0
C1183 C 0.35995 0.56046 0.87823 0.0
C1184 C 0.41664 0.60777 0.87442 0.0
C1185 C 0.41091 0.65011 0.85059 0.0
N1186 N 0.37308 0.58041 0.87993 0.0
N1187 N 0.3932 0.63388 0.8511 0.0
H1188 H 0.43597 0.34643 0.81712 0.0
H1189 H 0.37874 0.44729 0.88044 0.0
H1190 H 0.44535 0.3519 0.89234 0.0
H1191 H 0.33119 0.40627 0.83767 0.0
H1192 H 0.40596 0.41392 0.88168 0.0
H1193 H 0.39832 0.36762 0.82074 0.0
C1194 C 0.42971 0.35148 0.83444 0.0
C1195 C 0.44366 0.34753 0.85448 0.0
C1196 C 0.38944 0.41211 0.87226 0.0
C1197 C 0.40173 0.37265 0.85845 0.0
C1198 C 0.37409 0.43115 0.87132 0.0
C1199 C 0.35307 0.42948 0.85855 0.0
C1200 C 0.38391 0.39143 0.85997 0.0
C1201 C 0.34751 0.40815 0.84739 0.0
C1202 C 0.40835 0.36355 0.83647 0.0
C1203 C 0.435 0.35455 0.87651 0.0
N1204 N 0.36321 0.38996 0.84783 0.0
N1205 N 0.41492 0.3675 0.87784 0.0
H1206 H 0.65136 0.43768 0.82031 0.0
H1207 H 0.54756 0.3816 0.88275 0.0
H1208 H 0.64119 0.4521 0.89421 0.0
H1209 H 0.59168 0.33392 0.84339 0.0
H1210 H 0.57992 0.41011 0.8839 0.0
H1211 H 0.6294 0.40058 0.825 0.0
C1212 C 0.64504 0.43266 0.83762 0.0
C1213 C 0.64809 0.44775 0.85695 0.0
C1214 C 0.58261 0.39329 0.87525 0.0
C1215 C 0.62214 0.40641 0.86205 0.0
C1216 C 0.56416 0.3772 0.87437 0.0
C1217 C 0.56699 0.35576 0.86251 0.0
C1218 C 0.60386 0.38806 0.86381 0.0
C1219 C 0.58889 0.35053 0.85234 0.0
C1220 C 0.63255 0.41161 0.84026 0.0
C1221 C 0.63935 0.44076 0.87896 0.0
N1222 N 0.60647 0.36691 0.85269 0.0
N1223 N 0.62613 0.42087 0.88079 0.0
H1224 H 0.67033 0.5937 0.83712 0.0
H1225 H 0.55456 0.64922 0.89288 0.0
H1226 H 0.62269 0.55493 0.88184 0.0
H1227 H 0.56392 0.65088 0.81745 0.0
H1228 H 0.59191 0.6277 0.89652 0.0
H1229 H 0.64213 0.62706 0.83707 0.0
C1230 C 0.65409 0.5924 0.84707 0.0
C1231 C 0.64828 0.57153 0.85894 0.0
C1232 C 0.58612 0.6336 0.8793 0.0
C1233 C 0.61724 0.60946 0.86013 0.0
C1234 C 0.56497 0.64593 0.87721 0.0
C1235 C 0.5562 0.6516 0.85482 0.0
C1236 C 0.59872 0.6275 0.85893 0.0
C1237 C 0.57013 0.64663 0.83499 0.0
C1238 C 0.63822 0.61132 0.84715 0.0
C1239 C 0.62741 0.57064 0.87205 0.0
N1240 N 0.59074 0.63465 0.83748 0.0
N1241 N 0.61259 0.58935 0.8723 0.0
H1242 H 0.65266 0.56578 0.18198 0.0
H1243 H 0.55116 0.62163 0.1177 0.0
H1244 H 0.64654 0.55466 0.10705 0.0
H1245 H 0.59182 0.66929 0.16066 0.0
H1246 H 0.58467 0.59457 0.11651 0.0
H1247 H 0.63113 0.60315 0.1777 0.0
C1248 C 0.64738 0.5716 0.16457 0.0
C1249 C 0.65128 0.55726 0.14481 0.0
C1250 C 0.58638 0.61109 0.12594 0.0
C1251 C 0.62578 0.59889 0.14012 0.0
C1252 C 0.56726 0.62634 0.12685 0.0
C1253 C 0.56877 0.64731 0.13971 0.0
C1254 C 0.60699 0.61667 0.13836 0.0
C1255 C 0.59006 0.65299 0.1509 0.0
C1256 C 0.63513 0.59281 0.16217 0.0
C1257 C 0.64395 0.56534 0.12266 0.0
N1258 N 0.60832 0.63738 0.1505 0.0
N1259 N 0.63084 0.58529 0.121 0.0
H1260 H 0.38043 0.54823 0.11716 0.0
H1261 H 0.44675 0.64866 0.10517 0.0
H1262 H 0.33196 0.59126 0.15678 0.0
H1263 H 0.4371 0.64613 0.18056 0.0
H1264 H 0.41027 0.62586 0.10029 0.0
H1265 H 0.40818 0.58126 0.11587 0.0
C1266 C 0.37568 0.56474 0.12552 0.0
C1267 C 0.35425 0.56709 0.1375 0.0
C1268 C 0.41583 0.63105 0.11781 0.0
C1269 C 0.38557 0.60474 0.13586 0.0
C1270 C 0.43647 0.64412 0.12062 0.0
C1271 C 0.44495 0.64899 0.14331 0.0
C1272 C 0.40352 0.6233 0.13782 0.0
C1273 C 0.43115 0.64247 0.16279 0.0
C1274 C 0.39131 0.58356 0.12453 0.0
C1275 C 0.34857 0.58886 0.1477 0.0
N1276 N 0.41111 0.62974 0.15962 0.0
N1277 N 0.36451 0.60683 0.14722 0.0
H1278 H 0.66708 0.40995 0.1591 0.0
H1279 H 0.54807 0.35925 0.10544 0.0
H1280 H 0.61949 0.45212 0.11754 0.0
H1281 H 0.56128 0.35291 0.18003 0.0
H1282 H 0.58493 0.38166 0.10136 0.0
H1283 H 0.63771 0.37765 0.15884 0.0
C1284 C 0.65057 0.41223 0.14978 0.0
C1285 C 0.64517 0.43373 0.13893 0.0
C1286 C 0.58004 0.37466 0.11844 0.0
C1287 C 0.61268 0.39702 0.13741 0.0
C1288 C 0.55919 0.36181 0.12076 0.0
C1289 C 0.55176 0.35438 0.1431 0.0
C1290 C 0.59368 0.37945 0.13849 0.0
C1291 C 0.56651 0.35847 0.16253 0.0
C1292 C 0.63402 0.39391 0.14955 0.0
C1293 C 0.62391 0.43589 0.12659 0.0
N1294 N 0.58684 0.37086 0.15981 0.0
N1295 N 0.60838 0.41774 0.12616 0.0
H1296 H 0.06212 0.27555 0.50129 0.0
H1297 H 0.9438 0.35221 0.4993 0.0
H1298 H 0.05767 0.35033 0.51474 0.0
H1299 H 0.94186 0.2762 0.49641 0.0
H1300 H 0.98616 0.35077 0.50369 0.0
H1301 H 0.01876 0.27424 0.49814 0.0
C1302 C 0.05208 0.29163 0.50357 0.0
C1303 C 0.06353 0.3131 0.50821 0.0
C1304 C 0.97663 0.3343 0.50219 0.0
C1305 C 0.01431 0.31172 0.50467 0.0
C1306 C 0.95232 0.33512 0.49962 0.0
C1307 C 0.93925 0.31429 0.49741 0.0
C1308 C 0.98825 0.31246 0.50243 0.0
C1309 C 0.95133 0.29267 0.4981 0.0
C1310 C 0.0274 0.29085 0.50184 0.0
C1311 C 0.04971 0.33338 0.51109 0.0
N1312 N 0.97528 0.29229 0.50043 0.0
N1313 N 0.02597 0.33216 0.50922 0.0
H1314 H 0.64905 0.05691 0.51363 0.0
H1315 H 0.72507 0.93942 0.49654 0.0
H1316 H 0.72399 0.05995 0.50063 0.0
H1317 H 0.6491 0.94356 0.49521 0.0
H1318 H 0.72667 0.98267 0.50114 0.0
H1319 H 0.65039 0.01449 0.51033 0.0
C1320 C 0.66589 0.04864 0.51004 0.0
C1321 C 0.68644 0.06208 0.5073 0.0
C1322 C 0.70972 0.97397 0.49983 0.0
C1323 C 0.6881 0.01296 0.50343 0.0
C1324 C 0.7088 0.94937 0.4973 0.0
C1325 C 0.68692 0.93789 0.49545 0.0
C1326 C 0.68862 0.98694 0.50073 0.0
C1327 C 0.66637 0.95157 0.49646 0.0
C1328 C 0.66663 0.02429 0.50812 0.0
C1329 C 0.70771 0.05022 0.50275 0.0
N1330 N 0.66776 0.97524 0.49906 0.0
N1331 N 0.70802 0.02622 0.50094 0.0
H1332 H 0.93949 0.72474 0.50165 0.0
H1333 H 0.05644 0.64747 0.48689 0.0
H1334 H 0.9431 0.64885 0.50614 0.0
H1335 H 0.05993 0.72274 0.49767 0.0
H1336 H 0.01402 0.64913 0.49051 0.0
H1337 H 0.98274 0.72585 0.4971 0.0
C1338 C 0.94932 0.70838 0.50162 0.0
C1339 C 0.93769 0.68667 0.50429 0.0
C1340 C 0.02393 0.66537 0.49216 0.0
C1341 C 0.98675 0.68782 0.49906 0.0
C1342 C 0.04827 0.66444 0.49005 0.0
C1343 C 0.06182 0.68501 0.49205 0.0
C1344 C 0.01275 0.68704 0.49628 0.0
C1345 C 0.05011 0.70646 0.49611 0.0
C1346 C 0.97393 0.70903 0.49911 0.0
C1347 C 0.95123 0.66601 0.5042 0.0
N1348 N 0.02613 0.70695 0.49808 0.0
N1349 N 0.97491 0.66713 0.5016 0.0
H1350 H 0.27659 0.06107 0.4989 0.0
H1351 H 0.35242 0.9424 0.50611 0.0
H1352 H 0.35198 0.0561 0.48978 0.0
H1353 H 0.27639 0.94062 0.50322 0.0
H1354 H 0.35138 0.98479 0.50226 0.0
H1355 H 0.27488 0.01774 0.50258 0.0
C1356 C 0.29272 0.05092 0.49772 0.0
C1357 C 0.31446 0.06221 0.49405 0.0
C1358 C 0.33483 0.97529 0.50237 0.0
C1359 C 0.31263 0.01305 0.49821 0.0
C1360 C 0.33541 0.95095 0.50462 0.0
C1361 C 0.31444 0.93789 0.505 0.0
C1362 C 0.3131 0.98698 0.50055 0.0
C1363 C 0.29297 0.95006 0.50294 0.0
C1364 C 0.29172 0.02627 0.49973 0.0
C1365 C 0.33481 0.04827 0.49257 0.0
N1366 N 0.29281 0.97404 0.50087 0.0
N1367 N 0.33336 0.02456 0.49469 0.0
H1368 H 0.49816 0.9386 0.27591 0.0
H1369 H 0.50099 0.0573 0.3518 0.0
H1370 H 0.48378 0.94373 0.35047 0.0
H1371 H 0.5037 0.0589 0.27577 0.0
H1372 H 0.49616 0.01501 0.35056 0.0
H1373 H 0.50166 0.98192 0.2743 0.0
C1374 C 0.49573 0.94878 0.29187 0.0
C1375 C 0.49076 0.93753 0.31337 0.0
C1376 C 0.49771 0.02445 0.33404 0.0
C1377 C 0.49472 0.9867 0.31166 0.0
C1378 C 0.50054 0.04872 0.33475 0.0
C1379 C 0.50282 0.06168 0.31385 0.0
C1380 C 0.49728 0.01273 0.31226 0.0
C1381 C 0.50196 0.04951 0.29229 0.0
C1382 C 0.49767 0.97344 0.29092 0.0
C1383 C 0.4877 0.95153 0.3335 0.0
N1384 N 0.49937 0.02559 0.29202 0.0
N1385 N 0.48978 0.97524 0.33213 0.0
H1386 H 0.94353 0.51027 0.3523 0.0
H1387 H 0.06095 0.4973 0.27548 0.0
H1388 H 0.94063 0.50223 0.27666 0.0
H1389 H 0.0568 0.49001 0.35113 0.0
H1390 H 0.01773 0.50194 0.27424 0.0
H1391 H 0.98591 0.50601 0.35091 0.0
C1392 C 0.95183 0.50759 0.33531 0.0
C1393 C 0.93846 0.50657 0.31455 0.0
C1394 C 0.0264 0.49928 0.29103 0.0
C1395 C 0.98747 0.5016 0.31283 0.0
C1396 C 0.051 0.49671 0.29176 0.0
C1397 C 0.06248 0.49328 0.31344 0.0
C1398 C 0.01344 0.49861 0.31215 0.0
C1399 C 0.04879 0.49259 0.334 0.0
C1400 C 0.97614 0.50509 0.33454 0.0
C1401 C 0.95031 0.50304 0.29309 0.0
N1402 N 0.02512 0.49528 0.33282 0.0
N1403 N 0.97425 0.50072 0.29274 0.0
H1404 H 0.50209 0.9393 0.7239 0.0
H1405 H 0.49414 0.05744 0.64732 0.0
H1406 H 0.51029 0.94356 0.64835 0.0
H1407 H 0.4984 0.05961 0.72328 0.0
H1408 H 0.49783 0.01501 0.64853 0.0
H1409 H 0.49861 0.98262 0.72527 0.0
C1410 C 0.50312 0.94929 0.70766 0.0
C1411 C 0.50646 0.9378 0.68598 0.0
C1412 C 0.49804 0.02461 0.66503 0.0
C1413 C 0.50249 0.98699 0.68742 0.0
C1414 C 0.49589 0.04896 0.66435 0.0
C1415 C 0.49596 0.06214 0.68524 0.0
C1416 C 0.50021 0.01305 0.68679 0.0
C1417 C 0.49833 0.05007 0.70675 0.0
C1418 C 0.50121 0.97395 0.70847 0.0
C1419 C 0.50774 0.95156 0.66549 0.0
N1420 N 0.5003 0.02609 0.70701 0.0
N1421 N 0.50572 0.97529 0.66674 0.0
H1422 H 0.94336 0.48234 0.64896 0.0
H1423 H 0.05991 0.50323 0.72563 0.0
H1424 H 0.93933 0.49966 0.72298 0.0
H1425 H 0.05679 0.49949 0.64969 0.0
H1426 H 0.01664 0.49854 0.72694 0.0
H1427 H 0.98579 0.48489 0.65088 0.0
C1428 C 0.95141 0.48674 0.66571 0.0
C1429 C 0.93768 0.49094 0.68583 0.0
C1430 C 0.02557 0.49873 0.71007 0.0
C1431 C 0.98685 0.49396 0.68815 0.0
C1432 C 0.05019 0.5013 0.70932 0.0
C1433 C 0.06193 0.50183 0.68751 0.0
C1434 C 0.01289 0.49646 0.68889 0.0
C1435 C 0.04855 0.49934 0.6669 0.0
C1436 C 0.97578 0.48821 0.66679 0.0
C1437 C 0.94928 0.49641 0.70703 0.0
N1438 N 0.02488 0.49676 0.66813 0.0
N1439 N 0.97331 0.49782 0.70766 0.0
H1440 H 0.35138 0.4829 0.94298 0.0
H1441 H 0.27455 0.50273 0.05961 0.0
H1442 H 0.27697 0.49845 0.93919 0.0
H1443 H 0.35055 0.50043 0.05647 0.0
H1444 H 0.27331 0.49792 0.01637 0.0
H1445 H 0.34961 0.48575 0.98543 0.0
C1446 C 0.33458 0.48696 0.95109 0.0
C1447 C 0.3143 0.49057 0.93743 0.0
C1448 C 0.29018 0.49846 0.02528 0.0
C1449 C 0.31214 0.49394 0.98657 0.0
C1450 C 0.2909 0.50111 0.04989 0.0
C1451 C 0.31269 0.50206 0.06162 0.0
C1452 C 0.31139 0.49654 0.0126 0.0
C1453 C 0.33334 0.49993 0.04823 0.0
C1454 C 0.33358 0.48862 0.97546 0.0
C1455 C 0.29304 0.49566 0.94909 0.0
N1456 N 0.33215 0.49728 0.02457 0.0
N1457 N 0.29248 0.49723 0.97309 0.0
H1458 H 0.50358 0.27534 0.9406 0.0
H1459 H 0.48198 0.35181 0.05714 0.0
H1460 H 0.50055 0.35132 0.94363 0.0
H1461 H 0.49905 0.27774 0.06094 0.0
H1462 H 0.48516 0.35015 0.01468 0.0
H1463 H 0.49864 0.27409 0.98381 0.0
C1464 C 0.50178 0.29168 0.95029 0.0
C1465 C 0.50254 0.31347 0.93853 0.0
C1466 C 0.48828 0.33418 0.02466 0.0
C1467 C 0.49687 0.31216 0.98755 0.0
C1468 C 0.48644 0.33511 0.04903 0.0
C1469 C 0.49037 0.31489 0.06269 0.0
C1470 C 0.49411 0.31286 0.01356 0.0
C1471 C 0.49598 0.29376 0.05104 0.0
C1472 C 0.49906 0.29096 0.97489 0.0
C1473 C 0.50019 0.33411 0.95189 0.0
N1474 N 0.49771 0.29326 0.02705 0.0
N1475 N 0.49746 0.33292 0.97556 0.0
H1476 H 0.7245 0.50193 0.93897 0.0
H1477 H 0.64794 0.49887 0.05727 0.0
H1478 H 0.6498 0.51576 0.94365 0.0
H1479 H 0.72399 0.49745 0.0594 0.0
H1480 H 0.64939 0.50322 0.01493 0.0
H1481 H 0.72588 0.49849 0.98231 0.0
C1482 C 0.70846 0.50423 0.94906 0.0
C1483 C 0.68699 0.50907 0.93767 0.0
C1484 C 0.66587 0.50205 0.02449 0.0
C1485 C 0.68844 0.50517 0.98687 0.0
C1486 C 0.66504 0.49951 0.0488 0.0
C1487 C 0.68589 0.49775 0.06193 0.0
C1488 C 0.68772 0.50275 0.01292 0.0
C1489 C 0.70751 0.4988 0.04988 0.0
C1490 C 0.70927 0.50234 0.97372 0.0
C1491 C 0.66676 0.51197 0.95155 0.0
N1492 N 0.7079 0.50113 0.02593 0.0
N1493 N 0.66801 0.50992 0.97528 0.0
H1494 H 0.49662 0.64829 0.94256 0.0
H1495 H 0.50057 0.72518 0.06075 0.0
H1496 H 0.49611 0.72435 0.94015 0.0
H1497 H 0.51103 0.64992 0.05625 0.0
H1498 H 0.49732 0.7266 0.01735 0.0
H1499 H 0.50034 0.64982 0.98491 0.0
C1500 C 0.49732 0.66542 0.95097 0.0
C1501 C 0.496 0.68624 0.93774 0.0
C1502 C 0.50036 0.70986 0.02601 0.0
C1503 C 0.50029 0.68817 0.98683 0.0
C1504 C 0.50214 0.70902 0.0507 0.0
C1505 C 0.50604 0.6874 0.06215 0.0
C1506 C 0.50239 0.68889 0.01292 0.0
C1507 C 0.50802 0.66702 0.04832 0.0
C1508 C 0.4995 0.66629 0.9753 0.0
C1509 C 0.49713 0.70789 0.94974 0.0
N1510 N 0.50615 0.6683 0.02459 0.0
N1511 N 0.49912 0.70833 0.97373 0.0
H1512 H 0.17347 0.25567 0.50796 0.0
H1513 H 0.31007 0.22803 0.48642 0.0
H1514 H 0.22916 0.30765 0.50773 0.0
H1515 H 0.25844 0.17274 0.49544 0.0
H1516 H 0.27939 0.25715 0.49193 0.0
H1517 H 0.20317 0.22478 0.50178 0.0
C1518 C 0.19186 0.26062 0.50668 0.0
C1519 C 0.19874 0.28438 0.50832 0.0
C1520 C 0.27466 0.23867 0.49274 0.0
C1521 C 0.23267 0.2492 0.50112 0.0
C1522 C 0.29225 0.22193 0.48955 0.0
C1523 C 0.28695 0.19777 0.49061 0.0
C1524 C 0.25141 0.23141 0.49703 0.0
C1525 C 0.26338 0.19114 0.49454 0.0
C1526 C 0.20878 0.24298 0.50313 0.0
C1527 C 0.22286 0.28968 0.50653 0.0
N1528 N 0.24645 0.20789 0.49767 0.0
N1529 N 0.23883 0.27229 0.50298 0.0
H1530 H 0.69249 0.22736 0.50405 0.0
H1531 H 0.83022 0.25576 0.49538 0.0
H1532 H 0.74521 0.1725 0.50775 0.0
H1533 H 0.77422 0.30592 0.48319 0.0
H1534 H 0.80042 0.22469 0.50032 0.0
H1535 H 0.72323 0.25608 0.49746 0.0
C1536 C 0.71057 0.22126 0.50352 0.0
C1537 C 0.71616 0.19733 0.50646 0.0
C1538 C 0.79478 0.24251 0.49645 0.0
C1539 C 0.75185 0.23058 0.49879 0.0
C1540 C 0.81175 0.26024 0.49357 0.0
C1541 C 0.80477 0.28359 0.48904 0.0
C1542 C 0.77074 0.24824 0.4948 0.0
C1543 C 0.78057 0.28831 0.48689 0.0
C1544 C 0.72821 0.23779 0.49966 0.0
C1545 C 0.74005 0.19074 0.50556 0.0
N1546 N 0.76454 0.27088 0.48989 0.0
N1547 N 0.75707 0.2073 0.50183 0.0
H1548 H 0.82823 0.74476 0.50721 0.0
H1549 H 0.69191 0.77244 0.48404 0.0
H1550 H 0.77235 0.69297 0.50743 0.0
H1551 H 0.74316 0.82778 0.49474 0.0
H1552 H 0.72264 0.74336 0.48963 0.0
H1553 H 0.79864 0.77568 0.50058 0.0
C1554 C 0.80982 0.73986 0.50596 0.0
C1555 C 0.80285 0.71614 0.50783 0.0
C1556 C 0.72727 0.76184 0.49078 0.0
C1557 C 0.76907 0.75135 0.50007 0.0
C1558 C 0.70966 0.77856 0.48754 0.0
C1559 C 0.71483 0.80271 0.4891 0.0
C1560 C 0.7504 0.76913 0.49564 0.0
C1561 C 0.73832 0.80937 0.49344 0.0
C1562 C 0.79297 0.75752 0.50214 0.0
C1563 C 0.77871 0.71091 0.50605 0.0
N1564 N 0.75527 0.79265 0.49665 0.0
N1565 N 0.76282 0.7283 0.50221 0.0
H1566 H 0.22728 0.69078 0.49379 0.0
H1567 H 0.25512 0.82851 0.50508 0.0
H1568 H 0.17202 0.7432 0.49265 0.0
H1569 H 0.30558 0.77247 0.51578 0.0
H1570 H 0.22416 0.79866 0.4996 0.0
H1571 H 0.25599 0.72161 0.50023 0.0
C1572 C 0.22109 0.70881 0.49487 0.0
C1573 C 0.19705 0.71429 0.49272 0.0
C1574 C 0.24203 0.79303 0.50324 0.0
C1575 C 0.23026 0.75006 0.50022 0.0
C1576 C 0.2597 0.81003 0.50641 0.0
C1577 C 0.28309 0.80306 0.51074 0.0
C1578 C 0.24788 0.76898 0.50435 0.0
C1579 C 0.28794 0.77883 0.51229 0.0
C1580 C 0.2376 0.7265 0.49863 0.0
C1581 C 0.19034 0.73812 0.49423 0.0
N1582 N 0.27057 0.76279 0.50901 0.0
N1583 N 0.20689 0.75518 0.49788 0.0
H1584 H 0.50478 0.17116 0.2555 0.0
H1585 H 0.49708 0.30917 0.22778 0.0
H1586 H 0.51684 0.22678 0.30612 0.0
H1587 H 0.49144 0.25653 0.173 0.0
H1588 H 0.50397 0.27828 0.25634 0.0
H1589 H 0.50002 0.20118 0.22463 0.0
C1590 C 0.50659 0.1896 0.26012 0.0
C1591 C 0.51104 0.1964 0.28354 0.0
C1592 C 0.50128 0.27336 0.23809 0.0
C1593 C 0.50551 0.2307 0.24841 0.0
C1594 C 0.49726 0.29108 0.22167 0.0
C1595 C 0.49363 0.28554 0.19782 0.0
C1596 C 0.50162 0.24971 0.23085 0.0
C1597 C 0.49415 0.26165 0.19118 0.0
C1598 C 0.50382 0.2067 0.2425 0.0
C1599 C 0.5132 0.22056 0.28845 0.0
N1600 N 0.49802 0.24457 0.20764 0.0
N1601 N 0.51033 0.23673 0.27111 0.0
H1602 H 0.8291 0.50769 0.25533 0.0
H1603 H 0.69266 0.4857 0.22726 0.0
H1604 H 0.77306 0.50741 0.30694 0.0
H1605 H 0.7439 0.49651 0.17194 0.0
H1606 H 0.72345 0.49063 0.25634 0.0
H1607 H 0.79957 0.50145 0.22423 0.0
C1608 C 0.81068 0.50638 0.26015 0.0
C1609 C 0.80364 0.50803 0.28387 0.0
C1610 C 0.72808 0.49195 0.23786 0.0
C1611 C 0.76994 0.50074 0.24847 0.0
C1612 C 0.71043 0.48909 0.22114 0.0
C1613 C 0.71557 0.49088 0.197 0.0
C1614 C 0.75125 0.49667 0.23061 0.0
C1615 C 0.73909 0.49505 0.19034 0.0
C1616 C 0.79387 0.5028 0.24239 0.0
C1617 C 0.77949 0.50621 0.28901 0.0
N1618 N 0.7561 0.4979 0.20709 0.0
N1619 N 0.76364 0.50262 0.27153 0.0
H1620 H 0.51086 0.69098 0.22807 0.0
H1621 H 0.4919 0.8278 0.25653 0.0
H1622 H 0.50452 0.74339 0.17314 0.0
H1623 H 0.49064 0.77179 0.30816 0.0
H1624 H 0.4978 0.7982 0.22551 0.0
H1625 H 0.50535 0.72148 0.25738 0.0
C1626 C 0.50832 0.70894 0.22208 0.0
C1627 C 0.50805 0.71451 0.19797 0.0
C1628 C 0.49618 0.7925 0.24365 0.0
C1629 C 0.50162 0.74985 0.23183 0.0
C1630 C 0.49279 0.80936 0.26137 0.0
C1631 C 0.49083 0.80236 0.28508 0.0
C1632 C 0.49769 0.76853 0.24973 0.0
C1633 C 0.49212 0.77818 0.29024 0.0
C1634 C 0.50513 0.72642 0.23894 0.0
C1635 C 0.50482 0.73824 0.19151 0.0
N1636 N 0.49551 0.76225 0.27277 0.0
N1637 N 0.50169 0.75507 0.20836 0.0
H1638 H 0.17173 0.49063 0.25529 0.0
H1639 H 0.30725 0.51721 0.22678 0.0
H1640 H 0.22762 0.49349 0.30698 0.0
H1641 H 0.2563 0.50345 0.17186 0.0
H1642 H 0.27666 0.51185 0.25607 0.0
H1643 H 0.20102 0.49768 0.22418 0.0
C1644 C 0.19008 0.49266 0.26013 0.0
C1645 C 0.19714 0.49148 0.28387 0.0
C1646 C 0.27206 0.50999 0.23763 0.0
C1647 C 0.23058 0.49973 0.24845 0.0
C1648 C 0.28959 0.51311 0.2208 0.0
C1649 C 0.28447 0.51057 0.19672 0.0
C1650 C 0.24907 0.50427 0.23052 0.0
C1651 C 0.26108 0.50551 0.19021 0.0
C1652 C 0.20676 0.49671 0.24237 0.0
C1653 C 0.22119 0.49426 0.28903 0.0
N1654 N 0.24423 0.5024 0.20705 0.0
N1655 N 0.23693 0.4983 0.27153 0.0
H1656 H 0.48428 0.69223 0.77226 0.0
H1657 H 0.50773 0.82833 0.74382 0.0
H1658 H 0.49578 0.74356 0.82735 0.0
H1659 H 0.50729 0.77224 0.69229 0.0
H1660 H 0.50122 0.79891 0.77494 0.0
H1661 H 0.48962 0.72285 0.74303 0.0
C1662 C 0.4879 0.70998 0.7783 0.0
C1663 C 0.48978 0.7152 0.80242 0.0
C1664 C 0.50261 0.79316 0.75679 0.0
C1665 C 0.49604 0.75066 0.76865 0.0
C1666 C 0.50636 0.80991 0.73902 0.0
C1667 C 0.50802 0.80283 0.71531 0.0
C1668 C 0.50039 0.76924 0.75075 0.0
C1669 C 0.50609 0.77868 0.7102 0.0
C1670 C 0.491 0.72753 0.76149 0.0
C1671 C 0.49424 0.7387 0.80897 0.0
N1672 N 0.50232 0.76288 0.72771 0.0
N1673 N 0.49732 0.75559 0.79215 0.0
H1674 H 0.25603 0.49133 0.82792 0.0
H1675 H 0.22713 0.51694 0.69227 0.0
H1676 H 0.30759 0.49389 0.7719 0.0
H1677 H 0.17238 0.50387 0.74359 0.0
H1678 H 0.25653 0.51174 0.72279 0.0
H1679 H 0.22487 0.49827 0.79867 0.0
C1680 C 0.26083 0.49329 0.80955 0.0
C1681 C 0.28455 0.49203 0.80244 0.0
C1682 C 0.2381 0.51 0.72748 0.0
C1683 C 0.24906 0.50014 0.76904 0.0
C1684 C 0.22121 0.51301 0.71 0.0
C1685 C 0.19714 0.51064 0.71524 0.0
C1686 C 0.23108 0.50453 0.75056 0.0
C1687 C 0.19072 0.5058 0.7387 0.0
C1688 C 0.24304 0.49727 0.79289 0.0
C1689 C 0.28966 0.49471 0.77836 0.0
N1690 N 0.20762 0.50279 0.75551 0.0
N1691 N 0.27212 0.49868 0.76265 0.0
H1692 H 0.49296 0.17123 0.74512 0.0
H1693 H 0.51898 0.30686 0.77361 0.0
H1694 H 0.4955 0.22731 0.69359 0.0
H1695 H 0.50425 0.25631 0.82866 0.0
H1696 H 0.51408 0.2761 0.74446 0.0
H1697 H 0.49971 0.20053 0.77633 0.0
C1698 C 0.49486 0.18961 0.74034 0.0
C1699 C 0.49368 0.19673 0.71661 0.0
C1700 C 0.5119 0.27162 0.7629 0.0
C1701 C 0.50161 0.23015 0.75213 0.0
C1702 C 0.51475 0.28925 0.77965 0.0
C1703 C 0.5118 0.2843 0.80371 0.0
C1704 C 0.506 0.24869 0.77005 0.0
C1705 C 0.50662 0.26096 0.8103 0.0
C1706 C 0.49873 0.20629 0.75816 0.0
C1707 C 0.49628 0.22082 0.71152 0.0
N1708 N 0.50375 0.24399 0.79353 0.0
N1709 N 0.50017 0.23653 0.72907 0.0
H1710 H 0.74403 0.50742 0.82767 0.0
H1711 H 0.77168 0.49043 0.6904 0.0
H1712 H 0.69219 0.50978 0.77189 0.0
H1713 H 0.82691 0.49446 0.74272 0.0
H1714 H 0.74262 0.49604 0.72109 0.0
H1715 H 0.77488 0.50165 0.79785 0.0
C1716 C 0.7391 0.50678 0.80923 0.0
C1717 C 0.71539 0.50903 0.80236 0.0
C1718 C 0.76107 0.49573 0.72597 0.0
C1719 C 0.75055 0.50236 0.76828 0.0
C1720 C 0.77779 0.49249 0.70837 0.0
C1721 C 0.80192 0.49205 0.71387 0.0
C1722 C 0.76832 0.49855 0.74945 0.0
C1723 C 0.80853 0.49471 0.73762 0.0
C1724 C 0.75673 0.50348 0.79225 0.0
C1725 C 0.71012 0.50807 0.77819 0.0
N1726 N 0.7918 0.49788 0.75458 0.0
N1727 N 0.72749 0.50478 0.76214 0.0
loop_
_geom_bond_atom_site_label_1
_geom_bond_atom_site_label_2
_geom_bond_distance
_geom_bond_site_symmetry_2
_ccdc_geom_bond_type
Mn0 O5 2.095 . S
Mn0 O15 2.162 . S
Mn0 O16 2.297 . S
Mn0 O24 2.385 . S
Mn0 O25 2.209 . S
Mn0 O26 2.094 . S
Mn1 O6 2.121 . S
Mn1 N8 2.257 . S
Mn1 N17 2.282 . S
Mn1 O25 2.215 . S
Mn1 O27 2.117 . S
C2 O24 1.234 . S
C2 O25 1.283 . S
C3 O15 1.281 . S
C3 O16 1.236 . S
C4 O26 1.240 . S
C4 O27 1.264 . S
O5 Mn0 2.095 . S
O5 C14 1.250 . S
O6 Mn1 2.121 . S
O6 C14 1.258 . S
C7 N8 1.326 . S
C7 C11 1.460 . S
C7 H13 0.929 . S
N8 Mn1 2.257 . S
N8 C7 1.326 . S
N8 C12 1.362 . S
C9 C10 1.258 . S
C9 C12 1.431 . S
C9 C29 1.449 . S
C10 C9 1.258 . S
C10 C11 1.477 . S
C10 H30 0.931 . S
C11 C7 1.460 . S
C11 C10 1.477 . S
C11 H31 0.930 . S
C12 N8 1.362 . S
C12 C9 1.431 . S
C12 C22 1.476 . S
H13 C7 0.929 . S
C14 O5 1.250 . S
C14 O6 1.258 . S
O15 Mn0 2.162 . S
O15 C3 1.281 . S
O16 Mn0 2.297 . S
O16 C3 1.236 . S
N17 Mn1 2.282 . S
N17 C18 1.328 . S
N17 C22 1.318 . S
C18 N17 1.328 . S
C18 C19 1.457 . S
C18 H23 0.929 . S
C19 C18 1.457 . S
C19 C20 1.291 . S
C19 H32 0.931 . S
C20 C19 1.291 . S
C20 C21 1.373 . S
C20 H33 0.929 . S
C21 C20 1.373 . S
C21 C22 1.396 . S
C21 C28 1.403 . S
C22 C12 1.476 . S
C22 N17 1.318 . S
C22 C21 1.396 . S
H23 C18 0.929 . S
O24 Mn0 2.385 . S
O24 C2 1.234 . S
O25 Mn0 2.209 . S
O25 Mn1 2.215 . S
O25 C2 1.283 . S
O26 Mn0 2.094 . S
O26 C4 1.240 . S
O27 Mn1 2.117 . S
O27 C4 1.264 . S
C28 C21 1.403 . S
C28 C29 1.399 . S
C28 H34 0.929 . S
C29 C9 1.449 . S
C29 C28 1.399 . S
C29 H35 0.930 . S
H30 C10 0.931 . S
H31 C11 0.930 . S
H32 C19 0.931 . S
H33 C20 0.929 . S
H34 C28 0.929 . S
H35 C29 0.930 . S
Mn36 O41 2.095 . S
Mn36 O51 2.162 . S
Mn36 O52 2.297 . S
Mn36 O60 2.385 . S
Mn36 O61 2.209 . S
Mn36 O62 2.094 . S
Mn37 O42 2.121 . S
Mn37 N44 2.257 . S
Mn37 N53 2.282 . S
Mn37 O61 2.215 . S
Mn37 O63 2.117 . S
C38 O60 1.234 . S
C38 O61 1.283 . S
C39 O51 1.281 . S
C39 O52 1.236 . S
C40 O62 1.240 . S
C40 O63 1.264 . S
O41 Mn36 2.095 . S
O41 C50 1.250 . S
O42 Mn37 2.121 . S
O42 C50 1.258 . S
C43 N44 1.326 . S
C43 C47 1.460 . S
C43 H49 0.929 . S
N44 Mn37 2.257 . S
N44 C43 1.326 . S
N44 C48 1.362 . S
C45 C46 1.258 . S
C45 C48 1.431 . S
C45 C65 1.449 . S
C46 C45 1.258 . S
C46 C47 1.477 . S
C46 H66 0.931 . S
C47 C43 1.460 . S
C47 C46 1.477 . S
C47 H67 0.930 . S
C48 N44 1.362 . S
C48 C45 1.431 . S
C48 C58 1.476 . S
H49 C43 0.929 . S
C50 O41 1.250 . S
C50 O42 1.258 . S
O51 Mn36 2.162 . S
O51 C39 1.281 . S
O52 Mn36 2.297 . S
O52 C39 1.236 . S
N53 Mn37 2.282 . S
N53 C54 1.328 . S
N53 C58 1.318 . S
C54 N53 1.328 . S
C54 C55 1.457 . S
C54 H59 0.929 . S
C55 C54 1.457 . S
C55 C56 1.291 . S
C55 H68 0.931 . S
C56 C55 1.291 . S
C56 C57 1.373 . S
C56 H69 0.929 . S
C57 C56 1.373 . S
C57 C58 1.396 . S
C57 C64 1.403 . S
C58 C48 1.476 . S
C58 N53 1.318 . S
C58 C57 1.396 . S
H59 C54 0.929 . S
O60 Mn36 2.385 . S
O60 C38 1.234 . S
O61 Mn36 2.209 . S
O61 Mn37 2.215 . S
O61 C38 1.283 . S
O62 Mn36 2.094 . S
O62 C40 1.240 . S
O63 Mn37 2.117 . S
O63 C40 1.264 . S
C64 C57 1.403 . S
C64 C65 1.399 . S
C64 H70 0.929 . S
C65 C45 1.449 . S
C65 C64 1.399 . S
C65 H71 0.930 . S
H66 C46 0.931 . S
H67 C47 0.930 . S
H68 C55 0.931 . S
H69 C56 0.929 . S
H70 C64 0.929 . S
H71 C65 0.930 . S
Mn72 O77 2.095 . S
Mn72 O87 2.162 . S
Mn72 O88 2.297 . S
Mn72 O96 2.385 . S
Mn72 O97 2.209 . S
Mn72 O98 2.094 . S
Mn73 O78 2.121 . S
Mn73 N80 2.257 . S
Mn73 N89 2.282 . S
Mn73 O97 2.215 . S
Mn73 O99 2.117 . S
C74 O96 1.234 . S
C74 O97 1.283 . S
C75 O87 1.281 . S
C75 O88 1.236 . S
C76 O98 1.240 . S
C76 O99 1.264 . S
O77 Mn72 2.095 . S
O77 C86 1.250 . S
O78 Mn73 2.121 . S
O78 C86 1.258 . S
C79 N80 1.326 . S
C79 C83 1.460 . S
C79 H85 0.929 . S
N80 Mn73 2.257 . S
N80 C79 1.326 . S
N80 C84 1.362 . S
C81 C82 1.258 . S
C81 C84 1.431 . S
C81 C101 1.449 . S
C82 C81 1.258 . S
C82 C83 1.477 . S
C82 H102 0.931 . S
C83 C79 1.460 . S
C83 C82 1.477 . S
C83 H103 0.930 . S
C84 N80 1.362 . S
C84 C81 1.431 . S
C84 C94 1.476 . S
H85 C79 0.929 . S
C86 O77 1.250 . S
C86 O78 1.258 . S
O87 Mn72 2.162 . S
O87 C75 1.281 . S
O88 Mn72 2.297 . S
O88 C75 1.236 . S
N89 Mn73 2.282 . S
N89 C90 1.328 . S
N89 C94 1.318 . S
C90 N89 1.328 . S
C90 C91 1.457 . S
C90 H95 0.929 . S
C91 C90 1.457 . S
C91 C92 1.291 . S
C91 H104 0.931 . S
C92 C91 1.291 . S
C92 C93 1.373 . S
C92 H105 0.929 . S
C93 C92 1.373 . S
C93 C94 1.396 . S
C93 C100 1.403 . S
C94 C84 1.476 . S
C94 N89 1.318 . S
C94 C93 1.396 . S
H95 C90 0.929 . S
O96 Mn72 2.385 . S
O96 C74 1.234 . S
O97 Mn72 2.209 . S
O97 Mn73 2.215 . S
O97 C74 1.283 . S
O98 Mn72 2.094 . S
O98 C76 1.240 . S
O99 Mn73 2.117 . S
O99 C76 1.264 . S
C100 C93 1.403 . S
C100 C101 1.399 . S
C100 H106 0.929 . S
C101 C81 1.449 . S
C101 C100 1.399 . S
C101 H107 0.930 . S
H102 C82 0.931 . S
H103 C83 0.930 . S
H104 C91 0.931 . S
H105 C92 0.929 . S
H106 C100 0.929 . S
H107 C101 0.930 . S
Mn108 O113 2.095 . S
Mn108 O123 2.162 . S
Mn108 O124 2.297 . S
Mn108 O132 2.385 . S
Mn108 O133 2.209 . S
Mn108 O134 2.094 . S
Mn109 O114 2.121 . S
Mn109 N116 2.257 . S
Mn109 N125 2.282 . S
Mn109 O133 2.215 . S
Mn109 O135 2.117 . S
C110 O132 1.234 . S
C110 O133 1.283 . S
C111 O123 1.281 . S
C111 O124 1.236 . S
C112 O134 1.240 . S
C112 O135 1.264 . S
O113 Mn108 2.095 . S
O113 C122 1.250 . S
O114 Mn109 2.121 . S
O114 C122 1.258 . S
C115 N116 1.326 . S
C115 C119 1.460 . S
C115 H121 0.929 . S
N116 Mn109 2.257 . S
N116 C115 1.326 . S
N116 C120 1.362 . S
C117 C118 1.258 . S
C117 C120 1.431 . S
C117 C137 1.449 . S
C118 C117 1.258 . S
C118 C119 1.477 . S
C118 H138 0.931 . S
C119 C115 1.460 . S
C119 C118 1.477 . S
C119 H139 0.930 . S
C120 N116 1.362 . S
C120 C117 1.431 . S
C120 C130 1.476 . S
H121 C115 0.929 . S
C122 O113 1.250 . S
C122 O114 1.258 . S
O123 Mn108 2.162 . S
O123 C111 1.281 . S
O124 Mn108 2.297 . S
O124 C111 1.236 . S
N125 Mn109 2.282 . S
N125 C126 1.328 . S
N125 C130 1.318 . S
C126 N125 1.328 . S
C126 C127 1.457 . S
C126 H131 0.929 . S
C127 C126 1.457 . S
C127 C128 1.291 . S
C127 H140 0.931 . S
C128 C127 1.291 . S
C128 C129 1.373 . S
C128 H141 0.929 . S
C129 C128 1.373 . S
C129 C130 1.396 . S
C129 C136 1.403 . S
C130 C120 1.476 . S
C130 N125 1.318 . S
C130 C129 1.396 . S
H131 C126 0.929 . S
O132 Mn108 2.385 . S
O132 C110 1.234 . S
O133 Mn108 2.209 . S
O133 Mn109 2.215 . S
O133 C110 1.283 . S
O134 Mn108 2.094 . S
O134 C112 1.240 . S
O135 Mn109 2.117 . S
O135 C112 1.264 . S
C136 C129 1.403 . S
C136 C137 1.399 . S
C136 H142 0.929 . S
C137 C117 1.449 . S
C137 C136 1.399 . S
C137 H143 0.930 . S
H138 C118 0.931 . S
H139 C119 0.930 . S
H140 C127 0.931 . S
H141 C128 0.929 . S
H142 C136 0.929 . S
H143 C137 0.930 . S
Mn144 O149 2.095 . S
Mn144 O159 2.162 . S
Mn144 O160 2.297 . S
Mn144 O168 2.385 . S
Mn144 O169 2.209 . S
Mn144 O170 2.094 . S
Mn145 O150 2.121 . S
Mn145 N152 2.257 . S
Mn145 N161 2.282 . S
Mn145 O169 2.215 . S
Mn145 O171 2.117 . S
C146 O168 1.234 . S
C146 O169 1.283 . S
C147 O159 1.281 . S
C147 O160 1.236 . S
C148 O170 1.240 . S
C148 O171 1.264 . S
O149 Mn144 2.095 . S
O149 C158 1.250 . S
O150 Mn145 2.121 . S
O150 C158 1.258 . S
C151 N152 1.326 . S
C151 C155 1.460 . S
C151 H157 0.929 . S
N152 Mn145 2.257 . S
N152 C151 1.326 . S
N152 C156 1.362 . S
C153 C154 1.258 . S
C153 C156 1.431 . S
C153 C173 1.449 . S
C154 C153 1.258 . S
C154 C155 1.477 . S
C154 H174 0.931 . S
C155 C151 1.460 . S
C155 C154 1.477 . S
C155 H175 0.930 . S
C156 N152 1.362 . S
C156 C153 1.431 . S
C156 C166 1.476 . S
H157 C151 0.929 . S
C158 O149 1.250 . S
C158 O150 1.258 . S
O159 Mn144 2.162 . S
O159 C147 1.281 . S
O160 Mn144 2.297 . S
O160 C147 1.236 . S
N161 Mn145 2.282 . S
N161 C162 1.328 . S
N161 C166 1.318 . S
C162 N161 1.328 . S
C162 C163 1.457 . S
C162 H167 0.929 . S
C163 C162 1.457 . S
C163 C164 1.291 . S
C163 H176 0.931 . S
C164 C163 1.291 . S
C164 C165 1.373 . S
C164 H177 0.929 . S
C165 C164 1.373 . S
C165 C166 1.396 . S
C165 C172 1.403 . S
C166 C156 1.476 . S
C166 N161 1.318 . S
C166 C165 1.396 . S
H167 C162 0.929 . S
O168 Mn144 2.385 . S
O168 C146 1.234 . S
O169 Mn144 2.209 . S
O169 Mn145 2.215 . S
O169 C146 1.283 . S
O170 Mn144 2.094 . S
O170 C148 1.240 . S
O171 Mn145 2.117 . S
O171 C148 1.264 . S
C172 C165 1.403 . S
C172 C173 1.399 . S
C172 H178 0.929 . S
C173 C153 1.449 . S
C173 C172 1.399 . S
C173 H179 0.930 . S
H174 C154 0.931 . S
H175 C155 0.930 . S
H176 C163 0.931 . S
H177 C164 0.929 . S
H178 C172 0.929 . S
H179 C173 0.930 . S
Mn180 O185 2.095 . S
Mn180 O195 2.162 . S
Mn180 O196 2.297 . S
Mn180 O204 2.385 . S
Mn180 O205 2.209 . S
Mn180 O206 2.094 . S
Mn181 O186 2.121 . S
Mn181 N188 2.257 . S
Mn181 N197 2.282 . S
Mn181 O205 2.215 . S
Mn181 O207 2.117 . S
C182 O204 1.234 . S
C182 O205 1.283 . S
C183 O195 1.281 . S
C183 O196 1.236 . S
C184 O206 1.240 . S
C184 O207 1.264 . S
O185 Mn180 2.095 . S
O185 C194 1.250 . S
O186 Mn181 2.121 . S
O186 C194 1.258 . S
C187 N188 1.326 . S
C187 C191 1.460 . S
C187 H193 0.929 . S
N188 Mn181 2.257 . S
N188 C187 1.326 . S
N188 C192 1.362 . S
C189 C190 1.258 . S
C189 C192 1.431 . S
C189 C209 1.449 . S
C190 C189 1.258 . S
C190 C191 1.477 . S
C190 H210 0.931 . S
C191 C187 1.460 . S
C191 C190 1.477 . S
C191 H211 0.930 . S
C192 N188 1.362 . S
C192 C189 1.431 . S
C192 C202 1.476 . S
H193 C187 0.929 . S
C194 O185 1.250 . S
C194 O186 1.258 . S
O195 Mn180 2.162 . S
O195 C183 1.281 . S
O196 Mn180 2.297 . S
O196 C183 1.236 . S
N197 Mn181 2.282 . S
N197 C198 1.328 . S
N197 C202 1.318 . S
C198 N197 1.328 . S
C198 C199 1.457 . S
C198 H203 0.929 . S
C199 C198 1.457 . S
C199 C200 1.291 . S
C199 H212 0.931 . S
C200 C199 1.291 . S
C200 C201 1.373 . S
C200 H213 0.929 . S
C201 C200 1.373 . S
C201 C202 1.396 . S
C201 C208 1.403 . S
C202 C192 1.476 . S
C202 N197 1.318 . S
C202 C201 1.396 . S
H203 C198 0.929 . S
O204 Mn180 2.385 . S
O204 C182 1.234 . S
O205 Mn180 2.209 . S
O205 Mn181 2.215 . S
O205 C182 1.283 . S
O206 Mn180 2.094 . S
O206 C184 1.240 . S
O207 Mn181 2.117 . S
O207 C184 1.264 . S
C208 C201 1.403 . S
C208 C209 1.399 . S
C208 H214 0.929 . S
C209 C189 1.449 . S
C209 C208 1.399 . S
C209 H215 0.930 . S
H210 C190 0.931 . S
H211 C191 0.930 . S
H212 C199 0.931 . S
H213 C200 0.929 . S
H214 C208 0.929 . S
H215 C209 0.930 . S
Mn216 O221 2.095 . S
Mn216 O231 2.162 . S
Mn216 O232 2.297 . S
Mn216 O240 2.385 . S
Mn216 O241 2.209 . S
Mn216 O242 2.094 . S
Mn217 O222 2.121 . S
Mn217 N224 2.257 . S
Mn217 N233 2.282 . S
Mn217 O241 2.215 . S
Mn217 O243 2.117 . S
C218 O240 1.234 . S
C218 O241 1.283 . S
C219 O231 1.281 . S
C219 O232 1.236 . S
C220 O242 1.240 . S
C220 O243 1.264 . S
O221 Mn216 2.095 . S
O221 C230 1.250 . S
O222 Mn217 2.121 . S
O222 C230 1.258 . S
C223 N224 1.326 . S
C223 C227 1.460 . S
C223 H229 0.929 . S
N224 Mn217 2.257 . S
N224 C223 1.326 . S
N224 C228 1.362 . S
C225 C226 1.258 . S
C225 C228 1.431 . S
C225 C245 1.449 . S
C226 C225 1.258 . S
C226 C227 1.477 . S
C226 H246 0.931 . S
C227 C223 1.460 . S
C227 C226 1.477 . S
C227 H247 0.930 . S
C228 N224 1.362 . S
C228 C225 1.431 . S
C228 C238 1.476 . S
H229 C223 0.929 . S
C230 O221 1.250 . S
C230 O222 1.258 . S
O231 Mn216 2.162 . S
O231 C219 1.281 . S
O232 Mn216 2.297 . S
O232 C219 1.236 . S
N233 Mn217 2.282 . S
N233 C234 1.328 . S
N233 C238 1.318 . S
C234 N233 1.328 . S
C234 C235 1.457 . S
C234 H239 0.929 . S
C235 C234 1.457 . S
C235 C236 1.291 . S
C235 H248 0.931 . S
C236 C235 1.291 . S
C236 C237 1.373 . S
C236 H249 0.929 . S
C237 C236 1.373 . S
C237 C238 1.396 . S
C237 C244 1.403 . S
C238 C228 1.476 . S
C238 N233 1.318 . S
C238 C237 1.396 . S
H239 C234 0.929 . S
O240 Mn216 2.385 . S
O240 C218 1.234 . S
O241 Mn216 2.209 . S
O241 Mn217 2.215 . S
O241 C218 1.283 . S
O242 Mn216 2.094 . S
O242 C220 1.240 . S
O243 Mn217 2.117 . S
O243 C220 1.264 . S
C244 C237 1.403 . S
C244 C245 1.399 . S
C244 H250 0.929 . S
C245 C225 1.449 . S
C245 C244 1.399 . S
C245 H251 0.930 . S
H246 C226 0.931 . S
H247 C227 0.930 . S
H248 C235 0.931 . S
H249 C236 0.929 . S
H250 C244 0.929 . S
H251 C245 0.930 . S
Mn252 O257 2.095 . S
Mn252 O267 2.162 . S
Mn252 O268 2.297 . S
Mn252 O276 2.385 . S
Mn252 O277 2.209 . S
Mn252 O278 2.094 . S
Mn253 O258 2.121 . S
Mn253 N260 2.257 . S
Mn253 N269 2.282 . S
Mn253 O277 2.215 . S
Mn253 O279 2.117 . S
C254 O276 1.234 . S
C254 O277 1.283 . S
C255 O267 1.281 . S
C255 O268 1.236 . S
C256 O278 1.240 . S
C256 O279 1.264 . S
O257 Mn252 2.095 . S
O257 C266 1.250 . S
O258 Mn253 2.121 . S
O258 C266 1.258 . S
C259 N260 1.326 . S
C259 C263 1.460 . S
C259 H265 0.929 . S
N260 Mn253 2.257 . S
N260 C259 1.326 . S
N260 C264 1.362 . S
C261 C262 1.258 . S
C261 C264 1.431 . S
C261 C281 1.449 . S
C262 C261 1.258 . S
C262 C263 1.477 . S
C262 H282 0.931 . S
C263 C259 1.460 . S
C263 C262 1.477 . S
C263 H283 0.930 . S
C264 N260 1.362 . S
C264 C261 1.431 . S
C264 C274 1.476 . S
H265 C259 0.929 . S
C266 O257 1.250 . S
C266 O258 1.258 . S
O267 Mn252 2.162 . S
O267 C255 1.281 . S
O268 Mn252 2.297 . S
O268 C255 1.236 . S
N269 Mn253 2.282 . S
N269 C270 1.328 . S
N269 C274 1.318 . S
C270 N269 1.328 . S
C270 C271 1.457 . S
C270 H275 0.929 . S
C271 C270 1.457 . S
C271 C272 1.291 . S
C271 H284 0.931 . S
C272 C271 1.291 . S
C272 C273 1.373 . S
C272 H285 0.929 . S
C273 C272 1.373 . S
C273 C274 1.396 . S
C273 C280 1.403 . S
C274 C264 1.476 . S
C274 N269 1.318 . S
C274 C273 1.396 . S
H275 C270 0.929 . S
O276 Mn252 2.385 . S
O276 C254 1.234 . S
O277 Mn252 2.209 . S
O277 Mn253 2.215 . S
O277 C254 1.283 . S
O278 Mn252 2.094 . S
O278 C256 1.240 . S
O279 Mn253 2.117 . S
O279 C256 1.264 . S
C280 C273 1.403 . S
C280 C281 1.399 . S
C280 H286 0.929 . S
C281 C261 1.449 . S
C281 C280 1.399 . S
C281 H287 0.930 . S
H282 C262 0.931 . S
H283 C263 0.930 . S
H284 C271 0.931 . S
H285 C272 0.929 . S
H286 C280 0.929 . S
H287 C281 0.930 . S
Mn288 O293 2.095 . S
Mn288 O303 2.162 . S
Mn288 O304 2.297 . S
Mn288 O312 2.385 . S
Mn288 O313 2.209 . S
Mn288 O314 2.094 . S
Mn289 O294 2.121 . S
Mn289 N296 2.257 . S
Mn289 N305 2.282 . S
Mn289 O313 2.215 . S
Mn289 O315 2.117 . S
C290 O312 1.234 . S
C290 O313 1.283 . S
C291 O303 1.281 . S
C291 O304 1.236 . S
C292 O314 1.240 . S
C292 O315 1.264 . S
O293 Mn288 2.095 . S
O293 C302 1.250 . S
O294 Mn289 2.121 . S
O294 C302 1.258 . S
C295 N296 1.326 . S
C295 C299 1.460 . S
C295 H301 0.929 . S
N296 Mn289 2.257 . S
N296 C295 1.326 . S
N296 C300 1.362 . S
C297 C298 1.258 . S
C297 C300 1.431 . S
C297 C317 1.449 . S
C298 C297 1.258 . S
C298 C299 1.477 . S
C298 H318 0.931 . S
C299 C295 1.460 . S
C299 C298 1.477 . S
C299 H319 0.930 . S
C300 N296 1.362 . S
C300 C297 1.431 . S
C300 C310 1.476 . S
H301 C295 0.929 . S
C302 O293 1.250 . S
C302 O294 1.258 . S
O303 Mn288 2.162 . S
O303 C291 1.281 . S
O304 Mn288 2.297 . S
O304 C291 1.236 . S
N305 Mn289 2.282 . S
N305 C306 1.328 . S
N305 C310 1.318 . S
C306 N305 1.328 . S
C306 C307 1.457 . S
C306 H311 0.929 . S
C307 C306 1.457 . S
C307 C308 1.291 . S
C307 H320 0.931 . S
C308 C307 1.291 . S
C308 C309 1.373 . S
C308 H321 0.929 . S
C309 C308 1.373 . S
C309 C310 1.396 . S
C309 C316 1.403 . S
C310 C300 1.476 . S
C310 N305 1.318 . S
C310 C309 1.396 . S
H311 C306 0.929 . S
O312 Mn288 2.385 . S
O312 C290 1.234 . S
O313 Mn288 2.209 . S
O313 Mn289 2.215 . S
O313 C290 1.283 . S
O314 Mn288 2.094 . S
O314 C292 1.240 . S
O315 Mn289 2.117 . S
O315 C292 1.264 . S
C316 C309 1.403 . S
C316 C317 1.399 . S
C316 H322 0.929 . S
C317 C297 1.449 . S
C317 C316 1.399 . S
C317 H323 0.930 . S
H318 C298 0.931 . S
H319 C299 0.930 . S
H320 C307 0.931 . S
H321 C308 0.929 . S
H322 C316 0.929 . S
H323 C317 0.930 . S
Mn324 O329 2.095 . S
Mn324 O339 2.162 . S
Mn324 O340 2.297 . S
Mn324 O348 2.385 . S
Mn324 O349 2.209 . S
Mn324 O350 2.094 . S
Mn325 O330 2.121 . S
Mn325 N332 2.257 . S
Mn325 N341 2.282 . S
Mn325 O349 2.215 . S
Mn325 O351 2.117 . S
C326 O348 1.234 . S
C326 O349 1.283 . S
C327 O339 1.281 . S
C327 O340 1.236 . S
C328 O350 1.240 . S
C328 O351 1.264 . S
O329 Mn324 2.095 . S
O329 C338 1.250 . S
O330 Mn325 2.121 . S
O330 C338 1.258 . S
C331 N332 1.326 . S
C331 C335 1.460 . S
C331 H337 0.929 . S
N332 Mn325 2.257 . S
N332 C331 1.326 . S
N332 C336 1.362 . S
C333 C334 1.258 . S
C333 C336 1.431 . S
C333 C353 1.449 . S
C334 C333 1.258 . S
C334 C335 1.477 . S
C334 H354 0.931 . S
C335 C331 1.460 . S
C335 C334 1.477 . S
C335 H355 0.930 . S
C336 N332 1.362 . S
C336 C333 1.431 . S
C336 C346 1.476 . S
H337 C331 0.929 . S
C338 O329 1.250 . S
C338 O330 1.258 . S
O339 Mn324 2.162 . S
O339 C327 1.281 . S
O340 Mn324 2.297 . S
O340 C327 1.236 . S
N341 Mn325 2.282 . S
N341 C342 1.328 . S
N341 C346 1.318 . S
C342 N341 1.328 . S
C342 C343 1.457 . S
C342 H347 0.929 . S
C343 C342 1.457 . S
C343 C344 1.291 . S
C343 H356 0.931 . S
C344 C343 1.291 . S
C344 C345 1.373 . S
C344 H357 0.929 . S
C345 C344 1.373 . S
C345 C346 1.396 . S
C345 C352 1.403 . S
C346 C336 1.476 . S
C346 N341 1.318 . S
C346 C345 1.396 . S
H347 C342 0.929 . S
O348 Mn324 2.385 . S
O348 C326 1.234 . S
O349 Mn324 2.209 . S
O349 Mn325 2.215 . S
O349 C326 1.283 . S
O350 Mn324 2.094 . S
O350 C328 1.240 . S
O351 Mn325 2.117 . S
O351 C328 1.264 . S
C352 C345 1.403 . S
C352 C353 1.399 . S
C352 H358 0.929 . S
C353 C333 1.449 . S
C353 C352 1.399 . S
C353 H359 0.930 . S
H354 C334 0.931 . S
H355 C335 0.930 . S
H356 C343 0.931 . S
H357 C344 0.929 . S
H358 C352 0.929 . S
H359 C353 0.930 . S
Mn360 O365 2.095 . S
Mn360 O375 2.162 . S
Mn360 O376 2.297 . S
Mn360 O384 2.385 . S
Mn360 O385 2.209 . S
Mn360 O386 2.094 . S
Mn361 O366 2.121 . S
Mn361 N368 2.257 . S
Mn361 N377 2.282 . S
Mn361 O385 2.215 . S
Mn361 O387 2.117 . S
C362 O384 1.234 . S
C362 O385 1.283 . S
C363 O375 1.281 . S
C363 O376 1.236 . S
C364 O386 1.240 . S
C364 O387 1.264 . S
O365 Mn360 2.095 . S
O365 C374 1.250 . S
O366 Mn361 2.121 . S
O366 C374 1.258 . S
C367 N368 1.326 . S
C367 C371 1.460 . S
C367 H373 0.929 . S
N368 Mn361 2.257 . S
N368 C367 1.326 . S
N368 C372 1.362 . S
C369 C370 1.258 . S
C369 C372 1.431 . S
C369 C389 1.449 . S
C370 C369 1.258 . S
C370 C371 1.477 . S
C370 H390 0.931 . S
C371 C367 1.460 . S
C371 C370 1.477 . S
C371 H391 0.930 . S
C372 N368 1.362 . S
C372 C369 1.431 . S
C372 C382 1.476 . S
H373 C367 0.929 . S
C374 O365 1.250 . S
C374 O366 1.258 . S
O375 Mn360 2.162 . S
O375 C363 1.281 . S
O376 Mn360 2.297 . S
O376 C363 1.236 . S
N377 Mn361 2.282 . S
N377 C378 1.328 . S
N377 C382 1.318 . S
C378 N377 1.328 . S
C378 C379 1.457 . S
C378 H383 0.929 . S
C379 C378 1.457 . S
C379 C380 1.291 . S
C379 H392 0.931 . S
C380 C379 1.291 . S
C380 C381 1.373 . S
C380 H393 0.929 . S
C381 C380 1.373 . S
C381 C382 1.396 . S
C381 C388 1.403 . S
C382 C372 1.476 . S
C382 N377 1.318 . S
C382 C381 1.396 . S
H383 C378 0.929 . S
O384 Mn360 2.385 . S
O384 C362 1.234 . S
O385 Mn360 2.209 . S
O385 Mn361 2.215 . S
O385 C362 1.283 . S
O386 Mn360 2.094 . S
O386 C364 1.240 . S
O387 Mn361 2.117 . S
O387 C364 1.264 . S
C388 C381 1.403 . S
C388 C389 1.399 . S
C388 H394 0.929 . S
C389 C369 1.449 . S
C389 C388 1.399 . S
C389 H395 0.930 . S
H390 C370 0.931 . S
H391 C371 0.930 . S
H392 C379 0.931 . S
H393 C380 0.929 . S
H394 C388 0.929 . S
H395 C389 0.930 . S
Mn396 O401 2.095 . S
Mn396 O411 2.162 . S
Mn396 O412 2.297 . S
Mn396 O420 2.385 . S
Mn396 O421 2.209 . S
Mn396 O422 2.094 . S
Mn397 O402 2.121 . S
Mn397 N404 2.257 . S
Mn397 N413 2.282 . S
Mn397 O421 2.215 . S
Mn397 O423 2.117 . S
C398 O420 1.234 . S
C398 O421 1.283 . S
C399 O411 1.281 . S
C399 O412 1.236 . S
C400 O422 1.240 . S
C400 O423 1.264 . S
O401 Mn396 2.095 . S
O401 C410 1.250 . S
O402 Mn397 2.121 . S
O402 C410 1.258 . S
C403 N404 1.326 . S
C403 C407 1.460 . S
C403 H409 0.929 . S
N404 Mn397 2.257 . S
N404 C403 1.326 . S
N404 C408 1.362 . S
C405 C406 1.258 . S
C405 C408 1.431 . S
C405 C425 1.449 . S
C406 C405 1.258 . S
C406 C407 1.477 . S
C406 H426 0.931 . S
C407 C403 1.460 . S
C407 C406 1.477 . S
C407 H427 0.930 . S
C408 N404 1.362 . S
C408 C405 1.431 . S
C408 C418 1.476 . S
H409 C403 0.929 . S
C410 O401 1.250 . S
C410 O402 1.258 . S
O411 Mn396 2.162 . S
O411 C399 1.281 . S
O412 Mn396 2.297 . S
O412 C399 1.236 . S
N413 Mn397 2.282 . S
N413 C414 1.328 . S
N413 C418 1.318 . S
C414 N413 1.328 . S
C414 C415 1.457 . S
C414 H419 0.929 . S
C415 C414 1.457 . S
C415 C416 1.291 . S
C415 H428 0.931 . S
C416 C415 1.291 . S
C416 C417 1.373 . S
C416 H429 0.929 . S
C417 C416 1.373 . S
C417 C418 1.396 . S
C417 C424 1.403 . S
C418 C408 1.476 . S
C418 N413 1.318 . S
C418 C417 1.396 . S
H419 C414 0.929 . S
O420 Mn396 2.385 . S
O420 C398 1.234 . S
O421 Mn396 2.209 . S
O421 Mn397 2.215 . S
O421 C398 1.283 . S
O422 Mn396 2.094 . S
O422 C400 1.240 . S
O423 Mn397 2.117 . S
O423 C400 1.264 . S
C424 C417 1.403 . S
C424 C425 1.399 . S
C424 H430 0.929 . S
C425 C405 1.449 . S
C425 C424 1.399 . S
C425 H431 0.930 . S
H426 C406 0.931 . S
H427 C407 0.930 . S
H428 C415 0.931 . S
H429 C416 0.929 . S
H430 C424 0.929 . S
H431 C425 0.930 . S
Mn432 O437 2.095 . S
Mn432 O447 2.162 . S
Mn432 O448 2.297 . S
Mn432 O456 2.385 . S
Mn432 O457 2.209 . S
Mn432 O458 2.094 . S
Mn433 O438 2.121 . S
Mn433 N440 2.257 . S
Mn433 N449 2.282 . S
Mn433 O457 2.215 . S
Mn433 O459 2.117 . S
C434 O456 1.234 . S
C434 O457 1.283 . S
C435 O447 1.281 . S
C435 O448 1.236 . S
C436 O458 1.240 . S
C436 O459 1.264 . S
O437 Mn432 2.095 . S
O437 C446 1.250 . S
O438 Mn433 2.121 . S
O438 C446 1.258 . S
C439 N440 1.326 . S
C439 C443 1.460 . S
C439 H445 0.929 . S
N440 Mn433 2.257 . S
N440 C439 1.326 . S
N440 C444 1.362 . S
C441 C442 1.258 . S
C441 C444 1.431 . S
C441 C461 1.449 . S
C442 C441 1.258 . S
C442 C443 1.477 . S
C442 H462 0.931 . S
C443 C439 1.460 . S
C443 C442 1.477 . S
C443 H463 0.930 . S
C444 N440 1.362 . S
C444 C441 1.431 . S
C444 C454 1.476 . S
H445 C439 0.929 . S
C446 O437 1.250 . S
C446 O438 1.258 . S
O447 Mn432 2.162 . S
O447 C435 1.281 . S
O448 Mn432 2.297 . S
O448 C435 1.236 . S
N449 Mn433 2.282 . S
N449 C450 1.328 . S
N449 C454 1.318 . S
C450 N449 1.328 . S
C450 C451 1.457 . S
C450 H455 0.929 . S
C451 C450 1.457 . S
C451 C452 1.291 . S
C451 H464 0.931 . S
C452 C451 1.291 . S
C452 C453 1.373 . S
C452 H465 0.929 . S
C453 C452 1.373 . S
C453 C454 1.396 . S
C453 C460 1.403 . S
C454 C444 1.476 . S
C454 N449 1.318 . S
C454 C453 1.396 . S
H455 C450 0.929 . S
O456 Mn432 2.385 . S
O456 C434 1.234 . S
O457 Mn432 2.209 . S
O457 Mn433 2.215 . S
O457 C434 1.283 . S
O458 Mn432 2.094 . S
O458 C436 1.240 . S
O459 Mn433 2.117 . S
O459 C436 1.264 . S
C460 C453 1.403 . S
C460 C461 1.399 . S
C460 H466 0.929 . S
C461 C441 1.449 . S
C461 C460 1.399 . S
C461 H467 0.930 . S
H462 C442 0.931 . S
H463 C443 0.930 . S
H464 C451 0.931 . S
H465 C452 0.929 . S
H466 C460 0.929 . S
H467 C461 0.930 . S
Mn468 O473 2.095 . S
Mn468 O483 2.162 . S
Mn468 O484 2.297 . S
Mn468 O492 2.385 . S
Mn468 O493 2.209 . S
Mn468 O494 2.094 . S
Mn469 O474 2.121 . S
Mn469 N476 2.257 . S
Mn469 N485 2.282 . S
Mn469 O493 2.215 . S
Mn469 O495 2.117 . S
C470 O492 1.234 . S
C470 O493 1.283 . S
C471 O483 1.281 . S
C471 O484 1.236 . S
C472 O494 1.240 . S
C472 O495 1.264 . S
O473 Mn468 2.095 . S
O473 C482 1.250 . S
O474 Mn469 2.121 . S
O474 C482 1.258 . S
C475 N476 1.326 . S
C475 C479 1.460 . S
C475 H481 0.929 . S
N476 Mn469 2.257 . S
N476 C475 1.326 . S
N476 C480 1.362 . S
C477 C478 1.258 . S
C477 C480 1.431 . S
C477 C497 1.449 . S
C478 C477 1.258 . S
C478 C479 1.477 . S
C478 H498 0.931 . S
C479 C475 1.460 . S
C479 C478 1.477 . S
C479 H499 0.930 . S
C480 N476 1.362 . S
C480 C477 1.431 . S
C480 C490 1.476 . S
H481 C475 0.929 . S
C482 O473 1.250 . S
C482 O474 1.258 . S
O483 Mn468 2.162 . S
O483 C471 1.281 . S
O484 Mn468 2.297 . S
O484 C471 1.236 . S
N485 Mn469 2.282 . S
N485 C486 1.328 . S
N485 C490 1.318 . S
C486 N485 1.328 . S
C486 C487 1.457 . S
C486 H491 0.929 . S
C487 C486 1.457 . S
C487 C488 1.291 . S
C487 H500 0.931 . S
C488 C487 1.291 . S
C488 C489 1.373 . S
C488 H501 0.929 . S
C489 C488 1.373 . S
C489 C490 1.396 . S
C489 C496 1.403 . S
C490 C480 1.476 . S
C490 N485 1.318 . S
C490 C489 1.396 . S
H491 C486 0.929 . S
O492 Mn468 2.385 . S
O492 C470 1.234 . S
O493 Mn468 2.209 . S
O493 Mn469 2.215 . S
O493 C470 1.283 . S
O494 Mn468 2.094 . S
O494 C472 1.240 . S
O495 Mn469 2.117 . S
O495 C472 1.264 . S
C496 C489 1.403 . S
C496 C497 1.399 . S
C496 H502 0.929 . S
C497 C477 1.449 . S
C497 C496 1.399 . S
C497 H503 0.930 . S
H498 C478 0.931 . S
H499 C479 0.930 . S
H500 C487 0.931 . S
H501 C488 0.929 . S
H502 C496 0.929 . S
H503 C497 0.930 . S
Mn504 O509 2.095 . S
Mn504 O519 2.162 . S
Mn504 O520 2.297 . S
Mn504 O528 2.385 . S
Mn504 O529 2.209 . S
Mn504 O530 2.094 . S
Mn505 O510 2.121 . S
Mn505 N512 2.257 . S
Mn505 N521 2.282 . S
Mn505 O529 2.215 . S
Mn505 O531 2.117 . S
C506 O528 1.234 . S
C506 O529 1.283 . S
C507 O519 1.281 . S
C507 O520 1.236 . S
C508 O530 1.240 . S
C508 O531 1.264 . S
O509 Mn504 2.095 . S
O509 C518 1.250 . S
O510 Mn505 2.121 . S
O510 C518 1.258 . S
C511 N512 1.326 . S
C511 C515 1.460 . S
C511 H517 0.929 . S
N512 Mn505 2.257 . S
N512 C511 1.326 . S
N512 C516 1.362 . S
C513 C514 1.258 . S
C513 C516 1.431 . S
C513 C533 1.449 . S
C514 C513 1.258 . S
C514 C515 1.477 . S
C514 H534 0.931 . S
C515 C511 1.460 . S
C515 C514 1.477 . S
C515 H535 0.930 . S
C516 N512 1.362 . S
C516 C513 1.431 . S
C516 C526 1.476 . S
H517 C511 0.929 . S
C518 O509 1.250 . S
C518 O510 1.258 . S
O519 Mn504 2.162 . S
O519 C507 1.281 . S
O520 Mn504 2.297 . S
O520 C507 1.236 . S
N521 Mn505 2.282 . S
N521 C522 1.328 . S
N521 C526 1.318 . S
C522 N521 1.328 . S
C522 C523 1.457 . S
C522 H527 0.929 . S
C523 C522 1.457 . S
C523 C524 1.291 . S
C523 H536 0.931 . S
C524 C523 1.291 . S
C524 C525 1.373 . S
C524 H537 0.929 . S
C525 C524 1.373 . S
C525 C526 1.396 . S
C525 C532 1.403 . S
C526 C516 1.476 . S
C526 N521 1.318 . S
C526 C525 1.396 . S
H527 C522 0.929 . S
O528 Mn504 2.385 . S
O528 C506 1.234 . S
O529 Mn504 2.209 . S
O529 Mn505 2.215 . S
O529 C506 1.283 . S
O530 Mn504 2.094 . S
O530 C508 1.240 . S
O531 Mn505 2.117 . S
O531 C508 1.264 . S
C532 C525 1.403 . S
C532 C533 1.399 . S
C532 H538 0.929 . S
C533 C513 1.449 . S
C533 C532 1.399 . S
C533 H539 0.930 . S
H534 C514 0.931 . S
H535 C515 0.930 . S
H536 C523 0.931 . S
H537 C524 0.929 . S
H538 C532 0.929 . S
H539 C533 0.930 . S
Mn540 O545 2.095 . S
Mn540 O555 2.162 . S
Mn540 O556 2.297 . S
Mn540 O564 2.385 . S
Mn540 O565 2.209 . S
Mn540 O566 2.094 . S
Mn541 O546 2.121 . S
Mn541 N548 2.257 . S
Mn541 N557 2.282 . S
Mn541 O565 2.215 . S
Mn541 O567 2.117 . S
C542 O564 1.234 . S
C542 O565 1.283 . S
C543 O555 1.281 . S
C543 O556 1.236 . S
C544 O566 1.240 . S
C544 O567 1.264 . S
O545 Mn540 2.095 . S
O545 C554 1.250 . S
O546 Mn541 2.121 . S
O546 C554 1.258 . S
C547 N548 1.326 . S
C547 C551 1.460 . S
C547 H553 0.929 . S
N548 Mn541 2.257 . S
N548 C547 1.326 . S
N548 C552 1.362 . S
C549 C550 1.258 . S
C549 C552 1.431 . S
C549 C569 1.449 . S
C550 C549 1.258 . S
C550 C551 1.477 . S
C550 H570 0.931 . S
C551 C547 1.460 . S
C551 C550 1.477 . S
C551 H571 0.930 . S
C552 N548 1.362 . S
C552 C549 1.431 . S
C552 C562 1.476 . S
H553 C547 0.929 . S
C554 O545 1.250 . S
C554 O546 1.258 . S
O555 Mn540 2.162 . S
O555 C543 1.281 . S
O556 Mn540 2.297 . S
O556 C543 1.236 . S
N557 Mn541 2.282 . S
N557 C558 1.328 . S
N557 C562 1.318 . S
C558 N557 1.328 . S
C558 C559 1.457 . S
C558 H563 0.929 . S
C559 C558 1.457 . S
C559 C560 1.291 . S
C559 H572 0.931 . S
C560 C559 1.291 . S
C560 C561 1.373 . S
C560 H573 0.929 . S
C561 C560 1.373 . S
C561 C562 1.396 . S
C561 C568 1.403 . S
C562 C552 1.476 . S
C562 N557 1.318 . S
C562 C561 1.396 . S
H563 C558 0.929 . S
O564 Mn540 2.385 . S
O564 C542 1.234 . S
O565 Mn540 2.209 . S
O565 Mn541 2.215 . S
O565 C542 1.283 . S
O566 Mn540 2.094 . S
O566 C544 1.240 . S
O567 Mn541 2.117 . S
O567 C544 1.264 . S
C568 C561 1.403 . S
C568 C569 1.399 . S
C568 H574 0.929 . S
C569 C549 1.449 . S
C569 C568 1.399 . S
C569 H575 0.930 . S
H570 C550 0.931 . S
H571 C551 0.930 . S
H572 C559 0.931 . S
H573 C560 0.929 . S
H574 C568 0.929 . S
H575 C569 0.930 . S
Mn576 O581 2.095 . S
Mn576 O591 2.162 . S
Mn576 O592 2.297 . S
Mn576 O600 2.385 . S
Mn576 O601 2.209 . S
Mn576 O602 2.094 . S
Mn577 O582 2.121 . S
Mn577 N584 2.257 . S
Mn577 N593 2.282 . S
Mn577 O601 2.215 . S
Mn577 O603 2.117 . S
C578 O600 1.234 . S
C578 O601 1.283 . S
C579 O591 1.281 . S
C579 O592 1.236 . S
C580 O602 1.240 . S
C580 O603 1.264 . S
O581 Mn576 2.095 . S
O581 C590 1.250 . S
O582 Mn577 2.121 . S
O582 C590 1.258 . S
C583 N584 1.326 . S
C583 C587 1.460 . S
C583 H589 0.929 . S
N584 Mn577 2.257 . S
N584 C583 1.326 . S
N584 C588 1.362 . S
C585 C586 1.258 . S
C585 C588 1.431 . S
C585 C605 1.449 . S
C586 C585 1.258 . S
C586 C587 1.477 . S
C586 H606 0.931 . S
C587 C583 1.460 . S
C587 C586 1.477 . S
C587 H607 0.930 . S
C588 N584 1.362 . S
C588 C585 1.431 . S
C588 C598 1.476 . S
H589 C583 0.929 . S
C590 O581 1.250 . S
C590 O582 1.258 . S
O591 Mn576 2.162 . S
O591 C579 1.281 . S
O592 Mn576 2.297 . S
O592 C579 1.236 . S
N593 Mn577 2.282 . S
N593 C594 1.328 . S
N593 C598 1.318 . S
C594 N593 1.328 . S
C594 C595 1.457 . S
C594 H599 0.929 . S
C595 C594 1.457 . S
C595 C596 1.291 . S
C595 H608 0.931 . S
C596 C595 1.291 . S
C596 C597 1.373 . S
C596 H609 0.929 . S
C597 C596 1.373 . S
C597 C598 1.396 . S
C597 C604 1.403 . S
C598 C588 1.476 . S
C598 N593 1.318 . S
C598 C597 1.396 . S
H599 C594 0.929 . S
O600 Mn576 2.385 . S
O600 C578 1.234 . S
O601 Mn576 2.209 . S
O601 Mn577 2.215 . S
O601 C578 1.283 . S
O602 Mn576 2.094 . S
O602 C580 1.240 . S
O603 Mn577 2.117 . S
O603 C580 1.264 . S
C604 C597 1.403 . S
C604 C605 1.399 . S
C604 H610 0.929 . S
C605 C585 1.449 . S
C605 C604 1.399 . S
C605 H611 0.930 . S
H606 C586 0.931 . S
H607 C587 0.930 . S
H608 C595 0.931 . S
H609 C596 0.929 . S
H610 C604 0.929 . S
H611 C605 0.930 . S
Mn612 O617 2.095 . S
Mn612 O627 2.162 . S
Mn612 O628 2.297 . S
Mn612 O636 2.385 . S
Mn612 O637 2.209 . S
Mn612 O638 2.094 . S
Mn613 O618 2.121 . S
Mn613 N620 2.257 . S
Mn613 N629 2.282 . S
Mn613 O637 2.215 . S
Mn613 O639 2.117 . S
C614 O636 1.234 . S
C614 O637 1.283 . S
C615 O627 1.281 . S
C615 O628 1.236 . S
C616 O638 1.240 . S
C616 O639 1.264 . S
O617 Mn612 2.095 . S
O617 C626 1.250 . S
O618 Mn613 2.121 . S
O618 C626 1.258 . S
C619 N620 1.326 . S
C619 C623 1.460 . S
C619 H625 0.929 . S
N620 Mn613 2.257 . S
N620 C619 1.326 . S
N620 C624 1.362 . S
C621 C622 1.258 . S
C621 C624 1.431 . S
C621 C641 1.449 . S
C622 C621 1.258 . S
C622 C623 1.477 . S
C622 H642 0.931 . S
C623 C619 1.460 . S
C623 C622 1.477 . S
C623 H643 0.930 . S
C624 N620 1.362 . S
C624 C621 1.431 . S
C624 C634 1.476 . S
H625 C619 0.929 . S
C626 O617 1.250 . S
C626 O618 1.258 . S
O627 Mn612 2.162 . S
O627 C615 1.281 . S
O628 Mn612 2.297 . S
O628 C615 1.236 . S
N629 Mn613 2.282 . S
N629 C630 1.328 . S
N629 C634 1.318 . S
C630 N629 1.328 . S
C630 C631 1.457 . S
C630 H635 0.929 . S
C631 C630 1.457 . S
C631 C632 1.291 . S
C631 H644 0.931 . S
C632 C631 1.291 . S
C632 C633 1.373 . S
C632 H645 0.929 . S
C633 C632 1.373 . S
C633 C634 1.396 . S
C633 C640 1.403 . S
C634 C624 1.476 . S
C634 N629 1.318 . S
C634 C633 1.396 . S
H635 C630 0.929 . S
O636 Mn612 2.385 . S
O636 C614 1.234 . S
O637 Mn612 2.209 . S
O637 Mn613 2.215 . S
O637 C614 1.283 . S
O638 Mn612 2.094 . S
O638 C616 1.240 . S
O639 Mn613 2.117 . S
O639 C616 1.264 . S
C640 C633 1.403 . S
C640 C641 1.399 . S
C640 H646 0.929 . S
C641 C621 1.449 . S
C641 C640 1.399 . S
C641 H647 0.930 . S
H642 C622 0.931 . S
H643 C623 0.930 . S
H644 C631 0.931 . S
H645 C632 0.929 . S
H646 C640 0.929 . S
H647 C641 0.930 . S
Mn648 O653 2.095 . S
Mn648 O663 2.162 . S
Mn648 O664 2.297 . S
Mn648 O672 2.385 . S
Mn648 O673 2.209 . S
Mn648 O674 2.094 . S
Mn649 O654 2.121 . S
Mn649 N656 2.257 . S
Mn649 N665 2.282 . S
Mn649 O673 2.215 . S
Mn649 O675 2.117 . S
C650 O672 1.234 . S
C650 O673 1.283 . S
C651 O663 1.281 . S
C651 O664 1.236 . S
C652 O674 1.240 . S
C652 O675 1.264 . S
O653 Mn648 2.095 . S
O653 C662 1.250 . S
O654 Mn649 2.121 . S
O654 C662 1.258 . S
C655 N656 1.326 . S
C655 C659 1.460 . S
C655 H661 0.929 . S
N656 Mn649 2.257 . S
N656 C655 1.326 . S
N656 C660 1.362 . S
C657 C658 1.258 . S
C657 C660 1.431 . S
C657 C677 1.449 . S
C658 C657 1.258 . S
C658 C659 1.477 . S
C658 H678 0.931 . S
C659 C655 1.460 . S
C659 C658 1.477 . S
C659 H679 0.930 . S
C660 N656 1.362 . S
C660 C657 1.431 . S
C660 C670 1.476 . S
H661 C655 0.929 . S
C662 O653 1.250 . S
C662 O654 1.258 . S
O663 Mn648 2.162 . S
O663 C651 1.281 . S
O664 Mn648 2.297 . S
O664 C651 1.236 . S
N665 Mn649 2.282 . S
N665 C666 1.328 . S
N665 C670 1.318 . S
C666 N665 1.328 . S
C666 C667 1.457 . S
C666 H671 0.929 . S
C667 C666 1.457 . S
C667 C668 1.291 . S
C667 H680 0.931 . S
C668 C667 1.291 . S
C668 C669 1.373 . S
C668 H681 0.929 . S
C669 C668 1.373 . S
C669 C670 1.396 . S
C669 C676 1.403 . S
C670 C660 1.476 . S
C670 N665 1.318 . S
C670 C669 1.396 . S
H671 C666 0.929 . S
O672 Mn648 2.385 . S
O672 C650 1.234 . S
O673 Mn648 2.209 . S
O673 Mn649 2.215 . S
O673 C650 1.283 . S
O674 Mn648 2.094 . S
O674 C652 1.240 . S
O675 Mn649 2.117 . S
O675 C652 1.264 . S
C676 C669 1.403 . S
C676 C677 1.399 . S
C676 H682 0.929 . S
C677 C657 1.449 . S
C677 C676 1.399 . S
C677 H683 0.930 . S
H678 C658 0.931 . S
H679 C659 0.930 . S
H680 C667 0.931 . S
H681 C668 0.929 . S
H682 C676 0.929 . S
H683 C677 0.930 . S
Mn684 O689 2.095 . S
Mn684 O699 2.162 . S
Mn684 O700 2.297 . S
Mn684 O708 2.385 . S
Mn684 O709 2.209 . S
Mn684 O710 2.094 . S
Mn685 O690 2.121 . S
Mn685 N692 2.257 . S
Mn685 N701 2.282 . S
Mn685 O709 2.215 . S
Mn685 O711 2.117 . S
C686 O708 1.234 . S
C686 O709 1.283 . S
C687 O699 1.281 . S
C687 O700 1.236 . S
C688 O710 1.240 . S
C688 O711 1.264 . S
O689 Mn684 2.095 . S
O689 C698 1.250 . S
O690 Mn685 2.121 . S
O690 C698 1.258 . S
C691 N692 1.326 . S
C691 C695 1.460 . S
C691 H697 0.929 . S
N692 Mn685 2.257 . S
N692 C691 1.326 . S
N692 C696 1.362 . S
C693 C694 1.258 . S
C693 C696 1.431 . S
C693 C713 1.449 . S
C694 C693 1.258 . S
C694 C695 1.477 . S
C694 H714 0.931 . S
C695 C691 1.460 . S
C695 C694 1.477 . S
C695 H715 0.930 . S
C696 N692 1.362 . S
C696 C693 1.431 . S
C696 C706 1.476 . S
H697 C691 0.929 . S
C698 O689 1.250 . S
C698 O690 1.258 . S
O699 Mn684 2.162 . S
O699 C687 1.281 . S
O700 Mn684 2.297 . S
O700 C687 1.236 . S
N701 Mn685 2.282 . S
N701 C702 1.328 . S
N701 C706 1.318 . S
C702 N701 1.328 . S
C702 C703 1.457 . S
C702 H707 0.929 . S
C703 C702 1.457 . S
C703 C704 1.291 . S
C703 H716 0.931 . S
C704 C703 1.291 . S
C704 C705 1.373 . S
C704 H717 0.929 . S
C705 C704 1.373 . S
C705 C706 1.396 . S
C705 C712 1.403 . S
C706 C696 1.476 . S
C706 N701 1.318 . S
C706 C705 1.396 . S
H707 C702 0.929 . S
O708 Mn684 2.385 . S
O708 C686 1.234 . S
O709 Mn684 2.209 . S
O709 Mn685 2.215 . S
O709 C686 1.283 . S
O710 Mn684 2.094 . S
O710 C688 1.240 . S
O711 Mn685 2.117 . S
O711 C688 1.264 . S
C712 C705 1.403 . S
C712 C713 1.399 . S
C712 H718 0.929 . S
C713 C693 1.449 . S
C713 C712 1.399 . S
C713 H719 0.930 . S
H714 C694 0.931 . S
H715 C695 0.930 . S
H716 C703 0.931 . S
H717 C704 0.929 . S
H718 C712 0.929 . S
H719 C713 0.930 . S
Mn720 O725 2.095 . S
Mn720 O735 2.162 . S
Mn720 O736 2.297 . S
Mn720 O744 2.385 . S
Mn720 O745 2.209 . S
Mn720 O746 2.094 . S
Mn721 O726 2.121 . S
Mn721 N728 2.257 . S
Mn721 N737 2.282 . S
Mn721 O745 2.215 . S
Mn721 O747 2.117 . S
C722 O744 1.234 . S
C722 O745 1.283 . S
C723 O735 1.281 . S
C723 O736 1.236 . S
C724 O746 1.240 . S
C724 O747 1.264 . S
O725 Mn720 2.095 . S
O725 C734 1.250 . S
O726 Mn721 2.121 . S
O726 C734 1.258 . S
C727 N728 1.326 . S
C727 C731 1.460 . S
C727 H733 0.929 . S
N728 Mn721 2.257 . S
N728 C727 1.326 . S
N728 C732 1.362 . S
C729 C730 1.258 . S
C729 C732 1.431 . S
C729 C749 1.449 . S
C730 C729 1.258 . S
C730 C731 1.477 . S
C730 H750 0.931 . S
C731 C727 1.460 . S
C731 C730 1.477 . S
C731 H751 0.930 . S
C732 N728 1.362 . S
C732 C729 1.431 . S
C732 C742 1.476 . S
H733 C727 0.929 . S
C734 O725 1.250 . S
C734 O726 1.258 . S
O735 Mn720 2.162 . S
O735 C723 1.281 . S
O736 Mn720 2.297 . S
O736 C723 1.236 . S
N737 Mn721 2.282 . S
N737 C738 1.328 . S
N737 C742 1.318 . S
C738 N737 1.328 . S
C738 C739 1.457 . S
C738 H743 0.929 . S
C739 C738 1.457 . S
C739 C740 1.291 . S
C739 H752 0.931 . S
C740 C739 1.291 . S
C740 C741 1.373 . S
C740 H753 0.929 . S
C741 C740 1.373 . S
C741 C742 1.396 . S
C741 C748 1.403 . S
C742 C732 1.476 . S
C742 N737 1.318 . S
C742 C741 1.396 . S
H743 C738 0.929 . S
O744 Mn720 2.385 . S
O744 C722 1.234 . S
O745 Mn720 2.209 . S
O745 Mn721 2.215 . S
O745 C722 1.283 . S
O746 Mn720 2.094 . S
O746 C724 1.240 . S
O747 Mn721 2.117 . S
O747 C724 1.264 . S
C748 C741 1.403 . S
C748 C749 1.399 . S
C748 H754 0.929 . S
C749 C729 1.449 . S
C749 C748 1.399 . S
C749 H755 0.930 . S
H750 C730 0.931 . S
H751 C731 0.930 . S
H752 C739 0.931 . S
H753 C740 0.929 . S
H754 C748 0.929 . S
H755 C749 0.930 . S
Mn756 O761 2.095 . S
Mn756 O771 2.162 . S
Mn756 O772 2.297 . S
Mn756 O780 2.385 . S
Mn756 O781 2.209 . S
Mn756 O782 2.094 . S
Mn757 O762 2.121 . S
Mn757 N764 2.257 . S
Mn757 N773 2.282 . S
Mn757 O781 2.215 . S
Mn757 O783 2.117 . S
C758 O780 1.234 . S
C758 O781 1.283 . S
C759 O771 1.281 . S
C759 O772 1.236 . S
C760 O782 1.240 . S
C760 O783 1.264 . S
O761 Mn756 2.095 . S
O761 C770 1.250 . S
O762 Mn757 2.121 . S
O762 C770 1.258 . S
C763 N764 1.326 . S
C763 C767 1.460 . S
C763 H769 0.929 . S
N764 Mn757 2.257 . S
N764 C763 1.326 . S
N764 C768 1.362 . S
C765 C766 1.258 . S
C765 C768 1.431 . S
C765 C785 1.449 . S
C766 C765 1.258 . S
C766 C767 1.477 . S
C766 H786 0.931 . S
C767 C763 1.460 . S
C767 C766 1.477 . S
C767 H787 0.930 . S
C768 N764 1.362 . S
C768 C765 1.431 . S
C768 C778 1.476 . S
H769 C763 0.929 . S
C770 O761 1.250 . S
C770 O762 1.258 . S
O771 Mn756 2.162 . S
O771 C759 1.281 . S
O772 Mn756 2.297 . S
O772 C759 1.236 . S
N773 Mn757 2.282 . S
N773 C774 1.328 . S
N773 C778 1.318 . S
C774 N773 1.328 . S
C774 C775 1.457 . S
C774 H779 0.929 . S
C775 C774 1.457 . S
C775 C776 1.291 . S
C775 H788 0.931 . S
C776 C775 1.291 . S
C776 C777 1.373 . S
C776 H789 0.929 . S
C777 C776 1.373 . S
C777 C778 1.396 . S
C777 C784 1.403 . S
C778 C768 1.476 . S
C778 N773 1.318 . S
C778 C777 1.396 . S
H779 C774 0.929 . S
O780 Mn756 2.385 . S
O780 C758 1.234 . S
O781 Mn756 2.209 . S
O781 Mn757 2.215 . S
O781 C758 1.283 . S
O782 Mn756 2.094 . S
O782 C760 1.240 . S
O783 Mn757 2.117 . S
O783 C760 1.264 . S
C784 C777 1.403 . S
C784 C785 1.399 . S
C784 H790 0.929 . S
C785 C765 1.449 . S
C785 C784 1.399 . S
C785 H791 0.930 . S
H786 C766 0.931 . S
H787 C767 0.930 . S
H788 C775 0.931 . S
H789 C776 0.929 . S
H790 C784 0.929 . S
H791 C785 0.930 . S
Mn792 O797 2.095 . S
Mn792 O807 2.162 . S
Mn792 O808 2.297 . S
Mn792 O816 2.385 . S
Mn792 O817 2.209 . S
Mn792 O818 2.094 . S
Mn793 O798 2.121 . S
Mn793 N800 2.257 . S
Mn793 N809 2.282 . S
Mn793 O817 2.215 . S
Mn793 O819 2.117 . S
C794 O816 1.234 . S
C794 O817 1.283 . S
C795 O807 1.281 . S
C795 O808 1.236 . S
C796 O818 1.240 . S
C796 O819 1.264 . S
O797 Mn792 2.095 . S
O797 C806 1.250 . S
O798 Mn793 2.121 . S
O798 C806 1.258 . S
C799 N800 1.326 . S
C799 C803 1.460 . S
C799 H805 0.929 . S
N800 Mn793 2.257 . S
N800 C799 1.326 . S
N800 C804 1.362 . S
C801 C802 1.258 . S
C801 C804 1.431 . S
C801 C821 1.449 . S
C802 C801 1.258 . S
C802 C803 1.477 . S
C802 H822 0.931 . S
C803 C799 1.460 . S
C803 C802 1.477 . S
C803 H823 0.930 . S
C804 N800 1.362 . S
C804 C801 1.431 . S
C804 C814 1.476 . S
H805 C799 0.929 . S
C806 O797 1.250 . S
C806 O798 1.258 . S
O807 Mn792 2.162 . S
O807 C795 1.281 . S
O808 Mn792 2.297 . S
O808 C795 1.236 . S
N809 Mn793 2.282 . S
N809 C810 1.328 . S
N809 C814 1.318 . S
C810 N809 1.328 . S
C810 C811 1.457 . S
C810 H815 0.929 . S
C811 C810 1.457 . S
C811 C812 1.291 . S
C811 H824 0.931 . S
C812 C811 1.291 . S
C812 C813 1.373 . S
C812 H825 0.929 . S
C813 C812 1.373 . S
C813 C814 1.396 . S
C813 C820 1.403 . S
C814 C804 1.476 . S
C814 N809 1.318 . S
C814 C813 1.396 . S
H815 C810 0.929 . S
O816 Mn792 2.385 . S
O816 C794 1.234 . S
O817 Mn792 2.209 . S
O817 Mn793 2.215 . S
O817 C794 1.283 . S
O818 Mn792 2.094 . S
O818 C796 1.240 . S
O819 Mn793 2.117 . S
O819 C796 1.264 . S
C820 C813 1.403 . S
C820 C821 1.399 . S
C820 H826 0.929 . S
C821 C801 1.449 . S
C821 C820 1.399 . S
C821 H827 0.930 . S
H822 C802 0.931 . S
H823 C803 0.930 . S
H824 C811 0.931 . S
H825 C812 0.929 . S
H826 C820 0.929 . S
H827 C821 0.930 . S
Mn828 O833 2.095 . S
Mn828 O843 2.162 . S
Mn828 O844 2.297 . S
Mn828 O852 2.385 . S
Mn828 O853 2.209 . S
Mn828 O854 2.094 . S
Mn829 O834 2.121 . S
Mn829 N836 2.257 . S
Mn829 N845 2.282 . S
Mn829 O853 2.215 . S
Mn829 O855 2.117 . S
C830 O852 1.234 . S
C830 O853 1.283 . S
C831 O843 1.281 . S
C831 O844 1.236 . S
C832 O854 1.240 . S
C832 O855 1.264 . S
O833 Mn828 2.095 . S
O833 C842 1.250 . S
O834 Mn829 2.121 . S
O834 C842 1.258 . S
C835 N836 1.326 . S
C835 C839 1.460 . S
C835 H841 0.929 . S
N836 Mn829 2.257 . S
N836 C835 1.326 . S
N836 C840 1.362 . S
C837 C838 1.258 . S
C837 C840 1.431 . S
C837 C857 1.449 . S
C838 C837 1.258 . S
C838 C839 1.477 . S
C838 H858 0.931 . S
C839 C835 1.460 . S
C839 C838 1.477 . S
C839 H859 0.930 . S
C840 N836 1.362 . S
C840 C837 1.431 . S
C840 C850 1.476 . S
H841 C835 0.929 . S
C842 O833 1.250 . S
C842 O834 1.258 . S
O843 Mn828 2.162 . S
O843 C831 1.281 . S
O844 Mn828 2.297 . S
O844 C831 1.236 . S
N845 Mn829 2.282 . S
N845 C846 1.328 . S
N845 C850 1.318 . S
C846 N845 1.328 . S
C846 C847 1.457 . S
C846 H851 0.929 . S
C847 C846 1.457 . S
C847 C848 1.291 . S
C847 H860 0.931 . S
C848 C847 1.291 . S
C848 C849 1.373 . S
C848 H861 0.929 . S
C849 C848 1.373 . S
C849 C850 1.396 . S
C849 C856 1.403 . S
C850 C840 1.476 . S
C850 N845 1.318 . S
C850 C849 1.396 . S
H851 C846 0.929 . S
O852 Mn828 2.385 . S
O852 C830 1.234 . S
O853 Mn828 2.209 . S
O853 Mn829 2.215 . S
O853 C830 1.283 . S
O854 Mn828 2.094 . S
O854 C832 1.240 . S
O855 Mn829 2.117 . S
O855 C832 1.264 . S
C856 C849 1.403 . S
C856 C857 1.399 . S
C856 H862 0.929 . S
C857 C837 1.449 . S
C857 C856 1.399 . S
C857 H863 0.930 . S
H858 C838 0.931 . S
H859 C839 0.930 . S
H860 C847 0.931 . S
H861 C848 0.929 . S
H862 C856 0.929 . S
H863 C857 0.930 . S
H864 C870 0.930 . S
H865 C874 0.930 . S
H866 C879 0.929 . S
H867 C877 0.929 . S
H868 C872 0.929 . S
H869 C878 0.929 . S
C870 H864 0.930 . S
C870 C871 1.367 . S
C870 C878 1.378 . S
C871 C870 1.367 . S
C871 C879 1.433 . S
C872 H868 0.929 . S
C872 C874 1.378 . S
C872 C876 1.350 . S
C873 C876 1.463 . S
C873 C878 1.350 . S
C873 N881 1.427 . S
C874 H865 0.930 . S
C874 C872 1.378 . S
C874 C875 1.367 . S
C875 C874 1.367 . S
C875 C877 1.433 . S
C876 C872 1.350 . S
C876 C873 1.463 . S
C876 N880 1.427 . S
C877 H867 0.929 . S
C877 C875 1.433 . S
C877 N880 1.384 . S
C878 H869 0.929 . S
C878 C870 1.378 . S
C878 C873 1.350 . S
C879 H866 0.929 . S
C879 C871 1.433 . S
C879 N881 1.384 . S
N880 C876 1.427 . S
N880 C877 1.384 . S
N881 C873 1.427 . S
N881 C879 1.384 . S
H882 C888 0.930 . S
H883 C892 0.930 . S
H884 C897 0.929 . S
H885 C895 0.929 . S
H886 C890 0.929 . S
H887 C896 0.929 . S
C888 H882 0.930 . S
C888 C889 1.367 . S
C888 C896 1.378 . S
C889 C888 1.367 . S
C889 C897 1.433 . S
C890 H886 0.929 . S
C890 C892 1.378 . S
C890 C894 1.350 . S
C891 C894 1.463 . S
C891 C896 1.350 . S
C891 N899 1.427 . S
C892 H883 0.930 . S
C892 C890 1.378 . S
C892 C893 1.367 . S
C893 C892 1.367 . S
C893 C895 1.433 . S
C894 C890 1.350 . S
C894 C891 1.463 . S
C894 N898 1.427 . S
C895 H885 0.929 . S
C895 C893 1.433 . S
C895 N898 1.384 . S
C896 H887 0.929 . S
C896 C888 1.378 . S
C896 C891 1.350 . S
C897 H884 0.929 . S
C897 C889 1.433 . S
C897 N899 1.384 . S
N898 C894 1.427 . S
N898 C895 1.384 . S
N899 C891 1.427 . S
N899 C897 1.384 . S
H900 C906 0.930 . S
H901 C910 0.930 . S
H902 C915 0.929 . S
H903 C913 0.929 . S
H904 C908 0.929 . S
H905 C914 0.929 . S
C906 H900 0.930 . S
C906 C907 1.367 . S
C906 C914 1.378 . S
C907 C906 1.367 . S
C907 C915 1.433 . S
C908 H904 0.929 . S
C908 C910 1.378 . S
C908 C912 1.350 . S
C909 C912 1.463 . S
C909 C914 1.350 . S
C909 N917 1.427 . S
C910 H901 0.930 . S
C910 C908 1.378 . S
C910 C911 1.367 . S
C911 C910 1.367 . S
C911 C913 1.433 . S
C912 C908 1.350 . S
C912 C909 1.463 . S
C912 N916 1.427 . S
C913 H903 0.929 . S
C913 C911 1.433 . S
C913 N916 1.384 . S
C914 H905 0.929 . S
C914 C906 1.378 . S
C914 C909 1.350 . S
C915 H902 0.929 . S
C915 C907 1.433 . S
C915 N917 1.384 . S
N916 C912 1.427 . S
N916 C913 1.384 . S
N917 C909 1.427 . S
N917 C915 1.384 . S
H918 C924 0.930 . S
H919 C928 0.930 . S
H920 C933 0.929 . S
H921 C931 0.929 . S
H922 C926 0.929 . S
H923 C932 0.929 . S
C924 H918 0.930 . S
C924 C925 1.367 . S
C924 C932 1.378 . S
C925 C924 1.367 . S
C925 C933 1.433 . S
C926 H922 0.929 . S
C926 C928 1.378 . S
C926 C930 1.350 . S
C927 C930 1.463 . S
C927 C932 1.350 . S
C927 N935 1.427 . S
C928 H919 0.930 . S
C928 C926 1.378 . S
C928 C929 1.367 . S
C929 C928 1.367 . S
C929 C931 1.433 . S
C930 C926 1.350 . S
C930 C927 1.463 . S
C930 N934 1.427 . S
C931 H921 0.929 . S
C931 C929 1.433 . S
C931 N934 1.384 . S
C932 H923 0.929 . S
C932 C924 1.378 . S
C932 C927 1.350 . S
C933 H920 0.929 . S
C933 C925 1.433 . S
C933 N935 1.384 . S
N934 C930 1.427 . S
N934 C931 1.384 . S
N935 C927 1.427 . S
N935 C933 1.384 . S
H936 C942 0.930 . S
H937 C946 0.930 . S
H938 C951 0.929 . S
H939 C949 0.929 . S
H940 C944 0.929 . S
H941 C950 0.929 . S
C942 H936 0.930 . S
C942 C943 1.367 . S
C942 C950 1.378 . S
C943 C942 1.367 . S
C943 C951 1.433 . S
C944 H940 0.929 . S
C944 C946 1.378 . S
C944 C948 1.350 . S
C945 C948 1.463 . S
C945 C950 1.350 . S
C945 N953 1.427 . S
C946 H937 0.930 . S
C946 C944 1.378 . S
C946 C947 1.367 . S
C947 C946 1.367 . S
C947 C949 1.433 . S
C948 C944 1.350 . S
C948 C945 1.463 . S
C948 N952 1.427 . S
C949 H939 0.929 . S
C949 C947 1.433 . S
C949 N952 1.384 . S
C950 H941 0.929 . S
C950 C942 1.378 . S
C950 C945 1.350 . S
C951 H938 0.929 . S
C951 C943 1.433 . S
C951 N953 1.384 . S
N952 C948 1.427 . S
N952 C949 1.384 . S
N953 C945 1.427 . S
N953 C951 1.384 . S
H954 C960 0.930 . S
H955 C964 0.930 . S
H956 C969 0.929 . S
H957 C967 0.929 . S
H958 C962 0.929 . S
H959 C968 0.929 . S
C960 H954 0.930 . S
C960 C961 1.367 . S
C960 C968 1.378 . S
C961 C960 1.367 . S
C961 C969 1.433 . S
C962 H958 0.929 . S
C962 C964 1.378 . S
C962 C966 1.350 . S
C963 C966 1.463 . S
C963 C968 1.350 . S
C963 N971 1.427 . S
C964 H955 0.930 . S
C964 C962 1.378 . S
C964 C965 1.367 . S
C965 C964 1.367 . S
C965 C967 1.433 . S
C966 C962 1.350 . S
C966 C963 1.463 . S
C966 N970 1.427 . S
C967 H957 0.929 . S
C967 C965 1.433 . S
C967 N970 1.384 . S
C968 H959 0.929 . S
C968 C960 1.378 . S
C968 C963 1.350 . S
C969 H956 0.929 . S
C969 C961 1.433 . S
C969 N971 1.384 . S
N970 C966 1.427 . S
N970 C967 1.384 . S
N971 C963 1.427 . S
N971 C969 1.384 . S
H972 C978 0.930 . S
H973 C982 0.930 . S
H974 C987 0.929 . S
H975 C985 0.929 . S
H976 C980 0.929 . S
H977 C986 0.929 . S
C978 H972 0.930 . S
C978 C979 1.367 . S
C978 C986 1.378 . S
C979 C978 1.367 . S
C979 C987 1.433 . S
C980 H976 0.929 . S
C980 C982 1.378 . S
C980 C984 1.350 . S
C981 C984 1.463 . S
C981 C986 1.350 . S
C981 N989 1.427 . S
C982 H973 0.930 . S
C982 C980 1.378 . S
C982 C983 1.367 . S
C983 C982 1.367 . S
C983 C985 1.433 . S
C984 C980 1.350 . S
C984 C981 1.463 . S
C984 N988 1.427 . S
C985 H975 0.929 . S
C985 C983 1.433 . S
C985 N988 1.384 . S
C986 H977 0.929 . S
C986 C978 1.378 . S
C986 C981 1.350 . S
C987 H974 0.929 . S
C987 C979 1.433 . S
C987 N989 1.384 . S
N988 C984 1.427 . S
N988 C985 1.384 . S
N989 C981 1.427 . S
N989 C987 1.384 . S
H990 C996 0.930 . S
H991 C1000 0.930 . S
H992 C1005 0.929 . S
H993 C1003 0.929 . S
H994 C998 0.929 . S
H995 C1004 0.929 . S
C996 H990 0.930 . S
C996 C997 1.367 . S
C996 C1004 1.378 . S
C997 C996 1.367 . S
C997 C1005 1.433 . S
C998 H994 0.929 . S
C998 C1000 1.378 . S
C998 C1002 1.350 . S
C999 C1002 1.463 . S
C999 C1004 1.350 . S
C999 N1007 1.427 . S
C1000 H991 0.930 . S
C1000 C998 1.378 . S
C1000 C1001 1.367 . S
C1001 C1000 1.367 . S
C1001 C1003 1.433 . S
C1002 C998 1.350 . S
C1002 C999 1.463 . S
C1002 N1006 1.427 . S
C1003 H993 0.929 . S
C1003 C1001 1.433 . S
C1003 N1006 1.384 . S
C1004 H995 0.929 . S
C1004 C996 1.378 . S
C1004 C999 1.350 . S
C1005 H992 0.929 . S
C1005 C997 1.433 . S
C1005 N1007 1.384 . S
N1006 C1002 1.427 . S
N1006 C1003 1.384 . S
N1007 C999 1.427 . S
N1007 C1005 1.384 . S
H1008 C1014 0.930 . S
H1009 C1018 0.930 . S
H1010 C1023 0.929 . S
H1011 C1021 0.929 . S
H1012 C1016 0.929 . S
H1013 C1022 0.929 . S
C1014 H1008 0.930 . S
C1014 C1015 1.367 . S
C1014 C1022 1.378 . S
C1015 C1014 1.367 . S
C1015 C1023 1.433 . S
C1016 H1012 0.929 . S
C1016 C1018 1.378 . S
C1016 C1020 1.350 . S
C1017 C1020 1.463 . S
C1017 C1022 1.350 . S
C1017 N1025 1.427 . S
C1018 H1009 0.930 . S
C1018 C1016 1.378 . S
C1018 C1019 1.367 . S
C1019 C1018 1.367 . S
C1019 C1021 1.433 . S
C1020 C1016 1.350 . S
C1020 C1017 1.463 . S
C1020 N1024 1.427 . S
C1021 H1011 0.929 . S
C1021 C1019 1.433 . S
C1021 N1024 1.384 . S
C1022 H1013 0.929 . S
C1022 C1014 1.378 . S
C1022 C1017 1.350 . S
C1023 H1010 0.929 . S
C1023 C1015 1.433 . S
C1023 N1025 1.384 . S
N1024 C1020 1.427 . S
N1024 C1021 1.384 . S
N1025 C1017 1.427 . S
N1025 C1023 1.384 . S
H1026 C1032 0.930 . S
H1027 C1036 0.930 . S
H1028 C1041 0.929 . S
H1029 C1039 0.929 . S
H1030 C1034 0.929 . S
H1031 C1040 0.929 . S
C1032 H1026 0.930 . S
C1032 C1033 1.367 . S
C1032 C1040 1.378 . S
C1033 C1032 1.367 . S
C1033 C1041 1.433 . S
C1034 H1030 0.929 . S
C1034 C1036 1.378 . S
C1034 C1038 1.350 . S
C1035 C1038 1.463 . S
C1035 C1040 1.350 . S
C1035 N1043 1.427 . S
C1036 H1027 0.930 . S
C1036 C1034 1.378 . S
C1036 C1037 1.367 . S
C1037 C1036 1.367 . S
C1037 C1039 1.433 . S
C1038 C1034 1.350 . S
C1038 C1035 1.463 . S
C1038 N1042 1.427 . S
C1039 H1029 0.929 . S
C1039 C1037 1.433 . S
C1039 N1042 1.384 . S
C1040 H1031 0.929 . S
C1040 C1032 1.378 . S
C1040 C1035 1.350 . S
C1041 H1028 0.929 . S
C1041 C1033 1.433 . S
C1041 N1043 1.384 . S
N1042 C1038 1.427 . S
N1042 C1039 1.384 . S
N1043 C1035 1.427 . S
N1043 C1041 1.384 . S
H1044 C1050 0.930 . S
H1045 C1054 0.930 . S
H1046 C1059 0.929 . S
H1047 C1057 0.929 . S
H1048 C1052 0.929 . S
H1049 C1058 0.929 . S
C1050 H1044 0.930 . S
C1050 C1051 1.367 . S
C1050 C1058 1.378 . S
C1051 C1050 1.367 . S
C1051 C1059 1.433 . S
C1052 H1048 0.929 . S
C1052 C1054 1.378 . S
C1052 C1056 1.350 . S
C1053 C1056 1.463 . S
C1053 C1058 1.350 . S
C1053 N1061 1.427 . S
C1054 H1045 0.930 . S
C1054 C1052 1.378 . S
C1054 C1055 1.367 . S
C1055 C1054 1.367 . S
C1055 C1057 1.433 . S
C1056 C1052 1.350 . S
C1056 C1053 1.463 . S
C1056 N1060 1.427 . S
C1057 H1047 0.929 . S
C1057 C1055 1.433 . S
C1057 N1060 1.384 . S
C1058 H1049 0.929 . S
C1058 C1050 1.378 . S
C1058 C1053 1.350 . S
C1059 H1046 0.929 . S
C1059 C1051 1.433 . S
C1059 N1061 1.384 . S
N1060 C1056 1.427 . S
N1060 C1057 1.384 . S
N1061 C1053 1.427 . S
N1061 C1059 1.384 . S
H1062 C1068 0.930 . S
H1063 C1072 0.930 . S
H1064 C1077 0.929 . S
H1065 C1075 0.929 . S
H1066 C1070 0.929 . S
H1067 C1076 0.929 . S
C1068 H1062 0.930 . S
C1068 C1069 1.367 . S
C1068 C1076 1.378 . S
C1069 C1068 1.367 . S
C1069 C1077 1.433 . S
C1070 H1066 0.929 . S
C1070 C1072 1.378 . S
C1070 C1074 1.350 . S
C1071 C1074 1.463 . S
C1071 C1076 1.350 . S
C1071 N1079 1.427 . S
C1072 H1063 0.930 . S
C1072 C1070 1.378 . S
C1072 C1073 1.367 . S
C1073 C1072 1.367 . S
C1073 C1075 1.433 . S
C1074 C1070 1.350 . S
C1074 C1071 1.463 . S
C1074 N1078 1.427 . S
C1075 H1065 0.929 . S
C1075 C1073 1.433 . S
C1075 N1078 1.384 . S
C1076 H1067 0.929 . S
C1076 C1068 1.378 . S
C1076 C1071 1.350 . S
C1077 H1064 0.929 . S
C1077 C1069 1.433 . S
C1077 N1079 1.384 . S
N1078 C1074 1.427 . S
N1078 C1075 1.384 . S
N1079 C1071 1.427 . S
N1079 C1077 1.384 . S
H1080 C1086 0.930 . S
H1081 C1090 0.930 . S
H1082 C1095 0.929 . S
H1083 C1093 0.929 . S
H1084 C1088 0.929 . S
H1085 C1094 0.929 . S
C1086 H1080 0.930 . S
C1086 C1087 1.367 . S
C1086 C1094 1.378 . S
C1087 C1086 1.367 . S
C1087 C1095 1.433 . S
C1088 H1084 0.929 . S
C1088 C1090 1.378 . S
C1088 C1092 1.350 . S
C1089 C1092 1.463 . S
C1089 C1094 1.350 . S
C1089 N1097 1.427 . S
C1090 H1081 0.930 . S
C1090 C1088 1.378 . S
C1090 C1091 1.367 . S
C1091 C1090 1.367 . S
C1091 C1093 1.433 . S
C1092 C1088 1.350 . S
C1092 C1089 1.463 . S
C1092 N1096 1.427 . S
C1093 H1083 0.929 . S
C1093 C1091 1.433 . S
C1093 N1096 1.384 . S
C1094 H1085 0.929 . S
C1094 C1086 1.378 . S
C1094 C1089 1.350 . S
C1095 H1082 0.929 . S
C1095 C1087 1.433 . S
C1095 N1097 1.384 . S
N1096 C1092 1.427 . S
N1096 C1093 1.384 . S
N1097 C1089 1.427 . S
N1097 C1095 1.384 . S
H1098 C1104 0.930 . S
H1099 C1108 0.930 . S
H1100 C1113 0.929 . S
H1101 C1111 0.929 . S
H1102 C1106 0.929 . S
H1103 C1112 0.929 . S
C1104 H1098 0.930 . S
C1104 C1105 1.367 . S
C1104 C1112 1.378 . S
C1105 C1104 1.367 . S
C1105 C1113 1.433 . S
C1106 H1102 0.929 . S
C1106 C1108 1.378 . S
C1106 C1110 1.350 . S
C1107 C1110 1.463 . S
C1107 C1112 1.350 . S
C1107 N1115 1.427 . S
C1108 H1099 0.930 . S
C1108 C1106 1.378 . S
C1108 C1109 1.367 . S
C1109 C1108 1.367 . S
C1109 C1111 1.433 . S
C1110 C1106 1.350 . S
C1110 C1107 1.463 . S
C1110 N1114 1.427 . S
C1111 H1101 0.929 . S
C1111 C1109 1.433 . S
C1111 N1114 1.384 . S
C1112 H1103 0.929 . S
C1112 C1104 1.378 . S
C1112 C1107 1.350 . S
C1113 H1100 0.929 . S
C1113 C1105 1.433 . S
C1113 N1115 1.384 . S
N1114 C1110 1.427 . S
N1114 C1111 1.384 . S
N1115 C1107 1.427 . S
N1115 C1113 1.384 . S
H1116 C1122 0.930 . S
H1117 C1126 0.930 . S
H1118 C1131 0.929 . S
H1119 C1129 0.929 . S
H1120 C1124 0.929 . S
H1121 C1130 0.929 . S
C1122 H1116 0.930 . S
C1122 C1123 1.367 . S
C1122 C1130 1.378 . S
C1123 C1122 1.367 . S
C1123 C1131 1.433 . S
C1124 H1120 0.929 . S
C1124 C1126 1.378 . S
C1124 C1128 1.350 . S
C1125 C1128 1.463 . S
C1125 C1130 1.350 . S
C1125 N1133 1.427 . S
C1126 H1117 0.930 . S
C1126 C1124 1.378 . S
C1126 C1127 1.367 . S
C1127 C1126 1.367 . S
C1127 C1129 1.433 . S
C1128 C1124 1.350 . S
C1128 C1125 1.463 . S
C1128 N1132 1.427 . S
C1129 H1119 0.929 . S
C1129 C1127 1.433 . S
C1129 N1132 1.384 . S
C1130 H1121 0.929 . S
C1130 C1122 1.378 . S
C1130 C1125 1.350 . S
C1131 H1118 0.929 . S
C1131 C1123 1.433 . S
C1131 N1133 1.384 . S
N1132 C1128 1.427 . S
N1132 C1129 1.384 . S
N1133 C1125 1.427 . S
N1133 C1131 1.384 . S
H1134 C1140 0.930 . S
H1135 C1144 0.930 . S
H1136 C1149 0.929 . S
H1137 C1147 0.929 . S
H1138 C1142 0.929 . S
H1139 C1148 0.929 . S
C1140 H1134 0.930 . S
C1140 C1141 1.367 . S
C1140 C1148 1.378 . S
C1141 C1140 1.367 . S
C1141 C1149 1.433 . S
C1142 H1138 0.929 . S
C1142 C1144 1.378 . S
C1142 C1146 1.350 . S
C1143 C1146 1.463 . S
C1143 C1148 1.350 . S
C1143 N1151 1.427 . S
C1144 H1135 0.930 . S
C1144 C1142 1.378 . S
C1144 C1145 1.367 . S
C1145 C1144 1.367 . S
C1145 C1147 1.433 . S
C1146 C1142 1.350 . S
C1146 C1143 1.463 . S
C1146 N1150 1.427 . S
C1147 H1137 0.929 . S
C1147 C1145 1.433 . S
C1147 N1150 1.384 . S
C1148 H1139 0.929 . S
C1148 C1140 1.378 . S
C1148 C1143 1.350 . S
C1149 H1136 0.929 . S
C1149 C1141 1.433 . S
C1149 N1151 1.384 . S
N1150 C1146 1.427 . S
N1150 C1147 1.384 . S
N1151 C1143 1.427 . S
N1151 C1149 1.384 . S
H1152 C1158 0.930 . S
H1153 C1162 0.930 . S
H1154 C1167 0.929 . S
H1155 C1165 0.929 . S
H1156 C1160 0.929 . S
H1157 C1166 0.929 . S
C1158 H1152 0.930 . S
C1158 C1159 1.367 . S
C1158 C1166 1.378 . S
C1159 C1158 1.367 . S
C1159 C1167 1.433 . S
C1160 H1156 0.929 . S
C1160 C1162 1.378 . S
C1160 C1164 1.350 . S
C1161 C1164 1.463 . S
C1161 C1166 1.350 . S
C1161 N1169 1.427 . S
C1162 H1153 0.930 . S
C1162 C1160 1.378 . S
C1162 C1163 1.367 . S
C1163 C1162 1.367 . S
C1163 C1165 1.433 . S
C1164 C1160 1.350 . S
C1164 C1161 1.463 . S
C1164 N1168 1.427 . S
C1165 H1155 0.929 . S
C1165 C1163 1.433 . S
C1165 N1168 1.384 . S
C1166 H1157 0.929 . S
C1166 C1158 1.378 . S
C1166 C1161 1.350 . S
C1167 H1154 0.929 . S
C1167 C1159 1.433 . S
C1167 N1169 1.384 . S
N1168 C1164 1.427 . S
N1168 C1165 1.384 . S
N1169 C1161 1.427 . S
N1169 C1167 1.384 . S
H1170 C1176 0.930 . S
H1171 C1180 0.930 . S
H1172 C1185 0.929 . S
H1173 C1183 0.929 . S
H1174 C1178 0.929 . S
H1175 C1184 0.929 . S
C1176 H1170 0.930 . S
C1176 C1177 1.367 . S
C1176 C1184 1.378 . S
C1177 C1176 1.367 . S
C1177 C1185 1.433 . S
C1178 H1174 0.929 . S
C1178 C1180 1.378 . S
C1178 C1182 1.350 . S
C1179 C1182 1.463 . S
C1179 C1184 1.350 . S
C1179 N1187 1.427 . S
C1180 H1171 0.930 . S
C1180 C1178 1.378 . S
C1180 C1181 1.367 . S
C1181 C1180 1.367 . S
C1181 C1183 1.433 . S
C1182 C1178 1.350 . S
C1182 C1179 1.463 . S
C1182 N1186 1.427 . S
C1183 H1173 0.929 . S
C1183 C1181 1.433 . S
C1183 N1186 1.384 . S
C1184 H1175 0.929 . S
C1184 C1176 1.378 . S
C1184 C1179 1.350 . S
C1185 H1172 0.929 . S
C1185 C1177 1.433 . S
C1185 N1187 1.384 . S
N1186 C1182 1.427 . S
N1186 C1183 1.384 . S
N1187 C1179 1.427 . S
N1187 C1185 1.384 . S
H1188 C1194 0.930 . S
H1189 C1198 0.930 . S
H1190 C1203 0.929 . S
H1191 C1201 0.929 . S
H1192 C1196 0.929 . S
H1193 C1202 0.929 . S
C1194 H1188 0.930 . S
C1194 C1195 1.367 . S
C1194 C1202 1.378 . S
C1195 C1194 1.367 . S
C1195 C1203 1.433 . S
C1196 H1192 0.929 . S
C1196 C1198 1.378 . S
C1196 C1200 1.350 . S
C1197 C1200 1.463 . S
C1197 C1202 1.350 . S
C1197 N1205 1.427 . S
C1198 H1189 0.930 . S
C1198 C1196 1.378 . S
C1198 C1199 1.367 . S
C1199 C1198 1.367 . S
C1199 C1201 1.433 . S
C1200 C1196 1.350 . S
C1200 C1197 1.463 . S
C1200 N1204 1.427 . S
C1201 H1191 0.929 . S
C1201 C1199 1.433 . S
C1201 N1204 1.384 . S
C1202 H1193 0.929 . S
C1202 C1194 1.378 . S
C1202 C1197 1.350 . S
C1203 H1190 0.929 . S
C1203 C1195 1.433 . S
C1203 N1205 1.384 . S
N1204 C1200 1.427 . S
N1204 C1201 1.384 . S
N1205 C1197 1.427 . S
N1205 C1203 1.384 . S
H1206 C1212 0.930 . S
H1207 C1216 0.930 . S
H1208 C1221 0.929 . S
H1209 C1219 0.929 . S
H1210 C1214 0.929 . S
H1211 C1220 0.929 . S
C1212 H1206 0.930 . S
C1212 C1213 1.367 . S
C1212 C1220 1.378 . S
C1213 C1212 1.367 . S
C1213 C1221 1.433 . S
C1214 H1210 0.929 . S
C1214 C1216 1.378 . S
C1214 C1218 1.350 . S
C1215 C1218 1.463 . S
C1215 C1220 1.350 . S
C1215 N1223 1.427 . S
C1216 H1207 0.930 . S
C1216 C1214 1.378 . S
C1216 C1217 1.367 . S
C1217 C1216 1.367 . S
C1217 C1219 1.433 . S
C1218 C1214 1.350 . S
C1218 C1215 1.463 . S
C1218 N1222 1.427 . S
C1219 H1209 0.929 . S
C1219 C1217 1.433 . S
C1219 N1222 1.384 . S
C1220 H1211 0.929 . S
C1220 C1212 1.378 . S
C1220 C1215 1.350 . S
C1221 H1208 0.929 . S
C1221 C1213 1.433 . S
C1221 N1223 1.384 . S
N1222 C1218 1.427 . S
N1222 C1219 1.384 . S
N1223 C1215 1.427 . S
N1223 C1221 1.384 . S
H1224 C1230 0.930 . S
H1225 C1234 0.930 . S
H1226 C1239 0.929 . S
H1227 C1237 0.929 . S
H1228 C1232 0.929 . S
H1229 C1238 0.929 . S
C1230 H1224 0.930 . S
C1230 C1231 1.367 . S
C1230 C1238 1.378 . S
C1231 C1230 1.367 . S
C1231 C1239 1.433 . S
C1232 H1228 0.929 . S
C1232 C1234 1.378 . S
C1232 C1236 1.350 . S
C1233 C1236 1.463 . S
C1233 C1238 1.350 . S
C1233 N1241 1.427 . S
C1234 H1225 0.930 . S
C1234 C1232 1.378 . S
C1234 C1235 1.367 . S
C1235 C1234 1.367 . S
C1235 C1237 1.433 . S
C1236 C1232 1.350 . S
C1236 C1233 1.463 . S
C1236 N1240 1.427 . S
C1237 H1227 0.929 . S
C1237 C1235 1.433 . S
C1237 N1240 1.384 . S
C1238 H1229 0.929 . S
C1238 C1230 1.378 . S
C1238 C1233 1.350 . S
C1239 H1226 0.929 . S
C1239 C1231 1.433 . S
C1239 N1241 1.384 . S
N1240 C1236 1.427 . S
N1240 C1237 1.384 . S
N1241 C1233 1.427 . S
N1241 C1239 1.384 . S
H1242 C1248 0.930 . S
H1243 C1252 0.930 . S
H1244 C1257 0.929 . S
H1245 C1255 0.929 . S
H1246 C1250 0.929 . S
H1247 C1256 0.929 . S
C1248 H1242 0.930 . S
C1248 C1249 1.367 . S
C1248 C1256 1.378 . S
C1249 C1248 1.367 . S
C1249 C1257 1.433 . S
C1250 H1246 0.929 . S
C1250 C1252 1.378 . S
C1250 C1254 1.350 . S
C1251 C1254 1.463 . S
C1251 C1256 1.350 . S
C1251 N1259 1.427 . S
C1252 H1243 0.930 . S
C1252 C1250 1.378 . S
C1252 C1253 1.367 . S
C1253 C1252 1.367 . S
C1253 C1255 1.433 . S
C1254 C1250 1.350 . S
C1254 C1251 1.463 . S
C1254 N1258 1.427 . S
C1255 H1245 0.929 . S
C1255 C1253 1.433 . S
C1255 N1258 1.384 . S
C1256 H1247 0.929 . S
C1256 C1248 1.378 . S
C1256 C1251 1.350 . S
C1257 H1244 0.929 . S
C1257 C1249 1.433 . S
C1257 N1259 1.384 . S
N1258 C1254 1.427 . S
N1258 C1255 1.384 . S
N1259 C1251 1.427 . S
N1259 C1257 1.384 . S
H1260 C1266 0.930 . S
H1261 C1270 0.930 . S
H1262 C1275 0.929 . S
H1263 C1273 0.929 . S
H1264 C1268 0.929 . S
H1265 C1274 0.929 . S
C1266 H1260 0.930 . S
C1266 C1267 1.367 . S
C1266 C1274 1.378 . S
C1267 C1266 1.367 . S
C1267 C1275 1.433 . S
C1268 H1264 0.929 . S
C1268 C1270 1.378 . S
C1268 C1272 1.350 . S
C1269 C1272 1.463 . S
C1269 C1274 1.350 . S
C1269 N1277 1.427 . S
C1270 H1261 0.930 . S
C1270 C1268 1.378 . S
C1270 C1271 1.367 . S
C1271 C1270 1.367 . S
C1271 C1273 1.433 . S
C1272 C1268 1.350 . S
C1272 C1269 1.463 . S
C1272 N1276 1.427 . S
C1273 H1263 0.929 . S
C1273 C1271 1.433 . S
C1273 N1276 1.384 . S
C1274 H1265 0.929 . S
C1274 C1266 1.378 . S
C1274 C1269 1.350 . S
C1275 H1262 0.929 . S
C1275 C1267 1.433 . S
C1275 N1277 1.384 . S
N1276 C1272 1.427 . S
N1276 C1273 1.384 . S
N1277 C1269 1.427 . S
N1277 C1275 1.384 . S
H1278 C1284 0.930 . S
H1279 C1288 0.930 . S
H1280 C1293 0.929 . S
H1281 C1291 0.929 . S
H1282 C1286 0.929 . S
H1283 C1292 0.929 . S
C1284 H1278 0.930 . S
C1284 C1285 1.367 . S
C1284 C1292 1.378 . S
C1285 C1284 1.367 . S
C1285 C1293 1.433 . S
C1286 H1282 0.929 . S
C1286 C1288 1.378 . S
C1286 C1290 1.350 . S
C1287 C1290 1.463 . S
C1287 C1292 1.350 . S
C1287 N1295 1.427 . S
C1288 H1279 0.930 . S
C1288 C1286 1.378 . S
C1288 C1289 1.367 . S
C1289 C1288 1.367 . S
C1289 C1291 1.433 . S
C1290 C1286 1.350 . S
C1290 C1287 1.463 . S
C1290 N1294 1.427 . S
C1291 H1281 0.929 . S
C1291 C1289 1.433 . S
C1291 N1294 1.384 . S
C1292 H1283 0.929 . S
C1292 C1284 1.378 . S
C1292 C1287 1.350 . S
C1293 H1280 0.929 . S
C1293 C1285 1.433 . S
C1293 N1295 1.384 . S
N1294 C1290 1.427 . S
N1294 C1291 1.384 . S
N1295 C1287 1.427 . S
N1295 C1293 1.384 . S
H1296 C1302 0.930 . S
H1297 C1306 0.930 . S
H1298 C1311 0.929 . S
H1299 C1309 0.929 . S
H1300 C1304 0.929 . S
H1301 C1310 0.929 . S
C1302 H1296 0.930 . S
C1302 C1303 1.367 . S
C1302 C1310 1.378 . S
C1303 C1302 1.367 . S
C1303 C1311 1.433 . S
C1304 H1300 0.929 . S
C1304 C1306 1.378 . S
C1304 C1308 1.350 . S
C1305 C1308 1.463 1_455 S
C1305 C1310 1.350 . S
C1305 N1313 1.427 . S
C1306 H1297 0.930 . S
C1306 C1304 1.378 . S
C1306 C1307 1.367 . S
C1307 C1306 1.367 . S
C1307 C1309 1.433 . S
C1308 C1304 1.350 . S
C1308 C1305 1.463 1_655 S
C1308 N1312 1.427 . S
C1309 H1299 0.929 . S
C1309 C1307 1.433 . S
C1309 N1312 1.384 . S
C1310 H1301 0.929 . S
C1310 C1302 1.378 . S
C1310 C1305 1.350 . S
C1311 H1298 0.929 . S
C1311 C1303 1.433 . S
C1311 N1313 1.384 . S
N1312 C1308 1.427 . S
N1312 C1309 1.384 . S
N1313 C1305 1.427 . S
N1313 C1311 1.384 . S
H1314 C1320 0.930 . S
H1315 C1324 0.930 . S
H1316 C1329 0.929 . S
H1317 C1327 0.929 . S
H1318 C1322 0.929 . S
H1319 C1328 0.929 . S
C1320 H1314 0.930 . S
C1320 C1321 1.367 . S
C1320 C1328 1.378 . S
C1321 C1320 1.367 . S
C1321 C1329 1.433 . S
C1322 H1318 0.929 . S
C1322 C1324 1.378 . S
C1322 C1326 1.350 . S
C1323 C1326 1.463 1_545 S
C1323 C1328 1.350 . S
C1323 N1331 1.427 . S
C1324 H1315 0.930 . S
C1324 C1322 1.378 . S
C1324 C1325 1.367 . S
C1325 C1324 1.367 . S
C1325 C1327 1.433 . S
C1326 C1322 1.350 . S
C1326 C1323 1.463 1_565 S
C1326 N1330 1.427 . S
C1327 H1317 0.929 . S
C1327 C1325 1.433 . S
C1327 N1330 1.384 . S
C1328 H1319 0.929 . S
C1328 C1320 1.378 . S
C1328 C1323 1.350 . S
C1329 H1316 0.929 . S
C1329 C1321 1.433 . S
C1329 N1331 1.384 . S
N1330 C1326 1.427 . S
N1330 C1327 1.384 . S
N1331 C1323 1.427 . S
N1331 C1329 1.384 . S
H1332 C1338 0.930 . S
H1333 C1342 0.930 . S
H1334 C1347 0.929 . S
H1335 C1345 0.929 . S
H1336 C1340 0.929 . S
H1337 C1346 0.929 . S
C1338 H1332 0.930 . S
C1338 C1339 1.367 . S
C1338 C1346 1.378 . S
C1339 C1338 1.367 . S
C1339 C1347 1.433 . S
C1340 H1336 0.929 . S
C1340 C1342 1.378 . S
C1340 C1344 1.350 . S
C1341 C1344 1.463 1_655 S
C1341 C1346 1.350 . S
C1341 N1349 1.427 . S
C1342 H1333 0.930 . S
C1342 C1340 1.378 . S
C1342 C1343 1.367 . S
C1343 C1342 1.367 . S
C1343 C1345 1.433 . S
C1344 C1340 1.350 . S
C1344 C1341 1.463 1_455 S
C1344 N1348 1.427 . S
C1345 H1335 0.929 . S
C1345 C1343 1.433 . S
C1345 N1348 1.384 . S
C1346 H1337 0.929 . S
C1346 C1338 1.378 . S
C1346 C1341 1.350 . S
C1347 H1334 0.929 . S
C1347 C1339 1.433 . S
C1347 N1349 1.384 . S
N1348 C1344 1.427 . S
N1348 C1345 1.384 . S
N1349 C1341 1.427 . S
N1349 C1347 1.384 . S
H1350 C1356 0.930 . S
H1351 C1360 0.930 . S
H1352 C1365 0.929 . S
H1353 C1363 0.929 . S
H1354 C1358 0.929 . S
H1355 C1364 0.929 . S
C1356 H1350 0.930 . S
C1356 C1357 1.367 . S
C1356 C1364 1.378 . S
C1357 C1356 1.367 . S
C1357 C1365 1.433 . S
C1358 H1354 0.929 . S
C1358 C1360 1.378 . S
C1358 C1362 1.350 . S
C1359 C1362 1.463 1_545 S
C1359 C1364 1.350 . S
C1359 N1367 1.427 . S
C1360 H1351 0.930 . S
C1360 C1358 1.378 . S
C1360 C1361 1.367 . S
C1361 C1360 1.367 . S
C1361 C1363 1.433 . S
C1362 C1358 1.350 . S
C1362 C1359 1.463 1_565 S
C1362 N1366 1.427 . S
C1363 H1353 0.929 . S
C1363 C1361 1.433 . S
C1363 N1366 1.384 . S
C1364 H1355 0.929 . S
C1364 C1356 1.378 . S
C1364 C1359 1.350 . S
C1365 H1352 0.929 . S
C1365 C1357 1.433 . S
C1365 N1367 1.384 . S
N1366 C1362 1.427 . S
N1366 C1363 1.384 . S
N1367 C1359 1.427 . S
N1367 C1365 1.384 . S
H1368 C1374 0.930 . S
H1369 C1378 0.930 . S
H1370 C1383 0.929 . S
H1371 C1381 0.929 . S
H1372 C1376 0.929 . S
H1373 C1382 0.929 . S
C1374 H1368 0.930 . S
C1374 C1375 1.367 . S
C1374 C1382 1.378 . S
C1375 C1374 1.367 . S
C1375 C1383 1.433 . S
C1376 H1372 0.929 . S
C1376 C1378 1.378 . S
C1376 C1380 1.350 . S
C1377 C1380 1.463 1_565 S
C1377 C1382 1.350 . S
C1377 N1385 1.427 . S
C1378 H1369 0.930 . S
C1378 C1376 1.378 . S
C1378 C1379 1.367 . S
C1379 C1378 1.367 . S
C1379 C1381 1.433 . S
C1380 C1376 1.350 . S
C1380 C1377 1.463 1_545 S
C1380 N1384 1.427 . S
C1381 H1371 0.929 . S
C1381 C1379 1.433 . S
C1381 N1384 1.384 . S
C1382 H1373 0.929 . S
C1382 C1374 1.378 . S
C1382 C1377 1.350 . S
C1383 H1370 0.929 . S
C1383 C1375 1.433 . S
C1383 N1385 1.384 . S
N1384 C1380 1.427 . S
N1384 C1381 1.384 . S
N1385 C1377 1.427 . S
N1385 C1383 1.384 . S
H1386 C1392 0.930 . S
H1387 C1396 0.930 . S
H1388 C1401 0.929 . S
H1389 C1399 0.929 . S
H1390 C1394 0.929 . S
H1391 C1400 0.929 . S
C1392 H1386 0.930 . S
C1392 C1393 1.367 . S
C1392 C1400 1.378 . S
C1393 C1392 1.367 . S
C1393 C1401 1.433 . S
C1394 H1390 0.929 . S
C1394 C1396 1.378 . S
C1394 C1398 1.350 . S
C1395 C1398 1.463 1_655 S
C1395 C1400 1.350 . S
C1395 N1403 1.427 . S
C1396 H1387 0.930 . S
C1396 C1394 1.378 . S
C1396 C1397 1.367 . S
C1397 C1396 1.367 . S
C1397 C1399 1.433 . S
C1398 C1394 1.350 . S
C1398 C1395 1.463 1_455 S
C1398 N1402 1.427 . S
C1399 H1389 0.929 . S
C1399 C1397 1.433 . S
C1399 N1402 1.384 . S
C1400 H1391 0.929 . S
C1400 C1392 1.378 . S
C1400 C1395 1.350 . S
C1401 H1388 0.929 . S
C1401 C1393 1.433 . S
C1401 N1403 1.384 . S
N1402 C1398 1.427 . S
N1402 C1399 1.384 . S
N1403 C1395 1.427 . S
N1403 C1401 1.384 . S
H1404 C1410 0.930 . S
H1405 C1414 0.930 . S
H1406 C1419 0.929 . S
H1407 C1417 0.929 . S
H1408 C1412 0.929 . S
H1409 C1418 0.929 . S
C1410 H1404 0.930 . S
C1410 C1411 1.367 . S
C1410 C1418 1.378 . S
C1411 C1410 1.367 . S
C1411 C1419 1.433 . S
C1412 H1408 0.929 . S
C1412 C1414 1.378 . S
C1412 C1416 1.350 . S
C1413 C1416 1.463 1_565 S
C1413 C1418 1.350 . S
C1413 N1421 1.427 . S
C1414 H1405 0.930 . S
C1414 C1412 1.378 . S
C1414 C1415 1.367 . S
C1415 C1414 1.367 . S
C1415 C1417 1.433 . S
C1416 C1412 1.350 . S
C1416 C1413 1.463 1_545 S
C1416 N1420 1.427 . S
C1417 H1407 0.929 . S
C1417 C1415 1.433 . S
C1417 N1420 1.384 . S
C1418 H1409 0.929 . S
C1418 C1410 1.378 . S
C1418 C1413 1.350 . S
C1419 H1406 0.929 . S
C1419 C1411 1.433 . S
C1419 N1421 1.384 . S
N1420 C1416 1.427 . S
N1420 C1417 1.384 . S
N1421 C1413 1.427 . S
N1421 C1419 1.384 . S
H1422 C1428 0.930 . S
H1423 C1432 0.930 . S
H1424 C1437 0.929 . S
H1425 C1435 0.929 . S
H1426 C1430 0.929 . S
H1427 C1436 0.929 . S
C1428 H1422 0.930 . S
C1428 C1429 1.367 . S
C1428 C1436 1.378 . S
C1429 C1428 1.367 . S
C1429 C1437 1.433 . S
C1430 H1426 0.929 . S
C1430 C1432 1.378 . S
C1430 C1434 1.350 . S
C1431 C1434 1.463 1_655 S
C1431 C1436 1.350 . S
C1431 N1439 1.427 . S
C1432 H1423 0.930 . S
C1432 C1430 1.378 . S
C1432 C1433 1.367 . S
C1433 C1432 1.367 . S
C1433 C1435 1.433 . S
C1434 C1430 1.350 . S
C1434 C1431 1.463 1_455 S
C1434 N1438 1.427 . S
C1435 H1425 0.929 . S
C1435 C1433 1.433 . S
C1435 N1438 1.384 . S
C1436 H1427 0.929 . S
C1436 C1428 1.378 . S
C1436 C1431 1.350 . S
C1437 H1424 0.929 . S
C1437 C1429 1.433 . S
C1437 N1439 1.384 . S
N1438 C1434 1.427 . S
N1438 C1435 1.384 . S
N1439 C1431 1.427 . S
N1439 C1437 1.384 . S
H1440 C1446 0.930 . S
H1441 C1450 0.930 . S
H1442 C1455 0.929 . S
H1443 C1453 0.929 . S
H1444 C1448 0.929 . S
H1445 C1454 0.929 . S
C1446 H1440 0.930 . S
C1446 C1447 1.367 . S
C1446 C1454 1.378 . S
C1447 C1446 1.367 . S
C1447 C1455 1.433 . S
C1448 H1444 0.929 . S
C1448 C1450 1.378 . S
C1448 C1452 1.350 . S
C1449 C1452 1.463 1_556 S
C1449 C1454 1.350 . S
C1449 N1457 1.427 . S
C1450 H1441 0.930 . S
C1450 C1448 1.378 . S
C1450 C1451 1.367 . S
C1451 C1450 1.367 . S
C1451 C1453 1.433 . S
C1452 C1448 1.350 . S
C1452 C1449 1.463 1_554 S
C1452 N1456 1.427 . S
C1453 H1443 0.929 . S
C1453 C1451 1.433 . S
C1453 N1456 1.384 . S
C1454 H1445 0.929 . S
C1454 C1446 1.378 . S
C1454 C1449 1.350 . S
C1455 H1442 0.929 . S
C1455 C1447 1.433 . S
C1455 N1457 1.384 . S
N1456 C1452 1.427 . S
N1456 C1453 1.384 . S
N1457 C1449 1.427 . S
N1457 C1455 1.384 . S
H1458 C1464 0.930 . S
H1459 C1468 0.930 . S
H1460 C1473 0.929 . S
H1461 C1471 0.929 . S
H1462 C1466 0.929 . S
H1463 C1472 0.929 . S
C1464 H1458 0.930 . S
C1464 C1465 1.367 . S
C1464 C1472 1.378 . S
C1465 C1464 1.367 . S
C1465 C1473 1.433 . S
C1466 H1462 0.929 . S
C1466 C1468 1.378 . S
C1466 C1470 1.350 . S
C1467 C1470 1.463 1_556 S
C1467 C1472 1.350 . S
C1467 N1475 1.427 . S
C1468 H1459 0.930 . S
C1468 C1466 1.378 . S
C1468 C1469 1.367 . S
C1469 C1468 1.367 . S
C1469 C1471 1.433 . S
C1470 C1466 1.350 . S
C1470 C1467 1.463 1_554 S
C1470 N1474 1.427 . S
C1471 H1461 0.929 . S
C1471 C1469 1.433 . S
C1471 N1474 1.384 . S
C1472 H1463 0.929 . S
C1472 C1464 1.378 . S
C1472 C1467 1.350 . S
C1473 H1460 0.929 . S
C1473 C1465 1.433 . S
C1473 N1475 1.384 . S
N1474 C1470 1.427 . S
N1474 C1471 1.384 . S
N1475 C1467 1.427 . S
N1475 C1473 1.384 . S
H1476 C1482 0.930 . S
H1477 C1486 0.930 . S
H1478 C1491 0.929 . S
H1479 C1489 0.929 . S
H1480 C1484 0.929 . S
H1481 C1490 0.929 . S
C1482 H1476 0.930 . S
C1482 C1483 1.367 . S
C1482 C1490 1.378 . S
C1483 C1482 1.367 . S
C1483 C1491 1.433 . S
C1484 H1480 0.929 . S
C1484 C1486 1.378 . S
C1484 C1488 1.350 . S
C1485 C1488 1.463 1_556 S
C1485 C1490 1.350 . S
C1485 N1493 1.427 . S
C1486 H1477 0.930 . S
C1486 C1484 1.378 . S
C1486 C1487 1.367 . S
C1487 C1486 1.367 . S
C1487 C1489 1.433 . S
C1488 C1484 1.350 . S
C1488 C1485 1.463 1_554 S
C1488 N1492 1.427 . S
C1489 H1479 0.929 . S
C1489 C1487 1.433 . S
C1489 N1492 1.384 . S
C1490 H1481 0.929 . S
C1490 C1482 1.378 . S
C1490 C1485 1.350 . S
C1491 H1478 0.929 . S
C1491 C1483 1.433 . S
C1491 N1493 1.384 . S
N1492 C1488 1.427 . S
N1492 C1489 1.384 . S
N1493 C1485 1.427 . S
N1493 C1491 1.384 . S
H1494 C1500 0.930 . S
H1495 C1504 0.930 . S
H1496 C1509 0.929 . S
H1497 C1507 0.929 . S
H1498 C1502 0.929 . S
H1499 C1508 0.929 . S
C1500 H1494 0.930 . S
C1500 C1501 1.367 . S
C1500 C1508 1.378 . S
C1501 C1500 1.367 . S
C1501 C1509 1.433 . S
C1502 H1498 0.929 . S
C1502 C1504 1.378 . S
C1502 C1506 1.350 . S
C1503 C1506 1.463 1_556 S
C1503 C1508 1.350 . S
C1503 N1511 1.427 . S
C1504 H1495 0.930 . S
C1504 C1502 1.378 . S
C1504 C1505 1.367 . S
C1505 C1504 1.367 . S
C1505 C1507 1.433 . S
C1506 C1502 1.350 . S
C1506 C1503 1.463 1_554 S
C1506 N1510 1.427 . S
C1507 H1497 0.929 . S
C1507 C1505 1.433 . S
C1507 N1510 1.384 . S
C1508 H1499 0.929 . S
C1508 C1500 1.378 . S
C1508 C1503 1.350 . S
C1509 H1496 0.929 . S
C1509 C1501 1.433 . S
C1509 N1511 1.384 . S
N1510 C1506 1.427 . S
N1510 C1507 1.384 . S
N1511 C1503 1.427 . S
N1511 C1509 1.384 . S
H1512 C1518 0.930 . S
H1513 C1522 0.930 . S
H1514 C1527 0.929 . S
H1515 C1525 0.929 . S
H1516 C1520 0.929 . S
H1517 C1526 0.929 . S
C1518 H1512 0.930 . S
C1518 C1519 1.367 . S
C1518 C1526 1.378 . S
C1519 C1518 1.367 . S
C1519 C1527 1.433 . S
C1520 H1516 0.929 . S
C1520 C1522 1.378 . S
C1520 C1524 1.350 . S
C1521 C1524 1.463 . S
C1521 C1526 1.350 . S
C1521 N1529 1.427 . S
C1522 H1513 0.930 . S
C1522 C1520 1.378 . S
C1522 C1523 1.367 . S
C1523 C1522 1.367 . S
C1523 C1525 1.433 . S
C1524 C1520 1.350 . S
C1524 C1521 1.463 . S
C1524 N1528 1.427 . S
C1525 H1515 0.929 . S
C1525 C1523 1.433 . S
C1525 N1528 1.384 . S
C1526 H1517 0.929 . S
C1526 C1518 1.378 . S
C1526 C1521 1.350 . S
C1527 H1514 0.929 . S
C1527 C1519 1.433 . S
C1527 N1529 1.384 . S
N1528 C1524 1.427 . S
N1528 C1525 1.384 . S
N1529 C1521 1.427 . S
N1529 C1527 1.384 . S
H1530 C1536 0.930 . S
H1531 C1540 0.930 . S
H1532 C1545 0.929 . S
H1533 C1543 0.929 . S
H1534 C1538 0.929 . S
H1535 C1544 0.929 . S
C1536 H1530 0.930 . S
C1536 C1537 1.367 . S
C1536 C1544 1.378 . S
C1537 C1536 1.367 . S
C1537 C1545 1.433 . S
C1538 H1534 0.929 . S
C1538 C1540 1.378 . S
C1538 C1542 1.350 . S
C1539 C1542 1.463 . S
C1539 C1544 1.350 . S
C1539 N1547 1.427 . S
C1540 H1531 0.930 . S
C1540 C1538 1.378 . S
C1540 C1541 1.367 . S
C1541 C1540 1.367 . S
C1541 C1543 1.433 . S
C1542 C1538 1.350 . S
C1542 C1539 1.463 . S
C1542 N1546 1.427 . S
C1543 H1533 0.929 . S
C1543 C1541 1.433 . S
C1543 N1546 1.384 . S
C1544 H1535 0.929 . S
C1544 C1536 1.378 . S
C1544 C1539 1.350 . S
C1545 H1532 0.929 . S
C1545 C1537 1.433 . S
C1545 N1547 1.384 . S
N1546 C1542 1.427 . S
N1546 C1543 1.384 . S
N1547 C1539 1.427 . S
N1547 C1545 1.384 . S
H1548 C1554 0.930 . S
H1549 C1558 0.930 . S
H1550 C1563 0.929 . S
H1551 C1561 0.929 . S
H1552 C1556 0.929 . S
H1553 C1562 0.929 . S
C1554 H1548 0.930 . S
C1554 C1555 1.367 . S
C1554 C1562 1.378 . S
C1555 C1554 1.367 . S
C1555 C1563 1.433 . S
C1556 H1552 0.929 . S
C1556 C1558 1.378 . S
C1556 C1560 1.350 . S
C1557 C1560 1.463 . S
C1557 C1562 1.350 . S
C1557 N1565 1.427 . S
C1558 H1549 0.930 . S
C1558 C1556 1.378 . S
C1558 C1559 1.367 . S
C1559 C1558 1.367 . S
C1559 C1561 1.433 . S
C1560 C1556 1.350 . S
C1560 C1557 1.463 . S
C1560 N1564 1.427 . S
C1561 H1551 0.929 . S
C1561 C1559 1.433 . S
C1561 N1564 1.384 . S
C1562 H1553 0.929 . S
C1562 C1554 1.378 . S
C1562 C1557 1.350 . S
C1563 H1550 0.929 . S
C1563 C1555 1.433 . S
C1563 N1565 1.384 . S
N1564 C1560 1.427 . S
N1564 C1561 1.384 . S
N1565 C1557 1.427 . S
N1565 C1563 1.384 . S
H1566 C1572 0.930 . S
H1567 C1576 0.930 . S
H1568 C1581 0.929 . S
H1569 C1579 0.929 . S
H1570 C1574 0.929 . S
H1571 C1580 0.929 . S
C1572 H1566 0.930 . S
C1572 C1573 1.367 . S
C1572 C1580 1.378 . S
C1573 C1572 1.367 . S
C1573 C1581 1.433 . S
C1574 H1570 0.929 . S
C1574 C1576 1.378 . S
C1574 C1578 1.350 . S
C1575 C1578 1.463 . S
C1575 C1580 1.350 . S
C1575 N1583 1.427 . S
C1576 H1567 0.930 . S
C1576 C1574 1.378 . S
C1576 C1577 1.367 . S
C1577 C1576 1.367 . S
C1577 C1579 1.433 . S
C1578 C1574 1.350 . S
C1578 C1575 1.463 . S
C1578 N1582 1.427 . S
C1579 H1569 0.929 . S
C1579 C1577 1.433 . S
C1579 N1582 1.384 . S
C1580 H1571 0.929 . S
C1580 C1572 1.378 . S
C1580 C1575 1.350 . S
C1581 H1568 0.929 . S
C1581 C1573 1.433 . S
C1581 N1583 1.384 . S
N1582 C1578 1.427 . S
N1582 C1579 1.384 . S
N1583 C1575 1.427 . S
N1583 C1581 1.384 . S
H1584 C1590 0.930 . S
H1585 C1594 0.930 . S
H1586 C1599 0.929 . S
H1587 C1597 0.929 . S
H1588 C1592 0.929 . S
H1589 C1598 0.929 . S
C1590 H1584 0.930 . S
C1590 C1591 1.367 . S
C1590 C1598 1.378 . S
C1591 C1590 1.367 . S
C1591 C1599 1.433 . S
C1592 H1588 0.929 . S
C1592 C1594 1.378 . S
C1592 C1596 1.350 . S
C1593 C1596 1.463 . S
C1593 C1598 1.350 . S
C1593 N1601 1.427 . S
C1594 H1585 0.930 . S
C1594 C1592 1.378 . S
C1594 C1595 1.367 . S
C1595 C1594 1.367 . S
C1595 C1597 1.433 . S
C1596 C1592 1.350 . S
C1596 C1593 1.463 . S
C1596 N1600 1.427 . S
C1597 H1587 0.929 . S
C1597 C1595 1.433 . S
C1597 N1600 1.384 . S
C1598 H1589 0.929 . S
C1598 C1590 1.378 . S
C1598 C1593 1.350 . S
C1599 H1586 0.929 . S
C1599 C1591 1.433 . S
C1599 N1601 1.384 . S
N1600 C1596 1.427 . S
N1600 C1597 1.384 . S
N1601 C1593 1.427 . S
N1601 C1599 1.384 . S
H1602 C1608 0.930 . S
H1603 C1612 0.930 . S
H1604 C1617 0.929 . S
H1605 C1615 0.929 . S
H1606 C1610 0.929 . S
H1607 C1616 0.929 . S
C1608 H1602 0.930 . S
C1608 C1609 1.367 . S
C1608 C1616 1.378 . S
C1609 C1608 1.367 . S
C1609 C1617 1.433 . S
C1610 H1606 0.929 . S
C1610 C1612 1.378 . S
C1610 C1614 1.350 . S
C1611 C1614 1.463 . S
C1611 C1616 1.350 . S
C1611 N1619 1.427 . S
C1612 H1603 0.930 . S
C1612 C1610 1.378 . S
C1612 C1613 1.367 . S
C1613 C1612 1.367 . S
C1613 C1615 1.433 . S
C1614 C1610 1.350 . S
C1614 C1611 1.463 . S
C1614 N1618 1.427 . S
C1615 H1605 0.929 . S
C1615 C1613 1.433 . S
C1615 N1618 1.384 . S
C1616 H1607 0.929 . S
C1616 C1608 1.378 . S
C1616 C1611 1.350 . S
C1617 H1604 0.929 . S
C1617 C1609 1.433 . S
C1617 N1619 1.384 . S
N1618 C1614 1.427 . S
N1618 C1615 1.384 . S
N1619 C1611 1.427 . S
N1619 C1617 1.384 . S
H1620 C1626 0.930 . S
H1621 C1630 0.930 . S
H1622 C1635 0.929 . S
H1623 C1633 0.929 . S
H1624 C1628 0.929 . S
H1625 C1634 0.929 . S
C1626 H1620 0.930 . S
C1626 C1627 1.367 . S
C1626 C1634 1.378 . S
C1627 C1626 1.367 . S
C1627 C1635 1.433 . S
C1628 H1624 0.929 . S
C1628 C1630 1.378 . S
C1628 C1632 1.350 . S
C1629 C1632 1.463 . S
C1629 C1634 1.350 . S
C1629 N1637 1.427 . S
C1630 H1621 0.930 . S
C1630 C1628 1.378 . S
C1630 C1631 1.367 . S
C1631 C1630 1.367 . S
C1631 C1633 1.433 . S
C1632 C1628 1.350 . S
C1632 C1629 1.463 . S
C1632 N1636 1.427 . S
C1633 H1623 0.929 . S
C1633 C1631 1.433 . S
C1633 N1636 1.384 . S
C1634 H1625 0.929 . S
C1634 C1626 1.378 . S
C1634 C1629 1.350 . S
C1635 H1622 0.929 . S
C1635 C1627 1.433 . S
C1635 N1637 1.384 . S
N1636 C1632 1.427 . S
N1636 C1633 1.384 . S
N1637 C1629 1.427 . S
N1637 C1635 1.384 . S
H1638 C1644 0.930 . S
H1639 C1648 0.930 . S
H1640 C1653 0.929 . S
H1641 C1651 0.929 . S
H1642 C1646 0.929 . S
H1643 C1652 0.929 . S
C1644 H1638 0.930 . S
C1644 C1645 1.367 . S
C1644 C1652 1.378 . S
C1645 C1644 1.367 . S
C1645 C1653 1.433 . S
C1646 H1642 0.929 . S
C1646 C1648 1.378 . S
C1646 C1650 1.350 . S
C1647 C1650 1.463 . S
C1647 C1652 1.350 . S
C1647 N1655 1.427 . S
C1648 H1639 0.930 . S
C1648 C1646 1.378 . S
C1648 C1649 1.367 . S
C1649 C1648 1.367 . S
C1649 C1651 1.433 . S
C1650 C1646 1.350 . S
C1650 C1647 1.463 . S
C1650 N1654 1.427 . S
C1651 H1641 0.929 . S
C1651 C1649 1.433 . S
C1651 N1654 1.384 . S
C1652 H1643 0.929 . S
C1652 C1644 1.378 . S
C1652 C1647 1.350 . S
C1653 H1640 0.929 . S
C1653 C1645 1.433 . S
C1653 N1655 1.384 . S
N1654 C1650 1.427 . S
N1654 C1651 1.384 . S
N1655 C1647 1.427 . S
N1655 C1653 1.384 . S
H1656 C1662 0.930 . S
H1657 C1666 0.930 . S
H1658 C1671 0.929 . S
H1659 C1669 0.929 . S
H1660 C1664 0.929 . S
H1661 C1670 0.929 . S
C1662 H1656 0.930 . S
C1662 C1663 1.367 . S
C1662 C1670 1.378 . S
C1663 C1662 1.367 . S
C1663 C1671 1.433 . S
C1664 H1660 0.929 . S
C1664 C1666 1.378 . S
C1664 C1668 1.350 . S
C1665 C1668 1.463 . S
C1665 C1670 1.350 . S
C1665 N1673 1.427 . S
C1666 H1657 0.930 . S
C1666 C1664 1.378 . S
C1666 C1667 1.367 . S
C1667 C1666 1.367 . S
C1667 C1669 1.433 . S
C1668 C1664 1.350 . S
C1668 C1665 1.463 . S
C1668 N1672 1.427 . S
C1669 H1659 0.929 . S
C1669 C1667 1.433 . S
C1669 N1672 1.384 . S
C1670 H1661 0.929 . S
C1670 C1662 1.378 . S
C1670 C1665 1.350 . S
C1671 H1658 0.929 . S
C1671 C1663 1.433 . S
C1671 N1673 1.384 . S
N1672 C1668 1.427 . S
N1672 C1669 1.384 . S
N1673 C1665 1.427 . S
N1673 C1671 1.384 . S
H1674 C1680 0.930 . S
H1675 C1684 0.930 . S
H1676 C1689 0.929 . S
H1677 C1687 0.929 . S
H1678 C1682 0.929 . S
H1679 C1688 0.929 . S
C1680 H1674 0.930 . S
C1680 C1681 1.367 . S
C1680 C1688 1.378 . S
C1681 C1680 1.367 . S
C1681 C1689 1.433 . S
C1682 H1678 0.929 . S
C1682 C1684 1.378 . S
C1682 C1686 1.350 . S
C1683 C1686 1.463 . S
C1683 C1688 1.350 . S
C1683 N1691 1.427 . S
C1684 H1675 0.930 . S
C1684 C1682 1.378 . S
C1684 C1685 1.367 . S
C1685 C1684 1.367 . S
C1685 C1687 1.433 . S
C1686 C1682 1.350 . S
C1686 C1683 1.463 . S
C1686 N1690 1.427 . S
C1687 H1677 0.929 . S
C1687 C1685 1.433 . S
C1687 N1690 1.384 . S
C1688 H1679 0.929 . S
C1688 C1680 1.378 . S
C1688 C1683 1.350 . S
C1689 H1676 0.929 . S
C1689 C1681 1.433 . S
C1689 N1691 1.384 . S
N1690 C1686 1.427 . S
N1690 C1687 1.384 . S
N1691 C1683 1.427 . S
N1691 C1689 1.384 . S
H1692 C1698 0.930 . S
H1693 C1702 0.930 . S
H1694 C1707 0.929 . S
H1695 C1705 0.929 . S
H1696 C1700 0.929 . S
H1697 C1706 0.929 . S
C1698 H1692 0.930 . S
C1698 C1699 1.367 . S
C1698 C1706 1.378 . S
C1699 C1698 1.367 . S
C1699 C1707 1.433 . S
C1700 H1696 0.929 . S
C1700 C1702 1.378 . S
C1700 C1704 1.350 . S
C1701 C1704 1.463 . S
C1701 C1706 1.350 . S
C1701 N1709 1.427 . S
C1702 H1693 0.930 . S
C1702 C1700 1.378 . S
C1702 C1703 1.367 . S
C1703 C1702 1.367 . S
C1703 C1705 1.433 . S
C1704 C1700 1.350 . S
C1704 C1701 1.463 . S
C1704 N1708 1.427 . S
C1705 H1695 0.929 . S
C1705 C1703 1.433 . S
C1705 N1708 1.384 . S
C1706 H1697 0.929 . S
C1706 C1698 1.378 . S
C1706 C1701 1.350 . S
C1707 H1694 0.929 . S
C1707 C1699 1.433 . S
C1707 N1709 1.384 . S
N1708 C1704 1.427 . S
N1708 C1705 1.384 . S
N1709 C1701 1.427 . S
N1709 C1707 1.384 . S
H1710 C1716 0.930 . S
H1711 C1720 0.930 . S
H1712 C1725 0.929 . S
H1713 C1723 0.929 . S
H1714 C1718 0.929 . S
H1715 C1724 0.929 . S
C1716 H1710 0.930 . S
C1716 C1717 1.367 . S
C1716 C1724 1.378 . S
C1717 C1716 1.367 . S
C1717 C1725 1.433 . S
C1718 H1714 0.929 . S
C1718 C1720 1.378 . S
C1718 C1722 1.350 . S
C1719 C1722 1.463 . S
C1719 C1724 1.350 . S
C1719 N1727 1.427 . S
C1720 H1711 0.930 . S
C1720 C1718 1.378 . S
C1720 C1721 1.367 . S
C1721 C1720 1.367 . S
C1721 C1723 1.433 . S
C1722 C1718 1.350 . S
C1722 C1719 1.463 . S
C1722 N1726 1.427 . S
C1723 H1713 0.929 . S
C1723 C1721 1.433 . S
C1723 N1726 1.384 . S
C1724 H1715 0.929 . S
C1724 C1716 1.378 . S
C1724 C1719 1.350 . S
C1725 H1712 0.929 . S
C1725 C1717 1.433 . S
C1725 N1727 1.384 . S
N1726 C1722 1.427 . S
N1726 C1723 1.384 . S
N1727 C1719 1.427 . S
N1727 C1725 1.384 . S
C871 C398 1.426 . S
C875 C14 1.382 . S
C889 C50 1.376 . S
C893 C290 1.421 . S
C907 C86 1.372 . S
C911 C326 1.422 . S
C925 C122 1.371 . S
C929 C362 1.423 . S
C943 C470 1.425 . S
C947 C158 1.372 . S
C961 C194 1.371 . S
C965 C506 1.423 . S
C979 C542 1.426 . S
C983 C230 1.382 . S
C997 C434 1.422 . S
C1001 C266 1.373 . S
C1015 C182 1.426 . S
C1019 C302 1.380 . S
C1033 C218 1.422 . S
C1037 C338 1.380 . S
C1051 C374 1.376 . S
C1055 C254 1.426 . S
C1069 C146 1.426 . S
C1073 C410 1.383 . S
C1087 C110 1.422 . S
C1091 C446 1.371 . S
C1105 C482 1.386 . S
C1109 C2 1.425 . S
C1123 C518 1.386 . S
C1127 C38 1.425 . S
C1141 C554 1.375 . S
C1145 C74 1.426 . S
C1159 C590 1.381 . S
C1163 C830 1.426 . S
C1177 C722 1.422 . S
C1181 C626 1.379 . S
C1195 C662 1.378 . S
C1199 C614 1.422 . S
C1213 C698 1.374 . S
C1217 C650 1.422 . S
C1231 C686 1.425 . S
C1235 C734 1.373 . S
C1249 C770 1.373 . S
C1253 C794 1.422 . S
C1267 C578 1.425 . S
C1271 C806 1.386 . S
C1285 C758 1.426 . S
C1289 C842 1.374 . S
C1303 C3 1.511 . S
C1307 C219 1.508 . S
C1321 C39 1.510 . S
C1325 C255 1.511 . S
C1339 C75 1.511 . S
C1343 C147 1.510 . S
C1357 C183 1.510 . S
C1361 C111 1.508 . S
C1375 C363 1.511 . S
C1379 C291 1.510 . S
C1393 C327 1.508 . S
C1397 C399 1.511 . S
C1411 C435 1.511 . S
C1415 C507 1.509 . S
C1429 C543 1.508 . S
C1433 C471 1.511 . S
C1447 C615 1.510 . S
C1451 C579 1.511 . S
C1465 C651 1.511 . S
C1469 C831 1.510 . S
C1483 C687 1.510 . S
C1487 C759 1.508 . S
C1501 C723 1.508 . S
C1505 C795 1.510 . S
C1519 C4 1.004 . S
C1523 C184 1.000 . S
C1537 C40 1.002 . S
C1541 C220 1.006 . S
C1555 C76 1.002 . S
C1559 C256 1.000 . S
C1573 C148 1.000 . S
C1577 C112 1.004 . S
C1591 C292 1.006 . S
C1595 C832 1.002 . S
C1609 C328 1.006 . S
C1613 C760 1.000 . S
C1627 C796 1.000 . S
C1631 C364 1.006 . S
C1645 C400 1.002 . S
C1649 C580 1.000 . S
C1663 C724 1.000 . S
C1667 C436 1.002 . S
C1681 C616 1.004 . S
C1685 C472 1.000 . S
C1699 C508 1.002 . S
C1703 C652 1.000 . S
C1717 C688 1.005 . S
C1721 C544 1.000 . S
