# Generated by pormake.
# Topology fnk, (5)-cn, num edge types: 1
# Building blocks:
#     Node 0, Type 0, BuildingBlock: XOMCOT_clean_sbu_1, # of connection points: 5
#     Node 1, Type 0, BuildingBlock: XOMCOT_clean_sbu_1, # of connection points: 5
#     Node 2, Type 0, BuildingBlock: XOMCOT_clean_sbu_1, # of connection points: 5
#     Node 3, Type 0, BuildingBlock: XOMCOT_clean_sbu_1, # of connection points: 5
#     Node 4, Type 0, BuildingBlock: XOMCOT_clean_sbu_1, # of connection points: 5
#     Node 5, Type 0, BuildingBlock: XOMCOT_clean_sbu_1, # of connection points: 5
#     Node 6, Type 0, BuildingBlock: XOMCOT_clean_sbu_1, # of connection points: 5
#     Node 7, Type 0, BuildingBlock: XOMCOT_clean_sbu_1, # of connection points: 5
#     Node 8, Type 0, BuildingBlock: XOMCOT_clean_sbu_1, # of connection points: 5
#     Node 9, Type 0, BuildingBlock: XOMCOT_clean_sbu_1, # of connection points: 5
#     Node 10, Type 0, BuildingBlock: XOMCOT_clean_sbu_1, # of connection points: 5
#     Node 11, Type 0, BuildingBlock: XOMCOT_clean_sbu_1, # of connection points: 5
#     Node 12, Type 0, BuildingBlock: XOMCOT_clean_sbu_1, # of connection points: 5
#     Node 13, Type 0, BuildingBlock: XOMCOT_clean_sbu_1, # of connection points: 5
#     Node 14, Type 0, BuildingBlock: XOMCOT_clean_sbu_1, # of connection points: 5
#     Node 15, Type 0, BuildingBlock: XOMCOT_clean_sbu_1, # of connection points: 5
#     Edge 16, Type (0, 0), BuildingBlock: CIFDUS_clean_linker_0, # of connection points: 2
#     Edge 17, Type (0, 0), BuildingBlock: CIFDUS_clean_linker_0, # of connection points: 2
#     Edge 18, Type (0, 0), BuildingBlock: CIFDUS_clean_linker_0, # of connection points: 2
#     Edge 19, Type (0, 0), BuildingBlock: CIFDUS_clean_linker_0, # of connection points: 2
#     Edge 20, Type (0, 0), BuildingBlock: CIFDUS_clean_linker_0, # of connection points: 2
#     Edge 21, Type (0, 0), BuildingBlock: CIFDUS_clean_linker_0, # of connection points: 2
#     Edge 22, Type (0, 0), BuildingBlock: CIFDUS_clean_linker_0, # of connection points: 2
#     Edge 23, Type (0, 0), BuildingBlock: CIFDUS_clean_linker_0, # of connection points: 2
#     Edge 24, Type (0, 0), BuildingBlock: CIFDUS_clean_linker_0, # of connection points: 2
#     Edge 25, Type (0, 0), BuildingBlock: CIFDUS_clean_linker_0, # of connection points: 2
#     Edge 26, Type (0, 0), BuildingBlock: CIFDUS_clean_linker_0, # of connection points: 2
#     Edge 27, Type (0, 0), BuildingBlock: CIFDUS_clean_linker_0, # of connection points: 2
#     Edge 28, Type (0, 0), BuildingBlock: CIFDUS_clean_linker_0, # of connection points: 2
#     Edge 29, Type (0, 0), BuildingBlock: CIFDUS_clean_linker_0, # of connection points: 2
#     Edge 30, Type (0, 0), BuildingBlock: CIFDUS_clean_linker_0, # of connection points: 2
#     Edge 31, Type (0, 0), BuildingBlock: CIFDUS_clean_linker_0, # of connection points: 2
#     Edge 32, Type (0, 0), BuildingBlock: CIFDUS_clean_linker_0, # of connection points: 2
#     Edge 33, Type (0, 0), BuildingBlock: CIFDUS_clean_linker_0, # of connection points: 2
#     Edge 34, Type (0, 0), BuildingBlock: CIFDUS_clean_linker_0, # of connection points: 2
#     Edge 35, Type (0, 0), BuildingBlock: CIFDUS_clean_linker_0, # of connection points: 2
#     Edge 36, Type (0, 0), BuildingBlock: CIFDUS_clean_linker_0, # of connection points: 2
#     Edge 37, Type (0, 0), BuildingBlock: CIFDUS_clean_linker_0, # of connection points: 2
#     Edge 38, Type (0, 0), BuildingBlock: CIFDUS_clean_linker_0, # of connection points: 2
#     Edge 39, Type (0, 0), BuildingBlock: CIFDUS_clean_linker_0, # of connection points: 2
#     Edge 40, Type (0, 0), BuildingBlock: CIFDUS_clean_linker_0, # of connection points: 2
#     Edge 41, Type (0, 0), BuildingBlock: CIFDUS_clean_linker_0, # of connection points: 2
#     Edge 42, Type (0, 0), BuildingBlock: CIFDUS_clean_linker_0, # of connection points: 2
#     Edge 43, Type (0, 0), BuildingBlock: CIFDUS_clean_linker_0, # of connection points: 2
#     Edge 44, Type (0, 0), BuildingBlock: CIFDUS_clean_linker_0, # of connection points: 2
#     Edge 45, Type (0, 0), BuildingBlock: CIFDUS_clean_linker_0, # of connection points: 2
#     Edge 46, Type (0, 0), BuildingBlock: CIFDUS_clean_linker_0, # of connection points: 2
#     Edge 47, Type (0, 0), BuildingBlock: CIFDUS_clean_linker_0, # of connection points: 2
#     Edge 48, Type (0, 0), BuildingBlock: CIFDUS_clean_linker_0, # of connection points: 2
#     Edge 49, Type (0, 0), BuildingBlock: CIFDUS_clean_linker_0, # of connection points: 2
#     Edge 50, Type (0, 0), BuildingBlock: CIFDUS_clean_linker_0, # of connection points: 2
#     Edge 51, Type (0, 0), BuildingBlock: CIFDUS_clean_linker_0, # of connection points: 2
#     Edge 52, Type (0, 0), BuildingBlock: CIFDUS_clean_linker_0, # of connection points: 2
#     Edge 53, Type (0, 0), BuildingBlock: CIFDUS_clean_linker_0, # of connection points: 2
#     Edge 54, Type (0, 0), BuildingBlock: CIFDUS_clean_linker_0, # of connection points: 2
#     Edge 55, Type (0, 0), BuildingBlock: CIFDUS_clean_linker_0, # of connection points: 2
# Relax obj value: 0.627
# Max RMSD: 0.261
# Mean RMSD: 0.261
data_MOF--net-fnk--node1-XOMCOT_clean_sbu_1--edge1-CIFDUS_clean_linker_0
_symmetry_space_group_name_H-M    P1
_symmetry_Int_Tables_number       1
_symmetry_cell_setting            triclinic
loop_
_symmetry_equiv_pos_as_xyz
'x, y, z'
_cell_length_a     40.648688
_cell_length_b     40.654867
_cell_length_c     41.877329
_cell_angle_alpha  89.741832
_cell_angle_beta   89.729968
_cell_angle_gamma 90.110671
loop_
_atom_site_label
_atom_site_type_symbol
_atom_site_fract_x
_atom_site_fract_y
_atom_site_fract_z
_atom_type_partial_charge
C0 C 0.20281 0.34282 0.1371 0.0
C1 C 0.22803 0.32788 0.1536 0.0
N2 N 0.22672 0.33768 0.18433 0.0
N3 N 0.18567 0.36215 0.15721 0.0
C4 C 0.20128 0.35908 0.18552 0.0
H5 H 0.19572 0.33747 0.11283 0.0
Co6 Co 0.14313 0.3785 0.15109 0.0
C7 C 0.13603 0.43367 0.19836 0.0
O8 O 0.10498 0.42541 0.20217 0.0
N9 N 0.0998 0.39457 0.14453 0.0
C10 C 0.04537 0.39881 0.14125 0.0
C11 C 0.07124 0.37758 0.14555 0.0
C12 C 0.09055 0.42588 0.13789 0.0
N13 N 0.05748 0.42939 0.13695 0.0
O14 O 0.1565 0.40069 0.11212 0.0
H15 H 0.06894 0.35146 0.14959 0.0
H16 H 0.10781 0.44611 0.13605 0.0
O17 O 0.15409 0.41726 0.1788 0.0
C18 C 0.14539 0.38189 0.09009 0.0
O19 O 0.13116 0.3542 0.09881 0.0
N20 N 0.12887 0.3522 0.18539 0.0
C21 C 0.09167 0.30897 0.22177 0.0
C22 C 0.10567 0.33696 0.23587 0.0
C23 C 0.125 0.35812 0.21725 0.0
C24 C 0.12075 0.32222 0.17333 0.0
C25 C 0.10186 0.30017 0.19106 0.0
H26 H 0.13533 0.37953 0.22836 0.0
H27 H 0.12614 0.31674 0.14864 0.0
H28 H 0.19246 0.37042 0.2072 0.0
H29 H 0.244 0.30891 0.14427 0.0
H30 H 0.01957 0.39221 0.14182 0.0
H31 H 0.09941 0.34407 0.26004 0.0
H32 H 0.0926 0.27813 0.17974 0.0
C33 C 0.67972 0.18805 0.16121 0.0
C34 C 0.70358 0.21065 0.16859 0.0
N35 N 0.68914 0.2361 0.18339 0.0
N36 N 0.65013 0.19819 0.17231 0.0
C37 C 0.6567 0.22873 0.18373 0.0
H38 H 0.68416 0.16532 0.1487 0.0
Co39 Co 0.61035 0.17272 0.16887 0.0
C40 C 0.59028 0.21767 0.22096 0.0
O41 O 0.618 0.20999 0.23524 0.0
N42 N 0.57177 0.14715 0.16406 0.0
C43 C 0.51988 0.12984 0.16206 0.0
C44 C 0.54021 0.15707 0.16236 0.0
C45 C 0.57001 0.11389 0.16406 0.0
N46 N 0.53865 0.10251 0.16335 0.0
O47 O 0.60331 0.19244 0.12789 0.0
H48 H 0.53237 0.18247 0.16214 0.0
H49 H 0.59158 0.09842 0.16522 0.0
O50 O 0.58435 0.20612 0.19301 0.0
C51 C 0.61799 0.17137 0.11019 0.0
O52 O 0.62961 0.14463 0.12381 0.0
N53 N 0.61913 0.1491 0.20635 0.0
C54 C 0.62331 0.09189 0.24284 0.0
C55 C 0.59876 0.11523 0.2492 0.0
C56 C 0.59633 0.14308 0.22984 0.0
C57 C 0.64503 0.12844 0.2024 0.0
C58 C 0.64764 0.09987 0.22021 0.0
H59 H 0.57399 0.15727 0.23139 0.0
H60 H 0.66104 0.13092 0.18213 0.0
H61 H 0.6383 0.24575 0.19205 0.0
H62 H 0.72976 0.20771 0.16474 0.0
H63 H 0.49328 0.13037 0.16191 0.0
H64 H 0.57965 0.11067 0.26674 0.0
H65 H 0.66654 0.08269 0.21312 0.0
C66 C 0.78855 0.6588 0.15066 0.0
C67 C 0.76184 0.67415 0.16425 0.0
N68 N 0.76686 0.67647 0.19595 0.0
N69 N 0.81057 0.65127 0.17357 0.0
C70 C 0.79621 0.6618 0.20093 0.0
H71 H 0.79188 0.65458 0.12541 0.0
Co72 Co 0.85371 0.63462 0.16831 0.0
C73 C 0.81801 0.57406 0.19346 0.0
O74 O 0.79146 0.57812 0.17615 0.0
N75 N 0.89641 0.61788 0.16335 0.0
C76 C 0.95064 0.61277 0.15843 0.0
C77 C 0.92503 0.63468 0.16198 0.0
C78 C 0.90515 0.586 0.16033 0.0
N79 N 0.93803 0.5821 0.15752 0.0
O80 O 0.84298 0.61746 0.12704 0.0
H81 H 0.92716 0.66113 0.16374 0.0
H82 H 0.88761 0.56596 0.15989 0.0
O83 O 0.8417 0.59456 0.19111 0.0
C84 C 0.85511 0.6396 0.10851 0.0
O85 O 0.86783 0.66604 0.12159 0.0
N86 N 0.8667 0.65488 0.20561 0.0
C87 C 0.90451 0.69013 0.24806 0.0
C88 C 0.89625 0.65726 0.25464 0.0
C89 C 0.87741 0.63977 0.23274 0.0
C90 C 0.8713 0.68774 0.20087 0.0
C91 C 0.89021 0.70598 0.22193 0.0
H92 H 0.87421 0.61371 0.23621 0.0
H93 H 0.86282 0.69909 0.17901 0.0
H94 H 0.80791 0.66031 0.22399 0.0
H95 H 0.74081 0.68361 0.15144 0.0
H96 H 0.97653 0.61894 0.15735 0.0
H97 H 0.90745 0.64417 0.27438 0.0
H98 H 0.89646 0.73122 0.21606 0.0
C99 C 0.35641 0.78669 0.16128 0.0
C100 C 0.33437 0.76646 0.17679 0.0
N101 N 0.32371 0.78175 0.20335 0.0
N102 N 0.36005 0.81498 0.17771 0.0
C103 C 0.33898 0.81143 0.2028 0.0
H104 H 0.37082 0.77978 0.14063 0.0
Co105 Co 0.39395 0.84665 0.16898 0.0
C106 C 0.42748 0.7942 0.20617 0.0
O107 O 0.4 0.78905 0.2219 0.0
N108 N 0.42736 0.87772 0.15959 0.0
C109 C 0.47655 0.89956 0.14954 0.0
C110 C 0.45873 0.87081 0.15145 0.0
C111 C 0.42652 0.91101 0.1616 0.0
N112 N 0.45636 0.92489 0.15613 0.0
O113 O 0.39548 0.83315 0.1253 0.0
H114 H 0.46833 0.84635 0.14763 0.0
H115 H 0.40473 0.92468 0.1681 0.0
O116 O 0.42789 0.81448 0.18257 0.0
C117 C 0.37717 0.85258 0.10922 0.0
O118 O 0.36027 0.87495 0.12479 0.0
N119 N 0.39147 0.86395 0.21001 0.0
C120 C 0.39855 0.92174 0.24353 0.0
C121 C 0.36822 0.91376 0.22977 0.0
C122 C 0.36554 0.88497 0.21226 0.0
C123 C 0.41889 0.86855 0.22832 0.0
C124 C 0.4229 0.89756 0.24539 0.0
H125 H 0.3447 0.88204 0.19655 0.0
H126 H 0.44046 0.85356 0.22527 0.0
H127 H 0.33694 0.82893 0.22191 0.0
H128 H 0.32892 0.74133 0.17023 0.0
H129 H 0.50245 0.90163 0.1437 0.0
H130 H 0.34855 0.93166 0.22852 0.0
H131 H 0.44672 0.90286 0.25567 0.0
C132 C 0.20734 0.66053 0.37874 0.0
C133 C 0.23178 0.6764 0.36168 0.0
N134 N 0.22549 0.67306 0.33028 0.0
N135 N 0.18565 0.64707 0.35828 0.0
C136 C 0.19769 0.65486 0.32898 0.0
H137 H 0.20482 0.66036 0.40444 0.0
Co138 Co 0.14393 0.62911 0.36788 0.0
C139 C 0.17565 0.57249 0.32902 0.0
O140 O 0.20665 0.58153 0.33007 0.0
N141 N 0.10229 0.61135 0.37703 0.0
C142 C 0.04862 0.60502 0.38485 0.0
C143 C 0.07351 0.62749 0.37978 0.0
C144 C 0.09443 0.57931 0.38115 0.0
N145 N 0.06177 0.57455 0.38545 0.0
O146 O 0.15953 0.61152 0.4079 0.0
H147 H 0.07072 0.65386 0.37767 0.0
H148 H 0.11239 0.55978 0.3801 0.0
O149 O 0.15368 0.58942 0.3434 0.0
C150 C 0.14717 0.63143 0.42838 0.0
O151 O 0.13142 0.65746 0.41776 0.0
N152 N 0.12671 0.64954 0.33221 0.0
C153 C 0.08638 0.68545 0.29234 0.0
C154 C 0.09316 0.65236 0.28569 0.0
C155 C 0.11326 0.63451 0.30632 0.0
C156 C 0.12283 0.68239 0.33719 0.0
C157 C 0.10259 0.70093 0.31749 0.0
H158 H 0.11555 0.60833 0.30292 0.0
H159 H 0.13331 0.69357 0.35822 0.0
H160 H 0.18511 0.64901 0.30702 0.0
H161 H 0.25199 0.69021 0.37173 0.0
H162 H 0.02282 0.61087 0.38758 0.0
H163 H 0.0803 0.63958 0.26682 0.0
H164 H 0.09736 0.72629 0.32348 0.0
C165 C 0.32605 0.18898 0.34553 0.0
C166 C 0.30635 0.21066 0.32909 0.0
N167 N 0.32481 0.22598 0.30671 0.0
N168 N 0.35697 0.1906 0.33382 0.0
C169 C 0.3554 0.21346 0.31026 0.0
H170 H 0.31788 0.17222 0.36403 0.0
Co171 Co 0.39234 0.16349 0.34598 0.0
C172 C 0.44048 0.22594 0.33957 0.0
O173 O 0.44309 0.24529 0.36447 0.0
N174 N 0.42742 0.13599 0.35864 0.0
C175 C 0.47547 0.1171 0.37607 0.0
C176 C 0.45565 0.14447 0.3733 0.0
C177 C 0.43039 0.10328 0.35329 0.0
N178 N 0.4596 0.09114 0.36339 0.0
O179 O 0.38351 0.173 0.39014 0.0
H180 H 0.46167 0.16903 0.38118 0.0
H181 H 0.4118 0.08891 0.34123 0.0
O182 O 0.42162 0.20086 0.34128 0.0
C183 C 0.36753 0.14977 0.40391 0.0
O184 O 0.35954 0.12384 0.38696 0.0
N185 N 0.39993 0.15193 0.30359 0.0
C186 C 0.41157 0.11217 0.25148 0.0
C187 C 0.43753 0.12956 0.2653 0.0
C188 C 0.43116 0.14925 0.29169 0.0
C189 C 0.37401 0.13841 0.28786 0.0
C190 C 0.37926 0.11899 0.26112 0.0
H191 H 0.4518 0.15898 0.30479 0.0
H192 H 0.34955 0.13955 0.29801 0.0
H193 H 0.37607 0.22017 0.29543 0.0
H194 H 0.28011 0.21365 0.33238 0.0
H195 H 0.49954 0.11634 0.38697 0.0
H196 H 0.4628 0.1244 0.25868 0.0
H197 H 0.35866 0.10546 0.25135 0.0
C198 C 0.79799 0.34055 0.36673 0.0
C199 C 0.76986 0.32979 0.35195 0.0
N200 N 0.77196 0.33735 0.32065 0.0
N201 N 0.81788 0.35508 0.34499 0.0
C202 C 0.80114 0.35304 0.31718 0.0
H203 H 0.80413 0.33633 0.39147 0.0
Co204 Co 0.86135 0.36879 0.35172 0.0
C205 C 0.87219 0.42861 0.3112 0.0
O206 O 0.90222 0.41792 0.30605 0.0
N207 N 0.90529 0.38271 0.35929 0.0
C208 C 0.95953 0.39031 0.36013 0.0
C209 C 0.9346 0.36852 0.3529 0.0
C210 C 0.91322 0.41235 0.37167 0.0
N211 N 0.94593 0.41814 0.37148 0.0
O212 O 0.8495 0.3863 0.39316 0.0
H213 H 0.93792 0.3446 0.34229 0.0
H214 H 0.89496 0.43026 0.37875 0.0
O215 O 0.85213 0.41137 0.32836 0.0
C216 C 0.86114 0.36456 0.41235 0.0
O217 O 0.87446 0.33806 0.4 0.0
N218 N 0.87407 0.34644 0.31467 0.0
C219 C 0.90989 0.30733 0.27342 0.0
C220 C 0.89601 0.33693 0.26249 0.0
C221 C 0.87731 0.35596 0.28351 0.0
C222 C 0.88208 0.3152 0.32353 0.0
C223 C 0.90006 0.29509 0.30323 0.0
H224 H 0.86712 0.37874 0.27493 0.0
H225 H 0.87715 0.30695 0.34761 0.0
H226 H 0.81069 0.36176 0.29456 0.0
H227 H 0.75043 0.31545 0.36305 0.0
H228 H 0.98547 0.38668 0.3554 0.0
H229 H 0.90195 0.3468 0.2391 0.0
H230 H 0.9091 0.27173 0.31207 0.0
C231 C 0.64602 0.77692 0.381 0.0
C232 C 0.66818 0.75448 0.36932 0.0
N233 N 0.68052 0.76625 0.34173 0.0
N234 N 0.64425 0.80323 0.36114 0.0
C235 C 0.66616 0.79591 0.33759 0.0
H236 H 0.6307 0.77291 0.4018 0.0
Co237 Co 0.61237 0.83789 0.36514 0.0
C238 C 0.57815 0.78871 0.32507 0.0
O239 O 0.606 0.78255 0.31041 0.0
N240 N 0.58013 0.87125 0.36981 0.0
C241 C 0.53163 0.89307 0.3822 0.0
C242 C 0.55031 0.86503 0.38272 0.0
C243 C 0.57902 0.90368 0.3618 0.0
N244 N 0.54943 0.91755 0.3688 0.0
O245 O 0.60539 0.82611 0.40879 0.0
H246 H 0.54253 0.84138 0.39199 0.0
H247 H 0.59924 0.91662 0.35047 0.0
O248 O 0.57768 0.80843 0.34888 0.0
C249 C 0.62581 0.84422 0.42388 0.0
O250 O 0.64488 0.86407 0.40719 0.0
N251 N 0.62184 0.85363 0.32478 0.0
C252 C 0.63576 0.90156 0.2797 0.0
C253 C 0.65889 0.89347 0.30308 0.0
C254 C 0.65103 0.86997 0.32581 0.0
C255 C 0.60009 0.85898 0.30058 0.0
C256 C 0.60705 0.8825 0.27717 0.0
H257 H 0.66707 0.86675 0.3461 0.0
H258 H 0.57573 0.84846 0.30127 0.0
H259 H 0.6698 0.81059 0.31635 0.0
H260 H 0.67294 0.7303 0.37918 0.0
H261 H 0.50688 0.89518 0.39155 0.0
H262 H 0.68097 0.90796 0.30652 0.0
H263 H 0.58848 0.88833 0.25958 0.0
C264 C 0.83727 0.71572 0.86969 0.0
C265 C 0.82034 0.73852 0.85177 0.0
N266 N 0.82969 0.7354 0.82107 0.0
N267 N 0.85728 0.69811 0.85041 0.0
C268 C 0.85252 0.71138 0.82109 0.0
H269 H 0.83364 0.7115 0.89491 0.0
Co270 Co 0.88195 0.65983 0.85943 0.0
C271 C 0.9494 0.68591 0.8493 0.0
O272 O 0.9572 0.67978 0.87915 0.0
N273 N 0.90653 0.6212 0.8677 0.0
C274 C 0.9231 0.57341 0.88814 0.0
C275 C 0.89999 0.59796 0.88998 0.0
C276 C 0.93331 0.60953 0.85202 0.0
N277 N 0.9442 0.58072 0.86424 0.0
O278 O 0.89185 0.67534 0.90159 0.0
H279 H 0.8796 0.59835 0.90656 0.0
H280 H 0.94425 0.62153 0.83148 0.0
O281 O 0.92011 0.68057 0.84 0.0
C282 C 0.86937 0.66337 0.91975 0.0
O283 O 0.84414 0.64877 0.90627 0.0
N284 N 0.86967 0.642 0.82093 0.0
C285 C 0.85297 0.59647 0.77484 0.0
C286 C 0.87764 0.62 0.76873 0.0
C287 C 0.88636 0.64204 0.79261 0.0
C288 C 0.84269 0.62281 0.8254 0.0
C289 C 0.83402 0.59959 0.80283 0.0
H290 H 0.9075 0.65761 0.78883 0.0
H291 H 0.82988 0.62332 0.84807 0.0
H292 H 0.86468 0.70289 0.79972 0.0
H293 H 0.80103 0.75454 0.86039 0.0
H294 H 0.92442 0.55208 0.90362 0.0
H295 H 0.89204 0.61961 0.74693 0.0
H296 H 0.81485 0.58225 0.80919 0.0
C297 C 0.29242 0.83562 0.88711 0.0
C298 C 0.2655 0.81829 0.87663 0.0
N299 N 0.25569 0.83142 0.8487 0.0
N300 N 0.29976 0.85952 0.86578 0.0
C301 C 0.2762 0.85697 0.8432 0.0
H302 H 0.30791 0.82844 0.90682 0.0
Co303 Co 0.34169 0.87786 0.86105 0.0
C304 C 0.33517 0.93585 0.81786 0.0
O305 O 0.36504 0.92969 0.80752 0.0
N306 N 0.38542 0.89576 0.85679 0.0
C307 C 0.43768 0.90429 0.84226 0.0
C308 C 0.4109 0.88399 0.83931 0.0
C309 C 0.39805 0.92315 0.87078 0.0
N310 N 0.42968 0.92894 0.86206 0.0
O311 O 0.33869 0.89612 0.90332 0.0
H312 H 0.41061 0.86228 0.82474 0.0
H313 H 0.38412 0.93898 0.88653 0.0
O314 O 0.32245 0.91777 0.84 0.0
C315 C 0.3551 0.87609 0.92075 0.0
O316 O 0.36993 0.8514 0.90655 0.0
N317 N 0.34553 0.85531 0.82234 0.0
C318 C 0.3733 0.82232 0.77219 0.0
C319 C 0.35005 0.84703 0.76614 0.0
C320 C 0.33657 0.86381 0.79201 0.0
C321 C 0.35943 0.82538 0.82782 0.0
C322 C 0.37365 0.8081 0.80276 0.0
H323 H 0.32093 0.88453 0.78725 0.0
H324 H 0.36358 0.81727 0.85208 0.0
H325 H 0.27673 0.87051 0.82095 0.0
H326 H 0.2562 0.79559 0.88688 0.0
H327 H 0.46146 0.9009 0.831 0.0
H328 H 0.34695 0.85703 0.74232 0.0
H329 H 0.38976 0.78776 0.80853 0.0
C330 C 0.18862 0.32177 0.85982 0.0
C331 C 0.20151 0.29249 0.84913 0.0
N332 N 0.18746 0.28507 0.82094 0.0
N333 N 0.16636 0.33282 0.83864 0.0
C334 C 0.16581 0.3097 0.81552 0.0
H335 H 0.19678 0.33527 0.88052 0.0
Co336 Co 0.14915 0.37538 0.83773 0.0
C337 C 0.08629 0.3428 0.81273 0.0
O338 O 0.07993 0.3246 0.83802 0.0
N339 N 0.13175 0.41835 0.83673 0.0
C340 C 0.12507 0.47264 0.83822 0.0
C341 C 0.14768 0.44751 0.83664 0.0
C342 C 0.09955 0.42648 0.83877 0.0
N343 N 0.0947 0.45937 0.83964 0.0
O344 O 0.12743 0.36805 0.87824 0.0
H345 H 0.17406 0.4506 0.83672 0.0
H346 H 0.08002 0.40845 0.84026 0.0
O347 O 0.11167 0.3613 0.81226 0.0
C348 C 0.14511 0.38239 0.89932 0.0
O349 O 0.17187 0.39774 0.88966 0.0
N350 N 0.17377 0.38376 0.8009 0.0
C351 C 0.21554 0.40431 0.75146 0.0
C352 C 0.18792 0.38424 0.74534 0.0
C353 C 0.16688 0.37499 0.77027 0.0
C354 C 0.20274 0.39873 0.80785 0.0
C355 C 0.22351 0.41001 0.78366 0.0
H356 H 0.14525 0.36084 0.76467 0.0
H357 H 0.20888 0.40359 0.83249 0.0
H358 H 0.15106 0.31178 0.79425 0.0
H359 H 0.22151 0.27915 0.86014 0.0
H360 H 0.13077 0.49859 0.83967 0.0
H361 H 0.1815 0.3766 0.7215 0.0
H362 H 0.24436 0.42475 0.79067 0.0
C363 C 0.66835 0.1883 0.85515 0.0
C364 C 0.69319 0.20644 0.84127 0.0
N365 N 0.71734 0.18573 0.83264 0.0
N366 N 0.67587 0.15593 0.85423 0.0
C367 C 0.70704 0.15575 0.84246 0.0
H368 H 0.64586 0.19838 0.86481 0.0
Co369 Co 0.64741 0.12116 0.86851 0.0
C370 C 0.68981 0.08304 0.82436 0.0
O371 O 0.6853 0.10652 0.80312 0.0
N372 N 0.61934 0.08733 0.88429 0.0
C373 C 0.60318 0.03971 0.90578 0.0
C374 C 0.62915 0.06123 0.90182 0.0
C375 C 0.58702 0.08146 0.87868 0.0
N376 N 0.57675 0.05239 0.89102 0.0
O377 O 0.6671 0.124 0.90966 0.0
H378 H 0.65416 0.05711 0.90957 0.0
H379 H 0.57178 0.09695 0.86378 0.0
O380 O 0.67832 0.0867 0.85283 0.0
C381 C 0.6486 0.14394 0.92498 0.0
O382 O 0.62381 0.15737 0.9097 0.0
N383 N 0.6245 0.12038 0.82942 0.0
C384 C 0.57155 0.11765 0.7882 0.0
C385 C 0.58096 0.14756 0.80157 0.0
C386 C 0.60718 0.14821 0.82268 0.0
C387 C 0.6172 0.09158 0.81401 0.0
C388 C 0.59094 0.08984 0.79297 0.0
H389 H 0.61046 0.17005 0.83657 0.0
H390 H 0.62831 0.06865 0.8212 0.0
H391 H 0.72234 0.13418 0.84085 0.0
H392 H 0.69267 0.2326 0.83636 0.0
H393 H 0.6044 0.01535 0.91625 0.0
H394 H 0.56571 0.16925 0.79901 0.0
H395 H 0.58363 0.06621 0.78344 0.0
C396 C 0.84164 0.28016 0.65314 0.0
C397 C 0.82666 0.25731 0.67292 0.0
N398 N 0.83563 0.26358 0.70321 0.0
N399 N 0.85998 0.30086 0.67089 0.0
C400 C 0.85656 0.28926 0.70107 0.0
H401 H 0.83715 0.28279 0.62787 0.0
Co402 Co 0.87833 0.34233 0.6607 0.0
C403 C 0.94923 0.32896 0.67567 0.0
O404 O 0.95922 0.33944 0.64752 0.0
N405 N 0.89627 0.38445 0.65141 0.0
C406 C 0.90368 0.4346 0.63074 0.0
C407 C 0.88551 0.40606 0.62919 0.0
C408 C 0.92035 0.40107 0.66676 0.0
N409 N 0.92569 0.43141 0.65444 0.0
O410 O 0.89278 0.32729 0.61949 0.0
H411 H 0.8652 0.40194 0.61319 0.0
H412 H 0.93371 0.39125 0.68686 0.0
O413 O 0.91857 0.32853 0.68224 0.0
C414 C 0.86948 0.33515 0.60045 0.0
O415 O 0.84143 0.34488 0.61298 0.0
N416 N 0.86118 0.35927 0.69787 0.0
C417 C 0.83676 0.4084 0.73577 0.0
C418 C 0.8659 0.39223 0.7444 0.0
C419 C 0.87814 0.3677 0.72463 0.0
C420 C 0.83013 0.37041 0.6927 0.0
C421 C 0.8172 0.39524 0.7116 0.0
H422 H 0.90256 0.35841 0.72901 0.0
H423 H 0.81718 0.36306 0.6714 0.0
H424 H 0.86732 0.30097 0.72166 0.0
H425 H 0.8082 0.23957 0.66589 0.0
H426 H 0.90038 0.45625 0.61599 0.0
H427 H 0.88127 0.40163 0.76337 0.0
H428 H 0.79454 0.40706 0.70439 0.0
C429 C 0.66993 0.82357 0.66735 0.0
C430 C 0.69446 0.80489 0.68079 0.0
N431 N 0.714 0.82496 0.69769 0.0
N432 N 0.67292 0.85528 0.67664 0.0
C433 C 0.7014 0.85532 0.69337 0.0
H434 H 0.65071 0.81412 0.65217 0.0
Co435 Co 0.6433 0.89058 0.66651 0.0
C436 C 0.67766 0.92326 0.72056 0.0
O437 O 0.67032 0.89797 0.73896 0.0
N438 N 0.61493 0.92569 0.65546 0.0
C439 C 0.59833 0.97599 0.64221 0.0
C440 C 0.62517 0.95612 0.64716 0.0
C441 C 0.58165 0.92752 0.65477 0.0
N442 N 0.57079 0.95813 0.64725 0.0
O443 O 0.66623 0.8967 0.62689 0.0
H444 H 0.65066 0.96352 0.64506 0.0
H445 H 0.56579 0.90697 0.66073 0.0
O446 O 0.67033 0.92258 0.69074 0.0
C447 C 0.64773 0.8785 0.60956 0.0
O448 O 0.62235 0.86403 0.62329 0.0
N449 N 0.61652 0.88128 0.70198 0.0
C450 C 0.55668 0.8685 0.73214 0.0
C451 C 0.572 0.84452 0.71348 0.0
C452 C 0.60156 0.85155 0.6985 0.0
C453 C 0.60331 0.90425 0.72207 0.0
C454 C 0.57371 0.89796 0.73806 0.0
H455 H 0.60956 0.83475 0.68047 0.0
H456 H 0.61327 0.92888 0.72297 0.0
H457 H 0.71356 0.87705 0.70191 0.0
H458 H 0.69677 0.77842 0.67937 0.0
H459 H 0.59922 1.00161 0.63518 0.0
H460 H 0.55964 0.82191 0.70707 0.0
H461 H 0.56291 0.91719 0.75248 0.0
C462 C 0.14724 0.70557 0.67497 0.0
C463 C 0.16278 0.73043 0.69114 0.0
N464 N 0.1809 0.71694 0.71462 0.0
N465 N 0.15641 0.67612 0.6871 0.0
C466 C 0.17637 0.6841 0.71167 0.0
H467 H 0.12831 0.70911 0.65725 0.0
Co468 Co 0.13413 0.63563 0.68228 0.0
C469 C 0.09985 0.65031 0.73183 0.0
O470 O 0.12612 0.63391 0.74073 0.0
N471 N 0.11136 0.59588 0.68012 0.0
C472 C 0.09724 0.54523 0.69465 0.0
C473 C 0.12046 0.56948 0.69753 0.0
C474 C 0.08233 0.58721 0.66686 0.0
N475 N 0.07312 0.55639 0.67556 0.0
O476 O 0.12066 0.64747 0.63766 0.0
H477 H 0.14215 0.56838 0.71232 0.0
H478 H 0.06753 0.60365 0.6525 0.0
O479 O 0.09605 0.65567 0.70195 0.0
C480 C 0.14018 0.65869 0.61582 0.0
O481 O 0.17023 0.66748 0.62357 0.0
N482 N 0.17203 0.61349 0.66622 0.0
C483 C 0.21401 0.56011 0.65569 0.0
C484 C 0.21687 0.57941 0.68337 0.0
C485 C 0.19581 0.60619 0.68797 0.0
C486 C 0.1709 0.59629 0.63818 0.0
C487 C 0.19344 0.57165 0.63142 0.0
H488 H 0.19537 0.61751 0.71114 0.0
H489 H 0.15018 0.59802 0.62239 0.0
H490 H 0.18424 0.66653 0.7294 0.0
H491 H 0.15925 0.75645 0.68697 0.0
H492 H 0.09785 0.52132 0.70612 0.0
H493 H 0.23199 0.57168 0.70322 0.0
H494 H 0.1909 0.55842 0.60919 0.0
C495 C 0.25241 0.13882 0.63641 0.0
C496 C 0.23145 0.16093 0.65058 0.0
N497 N 0.24486 0.17055 0.67825 0.0
N498 N 0.27954 0.13462 0.65462 0.0
C499 C 0.27372 0.15429 0.68026 0.0
H500 H 0.24757 0.12647 0.61414 0.0
Co501 Co 0.3161 0.10642 0.64404 0.0
C502 C 0.27599 0.06351 0.68749 0.0
O503 O 0.2643 0.08921 0.70255 0.0
N504 N 0.35123 0.07783 0.63299 0.0
C505 C 0.37435 0.03162 0.6157 0.0
C506 C 0.34575 0.04928 0.61759 0.0
C507 C 0.38389 0.07715 0.63972 0.0
N508 N 0.39843 0.0488 0.63006 0.0
O509 O 0.29967 0.10085 0.6014 0.0
H510 H 0.322 0.04118 0.6091 0.0
H511 H 0.39638 0.09627 0.65285 0.0
O512 O 0.29299 0.06771 0.66189 0.0
C513 C 0.31384 0.12431 0.5861 0.0
O514 O 0.33039 0.14609 0.60273 0.0
N515 N 0.33624 0.11491 0.6827 0.0
C516 C 0.39051 0.1288 0.72004 0.0
C517 C 0.37543 0.15371 0.7022 0.0
C518 C 0.34925 0.1458 0.68261 0.0
C519 C 0.34769 0.09143 0.70318 0.0
C520 C 0.37502 0.09789 0.72206 0.0
H521 H 0.34097 0.16372 0.66528 0.0
H522 H 0.33962 0.06626 0.7014 0.0
H523 H 0.28983 0.15647 0.70056 0.0
H524 H 0.20785 0.16885 0.6415 0.0
H525 H 0.37693 0.00765 0.60487 0.0
H526 H 0.38577 0.17823 0.70071 0.0
H527 H 0.38599 0.07754 0.73487 0.0
H528 H 0.99718 0.5718 0.12935 0.0
H529 H 0.91912 0.52305 0.18143 0.0
H530 H 0.94879 0.47115 0.17847 0.0
H531 H 0.99741 0.43988 0.16264 0.0
H532 H 0.07606 0.48787 0.11083 0.0
H533 H 0.04594 0.53988 0.11265 0.0
C534 C 0.98675 0.54986 0.14017 0.0
C535 C 0.95581 0.55143 0.15545 0.0
C536 C 0.00411 0.51995 0.13855 0.0
C537 C 0.94254 0.52258 0.16905 0.0
C538 C 0.95962 0.49286 0.16756 0.0
C539 C 0.00784 0.46149 0.15124 0.0
C540 C 0.039 0.45976 0.13647 0.0
C541 C 0.99041 0.49126 0.1524 0.0
C542 C 0.05229 0.48844 0.12255 0.0
C543 C 0.03501 0.5182 0.12351 0.0
H544 H 0.47829 0.078 0.14808 0.0
H545 H 0.57368 0.0494 0.18379 0.0
H546 H 0.55626 0.99223 0.18526 0.0
H547 H 0.51457 0.94969 0.17519 0.0
H548 H 0.41866 0.97774 0.14135 0.0
H549 H 0.43547 0.03567 0.14097 0.0
C550 C 0.49531 0.05946 0.15643 0.0
C551 C 0.52764 0.0685 0.1652 0.0
C552 C 0.48498 0.0263 0.15761 0.0
C553 C 0.54904 0.04361 0.17597 0.0
C554 C 0.53899 0.0107 0.1771 0.0
C555 C 0.49736 0.96846 0.16763 0.0
C556 C 0.46551 0.95927 0.15787 0.0
C557 C 0.50718 1.0017 0.16762 0.0
C558 C 0.44329 0.98406 0.14892 0.0
C559 C 0.45298 0.01719 0.14858 0.0
H560 H 0.00904 0.42873 0.38899 0.0
H561 H 0.91925 0.4787 0.36353 0.0
H562 H 0.94694 0.53152 0.367 0.0
H563 H 0.99713 0.56354 0.37413 0.0
H564 H 0.08721 0.51444 0.40045 0.0
H565 H 0.05906 0.46154 0.39918 0.0
C566 C 0.99555 0.45119 0.38429 0.0
C567 C 0.96204 0.44949 0.37602 0.0
C568 C 0.01174 0.48178 0.38615 0.0
C569 C 0.94487 0.47898 0.37036 0.0
C570 C 0.96078 0.50936 0.3721 0.0
C571 C 0.01067 0.54149 0.38014 0.0
C572 C 0.0445 0.54337 0.38712 0.0
C573 C 0.99428 0.51104 0.37964 0.0
C574 C 0.06138 0.51406 0.3944 0.0
C575 C 0.04523 0.48364 0.39386 0.0
H576 H 0.48651 0.93906 0.36474 0.0
H577 H 0.58726 0.9726 0.36104 0.0
H578 H 0.56827 0.02958 0.35737 0.0
H579 H 0.52286 0.07023 0.35881 0.0
H580 H 0.42252 0.03581 0.36414 0.0
H581 H 0.44162 0.97894 0.36417 0.0
C582 C 0.50451 0.95868 0.36351 0.0
C583 C 0.53845 0.9512 0.36392 0.0
C584 C 0.49342 0.99143 0.36199 0.0
C585 C 0.56108 0.9773 0.36095 0.0
C586 C 0.55019 0.01002 0.35905 0.0
C587 C 0.50517 0.0503 0.36007 0.0
C588 C 0.47119 0.05748 0.36174 0.0
C589 C 0.51641 0.01743 0.36018 0.0
C590 C 0.4487 0.03119 0.36272 0.0
C591 C 0.45965 0.99858 0.36292 0.0
H592 H 0.95519 0.51585 0.87353 0.0
H593 H 0.99877 0.60391 0.83374 0.0
H594 H 0.04882 0.57358 0.82099 0.0
H595 H 0.08125 0.5225 0.82339 0.0
H596 H 0.03818 0.43537 0.86575 0.0
H597 H 0.98706 0.46487 0.87511 0.0
C598 C 0.97564 0.52855 0.86226 0.0
C599 C 0.97308 0.56229 0.8549 0.0
C600 C 0.0046 0.51106 0.85543 0.0
C601 C 0.99974 0.57798 0.83953 0.0
C602 C 0.02855 0.56065 0.8324 0.0
C603 C 0.0608 0.50996 0.83483 0.0
C604 C 0.06389 0.47665 0.8439 0.0
C605 C 0.03142 0.52727 0.84064 0.0
C606 C 0.03668 0.46077 0.85812 0.0
C607 C 0.00738 0.47773 0.86372 0.0
H608 H 0.47368 0.96067 0.82526 0.0
H609 H 0.43485 0.95575 0.92098 0.0
H610 H 0.47667 0.99525 0.93883 0.0
H611 H 0.52729 0.02832 0.92751 0.0
H612 H 0.56483 0.03293 0.83142 0.0
H613 H 0.52075 0.99659 0.81316 0.0
C614 C 0.47428 0.96845 0.84998 0.0
C615 C 0.45144 0.95511 0.87185 0.0
C616 C 0.49829 0.99107 0.85992 0.0
C617 C 0.45209 0.96579 0.90371 0.0
C618 C 0.47615 0.98817 0.91392 0.0
C619 C 0.52532 0.02159 0.90258 0.0
C620 C 0.54882 0.03354 0.88061 0.0
C621 C 0.49978 1.00056 0.89234 0.0
C622 C 0.54651 0.02449 0.84842 0.0
C623 C 0.5215 0.00356 0.8381 0.0
H624 H 0.95327 0.47959 0.61827 0.0
H625 H 0.95389 0.43664 0.71276 0.0
H626 H 0.99886 0.47289 0.72797 0.0
H627 H 0.03974 0.51489 0.71384 0.0
H628 H 0.03934 0.55874 0.62 0.0
H629 H 0.99181 0.52477 0.60538 0.0
C630 C 0.96285 0.47846 0.64234 0.0
C631 C 0.95041 0.45491 0.66412 0.0
C632 C 0.98872 0.4996 0.65105 0.0
C633 C 0.9634 0.45381 0.69518 0.0
C634 C 0.98903 0.47474 0.70402 0.0
C635 C 0.02927 0.51698 0.69017 0.0
C636 C 0.0433 0.53893 0.66784 0.0
C637 C 0.00224 0.49729 0.68199 0.0
C638 C 0.02893 0.54204 0.63756 0.0
C639 C 0.00192 0.52248 0.62918 0.0
H640 H 0.41957 0.98571 0.63227 0.0
H641 H 0.45282 0.08609 0.64157 0.0
H642 H 0.50922 0.0667 0.6491 0.0
H643 H 0.54925 0.02132 0.65107 0.0
H644 H 0.51555 0.92124 0.6396 0.0
H645 H 0.45913 0.94062 0.6349 0.0
C646 C 0.43906 0.00355 0.63548 0.0
C647 C 0.43174 0.0375 0.63572 0.0
C648 C 0.47146 0.99224 0.63943 0.0
C649 C 0.4575 0.0599 0.64117 0.0
C650 C 0.48985 0.04879 0.64534 0.0
C651 C 0.52975 0.00364 0.64721 0.0
C652 C 0.5371 0.9697 0.64538 0.0
C653 C 0.49718 0.01502 0.64412 0.0
C654 C 0.51099 0.94738 0.64127 0.0
C655 C 0.47859 0.95849 0.6384 0.0
H656 H 0.28514 0.30559 0.18361 0.0
H657 H 0.2055 0.33444 0.24608 0.0
H658 H 0.2303 0.30432 0.2899 0.0
H659 H 0.27248 0.26661 0.31003 0.0
H660 H 0.35087 0.23536 0.24744 0.0
H661 H 0.32879 0.26948 0.20452 0.0
C662 C 0.2732 0.30537 0.20679 0.0
C663 C 0.24332 0.32242 0.21114 0.0
C664 C 0.28731 0.28731 0.23205 0.0
C665 C 0.22863 0.32213 0.2417 0.0
C666 C 0.24267 0.30455 0.26691 0.0
C667 C 0.28474 0.26719 0.28701 0.0
C668 C 0.31321 0.24814 0.28208 0.0
C669 C 0.27166 0.28656 0.26223 0.0
C670 C 0.32911 0.24985 0.25217 0.0
C671 C 0.31634 0.26924 0.22746 0.0
H672 H 0.78859 0.32239 0.25976 0.0
H673 H 0.70682 0.3247 0.32573 0.0
H674 H 0.67225 0.29643 0.28698 0.0
H675 H 0.66724 0.26568 0.23702 0.0
H676 H 0.74903 0.26285 0.17111 0.0
H677 H 0.78143 0.2972 0.20697 0.0
C678 C 0.76301 0.31748 0.26541 0.0
C679 C 0.75048 0.32537 0.29586 0.0
C680 C 0.74333 0.30086 0.24309 0.0
C681 C 0.71728 0.31839 0.30275 0.0
C682 C 0.69746 0.30229 0.28055 0.0
C683 C 0.69181 0.27326 0.23001 0.0
C684 C 0.70574 0.26134 0.20146 0.0
C685 C 0.71049 0.29259 0.251 0.0
C686 C 0.73785 0.27122 0.19311 0.0
C687 C 0.75641 0.29088 0.21363 0.0
H688 H 0.67779 0.77083 0.27743 0.0
H689 H 0.72629 0.71995 0.35449 0.0
H690 H 0.75655 0.6864 0.31599 0.0
H691 H 0.76859 0.67119 0.26057 0.0
H692 H 0.72137 0.72389 0.18361 0.0
H693 H 0.69092 0.7566 0.22203 0.0
C694 C 0.69538 0.75284 0.28586 0.0
C695 C 0.6999 0.7481 0.31887 0.0
C696 C 0.71261 0.7336 0.2636 0.0
C697 C 0.72224 0.72399 0.32925 0.0
C698 C 0.73955 0.70482 0.30724 0.0
C699 C 0.75193 0.68997 0.25203 0.0
C700 C 0.74756 0.69479 0.21895 0.0
C701 C 0.73482 0.70931 0.27434 0.0
C702 C 0.72515 0.719 0.20871 0.0
C703 C 0.70783 0.73808 0.23075 0.0
H704 H 0.26119 0.72933 0.33171 0.0
H705 H 0.22704 0.65309 0.26858 0.0
H706 H 0.25271 0.68119 0.22324 0.0
H707 H 0.28502 0.72726 0.20151 0.0
H708 H 0.32156 0.80185 0.26554 0.0
H709 H 0.29435 0.7748 0.31013 0.0
C710 C 0.25967 0.71856 0.30816 0.0
C711 C 0.24212 0.689 0.30375 0.0
C712 C 0.27465 0.73479 0.28212 0.0
C713 C 0.24001 0.67591 0.27277 0.0
C714 C 0.2548 0.69196 0.24678 0.0
C715 C 0.28731 0.73763 0.22516 0.0
C716 C 0.30558 0.76681 0.22964 0.0
C717 C 0.27216 0.72145 0.25115 0.0
C718 C 0.30749 0.77988 0.26072 0.0
C719 C 0.29211 0.76417 0.28655 0.0
H720 H 0.75221 0.77063 0.69641 0.0
H721 H 0.7311 0.85767 0.75139 0.0
H722 H 0.76741 0.83871 0.79357 0.0
H723 H 0.80157 0.79518 0.81717 0.0
H724 H 0.82149 0.7074 0.76303 0.0
H725 H 0.7896 0.72885 0.71845 0.0
C726 C 0.75572 0.78552 0.71752 0.0
C727 C 0.73873 0.81547 0.72061 0.0
C728 C 0.77638 0.77424 0.74208 0.0
C729 C 0.74402 0.83471 0.74801 0.0
C730 C 0.76462 0.82373 0.77241 0.0
C731 C 0.79906 0.78088 0.79553 0.0
C732 C 0.81383 0.74972 0.79358 0.0
C733 C 0.78034 0.79321 0.77002 0.0
C734 C 0.81075 0.73163 0.76516 0.0
C735 C 0.79225 0.74376 0.73967 0.0
H736 H 0.17271 0.78054 0.73326 0.0
H737 H 0.2268 0.69178 0.75475 0.0
H738 H 0.25265 0.71888 0.79981 0.0
H739 H 0.26102 0.768 0.8326 0.0
H740 H 0.2107 0.8579 0.80918 0.0
H741 H 0.18241 0.83023 0.76503 0.0
C742 C 0.19035 0.76704 0.74743 0.0
C743 C 0.19736 0.73381 0.74045 0.0
C744 C 0.20571 0.783 0.77311 0.0
C745 C 0.22024 0.71703 0.75966 0.0
C746 C 0.23525 0.73259 0.78545 0.0
C747 C 0.24337 0.7813 0.81816 0.0
C748 C 0.23723 0.81468 0.82445 0.0
C749 C 0.22808 0.76548 0.79246 0.0
C750 C 0.2153 0.83206 0.80491 0.0
C751 C 0.19933 0.81627 0.77969 0.0
H752 H 0.24959 0.16859 0.74252 0.0
H753 H 0.20937 0.22469 0.66442 0.0
H754 H 0.18681 0.26474 0.7019 0.0
H755 H 0.18026 0.28481 0.75653 0.0
H756 H 0.21868 0.2279 0.83521 0.0
H757 H 0.24048 0.18744 0.79785 0.0
C758 C 0.23601 0.18967 0.73378 0.0
C759 C 0.23129 0.19374 0.70071 0.0
C760 C 0.22284 0.2125 0.75555 0.0
C761 C 0.21313 0.22088 0.68974 0.0
C762 C 0.20033 0.24385 0.71116 0.0
C763 C 0.19282 0.26335 0.76575 0.0
C764 C 0.19782 0.25972 0.79888 0.0
C765 C 0.20511 0.23997 0.74412 0.0
C766 C 0.21479 0.23176 0.80993 0.0
C767 C 0.22722 0.20848 0.78854 0.0
H768 H 0.81227 0.20259 0.71523 0.0
H769 H 0.82075 0.29972 0.75536 0.0
H770 H 0.78733 0.28308 0.80103 0.0
H771 H 0.7514 0.24243 0.82738 0.0
H772 H 0.74246 0.14528 0.78748 0.0
H773 H 0.7805 0.16011 0.74455 0.0
C774 C 0.80704 0.21991 0.73419 0.0
C775 C 0.81904 0.25229 0.73179 0.0
C776 C 0.78757 0.2102 0.76051 0.0
C777 C 0.81229 0.27449 0.75669 0.0
C778 C 0.79289 0.26509 0.78278 0.0
C779 C 0.75811 0.22444 0.80949 0.0
C780 C 0.74388 0.19291 0.81062 0.0
C781 C 0.77983 0.23322 0.78463 0.0
C782 C 0.75317 0.16966 0.78745 0.0
C783 C 0.77474 0.17822 0.76264 0.0
H784 H 0.10952 0.35356 0.04359 0.0
H785 H 0.18432 0.42738 0.05835 0.0
H786 H 0.1891 0.43515 1.00028 0.0
H787 H 0.17437 0.41831 0.94573 0.0
H788 H 0.09987 0.34403 0.93144 0.0
H789 H 0.09247 0.33919 0.9894 0.0
C790 C 0.1269 0.37149 0.03424 0.0
C791 C 0.14691 0.38963 0.05538 0.0
C792 C 0.12955 0.37559 1.00102 0.0
C793 C 0.16875 0.41309 0.04271 0.0
C794 C 0.17152 0.41739 0.00952 0.0
C795 C 0.15633 0.40112 0.95519 0.0
C796 C 0.13786 0.38126 0.93415 0.0
C797 C 0.15242 0.39837 0.98849 0.0
C798 C 0.11439 0.35951 0.94696 0.0
C799 C 0.11028 0.35669 0.98011 0.0
H800 H 0.61396 0.18744 0.96059 0.0
H801 H 0.68915 0.11286 0.96769 0.0
H802 H 0.68796 0.11759 0.02593 0.0
H803 H 0.66225 0.13915 0.07426 0.0
H804 H 0.58552 0.21209 0.06786 0.0
H805 H 0.59089 0.21204 0.00938 0.0
C806 C 0.63035 0.17237 0.9748 0.0
C807 C 0.65143 0.1495 0.95979 0.0
C808 C 0.62907 0.17483 1.00821 0.0
C809 C 0.6727 0.13053 0.97859 0.0
C810 C 0.6719 0.13315 0.01187 0.0
C811 C 0.64669 0.15522 0.06017 0.0
C812 C 0.62307 0.17527 0.07535 0.0
C813 C 0.64962 0.15461 0.02685 0.0
C814 C 0.60372 0.19639 0.05675 0.0
C815 C 0.60673 0.1962 0.02337 0.0
H816 H 0.83446 0.62461 0.96014 0.0
H817 H 0.91059 0.69882 0.95851 0.0
H818 H 0.91347 0.69655 0.01697 0.0
H819 H 0.89325 0.67465 0.06801 0.0
H820 H 0.81777 0.59982 0.06978 0.0
H821 H 0.81602 0.60083 0.01118 0.0
C822 C 0.85166 0.64045 0.9725 0.0
C823 C 0.87203 0.66227 0.955 0.0
C824 C 0.85334 0.63871 1.00592 0.0
C825 C 0.89455 0.68205 0.97141 0.0
C826 C 0.89618 0.6807 1.00478 0.0
C827 C 0.87637 0.65845 0.05565 0.0
C828 C 0.85536 0.63735 0.07324 0.0
C829 C 0.87553 0.65929 0.0222 0.0
C830 C 0.83413 0.61621 0.05681 0.0
C831 C 0.83305 0.61695 0.02337 0.0
H832 H 0.38891 0.83574 0.96001 0.0
H833 H 0.32428 0.91989 0.9612 0.0
H834 H 0.32528 0.91953 0.01983 0.0
H835 H 0.34397 0.89464 0.07035 0.0
H836 H 0.40838 0.81028 0.06835 0.0
H837 H 0.40769 0.81125 0.00995 0.0
C838 C 0.37501 0.85417 0.97293 0.0
C839 C 0.35646 0.87787 0.95612 0.0
C840 C 0.37552 0.85357 1.0064 0.0
C841 C 0.33878 0.90147 0.97346 0.0
C842 C 0.33929 0.90116 1.00696 0.0
C843 C 0.35782 0.87635 0.05721 0.0
C844 C 0.37617 0.85228 0.0738 0.0
C845 C 0.35743 0.87718 0.02364 0.0
C846 C 0.39402 0.82896 0.05627 0.0
C847 C 0.39368 0.82957 0.02288 0.0
H848 H 0.09958 0.6446 0.47113 0.0
H849 H 0.19939 0.60965 0.46398 0.0
H850 H 0.2053 0.61437 0.52216 0.0
H851 H 0.18366 0.63362 0.57378 0.0
H852 H 0.08315 0.66651 0.58152 0.0
H853 H 0.07576 0.65755 0.52394 0.0
C854 C 0.12246 0.63746 0.48243 0.0
C855 C 0.14917 0.62698 0.46338 0.0
C856 C 0.12559 0.64045 0.51569 0.0
C857 C 0.17852 0.61751 0.47818 0.0
C858 C 0.18194 0.62058 0.51134 0.0
C859 C 0.16007 0.63882 0.56288 0.0
C860 C 0.13412 0.65153 0.58166 0.0
C861 C 0.15595 0.63294 0.53012 0.0
C862 C 0.10349 0.65715 0.56746 0.0
C863 C 0.09934 0.65198 0.53462 0.0
H864 H 0.33209 0.10435 0.43754 0.0
H865 H 0.38028 0.19853 0.44714 0.0
H866 H 0.36512 0.19981 0.50371 0.0
H867 H 0.34063 0.17323 0.55058 0.0
H868 H 0.29392 0.07825 0.54202 0.0
H869 H 0.30554 0.07857 0.48446 0.0
C870 C 0.33923 0.12527 0.45193 0.0
C871 C 0.35754 0.15129 0.43805 0.0
C872 C 0.33054 0.12574 0.48449 0.0
C873 C 0.36636 0.17817 0.45713 0.0
C874 C 0.35765 0.17891 0.48948 0.0
C875 C 0.33266 0.15261 0.53619 0.0
C876 C 0.31645 0.12563 0.55072 0.0
C877 C 0.34006 0.1527 0.50342 0.0
C878 C 0.30626 0.09934 0.53152 0.0
C879 C 0.31313 0.09945 0.49865 0.0
H880 H 0.90277 0.3351 0.45307 0.0
H881 H 0.8184 0.39929 0.45082 0.0
H882 H 0.81423 0.39584 0.50933 0.0
H883 H 0.83252 0.37163 0.56014 0.0
H884 H 0.91735 0.30792 0.56223 0.0
H885 H 0.92329 0.3139 0.50414 0.0
C886 C 0.88352 0.34856 0.46535 0.0
C887 C 0.86063 0.3672 0.44762 0.0
C888 C 0.8812 0.34615 0.4987 0.0
C889 C 0.83628 0.3849 0.46391 0.0
C890 C 0.83379 0.38266 0.49728 0.0
C891 C 0.85231 0.35889 0.54796 0.0
C892 C 0.87419 0.33878 0.56546 0.0
C893 C 0.85572 0.36281 0.51477 0.0
C894 C 0.90007 0.3232 0.54932 0.0
C895 C 0.90345 0.3267 0.51617 0.0
H896 H 0.66523 0.88303 0.45988 0.0
H897 H 0.59211 0.80605 0.46711 0.0
H898 H 0.59515 0.8085 0.52538 0.0
H899 H 0.6164 0.834 0.57347 0.0
H900 H 0.68769 0.91267 0.56719 0.0
H901 H 0.68807 0.90754 0.50871 0.0
C902 C 0.65 0.86663 0.47414 0.0
C903 C 0.62825 0.84444 0.45912 0.0
C904 C 0.65168 0.86844 0.50755 0.0
C905 C 0.60887 0.82338 0.47802 0.0
C906 C 0.61065 0.82478 0.51129 0.0
C907 C 0.6322 0.8501 0.55947 0.0
C908 C 0.65182 0.87399 0.5747 0.0
C909 C 0.63166 0.84746 0.5262 0.0
C910 C 0.67242 0.89415 0.55609 0.0
C911 C 0.67244 0.89131 0.5227 0.0
H912 H 0.21209 0.53767 0.2846 0.0
H913 H 0.11419 0.54627 0.32433 0.0
H914 H 0.09418 0.50506 0.2877 0.0
H915 H 0.10324 0.46759 0.24376 0.0
H916 H 0.20002 0.45711 0.20237 0.0
H917 H 0.22145 0.49819 0.2399 0.0
C918 C 0.18646 0.53029 0.28544 0.0
C919 C 0.16485 0.54522 0.30764 0.0
C920 C 0.17472 0.50646 0.26368 0.0
C921 C 0.13163 0.53536 0.30798 0.0
C922 C 0.11999 0.51177 0.28678 0.0
C923 C 0.1291 0.47414 0.24272 0.0
C924 C 0.1499 0.45921 0.22002 0.0
C925 C 0.14118 0.49739 0.26441 0.0
C926 C 0.18333 0.46823 0.2194 0.0
C927 C 0.19561 0.49168 0.24097 0.0
H928 H 0.52343 0.21349 0.21322 0.0
H929 H 0.59817 0.25334 0.27488 0.0
H930 H 0.55726 0.26289 0.31645 0.0
H931 H 0.50224 0.25137 0.33846 0.0
H932 H 0.4269 0.21385 0.27647 0.0
H933 H 0.46577 0.21195 0.23212 0.0
C934 C 0.53058 0.22521 0.23532 0.0
C935 C 0.56394 0.23207 0.2411 0.0
C936 C 0.50692 0.23024 0.25951 0.0
C937 C 0.57272 0.24734 0.26995 0.0
C938 C 0.54935 0.25268 0.29388 0.0
C939 C 0.49415 0.2434 0.31509 0.0
C940 C 0.46208 0.23113 0.31126 0.0
C941 C 0.51668 0.24282 0.28947 0.0
C942 C 0.45181 0.22186 0.28058 0.0
C943 C 0.47404 0.22102 0.25503 0.0
H944 H 0.81351 0.44602 0.28217 0.0
H945 H 0.91139 0.48091 0.30298 0.0
H946 H 0.90323 0.5285 0.26874 0.0
H947 H 0.87081 0.55784 0.22962 0.0
H948 H 0.7722 0.52589 0.2081 0.0
H949 H 0.77838 0.47931 0.24507 0.0
C950 C 0.8326 0.46454 0.27978 0.0
C951 C 0.863 0.45993 0.29527 0.0
C952 C 0.82796 0.49201 0.25932 0.0
C953 C 0.88777 0.48384 0.29144 0.0
C954 C 0.88324 0.51103 0.27165 0.0
C955 C 0.85027 0.54125 0.23335 0.0
C956 C 0.82097 0.54577 0.21614 0.0
C957 C 0.8538 0.51498 0.25493 0.0
C958 C 0.7951 0.52315 0.22094 0.0
C959 C 0.79858 0.49652 0.24222 0.0
H960 H 0.57085 0.78331 0.26117 0.0
H961 H 0.51609 0.78138 0.34969 0.0
H962 H 0.4645 0.77802 0.3198 0.0
H963 H 0.43531 0.78114 0.26903 0.0
H964 H 0.48974 0.79045 0.18067 0.0
H965 H 0.54149 0.785 0.21008 0.0
C966 C 0.54767 0.7814 0.27398 0.0
C967 C 0.54725 0.78214 0.30767 0.0
C968 C 0.5182 0.78105 0.25664 0.0
C969 C 0.517 0.78058 0.32384 0.0
C970 C 0.48757 0.77879 0.30674 0.0
C971 C 0.45842 0.78127 0.25598 0.0
C972 C 0.45865 0.78586 0.22255 0.0
C973 C 0.4879 0.77974 0.27317 0.0
C974 C 0.4889 0.78671 0.20629 0.0
C975 C 0.51844 0.78377 0.22314 0.0
H976 H 0.80026 0.55524 0.76522 0.0
H977 H 0.90424 0.56583 0.74425 0.0
H978 H 0.9071 0.50877 0.72923 0.0
H979 H 0.8829 0.45443 0.72947 0.0
H980 H 0.78118 0.44065 0.75616 0.0
H981 H 0.7752 0.50028 0.7636 0.0
C982 C 0.82364 0.54516 0.75753 0.0
C983 C 0.85206 0.56507 0.75685 0.0
C984 C 0.82594 0.51145 0.75135 0.0
C985 C 0.88167 0.55171 0.74502 0.0
C986 C 0.88365 0.51866 0.73703 0.0
C987 C 0.85958 0.46436 0.73767 0.0
C988 C 0.83284 0.44333 0.74363 0.0
C989 C 0.85643 0.49814 0.74168 0.0
C990 C 0.80228 0.45655 0.75242 0.0
C991 C 0.79884 0.4905 0.75629 0.0
H992 H 0.52283 0.81212 0.74661 0.0
H993 H 0.50996 0.91682 0.73249 0.0
H994 H 0.45088 0.91034 0.73774 0.0
H995 H 0.40369 0.87583 0.7478 0.0
H996 H 0.41497 0.77072 0.75886 0.0
H997 H 0.47429 0.7764 0.75017 0.0
C998 C 0.50718 0.83355 0.74425 0.0
C999 C 0.52115 0.86497 0.73954 0.0
C1000 C 0.47302 0.8295 0.74544 0.0
C1001 C 0.50029 0.89245 0.73721 0.0
C1002 C 0.46634 0.88871 0.73943 0.0
C1003 C 0.41865 0.85378 0.74709 0.0
C1004 C 0.4048 0.82283 0.75433 0.0
C1005 C 0.45254 0.85737 0.74339 0.0
C1006 C 0.42503 0.79483 0.75354 0.0
C1007 C 0.45895 0.79815 0.74913 0.0
H1008 H 0.19253 0.41733 0.69084 0.0
H1009 H 0.27692 0.43605 0.75074 0.0
H1010 H 0.28898 0.4855 0.72007 0.0
H1011 H 0.26638 0.52997 0.68596 0.0
H1012 H 0.1811 0.50844 0.62799 0.0
H1013 H 0.18087 0.45277 0.64666 0.0
C1014 C 0.21432 0.43106 0.69712 0.0
C1015 C 0.23175 0.4241 0.72536 0.0
C1016 C 0.22126 0.45948 0.67942 0.0
C1017 C 0.26093 0.44208 0.73103 0.0
C1018 C 0.26823 0.47037 0.71318 0.0
C1019 C 0.24818 0.51295 0.67684 0.0
C1020 C 0.22296 0.52448 0.65669 0.0
C1021 C 0.24686 0.48067 0.689 0.0
C1022 C 0.20077 0.5013 0.64383 0.0
C1023 C 0.20017 0.46906 0.65489 0.0
H1024 H 0.42005 0.10033 0.77153 0.0
H1025 H 0.43932 0.16536 0.69151 0.0
H1026 H 0.49702 0.1674 0.70526 0.0
H1027 H 0.54292 0.14913 0.73878 0.0
H1028 H 0.5246 0.07996 0.81499 0.0
H1029 H 0.46601 0.07945 0.80271 0.0
C1030 C 0.4368 0.11475 0.75687 0.0
C1031 C 0.42493 0.1329 0.7308 0.0
C1032 C 0.47042 0.11427 0.76358 0.0
C1033 C 0.4472 0.15192 0.71247 0.0
C1034 C 0.4805 0.15265 0.71986 0.0
C1035 C 0.52599 0.1336 0.75217 0.0
C1036 C 0.53771 0.11403 0.77713 0.0
C1037 C 0.49243 0.1336 0.74507 0.0
C1038 C 0.51591 0.09432 0.79494 0.0
C1039 C 0.48245 0.09447 0.7883 0.0
H1040 H 0.7084 0.0674 0.76413 0.0
H1041 H 0.68831 0.02383 0.85645 0.0
H1042 H 0.68754 0.96921 0.83221 0.0
H1043 H 0.6839 0.93538 0.78397 0.0
H1044 H 0.69817 0.98015 0.69119 0.0
H1045 H 0.70982 0.03292 0.71655 0.0
C1046 C 0.70446 0.04596 0.77918 0.0
C1047 C 0.69797 0.04984 0.81208 0.0
C1048 C 0.7024 0.01491 0.76486 0.0
C1049 C 0.69331 0.02166 0.83112 0.0
C1050 C 0.69254 0.99043 0.81718 0.0
C1051 C 0.6901 0.95651 0.76922 0.0
C1052 C 0.68982 0.95385 0.73563 0.0
C1053 C 0.69567 0.98698 0.78392 0.0
C1054 C 0.69798 0.98152 0.71702 0.0
C1055 C 0.70459 0.01171 0.73153 0.0
H1056 H 0.01436 0.67219 0.8557 0.0
H1057 H 0.94319 0.70546 0.78678 0.0
H1058 H 0.98362 0.69886 0.74379 0.0
H1059 H 0.03821 0.6786 0.72514 0.0
H1060 H 0.10806 0.64528 0.79564 0.0
H1061 H 0.06934 0.65693 0.83811 0.0
C1062 C 0.00782 0.67876 0.83141 0.0
C1063 C 0.97562 0.68892 0.82454 0.0
C1064 C 0.03097 0.6744 0.80677 0.0
C1065 C 0.9677 0.69712 0.79277 0.0
C1066 C 0.99081 0.69327 0.7681 0.0
C1067 C 0.04501 0.67427 0.7498 0.0
C1068 C 0.076 0.66069 0.7569 0.0
C1069 C 0.02234 0.68102 0.77466 0.0
C1070 C 0.08436 0.65535 0.78914 0.0
C1071 C 0.06221 0.6621 0.81369 0.0
H1072 H 0.25792 0.05042 0.7495 0.0
H1073 H 0.30479 0.00646 0.66732 0.0
H1074 H 0.32487 0.96163 0.70068 0.0
H1075 H 0.3354 0.93901 0.75386 0.0
H1076 H 0.28922 0.9818 0.83661 0.0
H1077 H 0.26238 0.02301 0.80229 0.0
C1078 C 0.27181 0.03063 0.73865 0.0
C1079 C 0.28015 0.03224 0.70583 0.0
C1080 C 0.28389 0.00505 0.7582 0.0
C1081 C 0.29807 0.00614 0.69238 0.0
C1082 C 0.30983 0.98056 0.71154 0.0
C1083 C 0.31915 0.95716 0.7644 0.0
C1084 C 0.3147 0.95781 0.79778 0.0
C1085 C 0.30395 0.98048 0.74459 0.0
C1086 C 0.2931 0.98094 0.81102 0.0
C1087 C 0.2779 0.00452 0.79138 0.0
H1088 H 0.0076 0.36065 0.68332 0.0
H1089 H 0.94342 0.28984 0.72862 0.0
H1090 H 0.98031 0.28689 0.77469 0.0
H1091 H 0.03031 0.30584 0.80294 0.0
H1092 H 0.09119 0.38055 0.75878 0.0
H1093 H 0.05636 0.38047 0.71184 0.0
C1094 C 0.00198 0.34414 0.70303 0.0
C1095 C 0.9731 0.32501 0.70223 0.0
C1096 C 0.02272 0.34342 0.72991 0.0
C1097 C 0.96568 0.30454 0.72847 0.0
C1098 C 0.98672 0.30296 0.75489 0.0
C1099 C 0.03604 0.32202 0.78303 0.0
C1100 C 0.06398 0.34264 0.78442 0.0
C1101 C 0.01522 0.32253 0.75605 0.0
C1102 C 0.07053 0.36375 0.75837 0.0
C1103 C 0.05042 0.36392 0.7314 0.0
H1104 H 0.38439 0.9719 0.20367 0.0
H1105 H 0.43541 0.94925 0.2913 0.0
H1106 H 0.45232 0.00687 0.29569 0.0
H1107 H 0.44526 0.06395 0.27923 0.0
H1108 H 0.3889 0.08725 0.19516 0.0
H1109 H 0.38154 0.02849 0.18448 0.0
C1110 C 0.39863 0.97959 0.22417 0.0
C1111 C 0.40761 0.95661 0.2478 0.0
C1112 C 0.40751 0.0126 0.22693 0.0
C1113 C 0.42757 0.96666 0.27323 0.0
C1114 C 0.43729 0.99947 0.2757 0.0
C1115 C 0.43262 0.05613 0.25777 0.0
C1116 C 0.41778 0.07961 0.23777 0.0
C1117 C 0.42666 0.02269 0.25315 0.0
C1118 C 0.40074 0.06939 0.21054 0.0
C1119 C 0.39606 0.03594 0.20486 0.0
H1120 H 0.03563 0.29568 0.1904 0.0
H1121 H 0.0794 0.29128 0.28403 0.0
H1122 H 0.02499 0.28288 0.30796 0.0
H1123 H 0.96568 0.28873 0.30273 0.0
H1124 H 0.92185 0.29814 0.20944 0.0
H1125 H 0.97607 0.29196 0.18459 0.0
C1126 C 0.0335 0.29153 0.21593 0.0
C1127 C 0.06143 0.29432 0.23552 0.0
C1128 C 0.00217 0.28817 0.22949 0.0
C1129 C 0.05817 0.28951 0.26858 0.0
C1130 C 0.0271 0.28485 0.28221 0.0
C1131 C 0.96767 0.28807 0.2769 0.0
C1132 C 0.93981 0.29415 0.25789 0.0
C1133 C 0.99891 0.28589 0.263 0.0
C1134 C 0.94301 0.29385 0.22451 0.0
C1135 C 0.97398 0.29043 0.21037 0.0
H1136 H 0.58609 0.94512 0.27389 0.0
H1137 H 0.68998 0.93289 0.25523 0.0
H1138 H 0.69597 0.99221 0.2481 0.0
H1139 H 0.67251 0.04692 0.25149 0.0
H1140 H 0.56678 0.05786 0.25936 0.0
H1141 H 0.56126 0.99942 0.26925 0.0
C1142 C 0.60985 0.95512 0.26698 0.0
C1143 C 0.63762 0.93464 0.26526 0.0
C1144 C 0.61308 0.98902 0.2627 0.0
C1145 C 0.6683 0.94825 0.25692 0.0
C1146 C 0.6718 0.98211 0.25323 0.0
C1147 C 0.64803 0.03675 0.25448 0.0
C1148 C 0.62025 0.05734 0.25431 0.0
C1149 C 0.64447 0.00271 0.25692 0.0
C1150 C 0.589 0.0433 0.26004 0.0
C1151 C 0.58558 0.00955 0.26491 0.0
H1152 H 0.95859 0.70692 0.21584 0.0
H1153 H 0.91833 0.70065 0.31107 0.0
H1154 H 0.97357 0.70716 0.3335 0.0
H1155 H 0.033 0.7025 0.32531 0.0
H1156 H 0.07283 0.69886 0.22987 0.0
H1157 H 0.01802 0.70903 0.20777 0.0
C1158 C 0.96186 0.70835 0.24151 0.0
C1159 C 0.93474 0.70362 0.26195 0.0
C1160 C 0.99364 0.70979 0.25394 0.0
C1161 C 0.93905 0.70453 0.29511 0.0
C1162 C 0.97055 0.70795 0.3078 0.0
C1163 C 0.02973 0.70523 0.29972 0.0
C1164 C 0.05654 0.70026 0.27905 0.0
C1165 C 0.99806 0.70886 0.28739 0.0
C1166 C 0.05231 0.70289 0.24597 0.0
C1167 C 0.02105 0.70844 0.23346 0.0
loop_
_geom_bond_atom_site_label_1
_geom_bond_atom_site_label_2
_geom_bond_distance
_geom_bond_site_symmetry_2
_ccdc_geom_bond_type
C0 C1 1.351 . S
C0 N3 1.368 . S
C0 H5 0.931 . S
C1 C0 1.351 . S
C1 N2 1.373 . S
C1 H29 0.930 . S
N2 C1 1.373 . S
N2 C4 1.340 . S
N3 C0 1.368 . S
N3 C4 1.321 . S
N3 Co6 2.135 . S
C4 N2 1.340 . S
C4 N3 1.321 . S
C4 H28 0.930 . S
H5 C0 0.931 . S
Co6 N3 2.135 . S
Co6 N9 2.121 . S
Co6 O14 2.055 . S
Co6 O17 2.039 . S
Co6 N20 2.140 . S
C7 O8 1.227 . S
C7 O17 1.265 . S
O8 C7 1.227 . S
N9 Co6 2.121 . S
N9 C11 1.375 . S
N9 C12 1.313 . S
C10 C11 1.338 . S
C10 N13 1.377 . S
C10 H30 0.930 . S
C11 N9 1.375 . S
C11 C10 1.338 . S
C11 H15 0.931 . S
C12 N9 1.313 . S
C12 N13 1.344 . S
C12 H16 0.930 . S
N13 C10 1.377 . S
N13 C12 1.344 . S
O14 Co6 2.055 . S
O14 C18 1.253 . S
H15 C11 0.931 . S
H16 C12 0.930 . S
O17 Co6 2.039 . S
O17 C7 1.265 . S
C18 O14 1.253 . S
C18 O19 1.227 . S
O19 C18 1.227 . S
N20 Co6 2.140 . S
N20 C23 1.346 . S
N20 C24 1.345 . S
C21 C22 1.387 . S
C21 C25 1.391 . S
C22 C21 1.387 . S
C22 C23 1.369 . S
C22 H31 0.929 . S
C23 N20 1.346 . S
C23 C22 1.369 . S
C23 H26 0.928 . S
C24 N20 1.345 . S
C24 C25 1.371 . S
C24 H27 0.931 . S
C25 C21 1.391 . S
C25 C24 1.371 . S
C25 H32 0.930 . S
H26 C23 0.928 . S
H27 C24 0.931 . S
H28 C4 0.930 . S
H29 C1 0.930 . S
H30 C10 0.930 . S
H31 C22 0.929 . S
H32 C25 0.930 . S
C33 C34 1.351 . S
C33 N36 1.368 . S
C33 H38 0.931 . S
C34 C33 1.351 . S
C34 N35 1.373 . S
C34 H62 0.930 . S
N35 C34 1.373 . S
N35 C37 1.340 . S
N36 C33 1.368 . S
N36 C37 1.321 . S
N36 Co39 2.135 . S
C37 N35 1.340 . S
C37 N36 1.321 . S
C37 H61 0.930 . S
H38 C33 0.931 . S
Co39 N36 2.135 . S
Co39 N42 2.121 . S
Co39 O47 2.055 . S
Co39 O50 2.039 . S
Co39 N53 2.140 . S
C40 O41 1.227 . S
C40 O50 1.265 . S
O41 C40 1.227 . S
N42 Co39 2.121 . S
N42 C44 1.375 . S
N42 C45 1.313 . S
C43 C44 1.338 . S
C43 N46 1.377 . S
C43 H63 0.930 . S
C44 N42 1.375 . S
C44 C43 1.338 . S
C44 H48 0.931 . S
C45 N42 1.313 . S
C45 N46 1.344 . S
C45 H49 0.930 . S
N46 C43 1.377 . S
N46 C45 1.344 . S
O47 Co39 2.055 . S
O47 C51 1.253 . S
H48 C44 0.931 . S
H49 C45 0.930 . S
O50 Co39 2.039 . S
O50 C40 1.265 . S
C51 O47 1.253 . S
C51 O52 1.227 . S
O52 C51 1.227 . S
N53 Co39 2.140 . S
N53 C56 1.346 . S
N53 C57 1.345 . S
C54 C55 1.387 . S
C54 C58 1.391 . S
C55 C54 1.387 . S
C55 C56 1.369 . S
C55 H64 0.929 . S
C56 N53 1.346 . S
C56 C55 1.369 . S
C56 H59 0.928 . S
C57 N53 1.345 . S
C57 C58 1.371 . S
C57 H60 0.931 . S
C58 C54 1.391 . S
C58 C57 1.371 . S
C58 H65 0.930 . S
H59 C56 0.928 . S
H60 C57 0.931 . S
H61 C37 0.930 . S
H62 C34 0.930 . S
H63 C43 0.930 . S
H64 C55 0.929 . S
H65 C58 0.930 . S
C66 C67 1.351 . S
C66 N69 1.368 . S
C66 H71 0.931 . S
C67 C66 1.351 . S
C67 N68 1.373 . S
C67 H95 0.930 . S
N68 C67 1.373 . S
N68 C70 1.340 . S
N69 C66 1.368 . S
N69 C70 1.321 . S
N69 Co72 2.135 . S
C70 N68 1.340 . S
C70 N69 1.321 . S
C70 H94 0.930 . S
H71 C66 0.931 . S
Co72 N69 2.135 . S
Co72 N75 2.121 . S
Co72 O80 2.055 . S
Co72 O83 2.039 . S
Co72 N86 2.140 . S
C73 O74 1.227 . S
C73 O83 1.265 . S
O74 C73 1.227 . S
N75 Co72 2.121 . S
N75 C77 1.375 . S
N75 C78 1.313 . S
C76 C77 1.338 . S
C76 N79 1.377 . S
C76 H96 0.930 . S
C77 N75 1.375 . S
C77 C76 1.338 . S
C77 H81 0.931 . S
C78 N75 1.313 . S
C78 N79 1.344 . S
C78 H82 0.930 . S
N79 C76 1.377 . S
N79 C78 1.344 . S
O80 Co72 2.055 . S
O80 C84 1.253 . S
H81 C77 0.931 . S
H82 C78 0.930 . S
O83 Co72 2.039 . S
O83 C73 1.265 . S
C84 O80 1.253 . S
C84 O85 1.227 . S
O85 C84 1.227 . S
N86 Co72 2.140 . S
N86 C89 1.346 . S
N86 C90 1.345 . S
C87 C88 1.387 . S
C87 C91 1.391 . S
C88 C87 1.387 . S
C88 C89 1.369 . S
C88 H97 0.929 . S
C89 N86 1.346 . S
C89 C88 1.369 . S
C89 H92 0.928 . S
C90 N86 1.345 . S
C90 C91 1.371 . S
C90 H93 0.931 . S
C91 C87 1.391 . S
C91 C90 1.371 . S
C91 H98 0.930 . S
H92 C89 0.928 . S
H93 C90 0.931 . S
H94 C70 0.930 . S
H95 C67 0.930 . S
H96 C76 0.930 . S
H97 C88 0.929 . S
H98 C91 0.930 . S
C99 C100 1.351 . S
C99 N102 1.368 . S
C99 H104 0.931 . S
C100 C99 1.351 . S
C100 N101 1.373 . S
C100 H128 0.930 . S
N101 C100 1.373 . S
N101 C103 1.340 . S
N102 C99 1.368 . S
N102 C103 1.321 . S
N102 Co105 2.135 . S
C103 N101 1.340 . S
C103 N102 1.321 . S
C103 H127 0.930 . S
H104 C99 0.931 . S
Co105 N102 2.135 . S
Co105 N108 2.121 . S
Co105 O113 2.055 . S
Co105 O116 2.039 . S
Co105 N119 2.140 . S
C106 O107 1.227 . S
C106 O116 1.265 . S
O107 C106 1.227 . S
N108 Co105 2.121 . S
N108 C110 1.375 . S
N108 C111 1.313 . S
C109 C110 1.338 . S
C109 N112 1.377 . S
C109 H129 0.930 . S
C110 N108 1.375 . S
C110 C109 1.338 . S
C110 H114 0.931 . S
C111 N108 1.313 . S
C111 N112 1.344 . S
C111 H115 0.930 . S
N112 C109 1.377 . S
N112 C111 1.344 . S
O113 Co105 2.055 . S
O113 C117 1.253 . S
H114 C110 0.931 . S
H115 C111 0.930 . S
O116 Co105 2.039 . S
O116 C106 1.265 . S
C117 O113 1.253 . S
C117 O118 1.227 . S
O118 C117 1.227 . S
N119 Co105 2.140 . S
N119 C122 1.346 . S
N119 C123 1.345 . S
C120 C121 1.387 . S
C120 C124 1.391 . S
C121 C120 1.387 . S
C121 C122 1.369 . S
C121 H130 0.929 . S
C122 N119 1.346 . S
C122 C121 1.369 . S
C122 H125 0.928 . S
C123 N119 1.345 . S
C123 C124 1.371 . S
C123 H126 0.931 . S
C124 C120 1.391 . S
C124 C123 1.371 . S
C124 H131 0.930 . S
H125 C122 0.928 . S
H126 C123 0.931 . S
H127 C103 0.930 . S
H128 C100 0.930 . S
H129 C109 0.930 . S
H130 C121 0.929 . S
H131 C124 0.930 . S
C132 C133 1.351 . S
C132 N135 1.368 . S
C132 H137 0.931 . S
C133 C132 1.351 . S
C133 N134 1.373 . S
C133 H161 0.930 . S
N134 C133 1.373 . S
N134 C136 1.340 . S
N135 C132 1.368 . S
N135 C136 1.321 . S
N135 Co138 2.135 . S
C136 N134 1.340 . S
C136 N135 1.321 . S
C136 H160 0.930 . S
H137 C132 0.931 . S
Co138 N135 2.135 . S
Co138 N141 2.121 . S
Co138 O146 2.055 . S
Co138 O149 2.039 . S
Co138 N152 2.140 . S
C139 O140 1.227 . S
C139 O149 1.265 . S
O140 C139 1.227 . S
N141 Co138 2.121 . S
N141 C143 1.375 . S
N141 C144 1.313 . S
C142 C143 1.338 . S
C142 N145 1.377 . S
C142 H162 0.930 . S
C143 N141 1.375 . S
C143 C142 1.338 . S
C143 H147 0.931 . S
C144 N141 1.313 . S
C144 N145 1.344 . S
C144 H148 0.930 . S
N145 C142 1.377 . S
N145 C144 1.344 . S
O146 Co138 2.055 . S
O146 C150 1.253 . S
H147 C143 0.931 . S
H148 C144 0.930 . S
O149 Co138 2.039 . S
O149 C139 1.265 . S
C150 O146 1.253 . S
C150 O151 1.227 . S
O151 C150 1.227 . S
N152 Co138 2.140 . S
N152 C155 1.346 . S
N152 C156 1.345 . S
C153 C154 1.387 . S
C153 C157 1.391 . S
C154 C153 1.387 . S
C154 C155 1.369 . S
C154 H163 0.929 . S
C155 N152 1.346 . S
C155 C154 1.369 . S
C155 H158 0.928 . S
C156 N152 1.345 . S
C156 C157 1.371 . S
C156 H159 0.931 . S
C157 C153 1.391 . S
C157 C156 1.371 . S
C157 H164 0.930 . S
H158 C155 0.928 . S
H159 C156 0.931 . S
H160 C136 0.930 . S
H161 C133 0.930 . S
H162 C142 0.930 . S
H163 C154 0.929 . S
H164 C157 0.930 . S
C165 C166 1.351 . S
C165 N168 1.368 . S
C165 H170 0.931 . S
C166 C165 1.351 . S
C166 N167 1.373 . S
C166 H194 0.930 . S
N167 C166 1.373 . S
N167 C169 1.340 . S
N168 C165 1.368 . S
N168 C169 1.321 . S
N168 Co171 2.135 . S
C169 N167 1.340 . S
C169 N168 1.321 . S
C169 H193 0.930 . S
H170 C165 0.931 . S
Co171 N168 2.135 . S
Co171 N174 2.121 . S
Co171 O179 2.055 . S
Co171 O182 2.039 . S
Co171 N185 2.140 . S
C172 O173 1.227 . S
C172 O182 1.265 . S
O173 C172 1.227 . S
N174 Co171 2.121 . S
N174 C176 1.375 . S
N174 C177 1.313 . S
C175 C176 1.338 . S
C175 N178 1.377 . S
C175 H195 0.930 . S
C176 N174 1.375 . S
C176 C175 1.338 . S
C176 H180 0.931 . S
C177 N174 1.313 . S
C177 N178 1.344 . S
C177 H181 0.930 . S
N178 C175 1.377 . S
N178 C177 1.344 . S
O179 Co171 2.055 . S
O179 C183 1.253 . S
H180 C176 0.931 . S
H181 C177 0.930 . S
O182 Co171 2.039 . S
O182 C172 1.265 . S
C183 O179 1.253 . S
C183 O184 1.227 . S
O184 C183 1.227 . S
N185 Co171 2.140 . S
N185 C188 1.346 . S
N185 C189 1.345 . S
C186 C187 1.387 . S
C186 C190 1.391 . S
C187 C186 1.387 . S
C187 C188 1.369 . S
C187 H196 0.929 . S
C188 N185 1.346 . S
C188 C187 1.369 . S
C188 H191 0.928 . S
C189 N185 1.345 . S
C189 C190 1.371 . S
C189 H192 0.931 . S
C190 C186 1.391 . S
C190 C189 1.371 . S
C190 H197 0.930 . S
H191 C188 0.928 . S
H192 C189 0.931 . S
H193 C169 0.930 . S
H194 C166 0.930 . S
H195 C175 0.930 . S
H196 C187 0.929 . S
H197 C190 0.930 . S
C198 C199 1.351 . S
C198 N201 1.368 . S
C198 H203 0.931 . S
C199 C198 1.351 . S
C199 N200 1.373 . S
C199 H227 0.930 . S
N200 C199 1.373 . S
N200 C202 1.340 . S
N201 C198 1.368 . S
N201 C202 1.321 . S
N201 Co204 2.135 . S
C202 N200 1.340 . S
C202 N201 1.321 . S
C202 H226 0.930 . S
H203 C198 0.931 . S
Co204 N201 2.135 . S
Co204 N207 2.121 . S
Co204 O212 2.055 . S
Co204 O215 2.039 . S
Co204 N218 2.140 . S
C205 O206 1.227 . S
C205 O215 1.265 . S
O206 C205 1.227 . S
N207 Co204 2.121 . S
N207 C209 1.375 . S
N207 C210 1.313 . S
C208 C209 1.338 . S
C208 N211 1.377 . S
C208 H228 0.930 . S
C209 N207 1.375 . S
C209 C208 1.338 . S
C209 H213 0.931 . S
C210 N207 1.313 . S
C210 N211 1.344 . S
C210 H214 0.930 . S
N211 C208 1.377 . S
N211 C210 1.344 . S
O212 Co204 2.055 . S
O212 C216 1.253 . S
H213 C209 0.931 . S
H214 C210 0.930 . S
O215 Co204 2.039 . S
O215 C205 1.265 . S
C216 O212 1.253 . S
C216 O217 1.227 . S
O217 C216 1.227 . S
N218 Co204 2.140 . S
N218 C221 1.346 . S
N218 C222 1.345 . S
C219 C220 1.387 . S
C219 C223 1.391 . S
C220 C219 1.387 . S
C220 C221 1.369 . S
C220 H229 0.929 . S
C221 N218 1.346 . S
C221 C220 1.369 . S
C221 H224 0.928 . S
C222 N218 1.345 . S
C222 C223 1.371 . S
C222 H225 0.931 . S
C223 C219 1.391 . S
C223 C222 1.371 . S
C223 H230 0.930 . S
H224 C221 0.928 . S
H225 C222 0.931 . S
H226 C202 0.930 . S
H227 C199 0.930 . S
H228 C208 0.930 . S
H229 C220 0.929 . S
H230 C223 0.930 . S
C231 C232 1.351 . S
C231 N234 1.368 . S
C231 H236 0.931 . S
C232 C231 1.351 . S
C232 N233 1.373 . S
C232 H260 0.930 . S
N233 C232 1.373 . S
N233 C235 1.340 . S
N234 C231 1.368 . S
N234 C235 1.321 . S
N234 Co237 2.135 . S
C235 N233 1.340 . S
C235 N234 1.321 . S
C235 H259 0.930 . S
H236 C231 0.931 . S
Co237 N234 2.135 . S
Co237 N240 2.121 . S
Co237 O245 2.055 . S
Co237 O248 2.039 . S
Co237 N251 2.140 . S
C238 O239 1.227 . S
C238 O248 1.265 . S
O239 C238 1.227 . S
N240 Co237 2.121 . S
N240 C242 1.375 . S
N240 C243 1.313 . S
C241 C242 1.338 . S
C241 N244 1.377 . S
C241 H261 0.930 . S
C242 N240 1.375 . S
C242 C241 1.338 . S
C242 H246 0.931 . S
C243 N240 1.313 . S
C243 N244 1.344 . S
C243 H247 0.930 . S
N244 C241 1.377 . S
N244 C243 1.344 . S
O245 Co237 2.055 . S
O245 C249 1.253 . S
H246 C242 0.931 . S
H247 C243 0.930 . S
O248 Co237 2.039 . S
O248 C238 1.265 . S
C249 O245 1.253 . S
C249 O250 1.227 . S
O250 C249 1.227 . S
N251 Co237 2.140 . S
N251 C254 1.346 . S
N251 C255 1.345 . S
C252 C253 1.387 . S
C252 C256 1.391 . S
C253 C252 1.387 . S
C253 C254 1.369 . S
C253 H262 0.929 . S
C254 N251 1.346 . S
C254 C253 1.369 . S
C254 H257 0.928 . S
C255 N251 1.345 . S
C255 C256 1.371 . S
C255 H258 0.931 . S
C256 C252 1.391 . S
C256 C255 1.371 . S
C256 H263 0.930 . S
H257 C254 0.928 . S
H258 C255 0.931 . S
H259 C235 0.930 . S
H260 C232 0.930 . S
H261 C241 0.930 . S
H262 C253 0.929 . S
H263 C256 0.930 . S
C264 C265 1.351 . S
C264 N267 1.368 . S
C264 H269 0.931 . S
C265 C264 1.351 . S
C265 N266 1.373 . S
C265 H293 0.930 . S
N266 C265 1.373 . S
N266 C268 1.340 . S
N267 C264 1.368 . S
N267 C268 1.321 . S
N267 Co270 2.135 . S
C268 N266 1.340 . S
C268 N267 1.321 . S
C268 H292 0.930 . S
H269 C264 0.931 . S
Co270 N267 2.135 . S
Co270 N273 2.121 . S
Co270 O278 2.055 . S
Co270 O281 2.039 . S
Co270 N284 2.140 . S
C271 O272 1.227 . S
C271 O281 1.265 . S
O272 C271 1.227 . S
N273 Co270 2.121 . S
N273 C275 1.375 . S
N273 C276 1.313 . S
C274 C275 1.338 . S
C274 N277 1.377 . S
C274 H294 0.930 . S
C275 N273 1.375 . S
C275 C274 1.338 . S
C275 H279 0.931 . S
C276 N273 1.313 . S
C276 N277 1.344 . S
C276 H280 0.930 . S
N277 C274 1.377 . S
N277 C276 1.344 . S
O278 Co270 2.055 . S
O278 C282 1.253 . S
H279 C275 0.931 . S
H280 C276 0.930 . S
O281 Co270 2.039 . S
O281 C271 1.265 . S
C282 O278 1.253 . S
C282 O283 1.227 . S
O283 C282 1.227 . S
N284 Co270 2.140 . S
N284 C287 1.346 . S
N284 C288 1.345 . S
C285 C286 1.387 . S
C285 C289 1.391 . S
C286 C285 1.387 . S
C286 C287 1.369 . S
C286 H295 0.929 . S
C287 N284 1.346 . S
C287 C286 1.369 . S
C287 H290 0.928 . S
C288 N284 1.345 . S
C288 C289 1.371 . S
C288 H291 0.931 . S
C289 C285 1.391 . S
C289 C288 1.371 . S
C289 H296 0.930 . S
H290 C287 0.928 . S
H291 C288 0.931 . S
H292 C268 0.930 . S
H293 C265 0.930 . S
H294 C274 0.930 . S
H295 C286 0.929 . S
H296 C289 0.930 . S
C297 C298 1.351 . S
C297 N300 1.368 . S
C297 H302 0.931 . S
C298 C297 1.351 . S
C298 N299 1.373 . S
C298 H326 0.930 . S
N299 C298 1.373 . S
N299 C301 1.340 . S
N300 C297 1.368 . S
N300 C301 1.321 . S
N300 Co303 2.135 . S
C301 N299 1.340 . S
C301 N300 1.321 . S
C301 H325 0.930 . S
H302 C297 0.931 . S
Co303 N300 2.135 . S
Co303 N306 2.121 . S
Co303 O311 2.055 . S
Co303 O314 2.039 . S
Co303 N317 2.140 . S
C304 O305 1.227 . S
C304 O314 1.265 . S
O305 C304 1.227 . S
N306 Co303 2.121 . S
N306 C308 1.375 . S
N306 C309 1.313 . S
C307 C308 1.338 . S
C307 N310 1.377 . S
C307 H327 0.930 . S
C308 N306 1.375 . S
C308 C307 1.338 . S
C308 H312 0.931 . S
C309 N306 1.313 . S
C309 N310 1.344 . S
C309 H313 0.930 . S
N310 C307 1.377 . S
N310 C309 1.344 . S
O311 Co303 2.055 . S
O311 C315 1.253 . S
H312 C308 0.931 . S
H313 C309 0.930 . S
O314 Co303 2.039 . S
O314 C304 1.265 . S
C315 O311 1.253 . S
C315 O316 1.227 . S
O316 C315 1.227 . S
N317 Co303 2.140 . S
N317 C320 1.346 . S
N317 C321 1.345 . S
C318 C319 1.387 . S
C318 C322 1.391 . S
C319 C318 1.387 . S
C319 C320 1.369 . S
C319 H328 0.929 . S
C320 N317 1.346 . S
C320 C319 1.369 . S
C320 H323 0.928 . S
C321 N317 1.345 . S
C321 C322 1.371 . S
C321 H324 0.931 . S
C322 C318 1.391 . S
C322 C321 1.371 . S
C322 H329 0.930 . S
H323 C320 0.928 . S
H324 C321 0.931 . S
H325 C301 0.930 . S
H326 C298 0.930 . S
H327 C307 0.930 . S
H328 C319 0.929 . S
H329 C322 0.930 . S
C330 C331 1.351 . S
C330 N333 1.368 . S
C330 H335 0.931 . S
C331 C330 1.351 . S
C331 N332 1.373 . S
C331 H359 0.930 . S
N332 C331 1.373 . S
N332 C334 1.340 . S
N333 C330 1.368 . S
N333 C334 1.321 . S
N333 Co336 2.135 . S
C334 N332 1.340 . S
C334 N333 1.321 . S
C334 H358 0.930 . S
H335 C330 0.931 . S
Co336 N333 2.135 . S
Co336 N339 2.121 . S
Co336 O344 2.055 . S
Co336 O347 2.039 . S
Co336 N350 2.140 . S
C337 O338 1.227 . S
C337 O347 1.265 . S
O338 C337 1.227 . S
N339 Co336 2.121 . S
N339 C341 1.375 . S
N339 C342 1.313 . S
C340 C341 1.338 . S
C340 N343 1.377 . S
C340 H360 0.930 . S
C341 N339 1.375 . S
C341 C340 1.338 . S
C341 H345 0.931 . S
C342 N339 1.313 . S
C342 N343 1.344 . S
C342 H346 0.930 . S
N343 C340 1.377 . S
N343 C342 1.344 . S
O344 Co336 2.055 . S
O344 C348 1.253 . S
H345 C341 0.931 . S
H346 C342 0.930 . S
O347 Co336 2.039 . S
O347 C337 1.265 . S
C348 O344 1.253 . S
C348 O349 1.227 . S
O349 C348 1.227 . S
N350 Co336 2.140 . S
N350 C353 1.346 . S
N350 C354 1.345 . S
C351 C352 1.387 . S
C351 C355 1.391 . S
C352 C351 1.387 . S
C352 C353 1.369 . S
C352 H361 0.929 . S
C353 N350 1.346 . S
C353 C352 1.369 . S
C353 H356 0.928 . S
C354 N350 1.345 . S
C354 C355 1.371 . S
C354 H357 0.931 . S
C355 C351 1.391 . S
C355 C354 1.371 . S
C355 H362 0.930 . S
H356 C353 0.928 . S
H357 C354 0.931 . S
H358 C334 0.930 . S
H359 C331 0.930 . S
H360 C340 0.930 . S
H361 C352 0.929 . S
H362 C355 0.930 . S
C363 C364 1.351 . S
C363 N366 1.368 . S
C363 H368 0.931 . S
C364 C363 1.351 . S
C364 N365 1.373 . S
C364 H392 0.930 . S
N365 C364 1.373 . S
N365 C367 1.340 . S
N366 C363 1.368 . S
N366 C367 1.321 . S
N366 Co369 2.135 . S
C367 N365 1.340 . S
C367 N366 1.321 . S
C367 H391 0.930 . S
H368 C363 0.931 . S
Co369 N366 2.135 . S
Co369 N372 2.121 . S
Co369 O377 2.055 . S
Co369 O380 2.039 . S
Co369 N383 2.140 . S
C370 O371 1.227 . S
C370 O380 1.265 . S
O371 C370 1.227 . S
N372 Co369 2.121 . S
N372 C374 1.375 . S
N372 C375 1.313 . S
C373 C374 1.338 . S
C373 N376 1.377 . S
C373 H393 0.930 . S
C374 N372 1.375 . S
C374 C373 1.338 . S
C374 H378 0.931 . S
C375 N372 1.313 . S
C375 N376 1.344 . S
C375 H379 0.930 . S
N376 C373 1.377 . S
N376 C375 1.344 . S
O377 Co369 2.055 . S
O377 C381 1.253 . S
H378 C374 0.931 . S
H379 C375 0.930 . S
O380 Co369 2.039 . S
O380 C370 1.265 . S
C381 O377 1.253 . S
C381 O382 1.227 . S
O382 C381 1.227 . S
N383 Co369 2.140 . S
N383 C386 1.346 . S
N383 C387 1.345 . S
C384 C385 1.387 . S
C384 C388 1.391 . S
C385 C384 1.387 . S
C385 C386 1.369 . S
C385 H394 0.929 . S
C386 N383 1.346 . S
C386 C385 1.369 . S
C386 H389 0.928 . S
C387 N383 1.345 . S
C387 C388 1.371 . S
C387 H390 0.931 . S
C388 C384 1.391 . S
C388 C387 1.371 . S
C388 H395 0.930 . S
H389 C386 0.928 . S
H390 C387 0.931 . S
H391 C367 0.930 . S
H392 C364 0.930 . S
H393 C373 0.930 . S
H394 C385 0.929 . S
H395 C388 0.930 . S
C396 C397 1.351 . S
C396 N399 1.368 . S
C396 H401 0.931 . S
C397 C396 1.351 . S
C397 N398 1.373 . S
C397 H425 0.930 . S
N398 C397 1.373 . S
N398 C400 1.340 . S
N399 C396 1.368 . S
N399 C400 1.321 . S
N399 Co402 2.135 . S
C400 N398 1.340 . S
C400 N399 1.321 . S
C400 H424 0.930 . S
H401 C396 0.931 . S
Co402 N399 2.135 . S
Co402 N405 2.121 . S
Co402 O410 2.055 . S
Co402 O413 2.039 . S
Co402 N416 2.140 . S
C403 O404 1.227 . S
C403 O413 1.265 . S
O404 C403 1.227 . S
N405 Co402 2.121 . S
N405 C407 1.375 . S
N405 C408 1.313 . S
C406 C407 1.338 . S
C406 N409 1.377 . S
C406 H426 0.930 . S
C407 N405 1.375 . S
C407 C406 1.338 . S
C407 H411 0.931 . S
C408 N405 1.313 . S
C408 N409 1.344 . S
C408 H412 0.930 . S
N409 C406 1.377 . S
N409 C408 1.344 . S
O410 Co402 2.055 . S
O410 C414 1.253 . S
H411 C407 0.931 . S
H412 C408 0.930 . S
O413 Co402 2.039 . S
O413 C403 1.265 . S
C414 O410 1.253 . S
C414 O415 1.227 . S
O415 C414 1.227 . S
N416 Co402 2.140 . S
N416 C419 1.346 . S
N416 C420 1.345 . S
C417 C418 1.387 . S
C417 C421 1.391 . S
C418 C417 1.387 . S
C418 C419 1.369 . S
C418 H427 0.929 . S
C419 N416 1.346 . S
C419 C418 1.369 . S
C419 H422 0.928 . S
C420 N416 1.345 . S
C420 C421 1.371 . S
C420 H423 0.931 . S
C421 C417 1.391 . S
C421 C420 1.371 . S
C421 H428 0.930 . S
H422 C419 0.928 . S
H423 C420 0.931 . S
H424 C400 0.930 . S
H425 C397 0.930 . S
H426 C406 0.930 . S
H427 C418 0.929 . S
H428 C421 0.930 . S
C429 C430 1.351 . S
C429 N432 1.368 . S
C429 H434 0.931 . S
C430 C429 1.351 . S
C430 N431 1.373 . S
C430 H458 0.930 . S
N431 C430 1.373 . S
N431 C433 1.340 . S
N432 C429 1.368 . S
N432 C433 1.321 . S
N432 Co435 2.135 . S
C433 N431 1.340 . S
C433 N432 1.321 . S
C433 H457 0.930 . S
H434 C429 0.931 . S
Co435 N432 2.135 . S
Co435 N438 2.121 . S
Co435 O443 2.055 . S
Co435 O446 2.039 . S
Co435 N449 2.140 . S
C436 O437 1.227 . S
C436 O446 1.265 . S
O437 C436 1.227 . S
N438 Co435 2.121 . S
N438 C440 1.375 . S
N438 C441 1.313 . S
C439 C440 1.338 . S
C439 N442 1.377 . S
C439 H459 0.930 . S
C440 N438 1.375 . S
C440 C439 1.338 . S
C440 H444 0.931 . S
C441 N438 1.313 . S
C441 N442 1.344 . S
C441 H445 0.930 . S
N442 C439 1.377 . S
N442 C441 1.344 . S
O443 Co435 2.055 . S
O443 C447 1.253 . S
H444 C440 0.931 . S
H445 C441 0.930 . S
O446 Co435 2.039 . S
O446 C436 1.265 . S
C447 O443 1.253 . S
C447 O448 1.227 . S
O448 C447 1.227 . S
N449 Co435 2.140 . S
N449 C452 1.346 . S
N449 C453 1.345 . S
C450 C451 1.387 . S
C450 C454 1.391 . S
C451 C450 1.387 . S
C451 C452 1.369 . S
C451 H460 0.929 . S
C452 N449 1.346 . S
C452 C451 1.369 . S
C452 H455 0.928 . S
C453 N449 1.345 . S
C453 C454 1.371 . S
C453 H456 0.931 . S
C454 C450 1.391 . S
C454 C453 1.371 . S
C454 H461 0.930 . S
H455 C452 0.928 . S
H456 C453 0.931 . S
H457 C433 0.930 . S
H458 C430 0.930 . S
H459 C439 0.930 . S
H460 C451 0.929 . S
H461 C454 0.930 . S
C462 C463 1.351 . S
C462 N465 1.368 . S
C462 H467 0.931 . S
C463 C462 1.351 . S
C463 N464 1.373 . S
C463 H491 0.930 . S
N464 C463 1.373 . S
N464 C466 1.340 . S
N465 C462 1.368 . S
N465 C466 1.321 . S
N465 Co468 2.135 . S
C466 N464 1.340 . S
C466 N465 1.321 . S
C466 H490 0.930 . S
H467 C462 0.931 . S
Co468 N465 2.135 . S
Co468 N471 2.121 . S
Co468 O476 2.055 . S
Co468 O479 2.039 . S
Co468 N482 2.140 . S
C469 O470 1.227 . S
C469 O479 1.265 . S
O470 C469 1.227 . S
N471 Co468 2.121 . S
N471 C473 1.375 . S
N471 C474 1.313 . S
C472 C473 1.338 . S
C472 N475 1.377 . S
C472 H492 0.930 . S
C473 N471 1.375 . S
C473 C472 1.338 . S
C473 H477 0.931 . S
C474 N471 1.313 . S
C474 N475 1.344 . S
C474 H478 0.930 . S
N475 C472 1.377 . S
N475 C474 1.344 . S
O476 Co468 2.055 . S
O476 C480 1.253 . S
H477 C473 0.931 . S
H478 C474 0.930 . S
O479 Co468 2.039 . S
O479 C469 1.265 . S
C480 O476 1.253 . S
C480 O481 1.227 . S
O481 C480 1.227 . S
N482 Co468 2.140 . S
N482 C485 1.346 . S
N482 C486 1.345 . S
C483 C484 1.387 . S
C483 C487 1.391 . S
C484 C483 1.387 . S
C484 C485 1.369 . S
C484 H493 0.929 . S
C485 N482 1.346 . S
C485 C484 1.369 . S
C485 H488 0.928 . S
C486 N482 1.345 . S
C486 C487 1.371 . S
C486 H489 0.931 . S
C487 C483 1.391 . S
C487 C486 1.371 . S
C487 H494 0.930 . S
H488 C485 0.928 . S
H489 C486 0.931 . S
H490 C466 0.930 . S
H491 C463 0.930 . S
H492 C472 0.930 . S
H493 C484 0.929 . S
H494 C487 0.930 . S
C495 C496 1.351 . S
C495 N498 1.368 . S
C495 H500 0.931 . S
C496 C495 1.351 . S
C496 N497 1.373 . S
C496 H524 0.930 . S
N497 C496 1.373 . S
N497 C499 1.340 . S
N498 C495 1.368 . S
N498 C499 1.321 . S
N498 Co501 2.135 . S
C499 N497 1.340 . S
C499 N498 1.321 . S
C499 H523 0.930 . S
H500 C495 0.931 . S
Co501 N498 2.135 . S
Co501 N504 2.121 . S
Co501 O509 2.055 . S
Co501 O512 2.039 . S
Co501 N515 2.140 . S
C502 O503 1.227 . S
C502 O512 1.265 . S
O503 C502 1.227 . S
N504 Co501 2.121 . S
N504 C506 1.375 . S
N504 C507 1.313 . S
C505 C506 1.338 . S
C505 N508 1.377 . S
C505 H525 0.930 . S
C506 N504 1.375 . S
C506 C505 1.338 . S
C506 H510 0.931 . S
C507 N504 1.313 . S
C507 N508 1.344 . S
C507 H511 0.930 . S
N508 C505 1.377 . S
N508 C507 1.344 . S
O509 Co501 2.055 . S
O509 C513 1.253 . S
H510 C506 0.931 . S
H511 C507 0.930 . S
O512 Co501 2.039 . S
O512 C502 1.265 . S
C513 O509 1.253 . S
C513 O514 1.227 . S
O514 C513 1.227 . S
N515 Co501 2.140 . S
N515 C518 1.346 . S
N515 C519 1.345 . S
C516 C517 1.387 . S
C516 C520 1.391 . S
C517 C516 1.387 . S
C517 C518 1.369 . S
C517 H526 0.929 . S
C518 N515 1.346 . S
C518 C517 1.369 . S
C518 H521 0.928 . S
C519 N515 1.345 . S
C519 C520 1.371 . S
C519 H522 0.931 . S
C520 C516 1.391 . S
C520 C519 1.371 . S
C520 H527 0.930 . S
H521 C518 0.928 . S
H522 C519 0.931 . S
H523 C499 0.930 . S
H524 C496 0.930 . S
H525 C505 0.930 . S
H526 C517 0.929 . S
H527 C520 0.930 . S
H528 C534 0.930 . S
H529 C537 0.930 . S
H530 C538 0.930 . S
H531 C539 0.930 . S
H532 C542 0.930 . S
H533 C543 0.930 . S
C534 H528 0.930 . S
C534 C535 1.355 . S
C534 C536 1.415 . S
C535 C534 1.355 . S
C535 C537 1.419 . S
C536 C534 1.415 . S
C536 C541 1.425 1_655 S
C536 C543 1.409 1_655 S
C537 H529 0.930 . S
C537 C535 1.419 . S
C537 C538 1.362 . S
C538 H530 0.930 . S
C538 C537 1.362 . S
C538 C541 1.409 1_655 S
C539 H531 0.930 . S
C539 C540 1.355 . S
C539 C541 1.415 . S
C540 C539 1.355 . S
C540 C542 1.419 . S
C541 C536 1.425 1_455 S
C541 C538 1.409 1_455 S
C541 C539 1.415 . S
C542 H532 0.930 . S
C542 C540 1.419 . S
C542 C543 1.362 . S
C543 H533 0.930 . S
C543 C536 1.409 1_455 S
C543 C542 1.362 . S
H544 C550 0.930 . S
H545 C553 0.930 . S
H546 C554 0.930 . S
H547 C555 0.930 . S
H548 C558 0.930 . S
H549 C559 0.930 . S
C550 H544 0.930 . S
C550 C551 1.355 . S
C550 C552 1.415 . S
C551 C550 1.355 . S
C551 C553 1.419 . S
C552 C550 1.415 . S
C552 C557 1.425 1_545 S
C552 C559 1.409 . S
C553 H545 0.930 . S
C553 C551 1.419 . S
C553 C554 1.362 1_545 S
C554 H546 0.930 . S
C554 C553 1.362 1_565 S
C554 C557 1.409 . S
C555 H547 0.930 . S
C555 C556 1.355 . S
C555 C557 1.415 . S
C556 C555 1.355 . S
C556 C558 1.419 . S
C557 C552 1.425 1_565 S
C557 C554 1.409 . S
C557 C555 1.415 . S
C558 H548 0.930 . S
C558 C556 1.419 . S
C558 C559 1.362 1_565 S
C559 H549 0.930 . S
C559 C552 1.409 . S
C559 C558 1.362 1_545 S
H560 C566 0.930 . S
H561 C569 0.930 . S
H562 C570 0.930 . S
H563 C571 0.930 . S
H564 C574 0.930 . S
H565 C575 0.930 . S
C566 H560 0.930 . S
C566 C567 1.355 . S
C566 C568 1.422 . S
C567 C566 1.355 . S
C567 C569 1.419 . S
C568 C566 1.422 . S
C568 C573 1.425 1_655 S
C568 C575 1.402 1_655 S
C569 H561 0.930 . S
C569 C567 1.419 . S
C569 C570 1.362 . S
C570 H562 0.930 . S
C570 C569 1.362 . S
C570 C573 1.402 1_655 S
C571 H563 0.930 . S
C571 C572 1.355 . S
C571 C573 1.422 . S
C572 C571 1.355 . S
C572 C574 1.419 . S
C573 C568 1.425 1_455 S
C573 C570 1.402 1_455 S
C573 C571 1.422 . S
C574 H564 0.930 . S
C574 C572 1.419 . S
C574 C575 1.362 . S
C575 H565 0.930 . S
C575 C568 1.402 1_455 S
C575 C574 1.362 . S
H576 C582 0.930 . S
H577 C585 0.930 . S
H578 C586 0.926 1_545 S
H579 C587 0.930 . S
H580 C590 0.930 . S
H581 C591 0.926 1_565 S
C582 H576 0.930 . S
C582 C583 1.355 . S
C582 C584 1.415 . S
C583 C582 1.355 . S
C583 C585 1.419 . S
C584 C582 1.415 . S
C584 C589 1.425 1_565 S
C584 C591 1.407 1_565 S
C585 H577 0.930 . S
C585 C583 1.419 . S
C585 C586 1.369 . S
C586 H578 0.926 1_565 S
C586 C585 1.369 . S
C586 C589 1.407 1_565 S
C587 H579 0.930 . S
C587 C588 1.355 . S
C587 C589 1.415 . S
C588 C587 1.355 . S
C588 C590 1.419 . S
C589 C584 1.425 1_545 S
C589 C586 1.407 1_545 S
C589 C587 1.415 . S
C590 H580 0.930 . S
C590 C588 1.419 . S
C590 C591 1.369 . S
C591 H581 0.926 1_545 S
C591 C584 1.407 1_545 S
C591 C590 1.369 . S
H592 C598 0.930 . S
H593 C601 0.930 . S
H594 C602 0.930 . S
H595 C603 0.930 . S
H596 C606 0.930 . S
H597 C607 0.930 . S
C598 H592 0.930 . S
C598 C599 1.355 1_455 S
C598 C600 1.415 . S
C599 C598 1.355 1_655 S
C599 C601 1.419 . S
C600 C598 1.415 . S
C600 C605 1.425 1_455 S
C600 C607 1.409 . S
C601 H593 0.930 . S
C601 C599 1.419 . S
C601 C602 1.362 . S
C602 H594 0.930 . S
C602 C601 1.362 . S
C602 C605 1.409 . S
C603 H595 0.930 . S
C603 C604 1.355 1_655 S
C603 C605 1.415 . S
C604 C603 1.355 1_455 S
C604 C606 1.419 . S
C605 C600 1.425 1_655 S
C605 C602 1.409 . S
C605 C603 1.415 . S
C606 H596 0.930 . S
C606 C604 1.419 . S
C606 C607 1.362 . S
C607 H597 0.930 . S
C607 C600 1.409 . S
C607 C606 1.362 . S
H608 C614 0.930 . S
H609 C617 0.930 . S
H610 C618 0.930 . S
H611 C619 0.930 . S
H612 C622 0.930 . S
H613 C623 0.930 . S
C614 H608 0.930 . S
C614 C615 1.355 . S
C614 C616 1.415 1_565 S
C615 C614 1.355 . S
C615 C617 1.419 . S
C616 C614 1.415 1_545 S
C616 C621 1.425 1_545 S
C616 C623 1.409 . S
C617 H609 0.930 . S
C617 C615 1.419 . S
C617 C618 1.362 . S
C618 H610 0.930 . S
C618 C617 1.362 . S
C618 C621 1.409 . S
C619 H611 0.930 . S
C619 C620 1.355 . S
C619 C621 1.415 1_545 S
C620 C619 1.355 . S
C620 C622 1.419 . S
C621 C616 1.425 1_565 S
C621 C618 1.409 . S
C621 C619 1.415 1_565 S
C622 H612 0.930 . S
C622 C620 1.419 . S
C622 C623 1.362 . S
C623 H613 0.930 . S
C623 C616 1.409 . S
C623 C622 1.362 . S
H624 C630 0.930 . S
H625 C633 0.930 . S
H626 C634 0.930 . S
H627 C635 0.930 . S
H628 C638 0.930 . S
H629 C639 0.930 . S
C630 H624 0.930 . S
C630 C631 1.355 1_455 S
C630 C632 1.415 . S
C631 C630 1.355 1_655 S
C631 C633 1.419 . S
C632 C630 1.415 . S
C632 C637 1.425 1_455 S
C632 C639 1.409 . S
C633 H625 0.930 . S
C633 C631 1.419 . S
C633 C634 1.362 . S
C634 H626 0.930 . S
C634 C633 1.362 . S
C634 C637 1.409 . S
C635 H627 0.930 . S
C635 C636 1.355 1_655 S
C635 C637 1.415 . S
C636 C635 1.355 1_455 S
C636 C638 1.419 . S
C637 C632 1.425 1_655 S
C637 C634 1.409 . S
C637 C635 1.415 . S
C638 H628 0.930 . S
C638 C636 1.419 . S
C638 C639 1.362 . S
C639 H629 0.930 . S
C639 C632 1.409 . S
C639 C638 1.362 . S
H640 C646 0.930 . S
H641 C649 0.930 . S
H642 C650 0.930 . S
H643 C651 0.930 . S
H644 C654 0.930 . S
H645 C655 0.930 . S
C646 H640 0.930 . S
C646 C647 1.355 . S
C646 C648 1.415 . S
C647 C646 1.355 . S
C647 C649 1.419 . S
C648 C646 1.415 . S
C648 C653 1.425 1_545 S
C648 C655 1.409 . S
C649 H641 0.930 . S
C649 C647 1.419 . S
C649 C650 1.362 1_545 S
C650 H642 0.930 . S
C650 C649 1.362 1_565 S
C650 C653 1.409 . S
C651 H643 0.930 . S
C651 C652 1.355 . S
C651 C653 1.415 . S
C652 C651 1.355 . S
C652 C654 1.419 . S
C653 C648 1.425 1_565 S
C653 C650 1.409 . S
C653 C651 1.415 . S
C654 H644 0.930 . S
C654 C652 1.419 . S
C654 C655 1.362 1_565 S
C655 H645 0.930 . S
C655 C648 1.409 . S
C655 C654 1.362 1_545 S
H656 C662 0.930 . S
H657 C665 0.930 . S
H658 C666 0.930 . S
H659 C667 0.930 . S
H660 C670 0.930 . S
H661 C671 0.930 . S
C662 H656 0.930 . S
C662 C663 1.355 . S
C662 C664 1.415 . S
C663 C662 1.355 . S
C663 C665 1.419 . S
C664 C662 1.415 . S
C664 C669 1.425 . S
C664 C671 1.409 . S
C665 H657 0.930 . S
C665 C663 1.419 . S
C665 C666 1.362 . S
C666 H658 0.930 . S
C666 C665 1.362 . S
C666 C669 1.409 . S
C667 H659 0.930 . S
C667 C668 1.355 . S
C667 C669 1.415 . S
C668 C667 1.355 . S
C668 C670 1.419 . S
C669 C664 1.425 . S
C669 C666 1.409 . S
C669 C667 1.415 . S
C670 H660 0.930 . S
C670 C668 1.419 . S
C670 C671 1.362 . S
C671 H661 0.930 . S
C671 C664 1.409 . S
C671 C670 1.362 . S
H672 C678 0.930 . S
H673 C681 0.930 . S
H674 C682 0.930 . S
H675 C683 0.930 . S
H676 C686 0.930 . S
H677 C687 0.930 . S
C678 H672 0.930 . S
C678 C679 1.355 . S
C678 C680 1.415 . S
C679 C678 1.355 . S
C679 C681 1.419 . S
C680 C678 1.415 . S
C680 C685 1.425 . S
C680 C687 1.409 . S
C681 H673 0.930 . S
C681 C679 1.419 . S
C681 C682 1.362 . S
C682 H674 0.930 . S
C682 C681 1.362 . S
C682 C685 1.409 . S
C683 H675 0.930 . S
C683 C684 1.355 . S
C683 C685 1.415 . S
C684 C683 1.355 . S
C684 C686 1.419 . S
C685 C680 1.425 . S
C685 C682 1.409 . S
C685 C683 1.415 . S
C686 H676 0.930 . S
C686 C684 1.419 . S
C686 C687 1.362 . S
C687 H677 0.930 . S
C687 C680 1.409 . S
C687 C686 1.362 . S
H688 C694 0.930 . S
H689 C697 0.930 . S
H690 C698 0.930 . S
H691 C699 0.930 . S
H692 C702 0.930 . S
H693 C703 0.930 . S
C694 H688 0.930 . S
C694 C695 1.355 . S
C694 C696 1.415 . S
C695 C694 1.355 . S
C695 C697 1.419 . S
C696 C694 1.415 . S
C696 C701 1.425 . S
C696 C703 1.409 . S
C697 H689 0.930 . S
C697 C695 1.419 . S
C697 C698 1.362 . S
C698 H690 0.930 . S
C698 C697 1.362 . S
C698 C701 1.409 . S
C699 H691 0.930 . S
C699 C700 1.355 . S
C699 C701 1.415 . S
C700 C699 1.355 . S
C700 C702 1.419 . S
C701 C696 1.425 . S
C701 C698 1.409 . S
C701 C699 1.415 . S
C702 H692 0.930 . S
C702 C700 1.419 . S
C702 C703 1.362 . S
C703 H693 0.930 . S
C703 C696 1.409 . S
C703 C702 1.362 . S
H704 C710 0.930 . S
H705 C713 0.930 . S
H706 C714 0.930 . S
H707 C715 0.930 . S
H708 C718 0.930 . S
H709 C719 0.930 . S
C710 H704 0.930 . S
C710 C711 1.355 . S
C710 C712 1.415 . S
C711 C710 1.355 . S
C711 C713 1.419 . S
C712 C710 1.415 . S
C712 C717 1.425 . S
C712 C719 1.409 . S
C713 H705 0.930 . S
C713 C711 1.419 . S
C713 C714 1.362 . S
C714 H706 0.930 . S
C714 C713 1.362 . S
C714 C717 1.409 . S
C715 H707 0.930 . S
C715 C716 1.355 . S
C715 C717 1.415 . S
C716 C715 1.355 . S
C716 C718 1.419 . S
C717 C712 1.425 . S
C717 C714 1.409 . S
C717 C715 1.415 . S
C718 H708 0.930 . S
C718 C716 1.419 . S
C718 C719 1.362 . S
C719 H709 0.930 . S
C719 C712 1.409 . S
C719 C718 1.362 . S
H720 C726 0.930 . S
H721 C729 0.930 . S
H722 C730 0.930 . S
H723 C731 0.930 . S
H724 C734 0.930 . S
H725 C735 0.930 . S
C726 H720 0.930 . S
C726 C727 1.355 . S
C726 C728 1.415 . S
C727 C726 1.355 . S
C727 C729 1.419 . S
C728 C726 1.415 . S
C728 C733 1.425 . S
C728 C735 1.409 . S
C729 H721 0.930 . S
C729 C727 1.419 . S
C729 C730 1.362 . S
C730 H722 0.930 . S
C730 C729 1.362 . S
C730 C733 1.409 . S
C731 H723 0.930 . S
C731 C732 1.355 . S
C731 C733 1.415 . S
C732 C731 1.355 . S
C732 C734 1.419 . S
C733 C728 1.425 . S
C733 C730 1.409 . S
C733 C731 1.415 . S
C734 H724 0.930 . S
C734 C732 1.419 . S
C734 C735 1.362 . S
C735 H725 0.930 . S
C735 C728 1.409 . S
C735 C734 1.362 . S
H736 C742 0.930 . S
H737 C745 0.930 . S
H738 C746 0.930 . S
H739 C747 0.930 . S
H740 C750 0.930 . S
H741 C751 0.930 . S
C742 H736 0.930 . S
C742 C743 1.355 . S
C742 C744 1.415 . S
C743 C742 1.355 . S
C743 C745 1.419 . S
C744 C742 1.415 . S
C744 C749 1.425 . S
C744 C751 1.409 . S
C745 H737 0.930 . S
C745 C743 1.419 . S
C745 C746 1.362 . S
C746 H738 0.930 . S
C746 C745 1.362 . S
C746 C749 1.409 . S
C747 H739 0.930 . S
C747 C748 1.355 . S
C747 C749 1.415 . S
C748 C747 1.355 . S
C748 C750 1.419 . S
C749 C744 1.425 . S
C749 C746 1.409 . S
C749 C747 1.415 . S
C750 H740 0.930 . S
C750 C748 1.419 . S
C750 C751 1.362 . S
C751 H741 0.930 . S
C751 C744 1.409 . S
C751 C750 1.362 . S
H752 C758 0.930 . S
H753 C761 0.930 . S
H754 C762 0.930 . S
H755 C763 0.930 . S
H756 C766 0.930 . S
H757 C767 0.930 . S
C758 H752 0.930 . S
C758 C759 1.355 . S
C758 C760 1.415 . S
C759 C758 1.355 . S
C759 C761 1.419 . S
C760 C758 1.415 . S
C760 C765 1.425 . S
C760 C767 1.409 . S
C761 H753 0.930 . S
C761 C759 1.419 . S
C761 C762 1.362 . S
C762 H754 0.930 . S
C762 C761 1.362 . S
C762 C765 1.409 . S
C763 H755 0.930 . S
C763 C764 1.355 . S
C763 C765 1.415 . S
C764 C763 1.355 . S
C764 C766 1.419 . S
C765 C760 1.425 . S
C765 C762 1.409 . S
C765 C763 1.415 . S
C766 H756 0.930 . S
C766 C764 1.419 . S
C766 C767 1.362 . S
C767 H757 0.930 . S
C767 C760 1.409 . S
C767 C766 1.362 . S
H768 C774 0.930 . S
H769 C777 0.930 . S
H770 C778 0.930 . S
H771 C779 0.930 . S
H772 C782 0.930 . S
H773 C783 0.930 . S
C774 H768 0.930 . S
C774 C775 1.355 . S
C774 C776 1.415 . S
C775 C774 1.355 . S
C775 C777 1.419 . S
C776 C774 1.415 . S
C776 C781 1.425 . S
C776 C783 1.409 . S
C777 H769 0.930 . S
C777 C775 1.419 . S
C777 C778 1.362 . S
C778 H770 0.930 . S
C778 C777 1.362 . S
C778 C781 1.409 . S
C779 H771 0.930 . S
C779 C780 1.355 . S
C779 C781 1.415 . S
C780 C779 1.355 . S
C780 C782 1.419 . S
C781 C776 1.425 . S
C781 C778 1.409 . S
C781 C779 1.415 . S
C782 H772 0.930 . S
C782 C780 1.419 . S
C782 C783 1.362 . S
C783 H773 0.930 . S
C783 C776 1.409 . S
C783 C782 1.362 . S
H784 C790 0.930 . S
H785 C793 0.930 . S
H786 C794 0.930 . S
H787 C795 0.930 . S
H788 C798 0.930 . S
H789 C799 0.930 . S
C790 H784 0.930 . S
C790 C791 1.355 . S
C790 C792 1.415 . S
C791 C790 1.355 . S
C791 C793 1.419 . S
C792 C790 1.415 . S
C792 C797 1.425 1_554 S
C792 C799 1.409 1_554 S
C793 H785 0.930 . S
C793 C791 1.419 . S
C793 C794 1.362 . S
C794 H786 0.930 . S
C794 C793 1.362 . S
C794 C797 1.409 1_554 S
C795 H787 0.930 . S
C795 C796 1.355 . S
C795 C797 1.415 . S
C796 C795 1.355 . S
C796 C798 1.419 . S
C797 C792 1.425 1_556 S
C797 C794 1.409 1_556 S
C797 C795 1.415 . S
C798 H788 0.930 . S
C798 C796 1.419 . S
C798 C799 1.362 . S
C799 H789 0.930 . S
C799 C792 1.409 1_556 S
C799 C798 1.362 . S
H800 C806 0.930 . S
H801 C809 0.930 . S
H802 C810 0.927 1_554 S
H803 C811 0.930 . S
H804 C814 0.930 . S
H805 C815 0.927 1_556 S
C806 H800 0.930 . S
C806 C807 1.355 . S
C806 C808 1.415 . S
C807 C806 1.355 . S
C807 C809 1.419 . S
C808 C806 1.415 . S
C808 C813 1.425 1_556 S
C808 C815 1.409 1_556 S
C809 H801 0.930 . S
C809 C807 1.419 . S
C809 C810 1.362 . S
C810 H802 0.927 1_556 S
C810 C809 1.362 . S
C810 C813 1.409 1_556 S
C811 H803 0.930 . S
C811 C812 1.355 . S
C811 C813 1.415 . S
C812 C811 1.355 . S
C812 C814 1.419 . S
C813 C808 1.425 1_554 S
C813 C810 1.409 1_554 S
C813 C811 1.415 . S
C814 H804 0.930 . S
C814 C812 1.419 . S
C814 C815 1.362 . S
C815 H805 0.927 1_554 S
C815 C808 1.409 1_554 S
C815 C814 1.362 . S
H816 C822 0.930 . S
H817 C825 0.930 . S
H818 C826 0.930 . S
H819 C827 0.930 . S
H820 C830 0.930 . S
H821 C831 0.930 . S
C822 H816 0.930 . S
C822 C823 1.355 . S
C822 C824 1.415 . S
C823 C822 1.355 . S
C823 C825 1.419 . S
C824 C822 1.415 . S
C824 C829 1.425 1_556 S
C824 C831 1.409 1_556 S
C825 H817 0.930 . S
C825 C823 1.419 . S
C825 C826 1.362 . S
C826 H818 0.930 . S
C826 C825 1.362 . S
C826 C829 1.409 1_556 S
C827 H819 0.930 . S
C827 C828 1.355 . S
C827 C829 1.415 . S
C828 C827 1.355 . S
C828 C830 1.419 . S
C829 C824 1.425 1_554 S
C829 C826 1.409 1_554 S
C829 C827 1.415 . S
C830 H820 0.930 . S
C830 C828 1.419 . S
C830 C831 1.362 . S
C831 H821 0.930 . S
C831 C824 1.409 1_554 S
C831 C830 1.362 . S
H832 C838 0.930 . S
H833 C841 0.930 . S
H834 C842 0.930 . S
H835 C843 0.930 . S
H836 C846 0.930 . S
H837 C847 0.930 . S
C838 H832 0.930 . S
C838 C839 1.355 . S
C838 C840 1.415 . S
C839 C838 1.355 . S
C839 C841 1.419 . S
C840 C838 1.415 . S
C840 C845 1.425 1_556 S
C840 C847 1.409 1_556 S
C841 H833 0.930 . S
C841 C839 1.419 . S
C841 C842 1.362 . S
C842 H834 0.930 . S
C842 C841 1.362 . S
C842 C845 1.409 1_556 S
C843 H835 0.930 . S
C843 C844 1.355 . S
C843 C845 1.415 . S
C844 C843 1.355 . S
C844 C846 1.419 . S
C845 C840 1.425 1_554 S
C845 C842 1.409 1_554 S
C845 C843 1.415 . S
C846 H836 0.930 . S
C846 C844 1.419 . S
C846 C847 1.362 . S
C847 H837 0.930 . S
C847 C840 1.409 1_554 S
C847 C846 1.362 . S
H848 C854 0.930 . S
H849 C857 0.930 . S
H850 C858 0.930 . S
H851 C859 0.930 . S
H852 C862 0.930 . S
H853 C863 0.930 . S
C854 H848 0.930 . S
C854 C855 1.355 . S
C854 C856 1.415 . S
C855 C854 1.355 . S
C855 C857 1.419 . S
C856 C854 1.415 . S
C856 C861 1.425 . S
C856 C863 1.409 . S
C857 H849 0.930 . S
C857 C855 1.419 . S
C857 C858 1.362 . S
C858 H850 0.930 . S
C858 C857 1.362 . S
C858 C861 1.409 . S
C859 H851 0.930 . S
C859 C860 1.355 . S
C859 C861 1.415 . S
C860 C859 1.355 . S
C860 C862 1.419 . S
C861 C856 1.425 . S
C861 C858 1.409 . S
C861 C859 1.415 . S
C862 H852 0.930 . S
C862 C860 1.419 . S
C862 C863 1.362 . S
C863 H853 0.930 . S
C863 C856 1.409 . S
C863 C862 1.362 . S
H864 C870 0.930 . S
H865 C873 0.930 . S
H866 C874 0.930 . S
H867 C875 0.930 . S
H868 C878 0.930 . S
H869 C879 0.930 . S
C870 H864 0.930 . S
C870 C871 1.355 . S
C870 C872 1.415 . S
C871 C870 1.355 . S
C871 C873 1.419 . S
C872 C870 1.415 . S
C872 C877 1.425 . S
C872 C879 1.409 . S
C873 H865 0.930 . S
C873 C871 1.419 . S
C873 C874 1.362 . S
C874 H866 0.930 . S
C874 C873 1.362 . S
C874 C877 1.409 . S
C875 H867 0.930 . S
C875 C876 1.355 . S
C875 C877 1.415 . S
C876 C875 1.355 . S
C876 C878 1.419 . S
C877 C872 1.425 . S
C877 C874 1.409 . S
C877 C875 1.415 . S
C878 H868 0.930 . S
C878 C876 1.419 . S
C878 C879 1.362 . S
C879 H869 0.930 . S
C879 C872 1.409 . S
C879 C878 1.362 . S
H880 C886 0.930 . S
H881 C889 0.930 . S
H882 C890 0.930 . S
H883 C891 0.930 . S
H884 C894 0.930 . S
H885 C895 0.930 . S
C886 H880 0.930 . S
C886 C887 1.355 . S
C886 C888 1.415 . S
C887 C886 1.355 . S
C887 C889 1.419 . S
C888 C886 1.415 . S
C888 C893 1.425 . S
C888 C895 1.409 . S
C889 H881 0.930 . S
C889 C887 1.419 . S
C889 C890 1.362 . S
C890 H882 0.930 . S
C890 C889 1.362 . S
C890 C893 1.409 . S
C891 H883 0.930 . S
C891 C892 1.355 . S
C891 C893 1.415 . S
C892 C891 1.355 . S
C892 C894 1.419 . S
C893 C888 1.425 . S
C893 C890 1.409 . S
C893 C891 1.415 . S
C894 H884 0.930 . S
C894 C892 1.419 . S
C894 C895 1.362 . S
C895 H885 0.930 . S
C895 C888 1.409 . S
C895 C894 1.362 . S
H896 C902 0.930 . S
H897 C905 0.930 . S
H898 C906 0.930 . S
H899 C907 0.930 . S
H900 C910 0.930 . S
H901 C911 0.930 . S
C902 H896 0.930 . S
C902 C903 1.355 . S
C902 C904 1.415 . S
C903 C902 1.355 . S
C903 C905 1.419 . S
C904 C902 1.415 . S
C904 C909 1.425 . S
C904 C911 1.409 . S
C905 H897 0.930 . S
C905 C903 1.419 . S
C905 C906 1.362 . S
C906 H898 0.930 . S
C906 C905 1.362 . S
C906 C909 1.409 . S
C907 H899 0.930 . S
C907 C908 1.355 . S
C907 C909 1.415 . S
C908 C907 1.355 . S
C908 C910 1.419 . S
C909 C904 1.425 . S
C909 C906 1.409 . S
C909 C907 1.415 . S
C910 H900 0.930 . S
C910 C908 1.419 . S
C910 C911 1.362 . S
C911 H901 0.930 . S
C911 C904 1.409 . S
C911 C910 1.362 . S
H912 C918 0.930 . S
H913 C921 0.930 . S
H914 C922 0.930 . S
H915 C923 0.930 . S
H916 C926 0.930 . S
H917 C927 0.930 . S
C918 H912 0.930 . S
C918 C919 1.355 . S
C918 C920 1.415 . S
C919 C918 1.355 . S
C919 C921 1.419 . S
C920 C918 1.415 . S
C920 C925 1.425 . S
C920 C927 1.409 . S
C921 H913 0.930 . S
C921 C919 1.419 . S
C921 C922 1.362 . S
C922 H914 0.930 . S
C922 C921 1.362 . S
C922 C925 1.409 . S
C923 H915 0.930 . S
C923 C924 1.355 . S
C923 C925 1.415 . S
C924 C923 1.355 . S
C924 C926 1.419 . S
C925 C920 1.425 . S
C925 C922 1.409 . S
C925 C923 1.415 . S
C926 H916 0.930 . S
C926 C924 1.419 . S
C926 C927 1.362 . S
C927 H917 0.930 . S
C927 C920 1.409 . S
C927 C926 1.362 . S
H928 C934 0.930 . S
H929 C937 0.930 . S
H930 C938 0.930 . S
H931 C939 0.930 . S
H932 C942 0.930 . S
H933 C943 0.930 . S
C934 H928 0.930 . S
C934 C935 1.355 . S
C934 C936 1.415 . S
C935 C934 1.355 . S
C935 C937 1.419 . S
C936 C934 1.415 . S
C936 C941 1.425 . S
C936 C943 1.409 . S
C937 H929 0.930 . S
C937 C935 1.419 . S
C937 C938 1.362 . S
C938 H930 0.930 . S
C938 C937 1.362 . S
C938 C941 1.409 . S
C939 H931 0.930 . S
C939 C940 1.355 . S
C939 C941 1.415 . S
C940 C939 1.355 . S
C940 C942 1.419 . S
C941 C936 1.425 . S
C941 C938 1.409 . S
C941 C939 1.415 . S
C942 H932 0.930 . S
C942 C940 1.419 . S
C942 C943 1.362 . S
C943 H933 0.930 . S
C943 C936 1.409 . S
C943 C942 1.362 . S
H944 C950 0.930 . S
H945 C953 0.930 . S
H946 C954 0.930 . S
H947 C955 0.930 . S
H948 C958 0.930 . S
H949 C959 0.930 . S
C950 H944 0.930 . S
C950 C951 1.355 . S
C950 C952 1.415 . S
C951 C950 1.355 . S
C951 C953 1.419 . S
C952 C950 1.415 . S
C952 C957 1.425 . S
C952 C959 1.409 . S
C953 H945 0.930 . S
C953 C951 1.419 . S
C953 C954 1.362 . S
C954 H946 0.930 . S
C954 C953 1.362 . S
C954 C957 1.409 . S
C955 H947 0.930 . S
C955 C956 1.355 . S
C955 C957 1.415 . S
C956 C955 1.355 . S
C956 C958 1.419 . S
C957 C952 1.425 . S
C957 C954 1.409 . S
C957 C955 1.415 . S
C958 H948 0.930 . S
C958 C956 1.419 . S
C958 C959 1.362 . S
C959 H949 0.930 . S
C959 C952 1.409 . S
C959 C958 1.362 . S
H960 C966 0.930 . S
H961 C969 0.930 . S
H962 C970 0.930 . S
H963 C971 0.930 . S
H964 C974 0.930 . S
H965 C975 0.930 . S
C966 H960 0.930 . S
C966 C967 1.355 . S
C966 C968 1.415 . S
C967 C966 1.355 . S
C967 C969 1.419 . S
C968 C966 1.415 . S
C968 C973 1.425 . S
C968 C975 1.409 . S
C969 H961 0.930 . S
C969 C967 1.419 . S
C969 C970 1.362 . S
C970 H962 0.930 . S
C970 C969 1.362 . S
C970 C973 1.409 . S
C971 H963 0.930 . S
C971 C972 1.355 . S
C971 C973 1.415 . S
C972 C971 1.355 . S
C972 C974 1.419 . S
C973 C968 1.425 . S
C973 C970 1.409 . S
C973 C971 1.415 . S
C974 H964 0.930 . S
C974 C972 1.419 . S
C974 C975 1.362 . S
C975 H965 0.930 . S
C975 C968 1.409 . S
C975 C974 1.362 . S
H976 C982 0.930 . S
H977 C985 0.930 . S
H978 C986 0.930 . S
H979 C987 0.930 . S
H980 C990 0.930 . S
H981 C991 0.930 . S
C982 H976 0.930 . S
C982 C983 1.355 . S
C982 C984 1.415 . S
C983 C982 1.355 . S
C983 C985 1.419 . S
C984 C982 1.415 . S
C984 C989 1.425 . S
C984 C991 1.409 . S
C985 H977 0.930 . S
C985 C983 1.419 . S
C985 C986 1.362 . S
C986 H978 0.930 . S
C986 C985 1.362 . S
C986 C989 1.409 . S
C987 H979 0.930 . S
C987 C988 1.355 . S
C987 C989 1.415 . S
C988 C987 1.355 . S
C988 C990 1.419 . S
C989 C984 1.425 . S
C989 C986 1.409 . S
C989 C987 1.415 . S
C990 H980 0.930 . S
C990 C988 1.419 . S
C990 C991 1.362 . S
C991 H981 0.930 . S
C991 C984 1.409 . S
C991 C990 1.362 . S
H992 C998 0.930 . S
H993 C1001 0.930 . S
H994 C1002 0.930 . S
H995 C1003 0.930 . S
H996 C1006 0.930 . S
H997 C1007 0.930 . S
C998 H992 0.930 . S
C998 C999 1.355 . S
C998 C1000 1.415 . S
C999 C998 1.355 . S
C999 C1001 1.419 . S
C1000 C998 1.415 . S
C1000 C1005 1.425 . S
C1000 C1007 1.409 . S
C1001 H993 0.930 . S
C1001 C999 1.419 . S
C1001 C1002 1.362 . S
C1002 H994 0.930 . S
C1002 C1001 1.362 . S
C1002 C1005 1.409 . S
C1003 H995 0.930 . S
C1003 C1004 1.355 . S
C1003 C1005 1.415 . S
C1004 C1003 1.355 . S
C1004 C1006 1.419 . S
C1005 C1000 1.425 . S
C1005 C1002 1.409 . S
C1005 C1003 1.415 . S
C1006 H996 0.930 . S
C1006 C1004 1.419 . S
C1006 C1007 1.362 . S
C1007 H997 0.930 . S
C1007 C1000 1.409 . S
C1007 C1006 1.362 . S
H1008 C1014 0.930 . S
H1009 C1017 0.930 . S
H1010 C1018 0.930 . S
H1011 C1019 0.930 . S
H1012 C1022 0.930 . S
H1013 C1023 0.930 . S
C1014 H1008 0.930 . S
C1014 C1015 1.355 . S
C1014 C1016 1.415 . S
C1015 C1014 1.355 . S
C1015 C1017 1.419 . S
C1016 C1014 1.415 . S
C1016 C1021 1.425 . S
C1016 C1023 1.409 . S
C1017 H1009 0.930 . S
C1017 C1015 1.419 . S
C1017 C1018 1.362 . S
C1018 H1010 0.930 . S
C1018 C1017 1.362 . S
C1018 C1021 1.409 . S
C1019 H1011 0.930 . S
C1019 C1020 1.355 . S
C1019 C1021 1.415 . S
C1020 C1019 1.355 . S
C1020 C1022 1.419 . S
C1021 C1016 1.425 . S
C1021 C1018 1.409 . S
C1021 C1019 1.415 . S
C1022 H1012 0.930 . S
C1022 C1020 1.419 . S
C1022 C1023 1.362 . S
C1023 H1013 0.930 . S
C1023 C1016 1.409 . S
C1023 C1022 1.362 . S
H1024 C1030 0.930 . S
H1025 C1033 0.930 . S
H1026 C1034 0.930 . S
H1027 C1035 0.930 . S
H1028 C1038 0.930 . S
H1029 C1039 0.930 . S
C1030 H1024 0.930 . S
C1030 C1031 1.355 . S
C1030 C1032 1.415 . S
C1031 C1030 1.355 . S
C1031 C1033 1.419 . S
C1032 C1030 1.415 . S
C1032 C1037 1.425 . S
C1032 C1039 1.409 . S
C1033 H1025 0.930 . S
C1033 C1031 1.419 . S
C1033 C1034 1.362 . S
C1034 H1026 0.930 . S
C1034 C1033 1.362 . S
C1034 C1037 1.409 . S
C1035 H1027 0.930 . S
C1035 C1036 1.355 . S
C1035 C1037 1.415 . S
C1036 C1035 1.355 . S
C1036 C1038 1.419 . S
C1037 C1032 1.425 . S
C1037 C1034 1.409 . S
C1037 C1035 1.415 . S
C1038 H1028 0.930 . S
C1038 C1036 1.419 . S
C1038 C1039 1.362 . S
C1039 H1029 0.930 . S
C1039 C1032 1.409 . S
C1039 C1038 1.362 . S
H1040 C1046 0.930 . S
H1041 C1049 0.930 . S
H1042 C1050 0.930 . S
H1043 C1051 0.930 . S
H1044 C1054 0.930 . S
H1045 C1055 0.930 . S
C1046 H1040 0.930 . S
C1046 C1047 1.355 . S
C1046 C1048 1.415 . S
C1047 C1046 1.355 . S
C1047 C1049 1.419 . S
C1048 C1046 1.415 . S
C1048 C1053 1.425 1_545 S
C1048 C1055 1.409 . S
C1049 H1041 0.930 . S
C1049 C1047 1.419 . S
C1049 C1050 1.362 1_545 S
C1050 H1042 0.930 . S
C1050 C1049 1.362 1_565 S
C1050 C1053 1.409 . S
C1051 H1043 0.930 . S
C1051 C1052 1.355 . S
C1051 C1053 1.415 . S
C1052 C1051 1.355 . S
C1052 C1054 1.419 . S
C1053 C1048 1.425 1_565 S
C1053 C1050 1.409 . S
C1053 C1051 1.415 . S
C1054 H1044 0.930 . S
C1054 C1052 1.419 . S
C1054 C1055 1.362 1_565 S
C1055 H1045 0.930 . S
C1055 C1048 1.409 . S
C1055 C1054 1.362 1_545 S
H1056 C1062 0.930 . S
H1057 C1065 0.930 . S
H1058 C1066 0.930 . S
H1059 C1067 0.930 . S
H1060 C1070 0.930 . S
H1061 C1071 0.930 . S
C1062 H1056 0.930 . S
C1062 C1063 1.355 . S
C1062 C1064 1.415 1_655 S
C1063 C1062 1.355 . S
C1063 C1065 1.419 . S
C1064 C1062 1.415 1_455 S
C1064 C1069 1.425 1_455 S
C1064 C1071 1.409 . S
C1065 H1057 0.930 . S
C1065 C1063 1.419 . S
C1065 C1066 1.362 . S
C1066 H1058 0.930 . S
C1066 C1065 1.362 . S
C1066 C1069 1.409 . S
C1067 H1059 0.930 . S
C1067 C1068 1.355 . S
C1067 C1069 1.415 1_455 S
C1068 C1067 1.355 . S
C1068 C1070 1.419 . S
C1069 C1064 1.425 1_655 S
C1069 C1066 1.409 . S
C1069 C1067 1.415 1_655 S
C1070 H1060 0.930 . S
C1070 C1068 1.419 . S
C1070 C1071 1.362 . S
C1071 H1061 0.930 . S
C1071 C1064 1.409 . S
C1071 C1070 1.362 . S
H1072 C1078 0.930 . S
H1073 C1081 0.930 . S
H1074 C1082 0.930 . S
H1075 C1083 0.930 . S
H1076 C1086 0.930 . S
H1077 C1087 0.930 . S
C1078 H1072 0.930 . S
C1078 C1079 1.355 . S
C1078 C1080 1.415 . S
C1079 C1078 1.355 . S
C1079 C1081 1.419 . S
C1080 C1078 1.415 . S
C1080 C1085 1.425 1_545 S
C1080 C1087 1.409 . S
C1081 H1073 0.930 . S
C1081 C1079 1.419 . S
C1081 C1082 1.362 1_545 S
C1082 H1074 0.930 . S
C1082 C1081 1.362 1_565 S
C1082 C1085 1.409 . S
C1083 H1075 0.930 . S
C1083 C1084 1.355 . S
C1083 C1085 1.415 . S
C1084 C1083 1.355 . S
C1084 C1086 1.419 . S
C1085 C1080 1.425 1_565 S
C1085 C1082 1.409 . S
C1085 C1083 1.415 . S
C1086 H1076 0.930 . S
C1086 C1084 1.419 . S
C1086 C1087 1.362 1_565 S
C1087 H1077 0.930 . S
C1087 C1080 1.409 . S
C1087 C1086 1.362 1_545 S
H1088 C1094 0.930 . S
H1089 C1097 0.930 . S
H1090 C1098 0.930 . S
H1091 C1099 0.930 . S
H1092 C1102 0.930 . S
H1093 C1103 0.930 . S
C1094 H1088 0.930 . S
C1094 C1095 1.355 . S
C1094 C1096 1.415 . S
C1095 C1094 1.355 . S
C1095 C1097 1.419 . S
C1096 C1094 1.415 . S
C1096 C1101 1.425 1_655 S
C1096 C1103 1.409 . S
C1097 H1089 0.930 . S
C1097 C1095 1.419 . S
C1097 C1098 1.362 1_655 S
C1098 H1090 0.930 . S
C1098 C1097 1.362 1_455 S
C1098 C1101 1.409 . S
C1099 H1091 0.930 . S
C1099 C1100 1.355 . S
C1099 C1101 1.415 . S
C1100 C1099 1.355 . S
C1100 C1102 1.419 . S
C1101 C1096 1.425 1_455 S
C1101 C1098 1.409 . S
C1101 C1099 1.415 . S
C1102 H1092 0.930 . S
C1102 C1100 1.419 . S
C1102 C1103 1.362 1_455 S
C1103 H1093 0.930 . S
C1103 C1096 1.409 . S
C1103 C1102 1.362 1_655 S
H1104 C1110 0.930 . S
H1105 C1113 0.930 . S
H1106 C1114 0.930 . S
H1107 C1115 0.930 . S
H1108 C1118 0.930 . S
H1109 C1119 0.930 . S
C1110 H1104 0.930 . S
C1110 C1111 1.355 . S
C1110 C1112 1.415 1_565 S
C1111 C1110 1.355 . S
C1111 C1113 1.419 . S
C1112 C1110 1.415 1_545 S
C1112 C1117 1.425 1_545 S
C1112 C1119 1.409 . S
C1113 H1105 0.930 . S
C1113 C1111 1.419 . S
C1113 C1114 1.362 . S
C1114 H1106 0.930 . S
C1114 C1113 1.362 . S
C1114 C1117 1.409 . S
C1115 H1107 0.930 . S
C1115 C1116 1.355 . S
C1115 C1117 1.415 1_545 S
C1116 C1115 1.355 . S
C1116 C1118 1.419 . S
C1117 C1112 1.425 1_565 S
C1117 C1114 1.409 . S
C1117 C1115 1.415 1_565 S
C1118 H1108 0.930 . S
C1118 C1116 1.419 . S
C1118 C1119 1.362 . S
C1119 H1109 0.930 . S
C1119 C1112 1.409 . S
C1119 C1118 1.362 . S
H1120 C1126 0.930 . S
H1121 C1129 0.930 . S
H1122 C1130 0.930 . S
H1123 C1131 0.930 . S
H1124 C1134 0.930 . S
H1125 C1135 0.930 . S
C1126 H1120 0.930 . S
C1126 C1127 1.355 . S
C1126 C1128 1.415 1_455 S
C1127 C1126 1.355 . S
C1127 C1129 1.419 . S
C1128 C1126 1.415 1_655 S
C1128 C1133 1.425 1_655 S
C1128 C1135 1.409 . S
C1129 H1121 0.930 . S
C1129 C1127 1.419 . S
C1129 C1130 1.362 . S
C1130 H1122 0.930 . S
C1130 C1129 1.362 . S
C1130 C1133 1.409 . S
C1131 H1123 0.930 . S
C1131 C1132 1.355 . S
C1131 C1133 1.415 1_655 S
C1132 C1131 1.355 . S
C1132 C1134 1.419 . S
C1133 C1128 1.425 1_455 S
C1133 C1130 1.409 . S
C1133 C1131 1.415 1_455 S
C1134 H1124 0.930 . S
C1134 C1132 1.419 . S
C1134 C1135 1.362 . S
C1135 H1125 0.930 . S
C1135 C1128 1.409 . S
C1135 C1134 1.362 . S
H1136 C1142 0.930 . S
H1137 C1145 0.930 . S
H1138 C1146 0.930 . S
H1139 C1147 0.930 . S
H1140 C1150 0.930 . S
H1141 C1151 0.930 . S
C1142 H1136 0.930 . S
C1142 C1143 1.355 . S
C1142 C1144 1.415 1_565 S
C1143 C1142 1.355 . S
C1143 C1145 1.419 . S
C1144 C1142 1.415 1_545 S
C1144 C1149 1.425 1_545 S
C1144 C1151 1.409 . S
C1145 H1137 0.930 . S
C1145 C1143 1.419 . S
C1145 C1146 1.362 . S
C1146 H1138 0.930 . S
C1146 C1145 1.362 . S
C1146 C1149 1.409 . S
C1147 H1139 0.930 . S
C1147 C1148 1.355 . S
C1147 C1149 1.415 1_545 S
C1148 C1147 1.355 . S
C1148 C1150 1.419 . S
C1149 C1144 1.425 1_565 S
C1149 C1146 1.409 . S
C1149 C1147 1.415 1_565 S
C1150 H1140 0.930 . S
C1150 C1148 1.419 . S
C1150 C1151 1.362 . S
C1151 H1141 0.930 . S
C1151 C1144 1.409 . S
C1151 C1150 1.362 . S
H1152 C1158 0.930 . S
H1153 C1161 0.930 . S
H1154 C1162 0.930 . S
H1155 C1163 0.930 . S
H1156 C1166 0.930 . S
H1157 C1167 0.930 . S
C1158 H1152 0.930 . S
C1158 C1159 1.355 . S
C1158 C1160 1.415 1_655 S
C1159 C1158 1.355 . S
C1159 C1161 1.419 . S
C1160 C1158 1.415 1_455 S
C1160 C1165 1.425 1_455 S
C1160 C1167 1.409 . S
C1161 H1153 0.930 . S
C1161 C1159 1.419 . S
C1161 C1162 1.362 . S
C1162 H1154 0.930 . S
C1162 C1161 1.362 . S
C1162 C1165 1.409 . S
C1163 H1155 0.930 . S
C1163 C1164 1.355 . S
C1163 C1165 1.415 1_455 S
C1164 C1163 1.355 . S
C1164 C1166 1.419 . S
C1165 C1160 1.425 1_655 S
C1165 C1162 1.409 . S
C1165 C1163 1.415 1_655 S
C1166 H1156 0.930 . S
C1166 C1164 1.419 . S
C1166 C1167 1.362 . S
C1167 H1157 0.930 . S
C1167 C1160 1.409 . S
C1167 C1166 1.362 . S
C535 N79 0.996 . S
C540 N13 1.102 . S
C551 N46 1.007 . S
C556 N112 1.068 . S
C567 N211 1.027 . S
C572 N145 1.078 . S
C583 N244 1.046 . S
C588 N178 1.028 . S
C599 N277 0.994 . S
C604 N343 1.082 . S
C615 N310 1.085 . S
C620 N376 0.991 . S
C631 N409 1.011 . S
C636 N475 1.063 . S
C647 N508 0.991 . S
C652 N442 1.105 . S
C663 N2 1.823 . S
C668 N167 1.822 . S
C679 N200 1.819 . S
C684 N35 1.821 . S
C695 N233 1.825 . S
C700 N68 1.820 . S
C711 N134 1.819 . S
C716 N101 1.826 . S
C727 N431 1.814 . S
C732 N266 1.829 . S
C743 N464 1.814 . S
C748 N299 1.826 . S
C759 N497 1.825 . S
C764 N332 1.815 . S
C775 N398 1.811 . S
C780 N365 1.830 . S
C791 C18 1.237 . S
C796 C348 1.194 . S
C807 C381 1.223 . S
C812 C51 1.228 . S
C823 C282 1.189 . S
C828 C84 1.218 . S
C839 C315 1.238 . S
C844 C117 1.199 . S
C855 C150 1.238 . S
C860 C480 1.200 . S
C871 C183 1.190 . S
C876 C513 1.234 . S
C887 C216 1.204 . S
C892 C414 1.197 . S
C903 C249 1.192 . S
C908 C447 1.211 . S
C919 C139 1.154 . S
C924 C7 1.214 . S
C935 C40 1.244 . S
C940 C172 1.165 . S
C951 C205 1.187 . S
C956 C73 1.169 . S
C967 C238 1.228 . S
C972 C106 1.214 . S
C983 C285 0.670 . S
C988 C417 0.732 . S
C999 C450 0.743 . S
C1004 C318 0.659 . S
C1015 C351 0.746 . S
C1020 C483 0.666 . S
C1031 C516 0.735 . S
C1036 C384 0.667 . S
C1047 C370 1.240 . S
C1052 C436 1.196 . S
C1063 C271 1.203 . S
C1068 C469 1.158 . S
C1079 C502 1.243 . S
C1084 C304 1.187 . S
C1095 C403 1.204 . S
C1100 C337 1.235 . S
C1111 C120 0.684 . S
C1116 C186 0.730 . S
C1127 C21 0.641 . S
C1132 C219 0.765 . S
C1143 C252 0.681 . S
C1148 C54 0.733 . S
C1159 C87 0.693 . S
C1164 C153 0.722 . S
