# Generated by pormake.
# Topology lcy, (6)-cn, num edge types: 1
# Building blocks:
#     Node 0, Type 0, BuildingBlock: UKALOJ_clean_sbu_0, # of connection points: 6
#     Node 1, Type 0, BuildingBlock: UKALOJ_clean_sbu_0, # of connection points: 6
#     Node 2, Type 0, BuildingBlock: UKALOJ_clean_sbu_0, # of connection points: 6
#     Node 3, Type 0, BuildingBlock: UKALOJ_clean_sbu_0, # of connection points: 6
#     Edge 4, Type (0, 0), BuildingBlock: UVAHIK_clean_linker_0, # of connection points: 2
#     Edge 5, Type (0, 0), BuildingBlock: UVAHIK_clean_linker_0, # of connection points: 2
#     Edge 6, Type (0, 0), BuildingBlock: UVAHIK_clean_linker_0, # of connection points: 2
#     Edge 7, Type (0, 0), BuildingBlock: UVAHIK_clean_linker_0, # of connection points: 2
#     Edge 8, Type (0, 0), BuildingBlock: UVAHIK_clean_linker_0, # of connection points: 2
#     Edge 9, Type (0, 0), BuildingBlock: UVAHIK_clean_linker_0, # of connection points: 2
#     Edge 10, Type (0, 0), BuildingBlock: UVAHIK_clean_linker_0, # of connection points: 2
#     Edge 11, Type (0, 0), BuildingBlock: UVAHIK_clean_linker_0, # of connection points: 2
#     Edge 12, Type (0, 0), BuildingBlock: UVAHIK_clean_linker_0, # of connection points: 2
#     Edge 13, Type (0, 0), BuildingBlock: UVAHIK_clean_linker_0, # of connection points: 2
#     Edge 14, Type (0, 0), BuildingBlock: UVAHIK_clean_linker_0, # of connection points: 2
#     Edge 15, Type (0, 0), BuildingBlock: UVAHIK_clean_linker_0, # of connection points: 2
# Relax obj value: 0.327
# Max RMSD: 0.286
# Mean RMSD: 0.261
data_MOF--net-lcy--node1-UKALOJ_clean_sbu_0--edge1-UVAHIK_clean_linker_0
_symmetry_space_group_name_H-M    P1
_symmetry_Int_Tables_number       1
_symmetry_cell_setting            triclinic
loop_
_symmetry_equiv_pos_as_xyz
'x, y, z'
_cell_length_a     33.023322
_cell_length_b     35.051683
_cell_length_c     33.656968
_cell_angle_alpha  89.815934
_cell_angle_beta   97.605498
_cell_angle_gamma 97.323085
loop_
_atom_site_label
_atom_site_type_symbol
_atom_site_fract_x
_atom_site_fract_y
_atom_site_fract_z
_atom_type_partial_charge
Zn0 Zn 0.36947 0.41007 0.33559 0.0
O1 O 0.34108 0.44578 0.37171 0.0
C2 C 0.43746 0.47304 0.33471 0.0
Zn3 Zn 0.41959 0.40552 0.38609 0.0
C4 C 0.35836 0.45429 0.40725 0.0
O5 O 0.39145 0.44093 0.4207 0.0
C6 C 0.43036 0.36084 0.31442 0.0
O7 O 0.38463 0.35651 0.40822 0.0
O8 O 0.3364 0.36133 0.35752 0.0
N9 N 0.46711 0.40364 0.43144 0.0
C10 C 0.48918 0.37505 0.44415 0.0
C11 C 0.52096 0.42709 0.47152 0.0
N12 N 0.48668 0.43585 0.44886 0.0
N13 N 0.52316 0.38908 0.4692 0.0
C14 C 0.31498 0.43663 0.26 0.0
C15 C 0.27818 0.38378 0.24117 0.0
N16 N 0.32353 0.41046 0.28832 0.0
N17 N 0.3003 0.37777 0.27666 0.0
N18 N 0.28707 0.42043 0.22984 0.0
H19 H 0.33716 0.48832 0.29463 0.0
H20 H 0.31072 0.49602 0.24523 0.0
H21 H 0.36189 0.48253 0.2507 0.0
C22 C 0.33208 0.47836 0.26289 0.0
C23 C 0.4798 0.33417 0.42921 0.0
H24 H 0.45099 0.32921 0.40816 0.0
H25 H 0.47637 0.31467 0.45486 0.0
H26 H 0.50585 0.32641 0.41451 0.0
O27 O 0.44741 0.37018 0.34967 0.0
O28 O 0.39754 0.37432 0.30072 0.0
C29 C 0.34955 0.34434 0.38907 0.0
O30 O 0.40351 0.45896 0.31492 0.0
O31 O 0.45235 0.45554 0.36519 0.0
Zn32 Zn 0.91469 0.12287 0.62319 0.0
O33 O 0.87918 0.16285 0.59017 0.0
C34 C 0.93469 0.17958 0.68921 0.0
Zn35 Zn 0.86913 0.11206 0.66628 0.0
C36 C 0.84519 0.16744 0.60237 0.0
O37 O 0.83497 0.14978 0.63317 0.0
C38 C 0.93637 0.06469 0.68618 0.0
O39 O 0.83418 0.06611 0.63034 0.0
O40 O 0.87994 0.07759 0.58864 0.0
N41 N 0.82761 0.10827 0.70637 0.0
C42 C 0.81366 0.07981 0.73002 0.0
C43 C 0.78722 0.12971 0.74392 0.0
N44 N 0.81097 0.13916 0.71494 0.0
N45 N 0.78849 0.09266 0.75413 0.0
C46 C 0.98312 0.15497 0.57145 0.0
C47 C 0.99209 0.10383 0.54148 0.0
N48 N 0.9561 0.1263 0.5829 0.0
N49 N 0.96165 0.09462 0.56407 0.0
N50 N 0.00623 0.14151 0.54575 0.0
H51 H 0.9552 0.20281 0.59078 0.0
H52 H 0.99556 0.21547 0.55973 0.0
H53 H 0.00849 0.20187 0.61088 0.0
C54 C 0.98548 0.19625 0.5838 0.0
C55 C 0.82305 0.03923 0.72786 0.0
H56 H 0.79684 0.01875 0.73557 0.0
H57 H 0.85056 0.03584 0.74962 0.0
H58 H 0.82977 0.03221 0.69755 0.0
O59 O 0.90396 0.07295 0.69891 0.0
O60 O 0.94845 0.08216 0.65583 0.0
C61 C 0.84724 0.05852 0.59772 0.0
O62 O 0.94859 0.16894 0.65816 0.0
O63 O 0.90312 0.15989 0.70028 0.0
Zn64 Zn 0.0737 0.6325 0.8545 0.0
O65 O 0.11903 0.67017 0.89192 0.0
C66 C 0.05643 0.69471 0.79694 0.0
Zn67 Zn 0.11515 0.63613 0.80772 0.0
C68 C 0.15108 0.68546 0.87787 0.0
O69 O 0.15591 0.6777 0.84217 0.0
C70 C 0.04044 0.57906 0.7862 0.0
O71 O 0.14766 0.59252 0.83722 0.0
O72 O 0.1016 0.58628 0.87905 0.0
N73 N 0.15307 0.64199 0.76445 0.0
C74 C 0.16266 0.61709 0.73788 0.0
C75 C 0.19432 0.67223 0.72686 0.0
N76 N 0.17283 0.67621 0.75759 0.0
N77 N 0.18816 0.63545 0.71381 0.0
C78 C 0.01885 0.65338 0.91739 0.0
C79 C 0.99418 0.59788 0.93562 0.0
N80 N 0.03537 0.62721 0.89751 0.0
N81 N 0.02012 0.59277 0.90899 0.0
N82 N 0.99257 0.63566 0.94127 0.0
H83 H 0.06115 0.70332 0.90598 0.0
H84 H 0.02883 0.71032 0.9439 0.0
H85 H 0.00784 0.70754 0.89167 0.0
C86 C 0.03005 0.69606 0.91478 0.0
C87 C 0.14898 0.57465 0.73682 0.0
H88 H 0.14043 0.56445 0.76611 0.0
H89 H 0.17375 0.55881 0.72855 0.0
H90 H 0.12185 0.56825 0.71364 0.0
O91 O 0.07391 0.59307 0.77385 0.0
O92 O 0.03073 0.59281 0.81802 0.0
C93 C 0.13328 0.5758 0.86693 0.0
O94 O 0.04582 0.67981 0.82908 0.0
O95 O 0.08352 0.68056 0.78012 0.0
Zn96 Zn 0.60857 0.86646 0.15506 0.0
O97 O 0.56587 0.83243 0.1112 0.0
C98 C 0.62388 0.92853 0.09831 0.0
Zn99 Zn 0.56382 0.90833 0.1572 0.0
C100 C 0.53276 0.84573 0.09766 0.0
O101 O 0.52527 0.87742 0.11111 0.0
C102 C 0.63796 0.92795 0.21697 0.0
O103 O 0.53308 0.87492 0.2006 0.0
O104 O 0.5813 0.83714 0.19981 0.0
N105 N 0.52325 0.94779 0.15362 0.0
C106 C 0.51447 0.9736 0.17971 0.0
C107 C 0.48584 0.98715 0.12182 0.0
N108 N 0.50487 0.95595 0.11777 0.0
N109 N 0.49118 -0.00135 0.16047 0.0
C110 C 0.6694 0.81429 0.12828 0.0
C111 C 0.69364 0.79136 0.18386 0.0
N112 N 0.64974 0.82759 0.15693 0.0
N113 N 0.66469 0.81316 0.1914 0.0
N114 N 0.69744 0.7918 0.14449 0.0
H115 H 0.62715 0.82693 0.07671 0.0
H116 H 0.66541 0.79729 0.06616 0.0
H117 H 0.67945 0.84797 0.07651 0.0
C118 C 0.65962 0.82187 0.08438 0.0
C119 C 0.53192 0.97664 0.22308 0.0
H120 H 0.53919 0.94827 0.23455 0.0
H121 H 0.50986 0.98734 0.24113 0.0
H122 H 0.56033 -0.00239 0.22648 0.0
O123 O 0.60335 0.9388 0.20426 0.0
O124 O 0.64924 0.8995 0.19996 0.0
C125 C 0.54989 0.84586 0.21395 0.0
O126 O 0.6363 0.89716 0.11027 0.0
O127 O 0.59459 0.94057 0.1136 0.0
C128 C 0.19819 0.55119 0.89692 0.0
C129 C 0.15498 0.54749 0.89076 0.0
C130 C 0.21851 0.53083 0.92763 0.0
C131 C 0.2028 0.45361 0.00242 0.0
H132 H 0.27853 0.52367 0.07451 0.0
C133 C 0.2351 0.4255 0.17125 0.0
C134 C 0.2755 0.43472 0.19046 0.0
C135 C 0.22456 0.43611 0.13154 0.0
C136 C 0.25801 0.50348 0.05451 0.0
H137 H 0.09913 0.51717 0.90884 0.0
H138 H 0.1343 0.48147 0.96177 0.0
H139 H 0.25477 0.54439 0.00728 0.0
H140 H 0.3371 0.46043 0.18262 0.0
H141 H 0.31871 0.47962 0.11358 0.0
H142 H 0.20506 0.41312 0.05014 0.0
C143 C 0.15271 0.50001 0.94335 0.0
C144 C 0.24456 0.51529 0.01587 0.0
C145 C 0.13251 0.52061 0.91313 0.0
C146 C 0.30533 0.45445 0.16914 0.0
C147 C 0.29486 0.46506 0.12945 0.0
C148 C 0.21628 0.44178 0.04105 0.0
C149 C 0.19584 0.50614 0.95211 0.0
C150 C 0.21595 0.49085 0.98979 0.0
C151 C 0.25441 0.45581 0.11011 0.0
C152 C 0.24318 0.46696 0.06788 0.0
H153 H 0.21617 0.5719 0.88016 0.0
H154 H 0.25182 0.53578 0.93348 0.0
H155 H 0.18111 0.43399 0.98281 0.0
H156 H 0.21179 0.40987 0.18701 0.0
H157 H 0.19297 0.42902 0.1177 0.0
C158 C 0.6428 0.96548 0.28075 0.0
C159 C 0.66169 0.94414 0.25488 0.0
C160 C 0.66204 0.97532 0.31943 0.0
C161 C 0.74288 0.94634 0.39691 0.0
H162 H 0.72848 0.04158 0.44841 0.0
C163 C 0.84228 0.01406 0.5395 0.0
C164 C 0.82247 0.03209 0.56729 0.0
C165 C 0.81986 -0.00275 0.50449 0.0
C166 C 0.73217 0.01457 0.43461 0.0
H167 H 0.71665 0.91802 0.24873 0.0
H168 H 0.75115 0.93663 0.31577 0.0
H169 H 0.69818 0.02841 0.37915 0.0
H170 H 0.76349 0.04461 0.58172 0.0
H171 H 0.72414 0.01555 0.51994 0.0
H172 H 0.77853 0.93357 0.45225 0.0
C173 C 0.72077 0.9447 0.30659 0.0
C174 C 0.71489 0.00701 0.39485 0.0
C175 C 0.70123 0.93444 0.26795 0.0
C176 C 0.77942 0.03058 0.56092 0.0
C177 C 0.75702 0.01434 0.52546 0.0
C178 C 0.76067 0.95421 0.43656 0.0
C179 C 0.70097 0.9645 0.33317 0.0
C180 C 0.72005 0.97282 0.37539 0.0
C181 C 0.77731 -0.00124 0.49634 0.0
C182 C 0.7555 0.98842 0.45575 0.0
H183 H 0.61217 0.97295 0.27201 0.0
H184 H 0.64548 0.99007 0.33906 0.0
H185 H 0.74681 0.91935 0.38327 0.0
H186 H 0.8755 0.01493 0.54374 0.0
H187 H 0.83629 0.98558 0.48252 0.0
C188 C 0.17887 0.59844 0.65053 0.0
C189 C 0.20473 0.62051 0.68073 0.0
C190 C 0.19514 0.58392 0.61834 0.0
C191 C 0.28989 0.5545 0.59235 0.0
H192 H 0.24011 0.56161 0.48195 0.0
C193 C 0.36603 0.49975 0.46494 0.0
C194 C 0.34041 0.4791 0.43354 0.0
C195 C 0.34933 0.52064 0.49241 0.0
C196 C 0.2541 0.55902 0.51265 0.0
H197 H 0.26715 0.646 0.70078 0.0
H198 H 0.29606 0.62007 0.64464 0.0
H199 H 0.21074 0.5909 0.5356 0.0
H200 H 0.27747 0.46507 0.4052 0.0
H201 H 0.24782 0.50057 0.45425 0.0
H202 H 0.33233 0.52166 0.57015 0.0
C203 C 0.26329 0.61381 0.64598 0.0
C204 C 0.23736 0.57589 0.54327 0.0
C205 C 0.2469 0.62867 0.67789 0.0
C206 C 0.29784 0.48083 0.42918 0.0
C207 C 0.28096 0.50129 0.45718 0.0
C208 C 0.30629 0.5373 0.56192 0.0
C209 C 0.23757 0.59111 0.61605 0.0
C210 C 0.25525 0.57385 0.58335 0.0
C211 C 0.30651 0.52076 0.48961 0.0
C212 C 0.28878 0.53949 0.52165 0.0
H213 H 0.14607 0.59273 0.6517 0.0
H214 H 0.1747 0.56644 0.59568 0.0
H215 H 0.30381 0.55195 0.6231 0.0
H216 H 0.39909 0.49944 0.46856 0.0
H217 H 0.37005 0.53624 0.51625 0.0
C218 C 0.67921 0.94054 0.05426 0.0
C219 C 0.642 0.94952 0.06548 0.0
C220 C 0.69498 0.95815 0.02135 0.0
C221 C 0.66285 0.00318 0.92648 0.0
H222 H 0.77917 0.03988 0.93042 0.0
C223 C 0.7312 0.08205 0.7944 0.0
C224 C 0.77008 0.07414 0.78675 0.0
C225 C 0.71468 0.06727 0.82825 0.0
C226 C 0.74671 0.02929 0.92863 0.0
H227 H 0.59253 0.98459 0.05155 0.0
H228 H 0.62014 0.01533 0.99372 0.0
H229 H 0.75256 0.01483 0.9908 0.0
H230 H 0.82281 0.04569 0.80943 0.0
H231 H 0.79333 0.01824 0.86722 0.0
H232 H 0.65705 0.01685 0.86415 0.0
C233 C 0.63692 0.99451 0.01041 0.0
C234 C 0.73147 0.01514 0.96329 0.0
C235 C 0.62132 0.97714 0.04364 0.0
C236 C 0.79212 0.05105 0.81356 0.0
C237 C 0.77556 0.03606 0.84724 0.0
C238 C 0.67814 0.01707 0.89169 0.0
C239 C 0.67373 0.98492 -0.00122 0.0
C240 C 0.68945 0.00175 0.96251 0.0
C241 C 0.73686 0.04437 0.85529 0.0
C242 C 0.72032 0.03006 0.8923 0.0
H243 H 0.69599 0.91955 0.07064 0.0
H244 H 0.72326 0.95001 0.0129 0.0
H245 H 0.6304 0.99257 0.92492 0.0
H246 H 0.7139 0.10023 0.77443 0.0
H247 H 0.68507 0.07471 0.83379 0.0
C248 C 0.07323 0.18253 0.55428 0.0
C249 C 0.04127 0.16057 0.52941 0.0
C250 C 0.1087 0.1987 0.5389 0.0
C251 C 0.14648 0.23074 0.44573 0.0
H252 H 0.25468 0.22179 0.50314 0.0
C253 C 0.29037 0.29236 0.37876 0.0
C254 C 0.32182 0.31346 0.40495 0.0
C255 C 0.25908 0.26837 0.39374 0.0
C256 C 0.22471 0.22483 0.48691 0.0
H257 H 0.02121 0.13761 0.46954 0.0
H258 H 0.08307 0.16651 0.44215 0.0
H259 H 0.19315 0.19211 0.53009 0.0
H260 H 0.3467 0.32449 0.46726 0.0
H261 H 0.29127 0.28348 0.49367 0.0
H262 H 0.17739 0.26446 0.40332 0.0
C263 C 0.08059 0.17141 0.47346 0.0
C264 C 0.18953 0.20781 0.50233 0.0
C265 C 0.04536 0.1549 0.48899 0.0
C266 C 0.32287 0.30834 0.44643 0.0
C267 C 0.29109 0.28479 0.46151 0.0
C268 C 0.18151 0.24807 0.43055 0.0
C269 C 0.1127 0.19329 0.49833 0.0
C270 C 0.1501 0.21069 0.48189 0.0
C271 C 0.25807 0.26556 0.43529 0.0
C272 C 0.22112 0.24537 0.45091 0.0
H273 H 0.07123 0.1863 0.58583 0.0
H274 H 0.13292 0.21558 0.55867 0.0
H275 H 0.11644 0.23385 0.42966 0.0
H276 H 0.28914 0.29546 0.34659 0.0
H277 H 0.23488 0.25307 0.37267 0.0
C278 C 0.05827 0.75121 0.75091 0.0
C279 C 0.04099 0.73074 0.78193 0.0
C280 C 0.04777 0.78769 0.74039 0.0
C281 C 0.00826 0.87033 0.78278 0.0
H282 H 0.99212 0.9034 0.67246 0.0
C283 C 0.94215 0.0112 0.73547 0.0
C284 C 0.95623 0.03134 0.70273 0.0
C285 C 0.95551 0.97595 0.74667 0.0
C286 C -0.0028 0.89487 0.70349 0.0
H287 H -0.00262 0.7318 0.82463 0.0
H288 H 0.97894 0.79523 0.80615 0.0
H289 H 0.00692 0.83805 0.68712 0.0
H290 H -0.00245 0.03128 0.65768 0.0
H291 H 0.02154 0.97025 0.67778 0.0
H292 H -0.00144 0.92709 0.7992 0.0
C293 C 0.00126 0.78341 0.79053 0.0
C294 C 0.00552 0.85731 0.71186 0.0
C295 C 0.01166 0.74691 0.80097 0.0
C296 C 0.9859 0.0165 0.68296 0.0
C297 C -0.00068 0.98125 0.69419 0.0
C298 C 5e-05 0.90791 0.77443 0.0
C299 C 0.01979 0.80457 0.76066 0.0
C300 C 0.01092 0.84451 0.7516 0.0
C301 C 0.98345 0.96002 0.72549 0.0
C302 C 0.99422 0.92063 0.73466 0.0
H303 H 0.08105 0.73969 0.73567 0.0
H304 H 0.06277 0.80326 0.71738 0.0
H305 H 0.01304 0.86163 0.81378 0.0
H306 H 0.91958 0.0219 0.75159 0.0
H307 H 0.94248 0.9604 0.77081 0.0
C308 C 0.1952 0.69721 0.94389 0.0
C309 C 0.18544 0.70763 0.90375 0.0
C310 C 0.2327 0.71243 0.96589 0.0
C311 C 0.31588 0.7917 0.97371 0.0
H312 H 0.38839 0.71684 0.01211 0.0
C313 C 0.4835 0.84249 0.03537 0.0
C314 C 0.50081 0.82393 0.06916 0.0
C315 C 0.44661 0.8262 0.01336 0.0
C316 C 0.36845 0.73819 0.00217 0.0
H317 H 0.20572 0.7436 0.85585 0.0
H318 H 0.27039 0.7715 0.89495 0.0
H319 H 0.31808 0.69503 0.98129 0.0
H320 H 0.49437 0.77355 0.10614 0.0
H321 H 0.42894 0.74549 0.06876 0.0
H322 H 0.36505 0.83498 0.99551 0.0
C323 C 0.24943 0.75115 0.9091 0.0
C324 C 0.3282 0.72563 0.9845 0.0
C325 C 0.21249 0.73528 0.88682 0.0
C326 C 0.48185 0.78791 0.0796 0.0
C327 C 0.44427 0.77198 0.05817 0.0
C328 C 0.35575 0.8043 0.99203 0.0
C329 C 0.2604 0.73897 0.94837 0.0
C330 C 0.30177 0.7523 0.96981 0.0
C331 C 0.42545 0.79162 0.02555 0.0
C332 C 0.38287 0.77775 0.00607 0.0
H333 H 0.17509 0.67557 0.95743 0.0
H334 H 0.24052 0.70282 0.99624 0.0
H335 H 0.2959 0.81277 0.96277 0.0
H336 H 0.49766 0.87044 0.027 0.0
H337 H 0.43397 0.84157 0.98765 0.0
C338 C 0.47808 0.31166 0.30886 0.0
C339 C 0.4448 0.33031 0.29189 0.0
C340 C 0.48647 0.27797 0.2913 0.0
C341 C 0.43119 0.19649 0.23199 0.0
H342 H 0.53963 0.1691 0.22241 0.0
C343 C 0.50693 0.06863 0.15795 0.0
C344 C 0.486 0.03611 0.17404 0.0
C345 C 0.50324 0.10535 0.17161 0.0
C346 C 0.50916 0.17648 0.22481 0.0
H347 H 0.39632 0.33003 0.24149 0.0
H348 H 0.41117 0.27141 0.2109 0.0
H349 H 0.53267 0.23395 0.24507 0.0
H350 H 0.44447 0.01568 0.21616 0.0
H351 H 0.43748 0.08038 0.24027 0.0
H352 H 0.40764 0.13908 0.21195 0.0
C353 C 0.43025 0.28248 0.23812 0.0
C354 C 0.50524 0.21343 0.23793 0.0
C355 C 0.42198 0.31618 0.25553 0.0
C356 C 0.46088 0.04062 0.20365 0.0
C357 C 0.45684 0.07745 0.21715 0.0
C358 C 0.43514 0.15949 0.21925 0.0
C359 C 0.46165 0.26238 0.25657 0.0
C360 C 0.46618 0.22378 0.24149 0.0
C361 C 0.47818 0.11012 0.20135 0.0
C362 C 0.47413 0.14916 0.21549 0.0
H363 H 0.49635 0.32193 0.33677 0.0
H364 H 0.51087 0.26301 0.30614 0.0
H365 H 0.40074 0.20355 0.23507 0.0
H366 H 0.52653 0.06544 0.13511 0.0
H367 H 0.51963 0.13003 0.15861 0.0
C368 C 0.77422 0.18391 0.58621 0.0
C369 C 0.81595 0.19138 0.58084 0.0
C370 C 0.74573 0.20663 0.56805 0.0
C371 C 0.73429 0.30248 0.53254 0.0
H372 H 0.62633 0.25338 0.48659 0.0
C373 C 0.59752 0.38596 0.47233 0.0
C374 C 0.5588 0.3704 0.48208 0.0
C375 C 0.63158 0.36596 0.4811 0.0
C376 C 0.65624 0.26753 0.49952 0.0
H377 H 0.86058 0.22835 0.5518 0.0
H378 H 0.81011 0.26912 0.5201 0.0
H379 H 0.68193 0.21447 0.50435 0.0
H380 H 0.52576 0.32361 0.51134 0.0
H381 H 0.58505 0.2883 0.52657 0.0
H382 H 0.70806 0.35551 0.52867 0.0
C383 C 0.79984 0.24528 0.53841 0.0
C384 C 0.68812 0.24529 0.50942 0.0
C385 C 0.82856 0.22196 0.55632 0.0
C386 C 0.55501 0.33546 0.50241 0.0
C387 C 0.58895 0.3154 0.5111 0.0
C388 C 0.70226 0.32484 0.52257 0.0
C389 C 0.75813 0.23768 0.54419 0.0
C390 C 0.72711 0.26235 0.52712 0.0
C391 C 0.62741 0.33006 0.49983 0.0
C392 C 0.6626 0.30737 0.50704 0.0
H393 H 0.7634 0.16042 0.60473 0.0
H394 H 0.71398 0.20039 0.57355 0.0
H395 H 0.76399 0.31629 0.54642 0.0
H396 H 0.60099 0.41293 0.45659 0.0
H397 H 0.66077 0.37797 0.47205 0.0
C398 C 0.98792 0.52108 0.78906 0.0
C399 C 0.01815 0.54207 0.76905 0.0
C400 C 0.97457 0.48229 0.77941 0.0
C401 C 0.97955 0.40438 0.70509 0.0
H402 H 0.97111 0.33832 0.79715 0.0
C403 C 0.98219 0.24153 0.6923 0.0
C404 C 0.94987 0.21821 0.70722 0.0
C405 C 0.99022 0.28077 0.70186 0.0
C406 C 0.97311 0.35642 0.77115 0.0
H407 H 0.05495 0.53961 0.72062 0.0
H408 H 0.03259 0.47223 0.70439 0.0
H409 H 0.9812 0.40805 0.80656 0.0
H410 H 0.90286 0.21743 0.74671 0.0
H411 H 0.91754 0.28585 0.76404 0.0
H412 H 0.97257 0.35259 0.66992 0.0
C413 C 0.01896 0.48548 0.72751 0.0
C414 C 0.97858 0.39643 0.77643 0.0
C415 C 0.03205 0.52427 0.73697 0.0
C416 C 0.92799 0.23448 0.73462 0.0
C417 C 0.93629 0.27375 0.74448 0.0
C418 C 0.97453 0.36442 0.69991 0.0
C419 C 0.99119 0.46356 0.74959 0.0
C420 C 0.98217 0.421 0.74349 0.0
C421 C 0.96646 0.29755 0.72699 0.0
C422 C 0.9716 0.33999 0.7329 0.0
H423 H 0.9763 0.53387 0.81381 0.0
H424 H 0.95228 0.46665 0.79632 0.0
H425 H 0.98141 0.42223 0.67892 0.0
H426 H 0.00011 0.22994 0.67169 0.0
H427 H 0.01434 0.29823 0.68867 0.0
C428 C 0.95819 0.63424 0.00202 0.0
C429 C 0.96612 0.65164 0.96568 0.0
C430 C 0.93106 0.64852 0.02506 0.0
C431 C 0.8869 0.73515 0.04519 0.0
H432 H 0.79324 0.66726 0.07366 0.0
C433 C 0.74922 0.79503 0.09761 0.0
C434 C 0.72798 0.77485 0.12624 0.0
C435 C 0.77969 0.77904 0.08084 0.0
C436 C 0.81961 0.68651 0.06667 0.0
H437 H 0.94933 0.69582 0.92367 0.0
H438 H 0.9039 0.72202 0.96481 0.0
H439 H 0.84511 0.64093 0.04027 0.0
H440 H 0.72333 0.72306 0.16134 0.0
H441 H 0.77775 0.69536 0.13303 0.0
H442 H 0.86222 0.78067 0.0719 0.0
C443 C 0.91933 0.69781 0.97579 0.0
C444 C 0.84918 0.67141 0.04746 0.0
C445 C 0.94581 0.68314 0.95249 0.0
C446 C 0.73882 0.73884 0.13877 0.0
C447 C 0.76976 0.72296 0.12236 0.0
C448 C 0.85777 0.75017 0.06492 0.0
C449 C 0.91168 0.6806 0.01219 0.0
C450 C 0.88258 0.69576 0.03589 0.0
C451 C 0.79053 0.74287 0.09309 0.0
C452 C 0.82324 0.7262 0.07512 0.0
H453 H 0.97303 0.60959 0.01254 0.0
H454 H 0.92545 0.63472 0.05301 0.0
H455 H 0.91274 0.75437 0.03695 0.0
H456 H 0.743 0.82357 0.08871 0.0
H457 H 0.79463 0.79511 0.05811 0.0
C458 C 0.4905 0.81069 0.24393 0.0
C459 C 0.53306 0.82015 0.244 0.0
C460 C 0.47547 0.77838 0.2648 0.0
C461 C 0.51052 0.69934 0.33196 0.0
H462 H 0.42471 0.63613 0.26319 0.0
C463 C 0.46879 0.53749 0.36104 0.0
C464 C 0.45388 0.51313 0.3279 0.0
C465 C 0.4755 0.57723 0.35628 0.0
C466 C 0.44919 0.65317 0.28247 0.0
H467 H 0.59329 0.80664 0.2693 0.0
H468 H 0.56773 0.75062 0.3044 0.0
H469 H 0.43921 0.70397 0.24954 0.0
H470 H 0.43674 0.51062 0.26358 0.0
H471 H 0.45159 0.57977 0.25455 0.0
H472 H 0.52329 0.64802 0.3625 0.0
C473 C 0.54542 0.76751 0.28896 0.0
C474 C 0.45678 0.6925 0.27526 0.0
C475 C 0.56025 0.79959 0.26841 0.0
C476 C 0.44819 0.52891 0.28958 0.0
C477 C 0.456 0.56862 0.28462 0.0
C478 C 0.50369 0.65986 0.33851 0.0
C479 C 0.50289 0.75527 0.28585 0.0
C480 C 0.48851 0.7159 0.29911 0.0
C481 C 0.46847 0.59347 0.31808 0.0
C482 C 0.47369 0.63601 0.31315 0.0
H483 H 0.46897 0.82627 0.22537 0.0
H484 H 0.44248 0.77029 0.26254 0.0
H485 H 0.53451 0.71657 0.35164 0.0
H486 H 0.4726 0.52608 0.39108 0.0
H487 H 0.48451 0.59514 0.3829 0.0
loop_
_geom_bond_atom_site_label_1
_geom_bond_atom_site_label_2
_geom_bond_distance
_geom_bond_site_symmetry_2
_ccdc_geom_bond_type
Zn0 O1 2.055 . S
Zn0 O8 2.046 . S
Zn0 N16 2.036 . S
Zn0 O28 2.053 . S
Zn0 O30 2.066 . S
O1 Zn0 2.055 . S
O1 C4 1.259 . S
C2 O30 1.256 . S
C2 O31 1.244 . S
Zn3 O5 2.046 . S
Zn3 O7 2.055 . S
Zn3 N9 2.036 . S
Zn3 O27 2.066 . S
Zn3 O31 2.053 . S
C4 O1 1.259 . S
C4 O5 1.254 . S
O5 Zn3 2.046 . S
O5 C4 1.254 . S
C6 O27 1.256 . S
C6 O28 1.244 . S
O7 Zn3 2.055 . S
O7 C29 1.259 . S
O8 Zn0 2.046 . S
O8 C29 1.254 . S
N9 Zn3 2.036 . S
N9 C10 1.298 . S
N9 N12 1.398 . S
C10 N9 1.298 . S
C10 N13 1.367 . S
C10 C23 1.481 . S
C11 N12 1.299 . S
C11 N13 1.379 . S
N12 N9 1.398 . S
N12 C11 1.299 . S
N13 C10 1.367 . S
N13 C11 1.379 . S
C14 N16 1.298 . S
C14 N18 1.367 . S
C14 C22 1.481 . S
C15 N17 1.299 . S
C15 N18 1.379 . S
N16 Zn0 2.036 . S
N16 C14 1.298 . S
N16 N17 1.398 . S
N17 C15 1.299 . S
N17 N16 1.398 . S
N18 C14 1.367 . S
N18 C15 1.379 . S
H19 C22 0.980 . S
H20 C22 0.981 . S
H21 C22 0.981 . S
C22 C14 1.481 . S
C22 H19 0.980 . S
C22 H20 0.981 . S
C22 H21 0.981 . S
C23 C10 1.481 . S
C23 H24 0.980 . S
C23 H25 0.981 . S
C23 H26 0.981 . S
H24 C23 0.980 . S
H25 C23 0.981 . S
H26 C23 0.981 . S
O27 Zn3 2.066 . S
O27 C6 1.256 . S
O28 Zn0 2.053 . S
O28 C6 1.244 . S
C29 O7 1.259 . S
C29 O8 1.254 . S
O30 Zn0 2.066 . S
O30 C2 1.256 . S
O31 C2 1.244 . S
O31 Zn3 2.053 . S
Zn32 O33 2.055 . S
Zn32 O40 2.046 . S
Zn32 N48 2.036 . S
Zn32 O60 2.053 . S
Zn32 O62 2.066 . S
O33 Zn32 2.055 . S
O33 C36 1.259 . S
C34 O62 1.256 . S
C34 O63 1.244 . S
Zn35 O37 2.046 . S
Zn35 O39 2.055 . S
Zn35 N41 2.036 . S
Zn35 O59 2.066 . S
Zn35 O63 2.053 . S
C36 O33 1.259 . S
C36 O37 1.254 . S
O37 Zn35 2.046 . S
O37 C36 1.254 . S
C38 O59 1.256 . S
C38 O60 1.244 . S
O39 Zn35 2.055 . S
O39 C61 1.259 . S
O40 Zn32 2.046 . S
O40 C61 1.254 . S
N41 Zn35 2.036 . S
N41 C42 1.298 . S
N41 N44 1.398 . S
C42 N41 1.298 . S
C42 N45 1.367 . S
C42 C55 1.481 . S
C43 N44 1.299 . S
C43 N45 1.379 . S
N44 N41 1.398 . S
N44 C43 1.299 . S
N45 C42 1.367 . S
N45 C43 1.379 . S
C46 N48 1.298 . S
C46 N50 1.367 1_655 S
C46 C54 1.481 . S
C47 N49 1.299 1_455 S
C47 N50 1.379 . S
N48 Zn32 2.036 . S
N48 C46 1.298 . S
N48 N49 1.398 . S
N49 C47 1.299 1_655 S
N49 N48 1.398 . S
N50 C46 1.367 1_455 S
N50 C47 1.379 . S
H51 C54 0.980 . S
H52 C54 0.981 . S
H53 C54 0.981 . S
C54 C46 1.481 . S
C54 H51 0.980 . S
C54 H52 0.981 . S
C54 H53 0.981 . S
C55 C42 1.481 . S
C55 H56 0.980 . S
C55 H57 0.981 . S
C55 H58 0.989 . S
H56 C55 0.980 . S
H57 C55 0.981 . S
H58 C55 0.989 . S
O59 Zn35 2.066 . S
O59 C38 1.256 . S
O60 Zn32 2.053 . S
O60 C38 1.244 . S
C61 O39 1.259 . S
C61 O40 1.254 . S
O62 Zn32 2.066 . S
O62 C34 1.256 . S
O63 C34 1.244 . S
O63 Zn35 2.053 . S
Zn64 O65 2.055 . S
Zn64 O72 2.046 . S
Zn64 N80 2.036 . S
Zn64 O92 2.053 . S
Zn64 O94 2.066 . S
O65 Zn64 2.055 . S
O65 C68 1.259 . S
C66 O94 1.256 . S
C66 O95 1.244 . S
Zn67 O69 2.046 . S
Zn67 O71 2.055 . S
Zn67 N73 2.036 . S
Zn67 O91 2.066 . S
Zn67 O95 2.053 . S
C68 O65 1.259 . S
C68 O69 1.254 . S
O69 Zn67 2.046 . S
O69 C68 1.254 . S
C70 O91 1.256 . S
C70 O92 1.244 . S
O71 Zn67 2.055 . S
O71 C93 1.259 . S
O72 Zn64 2.046 . S
O72 C93 1.254 . S
N73 Zn67 2.036 . S
N73 C74 1.298 . S
N73 N76 1.398 . S
C74 N73 1.298 . S
C74 N77 1.367 . S
C74 C87 1.481 . S
C75 N76 1.299 . S
C75 N77 1.379 . S
N76 N73 1.398 . S
N76 C75 1.299 . S
N77 C74 1.367 . S
N77 C75 1.379 . S
C78 N80 1.298 . S
C78 N82 1.367 . S
C78 C86 1.481 . S
C79 N81 1.299 1_655 S
C79 N82 1.379 1_655 S
N80 Zn64 2.036 . S
N80 C78 1.298 . S
N80 N81 1.398 . S
N81 C79 1.299 1_455 S
N81 N80 1.398 . S
N82 C78 1.367 . S
N82 C79 1.379 1_455 S
H83 C86 0.980 . S
H84 C86 0.981 . S
H85 C86 0.981 . S
C86 C78 1.481 . S
C86 H83 0.980 . S
C86 H84 0.981 . S
C86 H85 0.981 . S
C87 C74 1.481 . S
C87 H88 0.980 . S
C87 H89 0.981 . S
C87 H90 0.981 . S
H88 C87 0.980 . S
H89 C87 0.981 . S
H90 C87 0.981 . S
O91 Zn67 2.066 . S
O91 C70 1.256 . S
O92 Zn64 2.053 . S
O92 C70 1.244 . S
C93 O71 1.259 . S
C93 O72 1.254 . S
O94 Zn64 2.066 . S
O94 C66 1.256 . S
O95 C66 1.244 . S
O95 Zn67 2.053 . S
Zn96 O97 2.055 . S
Zn96 O104 2.046 . S
Zn96 N112 2.036 . S
Zn96 O124 2.053 . S
Zn96 O126 2.066 . S
O97 Zn96 2.055 . S
O97 C100 1.259 . S
C98 O126 1.256 . S
C98 O127 1.244 . S
Zn99 O101 2.046 . S
Zn99 O103 2.055 . S
Zn99 N105 2.036 . S
Zn99 O123 2.066 . S
Zn99 O127 2.053 . S
C100 O97 1.259 . S
C100 O101 1.254 . S
O101 Zn99 2.046 . S
O101 C100 1.254 . S
C102 O123 1.256 . S
C102 O124 1.244 . S
O103 Zn99 2.055 . S
O103 C125 1.259 . S
O104 Zn96 2.046 . S
O104 C125 1.254 . S
N105 Zn99 2.036 . S
N105 C106 1.298 . S
N105 N108 1.398 . S
C106 N105 1.298 . S
C106 N109 1.367 . S
C106 C119 1.481 . S
C107 N108 1.299 1_545 S
C107 N109 1.379 1_545 S
N108 N105 1.398 . S
N108 C107 1.299 1_565 S
N109 C106 1.367 . S
N109 C107 1.379 1_565 S
C110 N112 1.298 . S
C110 N114 1.367 . S
C110 C118 1.481 . S
C111 N113 1.299 . S
C111 N114 1.379 . S
N112 Zn96 2.036 . S
N112 C110 1.298 . S
N112 N113 1.398 . S
N113 C111 1.299 . S
N113 N112 1.398 . S
N114 C110 1.367 . S
N114 C111 1.379 . S
H115 C118 0.980 . S
H116 C118 0.981 . S
H117 C118 0.981 . S
C118 C110 1.481 . S
C118 H115 0.980 . S
C118 H116 0.981 . S
C118 H117 0.981 . S
C119 C106 1.481 . S
C119 H120 0.980 . S
C119 H121 0.981 . S
C119 H122 0.981 . S
H120 C119 0.980 . S
H121 C119 0.981 . S
H122 C119 0.981 . S
O123 Zn99 2.066 . S
O123 C102 1.256 . S
O124 Zn96 2.053 . S
O124 C102 1.244 . S
C125 O103 1.259 . S
C125 O104 1.254 . S
O126 Zn96 2.066 . S
O126 C98 1.256 . S
O127 C98 1.244 . S
O127 Zn99 2.053 . S
C128 C129 1.349 . S
C128 C130 1.327 . S
C128 H153 0.950 . S
C129 C128 1.349 . S
C129 C145 1.349 . S
C130 C128 1.327 . S
C130 C149 1.429 . S
C130 H154 0.950 . S
C131 C148 1.574 . S
C131 C150 1.368 . S
C131 H155 0.949 . S
H132 C136 0.949 . S
C133 C134 1.349 . S
C133 C135 1.327 . S
C133 H156 0.950 . S
C134 C133 1.349 . S
C134 C146 1.349 . S
C135 C133 1.327 . S
C135 C151 1.429 . S
C135 H157 0.950 . S
C136 H132 0.949 . S
C136 C144 1.574 . S
C136 C152 1.368 . S
H137 C145 0.950 . S
H138 C143 0.950 1_554 S
H139 C144 0.949 . S
H140 C146 0.950 . S
H141 C147 0.950 . S
H142 C148 0.949 . S
C143 H138 0.950 1_556 S
C143 C145 1.327 . S
C143 C149 1.429 . S
C144 C136 1.574 . S
C144 H139 0.949 . S
C144 C150 1.368 . S
C145 C129 1.349 . S
C145 H137 0.950 . S
C145 C143 1.327 . S
C146 C134 1.349 . S
C146 H140 0.950 . S
C146 C147 1.327 . S
C147 H141 0.950 . S
C147 C146 1.327 . S
C147 C151 1.429 . S
C148 C131 1.574 . S
C148 H142 0.949 . S
C148 C152 1.368 . S
C149 C130 1.429 . S
C149 C143 1.429 . S
C149 C150 1.523 1_556 S
C150 C131 1.368 . S
C150 C144 1.368 . S
C150 C149 1.523 1_554 S
C151 C135 1.429 . S
C151 C147 1.429 . S
C151 C152 1.523 . S
C152 C136 1.368 . S
C152 C148 1.368 . S
C152 C151 1.523 . S
H153 C128 0.950 . S
H154 C130 0.950 . S
H155 C131 0.949 . S
H156 C133 0.950 . S
H157 C135 0.950 . S
C158 C159 1.349 . S
C158 C160 1.327 . S
C158 H183 0.950 . S
C159 C158 1.349 . S
C159 C175 1.349 . S
C160 C158 1.327 . S
C160 C179 1.429 . S
C160 H184 0.950 . S
C161 C178 1.574 . S
C161 C180 1.368 . S
C161 H185 0.949 . S
H162 C166 0.949 . S
C163 C164 1.349 1_565 S
C163 C165 1.327 . S
C163 H186 0.950 . S
C164 C163 1.349 1_545 S
C164 C176 1.349 . S
C165 C163 1.327 . S
C165 C181 1.429 1_565 S
C165 H187 0.950 . S
C166 H162 0.949 . S
C166 C174 1.574 . S
C166 C182 1.368 1_545 S
H167 C175 0.950 . S
H168 C173 0.950 . S
H169 C174 0.949 . S
H170 C176 0.950 . S
H171 C177 0.950 . S
H172 C178 0.949 . S
C173 H168 0.950 . S
C173 C175 1.327 . S
C173 C179 1.429 . S
C174 C166 1.574 . S
C174 H169 0.949 . S
C174 C180 1.368 1_545 S
C175 C159 1.349 . S
C175 H167 0.950 . S
C175 C173 1.327 . S
C176 C164 1.349 . S
C176 H170 0.950 . S
C176 C177 1.327 . S
C177 H171 0.950 . S
C177 C176 1.327 . S
C177 C181 1.429 . S
C178 C161 1.574 . S
C178 H172 0.949 . S
C178 C182 1.368 . S
C179 C160 1.429 . S
C179 C173 1.429 . S
C179 C180 1.523 . S
C180 C161 1.368 . S
C180 C174 1.368 1_565 S
C180 C179 1.523 . S
C181 C165 1.429 1_545 S
C181 C177 1.429 . S
C181 C182 1.523 1_545 S
C182 C166 1.368 1_565 S
C182 C178 1.368 . S
C182 C181 1.523 1_565 S
H183 C158 0.950 . S
H184 C160 0.950 . S
H185 C161 0.949 . S
H186 C163 0.950 . S
H187 C165 0.950 . S
C188 C189 1.349 . S
C188 C190 1.327 . S
C188 H213 0.950 . S
C189 C188 1.349 . S
C189 C205 1.349 . S
C190 C188 1.327 . S
C190 C209 1.429 . S
C190 H214 0.950 . S
C191 C208 1.574 . S
C191 C210 1.368 . S
C191 H215 0.949 . S
H192 C196 0.949 . S
C193 C194 1.349 . S
C193 C195 1.327 . S
C193 H216 0.950 . S
C194 C193 1.349 . S
C194 C206 1.349 . S
C195 C193 1.327 . S
C195 C211 1.429 . S
C195 H217 0.950 . S
C196 H192 0.949 . S
C196 C204 1.574 . S
C196 C212 1.368 . S
H197 C205 0.950 . S
H198 C203 0.950 . S
H199 C204 0.949 . S
H200 C206 0.950 . S
H201 C207 0.950 . S
H202 C208 0.949 . S
C203 H198 0.950 . S
C203 C205 1.327 . S
C203 C209 1.429 . S
C204 C196 1.574 . S
C204 H199 0.949 . S
C204 C210 1.368 . S
C205 C189 1.349 . S
C205 H197 0.950 . S
C205 C203 1.327 . S
C206 C194 1.349 . S
C206 H200 0.950 . S
C206 C207 1.327 . S
C207 H201 0.950 . S
C207 C206 1.327 . S
C207 C211 1.429 . S
C208 C191 1.574 . S
C208 H202 0.949 . S
C208 C212 1.368 . S
C209 C190 1.429 . S
C209 C203 1.429 . S
C209 C210 1.523 . S
C210 C191 1.368 . S
C210 C204 1.368 . S
C210 C209 1.523 . S
C211 C195 1.429 . S
C211 C207 1.429 . S
C211 C212 1.523 . S
C212 C196 1.368 . S
C212 C208 1.368 . S
C212 C211 1.523 . S
H213 C188 0.950 . S
H214 C190 0.950 . S
H215 C191 0.949 . S
H216 C193 0.950 . S
H217 C195 0.950 . S
C218 C219 1.349 . S
C218 C220 1.327 . S
C218 H243 0.950 . S
C219 C218 1.349 . S
C219 C235 1.349 . S
C220 C218 1.327 . S
C220 C239 1.429 1_554 S
C220 H244 0.950 1_565 S
C221 C238 1.574 . S
C221 C240 1.368 . S
C221 H245 0.949 . S
H222 C226 0.949 . S
C223 C224 1.349 . S
C223 C225 1.327 1_545 S
C223 H246 0.950 1_545 S
C224 C223 1.349 . S
C224 C236 1.349 . S
C225 C223 1.327 1_565 S
C225 C241 1.429 1_565 S
C225 H247 0.950 . S
C226 H222 0.949 . S
C226 C234 1.574 . S
C226 C242 1.368 1_545 S
H227 C235 0.950 . S
H228 C233 0.950 . S
H229 C234 0.949 . S
H230 C236 0.950 . S
H231 C237 0.950 . S
H232 C238 0.949 . S
C233 H228 0.950 . S
C233 C235 1.327 1_556 S
C233 C239 1.429 . S
C234 C226 1.574 . S
C234 H229 0.949 . S
C234 C240 1.368 1_545 S
C235 C219 1.349 . S
C235 H227 0.950 . S
C235 C233 1.327 1_554 S
C236 C224 1.349 . S
C236 H230 0.950 . S
C236 C237 1.327 . S
C237 H231 0.950 . S
C237 C236 1.327 . S
C237 C241 1.429 . S
C238 C221 1.574 . S
C238 H232 0.949 . S
C238 C242 1.368 . S
C239 C220 1.429 1_556 S
C239 C233 1.429 . S
C239 C240 1.523 . S
C240 C221 1.368 . S
C240 C234 1.368 1_565 S
C240 C239 1.523 . S
C241 C225 1.429 1_545 S
C241 C237 1.429 . S
C241 C242 1.523 1_545 S
C242 C226 1.368 1_565 S
C242 C238 1.368 . S
C242 C241 1.523 1_565 S
H243 C218 0.950 . S
H244 C220 0.950 1_545 S
H245 C221 0.949 . S
H246 C223 0.950 1_565 S
H247 C225 0.950 . S
C248 C249 1.349 . S
C248 C250 1.327 . S
C248 H273 0.950 . S
C249 C248 1.349 . S
C249 C265 1.349 . S
C250 C248 1.327 . S
C250 C269 1.429 . S
C250 H274 0.950 . S
C251 C268 1.574 . S
C251 C270 1.368 . S
C251 H275 0.949 . S
H252 C256 0.949 . S
C253 C254 1.349 . S
C253 C255 1.327 . S
C253 H276 0.950 . S
C254 C253 1.349 . S
C254 C266 1.349 . S
C255 C253 1.327 . S
C255 C271 1.429 . S
C255 H277 0.950 . S
C256 H252 0.949 . S
C256 C264 1.574 . S
C256 C272 1.368 . S
H257 C265 0.950 . S
H258 C263 0.950 . S
H259 C264 0.949 . S
H260 C266 0.950 . S
H261 C267 0.950 . S
H262 C268 0.949 . S
C263 H258 0.950 . S
C263 C265 1.327 . S
C263 C269 1.429 . S
C264 C256 1.574 . S
C264 H259 0.949 . S
C264 C270 1.368 . S
C265 C249 1.349 . S
C265 H257 0.950 . S
C265 C263 1.327 . S
C266 C254 1.349 . S
C266 H260 0.950 . S
C266 C267 1.327 . S
C267 H261 0.950 . S
C267 C266 1.327 . S
C267 C271 1.429 . S
C268 C251 1.574 . S
C268 H262 0.949 . S
C268 C272 1.368 . S
C269 C250 1.429 . S
C269 C263 1.429 . S
C269 C270 1.523 . S
C270 C251 1.368 . S
C270 C264 1.368 . S
C270 C269 1.523 . S
C271 C255 1.429 . S
C271 C267 1.429 . S
C271 C272 1.523 . S
C272 C256 1.368 . S
C272 C268 1.368 . S
C272 C271 1.523 . S
H273 C248 0.950 . S
H274 C250 0.950 . S
H275 C251 0.949 . S
H276 C253 0.950 . S
H277 C255 0.950 . S
C278 C279 1.349 . S
C278 C280 1.327 . S
C278 H303 0.950 . S
C279 C278 1.349 . S
C279 C295 1.349 . S
C280 C278 1.327 . S
C280 C299 1.429 . S
C280 H304 0.950 . S
C281 C298 1.574 . S
C281 C300 1.368 . S
C281 H305 0.949 . S
H282 C286 0.949 . S
C283 C284 1.349 . S
C283 C285 1.327 1_545 S
C283 H306 0.950 . S
C284 C283 1.349 . S
C284 C296 1.349 1_545 S
C285 C283 1.327 1_565 S
C285 C301 1.429 . S
C285 H307 0.950 1_655 S
C286 H282 0.949 . S
C286 C294 1.574 1_655 S
C286 C302 1.368 1_655 S
H287 C295 0.950 . S
H288 C293 0.950 . S
H289 C294 0.949 1_655 S
H290 C296 0.950 . S
H291 C297 0.950 . S
H292 C298 0.949 . S
C293 H288 0.950 . S
C293 C295 1.327 . S
C293 C299 1.429 . S
C294 C286 1.574 1_455 S
C294 H289 0.949 1_455 S
C294 C300 1.368 . S
C295 C279 1.349 . S
C295 H287 0.950 . S
C295 C293 1.327 . S
C296 C284 1.349 1_565 S
C296 H290 0.950 . S
C296 C297 1.327 . S
C297 H291 0.950 . S
C297 C296 1.327 . S
C297 C301 1.429 . S
C298 C281 1.574 . S
C298 H292 0.949 . S
C298 C302 1.368 . S
C299 C280 1.429 . S
C299 C293 1.429 . S
C299 C300 1.523 . S
C300 C281 1.368 . S
C300 C294 1.368 . S
C300 C299 1.523 . S
C301 C285 1.429 . S
C301 C297 1.429 . S
C301 C302 1.523 1_655 S
C302 C286 1.368 1_455 S
C302 C298 1.368 . S
C302 C301 1.523 1_455 S
H303 C278 0.950 . S
H304 C280 0.950 . S
H305 C281 0.949 . S
H306 C283 0.950 . S
H307 C285 0.950 1_455 S
C308 C309 1.349 . S
C308 C310 1.327 . S
C308 H333 0.950 . S
C309 C308 1.349 . S
C309 C325 1.349 . S
C310 C308 1.327 . S
C310 C329 1.429 . S
C310 H334 0.950 . S
C311 C328 1.574 . S
C311 C330 1.368 . S
C311 H335 0.949 . S
H312 C316 0.949 . S
C313 C314 1.349 . S
C313 C315 1.327 . S
C313 H336 0.950 . S
C314 C313 1.349 . S
C314 C326 1.349 . S
C315 C313 1.327 . S
C315 C331 1.429 . S
C315 H337 0.950 . S
C316 H312 0.949 . S
C316 C324 1.574 . S
C316 C332 1.368 . S
H317 C325 0.950 . S
H318 C323 0.950 . S
H319 C324 0.949 . S
H320 C326 0.950 . S
H321 C327 0.950 . S
H322 C328 0.949 . S
C323 H318 0.950 . S
C323 C325 1.327 . S
C323 C329 1.429 . S
C324 C316 1.574 . S
C324 H319 0.949 . S
C324 C330 1.368 . S
C325 C309 1.349 . S
C325 H317 0.950 . S
C325 C323 1.327 . S
C326 C314 1.349 . S
C326 H320 0.950 . S
C326 C327 1.327 . S
C327 H321 0.950 . S
C327 C326 1.327 . S
C327 C331 1.429 . S
C328 C311 1.574 . S
C328 H322 0.949 . S
C328 C332 1.368 . S
C329 C310 1.429 . S
C329 C323 1.429 . S
C329 C330 1.523 . S
C330 C311 1.368 . S
C330 C324 1.368 . S
C330 C329 1.523 . S
C331 C315 1.429 . S
C331 C327 1.429 . S
C331 C332 1.523 1_554 S
C332 C316 1.368 . S
C332 C328 1.368 . S
C332 C331 1.523 1_556 S
H333 C308 0.950 . S
H334 C310 0.950 . S
H335 C311 0.949 . S
H336 C313 0.950 . S
H337 C315 0.950 . S
C338 C339 1.349 . S
C338 C340 1.327 . S
C338 H363 0.950 . S
C339 C338 1.349 . S
C339 C355 1.349 . S
C340 C338 1.327 . S
C340 C359 1.429 . S
C340 H364 0.950 . S
C341 C358 1.574 . S
C341 C360 1.368 . S
C341 H365 0.949 . S
H342 C346 0.949 . S
C343 C344 1.349 . S
C343 C345 1.327 . S
C343 H366 0.950 . S
C344 C343 1.349 . S
C344 C356 1.349 . S
C345 C343 1.327 . S
C345 C361 1.429 . S
C345 H367 0.950 . S
C346 H342 0.949 . S
C346 C354 1.574 . S
C346 C362 1.368 . S
H347 C355 0.950 . S
H348 C353 0.950 . S
H349 C354 0.949 . S
H350 C356 0.950 . S
H351 C357 0.950 . S
H352 C358 0.949 . S
C353 H348 0.950 . S
C353 C355 1.327 . S
C353 C359 1.429 . S
C354 C346 1.574 . S
C354 H349 0.949 . S
C354 C360 1.368 . S
C355 C339 1.349 . S
C355 H347 0.950 . S
C355 C353 1.327 . S
C356 C344 1.349 . S
C356 H350 0.950 . S
C356 C357 1.327 . S
C357 H351 0.950 . S
C357 C356 1.327 . S
C357 C361 1.429 . S
C358 C341 1.574 . S
C358 H352 0.949 . S
C358 C362 1.368 . S
C359 C340 1.429 . S
C359 C353 1.429 . S
C359 C360 1.523 . S
C360 C341 1.368 . S
C360 C354 1.368 . S
C360 C359 1.523 . S
C361 C345 1.429 . S
C361 C357 1.429 . S
C361 C362 1.523 . S
C362 C346 1.368 . S
C362 C358 1.368 . S
C362 C361 1.523 . S
H363 C338 0.950 . S
H364 C340 0.950 . S
H365 C341 0.949 . S
H366 C343 0.950 . S
H367 C345 0.950 . S
C368 C369 1.349 . S
C368 C370 1.327 . S
C368 H393 0.950 . S
C369 C368 1.349 . S
C369 C385 1.349 . S
C370 C368 1.327 . S
C370 C389 1.429 . S
C370 H394 0.950 . S
C371 C388 1.574 . S
C371 C390 1.368 . S
C371 H395 0.949 . S
H372 C376 0.949 . S
C373 C374 1.349 . S
C373 C375 1.327 . S
C373 H396 0.950 . S
C374 C373 1.349 . S
C374 C386 1.349 . S
C375 C373 1.327 . S
C375 C391 1.429 . S
C375 H397 0.950 . S
C376 H372 0.949 . S
C376 C384 1.574 . S
C376 C392 1.368 . S
H377 C385 0.950 . S
H378 C383 0.950 . S
H379 C384 0.949 . S
H380 C386 0.950 . S
H381 C387 0.950 . S
H382 C388 0.949 . S
C383 H378 0.950 . S
C383 C385 1.327 . S
C383 C389 1.429 . S
C384 C376 1.574 . S
C384 H379 0.949 . S
C384 C390 1.368 . S
C385 C369 1.349 . S
C385 H377 0.950 . S
C385 C383 1.327 . S
C386 C374 1.349 . S
C386 H380 0.950 . S
C386 C387 1.327 . S
C387 H381 0.950 . S
C387 C386 1.327 . S
C387 C391 1.429 . S
C388 C371 1.574 . S
C388 H382 0.949 . S
C388 C392 1.368 . S
C389 C370 1.429 . S
C389 C383 1.429 . S
C389 C390 1.523 . S
C390 C371 1.368 . S
C390 C384 1.368 . S
C390 C389 1.523 . S
C391 C375 1.429 . S
C391 C387 1.429 . S
C391 C392 1.523 . S
C392 C376 1.368 . S
C392 C388 1.368 . S
C392 C391 1.523 . S
H393 C368 0.950 . S
H394 C370 0.950 . S
H395 C371 0.949 . S
H396 C373 0.950 . S
H397 C375 0.950 . S
C398 C399 1.349 . S
C398 C400 1.327 . S
C398 H423 0.950 . S
C399 C398 1.349 . S
C399 C415 1.349 . S
C400 C398 1.327 . S
C400 C419 1.429 . S
C400 H424 0.950 1_455 S
C401 C418 1.574 . S
C401 C420 1.368 . S
C401 H425 0.949 . S
H402 C406 0.949 . S
C403 C404 1.349 . S
C403 C405 1.327 . S
C403 H426 0.950 . S
C404 C403 1.349 . S
C404 C416 1.349 . S
C405 C403 1.327 . S
C405 C421 1.429 . S
C405 H427 0.935 1_655 S
C406 H402 0.949 . S
C406 C414 1.574 . S
C406 C422 1.368 . S
H407 C415 0.950 . S
H408 C413 0.950 . S
H409 C414 0.949 . S
H410 C416 0.950 . S
H411 C417 0.950 . S
H412 C418 0.949 . S
C413 H408 0.950 . S
C413 C415 1.327 . S
C413 C419 1.429 . S
C414 C406 1.574 . S
C414 H409 0.949 . S
C414 C420 1.368 1_655 S
C415 C399 1.349 . S
C415 H407 0.950 . S
C415 C413 1.327 . S
C416 C404 1.349 . S
C416 H410 0.950 . S
C416 C417 1.327 . S
C417 H411 0.950 . S
C417 C416 1.327 . S
C417 C421 1.429 . S
C418 C401 1.574 . S
C418 H412 0.949 . S
C418 C422 1.368 1_455 S
C419 C400 1.429 . S
C419 C413 1.429 . S
C419 C420 1.523 . S
C420 C401 1.368 . S
C420 C414 1.368 1_455 S
C420 C419 1.523 . S
C421 C405 1.429 . S
C421 C417 1.429 . S
C421 C422 1.523 . S
C422 C406 1.368 . S
C422 C418 1.368 1_655 S
C422 C421 1.523 . S
H423 C398 0.950 . S
H424 C400 0.950 1_655 S
H425 C401 0.949 . S
H426 C403 0.950 . S
H427 C405 0.935 1_455 S
C428 C429 1.349 . S
C428 C430 1.327 . S
C428 H453 0.950 . S
C429 C428 1.349 . S
C429 C445 1.349 . S
C430 C428 1.327 . S
C430 C449 1.429 . S
C430 H454 0.950 . S
C431 C448 1.574 1_556 S
C431 C450 1.368 . S
C431 H455 0.949 . S
H432 C436 0.949 . S
C433 C434 1.349 . S
C433 C435 1.327 . S
C433 H456 0.950 . S
C434 C433 1.349 . S
C434 C446 1.349 . S
C435 C433 1.327 . S
C435 C451 1.429 . S
C435 H457 0.950 . S
C436 H432 0.949 . S
C436 C444 1.574 . S
C436 C452 1.368 . S
H437 C445 0.950 . S
H438 C443 0.950 . S
H439 C444 0.949 . S
H440 C446 0.950 . S
H441 C447 0.950 . S
H442 C448 0.949 1_556 S
C443 H438 0.950 . S
C443 C445 1.327 . S
C443 C449 1.429 . S
C444 C436 1.574 . S
C444 H439 0.949 . S
C444 C450 1.368 1_554 S
C445 C429 1.349 . S
C445 H437 0.950 . S
C445 C443 1.327 . S
C446 C434 1.349 . S
C446 H440 0.950 . S
C446 C447 1.327 . S
C447 H441 0.950 . S
C447 C446 1.327 . S
C447 C451 1.429 . S
C448 C431 1.574 1_554 S
C448 H442 0.949 1_554 S
C448 C452 1.368 . S
C449 C430 1.429 . S
C449 C443 1.429 . S
C449 C450 1.523 . S
C450 C431 1.368 . S
C450 C444 1.368 1_556 S
C450 C449 1.523 . S
C451 C435 1.429 . S
C451 C447 1.429 . S
C451 C452 1.523 . S
C452 C436 1.368 . S
C452 C448 1.368 . S
C452 C451 1.523 . S
H453 C428 0.950 . S
H454 C430 0.950 . S
H455 C431 0.949 . S
H456 C433 0.950 . S
H457 C435 0.950 . S
C458 C459 1.349 . S
C458 C460 1.327 . S
C458 H483 0.950 . S
C459 C458 1.349 . S
C459 C475 1.349 . S
C460 C458 1.327 . S
C460 C479 1.429 . S
C460 H484 0.950 . S
C461 C478 1.574 . S
C461 C480 1.368 . S
C461 H485 0.949 . S
H462 C466 0.949 . S
C463 C464 1.349 . S
C463 C465 1.327 . S
C463 H486 0.950 . S
C464 C463 1.349 . S
C464 C476 1.349 . S
C465 C463 1.327 . S
C465 C481 1.429 . S
C465 H487 0.950 . S
C466 H462 0.949 . S
C466 C474 1.574 . S
C466 C482 1.368 . S
H467 C475 0.950 . S
H468 C473 0.950 . S
H469 C474 0.949 . S
H470 C476 0.950 . S
H471 C477 0.950 . S
H472 C478 0.949 . S
C473 H468 0.950 . S
C473 C475 1.327 . S
C473 C479 1.429 . S
C474 C466 1.574 . S
C474 H469 0.949 . S
C474 C480 1.368 . S
C475 C459 1.349 . S
C475 H467 0.950 . S
C475 C473 1.327 . S
C476 C464 1.349 . S
C476 H470 0.950 . S
C476 C477 1.327 . S
C477 H471 0.950 . S
C477 C476 1.327 . S
C477 C481 1.429 . S
C478 C461 1.574 . S
C478 H472 0.949 . S
C478 C482 1.368 . S
C479 C460 1.429 . S
C479 C473 1.429 . S
C479 C480 1.523 . S
C480 C461 1.368 . S
C480 C474 1.368 . S
C480 C479 1.523 . S
C481 C465 1.429 . S
C481 C477 1.429 . S
C481 C482 1.523 . S
C482 C466 1.368 . S
C482 C478 1.368 . S
C482 C481 1.523 . S
H483 C458 0.950 . S
H484 C460 0.950 . S
H485 C461 0.949 . S
H486 C463 0.950 . S
H487 C465 0.950 . S
C129 C93 1.193 . S
C134 N18 1.200 . S
C159 C102 1.511 . S
C164 C61 1.440 . S
C189 N77 0.865 . S
C194 C4 0.857 . S
C219 C98 1.421 . S
C224 N45 1.383 . S
C249 N50 1.016 . S
C254 C29 1.007 . S
C279 C66 1.797 . S
C284 C38 1.821 . S
C309 C68 1.052 . S
C314 C100 1.088 . S
C339 C6 1.498 . S
C344 N109 1.442 1_545 S
C369 C36 1.046 . S
C374 N13 1.047 . S
C399 C70 2.193 . S
C404 C34 2.185 . S
C429 N82 0.932 1_655 S
C434 N114 0.941 . S
C459 C125 1.455 . S
C464 C2 1.493 . S
