# Generated by pormake.
# Topology sml, (6)-cn, num edge types: 1
# Building blocks:
#     Node 0, Type 0, BuildingBlock: IZENUY_clean_sbu_0, # of connection points: 6
#     Node 1, Type 0, BuildingBlock: IZENUY_clean_sbu_0, # of connection points: 6
#     Node 2, Type 0, BuildingBlock: IZENUY_clean_sbu_0, # of connection points: 6
#     Node 3, Type 0, BuildingBlock: IZENUY_clean_sbu_0, # of connection points: 6
#     Node 4, Type 0, BuildingBlock: IZENUY_clean_sbu_0, # of connection points: 6
#     Node 5, Type 0, BuildingBlock: IZENUY_clean_sbu_0, # of connection points: 6
#     Edge 6, Type (0, 0), BuildingBlock: FUNLAD_clean_linker_0, # of connection points: 2
#     Edge 7, Type (0, 0), BuildingBlock: FUNLAD_clean_linker_0, # of connection points: 2
#     Edge 8, Type (0, 0), BuildingBlock: FUNLAD_clean_linker_0, # of connection points: 2
#     Edge 9, Type (0, 0), BuildingBlock: FUNLAD_clean_linker_0, # of connection points: 2
#     Edge 10, Type (0, 0), BuildingBlock: FUNLAD_clean_linker_0, # of connection points: 2
#     Edge 11, Type (0, 0), BuildingBlock: FUNLAD_clean_linker_0, # of connection points: 2
#     Edge 12, Type (0, 0), BuildingBlock: FUNLAD_clean_linker_0, # of connection points: 2
#     Edge 13, Type (0, 0), BuildingBlock: FUNLAD_clean_linker_0, # of connection points: 2
#     Edge 14, Type (0, 0), BuildingBlock: FUNLAD_clean_linker_0, # of connection points: 2
#     Edge 15, Type (0, 0), BuildingBlock: FUNLAD_clean_linker_0, # of connection points: 2
#     Edge 16, Type (0, 0), BuildingBlock: FUNLAD_clean_linker_0, # of connection points: 2
#     Edge 17, Type (0, 0), BuildingBlock: FUNLAD_clean_linker_0, # of connection points: 2
#     Edge 18, Type (0, 0), BuildingBlock: FUNLAD_clean_linker_0, # of connection points: 2
#     Edge 19, Type (0, 0), BuildingBlock: FUNLAD_clean_linker_0, # of connection points: 2
#     Edge 20, Type (0, 0), BuildingBlock: FUNLAD_clean_linker_0, # of connection points: 2
#     Edge 21, Type (0, 0), BuildingBlock: FUNLAD_clean_linker_0, # of connection points: 2
#     Edge 22, Type (0, 0), BuildingBlock: FUNLAD_clean_linker_0, # of connection points: 2
#     Edge 23, Type (0, 0), BuildingBlock: FUNLAD_clean_linker_0, # of connection points: 2
# Relax obj value: 0.327
# Max RMSD: 0.283
# Mean RMSD: 0.283
data_MOF--net-sml--node1-IZENUY_clean_sbu_0--edge1-FUNLAD_clean_linker_0
_symmetry_space_group_name_H-M    P1
_symmetry_Int_Tables_number       1
_symmetry_cell_setting            triclinic
loop_
_symmetry_equiv_pos_as_xyz
'x, y, z'
_cell_length_a     46.611668
_cell_length_b     46.637052
_cell_length_c     17.031976
_cell_angle_alpha  89.728285
_cell_angle_beta   90.311427
_cell_angle_gamma 120.06567
loop_
_atom_site_label
_atom_site_type_symbol
_atom_site_fract_x
_atom_site_fract_y
_atom_site_fract_z
_atom_type_partial_charge
Fe0 Fe 0.26095 0.45303 0.06811 0.0
Fe1 Fe 0.20566 0.38382 0.01847 0.0
O2 O 0.22562 0.42764 0.01012 0.0
Fe3 Fe 0.21006 0.44589 0.94363 0.0
O4 O 0.22269 0.48292 0.00184 0.0
O5 O 0.24124 0.47429 0.11302 0.0
O6 O 0.24728 0.42506 0.1527 0.0
C7 C 0.21874 0.40207 0.17197 0.0
C8 C 0.27687 0.48562 0.92084 0.0
O9 O 0.19719 0.38513 0.1212 0.0
C10 C 0.20172 0.38955 0.86118 0.0
O11 O 0.28343 0.43428 0.02593 0.0
O12 O 0.24363 0.38273 0.0406 0.0
O13 O 0.24907 0.46659 0.88879 0.0
O14 O 0.28063 0.48525 -0.00574 0.0
C15 C 0.15247 0.3963 0.00702 0.0
O16 O 0.21271 0.37946 0.91584 0.0
O17 O 0.1944 0.4119 0.87285 0.0
C18 C 0.27346 0.40368 0.02514 0.0
O19 O 0.16394 0.37698 -0.0016 0.0
O20 O 0.17055 0.42707 -0.00474 0.0
C21 C 0.22999 0.48954 0.07346 0.0
Fe22 Fe 0.82038 0.26223 0.38119 0.0
Fe23 Fe 0.82336 0.19911 0.34697 0.0
O24 O 0.80238 0.22193 0.341 0.0
Fe25 Fe 0.76311 0.20438 0.29449 0.0
O26 O 0.74375 0.20634 0.38423 0.0
O27 O 0.78027 0.25836 0.40928 0.0
O28 O 0.8217 0.24717 0.47771 0.0
C29 C 0.83476 0.23007 0.49586 0.0
C30 C 0.79384 0.2725 0.24998 0.0
O31 O 0.84217 0.21548 0.44392 0.0
C32 C 0.79689 0.18731 0.19254 0.0
O33 O 0.86358 0.27343 0.36028 0.0
O34 O 0.85876 0.2308 0.2947 0.0
O35 O 0.7682 0.24434 0.25995 0.0
O36 O 0.82013 0.27993 0.28681 0.0
C37 C 0.75985 0.15007 0.37637 0.0
O38 O 0.80832 0.17884 0.25049 0.0
O39 O 0.78055 0.20182 0.20282 0.0
C40 C 0.87508 0.26104 0.31233 0.0
O41 O 0.78936 0.16591 0.40017 0.0
O42 O 0.75023 0.16109 0.32016 0.0
C43 C 0.7516 0.23321 0.41848 0.0
Fe44 Fe 0.56996 0.75658 0.57576 0.0
Fe45 Fe 0.56536 0.80627 0.68547 0.0
O46 O 0.58954 0.79294 0.63377 0.0
Fe47 Fe 0.6334 0.81586 0.63968 0.0
O48 O 0.63851 0.77941 0.63333 0.0
O49 O 0.58777 0.73703 0.63605 0.0
O50 O 0.53322 0.73574 0.63651 0.0
C51 C 0.52745 0.73922 0.70706 0.0
C52 C 0.6256 0.7996 0.48479 0.0
O53 O 0.54345 0.76718 0.74044 0.0
C54 C 0.61561 0.86511 0.62629 0.0
O55 O 0.55017 0.77366 0.51312 0.0
O56 O 0.53252 0.79116 0.61184 0.0
O57 O 0.63716 0.82253 0.53462 0.0
O58 O 0.60332 0.77066 0.50343 0.0
C59 C 0.61764 0.81962 0.79184 0.0
O60 O 0.58479 0.84571 0.63305 0.0
O61 O 0.63609 0.85625 0.64713 0.0
C62 C 0.53175 0.78402 0.54009 0.0
O63 O 0.59428 0.82396 0.76829 0.0
O64 O 0.63275 0.81101 0.74504 0.0
C65 C 0.61833 0.74942 0.65021 0.0
Fe66 Fe 0.82731 0.56634 0.93416 0.0
Fe67 Fe 0.77288 0.57005 0.0253 0.0
O68 O 0.81197 0.59011 0.97908 0.0
Fe69 Fe 0.83583 0.63386 0.976 0.0
O70 O 0.86948 0.63348 0.02787 0.0
O71 O 0.87158 0.59724 0.95034 0.0
O72 O 0.82818 0.54819 0.02719 0.0
C73 C 0.80252 0.5312 0.06789 0.0
C74 C 0.84009 0.61377 0.82423 0.0
O75 O 0.77708 0.53442 0.0596 0.0
C76 C 0.77373 0.62377 0.94449 0.0
O77 O 0.78611 0.53066 0.90989 0.0
O78 O 0.75242 0.5493 0.93549 0.0
O79 O 0.8535 0.63516 0.87825 0.0
O80 O 0.82619 0.58329 0.83979 0.0
C81 C 0.80896 0.62013 0.12922 0.0
O82 O 0.76199 0.60201 -0.00154 0.0
O83 O 0.80359 0.63665 0.92438 0.0
C84 C 0.75835 0.52909 0.9009 0.0
O85 O 0.79077 0.5895 0.11776 0.0
O86 O 0.82214 0.64012 0.07242 0.0
C87 C 0.88419 0.61879 0.0042 0.0
Fe88 Fe 0.26603 0.81391 0.28141 0.0
Fe89 Fe 0.21455 0.76262 0.39453 0.0
O90 O 0.22906 0.79901 0.33662 0.0
Fe91 Fe 0.20669 0.82054 0.33371 0.0
O92 O 0.24375 0.86169 0.32567 0.0
O93 O 0.28559 0.85264 0.33564 0.0
O94 O 0.28572 0.79922 0.35031 0.0
C95 C 0.28116 0.79219 0.42249 0.0
C96 C 0.22499 0.82615 0.18026 0.0
O97 O 0.25271 0.7806 0.45278 0.0
C98 C 0.15683 0.75318 0.32656 0.0
O99 O 0.24879 0.7755 0.22478 0.0
O100 O 0.23014 0.74308 0.32868 0.0
O101 O 0.20151 0.81606 0.22838 0.0
O102 O 0.25332 0.83183 0.20198 0.0
C103 C 0.2005 0.8038 0.48902 0.0
O104 O 0.17593 0.74184 0.33964 0.0
O105 O 0.1658 0.78314 0.34089 0.0
C106 C 0.23713 0.7472 0.25646 0.0
O107 O 0.19595 0.77559 0.47071 0.0
O108 O 0.21009 0.82667 0.43893 0.0
C109 C 0.27358 0.87139 0.34434 0.0
Fe110 Fe 0.45841 0.2051 0.70717 0.0
Fe111 Fe 0.39376 0.20519 0.67206 0.0
O112 O 0.43754 0.22506 0.66878 0.0
Fe113 Fe 0.46074 0.26499 0.62647 0.0
O114 O 0.48185 0.28207 0.71824 0.0
O115 O 0.49575 0.24404 0.7381 0.0
O116 O 0.44213 0.20326 0.8036 0.0
C117 C 0.41201 0.19129 0.8208 0.0
C118 C 0.49542 0.23238 0.5773 0.0
O119 O 0.39026 0.18495 0.76803 0.0
C120 C 0.41024 0.23393 0.52013 0.0
O121 O 0.42524 0.16261 0.6833 0.0
O122 O 0.38937 0.17044 0.61678 0.0
O123 O 0.49468 0.25872 0.59112 0.0
O124 O 0.47596 0.20587 0.61241 0.0
C125 C 0.40971 0.26856 0.70739 0.0
O126 O 0.38979 0.22202 0.57659 0.0
O127 O 0.44103 0.24984 0.5328 0.0
C128 C 0.40213 0.15296 0.63299 0.0
O129 O 0.39508 0.2386 0.72743 0.0
O130 O 0.43146 0.27904 0.65389 0.0
C131 C 0.50023 0.27285 0.75081 0.0
C132 C 0.37565 0.27844 0.80452 0.0
C133 C 0.39953 0.29079 0.74457 0.0
C134 C 0.36539 0.29862 0.8401 0.0
C135 C 0.379 0.33199 0.81748 0.0
C136 C 0.40276 0.34438 0.75726 0.0
C137 C 0.41311 0.32407 0.72143 0.0
C138 C 0.36709 0.35346 0.85194 0.0
C139 C 0.35318 0.34794 0.92376 0.0
C140 C 0.33535 0.36457 0.95368 0.0
C141 C 0.30888 0.34685 0.00557 0.0
C142 C 0.28944 0.36004 0.03056 0.0
C143 C 0.29649 0.39165 0.00567 0.0
H144 H 0.36399 0.41144 0.89239 0.0
C145 C 0.32407 0.41025 0.95703 0.0
C146 C 0.34324 0.39675 0.93076 0.0
H147 H 0.33006 0.4347 0.93692 0.0
H148 H 0.36447 0.25291 0.82378 0.0
H149 H 0.34606 0.2875 0.88376 0.0
H150 H 0.41332 0.36984 0.73785 0.0
H151 H 0.43152 0.33437 0.67537 0.0
H152 H 0.36856 0.37331 0.8155 0.0
H153 H 0.35226 0.32838 0.96036 0.0
H154 H 0.30242 0.32214 0.02467 0.0
H155 H 0.2685 0.34519 0.06843 0.0
C156 C 0.10568 0.40053 0.06818 0.0
C157 C 0.11708 0.38191 0.02794 0.0
C158 C 0.0728 0.38547 0.09461 0.0
C159 C 0.0507 0.35162 0.08022 0.0
C160 C 0.06186 0.33359 0.03699 0.0
C161 C 0.09468 0.3484 0.01193 0.0
C162 C 1.01595 0.33381 0.10916 0.0
C163 C 1.00578 0.34178 0.17539 0.0
C164 C 0.97194 0.32084 0.20894 0.0
C165 C 0.95921 0.33504 0.26081 0.0
C166 C 0.92786 0.31579 0.29482 0.0
C167 C 0.90864 0.28175 0.27821 0.0
H168 H 0.96202 0.27422 0.15648 0.0
C169 C 0.9216 0.26749 0.22711 0.0
C170 C 0.95283 0.28666 0.19335 0.0
H171 H 0.90768 0.24133 0.21326 0.0
H172 H 0.12241 0.42642 0.08131 0.0
H173 H 0.06484 0.40038 0.12601 0.0
H174 H 0.04533 0.30758 0.0244 0.0
H175 H 0.1026 0.33343 0.98052 0.0
H176 H 0.99866 0.3119 0.07657 0.0
H177 H 0.02291 0.36393 0.20757 0.0
H178 H 0.9735 0.36118 0.2748 0.0
H179 H 0.91868 0.32761 0.33393 0.0
C180 C 0.71144 0.09206 0.36762 0.0
C181 C 0.73712 0.11738 0.41178 0.0
C182 C 0.69112 0.06075 0.40102 0.0
C183 C 0.69565 0.05452 0.47972 0.0
C184 C 0.72043 0.08023 0.52458 0.0
C185 C 0.74129 0.11119 0.49068 0.0
C186 C 0.67554 0.02125 0.51588 0.0
C187 C 0.66905 0.99347 0.47761 0.0
C188 C 0.65458 0.96081 0.51724 0.0
C189 C 0.66917 0.94128 0.50475 0.0
C190 C 0.65673 0.91063 0.54188 0.0
C191 C 0.62863 0.89821 0.59018 0.0
H192 H 0.61468 0.96322 0.57584 0.0
C193 C 0.61336 0.91732 0.60131 0.0
C194 C 0.62659 0.94871 0.56609 0.0
H195 H 0.59158 0.90822 0.63798 0.0
H196 H 0.7076 0.0962 0.3068 0.0
H197 H 0.67185 0.04147 0.36542 0.0
H198 H 0.7243 0.07606 0.58538 0.0
H199 H 0.76066 0.13037 0.52637 0.0
H200 H 0.66955 0.01985 0.5779 0.0
H201 H 0.67846 0.99537 0.41839 0.0
H202 H 0.69065 0.95003 0.46713 0.0
H203 H 0.66882 0.8963 0.53158 0.0
C204 C 0.66532 0.74338 0.70205 0.0
C205 C 0.63127 0.72897 0.68568 0.0
C206 C 0.67783 0.72517 0.73901 0.0
C207 C 0.6567 0.69182 0.76003 0.0
C208 C 0.62259 0.67744 0.74469 0.0
C209 C 0.60998 0.69576 0.70755 0.0
C210 C 0.66977 0.67215 0.8 0.0
C211 C 0.70082 0.67814 0.78729 0.0
C212 C 0.71684 0.66131 0.82754 0.0
C213 C 0.74696 0.66655 0.79694 0.0
C214 C 0.76482 0.65392 0.83471 0.0
C215 C 0.75317 0.63561 0.90468 0.0
H216 H 0.68166 0.63803 0.923 0.0
C217 C 0.72253 0.62942 0.93474 0.0
C218 C 0.70455 0.64231 0.89676 0.0
H219 H 0.71286 0.61532 -0.01158 0.0
H220 H 0.68243 0.76904 0.68747 0.0
H221 H 0.70405 0.73767 0.75253 0.0
H222 H 0.60569 0.65194 0.76112 0.0
H223 H 0.58356 0.684 0.69675 0.0
H224 H 0.65319 0.65202 0.83831 0.0
H225 H 0.71572 0.69648 0.74327 0.0
H226 H 0.7571 0.68097 0.7438 0.0
H227 H 0.78804 0.65877 0.80889 0.0
C228 C 0.10941 0.74478 0.2423 0.0
C229 C 0.12342 0.73145 0.29366 0.0
C230 C 0.0782 0.72452 0.20895 0.0
C231 C 0.06007 0.69062 0.22755 0.0
C232 C 0.07382 0.67733 0.27976 0.0
C233 C 0.10555 0.69745 0.31142 0.0
C234 C 0.02591 0.66957 0.19719 0.0
C235 C 0.0174 0.67206 0.12284 0.0
C236 C 0.98251 0.65495 0.09511 0.0
C237 C 0.97504 0.64392 0.01706 0.0
C238 C 0.94267 0.63067 -0.01212 0.0
C239 C 0.9176 0.62936 0.03568 0.0
H240 H 0.96217 0.66141 0.20349 0.0
C241 C 0.92503 0.64007 0.11395 0.0
C242 C 0.95706 0.65245 0.14361 0.0
H243 H 0.9061 0.63928 0.15207 0.0
H244 H 0.12276 0.77087 0.22716 0.0
H245 H 0.06792 0.73559 0.17019 0.0
H246 H 0.0601 0.65133 0.29557 0.0
H247 H 0.11582 0.6866 0.3509 0.0
H248 H 1.00736 0.65174 0.2371 0.0
H249 H 0.03659 0.68753 0.08106 0.0
H250 H 0.99435 0.64595 0.97839 0.0
H251 H 0.93759 0.62275 0.92721 0.0
C252 C 0.39756 0.09696 0.61733 0.0
C253 C 0.38874 0.12044 0.59348 0.0
C254 C 0.38408 0.06623 0.57922 0.0
C255 C 0.36176 0.05862 0.51592 0.0
C256 C 0.35354 0.08243 0.49181 0.0
C257 C 0.36676 0.11281 0.52988 0.0
C258 C 0.34495 0.02601 0.47508 0.0
C259 C 0.35155 1.00122 0.48587 0.0
C260 C 0.33175 0.96844 0.44674 0.0
C261 C 0.34606 0.94863 0.43304 0.0
C262 C 0.32757 0.91738 0.39809 0.0
C263 C 0.29426 0.90523 0.37658 0.0
H264 H 0.2858 0.96975 0.43818 0.0
C265 C 0.27997 0.92503 0.39076 0.0
C266 C 0.29833 0.95605 0.42579 0.0
H267 H 0.25422 0.91631 0.3764 0.0
H268 H 0.41448 0.10213 0.66603 0.0
H269 H 0.39087 0.04859 0.60061 0.0
H270 H 0.33647 0.07743 0.44346 0.0
H271 H 0.35963 0.13037 0.50912 0.0
H272 H 0.32591 0.02245 0.43284 0.0
H273 H 0.37214 1.00486 0.52274 0.0
H274 H 0.37161 0.95734 0.44948 0.0
H275 H 0.33925 0.90261 0.38888 0.0
C276 C 0.16786 0.37207 0.73989 0.0
C277 C 0.19375 0.37309 0.78448 0.0
C278 C 0.1633 0.36177 0.6622 0.0
C279 C 0.18497 0.35292 0.62742 0.0
C280 C 0.20866 0.35061 0.67398 0.0
C281 C 0.21304 0.36065 0.75256 0.0
C282 C 0.18683 0.35204 0.54119 0.0
C283 C 0.18797 0.37703 0.49914 0.0
C284 C 0.19613 0.38212 0.4153 0.0
C285 C 0.18241 0.35589 0.36136 0.0
C286 C 0.18956 0.36225 0.28146 0.0
C287 C 0.21111 0.39473 0.25543 0.0
H288 H 0.22785 0.43505 0.42982 0.0
C289 C 0.22508 0.42073 0.30977 0.0
C290 C 0.21723 0.41452 0.38892 0.0
H291 H 0.24148 0.44601 0.2908 0.0
H292 H 0.152 0.38062 0.76401 0.0
H293 H 0.1443 0.36293 0.6277 0.0
H294 H 0.22546 0.34364 0.6481 0.0
H295 H 0.23289 0.36086 0.78643 0.0
H296 H 0.19212 0.3342 0.51376 0.0
H297 H 0.18664 0.39688 0.52919 0.0
H298 H 0.16566 0.33076 0.38065 0.0
H299 H 0.1785 0.34187 0.24024 0.0
C300 C 0.78392 0.18345 0.04989 0.0
C301 C 0.80293 0.18097 0.11099 0.0
C302 C 0.79264 0.18347 0.97195 0.0
C303 C 0.8207 0.18119 0.95302 0.0
C304 C 0.83827 0.17603 0.01337 0.0
C305 C 0.82953 0.17607 0.09212 0.0
C306 C 0.83251 0.18637 0.87072 0.0
C307 C 0.83384 0.2116 0.82892 0.0
C308 C 0.84045 0.21743 0.74349 0.0
C309 C 0.83854 0.19314 0.69141 0.0
C310 C 0.83897 0.19807 0.61 0.0
C311 C 0.84091 0.22709 0.57978 0.0
H312 H 0.84642 0.26649 0.75117 0.0
C313 C 0.84485 0.25202 0.63189 0.0
C314 C 0.84474 0.24728 0.71263 0.0
H315 H 0.84671 0.27479 0.61029 0.0
H316 H 0.76291 0.18665 0.06224 0.0
H317 H 0.77802 0.18643 0.92632 0.0
H318 H 0.85977 0.17383 -0.0001 0.0
H319 H 0.8446 0.17405 0.13802 0.0
H320 H 0.84038 0.17006 0.8459 0.0
H321 H 0.82844 0.22884 0.85927 0.0
H322 H 0.83487 0.16966 0.71277 0.0
H323 H 0.83567 0.17836 0.57096 0.0
C324 C 0.63333 0.77947 0.35577 0.0
C325 C 0.63881 0.80603 0.40428 0.0
C326 C 0.64257 0.78491 0.27706 0.0
C327 C 0.65683 0.81686 0.24503 0.0
C328 C 0.66419 0.84377 0.29451 0.0
C329 C 0.65531 0.83838 0.37369 0.0
C330 C 0.6608 0.82058 0.1589 0.0
C331 C 0.65453 0.84179 0.11888 0.0
C332 C 0.6481 0.83878 0.03328 0.0
C333 C 0.66273 0.82615 0.98233 0.0
C334 C 0.65314 0.8203 0.90355 0.0
C335 C 0.62887 0.82705 0.87426 0.0
H336 H 0.61355 0.85686 0.04118 0.0
C337 C 0.61532 0.84093 0.92462 0.0
C338 C 0.62503 0.84692 0.00317 0.0
H339 H 0.59687 0.84681 0.90374 0.0
H340 H 0.62112 0.75431 0.37806 0.0
H341 H 0.63692 0.76384 0.24017 0.0
H342 H 0.67599 0.86884 0.27178 0.0
H343 H 0.66012 0.85934 0.40997 0.0
H344 H 0.66321 0.80169 0.1275 0.0
H345 H 0.64878 0.85838 0.15089 0.0
H346 H 0.68131 0.82049 0.00318 0.0
H347 H 0.66438 0.80998 0.86598 0.0
C348 C 0.86021 0.65249 0.70789 0.0
C349 C 0.8356 0.62375 0.74508 0.0
C350 C 0.85472 0.66069 0.63197 0.0
C351 C 0.82415 0.6407 0.59389 0.0
C352 C 0.79927 0.61294 0.63301 0.0
C353 C 0.80505 0.60429 0.70716 0.0
C354 C 0.81718 0.64647 0.51228 0.0
C355 C 0.83973 0.65643 0.45443 0.0
C356 C 0.82969 0.64998 0.37046 0.0
C357 C 0.85187 0.66973 0.31153 0.0
C358 C 0.8444 0.66122 0.2322 0.0
C359 C 0.81492 0.63237 0.21084 0.0
H360 H 0.78238 0.60517 0.3917 0.0
C361 C 0.79243 0.61316 0.26965 0.0
C362 C 0.79966 0.6218 0.34836 0.0
H363 H 0.76959 0.59071 0.25505 0.0
H364 H 0.88377 0.66811 0.73671 0.0
H365 H 0.87418 0.68257 0.6035 0.0
H366 H 0.77549 0.59722 0.60509 0.0
H367 H 0.78535 0.58243 0.73534 0.0
H368 H 0.79132 0.63722 0.49728 0.0
H369 H 0.86576 0.66625 0.46851 0.0
H370 H 0.87536 0.69125 0.327 0.0
H371 H 0.86238 0.67626 0.18802 0.0
C372 C 0.20533 0.84148 0.59892 0.0
C373 C 0.19294 0.80926 0.56965 0.0
C374 C 0.20057 0.84635 0.67761 0.0
C375 C 0.18319 0.81901 0.72798 0.0
C376 C 0.16902 0.78691 0.6973 0.0
C377 C 0.17408 0.78204 0.61912 0.0
C378 C 0.18169 0.82274 0.8138 0.0
C379 C 0.20734 0.84669 0.85409 0.0
C380 C 0.21105 0.8444 0.93986 0.0
C381 C 0.24302 0.85641 0.97047 0.0
C382 C 0.24754 0.85087 0.04884 0.0
C383 C 0.22011 0.83359 0.09859 0.0
H384 H 0.15869 0.81972 0.96903 0.0
C385 C 0.18815 0.82313 0.0691 0.0
C386 C 0.18363 0.82848 -0.00964 0.0
H387 H 0.16655 0.8101 0.10628 0.0
H388 H 0.21965 0.86292 0.56185 0.0
H389 H 0.21105 0.87144 0.69916 0.0
H390 H 0.15533 0.76547 0.73482 0.0
H391 H 0.16373 0.75689 0.59793 0.0
H392 H 0.16175 0.80214 0.84527 0.0
H393 H 0.22879 0.86545 0.82241 0.0
H394 H 0.26455 0.86893 0.93284 0.0
H395 H 0.27253 0.85968 0.07001 0.0
C396 C 0.42128 0.24574 0.3772 0.0
C397 C 0.39861 0.2282 0.43744 0.0
C398 C 0.41285 0.23702 0.29888 0.0
C399 C 0.38154 0.21044 0.27853 0.0
C400 C 0.3579 0.19438 0.33782 0.0
C401 C 0.36643 0.20305 0.41691 0.0
C402 C 0.37437 0.19876 0.19589 0.0
C403 C 0.39738 0.19618 0.15381 0.0
C404 C 0.39545 0.18858 0.06859 0.0
C405 C 0.41935 0.18181 0.03815 0.0
C406 C 0.42309 0.18046 0.95743 0.0
C407 C 0.40288 0.18568 0.90478 0.0
H408 H 0.35517 0.19731 0.03716 0.0
C409 C 0.37729 0.1901 0.9347 0.0
C410 C 0.37368 0.19172 0.01614 0.0
H411 H 0.36157 0.19451 0.89533 0.0
H412 H 0.44611 0.26558 0.39058 0.0
H413 H 0.43124 0.25059 0.25418 0.0
H414 H 0.33346 0.17407 0.32336 0.0
H415 H 0.34839 0.18906 0.46193 0.0
H416 H 0.35021 0.19162 0.17111 0.0
H417 H 0.41996 0.20077 0.18382 0.0
H418 H 0.43638 0.17913 0.07693 0.0
H419 H 0.44288 0.17678 0.93617 0.0
C420 C 0.21975 0.53668 0.05561 0.0
C421 C 0.23024 0.51926 0.10471 0.0
C422 C 0.22237 0.56634 0.07969 0.0
C423 C 0.23541 0.57944 0.15384 0.0
C424 C 0.24476 0.56159 0.20447 0.0
C425 C 0.24248 0.53183 0.17992 0.0
C426 C 0.23725 0.61047 0.18093 0.0
C427 C 0.24142 0.63501 0.13152 0.0
C428 C 0.2387 0.66372 0.1584 0.0
C429 C 0.25809 0.69515 0.12389 0.0
C430 C 0.25664 0.72263 0.1522 0.0
C431 C 0.23543 0.71873 0.2147 0.0
H432 H 0.19963 0.63556 0.24252 0.0
C433 C 0.21443 0.6868 0.24488 0.0
C434 C 0.21605 0.65968 0.21724 0.0
H435 H 0.19725 0.68284 0.29193 0.0
H436 H 0.20977 0.52765 -0.00243 0.0
H437 H 0.21363 0.57864 0.04036 0.0
H438 H 0.25429 0.57092 0.26264 0.0
H439 H 0.25065 0.51899 0.2192 0.0
H440 H 0.23499 0.6131 0.24361 0.0
H441 H 0.24723 0.63427 0.07015 0.0
H442 H 0.2752 0.69864 0.0771 0.0
H443 H 0.27303 0.74693 0.12779 0.0
C444 C 0.69255 0.20967 0.45925 0.0
C445 C 0.72464 0.23724 0.45246 0.0
C446 C 0.66574 0.21382 0.4777 0.0
C447 C 0.67035 0.24568 0.4896 0.0
C448 C 0.70266 0.27301 0.4884 0.0
C449 C 0.72958 0.2689 0.46958 0.0
C450 C 0.64187 0.2509 0.5037 0.0
C451 C 0.61174 0.23121 0.47156 0.0
C452 C 0.58192 0.23365 0.48971 0.0
C453 C 0.55073 0.20487 0.484 0.0
C454 C 0.52222 0.20495 0.5082 0.0
C455 C 0.52424 0.23403 0.5373 0.0
H456 H 0.60723 0.28624 0.51689 0.0
C457 C 0.5551 0.26349 0.53764 0.0
C458 C 0.58376 0.2633 0.5143 0.0
H459 H 0.55743 0.28629 0.55985 0.0
H460 H 0.68789 0.18487 0.44776 0.0
H461 H 0.64139 0.192 0.48184 0.0
H462 H 0.70694 0.29775 0.49896 0.0
H463 H 0.75398 0.29066 0.4652 0.0
H464 H 0.64609 0.2715 0.5409 0.0
H465 H 0.60811 0.21099 0.4336 0.0
H466 H 0.54855 0.18181 0.46415 0.0
H467 H 0.49873 0.18193 0.50689 0.0
C468 C 0.33659 0.52732 0.91119 0.0
C469 C 0.30475 0.51268 0.87733 0.0
C470 C 0.3625 0.55667 0.88141 0.0
C471 C 0.35738 0.57218 0.81649 0.0
C472 C 0.32624 0.55649 0.77892 0.0
C473 C 0.29994 0.527 0.80946 0.0
C474 C 0.38487 0.60383 0.78557 0.0
C475 C 0.40873 0.62692 0.83235 0.0
C476 C 0.43907 0.65602 0.80098 0.0
C477 C 0.45595 0.68545 0.84496 0.0
C478 C 0.48517 0.71272 0.81621 0.0
C479 C 0.49817 0.71064 0.7436 0.0
H480 H 0.44124 0.63119 0.69567 0.0
C481 C 0.4817 0.68063 0.70156 0.0
C482 C 0.45265 0.65384 0.72962 0.0
H483 H 0.49108 0.67768 0.64592 0.0
H484 H 0.34133 0.51656 0.96268 0.0
H485 H 0.38655 0.56718 0.90957 0.0
H486 H 0.32196 0.56763 0.72753 0.0
H487 H 0.2757 0.51632 0.78218 0.0
H488 H 0.38542 0.6081 0.7227 0.0
H489 H 0.40625 0.62425 0.89576 0.0
H490 H 0.44628 0.68747 0.90107 0.0
H491 H 0.49726 0.73536 0.85014 0.0
C492 C 0.81903 0.33132 0.20489 0.0
C493 C 0.79088 0.29966 0.21242 0.0
C494 C 0.81583 0.35851 0.1834 0.0
C495 C 0.78435 0.35471 0.16916 0.0
C496 C 0.75646 0.32275 0.1711 0.0
C497 C 0.75963 0.29547 0.19291 0.0
C498 C 0.78007 0.38365 0.15198 0.0
C499 C 0.80042 0.41394 0.18223 0.0
C500 C 0.79886 0.44409 0.16131 0.0
C501 C 0.82821 0.47487 0.16525 0.0
C502 C 0.82891 0.5036 0.13902 0.0
C503 C 0.80005 0.50228 0.10982 0.0
H504 H 0.74617 0.41986 0.13471 0.0
C505 C 0.77008 0.47192 0.11095 0.0
C506 C 0.76948 0.44298 0.13617 0.0
H507 H 0.74748 0.47018 0.08839 0.0
H508 H 0.84354 0.33539 0.21823 0.0
H509 H 0.83808 0.3825 0.17881 0.0
H510 H 0.73201 0.31906 0.15882 0.0
H511 H 0.73743 0.27142 0.19782 0.0
H512 H 0.75957 0.37964 0.11417 0.0
H513 H 0.82054 0.41742 0.22087 0.0
H514 H 0.85109 0.47652 0.18537 0.0
H515 H 0.85233 0.52671 0.13897 0.0
C516 C 0.34103 0.81717 0.44845 0.0
C517 C 0.30861 0.79166 0.46423 0.0
C518 C 0.36805 0.81295 0.46431 0.0
C519 C 0.36315 0.78289 0.49556 0.0
C520 C 0.33102 0.75864 0.51851 0.0
C521 C 0.30382 0.76291 0.50262 0.0
C522 C 0.39099 0.77605 0.50279 0.0
C523 C 0.41694 0.78896 0.45275 0.0
C524 C 0.44594 0.78407 0.46152 0.0
C525 C 0.47728 0.80943 0.43695 0.0
C526 C 0.50584 0.80789 0.45468 0.0
C527 C 0.50329 0.78054 0.49534 0.0
H528 H 0.4195 0.735 0.51396 0.0
C529 C 0.47181 0.75389 0.51371 0.0
C530 C 0.44332 0.75553 0.49675 0.0
H531 H 0.46944 0.73285 0.54661 0.0
H532 H 0.34531 0.83965 0.41911 0.0
H533 H 0.39259 0.83289 0.44955 0.0
H534 H 0.3267 0.73552 0.54425 0.0
H535 H 0.27901 0.74272 0.51443 0.0
H536 H 0.38957 0.75951 0.54957 0.0
H537 H 0.41805 0.8053 0.40575 0.0
H538 H 0.47991 0.83151 0.40884 0.0
H539 H 0.52994 0.82909 0.44198 0.0
C540 C 0.72882 0.46869 0.86683 0.0
C541 C 0.73005 0.49944 0.86578 0.0
C542 C 0.69954 0.43967 0.84655 0.0
C543 C 0.67108 0.44101 0.82434 0.0
C544 C 0.67316 0.47203 0.81857 0.0
C545 C 0.70218 0.50088 0.83966 0.0
C546 C 0.63855 0.41099 0.80812 0.0
C547 C 0.62909 0.38055 0.83695 0.0
C548 C 0.59511 0.35214 0.82404 0.0
C549 C 0.59022 0.32008 0.81512 0.0
C550 C 0.55881 0.29357 0.79595 0.0
C551 C 0.53171 0.2987 0.78622 0.0
H552 H 0.57008 0.38078 0.83018 0.0
C553 C 0.53623 0.33032 0.80115 0.0
C554 C 0.56752 0.35671 0.81998 0.0
H555 H 0.51579 0.33503 0.79551 0.0
H556 H 0.74993 0.46684 0.88687 0.0
H557 H 0.69927 0.41636 0.84932 0.0
H558 H 0.6518 0.47387 0.80062 0.0
H559 H 0.70248 0.52426 0.83782 0.0
H560 H 0.62089 0.41466 0.77389 0.0
H561 H 0.6464 0.37598 0.86989 0.0
H562 H 0.61098 0.31581 0.8195 0.0
H563 H 0.55618 0.2695 0.78506 0.0
loop_
_geom_bond_atom_site_label_1
_geom_bond_atom_site_label_2
_geom_bond_distance
_geom_bond_site_symmetry_2
_ccdc_geom_bond_type
Fe0 O2 1.911 1_554 S
Fe0 O5 1.997 . S
Fe0 O6 2.002 . S
Fe0 O11 1.976 . S
Fe0 O14 1.996 1_554 S
Fe1 O2 1.918 1_554 S
Fe1 O9 2.007 . S
Fe1 O12 1.995 1_554 S
Fe1 O16 1.965 1_554 S
Fe1 O19 2.004 . S
O2 Fe0 1.911 1_556 S
O2 Fe1 1.918 1_556 S
O2 Fe3 1.925 . S
Fe3 O2 1.925 . S
Fe3 O4 2.002 1_556 S
Fe3 O13 1.976 . S
Fe3 O17 1.996 . S
Fe3 O20 1.997 . S
O4 Fe3 2.002 1_554 S
O4 C21 1.295 . S
O5 Fe0 1.997 . S
O5 C21 1.235 . S
O6 Fe0 2.002 . S
O6 C7 1.295 . S
C7 O6 1.295 . S
C7 O9 1.235 . S
C8 O13 1.287 . S
C8 O14 1.255 . S
O9 Fe1 2.007 . S
O9 C7 1.235 . S
C10 O16 1.287 . S
C10 O17 1.255 . S
O11 Fe0 1.976 . S
O11 C18 1.287 . S
O12 Fe1 1.995 1_556 S
O12 C18 1.255 1_556 S
O13 Fe3 1.976 . S
O13 C8 1.287 . S
O14 Fe0 1.996 1_556 S
O14 C8 1.255 . S
C15 O19 1.295 . S
C15 O20 1.235 1_554 S
O16 Fe1 1.965 1_556 S
O16 C10 1.287 . S
O17 Fe3 1.996 . S
O17 C10 1.255 . S
C18 O11 1.287 . S
C18 O12 1.255 1_554 S
O19 Fe1 2.004 . S
O19 C15 1.295 . S
O20 Fe3 1.997 . S
O20 C15 1.235 1_556 S
C21 O4 1.295 . S
C21 O5 1.235 . S
Fe22 O24 1.918 . S
Fe22 O27 1.997 . S
Fe22 O28 2.002 . S
Fe22 O33 1.976 . S
Fe22 O36 1.996 . S
Fe23 O24 1.918 . S
Fe23 O31 1.997 . S
Fe23 O34 1.996 . S
Fe23 O38 1.976 . S
Fe23 O41 2.002 . S
O24 Fe22 1.918 . S
O24 Fe23 1.918 . S
O24 Fe25 1.918 . S
Fe25 O24 1.918 . S
Fe25 O26 2.002 . S
Fe25 O35 1.976 . S
Fe25 O39 1.996 . S
Fe25 O42 1.997 . S
O26 Fe25 2.002 . S
O26 C43 1.295 . S
O27 Fe22 1.997 . S
O27 C43 1.235 . S
O28 Fe22 2.002 . S
O28 C29 1.295 . S
C29 O28 1.295 . S
C29 O31 1.235 . S
C30 O35 1.287 . S
C30 O36 1.255 . S
O31 Fe23 1.997 . S
O31 C29 1.235 . S
C32 O38 1.287 . S
C32 O39 1.255 . S
O33 Fe22 1.976 . S
O33 C40 1.287 . S
O34 Fe23 1.996 . S
O34 C40 1.255 . S
O35 Fe25 1.976 . S
O35 C30 1.287 . S
O36 Fe22 1.996 . S
O36 C30 1.255 . S
C37 O41 1.295 . S
C37 O42 1.235 . S
O38 Fe23 1.976 . S
O38 C32 1.287 . S
O39 Fe25 1.996 . S
O39 C32 1.255 . S
C40 O33 1.287 . S
C40 O34 1.255 . S
O41 Fe23 2.002 . S
O41 C37 1.295 . S
O42 Fe25 1.997 . S
O42 C37 1.235 . S
C43 O26 1.295 . S
C43 O27 1.235 . S
Fe44 O46 1.918 . S
Fe44 O49 1.997 . S
Fe44 O50 2.002 . S
Fe44 O55 1.976 . S
Fe44 O58 1.996 . S
Fe45 O46 1.918 . S
Fe45 O53 1.997 . S
Fe45 O56 1.996 . S
Fe45 O60 1.976 . S
Fe45 O63 2.002 . S
O46 Fe44 1.918 . S
O46 Fe45 1.918 . S
O46 Fe47 1.918 . S
Fe47 O46 1.918 . S
Fe47 O48 2.002 . S
Fe47 O57 1.976 . S
Fe47 O61 1.996 . S
Fe47 O64 1.997 . S
O48 Fe47 2.002 . S
O48 C65 1.295 . S
O49 Fe44 1.997 . S
O49 C65 1.235 . S
O50 Fe44 2.002 . S
O50 C51 1.295 . S
C51 O50 1.295 . S
C51 O53 1.235 . S
C52 O57 1.287 . S
C52 O58 1.255 . S
O53 Fe45 1.997 . S
O53 C51 1.235 . S
C54 O60 1.287 . S
C54 O61 1.255 . S
O55 Fe44 1.976 . S
O55 C62 1.287 . S
O56 Fe45 1.996 . S
O56 C62 1.255 . S
O57 Fe47 1.976 . S
O57 C52 1.287 . S
O58 Fe44 1.996 . S
O58 C52 1.255 . S
C59 O63 1.295 . S
C59 O64 1.235 . S
O60 Fe45 1.976 . S
O60 C54 1.287 . S
O61 Fe47 1.996 . S
O61 C54 1.255 . S
C62 O55 1.287 . S
C62 O56 1.255 . S
O63 Fe45 2.002 . S
O63 C59 1.295 . S
O64 Fe47 1.997 . S
O64 C59 1.235 . S
C65 O48 1.295 . S
C65 O49 1.235 . S
Fe66 O68 1.925 . S
Fe66 O71 1.997 . S
Fe66 O72 2.002 1_556 S
Fe66 O77 1.976 . S
Fe66 O80 1.996 . S
Fe67 O68 1.911 1_554 S
Fe67 O75 1.997 . S
Fe67 O78 1.996 1_554 S
Fe67 O82 1.976 . S
Fe67 O85 2.002 . S
O68 Fe66 1.925 . S
O68 Fe67 1.911 1_556 S
O68 Fe69 1.918 1_556 S
Fe69 O68 1.918 1_554 S
Fe69 O70 2.004 . S
Fe69 O79 1.965 1_554 S
Fe69 O83 1.995 1_554 S
Fe69 O86 2.007 . S
O70 Fe69 2.004 . S
O70 C87 1.295 . S
O71 Fe66 1.997 . S
O71 C87 1.235 1_556 S
O72 Fe66 2.002 1_554 S
O72 C73 1.295 . S
C73 O72 1.295 . S
C73 O75 1.235 . S
C74 O79 1.287 . S
C74 O80 1.255 . S
O75 Fe67 1.997 . S
O75 C73 1.235 . S
C76 O82 1.287 . S
C76 O83 1.255 1_554 S
O77 Fe66 1.976 . S
O77 C84 1.287 . S
O78 Fe67 1.996 1_556 S
O78 C84 1.255 . S
O79 Fe69 1.965 1_556 S
O79 C74 1.287 . S
O80 Fe66 1.996 . S
O80 C74 1.255 . S
C81 O85 1.295 . S
C81 O86 1.235 . S
O82 Fe67 1.976 . S
O82 C76 1.287 . S
O83 Fe69 1.995 1_556 S
O83 C76 1.255 1_556 S
C84 O77 1.287 . S
C84 O78 1.255 . S
O85 Fe67 2.002 . S
O85 C81 1.295 . S
O86 Fe69 2.007 . S
O86 C81 1.235 . S
C87 O70 1.295 . S
C87 O71 1.235 1_554 S
Fe88 O90 1.918 . S
Fe88 O93 1.997 . S
Fe88 O94 2.002 . S
Fe88 O99 1.976 . S
Fe88 O102 1.996 . S
Fe89 O90 1.918 . S
Fe89 O97 1.997 . S
Fe89 O100 1.996 . S
Fe89 O104 1.976 . S
Fe89 O107 2.002 . S
O90 Fe88 1.918 . S
O90 Fe89 1.918 . S
O90 Fe91 1.918 . S
Fe91 O90 1.918 . S
Fe91 O92 2.002 . S
Fe91 O101 1.976 . S
Fe91 O105 1.996 . S
Fe91 O108 1.997 . S
O92 Fe91 2.002 . S
O92 C109 1.295 . S
O93 Fe88 1.997 . S
O93 C109 1.235 . S
O94 Fe88 2.002 . S
O94 C95 1.295 . S
C95 O94 1.295 . S
C95 O97 1.235 . S
C96 O101 1.287 . S
C96 O102 1.255 . S
O97 Fe89 1.997 . S
O97 C95 1.235 . S
C98 O104 1.287 . S
C98 O105 1.255 . S
O99 Fe88 1.976 . S
O99 C106 1.287 . S
O100 Fe89 1.996 . S
O100 C106 1.255 . S
O101 Fe91 1.976 . S
O101 C96 1.287 . S
O102 Fe88 1.996 . S
O102 C96 1.255 . S
C103 O107 1.295 . S
C103 O108 1.235 . S
O104 Fe89 1.976 . S
O104 C98 1.287 . S
O105 Fe91 1.996 . S
O105 C98 1.255 . S
C106 O99 1.287 . S
C106 O100 1.255 . S
O107 Fe89 2.002 . S
O107 C103 1.295 . S
O108 Fe91 1.997 . S
O108 C103 1.235 . S
C109 O92 1.295 . S
C109 O93 1.235 . S
Fe110 O112 1.918 . S
Fe110 O115 1.997 . S
Fe110 O116 2.002 . S
Fe110 O121 1.976 . S
Fe110 O124 1.996 . S
Fe111 O112 1.918 . S
Fe111 O119 1.997 . S
Fe111 O122 1.996 . S
Fe111 O126 1.976 . S
Fe111 O129 2.002 . S
O112 Fe110 1.918 . S
O112 Fe111 1.918 . S
O112 Fe113 1.918 . S
Fe113 O112 1.918 . S
Fe113 O114 2.002 . S
Fe113 O123 1.976 . S
Fe113 O127 1.996 . S
Fe113 O130 1.997 . S
O114 Fe113 2.002 . S
O114 C131 1.295 . S
O115 Fe110 1.997 . S
O115 C131 1.235 . S
O116 Fe110 2.002 . S
O116 C117 1.295 . S
C117 O116 1.295 . S
C117 O119 1.235 . S
C118 O123 1.287 . S
C118 O124 1.255 . S
O119 Fe111 1.997 . S
O119 C117 1.235 . S
C120 O126 1.287 . S
C120 O127 1.255 . S
O121 Fe110 1.976 . S
O121 C128 1.287 . S
O122 Fe111 1.996 . S
O122 C128 1.255 . S
O123 Fe113 1.976 . S
O123 C118 1.287 . S
O124 Fe110 1.996 . S
O124 C118 1.255 . S
C125 O129 1.295 . S
C125 O130 1.235 . S
O126 Fe111 1.976 . S
O126 C120 1.287 . S
O127 Fe113 1.996 . S
O127 C120 1.255 . S
C128 O121 1.287 . S
C128 O122 1.255 . S
O129 Fe111 2.002 . S
O129 C125 1.295 . S
O130 Fe113 1.997 . S
O130 C125 1.235 . S
C131 O114 1.295 . S
C131 O115 1.235 . S
C132 C133 1.386 . S
C132 C134 1.383 . S
C132 H148 0.951 . S
C133 C132 1.386 . S
C133 C137 1.383 . S
C134 C132 1.383 . S
C134 C135 1.402 . S
C134 H149 0.951 . S
C135 C134 1.402 . S
C135 C136 1.375 . S
C135 C138 1.481 . S
C136 C135 1.375 . S
C136 C137 1.367 . S
C136 H150 0.951 . S
C137 C133 1.383 . S
C137 C136 1.367 . S
C137 H151 0.950 . S
C138 C135 1.481 . S
C138 C139 1.297 . S
C138 H152 0.950 . S
C139 C138 1.297 . S
C139 C140 1.479 . S
C139 H153 0.950 . S
C140 C139 1.479 . S
C140 C141 1.375 . S
C140 C146 1.404 . S
C141 C140 1.375 . S
C141 C142 1.369 1_556 S
C141 H154 0.950 1_556 S
C142 C141 1.369 1_554 S
C142 C143 1.392 1_554 S
C142 H155 0.951 . S
C143 C142 1.392 1_556 S
C143 C145 1.384 . S
H144 C146 0.949 . S
C145 C143 1.384 . S
C145 C146 1.385 . S
C145 H147 0.950 . S
C146 C140 1.404 . S
C146 H144 0.949 . S
C146 C145 1.385 . S
H147 C145 0.950 . S
H148 C132 0.951 . S
H149 C134 0.951 . S
H150 C136 0.951 . S
H151 C137 0.950 . S
H152 C138 0.950 . S
H153 C139 0.950 . S
H154 C141 0.950 1_554 S
H155 C142 0.951 . S
C156 C157 1.386 . S
C156 C158 1.383 . S
C156 H172 0.951 . S
C157 C156 1.386 . S
C157 C161 1.383 . S
C158 C156 1.383 . S
C158 C159 1.402 . S
C158 H173 0.951 . S
C159 C158 1.402 . S
C159 C160 1.375 . S
C159 C162 1.481 . S
C160 C159 1.375 . S
C160 C161 1.367 . S
C160 H174 0.951 . S
C161 C157 1.383 . S
C161 C160 1.367 . S
C161 H175 0.950 1_554 S
C162 C159 1.481 . S
C162 C163 1.297 1_455 S
C162 H176 0.950 1_455 S
C163 C162 1.297 1_655 S
C163 C164 1.479 . S
C163 H177 0.950 1_655 S
C164 C163 1.479 . S
C164 C165 1.375 . S
C164 C170 1.404 . S
C165 C164 1.375 . S
C165 C166 1.369 . S
C165 H178 0.950 . S
C166 C165 1.369 . S
C166 C167 1.392 . S
C166 H179 0.951 . S
C167 C166 1.392 . S
C167 C169 1.384 . S
H168 C170 0.949 . S
C169 C167 1.384 . S
C169 C170 1.385 . S
C169 H171 0.950 . S
C170 C164 1.404 . S
C170 H168 0.949 . S
C170 C169 1.385 . S
H171 C169 0.950 . S
H172 C156 0.951 . S
H173 C158 0.951 . S
H174 C160 0.951 . S
H175 C161 0.950 1_556 S
H176 C162 0.950 1_655 S
H177 C163 0.950 1_455 S
H178 C165 0.950 . S
H179 C166 0.951 . S
C180 C181 1.386 . S
C180 C182 1.383 . S
C180 H196 0.951 . S
C181 C180 1.386 . S
C181 C185 1.383 . S
C182 C180 1.383 . S
C182 C183 1.402 . S
C182 H197 0.951 . S
C183 C182 1.402 . S
C183 C184 1.375 . S
C183 C186 1.481 . S
C184 C183 1.375 . S
C184 C185 1.367 . S
C184 H198 0.951 . S
C185 C181 1.383 . S
C185 C184 1.367 . S
C185 H199 0.950 . S
C186 C183 1.481 . S
C186 C187 1.297 1_545 S
C186 H200 0.950 . S
C187 C186 1.297 1_565 S
C187 C188 1.479 . S
C187 H201 0.950 . S
C188 C187 1.479 . S
C188 C189 1.375 . S
C188 C194 1.404 . S
C189 C188 1.375 . S
C189 C190 1.369 . S
C189 H202 0.950 . S
C190 C189 1.369 . S
C190 C191 1.392 . S
C190 H203 0.951 . S
C191 C190 1.392 . S
C191 C193 1.384 . S
H192 C194 0.949 . S
C193 C191 1.384 . S
C193 C194 1.385 . S
C193 H195 0.950 . S
C194 C188 1.404 . S
C194 H192 0.949 . S
C194 C193 1.385 . S
H195 C193 0.950 . S
H196 C180 0.951 . S
H197 C182 0.951 . S
H198 C184 0.951 . S
H199 C185 0.950 . S
H200 C186 0.950 . S
H201 C187 0.950 . S
H202 C189 0.950 . S
H203 C190 0.951 . S
C204 C205 1.386 . S
C204 C206 1.383 . S
C204 H220 0.951 . S
C205 C204 1.386 . S
C205 C209 1.383 . S
C206 C204 1.383 . S
C206 C207 1.402 . S
C206 H221 0.951 . S
C207 C206 1.402 . S
C207 C208 1.375 . S
C207 C210 1.481 . S
C208 C207 1.375 . S
C208 C209 1.367 . S
C208 H222 0.951 . S
C209 C205 1.383 . S
C209 C208 1.367 . S
C209 H223 0.950 . S
C210 C207 1.481 . S
C210 C211 1.297 . S
C210 H224 0.950 . S
C211 C210 1.297 . S
C211 C212 1.479 . S
C211 H225 0.950 . S
C212 C211 1.479 . S
C212 C213 1.375 . S
C212 C218 1.404 . S
C213 C212 1.375 . S
C213 C214 1.369 . S
C213 H226 0.950 . S
C214 C213 1.369 . S
C214 C215 1.392 . S
C214 H227 0.951 . S
C215 C214 1.392 . S
C215 C217 1.384 . S
H216 C218 0.949 . S
C217 C215 1.384 . S
C217 C218 1.385 . S
C217 H219 0.950 1_556 S
C218 C212 1.404 . S
C218 H216 0.949 . S
C218 C217 1.385 . S
H219 C217 0.950 1_554 S
H220 C204 0.951 . S
H221 C206 0.951 . S
H222 C208 0.951 . S
H223 C209 0.950 . S
H224 C210 0.950 . S
H225 C211 0.950 . S
H226 C213 0.950 . S
H227 C214 0.951 . S
C228 C229 1.386 . S
C228 C230 1.383 . S
C228 H244 0.951 . S
C229 C228 1.386 . S
C229 C233 1.383 . S
C230 C228 1.383 . S
C230 C231 1.402 . S
C230 H245 0.951 . S
C231 C230 1.402 . S
C231 C232 1.375 . S
C231 C234 1.481 . S
C232 C231 1.375 . S
C232 C233 1.367 . S
C232 H246 0.951 . S
C233 C229 1.383 . S
C233 C232 1.367 . S
C233 H247 0.950 . S
C234 C231 1.481 . S
C234 C235 1.297 1_455 S
C234 H248 0.950 1_455 S
C235 C234 1.297 1_655 S
C235 C236 1.479 . S
C235 H249 0.950 1_655 S
C236 C235 1.479 . S
C236 C237 1.375 . S
C236 C242 1.404 . S
C237 C236 1.375 . S
C237 C238 1.369 1_554 S
C237 H250 0.950 1_554 S
C238 C237 1.369 1_556 S
C238 C239 1.392 1_556 S
C238 H251 0.951 . S
C239 C238 1.392 1_554 S
C239 C241 1.384 . S
H240 C242 0.949 . S
C241 C239 1.384 . S
C241 C242 1.385 . S
C241 H243 0.950 . S
C242 C236 1.404 . S
C242 H240 0.949 . S
C242 C241 1.385 . S
H243 C241 0.950 . S
H244 C228 0.951 . S
H245 C230 0.951 . S
H246 C232 0.951 . S
H247 C233 0.950 . S
H248 C234 0.950 1_655 S
H249 C235 0.950 1_455 S
H250 C237 0.950 1_556 S
H251 C238 0.951 . S
C252 C253 1.386 . S
C252 C254 1.383 . S
C252 H268 0.951 . S
C253 C252 1.386 . S
C253 C257 1.383 . S
C254 C252 1.383 . S
C254 C255 1.402 . S
C254 H269 0.951 . S
C255 C254 1.402 . S
C255 C256 1.375 . S
C255 C258 1.500 . S
C256 C255 1.375 . S
C256 C257 1.367 . S
C256 H270 0.951 . S
C257 C253 1.383 . S
C257 C256 1.367 . S
C257 H271 0.950 . S
C258 C255 1.500 . S
C258 C259 1.272 1_545 S
C258 H272 0.957 1_545 S
C259 C258 1.272 1_565 S
C259 C260 1.479 . S
C259 H273 0.950 . S
C260 C259 1.479 . S
C260 C261 1.375 . S
C260 C266 1.404 . S
C261 C260 1.375 . S
C261 C262 1.369 . S
C261 H274 0.950 . S
C262 C261 1.369 . S
C262 C263 1.392 . S
C262 H275 0.951 . S
C263 C262 1.392 . S
C263 C265 1.384 . S
H264 C266 0.949 . S
C265 C263 1.384 . S
C265 C266 1.385 . S
C265 H267 0.950 . S
C266 C260 1.404 . S
C266 H264 0.949 . S
C266 C265 1.385 . S
H267 C265 0.950 . S
H268 C252 0.951 . S
H269 C254 0.951 . S
H270 C256 0.951 . S
H271 C257 0.950 . S
H272 C258 0.957 1_565 S
H273 C259 0.950 . S
H274 C261 0.950 . S
H275 C262 0.951 . S
C276 C277 1.386 . S
C276 C278 1.383 . S
C276 H292 0.951 . S
C277 C276 1.386 . S
C277 C281 1.383 . S
C278 C276 1.383 . S
C278 C279 1.402 . S
C278 H293 0.951 . S
C279 C278 1.402 . S
C279 C280 1.375 . S
C279 C282 1.481 . S
C280 C279 1.375 . S
C280 C281 1.367 . S
C280 H294 0.951 . S
C281 C277 1.383 . S
C281 C280 1.367 . S
C281 H295 0.950 . S
C282 C279 1.481 . S
C282 C283 1.297 . S
C282 H296 0.950 . S
C283 C282 1.297 . S
C283 C284 1.479 . S
C283 H297 0.950 . S
C284 C283 1.479 . S
C284 C285 1.375 . S
C284 C290 1.404 . S
C285 C284 1.375 . S
C285 C286 1.369 . S
C285 H298 0.950 . S
C286 C285 1.369 . S
C286 C287 1.392 . S
C286 H299 0.951 . S
C287 C286 1.392 . S
C287 C289 1.384 . S
H288 C290 0.949 . S
C289 C287 1.384 . S
C289 C290 1.385 . S
C289 H291 0.950 . S
C290 C284 1.404 . S
C290 H288 0.949 . S
C290 C289 1.385 . S
H291 C289 0.950 . S
H292 C276 0.951 . S
H293 C278 0.951 . S
H294 C280 0.951 . S
H295 C281 0.950 . S
H296 C282 0.950 . S
H297 C283 0.950 . S
H298 C285 0.950 . S
H299 C286 0.951 . S
C300 C301 1.386 . S
C300 C302 1.383 1_554 S
C300 H316 0.951 . S
C301 C300 1.386 . S
C301 C305 1.383 . S
C302 C300 1.383 1_556 S
C302 C303 1.402 . S
C302 H317 0.951 . S
C303 C302 1.402 . S
C303 C304 1.375 1_556 S
C303 C306 1.481 . S
C304 C303 1.375 1_554 S
C304 C305 1.367 . S
C304 H318 0.951 1_554 S
C305 C301 1.383 . S
C305 C304 1.367 . S
C305 H319 0.950 . S
C306 C303 1.481 . S
C306 C307 1.297 . S
C306 H320 0.950 . S
C307 C306 1.297 . S
C307 C308 1.479 . S
C307 H321 0.950 . S
C308 C307 1.479 . S
C308 C309 1.375 . S
C308 C314 1.404 . S
C309 C308 1.375 . S
C309 C310 1.369 . S
C309 H322 0.950 . S
C310 C309 1.369 . S
C310 C311 1.392 . S
C310 H323 0.951 . S
C311 C310 1.392 . S
C311 C313 1.384 . S
H312 C314 0.949 . S
C313 C311 1.384 . S
C313 C314 1.385 . S
C313 H315 0.950 . S
C314 C308 1.404 . S
C314 H312 0.949 . S
C314 C313 1.385 . S
H315 C313 0.950 . S
H316 C300 0.951 . S
H317 C302 0.951 . S
H318 C304 0.951 1_556 S
H319 C305 0.950 . S
H320 C306 0.950 . S
H321 C307 0.950 . S
H322 C309 0.950 . S
H323 C310 0.951 . S
C324 C325 1.386 . S
C324 C326 1.383 . S
C324 H340 0.951 . S
C325 C324 1.386 . S
C325 C329 1.383 . S
C326 C324 1.383 . S
C326 C327 1.402 . S
C326 H341 0.951 . S
C327 C326 1.402 . S
C327 C328 1.375 . S
C327 C330 1.481 . S
C328 C327 1.375 . S
C328 C329 1.367 . S
C328 H342 0.951 . S
C329 C325 1.383 . S
C329 C328 1.367 . S
C329 H343 0.950 . S
C330 C327 1.481 . S
C330 C331 1.297 . S
C330 H344 0.950 . S
C331 C330 1.297 . S
C331 C332 1.479 . S
C331 H345 0.950 . S
C332 C331 1.479 . S
C332 C333 1.375 . S
C332 C338 1.404 . S
C333 C332 1.375 . S
C333 C334 1.369 1_554 S
C333 H346 0.950 . S
C334 C333 1.369 1_556 S
C334 C335 1.392 . S
C334 H347 0.951 . S
C335 C334 1.392 . S
C335 C337 1.384 . S
H336 C338 0.949 . S
C337 C335 1.384 . S
C337 C338 1.385 1_556 S
C337 H339 0.950 . S
C338 C332 1.404 . S
C338 H336 0.949 . S
C338 C337 1.385 1_554 S
H339 C337 0.950 . S
H340 C324 0.951 . S
H341 C326 0.951 . S
H342 C328 0.951 . S
H343 C329 0.950 . S
H344 C330 0.950 . S
H345 C331 0.950 . S
H346 C333 0.950 . S
H347 C334 0.951 . S
C348 C349 1.386 . S
C348 C350 1.383 . S
C348 H364 0.951 . S
C349 C348 1.386 . S
C349 C353 1.383 . S
C350 C348 1.383 . S
C350 C351 1.402 . S
C350 H365 0.951 . S
C351 C350 1.402 . S
C351 C352 1.375 . S
C351 C354 1.481 . S
C352 C351 1.375 . S
C352 C353 1.367 . S
C352 H366 0.951 . S
C353 C349 1.383 . S
C353 C352 1.367 . S
C353 H367 0.950 . S
C354 C351 1.481 . S
C354 C355 1.297 . S
C354 H368 0.950 . S
C355 C354 1.297 . S
C355 C356 1.479 . S
C355 H369 0.950 . S
C356 C355 1.479 . S
C356 C357 1.375 . S
C356 C362 1.404 . S
C357 C356 1.375 . S
C357 C358 1.369 . S
C357 H370 0.950 . S
C358 C357 1.369 . S
C358 C359 1.392 . S
C358 H371 0.951 . S
C359 C358 1.392 . S
C359 C361 1.384 . S
H360 C362 0.949 . S
C361 C359 1.384 . S
C361 C362 1.385 . S
C361 H363 0.950 . S
C362 C356 1.404 . S
C362 H360 0.949 . S
C362 C361 1.385 . S
H363 C361 0.950 . S
H364 C348 0.951 . S
H365 C350 0.951 . S
H366 C352 0.951 . S
H367 C353 0.950 . S
H368 C354 0.950 . S
H369 C355 0.950 . S
H370 C357 0.950 . S
H371 C358 0.951 . S
C372 C373 1.386 . S
C372 C374 1.383 . S
C372 H388 0.951 . S
C373 C372 1.386 . S
C373 C377 1.383 . S
C374 C372 1.383 . S
C374 C375 1.402 . S
C374 H389 0.951 . S
C375 C374 1.402 . S
C375 C376 1.375 . S
C375 C378 1.481 . S
C376 C375 1.375 . S
C376 C377 1.367 . S
C376 H390 0.951 . S
C377 C373 1.383 . S
C377 C376 1.367 . S
C377 H391 0.950 . S
C378 C375 1.481 . S
C378 C379 1.297 . S
C378 H392 0.950 . S
C379 C378 1.297 . S
C379 C380 1.479 . S
C379 H393 0.950 . S
C380 C379 1.479 . S
C380 C381 1.375 . S
C380 C386 1.404 . S
C381 C380 1.375 . S
C381 C382 1.369 1_556 S
C381 H394 0.950 . S
C382 C381 1.369 1_554 S
C382 C383 1.392 . S
C382 H395 0.951 . S
C383 C382 1.392 . S
C383 C385 1.384 . S
H384 C386 0.949 . S
C385 C383 1.384 . S
C385 C386 1.385 1_554 S
C385 H387 0.950 . S
C386 C380 1.404 . S
C386 H384 0.949 . S
C386 C385 1.385 1_556 S
H387 C385 0.950 . S
H388 C372 0.951 . S
H389 C374 0.951 . S
H390 C376 0.951 . S
H391 C377 0.950 . S
H392 C378 0.950 . S
H393 C379 0.950 . S
H394 C381 0.950 . S
H395 C382 0.951 . S
C396 C397 1.386 . S
C396 C398 1.383 . S
C396 H412 0.951 . S
C397 C396 1.386 . S
C397 C401 1.383 . S
C398 C396 1.383 . S
C398 C399 1.402 . S
C398 H413 0.951 . S
C399 C398 1.402 . S
C399 C400 1.375 . S
C399 C402 1.481 . S
C400 C399 1.375 . S
C400 C401 1.367 . S
C400 H414 0.951 . S
C401 C397 1.383 . S
C401 C400 1.367 . S
C401 H415 0.950 . S
C402 C399 1.481 . S
C402 C403 1.297 . S
C402 H416 0.950 . S
C403 C402 1.297 . S
C403 C404 1.479 . S
C403 H417 0.950 . S
C404 C403 1.479 . S
C404 C405 1.375 . S
C404 C410 1.404 . S
C405 C404 1.375 . S
C405 C406 1.369 1_554 S
C405 H418 0.950 . S
C406 C405 1.369 1_556 S
C406 C407 1.392 . S
C406 H419 0.951 . S
C407 C406 1.392 . S
C407 C409 1.384 . S
H408 C410 0.949 . S
C409 C407 1.384 . S
C409 C410 1.385 1_556 S
C409 H411 0.950 . S
C410 C404 1.404 . S
C410 H408 0.949 . S
C410 C409 1.385 1_554 S
H411 C409 0.950 . S
H412 C396 0.951 . S
H413 C398 0.951 . S
H414 C400 0.951 . S
H415 C401 0.950 . S
H416 C402 0.950 . S
H417 C403 0.950 . S
H418 C405 0.950 . S
H419 C406 0.951 . S
C420 C421 1.386 . S
C420 C422 1.383 . S
C420 H436 0.951 . S
C421 C420 1.386 . S
C421 C425 1.383 . S
C422 C420 1.383 . S
C422 C423 1.402 . S
C422 H437 0.951 . S
C423 C422 1.402 . S
C423 C424 1.375 . S
C423 C426 1.481 . S
C424 C423 1.375 . S
C424 C425 1.367 . S
C424 H438 0.951 . S
C425 C421 1.383 . S
C425 C424 1.367 . S
C425 H439 0.950 . S
C426 C423 1.481 . S
C426 C427 1.297 . S
C426 H440 0.950 . S
C427 C426 1.297 . S
C427 C428 1.479 . S
C427 H441 0.950 . S
C428 C427 1.479 . S
C428 C429 1.375 . S
C428 C434 1.404 . S
C429 C428 1.375 . S
C429 C430 1.369 . S
C429 H442 0.950 . S
C430 C429 1.369 . S
C430 C431 1.392 . S
C430 H443 0.951 . S
C431 C430 1.392 . S
C431 C433 1.384 . S
H432 C434 0.949 . S
C433 C431 1.384 . S
C433 C434 1.385 . S
C433 H435 0.950 . S
C434 C428 1.404 . S
C434 H432 0.949 . S
C434 C433 1.385 . S
H435 C433 0.950 . S
H436 C420 0.951 . S
H437 C422 0.951 . S
H438 C424 0.951 . S
H439 C425 0.950 . S
H440 C426 0.950 . S
H441 C427 0.950 . S
H442 C429 0.950 . S
H443 C430 0.951 . S
C444 C445 1.386 . S
C444 C446 1.383 . S
C444 H460 0.951 . S
C445 C444 1.386 . S
C445 C449 1.383 . S
C446 C444 1.383 . S
C446 C447 1.402 . S
C446 H461 0.951 . S
C447 C446 1.402 . S
C447 C448 1.375 . S
C447 C450 1.481 . S
C448 C447 1.375 . S
C448 C449 1.367 . S
C448 H462 0.951 . S
C449 C445 1.383 . S
C449 C448 1.367 . S
C449 H463 0.950 . S
C450 C447 1.481 . S
C450 C451 1.297 . S
C450 H464 0.950 . S
C451 C450 1.297 . S
C451 C452 1.479 . S
C451 H465 0.950 . S
C452 C451 1.479 . S
C452 C453 1.375 . S
C452 C458 1.404 . S
C453 C452 1.375 . S
C453 C454 1.369 . S
C453 H466 0.950 . S
C454 C453 1.369 . S
C454 C455 1.392 . S
C454 H467 0.951 . S
C455 C454 1.392 . S
C455 C457 1.384 . S
H456 C458 0.949 . S
C457 C455 1.384 . S
C457 C458 1.385 . S
C457 H459 0.950 . S
C458 C452 1.404 . S
C458 H456 0.949 . S
C458 C457 1.385 . S
H459 C457 0.950 . S
H460 C444 0.951 . S
H461 C446 0.951 . S
H462 C448 0.951 . S
H463 C449 0.950 . S
H464 C450 0.950 . S
H465 C451 0.950 . S
H466 C453 0.950 . S
H467 C454 0.951 . S
C468 C469 1.386 . S
C468 C470 1.383 . S
C468 H484 0.951 . S
C469 C468 1.386 . S
C469 C473 1.383 . S
C470 C468 1.383 . S
C470 C471 1.402 . S
C470 H485 0.951 . S
C471 C470 1.402 . S
C471 C472 1.375 . S
C471 C474 1.481 . S
C472 C471 1.375 . S
C472 C473 1.367 . S
C472 H486 0.951 . S
C473 C469 1.383 . S
C473 C472 1.367 . S
C473 H487 0.950 . S
C474 C471 1.481 . S
C474 C475 1.297 . S
C474 H488 0.950 . S
C475 C474 1.297 . S
C475 C476 1.479 . S
C475 H489 0.950 . S
C476 C475 1.479 . S
C476 C477 1.375 . S
C476 C482 1.404 . S
C477 C476 1.375 . S
C477 C478 1.369 . S
C477 H490 0.950 . S
C478 C477 1.369 . S
C478 C479 1.392 . S
C478 H491 0.951 . S
C479 C478 1.392 . S
C479 C481 1.384 . S
H480 C482 0.949 . S
C481 C479 1.384 . S
C481 C482 1.385 . S
C481 H483 0.950 . S
C482 C476 1.404 . S
C482 H480 0.949 . S
C482 C481 1.385 . S
H483 C481 0.950 . S
H484 C468 0.951 . S
H485 C470 0.951 . S
H486 C472 0.951 . S
H487 C473 0.950 . S
H488 C474 0.950 . S
H489 C475 0.950 . S
H490 C477 0.950 . S
H491 C478 0.951 . S
C492 C493 1.386 . S
C492 C494 1.383 . S
C492 H508 0.951 . S
C493 C492 1.386 . S
C493 C497 1.383 . S
C494 C492 1.383 . S
C494 C495 1.402 . S
C494 H509 0.951 . S
C495 C494 1.402 . S
C495 C496 1.375 . S
C495 C498 1.481 . S
C496 C495 1.375 . S
C496 C497 1.367 . S
C496 H510 0.951 . S
C497 C493 1.383 . S
C497 C496 1.367 . S
C497 H511 0.950 . S
C498 C495 1.481 . S
C498 C499 1.297 . S
C498 H512 0.950 . S
C499 C498 1.297 . S
C499 C500 1.479 . S
C499 H513 0.950 . S
C500 C499 1.479 . S
C500 C501 1.375 . S
C500 C506 1.404 . S
C501 C500 1.375 . S
C501 C502 1.369 . S
C501 H514 0.950 . S
C502 C501 1.369 . S
C502 C503 1.392 . S
C502 H515 0.951 . S
C503 C502 1.392 . S
C503 C505 1.384 . S
H504 C506 0.949 . S
C505 C503 1.384 . S
C505 C506 1.385 . S
C505 H507 0.950 . S
C506 C500 1.404 . S
C506 H504 0.949 . S
C506 C505 1.385 . S
H507 C505 0.950 . S
H508 C492 0.951 . S
H509 C494 0.951 . S
H510 C496 0.951 . S
H511 C497 0.950 . S
H512 C498 0.950 . S
H513 C499 0.950 . S
H514 C501 0.950 . S
H515 C502 0.951 . S
C516 C517 1.386 . S
C516 C518 1.383 . S
C516 H532 0.951 . S
C517 C516 1.386 . S
C517 C521 1.383 . S
C518 C516 1.383 . S
C518 C519 1.402 . S
C518 H533 0.951 . S
C519 C518 1.402 . S
C519 C520 1.375 . S
C519 C522 1.481 . S
C520 C519 1.375 . S
C520 C521 1.367 . S
C520 H534 0.951 . S
C521 C517 1.383 . S
C521 C520 1.367 . S
C521 H535 0.950 . S
C522 C519 1.481 . S
C522 C523 1.297 . S
C522 H536 0.950 . S
C523 C522 1.297 . S
C523 C524 1.479 . S
C523 H537 0.950 . S
C524 C523 1.479 . S
C524 C525 1.375 . S
C524 C530 1.404 . S
C525 C524 1.375 . S
C525 C526 1.369 . S
C525 H538 0.950 . S
C526 C525 1.369 . S
C526 C527 1.392 . S
C526 H539 0.951 . S
C527 C526 1.392 . S
C527 C529 1.384 . S
H528 C530 0.949 . S
C529 C527 1.384 . S
C529 C530 1.385 . S
C529 H531 0.950 . S
C530 C524 1.404 . S
C530 H528 0.949 . S
C530 C529 1.385 . S
H531 C529 0.950 . S
H532 C516 0.951 . S
H533 C518 0.951 . S
H534 C520 0.951 . S
H535 C521 0.950 . S
H536 C522 0.950 . S
H537 C523 0.950 . S
H538 C525 0.950 . S
H539 C526 0.951 . S
C540 C541 1.386 . S
C540 C542 1.383 . S
C540 H556 0.951 . S
C541 C540 1.386 . S
C541 C545 1.383 . S
C542 C540 1.383 . S
C542 C543 1.402 . S
C542 H557 0.951 . S
C543 C542 1.402 . S
C543 C544 1.375 . S
C543 C546 1.481 . S
C544 C543 1.375 . S
C544 C545 1.367 . S
C544 H558 0.951 . S
C545 C541 1.383 . S
C545 C544 1.367 . S
C545 H559 0.950 . S
C546 C543 1.481 . S
C546 C547 1.297 . S
C546 H560 0.950 . S
C547 C546 1.297 . S
C547 C548 1.479 . S
C547 H561 0.950 . S
C548 C547 1.479 . S
C548 C549 1.375 . S
C548 C554 1.404 . S
C549 C548 1.375 . S
C549 C550 1.369 . S
C549 H562 0.950 . S
C550 C549 1.369 . S
C550 C551 1.392 . S
C550 H563 0.951 . S
C551 C550 1.392 . S
C551 C553 1.384 . S
H552 C554 0.949 . S
C553 C551 1.384 . S
C553 C554 1.385 . S
C553 H555 0.950 . S
C554 C548 1.404 . S
C554 H552 0.949 . S
C554 C553 1.385 . S
H555 C553 0.950 . S
H556 C540 0.951 . S
H557 C542 0.951 . S
H558 C544 0.951 . S
H559 C545 0.950 . S
H560 C546 0.950 . S
H561 C547 0.950 . S
H562 C549 0.950 . S
H563 C550 0.951 . S
C133 C125 1.668 . S
C143 C18 1.644 1_556 S
C157 C15 1.663 . S
C167 C40 1.618 . S
C181 C37 1.639 . S
C191 C54 1.620 . S
C205 C65 1.649 . S
C215 C76 1.651 1_556 S
C229 C98 1.651 . S
C239 C87 1.670 . S
C253 C128 1.640 . S
C263 C109 1.627 . S
C277 C10 0.788 . S
C287 C7 0.797 . S
C301 C32 0.796 . S
C311 C29 0.773 . S
C325 C52 0.790 . S
C335 C59 0.805 . S
C349 C74 0.787 . S
C359 C81 0.789 . S
C373 C103 0.815 . S
C383 C96 0.840 . S
C397 C120 0.815 . S
C407 C117 0.782 . S
C421 C21 1.194 . S
C431 C106 1.214 . S
C445 C43 1.205 . S
C455 C118 1.150 . S
C469 C8 1.209 . S
C479 C51 1.198 . S
C493 C30 1.175 . S
C503 C73 1.141 . S
C517 C95 1.174 . S
C527 C62 1.144 . S
C541 C84 1.170 . S
C551 C131 1.219 . S
