# Generated by pormake.
# Topology vce, (5)-cn, num edge types: 1
# Building blocks:
#     Node 0, Type 0, BuildingBlock: XOMCOT_clean_sbu_1, # of connection points: 5
#     Node 1, Type 0, BuildingBlock: XOMCOT_clean_sbu_1, # of connection points: 5
#     Node 2, Type 0, BuildingBlock: XOMCOT_clean_sbu_1, # of connection points: 5
#     Node 3, Type 0, BuildingBlock: XOMCOT_clean_sbu_1, # of connection points: 5
#     Node 4, Type 0, BuildingBlock: XOMCOT_clean_sbu_1, # of connection points: 5
#     Node 5, Type 0, BuildingBlock: XOMCOT_clean_sbu_1, # of connection points: 5
#     Node 6, Type 0, BuildingBlock: XOMCOT_clean_sbu_1, # of connection points: 5
#     Node 7, Type 0, BuildingBlock: XOMCOT_clean_sbu_1, # of connection points: 5
#     Node 8, Type 0, BuildingBlock: XOMCOT_clean_sbu_1, # of connection points: 5
#     Node 9, Type 0, BuildingBlock: XOMCOT_clean_sbu_1, # of connection points: 5
#     Node 10, Type 0, BuildingBlock: XOMCOT_clean_sbu_1, # of connection points: 5
#     Node 11, Type 0, BuildingBlock: XOMCOT_clean_sbu_1, # of connection points: 5
#     Node 12, Type 0, BuildingBlock: XOMCOT_clean_sbu_1, # of connection points: 5
#     Node 13, Type 0, BuildingBlock: XOMCOT_clean_sbu_1, # of connection points: 5
#     Node 14, Type 0, BuildingBlock: XOMCOT_clean_sbu_1, # of connection points: 5
#     Node 15, Type 0, BuildingBlock: XOMCOT_clean_sbu_1, # of connection points: 5
#     Node 16, Type 0, BuildingBlock: XOMCOT_clean_sbu_1, # of connection points: 5
#     Node 17, Type 0, BuildingBlock: XOMCOT_clean_sbu_1, # of connection points: 5
#     Node 18, Type 0, BuildingBlock: XOMCOT_clean_sbu_1, # of connection points: 5
#     Node 19, Type 0, BuildingBlock: XOMCOT_clean_sbu_1, # of connection points: 5
#     Node 20, Type 0, BuildingBlock: XOMCOT_clean_sbu_1, # of connection points: 5
#     Node 21, Type 0, BuildingBlock: XOMCOT_clean_sbu_1, # of connection points: 5
#     Node 22, Type 0, BuildingBlock: XOMCOT_clean_sbu_1, # of connection points: 5
#     Node 23, Type 0, BuildingBlock: XOMCOT_clean_sbu_1, # of connection points: 5
#     Node 24, Type 0, BuildingBlock: XOMCOT_clean_sbu_1, # of connection points: 5
#     Node 25, Type 0, BuildingBlock: XOMCOT_clean_sbu_1, # of connection points: 5
#     Node 26, Type 0, BuildingBlock: XOMCOT_clean_sbu_1, # of connection points: 5
#     Node 27, Type 0, BuildingBlock: XOMCOT_clean_sbu_1, # of connection points: 5
#     Node 28, Type 0, BuildingBlock: XOMCOT_clean_sbu_1, # of connection points: 5
#     Node 29, Type 0, BuildingBlock: XOMCOT_clean_sbu_1, # of connection points: 5
#     Node 30, Type 0, BuildingBlock: XOMCOT_clean_sbu_1, # of connection points: 5
#     Node 31, Type 0, BuildingBlock: XOMCOT_clean_sbu_1, # of connection points: 5
#     Edge 32, Type (0, 0), BuildingBlock: XIVTED_clean_linker_0, # of connection points: 2
#     Edge 33, Type (0, 0), BuildingBlock: XIVTED_clean_linker_0, # of connection points: 2
#     Edge 34, Type (0, 0), BuildingBlock: XIVTED_clean_linker_0, # of connection points: 2
#     Edge 35, Type (0, 0), BuildingBlock: XIVTED_clean_linker_0, # of connection points: 2
#     Edge 36, Type (0, 0), BuildingBlock: XIVTED_clean_linker_0, # of connection points: 2
#     Edge 37, Type (0, 0), BuildingBlock: XIVTED_clean_linker_0, # of connection points: 2
#     Edge 38, Type (0, 0), BuildingBlock: XIVTED_clean_linker_0, # of connection points: 2
#     Edge 39, Type (0, 0), BuildingBlock: XIVTED_clean_linker_0, # of connection points: 2
#     Edge 40, Type (0, 0), BuildingBlock: XIVTED_clean_linker_0, # of connection points: 2
#     Edge 41, Type (0, 0), BuildingBlock: XIVTED_clean_linker_0, # of connection points: 2
#     Edge 42, Type (0, 0), BuildingBlock: XIVTED_clean_linker_0, # of connection points: 2
#     Edge 43, Type (0, 0), BuildingBlock: XIVTED_clean_linker_0, # of connection points: 2
#     Edge 44, Type (0, 0), BuildingBlock: XIVTED_clean_linker_0, # of connection points: 2
#     Edge 45, Type (0, 0), BuildingBlock: XIVTED_clean_linker_0, # of connection points: 2
#     Edge 46, Type (0, 0), BuildingBlock: XIVTED_clean_linker_0, # of connection points: 2
#     Edge 47, Type (0, 0), BuildingBlock: XIVTED_clean_linker_0, # of connection points: 2
#     Edge 48, Type (0, 0), BuildingBlock: XIVTED_clean_linker_0, # of connection points: 2
#     Edge 49, Type (0, 0), BuildingBlock: XIVTED_clean_linker_0, # of connection points: 2
#     Edge 50, Type (0, 0), BuildingBlock: XIVTED_clean_linker_0, # of connection points: 2
#     Edge 51, Type (0, 0), BuildingBlock: XIVTED_clean_linker_0, # of connection points: 2
#     Edge 52, Type (0, 0), BuildingBlock: XIVTED_clean_linker_0, # of connection points: 2
#     Edge 53, Type (0, 0), BuildingBlock: XIVTED_clean_linker_0, # of connection points: 2
#     Edge 54, Type (0, 0), BuildingBlock: XIVTED_clean_linker_0, # of connection points: 2
#     Edge 55, Type (0, 0), BuildingBlock: XIVTED_clean_linker_0, # of connection points: 2
#     Edge 56, Type (0, 0), BuildingBlock: XIVTED_clean_linker_0, # of connection points: 2
#     Edge 57, Type (0, 0), BuildingBlock: XIVTED_clean_linker_0, # of connection points: 2
#     Edge 58, Type (0, 0), BuildingBlock: XIVTED_clean_linker_0, # of connection points: 2
#     Edge 59, Type (0, 0), BuildingBlock: XIVTED_clean_linker_0, # of connection points: 2
#     Edge 60, Type (0, 0), BuildingBlock: XIVTED_clean_linker_0, # of connection points: 2
#     Edge 61, Type (0, 0), BuildingBlock: XIVTED_clean_linker_0, # of connection points: 2
#     Edge 62, Type (0, 0), BuildingBlock: XIVTED_clean_linker_0, # of connection points: 2
#     Edge 63, Type (0, 0), BuildingBlock: XIVTED_clean_linker_0, # of connection points: 2
#     Edge 64, Type (0, 0), BuildingBlock: XIVTED_clean_linker_0, # of connection points: 2
#     Edge 65, Type (0, 0), BuildingBlock: XIVTED_clean_linker_0, # of connection points: 2
#     Edge 66, Type (0, 0), BuildingBlock: XIVTED_clean_linker_0, # of connection points: 2
#     Edge 67, Type (0, 0), BuildingBlock: XIVTED_clean_linker_0, # of connection points: 2
#     Edge 68, Type (0, 0), BuildingBlock: XIVTED_clean_linker_0, # of connection points: 2
#     Edge 69, Type (0, 0), BuildingBlock: XIVTED_clean_linker_0, # of connection points: 2
#     Edge 70, Type (0, 0), BuildingBlock: XIVTED_clean_linker_0, # of connection points: 2
#     Edge 71, Type (0, 0), BuildingBlock: XIVTED_clean_linker_0, # of connection points: 2
#     Edge 72, Type (0, 0), BuildingBlock: XIVTED_clean_linker_0, # of connection points: 2
#     Edge 73, Type (0, 0), BuildingBlock: XIVTED_clean_linker_0, # of connection points: 2
#     Edge 74, Type (0, 0), BuildingBlock: XIVTED_clean_linker_0, # of connection points: 2
#     Edge 75, Type (0, 0), BuildingBlock: XIVTED_clean_linker_0, # of connection points: 2
#     Edge 76, Type (0, 0), BuildingBlock: XIVTED_clean_linker_0, # of connection points: 2
#     Edge 77, Type (0, 0), BuildingBlock: XIVTED_clean_linker_0, # of connection points: 2
#     Edge 78, Type (0, 0), BuildingBlock: XIVTED_clean_linker_0, # of connection points: 2
#     Edge 79, Type (0, 0), BuildingBlock: XIVTED_clean_linker_0, # of connection points: 2
#     Edge 80, Type (0, 0), BuildingBlock: XIVTED_clean_linker_0, # of connection points: 2
#     Edge 81, Type (0, 0), BuildingBlock: XIVTED_clean_linker_0, # of connection points: 2
#     Edge 82, Type (0, 0), BuildingBlock: XIVTED_clean_linker_0, # of connection points: 2
#     Edge 83, Type (0, 0), BuildingBlock: XIVTED_clean_linker_0, # of connection points: 2
#     Edge 84, Type (0, 0), BuildingBlock: XIVTED_clean_linker_0, # of connection points: 2
#     Edge 85, Type (0, 0), BuildingBlock: XIVTED_clean_linker_0, # of connection points: 2
#     Edge 86, Type (0, 0), BuildingBlock: XIVTED_clean_linker_0, # of connection points: 2
#     Edge 87, Type (0, 0), BuildingBlock: XIVTED_clean_linker_0, # of connection points: 2
#     Edge 88, Type (0, 0), BuildingBlock: XIVTED_clean_linker_0, # of connection points: 2
#     Edge 89, Type (0, 0), BuildingBlock: XIVTED_clean_linker_0, # of connection points: 2
#     Edge 90, Type (0, 0), BuildingBlock: XIVTED_clean_linker_0, # of connection points: 2
#     Edge 91, Type (0, 0), BuildingBlock: XIVTED_clean_linker_0, # of connection points: 2
#     Edge 92, Type (0, 0), BuildingBlock: XIVTED_clean_linker_0, # of connection points: 2
#     Edge 93, Type (0, 0), BuildingBlock: XIVTED_clean_linker_0, # of connection points: 2
#     Edge 94, Type (0, 0), BuildingBlock: XIVTED_clean_linker_0, # of connection points: 2
#     Edge 95, Type (0, 0), BuildingBlock: XIVTED_clean_linker_0, # of connection points: 2
#     Edge 96, Type (0, 0), BuildingBlock: XIVTED_clean_linker_0, # of connection points: 2
#     Edge 97, Type (0, 0), BuildingBlock: XIVTED_clean_linker_0, # of connection points: 2
#     Edge 98, Type (0, 0), BuildingBlock: XIVTED_clean_linker_0, # of connection points: 2
#     Edge 99, Type (0, 0), BuildingBlock: XIVTED_clean_linker_0, # of connection points: 2
#     Edge 100, Type (0, 0), BuildingBlock: XIVTED_clean_linker_0, # of connection points: 2
#     Edge 101, Type (0, 0), BuildingBlock: XIVTED_clean_linker_0, # of connection points: 2
#     Edge 102, Type (0, 0), BuildingBlock: XIVTED_clean_linker_0, # of connection points: 2
#     Edge 103, Type (0, 0), BuildingBlock: XIVTED_clean_linker_0, # of connection points: 2
#     Edge 104, Type (0, 0), BuildingBlock: XIVTED_clean_linker_0, # of connection points: 2
#     Edge 105, Type (0, 0), BuildingBlock: XIVTED_clean_linker_0, # of connection points: 2
#     Edge 106, Type (0, 0), BuildingBlock: XIVTED_clean_linker_0, # of connection points: 2
#     Edge 107, Type (0, 0), BuildingBlock: XIVTED_clean_linker_0, # of connection points: 2
#     Edge 108, Type (0, 0), BuildingBlock: XIVTED_clean_linker_0, # of connection points: 2
#     Edge 109, Type (0, 0), BuildingBlock: XIVTED_clean_linker_0, # of connection points: 2
#     Edge 110, Type (0, 0), BuildingBlock: XIVTED_clean_linker_0, # of connection points: 2
#     Edge 111, Type (0, 0), BuildingBlock: XIVTED_clean_linker_0, # of connection points: 2
# Relax obj value: 0.149
# Max RMSD: 0.171
# Mean RMSD: 0.171
data_MOF--net-vce--node1-XOMCOT_clean_sbu_1--edge1-XIVTED_clean_linker_0
_symmetry_space_group_name_H-M    P1
_symmetry_Int_Tables_number       1
_symmetry_cell_setting            triclinic
loop_
_symmetry_equiv_pos_as_xyz
'x, y, z'
_cell_length_a     48.818136
_cell_length_b     126.22877
_cell_length_c     26.723343
_cell_angle_alpha  90.087099
_cell_angle_beta   90.16796
_cell_angle_gamma 89.811149
loop_
_atom_site_label
_atom_site_type_symbol
_atom_site_fract_x
_atom_site_fract_y
_atom_site_fract_z
_atom_type_partial_charge
C0 C 0.05112 0.25069 0.43208 0.0
C1 C 0.04448 0.26063 0.4149 0.0
N2 N 0.03196 0.25969 0.37014 0.0
N3 N 0.04301 0.24333 0.39849 0.0
C4 C 0.03173 0.24912 0.36073 0.0
H5 H 0.0605 0.24906 0.46784 0.0
Co6 Co 0.04338 0.22828 0.40681 0.0
C7 C 0.06872 0.22017 0.31084 0.0
O8 O 0.058 0.2107 0.31557 0.0
N9 N 0.04362 0.2133 0.41602 0.0
C10 C 0.02933 0.19695 0.43239 0.0
C11 C 0.02162 0.20738 0.4278 0.0
C12 C 0.06476 0.20625 0.41579 0.0
N13 N 0.0565 0.19615 0.42422 0.0
O14 O 0.07594 0.22915 0.44721 0.0
H15 H 0.00111 0.21042 0.43305 0.0
H16 H 0.08565 0.2085 0.40766 0.0
O17 O 0.0643 0.22729 0.34407 0.0
C18 C 0.06619 0.22899 0.49164 0.0
O19 O 0.03947 0.22836 0.49677 0.0
N20 N 0.00935 0.22756 0.3749 0.0
C21 C 0.9536 0.22529 0.35709 0.0
C22 C 0.97272 0.22154 0.32214 0.0
C23 C 0.00077 0.22289 0.33145 0.0
C24 C -0.00916 0.23159 0.4079 0.0
C25 C 0.96297 0.23064 0.39958 0.0
H26 H 0.01507 0.21984 0.30464 0.0
H27 H -0.00213 0.23517 0.44236 0.0
H28 H 0.02224 0.24561 0.32809 0.0
H29 H 0.04825 0.26798 0.43456 0.0
H30 H 0.01575 0.19048 0.44149 0.0
H31 H 0.96606 0.21742 0.2887 0.0
H32 H 0.94891 0.23352 0.42784 0.0
C33 C 0.1645 0.07474 0.40163 0.0
C34 C 0.16898 0.06478 0.38225 0.0
N35 N 0.1823 0.06573 0.33839 0.0
N36 N 0.17467 0.08208 0.37019 0.0
C37 C 0.18541 0.07632 0.33191 0.0
H38 H 0.15538 0.07643 0.43754 0.0
Co39 Co 0.17679 0.09687 0.38261 0.0
C40 C 0.1641 0.10721 0.28424 0.0
O41 O 0.17805 0.11571 0.29645 0.0
N42 N 0.17888 0.11177 0.39588 0.0
C43 C 0.19365 0.12763 0.42038 0.0
C44 C 0.20078 0.11719 0.41302 0.0
C45 C 0.15847 0.11913 0.39441 0.0
N46 N 0.16699 0.12892 0.40846 0.0
O47 O 0.14065 0.09676 0.41078 0.0
H48 H 0.22069 0.1138 0.42064 0.0
H49 H 0.13785 0.11731 0.38228 0.0
O50 O 0.1627 0.09939 0.31461 0.0
C51 C 0.14559 0.09738 0.45773 0.0
O52 O 0.17118 0.09773 0.47294 0.0
N53 N 0.21333 0.09654 0.36339 0.0
C54 C 0.27019 0.09613 0.36626 0.0
C55 C 0.25635 0.10025 0.32431 0.0
C56 C 0.2276 0.10026 0.32326 0.0
C57 C 0.22664 0.09213 0.40308 0.0
C58 C 0.25492 0.09181 0.40527 0.0
H59 H 0.21727 0.10344 0.29102 0.0
H60 H 0.21503 0.08918 0.43447 0.0
H61 H 0.19595 0.07984 0.30054 0.0
H62 H 0.16396 0.0574 0.4005 0.0
H63 H 0.20711 0.13374 0.43452 0.0
H64 H 0.2676 0.10355 0.29318 0.0
H65 H 0.2647 0.08868 0.43859 0.0
C66 C 0.06442 0.07361 0.90847 0.0
C67 C 0.05675 0.06418 0.92999 0.0
N68 N 0.02919 0.0637 0.93013 0.0
N69 N 0.04188 0.07911 0.89475 0.0
C70 C 0.02073 0.0728 0.90824 0.0
H71 H 0.0852 0.07644 0.90457 0.0
Co72 Co 0.04231 0.09301 0.86822 0.0
C73 C 0.06699 0.10547 0.95277 0.0
O74 O 0.05176 0.11381 0.94286 0.0
N75 N 0.04354 0.10695 0.84158 0.0
C76 C 0.03372 0.12279 0.8094 0.0
C77 C 0.02367 0.11287 0.81998 0.0
C78 C 0.0658 0.11333 0.84109 0.0
N79 N 0.06022 0.12315 0.82343 0.0
O80 O 0.07352 0.08975 0.82849 0.0
H81 H 0.00289 0.11038 0.81315 0.0
H82 H 0.08556 0.11091 0.85559 0.0
O83 O 0.06486 0.09711 0.9259 0.0
C84 C 0.06528 0.08469 0.78991 0.0
O85 O 0.04041 0.08074 0.79025 0.0
N86 N 0.00957 0.09595 0.90067 0.0
C87 C 0.9552 0.09985 0.92331 0.0
C88 C 0.97543 0.1013 0.96 0.0
C89 C 0.00281 0.099 0.94819 0.0
C90 C -0.01022 0.09402 0.86599 0.0
C91 C 0.96253 0.09593 0.87639 0.0
H92 H 0.01812 0.09966 0.97711 0.0
H93 H -0.00451 0.09117 0.82927 0.0
H94 H -0.00056 0.07487 0.90301 0.0
H95 H 0.07045 0.05836 0.94626 0.0
H96 H 0.02191 0.12939 0.79495 0.0
H97 H 0.97011 0.10411 0.99704 0.0
H98 H 0.94733 0.09467 0.84736 0.0
C99 C 0.23611 0.23275 0.8692 0.0
C100 C 0.24608 0.2429 0.87265 0.0
N101 N 0.22623 0.24925 0.89113 0.0
N102 N 0.21023 0.23252 0.88659 0.0
C103 C 0.20432 0.24278 0.89686 0.0
H104 H 0.24766 0.22582 0.85788 0.0
Co105 Co 0.18963 0.22006 0.89856 0.0
C106 C 0.17523 0.23262 0.99609 0.0
O107 O 0.19593 0.23921 0.99816 0.0
N108 N 0.16897 0.20766 0.91059 0.0
C109 C 0.15282 0.19392 0.95309 0.0
C110 C 0.16501 0.20363 0.9568 0.0
C111 C 0.15882 0.20017 0.87918 0.0
N112 N 0.14912 0.19166 0.90433 0.0
O113 O 0.16109 0.2255 0.8566 0.0
H114 H 0.17207 0.20723 0.99122 0.0
H115 H 0.16022 0.2006 0.83883 0.0
O116 O 0.17309 0.22596 0.96002 0.0
C117 C 0.17005 0.22318 0.81296 0.0
O118 O 0.19333 0.21795 0.80974 0.0
N119 N 0.21951 0.21402 0.93288 0.0
C120 C 0.27425 0.20812 0.93663 0.0
C121 C 0.2645 0.21639 0.96708 0.0
C122 C 0.23671 0.21915 0.96513 0.0
C123 C 0.22812 0.20508 0.90877 0.0
C124 C 0.25521 0.20181 0.9114 0.0
H125 H 0.23039 0.22631 0.98348 0.0
H126 H 0.21503 0.20118 0.88193 0.0
H127 H 0.18458 0.24533 0.9106 0.0
H128 H 0.26701 0.24518 0.86526 0.0
H129 H 0.1479 0.18873 0.984 0.0
H130 H 0.27852 0.22146 0.9874 0.0
H131 H 0.26174 0.19516 0.88864 0.0
C132 C 0.9793 0.83395 0.63055 0.0
C133 C -0.00803 0.82444 0.64143 0.0
N134 N 0.97714 0.81942 0.6766 0.0
N135 N 0.95661 0.83497 0.65887 0.0
C136 C 0.9556 0.82589 0.68573 0.0
H137 H 0.98681 0.83996 0.60529 0.0
Co138 Co 0.93308 0.84692 0.66276 0.0
C139 C 0.92052 0.8461 0.77031 0.0
O140 O 0.93132 0.85555 0.77519 0.0
N141 N 0.90776 0.85852 0.66483 0.0
C142 C 0.86939 0.86763 0.68051 0.0
C143 C 0.88422 0.85869 0.69154 0.0
C144 C 0.90551 0.86723 0.63517 0.0
N145 N 0.88294 0.87308 0.64541 0.0
O146 O 0.90653 0.83925 0.62502 0.0
H147 H 0.87737 0.85256 0.71651 0.0
H148 H 0.91989 0.86921 0.60591 0.0
O149 O 0.91885 0.84173 0.72713 0.0
C150 C 0.91437 0.84056 0.57992 0.0
O151 O 0.93583 0.84658 0.57179 0.0
N152 N 0.96198 0.85484 0.69505 0.0
C153 C 0.0162 0.86156 0.69291 0.0
C154 C 0.00888 0.85246 0.71999 0.0
C155 C 0.98135 0.8495 0.72239 0.0
C156 C 0.96816 0.86476 0.6783 0.0
C157 C -0.00499 0.86841 0.67841 0.0
H158 H 0.97646 0.84205 0.74004 0.0
H159 H 0.95345 0.86968 0.66021 0.0
H160 H 0.93972 0.82414 0.71257 0.0
H161 H 0.01128 0.82169 0.62633 0.0
H162 H 0.85032 0.87005 0.69775 0.0
H163 H 0.02402 0.84701 0.73462 0.0
H164 H -0.00086 0.87606 0.66188 0.0
C165 C 0.72976 0.98531 0.6624 0.0
C166 C 0.71968 0.9955 0.66399 0.0
N167 N 0.74075 1.00224 0.67119 0.0
N168 N 0.75705 0.98547 0.67016 0.0
C169 C 0.76327 0.99591 0.67207 0.0
H170 H 0.7177 0.97817 0.65863 0.0
Co171 Co 0.78033 0.97348 0.67858 0.0
C172 C 0.80092 0.98758 0.76677 0.0
O173 O 0.78061 0.99439 0.76864 0.0
N174 N 0.80382 0.96161 0.68596 0.0
C175 C 0.8299 0.94931 0.72214 0.0
C176 C 0.81453 0.95827 0.72988 0.0
C177 C 0.81241 0.95431 0.65212 0.0
N178 N 0.8285 0.9468 0.67332 0.0
O179 O 0.80364 0.97902 0.62792 0.0
H180 H 0.81034 0.9618 0.7659 0.0
H181 H 0.80649 0.95431 0.61309 0.0
O182 O 0.80113 0.98021 0.73371 0.0
C183 C 0.79191 0.97582 0.58782 0.0
O184 O 0.76976 0.96999 0.59209 0.0
N185 N 0.75523 0.9673 0.7234 0.0
C186 C 0.70246 0.96074 0.74602 0.0
C187 C 0.71352 0.96988 0.76863 0.0
C188 C 0.74038 0.97289 0.75769 0.0
C189 C 0.74647 0.95755 0.70834 0.0
C190 C 0.72063 0.9539 0.7213 0.0
H191 H 0.74702 0.98055 0.77004 0.0
H192 H 0.75788 0.95304 0.68107 0.0
H193 H 0.78401 0.99873 0.67653 0.0
H194 H 0.69822 0.99762 0.6628 0.0
H195 H 0.8401 0.94464 0.75065 0.0
H196 H 0.70091 0.97542 0.78918 0.0
H197 H 0.71396 0.94638 0.7062 0.0
C198 C 0.9004 1.00502 0.19425 0.0
C199 C 0.90713 1.01407 0.16848 0.0
N200 N 0.92252 1.01133 0.12876 0.0
N201 N 0.9114 0.99651 0.171 0.0
C202 C 0.92459 1.00065 0.13098 0.0
H203 H 0.88883 1.00484 0.22857 0.0
Co204 Co 0.91111 0.98201 0.19022 0.0
C205 C 0.89776 0.97194 0.08779 0.0
O206 O 0.9072 0.96232 0.09558 0.0
N207 N 0.91062 0.9676 0.20913 0.0
C208 C 0.92081 0.95275 0.25011 0.0
C209 C 0.928 0.96316 0.24246 0.0
C210 C 0.89263 0.95978 0.19794 0.0
N211 N 0.89868 0.95062 0.22176 0.0
O212 O 0.87443 0.98333 0.21425 0.0
H213 H 0.94481 0.96726 0.26033 0.0
H214 H 0.87516 0.9608 0.17338 0.0
O215 O 0.89897 0.97895 0.1222 0.0
C216 C 0.87918 0.98551 0.26022 0.0
O217 O 0.90476 0.98653 0.27493 0.0
N218 N 0.94826 0.981 0.17515 0.0
C219 C 0.00454 0.97858 0.18687 0.0
C220 C -0.00972 0.97262 0.15081 0.0
C221 C 0.96192 0.97396 0.14546 0.0
C222 C 0.96214 0.98711 0.20872 0.0
C223 C -0.00982 0.98611 0.21487 0.0
H224 H 0.95109 0.96889 0.12005 0.0
H225 H 0.95107 0.99237 0.2334 0.0
H226 H 0.93595 0.99589 0.1044 0.0
H227 H 0.90201 1.02209 0.17948 0.0
H228 H 0.93134 0.94711 0.27391 0.0
H229 H 0.00075 0.96672 0.12838 0.0
H230 H 0.00014 0.99071 0.24386 0.0
C231 C 0.75409 0.8331 0.20611 0.0
C232 C 0.74168 0.82386 0.19061 0.0
N233 N 0.7562 0.81977 0.15231 0.0
N234 N 0.77652 0.83487 0.17806 0.0
C235 C 0.77728 0.82658 0.14568 0.0
H236 H 0.74662 0.8384 0.23485 0.0
Co237 Co 0.79887 0.84709 0.18144 0.0
C238 C 0.8199 0.84896 0.07956 0.0
O239 O 0.81187 0.85891 0.07976 0.0
N240 N 0.82231 0.85931 0.18454 0.0
C241 C 0.86165 0.8682 0.1767 0.0
C242 C 0.84952 0.85839 0.17575 0.0
C243 C 0.81875 0.86991 0.19221 0.0
N244 N 0.84229 0.87543 0.18719 0.0
O245 O 0.82527 0.83932 0.21942 0.0
H246 H 0.85993 0.85101 0.16773 0.0
H247 H 0.79944 0.87373 0.19979 0.0
O248 O 0.81618 0.84314 0.11802 0.0
C249 C 0.81656 0.83997 0.2643 0.0
O250 O 0.79412 0.84546 0.27273 0.0
N251 N 0.77069 0.85465 0.15066 0.0
C252 C 0.71724 0.86157 0.13285 0.0
C253 C 0.7308 0.85498 0.09822 0.0
C254 C 0.75751 0.85157 0.10793 0.0
C255 C 0.75801 0.86118 0.18391 0.0
C256 C 0.73199 0.86519 0.17451 0.0
H257 H 0.76623 0.84555 0.08395 0.0
H258 H 0.767 0.8625 0.22036 0.0
H259 H 0.7927 0.82563 0.11706 0.0
H260 H 0.72275 0.82067 0.20506 0.0
H261 H 0.88307 0.86989 0.17021 0.0
H262 H 0.72019 0.85162 0.06637 0.0
H263 H 0.72276 0.87032 0.20222 0.0
C264 C 0.01761 0.73882 0.90968 0.0
C265 C 0.00981 0.74918 0.90192 0.0
N266 N 0.02419 0.75307 0.86307 0.0
N267 N 0.0368 0.7361 0.87579 0.0
C268 C 0.04084 0.74503 0.84875 0.0
H269 H 0.00844 0.73339 0.93597 0.0
Co270 Co 0.04978 0.72215 0.86405 0.0
C271 C 0.05893 0.72685 0.75431 0.0
O272 O 0.03491 0.72321 0.74088 0.0
N273 N 0.06356 0.7082 0.85178 0.0
C274 C 0.07098 0.69285 0.81282 0.0
C275 C 0.06178 0.70304 0.80754 0.0
C276 C 0.0743 0.70085 0.88349 0.0
N277 N 0.07871 0.69141 0.86063 0.0
O278 O 0.08209 0.72561 0.90127 0.0
H279 H 0.05296 0.70619 0.77377 0.0
H280 H 0.07756 0.70218 0.92303 0.0
O281 O 0.06658 0.72661 0.80022 0.0
C282 C 0.0734 0.72376 0.94556 0.0
O283 O 0.04921 0.71931 0.95026 0.0
N284 N 0.01523 0.71849 0.83644 0.0
C285 C 0.95908 0.71705 0.8516 0.0
C286 C 0.96976 0.72509 0.82146 0.0
C287 C -0.00202 0.72575 0.81475 0.0
C288 C 0.00446 0.70984 0.85997 0.0
C289 C 0.97644 0.7089 0.86738 0.0
H290 H 0.00581 0.73288 0.79789 0.0
H291 H 0.01739 0.70439 0.8802 0.0
H292 H 0.05465 0.74547 0.81734 0.0
H293 H -0.00659 0.75326 0.92126 0.0
H294 H 0.07143 0.68686 0.78376 0.0
H295 H 0.95683 0.73149 0.80809 0.0
H296 H 0.96909 0.70261 0.8913 0.0
C297 C 0.18129 0.56913 0.94795 0.0
C298 C 0.18777 0.55967 0.9251 0.0
N299 N 0.19424 0.5616 0.87695 0.0
N300 N 0.18348 0.57707 0.91449 0.0
C301 C 0.19101 0.57219 0.87145 0.0
H302 H 0.17654 0.57012 0.98711 0.0
Co303 Co 0.18204 0.59183 0.92648 0.0
C304 C 0.14936 0.59998 0.83666 0.0
O305 O 0.15703 0.60988 0.84174 0.0
N306 N 0.18099 0.60656 0.93938 0.0
C307 C 0.19475 0.62293 0.95711 0.0
C308 C 0.20299 0.61262 0.94992 0.0
C309 C 0.15943 0.61331 0.9428 0.0
N310 N 0.16731 0.62341 0.95205 0.0
O311 O 0.15185 0.58997 0.97157 0.0
H312 H 0.22389 0.60979 0.95148 0.0
H313 H 0.13842 0.6109 0.93686 0.0
O314 O 0.15774 0.59294 0.86762 0.0
C315 C 0.16272 0.58998 0.0152 0.0
O316 O 0.18946 0.59105 0.0184 0.0
N317 N 0.21379 0.5935 0.88844 0.0
C318 C 0.26717 0.59642 0.85574 0.0
C319 C 0.24519 0.60071 0.82864 0.0
C320 C 0.2184 0.59905 0.84541 0.0
C321 C 0.23505 0.58916 0.91443 0.0
C322 C 0.26181 0.59039 0.89846 0.0
H323 H 0.20192 0.60259 0.82477 0.0
H324 H 0.23118 0.58502 0.9491 0.0
H325 H 0.1958 0.57646 0.83755 0.0
H326 H 0.18845 0.55202 0.94324 0.0
H327 H 0.20815 0.62962 0.96331 0.0
H328 H 0.24874 0.60547 0.79562 0.0
H329 H 0.27829 0.58715 0.92103 0.0
C330 C -0.00963 0.57936 0.38909 0.0
C331 C 0.98162 0.56905 0.39279 0.0
N332 N 0.00181 0.5632 0.41351 0.0
N333 N 0.0159 0.58018 0.4081 0.0
C334 C 0.02273 0.5701 0.42064 0.0
H335 H 0.97826 0.58598 0.37581 0.0
Co336 Co 0.03454 0.59325 0.41753 0.0
C337 C 0.04913 0.58227 0.51888 0.0
O338 O 0.02925 0.57531 0.5212 0.0
N339 N 0.05299 0.60632 0.42737 0.0
C340 C 0.06624 0.62081 0.46804 0.0
C341 C 0.05563 0.61086 0.47292 0.0
C342 C 0.06218 0.6138 0.39508 0.0
N343 N 0.07012 0.62277 0.41911 0.0
O344 O 0.06463 0.58803 0.37866 0.0
H345 H 0.0487 0.60742 0.50765 0.0
H346 H 0.06139 0.61296 0.35479 0.0
O347 O 0.05105 0.58852 0.48136 0.0
C348 C 0.05603 0.58944 0.33386 0.0
O349 O 0.0316 0.59365 0.32752 0.0
N350 N 0.00345 0.59902 0.44815 0.0
C351 C 0.9499 0.60619 0.45904 0.0
C352 C 0.96033 0.59826 0.49068 0.0
C353 C 0.98747 0.59482 0.4849 0.0
C354 C -0.0061 0.60714 0.41934 0.0
C355 C 0.96749 0.611 0.42489 0.0
H356 H -0.00562 0.58817 0.50644 0.0
H357 H 0.00594 0.61004 0.38845 0.0
H358 H 0.04234 0.56793 0.43661 0.0
H359 H 0.96122 0.56625 0.38403 0.0
H360 H 0.07001 0.62632 0.49834 0.0
H361 H 0.94713 0.59427 0.51711 0.0
H362 H 0.9601 0.61693 0.39881 0.0
C363 C 0.23101 0.73554 0.34812 0.0
C364 C 0.24057 0.74461 0.37036 0.0
N365 N 0.22139 0.74826 0.40226 0.0
N366 N 0.20577 0.73334 0.36553 0.0
C367 C 0.20029 0.74131 0.3983 0.0
H368 H 0.24212 0.73064 0.32182 0.0
Co369 Co 0.18712 0.72073 0.34731 0.0
C370 C 0.16462 0.71578 0.44786 0.0
O371 O 0.17796 0.70672 0.44851 0.0
N372 N 0.16865 0.70818 0.3262 0.0
C373 C 0.15692 0.69554 0.27173 0.0
C374 C 0.17013 0.70505 0.27792 0.0
C375 C 0.1533 0.70054 0.34814 0.0
N376 N 0.14645 0.69264 0.31611 0.0
O377 O 0.16072 0.72878 0.31028 0.0
H378 H 0.18112 0.70925 0.24909 0.0
H379 H 0.14725 0.70057 0.38672 0.0
O380 O 0.16541 0.72172 0.40908 0.0
C381 C 0.17116 0.73151 0.26846 0.0
O382 O 0.19738 0.72972 0.26129 0.0
N383 N 0.21513 0.71281 0.37842 0.0
C384 C 0.2691 0.70736 0.39811 0.0
C385 C 0.2539 0.71302 0.43364 0.0
C386 C 0.22706 0.71593 0.42244 0.0
C387 C 0.22851 0.70597 0.34737 0.0
C388 C 0.25545 0.703 0.35688 0.0
H389 H 0.21717 0.72168 0.44637 0.0
H390 H 0.21997 0.70389 0.31153 0.0
H391 H 0.18171 0.74178 0.42017 0.0
H392 H 0.26029 0.74821 0.36351 0.0
H393 H 0.15542 0.69108 0.23722 0.0
H394 H 0.26374 0.71644 0.46624 0.0
H395 H 0.26646 0.69868 0.3282 0.0
C396 C 0.93045 0.32796 0.10622 0.0
C397 C 0.93666 0.31789 0.12233 0.0
N398 N 0.94696 0.31846 0.16913 0.0
N399 N 0.93652 0.335 0.14258 0.0
C400 C 0.94624 0.32893 0.18071 0.0
H401 H 0.92301 0.32996 0.06934 0.0
Co402 Co 0.93623 0.35003 0.13643 0.0
C403 C 0.9087 0.35806 0.22973 0.0
O404 O 0.92003 0.36741 0.22465 0.0
N405 N 0.93618 0.36514 0.12917 0.0
C406 C 0.9505 0.38172 0.11892 0.0
C407 C 0.95849 0.37138 0.12566 0.0
C408 C 0.91479 0.37195 0.12282 0.0
N409 N 0.92292 0.38216 0.11718 0.0
O410 O 0.90475 0.34924 0.093 0.0
H411 H 0.97947 0.36866 0.12759 0.0
H412 H 0.89364 0.36942 0.12274 0.0
O413 O 0.91367 0.35072 0.19786 0.0
C414 C 0.91442 0.35076 0.04906 0.0
O415 O 0.94076 0.35266 0.04465 0.0
N416 N 0.96928 0.35053 0.17128 0.0
C417 C 0.02457 0.35115 0.19523 0.0
C418 C 0.00504 0.35482 0.22962 0.0
C419 C 0.9771 0.35429 0.21713 0.0
C420 C -0.0118 0.34686 0.13817 0.0
C421 C 0.01581 0.34697 0.14955 0.0
H422 H 0.96228 0.35713 0.24366 0.0
H423 H 0.98168 0.34405 0.10181 0.0
H424 H 0.95411 0.33221 0.21527 0.0
H425 H 0.93428 0.31074 0.10046 0.0
H426 H 0.96421 0.38841 0.11625 0.0
H427 H 0.01134 0.35815 0.2652 0.0
H428 H 0.03035 0.34423 0.12178 0.0
C429 C 0.81008 0.50377 0.10168 0.0
C430 C 0.80333 0.51354 0.12081 0.0
N431 N 0.79089 0.51216 0.16518 0.0
N432 N 0.80206 0.49612 0.13367 0.0
C433 C 0.79064 0.50153 0.17245 0.0
H434 H 0.81909 0.50245 0.0654 0.0
Co435 Co 0.80125 0.48136 0.11971 0.0
C436 C 0.81065 0.47055 0.21735 0.0
O437 O 0.79536 0.46259 0.20243 0.0
N438 N 0.80046 0.46656 0.10455 0.0
C439 C 0.78721 0.45037 0.08186 0.0
C440 C 0.77929 0.46079 0.08677 0.0
C441 C 0.8213 0.45944 0.10855 0.0
N442 N 0.81365 0.44948 0.09581 0.0
O443 O 0.83798 0.48176 0.09384 0.0
H444 H 0.75917 0.46387 0.07808 0.0
H445 H 0.84144 0.46147 0.12256 0.0
O446 O 0.81427 0.47851 0.18845 0.0
C447 C 0.83368 0.48256 0.04675 0.0
O448 O 0.8083 0.48333 0.03081 0.0
N449 N 0.76417 0.48129 0.13673 0.0
C450 C 0.70759 0.47944 0.12867 0.0
C451 C 0.72103 0.47689 0.17376 0.0
C452 C 0.74955 0.47803 0.17736 0.0
C453 C 0.75101 0.48482 0.09501 0.0
C454 C 0.72293 0.48388 0.08991 0.0
H455 H 0.75946 0.47607 0.21213 0.0
H456 H 0.76265 0.48778 0.06383 0.0
H457 H 0.78077 0.49773 0.20385 0.0
H458 H 0.80666 0.52109 0.1027 0.0
H459 H 0.77444 0.44394 0.06874 0.0
H460 H 0.70976 0.47378 0.20531 0.0
H461 H 0.71379 0.48596 0.05429 0.0
C462 C 0.94591 0.48768 0.66634 0.0
C463 C 0.9528 0.49763 0.65003 0.0
N464 N 0.95505 0.49742 0.59982 0.0
N465 N 0.94357 0.4811 0.62676 0.0
C466 C 0.94905 0.48731 0.58651 0.0
H467 H 0.94417 0.48533 0.70502 0.0
Co468 Co 0.94013 0.46623 0.63195 0.0
C469 C 0.90419 0.45962 0.54607 0.0
O470 O 0.9135 0.44986 0.54775 0.0
N471 N 0.93747 0.45119 0.63901 0.0
C472 C 0.95013 0.43437 0.64893 0.0
C473 C 0.95909 0.44451 0.64137 0.0
C474 C 0.91549 0.44484 0.64733 0.0
N475 N 0.92259 0.43447 0.65207 0.0
O476 O 0.91217 0.46798 0.68162 0.0
H477 H 0.98031 0.44679 0.63864 0.0
H478 H 0.89465 0.44777 0.64826 0.0
O479 O 0.91334 0.46661 0.57651 0.0
C480 C 0.92298 0.46589 0.72417 0.0
O481 O 0.94866 0.46272 0.72542 0.0
N482 N 0.96977 0.46469 0.58923 0.0
C483 C 0.02134 0.46051 0.55152 0.0
C484 C -0.00174 0.45915 0.52098 0.0
C485 C 0.97227 0.46133 0.54076 0.0
C486 C -0.0077 0.46675 0.6176 0.0
C487 C 0.01827 0.46467 0.59959 0.0
H488 H 0.95463 0.46006 0.51743 0.0
H489 H -0.01014 0.46946 0.65574 0.0
H490 H 0.95042 0.48432 0.54861 0.0
H491 H 0.95669 0.50445 0.67361 0.0
H492 H 0.96322 0.42749 0.65252 0.0
H493 H 0.00027 0.45616 0.48317 0.0
H494 H 0.03585 0.46601 0.62365 0.0
C495 C 0.79426 0.31546 0.66516 0.0
C496 C 0.78812 0.30593 0.64307 0.0
N497 N 0.77973 0.30774 0.59584 0.0
N498 N 0.78994 0.32339 0.63222 0.0
C499 C 0.78131 0.31839 0.58995 0.0
H500 H 0.80038 0.31644 0.7037 0.0
Co501 Co 0.79038 0.33804 0.64762 0.0
C502 C 0.8064 0.34893 0.55313 0.0
O503 O 0.78996 0.35682 0.56472 0.0
N504 N 0.79083 0.35273 0.66439 0.0
C505 C 0.77982 0.36886 0.69171 0.0
C506 C 0.77065 0.35868 0.68457 0.0
C507 C 0.81237 0.35947 0.66129 0.0
N508 N 0.80609 0.36943 0.67663 0.0
O509 O 0.82513 0.33666 0.68148 0.0
H510 H 0.75049 0.35589 0.69417 0.0
H511 H 0.83207 0.35712 0.64643 0.0
O512 O 0.80815 0.34089 0.58226 0.0
C513 C 0.81829 0.33579 0.7275 0.0
O514 O 0.79211 0.33536 0.73844 0.0
N515 N 0.75472 0.33916 0.62243 0.0
C516 C 0.69867 0.34299 0.615 0.0
C517 C 0.71564 0.3439 0.57269 0.0
C518 C 0.74379 0.3418 0.57702 0.0
C519 C 0.73801 0.33696 0.66165 0.0
C520 C 0.71017 0.33901 0.65924 0.0
H521 H 0.7564 0.34246 0.54422 0.0
H522 H 0.74672 0.33435 0.69668 0.0
H523 H 0.77483 0.32251 0.55647 0.0
H524 H 0.78914 0.29824 0.66094 0.0
H525 H 0.76793 0.3753 0.70732 0.0
H526 H 0.70743 0.34643 0.53696 0.0
H527 H 0.69833 0.33813 0.69313 0.0
C528 C 0.50451 0.24519 0.86668 0.0
C529 C 0.49435 0.25526 0.85922 0.0
N530 N 0.5136 0.26106 0.83584 0.0
N531 N 0.52992 0.24452 0.84725 0.0
C532 C 0.53531 0.25444 0.831 0.0
H533 H 0.49344 0.23862 0.88274 0.0
Co534 Co 0.55162 0.23211 0.83991 0.0
C535 C 0.55686 0.24178 0.73326 0.0
O536 O 0.53456 0.24762 0.7318 0.0
N537 N 0.5735 0.21978 0.83163 0.0
C538 C 0.59278 0.20597 0.79349 0.0
C539 C 0.57791 0.21507 0.78691 0.0
C540 C 0.58541 0.21313 0.86525 0.0
N541 N 0.59739 0.20469 0.84268 0.0
O542 O 0.58186 0.23926 0.87039 0.0
H543 H 0.56949 0.21769 0.75161 0.0
H544 H 0.5844 0.21424 0.90538 0.0
O545 O 0.5628 0.23635 0.77224 0.0
C546 C 0.5755 0.23894 0.91675 0.0
O547 O 0.55251 0.23428 0.9295 0.0
N548 N 0.52098 0.22452 0.81801 0.0
C549 C 0.46876 0.21611 0.82708 0.0
C550 C 0.47468 0.22326 0.78835 0.0
C551 C 0.50128 0.22737 0.78418 0.0
C552 C 0.5159 0.21681 0.85238 0.0
C553 C 0.49026 0.21229 0.85653 0.0
H554 H 0.50482 0.23363 0.7579 0.0
H555 H 0.5309 0.21493 0.88075 0.0
H556 H 0.55445 0.25659 0.8135 0.0
H557 H 0.47368 0.25784 0.86741 0.0
H558 H 0.59824 0.20033 0.76456 0.0
H559 H 0.45852 0.22641 0.7648 0.0
H560 H 0.48669 0.20661 0.88617 0.0
C561 C 0.72862 0.08746 0.87604 0.0
C562 C 0.73882 0.07822 0.85614 0.0
N563 N 0.72028 0.07424 0.82368 0.0
N564 N 0.70367 0.08944 0.85639 0.0
C565 C 0.69904 0.08121 0.82479 0.0
H566 H 0.73874 0.09242 0.90339 0.0
Co567 Co 0.68174 0.10128 0.87329 0.0
C568 C 0.65823 0.10825 0.77832 0.0
O569 O 0.66574 0.11783 0.79152 0.0
N570 N 0.65877 0.11324 0.89115 0.0
C571 C 0.62081 0.12232 0.91054 0.0
C572 C 0.63178 0.11244 0.902 0.0
C573 C 0.66338 0.12387 0.89317 0.0
N574 N 0.6407 0.12955 0.90471 0.0
O575 O 0.65637 0.09194 0.90511 0.0
H576 H 0.62018 0.10517 0.90191 0.0
H577 H 0.6826 0.12755 0.88402 0.0
O578 O 0.66325 0.10045 0.80758 0.0
C579 C 0.66732 0.09099 0.94843 0.0
O580 O 0.69048 0.09596 0.9571 0.0
N581 N 0.70945 0.11004 0.84973 0.0
C582 C 0.76386 0.11612 0.84228 0.0
C583 C 0.7501 0.11191 0.80053 0.0
C584 C 0.72266 0.10888 0.80503 0.0
C585 C 0.72227 0.11468 0.88941 0.0
C586 C 0.74908 0.11814 0.88595 0.0
H587 H 0.71338 0.1044 0.77499 0.0
H588 H 0.7125 0.11475 0.92566 0.0
H589 H 0.68049 0.08039 0.80291 0.0
H590 H 0.75826 0.07463 0.86588 0.0
H591 H 0.59948 0.12406 0.91794 0.0
H592 H 0.76118 0.10997 0.76665 0.0
H593 H 0.75913 0.12101 0.91951 0.0
C594 C 0.57261 0.07113 0.39549 0.0
C595 C 0.56297 0.06173 0.41416 0.0
N596 N 0.53569 0.06137 0.4067 0.0
N597 N 0.55161 0.07677 0.3762 0.0
C598 C 0.5293 0.07058 0.38333 0.0
H599 H 0.59369 0.07374 0.39632 0.0
Co600 Co 0.55573 0.09025 0.34666 0.0
C601 C 0.57592 0.10211 0.435 0.0
O602 O 0.5573 0.10943 0.42635 0.0
N603 N 0.56101 0.10374 0.315 0.0
C604 C 0.55938 0.11581 0.25412 0.0
C605 C 0.55113 0.10592 0.26889 0.0
C606 C 0.57698 0.11228 0.32557 0.0
N607 N 0.57565 0.11991 0.28997 0.0
O608 O 0.58622 0.08518 0.30902 0.0
H609 H 0.53908 0.10053 0.24644 0.0
H610 H 0.59061 0.11275 0.35726 0.0
O611 O 0.57854 0.09431 0.40465 0.0
C612 C 0.57548 0.08062 0.27103 0.0
O613 O 0.5488 0.07922 0.27077 0.0
N614 N 0.52332 0.09484 0.37823 0.0
C615 C 0.47038 0.09942 0.41036 0.0
C616 C 0.48999 0.09562 0.44438 0.0
C617 C 0.51654 0.09334 0.42743 0.0
C618 C 0.50384 0.09803 0.34492 0.0
C619 C 0.47768 0.10067 0.36029 0.0
H620 H 0.53119 0.08992 0.4532 0.0
H621 H 0.50776 0.09784 0.30549 0.0
H622 H 0.5088 0.0728 0.37181 0.0
H623 H 0.57507 0.05574 0.43305 0.0
H624 H 0.55373 0.1196 0.21931 0.0
H625 H 0.48463 0.09412 0.48301 0.0
H626 H 0.46265 0.10294 0.33231 0.0
C627 C 0.72623 0.23623 0.31138 0.0
C628 C 0.7385 0.24518 0.33036 0.0
N629 N 0.7221 0.24934 0.36584 0.0
N630 N 0.70203 0.23471 0.33441 0.0
C631 C 0.70011 0.24283 0.36757 0.0
H632 H 0.73472 0.23101 0.28325 0.0
Co633 Co 0.67873 0.22311 0.32158 0.0
C634 C 0.64661 0.2207 0.41292 0.0
O635 O 0.65119 0.21047 0.40958 0.0
N636 N 0.65466 0.21142 0.30767 0.0
C637 C 0.61591 0.20322 0.28595 0.0
C638 C 0.6282 0.21284 0.29386 0.0
C639 C 0.65757 0.20068 0.30887 0.0
N640 N 0.63435 0.19556 0.29551 0.0
O641 O 0.65765 0.23189 0.27749 0.0
H642 H 0.61804 0.22042 0.29045 0.0
H643 H 0.67609 0.19657 0.31963 0.0
O644 O 0.65616 0.22692 0.37952 0.0
C645 C 0.66898 0.23111 0.23463 0.0
O646 O 0.69063 0.22496 0.23042 0.0
N647 N 0.70238 0.21469 0.35922 0.0
C648 C 0.75531 0.20924 0.3877 0.0
C649 C 0.73763 0.21426 0.42173 0.0
C650 C 0.7112 0.21707 0.40648 0.0
C651 C 0.71843 0.20889 0.32776 0.0
C652 C 0.74475 0.20588 0.34162 0.0
H653 H 0.69965 0.22238 0.43013 0.0
H654 H 0.71212 0.20777 0.2893 0.0
H655 H 0.68301 0.24393 0.39271 0.0
H656 H 0.75841 0.24819 0.31991 0.0
H657 H 0.59479 0.20194 0.27511 0.0
H658 H 0.74516 0.21707 0.45753 0.0
H659 H 0.75779 0.20224 0.31369 0.0
C660 C 0.43175 0.82082 0.04631 0.0
C661 C 0.43984 0.81132 0.06704 0.0
N662 N 0.44646 0.81297 0.11541 0.0
N663 N 0.43294 0.82851 0.0814 0.0
C664 C 0.44184 0.82343 0.12318 0.0
H665 H 0.4266 0.82205 0.00742 0.0
Co666 Co 0.42854 0.8433 0.07231 0.0
C667 C 0.40412 0.85054 0.1696 0.0
O668 O 0.41613 0.85982 0.16698 0.0
N669 N 0.42446 0.85821 0.06276 0.0
C670 C 0.43469 0.87507 0.04705 0.0
C671 C 0.44458 0.86489 0.04862 0.0
C672 C 0.40209 0.86458 0.06739 0.0
N673 N 0.408 0.87494 0.05936 0.0
O674 O 0.39603 0.84105 0.03272 0.0
H675 H 0.46534 0.86261 0.03995 0.0
H676 H 0.38215 0.86173 0.07867 0.0
O677 O 0.40763 0.84371 0.13476 0.0
C678 C 0.40482 0.84131 0.98768 0.0
O679 O 0.43099 0.84313 0.98053 0.0
N680 N 0.46228 0.84528 0.10374 0.0
C681 C 0.51765 0.84855 0.12295 0.0
C682 C 0.49831 0.84941 0.16167 0.0
C683 C 0.47052 0.84764 0.15136 0.0
C684 C 0.48107 0.84369 0.06704 0.0
C685 C 0.5086 0.84548 0.07537 0.0
H686 H 0.45618 0.84807 0.18173 0.0
H687 H 0.47439 0.84147 0.02998 0.0
H688 H 0.44564 0.82741 0.15836 0.0
H689 H 0.44209 0.8039 0.04714 0.0
H690 H 0.44635 0.88205 0.03743 0.0
H691 H 0.50455 0.85142 0.19941 0.0
H692 H 0.52242 0.84483 0.0439 0.0
C693 C 0.3019 0.99201 0.14833 0.0
C694 C 0.29583 1.00218 0.16339 0.0
N695 N 0.26856 1.00299 0.17032 0.0
N696 N 0.27867 0.9863 0.14546 0.0
C697 C 0.25864 0.99324 0.15888 0.0
H698 H 0.32219 0.98889 0.14128 0.0
Co699 Co 0.27756 0.97161 0.13032 0.0
C700 C 0.30873 0.96155 0.21286 0.0
O701 O 0.2917 0.95352 0.21157 0.0
N702 N 0.27705 0.95674 0.11402 0.0
C703 C 0.26453 0.94031 0.09353 0.0
C704 C 0.25548 0.95036 0.10427 0.0
C705 C 0.29912 0.95029 0.10703 0.0
N706 N 0.29208 0.94019 0.09539 0.0
O707 O 0.3042 0.97357 0.07886 0.0
H708 H 0.23423 0.95264 0.10424 0.0
H709 H 0.32002 0.95301 0.11088 0.0
O710 O 0.30566 0.96924 0.18213 0.0
C711 C 0.29086 0.97394 0.03769 0.0
O712 O 0.26403 0.9732 0.03927 0.0
N713 N 0.24906 0.97007 0.1759 0.0
C714 C 0.19949 0.96902 0.22571 0.0
C715 C 0.22385 0.97012 0.25298 0.0
C716 C 0.24874 0.97074 0.22704 0.0
C717 C 0.22522 0.96994 0.14957 0.0
C718 C 0.20031 0.96909 0.17354 0.0
H719 H 0.26728 0.97218 0.24797 0.0
H720 H 0.22566 0.97054 0.10924 0.0
H721 H 0.23721 0.99118 0.16095 0.0
H722 H 0.31061 1.00838 0.17054 0.0
H723 H 0.25152 0.93358 0.08579 0.0
H724 H 0.22357 0.97068 0.29342 0.0
H725 H 0.18166 0.96884 0.15143 0.0
C726 C 0.40668 0.99874 0.64495 0.0
C727 C 0.41302 1.008 0.6206 0.0
N728 N 0.42801 1.00562 0.57986 0.0
N729 N 0.41746 0.99044 0.61977 0.0
C730 C 0.43021 0.99492 0.58008 0.0
H731 H 0.39572 0.99825 0.67987 0.0
Co732 Co 0.41779 0.97596 0.63869 0.0
C733 C 0.40599 0.96421 0.54289 0.0
O734 O 0.4193 0.95576 0.5583 0.0
N735 N 0.41788 0.96148 0.65794 0.0
C736 C 0.42993 0.94544 0.68491 0.0
C737 C 0.43832 0.95578 0.67896 0.0
C738 C 0.39697 0.9545 0.6534 0.0
N739 N 0.40394 0.9446 0.66823 0.0
O740 O 0.38125 0.9772 0.66524 0.0
H741 H 0.45836 0.95883 0.68828 0.0
H742 H 0.37732 0.9566 0.63736 0.0
O743 O 0.40441 0.97242 0.57097 0.0
C744 C 0.38662 0.97872 0.71161 0.0
O745 O 0.41241 0.97917 0.72553 0.0
N746 N 0.45483 0.97519 0.6215 0.0
C747 C 0.51141 0.97319 0.63123 0.0
C748 C 0.49781 0.96908 0.58894 0.0
C749 C 0.46929 0.97025 0.58447 0.0
C750 C 0.46814 0.97997 0.66018 0.0
C751 C 0.49617 0.97901 0.66602 0.0
H752 H 0.45925 0.96695 0.55225 0.0
H753 H 0.45665 0.98409 0.68862 0.0
H754 H 0.44148 0.99041 0.55248 0.0
H755 H 0.40809 1.01591 0.63346 0.0
H756 H 0.44253 0.93897 0.69833 0.0
H757 H 0.50895 0.96476 0.56042 0.0
H758 H 0.50537 0.98227 0.69956 0.0
C759 C 0.2362 0.8334 0.60667 0.0
C760 C 0.22612 0.82327 0.60283 0.0
N761 N 0.24596 0.81692 0.58437 0.0
N762 N 0.26219 0.83361 0.58979 0.0
C763 C 0.26802 0.82334 0.57927 0.0
H764 H 0.22471 0.84032 0.61825 0.0
Co765 Co 0.28217 0.84634 0.57923 0.0
C766 C 0.3004 0.83401 0.48305 0.0
O767 O 0.28085 0.82693 0.47967 0.0
N768 N 0.30201 0.85906 0.56891 0.0
C769 C 0.31795 0.87302 0.52771 0.0
C770 C 0.30643 0.8632 0.52308 0.0
C771 C 0.31118 0.86662 0.60106 0.0
N772 N 0.32077 0.87526 0.57669 0.0
O773 O 0.31013 0.84129 0.62358 0.0
H774 H 0.30021 0.85957 0.4882 0.0
H775 H 0.30929 0.86609 0.64132 0.0
O776 O 0.30074 0.8407 0.51914 0.0
C777 C 0.30039 0.84351 0.66677 0.0
O778 O 0.27655 0.84836 0.66884 0.0
N779 N 0.25279 0.85191 0.54191 0.0
C780 C 0.19824 0.85737 0.52875 0.0
C781 C 0.20959 0.84892 0.50165 0.0
C782 C 0.2373 0.84642 0.50809 0.0
C783 C 0.24259 0.86084 0.56397 0.0
C784 C 0.21552 0.86387 0.55682 0.0
H785 H 0.24475 0.83921 0.49179 0.0
H786 H 0.25424 0.86492 0.59243 0.0
H787 H 0.28771 0.82073 0.56555 0.0
H788 H 0.20535 0.82092 0.61119 0.0
H789 H 0.32312 0.87828 0.49719 0.0
H790 H 0.1966 0.84366 0.48015 0.0
H791 H 0.20735 0.87033 0.57902 0.0
C792 C 0.55342 0.75366 0.41493 0.0
C793 C 0.54773 0.76304 0.39079 0.0
N794 N 0.53835 0.76084 0.34445 0.0
N795 N 0.54785 0.74545 0.38421 0.0
C796 C 0.53908 0.75013 0.34125 0.0
H797 H 0.5597 0.75298 0.45355 0.0
Co798 Co 0.546 0.73086 0.40178 0.0
C799 C 0.57256 0.71939 0.31699 0.0
O800 O 0.55801 0.71082 0.32492 0.0
N801 N 0.54375 0.71635 0.42052 0.0
C802 C 0.52704 0.70088 0.4458 0.0
C803 C 0.5207 0.71116 0.43336 0.0
C804 C 0.56403 0.70908 0.42716 0.0
N805 N 0.55431 0.69952 0.44154 0.0
O806 O 0.5768 0.73223 0.44562 0.0
H807 H 0.50038 0.71455 0.43369 0.0
H808 H 0.58547 0.71072 0.42059 0.0
O809 O 0.56949 0.72757 0.34467 0.0
C810 C 0.5664 0.73329 0.48918 0.0
O811 O 0.53961 0.73397 0.4928 0.0
N812 N 0.51379 0.72977 0.36448 0.0
C813 C 0.45983 0.7276 0.33471 0.0
C814 C 0.48092 0.72417 0.30329 0.0
C815 C 0.50805 0.72559 0.3184 0.0
C816 C 0.49342 0.73386 0.39335 0.0
C817 C 0.46627 0.7329 0.37914 0.0
H818 H 0.52382 0.72321 0.29299 0.0
H819 H 0.49835 0.7374 0.4291 0.0
H820 H 0.53221 0.74572 0.30889 0.0
H821 H 0.54878 0.77084 0.40748 0.0
H822 H 0.5125 0.6948 0.4559 0.0
H823 H 0.47644 0.72023 0.26819 0.0
H824 H 0.4504 0.73561 0.40443 0.0
C825 C 0.7285 0.58748 0.41827 0.0
C826 C 0.74136 0.57843 0.40164 0.0
N827 N 0.72509 0.5737 0.36756 0.0
N828 N 0.70406 0.58851 0.39511 0.0
C829 C 0.70259 0.57999 0.36412 0.0
H830 H 0.73655 0.59301 0.44547 0.0
Co831 Co 0.67931 0.59971 0.40817 0.0
C832 C 0.65003 0.60358 0.31528 0.0
O833 O 0.65518 0.61363 0.32344 0.0
N834 N 0.65348 0.61094 0.42267 0.0
C835 C 0.61238 0.61803 0.43837 0.0
C836 C 0.6266 0.60883 0.42961 0.0
C837 C 0.65474 0.62171 0.4268 0.0
N838 N 0.63003 0.62617 0.43659 0.0
O839 O 0.65778 0.59022 0.44776 0.0
H840 H 0.61747 0.60106 0.42703 0.0
H841 H 0.67306 0.62633 0.42185 0.0
O842 O 0.6589 0.59655 0.34591 0.0
C843 C 0.6687 0.59092 0.49117 0.0
O844 O 0.68999 0.59717 0.49661 0.0
N845 N 0.70332 0.60886 0.37611 0.0
C846 C 0.75627 0.61578 0.35812 0.0
C847 C 0.74173 0.61029 0.32087 0.0
C848 C 0.71502 0.60688 0.33061 0.0
C849 C 0.71659 0.61484 0.4109 0.0
C850 C 0.74266 0.6187 0.40201 0.0
H851 H 0.70551 0.60145 0.30459 0.0
H852 H 0.70843 0.61548 0.44835 0.0
H853 H 0.68527 0.57836 0.34001 0.0
H854 H 0.76141 0.57566 0.41314 0.0
H855 H 0.59049 0.6187 0.44396 0.0
H856 H 0.75187 0.60769 0.28699 0.0
H857 H 0.75342 0.62259 0.43239 0.0
C858 C 0.50727 0.58296 0.87025 0.0
C859 C 0.4962 0.57413 0.89178 0.0
N860 N 0.51294 0.57085 0.92886 0.0
N861 N 0.53109 0.58539 0.89318 0.0
C862 C 0.53419 0.57779 0.92871 0.0
H863 H 0.49817 0.58752 0.84023 0.0
Co864 Co 0.55062 0.59775 0.8749 0.0
C865 C 0.56624 0.60521 0.97634 0.0
O866 O 0.55284 0.61407 0.96755 0.0
N867 N 0.57005 0.61004 0.85324 0.0
C868 C 0.58621 0.62098 0.79479 0.0
C869 C 0.57168 0.61189 0.80355 0.0
C870 C 0.58455 0.61816 0.87386 0.0
N871 N 0.59419 0.62499 0.83906 0.0
O872 O 0.57975 0.58921 0.84796 0.0
H873 H 0.56223 0.60701 0.77511 0.0
H874 H 0.58898 0.61903 0.91312 0.0
O875 O 0.56797 0.59814 0.94202 0.0
C876 C 0.57178 0.58543 0.80595 0.0
O877 O 0.54629 0.58709 0.7922 0.0
N878 N 0.52017 0.60595 0.89521 0.0
C879 C 0.46456 0.61061 0.89882 0.0
C880 C 0.47764 0.60589 0.93991 0.0
C881 C 0.50547 0.60351 0.93717 0.0
C882 C 0.50832 0.61173 0.85778 0.0
C883 C 0.48053 0.61424 0.85907 0.0
H884 H 0.51423 0.59854 0.966 0.0
H885 H 0.51924 0.61323 0.82359 0.0
H886 H 0.55116 0.57753 0.95483 0.0
H887 H 0.4772 0.5704 0.8807 0.0
H888 H 0.59001 0.62452 0.7586 0.0
H889 H 0.46591 0.603 0.97137 0.0
H890 H 0.47112 0.61779 0.82634 0.0
C891 C 0.68499 0.74946 0.8718 0.0
C892 C 0.68894 0.75948 0.89061 0.0
N893 N 0.69513 0.75873 0.93964 0.0
N894 N 0.68848 0.74228 0.90863 0.0
C895 C 0.69427 0.74822 0.94978 0.0
H896 H 0.68134 0.74757 0.83293 0.0
Co897 Co 0.69177 0.72744 0.89934 0.0
C898 C 0.66594 0.71763 0.9882 0.0
O899 O 0.68244 0.70942 0.98492 0.0
N900 N 0.69549 0.71256 0.8886 0.0
C901 C 0.71337 0.6967 0.87187 0.0
C902 C 0.71906 0.7072 0.88061 0.0
C903 C 0.67566 0.70511 0.88332 0.0
N904 N 0.68606 0.69535 0.87389 0.0
O905 O 0.66161 0.72757 0.85332 0.0
H906 H 0.73927 0.71065 0.88066 0.0
H907 H 0.65399 0.70681 0.8866 0.0
O908 O 0.66761 0.72522 0.95672 0.0
C909 C 0.67228 0.727 0.80977 0.0
O910 O 0.69912 0.72654 0.80646 0.0
N911 N 0.72338 0.72768 0.9387 0.0
C912 C 0.77672 0.72844 0.9736 0.0
C913 C 0.75559 0.72557 0.00593 0.0
C914 C 0.72867 0.72554 0.988 0.0
C915 C 0.74372 0.73106 0.90801 0.0
C916 C 0.77053 0.73154 0.92469 0.0
H917 H 0.71266 0.72386 0.01409 0.0
H918 H 0.73907 0.73304 0.86958 0.0
H919 H 0.69967 0.74486 0.98569 0.0
H920 H 0.68825 0.76675 0.86921 0.0
H921 H 0.72829 0.69049 0.86526 0.0
H922 H 0.75991 0.72326 0.04417 0.0
H923 H 0.78654 0.73373 0.89867 0.0
C924 C 0.47805 0.34029 0.58687 0.0
C925 C 0.49128 0.33164 0.60684 0.0
N926 N 0.47398 0.32665 0.63817 0.0
N927 N 0.45246 0.34086 0.60546 0.0
C928 C 0.45052 0.33241 0.6365 0.0
H929 H 0.48676 0.34598 0.56128 0.0
Co930 Co 0.42743 0.35181 0.59082 0.0
C931 C 0.3961 0.35511 0.68221 0.0
O932 O 0.40006 0.36528 0.67503 0.0
N933 N 0.40134 0.36284 0.57473 0.0
C934 C 0.36108 0.36992 0.55243 0.0
C935 C 0.37503 0.36069 0.56233 0.0
C936 C 0.4024 0.37362 0.57307 0.0
N937 N 0.37832 0.37807 0.5592 0.0
O938 O 0.40718 0.34208 0.5499 0.0
H939 H 0.36608 0.35288 0.56133 0.0
H940 H 0.42011 0.37829 0.58257 0.0
O941 O 0.4062 0.34838 0.65143 0.0
C942 C 0.41902 0.34233 0.50734 0.0
O943 O 0.44025 0.34861 0.50211 0.0
N944 N 0.45043 0.36116 0.62505 0.0
C945 C 0.50456 0.36683 0.64401 0.0
C946 C 0.48921 0.3613 0.68015 0.0
C947 C 0.46185 0.35873 0.67033 0.0
C948 C 0.46409 0.36747 0.59234 0.0
C949 C 0.49036 0.37102 0.60279 0.0
H950 H 0.45179 0.35325 0.69522 0.0
H951 H 0.45614 0.36866 0.55496 0.0
H952 H 0.43227 0.33054 0.65751 0.0
H953 H 0.51231 0.3294 0.5997 0.0
H954 H 0.33968 0.37058 0.54219 0.0
H955 H 0.49872 0.35785 0.71289 0.0
H956 H 0.5004 0.37586 0.57506 0.0
C957 C 0.30519 0.50671 0.56495 0.0
C958 C 0.2976 0.51563 0.59107 0.0
N959 N 0.28575 0.51262 0.63419 0.0
N960 N 0.29823 0.498 0.59123 0.0
C961 C 0.28683 0.50191 0.63371 0.0
H962 H 0.31429 0.50672 0.52822 0.0
Co963 Co 0.29964 0.48361 0.57048 0.0
C964 C 0.32497 0.47333 0.6646 0.0
O965 O 0.31883 0.46341 0.65511 0.0
N966 N 0.30085 0.46934 0.54885 0.0
C967 C 0.28725 0.45455 0.51117 0.0
C968 C 0.28037 0.46481 0.52253 0.0
C969 C 0.32058 0.46176 0.55093 0.0
N970 N 0.31251 0.45256 0.52931 0.0
O971 O 0.3333 0.48595 0.53593 0.0
H972 H 0.26141 0.46872 0.51245 0.0
H973 H 0.3405 0.46297 0.56779 0.0
O974 O 0.31837 0.48066 0.63384 0.0
C975 C 0.32519 0.48781 0.49124 0.0
O976 O 0.29867 0.48846 0.48282 0.0
N977 N 0.26487 0.48138 0.59739 0.0
C978 C 0.21127 0.47424 0.59244 0.0
C979 C 0.23025 0.4693 0.62442 0.0
C980 C 0.25711 0.47308 0.62669 0.0
C981 C 0.24588 0.48696 0.57074 0.0
C982 C 0.21885 0.48364 0.56848 0.0
H983 H 0.27193 0.46855 0.64723 0.0
H984 H 0.25225 0.49337 0.5467 0.0
H985 H 0.27798 0.49695 0.66241 0.0
H986 H 0.30008 0.52372 0.57857 0.0
H987 H 0.27423 0.4489 0.49213 0.0
H988 H 0.22522 0.46205 0.64392 0.0
H989 H 0.2046 0.48794 0.54486 0.0
C990 C 0.48813 0.48414 0.10319 0.0
C991 C 0.49958 0.49407 0.10298 0.0
N992 N 0.47986 0.50125 0.09235 0.0
N993 N 0.46134 0.48487 0.0913 0.0
C994 C 0.45662 0.49542 0.08798 0.0
H995 H 0.49905 0.47677 0.10891 0.0
Co996 Co 0.43826 0.47302 0.07967 0.0
C997 C 0.41918 0.48734 0.99048 0.0
O998 O 0.43884 0.4944 0.99035 0.0
N999 N 0.4155 0.46115 0.0691 0.0
C1000 C 0.39265 0.44847 0.02919 0.0
C1001 C 0.40689 0.45774 0.02383 0.0
C1002 C 0.40669 0.45364 0.10143 0.0
N1003 N 0.39259 0.44584 0.07796 0.0
O1004 O 0.41302 0.47857 0.12748 0.0
H1005 H 0.41201 0.4614 0.98858 0.0
H1006 H 0.4113 0.45368 0.14105 0.0
O1007 O 0.41912 0.47987 0.02293 0.0
C1008 C 0.42283 0.47583 0.16992 0.0
O1009 O 0.44533 0.47007 0.17048 0.0
N1010 N 0.46475 0.46699 0.03746 0.0
C1011 C 0.51876 0.46144 0.01901 0.0
C1012 C 0.50661 0.47005 0.99379 0.0
C1013 C 0.47922 0.47259 1.00293 0.0
C1014 C 0.47475 0.45761 0.05515 0.0
C1015 C 0.50147 0.45449 0.04478 0.0
H1016 H 0.47156 0.47997 0.98875 0.0
H1017 H 0.46342 0.45317 0.08266 0.0
H1018 H 0.43655 0.49871 0.0806 0.0
H1019 H 0.52117 0.4957 0.10746 0.0
H1020 H 0.38442 0.44369 0.99906 0.0
H1021 H 0.51867 0.47564 0.97265 0.0
H1022 H 0.50935 0.44739 0.06246 0.0
C1023 C 0.25998 0.32827 0.13953 0.0
C1024 C 0.24766 0.31946 0.11952 0.0
N1025 N 0.26232 0.31618 0.07965 0.0
N1026 N 0.28252 0.33062 0.11281 0.0
C1027 C 0.28351 0.32308 0.07664 0.0
H1028 H 0.25269 0.33279 0.17124 0.0
Co1029 Co 0.3049 0.34254 0.12504 0.0
C1030 C 0.3197 0.34981 0.025 0.0
O1031 O 0.31193 0.35926 0.03994 0.0
N1032 N 0.32827 0.3546 0.13744 0.0
C1033 C 0.36709 0.36379 0.14636 0.0
C1034 C 0.3559 0.3539 0.14073 0.0
C1035 C 0.32346 0.36522 0.14061 0.0
N1036 N 0.34669 0.37095 0.14599 0.0
O1037 O 0.33328 0.33336 0.14977 0.0
H1038 H 0.36768 0.3467 0.13673 0.0
H1039 H 0.30356 0.36885 0.1365 0.0
O1040 O 0.31844 0.34199 0.05536 0.0
C1041 C 0.32606 0.33173 0.19509 0.0
O1042 O 0.30266 0.33575 0.21028 0.0
N1043 N 0.27495 0.35114 0.10931 0.0
C1044 C 0.22046 0.3575 0.11486 0.0
C1045 C 0.23098 0.35323 0.07026 0.0
C1046 C 0.25845 0.35004 0.06824 0.0
C1047 C 0.2651 0.35562 0.15206 0.0
C1048 C 0.23823 0.35917 0.15515 0.0
H1049 H 0.26541 0.34562 0.036 0.0
H1050 H 0.27756 0.35561 0.1856 0.0
H1051 H 0.29909 0.32282 0.04799 0.0
H1052 H 0.2293 0.31576 0.13369 0.0
H1053 H 0.38874 0.3656 0.14758 0.0
H1054 H 0.21758 0.35157 0.03885 0.0
H1055 H 0.23072 0.36206 0.19076 0.0
H1056 H 0.13121 0.21936 0.00857 0.0
H1057 H 0.09853 0.23808 0.28889 0.0
H1058 H 0.17619 0.24426 0.08293 0.0
H1059 H 0.0725 0.20823 0.22592 0.0
H1060 H 0.12246 0.242 0.21036 0.0
H1061 H 0.1042 0.2169 0.08435 0.0
C1062 C 0.1354 0.22434 0.04069 0.0
C1063 C 0.15643 0.23189 0.03952 0.0
C1064 C 0.11147 0.2346 0.21389 0.0
C1065 C 0.12528 0.22917 0.12649 0.0
C1066 C 0.09784 0.23236 0.25866 0.0
C1067 C 0.08362 0.22278 0.2642 0.0
C1068 C 0.11058 0.22728 0.17423 0.0
C1069 C 0.08333 0.21568 0.22364 0.0
C1070 C 0.11994 0.22292 0.08402 0.0
C1071 C 0.16041 0.23826 0.08217 0.0
N1072 N 0.09652 0.21808 0.18049 0.0
N1073 N 0.14509 0.23672 0.12397 0.0
H1074 H 0.15621 0.12346 0.21876 0.0
H1075 H 0.08804 0.08826 1.00292 0.0
H1076 H 0.14174 0.08994 0.23587 0.0
H1077 H 0.08393 0.1224 0.00814 0.0
H1078 H 0.11268 0.08837 0.08311 0.0
H1079 H 0.13451 0.12283 0.1367 0.0
C1080 C 0.1485 0.11594 0.20525 0.0
C1081 C 0.15075 0.10674 0.23442 0.0
C1082 C 0.10644 0.09583 0.06653 0.0
C1083 C 0.12585 0.10597 0.13991 0.0
C1084 C 0.09255 0.09578 0.02065 0.0
C1085 C 0.08384 0.10534 0.9989 0.0
C1086 C 0.11192 0.10551 0.09046 0.0
C1087 C 0.0901 0.11484 0.02367 0.0
C1088 C 0.13604 0.1156 0.15832 0.0
C1089 C 0.1403 0.09724 0.21479 0.0
N1090 N 0.10374 0.11468 0.06803 0.0
N1091 N 0.12835 0.09709 0.16864 0.0
H1092 H 0.94123 0.84448 0.8639 0.0
H1093 H 0.80167 0.85146 0.98464 0.0
H1094 H 0.86889 0.83786 0.77668 0.0
H1095 H 0.8661 0.83681 0.07099 0.0
H1096 H 0.82556 0.84647 0.90762 0.0
H1097 H 0.91518 0.84126 0.94052 0.0
C1098 C 0.92001 0.84206 0.861 0.0
C1099 C 0.90705 0.84149 0.81424 0.0
C1100 C 0.83418 0.84413 0.94336 0.0
C1101 C 0.87703 0.83818 0.90129 0.0
C1102 C 0.82069 0.84704 0.98717 0.0
C1103 C 0.83216 0.84459 0.03384 0.0
C1104 C 0.85976 0.83907 0.94642 0.0
C1105 C 0.85672 0.83882 0.03547 0.0
C1106 C 0.90519 0.84021 0.90461 0.0
C1107 C 0.87954 0.83838 0.81218 0.0
N1108 N 0.87015 0.83649 0.99225 0.0
N1109 N 0.86515 0.83714 0.85529 0.0
H1110 H 0.80035 0.99951 0.85238 0.0
H1111 H 0.89833 0.96022 1.00119 0.0
H1112 H 0.8458 0.9745 0.77958 0.0
H1113 H 0.87156 0.99031 0.06095 0.0
H1114 H 0.87889 0.96513 0.91996 0.0
H1115 H 0.82676 0.99646 0.92852 0.0
C1116 C 0.81604 0.99342 0.85212 0.0
C1117 C 0.82022 0.98702 0.80974 0.0
C1118 C 0.87743 0.97068 0.95078 0.0
C1119 C 0.85035 0.9834 0.89746 0.0
C1120 C 0.88838 0.96786 0.99729 0.0
C1121 C 0.88639 0.97482 0.03815 0.0
C1122 C 0.86411 0.98049 0.94517 0.0
C1123 C 0.87346 0.98465 0.03065 0.0
C1124 C 0.83109 0.99167 0.89581 0.0
C1125 C 0.84115 0.97937 0.81177 0.0
N1126 N 0.86262 0.98715 0.98524 0.0
N1127 N 0.85512 0.97765 0.85515 0.0
H1128 H 0.17567 0.70902 0.54216 0.0
H1129 H 0.04755 0.73589 0.66469 0.0
H1130 H 0.12541 0.73128 0.46046 0.0
H1131 H 0.11404 0.72288 0.75184 0.0
H1132 H 0.07676 0.73562 0.59059 0.0
H1133 H 0.15426 0.71475 0.61967 0.0
C1134 C 0.16004 0.71512 0.5405 0.0
C1135 C 0.15191 0.71955 0.49465 0.0
C1136 C 0.08521 0.73306 0.62609 0.0
C1137 C 0.12734 0.72619 0.58365 0.0
C1138 C 0.06858 0.73322 0.66837 0.0
C1139 C 0.0784 0.7293 0.71412 0.0
C1140 C 0.11161 0.7287 0.62948 0.0
C1141 C 0.10574 0.72597 0.71717 0.0
C1142 C 0.14804 0.71847 0.58494 0.0
C1143 C 0.13202 0.72759 0.49498 0.0
N1144 N 0.12126 0.72552 0.67504 0.0
N1145 N 0.12005 0.73054 0.53882 0.0
H1146 H 0.12559 0.58076 0.81428 0.0
H1147 H 0.09015 0.5969 0.53206 0.0
H1148 H 0.13987 0.61189 0.75311 0.0
H1149 H 0.04889 0.57133 0.60768 0.0
H1150 H 0.11499 0.60084 0.60929 0.0
H1151 H 0.10294 0.5757 0.73558 0.0
C1152 C 0.12389 0.58653 0.78449 0.0
C1153 C 0.13451 0.59679 0.79052 0.0
C1154 C 0.10052 0.59435 0.6089 0.0
C1155 C 0.10919 0.59098 0.70027 0.0
C1156 C 0.08631 0.59209 0.56476 0.0
C1157 C 0.0669 0.58391 0.56346 0.0
C1158 C 0.09569 0.5883 0.65202 0.0
C1159 C 0.0634 0.57779 0.60695 0.0
C1160 C 0.11102 0.58363 0.73961 0.0
C1161 C 0.13186 0.60392 0.75045 0.0
N1162 N 0.07757 0.58013 0.64948 0.0
N1163 N 0.11962 0.60087 0.70707 0.0
H1164 H 0.83537 0.3331 0.50382 0.0
H1165 H 0.88365 0.37276 0.28787 0.0
H1166 H 0.81208 0.36603 0.49265 0.0
H1167 H 0.89574 0.33899 0.27514 0.0
H1168 H 0.85893 0.37007 0.36539 0.0
H1169 H 0.85937 0.33469 0.42304 0.0
C1170 C 0.83534 0.34064 0.48458 0.0
C1171 C 0.82167 0.34944 0.50517 0.0
C1172 C 0.8668 0.36319 0.34577 0.0
C1173 C 0.84894 0.3513 0.41313 0.0
C1174 C 0.88101 0.36474 0.30133 0.0
C1175 C 0.89184 0.3561 0.27488 0.0
C1176 C 0.86346 0.35291 0.36473 0.0
C1177 C 0.88758 0.34588 0.29422 0.0
C1178 C 0.84891 0.34153 0.43843 0.0
C1179 C 0.8222 0.35901 0.47844 0.0
N1180 N 0.87386 0.34456 0.33828 0.0
N1181 N 0.83559 0.35966 0.43418 0.0
H1182 H 0.84424 0.48514 0.26471 0.0
H1183 H 0.86697 0.44712 0.50023 0.0
H1184 H 0.80368 0.45518 0.2872 0.0
H1185 H 0.90101 0.47858 0.49502 0.0
H1186 H 0.84199 0.45069 0.42328 0.0
H1187 H 0.86419 0.48362 0.34918 0.0
C1188 C 0.83945 0.47828 0.28734 0.0
C1189 C 0.82244 0.47023 0.26855 0.0
C1190 C 0.85467 0.4569 0.43895 0.0
C1191 C 0.84501 0.46847 0.36488 0.0
C1192 C 0.86891 0.45485 0.48304 0.0
C1193 C 0.88611 0.46255 0.50389 0.0
C1194 C 0.85791 0.46668 0.41469 0.0
C1195 C 0.8878 0.47245 0.48018 0.0
C1196 C 0.85076 0.47744 0.33554 0.0
C1197 C 0.81681 0.46156 0.29965 0.0
N1198 N 0.87414 0.4742 0.43632 0.0
N1199 N 0.82812 0.46091 0.3459 0.0
H1200 H 0.60438 0.23042 0.72181 0.0
H1201 H 0.62177 0.24008 0.42861 0.0
H1202 H 0.54757 0.25017 0.63976 0.0
H1203 H 0.64438 0.21105 0.50347 0.0
H1204 H 0.60194 0.24661 0.50773 0.0
H1205 H 0.6277 0.22623 0.64363 0.0
C1206 C 0.5968 0.23391 0.68746 0.0
C1207 C 0.57344 0.24042 0.68728 0.0
C1208 C 0.61131 0.23882 0.50651 0.0
C1209 C 0.60055 0.23582 0.59771 0.0
C1210 C 0.62259 0.23511 0.46159 0.0
C1211 C 0.63444 0.22497 0.45939 0.0
C1212 C 0.61262 0.23244 0.54951 0.0
C1213 C 0.63513 0.21886 0.50321 0.0
C1214 C 0.61019 0.23152 0.64285 0.0
C1215 C 0.56522 0.24498 0.64161 0.0
N1216 N 0.62452 0.22271 0.54642 0.0
N1217 N 0.57867 0.24255 0.59851 0.0
H1218 H 0.6023 0.08588 0.48517 0.0
H1219 H 0.63842 0.12359 0.71736 0.0
H1220 H 0.58436 0.11933 0.49374 0.0
H1221 H 0.65044 0.08972 0.724 0.0
H1222 H 0.62091 0.12184 0.63304 0.0
H1223 H 0.623 0.08684 0.56925 0.0
C1224 C 0.60307 0.09344 0.50437 0.0
C1225 C 0.59154 0.10254 0.48249 0.0
C1226 C 0.62726 0.11474 0.65266 0.0
C1227 C 0.61482 0.10365 0.57839 0.0
C1228 C 0.63731 0.11573 0.70111 0.0
C1229 C 0.64596 0.10679 0.72798 0.0
C1230 C 0.62575 0.1047 0.63021 0.0
C1231 C 0.64386 0.09682 0.7047 0.0
C1232 C 0.61466 0.09395 0.55245 0.0
C1233 C 0.59283 0.11209 0.50918 0.0
N1234 N 0.634 0.09604 0.65694 0.0
N1235 N 0.60414 0.11238 0.55554 0.0
H1236 H 0.3425 0.84828 0.47284 0.0
H1237 H 0.37507 0.83238 0.18868 0.0
H1238 H 0.30139 0.82288 0.39491 0.0
H1239 H 0.40016 0.86185 0.25669 0.0
H1240 H 0.3522 0.82755 0.26685 0.0
H1241 H 0.36877 0.85195 0.39717 0.0
C1242 C 0.33903 0.84345 0.43998 0.0
C1243 C 0.31924 0.8354 0.44009 0.0
C1244 C 0.36271 0.83507 0.26457 0.0
C1245 C 0.34951 0.8395 0.35333 0.0
C1246 C 0.37573 0.83784 0.21994 0.0
C1247 C 0.38943 0.84757 0.21594 0.0
C1248 C 0.36362 0.84203 0.30567 0.0
C1249 C 0.38972 0.85431 0.25784 0.0
C1250 C 0.35405 0.84555 0.39672 0.0
C1251 C 0.31619 0.82924 0.39656 0.0
N1252 N 0.37707 0.8514 0.30089 0.0
N1253 N 0.33102 0.83145 0.3549 0.0
H1254 H 0.40006 0.9473 0.48045 0.0
H1255 H 0.33004 0.97958 0.25586 0.0
H1256 H 0.38401 0.9809 0.48923 0.0
H1257 H 0.32971 0.94553 0.26896 0.0
H1258 H 0.35579 0.98065 0.33496 0.0
H1259 H 0.37993 0.94699 0.39715 0.0
C1260 C 0.39234 0.95464 0.46485 0.0
C1261 C 0.39363 0.96414 0.49213 0.0
C1262 C 0.35027 0.97296 0.32017 0.0
C1263 C 0.37047 0.96382 0.39604 0.0
C1264 C 0.33582 0.97234 0.27487 0.0
C1265 C 0.32768 0.96244 0.25595 0.0
C1266 C 0.35683 0.96362 0.34624 0.0
C1267 C 0.33542 0.95331 0.28234 0.0
C1268 C 0.38079 0.95445 0.41715 0.0
C1269 C 0.38325 0.97339 0.4697 0.0
N1270 N 0.34947 0.95413 0.32607 0.0
N1271 N 0.37208 0.973 0.4229 0.0
H1272 H 0.6136 0.7249 1.0025 0.0
H1273 H 0.62228 0.72843 0.29799 0.0
H1274 H 0.68593 0.7143 0.08113 0.0
H1275 H 0.55381 0.71298 0.22664 0.0
H1276 H 0.64511 0.72952 0.21586 0.0
H1277 H 0.58998 0.72678 0.08373 0.0
C1278 C 0.62448 0.72309 0.03684 0.0
C1279 C 0.65146 0.71932 0.03554 0.0
C1280 C 0.62496 0.72599 0.21852 0.0
C1281 C 0.62535 0.7218 0.12715 0.0
C1282 C 0.61207 0.72536 0.265 0.0
C1283 C 0.58649 0.72045 0.26875 0.0
C1284 C 0.6116 0.72205 0.17584 0.0
C1285 C 0.57381 0.71665 0.22515 0.0
C1286 C 0.61112 0.72415 0.08278 0.0
C1287 C 0.66493 0.71709 0.08077 0.0
N1288 N 0.58645 0.71757 0.18026 0.0
N1289 N 0.65177 0.71842 0.12492 0.0
H1290 H 0.55234 0.61599 0.06006 0.0
H1291 H 0.65953 0.58801 0.24443 0.0
H1292 H 0.60321 0.59002 0.01036 0.0
H1293 H 0.60462 0.61349 0.28342 0.0
H1294 H 0.63697 0.58681 0.1616 0.0
H1295 H 0.56922 0.61359 0.14422 0.0
C1296 C 0.56723 0.60977 0.06678 0.0
C1297 C 0.57665 0.6033 0.02773 0.0
C1298 C 0.62961 0.59251 0.18874 0.0
C1299 C 0.59641 0.60047 0.12541 0.0
C1300 C 0.64228 0.59313 0.236 0.0
C1301 C 0.63388 0.60089 0.27042 0.0
C1302 C 0.60847 0.59969 0.17654 0.0
C1303 C 0.61179 0.60745 0.25773 0.0
C1304 C 0.57683 0.60836 0.11525 0.0
C1305 C 0.59559 0.59524 0.03934 0.0
N1306 N 0.60004 0.60674 0.21192 0.0
N1307 N 0.60512 0.59412 0.08719 0.0
H1308 H 0.30172 0.36158 0.94747 0.0
H1309 H 0.40399 0.33753 0.74258 0.0
H1310 H 0.35434 0.335 0.98097 0.0
H1311 H 0.35418 0.36556 0.72523 0.0
H1312 H 0.38235 0.33442 0.82479 0.0
H1313 H 0.31654 0.361 0.86121 0.0
C1314 C 0.31645 0.35558 0.93656 0.0
C1315 C 0.32715 0.34844 0.97171 0.0
C1316 C 0.37596 0.34115 0.80252 0.0
C1317 C 0.3447 0.34779 0.87201 0.0
C1318 C 0.38813 0.34288 0.7556 0.0
C1319 C 0.38094 0.35186 0.72739 0.0
C1320 C 0.35637 0.3484 0.82063 0.0
C1321 C 0.36054 0.35861 0.74598 0.0
C1322 C 0.32493 0.35523 0.88704 0.0
C1323 C 0.34575 0.34069 0.955 0.0
N1324 N 0.34914 0.35677 0.79127 0.0
N1325 N 0.35429 0.34065 0.90631 0.0
H1326 H 0.37536 0.474 0.9755 0.0
H1327 H 0.3476 0.49229 0.69335 0.0
H1328 H 0.42019 0.49932 0.90499 0.0
H1329 H 0.32969 0.4609 0.74799 0.0
H1330 H 0.36722 0.49674 0.77527 0.0
H1331 H 0.35064 0.47106 0.89699 0.0
C1332 C 0.38002 0.47895 0.94365 0.0
C1333 C 0.40058 0.48669 0.94653 0.0
C1334 C 0.35895 0.48889 0.76921 0.0
C1335 C 0.37182 0.48353 0.8569 0.0
C1336 C 0.34779 0.48633 0.7225 0.0
C1337 C 0.33723 0.47616 0.71359 0.0
C1338 C 0.35915 0.48128 0.80752 0.0
C1339 C 0.33786 0.46879 0.75292 0.0
C1340 C 0.36583 0.47728 0.89888 0.0
C1341 C 0.40485 0.49315 0.90445 0.0
N1342 N 0.34856 0.47151 0.79816 0.0
N1343 N 0.39075 0.49138 0.86129 0.0
H1344 H 0.79513 0.19453 0.36443 0.0
H1345 H 0.91101 0.23901 0.36813 0.0
H1346 H 0.78388 0.22637 0.42007 0.0
H1347 H 0.92947 0.20611 0.33966 0.0
H1348 H 0.86307 0.23441 0.38034 0.0
H1349 H 0.84403 0.19824 0.35304 0.0
C1350 C 0.80306 0.20219 0.37537 0.0
C1351 C 0.78539 0.21014 0.3933 0.0
C1352 C 0.8775 0.22818 0.37111 0.0
C1353 C 0.84087 0.2145 0.37919 0.0
C1354 C 0.90478 0.23083 0.36365 0.0
C1355 C 0.92411 0.22292 0.3531 0.0
C1356 C 0.86943 0.21753 0.36804 0.0
C1357 C 0.91507 0.21244 0.34741 0.0
C1358 C 0.83086 0.20433 0.36851 0.0
C1359 C 0.79669 0.21994 0.40684 0.0
N1360 N 0.88831 0.21002 0.35537 0.0
N1361 N 0.8236 0.22187 0.39893 0.0
H1362 H 0.43753 0.08461 0.45287 0.0
H1363 H 0.30263 0.11337 0.3494 0.0
H1364 H 0.43687 0.1163 0.39306 0.0
H1365 H 0.30559 0.08089 0.3993 0.0
H1366 H 0.35099 0.11529 0.3722 0.0
H1367 H 0.38756 0.0842 0.44641 0.0
C1368 C 0.42673 0.09162 0.44017 0.0
C1369 C 0.44117 0.10047 0.42314 0.0
C1370 C 0.34105 0.10773 0.37807 0.0
C1371 C 0.38437 0.09994 0.4137 0.0
C1372 C 0.31361 0.1066 0.36434 0.0
C1373 C 0.3002 0.09695 0.37235 0.0
C1374 C 0.35509 0.09915 0.39987 0.0
C1375 C 0.31518 0.08849 0.3928 0.0
C1376 C 0.39828 0.09133 0.43562 0.0
C1377 C 0.42633 0.10931 0.40624 0.0
N1378 N 0.3418 0.08979 0.40594 0.0
N1379 N 0.39872 0.10876 0.40113 0.0
H1380 H 0.79937 0.13111 0.87894 0.0
H1381 H 0.91208 0.08658 0.92712 0.0
H1382 H 0.79593 0.09928 0.82025 0.0
H1383 H 0.93353 0.11965 0.93074 0.0
H1384 H 0.86494 0.09145 0.90628 0.0
H1385 H 0.84613 0.12756 0.90931 0.0
C1386 C 0.8088 0.1235 0.87115 0.0
C1387 C 0.79395 0.1155 0.84667 0.0
C1388 C 0.87981 0.09767 0.91259 0.0
C1389 C 0.8464 0.11128 0.88309 0.0
C1390 C 0.90647 0.09489 0.92545 0.0
C1391 C 0.9264 0.10275 0.93078 0.0
C1392 C 0.87317 0.10837 0.90481 0.0
C1393 C 0.91847 0.11341 0.92739 0.0
C1394 C 0.83521 0.12145 0.88899 0.0
C1395 C 0.80681 0.10573 0.83814 0.0
N1396 N 0.89239 0.11594 0.91386 0.0
N1397 N 0.83214 0.10384 0.85699 0.0
H1398 H 0.44912 0.21645 0.92206 0.0
H1399 H 0.29478 0.20489 0.8431 0.0
H1400 H 0.42348 0.21138 0.76916 0.0
H1401 H 0.32033 0.21067 0.99559 0.0
H1402 H 0.34211 0.20581 0.81648 0.0
H1403 H 0.40266 0.21319 0.94992 0.0
C1404 C 0.43374 0.21449 0.89428 0.0
C1405 C 0.4403 0.214 0.84313 0.0
C1406 C 0.33748 0.20676 0.85583 0.0
C1407 C 0.38668 0.21049 0.87503 0.0
C1408 C 0.3104 0.2061 0.87135 0.0
C1409 C 0.3035 0.20755 0.922 0.0
C1410 C 0.35797 0.20899 0.89099 0.0
C1411 C 0.32468 0.20951 0.95627 0.0
C1412 C 0.40713 0.21271 0.91031 0.0
C1413 C 0.4193 0.21181 0.80887 0.0
N1414 N 0.35099 0.2102 0.94008 0.0
N1415 N 0.39337 0.21011 0.82548 0.0
H1416 H 0.16939 0.84172 0.57193 0.0
H1417 H 0.03093 0.87209 0.60639 0.0
H1418 H 0.16183 0.8738 0.51824 0.0
H1419 H 0.06607 0.85346 0.72678 0.0
H1420 H 0.07428 0.87135 0.56329 0.0
H1421 H 0.12531 0.84363 0.61457 0.0
C1422 C 0.1579 0.84903 0.56762 0.0
C1423 C 0.16889 0.85758 0.541 0.0
C1424 C 0.07241 0.86752 0.59939 0.0
C1425 C 0.11915 0.85986 0.59047 0.0
C1426 C 0.04765 0.86805 0.62489 0.0
C1427 C 0.04421 0.86278 0.67105 0.0
C1428 C 0.09378 0.86145 0.61907 0.0
C1429 C 0.06706 0.85741 0.691 0.0
C1430 C 0.13315 0.85017 0.59276 0.0
C1431 C 0.15372 0.86701 0.53787 0.0
N1432 N 0.09072 0.85672 0.66445 0.0
N1433 N 0.12945 0.86791 0.56236 0.0
H1434 H 0.53953 0.95462 0.61398 0.0
H1435 H 0.65922 0.96877 0.80236 0.0
H1436 H 0.54962 0.986 0.6761 0.0
H1437 H 0.67586 0.95083 0.66735 0.0
H1438 H 0.61223 0.97131 0.77301 0.0
H1439 H 0.58488 0.94983 0.64693 0.0
C1440 C 0.55131 0.96055 0.63382 0.0
C1441 C 0.5405 0.9707 0.64275 0.0
C1442 C 0.62633 0.96668 0.75059 0.0
C1443 C 0.59141 0.96507 0.68252 0.0
C1444 C 0.65322 0.96523 0.76712 0.0
C1445 C 0.67229 0.95981 0.73704 0.0
C1446 C 0.61819 0.96241 0.70446 0.0
C1447 C 0.66246 0.95505 0.69259 0.0
C1448 C 0.57693 0.95774 0.65321 0.0
C1449 C 0.55668 0.97799 0.66944 0.0
N1450 N 0.63619 0.95653 0.67755 0.0
N1451 N 0.58113 0.97498 0.68901 0.0
H1452 H 0.03001 0.95932 0.19666 0.0
H1453 H 0.17317 0.98553 0.26895 0.0
H1454 H 0.04476 0.99295 0.20771 0.0
H1455 H 0.16395 0.95264 0.22961 0.0
H1456 H 0.12328 0.98742 0.27029 0.0
H1457 H 0.07687 0.95602 0.22568 0.0
C1458 C 0.0432 0.966 0.20461 0.0
C1459 C 0.03357 0.97643 0.19936 0.0
C1460 C 0.13212 0.9797 0.26286 0.0
C1461 C 0.08673 0.97271 0.23414 0.0
C1462 C 0.16054 0.97859 0.26312 0.0
C1463 C 0.17238 0.96893 0.24908 0.0
C1464 C 0.11575 0.9711 0.248 0.0
C1465 C 0.15533 0.9602 0.24071 0.0
C1466 C 0.06976 0.96411 0.22193 0.0
C1467 C 0.0513 0.98479 0.21145 0.0
N1468 N 0.12777 0.96153 0.23921 0.0
N1469 N 0.07702 0.98274 0.22819 0.0
H1470 H 0.54009 0.86412 0.1827 0.0
H1471 H 0.68354 0.86242 0.04967 0.0
H1472 H 0.56226 0.83909 0.07963 0.0
H1473 H 0.68112 0.86347 0.21159 0.0
H1474 H 0.63375 0.86031 0.04909 0.0
H1475 H 0.58836 0.86962 0.18493 0.0
C1476 C 0.55497 0.85973 0.1609 0.0
C1477 C 0.54694 0.85122 0.13028 0.0
C1478 C 0.64437 0.86126 0.08447 0.0
C1479 C 0.60129 0.85785 0.13079 0.0
C1480 C 0.67274 0.86239 0.08499 0.0
C1481 C 0.68695 0.8629 0.13072 0.0
C1482 C 0.63011 0.86094 0.12982 0.0
C1483 C 0.67145 0.8632 0.1752 0.0
C1484 C 0.5823 0.86298 0.16172 0.0
C1485 C 0.56719 0.84591 0.10246 0.0
N1486 N 0.64384 0.86214 0.17363 0.0
N1487 N 0.59335 0.84941 0.10281 0.0
H1488 H 0.81602 0.74342 0.98386 0.0
H1489 H 0.9202 0.70197 0.87173 0.0
H1490 H 0.80247 0.70974 0.98668 0.0
H1491 H 0.93837 0.73517 0.89155 0.0
H1492 H 0.87908 0.7043 0.92275 0.0
H1493 H 0.86424 0.74024 0.96503 0.0
C1494 C 0.82363 0.73535 0.98285 0.0
C1495 C 0.80556 0.72681 0.98635 0.0
C1496 C 0.89213 0.71106 0.91598 0.0
C1497 C 0.85987 0.72309 0.96205 0.0
C1498 C 0.91537 0.70976 0.88642 0.0
C1499 C 0.93234 0.71844 0.87641 0.0
C1500 C 0.88584 0.72112 0.9355 0.0
C1501 C 0.92538 0.72833 0.89683 0.0
C1502 C 0.851 0.73351 0.9713 0.0
C1503 C 0.81602 0.71649 0.98417 0.0
N1504 N 0.90261 0.72941 0.92519 0.0
N1505 N 0.84246 0.71489 0.97065 0.0
H1506 H 0.43538 0.59275 0.91387 0.0
H1507 H 0.28993 0.61596 0.84272 0.0
H1508 H 0.42659 0.62508 0.86372 0.0
H1509 H 0.30953 0.58264 0.84494 0.0
H1510 H 0.33903 0.62003 0.8481 0.0
H1511 H 0.38792 0.58949 0.89206 0.0
C1512 C 0.42323 0.59925 0.89924 0.0
C1513 C 0.43477 0.60927 0.89152 0.0
C1514 C 0.33257 0.61184 0.84623 0.0
C1515 C 0.38042 0.60548 0.86476 0.0
C1516 C 0.30465 0.60952 0.84264 0.0
C1517 C 0.29586 0.59896 0.84396 0.0
C1518 C 0.35147 0.60351 0.8516 0.0
C1519 C 0.31558 0.59088 0.84447 0.0
C1520 C 0.39624 0.59733 0.88585 0.0
C1521 C 0.4183 0.61728 0.87067 0.0
N1522 N 0.34245 0.59333 0.84911 0.0
N1523 N 0.39177 0.61523 0.85823 0.0
H1524 H 0.9103 0.5913 0.44831 0.0
H1525 H 0.79083 0.63213 0.38215 0.0
H1526 H 0.92253 0.62513 0.45234 0.0
H1527 H 0.78992 0.59906 0.34117 0.0
H1528 H 0.83844 0.63011 0.4102 0.0
H1529 H 0.86386 0.59421 0.41708 0.0
C1530 C 0.90289 0.59935 0.44402 0.0
C1531 C 0.92017 0.60799 0.45311 0.0
C1532 C 0.82796 0.62336 0.3941 0.0
C1533 C 0.86747 0.61137 0.41566 0.0
C1534 C 0.80098 0.62454 0.37757 0.0
C1535 C 0.78652 0.61576 0.35917 0.0
C1536 C 0.84028 0.6133 0.39286 0.0
C1537 C 0.80042 0.60607 0.35449 0.0
C1538 C 0.87659 0.60101 0.42523 0.0
C1539 C 0.90976 0.61826 0.44575 0.0
N1540 N 0.82639 0.60506 0.37203 0.0
N1541 N 0.88407 0.61968 0.42718 0.0
H1542 H 0.30928 0.69314 0.36988 0.0
H1543 H 0.4152 0.7404 0.33081 0.0
H1544 H 0.29621 0.72572 0.41376 0.0
H1545 H 0.44025 0.70766 0.32304 0.0
H1546 H 0.36812 0.73475 0.34479 0.0
H1547 H 0.35577 0.69784 0.34289 0.0
C1548 C 0.3164 0.70119 0.37495 0.0
C1549 C 0.29893 0.70902 0.39448 0.0
C1550 C 0.38381 0.72878 0.33928 0.0
C1551 C 0.35121 0.71447 0.36232 0.0
C1552 C 0.4105 0.73202 0.33058 0.0
C1553 C 0.43135 0.72446 0.3262 0.0
C1554 C 0.37814 0.71793 0.34415 0.0
C1555 C 0.4245 0.71369 0.32617 0.0
C1556 C 0.34271 0.70388 0.35909 0.0
C1557 C 0.30903 0.71935 0.39994 0.0
N1558 N 0.39839 0.71069 0.33602 0.0
N1559 N 0.33436 0.72178 0.38347 0.0
H1560 H 0.19047 0.37355 0.15779 0.0
H1561 H 0.06238 0.33545 0.19737 0.0
H1562 H 0.18349 0.34198 0.0971 0.0
H1563 H 0.05378 0.36939 0.20594 0.0
H1564 H 0.11112 0.33757 0.17984 0.0
H1565 H 0.1432 0.37224 0.18885 0.0
C1566 C 0.17877 0.36645 0.15017 0.0
C1567 C 0.19068 0.35791 0.12431 0.0
C1568 C 0.09872 0.34456 0.18647 0.0
C1569 C 0.13747 0.35621 0.16125 0.0
C1570 C 0.07108 0.34334 0.19729 0.0
C1571 C 0.05426 0.35226 0.20301 0.0
C1572 C 0.10954 0.35478 0.18118 0.0
C1573 C 0.06628 0.36233 0.20208 0.0
C1574 C 0.15201 0.36567 0.16823 0.0
C1575 C 0.1749 0.34883 0.11595 0.0
N1576 N 0.09327 0.36335 0.19052 0.0
N1577 N 0.14922 0.34818 0.13481 0.0
H1578 H 0.56119 0.46897 0.96012 0.0
H1579 H 0.68 0.46167 0.1594 0.0
H1580 H 0.54554 0.45411 0.10314 0.0
H1581 H 0.66922 0.49049 0.07433 0.0
H1582 H 0.63519 0.45563 0.12936 0.0
H1583 H 0.60747 0.47312 0.98912 0.0
C1584 C 0.56737 0.46642 0.99713 0.0
C1585 C 0.54883 0.46137 0.02933 0.0
C1586 C 0.64281 0.46327 0.11751 0.0
C1587 C 0.60199 0.46586 0.0619 0.0
C1588 C 0.66812 0.46681 0.13517 0.0
C1589 C 0.67861 0.47656 0.11894 0.0
C1590 C 0.62828 0.46943 0.08274 0.0
C1591 C 0.66236 0.48279 0.08683 0.0
C1592 C 0.5938 0.4688 0.01354 0.0
C1593 C 0.55871 0.45795 0.07633 0.0
N1594 N 0.6382 0.47905 0.06918 0.0
N1595 N 0.58453 0.46033 0.09128 0.0
H1596 H 0.05192 0.44421 0.58571 0.0
H1597 H 0.17645 0.46314 0.65379 0.0
H1598 H 0.05384 0.47086 0.48538 0.0
H1599 H 0.18642 0.47337 0.50071 0.0
H1600 H 0.13209 0.45565 0.63123 0.0
H1601 H 0.10206 0.44417 0.58838 0.0
C1602 C 0.06306 0.44976 0.56257 0.0
C1603 C 0.04906 0.45762 0.53568 0.0
C1604 C 0.14431 0.4593 0.6023 0.0
C1605 C 0.10578 0.45798 0.54051 0.0
C1606 C 0.16953 0.46368 0.61534 0.0
C1607 C 0.1849 0.46912 0.57947 0.0
C1608 C 0.1344 0.46043 0.55312 0.0
C1609 C 0.17482 0.46959 0.53013 0.0
C1610 C 0.09153 0.44987 0.56488 0.0
C1611 C 0.0641 0.4647 0.50654 0.0
N1612 N 0.14994 0.4655 0.51865 0.0
N1613 N 0.09183 0.46486 0.51049 0.0
H1614 H 0.54134 0.36369 0.72272 0.0
H1615 H 0.67666 0.35982 0.56299 0.0
H1616 H 0.53888 0.3678 0.56168 0.0
H1617 H 0.65476 0.33532 0.6684 0.0
H1618 H 0.63074 0.36742 0.57245 0.0
H1619 H 0.58929 0.35829 0.71525 0.0
C1620 C 0.55057 0.36363 0.68599 0.0
C1621 C 0.5352 0.36608 0.64283 0.0
C1622 C 0.6363 0.36041 0.59357 0.0
C1623 C 0.59047 0.36035 0.63483 0.0
C1624 C 0.6623 0.35596 0.58769 0.0
C1625 C 0.6699 0.34693 0.61524 0.0
C1626 C 0.61811 0.35598 0.62808 0.0
C1627 C 0.65032 0.34244 0.64742 0.0
C1628 C 0.57803 0.3606 0.68199 0.0
C1629 C 0.54922 0.36619 0.5966 0.0
N1630 N 0.62545 0.34709 0.65341 0.0
N1631 N 0.57594 0.36334 0.59391 0.0
H1632 H 0.03762 0.17593 0.41293 0.0
H1633 H 0.18655 0.14918 0.41037 0.0
H1634 H 0.11232 0.19383 0.4297 0.0
H1635 H 0.11124 0.13134 0.41061 0.0
H1636 H 0.16001 0.16554 0.41492 0.0
H1637 H 0.06438 0.15969 0.40962 0.0
C1638 C 0.05962 0.17652 0.41641 0.0
C1639 C 0.07251 0.18642 0.42211 0.0
C1640 C 0.14928 0.15805 0.41403 0.0
C1641 C 0.10364 0.16757 0.41731 0.0
C1642 C 0.16447 0.14863 0.41168 0.0
C1643 C 0.1513 0.13872 0.41034 0.0
C1644 C 0.12055 0.15766 0.41486 0.0
C1645 C 0.12248 0.1387 0.41111 0.0
C1646 C 0.07497 0.16716 0.41416 0.0
C1647 C 0.10131 0.18648 0.42505 0.0
N1648 N 0.10817 0.14799 0.41333 0.0
N1649 N 0.11584 0.17723 0.42264 0.0
H1650 H 0.10321 0.12639 0.88673 0.0
H1651 H 0.11811 0.1881 0.82101 0.0
H1652 H 0.05568 0.14157 0.77057 0.0
H1653 H 0.15895 0.17229 0.94319 0.0
H1654 H 0.09898 0.17092 0.79432 0.0
H1655 H 0.12801 0.14281 0.89974 0.0
C1656 C 0.09822 0.1331 0.86326 0.0
C1657 C 0.07709 0.13252 0.82756 0.0
C1658 C 0.11229 0.17123 0.82678 0.0
C1659 C 0.1053 0.15162 0.84325 0.0
C1660 C 0.12326 0.181 0.8418 0.0
C1661 C 0.13976 0.18163 0.8848 0.0
C1662 C 0.11814 0.16204 0.85477 0.0
C1663 C 0.14582 0.17222 0.9105 0.0
C1664 C 0.1123 0.14256 0.87108 0.0
C1665 C 0.07146 0.14165 0.79904 0.0
N1666 N 0.13496 0.16287 0.89527 0.0
N1667 N 0.08532 0.15083 0.80773 0.0
H1668 H 0.83285 0.88104 0.6237 0.0
H1669 H 0.87938 0.93891 0.68446 0.0
H1670 H 0.91812 0.88941 0.63377 0.0
H1671 H 0.80139 0.93265 0.61524 0.0
H1672 H 0.89475 0.92104 0.66179 0.0
H1673 H 0.82102 0.89985 0.61537 0.0
C1674 C 0.8491 0.88685 0.62304 0.0
C1675 C 0.87646 0.8837 0.62964 0.0
C1676 C 0.87447 0.92362 0.65052 0.0
C1677 C 0.86313 0.90523 0.62139 0.0
C1678 C 0.86575 0.9338 0.66349 0.0
C1679 C 0.83915 0.9372 0.65163 0.0
C1680 C 0.85617 0.91666 0.62675 0.0
C1681 C 0.82212 0.93031 0.62466 0.0
C1682 C 0.84238 0.89757 0.61826 0.0
C1683 C 0.8968 0.89152 0.62849 0.0
N1684 N 0.83071 0.92028 0.61399 0.0
N1685 N 0.88969 0.90195 0.62558 0.0
H1686 H 0.88298 0.94129 0.13505 0.0
H1687 H 0.82455 0.88862 0.26046 0.0
H1688 H 0.88599 0.93658 0.29452 0.0
H1689 H 0.86946 0.88787 0.12212 0.0
H1690 H 0.83522 0.90765 0.26885 0.0
H1691 H 0.86603 0.92304 0.12488 0.0
C1692 C 0.87957 0.93647 0.1679 0.0
C1693 C 0.8859 0.9404 0.21567 0.0
C1694 C 0.84249 0.90332 0.23648 0.0
C1695 C 0.8663 0.91966 0.20448 0.0
C1696 C 0.83629 0.89252 0.23159 0.0
C1697 C 0.84626 0.88672 0.19067 0.0
C1698 C 0.85808 0.90838 0.19943 0.0
C1699 C 0.8616 0.89209 0.15434 0.0
C1700 C 0.87012 0.92607 0.1621 0.0
C1701 C 0.88146 0.93379 0.25709 0.0
N1702 N 0.86692 0.90262 0.15939 0.0
N1703 N 0.87182 0.92377 0.25062 0.0
H1704 H 0.0618 0.67176 0.83536 0.0
H1705 H 0.17764 0.64247 0.9959 0.0
H1706 H 0.11637 0.68843 0.93481 0.0
H1707 H 0.11987 0.62638 0.90009 0.0
H1708 H 0.15339 0.65915 0.98043 0.0
H1709 H 0.0805 0.65498 0.86487 0.0
C1710 C 0.07775 0.67188 0.86356 0.0
C1711 C 0.08785 0.68152 0.8821 0.0
C1712 C 0.14585 0.65195 0.96323 0.0
C1713 C 0.10949 0.66223 0.91636 0.0
C1714 C 0.15974 0.64241 0.97191 0.0
C1715 C 0.15101 0.63298 0.94889 0.0
C1716 C 0.12306 0.6521 0.93107 0.0
C1717 C 0.12736 0.63339 0.9189 0.0
C1718 C 0.08836 0.66227 0.88062 0.0
C1719 C 0.10807 0.68118 0.91951 0.0
N1720 N 0.11443 0.64279 0.9105 0.0
N1721 N 0.11848 0.67169 0.93501 0.0
H1722 H 0.11071 0.68875 0.39191 0.0
H1723 H 0.09935 0.6264 0.33392 0.0
H1724 H 0.1513 0.67375 0.26713 0.0
H1725 H 0.05962 0.64225 0.45709 0.0
H1726 H 0.11638 0.64368 0.30483 0.0
H1727 H 0.09009 0.67178 0.41333 0.0
C1728 C 0.11534 0.68191 0.36898 0.0
C1729 C 0.13292 0.68275 0.32772 0.0
C1730 C 0.10384 0.64335 0.33813 0.0
C1731 C 0.10913 0.66316 0.35195 0.0
C1732 C 0.09403 0.6335 0.35452 0.0
C1733 C 0.07842 0.63284 0.39844 0.0
C1734 C 0.09783 0.65259 0.36574 0.0
C1735 C 0.07215 0.64231 0.42378 0.0
C1736 C 0.10342 0.67219 0.38108 0.0
C1737 C 0.1377 0.67356 0.29896 0.0
N1738 N 0.08194 0.65173 0.40726 0.0
N1739 N 0.12602 0.66416 0.31176 0.0
H1740 H 0.86894 0.44731 0.08631 0.0
H1741 H 0.86847 0.38468 0.13908 0.0
H1742 H 0.79512 0.42947 0.11188 0.0
H1743 H 0.93879 0.40163 0.08353 0.0
H1744 H 0.8416 0.40104 0.1333 0.0
H1745 H 0.89542 0.43078 0.09059 0.0
C1746 C 0.8583 0.43994 0.09303 0.0
C1747 C 0.8297 0.43982 0.09854 0.0
C1748 C 0.86293 0.40115 0.12234 0.0
C1749 C 0.85992 0.4208 0.10344 0.0
C1750 C 0.87833 0.39176 0.12539 0.0
C1751 C 0.9062 0.39165 0.11211 0.0
C1752 C 0.87541 0.41057 0.10616 0.0
C1753 C 0.91765 0.40124 0.09515 0.0
C1754 C 0.8734 0.43048 0.09517 0.0
C1755 C 0.81704 0.42997 0.1067 0.0
N1756 N 0.90231 0.41025 0.09291 0.0
N1757 N 0.83219 0.4209 0.10907 0.0
H1758 H 0.86846 0.43386 0.67915 0.0
H1759 H 0.86178 0.37038 0.66711 0.0
H1760 H 0.93612 0.41377 0.63542 0.0
H1761 H 0.78991 0.39017 0.68234 0.0
H1762 H 0.8898 0.38629 0.66189 0.0
H1763 H 0.83972 0.41805 0.68644 0.0
C1764 C 0.87738 0.42619 0.67105 0.0
C1765 C 0.90503 0.42527 0.65698 0.0
C1766 C 0.86787 0.38714 0.66643 0.0
C1767 C 0.87216 0.40707 0.66578 0.0
C1768 C 0.85176 0.37802 0.66924 0.0
C1769 C 0.82321 0.3788 0.67506 0.0
C1770 C 0.85554 0.3972 0.66967 0.0
C1771 C 0.81174 0.38905 0.67842 0.0
C1772 C 0.86093 0.41714 0.67539 0.0
C1773 C 0.91525 0.41501 0.64735 0.0
N1774 N 0.82788 0.3978 0.67567 0.0
N1775 N 0.89891 0.40638 0.65202 0.0
H1776 H 0.60247 0.14121 0.95469 0.0
H1777 H 0.64303 0.19455 0.81333 0.0
H1778 H 0.67139 0.14412 0.85495 0.0
H1779 H 0.57682 0.19296 0.91898 0.0
H1780 H 0.65681 0.17657 0.8363 0.0
H1781 H 0.59511 0.16037 0.949 0.0
C1782 C 0.61614 0.14585 0.93175 0.0
C1783 C 0.63749 0.14096 0.90498 0.0
C1784 C 0.63953 0.18016 0.85522 0.0
C1785 C 0.62925 0.16297 0.8986 0.0
C1786 C 0.63179 0.19045 0.84227 0.0
C1787 C 0.60883 0.19521 0.86434 0.0
C1788 C 0.62389 0.17447 0.89002 0.0
C1789 C 0.59481 0.18958 0.90149 0.0
C1790 C 0.61201 0.15682 0.92879 0.0
C1791 C 0.65481 0.14746 0.8766 0.0
N1792 N 0.6023 0.17943 0.91265 0.0
N1793 N 0.65015 0.15808 0.87387 0.0
H1794 H 0.60485 0.18537 0.22501 0.0
H1795 H 0.59921 0.13039 0.36916 0.0
H1796 H 0.65215 0.18012 0.35904 0.0
H1797 H 0.58087 0.13368 0.21162 0.0
H1798 H 0.61684 0.14853 0.36948 0.0
H1799 H 0.59337 0.16654 0.22274 0.0
C1800 C 0.61289 0.18021 0.25389 0.0
C1801 C 0.62944 0.1843 0.29227 0.0
C1802 C 0.6091 0.14521 0.33485 0.0
C1803 C 0.61612 0.16269 0.29037 0.0
C1804 C 0.59906 0.1348 0.33449 0.0
C1805 C 0.58812 0.13036 0.29035 0.0
C1806 C 0.60793 0.15131 0.29099 0.0
C1807 C 0.58842 0.13667 0.24691 0.0
C1808 C 0.60644 0.16945 0.25251 0.0
C1809 C 0.6395 0.17725 0.32862 0.0
N1810 N 0.59784 0.14679 0.24852 0.0
N1811 N 0.63241 0.16679 0.32717 0.0
H1812 H 0.35276 0.87636 0.04507 0.0
H1813 H 0.34537 0.93767 0.12534 0.0
H1814 H 0.42341 0.89463 0.08863 0.0
H1815 H 0.27926 0.92138 0.05035 0.0
H1816 H 0.37353 0.9217 0.11714 0.0
H1817 H 0.32434 0.89238 0.05341 0.0
C1818 C 0.36226 0.88371 0.05659 0.0
C1819 C 0.39057 0.88414 0.06567 0.0
C1820 C 0.35283 0.92165 0.10245 0.0
C1821 C 0.35824 0.90253 0.07537 0.0
C1822 C 0.33674 0.93082 0.10686 0.0
C1823 C 0.30965 0.93098 0.08879 0.0
C1824 C 0.34184 0.91249 0.08009 0.0
C1825 C 0.29972 0.92169 0.06576 0.0
C1826 C 0.34609 0.89288 0.06106 0.0
C1827 C 0.4018 0.89393 0.08032 0.0
N1828 N 0.3157 0.91286 0.0623 0.0
N1829 N 0.38566 0.90269 0.08478 0.0
H1830 H 0.35034 0.8789 0.66181 0.0
H1831 H 0.36309 0.941 0.60076 0.0
H1832 H 0.31129 0.89464 0.53753 0.0
H1833 H 0.40984 0.92583 0.71793 0.0
H1834 H 0.3401 0.9243 0.58416 0.0
H1835 H 0.36861 0.89614 0.68978 0.0
C1836 C 0.34539 0.88599 0.6408 0.0
C1837 C 0.32961 0.88532 0.59691 0.0
C1838 C 0.35527 0.9246 0.61376 0.0
C1839 C 0.35032 0.90499 0.6284 0.0
C1840 C 0.36831 0.93422 0.6236 0.0
C1841 C 0.3886 0.93491 0.66084 0.0
C1842 C 0.36244 0.9155 0.64117 0.0
C1843 C 0.39464 0.92568 0.68843 0.0
C1844 C 0.35591 0.8958 0.65654 0.0
C1845 C 0.32384 0.89474 0.57095 0.0
N1846 N 0.38174 0.91637 0.67792 0.0
N1847 N 0.33422 0.90412 0.58693 0.0
H1848 H 0.54154 0.68334 0.50354 0.0
H1849 H 0.65381 0.64324 0.39147 0.0
H1850 H 0.6003 0.69288 0.3924 0.0
H1851 H 0.5899 0.63449 0.49426 0.0
H1852 H 0.63835 0.66179 0.3968 0.0
H1853 H 0.56272 0.66586 0.50628 0.0
C1854 C 0.55901 0.68177 0.47977 0.0
C1855 C 0.56892 0.68959 0.44732 0.0
C1856 C 0.62785 0.65581 0.41839 0.0
C1857 C 0.59351 0.66942 0.45015 0.0
C1858 C 0.63678 0.64522 0.41558 0.0
C1859 C 0.62298 0.63726 0.44212 0.0
C1860 C 0.60511 0.65844 0.44825 0.0
C1861 C 0.60087 0.6403 0.47246 0.0
C1862 C 0.57118 0.67176 0.4814 0.0
C1863 C 0.59202 0.68711 0.41811 0.0
N1864 N 0.59263 0.65059 0.47454 0.0
N1865 N 0.60338 0.67722 0.41986 0.0
H1866 H 0.63931 0.6892 0.921 0.0
H1867 H 0.63346 0.63325 0.77966 0.0
H1868 H 0.7001 0.67869 0.8152 0.0
H1869 H 0.58793 0.6393 0.91465 0.0
H1870 H 0.65538 0.65054 0.7882 0.0
H1871 H 0.61702 0.67177 0.91472 0.0
C1872 C 0.6478 0.68327 0.89614 0.0
C1873 C 0.67164 0.68541 0.86863 0.0
C1874 C 0.64071 0.64809 0.81618 0.0
C1875 C 0.64637 0.66547 0.86137 0.0
C1876 C 0.62814 0.63822 0.81123 0.0
C1877 C 0.60883 0.63481 0.84649 0.0
C1878 C 0.63371 0.65476 0.85634 0.0
C1879 C 0.60289 0.64157 0.88691 0.0
C1880 C 0.63525 0.6733 0.89291 0.0
C1881 C 0.68196 0.67737 0.83745 0.0
N1882 N 0.61509 0.65126 0.89053 0.0
N1883 N 0.66925 0.66782 0.83455 0.0
H1884 H 0.39973 0.39488 0.61019 0.0
H1885 H 0.30658 0.4368 0.46117 0.0
H1886 H 0.34229 0.3867 0.49365 0.0
H1887 H 0.34978 0.44494 0.59682 0.0
H1888 H 0.325 0.41889 0.46648 0.0
H1889 H 0.38688 0.41362 0.60025 0.0
C1890 C 0.38461 0.39702 0.58226 0.0
C1891 C 0.37194 0.38919 0.5529 0.0
C1892 C 0.3306 0.42458 0.49506 0.0
C1893 C 0.3572 0.41058 0.54128 0.0
C1894 C 0.32002 0.43484 0.49208 0.0
C1895 C 0.32628 0.44239 0.52898 0.0
C1896 C 0.34771 0.42175 0.53523 0.0
C1897 C 0.34442 0.4394 0.56748 0.0
C1898 C 0.37719 0.40771 0.57679 0.0
C1899 C 0.35229 0.39243 0.5176 0.0
N1900 N 0.35434 0.42929 0.56984 0.0
N1901 N 0.34558 0.40283 0.51281 0.0
H1902 H 0.41457 0.43409 0.15352 0.0
H1903 H 0.31345 0.38534 0.09999 0.0
H1904 H 0.34802 0.43495 0.04728 0.0
H1905 H 0.38723 0.38265 0.18831 0.0
H1906 H 0.32166 0.40434 0.09148 0.0
H1907 H 0.40067 0.41614 0.1779 0.0
C1908 C 0.39675 0.43058 0.13603 0.0
C1909 C 0.38257 0.43597 0.09801 0.0
C1910 C 0.33596 0.39961 0.11308 0.0
C1911 C 0.36669 0.41543 0.12525 0.0
C1912 C 0.33116 0.38875 0.11827 0.0
C1913 C 0.34978 0.38234 0.14463 0.0
C1914 C 0.35953 0.40414 0.13451 0.0
C1915 C 0.37258 0.38724 0.16697 0.0
C1916 C 0.38894 0.42031 0.14962 0.0
C1917 C 0.35976 0.431 0.07622 0.0
N1918 N 0.37688 0.39782 0.1612 0.0
N1919 N 0.35264 0.42102 0.0899 0.0
H1920 H 0.96481 0.29923 0.13477 0.0
H1921 H 0.01444 0.27893 0.40417 0.0
H1922 H 0.95671 0.31773 0.26999 0.0
H1923 H 0.02007 0.25997 0.27007 0.0
H1924 H -0.00626 0.29317 0.35557 0.0
H1925 H 0.98483 0.28487 0.18344 0.0
C1926 C 0.96694 0.3003 0.17473 0.0
C1927 C 0.95874 0.30981 0.19803 0.0
C1928 C -0.0005 0.28591 0.33666 0.0
C1929 C 0.98235 0.29323 0.25436 0.0
C1930 C 0.01158 0.27774 0.36442 0.0
C1931 C 0.01937 0.26816 0.34134 0.0
C1932 C -0.00496 0.28459 0.28512 0.0
C1933 C 0.01435 0.26713 0.28971 0.0
C1934 C 0.97863 0.29206 0.20255 0.0
C1935 C 0.9628 0.31065 0.25004 0.0
N1936 N 0.00262 0.27523 0.26342 0.0
N1937 N 0.97427 0.30249 0.27631 0.0
H1938 H 0.2198 1.00336 0.22041 0.0
H1939 H 0.22627 0.066 0.27524 0.0
H1940 H 0.2837 1.02372 0.16508 0.0
H1941 H 0.16325 0.04551 0.33271 0.0
H1942 H 0.2459 0.05087 0.23013 0.0
H1943 H 0.19721 1.01886 0.25718 0.0
C1944 C 0.22899 1.01108 0.21546 0.0
C1945 C 0.2539 1.01215 0.18967 0.0
C1946 C 0.2277 0.04969 0.25245 0.0
C1947 C 0.22813 1.03003 0.23241 0.0
C1948 C 0.21634 0.05837 0.27802 0.0
C1949 C 0.19308 0.05708 0.3083 0.0
C1950 C 0.21575 0.0396 0.2569 0.0
C1951 C 0.18141 0.0469 0.31065 0.0
C1952 C 0.21613 1.01995 0.23682 0.0
C1953 C 0.26484 1.02242 0.18522 0.0
N1954 N 0.19287 0.0386 0.28557 0.0
N1955 N 0.25199 1.0309 0.20641 0.0
H1956 H 0.04252 0.04303 0.94597 0.0
H1957 H 0.90615 1.03112 0.10195 0.0
H1958 H 0.97766 0.06585 0.96793 0.0
H1959 H 0.96991 1.00796 0.07734 0.0
H1960 H 0.931 0.04363 0.04942 0.0
H1961 H 0.01536 1.02982 0.99038 0.0
C1962 C 0.02257 0.04528 0.96004 0.0
C1963 C 0.01251 0.05562 0.95328 0.0
C1964 C 0.93951 1.03579 0.05524 0.0
C1965 C 0.98111 0.04047 1.00418 0.0
C1966 C 0.92536 1.02865 0.08546 0.0
C1967 C 0.93598 1.01847 0.09449 0.0
C1968 C 0.96464 1.0328 0.03389 0.0
C1969 C 0.96078 1.01567 0.07125 0.0
C1970 C 0.00699 0.0377 0.98524 0.0
C1971 C 0.98624 0.05799 0.97172 0.0
N1972 N 0.97434 1.02282 0.04238 0.0
N1973 N 0.97158 0.0505 0.99653 0.0
H1974 H 0.21306 0.30635 0.06774 0.0
H1975 H 0.2688 0.26291 0.87448 0.0
H1976 H 0.29684 0.30549 0.0165 0.0
H1977 H 0.19196 0.26035 0.95343 0.0
H1978 H 0.27722 0.27972 0.91678 0.0
H1979 H 0.20326 0.29077 0.01731 0.0
C1980 C 0.22954 0.3029 0.04618 0.0
C1981 C 0.25604 0.30725 0.04734 0.0
C1982 C 0.25847 0.27548 0.92459 0.0
C1983 C 0.24458 0.28933 0.98815 0.0
C1984 C 0.25358 0.26581 0.90044 0.0
C1985 C 0.22975 0.25993 0.91063 0.0
C1986 C 0.23933 0.27944 0.95899 0.0
C1987 C 0.21066 0.26442 0.94399 0.0
C1988 C 0.2238 0.29398 0.017 0.0
C1989 C 0.27613 0.30248 0.01701 0.0
N1990 N 0.21595 0.27383 0.96701 0.0
N1991 N 0.27002 0.29377 0.98888 0.0
H1992 H 0.00097 0.77101 0.90105 0.0
H1993 H 0.0078 0.80293 0.64197 0.0
H1994 H 0.03588 0.75803 0.76584 0.0
H1995 H 0.96338 0.81384 0.7716 0.0
H1996 H 0.02082 0.7869 0.68797 0.0
H1997 H -0.01031 0.78721 0.85559 0.0
C1998 C 0.00633 0.77153 0.86188 0.0
C1999 C 0.01936 0.76303 0.83749 0.0
C2000 C 0.00816 0.7928 0.7063 0.0
C2001 C 0.00658 0.78172 0.78498 0.0
C2002 C 0.00079 0.80197 0.68008 0.0
C2003 C 0.98432 0.80976 0.70273 0.0
C2004 C -0.00078 0.79139 0.7558 0.0
C2005 C 0.9757 0.80801 0.75219 0.0
C2006 C -0.0001 0.78083 0.83591 0.0
C2007 C 0.02614 0.76434 0.78668 0.0
N2008 N 0.98329 0.79906 0.777 0.0
N2009 N 0.01961 0.77346 0.7622 0.0
H2010 H 0.67946 0.06232 0.78154 0.0
H2011 H 0.78132 1.01499 0.709 0.0
H2012 H 0.76725 0.06363 0.80014 0.0
H2013 H 0.69583 1.01536 0.66636 0.0
H2014 H 0.77636 1.03291 0.74086 0.0
H2015 H 0.68471 0.04531 0.73819 0.0
C2016 C 0.69984 0.05912 0.77632 0.0
C2017 C 0.72288 0.06446 0.79535 0.0
C2018 C 0.7587 1.02908 0.72426 0.0
C2019 C 0.72901 0.04485 0.74595 0.0
C2020 C 0.76152 1.01877 0.70565 0.0
C2021 C 0.73891 1.01338 0.68509 0.0
C2022 C 0.73305 1.03416 0.72286 0.0
C2023 C 0.71385 1.01896 0.6825 0.0
C2024 C 0.70281 0.04936 0.75164 0.0
C2025 C 0.74875 0.05979 0.78742 0.0
N2026 N 0.71156 1.02895 0.70151 0.0
N2027 N 0.75105 0.05028 0.76375 0.0
H2028 H 0.69135 0.76003 0.04136 0.0
H2029 H 0.76862 0.81612 0.05444 0.0
H2030 H 0.7207 0.77691 0.91209 0.0
H2031 H 0.72721 0.80241 0.181 0.0
H2032 H 0.7546 0.80097 1.0035 0.0
H2033 H 0.70737 0.77465 0.09473 0.0
C2034 C 0.70118 0.76678 0.02418 0.0
C2035 C 0.70439 0.76724 0.97198 0.0
C2036 C 0.74861 0.80125 0.04246 0.0
C2037 C 0.72292 0.78401 0.03289 0.0
C2038 C 0.75682 0.80989 0.07175 0.0
C2039 C 0.74911 0.8106 0.12225 0.0
C2040 C 0.73266 0.79316 0.06368 0.0
C2041 C 0.73339 0.80229 0.14217 0.0
C2042 C 0.71023 0.77514 0.05464 0.0
C2043 C 0.71724 0.77624 0.95189 0.0
N2044 N 0.72573 0.79393 0.11294 0.0
N2045 N 0.72602 0.78421 0.98225 0.0
H2046 H 0.19645 0.56368 0.77543 0.0
H2047 H 0.27694 0.50883 0.73321 0.0
H2048 H 0.21863 0.54249 0.89571 0.0
H2049 H 0.26277 0.53194 0.61712 0.0
H2050 H 0.25322 0.52047 0.79265 0.0
H2051 H 0.21831 0.5516 0.71626 0.0
C2052 C 0.20589 0.55652 0.78959 0.0
C2053 C 0.20567 0.5542 0.84102 0.0
C2054 C 0.25536 0.52299 0.75415 0.0
C2055 C 0.23068 0.5402 0.77293 0.0
C2056 C 0.26882 0.51632 0.72015 0.0
C2057 C 0.27208 0.51941 0.67004 0.0
C2058 C 0.24487 0.5328 0.73792 0.0
C2059 C 0.26125 0.52927 0.65543 0.0
C2060 C 0.21833 0.54958 0.75563 0.0
C2061 C 0.21792 0.54464 0.85662 0.0
N2062 N 0.24815 0.53558 0.68908 0.0
N2063 N 0.22994 0.53803 0.82282 0.0
H2064 H -0.00774 0.51238 0.62502 0.0
H2065 H 0.96748 0.54762 0.38094 0.0
H2066 H 0.94044 0.5021 0.50362 0.0
H2067 H 0.02914 0.55434 0.49239 0.0
H2068 H 0.95809 0.53076 0.42266 0.0
H2069 H 0.00645 0.52756 0.57532 0.0
C2070 C 0.9838 0.51333 0.58782 0.0
C2071 C 0.96482 0.506 0.56877 0.0
C2072 C 0.97387 0.53588 0.43767 0.0
C2073 C 0.98117 0.52349 0.51107 0.0
C2074 C 0.97922 0.54555 0.41393 0.0
C2075 C -0.00104 0.55256 0.43333 0.0
C2076 C -0.01183 0.53318 0.48155 0.0
C2077 C 0.01377 0.54928 0.47581 0.0
C2078 C -0.00792 0.52199 0.55923 0.0
C2079 C 0.95508 0.50755 0.51977 0.0
N2080 N 0.00785 0.53993 0.49869 0.0
N2081 N 0.96312 0.51618 0.49281 0.0
H2082 H 0.28585 0.80241 0.56181 0.0
H2083 H 0.18053 0.76074 0.44001 0.0
H2084 H 0.19809 0.80683 0.5606 0.0
H2085 H 0.26836 0.75693 0.43859 0.0
H2086 H 0.18615 0.777 0.4896 0.0
H2087 H 0.27956 0.78519 0.52152 0.0
C2088 C 0.26526 0.7998 0.55342 0.0
C2089 C 0.24256 0.80624 0.56483 0.0
C2090 C 0.20419 0.77258 0.47851 0.0
C2091 C 0.23514 0.78635 0.51841 0.0
C2092 C 0.20095 0.76326 0.45037 0.0
C2093 C 0.22397 0.75748 0.43435 0.0
C2094 C 0.23065 0.77615 0.49102 0.0
C2095 C 0.24998 0.7612 0.44891 0.0
C2096 C 0.26166 0.78991 0.53042 0.0
C2097 C 0.21634 0.80223 0.5533 0.0
N2098 N 0.25258 0.77027 0.47608 0.0
N2099 N 0.21341 0.79263 0.53061 0.0
H2100 H 0.76536 0.52989 0.13166 0.0
H2101 H 0.75401 0.55673 0.40098 0.0
H2102 H 0.7874 0.51332 0.26683 0.0
H2103 H 0.71076 0.56863 0.27189 0.0
H2104 H 0.76768 0.54108 0.35275 0.0
H2105 H 0.74664 0.54437 0.18198 0.0
C2106 C 0.76629 0.5293 0.17203 0.0
C2107 C 0.77824 0.5204 0.19506 0.0
C2108 C 0.75502 0.54706 0.33502 0.0
C2109 C 0.75677 0.53705 0.2532 0.0
C2110 C 0.74732 0.55603 0.36247 0.0
C2111 C 0.73132 0.56406 0.34039 0.0
C2112 C 0.74708 0.54612 0.28467 0.0
C2113 C 0.72296 0.56264 0.2905 0.0
C2114 C 0.75541 0.53756 0.20077 0.0
C2115 C 0.77837 0.52001 0.24757 0.0
N2116 N 0.73119 0.55392 0.2642 0.0
N2117 N 0.7681 0.52827 0.27486 0.0
H2118 H 0.7513 0.29003 0.61931 0.0
H2119 H 0.75249 0.26658 0.34143 0.0
H2120 H 0.78324 0.30748 0.49396 0.0
H2121 H 0.70546 0.25302 0.46154 0.0
H2122 H 0.76482 0.2814 0.39617 0.0
H2123 H 0.73533 0.27628 0.56212 0.0
C2124 C 0.75504 0.29096 0.57967 0.0
C2125 C 0.76893 0.2999 0.56152 0.0
C2126 C 0.75166 0.27523 0.41048 0.0
C2127 C 0.7505 0.28408 0.49536 0.0
C2128 C 0.74471 0.26672 0.37931 0.0
C2129 C 0.72798 0.25848 0.39689 0.0
C2130 C 0.74211 0.27549 0.45998 0.0
C2131 C 0.71822 0.2592 0.44618 0.0
C2132 C 0.74572 0.28312 0.54693 0.0
C2133 C 0.77261 0.30075 0.50956 0.0
N2134 N 0.72561 0.26748 0.47603 0.0
N2135 N 0.7637 0.29289 0.47836 0.0
H2136 H 0.51297 0.31168 0.62026 0.0
H2137 H 0.47584 0.27629 0.85918 0.0
H2138 H 0.44886 0.32008 0.72405 0.0
H2139 H 0.54173 0.26929 0.7568 0.0
H2140 H 0.46612 0.29251 0.81225 0.0
H2141 H 0.52394 0.2963 0.6713 0.0
C2142 C 0.50124 0.31036 0.65393 0.0
C2143 C 0.47997 0.3173 0.66773 0.0
C2144 C 0.4828 0.28744 0.80029 0.0
C2145 C 0.49239 0.29945 0.72663 0.0
C2146 C 0.48836 0.27814 0.82706 0.0
C2147 C 0.50957 0.27127 0.81201 0.0
C2148 C 0.49848 0.28993 0.75792 0.0
C2149 C 0.52531 0.27427 0.77036 0.0
C2150 C 0.50749 0.3015 0.68308 0.0
C2151 C 0.46523 0.31494 0.71149 0.0
N2152 N 0.51932 0.28329 0.74477 0.0
N2153 N 0.47172 0.30623 0.73933 0.0
H2154 H 0.48247 0.06325 0.43612 0.0
H2155 H 0.47489 1.00266 0.52637 0.0
H2156 H 0.5476 0.04048 0.41638 0.0
H2157 H 0.41219 1.02583 0.55867 0.0
H2158 H 0.49927 1.01594 0.47744 0.0
H2159 H 0.454 0.04925 0.47255 0.0
C2160 C 0.49065 0.05529 0.43881 0.0
C2161 C 0.51758 0.05307 0.42357 0.0
C2162 C 0.48008 1.01812 0.49498 0.0
C2163 C 0.48522 0.03701 0.46557 0.0
C2164 C 0.46601 1.01048 0.5227 0.0
C2165 C 0.44146 1.0131 0.54713 0.0
C2166 C 0.46959 1.02848 0.49139 0.0
C2167 C 0.43124 1.02347 0.54128 0.0
C2168 C 0.47447 0.0473 0.45992 0.0
C2169 C 0.52717 0.04261 0.4284 0.0
N2170 N 0.44538 1.03077 0.51429 0.0
N2171 N 0.51111 1.03501 0.44909 0.0
H2172 H 0.44063 0.79153 0.1145 0.0
H2173 H 0.54782 0.78207 0.33842 0.0
H2174 H 0.48097 0.81688 0.19381 0.0
H2175 H 0.50106 0.75693 0.27002 0.0
H2176 H 0.52499 0.7948 0.28354 0.0
H2177 H 0.46367 0.77871 0.16891 0.0
C2178 C 0.45432 0.79442 0.14332 0.0
C2179 C 0.45879 0.80535 0.14936 0.0
C2180 C 0.51974 0.7865 0.28044 0.0
C2181 C 0.48541 0.79063 0.21214 0.0
C2182 C 0.53278 0.77919 0.31195 0.0
C2183 C 0.52642 0.76834 0.30935 0.0
C2184 C 0.50012 0.783 0.24565 0.0
C2185 C 0.50698 0.76515 0.27337 0.0
C2186 C 0.46745 0.78708 0.17454 0.0
C2187 C 0.47657 0.80858 0.18795 0.0
N2188 N 0.49454 0.77242 0.24316 0.0
N2189 N 0.48927 0.80127 0.2176 0.0
H2190 H 0.52636 0.51323 0.10366 0.0
H2191 H 0.4637 0.56274 0.95534 0.0
H2192 H 0.44308 0.51491 0.0487 0.0
H2193 H 0.55059 0.55837 0.97705 0.0
H2194 H 0.45525 0.5465 1.00157 0.0
H2195 H 0.53463 0.53083 0.06965 0.0
C2196 C 0.50968 0.51721 0.08474 0.0
C2197 C 0.48399 0.51228 0.07859 0.0
C2198 C 0.4762 0.54907 0.99645 0.0
C2199 C 0.49352 0.53272 0.03996 0.0
C2200 C 0.4811 0.55836 0.96975 0.0
C2201 C 0.508 0.56186 0.96122 0.0
C2202 C 0.49829 0.54316 0.01531 0.0
C2203 C 0.52956 0.55598 0.9825 0.0
C2204 C 0.51453 0.52734 0.06534 0.0
C2205 C 0.46325 0.51817 0.05454 0.0
N2206 N 0.52425 0.54687 0.00822 0.0
N2207 N 0.46853 0.52799 0.03601 0.0
H2208 H 0.04832 0.23421 0.58429 0.0
H2209 H 0.19098 0.22261 0.71916 0.0
H2210 H 0.12212 0.2261 0.50412 0.0
H2211 H 0.11661 0.23004 0.79902 0.0
H2212 H 0.16723 0.2255 0.64036 0.0
H2213 H 0.07404 0.23438 0.66212 0.0
C2214 C 0.07007 0.2325 0.58295 0.0
C2215 C 0.08305 0.23001 0.5375 0.0
C2216 C 0.15607 0.22657 0.67498 0.0
C2217 C 0.11272 0.23018 0.62732 0.0
C2218 C 0.16959 0.2249 0.72021 0.0
C2219 C 0.15565 0.22597 0.76595 0.0
C2220 C 0.12826 0.22929 0.67508 0.0
C2221 C 0.12811 0.2291 0.76471 0.0
C2222 C 0.08474 0.23262 0.62763 0.0
C2223 C 0.1113 0.22802 0.53826 0.0
N2224 N 0.11523 0.23056 0.71991 0.0
N2225 N 0.12518 0.22806 0.58263 0.0
H2226 H 0.13752 0.11221 0.52804 0.0
H2227 H 0.05907 0.07207 0.70825 0.0
H2228 H 0.10893 0.08169 0.4787 0.0
H2229 H 0.10097 0.10013 0.75939 0.0
H2230 H 0.07334 0.07597 0.62266 0.0
H2231 H 0.1174 0.10904 0.61019 0.0
C2232 C 0.12596 0.10501 0.53407 0.0
C2233 C 0.12452 0.09724 0.49663 0.0
C2234 C 0.07963 0.08122 0.65262 0.0
C2235 C 0.10272 0.0933 0.59117 0.0
C2236 C 0.07175 0.07895 0.70156 0.0
C2237 C 0.07902 0.08575 0.74104 0.0
C2238 C 0.09466 0.09044 0.64293 0.0
C2239 C 0.09522 0.09459 0.73022 0.0
C2240 C 0.11497 0.10311 0.58122 0.0
C2241 C 0.10999 0.08794 0.50644 0.0
N2242 N 0.10231 0.09673 0.68208 0.0
N2243 N 0.09994 0.08614 0.55315 0.0
H2244 H 0.87145 0.83514 0.27318 0.0
H2245 H 0.86021 0.83469 0.57084 0.0
H2246 H 0.7952 0.83486 0.35433 0.0
H2247 H 0.93625 0.83622 0.4894 0.0
H2248 H 0.83633 0.8306 0.49212 0.0
H2249 H 0.89584 0.83136 0.35166 0.0
C2250 C 0.85984 0.83404 0.30725 0.0
C2251 C 0.83141 0.83552 0.3076 0.0
C2252 C 0.85833 0.83165 0.49168 0.0
C2253 C 0.85894 0.83135 0.39726 0.0
C2254 C 0.87191 0.83393 0.53664 0.0
C2255 C 0.90006 0.83601 0.5363 0.0
C2256 C 0.87312 0.83147 0.44644 0.0
C2257 C 0.91436 0.83491 0.49104 0.0
C2258 C 0.87371 0.83194 0.35209 0.0
C2259 C 0.81726 0.834 0.35271 0.0
N2260 N 0.90071 0.83286 0.44788 0.0
N2261 N 0.83118 0.83216 0.39581 0.0
H2262 H 0.77443 0.96726 0.50018 0.0
H2263 H 0.87719 1.00054 0.33138 0.0
H2264 H 0.83157 0.99016 0.5593 0.0
H2265 H 0.83468 0.97284 0.27821 0.0
H2266 H 0.85254 0.99938 0.41045 0.0
H2267 H 0.78971 0.97135 0.41591 0.0
C2268 C 0.79021 0.97319 0.49551 0.0
C2269 C 0.80189 0.97834 0.53706 0.0
C2270 C 0.84814 0.99368 0.38124 0.0
C2271 C 0.81927 0.98311 0.44003 0.0
C2272 C 0.86193 0.9944 0.33591 0.0
C2273 C 0.85789 0.98676 0.29846 0.0
C2274 C 0.83031 0.98519 0.38936 0.0
C2275 C 0.8381 0.97894 0.30607 0.0
C2276 C 0.79885 0.97552 0.4472 0.0
C2277 C 0.82219 0.98594 0.52844 0.0
N2278 N 0.82529 0.97824 0.35116 0.0
N2279 N 0.83028 0.98809 0.48079 0.0
H2280 H 0.12602 0.7318 0.95748 0.0
H2281 H 0.11555 0.72913 0.25638 0.0
H2282 H 0.05344 0.72314 0.03973 0.0
H2283 H 0.18839 0.73915 0.17879 0.0
H2284 H 0.09079 0.72923 0.17671 0.0
H2285 H 0.14839 0.73634 0.03749 0.0
C2286 C 0.11481 0.73089 0.99211 0.0
C2287 C 0.088 0.72694 0.99184 0.0
C2288 C 0.11212 0.73156 0.17717 0.0
C2289 C 0.11312 0.73218 0.08298 0.0
C2290 C 0.12615 0.7316 0.22283 0.0
C2291 C 0.15413 0.734 0.22415 0.0
C2292 C 0.12623 0.73386 0.13257 0.0
C2293 C 0.16688 0.7371 0.17936 0.0
C2294 C 0.12748 0.73351 0.03771 0.0
C2295 C 0.07429 0.726 0.03785 0.0
N2296 N 0.15298 0.73678 0.13529 0.0
N2297 N 0.08701 0.72854 0.08128 0.0
H2298 H 0.03657 0.58567 0.24076 0.0
H2299 H 0.18295 0.58882 0.10993 0.0
H2300 H 0.11236 0.58809 0.3233 0.0
H2301 H 0.1067 0.58788 0.02782 0.0
H2302 H 0.15784 0.587 0.18776 0.0
H2303 H 0.06226 0.58459 0.16308 0.0
C2304 C 0.05874 0.58586 0.2426 0.0
C2305 C 0.07237 0.58707 0.28865 0.0
C2306 C 0.14654 0.58714 0.15283 0.0
C2307 C 0.102 0.58594 0.19921 0.0
C2308 C 0.16085 0.58821 0.10812 0.0
C2309 C 0.1469 0.58857 0.062 0.0
C2310 C 0.11793 0.58644 0.15186 0.0
C2311 C 0.11829 0.58767 0.0624 0.0
C2312 C 0.07338 0.58527 0.19806 0.0
C2313 C 0.10106 0.58715 0.28868 0.0
N2314 N 0.10474 0.58669 0.10669 0.0
N2315 N 0.11495 0.58672 0.24449 0.0
H2316 H 0.92435 0.3598 0.95934 0.0
H2317 H 0.81531 0.32435 0.81214 0.0
H2318 H 0.86921 0.33814 0.03208 0.0
H2319 H 0.86347 0.34851 0.74068 0.0
H2320 H 0.83819 0.32813 0.89137 0.0
H2321 H 0.90397 0.35529 0.87873 0.0
C2322 C 0.90763 0.35418 0.95838 0.0
C2323 C 0.8984 0.34934 1.00253 0.0
C2324 C 0.84411 0.33252 0.85837 0.0
C2325 C 0.87532 0.34397 0.90987 0.0
C2326 C 0.83131 0.33028 0.81297 0.0
C2327 C 0.83768 0.33609 0.76981 0.0
C2328 C 0.86337 0.34072 0.86094 0.0
C2329 C 0.85832 0.34375 0.77293 0.0
C2330 C 0.89613 0.35157 0.91222 0.0
C2331 C 0.87673 0.34214 0.99906 0.0
N2332 N 0.87026 0.34592 0.81798 0.0
N2333 N 0.86605 0.3396 0.9534 0.0
H2334 H 0.87485 0.46784 0.03643 0.0
H2335 H 0.88066 0.47975 0.74307 0.0
H2336 H 0.83867 0.49539 0.96747 0.0
H2337 H 0.93502 0.45741 0.81487 0.0
H2338 H 0.86326 0.48491 0.82567 0.0
H2339 H 0.89801 0.46376 0.95696 0.0
C2340 C 0.87275 0.47326 0.00522 0.0
C2341 C 0.8551 0.482 0.00835 0.0
C2342 C 0.87898 0.47886 0.82329 0.0
C2343 C 0.88016 0.47716 0.91725 0.0
C2344 C 0.8886 0.47583 0.77612 0.0
C2345 C 0.90923 0.46815 0.77218 0.0
C2346 C 0.88991 0.4741 0.86667 0.0
C2347 C 0.91912 0.46341 0.8163 0.0
C2348 C 0.88551 0.47084 0.95965 0.0
C2349 C 0.85228 0.48859 0.96643 0.0
N2350 N 0.90936 0.46644 0.86167 0.0
N2351 N 0.8643 0.48596 0.92245 0.0
H2352 H 0.63164 0.23767 0.92486 0.0
H2353 H 0.61888 0.24089 0.22113 0.0
H2354 H 0.55924 0.2483 1.00228 0.0
H2355 H 0.69347 0.23265 0.14379 0.0
H2356 H 0.59906 0.24667 0.14123 0.0
H2357 H 0.65748 0.23909 1.00362 0.0
C2358 C 0.62147 0.24066 0.95801 0.0
C2359 C 0.59331 0.24276 0.95744 0.0
C2360 C 0.61993 0.24374 0.14189 0.0
C2361 C 0.62224 0.24411 0.04757 0.0
C2362 C 0.63121 0.24045 0.18756 0.0
C2363 C 0.65763 0.2361 0.18899 0.0
C2364 C 0.63517 0.2426 0.09747 0.0
C2365 C 0.67278 0.23576 0.14433 0.0
C2366 C 0.63608 0.24136 1.00311 0.0
C2367 C 0.58093 0.24648 1.00149 0.0
N2368 N 0.66123 0.23882 0.10039 0.0
N2369 N 0.59533 0.24686 0.04491 0.0
H2370 H 0.69256 0.08348 0.03114 0.0
H2371 H 0.55496 0.07341 0.18251 0.0
H2372 H 0.61249 0.08652 0.96373 0.0
H2373 H 0.63025 0.08399 0.25126 0.0
H2374 H 0.57755 0.07324 0.10133 0.0
H2375 H 0.67129 0.07844 0.10983 0.0
C2376 C 0.67043 0.0829 0.03264 0.0
C2377 C 0.6542 0.08559 0.99102 0.0
C2378 C 0.58919 0.07547 0.13427 0.0
C2379 C 0.62981 0.07983 0.08131 0.0
C2380 C 0.57641 0.07554 0.18081 0.0
C2381 C 0.59068 0.07884 0.2239 0.0
C2382 C 0.61658 0.07857 0.13071 0.0
C2383 C 0.61843 0.08144 0.21911 0.0
C2384 C 0.65837 0.08006 0.07769 0.0
C2385 C 0.62572 0.08454 0.99494 0.0
N2386 N 0.63046 0.0813 0.17321 0.0
N2387 N 0.61434 0.08185 0.03969 0.0
H2388 H 0.42206 0.83438 0.89739 0.0
H2389 H 0.27933 0.84481 0.76048 0.0
H2390 H 0.34869 0.8437 0.9758 0.0
H2391 H 0.35388 0.83687 0.68226 0.0
H2392 H 0.30299 0.84251 0.83986 0.0
H2393 H 0.39605 0.83322 0.81999 0.0
C2394 C 0.40032 0.83612 0.89842 0.0
C2395 C 0.38756 0.83928 0.94312 0.0
C2396 C 0.3142 0.8412 0.80547 0.0
C2397 C 0.35757 0.83801 0.85387 0.0
C2398 C 0.30073 0.84252 0.7599 0.0
C2399 C 0.31474 0.84114 0.71441 0.0
C2400 C 0.34203 0.83849 0.80596 0.0
C2401 C 0.34232 0.83806 0.71632 0.0
C2402 C 0.38549 0.83544 0.85402 0.0
C2403 C 0.35931 0.84126 0.94219 0.0
N2404 N 0.35513 0.83692 0.76141 0.0
N2405 N 0.34528 0.8407 0.89804 0.0
H2406 H 0.342 0.98174 0.01608 0.0
H2407 H 0.33833 0.96778 0.72581 0.0
H2408 H 0.26988 0.96839 0.94712 0.0
H2409 H 0.38946 0.99218 0.78907 0.0
H2410 H 0.31309 0.96695 0.80563 0.0
H2411 H 0.3619 0.98408 0.93257 0.0
C2412 C 0.33047 0.97925 0.98344 0.0
C2413 C 0.30428 0.97491 0.98845 0.0
C2414 C 0.32951 0.97262 0.80148 0.0
C2415 C 0.32673 0.97754 0.89311 0.0
C2416 C 0.34359 0.97318 0.75582 0.0
C2417 C 0.36594 0.98004 0.75112 0.0
C2418 C 0.33829 0.97885 0.84229 0.0
C2419 C 0.37242 0.98673 0.79143 0.0
C2420 C 0.34167 0.98066 0.93582 0.0
C2421 C 0.29011 0.97185 0.94487 0.0
N2422 N 0.35899 0.98585 0.83549 0.0
N2423 N 0.30155 0.97316 0.89903 0.0
H2424 H 0.54897 0.73808 0.58286 0.0
H2425 H 0.69044 0.72312 0.71564 0.0
H2426 H 0.62093 0.72804 0.50188 0.0
H2427 H 0.61755 0.73196 0.79695 0.0
H2428 H 0.66544 0.72502 0.63742 0.0
H2429 H 0.57412 0.73636 0.66104 0.0
C2430 C 0.57019 0.73556 0.58144 0.0
C2431 C 0.58287 0.73317 0.53564 0.0
C2432 C 0.65483 0.72653 0.67225 0.0
C2433 C 0.6118 0.73112 0.62562 0.0
C2434 C 0.66907 0.72544 0.71712 0.0
C2435 C 0.65607 0.72744 0.76305 0.0
C2436 C 0.6273 0.72967 0.67299 0.0
C2437 C 0.62834 0.73033 0.76244 0.0
C2438 C 0.5845 0.73456 0.62628 0.0
C2439 C 0.6104 0.73 0.53628 0.0
N2440 N 0.61488 0.73141 0.71801 0.0
N2441 N 0.62394 0.72902 0.58068 0.0
H2442 H 0.62714 0.58919 0.79722 0.0
H2443 H 0.61758 0.58201 0.50461 0.0
H2444 H 0.55944 0.57343 0.72492 0.0
H2445 H 0.69335 0.58882 0.58163 0.0
H2446 H 0.59715 0.57705 0.58513 0.0
H2447 H 0.65379 0.58721 0.72015 0.0
C2448 C 0.61822 0.58501 0.76575 0.0
C2449 C 0.59095 0.58161 0.76718 0.0
C2450 C 0.61841 0.57946 0.58418 0.0
C2451 C 0.62084 0.57961 0.67856 0.0
C2452 C 0.63004 0.58226 0.53819 0.0
C2453 C 0.657 0.58601 0.53653 0.0
C2454 C 0.63384 0.58052 0.62858 0.0
C2455 C 0.67228 0.58617 0.58124 0.0
C2456 C 0.63331 0.58396 0.72153 0.0
C2457 C 0.5803 0.57633 0.72508 0.0
N2458 N 0.66038 0.58365 0.62543 0.0
N2459 N 0.59502 0.57569 0.68218 0.0
H2460 H 0.44609 0.33896 0.42015 0.0
H2461 H 0.31161 0.32053 0.27673 0.0
H2462 H 0.36892 0.33264 0.49241 0.0
H2463 H 0.38196 0.33405 0.204 0.0
H2464 H 0.33748 0.31955 0.35486 0.0
H2465 H 0.42746 0.33222 0.34177 0.0
C2466 C 0.42526 0.33603 0.41974 0.0
C2467 C 0.40882 0.33657 0.46278 0.0
C2468 C 0.34753 0.32249 0.3216 0.0
C2469 C 0.38742 0.3288 0.37269 0.0
C2470 C 0.33289 0.32296 0.27682 0.0
C2471 C 0.34457 0.32753 0.23405 0.0
C2472 C 0.37405 0.32667 0.3237 0.0
C2473 C 0.37216 0.33051 0.23611 0.0
C2474 C 0.4147 0.33216 0.37485 0.0
C2475 C 0.38222 0.33246 0.46007 0.0
N2476 N 0.38583 0.33024 0.28062 0.0
N2477 N 0.37219 0.32888 0.41551 0.0
H2478 H 0.31533 0.49801 0.40411 0.0
H2479 H 0.44129 0.47098 0.26323 0.0
H2480 H 0.37657 0.47905 0.47901 0.0
H2481 H 0.37618 0.48775 0.18715 0.0
H2482 H 0.42088 0.47561 0.34319 0.0
H2483 H 0.34087 0.4964 0.32634 0.0
C2484 C 0.33446 0.49363 0.40433 0.0
C2485 C 0.34378 0.48857 0.44798 0.0
C2486 C 0.41107 0.47832 0.30913 0.0
C2487 C 0.37294 0.48656 0.35858 0.0
C2488 C 0.42266 0.47567 0.26323 0.0
C2489 C 0.41029 0.47892 0.21818 0.0
C2490 C 0.38683 0.48428 0.31035 0.0
C2491 C 0.38631 0.48502 0.22086 0.0
C2492 C 0.34896 0.49268 0.35978 0.0
C2493 C 0.36874 0.48309 0.44623 0.0
N2494 N 0.37528 0.48747 0.26623 0.0
N2495 N 0.38233 0.48212 0.40197 0.0
loop_
_geom_bond_atom_site_label_1
_geom_bond_atom_site_label_2
_geom_bond_distance
_geom_bond_site_symmetry_2
_ccdc_geom_bond_type
C0 C1 1.351 . S
C0 N3 1.368 . S
C0 H5 0.931 . S
C1 C0 1.351 . S
C1 N2 1.373 . S
C1 H29 0.930 . S
N2 C1 1.373 . S
N2 C4 1.340 . S
N3 C0 1.368 . S
N3 C4 1.321 . S
N3 Co6 2.135 . S
C4 N2 1.340 . S
C4 N3 1.321 . S
C4 H28 0.930 . S
H5 C0 0.931 . S
Co6 N3 2.135 . S
Co6 N9 2.121 . S
Co6 O14 2.055 . S
Co6 O17 2.039 . S
Co6 N20 2.140 . S
C7 O8 1.227 . S
C7 O17 1.265 . S
O8 C7 1.227 . S
N9 Co6 2.121 . S
N9 C11 1.375 . S
N9 C12 1.313 . S
C10 C11 1.338 . S
C10 N13 1.377 . S
C10 H30 0.930 . S
C11 N9 1.375 . S
C11 C10 1.338 . S
C11 H15 0.931 . S
C12 N9 1.313 . S
C12 N13 1.344 . S
C12 H16 0.930 . S
N13 C10 1.377 . S
N13 C12 1.344 . S
O14 Co6 2.055 . S
O14 C18 1.253 . S
H15 C11 0.931 . S
H16 C12 0.930 . S
O17 Co6 2.039 . S
O17 C7 1.265 . S
C18 O14 1.253 . S
C18 O19 1.227 . S
O19 C18 1.227 . S
N20 Co6 2.140 . S
N20 C23 1.346 . S
N20 C24 1.345 . S
C21 C22 1.387 . S
C21 C25 1.391 . S
C22 C21 1.387 . S
C22 C23 1.369 1_655 S
C22 H31 0.929 . S
C23 N20 1.346 . S
C23 C22 1.369 1_455 S
C23 H26 0.928 . S
C24 N20 1.345 . S
C24 C25 1.371 1_455 S
C24 H27 0.931 . S
C25 C21 1.391 . S
C25 C24 1.371 1_655 S
C25 H32 0.930 . S
H26 C23 0.928 . S
H27 C24 0.931 . S
H28 C4 0.930 . S
H29 C1 0.930 . S
H30 C10 0.930 . S
H31 C22 0.929 . S
H32 C25 0.930 . S
C33 C34 1.351 . S
C33 N36 1.368 . S
C33 H38 0.931 . S
C34 C33 1.351 . S
C34 N35 1.373 . S
C34 H62 0.930 . S
N35 C34 1.373 . S
N35 C37 1.340 . S
N36 C33 1.368 . S
N36 C37 1.321 . S
N36 Co39 2.135 . S
C37 N35 1.340 . S
C37 N36 1.321 . S
C37 H61 0.930 . S
H38 C33 0.931 . S
Co39 N36 2.135 . S
Co39 N42 2.121 . S
Co39 O47 2.055 . S
Co39 O50 2.039 . S
Co39 N53 2.140 . S
C40 O41 1.227 . S
C40 O50 1.265 . S
O41 C40 1.227 . S
N42 Co39 2.121 . S
N42 C44 1.375 . S
N42 C45 1.313 . S
C43 C44 1.338 . S
C43 N46 1.377 . S
C43 H63 0.930 . S
C44 N42 1.375 . S
C44 C43 1.338 . S
C44 H48 0.931 . S
C45 N42 1.313 . S
C45 N46 1.344 . S
C45 H49 0.930 . S
N46 C43 1.377 . S
N46 C45 1.344 . S
O47 Co39 2.055 . S
O47 C51 1.253 . S
H48 C44 0.931 . S
H49 C45 0.930 . S
O50 Co39 2.039 . S
O50 C40 1.265 . S
C51 O47 1.253 . S
C51 O52 1.227 . S
O52 C51 1.227 . S
N53 Co39 2.140 . S
N53 C56 1.346 . S
N53 C57 1.345 . S
C54 C55 1.387 . S
C54 C58 1.391 . S
C55 C54 1.387 . S
C55 C56 1.369 . S
C55 H64 0.929 . S
C56 N53 1.346 . S
C56 C55 1.369 . S
C56 H59 0.928 . S
C57 N53 1.345 . S
C57 C58 1.371 . S
C57 H60 0.931 . S
C58 C54 1.391 . S
C58 C57 1.371 . S
C58 H65 0.930 . S
H59 C56 0.928 . S
H60 C57 0.931 . S
H61 C37 0.930 . S
H62 C34 0.930 . S
H63 C43 0.930 . S
H64 C55 0.929 . S
H65 C58 0.930 . S
C66 C67 1.351 . S
C66 N69 1.368 . S
C66 H71 0.931 . S
C67 C66 1.351 . S
C67 N68 1.373 . S
C67 H95 0.930 . S
N68 C67 1.373 . S
N68 C70 1.340 . S
N69 C66 1.368 . S
N69 C70 1.321 . S
N69 Co72 2.135 . S
C70 N68 1.340 . S
C70 N69 1.321 . S
C70 H94 0.930 . S
H71 C66 0.931 . S
Co72 N69 2.135 . S
Co72 N75 2.121 . S
Co72 O80 2.055 . S
Co72 O83 2.039 . S
Co72 N86 2.140 . S
C73 O74 1.227 . S
C73 O83 1.265 . S
O74 C73 1.227 . S
N75 Co72 2.121 . S
N75 C77 1.375 . S
N75 C78 1.313 . S
C76 C77 1.338 . S
C76 N79 1.377 . S
C76 H96 0.930 . S
C77 N75 1.375 . S
C77 C76 1.338 . S
C77 H81 0.931 . S
C78 N75 1.313 . S
C78 N79 1.344 . S
C78 H82 0.930 . S
N79 C76 1.377 . S
N79 C78 1.344 . S
O80 Co72 2.055 . S
O80 C84 1.253 . S
H81 C77 0.931 . S
H82 C78 0.930 . S
O83 Co72 2.039 . S
O83 C73 1.265 . S
C84 O80 1.253 . S
C84 O85 1.227 . S
O85 C84 1.227 . S
N86 Co72 2.140 . S
N86 C89 1.346 . S
N86 C90 1.345 . S
C87 C88 1.387 . S
C87 C91 1.391 . S
C88 C87 1.387 . S
C88 C89 1.369 1_655 S
C88 H97 0.929 . S
C89 N86 1.346 . S
C89 C88 1.369 1_455 S
C89 H92 0.928 . S
C90 N86 1.345 . S
C90 C91 1.371 1_455 S
C90 H93 0.931 . S
C91 C87 1.391 . S
C91 C90 1.371 1_655 S
C91 H98 0.930 . S
H92 C89 0.928 . S
H93 C90 0.931 . S
H94 C70 0.930 . S
H95 C67 0.930 . S
H96 C76 0.930 . S
H97 C88 0.929 . S
H98 C91 0.930 . S
C99 C100 1.351 . S
C99 N102 1.368 . S
C99 H104 0.931 . S
C100 C99 1.351 . S
C100 N101 1.373 . S
C100 H128 0.930 . S
N101 C100 1.373 . S
N101 C103 1.340 . S
N102 C99 1.368 . S
N102 C103 1.321 . S
N102 Co105 2.135 . S
C103 N101 1.340 . S
C103 N102 1.321 . S
C103 H127 0.930 . S
H104 C99 0.931 . S
Co105 N102 2.135 . S
Co105 N108 2.121 . S
Co105 O113 2.055 . S
Co105 O116 2.039 . S
Co105 N119 2.140 . S
C106 O107 1.227 . S
C106 O116 1.265 . S
O107 C106 1.227 . S
N108 Co105 2.121 . S
N108 C110 1.375 . S
N108 C111 1.313 . S
C109 C110 1.338 . S
C109 N112 1.377 . S
C109 H129 0.930 . S
C110 N108 1.375 . S
C110 C109 1.338 . S
C110 H114 0.931 . S
C111 N108 1.313 . S
C111 N112 1.344 . S
C111 H115 0.930 . S
N112 C109 1.377 . S
N112 C111 1.344 . S
O113 Co105 2.055 . S
O113 C117 1.253 . S
H114 C110 0.931 . S
H115 C111 0.930 . S
O116 Co105 2.039 . S
O116 C106 1.265 . S
C117 O113 1.253 . S
C117 O118 1.227 . S
O118 C117 1.227 . S
N119 Co105 2.140 . S
N119 C122 1.346 . S
N119 C123 1.345 . S
C120 C121 1.387 . S
C120 C124 1.391 . S
C121 C120 1.387 . S
C121 C122 1.369 . S
C121 H130 0.929 . S
C122 N119 1.346 . S
C122 C121 1.369 . S
C122 H125 0.928 . S
C123 N119 1.345 . S
C123 C124 1.371 . S
C123 H126 0.931 . S
C124 C120 1.391 . S
C124 C123 1.371 . S
C124 H131 0.930 . S
H125 C122 0.928 . S
H126 C123 0.931 . S
H127 C103 0.930 . S
H128 C100 0.930 . S
H129 C109 0.930 . S
H130 C121 0.929 . S
H131 C124 0.930 . S
C132 C133 1.351 . S
C132 N135 1.368 . S
C132 H137 0.931 . S
C133 C132 1.351 . S
C133 N134 1.373 . S
C133 H161 0.930 . S
N134 C133 1.373 . S
N134 C136 1.340 . S
N135 C132 1.368 . S
N135 C136 1.321 . S
N135 Co138 2.135 . S
C136 N134 1.340 . S
C136 N135 1.321 . S
C136 H160 0.930 . S
H137 C132 0.931 . S
Co138 N135 2.135 . S
Co138 N141 2.121 . S
Co138 O146 2.055 . S
Co138 O149 2.039 . S
Co138 N152 2.140 . S
C139 O140 1.227 . S
C139 O149 1.265 . S
O140 C139 1.227 . S
N141 Co138 2.121 . S
N141 C143 1.375 . S
N141 C144 1.313 . S
C142 C143 1.338 . S
C142 N145 1.377 . S
C142 H162 0.930 . S
C143 N141 1.375 . S
C143 C142 1.338 . S
C143 H147 0.931 . S
C144 N141 1.313 . S
C144 N145 1.344 . S
C144 H148 0.930 . S
N145 C142 1.377 . S
N145 C144 1.344 . S
O146 Co138 2.055 . S
O146 C150 1.253 . S
H147 C143 0.931 . S
H148 C144 0.930 . S
O149 Co138 2.039 . S
O149 C139 1.265 . S
C150 O146 1.253 . S
C150 O151 1.227 . S
O151 C150 1.227 . S
N152 Co138 2.140 . S
N152 C155 1.346 . S
N152 C156 1.345 . S
C153 C154 1.387 . S
C153 C157 1.391 . S
C154 C153 1.387 . S
C154 C155 1.369 1_455 S
C154 H163 0.929 . S
C155 N152 1.346 . S
C155 C154 1.369 1_655 S
C155 H158 0.928 . S
C156 N152 1.345 . S
C156 C157 1.371 1_655 S
C156 H159 0.931 . S
C157 C153 1.391 . S
C157 C156 1.371 1_455 S
C157 H164 0.930 . S
H158 C155 0.928 . S
H159 C156 0.931 . S
H160 C136 0.930 . S
H161 C133 0.930 . S
H162 C142 0.930 . S
H163 C154 0.929 . S
H164 C157 0.930 . S
C165 C166 1.351 . S
C165 N168 1.368 . S
C165 H170 0.931 . S
C166 C165 1.351 . S
C166 N167 1.373 . S
C166 H194 0.930 . S
N167 C166 1.373 . S
N167 C169 1.340 . S
N168 C165 1.368 . S
N168 C169 1.321 . S
N168 Co171 2.135 . S
C169 N167 1.340 . S
C169 N168 1.321 . S
C169 H193 0.930 . S
H170 C165 0.931 . S
Co171 N168 2.135 . S
Co171 N174 2.121 . S
Co171 O179 2.055 . S
Co171 O182 2.039 . S
Co171 N185 2.140 . S
C172 O173 1.227 . S
C172 O182 1.265 . S
O173 C172 1.227 . S
N174 Co171 2.121 . S
N174 C176 1.375 . S
N174 C177 1.313 . S
C175 C176 1.338 . S
C175 N178 1.377 . S
C175 H195 0.930 . S
C176 N174 1.375 . S
C176 C175 1.338 . S
C176 H180 0.931 . S
C177 N174 1.313 . S
C177 N178 1.344 . S
C177 H181 0.930 . S
N178 C175 1.377 . S
N178 C177 1.344 . S
O179 Co171 2.055 . S
O179 C183 1.253 . S
H180 C176 0.931 . S
H181 C177 0.930 . S
O182 Co171 2.039 . S
O182 C172 1.265 . S
C183 O179 1.253 . S
C183 O184 1.227 . S
O184 C183 1.227 . S
N185 Co171 2.140 . S
N185 C188 1.346 . S
N185 C189 1.345 . S
C186 C187 1.387 . S
C186 C190 1.391 . S
C187 C186 1.387 . S
C187 C188 1.369 . S
C187 H196 0.929 . S
C188 N185 1.346 . S
C188 C187 1.369 . S
C188 H191 0.928 . S
C189 N185 1.345 . S
C189 C190 1.371 . S
C189 H192 0.931 . S
C190 C186 1.391 . S
C190 C189 1.371 . S
C190 H197 0.930 . S
H191 C188 0.928 . S
H192 C189 0.931 . S
H193 C169 0.930 . S
H194 C166 0.930 . S
H195 C175 0.930 . S
H196 C187 0.929 . S
H197 C190 0.930 . S
C198 C199 1.351 . S
C198 N201 1.368 . S
C198 H203 0.931 . S
C199 C198 1.351 . S
C199 N200 1.373 . S
C199 H227 0.930 . S
N200 C199 1.373 . S
N200 C202 1.340 . S
N201 C198 1.368 . S
N201 C202 1.321 . S
N201 Co204 2.135 . S
C202 N200 1.340 . S
C202 N201 1.321 . S
C202 H226 0.930 . S
H203 C198 0.931 . S
Co204 N201 2.135 . S
Co204 N207 2.121 . S
Co204 O212 2.055 . S
Co204 O215 2.039 . S
Co204 N218 2.140 . S
C205 O206 1.227 . S
C205 O215 1.265 . S
O206 C205 1.227 . S
N207 Co204 2.121 . S
N207 C209 1.375 . S
N207 C210 1.313 . S
C208 C209 1.338 . S
C208 N211 1.377 . S
C208 H228 0.930 . S
C209 N207 1.375 . S
C209 C208 1.338 . S
C209 H213 0.931 . S
C210 N207 1.313 . S
C210 N211 1.344 . S
C210 H214 0.930 . S
N211 C208 1.377 . S
N211 C210 1.344 . S
O212 Co204 2.055 . S
O212 C216 1.253 . S
H213 C209 0.931 . S
H214 C210 0.930 . S
O215 Co204 2.039 . S
O215 C205 1.265 . S
C216 O212 1.253 . S
C216 O217 1.227 . S
O217 C216 1.227 . S
N218 Co204 2.140 . S
N218 C221 1.346 . S
N218 C222 1.345 . S
C219 C220 1.387 . S
C219 C223 1.391 . S
C220 C219 1.387 . S
C220 C221 1.369 1_455 S
C220 H229 0.929 . S
C221 N218 1.346 . S
C221 C220 1.369 1_655 S
C221 H224 0.928 . S
C222 N218 1.345 . S
C222 C223 1.371 1_655 S
C222 H225 0.931 . S
C223 C219 1.391 . S
C223 C222 1.371 1_455 S
C223 H230 0.930 . S
H224 C221 0.928 . S
H225 C222 0.931 . S
H226 C202 0.930 . S
H227 C199 0.930 . S
H228 C208 0.930 . S
H229 C220 0.929 . S
H230 C223 0.930 . S
C231 C232 1.351 . S
C231 N234 1.368 . S
C231 H236 0.931 . S
C232 C231 1.351 . S
C232 N233 1.373 . S
C232 H260 0.930 . S
N233 C232 1.373 . S
N233 C235 1.340 . S
N234 C231 1.368 . S
N234 C235 1.321 . S
N234 Co237 2.135 . S
C235 N233 1.340 . S
C235 N234 1.321 . S
C235 H259 0.930 . S
H236 C231 0.931 . S
Co237 N234 2.135 . S
Co237 N240 2.121 . S
Co237 O245 2.055 . S
Co237 O248 2.039 . S
Co237 N251 2.140 . S
C238 O239 1.227 . S
C238 O248 1.265 . S
O239 C238 1.227 . S
N240 Co237 2.121 . S
N240 C242 1.375 . S
N240 C243 1.313 . S
C241 C242 1.338 . S
C241 N244 1.377 . S
C241 H261 0.930 . S
C242 N240 1.375 . S
C242 C241 1.338 . S
C242 H246 0.931 . S
C243 N240 1.313 . S
C243 N244 1.344 . S
C243 H247 0.930 . S
N244 C241 1.377 . S
N244 C243 1.344 . S
O245 Co237 2.055 . S
O245 C249 1.253 . S
H246 C242 0.931 . S
H247 C243 0.930 . S
O248 Co237 2.039 . S
O248 C238 1.265 . S
C249 O245 1.253 . S
C249 O250 1.227 . S
O250 C249 1.227 . S
N251 Co237 2.140 . S
N251 C254 1.346 . S
N251 C255 1.345 . S
C252 C253 1.387 . S
C252 C256 1.391 . S
C253 C252 1.387 . S
C253 C254 1.369 . S
C253 H262 0.929 . S
C254 N251 1.346 . S
C254 C253 1.369 . S
C254 H257 0.928 . S
C255 N251 1.345 . S
C255 C256 1.371 . S
C255 H258 0.931 . S
C256 C252 1.391 . S
C256 C255 1.371 . S
C256 H263 0.930 . S
H257 C254 0.928 . S
H258 C255 0.931 . S
H259 C235 0.930 . S
H260 C232 0.930 . S
H261 C241 0.930 . S
H262 C253 0.929 . S
H263 C256 0.930 . S
C264 C265 1.351 . S
C264 N267 1.368 . S
C264 H269 0.931 . S
C265 C264 1.351 . S
C265 N266 1.373 . S
C265 H293 0.930 . S
N266 C265 1.373 . S
N266 C268 1.340 . S
N267 C264 1.368 . S
N267 C268 1.321 . S
N267 Co270 2.135 . S
C268 N266 1.340 . S
C268 N267 1.321 . S
C268 H292 0.930 . S
H269 C264 0.931 . S
Co270 N267 2.135 . S
Co270 N273 2.121 . S
Co270 O278 2.055 . S
Co270 O281 2.039 . S
Co270 N284 2.140 . S
C271 O272 1.227 . S
C271 O281 1.265 . S
O272 C271 1.227 . S
N273 Co270 2.121 . S
N273 C275 1.375 . S
N273 C276 1.313 . S
C274 C275 1.338 . S
C274 N277 1.377 . S
C274 H294 0.930 . S
C275 N273 1.375 . S
C275 C274 1.338 . S
C275 H279 0.931 . S
C276 N273 1.313 . S
C276 N277 1.344 . S
C276 H280 0.930 . S
N277 C274 1.377 . S
N277 C276 1.344 . S
O278 Co270 2.055 . S
O278 C282 1.253 . S
H279 C275 0.931 . S
H280 C276 0.930 . S
O281 Co270 2.039 . S
O281 C271 1.265 . S
C282 O278 1.253 . S
C282 O283 1.227 . S
O283 C282 1.227 . S
N284 Co270 2.140 . S
N284 C287 1.346 . S
N284 C288 1.345 . S
C285 C286 1.387 . S
C285 C289 1.391 . S
C286 C285 1.387 . S
C286 C287 1.369 1_655 S
C286 H295 0.929 . S
C287 N284 1.346 . S
C287 C286 1.369 1_455 S
C287 H290 0.928 . S
C288 N284 1.345 . S
C288 C289 1.371 1_455 S
C288 H291 0.931 . S
C289 C285 1.391 . S
C289 C288 1.371 1_655 S
C289 H296 0.930 . S
H290 C287 0.928 . S
H291 C288 0.931 . S
H292 C268 0.930 . S
H293 C265 0.930 . S
H294 C274 0.930 . S
H295 C286 0.929 . S
H296 C289 0.930 . S
C297 C298 1.351 . S
C297 N300 1.368 . S
C297 H302 0.931 . S
C298 C297 1.351 . S
C298 N299 1.373 . S
C298 H326 0.930 . S
N299 C298 1.373 . S
N299 C301 1.340 . S
N300 C297 1.368 . S
N300 C301 1.321 . S
N300 Co303 2.135 . S
C301 N299 1.340 . S
C301 N300 1.321 . S
C301 H325 0.930 . S
H302 C297 0.931 . S
Co303 N300 2.135 . S
Co303 N306 2.121 . S
Co303 O311 2.055 . S
Co303 O314 2.039 . S
Co303 N317 2.140 . S
C304 O305 1.227 . S
C304 O314 1.265 . S
O305 C304 1.227 . S
N306 Co303 2.121 . S
N306 C308 1.375 . S
N306 C309 1.313 . S
C307 C308 1.338 . S
C307 N310 1.377 . S
C307 H327 0.930 . S
C308 N306 1.375 . S
C308 C307 1.338 . S
C308 H312 0.931 . S
C309 N306 1.313 . S
C309 N310 1.344 . S
C309 H313 0.930 . S
N310 C307 1.377 . S
N310 C309 1.344 . S
O311 Co303 2.055 . S
O311 C315 1.253 . S
H312 C308 0.931 . S
H313 C309 0.930 . S
O314 Co303 2.039 . S
O314 C304 1.265 . S
C315 O311 1.253 . S
C315 O316 1.227 . S
O316 C315 1.227 . S
N317 Co303 2.140 . S
N317 C320 1.346 . S
N317 C321 1.345 . S
C318 C319 1.387 . S
C318 C322 1.391 . S
C319 C318 1.387 . S
C319 C320 1.369 . S
C319 H328 0.929 . S
C320 N317 1.346 . S
C320 C319 1.369 . S
C320 H323 0.928 . S
C321 N317 1.345 . S
C321 C322 1.371 . S
C321 H324 0.931 . S
C322 C318 1.391 . S
C322 C321 1.371 . S
C322 H329 0.930 . S
H323 C320 0.928 . S
H324 C321 0.931 . S
H325 C301 0.930 . S
H326 C298 0.930 . S
H327 C307 0.930 . S
H328 C319 0.929 . S
H329 C322 0.930 . S
C330 C331 1.351 . S
C330 N333 1.368 . S
C330 H335 0.931 . S
C331 C330 1.351 . S
C331 N332 1.373 . S
C331 H359 0.930 . S
N332 C331 1.373 . S
N332 C334 1.340 . S
N333 C330 1.368 . S
N333 C334 1.321 . S
N333 Co336 2.135 . S
C334 N332 1.340 . S
C334 N333 1.321 . S
C334 H358 0.930 . S
H335 C330 0.931 . S
Co336 N333 2.135 . S
Co336 N339 2.121 . S
Co336 O344 2.055 . S
Co336 O347 2.039 . S
Co336 N350 2.140 . S
C337 O338 1.227 . S
C337 O347 1.265 . S
O338 C337 1.227 . S
N339 Co336 2.121 . S
N339 C341 1.375 . S
N339 C342 1.313 . S
C340 C341 1.338 . S
C340 N343 1.377 . S
C340 H360 0.930 . S
C341 N339 1.375 . S
C341 C340 1.338 . S
C341 H345 0.931 . S
C342 N339 1.313 . S
C342 N343 1.344 . S
C342 H346 0.930 . S
N343 C340 1.377 . S
N343 C342 1.344 . S
O344 Co336 2.055 . S
O344 C348 1.253 . S
H345 C341 0.931 . S
H346 C342 0.930 . S
O347 Co336 2.039 . S
O347 C337 1.265 . S
C348 O344 1.253 . S
C348 O349 1.227 . S
O349 C348 1.227 . S
N350 Co336 2.140 . S
N350 C353 1.346 . S
N350 C354 1.345 . S
C351 C352 1.387 . S
C351 C355 1.391 . S
C352 C351 1.387 . S
C352 C353 1.369 1_655 S
C352 H361 0.929 . S
C353 N350 1.346 . S
C353 C352 1.369 1_455 S
C353 H356 0.928 . S
C354 N350 1.345 . S
C354 C355 1.371 1_455 S
C354 H357 0.931 . S
C355 C351 1.391 . S
C355 C354 1.371 1_655 S
C355 H362 0.930 . S
H356 C353 0.928 . S
H357 C354 0.931 . S
H358 C334 0.930 . S
H359 C331 0.930 . S
H360 C340 0.930 . S
H361 C352 0.929 . S
H362 C355 0.930 . S
C363 C364 1.351 . S
C363 N366 1.368 . S
C363 H368 0.931 . S
C364 C363 1.351 . S
C364 N365 1.373 . S
C364 H392 0.930 . S
N365 C364 1.373 . S
N365 C367 1.340 . S
N366 C363 1.368 . S
N366 C367 1.321 . S
N366 Co369 2.135 . S
C367 N365 1.340 . S
C367 N366 1.321 . S
C367 H391 0.930 . S
H368 C363 0.931 . S
Co369 N366 2.135 . S
Co369 N372 2.121 . S
Co369 O377 2.055 . S
Co369 O380 2.039 . S
Co369 N383 2.140 . S
C370 O371 1.227 . S
C370 O380 1.265 . S
O371 C370 1.227 . S
N372 Co369 2.121 . S
N372 C374 1.375 . S
N372 C375 1.313 . S
C373 C374 1.338 . S
C373 N376 1.377 . S
C373 H393 0.930 . S
C374 N372 1.375 . S
C374 C373 1.338 . S
C374 H378 0.931 . S
C375 N372 1.313 . S
C375 N376 1.344 . S
C375 H379 0.930 . S
N376 C373 1.377 . S
N376 C375 1.344 . S
O377 Co369 2.055 . S
O377 C381 1.253 . S
H378 C374 0.931 . S
H379 C375 0.930 . S
O380 Co369 2.039 . S
O380 C370 1.265 . S
C381 O377 1.253 . S
C381 O382 1.227 . S
O382 C381 1.227 . S
N383 Co369 2.140 . S
N383 C386 1.346 . S
N383 C387 1.345 . S
C384 C385 1.387 . S
C384 C388 1.391 . S
C385 C384 1.387 . S
C385 C386 1.369 . S
C385 H394 0.929 . S
C386 N383 1.346 . S
C386 C385 1.369 . S
C386 H389 0.928 . S
C387 N383 1.345 . S
C387 C388 1.371 . S
C387 H390 0.931 . S
C388 C384 1.391 . S
C388 C387 1.371 . S
C388 H395 0.930 . S
H389 C386 0.928 . S
H390 C387 0.931 . S
H391 C367 0.930 . S
H392 C364 0.930 . S
H393 C373 0.930 . S
H394 C385 0.929 . S
H395 C388 0.930 . S
C396 C397 1.351 . S
C396 N399 1.368 . S
C396 H401 0.931 . S
C397 C396 1.351 . S
C397 N398 1.373 . S
C397 H425 0.930 . S
N398 C397 1.373 . S
N398 C400 1.340 . S
N399 C396 1.368 . S
N399 C400 1.321 . S
N399 Co402 2.135 . S
C400 N398 1.340 . S
C400 N399 1.321 . S
C400 H424 0.930 . S
H401 C396 0.931 . S
Co402 N399 2.135 . S
Co402 N405 2.121 . S
Co402 O410 2.055 . S
Co402 O413 2.039 . S
Co402 N416 2.140 . S
C403 O404 1.227 . S
C403 O413 1.265 . S
O404 C403 1.227 . S
N405 Co402 2.121 . S
N405 C407 1.375 . S
N405 C408 1.313 . S
C406 C407 1.338 . S
C406 N409 1.377 . S
C406 H426 0.930 . S
C407 N405 1.375 . S
C407 C406 1.338 . S
C407 H411 0.931 . S
C408 N405 1.313 . S
C408 N409 1.344 . S
C408 H412 0.930 . S
N409 C406 1.377 . S
N409 C408 1.344 . S
O410 Co402 2.055 . S
O410 C414 1.253 . S
H411 C407 0.931 . S
H412 C408 0.930 . S
O413 Co402 2.039 . S
O413 C403 1.265 . S
C414 O410 1.253 . S
C414 O415 1.227 . S
O415 C414 1.227 . S
N416 Co402 2.140 . S
N416 C419 1.346 . S
N416 C420 1.345 . S
C417 C418 1.387 . S
C417 C421 1.391 . S
C418 C417 1.387 . S
C418 C419 1.369 1_455 S
C418 H427 0.929 . S
C419 N416 1.346 . S
C419 C418 1.369 1_655 S
C419 H422 0.928 . S
C420 N416 1.345 . S
C420 C421 1.371 1_655 S
C420 H423 0.931 . S
C421 C417 1.391 . S
C421 C420 1.371 1_455 S
C421 H428 0.930 . S
H422 C419 0.928 . S
H423 C420 0.931 . S
H424 C400 0.930 . S
H425 C397 0.930 . S
H426 C406 0.930 . S
H427 C418 0.929 . S
H428 C421 0.930 . S
C429 C430 1.351 . S
C429 N432 1.368 . S
C429 H434 0.931 . S
C430 C429 1.351 . S
C430 N431 1.373 . S
C430 H458 0.930 . S
N431 C430 1.373 . S
N431 C433 1.340 . S
N432 C429 1.368 . S
N432 C433 1.321 . S
N432 Co435 2.135 . S
C433 N431 1.340 . S
C433 N432 1.321 . S
C433 H457 0.930 . S
H434 C429 0.931 . S
Co435 N432 2.135 . S
Co435 N438 2.121 . S
Co435 O443 2.055 . S
Co435 O446 2.039 . S
Co435 N449 2.140 . S
C436 O437 1.227 . S
C436 O446 1.265 . S
O437 C436 1.227 . S
N438 Co435 2.121 . S
N438 C440 1.375 . S
N438 C441 1.313 . S
C439 C440 1.338 . S
C439 N442 1.377 . S
C439 H459 0.930 . S
C440 N438 1.375 . S
C440 C439 1.338 . S
C440 H444 0.931 . S
C441 N438 1.313 . S
C441 N442 1.344 . S
C441 H445 0.930 . S
N442 C439 1.377 . S
N442 C441 1.344 . S
O443 Co435 2.055 . S
O443 C447 1.253 . S
H444 C440 0.931 . S
H445 C441 0.930 . S
O446 Co435 2.039 . S
O446 C436 1.265 . S
C447 O443 1.253 . S
C447 O448 1.227 . S
O448 C447 1.227 . S
N449 Co435 2.140 . S
N449 C452 1.346 . S
N449 C453 1.345 . S
C450 C451 1.387 . S
C450 C454 1.391 . S
C451 C450 1.387 . S
C451 C452 1.369 . S
C451 H460 0.929 . S
C452 N449 1.346 . S
C452 C451 1.369 . S
C452 H455 0.928 . S
C453 N449 1.345 . S
C453 C454 1.371 . S
C453 H456 0.931 . S
C454 C450 1.391 . S
C454 C453 1.371 . S
C454 H461 0.930 . S
H455 C452 0.928 . S
H456 C453 0.931 . S
H457 C433 0.930 . S
H458 C430 0.930 . S
H459 C439 0.930 . S
H460 C451 0.929 . S
H461 C454 0.930 . S
C462 C463 1.351 . S
C462 N465 1.368 . S
C462 H467 0.931 . S
C463 C462 1.351 . S
C463 N464 1.373 . S
C463 H491 0.930 . S
N464 C463 1.373 . S
N464 C466 1.340 . S
N465 C462 1.368 . S
N465 C466 1.321 . S
N465 Co468 2.135 . S
C466 N464 1.340 . S
C466 N465 1.321 . S
C466 H490 0.930 . S
H467 C462 0.931 . S
Co468 N465 2.135 . S
Co468 N471 2.121 . S
Co468 O476 2.055 . S
Co468 O479 2.039 . S
Co468 N482 2.140 . S
C469 O470 1.227 . S
C469 O479 1.265 . S
O470 C469 1.227 . S
N471 Co468 2.121 . S
N471 C473 1.375 . S
N471 C474 1.313 . S
C472 C473 1.338 . S
C472 N475 1.377 . S
C472 H492 0.930 . S
C473 N471 1.375 . S
C473 C472 1.338 . S
C473 H477 0.931 . S
C474 N471 1.313 . S
C474 N475 1.344 . S
C474 H478 0.930 . S
N475 C472 1.377 . S
N475 C474 1.344 . S
O476 Co468 2.055 . S
O476 C480 1.253 . S
H477 C473 0.931 . S
H478 C474 0.930 . S
O479 Co468 2.039 . S
O479 C469 1.265 . S
C480 O476 1.253 . S
C480 O481 1.227 . S
O481 C480 1.227 . S
N482 Co468 2.140 . S
N482 C485 1.346 . S
N482 C486 1.345 . S
C483 C484 1.387 . S
C483 C487 1.391 . S
C484 C483 1.387 . S
C484 C485 1.369 1_455 S
C484 H493 0.929 . S
C485 N482 1.346 . S
C485 C484 1.369 1_655 S
C485 H488 0.928 . S
C486 N482 1.345 . S
C486 C487 1.371 1_655 S
C486 H489 0.931 . S
C487 C483 1.391 . S
C487 C486 1.371 1_455 S
C487 H494 0.930 . S
H488 C485 0.928 . S
H489 C486 0.931 . S
H490 C466 0.930 . S
H491 C463 0.930 . S
H492 C472 0.930 . S
H493 C484 0.929 . S
H494 C487 0.930 . S
C495 C496 1.351 . S
C495 N498 1.368 . S
C495 H500 0.931 . S
C496 C495 1.351 . S
C496 N497 1.373 . S
C496 H524 0.930 . S
N497 C496 1.373 . S
N497 C499 1.340 . S
N498 C495 1.368 . S
N498 C499 1.321 . S
N498 Co501 2.135 . S
C499 N497 1.340 . S
C499 N498 1.321 . S
C499 H523 0.930 . S
H500 C495 0.931 . S
Co501 N498 2.135 . S
Co501 N504 2.121 . S
Co501 O509 2.055 . S
Co501 O512 2.039 . S
Co501 N515 2.140 . S
C502 O503 1.227 . S
C502 O512 1.265 . S
O503 C502 1.227 . S
N504 Co501 2.121 . S
N504 C506 1.375 . S
N504 C507 1.313 . S
C505 C506 1.338 . S
C505 N508 1.377 . S
C505 H525 0.930 . S
C506 N504 1.375 . S
C506 C505 1.338 . S
C506 H510 0.931 . S
C507 N504 1.313 . S
C507 N508 1.344 . S
C507 H511 0.930 . S
N508 C505 1.377 . S
N508 C507 1.344 . S
O509 Co501 2.055 . S
O509 C513 1.253 . S
H510 C506 0.931 . S
H511 C507 0.930 . S
O512 Co501 2.039 . S
O512 C502 1.265 . S
C513 O509 1.253 . S
C513 O514 1.227 . S
O514 C513 1.227 . S
N515 Co501 2.140 . S
N515 C518 1.346 . S
N515 C519 1.345 . S
C516 C517 1.387 . S
C516 C520 1.391 . S
C517 C516 1.387 . S
C517 C518 1.369 . S
C517 H526 0.929 . S
C518 N515 1.346 . S
C518 C517 1.369 . S
C518 H521 0.928 . S
C519 N515 1.345 . S
C519 C520 1.371 . S
C519 H522 0.931 . S
C520 C516 1.391 . S
C520 C519 1.371 . S
C520 H527 0.930 . S
H521 C518 0.928 . S
H522 C519 0.931 . S
H523 C499 0.930 . S
H524 C496 0.930 . S
H525 C505 0.930 . S
H526 C517 0.929 . S
H527 C520 0.930 . S
C528 C529 1.351 . S
C528 N531 1.368 . S
C528 H533 0.931 . S
C529 C528 1.351 . S
C529 N530 1.373 . S
C529 H557 0.930 . S
N530 C529 1.373 . S
N530 C532 1.340 . S
N531 C528 1.368 . S
N531 C532 1.321 . S
N531 Co534 2.135 . S
C532 N530 1.340 . S
C532 N531 1.321 . S
C532 H556 0.930 . S
H533 C528 0.931 . S
Co534 N531 2.135 . S
Co534 N537 2.121 . S
Co534 O542 2.055 . S
Co534 O545 2.039 . S
Co534 N548 2.140 . S
C535 O536 1.227 . S
C535 O545 1.265 . S
O536 C535 1.227 . S
N537 Co534 2.121 . S
N537 C539 1.375 . S
N537 C540 1.313 . S
C538 C539 1.338 . S
C538 N541 1.377 . S
C538 H558 0.930 . S
C539 N537 1.375 . S
C539 C538 1.338 . S
C539 H543 0.931 . S
C540 N537 1.313 . S
C540 N541 1.344 . S
C540 H544 0.930 . S
N541 C538 1.377 . S
N541 C540 1.344 . S
O542 Co534 2.055 . S
O542 C546 1.253 . S
H543 C539 0.931 . S
H544 C540 0.930 . S
O545 Co534 2.039 . S
O545 C535 1.265 . S
C546 O542 1.253 . S
C546 O547 1.227 . S
O547 C546 1.227 . S
N548 Co534 2.140 . S
N548 C551 1.346 . S
N548 C552 1.345 . S
C549 C550 1.387 . S
C549 C553 1.391 . S
C550 C549 1.387 . S
C550 C551 1.369 . S
C550 H559 0.929 . S
C551 N548 1.346 . S
C551 C550 1.369 . S
C551 H554 0.928 . S
C552 N548 1.345 . S
C552 C553 1.371 . S
C552 H555 0.931 . S
C553 C549 1.391 . S
C553 C552 1.371 . S
C553 H560 0.930 . S
H554 C551 0.928 . S
H555 C552 0.931 . S
H556 C532 0.930 . S
H557 C529 0.930 . S
H558 C538 0.930 . S
H559 C550 0.929 . S
H560 C553 0.930 . S
C561 C562 1.351 . S
C561 N564 1.368 . S
C561 H566 0.931 . S
C562 C561 1.351 . S
C562 N563 1.373 . S
C562 H590 0.930 . S
N563 C562 1.373 . S
N563 C565 1.340 . S
N564 C561 1.368 . S
N564 C565 1.321 . S
N564 Co567 2.135 . S
C565 N563 1.340 . S
C565 N564 1.321 . S
C565 H589 0.930 . S
H566 C561 0.931 . S
Co567 N564 2.135 . S
Co567 N570 2.121 . S
Co567 O575 2.055 . S
Co567 O578 2.039 . S
Co567 N581 2.140 . S
C568 O569 1.227 . S
C568 O578 1.265 . S
O569 C568 1.227 . S
N570 Co567 2.121 . S
N570 C572 1.375 . S
N570 C573 1.313 . S
C571 C572 1.338 . S
C571 N574 1.377 . S
C571 H591 0.930 . S
C572 N570 1.375 . S
C572 C571 1.338 . S
C572 H576 0.931 . S
C573 N570 1.313 . S
C573 N574 1.344 . S
C573 H577 0.930 . S
N574 C571 1.377 . S
N574 C573 1.344 . S
O575 Co567 2.055 . S
O575 C579 1.253 . S
H576 C572 0.931 . S
H577 C573 0.930 . S
O578 Co567 2.039 . S
O578 C568 1.265 . S
C579 O575 1.253 . S
C579 O580 1.227 . S
O580 C579 1.227 . S
N581 Co567 2.140 . S
N581 C584 1.346 . S
N581 C585 1.345 . S
C582 C583 1.387 . S
C582 C586 1.391 . S
C583 C582 1.387 . S
C583 C584 1.369 . S
C583 H592 0.929 . S
C584 N581 1.346 . S
C584 C583 1.369 . S
C584 H587 0.928 . S
C585 N581 1.345 . S
C585 C586 1.371 . S
C585 H588 0.931 . S
C586 C582 1.391 . S
C586 C585 1.371 . S
C586 H593 0.930 . S
H587 C584 0.928 . S
H588 C585 0.931 . S
H589 C565 0.930 . S
H590 C562 0.930 . S
H591 C571 0.930 . S
H592 C583 0.929 . S
H593 C586 0.930 . S
C594 C595 1.351 . S
C594 N597 1.368 . S
C594 H599 0.931 . S
C595 C594 1.351 . S
C595 N596 1.373 . S
C595 H623 0.930 . S
N596 C595 1.373 . S
N596 C598 1.340 . S
N597 C594 1.368 . S
N597 C598 1.321 . S
N597 Co600 2.135 . S
C598 N596 1.340 . S
C598 N597 1.321 . S
C598 H622 0.930 . S
H599 C594 0.931 . S
Co600 N597 2.135 . S
Co600 N603 2.121 . S
Co600 O608 2.055 . S
Co600 O611 2.039 . S
Co600 N614 2.140 . S
C601 O602 1.227 . S
C601 O611 1.265 . S
O602 C601 1.227 . S
N603 Co600 2.121 . S
N603 C605 1.375 . S
N603 C606 1.313 . S
C604 C605 1.338 . S
C604 N607 1.377 . S
C604 H624 0.930 . S
C605 N603 1.375 . S
C605 C604 1.338 . S
C605 H609 0.931 . S
C606 N603 1.313 . S
C606 N607 1.344 . S
C606 H610 0.930 . S
N607 C604 1.377 . S
N607 C606 1.344 . S
O608 Co600 2.055 . S
O608 C612 1.253 . S
H609 C605 0.931 . S
H610 C606 0.930 . S
O611 Co600 2.039 . S
O611 C601 1.265 . S
C612 O608 1.253 . S
C612 O613 1.227 . S
O613 C612 1.227 . S
N614 Co600 2.140 . S
N614 C617 1.346 . S
N614 C618 1.345 . S
C615 C616 1.387 . S
C615 C619 1.391 . S
C616 C615 1.387 . S
C616 C617 1.369 . S
C616 H625 0.929 . S
C617 N614 1.346 . S
C617 C616 1.369 . S
C617 H620 0.928 . S
C618 N614 1.345 . S
C618 C619 1.371 . S
C618 H621 0.931 . S
C619 C615 1.391 . S
C619 C618 1.371 . S
C619 H626 0.930 . S
H620 C617 0.928 . S
H621 C618 0.931 . S
H622 C598 0.930 . S
H623 C595 0.930 . S
H624 C604 0.930 . S
H625 C616 0.929 . S
H626 C619 0.930 . S
C627 C628 1.351 . S
C627 N630 1.368 . S
C627 H632 0.931 . S
C628 C627 1.351 . S
C628 N629 1.373 . S
C628 H656 0.930 . S
N629 C628 1.373 . S
N629 C631 1.340 . S
N630 C627 1.368 . S
N630 C631 1.321 . S
N630 Co633 2.135 . S
C631 N629 1.340 . S
C631 N630 1.321 . S
C631 H655 0.930 . S
H632 C627 0.931 . S
Co633 N630 2.135 . S
Co633 N636 2.121 . S
Co633 O641 2.055 . S
Co633 O644 2.039 . S
Co633 N647 2.140 . S
C634 O635 1.227 . S
C634 O644 1.265 . S
O635 C634 1.227 . S
N636 Co633 2.121 . S
N636 C638 1.375 . S
N636 C639 1.313 . S
C637 C638 1.338 . S
C637 N640 1.377 . S
C637 H657 0.930 . S
C638 N636 1.375 . S
C638 C637 1.338 . S
C638 H642 0.931 . S
C639 N636 1.313 . S
C639 N640 1.344 . S
C639 H643 0.930 . S
N640 C637 1.377 . S
N640 C639 1.344 . S
O641 Co633 2.055 . S
O641 C645 1.253 . S
H642 C638 0.931 . S
H643 C639 0.930 . S
O644 Co633 2.039 . S
O644 C634 1.265 . S
C645 O641 1.253 . S
C645 O646 1.227 . S
O646 C645 1.227 . S
N647 Co633 2.140 . S
N647 C650 1.346 . S
N647 C651 1.345 . S
C648 C649 1.387 . S
C648 C652 1.391 . S
C649 C648 1.387 . S
C649 C650 1.369 . S
C649 H658 0.929 . S
C650 N647 1.346 . S
C650 C649 1.369 . S
C650 H653 0.928 . S
C651 N647 1.345 . S
C651 C652 1.371 . S
C651 H654 0.931 . S
C652 C648 1.391 . S
C652 C651 1.371 . S
C652 H659 0.930 . S
H653 C650 0.928 . S
H654 C651 0.931 . S
H655 C631 0.930 . S
H656 C628 0.930 . S
H657 C637 0.930 . S
H658 C649 0.929 . S
H659 C652 0.930 . S
C660 C661 1.351 . S
C660 N663 1.368 . S
C660 H665 0.931 . S
C661 C660 1.351 . S
C661 N662 1.373 . S
C661 H689 0.930 . S
N662 C661 1.373 . S
N662 C664 1.340 . S
N663 C660 1.368 . S
N663 C664 1.321 . S
N663 Co666 2.135 . S
C664 N662 1.340 . S
C664 N663 1.321 . S
C664 H688 0.930 . S
H665 C660 0.931 . S
Co666 N663 2.135 . S
Co666 N669 2.121 . S
Co666 O674 2.055 . S
Co666 O677 2.039 . S
Co666 N680 2.140 . S
C667 O668 1.227 . S
C667 O677 1.265 . S
O668 C667 1.227 . S
N669 Co666 2.121 . S
N669 C671 1.375 . S
N669 C672 1.313 . S
C670 C671 1.338 . S
C670 N673 1.377 . S
C670 H690 0.930 . S
C671 N669 1.375 . S
C671 C670 1.338 . S
C671 H675 0.931 . S
C672 N669 1.313 . S
C672 N673 1.344 . S
C672 H676 0.930 . S
N673 C670 1.377 . S
N673 C672 1.344 . S
O674 Co666 2.055 . S
O674 C678 1.253 . S
H675 C671 0.931 . S
H676 C672 0.930 . S
O677 Co666 2.039 . S
O677 C667 1.265 . S
C678 O674 1.253 . S
C678 O679 1.227 . S
O679 C678 1.227 . S
N680 Co666 2.140 . S
N680 C683 1.346 . S
N680 C684 1.345 . S
C681 C682 1.387 . S
C681 C685 1.391 . S
C682 C681 1.387 . S
C682 C683 1.369 . S
C682 H691 0.929 . S
C683 N680 1.346 . S
C683 C682 1.369 . S
C683 H686 0.928 . S
C684 N680 1.345 . S
C684 C685 1.371 . S
C684 H687 0.931 . S
C685 C681 1.391 . S
C685 C684 1.371 . S
C685 H692 0.930 . S
H686 C683 0.928 . S
H687 C684 0.931 . S
H688 C664 0.930 . S
H689 C661 0.930 . S
H690 C670 0.930 . S
H691 C682 0.929 . S
H692 C685 0.930 . S
C693 C694 1.351 . S
C693 N696 1.368 . S
C693 H698 0.931 . S
C694 C693 1.351 . S
C694 N695 1.373 . S
C694 H722 0.930 . S
N695 C694 1.373 . S
N695 C697 1.340 . S
N696 C693 1.368 . S
N696 C697 1.321 . S
N696 Co699 2.135 . S
C697 N695 1.340 . S
C697 N696 1.321 . S
C697 H721 0.930 . S
H698 C693 0.931 . S
Co699 N696 2.135 . S
Co699 N702 2.121 . S
Co699 O707 2.055 . S
Co699 O710 2.039 . S
Co699 N713 2.140 . S
C700 O701 1.227 . S
C700 O710 1.265 . S
O701 C700 1.227 . S
N702 Co699 2.121 . S
N702 C704 1.375 . S
N702 C705 1.313 . S
C703 C704 1.338 . S
C703 N706 1.377 . S
C703 H723 0.930 . S
C704 N702 1.375 . S
C704 C703 1.338 . S
C704 H708 0.931 . S
C705 N702 1.313 . S
C705 N706 1.344 . S
C705 H709 0.930 . S
N706 C703 1.377 . S
N706 C705 1.344 . S
O707 Co699 2.055 . S
O707 C711 1.253 . S
H708 C704 0.931 . S
H709 C705 0.930 . S
O710 Co699 2.039 . S
O710 C700 1.265 . S
C711 O707 1.253 . S
C711 O712 1.227 . S
O712 C711 1.227 . S
N713 Co699 2.140 . S
N713 C716 1.346 . S
N713 C717 1.345 . S
C714 C715 1.387 . S
C714 C718 1.391 . S
C715 C714 1.387 . S
C715 C716 1.369 . S
C715 H724 0.929 . S
C716 N713 1.346 . S
C716 C715 1.369 . S
C716 H719 0.928 . S
C717 N713 1.345 . S
C717 C718 1.371 . S
C717 H720 0.931 . S
C718 C714 1.391 . S
C718 C717 1.371 . S
C718 H725 0.930 . S
H719 C716 0.928 . S
H720 C717 0.931 . S
H721 C697 0.930 . S
H722 C694 0.930 . S
H723 C703 0.930 . S
H724 C715 0.929 . S
H725 C718 0.930 . S
C726 C727 1.351 . S
C726 N729 1.368 . S
C726 H731 0.931 . S
C727 C726 1.351 . S
C727 N728 1.373 . S
C727 H755 0.930 . S
N728 C727 1.373 . S
N728 C730 1.340 . S
N729 C726 1.368 . S
N729 C730 1.321 . S
N729 Co732 2.135 . S
C730 N728 1.340 . S
C730 N729 1.321 . S
C730 H754 0.930 . S
H731 C726 0.931 . S
Co732 N729 2.135 . S
Co732 N735 2.121 . S
Co732 O740 2.055 . S
Co732 O743 2.039 . S
Co732 N746 2.140 . S
C733 O734 1.227 . S
C733 O743 1.265 . S
O734 C733 1.227 . S
N735 Co732 2.121 . S
N735 C737 1.375 . S
N735 C738 1.313 . S
C736 C737 1.338 . S
C736 N739 1.377 . S
C736 H756 0.930 . S
C737 N735 1.375 . S
C737 C736 1.338 . S
C737 H741 0.931 . S
C738 N735 1.313 . S
C738 N739 1.344 . S
C738 H742 0.930 . S
N739 C736 1.377 . S
N739 C738 1.344 . S
O740 Co732 2.055 . S
O740 C744 1.253 . S
H741 C737 0.931 . S
H742 C738 0.930 . S
O743 Co732 2.039 . S
O743 C733 1.265 . S
C744 O740 1.253 . S
C744 O745 1.227 . S
O745 C744 1.227 . S
N746 Co732 2.140 . S
N746 C749 1.346 . S
N746 C750 1.345 . S
C747 C748 1.387 . S
C747 C751 1.391 . S
C748 C747 1.387 . S
C748 C749 1.369 . S
C748 H757 0.929 . S
C749 N746 1.346 . S
C749 C748 1.369 . S
C749 H752 0.928 . S
C750 N746 1.345 . S
C750 C751 1.371 . S
C750 H753 0.931 . S
C751 C747 1.391 . S
C751 C750 1.371 . S
C751 H758 0.930 . S
H752 C749 0.928 . S
H753 C750 0.931 . S
H754 C730 0.930 . S
H755 C727 0.930 . S
H756 C736 0.930 . S
H757 C748 0.929 . S
H758 C751 0.930 . S
C759 C760 1.351 . S
C759 N762 1.368 . S
C759 H764 0.931 . S
C760 C759 1.351 . S
C760 N761 1.373 . S
C760 H788 0.930 . S
N761 C760 1.373 . S
N761 C763 1.340 . S
N762 C759 1.368 . S
N762 C763 1.321 . S
N762 Co765 2.135 . S
C763 N761 1.340 . S
C763 N762 1.321 . S
C763 H787 0.930 . S
H764 C759 0.931 . S
Co765 N762 2.135 . S
Co765 N768 2.121 . S
Co765 O773 2.055 . S
Co765 O776 2.039 . S
Co765 N779 2.140 . S
C766 O767 1.227 . S
C766 O776 1.265 . S
O767 C766 1.227 . S
N768 Co765 2.121 . S
N768 C770 1.375 . S
N768 C771 1.313 . S
C769 C770 1.338 . S
C769 N772 1.377 . S
C769 H789 0.930 . S
C770 N768 1.375 . S
C770 C769 1.338 . S
C770 H774 0.931 . S
C771 N768 1.313 . S
C771 N772 1.344 . S
C771 H775 0.930 . S
N772 C769 1.377 . S
N772 C771 1.344 . S
O773 Co765 2.055 . S
O773 C777 1.253 . S
H774 C770 0.931 . S
H775 C771 0.930 . S
O776 Co765 2.039 . S
O776 C766 1.265 . S
C777 O773 1.253 . S
C777 O778 1.227 . S
O778 C777 1.227 . S
N779 Co765 2.140 . S
N779 C782 1.346 . S
N779 C783 1.345 . S
C780 C781 1.387 . S
C780 C784 1.391 . S
C781 C780 1.387 . S
C781 C782 1.369 . S
C781 H790 0.929 . S
C782 N779 1.346 . S
C782 C781 1.369 . S
C782 H785 0.928 . S
C783 N779 1.345 . S
C783 C784 1.371 . S
C783 H786 0.931 . S
C784 C780 1.391 . S
C784 C783 1.371 . S
C784 H791 0.930 . S
H785 C782 0.928 . S
H786 C783 0.931 . S
H787 C763 0.930 . S
H788 C760 0.930 . S
H789 C769 0.930 . S
H790 C781 0.929 . S
H791 C784 0.930 . S
C792 C793 1.351 . S
C792 N795 1.368 . S
C792 H797 0.931 . S
C793 C792 1.351 . S
C793 N794 1.373 . S
C793 H821 0.930 . S
N794 C793 1.373 . S
N794 C796 1.340 . S
N795 C792 1.368 . S
N795 C796 1.321 . S
N795 Co798 2.135 . S
C796 N794 1.340 . S
C796 N795 1.321 . S
C796 H820 0.930 . S
H797 C792 0.931 . S
Co798 N795 2.135 . S
Co798 N801 2.121 . S
Co798 O806 2.055 . S
Co798 O809 2.039 . S
Co798 N812 2.140 . S
C799 O800 1.227 . S
C799 O809 1.265 . S
O800 C799 1.227 . S
N801 Co798 2.121 . S
N801 C803 1.375 . S
N801 C804 1.313 . S
C802 C803 1.338 . S
C802 N805 1.377 . S
C802 H822 0.930 . S
C803 N801 1.375 . S
C803 C802 1.338 . S
C803 H807 0.931 . S
C804 N801 1.313 . S
C804 N805 1.344 . S
C804 H808 0.930 . S
N805 C802 1.377 . S
N805 C804 1.344 . S
O806 Co798 2.055 . S
O806 C810 1.253 . S
H807 C803 0.931 . S
H808 C804 0.930 . S
O809 Co798 2.039 . S
O809 C799 1.265 . S
C810 O806 1.253 . S
C810 O811 1.227 . S
O811 C810 1.227 . S
N812 Co798 2.140 . S
N812 C815 1.346 . S
N812 C816 1.345 . S
C813 C814 1.387 . S
C813 C817 1.391 . S
C814 C813 1.387 . S
C814 C815 1.369 . S
C814 H823 0.929 . S
C815 N812 1.346 . S
C815 C814 1.369 . S
C815 H818 0.928 . S
C816 N812 1.345 . S
C816 C817 1.371 . S
C816 H819 0.931 . S
C817 C813 1.391 . S
C817 C816 1.371 . S
C817 H824 0.930 . S
H818 C815 0.928 . S
H819 C816 0.931 . S
H820 C796 0.930 . S
H821 C793 0.930 . S
H822 C802 0.930 . S
H823 C814 0.929 . S
H824 C817 0.930 . S
C825 C826 1.351 . S
C825 N828 1.368 . S
C825 H830 0.931 . S
C826 C825 1.351 . S
C826 N827 1.373 . S
C826 H854 0.930 . S
N827 C826 1.373 . S
N827 C829 1.340 . S
N828 C825 1.368 . S
N828 C829 1.321 . S
N828 Co831 2.135 . S
C829 N827 1.340 . S
C829 N828 1.321 . S
C829 H853 0.930 . S
H830 C825 0.931 . S
Co831 N828 2.135 . S
Co831 N834 2.121 . S
Co831 O839 2.055 . S
Co831 O842 2.039 . S
Co831 N845 2.140 . S
C832 O833 1.227 . S
C832 O842 1.265 . S
O833 C832 1.227 . S
N834 Co831 2.121 . S
N834 C836 1.375 . S
N834 C837 1.313 . S
C835 C836 1.338 . S
C835 N838 1.377 . S
C835 H855 0.930 . S
C836 N834 1.375 . S
C836 C835 1.338 . S
C836 H840 0.931 . S
C837 N834 1.313 . S
C837 N838 1.344 . S
C837 H841 0.930 . S
N838 C835 1.377 . S
N838 C837 1.344 . S
O839 Co831 2.055 . S
O839 C843 1.253 . S
H840 C836 0.931 . S
H841 C837 0.930 . S
O842 Co831 2.039 . S
O842 C832 1.265 . S
C843 O839 1.253 . S
C843 O844 1.227 . S
O844 C843 1.227 . S
N845 Co831 2.140 . S
N845 C848 1.346 . S
N845 C849 1.345 . S
C846 C847 1.387 . S
C846 C850 1.391 . S
C847 C846 1.387 . S
C847 C848 1.369 . S
C847 H856 0.929 . S
C848 N845 1.346 . S
C848 C847 1.369 . S
C848 H851 0.928 . S
C849 N845 1.345 . S
C849 C850 1.371 . S
C849 H852 0.931 . S
C850 C846 1.391 . S
C850 C849 1.371 . S
C850 H857 0.930 . S
H851 C848 0.928 . S
H852 C849 0.931 . S
H853 C829 0.930 . S
H854 C826 0.930 . S
H855 C835 0.930 . S
H856 C847 0.929 . S
H857 C850 0.930 . S
C858 C859 1.351 . S
C858 N861 1.368 . S
C858 H863 0.931 . S
C859 C858 1.351 . S
C859 N860 1.373 . S
C859 H887 0.930 . S
N860 C859 1.373 . S
N860 C862 1.340 . S
N861 C858 1.368 . S
N861 C862 1.321 . S
N861 Co864 2.135 . S
C862 N860 1.340 . S
C862 N861 1.321 . S
C862 H886 0.930 . S
H863 C858 0.931 . S
Co864 N861 2.135 . S
Co864 N867 2.121 . S
Co864 O872 2.055 . S
Co864 O875 2.039 . S
Co864 N878 2.140 . S
C865 O866 1.227 . S
C865 O875 1.265 . S
O866 C865 1.227 . S
N867 Co864 2.121 . S
N867 C869 1.375 . S
N867 C870 1.313 . S
C868 C869 1.338 . S
C868 N871 1.377 . S
C868 H888 0.930 . S
C869 N867 1.375 . S
C869 C868 1.338 . S
C869 H873 0.931 . S
C870 N867 1.313 . S
C870 N871 1.344 . S
C870 H874 0.930 . S
N871 C868 1.377 . S
N871 C870 1.344 . S
O872 Co864 2.055 . S
O872 C876 1.253 . S
H873 C869 0.931 . S
H874 C870 0.930 . S
O875 Co864 2.039 . S
O875 C865 1.265 . S
C876 O872 1.253 . S
C876 O877 1.227 . S
O877 C876 1.227 . S
N878 Co864 2.140 . S
N878 C881 1.346 . S
N878 C882 1.345 . S
C879 C880 1.387 . S
C879 C883 1.391 . S
C880 C879 1.387 . S
C880 C881 1.369 . S
C880 H889 0.929 . S
C881 N878 1.346 . S
C881 C880 1.369 . S
C881 H884 0.928 . S
C882 N878 1.345 . S
C882 C883 1.371 . S
C882 H885 0.931 . S
C883 C879 1.391 . S
C883 C882 1.371 . S
C883 H890 0.930 . S
H884 C881 0.928 . S
H885 C882 0.931 . S
H886 C862 0.930 . S
H887 C859 0.930 . S
H888 C868 0.930 . S
H889 C880 0.929 . S
H890 C883 0.930 . S
C891 C892 1.351 . S
C891 N894 1.368 . S
C891 H896 0.931 . S
C892 C891 1.351 . S
C892 N893 1.373 . S
C892 H920 0.930 . S
N893 C892 1.373 . S
N893 C895 1.340 . S
N894 C891 1.368 . S
N894 C895 1.321 . S
N894 Co897 2.135 . S
C895 N893 1.340 . S
C895 N894 1.321 . S
C895 H919 0.930 . S
H896 C891 0.931 . S
Co897 N894 2.135 . S
Co897 N900 2.121 . S
Co897 O905 2.055 . S
Co897 O908 2.039 . S
Co897 N911 2.140 . S
C898 O899 1.227 . S
C898 O908 1.265 . S
O899 C898 1.227 . S
N900 Co897 2.121 . S
N900 C902 1.375 . S
N900 C903 1.313 . S
C901 C902 1.338 . S
C901 N904 1.377 . S
C901 H921 0.930 . S
C902 N900 1.375 . S
C902 C901 1.338 . S
C902 H906 0.931 . S
C903 N900 1.313 . S
C903 N904 1.344 . S
C903 H907 0.930 . S
N904 C901 1.377 . S
N904 C903 1.344 . S
O905 Co897 2.055 . S
O905 C909 1.253 . S
H906 C902 0.931 . S
H907 C903 0.930 . S
O908 Co897 2.039 . S
O908 C898 1.265 . S
C909 O905 1.253 . S
C909 O910 1.227 . S
O910 C909 1.227 . S
N911 Co897 2.140 . S
N911 C914 1.346 . S
N911 C915 1.345 . S
C912 C913 1.387 . S
C912 C916 1.391 . S
C913 C912 1.387 . S
C913 C914 1.369 . S
C913 H922 0.929 . S
C914 N911 1.346 . S
C914 C913 1.369 . S
C914 H917 0.928 . S
C915 N911 1.345 . S
C915 C916 1.371 . S
C915 H918 0.931 . S
C916 C912 1.391 . S
C916 C915 1.371 . S
C916 H923 0.930 . S
H917 C914 0.928 . S
H918 C915 0.931 . S
H919 C895 0.930 . S
H920 C892 0.930 . S
H921 C901 0.930 . S
H922 C913 0.929 . S
H923 C916 0.930 . S
C924 C925 1.351 . S
C924 N927 1.368 . S
C924 H929 0.931 . S
C925 C924 1.351 . S
C925 N926 1.373 . S
C925 H953 0.930 . S
N926 C925 1.373 . S
N926 C928 1.340 . S
N927 C924 1.368 . S
N927 C928 1.321 . S
N927 Co930 2.135 . S
C928 N926 1.340 . S
C928 N927 1.321 . S
C928 H952 0.930 . S
H929 C924 0.931 . S
Co930 N927 2.135 . S
Co930 N933 2.121 . S
Co930 O938 2.055 . S
Co930 O941 2.039 . S
Co930 N944 2.140 . S
C931 O932 1.227 . S
C931 O941 1.265 . S
O932 C931 1.227 . S
N933 Co930 2.121 . S
N933 C935 1.375 . S
N933 C936 1.313 . S
C934 C935 1.338 . S
C934 N937 1.377 . S
C934 H954 0.930 . S
C935 N933 1.375 . S
C935 C934 1.338 . S
C935 H939 0.931 . S
C936 N933 1.313 . S
C936 N937 1.344 . S
C936 H940 0.930 . S
N937 C934 1.377 . S
N937 C936 1.344 . S
O938 Co930 2.055 . S
O938 C942 1.253 . S
H939 C935 0.931 . S
H940 C936 0.930 . S
O941 Co930 2.039 . S
O941 C931 1.265 . S
C942 O938 1.253 . S
C942 O943 1.227 . S
O943 C942 1.227 . S
N944 Co930 2.140 . S
N944 C947 1.346 . S
N944 C948 1.345 . S
C945 C946 1.387 . S
C945 C949 1.391 . S
C946 C945 1.387 . S
C946 C947 1.369 . S
C946 H955 0.929 . S
C947 N944 1.346 . S
C947 C946 1.369 . S
C947 H950 0.928 . S
C948 N944 1.345 . S
C948 C949 1.371 . S
C948 H951 0.931 . S
C949 C945 1.391 . S
C949 C948 1.371 . S
C949 H956 0.930 . S
H950 C947 0.928 . S
H951 C948 0.931 . S
H952 C928 0.930 . S
H953 C925 0.930 . S
H954 C934 0.930 . S
H955 C946 0.929 . S
H956 C949 0.930 . S
C957 C958 1.351 . S
C957 N960 1.368 . S
C957 H962 0.931 . S
C958 C957 1.351 . S
C958 N959 1.373 . S
C958 H986 0.930 . S
N959 C958 1.373 . S
N959 C961 1.340 . S
N960 C957 1.368 . S
N960 C961 1.321 . S
N960 Co963 2.135 . S
C961 N959 1.340 . S
C961 N960 1.321 . S
C961 H985 0.930 . S
H962 C957 0.931 . S
Co963 N960 2.135 . S
Co963 N966 2.121 . S
Co963 O971 2.055 . S
Co963 O974 2.039 . S
Co963 N977 2.140 . S
C964 O965 1.227 . S
C964 O974 1.265 . S
O965 C964 1.227 . S
N966 Co963 2.121 . S
N966 C968 1.375 . S
N966 C969 1.313 . S
C967 C968 1.338 . S
C967 N970 1.377 . S
C967 H987 0.930 . S
C968 N966 1.375 . S
C968 C967 1.338 . S
C968 H972 0.931 . S
C969 N966 1.313 . S
C969 N970 1.344 . S
C969 H973 0.930 . S
N970 C967 1.377 . S
N970 C969 1.344 . S
O971 Co963 2.055 . S
O971 C975 1.253 . S
H972 C968 0.931 . S
H973 C969 0.930 . S
O974 Co963 2.039 . S
O974 C964 1.265 . S
C975 O971 1.253 . S
C975 O976 1.227 . S
O976 C975 1.227 . S
N977 Co963 2.140 . S
N977 C980 1.346 . S
N977 C981 1.345 . S
C978 C979 1.387 . S
C978 C982 1.391 . S
C979 C978 1.387 . S
C979 C980 1.369 . S
C979 H988 0.929 . S
C980 N977 1.346 . S
C980 C979 1.369 . S
C980 H983 0.928 . S
C981 N977 1.345 . S
C981 C982 1.371 . S
C981 H984 0.931 . S
C982 C978 1.391 . S
C982 C981 1.371 . S
C982 H989 0.930 . S
H983 C980 0.928 . S
H984 C981 0.931 . S
H985 C961 0.930 . S
H986 C958 0.930 . S
H987 C967 0.930 . S
H988 C979 0.929 . S
H989 C982 0.930 . S
C990 C991 1.351 . S
C990 N993 1.368 . S
C990 H995 0.931 . S
C991 C990 1.351 . S
C991 N992 1.373 . S
C991 H1019 0.930 . S
N992 C991 1.373 . S
N992 C994 1.340 . S
N993 C990 1.368 . S
N993 C994 1.321 . S
N993 Co996 2.135 . S
C994 N992 1.340 . S
C994 N993 1.321 . S
C994 H1018 0.930 . S
H995 C990 0.931 . S
Co996 N993 2.135 . S
Co996 N999 2.121 . S
Co996 O1004 2.055 . S
Co996 O1007 2.039 . S
Co996 N1010 2.140 . S
C997 O998 1.227 . S
C997 O1007 1.265 . S
O998 C997 1.227 . S
N999 Co996 2.121 . S
N999 C1001 1.375 . S
N999 C1002 1.313 . S
C1000 C1001 1.338 . S
C1000 N1003 1.377 . S
C1000 H1020 0.930 . S
C1001 N999 1.375 . S
C1001 C1000 1.338 . S
C1001 H1005 0.931 . S
C1002 N999 1.313 . S
C1002 N1003 1.344 . S
C1002 H1006 0.930 . S
N1003 C1000 1.377 . S
N1003 C1002 1.344 . S
O1004 Co996 2.055 . S
O1004 C1008 1.253 . S
H1005 C1001 0.931 . S
H1006 C1002 0.930 . S
O1007 Co996 2.039 . S
O1007 C997 1.265 . S
C1008 O1004 1.253 . S
C1008 O1009 1.227 . S
O1009 C1008 1.227 . S
N1010 Co996 2.140 . S
N1010 C1013 1.346 . S
N1010 C1014 1.345 . S
C1011 C1012 1.387 . S
C1011 C1015 1.391 . S
C1012 C1011 1.387 . S
C1012 C1013 1.369 . S
C1012 H1021 0.929 . S
C1013 N1010 1.346 . S
C1013 C1012 1.369 . S
C1013 H1016 0.928 . S
C1014 N1010 1.345 . S
C1014 C1015 1.371 . S
C1014 H1017 0.931 . S
C1015 C1011 1.391 . S
C1015 C1014 1.371 . S
C1015 H1022 0.930 . S
H1016 C1013 0.928 . S
H1017 C1014 0.931 . S
H1018 C994 0.930 . S
H1019 C991 0.930 . S
H1020 C1000 0.930 . S
H1021 C1012 0.929 . S
H1022 C1015 0.930 . S
C1023 C1024 1.351 . S
C1023 N1026 1.368 . S
C1023 H1028 0.931 . S
C1024 C1023 1.351 . S
C1024 N1025 1.373 . S
C1024 H1052 0.930 . S
N1025 C1024 1.373 . S
N1025 C1027 1.340 . S
N1026 C1023 1.368 . S
N1026 C1027 1.321 . S
N1026 Co1029 2.135 . S
C1027 N1025 1.340 . S
C1027 N1026 1.321 . S
C1027 H1051 0.930 . S
H1028 C1023 0.931 . S
Co1029 N1026 2.135 . S
Co1029 N1032 2.121 . S
Co1029 O1037 2.055 . S
Co1029 O1040 2.039 . S
Co1029 N1043 2.140 . S
C1030 O1031 1.227 . S
C1030 O1040 1.265 . S
O1031 C1030 1.227 . S
N1032 Co1029 2.121 . S
N1032 C1034 1.375 . S
N1032 C1035 1.313 . S
C1033 C1034 1.338 . S
C1033 N1036 1.377 . S
C1033 H1053 0.930 . S
C1034 N1032 1.375 . S
C1034 C1033 1.338 . S
C1034 H1038 0.931 . S
C1035 N1032 1.313 . S
C1035 N1036 1.344 . S
C1035 H1039 0.930 . S
N1036 C1033 1.377 . S
N1036 C1035 1.344 . S
O1037 Co1029 2.055 . S
O1037 C1041 1.253 . S
H1038 C1034 0.931 . S
H1039 C1035 0.930 . S
O1040 Co1029 2.039 . S
O1040 C1030 1.265 . S
C1041 O1037 1.253 . S
C1041 O1042 1.227 . S
O1042 C1041 1.227 . S
N1043 Co1029 2.140 . S
N1043 C1046 1.346 . S
N1043 C1047 1.345 . S
C1044 C1045 1.387 . S
C1044 C1048 1.391 . S
C1045 C1044 1.387 . S
C1045 C1046 1.369 . S
C1045 H1054 0.929 . S
C1046 N1043 1.346 . S
C1046 C1045 1.369 . S
C1046 H1049 0.928 . S
C1047 N1043 1.345 . S
C1047 C1048 1.371 . S
C1047 H1050 0.931 . S
C1048 C1044 1.391 . S
C1048 C1047 1.371 . S
C1048 H1055 0.930 . S
H1049 C1046 0.928 . S
H1050 C1047 0.931 . S
H1051 C1027 0.930 . S
H1052 C1024 0.930 . S
H1053 C1033 0.930 . S
H1054 C1045 0.929 . S
H1055 C1048 0.930 . S
H1056 C1062 0.930 . S
H1057 C1066 0.930 . S
H1058 C1071 0.929 . S
H1059 C1069 0.929 . S
H1060 C1064 0.929 . S
H1061 C1070 0.929 . S
C1062 H1056 0.930 . S
C1062 C1063 1.367 . S
C1062 C1070 1.378 . S
C1063 C1062 1.367 . S
C1063 C1071 1.433 . S
C1064 H1060 0.929 . S
C1064 C1066 1.378 . S
C1064 C1068 1.350 . S
C1065 C1068 1.463 . S
C1065 C1070 1.350 . S
C1065 N1073 1.427 . S
C1066 H1057 0.930 . S
C1066 C1064 1.378 . S
C1066 C1067 1.367 . S
C1067 C1066 1.367 . S
C1067 C1069 1.433 . S
C1068 C1064 1.350 . S
C1068 C1065 1.463 . S
C1068 N1072 1.427 . S
C1069 H1059 0.929 . S
C1069 C1067 1.433 . S
C1069 N1072 1.384 . S
C1070 H1061 0.929 . S
C1070 C1062 1.378 . S
C1070 C1065 1.350 . S
C1071 H1058 0.929 . S
C1071 C1063 1.433 . S
C1071 N1073 1.384 . S
N1072 C1068 1.427 . S
N1072 C1069 1.384 . S
N1073 C1065 1.427 . S
N1073 C1071 1.384 . S
H1074 C1080 0.930 . S
H1075 C1084 0.930 . S
H1076 C1089 0.929 . S
H1077 C1087 0.929 . S
H1078 C1082 0.929 . S
H1079 C1088 0.929 . S
C1080 H1074 0.930 . S
C1080 C1081 1.367 . S
C1080 C1088 1.378 . S
C1081 C1080 1.367 . S
C1081 C1089 1.433 . S
C1082 H1078 0.929 . S
C1082 C1084 1.378 . S
C1082 C1086 1.350 . S
C1083 C1086 1.463 . S
C1083 C1088 1.350 . S
C1083 N1091 1.427 . S
C1084 H1075 0.930 . S
C1084 C1082 1.378 . S
C1084 C1085 1.367 . S
C1085 C1084 1.367 . S
C1085 C1087 1.433 . S
C1086 C1082 1.350 . S
C1086 C1083 1.463 . S
C1086 N1090 1.427 . S
C1087 H1077 0.929 . S
C1087 C1085 1.433 . S
C1087 N1090 1.384 . S
C1088 H1079 0.929 . S
C1088 C1080 1.378 . S
C1088 C1083 1.350 . S
C1089 H1076 0.929 . S
C1089 C1081 1.433 . S
C1089 N1091 1.384 . S
N1090 C1086 1.427 . S
N1090 C1087 1.384 . S
N1091 C1083 1.427 . S
N1091 C1089 1.384 . S
H1092 C1098 0.930 . S
H1093 C1102 0.930 . S
H1094 C1107 0.929 . S
H1095 C1105 0.929 1_554 S
H1096 C1100 0.929 . S
H1097 C1106 0.929 . S
C1098 H1092 0.930 . S
C1098 C1099 1.367 . S
C1098 C1106 1.378 . S
C1099 C1098 1.367 . S
C1099 C1107 1.433 . S
C1100 H1096 0.929 . S
C1100 C1102 1.378 . S
C1100 C1104 1.350 . S
C1101 C1104 1.463 . S
C1101 C1106 1.350 . S
C1101 N1109 1.427 . S
C1102 H1093 0.930 . S
C1102 C1100 1.378 . S
C1102 C1103 1.367 . S
C1103 C1102 1.367 . S
C1103 C1105 1.433 . S
C1104 C1100 1.350 . S
C1104 C1101 1.463 . S
C1104 N1108 1.427 . S
C1105 H1095 0.929 1_556 S
C1105 C1103 1.433 . S
C1105 N1108 1.384 . S
C1106 H1097 0.929 . S
C1106 C1098 1.378 . S
C1106 C1101 1.350 . S
C1107 H1094 0.929 . S
C1107 C1099 1.433 . S
C1107 N1109 1.384 . S
N1108 C1104 1.427 . S
N1108 C1105 1.384 . S
N1109 C1101 1.427 . S
N1109 C1107 1.384 . S
H1110 C1116 0.930 . S
H1111 C1120 0.930 . S
H1112 C1125 0.929 . S
H1113 C1123 0.929 . S
H1114 C1118 0.929 . S
H1115 C1124 0.929 . S
C1116 H1110 0.930 . S
C1116 C1117 1.367 . S
C1116 C1124 1.378 . S
C1117 C1116 1.367 . S
C1117 C1125 1.433 . S
C1118 H1114 0.929 . S
C1118 C1120 1.378 . S
C1118 C1122 1.350 . S
C1119 C1122 1.463 . S
C1119 C1124 1.350 . S
C1119 N1127 1.427 . S
C1120 H1111 0.930 . S
C1120 C1118 1.378 . S
C1120 C1121 1.367 . S
C1121 C1120 1.367 . S
C1121 C1123 1.433 . S
C1122 C1118 1.350 . S
C1122 C1119 1.463 . S
C1122 N1126 1.427 . S
C1123 H1113 0.929 . S
C1123 C1121 1.433 . S
C1123 N1126 1.384 . S
C1124 H1115 0.929 . S
C1124 C1116 1.378 . S
C1124 C1119 1.350 . S
C1125 H1112 0.929 . S
C1125 C1117 1.433 . S
C1125 N1127 1.384 . S
N1126 C1122 1.427 . S
N1126 C1123 1.384 . S
N1127 C1119 1.427 . S
N1127 C1125 1.384 . S
H1128 C1134 0.930 . S
H1129 C1138 0.930 . S
H1130 C1143 0.929 . S
H1131 C1141 0.929 . S
H1132 C1136 0.929 . S
H1133 C1142 0.929 . S
C1134 H1128 0.930 . S
C1134 C1135 1.367 . S
C1134 C1142 1.378 . S
C1135 C1134 1.367 . S
C1135 C1143 1.433 . S
C1136 H1132 0.929 . S
C1136 C1138 1.378 . S
C1136 C1140 1.350 . S
C1137 C1140 1.463 . S
C1137 C1142 1.350 . S
C1137 N1145 1.427 . S
C1138 H1129 0.930 . S
C1138 C1136 1.378 . S
C1138 C1139 1.367 . S
C1139 C1138 1.367 . S
C1139 C1141 1.433 . S
C1140 C1136 1.350 . S
C1140 C1137 1.463 . S
C1140 N1144 1.427 . S
C1141 H1131 0.929 . S
C1141 C1139 1.433 . S
C1141 N1144 1.384 . S
C1142 H1133 0.929 . S
C1142 C1134 1.378 . S
C1142 C1137 1.350 . S
C1143 H1130 0.929 . S
C1143 C1135 1.433 . S
C1143 N1145 1.384 . S
N1144 C1140 1.427 . S
N1144 C1141 1.384 . S
N1145 C1137 1.427 . S
N1145 C1143 1.384 . S
H1146 C1152 0.930 . S
H1147 C1156 0.930 . S
H1148 C1161 0.929 . S
H1149 C1159 0.929 . S
H1150 C1154 0.929 . S
H1151 C1160 0.929 . S
C1152 H1146 0.930 . S
C1152 C1153 1.367 . S
C1152 C1160 1.378 . S
C1153 C1152 1.367 . S
C1153 C1161 1.433 . S
C1154 H1150 0.929 . S
C1154 C1156 1.378 . S
C1154 C1158 1.350 . S
C1155 C1158 1.463 . S
C1155 C1160 1.350 . S
C1155 N1163 1.427 . S
C1156 H1147 0.930 . S
C1156 C1154 1.378 . S
C1156 C1157 1.367 . S
C1157 C1156 1.367 . S
C1157 C1159 1.433 . S
C1158 C1154 1.350 . S
C1158 C1155 1.463 . S
C1158 N1162 1.427 . S
C1159 H1149 0.929 . S
C1159 C1157 1.433 . S
C1159 N1162 1.384 . S
C1160 H1151 0.929 . S
C1160 C1152 1.378 . S
C1160 C1155 1.350 . S
C1161 H1148 0.929 . S
C1161 C1153 1.433 . S
C1161 N1163 1.384 . S
N1162 C1158 1.427 . S
N1162 C1159 1.384 . S
N1163 C1155 1.427 . S
N1163 C1161 1.384 . S
H1164 C1170 0.930 . S
H1165 C1174 0.930 . S
H1166 C1179 0.929 . S
H1167 C1177 0.929 . S
H1168 C1172 0.929 . S
H1169 C1178 0.929 . S
C1170 H1164 0.930 . S
C1170 C1171 1.367 . S
C1170 C1178 1.378 . S
C1171 C1170 1.367 . S
C1171 C1179 1.433 . S
C1172 H1168 0.929 . S
C1172 C1174 1.378 . S
C1172 C1176 1.350 . S
C1173 C1176 1.463 . S
C1173 C1178 1.350 . S
C1173 N1181 1.427 . S
C1174 H1165 0.930 . S
C1174 C1172 1.378 . S
C1174 C1175 1.367 . S
C1175 C1174 1.367 . S
C1175 C1177 1.433 . S
C1176 C1172 1.350 . S
C1176 C1173 1.463 . S
C1176 N1180 1.427 . S
C1177 H1167 0.929 . S
C1177 C1175 1.433 . S
C1177 N1180 1.384 . S
C1178 H1169 0.929 . S
C1178 C1170 1.378 . S
C1178 C1173 1.350 . S
C1179 H1166 0.929 . S
C1179 C1171 1.433 . S
C1179 N1181 1.384 . S
N1180 C1176 1.427 . S
N1180 C1177 1.384 . S
N1181 C1173 1.427 . S
N1181 C1179 1.384 . S
H1182 C1188 0.930 . S
H1183 C1192 0.930 . S
H1184 C1197 0.929 . S
H1185 C1195 0.929 . S
H1186 C1190 0.929 . S
H1187 C1196 0.929 . S
C1188 H1182 0.930 . S
C1188 C1189 1.367 . S
C1188 C1196 1.378 . S
C1189 C1188 1.367 . S
C1189 C1197 1.433 . S
C1190 H1186 0.929 . S
C1190 C1192 1.378 . S
C1190 C1194 1.350 . S
C1191 C1194 1.463 . S
C1191 C1196 1.350 . S
C1191 N1199 1.427 . S
C1192 H1183 0.930 . S
C1192 C1190 1.378 . S
C1192 C1193 1.367 . S
C1193 C1192 1.367 . S
C1193 C1195 1.433 . S
C1194 C1190 1.350 . S
C1194 C1191 1.463 . S
C1194 N1198 1.427 . S
C1195 H1185 0.929 . S
C1195 C1193 1.433 . S
C1195 N1198 1.384 . S
C1196 H1187 0.929 . S
C1196 C1188 1.378 . S
C1196 C1191 1.350 . S
C1197 H1184 0.929 . S
C1197 C1189 1.433 . S
C1197 N1199 1.384 . S
N1198 C1194 1.427 . S
N1198 C1195 1.384 . S
N1199 C1191 1.427 . S
N1199 C1197 1.384 . S
H1200 C1206 0.930 . S
H1201 C1210 0.930 . S
H1202 C1215 0.929 . S
H1203 C1213 0.929 . S
H1204 C1208 0.929 . S
H1205 C1214 0.929 . S
C1206 H1200 0.930 . S
C1206 C1207 1.367 . S
C1206 C1214 1.378 . S
C1207 C1206 1.367 . S
C1207 C1215 1.433 . S
C1208 H1204 0.929 . S
C1208 C1210 1.378 . S
C1208 C1212 1.350 . S
C1209 C1212 1.463 . S
C1209 C1214 1.350 . S
C1209 N1217 1.427 . S
C1210 H1201 0.930 . S
C1210 C1208 1.378 . S
C1210 C1211 1.367 . S
C1211 C1210 1.367 . S
C1211 C1213 1.433 . S
C1212 C1208 1.350 . S
C1212 C1209 1.463 . S
C1212 N1216 1.427 . S
C1213 H1203 0.929 . S
C1213 C1211 1.433 . S
C1213 N1216 1.384 . S
C1214 H1205 0.929 . S
C1214 C1206 1.378 . S
C1214 C1209 1.350 . S
C1215 H1202 0.929 . S
C1215 C1207 1.433 . S
C1215 N1217 1.384 . S
N1216 C1212 1.427 . S
N1216 C1213 1.384 . S
N1217 C1209 1.427 . S
N1217 C1215 1.384 . S
H1218 C1224 0.930 . S
H1219 C1228 0.930 . S
H1220 C1233 0.929 . S
H1221 C1231 0.929 . S
H1222 C1226 0.929 . S
H1223 C1232 0.929 . S
C1224 H1218 0.930 . S
C1224 C1225 1.367 . S
C1224 C1232 1.378 . S
C1225 C1224 1.367 . S
C1225 C1233 1.433 . S
C1226 H1222 0.929 . S
C1226 C1228 1.378 . S
C1226 C1230 1.350 . S
C1227 C1230 1.463 . S
C1227 C1232 1.350 . S
C1227 N1235 1.427 . S
C1228 H1219 0.930 . S
C1228 C1226 1.378 . S
C1228 C1229 1.367 . S
C1229 C1228 1.367 . S
C1229 C1231 1.433 . S
C1230 C1226 1.350 . S
C1230 C1227 1.463 . S
C1230 N1234 1.427 . S
C1231 H1221 0.929 . S
C1231 C1229 1.433 . S
C1231 N1234 1.384 . S
C1232 H1223 0.929 . S
C1232 C1224 1.378 . S
C1232 C1227 1.350 . S
C1233 H1220 0.929 . S
C1233 C1225 1.433 . S
C1233 N1235 1.384 . S
N1234 C1230 1.427 . S
N1234 C1231 1.384 . S
N1235 C1227 1.427 . S
N1235 C1233 1.384 . S
H1236 C1242 0.930 . S
H1237 C1246 0.930 . S
H1238 C1251 0.929 . S
H1239 C1249 0.929 . S
H1240 C1244 0.929 . S
H1241 C1250 0.929 . S
C1242 H1236 0.930 . S
C1242 C1243 1.367 . S
C1242 C1250 1.378 . S
C1243 C1242 1.367 . S
C1243 C1251 1.433 . S
C1244 H1240 0.929 . S
C1244 C1246 1.378 . S
C1244 C1248 1.350 . S
C1245 C1248 1.463 . S
C1245 C1250 1.350 . S
C1245 N1253 1.427 . S
C1246 H1237 0.930 . S
C1246 C1244 1.378 . S
C1246 C1247 1.367 . S
C1247 C1246 1.367 . S
C1247 C1249 1.433 . S
C1248 C1244 1.350 . S
C1248 C1245 1.463 . S
C1248 N1252 1.427 . S
C1249 H1239 0.929 . S
C1249 C1247 1.433 . S
C1249 N1252 1.384 . S
C1250 H1241 0.929 . S
C1250 C1242 1.378 . S
C1250 C1245 1.350 . S
C1251 H1238 0.929 . S
C1251 C1243 1.433 . S
C1251 N1253 1.384 . S
N1252 C1248 1.427 . S
N1252 C1249 1.384 . S
N1253 C1245 1.427 . S
N1253 C1251 1.384 . S
H1254 C1260 0.930 . S
H1255 C1264 0.930 . S
H1256 C1269 0.929 . S
H1257 C1267 0.929 . S
H1258 C1262 0.929 . S
H1259 C1268 0.929 . S
C1260 H1254 0.930 . S
C1260 C1261 1.367 . S
C1260 C1268 1.378 . S
C1261 C1260 1.367 . S
C1261 C1269 1.433 . S
C1262 H1258 0.929 . S
C1262 C1264 1.378 . S
C1262 C1266 1.350 . S
C1263 C1266 1.463 . S
C1263 C1268 1.350 . S
C1263 N1271 1.427 . S
C1264 H1255 0.930 . S
C1264 C1262 1.378 . S
C1264 C1265 1.367 . S
C1265 C1264 1.367 . S
C1265 C1267 1.433 . S
C1266 C1262 1.350 . S
C1266 C1263 1.463 . S
C1266 N1270 1.427 . S
C1267 H1257 0.929 . S
C1267 C1265 1.433 . S
C1267 N1270 1.384 . S
C1268 H1259 0.929 . S
C1268 C1260 1.378 . S
C1268 C1263 1.350 . S
C1269 H1256 0.929 . S
C1269 C1261 1.433 . S
C1269 N1271 1.384 . S
N1270 C1266 1.427 . S
N1270 C1267 1.384 . S
N1271 C1263 1.427 . S
N1271 C1269 1.384 . S
H1272 C1278 0.930 1_556 S
H1273 C1282 0.930 . S
H1274 C1287 0.929 . S
H1275 C1285 0.929 . S
H1276 C1280 0.929 . S
H1277 C1286 0.929 . S
C1278 H1272 0.930 1_554 S
C1278 C1279 1.367 . S
C1278 C1286 1.378 . S
C1279 C1278 1.367 . S
C1279 C1287 1.433 . S
C1280 H1276 0.929 . S
C1280 C1282 1.378 . S
C1280 C1284 1.350 . S
C1281 C1284 1.463 . S
C1281 C1286 1.350 . S
C1281 N1289 1.427 . S
C1282 H1273 0.930 . S
C1282 C1280 1.378 . S
C1282 C1283 1.367 . S
C1283 C1282 1.367 . S
C1283 C1285 1.433 . S
C1284 C1280 1.350 . S
C1284 C1281 1.463 . S
C1284 N1288 1.427 . S
C1285 H1275 0.929 . S
C1285 C1283 1.433 . S
C1285 N1288 1.384 . S
C1286 H1277 0.929 . S
C1286 C1278 1.378 . S
C1286 C1281 1.350 . S
C1287 H1274 0.929 . S
C1287 C1279 1.433 . S
C1287 N1289 1.384 . S
N1288 C1284 1.427 . S
N1288 C1285 1.384 . S
N1289 C1281 1.427 . S
N1289 C1287 1.384 . S
H1290 C1296 0.930 . S
H1291 C1300 0.930 . S
H1292 C1305 0.929 . S
H1293 C1303 0.929 . S
H1294 C1298 0.929 . S
H1295 C1304 0.929 . S
C1296 H1290 0.930 . S
C1296 C1297 1.367 . S
C1296 C1304 1.378 . S
C1297 C1296 1.367 . S
C1297 C1305 1.433 . S
C1298 H1294 0.929 . S
C1298 C1300 1.378 . S
C1298 C1302 1.350 . S
C1299 C1302 1.463 . S
C1299 C1304 1.350 . S
C1299 N1307 1.427 . S
C1300 H1291 0.930 . S
C1300 C1298 1.378 . S
C1300 C1301 1.367 . S
C1301 C1300 1.367 . S
C1301 C1303 1.433 . S
C1302 C1298 1.350 . S
C1302 C1299 1.463 . S
C1302 N1306 1.427 . S
C1303 H1293 0.929 . S
C1303 C1301 1.433 . S
C1303 N1306 1.384 . S
C1304 H1295 0.929 . S
C1304 C1296 1.378 . S
C1304 C1299 1.350 . S
C1305 H1292 0.929 . S
C1305 C1297 1.433 . S
C1305 N1307 1.384 . S
N1306 C1302 1.427 . S
N1306 C1303 1.384 . S
N1307 C1299 1.427 . S
N1307 C1305 1.384 . S
H1308 C1314 0.930 . S
H1309 C1318 0.930 . S
H1310 C1323 0.929 1_554 S
H1311 C1321 0.929 . S
H1312 C1316 0.929 . S
H1313 C1322 0.929 . S
C1314 H1308 0.930 . S
C1314 C1315 1.367 . S
C1314 C1322 1.378 . S
C1315 C1314 1.367 . S
C1315 C1323 1.433 . S
C1316 H1312 0.929 . S
C1316 C1318 1.378 . S
C1316 C1320 1.350 . S
C1317 C1320 1.463 . S
C1317 C1322 1.350 . S
C1317 N1325 1.427 . S
C1318 H1309 0.930 . S
C1318 C1316 1.378 . S
C1318 C1319 1.367 . S
C1319 C1318 1.367 . S
C1319 C1321 1.433 . S
C1320 C1316 1.350 . S
C1320 C1317 1.463 . S
C1320 N1324 1.427 . S
C1321 H1311 0.929 . S
C1321 C1319 1.433 . S
C1321 N1324 1.384 . S
C1322 H1313 0.929 . S
C1322 C1314 1.378 . S
C1322 C1317 1.350 . S
C1323 H1310 0.929 1_556 S
C1323 C1315 1.433 . S
C1323 N1325 1.384 . S
N1324 C1320 1.427 . S
N1324 C1321 1.384 . S
N1325 C1317 1.427 . S
N1325 C1323 1.384 . S
H1326 C1332 0.930 . S
H1327 C1336 0.930 . S
H1328 C1341 0.929 . S
H1329 C1339 0.929 . S
H1330 C1334 0.929 . S
H1331 C1340 0.929 . S
C1332 H1326 0.930 . S
C1332 C1333 1.367 . S
C1332 C1340 1.378 . S
C1333 C1332 1.367 . S
C1333 C1341 1.433 . S
C1334 H1330 0.929 . S
C1334 C1336 1.378 . S
C1334 C1338 1.350 . S
C1335 C1338 1.463 . S
C1335 C1340 1.350 . S
C1335 N1343 1.427 . S
C1336 H1327 0.930 . S
C1336 C1334 1.378 . S
C1336 C1337 1.367 . S
C1337 C1336 1.367 . S
C1337 C1339 1.433 . S
C1338 C1334 1.350 . S
C1338 C1335 1.463 . S
C1338 N1342 1.427 . S
C1339 H1329 0.929 . S
C1339 C1337 1.433 . S
C1339 N1342 1.384 . S
C1340 H1331 0.929 . S
C1340 C1332 1.378 . S
C1340 C1335 1.350 . S
C1341 H1328 0.929 . S
C1341 C1333 1.433 . S
C1341 N1343 1.384 . S
N1342 C1338 1.427 . S
N1342 C1339 1.384 . S
N1343 C1335 1.427 . S
N1343 C1341 1.384 . S
H1344 C1350 0.930 . S
H1345 C1354 0.930 . S
H1346 C1359 0.929 . S
H1347 C1357 0.929 . S
H1348 C1352 0.929 . S
H1349 C1358 0.929 . S
C1350 H1344 0.930 . S
C1350 C1351 1.367 . S
C1350 C1358 1.378 . S
C1351 C1350 1.367 . S
C1351 C1359 1.433 . S
C1352 H1348 0.929 . S
C1352 C1354 1.378 . S
C1352 C1356 1.350 . S
C1353 C1356 1.463 . S
C1353 C1358 1.350 . S
C1353 N1361 1.427 . S
C1354 H1345 0.930 . S
C1354 C1352 1.378 . S
C1354 C1355 1.367 . S
C1355 C1354 1.367 . S
C1355 C1357 1.433 . S
C1356 C1352 1.350 . S
C1356 C1353 1.463 . S
C1356 N1360 1.427 . S
C1357 H1347 0.929 . S
C1357 C1355 1.433 . S
C1357 N1360 1.384 . S
C1358 H1349 0.929 . S
C1358 C1350 1.378 . S
C1358 C1353 1.350 . S
C1359 H1346 0.929 . S
C1359 C1351 1.433 . S
C1359 N1361 1.384 . S
N1360 C1356 1.427 . S
N1360 C1357 1.384 . S
N1361 C1353 1.427 . S
N1361 C1359 1.384 . S
H1362 C1368 0.930 . S
H1363 C1372 0.930 . S
H1364 C1377 0.929 . S
H1365 C1375 0.929 . S
H1366 C1370 0.929 . S
H1367 C1376 0.929 . S
C1368 H1362 0.930 . S
C1368 C1369 1.367 . S
C1368 C1376 1.378 . S
C1369 C1368 1.367 . S
C1369 C1377 1.433 . S
C1370 H1366 0.929 . S
C1370 C1372 1.378 . S
C1370 C1374 1.350 . S
C1371 C1374 1.463 . S
C1371 C1376 1.350 . S
C1371 N1379 1.427 . S
C1372 H1363 0.930 . S
C1372 C1370 1.378 . S
C1372 C1373 1.367 . S
C1373 C1372 1.367 . S
C1373 C1375 1.433 . S
C1374 C1370 1.350 . S
C1374 C1371 1.463 . S
C1374 N1378 1.427 . S
C1375 H1365 0.929 . S
C1375 C1373 1.433 . S
C1375 N1378 1.384 . S
C1376 H1367 0.929 . S
C1376 C1368 1.378 . S
C1376 C1371 1.350 . S
C1377 H1364 0.929 . S
C1377 C1369 1.433 . S
C1377 N1379 1.384 . S
N1378 C1374 1.427 . S
N1378 C1375 1.384 . S
N1379 C1371 1.427 . S
N1379 C1377 1.384 . S
H1380 C1386 0.930 . S
H1381 C1390 0.930 . S
H1382 C1395 0.929 . S
H1383 C1393 0.929 . S
H1384 C1388 0.929 . S
H1385 C1394 0.929 . S
C1386 H1380 0.930 . S
C1386 C1387 1.367 . S
C1386 C1394 1.378 . S
C1387 C1386 1.367 . S
C1387 C1395 1.433 . S
C1388 H1384 0.929 . S
C1388 C1390 1.378 . S
C1388 C1392 1.350 . S
C1389 C1392 1.463 . S
C1389 C1394 1.350 . S
C1389 N1397 1.427 . S
C1390 H1381 0.930 . S
C1390 C1388 1.378 . S
C1390 C1391 1.367 . S
C1391 C1390 1.367 . S
C1391 C1393 1.433 . S
C1392 C1388 1.350 . S
C1392 C1389 1.463 . S
C1392 N1396 1.427 . S
C1393 H1383 0.929 . S
C1393 C1391 1.433 . S
C1393 N1396 1.384 . S
C1394 H1385 0.929 . S
C1394 C1386 1.378 . S
C1394 C1389 1.350 . S
C1395 H1382 0.929 . S
C1395 C1387 1.433 . S
C1395 N1397 1.384 . S
N1396 C1392 1.427 . S
N1396 C1393 1.384 . S
N1397 C1389 1.427 . S
N1397 C1395 1.384 . S
H1398 C1404 0.930 . S
H1399 C1408 0.930 . S
H1400 C1413 0.929 . S
H1401 C1411 0.929 . S
H1402 C1406 0.929 . S
H1403 C1412 0.929 . S
C1404 H1398 0.930 . S
C1404 C1405 1.367 . S
C1404 C1412 1.378 . S
C1405 C1404 1.367 . S
C1405 C1413 1.433 . S
C1406 H1402 0.929 . S
C1406 C1408 1.378 . S
C1406 C1410 1.350 . S
C1407 C1410 1.463 . S
C1407 C1412 1.350 . S
C1407 N1415 1.427 . S
C1408 H1399 0.930 . S
C1408 C1406 1.378 . S
C1408 C1409 1.367 . S
C1409 C1408 1.367 . S
C1409 C1411 1.433 . S
C1410 C1406 1.350 . S
C1410 C1407 1.463 . S
C1410 N1414 1.427 . S
C1411 H1401 0.929 . S
C1411 C1409 1.433 . S
C1411 N1414 1.384 . S
C1412 H1403 0.929 . S
C1412 C1404 1.378 . S
C1412 C1407 1.350 . S
C1413 H1400 0.929 . S
C1413 C1405 1.433 . S
C1413 N1415 1.384 . S
N1414 C1410 1.427 . S
N1414 C1411 1.384 . S
N1415 C1407 1.427 . S
N1415 C1413 1.384 . S
H1416 C1422 0.930 . S
H1417 C1426 0.930 . S
H1418 C1431 0.929 . S
H1419 C1429 0.929 . S
H1420 C1424 0.929 . S
H1421 C1430 0.929 . S
C1422 H1416 0.930 . S
C1422 C1423 1.367 . S
C1422 C1430 1.378 . S
C1423 C1422 1.367 . S
C1423 C1431 1.433 . S
C1424 H1420 0.929 . S
C1424 C1426 1.378 . S
C1424 C1428 1.350 . S
C1425 C1428 1.463 . S
C1425 C1430 1.350 . S
C1425 N1433 1.427 . S
C1426 H1417 0.930 . S
C1426 C1424 1.378 . S
C1426 C1427 1.367 . S
C1427 C1426 1.367 . S
C1427 C1429 1.433 . S
C1428 C1424 1.350 . S
C1428 C1425 1.463 . S
C1428 N1432 1.427 . S
C1429 H1419 0.929 . S
C1429 C1427 1.433 . S
C1429 N1432 1.384 . S
C1430 H1421 0.929 . S
C1430 C1422 1.378 . S
C1430 C1425 1.350 . S
C1431 H1418 0.929 . S
C1431 C1423 1.433 . S
C1431 N1433 1.384 . S
N1432 C1428 1.427 . S
N1432 C1429 1.384 . S
N1433 C1425 1.427 . S
N1433 C1431 1.384 . S
H1434 C1440 0.930 . S
H1435 C1444 0.930 . S
H1436 C1449 0.929 . S
H1437 C1447 0.929 . S
H1438 C1442 0.929 . S
H1439 C1448 0.929 . S
C1440 H1434 0.930 . S
C1440 C1441 1.367 . S
C1440 C1448 1.378 . S
C1441 C1440 1.367 . S
C1441 C1449 1.433 . S
C1442 H1438 0.929 . S
C1442 C1444 1.378 . S
C1442 C1446 1.350 . S
C1443 C1446 1.463 . S
C1443 C1448 1.350 . S
C1443 N1451 1.427 . S
C1444 H1435 0.930 . S
C1444 C1442 1.378 . S
C1444 C1445 1.367 . S
C1445 C1444 1.367 . S
C1445 C1447 1.433 . S
C1446 C1442 1.350 . S
C1446 C1443 1.463 . S
C1446 N1450 1.427 . S
C1447 H1437 0.929 . S
C1447 C1445 1.433 . S
C1447 N1450 1.384 . S
C1448 H1439 0.929 . S
C1448 C1440 1.378 . S
C1448 C1443 1.350 . S
C1449 H1436 0.929 . S
C1449 C1441 1.433 . S
C1449 N1451 1.384 . S
N1450 C1446 1.427 . S
N1450 C1447 1.384 . S
N1451 C1443 1.427 . S
N1451 C1449 1.384 . S
H1452 C1458 0.930 . S
H1453 C1462 0.930 . S
H1454 C1467 0.929 . S
H1455 C1465 0.929 . S
H1456 C1460 0.929 . S
H1457 C1466 0.929 . S
C1458 H1452 0.930 . S
C1458 C1459 1.367 . S
C1458 C1466 1.378 . S
C1459 C1458 1.367 . S
C1459 C1467 1.433 . S
C1460 H1456 0.929 . S
C1460 C1462 1.378 . S
C1460 C1464 1.350 . S
C1461 C1464 1.463 . S
C1461 C1466 1.350 . S
C1461 N1469 1.427 . S
C1462 H1453 0.930 . S
C1462 C1460 1.378 . S
C1462 C1463 1.367 . S
C1463 C1462 1.367 . S
C1463 C1465 1.433 . S
C1464 C1460 1.350 . S
C1464 C1461 1.463 . S
C1464 N1468 1.427 . S
C1465 H1455 0.929 . S
C1465 C1463 1.433 . S
C1465 N1468 1.384 . S
C1466 H1457 0.929 . S
C1466 C1458 1.378 . S
C1466 C1461 1.350 . S
C1467 H1454 0.929 . S
C1467 C1459 1.433 . S
C1467 N1469 1.384 . S
N1468 C1464 1.427 . S
N1468 C1465 1.384 . S
N1469 C1461 1.427 . S
N1469 C1467 1.384 . S
H1470 C1476 0.930 . S
H1471 C1480 0.930 . S
H1472 C1485 0.929 . S
H1473 C1483 0.929 . S
H1474 C1478 0.929 . S
H1475 C1484 0.929 . S
C1476 H1470 0.930 . S
C1476 C1477 1.367 . S
C1476 C1484 1.378 . S
C1477 C1476 1.367 . S
C1477 C1485 1.433 . S
C1478 H1474 0.929 . S
C1478 C1480 1.378 . S
C1478 C1482 1.350 . S
C1479 C1482 1.463 . S
C1479 C1484 1.350 . S
C1479 N1487 1.427 . S
C1480 H1471 0.930 . S
C1480 C1478 1.378 . S
C1480 C1481 1.367 . S
C1481 C1480 1.367 . S
C1481 C1483 1.433 . S
C1482 C1478 1.350 . S
C1482 C1479 1.463 . S
C1482 N1486 1.427 . S
C1483 H1473 0.929 . S
C1483 C1481 1.433 . S
C1483 N1486 1.384 . S
C1484 H1475 0.929 . S
C1484 C1476 1.378 . S
C1484 C1479 1.350 . S
C1485 H1472 0.929 . S
C1485 C1477 1.433 . S
C1485 N1487 1.384 . S
N1486 C1482 1.427 . S
N1486 C1483 1.384 . S
N1487 C1479 1.427 . S
N1487 C1485 1.384 . S
H1488 C1494 0.930 . S
H1489 C1498 0.930 . S
H1490 C1503 0.929 . S
H1491 C1501 0.929 . S
H1492 C1496 0.929 . S
H1493 C1502 0.929 . S
C1494 H1488 0.930 . S
C1494 C1495 1.367 . S
C1494 C1502 1.378 . S
C1495 C1494 1.367 . S
C1495 C1503 1.433 . S
C1496 H1492 0.929 . S
C1496 C1498 1.378 . S
C1496 C1500 1.350 . S
C1497 C1500 1.463 . S
C1497 C1502 1.350 . S
C1497 N1505 1.427 . S
C1498 H1489 0.930 . S
C1498 C1496 1.378 . S
C1498 C1499 1.367 . S
C1499 C1498 1.367 . S
C1499 C1501 1.433 . S
C1500 C1496 1.350 . S
C1500 C1497 1.463 . S
C1500 N1504 1.427 . S
C1501 H1491 0.929 . S
C1501 C1499 1.433 . S
C1501 N1504 1.384 . S
C1502 H1493 0.929 . S
C1502 C1494 1.378 . S
C1502 C1497 1.350 . S
C1503 H1490 0.929 . S
C1503 C1495 1.433 . S
C1503 N1505 1.384 . S
N1504 C1500 1.427 . S
N1504 C1501 1.384 . S
N1505 C1497 1.427 . S
N1505 C1503 1.384 . S
H1506 C1512 0.930 . S
H1507 C1516 0.930 . S
H1508 C1521 0.929 . S
H1509 C1519 0.929 . S
H1510 C1514 0.929 . S
H1511 C1520 0.929 . S
C1512 H1506 0.930 . S
C1512 C1513 1.367 . S
C1512 C1520 1.378 . S
C1513 C1512 1.367 . S
C1513 C1521 1.433 . S
C1514 H1510 0.929 . S
C1514 C1516 1.378 . S
C1514 C1518 1.350 . S
C1515 C1518 1.463 . S
C1515 C1520 1.350 . S
C1515 N1523 1.427 . S
C1516 H1507 0.930 . S
C1516 C1514 1.378 . S
C1516 C1517 1.367 . S
C1517 C1516 1.367 . S
C1517 C1519 1.433 . S
C1518 C1514 1.350 . S
C1518 C1515 1.463 . S
C1518 N1522 1.427 . S
C1519 H1509 0.929 . S
C1519 C1517 1.433 . S
C1519 N1522 1.384 . S
C1520 H1511 0.929 . S
C1520 C1512 1.378 . S
C1520 C1515 1.350 . S
C1521 H1508 0.929 . S
C1521 C1513 1.433 . S
C1521 N1523 1.384 . S
N1522 C1518 1.427 . S
N1522 C1519 1.384 . S
N1523 C1515 1.427 . S
N1523 C1521 1.384 . S
H1524 C1530 0.930 . S
H1525 C1534 0.930 . S
H1526 C1539 0.929 . S
H1527 C1537 0.929 . S
H1528 C1532 0.929 . S
H1529 C1538 0.929 . S
C1530 H1524 0.930 . S
C1530 C1531 1.367 . S
C1530 C1538 1.378 . S
C1531 C1530 1.367 . S
C1531 C1539 1.433 . S
C1532 H1528 0.929 . S
C1532 C1534 1.378 . S
C1532 C1536 1.350 . S
C1533 C1536 1.463 . S
C1533 C1538 1.350 . S
C1533 N1541 1.427 . S
C1534 H1525 0.930 . S
C1534 C1532 1.378 . S
C1534 C1535 1.367 . S
C1535 C1534 1.367 . S
C1535 C1537 1.433 . S
C1536 C1532 1.350 . S
C1536 C1533 1.463 . S
C1536 N1540 1.427 . S
C1537 H1527 0.929 . S
C1537 C1535 1.433 . S
C1537 N1540 1.384 . S
C1538 H1529 0.929 . S
C1538 C1530 1.378 . S
C1538 C1533 1.350 . S
C1539 H1526 0.929 . S
C1539 C1531 1.433 . S
C1539 N1541 1.384 . S
N1540 C1536 1.427 . S
N1540 C1537 1.384 . S
N1541 C1533 1.427 . S
N1541 C1539 1.384 . S
H1542 C1548 0.930 . S
H1543 C1552 0.930 . S
H1544 C1557 0.929 . S
H1545 C1555 0.929 . S
H1546 C1550 0.929 . S
H1547 C1556 0.929 . S
C1548 H1542 0.930 . S
C1548 C1549 1.367 . S
C1548 C1556 1.378 . S
C1549 C1548 1.367 . S
C1549 C1557 1.433 . S
C1550 H1546 0.929 . S
C1550 C1552 1.378 . S
C1550 C1554 1.350 . S
C1551 C1554 1.463 . S
C1551 C1556 1.350 . S
C1551 N1559 1.427 . S
C1552 H1543 0.930 . S
C1552 C1550 1.378 . S
C1552 C1553 1.367 . S
C1553 C1552 1.367 . S
C1553 C1555 1.433 . S
C1554 C1550 1.350 . S
C1554 C1551 1.463 . S
C1554 N1558 1.427 . S
C1555 H1545 0.929 . S
C1555 C1553 1.433 . S
C1555 N1558 1.384 . S
C1556 H1547 0.929 . S
C1556 C1548 1.378 . S
C1556 C1551 1.350 . S
C1557 H1544 0.929 . S
C1557 C1549 1.433 . S
C1557 N1559 1.384 . S
N1558 C1554 1.427 . S
N1558 C1555 1.384 . S
N1559 C1551 1.427 . S
N1559 C1557 1.384 . S
H1560 C1566 0.930 . S
H1561 C1570 0.930 . S
H1562 C1575 0.929 . S
H1563 C1573 0.929 . S
H1564 C1568 0.929 . S
H1565 C1574 0.929 . S
C1566 H1560 0.930 . S
C1566 C1567 1.367 . S
C1566 C1574 1.378 . S
C1567 C1566 1.367 . S
C1567 C1575 1.433 . S
C1568 H1564 0.929 . S
C1568 C1570 1.378 . S
C1568 C1572 1.350 . S
C1569 C1572 1.463 . S
C1569 C1574 1.350 . S
C1569 N1577 1.427 . S
C1570 H1561 0.930 . S
C1570 C1568 1.378 . S
C1570 C1571 1.367 . S
C1571 C1570 1.367 . S
C1571 C1573 1.433 . S
C1572 C1568 1.350 . S
C1572 C1569 1.463 . S
C1572 N1576 1.427 . S
C1573 H1563 0.929 . S
C1573 C1571 1.433 . S
C1573 N1576 1.384 . S
C1574 H1565 0.929 . S
C1574 C1566 1.378 . S
C1574 C1569 1.350 . S
C1575 H1562 0.929 . S
C1575 C1567 1.433 . S
C1575 N1577 1.384 . S
N1576 C1572 1.427 . S
N1576 C1573 1.384 . S
N1577 C1569 1.427 . S
N1577 C1575 1.384 . S
H1578 C1584 0.930 . S
H1579 C1588 0.930 . S
H1580 C1593 0.929 . S
H1581 C1591 0.929 . S
H1582 C1586 0.929 . S
H1583 C1592 0.929 . S
C1584 H1578 0.930 . S
C1584 C1585 1.367 . S
C1584 C1592 1.378 . S
C1585 C1584 1.367 . S
C1585 C1593 1.433 . S
C1586 H1582 0.929 . S
C1586 C1588 1.378 . S
C1586 C1590 1.350 . S
C1587 C1590 1.463 . S
C1587 C1592 1.350 . S
C1587 N1595 1.427 . S
C1588 H1579 0.930 . S
C1588 C1586 1.378 . S
C1588 C1589 1.367 . S
C1589 C1588 1.367 . S
C1589 C1591 1.433 . S
C1590 C1586 1.350 . S
C1590 C1587 1.463 . S
C1590 N1594 1.427 . S
C1591 H1581 0.929 . S
C1591 C1589 1.433 . S
C1591 N1594 1.384 . S
C1592 H1583 0.929 . S
C1592 C1584 1.378 . S
C1592 C1587 1.350 . S
C1593 H1580 0.929 . S
C1593 C1585 1.433 . S
C1593 N1595 1.384 . S
N1594 C1590 1.427 . S
N1594 C1591 1.384 . S
N1595 C1587 1.427 . S
N1595 C1593 1.384 . S
H1596 C1602 0.930 . S
H1597 C1606 0.930 . S
H1598 C1611 0.929 . S
H1599 C1609 0.929 . S
H1600 C1604 0.929 . S
H1601 C1610 0.929 . S
C1602 H1596 0.930 . S
C1602 C1603 1.367 . S
C1602 C1610 1.378 . S
C1603 C1602 1.367 . S
C1603 C1611 1.433 . S
C1604 H1600 0.929 . S
C1604 C1606 1.378 . S
C1604 C1608 1.350 . S
C1605 C1608 1.463 . S
C1605 C1610 1.350 . S
C1605 N1613 1.427 . S
C1606 H1597 0.930 . S
C1606 C1604 1.378 . S
C1606 C1607 1.367 . S
C1607 C1606 1.367 . S
C1607 C1609 1.433 . S
C1608 C1604 1.350 . S
C1608 C1605 1.463 . S
C1608 N1612 1.427 . S
C1609 H1599 0.929 . S
C1609 C1607 1.433 . S
C1609 N1612 1.384 . S
C1610 H1601 0.929 . S
C1610 C1602 1.378 . S
C1610 C1605 1.350 . S
C1611 H1598 0.929 . S
C1611 C1603 1.433 . S
C1611 N1613 1.384 . S
N1612 C1608 1.427 . S
N1612 C1609 1.384 . S
N1613 C1605 1.427 . S
N1613 C1611 1.384 . S
H1614 C1620 0.930 . S
H1615 C1624 0.930 . S
H1616 C1629 0.929 . S
H1617 C1627 0.929 . S
H1618 C1622 0.929 . S
H1619 C1628 0.929 . S
C1620 H1614 0.930 . S
C1620 C1621 1.367 . S
C1620 C1628 1.378 . S
C1621 C1620 1.367 . S
C1621 C1629 1.433 . S
C1622 H1618 0.929 . S
C1622 C1624 1.378 . S
C1622 C1626 1.350 . S
C1623 C1626 1.463 . S
C1623 C1628 1.350 . S
C1623 N1631 1.427 . S
C1624 H1615 0.930 . S
C1624 C1622 1.378 . S
C1624 C1625 1.367 . S
C1625 C1624 1.367 . S
C1625 C1627 1.433 . S
C1626 C1622 1.350 . S
C1626 C1623 1.463 . S
C1626 N1630 1.427 . S
C1627 H1617 0.929 . S
C1627 C1625 1.433 . S
C1627 N1630 1.384 . S
C1628 H1619 0.929 . S
C1628 C1620 1.378 . S
C1628 C1623 1.350 . S
C1629 H1616 0.929 . S
C1629 C1621 1.433 . S
C1629 N1631 1.384 . S
N1630 C1626 1.427 . S
N1630 C1627 1.384 . S
N1631 C1623 1.427 . S
N1631 C1629 1.384 . S
H1632 C1638 0.930 . S
H1633 C1642 0.930 . S
H1634 C1647 0.929 . S
H1635 C1645 0.929 . S
H1636 C1640 0.929 . S
H1637 C1646 0.929 . S
C1638 H1632 0.930 . S
C1638 C1639 1.367 . S
C1638 C1646 1.378 . S
C1639 C1638 1.367 . S
C1639 C1647 1.433 . S
C1640 H1636 0.929 . S
C1640 C1642 1.378 . S
C1640 C1644 1.350 . S
C1641 C1644 1.463 . S
C1641 C1646 1.350 . S
C1641 N1649 1.427 . S
C1642 H1633 0.930 . S
C1642 C1640 1.378 . S
C1642 C1643 1.367 . S
C1643 C1642 1.367 . S
C1643 C1645 1.433 . S
C1644 C1640 1.350 . S
C1644 C1641 1.463 . S
C1644 N1648 1.427 . S
C1645 H1635 0.929 . S
C1645 C1643 1.433 . S
C1645 N1648 1.384 . S
C1646 H1637 0.929 . S
C1646 C1638 1.378 . S
C1646 C1641 1.350 . S
C1647 H1634 0.929 . S
C1647 C1639 1.433 . S
C1647 N1649 1.384 . S
N1648 C1644 1.427 . S
N1648 C1645 1.384 . S
N1649 C1641 1.427 . S
N1649 C1647 1.384 . S
H1650 C1656 0.930 . S
H1651 C1660 0.930 . S
H1652 C1665 0.929 . S
H1653 C1663 0.929 . S
H1654 C1658 0.929 . S
H1655 C1664 0.929 . S
C1656 H1650 0.930 . S
C1656 C1657 1.367 . S
C1656 C1664 1.378 . S
C1657 C1656 1.367 . S
C1657 C1665 1.433 . S
C1658 H1654 0.929 . S
C1658 C1660 1.378 . S
C1658 C1662 1.350 . S
C1659 C1662 1.463 . S
C1659 C1664 1.350 . S
C1659 N1667 1.427 . S
C1660 H1651 0.930 . S
C1660 C1658 1.378 . S
C1660 C1661 1.367 . S
C1661 C1660 1.367 . S
C1661 C1663 1.433 . S
C1662 C1658 1.350 . S
C1662 C1659 1.463 . S
C1662 N1666 1.427 . S
C1663 H1653 0.929 . S
C1663 C1661 1.433 . S
C1663 N1666 1.384 . S
C1664 H1655 0.929 . S
C1664 C1656 1.378 . S
C1664 C1659 1.350 . S
C1665 H1652 0.929 . S
C1665 C1657 1.433 . S
C1665 N1667 1.384 . S
N1666 C1662 1.427 . S
N1666 C1663 1.384 . S
N1667 C1659 1.427 . S
N1667 C1665 1.384 . S
H1668 C1674 0.930 . S
H1669 C1678 0.930 . S
H1670 C1683 0.929 . S
H1671 C1681 0.929 . S
H1672 C1676 0.929 . S
H1673 C1682 0.929 . S
C1674 H1668 0.930 . S
C1674 C1675 1.367 . S
C1674 C1682 1.378 . S
C1675 C1674 1.367 . S
C1675 C1683 1.433 . S
C1676 H1672 0.929 . S
C1676 C1678 1.378 . S
C1676 C1680 1.350 . S
C1677 C1680 1.463 . S
C1677 C1682 1.350 . S
C1677 N1685 1.427 . S
C1678 H1669 0.930 . S
C1678 C1676 1.378 . S
C1678 C1679 1.367 . S
C1679 C1678 1.367 . S
C1679 C1681 1.433 . S
C1680 C1676 1.350 . S
C1680 C1677 1.463 . S
C1680 N1684 1.427 . S
C1681 H1671 0.929 . S
C1681 C1679 1.433 . S
C1681 N1684 1.384 . S
C1682 H1673 0.929 . S
C1682 C1674 1.378 . S
C1682 C1677 1.350 . S
C1683 H1670 0.929 . S
C1683 C1675 1.433 . S
C1683 N1685 1.384 . S
N1684 C1680 1.427 . S
N1684 C1681 1.384 . S
N1685 C1677 1.427 . S
N1685 C1683 1.384 . S
H1686 C1692 0.930 . S
H1687 C1696 0.930 . S
H1688 C1701 0.929 . S
H1689 C1699 0.929 . S
H1690 C1694 0.929 . S
H1691 C1700 0.929 . S
C1692 H1686 0.930 . S
C1692 C1693 1.367 . S
C1692 C1700 1.378 . S
C1693 C1692 1.367 . S
C1693 C1701 1.433 . S
C1694 H1690 0.929 . S
C1694 C1696 1.378 . S
C1694 C1698 1.350 . S
C1695 C1698 1.463 . S
C1695 C1700 1.350 . S
C1695 N1703 1.427 . S
C1696 H1687 0.930 . S
C1696 C1694 1.378 . S
C1696 C1697 1.367 . S
C1697 C1696 1.367 . S
C1697 C1699 1.433 . S
C1698 C1694 1.350 . S
C1698 C1695 1.463 . S
C1698 N1702 1.427 . S
C1699 H1689 0.929 . S
C1699 C1697 1.433 . S
C1699 N1702 1.384 . S
C1700 H1691 0.929 . S
C1700 C1692 1.378 . S
C1700 C1695 1.350 . S
C1701 H1688 0.929 . S
C1701 C1693 1.433 . S
C1701 N1703 1.384 . S
N1702 C1698 1.427 . S
N1702 C1699 1.384 . S
N1703 C1695 1.427 . S
N1703 C1701 1.384 . S
H1704 C1710 0.930 . S
H1705 C1714 0.930 . S
H1706 C1719 0.929 . S
H1707 C1717 0.929 . S
H1708 C1712 0.929 . S
H1709 C1718 0.929 . S
C1710 H1704 0.930 . S
C1710 C1711 1.367 . S
C1710 C1718 1.378 . S
C1711 C1710 1.367 . S
C1711 C1719 1.433 . S
C1712 H1708 0.929 . S
C1712 C1714 1.378 . S
C1712 C1716 1.350 . S
C1713 C1716 1.463 . S
C1713 C1718 1.350 . S
C1713 N1721 1.427 . S
C1714 H1705 0.930 . S
C1714 C1712 1.378 . S
C1714 C1715 1.367 . S
C1715 C1714 1.367 . S
C1715 C1717 1.433 . S
C1716 C1712 1.350 . S
C1716 C1713 1.463 . S
C1716 N1720 1.427 . S
C1717 H1707 0.929 . S
C1717 C1715 1.433 . S
C1717 N1720 1.384 . S
C1718 H1709 0.929 . S
C1718 C1710 1.378 . S
C1718 C1713 1.350 . S
C1719 H1706 0.929 . S
C1719 C1711 1.433 . S
C1719 N1721 1.384 . S
N1720 C1716 1.427 . S
N1720 C1717 1.384 . S
N1721 C1713 1.427 . S
N1721 C1719 1.384 . S
H1722 C1728 0.930 . S
H1723 C1732 0.930 . S
H1724 C1737 0.929 . S
H1725 C1735 0.929 . S
H1726 C1730 0.929 . S
H1727 C1736 0.929 . S
C1728 H1722 0.930 . S
C1728 C1729 1.367 . S
C1728 C1736 1.378 . S
C1729 C1728 1.367 . S
C1729 C1737 1.433 . S
C1730 H1726 0.929 . S
C1730 C1732 1.378 . S
C1730 C1734 1.350 . S
C1731 C1734 1.463 . S
C1731 C1736 1.350 . S
C1731 N1739 1.427 . S
C1732 H1723 0.930 . S
C1732 C1730 1.378 . S
C1732 C1733 1.367 . S
C1733 C1732 1.367 . S
C1733 C1735 1.433 . S
C1734 C1730 1.350 . S
C1734 C1731 1.463 . S
C1734 N1738 1.427 . S
C1735 H1725 0.929 . S
C1735 C1733 1.433 . S
C1735 N1738 1.384 . S
C1736 H1727 0.929 . S
C1736 C1728 1.378 . S
C1736 C1731 1.350 . S
C1737 H1724 0.929 . S
C1737 C1729 1.433 . S
C1737 N1739 1.384 . S
N1738 C1734 1.427 . S
N1738 C1735 1.384 . S
N1739 C1731 1.427 . S
N1739 C1737 1.384 . S
H1740 C1746 0.930 . S
H1741 C1750 0.930 . S
H1742 C1755 0.929 . S
H1743 C1753 0.929 . S
H1744 C1748 0.929 . S
H1745 C1754 0.929 . S
C1746 H1740 0.930 . S
C1746 C1747 1.367 . S
C1746 C1754 1.378 . S
C1747 C1746 1.367 . S
C1747 C1755 1.433 . S
C1748 H1744 0.929 . S
C1748 C1750 1.378 . S
C1748 C1752 1.350 . S
C1749 C1752 1.463 . S
C1749 C1754 1.350 . S
C1749 N1757 1.427 . S
C1750 H1741 0.930 . S
C1750 C1748 1.378 . S
C1750 C1751 1.367 . S
C1751 C1750 1.367 . S
C1751 C1753 1.433 . S
C1752 C1748 1.350 . S
C1752 C1749 1.463 . S
C1752 N1756 1.427 . S
C1753 H1743 0.929 . S
C1753 C1751 1.433 . S
C1753 N1756 1.384 . S
C1754 H1745 0.929 . S
C1754 C1746 1.378 . S
C1754 C1749 1.350 . S
C1755 H1742 0.929 . S
C1755 C1747 1.433 . S
C1755 N1757 1.384 . S
N1756 C1752 1.427 . S
N1756 C1753 1.384 . S
N1757 C1749 1.427 . S
N1757 C1755 1.384 . S
H1758 C1764 0.930 . S
H1759 C1768 0.930 . S
H1760 C1773 0.929 . S
H1761 C1771 0.929 . S
H1762 C1766 0.929 . S
H1763 C1772 0.929 . S
C1764 H1758 0.930 . S
C1764 C1765 1.367 . S
C1764 C1772 1.378 . S
C1765 C1764 1.367 . S
C1765 C1773 1.433 . S
C1766 H1762 0.929 . S
C1766 C1768 1.378 . S
C1766 C1770 1.350 . S
C1767 C1770 1.463 . S
C1767 C1772 1.350 . S
C1767 N1775 1.427 . S
C1768 H1759 0.930 . S
C1768 C1766 1.378 . S
C1768 C1769 1.367 . S
C1769 C1768 1.367 . S
C1769 C1771 1.433 . S
C1770 C1766 1.350 . S
C1770 C1767 1.463 . S
C1770 N1774 1.427 . S
C1771 H1761 0.929 . S
C1771 C1769 1.433 . S
C1771 N1774 1.384 . S
C1772 H1763 0.929 . S
C1772 C1764 1.378 . S
C1772 C1767 1.350 . S
C1773 H1760 0.929 . S
C1773 C1765 1.433 . S
C1773 N1775 1.384 . S
N1774 C1770 1.427 . S
N1774 C1771 1.384 . S
N1775 C1767 1.427 . S
N1775 C1773 1.384 . S
H1776 C1782 0.930 . S
H1777 C1786 0.930 . S
H1778 C1791 0.929 . S
H1779 C1789 0.929 . S
H1780 C1784 0.929 . S
H1781 C1790 0.929 . S
C1782 H1776 0.930 . S
C1782 C1783 1.367 . S
C1782 C1790 1.378 . S
C1783 C1782 1.367 . S
C1783 C1791 1.433 . S
C1784 H1780 0.929 . S
C1784 C1786 1.378 . S
C1784 C1788 1.350 . S
C1785 C1788 1.463 . S
C1785 C1790 1.350 . S
C1785 N1793 1.427 . S
C1786 H1777 0.930 . S
C1786 C1784 1.378 . S
C1786 C1787 1.367 . S
C1787 C1786 1.367 . S
C1787 C1789 1.433 . S
C1788 C1784 1.350 . S
C1788 C1785 1.463 . S
C1788 N1792 1.427 . S
C1789 H1779 0.929 . S
C1789 C1787 1.433 . S
C1789 N1792 1.384 . S
C1790 H1781 0.929 . S
C1790 C1782 1.378 . S
C1790 C1785 1.350 . S
C1791 H1778 0.929 . S
C1791 C1783 1.433 . S
C1791 N1793 1.384 . S
N1792 C1788 1.427 . S
N1792 C1789 1.384 . S
N1793 C1785 1.427 . S
N1793 C1791 1.384 . S
H1794 C1800 0.930 . S
H1795 C1804 0.930 . S
H1796 C1809 0.929 . S
H1797 C1807 0.929 . S
H1798 C1802 0.929 . S
H1799 C1808 0.929 . S
C1800 H1794 0.930 . S
C1800 C1801 1.367 . S
C1800 C1808 1.378 . S
C1801 C1800 1.367 . S
C1801 C1809 1.433 . S
C1802 H1798 0.929 . S
C1802 C1804 1.378 . S
C1802 C1806 1.350 . S
C1803 C1806 1.463 . S
C1803 C1808 1.350 . S
C1803 N1811 1.427 . S
C1804 H1795 0.930 . S
C1804 C1802 1.378 . S
C1804 C1805 1.367 . S
C1805 C1804 1.367 . S
C1805 C1807 1.433 . S
C1806 C1802 1.350 . S
C1806 C1803 1.463 . S
C1806 N1810 1.427 . S
C1807 H1797 0.929 . S
C1807 C1805 1.433 . S
C1807 N1810 1.384 . S
C1808 H1799 0.929 . S
C1808 C1800 1.378 . S
C1808 C1803 1.350 . S
C1809 H1796 0.929 . S
C1809 C1801 1.433 . S
C1809 N1811 1.384 . S
N1810 C1806 1.427 . S
N1810 C1807 1.384 . S
N1811 C1803 1.427 . S
N1811 C1809 1.384 . S
H1812 C1818 0.930 . S
H1813 C1822 0.930 . S
H1814 C1827 0.929 . S
H1815 C1825 0.929 . S
H1816 C1820 0.929 . S
H1817 C1826 0.929 . S
C1818 H1812 0.930 . S
C1818 C1819 1.367 . S
C1818 C1826 1.378 . S
C1819 C1818 1.367 . S
C1819 C1827 1.433 . S
C1820 H1816 0.929 . S
C1820 C1822 1.378 . S
C1820 C1824 1.350 . S
C1821 C1824 1.463 . S
C1821 C1826 1.350 . S
C1821 N1829 1.427 . S
C1822 H1813 0.930 . S
C1822 C1820 1.378 . S
C1822 C1823 1.367 . S
C1823 C1822 1.367 . S
C1823 C1825 1.433 . S
C1824 C1820 1.350 . S
C1824 C1821 1.463 . S
C1824 N1828 1.427 . S
C1825 H1815 0.929 . S
C1825 C1823 1.433 . S
C1825 N1828 1.384 . S
C1826 H1817 0.929 . S
C1826 C1818 1.378 . S
C1826 C1821 1.350 . S
C1827 H1814 0.929 . S
C1827 C1819 1.433 . S
C1827 N1829 1.384 . S
N1828 C1824 1.427 . S
N1828 C1825 1.384 . S
N1829 C1821 1.427 . S
N1829 C1827 1.384 . S
H1830 C1836 0.930 . S
H1831 C1840 0.930 . S
H1832 C1845 0.929 . S
H1833 C1843 0.929 . S
H1834 C1838 0.929 . S
H1835 C1844 0.929 . S
C1836 H1830 0.930 . S
C1836 C1837 1.367 . S
C1836 C1844 1.378 . S
C1837 C1836 1.367 . S
C1837 C1845 1.433 . S
C1838 H1834 0.929 . S
C1838 C1840 1.378 . S
C1838 C1842 1.350 . S
C1839 C1842 1.463 . S
C1839 C1844 1.350 . S
C1839 N1847 1.427 . S
C1840 H1831 0.930 . S
C1840 C1838 1.378 . S
C1840 C1841 1.367 . S
C1841 C1840 1.367 . S
C1841 C1843 1.433 . S
C1842 C1838 1.350 . S
C1842 C1839 1.463 . S
C1842 N1846 1.427 . S
C1843 H1833 0.929 . S
C1843 C1841 1.433 . S
C1843 N1846 1.384 . S
C1844 H1835 0.929 . S
C1844 C1836 1.378 . S
C1844 C1839 1.350 . S
C1845 H1832 0.929 . S
C1845 C1837 1.433 . S
C1845 N1847 1.384 . S
N1846 C1842 1.427 . S
N1846 C1843 1.384 . S
N1847 C1839 1.427 . S
N1847 C1845 1.384 . S
H1848 C1854 0.930 . S
H1849 C1858 0.930 . S
H1850 C1863 0.929 . S
H1851 C1861 0.929 . S
H1852 C1856 0.929 . S
H1853 C1862 0.929 . S
C1854 H1848 0.930 . S
C1854 C1855 1.367 . S
C1854 C1862 1.378 . S
C1855 C1854 1.367 . S
C1855 C1863 1.433 . S
C1856 H1852 0.929 . S
C1856 C1858 1.378 . S
C1856 C1860 1.350 . S
C1857 C1860 1.463 . S
C1857 C1862 1.350 . S
C1857 N1865 1.427 . S
C1858 H1849 0.930 . S
C1858 C1856 1.378 . S
C1858 C1859 1.367 . S
C1859 C1858 1.367 . S
C1859 C1861 1.433 . S
C1860 C1856 1.350 . S
C1860 C1857 1.463 . S
C1860 N1864 1.427 . S
C1861 H1851 0.929 . S
C1861 C1859 1.433 . S
C1861 N1864 1.384 . S
C1862 H1853 0.929 . S
C1862 C1854 1.378 . S
C1862 C1857 1.350 . S
C1863 H1850 0.929 . S
C1863 C1855 1.433 . S
C1863 N1865 1.384 . S
N1864 C1860 1.427 . S
N1864 C1861 1.384 . S
N1865 C1857 1.427 . S
N1865 C1863 1.384 . S
H1866 C1872 0.930 . S
H1867 C1876 0.930 . S
H1868 C1881 0.929 . S
H1869 C1879 0.929 . S
H1870 C1874 0.929 . S
H1871 C1880 0.929 . S
C1872 H1866 0.930 . S
C1872 C1873 1.367 . S
C1872 C1880 1.378 . S
C1873 C1872 1.367 . S
C1873 C1881 1.433 . S
C1874 H1870 0.929 . S
C1874 C1876 1.378 . S
C1874 C1878 1.350 . S
C1875 C1878 1.463 . S
C1875 C1880 1.350 . S
C1875 N1883 1.427 . S
C1876 H1867 0.930 . S
C1876 C1874 1.378 . S
C1876 C1877 1.367 . S
C1877 C1876 1.367 . S
C1877 C1879 1.433 . S
C1878 C1874 1.350 . S
C1878 C1875 1.463 . S
C1878 N1882 1.427 . S
C1879 H1869 0.929 . S
C1879 C1877 1.433 . S
C1879 N1882 1.384 . S
C1880 H1871 0.929 . S
C1880 C1872 1.378 . S
C1880 C1875 1.350 . S
C1881 H1868 0.929 . S
C1881 C1873 1.433 . S
C1881 N1883 1.384 . S
N1882 C1878 1.427 . S
N1882 C1879 1.384 . S
N1883 C1875 1.427 . S
N1883 C1881 1.384 . S
H1884 C1890 0.930 . S
H1885 C1894 0.930 . S
H1886 C1899 0.929 . S
H1887 C1897 0.929 . S
H1888 C1892 0.929 . S
H1889 C1898 0.929 . S
C1890 H1884 0.930 . S
C1890 C1891 1.367 . S
C1890 C1898 1.378 . S
C1891 C1890 1.367 . S
C1891 C1899 1.433 . S
C1892 H1888 0.929 . S
C1892 C1894 1.378 . S
C1892 C1896 1.350 . S
C1893 C1896 1.463 . S
C1893 C1898 1.350 . S
C1893 N1901 1.427 . S
C1894 H1885 0.930 . S
C1894 C1892 1.378 . S
C1894 C1895 1.367 . S
C1895 C1894 1.367 . S
C1895 C1897 1.433 . S
C1896 C1892 1.350 . S
C1896 C1893 1.463 . S
C1896 N1900 1.427 . S
C1897 H1887 0.929 . S
C1897 C1895 1.433 . S
C1897 N1900 1.384 . S
C1898 H1889 0.929 . S
C1898 C1890 1.378 . S
C1898 C1893 1.350 . S
C1899 H1886 0.929 . S
C1899 C1891 1.433 . S
C1899 N1901 1.384 . S
N1900 C1896 1.427 . S
N1900 C1897 1.384 . S
N1901 C1893 1.427 . S
N1901 C1899 1.384 . S
H1902 C1908 0.930 . S
H1903 C1912 0.930 . S
H1904 C1917 0.929 . S
H1905 C1915 0.929 . S
H1906 C1910 0.929 . S
H1907 C1916 0.929 . S
C1908 H1902 0.930 . S
C1908 C1909 1.367 . S
C1908 C1916 1.378 . S
C1909 C1908 1.367 . S
C1909 C1917 1.433 . S
C1910 H1906 0.929 . S
C1910 C1912 1.378 . S
C1910 C1914 1.350 . S
C1911 C1914 1.463 . S
C1911 C1916 1.350 . S
C1911 N1919 1.427 . S
C1912 H1903 0.930 . S
C1912 C1910 1.378 . S
C1912 C1913 1.367 . S
C1913 C1912 1.367 . S
C1913 C1915 1.433 . S
C1914 C1910 1.350 . S
C1914 C1911 1.463 . S
C1914 N1918 1.427 . S
C1915 H1905 0.929 . S
C1915 C1913 1.433 . S
C1915 N1918 1.384 . S
C1916 H1907 0.929 . S
C1916 C1908 1.378 . S
C1916 C1911 1.350 . S
C1917 H1904 0.929 . S
C1917 C1909 1.433 . S
C1917 N1919 1.384 . S
N1918 C1914 1.427 . S
N1918 C1915 1.384 . S
N1919 C1911 1.427 . S
N1919 C1917 1.384 . S
H1920 C1926 0.930 . S
H1921 C1930 0.930 . S
H1922 C1935 0.929 . S
H1923 C1933 0.929 . S
H1924 C1928 0.929 1_655 S
H1925 C1934 0.929 1_455 S
C1926 H1920 0.930 . S
C1926 C1927 1.367 . S
C1926 C1934 1.378 . S
C1927 C1926 1.367 . S
C1927 C1935 1.433 . S
C1928 H1924 0.929 1_455 S
C1928 C1930 1.378 . S
C1928 C1932 1.350 . S
C1929 C1932 1.463 1_655 S
C1929 C1934 1.350 . S
C1929 N1937 1.427 . S
C1930 H1921 0.930 . S
C1930 C1928 1.378 . S
C1930 C1931 1.367 . S
C1931 C1930 1.367 . S
C1931 C1933 1.433 . S
C1932 C1928 1.350 . S
C1932 C1929 1.463 1_455 S
C1932 N1936 1.427 . S
C1933 H1923 0.929 . S
C1933 C1931 1.433 . S
C1933 N1936 1.384 . S
C1934 H1925 0.929 1_655 S
C1934 C1926 1.378 . S
C1934 C1929 1.350 . S
C1935 H1922 0.929 . S
C1935 C1927 1.433 . S
C1935 N1937 1.384 . S
N1936 C1932 1.427 . S
N1936 C1933 1.384 . S
N1937 C1929 1.427 . S
N1937 C1935 1.384 . S
H1938 C1944 0.930 . S
H1939 C1948 0.930 . S
H1940 C1953 0.929 . S
H1941 C1951 0.929 . S
H1942 C1946 0.929 . S
H1943 C1952 0.929 . S
C1944 H1938 0.930 . S
C1944 C1945 1.367 . S
C1944 C1952 1.378 . S
C1945 C1944 1.367 . S
C1945 C1953 1.433 . S
C1946 H1942 0.929 . S
C1946 C1948 1.378 . S
C1946 C1950 1.350 . S
C1947 C1950 1.463 1_565 S
C1947 C1952 1.350 . S
C1947 N1955 1.427 . S
C1948 H1939 0.930 . S
C1948 C1946 1.378 . S
C1948 C1949 1.367 . S
C1949 C1948 1.367 . S
C1949 C1951 1.433 . S
C1950 C1946 1.350 . S
C1950 C1947 1.463 1_545 S
C1950 N1954 1.427 . S
C1951 H1941 0.929 . S
C1951 C1949 1.433 . S
C1951 N1954 1.384 . S
C1952 H1943 0.929 . S
C1952 C1944 1.378 . S
C1952 C1947 1.350 . S
C1953 H1940 0.929 . S
C1953 C1945 1.433 . S
C1953 N1955 1.384 . S
N1954 C1950 1.427 . S
N1954 C1951 1.384 . S
N1955 C1947 1.427 . S
N1955 C1953 1.384 . S
H1956 C1962 0.930 . S
H1957 C1966 0.930 . S
H1958 C1971 0.929 . S
H1959 C1969 0.929 . S
H1960 C1964 0.929 1_545 S
H1961 C1970 0.929 1_565 S
C1962 H1956 0.930 . S
C1962 C1963 1.367 . S
C1962 C1970 1.378 . S
C1963 C1962 1.367 . S
C1963 C1971 1.433 . S
C1964 H1960 0.929 1_565 S
C1964 C1966 1.378 . S
C1964 C1968 1.350 . S
C1965 C1968 1.463 1_446 S
C1965 C1970 1.350 . S
C1965 N1973 1.427 1_455 S
C1966 H1957 0.930 . S
C1966 C1964 1.378 . S
C1966 C1967 1.367 . S
C1967 C1966 1.367 . S
C1967 C1969 1.433 . S
C1968 C1964 1.350 . S
C1968 C1965 1.463 1_664 S
C1968 N1972 1.427 1_655 S
C1969 H1959 0.929 . S
C1969 C1967 1.433 . S
C1969 N1972 1.384 1_655 S
C1970 H1961 0.929 1_545 S
C1970 C1962 1.378 . S
C1970 C1965 1.350 . S
C1971 H1958 0.929 . S
C1971 C1963 1.433 . S
C1971 N1973 1.384 1_455 S
N1972 C1968 1.427 1_455 S
N1972 C1969 1.384 1_455 S
N1973 C1965 1.427 1_655 S
N1973 C1971 1.384 1_655 S
H1974 C1980 0.930 . S
H1975 C1984 0.930 . S
H1976 C1989 0.929 . S
H1977 C1987 0.929 . S
H1978 C1982 0.929 . S
H1979 C1988 0.929 . S
C1980 H1974 0.930 . S
C1980 C1981 1.367 . S
C1980 C1988 1.378 . S
C1981 C1980 1.367 . S
C1981 C1989 1.433 . S
C1982 H1978 0.929 . S
C1982 C1984 1.378 . S
C1982 C1986 1.350 . S
C1983 C1986 1.463 1_554 S
C1983 C1988 1.350 . S
C1983 N1991 1.427 . S
C1984 H1975 0.930 . S
C1984 C1982 1.378 . S
C1984 C1985 1.367 . S
C1985 C1984 1.367 . S
C1985 C1987 1.433 . S
C1986 C1982 1.350 . S
C1986 C1983 1.463 1_556 S
C1986 N1990 1.427 . S
C1987 H1977 0.929 . S
C1987 C1985 1.433 . S
C1987 N1990 1.384 . S
C1988 H1979 0.929 . S
C1988 C1980 1.378 . S
C1988 C1983 1.350 . S
C1989 H1976 0.929 . S
C1989 C1981 1.433 . S
C1989 N1991 1.384 . S
N1990 C1986 1.427 . S
N1990 C1987 1.384 . S
N1991 C1983 1.427 . S
N1991 C1989 1.384 . S
H1992 C1998 0.930 . S
H1993 C2002 0.930 . S
H1994 C2007 0.929 . S
H1995 C2005 0.929 . S
H1996 C2000 0.929 . S
H1997 C2006 0.929 . S
C1998 H1992 0.930 . S
C1998 C1999 1.367 . S
C1998 C2006 1.378 . S
C1999 C1998 1.367 . S
C1999 C2007 1.433 . S
C2000 H1996 0.929 . S
C2000 C2002 1.378 . S
C2000 C2004 1.350 . S
C2001 C2004 1.463 1_455 S
C2001 C2006 1.350 . S
C2001 N2009 1.427 . S
C2002 H1993 0.930 . S
C2002 C2000 1.378 . S
C2002 C2003 1.367 . S
C2003 C2002 1.367 . S
C2003 C2005 1.433 . S
C2004 C2000 1.350 . S
C2004 C2001 1.463 1_655 S
C2004 N2008 1.427 . S
C2005 H1995 0.929 . S
C2005 C2003 1.433 . S
C2005 N2008 1.384 . S
C2006 H1997 0.929 . S
C2006 C1998 1.378 . S
C2006 C2001 1.350 . S
C2007 H1994 0.929 . S
C2007 C1999 1.433 . S
C2007 N2009 1.384 . S
N2008 C2004 1.427 . S
N2008 C2005 1.384 . S
N2009 C2001 1.427 . S
N2009 C2007 1.384 . S
H2010 C2016 0.930 . S
H2011 C2020 0.930 . S
H2012 C2025 0.929 . S
H2013 C2023 0.929 . S
H2014 C2018 0.929 . S
H2015 C2024 0.929 . S
C2016 H2010 0.930 . S
C2016 C2017 1.367 . S
C2016 C2024 1.378 . S
C2017 C2016 1.367 . S
C2017 C2025 1.433 . S
C2018 H2014 0.929 . S
C2018 C2020 1.378 . S
C2018 C2022 1.350 . S
C2019 C2022 1.463 1_545 S
C2019 C2024 1.350 . S
C2019 N2027 1.427 . S
C2020 H2011 0.930 . S
C2020 C2018 1.378 . S
C2020 C2021 1.367 . S
C2021 C2020 1.367 . S
C2021 C2023 1.433 . S
C2022 C2018 1.350 . S
C2022 C2019 1.463 1_565 S
C2022 N2026 1.427 . S
C2023 H2013 0.929 . S
C2023 C2021 1.433 . S
C2023 N2026 1.384 . S
C2024 H2015 0.929 . S
C2024 C2016 1.378 . S
C2024 C2019 1.350 . S
C2025 H2012 0.929 . S
C2025 C2017 1.433 . S
C2025 N2027 1.384 . S
N2026 C2022 1.427 . S
N2026 C2023 1.384 . S
N2027 C2019 1.427 . S
N2027 C2025 1.384 . S
H2028 C2034 0.930 1_554 S
H2029 C2038 0.930 1_556 S
H2030 C2043 0.929 . S
H2031 C2041 0.929 . S
H2032 C2036 0.929 . S
H2033 C2042 0.929 . S
C2034 H2028 0.930 1_556 S
C2034 C2035 1.367 . S
C2034 C2042 1.378 1_556 S
C2035 C2034 1.367 . S
C2035 C2043 1.433 . S
C2036 H2032 0.929 . S
C2036 C2038 1.378 1_556 S
C2036 C2040 1.350 1_556 S
C2037 C2040 1.463 1_556 S
C2037 C2042 1.350 1_556 S
C2037 N2045 1.427 . S
C2038 H2029 0.930 1_554 S
C2038 C2036 1.378 1_554 S
C2038 C2039 1.367 . S
C2039 C2038 1.367 . S
C2039 C2041 1.433 . S
C2040 C2036 1.350 1_554 S
C2040 C2037 1.463 1_554 S
C2040 N2044 1.427 . S
C2041 H2031 0.929 . S
C2041 C2039 1.433 . S
C2041 N2044 1.384 . S
C2042 H2033 0.929 . S
C2042 C2034 1.378 1_554 S
C2042 C2037 1.350 1_554 S
C2043 H2030 0.929 . S
C2043 C2035 1.433 . S
C2043 N2045 1.384 . S
N2044 C2040 1.427 . S
N2044 C2041 1.384 . S
N2045 C2037 1.427 . S
N2045 C2043 1.384 . S
H2046 C2052 0.930 . S
H2047 C2056 0.930 . S
H2048 C2061 0.929 . S
H2049 C2059 0.929 . S
H2050 C2054 0.929 . S
H2051 C2060 0.929 . S
C2052 H2046 0.930 . S
C2052 C2053 1.367 . S
C2052 C2060 1.378 . S
C2053 C2052 1.367 . S
C2053 C2061 1.433 . S
C2054 H2050 0.929 . S
C2054 C2056 1.378 . S
C2054 C2058 1.350 . S
C2055 C2058 1.463 . S
C2055 C2060 1.350 . S
C2055 N2063 1.427 . S
C2056 H2047 0.930 . S
C2056 C2054 1.378 . S
C2056 C2057 1.367 . S
C2057 C2056 1.367 . S
C2057 C2059 1.433 . S
C2058 C2054 1.350 . S
C2058 C2055 1.463 . S
C2058 N2062 1.427 . S
C2059 H2049 0.929 . S
C2059 C2057 1.433 . S
C2059 N2062 1.384 . S
C2060 H2051 0.929 . S
C2060 C2052 1.378 . S
C2060 C2055 1.350 . S
C2061 H2048 0.929 . S
C2061 C2053 1.433 . S
C2061 N2063 1.384 . S
N2062 C2058 1.427 . S
N2062 C2059 1.384 . S
N2063 C2055 1.427 . S
N2063 C2061 1.384 . S
H2064 C2070 0.930 1_455 S
H2065 C2074 0.930 1_655 S
H2066 C2079 0.929 . S
H2067 C2077 0.929 . S
H2068 C2072 0.929 . S
H2069 C2078 0.929 . S
C2070 H2064 0.930 1_655 S
C2070 C2071 1.367 . S
C2070 C2078 1.378 1_655 S
C2071 C2070 1.367 . S
C2071 C2079 1.433 . S
C2072 H2068 0.929 . S
C2072 C2074 1.378 1_655 S
C2072 C2076 1.350 1_655 S
C2073 C2076 1.463 1_655 S
C2073 C2078 1.350 1_655 S
C2073 N2081 1.427 . S
C2074 H2065 0.930 1_455 S
C2074 C2072 1.378 1_455 S
C2074 C2075 1.367 . S
C2075 C2074 1.367 . S
C2075 C2077 1.433 . S
C2076 C2072 1.350 1_455 S
C2076 C2073 1.463 1_455 S
C2076 N2080 1.427 . S
C2077 H2067 0.929 . S
C2077 C2075 1.433 . S
C2077 N2080 1.384 . S
C2078 H2069 0.929 . S
C2078 C2070 1.378 1_455 S
C2078 C2073 1.350 1_455 S
C2079 H2066 0.929 . S
C2079 C2071 1.433 . S
C2079 N2081 1.384 . S
N2080 C2076 1.427 . S
N2080 C2077 1.384 . S
N2081 C2073 1.427 . S
N2081 C2079 1.384 . S
H2082 C2088 0.930 . S
H2083 C2092 0.930 . S
H2084 C2097 0.929 . S
H2085 C2095 0.929 . S
H2086 C2090 0.929 . S
H2087 C2096 0.929 . S
C2088 H2082 0.930 . S
C2088 C2089 1.367 . S
C2088 C2096 1.378 . S
C2089 C2088 1.367 . S
C2089 C2097 1.433 . S
C2090 H2086 0.929 . S
C2090 C2092 1.378 . S
C2090 C2094 1.350 . S
C2091 C2094 1.463 . S
C2091 C2096 1.350 . S
C2091 N2099 1.427 . S
C2092 H2083 0.930 . S
C2092 C2090 1.378 . S
C2092 C2093 1.367 . S
C2093 C2092 1.367 . S
C2093 C2095 1.433 . S
C2094 C2090 1.350 . S
C2094 C2091 1.463 . S
C2094 N2098 1.427 . S
C2095 H2085 0.929 . S
C2095 C2093 1.433 . S
C2095 N2098 1.384 . S
C2096 H2087 0.929 . S
C2096 C2088 1.378 . S
C2096 C2091 1.350 . S
C2097 H2084 0.929 . S
C2097 C2089 1.433 . S
C2097 N2099 1.384 . S
N2098 C2094 1.427 . S
N2098 C2095 1.384 . S
N2099 C2091 1.427 . S
N2099 C2097 1.384 . S
H2100 C2106 0.930 . S
H2101 C2110 0.930 . S
H2102 C2115 0.929 . S
H2103 C2113 0.929 . S
H2104 C2108 0.929 . S
H2105 C2114 0.929 . S
C2106 H2100 0.930 . S
C2106 C2107 1.367 . S
C2106 C2114 1.378 . S
C2107 C2106 1.367 . S
C2107 C2115 1.433 . S
C2108 H2104 0.929 . S
C2108 C2110 1.378 . S
C2108 C2112 1.350 . S
C2109 C2112 1.463 . S
C2109 C2114 1.350 . S
C2109 N2117 1.427 . S
C2110 H2101 0.930 . S
C2110 C2108 1.378 . S
C2110 C2111 1.367 . S
C2111 C2110 1.367 . S
C2111 C2113 1.433 . S
C2112 C2108 1.350 . S
C2112 C2109 1.463 . S
C2112 N2116 1.427 . S
C2113 H2103 0.929 . S
C2113 C2111 1.433 . S
C2113 N2116 1.384 . S
C2114 H2105 0.929 . S
C2114 C2106 1.378 . S
C2114 C2109 1.350 . S
C2115 H2102 0.929 . S
C2115 C2107 1.433 . S
C2115 N2117 1.384 . S
N2116 C2112 1.427 . S
N2116 C2113 1.384 . S
N2117 C2109 1.427 . S
N2117 C2115 1.384 . S
H2118 C2124 0.930 . S
H2119 C2128 0.930 . S
H2120 C2133 0.929 . S
H2121 C2131 0.929 . S
H2122 C2126 0.929 . S
H2123 C2132 0.929 . S
C2124 H2118 0.930 . S
C2124 C2125 1.367 . S
C2124 C2132 1.378 . S
C2125 C2124 1.367 . S
C2125 C2133 1.433 . S
C2126 H2122 0.929 . S
C2126 C2128 1.378 . S
C2126 C2130 1.350 . S
C2127 C2130 1.463 . S
C2127 C2132 1.350 . S
C2127 N2135 1.427 . S
C2128 H2119 0.930 . S
C2128 C2126 1.378 . S
C2128 C2129 1.367 . S
C2129 C2128 1.367 . S
C2129 C2131 1.433 . S
C2130 C2126 1.350 . S
C2130 C2127 1.463 . S
C2130 N2134 1.427 . S
C2131 H2121 0.929 . S
C2131 C2129 1.433 . S
C2131 N2134 1.384 . S
C2132 H2123 0.929 . S
C2132 C2124 1.378 . S
C2132 C2127 1.350 . S
C2133 H2120 0.929 . S
C2133 C2125 1.433 . S
C2133 N2135 1.384 . S
N2134 C2130 1.427 . S
N2134 C2131 1.384 . S
N2135 C2127 1.427 . S
N2135 C2133 1.384 . S
H2136 C2142 0.930 . S
H2137 C2146 0.930 . S
H2138 C2151 0.929 . S
H2139 C2149 0.929 . S
H2140 C2144 0.929 . S
H2141 C2150 0.929 . S
C2142 H2136 0.930 . S
C2142 C2143 1.367 . S
C2142 C2150 1.378 . S
C2143 C2142 1.367 . S
C2143 C2151 1.433 . S
C2144 H2140 0.929 . S
C2144 C2146 1.378 . S
C2144 C2148 1.350 . S
C2145 C2148 1.463 . S
C2145 C2150 1.350 . S
C2145 N2153 1.427 . S
C2146 H2137 0.930 . S
C2146 C2144 1.378 . S
C2146 C2147 1.367 . S
C2147 C2146 1.367 . S
C2147 C2149 1.433 . S
C2148 C2144 1.350 . S
C2148 C2145 1.463 . S
C2148 N2152 1.427 . S
C2149 H2139 0.929 . S
C2149 C2147 1.433 . S
C2149 N2152 1.384 . S
C2150 H2141 0.929 . S
C2150 C2142 1.378 . S
C2150 C2145 1.350 . S
C2151 H2138 0.929 . S
C2151 C2143 1.433 . S
C2151 N2153 1.384 . S
N2152 C2148 1.427 . S
N2152 C2149 1.384 . S
N2153 C2145 1.427 . S
N2153 C2151 1.384 . S
H2154 C2160 0.930 . S
H2155 C2164 0.930 . S
H2156 C2169 0.929 . S
H2157 C2167 0.929 . S
H2158 C2162 0.929 . S
H2159 C2168 0.929 . S
C2160 H2154 0.930 . S
C2160 C2161 1.367 . S
C2160 C2168 1.378 . S
C2161 C2160 1.367 . S
C2161 C2169 1.433 . S
C2162 H2158 0.929 . S
C2162 C2164 1.378 . S
C2162 C2166 1.350 . S
C2163 C2166 1.463 1_545 S
C2163 C2168 1.350 . S
C2163 N2171 1.427 . S
C2164 H2155 0.930 . S
C2164 C2162 1.378 . S
C2164 C2165 1.367 . S
C2165 C2164 1.367 . S
C2165 C2167 1.433 . S
C2166 C2162 1.350 . S
C2166 C2163 1.463 1_565 S
C2166 N2170 1.427 . S
C2167 H2157 0.929 . S
C2167 C2165 1.433 . S
C2167 N2170 1.384 . S
C2168 H2159 0.929 . S
C2168 C2160 1.378 . S
C2168 C2163 1.350 . S
C2169 H2156 0.929 . S
C2169 C2161 1.433 . S
C2169 N2171 1.384 . S
N2170 C2166 1.427 . S
N2170 C2167 1.384 . S
N2171 C2163 1.427 . S
N2171 C2169 1.384 . S
H2172 C2178 0.930 . S
H2173 C2182 0.930 . S
H2174 C2187 0.929 . S
H2175 C2185 0.929 . S
H2176 C2180 0.929 . S
H2177 C2186 0.929 . S
C2178 H2172 0.930 . S
C2178 C2179 1.367 . S
C2178 C2186 1.378 . S
C2179 C2178 1.367 . S
C2179 C2187 1.433 . S
C2180 H2176 0.929 . S
C2180 C2182 1.378 . S
C2180 C2184 1.350 . S
C2181 C2184 1.463 . S
C2181 C2186 1.350 . S
C2181 N2189 1.427 . S
C2182 H2173 0.930 . S
C2182 C2180 1.378 . S
C2182 C2183 1.367 . S
C2183 C2182 1.367 . S
C2183 C2185 1.433 . S
C2184 C2180 1.350 . S
C2184 C2181 1.463 . S
C2184 N2188 1.427 . S
C2185 H2175 0.929 . S
C2185 C2183 1.433 . S
C2185 N2188 1.384 . S
C2186 H2177 0.929 . S
C2186 C2178 1.378 . S
C2186 C2181 1.350 . S
C2187 H2174 0.929 . S
C2187 C2179 1.433 . S
C2187 N2189 1.384 . S
N2188 C2184 1.427 . S
N2188 C2185 1.384 . S
N2189 C2181 1.427 . S
N2189 C2187 1.384 . S
H2190 C2196 0.930 . S
H2191 C2200 0.930 . S
H2192 C2205 0.929 . S
H2193 C2203 0.929 . S
H2194 C2198 0.929 . S
H2195 C2204 0.929 . S
C2196 H2190 0.930 . S
C2196 C2197 1.367 . S
C2196 C2204 1.378 . S
C2197 C2196 1.367 . S
C2197 C2205 1.433 . S
C2198 H2194 0.929 . S
C2198 C2200 1.378 . S
C2198 C2202 1.350 . S
C2199 C2202 1.463 1_554 S
C2199 C2204 1.350 . S
C2199 N2207 1.427 1_554 S
C2200 H2191 0.930 . S
C2200 C2198 1.378 . S
C2200 C2201 1.367 . S
C2201 C2200 1.367 . S
C2201 C2203 1.433 . S
C2202 C2198 1.350 . S
C2202 C2199 1.463 1_556 S
C2202 N2206 1.427 1_556 S
C2203 H2193 0.929 . S
C2203 C2201 1.433 . S
C2203 N2206 1.384 1_556 S
C2204 H2195 0.929 . S
C2204 C2196 1.378 . S
C2204 C2199 1.350 . S
C2205 H2192 0.929 . S
C2205 C2197 1.433 . S
C2205 N2207 1.384 1_554 S
N2206 C2202 1.427 1_554 S
N2206 C2203 1.384 1_554 S
N2207 C2199 1.427 1_556 S
N2207 C2205 1.384 1_556 S
H2208 C2214 0.930 . S
H2209 C2218 0.930 . S
H2210 C2223 0.929 . S
H2211 C2221 0.929 . S
H2212 C2216 0.929 . S
H2213 C2222 0.929 . S
C2214 H2208 0.930 . S
C2214 C2215 1.367 . S
C2214 C2222 1.378 . S
C2215 C2214 1.367 . S
C2215 C2223 1.433 . S
C2216 H2212 0.929 . S
C2216 C2218 1.378 . S
C2216 C2220 1.350 . S
C2217 C2220 1.463 . S
C2217 C2222 1.350 . S
C2217 N2225 1.427 . S
C2218 H2209 0.930 . S
C2218 C2216 1.378 . S
C2218 C2219 1.367 . S
C2219 C2218 1.367 . S
C2219 C2221 1.433 . S
C2220 C2216 1.350 . S
C2220 C2217 1.463 . S
C2220 N2224 1.427 . S
C2221 H2211 0.929 . S
C2221 C2219 1.433 . S
C2221 N2224 1.384 . S
C2222 H2213 0.929 . S
C2222 C2214 1.378 . S
C2222 C2217 1.350 . S
C2223 H2210 0.929 . S
C2223 C2215 1.433 . S
C2223 N2225 1.384 . S
N2224 C2220 1.427 . S
N2224 C2221 1.384 . S
N2225 C2217 1.427 . S
N2225 C2223 1.384 . S
H2226 C2232 0.930 . S
H2227 C2236 0.930 . S
H2228 C2241 0.929 . S
H2229 C2239 0.929 . S
H2230 C2234 0.929 . S
H2231 C2240 0.929 . S
C2232 H2226 0.930 . S
C2232 C2233 1.367 . S
C2232 C2240 1.378 . S
C2233 C2232 1.367 . S
C2233 C2241 1.433 . S
C2234 H2230 0.929 . S
C2234 C2236 1.378 . S
C2234 C2238 1.350 . S
C2235 C2238 1.463 . S
C2235 C2240 1.350 . S
C2235 N2243 1.427 . S
C2236 H2227 0.930 . S
C2236 C2234 1.378 . S
C2236 C2237 1.367 . S
C2237 C2236 1.367 . S
C2237 C2239 1.433 . S
C2238 C2234 1.350 . S
C2238 C2235 1.463 . S
C2238 N2242 1.427 . S
C2239 H2229 0.929 . S
C2239 C2237 1.433 . S
C2239 N2242 1.384 . S
C2240 H2231 0.929 . S
C2240 C2232 1.378 . S
C2240 C2235 1.350 . S
C2241 H2228 0.929 . S
C2241 C2233 1.433 . S
C2241 N2243 1.384 . S
N2242 C2238 1.427 . S
N2242 C2239 1.384 . S
N2243 C2235 1.427 . S
N2243 C2241 1.384 . S
H2244 C2250 0.930 . S
H2245 C2254 0.930 . S
H2246 C2259 0.929 . S
H2247 C2257 0.929 . S
H2248 C2252 0.929 . S
H2249 C2258 0.929 . S
C2250 H2244 0.930 . S
C2250 C2251 1.367 . S
C2250 C2258 1.378 . S
C2251 C2250 1.367 . S
C2251 C2259 1.433 . S
C2252 H2248 0.929 . S
C2252 C2254 1.378 . S
C2252 C2256 1.350 . S
C2253 C2256 1.463 . S
C2253 C2258 1.350 . S
C2253 N2261 1.427 . S
C2254 H2245 0.930 . S
C2254 C2252 1.378 . S
C2254 C2255 1.367 . S
C2255 C2254 1.367 . S
C2255 C2257 1.433 . S
C2256 C2252 1.350 . S
C2256 C2253 1.463 . S
C2256 N2260 1.427 . S
C2257 H2247 0.929 . S
C2257 C2255 1.433 . S
C2257 N2260 1.384 . S
C2258 H2249 0.929 . S
C2258 C2250 1.378 . S
C2258 C2253 1.350 . S
C2259 H2246 0.929 . S
C2259 C2251 1.433 . S
C2259 N2261 1.384 . S
N2260 C2256 1.427 . S
N2260 C2257 1.384 . S
N2261 C2253 1.427 . S
N2261 C2259 1.384 . S
H2262 C2268 0.930 . S
H2263 C2272 0.930 . S
H2264 C2277 0.929 . S
H2265 C2275 0.929 . S
H2266 C2270 0.929 . S
H2267 C2276 0.929 . S
C2268 H2262 0.930 . S
C2268 C2269 1.367 . S
C2268 C2276 1.378 . S
C2269 C2268 1.367 . S
C2269 C2277 1.433 . S
C2270 H2266 0.929 . S
C2270 C2272 1.378 . S
C2270 C2274 1.350 . S
C2271 C2274 1.463 . S
C2271 C2276 1.350 . S
C2271 N2279 1.427 . S
C2272 H2263 0.930 . S
C2272 C2270 1.378 . S
C2272 C2273 1.367 . S
C2273 C2272 1.367 . S
C2273 C2275 1.433 . S
C2274 C2270 1.350 . S
C2274 C2271 1.463 . S
C2274 N2278 1.427 . S
C2275 H2265 0.929 . S
C2275 C2273 1.433 . S
C2275 N2278 1.384 . S
C2276 H2267 0.929 . S
C2276 C2268 1.378 . S
C2276 C2271 1.350 . S
C2277 H2264 0.929 . S
C2277 C2269 1.433 . S
C2277 N2279 1.384 . S
N2278 C2274 1.427 . S
N2278 C2275 1.384 . S
N2279 C2271 1.427 . S
N2279 C2277 1.384 . S
H2280 C2286 0.930 . S
H2281 C2290 0.930 . S
H2282 C2295 0.929 . S
H2283 C2293 0.929 . S
H2284 C2288 0.929 . S
H2285 C2294 0.929 . S
C2286 H2280 0.930 . S
C2286 C2287 1.367 . S
C2286 C2294 1.378 . S
C2287 C2286 1.367 . S
C2287 C2295 1.433 . S
C2288 H2284 0.929 . S
C2288 C2290 1.378 . S
C2288 C2292 1.350 . S
C2289 C2292 1.463 . S
C2289 C2294 1.350 . S
C2289 N2297 1.427 . S
C2290 H2281 0.930 . S
C2290 C2288 1.378 . S
C2290 C2291 1.367 . S
C2291 C2290 1.367 . S
C2291 C2293 1.433 . S
C2292 C2288 1.350 . S
C2292 C2289 1.463 . S
C2292 N2296 1.427 . S
C2293 H2283 0.929 . S
C2293 C2291 1.433 . S
C2293 N2296 1.384 . S
C2294 H2285 0.929 . S
C2294 C2286 1.378 . S
C2294 C2289 1.350 . S
C2295 H2282 0.929 . S
C2295 C2287 1.433 . S
C2295 N2297 1.384 . S
N2296 C2292 1.427 . S
N2296 C2293 1.384 . S
N2297 C2289 1.427 . S
N2297 C2295 1.384 . S
H2298 C2304 0.930 . S
H2299 C2308 0.930 . S
H2300 C2313 0.929 . S
H2301 C2311 0.929 . S
H2302 C2306 0.929 . S
H2303 C2312 0.929 . S
C2304 H2298 0.930 . S
C2304 C2305 1.367 . S
C2304 C2312 1.378 . S
C2305 C2304 1.367 . S
C2305 C2313 1.433 . S
C2306 H2302 0.929 . S
C2306 C2308 1.378 . S
C2306 C2310 1.350 . S
C2307 C2310 1.463 . S
C2307 C2312 1.350 . S
C2307 N2315 1.427 . S
C2308 H2299 0.930 . S
C2308 C2306 1.378 . S
C2308 C2309 1.367 . S
C2309 C2308 1.367 . S
C2309 C2311 1.433 . S
C2310 C2306 1.350 . S
C2310 C2307 1.463 . S
C2310 N2314 1.427 . S
C2311 H2301 0.929 . S
C2311 C2309 1.433 . S
C2311 N2314 1.384 . S
C2312 H2303 0.929 . S
C2312 C2304 1.378 . S
C2312 C2307 1.350 . S
C2313 H2300 0.929 . S
C2313 C2305 1.433 . S
C2313 N2315 1.384 . S
N2314 C2310 1.427 . S
N2314 C2311 1.384 . S
N2315 C2307 1.427 . S
N2315 C2313 1.384 . S
H2316 C2322 0.930 . S
H2317 C2326 0.930 . S
H2318 C2331 0.929 1_554 S
H2319 C2329 0.929 . S
H2320 C2324 0.929 . S
H2321 C2330 0.929 . S
C2322 H2316 0.930 . S
C2322 C2323 1.367 . S
C2322 C2330 1.378 . S
C2323 C2322 1.367 . S
C2323 C2331 1.433 . S
C2324 H2320 0.929 . S
C2324 C2326 1.378 . S
C2324 C2328 1.350 . S
C2325 C2328 1.463 . S
C2325 C2330 1.350 . S
C2325 N2333 1.427 . S
C2326 H2317 0.930 . S
C2326 C2324 1.378 . S
C2326 C2327 1.367 . S
C2327 C2326 1.367 . S
C2327 C2329 1.433 . S
C2328 C2324 1.350 . S
C2328 C2325 1.463 . S
C2328 N2332 1.427 . S
C2329 H2319 0.929 . S
C2329 C2327 1.433 . S
C2329 N2332 1.384 . S
C2330 H2321 0.929 . S
C2330 C2322 1.378 . S
C2330 C2325 1.350 . S
C2331 H2318 0.929 1_556 S
C2331 C2323 1.433 . S
C2331 N2333 1.384 . S
N2332 C2328 1.427 . S
N2332 C2329 1.384 . S
N2333 C2325 1.427 . S
N2333 C2331 1.384 . S
H2334 C2340 0.930 1_554 S
H2335 C2344 0.930 . S
H2336 C2349 0.929 . S
H2337 C2347 0.929 . S
H2338 C2342 0.929 . S
H2339 C2348 0.929 . S
C2340 H2334 0.930 1_556 S
C2340 C2341 1.367 . S
C2340 C2348 1.378 . S
C2341 C2340 1.367 . S
C2341 C2349 1.433 . S
C2342 H2338 0.929 . S
C2342 C2344 1.378 . S
C2342 C2346 1.350 . S
C2343 C2346 1.463 . S
C2343 C2348 1.350 . S
C2343 N2351 1.427 . S
C2344 H2335 0.930 . S
C2344 C2342 1.378 . S
C2344 C2345 1.367 . S
C2345 C2344 1.367 . S
C2345 C2347 1.433 . S
C2346 C2342 1.350 . S
C2346 C2343 1.463 . S
C2346 N2350 1.427 . S
C2347 H2337 0.929 . S
C2347 C2345 1.433 . S
C2347 N2350 1.384 . S
C2348 H2339 0.929 . S
C2348 C2340 1.378 . S
C2348 C2343 1.350 . S
C2349 H2336 0.929 . S
C2349 C2341 1.433 . S
C2349 N2351 1.384 . S
N2350 C2346 1.427 . S
N2350 C2347 1.384 . S
N2351 C2343 1.427 . S
N2351 C2349 1.384 . S
H2352 C2358 0.930 1_556 S
H2353 C2362 0.930 . S
H2354 C2367 0.929 . S
H2355 C2365 0.929 . S
H2356 C2360 0.929 . S
H2357 C2366 0.929 . S
C2358 H2352 0.930 1_554 S
C2358 C2359 1.367 . S
C2358 C2366 1.378 . S
C2359 C2358 1.367 . S
C2359 C2367 1.433 . S
C2360 H2356 0.929 . S
C2360 C2362 1.378 . S
C2360 C2364 1.350 . S
C2361 C2364 1.463 . S
C2361 C2366 1.350 . S
C2361 N2369 1.427 . S
C2362 H2353 0.930 . S
C2362 C2360 1.378 . S
C2362 C2363 1.367 . S
C2363 C2362 1.367 . S
C2363 C2365 1.433 . S
C2364 C2360 1.350 . S
C2364 C2361 1.463 . S
C2364 N2368 1.427 . S
C2365 H2355 0.929 . S
C2365 C2363 1.433 . S
C2365 N2368 1.384 . S
C2366 H2357 0.929 . S
C2366 C2358 1.378 . S
C2366 C2361 1.350 . S
C2367 H2354 0.929 . S
C2367 C2359 1.433 . S
C2367 N2369 1.384 . S
N2368 C2364 1.427 . S
N2368 C2365 1.384 . S
N2369 C2361 1.427 . S
N2369 C2367 1.384 . S
H2370 C2376 0.930 . S
H2371 C2380 0.930 . S
H2372 C2385 0.929 . S
H2373 C2383 0.929 . S
H2374 C2378 0.929 . S
H2375 C2384 0.929 . S
C2376 H2370 0.930 . S
C2376 C2377 1.367 . S
C2376 C2384 1.378 . S
C2377 C2376 1.367 . S
C2377 C2385 1.433 . S
C2378 H2374 0.929 . S
C2378 C2380 1.378 . S
C2378 C2382 1.350 . S
C2379 C2382 1.463 . S
C2379 C2384 1.350 . S
C2379 N2387 1.427 . S
C2380 H2371 0.930 . S
C2380 C2378 1.378 . S
C2380 C2381 1.367 . S
C2381 C2380 1.367 . S
C2381 C2383 1.433 . S
C2382 C2378 1.350 . S
C2382 C2379 1.463 . S
C2382 N2386 1.427 . S
C2383 H2373 0.929 . S
C2383 C2381 1.433 . S
C2383 N2386 1.384 . S
C2384 H2375 0.929 . S
C2384 C2376 1.378 . S
C2384 C2379 1.350 . S
C2385 H2372 0.929 . S
C2385 C2377 1.433 . S
C2385 N2387 1.384 . S
N2386 C2382 1.427 . S
N2386 C2383 1.384 . S
N2387 C2379 1.427 . S
N2387 C2385 1.384 . S
H2388 C2394 0.930 . S
H2389 C2398 0.930 . S
H2390 C2403 0.929 . S
H2391 C2401 0.929 . S
H2392 C2396 0.929 . S
H2393 C2402 0.929 . S
C2394 H2388 0.930 . S
C2394 C2395 1.367 . S
C2394 C2402 1.378 . S
C2395 C2394 1.367 . S
C2395 C2403 1.433 . S
C2396 H2392 0.929 . S
C2396 C2398 1.378 . S
C2396 C2400 1.350 . S
C2397 C2400 1.463 . S
C2397 C2402 1.350 . S
C2397 N2405 1.427 . S
C2398 H2389 0.930 . S
C2398 C2396 1.378 . S
C2398 C2399 1.367 . S
C2399 C2398 1.367 . S
C2399 C2401 1.433 . S
C2400 C2396 1.350 . S
C2400 C2397 1.463 . S
C2400 N2404 1.427 . S
C2401 H2391 0.929 . S
C2401 C2399 1.433 . S
C2401 N2404 1.384 . S
C2402 H2393 0.929 . S
C2402 C2394 1.378 . S
C2402 C2397 1.350 . S
C2403 H2390 0.929 . S
C2403 C2395 1.433 . S
C2403 N2405 1.384 . S
N2404 C2400 1.427 . S
N2404 C2401 1.384 . S
N2405 C2397 1.427 . S
N2405 C2403 1.384 . S
H2406 C2412 0.930 . S
H2407 C2416 0.930 . S
H2408 C2421 0.929 . S
H2409 C2419 0.929 . S
H2410 C2414 0.929 . S
H2411 C2420 0.929 . S
C2412 H2406 0.930 . S
C2412 C2413 1.367 . S
C2412 C2420 1.378 . S
C2413 C2412 1.367 . S
C2413 C2421 1.433 . S
C2414 H2410 0.929 . S
C2414 C2416 1.378 . S
C2414 C2418 1.350 . S
C2415 C2418 1.463 . S
C2415 C2420 1.350 . S
C2415 N2423 1.427 . S
C2416 H2407 0.930 . S
C2416 C2414 1.378 . S
C2416 C2417 1.367 . S
C2417 C2416 1.367 . S
C2417 C2419 1.433 . S
C2418 C2414 1.350 . S
C2418 C2415 1.463 . S
C2418 N2422 1.427 . S
C2419 H2409 0.929 . S
C2419 C2417 1.433 . S
C2419 N2422 1.384 . S
C2420 H2411 0.929 . S
C2420 C2412 1.378 . S
C2420 C2415 1.350 . S
C2421 H2408 0.929 . S
C2421 C2413 1.433 . S
C2421 N2423 1.384 . S
N2422 C2418 1.427 . S
N2422 C2419 1.384 . S
N2423 C2415 1.427 . S
N2423 C2421 1.384 . S
H2424 C2430 0.930 . S
H2425 C2434 0.930 . S
H2426 C2439 0.929 . S
H2427 C2437 0.929 . S
H2428 C2432 0.929 . S
H2429 C2438 0.929 . S
C2430 H2424 0.930 . S
C2430 C2431 1.367 . S
C2430 C2438 1.378 . S
C2431 C2430 1.367 . S
C2431 C2439 1.433 . S
C2432 H2428 0.929 . S
C2432 C2434 1.378 . S
C2432 C2436 1.350 . S
C2433 C2436 1.463 . S
C2433 C2438 1.350 . S
C2433 N2441 1.427 . S
C2434 H2425 0.930 . S
C2434 C2432 1.378 . S
C2434 C2435 1.367 . S
C2435 C2434 1.367 . S
C2435 C2437 1.433 . S
C2436 C2432 1.350 . S
C2436 C2433 1.463 . S
C2436 N2440 1.427 . S
C2437 H2427 0.929 . S
C2437 C2435 1.433 . S
C2437 N2440 1.384 . S
C2438 H2429 0.929 . S
C2438 C2430 1.378 . S
C2438 C2433 1.350 . S
C2439 H2426 0.929 . S
C2439 C2431 1.433 . S
C2439 N2441 1.384 . S
N2440 C2436 1.427 . S
N2440 C2437 1.384 . S
N2441 C2433 1.427 . S
N2441 C2439 1.384 . S
H2442 C2448 0.930 . S
H2443 C2452 0.930 . S
H2444 C2457 0.929 . S
H2445 C2455 0.929 . S
H2446 C2450 0.929 . S
H2447 C2456 0.929 . S
C2448 H2442 0.930 . S
C2448 C2449 1.367 . S
C2448 C2456 1.378 . S
C2449 C2448 1.367 . S
C2449 C2457 1.433 . S
C2450 H2446 0.929 . S
C2450 C2452 1.378 . S
C2450 C2454 1.350 . S
C2451 C2454 1.463 . S
C2451 C2456 1.350 . S
C2451 N2459 1.427 . S
C2452 H2443 0.930 . S
C2452 C2450 1.378 . S
C2452 C2453 1.367 . S
C2453 C2452 1.367 . S
C2453 C2455 1.433 . S
C2454 C2450 1.350 . S
C2454 C2451 1.463 . S
C2454 N2458 1.427 . S
C2455 H2445 0.929 . S
C2455 C2453 1.433 . S
C2455 N2458 1.384 . S
C2456 H2447 0.929 . S
C2456 C2448 1.378 . S
C2456 C2451 1.350 . S
C2457 H2444 0.929 . S
C2457 C2449 1.433 . S
C2457 N2459 1.384 . S
N2458 C2454 1.427 . S
N2458 C2455 1.384 . S
N2459 C2451 1.427 . S
N2459 C2457 1.384 . S
H2460 C2466 0.930 . S
H2461 C2470 0.930 . S
H2462 C2475 0.929 . S
H2463 C2473 0.929 . S
H2464 C2468 0.929 . S
H2465 C2474 0.929 . S
C2466 H2460 0.930 . S
C2466 C2467 1.367 . S
C2466 C2474 1.378 . S
C2467 C2466 1.367 . S
C2467 C2475 1.433 . S
C2468 H2464 0.929 . S
C2468 C2470 1.378 . S
C2468 C2472 1.350 . S
C2469 C2472 1.463 . S
C2469 C2474 1.350 . S
C2469 N2477 1.427 . S
C2470 H2461 0.930 . S
C2470 C2468 1.378 . S
C2470 C2471 1.367 . S
C2471 C2470 1.367 . S
C2471 C2473 1.433 . S
C2472 C2468 1.350 . S
C2472 C2469 1.463 . S
C2472 N2476 1.427 . S
C2473 H2463 0.929 . S
C2473 C2471 1.433 . S
C2473 N2476 1.384 . S
C2474 H2465 0.929 . S
C2474 C2466 1.378 . S
C2474 C2469 1.350 . S
C2475 H2462 0.929 . S
C2475 C2467 1.433 . S
C2475 N2477 1.384 . S
N2476 C2472 1.427 . S
N2476 C2473 1.384 . S
N2477 C2469 1.427 . S
N2477 C2475 1.384 . S
H2478 C2484 0.930 . S
H2479 C2488 0.930 . S
H2480 C2493 0.929 . S
H2481 C2491 0.929 . S
H2482 C2486 0.929 . S
H2483 C2492 0.929 . S
C2484 H2478 0.930 . S
C2484 C2485 1.367 . S
C2484 C2492 1.378 . S
C2485 C2484 1.367 . S
C2485 C2493 1.433 . S
C2486 H2482 0.929 . S
C2486 C2488 1.378 . S
C2486 C2490 1.350 . S
C2487 C2490 1.463 . S
C2487 C2492 1.350 . S
C2487 N2495 1.427 . S
C2488 H2479 0.930 . S
C2488 C2486 1.378 . S
C2488 C2489 1.367 . S
C2489 C2488 1.367 . S
C2489 C2491 1.433 . S
C2490 C2486 1.350 . S
C2490 C2487 1.463 . S
C2490 N2494 1.427 . S
C2491 H2481 0.929 . S
C2491 C2489 1.433 . S
C2491 N2494 1.384 . S
C2492 H2483 0.929 . S
C2492 C2484 1.378 . S
C2492 C2487 1.350 . S
C2493 H2480 0.929 . S
C2493 C2485 1.433 . S
C2493 N2495 1.384 . S
N2494 C2490 1.427 . S
N2494 C2491 1.384 . S
N2495 C2487 1.427 . S
N2495 C2493 1.384 . S
C1063 C106 1.004 1_554 S
C1067 C7 1.002 . S
C1081 C40 1.004 . S
C1085 C73 1.002 1_554 S
C1099 C139 1.002 . S
C1103 C238 1.004 1_556 S
C1117 C172 1.002 . S
C1121 C205 1.004 1_556 S
C1135 C370 1.003 . S
C1139 C271 1.003 . S
C1153 C304 1.002 . S
C1157 C337 1.004 . S
C1171 C502 1.002 . S
C1175 C403 1.004 . S
C1189 C436 1.002 . S
C1193 C469 1.004 . S
C1207 C535 1.002 . S
C1211 C634 1.004 . S
C1225 C601 1.002 . S
C1229 C568 1.004 . S
C1243 C766 1.004 . S
C1247 C667 1.002 . S
C1261 C733 1.004 . S
C1265 C700 1.002 . S
C1279 C898 1.002 1_554 S
C1283 C799 1.004 . S
C1297 C865 1.004 1_554 S
C1301 C832 1.001 . S
C1315 C1030 1.002 1_556 S
C1319 C931 1.004 . S
C1333 C997 1.004 1_556 S
C1337 C964 1.002 . S
C1351 C648 0.757 . S
C1355 C21 0.753 . S
C1369 C615 0.753 . S
C1373 C54 0.762 . S
C1387 C582 0.762 . S
C1391 C87 0.753 . S
C1405 C549 0.756 . S
C1409 C120 0.754 . S
C1423 C780 0.752 . S
C1427 C153 0.760 . S
C1441 C747 0.763 . S
C1445 C186 0.757 . S
C1459 C219 0.764 . S
C1463 C714 0.756 . S
C1477 C681 0.761 . S
C1481 C252 0.761 . S
C1495 C912 0.754 . S
C1499 C285 0.764 . S
C1513 C879 0.753 . S
C1517 C318 0.763 . S
C1531 C351 0.755 . S
C1535 C846 0.764 . S
C1549 C384 0.763 . S
C1553 C813 0.753 . S
C1567 C1044 0.763 . S
C1571 C417 0.753 . S
C1585 C1011 0.759 . S
C1589 C450 0.762 . S
C1603 C483 0.763 . S
C1607 C978 0.753 . S
C1621 C945 0.763 . S
C1625 C516 0.758 . S
C1639 N13 1.580 . S
C1643 N46 1.575 . S
C1657 N79 1.568 . S
C1661 N112 1.581 . S
C1675 N145 1.580 . S
C1679 N178 1.569 . S
C1693 N211 1.568 . S
C1697 N244 1.582 . S
C1711 N277 1.583 . S
C1715 N310 1.571 . S
C1729 N376 1.569 . S
C1733 N343 1.580 . S
C1747 N442 1.573 . S
C1751 N409 1.575 . S
C1765 N475 1.582 . S
C1769 N508 1.568 . S
C1783 N574 1.583 . S
C1787 N541 1.569 . S
C1801 N640 1.583 . S
C1805 N607 1.568 . S
C1819 N673 1.583 . S
C1823 N706 1.569 . S
C1837 N772 1.579 . S
C1841 N739 1.570 . S
C1855 N805 1.582 . S
C1859 N838 1.572 . S
C1873 N904 1.568 . S
C1877 N871 1.583 . S
C1891 N937 1.573 . S
C1895 N970 1.582 . S
C1909 N1003 1.582 . S
C1913 N1036 1.572 . S
C1927 N398 1.890 . S
C1931 N2 1.890 . S
C1945 N695 1.892 . S
C1949 N35 1.892 . S
C1963 N68 1.893 . S
C1967 N200 1.893 . S
C1981 N1025 1.894 . S
C1985 N101 1.894 . S
C1999 N266 1.891 . S
C2003 N134 1.891 . S
C2017 N563 1.894 . S
C2021 N167 1.894 . S
C2035 N893 1.893 . S
C2039 N233 1.893 . S
C2053 N299 1.891 . S
C2057 N959 1.891 . S
C2071 N464 1.890 . S
C2075 N332 1.890 . S
C2089 N761 1.894 . S
C2093 N365 1.894 . S
C2107 N431 1.893 . S
C2111 N827 1.893 . S
C2125 N497 1.890 . S
C2129 N629 1.890 . S
C2143 N926 1.889 . S
C2147 N530 1.889 . S
C2161 N596 1.894 . S
C2165 N728 1.894 . S
C2179 N662 1.893 . S
C2183 N794 1.893 . S
C2197 N992 1.890 . S
C2201 N860 1.890 . S
C2215 C18 1.431 . S
C2219 C117 1.428 . S
C2233 C51 1.429 . S
C2237 C84 1.433 . S
C2251 C249 1.432 . S
C2255 C150 1.433 . S
C2269 C183 1.429 . S
C2273 C216 1.433 . S
C2287 C282 1.429 1_554 S
C2291 C381 1.433 . S
C2305 C348 1.432 . S
C2309 C315 1.428 1_554 S
C2323 C414 1.428 1_556 S
C2327 C513 1.430 . S
C2341 C447 1.433 1_556 S
C2345 C480 1.430 . S
C2359 C546 1.432 1_554 S
C2363 C645 1.433 . S
C2377 C579 1.432 1_554 S
C2381 C612 1.428 . S
C2395 C678 1.433 1_556 S
C2399 C777 1.429 . S
C2413 C711 1.433 1_556 S
C2417 C744 1.430 . S
C2431 C810 1.431 . S
C2435 C909 1.428 . S
C2449 C876 1.431 . S
C2453 C843 1.433 . S
C2467 C942 1.428 . S
C2471 C1041 1.432 . S
C2485 C975 1.428 . S
C2489 C1008 1.432 . S
