# Generated by pormake.
# Topology snp, (6)-cn, num edge types: 1
# Building blocks:
#     Node 0, Type 0, BuildingBlock: KUMBUR_clean_sbu_1, # of connection points: 6
#     Node 1, Type 0, BuildingBlock: KUMBUR_clean_sbu_1, # of connection points: 6
#     Node 2, Type 0, BuildingBlock: KUMBUR_clean_sbu_1, # of connection points: 6
#     Node 3, Type 0, BuildingBlock: KUMBUR_clean_sbu_1, # of connection points: 6
#     Edge 4, Type (0, 0), BuildingBlock: ZUJKAS_clean_linker_0, # of connection points: 2
#     Edge 5, Type (0, 0), BuildingBlock: ZUJKAS_clean_linker_0, # of connection points: 2
#     Edge 6, Type (0, 0), BuildingBlock: ZUJKAS_clean_linker_0, # of connection points: 2
#     Edge 7, Type (0, 0), BuildingBlock: ZUJKAS_clean_linker_0, # of connection points: 2
#     Edge 8, Type (0, 0), BuildingBlock: ZUJKAS_clean_linker_0, # of connection points: 2
#     Edge 9, Type (0, 0), BuildingBlock: ZUJKAS_clean_linker_0, # of connection points: 2
#     Edge 10, Type (0, 0), BuildingBlock: ZUJKAS_clean_linker_0, # of connection points: 2
#     Edge 11, Type (0, 0), BuildingBlock: ZUJKAS_clean_linker_0, # of connection points: 2
#     Edge 12, Type (0, 0), BuildingBlock: ZUJKAS_clean_linker_0, # of connection points: 2
#     Edge 13, Type (0, 0), BuildingBlock: ZUJKAS_clean_linker_0, # of connection points: 2
#     Edge 14, Type (0, 0), BuildingBlock: ZUJKAS_clean_linker_0, # of connection points: 2
#     Edge 15, Type (0, 0), BuildingBlock: ZUJKAS_clean_linker_0, # of connection points: 2
# Relax obj value: 0.339
# Max RMSD: 0.293
# Mean RMSD: 0.251
data_MOF--net-snp--node1-KUMBUR_clean_sbu_1--edge1-ZUJKAS_clean_linker_0
_symmetry_space_group_name_H-M    P1
_symmetry_Int_Tables_number       1
_symmetry_cell_setting            triclinic
loop_
_symmetry_equiv_pos_as_xyz
'x, y, z'
_cell_length_a     31.498224
_cell_length_b     31.626026
_cell_length_c     40.642674
_cell_angle_alpha  97.107694
_cell_angle_beta   78.348153
_cell_angle_gamma 154.88224
loop_
_atom_site_label
_atom_site_type_symbol
_atom_site_fract_x
_atom_site_fract_y
_atom_site_fract_z
_atom_type_partial_charge
Tb0 Tb 0.82884 0.60957 1.02317 0.0
C1 C 0.44384 0.17108 0.12744 0.0
N2 N 0.47557 0.23781 0.11719 0.0
C3 C 0.30645 0.1014 0.11009 0.0
C4 C 0.34214 0.06666 0.12886 0.0
C5 C 0.40755 0.20423 0.10967 0.0
C6 C 0.27344 0.03229 0.11985 0.0
C7 C 0.48593 0.1419 0.14505 0.0
C8 C 0.51534 0.20848 0.13509 0.0
C9 C 0.38427 0.03764 0.14694 0.0
C10 C 0.31266 0.00016 0.13879 0.0
Tb11 Tb 0.64216 0.40285 0.11914 0.0
N12 N 0.61345 0.30988 0.13276 0.0
C13 C 0.5594 0.18206 0.15312 0.0
C14 C 0.6855 0.34969 0.1407 0.0
C15 C 0.65916 0.28615 0.15124 0.0
H16 H 0.43137 0.25644 0.10285 0.0
H17 H 0.71504 0.31691 0.15839 0.0
H18 H 0.95367 0.6348 0.97899 0.0
H19 H 0.96224 0.89004 0.04393 0.0
H20 H 0.76242 0.43016 0.13973 0.0
H21 H 0.53968 0.13338 0.16118 0.0
H22 H 0.83257 0.71801 0.03863 0.0
H23 H 0.25391 0.0753 0.10287 0.0
H24 H 0.3603 0.98533 0.15459 0.0
H25 H 0.23476 0.91961 0.14013 0.0
H26 H 0.13311 0.77094 0.95967 0.0
H27 H 0.19487 0.95265 0.12029 0.0
H28 H 0.14529 0.03348 0.03425 0.0
N29 N -0.0086 0.72864 1.00312 0.0
C30 C 0.06767 0.82443 1.0076 0.0
C31 C 0.11569 0.78673 0.97358 0.0
C32 C 0.17142 0.90509 0.9961 0.0
C33 C 0.01392 0.7095 0.98497 0.0
C34 C 0.1948 0.88474 0.97963 0.0
N35 N 0.94129 0.76438 0.02847 0.0
C36 C 0.91253 0.7808 0.03459 0.0
C37 C 0.11815 0.94213 1.02282 0.0
C38 C 0.04168 0.84297 1.02066 0.0
C39 C 0.08854 0.95836 0.03244 0.0
C40 C 0.98541 0.87762 0.03773 0.0
H41 H 0.27349 0.94464 0.97018 0.0
H42 H 0.328 0.06682 0.99083 0.0
H43 H 0.2816 0.099 1.0151 0.0
O44 O 0.75985 0.58978 0.99761 0.0
O45 O 0.85427 0.6672 0.07111 0.0
O46 O 0.798 0.56272 0.10065 0.0
O47 O 0.83316 0.59889 0.97049 0.0
O48 O 0.68387 0.51169 0.04654 0.0
O49 O 0.6116 0.43772 0.104 0.0
O50 O 0.634 0.38732 0.17071 0.0
O51 O 0.58146 0.31912 0.07582 0.0
O52 O 0.70224 0.46343 0.04945 0.0
O53 O 0.60432 0.42156 0.1565 0.0
O54 O 0.79592 0.51189 0.0933 0.0
O55 O 0.8377 0.54879 0.03379 0.0
C56 C 0.82744 0.62857 0.10052 0.0
C57 C 0.84666 0.67306 0.94146 0.0
C58 C 0.85596 0.73354 0.89954 0.0
C59 C 0.96289 0.82108 0.8911 0.0
C60 C 0.95342 0.7645 0.93294 0.0
C61 C 0.01044 0.83723 0.90805 0.0
C62 C 0.79728 0.65823 0.92536 0.0
C63 C 0.62328 0.46828 0.07657 0.0
C64 C 0.79105 0.59717 0.96779 0.0
C65 C 0.24808 0.00373 0.99982 0.0
C66 C 0.22155 0.02218 1.01343 0.0
C67 C 0.63014 0.3714 0.04648 0.0
C68 C 0.49568 0.30471 0.20609 0.0
C69 C 0.38878 0.20307 0.2625 0.0
C70 C 0.30325 0.13908 0.25093 0.0
C71 C 0.4085 0.24014 0.19583 0.0
C72 C 0.48529 0.28541 0.23964 0.0
C73 C 0.31319 0.15755 0.21791 0.0
C74 C 0.82512 0.5176 0.0618 0.0
C75 C 0.59597 0.39129 0.18152 0.0
H76 H 0.01368 0.88076 0.87138 0.0
H77 H -0.00645 0.77981 0.94531 0.0
H78 H 0.09276 0.90691 0.90154 0.0
H79 H 0.71488 0.58847 0.93215 0.0
H80 H 0.22804 0.07414 0.26755 0.0
H81 H 0.41369 0.25361 0.17068 0.0
H82 H 0.55187 0.33508 0.24807 0.0
H83 H 0.24676 0.10791 0.20945 0.0
Tb84 Tb 0.305 0.53027 0.60872 0.0
C85 C 0.80373 -0.00761 0.55574 0.0
N86 N 0.7184 0.92762 0.54563 0.0
C87 C 0.80667 0.06821 0.52472 0.0
C88 C 0.893 0.09735 0.55121 0.0
C89 C 0.72163 0.96549 0.5285 0.0
C90 C 0.89248 0.13441 0.53637 0.0
C91 C 0.89966 0.0215 0.5704 0.0
C92 C 0.80709 0.9552 0.56574 0.0
C93 C 0.98582 0.1248 0.56854 0.0
C94 C 0.98263 0.1627 0.5589 0.0
Tb95 Tb 0.58927 0.76222 0.54931 0.0
N96 N 0.72445 0.85593 0.56543 0.0
C97 C 0.90555 0.98332 0.57348 0.0
C98 C 0.73017 0.8185 0.56802 0.0
C99 C 0.82039 0.88137 0.57239 0.0
H100 H 0.65905 0.91708 0.51718 0.0
H101 H 0.82523 0.85187 0.5736 0.0
H102 H 0.36873 0.49465 0.63564 0.0
H103 H 0.93357 0.23715 0.59057 0.0
H104 H 0.66562 0.74045 0.56553 0.0
H105 H 0.97707 0.03278 0.5746 0.0
H106 H 0.12198 0.39858 0.57441 0.0
H107 H 0.80724 0.09665 0.51175 0.0
H108 H 0.05699 0.17681 0.57262 0.0
H109 H 0.05194 0.24332 0.5554 0.0
H110 H 0.28907 0.3777 0.67818 0.0
H111 H 0.95988 0.21448 0.53206 0.0
H112 H 0.8364 0.11504 0.63855 0.0
N113 N 0.23711 0.4166 0.64172 0.0
C114 C 0.13479 0.32756 0.65417 0.0
C115 C 0.24498 0.36367 0.67236 0.0
C116 C 0.08462 0.25701 0.67852 0.0
C117 C 0.29068 0.43126 0.64845 0.0
C118 C 0.14209 0.27767 0.6884 0.0
N119 N 0.13176 0.36987 0.61366 0.0
C120 C 0.0804 0.34561 0.59524 0.0
C121 C 0.97202 0.20931 0.64922 0.0
C122 C 0.07952 0.30318 0.63942 0.0
C123 C 0.91907 0.186 0.63169 0.0
C124 C 0.97361 0.25438 0.60441 0.0
H125 H 0.10656 0.22503 0.70671 0.0
H126 H 0.93824 0.11187 0.70997 0.0
H127 H 0.83912 0.07001 0.68421 0.0
O128 O 0.26968 0.56022 0.5991 0.0
O129 O 0.31125 0.53054 0.55288 0.0
O130 O 0.4785 0.69217 0.52371 0.0
O131 O 0.24234 0.51846 0.65018 0.0
O132 O 0.45109 0.69099 0.61028 0.0
O133 O 0.53755 0.78216 0.56041 0.0
O134 O 0.55629 0.69634 0.50547 0.0
O135 O 0.57045 0.72705 0.60351 0.0
O136 O 0.41402 0.61052 0.63994 0.0
O137 O 0.70987 0.8434 0.51103 0.0
O138 O 0.48776 0.62469 0.57268 0.0
O139 O 0.32457 0.49285 0.56997 0.0
C140 C 0.37862 0.5973 0.5246 0.0
C141 C 0.13524 0.47716 0.6408 0.0
C142 C 0.98482 0.36814 0.68399 0.0
C143 C 0.96471 0.3797 0.66312 0.0
C144 C 0.11368 0.48742 0.62009 0.0
C145 C 0.02831 0.43815 0.63113 0.0
C146 C 0.06951 0.41629 0.67252 0.0
C147 C 0.487 0.75147 0.59041 0.0
C148 C 0.23169 0.53832 0.63125 0.0
C149 C 0.97812 0.16608 0.69056 0.0
C150 C 0.92163 0.14199 0.67578 0.0
C151 C 0.50663 0.67497 0.63447 0.0
C152 C 0.68588 0.82012 0.45651 0.0
C153 C 0.7742 0.8809 0.39725 0.0
C154 C 0.78191 0.9317 0.39398 0.0
C155 C 0.69019 0.8672 0.45202 0.0
C156 C 0.72772 0.82703 0.42924 0.0
C157 C 0.73891 0.92354 0.42103 0.0
C158 C 0.40378 0.53766 0.563 0.0
C159 C 0.65228 0.77732 0.49066 0.0
H160 H 0.90053 0.34427 0.67166 0.0
H161 H 0.16401 0.53526 0.59576 0.0
H162 H 0.01282 0.44728 0.61517 0.0
H163 H 0.08683 0.41005 0.68922 0.0
H164 H 0.82056 0.97754 0.37052 0.0
H165 H 0.65834 0.86261 0.47278 0.0
H166 H 0.72213 0.78884 0.43321 0.0
H167 H 0.74406 0.96171 0.41802 0.0
Tb168 Tb 0.03924 0.23834 0.12049 0.0
C169 C 0.56699 0.82929 0.21508 0.0
N170 N 0.66968 0.92313 0.21262 0.0
C171 C 0.64649 0.96123 0.25695 0.0
C172 C 0.49922 0.79604 0.23948 0.0
C173 C 0.71044 -0.01039 0.23303 0.0
C174 C 0.54035 0.8637 0.26045 0.0
C175 C 0.42383 0.66552 0.19636 0.0
C176 C 0.52993 0.7662 0.19306 0.0
C177 C 0.35539 0.63063 0.22122 0.0
C178 C 0.39306 0.69628 0.2424 0.0
Tb179 Tb 0.76084 0.95032 0.17735 0.0
N180 N 0.59817 0.80272 0.16915 0.0
C181 C 0.39018 0.60247 0.17525 0.0
C182 C 0.56547 0.74329 0.14687 0.0
C183 C 0.46113 0.6418 0.15008 0.0
H184 H 0.79201 0.06468 0.23097 0.0
H185 H 0.43575 0.5932 0.13391 0.0
H186 H 0.12889 0.22734 0.07218 0.0
H187 H 0.23153 0.5508 0.16226 0.0
H188 H 0.6193 0.77047 0.12897 0.0
H189 H 0.30977 0.52366 0.17789 0.0
H190 H 0.09424 0.37429 0.1679 0.0
H191 H 0.67905 0.01415 0.27302 0.0
H192 H 0.27342 0.55329 0.22419 0.0
H193 H 0.33954 0.66876 0.26128 0.0
H194 H 0.28944 0.34601 0.03313 0.0
H195 H 0.49099 0.8414 0.27942 0.0
H196 H 0.39129 0.67917 0.11853 0.0
N197 N 0.18923 0.34117 0.08893 0.0
C198 C 0.2721 0.44103 0.08529 0.0
C199 C 0.28575 0.37386 0.04778 0.0
C200 C 0.36421 0.5112 0.06206 0.0
C201 C 0.19486 0.30678 0.07033 0.0
C202 C 0.37065 0.47648 0.04343 0.0
N203 N 0.17388 0.40201 0.12703 0.0
C204 C 0.16331 0.42958 0.14866 0.0
C205 C 0.3441 0.57402 0.10043 0.0
C206 C 0.2634 0.47244 0.10462 0.0
C207 C 0.33106 0.6018 0.12081 0.0
C208 C 0.241 0.52953 0.14555 0.0
H209 H 0.4402 0.52796 0.02542 0.0
H210 H 0.51677 0.66801 0.03975 0.0
H211 H 0.49863 0.72289 0.07308 0.0
O212 O 0.07648 0.31968 0.08833 0.0
O213 O 0.03164 0.24138 0.1776 0.0
O214 O 0.8802 0.07627 0.20878 0.0
O215 O 0.93486 0.15929 0.09119 0.0
O216 O 0.9178 0.16456 0.159 0.0
O217 O 0.75051 0.00291 0.15877 0.0
O218 O 0.71089 0.84258 0.17908 0.0
O219 O 0.79127 0.95318 0.11995 0.0
O220 O 0.96186 0.11896 0.09073 0.0
O221 O 0.74203 0.90687 0.22367 0.0
O222 O 0.91205 0.07862 0.15338 0.0
O223 O 0.06533 0.19724 0.13277 0.0
C224 C 0.97383 0.17779 0.20659 0.0
C225 C 0.01529 0.2499 0.038 0.0
C226 C 0.97848 0.2314 0.98416 0.0
C227 C 0.04724 0.25999 0.96734 0.0
C228 C 0.08343 0.27834 1.02059 0.0
C229 C 0.0991 0.28312 0.9855 0.0
C230 C 0.96297 0.22672 1.01974 0.0
C231 C 0.83095 0.09969 0.15294 0.0
C232 C -0.0038 0.24081 0.07522 0.0
C233 C 0.44576 0.61305 0.05775 0.0
C234 C 0.43528 0.64424 0.07661 0.0
C235 C 0.86873 0.01851 0.09179 0.0
C236 C 0.61042 0.73701 0.23191 0.0
C237 C 0.51892 0.62795 0.28394 0.0
C238 C 0.43414 0.54333 0.26905 0.0
C239 C 0.52613 0.65018 0.21721 0.0
C240 C 0.60598 0.7251 0.26562 0.0
C241 C 0.43782 0.55461 0.23592 0.0
C242 C 0.97919 0.1089 0.15023 0.0
C243 C 0.70559 0.83876 0.21145 0.0
H244 H 0.06251 0.26631 0.93997 0.0
H245 H 0.12419 0.29638 0.03411 0.0
H246 H 0.15189 0.30515 0.97232 0.0
H247 H 0.90965 0.20396 0.0332 0.0
H248 H 0.36601 0.46816 0.28278 0.0
H249 H 0.52899 0.65527 0.19094 0.0
H250 H 0.67174 0.79081 0.27691 0.0
H251 H 0.3732 0.4888 0.22429 0.0
Tb252 Tb 0.14842 0.96086 0.68265 0.0
C253 C 0.66975 0.45692 0.72523 0.0
N254 N 0.74695 0.51618 0.69765 0.0
C255 C 0.69342 0.39534 0.69334 0.0
C256 C 0.6046 0.36673 0.73907 0.0
C257 C 0.7538 0.48236 0.68008 0.0
C258 C 0.62001 0.33844 0.72346 0.0
C259 C 0.56119 0.41416 0.76298 0.0
C260 C 0.64823 0.48031 0.73709 0.0
C261 C 0.50035 0.32793 0.77834 0.0
C262 C 0.52215 0.30437 0.76648 0.0
Tb263 Tb 0.83783 0.65426 0.67794 0.0
N264 N 0.70694 0.56283 0.72116 0.0
C265 C 0.53492 0.43392 0.77141 0.0
C266 C 0.67825 0.5792 0.72794 0.0
C267 C 0.59274 0.51581 0.75339 0.0
H268 H 0.80518 0.52225 0.65554 0.0
H269 H 0.57123 0.52984 0.75888 0.0
H270 H 0.1721 0.07378 0.72888 0.0
H271 H 0.41049 0.1118 0.57552 0.0
H272 H 0.72236 0.64214 0.71405 0.0
H273 H 0.4683 0.38461 0.79097 0.0
H274 H 0.26528 0.98833 0.62487 0.0
H275 H 0.70163 0.37078 0.67986 0.0
H276 H 0.43386 0.27685 0.79849 0.0
H277 H 0.47185 0.23527 0.77759 0.0
H278 H 0.27924 0.2339 0.72411 0.0
H279 H 0.57159 0.26973 0.73328 0.0
H280 H 0.51773 0.2705 0.56202 0.0
N281 N 0.25047 0.11097 0.68247 0.0
C282 C 0.32931 0.18204 0.6554 0.0
C283 C 0.29409 0.22026 0.70447 0.0
C284 C 0.39201 0.27412 0.65104 0.0
C285 C 0.23376 0.12978 0.70737 0.0
C286 C 0.37287 0.29238 0.6759 0.0
N287 N 0.28936 0.07564 0.63925 0.0
C288 C 0.31194 0.05756 0.61955 0.0
C289 C 0.43313 0.2364 0.60492 0.0
C290 C 0.3495 0.16361 0.63285 0.0
C291 C 0.45429 0.21668 0.58382 0.0
C292 C 0.39406 0.1273 0.59142 0.0
H293 H 0.41941 0.36232 0.67357 0.0
H294 H 0.51922 0.41486 0.61816 0.0
H295 H 0.55687 0.38292 0.57771 0.0
O296 O 0.11869 0.89358 0.7202 0.0
O297 O 0.11617 0.92004 0.63075 0.0
O298 O 0.95017 0.7446 0.6276 0.0
O299 O 0.27121 0.05506 0.70368 0.0
O300 O 0.09324 0.85039 0.66098 0.0
O301 O 0.93046 0.68142 0.68217 0.0
O302 O 0.76858 0.63733 0.65547 0.0
O303 O 0.86435 0.71312 0.72761 0.0
O304 O 0.03605 0.8885 0.72875 0.0
O305 O 0.74247 0.54728 0.64461 0.0
O306 O 0.96315 0.80597 0.67492 0.0
O307 O 0.07068 0.95091 0.68069 0.0
C308 C 0.04403 0.84195 0.61378 0.0
C309 C 0.21944 -0.00577 0.76031 0.0
C310 C 0.23846 0.98173 0.81097 0.0
C311 C 0.2307 0.01638 0.82855 0.0
C312 C 0.21071 0.02757 0.77802 0.0
C313 C 0.21561 0.03786 0.81221 0.0
C314 C 0.23092 0.9694 0.77689 0.0
C315 C 0.03129 0.76599 0.67474 0.0
C316 C 0.21208 0.9798 0.7249 0.0
C317 C 0.47239 0.34516 0.62239 0.0
C318 C 0.49328 0.3266 0.59936 0.0
C319 C 0.93635 0.79727 0.74273 0.0
C320 C 0.75295 0.59803 0.59922 0.0
C321 C 0.74171 0.62693 0.55171 0.0
C322 C 0.79312 0.63915 0.52909 0.0
C323 C 0.80172 0.60782 0.57581 0.0
C324 C 0.72245 0.60725 0.58691 0.0
C325 C 0.82219 0.62896 0.54109 0.0
C326 C 0.9811 0.8623 0.67475 0.0
C327 C 0.73108 0.57481 0.63614 0.0
H328 H 0.24004 0.03052 0.85451 0.0
H329 H 0.20035 0.04561 0.76546 0.0
H330 H 0.20982 0.06447 0.82589 0.0
H331 H 0.23509 0.94144 0.76297 0.0
H332 H 0.80818 0.65377 0.50193 0.0
H333 H 0.82424 0.59912 0.58424 0.0
H334 H 0.68322 0.59824 0.6045 0.0
H335 H 0.8599 0.63648 0.52336 0.0
H336 H 0.84272 0.92962 0.13011 0.0
H337 H 0.83185 0.84571 0.13692 0.0
H338 H 0.07169 0.07568 0.1932 0.0
H339 H 0.06872 0.14944 0.19193 0.0
H340 H -0.00461 0.98713 0.09357 0.0
H341 H 0.05927 0.94036 0.18036 0.0
H342 H 0.98056 0.9169 0.19739 0.0
H343 H 0.11404 0.03585 0.19919 0.0
C344 C 0.88663 0.95756 0.14659 0.0
C345 C 0.95717 0.04675 0.16036 0.0
C346 C 0.87931 0.90808 0.15092 0.0
C347 C 0.9584 0.96045 0.16209 0.0
C348 C 0.01388 0.03685 0.18214 0.0
H349 H 0.5359 0.45142 0.12639 0.0
H350 H 0.3536 0.30564 0.13773 0.0
C351 C 0.0153 0.08189 0.18043 0.0
C352 C 0.02011 0.98223 0.13785 0.0
H353 H 0.24087 0.13162 0.14163 0.0
C354 C 0.0479 0.01675 0.10404 0.0
C355 C 0.08622 0.01538 0.14947 0.0
C356 C 0.05756 0.97421 0.18366 0.0
C357 C 0.15027 0.10621 0.08702 0.0
C358 C 0.22082 0.15018 0.10187 0.0
C359 C 0.18658 0.09941 0.13111 0.0
C360 C 0.3311 0.25252 0.08986 0.0
C361 C 0.18381 0.15975 0.05635 0.0
C362 C 0.37873 0.27531 0.05781 0.0
C363 C 0.48326 0.36076 0.05079 0.0
C364 C 0.53843 0.42018 0.07648 0.0
C365 C 0.49377 0.40565 0.10649 0.0
C366 C 0.38993 0.32202 0.11305 0.0
H367 H 0.12094 0.12301 0.05177 0.0
H368 H 0.24854 0.23904 0.05971 0.0
H369 H 0.21081 0.16101 0.03333 0.0
H370 H 0.33425 0.22212 0.03978 0.0
H371 H 0.51669 0.37085 0.02743 0.0
H372 H 0.9247 0.87858 0.72265 0.0
H373 H 0.92351 0.94755 0.70469 0.0
H374 H 0.87114 0.84466 0.60817 0.0
H375 H 0.88959 0.79163 0.62342 0.0
H376 H 0.07859 0.01935 0.62156 0.0
H377 H 0.94306 0.06653 0.64552 0.0
H378 H 0.92705 0.02441 0.68261 0.0
H379 H 0.85646 0.9452 0.65035 0.0
C380 C 0.90508 0.86376 0.69851 0.0
C381 C 0.90858 0.83092 0.67431 0.0
C382 C 0.90311 0.90233 0.68831 0.0
C383 C 0.9087 0.91019 0.65386 0.0
C384 C 0.87277 0.84375 0.6344 0.0
H385 H 0.27117 0.37967 0.5279 0.0
H386 H 0.17903 0.23301 0.5429 0.0
C387 C 0.88229 0.81173 0.6433 0.0
C388 C 0.00348 0.01403 0.63658 0.0
H389 H 0.11819 0.21014 0.6194 0.0
C390 C 0.08591 0.0599 0.62047 0.0
C391 C 0.01611 0.06952 0.63742 0.0
C392 C 0.93104 0.02418 0.65485 0.0
C393 C 0.17691 0.15649 0.6023 0.0
C394 C 0.18575 0.20831 0.60091 0.0
C395 C 0.10826 0.1672 0.61979 0.0
C396 C 0.27092 0.30262 0.57842 0.0
C397 C 0.26155 0.20152 0.58392 0.0
C398 C 0.36171 0.39301 0.58957 0.0
C399 C 0.41876 0.47904 0.57918 0.0
C400 C 0.38043 0.4715 0.5595 0.0
C401 C 0.30064 0.38618 0.54361 0.0
C402 C 0.24776 0.30243 0.55234 0.0
H403 H 0.24371 0.15216 0.58874 0.0
H404 H 0.27487 0.21514 0.5562 0.0
H405 H 0.33384 0.27535 0.59207 0.0
H406 H 0.38084 0.39409 0.60951 0.0
H407 H 0.4823 0.54555 0.59096 0.0
H408 H 0.66546 -0.01017 0.13669 0.0
H409 H 0.66179 0.05613 0.1156 0.0
H410 H 0.98082 0.35862 0.11819 0.0
H411 H 0.98243 0.29283 0.14025 0.0
H412 H 0.88206 0.33926 0.14531 0.0
H413 H 0.76978 0.18817 1.02289 0.0
H414 H 0.67864 0.09239 0.05901 0.0
H415 H 0.80492 0.18204 0.04853 0.0
C416 C 0.73459 0.07042 0.13277 0.0
C417 C 0.82492 0.13632 0.14023 0.0
C418 C 0.73278 0.10839 0.12034 0.0
C419 C 0.82163 0.21293 0.11473 0.0
C420 C 0.91105 0.27784 0.12221 0.0
H421 H -0.00338 0.62508 0.06082 0.0
H422 H 0.00356 0.55564 0.06883 0.0
C423 C 0.91208 0.23998 0.135 0.0
C424 C 0.82268 0.25678 0.10284 0.0
H425 H 0.77991 0.27184 0.03879 0.0
C426 C 0.85977 0.32444 0.12195 0.0
C427 C 0.79493 0.23878 0.07216 0.0
C428 C 0.76082 0.17223 0.04924 0.0
C429 C 0.86933 0.37391 0.11162 0.0
C430 C 0.84006 0.35483 0.08118 0.0
C431 C 0.80225 0.28658 0.06211 0.0
C432 C 0.84265 0.4004 0.06983 0.0
C433 C 0.91128 0.44618 0.13377 0.0
C434 C 0.75245 0.33767 0.06487 0.0
C435 C 0.74955 0.37774 0.05924 0.0
C436 C 0.83657 0.48117 0.05858 0.0
C437 C 0.92872 0.54508 0.06111 0.0
C438 C 0.93221 0.50518 0.06609 0.0
H439 H 0.89262 0.42366 0.16081 0.0
H440 H -0.00406 0.52203 0.12554 0.0
H441 H 0.88214 0.45216 0.13215 0.0
H442 H 0.68243 0.25682 0.0674 0.0
H443 H 0.67724 0.32669 0.05777 0.0
H444 H 0.45282 0.77708 0.54785 0.0
H445 H 0.37754 0.78138 0.56369 0.0
H446 H 0.3751 0.76981 0.66885 0.0
H447 H 0.44705 0.76188 0.65312 0.0
H448 H 0.19723 0.64032 0.66352 0.0
H449 H 0.50013 0.00298 0.58858 0.0
H450 H 0.45179 0.91776 0.56257 0.0
H451 H 0.51846 0.9646 0.59422 0.0
C452 C 0.43817 0.77759 0.57425 0.0
C453 C 0.45576 0.76911 0.59927 0.0
C454 C 0.39513 0.78014 0.58333 0.0
C455 C 0.37145 0.77719 0.61751 0.0
C456 C 0.39246 0.77221 0.64234 0.0
H457 H 0.22549 0.91698 0.67685 0.0
H458 H 0.30356 0.91594 0.66592 0.0
C459 C 0.43432 0.76844 0.63332 0.0
C460 C 0.32094 0.77495 0.62763 0.0
H461 H 0.3414 0.89717 0.61197 0.0
C462 C 0.2292 0.69694 0.65238 0.0
C463 C 0.36273 0.84923 0.61353 0.0
C464 C 0.4642 0.9389 0.58852 0.0
C465 C 0.17799 0.69064 0.66318 0.0
C466 C 0.21777 0.76289 0.64814 0.0
C467 C 0.30997 0.84124 0.62354 0.0
C468 C 0.16661 0.76014 0.65753 0.0
C469 C 0.08329 0.60781 0.69126 0.0
C470 C 0.06283 0.67292 0.65701 0.0
C471 C 0.01727 0.67287 0.66411 0.0
C472 C 0.07478 0.76081 0.67089 0.0
C473 C 0.17842 0.84777 0.67163 0.0
C474 C 0.22348 0.84734 0.66524 0.0
H475 H 0.08364 0.58227 0.70743 0.0
H476 H 0.07611 0.63243 0.70769 0.0
H477 H 0.01474 0.54204 0.67995 0.0
H478 H 0.0173 0.60523 0.65017 0.0
H479 H 0.93814 0.60479 0.66292 0.0
H480 H 0.83854 0.8548 0.3946 0.0
H481 H 0.85029 0.80944 0.34734 0.0
H482 H 0.80771 0.86437 0.28228 0.0
H483 H 0.78102 0.89549 0.33006 0.0
H484 H 0.68465 0.6955 0.27508 0.0
H485 H 0.0563 0.94969 0.26777 0.0
H486 H 0.9747 0.87529 0.30878 0.0
H487 H 0.01849 0.96489 0.29486 0.0
C488 C 0.83045 0.85642 0.37043 0.0
C489 C 0.80568 0.8764 0.36693 0.0
C490 C 0.83988 0.8327 0.34302 0.0
C491 C 0.82963 0.83308 0.31109 0.0
C492 C 0.81426 0.86187 0.3068 0.0
H493 H 0.82743 0.71551 0.11078 0.0
H494 H 0.82026 0.75454 0.16443 0.0
C495 C 0.801 0.88182 0.33433 0.0
C496 C 0.82428 0.79409 0.28295 0.0
H497 H 0.94485 0.81311 0.23593 0.0
C498 C 0.74221 0.72206 0.26648 0.0
C499 C 0.89804 0.82687 0.27194 0.0
C500 C -0.00775 0.90914 0.28658 0.0
C501 C 0.73374 0.68482 0.2387 0.0
C502 C 0.80924 0.72012 0.22702 0.0
C503 C 0.88719 0.78642 0.2449 0.0
C504 C 0.81447 0.69703 0.19454 0.0
C505 C 0.64377 0.60801 0.2222 0.0
C506 C 0.81907 0.65671 0.19331 0.0
C507 C 0.82536 0.63637 0.16253 0.0
C508 C 0.82618 0.65513 0.13255 0.0
C509 C 0.82528 0.69882 0.13358 0.0
C510 C 0.81987 0.71994 0.1643 0.0
H511 H 0.5766 0.56297 0.24068 0.0
H512 H 0.66492 0.64757 0.20163 0.0
H513 H 0.6209 0.55593 0.21112 0.0
H514 H 0.81688 0.64017 0.2162 0.0
H515 H 0.82847 0.60491 0.16226 0.0
H516 H 0.89783 0.22223 0.71357 0.0
H517 H 0.83868 0.16567 0.7743 0.0
H518 H 0.88259 0.34036 0.79472 0.0
H519 H 0.94258 0.39771 0.73371 0.0
H520 H -0.0034 0.39362 0.82516 0.0
H521 H 0.59447 0.98178 0.85211 0.0
H522 H 0.66921 0.01751 0.81547 0.0
H523 H 0.65021 0.05662 0.81481 0.0
C524 C 0.8914 0.24568 0.73096 0.0
C525 C 0.92496 0.31447 0.71909 0.0
C526 C 0.85683 0.21273 0.76565 0.0
C527 C 0.85523 0.24799 0.78907 0.0
C528 C 0.88214 0.31138 0.77705 0.0
H529 H 0.94896 0.29172 0.99117 0.0
H530 H 0.89235 0.28218 0.951 0.0
C531 C 0.91605 0.34381 0.74224 0.0
C532 C 0.8448 0.234 0.82549 0.0
H533 H 0.70051 0.05564 0.88932 0.0
C534 C 0.93069 0.31988 0.83972 0.0
C535 C 0.75881 0.13778 0.84432 0.0
C536 C 0.66256 0.04323 0.831 0.0
C537 C 0.93698 0.31208 0.87085 0.0
C538 C 0.85364 0.21543 0.88866 0.0
C539 C 0.7644 0.12965 0.87567 0.0
C540 C 0.86492 0.20222 0.91722 0.0
C541 C 0.03633 0.40726 0.88278 0.0
C542 C 0.86091 0.15399 0.91289 0.0
C543 C 0.89114 0.15761 0.93604 0.0
C544 C 0.92683 0.21026 0.9639 0.0
C545 C 0.92244 0.25111 0.96984 0.0
C546 C 0.89111 0.24661 0.94673 0.0
H547 H 0.09849 0.47431 0.86318 0.0
H548 H 0.02465 0.42083 0.90562 0.0
H549 H 0.06214 0.4001 0.88972 0.0
H550 H 0.84009 0.11846 0.8905 0.0
H551 H 0.89104 0.12305 0.93125 0.0
H552 H 0.54339 0.47006 0.55352 0.0
H553 H 0.48475 0.45997 0.51434 0.0
H554 H 0.7958 0.77592 0.47703 0.0
H555 H 0.85462 0.78535 0.51543 0.0
H556 H 0.50311 0.56115 0.49511 0.0
H557 H 0.71875 0.63442 0.39496 0.0
H558 H 0.69529 0.60683 0.43942 0.0
H559 H 0.79577 0.73108 0.42164 0.0
C560 C 0.59849 0.53797 0.5378 0.0
C561 C 0.70349 0.62838 0.53723 0.0
C562 C 0.56511 0.53208 0.5153 0.0
C563 C 0.63638 0.61659 0.49209 0.0
C564 C 0.73986 0.70932 0.49419 0.0
H565 H 0.4771 0.51095 0.30089 0.0
H566 H 0.48719 0.49258 0.35363 0.0
C567 C 0.77331 0.71495 0.51632 0.0
C568 C 0.60538 0.60558 0.46308 0.0
H569 H 0.64834 0.62992 0.37659 0.0
C570 C 0.53434 0.57571 0.46921 0.0
C571 C 0.6448 0.62275 0.42921 0.0
C572 C 0.71708 0.64956 0.42081 0.0
C573 C 0.50496 0.56669 0.44232 0.0
C574 C 0.54887 0.58945 0.40839 0.0
C575 C 0.61615 0.61458 0.40247 0.0
C576 C 0.52895 0.59023 0.37838 0.0
C577 C 0.42767 0.53337 0.4505 0.0
C578 C 0.54682 0.64956 0.37466 0.0
C579 C 0.54314 0.66184 0.34412 0.0
C580 C 0.5191 0.61303 0.31705 0.0
C581 C 0.49604 0.54965 0.32138 0.0
C582 C 0.50185 0.53916 0.35153 0.0
H583 H 0.37802 0.48713 0.43174 0.0
H584 H 0.37894 0.49002 0.47628 0.0
H585 H 0.46934 0.6011 0.44981 0.0
H586 H 0.56746 0.68966 0.39478 0.0
H587 H 0.56001 0.71013 0.34155 0.0
H588 H 0.17377 0.9076 0.87689 0.0
H589 H 0.26885 0.95057 0.90618 0.0
H590 H 0.45616 0.06511 0.81052 0.0
H591 H 0.36688 0.02934 0.78105 0.0
H592 H 0.38071 0.96991 0.90738 0.0
H593 H 0.62323 0.31411 0.84704 0.0
H594 H 0.48992 0.19191 0.84549 0.0
H595 H 0.57857 0.23119 0.8209 0.0
C596 C 0.23342 0.93957 0.86197 0.0
C597 C 0.26657 0.97038 0.82691 0.0
C598 C 0.28615 0.96182 0.8787 0.0
C599 C 0.37189 0.01446 0.86047 0.0
C600 C 0.39129 0.02617 0.82497 0.0
H601 H 0.76804 0.4727 0.9852 0.0
H602 H 0.74402 0.39935 0.93883 0.0
C603 C 0.34004 0.0059 0.80819 0.0
C604 C 0.45594 0.08542 0.87808 0.0
H605 H 0.64172 0.31694 0.89951 0.0
C606 C 0.44095 0.04734 0.90506 0.0
C607 C 0.53658 0.18742 0.87442 0.0
C608 C 0.55862 0.23413 0.84547 0.0
C609 C 0.49596 0.10497 0.93089 0.0
C610 C 0.56284 0.20007 0.93026 0.0
C611 C 0.58886 0.24325 0.90065 0.0
C612 C 0.58689 0.24493 0.96157 0.0
C613 C 0.47754 0.06098 0.95932 0.0
C614 C 0.50791 0.18374 0.99037 0.0
C615 C 0.522 0.22623 1.01708 0.0
C616 C 0.61511 0.33113 1.01562 0.0
C617 C 0.6947 0.39239 0.98715 0.0
C618 C 0.68133 0.3499 0.96063 0.0
H619 H 0.47619 0.02568 0.9488 0.0
H620 H 0.53728 0.11871 0.97464 0.0
H621 H 0.40128 0.00046 0.97603 0.0
H622 H 0.43336 0.1028 0.99179 0.0
H623 H 0.45928 0.17651 0.03894 0.0
H624 H 0.01602 0.12962 0.03324 0.0
H625 H 0.0037 0.08118 0.97869 0.0
H626 H 0.68161 0.77447 1.0155 0.0
H627 H 0.69289 0.82377 0.07098 0.0
H628 H 0.96765 0.97233 0.95831 0.0
H629 H 0.67114 0.80108 0.92371 0.0
H630 H 0.73237 0.87396 0.95838 0.0
H631 H 0.63028 0.74476 0.96399 0.0
C632 C 0.94149 0.05138 0.03038 0.0
C633 C 0.85568 0.98154 0.05791 0.0
C634 C 0.93466 0.02337 0.99842 0.0
C635 C 0.84148 0.9236 0.99161 0.0
C636 C 0.75482 0.85267 1.01891 0.0
H637 H 0.73893 0.61037 0.78737 0.0
H638 H 0.64619 0.57121 0.84675 0.0
C639 C 0.76166 0.88099 0.05129 0.0
C640 C 0.83916 0.89593 0.95677 0.0
H641 H 0.73139 0.79368 0.88658 0.0
C642 C 0.91268 0.9294 0.94331 0.0
C643 C 0.77335 0.84607 0.93516 0.0
C644 C 0.698 0.81526 0.94569 0.0
C645 C 0.9201 0.9119 0.91084 0.0
C646 C 0.8472 0.85194 0.89016 0.0
C647 C 0.77954 0.82703 0.90258 0.0
C648 C 0.84443 0.81896 0.85564 0.0
C649 C 0.01295 0.96643 0.89968 0.0
C650 C 0.95954 0.92028 0.8255 0.0
C651 C 0.98191 0.90368 0.78951 0.0
C652 C 0.90056 0.79189 0.77649 0.0
C653 C 0.77992 0.67342 0.79743 0.0
C654 C 0.72233 0.65005 0.83517 0.0
H655 H 0.08274 0.04868 0.89846 0.0
H656 H 0.01463 0.9462 0.91902 0.0
H657 H 0.01905 0.95342 0.87483 0.0
H658 H 0.01954 -0.00397 0.82969 0.0
H659 H 0.05597 0.97194 0.77342 0.0
H660 H 0.45267 0.19104 0.2881 0.0
H661 H 0.40082 0.12715 0.34677 0.0
H662 H 0.23734 0.10058 0.37649 0.0
H663 H 0.28869 0.16407 0.31847 0.0
H664 H 0.42226 0.19078 0.41181 0.0
H665 H 0.01581 0.81205 0.40191 0.0
H666 H 0.11936 0.90495 0.36519 0.0
H667 H 0.0722 0.91197 0.39045 0.0
C668 C 0.40737 0.17334 0.30735 0.0
C669 C 0.37368 0.18135 0.29857 0.0
C670 C 0.3772 0.13624 0.34077 0.0
C671 C 0.31284 0.10648 0.36581 0.0
C672 C 0.28467 0.12045 0.35745 0.0
H673 H 0.15283 -0.00047 0.58126 0.0
H674 H 0.21973 0.05922 0.52055 0.0
C675 C 0.31452 0.15722 0.32428 0.0
C676 C 0.27241 0.05861 0.40056 0.0
H677 H 0.04863 0.84666 0.45787 0.0
C678 C 0.34074 0.11508 0.42174 0.0
C679 C 0.16597 0.95921 0.41346 0.0
C680 C 0.08901 0.89302 0.3915 0.0
C681 C 0.3051 0.07672 0.45592 0.0
C682 C 0.19833 0.9796 0.46931 0.0
C683 C 0.13035 0.92122 0.44767 0.0
C684 C 0.15587 0.94099 0.50622 0.0
C685 C 0.38206 0.14116 0.47759 0.0
C686 C 0.09466 0.8525 0.51847 0.0
C687 C 0.05568 0.81772 0.55349 0.0
C688 C 0.07632 0.87032 0.57657 0.0
C689 C 0.13595 0.95759 0.56405 0.0
C690 C 0.17481 -0.00779 0.52936 0.0
H691 H 0.45798 0.19835 0.46187 0.0
H692 H 0.3921 0.18159 0.49192 0.0
H693 H 0.35561 0.09458 0.49618 0.0
H694 H 0.07848 0.81137 0.501 0.0
H695 H 0.01163 0.75143 0.56252 0.0
H696 H 0.68213 0.78656 0.63904 0.0
H697 H 0.71866 0.78757 0.68764 0.0
H698 H 0.43123 0.57848 0.74898 0.0
H699 H 0.39404 0.57649 0.7008 0.0
H700 H 0.74595 0.84497 0.75054 0.0
H701 H 0.41 0.43885 0.77243 0.0
H702 H 0.44756 0.49756 0.73418 0.0
H703 H 0.37843 0.4656 0.77259 0.0
C704 C 0.62636 0.74073 0.66273 0.0
C705 C 0.53463 0.68159 0.66497 0.0
C706 C 0.64756 0.74131 0.69094 0.0
C707 C 0.57787 0.68203 0.72281 0.0
C708 C 0.48668 0.62366 0.72514 0.0
H709 H 0.6684 0.62811 0.91911 0.0
H710 H 0.59196 0.61456 0.88432 0.0
C711 C 0.46575 0.6235 0.69711 0.0
C712 C 0.60215 0.68412 0.75341 0.0
H713 H 0.51773 0.53753 0.81172 0.0
C714 C 0.69454 0.77687 0.76395 0.0
C715 C 0.53672 0.59656 0.77214 0.0
C716 C 0.43803 0.49396 0.76221 0.0
C717 C 0.72333 0.78477 0.7912 0.0
C718 C 0.66031 0.69805 0.80911 0.0
C719 C 0.56614 0.60464 0.7994 0.0
C720 C 0.70591 0.7087 0.82926 0.0
C721 C 0.82438 0.88853 0.79985 0.0
C722 C 0.80852 0.77332 0.80552 0.0
C723 C 0.88118 0.78506 0.83768 0.0
C724 C 0.81318 0.72476 0.87848 0.0
C725 C 0.70829 0.66478 0.8931 0.0
C726 C 0.65964 0.65727 0.87067 0.0
H727 H 0.83988 0.93636 0.79634 0.0
H728 H 0.82661 0.88617 0.82634 0.0
H729 H 0.88692 0.92521 0.78235 0.0
H730 H 0.83054 0.79976 0.77925 0.0
H731 H 0.94313 0.81708 0.82881 0.0
H732 H 0.8776 0.08525 0.27402 0.0
H733 H 0.94899 0.15966 0.32525 0.0
H734 H 0.2435 0.44957 0.26443 0.0
H735 H 0.17119 0.3756 0.2136 0.0
H736 H 0.08353 0.2433 0.34953 0.0
H737 H 0.24467 0.54759 0.33407 0.0
H738 H 0.16363 0.45032 0.30722 0.0
H739 H 0.29759 0.55613 0.29898 0.0
C740 C 0.95741 0.16521 0.2714 0.0
C741 C 0.01733 0.22392 0.23893 0.0
C742 C -0.00111 0.20831 0.3011 0.0
C743 C 0.10244 0.31233 0.29995 0.0
C744 C 0.16281 0.37044 0.26734 0.0
H745 H 0.48018 0.70209 0.45881 0.0
H746 H 0.41777 0.63527 0.40578 0.0
C747 C 0.12108 0.32747 0.23774 0.0
C748 C 0.14666 0.35818 0.3324 0.0
H749 H 0.28854 0.55261 0.37778 0.0
C750 C 0.12777 0.31071 0.35555 0.0
C751 C 0.20645 0.44748 0.34119 0.0
C752 C 0.22856 0.50287 0.31925 0.0
C753 C 0.16631 0.34887 0.38595 0.0
C754 C 0.22441 0.43707 0.39512 0.0
C755 C 0.24444 0.4853 0.37174 0.0
C756 C 0.26375 0.47951 0.42852 0.0
C757 C 0.14633 0.29473 0.40728 0.0
C758 C 0.1998 0.41725 0.46036 0.0
C759 C 0.23639 0.4557 0.49092 0.0
C760 C 0.33861 0.55908 0.49159 0.0
C761 C 0.40155 0.62232 0.46001 0.0
C762 C 0.36521 0.58349 0.42926 0.0
H763 H 0.13658 0.25547 0.3916 0.0
H764 H 0.20949 0.34709 0.42041 0.0
H765 H 0.07421 0.23672 0.42659 0.0
H766 H 0.1203 0.33781 0.46185 0.0
H767 H 0.18376 0.40315 0.5142 0.0
loop_
_geom_bond_atom_site_label_1
_geom_bond_atom_site_label_2
_geom_bond_distance
_geom_bond_site_symmetry_2
_ccdc_geom_bond_type
Tb0 N29 2.617 1_655 S
Tb0 N35 2.572 . S
Tb0 O44 2.465 1_554 S
Tb0 O45 2.387 . S
Tb0 O47 2.428 1_554 S
Tb0 O48 2.308 . S
Tb0 O52 2.349 . S
Tb0 O55 2.393 . S
Tb0 C64 2.802 1_554 S
C1 N2 1.379 . S
C1 C4 1.416 . S
C1 C8 1.424 . S
N2 C1 1.379 . S
N2 C5 1.334 . S
N2 Tb11 2.617 . S
C3 C5 1.390 . S
C3 C6 1.339 1_545 S
C3 H23 0.930 . S
C4 C1 1.416 . S
C4 C6 1.416 1_545 S
C4 C10 1.448 1_545 S
C5 N2 1.334 . S
C5 C3 1.390 . S
C5 H16 0.930 . S
C6 C3 1.339 1_565 S
C6 C4 1.416 1_565 S
C6 H27 0.930 . S
C7 C8 1.413 . S
C7 C9 1.427 1_545 S
C7 C13 1.416 . S
C8 C1 1.424 . S
C8 C7 1.413 . S
C8 N12 1.361 . S
C9 C7 1.427 1_565 S
C9 C10 1.328 . S
C9 H24 0.929 . S
C10 C4 1.448 1_565 S
C10 C9 1.328 . S
C10 H25 0.930 . S
Tb11 N2 2.617 . S
Tb11 N12 2.572 . S
Tb11 O46 2.349 . S
Tb11 O49 2.393 . S
Tb11 O50 2.465 . S
Tb11 O51 2.387 . S
Tb11 O53 2.428 . S
Tb11 O54 2.308 . S
Tb11 C75 2.802 . S
N12 C8 1.361 . S
N12 Tb11 2.572 . S
N12 C14 1.340 . S
C13 C7 1.416 . S
C13 C15 1.332 . S
C13 H21 0.931 1_545 S
C14 N12 1.340 . S
C14 C15 1.407 . S
C14 H20 0.930 . S
C15 C13 1.332 . S
C15 C14 1.407 . S
C15 H17 0.929 . S
H16 C5 0.930 . S
H17 C15 0.929 . S
H18 C33 0.930 . S
H19 C40 0.929 . S
H20 C14 0.930 . S
H21 C13 0.931 1_565 S
H22 C36 0.930 . S
H23 C3 0.930 . S
H24 C9 0.929 . S
H25 C10 0.930 . S
H26 C31 0.930 . S
H27 C6 0.930 . S
H28 C39 0.929 . S
N29 Tb0 2.617 1_455 S
N29 C30 1.379 . S
N29 C33 1.334 . S
C30 N29 1.379 . S
C30 C32 1.416 . S
C30 C38 1.424 . S
C31 H26 0.930 . S
C31 C33 1.390 . S
C31 C34 1.339 . S
C32 C30 1.416 . S
C32 C34 1.416 . S
C32 C65 1.448 1_565 S
C33 H18 0.930 . S
C33 N29 1.334 . S
C33 C31 1.390 . S
C34 C31 1.339 . S
C34 C32 1.416 . S
C34 H41 0.930 1_565 S
N35 Tb0 2.572 . S
N35 C36 1.340 . S
N35 C38 1.361 1_655 S
C36 H22 0.930 . S
C36 N35 1.340 . S
C36 C40 1.407 . S
C37 C38 1.413 . S
C37 C39 1.420 . S
C37 C66 1.427 1_565 S
C38 C30 1.424 . S
C38 N35 1.361 1_455 S
C38 C37 1.413 . S
C39 H28 0.929 . S
C39 C37 1.420 . S
C39 C40 1.331 1_455 S
C40 H19 0.929 . S
C40 C36 1.407 . S
C40 C39 1.331 1_655 S
H41 C34 0.930 1_545 S
H42 C65 0.930 . S
H43 C66 0.929 . S
O44 Tb0 2.465 1_556 S
O44 C64 1.264 . S
O45 Tb0 2.387 . S
O45 C56 1.264 . S
O46 Tb11 2.349 . S
O46 C56 1.243 . S
O47 Tb0 2.428 1_556 S
O47 C64 1.256 . S
O48 Tb0 2.308 . S
O48 C63 1.266 . S
O49 Tb11 2.393 . S
O49 C63 1.248 . S
O50 Tb11 2.465 . S
O50 C75 1.264 . S
O51 Tb11 2.387 . S
O51 C67 1.264 . S
O52 Tb0 2.349 . S
O52 C67 1.243 . S
O53 Tb11 2.428 . S
O53 C75 1.256 . S
O54 Tb11 2.308 . S
O54 C74 1.266 . S
O55 Tb0 2.393 . S
O55 C74 1.248 . S
C56 O45 1.264 . S
C56 O46 1.243 . S
C57 C60 1.399 1_655 S
C57 C62 1.383 . S
C57 C64 1.496 . S
C58 C59 1.399 . S
C58 C62 1.389 . S
C59 C58 1.399 . S
C59 C61 1.380 1_655 S
C59 H76 0.929 1_655 S
C60 C57 1.399 1_455 S
C60 C61 1.392 . S
C60 H77 0.929 . S
C61 C59 1.380 1_455 S
C61 C60 1.392 . S
C61 H78 0.929 . S
C62 C57 1.383 . S
C62 C58 1.389 . S
C62 H79 0.931 . S
C63 O48 1.266 . S
C63 O49 1.248 . S
C64 Tb0 2.802 1_556 S
C64 O44 1.264 . S
C64 O47 1.256 . S
C64 C57 1.496 . S
C65 C32 1.448 1_545 S
C65 H42 0.930 . S
C65 C66 1.328 . S
C66 C37 1.427 1_545 S
C66 H43 0.929 . S
C66 C65 1.328 . S
C67 O51 1.264 . S
C67 O52 1.243 . S
C68 C71 1.399 . S
C68 C72 1.383 . S
C68 C75 1.496 . S
C69 C70 1.399 . S
C69 C72 1.389 . S
C70 C69 1.399 . S
C70 C73 1.380 . S
C70 H80 0.929 . S
C71 C68 1.399 . S
C71 C73 1.392 . S
C71 H81 0.929 . S
C72 C68 1.383 . S
C72 C69 1.389 . S
C72 H82 0.931 . S
C73 C70 1.380 . S
C73 C71 1.392 . S
C73 H83 0.929 . S
C74 O54 1.266 . S
C74 O55 1.248 . S
C75 Tb11 2.802 . S
C75 O50 1.264 . S
C75 O53 1.256 . S
C75 C68 1.496 . S
H76 C59 0.929 1_455 S
H77 C60 0.929 . S
H78 C61 0.929 . S
H79 C62 0.931 . S
H80 C70 0.929 . S
H81 C71 0.929 . S
H82 C72 0.931 . S
H83 C73 0.929 . S
Tb84 N113 2.617 . S
Tb84 N119 2.572 . S
Tb84 O128 2.465 . S
Tb84 O129 2.387 . S
Tb84 O131 2.428 . S
Tb84 O132 2.308 . S
Tb84 O136 2.349 . S
Tb84 O139 2.393 . S
Tb84 C148 2.802 . S
C85 N86 1.379 . S
C85 C88 1.416 . S
C85 C92 1.424 . S
N86 C85 1.379 . S
N86 C89 1.334 . S
N86 Tb95 2.617 1_545 S
C87 C89 1.390 . S
C87 C90 1.339 . S
C87 H107 0.930 . S
C88 C85 1.416 . S
C88 C90 1.416 . S
C88 C94 1.448 1_655 S
C89 N86 1.334 . S
C89 C87 1.390 . S
C89 H100 0.930 . S
C90 C87 1.339 . S
C90 C88 1.416 . S
C90 H111 0.930 1_655 S
C91 C92 1.413 . S
C91 C93 1.427 1_655 S
C91 C97 1.416 1_545 S
C92 C85 1.424 . S
C92 C91 1.413 . S
C92 N96 1.361 1_545 S
C93 C91 1.427 1_455 S
C93 C94 1.328 . S
C93 H108 0.929 . S
C94 C88 1.448 1_455 S
C94 C93 1.328 . S
C94 H109 0.930 . S
Tb95 N86 2.617 1_565 S
Tb95 N96 2.572 . S
Tb95 O130 2.349 . S
Tb95 O133 2.393 . S
Tb95 O134 2.465 . S
Tb95 O135 2.387 . S
Tb95 O137 2.428 . S
Tb95 O138 2.308 . S
Tb95 C159 2.802 . S
N96 C92 1.361 1_565 S
N96 Tb95 2.572 . S
N96 C98 1.340 . S
C97 C91 1.416 1_565 S
C97 C99 1.332 . S
C97 H105 0.931 1_565 S
C98 N96 1.340 . S
C98 C99 1.407 . S
C98 H104 0.930 . S
C99 C97 1.332 . S
C99 C98 1.407 . S
C99 H101 0.929 . S
H100 C89 0.930 . S
H101 C99 0.929 . S
H102 C117 0.930 . S
H103 C124 0.929 . S
H104 C98 0.930 . S
H105 C97 0.931 1_545 S
H106 C120 0.930 . S
H107 C87 0.930 . S
H108 C93 0.929 . S
H109 C94 0.930 . S
H110 C115 0.930 . S
H111 C90 0.930 1_455 S
H112 C123 0.931 . S
N113 Tb84 2.617 . S
N113 C114 1.379 . S
N113 C117 1.334 . S
C114 N113 1.379 . S
C114 C116 1.416 . S
C114 C122 1.424 . S
C115 H110 0.930 . S
C115 C117 1.390 . S
C115 C118 1.339 . S
C116 C114 1.416 . S
C116 C118 1.416 . S
C116 C149 1.448 1_455 S
C117 H102 0.930 . S
C117 N113 1.334 . S
C117 C115 1.390 . S
C118 C115 1.339 . S
C118 C116 1.416 . S
C118 H125 0.930 1_455 S
N119 Tb84 2.572 . S
N119 C120 1.340 . S
N119 C122 1.361 . S
C120 H106 0.930 . S
C120 N119 1.340 . S
C120 C124 1.407 . S
C121 C122 1.413 . S
C121 C123 1.416 . S
C121 C150 1.427 1_455 S
C122 C114 1.424 . S
C122 N119 1.361 . S
C122 C121 1.413 . S
C123 H112 0.931 . S
C123 C121 1.416 . S
C123 C124 1.332 . S
C124 H103 0.929 . S
C124 C120 1.407 . S
C124 C123 1.332 . S
H125 C118 0.930 1_655 S
H126 C149 0.930 . S
H127 C150 0.929 . S
O128 Tb84 2.465 . S
O128 C148 1.264 . S
O129 Tb84 2.387 . S
O129 C140 1.264 . S
O130 Tb95 2.349 . S
O130 C140 1.243 . S
O131 Tb84 2.428 . S
O131 C148 1.256 . S
O132 Tb84 2.308 . S
O132 C147 1.266 . S
O133 Tb95 2.393 . S
O133 C147 1.248 . S
O134 Tb95 2.465 . S
O134 C159 1.264 . S
O135 Tb95 2.387 . S
O135 C151 1.264 . S
O136 Tb84 2.349 . S
O136 C151 1.243 . S
O137 Tb95 2.428 . S
O137 C159 1.256 . S
O138 Tb95 2.308 . S
O138 C158 1.266 . S
O139 Tb84 2.393 . S
O139 C158 1.248 . S
C140 O129 1.264 . S
C140 O130 1.243 . S
C141 C144 1.399 . S
C141 C146 1.383 . S
C141 C148 1.496 . S
C142 C143 1.399 . S
C142 C146 1.389 . S
C143 C142 1.399 . S
C143 C145 1.380 . S
C143 H160 0.929 . S
C144 C141 1.399 . S
C144 C145 1.392 . S
C144 H161 0.929 . S
C145 C143 1.380 . S
C145 C144 1.392 . S
C145 H162 0.929 . S
C146 C141 1.383 . S
C146 C142 1.389 . S
C146 H163 0.931 . S
C147 O132 1.266 . S
C147 O133 1.248 . S
C148 Tb84 2.802 . S
C148 O128 1.264 . S
C148 O131 1.256 . S
C148 C141 1.496 . S
C149 C116 1.448 1_655 S
C149 H126 0.930 . S
C149 C150 1.328 . S
C150 C121 1.427 1_655 S
C150 H127 0.929 . S
C150 C149 1.328 . S
C151 O135 1.264 . S
C151 O136 1.243 . S
C152 C155 1.399 . S
C152 C156 1.383 . S
C152 C159 1.496 . S
C153 C154 1.399 . S
C153 C156 1.389 . S
C154 C153 1.399 . S
C154 C157 1.380 1_565 S
C154 H164 0.929 . S
C155 C152 1.399 . S
C155 C157 1.392 1_565 S
C155 H165 0.929 1_565 S
C156 C152 1.383 . S
C156 C153 1.389 . S
C156 H166 0.931 . S
C157 C154 1.380 1_545 S
C157 C155 1.392 1_545 S
C157 H167 0.929 . S
C158 O138 1.266 . S
C158 O139 1.248 . S
C159 Tb95 2.802 . S
C159 O134 1.264 . S
C159 O137 1.256 . S
C159 C152 1.496 . S
H160 C143 0.929 . S
H161 C144 0.929 . S
H162 C145 0.929 . S
H163 C146 0.931 . S
H164 C154 0.929 . S
H165 C155 0.929 1_545 S
H166 C156 0.931 . S
H167 C157 0.929 . S
Tb168 N197 2.617 1_655 S
Tb168 N203 2.572 1_655 S
Tb168 O212 2.465 . S
Tb168 O213 2.387 . S
Tb168 O215 2.428 1_655 S
Tb168 O216 2.308 . S
Tb168 O220 2.337 1_545 S
Tb168 O223 2.393 . S
Tb168 C232 2.802 . S
C169 N170 1.379 . S
C169 C172 1.416 . S
C169 C176 1.424 . S
N170 C169 1.379 . S
N170 C173 1.334 . S
N170 Tb179 2.617 . S
C171 C173 1.390 . S
C171 C174 1.339 . S
C171 H191 0.930 . S
C172 C169 1.416 . S
C172 C174 1.416 . S
C172 C178 1.448 . S
C173 N170 1.334 . S
C173 C171 1.390 . S
C173 H184 0.930 . S
C174 C171 1.339 . S
C174 C172 1.416 . S
C174 H195 0.930 . S
C175 C176 1.413 . S
C175 C177 1.427 . S
C175 C181 1.416 . S
C176 C169 1.424 . S
C176 C175 1.413 . S
C176 N180 1.361 . S
C177 C175 1.427 . S
C177 C178 1.328 . S
C177 H192 0.929 . S
C178 C172 1.448 . S
C178 C177 1.328 . S
C178 H193 0.930 . S
Tb179 N170 2.617 . S
Tb179 N180 2.572 . S
Tb179 O214 2.349 1_565 S
Tb179 O217 2.393 . S
Tb179 O218 2.465 . S
Tb179 O219 2.387 . S
Tb179 O221 2.428 . S
Tb179 O222 2.308 . S
Tb179 C243 2.802 . S
N180 C176 1.361 . S
N180 Tb179 2.572 . S
N180 C182 1.340 . S
C181 C175 1.416 . S
C181 C183 1.332 . S
C181 H189 0.931 . S
C182 N180 1.340 . S
C182 C183 1.407 . S
C182 H188 0.930 . S
C183 C181 1.332 . S
C183 C182 1.407 . S
C183 H185 0.929 . S
H184 C173 0.930 . S
H185 C183 0.929 . S
H186 C201 0.930 . S
H187 C208 0.929 . S
H188 C182 0.930 . S
H189 C181 0.931 . S
H190 C204 0.930 . S
H191 C171 0.930 . S
H192 C177 0.929 . S
H193 C178 0.930 . S
H194 C199 0.930 . S
H195 C174 0.930 . S
H196 C207 0.931 . S
N197 Tb168 2.617 1_455 S
N197 C198 1.379 . S
N197 C201 1.334 . S
C198 N197 1.379 . S
C198 C200 1.416 . S
C198 C206 1.424 . S
C199 H194 0.930 . S
C199 C201 1.390 . S
C199 C202 1.339 . S
C200 C198 1.416 . S
C200 C202 1.416 . S
C200 C233 1.448 . S
C201 H186 0.930 . S
C201 N197 1.334 . S
C201 C199 1.390 . S
C202 C199 1.339 . S
C202 C200 1.416 . S
C202 H209 0.930 . S
N203 Tb168 2.572 1_455 S
N203 C204 1.340 1_455 S
N203 C206 1.361 . S
C204 H190 0.930 . S
C204 N203 1.340 1_655 S
C204 C208 1.407 . S
C205 C206 1.413 . S
C205 C207 1.416 . S
C205 C234 1.427 . S
C206 C198 1.424 . S
C206 N203 1.361 . S
C206 C205 1.413 . S
C207 H196 0.931 . S
C207 C205 1.416 . S
C207 C208 1.332 1_455 S
C208 H187 0.929 . S
C208 C204 1.407 . S
C208 C207 1.332 1_655 S
H209 C202 0.930 . S
H210 C233 0.930 . S
H211 C234 0.929 . S
O212 Tb168 2.465 . S
O212 C232 1.264 . S
O213 Tb168 2.387 . S
O213 C224 1.264 . S
O214 Tb179 2.349 1_545 S
O214 C224 1.243 . S
O215 Tb168 2.428 1_455 S
O215 C232 1.256 1_455 S
O216 Tb168 2.308 . S
O216 C231 1.266 1_545 S
O217 Tb179 2.393 . S
O217 C231 1.248 . S
O218 Tb179 2.465 . S
O218 C243 1.264 . S
O219 Tb179 2.387 . S
O219 C235 1.264 . S
O220 Tb168 2.337 1_565 S
O220 C235 1.256 . S
O221 Tb179 2.428 . S
O221 C243 1.256 . S
O222 Tb179 2.308 . S
O222 C242 1.266 1_565 S
O223 Tb168 2.393 . S
O223 C242 1.248 . S
C224 O213 1.264 . S
C224 O214 1.243 . S
C225 C228 1.398 1_554 S
C225 C230 1.382 1_454 S
C225 C232 1.499 1_455 S
C226 C227 1.399 1_655 S
C226 C230 1.389 . S
C227 C226 1.399 1_455 S
C227 C229 1.380 . S
C227 H244 0.929 . S
C228 C225 1.398 1_556 S
C228 C229 1.392 . S
C228 H245 0.929 . S
C229 C227 1.380 . S
C229 C228 1.392 . S
C229 H246 0.929 . S
C230 C225 1.382 1_656 S
C230 C226 1.389 . S
C230 H247 0.931 1_556 S
C231 O216 1.266 1_565 S
C231 O217 1.248 . S
C232 Tb168 2.802 . S
C232 O212 1.264 . S
C232 O215 1.256 1_655 S
C232 C225 1.499 1_655 S
C233 C200 1.448 . S
C233 H210 0.930 . S
C233 C234 1.328 . S
C234 C205 1.427 . S
C234 H211 0.929 . S
C234 C233 1.328 . S
C235 O219 1.264 . S
C235 O220 1.256 . S
C236 C239 1.399 . S
C236 C240 1.383 . S
C236 C243 1.496 . S
C237 C238 1.399 . S
C237 C240 1.389 . S
C238 C237 1.399 . S
C238 C241 1.380 . S
C238 H248 0.929 . S
C239 C236 1.399 . S
C239 C241 1.392 . S
C239 H249 0.929 . S
C240 C236 1.383 . S
C240 C237 1.389 . S
C240 H250 0.931 . S
C241 C238 1.380 . S
C241 C239 1.392 . S
C241 H251 0.929 . S
C242 O222 1.266 1_545 S
C242 O223 1.248 . S
C243 Tb179 2.802 . S
C243 O218 1.264 . S
C243 O221 1.256 . S
C243 C236 1.496 . S
H244 C227 0.929 . S
H245 C228 0.929 . S
H246 C229 0.929 . S
H247 C230 0.931 1_554 S
H248 C238 0.929 . S
H249 C239 0.929 . S
H250 C240 0.931 . S
H251 C241 0.929 . S
Tb252 N281 2.617 1_565 S
Tb252 N287 2.572 1_565 S
Tb252 O296 2.465 . S
Tb252 O297 2.387 . S
Tb252 O299 2.428 1_565 S
Tb252 O300 2.308 . S
Tb252 O304 2.349 . S
Tb252 O307 2.393 . S
Tb252 C316 2.802 . S
C253 N254 1.379 . S
C253 C256 1.416 . S
C253 C260 1.424 . S
N254 C253 1.379 . S
N254 C257 1.334 . S
N254 Tb263 2.617 . S
C255 C257 1.390 . S
C255 C258 1.339 . S
C255 H275 0.930 . S
C256 C253 1.416 . S
C256 C258 1.416 . S
C256 C262 1.448 . S
C257 N254 1.334 . S
C257 C255 1.390 . S
C257 H268 0.930 . S
C258 C255 1.339 . S
C258 C256 1.416 . S
C258 H279 0.930 . S
C259 C260 1.413 . S
C259 C261 1.427 . S
C259 C265 1.416 . S
C260 C253 1.424 . S
C260 C259 1.413 . S
C260 N264 1.361 . S
C261 C259 1.427 . S
C261 C262 1.328 . S
C261 H276 0.929 . S
C262 C256 1.448 . S
C262 C261 1.328 . S
C262 H277 0.930 . S
Tb263 N254 2.617 . S
Tb263 N264 2.572 . S
Tb263 O298 2.349 1_655 S
Tb263 O301 2.393 . S
Tb263 O302 2.465 . S
Tb263 O303 2.387 . S
Tb263 O305 2.428 . S
Tb263 O306 2.308 . S
Tb263 C327 2.802 . S
N264 C260 1.361 . S
N264 Tb263 2.572 . S
N264 C266 1.340 . S
C265 C259 1.416 . S
C265 C267 1.332 . S
C265 H273 0.931 . S
C266 N264 1.340 . S
C266 C267 1.407 . S
C266 H272 0.930 . S
C267 C265 1.332 . S
C267 C266 1.407 . S
C267 H269 0.929 . S
H268 C257 0.930 . S
H269 C267 0.929 . S
H270 C285 0.930 . S
H271 C292 0.929 1_565 S
H272 C266 0.930 . S
H273 C265 0.931 . S
H274 C288 0.930 . S
H275 C255 0.930 . S
H276 C261 0.929 . S
H277 C262 0.930 . S
H278 C283 0.930 . S
H279 C258 0.930 . S
H280 C291 0.931 . S
N281 Tb252 2.617 1_545 S
N281 C282 1.379 . S
N281 C285 1.334 . S
C282 N281 1.379 . S
C282 C284 1.416 . S
C282 C290 1.424 . S
C283 H278 0.930 . S
C283 C285 1.390 . S
C283 C286 1.339 . S
C284 C282 1.416 . S
C284 C286 1.416 . S
C284 C317 1.448 . S
C285 H270 0.930 . S
C285 N281 1.334 . S
C285 C283 1.390 . S
C286 C283 1.339 . S
C286 C284 1.416 . S
C286 H293 0.930 . S
N287 Tb252 2.572 1_545 S
N287 C288 1.340 1_545 S
N287 C290 1.361 . S
C288 H274 0.930 . S
C288 N287 1.340 1_565 S
C288 C292 1.407 1_565 S
C289 C290 1.413 . S
C289 C291 1.416 . S
C289 C318 1.427 . S
C290 C282 1.424 . S
C290 N287 1.361 . S
C290 C289 1.413 . S
C291 H280 0.931 . S
C291 C289 1.416 . S
C291 C292 1.332 . S
C292 H271 0.929 1_545 S
C292 C288 1.407 1_545 S
C292 C291 1.332 . S
H293 C286 0.930 . S
H294 C317 0.930 . S
H295 C318 0.929 . S
O296 Tb252 2.465 . S
O296 C316 1.264 . S
O297 Tb252 2.387 . S
O297 C308 1.264 . S
O298 Tb263 2.349 1_455 S
O298 C308 1.243 . S
O299 Tb252 2.428 1_545 S
O299 C316 1.256 1_545 S
O300 Tb252 2.308 . S
O300 C315 1.266 1_455 S
O301 Tb263 2.393 . S
O301 C315 1.248 . S
O302 Tb263 2.465 . S
O302 C327 1.264 . S
O303 Tb263 2.387 . S
O303 C319 1.264 . S
O304 Tb252 2.349 . S
O304 C319 1.243 1_455 S
O305 Tb263 2.428 . S
O305 C327 1.256 . S
O306 Tb263 2.308 . S
O306 C326 1.266 1_655 S
O307 Tb252 2.393 . S
O307 C326 1.248 . S
C308 O297 1.264 . S
C308 O298 1.243 . S
C309 C312 1.399 . S
C309 C314 1.383 1_545 S
C309 C316 1.496 1_545 S
C310 C311 1.399 . S
C310 C314 1.389 1_545 S
C311 C310 1.399 . S
C311 C313 1.380 . S
C311 H328 0.929 . S
C312 C309 1.399 . S
C312 C313 1.392 . S
C312 H329 0.929 . S
C313 C311 1.380 . S
C313 C312 1.392 . S
C313 H330 0.929 . S
C314 C309 1.383 1_565 S
C314 C310 1.389 1_565 S
C314 H331 0.931 . S
C315 O300 1.266 1_655 S
C315 O301 1.248 . S
C316 Tb252 2.802 . S
C316 O296 1.264 . S
C316 O299 1.256 1_565 S
C316 C309 1.496 1_565 S
C317 C284 1.448 . S
C317 H294 0.930 . S
C317 C318 1.328 . S
C318 C289 1.427 . S
C318 H295 0.929 . S
C318 C317 1.328 . S
C319 O303 1.264 . S
C319 O304 1.243 1_655 S
C320 C323 1.399 . S
C320 C324 1.383 . S
C320 C327 1.496 . S
C321 C322 1.399 . S
C321 C324 1.389 . S
C322 C321 1.399 . S
C322 C325 1.380 . S
C322 H332 0.929 . S
C323 C320 1.399 . S
C323 C325 1.392 . S
C323 H333 0.929 . S
C324 C320 1.383 . S
C324 C321 1.389 . S
C324 H334 0.931 . S
C325 C322 1.380 . S
C325 C323 1.392 . S
C325 H335 0.929 . S
C326 O306 1.266 1_455 S
C326 O307 1.248 . S
C327 Tb263 2.802 . S
C327 O302 1.264 . S
C327 O305 1.256 . S
C327 C320 1.496 . S
H328 C311 0.929 . S
H329 C312 0.929 . S
H330 C313 0.929 . S
H331 C314 0.931 . S
H332 C322 0.929 . S
H333 C323 0.929 . S
H334 C324 0.931 . S
H335 C325 0.929 . S
H336 C344 0.929 . S
H337 C346 0.930 1_565 S
H338 C348 0.930 . S
H339 C351 0.929 . S
H340 C354 0.930 . S
H341 C356 0.960 . S
H342 C356 0.960 . S
H343 C356 0.960 . S
C344 H336 0.929 . S
C344 C345 1.377 . S
C344 C346 1.384 1_565 S
C345 C344 1.377 . S
C345 C351 1.390 1_565 S
C346 H337 0.930 1_545 S
C346 C344 1.384 1_545 S
C346 C347 1.372 1_655 S
C347 C346 1.372 1_455 S
C347 C348 1.400 . S
C347 C352 1.490 . S
C348 H338 0.930 . S
C348 C347 1.400 . S
C348 C351 1.386 1_455 S
H349 C365 0.930 . S
H350 C366 0.931 . S
C351 H339 0.929 . S
C351 C345 1.390 1_545 S
C351 C348 1.386 1_655 S
C352 C347 1.490 . S
C352 C354 1.395 . S
C352 C355 1.403 . S
H353 C359 0.930 . S
C354 H340 0.930 . S
C354 C352 1.395 . S
C354 C357 1.403 . S
C355 C352 1.403 . S
C355 C356 1.524 . S
C355 C359 1.400 . S
C356 H341 0.960 . S
C356 H342 0.960 . S
C356 H343 0.960 . S
C356 C355 1.524 . S
C357 C354 1.403 . S
C357 C358 1.392 . S
C357 C361 1.495 . S
C358 C357 1.392 . S
C358 C359 1.385 . S
C358 C360 1.478 . S
C359 H353 0.930 . S
C359 C355 1.400 . S
C359 C358 1.385 . S
C360 C358 1.478 . S
C360 C362 1.381 . S
C360 C366 1.383 . S
C361 C357 1.495 . S
C361 H367 0.959 . S
C361 H368 0.961 . S
C361 H369 0.960 . S
C362 C360 1.381 . S
C362 C363 1.394 . S
C362 H370 0.930 . S
C363 C362 1.394 . S
C363 C364 1.383 . S
C363 H371 0.929 . S
C364 C363 1.383 . S
C364 C365 1.377 . S
C365 H349 0.930 . S
C365 C364 1.377 . S
C365 C366 1.379 . S
C366 H350 0.931 . S
C366 C360 1.383 . S
C366 C365 1.379 . S
H367 C361 0.959 . S
H368 C361 0.961 . S
H369 C361 0.960 . S
H370 C362 0.930 . S
H371 C363 0.929 . S
H372 C380 0.929 . S
H373 C382 0.930 . S
H374 C384 0.930 . S
H375 C387 0.929 . S
H376 C390 0.930 . S
H377 C392 0.960 . S
H378 C392 0.960 . S
H379 C392 0.960 . S
C380 H372 0.929 . S
C380 C381 1.377 . S
C380 C382 1.384 1_565 S
C381 C380 1.377 . S
C381 C387 1.390 . S
C382 H373 0.930 . S
C382 C380 1.384 1_545 S
C382 C383 1.372 . S
C383 C382 1.372 . S
C383 C384 1.400 . S
C383 C388 1.490 . S
C384 H374 0.930 . S
C384 C383 1.400 . S
C384 C387 1.386 1_545 S
H385 C401 0.930 . S
H386 C402 0.931 . S
C387 H375 0.929 . S
C387 C381 1.390 . S
C387 C384 1.386 1_565 S
C388 C383 1.490 . S
C388 C390 1.395 . S
C388 C391 1.403 . S
H389 C395 0.930 . S
C390 H376 0.930 . S
C390 C388 1.395 . S
C390 C393 1.403 . S
C391 C388 1.403 . S
C391 C392 1.524 . S
C391 C395 1.400 . S
C392 H377 0.960 . S
C392 H378 0.960 . S
C392 H379 0.960 . S
C392 C391 1.524 . S
C393 C390 1.403 . S
C393 C394 1.392 . S
C393 C397 1.495 . S
C394 C393 1.392 . S
C394 C395 1.385 . S
C394 C396 1.478 . S
C395 H389 0.930 . S
C395 C391 1.400 . S
C395 C394 1.385 . S
C396 C394 1.478 . S
C396 C398 1.381 . S
C396 C402 1.383 . S
C397 C393 1.495 . S
C397 H403 0.959 . S
C397 H404 0.961 . S
C397 H405 0.960 . S
C398 C396 1.381 . S
C398 C399 1.394 . S
C398 H406 0.930 . S
C399 C398 1.394 . S
C399 C400 1.383 . S
C399 H407 0.929 . S
C400 C399 1.383 . S
C400 C401 1.377 . S
C401 H385 0.930 . S
C401 C400 1.377 . S
C401 C402 1.379 . S
C402 H386 0.931 . S
C402 C396 1.383 . S
C402 C401 1.379 . S
H403 C397 0.959 . S
H404 C397 0.961 . S
H405 C397 0.960 . S
H406 C398 0.930 . S
H407 C399 0.929 . S
H408 C416 0.929 . S
H409 C418 0.930 1_565 S
H410 C420 0.930 . S
H411 C423 0.929 . S
H412 C426 0.930 . S
H413 C428 0.960 . S
H414 C428 0.960 . S
H415 C428 0.960 . S
C416 H408 0.929 . S
C416 C417 1.377 1_565 S
C416 C418 1.384 1_565 S
C417 C416 1.377 1_545 S
C417 C423 1.390 . S
C418 H409 0.930 1_545 S
C418 C416 1.384 1_545 S
C418 C419 1.372 . S
C419 C418 1.372 . S
C419 C420 1.400 . S
C419 C424 1.490 . S
C420 H410 0.930 . S
C420 C419 1.400 . S
C420 C423 1.386 . S
H421 C437 0.930 . S
H422 C438 0.931 . S
C423 H411 0.929 . S
C423 C417 1.390 . S
C423 C420 1.386 . S
C424 C419 1.490 . S
C424 C426 1.395 . S
C424 C427 1.403 . S
H425 C431 0.930 . S
C426 H412 0.930 . S
C426 C424 1.395 . S
C426 C429 1.403 . S
C427 C424 1.403 . S
C427 C428 1.524 . S
C427 C431 1.400 . S
C428 H413 0.960 . S
C428 H414 0.960 . S
C428 H415 0.960 . S
C428 C427 1.524 . S
C429 C426 1.403 . S
C429 C430 1.392 . S
C429 C433 1.495 . S
C430 C429 1.392 . S
C430 C431 1.385 . S
C430 C432 1.478 . S
C431 H425 0.930 . S
C431 C427 1.400 . S
C431 C430 1.385 . S
C432 C430 1.478 . S
C432 C434 1.381 . S
C432 C438 1.383 . S
C433 C429 1.495 . S
C433 H439 0.959 . S
C433 H440 0.961 . S
C433 H441 0.960 . S
C434 C432 1.381 . S
C434 C435 1.394 . S
C434 H442 0.930 . S
C435 C434 1.394 . S
C435 C436 1.383 . S
C435 H443 0.929 . S
C436 C435 1.383 . S
C436 C437 1.377 . S
C437 H421 0.930 . S
C437 C436 1.377 . S
C437 C438 1.379 . S
C438 H422 0.931 . S
C438 C432 1.383 . S
C438 C437 1.379 . S
H439 C433 0.959 . S
H440 C433 0.961 . S
H441 C433 0.960 . S
H442 C434 0.930 . S
H443 C435 0.929 . S
H444 C452 0.929 . S
H445 C454 0.930 . S
H446 C456 0.930 . S
H447 C459 0.929 . S
H448 C462 0.930 . S
H449 C464 0.960 . S
H450 C464 0.960 . S
H451 C464 0.960 . S
C452 H444 0.929 . S
C452 C453 1.377 . S
C452 C454 1.384 . S
C453 C452 1.377 . S
C453 C459 1.390 . S
C454 H445 0.930 . S
C454 C452 1.384 . S
C454 C455 1.372 . S
C455 C454 1.372 . S
C455 C456 1.400 . S
C455 C460 1.490 . S
C456 H446 0.930 . S
C456 C455 1.400 . S
C456 C459 1.386 . S
H457 C473 0.930 1_655 S
H458 C474 0.931 . S
C459 H447 0.929 . S
C459 C453 1.390 . S
C459 C456 1.386 . S
C460 C455 1.490 . S
C460 C462 1.395 . S
C460 C463 1.403 . S
H461 C467 0.930 . S
C462 H448 0.930 . S
C462 C460 1.395 . S
C462 C465 1.403 . S
C463 C460 1.403 . S
C463 C464 1.524 . S
C463 C467 1.400 . S
C464 H449 0.960 . S
C464 H450 0.960 . S
C464 H451 0.960 . S
C464 C463 1.524 . S
C465 C462 1.403 . S
C465 C466 1.392 . S
C465 C469 1.495 . S
C466 C465 1.392 . S
C466 C467 1.385 . S
C466 C468 1.478 . S
C467 H461 0.930 . S
C467 C463 1.400 . S
C467 C466 1.385 . S
C468 C466 1.478 . S
C468 C470 1.381 . S
C468 C474 1.383 . S
C469 C465 1.495 . S
C469 H475 0.959 . S
C469 H476 0.961 . S
C469 H477 0.960 . S
C470 C468 1.381 . S
C470 C471 1.394 . S
C470 H478 0.930 . S
C471 C470 1.394 . S
C471 C472 1.383 . S
C471 H479 0.929 . S
C472 C471 1.383 . S
C472 C473 1.377 . S
C473 H457 0.930 1_455 S
C473 C472 1.377 . S
C473 C474 1.379 . S
C474 H458 0.931 . S
C474 C468 1.383 . S
C474 C473 1.379 . S
H475 C469 0.959 . S
H476 C469 0.961 . S
H477 C469 0.960 . S
H478 C470 0.930 . S
H479 C471 0.929 . S
H480 C488 0.929 . S
H481 C490 0.930 . S
H482 C492 0.930 . S
H483 C495 0.929 . S
H484 C498 0.930 . S
H485 C500 0.960 1_455 S
H486 C500 0.960 . S
H487 C500 0.950 . S
C488 H480 0.929 . S
C488 C489 1.377 . S
C488 C490 1.384 . S
C489 C488 1.377 . S
C489 C495 1.390 . S
C490 H481 0.930 . S
C490 C488 1.384 . S
C490 C491 1.372 . S
C491 C490 1.372 . S
C491 C492 1.400 . S
C491 C496 1.490 . S
C492 H482 0.930 . S
C492 C491 1.400 . S
C492 C495 1.386 . S
H493 C509 0.930 . S
H494 C510 0.931 . S
C495 H483 0.929 . S
C495 C489 1.390 . S
C495 C492 1.386 . S
C496 C491 1.490 . S
C496 C498 1.395 . S
C496 C499 1.403 . S
H497 C503 0.930 . S
C498 H484 0.930 . S
C498 C496 1.395 . S
C498 C501 1.403 . S
C499 C496 1.403 . S
C499 C500 1.524 . S
C499 C503 1.400 . S
C500 H485 0.960 1_655 S
C500 H486 0.960 . S
C500 H487 0.950 . S
C500 C499 1.524 . S
C501 C498 1.403 . S
C501 C502 1.392 . S
C501 C505 1.495 . S
C502 C501 1.392 . S
C502 C503 1.385 . S
C502 C504 1.478 . S
C503 H497 0.930 . S
C503 C499 1.400 . S
C503 C502 1.385 . S
C504 C502 1.478 . S
C504 C506 1.381 . S
C504 C510 1.383 . S
C505 C501 1.495 . S
C505 H511 0.959 . S
C505 H512 0.961 . S
C505 H513 0.960 . S
C506 C504 1.381 . S
C506 C507 1.394 . S
C506 H514 0.930 . S
C507 C506 1.394 . S
C507 C508 1.383 . S
C507 H515 0.929 . S
C508 C507 1.383 . S
C508 C509 1.377 . S
C509 H493 0.930 . S
C509 C508 1.377 . S
C509 C510 1.379 . S
C510 H494 0.931 . S
C510 C504 1.383 . S
C510 C509 1.379 . S
H511 C505 0.959 . S
H512 C505 0.961 . S
H513 C505 0.960 . S
H514 C506 0.930 . S
H515 C507 0.929 . S
H516 C524 0.929 . S
H517 C526 0.930 . S
H518 C528 0.930 . S
H519 C531 0.929 . S
H520 C534 0.930 . S
H521 C536 0.960 . S
H522 C536 0.960 . S
H523 C536 0.960 . S
C524 H516 0.929 . S
C524 C525 1.377 . S
C524 C526 1.384 . S
C525 C524 1.377 . S
C525 C531 1.390 . S
C526 H517 0.930 . S
C526 C524 1.384 . S
C526 C527 1.372 . S
C527 C526 1.372 . S
C527 C528 1.400 . S
C527 C532 1.490 . S
C528 H518 0.930 . S
C528 C527 1.400 . S
C528 C531 1.386 . S
H529 C545 0.930 . S
H530 C546 0.931 . S
C531 H519 0.929 . S
C531 C525 1.390 . S
C531 C528 1.386 . S
C532 C527 1.490 . S
C532 C534 1.395 . S
C532 C535 1.403 . S
H533 C539 0.930 1_655 S
C534 H520 0.930 . S
C534 C532 1.395 . S
C534 C537 1.403 . S
C535 C532 1.403 . S
C535 C536 1.524 1_455 S
C535 C539 1.400 . S
C536 H521 0.960 . S
C536 H522 0.960 . S
C536 H523 0.960 . S
C536 C535 1.524 1_655 S
C537 C534 1.403 . S
C537 C538 1.392 . S
C537 C541 1.495 . S
C538 C537 1.392 . S
C538 C539 1.385 . S
C538 C540 1.478 . S
C539 H533 0.930 1_455 S
C539 C535 1.400 . S
C539 C538 1.385 . S
C540 C538 1.478 . S
C540 C542 1.381 1_455 S
C540 C546 1.383 . S
C541 C537 1.495 . S
C541 H547 0.959 . S
C541 H548 0.961 . S
C541 H549 0.960 . S
C542 C540 1.381 1_655 S
C542 C543 1.394 . S
C542 H550 0.930 1_655 S
C543 C542 1.394 . S
C543 C544 1.383 . S
C543 H551 0.929 . S
C544 C543 1.383 . S
C544 C545 1.377 . S
C545 H529 0.930 . S
C545 C544 1.377 . S
C545 C546 1.379 1_655 S
C546 H530 0.931 . S
C546 C540 1.383 . S
C546 C545 1.379 1_455 S
H547 C541 0.959 . S
H548 C541 0.961 . S
H549 C541 0.960 . S
H550 C542 0.930 1_455 S
H551 C543 0.929 . S
H552 C560 0.929 . S
H553 C562 0.930 . S
H554 C564 0.930 . S
H555 C567 0.929 . S
H556 C570 0.930 . S
H557 C572 0.960 . S
H558 C572 0.960 . S
H559 C572 0.960 . S
C560 H552 0.929 . S
C560 C561 1.377 . S
C560 C562 1.384 . S
C561 C560 1.377 . S
C561 C567 1.390 . S
C562 H553 0.930 . S
C562 C560 1.384 . S
C562 C563 1.372 . S
C563 C562 1.372 . S
C563 C564 1.400 . S
C563 C568 1.490 . S
C564 H554 0.930 . S
C564 C563 1.400 . S
C564 C567 1.386 . S
H565 C581 0.930 . S
H566 C582 0.931 . S
C567 H555 0.929 . S
C567 C561 1.390 . S
C567 C564 1.386 . S
C568 C563 1.490 . S
C568 C570 1.395 . S
C568 C571 1.403 . S
H569 C575 0.930 . S
C570 H556 0.930 . S
C570 C568 1.395 . S
C570 C573 1.403 . S
C571 C568 1.403 . S
C571 C572 1.524 . S
C571 C575 1.400 . S
C572 H557 0.960 . S
C572 H558 0.960 . S
C572 H559 0.960 . S
C572 C571 1.524 . S
C573 C570 1.403 . S
C573 C574 1.392 . S
C573 C577 1.495 . S
C574 C573 1.392 . S
C574 C575 1.385 . S
C574 C576 1.478 . S
C575 H569 0.930 . S
C575 C571 1.400 . S
C575 C574 1.385 . S
C576 C574 1.478 . S
C576 C578 1.381 . S
C576 C582 1.383 . S
C577 C573 1.495 . S
C577 H583 0.959 . S
C577 H584 0.961 . S
C577 H585 0.960 . S
C578 C576 1.381 . S
C578 C579 1.394 . S
C578 H586 0.930 . S
C579 C578 1.394 . S
C579 C580 1.383 . S
C579 H587 0.929 . S
C580 C579 1.383 . S
C580 C581 1.377 . S
C581 H565 0.930 . S
C581 C580 1.377 . S
C581 C582 1.379 . S
C582 H566 0.931 . S
C582 C576 1.383 . S
C582 C581 1.379 . S
H583 C577 0.959 . S
H584 C577 0.961 . S
H585 C577 0.960 . S
H586 C578 0.930 . S
H587 C579 0.929 . S
H588 C596 0.929 . S
H589 C598 0.930 . S
H590 C600 0.930 . S
H591 C603 0.929 . S
H592 C606 0.930 . S
H593 C608 0.960 . S
H594 C608 0.960 . S
H595 C608 0.960 . S
C596 H588 0.929 . S
C596 C597 1.377 . S
C596 C598 1.384 . S
C597 C596 1.377 . S
C597 C603 1.390 1_565 S
C598 H589 0.930 . S
C598 C596 1.384 . S
C598 C599 1.372 1_565 S
C599 C598 1.372 1_545 S
C599 C600 1.400 . S
C599 C604 1.490 . S
C600 H590 0.930 . S
C600 C599 1.400 . S
C600 C603 1.386 . S
H601 C617 0.930 . S
H602 C618 0.931 . S
C603 H591 0.929 . S
C603 C597 1.390 1_545 S
C603 C600 1.386 . S
C604 C599 1.490 . S
C604 C606 1.395 . S
C604 C607 1.403 . S
H605 C611 0.930 . S
C606 H592 0.930 . S
C606 C604 1.395 . S
C606 C609 1.403 . S
C607 C604 1.403 . S
C607 C608 1.524 . S
C607 C611 1.400 . S
C608 H593 0.960 . S
C608 H594 0.960 . S
C608 H595 0.960 . S
C608 C607 1.524 . S
C609 C606 1.403 . S
C609 C610 1.392 . S
C609 C613 1.495 . S
C610 C609 1.392 . S
C610 C611 1.385 . S
C610 C612 1.478 . S
C611 H605 0.930 . S
C611 C607 1.400 . S
C611 C610 1.385 . S
C612 C610 1.478 . S
C612 C614 1.381 . S
C612 C618 1.383 . S
C613 C609 1.495 . S
C613 H619 0.959 . S
C613 H620 0.961 . S
C613 H621 0.960 . S
C614 C612 1.381 . S
C614 C615 1.394 1_556 S
C614 H622 0.930 . S
C615 C614 1.394 1_554 S
C615 C616 1.383 1_554 S
C615 H623 0.929 . S
C616 C615 1.383 1_556 S
C616 C617 1.377 . S
C617 H601 0.930 . S
C617 C616 1.377 . S
C617 C618 1.379 . S
C618 H602 0.931 . S
C618 C612 1.383 . S
C618 C617 1.379 . S
H619 C613 0.959 . S
H620 C613 0.961 . S
H621 C613 0.960 . S
H622 C614 0.930 . S
H623 C615 0.929 . S
H624 C632 0.929 1_554 S
H625 C634 0.930 . S
H626 C636 0.930 . S
H627 C639 0.928 1_554 S
H628 C642 0.930 . S
H629 C644 0.960 . S
H630 C644 0.960 . S
H631 C644 0.960 . S
C632 H624 0.929 1_556 S
C632 C633 1.377 1_556 S
C632 C634 1.384 . S
C633 C632 1.377 1_554 S
C633 C639 1.390 1_554 S
C634 H625 0.930 . S
C634 C632 1.384 . S
C634 C635 1.372 . S
C635 C634 1.372 . S
C635 C636 1.400 . S
C635 C640 1.490 . S
C636 H626 0.930 . S
C636 C635 1.400 . S
C636 C639 1.386 . S
H637 C653 0.930 . S
H638 C654 0.931 . S
C639 H627 0.928 1_556 S
C639 C633 1.390 1_556 S
C639 C636 1.386 . S
C640 C635 1.490 . S
C640 C642 1.395 . S
C640 C643 1.403 . S
H641 C647 0.930 . S
C642 H628 0.930 . S
C642 C640 1.395 . S
C642 C645 1.403 . S
C643 C640 1.403 . S
C643 C644 1.524 . S
C643 C647 1.400 . S
C644 H629 0.960 . S
C644 H630 0.960 . S
C644 H631 0.960 . S
C644 C643 1.524 . S
C645 C642 1.403 . S
C645 C646 1.392 . S
C645 C649 1.495 . S
C646 C645 1.392 . S
C646 C647 1.385 . S
C646 C648 1.478 . S
C647 H641 0.930 . S
C647 C643 1.400 . S
C647 C646 1.385 . S
C648 C646 1.478 . S
C648 C650 1.381 . S
C648 C654 1.383 . S
C649 C645 1.495 . S
C649 H655 0.959 . S
C649 H656 0.961 . S
C649 H657 0.960 . S
C650 C648 1.381 . S
C650 C651 1.394 . S
C650 H658 0.930 . S
C651 C650 1.394 . S
C651 C652 1.383 . S
C651 H659 0.929 . S
C652 C651 1.383 . S
C652 C653 1.377 . S
C653 H637 0.930 . S
C653 C652 1.377 . S
C653 C654 1.379 . S
C654 H638 0.931 . S
C654 C648 1.383 . S
C654 C653 1.379 . S
H655 C649 0.959 . S
H656 C649 0.961 . S
H657 C649 0.960 . S
H658 C650 0.930 . S
H659 C651 0.929 . S
H660 C668 0.929 . S
H661 C670 0.930 . S
H662 C672 0.930 . S
H663 C675 0.929 . S
H664 C678 0.930 . S
H665 C680 0.960 . S
H666 C680 0.960 . S
H667 C680 0.960 1_545 S
C668 H660 0.929 . S
C668 C669 1.377 . S
C668 C670 1.384 . S
C669 C668 1.377 . S
C669 C675 1.390 . S
C670 H661 0.930 . S
C670 C668 1.384 . S
C670 C671 1.372 . S
C671 C670 1.372 . S
C671 C672 1.400 . S
C671 C676 1.490 . S
C672 H662 0.930 . S
C672 C671 1.400 . S
C672 C675 1.386 . S
H673 C689 0.930 1_545 S
H674 C690 0.931 . S
C675 H663 0.929 . S
C675 C669 1.390 . S
C675 C672 1.386 . S
C676 C671 1.490 . S
C676 C678 1.395 . S
C676 C679 1.403 . S
H677 C683 0.930 . S
C678 H664 0.930 . S
C678 C676 1.395 . S
C678 C681 1.403 . S
C679 C676 1.403 . S
C679 C680 1.524 1_545 S
C679 C683 1.400 1_545 S
C680 H665 0.960 . S
C680 H666 0.960 . S
C680 H667 0.960 1_565 S
C680 C679 1.524 1_565 S
C681 C678 1.403 . S
C681 C682 1.392 . S
C681 C685 1.495 . S
C682 C681 1.392 . S
C682 C683 1.385 1_545 S
C682 C684 1.478 1_545 S
C683 H677 0.930 . S
C683 C679 1.400 1_565 S
C683 C682 1.385 1_565 S
C684 C682 1.478 1_565 S
C684 C686 1.381 . S
C684 C690 1.383 1_565 S
C685 C681 1.495 . S
C685 H691 0.959 . S
C685 H692 0.961 . S
C685 H693 0.960 . S
C686 C684 1.381 . S
C686 C687 1.394 . S
C686 H694 0.930 . S
C687 C686 1.394 . S
C687 C688 1.383 . S
C687 H695 0.929 . S
C688 C687 1.383 . S
C688 C689 1.377 . S
C689 H673 0.930 1_565 S
C689 C688 1.377 . S
C689 C690 1.379 1_565 S
C690 H674 0.931 . S
C690 C684 1.383 1_545 S
C690 C689 1.379 1_545 S
H691 C685 0.959 . S
H692 C685 0.961 . S
H693 C685 0.960 . S
H694 C686 0.930 . S
H695 C687 0.929 . S
H696 C704 0.929 . S
H697 C706 0.930 . S
H698 C708 0.930 . S
H699 C711 0.929 . S
H700 C714 0.930 . S
H701 C716 0.960 . S
H702 C716 0.960 . S
H703 C716 0.960 . S
C704 H696 0.929 . S
C704 C705 1.377 . S
C704 C706 1.384 . S
C705 C704 1.377 . S
C705 C711 1.390 . S
C706 H697 0.930 . S
C706 C704 1.384 . S
C706 C707 1.372 . S
C707 C706 1.372 . S
C707 C708 1.400 . S
C707 C712 1.490 . S
C708 H698 0.930 . S
C708 C707 1.400 . S
C708 C711 1.386 . S
H709 C725 0.930 . S
H710 C726 0.931 . S
C711 H699 0.929 . S
C711 C705 1.390 . S
C711 C708 1.386 . S
C712 C707 1.490 . S
C712 C714 1.395 . S
C712 C715 1.403 . S
H713 C719 0.930 . S
C714 H700 0.930 . S
C714 C712 1.395 . S
C714 C717 1.403 . S
C715 C712 1.403 . S
C715 C716 1.524 . S
C715 C719 1.400 . S
C716 H701 0.960 . S
C716 H702 0.960 . S
C716 H703 0.960 . S
C716 C715 1.524 . S
C717 C714 1.403 . S
C717 C718 1.392 . S
C717 C721 1.495 . S
C718 C717 1.392 . S
C718 C719 1.385 . S
C718 C720 1.478 . S
C719 H713 0.930 . S
C719 C715 1.400 . S
C719 C718 1.385 . S
C720 C718 1.478 . S
C720 C722 1.381 . S
C720 C726 1.383 . S
C721 C717 1.495 . S
C721 H727 0.959 1_665 S
C721 H728 0.961 . S
C721 H729 0.960 1_655 S
C722 C720 1.381 . S
C722 C723 1.394 . S
C722 H730 0.930 . S
C723 C722 1.394 . S
C723 C724 1.383 . S
C723 H731 0.929 . S
C724 C723 1.383 . S
C724 C725 1.377 . S
C725 H709 0.930 . S
C725 C724 1.377 . S
C725 C726 1.379 . S
C726 H710 0.931 . S
C726 C720 1.383 . S
C726 C725 1.379 . S
H727 C721 0.959 1_445 S
H728 C721 0.961 . S
H729 C721 0.960 1_455 S
H730 C722 0.930 . S
H731 C723 0.929 . S
H732 C740 0.929 . S
H733 C742 0.930 . S
H734 C744 0.930 . S
H735 C747 0.929 . S
H736 C750 0.930 1_655 S
H737 C752 0.960 . S
H738 C752 0.960 . S
H739 C752 0.960 . S
C740 H732 0.929 . S
C740 C741 1.377 . S
C740 C742 1.384 . S
C741 C740 1.377 . S
C741 C747 1.390 1_655 S
C742 H733 0.930 . S
C742 C740 1.384 . S
C742 C743 1.372 1_655 S
C743 C742 1.372 1_455 S
C743 C744 1.400 . S
C743 C748 1.490 . S
C744 H734 0.930 . S
C744 C743 1.400 . S
C744 C747 1.386 . S
H745 C761 0.930 . S
H746 C762 0.931 . S
C747 H735 0.929 . S
C747 C741 1.390 1_455 S
C747 C744 1.386 . S
C748 C743 1.490 . S
C748 C750 1.395 . S
C748 C751 1.403 . S
H749 C755 0.930 . S
C750 H736 0.930 1_455 S
C750 C748 1.395 . S
C750 C753 1.403 . S
C751 C748 1.403 . S
C751 C752 1.524 . S
C751 C755 1.400 . S
C752 H737 0.960 . S
C752 H738 0.960 . S
C752 H739 0.960 . S
C752 C751 1.524 . S
C753 C750 1.403 . S
C753 C754 1.392 . S
C753 C757 1.495 . S
C754 C753 1.392 . S
C754 C755 1.385 . S
C754 C756 1.478 . S
C755 H749 0.930 . S
C755 C751 1.400 . S
C755 C754 1.385 . S
C756 C754 1.478 . S
C756 C758 1.381 . S
C756 C762 1.383 . S
C757 C753 1.495 . S
C757 H763 0.959 1_455 S
C757 H764 0.961 . S
C757 H765 0.960 1_455 S
C758 C756 1.381 . S
C758 C759 1.394 . S
C758 H766 0.930 . S
C759 C758 1.394 . S
C759 C760 1.383 . S
C759 H767 0.929 . S
C760 C759 1.383 . S
C760 C761 1.377 . S
C761 H745 0.930 . S
C761 C760 1.377 . S
C761 C762 1.379 . S
C762 H746 0.931 . S
C762 C756 1.383 . S
C762 C761 1.379 . S
H763 C757 0.959 1_655 S
H764 C757 0.961 . S
H765 C757 0.960 1_655 S
H766 C758 0.930 . S
H767 C759 0.929 . S
C345 C242 0.633 1_565 S
C364 C63 0.660 . S
C381 C326 0.425 . S
C400 C158 0.669 . S
C417 C231 1.580 1_545 S
C436 C74 1.569 . S
C453 C147 1.661 . S
C472 C315 1.616 1_455 S
C489 C153 0.798 . S
C508 C56 0.770 . S
C525 C142 1.196 . S
C544 C226 0.974 . S
C561 C321 0.806 . S
C580 C237 0.800 . S
C597 C310 0.738 1_565 S
C616 C67 0.720 1_556 S
C633 C235 3.332 . S
C652 C319 3.335 . S
C669 C69 1.465 . S
C688 C308 1.800 . S
C705 C151 3.184 . S
C724 C58 3.143 . S
C741 C224 2.841 . S
C760 C140 2.888 . S
