# Generated by pormake.
# Topology umc, (4)-cn, num edge types: 1
# Building blocks:
#     Node 0, Type 0, BuildingBlock: KOZSID_clean_sbu_0, # of connection points: 4
#     Node 1, Type 0, BuildingBlock: KOZSID_clean_sbu_0, # of connection points: 4
#     Node 2, Type 0, BuildingBlock: KOZSID_clean_sbu_0, # of connection points: 4
#     Node 3, Type 0, BuildingBlock: KOZSID_clean_sbu_0, # of connection points: 4
#     Node 4, Type 0, BuildingBlock: KOZSID_clean_sbu_0, # of connection points: 4
#     Node 5, Type 0, BuildingBlock: KOZSID_clean_sbu_0, # of connection points: 4
#     Node 6, Type 0, BuildingBlock: KOZSID_clean_sbu_0, # of connection points: 4
#     Node 7, Type 0, BuildingBlock: KOZSID_clean_sbu_0, # of connection points: 4
#     Node 8, Type 0, BuildingBlock: KOZSID_clean_sbu_0, # of connection points: 4
#     Node 9, Type 0, BuildingBlock: KOZSID_clean_sbu_0, # of connection points: 4
#     Node 10, Type 0, BuildingBlock: KOZSID_clean_sbu_0, # of connection points: 4
#     Node 11, Type 0, BuildingBlock: KOZSID_clean_sbu_0, # of connection points: 4
#     Node 12, Type 0, BuildingBlock: KOZSID_clean_sbu_0, # of connection points: 4
#     Node 13, Type 0, BuildingBlock: KOZSID_clean_sbu_0, # of connection points: 4
#     Node 14, Type 0, BuildingBlock: KOZSID_clean_sbu_0, # of connection points: 4
#     Node 15, Type 0, BuildingBlock: KOZSID_clean_sbu_0, # of connection points: 4
#     Edge 16, Type (0, 0), BuildingBlock: CIFDUS_clean_linker_0, # of connection points: 2
#     Edge 17, Type (0, 0), BuildingBlock: CIFDUS_clean_linker_0, # of connection points: 2
#     Edge 18, Type (0, 0), BuildingBlock: CIFDUS_clean_linker_0, # of connection points: 2
#     Edge 19, Type (0, 0), BuildingBlock: CIFDUS_clean_linker_0, # of connection points: 2
#     Edge 20, Type (0, 0), BuildingBlock: CIFDUS_clean_linker_0, # of connection points: 2
#     Edge 21, Type (0, 0), BuildingBlock: CIFDUS_clean_linker_0, # of connection points: 2
#     Edge 22, Type (0, 0), BuildingBlock: CIFDUS_clean_linker_0, # of connection points: 2
#     Edge 23, Type (0, 0), BuildingBlock: CIFDUS_clean_linker_0, # of connection points: 2
#     Edge 24, Type (0, 0), BuildingBlock: CIFDUS_clean_linker_0, # of connection points: 2
#     Edge 25, Type (0, 0), BuildingBlock: CIFDUS_clean_linker_0, # of connection points: 2
#     Edge 26, Type (0, 0), BuildingBlock: CIFDUS_clean_linker_0, # of connection points: 2
#     Edge 27, Type (0, 0), BuildingBlock: CIFDUS_clean_linker_0, # of connection points: 2
#     Edge 28, Type (0, 0), BuildingBlock: CIFDUS_clean_linker_0, # of connection points: 2
#     Edge 29, Type (0, 0), BuildingBlock: CIFDUS_clean_linker_0, # of connection points: 2
#     Edge 30, Type (0, 0), BuildingBlock: CIFDUS_clean_linker_0, # of connection points: 2
#     Edge 31, Type (0, 0), BuildingBlock: CIFDUS_clean_linker_0, # of connection points: 2
#     Edge 32, Type (0, 0), BuildingBlock: CIFDUS_clean_linker_0, # of connection points: 2
#     Edge 33, Type (0, 0), BuildingBlock: CIFDUS_clean_linker_0, # of connection points: 2
#     Edge 34, Type (0, 0), BuildingBlock: CIFDUS_clean_linker_0, # of connection points: 2
#     Edge 35, Type (0, 0), BuildingBlock: CIFDUS_clean_linker_0, # of connection points: 2
#     Edge 36, Type (0, 0), BuildingBlock: CIFDUS_clean_linker_0, # of connection points: 2
#     Edge 37, Type (0, 0), BuildingBlock: CIFDUS_clean_linker_0, # of connection points: 2
#     Edge 38, Type (0, 0), BuildingBlock: CIFDUS_clean_linker_0, # of connection points: 2
#     Edge 39, Type (0, 0), BuildingBlock: CIFDUS_clean_linker_0, # of connection points: 2
#     Edge 40, Type (0, 0), BuildingBlock: CIFDUS_clean_linker_0, # of connection points: 2
#     Edge 41, Type (0, 0), BuildingBlock: CIFDUS_clean_linker_0, # of connection points: 2
#     Edge 42, Type (0, 0), BuildingBlock: CIFDUS_clean_linker_0, # of connection points: 2
#     Edge 43, Type (0, 0), BuildingBlock: CIFDUS_clean_linker_0, # of connection points: 2
#     Edge 44, Type (0, 0), BuildingBlock: CIFDUS_clean_linker_0, # of connection points: 2
#     Edge 45, Type (0, 0), BuildingBlock: CIFDUS_clean_linker_0, # of connection points: 2
#     Edge 46, Type (0, 0), BuildingBlock: CIFDUS_clean_linker_0, # of connection points: 2
#     Edge 47, Type (0, 0), BuildingBlock: CIFDUS_clean_linker_0, # of connection points: 2
# Relax obj value: 0.055
# Max RMSD: 0.170
# Mean RMSD: 0.170
data_MOF--net-umc--node1-KOZSID_clean_sbu_0--edge1-CIFDUS_clean_linker_0
_symmetry_space_group_name_H-M    P1
_symmetry_Int_Tables_number       1
_symmetry_cell_setting            triclinic
loop_
_symmetry_equiv_pos_as_xyz
'x, y, z'
_cell_length_a     60.472025
_cell_length_b     35.465633
_cell_length_c     55.455203
_cell_angle_alpha  89.968717
_cell_angle_beta   90.143963
_cell_angle_gamma 89.93711
loop_
_atom_site_label
_atom_site_type_symbol
_atom_site_fract_x
_atom_site_fract_y
_atom_site_fract_z
_atom_type_partial_charge
C0 C 0.37692 0.04248 0.33743 0.0
C1 C 0.36517 0.00898 0.33517 0.0
C2 C 0.35437 0.00342 0.3565 0.0
C3 C 0.36031 0.03335 0.37072 0.0
N4 N 0.37432 0.05737 0.35981 0.0
Co5 Co 0.38782 0.10286 0.37477 0.0
N6 N 0.38027 0.08545 0.40789 0.0
C7 C 0.36523 0.05883 0.41335 0.0
C8 C 0.36289 0.05305 0.43763 0.0
C9 C 0.3772 0.07782 0.44825 0.0
C10 C 0.3876 0.09742 0.42973 0.0
N11 N 0.40125 0.1483 0.38986 0.0
C12 C 0.40656 0.15545 0.41329 0.0
C13 C 0.41515 0.19152 0.41574 0.0
C14 C 0.41481 0.20758 0.3932 0.0
C15 C 0.40614 0.18051 0.37821 0.0
N16 N 0.39522 0.11979 0.34149 0.0
C17 C 0.40054 0.15527 0.33517 0.0
C18 C 0.40447 0.159 0.3109 0.0
C19 C 0.40126 0.1237 0.30132 0.0
C20 C 0.39558 0.10024 0.32034 0.0
N21 N 0.3592 0.13018 0.37266 0.0
C22 C 0.32258 0.17949 0.36782 0.0
C23 C 0.32971 0.15706 0.34846 0.0
C24 C 0.34771 0.1322 0.35135 0.0
C25 C 0.33358 0.17522 0.38993 0.0
C26 C 0.35182 0.15086 0.39191 0.0
N27 N 0.41667 0.07701 0.3768 0.0
C28 C 0.45603 0.07794 0.36936 0.0
C29 C 0.45879 0.04214 0.37976 0.0
C30 C 0.43961 0.02426 0.38863 0.0
C31 C 0.4188 0.0419 0.38674 0.0
C32 C 0.43515 0.09488 0.36839 0.0
H33 H 0.40447 0.02723 0.39348 0.0
H34 H 0.43406 0.12265 0.36068 0.0
H35 H 0.35278 0.11557 0.33605 0.0
H36 H 0.36042 0.15001 0.40892 0.0
C37 C 0.35613 0.03621 0.39535 0.0
C38 C 0.38874 0.06058 0.31733 0.0
C39 C 0.40219 0.12997 0.43379 0.0
C40 C 0.4049 0.18243 0.35295 0.0
H41 H 0.36435 0.99045 0.3197 0.0
H42 H 0.34419 0.97954 0.36138 0.0
H43 H 0.35243 0.03264 0.44657 0.0
H44 H 0.3793 0.08151 0.46748 0.0
H45 H 0.42081 0.20497 0.43214 0.0
H46 H 0.42066 0.23535 0.38828 0.0
H47 H 0.4097 0.18408 0.30137 0.0
H48 H 0.4027 0.11616 0.28248 0.0
H49 H 0.32153 0.15891 0.3311 0.0
H50 H 0.32877 0.1919 0.40541 0.0
H51 H 0.46982 0.09303 0.36159 0.0
H52 H 0.44051 0.99693 0.39724 0.0
C53 C 0.671 0.96605 0.33884 0.0
C54 C 0.6841 0.99799 0.33628 0.0
C55 C 0.69451 0.00358 0.35792 0.0
C56 C 0.68702 0.97527 0.37262 0.0
N57 N 0.67244 0.95228 0.36162 0.0
Co58 Co 0.65667 0.90952 0.37692 0.0
N59 N 0.66297 0.92905 0.40977 0.0
C60 C 0.67891 0.95392 0.41558 0.0
C61 C 0.6798 0.96165 0.4398 0.0
C62 C 0.6635 0.94007 0.44989 0.0
C63 C 0.65349 0.92037 0.43114 0.0
N64 N 0.641 0.86679 0.39237 0.0
C65 C 0.63356 0.86292 0.41534 0.0
C66 C 0.62381 0.82791 0.41856 0.0
C67 C 0.62547 0.80926 0.39689 0.0
C68 C 0.63608 0.83384 0.38164 0.0
N69 N 0.65053 0.8906 0.34388 0.0
C70 C 0.64473 0.85505 0.33829 0.0
C71 C 0.64164 0.85008 0.31392 0.0
C72 C 0.64588 0.88462 0.30363 0.0
C73 C 0.65127 0.90893 0.32233 0.0
N74 N 0.6844 0.8794 0.37795 0.0
C75 C 0.71934 0.82555 0.37884 0.0
C76 C 0.71412 0.84597 0.35773 0.0
C77 C 0.6969 0.873 0.35776 0.0
C78 C 0.70742 0.83505 0.39973 0.0
C79 C 0.69005 0.86113 0.39882 0.0
N80 N 0.62863 0.93796 0.37616 0.0
C81 C 0.58938 0.93854 0.36783 0.0
C82 C 0.58693 0.97433 0.3783 0.0
C83 C 0.60628 0.99181 0.38714 0.0
C84 C 0.62689 0.97343 0.38564 0.0
C85 C 0.61005 0.92087 0.36725 0.0
H86 H 0.64134 0.98757 0.39262 0.0
H87 H 0.61083 0.89289 0.35983 0.0
H88 H 0.69317 0.88762 0.34116 0.0
H89 H 0.68069 0.86532 0.41508 0.0
C90 C 0.68999 0.97386 0.39759 0.0
C91 C 0.65873 0.9482 0.31888 0.0
C92 C 0.63671 0.89099 0.43463 0.0
C93 C 0.63875 0.82956 0.35659 0.0
H94 H 0.68598 0.01563 0.32051 0.0
H95 H 0.70535 0.02669 0.3627 0.0
H96 H 0.69051 0.98148 0.44894 0.0
H97 H 0.65969 0.93861 0.46892 0.0
H98 H 0.6164 0.81696 0.43487 0.0
H99 H 0.61906 0.78158 0.39261 0.0
H100 H 0.63616 0.82479 0.30478 0.0
H101 H 0.6452 0.89115 0.28458 0.0
H102 H 0.72267 0.8404 0.341 0.0
H103 H 0.71107 0.82199 0.41691 0.0
H104 H 0.57546 0.92386 0.35997 0.0
H105 H 0.60562 0.01922 0.39565 0.0
C106 C 0.3791 0.96378 0.17159 0.0
C107 C 0.36782 0.99786 0.1734 0.0
C108 C 0.35631 1.00253 0.15235 0.0
C109 C 0.36152 0.97175 0.13856 0.0
N110 N 0.37573 0.94803 0.14954 0.0
Co111 Co 0.38953 0.90272 0.13462 0.0
N112 N 0.3819 0.91992 0.10152 0.0
C113 C 0.36657 0.9461 0.09597 0.0
C114 C 0.36412 0.95165 0.07166 0.0
C115 C 0.37867 0.92718 0.06114 0.0
C116 C 0.38931 0.90798 0.07975 0.0
N117 N 0.40329 0.85746 0.11967 0.0
C118 C 0.40896 0.85055 0.09635 0.0
C119 C 0.41772 0.81457 0.09398 0.0
C120 C 0.4171 0.79831 0.11646 0.0
C121 C 0.4081 0.82517 0.13134 0.0
N122 N 0.39697 0.88599 0.16782 0.0
C123 C 0.40215 0.85049 0.17427 0.0
C124 C 0.40623 0.84704 0.19855 0.0
C125 C 0.40338 0.88258 0.20791 0.0
C126 C 0.39782 0.90595 0.18875 0.0
N127 N 0.36104 0.87503 0.13647 0.0
C128 C 0.32352 0.82684 0.14088 0.0
C129 C 0.3294 0.85277 0.15916 0.0
C130 C 0.34817 0.87609 0.15673 0.0
C131 C 0.33673 0.82721 0.12 0.0
C132 C 0.35485 0.85168 0.118 0.0
N133 N 0.41821 0.92905 0.1328 0.0
C134 C 0.45795 0.92707 0.13752 0.0
C135 C 0.4601 0.96454 0.12967 0.0
C136 C 0.44043 0.98379 0.12353 0.0
C137 C 0.4198 0.96553 0.12501 0.0
C138 C 0.43709 0.91022 0.13921 0.0
H139 H 0.40514 0.98094 0.11986 0.0
H140 H 0.43636 0.88157 0.14555 0.0
H141 H 0.35251 0.8945 0.1715 0.0
H142 H 0.36431 0.85059 0.10159 0.0
C143 C 0.35729 0.9686 0.11391 0.0
C144 C 0.39188 0.94619 0.19135 0.0
C145 C 0.40438 0.87597 0.07584 0.0
C146 C 0.40661 0.8232 0.15659 0.0
H147 H 0.36805 0.01791 0.18804 0.0
H148 H 0.34649 0.02675 0.14714 0.0
H149 H 0.35343 0.97173 0.06264 0.0
H150 H 0.38079 0.92344 0.04193 0.0
H151 H 0.42361 0.80125 0.07766 0.0
H152 H 0.423 0.77054 0.12142 0.0
H153 H 0.41145 0.82202 0.2082 0.0
H154 H 0.40508 0.89034 0.22669 0.0
H155 H 0.31977 0.8552 0.17548 0.0
H156 H 0.33376 0.80801 0.10523 0.0
H157 H 0.47229 0.91018 0.14201 0.0
H158 H 0.44078 0.01292 0.11775 0.0
C159 C 0.6677 0.04117 0.17268 0.0
C160 C 0.67872 0.00693 0.1752 0.0
C161 C 0.68991 1.00077 0.15418 0.0
C162 C 0.68475 0.03083 0.13969 0.0
N163 N 0.67088 0.05554 0.15024 0.0
Co164 Co 0.65712 0.10009 0.13431 0.0
N165 N 0.6638 0.0803 0.10157 0.0
C166 C 0.67863 0.05313 0.09648 0.0
C167 C 0.6804 0.04572 0.07232 0.0
C168 C 0.66596 0.07003 0.0614 0.0
C169 C 0.65605 0.09103 0.07962 0.0
N170 N 0.64377 0.14492 0.11839 0.0
C171 C 0.63802 0.1508 0.09497 0.0
C172 C 0.62967 0.18696 0.09183 0.0
C173 C 0.63072 0.2044 0.11389 0.0
C174 C 0.63951 0.17803 0.12932 0.0
N175 N 0.65025 0.11898 0.16714 0.0
C176 C 0.64535 0.15489 0.17279 0.0
C177 C 0.64143 0.15973 0.19699 0.0
C178 C 0.64405 0.12465 0.20714 0.0
C179 C 0.64934 0.10016 0.18852 0.0
N180 N 0.68592 0.12708 0.13491 0.0
C181 C 0.72419 0.17312 0.13605 0.0
C182 C 0.71682 0.15431 0.15683 0.0
C183 C 0.69791 0.13099 0.15579 0.0
C184 C 0.71226 0.1676 0.11468 0.0
C185 C 0.69322 0.14506 0.11454 0.0
N186 N 0.62816 0.07446 0.13365 0.0
C187 C 0.58849 0.07763 0.13883 0.0
C188 C 0.58636 0.03923 0.13364 0.0
C189 C 0.60564 0.01876 0.12833 0.0
C190 C 0.6263 0.03699 0.12807 0.0
C191 C 0.60943 0.09448 0.13907 0.0
H192 H 0.64078 0.02072 0.12353 0.0
H193 H 0.61039 0.12381 0.1439 0.0
H194 H 0.69278 0.11669 0.17203 0.0
H195 H 0.68417 0.14307 0.09787 0.0
C196 C 0.68828 0.03193 0.11487 0.0
C197 C 0.65512 0.06001 0.19204 0.0
C198 C 0.64185 0.12402 0.07504 0.0
C199 C 0.64113 0.18132 0.1545 0.0
H200 H 0.67843 0.98758 0.19023 0.0
H201 H 0.69934 0.97592 0.14942 0.0
H202 H 0.69067 0.02469 0.06369 0.0
H203 H 0.66358 0.07262 0.04213 0.0
H204 H 0.62369 0.19957 0.07528 0.0
H205 H 0.62518 0.23261 0.11826 0.0
H206 H 0.63648 0.18538 0.20607 0.0
H207 H 0.64242 0.11793 0.22609 0.0
H208 H 0.72571 0.1573 0.1737 0.0
H209 H 0.7173 0.18146 0.09818 0.0
H210 H 0.5741 0.09438 0.14335 0.0
H211 H 0.60472 0.98895 0.12424 0.0
C212 C 0.6418 0.90359 0.68951 0.0
C213 C 0.63207 0.88119 0.70708 0.0
C214 C 0.62944 0.8459 0.69726 0.0
C215 C 0.63712 0.84851 0.67405 0.0
N216 N 0.64435 0.88339 0.66875 0.0
Co217 Co 0.65248 0.90159 0.63602 0.0
N218 N 0.63731 0.85919 0.61964 0.0
C219 C 0.63143 0.8266 0.63024 0.0
C220 C 0.62169 0.80182 0.61443 0.0
C221 C 0.62175 0.81982 0.59249 0.0
C222 C 0.63161 0.8547 0.59609 0.0
N223 N 0.66066 0.92094 0.60367 0.0
C224 C 0.65252 0.91225 0.58156 0.0
C225 C 0.66381 0.93194 0.56371 0.0
C226 C 0.67967 0.95301 0.57508 0.0
C227 C 0.67726 0.94521 0.59914 0.0
N228 N 0.66799 0.94347 0.65226 0.0
C229 C 0.68481 0.96338 0.64289 0.0
C230 C 0.6941 0.98792 0.65913 0.0
C231 C 0.68229 0.98311 0.67999 0.0
C232 C 0.66616 0.95625 0.67514 0.0
N233 N 0.68001 0.87094 0.63688 0.0
C234 C 0.71673 0.82079 0.63774 0.0
C235 C 0.70481 0.82805 0.61645 0.0
C236 C 0.68664 0.8525 0.61645 0.0
C237 C 0.71022 0.84084 0.6585 0.0
C238 C 0.69197 0.8658 0.65766 0.0
N239 N 0.62468 0.93078 0.63491 0.0
C240 C 0.60332 0.98582 0.62374 0.0
C241 C 0.58344 0.96848 0.63118 0.0
C242 C 0.58514 0.93214 0.64102 0.0
C243 C 0.60555 0.91383 0.64232 0.0
C244 C 0.6237 0.96671 0.62599 0.0
H245 H 0.60567 0.88554 0.64925 0.0
H246 H 0.63861 0.98068 0.62015 0.0
H247 H 0.6777 0.85571 0.59979 0.0
H248 H 0.68724 0.88027 0.67399 0.0
C249 C 0.63222 0.82294 0.65545 0.0
C250 C 0.64964 0.94307 0.69272 0.0
C251 C 0.63681 0.88151 0.57652 0.0
C252 C 0.68867 0.96282 0.61803 0.0
H253 H 0.62642 0.88915 0.72477 0.0
H254 H 0.62109 0.82216 0.70545 0.0
H255 H 0.61476 0.77442 0.61848 0.0
H256 H 0.61545 0.80844 0.57573 0.0
H257 H 0.66147 0.93022 0.54439 0.0
H258 H 0.69144 0.97195 0.56677 0.0
H259 H 0.70727 0.00793 0.65596 0.0
H260 H 0.68515 0.99789 0.69678 0.0
H261 H 0.7093 0.81468 0.59961 0.0
H262 H 0.71869 0.83656 0.6755 0.0
H263 H 0.60325 0.01369 0.61582 0.0
H264 H 0.57081 0.91747 0.64791 0.0
C265 C 0.39263 0.09595 0.68803 0.0
C266 C 0.39827 0.11922 0.70718 0.0
C267 C 0.40146 0.15469 0.69776 0.0
C268 C 0.39753 0.15129 0.67343 0.0
N269 N 0.39224 0.11583 0.66701 0.0
Co270 Co 0.38484 0.09933 0.63371 0.0
N271 N 0.39868 0.14442 0.61886 0.0
C272 C 0.40349 0.17669 0.63042 0.0
C273 C 0.41294 0.20307 0.61545 0.0
C274 C 0.41397 0.18627 0.5931 0.0
C275 C 0.40506 0.15051 0.59568 0.0
N276 N 0.3771 0.08254 0.60061 0.0
C277 C 0.38516 0.09383 0.57904 0.0
C278 C 0.37458 0.07527 0.56021 0.0
C279 C 0.35938 0.05163 0.57046 0.0
C280 C 0.36147 0.05709 0.59485 0.0
N281 N 0.37104 0.05398 0.64833 0.0
C282 C 0.35665 0.03068 0.63728 0.0
C283 C 0.35065 1.00054 0.65129 0.0
C284 C 0.36179 0.00527 0.67258 0.0
C285 C 0.37379 0.03854 0.67055 0.0
N286 N 0.35637 0.12716 0.6357 0.0
C287 C 0.31867 0.17473 0.64027 0.0
C288 C 0.33074 0.17267 0.61866 0.0
C289 C 0.34937 0.14907 0.61679 0.0
C290 C 0.32577 0.15116 0.65928 0.0
C291 C 0.34434 0.12754 0.65657 0.0
N292 N 0.41353 0.07299 0.63176 0.0
C293 C 0.43635 0.02063 0.61914 0.0
C294 C 0.4556 0.03801 0.62836 0.0
C295 C 0.45291 0.07335 0.63938 0.0
C296 C 0.43207 0.09037 0.64054 0.0
C297 C 0.41557 0.03829 0.62126 0.0
H298 H 0.43107 0.11787 0.64863 0.0
H299 H 0.40119 0.02404 0.61421 0.0
H300 H 0.35839 0.14925 0.60004 0.0
H301 H 0.3493 0.11033 0.67169 0.0
C302 C 0.40203 0.17863 0.6557 0.0
C303 C 0.3859 0.05611 0.69075 0.0
C304 C 0.40156 0.12379 0.57569 0.0
C305 C 0.35216 0.03435 0.61267 0.0
H306 H 0.39976 0.11143 0.72598 0.0
H307 H 0.40671 0.17964 0.70742 0.0
H308 H 0.41905 0.23071 0.62033 0.0
H309 H 0.42039 0.1989 0.57679 0.0
H310 H 0.37744 0.07859 0.54107 0.0
H311 H 0.34872 0.03178 0.56125 0.0
H312 H 0.34019 0.97706 0.64629 0.0
H313 H 0.36099 0.98636 0.68787 0.0
H314 H 0.32593 0.18916 0.60308 0.0
H315 H 0.31746 0.15146 0.67653 0.0
H316 H 0.43717 0.99371 0.61004 0.0
H317 H 0.46673 0.08804 0.64745 0.0
C318 C 0.64151 0.10178 0.82016 0.0
C319 C 0.63104 0.12447 0.8032 0.0
C320 C 0.62866 0.15956 0.81347 0.0
C321 C 0.63731 0.15654 0.83631 0.0
N322 N 0.64485 0.12159 0.84095 0.0
Co323 Co 0.65484 0.10299 0.87295 0.0
N324 N 0.64095 0.14556 0.89042 0.0
C325 C 0.63503 0.17868 0.88051 0.0
C326 C 0.62594 0.20294 0.89712 0.0
C327 C 0.62639 0.18383 0.91874 0.0
C328 C 0.63572 0.14886 0.91412 0.0
N329 N 0.66457 0.08321 0.90461 0.0
C330 C 0.65696 0.09101 0.92698 0.0
C331 C 0.66899 0.07144 0.94434 0.0
C332 C 0.68477 0.05107 0.93227 0.0
C333 C 0.68151 0.05925 0.90832 0.0
N334 N 0.66947 0.06115 0.85579 0.0
C335 C 0.68683 0.0413 0.86419 0.0
C336 C 0.69556 0.01731 0.8473 0.0
C337 C 0.68286 0.0225 0.82704 0.0
C338 C 0.66679 0.04902 0.83288 0.0
N339 N 0.68237 0.13309 0.87045 0.0
C340 C 0.72014 0.18038 0.86666 0.0
C341 C 0.70926 0.17488 0.88878 0.0
C342 C 0.69053 0.15161 0.89024 0.0
C343 C 0.71161 0.16086 0.84655 0.0
C344 C 0.69298 0.13735 0.84885 0.0
N345 N 0.62699 0.07426 0.87539 0.0
C346 C 0.60617 0.01686 0.88158 0.0
C347 C 0.58589 0.03617 0.8785 0.0
C348 C 0.58707 0.07503 0.874 0.0
C349 C 0.60746 0.09308 0.87209 0.0
C350 C 0.62646 0.03644 0.88019 0.0
H351 H 0.60722 0.12266 0.86796 0.0
H352 H 0.6417 0.02106 0.88288 0.0
H353 H 0.68251 0.14901 0.90749 0.0
H354 H 0.68696 0.12303 0.83297 0.0
C355 C 0.63401 0.18238 0.85526 0.0
C356 C 0.64953 0.06254 0.81617 0.0
C357 C 0.64029 0.11986 0.93251 0.0
C358 C 0.69204 0.04177 0.88882 0.0
H359 H 0.62502 0.11683 0.78555 0.0
H360 H 0.62016 0.1836 0.80574 0.0
H361 H 0.61882 0.23045 0.89374 0.0
H362 H 0.62041 0.19431 0.93585 0.0
H363 H 0.66695 0.0725 0.96371 0.0
H364 H 0.69686 0.03206 0.94002 0.0
H365 H 0.70905 0.99756 0.84962 0.0
H366 H 0.68516 0.00828 0.80997 0.0
H367 H 0.71517 0.18822 0.9051 0.0
H368 H 0.71892 0.16412 0.82889 0.0
H369 H 0.60654 0.98679 0.88482 0.0
H370 H 0.57234 0.09213 0.87221 0.0
C371 C 0.39724 0.90245 0.82089 0.0
C372 C 0.40295 0.87787 0.80246 0.0
C373 C 0.40554 0.84285 0.81277 0.0
C374 C 0.40119 0.84776 0.83688 0.0
N375 N 0.39612 0.88371 0.8423 0.0
Co376 Co 0.38844 0.90254 0.87489 0.0
N377 N 0.4017 0.85805 0.89121 0.0
C378 C 0.40602 0.82474 0.88063 0.0
C379 C 0.41498 0.79899 0.89644 0.0
C380 C 0.41616 0.81726 0.91829 0.0
C381 C 0.40782 0.85324 0.91461 0.0
N382 N 0.38088 0.92205 0.90737 0.0
C383 C 0.38887 0.91216 0.92931 0.0
C384 C 0.37844 0.93242 0.94748 0.0
C385 C 0.36344 0.95569 0.93642 0.0
C386 C 0.36547 0.94831 0.91224 0.0
N387 N 0.37484 0.94693 0.85872 0.0
C388 C 0.36054 0.97126 0.86896 0.0
C389 C 0.35543 1.00121 0.85437 0.0
C390 C 0.36705 0.99529 0.83358 0.0
C391 C 0.37828 0.96129 0.83633 0.0
N392 N 0.35983 0.87516 0.87343 0.0
C393 C 0.32307 0.82593 0.86997 0.0
C394 C 0.33397 0.83181 0.89198 0.0
C395 C 0.35229 0.85607 0.89329 0.0
C396 C 0.33042 0.84669 0.84994 0.0
C397 C 0.34848 0.87154 0.85213 0.0
N398 N 0.41729 0.92836 0.87631 0.0
C399 C 0.43979 0.98381 0.88253 0.0
C400 C 0.45914 0.96345 0.87717 0.0
C401 C 0.45699 0.92519 0.87157 0.0
C402 C 0.43607 0.90843 0.87097 0.0
C403 C 0.41908 0.96566 0.8823 0.0
H404 H 0.43516 0.8792 0.86589 0.0
H405 H 0.40452 0.98181 0.88676 0.0
H406 H 0.36086 0.85813 0.91029 0.0
H407 H 0.35373 0.88684 0.83633 0.0
C408 C 0.40495 0.82129 0.85537 0.0
C409 C 0.39109 0.94245 0.81711 0.0
C410 C 0.40472 0.88155 0.93374 0.0
C411 C 0.35616 0.96964 0.89366 0.0
H412 H 0.40481 0.88446 0.78352 0.0
H413 H 0.41065 0.81716 0.80384 0.0
H414 H 0.42076 0.7708 0.8924 0.0
H415 H 0.42238 0.80547 0.93499 0.0
H416 H 0.38119 0.93032 0.96673 0.0
H417 H 0.35288 0.9764 0.94495 0.0
H418 H 0.34561 0.02574 0.85886 0.0
H419 H 0.36738 0.01454 0.8185 0.0
H420 H 0.32902 0.81641 0.90795 0.0
H421 H 0.32235 0.84353 0.8326 0.0
H422 H 0.44066 0.01349 0.88699 0.0
H423 H 0.47136 0.90846 0.86693 0.0
C424 C 0.88036 0.54394 0.33874 0.0
C425 C 0.87123 0.50822 0.33585 0.0
C426 C 0.8602 0.49998 0.35666 0.0
C427 C 0.8636 0.53042 0.37138 0.0
N428 N 0.87624 0.55734 0.36121 0.0
Co429 Co 0.88737 0.60352 0.37755 0.0
N430 N 0.88078 0.58258 0.41001 0.0
C431 C 0.86735 0.55325 0.41471 0.0
C432 C 0.86569 0.54513 0.43881 0.0
C433 C 0.87872 0.57122 0.4501 0.0
C434 C 0.88761 0.59395 0.43213 0.0
N435 N 0.89808 0.64988 0.394 0.0
C436 C 0.90292 0.65614 0.41762 0.0
C437 C 0.90882 0.69346 0.42136 0.0
C438 C 0.90736 0.71114 0.39935 0.0
C439 C 0.90067 0.68374 0.38342 0.0
N440 N 0.89412 0.62378 0.34499 0.0
C441 C 0.89736 0.66037 0.33966 0.0
C442 C 0.90141 0.66618 0.31557 0.0
C443 C 0.90055 0.63106 0.30514 0.0
C444 C 0.89609 0.60558 0.32349 0.0
N445 N 0.85749 0.62669 0.37596 0.0
C446 C 0.82024 0.67468 0.37148 0.0
C447 C 0.82819 0.654 0.3517 0.0
C448 C 0.84647 0.62968 0.35442 0.0
C449 C 0.83048 0.66868 0.39386 0.0
C450 C 0.84902 0.64494 0.3957 0.0
N451 N 0.91753 0.58209 0.37886 0.0
C452 C 0.95663 0.59157 0.37251 0.0
C453 C 0.96127 0.55348 0.37708 0.0
C454 C 0.94332 0.5302 0.38347 0.0
C455 C 0.92163 0.54507 0.38434 0.0
C456 C 0.93495 0.60503 0.37326 0.0
H457 H 0.90817 0.52652 0.38903 0.0
H458 H 0.93235 0.63423 0.36888 0.0
H459 H 0.85232 0.61473 0.33874 0.0
H460 H 0.85716 0.64309 0.41295 0.0
C461 C 0.8594 0.53072 0.39607 0.0
C462 C 0.89183 0.56502 0.31954 0.0
C463 C 0.90046 0.62817 0.43703 0.0
C464 C 0.8996 0.68715 0.35818 0.0
H465 H 0.87261 0.48941 0.32061 0.0
H466 H 0.85196 0.4738 0.36108 0.0
H467 H 0.85661 0.52232 0.44715 0.0
H468 H 0.88109 0.57358 0.46939 0.0
H469 H 0.9134 0.70657 0.43827 0.0
H470 H 0.91126 0.74027 0.39538 0.0
H471 H 0.90515 0.69261 0.30673 0.0
H472 H 0.90266 0.62497 0.28617 0.0
H473 H 0.82058 0.65709 0.33411 0.0
H474 H 0.82496 0.68388 0.40969 0.0
H475 H 0.9697 0.61129 0.36823 0.0
H476 H 0.94584 0.50054 0.38718 0.0
C477 C 0.16588 0.4644 0.33658 0.0
C478 C 0.17645 0.4989 0.33356 0.0
C479 C 0.1871 0.50672 0.35473 0.0
C480 C 0.18212 0.47726 0.36974 0.0
N481 N 0.16889 0.45133 0.35938 0.0
Co482 Co 0.15595 0.4066 0.37579 0.0
N483 N 0.16203 0.42805 0.40829 0.0
C484 C 0.17599 0.45657 0.41321 0.0
C485 C 0.17702 0.46538 0.43725 0.0
C486 C 0.163 0.44057 0.44827 0.0
C487 C 0.1542 0.41784 0.43023 0.0
N488 N 0.14355 0.36153 0.39223 0.0
C489 C 0.13817 0.35599 0.41574 0.0
C490 C 0.1312 0.31923 0.41955 0.0
C491 C 0.13254 0.30112 0.39771 0.0
C492 C 0.14023 0.32773 0.3818 0.0
N493 N 0.14952 0.38618 0.34316 0.0
C494 C 0.14525 0.34985 0.33801 0.0
C495 C 0.14146 0.34396 0.31386 0.0
C496 C 0.14355 0.37878 0.3032 0.0
C497 C 0.14843 0.40415 0.32148 0.0
N498 N 0.18522 0.38086 0.3759 0.0
C499 C 0.22133 0.32934 0.37603 0.0
C500 C 0.2144 0.34751 0.35467 0.0
C501 C 0.19663 0.37351 0.35507 0.0
C502 C 0.21081 0.34048 0.39744 0.0
C503 C 0.19285 0.36532 0.39695 0.0
N504 N 0.12643 0.43047 0.37599 0.0
C505 C 0.08679 0.42308 0.37284 0.0
C506 C 0.08337 0.46056 0.37965 0.0
C507 C 0.10203 0.48315 0.38395 0.0
C508 C 0.12342 0.46747 0.38226 0.0
C509 C 0.10828 0.40883 0.3708 0.0
H510 H 0.13746 0.48505 0.38642 0.0
H511 H 0.11012 0.37987 0.36541 0.0
H512 H 0.1915 0.38624 0.33827 0.0
H513 H 0.18453 0.37022 0.41375 0.0
C514 C 0.18535 0.47758 0.39463 0.0
C515 C 0.15384 0.44425 0.31734 0.0
C516 C 0.14093 0.38403 0.43506 0.0
C517 C 0.14176 0.32372 0.35665 0.0
H518 H 0.17622 0.5173 0.31804 0.0
H519 H 0.1961 0.53217 0.35916 0.0
H520 H 0.18644 0.48771 0.44571 0.0
H521 H 0.16007 0.43883 0.46748 0.0
H522 H 0.12595 0.30674 0.4364 0.0
H523 H 0.12795 0.27226 0.39383 0.0
H524 H 0.13705 0.31775 0.30511 0.0
H525 H 0.14191 0.38474 0.28413 0.0
H526 H 0.22195 0.34073 0.33755 0.0
H527 H 0.21589 0.3293 0.41475 0.0
H528 H 0.07287 0.40475 0.36912 0.0
H529 H 0.10009 0.51234 0.38928 0.0
C530 C 0.87461 0.46856 0.17376 0.0
C531 C 0.86217 0.5014 0.17584 0.0
C532 C 0.85109 0.50598 0.15449 0.0
C533 C 0.85752 0.47616 0.14043 0.0
N534 N 0.87211 0.45322 0.15153 0.0
Co535 Co 0.88638 0.40824 0.13706 0.0
N536 N 0.87898 0.42529 0.10396 0.0
C537 C 0.86319 0.45039 0.098 0.0
C538 C 0.86146 0.45609 0.0736 0.0
C539 C 0.87708 0.43297 0.06357 0.0
C540 C 0.88753 0.41445 0.08255 0.0
N541 N 0.90063 0.36344 0.12237 0.0
C542 C 0.90742 0.35774 0.09932 0.0
C543 C 0.9165 0.32206 0.09674 0.0
C544 C 0.91515 0.30494 0.11898 0.0
C545 C 0.90536 0.33104 0.13388 0.0
N546 N 0.8935 0.39153 0.17035 0.0
C547 C 0.89882 0.35608 0.17683 0.0
C548 C 0.90261 0.3527 0.20119 0.0
C549 C 0.8993 0.38817 0.21054 0.0
C550 C 0.89372 0.41141 0.19133 0.0
N551 N 0.85806 0.38006 0.13855 0.0
C552 C 0.82058 0.33193 0.14228 0.0
C553 C 0.8328 0.33478 0.12079 0.0
C554 C 0.85134 0.35857 0.11936 0.0
C555 C 0.82738 0.3551 0.16159 0.0
C556 C 0.84583 0.37904 0.15929 0.0
N557 N 0.91495 0.435 0.13561 0.0
C558 C 0.95431 0.43473 0.14335 0.0
C559 C 0.95686 0.47043 0.13277 0.0
C560 C 0.93757 0.48803 0.12379 0.0
C561 C 0.91686 0.47007 0.12557 0.0
C562 C 0.93352 0.41754 0.1443 0.0
H563 H 0.90243 0.48439 0.11862 0.0
H564 H 0.93259 0.38982 0.15211 0.0
H565 H 0.86052 0.35886 0.10272 0.0
H566 H 0.85057 0.39597 0.17461 0.0
C567 C 0.85333 0.47266 0.11574 0.0
C568 C 0.88696 0.45123 0.19386 0.0
C569 C 0.90421 0.38481 0.07948 0.0
C570 C 0.90359 0.32883 0.15914 0.0
H571 H 0.86107 0.52012 0.19119 0.0
H572 H 0.84039 0.52919 0.14948 0.0
H573 H 0.85075 0.47576 0.06425 0.0
H574 H 0.88028 0.42994 0.04448 0.0
H575 H 0.92327 0.30972 0.08051 0.0
H576 H 0.92131 0.2773 0.12385 0.0
H577 H 0.90788 0.32778 0.2109 0.0
H578 H 0.90067 0.396 0.22935 0.0
H579 H 0.82821 0.31872 0.10498 0.0
H580 H 0.81894 0.35425 0.17875 0.0
H581 H 0.96821 0.41991 0.1512 0.0
H582 H 0.93835 0.51533 0.11512 0.0
C583 C 0.16987 0.54037 0.17015 0.0
C584 C 0.18251 0.50765 0.17142 0.0
C585 C 0.19218 0.50309 0.14934 0.0
C586 C 0.18476 0.53281 0.13571 0.0
N587 N 0.17093 0.55578 0.14777 0.0
Co588 Co 0.15547 0.60049 0.13416 0.0
N589 N 0.16071 0.58343 0.1005 0.0
C590 C 0.17591 0.55778 0.09368 0.0
C591 C 0.17652 0.55214 0.06926 0.0
C592 C 0.16091 0.57602 0.06001 0.0
C593 C 0.15153 0.59504 0.07943 0.0
N594 N 0.13988 0.64509 0.12053 0.0
C595 C 0.13253 0.65191 0.09772 0.0
C596 C 0.12304 0.68748 0.09615 0.0
C597 C 0.12491 0.70358 0.11858 0.0
C598 C 0.13534 0.67704 0.13264 0.0
N599 N 0.15057 0.61706 0.16796 0.0
C600 C 0.14532 0.65229 0.17487 0.0
C601 C 0.14296 0.65549 0.19943 0.0
C602 C 0.14705 0.62007 0.20849 0.0
C603 C 0.15163 0.59708 0.1889 0.0
N604 N 0.18365 0.62928 0.13328 0.0
C605 C 0.22154 0.67688 0.13203 0.0
C606 C 0.21712 0.6535 0.15205 0.0
C607 C 0.19816 0.63004 0.15232 0.0
C608 C 0.20639 0.67528 0.11279 0.0
C609 C 0.18807 0.65132 0.11361 0.0
N610 N 0.12706 0.57315 0.13478 0.0
C611 C 0.08802 0.57295 0.14415 0.0
C612 C 0.08506 0.53781 0.13294 0.0
C613 C 0.10402 0.52054 0.12308 0.0
C614 C 0.12477 0.5384 0.1244 0.0
C615 C 0.10886 0.5901 0.14464 0.0
H616 H 0.13889 0.52436 0.11663 0.0
H617 H 0.1101 0.61749 0.15286 0.0
H618 H 0.19513 0.61285 0.16805 0.0
H619 H 0.17717 0.6515 0.09827 0.0
C620 C 0.18699 0.53589 0.11078 0.0
C621 C 0.15839 0.55721 0.19093 0.0
C622 C 0.13619 0.62704 0.07675 0.0
C623 C 0.13886 0.67919 0.15765 0.0
H624 H 0.18452 0.48883 0.18662 0.0
H625 H 0.20247 0.4798 0.14357 0.0
H626 H 0.18676 0.53246 0.05938 0.0
H627 H 0.15736 0.57961 0.04102 0.0
H628 H 0.11592 0.70067 0.08033 0.0
H629 H 0.11901 0.73108 0.12405 0.0
H630 H 0.13794 0.68018 0.2095 0.0
H631 H 0.14671 0.61207 0.22732 0.0
H632 H 0.22822 0.65304 0.16738 0.0
H633 H 0.20825 0.69308 0.09708 0.0
H634 H 0.07437 0.5874 0.1527 0.0
H635 H 0.10293 0.49367 0.11393 0.0
C636 C 0.14826 0.40564 0.6904 0.0
C637 C 0.13805 0.384 0.70802 0.0
C638 C 0.12642 0.35649 0.69629 0.0
C639 C 0.1304 0.36238 0.67226 0.0
N640 N 0.14424 0.39137 0.66795 0.0
Co641 Co 0.15443 0.40837 0.63533 0.0
N642 N 0.1408 0.36392 0.61872 0.0
C643 C 0.12635 0.3396 0.62866 0.0
C644 C 0.11889 0.31268 0.61286 0.0
C645 C 0.12906 0.32063 0.59144 0.0
C646 C 0.14221 0.35203 0.59543 0.0
N647 N 0.16503 0.42526 0.60287 0.0
C648 C 0.16539 0.40703 0.58134 0.0
C649 C 0.1747 0.42935 0.56344 0.0
C650 C 0.18007 0.46286 0.57395 0.0
C651 C 0.17384 0.4591 0.59756 0.0
N652 N 0.16752 0.45364 0.65175 0.0
C653 C 0.17552 0.48441 0.64041 0.0
C654 C 0.18154 0.51299 0.65555 0.0
C655 C 0.17678 0.50013 0.67805 0.0
C656 C 0.16826 0.46388 0.67545 0.0
N657 N 0.18231 0.37931 0.63963 0.0
C658 C 0.22113 0.33363 0.63968 0.0
C659 C 0.22196 0.37263 0.63463 0.0
C660 C 0.20253 0.39471 0.63458 0.0
C661 C 0.20031 0.31883 0.64567 0.0
C662 C 0.18143 0.34193 0.6458 0.0
N663 N 0.12622 0.43607 0.63066 0.0
C664 C 0.09361 0.46552 0.64754 0.0
C665 C 0.08238 0.46346 0.62534 0.0
C666 C 0.09438 0.44954 0.60557 0.0
C667 C 0.11593 0.43576 0.60864 0.0
C668 C 0.11544 0.45243 0.64967 0.0
H669 H 0.12384 0.42372 0.59313 0.0
H670 H 0.12313 0.45446 0.66706 0.0
H671 H 0.20389 0.4241 0.62993 0.0
H672 H 0.16598 0.32883 0.65022 0.0
C673 C 0.12213 0.34049 0.65337 0.0
C674 C 0.1589 0.44221 0.69567 0.0
C675 C 0.1547 0.37085 0.57628 0.0
C676 C 0.17772 0.48539 0.61552 0.0
H677 H 0.13825 0.38854 0.72731 0.0
H678 H 0.11616 0.33492 0.70434 0.0
H679 H 0.10772 0.28958 0.61657 0.0
H680 H 0.12693 0.30531 0.57472 0.0
H681 H 0.17686 0.42253 0.54457 0.0
H682 H 0.1878 0.48695 0.56546 0.0
H683 H 0.18822 0.54029 0.65076 0.0
H684 H 0.17864 0.51668 0.69424 0.0
H685 H 0.23749 0.38629 0.63053 0.0
H686 H 0.19821 0.28915 0.64949 0.0
H687 H 0.0855 0.47586 0.66359 0.0
H688 H 0.08717 0.44851 0.58771 0.0
C689 C 0.89705 0.59947 0.69306 0.0
C690 C 0.91188 0.61526 0.70937 0.0
C691 C 0.92397 0.64131 0.69702 0.0
C692 C 0.91622 0.63987 0.67384 0.0
N693 N 0.89954 0.61511 0.67064 0.0
Co694 Co 0.88706 0.59994 0.63837 0.0
N695 N 0.90325 0.64093 0.62087 0.0
C696 C 0.91928 0.66283 0.6302 0.0
C697 C 0.92777 0.68828 0.61405 0.0
C698 C 0.91654 0.68191 0.593 0.0
C699 C 0.90184 0.65278 0.59755 0.0
N700 N 0.87498 0.58387 0.60634 0.0
C701 C 0.87626 0.60042 0.58428 0.0
C702 C 0.86584 0.57875 0.56676 0.0
C703 C 0.85772 0.54762 0.57815 0.0
C704 C 0.86366 0.55188 0.60185 0.0
N705 N 0.87054 0.55938 0.65575 0.0
C706 C 0.85783 0.53252 0.64557 0.0
C707 C 0.84579 0.51209 0.66187 0.0
C708 C 0.85167 0.52612 0.68388 0.0
C709 C 0.86756 0.55366 0.67976 0.0
N710 N 0.86154 0.6347 0.64279 0.0
C711 C 0.82562 0.68634 0.64701 0.0
C712 C 0.82233 0.64874 0.63973 0.0
C713 C 0.84033 0.62374 0.63759 0.0
C714 C 0.84751 0.69701 0.65231 0.0
C715 C 0.86497 0.671 0.65032 0.0
N716 N 0.91294 0.56623 0.63383 0.0
C717 C 0.94233 0.53026 0.65244 0.0
C718 C 0.9559 0.53562 0.63235 0.0
C719 C 0.94674 0.55315 0.61203 0.0
C720 C 0.92525 0.56813 0.61311 0.0
C721 C 0.92083 0.54491 0.65256 0.0
H722 H 0.91919 0.583 0.59754 0.0
H723 H 0.91119 0.54039 0.66842 0.0
H724 H 0.8369 0.5956 0.63154 0.0
H725 H 0.88134 0.68072 0.65457 0.0
C726 C 0.92475 0.6604 0.65455 0.0
C727 C 0.88275 0.5668 0.69876 0.0
C728 C 0.88826 0.63522 0.57874 0.0
C729 C 0.85617 0.52935 0.62065 0.0
H730 H 0.91474 0.60786 0.72796 0.0
H731 H 0.93745 0.65824 0.70393 0.0
H732 H 0.94047 0.70918 0.61725 0.0
H733 H 0.91915 0.69649 0.5761 0.0
H734 H 0.86429 0.58472 0.54769 0.0
H735 H 0.84804 0.52513 0.57021 0.0
H736 H 0.83412 0.48967 0.65821 0.0
H737 H 0.84611 0.51548 0.70113 0.0
H738 H 0.80593 0.63825 0.6358 0.0
H739 H 0.85142 0.72561 0.65757 0.0
H740 H 0.94855 0.51584 0.6683 0.0
H741 H 0.95655 0.5573 0.59593 0.0
C742 C 0.15181 0.59827 0.82383 0.0
C743 C 0.14707 0.6224 0.80481 0.0
C744 C 0.14301 0.65728 0.8147 0.0
C745 C 0.14552 0.65267 0.83916 0.0
N746 N 0.15076 0.61702 0.84524 0.0
Co747 Co 0.15619 0.5987 0.8786 0.0
N748 N 0.14149 0.64312 0.89338 0.0
C749 C 0.13756 0.67613 0.88219 0.0
C750 C 0.12748 0.702 0.89701 0.0
C751 C 0.12511 0.68415 0.91888 0.0
C752 C 0.13391 0.64829 0.91619 0.0
N753 N 0.16143 0.57952 0.91178 0.0
C754 C 0.15183 0.5895 0.93288 0.0
C755 C 0.16092 0.56939 0.95202 0.0
C756 C 0.17674 0.54619 0.9425 0.0
C757 C 0.1765 0.55342 0.91821 0.0
N758 N 0.17132 0.55449 0.86406 0.0
C759 C 0.18513 0.53075 0.87568 0.0
C760 C 0.19245 0.50175 0.86145 0.0
C761 C 0.18284 0.50769 0.83943 0.0
C762 C 0.17036 0.54052 0.84132 0.0
N763 N 0.1846 0.62687 0.87968 0.0
C764 C 0.22054 0.67875 0.88025 0.0
C765 C 0.20846 0.67013 0.90121 0.0
C766 C 0.1906 0.64503 0.90046 0.0
C767 C 0.21493 0.65833 0.85928 0.0
C768 C 0.19724 0.63228 0.85948 0.0
N769 N 0.12748 0.57223 0.87764 0.0
C770 C 0.10466 0.51723 0.8842 0.0
C771 C 0.08548 0.53751 0.87792 0.0
C772 C 0.08793 0.5753 0.87127 0.0
C773 C 0.10892 0.59184 0.87093 0.0
C774 C 0.12544 0.5352 0.88423 0.0
H775 H 0.11003 0.62079 0.86527 0.0
H776 H 0.13981 0.51925 0.88969 0.0
H777 H 0.18116 0.64156 0.91673 0.0
H778 H 0.1933 0.61765 0.84296 0.0
C779 C 0.14022 0.67922 0.85708 0.0
C780 C 0.15921 0.55884 0.82077 0.0
C781 C 0.13591 0.62044 0.93579 0.0
C782 C 0.18748 0.53237 0.9007 0.0
H783 H 0.14684 0.61559 0.78579 0.0
H784 H 0.13823 0.68269 0.80519 0.0
H785 H 0.12178 0.72998 0.89227 0.0
H786 H 0.11779 0.69613 0.93493 0.0
H787 H 0.15684 0.57165 0.97096 0.0
H788 H 0.18675 0.52572 0.95207 0.0
H789 H 0.20268 0.47807 0.86675 0.0
H790 H 0.18485 0.48972 0.82384 0.0
H791 H 0.21235 0.68315 0.91832 0.0
H792 H 0.22353 0.66317 0.84249 0.0
H793 H 0.10356 0.48785 0.88939 0.0
H794 H 0.0737 0.59189 0.86587 0.0
C795 C 0.8977 0.40792 0.82538 0.0
C796 C 0.9071 0.38624 0.80724 0.0
C797 C 0.90991 0.35056 0.81645 0.0
C798 C 0.90263 0.3523 0.83985 0.0
N799 N 0.89556 0.38697 0.84591 0.0
Co800 Co 0.88786 0.40376 0.87906 0.0
N801 N 0.90209 0.35932 0.89443 0.0
C802 C 0.90721 0.32696 0.88306 0.0
C803 C 0.91639 0.3006 0.89824 0.0
C804 C 0.91677 0.31728 0.92059 0.0
C805 C 0.90775 0.35303 0.91783 0.0
N806 N 0.88051 0.42196 0.91194 0.0
C807 C 0.88869 0.41152 0.93374 0.0
C808 C 0.87817 0.43116 0.95217 0.0
C809 C 0.86273 0.454 0.94152 0.0
C810 C 0.86463 0.44725 0.91729 0.0
N811 N 0.87279 0.44731 0.86393 0.0
C812 C 0.85647 0.46756 0.87411 0.0
C813 C 0.84681 0.49268 0.8585 0.0
C814 C 0.85777 0.48792 0.83714 0.0
C815 C 0.87387 0.46054 0.84109 0.0
N816 N 0.85974 0.37493 0.87778 0.0
C817 C 0.82103 0.33011 0.87622 0.0
C818 C 0.83314 0.33452 0.89759 0.0
C819 C 0.8524 0.35647 0.89794 0.0
C820 C 0.82873 0.34881 0.85555 0.0
C821 C 0.8479 0.3714 0.85677 0.0
N822 N 0.91626 0.43125 0.88032 0.0
C823 C 0.93813 0.48754 0.88658 0.0
C824 C 0.95803 0.46774 0.88219 0.0
C825 C 0.95609 0.42919 0.87686 0.0
C826 C 0.93537 0.41198 0.87556 0.0
C827 C 0.91754 0.46877 0.88583 0.0
H828 H 0.93501 0.38265 0.87078 0.0
H829 H 0.90268 0.48456 0.88964 0.0
H830 H 0.86144 0.358 0.91464 0.0
H831 H 0.8532 0.38583 0.84065 0.0
C832 C 0.90683 0.32519 0.85777 0.0
C833 C 0.88957 0.44733 0.82269 0.0
C834 C 0.90355 0.37924 0.93796 0.0
C835 C 0.85319 0.46625 0.89902 0.0
H836 H 0.91219 0.39496 0.78947 0.0
H837 H 0.91782 0.32694 0.80761 0.0
H838 H 0.92281 0.27309 0.89351 0.0
H839 H 0.92294 0.30455 0.93703 0.0
H840 H 0.88067 0.42822 0.97141 0.0
H841 H 0.85151 0.47328 0.9504 0.0
H842 H 0.83385 0.51284 0.86235 0.0
H843 H 0.85431 0.503 0.82059 0.0
H844 H 0.82795 0.32049 0.91399 0.0
H845 H 0.8198 0.34654 0.83866 0.0
H846 H 0.93823 0.51743 0.89042 0.0
H847 H 0.97046 0.41163 0.87398 0.0
H848 H 0.42911 0.09882 0.4679 0.0
H849 H 0.38118 0.18709 0.45724 0.0
H850 H 0.37932 0.19761 0.50085 0.0
H851 H 0.38707 0.17482 0.54229 0.0
H852 H 0.43361 0.08441 0.55284 0.0
H853 H 0.4406 0.08184 0.50938 0.0
C854 C 0.41888 0.12122 0.47517 0.0
C855 C 0.40555 0.14254 0.45936 0.0
C856 C 0.41748 0.12638 0.50037 0.0
C857 C 0.39191 0.17086 0.46899 0.0
C858 C 0.39067 0.17656 0.49397 0.0
C859 C 0.39938 0.15566 0.53508 0.0
C860 C 0.41015 0.13029 0.55076 0.0
C861 C 0.40281 0.15366 0.50991 0.0
C862 C 0.4255 0.10468 0.54116 0.0
C863 C 0.42929 0.10294 0.51627 0.0
H864 H 0.6109 0.91627 0.5429 0.0
H865 H 0.65663 0.82428 0.5522 0.0
H866 H 0.65794 0.81475 0.5085 0.0
H867 H 0.65032 0.83881 0.46747 0.0
H868 H 0.60587 0.93254 0.45808 0.0
H869 H 0.59946 0.93497 0.50168 0.0
C870 C 0.62056 0.89342 0.5353 0.0
C871 C 0.63341 0.87066 0.55071 0.0
C872 C 0.62159 0.88869 0.51005 0.0
C873 C 0.6463 0.84165 0.5407 0.0
C874 C 0.64721 0.83646 0.51569 0.0
C875 C 0.63857 0.85872 0.47496 0.0
C876 C 0.62825 0.88506 0.45962 0.0
C877 C 0.63547 0.86055 0.50014 0.0
C878 C 0.61362 0.91158 0.46955 0.0
C879 C 0.61017 0.91321 0.49449 0.0
H880 H 0.43105 0.908 0.04204 0.0
H881 H 0.38413 0.81825 0.05218 0.0
H882 H 0.38254 0.80776 0.00855 0.0
H883 H 0.39022 0.83078 0.96721 0.0
H884 H 0.43588 0.92241 0.95714 0.0
H885 H 0.44251 0.92537 1.0007 0.0
C886 C 0.42111 0.88531 0.03466 0.0
C887 C 0.40799 0.86354 0.05031 0.0
C888 C 0.41985 0.88016 0.00945 0.0
C889 C 0.39471 0.83483 0.04054 0.0
C890 C 0.39361 0.82915 0.01555 0.0
C891 C 0.40224 0.85035 0.97456 0.0
C892 C 0.41286 0.87595 0.95899 0.0
C893 C 0.40553 0.85246 0.99976 0.0
C894 C 0.42786 0.90203 0.96876 0.0
C895 C 0.43147 0.90395 0.99369 0.0
H896 H 0.65545 0.16937 0.96624 0.0
H897 H 0.61019 0.07714 0.95614 0.0
H898 H 0.60404 0.0736 0.99977 0.0
H899 H 0.61541 0.09139 0.04112 0.0
H900 H 0.66253 0.18097 0.05114 0.0
H901 H 0.6638 0.1916 0.00754 0.0
C902 C 0.6437 0.14942 0.97363 0.0
C903 C 0.63296 0.12396 0.95806 0.0
C904 C 0.64075 0.14692 0.99882 0.0
C905 C 0.6183 0.09739 0.96781 0.0
C906 C 0.61495 0.09519 0.99275 0.0
C907 C 0.62539 0.11397 0.03371 0.0
C908 C 0.63858 0.13578 0.04932 0.0
C909 C 0.62657 0.11906 0.0085 0.0
C910 C 0.65189 0.16437 0.03953 0.0
C911 C 0.65281 0.17015 0.01456 0.0
H912 H 0.92167 0.61837 0.54785 0.0
H913 H 0.85896 0.67548 0.55175 0.0
H914 H 0.8588 0.68384 0.50782 0.0
H915 H 0.87429 0.66737 0.4679 0.0
H916 H 0.93593 0.607 0.46394 0.0
H917 H 0.93911 0.60794 0.50804 0.0
C918 C 0.90833 0.63356 0.53903 0.0
C919 C 0.89044 0.64669 0.5529 0.0
C920 C 0.90816 0.63744 0.51371 0.0
C921 C 0.87298 0.66561 0.54138 0.0
C922 C 0.87285 0.67014 0.51628 0.0
C923 C 0.88876 0.65567 0.47677 0.0
C924 C 0.90508 0.63772 0.46278 0.0
C925 C 0.89005 0.65526 0.50218 0.0
C926 C 0.92344 0.62157 0.47437 0.0
C927 C 0.9251 0.62176 0.49958 0.0
H928 H 0.12129 0.39085 0.5462 0.0
H929 H 0.18235 0.32857 0.54861 0.0
H930 H 0.18178 0.32208 0.50455 0.0
H931 H 0.16642 0.34181 0.46507 0.0
H932 H 0.10654 0.4074 0.46271 0.0
H933 H 0.10377 0.4046 0.5068 0.0
C934 C 0.13406 0.3749 0.53702 0.0
C935 C 0.15171 0.35977 0.55049 0.0
C936 C 0.13387 0.37224 0.51165 0.0
C937 C 0.16849 0.3399 0.53854 0.0
C938 C 0.16823 0.33651 0.51336 0.0
C939 C 0.15241 0.35432 0.47427 0.0
C940 C 0.13648 0.37428 0.46078 0.0
C941 C 0.15135 0.35353 0.49967 0.0
C942 C 0.11872 0.39137 0.47278 0.0
C943 C 0.11728 0.39006 0.49797 0.0
H944 H 0.93064 0.41066 0.97172 0.0
H945 H 0.88279 0.32227 0.96161 0.0
H946 H 0.88162 0.31122 1.00517 0.0
H947 H 0.88986 0.33364 0.04644 0.0
H948 H 0.93619 0.42428 0.0566 0.0
H949 H 0.9427 0.42723 0.01305 0.0
C950 C 0.92056 0.38819 0.9791 0.0
C951 C 0.90704 0.36696 0.96351 0.0
C952 C 0.91957 0.38268 1.00428 0.0
C953 C 0.89362 0.33846 0.97324 0.0
C954 C 0.89279 0.33242 0.99817 0.0
C955 C 0.90205 0.35289 0.03911 0.0
C956 C 0.91286 0.37826 0.05466 0.0
C957 C 0.90514 0.35518 0.01394 0.0
C958 C 0.92805 0.40402 0.04497 0.0
C959 C 0.93155 0.40599 0.02005 0.0
H960 H 0.10811 0.59713 0.0434 0.0
H961 H 0.15625 0.68506 0.05347 0.0
H962 H 0.15768 0.69566 0.00988 0.0
H963 H 0.15011 0.67207 0.9687 0.0
H964 H 0.10344 0.5819 0.95863 0.0
H965 H 0.09625 0.58019 1.00208 0.0
C966 C 0.11821 0.61958 0.03602 0.0
C967 C 0.13185 0.64061 0.05161 0.0
C968 C 0.11945 0.62465 0.01081 0.0
C969 C 0.14532 0.66902 0.04186 0.0
C970 C 0.14634 0.67473 0.01689 0.0
C971 C 0.13771 0.65318 0.976 0.0
C972 C 0.12704 0.6275 0.96051 0.0
C973 C 0.13416 0.6517 1.00113 0.0
C974 C 0.11152 0.60231 0.97019 0.0
C975 C 0.1076 0.60109 0.99507 0.0
H976 H 0.54574 0.94073 0.38157 0.0
H977 H 0.57671 0.05047 0.37844 0.0
H978 H 0.54055 0.08036 0.38051 0.0
H979 H 0.50008 0.07588 0.38224 0.0
H980 H 0.46911 0.96608 0.37967 0.0
H981 H 0.50529 0.93627 0.38084 0.0
C982 C 0.54482 0.97121 0.38087 0.0
C983 C 0.56445 0.99291 0.3798 0.0
C984 C 0.52377 0.9885 0.38114 0.0
C985 C 0.56231 0.03252 0.37971 0.0
C986 C 0.54146 0.04984 0.38066 0.0
C987 C 0.50099 0.04542 0.38149 0.0
C988 C 0.48134 0.02368 0.38088 0.0
C989 C 0.52205 0.02814 0.3812 0.0
C990 C 0.48351 0.98408 0.38067 0.0
C991 C 0.50437 0.96678 0.38107 0.0
H992 H 0.4981 0.95007 0.15612 0.0
H993 H 0.47365 0.02061 0.09827 0.0
H994 H 0.50981 0.05017 0.09489 0.0
H995 H 0.54894 0.05599 0.10793 0.0
H996 H 0.5741 0.9811 0.1627 0.0
H997 H 0.53741 0.95269 0.16713 0.0
C998 C 0.50054 0.97139 0.1424 0.0
C999 C 0.48261 0.98285 0.12761 0.0
C1000 C 0.52177 0.98751 0.13985 0.0
C1001 C 0.48659 0.01143 0.11045 0.0
C1002 C 0.50748 0.02824 0.10826 0.0
C1003 C 0.54635 0.03329 0.12072 0.0
C1004 C 0.56424 0.02061 0.13496 0.0
C1005 C 0.52523 0.01654 0.12284 0.0
C1006 C 0.56068 0.9911 0.1514 0.0
C1007 C 0.53965 0.975 0.15401 0.0
H1008 H 0.54219 0.93591 0.62544 0.0
H1009 H 0.57365 0.04487 0.63194 0.0
H1010 H 0.53762 0.0754 0.62966 0.0
H1011 H 0.49709 0.07152 0.62718 0.0
H1012 H 0.46574 0.96193 0.6267 0.0
H1013 H 0.5018 0.93188 0.62531 0.0
C1014 C 0.54142 0.96633 0.62687 0.0
C1015 C 0.56114 0.98764 0.62905 0.0
C1016 C 0.52046 0.98389 0.62656 0.0
C1017 C 0.55918 0.02724 0.6299 0.0
C1018 C 0.53841 0.0449 0.62884 0.0
C1019 C 0.49788 0.04103 0.62721 0.0
C1020 C 0.47813 0.01947 0.62704 0.0
C1021 C 0.5189 0.02351 0.62743 0.0
C1022 C 0.48019 0.97986 0.62632 0.0
C1023 C 0.50099 0.9624 0.62578 0.0
H1024 H 0.54644 0.05588 0.8564 0.0
H1025 H 0.57436 0.9721 0.90433 0.0
H1026 H 0.53825 0.94212 0.90766 0.0
H1027 H 0.49816 0.9403 0.89785 0.0
H1028 H 0.4701 0.02808 0.85347 0.0
H1029 H 0.50663 0.0567 0.84889 0.0
C1030 C 0.54483 0.03161 0.86811 0.0
C1031 C 0.56364 0.0168 0.88016 0.0
C1032 C 0.52372 0.01531 0.87085 0.0
C1033 C 0.56067 0.98422 0.89439 0.0
C1034 C 0.53982 0.96714 0.89657 0.0
C1035 C 0.50006 0.9658 0.88727 0.0
C1036 C 0.48133 0.98204 0.87603 0.0
C1037 C 0.52118 0.98252 0.88499 0.0
C1038 C 0.4841 0.0152 0.86251 0.0
C1039 C 0.50505 0.03143 0.85975 0.0
H1040 H 0.98289 0.49797 0.40341 0.0
H1041 H 0.99265 0.57549 0.34429 0.0
H1042 H 0.03106 0.55614 0.34114 0.0
H1043 H 0.06248 0.51681 0.35471 0.0
H1044 H 0.05236 0.43561 0.41132 0.0
H1045 H 1.01391 0.45644 0.41575 0.0
C1046 C 0.99329 0.51043 0.38966 0.0
C1047 C 0.98461 0.53891 0.3745 0.0
C1048 C 1.01558 0.49853 0.3875 0.0
C1049 C 0.9987 0.55446 0.35684 0.0
C1050 C 1.0208 0.54318 0.35483 0.0
C1051 C 0.05186 0.50397 0.36813 0.0
C1052 C 0.06034 0.47502 0.38286 0.0
C1053 C 0.02953 0.51544 0.37013 0.0
C1054 C 0.04626 0.45811 0.39987 0.0
C1055 C 0.02424 0.46996 0.40236 0.0
H1056 H 0.04382 0.57182 0.13113 0.0
H1057 H 0.07476 0.46188 0.13221 0.0
H1058 H 0.03856 0.43218 0.13048 0.0
H1059 H 0.99808 0.43678 0.1295 0.0
H1060 H 0.96705 0.54647 0.13336 0.0
H1061 H 1.00325 0.57634 0.13222 0.0
C1062 C 0.04285 0.54133 0.13139 0.0
C1063 C 0.0625 0.5195 0.13177 0.0
C1064 C 0.02178 0.5241 0.13118 0.0
C1065 C 0.06033 0.47991 0.13143 0.0
C1066 C 0.03948 0.4627 0.13068 0.0
C1067 C 0.99901 0.46722 0.13051 0.0
C1068 C 0.97935 0.48896 0.13155 0.0
C1069 C 1.02007 0.48447 0.13069 0.0
C1070 C 0.98149 0.52855 0.13209 0.0
C1071 C 1.00235 0.54583 0.13169 0.0
H1072 H 0.97965 0.48819 0.60317 0.0
H1073 H 0.98591 0.56199 0.66447 0.0
H1074 H 0.02548 0.54804 0.66712 0.0
H1075 H 0.0583 0.51515 0.652 0.0
H1076 H 0.05121 0.43554 0.59345 0.0
H1077 H 1.01247 0.45229 0.58942 0.0
C1078 C 0.98975 0.50115 0.61706 0.0
C1079 C 0.97989 0.52609 0.6336 0.0
C1080 C 1.01249 0.49226 0.61886 0.0
C1081 C 0.99311 0.54252 0.65163 0.0
C1082 C 1.01575 0.53463 0.6531 0.0
C1083 C 0.0484 0.50086 0.63853 0.0
C1084 C 0.0583 0.47423 0.62294 0.0
C1085 C 0.02565 0.50942 0.63687 0.0
C1086 C 0.04472 0.45695 0.60538 0.0
C1087 C 0.02227 0.46617 0.60318 0.0
H1088 H 0.04713 0.56159 0.89928 0.0
H1089 H 0.07352 0.47293 0.85466 0.0
H1090 H 0.03665 0.44506 0.85095 0.0
H1091 H 0.99698 0.44685 0.8593 0.0
H1092 H 0.97098 0.53129 0.90789 0.0
H1093 H 1.00732 0.56044 0.9102 0.0
C1094 C 0.04478 0.53606 0.88884 0.0
C1095 C 0.06313 0.51938 0.87724 0.0
C1096 C 0.0235 0.5197 0.88715 0.0
C1097 C 0.0598 0.48617 0.86392 0.0
C1098 C 0.03866 0.47036 0.86168 0.0
C1099 C 0.99903 0.47106 0.87095 0.0
C1100 C 0.98061 0.48633 0.88341 0.0
C1101 C 1.02036 0.48692 0.87316 0.0
C1102 C 0.98425 0.51881 0.89757 0.0
C1103 C 1.00528 0.53545 0.89918 0.0
H1104 H 0.2573 0.31662 0.34543 0.0
H1105 H 0.22381 0.26888 0.4071 0.0
H1106 H 0.2518 0.2204 0.41033 0.0
H1107 H 0.2863 0.19076 0.39638 0.0
H1108 H 0.31829 0.2335 0.33271 0.0
H1109 H 0.29035 0.28341 0.3293 0.0
C1110 C 0.25588 0.29553 0.35947 0.0
C1111 C 0.23845 0.29798 0.37645 0.0
C1112 C 0.27189 0.26621 0.36087 0.0
C1113 C 0.23728 0.2696 0.39432 0.0
C1114 C 0.25326 0.24116 0.39607 0.0
C1115 C 0.28713 0.21094 0.38171 0.0
C1116 C 0.30451 0.20832 0.3649 0.0
C1117 C 0.27076 0.23929 0.37963 0.0
C1118 C 0.30508 0.23457 0.34584 0.0
C1119 C 0.28912 0.26331 0.34396 0.0
H1120 H 0.75677 0.81448 0.35016 0.0
H1121 H 0.72008 0.7627 0.40823 0.0
H1122 H 0.74769 0.71357 0.41152 0.0
H1123 H 0.78272 0.68433 0.39854 0.0
H1124 H 0.81774 0.7314 0.33807 0.0
H1125 H 0.79026 0.782 0.33482 0.0
C1126 C 0.75453 0.79238 0.3634 0.0
C1127 C 0.73628 0.79385 0.37939 0.0
C1128 C 0.77029 0.7627 0.36475 0.0
C1129 C 0.73415 0.76418 0.39627 0.0
C1130 C 0.74991 0.73535 0.39802 0.0
C1131 C 0.7843 0.70559 0.38458 0.0
C1132 C 0.8024 0.70394 0.36863 0.0
C1133 C 0.76817 0.73439 0.38254 0.0
C1134 C 0.80396 0.73165 0.35051 0.0
C1135 C 0.78826 0.7608 0.34872 0.0
H1136 H 0.24427 0.7144 0.16885 0.0
H1137 H 0.24497 0.69761 0.09166 0.0
H1138 H 0.2744 0.74334 0.08767 0.0
H1139 H 0.29947 0.78941 0.10525 0.0
H1140 H 0.30328 0.80041 0.18284 0.0
H1141 H 0.27261 0.75673 0.18704 0.0
C1142 C 0.25096 0.72025 0.15114 0.0
C1143 C 0.24149 0.70275 0.13057 0.0
C1144 C 0.26876 0.74622 0.14884 0.0
C1145 C 0.25086 0.71123 0.1079 0.0
C1146 C 0.26804 0.73736 0.10552 0.0
C1147 C 0.29422 0.78207 0.12328 0.0
C1148 C 0.30428 0.79934 0.14359 0.0
C1149 C 0.27703 0.75533 0.1258 0.0
C1150 C 0.29603 0.78913 0.16654 0.0
C1151 C 0.27844 0.76345 0.16909 0.0
H1152 H 0.73239 0.23693 0.16288 0.0
H1153 H 0.76113 0.16539 0.10858 0.0
H1154 H 0.7934 0.20682 0.10616 0.0
H1155 H 0.81338 0.2638 0.11896 0.0
H1156 H 0.78312 0.33879 0.17069 0.0
H1157 H 0.75213 0.29558 0.17484 0.0
C1158 C 0.74584 0.23029 0.15071 0.0
C1159 C 0.74437 0.19779 0.13607 0.0
C1160 C 0.76422 0.25499 0.14891 0.0
C1161 C 0.76182 0.19003 0.12009 0.0
C1162 C 0.78029 0.21382 0.11867 0.0
C1163 C 0.79997 0.27129 0.13094 0.0
C1164 C 0.80112 0.3051 0.14452 0.0
C1165 C 0.78163 0.24661 0.13283 0.0
C1166 C 0.78339 0.31303 0.16026 0.0
C1167 C 0.76537 0.2883 0.16255 0.0
H1168 H 0.75551 0.8189 0.66499 0.0
H1169 H 0.71955 0.75547 0.61122 0.0
H1170 H 0.74954 0.71018 0.60887 0.0
H1171 H 0.78642 0.68848 0.62104 0.0
H1172 H 0.82124 0.74779 0.67755 0.0
H1173 H 0.79156 0.79407 0.67953 0.0
C1174 C 0.75403 0.79503 0.65291 0.0
C1175 C 0.73513 0.79173 0.63791 0.0
C1176 C 0.77138 0.76803 0.65192 0.0
C1177 C 0.73394 0.76015 0.62245 0.0
C1178 C 0.75112 0.73371 0.62122 0.0
C1179 C 0.78755 0.71103 0.63415 0.0
C1180 C 0.8066 0.71417 0.6489 0.0
C1181 C 0.77002 0.73742 0.63571 0.0
C1182 C 0.80737 0.74452 0.66538 0.0
C1183 C 0.79016 0.7711 0.66674 0.0
H1184 H 0.23056 0.26691 0.66413 0.0
H1185 H 0.25809 0.34225 0.6108 0.0
H1186 H 0.29028 0.30155 0.60708 0.0
H1187 H 0.31079 0.24387 0.61819 0.0
H1188 H 0.28137 0.16555 0.66846 0.0
H1189 H 0.25011 0.20789 0.67374 0.0
C1190 C 0.24333 0.27452 0.65138 0.0
C1191 C 0.24142 0.3084 0.63791 0.0
C1192 C 0.26177 0.25018 0.64867 0.0
C1193 C 0.25884 0.31727 0.62198 0.0
C1194 C 0.27735 0.2936 0.61957 0.0
C1195 C 0.29749 0.23552 0.6301 0.0
C1196 C 0.29899 0.20103 0.64298 0.0
C1197 C 0.279 0.25982 0.63272 0.0
C1198 C 0.28139 0.19188 0.6586 0.0
C1199 C 0.26322 0.21611 0.66153 0.0
H1200 H 0.73025 0.24426 0.89321 0.0
H1201 H 0.75579 0.17492 0.83559 0.0
H1202 H 0.78785 0.21603 0.83216 0.0
H1203 H 0.80986 0.27092 0.84641 0.0
H1204 H 0.78563 0.33656 0.90615 0.0
H1205 H 0.75238 0.2975 0.90804 0.0
C1206 C 0.74286 0.23754 0.88006 0.0
C1207 C 0.74011 0.20601 0.86467 0.0
C1208 C 0.76179 0.26087 0.87855 0.0
C1209 C 0.7568 0.19904 0.84747 0.0
C1210 C 0.77542 0.22251 0.84559 0.0
C1211 C 0.79719 0.27682 0.85969 0.0
C1212 C 0.80028 0.30686 0.87607 0.0
C1213 C 0.77819 0.25349 0.86107 0.0
C1214 C 0.78378 0.31368 0.89337 0.0
C1215 C 0.76471 0.29129 0.89446 0.0
H1216 H 0.25768 0.68815 0.8508 0.0
H1217 H 0.22293 0.74142 0.90977 0.0
H1218 H 0.25125 0.78931 0.91231 0.0
H1219 H 0.28625 0.81732 0.89826 0.0
H1220 H 0.31924 0.76902 0.83684 0.0
H1221 H 0.29117 0.71931 0.83451 0.0
C1222 C 0.25599 0.7103 0.86409 0.0
C1223 C 0.23804 0.70958 0.88052 0.0
C1224 C 0.27216 0.73934 0.86499 0.0
C1225 C 0.2367 0.73929 0.89745 0.0
C1226 C 0.25289 0.76745 0.89879 0.0
C1227 C 0.28727 0.79596 0.88432 0.0
C1228 C 0.30498 0.79701 0.86781 0.0
C1229 C 0.27079 0.76772 0.8828 0.0
C1230 C 0.30579 0.7692 0.84971 0.0
C1231 C 0.28975 0.74058 0.84845 0.0
H1232 H 0.4212 0.02916 0.28873 0.0
H1233 H 0.3514 0.05336 0.29058 0.0
H1234 H 0.34588 0.01782 0.25328 0.0
H1235 H 0.36047 0.97713 0.22115 0.0
H1236 H 0.43069 0.95907 0.21558 0.0
H1237 H 0.43645 0.99322 0.25363 0.0
C1238 C 0.40488 0.02705 0.28069 0.0
C1239 C 0.38666 0.04348 0.29259 0.0
C1240 C 0.40187 0.00696 0.25881 0.0
C1241 C 0.36562 0.04074 0.28188 0.0
C1242 C 0.36245 0.02021 0.26062 0.0
C1243 C 0.37712 0.98146 0.22789 0.0
C1244 C 0.39518 0.9663 0.21509 0.0
C1245 C 0.38037 1.00279 0.24908 0.0
C1246 C 0.41651 0.97073 0.22487 0.0
C1247 C 0.41981 0.99048 0.24658 0.0
H1248 H 0.68662 0.02993 0.2222 0.0
H1249 H 0.61646 0.04903 0.21677 0.0
H1250 H 0.61086 0.01589 0.25523 0.0
H1251 H 0.62624 0.9801 0.29046 0.0
H1252 H 0.69579 0.95376 0.29168 0.0
H1253 H 0.7012 0.98901 0.25426 0.0
C1254 C 0.67001 0.02605 0.22907 0.0
C1255 C 0.65192 0.04116 0.21618 0.0
C1256 C 0.66681 0.00503 0.25036 0.0
C1257 C 0.63066 0.03739 0.22613 0.0
C1258 C 0.62745 0.01817 0.24805 0.0
C1259 C 0.64247 0.98168 0.28226 0.0
C1260 C 0.66069 0.96485 0.29405 0.0
C1261 C 0.64539 1.00146 0.26026 0.0
C1262 C 0.68159 0.96679 0.2831 0.0
C1263 C 0.68471 0.98716 0.26178 0.0
H1264 H 0.64678 0.07823 0.76651 0.0
H1265 H 0.64001 0.98792 0.81818 0.0
H1266 H 0.64047 0.94203 0.78546 0.0
H1267 H 0.64806 0.92825 0.74253 0.0
H1268 H 0.64025 0.01799 0.6906 0.0
H1269 H 0.64008 0.06402 0.72328 0.0
C1270 C 0.64368 0.04905 0.77091 0.0
C1271 C 0.64338 0.03712 0.79524 0.0
C1272 C 0.64193 0.0226 0.75187 0.0
C1273 C 0.64067 0.99823 0.79979 0.0
C1274 C 0.64096 0.97179 0.78105 0.0
C1275 C 0.64446 0.9572 0.73799 0.0
C1276 C 0.644 0.96893 0.71363 0.0
C1277 C 0.64216 0.98359 0.75696 0.0
C1278 C 0.64102 0.00776 0.709 0.0
C1279 C 0.64087 0.03429 0.72773 0.0
H1280 H 0.35918 0.97076 0.78675 0.0
H1281 H 0.42961 0.95513 0.79233 0.0
H1282 H 0.43474 0.98901 0.75404 0.0
H1283 H 0.41888 0.02489 0.71904 0.0
H1284 H 0.34886 0.04734 0.71761 0.0
H1285 H 0.34396 0.01101 0.75468 0.0
C1286 C 0.37573 0.97542 0.7799 0.0
C1287 C 0.39403 0.96114 0.79283 0.0
C1288 C 0.37861 0.99683 0.75869 0.0
C1289 C 0.41524 0.96607 0.78295 0.0
C1290 C 0.41817 0.98573 0.76112 0.0
C1291 C 0.40265 0.02218 0.7271 0.0
C1292 C 0.38418 0.03836 0.71536 0.0
C1293 C 0.39999 1.00172 0.74892 0.0
C1294 C 0.36327 0.03489 0.72615 0.0
C1295 C 0.36044 0.01391 0.74728 0.0
H1296 H 0.91962 0.48522 0.22091 0.0
H1297 H 0.85027 0.45755 0.22143 0.0
H1298 H 0.84518 0.49395 0.25843 0.0
H1299 H 0.86007 0.53515 0.29005 0.0
H1300 H 0.93009 0.55618 0.29364 0.0
H1301 H 0.93527 0.5227 0.25521 0.0
C1302 C 0.90351 0.48683 0.22939 0.0
C1303 C 0.88526 0.46907 0.21832 0.0
C1304 C 0.90078 0.50736 0.25111 0.0
C1305 C 0.86449 0.47114 0.22955 0.0
C1306 C 0.86156 0.49218 0.25061 0.0
C1307 C 0.87653 0.53196 0.28261 0.0
C1308 C 0.89474 0.54748 0.29501 0.0
C1309 C 0.8795 0.51072 0.26141 0.0
C1310 C 0.91583 0.54424 0.2846 0.0
C1311 C 0.91879 0.5248 0.26273 0.0
H1312 H 0.18571 0.47178 0.28699 0.0
H1313 H 0.11532 0.45599 0.29226 0.0
H1314 H 0.11007 0.48945 0.25381 0.0
H1315 H 0.12575 0.52546 0.21897 0.0
H1316 H 0.1958 0.54728 0.21734 0.0
H1317 H 0.20088 0.51101 0.25446 0.0
C1318 C 0.16917 0.47613 0.27992 0.0
C1319 C 0.15088 0.46208 0.29283 0.0
C1320 C 0.16623 0.49715 0.25854 0.0
C1321 C 0.12966 0.46678 0.28285 0.0
C1322 C 0.12666 0.48619 0.26095 0.0
C1323 C 0.14205 0.52251 0.22696 0.0
C1324 C 0.16045 0.53858 0.21521 0.0
C1325 C 0.14481 0.50204 0.24874 0.0
C1326 C 0.18145 0.53487 0.22589 0.0
C1327 C 0.18437 0.51396 0.24705 0.0
H1328 H 0.12752 0.52776 0.79116 0.0
H1329 H 0.19727 0.55128 0.79526 0.0
H1330 H 0.20371 0.51414 0.75877 0.0
H1331 H 0.18978 0.47262 0.72641 0.0
H1332 H 0.11952 0.45709 0.71831 0.0
H1333 H 0.11304 0.49185 0.7558 0.0
C1334 C 0.14403 0.5252 0.78378 0.0
C1335 C 0.16195 0.5418 0.79612 0.0
C1336 C 0.14758 0.50429 0.76235 0.0
C1337 C 0.18326 0.53854 0.7862 0.0
C1338 C 0.18696 0.51704 0.76543 0.0
C1339 C 0.17304 0.47694 0.73283 0.0
C1340 C 0.15522 0.46168 0.71961 0.0
C1341 C 0.16932 0.49924 0.75354 0.0
C1342 C 0.13362 0.46774 0.72826 0.0
C1343 C 0.12987 0.48811 0.74958 0.0
H1344 H 0.88688 0.58189 0.74805 0.0
H1345 H 0.89009 0.49056 0.69671 0.0
H1346 H 0.89109 0.4451 0.72959 0.0
H1347 H 0.88732 0.43167 0.7732 0.0
H1348 H 0.89944 0.52208 0.82356 0.0
H1349 H 0.8966 0.56782 0.79077 0.0
C1350 C 0.88899 0.55232 0.74378 0.0
C1351 C 0.88775 0.54016 0.71956 0.0
C1352 C 0.89212 0.52608 0.76275 0.0
C1353 C 0.88998 0.50114 0.71502 0.0
C1354 C 0.89081 0.47491 0.73387 0.0
C1355 C 0.89105 0.46081 0.77714 0.0
C1356 C 0.8937 0.47284 0.80124 0.0
C1357 C 0.8915 0.487 0.7579 0.0
C1358 C 0.89706 0.51171 0.80536 0.0
C1359 C 0.89541 0.53805 0.78658 0.0
loop_
_geom_bond_atom_site_label_1
_geom_bond_atom_site_label_2
_geom_bond_distance
_geom_bond_site_symmetry_2
_ccdc_geom_bond_type
C0 C1 1.443 . S
C0 N4 1.376 . S
C0 C38 1.389 . S
C1 C0 1.443 . S
C1 C2 1.340 . S
C1 H41 0.951 . S
C2 C1 1.340 . S
C2 C3 1.439 . S
C2 H42 0.950 1_545 S
C3 C2 1.439 . S
C3 N4 1.374 . S
C3 C37 1.395 . S
N4 C0 1.376 . S
N4 C3 1.374 . S
N4 Co5 2.008 . S
Co5 N4 2.008 . S
Co5 N6 1.995 . S
Co5 N11 2.008 . S
Co5 N16 1.995 . S
Co5 N21 2.282 . S
Co5 N27 2.282 . S
N6 Co5 1.995 . S
N6 C7 1.376 . S
N6 C10 1.383 . S
C7 N6 1.376 . S
C7 C8 1.446 . S
C7 C37 1.391 . S
C8 C7 1.446 . S
C8 C9 1.339 . S
C8 H43 0.949 . S
C9 C8 1.339 . S
C9 C10 1.439 . S
C9 H44 0.950 . S
C10 N6 1.383 . S
C10 C9 1.439 . S
C10 C39 1.392 . S
N11 Co5 2.008 . S
N11 C12 1.376 . S
N11 C15 1.374 . S
C12 N11 1.376 . S
C12 C13 1.443 . S
C12 C39 1.389 . S
C13 C12 1.443 . S
C13 C14 1.340 . S
C13 H45 0.951 . S
C14 C13 1.340 . S
C14 C15 1.439 . S
C14 H46 0.950 . S
C15 N11 1.374 . S
C15 C14 1.439 . S
C15 C40 1.395 . S
N16 Co5 1.995 . S
N16 C17 1.376 . S
N16 C20 1.383 . S
C17 N16 1.376 . S
C17 C18 1.446 . S
C17 C40 1.391 . S
C18 C17 1.446 . S
C18 C19 1.339 . S
C18 H47 0.949 . S
C19 C18 1.339 . S
C19 C20 1.439 . S
C19 H48 0.950 . S
C20 N16 1.383 . S
C20 C19 1.439 . S
C20 C38 1.392 . S
N21 Co5 2.282 . S
N21 C24 1.332 . S
N21 C26 1.332 . S
C22 C23 1.386 . S
C22 C25 1.388 . S
C23 C22 1.386 . S
C23 C24 1.382 . S
C23 H49 0.950 . S
C24 N21 1.332 . S
C24 C23 1.382 . S
C24 H35 0.952 . S
C25 C22 1.388 . S
C25 C26 1.382 . S
C25 H50 0.950 . S
C26 N21 1.332 . S
C26 C25 1.382 . S
C26 H36 0.948 . S
N27 Co5 2.282 . S
N27 C31 1.332 . S
N27 C32 1.332 . S
C28 C29 1.388 . S
C28 C32 1.382 . S
C28 H51 0.950 . S
C29 C28 1.388 . S
C29 C30 1.386 . S
C30 C29 1.386 . S
C30 C31 1.382 . S
C30 H52 0.950 . S
C31 N27 1.332 . S
C31 C30 1.382 . S
C31 H33 0.952 . S
C32 N27 1.332 . S
C32 C28 1.382 . S
C32 H34 0.948 . S
H33 C31 0.952 . S
H34 C32 0.948 . S
H35 C24 0.952 . S
H36 C26 0.948 . S
C37 C3 1.395 . S
C37 C7 1.391 . S
C38 C0 1.389 . S
C38 C20 1.392 . S
C39 C10 1.392 . S
C39 C12 1.389 . S
C40 C15 1.395 . S
C40 C17 1.391 . S
H41 C1 0.951 . S
H42 C2 0.950 1_565 S
H43 C8 0.949 . S
H44 C9 0.950 . S
H45 C13 0.951 . S
H46 C14 0.950 . S
H47 C18 0.949 . S
H48 C19 0.950 . S
H49 C23 0.950 . S
H50 C25 0.950 . S
H51 C28 0.950 . S
H52 C30 0.950 . S
C53 C54 1.443 . S
C53 N57 1.376 . S
C53 C91 1.389 . S
C54 C53 1.443 . S
C54 C55 1.340 . S
C54 H94 0.951 . S
C55 C54 1.340 . S
C55 C56 1.439 . S
C55 H95 0.950 1_565 S
C56 C55 1.439 . S
C56 N57 1.374 . S
C56 C90 1.395 . S
N57 C53 1.376 . S
N57 C56 1.374 . S
N57 Co58 2.008 . S
Co58 N57 2.008 . S
Co58 N59 1.995 . S
Co58 N64 2.008 . S
Co58 N69 1.995 . S
Co58 N74 2.282 . S
Co58 N80 2.282 . S
N59 Co58 1.995 . S
N59 C60 1.376 . S
N59 C63 1.383 . S
C60 N59 1.376 . S
C60 C61 1.446 . S
C60 C90 1.391 . S
C61 C60 1.446 . S
C61 C62 1.339 . S
C61 H96 0.949 . S
C62 C61 1.339 . S
C62 C63 1.439 . S
C62 H97 0.950 . S
C63 N59 1.383 . S
C63 C62 1.439 . S
C63 C92 1.392 . S
N64 Co58 2.008 . S
N64 C65 1.376 . S
N64 C68 1.374 . S
C65 N64 1.376 . S
C65 C66 1.443 . S
C65 C92 1.389 . S
C66 C65 1.443 . S
C66 C67 1.340 . S
C66 H98 0.951 . S
C67 C66 1.340 . S
C67 C68 1.439 . S
C67 H99 0.950 . S
C68 N64 1.374 . S
C68 C67 1.439 . S
C68 C93 1.395 . S
N69 Co58 1.995 . S
N69 C70 1.376 . S
N69 C73 1.383 . S
C70 N69 1.376 . S
C70 C71 1.446 . S
C70 C93 1.391 . S
C71 C70 1.446 . S
C71 C72 1.339 . S
C71 H100 0.949 . S
C72 C71 1.339 . S
C72 C73 1.439 . S
C72 H101 0.950 . S
C73 N69 1.383 . S
C73 C72 1.439 . S
C73 C91 1.392 . S
N74 Co58 2.282 . S
N74 C77 1.332 . S
N74 C79 1.332 . S
C75 C76 1.386 . S
C75 C78 1.388 . S
C76 C75 1.386 . S
C76 C77 1.382 . S
C76 H102 0.950 . S
C77 N74 1.332 . S
C77 C76 1.382 . S
C77 H88 0.952 . S
C78 C75 1.388 . S
C78 C79 1.382 . S
C78 H103 0.950 . S
C79 N74 1.332 . S
C79 C78 1.382 . S
C79 H89 0.948 . S
N80 Co58 2.282 . S
N80 C84 1.332 . S
N80 C85 1.332 . S
C81 C82 1.388 . S
C81 C85 1.382 . S
C81 H104 0.950 . S
C82 C81 1.388 . S
C82 C83 1.386 . S
C83 C82 1.386 . S
C83 C84 1.382 . S
C83 H105 0.950 . S
C84 N80 1.332 . S
C84 C83 1.382 . S
C84 H86 0.952 . S
C85 N80 1.332 . S
C85 C81 1.382 . S
C85 H87 0.948 . S
H86 C84 0.952 . S
H87 C85 0.948 . S
H88 C77 0.952 . S
H89 C79 0.948 . S
C90 C56 1.395 . S
C90 C60 1.391 . S
C91 C53 1.389 . S
C91 C73 1.392 . S
C92 C63 1.392 . S
C92 C65 1.389 . S
C93 C68 1.395 . S
C93 C70 1.391 . S
H94 C54 0.951 . S
H95 C55 0.950 1_545 S
H96 C61 0.949 . S
H97 C62 0.950 . S
H98 C66 0.951 . S
H99 C67 0.950 . S
H100 C71 0.949 . S
H101 C72 0.950 . S
H102 C76 0.950 . S
H103 C78 0.950 . S
H104 C81 0.950 . S
H105 C83 0.950 . S
C106 C107 1.443 . S
C106 N110 1.376 . S
C106 C144 1.389 . S
C107 C106 1.443 . S
C107 C108 1.340 . S
C107 H147 0.951 . S
C108 C107 1.340 . S
C108 C109 1.439 . S
C108 H148 0.950 1_565 S
C109 C108 1.439 . S
C109 N110 1.374 . S
C109 C143 1.395 . S
N110 C106 1.376 . S
N110 C109 1.374 . S
N110 Co111 2.008 . S
Co111 N110 2.008 . S
Co111 N112 1.995 . S
Co111 N117 2.008 . S
Co111 N122 1.995 . S
Co111 N127 2.282 . S
Co111 N133 2.282 . S
N112 Co111 1.995 . S
N112 C113 1.376 . S
N112 C116 1.383 . S
C113 N112 1.376 . S
C113 C114 1.446 . S
C113 C143 1.391 . S
C114 C113 1.446 . S
C114 C115 1.339 . S
C114 H149 0.949 . S
C115 C114 1.339 . S
C115 C116 1.439 . S
C115 H150 0.950 . S
C116 N112 1.383 . S
C116 C115 1.439 . S
C116 C145 1.392 . S
N117 Co111 2.008 . S
N117 C118 1.376 . S
N117 C121 1.374 . S
C118 N117 1.376 . S
C118 C119 1.443 . S
C118 C145 1.389 . S
C119 C118 1.443 . S
C119 C120 1.340 . S
C119 H151 0.951 . S
C120 C119 1.340 . S
C120 C121 1.439 . S
C120 H152 0.950 . S
C121 N117 1.374 . S
C121 C120 1.439 . S
C121 C146 1.395 . S
N122 Co111 1.995 . S
N122 C123 1.376 . S
N122 C126 1.383 . S
C123 N122 1.376 . S
C123 C124 1.446 . S
C123 C146 1.391 . S
C124 C123 1.446 . S
C124 C125 1.339 . S
C124 H153 0.949 . S
C125 C124 1.339 . S
C125 C126 1.439 . S
C125 H154 0.950 . S
C126 N122 1.383 . S
C126 C125 1.439 . S
C126 C144 1.392 . S
N127 Co111 2.282 . S
N127 C130 1.332 . S
N127 C132 1.332 . S
C128 C129 1.386 . S
C128 C131 1.388 . S
C129 C128 1.386 . S
C129 C130 1.382 . S
C129 H155 0.950 . S
C130 N127 1.332 . S
C130 C129 1.382 . S
C130 H141 0.952 . S
C131 C128 1.388 . S
C131 C132 1.382 . S
C131 H156 0.950 . S
C132 N127 1.332 . S
C132 C131 1.382 . S
C132 H142 0.948 . S
N133 Co111 2.282 . S
N133 C137 1.332 . S
N133 C138 1.332 . S
C134 C135 1.388 . S
C134 C138 1.382 . S
C134 H157 0.950 . S
C135 C134 1.388 . S
C135 C136 1.386 . S
C136 C135 1.386 . S
C136 C137 1.382 . S
C136 H158 0.950 . S
C137 N133 1.332 . S
C137 C136 1.382 . S
C137 H139 0.952 . S
C138 N133 1.332 . S
C138 C134 1.382 . S
C138 H140 0.948 . S
H139 C137 0.952 . S
H140 C138 0.948 . S
H141 C130 0.952 . S
H142 C132 0.948 . S
C143 C109 1.395 . S
C143 C113 1.391 . S
C144 C106 1.389 . S
C144 C126 1.392 . S
C145 C116 1.392 . S
C145 C118 1.389 . S
C146 C121 1.395 . S
C146 C123 1.391 . S
H147 C107 0.951 . S
H148 C108 0.950 1_545 S
H149 C114 0.949 . S
H150 C115 0.950 . S
H151 C119 0.951 . S
H152 C120 0.950 . S
H153 C124 0.949 . S
H154 C125 0.950 . S
H155 C129 0.950 . S
H156 C131 0.950 . S
H157 C134 0.950 . S
H158 C136 0.950 . S
C159 C160 1.443 . S
C159 N163 1.376 . S
C159 C197 1.389 . S
C160 C159 1.443 . S
C160 C161 1.340 . S
C160 H200 0.951 . S
C161 C160 1.340 . S
C161 C162 1.439 . S
C161 H201 0.950 1_545 S
C162 C161 1.439 . S
C162 N163 1.374 . S
C162 C196 1.395 . S
N163 C159 1.376 . S
N163 C162 1.374 . S
N163 Co164 2.008 . S
Co164 N163 2.008 . S
Co164 N165 1.995 . S
Co164 N170 2.008 . S
Co164 N175 1.995 . S
Co164 N180 2.282 . S
Co164 N186 2.282 . S
N165 Co164 1.995 . S
N165 C166 1.376 . S
N165 C169 1.383 . S
C166 N165 1.376 . S
C166 C167 1.446 . S
C166 C196 1.391 . S
C167 C166 1.446 . S
C167 C168 1.339 . S
C167 H202 0.949 . S
C168 C167 1.339 . S
C168 C169 1.439 . S
C168 H203 0.950 . S
C169 N165 1.383 . S
C169 C168 1.439 . S
C169 C198 1.392 . S
N170 Co164 2.008 . S
N170 C171 1.376 . S
N170 C174 1.374 . S
C171 N170 1.376 . S
C171 C172 1.443 . S
C171 C198 1.389 . S
C172 C171 1.443 . S
C172 C173 1.340 . S
C172 H204 0.951 . S
C173 C172 1.340 . S
C173 C174 1.439 . S
C173 H205 0.950 . S
C174 N170 1.374 . S
C174 C173 1.439 . S
C174 C199 1.395 . S
N175 Co164 1.995 . S
N175 C176 1.376 . S
N175 C179 1.383 . S
C176 N175 1.376 . S
C176 C177 1.446 . S
C176 C199 1.391 . S
C177 C176 1.446 . S
C177 C178 1.339 . S
C177 H206 0.949 . S
C178 C177 1.339 . S
C178 C179 1.439 . S
C178 H207 0.950 . S
C179 N175 1.383 . S
C179 C178 1.439 . S
C179 C197 1.392 . S
N180 Co164 2.282 . S
N180 C183 1.332 . S
N180 C185 1.332 . S
C181 C182 1.386 . S
C181 C184 1.388 . S
C182 C181 1.386 . S
C182 C183 1.382 . S
C182 H208 0.950 . S
C183 N180 1.332 . S
C183 C182 1.382 . S
C183 H194 0.952 . S
C184 C181 1.388 . S
C184 C185 1.382 . S
C184 H209 0.950 . S
C185 N180 1.332 . S
C185 C184 1.382 . S
C185 H195 0.948 . S
N186 Co164 2.282 . S
N186 C190 1.332 . S
N186 C191 1.332 . S
C187 C188 1.388 . S
C187 C191 1.382 . S
C187 H210 0.950 . S
C188 C187 1.388 . S
C188 C189 1.386 . S
C189 C188 1.386 . S
C189 C190 1.382 . S
C189 H211 0.950 . S
C190 N186 1.332 . S
C190 C189 1.382 . S
C190 H192 0.952 . S
C191 N186 1.332 . S
C191 C187 1.382 . S
C191 H193 0.948 . S
H192 C190 0.952 . S
H193 C191 0.948 . S
H194 C183 0.952 . S
H195 C185 0.948 . S
C196 C162 1.395 . S
C196 C166 1.391 . S
C197 C159 1.389 . S
C197 C179 1.392 . S
C198 C169 1.392 . S
C198 C171 1.389 . S
C199 C174 1.395 . S
C199 C176 1.391 . S
H200 C160 0.951 . S
H201 C161 0.950 1_565 S
H202 C167 0.949 . S
H203 C168 0.950 . S
H204 C172 0.951 . S
H205 C173 0.950 . S
H206 C177 0.949 . S
H207 C178 0.950 . S
H208 C182 0.950 . S
H209 C184 0.950 . S
H210 C187 0.950 . S
H211 C189 0.950 . S
C212 C213 1.443 . S
C212 N216 1.376 . S
C212 C250 1.389 . S
C213 C212 1.443 . S
C213 C214 1.340 . S
C213 H253 0.951 . S
C214 C213 1.340 . S
C214 C215 1.439 . S
C214 H254 0.950 . S
C215 C214 1.439 . S
C215 N216 1.374 . S
C215 C249 1.395 . S
N216 C212 1.376 . S
N216 C215 1.374 . S
N216 Co217 2.008 . S
Co217 N216 2.008 . S
Co217 N218 1.995 . S
Co217 N223 2.008 . S
Co217 N228 1.995 . S
Co217 N233 2.282 . S
Co217 N239 2.282 . S
N218 Co217 1.995 . S
N218 C219 1.376 . S
N218 C222 1.383 . S
C219 N218 1.376 . S
C219 C220 1.446 . S
C219 C249 1.391 . S
C220 C219 1.446 . S
C220 C221 1.339 . S
C220 H255 0.949 . S
C221 C220 1.339 . S
C221 C222 1.439 . S
C221 H256 0.950 . S
C222 N218 1.383 . S
C222 C221 1.439 . S
C222 C251 1.392 . S
N223 Co217 2.008 . S
N223 C224 1.376 . S
N223 C227 1.374 . S
C224 N223 1.376 . S
C224 C225 1.443 . S
C224 C251 1.389 . S
C225 C224 1.443 . S
C225 C226 1.340 . S
C225 H257 0.951 . S
C226 C225 1.340 . S
C226 C227 1.439 . S
C226 H258 0.950 . S
C227 N223 1.374 . S
C227 C226 1.439 . S
C227 C252 1.395 . S
N228 Co217 1.995 . S
N228 C229 1.376 . S
N228 C232 1.383 . S
C229 N228 1.376 . S
C229 C230 1.446 . S
C229 C252 1.391 . S
C230 C229 1.446 . S
C230 C231 1.339 . S
C230 H259 0.949 1_565 S
C231 C230 1.339 . S
C231 C232 1.439 . S
C231 H260 0.950 . S
C232 N228 1.383 . S
C232 C231 1.439 . S
C232 C250 1.392 . S
N233 Co217 2.282 . S
N233 C236 1.332 . S
N233 C238 1.332 . S
C234 C235 1.386 . S
C234 C237 1.388 . S
C235 C234 1.386 . S
C235 C236 1.382 . S
C235 H261 0.950 . S
C236 N233 1.332 . S
C236 C235 1.382 . S
C236 H247 0.952 . S
C237 C234 1.388 . S
C237 C238 1.382 . S
C237 H262 0.950 . S
C238 N233 1.332 . S
C238 C237 1.382 . S
C238 H248 0.948 . S
N239 Co217 2.282 . S
N239 C243 1.332 . S
N239 C244 1.332 . S
C240 C241 1.388 . S
C240 C244 1.382 . S
C240 H263 0.950 1_565 S
C241 C240 1.388 . S
C241 C242 1.386 . S
C242 C241 1.386 . S
C242 C243 1.382 . S
C242 H264 0.950 . S
C243 N239 1.332 . S
C243 C242 1.382 . S
C243 H245 0.952 . S
C244 N239 1.332 . S
C244 C240 1.382 . S
C244 H246 0.948 . S
H245 C243 0.952 . S
H246 C244 0.948 . S
H247 C236 0.952 . S
H248 C238 0.948 . S
C249 C215 1.395 . S
C249 C219 1.391 . S
C250 C212 1.389 . S
C250 C232 1.392 . S
C251 C222 1.392 . S
C251 C224 1.389 . S
C252 C227 1.395 . S
C252 C229 1.391 . S
H253 C213 0.951 . S
H254 C214 0.950 . S
H255 C220 0.949 . S
H256 C221 0.950 . S
H257 C225 0.951 . S
H258 C226 0.950 . S
H259 C230 0.949 1_545 S
H260 C231 0.950 . S
H261 C235 0.950 . S
H262 C237 0.950 . S
H263 C240 0.950 1_545 S
H264 C242 0.950 . S
C265 C266 1.443 . S
C265 N269 1.376 . S
C265 C303 1.389 . S
C266 C265 1.443 . S
C266 C267 1.340 . S
C266 H306 0.951 . S
C267 C266 1.340 . S
C267 C268 1.439 . S
C267 H307 0.950 . S
C268 C267 1.439 . S
C268 N269 1.374 . S
C268 C302 1.395 . S
N269 C265 1.376 . S
N269 C268 1.374 . S
N269 Co270 2.008 . S
Co270 N269 2.008 . S
Co270 N271 1.995 . S
Co270 N276 2.008 . S
Co270 N281 1.995 . S
Co270 N286 2.282 . S
Co270 N292 2.282 . S
N271 Co270 1.995 . S
N271 C272 1.376 . S
N271 C275 1.383 . S
C272 N271 1.376 . S
C272 C273 1.446 . S
C272 C302 1.391 . S
C273 C272 1.446 . S
C273 C274 1.339 . S
C273 H308 0.949 . S
C274 C273 1.339 . S
C274 C275 1.439 . S
C274 H309 0.950 . S
C275 N271 1.383 . S
C275 C274 1.439 . S
C275 C304 1.392 . S
N276 Co270 2.008 . S
N276 C277 1.376 . S
N276 C280 1.374 . S
C277 N276 1.376 . S
C277 C278 1.443 . S
C277 C304 1.389 . S
C278 C277 1.443 . S
C278 C279 1.340 . S
C278 H310 0.951 . S
C279 C278 1.340 . S
C279 C280 1.439 . S
C279 H311 0.950 . S
C280 N276 1.374 . S
C280 C279 1.439 . S
C280 C305 1.395 . S
N281 Co270 1.995 . S
N281 C282 1.376 . S
N281 C285 1.383 . S
C282 N281 1.376 . S
C282 C283 1.446 . S
C282 C305 1.391 . S
C283 C282 1.446 . S
C283 C284 1.339 . S
C283 H312 0.949 1_545 S
C284 C283 1.339 . S
C284 C285 1.439 . S
C284 H313 0.950 . S
C285 N281 1.383 . S
C285 C284 1.439 . S
C285 C303 1.392 . S
N286 Co270 2.282 . S
N286 C289 1.332 . S
N286 C291 1.332 . S
C287 C288 1.386 . S
C287 C290 1.388 . S
C288 C287 1.386 . S
C288 C289 1.382 . S
C288 H314 0.950 . S
C289 N286 1.332 . S
C289 C288 1.382 . S
C289 H300 0.952 . S
C290 C287 1.388 . S
C290 C291 1.382 . S
C290 H315 0.950 . S
C291 N286 1.332 . S
C291 C290 1.382 . S
C291 H301 0.948 . S
N292 Co270 2.282 . S
N292 C296 1.332 . S
N292 C297 1.332 . S
C293 C294 1.388 . S
C293 C297 1.382 . S
C293 H316 0.950 1_545 S
C294 C293 1.388 . S
C294 C295 1.386 . S
C295 C294 1.386 . S
C295 C296 1.382 . S
C295 H317 0.950 . S
C296 N292 1.332 . S
C296 C295 1.382 . S
C296 H298 0.952 . S
C297 N292 1.332 . S
C297 C293 1.382 . S
C297 H299 0.948 . S
H298 C296 0.952 . S
H299 C297 0.948 . S
H300 C289 0.952 . S
H301 C291 0.948 . S
C302 C268 1.395 . S
C302 C272 1.391 . S
C303 C265 1.389 . S
C303 C285 1.392 . S
C304 C275 1.392 . S
C304 C277 1.389 . S
C305 C280 1.395 . S
C305 C282 1.391 . S
H306 C266 0.951 . S
H307 C267 0.950 . S
H308 C273 0.949 . S
H309 C274 0.950 . S
H310 C278 0.951 . S
H311 C279 0.950 . S
H312 C283 0.949 1_565 S
H313 C284 0.950 . S
H314 C288 0.950 . S
H315 C290 0.950 . S
H316 C293 0.950 1_565 S
H317 C295 0.950 . S
C318 C319 1.443 . S
C318 N322 1.376 . S
C318 C356 1.389 . S
C319 C318 1.443 . S
C319 C320 1.340 . S
C319 H359 0.951 . S
C320 C319 1.340 . S
C320 C321 1.439 . S
C320 H360 0.950 . S
C321 C320 1.439 . S
C321 N322 1.374 . S
C321 C355 1.395 . S
N322 C318 1.376 . S
N322 C321 1.374 . S
N322 Co323 2.008 . S
Co323 N322 2.008 . S
Co323 N324 1.995 . S
Co323 N329 2.008 . S
Co323 N334 1.995 . S
Co323 N339 2.282 . S
Co323 N345 2.282 . S
N324 Co323 1.995 . S
N324 C325 1.376 . S
N324 C328 1.383 . S
C325 N324 1.376 . S
C325 C326 1.446 . S
C325 C355 1.391 . S
C326 C325 1.446 . S
C326 C327 1.339 . S
C326 H361 0.949 . S
C327 C326 1.339 . S
C327 C328 1.439 . S
C327 H362 0.950 . S
C328 N324 1.383 . S
C328 C327 1.439 . S
C328 C357 1.392 . S
N329 Co323 2.008 . S
N329 C330 1.376 . S
N329 C333 1.374 . S
C330 N329 1.376 . S
C330 C331 1.443 . S
C330 C357 1.389 . S
C331 C330 1.443 . S
C331 C332 1.340 . S
C331 H363 0.951 . S
C332 C331 1.340 . S
C332 C333 1.439 . S
C332 H364 0.950 . S
C333 N329 1.374 . S
C333 C332 1.439 . S
C333 C358 1.395 . S
N334 Co323 1.995 . S
N334 C335 1.376 . S
N334 C338 1.383 . S
C335 N334 1.376 . S
C335 C336 1.446 . S
C335 C358 1.391 . S
C336 C335 1.446 . S
C336 C337 1.339 . S
C336 H365 0.949 1_545 S
C337 C336 1.339 . S
C337 C338 1.439 . S
C337 H366 0.950 . S
C338 N334 1.383 . S
C338 C337 1.439 . S
C338 C356 1.392 . S
N339 Co323 2.282 . S
N339 C342 1.332 . S
N339 C344 1.332 . S
C340 C341 1.386 . S
C340 C343 1.388 . S
C341 C340 1.386 . S
C341 C342 1.382 . S
C341 H367 0.950 . S
C342 N339 1.332 . S
C342 C341 1.382 . S
C342 H353 0.952 . S
C343 C340 1.388 . S
C343 C344 1.382 . S
C343 H368 0.950 . S
C344 N339 1.332 . S
C344 C343 1.382 . S
C344 H354 0.948 . S
N345 Co323 2.282 . S
N345 C349 1.332 . S
N345 C350 1.332 . S
C346 C347 1.388 . S
C346 C350 1.382 . S
C346 H369 0.950 1_545 S
C347 C346 1.388 . S
C347 C348 1.386 . S
C348 C347 1.386 . S
C348 C349 1.382 . S
C348 H370 0.950 . S
C349 N345 1.332 . S
C349 C348 1.382 . S
C349 H351 0.952 . S
C350 N345 1.332 . S
C350 C346 1.382 . S
C350 H352 0.948 . S
H351 C349 0.952 . S
H352 C350 0.948 . S
H353 C342 0.952 . S
H354 C344 0.948 . S
C355 C321 1.395 . S
C355 C325 1.391 . S
C356 C318 1.389 . S
C356 C338 1.392 . S
C357 C328 1.392 . S
C357 C330 1.389 . S
C358 C333 1.395 . S
C358 C335 1.391 . S
H359 C319 0.951 . S
H360 C320 0.950 . S
H361 C326 0.949 . S
H362 C327 0.950 . S
H363 C331 0.951 . S
H364 C332 0.950 . S
H365 C336 0.949 1_565 S
H366 C337 0.950 . S
H367 C341 0.950 . S
H368 C343 0.950 . S
H369 C346 0.950 1_565 S
H370 C348 0.950 . S
C371 C372 1.443 . S
C371 N375 1.376 . S
C371 C409 1.389 . S
C372 C371 1.443 . S
C372 C373 1.340 . S
C372 H412 0.951 . S
C373 C372 1.340 . S
C373 C374 1.439 . S
C373 H413 0.950 . S
C374 C373 1.439 . S
C374 N375 1.374 . S
C374 C408 1.395 . S
N375 C371 1.376 . S
N375 C374 1.374 . S
N375 Co376 2.008 . S
Co376 N375 2.008 . S
Co376 N377 1.995 . S
Co376 N382 2.008 . S
Co376 N387 1.995 . S
Co376 N392 2.282 . S
Co376 N398 2.282 . S
N377 Co376 1.995 . S
N377 C378 1.376 . S
N377 C381 1.383 . S
C378 N377 1.376 . S
C378 C379 1.446 . S
C378 C408 1.391 . S
C379 C378 1.446 . S
C379 C380 1.339 . S
C379 H414 0.949 . S
C380 C379 1.339 . S
C380 C381 1.439 . S
C380 H415 0.950 . S
C381 N377 1.383 . S
C381 C380 1.439 . S
C381 C410 1.392 . S
N382 Co376 2.008 . S
N382 C383 1.376 . S
N382 C386 1.374 . S
C383 N382 1.376 . S
C383 C384 1.443 . S
C383 C410 1.389 . S
C384 C383 1.443 . S
C384 C385 1.340 . S
C384 H416 0.951 . S
C385 C384 1.340 . S
C385 C386 1.439 . S
C385 H417 0.950 . S
C386 N382 1.374 . S
C386 C385 1.439 . S
C386 C411 1.395 . S
N387 Co376 1.995 . S
N387 C388 1.376 . S
N387 C391 1.383 . S
C388 N387 1.376 . S
C388 C389 1.446 . S
C388 C411 1.391 . S
C389 C388 1.446 . S
C389 C390 1.339 . S
C389 H418 0.949 1_565 S
C390 C389 1.339 . S
C390 C391 1.439 . S
C390 H419 0.950 . S
C391 N387 1.383 . S
C391 C390 1.439 . S
C391 C409 1.392 . S
N392 Co376 2.282 . S
N392 C395 1.332 . S
N392 C397 1.332 . S
C393 C394 1.386 . S
C393 C396 1.388 . S
C394 C393 1.386 . S
C394 C395 1.382 . S
C394 H420 0.950 . S
C395 N392 1.332 . S
C395 C394 1.382 . S
C395 H406 0.952 . S
C396 C393 1.388 . S
C396 C397 1.382 . S
C396 H421 0.950 . S
C397 N392 1.332 . S
C397 C396 1.382 . S
C397 H407 0.948 . S
N398 Co376 2.282 . S
N398 C402 1.332 . S
N398 C403 1.332 . S
C399 C400 1.388 . S
C399 C403 1.382 . S
C399 H422 0.950 1_565 S
C400 C399 1.388 . S
C400 C401 1.386 . S
C401 C400 1.386 . S
C401 C402 1.382 . S
C401 H423 0.950 . S
C402 N398 1.332 . S
C402 C401 1.382 . S
C402 H404 0.952 . S
C403 N398 1.332 . S
C403 C399 1.382 . S
C403 H405 0.948 . S
H404 C402 0.952 . S
H405 C403 0.948 . S
H406 C395 0.952 . S
H407 C397 0.948 . S
C408 C374 1.395 . S
C408 C378 1.391 . S
C409 C371 1.389 . S
C409 C391 1.392 . S
C410 C381 1.392 . S
C410 C383 1.389 . S
C411 C386 1.395 . S
C411 C388 1.391 . S
H412 C372 0.951 . S
H413 C373 0.950 . S
H414 C379 0.949 . S
H415 C380 0.950 . S
H416 C384 0.951 . S
H417 C385 0.950 . S
H418 C389 0.949 1_545 S
H419 C390 0.950 . S
H420 C394 0.950 . S
H421 C396 0.950 . S
H422 C399 0.950 1_545 S
H423 C401 0.950 . S
C424 C425 1.443 . S
C424 N428 1.376 . S
C424 C462 1.389 . S
C425 C424 1.443 . S
C425 C426 1.340 . S
C425 H465 0.951 . S
C426 C425 1.340 . S
C426 C427 1.439 . S
C426 H466 0.950 . S
C427 C426 1.439 . S
C427 N428 1.374 . S
C427 C461 1.395 . S
N428 C424 1.376 . S
N428 C427 1.374 . S
N428 Co429 2.008 . S
Co429 N428 2.008 . S
Co429 N430 1.995 . S
Co429 N435 2.008 . S
Co429 N440 1.995 . S
Co429 N445 2.282 . S
Co429 N451 2.282 . S
N430 Co429 1.995 . S
N430 C431 1.376 . S
N430 C434 1.383 . S
C431 N430 1.376 . S
C431 C432 1.446 . S
C431 C461 1.391 . S
C432 C431 1.446 . S
C432 C433 1.339 . S
C432 H467 0.949 . S
C433 C432 1.339 . S
C433 C434 1.439 . S
C433 H468 0.950 . S
C434 N430 1.383 . S
C434 C433 1.439 . S
C434 C463 1.392 . S
N435 Co429 2.008 . S
N435 C436 1.376 . S
N435 C439 1.374 . S
C436 N435 1.376 . S
C436 C437 1.443 . S
C436 C463 1.389 . S
C437 C436 1.443 . S
C437 C438 1.340 . S
C437 H469 0.951 . S
C438 C437 1.340 . S
C438 C439 1.439 . S
C438 H470 0.950 . S
C439 N435 1.374 . S
C439 C438 1.439 . S
C439 C464 1.395 . S
N440 Co429 1.995 . S
N440 C441 1.376 . S
N440 C444 1.383 . S
C441 N440 1.376 . S
C441 C442 1.446 . S
C441 C464 1.391 . S
C442 C441 1.446 . S
C442 C443 1.339 . S
C442 H471 0.949 . S
C443 C442 1.339 . S
C443 C444 1.439 . S
C443 H472 0.950 . S
C444 N440 1.383 . S
C444 C443 1.439 . S
C444 C462 1.392 . S
N445 Co429 2.282 . S
N445 C448 1.332 . S
N445 C450 1.332 . S
C446 C447 1.386 . S
C446 C449 1.388 . S
C447 C446 1.386 . S
C447 C448 1.382 . S
C447 H473 0.950 . S
C448 N445 1.332 . S
C448 C447 1.382 . S
C448 H459 0.952 . S
C449 C446 1.388 . S
C449 C450 1.382 . S
C449 H474 0.950 . S
C450 N445 1.332 . S
C450 C449 1.382 . S
C450 H460 0.948 . S
N451 Co429 2.282 . S
N451 C455 1.332 . S
N451 C456 1.332 . S
C452 C453 1.388 . S
C452 C456 1.382 . S
C452 H475 0.950 . S
C453 C452 1.388 . S
C453 C454 1.386 . S
C454 C453 1.386 . S
C454 C455 1.382 . S
C454 H476 0.950 . S
C455 N451 1.332 . S
C455 C454 1.382 . S
C455 H457 0.952 . S
C456 N451 1.332 . S
C456 C452 1.382 . S
C456 H458 0.948 . S
H457 C455 0.952 . S
H458 C456 0.948 . S
H459 C448 0.952 . S
H460 C450 0.948 . S
C461 C427 1.395 . S
C461 C431 1.391 . S
C462 C424 1.389 . S
C462 C444 1.392 . S
C463 C434 1.392 . S
C463 C436 1.389 . S
C464 C439 1.395 . S
C464 C441 1.391 . S
H465 C425 0.951 . S
H466 C426 0.950 . S
H467 C432 0.949 . S
H468 C433 0.950 . S
H469 C437 0.951 . S
H470 C438 0.950 . S
H471 C442 0.949 . S
H472 C443 0.950 . S
H473 C447 0.950 . S
H474 C449 0.950 . S
H475 C452 0.950 . S
H476 C454 0.950 . S
C477 C478 1.443 . S
C477 N481 1.376 . S
C477 C515 1.389 . S
C478 C477 1.443 . S
C478 C479 1.340 . S
C478 H518 0.951 . S
C479 C478 1.340 . S
C479 C480 1.439 . S
C479 H519 0.950 . S
C480 C479 1.439 . S
C480 N481 1.374 . S
C480 C514 1.395 . S
N481 C477 1.376 . S
N481 C480 1.374 . S
N481 Co482 2.008 . S
Co482 N481 2.008 . S
Co482 N483 1.995 . S
Co482 N488 2.008 . S
Co482 N493 1.995 . S
Co482 N498 2.282 . S
Co482 N504 2.282 . S
N483 Co482 1.995 . S
N483 C484 1.376 . S
N483 C487 1.383 . S
C484 N483 1.376 . S
C484 C485 1.446 . S
C484 C514 1.391 . S
C485 C484 1.446 . S
C485 C486 1.339 . S
C485 H520 0.949 . S
C486 C485 1.339 . S
C486 C487 1.439 . S
C486 H521 0.950 . S
C487 N483 1.383 . S
C487 C486 1.439 . S
C487 C516 1.392 . S
N488 Co482 2.008 . S
N488 C489 1.376 . S
N488 C492 1.374 . S
C489 N488 1.376 . S
C489 C490 1.443 . S
C489 C516 1.389 . S
C490 C489 1.443 . S
C490 C491 1.340 . S
C490 H522 0.951 . S
C491 C490 1.340 . S
C491 C492 1.439 . S
C491 H523 0.950 . S
C492 N488 1.374 . S
C492 C491 1.439 . S
C492 C517 1.395 . S
N493 Co482 1.995 . S
N493 C494 1.376 . S
N493 C497 1.383 . S
C494 N493 1.376 . S
C494 C495 1.446 . S
C494 C517 1.391 . S
C495 C494 1.446 . S
C495 C496 1.339 . S
C495 H524 0.949 . S
C496 C495 1.339 . S
C496 C497 1.439 . S
C496 H525 0.950 . S
C497 N493 1.383 . S
C497 C496 1.439 . S
C497 C515 1.392 . S
N498 Co482 2.282 . S
N498 C501 1.332 . S
N498 C503 1.332 . S
C499 C500 1.386 . S
C499 C502 1.388 . S
C500 C499 1.386 . S
C500 C501 1.382 . S
C500 H526 0.950 . S
C501 N498 1.332 . S
C501 C500 1.382 . S
C501 H512 0.952 . S
C502 C499 1.388 . S
C502 C503 1.382 . S
C502 H527 0.950 . S
C503 N498 1.332 . S
C503 C502 1.382 . S
C503 H513 0.948 . S
N504 Co482 2.282 . S
N504 C508 1.332 . S
N504 C509 1.332 . S
C505 C506 1.388 . S
C505 C509 1.382 . S
C505 H528 0.950 . S
C506 C505 1.388 . S
C506 C507 1.386 . S
C507 C506 1.386 . S
C507 C508 1.382 . S
C507 H529 0.950 . S
C508 N504 1.332 . S
C508 C507 1.382 . S
C508 H510 0.952 . S
C509 N504 1.332 . S
C509 C505 1.382 . S
C509 H511 0.948 . S
H510 C508 0.952 . S
H511 C509 0.948 . S
H512 C501 0.952 . S
H513 C503 0.948 . S
C514 C480 1.395 . S
C514 C484 1.391 . S
C515 C477 1.389 . S
C515 C497 1.392 . S
C516 C487 1.392 . S
C516 C489 1.389 . S
C517 C492 1.395 . S
C517 C494 1.391 . S
H518 C478 0.951 . S
H519 C479 0.950 . S
H520 C485 0.949 . S
H521 C486 0.950 . S
H522 C490 0.951 . S
H523 C491 0.950 . S
H524 C495 0.949 . S
H525 C496 0.950 . S
H526 C500 0.950 . S
H527 C502 0.950 . S
H528 C505 0.950 . S
H529 C507 0.950 . S
C530 C531 1.443 . S
C530 N534 1.376 . S
C530 C568 1.389 . S
C531 C530 1.443 . S
C531 C532 1.340 . S
C531 H571 0.951 . S
C532 C531 1.340 . S
C532 C533 1.439 . S
C532 H572 0.950 . S
C533 C532 1.439 . S
C533 N534 1.374 . S
C533 C567 1.395 . S
N534 C530 1.376 . S
N534 C533 1.374 . S
N534 Co535 2.008 . S
Co535 N534 2.008 . S
Co535 N536 1.995 . S
Co535 N541 2.008 . S
Co535 N546 1.995 . S
Co535 N551 2.282 . S
Co535 N557 2.282 . S
N536 Co535 1.995 . S
N536 C537 1.376 . S
N536 C540 1.383 . S
C537 N536 1.376 . S
C537 C538 1.446 . S
C537 C567 1.391 . S
C538 C537 1.446 . S
C538 C539 1.339 . S
C538 H573 0.949 . S
C539 C538 1.339 . S
C539 C540 1.439 . S
C539 H574 0.950 . S
C540 N536 1.383 . S
C540 C539 1.439 . S
C540 C569 1.392 . S
N541 Co535 2.008 . S
N541 C542 1.376 . S
N541 C545 1.374 . S
C542 N541 1.376 . S
C542 C543 1.443 . S
C542 C569 1.389 . S
C543 C542 1.443 . S
C543 C544 1.340 . S
C543 H575 0.951 . S
C544 C543 1.340 . S
C544 C545 1.439 . S
C544 H576 0.950 . S
C545 N541 1.374 . S
C545 C544 1.439 . S
C545 C570 1.395 . S
N546 Co535 1.995 . S
N546 C547 1.376 . S
N546 C550 1.383 . S
C547 N546 1.376 . S
C547 C548 1.446 . S
C547 C570 1.391 . S
C548 C547 1.446 . S
C548 C549 1.339 . S
C548 H577 0.949 . S
C549 C548 1.339 . S
C549 C550 1.439 . S
C549 H578 0.950 . S
C550 N546 1.383 . S
C550 C549 1.439 . S
C550 C568 1.392 . S
N551 Co535 2.282 . S
N551 C554 1.332 . S
N551 C556 1.332 . S
C552 C553 1.386 . S
C552 C555 1.388 . S
C553 C552 1.386 . S
C553 C554 1.382 . S
C553 H579 0.950 . S
C554 N551 1.332 . S
C554 C553 1.382 . S
C554 H565 0.952 . S
C555 C552 1.388 . S
C555 C556 1.382 . S
C555 H580 0.950 . S
C556 N551 1.332 . S
C556 C555 1.382 . S
C556 H566 0.948 . S
N557 Co535 2.282 . S
N557 C561 1.332 . S
N557 C562 1.332 . S
C558 C559 1.388 . S
C558 C562 1.382 . S
C558 H581 0.950 . S
C559 C558 1.388 . S
C559 C560 1.386 . S
C560 C559 1.386 . S
C560 C561 1.382 . S
C560 H582 0.950 . S
C561 N557 1.332 . S
C561 C560 1.382 . S
C561 H563 0.952 . S
C562 N557 1.332 . S
C562 C558 1.382 . S
C562 H564 0.948 . S
H563 C561 0.952 . S
H564 C562 0.948 . S
H565 C554 0.952 . S
H566 C556 0.948 . S
C567 C533 1.395 . S
C567 C537 1.391 . S
C568 C530 1.389 . S
C568 C550 1.392 . S
C569 C540 1.392 . S
C569 C542 1.389 . S
C570 C545 1.395 . S
C570 C547 1.391 . S
H571 C531 0.951 . S
H572 C532 0.950 . S
H573 C538 0.949 . S
H574 C539 0.950 . S
H575 C543 0.951 . S
H576 C544 0.950 . S
H577 C548 0.949 . S
H578 C549 0.950 . S
H579 C553 0.950 . S
H580 C555 0.950 . S
H581 C558 0.950 . S
H582 C560 0.950 . S
C583 C584 1.443 . S
C583 N587 1.376 . S
C583 C621 1.389 . S
C584 C583 1.443 . S
C584 C585 1.340 . S
C584 H624 0.951 . S
C585 C584 1.340 . S
C585 C586 1.439 . S
C585 H625 0.950 . S
C586 C585 1.439 . S
C586 N587 1.374 . S
C586 C620 1.395 . S
N587 C583 1.376 . S
N587 C586 1.374 . S
N587 Co588 2.008 . S
Co588 N587 2.008 . S
Co588 N589 1.995 . S
Co588 N594 2.008 . S
Co588 N599 1.995 . S
Co588 N604 2.282 . S
Co588 N610 2.282 . S
N589 Co588 1.995 . S
N589 C590 1.376 . S
N589 C593 1.383 . S
C590 N589 1.376 . S
C590 C591 1.446 . S
C590 C620 1.391 . S
C591 C590 1.446 . S
C591 C592 1.339 . S
C591 H626 0.949 . S
C592 C591 1.339 . S
C592 C593 1.439 . S
C592 H627 0.950 . S
C593 N589 1.383 . S
C593 C592 1.439 . S
C593 C622 1.392 . S
N594 Co588 2.008 . S
N594 C595 1.376 . S
N594 C598 1.374 . S
C595 N594 1.376 . S
C595 C596 1.443 . S
C595 C622 1.389 . S
C596 C595 1.443 . S
C596 C597 1.340 . S
C596 H628 0.951 . S
C597 C596 1.340 . S
C597 C598 1.439 . S
C597 H629 0.950 . S
C598 N594 1.374 . S
C598 C597 1.439 . S
C598 C623 1.395 . S
N599 Co588 1.995 . S
N599 C600 1.376 . S
N599 C603 1.383 . S
C600 N599 1.376 . S
C600 C601 1.446 . S
C600 C623 1.391 . S
C601 C600 1.446 . S
C601 C602 1.339 . S
C601 H630 0.949 . S
C602 C601 1.339 . S
C602 C603 1.439 . S
C602 H631 0.950 . S
C603 N599 1.383 . S
C603 C602 1.439 . S
C603 C621 1.392 . S
N604 Co588 2.282 . S
N604 C607 1.332 . S
N604 C609 1.332 . S
C605 C606 1.386 . S
C605 C608 1.388 . S
C606 C605 1.386 . S
C606 C607 1.382 . S
C606 H632 0.950 . S
C607 N604 1.332 . S
C607 C606 1.382 . S
C607 H618 0.952 . S
C608 C605 1.388 . S
C608 C609 1.382 . S
C608 H633 0.950 . S
C609 N604 1.332 . S
C609 C608 1.382 . S
C609 H619 0.948 . S
N610 Co588 2.282 . S
N610 C614 1.332 . S
N610 C615 1.332 . S
C611 C612 1.388 . S
C611 C615 1.382 . S
C611 H634 0.950 . S
C612 C611 1.388 . S
C612 C613 1.386 . S
C613 C612 1.386 . S
C613 C614 1.382 . S
C613 H635 0.950 . S
C614 N610 1.332 . S
C614 C613 1.382 . S
C614 H616 0.952 . S
C615 N610 1.332 . S
C615 C611 1.382 . S
C615 H617 0.948 . S
H616 C614 0.952 . S
H617 C615 0.948 . S
H618 C607 0.952 . S
H619 C609 0.948 . S
C620 C586 1.395 . S
C620 C590 1.391 . S
C621 C583 1.389 . S
C621 C603 1.392 . S
C622 C593 1.392 . S
C622 C595 1.389 . S
C623 C598 1.395 . S
C623 C600 1.391 . S
H624 C584 0.951 . S
H625 C585 0.950 . S
H626 C591 0.949 . S
H627 C592 0.950 . S
H628 C596 0.951 . S
H629 C597 0.950 . S
H630 C601 0.949 . S
H631 C602 0.950 . S
H632 C606 0.950 . S
H633 C608 0.950 . S
H634 C611 0.950 . S
H635 C613 0.950 . S
C636 C637 1.443 . S
C636 N640 1.376 . S
C636 C674 1.389 . S
C637 C636 1.443 . S
C637 C638 1.340 . S
C637 H677 0.951 . S
C638 C637 1.340 . S
C638 C639 1.439 . S
C638 H678 0.950 . S
C639 C638 1.439 . S
C639 N640 1.374 . S
C639 C673 1.395 . S
N640 C636 1.376 . S
N640 C639 1.374 . S
N640 Co641 2.008 . S
Co641 N640 2.008 . S
Co641 N642 1.995 . S
Co641 N647 2.008 . S
Co641 N652 1.995 . S
Co641 N657 2.282 . S
Co641 N663 2.282 . S
N642 Co641 1.995 . S
N642 C643 1.376 . S
N642 C646 1.383 . S
C643 N642 1.376 . S
C643 C644 1.446 . S
C643 C673 1.391 . S
C644 C643 1.446 . S
C644 C645 1.339 . S
C644 H679 0.949 . S
C645 C644 1.339 . S
C645 C646 1.439 . S
C645 H680 0.950 . S
C646 N642 1.383 . S
C646 C645 1.439 . S
C646 C675 1.392 . S
N647 Co641 2.008 . S
N647 C648 1.376 . S
N647 C651 1.374 . S
C648 N647 1.376 . S
C648 C649 1.443 . S
C648 C675 1.389 . S
C649 C648 1.443 . S
C649 C650 1.340 . S
C649 H681 0.951 . S
C650 C649 1.340 . S
C650 C651 1.439 . S
C650 H682 0.950 . S
C651 N647 1.374 . S
C651 C650 1.439 . S
C651 C676 1.395 . S
N652 Co641 1.995 . S
N652 C653 1.376 . S
N652 C656 1.383 . S
C653 N652 1.376 . S
C653 C654 1.446 . S
C653 C676 1.391 . S
C654 C653 1.446 . S
C654 C655 1.339 . S
C654 H683 0.949 . S
C655 C654 1.339 . S
C655 C656 1.439 . S
C655 H684 0.950 . S
C656 N652 1.383 . S
C656 C655 1.439 . S
C656 C674 1.392 . S
N657 Co641 2.282 . S
N657 C660 1.332 . S
N657 C662 1.332 . S
C658 C659 1.386 . S
C658 C661 1.388 . S
C659 C658 1.386 . S
C659 C660 1.382 . S
C659 H685 0.950 . S
C660 N657 1.332 . S
C660 C659 1.382 . S
C660 H671 0.952 . S
C661 C658 1.388 . S
C661 C662 1.382 . S
C661 H686 0.950 . S
C662 N657 1.332 . S
C662 C661 1.382 . S
C662 H672 0.948 . S
N663 Co641 2.282 . S
N663 C667 1.332 . S
N663 C668 1.332 . S
C664 C665 1.388 . S
C664 C668 1.382 . S
C664 H687 0.950 . S
C665 C664 1.388 . S
C665 C666 1.386 . S
C666 C665 1.386 . S
C666 C667 1.382 . S
C666 H688 0.950 . S
C667 N663 1.332 . S
C667 C666 1.382 . S
C667 H669 0.952 . S
C668 N663 1.332 . S
C668 C664 1.382 . S
C668 H670 0.948 . S
H669 C667 0.952 . S
H670 C668 0.948 . S
H671 C660 0.952 . S
H672 C662 0.948 . S
C673 C639 1.395 . S
C673 C643 1.391 . S
C674 C636 1.389 . S
C674 C656 1.392 . S
C675 C646 1.392 . S
C675 C648 1.389 . S
C676 C651 1.395 . S
C676 C653 1.391 . S
H677 C637 0.951 . S
H678 C638 0.950 . S
H679 C644 0.949 . S
H680 C645 0.950 . S
H681 C649 0.951 . S
H682 C650 0.950 . S
H683 C654 0.949 . S
H684 C655 0.950 . S
H685 C659 0.950 . S
H686 C661 0.950 . S
H687 C664 0.950 . S
H688 C666 0.950 . S
C689 C690 1.443 . S
C689 N693 1.376 . S
C689 C727 1.389 . S
C690 C689 1.443 . S
C690 C691 1.340 . S
C690 H730 0.951 . S
C691 C690 1.340 . S
C691 C692 1.439 . S
C691 H731 0.950 . S
C692 C691 1.439 . S
C692 N693 1.374 . S
C692 C726 1.395 . S
N693 C689 1.376 . S
N693 C692 1.374 . S
N693 Co694 2.008 . S
Co694 N693 2.008 . S
Co694 N695 1.995 . S
Co694 N700 2.008 . S
Co694 N705 1.995 . S
Co694 N710 2.282 . S
Co694 N716 2.282 . S
N695 Co694 1.995 . S
N695 C696 1.376 . S
N695 C699 1.383 . S
C696 N695 1.376 . S
C696 C697 1.446 . S
C696 C726 1.391 . S
C697 C696 1.446 . S
C697 C698 1.339 . S
C697 H732 0.949 . S
C698 C697 1.339 . S
C698 C699 1.439 . S
C698 H733 0.950 . S
C699 N695 1.383 . S
C699 C698 1.439 . S
C699 C728 1.392 . S
N700 Co694 2.008 . S
N700 C701 1.376 . S
N700 C704 1.374 . S
C701 N700 1.376 . S
C701 C702 1.443 . S
C701 C728 1.389 . S
C702 C701 1.443 . S
C702 C703 1.340 . S
C702 H734 0.951 . S
C703 C702 1.340 . S
C703 C704 1.439 . S
C703 H735 0.950 . S
C704 N700 1.374 . S
C704 C703 1.439 . S
C704 C729 1.395 . S
N705 Co694 1.995 . S
N705 C706 1.376 . S
N705 C709 1.383 . S
C706 N705 1.376 . S
C706 C707 1.446 . S
C706 C729 1.391 . S
C707 C706 1.446 . S
C707 C708 1.339 . S
C707 H736 0.949 . S
C708 C707 1.339 . S
C708 C709 1.439 . S
C708 H737 0.950 . S
C709 N705 1.383 . S
C709 C708 1.439 . S
C709 C727 1.392 . S
N710 Co694 2.282 . S
N710 C713 1.332 . S
N710 C715 1.332 . S
C711 C712 1.386 . S
C711 C714 1.388 . S
C712 C711 1.386 . S
C712 C713 1.382 . S
C712 H738 0.950 . S
C713 N710 1.332 . S
C713 C712 1.382 . S
C713 H724 0.952 . S
C714 C711 1.388 . S
C714 C715 1.382 . S
C714 H739 0.950 . S
C715 N710 1.332 . S
C715 C714 1.382 . S
C715 H725 0.948 . S
N716 Co694 2.282 . S
N716 C720 1.332 . S
N716 C721 1.332 . S
C717 C718 1.388 . S
C717 C721 1.382 . S
C717 H740 0.950 . S
C718 C717 1.388 . S
C718 C719 1.386 . S
C719 C718 1.386 . S
C719 C720 1.382 . S
C719 H741 0.950 . S
C720 N716 1.332 . S
C720 C719 1.382 . S
C720 H722 0.952 . S
C721 N716 1.332 . S
C721 C717 1.382 . S
C721 H723 0.948 . S
H722 C720 0.952 . S
H723 C721 0.948 . S
H724 C713 0.952 . S
H725 C715 0.948 . S
C726 C692 1.395 . S
C726 C696 1.391 . S
C727 C689 1.389 . S
C727 C709 1.392 . S
C728 C699 1.392 . S
C728 C701 1.389 . S
C729 C704 1.395 . S
C729 C706 1.391 . S
H730 C690 0.951 . S
H731 C691 0.950 . S
H732 C697 0.949 . S
H733 C698 0.950 . S
H734 C702 0.951 . S
H735 C703 0.950 . S
H736 C707 0.949 . S
H737 C708 0.950 . S
H738 C712 0.950 . S
H739 C714 0.950 . S
H740 C717 0.950 . S
H741 C719 0.950 . S
C742 C743 1.443 . S
C742 N746 1.376 . S
C742 C780 1.389 . S
C743 C742 1.443 . S
C743 C744 1.340 . S
C743 H783 0.951 . S
C744 C743 1.340 . S
C744 C745 1.439 . S
C744 H784 0.950 . S
C745 C744 1.439 . S
C745 N746 1.374 . S
C745 C779 1.395 . S
N746 C742 1.376 . S
N746 C745 1.374 . S
N746 Co747 2.008 . S
Co747 N746 2.008 . S
Co747 N748 1.995 . S
Co747 N753 2.008 . S
Co747 N758 1.995 . S
Co747 N763 2.282 . S
Co747 N769 2.282 . S
N748 Co747 1.995 . S
N748 C749 1.376 . S
N748 C752 1.383 . S
C749 N748 1.376 . S
C749 C750 1.446 . S
C749 C779 1.391 . S
C750 C749 1.446 . S
C750 C751 1.339 . S
C750 H785 0.949 . S
C751 C750 1.339 . S
C751 C752 1.439 . S
C751 H786 0.950 . S
C752 N748 1.383 . S
C752 C751 1.439 . S
C752 C781 1.392 . S
N753 Co747 2.008 . S
N753 C754 1.376 . S
N753 C757 1.374 . S
C754 N753 1.376 . S
C754 C755 1.443 . S
C754 C781 1.389 . S
C755 C754 1.443 . S
C755 C756 1.340 . S
C755 H787 0.951 . S
C756 C755 1.340 . S
C756 C757 1.439 . S
C756 H788 0.950 . S
C757 N753 1.374 . S
C757 C756 1.439 . S
C757 C782 1.395 . S
N758 Co747 1.995 . S
N758 C759 1.376 . S
N758 C762 1.383 . S
C759 N758 1.376 . S
C759 C760 1.446 . S
C759 C782 1.391 . S
C760 C759 1.446 . S
C760 C761 1.339 . S
C760 H789 0.949 . S
C761 C760 1.339 . S
C761 C762 1.439 . S
C761 H790 0.950 . S
C762 N758 1.383 . S
C762 C761 1.439 . S
C762 C780 1.392 . S
N763 Co747 2.282 . S
N763 C766 1.332 . S
N763 C768 1.332 . S
C764 C765 1.386 . S
C764 C767 1.388 . S
C765 C764 1.386 . S
C765 C766 1.382 . S
C765 H791 0.950 . S
C766 N763 1.332 . S
C766 C765 1.382 . S
C766 H777 0.952 . S
C767 C764 1.388 . S
C767 C768 1.382 . S
C767 H792 0.950 . S
C768 N763 1.332 . S
C768 C767 1.382 . S
C768 H778 0.948 . S
N769 Co747 2.282 . S
N769 C773 1.332 . S
N769 C774 1.332 . S
C770 C771 1.388 . S
C770 C774 1.382 . S
C770 H793 0.950 . S
C771 C770 1.388 . S
C771 C772 1.386 . S
C772 C771 1.386 . S
C772 C773 1.382 . S
C772 H794 0.950 . S
C773 N769 1.332 . S
C773 C772 1.382 . S
C773 H775 0.952 . S
C774 N769 1.332 . S
C774 C770 1.382 . S
C774 H776 0.948 . S
H775 C773 0.952 . S
H776 C774 0.948 . S
H777 C766 0.952 . S
H778 C768 0.948 . S
C779 C745 1.395 . S
C779 C749 1.391 . S
C780 C742 1.389 . S
C780 C762 1.392 . S
C781 C752 1.392 . S
C781 C754 1.389 . S
C782 C757 1.395 . S
C782 C759 1.391 . S
H783 C743 0.951 . S
H784 C744 0.950 . S
H785 C750 0.949 . S
H786 C751 0.950 . S
H787 C755 0.951 . S
H788 C756 0.950 . S
H789 C760 0.949 . S
H790 C761 0.950 . S
H791 C765 0.950 . S
H792 C767 0.950 . S
H793 C770 0.950 . S
H794 C772 0.950 . S
C795 C796 1.443 . S
C795 N799 1.376 . S
C795 C833 1.389 . S
C796 C795 1.443 . S
C796 C797 1.340 . S
C796 H836 0.951 . S
C797 C796 1.340 . S
C797 C798 1.439 . S
C797 H837 0.950 . S
C798 C797 1.439 . S
C798 N799 1.374 . S
C798 C832 1.395 . S
N799 C795 1.376 . S
N799 C798 1.374 . S
N799 Co800 2.008 . S
Co800 N799 2.008 . S
Co800 N801 1.995 . S
Co800 N806 2.008 . S
Co800 N811 1.995 . S
Co800 N816 2.282 . S
Co800 N822 2.282 . S
N801 Co800 1.995 . S
N801 C802 1.376 . S
N801 C805 1.383 . S
C802 N801 1.376 . S
C802 C803 1.446 . S
C802 C832 1.391 . S
C803 C802 1.446 . S
C803 C804 1.339 . S
C803 H838 0.949 . S
C804 C803 1.339 . S
C804 C805 1.439 . S
C804 H839 0.950 . S
C805 N801 1.383 . S
C805 C804 1.439 . S
C805 C834 1.392 . S
N806 Co800 2.008 . S
N806 C807 1.376 . S
N806 C810 1.374 . S
C807 N806 1.376 . S
C807 C808 1.443 . S
C807 C834 1.389 . S
C808 C807 1.443 . S
C808 C809 1.340 . S
C808 H840 0.951 . S
C809 C808 1.340 . S
C809 C810 1.439 . S
C809 H841 0.950 . S
C810 N806 1.374 . S
C810 C809 1.439 . S
C810 C835 1.395 . S
N811 Co800 1.995 . S
N811 C812 1.376 . S
N811 C815 1.383 . S
C812 N811 1.376 . S
C812 C813 1.446 . S
C812 C835 1.391 . S
C813 C812 1.446 . S
C813 C814 1.339 . S
C813 H842 0.949 . S
C814 C813 1.339 . S
C814 C815 1.439 . S
C814 H843 0.950 . S
C815 N811 1.383 . S
C815 C814 1.439 . S
C815 C833 1.392 . S
N816 Co800 2.282 . S
N816 C819 1.332 . S
N816 C821 1.332 . S
C817 C818 1.386 . S
C817 C820 1.388 . S
C818 C817 1.386 . S
C818 C819 1.382 . S
C818 H844 0.950 . S
C819 N816 1.332 . S
C819 C818 1.382 . S
C819 H830 0.952 . S
C820 C817 1.388 . S
C820 C821 1.382 . S
C820 H845 0.950 . S
C821 N816 1.332 . S
C821 C820 1.382 . S
C821 H831 0.948 . S
N822 Co800 2.282 . S
N822 C826 1.332 . S
N822 C827 1.332 . S
C823 C824 1.388 . S
C823 C827 1.382 . S
C823 H846 0.950 . S
C824 C823 1.388 . S
C824 C825 1.386 . S
C825 C824 1.386 . S
C825 C826 1.382 . S
C825 H847 0.950 . S
C826 N822 1.332 . S
C826 C825 1.382 . S
C826 H828 0.952 . S
C827 N822 1.332 . S
C827 C823 1.382 . S
C827 H829 0.948 . S
H828 C826 0.952 . S
H829 C827 0.948 . S
H830 C819 0.952 . S
H831 C821 0.948 . S
C832 C798 1.395 . S
C832 C802 1.391 . S
C833 C795 1.389 . S
C833 C815 1.392 . S
C834 C805 1.392 . S
C834 C807 1.389 . S
C835 C810 1.395 . S
C835 C812 1.391 . S
H836 C796 0.951 . S
H837 C797 0.950 . S
H838 C803 0.949 . S
H839 C804 0.950 . S
H840 C808 0.951 . S
H841 C809 0.950 . S
H842 C813 0.949 . S
H843 C814 0.950 . S
H844 C818 0.950 . S
H845 C820 0.950 . S
H846 C823 0.950 . S
H847 C825 0.950 . S
H848 C854 0.930 . S
H849 C857 0.930 . S
H850 C858 0.930 . S
H851 C859 0.930 . S
H852 C862 0.930 . S
H853 C863 0.930 . S
C854 H848 0.930 . S
C854 C855 1.355 . S
C854 C856 1.415 . S
C855 C854 1.355 . S
C855 C857 1.419 . S
C856 C854 1.415 . S
C856 C861 1.425 . S
C856 C863 1.409 . S
C857 H849 0.930 . S
C857 C855 1.419 . S
C857 C858 1.362 . S
C858 H850 0.930 . S
C858 C857 1.362 . S
C858 C861 1.409 . S
C859 H851 0.930 . S
C859 C860 1.355 . S
C859 C861 1.415 . S
C860 C859 1.355 . S
C860 C862 1.419 . S
C861 C856 1.425 . S
C861 C858 1.409 . S
C861 C859 1.415 . S
C862 H852 0.930 . S
C862 C860 1.419 . S
C862 C863 1.362 . S
C863 H853 0.930 . S
C863 C856 1.409 . S
C863 C862 1.362 . S
H864 C870 0.930 . S
H865 C873 0.930 . S
H866 C874 0.930 . S
H867 C875 0.930 . S
H868 C878 0.930 . S
H869 C879 0.930 . S
C870 H864 0.930 . S
C870 C871 1.355 . S
C870 C872 1.415 . S
C871 C870 1.355 . S
C871 C873 1.419 . S
C872 C870 1.415 . S
C872 C877 1.425 . S
C872 C879 1.409 . S
C873 H865 0.930 . S
C873 C871 1.419 . S
C873 C874 1.362 . S
C874 H866 0.930 . S
C874 C873 1.362 . S
C874 C877 1.409 . S
C875 H867 0.930 . S
C875 C876 1.355 . S
C875 C877 1.415 . S
C876 C875 1.355 . S
C876 C878 1.419 . S
C877 C872 1.425 . S
C877 C874 1.409 . S
C877 C875 1.415 . S
C878 H868 0.930 . S
C878 C876 1.419 . S
C878 C879 1.362 . S
C879 H869 0.930 . S
C879 C872 1.409 . S
C879 C878 1.362 . S
H880 C886 0.930 . S
H881 C889 0.930 . S
H882 C890 0.930 . S
H883 C891 0.930 . S
H884 C894 0.930 . S
H885 C895 0.930 . S
C886 H880 0.930 . S
C886 C887 1.355 . S
C886 C888 1.415 . S
C887 C886 1.355 . S
C887 C889 1.419 . S
C888 C886 1.415 . S
C888 C893 1.425 1_554 S
C888 C895 1.409 1_554 S
C889 H881 0.930 . S
C889 C887 1.419 . S
C889 C890 1.362 . S
C890 H882 0.930 . S
C890 C889 1.362 . S
C890 C893 1.409 1_554 S
C891 H883 0.930 . S
C891 C892 1.355 . S
C891 C893 1.415 . S
C892 C891 1.355 . S
C892 C894 1.419 . S
C893 C888 1.425 1_556 S
C893 C890 1.409 1_556 S
C893 C891 1.415 . S
C894 H884 0.930 . S
C894 C892 1.419 . S
C894 C895 1.362 . S
C895 H885 0.930 . S
C895 C888 1.409 1_556 S
C895 C894 1.362 . S
H896 C902 0.930 . S
H897 C905 0.930 . S
H898 C906 0.930 . S
H899 C907 0.930 . S
H900 C910 0.930 . S
H901 C911 0.930 . S
C902 H896 0.930 . S
C902 C903 1.355 . S
C902 C904 1.415 . S
C903 C902 1.355 . S
C903 C905 1.419 . S
C904 C902 1.415 . S
C904 C909 1.425 1_556 S
C904 C911 1.409 1_556 S
C905 H897 0.930 . S
C905 C903 1.419 . S
C905 C906 1.362 . S
C906 H898 0.930 . S
C906 C905 1.362 . S
C906 C909 1.409 1_556 S
C907 H899 0.930 . S
C907 C908 1.355 . S
C907 C909 1.415 . S
C908 C907 1.355 . S
C908 C910 1.419 . S
C909 C904 1.425 1_554 S
C909 C906 1.409 1_554 S
C909 C907 1.415 . S
C910 H900 0.930 . S
C910 C908 1.419 . S
C910 C911 1.362 . S
C911 H901 0.930 . S
C911 C904 1.409 1_554 S
C911 C910 1.362 . S
H912 C918 0.930 . S
H913 C921 0.930 . S
H914 C922 0.930 . S
H915 C923 0.930 . S
H916 C926 0.930 . S
H917 C927 0.930 . S
C918 H912 0.930 . S
C918 C919 1.355 . S
C918 C920 1.415 . S
C919 C918 1.355 . S
C919 C921 1.419 . S
C920 C918 1.415 . S
C920 C925 1.425 . S
C920 C927 1.409 . S
C921 H913 0.930 . S
C921 C919 1.419 . S
C921 C922 1.362 . S
C922 H914 0.930 . S
C922 C921 1.362 . S
C922 C925 1.409 . S
C923 H915 0.930 . S
C923 C924 1.355 . S
C923 C925 1.415 . S
C924 C923 1.355 . S
C924 C926 1.419 . S
C925 C920 1.425 . S
C925 C922 1.409 . S
C925 C923 1.415 . S
C926 H916 0.930 . S
C926 C924 1.419 . S
C926 C927 1.362 . S
C927 H917 0.930 . S
C927 C920 1.409 . S
C927 C926 1.362 . S
H928 C934 0.930 . S
H929 C937 0.930 . S
H930 C938 0.930 . S
H931 C939 0.930 . S
H932 C942 0.930 . S
H933 C943 0.930 . S
C934 H928 0.930 . S
C934 C935 1.355 . S
C934 C936 1.415 . S
C935 C934 1.355 . S
C935 C937 1.419 . S
C936 C934 1.415 . S
C936 C941 1.425 . S
C936 C943 1.409 . S
C937 H929 0.930 . S
C937 C935 1.419 . S
C937 C938 1.362 . S
C938 H930 0.930 . S
C938 C937 1.362 . S
C938 C941 1.409 . S
C939 H931 0.930 . S
C939 C940 1.355 . S
C939 C941 1.415 . S
C940 C939 1.355 . S
C940 C942 1.419 . S
C941 C936 1.425 . S
C941 C938 1.409 . S
C941 C939 1.415 . S
C942 H932 0.930 . S
C942 C940 1.419 . S
C942 C943 1.362 . S
C943 H933 0.930 . S
C943 C936 1.409 . S
C943 C942 1.362 . S
H944 C950 0.930 . S
H945 C953 0.930 . S
H946 C954 0.930 . S
H947 C955 0.930 . S
H948 C958 0.930 . S
H949 C959 0.930 . S
C950 H944 0.930 . S
C950 C951 1.355 . S
C950 C952 1.415 . S
C951 C950 1.355 . S
C951 C953 1.419 . S
C952 C950 1.415 . S
C952 C957 1.425 1_556 S
C952 C959 1.409 1_556 S
C953 H945 0.930 . S
C953 C951 1.419 . S
C953 C954 1.362 . S
C954 H946 0.930 . S
C954 C953 1.362 . S
C954 C957 1.409 1_556 S
C955 H947 0.930 . S
C955 C956 1.355 . S
C955 C957 1.415 . S
C956 C955 1.355 . S
C956 C958 1.419 . S
C957 C952 1.425 1_554 S
C957 C954 1.409 1_554 S
C957 C955 1.415 . S
C958 H948 0.930 . S
C958 C956 1.419 . S
C958 C959 1.362 . S
C959 H949 0.930 . S
C959 C952 1.409 1_554 S
C959 C958 1.362 . S
H960 C966 0.930 . S
H961 C969 0.930 . S
H962 C970 0.930 . S
H963 C971 0.930 . S
H964 C974 0.930 . S
H965 C975 0.930 . S
C966 H960 0.930 . S
C966 C967 1.355 . S
C966 C968 1.415 . S
C967 C966 1.355 . S
C967 C969 1.419 . S
C968 C966 1.415 . S
C968 C973 1.425 1_554 S
C968 C975 1.409 1_554 S
C969 H961 0.930 . S
C969 C967 1.419 . S
C969 C970 1.362 . S
C970 H962 0.930 . S
C970 C969 1.362 . S
C970 C973 1.409 1_554 S
C971 H963 0.930 . S
C971 C972 1.355 . S
C971 C973 1.415 . S
C972 C971 1.355 . S
C972 C974 1.419 . S
C973 C968 1.425 1_556 S
C973 C970 1.409 1_556 S
C973 C971 1.415 . S
C974 H964 0.930 . S
C974 C972 1.419 . S
C974 C975 1.362 . S
C975 H965 0.930 . S
C975 C968 1.409 1_556 S
C975 C974 1.362 . S
H976 C982 0.930 . S
H977 C985 0.930 . S
H978 C986 0.930 . S
H979 C987 0.930 . S
H980 C990 0.930 . S
H981 C991 0.930 . S
C982 H976 0.930 . S
C982 C983 1.355 . S
C982 C984 1.415 . S
C983 C982 1.355 . S
C983 C985 1.419 . S
C984 C982 1.415 . S
C984 C989 1.425 1_565 S
C984 C991 1.409 1_565 S
C985 H977 0.930 . S
C985 C983 1.419 . S
C985 C986 1.362 . S
C986 H978 0.930 . S
C986 C985 1.362 . S
C986 C989 1.409 1_565 S
C987 H979 0.930 . S
C987 C988 1.355 . S
C987 C989 1.415 . S
C988 C987 1.355 . S
C988 C990 1.419 . S
C989 C984 1.425 1_545 S
C989 C986 1.409 1_545 S
C989 C987 1.415 . S
C990 H980 0.930 . S
C990 C988 1.419 . S
C990 C991 1.362 . S
C991 H981 0.930 . S
C991 C984 1.409 1_545 S
C991 C990 1.362 . S
H992 C998 0.930 . S
H993 C1001 0.930 . S
H994 C1002 0.930 . S
H995 C1003 0.930 . S
H996 C1006 0.930 . S
H997 C1007 0.930 . S
C998 H992 0.930 . S
C998 C999 1.355 1_545 S
C998 C1000 1.415 . S
C999 C998 1.355 1_565 S
C999 C1001 1.419 . S
C1000 C998 1.415 . S
C1000 C1005 1.425 1_545 S
C1000 C1007 1.409 . S
C1001 H993 0.930 . S
C1001 C999 1.419 . S
C1001 C1002 1.362 . S
C1002 H994 0.930 . S
C1002 C1001 1.362 . S
C1002 C1005 1.409 . S
C1003 H995 0.930 . S
C1003 C1004 1.355 1_565 S
C1003 C1005 1.415 . S
C1004 C1003 1.355 1_545 S
C1004 C1006 1.419 . S
C1005 C1000 1.425 1_565 S
C1005 C1002 1.409 . S
C1005 C1003 1.415 . S
C1006 H996 0.930 . S
C1006 C1004 1.419 . S
C1006 C1007 1.362 . S
C1007 H997 0.930 . S
C1007 C1000 1.409 . S
C1007 C1006 1.362 . S
H1008 C1014 0.930 . S
H1009 C1017 0.930 . S
H1010 C1018 0.930 . S
H1011 C1019 0.930 . S
H1012 C1022 0.930 . S
H1013 C1023 0.930 . S
C1014 H1008 0.930 . S
C1014 C1015 1.355 . S
C1014 C1016 1.415 . S
C1015 C1014 1.355 . S
C1015 C1017 1.419 1_565 S
C1016 C1014 1.415 . S
C1016 C1021 1.425 1_565 S
C1016 C1023 1.409 . S
C1017 H1009 0.930 . S
C1017 C1015 1.419 1_545 S
C1017 C1018 1.362 . S
C1018 H1010 0.930 . S
C1018 C1017 1.362 . S
C1018 C1021 1.409 . S
C1019 H1011 0.930 . S
C1019 C1020 1.355 . S
C1019 C1021 1.415 . S
C1020 C1019 1.355 . S
C1020 C1022 1.419 1_545 S
C1021 C1016 1.425 1_545 S
C1021 C1018 1.409 . S
C1021 C1019 1.415 . S
C1022 H1012 0.930 . S
C1022 C1020 1.419 1_565 S
C1022 C1023 1.362 . S
C1023 H1013 0.930 . S
C1023 C1016 1.409 . S
C1023 C1022 1.362 . S
H1024 C1030 0.926 1_565 S
H1025 C1033 0.930 . S
H1026 C1034 0.930 . S
H1027 C1035 0.926 1_545 S
H1028 C1038 0.930 . S
H1029 C1039 0.930 . S
C1030 H1024 0.926 1_545 S
C1030 C1031 1.355 . S
C1030 C1032 1.415 1_545 S
C1031 C1030 1.355 . S
C1031 C1033 1.419 . S
C1032 C1030 1.415 1_565 S
C1032 C1037 1.425 1_565 S
C1032 C1039 1.409 . S
C1033 H1025 0.930 . S
C1033 C1031 1.419 . S
C1033 C1034 1.362 . S
C1034 H1026 0.930 . S
C1034 C1033 1.362 . S
C1034 C1037 1.409 . S
C1035 H1027 0.926 1_565 S
C1035 C1036 1.355 . S
C1035 C1037 1.415 1_565 S
C1036 C1035 1.355 . S
C1036 C1038 1.419 . S
C1037 C1032 1.425 1_545 S
C1037 C1034 1.409 . S
C1037 C1035 1.415 1_545 S
C1038 H1028 0.930 . S
C1038 C1036 1.419 . S
C1038 C1039 1.362 . S
C1039 H1029 0.930 . S
C1039 C1032 1.409 . S
C1039 C1038 1.362 . S
H1040 C1046 0.930 . S
H1041 C1049 0.930 . S
H1042 C1050 0.930 1_455 S
H1043 C1051 0.930 . S
H1044 C1054 0.930 . S
H1045 C1055 0.930 1_655 S
C1046 H1040 0.930 . S
C1046 C1047 1.355 . S
C1046 C1048 1.415 . S
C1047 C1046 1.355 . S
C1047 C1049 1.419 . S
C1048 C1046 1.415 . S
C1048 C1053 1.425 1_655 S
C1048 C1055 1.409 1_655 S
C1049 H1041 0.930 . S
C1049 C1047 1.419 . S
C1049 C1050 1.362 . S
C1050 H1042 0.930 1_655 S
C1050 C1049 1.362 . S
C1050 C1053 1.409 1_655 S
C1051 H1043 0.930 . S
C1051 C1052 1.355 . S
C1051 C1053 1.415 . S
C1052 C1051 1.355 . S
C1052 C1054 1.419 . S
C1053 C1048 1.425 1_455 S
C1053 C1050 1.409 1_455 S
C1053 C1051 1.415 . S
C1054 H1044 0.930 . S
C1054 C1052 1.419 . S
C1054 C1055 1.362 . S
C1055 H1045 0.930 1_455 S
C1055 C1048 1.409 1_455 S
C1055 C1054 1.362 . S
H1056 C1062 0.930 . S
H1057 C1065 0.930 . S
H1058 C1066 0.930 . S
H1059 C1067 0.930 . S
H1060 C1070 0.930 . S
H1061 C1071 0.930 . S
C1062 H1056 0.930 . S
C1062 C1063 1.355 . S
C1062 C1064 1.424 . S
C1063 C1062 1.355 . S
C1063 C1065 1.419 . S
C1064 C1062 1.424 . S
C1064 C1069 1.425 1_455 S
C1064 C1071 1.400 1_455 S
C1065 H1057 0.930 . S
C1065 C1063 1.419 . S
C1065 C1066 1.362 . S
C1066 H1058 0.930 . S
C1066 C1065 1.362 . S
C1066 C1069 1.400 1_455 S
C1067 H1059 0.930 . S
C1067 C1068 1.355 . S
C1067 C1069 1.424 . S
C1068 C1067 1.355 . S
C1068 C1070 1.419 . S
C1069 C1064 1.425 1_655 S
C1069 C1066 1.400 1_655 S
C1069 C1067 1.424 . S
C1070 H1060 0.930 . S
C1070 C1068 1.419 . S
C1070 C1071 1.362 . S
C1071 H1061 0.930 . S
C1071 C1064 1.400 1_655 S
C1071 C1070 1.362 . S
H1072 C1078 0.930 . S
H1073 C1081 0.930 . S
H1074 C1082 0.930 1_455 S
H1075 C1083 0.930 . S
H1076 C1086 0.930 . S
H1077 C1087 0.930 1_655 S
C1078 H1072 0.930 . S
C1078 C1079 1.355 . S
C1078 C1080 1.415 . S
C1079 C1078 1.355 . S
C1079 C1081 1.419 . S
C1080 C1078 1.415 . S
C1080 C1085 1.425 1_655 S
C1080 C1087 1.409 1_655 S
C1081 H1073 0.930 . S
C1081 C1079 1.419 . S
C1081 C1082 1.362 . S
C1082 H1074 0.930 1_655 S
C1082 C1081 1.362 . S
C1082 C1085 1.409 1_655 S
C1083 H1075 0.930 . S
C1083 C1084 1.355 . S
C1083 C1085 1.415 . S
C1084 C1083 1.355 . S
C1084 C1086 1.419 . S
C1085 C1080 1.425 1_455 S
C1085 C1082 1.409 1_455 S
C1085 C1083 1.415 . S
C1086 H1076 0.930 . S
C1086 C1084 1.419 . S
C1086 C1087 1.362 . S
C1087 H1077 0.930 1_455 S
C1087 C1080 1.409 1_455 S
C1087 C1086 1.362 . S
H1088 C1094 0.930 . S
H1089 C1097 0.930 . S
H1090 C1098 0.930 1_655 S
H1091 C1099 0.930 . S
H1092 C1102 0.930 . S
H1093 C1103 0.930 1_455 S
C1094 H1088 0.930 . S
C1094 C1095 1.355 . S
C1094 C1096 1.415 . S
C1095 C1094 1.355 . S
C1095 C1097 1.419 . S
C1096 C1094 1.415 . S
C1096 C1101 1.425 1_455 S
C1096 C1103 1.409 1_455 S
C1097 H1089 0.930 . S
C1097 C1095 1.419 . S
C1097 C1098 1.362 . S
C1098 H1090 0.930 1_455 S
C1098 C1097 1.362 . S
C1098 C1101 1.409 1_455 S
C1099 H1091 0.930 . S
C1099 C1100 1.355 . S
C1099 C1101 1.415 . S
C1100 C1099 1.355 . S
C1100 C1102 1.419 . S
C1101 C1096 1.425 1_655 S
C1101 C1098 1.409 1_655 S
C1101 C1099 1.415 . S
C1102 H1092 0.930 . S
C1102 C1100 1.419 . S
C1102 C1103 1.362 . S
C1103 H1093 0.930 1_655 S
C1103 C1096 1.409 1_655 S
C1103 C1102 1.362 . S
H1104 C1110 0.930 . S
H1105 C1113 0.930 . S
H1106 C1114 0.930 . S
H1107 C1115 0.930 . S
H1108 C1118 0.930 . S
H1109 C1119 0.930 . S
C1110 H1104 0.930 . S
C1110 C1111 1.355 . S
C1110 C1112 1.415 . S
C1111 C1110 1.355 . S
C1111 C1113 1.419 . S
C1112 C1110 1.415 . S
C1112 C1117 1.425 . S
C1112 C1119 1.409 . S
C1113 H1105 0.930 . S
C1113 C1111 1.419 . S
C1113 C1114 1.362 . S
C1114 H1106 0.930 . S
C1114 C1113 1.362 . S
C1114 C1117 1.409 . S
C1115 H1107 0.930 . S
C1115 C1116 1.355 . S
C1115 C1117 1.415 . S
C1116 C1115 1.355 . S
C1116 C1118 1.419 . S
C1117 C1112 1.425 . S
C1117 C1114 1.409 . S
C1117 C1115 1.415 . S
C1118 H1108 0.930 . S
C1118 C1116 1.419 . S
C1118 C1119 1.362 . S
C1119 H1109 0.930 . S
C1119 C1112 1.409 . S
C1119 C1118 1.362 . S
H1120 C1126 0.930 . S
H1121 C1129 0.930 . S
H1122 C1130 0.930 . S
H1123 C1131 0.930 . S
H1124 C1134 0.930 . S
H1125 C1135 0.930 . S
C1126 H1120 0.930 . S
C1126 C1127 1.355 . S
C1126 C1128 1.415 . S
C1127 C1126 1.355 . S
C1127 C1129 1.419 . S
C1128 C1126 1.415 . S
C1128 C1133 1.425 . S
C1128 C1135 1.409 . S
C1129 H1121 0.930 . S
C1129 C1127 1.419 . S
C1129 C1130 1.362 . S
C1130 H1122 0.930 . S
C1130 C1129 1.362 . S
C1130 C1133 1.409 . S
C1131 H1123 0.930 . S
C1131 C1132 1.355 . S
C1131 C1133 1.415 . S
C1132 C1131 1.355 . S
C1132 C1134 1.419 . S
C1133 C1128 1.425 . S
C1133 C1130 1.409 . S
C1133 C1131 1.415 . S
C1134 H1124 0.930 . S
C1134 C1132 1.419 . S
C1134 C1135 1.362 . S
C1135 H1125 0.930 . S
C1135 C1128 1.409 . S
C1135 C1134 1.362 . S
H1136 C1142 0.930 . S
H1137 C1145 0.930 . S
H1138 C1146 0.930 . S
H1139 C1147 0.930 . S
H1140 C1150 0.930 . S
H1141 C1151 0.930 . S
C1142 H1136 0.930 . S
C1142 C1143 1.355 . S
C1142 C1144 1.415 . S
C1143 C1142 1.355 . S
C1143 C1145 1.419 . S
C1144 C1142 1.415 . S
C1144 C1149 1.425 . S
C1144 C1151 1.409 . S
C1145 H1137 0.930 . S
C1145 C1143 1.419 . S
C1145 C1146 1.362 . S
C1146 H1138 0.930 . S
C1146 C1145 1.362 . S
C1146 C1149 1.409 . S
C1147 H1139 0.930 . S
C1147 C1148 1.355 . S
C1147 C1149 1.415 . S
C1148 C1147 1.355 . S
C1148 C1150 1.419 . S
C1149 C1144 1.425 . S
C1149 C1146 1.409 . S
C1149 C1147 1.415 . S
C1150 H1140 0.930 . S
C1150 C1148 1.419 . S
C1150 C1151 1.362 . S
C1151 H1141 0.930 . S
C1151 C1144 1.409 . S
C1151 C1150 1.362 . S
H1152 C1158 0.930 . S
H1153 C1161 0.930 . S
H1154 C1162 0.930 . S
H1155 C1163 0.930 . S
H1156 C1166 0.930 . S
H1157 C1167 0.930 . S
C1158 H1152 0.930 . S
C1158 C1159 1.355 . S
C1158 C1160 1.415 . S
C1159 C1158 1.355 . S
C1159 C1161 1.419 . S
C1160 C1158 1.415 . S
C1160 C1165 1.425 . S
C1160 C1167 1.409 . S
C1161 H1153 0.930 . S
C1161 C1159 1.419 . S
C1161 C1162 1.362 . S
C1162 H1154 0.930 . S
C1162 C1161 1.362 . S
C1162 C1165 1.409 . S
C1163 H1155 0.930 . S
C1163 C1164 1.355 . S
C1163 C1165 1.415 . S
C1164 C1163 1.355 . S
C1164 C1166 1.419 . S
C1165 C1160 1.425 . S
C1165 C1162 1.409 . S
C1165 C1163 1.415 . S
C1166 H1156 0.930 . S
C1166 C1164 1.419 . S
C1166 C1167 1.362 . S
C1167 H1157 0.930 . S
C1167 C1160 1.409 . S
C1167 C1166 1.362 . S
H1168 C1174 0.930 . S
H1169 C1177 0.930 . S
H1170 C1178 0.930 . S
H1171 C1179 0.930 . S
H1172 C1182 0.930 . S
H1173 C1183 0.930 . S
C1174 H1168 0.930 . S
C1174 C1175 1.355 . S
C1174 C1176 1.415 . S
C1175 C1174 1.355 . S
C1175 C1177 1.419 . S
C1176 C1174 1.415 . S
C1176 C1181 1.425 . S
C1176 C1183 1.409 . S
C1177 H1169 0.930 . S
C1177 C1175 1.419 . S
C1177 C1178 1.362 . S
C1178 H1170 0.930 . S
C1178 C1177 1.362 . S
C1178 C1181 1.409 . S
C1179 H1171 0.930 . S
C1179 C1180 1.355 . S
C1179 C1181 1.415 . S
C1180 C1179 1.355 . S
C1180 C1182 1.419 . S
C1181 C1176 1.425 . S
C1181 C1178 1.409 . S
C1181 C1179 1.415 . S
C1182 H1172 0.930 . S
C1182 C1180 1.419 . S
C1182 C1183 1.362 . S
C1183 H1173 0.930 . S
C1183 C1176 1.409 . S
C1183 C1182 1.362 . S
H1184 C1190 0.930 . S
H1185 C1193 0.930 . S
H1186 C1194 0.930 . S
H1187 C1195 0.930 . S
H1188 C1198 0.930 . S
H1189 C1199 0.930 . S
C1190 H1184 0.930 . S
C1190 C1191 1.355 . S
C1190 C1192 1.415 . S
C1191 C1190 1.355 . S
C1191 C1193 1.419 . S
C1192 C1190 1.415 . S
C1192 C1197 1.425 . S
C1192 C1199 1.409 . S
C1193 H1185 0.930 . S
C1193 C1191 1.419 . S
C1193 C1194 1.362 . S
C1194 H1186 0.930 . S
C1194 C1193 1.362 . S
C1194 C1197 1.409 . S
C1195 H1187 0.930 . S
C1195 C1196 1.355 . S
C1195 C1197 1.415 . S
C1196 C1195 1.355 . S
C1196 C1198 1.419 . S
C1197 C1192 1.425 . S
C1197 C1194 1.409 . S
C1197 C1195 1.415 . S
C1198 H1188 0.930 . S
C1198 C1196 1.419 . S
C1198 C1199 1.362 . S
C1199 H1189 0.930 . S
C1199 C1192 1.409 . S
C1199 C1198 1.362 . S
H1200 C1206 0.930 . S
H1201 C1209 0.930 . S
H1202 C1210 0.930 . S
H1203 C1211 0.930 . S
H1204 C1214 0.930 . S
H1205 C1215 0.930 . S
C1206 H1200 0.930 . S
C1206 C1207 1.355 . S
C1206 C1208 1.415 . S
C1207 C1206 1.355 . S
C1207 C1209 1.419 . S
C1208 C1206 1.415 . S
C1208 C1213 1.425 . S
C1208 C1215 1.409 . S
C1209 H1201 0.930 . S
C1209 C1207 1.419 . S
C1209 C1210 1.362 . S
C1210 H1202 0.930 . S
C1210 C1209 1.362 . S
C1210 C1213 1.409 . S
C1211 H1203 0.930 . S
C1211 C1212 1.355 . S
C1211 C1213 1.415 . S
C1212 C1211 1.355 . S
C1212 C1214 1.419 . S
C1213 C1208 1.425 . S
C1213 C1210 1.409 . S
C1213 C1211 1.415 . S
C1214 H1204 0.930 . S
C1214 C1212 1.419 . S
C1214 C1215 1.362 . S
C1215 H1205 0.930 . S
C1215 C1208 1.409 . S
C1215 C1214 1.362 . S
H1216 C1222 0.930 . S
H1217 C1225 0.930 . S
H1218 C1226 0.930 . S
H1219 C1227 0.930 . S
H1220 C1230 0.930 . S
H1221 C1231 0.930 . S
C1222 H1216 0.930 . S
C1222 C1223 1.355 . S
C1222 C1224 1.415 . S
C1223 C1222 1.355 . S
C1223 C1225 1.419 . S
C1224 C1222 1.415 . S
C1224 C1229 1.425 . S
C1224 C1231 1.409 . S
C1225 H1217 0.930 . S
C1225 C1223 1.419 . S
C1225 C1226 1.362 . S
C1226 H1218 0.930 . S
C1226 C1225 1.362 . S
C1226 C1229 1.409 . S
C1227 H1219 0.930 . S
C1227 C1228 1.355 . S
C1227 C1229 1.415 . S
C1228 C1227 1.355 . S
C1228 C1230 1.419 . S
C1229 C1224 1.425 . S
C1229 C1226 1.409 . S
C1229 C1227 1.415 . S
C1230 H1220 0.930 . S
C1230 C1228 1.419 . S
C1230 C1231 1.362 . S
C1231 H1221 0.930 . S
C1231 C1224 1.409 . S
C1231 C1230 1.362 . S
H1232 C1238 0.930 . S
H1233 C1241 0.930 . S
H1234 C1242 0.930 . S
H1235 C1243 0.930 . S
H1236 C1246 0.930 . S
H1237 C1247 0.930 . S
C1238 H1232 0.930 . S
C1238 C1239 1.355 . S
C1238 C1240 1.415 . S
C1239 C1238 1.355 . S
C1239 C1241 1.419 . S
C1240 C1238 1.415 . S
C1240 C1245 1.425 1_545 S
C1240 C1247 1.409 . S
C1241 H1233 0.930 . S
C1241 C1239 1.419 . S
C1241 C1242 1.362 1_545 S
C1242 H1234 0.930 . S
C1242 C1241 1.362 1_565 S
C1242 C1245 1.409 . S
C1243 H1235 0.930 . S
C1243 C1244 1.355 . S
C1243 C1245 1.415 . S
C1244 C1243 1.355 . S
C1244 C1246 1.419 . S
C1245 C1240 1.425 1_565 S
C1245 C1242 1.409 . S
C1245 C1243 1.415 . S
C1246 H1236 0.930 . S
C1246 C1244 1.419 . S
C1246 C1247 1.362 1_565 S
C1247 H1237 0.930 . S
C1247 C1240 1.409 . S
C1247 C1246 1.362 1_545 S
H1248 C1254 0.930 . S
H1249 C1257 0.930 . S
H1250 C1258 0.930 . S
H1251 C1259 0.930 . S
H1252 C1262 0.930 . S
H1253 C1263 0.930 . S
C1254 H1248 0.930 . S
C1254 C1255 1.355 . S
C1254 C1256 1.415 . S
C1255 C1254 1.355 . S
C1255 C1257 1.419 . S
C1256 C1254 1.415 . S
C1256 C1261 1.425 1_545 S
C1256 C1263 1.409 . S
C1257 H1249 0.930 . S
C1257 C1255 1.419 . S
C1257 C1258 1.362 1_545 S
C1258 H1250 0.930 . S
C1258 C1257 1.362 1_565 S
C1258 C1261 1.409 . S
C1259 H1251 0.930 . S
C1259 C1260 1.355 . S
C1259 C1261 1.415 . S
C1260 C1259 1.355 . S
C1260 C1262 1.419 . S
C1261 C1256 1.425 1_565 S
C1261 C1258 1.409 . S
C1261 C1259 1.415 . S
C1262 H1252 0.930 . S
C1262 C1260 1.419 . S
C1262 C1263 1.362 1_565 S
C1263 H1253 0.930 . S
C1263 C1256 1.409 . S
C1263 C1262 1.362 1_545 S
H1264 C1270 0.930 . S
H1265 C1273 0.930 . S
H1266 C1274 0.930 . S
H1267 C1275 0.930 . S
H1268 C1278 0.930 . S
H1269 C1279 0.930 . S
C1270 H1264 0.930 . S
C1270 C1271 1.355 . S
C1270 C1272 1.415 . S
C1271 C1270 1.355 . S
C1271 C1273 1.419 . S
C1272 C1270 1.415 . S
C1272 C1277 1.425 1_545 S
C1272 C1279 1.409 . S
C1273 H1265 0.930 . S
C1273 C1271 1.419 . S
C1273 C1274 1.362 1_545 S
C1274 H1266 0.930 . S
C1274 C1273 1.362 1_565 S
C1274 C1277 1.409 . S
C1275 H1267 0.930 . S
C1275 C1276 1.355 . S
C1275 C1277 1.415 . S
C1276 C1275 1.355 . S
C1276 C1278 1.419 . S
C1277 C1272 1.425 1_565 S
C1277 C1274 1.409 . S
C1277 C1275 1.415 . S
C1278 H1268 0.930 . S
C1278 C1276 1.419 . S
C1278 C1279 1.362 1_565 S
C1279 H1269 0.930 . S
C1279 C1272 1.409 . S
C1279 C1278 1.362 1_545 S
H1280 C1286 0.930 . S
H1281 C1289 0.930 . S
H1282 C1290 0.929 . S
H1283 C1291 0.930 . S
H1284 C1294 0.930 . S
H1285 C1295 0.929 . S
C1286 H1280 0.930 . S
C1286 C1287 1.355 . S
C1286 C1288 1.415 . S
C1287 C1286 1.355 . S
C1287 C1289 1.419 . S
C1288 C1286 1.415 . S
C1288 C1293 1.425 1_565 S
C1288 C1295 1.408 . S
C1289 H1281 0.930 . S
C1289 C1287 1.419 . S
C1289 C1290 1.364 1_565 S
C1290 H1282 0.929 . S
C1290 C1289 1.364 1_545 S
C1290 C1293 1.408 . S
C1291 H1283 0.930 . S
C1291 C1292 1.355 . S
C1291 C1293 1.415 . S
C1292 C1291 1.355 . S
C1292 C1294 1.419 . S
C1293 C1288 1.425 1_545 S
C1293 C1290 1.408 . S
C1293 C1291 1.415 . S
C1294 H1284 0.930 . S
C1294 C1292 1.419 . S
C1294 C1295 1.365 1_545 S
C1295 H1285 0.929 . S
C1295 C1288 1.408 . S
C1295 C1294 1.365 1_565 S
H1296 C1302 0.930 . S
H1297 C1305 0.930 . S
H1298 C1306 0.930 . S
H1299 C1307 0.930 . S
H1300 C1310 0.930 . S
H1301 C1311 0.930 . S
C1302 H1296 0.930 . S
C1302 C1303 1.355 . S
C1302 C1304 1.415 . S
C1303 C1302 1.355 . S
C1303 C1305 1.419 . S
C1304 C1302 1.415 . S
C1304 C1309 1.425 . S
C1304 C1311 1.409 . S
C1305 H1297 0.930 . S
C1305 C1303 1.419 . S
C1305 C1306 1.362 . S
C1306 H1298 0.930 . S
C1306 C1305 1.362 . S
C1306 C1309 1.409 . S
C1307 H1299 0.930 . S
C1307 C1308 1.355 . S
C1307 C1309 1.415 . S
C1308 C1307 1.355 . S
C1308 C1310 1.419 . S
C1309 C1304 1.425 . S
C1309 C1306 1.409 . S
C1309 C1307 1.415 . S
C1310 H1300 0.930 . S
C1310 C1308 1.419 . S
C1310 C1311 1.362 . S
C1311 H1301 0.930 . S
C1311 C1304 1.409 . S
C1311 C1310 1.362 . S
H1312 C1318 0.930 . S
H1313 C1321 0.930 . S
H1314 C1322 0.930 . S
H1315 C1323 0.930 . S
H1316 C1326 0.930 . S
H1317 C1327 0.930 . S
C1318 H1312 0.930 . S
C1318 C1319 1.355 . S
C1318 C1320 1.415 . S
C1319 C1318 1.355 . S
C1319 C1321 1.419 . S
C1320 C1318 1.415 . S
C1320 C1325 1.425 . S
C1320 C1327 1.409 . S
C1321 H1313 0.930 . S
C1321 C1319 1.419 . S
C1321 C1322 1.362 . S
C1322 H1314 0.930 . S
C1322 C1321 1.362 . S
C1322 C1325 1.409 . S
C1323 H1315 0.930 . S
C1323 C1324 1.355 . S
C1323 C1325 1.415 . S
C1324 C1323 1.355 . S
C1324 C1326 1.419 . S
C1325 C1320 1.425 . S
C1325 C1322 1.409 . S
C1325 C1323 1.415 . S
C1326 H1316 0.930 . S
C1326 C1324 1.419 . S
C1326 C1327 1.362 . S
C1327 H1317 0.930 . S
C1327 C1320 1.409 . S
C1327 C1326 1.362 . S
H1328 C1334 0.930 . S
H1329 C1337 0.930 . S
H1330 C1338 0.930 . S
H1331 C1339 0.930 . S
H1332 C1342 0.930 . S
H1333 C1343 0.930 . S
C1334 H1328 0.930 . S
C1334 C1335 1.355 . S
C1334 C1336 1.415 . S
C1335 C1334 1.355 . S
C1335 C1337 1.419 . S
C1336 C1334 1.415 . S
C1336 C1341 1.425 . S
C1336 C1343 1.409 . S
C1337 H1329 0.930 . S
C1337 C1335 1.419 . S
C1337 C1338 1.362 . S
C1338 H1330 0.930 . S
C1338 C1337 1.362 . S
C1338 C1341 1.409 . S
C1339 H1331 0.930 . S
C1339 C1340 1.355 . S
C1339 C1341 1.415 . S
C1340 C1339 1.355 . S
C1340 C1342 1.419 . S
C1341 C1336 1.425 . S
C1341 C1338 1.409 . S
C1341 C1339 1.415 . S
C1342 H1332 0.930 . S
C1342 C1340 1.419 . S
C1342 C1343 1.362 . S
C1343 H1333 0.930 . S
C1343 C1336 1.409 . S
C1343 C1342 1.362 . S
H1344 C1350 0.930 . S
H1345 C1353 0.930 . S
H1346 C1354 0.930 . S
H1347 C1355 0.930 . S
H1348 C1358 0.930 . S
H1349 C1359 0.930 . S
C1350 H1344 0.930 . S
C1350 C1351 1.355 . S
C1350 C1352 1.415 . S
C1351 C1350 1.355 . S
C1351 C1353 1.419 . S
C1352 C1350 1.415 . S
C1352 C1357 1.425 . S
C1352 C1359 1.409 . S
C1353 H1345 0.930 . S
C1353 C1351 1.419 . S
C1353 C1354 1.362 . S
C1354 H1346 0.930 . S
C1354 C1353 1.362 . S
C1354 C1357 1.409 . S
C1355 H1347 0.930 . S
C1355 C1356 1.355 . S
C1355 C1357 1.415 . S
C1356 C1355 1.355 . S
C1356 C1358 1.419 . S
C1357 C1352 1.425 . S
C1357 C1354 1.409 . S
C1357 C1355 1.415 . S
C1358 H1348 0.930 . S
C1358 C1356 1.419 . S
C1358 C1359 1.362 . S
C1359 H1349 0.930 . S
C1359 C1352 1.409 . S
C1359 C1358 1.362 . S
C855 C39 1.856 . S
C860 C304 1.844 . S
C871 C251 1.864 . S
C876 C92 1.837 . S
C887 C145 1.863 . S
C892 C410 1.837 . S
C903 C357 1.827 . S
C908 C198 1.870 . S
C919 C728 1.867 . S
C924 C463 1.833 . S
C935 C675 1.842 . S
C940 C516 1.854 . S
C951 C834 1.842 . S
C956 C569 1.854 . S
C967 C622 1.870 . S
C972 C781 1.827 . S
C983 C82 1.539 . S
C988 C29 1.554 . S
C999 C135 1.530 . S
C1004 C188 1.544 . S
C1015 C241 1.556 . S
C1020 C294 1.555 . S
C1031 C347 1.531 . S
C1036 C400 1.542 . S
C1047 C453 1.531 . S
C1052 C506 1.528 . S
C1063 C612 1.554 . S
C1068 C559 1.556 . S
C1079 C718 1.536 . S
C1084 C665 1.531 . S
C1095 C771 1.541 . S
C1100 C824 1.530 . S
C1111 C499 1.521 . S
C1116 C22 1.527 . S
C1127 C75 1.520 . S
C1132 C446 1.531 . S
C1143 C605 1.524 . S
C1148 C128 1.523 . S
C1159 C181 1.534 . S
C1164 C552 1.533 . S
C1175 C234 1.537 . S
C1180 C711 1.521 . S
C1191 C658 1.523 . S
C1196 C287 1.517 . S
C1207 C340 1.531 . S
C1212 C817 1.537 . S
C1223 C764 1.526 . S
C1228 C393 1.516 . S
C1239 C38 1.912 . S
C1244 C144 1.926 . S
C1255 C197 1.902 . S
C1260 C91 1.898 . S
C1271 C356 1.925 . S
C1276 C250 1.916 . S
C1287 C409 1.936 . S
C1292 C303 1.925 . S
C1303 C568 1.910 . S
C1308 C462 1.924 . S
C1319 C515 1.928 . S
C1324 C621 1.914 . S
C1335 C780 1.911 . S
C1340 C674 1.918 . S
C1351 C727 1.917 . S
C1356 C833 1.911 . S
