# Generated by pormake.
# Topology wmi, (6)-cn, num edge types: 1
# Building blocks:
#     Node 0, Type 0, BuildingBlock: PAMTUU_clean_sbu_0, # of connection points: 6
#     Node 1, Type 0, BuildingBlock: PAMTUU_clean_sbu_0, # of connection points: 6
#     Node 2, Type 0, BuildingBlock: PAMTUU_clean_sbu_0, # of connection points: 6
#     Node 3, Type 0, BuildingBlock: PAMTUU_clean_sbu_0, # of connection points: 6
#     Node 4, Type 0, BuildingBlock: PAMTUU_clean_sbu_0, # of connection points: 6
#     Node 5, Type 0, BuildingBlock: PAMTUU_clean_sbu_0, # of connection points: 6
#     Node 6, Type 0, BuildingBlock: PAMTUU_clean_sbu_0, # of connection points: 6
#     Node 7, Type 0, BuildingBlock: PAMTUU_clean_sbu_0, # of connection points: 6
#     Node 8, Type 0, BuildingBlock: PAMTUU_clean_sbu_0, # of connection points: 6
#     Node 9, Type 0, BuildingBlock: PAMTUU_clean_sbu_0, # of connection points: 6
#     Node 10, Type 0, BuildingBlock: PAMTUU_clean_sbu_0, # of connection points: 6
#     Node 11, Type 0, BuildingBlock: PAMTUU_clean_sbu_0, # of connection points: 6
#     Node 12, Type 0, BuildingBlock: PAMTUU_clean_sbu_0, # of connection points: 6
#     Node 13, Type 0, BuildingBlock: PAMTUU_clean_sbu_0, # of connection points: 6
#     Node 14, Type 0, BuildingBlock: PAMTUU_clean_sbu_0, # of connection points: 6
#     Node 15, Type 0, BuildingBlock: PAMTUU_clean_sbu_0, # of connection points: 6
#     Node 16, Type 0, BuildingBlock: PAMTUU_clean_sbu_0, # of connection points: 6
#     Node 17, Type 0, BuildingBlock: PAMTUU_clean_sbu_0, # of connection points: 6
#     Edge 18, Type (0, 0), BuildingBlock: CIFDUS_clean_linker_0, # of connection points: 2
#     Edge 19, Type (0, 0), BuildingBlock: CIFDUS_clean_linker_0, # of connection points: 2
#     Edge 20, Type (0, 0), BuildingBlock: CIFDUS_clean_linker_0, # of connection points: 2
#     Edge 21, Type (0, 0), BuildingBlock: CIFDUS_clean_linker_0, # of connection points: 2
#     Edge 22, Type (0, 0), BuildingBlock: CIFDUS_clean_linker_0, # of connection points: 2
#     Edge 23, Type (0, 0), BuildingBlock: CIFDUS_clean_linker_0, # of connection points: 2
#     Edge 24, Type (0, 0), BuildingBlock: CIFDUS_clean_linker_0, # of connection points: 2
#     Edge 25, Type (0, 0), BuildingBlock: CIFDUS_clean_linker_0, # of connection points: 2
#     Edge 26, Type (0, 0), BuildingBlock: CIFDUS_clean_linker_0, # of connection points: 2
#     Edge 27, Type (0, 0), BuildingBlock: CIFDUS_clean_linker_0, # of connection points: 2
#     Edge 28, Type (0, 0), BuildingBlock: CIFDUS_clean_linker_0, # of connection points: 2
#     Edge 29, Type (0, 0), BuildingBlock: CIFDUS_clean_linker_0, # of connection points: 2
#     Edge 30, Type (0, 0), BuildingBlock: CIFDUS_clean_linker_0, # of connection points: 2
#     Edge 31, Type (0, 0), BuildingBlock: CIFDUS_clean_linker_0, # of connection points: 2
#     Edge 32, Type (0, 0), BuildingBlock: CIFDUS_clean_linker_0, # of connection points: 2
#     Edge 33, Type (0, 0), BuildingBlock: CIFDUS_clean_linker_0, # of connection points: 2
#     Edge 34, Type (0, 0), BuildingBlock: CIFDUS_clean_linker_0, # of connection points: 2
#     Edge 35, Type (0, 0), BuildingBlock: CIFDUS_clean_linker_0, # of connection points: 2
#     Edge 36, Type (0, 0), BuildingBlock: CIFDUS_clean_linker_0, # of connection points: 2
#     Edge 37, Type (0, 0), BuildingBlock: CIFDUS_clean_linker_0, # of connection points: 2
#     Edge 38, Type (0, 0), BuildingBlock: CIFDUS_clean_linker_0, # of connection points: 2
#     Edge 39, Type (0, 0), BuildingBlock: CIFDUS_clean_linker_0, # of connection points: 2
#     Edge 40, Type (0, 0), BuildingBlock: CIFDUS_clean_linker_0, # of connection points: 2
#     Edge 41, Type (0, 0), BuildingBlock: CIFDUS_clean_linker_0, # of connection points: 2
#     Edge 42, Type (0, 0), BuildingBlock: CIFDUS_clean_linker_0, # of connection points: 2
#     Edge 43, Type (0, 0), BuildingBlock: CIFDUS_clean_linker_0, # of connection points: 2
#     Edge 44, Type (0, 0), BuildingBlock: CIFDUS_clean_linker_0, # of connection points: 2
#     Edge 45, Type (0, 0), BuildingBlock: CIFDUS_clean_linker_0, # of connection points: 2
#     Edge 46, Type (0, 0), BuildingBlock: CIFDUS_clean_linker_0, # of connection points: 2
#     Edge 47, Type (0, 0), BuildingBlock: CIFDUS_clean_linker_0, # of connection points: 2
#     Edge 48, Type (0, 0), BuildingBlock: CIFDUS_clean_linker_0, # of connection points: 2
#     Edge 49, Type (0, 0), BuildingBlock: CIFDUS_clean_linker_0, # of connection points: 2
#     Edge 50, Type (0, 0), BuildingBlock: CIFDUS_clean_linker_0, # of connection points: 2
#     Edge 51, Type (0, 0), BuildingBlock: CIFDUS_clean_linker_0, # of connection points: 2
#     Edge 52, Type (0, 0), BuildingBlock: CIFDUS_clean_linker_0, # of connection points: 2
#     Edge 53, Type (0, 0), BuildingBlock: CIFDUS_clean_linker_0, # of connection points: 2
#     Edge 54, Type (0, 0), BuildingBlock: CIFDUS_clean_linker_0, # of connection points: 2
#     Edge 55, Type (0, 0), BuildingBlock: CIFDUS_clean_linker_0, # of connection points: 2
#     Edge 56, Type (0, 0), BuildingBlock: CIFDUS_clean_linker_0, # of connection points: 2
#     Edge 57, Type (0, 0), BuildingBlock: CIFDUS_clean_linker_0, # of connection points: 2
#     Edge 58, Type (0, 0), BuildingBlock: CIFDUS_clean_linker_0, # of connection points: 2
#     Edge 59, Type (0, 0), BuildingBlock: CIFDUS_clean_linker_0, # of connection points: 2
#     Edge 60, Type (0, 0), BuildingBlock: CIFDUS_clean_linker_0, # of connection points: 2
#     Edge 61, Type (0, 0), BuildingBlock: CIFDUS_clean_linker_0, # of connection points: 2
#     Edge 62, Type (0, 0), BuildingBlock: CIFDUS_clean_linker_0, # of connection points: 2
#     Edge 63, Type (0, 0), BuildingBlock: CIFDUS_clean_linker_0, # of connection points: 2
#     Edge 64, Type (0, 0), BuildingBlock: CIFDUS_clean_linker_0, # of connection points: 2
#     Edge 65, Type (0, 0), BuildingBlock: CIFDUS_clean_linker_0, # of connection points: 2
#     Edge 66, Type (0, 0), BuildingBlock: CIFDUS_clean_linker_0, # of connection points: 2
#     Edge 67, Type (0, 0), BuildingBlock: CIFDUS_clean_linker_0, # of connection points: 2
#     Edge 68, Type (0, 0), BuildingBlock: CIFDUS_clean_linker_0, # of connection points: 2
#     Edge 69, Type (0, 0), BuildingBlock: CIFDUS_clean_linker_0, # of connection points: 2
#     Edge 70, Type (0, 0), BuildingBlock: CIFDUS_clean_linker_0, # of connection points: 2
#     Edge 71, Type (0, 0), BuildingBlock: CIFDUS_clean_linker_0, # of connection points: 2
# Relax obj value: 0.085
# Max RMSD: 0.214
# Mean RMSD: 0.214
data_MOF--net-wmi--node1-PAMTUU_clean_sbu_0--edge1-CIFDUS_clean_linker_0
_symmetry_space_group_name_H-M    P1
_symmetry_Int_Tables_number       1
_symmetry_cell_setting            triclinic
loop_
_symmetry_equiv_pos_as_xyz
'x, y, z'
_cell_length_a     36.25154
_cell_length_b     36.362967
_cell_length_c     69.322407
_cell_angle_alpha  89.61159
_cell_angle_beta   90.226181
_cell_angle_gamma 119.85769
loop_
_atom_site_label
_atom_site_type_symbol
_atom_site_fract_x
_atom_site_fract_y
_atom_site_fract_z
_atom_type_partial_charge
Tb0 Tb 0.46042 0.99531 0.0963 0.0
Tb1 Tb 0.55531 0.05614 0.11577 0.0
C2 C 0.53972 0.04455 0.07029 0.0
C3 C 0.35347 0.90157 0.08849 0.0
C4 C 0.2906 0.81711 0.097 0.0
C5 C 0.27908 0.84725 0.09128 0.0
C6 C 0.31022 0.88902 0.08704 0.0
C7 C 0.36524 0.87173 0.09428 0.0
C8 C 0.33407 0.8298 0.09839 0.0
C9 C 0.38571 0.94608 0.08449 0.0
O10 O 0.49477 0.95991 0.09491 0.0
O11 O 0.54042 0.99111 0.12034 0.0
O12 O 0.50526 0.03959 0.13785 0.0
O13 O 0.45841 0.97515 0.1256 0.0
O14 O 0.61823 0.0696 0.12051 0.0
O15 O 0.59514 0.10811 0.1333 0.0
O16 O 0.53911 0.09885 0.10127 0.0
O17 O 0.4667 0.05743 0.10329 0.0
O18 O 0.4993 0.03213 0.07249 0.0
O19 O 0.56557 0.05059 0.08491 0.0
C20 C 0.52228 0.96056 0.1076 0.0
O21 O 0.3947 0.9722 0.09883 0.0
O22 O 0.4199 0.95254 0.07541 0.0
C23 C 0.47034 1.00228 0.13965 0.0
C24 C 0.66877 0.14209 0.1255 0.0
C25 C 0.74734 0.21634 0.11703 0.0
C26 C 0.74386 0.18956 0.13253 0.0
C27 C 0.70508 0.15295 0.13669 0.0
C28 C 0.67195 0.16829 0.10988 0.0
C29 C 0.71079 0.20502 0.1057 0.0
C30 C 0.62817 0.1035 0.13051 0.0
C31 C 0.5013 0.09511 0.10185 0.0
H32 H 0.24592 0.83842 0.08987 0.0
H33 H 0.30051 0.91161 0.08268 0.0
H34 H 0.39849 0.88088 0.09573 0.0
H35 H 0.34397 0.80749 0.10297 0.0
H36 H 0.7709 0.19735 0.14177 0.0
H37 H 0.70336 0.13322 0.14883 0.0
H38 H 0.64441 0.16042 0.10096 0.0
H39 H 0.71221 0.22444 0.0935 0.0
Tb40 Tb 0.08466 0.46976 0.1006 0.0
Tb41 Tb 1.02682 0.51288 0.11366 0.0
C42 C 0.04447 0.49978 0.07022 0.0
C43 C 0.1778 0.4544 0.09634 0.0
C44 C 0.2642 0.48058 0.1036 0.0
C45 C 0.23734 0.44168 0.09446 0.0
C46 C 0.19462 0.42876 0.09089 0.0
C47 C 0.20443 0.49355 0.10523 0.0
C48 C 0.24735 0.50661 0.10877 0.0
C49 C 0.13254 0.43992 0.09274 0.0
O50 O 0.12341 0.53803 0.09566 0.0
O51 O 0.093 0.56112 0.11803 0.0
O52 O 0.0391 0.48278 0.139 0.0
O53 O 0.10364 0.49558 0.12887 0.0
O54 O 1.0189 0.56638 0.11479 0.0
O55 O 0.97332 0.50758 0.12817 0.0
O56 O 0.98216 0.45063 0.10247 0.0
O57 O 1.02129 0.41814 0.10918 0.0
O58 O 0.04639 0.46658 0.07624 0.0
O59 O 0.04036 0.52503 0.08254 0.0
C60 C 0.12421 0.5685 0.10615 0.0
O61 O 0.10818 0.42908 0.10796 0.0
O62 O 0.12475 0.46319 0.08087 0.0
C63 C 0.07535 0.48355 0.14246 0.0
C64 C 0.94882 0.55488 0.11844 0.0
C65 C 0.88373 0.57346 0.10847 0.0
C66 C 0.90944 0.59161 0.12484 0.0
C67 C 0.9415 0.58245 0.12972 0.0
C68 C 0.92348 0.53653 0.10204 0.0
C69 C 0.89114 0.54566 0.09712 0.0
C70 C 0.98332 0.54657 0.1243 0.0
C71 C 0.9843 0.4162 0.10612 0.0
H72 H 0.24941 0.42116 0.08999 0.0
H73 H 0.17465 0.3986 0.08392 0.0
H74 H 0.19193 0.51381 0.10954 0.0
H75 H 0.26705 0.53656 0.11593 0.0
H76 H 0.90432 0.6124 0.13419 0.0
H77 H 0.96059 0.59688 0.14247 0.0
H78 H 0.9287 0.51525 0.09308 0.0
H79 H 0.87224 0.53127 0.08435 0.0
Tb80 Tb 0.61146 0.62252 0.09879 0.0
Tb81 Tb 0.57011 0.52294 0.11465 0.0
C82 C 0.56826 0.54567 0.07097 0.0
C83 C 0.62104 0.72764 0.08793 0.0
C84 C 0.58554 0.78155 0.08827 0.0
C85 C 0.6296 0.79811 0.09061 0.0
C86 C 0.64709 0.77143 0.09045 0.0
C87 C 0.57717 0.71092 0.08508 0.0
C88 C 0.55959 0.7377 0.08513 0.0
C89 C 0.63956 0.69985 0.09057 0.0
O90 O 0.548 0.6045 0.11006 0.0
O91 O 0.51649 0.53175 0.1092 0.0
O92 O 0.57896 0.56601 0.13872 0.0
O93 O 0.63879 0.61893 0.12584 0.0
O94 O 0.52064 0.45967 0.11382 0.0
O95 O 0.57276 0.47885 0.13375 0.0
O96 O 0.63649 0.54384 0.10949 0.0
O97 O 0.66012 0.60548 0.09128 0.0
O98 O 0.57107 0.58164 0.07607 0.0
O99 O 0.57606 0.52246 0.08322 0.0
C100 C 0.51397 0.56637 0.11039 0.0
O101 O 0.63649 0.68517 0.10804 0.0
O102 O 0.63095 0.67065 0.07765 0.0
C103 C 0.6139 0.60294 0.14068 0.0
C104 C 0.5387 0.40767 0.12235 0.0
C105 C 0.53561 0.33006 0.11349 0.0
C106 C 0.51104 0.33238 0.12861 0.0
C107 C 0.5126 0.37071 0.13296 0.0
C108 C 0.56327 0.40573 0.10722 0.0
C109 C 0.56179 0.36735 0.10285 0.0
C110 C 0.53807 0.44708 0.12679 0.0
C111 C 0.66504 0.57434 0.09852 0.0
H112 H 0.65057 0.83176 0.09279 0.0
H113 H 0.68095 0.78492 0.09284 0.0
H114 H 0.55642 0.67709 0.08335 0.0
H115 H 0.52553 0.72388 0.08341 0.0
H116 H 0.49104 0.30468 0.13732 0.0
H117 H 0.49323 0.37147 0.14465 0.0
H118 H 0.58332 0.43379 0.0987 0.0
H119 H 0.58083 0.36681 0.09098 0.0
Tb120 Tb 1.02115 0.44878 0.93189 0.0
Tb121 Tb 0.07995 0.54421 0.91321 0.0
C122 C 0.06426 0.52677 0.95811 0.0
C123 C 0.92591 0.3425 0.93859 0.0
C124 C 0.84084 0.28074 0.92951 0.0
C125 C 0.84968 0.30859 0.94505 0.0
C126 C 0.89171 0.33901 0.94958 0.0
C127 C 0.91698 0.31495 0.92292 0.0
C128 C 0.87506 0.28467 0.91839 0.0
C129 C 0.97059 0.37443 0.94352 0.0
O130 O 0.98378 0.48116 0.93197 0.0
O131 O 1.01484 0.52604 0.90629 0.0
O132 O 0.06915 0.49624 0.89101 0.0
O133 O 1.00444 0.44629 0.90212 0.0
O134 O 0.09285 0.60706 0.90984 0.0
O135 O 0.13171 0.58574 0.89576 0.0
O136 O 0.12307 0.52993 0.92879 0.0
O137 O 0.08502 0.45749 0.92611 0.0
O138 O 0.05747 0.48824 0.95553 0.0
O139 O 0.06664 0.55135 0.94354 0.0
C140 C 0.98347 0.50705 0.91865 0.0
O141 O 0.99921 0.38346 0.93017 0.0
O142 O 0.97656 0.40845 0.95246 0.0
C143 C 0.03349 0.45986 0.88878 0.0
C144 C 0.16648 0.65805 0.90538 0.0
C145 C 0.24176 0.73505 0.91428 0.0
C146 C 0.23947 0.71152 0.89782 0.0
C147 C 0.20237 0.67367 0.89342 0.0
C148 C 0.16839 0.6816 0.9218 0.0
C149 C 0.20561 0.71977 0.92616 0.0
C150 C 0.12731 0.61828 0.89987 0.0
C151 C 0.12151 0.49315 0.9284 0.0
H152 H 0.82422 0.30609 0.95408 0.0
H153 H 0.89742 0.35952 0.96182 0.0
H154 H 0.94241 0.3165 0.91418 0.0
H155 H 0.86948 0.26412 0.90617 0.0
H156 H 0.26636 0.72264 0.88814 0.0
H157 H 0.20168 0.65661 0.88055 0.0
H158 H 0.1412 0.6706 0.93128 0.0
H159 H 0.20634 0.73694 0.93899 0.0
Tb160 Tb 0.63908 0.58793 0.93214 0.0
Tb161 Tb 0.54355 0.55354 0.913 0.0
C162 C 0.55996 0.55777 0.95822 0.0
C163 C 0.7417 0.59299 0.94227 0.0
C164 C 0.79766 0.5606 0.93768 0.0
C165 C 0.81311 0.60459 0.9373 0.0
C166 C 0.78538 0.6206 0.93964 0.0
C167 C 0.72605 0.54898 0.94237 0.0
C168 C 0.7538 0.53298 0.94023 0.0
C169 C 0.71283 0.61038 0.94455 0.0
O170 O 0.60521 0.51868 0.93359 0.0
O171 O 0.56145 0.50579 0.9076 0.0
O172 O 0.59231 0.58881 0.89078 0.0
O173 O 0.6419 0.57339 0.90233 0.0
O174 O 0.48233 0.50235 0.90775 0.0
O175 O 0.501 0.56448 0.89637 0.0
O176 O 0.56005 0.61307 0.92669 0.0
O177 O 0.63284 0.64384 0.92528 0.0
O178 O 0.59987 0.58668 0.95564 0.0
O179 O 0.53414 0.53701 0.94383 0.0
C180 C 0.57904 0.49271 0.92049 0.0
O181 O 0.70545 0.62613 0.92902 0.0
O182 O 0.67812 0.58728 0.95439 0.0
C183 C 0.62829 0.58841 0.88862 0.0
C184 C 0.42715 0.5184 0.90254 0.0
C185 C 0.3424 0.49933 0.90987 0.0
C186 C 0.35555 0.49648 0.89113 0.0
C187 C 0.39733 0.50587 0.88754 0.0
C188 C 0.41464 0.52191 0.92127 0.0
C189 C 0.37267 0.51259 0.9249 0.0
C190 C 0.47016 0.52545 0.89821 0.0
C191 C 0.59803 0.6469 0.92626 0.0
H192 H 0.84677 0.62668 0.93553 0.0
H193 H 0.79809 0.6546 0.93942 0.0
H194 H 0.69236 0.52691 0.9441 0.0
H195 H 0.74088 0.49895 0.94035 0.0
H196 H 0.33358 0.48724 0.87911 0.0
H197 H 0.40628 0.50296 0.87297 0.0
H198 H 0.43711 0.53133 0.9331 0.0
H199 H 0.36373 0.51495 0.93953 0.0
Tb200 Tb 0.4951 0.06907 0.92971 0.0
Tb201 Tb 0.53697 1.01211 0.91366 0.0
C202 C 0.53642 0.03277 0.95744 0.0
C203 C 0.48388 0.16299 0.94118 0.0
C204 C 0.51852 0.25188 0.94064 0.0
C205 C 0.47443 0.22447 0.93872 0.0
C206 C 0.45734 0.1805 0.93898 0.0
C207 C 0.52779 0.19007 0.94368 0.0
C208 C 0.54496 0.2342 0.94354 0.0
C209 C 0.46587 0.11709 0.93834 0.0
O210 O 0.55861 0.11512 0.91895 0.0
O211 O 0.59035 0.07391 0.91978 0.0
O212 O 0.52916 0.04733 0.88944 0.0
O213 O 0.46921 0.04081 0.90221 0.0
O214 O 0.58611 0.99747 0.91524 0.0
O215 O 0.53567 0.96686 0.89437 0.0
O216 O 0.46977 0.96746 0.91695 0.0
O217 O 0.44622 1.00326 0.93636 0.0
O218 O 0.53471 0.06676 0.95254 0.0
O219 O 0.52821 1.00255 0.9449 0.0
C220 C 0.5928 0.11108 0.91898 0.0
O221 O 0.46917 0.1065 0.9208 0.0
O222 O 0.47497 0.09619 0.95111 0.0
C223 C 0.49425 0.04967 0.88743 0.0
C224 C 0.56692 0.92684 0.907 0.0
C225 C 0.56676 0.84979 0.91462 0.0
C226 C 0.6014 0.88903 0.92016 0.0
C227 C 0.60152 0.92698 0.91632 0.0
C228 C 0.53218 0.8877 0.90147 0.0
C229 C 0.53212 0.84972 0.90523 0.0
C230 C 0.56888 0.9678 0.90229 0.0
C231 C 0.44073 0.96821 0.92801 0.0
H232 H 0.45315 0.23705 0.93675 0.0
H233 H 0.42344 0.16013 0.93684 0.0
H234 H 0.54888 0.17712 0.94513 0.0
H235 H 0.57906 0.25445 0.94493 0.0
H236 H 0.62839 0.89052 0.92762 0.0
H237 H 0.62898 0.95662 0.9206 0.0
H238 H 0.50518 0.88634 0.89405 0.0
H239 H 0.50514 0.8203 0.90043 0.0
Tb240 Tb 0.10981 0.3343 0.43293 0.0
Tb241 Tb 0.20801 0.39238 0.44994 0.0
C242 C 0.18863 0.37217 0.40603 0.0
C243 C 1.00823 0.23694 0.42174 0.0
C244 C 0.95419 0.14791 0.42097 0.0
C245 C 0.94922 0.17413 0.40741 0.0
C246 C 0.97587 0.21828 0.40787 0.0
C247 C 1.01432 0.21061 0.43478 0.0
C248 C 0.98743 0.16664 0.43447 0.0
C249 C 0.03371 0.28366 0.42336 0.0
O250 O 0.12801 0.28922 0.44449 0.0
O251 O 0.20078 0.33106 0.44369 0.0
O252 O 0.16442 0.35606 0.47371 0.0
O253 O 0.1105 0.36146 0.46047 0.0
O254 O 0.27192 0.4074 0.44943 0.0
O255 O 0.25082 0.43817 0.46946 0.0
O256 O 0.18441 0.43616 0.44602 0.0
O257 O 0.12592 0.39985 0.42597 0.0
O258 O 0.15314 0.3379 0.41072 0.0
O259 O 0.21014 0.40238 0.41866 0.0
C260 C 0.16639 0.29368 0.44451 0.0
O261 O 0.04581 0.29796 0.44077 0.0
O262 O 0.06427 0.3038 0.41087 0.0
C263 C 0.12664 0.35261 0.47537 0.0
C264 C 0.32286 0.47814 0.45791 0.0
C265 C 0.40058 0.55496 0.45144 0.0
C266 C 0.39538 0.51587 0.44528 0.0
C267 C 0.35717 0.47803 0.44854 0.0
C268 C 0.32785 0.51714 0.46405 0.0
C269 C 0.36617 0.55502 0.46084 0.0
C270 C 0.28357 0.43721 0.46224 0.0
C271 C 0.15496 0.43508 0.43447 0.0
H272 H 0.92375 0.16062 0.39689 0.0
H273 H 0.97058 0.23792 0.39769 0.0
H274 H 0.03925 0.22409 0.44556 0.0
H275 H 0.9924 0.14725 0.44493 0.0
H276 H 0.42077 0.51442 0.43778 0.0
H277 H 0.35461 0.4485 0.44383 0.0
H278 H 0.3024 0.51846 0.47156 0.0
H279 H 0.36904 0.5843 0.4661 0.0
Tb280 Tb 0.73584 0.81014 0.43199 0.0
Tb281 Tb 0.67983 0.85081 0.44982 0.0
C282 C 0.68805 0.83918 0.4052 0.0
C283 C 0.82721 0.79385 0.42287 0.0
C284 C 0.91234 0.8151 0.43 0.0
C285 C 0.88202 0.77398 0.42407 0.0
C286 C 0.83988 0.76351 0.42051 0.0
C287 C 0.85723 0.83489 0.42888 0.0
C288 C 0.89947 0.84549 0.43231 0.0
C289 C 0.78241 0.78191 0.4197 0.0
O290 O 0.77333 0.87945 0.42908 0.0
O291 O 0.74596 0.89737 0.45479 0.0
O292 O 0.69542 0.81977 0.47367 0.0
O293 O 0.75717 0.82806 0.46103 0.0
O294 O 0.66757 0.90168 0.45081 0.0
O295 O 0.63083 0.84536 0.4679 0.0
O296 O 0.63392 0.7894 0.4385 0.0
O297 O 0.67411 0.75695 0.44132 0.0
O298 O 0.69361 0.80721 0.40952 0.0
O299 O 0.68925 0.86522 0.41864 0.0
C300 C 0.77586 0.90733 0.44185 0.0
O301 O 0.75774 0.76661 0.43473 0.0
O302 O 0.77564 0.80921 0.41029 0.0
C303 C 0.73074 0.81774 0.47542 0.0
C304 C 0.5947 0.88123 0.45624 0.0
C305 C 0.51928 0.88389 0.44722 0.0
C306 C 0.55969 0.91838 0.44276 0.0
C307 C 0.59685 0.9171 0.44726 0.0
C308 C 0.55436 0.8468 0.46074 0.0
C309 C 0.51727 0.84811 0.4563 0.0
C310 C 0.63442 0.88109 0.4619 0.0
C311 C 0.63675 0.75494 0.44028 0.0
H312 H 0.89099 0.74998 0.42196 0.0
H313 H 0.81712 0.73162 0.41599 0.0
H314 H 0.84795 0.85866 0.43104 0.0
H315 H 0.92191 0.87727 0.43708 0.0
H316 H 0.5627 0.94631 0.43562 0.0
H317 H 0.62738 0.94441 0.44379 0.0
H318 H 0.55131 0.81888 0.46793 0.0
H319 H 0.48693 0.82121 0.46034 0.0
Tb320 Tb 0.26058 0.96113 0.42685 0.0
Tb321 Tb 0.22279 0.86331 0.44416 0.0
C322 C 0.23161 0.88456 0.39905 0.0
C323 C 0.27313 0.068 0.42087 0.0
C324 C 0.24926 0.12897 0.42999 0.0
C325 C 0.28592 0.14009 0.41893 0.0
C326 C 0.29771 0.10993 0.41445 0.0
C327 C 0.23612 0.05638 0.43165 0.0
C328 C 0.22417 0.08659 0.43611 0.0
C329 C 0.28695 0.03704 0.41662 0.0
O330 O 0.1916 0.92924 0.42417 0.0
O331 O 0.17188 0.87792 0.44769 0.0
O332 O 0.25335 0.90945 0.46772 0.0
O333 O 0.23955 0.95981 0.45589 0.0
O334 O 0.17317 0.80005 0.44623 0.0
O335 O 0.23159 0.82111 0.462 0.0
O336 O 0.28393 0.88092 0.43152 0.0
O337 O 0.31508 0.95305 0.43472 0.0
O338 O 0.25894 0.92474 0.40212 0.0
O339 O 0.21115 0.85711 0.41302 0.0
C340 C 0.16271 0.90023 0.43558 0.0
O341 O 0.30244 0.02616 0.43116 0.0
O342 O 0.26071 1.00425 0.40647 0.0
C343 C 0.25178 0.94464 0.47005 0.0
C344 C 0.19534 0.74883 0.45185 0.0
C345 C 0.1927 0.67075 0.44424 0.0
C346 C 0.21602 0.69626 0.45994 0.0
C347 C 0.21724 0.73461 0.46369 0.0
C348 C 0.17173 0.72337 0.43617 0.0
C349 C 0.17039 0.68476 0.43243 0.0
C350 C 0.19534 0.78857 0.45697 0.0
C351 C 0.318 0.91841 0.43312 0.0
H352 H 0.30561 0.17227 0.41373 0.0
H353 H 0.32627 0.11945 0.40607 0.0
H354 H 0.21676 0.02407 0.43678 0.0
H355 H 0.19597 0.07705 0.44475 0.0
H356 H 0.23295 0.68625 0.4696 0.0
H357 H 0.23503 0.75301 0.47607 0.0
H358 H 0.15409 0.7331 0.42683 0.0
H359 H 0.15232 0.66613 0.42016 0.0
Tb360 Tb 0.66726 0.76202 0.26178 0.0
Tb361 Tb 0.72973 0.86136 0.24933 0.0
C362 C 0.7109 0.82827 0.29242 0.0
C363 C 0.56808 0.65985 0.26841 0.0
C364 C 0.47863 0.61246 0.26444 0.0
C365 C 0.49779 0.61853 0.28271 0.0
C366 C 0.54204 0.64189 0.28465 0.0
C367 C 0.54902 0.65382 0.25013 0.0
C368 C 0.50478 0.63027 0.24817 0.0
C369 C 0.6146 0.68658 0.271 0.0
O370 O 0.63207 0.79625 0.26596 0.0
O371 O 0.66569 0.84729 0.24279 0.0
O372 O 0.71701 0.81978 0.22379 0.0
O373 O 0.65087 0.7694 0.23292 0.0
O374 O 0.7816 0.90738 0.23326 0.0
O375 O 0.74473 0.92507 0.25125 0.0
O376 O 0.77154 0.83951 0.26009 0.0
O377 O 0.7291 0.7689 0.25299 0.0
O378 O 0.70867 0.79397 0.28551 0.0
O379 O 0.7147 0.85838 0.28049 0.0
C380 C 0.63357 0.8262 0.25458 0.0
O381 O 0.63829 0.69699 0.25553 0.0
O382 O 0.62655 0.71871 0.28255 0.0
C383 C 0.68029 0.7855 0.21977 0.0
C384 C 0.81812 0.97704 0.24675 0.0
C385 C 0.89327 0.05399 0.2561 0.0
C386 C 0.8935 0.02692 0.24172 0.0
C387 C 0.85651 0.98911 0.2371 0.0
C388 C 0.8177 1.00399 0.26116 0.0
C389 C 0.85483 0.04197 0.26579 0.0
C390 C 0.77831 0.93874 0.24037 0.0
C391 C 0.76724 0.8024 0.2559 0.0
H392 H 0.47859 0.60468 0.29549 0.0
H393 H 0.55597 0.6462 0.2989 0.0
H394 H 0.56815 0.66754 0.23736 0.0
H395 H 0.491 0.6264 0.23392 0.0
H396 H 0.92217 0.0354 0.23363 0.0
H397 H 0.85785 0.9697 0.22564 0.0
H398 H 0.78855 0.99608 0.26871 0.0
H399 H 0.85344 0.06183 0.27701 0.0
Tb400 Tb 0.29404 0.91047 0.26045 0.0
Tb401 Tb 0.19741 0.87188 0.24136 0.0
C402 C 0.21408 0.86994 0.28564 0.0
C403 C 0.39645 0.91852 0.27567 0.0
C404 C 0.45078 0.88354 0.27587 0.0
C405 C 0.40631 0.85696 0.27633 0.0
C406 C 0.37934 0.87433 0.2761 0.0
C407 C 0.44068 0.94501 0.27609 0.0
C408 C 0.46758 0.92774 0.27619 0.0
C409 C 0.36935 0.93749 0.2721 0.0
O410 O 0.27825 0.8481 0.24922 0.0
O411 O 0.20544 0.8176 0.24615 0.0
O412 O 0.24301 0.88228 0.21801 0.0
O413 O 0.29673 0.93903 0.23281 0.0
O414 O 0.13398 0.82238 0.2414 0.0
O415 O 0.15418 0.87561 0.22203 0.0
O416 O 0.22148 0.93917 0.24446 0.0
O417 O 0.27575 0.95867 0.26676 0.0
O418 O 0.24816 0.8681 0.28127 0.0
O419 O 0.19436 0.88017 0.27251 0.0
C420 C 0.24012 0.81486 0.24686 0.0
O421 O 0.35875 0.93704 0.25411 0.0
O422 O 0.33718 0.92695 0.28367 0.0
C423 C 0.28123 0.91621 0.21735 0.0
C424 C 0.0817 0.84102 0.23338 0.0
C425 C 1.00305 0.83781 0.24116 0.0
C426 C 1.00735 0.80169 0.24365 0.0
C427 C 0.04604 0.80327 0.23974 0.0
C428 C 0.07757 0.87719 0.23079 0.0
C429 C 0.03877 0.87557 0.23461 0.0
C430 C 0.12185 0.84102 0.22885 0.0
C431 C 0.24863 0.9662 0.25699 0.0
H432 H 0.3924 0.82282 0.27597 0.0
H433 H 0.34524 0.85333 0.27551 0.0
H434 H 0.4545 0.97916 0.27559 0.0
H435 H 0.50166 0.94906 0.2761 0.0
H436 H 0.98099 0.7722 0.24889 0.0
H437 H 0.04807 0.77475 0.24173 0.0
H438 H 0.10419 0.90671 0.22571 0.0
H439 H 0.0367 0.90394 0.23218 0.0
Tb440 Tb 0.1448 0.39053 0.2644 0.0
Tb441 Tb 0.18472 0.33052 0.24925 0.0
C442 C 0.18794 0.35701 0.29244 0.0
C443 C 0.14059 0.48837 0.27368 0.0
C444 C 0.18161 0.57763 0.26979 0.0
C445 C 0.13698 0.55275 0.26885 0.0
C446 C 0.11674 0.50862 0.27076 0.0
C447 C 0.18509 0.51305 0.27522 0.0
C448 C 0.20542 0.55736 0.27342 0.0
C449 C 0.11919 0.44172 0.27247 0.0
O450 O 0.20659 0.43452 0.25164 0.0
O451 O 0.23867 0.39337 0.25206 0.0
O452 O 0.17509 0.36318 0.22448 0.0
O453 O 0.11666 0.35961 0.23762 0.0
O454 O 0.23339 0.31522 0.25138 0.0
O455 O 0.18231 0.28359 0.2308 0.0
O456 O 0.11767 0.28707 0.25376 0.0
O457 O 0.09596 0.32559 0.27251 0.0
O458 O 0.18709 0.39088 0.28656 0.0
O459 O 0.17858 0.32522 0.28069 0.0
C460 C 0.24034 0.43004 0.25038 0.0
O461 O 0.11855 0.42754 0.2552 0.0
O462 O 0.12866 0.42163 0.28551 0.0
C463 C 0.14078 0.36664 0.22263 0.0
C464 C 0.215 0.24509 0.24318 0.0
C465 C 0.21484 0.16803 0.25013 0.0
C466 C 0.1773 0.17033 0.25215 0.0
C467 C 0.17737 0.20845 0.24873 0.0
C468 C 0.25265 0.24322 0.24169 0.0
C469 C 0.25264 0.20522 0.24514 0.0
C470 C 0.21617 0.28544 0.23849 0.0
C471 C 0.0897 0.2895 0.26495 0.0
H472 H 0.11765 0.56739 0.26637 0.0
H473 H 0.08246 0.49017 0.26933 0.0
H474 H 0.20417 0.49797 0.27718 0.0
H475 H 0.23981 0.57556 0.27412 0.0
H476 H 0.14769 0.14251 0.25622 0.0
H477 H 0.14798 0.20914 0.25018 0.0
H478 H 0.28209 0.27114 0.23748 0.0
H479 H 0.282 0.20468 0.24322 0.0
Tb480 Tb 0.79149 0.67838 0.76777 0.0
Tb481 Tb 0.89162 0.73954 0.78244 0.0
C482 C 0.86727 0.71011 0.73963 0.0
C483 C 0.69016 0.58057 0.75742 0.0
C484 C 0.63809 0.49156 0.75581 0.0
C485 C 0.6325 0.51778 0.7425 0.0
C486 C 0.65821 0.56196 0.74338 0.0
C487 C 0.69685 0.55429 0.77023 0.0
C488 C 0.6709 0.51027 0.7695 0.0
C489 C 0.71507 0.62718 0.75922 0.0
O490 O 0.80994 0.63523 0.78115 0.0
O491 O 0.88288 0.67652 0.77951 0.0
O492 O 0.84997 0.70794 0.80751 0.0
O493 O 0.7947 0.7107 0.79412 0.0
O494 O 0.95539 0.75432 0.78082 0.0
O495 O 0.93668 0.78814 0.80027 0.0
O496 O 0.86808 0.78293 0.77663 0.0
O497 O 0.80704 0.74226 0.75849 0.0
O498 O 0.83319 0.67656 0.74612 0.0
O499 O 0.89005 0.74292 0.75086 0.0
C500 C 0.84825 0.63957 0.78166 0.0
O501 O 0.72825 0.64131 0.77658 0.0
O502 O 0.74461 0.6477 0.74632 0.0
C503 C 0.81215 0.70441 0.80927 0.0
C504 C 1.00825 0.82566 0.78774 0.0
C505 C 0.08749 0.90053 0.78044 0.0
C506 C 0.05471 0.90223 0.79058 0.0
C507 C 1.01572 0.86536 0.79422 0.0
C508 C 0.04094 0.8239 0.77762 0.0
C509 C 0.07992 0.86076 0.77397 0.0
C510 C 0.96852 0.78568 0.79291 0.0
C511 C 0.83686 0.77891 0.76545 0.0
H512 H 0.6073 0.50418 0.73185 0.0
H513 H 0.65258 0.58162 0.73335 0.0
H514 H 0.72157 0.56778 0.7811 0.0
H515 H 0.67625 0.49082 0.77977 0.0
H516 H 0.05944 0.93205 0.79612 0.0
H517 H 0.99171 0.86795 0.80238 0.0
H518 H 0.03661 0.7938 0.77268 0.0
H519 H 0.10403 0.85806 0.76595 0.0
Tb520 Tb 0.42625 0.15373 0.76291 0.0
Tb521 Tb 0.36752 0.19067 0.7821 0.0
C522 C 0.37847 0.1853 0.73672 0.0
C523 C 0.52338 0.14834 0.75315 0.0
C524 C 0.61206 0.18203 0.75774 0.0
C525 C 0.5856 0.13955 0.75216 0.0
C526 C 0.54171 0.12293 0.74987 0.0
C527 C 0.54954 0.19064 0.75888 0.0
C528 C 0.59346 0.20738 0.76105 0.0
C529 C 0.47712 0.13066 0.75066 0.0
O530 O 0.46184 0.22297 0.761 0.0
O531 O 0.43353 0.23728 0.7874 0.0
O532 O 0.38129 0.15574 0.80454 0.0
O533 O 0.44525 0.16957 0.79249 0.0
O534 O 0.35837 0.24287 0.78643 0.0
O535 O 0.31589 0.18198 0.79921 0.0
O536 O 0.32313 0.13137 0.76865 0.0
O537 O 0.36338 0.09858 0.76979 0.0
O538 O 0.38882 0.15587 0.7393 0.0
O539 O 0.37395 0.20631 0.75113 0.0
C540 C 0.46345 0.24927 0.77433 0.0
O541 O 0.454 0.11509 0.76614 0.0
O542 O 0.46576 0.15403 0.74079 0.0
C543 C 0.41762 0.15588 0.80651 0.0
C544 C 0.2866 0.22623 0.79059 0.0
C545 C 0.21711 0.23899 0.78157 0.0
C546 C 0.25737 0.2735 0.7861 0.0
C547 C 0.29159 0.26714 0.79058 0.0
C548 C 0.24644 0.19166 0.78614 0.0
C549 C 0.21219 0.19796 0.78175 0.0
C550 C 0.32317 0.22046 0.79602 0.0
C551 C 0.326 0.09679 0.76901 0.0
H552 H 0.59891 0.11927 0.74931 0.0
H553 H 0.5221 0.09023 0.74546 0.0
H554 H 0.53598 0.21076 0.76166 0.0
H555 H 0.61277 0.24001 0.76559 0.0
H556 H 0.26268 0.30555 0.78594 0.0
H557 H 0.32212 0.29437 0.79408 0.0
H558 H 0.24131 0.15965 0.78615 0.0
H559 H 0.1816 0.17041 0.77873 0.0
Tb560 Tb 0.9513 0.30862 0.77039 0.0
Tb561 Tb 0.92275 0.20824 0.779 0.0
C562 C 0.92624 0.24477 0.73793 0.0
C563 C 0.95768 0.4149 0.76753 0.0
C564 C 0.9318 0.4746 0.77588 0.0
C565 C 0.97025 0.48689 0.76614 0.0
C566 C 0.98301 0.45737 0.76204 0.0
C567 C 0.91886 0.402 0.77697 0.0
C568 C 0.90591 0.43166 0.78106 0.0
C569 C 0.97304 0.38513 0.76353 0.0
O570 O 0.88158 0.2742 0.76785 0.0
O571 O 0.8641 0.2097 0.78203 0.0
O572 O 0.95272 0.24755 0.80482 0.0
O573 O 0.92795 0.29299 0.7993 0.0
O574 O 0.93252 0.15766 0.77263 0.0
O575 O 0.89006 0.15194 0.79571 0.0
O576 O 0.98733 0.23897 0.76843 0.0
O577 O 1.01003 0.30724 0.77772 0.0
O578 O 0.95825 0.27918 0.74496 0.0
O579 O 0.90281 0.21242 0.74941 0.0
C580 C 0.85336 0.23667 0.77486 0.0
O581 O 0.98624 0.37264 0.77837 0.0
O582 O 0.95004 0.35394 0.75185 0.0
C583 C 0.94471 0.27714 0.81096 0.0
C584 C 0.87899 0.08739 0.78089 0.0
C585 C 0.84333 0.99937 0.77386 0.0
C586 C 0.84207 1.01423 0.79241 0.0
C587 C 0.85984 0.05772 0.79587 0.0
C588 C 0.87792 0.07247 0.76209 0.0
C589 C 0.86032 0.02896 0.75863 0.0
C590 C 0.90611 0.13289 0.78577 0.0
C591 C 1.01802 0.27667 0.77318 0.0
H592 H 0.99056 0.5195 0.76162 0.0
H593 H 1.01295 0.46783 0.75466 0.0
H594 H 0.89889 0.36922 0.78132 0.0
H595 H 0.87623 0.42124 0.78863 0.0
H596 H 0.82966 0.9925 0.80453 0.0
H597 H 0.86071 0.06831 0.81053 0.0
H598 H 0.89248 0.09445 0.75019 0.0
H599 H 0.86127 1.0186 0.74413 0.0
Tb600 Tb 0.33497 0.1047 0.59859 0.0
Tb601 Tb 0.39452 0.20043 0.57925 0.0
C602 C 0.38191 0.18644 0.6239 0.0
C603 C 0.24006 0.99813 0.60639 0.0
C604 C 0.15502 0.93625 0.59773 0.0
C605 C 0.16957 0.94404 0.61694 0.0
C606 C 0.21163 0.97457 0.62119 0.0
C607 C 0.2257 0.99064 0.58717 0.0
C608 C 0.18367 0.95983 0.58289 0.0
C609 C 0.28401 0.03102 0.61133 0.0
O610 O 0.29141 0.12224 0.58487 0.0
O611 O 0.33403 0.19414 0.58721 0.0
O612 O 0.35718 0.15691 0.55572 0.0
O613 O 0.35157 0.09738 0.56968 0.0
O614 O 0.44208 0.242 0.5599 0.0
O615 O 0.40876 0.26392 0.57785 0.0
O616 O 0.43526 0.17297 0.58203 0.0
O617 O 0.40077 0.12111 0.60533 0.0
O618 O 0.34668 0.15066 0.62086 0.0
O619 O 0.40976 0.20638 0.61006 0.0
C620 C 0.29627 0.16056 0.58545 0.0
O621 O 0.31337 0.03923 0.59855 0.0
O622 O 0.28829 0.06565 0.61878 0.0
C623 C 0.34863 0.11718 0.55451 0.0
C624 C 0.47965 0.31415 0.56992 0.0
C625 C 0.55473 0.39142 0.57863 0.0
C626 C 0.52607 0.38993 0.56447 0.0
C627 C 0.48903 0.35176 0.56019 0.0
C628 C 0.50792 0.31525 0.5841 0.0
C629 C 0.54513 0.35347 0.58838 0.0
C630 C 0.43947 0.27479 0.56551 0.0
C631 C 0.43495 0.14629 0.59502 0.0
H632 H 0.14852 0.92614 0.62869 0.0
H633 H 0.22197 0.97989 0.63611 0.0
H634 H 0.24685 1.00873 0.57547 0.0
H635 H 0.1734 0.95495 0.56797 0.0
H636 H 0.53255 0.41817 0.55644 0.0
H637 H 0.46756 0.35166 0.54924 0.0
H638 H 0.5011 0.28666 0.59193 0.0
H639 H 0.56611 0.35336 0.59951 0.0
Tb640 Tb 0.96062 0.25252 0.59704 0.0
Tb641 Tb 0.86207 0.21081 0.58136 0.0
C642 C 0.88717 0.22818 0.6255 0.0
C643 C 0.06863 0.26753 0.6038 0.0
C644 C 0.13088 0.24409 0.59677 0.0
C645 C 0.13997 0.27907 0.60852 0.0
C646 C 0.10917 0.29065 0.61198 0.0
C647 C 0.05894 0.23208 0.59235 0.0
C648 C 0.0898 0.22038 0.5889 0.0
C649 C 0.03713 0.28119 0.60702 0.0
O650 O 0.9288 0.18423 0.60266 0.0
O651 O 0.87875 0.1614 0.57859 0.0
O652 O 0.9067 0.24005 0.55689 0.0
O653 O 0.9576 0.22749 0.56883 0.0
O654 O 0.81729 0.21453 0.56319 0.0
O655 O 0.79883 0.16047 0.58177 0.0
O656 O 0.87888 0.27346 0.59164 0.0
O657 O 0.95113 0.30517 0.58737 0.0
O658 O 0.92509 0.25834 0.6204 0.0
O659 O 0.86002 0.20148 0.61283 0.0
C660 C 0.90048 0.15373 0.59166 0.0
O661 O 1.02547 0.29384 0.59169 0.0
O662 O 1.00471 0.25637 0.61785 0.0
C663 C 0.94228 0.23901 0.55451 0.0
C664 C 0.74631 0.18061 0.57541 0.0
C665 C 0.66922 0.17996 0.58375 0.0
C666 C 0.683 0.15736 0.59546 0.0
C667 C 0.7211 0.15769 0.59135 0.0
C668 C 0.73225 0.20277 0.56364 0.0
C669 C 0.69439 0.20253 0.56775 0.0
C670 C 0.7856 0.17967 0.57007 0.0
C671 C 0.91611 0.30765 0.5891 0.0
H672 H 0.17104 0.2976 0.61507 0.0
H673 H 0.11714 0.31794 0.62092 0.0
H674 H 1.02769 0.21383 0.58591 0.0
H675 H 0.08186 0.1935 0.57969 0.0
H676 H 0.66461 0.13981 0.60793 0.0
H677 H 0.73064 0.1398 0.60063 0.0
H678 H 0.75039 0.22004 0.55105 0.0
H679 H 0.68448 0.21961 0.55814 0.0
Tb680 Tb 0.80695 0.72619 0.60109 0.0
Tb681 Tb 0.84884 0.67102 0.58218 0.0
C682 C 0.83897 0.67922 0.62739 0.0
C683 C 0.79136 0.81833 0.60879 0.0
C684 C 0.81497 0.90393 0.601 0.0
C685 C 0.81365 0.88978 0.62007 0.0
C686 C 0.80182 0.8474 0.62391 0.0
C687 C 0.7931 0.83258 0.58973 0.0
C688 C 0.80457 0.87476 0.58589 0.0
C689 C 0.77967 0.77376 0.61306 0.0
O690 O 0.87605 0.76365 0.60384 0.0
O691 O 0.89749 0.73731 0.57892 0.0
O692 O 0.81868 0.68812 0.55865 0.0
O693 O 0.82511 0.74835 0.57205 0.0
O694 O 0.89926 0.65791 0.58052 0.0
O695 O 0.8427 0.62303 0.56341 0.0
O696 O 0.78784 0.62502 0.59421 0.0
O697 O 0.75398 0.66406 0.59242 0.0
O698 O 0.8081 0.68748 0.62446 0.0
O699 O 0.8624 0.67763 0.61327 0.0
C700 C 0.9056 0.76661 0.5919 0.0
O701 O 0.76193 0.74639 0.59916 0.0
O702 O 0.80811 0.76827 0.62217 0.0
C703 C 0.81621 0.7231 0.55736 0.0
C704 C 0.87836 0.58563 0.57371 0.0
C705 C 0.88103 0.50947 0.58034 0.0
C706 C 0.91646 0.54938 0.58447 0.0
C707 C 0.91516 0.58689 0.58114 0.0
C708 C 0.84292 0.54579 0.5696 0.0
C709 C 0.84425 0.50836 0.57286 0.0
C710 C 0.87841 0.62583 0.56901 0.0
C711 C 0.75283 0.62718 0.59306 0.0
H712 H 0.82111 0.91131 0.63206 0.0
H713 H 0.80088 0.83731 0.63874 0.0
H714 H 0.78578 0.81126 0.57771 0.0
H715 H 0.8058 0.88466 0.57102 0.0
H716 H 0.94521 0.55174 0.59043 0.0
H717 H 0.94322 0.61702 0.58425 0.0
H718 H 0.81419 0.54342 0.56358 0.0
H719 H 0.81652 0.47848 0.56912 0.0
H720 H 0.49662 0.89399 0.08242 0.0
H721 H 0.57664 0.95219 0.13212 0.0
H722 H 0.60212 0.90183 0.13068 0.0
H723 H 0.60403 0.84285 0.11488 0.0
H724 H 0.5248 0.78379 0.06524 0.0
H725 H 0.49647 0.83238 0.06725 0.0
C726 C 0.51937 0.89546 0.09303 0.0
C727 C 0.53471 0.92719 0.1073 0.0
C728 C 0.53425 0.86626 0.09212 0.0
C729 C 0.56422 0.9284 0.12091 0.0
C730 C 0.57898 0.89957 0.12011 0.0
C731 C 0.58073 0.84073 0.10441 0.0
C732 C 0.56695 0.80998 0.0898 0.0
C733 C 0.56466 0.86874 0.10565 0.0
C734 C 0.53594 0.80707 0.07666 0.0
C735 C 0.51985 0.83499 0.07776 0.0
H736 H 0.28769 0.74381 0.08592 0.0
H737 H 0.21837 0.79069 0.11826 0.0
H738 H 0.16183 0.71813 0.12463 0.0
H739 H 0.13086 0.64144 0.12016 0.0
H740 H 0.19948 0.59433 0.08733 0.0
H741 H 0.25757 0.66673 0.08225 0.0
C742 C 0.26043 0.73811 0.09454 0.0
C743 C 0.25722 0.77271 0.10151 0.0
C744 C 0.22782 0.69622 0.09806 0.0
C745 C 0.2214 0.76472 0.11248 0.0
C746 C 0.18912 0.7232 0.11621 0.0
C747 C 0.15866 0.6469 0.11203 0.0
C748 C 0.16065 0.61234 0.10414 0.0
C749 C 0.19179 0.6887 0.10893 0.0
C750 C 0.19691 0.62022 0.09354 0.0
C751 C 0.23021 0.66168 0.0906 0.0
H752 H 0.33655 0.55848 0.09925 0.0
H753 H 0.29289 0.43006 0.11839 0.0
H754 H 0.366 0.44667 0.12353 0.0
H755 H 0.44186 0.49555 0.12077 0.0
H756 H 0.48796 0.62422 0.10156 0.0
H757 H 0.41442 0.60997 0.09877 0.0
C758 C 0.34309 0.53434 0.10478 0.0
C759 C 0.30914 0.4928 0.1081 0.0
C760 C 0.3856 0.54412 0.10771 0.0
C761 C 0.31827 0.46193 0.11526 0.0
C762 C 0.36012 0.47146 0.11833 0.0
C763 C 0.43604 0.52073 0.11607 0.0
C764 C 0.47048 0.56079 0.11115 0.0
C765 C 0.39396 0.51213 0.11426 0.0
C766 C 0.46212 0.59309 0.10542 0.0
C767 C 0.42003 0.58483 0.10371 0.0
H768 H 0.91409 0.47661 0.94234 0.0
H769 H 0.97561 0.56268 0.89467 0.0
H770 H 0.92327 0.58597 0.89609 0.0
H771 H 0.86177 0.58441 0.91168 0.0
H772 H 0.79993 0.49856 0.95925 0.0
H773 H 0.85032 0.47255 0.95693 0.0
C774 C 0.91589 0.5002 0.93215 0.0
C775 C 0.94903 0.51794 0.9185 0.0
C776 C 0.88566 0.51371 0.93307 0.0
C777 C 0.95062 0.54843 0.90538 0.0
C778 C 0.92072 0.56194 0.9062 0.0
C779 C 0.85942 0.56008 0.92157 0.0
C780 C 0.82732 0.54367 0.9357 0.0
C781 C 0.88848 0.54527 0.92015 0.0
C782 C 0.8242 0.51158 0.94817 0.0
C783 C 0.85312 0.49682 0.94691 0.0
H784 H 0.49882 0.29426 0.91392 0.0
H785 H 0.57945 0.31452 0.96325 0.0
H786 H 0.60715 0.39112 0.96084 0.0
H787 H 0.60594 0.45209 0.9455 0.0
H788 H 0.52461 0.43051 0.89614 0.0
H789 H 0.49982 0.35489 0.89785 0.0
C790 C 0.52229 0.31541 0.92422 0.0
C791 C 0.53666 0.29861 0.93888 0.0
C792 C 0.53799 0.35928 0.92275 0.0
C793 C 0.56787 0.3266 0.95182 0.0
C794 C 0.5836 0.37039 0.95048 0.0
C795 C 0.58304 0.43092 0.93502 0.0
C796 C 0.5671 0.44721 0.92077 0.0
C797 C 0.56859 0.38709 0.93611 0.0
C798 C 0.53748 0.41912 0.9073 0.0
C799 C 0.52312 0.37571 0.90828 0.0
H800 H 0.66757 0.11264 0.91413 0.0
H801 H 0.61596 0.19502 0.92471 0.0
H802 H 0.68824 0.25531 0.92844 0.0
H803 H 0.76638 0.28372 0.93016 0.0
H804 H 0.81553 0.19893 0.92029 0.0
H805 H 0.74388 0.14066 0.91475 0.0
C806 C 0.67185 0.14376 0.91717 0.0
C807 C 0.63614 0.14906 0.91929 0.0
C808 C 0.71324 0.17795 0.91949 0.0
C809 C 0.64273 0.18988 0.92301 0.0
C810 C 0.68411 0.22435 0.92523 0.0
C811 C 0.76135 0.25246 0.92683 0.0
C812 C 0.79657 0.24594 0.92559 0.0
C813 C 0.71964 0.21862 0.92379 0.0
C814 C 0.78936 0.20524 0.92105 0.0
C815 C 0.74827 0.17171 0.91799 0.0
H816 H 0.17102 0.12413 0.42974 0.0
H817 H 0.30349 0.2084 0.44296 0.0
H818 H 0.28856 0.2652 0.44995 0.0
H819 H 0.23946 0.29239 0.45059 0.0
H820 H 0.1068 0.21019 0.43713 0.0
H821 H 0.12004 0.15092 0.43245 0.0
C822 C 0.19647 0.15479 0.43437 0.0
C823 C 0.2385 0.1621 0.43551 0.0
C824 C 0.18766 0.18768 0.43836 0.0
C825 C 0.27109 0.20209 0.44152 0.0
C826 C 0.26254 0.23458 0.44564 0.0
C827 C 0.2132 0.26149 0.44675 0.0
C828 C 0.17222 0.25598 0.44405 0.0
C829 C 0.22117 0.22796 0.4438 0.0
C830 C 0.13866 0.21544 0.43932 0.0
C831 C 0.1463 0.18158 0.43653 0.0
H832 H 0.91398 0.10009 0.45244 0.0
H833 H 0.92537 0.0917 0.39097 0.0
H834 H 0.87345 1.01568 0.39212 0.0
H835 H 0.82268 0.95195 0.41057 0.0
H836 H 0.80885 0.96224 0.47176 0.0
H837 H 0.86415 0.0368 0.47082 0.0
C838 C 0.90545 0.0815 0.43933 0.0
C839 C 0.92364 0.10147 0.42166 0.0
C840 C 0.87511 0.03806 0.44007 0.0
C841 C 0.91165 0.07711 0.40474 0.0
C842 C 0.88208 0.03363 0.4054 0.0
C843 C 0.83222 0.97044 0.42372 0.0
C844 C 0.81181 0.95152 0.44123 0.0
C845 C 0.86332 1.01378 0.42298 0.0
C846 C 0.824 0.97605 0.4581 0.0
C847 C 0.8556 1.01872 0.45757 0.0
H848 H 0.09082 0.83217 0.44973 0.0
H849 H 0.13471 0.94965 0.41837 0.0
H850 H 0.06152 0.93443 0.41447 0.0
H851 H 0.98471 0.88643 0.41876 0.0
H852 H 0.94067 0.76839 0.44955 0.0
H853 H 1.01409 0.78505 0.45475 0.0
C854 C 0.08444 0.85465 0.44219 0.0
C855 C 0.11833 0.89198 0.43434 0.0
C856 C 0.04214 0.84544 0.43975 0.0
C857 C 0.10932 0.92056 0.42449 0.0
C858 C 0.06742 0.91189 0.42224 0.0
C859 C 0.9912 0.86457 0.42679 0.0
C860 C 0.95719 0.82615 0.43369 0.0
C861 C 0.03353 0.87424 0.42964 0.0
C862 C 0.9662 0.79792 0.44386 0.0
C863 C 1.0082 0.80752 0.44692 0.0
H864 H 0.5169 0.90947 0.25119 0.0
H865 H 0.44917 0.81704 0.29576 0.0
H866 H 0.49852 0.78961 0.29273 0.0
H867 H 0.56298 0.79394 0.27806 0.0
H868 H 0.62909 0.88689 0.23323 0.0
H869 H 0.5785 0.91191 0.2358 0.0
C870 C 0.51307 0.88349 0.26035 0.0
C871 C 0.47975 0.86573 0.27386 0.0
C872 C 0.54136 0.86789 0.25848 0.0
C873 C 0.47459 0.83133 0.28526 0.0
C874 C 0.50289 0.81573 0.28356 0.0
C875 C 0.56613 0.81945 0.26877 0.0
C876 C 0.60013 0.83851 0.25554 0.0
C877 C 0.53667 0.83399 0.2703 0.0
C878 C 0.60351 0.87153 0.2436 0.0
C879 C 0.57455 0.88604 0.24506 0.0
H880 H 0.27545 0.77878 0.26973 0.0
H881 H 0.18909 0.75348 0.22222 0.0
H882 H 0.16561 0.678 0.22426 0.0
H883 H 0.16397 0.61845 0.24153 0.0
H884 H 0.24738 0.64168 0.29003 0.0
H885 H 0.27795 0.71838 0.28556 0.0
C886 C 0.25241 0.75677 0.25952 0.0
C887 C 0.2341 0.77161 0.24579 0.0
C888 C 0.23795 0.71292 0.26119 0.0
C889 C 0.20365 0.74274 0.23287 0.0
C890 C 0.19 0.69954 0.23411 0.0
C891 C 0.18884 0.64028 0.25114 0.0
C892 C 0.20282 0.6243 0.26629 0.0
C893 C 0.20588 0.68414 0.24859 0.0
C894 C 0.23591 0.6531 0.27829 0.0
C895 C 0.25331 0.69698 0.27576 0.0
H896 H 0.43475 0.55209 0.23763 0.0
H897 H 0.41705 0.61389 0.28672 0.0
H898 H 0.34004 0.5664 0.28496 0.0
H899 H 0.27833 0.50256 0.27132 0.0
H900 H 0.29776 0.43879 0.2236 0.0
H901 H 0.37314 0.49243 0.22254 0.0
C902 C 0.41401 0.55574 0.24771 0.0
C903 C 0.43166 0.58629 0.26235 0.0
C904 C 0.36993 0.52797 0.24679 0.0
C905 C 0.4043 0.59017 0.27548 0.0
C906 C 0.36025 0.56317 0.27443 0.0
C907 C 0.29899 0.50129 0.26038 0.0
C908 C 0.28276 0.46721 0.24744 0.0
C909 C 0.34274 0.53132 0.2604 0.0
C910 C 0.30977 0.46505 0.23361 0.0
C911 C 0.35286 0.49549 0.23309 0.0
H912 H 0.9191 0.6379 0.79238 0.0
H913 H 0.78952 0.5562 0.77409 0.0
H914 H 0.80281 0.49647 0.77203 0.0
H915 H 0.85382 0.46952 0.77242 0.0
H916 H 0.98318 0.55296 0.79068 0.0
H917 H 0.96741 0.60991 0.79561 0.0
C918 C 0.89353 0.60695 0.7881 0.0
C919 C 0.85351 0.6017 0.78319 0.0
C920 C 0.90156 0.57312 0.78671 0.0
C921 C 0.82064 0.56117 0.77797 0.0
C922 C 0.82834 0.52707 0.77666 0.0
C923 C 0.87831 0.49997 0.77776 0.0
C924 C 0.91988 0.50715 0.78082 0.0
C925 C 0.86903 0.53292 0.78055 0.0
C926 C 0.95124 0.54683 0.78776 0.0
C927 C 0.94221 0.57941 0.79069 0.0
H928 H 0.59726 0.44248 0.78677 0.0
H929 H 0.61216 0.43663 0.7254 0.0
H930 H 0.5616 0.36023 0.72588 0.0
H931 H 0.51108 0.29558 0.7437 0.0
H932 H 0.49355 0.30312 0.80478 0.0
H933 H 0.54758 0.37817 0.80454 0.0
C934 C 0.58977 0.42435 0.77354 0.0
C935 C 0.6085 0.44505 0.75609 0.0
C936 C 0.56021 0.38074 0.7739 0.0
C937 C 0.59796 0.42137 0.73899 0.0
C938 C 0.56918 0.37772 0.73928 0.0
C939 C 0.5195 0.31359 0.75698 0.0
C940 C 0.49846 0.29381 0.77424 0.0
C941 C 0.54984 0.35711 0.75664 0.0
C942 C 0.50922 0.31765 0.79129 0.0
C943 C 0.54009 0.36057 0.79117 0.0
H944 H 0.65241 0.14461 0.77518 0.0
H945 H 0.67692 0.25941 0.74573 0.0
H946 H 0.75361 0.28752 0.74898 0.0
H947 H 0.81407 0.27835 0.75932 0.0
H948 H 0.78785 0.16265 0.78875 0.0
H949 H 0.71201 0.13633 0.78626 0.0
C950 C 0.6745 0.17569 0.76936 0.0
C951 C 0.65882 0.19967 0.76012 0.0
C952 C 0.71851 0.19162 0.77125 0.0
C953 C 0.68803 0.2403 0.75302 0.0
C954 C 0.73195 0.25634 0.7548 0.0
C955 C 0.79181 0.2475 0.76528 0.0
C956 C 0.8071 0.22263 0.77412 0.0
C957 C 0.74764 0.23217 0.76379 0.0
C958 C 0.77745 0.18268 0.78178 0.0
C959 C 0.73381 0.1674 0.78036 0.0
H960 H 0.12521 0.16579 0.59587 0.0
H961 H 0.21315 0.2993 0.58738 0.0
H962 H 0.27082 0.28456 0.58203 0.0
H963 H 0.29725 0.23497 0.58125 0.0
H964 H 0.21128 0.10115 0.58987 0.0
H965 H 0.15173 0.11472 0.59322 0.0
C966 C 0.15691 0.19155 0.59264 0.0
C967 C 0.16488 0.23372 0.59233 0.0
C968 C 0.19026 0.18284 0.58957 0.0
C969 C 0.20622 0.26671 0.58815 0.0
C970 C 0.23923 0.25829 0.58496 0.0
C971 C 0.2655 0.20855 0.58377 0.0
C972 C 0.25892 0.1671 0.58547 0.0
C973 C 0.23176 0.21664 0.58592 0.0
C974 C 0.21735 0.13338 0.5885 0.0
C975 C 0.18331 0.14118 0.59051 0.0
H976 H 0.87922 0.97636 0.61686 0.0
H977 H 0.77664 0.93221 0.57562 0.0
H978 H 0.79502 1.00523 0.56852 0.0
H979 H 0.83908 0.0816 0.57449 0.0
H980 H 0.94142 0.12603 0.61595 0.0
H981 H 0.92421 0.05313 0.62246 0.0
C982 C 0.86073 0.98271 0.60641 0.0
C983 C 0.82656 0.94872 0.59681 0.0
C984 C 0.87146 0.02492 0.60239 0.0
C985 C 0.80337 0.95767 0.58308 0.0
C986 C 0.81374 0.99947 0.57907 0.0
C987 C 0.85786 0.07547 0.58487 0.0
C988 C 0.8915 0.10948 0.59472 0.0
C989 C 0.84766 0.03336 0.58865 0.0
C990 C 0.9153 0.10064 0.60815 0.0
C991 C 0.90544 0.05887 0.61193 0.0
H992 H 0.08293 0.92246 0.61616 0.0
H993 H 0.1263 0.87647 0.5692 0.0
H994 H 0.05308 0.82116 0.56262 0.0
H995 H 0.97678 0.784 0.57104 0.0
H996 H 0.93415 0.83067 0.61816 0.0
H997 H 1.00677 0.88718 0.62378 0.0
C998 C 0.0764 0.90022 0.60453 0.0
C999 C 0.11019 0.90352 0.59328 0.0
C1000 C 0.03422 0.86846 0.60084 0.0
C1001 C 0.10095 0.87489 0.57802 0.0
C1002 C 0.05906 0.84309 0.5743 0.0
C1003 C 0.98328 0.80667 0.58246 0.0
C1004 C 0.94976 0.80273 0.59417 0.0
C1005 C 1.02542 0.83933 0.58571 0.0
C1006 C 0.95905 0.83263 0.60888 0.0
C1007 C 1.00072 0.86506 0.61217 0.0
H1008 H 0.51884 0.98207 0.04495 0.0
H1009 H 0.5919 0.11772 0.05107 0.0
H1010 H 0.60146 0.12594 0.01595 0.0
H1011 H 0.58028 0.09457 0.98358 0.0
H1012 H 0.50722 0.95861 0.97755 0.0
H1013 H 0.50697 0.95017 1.01262 0.0
C1014 C 0.53793 1.01329 0.03853 0.0
C1015 C 0.5549 0.04931 0.05035 0.0
C1016 C 0.54276 1.01759 0.01843 0.0
C1017 C 0.57915 0.08969 0.04213 0.0
C1018 C 0.58419 0.09431 0.02209 0.0
C1019 C 0.56493 0.06306 0.98995 0.0
C1020 C 0.54321 0.02724 0.97805 0.0
C1021 C 0.56483 0.05854 1.01009 0.0
C1022 C 0.52405 0.98662 0.98641 0.0
C1023 C 0.52369 0.98182 1.00646 0.0
H1024 H 0.11207 0.5215 0.98585 0.0
H1025 H 1.01804 0.5585 0.9753 0.0
H1026 H 1.00559 0.55799 1.01021 0.0
H1027 H 1.01426 0.53563 0.0435 0.0
H1028 H 0.10701 0.49558 0.05202 0.0
H1029 H 0.12726 0.5088 0.01844 0.0
C1030 C 0.08983 0.53077 0.99128 0.0
C1031 C 0.06607 0.54006 0.97823 0.0
C1032 C 0.08191 0.52885 1.01108 0.0
C1033 C 0.03712 0.55181 0.98524 0.0
C1034 C 1.02957 0.55086 1.00516 0.0
C1035 C 0.03921 0.53043 0.03795 0.0
C1036 C 0.05821 0.51341 0.05013 0.0
C1037 C 0.05054 0.53762 0.01821 0.0
C1038 C 0.09092 0.50733 0.04286 0.0
C1039 C 0.10284 0.51519 0.02363 0.0
H1040 H 0.57968 0.51331 0.98295 0.0
H1041 H 0.51116 0.58149 0.97834 0.0
H1042 H 0.50341 0.57952 1.01356 0.0
H1043 H 0.52497 0.56689 0.04552 0.0
H1044 H 0.59399 0.49892 0.05013 0.0
H1045 H 0.59212 0.49146 0.01501 0.0
C1046 C 0.56191 0.52649 0.98972 0.0
C1047 C 0.54563 0.5472 0.97829 0.0
C1048 C 0.55824 0.5257 1.0099 0.0
C1049 C 0.52327 0.56487 0.98699 0.0
C1050 C 0.51928 0.56408 1.00708 0.0
C1051 C 0.53899 0.54982 0.03884 0.0
C1052 C 0.56016 0.53401 0.05035 0.0
C1053 C 0.53796 0.5459 0.01868 0.0
C1054 C 0.57759 0.5114 0.04158 0.0
C1055 C 0.57674 0.50738 0.0215 0.0
H1056 H 0.17152 0.30994 0.38043 0.0
H1057 H 0.23421 0.44605 0.38565 0.0
H1058 H 0.24366 0.4535 0.35058 0.0
H1059 H 0.22618 0.42078 0.31841 0.0
H1060 H 0.16336 0.28455 0.31338 0.0
H1061 H 0.16238 0.27769 0.3485 0.0
C1062 C 0.18781 0.34129 0.37391 0.0
C1063 C 0.20161 0.37741 0.38555 0.0
C1064 C 0.19281 0.34524 0.35381 0.0
C1065 C 0.22329 0.4178 0.37698 0.0
C1066 C 0.22842 0.42203 0.35694 0.0
C1067 C 0.21281 0.38959 0.32499 0.0
C1068 C 0.19428 0.35316 0.31331 0.0
C1069 C 0.21209 0.3859 0.34519 0.0
C1070 C 0.17773 0.31305 0.32203 0.0
C1071 C 0.17693 0.30911 0.34212 0.0
H1072 H 0.65192 0.7803 0.3782 0.0
H1073 H 0.72032 0.91569 0.38567 0.0
H1074 H 0.73127 0.92569 0.35053 0.0
H1075 H 0.72867 0.89428 0.31788 0.0
H1076 H 0.66544 0.75764 0.31351 0.0
H1077 H 0.64569 0.75003 0.34691 0.0
C1078 C 0.6686 0.81211 0.37213 0.0
C1079 C 0.68545 0.8471 0.38444 0.0
C1080 C 0.67649 0.81737 0.35233 0.0
C1081 C 0.70666 0.88815 0.37641 0.0
C1082 C 0.71346 0.89381 0.35635 0.0
C1083 C 0.71042 0.86301 0.32429 0.0
C1084 C 0.69912 0.82669 0.31304 0.0
C1085 C 0.69982 0.85848 0.34417 0.0
C1086 C 0.67522 0.78633 0.32162 0.0
C1087 C 0.66359 0.78172 0.34085 0.0
H1088 H 0.22368 0.82349 0.31383 0.0
H1089 H 0.18409 0.91592 0.30379 0.0
H1090 H 0.1839 0.927 0.33856 0.0
H1091 H 0.20332 0.91645 0.37144 0.0
H1092 H 0.23947 0.82173 0.38181 0.0
H1093 H 0.23272 0.80526 0.34722 0.0
C1094 C 0.21409 0.84535 0.31932 0.0
C1095 C 0.20419 0.8691 0.30633 0.0
C1096 C 0.21412 0.85154 0.3393 0.0
C1097 C 0.19154 0.89709 0.31354 0.0
C1098 C 0.19188 0.90376 0.33339 0.0
C1099 C 0.20914 0.89183 0.36607 0.0
C1100 C 0.22244 0.87065 0.37889 0.0
C1101 C 0.20444 0.88216 0.34633 0.0
C1102 C 0.22935 0.8384 0.37204 0.0
C1103 C 0.22559 0.82913 0.35233 0.0
H1104 H 0.84175 0.64359 0.7155 0.0
H1105 H 0.91157 0.78037 0.71671 0.0
H1106 H 0.91335 0.78251 0.68139 0.0
H1107 H 0.88651 0.74535 0.65034 0.0
H1108 H 0.81508 0.60889 0.64936 0.0
H1109 H 0.82252 0.6065 0.68449 0.0
C1110 C 0.85797 0.67391 0.70805 0.0
C1111 C 0.87605 0.71182 0.7187 0.0
C1112 C 0.85822 0.67482 0.68781 0.0
C1113 C 0.89745 0.75078 0.70886 0.0
C1114 C 0.89817 0.75199 0.68866 0.0
C1115 C 0.8736 0.71518 0.65787 0.0
C1116 C 0.85055 0.67727 0.64751 0.0
C1117 C 0.87748 0.71425 0.67802 0.0
C1118 C 0.83331 0.63827 0.65718 0.0
C1119 C 0.83735 0.63701 0.67721 0.0
H1120 H 0.32531 0.18051 0.65066 0.0
H1121 H 0.45868 0.22428 0.64232 0.0
H1122 H 0.47039 0.23298 0.67724 0.0
H1123 H 0.44025 0.21757 0.71014 0.0
H1124 H 0.30721 0.17464 0.71848 0.0
H1125 H 0.29755 0.17649 0.68347 0.0
C1126 C 0.35711 0.19286 0.6565 0.0
C1127 C 0.39105 0.20127 0.64404 0.0
C1128 C 0.36341 0.19749 0.67653 0.0
C1129 C 0.43216 0.21771 0.65165 0.0
C1130 C 0.43874 0.22231 0.67161 0.0
C1131 C 0.40945 0.20978 0.70423 0.0
C1132 C 0.37437 0.19592 0.71664 0.0
C1133 C 0.40431 0.21079 0.68418 0.0
C1134 C 0.33455 0.18571 0.70907 0.0
C1135 C 0.32906 0.18646 0.6891 0.0
H1136 H 0.91433 0.28968 0.65161 0.0
H1137 H 0.84187 0.15387 0.64611 0.0
H1138 H 0.84436 0.14594 0.68129 0.0
H1139 H 0.87576 0.17858 0.71328 0.0
H1140 H 0.95132 0.31524 0.71654 0.0
H1141 H 0.93921 0.32166 0.68279 0.0
C1142 C 0.89834 0.25832 0.65815 0.0
C1143 C 0.87827 0.22249 0.64638 0.0
C1144 C 0.90126 0.25412 0.67805 0.0
C1145 C 0.8573 0.18201 0.65497 0.0
C1146 C 0.85924 0.1775 0.67505 0.0
C1147 C 0.88921 0.20963 0.70656 0.0
C1148 C 0.91523 0.24622 0.71744 0.0
C1149 C 0.88255 0.2134 0.6867 0.0
C1150 C 0.93203 0.28634 0.70856 0.0
C1151 C 0.92493 0.29025 0.68919 0.0
H1152 H 0.35992 0.98526 0.21323 0.0
H1153 H 0.2683 0.87245 0.18333 0.0
H1154 H 0.31944 0.88888 0.15706 0.0
H1155 H 0.39043 0.93426 0.14312 0.0
H1156 H 0.4818 0.04712 0.1731 0.0
H1157 H 0.43031 0.03109 0.19911 0.0
C1158 C 0.35078 0.9642 0.20094 0.0
C1159 C 0.30999 0.92752 0.20032 0.0
C1160 C 0.38051 0.97358 0.18607 0.0
C1161 C 0.29914 0.90091 0.1842 0.0
C1162 C 0.32855 0.9102 0.16924 0.0
C1163 C 0.39943 0.95537 0.15538 0.0
C1164 C 0.44041 0.99184 0.15617 0.0
C1165 C 0.36944 0.94622 0.17014 0.0
C1166 C 0.45086 1.01882 0.17212 0.0
C1167 C 0.42129 1.0097 0.18696 0.0
H1168 H 0.14119 0.46943 0.14887 0.0
H1169 H 1.02408 0.44939 0.17447 0.0
H1170 H 0.0333 0.40963 0.20099 0.0
H1171 H 0.07416 0.38008 0.21648 0.0
H1172 H 0.19057 0.39954 0.19035 0.0
H1173 H 0.18123 0.43928 0.16397 0.0
C1174 C 0.11761 0.45674 0.16028 0.0
C1175 C 0.08197 0.4628 0.15969 0.0
C1176 C 0.12266 0.43321 0.17515 0.0
C1177 C 0.05188 0.44562 0.1746 0.0
C1178 C 0.05705 0.42262 0.18968 0.0
C1179 C 0.09746 0.3927 0.20497 0.0
C1180 C 0.1331 0.38663 0.20543 0.0
C1181 C 0.09215 0.41598 0.19 0.0
C1182 C 0.16278 0.40336 0.19034 0.0
C1183 C 0.15759 0.42639 0.17534 0.0
H1184 H 0.61075 0.71007 0.21125 0.0
H1185 H 0.73559 0.79925 0.18959 0.0
H1186 H 0.7264 0.7497 0.16364 0.0
H1187 H 0.68347 0.68024 0.1478 0.0
H1188 H 0.56018 0.59044 0.1709 0.0
H1189 H 0.56905 0.64078 0.1962 0.0
C1190 C 0.63615 0.71901 0.20091 0.0
C1191 C 0.67393 0.75868 0.20247 0.0
C1192 C 0.6312 0.68983 0.18654 0.0
C1193 C 0.70611 0.7693 0.18873 0.0
C1194 C 0.70096 0.74074 0.17399 0.0
C1195 C 0.65857 0.67143 0.15845 0.0
C1196 C 0.62111 0.6313 0.15741 0.0
C1197 C 0.66382 0.70071 0.17291 0.0
C1198 C 0.58937 0.62072 0.17137 0.0
C1199 C 0.59431 0.6497 0.18575 0.0
H1200 H 0.98138 0.37499 0.88873 0.0
H1201 H 0.07054 0.47814 0.85269 0.0
H1202 H 0.05464 0.42838 0.82593 0.0
H1203 H 1.01082 0.35659 0.81228 0.0
H1204 H 0.92128 0.25442 0.84842 0.0
H1205 H 0.94275 0.30269 0.87606 0.0
C1206 C 0.99751 0.38678 0.87504 0.0
C1207 C 1.02657 0.43052 0.87258 0.0
C1208 C 0.98844 0.35803 0.85992 0.0
C1209 C 0.04781 0.44485 0.85489 0.0
C1210 C 0.03872 0.41636 0.83964 0.0
C1211 C 0.99678 0.34481 0.82635 0.0
C1212 C 0.96478 0.30203 0.82846 0.0
C1213 C 1.00859 0.37304 0.84193 0.0
C1214 C 0.94649 0.28697 0.84662 0.0
C1215 C 0.9584 0.31473 0.8623 0.0
H1216 H 0.70984 0.60484 0.88386 0.0
H1217 H 0.61236 0.62161 0.85602 0.0
H1218 H 0.66166 0.66093 0.8298 0.0
H1219 H 0.73197 0.69039 0.81486 0.0
H1220 H 0.82964 0.67362 0.84243 0.0
H1221 H 0.78072 0.6351 0.86899 0.0
C1222 C 0.69908 0.61675 0.872 0.0
C1223 C 0.65704 0.60981 0.8719 0.0
C1224 C 0.72782 0.63983 0.85709 0.0
C1225 C 0.64421 0.62608 0.85647 0.0
C1226 C 0.67252 0.64878 0.84151 0.0
C1227 C 0.7429 0.67864 0.82671 0.0
C1228 C 0.78474 0.68512 0.82659 0.0
C1229 C 0.7144 0.65597 0.84172 0.0
C1230 C 0.79792 0.66947 0.84215 0.0
C1231 C 0.76979 0.64716 0.85727 0.0
H1232 H 0.48516 0.14343 0.81181 0.0
H1233 H 0.3699 0.12333 0.83943 0.0
H1234 H 0.38291 0.08717 0.86628 0.0
H1235 H 0.42646 0.06108 0.88168 0.0
H1236 H 0.54189 0.08118 0.85428 0.0
H1237 H 0.52875 0.11701 0.82724 0.0
C1238 C 0.46289 0.13146 0.82374 0.0
C1239 C 0.42658 0.13646 0.82359 0.0
C1240 C 0.47033 0.11026 0.839 0.0
C1241 C 0.39812 0.12028 0.83916 0.0
C1242 C 0.40548 0.0994 0.85448 0.0
C1243 C 0.44881 0.07303 0.86978 0.0
C1244 C 0.48521 0.06823 0.87005 0.0
C1245 C 0.44134 0.09405 0.85448 0.0
C1246 C 0.51359 0.08411 0.85445 0.0
C1247 C 0.50617 0.10483 0.83904 0.0
H1248 H 1.02247 0.25236 0.54933 0.0
H1249 H 0.9261 0.27089 0.52145 0.0
H1250 H 0.97553 0.30899 0.49504 0.0
H1251 H 0.0461 0.33803 0.48034 0.0
H1252 H 0.14269 0.32006 0.50829 0.0
H1253 H 0.09306 0.28134 0.53459 0.0
C1254 C 1.01189 0.26432 0.53742 0.0
C1255 C 0.97022 0.2584 0.53738 0.0
C1256 C 0.04074 0.28686 0.5225 0.0
C1257 C 0.95765 0.2746 0.52184 0.0
C1258 C 0.98605 0.29665 0.5068 0.0
C1259 C 0.05661 0.32591 0.4922 0.0
C1260 C 0.09839 0.33221 0.49231 0.0
C1261 C 1.02775 0.30326 0.50709 0.0
C1262 C 0.11102 0.31603 0.50785 0.0
C1263 C 0.0825 0.29364 0.52282 0.0
H1264 H 0.77675 0.77781 0.47677 0.0
H1265 H 0.7054 0.81607 0.51303 0.0
H1266 H 0.72461 0.78833 0.54144 0.0
H1267 H 0.7634 0.75511 0.55583 0.0
H1268 H 0.83288 0.7152 0.51941 0.0
H1269 H 0.8118 0.74091 0.49088 0.0
C1270 C 0.76538 0.78025 0.49089 0.0
C1271 C 0.74017 0.79972 0.49283 0.0
C1272 C 0.776 0.76368 0.50699 0.0
C1273 C 0.72496 0.80155 0.51116 0.0
C1274 C 0.73598 0.7857 0.52737 0.0
C1275 C 0.77415 0.75233 0.54164 0.0
C1276 C 0.80043 0.73411 0.53972 0.0
C1277 C 0.7618 0.76708 0.52544 0.0
C1278 C 0.81282 0.72918 0.52123 0.0
C1279 C 0.80093 0.7441 0.50499 0.0
H1280 H 0.26814 0.02565 0.47534 0.0
H1281 H 0.27494 0.92363 0.50432 0.0
H1282 H 0.30673 0.96887 0.53251 0.0
H1283 H 0.33274 0.03684 0.54868 0.0
H1284 H 0.3269 0.13956 0.51991 0.0
H1285 H 0.29502 0.09442 0.49158 0.0
C1286 C 0.27622 1.01302 0.48786 0.0
C1287 C 0.26874 0.97092 0.48772 0.0
C1288 C 0.29508 0.03946 0.5039 0.0
C1289 C 0.28003 0.95562 0.50403 0.0
C1290 C 0.29837 0.98158 0.52012 0.0
C1291 C 0.32476 0.04973 0.53623 0.0
C1292 C 0.33239 0.09186 0.5365 0.0
C1293 C 0.30619 0.02354 0.52015 0.0
C1294 C 0.32171 0.10754 0.52012 0.0
C1295 C 0.30324 0.0816 0.50397 0.0
H1296 H 0.46718 0.24878 0.11359 0.0
H1297 H 0.60286 0.31936 0.10409 0.0
H1298 H 0.60334 0.25355 0.09843 0.0
H1299 H 0.56642 0.17614 0.09762 0.0
H1300 H 0.43111 0.10421 0.10784 0.0
H1301 H 0.42945 0.17031 0.11177 0.0
C1302 C 0.49691 0.2498 0.11035 0.0
C1303 C 0.53497 0.28934 0.1093 0.0
C1304 C 0.49708 0.21153 0.10725 0.0
C1305 C 0.57298 0.28976 0.10476 0.0
C1306 C 0.57336 0.252 0.10164 0.0
C1307 C 0.53636 0.17466 0.10058 0.0
C1308 C 0.49891 0.13493 0.10248 0.0
C1309 C 0.53572 0.21273 0.103 0.0
C1310 C 0.46042 0.13412 0.10625 0.0
C1311 C 0.4595 0.172 0.10858 0.0
H1312 H 0.82903 0.22991 0.11927 0.0
H1313 H 0.75854 0.2939 0.1062 0.0
H1314 H 0.82489 0.36011 0.1009 0.0
H1315 H 0.90297 0.40085 0.10106 0.0
H1316 H 0.97403 0.33775 0.11474 0.0
H1317 H 0.90761 0.27065 0.11884 0.0
C1318 C 0.82809 0.25834 0.11536 0.0
C1319 C 0.78843 0.25652 0.11316 0.0
C1320 C 0.86662 0.29672 0.11247 0.0
C1321 C 0.78824 0.29383 0.10775 0.0
C1322 C 0.82632 0.33195 0.10484 0.0
C1323 C 0.90412 0.37245 0.10484 0.0
C1324 C 0.94381 0.37468 0.10758 0.0
C1325 C 0.8657 0.33387 0.10727 0.0
C1326 C 0.94421 0.33727 0.11249 0.0
C1327 C 0.90612 0.29877 0.11489 0.0
H1328 H 0.74879 0.6363 0.10227 0.0
H1329 H 0.66774 0.50513 0.08716 0.0
H1330 H 0.72868 0.49383 0.08726 0.0
H1331 H 0.8034 0.51879 0.09529 0.0
H1332 H 0.88502 0.64948 0.11125 0.0
H1333 H 0.82595 0.66318 0.10733 0.0
C1334 C 0.74485 0.60566 0.09846 0.0
C1335 C 0.70385 0.57167 0.09459 0.0
C1336 C 0.78009 0.59896 0.09913 0.0
C1337 C 0.69902 0.53183 0.09012 0.0
C1338 C 0.73384 0.52525 0.09029 0.0
C1339 C 0.80862 0.55051 0.09753 0.0
C1340 C 0.84873 0.58281 0.10382 0.0
C1341 C 0.77434 0.55821 0.09534 0.0
C1342 C 0.8544 0.62363 0.10681 0.0
C1343 C 0.8206 0.63163 0.10447 0.0
H1344 H 0.3139 0.54051 0.93316 0.0
H1345 H 0.26917 0.43407 0.89462 0.0
H1346 H 0.19623 0.41983 0.89831 0.0
H1347 H 0.14521 0.44063 0.91079 0.0
H1348 H 0.19111 0.5483 0.94862 0.0
H1349 H 0.2627 0.5582 0.94729 0.0
C1350 C 0.28817 0.51375 0.92581 0.0
C1351 C 0.2974 0.48875 0.91348 0.0
C1352 C 0.24613 0.50581 0.9279 0.0
C1353 C 0.26337 0.45446 0.90393 0.0
C1354 C 0.22146 0.44608 0.90612 0.0
C1355 C 0.17073 0.46563 0.91906 0.0
C1356 C 0.16271 0.49364 0.9298 0.0
C1357 C 0.21244 0.47194 0.91783 0.0
C1358 C 0.19636 0.52635 0.94018 0.0
C1359 C 0.23744 0.53216 0.93939 0.0
H1360 H 0.63376 0.83448 0.91286 0.0
H1361 H 0.49942 0.77318 0.92555 0.0
H1362 H 0.49787 0.70614 0.93089 0.0
H1363 H 0.53376 0.66425 0.93121 0.0
H1364 H 0.66826 0.72489 0.91919 0.0
H1365 H 0.67071 0.79294 0.9149 0.0
C1366 C 0.60421 0.80666 0.91705 0.0
C1367 C 0.56665 0.80916 0.91858 0.0
C1368 C 0.60355 0.76799 0.92033 0.0
C1369 C 0.52866 0.77234 0.92381 0.0
C1370 C 0.52778 0.73391 0.92704 0.0
C1371 C 0.56379 0.69232 0.92778 0.0
C1372 C 0.60078 0.68919 0.92548 0.0
C1373 C 0.56491 0.73127 0.92519 0.0
C1374 C 0.6393 0.72618 0.92112 0.0
C1375 C 0.64067 0.76515 0.91856 0.0
H1376 H 0.42824 0.88931 0.9228 0.0
H1377 H 0.36095 0.95545 0.93702 0.0
H1378 H 0.29304 0.88846 0.93524 0.0
H1379 H 0.25263 0.81172 0.92679 0.0
H1380 H 0.3222 0.74777 0.91247 0.0
H1381 H 0.38922 0.81335 0.91698 0.0
C1382 C 0.39879 0.88923 0.92566 0.0
C1383 C 0.39976 0.92757 0.92984 0.0
C1384 C 0.36013 0.85091 0.92436 0.0
C1385 C 0.36123 0.92649 0.9338 0.0
C1386 C 0.32236 0.88818 0.93265 0.0
C1387 C 0.28247 0.81205 0.92492 0.0
C1388 C 0.28219 0.77482 0.91895 0.0
C1389 C 0.32134 0.85026 0.92752 0.0
C1390 C 0.32129 0.77599 0.9166 0.0
C1391 C 0.35973 0.81348 0.91928 0.0
H1392 H 0.12547 0.59317 0.43326 0.0
H1393 H 0.25984 0.6569 0.44617 0.0
H1394 H 0.26005 0.59045 0.44291 0.0
H1395 H 0.22203 0.51397 0.43845 0.0
H1396 H 0.08795 0.44812 0.42534 0.0
H1397 H 0.08794 0.51572 0.42609 0.0
C1398 C 0.1549 0.59262 0.43509 0.0
C1399 C 0.19247 0.63016 0.44033 0.0
C1400 C 0.15489 0.55389 0.43314 0.0
C1401 C 0.23024 0.62857 0.44264 0.0
C1402 C 0.23048 0.59054 0.44065 0.0
C1403 C 0.19271 0.51425 0.43561 0.0
C1404 C 0.1549 0.47582 0.43204 0.0
C1405 C 0.19292 0.55294 0.43628 0.0
C1406 C 0.11751 0.47712 0.42809 0.0
C1407 C 0.11748 0.5158 0.42866 0.0
H1408 H 0.55554 0.73988 0.43651 0.0
H1409 H 0.62714 0.67619 0.4476 0.0
H1410 H 0.56078 0.60893 0.45182 0.0
H1411 H 0.48229 0.56863 0.45349 0.0
H1412 H 0.4115 0.63291 0.44164 0.0
H1413 H 0.47772 0.69946 0.43694 0.0
C1414 C 0.55684 0.71133 0.43976 0.0
C1415 C 0.59656 0.71335 0.44174 0.0
C1416 C 0.51857 0.67279 0.44224 0.0
C1417 C 0.59721 0.67577 0.44593 0.0
C1418 C 0.55919 0.63724 0.44842 0.0
C1419 C 0.48121 0.59702 0.44964 0.0
C1420 C 0.44156 0.59544 0.44808 0.0
C1421 C 0.51964 0.6354 0.44673 0.0
C1422 C 0.44124 0.63299 0.44334 0.0
C1423 C 0.47921 0.67115 0.44049 0.0
H1424 H 0.50455 0.95123 0.44927 0.0
H1425 H 0.44352 0.81867 0.43421 0.0
H1426 H 0.37716 0.81824 0.42802 0.0
H1427 H 0.33546 0.85441 0.42772 0.0
H1428 H 0.39575 0.9872 0.4421 0.0
H1429 H 0.46335 0.9887 0.44722 0.0
C1430 C 0.47696 0.92235 0.44439 0.0
C1431 C 0.47932 0.88488 0.44247 0.0
C1432 C 0.43859 0.92232 0.44065 0.0
C1433 C 0.44277 0.84778 0.43628 0.0
C1434 C 0.40471 0.84754 0.43257 0.0
C1435 C 0.36337 0.88388 0.43185 0.0
C1436 C 0.3602 0.92064 0.43456 0.0
C1437 C 0.4021 0.88446 0.43489 0.0
C1438 C 0.39702 0.95841 0.43984 0.0
C1439 C 0.43575 0.95925 0.44286 0.0
H1440 H 0.84832 0.86356 0.264 0.0
H1441 H 0.77592 0.73614 0.24205 0.0
H1442 H 0.84213 0.73554 0.23571 0.0
H1443 H 0.92095 0.77265 0.23513 0.0
H1444 H 0.99194 0.89974 0.25776 0.0
H1445 H 0.92587 0.8991 0.26468 0.0
C1446 C 0.84674 0.8354 0.25792 0.0
C1447 C 0.80687 0.7999 0.25351 0.0
C1448 C 0.88487 0.83542 0.25418 0.0
C1449 C 0.80594 0.76385 0.24569 0.0
C1450 C 0.84389 0.7636 0.24197 0.0
C1451 C 0.92208 0.80008 0.24178 0.0
C1452 C 0.96187 0.83641 0.24569 0.0
C1453 C 0.88362 0.7994 0.24599 0.0
C1454 C 0.96221 0.87168 0.25413 0.0
C1455 C 0.92429 0.87124 0.25828 0.0
H1456 H 0.18725 0.98275 0.24496 0.0
H1457 H 0.30823 0.04081 0.2744 0.0
H1458 H 0.30784 0.10814 0.27562 0.0
H1459 H 0.27415 0.15121 0.26687 0.0
H1460 H 0.1538 0.09121 0.23677 0.0
H1461 H 0.15299 0.02394 0.23742 0.0
C1462 C 0.21372 1.01 0.2517 0.0
C1463 C 0.24802 1.00664 0.25939 0.0
C1464 C 0.21336 0.04839 0.25222 0.0
C1465 C 0.28147 0.04235 0.26832 0.0
C1466 C 0.2813 0.08092 0.26895 0.0
C1467 C 0.24775 0.12341 0.26045 0.0
C1468 C 0.21397 0.12654 0.25182 0.0
C1469 C 0.24762 0.08448 0.2607 0.0
C1470 C 0.17986 0.08989 0.2438 0.0
C1471 C 0.17951 0.05134 0.24402 0.0
H1472 H 0.9027 0.1325 0.26404 0.0
H1473 H 0.97397 0.06691 0.25866 0.0
H1474 H 0.04025 0.13346 0.26261 0.0
H1475 H 0.07846 0.2105 0.26515 0.0
H1476 H 1.0093 0.27787 0.27084 0.0
H1477 H 0.94177 0.21033 0.26985 0.0
C1478 C 0.93266 0.13264 0.26406 0.0
C1479 C 0.93312 0.09455 0.26066 0.0
C1480 C 0.97109 0.17135 0.26643 0.0
C1481 C 0.97246 0.09563 0.26071 0.0
C1482 C 1.0105 0.13372 0.2631 0.0
C1483 C 0.04863 0.21049 0.26638 0.0
C1484 C 0.04894 0.24926 0.26787 0.0
C1485 C 1.01023 0.17181 0.26555 0.0
C1486 C 1.01 0.24853 0.26975 0.0
C1487 C 0.97139 0.20989 0.26901 0.0
H1488 H 0.78124 0.80285 0.77822 0.0
H1489 H 0.89388 0.8442 0.74382 0.0
H1490 H 0.90345 0.91565 0.74166 0.0
H1491 H 0.88468 0.96809 0.75277 0.0
H1492 H 0.77423 0.92831 0.78874 0.0
H1493 H 0.75894 0.85482 0.78718 0.0
C1494 C 0.80705 0.82732 0.76979 0.0
C1495 C 0.83643 0.81835 0.76088 0.0
C1496 C 0.8132 0.86881 0.76924 0.0
C1497 C 0.87058 0.85043 0.7505 0.0
C1498 C 0.87622 0.89131 0.74942 0.0
C1499 C 0.85665 0.94327 0.75989 0.0
C1500 C 0.83075 0.95391 0.77091 0.0
C1501 C 0.84844 0.90117 0.75918 0.0
C1502 C 0.79502 0.92121 0.78034 0.0
C1503 C 0.78618 0.8791 0.77941 0.0
H1504 H 0.24546 0.08329 0.76512 0.0
H1505 H 0.31457 1.0166 0.77488 0.0
H1506 H 0.24721 0.94999 0.77882 0.0
H1507 H 0.16844 0.91129 0.78108 0.0
H1508 H 0.10073 0.97936 0.77094 0.0
H1509 H 0.16784 0.04473 0.7659 0.0
C1510 C 0.24606 0.05424 0.76799 0.0
C1511 C 0.28539 0.05527 0.76972 0.0
C1512 C 0.20728 1.0162 0.77041 0.0
C1513 C 0.28502 1.01698 0.77339 0.0
C1514 C 0.2464 0.97883 0.77574 0.0
C1515 C 0.16825 0.94027 0.77754 0.0
C1516 C 0.12915 0.9401 0.77662 0.0
C1517 C 0.20728 0.97811 0.77449 0.0
C1518 C 0.13 0.97835 0.77218 0.0
C1519 C 0.16848 1.01585 0.76914 0.0
H1520 H 0.19557 0.29587 0.79689 0.0
H1521 H 0.156 0.19713 0.75423 0.0
H1522 H 0.09346 0.20298 0.74697 0.0
H1523 H 0.04763 0.2326 0.75381 0.0
H1524 H 0.08563 0.33184 0.79587 0.0
H1525 H 0.15183 0.33039 0.80174 0.0
C1526 C 0.17365 0.27603 0.7858 0.0
C1527 C 0.18044 0.24542 0.77643 0.0
C1528 C 0.13751 0.27983 0.78147 0.0
C1529 C 0.1513 0.22005 0.76214 0.0
C1530 C 0.11557 0.22363 0.75781 0.0
C1531 C 0.07058 0.25437 0.76413 0.0
C1532 C 0.06149 0.28216 0.77447 0.0
C1533 C 0.108 0.25284 0.76759 0.0
C1534 C 0.09188 0.31036 0.78761 0.0
C1535 C 0.12955 0.30919 0.79109 0.0
H1536 H 0.51403 0.21226 0.59024 0.0
H1537 H 0.44702 0.07932 0.60499 0.0
H1538 H 0.51429 0.07819 0.60392 0.0
H1539 H 0.59153 0.11426 0.59584 0.0
H1540 H 0.65665 0.24774 0.58156 0.0
H1541 H 0.5907 0.2492 0.58525 0.0
C1542 C 0.51408 0.183 0.59339 0.0
C1543 C 0.47546 0.14578 0.59747 0.0
C1544 C 0.55256 0.18262 0.59258 0.0
C1545 C 0.47628 0.10841 0.60184 0.0
C1546 C 0.51473 0.10775 0.60108 0.0
C1547 C 0.59141 0.14379 0.59381 0.0
C1548 C 0.62912 0.18069 0.58801 0.0
C1549 C 0.55301 0.14452 0.59604 0.0
C1550 C 0.62813 0.21861 0.58549 0.0
C1551 C 0.5904 0.21958 0.58772 0.0
H1552 H 0.85222 0.3248 0.59617 0.0
H1553 H 0.98382 0.38513 0.57873 0.0
H1554 H 0.985 0.45269 0.57481 0.0
H1555 H 0.94774 0.49421 0.57518 0.0
H1556 H 0.81661 0.43324 0.59359 0.0
H1557 H 0.81625 0.36659 0.59797 0.0
C1558 C 0.88132 0.35268 0.59157 0.0
C1559 C 0.91787 0.34956 0.58771 0.0
C1560 C 0.88179 0.39146 0.58933 0.0
C1561 C 0.9552 0.38635 0.58186 0.0
C1562 C 0.95586 0.42508 0.57955 0.0
C1563 C 0.91919 0.46656 0.58038 0.0
C1564 C 0.88208 0.46912 0.5838 0.0
C1565 C 0.91923 0.428 0.58311 0.0
C1566 C 0.8454 0.43244 0.59037 0.0
C1567 C 0.84521 0.39418 0.59304 0.0
H1568 H 0.56614 0.47191 0.58097 0.0
H1569 H 0.63419 0.40287 0.58559 0.0
H1570 H 0.70032 0.46893 0.59134 0.0
H1571 H 0.7396 0.54642 0.59388 0.0
H1572 H 0.67255 0.61635 0.58869 0.0
H1573 H 0.60556 0.54994 0.58426 0.0
C1574 C 0.59544 0.47126 0.58314 0.0
C1575 C 0.59487 0.43212 0.58281 0.0
C1576 C 0.6337 0.50963 0.58632 0.0
C1577 C 0.63326 0.43217 0.58599 0.0
C1578 C 0.67128 0.47008 0.58917 0.0
C1579 C 0.71038 0.54733 0.5919 0.0
C1580 C 0.71142 0.58667 0.59162 0.0
C1581 C 0.67196 0.50901 0.58924 0.0
C1582 C 0.67296 0.58677 0.58902 0.0
C1583 C 0.63455 0.54871 0.58642 0.0
loop_
_geom_bond_atom_site_label_1
_geom_bond_atom_site_label_2
_geom_bond_distance
_geom_bond_site_symmetry_2
_ccdc_geom_bond_type
Tb0 C9 2.764 . S
Tb0 O10 2.325 . S
Tb0 O13 2.303 . S
Tb0 O17 2.322 1_565 S
Tb0 O18 2.349 . S
Tb0 O21 2.415 . S
Tb0 O22 2.399 . S
Tb1 O11 2.322 1_545 S
Tb1 O12 2.349 . S
Tb1 O14 2.415 . S
Tb1 O15 2.399 . S
Tb1 O16 2.325 . S
Tb1 O19 2.303 . S
Tb1 C30 2.764 . S
C2 O18 1.261 1_545 S
C2 O19 1.257 . S
C3 C6 1.358 . S
C3 C7 1.332 . S
C3 C9 1.504 . S
C4 C5 1.373 . S
C4 C8 1.308 . S
C5 C4 1.373 . S
C5 C6 1.429 . S
C5 H32 0.932 . S
C6 C3 1.358 . S
C6 C5 1.429 . S
C6 H33 0.930 . S
C7 C3 1.332 . S
C7 C8 1.394 . S
C7 H34 0.932 . S
C8 C4 1.308 . S
C8 C7 1.394 . S
C8 H35 0.929 . S
C9 Tb0 2.764 . S
C9 C3 1.504 . S
C9 O21 1.239 . S
C9 O22 1.263 . S
O10 Tb0 2.325 . S
O10 C20 1.236 . S
O11 Tb1 2.322 1_565 S
O11 C20 1.257 . S
O12 Tb1 2.349 . S
O12 C23 1.261 1_545 S
O13 Tb0 2.303 . S
O13 C23 1.257 . S
O14 Tb1 2.415 . S
O14 C30 1.239 . S
O15 Tb1 2.399 . S
O15 C30 1.263 . S
O16 Tb1 2.325 . S
O16 C31 1.236 . S
O17 Tb0 2.322 1_545 S
O17 C31 1.257 . S
O18 Tb0 2.349 . S
O18 C2 1.261 1_565 S
O19 Tb1 2.303 . S
O19 C2 1.257 . S
C20 O10 1.236 . S
C20 O11 1.257 . S
O21 Tb0 2.415 . S
O21 C9 1.239 . S
O22 Tb0 2.399 . S
O22 C9 1.263 . S
C23 O12 1.261 1_565 S
C23 O13 1.257 . S
C24 C27 1.358 . S
C24 C28 1.332 . S
C24 C30 1.504 . S
C25 C26 1.373 . S
C25 C29 1.308 . S
C26 C25 1.373 . S
C26 C27 1.429 . S
C26 H36 0.932 . S
C27 C24 1.358 . S
C27 C26 1.429 . S
C27 H37 0.930 . S
C28 C24 1.332 . S
C28 C29 1.394 . S
C28 H38 0.932 . S
C29 C25 1.308 . S
C29 C28 1.394 . S
C29 H39 0.929 . S
C30 Tb1 2.764 . S
C30 O14 1.239 . S
C30 O15 1.263 . S
C30 C24 1.504 . S
C31 O16 1.236 . S
C31 O17 1.257 . S
H32 C5 0.932 . S
H33 C6 0.930 . S
H34 C7 0.932 . S
H35 C8 0.929 . S
H36 C26 0.932 . S
H37 C27 0.930 . S
H38 C28 0.932 . S
H39 C29 0.929 . S
Tb40 C49 2.764 . S
Tb40 O50 2.325 . S
Tb40 O53 2.303 . S
Tb40 O57 2.322 1_455 S
Tb40 O58 2.349 . S
Tb40 O61 2.415 . S
Tb40 O62 2.399 . S
Tb41 O51 2.322 1_655 S
Tb41 O52 2.349 1_655 S
Tb41 O54 2.415 . S
Tb41 O55 2.399 . S
Tb41 O56 2.325 . S
Tb41 O59 2.303 1_655 S
Tb41 C70 2.764 . S
C42 O58 1.261 . S
C42 O59 1.257 . S
C43 C46 1.358 . S
C43 C47 1.332 . S
C43 C49 1.504 . S
C44 C45 1.373 . S
C44 C48 1.308 . S
C45 C44 1.373 . S
C45 C46 1.429 . S
C45 H72 0.932 . S
C46 C43 1.358 . S
C46 C45 1.429 . S
C46 H73 0.930 . S
C47 C43 1.332 . S
C47 C48 1.394 . S
C47 H74 0.932 . S
C48 C44 1.308 . S
C48 C47 1.394 . S
C48 H75 0.929 . S
C49 Tb40 2.764 . S
C49 C43 1.504 . S
C49 O61 1.239 . S
C49 O62 1.263 . S
O50 Tb40 2.325 . S
O50 C60 1.236 . S
O51 Tb41 2.322 1_455 S
O51 C60 1.257 . S
O52 Tb41 2.349 1_455 S
O52 C63 1.261 . S
O53 Tb40 2.303 . S
O53 C63 1.257 . S
O54 Tb41 2.415 . S
O54 C70 1.239 . S
O55 Tb41 2.399 . S
O55 C70 1.263 . S
O56 Tb41 2.325 . S
O56 C71 1.236 . S
O57 Tb40 2.322 1_655 S
O57 C71 1.257 . S
O58 Tb40 2.349 . S
O58 C42 1.261 . S
O59 Tb41 2.303 1_455 S
O59 C42 1.257 . S
C60 O50 1.236 . S
C60 O51 1.257 . S
O61 Tb40 2.415 . S
O61 C49 1.239 . S
O62 Tb40 2.399 . S
O62 C49 1.263 . S
C63 O52 1.261 . S
C63 O53 1.257 . S
C64 C67 1.358 . S
C64 C68 1.332 . S
C64 C70 1.504 . S
C65 C66 1.373 . S
C65 C69 1.308 . S
C66 C65 1.373 . S
C66 C67 1.429 . S
C66 H76 0.932 . S
C67 C64 1.358 . S
C67 C66 1.429 . S
C67 H77 0.930 . S
C68 C64 1.332 . S
C68 C69 1.394 . S
C68 H78 0.932 . S
C69 C65 1.308 . S
C69 C68 1.394 . S
C69 H79 0.929 . S
C70 Tb41 2.764 . S
C70 O54 1.239 . S
C70 O55 1.263 . S
C70 C64 1.504 . S
C71 O56 1.236 . S
C71 O57 1.257 . S
H72 C45 0.932 . S
H73 C46 0.930 . S
H74 C47 0.932 . S
H75 C48 0.929 . S
H76 C66 0.932 . S
H77 C67 0.930 . S
H78 C68 0.932 . S
H79 C69 0.929 . S
Tb80 C89 2.764 . S
Tb80 O90 2.325 . S
Tb80 O93 2.303 . S
Tb80 O97 2.322 . S
Tb80 O98 2.349 . S
Tb80 O101 2.415 . S
Tb80 O102 2.399 . S
Tb81 O91 2.322 . S
Tb81 O92 2.349 . S
Tb81 O94 2.415 . S
Tb81 O95 2.399 . S
Tb81 O96 2.325 . S
Tb81 O99 2.303 . S
Tb81 C110 2.764 . S
C82 O98 1.261 . S
C82 O99 1.257 . S
C83 C86 1.358 . S
C83 C87 1.332 . S
C83 C89 1.504 . S
C84 C85 1.373 . S
C84 C88 1.308 . S
C85 C84 1.373 . S
C85 C86 1.429 . S
C85 H112 0.932 . S
C86 C83 1.358 . S
C86 C85 1.429 . S
C86 H113 0.930 . S
C87 C83 1.332 . S
C87 C88 1.394 . S
C87 H114 0.932 . S
C88 C84 1.308 . S
C88 C87 1.394 . S
C88 H115 0.929 . S
C89 Tb80 2.764 . S
C89 C83 1.504 . S
C89 O101 1.239 . S
C89 O102 1.263 . S
O90 Tb80 2.325 . S
O90 C100 1.236 . S
O91 Tb81 2.322 . S
O91 C100 1.257 . S
O92 Tb81 2.349 . S
O92 C103 1.261 . S
O93 Tb80 2.303 . S
O93 C103 1.257 . S
O94 Tb81 2.415 . S
O94 C110 1.239 . S
O95 Tb81 2.399 . S
O95 C110 1.263 . S
O96 Tb81 2.325 . S
O96 C111 1.236 . S
O97 Tb80 2.322 . S
O97 C111 1.257 . S
O98 Tb80 2.349 . S
O98 C82 1.261 . S
O99 Tb81 2.303 . S
O99 C82 1.257 . S
C100 O90 1.236 . S
C100 O91 1.257 . S
O101 Tb80 2.415 . S
O101 C89 1.239 . S
O102 Tb80 2.399 . S
O102 C89 1.263 . S
C103 O92 1.261 . S
C103 O93 1.257 . S
C104 C107 1.358 . S
C104 C108 1.332 . S
C104 C110 1.504 . S
C105 C106 1.373 . S
C105 C109 1.308 . S
C106 C105 1.373 . S
C106 C107 1.429 . S
C106 H116 0.932 . S
C107 C104 1.358 . S
C107 C106 1.429 . S
C107 H117 0.930 . S
C108 C104 1.332 . S
C108 C109 1.394 . S
C108 H118 0.932 . S
C109 C105 1.308 . S
C109 C108 1.394 . S
C109 H119 0.929 . S
C110 Tb81 2.764 . S
C110 O94 1.239 . S
C110 O95 1.263 . S
C110 C104 1.504 . S
C111 O96 1.236 . S
C111 O97 1.257 . S
H112 C85 0.932 . S
H113 C86 0.930 . S
H114 C87 0.932 . S
H115 C88 0.929 . S
H116 C106 0.932 . S
H117 C107 0.930 . S
H118 C108 0.932 . S
H119 C109 0.929 . S
Tb120 C129 2.764 . S
Tb120 O130 2.325 . S
Tb120 O133 2.303 . S
Tb120 O137 2.322 1_655 S
Tb120 O138 2.349 . S
Tb120 O141 2.415 . S
Tb120 O142 2.399 . S
Tb121 O131 2.322 1_455 S
Tb121 O132 2.349 . S
Tb121 O134 2.415 . S
Tb121 O135 2.399 . S
Tb121 O136 2.325 . S
Tb121 O139 2.303 . S
Tb121 C150 2.764 . S
C122 O138 1.261 1_455 S
C122 O139 1.257 . S
C123 C126 1.358 . S
C123 C127 1.332 . S
C123 C129 1.504 . S
C124 C125 1.373 . S
C124 C128 1.308 . S
C125 C124 1.373 . S
C125 C126 1.429 . S
C125 H152 0.932 . S
C126 C123 1.358 . S
C126 C125 1.429 . S
C126 H153 0.930 . S
C127 C123 1.332 . S
C127 C128 1.394 . S
C127 H154 0.932 . S
C128 C124 1.308 . S
C128 C127 1.394 . S
C128 H155 0.929 . S
C129 Tb120 2.764 . S
C129 C123 1.504 . S
C129 O141 1.239 . S
C129 O142 1.263 . S
O130 Tb120 2.325 . S
O130 C140 1.236 . S
O131 Tb121 2.322 1_655 S
O131 C140 1.257 . S
O132 Tb121 2.349 . S
O132 C143 1.261 1_455 S
O133 Tb120 2.303 . S
O133 C143 1.257 . S
O134 Tb121 2.415 . S
O134 C150 1.239 . S
O135 Tb121 2.399 . S
O135 C150 1.263 . S
O136 Tb121 2.325 . S
O136 C151 1.236 . S
O137 Tb120 2.322 1_455 S
O137 C151 1.257 . S
O138 Tb120 2.349 . S
O138 C122 1.261 1_655 S
O139 Tb121 2.303 . S
O139 C122 1.257 . S
C140 O130 1.236 . S
C140 O131 1.257 . S
O141 Tb120 2.415 . S
O141 C129 1.239 . S
O142 Tb120 2.399 . S
O142 C129 1.263 . S
C143 O132 1.261 1_655 S
C143 O133 1.257 . S
C144 C147 1.358 . S
C144 C148 1.332 . S
C144 C150 1.504 . S
C145 C146 1.373 . S
C145 C149 1.308 . S
C146 C145 1.373 . S
C146 C147 1.429 . S
C146 H156 0.932 . S
C147 C144 1.358 . S
C147 C146 1.429 . S
C147 H157 0.930 . S
C148 C144 1.332 . S
C148 C149 1.394 . S
C148 H158 0.932 . S
C149 C145 1.308 . S
C149 C148 1.394 . S
C149 H159 0.929 . S
C150 Tb121 2.764 . S
C150 O134 1.239 . S
C150 O135 1.263 . S
C150 C144 1.504 . S
C151 O136 1.236 . S
C151 O137 1.257 . S
H152 C125 0.932 . S
H153 C126 0.930 . S
H154 C127 0.932 . S
H155 C128 0.929 . S
H156 C146 0.932 . S
H157 C147 0.930 . S
H158 C148 0.932 . S
H159 C149 0.929 . S
Tb160 C169 2.764 . S
Tb160 O170 2.325 . S
Tb160 O173 2.303 . S
Tb160 O177 2.322 . S
Tb160 O178 2.349 . S
Tb160 O181 2.415 . S
Tb160 O182 2.399 . S
Tb161 O171 2.322 . S
Tb161 O172 2.349 . S
Tb161 O174 2.415 . S
Tb161 O175 2.399 . S
Tb161 O176 2.325 . S
Tb161 O179 2.303 . S
Tb161 C190 2.764 . S
C162 O178 1.261 . S
C162 O179 1.257 . S
C163 C166 1.358 . S
C163 C167 1.332 . S
C163 C169 1.504 . S
C164 C165 1.373 . S
C164 C168 1.308 . S
C165 C164 1.373 . S
C165 C166 1.429 . S
C165 H192 0.932 . S
C166 C163 1.358 . S
C166 C165 1.429 . S
C166 H193 0.930 . S
C167 C163 1.332 . S
C167 C168 1.394 . S
C167 H194 0.932 . S
C168 C164 1.308 . S
C168 C167 1.394 . S
C168 H195 0.929 . S
C169 Tb160 2.764 . S
C169 C163 1.504 . S
C169 O181 1.239 . S
C169 O182 1.263 . S
O170 Tb160 2.325 . S
O170 C180 1.236 . S
O171 Tb161 2.322 . S
O171 C180 1.257 . S
O172 Tb161 2.349 . S
O172 C183 1.261 . S
O173 Tb160 2.303 . S
O173 C183 1.257 . S
O174 Tb161 2.415 . S
O174 C190 1.239 . S
O175 Tb161 2.399 . S
O175 C190 1.263 . S
O176 Tb161 2.325 . S
O176 C191 1.236 . S
O177 Tb160 2.322 . S
O177 C191 1.257 . S
O178 Tb160 2.349 . S
O178 C162 1.261 . S
O179 Tb161 2.303 . S
O179 C162 1.257 . S
C180 O170 1.236 . S
C180 O171 1.257 . S
O181 Tb160 2.415 . S
O181 C169 1.239 . S
O182 Tb160 2.399 . S
O182 C169 1.263 . S
C183 O172 1.261 . S
C183 O173 1.257 . S
C184 C187 1.358 . S
C184 C188 1.332 . S
C184 C190 1.504 . S
C185 C186 1.373 . S
C185 C189 1.308 . S
C186 C185 1.373 . S
C186 C187 1.429 . S
C186 H196 0.932 . S
C187 C184 1.358 . S
C187 C186 1.429 . S
C187 H197 0.930 . S
C188 C184 1.332 . S
C188 C189 1.394 . S
C188 H198 0.932 . S
C189 C185 1.308 . S
C189 C188 1.394 . S
C189 H199 0.929 . S
C190 Tb161 2.764 . S
C190 O174 1.239 . S
C190 O175 1.263 . S
C190 C184 1.504 . S
C191 O176 1.236 . S
C191 O177 1.257 . S
H192 C165 0.932 . S
H193 C166 0.930 . S
H194 C167 0.932 . S
H195 C168 0.929 . S
H196 C186 0.932 . S
H197 C187 0.930 . S
H198 C188 0.932 . S
H199 C189 0.929 . S
Tb200 C209 2.764 . S
Tb200 O210 2.325 . S
Tb200 O213 2.303 . S
Tb200 O217 2.322 1_545 S
Tb200 O218 2.349 . S
Tb200 O221 2.415 . S
Tb200 O222 2.399 . S
Tb201 O211 2.322 1_565 S
Tb201 O212 2.349 1_565 S
Tb201 O214 2.415 . S
Tb201 O215 2.399 . S
Tb201 O216 2.325 . S
Tb201 O219 2.303 1_565 S
Tb201 C230 2.764 . S
C202 O218 1.261 . S
C202 O219 1.257 . S
C203 C206 1.358 . S
C203 C207 1.332 . S
C203 C209 1.504 . S
C204 C205 1.373 . S
C204 C208 1.308 . S
C205 C204 1.373 . S
C205 C206 1.429 . S
C205 H232 0.932 . S
C206 C203 1.358 . S
C206 C205 1.429 . S
C206 H233 0.930 . S
C207 C203 1.332 . S
C207 C208 1.394 . S
C207 H234 0.932 . S
C208 C204 1.308 . S
C208 C207 1.394 . S
C208 H235 0.929 . S
C209 Tb200 2.764 . S
C209 C203 1.504 . S
C209 O221 1.239 . S
C209 O222 1.263 . S
O210 Tb200 2.325 . S
O210 C220 1.236 . S
O211 Tb201 2.322 1_545 S
O211 C220 1.257 . S
O212 Tb201 2.349 1_545 S
O212 C223 1.261 . S
O213 Tb200 2.303 . S
O213 C223 1.257 . S
O214 Tb201 2.415 . S
O214 C230 1.239 . S
O215 Tb201 2.399 . S
O215 C230 1.263 . S
O216 Tb201 2.325 . S
O216 C231 1.236 . S
O217 Tb200 2.322 1_565 S
O217 C231 1.257 . S
O218 Tb200 2.349 . S
O218 C202 1.261 . S
O219 Tb201 2.303 1_545 S
O219 C202 1.257 . S
C220 O210 1.236 . S
C220 O211 1.257 . S
O221 Tb200 2.415 . S
O221 C209 1.239 . S
O222 Tb200 2.399 . S
O222 C209 1.263 . S
C223 O212 1.261 . S
C223 O213 1.257 . S
C224 C227 1.358 . S
C224 C228 1.332 . S
C224 C230 1.504 . S
C225 C226 1.373 . S
C225 C229 1.308 . S
C226 C225 1.373 . S
C226 C227 1.429 . S
C226 H236 0.932 . S
C227 C224 1.358 . S
C227 C226 1.429 . S
C227 H237 0.930 . S
C228 C224 1.332 . S
C228 C229 1.394 . S
C228 H238 0.932 . S
C229 C225 1.308 . S
C229 C228 1.394 . S
C229 H239 0.929 . S
C230 Tb201 2.764 . S
C230 O214 1.239 . S
C230 O215 1.263 . S
C230 C224 1.504 . S
C231 O216 1.236 . S
C231 O217 1.257 . S
H232 C205 0.932 . S
H233 C206 0.930 . S
H234 C207 0.932 . S
H235 C208 0.929 . S
H236 C226 0.932 . S
H237 C227 0.930 . S
H238 C228 0.932 . S
H239 C229 0.929 . S
Tb240 C249 2.764 . S
Tb240 O250 2.325 . S
Tb240 O253 2.303 . S
Tb240 O257 2.322 . S
Tb240 O258 2.349 . S
Tb240 O261 2.415 . S
Tb240 O262 2.399 . S
Tb241 O251 2.322 . S
Tb241 O252 2.349 . S
Tb241 O254 2.415 . S
Tb241 O255 2.399 . S
Tb241 O256 2.325 . S
Tb241 O259 2.303 . S
Tb241 C270 2.764 . S
C242 O258 1.261 . S
C242 O259 1.257 . S
C243 C246 1.358 . S
C243 C247 1.332 . S
C243 C249 1.504 1_655 S
C244 C245 1.373 . S
C244 C248 1.308 . S
C245 C244 1.373 . S
C245 C246 1.429 . S
C245 H272 0.932 . S
C246 C243 1.358 . S
C246 C245 1.429 . S
C246 H273 0.930 . S
C247 C243 1.332 . S
C247 C248 1.394 . S
C247 H274 0.932 . S
C248 C244 1.308 . S
C248 C247 1.394 . S
C248 H275 0.929 . S
C249 Tb240 2.764 . S
C249 C243 1.504 1_455 S
C249 O261 1.239 . S
C249 O262 1.263 . S
O250 Tb240 2.325 . S
O250 C260 1.236 . S
O251 Tb241 2.322 . S
O251 C260 1.257 . S
O252 Tb241 2.349 . S
O252 C263 1.261 . S
O253 Tb240 2.303 . S
O253 C263 1.257 . S
O254 Tb241 2.415 . S
O254 C270 1.239 . S
O255 Tb241 2.399 . S
O255 C270 1.263 . S
O256 Tb241 2.325 . S
O256 C271 1.236 . S
O257 Tb240 2.322 . S
O257 C271 1.257 . S
O258 Tb240 2.349 . S
O258 C242 1.261 . S
O259 Tb241 2.303 . S
O259 C242 1.257 . S
C260 O250 1.236 . S
C260 O251 1.257 . S
O261 Tb240 2.415 . S
O261 C249 1.239 . S
O262 Tb240 2.399 . S
O262 C249 1.263 . S
C263 O252 1.261 . S
C263 O253 1.257 . S
C264 C267 1.358 . S
C264 C268 1.332 . S
C264 C270 1.504 . S
C265 C266 1.373 . S
C265 C269 1.308 . S
C266 C265 1.373 . S
C266 C267 1.429 . S
C266 H276 0.932 . S
C267 C264 1.358 . S
C267 C266 1.429 . S
C267 H277 0.930 . S
C268 C264 1.332 . S
C268 C269 1.394 . S
C268 H278 0.932 . S
C269 C265 1.308 . S
C269 C268 1.394 . S
C269 H279 0.929 . S
C270 Tb241 2.764 . S
C270 O254 1.239 . S
C270 O255 1.263 . S
C270 C264 1.504 . S
C271 O256 1.236 . S
C271 O257 1.257 . S
H272 C245 0.932 . S
H273 C246 0.930 . S
H274 C247 0.932 . S
H275 C248 0.929 . S
H276 C266 0.932 . S
H277 C267 0.930 . S
H278 C268 0.932 . S
H279 C269 0.929 . S
Tb280 C289 2.764 . S
Tb280 O290 2.325 . S
Tb280 O293 2.303 . S
Tb280 O297 2.322 . S
Tb280 O298 2.349 . S
Tb280 O301 2.415 . S
Tb280 O302 2.399 . S
Tb281 O291 2.322 . S
Tb281 O292 2.349 . S
Tb281 O294 2.415 . S
Tb281 O295 2.399 . S
Tb281 O296 2.325 . S
Tb281 O299 2.303 . S
Tb281 C310 2.764 . S
C282 O298 1.261 . S
C282 O299 1.257 . S
C283 C286 1.358 . S
C283 C287 1.332 . S
C283 C289 1.504 . S
C284 C285 1.373 . S
C284 C288 1.308 . S
C285 C284 1.373 . S
C285 C286 1.429 . S
C285 H312 0.932 . S
C286 C283 1.358 . S
C286 C285 1.429 . S
C286 H313 0.930 . S
C287 C283 1.332 . S
C287 C288 1.394 . S
C287 H314 0.932 . S
C288 C284 1.308 . S
C288 C287 1.394 . S
C288 H315 0.929 . S
C289 Tb280 2.764 . S
C289 C283 1.504 . S
C289 O301 1.239 . S
C289 O302 1.263 . S
O290 Tb280 2.325 . S
O290 C300 1.236 . S
O291 Tb281 2.322 . S
O291 C300 1.257 . S
O292 Tb281 2.349 . S
O292 C303 1.261 . S
O293 Tb280 2.303 . S
O293 C303 1.257 . S
O294 Tb281 2.415 . S
O294 C310 1.239 . S
O295 Tb281 2.399 . S
O295 C310 1.263 . S
O296 Tb281 2.325 . S
O296 C311 1.236 . S
O297 Tb280 2.322 . S
O297 C311 1.257 . S
O298 Tb280 2.349 . S
O298 C282 1.261 . S
O299 Tb281 2.303 . S
O299 C282 1.257 . S
C300 O290 1.236 . S
C300 O291 1.257 . S
O301 Tb280 2.415 . S
O301 C289 1.239 . S
O302 Tb280 2.399 . S
O302 C289 1.263 . S
C303 O292 1.261 . S
C303 O293 1.257 . S
C304 C307 1.358 . S
C304 C308 1.332 . S
C304 C310 1.504 . S
C305 C306 1.373 . S
C305 C309 1.308 . S
C306 C305 1.373 . S
C306 C307 1.429 . S
C306 H316 0.932 . S
C307 C304 1.358 . S
C307 C306 1.429 . S
C307 H317 0.930 . S
C308 C304 1.332 . S
C308 C309 1.394 . S
C308 H318 0.932 . S
C309 C305 1.308 . S
C309 C308 1.394 . S
C309 H319 0.929 . S
C310 Tb281 2.764 . S
C310 O294 1.239 . S
C310 O295 1.263 . S
C310 C304 1.504 . S
C311 O296 1.236 . S
C311 O297 1.257 . S
H312 C285 0.932 . S
H313 C286 0.930 . S
H314 C287 0.932 . S
H315 C288 0.929 . S
H316 C306 0.932 . S
H317 C307 0.930 . S
H318 C308 0.932 . S
H319 C309 0.929 . S
Tb320 C329 2.744 1_565 S
Tb320 O330 2.325 . S
Tb320 O333 2.303 . S
Tb320 O337 2.322 . S
Tb320 O338 2.349 . S
Tb320 O341 2.415 . S
Tb320 O342 2.399 . S
Tb321 O331 2.322 . S
Tb321 O332 2.349 . S
Tb321 O334 2.415 . S
Tb321 O335 2.399 . S
Tb321 O336 2.325 . S
Tb321 O339 2.303 . S
Tb321 C350 2.764 . S
C322 O338 1.261 . S
C322 O339 1.257 . S
C323 C326 1.358 . S
C323 C327 1.332 . S
C323 C329 1.524 . S
C324 C325 1.373 . S
C324 C328 1.308 . S
C325 C324 1.373 . S
C325 C326 1.429 . S
C325 H352 0.932 . S
C326 C323 1.358 . S
C326 C325 1.429 . S
C326 H353 0.930 . S
C327 C323 1.332 . S
C327 C328 1.394 . S
C327 H354 0.932 . S
C328 C324 1.308 . S
C328 C327 1.394 . S
C328 H355 0.929 . S
C329 Tb320 2.744 1_545 S
C329 C323 1.524 . S
C329 O341 1.230 1_545 S
C329 O342 1.253 1_545 S
O330 Tb320 2.325 . S
O330 C340 1.236 . S
O331 Tb321 2.322 . S
O331 C340 1.257 . S
O332 Tb321 2.349 . S
O332 C343 1.261 . S
O333 Tb320 2.303 . S
O333 C343 1.257 . S
O334 Tb321 2.415 . S
O334 C350 1.239 . S
O335 Tb321 2.399 . S
O335 C350 1.263 . S
O336 Tb321 2.325 . S
O336 C351 1.236 . S
O337 Tb320 2.322 . S
O337 C351 1.257 . S
O338 Tb320 2.349 . S
O338 C322 1.261 . S
O339 Tb321 2.303 . S
O339 C322 1.257 . S
C340 O330 1.236 . S
C340 O331 1.257 . S
O341 Tb320 2.415 . S
O341 C329 1.230 1_565 S
O342 Tb320 2.399 . S
O342 C329 1.253 1_565 S
C343 O332 1.261 . S
C343 O333 1.257 . S
C344 C347 1.358 . S
C344 C348 1.332 . S
C344 C350 1.504 . S
C345 C346 1.373 . S
C345 C349 1.308 . S
C346 C345 1.373 . S
C346 C347 1.429 . S
C346 H356 0.932 . S
C347 C344 1.358 . S
C347 C346 1.429 . S
C347 H357 0.930 . S
C348 C344 1.332 . S
C348 C349 1.394 . S
C348 H358 0.932 . S
C349 C345 1.308 . S
C349 C348 1.394 . S
C349 H359 0.929 . S
C350 Tb321 2.764 . S
C350 O334 1.239 . S
C350 O335 1.263 . S
C350 C344 1.504 . S
C351 O336 1.236 . S
C351 O337 1.257 . S
H352 C325 0.932 . S
H353 C326 0.930 . S
H354 C327 0.932 . S
H355 C328 0.929 . S
H356 C346 0.932 . S
H357 C347 0.930 . S
H358 C348 0.932 . S
H359 C349 0.929 . S
Tb360 C369 2.764 . S
Tb360 O370 2.325 . S
Tb360 O373 2.303 . S
Tb360 O377 2.322 . S
Tb360 O378 2.349 . S
Tb360 O381 2.415 . S
Tb360 O382 2.399 . S
Tb361 O371 2.322 . S
Tb361 O372 2.349 . S
Tb361 O374 2.415 . S
Tb361 O375 2.399 . S
Tb361 O376 2.325 . S
Tb361 O379 2.303 . S
Tb361 C390 2.764 . S
C362 O378 1.261 . S
C362 O379 1.257 . S
C363 C366 1.358 . S
C363 C367 1.332 . S
C363 C369 1.504 . S
C364 C365 1.373 . S
C364 C368 1.308 . S
C365 C364 1.373 . S
C365 C366 1.429 . S
C365 H392 0.932 . S
C366 C363 1.358 . S
C366 C365 1.429 . S
C366 H393 0.930 . S
C367 C363 1.332 . S
C367 C368 1.394 . S
C367 H394 0.932 . S
C368 C364 1.308 . S
C368 C367 1.394 . S
C368 H395 0.929 . S
C369 Tb360 2.764 . S
C369 C363 1.504 . S
C369 O381 1.239 . S
C369 O382 1.263 . S
O370 Tb360 2.325 . S
O370 C380 1.236 . S
O371 Tb361 2.322 . S
O371 C380 1.257 . S
O372 Tb361 2.349 . S
O372 C383 1.261 . S
O373 Tb360 2.303 . S
O373 C383 1.257 . S
O374 Tb361 2.415 . S
O374 C390 1.239 . S
O375 Tb361 2.399 . S
O375 C390 1.263 . S
O376 Tb361 2.325 . S
O376 C391 1.236 . S
O377 Tb360 2.322 . S
O377 C391 1.257 . S
O378 Tb360 2.349 . S
O378 C362 1.261 . S
O379 Tb361 2.303 . S
O379 C362 1.257 . S
C380 O370 1.236 . S
C380 O371 1.257 . S
O381 Tb360 2.415 . S
O381 C369 1.239 . S
O382 Tb360 2.399 . S
O382 C369 1.263 . S
C383 O372 1.261 . S
C383 O373 1.257 . S
C384 C387 1.358 . S
C384 C388 1.332 . S
C384 C390 1.504 . S
C385 C386 1.373 . S
C385 C389 1.308 . S
C386 C385 1.373 . S
C386 C387 1.429 1_545 S
C386 H396 0.932 . S
C387 C384 1.358 . S
C387 C386 1.429 1_565 S
C387 H397 0.930 . S
C388 C384 1.332 . S
C388 C389 1.394 1_565 S
C388 H398 0.932 . S
C389 C385 1.308 . S
C389 C388 1.394 1_545 S
C389 H399 0.929 . S
C390 Tb361 2.764 . S
C390 O374 1.239 . S
C390 O375 1.263 . S
C390 C384 1.504 . S
C391 O376 1.236 . S
C391 O377 1.257 . S
H392 C365 0.932 . S
H393 C366 0.930 . S
H394 C367 0.932 . S
H395 C368 0.929 . S
H396 C386 0.932 . S
H397 C387 0.930 . S
H398 C388 0.932 . S
H399 C389 0.929 . S
Tb400 C409 2.764 . S
Tb400 O410 2.325 . S
Tb400 O413 2.303 . S
Tb400 O417 2.322 . S
Tb400 O418 2.349 . S
Tb400 O421 2.415 . S
Tb400 O422 2.399 . S
Tb401 O411 2.322 . S
Tb401 O412 2.349 . S
Tb401 O414 2.415 . S
Tb401 O415 2.399 . S
Tb401 O416 2.325 . S
Tb401 O419 2.303 . S
Tb401 C430 2.764 . S
C402 O418 1.261 . S
C402 O419 1.257 . S
C403 C406 1.358 . S
C403 C407 1.332 . S
C403 C409 1.504 . S
C404 C405 1.373 . S
C404 C408 1.308 . S
C405 C404 1.373 . S
C405 C406 1.429 . S
C405 H432 0.932 . S
C406 C403 1.358 . S
C406 C405 1.429 . S
C406 H433 0.930 . S
C407 C403 1.332 . S
C407 C408 1.394 . S
C407 H434 0.932 . S
C408 C404 1.308 . S
C408 C407 1.394 . S
C408 H435 0.929 . S
C409 Tb400 2.764 . S
C409 C403 1.504 . S
C409 O421 1.239 . S
C409 O422 1.263 . S
O410 Tb400 2.325 . S
O410 C420 1.236 . S
O411 Tb401 2.322 . S
O411 C420 1.257 . S
O412 Tb401 2.349 . S
O412 C423 1.261 . S
O413 Tb400 2.303 . S
O413 C423 1.257 . S
O414 Tb401 2.415 . S
O414 C430 1.239 . S
O415 Tb401 2.399 . S
O415 C430 1.263 . S
O416 Tb401 2.325 . S
O416 C431 1.236 . S
O417 Tb400 2.322 . S
O417 C431 1.257 . S
O418 Tb400 2.349 . S
O418 C402 1.261 . S
O419 Tb401 2.303 . S
O419 C402 1.257 . S
C420 O410 1.236 . S
C420 O411 1.257 . S
O421 Tb400 2.415 . S
O421 C409 1.239 . S
O422 Tb400 2.399 . S
O422 C409 1.263 . S
C423 O412 1.261 . S
C423 O413 1.257 . S
C424 C427 1.358 . S
C424 C428 1.332 . S
C424 C430 1.504 . S
C425 C426 1.373 . S
C425 C429 1.308 1_655 S
C426 C425 1.373 . S
C426 C427 1.429 1_655 S
C426 H436 0.932 . S
C427 C424 1.358 . S
C427 C426 1.429 1_455 S
C427 H437 0.930 . S
C428 C424 1.332 . S
C428 C429 1.394 . S
C428 H438 0.932 . S
C429 C425 1.308 1_455 S
C429 C428 1.394 . S
C429 H439 0.929 1_455 S
C430 Tb401 2.764 . S
C430 O414 1.239 . S
C430 O415 1.263 . S
C430 C424 1.504 . S
C431 O416 1.236 . S
C431 O417 1.257 . S
H432 C405 0.932 . S
H433 C406 0.930 . S
H434 C407 0.932 . S
H435 C408 0.929 . S
H436 C426 0.932 . S
H437 C427 0.930 . S
H438 C428 0.932 . S
H439 C429 0.929 1_655 S
Tb440 C449 2.764 . S
Tb440 O450 2.325 . S
Tb440 O453 2.303 . S
Tb440 O457 2.322 . S
Tb440 O458 2.349 . S
Tb440 O461 2.415 . S
Tb440 O462 2.399 . S
Tb441 O451 2.322 . S
Tb441 O452 2.349 . S
Tb441 O454 2.415 . S
Tb441 O455 2.399 . S
Tb441 O456 2.325 . S
Tb441 O459 2.303 . S
Tb441 C470 2.764 . S
C442 O458 1.261 . S
C442 O459 1.257 . S
C443 C446 1.358 . S
C443 C447 1.332 . S
C443 C449 1.504 . S
C444 C445 1.373 . S
C444 C448 1.308 . S
C445 C444 1.373 . S
C445 C446 1.429 . S
C445 H472 0.932 . S
C446 C443 1.358 . S
C446 C445 1.429 . S
C446 H473 0.930 . S
C447 C443 1.332 . S
C447 C448 1.394 . S
C447 H474 0.932 . S
C448 C444 1.308 . S
C448 C447 1.394 . S
C448 H475 0.929 . S
C449 Tb440 2.764 . S
C449 C443 1.504 . S
C449 O461 1.239 . S
C449 O462 1.263 . S
O450 Tb440 2.325 . S
O450 C460 1.236 . S
O451 Tb441 2.322 . S
O451 C460 1.257 . S
O452 Tb441 2.349 . S
O452 C463 1.261 . S
O453 Tb440 2.303 . S
O453 C463 1.257 . S
O454 Tb441 2.415 . S
O454 C470 1.239 . S
O455 Tb441 2.399 . S
O455 C470 1.263 . S
O456 Tb441 2.325 . S
O456 C471 1.236 . S
O457 Tb440 2.322 . S
O457 C471 1.257 . S
O458 Tb440 2.349 . S
O458 C442 1.261 . S
O459 Tb441 2.303 . S
O459 C442 1.257 . S
C460 O450 1.236 . S
C460 O451 1.257 . S
O461 Tb440 2.415 . S
O461 C449 1.239 . S
O462 Tb440 2.399 . S
O462 C449 1.263 . S
C463 O452 1.261 . S
C463 O453 1.257 . S
C464 C467 1.358 . S
C464 C468 1.332 . S
C464 C470 1.504 . S
C465 C466 1.373 . S
C465 C469 1.308 . S
C466 C465 1.373 . S
C466 C467 1.429 . S
C466 H476 0.932 . S
C467 C464 1.358 . S
C467 C466 1.429 . S
C467 H477 0.930 . S
C468 C464 1.332 . S
C468 C469 1.394 . S
C468 H478 0.932 . S
C469 C465 1.308 . S
C469 C468 1.394 . S
C469 H479 0.929 . S
C470 Tb441 2.764 . S
C470 O454 1.239 . S
C470 O455 1.263 . S
C470 C464 1.504 . S
C471 O456 1.236 . S
C471 O457 1.257 . S
H472 C445 0.932 . S
H473 C446 0.930 . S
H474 C447 0.932 . S
H475 C448 0.929 . S
H476 C466 0.932 . S
H477 C467 0.930 . S
H478 C468 0.932 . S
H479 C469 0.929 . S
Tb480 C489 2.764 . S
Tb480 O490 2.325 . S
Tb480 O493 2.303 . S
Tb480 O497 2.322 . S
Tb480 O498 2.349 . S
Tb480 O501 2.415 . S
Tb480 O502 2.399 . S
Tb481 O491 2.322 . S
Tb481 O492 2.349 . S
Tb481 O494 2.415 . S
Tb481 O495 2.399 . S
Tb481 O496 2.325 . S
Tb481 O499 2.303 . S
Tb481 C510 2.764 . S
C482 O498 1.261 . S
C482 O499 1.257 . S
C483 C486 1.358 . S
C483 C487 1.332 . S
C483 C489 1.504 . S
C484 C485 1.373 . S
C484 C488 1.308 . S
C485 C484 1.373 . S
C485 C486 1.429 . S
C485 H512 0.932 . S
C486 C483 1.358 . S
C486 C485 1.429 . S
C486 H513 0.930 . S
C487 C483 1.332 . S
C487 C488 1.394 . S
C487 H514 0.932 . S
C488 C484 1.308 . S
C488 C487 1.394 . S
C488 H515 0.929 . S
C489 Tb480 2.764 . S
C489 C483 1.504 . S
C489 O501 1.239 . S
C489 O502 1.263 . S
O490 Tb480 2.325 . S
O490 C500 1.236 . S
O491 Tb481 2.322 . S
O491 C500 1.257 . S
O492 Tb481 2.349 . S
O492 C503 1.261 . S
O493 Tb480 2.303 . S
O493 C503 1.257 . S
O494 Tb481 2.415 . S
O494 C510 1.239 . S
O495 Tb481 2.399 . S
O495 C510 1.263 . S
O496 Tb481 2.325 . S
O496 C511 1.236 . S
O497 Tb480 2.322 . S
O497 C511 1.257 . S
O498 Tb480 2.349 . S
O498 C482 1.261 . S
O499 Tb481 2.303 . S
O499 C482 1.257 . S
C500 O490 1.236 . S
C500 O491 1.257 . S
O501 Tb480 2.415 . S
O501 C489 1.239 . S
O502 Tb480 2.399 . S
O502 C489 1.263 . S
C503 O492 1.261 . S
C503 O493 1.257 . S
C504 C507 1.358 . S
C504 C508 1.332 . S
C504 C510 1.504 . S
C505 C506 1.373 . S
C505 C509 1.308 . S
C506 C505 1.373 . S
C506 C507 1.429 1_455 S
C506 H516 0.932 . S
C507 C504 1.358 . S
C507 C506 1.429 1_655 S
C507 H517 0.930 . S
C508 C504 1.332 . S
C508 C509 1.394 1_655 S
C508 H518 0.932 . S
C509 C505 1.308 . S
C509 C508 1.394 1_455 S
C509 H519 0.929 . S
C510 Tb481 2.764 . S
C510 O494 1.239 . S
C510 O495 1.263 . S
C510 C504 1.504 . S
C511 O496 1.236 . S
C511 O497 1.257 . S
H512 C485 0.932 . S
H513 C486 0.930 . S
H514 C487 0.932 . S
H515 C488 0.929 . S
H516 C506 0.932 . S
H517 C507 0.930 . S
H518 C508 0.932 . S
H519 C509 0.929 . S
Tb520 C529 2.764 . S
Tb520 O530 2.325 . S
Tb520 O533 2.303 . S
Tb520 O537 2.322 . S
Tb520 O538 2.349 . S
Tb520 O541 2.415 . S
Tb520 O542 2.399 . S
Tb521 O531 2.322 . S
Tb521 O532 2.349 . S
Tb521 O534 2.415 . S
Tb521 O535 2.399 . S
Tb521 O536 2.325 . S
Tb521 O539 2.303 . S
Tb521 C550 2.764 . S
C522 O538 1.261 . S
C522 O539 1.257 . S
C523 C526 1.358 . S
C523 C527 1.332 . S
C523 C529 1.504 . S
C524 C525 1.373 . S
C524 C528 1.308 . S
C525 C524 1.373 . S
C525 C526 1.429 . S
C525 H552 0.932 . S
C526 C523 1.358 . S
C526 C525 1.429 . S
C526 H553 0.930 . S
C527 C523 1.332 . S
C527 C528 1.394 . S
C527 H554 0.932 . S
C528 C524 1.308 . S
C528 C527 1.394 . S
C528 H555 0.929 . S
C529 Tb520 2.764 . S
C529 C523 1.504 . S
C529 O541 1.239 . S
C529 O542 1.263 . S
O530 Tb520 2.325 . S
O530 C540 1.236 . S
O531 Tb521 2.322 . S
O531 C540 1.257 . S
O532 Tb521 2.349 . S
O532 C543 1.261 . S
O533 Tb520 2.303 . S
O533 C543 1.257 . S
O534 Tb521 2.415 . S
O534 C550 1.239 . S
O535 Tb521 2.399 . S
O535 C550 1.263 . S
O536 Tb521 2.325 . S
O536 C551 1.236 . S
O537 Tb520 2.322 . S
O537 C551 1.257 . S
O538 Tb520 2.349 . S
O538 C522 1.261 . S
O539 Tb521 2.303 . S
O539 C522 1.257 . S
C540 O530 1.236 . S
C540 O531 1.257 . S
O541 Tb520 2.415 . S
O541 C529 1.239 . S
O542 Tb520 2.399 . S
O542 C529 1.263 . S
C543 O532 1.261 . S
C543 O533 1.257 . S
C544 C547 1.358 . S
C544 C548 1.332 . S
C544 C550 1.504 . S
C545 C546 1.373 . S
C545 C549 1.308 . S
C546 C545 1.373 . S
C546 C547 1.429 . S
C546 H556 0.932 . S
C547 C544 1.358 . S
C547 C546 1.429 . S
C547 H557 0.930 . S
C548 C544 1.332 . S
C548 C549 1.394 . S
C548 H558 0.932 . S
C549 C545 1.308 . S
C549 C548 1.394 . S
C549 H559 0.929 . S
C550 Tb521 2.764 . S
C550 O534 1.239 . S
C550 O535 1.263 . S
C550 C544 1.504 . S
C551 O536 1.236 . S
C551 O537 1.257 . S
H552 C525 0.932 . S
H553 C526 0.930 . S
H554 C527 0.932 . S
H555 C528 0.929 . S
H556 C546 0.932 . S
H557 C547 0.930 . S
H558 C548 0.932 . S
H559 C549 0.929 . S
Tb560 C569 2.764 . S
Tb560 O570 2.325 . S
Tb560 O573 2.303 . S
Tb560 O577 2.322 . S
Tb560 O578 2.349 . S
Tb560 O581 2.415 . S
Tb560 O582 2.399 . S
Tb561 O571 2.322 . S
Tb561 O572 2.349 . S
Tb561 O574 2.415 . S
Tb561 O575 2.399 . S
Tb561 O576 2.325 . S
Tb561 O579 2.303 . S
Tb561 C590 2.764 . S
C562 O578 1.261 . S
C562 O579 1.257 . S
C563 C566 1.358 . S
C563 C567 1.332 . S
C563 C569 1.504 . S
C564 C565 1.373 . S
C564 C568 1.308 . S
C565 C564 1.373 . S
C565 C566 1.429 . S
C565 H592 0.932 . S
C566 C563 1.358 . S
C566 C565 1.429 . S
C566 H593 0.930 . S
C567 C563 1.332 . S
C567 C568 1.394 . S
C567 H594 0.932 . S
C568 C564 1.308 . S
C568 C567 1.394 . S
C568 H595 0.929 . S
C569 Tb560 2.764 . S
C569 C563 1.504 . S
C569 O581 1.239 . S
C569 O582 1.263 . S
O570 Tb560 2.325 . S
O570 C580 1.236 . S
O571 Tb561 2.322 . S
O571 C580 1.257 . S
O572 Tb561 2.349 . S
O572 C583 1.261 . S
O573 Tb560 2.303 . S
O573 C583 1.257 . S
O574 Tb561 2.415 . S
O574 C590 1.239 . S
O575 Tb561 2.399 . S
O575 C590 1.263 . S
O576 Tb561 2.325 . S
O576 C591 1.236 . S
O577 Tb560 2.322 . S
O577 C591 1.257 . S
O578 Tb560 2.349 . S
O578 C562 1.261 . S
O579 Tb561 2.303 . S
O579 C562 1.257 . S
C580 O570 1.236 . S
C580 O571 1.257 . S
O581 Tb560 2.415 . S
O581 C569 1.239 . S
O582 Tb560 2.399 . S
O582 C569 1.263 . S
C583 O572 1.261 . S
C583 O573 1.257 . S
C584 C587 1.358 . S
C584 C588 1.332 . S
C584 C590 1.504 . S
C585 C586 1.373 . S
C585 C589 1.308 1_565 S
C586 C585 1.373 . S
C586 C587 1.429 1_565 S
C586 H596 0.932 . S
C587 C584 1.358 . S
C587 C586 1.429 1_545 S
C587 H597 0.930 . S
C588 C584 1.332 . S
C588 C589 1.394 . S
C588 H598 0.932 . S
C589 C585 1.308 1_545 S
C589 C588 1.394 . S
C589 H599 0.929 1_545 S
C590 Tb561 2.764 . S
C590 O574 1.239 . S
C590 O575 1.263 . S
C590 C584 1.504 . S
C591 O576 1.236 . S
C591 O577 1.257 . S
H592 C565 0.932 . S
H593 C566 0.930 . S
H594 C567 0.932 . S
H595 C568 0.929 . S
H596 C586 0.932 . S
H597 C587 0.930 . S
H598 C588 0.932 . S
H599 C589 0.929 1_565 S
Tb600 C609 2.764 . S
Tb600 O610 2.325 . S
Tb600 O613 2.303 . S
Tb600 O617 2.322 . S
Tb600 O618 2.349 . S
Tb600 O621 2.415 . S
Tb600 O622 2.399 . S
Tb601 O611 2.322 . S
Tb601 O612 2.349 . S
Tb601 O614 2.415 . S
Tb601 O615 2.399 . S
Tb601 O616 2.325 . S
Tb601 O619 2.303 . S
Tb601 C630 2.764 . S
C602 O618 1.261 . S
C602 O619 1.257 . S
C603 C606 1.358 . S
C603 C607 1.332 . S
C603 C609 1.504 1_565 S
C604 C605 1.373 . S
C604 C608 1.308 . S
C605 C604 1.373 . S
C605 C606 1.429 . S
C605 H632 0.932 . S
C606 C603 1.358 . S
C606 C605 1.429 . S
C606 H633 0.930 . S
C607 C603 1.332 . S
C607 C608 1.394 . S
C607 H634 0.932 . S
C608 C604 1.308 . S
C608 C607 1.394 . S
C608 H635 0.929 . S
C609 Tb600 2.764 . S
C609 C603 1.504 1_545 S
C609 O621 1.239 . S
C609 O622 1.263 . S
O610 Tb600 2.325 . S
O610 C620 1.236 . S
O611 Tb601 2.322 . S
O611 C620 1.257 . S
O612 Tb601 2.349 . S
O612 C623 1.261 . S
O613 Tb600 2.303 . S
O613 C623 1.257 . S
O614 Tb601 2.415 . S
O614 C630 1.239 . S
O615 Tb601 2.399 . S
O615 C630 1.263 . S
O616 Tb601 2.325 . S
O616 C631 1.236 . S
O617 Tb600 2.322 . S
O617 C631 1.257 . S
O618 Tb600 2.349 . S
O618 C602 1.261 . S
O619 Tb601 2.303 . S
O619 C602 1.257 . S
C620 O610 1.236 . S
C620 O611 1.257 . S
O621 Tb600 2.415 . S
O621 C609 1.239 . S
O622 Tb600 2.399 . S
O622 C609 1.263 . S
C623 O612 1.261 . S
C623 O613 1.257 . S
C624 C627 1.358 . S
C624 C628 1.332 . S
C624 C630 1.504 . S
C625 C626 1.373 . S
C625 C629 1.308 . S
C626 C625 1.373 . S
C626 C627 1.429 . S
C626 H636 0.932 . S
C627 C624 1.358 . S
C627 C626 1.429 . S
C627 H637 0.930 . S
C628 C624 1.332 . S
C628 C629 1.394 . S
C628 H638 0.932 . S
C629 C625 1.308 . S
C629 C628 1.394 . S
C629 H639 0.929 . S
C630 Tb601 2.764 . S
C630 O614 1.239 . S
C630 O615 1.263 . S
C630 C624 1.504 . S
C631 O616 1.236 . S
C631 O617 1.257 . S
H632 C605 0.932 . S
H633 C606 0.930 . S
H634 C607 0.932 . S
H635 C608 0.929 . S
H636 C626 0.932 . S
H637 C627 0.930 . S
H638 C628 0.932 . S
H639 C629 0.929 . S
Tb640 C649 2.744 1_655 S
Tb640 O650 2.325 . S
Tb640 O653 2.303 . S
Tb640 O657 2.322 . S
Tb640 O658 2.349 . S
Tb640 O661 2.415 . S
Tb640 O662 2.399 . S
Tb641 O651 2.322 . S
Tb641 O652 2.349 . S
Tb641 O654 2.415 . S
Tb641 O655 2.399 . S
Tb641 O656 2.325 . S
Tb641 O659 2.303 . S
Tb641 C670 2.764 . S
C642 O658 1.261 . S
C642 O659 1.257 . S
C643 C646 1.358 . S
C643 C647 1.332 . S
C643 C649 1.524 . S
C644 C645 1.373 . S
C644 C648 1.308 . S
C645 C644 1.373 . S
C645 C646 1.429 . S
C645 H672 0.932 . S
C646 C643 1.358 . S
C646 C645 1.429 . S
C646 H673 0.930 . S
C647 C643 1.332 . S
C647 C648 1.394 . S
C647 H674 0.932 . S
C648 C644 1.308 . S
C648 C647 1.394 . S
C648 H675 0.929 . S
C649 Tb640 2.744 1_455 S
C649 C643 1.524 . S
C649 O661 1.230 1_455 S
C649 O662 1.252 1_455 S
O650 Tb640 2.325 . S
O650 C660 1.236 . S
O651 Tb641 2.322 . S
O651 C660 1.257 . S
O652 Tb641 2.349 . S
O652 C663 1.261 . S
O653 Tb640 2.303 . S
O653 C663 1.257 . S
O654 Tb641 2.415 . S
O654 C670 1.239 . S
O655 Tb641 2.399 . S
O655 C670 1.263 . S
O656 Tb641 2.325 . S
O656 C671 1.236 . S
O657 Tb640 2.322 . S
O657 C671 1.257 . S
O658 Tb640 2.349 . S
O658 C642 1.261 . S
O659 Tb641 2.303 . S
O659 C642 1.257 . S
C660 O650 1.236 . S
C660 O651 1.257 . S
O661 Tb640 2.415 . S
O661 C649 1.230 1_655 S
O662 Tb640 2.399 . S
O662 C649 1.252 1_655 S
C663 O652 1.261 . S
C663 O653 1.257 . S
C664 C667 1.358 . S
C664 C668 1.332 . S
C664 C670 1.504 . S
C665 C666 1.373 . S
C665 C669 1.308 . S
C666 C665 1.373 . S
C666 C667 1.429 . S
C666 H676 0.932 . S
C667 C664 1.358 . S
C667 C666 1.429 . S
C667 H677 0.930 . S
C668 C664 1.332 . S
C668 C669 1.394 . S
C668 H678 0.932 . S
C669 C665 1.308 . S
C669 C668 1.394 . S
C669 H679 0.929 . S
C670 Tb641 2.764 . S
C670 O654 1.239 . S
C670 O655 1.263 . S
C670 C664 1.504 . S
C671 O656 1.236 . S
C671 O657 1.257 . S
H672 C645 0.932 . S
H673 C646 0.930 . S
H674 C647 0.932 . S
H675 C648 0.929 . S
H676 C666 0.932 . S
H677 C667 0.930 . S
H678 C668 0.932 . S
H679 C669 0.929 . S
Tb680 C689 2.764 . S
Tb680 O690 2.325 . S
Tb680 O693 2.303 . S
Tb680 O697 2.322 . S
Tb680 O698 2.349 . S
Tb680 O701 2.415 . S
Tb680 O702 2.399 . S
Tb681 O691 2.322 . S
Tb681 O692 2.349 . S
Tb681 O694 2.415 . S
Tb681 O695 2.399 . S
Tb681 O696 2.325 . S
Tb681 O699 2.303 . S
Tb681 C710 2.764 . S
C682 O698 1.261 . S
C682 O699 1.257 . S
C683 C686 1.358 . S
C683 C687 1.332 . S
C683 C689 1.504 . S
C684 C685 1.373 . S
C684 C688 1.308 . S
C685 C684 1.373 . S
C685 C686 1.429 . S
C685 H712 0.932 . S
C686 C683 1.358 . S
C686 C685 1.429 . S
C686 H713 0.930 . S
C687 C683 1.332 . S
C687 C688 1.394 . S
C687 H714 0.932 . S
C688 C684 1.308 . S
C688 C687 1.394 . S
C688 H715 0.929 . S
C689 Tb680 2.764 . S
C689 C683 1.504 . S
C689 O701 1.239 . S
C689 O702 1.263 . S
O690 Tb680 2.325 . S
O690 C700 1.236 . S
O691 Tb681 2.322 . S
O691 C700 1.257 . S
O692 Tb681 2.349 . S
O692 C703 1.261 . S
O693 Tb680 2.303 . S
O693 C703 1.257 . S
O694 Tb681 2.415 . S
O694 C710 1.239 . S
O695 Tb681 2.399 . S
O695 C710 1.263 . S
O696 Tb681 2.325 . S
O696 C711 1.236 . S
O697 Tb680 2.322 . S
O697 C711 1.257 . S
O698 Tb680 2.349 . S
O698 C682 1.261 . S
O699 Tb681 2.303 . S
O699 C682 1.257 . S
C700 O690 1.236 . S
C700 O691 1.257 . S
O701 Tb680 2.415 . S
O701 C689 1.239 . S
O702 Tb680 2.399 . S
O702 C689 1.263 . S
C703 O692 1.261 . S
C703 O693 1.257 . S
C704 C707 1.358 . S
C704 C708 1.332 . S
C704 C710 1.504 . S
C705 C706 1.373 . S
C705 C709 1.308 . S
C706 C705 1.373 . S
C706 C707 1.429 . S
C706 H716 0.932 . S
C707 C704 1.358 . S
C707 C706 1.429 . S
C707 H717 0.930 . S
C708 C704 1.332 . S
C708 C709 1.394 . S
C708 H718 0.932 . S
C709 C705 1.308 . S
C709 C708 1.394 . S
C709 H719 0.929 . S
C710 Tb681 2.764 . S
C710 O694 1.239 . S
C710 O695 1.263 . S
C710 C704 1.504 . S
C711 O696 1.236 . S
C711 O697 1.257 . S
H712 C685 0.932 . S
H713 C686 0.930 . S
H714 C687 0.932 . S
H715 C688 0.929 . S
H716 C706 0.932 . S
H717 C707 0.930 . S
H718 C708 0.932 . S
H719 C709 0.929 . S
H720 C726 0.930 . S
H721 C729 0.930 . S
H722 C730 0.930 . S
H723 C731 0.930 . S
H724 C734 0.930 . S
H725 C735 0.930 . S
C726 H720 0.930 . S
C726 C727 1.355 . S
C726 C728 1.415 . S
C727 C726 1.355 . S
C727 C729 1.419 . S
C728 C726 1.415 . S
C728 C733 1.425 . S
C728 C735 1.409 . S
C729 H721 0.930 . S
C729 C727 1.419 . S
C729 C730 1.362 . S
C730 H722 0.930 . S
C730 C729 1.362 . S
C730 C733 1.409 . S
C731 H723 0.930 . S
C731 C732 1.355 . S
C731 C733 1.415 . S
C732 C731 1.355 . S
C732 C734 1.419 . S
C733 C728 1.425 . S
C733 C730 1.409 . S
C733 C731 1.415 . S
C734 H724 0.930 . S
C734 C732 1.419 . S
C734 C735 1.362 . S
C735 H725 0.930 . S
C735 C728 1.409 . S
C735 C734 1.362 . S
H736 C742 0.930 . S
H737 C745 0.930 . S
H738 C746 0.930 . S
H739 C747 0.930 . S
H740 C750 0.930 . S
H741 C751 0.930 . S
C742 H736 0.930 . S
C742 C743 1.355 . S
C742 C744 1.415 . S
C743 C742 1.355 . S
C743 C745 1.419 . S
C744 C742 1.415 . S
C744 C749 1.425 . S
C744 C751 1.409 . S
C745 H737 0.930 . S
C745 C743 1.419 . S
C745 C746 1.362 . S
C746 H738 0.930 . S
C746 C745 1.362 . S
C746 C749 1.409 . S
C747 H739 0.930 . S
C747 C748 1.355 . S
C747 C749 1.415 . S
C748 C747 1.355 . S
C748 C750 1.419 . S
C749 C744 1.425 . S
C749 C746 1.409 . S
C749 C747 1.415 . S
C750 H740 0.930 . S
C750 C748 1.419 . S
C750 C751 1.362 . S
C751 H741 0.930 . S
C751 C744 1.409 . S
C751 C750 1.362 . S
H752 C758 0.930 . S
H753 C761 0.930 . S
H754 C762 0.930 . S
H755 C763 0.930 . S
H756 C766 0.930 . S
H757 C767 0.930 . S
C758 H752 0.930 . S
C758 C759 1.355 . S
C758 C760 1.415 . S
C759 C758 1.355 . S
C759 C761 1.419 . S
C760 C758 1.415 . S
C760 C765 1.425 . S
C760 C767 1.409 . S
C761 H753 0.930 . S
C761 C759 1.419 . S
C761 C762 1.362 . S
C762 H754 0.930 . S
C762 C761 1.362 . S
C762 C765 1.409 . S
C763 H755 0.930 . S
C763 C764 1.355 . S
C763 C765 1.415 . S
C764 C763 1.355 . S
C764 C766 1.419 . S
C765 C760 1.425 . S
C765 C762 1.409 . S
C765 C763 1.415 . S
C766 H756 0.930 . S
C766 C764 1.419 . S
C766 C767 1.362 . S
C767 H757 0.930 . S
C767 C760 1.409 . S
C767 C766 1.362 . S
H768 C774 0.930 . S
H769 C777 0.930 . S
H770 C778 0.930 . S
H771 C779 0.930 . S
H772 C782 0.930 . S
H773 C783 0.930 . S
C774 H768 0.930 . S
C774 C775 1.355 . S
C774 C776 1.415 . S
C775 C774 1.355 . S
C775 C777 1.419 . S
C776 C774 1.415 . S
C776 C781 1.425 . S
C776 C783 1.409 . S
C777 H769 0.930 . S
C777 C775 1.419 . S
C777 C778 1.362 . S
C778 H770 0.930 . S
C778 C777 1.362 . S
C778 C781 1.409 . S
C779 H771 0.930 . S
C779 C780 1.355 . S
C779 C781 1.415 . S
C780 C779 1.355 . S
C780 C782 1.419 . S
C781 C776 1.425 . S
C781 C778 1.409 . S
C781 C779 1.415 . S
C782 H772 0.930 . S
C782 C780 1.419 . S
C782 C783 1.362 . S
C783 H773 0.930 . S
C783 C776 1.409 . S
C783 C782 1.362 . S
H784 C790 0.930 . S
H785 C793 0.930 . S
H786 C794 0.930 . S
H787 C795 0.930 . S
H788 C798 0.930 . S
H789 C799 0.930 . S
C790 H784 0.930 . S
C790 C791 1.355 . S
C790 C792 1.415 . S
C791 C790 1.355 . S
C791 C793 1.419 . S
C792 C790 1.415 . S
C792 C797 1.425 . S
C792 C799 1.409 . S
C793 H785 0.930 . S
C793 C791 1.419 . S
C793 C794 1.362 . S
C794 H786 0.930 . S
C794 C793 1.362 . S
C794 C797 1.409 . S
C795 H787 0.930 . S
C795 C796 1.355 . S
C795 C797 1.415 . S
C796 C795 1.355 . S
C796 C798 1.419 . S
C797 C792 1.425 . S
C797 C794 1.409 . S
C797 C795 1.415 . S
C798 H788 0.930 . S
C798 C796 1.419 . S
C798 C799 1.362 . S
C799 H789 0.930 . S
C799 C792 1.409 . S
C799 C798 1.362 . S
H800 C806 0.930 . S
H801 C809 0.930 . S
H802 C810 0.930 . S
H803 C811 0.930 . S
H804 C814 0.930 . S
H805 C815 0.930 . S
C806 H800 0.930 . S
C806 C807 1.355 . S
C806 C808 1.415 . S
C807 C806 1.355 . S
C807 C809 1.419 . S
C808 C806 1.415 . S
C808 C813 1.425 . S
C808 C815 1.409 . S
C809 H801 0.930 . S
C809 C807 1.419 . S
C809 C810 1.362 . S
C810 H802 0.930 . S
C810 C809 1.362 . S
C810 C813 1.409 . S
C811 H803 0.930 . S
C811 C812 1.355 . S
C811 C813 1.415 . S
C812 C811 1.355 . S
C812 C814 1.419 . S
C813 C808 1.425 . S
C813 C810 1.409 . S
C813 C811 1.415 . S
C814 H804 0.930 . S
C814 C812 1.419 . S
C814 C815 1.362 . S
C815 H805 0.930 . S
C815 C808 1.409 . S
C815 C814 1.362 . S
H816 C822 0.930 . S
H817 C825 0.930 . S
H818 C826 0.930 . S
H819 C827 0.930 . S
H820 C830 0.930 . S
H821 C831 0.930 . S
C822 H816 0.930 . S
C822 C823 1.355 . S
C822 C824 1.415 . S
C823 C822 1.355 . S
C823 C825 1.419 . S
C824 C822 1.415 . S
C824 C829 1.425 . S
C824 C831 1.409 . S
C825 H817 0.930 . S
C825 C823 1.419 . S
C825 C826 1.362 . S
C826 H818 0.930 . S
C826 C825 1.362 . S
C826 C829 1.409 . S
C827 H819 0.930 . S
C827 C828 1.355 . S
C827 C829 1.415 . S
C828 C827 1.355 . S
C828 C830 1.419 . S
C829 C824 1.425 . S
C829 C826 1.409 . S
C829 C827 1.415 . S
C830 H820 0.930 . S
C830 C828 1.419 . S
C830 C831 1.362 . S
C831 H821 0.930 . S
C831 C824 1.409 . S
C831 C830 1.362 . S
H832 C838 0.930 . S
H833 C841 0.930 . S
H834 C842 0.930 1_565 S
H835 C843 0.930 . S
H836 C846 0.930 . S
H837 C847 0.930 1_545 S
C838 H832 0.930 . S
C838 C839 1.355 . S
C838 C840 1.415 . S
C839 C838 1.355 . S
C839 C841 1.419 . S
C840 C838 1.415 . S
C840 C845 1.425 1_545 S
C840 C847 1.409 1_545 S
C841 H833 0.930 . S
C841 C839 1.419 . S
C841 C842 1.362 . S
C842 H834 0.930 1_545 S
C842 C841 1.362 . S
C842 C845 1.409 1_545 S
C843 H835 0.930 . S
C843 C844 1.355 . S
C843 C845 1.415 . S
C844 C843 1.355 . S
C844 C846 1.419 . S
C845 C840 1.425 1_565 S
C845 C842 1.409 1_565 S
C845 C843 1.415 . S
C846 H836 0.930 . S
C846 C844 1.419 . S
C846 C847 1.362 . S
C847 H837 0.930 1_565 S
C847 C840 1.409 1_565 S
C847 C846 1.362 . S
H848 C854 0.930 . S
H849 C857 0.930 . S
H850 C858 0.930 . S
H851 C859 0.930 . S
H852 C862 0.930 . S
H853 C863 0.930 1_455 S
C854 H848 0.930 . S
C854 C855 1.355 . S
C854 C856 1.415 . S
C855 C854 1.355 . S
C855 C857 1.419 . S
C856 C854 1.415 . S
C856 C861 1.425 . S
C856 C863 1.409 1_455 S
C857 H849 0.930 . S
C857 C855 1.419 . S
C857 C858 1.362 . S
C858 H850 0.930 . S
C858 C857 1.362 . S
C858 C861 1.409 . S
C859 H851 0.930 . S
C859 C860 1.355 . S
C859 C861 1.415 1_655 S
C860 C859 1.355 . S
C860 C862 1.419 . S
C861 C856 1.425 . S
C861 C858 1.409 . S
C861 C859 1.415 1_455 S
C862 H852 0.930 . S
C862 C860 1.419 . S
C862 C863 1.362 . S
C863 H853 0.930 1_655 S
C863 C856 1.409 1_655 S
C863 C862 1.362 . S
H864 C870 0.930 . S
H865 C873 0.930 . S
H866 C874 0.930 . S
H867 C875 0.930 . S
H868 C878 0.930 . S
H869 C879 0.930 . S
C870 H864 0.930 . S
C870 C871 1.355 . S
C870 C872 1.415 . S
C871 C870 1.355 . S
C871 C873 1.419 . S
C872 C870 1.415 . S
C872 C877 1.425 . S
C872 C879 1.409 . S
C873 H865 0.930 . S
C873 C871 1.419 . S
C873 C874 1.362 . S
C874 H866 0.930 . S
C874 C873 1.362 . S
C874 C877 1.409 . S
C875 H867 0.930 . S
C875 C876 1.355 . S
C875 C877 1.415 . S
C876 C875 1.355 . S
C876 C878 1.419 . S
C877 C872 1.425 . S
C877 C874 1.409 . S
C877 C875 1.415 . S
C878 H868 0.930 . S
C878 C876 1.419 . S
C878 C879 1.362 . S
C879 H869 0.930 . S
C879 C872 1.409 . S
C879 C878 1.362 . S
H880 C886 0.930 . S
H881 C889 0.930 . S
H882 C890 0.930 . S
H883 C891 0.930 . S
H884 C894 0.930 . S
H885 C895 0.930 . S
C886 H880 0.930 . S
C886 C887 1.355 . S
C886 C888 1.415 . S
C887 C886 1.355 . S
C887 C889 1.419 . S
C888 C886 1.415 . S
C888 C893 1.425 . S
C888 C895 1.409 . S
C889 H881 0.930 . S
C889 C887 1.419 . S
C889 C890 1.362 . S
C890 H882 0.930 . S
C890 C889 1.362 . S
C890 C893 1.409 . S
C891 H883 0.930 . S
C891 C892 1.355 . S
C891 C893 1.415 . S
C892 C891 1.355 . S
C892 C894 1.419 . S
C893 C888 1.425 . S
C893 C890 1.409 . S
C893 C891 1.415 . S
C894 H884 0.930 . S
C894 C892 1.419 . S
C894 C895 1.362 . S
C895 H885 0.930 . S
C895 C888 1.409 . S
C895 C894 1.362 . S
H896 C902 0.930 . S
H897 C905 0.930 . S
H898 C906 0.930 . S
H899 C907 0.930 . S
H900 C910 0.930 . S
H901 C911 0.930 . S
C902 H896 0.930 . S
C902 C903 1.355 . S
C902 C904 1.415 . S
C903 C902 1.355 . S
C903 C905 1.419 . S
C904 C902 1.415 . S
C904 C909 1.425 . S
C904 C911 1.409 . S
C905 H897 0.930 . S
C905 C903 1.419 . S
C905 C906 1.362 . S
C906 H898 0.930 . S
C906 C905 1.362 . S
C906 C909 1.409 . S
C907 H899 0.930 . S
C907 C908 1.355 . S
C907 C909 1.415 . S
C908 C907 1.355 . S
C908 C910 1.419 . S
C909 C904 1.425 . S
C909 C906 1.409 . S
C909 C907 1.415 . S
C910 H900 0.930 . S
C910 C908 1.419 . S
C910 C911 1.362 . S
C911 H901 0.930 . S
C911 C904 1.409 . S
C911 C910 1.362 . S
H912 C918 0.930 . S
H913 C921 0.930 . S
H914 C922 0.930 . S
H915 C923 0.930 . S
H916 C926 0.930 . S
H917 C927 0.930 . S
C918 H912 0.930 . S
C918 C919 1.355 . S
C918 C920 1.415 . S
C919 C918 1.355 . S
C919 C921 1.419 . S
C920 C918 1.415 . S
C920 C925 1.425 . S
C920 C927 1.409 . S
C921 H913 0.930 . S
C921 C919 1.419 . S
C921 C922 1.362 . S
C922 H914 0.930 . S
C922 C921 1.362 . S
C922 C925 1.409 . S
C923 H915 0.930 . S
C923 C924 1.355 . S
C923 C925 1.415 . S
C924 C923 1.355 . S
C924 C926 1.419 . S
C925 C920 1.425 . S
C925 C922 1.409 . S
C925 C923 1.415 . S
C926 H916 0.930 . S
C926 C924 1.419 . S
C926 C927 1.362 . S
C927 H917 0.930 . S
C927 C920 1.409 . S
C927 C926 1.362 . S
H928 C934 0.930 . S
H929 C937 0.930 . S
H930 C938 0.930 . S
H931 C939 0.930 . S
H932 C942 0.930 . S
H933 C943 0.930 . S
C934 H928 0.930 . S
C934 C935 1.355 . S
C934 C936 1.415 . S
C935 C934 1.355 . S
C935 C937 1.419 . S
C936 C934 1.415 . S
C936 C941 1.425 . S
C936 C943 1.409 . S
C937 H929 0.930 . S
C937 C935 1.419 . S
C937 C938 1.362 . S
C938 H930 0.930 . S
C938 C937 1.362 . S
C938 C941 1.409 . S
C939 H931 0.930 . S
C939 C940 1.355 . S
C939 C941 1.415 . S
C940 C939 1.355 . S
C940 C942 1.419 . S
C941 C936 1.425 . S
C941 C938 1.409 . S
C941 C939 1.415 . S
C942 H932 0.930 . S
C942 C940 1.419 . S
C942 C943 1.362 . S
C943 H933 0.930 . S
C943 C936 1.409 . S
C943 C942 1.362 . S
H944 C950 0.930 . S
H945 C953 0.930 . S
H946 C954 0.930 . S
H947 C955 0.930 . S
H948 C958 0.930 . S
H949 C959 0.930 . S
C950 H944 0.930 . S
C950 C951 1.355 . S
C950 C952 1.415 . S
C951 C950 1.355 . S
C951 C953 1.419 . S
C952 C950 1.415 . S
C952 C957 1.425 . S
C952 C959 1.409 . S
C953 H945 0.930 . S
C953 C951 1.419 . S
C953 C954 1.362 . S
C954 H946 0.930 . S
C954 C953 1.362 . S
C954 C957 1.409 . S
C955 H947 0.930 . S
C955 C956 1.355 . S
C955 C957 1.415 . S
C956 C955 1.355 . S
C956 C958 1.419 . S
C957 C952 1.425 . S
C957 C954 1.409 . S
C957 C955 1.415 . S
C958 H948 0.930 . S
C958 C956 1.419 . S
C958 C959 1.362 . S
C959 H949 0.930 . S
C959 C952 1.409 . S
C959 C958 1.362 . S
H960 C966 0.930 . S
H961 C969 0.930 . S
H962 C970 0.930 . S
H963 C971 0.930 . S
H964 C974 0.930 . S
H965 C975 0.930 . S
C966 H960 0.930 . S
C966 C967 1.355 . S
C966 C968 1.415 . S
C967 C966 1.355 . S
C967 C969 1.419 . S
C968 C966 1.415 . S
C968 C973 1.425 . S
C968 C975 1.409 . S
C969 H961 0.930 . S
C969 C967 1.419 . S
C969 C970 1.362 . S
C970 H962 0.930 . S
C970 C969 1.362 . S
C970 C973 1.409 . S
C971 H963 0.930 . S
C971 C972 1.355 . S
C971 C973 1.415 . S
C972 C971 1.355 . S
C972 C974 1.419 . S
C973 C968 1.425 . S
C973 C970 1.409 . S
C973 C971 1.415 . S
C974 H964 0.930 . S
C974 C972 1.419 . S
C974 C975 1.362 . S
C975 H965 0.930 . S
C975 C968 1.409 . S
C975 C974 1.362 . S
H976 C982 0.930 . S
H977 C985 0.930 . S
H978 C986 0.930 . S
H979 C987 0.930 . S
H980 C990 0.930 . S
H981 C991 0.930 . S
C982 H976 0.930 . S
C982 C983 1.355 . S
C982 C984 1.415 1_565 S
C983 C982 1.355 . S
C983 C985 1.419 . S
C984 C982 1.415 1_545 S
C984 C989 1.425 . S
C984 C991 1.409 . S
C985 H977 0.930 . S
C985 C983 1.419 . S
C985 C986 1.362 . S
C986 H978 0.930 . S
C986 C985 1.362 . S
C986 C989 1.409 1_565 S
C987 H979 0.930 . S
C987 C988 1.355 . S
C987 C989 1.415 . S
C988 C987 1.355 . S
C988 C990 1.419 . S
C989 C984 1.425 . S
C989 C986 1.409 1_545 S
C989 C987 1.415 . S
C990 H980 0.930 . S
C990 C988 1.419 . S
C990 C991 1.362 . S
C991 H981 0.930 . S
C991 C984 1.409 . S
C991 C990 1.362 . S
H992 C998 0.930 . S
H993 C1001 0.930 . S
H994 C1002 0.930 . S
H995 C1003 0.930 . S
H996 C1006 0.930 . S
H997 C1007 0.930 . S
C998 H992 0.930 . S
C998 C999 1.355 . S
C998 C1000 1.415 . S
C999 C998 1.355 . S
C999 C1001 1.419 . S
C1000 C998 1.415 . S
C1000 C1005 1.425 . S
C1000 C1007 1.409 1_455 S
C1001 H993 0.930 . S
C1001 C999 1.419 . S
C1001 C1002 1.362 . S
C1002 H994 0.930 . S
C1002 C1001 1.362 . S
C1002 C1005 1.409 . S
C1003 H995 0.930 . S
C1003 C1004 1.355 . S
C1003 C1005 1.415 1_655 S
C1004 C1003 1.355 . S
C1004 C1006 1.419 . S
C1005 C1000 1.425 . S
C1005 C1002 1.409 . S
C1005 C1003 1.415 1_455 S
C1006 H996 0.930 . S
C1006 C1004 1.419 . S
C1006 C1007 1.362 . S
C1007 H997 0.930 . S
C1007 C1000 1.409 1_655 S
C1007 C1006 1.362 . S
H1008 C1014 0.930 . S
H1009 C1017 0.930 . S
H1010 C1018 0.930 . S
H1011 C1019 0.930 . S
H1012 C1022 0.930 . S
H1013 C1023 0.930 . S
C1014 H1008 0.930 . S
C1014 C1015 1.355 1_565 S
C1014 C1016 1.415 . S
C1015 C1014 1.355 1_545 S
C1015 C1017 1.419 . S
C1016 C1014 1.415 . S
C1016 C1021 1.425 1_564 S
C1016 C1023 1.409 1_554 S
C1017 H1009 0.930 . S
C1017 C1015 1.419 . S
C1017 C1018 1.362 . S
C1018 H1010 0.930 . S
C1018 C1017 1.362 . S
C1018 C1021 1.409 1_554 S
C1019 H1011 0.930 . S
C1019 C1020 1.355 . S
C1019 C1021 1.415 . S
C1020 C1019 1.355 . S
C1020 C1022 1.419 1_545 S
C1021 C1016 1.425 1_546 S
C1021 C1018 1.409 1_556 S
C1021 C1019 1.415 . S
C1022 H1012 0.930 . S
C1022 C1020 1.419 1_565 S
C1022 C1023 1.362 . S
C1023 H1013 0.930 . S
C1023 C1016 1.409 1_556 S
C1023 C1022 1.362 . S
H1024 C1030 0.930 . S
H1025 C1033 0.930 . S
H1026 C1034 0.930 . S
H1027 C1035 0.930 . S
H1028 C1038 0.930 . S
H1029 C1039 0.930 . S
C1030 H1024 0.930 . S
C1030 C1031 1.355 . S
C1030 C1032 1.415 . S
C1031 C1030 1.355 . S
C1031 C1033 1.419 1_455 S
C1032 C1030 1.415 . S
C1032 C1037 1.425 1_456 S
C1032 C1039 1.409 1_556 S
C1033 H1025 0.930 . S
C1033 C1031 1.419 1_655 S
C1033 C1034 1.362 . S
C1034 H1026 0.930 . S
C1034 C1033 1.362 . S
C1034 C1037 1.409 1_556 S
C1035 H1027 0.930 . S
C1035 C1036 1.355 1_655 S
C1035 C1037 1.415 . S
C1036 C1035 1.355 1_455 S
C1036 C1038 1.419 . S
C1037 C1032 1.425 1_654 S
C1037 C1034 1.409 1_554 S
C1037 C1035 1.415 . S
C1038 H1028 0.930 . S
C1038 C1036 1.419 . S
C1038 C1039 1.362 . S
C1039 H1029 0.930 . S
C1039 C1032 1.409 1_554 S
C1039 C1038 1.362 . S
H1040 C1046 0.930 . S
H1041 C1049 0.930 . S
H1042 C1050 0.930 . S
H1043 C1051 0.930 . S
H1044 C1054 0.930 . S
H1045 C1055 0.930 . S
C1046 H1040 0.930 . S
C1046 C1047 1.355 . S
C1046 C1048 1.415 . S
C1047 C1046 1.355 . S
C1047 C1049 1.419 . S
C1048 C1046 1.415 . S
C1048 C1053 1.425 1_556 S
C1048 C1055 1.409 1_556 S
C1049 H1041 0.930 . S
C1049 C1047 1.419 . S
C1049 C1050 1.362 . S
C1050 H1042 0.930 . S
C1050 C1049 1.362 . S
C1050 C1053 1.409 1_556 S
C1051 H1043 0.930 . S
C1051 C1052 1.355 . S
C1051 C1053 1.415 . S
C1052 C1051 1.355 . S
C1052 C1054 1.419 . S
C1053 C1048 1.425 1_554 S
C1053 C1050 1.409 1_554 S
C1053 C1051 1.415 . S
C1054 H1044 0.930 . S
C1054 C1052 1.419 . S
C1054 C1055 1.362 . S
C1055 H1045 0.930 . S
C1055 C1048 1.409 1_554 S
C1055 C1054 1.362 . S
H1056 C1062 0.930 . S
H1057 C1065 0.930 . S
H1058 C1066 0.930 . S
H1059 C1067 0.930 . S
H1060 C1070 0.930 . S
H1061 C1071 0.930 . S
C1062 H1056 0.930 . S
C1062 C1063 1.355 . S
C1062 C1064 1.415 . S
C1063 C1062 1.355 . S
C1063 C1065 1.419 . S
C1064 C1062 1.415 . S
C1064 C1069 1.425 . S
C1064 C1071 1.409 . S
C1065 H1057 0.930 . S
C1065 C1063 1.419 . S
C1065 C1066 1.362 . S
C1066 H1058 0.930 . S
C1066 C1065 1.362 . S
C1066 C1069 1.409 . S
C1067 H1059 0.930 . S
C1067 C1068 1.355 . S
C1067 C1069 1.415 . S
C1068 C1067 1.355 . S
C1068 C1070 1.419 . S
C1069 C1064 1.425 . S
C1069 C1066 1.409 . S
C1069 C1067 1.415 . S
C1070 H1060 0.930 . S
C1070 C1068 1.419 . S
C1070 C1071 1.362 . S
C1071 H1061 0.930 . S
C1071 C1064 1.409 . S
C1071 C1070 1.362 . S
H1072 C1078 0.930 . S
H1073 C1081 0.930 . S
H1074 C1082 0.930 . S
H1075 C1083 0.930 . S
H1076 C1086 0.930 . S
H1077 C1087 0.930 . S
C1078 H1072 0.930 . S
C1078 C1079 1.355 . S
C1078 C1080 1.415 . S
C1079 C1078 1.355 . S
C1079 C1081 1.419 . S
C1080 C1078 1.415 . S
C1080 C1085 1.425 . S
C1080 C1087 1.409 . S
C1081 H1073 0.930 . S
C1081 C1079 1.419 . S
C1081 C1082 1.362 . S
C1082 H1074 0.930 . S
C1082 C1081 1.362 . S
C1082 C1085 1.409 . S
C1083 H1075 0.930 . S
C1083 C1084 1.355 . S
C1083 C1085 1.415 . S
C1084 C1083 1.355 . S
C1084 C1086 1.419 . S
C1085 C1080 1.425 . S
C1085 C1082 1.409 . S
C1085 C1083 1.415 . S
C1086 H1076 0.930 . S
C1086 C1084 1.419 . S
C1086 C1087 1.362 . S
C1087 H1077 0.930 . S
C1087 C1080 1.409 . S
C1087 C1086 1.362 . S
H1088 C1094 0.930 . S
H1089 C1097 0.930 . S
H1090 C1098 0.930 . S
H1091 C1099 0.930 . S
H1092 C1102 0.930 . S
H1093 C1103 0.930 . S
C1094 H1088 0.930 . S
C1094 C1095 1.355 . S
C1094 C1096 1.415 . S
C1095 C1094 1.355 . S
C1095 C1097 1.419 . S
C1096 C1094 1.415 . S
C1096 C1101 1.425 . S
C1096 C1103 1.409 . S
C1097 H1089 0.930 . S
C1097 C1095 1.419 . S
C1097 C1098 1.362 . S
C1098 H1090 0.930 . S
C1098 C1097 1.362 . S
C1098 C1101 1.409 . S
C1099 H1091 0.930 . S
C1099 C1100 1.355 . S
C1099 C1101 1.415 . S
C1100 C1099 1.355 . S
C1100 C1102 1.419 . S
C1101 C1096 1.425 . S
C1101 C1098 1.409 . S
C1101 C1099 1.415 . S
C1102 H1092 0.930 . S
C1102 C1100 1.419 . S
C1102 C1103 1.362 . S
C1103 H1093 0.930 . S
C1103 C1096 1.409 . S
C1103 C1102 1.362 . S
H1104 C1110 0.930 . S
H1105 C1113 0.930 . S
H1106 C1114 0.930 . S
H1107 C1115 0.930 . S
H1108 C1118 0.930 . S
H1109 C1119 0.930 . S
C1110 H1104 0.930 . S
C1110 C1111 1.355 . S
C1110 C1112 1.415 . S
C1111 C1110 1.355 . S
C1111 C1113 1.419 . S
C1112 C1110 1.415 . S
C1112 C1117 1.425 . S
C1112 C1119 1.409 . S
C1113 H1105 0.930 . S
C1113 C1111 1.419 . S
C1113 C1114 1.362 . S
C1114 H1106 0.930 . S
C1114 C1113 1.362 . S
C1114 C1117 1.409 . S
C1115 H1107 0.930 . S
C1115 C1116 1.355 . S
C1115 C1117 1.415 . S
C1116 C1115 1.355 . S
C1116 C1118 1.419 . S
C1117 C1112 1.425 . S
C1117 C1114 1.409 . S
C1117 C1115 1.415 . S
C1118 H1108 0.930 . S
C1118 C1116 1.419 . S
C1118 C1119 1.362 . S
C1119 H1109 0.930 . S
C1119 C1112 1.409 . S
C1119 C1118 1.362 . S
H1120 C1126 0.930 . S
H1121 C1129 0.930 . S
H1122 C1130 0.930 . S
H1123 C1131 0.930 . S
H1124 C1134 0.930 . S
H1125 C1135 0.930 . S
C1126 H1120 0.930 . S
C1126 C1127 1.355 . S
C1126 C1128 1.415 . S
C1127 C1126 1.355 . S
C1127 C1129 1.419 . S
C1128 C1126 1.415 . S
C1128 C1133 1.425 . S
C1128 C1135 1.409 . S
C1129 H1121 0.930 . S
C1129 C1127 1.419 . S
C1129 C1130 1.362 . S
C1130 H1122 0.930 . S
C1130 C1129 1.362 . S
C1130 C1133 1.409 . S
C1131 H1123 0.930 . S
C1131 C1132 1.355 . S
C1131 C1133 1.415 . S
C1132 C1131 1.355 . S
C1132 C1134 1.419 . S
C1133 C1128 1.425 . S
C1133 C1130 1.409 . S
C1133 C1131 1.415 . S
C1134 H1124 0.930 . S
C1134 C1132 1.419 . S
C1134 C1135 1.362 . S
C1135 H1125 0.930 . S
C1135 C1128 1.409 . S
C1135 C1134 1.362 . S
H1136 C1142 0.930 . S
H1137 C1145 0.930 . S
H1138 C1146 0.930 . S
H1139 C1147 0.930 . S
H1140 C1150 0.930 . S
H1141 C1151 0.930 . S
C1142 H1136 0.930 . S
C1142 C1143 1.355 . S
C1142 C1144 1.415 . S
C1143 C1142 1.355 . S
C1143 C1145 1.419 . S
C1144 C1142 1.415 . S
C1144 C1149 1.425 . S
C1144 C1151 1.409 . S
C1145 H1137 0.930 . S
C1145 C1143 1.419 . S
C1145 C1146 1.362 . S
C1146 H1138 0.930 . S
C1146 C1145 1.362 . S
C1146 C1149 1.409 . S
C1147 H1139 0.930 . S
C1147 C1148 1.355 . S
C1147 C1149 1.415 . S
C1148 C1147 1.355 . S
C1148 C1150 1.419 . S
C1149 C1144 1.425 . S
C1149 C1146 1.409 . S
C1149 C1147 1.415 . S
C1150 H1140 0.930 . S
C1150 C1148 1.419 . S
C1150 C1151 1.362 . S
C1151 H1141 0.930 . S
C1151 C1144 1.409 . S
C1151 C1150 1.362 . S
H1152 C1158 0.930 . S
H1153 C1161 0.930 . S
H1154 C1162 0.930 . S
H1155 C1163 0.930 . S
H1156 C1166 0.913 1_545 S
H1157 C1167 0.930 . S
C1158 H1152 0.930 . S
C1158 C1159 1.355 . S
C1158 C1160 1.415 . S
C1159 C1158 1.355 . S
C1159 C1161 1.419 . S
C1160 C1158 1.415 . S
C1160 C1165 1.425 . S
C1160 C1167 1.409 . S
C1161 H1153 0.930 . S
C1161 C1159 1.419 . S
C1161 C1162 1.362 . S
C1162 H1154 0.930 . S
C1162 C1161 1.362 . S
C1162 C1165 1.409 . S
C1163 H1155 0.930 . S
C1163 C1164 1.355 . S
C1163 C1165 1.415 . S
C1164 C1163 1.355 . S
C1164 C1166 1.419 . S
C1165 C1160 1.425 . S
C1165 C1162 1.409 . S
C1165 C1163 1.415 . S
C1166 H1156 0.913 1_565 S
C1166 C1164 1.419 . S
C1166 C1167 1.362 . S
C1167 H1157 0.930 . S
C1167 C1160 1.409 . S
C1167 C1166 1.362 . S
H1168 C1174 0.930 . S
H1169 C1177 0.930 . S
H1170 C1178 0.930 . S
H1171 C1179 0.930 . S
H1172 C1182 0.930 . S
H1173 C1183 0.930 . S
C1174 H1168 0.930 . S
C1174 C1175 1.355 . S
C1174 C1176 1.415 . S
C1175 C1174 1.355 . S
C1175 C1177 1.419 . S
C1176 C1174 1.415 . S
C1176 C1181 1.425 . S
C1176 C1183 1.409 . S
C1177 H1169 0.930 . S
C1177 C1175 1.419 . S
C1177 C1178 1.362 . S
C1178 H1170 0.930 . S
C1178 C1177 1.362 . S
C1178 C1181 1.409 . S
C1179 H1171 0.930 . S
C1179 C1180 1.355 . S
C1179 C1181 1.415 . S
C1180 C1179 1.355 . S
C1180 C1182 1.419 . S
C1181 C1176 1.425 . S
C1181 C1178 1.409 . S
C1181 C1179 1.415 . S
C1182 H1172 0.930 . S
C1182 C1180 1.419 . S
C1182 C1183 1.362 . S
C1183 H1173 0.930 . S
C1183 C1176 1.409 . S
C1183 C1182 1.362 . S
H1184 C1190 0.930 . S
H1185 C1193 0.930 . S
H1186 C1194 0.930 . S
H1187 C1195 0.930 . S
H1188 C1198 0.930 . S
H1189 C1199 0.930 . S
C1190 H1184 0.930 . S
C1190 C1191 1.355 . S
C1190 C1192 1.415 . S
C1191 C1190 1.355 . S
C1191 C1193 1.419 . S
C1192 C1190 1.415 . S
C1192 C1197 1.425 . S
C1192 C1199 1.409 . S
C1193 H1185 0.930 . S
C1193 C1191 1.419 . S
C1193 C1194 1.362 . S
C1194 H1186 0.930 . S
C1194 C1193 1.362 . S
C1194 C1197 1.409 . S
C1195 H1187 0.930 . S
C1195 C1196 1.355 . S
C1195 C1197 1.415 . S
C1196 C1195 1.355 . S
C1196 C1198 1.419 . S
C1197 C1192 1.425 . S
C1197 C1194 1.409 . S
C1197 C1195 1.415 . S
C1198 H1188 0.930 . S
C1198 C1196 1.419 . S
C1198 C1199 1.362 . S
C1199 H1189 0.930 . S
C1199 C1192 1.409 . S
C1199 C1198 1.362 . S
H1200 C1206 0.930 . S
H1201 C1209 0.930 1_455 S
H1202 C1210 0.930 1_455 S
H1203 C1211 0.930 . S
H1204 C1214 0.930 . S
H1205 C1215 0.930 . S
C1206 H1200 0.930 . S
C1206 C1207 1.355 . S
C1206 C1208 1.415 . S
C1207 C1206 1.355 . S
C1207 C1209 1.419 . S
C1208 C1206 1.415 . S
C1208 C1213 1.425 . S
C1208 C1215 1.409 . S
C1209 H1201 0.930 1_655 S
C1209 C1207 1.419 . S
C1209 C1210 1.362 . S
C1210 H1202 0.930 1_655 S
C1210 C1209 1.362 . S
C1210 C1213 1.409 . S
C1211 H1203 0.930 . S
C1211 C1212 1.355 . S
C1211 C1213 1.415 . S
C1212 C1211 1.355 . S
C1212 C1214 1.419 . S
C1213 C1208 1.425 . S
C1213 C1210 1.409 . S
C1213 C1211 1.415 . S
C1214 H1204 0.930 . S
C1214 C1212 1.419 . S
C1214 C1215 1.362 . S
C1215 H1205 0.930 . S
C1215 C1208 1.409 . S
C1215 C1214 1.362 . S
H1216 C1222 0.930 . S
H1217 C1225 0.930 . S
H1218 C1226 0.930 . S
H1219 C1227 0.930 . S
H1220 C1230 0.930 . S
H1221 C1231 0.930 . S
C1222 H1216 0.930 . S
C1222 C1223 1.355 . S
C1222 C1224 1.415 . S
C1223 C1222 1.355 . S
C1223 C1225 1.419 . S
C1224 C1222 1.415 . S
C1224 C1229 1.425 . S
C1224 C1231 1.409 . S
C1225 H1217 0.930 . S
C1225 C1223 1.419 . S
C1225 C1226 1.362 . S
C1226 H1218 0.930 . S
C1226 C1225 1.362 . S
C1226 C1229 1.409 . S
C1227 H1219 0.930 . S
C1227 C1228 1.355 . S
C1227 C1229 1.415 . S
C1228 C1227 1.355 . S
C1228 C1230 1.419 . S
C1229 C1224 1.425 . S
C1229 C1226 1.409 . S
C1229 C1227 1.415 . S
C1230 H1220 0.930 . S
C1230 C1228 1.419 . S
C1230 C1231 1.362 . S
C1231 H1221 0.930 . S
C1231 C1224 1.409 . S
C1231 C1230 1.362 . S
H1232 C1238 0.930 . S
H1233 C1241 0.930 . S
H1234 C1242 0.930 . S
H1235 C1243 0.930 . S
H1236 C1246 0.930 . S
H1237 C1247 0.930 . S
C1238 H1232 0.930 . S
C1238 C1239 1.355 . S
C1238 C1240 1.415 . S
C1239 C1238 1.355 . S
C1239 C1241 1.419 . S
C1240 C1238 1.415 . S
C1240 C1245 1.425 . S
C1240 C1247 1.409 . S
C1241 H1233 0.930 . S
C1241 C1239 1.419 . S
C1241 C1242 1.362 . S
C1242 H1234 0.930 . S
C1242 C1241 1.362 . S
C1242 C1245 1.409 . S
C1243 H1235 0.930 . S
C1243 C1244 1.355 . S
C1243 C1245 1.415 . S
C1244 C1243 1.355 . S
C1244 C1246 1.419 . S
C1245 C1240 1.425 . S
C1245 C1242 1.409 . S
C1245 C1243 1.415 . S
C1246 H1236 0.930 . S
C1246 C1244 1.419 . S
C1246 C1247 1.362 . S
C1247 H1237 0.930 . S
C1247 C1240 1.409 . S
C1247 C1246 1.362 . S
H1248 C1254 0.930 . S
H1249 C1257 0.930 . S
H1250 C1258 0.930 . S
H1251 C1259 0.930 . S
H1252 C1262 0.930 . S
H1253 C1263 0.930 . S
C1254 H1248 0.930 . S
C1254 C1255 1.355 . S
C1254 C1256 1.415 1_655 S
C1255 C1254 1.355 . S
C1255 C1257 1.419 . S
C1256 C1254 1.415 1_455 S
C1256 C1261 1.425 . S
C1256 C1263 1.409 . S
C1257 H1249 0.930 . S
C1257 C1255 1.419 . S
C1257 C1258 1.362 1_655 S
C1258 H1250 0.930 . S
C1258 C1257 1.362 1_455 S
C1258 C1261 1.409 . S
C1259 H1251 0.930 . S
C1259 C1260 1.355 . S
C1259 C1261 1.415 . S
C1260 C1259 1.355 . S
C1260 C1262 1.419 . S
C1261 C1256 1.425 . S
C1261 C1258 1.409 . S
C1261 C1259 1.415 . S
C1262 H1252 0.930 . S
C1262 C1260 1.419 . S
C1262 C1263 1.362 . S
C1263 H1253 0.930 . S
C1263 C1256 1.409 . S
C1263 C1262 1.362 . S
H1264 C1270 0.930 . S
H1265 C1273 0.930 . S
H1266 C1274 0.930 . S
H1267 C1275 0.930 . S
H1268 C1278 0.930 . S
H1269 C1279 0.930 . S
C1270 H1264 0.930 . S
C1270 C1271 1.355 . S
C1270 C1272 1.415 . S
C1271 C1270 1.355 . S
C1271 C1273 1.419 . S
C1272 C1270 1.415 . S
C1272 C1277 1.425 . S
C1272 C1279 1.409 . S
C1273 H1265 0.930 . S
C1273 C1271 1.419 . S
C1273 C1274 1.362 . S
C1274 H1266 0.930 . S
C1274 C1273 1.362 . S
C1274 C1277 1.409 . S
C1275 H1267 0.930 . S
C1275 C1276 1.355 . S
C1275 C1277 1.415 . S
C1276 C1275 1.355 . S
C1276 C1278 1.419 . S
C1277 C1272 1.425 . S
C1277 C1274 1.409 . S
C1277 C1275 1.415 . S
C1278 H1268 0.930 . S
C1278 C1276 1.419 . S
C1278 C1279 1.362 . S
C1279 H1269 0.930 . S
C1279 C1272 1.409 . S
C1279 C1278 1.362 . S
H1280 C1286 0.930 . S
H1281 C1289 0.930 . S
H1282 C1290 0.930 . S
H1283 C1291 0.930 . S
H1284 C1294 0.930 . S
H1285 C1295 0.930 . S
C1286 H1280 0.930 . S
C1286 C1287 1.355 . S
C1286 C1288 1.415 1_565 S
C1287 C1286 1.355 . S
C1287 C1289 1.419 . S
C1288 C1286 1.415 1_545 S
C1288 C1293 1.425 . S
C1288 C1295 1.409 . S
C1289 H1281 0.930 . S
C1289 C1287 1.419 . S
C1289 C1290 1.362 . S
C1290 H1282 0.930 . S
C1290 C1289 1.362 . S
C1290 C1293 1.409 1_565 S
C1291 H1283 0.930 . S
C1291 C1292 1.355 . S
C1291 C1293 1.415 . S
C1292 C1291 1.355 . S
C1292 C1294 1.419 . S
C1293 C1288 1.425 . S
C1293 C1290 1.409 1_545 S
C1293 C1291 1.415 . S
C1294 H1284 0.930 . S
C1294 C1292 1.419 . S
C1294 C1295 1.362 . S
C1295 H1285 0.930 . S
C1295 C1288 1.409 . S
C1295 C1294 1.362 . S
H1296 C1302 0.930 . S
H1297 C1305 0.930 . S
H1298 C1306 0.930 . S
H1299 C1307 0.930 . S
H1300 C1310 0.930 . S
H1301 C1311 0.930 . S
C1302 H1296 0.930 . S
C1302 C1303 1.355 . S
C1302 C1304 1.415 . S
C1303 C1302 1.355 . S
C1303 C1305 1.419 . S
C1304 C1302 1.415 . S
C1304 C1309 1.425 . S
C1304 C1311 1.409 . S
C1305 H1297 0.930 . S
C1305 C1303 1.419 . S
C1305 C1306 1.362 . S
C1306 H1298 0.930 . S
C1306 C1305 1.362 . S
C1306 C1309 1.409 . S
C1307 H1299 0.930 . S
C1307 C1308 1.355 . S
C1307 C1309 1.415 . S
C1308 C1307 1.355 . S
C1308 C1310 1.419 . S
C1309 C1304 1.425 . S
C1309 C1306 1.409 . S
C1309 C1307 1.415 . S
C1310 H1300 0.930 . S
C1310 C1308 1.419 . S
C1310 C1311 1.362 . S
C1311 H1301 0.930 . S
C1311 C1304 1.409 . S
C1311 C1310 1.362 . S
H1312 C1318 0.930 . S
H1313 C1321 0.930 . S
H1314 C1322 0.930 . S
H1315 C1323 0.930 . S
H1316 C1326 0.930 . S
H1317 C1327 0.930 . S
C1318 H1312 0.930 . S
C1318 C1319 1.355 . S
C1318 C1320 1.415 . S
C1319 C1318 1.355 . S
C1319 C1321 1.419 . S
C1320 C1318 1.415 . S
C1320 C1325 1.425 . S
C1320 C1327 1.409 . S
C1321 H1313 0.930 . S
C1321 C1319 1.419 . S
C1321 C1322 1.362 . S
C1322 H1314 0.930 . S
C1322 C1321 1.362 . S
C1322 C1325 1.409 . S
C1323 H1315 0.930 . S
C1323 C1324 1.355 . S
C1323 C1325 1.415 . S
C1324 C1323 1.355 . S
C1324 C1326 1.419 . S
C1325 C1320 1.425 . S
C1325 C1322 1.409 . S
C1325 C1323 1.415 . S
C1326 H1316 0.930 . S
C1326 C1324 1.419 . S
C1326 C1327 1.362 . S
C1327 H1317 0.930 . S
C1327 C1320 1.409 . S
C1327 C1326 1.362 . S
H1328 C1334 0.930 . S
H1329 C1337 0.930 . S
H1330 C1338 0.930 . S
H1331 C1339 0.930 . S
H1332 C1342 0.930 . S
H1333 C1343 0.930 . S
C1334 H1328 0.930 . S
C1334 C1335 1.355 . S
C1334 C1336 1.415 . S
C1335 C1334 1.355 . S
C1335 C1337 1.419 . S
C1336 C1334 1.415 . S
C1336 C1341 1.425 . S
C1336 C1343 1.409 . S
C1337 H1329 0.930 . S
C1337 C1335 1.419 . S
C1337 C1338 1.362 . S
C1338 H1330 0.930 . S
C1338 C1337 1.362 . S
C1338 C1341 1.409 . S
C1339 H1331 0.930 . S
C1339 C1340 1.355 . S
C1339 C1341 1.415 . S
C1340 C1339 1.355 . S
C1340 C1342 1.419 . S
C1341 C1336 1.425 . S
C1341 C1338 1.409 . S
C1341 C1339 1.415 . S
C1342 H1332 0.930 . S
C1342 C1340 1.419 . S
C1342 C1343 1.362 . S
C1343 H1333 0.930 . S
C1343 C1336 1.409 . S
C1343 C1342 1.362 . S
H1344 C1350 0.930 . S
H1345 C1353 0.930 . S
H1346 C1354 0.930 . S
H1347 C1355 0.930 . S
H1348 C1358 0.930 . S
H1349 C1359 0.930 . S
C1350 H1344 0.930 . S
C1350 C1351 1.355 . S
C1350 C1352 1.415 . S
C1351 C1350 1.355 . S
C1351 C1353 1.419 . S
C1352 C1350 1.415 . S
C1352 C1357 1.425 . S
C1352 C1359 1.409 . S
C1353 H1345 0.930 . S
C1353 C1351 1.419 . S
C1353 C1354 1.362 . S
C1354 H1346 0.930 . S
C1354 C1353 1.362 . S
C1354 C1357 1.409 . S
C1355 H1347 0.930 . S
C1355 C1356 1.355 . S
C1355 C1357 1.415 . S
C1356 C1355 1.355 . S
C1356 C1358 1.419 . S
C1357 C1352 1.425 . S
C1357 C1354 1.409 . S
C1357 C1355 1.415 . S
C1358 H1348 0.930 . S
C1358 C1356 1.419 . S
C1358 C1359 1.362 . S
C1359 H1349 0.930 . S
C1359 C1352 1.409 . S
C1359 C1358 1.362 . S
H1360 C1366 0.930 . S
H1361 C1369 0.930 . S
H1362 C1370 0.930 . S
H1363 C1371 0.930 . S
H1364 C1374 0.930 . S
H1365 C1375 0.930 . S
C1366 H1360 0.930 . S
C1366 C1367 1.355 . S
C1366 C1368 1.415 . S
C1367 C1366 1.355 . S
C1367 C1369 1.419 . S
C1368 C1366 1.415 . S
C1368 C1373 1.425 . S
C1368 C1375 1.409 . S
C1369 H1361 0.930 . S
C1369 C1367 1.419 . S
C1369 C1370 1.362 . S
C1370 H1362 0.930 . S
C1370 C1369 1.362 . S
C1370 C1373 1.409 . S
C1371 H1363 0.930 . S
C1371 C1372 1.355 . S
C1371 C1373 1.415 . S
C1372 C1371 1.355 . S
C1372 C1374 1.419 . S
C1373 C1368 1.425 . S
C1373 C1370 1.409 . S
C1373 C1371 1.415 . S
C1374 H1364 0.930 . S
C1374 C1372 1.419 . S
C1374 C1375 1.362 . S
C1375 H1365 0.930 . S
C1375 C1368 1.409 . S
C1375 C1374 1.362 . S
H1376 C1382 0.930 . S
H1377 C1385 0.930 . S
H1378 C1386 0.930 . S
H1379 C1387 0.930 . S
H1380 C1390 0.930 . S
H1381 C1391 0.930 . S
C1382 H1376 0.930 . S
C1382 C1383 1.355 . S
C1382 C1384 1.415 . S
C1383 C1382 1.355 . S
C1383 C1385 1.419 . S
C1384 C1382 1.415 . S
C1384 C1389 1.425 . S
C1384 C1391 1.409 . S
C1385 H1377 0.930 . S
C1385 C1383 1.419 . S
C1385 C1386 1.362 . S
C1386 H1378 0.930 . S
C1386 C1385 1.362 . S
C1386 C1389 1.409 . S
C1387 H1379 0.930 . S
C1387 C1388 1.355 . S
C1387 C1389 1.415 . S
C1388 C1387 1.355 . S
C1388 C1390 1.419 . S
C1389 C1384 1.425 . S
C1389 C1386 1.409 . S
C1389 C1387 1.415 . S
C1390 H1380 0.930 . S
C1390 C1388 1.419 . S
C1390 C1391 1.362 . S
C1391 H1381 0.930 . S
C1391 C1384 1.409 . S
C1391 C1390 1.362 . S
H1392 C1398 0.930 . S
H1393 C1401 0.930 . S
H1394 C1402 0.930 . S
H1395 C1403 0.930 . S
H1396 C1406 0.930 . S
H1397 C1407 0.930 . S
C1398 H1392 0.930 . S
C1398 C1399 1.355 . S
C1398 C1400 1.415 . S
C1399 C1398 1.355 . S
C1399 C1401 1.419 . S
C1400 C1398 1.415 . S
C1400 C1405 1.425 . S
C1400 C1407 1.409 . S
C1401 H1393 0.930 . S
C1401 C1399 1.419 . S
C1401 C1402 1.362 . S
C1402 H1394 0.930 . S
C1402 C1401 1.362 . S
C1402 C1405 1.409 . S
C1403 H1395 0.930 . S
C1403 C1404 1.355 . S
C1403 C1405 1.415 . S
C1404 C1403 1.355 . S
C1404 C1406 1.419 . S
C1405 C1400 1.425 . S
C1405 C1402 1.409 . S
C1405 C1403 1.415 . S
C1406 H1396 0.930 . S
C1406 C1404 1.419 . S
C1406 C1407 1.362 . S
C1407 H1397 0.930 . S
C1407 C1400 1.409 . S
C1407 C1406 1.362 . S
H1408 C1414 0.930 . S
H1409 C1417 0.930 . S
H1410 C1418 0.930 . S
H1411 C1419 0.930 . S
H1412 C1422 0.930 . S
H1413 C1423 0.930 . S
C1414 H1408 0.930 . S
C1414 C1415 1.355 . S
C1414 C1416 1.415 . S
C1415 C1414 1.355 . S
C1415 C1417 1.419 . S
C1416 C1414 1.415 . S
C1416 C1421 1.425 . S
C1416 C1423 1.409 . S
C1417 H1409 0.930 . S
C1417 C1415 1.419 . S
C1417 C1418 1.362 . S
C1418 H1410 0.930 . S
C1418 C1417 1.362 . S
C1418 C1421 1.409 . S
C1419 H1411 0.930 . S
C1419 C1420 1.355 . S
C1419 C1421 1.415 . S
C1420 C1419 1.355 . S
C1420 C1422 1.419 . S
C1421 C1416 1.425 . S
C1421 C1418 1.409 . S
C1421 C1419 1.415 . S
C1422 H1412 0.930 . S
C1422 C1420 1.419 . S
C1422 C1423 1.362 . S
C1423 H1413 0.930 . S
C1423 C1416 1.409 . S
C1423 C1422 1.362 . S
H1424 C1430 0.930 . S
H1425 C1433 0.930 . S
H1426 C1434 0.930 . S
H1427 C1435 0.930 . S
H1428 C1438 0.930 . S
H1429 C1439 0.930 . S
C1430 H1424 0.930 . S
C1430 C1431 1.355 . S
C1430 C1432 1.415 . S
C1431 C1430 1.355 . S
C1431 C1433 1.419 . S
C1432 C1430 1.415 . S
C1432 C1437 1.425 . S
C1432 C1439 1.409 . S
C1433 H1425 0.930 . S
C1433 C1431 1.419 . S
C1433 C1434 1.362 . S
C1434 H1426 0.930 . S
C1434 C1433 1.362 . S
C1434 C1437 1.409 . S
C1435 H1427 0.930 . S
C1435 C1436 1.355 . S
C1435 C1437 1.415 . S
C1436 C1435 1.355 . S
C1436 C1438 1.419 . S
C1437 C1432 1.425 . S
C1437 C1434 1.409 . S
C1437 C1435 1.415 . S
C1438 H1428 0.930 . S
C1438 C1436 1.419 . S
C1438 C1439 1.362 . S
C1439 H1429 0.930 . S
C1439 C1432 1.409 . S
C1439 C1438 1.362 . S
H1440 C1446 0.930 . S
H1441 C1449 0.930 . S
H1442 C1450 0.930 . S
H1443 C1451 0.930 . S
H1444 C1454 0.930 . S
H1445 C1455 0.930 . S
C1446 H1440 0.930 . S
C1446 C1447 1.355 . S
C1446 C1448 1.415 . S
C1447 C1446 1.355 . S
C1447 C1449 1.419 . S
C1448 C1446 1.415 . S
C1448 C1453 1.425 . S
C1448 C1455 1.409 . S
C1449 H1441 0.930 . S
C1449 C1447 1.419 . S
C1449 C1450 1.362 . S
C1450 H1442 0.930 . S
C1450 C1449 1.362 . S
C1450 C1453 1.409 . S
C1451 H1443 0.930 . S
C1451 C1452 1.355 . S
C1451 C1453 1.415 . S
C1452 C1451 1.355 . S
C1452 C1454 1.419 . S
C1453 C1448 1.425 . S
C1453 C1450 1.409 . S
C1453 C1451 1.415 . S
C1454 H1444 0.930 . S
C1454 C1452 1.419 . S
C1454 C1455 1.362 . S
C1455 H1445 0.930 . S
C1455 C1448 1.409 . S
C1455 C1454 1.362 . S
H1456 C1462 0.930 . S
H1457 C1465 0.930 . S
H1458 C1466 0.930 . S
H1459 C1467 0.930 . S
H1460 C1470 0.930 . S
H1461 C1471 0.930 . S
C1462 H1456 0.930 . S
C1462 C1463 1.355 1_545 S
C1462 C1464 1.415 . S
C1463 C1462 1.355 1_565 S
C1463 C1465 1.419 . S
C1464 C1462 1.415 . S
C1464 C1469 1.425 . S
C1464 C1471 1.409 . S
C1465 H1457 0.930 . S
C1465 C1463 1.419 . S
C1465 C1466 1.362 . S
C1466 H1458 0.930 . S
C1466 C1465 1.362 . S
C1466 C1469 1.409 1_565 S
C1467 H1459 0.930 . S
C1467 C1468 1.355 . S
C1467 C1469 1.415 . S
C1468 C1467 1.355 . S
C1468 C1470 1.419 . S
C1469 C1464 1.425 . S
C1469 C1466 1.409 1_545 S
C1469 C1467 1.415 . S
C1470 H1460 0.930 . S
C1470 C1468 1.419 . S
C1470 C1471 1.362 . S
C1471 H1461 0.930 . S
C1471 C1464 1.409 . S
C1471 C1470 1.362 . S
H1472 C1478 0.930 . S
H1473 C1481 0.930 . S
H1474 C1482 0.930 . S
H1475 C1483 0.930 . S
H1476 C1486 0.930 . S
H1477 C1487 0.930 . S
C1478 H1472 0.930 . S
C1478 C1479 1.355 . S
C1478 C1480 1.415 . S
C1479 C1478 1.355 . S
C1479 C1481 1.419 . S
C1480 C1478 1.415 . S
C1480 C1485 1.425 1_655 S
C1480 C1487 1.409 . S
C1481 H1473 0.930 . S
C1481 C1479 1.419 . S
C1481 C1482 1.362 1_655 S
C1482 H1474 0.930 . S
C1482 C1481 1.362 1_455 S
C1482 C1485 1.409 . S
C1483 H1475 0.930 . S
C1483 C1484 1.355 . S
C1483 C1485 1.415 . S
C1484 C1483 1.355 . S
C1484 C1486 1.419 . S
C1485 C1480 1.425 1_455 S
C1485 C1482 1.409 . S
C1485 C1483 1.415 . S
C1486 H1476 0.930 . S
C1486 C1484 1.419 . S
C1486 C1487 1.362 1_455 S
C1487 H1477 0.930 . S
C1487 C1480 1.409 . S
C1487 C1486 1.362 1_655 S
H1488 C1494 0.930 . S
H1489 C1497 0.930 . S
H1490 C1498 0.930 . S
H1491 C1499 0.930 . S
H1492 C1502 0.930 . S
H1493 C1503 0.930 . S
C1494 H1488 0.930 . S
C1494 C1495 1.355 . S
C1494 C1496 1.415 . S
C1495 C1494 1.355 . S
C1495 C1497 1.419 . S
C1496 C1494 1.415 . S
C1496 C1501 1.425 . S
C1496 C1503 1.409 . S
C1497 H1489 0.930 . S
C1497 C1495 1.419 . S
C1497 C1498 1.362 . S
C1498 H1490 0.930 . S
C1498 C1497 1.362 . S
C1498 C1501 1.409 . S
C1499 H1491 0.930 . S
C1499 C1500 1.355 . S
C1499 C1501 1.415 . S
C1500 C1499 1.355 . S
C1500 C1502 1.419 . S
C1501 C1496 1.425 . S
C1501 C1498 1.409 . S
C1501 C1499 1.415 . S
C1502 H1492 0.930 . S
C1502 C1500 1.419 . S
C1502 C1503 1.362 . S
C1503 H1493 0.930 . S
C1503 C1496 1.409 . S
C1503 C1502 1.362 . S
H1504 C1510 0.930 . S
H1505 C1513 0.930 . S
H1506 C1514 0.930 . S
H1507 C1515 0.930 . S
H1508 C1518 0.930 . S
H1509 C1519 0.930 . S
C1510 H1504 0.930 . S
C1510 C1511 1.355 . S
C1510 C1512 1.415 . S
C1511 C1510 1.355 . S
C1511 C1513 1.419 . S
C1512 C1510 1.415 . S
C1512 C1517 1.425 1_545 S
C1512 C1519 1.409 . S
C1513 H1505 0.930 . S
C1513 C1511 1.419 . S
C1513 C1514 1.362 1_545 S
C1514 H1506 0.930 . S
C1514 C1513 1.362 1_565 S
C1514 C1517 1.409 . S
C1515 H1507 0.930 . S
C1515 C1516 1.355 . S
C1515 C1517 1.415 . S
C1516 C1515 1.355 . S
C1516 C1518 1.419 . S
C1517 C1512 1.425 1_565 S
C1517 C1514 1.409 . S
C1517 C1515 1.415 . S
C1518 H1508 0.930 . S
C1518 C1516 1.419 . S
C1518 C1519 1.362 1_565 S
C1519 H1509 0.930 . S
C1519 C1512 1.409 . S
C1519 C1518 1.362 1_545 S
H1520 C1526 0.930 . S
H1521 C1529 0.930 . S
H1522 C1530 0.930 . S
H1523 C1531 0.930 . S
H1524 C1534 0.930 . S
H1525 C1535 0.930 . S
C1526 H1520 0.930 . S
C1526 C1527 1.355 . S
C1526 C1528 1.415 . S
C1527 C1526 1.355 . S
C1527 C1529 1.419 . S
C1528 C1526 1.415 . S
C1528 C1533 1.425 . S
C1528 C1535 1.409 1_455 S
C1529 H1521 0.930 . S
C1529 C1527 1.419 . S
C1529 C1530 1.362 . S
C1530 H1522 0.930 . S
C1530 C1529 1.362 . S
C1530 C1533 1.409 . S
C1531 H1523 0.930 . S
C1531 C1532 1.355 1_455 S
C1531 C1533 1.415 . S
C1532 C1531 1.355 1_655 S
C1532 C1534 1.419 . S
C1533 C1528 1.425 . S
C1533 C1530 1.409 . S
C1533 C1531 1.415 . S
C1534 H1524 0.930 . S
C1534 C1532 1.419 . S
C1534 C1535 1.362 . S
C1535 H1525 0.930 . S
C1535 C1528 1.409 1_655 S
C1535 C1534 1.362 . S
H1536 C1542 0.930 . S
H1537 C1545 0.930 . S
H1538 C1546 0.930 . S
H1539 C1547 0.930 . S
H1540 C1550 0.930 . S
H1541 C1551 0.930 . S
C1542 H1536 0.930 . S
C1542 C1543 1.355 . S
C1542 C1544 1.415 . S
C1543 C1542 1.355 . S
C1543 C1545 1.419 . S
C1544 C1542 1.415 . S
C1544 C1549 1.425 . S
C1544 C1551 1.409 . S
C1545 H1537 0.930 . S
C1545 C1543 1.419 . S
C1545 C1546 1.362 . S
C1546 H1538 0.930 . S
C1546 C1545 1.362 . S
C1546 C1549 1.409 . S
C1547 H1539 0.930 . S
C1547 C1548 1.355 . S
C1547 C1549 1.415 . S
C1548 C1547 1.355 . S
C1548 C1550 1.419 . S
C1549 C1544 1.425 . S
C1549 C1546 1.409 . S
C1549 C1547 1.415 . S
C1550 H1540 0.930 . S
C1550 C1548 1.419 . S
C1550 C1551 1.362 . S
C1551 H1541 0.930 . S
C1551 C1544 1.409 . S
C1551 C1550 1.362 . S
H1552 C1558 0.930 . S
H1553 C1561 0.930 . S
H1554 C1562 0.930 . S
H1555 C1563 0.930 . S
H1556 C1566 0.930 . S
H1557 C1567 0.930 . S
C1558 H1552 0.930 . S
C1558 C1559 1.355 . S
C1558 C1560 1.415 . S
C1559 C1558 1.355 . S
C1559 C1561 1.419 . S
C1560 C1558 1.415 . S
C1560 C1565 1.425 . S
C1560 C1567 1.409 . S
C1561 H1553 0.930 . S
C1561 C1559 1.419 . S
C1561 C1562 1.362 . S
C1562 H1554 0.930 . S
C1562 C1561 1.362 . S
C1562 C1565 1.409 . S
C1563 H1555 0.930 . S
C1563 C1564 1.355 . S
C1563 C1565 1.415 . S
C1564 C1563 1.355 . S
C1564 C1566 1.419 . S
C1565 C1560 1.425 . S
C1565 C1562 1.409 . S
C1565 C1563 1.415 . S
C1566 H1556 0.930 . S
C1566 C1564 1.419 . S
C1566 C1567 1.362 . S
C1567 H1557 0.930 . S
C1567 C1560 1.409 . S
C1567 C1566 1.362 . S
H1568 C1574 0.930 . S
H1569 C1577 0.930 . S
H1570 C1578 0.930 . S
H1571 C1579 0.930 . S
H1572 C1582 0.930 . S
H1573 C1583 0.930 . S
C1574 H1568 0.930 . S
C1574 C1575 1.355 . S
C1574 C1576 1.415 . S
C1575 C1574 1.355 . S
C1575 C1577 1.419 . S
C1576 C1574 1.415 . S
C1576 C1581 1.425 . S
C1576 C1583 1.409 . S
C1577 H1569 0.930 . S
C1577 C1575 1.419 . S
C1577 C1578 1.362 . S
C1578 H1570 0.930 . S
C1578 C1577 1.362 . S
C1578 C1581 1.409 . S
C1579 H1571 0.930 . S
C1579 C1580 1.355 . S
C1579 C1581 1.415 . S
C1580 C1579 1.355 . S
C1580 C1582 1.419 . S
C1581 C1576 1.425 . S
C1581 C1578 1.409 . S
C1581 C1579 1.415 . S
C1582 H1572 0.930 . S
C1582 C1580 1.419 . S
C1582 C1583 1.362 . S
C1583 H1573 0.930 . S
C1583 C1576 1.409 . S
C1583 C1582 1.362 . S
C727 C20 1.094 . S
C732 C84 1.101 . S
C743 C4 1.174 . S
C748 C60 1.171 . S
C759 C44 1.174 . S
C764 C100 1.172 . S
C775 C140 1.096 . S
C780 C164 1.104 . S
C791 C204 1.094 . S
C796 C180 1.084 . S
C807 C220 1.084 . S
C812 C124 1.094 . S
C823 C324 1.176 . S
C828 C260 1.174 . S
C839 C244 1.141 . S
C844 C300 1.137 . S
C855 C340 1.163 . S
C860 C284 1.167 . S
C871 C404 1.173 . S
C876 C380 1.171 . S
C887 C420 1.094 . S
C892 C444 1.101 . S
C903 C364 1.116 . S
C908 C460 1.110 . S
C919 C500 1.154 . S
C924 C564 1.159 . S
C935 C484 1.113 . S
C940 C540 1.107 . S
C951 C524 1.097 . S
C956 C580 1.088 . S
C967 C644 1.173 . S
C972 C620 1.172 . S
C983 C684 1.152 . S
C988 C660 1.146 . S
C999 C604 1.139 . S
C1004 C700 1.132 . S
C1015 C2 1.730 . S
C1020 C202 1.708 . S
C1031 C122 1.663 . S
C1036 C42 1.660 . S
C1047 C162 1.677 . S
C1052 C82 1.728 . S
C1063 C242 1.732 . S
C1068 C442 1.700 . S
C1079 C282 1.669 . S
C1084 C362 1.656 . S
C1095 C402 1.704 . S
C1100 C322 1.731 . S
C1111 C482 1.667 . S
C1116 C682 1.723 . S
C1127 C602 1.727 . S
C1132 C522 1.673 . S
C1143 C642 1.679 . S
C1148 C562 1.652 . S
C1159 C423 2.337 . S
C1164 C23 2.324 . S
C1175 C63 2.322 . S
C1180 C463 2.334 . S
C1191 C383 2.322 . S
C1196 C103 2.318 . S
C1207 C143 2.322 . S
C1212 C583 2.335 . S
C1223 C183 2.327 . S
C1228 C503 2.340 . S
C1239 C543 2.328 . S
C1244 C223 2.342 . S
C1255 C663 2.319 . S
C1260 C263 2.328 . S
C1271 C303 2.342 . S
C1276 C703 2.328 . S
C1287 C343 2.341 . S
C1292 C623 2.350 . S
C1303 C105 1.731 . S
C1308 C31 1.725 . S
C1319 C25 1.735 . S
C1324 C71 1.730 . S
C1335 C111 1.713 . S
C1340 C65 1.716 . S
C1351 C185 1.710 . S
C1356 C151 1.706 . S
C1367 C225 1.705 . S
C1372 C191 1.698 . S
C1383 C231 1.733 . S
C1388 C145 1.738 . S
C1399 C345 1.745 . S
C1404 C271 1.742 . S
C1415 C311 1.698 . S
C1420 C265 1.703 . S
C1431 C305 1.710 . S
C1436 C351 1.702 . S
C1447 C391 1.701 . S
C1452 C425 1.706 . S
C1463 C431 1.727 . S
C1468 C465 1.729 . S
C1479 C385 1.743 . S
C1484 C471 1.739 . S
C1495 C511 1.703 . S
C1500 C585 1.707 . S
C1511 C551 1.733 . S
C1516 C505 1.738 . S
C1527 C545 1.704 . S
C1532 C591 1.697 . S
C1543 C631 1.702 . S
C1548 C665 1.707 . S
C1559 C671 1.698 . S
C1564 C705 1.704 . S
C1575 C625 1.728 . S
C1580 C711 1.721 . S
