# Generated by pormake.
# Topology umg, (4)-cn, num edge types: 1
# Building blocks:
#     Node 0, Type 0, BuildingBlock: CEKHIL_clean_sbu_0, # of connection points: 4
#     Node 1, Type 0, BuildingBlock: CEKHIL_clean_sbu_0, # of connection points: 4
#     Node 2, Type 0, BuildingBlock: CEKHIL_clean_sbu_0, # of connection points: 4
#     Node 3, Type 0, BuildingBlock: CEKHIL_clean_sbu_0, # of connection points: 4
#     Node 4, Type 0, BuildingBlock: CEKHIL_clean_sbu_0, # of connection points: 4
#     Node 5, Type 0, BuildingBlock: CEKHIL_clean_sbu_0, # of connection points: 4
#     Node 6, Type 0, BuildingBlock: CEKHIL_clean_sbu_0, # of connection points: 4
#     Node 7, Type 0, BuildingBlock: CEKHIL_clean_sbu_0, # of connection points: 4
#     Node 8, Type 0, BuildingBlock: CEKHIL_clean_sbu_0, # of connection points: 4
#     Node 9, Type 0, BuildingBlock: CEKHIL_clean_sbu_0, # of connection points: 4
#     Node 10, Type 0, BuildingBlock: CEKHIL_clean_sbu_0, # of connection points: 4
#     Node 11, Type 0, BuildingBlock: CEKHIL_clean_sbu_0, # of connection points: 4
#     Edge 12, Type (0, 0), BuildingBlock: ZUJKAS_clean_linker_0, # of connection points: 2
#     Edge 13, Type (0, 0), BuildingBlock: ZUJKAS_clean_linker_0, # of connection points: 2
#     Edge 14, Type (0, 0), BuildingBlock: ZUJKAS_clean_linker_0, # of connection points: 2
#     Edge 15, Type (0, 0), BuildingBlock: ZUJKAS_clean_linker_0, # of connection points: 2
#     Edge 16, Type (0, 0), BuildingBlock: ZUJKAS_clean_linker_0, # of connection points: 2
#     Edge 17, Type (0, 0), BuildingBlock: ZUJKAS_clean_linker_0, # of connection points: 2
#     Edge 18, Type (0, 0), BuildingBlock: ZUJKAS_clean_linker_0, # of connection points: 2
#     Edge 19, Type (0, 0), BuildingBlock: ZUJKAS_clean_linker_0, # of connection points: 2
#     Edge 20, Type (0, 0), BuildingBlock: ZUJKAS_clean_linker_0, # of connection points: 2
#     Edge 21, Type (0, 0), BuildingBlock: ZUJKAS_clean_linker_0, # of connection points: 2
#     Edge 22, Type (0, 0), BuildingBlock: ZUJKAS_clean_linker_0, # of connection points: 2
#     Edge 23, Type (0, 0), BuildingBlock: ZUJKAS_clean_linker_0, # of connection points: 2
#     Edge 24, Type (0, 0), BuildingBlock: ZUJKAS_clean_linker_0, # of connection points: 2
#     Edge 25, Type (0, 0), BuildingBlock: ZUJKAS_clean_linker_0, # of connection points: 2
#     Edge 26, Type (0, 0), BuildingBlock: ZUJKAS_clean_linker_0, # of connection points: 2
#     Edge 27, Type (0, 0), BuildingBlock: ZUJKAS_clean_linker_0, # of connection points: 2
#     Edge 28, Type (0, 0), BuildingBlock: ZUJKAS_clean_linker_0, # of connection points: 2
#     Edge 29, Type (0, 0), BuildingBlock: ZUJKAS_clean_linker_0, # of connection points: 2
#     Edge 30, Type (0, 0), BuildingBlock: ZUJKAS_clean_linker_0, # of connection points: 2
#     Edge 31, Type (0, 0), BuildingBlock: ZUJKAS_clean_linker_0, # of connection points: 2
#     Edge 32, Type (0, 0), BuildingBlock: ZUJKAS_clean_linker_0, # of connection points: 2
#     Edge 33, Type (0, 0), BuildingBlock: ZUJKAS_clean_linker_0, # of connection points: 2
#     Edge 34, Type (0, 0), BuildingBlock: ZUJKAS_clean_linker_0, # of connection points: 2
#     Edge 35, Type (0, 0), BuildingBlock: ZUJKAS_clean_linker_0, # of connection points: 2
# Relax obj value: 0.087
# Max RMSD: 0.199
# Mean RMSD: 0.198
data_MOF--net-umg--node1-CEKHIL_clean_sbu_0--edge1-ZUJKAS_clean_linker_0
_symmetry_space_group_name_H-M    P1
_symmetry_Int_Tables_number       1
_symmetry_cell_setting            triclinic
loop_
_symmetry_equiv_pos_as_xyz
'x, y, z'
_cell_length_a     36.51346
_cell_length_b     36.536112
_cell_length_c     109.79749
_cell_angle_alpha  90.016944
_cell_angle_beta   90.069486
_cell_angle_gamma 119.98175
loop_
_atom_site_label
_atom_site_type_symbol
_atom_site_fract_x
_atom_site_fract_y
_atom_site_fract_z
_atom_type_partial_charge
Co0 Co 0.32209 0.60381 0.07485 0.0
O1 O 0.37777 0.61088 0.07487 0.0
O2 O 0.32232 0.55726 0.06615 0.0
C3 C 0.32066 0.6172 0.09479 0.0
O4 O 0.25925 0.58695 0.07357 0.0
Co5 Co 0.31518 0.68326 0.08042 0.0
O6 O 0.25417 0.64132 0.08135 0.0
C7 C 0.34301 0.67416 0.05619 0.0
C8 C 0.36259 0.57613 0.0687 0.0
C9 C 0.23721 0.60385 0.07711 0.0
O10 O 0.33577 0.63724 0.0593 0.0
O11 O 0.33891 0.69917 0.06349 0.0
O12 O 0.31158 0.57984 0.0911 0.0
O13 O 0.33486 0.64624 0.08649 0.0
Co14 Co 0.72183 0.31648 0.40793 0.0
O15 O 0.76986 0.37232 0.40861 0.0
O16 O 0.76939 0.31902 0.39899 0.0
C17 C 0.70653 0.31242 0.42792 0.0
O18 O 0.67679 0.25376 0.40599 0.0
Co19 Co 0.63452 0.30689 0.41407 0.0
O20 O 0.61675 0.24607 0.41416 0.0
C21 C 0.6712 0.33821 0.38993 0.0
C22 C 0.79032 0.35869 0.40222 0.0
C23 C 0.63799 0.23054 0.40949 0.0
O24 O 0.70157 0.33145 0.39267 0.0
O25 O 0.64243 0.33315 0.39751 0.0
O26 O 0.73512 0.30402 0.42404 0.0
O27 O 0.69155 0.32713 0.41982 0.0
Co28 Co 0.40649 0.71149 0.74082 0.0
O29 O 0.39899 0.75984 0.74128 0.0
O30 O 0.45229 0.75883 0.7321 0.0
C31 C 0.39437 0.6959 0.76079 0.0
O32 O 0.42381 0.66613 0.73902 0.0
Co33 Co 0.32764 0.6247 0.7465 0.0
O34 O 0.3685 0.60427 0.74526 0.0
C35 C 0.33456 0.66266 0.72252 0.0
C36 C 0.43342 0.77993 0.73501 0.0
C37 C 0.40631 0.62618 0.74137 0.0
O38 O 0.3721 0.69182 0.72539 0.0
O39 O 0.30984 0.63423 0.73002 0.0
O40 O 0.43147 0.72445 0.757 0.0
O41 O 0.36489 0.68122 0.7526 0.0
Co42 Co 0.69784 0.40021 0.07537 0.0
O43 O 0.64251 0.39385 0.07598 0.0
O44 O 0.69722 0.44691 0.06686 0.0
C45 C 0.7012 0.38695 0.0952 0.0
O46 O 0.7602 0.41633 0.0734 0.0
Co47 Co 0.70462 0.32064 0.08058 0.0
O48 O 0.7661 0.36097 0.07992 0.0
C49 C 0.67403 0.32928 0.05672 0.0
C50 C 0.65722 0.42827 0.0697 0.0
C51 C 0.78242 0.39869 0.07594 0.0
O52 O 0.68186 0.36637 0.05987 0.0
O53 O 0.67875 0.30436 0.0639 0.0
O54 O 0.71098 0.4246 0.0916 0.0
O55 O 0.68546 0.35771 0.08696 0.0
Co56 Co 0.30084 0.69565 0.40769 0.0
O57 O 0.24987 0.64243 0.40951 0.0
O58 O 0.25418 0.69621 0.39909 0.0
C59 C 0.31985 0.70258 0.42742 0.0
O60 O 0.34912 0.75624 0.40462 0.0
Co61 Co 0.38517 0.69779 0.4126 0.0
O62 O 0.40935 0.75964 0.41112 0.0
C63 C 0.34261 0.66447 0.38928 0.0
C64 C 0.231 0.65757 0.403 0.0
C65 C 0.38922 0.77707 0.40692 0.0
O66 O 0.31518 0.67492 0.39242 0.0
O67 O 0.37206 0.66824 0.3964 0.0
O68 O 0.29302 0.7136 0.42366 0.0
O69 O 0.33071 0.68356 0.41948 0.0
Co70 Co 0.61106 0.29166 0.74146 0.0
O71 O 0.61776 0.24287 0.74163 0.0
O72 O 0.56398 0.24457 0.73296 0.0
C73 C 0.62529 0.30745 0.76128 0.0
O74 O 0.59451 0.33777 0.74002 0.0
Co75 Co 0.69044 0.37819 0.74684 0.0
O76 O 0.64828 0.39695 0.74811 0.0
C77 C 0.68067 0.34067 0.72263 0.0
C78 C 0.58286 0.22321 0.73553 0.0
C79 C 0.61094 0.37643 0.74376 0.0
O80 O 0.64412 0.31053 0.72585 0.0
O81 O 0.70555 0.3703 0.72983 0.0
O82 O 0.58752 0.27946 0.75777 0.0
O83 O 0.65411 0.32149 0.75293 0.0
Co84 Co 0.39927 0.6941 0.57571 0.0
O85 O 0.39283 0.63878 0.57491 0.0
O86 O 0.4458 0.69304 0.58424 0.0
C87 C 0.38664 0.69881 0.55589 0.0
O88 O 0.41533 0.75629 0.57786 0.0
Co89 Co 0.31911 0.70013 0.57056 0.0
O90 O 0.3591 0.76163 0.57179 0.0
C91 C 0.32777 0.66895 0.5943 0.0
C92 C 0.42721 0.65319 0.58122 0.0
C93 C 0.39708 0.77813 0.57562 0.0
O94 O 0.36529 0.67796 0.5912 0.0
O95 O 0.30235 0.67246 0.587 0.0
O96 O 0.42407 0.70787 0.55955 0.0
O97 O 0.35711 0.68242 0.56402 0.0
Co98 Co 0.71399 0.40465 0.90925 0.0
O99 O 0.76299 0.39831 0.90953 0.0
O100 O 0.76008 0.45177 0.91798 0.0
C101 C 0.70005 0.3905 0.88935 0.0
O102 O 0.66779 0.42107 0.91025 0.0
Co103 Co 0.62766 0.32599 0.90335 0.0
O104 O 0.61034 0.36892 0.90097 0.0
C105 C 0.66365 0.33457 0.92778 0.0
C106 C 0.7819 0.43321 0.91566 0.0
C107 C 0.63036 0.40576 0.90564 0.0
O108 O 0.69398 0.37129 0.92477 0.0
O109 O 0.63445 0.3101 0.92039 0.0
O110 O 0.72747 0.42833 0.89296 0.0
O111 O 0.68517 0.36166 0.89769 0.0
Co112 Co 0.3181 0.71525 0.2423 0.0
O113 O 0.37465 0.76234 0.24282 0.0
O114 O 0.31972 0.76254 0.25115 0.0
C115 C 0.318 0.70194 0.22226 0.0
O116 O 0.25468 0.67092 0.24303 0.0
Co117 Co 0.30851 0.62806 0.23615 0.0
O118 O 0.24801 0.61121 0.2349 0.0
C119 C 0.33483 0.66225 0.2608 0.0
C120 C 0.36021 0.78273 0.24889 0.0
C121 C 0.23186 0.63242 0.23919 0.0
O122 O 0.32884 0.69292 0.25785 0.0
O123 O 0.33131 0.63412 0.25318 0.0
O124 O 0.30989 0.73082 0.22603 0.0
O125 O 0.33047 0.68554 0.23059 0.0
Co126 Co 0.60364 0.31777 0.57456 0.0
O127 O 0.61144 0.37374 0.57457 0.0
O128 O 0.55703 0.31854 0.58304 0.0
C129 C 0.618 0.31649 0.5547 0.0
O130 O 0.5858 0.25477 0.57579 0.0
Co131 Co 0.68218 0.30875 0.56907 0.0
O132 O 0.63897 0.24819 0.56775 0.0
C133 C 0.67284 0.33621 0.59341 0.0
C134 C 0.57633 0.35881 0.58054 0.0
C135 C 0.60163 0.232 0.57204 0.0
O136 O 0.63644 0.3305 0.59024 0.0
O137 O 0.69747 0.3315 0.58611 0.0
O138 O 0.5805 0.30782 0.55815 0.0
O139 O 0.64647 0.33012 0.56317 0.0
Co140 Co 0.29157 0.60722 0.90838 0.0
O141 O 0.24496 0.61757 0.90874 0.0
O142 O 0.24417 0.56231 0.91722 0.0
C143 C 0.30542 0.62008 0.88839 0.0
O144 O 0.33445 0.58641 0.90931 0.0
Co145 Co 0.38059 0.68173 0.90234 0.0
O146 O 0.39304 0.63541 0.8997 0.0
C147 C 0.34668 0.67554 0.92695 0.0
C148 C 0.22427 0.5828 0.91484 0.0
C149 C 0.37117 0.59904 0.90452 0.0
O150 O 0.31413 0.64036 0.92388 0.0
O151 O 0.37656 0.6984 0.91955 0.0
O152 O 0.2758 0.58345 0.89213 0.0
O153 O 0.32258 0.64902 0.8967 0.0
Co154 Co 0.6941 0.29477 0.24342 0.0
O155 O 0.63924 0.24512 0.2428 0.0
O156 O 0.69464 0.24783 0.25182 0.0
C157 C 0.69688 0.31147 0.22361 0.0
O158 O 0.75613 0.34182 0.2453 0.0
Co159 Co 0.69831 0.38011 0.2383 0.0
O160 O 0.76008 0.40253 0.23905 0.0
C161 C 0.66848 0.34028 0.26212 0.0
C162 C 0.65469 0.22574 0.24894 0.0
C163 C 0.77738 0.38178 0.24285 0.0
O164 O 0.6782 0.31226 0.25903 0.0
O165 O 0.67105 0.36871 0.2548 0.0
O166 O 0.70725 0.28395 0.22714 0.0
O167 O 0.68072 0.32431 0.23189 0.0
H168 H 0.41902 0.72413 0.9401 0.0
H169 H 0.42464 0.73411 0.96226 0.0
H170 H 0.28864 0.66625 0.96508 0.0
H171 H 0.28279 0.65502 0.94307 0.0
H172 H 0.39529 0.76817 0.97985 0.0
H173 H 0.32216 0.59479 0.98537 0.0
H174 H 0.33948 0.62046 0.9708 0.0
H175 H 0.28938 0.60957 0.97698 0.0
C176 C 0.39035 0.71197 0.94543 0.0
C177 C 0.35048 0.68818 0.93989 0.0
C178 C 0.3936 0.71767 0.95808 0.0
C179 C 0.35706 0.69997 0.96533 0.0
C180 C 0.31725 0.67917 0.95968 0.0
H181 H 0.32762 0.72803 0.04265 0.0
H182 H 0.33629 0.73926 0.02061 0.0
C183 C 0.31396 0.6729 0.94711 0.0
C184 C 0.36031 0.70024 0.97879 0.0
H185 H 0.33056 0.63433 0.00331 0.0
C186 C 0.38138 0.73898 0.98501 0.0
C187 C 0.34292 0.66208 0.98547 0.0
C188 C 0.32261 0.61938 0.97932 0.0
C189 C 0.38457 0.74052 -0.0022 0.0
C190 C 0.36541 0.7023 0.00449 0.0
C191 C 0.34507 0.66367 -0.00179 0.0
C192 C 0.36561 0.70089 0.01801 0.0
C193 C 0.40897 0.78296 0.00397 0.0
C194 C 0.37919 0.67566 0.02391 0.0
C195 C 0.37338 0.66845 0.03642 0.0
C196 C 0.35429 0.68672 0.04333 0.0
C197 C 0.34277 0.71385 0.03756 0.0
C198 C 0.34795 0.72049 0.02497 0.0
H199 H 0.43224 0.80727 -0.00232 0.0
H200 H 0.38663 0.79349 0.0069 0.0
H201 H 0.42602 0.78124 0.01213 0.0
H202 H 0.39294 0.66024 0.01875 0.0
H203 H 0.38286 0.64765 0.04062 0.0
H204 H 0.72833 0.35674 0.37157 0.0
H205 H 0.71902 0.36571 0.35003 0.0
H206 H 0.5974 0.35328 0.35752 0.0
H207 H 0.60605 0.34357 0.37917 0.0
H208 H 0.59397 0.3004 0.33938 0.0
H209 H 0.72456 0.46222 0.33033 0.0
H210 H 0.743 0.4312 0.33804 0.0
H211 H 0.70632 0.44306 0.34555 0.0
C212 C 0.69983 0.35657 0.36871 0.0
C213 C 0.66786 0.34925 0.37713 0.0
C214 C 0.69473 0.36206 0.35638 0.0
C215 C 0.65777 0.36073 0.35219 0.0
C216 C 0.6263 0.35471 0.36059 0.0
H217 H 0.65347 0.39881 0.27333 0.0
H218 H 0.64245 0.40432 0.29509 0.0
C219 C 0.63138 0.34926 0.37296 0.0
C220 C 0.65063 0.36145 0.33893 0.0
H221 H 0.69841 0.41518 0.31295 0.0
C222 C 0.6163 0.32589 0.3336 0.0
C223 C 0.67932 0.39497 0.33142 0.0
C224 C 0.7151 0.43521 0.33665 0.0
C225 C 0.61158 0.32171 0.32091 0.0
C226 C 0.64241 0.3536 0.31338 0.0
C227 C 0.67505 0.39046 0.31872 0.0
C228 C 0.64383 0.34774 0.30007 0.0
C229 C 0.57413 0.28274 0.3157 0.0
C230 C 0.64791 0.31393 0.29565 0.0
C231 C 0.65409 0.31059 0.28325 0.0
C232 C 0.65683 0.34132 0.275 0.0
C233 C 0.65148 0.37455 0.27941 0.0
C234 C 0.64523 0.37781 0.29184 0.0
H235 H 0.54692 0.26966 0.32209 0.0
H236 H 0.56398 0.28951 0.30686 0.0
H237 H 0.58293 0.25806 0.31422 0.0
H238 H 0.64796 0.2909 0.30185 0.0
H239 H 0.65811 0.2846 0.28023 0.0
H240 H 0.26078 0.60225 0.71173 0.0
H241 H 0.24261 0.59534 0.69004 0.0
H242 H 0.35937 0.71022 0.68256 0.0
H243 H 0.37743 0.71795 0.70411 0.0
H244 H 0.29124 0.70417 0.66964 0.0
H245 H 0.30122 0.55752 0.66541 0.0
H246 H 0.26419 0.55639 0.67638 0.0
H247 H 0.31987 0.59091 0.67872 0.0
C248 C 0.28237 0.62633 0.70549 0.0
C249 C 0.32084 0.6604 0.70968 0.0
C250 C 0.27201 0.62216 0.69309 0.0
C251 C 0.30001 0.65184 0.68468 0.0
C252 C 0.33738 0.68684 0.6889 0.0
H253 H 0.37242 0.65678 0.61225 0.0
H254 H 0.35655 0.64695 0.63391 0.0
C255 C 0.34771 0.69111 0.70125 0.0
C256 C 0.29207 0.64596 0.67139 0.0
H257 H 0.29069 0.58565 0.64743 0.0
C258 C 0.29041 0.67794 0.66476 0.0
C259 C 0.29136 0.6118 0.66509 0.0
C260 C 0.29454 0.57727 0.67171 0.0
C261 C 0.28998 0.67773 0.65198 0.0
C262 C 0.29038 0.64413 0.64567 0.0
C263 C 0.29009 0.61117 0.65231 0.0
C264 C 0.29677 0.6455 0.63231 0.0
C265 C 0.29176 0.71478 0.64535 0.0
C266 C 0.26776 0.64664 0.62415 0.0
C267 C 0.27687 0.65259 0.61168 0.0
C268 C 0.31508 0.65725 0.60718 0.0
C269 C 0.34288 0.65373 0.61536 0.0
C270 C 0.3338 0.64795 0.62777 0.0
H271 H 0.29894 0.74152 0.65158 0.0
H272 H 0.31614 0.72626 0.63808 0.0
H273 H 0.26072 0.70469 0.64099 0.0
H274 H 0.23857 0.64395 0.62745 0.0
H275 H 0.25459 0.65482 0.60564 0.0
H276 H 0.68938 0.27581 0.04303 0.0
H277 H 0.68186 0.26628 0.02089 0.0
H278 H 0.62396 0.34418 0.0194 0.0
H279 H 0.63277 0.35508 0.04141 0.0
H280 H 0.618 0.23776 0.00375 0.0
H281 H 0.7285 0.4097 -0.00135 0.0
H282 H 0.71901 0.38312 0.0131 0.0
H283 H 0.68231 0.39819 0.00728 0.0
C284 C 0.67435 0.29025 0.038 0.0
C285 C 0.66232 0.31678 0.04389 0.0
C286 C 0.6701 0.2848 0.02536 0.0
C287 C 0.6534 0.30546 0.01849 0.0
C288 C 0.63804 0.32895 0.02451 0.0
H289 H 0.59348 0.28358 0.9413 0.0
H290 H 0.59065 0.27145 0.96329 0.0
C291 C 0.64294 0.33501 0.03707 0.0
C292 C 0.65529 0.30556 0.00501 0.0
H293 H 0.69461 0.37201 0.98069 0.0
C294 C 0.63488 0.26703 -0.00133 0.0
C295 C 0.67818 0.34375 -0.00156 0.0
C296 C 0.70362 0.38598 0.00471 0.0
C297 C 0.63597 0.26579 0.98588 0.0
C298 C 0.65724 0.30419 0.97931 0.0
C299 C 0.67811 0.34256 0.98571 0.0
C300 C 0.6586 0.30607 0.96581 0.0
C301 C 0.61507 0.22343 0.97958 0.0
C302 C 0.69765 0.32958 0.95988 0.0
C303 C 0.69924 0.33744 0.94741 0.0
C304 C 0.66182 0.32143 0.94057 0.0
C305 C 0.62281 0.29596 0.94634 0.0
C306 C 0.62119 0.28878 0.9589 0.0
H307 H 0.61242 0.19808 0.98573 0.0
H308 H 0.58261 0.21519 0.97679 0.0
H309 H 0.63284 0.22401 0.97131 0.0
H310 H 0.72694 0.3432 0.965 0.0
H311 H 0.72978 0.35693 0.94318 0.0
H312 H 0.34334 0.59897 0.27168 0.0
H313 H 0.35143 0.59008 0.29346 0.0
H314 H 0.35315 0.70672 0.30107 0.0
H315 H 0.34598 0.71639 0.27945 0.0
H316 H 0.41309 0.69822 0.3142 0.0
H317 H 0.25433 0.55403 0.31774 0.0
H318 H 0.29007 0.55199 0.30689 0.0
H319 H 0.27049 0.5878 0.30452 0.0
C320 C 0.34586 0.62295 0.27797 0.0
C321 C 0.34358 0.6582 0.27378 0.0
C322 C 0.35021 0.61765 0.29042 0.0
C323 C 0.35213 0.64737 0.29889 0.0
C324 C 0.35154 0.68331 0.29469 0.0
H325 H 0.28487 0.65223 0.37158 0.0
H326 H 0.28977 0.6418 0.34988 0.0
C327 C 0.34732 0.6887 0.2823 0.0
C328 C 0.3533 0.64095 0.31219 0.0
H329 H 0.29277 0.58055 0.33588 0.0
C330 C 0.38713 0.67217 0.31896 0.0
C331 C 0.31914 0.60706 0.31833 0.0
C332 C 0.28123 0.57339 0.31155 0.0
C333 C 0.38695 0.67147 0.33174 0.0
C334 C 0.35237 0.63806 0.3379 0.0
C335 C 0.31936 0.60589 0.33112 0.0
C336 C 0.34737 0.63889 0.35128 0.0
C337 C 0.42255 0.70784 0.33852 0.0
C338 C 0.37734 0.63917 0.35937 0.0
C339 C 0.37483 0.64547 0.37185 0.0
C340 C 0.34213 0.65132 0.37645 0.0
C341 C 0.31074 0.64827 0.36838 0.0
C342 C 0.31339 0.64217 0.35595 0.0
H343 H 0.44245 0.73479 0.3324 0.0
H344 H 0.40997 0.7193 0.34588 0.0
H345 H 0.4431 0.69705 0.34275 0.0
H346 H 0.40333 0.63579 0.35598 0.0
H347 H 0.39936 0.64728 0.3778 0.0
H348 H 0.65787 0.27423 0.70732 0.0
H349 H 0.6689 0.27671 0.68533 0.0
H350 H 0.73877 0.41301 0.68671 0.0
H351 H 0.72949 0.41057 0.70881 0.0
H352 H 0.63696 0.30713 0.67018 0.0
H353 H 0.81008 0.39325 0.66311 0.0
H354 H 0.78655 0.373 0.67781 0.0
H355 H 0.7935 0.42264 0.67242 0.0
C356 C 0.67649 0.30469 0.70296 0.0
C357 C 0.69278 0.34222 0.70974 0.0
C358 C 0.68277 0.30609 0.6904 0.0
C359 C 0.7049 0.34503 0.68434 0.0
C360 C 0.72255 0.38256 0.69118 0.0
H361 H 0.64477 0.37229 0.60993 0.0
H362 H 0.65689 0.37835 0.63191 0.0
C363 C 0.717 0.38115 0.70381 0.0
C364 C 0.70482 0.34618 0.67083 0.0
H365 H 0.76747 0.38763 0.64572 0.0
C366 C 0.66562 0.32443 0.66485 0.0
C367 C 0.74218 0.36848 0.66384 0.0
C368 C 0.78546 0.39028 0.66962 0.0
C369 C 0.66258 0.32466 0.65215 0.0
C370 C 0.69965 0.34871 0.64519 0.0
C371 C 0.73903 0.36986 0.6511 0.0
C372 C 0.6978 0.35128 0.63176 0.0
C373 C 0.61963 0.29839 0.64632 0.0
C374 C 0.71902 0.33666 0.62431 0.0
C375 C 0.71281 0.33393 0.6117 0.0
C376 C 0.68499 0.34548 0.60637 0.0
C377 C 0.66585 0.36251 0.61379 0.0
C378 C 0.6726 0.36582 0.62636 0.0
H379 H 0.59735 0.27278 0.65248 0.0
H380 H 0.60599 0.31888 0.64429 0.0
H381 H 0.6219 0.28388 0.63768 0.0
H382 H 0.73887 0.32557 0.6283 0.0
H383 H 0.72804 0.32073 0.60621 0.0
H384 H 0.32952 0.64041 0.21167 0.0
H385 H 0.32739 0.62488 0.1898 0.0
H386 H 0.29849 0.72314 0.1817 0.0
H387 H 0.30021 0.73865 0.20341 0.0
H388 H 0.25125 0.61001 0.17167 0.0
H389 H 0.41233 0.74511 0.16212 0.0
H390 H 0.39777 0.72029 0.17692 0.0
H391 H 0.3779 0.75381 0.17195 0.0
C392 C 0.32254 0.65852 0.20522 0.0
C393 C 0.31519 0.69082 0.20924 0.0
C394 C 0.32131 0.64962 0.19277 0.0
C395 C 0.31308 0.67314 0.18422 0.0
C396 C 0.30512 0.70488 0.18821 0.0
H397 H 0.32813 0.68915 0.10502 0.0
H398 H 0.3233 0.70238 0.12673 0.0
C399 C 0.30607 0.71361 0.20061 0.0
C400 C 0.31321 0.66508 0.17106 0.0
H401 H 0.37243 0.70465 0.14534 0.0
C402 C 0.27771 0.63049 0.16588 0.0
C403 C 0.34757 0.6924 0.16359 0.0
C404 C 0.38628 0.72999 0.16886 0.0
C405 C 0.27556 0.62254 0.15331 0.0
C406 C 0.3104 0.64933 0.14584 0.0
C407 C 0.34577 0.68416 0.15106 0.0
C408 C 0.31155 0.64091 0.13267 0.0
C409 C 0.23561 0.58608 0.14816 0.0
C410 C 0.30693 0.60222 0.12883 0.0
C411 C 0.30921 0.59451 0.11649 0.0
C412 C 0.317 0.62564 0.10775 0.0
C413 C 0.32205 0.66459 0.11157 0.0
C414 C 0.31931 0.67215 0.12395 0.0
H415 H 0.20793 0.57796 0.15409 0.0
H416 H 0.22879 0.5933 0.13889 0.0
H417 H 0.23934 0.55779 0.14759 0.0
H418 H 0.30223 0.57814 0.13539 0.0
H419 H 0.30563 0.56432 0.11385 0.0
H420 H 0.65503 0.33672 0.43897 0.0
H421 H 0.63926 0.33377 0.46077 0.0
H422 H 0.71457 0.27529 0.46781 0.0
H423 H 0.73052 0.2781 0.44608 0.0
H424 H 0.63221 0.23743 0.48004 0.0
H425 H 0.73136 0.4113 0.48638 0.0
H426 H 0.69342 0.39422 0.47418 0.0
H427 H 0.73668 0.38412 0.47336 0.0
C428 C 0.66798 0.32298 0.44516 0.0
C429 C 0.69425 0.30793 0.44086 0.0
C430 C 0.65909 0.32148 0.45759 0.0
C431 C 0.67623 0.3048 0.46586 0.0
C432 C 0.70125 0.28844 0.46154 0.0
H433 H 0.69459 0.33801 0.54459 0.0
H434 H 0.70947 0.33256 0.52309 0.0
C435 C 0.71034 0.29014 0.44914 0.0
C436 C 0.66895 0.30529 0.47907 0.0
H437 H 0.69078 0.37167 0.50328 0.0
C438 C 0.64501 0.26671 0.48515 0.0
C439 C 0.68633 0.34357 0.48569 0.0
C440 C 0.71369 0.38573 0.47963 0.0
C441 C 0.63715 0.26548 0.4977 0.0
C442 C 0.6535 0.30384 0.50424 0.0
C443 C 0.67821 0.34235 0.4982 0.0
C444 C 0.64429 0.30486 0.5173 0.0
C445 C 0.61169 0.22322 0.50388 0.0
C446 C 0.60279 0.29117 0.52109 0.0
C447 C 0.59426 0.29439 0.5333 0.0
C448 C 0.62714 0.31146 0.54193 0.0
C449 C 0.66865 0.32469 0.53814 0.0
C450 C 0.67719 0.32162 0.52589 0.0
H451 H 0.61046 0.19716 0.49834 0.0
H452 H 0.6251 0.22331 0.51297 0.0
H453 H 0.57881 0.21662 0.5052 0.0
H454 H 0.5771 0.27881 0.51455 0.0
H455 H 0.56195 0.28399 0.53595 0.0
H456 H 0.44993 0.7302 0.77957 0.0
H457 H 0.43601 0.71508 0.80128 0.0
H458 H 0.30717 0.62069 0.79326 0.0
H459 H 0.32066 0.63587 0.77139 0.0
H460 H 0.35838 0.7165 0.81389 0.0
H461 H 0.36703 0.56879 0.8173 0.0
H462 H 0.39607 0.60841 0.80585 0.0
H463 H 0.33988 0.57564 0.80453 0.0
C464 C 0.41868 0.70596 0.78238 0.0
C465 C 0.38629 0.68428 0.77378 0.0
C466 C 0.41085 0.69744 0.79479 0.0
C467 C 0.37068 0.66681 0.7988 0.0
C468 C 0.33844 0.64435 0.79026 0.0
H469 H 0.26516 0.56765 0.86937 0.0
H470 H 0.28249 0.58046 0.84779 0.0
C471 C 0.34617 0.65307 0.77782 0.0
C472 C 0.36215 0.6599 0.81197 0.0
H473 H 0.35087 0.59324 0.83522 0.0
C474 C 0.35673 0.68962 0.81861 0.0
C475 C 0.36002 0.62477 0.81797 0.0
C476 C 0.36616 0.59245 0.81113 0.0
C477 C 0.34844 0.68474 0.83116 0.0
C478 C 0.34678 0.64979 0.83725 0.0
C479 C 0.35238 0.62013 0.83056 0.0
C480 C 0.3374 0.64233 0.85045 0.0
C481 C 0.34028 0.71636 0.83767 0.0
C482 C 0.36289 0.67263 0.85917 0.0
C483 C 0.35273 0.66558 0.87156 0.0
C484 C 0.31733 0.62782 0.87541 0.0
C485 C 0.29262 0.59712 0.86669 0.0
C486 C 0.3025 0.60435 0.85434 0.0
H487 H 0.33141 0.73407 0.83121 0.0
H488 H 0.31466 0.70059 0.8445 0.0
H489 H 0.36949 0.7396 0.84248 0.0
H490 H 0.39062 0.70172 0.8564 0.0
H491 H 0.37258 0.68958 0.8781 0.0
H492 H 0.65152 0.31369 0.10746 0.0
H493 H 0.65061 0.30225 0.12947 0.0
H494 H 0.75756 0.42794 0.13386 0.0
H495 H 0.75666 0.4403 0.11201 0.0
H496 H 0.70124 0.29939 0.14494 0.0
H497 H 0.68118 0.43431 0.15808 0.0
H498 H 0.6778 0.41768 0.14247 0.0
H499 H 0.72854 0.45182 0.1494 0.0
C500 C 0.67486 0.33874 0.11316 0.0
C501 C 0.70386 0.378 0.10813 0.0
C502 C 0.6743 0.33227 0.12572 0.0
C503 C 0.70321 0.36471 0.13341 0.0
C504 C 0.73381 0.40306 0.12823 0.0
H505 H 0.7536 0.3151 0.20707 0.0
H506 H 0.75604 0.33006 0.1853 0.0
C507 C 0.73363 0.40992 0.11573 0.0
C508 C 0.70155 0.35825 0.1468 0.0
H509 H 0.70088 0.40303 0.17405 0.0
C510 C 0.70082 0.32192 0.15129 0.0
C511 C 0.69998 0.38708 0.15514 0.0
C512 C 0.69641 0.42461 0.15101 0.0
C513 C 0.69931 0.31397 0.16383 0.0
C514 C 0.70071 0.34426 0.17217 0.0
C515 C 0.70062 0.38018 0.16769 0.0
C516 C 0.70167 0.33897 0.18556 0.0
C517 C 0.69503 0.27255 0.16793 0.0
C518 C 0.67224 0.342 0.19313 0.0
C519 C 0.67185 0.335 0.20566 0.0
C520 C 0.70042 0.3242 0.21077 0.0
C521 C 0.73082 0.32275 0.20329 0.0
C522 C 0.73192 0.33083 0.19084 0.0
H523 H 0.68004 0.24789 0.16077 0.0
H524 H 0.72691 0.27702 0.16974 0.0
H525 H 0.67583 0.26076 0.17635 0.0
H526 H 0.64884 0.34866 0.1893 0.0
H527 H 0.6481 0.33628 0.21126 0.0
H528 H 0.44218 0.75693 0.54012 0.0
H529 H 0.43194 0.76355 0.51841 0.0
H530 H 0.30442 0.65833 0.5209 0.0
H531 H 0.3139 0.65345 0.54282 0.0
H532 H 0.42033 0.71216 0.50121 0.0
H533 H 0.28198 0.73543 0.50124 0.0
H534 H 0.31004 0.73792 0.51502 0.0
H535 H 0.2703 0.68765 0.50898 0.0
C536 C 0.4117 0.73577 0.53605 0.0
C537 C 0.37873 0.70481 0.5431 0.0
C538 C 0.4059 0.73946 0.52365 0.0
C539 C 0.36724 0.71177 0.51798 0.0
C540 C 0.33411 0.68094 0.52508 0.0
H541 H 0.34405 0.6547 0.44048 0.0
H542 H 0.35748 0.65833 0.46241 0.0
C543 C 0.33959 0.67795 0.53759 0.0
C544 C 0.36284 0.71354 0.50456 0.0
H545 H 0.29878 0.71535 0.48221 0.0
C546 C 0.39395 0.71335 0.49707 0.0
C547 C 0.32884 0.71572 0.4991 0.0
C548 C 0.29621 0.71967 0.50652 0.0
C549 C 0.39178 0.71474 0.48433 0.0
C550 C 0.35647 0.71437 0.47887 0.0
C551 C 0.32566 0.71515 0.48635 0.0
C552 C 0.35066 0.71327 0.46543 0.0
C553 C 0.42795 0.71761 0.47693 0.0
C554 C 0.3414 0.74225 0.45982 0.0
C555 C 0.33246 0.73935 0.44737 0.0
C556 C 0.33331 0.70787 0.44026 0.0
C557 C 0.34382 0.67965 0.44575 0.0
C558 C 0.35174 0.6819 0.45827 0.0
H559 H 0.45782 0.73227 0.48228 0.0
H560 H 0.42075 0.68532 0.47435 0.0
H561 H 0.43321 0.73639 0.46851 0.0
H562 H 0.34037 0.76676 0.46511 0.0
H563 H 0.32446 0.76151 0.44334 0.0
H564 H 0.67773 0.31713 0.87732 0.0
H565 H 0.66668 0.30447 0.85537 0.0
H566 H 0.68345 0.42923 0.85053 0.0
H567 H 0.69736 0.44286 0.87233 0.0
H568 H 0.61215 0.29971 0.8401 0.0
H569 H 0.76513 0.43549 0.82603 0.0
H570 H 0.753 0.41991 0.84174 0.0
H571 H 0.7351 0.45282 0.8347 0.0
C572 C 0.67901 0.34174 0.87153 0.0
C573 C 0.68887 0.3811 0.87642 0.0
C574 C 0.67277 0.33457 0.859 0.0
C575 C 0.67548 0.36637 0.85121 0.0
C576 C 0.68296 0.40485 0.85624 0.0
H577 H 0.5718 0.3099 0.77791 0.0
H578 H 0.5849 0.32617 0.79961 0.0
C579 C 0.69041 0.41245 0.86871 0.0
C580 C 0.66997 0.35901 0.83785 0.0
H581 H 0.71339 0.40233 0.81033 0.0
C582 C 0.63451 0.32202 0.8336 0.0
C583 C 0.6996 0.38759 0.82933 0.0
C584 C 0.74055 0.42588 0.8332 0.0
C585 C 0.62749 0.31308 0.82112 0.0
C586 C 0.65559 0.34304 0.81259 0.0
C587 C 0.69143 0.3797 0.81684 0.0
C588 C 0.64877 0.33664 0.79924 0.0
C589 C 0.59067 0.271 0.81729 0.0
C590 C 0.68126 0.34002 0.79163 0.0
C591 C 0.6743 0.3323 0.77913 0.0
C592 C 0.63452 0.32036 0.77411 0.0
C593 C 0.60254 0.3184 0.78163 0.0
C594 C 0.60987 0.32724 0.79404 0.0
H595 H 0.58183 0.24694 0.82458 0.0
H596 H 0.56275 0.27466 0.81551 0.0
H597 H 0.59796 0.25888 0.8089 0.0
H598 H 0.7117 0.34764 0.79539 0.0
H599 H 0.69943 0.33401 0.77348 0.0
H600 H 0.83847 0.48475 0.07639 0.0
H601 H 0.91621 0.52021 0.07515 0.0
H602 H 0.90864 0.39961 0.07012 0.0
H603 H 0.83187 0.36427 0.0714 0.0
H604 H 0.96797 0.49915 0.09162 0.0
H605 H 0.9905 0.4764 0.04273 0.0
H606 H 0.94324 0.47475 0.04839 0.0
H607 H 0.95098 0.43039 0.05059 0.0
C608 C 0.85343 0.46597 0.07483 0.0
C609 C 0.82896 0.4217 0.07405 0.0
C610 C 0.89777 0.48619 0.07416 0.0
C611 C 0.91815 0.46252 0.07243 0.0
C612 C 0.89364 0.41855 0.0713 0.0
H613 H 0.18278 0.51989 0.0709 0.0
H614 H 0.10496 0.48349 0.06982 0.0
C615 C 0.84968 0.3984 0.07212 0.0
C616 C 0.965 0.48287 0.07268 0.0
H617 H 0.05057 0.5006 0.05557 0.0
C618 C 0.98609 0.49982 0.08372 0.0
C619 C 0.98844 0.48283 0.06243 0.0
C620 C 0.96732 0.46542 0.05032 0.0
C621 C 0.02995 0.51647 0.08481 0.0
C622 C 0.05364 0.5172 0.0745 0.0
C623 C 0.03246 0.49991 0.06348 0.0
C624 C 0.10065 0.53852 0.07485 0.0
C625 C 0.05037 0.53238 0.0971 0.0
C626 C 0.12401 0.58154 0.07775 0.0
C627 C 0.16796 0.60214 0.07843 0.0
C628 C 0.19017 0.58049 0.07608 0.0
C629 C 0.16683 0.53749 0.07283 0.0
C630 C 0.12239 0.5167 0.0722 0.0
H631 H 0.02717 0.51757 0.10462 0.0
H632 H 0.07676 0.52601 0.09859 0.0
H633 H 0.06323 0.56702 0.0976 0.0
H634 H 0.10816 0.59938 0.0795 0.0
H635 H 0.1845 0.63538 0.08078 0.0
H636 H 0.66971 0.17931 0.40194 0.0
H637 H 0.63005 0.10192 0.39942 0.0
H638 H 0.51581 0.09917 0.4108 0.0
H639 H 0.55434 0.17526 0.41334 0.0
H640 H 0.57865 0.03933 0.41833 0.0
H641 H 0.48335 0.03261 0.37811 0.0
H642 H 0.53203 0.07963 0.38227 0.0
H643 H 0.48393 0.06576 0.39028 0.0
C644 C 0.63614 0.16221 0.40385 0.0
C645 C 0.6154 0.18379 0.40782 0.0
C646 C 0.61353 0.11803 0.40241 0.0
C647 C 0.56982 0.09494 0.40473 0.0
C648 C 0.54929 0.11638 0.40873 0.0
H649 H 0.36251 0.8356 0.40746 0.0
H650 H 0.40727 0.91296 0.40634 0.0
C651 C 0.57167 0.1601 0.41025 0.0
C652 C 0.54528 0.04819 0.40353 0.0
H653 H 0.46017 0.96814 0.3889 0.0
C654 C 0.55315 0.02366 0.41178 0.0
C655 C 0.51158 0.02792 0.39511 0.0
C656 C 0.50231 0.05274 0.38586 0.0
C657 C 0.52738 0.97945 0.41211 0.0
C658 C 0.49345 0.95906 0.40372 0.0
C659 C 0.48602 0.98366 0.39534 0.0
C660 C 0.46562 0.91228 0.40349 0.0
C661 C 0.53581 0.95521 0.42179 0.0
C662 C 0.48317 0.88619 0.4018 0.0
C663 C 0.45789 0.84234 0.40255 0.0
C664 C 0.41417 0.82333 0.40477 0.0
C665 C 0.39604 0.84928 0.40574 0.0
C666 C 0.42162 0.89345 0.40514 0.0
H667 H 0.5541 0.97587 0.42954 0.0
H668 H 0.50587 0.92862 0.42536 0.0
H669 H 0.55472 0.94207 0.4178 0.0
H670 H 0.5167 0.89978 0.40011 0.0
H671 H 0.47279 0.82327 0.40154 0.0
H672 H 0.53072 0.34903 0.73438 0.0
H673 H 0.49482 0.39061 0.73225 0.0
H674 H 0.60203 0.49808 0.74856 0.0
H675 H 0.63776 0.45759 0.75075 0.0
H676 H 0.47688 0.43523 0.75175 0.0
H677 H 0.58256 0.54457 0.7161 0.0
H678 H 0.57863 0.49415 0.71919 0.0
H679 H 0.60934 0.53852 0.72902 0.0
C680 C 0.54659 0.38148 0.73751 0.0
C681 C 0.58732 0.39982 0.74267 0.0
C682 C 0.52609 0.40522 0.73627 0.0
C683 C 0.54617 0.44772 0.74003 0.0
C684 C 0.58632 0.46569 0.74535 0.0
H685 H 0.49132 0.65407 0.74456 0.0
H686 H 0.5256 0.61064 0.74375 0.0
C687 C 0.60661 0.44218 0.74665 0.0
C688 C 0.52522 0.4735 0.73884 0.0
H689 H 0.53667 0.56388 0.72596 0.0
C690 C 0.48957 0.46305 0.746 0.0
C691 C 0.54231 0.51021 0.73149 0.0
C692 C 0.58013 0.52248 0.72343 0.0
C693 C 0.47116 0.48888 0.74626 0.0
C694 C 0.48815 0.52562 0.73887 0.0
C695 C 0.52366 0.53586 0.73163 0.0
C696 C 0.46885 0.55318 0.73841 0.0
C697 C 0.43456 0.47724 0.75479 0.0
C698 C 0.42621 0.53589 0.73519 0.0
C699 C 0.4067 0.56034 0.73578 0.0
C700 C 0.42953 0.60304 0.73934 0.0
C701 C 0.47297 0.62129 0.74179 0.0
C702 C 0.49247 0.59645 0.74137 0.0
H703 H 0.43397 0.45664 0.76232 0.0
H704 H 0.43597 0.50582 0.75881 0.0
H705 H 0.40447 0.45954 0.74966 0.0
H706 H 0.40766 0.5031 0.73245 0.0
H707 H 0.37333 0.54553 0.73361 0.0
H708 H 0.52163 0.1804 0.58166 0.0
H709 H 0.48499 0.103 0.58399 0.0
H710 H 0.59036 0.10042 0.56727 0.0
H711 H 0.62676 0.17653 0.56483 0.0
H712 H 0.46623 0.03888 0.56428 0.0
H713 H 0.57155 0.03689 0.60048 0.0
H714 H 0.56691 0.08293 0.59727 0.0
H715 H 0.59811 0.06965 0.58755 0.0
C716 C 0.5369 0.16332 0.57845 0.0
C717 C 0.57735 0.18503 0.57313 0.0
C718 C 0.51599 0.11914 0.57982 0.0
C719 C 0.53539 0.09613 0.57601 0.0
C720 C 0.57519 0.1176 0.5705 0.0
H721 H 0.48196 0.8357 0.57265 0.0
H722 H 0.51555 0.91331 0.57329 0.0
C723 C 0.59586 0.16133 0.56907 0.0
C724 C 0.51424 0.04951 0.57742 0.0
H725 H 0.52552 0.97127 0.59087 0.0
C726 C 0.47877 0.02401 0.57021 0.0
C727 C 0.53117 0.03027 0.58501 0.0
C728 C 0.56885 0.05624 0.5931 0.0
C729 C 0.46044 0.97979 0.57011 0.0
C730 C 0.47733 0.96041 0.57772 0.0
C731 C 0.51259 0.986 0.58503 0.0
C732 C 0.45834 0.91363 0.57829 0.0
C733 C 0.4241 0.95444 0.56151 0.0
C734 C 0.41562 0.88809 0.58137 0.0
C735 C 0.3965 0.84417 0.58089 0.0
C736 C 0.41979 0.82453 0.57756 0.0
C737 C 0.46326 0.84994 0.57524 0.0
C738 C 0.48237 0.89422 0.57556 0.0
H739 H 0.42353 0.97413 0.55388 0.0
H740 H 0.42582 0.92726 0.55763 0.0
H741 H 0.39386 0.94204 0.56654 0.0
H742 H 0.39674 0.90217 0.58392 0.0
H743 H 0.36309 0.82546 0.58295 0.0
H744 H 0.42479 0.59621 0.88805 0.0
H745 H 0.46707 0.56191 0.89008 0.0
H746 H 0.40802 0.50976 0.92466 0.0
H747 H 0.36442 0.54335 0.92247 0.0
H748 H 0.5252 0.57777 0.90733 0.0
H749 H 0.40242 0.40775 0.90848 0.0
H750 H 0.39079 0.44825 0.90388 0.0
H751 H 0.3963 0.43991 0.91975 0.0
C752 C 0.42018 0.57678 0.89599 0.0
C753 C 0.39122 0.57242 0.9051 0.0
C754 C 0.44456 0.55734 0.89717 0.0
C755 C 0.44089 0.53323 0.90752 0.0
C756 C 0.41101 0.52763 0.91649 0.0
H757 H 0.64134 0.46858 0.92173 0.0
H758 H 0.59685 0.5013 0.92359 0.0
C759 C 0.38605 0.54678 0.91523 0.0
C760 C 0.47003 0.51601 0.90896 0.0
H761 H 0.47318 0.42439 0.91117 0.0
C762 C 0.51383 0.54422 0.90823 0.0
C763 C 0.45523 0.47226 0.91012 0.0
C764 C 0.40864 0.44016 0.9105 0.0
C765 C 0.54309 0.52985 0.90823 0.0
C766 C 0.52828 0.48607 0.90928 0.0
C767 C 0.48456 0.45798 0.9104 0.0
C768 C 0.55692 0.46819 0.90815 0.0
C769 C 0.58939 0.56152 0.90652 0.0
C770 C 0.54938 0.43876 0.8989 0.0
C771 C 0.57434 0.41991 0.89791 0.0
C772 C 0.60769 0.43002 0.90612 0.0
C773 C 0.61619 0.46045 0.91519 0.0
C774 C 0.59076 0.47915 0.91626 0.0
H775 H 0.59441 0.59233 0.90311 0.0
H776 H 0.60592 0.56719 0.91539 0.0
H777 H 0.60416 0.54944 0.90003 0.0
H778 H 0.52376 0.42999 0.89247 0.0
H779 H 0.56705 0.39683 0.89075 0.0
H780 H 0.17991 0.66148 0.24818 0.0
H781 H 0.10236 0.6208 0.25037 0.0
H782 H 0.10037 0.51164 0.23475 0.0
H783 H 0.17655 0.55124 0.23244 0.0
H784 H 0.03858 0.57239 0.23025 0.0
H785 H 0.03626 0.47107 0.2683 0.0
H786 H 0.0819 0.52181 0.2649 0.0
H787 H 0.07008 0.47656 0.25571 0.0
C788 C 0.16292 0.62888 0.24518 0.0
C789 C 0.18482 0.60981 0.24019 0.0
C790 C 0.11866 0.60567 0.24646 0.0
C791 C 0.09578 0.56298 0.24291 0.0
C792 C 0.11744 0.54427 0.23775 0.0
H793 H 0.83539 0.35453 0.24075 0.0
H794 H 0.91303 0.39888 0.24118 0.0
C795 C 0.16123 0.56727 0.23639 0.0
C796 C 0.0491 0.53753 0.24424 0.0
H797 H 0.97078 0.45004 0.25842 0.0
C798 C 0.02365 0.54599 0.23652 0.0
C799 C 0.02982 0.5026 0.25226 0.0
C800 C 0.05579 0.49247 0.26085 0.0
C801 C 0.97943 0.51984 0.23638 0.0
C802 C 0.95999 0.48489 0.24444 0.0
C803 C 0.98555 0.47669 0.25224 0.0
C804 C 0.91317 0.45711 0.24503 0.0
C805 C 0.95416 0.52909 0.22725 0.0
C806 C 0.88752 0.47467 0.2475 0.0
C807 C 0.84357 0.44966 0.24714 0.0
C808 C 0.82397 0.40616 0.24453 0.0
C809 C 0.84954 0.38791 0.24277 0.0
C810 C 0.89385 0.41326 0.24298 0.0
H811 H 0.97401 0.548 0.21946 0.0
H812 H 0.92712 0.4995 0.22364 0.0
H813 H 0.94156 0.5477 0.23175 0.0
H814 H 0.90151 0.50803 0.24953 0.0
H815 H 0.82482 0.46462 0.24877 0.0
H816 H 0.67592 0.5104 0.0656 0.0
H817 H 0.6246 0.53481 0.06264 0.0
H818 H 0.52278 0.40545 0.06234 0.0
H819 H 0.57324 0.38127 0.06569 0.0
H820 H 0.56222 0.52041 0.04548 0.0
H821 H 0.48889 0.45428 0.09024 0.0
H822 H 0.53841 0.45893 0.08561 0.0
H823 H 0.48913 0.41547 0.08029 0.0
C824 C 0.64262 0.48732 0.06476 0.0
C825 C 0.62848 0.44402 0.06609 0.0
C826 C 0.61333 0.50122 0.06309 0.0
C827 C 0.56967 0.47196 0.06262 0.0
C828 C 0.55607 0.42868 0.06307 0.0
H829 H 0.34129 0.49456 0.06268 0.0
H830 H 0.39038 0.46763 0.05942 0.0
C831 C 0.58504 0.41491 0.06492 0.0
C832 C 0.53792 0.4862 0.06225 0.0
H833 H 0.45283 0.47849 0.07756 0.0
C834 C 0.53838 0.51134 0.05251 0.0
C835 C 0.50674 0.47441 0.07143 0.0
C836 C 0.50592 0.44965 0.08254 0.0
C837 C 0.50823 0.52454 0.05164 0.0
C838 C 0.47698 0.51245 0.06079 0.0
C839 C 0.47638 0.48715 0.07046 0.0
C840 C 0.44702 0.52879 0.06116 0.0
C841 C 0.50984 0.55113 0.04094 0.0
C842 C 0.46255 0.57196 0.06315 0.0
C843 C 0.43478 0.58717 0.06513 0.0
C844 C 0.39075 0.5596 0.06513 0.0
C845 C 0.37502 0.51654 0.06267 0.0
C846 C 0.40301 0.50118 0.06083 0.0
H847 H 0.52793 0.54832 0.03321 0.0
H848 H 0.47749 0.54196 0.03775 0.0
H849 H 0.52572 0.5848 0.04376 0.0
H850 H 0.49628 0.59374 0.06366 0.0
H851 H 0.44794 0.62056 0.06697 0.0
H852 H 0.84191 0.34771 0.3859 0.0
H853 H 0.91674 0.39813 0.38147 0.0
H854 H 0.91509 0.4849 0.40783 0.0
H855 H 0.84104 0.43606 0.4119 0.0
H856 H 0.95596 0.5265 0.38811 0.0
H857 H 0.01586 0.41977 0.40232 0.0
H858 H 0.97858 0.40086 0.38997 0.0
H859 H 0.96197 0.40681 0.4049 0.0
C860 C 0.85766 0.37758 0.39071 0.0
C861 C 0.83551 0.38775 0.39927 0.0
C862 C 0.90046 0.40632 0.38822 0.0
C863 C 0.92189 0.44529 0.39442 0.0
C864 C 0.89946 0.45529 0.40287 0.0
H865 H 0.17303 0.59803 0.41775 0.0
H866 H 0.09892 0.54844 0.41354 0.0
C867 C 0.85695 0.42708 0.40523 0.0
C868 C 0.96776 0.47591 0.39255 0.0
H869 H 0.0662 0.48898 0.39698 0.0
C870 C 0.98014 0.51824 0.38993 0.0
C871 C 0.99937 0.46521 0.39494 0.0
C872 C 0.98848 0.42082 0.39828 0.0
C873 C 0.02281 0.55043 0.39035 0.0
C874 C 0.0543 0.53987 0.39307 0.0
C875 C 0.0421 0.49717 0.39494 0.0
C876 C 0.09926 0.57251 0.3955 0.0
C877 C 0.03332 0.59563 0.38861 0.0
C878 C 0.12438 0.60355 0.38687 0.0
C879 C 0.16698 0.63295 0.38943 0.0
C880 C 0.18521 0.63098 0.40051 0.0
C881 C 0.15989 0.60025 0.40911 0.0
C882 C 0.11749 0.57167 0.40668 0.0
H883 H 1.00485 0.59909 0.38934 0.0
H884 H 0.05689 0.61668 0.39546 0.0
H885 H 0.04703 0.60649 0.37942 0.0
H886 H 0.11146 0.60444 0.37808 0.0
H887 H 0.18601 0.65594 0.38257 0.0
H888 H 0.62901 0.18513 0.73177 0.0
H889 H 0.60395 0.11045 0.72834 0.0
H890 H 0.47507 0.08482 0.72839 0.0
H891 H 0.50042 0.16051 0.73141 0.0
H892 H 0.55853 0.04957 0.74372 0.0
H893 H 0.47098 0.01328 0.70003 0.0
H894 H 0.50561 0.06674 0.70514 0.0
H895 H 0.45279 0.03671 0.71109 0.0
C896 C 0.59531 0.16374 0.73083 0.0
C897 C 0.56663 0.17865 0.7319 0.0
C898 C 0.58101 0.12096 0.72888 0.0
C899 C 0.53761 0.09177 0.72804 0.0
C900 C 0.50877 0.10671 0.72873 0.0
H901 H 0.39022 0.82243 0.7355 0.0
H902 H 0.41739 0.89776 0.73244 0.0
C903 C 0.52322 0.14994 0.73052 0.0
C904 C 0.52312 0.04569 0.72757 0.0
H905 H 0.46165 0.95415 0.7118 0.0
C906 C 0.53773 0.02888 0.73664 0.0
C907 C 0.49591 0.0185 0.71837 0.0
C908 C 0.48071 0.03475 0.70804 0.0
C909 C 0.52534 0.9858 0.7369 0.0
C910 C 0.49771 0.95856 0.72781 0.0
C911 C 0.48312 0.97519 0.71871 0.0
C912 C 0.48106 0.91223 0.72827 0.0
C913 C 0.54081 0.9694 0.74713 0.0
C914 C 0.50767 0.89504 0.72664 0.0
C915 C 0.49211 0.8516 0.72833 0.0
C916 C 0.44982 0.8249 0.73178 0.0
C917 C 0.42306 0.84214 0.73294 0.0
C918 C 0.43846 0.88523 0.73115 0.0
H919 H 0.55653 0.9932 0.75447 0.0
H920 H 0.51413 0.94047 0.75116 0.0
H921 H 0.56393 0.9609 0.74349 0.0
H922 H 0.54064 0.91536 0.72432 0.0
H923 H 0.51344 0.83926 0.72736 0.0
H924 H 0.38078 0.56855 0.58393 0.0
H925 H 0.40547 0.51851 0.58714 0.0
H926 H 0.53423 0.62158 0.58873 0.0
H927 H 0.50918 0.67229 0.58595 0.0
H928 H 0.45273 0.50483 0.57203 0.0
H929 H 0.53486 0.55069 0.61661 0.0
H930 H 0.50091 0.57023 0.61139 0.0
H931 H 0.55444 0.5936 0.60597 0.0
C932 C 0.41435 0.58071 0.58518 0.0
C933 C 0.4431 0.62438 0.58465 0.0
C934 C 0.42844 0.55199 0.58701 0.0
C935 C 0.47172 0.56604 0.58825 0.0
C936 C 0.50059 0.60985 0.58807 0.0
H937 H 0.61975 0.44449 0.58095 0.0
H938 H 0.59235 0.49243 0.58418 0.0
C939 C 0.48633 0.63885 0.58642 0.0
C940 C 0.48617 0.53439 0.5886 0.0
H941 H 0.54563 0.50229 0.60459 0.0
C942 C 0.47265 0.50406 0.57924 0.0
C943 C 0.51223 0.53325 0.59799 0.0
C944 C 0.52614 0.56342 0.60863 0.0
C945 C 0.48503 0.47336 0.57887 0.0
C946 C 0.51154 0.47262 0.58814 0.0
C947 C 0.52503 0.50273 0.59754 0.0
C948 C 0.52818 0.44292 0.5876 0.0
C949 C 0.47076 0.44269 0.56834 0.0
C950 C 0.50135 0.399 0.58876 0.0
C951 C 0.51703 0.37125 0.58697 0.0
C952 C 0.55969 0.3871 0.58389 0.0
C953 C 0.58663 0.43116 0.58321 0.0
C954 C 0.5711 0.45872 0.5851 0.0
H955 H 0.45597 0.45169 0.56095 0.0
H956 H 0.49788 0.44079 0.56449 0.0
H957 H 0.44716 0.41072 0.57162 0.0
H958 H 0.46812 0.38618 0.59078 0.0
H959 H 0.49554 0.33752 0.58757 0.0
H960 H 0.16508 0.5039 0.92311 0.0
H961 H 0.08944 0.47771 0.92661 0.0
H962 H 0.10757 0.60071 0.91789 0.0
H963 H 0.18262 0.62698 0.9144 0.0
H964 H 0.0521 0.55854 0.93871 0.0
H965 H 0.01041 0.45983 0.89679 0.0
H966 H 0.04279 0.4526 0.90779 0.0
H967 H 0.06351 0.50197 0.89986 0.0
C968 C 0.15299 0.52544 0.92211 0.0
C969 C 0.17973 0.56736 0.91835 0.0
C970 C 0.10982 0.51044 0.92407 0.0
C971 C 0.09287 0.53721 0.92238 0.0
C972 C 0.11995 0.57953 0.91922 0.0
H973 H 0.84394 0.51607 0.91921 0.0
H974 H 0.91982 0.5423 0.92227 0.0
C975 C 0.16284 0.5944 0.91718 0.0
C976 C 0.04663 0.52081 0.92301 0.0
H977 H 0.95452 0.45788 0.90782 0.0
C978 C 0.03059 0.53628 0.93202 0.0
C979 C 0.01882 0.49217 0.9142 0.0
C980 C 0.03456 0.47578 0.90404 0.0
C981 C 0.98724 0.52331 0.93256 0.0
C982 C 0.95945 0.49492 0.92366 0.0
C983 C 0.97569 0.47952 0.91468 0.0
C984 C 0.91331 0.48008 0.92341 0.0
C985 C 0.97159 0.53956 0.94276 0.0
C986 C 0.88434 0.43656 0.92305 0.0
C987 C 0.84146 0.42174 0.92107 0.0
C988 C 0.8263 0.45002 0.91951 0.0
C989 C 0.85476 0.49361 0.9205 0.0
C990 C 0.89808 0.50856 0.9223 0.0
H991 H 0.99377 0.55056 0.95062 0.0
H992 H 0.96896 0.56683 0.93943 0.0
H993 H 0.93995 0.51485 0.94597 0.0
H994 H 0.89514 0.41393 0.92392 0.0
H995 H 0.82021 0.38793 0.92045 0.0
H996 H 0.44485 0.81978 0.25189 0.0
H997 H 0.49563 0.89424 0.25521 0.0
H998 H 0.39362 0.92153 0.25683 0.0
H999 H 0.34217 0.84613 0.25384 0.0
H1000 H 0.50952 0.95591 0.24003 0.0
H1001 H 0.46565 0.99166 0.28495 0.0
H1002 H 0.44586 0.93827 0.27963 0.0
H1003 H 0.42231 0.9685 0.2744 0.0
C1004 C 0.43306 0.84146 0.25317 0.0
C1005 C 0.38946 0.82708 0.25258 0.0
C1006 C 0.46222 0.88412 0.25506 0.0
C1007 C 0.44867 0.91371 0.25633 0.0
C1008 C 0.40495 0.89931 0.25613 0.0
H1009 H 0.5691 0.18249 0.24942 0.0
H1010 H 0.52195 0.10704 0.25255 0.0
C1011 C 0.37552 0.85623 0.25438 0.0
C1012 C 0.48072 0.95966 0.25675 0.0
H1013 H 0.51379 0.05093 0.27294 0.0
C1014 C 0.51071 0.97651 0.24733 0.0
C1015 C 0.48239 0.98671 0.26625 0.0
C1016 C 0.4526 0.97035 0.27694 0.0
C1017 C 0.54149 0.01958 0.24697 0.0
C1018 C 0.54269 0.0467 0.25633 0.0
C1019 C 0.51301 0.02998 0.26582 0.0
C1020 C 0.5721 0.09308 0.25576 0.0
C1021 C 0.57164 0.03611 0.23634 0.0
C1022 C 0.61616 0.11062 0.25682 0.0
C1023 C 0.64349 0.15417 0.2551 0.0
C1024 C 0.62705 0.18061 0.25217 0.0
C1025 C 0.58288 0.16298 0.25156 0.0
C1026 C 0.55577 0.11983 0.25339 0.0
H1027 H 0.56256 0.01228 0.22896 0.0
H1028 H 0.57292 0.06487 0.23251 0.0
H1029 H 0.60391 0.04497 0.2395 0.0
H1030 H 0.62939 0.09049 0.25873 0.0
H1031 H 0.67733 0.16682 0.25564 0.0
loop_
_geom_bond_atom_site_label_1
_geom_bond_atom_site_label_2
_geom_bond_distance
_geom_bond_site_symmetry_2
_ccdc_geom_bond_type
Co0 O1 2.216 . S
Co0 O2 2.091 . S
Co0 O4 2.004 . S
Co0 O10 2.021 . S
Co0 O12 2.137 . S
Co0 O13 2.244 . S
O1 Co0 2.216 . S
O1 C8 1.247 . S
O2 Co0 2.091 . S
O2 C8 1.261 . S
C3 O12 1.247 . S
C3 O13 1.272 . S
O4 Co0 2.004 . S
O4 C9 1.259 . S
Co5 O6 2.061 . S
Co5 O11 2.052 . S
Co5 O13 2.135 . S
O6 Co5 2.061 . S
O6 C9 1.235 . S
C7 O10 1.238 . S
C7 O11 1.241 . S
C8 O1 1.247 . S
C8 O2 1.261 . S
C9 O4 1.259 . S
C9 O6 1.235 . S
O10 Co0 2.021 . S
O10 C7 1.238 . S
O11 Co5 2.052 . S
O11 C7 1.241 . S
O12 Co0 2.137 . S
O12 C3 1.247 . S
O13 Co0 2.244 . S
O13 C3 1.272 . S
O13 Co5 2.135 . S
Co14 O15 2.216 . S
Co14 O16 2.091 . S
Co14 O18 2.004 . S
Co14 O24 2.021 . S
Co14 O26 2.137 . S
Co14 O27 2.244 . S
O15 Co14 2.216 . S
O15 C22 1.247 . S
O16 Co14 2.091 . S
O16 C22 1.261 . S
C17 O26 1.247 . S
C17 O27 1.272 . S
O18 Co14 2.004 . S
O18 C23 1.259 . S
Co19 O20 2.061 . S
Co19 O25 2.052 . S
Co19 O27 2.135 . S
O20 Co19 2.061 . S
O20 C23 1.235 . S
C21 O24 1.238 . S
C21 O25 1.241 . S
C22 O15 1.247 . S
C22 O16 1.261 . S
C23 O18 1.259 . S
C23 O20 1.235 . S
O24 Co14 2.021 . S
O24 C21 1.238 . S
O25 Co19 2.052 . S
O25 C21 1.241 . S
O26 Co14 2.137 . S
O26 C17 1.247 . S
O27 Co14 2.244 . S
O27 C17 1.272 . S
O27 Co19 2.135 . S
Co28 O29 2.216 . S
Co28 O30 2.091 . S
Co28 O32 2.004 . S
Co28 O38 2.021 . S
Co28 O40 2.137 . S
Co28 O41 2.244 . S
O29 Co28 2.216 . S
O29 C36 1.247 . S
O30 Co28 2.091 . S
O30 C36 1.261 . S
C31 O40 1.247 . S
C31 O41 1.272 . S
O32 Co28 2.004 . S
O32 C37 1.259 . S
Co33 O34 2.061 . S
Co33 O39 2.052 . S
Co33 O41 2.135 . S
O34 Co33 2.061 . S
O34 C37 1.235 . S
C35 O38 1.238 . S
C35 O39 1.241 . S
C36 O29 1.247 . S
C36 O30 1.261 . S
C37 O32 1.259 . S
C37 O34 1.235 . S
O38 Co28 2.021 . S
O38 C35 1.238 . S
O39 Co33 2.052 . S
O39 C35 1.241 . S
O40 Co28 2.137 . S
O40 C31 1.247 . S
O41 Co28 2.244 . S
O41 C31 1.272 . S
O41 Co33 2.135 . S
Co42 O43 2.216 . S
Co42 O44 2.091 . S
Co42 O46 2.004 . S
Co42 O52 2.021 . S
Co42 O54 2.137 . S
Co42 O55 2.244 . S
O43 Co42 2.216 . S
O43 C50 1.247 . S
O44 Co42 2.091 . S
O44 C50 1.261 . S
C45 O54 1.247 . S
C45 O55 1.272 . S
O46 Co42 2.004 . S
O46 C51 1.259 . S
Co47 O48 2.061 . S
Co47 O53 2.052 . S
Co47 O55 2.135 . S
O48 Co47 2.061 . S
O48 C51 1.235 . S
C49 O52 1.238 . S
C49 O53 1.241 . S
C50 O43 1.247 . S
C50 O44 1.261 . S
C51 O46 1.259 . S
C51 O48 1.235 . S
O52 Co42 2.021 . S
O52 C49 1.238 . S
O53 Co47 2.052 . S
O53 C49 1.241 . S
O54 Co42 2.137 . S
O54 C45 1.247 . S
O55 Co42 2.244 . S
O55 C45 1.272 . S
O55 Co47 2.135 . S
Co56 O57 2.216 . S
Co56 O58 2.091 . S
Co56 O60 2.004 . S
Co56 O66 2.021 . S
Co56 O68 2.137 . S
Co56 O69 2.244 . S
O57 Co56 2.216 . S
O57 C64 1.247 . S
O58 Co56 2.091 . S
O58 C64 1.261 . S
C59 O68 1.247 . S
C59 O69 1.272 . S
O60 Co56 2.004 . S
O60 C65 1.259 . S
Co61 O62 2.061 . S
Co61 O67 2.052 . S
Co61 O69 2.135 . S
O62 Co61 2.061 . S
O62 C65 1.235 . S
C63 O66 1.238 . S
C63 O67 1.241 . S
C64 O57 1.247 . S
C64 O58 1.261 . S
C65 O60 1.259 . S
C65 O62 1.235 . S
O66 Co56 2.021 . S
O66 C63 1.238 . S
O67 Co61 2.052 . S
O67 C63 1.241 . S
O68 Co56 2.137 . S
O68 C59 1.247 . S
O69 Co56 2.244 . S
O69 C59 1.272 . S
O69 Co61 2.135 . S
Co70 O71 2.216 . S
Co70 O72 2.091 . S
Co70 O74 2.004 . S
Co70 O80 2.021 . S
Co70 O82 2.137 . S
Co70 O83 2.244 . S
O71 Co70 2.216 . S
O71 C78 1.247 . S
O72 Co70 2.091 . S
O72 C78 1.261 . S
C73 O82 1.247 . S
C73 O83 1.272 . S
O74 Co70 2.004 . S
O74 C79 1.259 . S
Co75 O76 2.061 . S
Co75 O81 2.052 . S
Co75 O83 2.135 . S
O76 Co75 2.061 . S
O76 C79 1.235 . S
C77 O80 1.238 . S
C77 O81 1.241 . S
C78 O71 1.247 . S
C78 O72 1.261 . S
C79 O74 1.259 . S
C79 O76 1.235 . S
O80 Co70 2.021 . S
O80 C77 1.238 . S
O81 Co75 2.052 . S
O81 C77 1.241 . S
O82 Co70 2.137 . S
O82 C73 1.247 . S
O83 Co70 2.244 . S
O83 C73 1.272 . S
O83 Co75 2.135 . S
Co84 O85 2.216 . S
Co84 O86 2.091 . S
Co84 O88 2.004 . S
Co84 O94 2.021 . S
Co84 O96 2.137 . S
Co84 O97 2.244 . S
O85 Co84 2.216 . S
O85 C92 1.247 . S
O86 Co84 2.091 . S
O86 C92 1.261 . S
C87 O96 1.247 . S
C87 O97 1.272 . S
O88 Co84 2.004 . S
O88 C93 1.259 . S
Co89 O90 2.061 . S
Co89 O95 2.052 . S
Co89 O97 2.135 . S
O90 Co89 2.061 . S
O90 C93 1.235 . S
C91 O94 1.238 . S
C91 O95 1.241 . S
C92 O85 1.247 . S
C92 O86 1.261 . S
C93 O88 1.259 . S
C93 O90 1.235 . S
O94 Co84 2.021 . S
O94 C91 1.238 . S
O95 Co89 2.052 . S
O95 C91 1.241 . S
O96 Co84 2.137 . S
O96 C87 1.247 . S
O97 Co84 2.244 . S
O97 C87 1.272 . S
O97 Co89 2.135 . S
Co98 O99 2.216 . S
Co98 O100 2.091 . S
Co98 O102 2.004 . S
Co98 O108 2.021 . S
Co98 O110 2.137 . S
Co98 O111 2.244 . S
O99 Co98 2.216 . S
O99 C106 1.247 . S
O100 Co98 2.091 . S
O100 C106 1.261 . S
C101 O110 1.247 . S
C101 O111 1.272 . S
O102 Co98 2.004 . S
O102 C107 1.259 . S
Co103 O104 2.061 . S
Co103 O109 2.052 . S
Co103 O111 2.135 . S
O104 Co103 2.061 . S
O104 C107 1.235 . S
C105 O108 1.238 . S
C105 O109 1.241 . S
C106 O99 1.247 . S
C106 O100 1.261 . S
C107 O102 1.259 . S
C107 O104 1.235 . S
O108 Co98 2.021 . S
O108 C105 1.238 . S
O109 Co103 2.052 . S
O109 C105 1.241 . S
O110 Co98 2.137 . S
O110 C101 1.247 . S
O111 Co98 2.244 . S
O111 C101 1.272 . S
O111 Co103 2.135 . S
Co112 O113 2.216 . S
Co112 O114 2.091 . S
Co112 O116 2.004 . S
Co112 O122 2.021 . S
Co112 O124 2.137 . S
Co112 O125 2.244 . S
O113 Co112 2.216 . S
O113 C120 1.247 . S
O114 Co112 2.091 . S
O114 C120 1.261 . S
C115 O124 1.247 . S
C115 O125 1.272 . S
O116 Co112 2.004 . S
O116 C121 1.259 . S
Co117 O118 2.061 . S
Co117 O123 2.052 . S
Co117 O125 2.135 . S
O118 Co117 2.061 . S
O118 C121 1.235 . S
C119 O122 1.238 . S
C119 O123 1.241 . S
C120 O113 1.247 . S
C120 O114 1.261 . S
C121 O116 1.259 . S
C121 O118 1.235 . S
O122 Co112 2.021 . S
O122 C119 1.238 . S
O123 Co117 2.052 . S
O123 C119 1.241 . S
O124 Co112 2.137 . S
O124 C115 1.247 . S
O125 Co112 2.244 . S
O125 C115 1.272 . S
O125 Co117 2.135 . S
Co126 O127 2.216 . S
Co126 O128 2.091 . S
Co126 O130 2.004 . S
Co126 O136 2.021 . S
Co126 O138 2.137 . S
Co126 O139 2.244 . S
O127 Co126 2.216 . S
O127 C134 1.247 . S
O128 Co126 2.091 . S
O128 C134 1.261 . S
C129 O138 1.247 . S
C129 O139 1.272 . S
O130 Co126 2.004 . S
O130 C135 1.259 . S
Co131 O132 2.061 . S
Co131 O137 2.052 . S
Co131 O139 2.135 . S
O132 Co131 2.061 . S
O132 C135 1.235 . S
C133 O136 1.238 . S
C133 O137 1.241 . S
C134 O127 1.247 . S
C134 O128 1.261 . S
C135 O130 1.259 . S
C135 O132 1.235 . S
O136 Co126 2.021 . S
O136 C133 1.238 . S
O137 Co131 2.052 . S
O137 C133 1.241 . S
O138 Co126 2.137 . S
O138 C129 1.247 . S
O139 Co126 2.244 . S
O139 C129 1.272 . S
O139 Co131 2.135 . S
Co140 O141 2.216 . S
Co140 O142 2.091 . S
Co140 O144 2.004 . S
Co140 O150 2.021 . S
Co140 O152 2.137 . S
Co140 O153 2.244 . S
O141 Co140 2.216 . S
O141 C148 1.247 . S
O142 Co140 2.091 . S
O142 C148 1.261 . S
C143 O152 1.247 . S
C143 O153 1.272 . S
O144 Co140 2.004 . S
O144 C149 1.259 . S
Co145 O146 2.061 . S
Co145 O151 2.052 . S
Co145 O153 2.135 . S
O146 Co145 2.061 . S
O146 C149 1.235 . S
C147 O150 1.238 . S
C147 O151 1.241 . S
C148 O141 1.247 . S
C148 O142 1.261 . S
C149 O144 1.259 . S
C149 O146 1.235 . S
O150 Co140 2.021 . S
O150 C147 1.238 . S
O151 Co145 2.052 . S
O151 C147 1.241 . S
O152 Co140 2.137 . S
O152 C143 1.247 . S
O153 Co140 2.244 . S
O153 C143 1.272 . S
O153 Co145 2.135 . S
Co154 O155 2.216 . S
Co154 O156 2.091 . S
Co154 O158 2.004 . S
Co154 O164 2.021 . S
Co154 O166 2.137 . S
Co154 O167 2.244 . S
O155 Co154 2.216 . S
O155 C162 1.247 . S
O156 Co154 2.091 . S
O156 C162 1.261 . S
C157 O166 1.247 . S
C157 O167 1.272 . S
O158 Co154 2.004 . S
O158 C163 1.259 . S
Co159 O160 2.061 . S
Co159 O165 2.052 . S
Co159 O167 2.135 . S
O160 Co159 2.061 . S
O160 C163 1.235 . S
C161 O164 1.238 . S
C161 O165 1.241 . S
C162 O155 1.247 . S
C162 O156 1.261 . S
C163 O158 1.259 . S
C163 O160 1.235 . S
O164 Co154 2.021 . S
O164 C161 1.238 . S
O165 Co159 2.052 . S
O165 C161 1.241 . S
O166 Co154 2.137 . S
O166 C157 1.247 . S
O167 Co154 2.244 . S
O167 C157 1.272 . S
O167 Co159 2.135 . S
H168 C176 0.929 . S
H169 C178 0.930 . S
H170 C180 0.930 . S
H171 C183 0.929 . S
H172 C186 0.930 . S
H173 C188 0.960 . S
H174 C188 0.960 . S
H175 C188 0.960 . S
C176 H168 0.929 . S
C176 C177 1.377 . S
C176 C178 1.384 . S
C177 C176 1.377 . S
C177 C183 1.390 . S
C178 H169 0.930 . S
C178 C176 1.384 . S
C178 C179 1.372 . S
C179 C178 1.372 . S
C179 C180 1.400 . S
C179 C184 1.490 . S
C180 H170 0.930 . S
C180 C179 1.400 . S
C180 C183 1.386 . S
H181 C197 0.930 . S
H182 C198 0.931 . S
C183 H171 0.929 . S
C183 C177 1.390 . S
C183 C180 1.386 . S
C184 C179 1.490 . S
C184 C186 1.395 . S
C184 C187 1.403 . S
H185 C191 0.930 . S
C186 H172 0.930 . S
C186 C184 1.395 . S
C186 C189 1.403 1_556 S
C187 C184 1.403 . S
C187 C188 1.524 . S
C187 C191 1.400 1_556 S
C188 H173 0.960 . S
C188 H174 0.960 . S
C188 H175 0.960 . S
C188 C187 1.524 . S
C189 C186 1.403 1_554 S
C189 C190 1.392 . S
C189 C193 1.495 . S
C190 C189 1.392 . S
C190 C191 1.385 . S
C190 C192 1.478 . S
C191 H185 0.930 . S
C191 C187 1.400 1_554 S
C191 C190 1.385 . S
C192 C190 1.478 . S
C192 C194 1.381 . S
C192 C198 1.383 . S
C193 C189 1.495 . S
C193 H199 0.959 . S
C193 H200 0.961 . S
C193 H201 0.960 . S
C194 C192 1.381 . S
C194 C195 1.394 . S
C194 H202 0.930 . S
C195 C194 1.394 . S
C195 C196 1.383 . S
C195 H203 0.929 . S
C196 C195 1.383 . S
C196 C197 1.377 . S
C197 H181 0.930 . S
C197 C196 1.377 . S
C197 C198 1.379 . S
C198 H182 0.931 . S
C198 C192 1.383 . S
C198 C197 1.379 . S
H199 C193 0.959 . S
H200 C193 0.961 . S
H201 C193 0.960 . S
H202 C194 0.930 . S
H203 C195 0.929 . S
H204 C212 0.929 . S
H205 C214 0.930 . S
H206 C216 0.930 . S
H207 C219 0.929 . S
H208 C222 0.930 . S
H209 C224 0.960 . S
H210 C224 0.960 . S
H211 C224 0.960 . S
C212 H204 0.929 . S
C212 C213 1.377 . S
C212 C214 1.384 . S
C213 C212 1.377 . S
C213 C219 1.390 . S
C214 H205 0.930 . S
C214 C212 1.384 . S
C214 C215 1.372 . S
C215 C214 1.372 . S
C215 C216 1.400 . S
C215 C220 1.490 . S
C216 H206 0.930 . S
C216 C215 1.400 . S
C216 C219 1.386 . S
H217 C233 0.930 . S
H218 C234 0.931 . S
C219 H207 0.929 . S
C219 C213 1.390 . S
C219 C216 1.386 . S
C220 C215 1.490 . S
C220 C222 1.395 . S
C220 C223 1.403 . S
H221 C227 0.930 . S
C222 H208 0.930 . S
C222 C220 1.395 . S
C222 C225 1.403 . S
C223 C220 1.403 . S
C223 C224 1.524 . S
C223 C227 1.400 . S
C224 H209 0.960 . S
C224 H210 0.960 . S
C224 H211 0.960 . S
C224 C223 1.524 . S
C225 C222 1.403 . S
C225 C226 1.392 . S
C225 C229 1.495 . S
C226 C225 1.392 . S
C226 C227 1.385 . S
C226 C228 1.478 . S
C227 H221 0.930 . S
C227 C223 1.400 . S
C227 C226 1.385 . S
C228 C226 1.478 . S
C228 C230 1.381 . S
C228 C234 1.383 . S
C229 C225 1.495 . S
C229 H235 0.959 . S
C229 H236 0.961 . S
C229 H237 0.960 . S
C230 C228 1.381 . S
C230 C231 1.394 . S
C230 H238 0.930 . S
C231 C230 1.394 . S
C231 C232 1.383 . S
C231 H239 0.929 . S
C232 C231 1.383 . S
C232 C233 1.377 . S
C233 H217 0.930 . S
C233 C232 1.377 . S
C233 C234 1.379 . S
C234 H218 0.931 . S
C234 C228 1.383 . S
C234 C233 1.379 . S
H235 C229 0.959 . S
H236 C229 0.961 . S
H237 C229 0.960 . S
H238 C230 0.930 . S
H239 C231 0.929 . S
H240 C248 0.929 . S
H241 C250 0.930 . S
H242 C252 0.930 . S
H243 C255 0.929 . S
H244 C258 0.930 . S
H245 C260 0.960 . S
H246 C260 0.960 . S
H247 C260 0.960 . S
C248 H240 0.929 . S
C248 C249 1.377 . S
C248 C250 1.384 . S
C249 C248 1.377 . S
C249 C255 1.390 . S
C250 H241 0.930 . S
C250 C248 1.384 . S
C250 C251 1.372 . S
C251 C250 1.372 . S
C251 C252 1.400 . S
C251 C256 1.490 . S
C252 H242 0.930 . S
C252 C251 1.400 . S
C252 C255 1.386 . S
H253 C269 0.930 . S
H254 C270 0.931 . S
C255 H243 0.929 . S
C255 C249 1.390 . S
C255 C252 1.386 . S
C256 C251 1.490 . S
C256 C258 1.395 . S
C256 C259 1.403 . S
H257 C263 0.930 . S
C258 H244 0.930 . S
C258 C256 1.395 . S
C258 C261 1.403 . S
C259 C256 1.403 . S
C259 C260 1.524 . S
C259 C263 1.400 . S
C260 H245 0.960 . S
C260 H246 0.960 . S
C260 H247 0.960 . S
C260 C259 1.524 . S
C261 C258 1.403 . S
C261 C262 1.392 . S
C261 C265 1.495 . S
C262 C261 1.392 . S
C262 C263 1.385 . S
C262 C264 1.478 . S
C263 H257 0.930 . S
C263 C259 1.400 . S
C263 C262 1.385 . S
C264 C262 1.478 . S
C264 C266 1.381 . S
C264 C270 1.383 . S
C265 C261 1.495 . S
C265 H271 0.959 . S
C265 H272 0.961 . S
C265 H273 0.960 . S
C266 C264 1.381 . S
C266 C267 1.394 . S
C266 H274 0.930 . S
C267 C266 1.394 . S
C267 C268 1.383 . S
C267 H275 0.929 . S
C268 C267 1.383 . S
C268 C269 1.377 . S
C269 H253 0.930 . S
C269 C268 1.377 . S
C269 C270 1.379 . S
C270 H254 0.931 . S
C270 C264 1.383 . S
C270 C269 1.379 . S
H271 C265 0.959 . S
H272 C265 0.961 . S
H273 C265 0.960 . S
H274 C266 0.930 . S
H275 C267 0.929 . S
H276 C284 0.929 . S
H277 C286 0.930 . S
H278 C288 0.930 . S
H279 C291 0.929 . S
H280 C294 0.930 . S
H281 C296 0.960 . S
H282 C296 0.960 . S
H283 C296 0.960 . S
C284 H276 0.929 . S
C284 C285 1.377 . S
C284 C286 1.384 . S
C285 C284 1.377 . S
C285 C291 1.390 . S
C286 H277 0.930 . S
C286 C284 1.384 . S
C286 C287 1.372 . S
C287 C286 1.372 . S
C287 C288 1.400 . S
C287 C292 1.490 . S
C288 H278 0.930 . S
C288 C287 1.400 . S
C288 C291 1.386 . S
H289 C305 0.930 . S
H290 C306 0.931 . S
C291 H279 0.929 . S
C291 C285 1.390 . S
C291 C288 1.386 . S
C292 C287 1.490 . S
C292 C294 1.395 . S
C292 C295 1.403 . S
H293 C299 0.930 . S
C294 H280 0.930 . S
C294 C292 1.395 . S
C294 C297 1.403 1_554 S
C295 C292 1.403 . S
C295 C296 1.524 . S
C295 C299 1.400 1_554 S
C296 H281 0.960 . S
C296 H282 0.960 . S
C296 H283 0.960 . S
C296 C295 1.524 . S
C297 C294 1.403 1_556 S
C297 C298 1.392 . S
C297 C301 1.495 . S
C298 C297 1.392 . S
C298 C299 1.385 . S
C298 C300 1.478 . S
C299 H293 0.930 . S
C299 C295 1.400 1_556 S
C299 C298 1.385 . S
C300 C298 1.478 . S
C300 C302 1.381 . S
C300 C306 1.383 . S
C301 C297 1.495 . S
C301 H307 0.959 . S
C301 H308 0.961 . S
C301 H309 0.960 . S
C302 C300 1.381 . S
C302 C303 1.394 . S
C302 H310 0.930 . S
C303 C302 1.394 . S
C303 C304 1.383 . S
C303 H311 0.929 . S
C304 C303 1.383 . S
C304 C305 1.377 . S
C305 H289 0.930 . S
C305 C304 1.377 . S
C305 C306 1.379 . S
C306 H290 0.931 . S
C306 C300 1.383 . S
C306 C305 1.379 . S
H307 C301 0.959 . S
H308 C301 0.961 . S
H309 C301 0.960 . S
H310 C302 0.930 . S
H311 C303 0.929 . S
H312 C320 0.929 . S
H313 C322 0.930 . S
H314 C324 0.930 . S
H315 C327 0.929 . S
H316 C330 0.930 . S
H317 C332 0.960 . S
H318 C332 0.960 . S
H319 C332 0.960 . S
C320 H312 0.929 . S
C320 C321 1.377 . S
C320 C322 1.384 . S
C321 C320 1.377 . S
C321 C327 1.390 . S
C322 H313 0.930 . S
C322 C320 1.384 . S
C322 C323 1.372 . S
C323 C322 1.372 . S
C323 C324 1.400 . S
C323 C328 1.490 . S
C324 H314 0.930 . S
C324 C323 1.400 . S
C324 C327 1.386 . S
H325 C341 0.930 . S
H326 C342 0.931 . S
C327 H315 0.929 . S
C327 C321 1.390 . S
C327 C324 1.386 . S
C328 C323 1.490 . S
C328 C330 1.395 . S
C328 C331 1.403 . S
H329 C335 0.930 . S
C330 H316 0.930 . S
C330 C328 1.395 . S
C330 C333 1.403 . S
C331 C328 1.403 . S
C331 C332 1.524 . S
C331 C335 1.400 . S
C332 H317 0.960 . S
C332 H318 0.960 . S
C332 H319 0.960 . S
C332 C331 1.524 . S
C333 C330 1.403 . S
C333 C334 1.392 . S
C333 C337 1.495 . S
C334 C333 1.392 . S
C334 C335 1.385 . S
C334 C336 1.478 . S
C335 H329 0.930 . S
C335 C331 1.400 . S
C335 C334 1.385 . S
C336 C334 1.478 . S
C336 C338 1.381 . S
C336 C342 1.383 . S
C337 C333 1.495 . S
C337 H343 0.959 . S
C337 H344 0.961 . S
C337 H345 0.960 . S
C338 C336 1.381 . S
C338 C339 1.394 . S
C338 H346 0.930 . S
C339 C338 1.394 . S
C339 C340 1.383 . S
C339 H347 0.929 . S
C340 C339 1.383 . S
C340 C341 1.377 . S
C341 H325 0.930 . S
C341 C340 1.377 . S
C341 C342 1.379 . S
C342 H326 0.931 . S
C342 C336 1.383 . S
C342 C341 1.379 . S
H343 C337 0.959 . S
H344 C337 0.961 . S
H345 C337 0.960 . S
H346 C338 0.930 . S
H347 C339 0.929 . S
H348 C356 0.929 . S
H349 C358 0.930 . S
H350 C360 0.930 . S
H351 C363 0.929 . S
H352 C366 0.930 . S
H353 C368 0.960 . S
H354 C368 0.960 . S
H355 C368 0.960 . S
C356 H348 0.929 . S
C356 C357 1.377 . S
C356 C358 1.384 . S
C357 C356 1.377 . S
C357 C363 1.390 . S
C358 H349 0.930 . S
C358 C356 1.384 . S
C358 C359 1.372 . S
C359 C358 1.372 . S
C359 C360 1.400 . S
C359 C364 1.490 . S
C360 H350 0.930 . S
C360 C359 1.400 . S
C360 C363 1.386 . S
H361 C377 0.930 . S
H362 C378 0.931 . S
C363 H351 0.929 . S
C363 C357 1.390 . S
C363 C360 1.386 . S
C364 C359 1.490 . S
C364 C366 1.395 . S
C364 C367 1.403 . S
H365 C371 0.930 . S
C366 H352 0.930 . S
C366 C364 1.395 . S
C366 C369 1.403 . S
C367 C364 1.403 . S
C367 C368 1.524 . S
C367 C371 1.400 . S
C368 H353 0.960 . S
C368 H354 0.960 . S
C368 H355 0.960 . S
C368 C367 1.524 . S
C369 C366 1.403 . S
C369 C370 1.392 . S
C369 C373 1.495 . S
C370 C369 1.392 . S
C370 C371 1.385 . S
C370 C372 1.478 . S
C371 H365 0.930 . S
C371 C367 1.400 . S
C371 C370 1.385 . S
C372 C370 1.478 . S
C372 C374 1.381 . S
C372 C378 1.383 . S
C373 C369 1.495 . S
C373 H379 0.959 . S
C373 H380 0.961 . S
C373 H381 0.960 . S
C374 C372 1.381 . S
C374 C375 1.394 . S
C374 H382 0.930 . S
C375 C374 1.394 . S
C375 C376 1.383 . S
C375 H383 0.929 . S
C376 C375 1.383 . S
C376 C377 1.377 . S
C377 H361 0.930 . S
C377 C376 1.377 . S
C377 C378 1.379 . S
C378 H362 0.931 . S
C378 C372 1.383 . S
C378 C377 1.379 . S
H379 C373 0.959 . S
H380 C373 0.961 . S
H381 C373 0.960 . S
H382 C374 0.930 . S
H383 C375 0.929 . S
H384 C392 0.929 . S
H385 C394 0.930 . S
H386 C396 0.930 . S
H387 C399 0.929 . S
H388 C402 0.930 . S
H389 C404 0.960 . S
H390 C404 0.960 . S
H391 C404 0.960 . S
C392 H384 0.929 . S
C392 C393 1.377 . S
C392 C394 1.384 . S
C393 C392 1.377 . S
C393 C399 1.390 . S
C394 H385 0.930 . S
C394 C392 1.384 . S
C394 C395 1.372 . S
C395 C394 1.372 . S
C395 C396 1.400 . S
C395 C400 1.490 . S
C396 H386 0.930 . S
C396 C395 1.400 . S
C396 C399 1.386 . S
H397 C413 0.930 . S
H398 C414 0.931 . S
C399 H387 0.929 . S
C399 C393 1.390 . S
C399 C396 1.386 . S
C400 C395 1.490 . S
C400 C402 1.395 . S
C400 C403 1.403 . S
H401 C407 0.930 . S
C402 H388 0.930 . S
C402 C400 1.395 . S
C402 C405 1.403 . S
C403 C400 1.403 . S
C403 C404 1.524 . S
C403 C407 1.400 . S
C404 H389 0.960 . S
C404 H390 0.960 . S
C404 H391 0.960 . S
C404 C403 1.524 . S
C405 C402 1.403 . S
C405 C406 1.392 . S
C405 C409 1.495 . S
C406 C405 1.392 . S
C406 C407 1.385 . S
C406 C408 1.478 . S
C407 H401 0.930 . S
C407 C403 1.400 . S
C407 C406 1.385 . S
C408 C406 1.478 . S
C408 C410 1.381 . S
C408 C414 1.383 . S
C409 C405 1.495 . S
C409 H415 0.959 . S
C409 H416 0.961 . S
C409 H417 0.960 . S
C410 C408 1.381 . S
C410 C411 1.394 . S
C410 H418 0.930 . S
C411 C410 1.394 . S
C411 C412 1.383 . S
C411 H419 0.929 . S
C412 C411 1.383 . S
C412 C413 1.377 . S
C413 H397 0.930 . S
C413 C412 1.377 . S
C413 C414 1.379 . S
C414 H398 0.931 . S
C414 C408 1.383 . S
C414 C413 1.379 . S
H415 C409 0.959 . S
H416 C409 0.961 . S
H417 C409 0.960 . S
H418 C410 0.930 . S
H419 C411 0.929 . S
H420 C428 0.929 . S
H421 C430 0.930 . S
H422 C432 0.930 . S
H423 C435 0.929 . S
H424 C438 0.930 . S
H425 C440 0.960 . S
H426 C440 0.960 . S
H427 C440 0.960 . S
C428 H420 0.929 . S
C428 C429 1.377 . S
C428 C430 1.384 . S
C429 C428 1.377 . S
C429 C435 1.390 . S
C430 H421 0.930 . S
C430 C428 1.384 . S
C430 C431 1.372 . S
C431 C430 1.372 . S
C431 C432 1.400 . S
C431 C436 1.490 . S
C432 H422 0.930 . S
C432 C431 1.400 . S
C432 C435 1.386 . S
H433 C449 0.930 . S
H434 C450 0.931 . S
C435 H423 0.929 . S
C435 C429 1.390 . S
C435 C432 1.386 . S
C436 C431 1.490 . S
C436 C438 1.395 . S
C436 C439 1.403 . S
H437 C443 0.930 . S
C438 H424 0.930 . S
C438 C436 1.395 . S
C438 C441 1.403 . S
C439 C436 1.403 . S
C439 C440 1.524 . S
C439 C443 1.400 . S
C440 H425 0.960 . S
C440 H426 0.960 . S
C440 H427 0.960 . S
C440 C439 1.524 . S
C441 C438 1.403 . S
C441 C442 1.392 . S
C441 C445 1.495 . S
C442 C441 1.392 . S
C442 C443 1.385 . S
C442 C444 1.478 . S
C443 H437 0.930 . S
C443 C439 1.400 . S
C443 C442 1.385 . S
C444 C442 1.478 . S
C444 C446 1.381 . S
C444 C450 1.383 . S
C445 C441 1.495 . S
C445 H451 0.959 . S
C445 H452 0.961 . S
C445 H453 0.960 . S
C446 C444 1.381 . S
C446 C447 1.394 . S
C446 H454 0.930 . S
C447 C446 1.394 . S
C447 C448 1.383 . S
C447 H455 0.929 . S
C448 C447 1.383 . S
C448 C449 1.377 . S
C449 H433 0.930 . S
C449 C448 1.377 . S
C449 C450 1.379 . S
C450 H434 0.931 . S
C450 C444 1.383 . S
C450 C449 1.379 . S
H451 C445 0.959 . S
H452 C445 0.961 . S
H453 C445 0.960 . S
H454 C446 0.930 . S
H455 C447 0.929 . S
H456 C464 0.929 . S
H457 C466 0.930 . S
H458 C468 0.930 . S
H459 C471 0.929 . S
H460 C474 0.930 . S
H461 C476 0.960 . S
H462 C476 0.960 . S
H463 C476 0.960 . S
C464 H456 0.929 . S
C464 C465 1.377 . S
C464 C466 1.384 . S
C465 C464 1.377 . S
C465 C471 1.390 . S
C466 H457 0.930 . S
C466 C464 1.384 . S
C466 C467 1.372 . S
C467 C466 1.372 . S
C467 C468 1.400 . S
C467 C472 1.490 . S
C468 H458 0.930 . S
C468 C467 1.400 . S
C468 C471 1.386 . S
H469 C485 0.930 . S
H470 C486 0.931 . S
C471 H459 0.929 . S
C471 C465 1.390 . S
C471 C468 1.386 . S
C472 C467 1.490 . S
C472 C474 1.395 . S
C472 C475 1.403 . S
H473 C479 0.930 . S
C474 H460 0.930 . S
C474 C472 1.395 . S
C474 C477 1.403 . S
C475 C472 1.403 . S
C475 C476 1.524 . S
C475 C479 1.400 . S
C476 H461 0.960 . S
C476 H462 0.960 . S
C476 H463 0.960 . S
C476 C475 1.524 . S
C477 C474 1.403 . S
C477 C478 1.392 . S
C477 C481 1.495 . S
C478 C477 1.392 . S
C478 C479 1.385 . S
C478 C480 1.478 . S
C479 H473 0.930 . S
C479 C475 1.400 . S
C479 C478 1.385 . S
C480 C478 1.478 . S
C480 C482 1.381 . S
C480 C486 1.383 . S
C481 C477 1.495 . S
C481 H487 0.959 . S
C481 H488 0.961 . S
C481 H489 0.960 . S
C482 C480 1.381 . S
C482 C483 1.394 . S
C482 H490 0.930 . S
C483 C482 1.394 . S
C483 C484 1.383 . S
C483 H491 0.929 . S
C484 C483 1.383 . S
C484 C485 1.377 . S
C485 H469 0.930 . S
C485 C484 1.377 . S
C485 C486 1.379 . S
C486 H470 0.931 . S
C486 C480 1.383 . S
C486 C485 1.379 . S
H487 C481 0.959 . S
H488 C481 0.961 . S
H489 C481 0.960 . S
H490 C482 0.930 . S
H491 C483 0.929 . S
H492 C500 0.929 . S
H493 C502 0.930 . S
H494 C504 0.930 . S
H495 C507 0.929 . S
H496 C510 0.930 . S
H497 C512 0.960 . S
H498 C512 0.960 . S
H499 C512 0.960 . S
C500 H492 0.929 . S
C500 C501 1.377 . S
C500 C502 1.384 . S
C501 C500 1.377 . S
C501 C507 1.390 . S
C502 H493 0.930 . S
C502 C500 1.384 . S
C502 C503 1.372 . S
C503 C502 1.372 . S
C503 C504 1.400 . S
C503 C508 1.490 . S
C504 H494 0.930 . S
C504 C503 1.400 . S
C504 C507 1.386 . S
H505 C521 0.930 . S
H506 C522 0.931 . S
C507 H495 0.929 . S
C507 C501 1.390 . S
C507 C504 1.386 . S
C508 C503 1.490 . S
C508 C510 1.395 . S
C508 C511 1.403 . S
H509 C515 0.930 . S
C510 H496 0.930 . S
C510 C508 1.395 . S
C510 C513 1.403 . S
C511 C508 1.403 . S
C511 C512 1.524 . S
C511 C515 1.400 . S
C512 H497 0.960 . S
C512 H498 0.960 . S
C512 H499 0.960 . S
C512 C511 1.524 . S
C513 C510 1.403 . S
C513 C514 1.392 . S
C513 C517 1.495 . S
C514 C513 1.392 . S
C514 C515 1.385 . S
C514 C516 1.478 . S
C515 H509 0.930 . S
C515 C511 1.400 . S
C515 C514 1.385 . S
C516 C514 1.478 . S
C516 C518 1.381 . S
C516 C522 1.383 . S
C517 C513 1.495 . S
C517 H523 0.959 . S
C517 H524 0.961 . S
C517 H525 0.960 . S
C518 C516 1.381 . S
C518 C519 1.394 . S
C518 H526 0.930 . S
C519 C518 1.394 . S
C519 C520 1.383 . S
C519 H527 0.929 . S
C520 C519 1.383 . S
C520 C521 1.377 . S
C521 H505 0.930 . S
C521 C520 1.377 . S
C521 C522 1.379 . S
C522 H506 0.931 . S
C522 C516 1.383 . S
C522 C521 1.379 . S
H523 C517 0.959 . S
H524 C517 0.961 . S
H525 C517 0.960 . S
H526 C518 0.930 . S
H527 C519 0.929 . S
H528 C536 0.929 . S
H529 C538 0.930 . S
H530 C540 0.930 . S
H531 C543 0.929 . S
H532 C546 0.930 . S
H533 C548 0.960 . S
H534 C548 0.960 . S
H535 C548 0.960 . S
C536 H528 0.929 . S
C536 C537 1.377 . S
C536 C538 1.384 . S
C537 C536 1.377 . S
C537 C543 1.390 . S
C538 H529 0.930 . S
C538 C536 1.384 . S
C538 C539 1.372 . S
C539 C538 1.372 . S
C539 C540 1.400 . S
C539 C544 1.490 . S
C540 H530 0.930 . S
C540 C539 1.400 . S
C540 C543 1.386 . S
H541 C557 0.930 . S
H542 C558 0.931 . S
C543 H531 0.929 . S
C543 C537 1.390 . S
C543 C540 1.386 . S
C544 C539 1.490 . S
C544 C546 1.395 . S
C544 C547 1.403 . S
H545 C551 0.930 . S
C546 H532 0.930 . S
C546 C544 1.395 . S
C546 C549 1.403 . S
C547 C544 1.403 . S
C547 C548 1.524 . S
C547 C551 1.400 . S
C548 H533 0.960 . S
C548 H534 0.960 . S
C548 H535 0.960 . S
C548 C547 1.524 . S
C549 C546 1.403 . S
C549 C550 1.392 . S
C549 C553 1.495 . S
C550 C549 1.392 . S
C550 C551 1.385 . S
C550 C552 1.478 . S
C551 H545 0.930 . S
C551 C547 1.400 . S
C551 C550 1.385 . S
C552 C550 1.478 . S
C552 C554 1.381 . S
C552 C558 1.383 . S
C553 C549 1.495 . S
C553 H559 0.959 . S
C553 H560 0.961 . S
C553 H561 0.960 . S
C554 C552 1.381 . S
C554 C555 1.394 . S
C554 H562 0.930 . S
C555 C554 1.394 . S
C555 C556 1.383 . S
C555 H563 0.929 . S
C556 C555 1.383 . S
C556 C557 1.377 . S
C557 H541 0.930 . S
C557 C556 1.377 . S
C557 C558 1.379 . S
C558 H542 0.931 . S
C558 C552 1.383 . S
C558 C557 1.379 . S
H559 C553 0.959 . S
H560 C553 0.961 . S
H561 C553 0.960 . S
H562 C554 0.930 . S
H563 C555 0.929 . S
H564 C572 0.929 . S
H565 C574 0.930 . S
H566 C576 0.930 . S
H567 C579 0.929 . S
H568 C582 0.930 . S
H569 C584 0.960 . S
H570 C584 0.960 . S
H571 C584 0.960 . S
C572 H564 0.929 . S
C572 C573 1.377 . S
C572 C574 1.384 . S
C573 C572 1.377 . S
C573 C579 1.390 . S
C574 H565 0.930 . S
C574 C572 1.384 . S
C574 C575 1.372 . S
C575 C574 1.372 . S
C575 C576 1.400 . S
C575 C580 1.490 . S
C576 H566 0.930 . S
C576 C575 1.400 . S
C576 C579 1.386 . S
H577 C593 0.930 . S
H578 C594 0.931 . S
C579 H567 0.929 . S
C579 C573 1.390 . S
C579 C576 1.386 . S
C580 C575 1.490 . S
C580 C582 1.395 . S
C580 C583 1.403 . S
H581 C587 0.930 . S
C582 H568 0.930 . S
C582 C580 1.395 . S
C582 C585 1.403 . S
C583 C580 1.403 . S
C583 C584 1.524 . S
C583 C587 1.400 . S
C584 H569 0.960 . S
C584 H570 0.960 . S
C584 H571 0.960 . S
C584 C583 1.524 . S
C585 C582 1.403 . S
C585 C586 1.392 . S
C585 C589 1.495 . S
C586 C585 1.392 . S
C586 C587 1.385 . S
C586 C588 1.478 . S
C587 H581 0.930 . S
C587 C583 1.400 . S
C587 C586 1.385 . S
C588 C586 1.478 . S
C588 C590 1.381 . S
C588 C594 1.383 . S
C589 C585 1.495 . S
C589 H595 0.959 . S
C589 H596 0.961 . S
C589 H597 0.960 . S
C590 C588 1.381 . S
C590 C591 1.394 . S
C590 H598 0.930 . S
C591 C590 1.394 . S
C591 C592 1.383 . S
C591 H599 0.929 . S
C592 C591 1.383 . S
C592 C593 1.377 . S
C593 H577 0.930 . S
C593 C592 1.377 . S
C593 C594 1.379 . S
C594 H578 0.931 . S
C594 C588 1.383 . S
C594 C593 1.379 . S
H595 C589 0.959 . S
H596 C589 0.961 . S
H597 C589 0.960 . S
H598 C590 0.930 . S
H599 C591 0.929 . S
H600 C608 0.929 . S
H601 C610 0.930 . S
H602 C612 0.930 . S
H603 C615 0.929 . S
H604 C618 0.930 . S
H605 C620 0.960 . S
H606 C620 0.960 . S
H607 C620 0.960 . S
C608 H600 0.929 . S
C608 C609 1.377 . S
C608 C610 1.384 . S
C609 C608 1.377 . S
C609 C615 1.390 . S
C610 H601 0.930 . S
C610 C608 1.384 . S
C610 C611 1.372 . S
C611 C610 1.372 . S
C611 C612 1.400 . S
C611 C616 1.490 . S
C612 H602 0.930 . S
C612 C611 1.400 . S
C612 C615 1.386 . S
H613 C629 0.930 . S
H614 C630 0.931 . S
C615 H603 0.929 . S
C615 C609 1.390 . S
C615 C612 1.386 . S
C616 C611 1.490 . S
C616 C618 1.395 . S
C616 C619 1.403 . S
H617 C623 0.930 . S
C618 H604 0.930 . S
C618 C616 1.395 . S
C618 C621 1.403 1_655 S
C619 C616 1.403 . S
C619 C620 1.524 . S
C619 C623 1.400 1_655 S
C620 H605 0.960 . S
C620 H606 0.960 . S
C620 H607 0.960 . S
C620 C619 1.524 . S
C621 C618 1.403 1_455 S
C621 C622 1.392 . S
C621 C625 1.495 . S
C622 C621 1.392 . S
C622 C623 1.385 . S
C622 C624 1.478 . S
C623 H617 0.930 . S
C623 C619 1.400 1_455 S
C623 C622 1.385 . S
C624 C622 1.478 . S
C624 C626 1.381 . S
C624 C630 1.383 . S
C625 C621 1.495 . S
C625 H631 0.959 . S
C625 H632 0.961 . S
C625 H633 0.960 . S
C626 C624 1.381 . S
C626 C627 1.394 . S
C626 H634 0.930 . S
C627 C626 1.394 . S
C627 C628 1.383 . S
C627 H635 0.929 . S
C628 C627 1.383 . S
C628 C629 1.377 . S
C629 H613 0.930 . S
C629 C628 1.377 . S
C629 C630 1.379 . S
C630 H614 0.931 . S
C630 C624 1.383 . S
C630 C629 1.379 . S
H631 C625 0.959 . S
H632 C625 0.961 . S
H633 C625 0.960 . S
H634 C626 0.930 . S
H635 C627 0.929 . S
H636 C644 0.929 . S
H637 C646 0.930 . S
H638 C648 0.930 . S
H639 C651 0.929 . S
H640 C654 0.930 . S
H641 C656 0.960 . S
H642 C656 0.960 . S
H643 C656 0.960 . S
C644 H636 0.929 . S
C644 C645 1.377 . S
C644 C646 1.384 . S
C645 C644 1.377 . S
C645 C651 1.390 . S
C646 H637 0.930 . S
C646 C644 1.384 . S
C646 C647 1.372 . S
C647 C646 1.372 . S
C647 C648 1.400 . S
C647 C652 1.490 . S
C648 H638 0.930 . S
C648 C647 1.400 . S
C648 C651 1.386 . S
H649 C665 0.930 . S
H650 C666 0.931 . S
C651 H639 0.929 . S
C651 C645 1.390 . S
C651 C648 1.386 . S
C652 C647 1.490 . S
C652 C654 1.395 . S
C652 C655 1.403 . S
H653 C659 0.930 . S
C654 H640 0.930 . S
C654 C652 1.395 . S
C654 C657 1.403 1_545 S
C655 C652 1.403 . S
C655 C656 1.524 . S
C655 C659 1.400 1_545 S
C656 H641 0.960 . S
C656 H642 0.960 . S
C656 H643 0.960 . S
C656 C655 1.524 . S
C657 C654 1.403 1_565 S
C657 C658 1.392 . S
C657 C661 1.495 . S
C658 C657 1.392 . S
C658 C659 1.385 . S
C658 C660 1.478 . S
C659 H653 0.930 . S
C659 C655 1.400 1_565 S
C659 C658 1.385 . S
C660 C658 1.478 . S
C660 C662 1.381 . S
C660 C666 1.383 . S
C661 C657 1.495 . S
C661 H667 0.959 . S
C661 H668 0.961 . S
C661 H669 0.960 . S
C662 C660 1.381 . S
C662 C663 1.394 . S
C662 H670 0.930 . S
C663 C662 1.394 . S
C663 C664 1.383 . S
C663 H671 0.929 . S
C664 C663 1.383 . S
C664 C665 1.377 . S
C665 H649 0.930 . S
C665 C664 1.377 . S
C665 C666 1.379 . S
C666 H650 0.931 . S
C666 C660 1.383 . S
C666 C665 1.379 . S
H667 C661 0.959 . S
H668 C661 0.961 . S
H669 C661 0.960 . S
H670 C662 0.930 . S
H671 C663 0.929 . S
H672 C680 0.929 . S
H673 C682 0.930 . S
H674 C684 0.930 . S
H675 C687 0.929 . S
H676 C690 0.930 . S
H677 C692 0.960 . S
H678 C692 0.960 . S
H679 C692 0.960 . S
C680 H672 0.929 . S
C680 C681 1.377 . S
C680 C682 1.384 . S
C681 C680 1.377 . S
C681 C687 1.390 . S
C682 H673 0.930 . S
C682 C680 1.384 . S
C682 C683 1.372 . S
C683 C682 1.372 . S
C683 C684 1.400 . S
C683 C688 1.490 . S
C684 H674 0.930 . S
C684 C683 1.400 . S
C684 C687 1.386 . S
H685 C701 0.930 . S
H686 C702 0.931 . S
C687 H675 0.929 . S
C687 C681 1.390 . S
C687 C684 1.386 . S
C688 C683 1.490 . S
C688 C690 1.395 . S
C688 C691 1.403 . S
H689 C695 0.930 . S
C690 H676 0.930 . S
C690 C688 1.395 . S
C690 C693 1.403 . S
C691 C688 1.403 . S
C691 C692 1.524 . S
C691 C695 1.400 . S
C692 H677 0.960 . S
C692 H678 0.960 . S
C692 H679 0.960 . S
C692 C691 1.524 . S
C693 C690 1.403 . S
C693 C694 1.392 . S
C693 C697 1.495 . S
C694 C693 1.392 . S
C694 C695 1.385 . S
C694 C696 1.478 . S
C695 H689 0.930 . S
C695 C691 1.400 . S
C695 C694 1.385 . S
C696 C694 1.478 . S
C696 C698 1.381 . S
C696 C702 1.383 . S
C697 C693 1.495 . S
C697 H703 0.959 . S
C697 H704 0.961 . S
C697 H705 0.960 . S
C698 C696 1.381 . S
C698 C699 1.394 . S
C698 H706 0.930 . S
C699 C698 1.394 . S
C699 C700 1.383 . S
C699 H707 0.929 . S
C700 C699 1.383 . S
C700 C701 1.377 . S
C701 H685 0.930 . S
C701 C700 1.377 . S
C701 C702 1.379 . S
C702 H686 0.931 . S
C702 C696 1.383 . S
C702 C701 1.379 . S
H703 C697 0.959 . S
H704 C697 0.961 . S
H705 C697 0.960 . S
H706 C698 0.930 . S
H707 C699 0.929 . S
H708 C716 0.929 . S
H709 C718 0.930 . S
H710 C720 0.930 . S
H711 C723 0.929 . S
H712 C726 0.930 . S
H713 C728 0.960 . S
H714 C728 0.960 . S
H715 C728 0.960 . S
C716 H708 0.929 . S
C716 C717 1.377 . S
C716 C718 1.384 . S
C717 C716 1.377 . S
C717 C723 1.390 . S
C718 H709 0.930 . S
C718 C716 1.384 . S
C718 C719 1.372 . S
C719 C718 1.372 . S
C719 C720 1.400 . S
C719 C724 1.490 . S
C720 H710 0.930 . S
C720 C719 1.400 . S
C720 C723 1.386 . S
H721 C737 0.930 . S
H722 C738 0.931 . S
C723 H711 0.929 . S
C723 C717 1.390 . S
C723 C720 1.386 . S
C724 C719 1.490 . S
C724 C726 1.395 . S
C724 C727 1.403 . S
H725 C731 0.930 . S
C726 H712 0.930 . S
C726 C724 1.395 . S
C726 C729 1.403 1_545 S
C727 C724 1.403 . S
C727 C728 1.524 . S
C727 C731 1.400 1_545 S
C728 H713 0.960 . S
C728 H714 0.960 . S
C728 H715 0.960 . S
C728 C727 1.524 . S
C729 C726 1.403 1_565 S
C729 C730 1.392 . S
C729 C733 1.495 . S
C730 C729 1.392 . S
C730 C731 1.385 . S
C730 C732 1.478 . S
C731 H725 0.930 . S
C731 C727 1.400 1_565 S
C731 C730 1.385 . S
C732 C730 1.478 . S
C732 C734 1.381 . S
C732 C738 1.383 . S
C733 C729 1.495 . S
C733 H739 0.959 . S
C733 H740 0.961 . S
C733 H741 0.960 . S
C734 C732 1.381 . S
C734 C735 1.394 . S
C734 H742 0.930 . S
C735 C734 1.394 . S
C735 C736 1.383 . S
C735 H743 0.929 . S
C736 C735 1.383 . S
C736 C737 1.377 . S
C737 H721 0.930 . S
C737 C736 1.377 . S
C737 C738 1.379 . S
C738 H722 0.931 . S
C738 C732 1.383 . S
C738 C737 1.379 . S
H739 C733 0.959 . S
H740 C733 0.961 . S
H741 C733 0.960 . S
H742 C734 0.930 . S
H743 C735 0.929 . S
H744 C752 0.929 . S
H745 C754 0.930 . S
H746 C756 0.930 . S
H747 C759 0.929 . S
H748 C762 0.930 . S
H749 C764 0.960 . S
H750 C764 0.960 . S
H751 C764 0.960 . S
C752 H744 0.929 . S
C752 C753 1.377 . S
C752 C754 1.384 . S
C753 C752 1.377 . S
C753 C759 1.390 . S
C754 H745 0.930 . S
C754 C752 1.384 . S
C754 C755 1.372 . S
C755 C754 1.372 . S
C755 C756 1.400 . S
C755 C760 1.490 . S
C756 H746 0.930 . S
C756 C755 1.400 . S
C756 C759 1.386 . S
H757 C773 0.930 . S
H758 C774 0.931 . S
C759 H747 0.929 . S
C759 C753 1.390 . S
C759 C756 1.386 . S
C760 C755 1.490 . S
C760 C762 1.395 . S
C760 C763 1.403 . S
H761 C767 0.930 . S
C762 H748 0.930 . S
C762 C760 1.395 . S
C762 C765 1.403 . S
C763 C760 1.403 . S
C763 C764 1.524 . S
C763 C767 1.400 . S
C764 H749 0.960 . S
C764 H750 0.960 . S
C764 H751 0.960 . S
C764 C763 1.524 . S
C765 C762 1.403 . S
C765 C766 1.392 . S
C765 C769 1.495 . S
C766 C765 1.392 . S
C766 C767 1.385 . S
C766 C768 1.478 . S
C767 H761 0.930 . S
C767 C763 1.400 . S
C767 C766 1.385 . S
C768 C766 1.478 . S
C768 C770 1.381 . S
C768 C774 1.383 . S
C769 C765 1.495 . S
C769 H775 0.959 . S
C769 H776 0.961 . S
C769 H777 0.960 . S
C770 C768 1.381 . S
C770 C771 1.394 . S
C770 H778 0.930 . S
C771 C770 1.394 . S
C771 C772 1.383 . S
C771 H779 0.929 . S
C772 C771 1.383 . S
C772 C773 1.377 . S
C773 H757 0.930 . S
C773 C772 1.377 . S
C773 C774 1.379 . S
C774 H758 0.931 . S
C774 C768 1.383 . S
C774 C773 1.379 . S
H775 C769 0.959 . S
H776 C769 0.961 . S
H777 C769 0.960 . S
H778 C770 0.930 . S
H779 C771 0.929 . S
H780 C788 0.929 . S
H781 C790 0.930 . S
H782 C792 0.930 . S
H783 C795 0.929 . S
H784 C798 0.930 . S
H785 C800 0.960 . S
H786 C800 0.960 . S
H787 C800 0.960 . S
C788 H780 0.929 . S
C788 C789 1.377 . S
C788 C790 1.384 . S
C789 C788 1.377 . S
C789 C795 1.390 . S
C790 H781 0.930 . S
C790 C788 1.384 . S
C790 C791 1.372 . S
C791 C790 1.372 . S
C791 C792 1.400 . S
C791 C796 1.490 . S
C792 H782 0.930 . S
C792 C791 1.400 . S
C792 C795 1.386 . S
H793 C809 0.930 . S
H794 C810 0.931 . S
C795 H783 0.929 . S
C795 C789 1.390 . S
C795 C792 1.386 . S
C796 C791 1.490 . S
C796 C798 1.395 . S
C796 C799 1.403 . S
H797 C803 0.930 . S
C798 H784 0.930 . S
C798 C796 1.395 . S
C798 C801 1.403 1_455 S
C799 C796 1.403 . S
C799 C800 1.524 . S
C799 C803 1.400 1_455 S
C800 H785 0.960 . S
C800 H786 0.960 . S
C800 H787 0.960 . S
C800 C799 1.524 . S
C801 C798 1.403 1_655 S
C801 C802 1.392 . S
C801 C805 1.495 . S
C802 C801 1.392 . S
C802 C803 1.385 . S
C802 C804 1.478 . S
C803 H797 0.930 . S
C803 C799 1.400 1_655 S
C803 C802 1.385 . S
C804 C802 1.478 . S
C804 C806 1.381 . S
C804 C810 1.383 . S
C805 C801 1.495 . S
C805 H811 0.959 . S
C805 H812 0.961 . S
C805 H813 0.960 . S
C806 C804 1.381 . S
C806 C807 1.394 . S
C806 H814 0.930 . S
C807 C806 1.394 . S
C807 C808 1.383 . S
C807 H815 0.929 . S
C808 C807 1.383 . S
C808 C809 1.377 . S
C809 H793 0.930 . S
C809 C808 1.377 . S
C809 C810 1.379 . S
C810 H794 0.931 . S
C810 C804 1.383 . S
C810 C809 1.379 . S
H811 C805 0.959 . S
H812 C805 0.961 . S
H813 C805 0.960 . S
H814 C806 0.930 . S
H815 C807 0.929 . S
H816 C824 0.929 . S
H817 C826 0.930 . S
H818 C828 0.930 . S
H819 C831 0.929 . S
H820 C834 0.930 . S
H821 C836 0.960 . S
H822 C836 0.960 . S
H823 C836 0.960 . S
C824 H816 0.929 . S
C824 C825 1.377 . S
C824 C826 1.384 . S
C825 C824 1.377 . S
C825 C831 1.390 . S
C826 H817 0.930 . S
C826 C824 1.384 . S
C826 C827 1.372 . S
C827 C826 1.372 . S
C827 C828 1.400 . S
C827 C832 1.490 . S
C828 H818 0.930 . S
C828 C827 1.400 . S
C828 C831 1.386 . S
H829 C845 0.930 . S
H830 C846 0.931 . S
C831 H819 0.929 . S
C831 C825 1.390 . S
C831 C828 1.386 . S
C832 C827 1.490 . S
C832 C834 1.395 . S
C832 C835 1.403 . S
H833 C839 0.930 . S
C834 H820 0.930 . S
C834 C832 1.395 . S
C834 C837 1.403 . S
C835 C832 1.403 . S
C835 C836 1.524 . S
C835 C839 1.400 . S
C836 H821 0.960 . S
C836 H822 0.960 . S
C836 H823 0.960 . S
C836 C835 1.524 . S
C837 C834 1.403 . S
C837 C838 1.392 . S
C837 C841 1.495 . S
C838 C837 1.392 . S
C838 C839 1.385 . S
C838 C840 1.478 . S
C839 H833 0.930 . S
C839 C835 1.400 . S
C839 C838 1.385 . S
C840 C838 1.478 . S
C840 C842 1.381 . S
C840 C846 1.383 . S
C841 C837 1.495 . S
C841 H847 0.959 . S
C841 H848 0.961 . S
C841 H849 0.960 . S
C842 C840 1.381 . S
C842 C843 1.394 . S
C842 H850 0.930 . S
C843 C842 1.394 . S
C843 C844 1.383 . S
C843 H851 0.929 . S
C844 C843 1.383 . S
C844 C845 1.377 . S
C845 H829 0.930 . S
C845 C844 1.377 . S
C845 C846 1.379 . S
C846 H830 0.931 . S
C846 C840 1.383 . S
C846 C845 1.379 . S
H847 C841 0.959 . S
H848 C841 0.961 . S
H849 C841 0.960 . S
H850 C842 0.930 . S
H851 C843 0.929 . S
H852 C860 0.929 . S
H853 C862 0.930 . S
H854 C864 0.930 . S
H855 C867 0.929 . S
H856 C870 0.930 . S
H857 C872 0.960 . S
H858 C872 0.960 . S
H859 C872 0.960 . S
C860 H852 0.929 . S
C860 C861 1.377 . S
C860 C862 1.384 . S
C861 C860 1.377 . S
C861 C867 1.390 . S
C862 H853 0.930 . S
C862 C860 1.384 . S
C862 C863 1.372 . S
C863 C862 1.372 . S
C863 C864 1.400 . S
C863 C868 1.490 . S
C864 H854 0.930 . S
C864 C863 1.400 . S
C864 C867 1.386 . S
H865 C881 0.930 . S
H866 C882 0.931 . S
C867 H855 0.929 . S
C867 C861 1.390 . S
C867 C864 1.386 . S
C868 C863 1.490 . S
C868 C870 1.395 . S
C868 C871 1.403 . S
H869 C875 0.930 . S
C870 H856 0.930 . S
C870 C868 1.395 . S
C870 C873 1.403 1_655 S
C871 C868 1.403 . S
C871 C872 1.524 . S
C871 C875 1.400 1_655 S
C872 H857 0.960 . S
C872 H858 0.960 . S
C872 H859 0.960 . S
C872 C871 1.524 . S
C873 C870 1.403 1_455 S
C873 C874 1.392 . S
C873 C877 1.495 . S
C874 C873 1.392 . S
C874 C875 1.385 . S
C874 C876 1.478 . S
C875 H869 0.930 . S
C875 C871 1.400 1_455 S
C875 C874 1.385 . S
C876 C874 1.478 . S
C876 C878 1.381 . S
C876 C882 1.383 . S
C877 C873 1.495 . S
C877 H883 0.959 . S
C877 H884 0.961 . S
C877 H885 0.960 . S
C878 C876 1.381 . S
C878 C879 1.394 . S
C878 H886 0.930 . S
C879 C878 1.394 . S
C879 C880 1.383 . S
C879 H887 0.929 . S
C880 C879 1.383 . S
C880 C881 1.377 . S
C881 H865 0.930 . S
C881 C880 1.377 . S
C881 C882 1.379 . S
C882 H866 0.931 . S
C882 C876 1.383 . S
C882 C881 1.379 . S
H883 C877 0.959 . S
H884 C877 0.961 . S
H885 C877 0.960 . S
H886 C878 0.930 . S
H887 C879 0.929 . S
H888 C896 0.929 . S
H889 C898 0.930 . S
H890 C900 0.930 . S
H891 C903 0.929 . S
H892 C906 0.930 . S
H893 C908 0.960 . S
H894 C908 0.960 . S
H895 C908 0.960 . S
C896 H888 0.929 . S
C896 C897 1.377 . S
C896 C898 1.384 . S
C897 C896 1.377 . S
C897 C903 1.390 . S
C898 H889 0.930 . S
C898 C896 1.384 . S
C898 C899 1.372 . S
C899 C898 1.372 . S
C899 C900 1.400 . S
C899 C904 1.490 . S
C900 H890 0.930 . S
C900 C899 1.400 . S
C900 C903 1.386 . S
H901 C917 0.930 . S
H902 C918 0.931 . S
C903 H891 0.929 . S
C903 C897 1.390 . S
C903 C900 1.386 . S
C904 C899 1.490 . S
C904 C906 1.395 . S
C904 C907 1.403 . S
H905 C911 0.930 . S
C906 H892 0.930 . S
C906 C904 1.395 . S
C906 C909 1.403 1_545 S
C907 C904 1.403 . S
C907 C908 1.524 . S
C907 C911 1.400 1_545 S
C908 H893 0.960 . S
C908 H894 0.960 . S
C908 H895 0.960 . S
C908 C907 1.524 . S
C909 C906 1.403 1_565 S
C909 C910 1.392 . S
C909 C913 1.495 . S
C910 C909 1.392 . S
C910 C911 1.385 . S
C910 C912 1.478 . S
C911 H905 0.930 . S
C911 C907 1.400 1_565 S
C911 C910 1.385 . S
C912 C910 1.478 . S
C912 C914 1.381 . S
C912 C918 1.383 . S
C913 C909 1.495 . S
C913 H919 0.959 . S
C913 H920 0.961 . S
C913 H921 0.960 . S
C914 C912 1.381 . S
C914 C915 1.394 . S
C914 H922 0.930 . S
C915 C914 1.394 . S
C915 C916 1.383 . S
C915 H923 0.929 . S
C916 C915 1.383 . S
C916 C917 1.377 . S
C917 H901 0.930 . S
C917 C916 1.377 . S
C917 C918 1.379 . S
C918 H902 0.931 . S
C918 C912 1.383 . S
C918 C917 1.379 . S
H919 C913 0.959 . S
H920 C913 0.961 . S
H921 C913 0.960 . S
H922 C914 0.930 . S
H923 C915 0.929 . S
H924 C932 0.929 . S
H925 C934 0.930 . S
H926 C936 0.930 . S
H927 C939 0.929 . S
H928 C942 0.930 . S
H929 C944 0.960 . S
H930 C944 0.960 . S
H931 C944 0.960 . S
C932 H924 0.929 . S
C932 C933 1.377 . S
C932 C934 1.384 . S
C933 C932 1.377 . S
C933 C939 1.390 . S
C934 H925 0.930 . S
C934 C932 1.384 . S
C934 C935 1.372 . S
C935 C934 1.372 . S
C935 C936 1.400 . S
C935 C940 1.490 . S
C936 H926 0.930 . S
C936 C935 1.400 . S
C936 C939 1.386 . S
H937 C953 0.930 . S
H938 C954 0.931 . S
C939 H927 0.929 . S
C939 C933 1.390 . S
C939 C936 1.386 . S
C940 C935 1.490 . S
C940 C942 1.395 . S
C940 C943 1.403 . S
H941 C947 0.930 . S
C942 H928 0.930 . S
C942 C940 1.395 . S
C942 C945 1.403 . S
C943 C940 1.403 . S
C943 C944 1.524 . S
C943 C947 1.400 . S
C944 H929 0.960 . S
C944 H930 0.960 . S
C944 H931 0.960 . S
C944 C943 1.524 . S
C945 C942 1.403 . S
C945 C946 1.392 . S
C945 C949 1.495 . S
C946 C945 1.392 . S
C946 C947 1.385 . S
C946 C948 1.478 . S
C947 H941 0.930 . S
C947 C943 1.400 . S
C947 C946 1.385 . S
C948 C946 1.478 . S
C948 C950 1.381 . S
C948 C954 1.383 . S
C949 C945 1.495 . S
C949 H955 0.959 . S
C949 H956 0.961 . S
C949 H957 0.960 . S
C950 C948 1.381 . S
C950 C951 1.394 . S
C950 H958 0.930 . S
C951 C950 1.394 . S
C951 C952 1.383 . S
C951 H959 0.929 . S
C952 C951 1.383 . S
C952 C953 1.377 . S
C953 H937 0.930 . S
C953 C952 1.377 . S
C953 C954 1.379 . S
C954 H938 0.931 . S
C954 C948 1.383 . S
C954 C953 1.379 . S
H955 C949 0.959 . S
H956 C949 0.961 . S
H957 C949 0.960 . S
H958 C950 0.930 . S
H959 C951 0.929 . S
H960 C968 0.929 . S
H961 C970 0.930 . S
H962 C972 0.930 . S
H963 C975 0.929 . S
H964 C978 0.930 . S
H965 C980 0.960 . S
H966 C980 0.960 . S
H967 C980 0.960 . S
C968 H960 0.929 . S
C968 C969 1.377 . S
C968 C970 1.384 . S
C969 C968 1.377 . S
C969 C975 1.390 . S
C970 H961 0.930 . S
C970 C968 1.384 . S
C970 C971 1.372 . S
C971 C970 1.372 . S
C971 C972 1.400 . S
C971 C976 1.490 . S
C972 H962 0.930 . S
C972 C971 1.400 . S
C972 C975 1.386 . S
H973 C989 0.930 . S
H974 C990 0.931 . S
C975 H963 0.929 . S
C975 C969 1.390 . S
C975 C972 1.386 . S
C976 C971 1.490 . S
C976 C978 1.395 . S
C976 C979 1.403 . S
H977 C983 0.930 . S
C978 H964 0.930 . S
C978 C976 1.395 . S
C978 C981 1.403 1_455 S
C979 C976 1.403 . S
C979 C980 1.524 . S
C979 C983 1.400 1_455 S
C980 H965 0.960 . S
C980 H966 0.960 . S
C980 H967 0.960 . S
C980 C979 1.524 . S
C981 C978 1.403 1_655 S
C981 C982 1.392 . S
C981 C985 1.495 . S
C982 C981 1.392 . S
C982 C983 1.385 . S
C982 C984 1.478 . S
C983 H977 0.930 . S
C983 C979 1.400 1_655 S
C983 C982 1.385 . S
C984 C982 1.478 . S
C984 C986 1.381 . S
C984 C990 1.383 . S
C985 C981 1.495 . S
C985 H991 0.959 . S
C985 H992 0.961 . S
C985 H993 0.960 . S
C986 C984 1.381 . S
C986 C987 1.394 . S
C986 H994 0.930 . S
C987 C986 1.394 . S
C987 C988 1.383 . S
C987 H995 0.929 . S
C988 C987 1.383 . S
C988 C989 1.377 . S
C989 H973 0.930 . S
C989 C988 1.377 . S
C989 C990 1.379 . S
C990 H974 0.931 . S
C990 C984 1.383 . S
C990 C989 1.379 . S
H991 C985 0.959 . S
H992 C985 0.961 . S
H993 C985 0.960 . S
H994 C986 0.930 . S
H995 C987 0.929 . S
H996 C1004 0.929 . S
H997 C1006 0.930 . S
H998 C1008 0.930 . S
H999 C1011 0.929 . S
H1000 C1014 0.930 . S
H1001 C1016 0.960 . S
H1002 C1016 0.960 . S
H1003 C1016 0.960 . S
C1004 H996 0.929 . S
C1004 C1005 1.377 . S
C1004 C1006 1.384 . S
C1005 C1004 1.377 . S
C1005 C1011 1.390 . S
C1006 H997 0.930 . S
C1006 C1004 1.384 . S
C1006 C1007 1.372 . S
C1007 C1006 1.372 . S
C1007 C1008 1.400 . S
C1007 C1012 1.490 . S
C1008 H998 0.930 . S
C1008 C1007 1.400 . S
C1008 C1011 1.386 . S
H1009 C1025 0.930 . S
H1010 C1026 0.931 . S
C1011 H999 0.929 . S
C1011 C1005 1.390 . S
C1011 C1008 1.386 . S
C1012 C1007 1.490 . S
C1012 C1014 1.395 . S
C1012 C1015 1.403 . S
H1013 C1019 0.930 . S
C1014 H1000 0.930 . S
C1014 C1012 1.395 . S
C1014 C1017 1.403 1_565 S
C1015 C1012 1.403 . S
C1015 C1016 1.524 . S
C1015 C1019 1.400 1_565 S
C1016 H1001 0.960 . S
C1016 H1002 0.960 . S
C1016 H1003 0.960 . S
C1016 C1015 1.524 . S
C1017 C1014 1.403 1_545 S
C1017 C1018 1.392 . S
C1017 C1021 1.495 . S
C1018 C1017 1.392 . S
C1018 C1019 1.385 . S
C1018 C1020 1.478 . S
C1019 H1013 0.930 . S
C1019 C1015 1.400 1_545 S
C1019 C1018 1.385 . S
C1020 C1018 1.478 . S
C1020 C1022 1.381 . S
C1020 C1026 1.383 . S
C1021 C1017 1.495 . S
C1021 H1027 0.959 . S
C1021 H1028 0.961 . S
C1021 H1029 0.960 . S
C1022 C1020 1.381 . S
C1022 C1023 1.394 . S
C1022 H1030 0.930 . S
C1023 C1022 1.394 . S
C1023 C1024 1.383 . S
C1023 H1031 0.929 . S
C1024 C1023 1.383 . S
C1024 C1025 1.377 . S
C1025 H1009 0.930 . S
C1025 C1024 1.377 . S
C1025 C1026 1.379 . S
C1026 H1010 0.931 . S
C1026 C1020 1.383 . S
C1026 C1025 1.379 . S
H1027 C1021 0.959 . S
H1028 C1021 0.961 . S
H1029 C1021 0.960 . S
H1030 C1022 0.930 . S
H1031 C1023 0.929 . S
C177 C147 1.122 . S
C196 C7 1.144 . S
C213 C21 1.129 . S
C232 C161 1.126 . S
C249 C35 1.122 . S
C268 C91 1.112 . S
C285 C49 1.119 . S
C304 C105 1.135 . S
C321 C119 1.123 . S
C340 C63 1.102 . S
C357 C77 1.128 . S
C376 C133 1.104 . S
C393 C115 1.138 . S
C412 C3 1.095 . S
C429 C17 1.146 . S
C448 C129 1.114 . S
C465 C31 1.133 . S
C484 C143 1.171 . S
C501 C45 1.134 . S
C520 C157 1.111 . S
C537 C87 1.138 . S
C556 C59 1.169 . S
C573 C101 1.131 . S
C592 C73 1.110 . S
C609 C51 1.479 . S
C628 C9 1.470 . S
C645 C23 1.476 . S
C664 C65 1.457 . S
C681 C79 1.476 . S
C700 C37 1.456 . S
C717 C135 1.476 . S
C736 C93 1.456 . S
C753 C149 1.479 . S
C772 C107 1.488 . S
C789 C121 1.476 . S
C808 C163 1.457 . S
C825 C50 1.418 . S
C844 C8 1.417 . S
C861 C22 1.419 . S
C880 C64 1.416 . S
C897 C78 1.419 . S
C916 C36 1.414 . S
C933 C92 1.419 . S
C952 C134 1.414 . S
C969 C148 1.419 . S
C988 C106 1.416 . S
C1005 C120 1.419 . S
C1024 C162 1.414 . S
