# Generated by pormake.
# Topology wlb, (5)-cn, num edge types: 1
# Building blocks:
#     Node 0, Type 0, BuildingBlock: XOMCOT_clean_sbu_1, # of connection points: 5
#     Node 1, Type 0, BuildingBlock: XOMCOT_clean_sbu_1, # of connection points: 5
#     Node 2, Type 0, BuildingBlock: XOMCOT_clean_sbu_1, # of connection points: 5
#     Node 3, Type 0, BuildingBlock: XOMCOT_clean_sbu_1, # of connection points: 5
#     Node 4, Type 0, BuildingBlock: XOMCOT_clean_sbu_1, # of connection points: 5
#     Node 5, Type 0, BuildingBlock: XOMCOT_clean_sbu_1, # of connection points: 5
#     Node 6, Type 0, BuildingBlock: XOMCOT_clean_sbu_1, # of connection points: 5
#     Node 7, Type 0, BuildingBlock: XOMCOT_clean_sbu_1, # of connection points: 5
#     Node 8, Type 0, BuildingBlock: XOMCOT_clean_sbu_1, # of connection points: 5
#     Node 9, Type 0, BuildingBlock: XOMCOT_clean_sbu_1, # of connection points: 5
#     Node 10, Type 0, BuildingBlock: XOMCOT_clean_sbu_1, # of connection points: 5
#     Node 11, Type 0, BuildingBlock: XOMCOT_clean_sbu_1, # of connection points: 5
#     Node 12, Type 0, BuildingBlock: XOMCOT_clean_sbu_1, # of connection points: 5
#     Node 13, Type 0, BuildingBlock: XOMCOT_clean_sbu_1, # of connection points: 5
#     Node 14, Type 0, BuildingBlock: XOMCOT_clean_sbu_1, # of connection points: 5
#     Node 15, Type 0, BuildingBlock: XOMCOT_clean_sbu_1, # of connection points: 5
#     Node 16, Type 0, BuildingBlock: XOMCOT_clean_sbu_1, # of connection points: 5
#     Node 17, Type 0, BuildingBlock: XOMCOT_clean_sbu_1, # of connection points: 5
#     Edge 18, Type (0, 0), BuildingBlock: CIFDUS_clean_linker_0, # of connection points: 2
#     Edge 19, Type (0, 0), BuildingBlock: CIFDUS_clean_linker_0, # of connection points: 2
#     Edge 20, Type (0, 0), BuildingBlock: CIFDUS_clean_linker_0, # of connection points: 2
#     Edge 21, Type (0, 0), BuildingBlock: CIFDUS_clean_linker_0, # of connection points: 2
#     Edge 22, Type (0, 0), BuildingBlock: CIFDUS_clean_linker_0, # of connection points: 2
#     Edge 23, Type (0, 0), BuildingBlock: CIFDUS_clean_linker_0, # of connection points: 2
#     Edge 24, Type (0, 0), BuildingBlock: CIFDUS_clean_linker_0, # of connection points: 2
#     Edge 25, Type (0, 0), BuildingBlock: CIFDUS_clean_linker_0, # of connection points: 2
#     Edge 26, Type (0, 0), BuildingBlock: CIFDUS_clean_linker_0, # of connection points: 2
#     Edge 27, Type (0, 0), BuildingBlock: CIFDUS_clean_linker_0, # of connection points: 2
#     Edge 28, Type (0, 0), BuildingBlock: CIFDUS_clean_linker_0, # of connection points: 2
#     Edge 29, Type (0, 0), BuildingBlock: CIFDUS_clean_linker_0, # of connection points: 2
#     Edge 30, Type (0, 0), BuildingBlock: CIFDUS_clean_linker_0, # of connection points: 2
#     Edge 31, Type (0, 0), BuildingBlock: CIFDUS_clean_linker_0, # of connection points: 2
#     Edge 32, Type (0, 0), BuildingBlock: CIFDUS_clean_linker_0, # of connection points: 2
#     Edge 33, Type (0, 0), BuildingBlock: CIFDUS_clean_linker_0, # of connection points: 2
#     Edge 34, Type (0, 0), BuildingBlock: CIFDUS_clean_linker_0, # of connection points: 2
#     Edge 35, Type (0, 0), BuildingBlock: CIFDUS_clean_linker_0, # of connection points: 2
#     Edge 36, Type (0, 0), BuildingBlock: CIFDUS_clean_linker_0, # of connection points: 2
#     Edge 37, Type (0, 0), BuildingBlock: CIFDUS_clean_linker_0, # of connection points: 2
#     Edge 38, Type (0, 0), BuildingBlock: CIFDUS_clean_linker_0, # of connection points: 2
#     Edge 39, Type (0, 0), BuildingBlock: CIFDUS_clean_linker_0, # of connection points: 2
#     Edge 40, Type (0, 0), BuildingBlock: CIFDUS_clean_linker_0, # of connection points: 2
#     Edge 41, Type (0, 0), BuildingBlock: CIFDUS_clean_linker_0, # of connection points: 2
#     Edge 42, Type (0, 0), BuildingBlock: CIFDUS_clean_linker_0, # of connection points: 2
#     Edge 43, Type (0, 0), BuildingBlock: CIFDUS_clean_linker_0, # of connection points: 2
#     Edge 44, Type (0, 0), BuildingBlock: CIFDUS_clean_linker_0, # of connection points: 2
#     Edge 45, Type (0, 0), BuildingBlock: CIFDUS_clean_linker_0, # of connection points: 2
#     Edge 46, Type (0, 0), BuildingBlock: CIFDUS_clean_linker_0, # of connection points: 2
#     Edge 47, Type (0, 0), BuildingBlock: CIFDUS_clean_linker_0, # of connection points: 2
#     Edge 48, Type (0, 0), BuildingBlock: CIFDUS_clean_linker_0, # of connection points: 2
#     Edge 49, Type (0, 0), BuildingBlock: CIFDUS_clean_linker_0, # of connection points: 2
#     Edge 50, Type (0, 0), BuildingBlock: CIFDUS_clean_linker_0, # of connection points: 2
#     Edge 51, Type (0, 0), BuildingBlock: CIFDUS_clean_linker_0, # of connection points: 2
#     Edge 52, Type (0, 0), BuildingBlock: CIFDUS_clean_linker_0, # of connection points: 2
#     Edge 53, Type (0, 0), BuildingBlock: CIFDUS_clean_linker_0, # of connection points: 2
#     Edge 54, Type (0, 0), BuildingBlock: CIFDUS_clean_linker_0, # of connection points: 2
#     Edge 55, Type (0, 0), BuildingBlock: CIFDUS_clean_linker_0, # of connection points: 2
#     Edge 56, Type (0, 0), BuildingBlock: CIFDUS_clean_linker_0, # of connection points: 2
#     Edge 57, Type (0, 0), BuildingBlock: CIFDUS_clean_linker_0, # of connection points: 2
#     Edge 58, Type (0, 0), BuildingBlock: CIFDUS_clean_linker_0, # of connection points: 2
#     Edge 59, Type (0, 0), BuildingBlock: CIFDUS_clean_linker_0, # of connection points: 2
#     Edge 60, Type (0, 0), BuildingBlock: CIFDUS_clean_linker_0, # of connection points: 2
#     Edge 61, Type (0, 0), BuildingBlock: CIFDUS_clean_linker_0, # of connection points: 2
#     Edge 62, Type (0, 0), BuildingBlock: CIFDUS_clean_linker_0, # of connection points: 2
# Relax obj value: 0.345
# Max RMSD: 0.211
# Mean RMSD: 0.211
data_MOF--net-wlb--node1-XOMCOT_clean_sbu_1--edge1-CIFDUS_clean_linker_0
_symmetry_space_group_name_H-M    P1
_symmetry_Int_Tables_number       1
_symmetry_cell_setting            triclinic
loop_
_symmetry_equiv_pos_as_xyz
'x, y, z'
_cell_length_a     46.069433
_cell_length_b     46.022646
_cell_length_c     35.685065
_cell_angle_alpha  90.073304
_cell_angle_beta   90.065214
_cell_angle_gamma 119.96139
loop_
_atom_site_label
_atom_site_type_symbol
_atom_site_fract_x
_atom_site_fract_y
_atom_site_fract_z
_atom_type_partial_charge
C0 C 0.12837 0.20586 0.20697 0.0
C1 C 0.14252 0.18583 0.21105 0.0
N2 N 0.12234 0.15967 0.23301 0.0
N3 N 0.09943 0.19239 0.22631 0.0
C4 C 0.09651 0.16432 0.242 0.0
H5 H 0.13841 0.22871 0.1908 0.0
Co6 Co 0.07172 0.21091 0.23015 0.0
C7 C 1.00402 0.15457 0.24841 0.0
O8 O 0.99141 0.16995 0.22908 0.0
N9 N 0.04426 0.2307 0.23538 0.0
C10 C 1.01393 0.24909 0.26502 0.0
C11 C 0.03179 0.23279 0.26894 0.0
C12 C 0.0337 0.24642 0.21148 0.0
N13 N 1.01502 0.25764 0.22882 0.0
O14 O 0.09139 0.22984 0.27762 0.0
H15 H 0.03518 0.22273 0.29489 0.0
H16 H 0.03903 0.24929 0.18188 0.0
O17 O 0.03591 0.16848 0.25233 0.0
C18 C 0.11409 0.25993 0.27029 0.0
O19 O 0.12042 0.26881 0.23493 0.0
N20 N 0.0564 0.19594 0.18137 0.0
C21 C 0.04626 0.18244 0.10482 0.0
C22 C 0.03161 0.15632 0.13098 0.0
C23 C 0.03779 0.1635 0.16923 0.0
C24 C 0.07192 0.22129 0.15613 0.0
C25 C 0.06687 0.21522 0.11779 0.0
H26 H 0.02872 0.14282 0.18855 0.0
H27 H 0.08867 0.24651 0.16596 0.0
H28 H 0.07629 0.14785 0.26026 0.0
H29 H 0.16546 0.18976 0.19814 0.0
H30 H 1.00145 0.25453 0.28732 0.0
H31 H 0.01653 0.13051 0.12186 0.0
H32 H 0.07896 0.23606 0.09848 0.0
C33 C 0.81982 0.92574 0.19238 0.0
C34 C 0.83602 0.9599 0.19682 0.0
N35 N 0.85976 0.96857 0.22337 0.0
N36 N 0.83319 0.91278 0.21599 0.0
C37 C 0.8577 0.93952 0.2345 0.0
H38 H 0.79901 0.9111 0.17371 0.0
Co39 Co 0.81531 0.86689 0.22134 0.0
C40 C 0.86979 0.85567 0.24729 0.0
O41 O 0.8562 0.8283 0.22674 0.0
N42 N 0.79535 0.81978 0.22761 0.0
C43 C 0.77497 0.77098 0.25753 0.0
C44 C 0.79259 0.80521 0.26131 0.0
C45 C 0.77826 0.79355 0.20397 0.0
N46 N 0.76586 0.76356 0.22138 0.0
O47 O 0.79359 0.86785 0.26633 0.0
H48 H 0.803 0.81874 0.28719 0.0
H49 H 0.77399 0.7961 0.17479 0.0
O50 O 0.85638 0.87431 0.24826 0.0
C51 C 0.76369 0.85967 0.25697 0.0
O52 O 0.75625 0.85684 0.22109 0.0
N53 N 0.83353 0.86604 0.17471 0.0
C54 C 0.8525 0.86605 0.10075 0.0
C55 C 0.8766 0.87862 0.12929 0.0
C56 C 0.86669 0.87941 0.16608 0.0
C57 C 0.81023 0.85573 0.14684 0.0
C58 C 0.81904 0.85505 0.10971 0.0
H59 H 0.88587 0.89173 0.18701 0.0
H60 H 0.78454 0.84815 0.15357 0.0
H61 H 0.87281 0.9377 0.25661 0.0
H62 H 0.83062 0.9771 0.18182 0.0
H63 H 0.7697 0.75306 0.27976 0.0
H64 H 0.90291 0.88863 0.12303 0.0
H65 H 0.79981 0.84581 0.08824 0.0
C66 C 0.09586 0.89888 0.21582 0.0
C67 C 0.06256 0.8874 0.22287 0.0
N68 N 0.05931 0.91337 0.23494 0.0
N69 N 0.11367 0.93191 0.22357 0.0
C70 C 0.09065 0.94014 0.23493 0.0
H71 H 0.10651 0.88404 0.2058 0.0
Co72 Co 0.16012 0.95656 0.22012 0.0
C73 C 0.1811 0.02705 0.23917 0.0
O74 O 0.20517 0.03611 0.21443 0.0
N75 N 0.20768 0.98057 0.21774 0.0
C76 C 0.26008 1.0098 0.23899 0.0
C77 C 0.22692 0.9939 0.24863 0.0
C78 C 0.23015 0.98821 0.18968 0.0
N79 N 0.26223 1.00631 0.20182 0.0
O80 O 0.16373 0.93787 0.26676 0.0
H81 H 0.21739 0.99314 0.27651 0.0
H82 H 0.22343 0.98083 0.1609 0.0
O83 O 0.16073 0.99573 0.2451 0.0
C84 C 0.17074 0.91477 0.25995 0.0
O85 O 0.17121 0.90641 0.22481 0.0
N86 N 0.15579 0.97137 0.17245 0.0
C87 C 0.1524 0.98837 0.09832 0.0
C88 C 0.14371 1.00279 0.12769 0.0
C89 C 0.14461 0.99319 0.1646 0.0
C90 C 0.16098 0.9547 0.14406 0.0
C91 C 0.16004 0.96321 0.10675 0.0
H92 H 0.13607 1.00324 0.18649 0.0
H93 H 0.16707 0.93541 0.15057 0.0
H94 H 0.09664 0.96499 0.24364 0.0
H95 H 0.0422 0.86198 0.21886 0.0
H96 H 0.28087 0.02389 0.2579 0.0
H97 H 0.13612 0.02119 0.12216 0.0
H98 H 0.16631 0.95096 0.08486 0.0
C99 C 0.20437 0.11962 0.7839 0.0
C100 C 0.18497 0.13452 0.78069 0.0
N101 N 0.15903 0.11551 0.75777 0.0
N102 N 0.19078 0.09142 0.76305 0.0
C103 C 0.1632 0.08964 0.74736 0.0
H104 H 0.22688 0.12863 0.80057 0.0
Co105 Co 0.20895 0.0635 0.75839 0.0
C106 C 0.15394 0.99747 0.73164 0.0
O107 O 0.16854 0.98323 0.74941 0.0
N108 N 0.22882 0.0362 0.75275 0.0
C109 C 0.25043 1.00859 0.72334 0.0
C110 C 0.23387 0.02618 0.71892 0.0
C111 C 0.243 0.0245 0.77729 0.0
N112 N 0.25617 1.00747 0.76013 0.0
O113 O 0.23116 0.08619 0.71327 0.0
H114 H 0.22589 0.03126 0.69243 0.0
H115 H 0.24362 0.02806 0.80717 0.0
O116 O 0.16798 0.02961 0.73142 0.0
C117 C 0.26117 0.1078 0.72253 0.0
O118 O 0.26862 0.11247 0.75841 0.0
N119 N 0.1903 0.0446 0.8051 0.0
C120 C 0.17073 0.02451 0.87885 0.0
C121 C 0.14695 0.01306 0.84991 0.0
C122 C 0.15713 0.02424 0.8133 0.0
C123 C 0.21323 0.05774 0.83334 0.0
C124 C 0.20415 0.04767 0.87034 0.0
H125 H 0.13807 0.01718 0.79215 0.0
H126 H 0.23899 0.07592 0.82691 0.0
H127 H 0.14678 0.07027 0.72812 0.0
H128 H 0.18915 0.15714 0.79479 0.0
H129 H 0.25812 0.99801 0.701 0.0
H130 H 0.12065 0.99631 0.85571 0.0
H131 H 0.22322 0.05757 0.89198 0.0
C132 C 0.90475 0.09443 0.78216 0.0
C133 C 0.8929 0.06094 0.77541 0.0
N134 N 0.91683 0.05785 0.75728 0.0
N135 N 0.93593 0.11245 0.76814 0.0
C136 C 0.94275 0.08941 0.7533 0.0
H137 H 0.89132 0.10507 0.79601 0.0
Co138 Co 0.9598 0.15913 0.7682 0.0
C139 C 0.03026 0.17993 0.75045 0.0
O140 O 0.03928 0.20589 0.77257 0.0
N141 N 0.98311 0.2069 0.76706 0.0
C142 C 1.00874 0.25786 0.74132 0.0
C143 C 0.99422 0.22415 0.73455 0.0
C144 C 0.99153 0.23117 0.79335 0.0
N145 N 1.00711 0.26227 0.77828 0.0
O146 O 0.94045 0.15919 0.7207 0.0
H147 H 0.99247 0.21296 0.70738 0.0
H148 H 0.98644 0.22655 0.82291 0.0
O149 O 0.99902 0.15893 0.74531 0.0
C150 C 0.91627 0.16448 0.72779 0.0
O151 O 0.90827 0.16489 0.76305 0.0
N152 N 0.97464 0.15811 0.81677 0.0
C153 C 0.98478 0.15239 0.89276 0.0
C154 C 1.00214 0.14502 0.8656 0.0
C155 C 0.996 0.14713 0.82758 0.0
C156 C 0.95644 0.16373 0.84286 0.0
C157 C 0.9614 0.16147 0.88099 0.0
H158 H 1.0076 0.13883 0.80727 0.0
H159 H 0.93786 0.17005 0.83385 0.0
H160 H 0.96569 0.0955 0.73885 0.0
H161 H 0.86863 0.04037 0.78342 0.0
H162 H 0.02045 0.27769 0.72077 0.0
H163 H 0.01951 0.13674 0.87368 0.0
H164 H 0.94723 0.16705 0.90107 0.0
C165 C 0.92501 0.81818 0.7897 0.0
C166 C 0.95906 0.83402 0.78482 0.0
N167 N 0.96747 0.85694 0.75743 0.0
N168 N 0.91189 0.83099 0.76553 0.0
C169 C 0.93841 0.85478 0.74622 0.0
H170 H 0.91052 0.79789 0.80894 0.0
Co171 Co 0.86605 0.81299 0.75995 0.0
C172 C 0.85469 0.86774 0.73559 0.0
O173 O 0.8274 0.85359 0.75608 0.0
N174 N 0.81895 0.79289 0.75333 0.0
C175 C 0.7704 0.77298 0.72287 0.0
C176 C 0.80462 0.79059 0.71955 0.0
C177 C 0.79258 0.77552 0.77655 0.0
N178 N 0.76272 0.7634 0.75881 0.0
O179 O 0.86725 0.79162 0.71466 0.0
H180 H 0.81831 0.80136 0.69392 0.0
H181 H 0.79493 0.77092 0.80566 0.0
O182 O 0.87336 0.85438 0.73374 0.0
C183 C 0.85954 0.76183 0.72397 0.0
O184 O 0.85653 0.75439 0.75984 0.0
N185 N 0.86511 0.83092 0.80688 0.0
C186 C 0.86579 0.85014 0.88096 0.0
C187 C 0.87889 0.87426 0.85256 0.0
C188 C 0.87935 0.86419 0.81575 0.0
C189 C 0.85428 0.80754 0.83462 0.0
C190 C 0.85391 0.81648 0.87182 0.0
H191 H 0.89219 0.88335 0.79498 0.0
H192 H 0.84626 0.78171 0.82779 0.0
H193 H 0.93638 0.86915 0.72342 0.0
H194 H 0.97635 0.82884 0.79997 0.0
H195 H 0.75268 0.7681 0.70049 0.0
H196 H 0.88963 0.90068 0.85897 0.0
H197 H 0.84432 0.79723 0.8932 0.0
C198 C 0.79864 0.54356 0.5492 0.0
C199 C 0.81339 0.52445 0.55649 0.0
N200 N 0.79179 0.49764 0.57662 0.0
N201 N 0.76718 0.5283 0.56323 0.0
C202 C 0.76497 0.50154 0.58187 0.0
H203 H 0.81055 0.56739 0.53485 0.0
Co204 Co 0.73608 0.54453 0.56195 0.0
C205 C 0.68977 0.47196 0.56878 0.0
O206 O 0.70586 0.46794 0.54064 0.0
N207 N 0.70631 0.56116 0.56308 0.0
C208 C 0.66688 0.57116 0.58434 0.0
C209 C 0.68439 0.55485 0.59115 0.0
C210 C 0.70195 0.58177 0.53961 0.0
N211 N 0.67788 0.58819 0.55193 0.0
O212 O 0.75213 0.56411 0.61003 0.0
H213 H 0.68137 0.53939 0.61526 0.0
H214 H 0.71628 0.59193 0.51419 0.0
O215 O 0.69983 0.50136 0.58223 0.0
C216 C 0.77433 0.5942 0.60192 0.0
O217 O 0.78109 0.60202 0.56633 0.0
N218 N 0.72228 0.5292 0.51225 0.0
C219 C 0.70423 0.51293 0.43737 0.0
C220 C 0.73794 0.53131 0.44778 0.0
C221 C 0.74635 0.53996 0.48523 0.0
C222 C 0.68913 0.51235 0.50217 0.0
C223 C 0.67959 0.50369 0.46489 0.0
H224 H 0.77216 0.55664 0.49206 0.0
H225 H 0.66979 0.50594 0.5229 0.0
H226 H 0.74443 0.48518 0.59982 0.0
H227 H 0.83773 0.52944 0.54684 0.0
H228 H 0.64709 0.56999 0.60172 0.0
H229 H 0.75759 0.54025 0.4269 0.0
H230 H 0.65323 0.49024 0.45759 0.0
C231 C 0.4875 0.25279 0.54057 0.0
C232 C 0.50874 0.28691 0.54462 0.0
N233 N 0.53244 0.29169 0.56991 0.0
N234 N 0.49802 0.23636 0.56308 0.0
C235 C 0.52499 0.26077 0.58103 0.0
H236 H 0.46672 0.24071 0.52118 0.0
Co237 Co 0.48087 0.19025 0.5657 0.0
C238 C 0.53868 0.1814 0.58594 0.0
O239 O 0.52539 0.15458 0.56448 0.0
N240 N 0.46244 0.14314 0.56983 0.0
C241 C 0.44613 0.09429 0.59823 0.0
C242 C 0.46233 0.12843 0.60263 0.0
C243 C 0.44508 0.11698 0.54617 0.0
N244 N 0.43517 0.08695 0.56261 0.0
O245 O 0.45914 0.18901 0.61185 0.0
H246 H 0.47368 0.14183 0.62833 0.0
H247 H 0.43888 0.11952 0.51776 0.0
O248 O 0.52295 0.19764 0.59066 0.0
C249 C 0.42944 0.18176 0.60257 0.0
O250 O 0.42216 0.17954 0.56667 0.0
N251 N 0.49909 0.19188 0.518 0.0
C252 C 0.51928 0.19629 0.44333 0.0
C253 C 0.54303 0.21138 0.47212 0.0
C254 C 0.5324 0.20948 0.50918 0.0
C255 C 0.4758 0.1796 0.4901 0.0
C256 C 0.4852 0.18049 0.45283 0.0
H257 H 0.55103 0.22336 0.5303 0.0
H258 H 0.44962 0.16946 0.49678 0.0
H259 H 0.53977 0.25621 0.60112 0.0
H260 H 0.5082 0.30649 0.52838 0.0
H261 H 0.44313 0.07643 0.6197 0.0
H262 H 0.56958 0.22546 0.46604 0.0
H263 H 0.46577 0.16891 0.43176 0.0
C264 C 0.77034 0.23632 0.53253 0.0
C265 C 0.73636 0.21788 0.53727 0.0
N266 N 0.72748 0.23252 0.56412 0.0
N267 N 0.7832 0.26276 0.55607 0.0
C268 C 0.7564 0.25995 0.57504 0.0
H269 H 0.78499 0.23031 0.51374 0.0
Co270 Co 0.82949 0.29077 0.56005 0.0
C271 C 0.843 0.359 0.57547 0.0
O272 O 0.86771 0.36858 0.55146 0.0
N273 N 0.87692 0.31792 0.56514 0.0
C274 C 0.92553 0.34948 0.59454 0.0
C275 C 0.89137 0.33263 0.59807 0.0
C276 C 0.9033 0.32574 0.54222 0.0
N277 N 0.93321 0.34517 0.55935 0.0
O278 O 0.82902 0.27144 0.60761 0.0
H279 H 0.87777 0.33151 0.62322 0.0
H280 H 0.90094 0.31702 0.51376 0.0
O281 O 0.82383 0.32758 0.58234 0.0
C282 C 0.83617 0.24857 0.60003 0.0
O283 O 0.83838 0.24212 0.56458 0.0
N284 N 0.82958 0.30579 0.51121 0.0
C285 C 0.82402 0.31445 0.43484 0.0
C286 C 0.81155 0.32802 0.46122 0.0
C287 C 0.81366 0.32251 0.4994 0.0
C288 C 0.84044 0.29131 0.48574 0.0
C289 C 0.83841 0.29573 0.44748 0.0
H290 H 0.80128 0.33053 0.51907 0.0
H291 H 0.84969 0.27513 0.49523 0.0
H292 H 0.75818 0.27672 0.59736 0.0
H293 H 0.71942 0.19508 0.52238 0.0
H294 H 0.9432 0.36424 0.61626 0.0
H295 H 0.79915 0.34159 0.45234 0.0
H296 H 0.84781 0.28434 0.42795 0.0
C297 C 0.87649 0.45511 0.10491 0.0
C298 C 0.85223 0.46409 0.10182 0.0
N299 N 0.82286 0.43634 0.09391 0.0
N300 N 0.86261 0.42188 0.09876 0.0
C301 C 0.82986 0.41114 0.09235 0.0
H302 H 0.90257 0.47178 0.1116 0.0
Co303 Co 0.886 0.3985 0.09929 0.0
C304 C 0.8378 0.32773 0.07927 0.0
O305 O 0.85453 0.319 0.10205 0.0
N306 N 0.91107 0.37585 0.09878 0.0
C307 C 0.93787 0.35145 0.07363 0.0
C308 C 0.91796 0.36507 0.06645 0.0
C309 C 0.92721 0.36819 0.12541 0.0
N310 N 0.94364 0.35337 0.11068 0.0
O311 O 0.90634 0.41858 0.05262 0.0
H312 H 0.90869 0.36658 0.03909 0.0
H313 H 0.92738 0.37349 0.15491 0.0
O314 O 0.84745 0.35897 0.07474 0.0
C315 C 0.93566 0.44248 0.0608 0.0
O316 O 0.94342 0.44956 0.09639 0.0
N317 N 0.86919 0.38291 0.14718 0.0
C318 C 0.85198 0.37296 0.2227 0.0
C319 C 0.82812 0.3544 0.1951 0.0
C320 C 0.83702 0.36037 0.15728 0.0
C321 C 0.89217 0.40198 0.17369 0.0
C322 C 0.88426 0.39719 0.21161 0.0
H323 H 0.81765 0.3477 0.13656 0.0
H324 H 0.91691 0.42123 0.16516 0.0
H325 H 0.81143 0.38537 0.08672 0.0
H326 H 0.85577 0.48894 0.10613 0.0
H327 H 0.94678 0.34026 0.05328 0.0
H328 H 0.80262 0.33619 0.20267 0.0
H329 H 0.90336 0.41217 0.23207 0.0
C330 C 0.56734 0.42765 0.12108 0.0
C331 C 0.55428 0.39474 0.11002 0.0
N332 N 0.56981 0.39409 0.07837 0.0
N333 N 0.59166 0.4479 0.09691 0.0
C334 C 0.59089 0.42662 0.07015 0.0
H335 H 0.56049 0.4354 0.14646 0.0
Co336 Co 0.62466 0.49436 0.09685 0.0
C337 C 0.66423 0.45995 0.09302 0.0
O338 O 0.64474 0.43981 0.11947 0.0
N339 N 0.65699 0.53967 0.09454 0.0
C340 C 0.69971 0.58697 0.07327 0.0
C341 C 0.68061 0.55306 0.06767 0.0
C342 C 0.66197 0.56597 0.11605 0.0
N343 N 0.68799 0.5952 0.10366 0.0
O344 O 0.61114 0.49755 0.04732 0.0
H345 H 0.68361 0.53907 0.04512 0.0
H346 H 0.64654 0.56372 0.13994 0.0
O347 O 0.65891 0.48293 0.08017 0.0
C348 C 0.58929 0.50629 0.0539 0.0
O349 O 0.5811 0.50726 0.08898 0.0
N350 N 0.63575 0.49396 0.14731 0.0
C351 C 0.64826 0.50107 0.22419 0.0
C352 C 0.67357 0.5059 0.19887 0.0
C353 C 0.66704 0.503 0.16044 0.0
C354 C 0.61186 0.49183 0.17136 0.0
C355 C 0.61712 0.4942 0.2099 0.0
H356 H 0.68756 0.50947 0.1414 0.0
H357 H 0.58886 0.48938 0.16048 0.0
H358 H 0.60798 0.43471 0.04665 0.0
H359 H 0.53715 0.37292 0.12612 0.0
H360 H 0.72091 0.60414 0.05643 0.0
H361 H 0.69859 0.51315 0.20852 0.0
H362 H 0.59706 0.49112 0.22821 0.0
C363 C 0.60641 0.15421 0.11474 0.0
C364 C 0.64008 0.17135 0.1066 0.0
N365 N 0.64597 0.19633 0.0828 0.0
N366 N 0.59099 0.16886 0.09729 0.0
C367 C 0.61572 0.19333 0.07641 0.0
H368 H 0.59405 0.13194 0.1318 0.0
Co369 Co 0.54425 0.15339 0.09908 0.0
C370 C 0.57006 0.22542 0.08121 0.0
O371 O 0.59293 0.23409 0.10753 0.0
N372 N 0.49834 0.13707 0.09957 0.0
C373 C 0.44716 0.12537 0.08334 0.0
C374 C 0.48039 0.14261 0.0736 0.0
C375 C 0.47555 0.11604 0.12449 0.0
N376 N 0.44404 0.10852 0.11537 0.0
O377 O 0.53899 0.13064 0.05267 0.0
H378 H 0.49072 0.158 0.04893 0.0
H379 H 0.4821 0.10617 0.14853 0.0
O380 O 0.55015 0.19435 0.07401 0.0
C381 C 0.52971 0.10014 0.06051 0.0
O382 O 0.52843 0.09189 0.09597 0.0
N383 N 0.54735 0.17234 0.14723 0.0
C384 C 0.541 0.18791 0.22173 0.0
C385 C 0.53234 0.20189 0.19182 0.0
C386 C 0.53462 0.19292 0.15502 0.0
C387 C 0.55535 0.15815 0.176 0.0
C388 C 0.55278 0.16583 0.21327 0.0
H389 H 0.52429 0.20115 0.13312 0.0
H390 H 0.56126 0.13872 0.1705 0.0
H391 H 0.61188 0.20848 0.05614 0.0
H392 H 0.65888 0.16631 0.11809 0.0
H393 H 0.42701 0.12566 0.06809 0.0
H394 H 0.52266 0.21869 0.19665 0.0
H395 H 0.5581 0.15292 0.2352 0.0
C396 C 0.46081 0.87953 0.88471 0.0
C397 C 0.47063 0.85572 0.88686 0.0
N398 N 0.44371 0.82629 0.89644 0.0
N399 N 0.42794 0.86507 0.89306 0.0
C400 C 0.41842 0.83275 0.90028 0.0
H401 H 0.4764 0.90547 0.87667 0.0
Co402 Co 0.40131 0.88493 0.89264 0.0
C403 C 0.33262 0.82934 0.90813 0.0
O404 O 0.32136 0.84433 0.886 0.0
N405 N 0.37465 0.90568 0.89356 0.0
C406 C 0.34466 0.92642 0.91914 0.0
C407 C 0.36079 0.90871 0.92569 0.0
C408 C 0.36638 0.9219 0.86773 0.0
N409 N 0.34817 0.93465 0.88269 0.0
O410 O 0.41963 0.90543 0.94015 0.0
H411 H 0.36219 0.89848 0.95246 0.0
H412 H 0.37387 0.92508 0.83871 0.0
O413 O 0.364 0.84395 0.91573 0.0
C414 C 0.44232 0.93551 0.93275 0.0
O415 O 0.44925 0.94404 0.89735 0.0
N416 N 0.3874 0.86817 0.84376 0.0
C417 C 0.37724 0.85144 0.76784 0.0
C418 C 0.36258 0.8265 0.79526 0.0
C419 C 0.36887 0.83528 0.83311 0.0
C420 C 0.40349 0.89232 0.81732 0.0
C421 C 0.39841 0.88465 0.77921 0.0
H422 H 0.3598 0.81536 0.85336 0.0
H423 H 0.42053 0.91785 0.82598 0.0
H424 H 0.39321 0.81385 0.90759 0.0
H425 H 0.4952 0.85943 0.88035 0.0
H426 H 0.33097 0.93236 0.93948 0.0
H427 H 0.34726 0.80036 0.78748 0.0
H428 H 0.41073 0.90458 0.75886 0.0
C429 C 0.15107 0.59026 0.88485 0.0
C430 C 0.16893 0.62442 0.88227 0.0
N431 N 0.20071 0.63499 0.89284 0.0
N432 N 0.17117 0.57883 0.89718 0.0
C433 C 0.20157 0.60683 0.90197 0.0
H434 H 0.12517 0.57461 0.87683 0.0
Co435 Co 0.15362 0.53252 0.90056 0.0
C436 C 0.20751 0.51873 0.91924 0.0
O437 O 0.19308 0.4942 0.89478 0.0
N438 N 0.13377 0.485 0.90478 0.0
C439 C 0.11483 0.43585 0.93354 0.0
C440 C 0.1314 0.46995 0.93808 0.0
C441 C 0.11787 0.45906 0.88041 0.0
N442 N 0.10635 0.42889 0.8972 0.0
O443 O 0.13276 0.5321 0.94717 0.0
H444 H 0.14128 0.48306 0.96429 0.0
H445 H 0.11498 0.46199 0.85091 0.0
O446 O 0.19543 0.53827 0.92501 0.0
C447 C 0.10218 0.52179 0.93844 0.0
O448 O 0.09369 0.51612 0.90287 0.0
N449 N 0.17036 0.53337 0.85261 0.0
C450 C 0.18676 0.53802 0.77713 0.0
C451 C 0.21192 0.54949 0.80446 0.0
C452 C 0.20327 0.54802 0.8422 0.0
C453 C 0.14596 0.52377 0.8261 0.0
C454 C 0.15353 0.52553 0.78816 0.0
H455 H 0.22315 0.55953 0.86261 0.0
H456 H 0.12038 0.51495 0.83458 0.0
H457 H 0.22405 0.60651 0.91011 0.0
H458 H 0.15953 0.64035 0.87214 0.0
H459 H 0.10906 0.41764 0.95556 0.0
H460 H 0.23801 0.5604 0.79662 0.0
H461 H 0.13356 0.51703 0.76763 0.0
C462 C 0.42824 0.56332 0.86378 0.0
C463 C 0.39528 0.54828 0.87516 0.0
N464 N 0.39346 0.56523 0.90491 0.0
N465 N 0.44717 0.59033 0.88568 0.0
C466 C 0.42524 0.58947 0.91163 0.0
H467 H 0.43709 0.55514 0.84036 0.0
Co468 Co 0.49348 0.62364 0.88408 0.0
C469 C 0.45974 0.66342 0.89307 0.0
O470 O 0.43834 0.64447 0.86708 0.0
N471 N 0.53878 0.65621 0.8848 0.0
C472 C 0.58663 0.69847 0.90588 0.0
C473 C 0.55286 0.67966 0.91191 0.0
C474 C 0.56462 0.66104 0.86265 0.0
N475 N 0.59419 0.68673 0.87501 0.0
O476 O 0.49865 0.60969 0.93249 0.0
H477 H 0.53952 0.68252 0.93522 0.0
H478 H 0.56187 0.6455 0.83861 0.0
O479 O 0.48285 0.65747 0.90373 0.0
C480 C 0.50809 0.58849 0.92517 0.0
O481 O 0.50923 0.5809 0.88986 0.0
N482 N 0.49067 0.63534 0.83425 0.0
C483 C 0.48915 0.64746 0.75782 0.0
C484 C 0.49561 0.6725 0.78443 0.0
C485 C 0.49765 0.66638 0.82235 0.0
C486 C 0.48734 0.6119 0.80867 0.0
C487 C 0.48587 0.61711 0.77044 0.0
H488 H 0.50536 0.68687 0.84188 0.0
H489 H 0.48708 0.58945 0.8179 0.0
H490 H 0.43204 0.60752 0.93413 0.0
H491 H 0.37401 0.52786 0.86111 0.0
H492 H 0.60424 0.71931 0.92299 0.0
H493 H 0.49943 0.6968 0.77622 0.0
H494 H 0.48326 0.59788 0.75097 0.0
C495 C 0.545 0.7859 0.42114 0.0
C496 C 0.52289 0.79769 0.41828 0.0
N497 N 0.49176 0.77124 0.41436 0.0
N498 N 0.52801 0.75215 0.41871 0.0
C499 C 0.49556 0.744 0.41509 0.0
H500 H 0.57182 0.80113 0.42449 0.0
Co501 Co 0.54738 0.72475 0.41801 0.0
C502 C 0.4919 0.6559 0.40245 0.0
O503 O 0.50734 0.6451 0.42452 0.0
N504 N 0.56799 0.69765 0.41601 0.0
C505 C 0.58668 0.66611 0.38986 0.0
C506 C 0.56898 0.68237 0.38405 0.0
C507 C 0.58611 0.69071 0.44073 0.0
N508 N 0.59762 0.67136 0.42557 0.0
O509 O 0.56687 0.74274 0.37012 0.0
H510 H 0.55715 0.68273 0.35799 0.0
H511 H 0.5915 0.70013 0.46904 0.0
O512 O 0.50538 0.68748 0.39608 0.0
C513 C 0.59698 0.76491 0.37841 0.0
O514 O 0.60531 0.77021 0.41404 0.0
N515 N 0.53227 0.71143 0.46698 0.0
C516 C 0.52002 0.70441 0.54386 0.0
C517 C 0.49353 0.68836 0.51813 0.0
C518 C 0.50012 0.69267 0.47966 0.0
C519 C 0.55781 0.72857 0.49163 0.0
C520 C 0.55248 0.7248 0.53003 0.0
H521 H 0.47919 0.68189 0.46053 0.0
H522 H 0.58272 0.74542 0.48129 0.0
H523 H 0.47505 0.71867 0.41262 0.0
H524 H 0.52923 0.82371 0.41944 0.0
H525 H 0.59062 0.65112 0.36932 0.0
H526 H 0.46789 0.67339 0.52759 0.0
H527 H 0.57378 0.73775 0.54864 0.0
C528 C 0.2246 0.76297 0.43538 0.0
C529 C 0.20641 0.72873 0.43402 0.0
N530 N 0.22765 0.71663 0.43111 0.0
N531 N 0.25739 0.77306 0.43277 0.0
C532 C 0.25863 0.74426 0.4302 0.0
H533 H 0.21439 0.77951 0.43801 0.0
Co534 Co 0.28959 0.81847 0.43237 0.0
C535 C 0.35457 0.82346 0.41624 0.0
O536 O 0.36769 0.84783 0.44103 0.0
N537 N 0.32142 0.86501 0.4307 0.0
C538 C 0.35762 0.91387 0.40483 0.0
C539 C 0.33844 0.88004 0.39911 0.0
C540 C 0.33016 0.89072 0.45504 0.0
N541 N 0.35235 0.92077 0.44001 0.0
O542 O 0.27309 0.82325 0.38441 0.0
H543 H 0.33696 0.86707 0.37325 0.0
H544 H 0.31967 0.8878 0.4827 0.0
O545 O 0.32293 0.80815 0.4096 0.0
C546 C 0.25525 0.83686 0.39122 0.0
O547 O 0.25165 0.84308 0.42636 0.0
N548 N 0.30189 0.81421 0.48137 0.0
C549 C 0.31147 0.81016 0.55783 0.0
C550 C 0.3246 0.79705 0.53172 0.0
C551 C 0.31854 0.79831 0.49348 0.0
C552 C 0.28724 0.82504 0.50665 0.0
C553 C 0.29196 0.8236 0.545 0.0
H554 H 0.3268 0.78602 0.47406 0.0
H555 H 0.2718 0.83507 0.49684 0.0
H556 H 0.28172 0.7436 0.42826 0.0
H557 H 0.17936 0.71407 0.43482 0.0
H558 H 0.37424 0.93186 0.38447 0.0
H559 H 0.33878 0.78536 0.54085 0.0
H560 H 0.28091 0.83343 0.56441 0.0
C561 C 0.26475 0.47324 0.46643 0.0
C562 C 0.29856 0.48807 0.46044 0.0
N563 N 0.30724 0.51175 0.43382 0.0
N564 N 0.25195 0.48755 0.44398 0.0
C565 C 0.27843 0.51107 0.42437 0.0
H566 H 0.25022 0.45293 0.48563 0.0
Co567 Co 0.20627 0.47214 0.44154 0.0
C568 C 0.19814 0.5308 0.43166 0.0
O569 O 0.17357 0.51555 0.45584 0.0
N570 N 0.15917 0.45489 0.43768 0.0
C571 C 0.11111 0.44228 0.40941 0.0
C572 C 0.14521 0.45791 0.40565 0.0
C573 C 0.13251 0.43637 0.46026 0.0
N574 N 0.10295 0.42857 0.4438 0.0
O575 O 0.20452 0.45362 0.39305 0.0
H576 H 0.15912 0.47107 0.38095 0.0
H577 H 0.13437 0.42802 0.48787 0.0
O578 O 0.21477 0.51647 0.42153 0.0
C579 C 0.19619 0.42318 0.39999 0.0
O580 O 0.19407 0.4141 0.43526 0.0
N581 N 0.2083 0.4866 0.49122 0.0
C582 C 0.21433 0.50071 0.56758 0.0
C583 C 0.22951 0.52671 0.54147 0.0
C584 C 0.22722 0.51903 0.50335 0.0
C585 C 0.19541 0.46106 0.5165 0.0
C586 C 0.19765 0.4675 0.55484 0.0
H587 H 0.24147 0.53913 0.4839 0.0
H588 H 0.18416 0.43542 0.50683 0.0
H589 H 0.27648 0.5266 0.40291 0.0
H590 H 0.3155 0.48191 0.47477 0.0
H591 H 0.09384 0.44162 0.38842 0.0
H592 H 0.24385 0.55261 0.55053 0.0
H593 H 0.18643 0.44673 0.57432 0.0
H594 H 0.92883 0.32173 0.17709 0.0
H595 H 1.00011 0.3557 0.08667 0.0
H596 H 0.02928 0.32936 0.11572 0.0
H597 H 0.03339 0.29517 0.16584 0.0
H598 H 0.96035 0.25888 0.25487 0.0
H599 H 0.93338 0.28792 0.22778 0.0
C600 C 0.95104 0.32373 0.16418 0.0
C601 C 0.96236 0.34056 0.12988 0.0
C602 C 0.96729 0.30798 0.18071 0.0
C603 C 0.99086 0.34261 0.11298 0.0
C604 C 1.00752 0.32757 0.12957 0.0
C605 C 1.01144 0.29335 0.17919 0.0
C606 C 0.99907 0.27481 0.21242 0.0
C607 C 0.99567 0.30977 0.16316 0.0
C608 C 0.97083 0.2733 0.22959 0.0
C609 C 0.9552 0.28978 0.214 0.0
H610 H 0.68444 0.61127 0.1758 0.0
H611 H 0.72191 0.65426 0.06687 0.0
H612 H 0.74905 0.71035 0.09376 0.0
H613 H 0.76444 0.7471 0.14839 0.0
H614 H 0.72501 0.70484 0.25712 0.0
H615 H 0.69649 0.64873 0.23007 0.0
C616 C 0.6981 0.6329 0.15786 0.0
C617 C 0.70144 0.62837 0.11942 0.0
C618 C 0.71359 0.66531 0.17348 0.0
C619 C 0.71951 0.65682 0.09667 0.0
C620 C 0.73493 0.68901 0.11198 0.0
C621 C 0.74922 0.72581 0.1662 0.0
C622 C 0.74729 0.73049 0.2049 0.0
C623 C 0.73252 0.69354 0.15042 0.0
C624 C 0.72765 0.70221 0.2274 0.0
C625 C 0.71107 0.66999 0.2119 0.0
H626 H 0.38078 0.07845 0.08812 0.0
H627 H 0.43802 0.09109 0.18888 0.0
H628 H 0.38639 0.05781 0.22378 0.0
H629 H 0.32522 0.02754 0.22645 0.0
H630 H 0.26804 0.01922 0.12693 0.0
H631 H 0.31956 0.04816 0.09081 0.0
C632 C 0.38213 0.07427 0.11776 0.0
C633 C 0.41349 0.08761 0.13572 0.0
C634 C 0.3523 0.05577 0.13794 0.0
C635 C 0.41444 0.081 0.17405 0.0
C636 C 0.38485 0.06211 0.19417 0.0
C637 C 0.32385 0.03221 0.19695 0.0
C638 C 0.29253 0.0213 0.17973 0.0
C639 C 0.35366 0.04976 0.1765 0.0
C640 C 0.29154 0.02692 0.14111 0.0
C641 C 0.3211 0.04377 0.12039 0.0
H642 H 0.28713 0.02184 0.82759 0.0
H643 H 0.26342 0.95682 0.73134 0.0
H644 H 0.29206 0.93 0.75982 0.0
H645 H 0.32217 0.92343 0.81325 0.0
H646 H 0.34315 0.98634 0.9106 0.0
H647 H 0.31685 0.01523 0.8808 0.0
C648 C 0.28785 1.00161 0.81292 0.0
C649 C 0.27304 0.99152 0.77727 0.0
C650 C 0.30388 0.98581 0.82974 0.0
C651 C 0.27493 0.96557 0.75853 0.0
C652 C 0.29117 0.95 0.77491 0.0
C653 C 0.32129 0.94374 0.82762 0.0
C654 C 0.33452 0.95281 0.86397 0.0
C655 C 0.30564 0.95983 0.81055 0.0
C656 C 0.33283 0.9788 0.88269 0.0
C657 C 0.31787 0.99533 0.86565 0.0
H658 H 0.06957 0.41093 0.83341 0.0
H659 H 0.10344 0.37205 0.92295 0.0
H660 H 0.07328 0.31622 0.89555 0.0
H661 H 0.03886 0.27843 0.84475 0.0
H662 H 1.00738 0.31768 0.75367 0.0
H663 H 0.03518 0.37327 0.78276 0.0
C664 C 0.07064 0.39038 0.8468 0.0
C665 C 0.08877 0.39593 0.88035 0.0
C666 C 0.05359 0.35825 0.83057 0.0
C667 C 0.08934 0.36865 0.89748 0.0
C668 C 0.0722 0.33661 0.88171 0.0
C669 C 0.03773 0.2991 0.83167 0.0
C670 C 0.0211 0.29406 0.79724 0.0
C671 C 0.05431 0.33111 0.84822 0.0
C672 C 0.02026 0.32112 0.78011 0.0
C673 C 0.03613 0.35286 0.79672 0.0
H674 H 0.61013 0.6838 0.80266 0.0
H675 H 0.65311 0.71824 0.91249 0.0
H676 H 0.70918 0.74462 0.88617 0.0
H677 H 0.74601 0.76053 0.8319 0.0
H678 H 0.70392 0.72406 0.72208 0.0
H679 H 0.64774 0.69605 0.74852 0.0
C680 C 0.63176 0.69664 0.82088 0.0
C681 C 0.62724 0.69944 0.85943 0.0
C682 C 0.66421 0.71172 0.80556 0.0
C683 C 0.65567 0.71636 0.88259 0.0
C684 C 0.68786 0.73134 0.86761 0.0
C685 C 0.72476 0.74605 0.81367 0.0
C686 C 0.72955 0.74488 0.77488 0.0
C687 C 0.69243 0.72961 0.82907 0.0
C688 C 0.70126 0.72616 0.75191 0.0
C689 C 0.66898 0.70985 0.76704 0.0
H690 H 0.67814 0.60129 0.47793 0.0
H691 H 0.64869 0.61958 0.58619 0.0
H692 H 0.62175 0.64762 0.55665 0.0
H693 H 0.60374 0.66423 0.50007 0.0
H694 H 0.63544 0.6486 0.39173 0.0
H695 H 0.66412 0.62238 0.42134 0.0
C696 C 0.66632 0.61187 0.4951 0.0
C697 C 0.66509 0.60777 0.53425 0.0
C698 C 0.6509 0.62824 0.47791 0.0
C699 C 0.64941 0.62156 0.55597 0.0
C700 C 0.63409 0.63782 0.5391 0.0
C701 C 0.61731 0.65565 0.48282 0.0
C702 C 0.61681 0.65816 0.44354 0.0
C703 C 0.6342 0.64085 0.50006 0.0
C704 C 0.63451 0.64645 0.42193 0.0
C705 C 0.65123 0.63158 0.43887 0.0
H706 H 0.35776 0.93527 0.51425 0.0
H707 H 0.38032 0.98101 0.4046 0.0
H708 H 0.40816 0.03633 0.43298 0.0
H709 H 0.42754 0.07193 0.48852 0.0
H710 H 0.4016 0.02674 0.59838 0.0
H711 H 0.37374 0.97124 0.57011 0.0
C712 C 0.36832 0.95723 0.49646 0.0
C713 C 0.36715 0.95359 0.45721 0.0
C714 C 0.38394 0.98928 0.51297 0.0
C715 C 0.38137 0.98267 0.43483 0.0
C716 C 0.39718 0.01451 0.45105 0.0
C717 C 0.41543 0.05014 0.50648 0.0
C718 C 0.41713 0.05397 0.54571 0.0
C719 C 0.39884 0.01813 0.49007 0.0
C720 C 0.40147 0.02496 0.56817 0.0
C721 C 0.38524 0.99302 0.55201 0.0
H722 H 0.08591 0.417 0.51727 0.0
H723 H 0.04387 0.39783 0.40565 0.0
H724 H 0.98767 0.37025 0.43157 0.0
H725 H 0.95022 0.35321 0.48576 0.0
H726 H 0.99208 0.36887 0.59728 0.0
H727 H 0.04828 0.39592 0.57136 0.0
C728 C 0.06459 0.40642 0.49847 0.0
C729 C 0.06956 0.4101 0.45943 0.0
C730 C 0.03205 0.39001 0.51353 0.0
C731 C 0.04122 0.39628 0.43579 0.0
C732 C 1.00886 0.3802 0.45059 0.0
C733 C 0.97145 0.36201 0.50452 0.0
C734 C 0.96649 0.35918 0.54359 0.0
C735 C 1.00395 0.3772 0.48943 0.0
C736 C 0.99476 0.37122 0.56718 0.0
C737 C 0.02711 0.38657 0.55236 0.0
H738 H 0.16553 0.35616 0.41061 0.0
H739 H 0.20116 0.43112 0.32346 0.0
H740 H 0.18028 0.38671 0.27584 0.0
H741 H 0.15049 0.32698 0.25944 0.0
H742 H 0.11217 0.25211 0.34671 0.0
H743 H 0.13587 0.29653 0.39425 0.0
C744 C 0.16902 0.36296 0.3812 0.0
C745 C 0.18507 0.39702 0.37057 0.0
C746 C 0.15645 0.33737 0.35419 0.0
C747 C 0.18899 0.40518 0.33235 0.0
C748 C 0.17703 0.37979 0.3052 0.0
C749 C 0.14749 0.32023 0.28886 0.0
C750 C 0.12969 0.28617 0.29955 0.0
C751 C 0.16054 0.34584 0.31586 0.0
C752 C 0.1258 0.27805 0.33777 0.0
C753 C 0.1393 0.30344 0.36489 0.0
H754 H 0.66284 0.8057 0.39204 0.0
H755 H 0.59126 0.76362 0.30146 0.0
H756 H 0.63691 0.79161 0.25597 0.0
H757 H 0.69704 0.82581 0.24248 0.0
H758 H 0.76844 0.86496 0.33349 0.0
H759 H 0.72245 0.84027 0.37871 0.0
C760 C 0.65699 0.80269 0.36235 0.0
C761 C 0.62358 0.78255 0.35012 0.0
C762 C 0.68327 0.81829 0.33663 0.0
C763 C 0.61669 0.77894 0.31156 0.0
C764 C 0.64278 0.79493 0.28563 0.0
C765 C 0.70263 0.82931 0.27221 0.0
C766 C 0.7362 0.84737 0.28465 0.0
C767 C 0.67616 0.81439 0.29792 0.0
C768 C 0.7429 0.85129 0.32324 0.0
C769 C 0.71662 0.8371 0.34903 0.0
H770 H 0.1987 0.87552 0.24998 0.0
H771 H 0.17103 0.92317 0.33606 0.0
H772 H 0.19419 0.90235 0.3839 0.0
H773 H 0.22332 0.87213 0.40085 0.0
H774 H 0.25301 0.82603 0.31501 0.0
H775 H 0.22792 0.84498 0.26712 0.0
C776 C 0.19746 0.8812 0.27923 0.0
C777 C 0.18295 0.90081 0.28945 0.0
C778 C 0.21131 0.86961 0.30644 0.0
C779 C 0.18191 0.9081 0.32745 0.0
C780 C 0.19522 0.89626 0.35476 0.0
C781 C 0.22429 0.86602 0.37168 0.0
C782 C 0.24002 0.84755 0.36153 0.0
C783 C 0.21015 0.87722 0.34451 0.0
C784 C 0.2411 0.84015 0.32358 0.0
C785 C 0.22673 0.85098 0.29626 0.0
H786 H 0.36326 0.15495 0.58788 0.0
H787 H 0.4341 0.18688 0.67938 0.0
H788 H 0.38801 0.16873 0.72424 0.0
H789 H 0.32781 0.14187 0.73719 0.0
H790 H 0.25682 0.10706 0.64571 0.0
H791 H 0.30314 0.12866 0.60079 0.0
C792 C 0.36879 0.15823 0.61763 0.0
C793 C 0.40221 0.17238 0.63027 0.0
C794 C 0.34219 0.14721 0.64312 0.0
C795 C 0.4087 0.17612 0.66892 0.0
C796 C 0.38234 0.16572 0.69453 0.0
C797 C 0.32233 0.13923 0.70741 0.0
C798 C 0.28877 0.12295 0.69481 0.0
C799 C 0.34901 0.15099 0.68191 0.0
C800 C 0.28233 0.11954 0.65614 0.0
C801 C 0.30881 0.13181 0.6305 0.0
H802 H 0.86745 0.21291 0.58848 0.0
H803 H 0.82922 0.24898 0.67651 0.0
H804 H 0.84917 0.22417 0.72352 0.0
H805 H 0.87897 0.19411 0.73925 0.0
H806 H 0.92023 0.16117 0.65127 0.0
H807 H 0.89728 0.18296 0.60418 0.0
C808 C 0.86317 0.21518 0.61794 0.0
C809 C 0.84664 0.23264 0.629 0.0
C810 C 0.87529 0.20151 0.64464 0.0
C811 C 0.84176 0.23564 0.66729 0.0
C812 C 0.85319 0.22147 0.69411 0.0
C813 C 0.88275 0.19135 0.70976 0.0
C814 C 0.90114 0.17578 0.69874 0.0
C815 C 0.87017 0.20459 0.68305 0.0
C816 C 0.90611 0.17291 0.66045 0.0
C817 C 0.89304 0.18542 0.63359 0.0
H818 H 0.82766 0.69519 0.73816 0.0
H819 H 0.86607 0.76671 0.64751 0.0
H820 H 0.84428 0.72057 0.60212 0.0
H821 H 0.81257 0.66054 0.58847 0.0
H822 H 0.77136 0.58889 0.67878 0.0
H823 H 0.79624 0.6349 0.72444 0.0
C824 C 0.83161 0.7008 0.70848 0.0
C825 C 0.84864 0.73443 0.69619 0.0
C826 C 0.81839 0.67423 0.68267 0.0
C827 C 0.85315 0.74112 0.65765 0.0
C828 C 0.84064 0.71476 0.63176 0.0
C829 C 0.80913 0.6548 0.61816 0.0
C830 C 0.79015 0.62123 0.63025 0.0
C831 C 0.82294 0.68129 0.64399 0.0
C832 C 0.78582 0.61444 0.66878 0.0
C833 C 0.80004 0.64074 0.69482 0.0
H834 H 1.00207 0.48128 0.07429 0.0
H835 H 0.93009 0.43803 0.98422 0.0
H836 H 0.97583 0.46076 0.93857 0.0
H837 H 0.03569 0.49034 0.92488 0.0
H838 H 0.108 0.5308 0.01493 0.0
H839 H 0.06221 0.51156 0.06044 0.0
C840 C 0.99624 0.47704 0.04465 0.0
C841 C 0.96263 0.45805 0.0326 0.0
C842 C 0.02262 0.48947 0.0188 0.0
C843 C 0.95568 0.45259 0.99415 0.0
C844 C 0.98182 0.46551 0.96813 0.0
C845 C 0.04164 0.49525 0.95444 0.0
C846 C 0.07532 0.51208 0.96654 0.0
C847 C 0.01532 0.48361 0.98023 0.0
C848 C 0.08236 0.51796 0.00494 0.0
C849 C 0.05619 0.50693 0.03088 0.0
H850 H 0.54112 0.5545 0.91385 0.0
H851 H 0.50302 0.59104 0.00156 0.0
H852 H 0.52423 0.56769 0.04882 0.0
H853 H 0.55388 0.53776 0.06476 0.0
H854 H 0.59398 0.50304 0.97732 0.0
H855 H 0.5714 0.525 0.92989 0.0
C856 C 0.53724 0.55727 0.94331 0.0
C857 C 0.5203 0.57434 0.95424 0.0
C858 C 0.54983 0.54419 0.97013 0.0
C859 C 0.5159 0.57799 0.99248 0.0
C860 C 0.52801 0.56464 0.01942 0.0
C861 C 0.5576 0.53474 0.03532 0.0
C862 C 0.57544 0.51855 0.02452 0.0
C863 C 0.54503 0.54778 0.00849 0.0
C864 C 0.5803 0.51529 0.9863 0.0
C865 C 0.56741 0.52785 0.95927 0.0
H866 H 0.49585 0.03304 0.07227 0.0
H867 H 0.53465 0.10695 0.98404 0.0
H868 H 0.51201 0.06206 0.93706 0.0
H869 H 0.4803 1.00233 0.92137 0.0
H870 H 0.43913 0.92835 0.00938 0.0
H871 H 0.46387 0.97312 0.0565 0.0
C872 C 0.49961 0.03944 0.04276 0.0
C873 C 0.51712 0.07339 0.03165 0.0
C874 C 0.48608 0.01356 0.01604 0.0
C875 C 0.52135 0.0811 0.99331 0.0
C876 C 0.5084 0.05544 0.9665 0.0
C877 C 0.47684 0.99582 0.95086 0.0
C878 C 0.45799 0.96192 0.96186 0.0
C879 C 0.49061 0.02164 0.97759 0.0
C880 C 0.45356 0.95416 0.00018 0.0
C881 C 0.46768 0.97976 0.02707 0.0
H882 H 0.98681 0.14556 0.06913 0.0
H883 H 0.0931 0.20503 0.04944 0.0
H884 H 0.08359 0.19869 0.98177 0.0
H885 H 0.04475 0.17961 0.92825 0.0
H886 H 0.93832 0.12209 0.94791 0.0
H887 H 0.94808 0.12404 0.01547 0.0
C888 C 1.00785 0.15665 0.04995 0.0
C889 C 0.04055 0.17584 0.0641 0.0
C890 C 1.00214 0.15343 0.01112 0.0
C891 C 0.06766 0.19044 0.03907 0.0
C892 C 0.06225 0.18678 0.00043 0.0
C893 C 0.02378 0.16707 0.94735 0.0
C894 C 0.9909 0.15086 0.93326 0.0
C895 C 0.02956 0.16884 0.98614 0.0
C896 C 0.96386 0.13503 0.95824 0.0
C897 C 0.96942 0.13608 -0.00319 0.0
H898 H 0.88954 0.83426 0.94226 0.0
H899 H 0.83962 0.8877 0.90687 0.0
H900 H 0.8328 0.89923 0.97229 0.0
H901 H 0.83758 0.89053 0.03946 0.0
H902 H 0.88835 0.83794 0.07491 0.0
H903 H 0.89867 0.82983 0.00946 0.0
C904 C 0.87735 0.84858 0.94902 0.0
C905 C 0.86474 0.85985 0.92011 0.0
C906 C 0.87365 0.85514 0.98653 0.0
C907 C 0.84949 0.87885 0.92886 0.0
C908 C 0.84547 0.88529 0.96616 0.0
C909 C 0.85109 0.8775 0.0327 0.0
C910 C 0.86192 0.8645 0.06163 0.0
C911 C 0.85691 0.87302 -0.00481 0.0
C912 C 0.87987 0.84815 0.05289 0.0
C913 C 0.88559 0.84337 0.01558 0.0
H914 H 0.18713 0.06204 0.94226 0.0
H915 H 0.13245 0.95995 0.90246 0.0
H916 H 0.12025 0.93957 0.96705 0.0
H917 H 0.1281 0.9508 0.0349 0.0
H918 H 0.18269 0.05303 0.07441 0.0
H919 H 0.19174 0.0734 0.00991 0.0
C920 C 0.17248 0.03535 0.94781 0.0
C921 C 0.16096 0.01249 0.91778 0.0
C922 C 0.16559 0.02387 0.98491 0.0
C923 C 0.14148 0.978 0.9252 0.0
C924 C 0.13466 0.96635 0.96208 0.0
C925 C 0.14186 0.97752 0.02931 0.0
C926 C 0.15489 1.00038 0.0593 0.0
C927 C 0.14704 0.98904 0.99216 0.0
C928 C 0.17223 0.03496 0.05177 0.0
C929 C 0.1776 0.04662 0.01492 0.0
H930 H 0.68442 0.48024 0.26488 0.0
H931 H 0.6269 0.53056 0.27547 0.0
H932 H 0.63713 0.53627 0.34276 0.0
H933 H 0.66405 0.52884 0.39836 0.0
H934 H 0.72486 0.48233 0.38745 0.0
H935 H 0.71211 0.47362 0.32031 0.0
C936 C 0.67436 0.49272 0.28183 0.0
C937 C 0.65474 0.50473 0.26511 0.0
C938 C 0.68096 0.49662 0.32041 0.0
C939 C 0.64152 0.52045 0.28764 0.0
C940 C 0.64755 0.52397 0.32612 0.0
C941 C 0.67411 0.51644 0.38124 0.0
C942 C 0.69505 0.50595 0.39751 0.0
C943 C 0.66729 0.51224 0.34276 0.0
C944 C 0.70861 0.49052 0.37522 0.0
C945 C 0.70136 0.48558 0.33698 0.0
H946 H 0.48941 0.2031 0.3804 0.0
H947 H 0.57316 0.19253 0.4166 0.0
H948 H 0.58899 0.19215 0.35147 0.0
H949 H 0.5774 0.19189 0.28424 0.0
H950 H 0.48977 0.19604 0.24889 0.0
H951 H 0.4774 0.20202 0.31363 0.0
C952 C 0.51091 0.20028 0.37421 0.0
C953 C 0.52982 0.19755 0.40361 0.0
C954 C 0.51932 0.19905 0.33671 0.0
C955 C 0.55824 0.19501 0.39473 0.0
C956 C 0.5672 0.19453 0.35741 0.0
C957 C 0.55545 0.19387 0.29059 0.0
C958 C 0.53473 0.19361 0.26134 0.0
C959 C 0.54764 0.19606 0.32817 0.0
C960 C 0.50675 0.19689 0.27041 0.0
C961 C 0.49934 0.19993 0.30761 0.0
H962 H 0.82119 0.31329 0.25859 0.0
H963 H 0.86486 0.41965 0.27692 0.0
H964 H 0.85714 0.41057 0.34454 0.0
H965 H 0.84242 0.37276 0.39862 0.0
H966 H 0.80101 0.26668 0.38025 0.0
H967 H 0.80306 0.27512 0.31248 0.0
C968 C 0.82843 0.33435 0.27741 0.0
C969 C 0.84371 0.36705 0.26299 0.0
C970 C 0.82455 0.329 0.3162 0.0
C971 C 0.85337 0.39426 0.28757 0.0
C972 C 0.84893 0.38909 0.32615 0.0
C973 C 0.83334 0.3515 0.3797 0.0
C974 C 0.82183 0.31924 0.3942 0.0
C975 C 0.83523 0.35664 0.34083 0.0
C976 C 0.81037 0.29183 0.36955 0.0
C977 C 0.81149 0.29662 0.33088 0.0
H978 H 0.31698 0.81419 0.73414 0.0
H979 H 0.42297 0.87021 0.71142 0.0
H980 H 0.41201 0.85955 0.64425 0.0
H981 H 0.37198 0.83737 0.59169 0.0
H982 H 0.26597 0.78456 0.61429 0.0
H983 H 0.27707 0.79041 0.6818 0.0
C984 C 0.33763 0.82364 0.71445 0.0
C985 C 0.37069 0.84299 0.72754 0.0
C986 C 0.33109 0.81801 0.6759 0.0
C987 C 0.39729 0.8555 0.70183 0.0
C988 C 0.39104 0.84934 0.6635 0.0
C989 C 0.35142 0.82671 0.61153 0.0
C990 C 0.31827 0.81048 0.59833 0.0
C991 C 0.35802 0.83107 0.65017 0.0
C992 C 0.29169 0.79718 0.62405 0.0
C993 C 0.29803 0.80058 0.66254 0.0
H994 H 0.19646 0.5418 0.60144 0.0
H995 H 0.23497 0.47531 0.62381 0.0
H996 H 0.23308 0.48387 0.69131 0.0
H997 H 0.21648 0.50709 0.74387 0.0
H998 H 0.17384 0.56996 0.72133 0.0
H999 H 0.18162 0.56647 0.65391 0.0
C1000 C 0.20486 0.52964 0.6212 0.0
C1001 C 0.21581 0.508 0.608 0.0
C1002 C 0.20284 0.53398 0.65979 0.0
C1003 C 0.22626 0.49192 0.63361 0.0
C1004 C 0.22522 0.49683 0.67207 0.0
C1005 C 0.20946 0.52039 0.72407 0.0
C1006 C 0.19477 0.53882 0.73711 0.0
C1007 C 0.213 0.51734 0.68548 0.0
C1008 C 0.18519 0.55563 0.71155 0.0
C1009 C 0.18957 0.55359 0.67315 0.0
H1010 H 0.52591 0.7061 0.71973 0.0
H1011 H 0.44981 0.6024 0.70381 0.0
H1012 H 0.45158 0.61112 0.63629 0.0
H1013 H 0.47723 0.64739 0.58158 0.0
H1014 H 0.54994 0.75204 0.59854 0.0
H1015 H 0.54633 0.74372 0.66608 0.0
C1016 C 0.50904 0.6855 0.70179 0.0
C1017 C 0.48804 0.65353 0.71705 0.0
C1018 C 0.50965 0.69078 0.66308 0.0
C1019 C 0.46688 0.62711 0.69289 0.0
C1020 C 0.46765 0.63211 0.65424 0.0
C1021 C 0.49178 0.66854 0.60003 0.0
C1022 C 0.51432 0.70011 0.5849 0.0
C1023 C 0.48933 0.66372 0.63898 0.0
C1024 C 0.53309 0.7272 0.60933 0.0
C1025 C 0.53092 0.72255 0.64801 0.0
H1026 H 0.12014 0.02312 0.24789 0.0
H1027 H 0.22657 0.09083 0.25685 0.0
H1028 H 0.21747 0.13864 0.25912 0.0
H1029 H 0.18012 0.16157 0.249 0.0
H1030 H 0.07383 0.09459 0.23843 0.0
H1031 H 0.0818 0.04615 0.24652 0.0
C1032 C 0.14118 0.04819 0.25169 0.0
C1033 C 0.174 0.05342 0.25205 0.0
C1034 C 0.13582 0.07578 0.25176 0.0
C1035 C 0.20108 0.0862 0.25645 0.0
C1036 C 0.19593 0.11359 0.2574 0.0
C1037 C 0.15874 0.13635 0.24887 0.0
C1038 C 0.12655 0.13158 0.24256 0.0
C1039 C 0.16357 0.10876 0.2534 0.0
C1040 C 0.09887 0.09885 0.2432 0.0
C1041 C 0.10345 0.07117 0.24768 0.0
H1042 H 0.93684 0.12215 0.25492 0.0
H1043 H 0.02078 0.10522 0.25781 0.0
H1044 H 0.9826 0.04465 0.25478 0.0
H1045 H 0.92538 0.9969 0.24175 0.0
H1046 H 0.84266 0.01556 0.23577 0.0
H1047 H 0.8801 0.07478 0.24949 0.0
C1048 C 0.94682 0.10522 0.25564 0.0
C1049 C 0.98169 0.11834 0.25618 0.0
C1050 C 0.9248 0.07057 0.25266 0.0
C1051 C 0.99412 0.09597 0.25752 0.0
C1052 C 0.97223 0.06123 0.25537 0.0
C1053 C 0.91562 0.01392 0.24427 0.0
C1054 C 0.88143 1.00207 0.23717 0.0
C1055 C 0.93755 0.04829 0.25149 0.0
C1056 C 0.86899 0.02429 0.2404 0.0
C1057 C 0.89036 0.05812 0.24835 0.0
H1058 H 0.9256 0.9175 0.23928 0.0
H1059 H 0.89063 0.81864 0.28432 0.0
H1060 H 0.9481 0.82969 0.28887 0.0
H1061 H 1.00671 0.86335 0.26982 0.0
H1062 H 0.04235 0.96097 0.22132 0.0
H1063 H 0.98655 0.95481 0.22836 0.0
C1064 C 0.93076 0.89891 0.25129 0.0
C1065 C 0.90398 0.86723 0.26138 0.0
C1066 C 0.96394 0.90492 0.2522 0.0
C1067 C 0.91091 0.8432 0.2765 0.0
C1068 C 0.94373 0.84937 0.2787 0.0
C1069 C 1.00229 0.88339 0.26118 0.0
C1070 C 0.02832 0.91223 0.24439 0.0
C1071 C 0.97019 0.87943 0.26489 0.0
C1072 C 0.0226 0.93844 0.23416 0.0
C1073 C 0.99067 0.93484 0.23804 0.0
H1074 H 0.02493 0.11816 0.74243 0.0
H1075 H 0.09518 0.22434 0.73631 0.0
H1076 H 0.14181 0.2135 0.73498 0.0
H1077 H 0.16293 0.17453 0.744 0.0
H1078 H 0.09358 0.06843 0.75078 0.0
H1079 H 0.04632 0.07834 0.74308 0.0
C1080 C 0.05034 0.13881 0.73956 0.0
C1081 C 0.05657 0.17203 0.73969 0.0
C1082 C 0.07725 0.13242 0.73969 0.0
C1083 C 0.08974 0.19855 0.73647 0.0
C1084 C 0.11647 0.1924 0.73595 0.0
C1085 C 0.13745 0.15363 0.74341 0.0
C1086 C 0.13165 0.12091 0.7485 0.0
C1087 C 0.11057 0.15957 0.73904 0.0
C1088 C 0.0986 0.09387 0.74695 0.0
C1089 C 0.07161 0.09956 0.7427 0.0
H1090 H 0.86422 1.00643 0.72419 0.0
H1091 H 0.96432 0.03987 0.76357 0.0
H1092 H 0.95651 0.98362 0.75291 0.0
H1093 H 0.91754 0.92282 0.74157 0.0
H1094 H 0.81688 0.89046 0.70412 0.0
H1095 H 0.82878 0.94835 0.70345 0.0
C1096 C 0.88443 1.00142 0.72986 0.0
C1097 C 0.91451 0.02687 0.74525 0.0
C1098 C 0.87962 0.96917 0.72382 0.0
C1099 C 0.94088 0.02048 0.75186 0.0
C1100 C 0.93633 0.98832 0.7459 0.0
C1101 C 0.89869 0.92866 0.73199 0.0
C1102 C 0.86627 0.90242 0.72313 0.0
C1103 C 0.90536 0.96212 0.73307 0.0
C1104 C 0.84196 0.91027 0.71107 0.0
C1105 C 0.84864 0.94333 0.71108 0.0
H1106 H 0.12009 0.93026 0.72321 0.0
H1107 H 0.10583 0.01597 0.72139 0.0
H1108 H 0.04521 0.97901 0.72462 0.0
H1109 H 0.99677 0.92241 0.73832 0.0
H1110 H 1.01283 0.83797 0.74388 0.0
H1111 H 0.07194 0.8741 0.72893 0.0
C1112 C 0.10376 0.94094 0.72274 0.0
C1113 C 0.11772 0.97598 0.72277 0.0
C1114 C 0.06905 0.91959 0.72599 0.0
C1115 C 0.09602 0.98922 0.72155 0.0
C1116 C 0.06122 0.968 0.72378 0.0
C1117 C 1.01319 0.91199 0.7354 0.0
C1118 C 1.00069 0.87772 0.74273 0.0
C1119 C 0.04753 0.9332 0.72763 0.0
C1120 C 0.02211 0.86439 0.73901 0.0
C1121 C 0.05586 0.88501 0.73038 0.0
H1122 H 0.78275 0.35713 0.58127 0.0
H1123 H 0.88896 0.42056 0.59882 0.0
H1124 H 0.88219 0.46964 0.60441 0.0
H1125 H 0.84748 0.49572 0.59503 0.0
H1126 H 0.74146 0.43317 0.57626 0.0
H1127 H 0.7465 0.38288 0.58081 0.0
C1128 C 0.80412 0.38152 0.58767 0.0
C1129 C 0.8363 0.38528 0.58958 0.0
C1130 C 0.80017 0.41001 0.58984 0.0
C1131 C 0.86393 0.41712 0.59722 0.0
C1132 C 0.86014 0.44527 0.60012 0.0
C1133 C 0.82547 0.47105 0.59247 0.0
C1134 C 0.79425 0.46824 0.58497 0.0
C1135 C 0.82863 0.44224 0.59489 0.0
C1136 C 0.76579 0.43605 0.58223 0.0
C1137 C 0.76869 0.40724 0.5846 0.0
H1138 H 0.67962 0.40996 0.57694 0.0
H1139 H 0.62993 0.46786 0.58604 0.0
H1140 H 0.57536 0.41596 0.58941 0.0
H1141 H 0.54176 0.35382 0.58158 0.0
H1142 H 0.59334 0.29774 0.57135 0.0
H1143 H 0.6472 0.34901 0.57679 0.0
C1144 C 0.65687 0.41117 0.58064 0.0
C1145 C 0.65856 0.44242 0.58116 0.0
C1146 C 0.62593 0.38149 0.58182 0.0
C1147 C 0.6291 0.44391 0.58601 0.0
C1148 C 0.59794 0.41428 0.5874 0.0
C1149 C 0.56488 0.35304 0.58103 0.0
C1150 C 0.56367 0.32208 0.57633 0.0
C1151 C 0.596 0.3829 0.58398 0.0
C1152 C 0.59367 0.32114 0.57575 0.0
C1153 C 0.62448 0.35049 0.57853 0.0
H1154 H 0.69617 0.26711 0.58359 0.0
H1155 H 0.68308 0.16775 0.57669 0.0
H1156 H 0.62339 0.14307 0.5889 0.0
H1157 H 0.57394 0.14929 0.59255 0.0
H1158 H 0.58522 0.2478 0.59925 0.0
H1159 H 0.64622 0.27322 0.59707 0.0
C1160 C 0.68028 0.24014 0.58569 0.0
C1161 C 0.69391 0.21925 0.57847 0.0
C1162 C 0.64554 0.22594 0.59235 0.0
C1163 C 0.67305 0.1843 0.5813 0.0
C1164 C 0.6389 0.17016 0.58837 0.0
C1165 C 0.58972 0.17633 0.59438 0.0
C1166 C 0.57489 0.19662 0.59527 0.0
C1167 C 0.62468 0.19066 0.59253 0.0
C1168 C 0.59582 0.23157 0.5982 0.0
C1169 C 0.63082 0.24613 0.59668 0.0
H1170 H 0.80997 0.48399 0.06847 0.0
H1171 H 0.76266 0.38302 0.11156 0.0
H1172 H 0.7084 0.38028 0.1109 0.0
H1173 H 0.67542 0.40825 0.10371 0.0
H1174 H 0.72216 0.50945 0.06141 0.0
H1175 H 0.7756 0.51036 0.05584 0.0
C1176 C 0.78777 0.46141 0.07769 0.0
C1177 C 0.7905 0.43391 0.0905 0.0
C1178 C 0.75659 0.46007 0.07744 0.0
C1179 C 0.76134 0.40451 0.10148 0.0
C1180 C 0.7303 0.40298 0.1013 0.0
C1181 C 0.69719 0.4304 0.0928 0.0
C1182 C 0.69491 0.45887 0.08332 0.0
C1183 C 0.72778 0.43084 0.0901 0.0
C1184 C 0.72323 0.48719 0.06882 0.0
C1185 C 0.75384 0.48779 0.06592 0.0
H1186 H 0.61468 0.28822 0.05962 0.0
H1187 H 0.5089 0.22067 0.07413 0.0
H1188 H 0.49837 0.26773 0.07042 0.0
H1189 H 0.52093 0.32922 0.07355 0.0
H1190 H 0.62654 0.39569 0.05539 0.0
H1191 H 0.63539 0.34817 0.04938 0.0
C1192 C 0.58923 0.28376 0.06076 0.0
C1193 C 0.56267 0.25126 0.06758 0.0
C1194 C 0.5834 0.31086 0.05848 0.0
C1195 C 0.52975 0.24556 0.0688 0.0
C1196 C 0.52376 0.27251 0.06706 0.0
C1197 C 0.54567 0.33314 0.06737 0.0
C1198 C 0.57308 0.36604 0.0658 0.0
C1199 C 0.55061 0.30545 0.06353 0.0
C1200 C 0.60497 0.3708 0.05711 0.0
C1201 C 0.61015 0.34354 0.05382 0.0
H1202 H 0.78093 0.3314 0.06559 0.0
H1203 H 0.81912 0.26285 0.06639 0.0
H1204 H 0.76228 0.21532 0.06317 0.0
H1205 H 0.70181 0.19309 0.06985 0.0
H1206 H 0.66314 0.26116 0.07149 0.0
H1207 H 0.71974 0.30882 0.06373 0.0
C1208 C 0.77689 0.30618 0.06409 0.0
C1209 C 0.80431 0.30077 0.06686 0.0
C1210 C 0.74389 0.27873 0.06334 0.0
C1211 C 0.79846 0.26774 0.06473 0.0
C1212 C 0.76592 0.24048 0.0631 0.0
C1213 C 0.70577 0.21833 0.06801 0.0
C1214 C 0.67835 0.22354 0.07175 0.0
C1215 C 0.73843 0.24563 0.06406 0.0
C1216 C 0.68378 0.25638 0.0686 0.0
C1217 C 0.71621 0.28371 0.06441 0.0
H1218 H 0.49126 0.81186 0.91828 0.0
H1219 H 0.38958 0.76731 0.8777 0.0
H1220 H 0.38447 0.71217 0.87802 0.0
H1221 H 0.40986 0.67721 0.88498 0.0
H1222 H 0.51192 0.72047 0.92368 0.0
H1223 H 0.51577 0.77534 0.92958 0.0
C1224 C 0.46807 0.79002 0.90957 0.0
C1225 C 0.4409 0.79373 0.89798 0.0
C1226 C 0.4653 0.75816 0.90959 0.0
C1227 C 0.41075 0.76517 0.88721 0.0
C1228 C 0.40783 0.73359 0.88718 0.0
C1229 C 0.43284 0.69852 0.89521 0.0
C1230 C 0.46062 0.69486 0.9036 0.0
C1231 C 0.43505 0.72989 0.89778 0.0
C1232 C 0.49011 0.72263 0.91716 0.0
C1233 C 0.49242 0.75406 0.92018 0.0
H1234 H 0.28946 0.7868 0.8575 0.0
H1235 H 0.33043 0.78875 0.96664 0.0
H1236 H 0.29486 0.72727 0.9709 0.0
H1237 H 0.24908 0.67294 0.9439 0.0
H1238 H 0.21236 0.6738 0.833 0.0
H1239 H 0.24978 0.73409 0.8287 0.0
C1240 C 0.29049 0.77391 0.88248 0.0
C1241 C 0.31174 0.79239 0.91224 0.0
C1242 C 0.27094 0.73892 0.8841 0.0
C1243 C 0.31373 0.77509 0.94368 0.0
C1244 C 0.29352 0.73996 0.94598 0.0
C1245 C 0.24996 0.6864 0.91864 0.0
C1246 C 0.2277 0.66907 0.88891 0.0
C1247 C 0.27169 0.72154 0.91641 0.0
C1248 C 0.22895 0.68672 0.85631 0.0
C1249 C 0.25024 0.72118 0.8539 0.0
H1250 H 0.26623 0.57881 0.92438 0.0
H1251 H 0.22232 0.47268 0.94389 0.0
H1252 H 0.27766 0.47804 0.94496 0.0
H1253 H 0.33741 0.51101 0.92846 0.0
H1254 H 0.38229 0.61723 0.91079 0.0
H1255 H 0.32823 0.61402 0.92092 0.0
C1256 C 0.26898 0.55723 0.93053 0.0
C1257 C 0.24029 0.52537 0.93377 0.0
C1258 C 0.30108 0.56037 0.93033 0.0
C1259 C 0.24413 0.49747 0.94121 0.0
C1260 C 0.27575 0.50042 0.94141 0.0
C1261 C 0.33533 0.53346 0.9278 0.0
C1262 C 0.3635 0.56416 0.91842 0.0
C1263 C 0.30422 0.5314 0.93405 0.0
C1264 C 0.36082 0.59329 0.91788 0.0
C1265 C 0.32987 0.59142 0.92354 0.0
H1266 H 0.35256 0.76419 0.42815 0.0
H1267 H 0.40826 0.85961 0.37282 0.0
H1268 H 0.45565 0.85036 0.36418 0.0
H1269 H 0.48402 0.8191 0.38059 0.0
H1270 H 0.43007 0.72511 0.43925 0.0
H1271 H 0.37927 0.72955 0.43829 0.0
C1272 C 0.37462 0.78225 0.41296 0.0
C1273 C 0.37691 0.81232 0.40059 0.0
C1274 C 0.4024 0.7774 0.40964 0.0
C1275 C 0.40589 0.83606 0.38191 0.0
C1276 C 0.43312 0.83098 0.37745 0.0
C1277 C 0.46111 0.79954 0.39303 0.0
C1278 C 0.46101 0.77215 0.41057 0.0
C1279 C 0.43217 0.80244 0.39265 0.0
C1280 C 0.43086 0.74652 0.42569 0.0
C1281 C 0.40182 0.7491 0.42523 0.0
H1282 H 0.1619 0.56079 0.44242 0.0
H1283 H 0.25821 0.58087 0.40159 0.0
H1284 H 0.27615 0.64095 0.39666 0.0
H1285 H 0.26475 0.68819 0.40793 0.0
H1286 H 0.1689 0.66461 0.455 0.0
H1287 H 0.15092 0.60579 0.45371 0.0
C1288 C 0.18687 0.57812 0.43222 0.0
C1289 C 0.20868 0.56625 0.42255 0.0
C1290 C 0.19725 0.61229 0.43087 0.0
C1291 C 0.24077 0.58924 0.40901 0.0
C1292 C 0.25111 0.62364 0.40657 0.0
C1293 C 0.24001 0.67023 0.41801 0.0
C1294 C 0.21817 0.68143 0.43091 0.0
C1295 C 0.2297 0.63561 0.41817 0.0
C1296 C 0.18616 0.65738 0.44384 0.0
C1297 C 0.17575 0.6234 0.44343 0.0
H1298 H 0.46067 0.58844 0.40321 0.0
H1299 H 0.44189 0.6699 0.38292 0.0
H1300 H 0.38155 0.63132 0.38796 0.0
H1301 H 0.3347 0.57553 0.40766 0.0
H1302 H 0.35511 0.49486 0.42656 0.0
H1303 H 0.414 0.53191 0.41244 0.0
C1304 C 0.44341 0.59776 0.39919 0.0
C1305 C 0.45596 0.63231 0.39418 0.0
C1306 C 0.40889 0.57553 0.40247 0.0
C1307 C 0.43313 0.64368 0.38795 0.0
C1308 C 0.3985 0.62155 0.3909 0.0
C1309 C 0.35195 0.56597 0.4079 0.0
C1310 C 0.34062 0.53267 0.41926 0.0
C1311 C 0.38616 0.58762 0.39977 0.0
C1312 C 0.3633 0.52061 0.41915 0.0
C1313 C 0.397 0.54174 0.41083 0.0
loop_
_geom_bond_atom_site_label_1
_geom_bond_atom_site_label_2
_geom_bond_distance
_geom_bond_site_symmetry_2
_ccdc_geom_bond_type
C0 C1 1.351 . S
C0 N3 1.368 . S
C0 H5 0.931 . S
C1 C0 1.351 . S
C1 N2 1.373 . S
C1 H29 0.930 . S
N2 C1 1.373 . S
N2 C4 1.340 . S
N3 C0 1.368 . S
N3 C4 1.321 . S
N3 Co6 2.135 . S
C4 N2 1.340 . S
C4 N3 1.321 . S
C4 H28 0.930 . S
H5 C0 0.931 . S
Co6 N3 2.135 . S
Co6 N9 2.121 1_455 S
Co6 O14 2.055 . S
Co6 O17 2.039 1_455 S
Co6 N20 2.140 . S
C7 O8 1.227 . S
C7 O17 1.265 . S
O8 C7 1.227 . S
N9 Co6 2.121 1_655 S
N9 C11 1.375 . S
N9 C12 1.313 . S
C10 C11 1.338 . S
C10 N13 1.377 . S
C10 H30 0.930 . S
C11 N9 1.375 . S
C11 C10 1.338 . S
C11 H15 0.931 . S
C12 N9 1.313 . S
C12 N13 1.344 . S
C12 H16 0.930 1_655 S
N13 C10 1.377 . S
N13 C12 1.344 . S
O14 Co6 2.055 . S
O14 C18 1.253 . S
H15 C11 0.931 . S
H16 C12 0.930 1_455 S
O17 Co6 2.039 1_655 S
O17 C7 1.265 . S
C18 O14 1.253 . S
C18 O19 1.227 . S
O19 C18 1.227 . S
N20 Co6 2.140 . S
N20 C23 1.346 . S
N20 C24 1.345 . S
C21 C22 1.387 . S
C21 C25 1.391 . S
C22 C21 1.387 . S
C22 C23 1.369 . S
C22 H31 0.929 . S
C23 N20 1.346 . S
C23 C22 1.369 . S
C23 H26 0.928 . S
C24 N20 1.345 . S
C24 C25 1.371 . S
C24 H27 0.931 . S
C25 C21 1.391 . S
C25 C24 1.371 . S
C25 H32 0.930 . S
H26 C23 0.928 . S
H27 C24 0.931 . S
H28 C4 0.930 . S
H29 C1 0.930 . S
H30 C10 0.930 . S
H31 C22 0.929 . S
H32 C25 0.930 . S
C33 C34 1.351 . S
C33 N36 1.368 . S
C33 H38 0.931 . S
C34 C33 1.351 . S
C34 N35 1.373 . S
C34 H62 0.930 . S
N35 C34 1.373 . S
N35 C37 1.340 . S
N36 C33 1.368 . S
N36 C37 1.321 . S
N36 Co39 2.135 . S
C37 N35 1.340 . S
C37 N36 1.321 . S
C37 H61 0.930 . S
H38 C33 0.931 . S
Co39 N36 2.135 . S
Co39 N42 2.121 . S
Co39 O47 2.055 . S
Co39 O50 2.039 . S
Co39 N53 2.140 . S
C40 O41 1.227 . S
C40 O50 1.265 . S
O41 C40 1.227 . S
N42 Co39 2.121 . S
N42 C44 1.375 . S
N42 C45 1.313 . S
C43 C44 1.338 . S
C43 N46 1.377 . S
C43 H63 0.930 . S
C44 N42 1.375 . S
C44 C43 1.338 . S
C44 H48 0.931 . S
C45 N42 1.313 . S
C45 N46 1.344 . S
C45 H49 0.930 . S
N46 C43 1.377 . S
N46 C45 1.344 . S
O47 Co39 2.055 . S
O47 C51 1.253 . S
H48 C44 0.931 . S
H49 C45 0.930 . S
O50 Co39 2.039 . S
O50 C40 1.265 . S
C51 O47 1.253 . S
C51 O52 1.227 . S
O52 C51 1.227 . S
N53 Co39 2.140 . S
N53 C56 1.346 . S
N53 C57 1.345 . S
C54 C55 1.387 . S
C54 C58 1.391 . S
C55 C54 1.387 . S
C55 C56 1.369 . S
C55 H64 0.929 . S
C56 N53 1.346 . S
C56 C55 1.369 . S
C56 H59 0.928 . S
C57 N53 1.345 . S
C57 C58 1.371 . S
C57 H60 0.931 . S
C58 C54 1.391 . S
C58 C57 1.371 . S
C58 H65 0.930 . S
H59 C56 0.928 . S
H60 C57 0.931 . S
H61 C37 0.930 . S
H62 C34 0.930 . S
H63 C43 0.930 . S
H64 C55 0.929 . S
H65 C58 0.930 . S
C66 C67 1.351 . S
C66 N69 1.368 . S
C66 H71 0.931 . S
C67 C66 1.351 . S
C67 N68 1.373 . S
C67 H95 0.930 . S
N68 C67 1.373 . S
N68 C70 1.340 . S
N69 C66 1.368 . S
N69 C70 1.321 . S
N69 Co72 2.135 . S
C70 N68 1.340 . S
C70 N69 1.321 . S
C70 H94 0.930 . S
H71 C66 0.931 . S
Co72 N69 2.135 . S
Co72 N75 2.121 1_565 S
Co72 O80 2.055 . S
Co72 O83 2.039 1_565 S
Co72 N86 2.140 . S
C73 O74 1.227 . S
C73 O83 1.265 . S
O74 C73 1.227 . S
N75 Co72 2.121 1_545 S
N75 C77 1.375 . S
N75 C78 1.313 . S
C76 C77 1.338 . S
C76 N79 1.377 . S
C76 H96 0.930 . S
C77 N75 1.375 . S
C77 C76 1.338 . S
C77 H81 0.931 . S
C78 N75 1.313 . S
C78 N79 1.344 . S
C78 H82 0.930 1_545 S
N79 C76 1.377 . S
N79 C78 1.344 . S
O80 Co72 2.055 . S
O80 C84 1.253 . S
H81 C77 0.931 . S
H82 C78 0.930 1_565 S
O83 Co72 2.039 1_545 S
O83 C73 1.265 . S
C84 O80 1.253 . S
C84 O85 1.227 . S
O85 C84 1.227 . S
N86 Co72 2.140 . S
N86 C89 1.346 . S
N86 C90 1.345 . S
C87 C88 1.387 . S
C87 C91 1.391 . S
C88 C87 1.387 . S
C88 C89 1.369 . S
C88 H97 0.929 . S
C89 N86 1.346 . S
C89 C88 1.369 . S
C89 H92 0.928 . S
C90 N86 1.345 . S
C90 C91 1.371 . S
C90 H93 0.931 . S
C91 C87 1.391 . S
C91 C90 1.371 . S
C91 H98 0.930 . S
H92 C89 0.928 . S
H93 C90 0.931 . S
H94 C70 0.930 . S
H95 C67 0.930 . S
H96 C76 0.930 . S
H97 C88 0.929 . S
H98 C91 0.930 . S
C99 C100 1.351 . S
C99 N102 1.368 . S
C99 H104 0.931 . S
C100 C99 1.351 . S
C100 N101 1.373 . S
C100 H128 0.930 . S
N101 C100 1.373 . S
N101 C103 1.340 . S
N102 C99 1.368 . S
N102 C103 1.321 . S
N102 Co105 2.135 . S
C103 N101 1.340 . S
C103 N102 1.321 . S
C103 H127 0.930 . S
H104 C99 0.931 . S
Co105 N102 2.135 . S
Co105 N108 2.121 1_545 S
Co105 O113 2.055 . S
Co105 O116 2.039 1_545 S
Co105 N119 2.140 . S
C106 O107 1.227 . S
C106 O116 1.265 . S
O107 C106 1.227 . S
N108 Co105 2.121 1_565 S
N108 C110 1.375 . S
N108 C111 1.313 . S
C109 C110 1.338 . S
C109 N112 1.377 . S
C109 H129 0.930 . S
C110 N108 1.375 . S
C110 C109 1.338 . S
C110 H114 0.931 . S
C111 N108 1.313 . S
C111 N112 1.344 . S
C111 H115 0.930 1_565 S
N112 C109 1.377 . S
N112 C111 1.344 . S
O113 Co105 2.055 . S
O113 C117 1.253 . S
H114 C110 0.931 . S
H115 C111 0.930 1_545 S
O116 Co105 2.039 1_565 S
O116 C106 1.265 . S
C117 O113 1.253 . S
C117 O118 1.227 . S
O118 C117 1.227 . S
N119 Co105 2.140 . S
N119 C122 1.346 . S
N119 C123 1.345 . S
C120 C121 1.387 . S
C120 C124 1.391 . S
C121 C120 1.387 . S
C121 C122 1.369 . S
C121 H130 0.929 . S
C122 N119 1.346 . S
C122 C121 1.369 . S
C122 H125 0.928 . S
C123 N119 1.345 . S
C123 C124 1.371 . S
C123 H126 0.931 . S
C124 C120 1.391 . S
C124 C123 1.371 . S
C124 H131 0.930 . S
H125 C122 0.928 . S
H126 C123 0.931 . S
H127 C103 0.930 . S
H128 C100 0.930 . S
H129 C109 0.930 . S
H130 C121 0.929 . S
H131 C124 0.930 . S
C132 C133 1.351 . S
C132 N135 1.368 . S
C132 H137 0.931 . S
C133 C132 1.351 . S
C133 N134 1.373 . S
C133 H161 0.930 . S
N134 C133 1.373 . S
N134 C136 1.340 . S
N135 C132 1.368 . S
N135 C136 1.321 . S
N135 Co138 2.135 . S
C136 N134 1.340 . S
C136 N135 1.321 . S
C136 H160 0.930 . S
H137 C132 0.931 . S
Co138 N135 2.135 . S
Co138 N141 2.121 1_655 S
Co138 O146 2.055 . S
Co138 O149 2.039 1_655 S
Co138 N152 2.140 . S
C139 O140 1.227 . S
C139 O149 1.265 . S
O140 C139 1.227 . S
N141 Co138 2.121 1_455 S
N141 C143 1.375 . S
N141 C144 1.313 . S
C142 C143 1.338 . S
C142 N145 1.377 . S
C142 H162 0.930 . S
C143 N141 1.375 . S
C143 C142 1.338 . S
C143 H147 0.931 . S
C144 N141 1.313 . S
C144 N145 1.344 . S
C144 H148 0.930 1_455 S
N145 C142 1.377 . S
N145 C144 1.344 . S
O146 Co138 2.055 . S
O146 C150 1.253 . S
H147 C143 0.931 . S
H148 C144 0.930 1_655 S
O149 Co138 2.039 1_455 S
O149 C139 1.265 . S
C150 O146 1.253 . S
C150 O151 1.227 . S
O151 C150 1.227 . S
N152 Co138 2.140 . S
N152 C155 1.346 . S
N152 C156 1.345 . S
C153 C154 1.387 . S
C153 C157 1.391 . S
C154 C153 1.387 . S
C154 C155 1.369 . S
C154 H163 0.929 . S
C155 N152 1.346 . S
C155 C154 1.369 . S
C155 H158 0.928 . S
C156 N152 1.345 . S
C156 C157 1.371 . S
C156 H159 0.931 . S
C157 C153 1.391 . S
C157 C156 1.371 . S
C157 H164 0.930 . S
H158 C155 0.928 . S
H159 C156 0.931 . S
H160 C136 0.930 . S
H161 C133 0.930 . S
H162 C142 0.930 . S
H163 C154 0.929 . S
H164 C157 0.930 . S
C165 C166 1.351 . S
C165 N168 1.368 . S
C165 H170 0.931 . S
C166 C165 1.351 . S
C166 N167 1.373 . S
C166 H194 0.930 . S
N167 C166 1.373 . S
N167 C169 1.340 . S
N168 C165 1.368 . S
N168 C169 1.321 . S
N168 Co171 2.135 . S
C169 N167 1.340 . S
C169 N168 1.321 . S
C169 H193 0.930 . S
H170 C165 0.931 . S
Co171 N168 2.135 . S
Co171 N174 2.121 . S
Co171 O179 2.055 . S
Co171 O182 2.039 . S
Co171 N185 2.140 . S
C172 O173 1.227 . S
C172 O182 1.265 . S
O173 C172 1.227 . S
N174 Co171 2.121 . S
N174 C176 1.375 . S
N174 C177 1.313 . S
C175 C176 1.338 . S
C175 N178 1.377 . S
C175 H195 0.930 . S
C176 N174 1.375 . S
C176 C175 1.338 . S
C176 H180 0.931 . S
C177 N174 1.313 . S
C177 N178 1.344 . S
C177 H181 0.930 . S
N178 C175 1.377 . S
N178 C177 1.344 . S
O179 Co171 2.055 . S
O179 C183 1.253 . S
H180 C176 0.931 . S
H181 C177 0.930 . S
O182 Co171 2.039 . S
O182 C172 1.265 . S
C183 O179 1.253 . S
C183 O184 1.227 . S
O184 C183 1.227 . S
N185 Co171 2.140 . S
N185 C188 1.346 . S
N185 C189 1.345 . S
C186 C187 1.387 . S
C186 C190 1.391 . S
C187 C186 1.387 . S
C187 C188 1.369 . S
C187 H196 0.929 . S
C188 N185 1.346 . S
C188 C187 1.369 . S
C188 H191 0.928 . S
C189 N185 1.345 . S
C189 C190 1.371 . S
C189 H192 0.931 . S
C190 C186 1.391 . S
C190 C189 1.371 . S
C190 H197 0.930 . S
H191 C188 0.928 . S
H192 C189 0.931 . S
H193 C169 0.930 . S
H194 C166 0.930 . S
H195 C175 0.930 . S
H196 C187 0.929 . S
H197 C190 0.930 . S
C198 C199 1.351 . S
C198 N201 1.368 . S
C198 H203 0.931 . S
C199 C198 1.351 . S
C199 N200 1.373 . S
C199 H227 0.930 . S
N200 C199 1.373 . S
N200 C202 1.340 . S
N201 C198 1.368 . S
N201 C202 1.321 . S
N201 Co204 2.135 . S
C202 N200 1.340 . S
C202 N201 1.321 . S
C202 H226 0.930 . S
H203 C198 0.931 . S
Co204 N201 2.135 . S
Co204 N207 2.121 . S
Co204 O212 2.055 . S
Co204 O215 2.039 . S
Co204 N218 2.140 . S
C205 O206 1.227 . S
C205 O215 1.265 . S
O206 C205 1.227 . S
N207 Co204 2.121 . S
N207 C209 1.375 . S
N207 C210 1.313 . S
C208 C209 1.338 . S
C208 N211 1.377 . S
C208 H228 0.930 . S
C209 N207 1.375 . S
C209 C208 1.338 . S
C209 H213 0.931 . S
C210 N207 1.313 . S
C210 N211 1.344 . S
C210 H214 0.930 . S
N211 C208 1.377 . S
N211 C210 1.344 . S
O212 Co204 2.055 . S
O212 C216 1.253 . S
H213 C209 0.931 . S
H214 C210 0.930 . S
O215 Co204 2.039 . S
O215 C205 1.265 . S
C216 O212 1.253 . S
C216 O217 1.227 . S
O217 C216 1.227 . S
N218 Co204 2.140 . S
N218 C221 1.346 . S
N218 C222 1.345 . S
C219 C220 1.387 . S
C219 C223 1.391 . S
C220 C219 1.387 . S
C220 C221 1.369 . S
C220 H229 0.929 . S
C221 N218 1.346 . S
C221 C220 1.369 . S
C221 H224 0.928 . S
C222 N218 1.345 . S
C222 C223 1.371 . S
C222 H225 0.931 . S
C223 C219 1.391 . S
C223 C222 1.371 . S
C223 H230 0.930 . S
H224 C221 0.928 . S
H225 C222 0.931 . S
H226 C202 0.930 . S
H227 C199 0.930 . S
H228 C208 0.930 . S
H229 C220 0.929 . S
H230 C223 0.930 . S
C231 C232 1.351 . S
C231 N234 1.368 . S
C231 H236 0.931 . S
C232 C231 1.351 . S
C232 N233 1.373 . S
C232 H260 0.930 . S
N233 C232 1.373 . S
N233 C235 1.340 . S
N234 C231 1.368 . S
N234 C235 1.321 . S
N234 Co237 2.135 . S
C235 N233 1.340 . S
C235 N234 1.321 . S
C235 H259 0.930 . S
H236 C231 0.931 . S
Co237 N234 2.135 . S
Co237 N240 2.121 . S
Co237 O245 2.055 . S
Co237 O248 2.039 . S
Co237 N251 2.140 . S
C238 O239 1.227 . S
C238 O248 1.265 . S
O239 C238 1.227 . S
N240 Co237 2.121 . S
N240 C242 1.375 . S
N240 C243 1.313 . S
C241 C242 1.338 . S
C241 N244 1.377 . S
C241 H261 0.930 . S
C242 N240 1.375 . S
C242 C241 1.338 . S
C242 H246 0.931 . S
C243 N240 1.313 . S
C243 N244 1.344 . S
C243 H247 0.930 . S
N244 C241 1.377 . S
N244 C243 1.344 . S
O245 Co237 2.055 . S
O245 C249 1.253 . S
H246 C242 0.931 . S
H247 C243 0.930 . S
O248 Co237 2.039 . S
O248 C238 1.265 . S
C249 O245 1.253 . S
C249 O250 1.227 . S
O250 C249 1.227 . S
N251 Co237 2.140 . S
N251 C254 1.346 . S
N251 C255 1.345 . S
C252 C253 1.387 . S
C252 C256 1.391 . S
C253 C252 1.387 . S
C253 C254 1.369 . S
C253 H262 0.929 . S
C254 N251 1.346 . S
C254 C253 1.369 . S
C254 H257 0.928 . S
C255 N251 1.345 . S
C255 C256 1.371 . S
C255 H258 0.931 . S
C256 C252 1.391 . S
C256 C255 1.371 . S
C256 H263 0.930 . S
H257 C254 0.928 . S
H258 C255 0.931 . S
H259 C235 0.930 . S
H260 C232 0.930 . S
H261 C241 0.930 . S
H262 C253 0.929 . S
H263 C256 0.930 . S
C264 C265 1.351 . S
C264 N267 1.368 . S
C264 H269 0.931 . S
C265 C264 1.351 . S
C265 N266 1.373 . S
C265 H293 0.930 . S
N266 C265 1.373 . S
N266 C268 1.340 . S
N267 C264 1.368 . S
N267 C268 1.321 . S
N267 Co270 2.135 . S
C268 N266 1.340 . S
C268 N267 1.321 . S
C268 H292 0.930 . S
H269 C264 0.931 . S
Co270 N267 2.135 . S
Co270 N273 2.121 . S
Co270 O278 2.055 . S
Co270 O281 2.039 . S
Co270 N284 2.140 . S
C271 O272 1.227 . S
C271 O281 1.265 . S
O272 C271 1.227 . S
N273 Co270 2.121 . S
N273 C275 1.375 . S
N273 C276 1.313 . S
C274 C275 1.338 . S
C274 N277 1.377 . S
C274 H294 0.930 . S
C275 N273 1.375 . S
C275 C274 1.338 . S
C275 H279 0.931 . S
C276 N273 1.313 . S
C276 N277 1.344 . S
C276 H280 0.930 . S
N277 C274 1.377 . S
N277 C276 1.344 . S
O278 Co270 2.055 . S
O278 C282 1.253 . S
H279 C275 0.931 . S
H280 C276 0.930 . S
O281 Co270 2.039 . S
O281 C271 1.265 . S
C282 O278 1.253 . S
C282 O283 1.227 . S
O283 C282 1.227 . S
N284 Co270 2.140 . S
N284 C287 1.346 . S
N284 C288 1.345 . S
C285 C286 1.387 . S
C285 C289 1.391 . S
C286 C285 1.387 . S
C286 C287 1.369 . S
C286 H295 0.929 . S
C287 N284 1.346 . S
C287 C286 1.369 . S
C287 H290 0.928 . S
C288 N284 1.345 . S
C288 C289 1.371 . S
C288 H291 0.931 . S
C289 C285 1.391 . S
C289 C288 1.371 . S
C289 H296 0.930 . S
H290 C287 0.928 . S
H291 C288 0.931 . S
H292 C268 0.930 . S
H293 C265 0.930 . S
H294 C274 0.930 . S
H295 C286 0.929 . S
H296 C289 0.930 . S
C297 C298 1.351 . S
C297 N300 1.368 . S
C297 H302 0.931 . S
C298 C297 1.351 . S
C298 N299 1.373 . S
C298 H326 0.930 . S
N299 C298 1.373 . S
N299 C301 1.340 . S
N300 C297 1.368 . S
N300 C301 1.321 . S
N300 Co303 2.135 . S
C301 N299 1.340 . S
C301 N300 1.321 . S
C301 H325 0.930 . S
H302 C297 0.931 . S
Co303 N300 2.135 . S
Co303 N306 2.121 . S
Co303 O311 2.055 . S
Co303 O314 2.039 . S
Co303 N317 2.140 . S
C304 O305 1.227 . S
C304 O314 1.265 . S
O305 C304 1.227 . S
N306 Co303 2.121 . S
N306 C308 1.375 . S
N306 C309 1.313 . S
C307 C308 1.338 . S
C307 N310 1.377 . S
C307 H327 0.930 . S
C308 N306 1.375 . S
C308 C307 1.338 . S
C308 H312 0.931 . S
C309 N306 1.313 . S
C309 N310 1.344 . S
C309 H313 0.930 . S
N310 C307 1.377 . S
N310 C309 1.344 . S
O311 Co303 2.055 . S
O311 C315 1.253 . S
H312 C308 0.931 . S
H313 C309 0.930 . S
O314 Co303 2.039 . S
O314 C304 1.265 . S
C315 O311 1.253 . S
C315 O316 1.227 . S
O316 C315 1.227 . S
N317 Co303 2.140 . S
N317 C320 1.346 . S
N317 C321 1.345 . S
C318 C319 1.387 . S
C318 C322 1.391 . S
C319 C318 1.387 . S
C319 C320 1.369 . S
C319 H328 0.929 . S
C320 N317 1.346 . S
C320 C319 1.369 . S
C320 H323 0.928 . S
C321 N317 1.345 . S
C321 C322 1.371 . S
C321 H324 0.931 . S
C322 C318 1.391 . S
C322 C321 1.371 . S
C322 H329 0.930 . S
H323 C320 0.928 . S
H324 C321 0.931 . S
H325 C301 0.930 . S
H326 C298 0.930 . S
H327 C307 0.930 . S
H328 C319 0.929 . S
H329 C322 0.930 . S
C330 C331 1.351 . S
C330 N333 1.368 . S
C330 H335 0.931 . S
C331 C330 1.351 . S
C331 N332 1.373 . S
C331 H359 0.930 . S
N332 C331 1.373 . S
N332 C334 1.340 . S
N333 C330 1.368 . S
N333 C334 1.321 . S
N333 Co336 2.135 . S
C334 N332 1.340 . S
C334 N333 1.321 . S
C334 H358 0.930 . S
H335 C330 0.931 . S
Co336 N333 2.135 . S
Co336 N339 2.121 . S
Co336 O344 2.055 . S
Co336 O347 2.039 . S
Co336 N350 2.140 . S
C337 O338 1.227 . S
C337 O347 1.265 . S
O338 C337 1.227 . S
N339 Co336 2.121 . S
N339 C341 1.375 . S
N339 C342 1.313 . S
C340 C341 1.338 . S
C340 N343 1.377 . S
C340 H360 0.930 . S
C341 N339 1.375 . S
C341 C340 1.338 . S
C341 H345 0.931 . S
C342 N339 1.313 . S
C342 N343 1.344 . S
C342 H346 0.930 . S
N343 C340 1.377 . S
N343 C342 1.344 . S
O344 Co336 2.055 . S
O344 C348 1.253 . S
H345 C341 0.931 . S
H346 C342 0.930 . S
O347 Co336 2.039 . S
O347 C337 1.265 . S
C348 O344 1.253 . S
C348 O349 1.227 . S
O349 C348 1.227 . S
N350 Co336 2.140 . S
N350 C353 1.346 . S
N350 C354 1.345 . S
C351 C352 1.387 . S
C351 C355 1.391 . S
C352 C351 1.387 . S
C352 C353 1.369 . S
C352 H361 0.929 . S
C353 N350 1.346 . S
C353 C352 1.369 . S
C353 H356 0.928 . S
C354 N350 1.345 . S
C354 C355 1.371 . S
C354 H357 0.931 . S
C355 C351 1.391 . S
C355 C354 1.371 . S
C355 H362 0.930 . S
H356 C353 0.928 . S
H357 C354 0.931 . S
H358 C334 0.930 . S
H359 C331 0.930 . S
H360 C340 0.930 . S
H361 C352 0.929 . S
H362 C355 0.930 . S
C363 C364 1.351 . S
C363 N366 1.368 . S
C363 H368 0.931 . S
C364 C363 1.351 . S
C364 N365 1.373 . S
C364 H392 0.930 . S
N365 C364 1.373 . S
N365 C367 1.340 . S
N366 C363 1.368 . S
N366 C367 1.321 . S
N366 Co369 2.135 . S
C367 N365 1.340 . S
C367 N366 1.321 . S
C367 H391 0.930 . S
H368 C363 0.931 . S
Co369 N366 2.135 . S
Co369 N372 2.121 . S
Co369 O377 2.055 . S
Co369 O380 2.039 . S
Co369 N383 2.140 . S
C370 O371 1.227 . S
C370 O380 1.265 . S
O371 C370 1.227 . S
N372 Co369 2.121 . S
N372 C374 1.375 . S
N372 C375 1.313 . S
C373 C374 1.338 . S
C373 N376 1.377 . S
C373 H393 0.930 . S
C374 N372 1.375 . S
C374 C373 1.338 . S
C374 H378 0.931 . S
C375 N372 1.313 . S
C375 N376 1.344 . S
C375 H379 0.930 . S
N376 C373 1.377 . S
N376 C375 1.344 . S
O377 Co369 2.055 . S
O377 C381 1.253 . S
H378 C374 0.931 . S
H379 C375 0.930 . S
O380 Co369 2.039 . S
O380 C370 1.265 . S
C381 O377 1.253 . S
C381 O382 1.227 . S
O382 C381 1.227 . S
N383 Co369 2.140 . S
N383 C386 1.346 . S
N383 C387 1.345 . S
C384 C385 1.387 . S
C384 C388 1.391 . S
C385 C384 1.387 . S
C385 C386 1.369 . S
C385 H394 0.929 . S
C386 N383 1.346 . S
C386 C385 1.369 . S
C386 H389 0.928 . S
C387 N383 1.345 . S
C387 C388 1.371 . S
C387 H390 0.931 . S
C388 C384 1.391 . S
C388 C387 1.371 . S
C388 H395 0.930 . S
H389 C386 0.928 . S
H390 C387 0.931 . S
H391 C367 0.930 . S
H392 C364 0.930 . S
H393 C373 0.930 . S
H394 C385 0.929 . S
H395 C388 0.930 . S
C396 C397 1.351 . S
C396 N399 1.368 . S
C396 H401 0.931 . S
C397 C396 1.351 . S
C397 N398 1.373 . S
C397 H425 0.930 . S
N398 C397 1.373 . S
N398 C400 1.340 . S
N399 C396 1.368 . S
N399 C400 1.321 . S
N399 Co402 2.135 . S
C400 N398 1.340 . S
C400 N399 1.321 . S
C400 H424 0.930 . S
H401 C396 0.931 . S
Co402 N399 2.135 . S
Co402 N405 2.121 . S
Co402 O410 2.055 . S
Co402 O413 2.039 . S
Co402 N416 2.140 . S
C403 O404 1.227 . S
C403 O413 1.265 . S
O404 C403 1.227 . S
N405 Co402 2.121 . S
N405 C407 1.375 . S
N405 C408 1.313 . S
C406 C407 1.338 . S
C406 N409 1.377 . S
C406 H426 0.930 . S
C407 N405 1.375 . S
C407 C406 1.338 . S
C407 H411 0.931 . S
C408 N405 1.313 . S
C408 N409 1.344 . S
C408 H412 0.930 . S
N409 C406 1.377 . S
N409 C408 1.344 . S
O410 Co402 2.055 . S
O410 C414 1.253 . S
H411 C407 0.931 . S
H412 C408 0.930 . S
O413 Co402 2.039 . S
O413 C403 1.265 . S
C414 O410 1.253 . S
C414 O415 1.227 . S
O415 C414 1.227 . S
N416 Co402 2.140 . S
N416 C419 1.346 . S
N416 C420 1.345 . S
C417 C418 1.387 . S
C417 C421 1.391 . S
C418 C417 1.387 . S
C418 C419 1.369 . S
C418 H427 0.929 . S
C419 N416 1.346 . S
C419 C418 1.369 . S
C419 H422 0.928 . S
C420 N416 1.345 . S
C420 C421 1.371 . S
C420 H423 0.931 . S
C421 C417 1.391 . S
C421 C420 1.371 . S
C421 H428 0.930 . S
H422 C419 0.928 . S
H423 C420 0.931 . S
H424 C400 0.930 . S
H425 C397 0.930 . S
H426 C406 0.930 . S
H427 C418 0.929 . S
H428 C421 0.930 . S
C429 C430 1.351 . S
C429 N432 1.368 . S
C429 H434 0.931 . S
C430 C429 1.351 . S
C430 N431 1.373 . S
C430 H458 0.930 . S
N431 C430 1.373 . S
N431 C433 1.340 . S
N432 C429 1.368 . S
N432 C433 1.321 . S
N432 Co435 2.135 . S
C433 N431 1.340 . S
C433 N432 1.321 . S
C433 H457 0.930 . S
H434 C429 0.931 . S
Co435 N432 2.135 . S
Co435 N438 2.121 . S
Co435 O443 2.055 . S
Co435 O446 2.039 . S
Co435 N449 2.140 . S
C436 O437 1.227 . S
C436 O446 1.265 . S
O437 C436 1.227 . S
N438 Co435 2.121 . S
N438 C440 1.375 . S
N438 C441 1.313 . S
C439 C440 1.338 . S
C439 N442 1.377 . S
C439 H459 0.930 . S
C440 N438 1.375 . S
C440 C439 1.338 . S
C440 H444 0.931 . S
C441 N438 1.313 . S
C441 N442 1.344 . S
C441 H445 0.930 . S
N442 C439 1.377 . S
N442 C441 1.344 . S
O443 Co435 2.055 . S
O443 C447 1.253 . S
H444 C440 0.931 . S
H445 C441 0.930 . S
O446 Co435 2.039 . S
O446 C436 1.265 . S
C447 O443 1.253 . S
C447 O448 1.227 . S
O448 C447 1.227 . S
N449 Co435 2.140 . S
N449 C452 1.346 . S
N449 C453 1.345 . S
C450 C451 1.387 . S
C450 C454 1.391 . S
C451 C450 1.387 . S
C451 C452 1.369 . S
C451 H460 0.929 . S
C452 N449 1.346 . S
C452 C451 1.369 . S
C452 H455 0.928 . S
C453 N449 1.345 . S
C453 C454 1.371 . S
C453 H456 0.931 . S
C454 C450 1.391 . S
C454 C453 1.371 . S
C454 H461 0.930 . S
H455 C452 0.928 . S
H456 C453 0.931 . S
H457 C433 0.930 . S
H458 C430 0.930 . S
H459 C439 0.930 . S
H460 C451 0.929 . S
H461 C454 0.930 . S
C462 C463 1.351 . S
C462 N465 1.368 . S
C462 H467 0.931 . S
C463 C462 1.351 . S
C463 N464 1.373 . S
C463 H491 0.930 . S
N464 C463 1.373 . S
N464 C466 1.340 . S
N465 C462 1.368 . S
N465 C466 1.321 . S
N465 Co468 2.135 . S
C466 N464 1.340 . S
C466 N465 1.321 . S
C466 H490 0.930 . S
H467 C462 0.931 . S
Co468 N465 2.135 . S
Co468 N471 2.121 . S
Co468 O476 2.055 . S
Co468 O479 2.039 . S
Co468 N482 2.140 . S
C469 O470 1.227 . S
C469 O479 1.265 . S
O470 C469 1.227 . S
N471 Co468 2.121 . S
N471 C473 1.375 . S
N471 C474 1.313 . S
C472 C473 1.338 . S
C472 N475 1.377 . S
C472 H492 0.930 . S
C473 N471 1.375 . S
C473 C472 1.338 . S
C473 H477 0.931 . S
C474 N471 1.313 . S
C474 N475 1.344 . S
C474 H478 0.930 . S
N475 C472 1.377 . S
N475 C474 1.344 . S
O476 Co468 2.055 . S
O476 C480 1.253 . S
H477 C473 0.931 . S
H478 C474 0.930 . S
O479 Co468 2.039 . S
O479 C469 1.265 . S
C480 O476 1.253 . S
C480 O481 1.227 . S
O481 C480 1.227 . S
N482 Co468 2.140 . S
N482 C485 1.346 . S
N482 C486 1.345 . S
C483 C484 1.387 . S
C483 C487 1.391 . S
C484 C483 1.387 . S
C484 C485 1.369 . S
C484 H493 0.929 . S
C485 N482 1.346 . S
C485 C484 1.369 . S
C485 H488 0.928 . S
C486 N482 1.345 . S
C486 C487 1.371 . S
C486 H489 0.931 . S
C487 C483 1.391 . S
C487 C486 1.371 . S
C487 H494 0.930 . S
H488 C485 0.928 . S
H489 C486 0.931 . S
H490 C466 0.930 . S
H491 C463 0.930 . S
H492 C472 0.930 . S
H493 C484 0.929 . S
H494 C487 0.930 . S
C495 C496 1.351 . S
C495 N498 1.368 . S
C495 H500 0.931 . S
C496 C495 1.351 . S
C496 N497 1.373 . S
C496 H524 0.930 . S
N497 C496 1.373 . S
N497 C499 1.340 . S
N498 C495 1.368 . S
N498 C499 1.321 . S
N498 Co501 2.135 . S
C499 N497 1.340 . S
C499 N498 1.321 . S
C499 H523 0.930 . S
H500 C495 0.931 . S
Co501 N498 2.135 . S
Co501 N504 2.121 . S
Co501 O509 2.055 . S
Co501 O512 2.039 . S
Co501 N515 2.140 . S
C502 O503 1.227 . S
C502 O512 1.265 . S
O503 C502 1.227 . S
N504 Co501 2.121 . S
N504 C506 1.375 . S
N504 C507 1.313 . S
C505 C506 1.338 . S
C505 N508 1.377 . S
C505 H525 0.930 . S
C506 N504 1.375 . S
C506 C505 1.338 . S
C506 H510 0.931 . S
C507 N504 1.313 . S
C507 N508 1.344 . S
C507 H511 0.930 . S
N508 C505 1.377 . S
N508 C507 1.344 . S
O509 Co501 2.055 . S
O509 C513 1.253 . S
H510 C506 0.931 . S
H511 C507 0.930 . S
O512 Co501 2.039 . S
O512 C502 1.265 . S
C513 O509 1.253 . S
C513 O514 1.227 . S
O514 C513 1.227 . S
N515 Co501 2.140 . S
N515 C518 1.346 . S
N515 C519 1.345 . S
C516 C517 1.387 . S
C516 C520 1.391 . S
C517 C516 1.387 . S
C517 C518 1.369 . S
C517 H526 0.929 . S
C518 N515 1.346 . S
C518 C517 1.369 . S
C518 H521 0.928 . S
C519 N515 1.345 . S
C519 C520 1.371 . S
C519 H522 0.931 . S
C520 C516 1.391 . S
C520 C519 1.371 . S
C520 H527 0.930 . S
H521 C518 0.928 . S
H522 C519 0.931 . S
H523 C499 0.930 . S
H524 C496 0.930 . S
H525 C505 0.930 . S
H526 C517 0.929 . S
H527 C520 0.930 . S
C528 C529 1.351 . S
C528 N531 1.368 . S
C528 H533 0.931 . S
C529 C528 1.351 . S
C529 N530 1.373 . S
C529 H557 0.930 . S
N530 C529 1.373 . S
N530 C532 1.340 . S
N531 C528 1.368 . S
N531 C532 1.321 . S
N531 Co534 2.135 . S
C532 N530 1.340 . S
C532 N531 1.321 . S
C532 H556 0.930 . S
H533 C528 0.931 . S
Co534 N531 2.135 . S
Co534 N537 2.121 . S
Co534 O542 2.055 . S
Co534 O545 2.039 . S
Co534 N548 2.140 . S
C535 O536 1.227 . S
C535 O545 1.265 . S
O536 C535 1.227 . S
N537 Co534 2.121 . S
N537 C539 1.375 . S
N537 C540 1.313 . S
C538 C539 1.338 . S
C538 N541 1.377 . S
C538 H558 0.930 . S
C539 N537 1.375 . S
C539 C538 1.338 . S
C539 H543 0.931 . S
C540 N537 1.313 . S
C540 N541 1.344 . S
C540 H544 0.930 . S
N541 C538 1.377 . S
N541 C540 1.344 . S
O542 Co534 2.055 . S
O542 C546 1.253 . S
H543 C539 0.931 . S
H544 C540 0.930 . S
O545 Co534 2.039 . S
O545 C535 1.265 . S
C546 O542 1.253 . S
C546 O547 1.227 . S
O547 C546 1.227 . S
N548 Co534 2.140 . S
N548 C551 1.346 . S
N548 C552 1.345 . S
C549 C550 1.387 . S
C549 C553 1.391 . S
C550 C549 1.387 . S
C550 C551 1.369 . S
C550 H559 0.929 . S
C551 N548 1.346 . S
C551 C550 1.369 . S
C551 H554 0.928 . S
C552 N548 1.345 . S
C552 C553 1.371 . S
C552 H555 0.931 . S
C553 C549 1.391 . S
C553 C552 1.371 . S
C553 H560 0.930 . S
H554 C551 0.928 . S
H555 C552 0.931 . S
H556 C532 0.930 . S
H557 C529 0.930 . S
H558 C538 0.930 . S
H559 C550 0.929 . S
H560 C553 0.930 . S
C561 C562 1.351 . S
C561 N564 1.368 . S
C561 H566 0.931 . S
C562 C561 1.351 . S
C562 N563 1.373 . S
C562 H590 0.930 . S
N563 C562 1.373 . S
N563 C565 1.340 . S
N564 C561 1.368 . S
N564 C565 1.321 . S
N564 Co567 2.135 . S
C565 N563 1.340 . S
C565 N564 1.321 . S
C565 H589 0.930 . S
H566 C561 0.931 . S
Co567 N564 2.135 . S
Co567 N570 2.121 . S
Co567 O575 2.055 . S
Co567 O578 2.039 . S
Co567 N581 2.140 . S
C568 O569 1.227 . S
C568 O578 1.265 . S
O569 C568 1.227 . S
N570 Co567 2.121 . S
N570 C572 1.375 . S
N570 C573 1.313 . S
C571 C572 1.338 . S
C571 N574 1.377 . S
C571 H591 0.930 . S
C572 N570 1.375 . S
C572 C571 1.338 . S
C572 H576 0.931 . S
C573 N570 1.313 . S
C573 N574 1.344 . S
C573 H577 0.930 . S
N574 C571 1.377 . S
N574 C573 1.344 . S
O575 Co567 2.055 . S
O575 C579 1.253 . S
H576 C572 0.931 . S
H577 C573 0.930 . S
O578 Co567 2.039 . S
O578 C568 1.265 . S
C579 O575 1.253 . S
C579 O580 1.227 . S
O580 C579 1.227 . S
N581 Co567 2.140 . S
N581 C584 1.346 . S
N581 C585 1.345 . S
C582 C583 1.387 . S
C582 C586 1.391 . S
C583 C582 1.387 . S
C583 C584 1.369 . S
C583 H592 0.929 . S
C584 N581 1.346 . S
C584 C583 1.369 . S
C584 H587 0.928 . S
C585 N581 1.345 . S
C585 C586 1.371 . S
C585 H588 0.931 . S
C586 C582 1.391 . S
C586 C585 1.371 . S
C586 H593 0.930 . S
H587 C584 0.928 . S
H588 C585 0.931 . S
H589 C565 0.930 . S
H590 C562 0.930 . S
H591 C571 0.930 . S
H592 C583 0.929 . S
H593 C586 0.930 . S
H594 C600 0.930 . S
H595 C603 0.930 . S
H596 C604 0.930 . S
H597 C605 0.930 . S
H598 C608 0.930 . S
H599 C609 0.930 . S
C600 H594 0.930 . S
C600 C601 1.355 . S
C600 C602 1.415 . S
C601 C600 1.355 . S
C601 C603 1.419 . S
C602 C600 1.415 . S
C602 C607 1.425 . S
C602 C609 1.409 . S
C603 H595 0.930 . S
C603 C601 1.419 . S
C603 C604 1.362 . S
C604 H596 0.930 . S
C604 C603 1.362 . S
C604 C607 1.409 . S
C605 H597 0.930 . S
C605 C606 1.355 . S
C605 C607 1.415 . S
C606 C605 1.355 . S
C606 C608 1.419 . S
C607 C602 1.425 . S
C607 C604 1.409 . S
C607 C605 1.415 . S
C608 H598 0.930 . S
C608 C606 1.419 . S
C608 C609 1.362 . S
C609 H599 0.930 . S
C609 C602 1.409 . S
C609 C608 1.362 . S
H610 C616 0.930 . S
H611 C619 0.930 . S
H612 C620 0.930 . S
H613 C621 0.930 . S
H614 C624 0.930 . S
H615 C625 0.930 . S
C616 H610 0.930 . S
C616 C617 1.355 . S
C616 C618 1.415 . S
C617 C616 1.355 . S
C617 C619 1.419 . S
C618 C616 1.415 . S
C618 C623 1.425 . S
C618 C625 1.409 . S
C619 H611 0.930 . S
C619 C617 1.419 . S
C619 C620 1.362 . S
C620 H612 0.930 . S
C620 C619 1.362 . S
C620 C623 1.409 . S
C621 H613 0.930 . S
C621 C622 1.355 . S
C621 C623 1.415 . S
C622 C621 1.355 . S
C622 C624 1.419 . S
C623 C618 1.425 . S
C623 C620 1.409 . S
C623 C621 1.415 . S
C624 H614 0.930 . S
C624 C622 1.419 . S
C624 C625 1.362 . S
C625 H615 0.930 . S
C625 C618 1.409 . S
C625 C624 1.362 . S
H626 C632 0.930 . S
H627 C635 0.930 . S
H628 C636 0.930 . S
H629 C637 0.930 . S
H630 C640 0.930 . S
H631 C641 0.930 . S
C632 H626 0.930 . S
C632 C633 1.355 . S
C632 C634 1.415 . S
C633 C632 1.355 . S
C633 C635 1.419 . S
C634 C632 1.415 . S
C634 C639 1.425 . S
C634 C641 1.409 . S
C635 H627 0.930 . S
C635 C633 1.419 . S
C635 C636 1.362 . S
C636 H628 0.930 . S
C636 C635 1.362 . S
C636 C639 1.409 . S
C637 H629 0.930 . S
C637 C638 1.355 . S
C637 C639 1.415 . S
C638 C637 1.355 . S
C638 C640 1.419 . S
C639 C634 1.425 . S
C639 C636 1.409 . S
C639 C637 1.415 . S
C640 H630 0.930 . S
C640 C638 1.419 . S
C640 C641 1.362 . S
C641 H631 0.930 . S
C641 C634 1.409 . S
C641 C640 1.362 . S
H642 C648 0.930 . S
H643 C651 0.930 . S
H644 C652 0.930 . S
H645 C653 0.930 . S
H646 C656 0.930 . S
H647 C657 0.930 . S
C648 H642 0.930 . S
C648 C649 1.355 . S
C648 C650 1.415 . S
C649 C648 1.355 . S
C649 C651 1.419 . S
C650 C648 1.415 . S
C650 C655 1.425 . S
C650 C657 1.409 . S
C651 H643 0.930 . S
C651 C649 1.419 . S
C651 C652 1.362 . S
C652 H644 0.930 . S
C652 C651 1.362 . S
C652 C655 1.409 . S
C653 H645 0.930 . S
C653 C654 1.355 . S
C653 C655 1.415 . S
C654 C653 1.355 . S
C654 C656 1.419 . S
C655 C650 1.425 . S
C655 C652 1.409 . S
C655 C653 1.415 . S
C656 H646 0.930 . S
C656 C654 1.419 . S
C656 C657 1.362 . S
C657 H647 0.930 . S
C657 C650 1.409 . S
C657 C656 1.362 . S
H658 C664 0.930 . S
H659 C667 0.930 . S
H660 C668 0.930 . S
H661 C669 0.930 . S
H662 C672 0.930 . S
H663 C673 0.930 . S
C664 H658 0.930 . S
C664 C665 1.355 . S
C664 C666 1.415 . S
C665 C664 1.355 . S
C665 C667 1.419 . S
C666 C664 1.415 . S
C666 C671 1.425 . S
C666 C673 1.409 . S
C667 H659 0.930 . S
C667 C665 1.419 . S
C667 C668 1.362 . S
C668 H660 0.930 . S
C668 C667 1.362 . S
C668 C671 1.409 . S
C669 H661 0.930 . S
C669 C670 1.355 . S
C669 C671 1.415 . S
C670 C669 1.355 . S
C670 C672 1.419 . S
C671 C666 1.425 . S
C671 C668 1.409 . S
C671 C669 1.415 . S
C672 H662 0.930 . S
C672 C670 1.419 . S
C672 C673 1.362 . S
C673 H663 0.930 . S
C673 C666 1.409 . S
C673 C672 1.362 . S
H674 C680 0.930 . S
H675 C683 0.930 . S
H676 C684 0.930 . S
H677 C685 0.930 . S
H678 C688 0.930 . S
H679 C689 0.930 . S
C680 H674 0.930 . S
C680 C681 1.355 . S
C680 C682 1.415 . S
C681 C680 1.355 . S
C681 C683 1.419 . S
C682 C680 1.415 . S
C682 C687 1.425 . S
C682 C689 1.409 . S
C683 H675 0.930 . S
C683 C681 1.419 . S
C683 C684 1.362 . S
C684 H676 0.930 . S
C684 C683 1.362 . S
C684 C687 1.409 . S
C685 H677 0.930 . S
C685 C686 1.355 . S
C685 C687 1.415 . S
C686 C685 1.355 . S
C686 C688 1.419 . S
C687 C682 1.425 . S
C687 C684 1.409 . S
C687 C685 1.415 . S
C688 H678 0.930 . S
C688 C686 1.419 . S
C688 C689 1.362 . S
C689 H679 0.930 . S
C689 C682 1.409 . S
C689 C688 1.362 . S
H690 C696 0.930 . S
H691 C699 0.930 . S
H692 C700 0.930 . S
H693 C701 0.930 . S
H694 C704 0.930 . S
H695 C705 0.930 . S
C696 H690 0.930 . S
C696 C697 1.355 . S
C696 C698 1.415 . S
C697 C696 1.355 . S
C697 C699 1.419 . S
C698 C696 1.415 . S
C698 C703 1.425 . S
C698 C705 1.409 . S
C699 H691 0.930 . S
C699 C697 1.419 . S
C699 C700 1.362 . S
C700 H692 0.930 . S
C700 C699 1.362 . S
C700 C703 1.409 . S
C701 H693 0.930 . S
C701 C702 1.355 . S
C701 C703 1.415 . S
C702 C701 1.355 . S
C702 C704 1.419 . S
C703 C698 1.425 . S
C703 C700 1.409 . S
C703 C701 1.415 . S
C704 H694 0.930 . S
C704 C702 1.419 . S
C704 C705 1.362 . S
C705 H695 0.930 . S
C705 C698 1.409 . S
C705 C704 1.362 . S
H706 C712 0.930 . S
H707 C715 0.930 . S
H708 C716 0.930 . S
H709 C717 0.930 . S
H710 C720 0.930 . S
H711 C721 0.930 . S
C712 H706 0.930 . S
C712 C713 1.355 . S
C712 C714 1.415 . S
C713 C712 1.355 . S
C713 C715 1.419 . S
C714 C712 1.415 . S
C714 C719 1.425 1_565 S
C714 C721 1.409 . S
C715 H707 0.930 . S
C715 C713 1.419 . S
C715 C716 1.362 1_565 S
C716 H708 0.930 . S
C716 C715 1.362 1_545 S
C716 C719 1.409 . S
C717 H709 0.930 . S
C717 C718 1.355 . S
C717 C719 1.415 . S
C718 C717 1.355 . S
C718 C720 1.419 . S
C719 C714 1.425 1_545 S
C719 C716 1.409 . S
C719 C717 1.415 . S
C720 H710 0.930 . S
C720 C718 1.419 . S
C720 C721 1.362 1_545 S
C721 H711 0.930 . S
C721 C714 1.409 . S
C721 C720 1.362 1_565 S
H722 C728 0.930 . S
H723 C731 0.930 . S
H724 C732 0.930 . S
H725 C733 0.930 . S
H726 C736 0.930 . S
H727 C737 0.930 . S
C728 H722 0.930 . S
C728 C729 1.355 . S
C728 C730 1.415 . S
C729 C728 1.355 . S
C729 C731 1.419 . S
C730 C728 1.415 . S
C730 C735 1.425 1_455 S
C730 C737 1.409 . S
C731 H723 0.930 . S
C731 C729 1.419 . S
C731 C732 1.362 1_455 S
C732 H724 0.930 . S
C732 C731 1.362 1_655 S
C732 C735 1.409 . S
C733 H725 0.930 . S
C733 C734 1.355 . S
C733 C735 1.415 . S
C734 C733 1.355 . S
C734 C736 1.419 . S
C735 C730 1.425 1_655 S
C735 C732 1.409 . S
C735 C733 1.415 . S
C736 H726 0.930 . S
C736 C734 1.419 . S
C736 C737 1.362 1_655 S
C737 H727 0.930 . S
C737 C730 1.409 . S
C737 C736 1.362 1_455 S
H738 C744 0.930 . S
H739 C747 0.930 . S
H740 C748 0.930 . S
H741 C749 0.930 . S
H742 C752 0.930 . S
H743 C753 0.930 . S
C744 H738 0.930 . S
C744 C745 1.355 . S
C744 C746 1.415 . S
C745 C744 1.355 . S
C745 C747 1.419 . S
C746 C744 1.415 . S
C746 C751 1.425 . S
C746 C753 1.409 . S
C747 H739 0.930 . S
C747 C745 1.419 . S
C747 C748 1.362 . S
C748 H740 0.930 . S
C748 C747 1.362 . S
C748 C751 1.409 . S
C749 H741 0.930 . S
C749 C750 1.355 . S
C749 C751 1.415 . S
C750 C749 1.355 . S
C750 C752 1.419 . S
C751 C746 1.425 . S
C751 C748 1.409 . S
C751 C749 1.415 . S
C752 H742 0.930 . S
C752 C750 1.419 . S
C752 C753 1.362 . S
C753 H743 0.930 . S
C753 C746 1.409 . S
C753 C752 1.362 . S
H754 C760 0.930 . S
H755 C763 0.930 . S
H756 C764 0.930 . S
H757 C765 0.930 . S
H758 C768 0.930 . S
H759 C769 0.930 . S
C760 H754 0.930 . S
C760 C761 1.355 . S
C760 C762 1.415 . S
C761 C760 1.355 . S
C761 C763 1.419 . S
C762 C760 1.415 . S
C762 C767 1.425 . S
C762 C769 1.409 . S
C763 H755 0.930 . S
C763 C761 1.419 . S
C763 C764 1.362 . S
C764 H756 0.930 . S
C764 C763 1.362 . S
C764 C767 1.409 . S
C765 H757 0.930 . S
C765 C766 1.355 . S
C765 C767 1.415 . S
C766 C765 1.355 . S
C766 C768 1.419 . S
C767 C762 1.425 . S
C767 C764 1.409 . S
C767 C765 1.415 . S
C768 H758 0.930 . S
C768 C766 1.419 . S
C768 C769 1.362 . S
C769 H759 0.930 . S
C769 C762 1.409 . S
C769 C768 1.362 . S
H770 C776 0.930 . S
H771 C779 0.930 . S
H772 C780 0.930 . S
H773 C781 0.930 . S
H774 C784 0.930 . S
H775 C785 0.930 . S
C776 H770 0.930 . S
C776 C777 1.355 . S
C776 C778 1.415 . S
C777 C776 1.355 . S
C777 C779 1.419 . S
C778 C776 1.415 . S
C778 C783 1.425 . S
C778 C785 1.409 . S
C779 H771 0.930 . S
C779 C777 1.419 . S
C779 C780 1.362 . S
C780 H772 0.930 . S
C780 C779 1.362 . S
C780 C783 1.409 . S
C781 H773 0.930 . S
C781 C782 1.355 . S
C781 C783 1.415 . S
C782 C781 1.355 . S
C782 C784 1.419 . S
C783 C778 1.425 . S
C783 C780 1.409 . S
C783 C781 1.415 . S
C784 H774 0.930 . S
C784 C782 1.419 . S
C784 C785 1.362 . S
C785 H775 0.930 . S
C785 C778 1.409 . S
C785 C784 1.362 . S
H786 C792 0.930 . S
H787 C795 0.930 . S
H788 C796 0.930 . S
H789 C797 0.930 . S
H790 C800 0.930 . S
H791 C801 0.930 . S
C792 H786 0.930 . S
C792 C793 1.355 . S
C792 C794 1.415 . S
C793 C792 1.355 . S
C793 C795 1.419 . S
C794 C792 1.415 . S
C794 C799 1.425 . S
C794 C801 1.409 . S
C795 H787 0.930 . S
C795 C793 1.419 . S
C795 C796 1.362 . S
C796 H788 0.930 . S
C796 C795 1.362 . S
C796 C799 1.409 . S
C797 H789 0.930 . S
C797 C798 1.355 . S
C797 C799 1.415 . S
C798 C797 1.355 . S
C798 C800 1.419 . S
C799 C794 1.425 . S
C799 C796 1.409 . S
C799 C797 1.415 . S
C800 H790 0.930 . S
C800 C798 1.419 . S
C800 C801 1.362 . S
C801 H791 0.930 . S
C801 C794 1.409 . S
C801 C800 1.362 . S
H802 C808 0.930 . S
H803 C811 0.930 . S
H804 C812 0.930 . S
H805 C813 0.930 . S
H806 C816 0.930 . S
H807 C817 0.930 . S
C808 H802 0.930 . S
C808 C809 1.355 . S
C808 C810 1.415 . S
C809 C808 1.355 . S
C809 C811 1.419 . S
C810 C808 1.415 . S
C810 C815 1.425 . S
C810 C817 1.409 . S
C811 H803 0.930 . S
C811 C809 1.419 . S
C811 C812 1.362 . S
C812 H804 0.930 . S
C812 C811 1.362 . S
C812 C815 1.409 . S
C813 H805 0.930 . S
C813 C814 1.355 . S
C813 C815 1.415 . S
C814 C813 1.355 . S
C814 C816 1.419 . S
C815 C810 1.425 . S
C815 C812 1.409 . S
C815 C813 1.415 . S
C816 H806 0.930 . S
C816 C814 1.419 . S
C816 C817 1.362 . S
C817 H807 0.930 . S
C817 C810 1.409 . S
C817 C816 1.362 . S
H818 C824 0.930 . S
H819 C827 0.930 . S
H820 C828 0.930 . S
H821 C829 0.930 . S
H822 C832 0.930 . S
H823 C833 0.930 . S
C824 H818 0.930 . S
C824 C825 1.355 . S
C824 C826 1.415 . S
C825 C824 1.355 . S
C825 C827 1.419 . S
C826 C824 1.415 . S
C826 C831 1.425 . S
C826 C833 1.409 . S
C827 H819 0.930 . S
C827 C825 1.419 . S
C827 C828 1.362 . S
C828 H820 0.930 . S
C828 C827 1.362 . S
C828 C831 1.409 . S
C829 H821 0.930 . S
C829 C830 1.355 . S
C829 C831 1.415 . S
C830 C829 1.355 . S
C830 C832 1.419 . S
C831 C826 1.425 . S
C831 C828 1.409 . S
C831 C829 1.415 . S
C832 H822 0.930 . S
C832 C830 1.419 . S
C832 C833 1.362 . S
C833 H823 0.930 . S
C833 C826 1.409 . S
C833 C832 1.362 . S
H834 C840 0.930 . S
H835 C843 0.930 . S
H836 C844 0.930 . S
H837 C845 0.930 . S
H838 C848 0.930 . S
H839 C849 0.930 . S
C840 H834 0.930 . S
C840 C841 1.355 . S
C840 C842 1.415 . S
C841 C840 1.355 . S
C841 C843 1.419 . S
C842 C840 1.415 . S
C842 C847 1.425 1_654 S
C842 C849 1.409 1_655 S
C843 H835 0.930 . S
C843 C841 1.419 . S
C843 C844 1.362 1_554 S
C844 H836 0.930 . S
C844 C843 1.362 1_556 S
C844 C847 1.409 1_655 S
C845 H837 0.930 . S
C845 C846 1.355 . S
C845 C847 1.415 . S
C846 C845 1.355 . S
C846 C848 1.419 . S
C847 C842 1.425 1_456 S
C847 C844 1.409 1_455 S
C847 C845 1.415 . S
C848 H838 0.930 . S
C848 C846 1.419 . S
C848 C849 1.362 1_556 S
C849 H839 0.930 . S
C849 C842 1.409 1_455 S
C849 C848 1.362 1_554 S
H850 C856 0.930 . S
H851 C859 0.930 . S
H852 C860 0.930 . S
H853 C861 0.930 . S
H854 C864 0.930 . S
H855 C865 0.930 . S
C856 H850 0.930 . S
C856 C857 1.355 . S
C856 C858 1.415 . S
C857 C856 1.355 . S
C857 C859 1.419 . S
C858 C856 1.415 . S
C858 C863 1.425 1_556 S
C858 C865 1.409 . S
C859 H851 0.930 . S
C859 C857 1.419 . S
C859 C860 1.362 1_556 S
C860 H852 0.930 . S
C860 C859 1.362 1_554 S
C860 C863 1.409 . S
C861 H853 0.930 . S
C861 C862 1.355 . S
C861 C863 1.415 . S
C862 C861 1.355 . S
C862 C864 1.419 . S
C863 C858 1.425 1_554 S
C863 C860 1.409 . S
C863 C861 1.415 . S
C864 H854 0.930 . S
C864 C862 1.419 . S
C864 C865 1.362 1_554 S
C865 H855 0.930 . S
C865 C858 1.409 . S
C865 C864 1.362 1_556 S
H866 C872 0.930 1_556 S
H867 C875 0.930 . S
H868 C876 0.930 . S
H869 C877 0.930 1_554 S
H870 C880 0.930 . S
H871 C881 0.930 . S
C872 H866 0.930 1_554 S
C872 C873 1.355 . S
C872 C874 1.415 1_554 S
C873 C872 1.355 . S
C873 C875 1.419 . S
C874 C872 1.415 1_556 S
C874 C879 1.425 1_546 S
C874 C881 1.409 . S
C875 H867 0.930 . S
C875 C873 1.419 . S
C875 C876 1.362 1_545 S
C876 H868 0.930 . S
C876 C875 1.362 1_565 S
C876 C879 1.409 . S
C877 H869 0.930 1_556 S
C877 C878 1.355 . S
C877 C879 1.415 1_556 S
C878 C877 1.355 . S
C878 C880 1.419 . S
C879 C874 1.425 1_564 S
C879 C876 1.409 . S
C879 C877 1.415 1_554 S
C880 H870 0.930 . S
C880 C878 1.419 . S
C880 C881 1.362 1_565 S
C881 H871 0.930 . S
C881 C874 1.409 . S
C881 C880 1.362 1_545 S
H882 C888 0.930 1_655 S
H883 C891 0.930 . S
H884 C892 0.930 . S
H885 C893 0.930 1_455 S
H886 C896 0.930 . S
H887 C897 0.930 . S
C888 H882 0.930 1_455 S
C888 C889 1.355 . S
C888 C890 1.415 1_455 S
C889 C888 1.355 . S
C889 C891 1.419 . S
C890 C888 1.415 1_655 S
C890 C895 1.425 1_654 S
C890 C897 1.409 . S
C891 H883 0.930 . S
C891 C889 1.419 . S
C891 C892 1.362 1_554 S
C892 H884 0.930 . S
C892 C891 1.362 1_556 S
C892 C895 1.409 . S
C893 H885 0.930 1_655 S
C893 C894 1.355 . S
C893 C895 1.415 1_655 S
C894 C893 1.355 . S
C894 C896 1.419 . S
C895 C890 1.425 1_456 S
C895 C892 1.409 . S
C895 C893 1.415 1_455 S
C896 H886 0.930 . S
C896 C894 1.419 . S
C896 C897 1.362 1_556 S
C897 H887 0.930 . S
C897 C890 1.409 . S
C897 C896 1.362 1_554 S
H898 C904 0.930 . S
H899 C907 0.930 . S
H900 C908 0.930 . S
H901 C909 0.930 . S
H902 C912 0.930 . S
H903 C913 0.930 . S
C904 H898 0.930 . S
C904 C905 1.355 . S
C904 C906 1.415 1_556 S
C905 C904 1.355 . S
C905 C907 1.419 . S
C906 C904 1.415 1_554 S
C906 C911 1.425 1_554 S
C906 C913 1.409 . S
C907 H899 0.930 . S
C907 C905 1.419 . S
C907 C908 1.362 . S
C908 H900 0.930 . S
C908 C907 1.362 . S
C908 C911 1.409 . S
C909 H901 0.930 . S
C909 C910 1.355 . S
C909 C911 1.415 1_554 S
C910 C909 1.355 . S
C910 C912 1.419 . S
C911 C906 1.425 1_556 S
C911 C908 1.409 . S
C911 C909 1.415 1_556 S
C912 H902 0.930 . S
C912 C910 1.419 . S
C912 C913 1.362 . S
C913 H903 0.930 . S
C913 C906 1.409 . S
C913 C912 1.362 . S
H914 C920 0.930 . S
H915 C923 0.930 . S
H916 C924 0.930 1_565 S
H917 C925 0.930 . S
H918 C928 0.930 . S
H919 C929 0.930 1_545 S
C920 H914 0.930 . S
C920 C921 1.355 . S
C920 C922 1.415 . S
C921 C920 1.355 . S
C921 C923 1.419 . S
C922 C920 1.415 . S
C922 C927 1.425 1_546 S
C922 C929 1.409 1_546 S
C923 H915 0.930 . S
C923 C921 1.419 . S
C923 C924 1.362 . S
C924 H916 0.930 1_545 S
C924 C923 1.362 . S
C924 C927 1.409 1_546 S
C925 H917 0.930 . S
C925 C926 1.355 . S
C925 C927 1.415 . S
C926 C925 1.355 . S
C926 C928 1.419 . S
C927 C922 1.425 1_564 S
C927 C924 1.409 1_564 S
C927 C925 1.415 . S
C928 H918 0.930 . S
C928 C926 1.419 . S
C928 C929 1.362 . S
C929 H919 0.930 1_565 S
C929 C922 1.409 1_564 S
C929 C928 1.362 . S
H930 C936 0.930 . S
H931 C939 0.930 . S
H932 C940 0.930 . S
H933 C941 0.930 . S
H934 C944 0.930 . S
H935 C945 0.930 . S
C936 H930 0.930 . S
C936 C937 1.355 . S
C936 C938 1.415 . S
C937 C936 1.355 . S
C937 C939 1.419 . S
C938 C936 1.415 . S
C938 C943 1.425 . S
C938 C945 1.409 . S
C939 H931 0.930 . S
C939 C937 1.419 . S
C939 C940 1.362 . S
C940 H932 0.930 . S
C940 C939 1.362 . S
C940 C943 1.409 . S
C941 H933 0.930 . S
C941 C942 1.355 . S
C941 C943 1.415 . S
C942 C941 1.355 . S
C942 C944 1.419 . S
C943 C938 1.425 . S
C943 C940 1.409 . S
C943 C941 1.415 . S
C944 H934 0.930 . S
C944 C942 1.419 . S
C944 C945 1.362 . S
C945 H935 0.930 . S
C945 C938 1.409 . S
C945 C944 1.362 . S
H946 C952 0.930 . S
H947 C955 0.930 . S
H948 C956 0.930 . S
H949 C957 0.930 . S
H950 C960 0.930 . S
H951 C961 0.930 . S
C952 H946 0.930 . S
C952 C953 1.355 . S
C952 C954 1.415 . S
C953 C952 1.355 . S
C953 C955 1.419 . S
C954 C952 1.415 . S
C954 C959 1.425 . S
C954 C961 1.409 . S
C955 H947 0.930 . S
C955 C953 1.419 . S
C955 C956 1.362 . S
C956 H948 0.930 . S
C956 C955 1.362 . S
C956 C959 1.409 . S
C957 H949 0.930 . S
C957 C958 1.355 . S
C957 C959 1.415 . S
C958 C957 1.355 . S
C958 C960 1.419 . S
C959 C954 1.425 . S
C959 C956 1.409 . S
C959 C957 1.415 . S
C960 H950 0.930 . S
C960 C958 1.419 . S
C960 C961 1.362 . S
C961 H951 0.930 . S
C961 C954 1.409 . S
C961 C960 1.362 . S
H962 C968 0.930 . S
H963 C971 0.930 . S
H964 C972 0.930 . S
H965 C973 0.930 . S
H966 C976 0.930 . S
H967 C977 0.930 . S
C968 H962 0.930 . S
C968 C969 1.355 . S
C968 C970 1.415 . S
C969 C968 1.355 . S
C969 C971 1.419 . S
C970 C968 1.415 . S
C970 C975 1.425 . S
C970 C977 1.409 . S
C971 H963 0.930 . S
C971 C969 1.419 . S
C971 C972 1.362 . S
C972 H964 0.930 . S
C972 C971 1.362 . S
C972 C975 1.409 . S
C973 H965 0.930 . S
C973 C974 1.355 . S
C973 C975 1.415 . S
C974 C973 1.355 . S
C974 C976 1.419 . S
C975 C970 1.425 . S
C975 C972 1.409 . S
C975 C973 1.415 . S
C976 H966 0.930 . S
C976 C974 1.419 . S
C976 C977 1.362 . S
C977 H967 0.930 . S
C977 C970 1.409 . S
C977 C976 1.362 . S
H978 C984 0.930 . S
H979 C987 0.930 . S
H980 C988 0.930 . S
H981 C989 0.930 . S
H982 C992 0.930 . S
H983 C993 0.930 . S
C984 H978 0.930 . S
C984 C985 1.355 . S
C984 C986 1.415 . S
C985 C984 1.355 . S
C985 C987 1.419 . S
C986 C984 1.415 . S
C986 C991 1.425 . S
C986 C993 1.409 . S
C987 H979 0.930 . S
C987 C985 1.419 . S
C987 C988 1.362 . S
C988 H980 0.930 . S
C988 C987 1.362 . S
C988 C991 1.409 . S
C989 H981 0.930 . S
C989 C990 1.355 . S
C989 C991 1.415 . S
C990 C989 1.355 . S
C990 C992 1.419 . S
C991 C986 1.425 . S
C991 C988 1.409 . S
C991 C989 1.415 . S
C992 H982 0.930 . S
C992 C990 1.419 . S
C992 C993 1.362 . S
C993 H983 0.930 . S
C993 C986 1.409 . S
C993 C992 1.362 . S
H994 C1000 0.930 . S
H995 C1003 0.930 . S
H996 C1004 0.930 . S
H997 C1005 0.930 . S
H998 C1008 0.930 . S
H999 C1009 0.930 . S
C1000 H994 0.930 . S
C1000 C1001 1.355 . S
C1000 C1002 1.415 . S
C1001 C1000 1.355 . S
C1001 C1003 1.419 . S
C1002 C1000 1.415 . S
C1002 C1007 1.425 . S
C1002 C1009 1.409 . S
C1003 H995 0.930 . S
C1003 C1001 1.419 . S
C1003 C1004 1.362 . S
C1004 H996 0.930 . S
C1004 C1003 1.362 . S
C1004 C1007 1.409 . S
C1005 H997 0.930 . S
C1005 C1006 1.355 . S
C1005 C1007 1.415 . S
C1006 C1005 1.355 . S
C1006 C1008 1.419 . S
C1007 C1002 1.425 . S
C1007 C1004 1.409 . S
C1007 C1005 1.415 . S
C1008 H998 0.930 . S
C1008 C1006 1.419 . S
C1008 C1009 1.362 . S
C1009 H999 0.930 . S
C1009 C1002 1.409 . S
C1009 C1008 1.362 . S
H1010 C1016 0.930 . S
H1011 C1019 0.930 . S
H1012 C1020 0.930 . S
H1013 C1021 0.930 . S
H1014 C1024 0.930 . S
H1015 C1025 0.930 . S
C1016 H1010 0.930 . S
C1016 C1017 1.355 . S
C1016 C1018 1.415 . S
C1017 C1016 1.355 . S
C1017 C1019 1.419 . S
C1018 C1016 1.415 . S
C1018 C1023 1.425 . S
C1018 C1025 1.409 . S
C1019 H1011 0.930 . S
C1019 C1017 1.419 . S
C1019 C1020 1.362 . S
C1020 H1012 0.930 . S
C1020 C1019 1.362 . S
C1020 C1023 1.409 . S
C1021 H1013 0.930 . S
C1021 C1022 1.355 . S
C1021 C1023 1.415 . S
C1022 C1021 1.355 . S
C1022 C1024 1.419 . S
C1023 C1018 1.425 . S
C1023 C1020 1.409 . S
C1023 C1021 1.415 . S
C1024 H1014 0.930 . S
C1024 C1022 1.419 . S
C1024 C1025 1.362 . S
C1025 H1015 0.930 . S
C1025 C1018 1.409 . S
C1025 C1024 1.362 . S
H1026 C1032 0.930 . S
H1027 C1035 0.930 . S
H1028 C1036 0.930 . S
H1029 C1037 0.930 . S
H1030 C1040 0.930 . S
H1031 C1041 0.930 . S
C1032 H1026 0.930 . S
C1032 C1033 1.355 . S
C1032 C1034 1.415 . S
C1033 C1032 1.355 . S
C1033 C1035 1.419 . S
C1034 C1032 1.415 . S
C1034 C1039 1.425 . S
C1034 C1041 1.409 . S
C1035 H1027 0.930 . S
C1035 C1033 1.419 . S
C1035 C1036 1.362 . S
C1036 H1028 0.930 . S
C1036 C1035 1.362 . S
C1036 C1039 1.409 . S
C1037 H1029 0.930 . S
C1037 C1038 1.355 . S
C1037 C1039 1.415 . S
C1038 C1037 1.355 . S
C1038 C1040 1.419 . S
C1039 C1034 1.425 . S
C1039 C1036 1.409 . S
C1039 C1037 1.415 . S
C1040 H1030 0.930 . S
C1040 C1038 1.419 . S
C1040 C1041 1.362 . S
C1041 H1031 0.930 . S
C1041 C1034 1.409 . S
C1041 C1040 1.362 . S
H1042 C1048 0.930 . S
H1043 C1051 0.930 . S
H1044 C1052 0.930 . S
H1045 C1053 0.930 . S
H1046 C1056 0.930 . S
H1047 C1057 0.930 . S
C1048 H1042 0.930 . S
C1048 C1049 1.355 . S
C1048 C1050 1.415 . S
C1049 C1048 1.355 . S
C1049 C1051 1.419 . S
C1050 C1048 1.415 . S
C1050 C1055 1.425 . S
C1050 C1057 1.409 . S
C1051 H1043 0.930 . S
C1051 C1049 1.419 . S
C1051 C1052 1.362 . S
C1052 H1044 0.930 . S
C1052 C1051 1.362 . S
C1052 C1055 1.409 . S
C1053 H1045 0.930 . S
C1053 C1054 1.355 . S
C1053 C1055 1.415 1_565 S
C1054 C1053 1.355 . S
C1054 C1056 1.419 . S
C1055 C1050 1.425 . S
C1055 C1052 1.409 . S
C1055 C1053 1.415 1_545 S
C1056 H1046 0.930 . S
C1056 C1054 1.419 . S
C1056 C1057 1.362 1_565 S
C1057 H1047 0.930 . S
C1057 C1050 1.409 . S
C1057 C1056 1.362 1_545 S
H1058 C1064 0.930 . S
H1059 C1067 0.930 . S
H1060 C1068 0.930 . S
H1061 C1069 0.930 . S
H1062 C1072 0.930 . S
H1063 C1073 0.930 . S
C1064 H1058 0.930 . S
C1064 C1065 1.355 . S
C1064 C1066 1.415 . S
C1065 C1064 1.355 . S
C1065 C1067 1.419 . S
C1066 C1064 1.415 . S
C1066 C1071 1.425 . S
C1066 C1073 1.409 . S
C1067 H1059 0.930 . S
C1067 C1065 1.419 . S
C1067 C1068 1.362 . S
C1068 H1060 0.930 . S
C1068 C1067 1.362 . S
C1068 C1071 1.409 . S
C1069 H1061 0.930 . S
C1069 C1070 1.355 . S
C1069 C1071 1.415 1_455 S
C1070 C1069 1.355 . S
C1070 C1072 1.419 . S
C1071 C1066 1.425 . S
C1071 C1068 1.409 . S
C1071 C1069 1.415 1_655 S
C1072 H1062 0.930 . S
C1072 C1070 1.419 . S
C1072 C1073 1.362 1_455 S
C1073 H1063 0.930 . S
C1073 C1066 1.409 . S
C1073 C1072 1.362 1_655 S
H1074 C1080 0.930 . S
H1075 C1083 0.930 . S
H1076 C1084 0.930 . S
H1077 C1085 0.930 . S
H1078 C1088 0.930 . S
H1079 C1089 0.930 . S
C1080 H1074 0.930 . S
C1080 C1081 1.355 . S
C1080 C1082 1.415 . S
C1081 C1080 1.355 . S
C1081 C1083 1.419 . S
C1082 C1080 1.415 . S
C1082 C1087 1.425 . S
C1082 C1089 1.409 . S
C1083 H1075 0.930 . S
C1083 C1081 1.419 . S
C1083 C1084 1.362 . S
C1084 H1076 0.930 . S
C1084 C1083 1.362 . S
C1084 C1087 1.409 . S
C1085 H1077 0.930 . S
C1085 C1086 1.355 . S
C1085 C1087 1.415 . S
C1086 C1085 1.355 . S
C1086 C1088 1.419 . S
C1087 C1082 1.425 . S
C1087 C1084 1.409 . S
C1087 C1085 1.415 . S
C1088 H1078 0.930 . S
C1088 C1086 1.419 . S
C1088 C1089 1.362 . S
C1089 H1079 0.930 . S
C1089 C1082 1.409 . S
C1089 C1088 1.362 . S
H1090 C1096 0.930 . S
H1091 C1099 0.930 . S
H1092 C1100 0.930 . S
H1093 C1101 0.930 . S
H1094 C1104 0.930 . S
H1095 C1105 0.930 . S
C1096 H1090 0.930 . S
C1096 C1097 1.355 . S
C1096 C1098 1.415 1_545 S
C1097 C1096 1.355 . S
C1097 C1099 1.419 . S
C1098 C1096 1.415 1_565 S
C1098 C1103 1.425 . S
C1098 C1105 1.409 . S
C1099 H1091 0.930 . S
C1099 C1097 1.419 . S
C1099 C1100 1.362 1_545 S
C1100 H1092 0.930 . S
C1100 C1099 1.362 1_565 S
C1100 C1103 1.409 . S
C1101 H1093 0.930 . S
C1101 C1102 1.355 . S
C1101 C1103 1.415 . S
C1102 C1101 1.355 . S
C1102 C1104 1.419 . S
C1103 C1098 1.425 . S
C1103 C1100 1.409 . S
C1103 C1101 1.415 . S
C1104 H1094 0.930 . S
C1104 C1102 1.419 . S
C1104 C1105 1.362 . S
C1105 H1095 0.930 . S
C1105 C1098 1.409 . S
C1105 C1104 1.362 . S
H1106 C1112 0.930 . S
H1107 C1115 0.930 . S
H1108 C1116 0.930 . S
H1109 C1117 0.930 . S
H1110 C1120 0.930 . S
H1111 C1121 0.930 . S
C1112 H1106 0.930 . S
C1112 C1113 1.355 . S
C1112 C1114 1.415 . S
C1113 C1112 1.355 . S
C1113 C1115 1.419 . S
C1114 C1112 1.415 . S
C1114 C1119 1.425 . S
C1114 C1121 1.409 . S
C1115 H1107 0.930 . S
C1115 C1113 1.419 . S
C1115 C1116 1.362 . S
C1116 H1108 0.930 . S
C1116 C1115 1.362 . S
C1116 C1119 1.409 . S
C1117 H1109 0.930 . S
C1117 C1118 1.355 . S
C1117 C1119 1.415 1_655 S
C1118 C1117 1.355 . S
C1118 C1120 1.419 . S
C1119 C1114 1.425 . S
C1119 C1116 1.409 . S
C1119 C1117 1.415 1_455 S
C1120 H1110 0.930 . S
C1120 C1118 1.419 . S
C1120 C1121 1.362 1_655 S
C1121 H1111 0.930 . S
C1121 C1114 1.409 . S
C1121 C1120 1.362 1_455 S
H1122 C1128 0.930 . S
H1123 C1131 0.930 . S
H1124 C1132 0.930 . S
H1125 C1133 0.930 . S
H1126 C1136 0.930 . S
H1127 C1137 0.930 . S
C1128 H1122 0.930 . S
C1128 C1129 1.355 . S
C1128 C1130 1.415 . S
C1129 C1128 1.355 . S
C1129 C1131 1.419 . S
C1130 C1128 1.415 . S
C1130 C1135 1.425 . S
C1130 C1137 1.409 . S
C1131 H1123 0.930 . S
C1131 C1129 1.419 . S
C1131 C1132 1.362 . S
C1132 H1124 0.930 . S
C1132 C1131 1.362 . S
C1132 C1135 1.409 . S
C1133 H1125 0.930 . S
C1133 C1134 1.355 . S
C1133 C1135 1.415 . S
C1134 C1133 1.355 . S
C1134 C1136 1.419 . S
C1135 C1130 1.425 . S
C1135 C1132 1.409 . S
C1135 C1133 1.415 . S
C1136 H1126 0.930 . S
C1136 C1134 1.419 . S
C1136 C1137 1.362 . S
C1137 H1127 0.930 . S
C1137 C1130 1.409 . S
C1137 C1136 1.362 . S
H1138 C1144 0.930 . S
H1139 C1147 0.930 . S
H1140 C1148 0.930 . S
H1141 C1149 0.930 . S
H1142 C1152 0.930 . S
H1143 C1153 0.930 . S
C1144 H1138 0.930 . S
C1144 C1145 1.355 . S
C1144 C1146 1.415 . S
C1145 C1144 1.355 . S
C1145 C1147 1.419 . S
C1146 C1144 1.415 . S
C1146 C1151 1.425 . S
C1146 C1153 1.409 . S
C1147 H1139 0.930 . S
C1147 C1145 1.419 . S
C1147 C1148 1.362 . S
C1148 H1140 0.930 . S
C1148 C1147 1.362 . S
C1148 C1151 1.409 . S
C1149 H1141 0.930 . S
C1149 C1150 1.355 . S
C1149 C1151 1.415 . S
C1150 C1149 1.355 . S
C1150 C1152 1.419 . S
C1151 C1146 1.425 . S
C1151 C1148 1.409 . S
C1151 C1149 1.415 . S
C1152 H1142 0.930 . S
C1152 C1150 1.419 . S
C1152 C1153 1.362 . S
C1153 H1143 0.930 . S
C1153 C1146 1.409 . S
C1153 C1152 1.362 . S
H1154 C1160 0.930 . S
H1155 C1163 0.930 . S
H1156 C1164 0.930 . S
H1157 C1165 0.930 . S
H1158 C1168 0.930 . S
H1159 C1169 0.930 . S
C1160 H1154 0.930 . S
C1160 C1161 1.355 . S
C1160 C1162 1.415 . S
C1161 C1160 1.355 . S
C1161 C1163 1.419 . S
C1162 C1160 1.415 . S
C1162 C1167 1.425 . S
C1162 C1169 1.409 . S
C1163 H1155 0.930 . S
C1163 C1161 1.419 . S
C1163 C1164 1.362 . S
C1164 H1156 0.930 . S
C1164 C1163 1.362 . S
C1164 C1167 1.409 . S
C1165 H1157 0.930 . S
C1165 C1166 1.355 . S
C1165 C1167 1.415 . S
C1166 C1165 1.355 . S
C1166 C1168 1.419 . S
C1167 C1162 1.425 . S
C1167 C1164 1.409 . S
C1167 C1165 1.415 . S
C1168 H1158 0.930 . S
C1168 C1166 1.419 . S
C1168 C1169 1.362 . S
C1169 H1159 0.930 . S
C1169 C1162 1.409 . S
C1169 C1168 1.362 . S
H1170 C1176 0.930 . S
H1171 C1179 0.930 . S
H1172 C1180 0.930 . S
H1173 C1181 0.930 . S
H1174 C1184 0.930 . S
H1175 C1185 0.930 . S
C1176 H1170 0.930 . S
C1176 C1177 1.355 . S
C1176 C1178 1.415 . S
C1177 C1176 1.355 . S
C1177 C1179 1.419 . S
C1178 C1176 1.415 . S
C1178 C1183 1.425 . S
C1178 C1185 1.409 . S
C1179 H1171 0.930 . S
C1179 C1177 1.419 . S
C1179 C1180 1.362 . S
C1180 H1172 0.930 . S
C1180 C1179 1.362 . S
C1180 C1183 1.409 . S
C1181 H1173 0.930 . S
C1181 C1182 1.355 . S
C1181 C1183 1.415 . S
C1182 C1181 1.355 . S
C1182 C1184 1.419 . S
C1183 C1178 1.425 . S
C1183 C1180 1.409 . S
C1183 C1181 1.415 . S
C1184 H1174 0.930 . S
C1184 C1182 1.419 . S
C1184 C1185 1.362 . S
C1185 H1175 0.930 . S
C1185 C1178 1.409 . S
C1185 C1184 1.362 . S
H1186 C1192 0.930 . S
H1187 C1195 0.930 . S
H1188 C1196 0.930 . S
H1189 C1197 0.930 . S
H1190 C1200 0.930 . S
H1191 C1201 0.930 . S
C1192 H1186 0.930 . S
C1192 C1193 1.355 . S
C1192 C1194 1.415 . S
C1193 C1192 1.355 . S
C1193 C1195 1.419 . S
C1194 C1192 1.415 . S
C1194 C1199 1.425 . S
C1194 C1201 1.409 . S
C1195 H1187 0.930 . S
C1195 C1193 1.419 . S
C1195 C1196 1.362 . S
C1196 H1188 0.930 . S
C1196 C1195 1.362 . S
C1196 C1199 1.409 . S
C1197 H1189 0.930 . S
C1197 C1198 1.355 . S
C1197 C1199 1.415 . S
C1198 C1197 1.355 . S
C1198 C1200 1.419 . S
C1199 C1194 1.425 . S
C1199 C1196 1.409 . S
C1199 C1197 1.415 . S
C1200 H1190 0.930 . S
C1200 C1198 1.419 . S
C1200 C1201 1.362 . S
C1201 H1191 0.930 . S
C1201 C1194 1.409 . S
C1201 C1200 1.362 . S
H1202 C1208 0.930 . S
H1203 C1211 0.930 . S
H1204 C1212 0.930 . S
H1205 C1213 0.930 . S
H1206 C1216 0.930 . S
H1207 C1217 0.930 . S
C1208 H1202 0.930 . S
C1208 C1209 1.355 . S
C1208 C1210 1.415 . S
C1209 C1208 1.355 . S
C1209 C1211 1.419 . S
C1210 C1208 1.415 . S
C1210 C1215 1.425 . S
C1210 C1217 1.409 . S
C1211 H1203 0.930 . S
C1211 C1209 1.419 . S
C1211 C1212 1.362 . S
C1212 H1204 0.930 . S
C1212 C1211 1.362 . S
C1212 C1215 1.409 . S
C1213 H1205 0.930 . S
C1213 C1214 1.355 . S
C1213 C1215 1.415 . S
C1214 C1213 1.355 . S
C1214 C1216 1.419 . S
C1215 C1210 1.425 . S
C1215 C1212 1.409 . S
C1215 C1213 1.415 . S
C1216 H1206 0.930 . S
C1216 C1214 1.419 . S
C1216 C1217 1.362 . S
C1217 H1207 0.930 . S
C1217 C1210 1.409 . S
C1217 C1216 1.362 . S
H1218 C1224 0.930 . S
H1219 C1227 0.930 . S
H1220 C1228 0.930 . S
H1221 C1229 0.930 . S
H1222 C1232 0.930 . S
H1223 C1233 0.930 . S
C1224 H1218 0.930 . S
C1224 C1225 1.355 . S
C1224 C1226 1.415 . S
C1225 C1224 1.355 . S
C1225 C1227 1.419 . S
C1226 C1224 1.415 . S
C1226 C1231 1.425 . S
C1226 C1233 1.409 . S
C1227 H1219 0.930 . S
C1227 C1225 1.419 . S
C1227 C1228 1.362 . S
C1228 H1220 0.930 . S
C1228 C1227 1.362 . S
C1228 C1231 1.409 . S
C1229 H1221 0.930 . S
C1229 C1230 1.355 . S
C1229 C1231 1.415 . S
C1230 C1229 1.355 . S
C1230 C1232 1.419 . S
C1231 C1226 1.425 . S
C1231 C1228 1.409 . S
C1231 C1229 1.415 . S
C1232 H1222 0.930 . S
C1232 C1230 1.419 . S
C1232 C1233 1.362 . S
C1233 H1223 0.930 . S
C1233 C1226 1.409 . S
C1233 C1232 1.362 . S
H1234 C1240 0.930 . S
H1235 C1243 0.930 . S
H1236 C1244 0.930 . S
H1237 C1245 0.930 . S
H1238 C1248 0.930 . S
H1239 C1249 0.930 . S
C1240 H1234 0.930 . S
C1240 C1241 1.355 . S
C1240 C1242 1.415 . S
C1241 C1240 1.355 . S
C1241 C1243 1.419 . S
C1242 C1240 1.415 . S
C1242 C1247 1.425 . S
C1242 C1249 1.409 . S
C1243 H1235 0.930 . S
C1243 C1241 1.419 . S
C1243 C1244 1.362 . S
C1244 H1236 0.930 . S
C1244 C1243 1.362 . S
C1244 C1247 1.409 . S
C1245 H1237 0.930 . S
C1245 C1246 1.355 . S
C1245 C1247 1.415 . S
C1246 C1245 1.355 . S
C1246 C1248 1.419 . S
C1247 C1242 1.425 . S
C1247 C1244 1.409 . S
C1247 C1245 1.415 . S
C1248 H1238 0.930 . S
C1248 C1246 1.419 . S
C1248 C1249 1.362 . S
C1249 H1239 0.930 . S
C1249 C1242 1.409 . S
C1249 C1248 1.362 . S
H1250 C1256 0.930 . S
H1251 C1259 0.930 . S
H1252 C1260 0.930 . S
H1253 C1261 0.930 . S
H1254 C1264 0.930 . S
H1255 C1265 0.930 . S
C1256 H1250 0.930 . S
C1256 C1257 1.355 . S
C1256 C1258 1.415 . S
C1257 C1256 1.355 . S
C1257 C1259 1.419 . S
C1258 C1256 1.415 . S
C1258 C1263 1.425 . S
C1258 C1265 1.409 . S
C1259 H1251 0.930 . S
C1259 C1257 1.419 . S
C1259 C1260 1.362 . S
C1260 H1252 0.930 . S
C1260 C1259 1.362 . S
C1260 C1263 1.409 . S
C1261 H1253 0.930 . S
C1261 C1262 1.355 . S
C1261 C1263 1.415 . S
C1262 C1261 1.355 . S
C1262 C1264 1.419 . S
C1263 C1258 1.425 . S
C1263 C1260 1.409 . S
C1263 C1261 1.415 . S
C1264 H1254 0.930 . S
C1264 C1262 1.419 . S
C1264 C1265 1.362 . S
C1265 H1255 0.930 . S
C1265 C1258 1.409 . S
C1265 C1264 1.362 . S
H1266 C1272 0.930 . S
H1267 C1275 0.930 . S
H1268 C1276 0.930 . S
H1269 C1277 0.930 . S
H1270 C1280 0.930 . S
H1271 C1281 0.930 . S
C1272 H1266 0.930 . S
C1272 C1273 1.355 . S
C1272 C1274 1.415 . S
C1273 C1272 1.355 . S
C1273 C1275 1.419 . S
C1274 C1272 1.415 . S
C1274 C1279 1.425 . S
C1274 C1281 1.409 . S
C1275 H1267 0.930 . S
C1275 C1273 1.419 . S
C1275 C1276 1.362 . S
C1276 H1268 0.930 . S
C1276 C1275 1.362 . S
C1276 C1279 1.409 . S
C1277 H1269 0.930 . S
C1277 C1278 1.355 . S
C1277 C1279 1.415 . S
C1278 C1277 1.355 . S
C1278 C1280 1.419 . S
C1279 C1274 1.425 . S
C1279 C1276 1.409 . S
C1279 C1277 1.415 . S
C1280 H1270 0.930 . S
C1280 C1278 1.419 . S
C1280 C1281 1.362 . S
C1281 H1271 0.930 . S
C1281 C1274 1.409 . S
C1281 C1280 1.362 . S
H1282 C1288 0.930 . S
H1283 C1291 0.930 . S
H1284 C1292 0.930 . S
H1285 C1293 0.930 . S
H1286 C1296 0.930 . S
H1287 C1297 0.930 . S
C1288 H1282 0.930 . S
C1288 C1289 1.355 . S
C1288 C1290 1.415 . S
C1289 C1288 1.355 . S
C1289 C1291 1.419 . S
C1290 C1288 1.415 . S
C1290 C1295 1.425 . S
C1290 C1297 1.409 . S
C1291 H1283 0.930 . S
C1291 C1289 1.419 . S
C1291 C1292 1.362 . S
C1292 H1284 0.930 . S
C1292 C1291 1.362 . S
C1292 C1295 1.409 . S
C1293 H1285 0.930 . S
C1293 C1294 1.355 . S
C1293 C1295 1.415 . S
C1294 C1293 1.355 . S
C1294 C1296 1.419 . S
C1295 C1290 1.425 . S
C1295 C1292 1.409 . S
C1295 C1293 1.415 . S
C1296 H1286 0.930 . S
C1296 C1294 1.419 . S
C1296 C1297 1.362 . S
C1297 H1287 0.930 . S
C1297 C1290 1.409 . S
C1297 C1296 1.362 . S
H1298 C1304 0.930 . S
H1299 C1307 0.930 . S
H1300 C1308 0.930 . S
H1301 C1309 0.930 . S
H1302 C1312 0.930 . S
H1303 C1313 0.930 . S
C1304 H1298 0.930 . S
C1304 C1305 1.355 . S
C1304 C1306 1.415 . S
C1305 C1304 1.355 . S
C1305 C1307 1.419 . S
C1306 C1304 1.415 . S
C1306 C1311 1.425 . S
C1306 C1313 1.409 . S
C1307 H1299 0.930 . S
C1307 C1305 1.419 . S
C1307 C1308 1.362 . S
C1308 H1300 0.930 . S
C1308 C1307 1.362 . S
C1308 C1311 1.409 . S
C1309 H1301 0.930 . S
C1309 C1310 1.355 . S
C1309 C1311 1.415 . S
C1310 C1309 1.355 . S
C1310 C1312 1.419 . S
C1311 C1306 1.425 . S
C1311 C1308 1.409 . S
C1311 C1309 1.415 . S
C1312 H1302 0.930 . S
C1312 C1310 1.419 . S
C1312 C1313 1.362 . S
C1313 H1303 0.930 . S
C1313 C1306 1.409 . S
C1313 C1312 1.362 . S
C601 N310 1.150 . S
C606 N13 1.095 . S
C617 N343 1.126 . S
C622 N46 1.073 . S
C633 N376 1.046 . S
C638 N79 1.076 . S
C649 N112 1.088 . S
C654 N409 1.143 . S
C665 N442 1.184 . S
C670 N145 1.144 . S
C681 N475 1.122 . S
C686 N178 1.171 . S
C697 N211 1.191 . S
C702 N508 1.168 . S
C713 N541 1.190 . S
C718 N244 1.181 . S
C729 N574 1.190 . S
C734 N277 1.161 . S
C745 C579 1.901 . S
C750 C18 1.893 . S
C761 C513 1.883 . S
C766 C51 1.902 . S
C777 C84 1.881 . S
C782 C546 1.880 . S
C793 C249 1.891 . S
C798 C117 1.876 . S
C809 C282 1.900 . S
C814 C150 1.880 . S
C825 C183 1.879 . S
C830 C216 1.883 . S
C841 C315 1.886 . S
C846 C447 1.902 . S
C857 C480 1.891 . S
C862 C348 1.902 . S
C873 C381 1.878 . S
C878 C414 1.883 . S
C889 C21 1.374 . S
C894 C153 1.375 . S
C905 C186 1.293 . S
C910 C54 1.290 . S
C921 C120 1.336 . S
C926 C87 1.331 . S
C937 C351 1.342 . S
C942 C219 1.338 . S
C953 C252 1.283 . S
C958 C384 1.281 . S
C969 C318 1.311 . S
C974 C285 1.316 . S
C985 C417 1.359 . S
C990 C549 1.362 . S
C1001 C582 1.340 . S
C1006 C450 1.336 . S
C1017 C483 1.374 . S
C1022 C516 1.375 . S
C1033 C73 1.116 . S
C1038 N2 1.151 . S
C1049 C7 1.154 . S
C1054 N35 1.162 . S
C1065 C40 1.151 . S
C1070 N68 1.164 . S
C1081 C139 1.130 . S
C1086 N101 1.157 . S
C1097 N134 1.168 . S
C1102 C172 1.164 . S
C1113 C106 1.109 . S
C1118 N167 1.143 . S
C1129 C271 1.131 . S
C1134 N200 1.157 . S
C1145 C205 1.074 . S
C1150 N233 1.132 . S
C1161 N266 1.137 . S
C1166 C238 1.083 . S
C1177 N299 1.166 . S
C1182 C337 1.156 . S
C1193 C370 1.085 . S
C1198 N332 1.138 . S
C1209 C304 1.155 . S
C1214 N365 1.166 . S
C1225 N398 1.157 . S
C1230 C469 1.132 . S
C1241 C403 1.152 . S
C1246 N431 1.161 . S
C1257 C436 1.128 . S
C1262 N464 1.156 . S
C1273 C535 1.130 . S
C1278 N497 1.156 . S
C1289 C568 1.128 . S
C1294 N530 1.151 . S
C1305 C502 1.098 . S
C1310 N563 1.139 . S
