# Generated by pormake.
# Topology smk, (6)-cn, num edge types: 1
# Building blocks:
#     Node 0, Type 0, BuildingBlock: VOLQOD_clean_sbu_1, # of connection points: 6
#     Node 1, Type 0, BuildingBlock: VOLQOD_clean_sbu_1, # of connection points: 6
#     Node 2, Type 0, BuildingBlock: VOLQOD_clean_sbu_1, # of connection points: 6
#     Node 3, Type 0, BuildingBlock: VOLQOD_clean_sbu_1, # of connection points: 6
#     Node 4, Type 0, BuildingBlock: VOLQOD_clean_sbu_1, # of connection points: 6
#     Node 5, Type 0, BuildingBlock: VOLQOD_clean_sbu_1, # of connection points: 6
#     Edge 6, Type (0, 0), BuildingBlock: CIFDUS_clean_linker_0, # of connection points: 2
#     Edge 7, Type (0, 0), BuildingBlock: CIFDUS_clean_linker_0, # of connection points: 2
#     Edge 8, Type (0, 0), BuildingBlock: CIFDUS_clean_linker_0, # of connection points: 2
#     Edge 9, Type (0, 0), BuildingBlock: CIFDUS_clean_linker_0, # of connection points: 2
#     Edge 10, Type (0, 0), BuildingBlock: CIFDUS_clean_linker_0, # of connection points: 2
#     Edge 11, Type (0, 0), BuildingBlock: CIFDUS_clean_linker_0, # of connection points: 2
#     Edge 12, Type (0, 0), BuildingBlock: CIFDUS_clean_linker_0, # of connection points: 2
#     Edge 13, Type (0, 0), BuildingBlock: CIFDUS_clean_linker_0, # of connection points: 2
#     Edge 14, Type (0, 0), BuildingBlock: CIFDUS_clean_linker_0, # of connection points: 2
#     Edge 15, Type (0, 0), BuildingBlock: CIFDUS_clean_linker_0, # of connection points: 2
#     Edge 16, Type (0, 0), BuildingBlock: CIFDUS_clean_linker_0, # of connection points: 2
#     Edge 17, Type (0, 0), BuildingBlock: CIFDUS_clean_linker_0, # of connection points: 2
#     Edge 18, Type (0, 0), BuildingBlock: CIFDUS_clean_linker_0, # of connection points: 2
#     Edge 19, Type (0, 0), BuildingBlock: CIFDUS_clean_linker_0, # of connection points: 2
#     Edge 20, Type (0, 0), BuildingBlock: CIFDUS_clean_linker_0, # of connection points: 2
#     Edge 21, Type (0, 0), BuildingBlock: CIFDUS_clean_linker_0, # of connection points: 2
#     Edge 22, Type (0, 0), BuildingBlock: CIFDUS_clean_linker_0, # of connection points: 2
#     Edge 23, Type (0, 0), BuildingBlock: CIFDUS_clean_linker_0, # of connection points: 2
# Relax obj value: 0.161
# Max RMSD: 0.171
# Mean RMSD: 0.171
data_MOF--net-smk--node1-VOLQOD_clean_sbu_1--edge1-CIFDUS_clean_linker_0
_symmetry_space_group_name_H-M    P1
_symmetry_Int_Tables_number       1
_symmetry_cell_setting            triclinic
loop_
_symmetry_equiv_pos_as_xyz
'x, y, z'
_cell_length_a     39.395507
_cell_length_b     39.38825
_cell_length_c     15.140282
_cell_angle_alpha  89.753039
_cell_angle_beta   90.335484
_cell_angle_gamma 119.78152
loop_
_atom_site_label
_atom_site_type_symbol
_atom_site_fract_x
_atom_site_fract_y
_atom_site_fract_z
_atom_type_partial_charge
O0 O 0.44321 0.24704 0.76586 0.0
Zn1 Zn 0.4365 0.25131 0.63297 0.0
O2 O 0.42529 0.20312 0.57412 0.0
Zn3 Zn 0.46617 0.21122 0.49482 0.0
Zn4 Zn 0.42202 0.16567 0.65955 0.0
Zn5 Zn 0.37807 0.18294 0.50285 0.0
O6 O 0.44526 0.1861 0.37735 0.0
O7 O 0.3927 0.19322 0.37341 0.0
O8 O 0.48142 0.29902 0.57053 0.0
O9 O 0.4962 0.26782 0.46907 0.0
O10 O 0.50339 0.19545 0.54698 0.0
O11 O 0.47191 0.16321 0.66706 0.0
O12 O 0.37743 0.11289 0.62906 0.0
O13 O 0.38835 0.25616 0.62464 0.0
O14 O 0.34658 0.12398 0.51868 0.0
O15 O 0.34592 0.20822 0.53766 0.0
C16 C 0.42932 0.21603 0.81316 0.0
C17 C 0.41848 0.1882 0.33444 0.0
C18 C 0.50172 0.17679 0.61721 0.0
C19 C 0.50045 0.29934 0.50202 0.0
C20 C 0.35016 0.10056 0.57147 0.0
C21 C 0.35493 0.23757 0.5875 0.0
O22 O 0.41601 0.18229 0.77888 0.0
O23 O 0.20038 0.45322 0.92101 0.0
Zn24 Zn 0.18497 0.44223 0.79089 0.0
O25 O 0.21914 0.4281 0.72907 0.0
Zn26 Zn 0.25218 0.47004 0.65023 0.0
Zn27 Zn 0.25057 0.42184 0.8171 0.0
Zn28 Zn 0.19089 0.37903 0.66536 0.0
O29 O 0.2506 0.44936 0.52777 0.0
O30 O 0.19624 0.39096 0.53547 0.0
O31 O 0.18201 0.48713 0.72905 0.0
O32 O 0.22897 0.50417 0.62994 0.0
O33 O 0.30603 0.5043 0.70501 0.0
O34 O 0.30252 0.47041 0.82569 0.0
O35 O 0.25915 0.37732 0.78978 0.0
O36 O 0.13152 0.39503 0.78954 0.0
O37 O 0.21596 0.34504 0.68393 0.0
O38 O 0.13367 0.35041 0.70332 0.0
C39 C 0.21238 0.43463 0.96942 0.0
C40 C 0.22327 0.41874 0.49108 0.0
C41 C 0.3208 0.50058 0.77728 0.0
C42 C 0.20166 0.5081 0.66357 0.0
C43 C 0.24343 0.34905 0.73544 0.0
C44 C 0.11501 0.36121 0.75421 0.0
O45 O 0.22668 0.41493 0.93582 0.0
O46 O 0.74796 0.18867 0.11313 0.0
Zn47 Zn 0.74223 0.1786 0.9813 0.0
O48 O 0.78773 0.2183 0.91959 0.0
Zn49 Zn 0.7734 0.24813 0.84318 0.0
Zn50 Zn 0.82484 0.2541 0.00344 0.0
Zn51 Zn 0.81124 0.19497 0.84698 0.0
O52 O 0.79724 0.25491 0.72327 0.0
O53 O 0.80034 0.2 0.71878 0.0
O54 O 0.69143 0.1728 0.92923 0.0
O55 O 0.71593 0.21795 0.82356 0.0
O56 O 0.78492 0.29934 0.898 0.0
O57 O 0.82098 0.30296 0.01413 0.0
O58 O 0.87919 0.26769 0.96886 0.0
O59 O 0.74139 0.12773 0.96844 0.0
O60 O 0.87034 0.22554 0.86173 0.0
O61 O 0.78976 0.13755 0.87785 0.0
C62 C 0.77902 0.20804 0.15907 0.0
C63 C 0.80028 0.22882 0.68032 0.0
C64 C 0.80361 0.31675 0.96774 0.0
C65 C 0.68683 0.19001 0.8623 0.0
C66 C 0.89288 0.25397 0.91185 0.0
C67 C 0.76141 0.11535 0.9282 0.0
O68 O 0.81185 0.23109 0.12376 0.0
O69 O 0.53768 0.74941 0.24473 0.0
Zn70 Zn 0.54905 0.74416 0.11464 0.0
O71 O 0.57048 0.7937 0.05308 0.0
Zn72 Zn 0.53362 0.79188 0.96767 0.0
Zn73 Zn 0.57736 0.83081 0.14136 0.0
Zn74 Zn 0.62036 0.80979 -0.00383 0.0
O75 O 0.55761 0.80764 0.84732 0.0
O76 O 0.61108 0.80216 0.86359 0.0
O77 O 0.50266 0.70023 0.0471 0.0
O78 O 0.49368 0.73664 0.948 0.0
O79 O 0.50405 0.81818 0.01172 0.0
O80 O 0.52997 0.83728 0.14535 0.0
O81 O 0.62443 0.88192 0.11564 0.0
O82 O 0.59232 0.73211 0.12217 0.0
O83 O 0.65669 0.86852 0.01426 0.0
O84 O 0.64388 0.77763 0.04858 0.0
C85 C 0.55975 0.77869 0.29355 0.0
C86 C 0.58609 0.80513 0.81475 0.0
C87 C 0.50417 0.83213 0.08773 0.0
C88 C 0.48438 0.70338 0.98038 0.0
C89 C 0.65348 0.89281 0.06422 0.0
C90 C 0.62781 0.74715 0.09779 0.0
O91 O 0.58255 0.81205 0.26013 0.0
O92 O 0.787 0.54914 0.46736 0.0
Zn93 Zn 0.8024 0.5515 0.33913 0.0
O94 O 0.77288 0.56743 0.26584 0.0
Zn95 Zn 0.73712 0.52378 0.19684 0.0
Zn96 Zn 0.74432 0.58147 0.3441 0.0
Zn97 Zn 0.80527 0.61149 0.19042 0.0
O98 O 0.73771 0.53973 0.07138 0.0
O99 O 0.798 0.59143 0.06529 0.0
O100 O 0.80121 0.50221 0.2936 0.0
O101 O 0.75689 0.4863 0.1875 0.0
O102 O 0.68406 0.49552 0.25474 0.0
O103 O 0.69133 0.53462 0.36721 0.0
O104 O 0.73846 0.62493 0.29107 0.0
O105 O 0.85741 0.59431 0.33395 0.0
O106 O 0.78464 0.64968 0.18836 0.0
O107 O 0.86244 0.63752 0.23217 0.0
C108 C 0.78163 0.57509 0.50469 0.0
C109 C 0.76737 0.56448 0.02757 0.0
C110 C 0.67109 0.50279 0.32505 0.0
C111 C 0.7819 0.48067 0.2285 0.0
C112 C 0.75671 0.64983 0.23026 0.0
C113 C 0.87769 0.62612 0.29186 0.0
O114 O 0.77167 0.59643 0.46082 0.0
O115 O 0.24553 0.79315 0.568 0.0
Zn116 Zn 0.25622 0.81258 0.44232 0.0
O117 O 0.2127 0.77812 0.36756 0.0
Zn118 Zn 0.22856 0.7511 0.28719 0.0
Zn119 Zn 0.17101 0.73924 0.43739 0.0
Zn120 Zn 0.19435 0.80761 0.29951 0.0
O121 O 0.21031 0.75284 0.16425 0.0
O122 O 0.21054 0.8094 0.17382 0.0
O123 O 0.30809 0.82046 0.39465 0.0
O124 O 0.28657 0.7808 0.27857 0.0
O125 O 0.2132 0.69649 0.33083 0.0
O126 O 0.17056 0.68823 0.43509 0.0
O127 O 0.11939 0.73233 0.39737 0.0
O128 O 0.25955 0.86489 0.4453 0.0
O129 O 0.13515 0.78021 0.29991 0.0
O130 O 0.21672 0.8628 0.34613 0.0
C131 C 0.21287 0.77193 0.60633 0.0
C132 C 0.21123 0.78263 0.12827 0.0
C133 C 0.18981 0.67584 0.39197 0.0
C134 C 0.3145 0.80657 0.32472 0.0
C135 C 0.10956 0.75054 0.34233 0.0
C136 C 0.24261 0.88093 0.40535 0.0
O137 O 0.18083 0.75339 0.56391 0.0
H138 H 0.41114 0.23729 0.22038 0.0
H139 H 0.42945 0.13818 0.23315 0.0
H140 H 0.43485 0.13856 0.07225 0.0
H141 H 0.4349 0.16726 0.92916 0.0
H142 H 0.42154 0.26938 0.91435 0.0
H143 H 0.4144 0.26829 0.07551 0.0
C144 C 0.41587 0.2156 0.1874 0.0
C145 C 0.41925 0.1873 0.23757 0.0
C146 C 0.42036 0.21694 0.09523 0.0
C147 C 0.42644 0.15993 0.1952 0.0
C148 C 0.42966 0.16026 0.10355 0.0
C149 C 0.43047 0.18934 0.96121 0.0
C150 C 0.42846 0.2182 0.91027 0.0
C151 C 0.42683 0.1887 0.05312 0.0
C152 C 0.42336 0.247 0.95251 0.0
C153 C 0.419 0.24619 0.04438 0.0
H154 H 0.22962 0.47422 0.37621 0.0
H155 H 0.21073 0.35676 0.39104 0.0
H156 H 0.20471 0.35105 0.23 0.0
H157 H 0.2053 0.37966 0.08586 0.0
H158 H 0.21909 0.4952 0.07014 0.0
H159 H 0.22585 0.50138 0.23126 0.0
C160 C 0.22454 0.44759 0.34368 0.0
C161 C 0.22133 0.41616 0.39434 0.0
C162 C 0.2197 0.44407 0.25159 0.0
C163 C 0.21366 0.38134 0.35261 0.0
C164 C 0.2101 0.37806 0.2609 0.0
C165 C 0.20959 0.40612 0.1178 0.0
C166 C 0.21197 0.43705 0.06652 0.0
C167 C 0.21304 0.40922 0.20988 0.0
C168 C 0.21698 0.47096 0.10852 0.0
C169 C 0.22115 0.47459 0.2004 0.0
H170 H 0.8202 0.26602 0.27412 0.0
H171 H 0.73402 0.14347 0.25982 0.0
H172 H 0.73465 0.13858 0.42136 0.0
H173 H 0.76034 0.16952 0.56621 0.0
H174 H 0.84201 0.29333 0.57946 0.0
H175 H 0.84292 0.29754 0.41804 0.0
C176 C 0.80159 0.23824 0.30655 0.0
C177 C 0.77736 0.20505 0.25586 0.0
C178 C 0.80156 0.23596 0.39874 0.0
C179 C 0.75282 0.16937 0.29807 0.0
C180 C 0.75334 0.16656 0.39009 0.0
C181 C 0.77851 0.19727 0.53332 0.0
C182 C 0.80153 0.23099 0.58364 0.0
C183 C 0.77776 0.19965 0.44098 0.0
C184 C 0.82428 0.26706 0.54133 0.0
C185 C 0.82475 0.26945 0.4494 0.0
H186 H 0.62037 0.81579 0.40647 0.0
H187 H 0.49638 0.73443 0.39811 0.0
H188 H 0.49361 0.73597 0.55979 0.0
H189 H 0.52617 0.7633 0.70263 0.0
H190 H 0.65094 0.84074 0.71115 0.0
H191 H 0.65387 0.83813 0.54973 0.0
C192 C 0.5928 0.79814 0.44024 0.0
C193 C 0.55853 0.77529 0.39079 0.0
C194 C 0.59162 0.79885 0.53278 0.0
C195 C 0.52311 0.75212 0.435 0.0
C196 C 0.52151 0.75323 0.52723 0.0
C197 C 0.55395 0.77962 0.66884 0.0
C198 C 0.58824 0.80279 0.71796 0.0
C199 C 0.55548 0.77701 0.5766 0.0
C200 C 0.62422 0.82301 0.67426 0.0
C201 C 0.62585 0.82148 0.58222 0.0
H202 H 0.75233 0.51756 0.62634 0.0
H203 H 0.81757 0.64289 0.5967 0.0
H204 H 0.82039 0.65093 0.75737 0.0
H205 H 0.80246 0.62208 0.90594 0.0
H206 H 0.73168 0.49691 0.9342 0.0
H207 H 0.73249 0.48884 0.77445 0.0
C208 C 0.76747 0.54652 0.65552 0.0
C209 C 0.78511 0.57959 0.60086 0.0
C210 C 0.76757 0.55088 0.74734 0.0
C211 C 0.80395 0.6171 0.63835 0.0
C212 C 0.80549 0.62168 0.72986 0.0
C213 C 0.78728 0.59311 0.87683 0.0
C214 C 0.76704 0.56016 0.93116 0.0
C215 C 0.78709 0.58878 0.78495 0.0
C216 C 0.74714 0.52272 0.89318 0.0
C217 C 0.74777 0.51807 0.80207 0.0
H218 H 0.18501 0.72511 0.00651 0.0
H219 H 0.24646 0.85064 0.03531 0.0
H220 H 0.25515 0.85859 0.87543 0.0
H221 H 0.2443 0.82962 0.72704 0.0
H222 H 0.17767 0.70435 0.69802 0.0
H223 H 0.17227 0.69628 0.8586 0.0
C224 C 0.20032 0.75415 0.97758 0.0
C225 C 0.21511 0.78721 0.032 0.0
C226 C 0.20443 0.75848 0.88587 0.0
C227 C 0.23456 0.82476 -0.00581 0.0
C228 C 0.23973 0.82934 0.90303 0.0
C229 C 0.22897 0.80068 0.75646 0.0
C230 C 0.21168 0.76759 0.7022 0.0
C231 C 0.22474 0.7964 0.84826 0.0
C232 C 0.19118 0.73011 0.73965 0.0
C233 C 0.18806 0.72552 0.83102 0.0
H234 H 0.30135 0.06135 0.43349 0.0
H235 H 0.34272 0.04347 0.6848 0.0
H236 H 0.31036 0.97344 0.6576 0.0
H237 H 0.27621 0.91839 0.55716 0.0
H238 H 0.23487 0.9349 0.30497 0.0
H239 H 0.26103 0.00435 0.33829 0.0
C240 C 0.3027 0.04206 0.48298 0.0
C241 C 0.32492 0.05779 0.56053 0.0
C242 C 0.28443 0.00166 0.46642 0.0
C243 C 0.32625 0.0323 0.62404 0.0
C244 C 0.30781 0.9922 0.60855 0.0
C245 C 0.27269 0.93711 0.50957 0.0
C246 C 0.25425 0.92173 0.42814 0.0
C247 C 0.28787 0.97677 0.52895 0.0
C248 C 0.24917 0.94614 0.36799 0.0
C249 C 0.26422 0.98584 0.38691 0.0
H250 H 0.35053 0.27318 0.73443 0.0
H251 H 0.29469 0.23033 0.48178 0.0
H252 H 0.25177 0.25781 0.5089 0.0
H253 H 0.23462 0.29936 0.59971 0.0
H254 H 0.29154 0.34118 0.85247 0.0
H255 H 0.32913 0.30826 0.83033 0.0
C256 C 0.32885 0.26969 0.68532 0.0
C257 C 0.32621 0.25042 0.60557 0.0
C258 C 0.30446 0.28538 0.70145 0.0
C259 C 0.29739 0.24529 0.5435 0.0
C260 C 0.27296 0.26107 0.55894 0.0
C261 C 0.2547 0.30063 0.6506 0.0
C262 C 0.26057 0.32319 0.72714 0.0
C263 C 0.27678 0.2819 0.63705 0.0
C264 C 0.28672 0.32447 0.79246 0.0
C265 C 0.30836 0.30571 0.77986 0.0
H266 H 0.93379 0.24108 0.783 0.0
H267 H 0.94888 0.31178 0.01334 0.0
H268 H 0.01875 0.3497 -0.01396 0.0
H269 H 0.07483 0.36564 0.89305 0.0
H270 H 0.06164 0.29599 0.66257 0.0
H271 H 0.99175 0.25463 0.69418 0.0
C272 C 0.95242 0.26448 0.82781 0.0
C273 C 0.93586 0.27369 0.89972 0.0
C274 C 0.99285 0.28657 0.81143 0.0
C275 C 0.96058 0.30411 0.95712 0.0
C276 C 0.00063 0.32594 0.94155 0.0
C277 C 0.05676 0.3414 0.84953 0.0
C278 C 0.07332 0.33425 0.77484 0.0
C279 C 0.01691 0.31791 0.86811 0.0
C280 C 0.04957 0.30223 0.72031 0.0
C281 C 0.00961 0.27864 0.73829 0.0
H282 H 0.69923 0.93394 0.92374 0.0
H283 H 0.6699 0.94697 0.19113 0.0
H284 H 0.7044 0.01771 0.17429 0.0
H285 H 0.73518 0.0749 0.07884 0.0
H286 H 0.76486 0.06406 0.81094 0.0
H287 H 0.73834 0.99348 0.83277 0.0
C288 C 0.70128 0.95237 0.97885 0.0
C289 C 0.68154 0.9352 0.05815 0.0
C290 C 0.72066 0.99331 0.9682 0.0
C291 C 0.68437 0.95942 0.12902 0.0
C292 C 0.704 -0.0001 0.11946 0.0
C293 C 0.73621 0.05713 0.02545 0.0
C294 C 0.75118 0.0743 0.943 0.0
C295 C 0.72091 0.01698 0.03846 0.0
C296 C 0.75321 0.05129 0.87491 0.0
C297 C 0.73792 0.01098 0.88733 0.0
H298 H 0.69565 0.6539 0.29859 0.0
H299 H 0.78379 0.7046 0.09613 0.0
H300 H 0.75304 0.74113 0.03855 0.0
H301 H 0.69779 0.75496 0.04004 0.0
H302 H 0.60923 0.70033 0.24122 0.0
H303 H 0.6434 0.66909 0.30392 0.0
C304 C 0.70856 0.67321 0.24236 0.0
C305 C 0.74191 0.67625 0.20169 0.0
C306 C 0.69027 0.69317 0.20836 0.0
C307 C 0.75809 0.70161 0.12894 0.0
C308 C 0.74038 0.72237 0.0956 0.0
C309 C 0.68617 0.73635 0.09772 0.0
C310 C 0.65064 0.72969 0.13478 0.0
C311 C 0.7059 0.71777 0.13373 0.0
C312 C 0.63608 0.70557 0.20996 0.0
C313 C 0.65572 0.68774 0.24652 0.0
H314 H 0.93689 0.68819 0.20223 0.0
H315 H 0.91295 0.61688 0.43664 0.0
H316 H 0.98173 0.65072 0.47475 0.0
H317 H 0.04893 0.69741 0.43899 0.0
H318 H 0.07548 0.76936 0.20569 0.0
H319 H 0.00561 0.73884 0.17072 0.0
C320 C 0.94676 0.68033 0.26188 0.0
C321 C 0.91967 0.6496 0.31555 0.0
C322 C 0.98688 0.69993 0.28384 0.0
C323 C 0.93301 0.63995 0.39303 0.0
C324 C 0.97246 0.65936 0.41534 0.0
C325 C 0.03956 0.70666 0.38061 0.0
C326 C 0.06743 0.73532 0.32469 0.0
C327 C -0.00034 0.68886 0.3606 0.0
C328 C 0.05461 0.74726 0.24994 0.0
C329 C 0.01466 0.7297 0.22968 0.0
H330 H 0.53824 0.37493 0.5657 0.0
H331 H 0.52207 0.30636 0.33107 0.0
H332 H 0.56983 0.3641 0.25281 0.0
H333 H 0.62047 0.4324 0.2536 0.0
H334 H 0.63972 0.50222 0.48716 0.0
H335 H 0.58623 0.44617 0.56182 0.0
C336 C 0.54493 0.37284 0.49726 0.0
C337 C 0.52709 0.33617 0.45516 0.0
C338 C 0.5731 0.40641 0.45204 0.0
C339 C 0.53591 0.33399 0.36605 0.0
C340 C 0.56317 0.36707 0.32076 0.0
C341 C 0.6127 0.43566 0.32041 0.0
C342 C 0.63444 0.47141 0.36473 0.0
C343 C 0.58262 0.4032 0.36362 0.0
C344 C 0.62359 0.47501 0.45121 0.0
C345 C 0.59311 0.44286 0.49433 0.0
H346 H 0.22477 0.54209 0.50274 0.0
H347 H 0.15682 0.53782 0.72956 0.0
H348 H 0.14386 0.58671 0.66075 0.0
H349 H 0.15537 0.63337 0.54045 0.0
H350 H 0.22442 0.63788 0.31533 0.0
H351 H 0.23277 0.58545 0.37902 0.0
C352 C 0.20711 0.5518 0.53751 0.0
C353 C 0.19227 0.53668 0.62201 0.0
C354 C 0.19978 0.57973 0.49758 0.0
C355 C 0.16884 0.54913 0.6649 0.0
C356 C 0.16141 0.57705 0.62549 0.0
C357 C 0.17174 0.62252 0.50439 0.0
C358 C 0.18938 0.6398 0.42307 0.0
C359 C 0.17713 0.59288 0.5423 0.0
C360 C 0.21056 0.62529 0.37786 0.0
C361 C 0.21555 0.59543 0.41452 0.0
H362 H 0.66887 0.20084 0.69657 0.0
H363 H 0.6162 0.15286 0.9489 0.0
H364 H 0.5527 0.141 0.89232 0.0
H365 H 0.514 0.15003 0.77473 0.0
H366 H 0.56845 0.19894 0.52374 0.0
H367 H 0.62942 0.20434 0.57637 0.0
C368 C 0.64348 0.18758 0.7393 0.0
C369 C 0.64735 0.17833 0.82729 0.0
C370 C 0.60744 0.18113 0.70658 0.0
C371 C 0.614 0.1604 0.88105 0.0
C372 C 0.57777 0.15378 0.84876 0.0
C373 C 0.53901 0.16133 0.73104 0.0
C374 C 0.53664 0.17447 0.64557 0.0
C375 C 0.57436 0.16484 0.76214 0.0
C376 C 0.5694 0.18891 0.58996 0.0
C377 C 0.60438 0.1921 0.62004 0.0
H378 H 0.46121 0.62569 0.00731 0.0
H379 H 0.4375 0.70281 0.84748 0.0
H380 H 0.3886 0.64758 0.76418 0.0
H381 H 0.35042 0.57731 0.73888 0.0
H382 H 0.3708 0.4988 0.90084 0.0
H383 H 0.42336 0.55443 0.97923 0.0
C384 C 0.4452 0.63034 0.95461 0.0
C385 C 0.45312 0.6685 0.93444 0.0
C386 C 0.4167 0.59818 0.90619 0.0
C387 C 0.43217 0.6739 0.86516 0.0
C388 C 0.40416 0.64228 0.81685 0.0
C389 C 0.36688 0.57236 0.79004 0.0
C390 C 0.35685 0.53401 0.81351 0.0
C391 C 0.39612 0.60432 0.83676 0.0
C392 C 0.37805 0.52812 0.88123 0.0
C393 C 0.40793 0.5599 0.92656 0.0
H394 H 0.7636 0.4478 0.06659 0.0
H395 H 0.82048 0.44691 0.31044 0.0
H396 H 0.83463 0.39778 0.24885 0.0
H397 H 0.82876 0.3537 0.12694 0.0
H398 H 0.77214 0.35614 0.88355 0.0
H399 H 0.76051 0.40667 0.94385 0.0
C400 C 0.77891 0.43677 0.10683 0.0
C401 C 0.79046 0.45061 0.19362 0.0
C402 C 0.7873 0.40909 0.07075 0.0
C403 C 0.811 0.43654 0.24376 0.0
C404 C 0.81916 0.40853 0.20845 0.0
C405 C 0.81432 0.36561 0.08658 0.0
C406 C 0.80124 0.35093 0.00072 0.0
C407 C 0.80729 0.39449 0.12206 0.0
C408 C 0.78247 0.36672 0.94972 0.0
C409 C 0.77563 0.39553 0.98429 0.0
H410 H 0.48871 0.85038 0.25096 0.0
H411 H 0.44252 0.82203 0.98523 0.0
H412 H 0.38061 0.81473 0.03542 0.0
H413 H 0.33729 0.80867 0.15658 0.0
H414 H 0.38212 0.83609 0.4229 0.0
H415 H 0.44712 0.85169 0.37039 0.0
C416 C 0.46542 0.84336 0.20355 0.0
C417 C 0.4702 0.8362 0.1145 0.0
C418 C 0.42949 0.83845 0.23318 0.0
C419 C 0.43967 0.8274 0.05416 0.0
C420 C 0.40412 0.82299 0.08289 0.0
C421 C 0.36135 0.8183 0.2032 0.0
C422 C 0.35482 0.82048 0.29374 0.0
C423 C 0.39832 0.82709 0.17261 0.0
C424 C 0.38641 0.83391 0.353 0.0
C425 C 0.42349 0.84273 0.32297 0.0
loop_
_geom_bond_atom_site_label_1
_geom_bond_atom_site_label_2
_geom_bond_distance
_geom_bond_site_symmetry_2
_ccdc_geom_bond_type
O0 Zn1 1.953 . S
O0 C16 1.225 . S
Zn1 O0 1.953 . S
Zn1 O2 1.949 . S
Zn1 O8 1.919 . S
Zn1 O13 1.924 . S
O2 Zn1 1.949 . S
O2 Zn3 1.923 . S
O2 Zn4 1.950 . S
O2 Zn5 1.945 . S
Zn3 O2 1.923 . S
Zn3 O6 1.933 . S
Zn3 O9 1.941 . S
Zn3 O10 1.965 . S
Zn4 O2 1.950 . S
Zn4 O11 1.938 . S
Zn4 O12 1.906 . S
Zn4 O22 1.953 . S
Zn5 O2 1.945 . S
Zn5 O7 1.932 . S
Zn5 O14 1.977 . S
Zn5 O15 1.910 . S
O6 Zn3 1.933 . S
O6 C17 1.226 . S
O7 Zn5 1.932 . S
O7 C17 1.307 . S
O8 Zn1 1.919 . S
O8 C19 1.253 . S
O9 Zn3 1.941 . S
O9 C19 1.283 . S
O10 Zn3 1.965 . S
O10 C18 1.303 . S
O11 Zn4 1.938 . S
O11 C18 1.247 . S
O12 Zn4 1.906 . S
O12 C20 1.304 . S
O13 Zn1 1.924 . S
O13 C21 1.311 . S
O14 Zn5 1.977 . S
O14 C20 1.272 . S
O15 Zn5 1.910 . S
O15 C21 1.231 . S
C16 O0 1.225 . S
C16 O22 1.298 . S
C17 O6 1.226 . S
C17 O7 1.307 . S
C18 O10 1.303 . S
C18 O11 1.247 . S
C19 O8 1.253 . S
C19 O9 1.283 . S
C20 O12 1.304 . S
C20 O14 1.272 . S
C21 O13 1.311 . S
C21 O15 1.231 . S
O22 Zn4 1.953 . S
O22 C16 1.298 . S
O23 Zn24 1.953 . S
O23 C39 1.225 . S
Zn24 O23 1.953 . S
Zn24 O25 1.949 . S
Zn24 O31 1.919 . S
Zn24 O36 1.924 . S
O25 Zn24 1.949 . S
O25 Zn26 1.923 . S
O25 Zn27 1.950 . S
O25 Zn28 1.945 . S
Zn26 O25 1.923 . S
Zn26 O29 1.933 . S
Zn26 O32 1.941 . S
Zn26 O33 1.965 . S
Zn27 O25 1.950 . S
Zn27 O34 1.938 . S
Zn27 O35 1.906 . S
Zn27 O45 1.953 . S
Zn28 O25 1.945 . S
Zn28 O30 1.932 . S
Zn28 O37 1.977 . S
Zn28 O38 1.910 . S
O29 Zn26 1.933 . S
O29 C40 1.226 . S
O30 Zn28 1.932 . S
O30 C40 1.307 . S
O31 Zn24 1.919 . S
O31 C42 1.253 . S
O32 Zn26 1.941 . S
O32 C42 1.283 . S
O33 Zn26 1.965 . S
O33 C41 1.303 . S
O34 Zn27 1.938 . S
O34 C41 1.247 . S
O35 Zn27 1.906 . S
O35 C43 1.304 . S
O36 Zn24 1.924 . S
O36 C44 1.311 . S
O37 Zn28 1.977 . S
O37 C43 1.272 . S
O38 Zn28 1.910 . S
O38 C44 1.231 . S
C39 O23 1.225 . S
C39 O45 1.298 . S
C40 O29 1.226 . S
C40 O30 1.307 . S
C41 O33 1.303 . S
C41 O34 1.247 . S
C42 O31 1.253 . S
C42 O32 1.283 . S
C43 O35 1.304 . S
C43 O37 1.272 . S
C44 O36 1.311 . S
C44 O38 1.231 . S
O45 Zn27 1.953 . S
O45 C39 1.298 . S
O46 Zn47 1.953 1_554 S
O46 C62 1.225 . S
Zn47 O46 1.953 1_556 S
Zn47 O48 1.949 . S
Zn47 O54 1.919 . S
Zn47 O59 1.924 . S
O48 Zn47 1.949 . S
O48 Zn49 1.923 . S
O48 Zn50 1.950 1_556 S
O48 Zn51 1.945 . S
Zn49 O48 1.923 . S
Zn49 O52 1.933 . S
Zn49 O55 1.941 . S
Zn49 O56 1.965 . S
Zn50 O48 1.950 1_554 S
Zn50 O57 1.938 . S
Zn50 O58 1.906 1_554 S
Zn50 O68 1.953 . S
Zn51 O48 1.945 . S
Zn51 O53 1.932 . S
Zn51 O60 1.977 . S
Zn51 O61 1.910 . S
O52 Zn49 1.933 . S
O52 C63 1.226 . S
O53 Zn51 1.932 . S
O53 C63 1.307 . S
O54 Zn47 1.919 . S
O54 C65 1.253 . S
O55 Zn49 1.941 . S
O55 C65 1.283 . S
O56 Zn49 1.965 . S
O56 C64 1.303 . S
O57 Zn50 1.938 . S
O57 C64 1.247 1_554 S
O58 Zn50 1.906 1_556 S
O58 C66 1.304 . S
O59 Zn47 1.924 . S
O59 C67 1.311 . S
O60 Zn51 1.977 . S
O60 C66 1.272 . S
O61 Zn51 1.910 . S
O61 C67 1.231 . S
C62 O46 1.225 . S
C62 O68 1.298 . S
C63 O52 1.226 . S
C63 O53 1.307 . S
C64 O56 1.303 . S
C64 O57 1.247 1_556 S
C65 O54 1.253 . S
C65 O55 1.283 . S
C66 O58 1.304 . S
C66 O60 1.272 . S
C67 O59 1.311 . S
C67 O61 1.231 . S
O68 Zn50 1.953 . S
O68 C62 1.298 . S
O69 Zn70 1.953 . S
O69 C85 1.225 . S
Zn70 O69 1.953 . S
Zn70 O71 1.949 . S
Zn70 O77 1.919 . S
Zn70 O82 1.924 . S
O71 Zn70 1.949 . S
O71 Zn72 1.923 . S
O71 Zn73 1.950 . S
O71 Zn74 1.945 . S
Zn72 O71 1.923 . S
Zn72 O75 1.933 1_554 S
Zn72 O78 1.941 . S
Zn72 O79 1.965 . S
Zn73 O71 1.950 . S
Zn73 O80 1.938 . S
Zn73 O81 1.906 . S
Zn73 O91 1.953 . S
Zn74 O71 1.945 . S
Zn74 O76 1.932 1_554 S
Zn74 O83 1.977 . S
Zn74 O84 1.910 . S
O75 Zn72 1.933 1_556 S
O75 C86 1.226 . S
O76 Zn74 1.932 1_556 S
O76 C86 1.307 . S
O77 Zn70 1.919 . S
O77 C88 1.253 . S
O78 Zn72 1.941 . S
O78 C88 1.283 . S
O79 Zn72 1.965 . S
O79 C87 1.303 . S
O80 Zn73 1.938 . S
O80 C87 1.247 . S
O81 Zn73 1.906 . S
O81 C89 1.304 . S
O82 Zn70 1.924 . S
O82 C90 1.311 . S
O83 Zn74 1.977 . S
O83 C89 1.272 . S
O84 Zn74 1.910 . S
O84 C90 1.231 . S
C85 O69 1.225 . S
C85 O91 1.298 . S
C86 O75 1.226 . S
C86 O76 1.307 . S
C87 O79 1.303 . S
C87 O80 1.247 . S
C88 O77 1.253 . S
C88 O78 1.283 . S
C89 O81 1.304 . S
C89 O83 1.272 . S
C90 O82 1.311 . S
C90 O84 1.231 . S
O91 Zn73 1.953 . S
O91 C85 1.298 . S
O92 Zn93 1.953 . S
O92 C108 1.225 . S
Zn93 O92 1.953 . S
Zn93 O94 1.949 . S
Zn93 O100 1.919 . S
Zn93 O105 1.924 . S
O94 Zn93 1.949 . S
O94 Zn95 1.923 . S
O94 Zn96 1.950 . S
O94 Zn97 1.945 . S
Zn95 O94 1.923 . S
Zn95 O98 1.933 . S
Zn95 O101 1.941 . S
Zn95 O102 1.965 . S
Zn96 O94 1.950 . S
Zn96 O103 1.938 . S
Zn96 O104 1.906 . S
Zn96 O114 1.953 . S
Zn97 O94 1.945 . S
Zn97 O99 1.932 . S
Zn97 O106 1.977 . S
Zn97 O107 1.910 . S
O98 Zn95 1.933 . S
O98 C109 1.226 . S
O99 Zn97 1.932 . S
O99 C109 1.307 . S
O100 Zn93 1.919 . S
O100 C111 1.253 . S
O101 Zn95 1.941 . S
O101 C111 1.283 . S
O102 Zn95 1.965 . S
O102 C110 1.303 . S
O103 Zn96 1.938 . S
O103 C110 1.247 . S
O104 Zn96 1.906 . S
O104 C112 1.304 . S
O105 Zn93 1.924 . S
O105 C113 1.311 . S
O106 Zn97 1.977 . S
O106 C112 1.272 . S
O107 Zn97 1.910 . S
O107 C113 1.231 . S
C108 O92 1.225 . S
C108 O114 1.298 . S
C109 O98 1.226 . S
C109 O99 1.307 . S
C110 O102 1.303 . S
C110 O103 1.247 . S
C111 O100 1.253 . S
C111 O101 1.283 . S
C112 O104 1.304 . S
C112 O106 1.272 . S
C113 O105 1.311 . S
C113 O107 1.231 . S
O114 Zn96 1.953 . S
O114 C108 1.298 . S
O115 Zn116 1.953 . S
O115 C131 1.225 . S
Zn116 O115 1.953 . S
Zn116 O117 1.949 . S
Zn116 O123 1.919 . S
Zn116 O128 1.924 . S
O117 Zn116 1.949 . S
O117 Zn118 1.923 . S
O117 Zn119 1.950 . S
O117 Zn120 1.945 . S
Zn118 O117 1.923 . S
Zn118 O121 1.933 . S
Zn118 O124 1.941 . S
Zn118 O125 1.965 . S
Zn119 O117 1.950 . S
Zn119 O126 1.938 . S
Zn119 O127 1.906 . S
Zn119 O137 1.953 . S
Zn120 O117 1.945 . S
Zn120 O122 1.932 . S
Zn120 O129 1.977 . S
Zn120 O130 1.910 . S
O121 Zn118 1.933 . S
O121 C132 1.226 . S
O122 Zn120 1.932 . S
O122 C132 1.307 . S
O123 Zn116 1.919 . S
O123 C134 1.253 . S
O124 Zn118 1.941 . S
O124 C134 1.283 . S
O125 Zn118 1.965 . S
O125 C133 1.303 . S
O126 Zn119 1.938 . S
O126 C133 1.247 . S
O127 Zn119 1.906 . S
O127 C135 1.304 . S
O128 Zn116 1.924 . S
O128 C136 1.311 . S
O129 Zn120 1.977 . S
O129 C135 1.272 . S
O130 Zn120 1.910 . S
O130 C136 1.231 . S
C131 O115 1.225 . S
C131 O137 1.298 . S
C132 O121 1.226 . S
C132 O122 1.307 . S
C133 O125 1.303 . S
C133 O126 1.247 . S
C134 O123 1.253 . S
C134 O124 1.283 . S
C135 O127 1.304 . S
C135 O129 1.272 . S
C136 O128 1.311 . S
C136 O130 1.231 . S
O137 Zn119 1.953 . S
O137 C131 1.298 . S
H138 C144 0.930 . S
H139 C147 0.930 . S
H140 C148 0.930 . S
H141 C149 0.930 . S
H142 C152 0.930 . S
H143 C153 0.930 . S
C144 H138 0.930 . S
C144 C145 1.355 . S
C144 C146 1.415 . S
C145 C144 1.355 . S
C145 C147 1.419 . S
C146 C144 1.415 . S
C146 C151 1.425 . S
C146 C153 1.409 . S
C147 H139 0.930 . S
C147 C145 1.419 . S
C147 C148 1.362 . S
C148 H140 0.930 . S
C148 C147 1.362 . S
C148 C151 1.409 . S
C149 H141 0.930 . S
C149 C150 1.355 . S
C149 C151 1.415 1_556 S
C150 C149 1.355 . S
C150 C152 1.419 . S
C151 C146 1.425 . S
C151 C148 1.409 . S
C151 C149 1.415 1_554 S
C152 H142 0.930 . S
C152 C150 1.419 . S
C152 C153 1.362 1_556 S
C153 H143 0.930 . S
C153 C146 1.409 . S
C153 C152 1.362 1_554 S
H154 C160 0.930 . S
H155 C163 0.930 . S
H156 C164 0.930 . S
H157 C165 0.930 . S
H158 C168 0.930 . S
H159 C169 0.930 . S
C160 H154 0.930 . S
C160 C161 1.355 . S
C160 C162 1.415 . S
C161 C160 1.355 . S
C161 C163 1.419 . S
C162 C160 1.415 . S
C162 C167 1.425 . S
C162 C169 1.409 . S
C163 H155 0.930 . S
C163 C161 1.419 . S
C163 C164 1.362 . S
C164 H156 0.930 . S
C164 C163 1.362 . S
C164 C167 1.409 . S
C165 H157 0.930 . S
C165 C166 1.355 . S
C165 C167 1.415 . S
C166 C165 1.355 . S
C166 C168 1.419 . S
C167 C162 1.425 . S
C167 C164 1.409 . S
C167 C165 1.415 . S
C168 H158 0.930 . S
C168 C166 1.419 . S
C168 C169 1.362 . S
C169 H159 0.930 . S
C169 C162 1.409 . S
C169 C168 1.362 . S
H170 C176 0.930 . S
H171 C179 0.930 . S
H172 C180 0.930 . S
H173 C181 0.930 . S
H174 C184 0.930 . S
H175 C185 0.930 . S
C176 H170 0.930 . S
C176 C177 1.355 . S
C176 C178 1.415 . S
C177 C176 1.355 . S
C177 C179 1.419 . S
C178 C176 1.415 . S
C178 C183 1.425 . S
C178 C185 1.409 . S
C179 H171 0.930 . S
C179 C177 1.419 . S
C179 C180 1.362 . S
C180 H172 0.930 . S
C180 C179 1.362 . S
C180 C183 1.409 . S
C181 H173 0.930 . S
C181 C182 1.355 . S
C181 C183 1.415 . S
C182 C181 1.355 . S
C182 C184 1.419 . S
C183 C178 1.425 . S
C183 C180 1.409 . S
C183 C181 1.415 . S
C184 H174 0.930 . S
C184 C182 1.419 . S
C184 C185 1.362 . S
C185 H175 0.930 . S
C185 C178 1.409 . S
C185 C184 1.362 . S
H186 C192 0.930 . S
H187 C195 0.930 . S
H188 C196 0.930 . S
H189 C197 0.930 . S
H190 C200 0.930 . S
H191 C201 0.930 . S
C192 H186 0.930 . S
C192 C193 1.355 . S
C192 C194 1.415 . S
C193 C192 1.355 . S
C193 C195 1.419 . S
C194 C192 1.415 . S
C194 C199 1.425 . S
C194 C201 1.409 . S
C195 H187 0.930 . S
C195 C193 1.419 . S
C195 C196 1.362 . S
C196 H188 0.930 . S
C196 C195 1.362 . S
C196 C199 1.409 . S
C197 H189 0.930 . S
C197 C198 1.355 . S
C197 C199 1.415 . S
C198 C197 1.355 . S
C198 C200 1.419 . S
C199 C194 1.425 . S
C199 C196 1.409 . S
C199 C197 1.415 . S
C200 H190 0.930 . S
C200 C198 1.419 . S
C200 C201 1.362 . S
C201 H191 0.930 . S
C201 C194 1.409 . S
C201 C200 1.362 . S
H202 C208 0.930 . S
H203 C211 0.930 . S
H204 C212 0.930 . S
H205 C213 0.930 . S
H206 C216 0.930 . S
H207 C217 0.930 . S
C208 H202 0.930 . S
C208 C209 1.355 . S
C208 C210 1.415 . S
C209 C208 1.355 . S
C209 C211 1.419 . S
C210 C208 1.415 . S
C210 C215 1.425 . S
C210 C217 1.409 . S
C211 H203 0.930 . S
C211 C209 1.419 . S
C211 C212 1.362 . S
C212 H204 0.930 . S
C212 C211 1.362 . S
C212 C215 1.409 . S
C213 H205 0.930 . S
C213 C214 1.355 . S
C213 C215 1.415 . S
C214 C213 1.355 . S
C214 C216 1.419 . S
C215 C210 1.425 . S
C215 C212 1.409 . S
C215 C213 1.415 . S
C216 H206 0.930 . S
C216 C214 1.419 . S
C216 C217 1.362 . S
C217 H207 0.930 . S
C217 C210 1.409 . S
C217 C216 1.362 . S
H218 C224 0.930 . S
H219 C227 0.930 . S
H220 C228 0.930 . S
H221 C229 0.930 . S
H222 C232 0.930 . S
H223 C233 0.930 . S
C224 H218 0.930 . S
C224 C225 1.355 . S
C224 C226 1.415 1_554 S
C225 C224 1.355 . S
C225 C227 1.419 . S
C226 C224 1.415 1_556 S
C226 C231 1.425 . S
C226 C233 1.409 . S
C227 H219 0.930 . S
C227 C225 1.419 . S
C227 C228 1.362 1_554 S
C228 H220 0.930 . S
C228 C227 1.362 1_556 S
C228 C231 1.409 . S
C229 H221 0.930 . S
C229 C230 1.355 . S
C229 C231 1.415 . S
C230 C229 1.355 . S
C230 C232 1.419 . S
C231 C226 1.425 . S
C231 C228 1.409 . S
C231 C229 1.415 . S
C232 H222 0.930 . S
C232 C230 1.419 . S
C232 C233 1.362 . S
C233 H223 0.930 . S
C233 C226 1.409 . S
C233 C232 1.362 . S
H234 C240 0.930 . S
H235 C243 0.930 . S
H236 C244 0.930 . S
H237 C245 0.930 . S
H238 C248 0.930 . S
H239 C249 0.930 . S
C240 H234 0.930 . S
C240 C241 1.355 . S
C240 C242 1.415 . S
C241 C240 1.355 . S
C241 C243 1.419 . S
C242 C240 1.415 . S
C242 C247 1.425 1_545 S
C242 C249 1.409 1_545 S
C243 H235 0.930 . S
C243 C241 1.419 . S
C243 C244 1.362 . S
C244 H236 0.930 . S
C244 C243 1.362 . S
C244 C247 1.409 1_545 S
C245 H237 0.930 . S
C245 C246 1.355 . S
C245 C247 1.415 . S
C246 C245 1.355 . S
C246 C248 1.419 . S
C247 C242 1.425 1_565 S
C247 C244 1.409 1_565 S
C247 C245 1.415 . S
C248 H238 0.930 . S
C248 C246 1.419 . S
C248 C249 1.362 . S
C249 H239 0.930 . S
C249 C242 1.409 1_565 S
C249 C248 1.362 . S
H250 C256 0.930 . S
H251 C259 0.930 . S
H252 C260 0.930 . S
H253 C261 0.930 . S
H254 C264 0.930 . S
H255 C265 0.930 . S
C256 H250 0.930 . S
C256 C257 1.355 . S
C256 C258 1.415 . S
C257 C256 1.355 . S
C257 C259 1.419 . S
C258 C256 1.415 . S
C258 C263 1.425 . S
C258 C265 1.409 . S
C259 H251 0.930 . S
C259 C257 1.419 . S
C259 C260 1.362 . S
C260 H252 0.930 . S
C260 C259 1.362 . S
C260 C263 1.409 . S
C261 H253 0.930 . S
C261 C262 1.355 . S
C261 C263 1.415 . S
C262 C261 1.355 . S
C262 C264 1.419 . S
C263 C258 1.425 . S
C263 C260 1.409 . S
C263 C261 1.415 . S
C264 H254 0.930 . S
C264 C262 1.419 . S
C264 C265 1.362 . S
C265 H255 0.930 . S
C265 C258 1.409 . S
C265 C264 1.362 . S
H266 C272 0.930 . S
H267 C275 0.930 1_554 S
H268 C276 0.930 1_455 S
H269 C277 0.930 . S
H270 C280 0.930 . S
H271 C281 0.930 1_655 S
C272 H266 0.930 . S
C272 C273 1.355 . S
C272 C274 1.415 . S
C273 C272 1.355 . S
C273 C275 1.419 . S
C274 C272 1.415 . S
C274 C279 1.425 1_655 S
C274 C281 1.409 1_655 S
C275 H267 0.930 1_556 S
C275 C273 1.419 . S
C275 C276 1.362 . S
C276 H268 0.930 1_655 S
C276 C275 1.362 . S
C276 C279 1.409 1_655 S
C277 H269 0.930 . S
C277 C278 1.355 . S
C277 C279 1.415 . S
C278 C277 1.355 . S
C278 C280 1.419 . S
C279 C274 1.425 1_455 S
C279 C276 1.409 1_455 S
C279 C277 1.415 . S
C280 H270 0.930 . S
C280 C278 1.419 . S
C280 C281 1.362 . S
C281 H271 0.930 1_455 S
C281 C274 1.409 1_455 S
C281 C280 1.362 . S
H282 C288 0.930 . S
H283 C291 0.930 . S
H284 C292 0.930 1_545 S
H285 C293 0.930 . S
H286 C296 0.930 . S
H287 C297 0.930 1_565 S
C288 H282 0.930 . S
C288 C289 1.355 1_556 S
C288 C290 1.415 . S
C289 C288 1.355 1_554 S
C289 C291 1.419 . S
C290 C288 1.415 . S
C290 C295 1.425 1_566 S
C290 C297 1.409 1_565 S
C291 H283 0.930 . S
C291 C289 1.419 . S
C291 C292 1.362 . S
C292 H284 0.930 1_565 S
C292 C291 1.362 . S
C292 C295 1.409 1_565 S
C293 H285 0.930 . S
C293 C294 1.355 1_554 S
C293 C295 1.415 . S
C294 C293 1.355 1_556 S
C294 C296 1.419 . S
C295 C290 1.425 1_544 S
C295 C292 1.409 1_545 S
C295 C293 1.415 . S
C296 H286 0.930 . S
C296 C294 1.419 . S
C296 C297 1.362 . S
C297 H287 0.930 1_545 S
C297 C290 1.409 1_545 S
C297 C296 1.362 . S
H298 C304 0.930 . S
H299 C307 0.930 . S
H300 C308 0.930 . S
H301 C309 0.930 . S
H302 C312 0.930 . S
H303 C313 0.930 . S
C304 H298 0.930 . S
C304 C305 1.355 . S
C304 C306 1.415 . S
C305 C304 1.355 . S
C305 C307 1.419 . S
C306 C304 1.415 . S
C306 C311 1.425 . S
C306 C313 1.409 . S
C307 H299 0.930 . S
C307 C305 1.419 . S
C307 C308 1.362 . S
C308 H300 0.930 . S
C308 C307 1.362 . S
C308 C311 1.409 . S
C309 H301 0.930 . S
C309 C310 1.355 . S
C309 C311 1.415 . S
C310 C309 1.355 . S
C310 C312 1.419 . S
C311 C306 1.425 . S
C311 C308 1.409 . S
C311 C309 1.415 . S
C312 H302 0.930 . S
C312 C310 1.419 . S
C312 C313 1.362 . S
C313 H303 0.930 . S
C313 C306 1.409 . S
C313 C312 1.362 . S
H314 C320 0.930 . S
H315 C323 0.930 . S
H316 C324 0.930 . S
H317 C325 0.930 . S
H318 C328 0.930 . S
H319 C329 0.930 . S
C320 H314 0.930 . S
C320 C321 1.355 . S
C320 C322 1.415 . S
C321 C320 1.355 . S
C321 C323 1.419 . S
C322 C320 1.415 . S
C322 C327 1.425 1_655 S
C322 C329 1.409 1_655 S
C323 H315 0.930 . S
C323 C321 1.419 . S
C323 C324 1.362 . S
C324 H316 0.930 . S
C324 C323 1.362 . S
C324 C327 1.409 1_655 S
C325 H317 0.930 . S
C325 C326 1.355 . S
C325 C327 1.415 . S
C326 C325 1.355 . S
C326 C328 1.419 . S
C327 C322 1.425 1_455 S
C327 C324 1.409 1_455 S
C327 C325 1.415 . S
C328 H318 0.930 . S
C328 C326 1.419 . S
C328 C329 1.362 . S
C329 H319 0.930 . S
C329 C322 1.409 1_455 S
C329 C328 1.362 . S
H330 C336 0.930 . S
H331 C339 0.930 . S
H332 C340 0.930 . S
H333 C341 0.930 . S
H334 C344 0.930 . S
H335 C345 0.930 . S
C336 H330 0.930 . S
C336 C337 1.355 . S
C336 C338 1.415 . S
C337 C336 1.355 . S
C337 C339 1.419 . S
C338 C336 1.415 . S
C338 C343 1.425 . S
C338 C345 1.409 . S
C339 H331 0.930 . S
C339 C337 1.419 . S
C339 C340 1.362 . S
C340 H332 0.930 . S
C340 C339 1.362 . S
C340 C343 1.409 . S
C341 H333 0.930 . S
C341 C342 1.355 . S
C341 C343 1.415 . S
C342 C341 1.355 . S
C342 C344 1.419 . S
C343 C338 1.425 . S
C343 C340 1.409 . S
C343 C341 1.415 . S
C344 H334 0.930 . S
C344 C342 1.419 . S
C344 C345 1.362 . S
C345 H335 0.930 . S
C345 C338 1.409 . S
C345 C344 1.362 . S
H346 C352 0.930 . S
H347 C355 0.930 . S
H348 C356 0.930 . S
H349 C357 0.930 . S
H350 C360 0.930 . S
H351 C361 0.930 . S
C352 H346 0.930 . S
C352 C353 1.355 . S
C352 C354 1.415 . S
C353 C352 1.355 . S
C353 C355 1.419 . S
C354 C352 1.415 . S
C354 C359 1.425 . S
C354 C361 1.409 . S
C355 H347 0.930 . S
C355 C353 1.419 . S
C355 C356 1.362 . S
C356 H348 0.930 . S
C356 C355 1.362 . S
C356 C359 1.409 . S
C357 H349 0.930 . S
C357 C358 1.355 . S
C357 C359 1.415 . S
C358 C357 1.355 . S
C358 C360 1.419 . S
C359 C354 1.425 . S
C359 C356 1.409 . S
C359 C357 1.415 . S
C360 H350 0.930 . S
C360 C358 1.419 . S
C360 C361 1.362 . S
C361 H351 0.930 . S
C361 C354 1.409 . S
C361 C360 1.362 . S
H362 C368 0.930 . S
H363 C371 0.930 . S
H364 C372 0.930 . S
H365 C373 0.930 . S
H366 C376 0.930 . S
H367 C377 0.930 . S
C368 H362 0.930 . S
C368 C369 1.355 . S
C368 C370 1.415 . S
C369 C368 1.355 . S
C369 C371 1.419 . S
C370 C368 1.415 . S
C370 C375 1.425 . S
C370 C377 1.409 . S
C371 H363 0.930 . S
C371 C369 1.419 . S
C371 C372 1.362 . S
C372 H364 0.930 . S
C372 C371 1.362 . S
C372 C375 1.409 . S
C373 H365 0.930 . S
C373 C374 1.355 . S
C373 C375 1.415 . S
C374 C373 1.355 . S
C374 C376 1.419 . S
C375 C370 1.425 . S
C375 C372 1.409 . S
C375 C373 1.415 . S
C376 H366 0.930 . S
C376 C374 1.419 . S
C376 C377 1.362 . S
C377 H367 0.930 . S
C377 C370 1.409 . S
C377 C376 1.362 . S
H378 C384 0.930 . S
H379 C387 0.930 . S
H380 C388 0.930 . S
H381 C389 0.930 . S
H382 C392 0.930 . S
H383 C393 0.930 1_554 S
C384 H378 0.930 . S
C384 C385 1.355 1_554 S
C384 C386 1.415 1_554 S
C385 C384 1.355 1_556 S
C385 C387 1.419 . S
C386 C384 1.415 1_556 S
C386 C391 1.425 . S
C386 C393 1.409 . S
C387 H379 0.930 . S
C387 C385 1.419 . S
C387 C388 1.362 . S
C388 H380 0.930 . S
C388 C387 1.362 . S
C388 C391 1.409 . S
C389 H381 0.930 . S
C389 C390 1.355 . S
C389 C391 1.415 . S
C390 C389 1.355 . S
C390 C392 1.419 . S
C391 C386 1.425 . S
C391 C388 1.409 . S
C391 C389 1.415 . S
C392 H382 0.930 . S
C392 C390 1.419 . S
C392 C393 1.362 . S
C393 H383 0.930 1_556 S
C393 C386 1.409 . S
C393 C392 1.362 . S
H394 C400 0.930 . S
H395 C403 0.930 . S
H396 C404 0.930 . S
H397 C405 0.930 . S
H398 C408 0.929 1_556 S
H399 C409 0.930 . S
C400 H394 0.930 . S
C400 C401 1.355 . S
C400 C402 1.415 . S
C401 C400 1.355 . S
C401 C403 1.419 . S
C402 C400 1.415 . S
C402 C407 1.425 . S
C402 C409 1.409 . S
C403 H395 0.930 . S
C403 C401 1.419 . S
C403 C404 1.362 . S
C404 H396 0.930 . S
C404 C403 1.362 . S
C404 C407 1.409 . S
C405 H397 0.930 . S
C405 C406 1.355 . S
C405 C407 1.415 . S
C406 C405 1.355 . S
C406 C408 1.419 . S
C407 C402 1.425 . S
C407 C404 1.409 . S
C407 C405 1.415 . S
C408 H398 0.929 1_554 S
C408 C406 1.419 . S
C408 C409 1.362 . S
C409 H399 0.930 . S
C409 C402 1.409 . S
C409 C408 1.362 . S
H410 C416 0.930 . S
H411 C419 0.930 . S
H412 C420 0.930 . S
H413 C421 0.930 . S
H414 C424 0.930 . S
H415 C425 0.930 . S
C416 H410 0.930 . S
C416 C417 1.355 . S
C416 C418 1.415 . S
C417 C416 1.355 . S
C417 C419 1.419 . S
C418 C416 1.415 . S
C418 C423 1.425 . S
C418 C425 1.409 . S
C419 H411 0.930 . S
C419 C417 1.419 . S
C419 C420 1.362 . S
C420 H412 0.930 . S
C420 C419 1.362 . S
C420 C423 1.409 . S
C421 H413 0.930 . S
C421 C422 1.355 . S
C421 C423 1.415 . S
C422 C421 1.355 . S
C422 C424 1.419 . S
C423 C418 1.425 . S
C423 C420 1.409 . S
C423 C421 1.415 . S
C424 H414 0.930 . S
C424 C422 1.419 . S
C424 C425 1.362 . S
C425 H415 0.930 . S
C425 C418 1.409 . S
C425 C424 1.362 . S
C145 C17 1.316 . S
C150 C16 1.316 . S
C161 C40 1.295 . S
C166 C39 1.291 1_554 S
C177 C62 1.295 . S
C182 C63 1.297 . S
C193 C85 1.291 . S
C198 C86 1.296 . S
C209 C108 1.304 . S
C214 C109 1.304 1_556 S
C225 C132 1.296 . S
C230 C131 1.291 . S
C241 C20 1.505 . S
C246 C136 1.506 . S
C257 C21 1.504 . S
C262 C43 1.505 . S
C273 C66 1.508 . S
C278 C44 1.457 . S
C289 C89 1.506 . S
C294 C67 1.463 . S
C305 C112 1.512 . S
C310 C90 1.484 . S
C321 C113 1.496 . S
C326 C135 1.510 . S
C337 C19 1.614 . S
C342 C110 1.648 . S
C353 C42 1.625 . S
C358 C133 1.657 . S
C369 C65 1.653 . S
C374 C18 1.662 . S
C385 C88 1.639 1_556 S
C390 C41 1.653 . S
C401 C111 1.649 . S
C406 C64 1.662 1_554 S
C417 C87 1.661 . S
C422 C134 1.640 . S
