# Generated by pormake.
# Topology tfs, (6)-cn, num edge types: 1
# Building blocks:
#     Node 0, Type 0, BuildingBlock: BETDIP_clean_sbu_0, # of connection points: 6
#     Node 1, Type 0, BuildingBlock: BETDIP_clean_sbu_0, # of connection points: 6
#     Node 2, Type 0, BuildingBlock: BETDIP_clean_sbu_0, # of connection points: 6
#     Node 3, Type 0, BuildingBlock: BETDIP_clean_sbu_0, # of connection points: 6
#     Node 4, Type 0, BuildingBlock: BETDIP_clean_sbu_0, # of connection points: 6
#     Node 5, Type 0, BuildingBlock: BETDIP_clean_sbu_0, # of connection points: 6
#     Edge 6, Type (0, 0), BuildingBlock: KIFKEQ_clean_linker_1, # of connection points: 2
#     Edge 7, Type (0, 0), BuildingBlock: KIFKEQ_clean_linker_1, # of connection points: 2
#     Edge 8, Type (0, 0), BuildingBlock: KIFKEQ_clean_linker_1, # of connection points: 2
#     Edge 9, Type (0, 0), BuildingBlock: KIFKEQ_clean_linker_1, # of connection points: 2
#     Edge 10, Type (0, 0), BuildingBlock: KIFKEQ_clean_linker_1, # of connection points: 2
#     Edge 11, Type (0, 0), BuildingBlock: KIFKEQ_clean_linker_1, # of connection points: 2
#     Edge 12, Type (0, 0), BuildingBlock: KIFKEQ_clean_linker_1, # of connection points: 2
#     Edge 13, Type (0, 0), BuildingBlock: KIFKEQ_clean_linker_1, # of connection points: 2
#     Edge 14, Type (0, 0), BuildingBlock: KIFKEQ_clean_linker_1, # of connection points: 2
#     Edge 15, Type (0, 0), BuildingBlock: KIFKEQ_clean_linker_1, # of connection points: 2
#     Edge 16, Type (0, 0), BuildingBlock: KIFKEQ_clean_linker_1, # of connection points: 2
#     Edge 17, Type (0, 0), BuildingBlock: KIFKEQ_clean_linker_1, # of connection points: 2
#     Edge 18, Type (0, 0), BuildingBlock: KIFKEQ_clean_linker_1, # of connection points: 2
#     Edge 19, Type (0, 0), BuildingBlock: KIFKEQ_clean_linker_1, # of connection points: 2
#     Edge 20, Type (0, 0), BuildingBlock: KIFKEQ_clean_linker_1, # of connection points: 2
#     Edge 21, Type (0, 0), BuildingBlock: KIFKEQ_clean_linker_1, # of connection points: 2
#     Edge 22, Type (0, 0), BuildingBlock: KIFKEQ_clean_linker_1, # of connection points: 2
#     Edge 23, Type (0, 0), BuildingBlock: KIFKEQ_clean_linker_1, # of connection points: 2
# Relax obj value: 0.579
# Max RMSD: 0.300
# Mean RMSD: 0.300
data_MOF--net-tfs--node1-BETDIP_clean_sbu_0--edge1-KIFKEQ_clean_linker_1
_symmetry_space_group_name_H-M    P1
_symmetry_Int_Tables_number       1
_symmetry_cell_setting            triclinic
loop_
_symmetry_equiv_pos_as_xyz
'x, y, z'
_cell_length_a     55.718676
_cell_length_b     55.713088
_cell_length_c     14.523318
_cell_angle_alpha  89.963192
_cell_angle_beta   90.003135
_cell_angle_gamma 120.10422
loop_
_atom_site_label
_atom_site_type_symbol
_atom_site_fract_x
_atom_site_fract_y
_atom_site_fract_z
_atom_type_partial_charge
Tb0 Tb 0.1719 0.44837 0.03512 0.0
Tb1 Tb 0.18875 0.40617 0.99497 0.0
C2 C 0.16456 0.48533 0.10703 0.0
C3 C 0.17494 0.51523 0.09778 0.0
C4 C 0.16815 0.52869 0.16558 0.0
C5 C 0.17582 0.55657 0.15528 0.0
C6 C 0.19039 0.57157 0.07661 0.0
C7 C 0.1978 0.55813 1.00972 0.0
C8 C 0.19012 0.53017 0.02022 0.0
C9 C 0.17273 0.43817 0.85762 0.0
C10 C 0.23658 0.46742 0.01746 0.0
C11 C 0.19546 0.3673 0.93624 0.0
C12 C 0.21592 0.35801 0.94262 0.0
C13 C 0.21189 0.33511 0.89054 0.0
C14 C 0.23046 0.32522 0.89737 0.0
C15 C 0.2535 0.33804 0.95669 0.0
C16 C 0.25758 0.36121 1.00836 0.0
C17 C 0.23896 0.37112 1.00131 0.0
C18 C 0.18913 0.41866 0.1704 0.0
C19 C 0.12527 0.3885 1.00825 0.0
O20 O 0.18187 0.47801 0.13967 0.0
O21 O 0.15017 0.46994 0.03746 0.0
O22 O 0.18939 0.43909 0.91791 0.0
O23 O 0.1567 0.44605 0.89451 0.0
O24 O 0.21731 0.47359 0.0412 0.0
O25 O 0.23018 0.4423 0.98922 0.0
O26 O 0.18222 0.36596 1.01216 0.0
O27 O 0.20306 0.3903 0.89084 0.0
O28 O 0.1713 0.41554 0.11135 0.0
O29 O 0.20693 0.41313 0.1332 0.0
O30 O 0.14396 0.38512 0.96266 0.0
O31 O 0.13315 0.41054 0.06055 0.0
H32 H 0.1565 0.51748 0.22601 0.0
H33 H 0.17025 0.56637 0.20898 0.0
H34 H 0.20885 0.56898 0.94805 0.0
H35 H 0.1955 0.52005 0.96703 0.0
H36 H 0.19414 0.32466 0.84514 0.0
H37 H 0.22644 0.30716 0.85751 0.0
H38 H 0.27527 0.37182 0.05381 0.0
H39 H 0.24244 0.38889 0.04194 0.0
Tb40 Tb 0.72673 0.1706 0.03817 0.0
Tb41 Tb 0.78597 0.1877 0.99804 0.0
C42 C 0.68205 0.16346 0.1065 0.0
C43 C 0.66276 0.17409 0.09539 0.0
C44 C 0.64643 0.17296 0.17043 0.0
C45 C 0.6266 0.18113 0.16048 0.0
C46 C 0.62264 0.19053 0.07498 0.0
C47 C 0.63943 0.1921 1.00013 0.0
C48 C 0.6594 0.18404 1.01032 0.0
C49 C 0.7384 0.17119 0.8614 0.0
C50 C 0.77244 0.23536 0.02124 0.0
C51 C 0.8312 0.19487 0.93411 0.0
C52 C 0.86097 0.21565 0.93877 0.0
C53 C 0.87981 0.2117 0.88636 0.0
C54 C 0.90832 0.23043 0.89255 0.0
C55 C 0.91859 0.25354 0.95154 0.0
C56 C 0.8995 0.25757 1.00334 0.0
C57 C 0.87093 0.2388 0.99696 0.0
C58 C 0.77441 0.18836 0.17397 0.0
C59 C 0.74018 0.12413 1.01529 0.0
O60 O 0.70652 0.1806 0.14079 0.0
O61 O 0.68335 0.14894 0.03794 0.0
O62 O 0.75361 0.18819 0.92163 0.0
O63 O 0.71455 0.15443 0.89773 0.0
O64 O 0.74683 0.21599 0.0435 0.0
O65 O 0.79136 0.22913 0.99431 0.0
O66 O 0.81994 0.18151 1.01056 0.0
O67 O 0.81524 0.20216 0.89073 0.0
O68 O 0.75917 0.17062 0.1152 0.0
O69 O 0.79808 0.20532 0.13634 0.0
O70 O 0.76224 0.1427 0.96894 0.0
O71 O 0.72596 0.13212 0.06672 0.0
H72 H 0.64866 0.16524 0.23652 0.0
H73 H 0.61385 0.17938 0.21924 0.0
H74 H 0.63715 0.19959 0.93372 0.0
H75 H 0.67192 0.1852 0.95155 0.0
H76 H 0.87249 0.19386 0.84142 0.0
H77 H 0.92236 0.22643 0.8526 0.0
H78 H 0.90661 0.27531 0.04853 0.0
H79 H 0.85666 0.2422 0.03791 0.0
Tb80 Tb 0.56019 0.7251 0.04149 0.0
Tb81 Tb 0.60188 0.78445 1.00143 0.0
C82 C 0.52336 0.68041 0.11258 0.0
C83 C 0.49354 0.66068 0.10181 0.0
C84 C 0.4799 0.6399 0.16807 0.0
C85 C 0.45207 0.61962 0.15631 0.0
C86 C 0.43732 0.61967 0.0777 0.0
C87 C 0.45097 0.64101 1.0123 0.0
C88 C 0.47886 0.66136 0.02427 0.0
C89 C 0.57043 0.73628 0.86403 0.0
C90 C 0.54045 0.77013 0.02374 0.0
C91 C 0.6405 0.83036 0.94283 0.0
C92 C 0.64955 0.86009 0.94905 0.0
C93 C 0.67258 0.87915 0.89769 0.0
C94 C 0.68225 0.9076 0.90433 0.0
C95 C 0.66907 0.91762 0.96271 0.0
C96 C 0.64578 0.89832 1.01374 0.0
C97 C 0.63609 0.8698 1.00689 0.0
C98 C 0.58934 0.77217 0.17681 0.0
C99 C 0.62024 0.73922 1.01525 0.0
O100 O 0.53034 0.70497 0.14528 0.0
O101 O 0.53911 0.68172 0.04375 0.0
O102 O 0.56924 0.75187 0.92426 0.0
O103 O 0.56283 0.7124 0.90096 0.0
O104 O 0.5346 0.74478 0.04773 0.0
O105 O 0.56547 0.78914 0.99528 0.0
O106 O 0.64192 0.81852 0.01881 0.0
O107 O 0.61757 0.81473 0.89733 0.0
O108 O 0.59273 0.75763 0.11788 0.0
O109 O 0.59463 0.79545 0.13954 0.0
O110 O 0.62336 0.76118 0.96938 0.0
O111 O 0.59824 0.72483 0.0676 0.0
H112 H 0.49092 0.63912 0.22845 0.0
H113 H 0.44212 0.60386 0.20891 0.0
H114 H 0.44033 0.64159 0.95068 0.0
H115 H 0.48913 0.67727 0.97225 0.0
H116 H 0.68331 0.87203 0.85299 0.0
H117 H 0.70043 0.9218 0.86504 0.0
H118 H 0.63491 0.90525 0.05849 0.0
H119 H 0.61822 0.85534 0.04698 0.0
Tb120 Tb 0.83734 0.55856 0.03289 0.0
Tb121 Tb 0.82047 0.60075 0.99263 0.0
C122 C 0.84481 0.52169 0.10501 0.0
C123 C 0.83464 0.49184 0.09554 0.0
C124 C 0.84133 0.47837 0.16364 0.0
C125 C 0.83389 0.45056 0.15315 0.0
C126 C 0.81964 0.43565 0.074 0.0
C127 C 0.81233 0.4491 1.00678 0.0
C128 C 0.81979 0.47699 0.01746 0.0
C129 C 0.83654 0.56878 0.85535 0.0
C130 C 0.77268 0.53949 1.01523 0.0
C131 C 0.81376 0.63962 0.93389 0.0
C132 C 0.79331 0.6489 0.94074 0.0
C133 C 0.79734 0.67189 0.88912 0.0
C134 C 0.77877 0.68177 0.89649 0.0
C135 C 0.75575 0.66884 0.95589 0.0
C136 C 0.75168 0.64558 1.00711 0.0
C137 C 0.77029 0.63568 0.99953 0.0
C138 C 0.82006 0.58821 0.16808 0.0
C139 C 0.88392 0.61843 1.00585 0.0
O140 O 0.82731 0.5288 0.13722 0.0
O141 O 0.85929 0.53722 0.03575 0.0
O142 O 0.81988 0.56786 0.91563 0.0
O143 O 0.85253 0.56085 0.89227 0.0
O144 O 0.79194 0.53331 0.03906 0.0
O145 O 0.77907 0.56461 0.98687 0.0
O146 O 0.82711 0.64099 1.00956 0.0
O147 O 0.80607 0.61659 0.88865 0.0
O148 O 0.8379 0.59135 0.10905 0.0
O149 O 0.80228 0.59376 0.13085 0.0
O150 O 0.86524 0.62184 0.96024 0.0
O151 O 0.87602 0.5964 0.05824 0.0
H152 H 0.85274 0.48952 0.22445 0.0
H153 H 0.83937 0.44074 0.20709 0.0
H154 H 0.80154 0.43833 0.94473 0.0
H155 H 0.8145 0.48712 0.96403 0.0
H156 H 0.81508 0.68242 0.84367 0.0
H157 H 0.78279 0.6999 0.85697 0.0
H158 H 0.734 0.6349 0.05261 0.0
H159 H 0.76682 0.61784 0.03981 0.0
Tb160 Tb 0.28357 0.83686 0.03953 0.0
Tb161 Tb 0.22436 0.81961 0.9994 0.0
C162 C 0.32827 0.84431 0.10846 0.0
C163 C 0.34758 0.83375 0.09747 0.0
C164 C 0.36426 0.83533 0.17205 0.0
C165 C 0.38401 0.82707 0.16211 0.0
C166 C 0.38754 0.81714 0.0771 0.0
C167 C 0.37042 0.81514 1.00273 0.0
C168 C 0.35052 0.82328 1.01292 0.0
C169 C 0.27199 0.8362 0.86265 0.0
C170 C 0.23813 0.77207 0.02299 0.0
C171 C 0.17866 0.81172 0.93795 0.0
C172 C 0.14862 0.79122 0.94748 0.0
C173 C 0.13429 0.77252 0.87575 0.0
C174 C 0.10565 0.75418 0.8818 0.0
C175 C 0.09058 0.75423 0.95954 0.0
C176 C 0.10498 0.77297 0.03127 0.0
C177 C 0.13359 0.79124 0.02532 0.0
C178 C 0.23591 0.81908 0.17549 0.0
C179 C 0.26995 0.88312 1.01477 0.0
O180 O 0.30379 0.82708 0.14263 0.0
O181 O 0.32694 0.85878 0.03969 0.0
O182 O 0.25675 0.8192 0.9229 0.0
O183 O 0.29582 0.85299 0.89899 0.0
O184 O 0.26371 0.7915 0.04513 0.0
O185 O 0.21916 0.77825 0.99608 0.0
O186 O 0.19123 0.8271 1.00985 0.0
O187 O 0.1941 0.80365 0.89506 0.0
O188 O 0.25111 0.8368 0.11656 0.0
O189 O 0.21228 0.80209 0.13795 0.0
O190 O 0.24807 0.86446 0.96805 0.0
O191 O 0.28406 0.87524 0.0672 0.0
H192 H 0.36232 0.84344 0.23772 0.0
H193 H 0.39703 0.82915 0.22044 0.0
H194 H 0.37238 0.80724 0.93674 0.0
H195 H 0.33772 0.82175 0.95457 0.0
H196 H 0.14521 0.77219 0.81446 0.0
H197 H 0.09535 0.73984 0.82569 0.0
H198 H 0.09405 0.77396 0.0915 0.0
H199 H 0.14381 0.80562 0.08141 0.0
Tb200 Tb 0.44928 0.28187 0.03911 0.0
Tb201 Tb 0.40767 0.22256 0.99908 0.0
C202 C 0.48601 0.32653 0.11033 0.0
C203 C 0.51582 0.34626 0.09959 0.0
C204 C 0.52942 0.36704 0.16576 0.0
C205 C 0.55725 0.38733 0.154 0.0
C206 C 0.57202 0.38726 0.07547 0.0
C207 C 0.55841 0.36592 1.01017 0.0
C208 C 0.53052 0.34557 0.02215 0.0
C209 C 0.43913 0.27074 0.86162 0.0
C210 C 0.46914 0.23691 0.02167 0.0
C211 C 0.36912 0.1767 0.94021 0.0
C212 C 0.36012 0.14698 0.94629 0.0
C213 C 0.33728 0.12796 0.89421 0.0
C214 C 0.32764 0.09951 0.90083 0.0
C215 C 0.34065 0.08947 0.95992 0.0
C216 C 0.36376 0.10873 1.01161 0.0
C217 C 0.37343 0.13725 1.00477 0.0
C218 C 0.42011 0.23476 0.1745 0.0
C219 C 0.38922 0.26773 1.01291 0.0
O220 O 0.47905 0.30197 0.14304 0.0
O221 O 0.4703 0.32524 0.04141 0.0
O222 O 0.44033 0.25516 0.92191 0.0
O223 O 0.44667 0.2946 0.89851 0.0
O224 O 0.47495 0.26226 0.04547 0.0
O225 O 0.44412 0.21788 0.9933 0.0
O226 O 0.36766 0.18845 0.01627 0.0
O227 O 0.39206 0.19238 0.89479 0.0
O228 O 0.41674 0.24931 0.11549 0.0
O229 O 0.41487 0.21151 0.13727 0.0
O230 O 0.38613 0.2458 0.96706 0.0
O231 O 0.41122 0.2821 0.06521 0.0
H232 H 0.51838 0.36783 0.22607 0.0
H233 H 0.56718 0.40309 0.20651 0.0
H234 H 0.56907 0.36534 0.94862 0.0
H235 H 0.52028 0.32965 0.97022 0.0
H236 H 0.32668 0.1351 0.84898 0.0
H237 H 0.3096 0.08533 0.86099 0.0
H238 H 0.3745 0.10179 0.0569 0.0
H239 H 0.39116 0.15168 0.04541 0.0
H240 H 0.34207 0.24551 0.90623 0.0
H241 H 0.38903 0.31053 0.10337 0.0
H242 H 0.30852 0.26148 0.89359 0.0
H243 H 0.35602 0.32668 0.08944 0.0
H244 H 0.2733 0.31868 0.81956 0.0
H245 H 0.30483 0.30046 0.83391 0.0
H246 H 0.30903 0.31394 0.12773 0.0
H247 H 0.27755 0.33217 0.11338 0.0
C248 C 0.34525 0.26316 0.94688 0.0
C249 C 0.36826 0.27668 1.00585 0.0
C250 C 0.32611 0.27243 0.93922 0.0
C251 C 0.32951 0.29538 0.99058 0.0
C252 C 0.35246 0.30872 0.04988 0.0
C253 C 0.37154 0.29951 0.05739 0.0
C254 C 0.28076 0.31754 0.88737 0.0
C255 C 0.27292 0.32702 0.96528 0.0
C256 C 0.29882 0.30703 0.8956 0.0
C257 C 0.30954 0.30573 0.98195 0.0
C258 C 0.30156 0.31504 0.0599 0.0
C259 C 0.28352 0.32556 0.05167 0.0
H260 H 0.08239 0.38887 0.09778 0.0
H261 H 0.09991 0.34134 0.90181 0.0
H262 H 0.03304 0.35617 0.08356 0.0
H263 H 0.05023 0.30812 0.88887 0.0
H264 H 0.95786 0.27321 0.81436 0.0
H265 H 0.00773 0.30469 0.82865 0.0
H266 H 0.99838 0.30926 0.12227 0.0
H267 H 0.94857 0.27783 0.10801 0.0
C268 C 0.07576 0.37132 0.05199 0.0
C269 C 0.09522 0.36778 1.0009 0.0
C270 C 0.04737 0.35242 0.04429 0.0
C271 C 0.03756 0.32941 0.98525 0.0
C272 C 0.05701 0.32577 0.93428 0.0
C273 C 0.08552 0.34471 0.94213 0.0
C274 C 0.96645 0.28075 0.88212 0.0
C275 C 0.94909 0.27301 0.95999 0.0
C276 C 0.9951 0.29878 0.89031 0.0
C277 C 0.00715 0.30958 0.97659 0.0
C278 C 0.98979 0.30173 0.05449 0.0
C279 C 0.96117 0.28372 0.0463 0.0
H280 H 0.76225 0.09872 0.91099 0.0
H281 H 0.69682 0.08135 0.10555 0.0
H282 H 0.74585 0.04908 0.89949 0.0
H283 H 0.68021 0.03198 0.09271 0.0
H284 H 0.67411 0.94752 0.11875 0.0
H285 H 0.69228 0.99731 0.13251 0.0
H286 H 0.70688 0.0066 0.83916 0.0
H287 H 0.68871 0.9568 0.8254 0.0
C288 C 0.74441 0.08437 0.95134 0.0
C289 C 0.73091 0.09409 1.00924 0.0
C290 C 0.73488 0.05587 0.9443 0.0
C291 C 0.71167 0.03645 0.99518 0.0
C292 C 0.69836 0.04629 0.0535 0.0
C293 C 0.70783 0.07468 0.06041 0.0
C294 C 0.68094 0.96012 0.05701 0.0
C295 C 0.67986 0.94806 0.97095 0.0
C296 C 0.69142 0.98872 0.06491 0.0
C297 C 0.70109 0.00605 0.98694 0.0
C298 C 0.70006 0.994 0.9009 0.0
C299 C 0.68958 0.96539 0.893 0.0
H300 H 0.73586 0.68833 0.81947 0.0
H301 H 0.73184 0.67453 0.11315 0.0
H302 H 0.70435 0.70655 0.83472 0.0
H303 H 0.70039 0.69276 0.1284 0.0
H304 H 0.66737 0.76154 0.90849 0.0
H305 H 0.70086 0.74553 0.89522 0.0
H306 H 0.65335 0.6801 0.09067 0.0
H307 H 0.62038 0.69629 0.10523 0.0
C308 C 0.72845 0.6894 0.88744 0.0
C309 C 0.73635 0.67984 0.96505 0.0
C310 C 0.71041 0.69991 0.89619 0.0
C311 C 0.69977 0.70113 0.98277 0.0
C312 C 0.7078 0.69173 0.06042 0.0
C313 C 0.72582 0.68121 0.05167 0.0
C314 C 0.66418 0.74383 0.94893 0.0
C315 C 0.64117 0.73025 1.00795 0.0
C316 C 0.68328 0.73454 0.9409 0.0
C317 C 0.67985 0.71151 0.99193 0.0
C318 C 0.65692 0.69812 0.05134 0.0
C319 C 0.63787 0.70735 0.05923 0.0
H320 H 0.06023 0.72604 0.1113 0.0
H321 H 0.0515 0.73867 0.82247 0.0
H322 H 0.01038 0.69497 0.12276 0.0
H323 H 1.00166 0.70648 0.83303 0.0
H324 H 0.90911 0.66728 0.90756 0.0
H325 H 0.95878 0.70083 0.89664 0.0
H326 H 0.97616 0.64935 0.07518 0.0
H327 H 0.92688 0.6164 0.08777 0.0
C328 C 0.0477 0.72226 0.05017 0.0
C329 C 0.06001 0.73492 0.96593 0.0
C330 C 0.01908 0.70414 0.0565 0.0
C331 C 1.00192 0.69804 0.97871 0.0
C332 C 0.01416 0.71085 0.89455 0.0
C333 C 0.04283 0.72904 0.88823 0.0
C334 C 0.92356 0.66322 0.94469 0.0
C335 C 0.91395 0.63917 0.99877 0.0
C336 C 0.95205 0.68236 0.93801 0.0
C337 C 0.97155 0.67789 0.9853 0.0
C338 C 0.96181 0.65379 0.03911 0.0
C339 C 0.93345 0.63475 0.04586 0.0
H340 H 0.24806 0.90835 0.90844 0.0
H341 H 0.31297 0.926 0.10551 0.0
H342 H 0.26434 0.95796 0.89617 0.0
H343 H 0.32944 0.97532 0.09193 0.0
H344 H 0.32155 0.05038 0.82254 0.0
H345 H 0.30344 1.00058 0.83659 0.0
H346 H 0.31694 0.00975 0.13044 0.0
H347 H 0.33505 0.05952 0.11639 0.0
C348 C 0.26576 0.92276 0.94916 0.0
C349 C 0.27915 0.91313 1.00802 0.0
C350 C 0.27521 0.95123 0.94169 0.0
C351 C 0.29822 0.97071 0.99311 0.0
C352 C 0.31144 0.96097 0.05231 0.0
C353 C 0.30205 0.9326 0.05964 0.0
C354 C 0.32046 0.04175 0.89029 0.0
C355 C 0.32986 0.05904 0.96831 0.0
C356 C 0.31001 0.01315 0.89835 0.0
C357 C 0.30871 1.00108 0.98464 0.0
C358 C 0.31803 0.01836 0.06268 0.0
C359 C 0.32848 0.04695 0.05461 0.0
H360 H 0.1886 0.7257 0.97941 0.0
H361 H 0.27156 0.75153 0.07491 0.0
H362 H 0.17713 0.67733 0.98687 0.0
H363 H 0.25989 0.70329 0.08415 0.0
H364 H 0.23847 0.61544 1.00896 0.0
H365 H 0.24961 0.66348 0.99005 0.0
H366 H 0.16929 0.64226 0.09991 0.0
H367 H 0.15774 0.59412 0.11519 0.0
C368 C 0.20439 0.72111 1.00214 0.0
C369 C 0.231 0.74258 0.02661 0.0
C370 C 0.19776 0.69334 1.00687 0.0
C371 C 0.21758 0.68637 0.03617 0.0
C372 C 0.24423 0.70788 0.06002 0.0
C373 C 0.25085 0.7356 0.05529 0.0
C374 C 0.22307 0.62096 0.02806 0.0
C375 C 0.19726 0.6009 0.06402 0.0
C376 C 0.22956 0.64858 0.01815 0.0
C377 C 0.21039 0.65681 0.04377 0.0
C378 C 0.18446 0.63665 0.07863 0.0
C379 C 0.17798 0.60908 0.08856 0.0
H380 H 0.46695 0.18798 0.97584 0.0
H381 H 0.52272 0.27066 0.0772 0.0
H382 H 0.50423 0.17708 0.98651 0.0
H383 H 0.55984 0.25985 0.08656 0.0
H384 H 0.60938 0.22034 0.19329 0.0
H385 H 0.57215 0.23104 0.17871 0.0
H386 H 0.54918 0.189 0.91626 0.0
H387 H 0.586 0.1776 0.93213 0.0
C388 C 0.48714 0.20386 0.99996 0.0
C389 C 0.49174 0.23017 0.02588 0.0
C390 C 0.50855 0.19766 1.00561 0.0
C391 C 0.53501 0.21757 0.03767 0.0
C392 C 0.53962 0.2439 0.06285 0.0
C393 C 0.5183 0.25013 0.05696 0.0
C394 C 0.59631 0.21325 0.13267 0.0
C395 C 0.60067 0.19808 0.06394 0.0
C396 C 0.57512 0.21961 0.12387 0.0
C397 C 0.55767 0.21089 0.04626 0.0
C398 C 0.56208 0.1958 0.9773 0.0
C399 C 0.58339 0.18955 0.98589 0.0
H400 H 0.41444 0.56413 0.11301 0.0
H401 H 0.39378 0.62432 1.01018 0.0
H402 H 0.36627 0.52764 0.09577 0.0
H403 H 0.34576 0.58755 0.98916 0.0
H404 H 0.25743 0.52134 0.071 0.0
H405 H 0.30574 0.55773 0.08163 0.0
H406 H 0.33126 0.50089 0.9821 0.0
H407 H 0.28279 0.46413 0.97335 0.0
C408 C 0.39963 0.5696 0.08668 0.0
C409 C 0.408 0.59725 0.06372 0.0
C410 C 0.37204 0.54857 0.0756 0.0
C411 C 0.35206 0.5546 0.04112 0.0
C412 C 0.3605 0.58219 0.01696 0.0
C413 C 0.38813 0.60325 0.02806 0.0
C414 C 0.27328 0.51652 0.05114 0.0
C415 C 0.26614 0.48971 0.02145 0.0
C416 C 0.30105 0.53752 0.05666 0.0
C417 C 0.32246 0.53232 0.0326 0.0
C418 C 0.31533 0.50555 1.00225 0.0
C419 C 0.2875 0.4845 0.99675 0.0
H420 H 0.85238 0.41328 0.11391 0.0
H421 H 0.7719 0.39178 1.00485 0.0
H422 H 0.84106 0.3652 0.0987 0.0
H423 H 0.76101 0.34383 0.98601 0.0
H424 H 0.73892 0.25588 0.07185 0.0
H425 H 0.75056 0.30409 0.08077 0.0
H426 H 0.83358 0.33013 0.98598 0.0
H427 H 0.82213 0.28176 0.97885 0.0
C428 C 0.83225 0.39829 0.08665 0.0
C429 C 0.81296 0.4064 0.06133 0.0
C430 C 0.8259 0.37076 0.07676 0.0
C431 C 0.80011 0.35058 0.04119 0.0
C432 C 0.78095 0.35875 1.01469 0.0
C433 C 0.7873 0.38631 0.02456 0.0
C434 C 0.75968 0.27182 0.05271 0.0
C435 C 0.77961 0.26486 0.02475 0.0
C436 C 0.76629 0.29953 0.05724 0.0
C437 C 0.79299 0.32105 0.03392 0.0
C438 C 0.8129 0.31411 1.00548 0.0
C439 C 0.80629 0.28634 1.00093 0.0
H440 H 0.42365 0.82938 0.93311 0.0
H441 H 0.40103 0.78775 0.19646 0.0
H442 H 0.46033 0.81779 0.91715 0.0
H443 H 0.4381 0.77683 0.1817 0.0
H444 H 0.48695 0.73656 0.08041 0.0
H445 H 0.44992 0.7475 0.08974 0.0
H446 H 0.5055 0.83001 0.98717 0.0
H447 H 0.54269 0.819 0.97657 0.0
C448 C 0.4264 0.81762 0.98732 0.0
C449 C 0.40939 0.80946 0.06602 0.0
C450 C 0.44762 0.81126 0.97866 0.0
C451 C 0.45218 0.79643 0.0482 0.0
C452 C 0.43499 0.78806 0.12646 0.0
C453 C 0.4139 0.79454 0.13533 0.0
C454 C 0.49137 0.75706 0.0596 0.0
C455 C 0.5179 0.77692 0.02786 0.0
C456 C 0.47011 0.76336 0.06546 0.0
C457 C 0.47476 0.78966 0.03958 0.0
C458 C 0.50117 0.80946 1.00683 0.0
C459 C 0.52253 0.80319 1.00123 0.0
H460 H 0.75184 0.48562 0.0695 0.0
H461 H 0.72651 0.54274 0.97035 0.0
H462 H 0.70353 0.44923 0.08009 0.0
H463 H 0.67804 0.50597 0.97905 0.0
H464 H 0.59483 0.4428 0.11021 0.0
H465 H 0.643 0.4793 0.09292 0.0
H466 H 0.6636 0.41937 0.98736 0.0
H467 H 0.61558 0.3826 1.00845 0.0
C468 C 0.736 0.49042 0.0493 0.0
C469 C 0.74314 0.5172 0.0192 0.0
C470 C 0.70823 0.46942 0.0548 0.0
C471 C 0.68684 0.4746 0.03029 0.0
C472 C 0.69397 0.50134 0.99954 0.0
C473 C 0.72179 0.52239 0.99407 0.0
C474 C 0.60967 0.43733 0.0841 0.0
C475 C 0.60132 0.40967 0.06145 0.0
C476 C 0.63725 0.45836 0.07299 0.0
C477 C 0.65724 0.45232 0.0388 0.0
C478 C 0.64883 0.42473 1.01493 0.0
C479 C 0.62122 0.40367 0.02607 0.0
H480 H 0.2078 0.4251 0.76742 0.0
H481 H 0.1445 0.44664 0.72074 0.0
H482 H 0.21127 0.41991 0.60244 0.0
H483 H 0.14946 0.44392 0.55546 0.0
H484 H 0.14386 0.41115 0.26636 0.0
H485 H 0.13985 0.41528 0.43168 0.0
H486 H 0.22689 0.44165 0.46336 0.0
H487 H 0.23005 0.43549 0.29855 0.0
C488 C 0.19463 0.42872 0.72174 0.0
C489 C 0.17554 0.43575 0.75717 0.0
C490 C 0.19691 0.42623 0.62661 0.0
C491 C 0.18063 0.43143 0.5642 0.0
C492 C 0.16191 0.43903 0.60039 0.0
C493 C 0.15921 0.44087 0.69552 0.0
C494 C 0.16208 0.41783 0.30898 0.0
C495 C 0.18722 0.42287 0.26994 0.0
C496 C 0.15991 0.42043 0.40402 0.0
C497 C 0.18303 0.42882 0.46228 0.0
C498 C 0.20838 0.43449 0.42201 0.0
C499 C 0.21034 0.43124 0.3272 0.0
H500 H 0.7778 0.21628 0.76768 0.0
H501 H 0.71237 0.13161 0.73051 0.0
H502 H 0.78585 0.22102 0.60211 0.0
H503 H 0.72145 0.13541 0.56555 0.0
H504 H 0.72523 0.15619 0.26309 0.0
H505 H 0.71652 0.15282 0.42828 0.0
H506 H 0.80363 0.21058 0.4764 0.0
H507 H 0.81159 0.21534 0.31114 0.0
C508 C 0.76542 0.19854 0.72389 0.0
C509 C 0.74439 0.17362 0.76164 0.0
C510 C 0.77012 0.20113 0.62871 0.0
C511 C 0.75432 0.17862 0.56905 0.0
C512 C 0.73365 0.15349 0.60801 0.0
C513 C 0.72857 0.15114 0.70292 0.0
C514 C 0.74238 0.16837 0.30923 0.0
C515 C 0.76902 0.18618 0.27425 0.0
C516 C 0.73752 0.16621 0.40435 0.0
C517 C 0.75934 0.18133 0.46709 0.0
C518 C 0.78607 0.199 0.43123 0.0
C519 C 0.79076 0.2016 0.33614 0.0
H520 H 0.58297 0.78433 0.77375 0.0
H521 H 0.56234 0.69968 0.7273 0.0
H522 H 0.58801 0.793 0.60871 0.0
H523 H 0.56491 0.70734 0.56201 0.0
H524 H 0.5975 0.73485 0.27281 0.0
H525 H 0.59353 0.72675 0.43815 0.0
H526 H 0.56606 0.78649 0.46982 0.0
H527 H 0.57207 0.79581 0.30494 0.0
C528 C 0.57952 0.76758 0.72811 0.0
C529 C 0.57279 0.74152 0.7636 0.0
C530 C 0.58192 0.77235 0.63296 0.0
C531 C 0.57693 0.75092 0.57064 0.0
C532 C 0.56964 0.72465 0.60689 0.0
C533 C 0.56788 0.72012 0.70202 0.0
C534 C 0.59061 0.7462 0.31542 0.0
C535 C 0.58521 0.76604 0.27636 0.0
C536 C 0.5881 0.74144 0.41048 0.0
C537 C 0.57945 0.75592 0.46872 0.0
C538 C 0.57343 0.77535 0.42845 0.0
C539 C 0.57658 0.78055 0.33361 0.0
H540 H 0.86467 0.56018 0.7185 0.0
H541 H 0.80154 0.58195 0.76512 0.0
H542 H 0.85968 0.56287 0.55321 0.0
H543 H 0.79804 0.58711 0.60011 0.0
H544 H 0.77917 0.57145 0.29636 0.0
H545 H 0.78234 0.56531 0.4612 0.0
H546 H 0.86934 0.59154 0.42928 0.0
H547 H 0.86532 0.59565 0.26395 0.0
C548 C 0.84999 0.56599 0.69326 0.0
C549 C 0.83372 0.57118 0.7549 0.0
C550 C 0.84727 0.56782 0.59813 0.0
C551 C 0.82859 0.57547 0.56192 0.0
C552 C 0.81237 0.58074 0.6243 0.0
C553 C 0.81467 0.57827 0.71945 0.0
C554 C 0.79886 0.57567 0.32497 0.0
C555 C 0.82198 0.584 0.26764 0.0
C556 C 0.80083 0.57243 0.41979 0.0
C557 C 0.82618 0.57806 0.45999 0.0
C558 C 0.84929 0.58641 0.40168 0.0
C559 C 0.8471 0.58901 0.30662 0.0
H560 H 0.19874 0.79213 0.31278 0.0
H561 H 0.28507 0.85136 0.26438 0.0
H562 H 0.20672 0.79691 0.47799 0.0
H563 H 0.29381 0.85473 0.42953 0.0
H564 H 0.29801 0.87582 0.73172 0.0
H565 H 0.2889 0.87208 0.5668 0.0
H566 H 0.22452 0.78645 0.60357 0.0
H567 H 0.23259 0.79114 0.76909 0.0
C568 C 0.21957 0.80589 0.33769 0.0
C569 C 0.2413 0.82132 0.27574 0.0
C570 C 0.22427 0.8085 0.43276 0.0
C571 C 0.251 0.82618 0.4685 0.0
C572 C 0.27281 0.84132 0.40568 0.0
C573 C 0.26794 0.83916 0.3106 0.0
C574 C 0.28181 0.8563 0.70417 0.0
C575 C 0.266 0.8338 0.76292 0.0
C576 C 0.27671 0.85398 0.60929 0.0
C577 C 0.25604 0.82886 0.57042 0.0
C578 C 0.24025 0.80633 0.63011 0.0
C579 C 0.24497 0.80889 0.72525 0.0
H580 H 0.4268 0.22276 0.77154 0.0
H581 H 0.44704 0.30729 0.72467 0.0
H582 H 0.42172 0.21406 0.60658 0.0
H583 H 0.44445 0.29962 0.55941 0.0
H584 H 0.41186 0.27201 0.27037 0.0
H585 H 0.41587 0.28015 0.43566 0.0
H586 H 0.44354 0.22056 0.46753 0.0
H587 H 0.43749 0.2112 0.30272 0.0
C588 C 0.43016 0.23948 0.72582 0.0
C589 C 0.43679 0.26551 0.76119 0.0
C590 C 0.42774 0.23469 0.6307 0.0
C591 C 0.43261 0.25608 0.56826 0.0
C592 C 0.43981 0.28233 0.60438 0.0
C593 C 0.44158 0.28687 0.6995 0.0
C594 C 0.4188 0.2607 0.31303 0.0
C595 C 0.42424 0.24089 0.27404 0.0
C596 C 0.42134 0.26549 0.40806 0.0
C597 C 0.43006 0.25106 0.46635 0.0
C598 C 0.43612 0.23166 0.42614 0.0
C599 C 0.43294 0.22644 0.33134 0.0
loop_
_geom_bond_atom_site_label_1
_geom_bond_atom_site_label_2
_geom_bond_distance
_geom_bond_site_symmetry_2
_ccdc_geom_bond_type
Tb0 C2 2.809 1_556 S
Tb0 O20 2.484 1_556 S
Tb0 O21 2.440 . S
Tb0 O22 2.658 . S
Tb0 O23 2.409 . S
Tb0 O24 2.378 . S
Tb0 O28 2.325 1_556 S
Tb0 O31 2.341 . S
Tb1 C11 2.809 1_554 S
Tb1 O22 2.325 1_554 S
Tb1 O25 2.341 . S
Tb1 O26 2.484 1_554 S
Tb1 O27 2.440 . S
Tb1 O28 2.658 . S
Tb1 O29 2.409 . S
Tb1 O30 2.378 . S
C2 Tb0 2.809 1_554 S
C2 C3 1.514 . S
C2 O20 1.248 . S
C2 O21 1.266 1_554 S
C3 C2 1.514 . S
C3 C4 1.359 . S
C3 C8 1.348 1_554 S
C4 C3 1.359 . S
C4 C5 1.380 . S
C4 H32 0.929 . S
C5 C4 1.380 . S
C5 C6 1.347 . S
C5 H33 0.931 . S
C6 C5 1.347 . S
C6 C7 1.369 1_554 S
C7 C6 1.369 1_556 S
C7 C8 1.408 . S
C7 H34 0.930 . S
C8 C3 1.348 1_556 S
C8 C7 1.408 . S
C8 H35 0.930 . S
C9 O22 1.281 . S
C9 O23 1.254 . S
C10 O24 1.236 . S
C10 O25 1.266 1_556 S
C11 Tb1 2.809 1_556 S
C11 C12 1.514 . S
C11 O26 1.248 . S
C11 O27 1.266 1_556 S
C12 C11 1.514 . S
C12 C13 1.359 . S
C12 C17 1.348 1_556 S
C13 C12 1.359 . S
C13 C14 1.380 . S
C13 H36 0.929 . S
C14 C13 1.380 . S
C14 C15 1.347 . S
C14 H37 0.931 . S
C15 C14 1.347 . S
C15 C16 1.369 1_556 S
C16 C15 1.369 1_554 S
C16 C17 1.408 . S
C16 H38 0.930 . S
C17 C12 1.348 1_554 S
C17 C16 1.408 . S
C17 H39 0.930 . S
C18 O28 1.281 . S
C18 O29 1.254 . S
C19 O30 1.236 . S
C19 O31 1.266 1_554 S
O20 Tb0 2.484 1_554 S
O20 C2 1.248 . S
O21 Tb0 2.440 . S
O21 C2 1.266 1_556 S
O22 Tb0 2.658 . S
O22 Tb1 2.325 1_556 S
O22 C9 1.281 . S
O23 Tb0 2.409 . S
O23 C9 1.254 . S
O24 Tb0 2.378 . S
O24 C10 1.236 . S
O25 Tb1 2.341 . S
O25 C10 1.266 1_554 S
O26 Tb1 2.484 1_556 S
O26 C11 1.248 . S
O27 Tb1 2.440 . S
O27 C11 1.266 1_554 S
O28 Tb0 2.325 1_554 S
O28 Tb1 2.658 . S
O28 C18 1.281 . S
O29 Tb1 2.409 . S
O29 C18 1.254 . S
O30 Tb1 2.378 . S
O30 C19 1.236 . S
O31 Tb0 2.341 . S
O31 C19 1.266 1_556 S
H32 C4 0.929 . S
H33 C5 0.931 . S
H34 C7 0.930 . S
H35 C8 0.930 . S
H36 C13 0.929 . S
H37 C14 0.931 . S
H38 C16 0.930 . S
H39 C17 0.930 . S
Tb40 C42 2.809 1_556 S
Tb40 O60 2.484 1_556 S
Tb40 O61 2.440 . S
Tb40 O62 2.658 . S
Tb40 O63 2.409 . S
Tb40 O64 2.378 . S
Tb40 O68 2.325 1_556 S
Tb40 O71 2.341 . S
Tb41 C51 2.809 1_554 S
Tb41 O62 2.325 1_554 S
Tb41 O65 2.341 . S
Tb41 O66 2.484 1_554 S
Tb41 O67 2.440 . S
Tb41 O68 2.658 . S
Tb41 O69 2.409 . S
Tb41 O70 2.378 . S
C42 Tb40 2.809 1_554 S
C42 C43 1.514 . S
C42 O60 1.248 . S
C42 O61 1.266 1_554 S
C43 C42 1.514 . S
C43 C44 1.359 . S
C43 C48 1.348 1_554 S
C44 C43 1.359 . S
C44 C45 1.380 . S
C44 H72 0.929 . S
C45 C44 1.380 . S
C45 C46 1.347 . S
C45 H73 0.931 . S
C46 C45 1.347 . S
C46 C47 1.369 1_554 S
C47 C46 1.369 1_556 S
C47 C48 1.408 . S
C47 H74 0.930 . S
C48 C43 1.348 1_556 S
C48 C47 1.408 . S
C48 H75 0.930 . S
C49 O62 1.281 . S
C49 O63 1.254 . S
C50 O64 1.236 . S
C50 O65 1.266 1_556 S
C51 Tb41 2.809 1_556 S
C51 C52 1.514 . S
C51 O66 1.248 . S
C51 O67 1.266 1_556 S
C52 C51 1.514 . S
C52 C53 1.359 . S
C52 C57 1.348 1_556 S
C53 C52 1.359 . S
C53 C54 1.380 . S
C53 H76 0.929 . S
C54 C53 1.380 . S
C54 C55 1.347 . S
C54 H77 0.931 . S
C55 C54 1.347 . S
C55 C56 1.369 1_556 S
C56 C55 1.369 1_554 S
C56 C57 1.408 . S
C56 H78 0.930 . S
C57 C52 1.348 1_554 S
C57 C56 1.408 . S
C57 H79 0.930 . S
C58 O68 1.281 . S
C58 O69 1.254 . S
C59 O70 1.236 . S
C59 O71 1.266 1_554 S
O60 Tb40 2.484 1_554 S
O60 C42 1.248 . S
O61 Tb40 2.440 . S
O61 C42 1.266 1_556 S
O62 Tb40 2.658 . S
O62 Tb41 2.325 1_556 S
O62 C49 1.281 . S
O63 Tb40 2.409 . S
O63 C49 1.254 . S
O64 Tb40 2.378 . S
O64 C50 1.236 . S
O65 Tb41 2.341 . S
O65 C50 1.266 1_554 S
O66 Tb41 2.484 1_556 S
O66 C51 1.248 . S
O67 Tb41 2.440 . S
O67 C51 1.266 1_554 S
O68 Tb40 2.325 1_554 S
O68 Tb41 2.658 . S
O68 C58 1.281 . S
O69 Tb41 2.409 . S
O69 C58 1.254 . S
O70 Tb41 2.378 . S
O70 C59 1.236 . S
O71 Tb40 2.341 . S
O71 C59 1.266 1_556 S
H72 C44 0.929 . S
H73 C45 0.931 . S
H74 C47 0.930 . S
H75 C48 0.930 . S
H76 C53 0.929 . S
H77 C54 0.931 . S
H78 C56 0.930 . S
H79 C57 0.930 . S
Tb80 C82 2.809 1_556 S
Tb80 O100 2.484 1_556 S
Tb80 O101 2.440 . S
Tb80 O102 2.658 . S
Tb80 O103 2.409 . S
Tb80 O104 2.378 . S
Tb80 O108 2.325 1_556 S
Tb80 O111 2.341 . S
Tb81 C91 2.809 1_554 S
Tb81 O102 2.325 1_554 S
Tb81 O105 2.341 . S
Tb81 O106 2.484 1_554 S
Tb81 O107 2.440 . S
Tb81 O108 2.658 . S
Tb81 O109 2.409 . S
Tb81 O110 2.378 . S
C82 Tb80 2.809 1_554 S
C82 C83 1.514 . S
C82 O100 1.248 . S
C82 O101 1.266 1_554 S
C83 C82 1.514 . S
C83 C84 1.359 . S
C83 C88 1.348 1_554 S
C84 C83 1.359 . S
C84 C85 1.380 . S
C84 H112 0.929 . S
C85 C84 1.380 . S
C85 C86 1.347 . S
C85 H113 0.931 . S
C86 C85 1.347 . S
C86 C87 1.369 1_554 S
C87 C86 1.369 1_556 S
C87 C88 1.408 . S
C87 H114 0.930 . S
C88 C83 1.348 1_556 S
C88 C87 1.408 . S
C88 H115 0.930 . S
C89 O102 1.281 . S
C89 O103 1.254 . S
C90 O104 1.236 . S
C90 O105 1.266 1_556 S
C91 Tb81 2.809 1_556 S
C91 C92 1.514 . S
C91 O106 1.248 . S
C91 O107 1.266 1_556 S
C92 C91 1.514 . S
C92 C93 1.359 . S
C92 C97 1.348 1_556 S
C93 C92 1.359 . S
C93 C94 1.380 . S
C93 H116 0.929 . S
C94 C93 1.380 . S
C94 C95 1.347 . S
C94 H117 0.931 . S
C95 C94 1.347 . S
C95 C96 1.369 1_556 S
C96 C95 1.369 1_554 S
C96 C97 1.408 . S
C96 H118 0.930 . S
C97 C92 1.348 1_554 S
C97 C96 1.408 . S
C97 H119 0.930 . S
C98 O108 1.281 . S
C98 O109 1.254 . S
C99 O110 1.236 . S
C99 O111 1.266 1_554 S
O100 Tb80 2.484 1_554 S
O100 C82 1.248 . S
O101 Tb80 2.440 . S
O101 C82 1.266 1_556 S
O102 Tb80 2.658 . S
O102 Tb81 2.325 1_556 S
O102 C89 1.281 . S
O103 Tb80 2.409 . S
O103 C89 1.254 . S
O104 Tb80 2.378 . S
O104 C90 1.236 . S
O105 Tb81 2.341 . S
O105 C90 1.266 1_554 S
O106 Tb81 2.484 1_556 S
O106 C91 1.248 . S
O107 Tb81 2.440 . S
O107 C91 1.266 1_554 S
O108 Tb80 2.325 1_554 S
O108 Tb81 2.658 . S
O108 C98 1.281 . S
O109 Tb81 2.409 . S
O109 C98 1.254 . S
O110 Tb81 2.378 . S
O110 C99 1.236 . S
O111 Tb80 2.341 . S
O111 C99 1.266 1_556 S
H112 C84 0.929 . S
H113 C85 0.931 . S
H114 C87 0.930 . S
H115 C88 0.930 . S
H116 C93 0.929 . S
H117 C94 0.931 . S
H118 C96 0.930 . S
H119 C97 0.930 . S
Tb120 C122 2.809 1_556 S
Tb120 O140 2.484 1_556 S
Tb120 O141 2.440 . S
Tb120 O142 2.658 . S
Tb120 O143 2.409 . S
Tb120 O144 2.378 . S
Tb120 O148 2.325 1_556 S
Tb120 O151 2.341 . S
Tb121 C131 2.809 1_554 S
Tb121 O142 2.325 1_554 S
Tb121 O145 2.341 . S
Tb121 O146 2.484 1_554 S
Tb121 O147 2.440 . S
Tb121 O148 2.658 . S
Tb121 O149 2.409 . S
Tb121 O150 2.378 . S
C122 Tb120 2.809 1_554 S
C122 C123 1.514 . S
C122 O140 1.248 . S
C122 O141 1.266 1_554 S
C123 C122 1.514 . S
C123 C124 1.359 . S
C123 C128 1.348 1_554 S
C124 C123 1.359 . S
C124 C125 1.380 . S
C124 H152 0.929 . S
C125 C124 1.380 . S
C125 C126 1.347 . S
C125 H153 0.931 . S
C126 C125 1.347 . S
C126 C127 1.369 1_554 S
C127 C126 1.369 1_556 S
C127 C128 1.408 . S
C127 H154 0.930 . S
C128 C123 1.348 1_556 S
C128 C127 1.408 . S
C128 H155 0.930 . S
C129 O142 1.281 . S
C129 O143 1.254 . S
C130 O144 1.236 . S
C130 O145 1.266 1_556 S
C131 Tb121 2.809 1_556 S
C131 C132 1.514 . S
C131 O146 1.248 . S
C131 O147 1.266 1_556 S
C132 C131 1.514 . S
C132 C133 1.359 . S
C132 C137 1.348 1_556 S
C133 C132 1.359 . S
C133 C134 1.380 . S
C133 H156 0.929 . S
C134 C133 1.380 . S
C134 C135 1.347 . S
C134 H157 0.931 . S
C135 C134 1.347 . S
C135 C136 1.369 1_556 S
C136 C135 1.369 1_554 S
C136 C137 1.408 . S
C136 H158 0.930 . S
C137 C132 1.348 1_554 S
C137 C136 1.408 . S
C137 H159 0.930 . S
C138 O148 1.281 . S
C138 O149 1.254 . S
C139 O150 1.236 . S
C139 O151 1.266 1_554 S
O140 Tb120 2.484 1_554 S
O140 C122 1.248 . S
O141 Tb120 2.440 . S
O141 C122 1.266 1_556 S
O142 Tb120 2.658 . S
O142 Tb121 2.325 1_556 S
O142 C129 1.281 . S
O143 Tb120 2.409 . S
O143 C129 1.254 . S
O144 Tb120 2.378 . S
O144 C130 1.236 . S
O145 Tb121 2.341 . S
O145 C130 1.266 1_554 S
O146 Tb121 2.484 1_556 S
O146 C131 1.248 . S
O147 Tb121 2.440 . S
O147 C131 1.266 1_554 S
O148 Tb120 2.325 1_554 S
O148 Tb121 2.658 . S
O148 C138 1.281 . S
O149 Tb121 2.409 . S
O149 C138 1.254 . S
O150 Tb121 2.378 . S
O150 C139 1.236 . S
O151 Tb120 2.341 . S
O151 C139 1.266 1_556 S
H152 C124 0.929 . S
H153 C125 0.931 . S
H154 C127 0.930 . S
H155 C128 0.930 . S
H156 C133 0.929 . S
H157 C134 0.931 . S
H158 C136 0.930 . S
H159 C137 0.930 . S
Tb160 C162 2.809 1_556 S
Tb160 O180 2.484 1_556 S
Tb160 O181 2.440 . S
Tb160 O182 2.658 . S
Tb160 O183 2.409 . S
Tb160 O184 2.378 . S
Tb160 O188 2.325 1_556 S
Tb160 O191 2.341 . S
Tb161 C171 2.809 1_554 S
Tb161 O182 2.325 1_554 S
Tb161 O185 2.341 . S
Tb161 O186 2.484 1_554 S
Tb161 O187 2.440 . S
Tb161 O188 2.658 . S
Tb161 O189 2.409 . S
Tb161 O190 2.378 . S
C162 Tb160 2.809 1_554 S
C162 C163 1.514 . S
C162 O180 1.248 . S
C162 O181 1.266 1_554 S
C163 C162 1.514 . S
C163 C164 1.359 . S
C163 C168 1.348 1_554 S
C164 C163 1.359 . S
C164 C165 1.380 . S
C164 H192 0.929 . S
C165 C164 1.380 . S
C165 C166 1.347 . S
C165 H193 0.931 . S
C166 C165 1.347 . S
C166 C167 1.369 1_554 S
C167 C166 1.369 1_556 S
C167 C168 1.408 . S
C167 H194 0.930 . S
C168 C163 1.348 1_556 S
C168 C167 1.408 . S
C168 H195 0.930 . S
C169 O182 1.281 . S
C169 O183 1.254 . S
C170 O184 1.236 . S
C170 O185 1.266 1_556 S
C171 Tb161 2.809 1_556 S
C171 C172 1.514 . S
C171 O186 1.248 . S
C171 O187 1.266 1_556 S
C172 C171 1.514 . S
C172 C173 1.359 . S
C172 C177 1.348 1_556 S
C173 C172 1.359 . S
C173 C174 1.380 . S
C173 H196 0.929 . S
C174 C173 1.380 . S
C174 C175 1.347 . S
C174 H197 0.931 . S
C175 C174 1.347 . S
C175 C176 1.369 1_556 S
C176 C175 1.369 1_554 S
C176 C177 1.408 . S
C176 H198 0.930 . S
C177 C172 1.348 1_554 S
C177 C176 1.408 . S
C177 H199 0.930 . S
C178 O188 1.281 . S
C178 O189 1.254 . S
C179 O190 1.236 . S
C179 O191 1.266 1_554 S
O180 Tb160 2.484 1_554 S
O180 C162 1.248 . S
O181 Tb160 2.440 . S
O181 C162 1.266 1_556 S
O182 Tb160 2.658 . S
O182 Tb161 2.325 1_556 S
O182 C169 1.281 . S
O183 Tb160 2.409 . S
O183 C169 1.254 . S
O184 Tb160 2.378 . S
O184 C170 1.236 . S
O185 Tb161 2.341 . S
O185 C170 1.266 1_554 S
O186 Tb161 2.484 1_556 S
O186 C171 1.248 . S
O187 Tb161 2.440 . S
O187 C171 1.266 1_554 S
O188 Tb160 2.325 1_554 S
O188 Tb161 2.658 . S
O188 C178 1.281 . S
O189 Tb161 2.409 . S
O189 C178 1.254 . S
O190 Tb161 2.378 . S
O190 C179 1.236 . S
O191 Tb160 2.341 . S
O191 C179 1.266 1_556 S
H192 C164 0.929 . S
H193 C165 0.931 . S
H194 C167 0.930 . S
H195 C168 0.930 . S
H196 C173 0.929 . S
H197 C174 0.931 . S
H198 C176 0.930 . S
H199 C177 0.930 . S
Tb200 C202 2.809 1_556 S
Tb200 O220 2.484 1_556 S
Tb200 O221 2.440 . S
Tb200 O222 2.658 . S
Tb200 O223 2.409 . S
Tb200 O224 2.378 . S
Tb200 O228 2.325 1_556 S
Tb200 O231 2.341 . S
Tb201 C211 2.809 1_554 S
Tb201 O222 2.325 1_554 S
Tb201 O225 2.341 . S
Tb201 O226 2.484 1_554 S
Tb201 O227 2.440 . S
Tb201 O228 2.658 . S
Tb201 O229 2.409 . S
Tb201 O230 2.378 . S
C202 Tb200 2.809 1_554 S
C202 C203 1.514 . S
C202 O220 1.248 . S
C202 O221 1.266 1_554 S
C203 C202 1.514 . S
C203 C204 1.359 . S
C203 C208 1.348 1_554 S
C204 C203 1.359 . S
C204 C205 1.380 . S
C204 H232 0.929 . S
C205 C204 1.380 . S
C205 C206 1.347 . S
C205 H233 0.931 . S
C206 C205 1.347 . S
C206 C207 1.369 1_554 S
C207 C206 1.369 1_556 S
C207 C208 1.408 . S
C207 H234 0.930 . S
C208 C203 1.348 1_556 S
C208 C207 1.408 . S
C208 H235 0.930 . S
C209 O222 1.281 . S
C209 O223 1.254 . S
C210 O224 1.236 . S
C210 O225 1.266 1_556 S
C211 Tb201 2.809 1_556 S
C211 C212 1.514 . S
C211 O226 1.248 . S
C211 O227 1.266 1_556 S
C212 C211 1.514 . S
C212 C213 1.359 . S
C212 C217 1.348 1_556 S
C213 C212 1.359 . S
C213 C214 1.380 . S
C213 H236 0.929 . S
C214 C213 1.380 . S
C214 C215 1.347 . S
C214 H237 0.931 . S
C215 C214 1.347 . S
C215 C216 1.369 1_556 S
C216 C215 1.369 1_554 S
C216 C217 1.408 . S
C216 H238 0.930 . S
C217 C212 1.348 1_554 S
C217 C216 1.408 . S
C217 H239 0.930 . S
C218 O228 1.281 . S
C218 O229 1.254 . S
C219 O230 1.236 . S
C219 O231 1.266 1_554 S
O220 Tb200 2.484 1_554 S
O220 C202 1.248 . S
O221 Tb200 2.440 . S
O221 C202 1.266 1_556 S
O222 Tb200 2.658 . S
O222 Tb201 2.325 1_556 S
O222 C209 1.281 . S
O223 Tb200 2.409 . S
O223 C209 1.254 . S
O224 Tb200 2.378 . S
O224 C210 1.236 . S
O225 Tb201 2.341 . S
O225 C210 1.266 1_554 S
O226 Tb201 2.484 1_556 S
O226 C211 1.248 . S
O227 Tb201 2.440 . S
O227 C211 1.266 1_554 S
O228 Tb200 2.325 1_554 S
O228 Tb201 2.658 . S
O228 C218 1.281 . S
O229 Tb201 2.409 . S
O229 C218 1.254 . S
O230 Tb201 2.378 . S
O230 C219 1.236 . S
O231 Tb200 2.341 . S
O231 C219 1.266 1_556 S
H232 C204 0.929 . S
H233 C205 0.931 . S
H234 C207 0.930 . S
H235 C208 0.930 . S
H236 C213 0.929 . S
H237 C214 0.931 . S
H238 C216 0.930 . S
H239 C217 0.930 . S
H240 C248 0.950 . S
H241 C253 0.950 . S
H242 C250 0.950 . S
H243 C252 0.950 . S
H244 C254 0.950 . S
H245 C256 0.950 . S
H246 C258 0.950 1_554 S
H247 C259 0.950 1_554 S
C248 H240 0.950 . S
C248 C249 1.388 . S
C248 C250 1.391 . S
C249 C248 1.388 . S
C249 C253 1.390 1_554 S
C250 H242 0.950 . S
C250 C248 1.391 . S
C250 C251 1.400 1_554 S
C251 C250 1.400 1_556 S
C251 C252 1.398 . S
C251 C257 1.491 . S
C252 H243 0.950 . S
C252 C251 1.398 . S
C252 C253 1.391 . S
C253 H241 0.950 . S
C253 C249 1.390 1_556 S
C253 C252 1.391 . S
C254 H244 0.950 . S
C254 C255 1.386 . S
C254 C256 1.391 . S
C255 C254 1.386 . S
C255 C259 1.393 . S
C256 H245 0.950 . S
C256 C254 1.391 . S
C256 C257 1.400 . S
C257 C251 1.491 . S
C257 C256 1.400 . S
C257 C258 1.398 . S
C258 H246 0.950 1_556 S
C258 C257 1.398 . S
C258 C259 1.391 . S
C259 H247 0.950 1_556 S
C259 C255 1.393 . S
C259 C258 1.391 . S
H260 C268 0.950 . S
H261 C273 0.950 . S
H262 C270 0.950 . S
H263 C272 0.950 . S
H264 C274 0.950 . S
H265 C276 0.950 . S
H266 C278 0.950 . S
H267 C279 0.950 . S
C268 H260 0.950 . S
C268 C269 1.386 1_554 S
C268 C270 1.391 . S
C269 C268 1.386 1_556 S
C269 C273 1.393 . S
C270 H262 0.950 . S
C270 C268 1.391 . S
C270 C271 1.400 1_554 S
C271 C270 1.400 1_556 S
C271 C272 1.398 . S
C271 C277 1.491 . S
C272 H263 0.950 . S
C272 C271 1.398 . S
C272 C273 1.391 . S
C273 H261 0.950 . S
C273 C269 1.393 . S
C273 C272 1.391 . S
C274 H264 0.950 . S
C274 C275 1.386 . S
C274 C276 1.391 1_655 S
C275 C274 1.386 . S
C275 C279 1.393 1_556 S
C276 H265 0.950 . S
C276 C274 1.391 1_455 S
C276 C277 1.400 . S
C277 C271 1.491 . S
C277 C276 1.400 . S
C277 C278 1.398 1_556 S
C278 H266 0.950 . S
C278 C277 1.398 1_554 S
C278 C279 1.391 1_455 S
C279 H267 0.950 . S
C279 C275 1.393 1_554 S
C279 C278 1.391 1_655 S
H280 C288 0.950 . S
H281 C293 0.950 . S
H282 C290 0.950 . S
H283 C292 0.950 . S
H284 C294 0.950 . S
H285 C296 0.950 . S
H286 C298 0.950 . S
H287 C299 0.950 . S
C288 H280 0.950 . S
C288 C289 1.386 . S
C288 C290 1.391 . S
C289 C288 1.386 . S
C289 C293 1.393 1_556 S
C290 H282 0.950 . S
C290 C288 1.391 . S
C290 C291 1.400 . S
C291 C290 1.400 . S
C291 C292 1.398 1_556 S
C291 C297 1.491 . S
C292 H283 0.950 . S
C292 C291 1.398 1_554 S
C292 C293 1.391 . S
C293 H281 0.950 . S
C293 C289 1.393 1_554 S
C293 C292 1.391 . S
C294 H284 0.950 . S
C294 C295 1.386 1_554 S
C294 C296 1.391 1_565 S
C295 C294 1.386 1_556 S
C295 C299 1.393 . S
C296 H285 0.950 . S
C296 C294 1.391 1_545 S
C296 C297 1.400 1_554 S
C297 C291 1.491 . S
C297 C296 1.400 1_556 S
C297 C298 1.398 . S
C298 H286 0.950 . S
C298 C297 1.398 . S
C298 C299 1.391 1_545 S
C299 H287 0.950 . S
C299 C295 1.393 . S
C299 C298 1.391 1_565 S
H300 C308 0.950 . S
H301 C313 0.950 . S
H302 C310 0.950 . S
H303 C312 0.950 . S
H304 C314 0.950 . S
H305 C316 0.950 . S
H306 C318 0.950 . S
H307 C319 0.951 . S
C308 H300 0.950 . S
C308 C309 1.386 . S
C308 C310 1.391 . S
C309 C308 1.386 . S
C309 C313 1.393 . S
C310 H302 0.950 . S
C310 C308 1.391 . S
C310 C311 1.400 . S
C311 C310 1.400 . S
C311 C312 1.398 . S
C311 C317 1.491 . S
C312 H303 0.950 . S
C312 C311 1.398 . S
C312 C313 1.391 . S
C313 H301 0.950 . S
C313 C309 1.393 . S
C313 C312 1.391 . S
C314 H304 0.950 . S
C314 C315 1.386 . S
C314 C316 1.391 . S
C315 C314 1.386 . S
C315 C319 1.392 1_556 S
C316 H305 0.950 . S
C316 C314 1.391 . S
C316 C317 1.400 . S
C317 C311 1.491 . S
C317 C316 1.400 . S
C317 C318 1.398 . S
C318 H306 0.950 . S
C318 C317 1.398 . S
C318 C319 1.390 1_556 S
C319 H307 0.951 . S
C319 C315 1.392 1_554 S
C319 C318 1.390 1_554 S
H320 C328 0.950 . S
H321 C333 0.950 1_455 S
H322 C330 0.950 . S
H323 C332 0.950 . S
H324 C334 0.950 . S
H325 C336 0.950 . S
H326 C338 0.950 . S
H327 C339 0.950 . S
C328 H320 0.950 . S
C328 C329 1.386 1_554 S
C328 C330 1.391 1_455 S
C329 C328 1.386 1_556 S
C329 C333 1.393 1_455 S
C330 H322 0.950 . S
C330 C328 1.391 1_655 S
C330 C331 1.400 1_554 S
C331 C330 1.400 1_556 S
C331 C332 1.398 . S
C331 C337 1.491 . S
C332 H323 0.950 . S
C332 C331 1.398 . S
C332 C333 1.391 . S
C333 H321 0.950 1_655 S
C333 C329 1.393 1_655 S
C333 C332 1.391 . S
C334 H324 0.950 . S
C334 C335 1.386 . S
C334 C336 1.391 . S
C335 C334 1.386 . S
C335 C339 1.393 1_556 S
C336 H325 0.950 . S
C336 C334 1.391 . S
C336 C337 1.400 . S
C337 C331 1.491 . S
C337 C336 1.400 . S
C337 C338 1.398 1_556 S
C338 H326 0.950 . S
C338 C337 1.398 1_554 S
C338 C339 1.391 . S
C339 H327 0.950 . S
C339 C335 1.393 1_554 S
C339 C338 1.391 . S
H340 C348 0.950 . S
H341 C353 0.950 . S
H342 C350 0.950 . S
H343 C352 0.950 . S
H344 C354 0.950 . S
H345 C356 0.950 . S
H346 C358 0.950 . S
H347 C359 0.954 . S
C348 H340 0.950 . S
C348 C349 1.387 . S
C348 C350 1.391 . S
C349 C348 1.387 . S
C349 C353 1.391 1_554 S
C350 H342 0.950 . S
C350 C348 1.391 . S
C350 C351 1.400 1_554 S
C351 C350 1.400 1_556 S
C351 C352 1.398 . S
C351 C357 1.491 . S
C352 H343 0.950 . S
C352 C351 1.398 . S
C352 C353 1.391 . S
C353 H341 0.950 . S
C353 C349 1.391 1_556 S
C353 C352 1.391 . S
C354 H344 0.950 . S
C354 C355 1.386 . S
C354 C356 1.391 1_545 S
C355 C354 1.386 . S
C355 C359 1.393 1_545 S
C356 H345 0.950 . S
C356 C354 1.391 1_565 S
C356 C357 1.400 . S
C357 C351 1.491 . S
C357 C356 1.400 . S
C357 C358 1.398 . S
C358 H346 0.950 . S
C358 C357 1.398 . S
C358 C359 1.391 . S
C359 H347 0.954 . S
C359 C355 1.393 1_565 S
C359 C358 1.391 . S
H360 C368 0.950 . S
H361 C373 0.950 . S
H362 C370 0.950 . S
H363 C372 0.950 . S
H364 C374 0.950 1_556 S
H365 C376 0.950 . S
H366 C378 0.950 . S
H367 C379 0.950 . S
C368 H360 0.950 . S
C368 C369 1.383 1_554 S
C368 C370 1.391 . S
C369 C368 1.383 1_556 S
C369 C373 1.395 . S
C370 H362 0.950 . S
C370 C368 1.391 . S
C370 C371 1.400 . S
C371 C370 1.400 . S
C371 C372 1.398 1_554 S
C371 C377 1.491 . S
C372 H363 0.950 . S
C372 C371 1.398 1_556 S
C372 C373 1.391 . S
C373 H361 0.950 . S
C373 C369 1.395 . S
C373 C372 1.391 . S
C374 H364 0.950 1_554 S
C374 C375 1.386 . S
C374 C376 1.391 1_554 S
C375 C374 1.386 . S
C375 C379 1.393 . S
C376 H365 0.950 . S
C376 C374 1.391 1_556 S
C376 C377 1.400 1_556 S
C377 C371 1.491 . S
C377 C376 1.400 1_554 S
C377 C378 1.398 . S
C378 H366 0.950 . S
C378 C377 1.398 . S
C378 C379 1.391 . S
C379 H367 0.950 . S
C379 C375 1.393 . S
C379 C378 1.391 . S
H380 C388 0.950 . S
H381 C393 0.950 . S
H382 C390 0.950 . S
H383 C392 0.950 . S
H384 C394 0.950 . S
H385 C396 0.950 . S
H386 C398 0.950 . S
H387 C399 0.950 . S
C388 H380 0.950 . S
C388 C389 1.383 1_556 S
C388 C390 1.391 . S
C389 C388 1.383 1_554 S
C389 C393 1.396 . S
C390 H382 0.950 . S
C390 C388 1.391 . S
C390 C391 1.400 1_556 S
C391 C390 1.400 1_554 S
C391 C392 1.398 . S
C391 C397 1.491 . S
C392 H383 0.950 . S
C392 C391 1.398 . S
C392 C393 1.391 . S
C393 H381 0.950 . S
C393 C389 1.396 . S
C393 C392 1.391 . S
C394 H384 0.950 . S
C394 C395 1.386 . S
C394 C396 1.391 . S
C395 C394 1.386 . S
C395 C399 1.393 1_554 S
C396 H385 0.950 . S
C396 C394 1.391 . S
C396 C397 1.400 . S
C397 C391 1.491 . S
C397 C396 1.400 . S
C397 C398 1.398 1_554 S
C398 H386 0.950 . S
C398 C397 1.398 1_556 S
C398 C399 1.391 . S
C399 H387 0.950 . S
C399 C395 1.393 1_556 S
C399 C398 1.391 . S
H400 C408 0.950 . S
H401 C413 0.950 . S
H402 C410 0.950 . S
H403 C412 0.950 . S
H404 C414 0.950 . S
H405 C416 0.950 . S
H406 C418 0.950 . S
H407 C419 0.950 . S
C408 H400 0.950 . S
C408 C409 1.386 . S
C408 C410 1.391 . S
C409 C408 1.386 . S
C409 C413 1.393 1_554 S
C410 H402 0.950 . S
C410 C408 1.391 . S
C410 C411 1.400 . S
C411 C410 1.400 . S
C411 C412 1.398 1_554 S
C411 C417 1.491 . S
C412 H403 0.950 . S
C412 C411 1.398 1_556 S
C412 C413 1.391 . S
C413 H401 0.950 . S
C413 C409 1.393 1_556 S
C413 C412 1.391 . S
C414 H404 0.950 . S
C414 C415 1.382 1_556 S
C414 C416 1.391 . S
C415 C414 1.382 1_554 S
C415 C419 1.397 . S
C416 H405 0.950 . S
C416 C414 1.391 . S
C416 C417 1.400 1_556 S
C417 C411 1.491 . S
C417 C416 1.400 1_554 S
C417 C418 1.398 . S
C418 H406 0.950 . S
C418 C417 1.398 . S
C418 C419 1.391 . S
C419 H407 0.950 . S
C419 C415 1.397 . S
C419 C418 1.391 . S
H420 C428 0.950 . S
H421 C433 0.950 . S
H422 C430 0.950 . S
H423 C432 0.950 . S
H424 C434 0.950 . S
H425 C436 0.950 . S
H426 C438 0.950 . S
H427 C439 0.950 . S
C428 H420 0.950 . S
C428 C429 1.386 . S
C428 C430 1.391 . S
C429 C428 1.386 . S
C429 C433 1.393 . S
C430 H422 0.950 . S
C430 C428 1.391 . S
C430 C431 1.400 . S
C431 C430 1.400 . S
C431 C432 1.398 . S
C431 C437 1.491 . S
C432 H423 0.950 . S
C432 C431 1.398 . S
C432 C433 1.391 . S
C433 H421 0.950 . S
C433 C429 1.393 . S
C433 C432 1.391 . S
C434 H424 0.950 . S
C434 C435 1.387 . S
C434 C436 1.391 . S
C435 C434 1.387 . S
C435 C439 1.392 1_556 S
C436 H425 0.950 . S
C436 C434 1.391 . S
C436 C437 1.400 1_556 S
C437 C431 1.491 . S
C437 C436 1.400 1_554 S
C437 C438 1.398 . S
C438 H426 0.950 . S
C438 C437 1.398 . S
C438 C439 1.391 . S
C439 H427 0.950 . S
C439 C435 1.392 1_554 S
C439 C438 1.391 . S
H440 C448 0.950 . S
H441 C453 0.950 . S
H442 C450 0.950 . S
H443 C452 0.950 . S
H444 C454 0.950 . S
H445 C456 0.950 . S
H446 C458 0.950 . S
H447 C459 0.950 . S
C448 H440 0.950 . S
C448 C449 1.386 1_556 S
C448 C450 1.391 . S
C449 C448 1.386 1_554 S
C449 C453 1.393 . S
C450 H442 0.950 . S
C450 C448 1.391 . S
C450 C451 1.400 1_556 S
C451 C450 1.400 1_554 S
C451 C452 1.398 . S
C451 C457 1.491 . S
C452 H443 0.950 . S
C452 C451 1.398 . S
C452 C453 1.391 . S
C453 H441 0.950 . S
C453 C449 1.393 . S
C453 C452 1.391 . S
C454 H444 0.950 . S
C454 C455 1.385 . S
C454 C456 1.391 . S
C455 C454 1.385 . S
C455 C459 1.394 1_554 S
C456 H445 0.950 . S
C456 C454 1.391 . S
C456 C457 1.400 . S
C457 C451 1.491 . S
C457 C456 1.400 . S
C457 C458 1.398 1_554 S
C458 H446 0.950 . S
C458 C457 1.398 1_556 S
C458 C459 1.391 . S
C459 H447 0.950 . S
C459 C455 1.394 1_556 S
C459 C458 1.391 . S
H460 C468 0.950 . S
H461 C473 0.950 . S
H462 C470 0.950 . S
H463 C472 0.950 . S
H464 C474 0.950 . S
H465 C476 0.950 . S
H466 C478 0.950 . S
H467 C479 0.950 . S
C468 H460 0.950 . S
C468 C469 1.386 1_556 S
C468 C470 1.391 . S
C469 C468 1.386 1_554 S
C469 C473 1.393 . S
C470 H462 0.950 . S
C470 C468 1.391 . S
C470 C471 1.400 1_556 S
C471 C470 1.400 1_554 S
C471 C472 1.398 . S
C471 C477 1.491 . S
C472 H463 0.950 . S
C472 C471 1.398 . S
C472 C473 1.391 . S
C473 H461 0.950 . S
C473 C469 1.393 . S
C473 C472 1.391 . S
C474 H464 0.950 . S
C474 C475 1.386 . S
C474 C476 1.391 . S
C475 C474 1.386 . S
C475 C479 1.393 1_554 S
C476 H465 0.950 . S
C476 C474 1.391 . S
C476 C477 1.400 . S
C477 C471 1.491 . S
C477 C476 1.400 . S
C477 C478 1.398 1_554 S
C478 H466 0.950 . S
C478 C477 1.398 1_556 S
C478 C479 1.391 . S
C479 H467 0.950 . S
C479 C475 1.393 1_556 S
C479 C478 1.391 . S
H480 C488 0.950 . S
H481 C493 0.950 . S
H482 C490 0.950 . S
H483 C492 0.950 . S
H484 C494 0.950 . S
H485 C496 0.950 . S
H486 C498 0.950 . S
H487 C499 0.950 . S
C488 H480 0.950 . S
C488 C489 1.386 . S
C488 C490 1.391 . S
C489 C488 1.386 . S
C489 C493 1.393 . S
C490 H482 0.950 . S
C490 C488 1.391 . S
C490 C491 1.400 . S
C491 C490 1.400 . S
C491 C492 1.398 . S
C491 C497 1.491 . S
C492 H483 0.950 . S
C492 C491 1.398 . S
C492 C493 1.391 . S
C493 H481 0.950 . S
C493 C489 1.393 . S
C493 C492 1.391 . S
C494 H484 0.950 . S
C494 C495 1.386 . S
C494 C496 1.391 . S
C495 C494 1.386 . S
C495 C499 1.393 . S
C496 H485 0.950 . S
C496 C494 1.391 . S
C496 C497 1.400 . S
C497 C491 1.491 . S
C497 C496 1.400 . S
C497 C498 1.398 . S
C498 H486 0.950 . S
C498 C497 1.398 . S
C498 C499 1.391 . S
C499 H487 0.950 . S
C499 C495 1.393 . S
C499 C498 1.391 . S
H500 C508 0.950 . S
H501 C513 0.950 . S
H502 C510 0.950 . S
H503 C512 0.950 . S
H504 C514 0.950 . S
H505 C516 0.950 . S
H506 C518 0.950 . S
H507 C519 0.950 . S
C508 H500 0.950 . S
C508 C509 1.386 . S
C508 C510 1.391 . S
C509 C508 1.386 . S
C509 C513 1.393 . S
C510 H502 0.950 . S
C510 C508 1.391 . S
C510 C511 1.400 . S
C511 C510 1.400 . S
C511 C512 1.398 . S
C511 C517 1.491 . S
C512 H503 0.950 . S
C512 C511 1.398 . S
C512 C513 1.391 . S
C513 H501 0.950 . S
C513 C509 1.393 . S
C513 C512 1.391 . S
C514 H504 0.950 . S
C514 C515 1.386 . S
C514 C516 1.391 . S
C515 C514 1.386 . S
C515 C519 1.393 . S
C516 H505 0.950 . S
C516 C514 1.391 . S
C516 C517 1.400 . S
C517 C511 1.491 . S
C517 C516 1.400 . S
C517 C518 1.398 . S
C518 H506 0.950 . S
C518 C517 1.398 . S
C518 C519 1.391 . S
C519 H507 0.950 . S
C519 C515 1.393 . S
C519 C518 1.391 . S
H520 C528 0.950 . S
H521 C533 0.950 . S
H522 C530 0.950 . S
H523 C532 0.950 . S
H524 C534 0.950 . S
H525 C536 0.950 . S
H526 C538 0.950 . S
H527 C539 0.950 . S
C528 H520 0.950 . S
C528 C529 1.386 . S
C528 C530 1.391 . S
C529 C528 1.386 . S
C529 C533 1.393 . S
C530 H522 0.950 . S
C530 C528 1.391 . S
C530 C531 1.400 . S
C531 C530 1.400 . S
C531 C532 1.398 . S
C531 C537 1.491 . S
C532 H523 0.950 . S
C532 C531 1.398 . S
C532 C533 1.391 . S
C533 H521 0.950 . S
C533 C529 1.393 . S
C533 C532 1.391 . S
C534 H524 0.950 . S
C534 C535 1.386 . S
C534 C536 1.391 . S
C535 C534 1.386 . S
C535 C539 1.393 . S
C536 H525 0.950 . S
C536 C534 1.391 . S
C536 C537 1.400 . S
C537 C531 1.491 . S
C537 C536 1.400 . S
C537 C538 1.398 . S
C538 H526 0.950 . S
C538 C537 1.398 . S
C538 C539 1.391 . S
C539 H527 0.950 . S
C539 C535 1.393 . S
C539 C538 1.391 . S
H540 C548 0.950 . S
H541 C553 0.950 . S
H542 C550 0.950 . S
H543 C552 0.950 . S
H544 C554 0.950 . S
H545 C556 0.950 . S
H546 C558 0.950 . S
H547 C559 0.950 . S
C548 H540 0.950 . S
C548 C549 1.386 . S
C548 C550 1.391 . S
C549 C548 1.386 . S
C549 C553 1.393 . S
C550 H542 0.950 . S
C550 C548 1.391 . S
C550 C551 1.400 . S
C551 C550 1.400 . S
C551 C552 1.398 . S
C551 C557 1.491 . S
C552 H543 0.950 . S
C552 C551 1.398 . S
C552 C553 1.391 . S
C553 H541 0.950 . S
C553 C549 1.393 . S
C553 C552 1.391 . S
C554 H544 0.950 . S
C554 C555 1.386 . S
C554 C556 1.391 . S
C555 C554 1.386 . S
C555 C559 1.393 . S
C556 H545 0.950 . S
C556 C554 1.391 . S
C556 C557 1.400 . S
C557 C551 1.491 . S
C557 C556 1.400 . S
C557 C558 1.398 . S
C558 H546 0.950 . S
C558 C557 1.398 . S
C558 C559 1.391 . S
C559 H547 0.950 . S
C559 C555 1.393 . S
C559 C558 1.391 . S
H560 C568 0.950 . S
H561 C573 0.950 . S
H562 C570 0.950 . S
H563 C572 0.950 . S
H564 C574 0.950 . S
H565 C576 0.950 . S
H566 C578 0.950 . S
H567 C579 0.950 . S
C568 H560 0.950 . S
C568 C569 1.386 . S
C568 C570 1.391 . S
C569 C568 1.386 . S
C569 C573 1.393 . S
C570 H562 0.950 . S
C570 C568 1.391 . S
C570 C571 1.400 . S
C571 C570 1.400 . S
C571 C572 1.398 . S
C571 C577 1.491 . S
C572 H563 0.950 . S
C572 C571 1.398 . S
C572 C573 1.391 . S
C573 H561 0.950 . S
C573 C569 1.393 . S
C573 C572 1.391 . S
C574 H564 0.950 . S
C574 C575 1.386 . S
C574 C576 1.391 . S
C575 C574 1.386 . S
C575 C579 1.393 . S
C576 H565 0.950 . S
C576 C574 1.391 . S
C576 C577 1.400 . S
C577 C571 1.491 . S
C577 C576 1.400 . S
C577 C578 1.398 . S
C578 H566 0.950 . S
C578 C577 1.398 . S
C578 C579 1.391 . S
C579 H567 0.950 . S
C579 C575 1.393 . S
C579 C578 1.391 . S
H580 C588 0.950 . S
H581 C593 0.950 . S
H582 C590 0.950 . S
H583 C592 0.950 . S
H584 C594 0.950 . S
H585 C596 0.950 . S
H586 C598 0.950 . S
H587 C599 0.950 . S
C588 H580 0.950 . S
C588 C589 1.386 . S
C588 C590 1.391 . S
C589 C588 1.386 . S
C589 C593 1.393 . S
C590 H582 0.950 . S
C590 C588 1.391 . S
C590 C591 1.400 . S
C591 C590 1.400 . S
C591 C592 1.398 . S
C591 C597 1.491 . S
C592 H583 0.950 . S
C592 C591 1.398 . S
C592 C593 1.391 . S
C593 H581 0.950 . S
C593 C589 1.393 . S
C593 C592 1.391 . S
C594 H584 0.950 . S
C594 C595 1.386 . S
C594 C596 1.391 . S
C595 C594 1.386 . S
C595 C599 1.393 . S
C596 H585 0.950 . S
C596 C594 1.391 . S
C596 C597 1.400 . S
C597 C591 1.491 . S
C597 C596 1.400 . S
C597 C598 1.398 . S
C598 H586 0.950 . S
C598 C597 1.398 . S
C598 C599 1.391 . S
C599 H587 0.950 . S
C599 C595 1.393 . S
C599 C598 1.391 . S
C249 C219 1.892 . S
C255 C15 1.707 . S
C269 C19 1.891 1_556 S
C275 C55 1.715 . S
C289 C59 1.900 1_556 S
C295 C95 1.681 . S
C309 C135 1.700 . S
C315 C99 1.897 1_556 S
C329 C175 1.711 . S
C335 C139 1.893 1_556 S
C349 C179 1.892 . S
C355 C215 1.704 . S
C369 C170 1.945 . S
C375 C6 1.948 . S
C389 C210 1.946 1_554 S
C395 C46 1.944 . S
C409 C86 1.949 . S
C415 C10 1.943 1_554 S
C429 C126 1.948 . S
C435 C50 1.945 . S
C449 C166 1.945 . S
C455 C90 1.946 1_554 S
C469 C130 1.950 1_554 S
C475 C206 1.941 . S
C489 C9 1.454 . S
C495 C18 1.454 . S
C509 C49 1.437 . S
C515 C58 1.437 . S
C529 C89 1.453 . S
C535 C98 1.453 . S
C549 C129 1.426 . S
C555 C138 1.426 . S
C569 C178 1.444 . S
C575 C169 1.444 . S
C589 C209 1.430 . S
C595 C218 1.430 . S
