# Generated by pormake.
# Topology umg, (4)-cn, num edge types: 1
# Building blocks:
#     Node 0, Type 0, BuildingBlock: GALJAG_clean_sbu_0, # of connection points: 4
#     Node 1, Type 0, BuildingBlock: GALJAG_clean_sbu_0, # of connection points: 4
#     Node 2, Type 0, BuildingBlock: GALJAG_clean_sbu_0, # of connection points: 4
#     Node 3, Type 0, BuildingBlock: GALJAG_clean_sbu_0, # of connection points: 4
#     Node 4, Type 0, BuildingBlock: GALJAG_clean_sbu_0, # of connection points: 4
#     Node 5, Type 0, BuildingBlock: GALJAG_clean_sbu_0, # of connection points: 4
#     Node 6, Type 0, BuildingBlock: GALJAG_clean_sbu_0, # of connection points: 4
#     Node 7, Type 0, BuildingBlock: GALJAG_clean_sbu_0, # of connection points: 4
#     Node 8, Type 0, BuildingBlock: GALJAG_clean_sbu_0, # of connection points: 4
#     Node 9, Type 0, BuildingBlock: GALJAG_clean_sbu_0, # of connection points: 4
#     Node 10, Type 0, BuildingBlock: GALJAG_clean_sbu_0, # of connection points: 4
#     Node 11, Type 0, BuildingBlock: GALJAG_clean_sbu_0, # of connection points: 4
#     Edge 12, Type (0, 0), BuildingBlock: KIFKEQ_clean_linker_1, # of connection points: 2
#     Edge 13, Type (0, 0), BuildingBlock: KIFKEQ_clean_linker_1, # of connection points: 2
#     Edge 14, Type (0, 0), BuildingBlock: KIFKEQ_clean_linker_1, # of connection points: 2
#     Edge 15, Type (0, 0), BuildingBlock: KIFKEQ_clean_linker_1, # of connection points: 2
#     Edge 16, Type (0, 0), BuildingBlock: KIFKEQ_clean_linker_1, # of connection points: 2
#     Edge 17, Type (0, 0), BuildingBlock: KIFKEQ_clean_linker_1, # of connection points: 2
#     Edge 18, Type (0, 0), BuildingBlock: KIFKEQ_clean_linker_1, # of connection points: 2
#     Edge 19, Type (0, 0), BuildingBlock: KIFKEQ_clean_linker_1, # of connection points: 2
#     Edge 20, Type (0, 0), BuildingBlock: KIFKEQ_clean_linker_1, # of connection points: 2
#     Edge 21, Type (0, 0), BuildingBlock: KIFKEQ_clean_linker_1, # of connection points: 2
#     Edge 22, Type (0, 0), BuildingBlock: KIFKEQ_clean_linker_1, # of connection points: 2
#     Edge 23, Type (0, 0), BuildingBlock: KIFKEQ_clean_linker_1, # of connection points: 2
#     Edge 24, Type (0, 0), BuildingBlock: KIFKEQ_clean_linker_1, # of connection points: 2
#     Edge 25, Type (0, 0), BuildingBlock: KIFKEQ_clean_linker_1, # of connection points: 2
#     Edge 26, Type (0, 0), BuildingBlock: KIFKEQ_clean_linker_1, # of connection points: 2
#     Edge 27, Type (0, 0), BuildingBlock: KIFKEQ_clean_linker_1, # of connection points: 2
#     Edge 28, Type (0, 0), BuildingBlock: KIFKEQ_clean_linker_1, # of connection points: 2
#     Edge 29, Type (0, 0), BuildingBlock: KIFKEQ_clean_linker_1, # of connection points: 2
#     Edge 30, Type (0, 0), BuildingBlock: KIFKEQ_clean_linker_1, # of connection points: 2
#     Edge 31, Type (0, 0), BuildingBlock: KIFKEQ_clean_linker_1, # of connection points: 2
#     Edge 32, Type (0, 0), BuildingBlock: KIFKEQ_clean_linker_1, # of connection points: 2
#     Edge 33, Type (0, 0), BuildingBlock: KIFKEQ_clean_linker_1, # of connection points: 2
#     Edge 34, Type (0, 0), BuildingBlock: KIFKEQ_clean_linker_1, # of connection points: 2
#     Edge 35, Type (0, 0), BuildingBlock: KIFKEQ_clean_linker_1, # of connection points: 2
# Relax obj value: 0.078
# Max RMSD: 0.206
# Mean RMSD: 0.205
data_MOF--net-umg--node1-GALJAG_clean_sbu_0--edge1-KIFKEQ_clean_linker_1
_symmetry_space_group_name_H-M    P1
_symmetry_Int_Tables_number       1
_symmetry_cell_setting            triclinic
loop_
_symmetry_equiv_pos_as_xyz
'x, y, z'
_cell_length_a     29.080667
_cell_length_b     29.048792
_cell_length_c     87.806509
_cell_angle_alpha  89.761117
_cell_angle_beta   90.2228
_cell_angle_gamma 120.00986
loop_
_atom_site_label
_atom_site_type_symbol
_atom_site_fract_x
_atom_site_fract_y
_atom_site_fract_z
_atom_type_partial_charge
In0 In 0.29725 0.6074 0.07774 0.0
O1 O 0.34333 0.68288 0.06319 0.0
O2 O 0.28531 0.61098 0.05252 0.0
C3 C 0.31446 0.63323 0.10739 0.0
C4 C 0.36217 0.56686 0.07452 0.0
C5 C 0.19178 0.56936 0.07776 0.0
O6 O 0.3259 0.66823 0.09716 0.0
O7 O 0.29441 0.58621 0.10256 0.0
O8 O 0.21113 0.53879 0.07705 0.0
O9 O 0.2256 0.61833 0.07861 0.0
C10 C 0.31951 0.65954 0.05105 0.0
O11 O 0.31214 0.53773 0.07356 0.0
O12 O 0.37841 0.61542 0.07686 0.0
In13 In 0.70172 0.30225 0.41103 0.0
O14 O 0.78698 0.32018 0.40747 0.0
O15 O 0.77388 0.38392 0.41357 0.0
C16 C 0.63693 0.19609 0.40778 0.0
C17 C 0.68257 0.3384 0.38498 0.0
C18 C 0.68933 0.31363 0.44081 0.0
O19 O 0.68677 0.21663 0.40904 0.0
O20 O 0.62068 0.22896 0.40802 0.0
O21 O 0.66594 0.32579 0.43072 0.0
O22 O 0.71771 0.29553 0.43583 0.0
C23 C 0.80704 0.36932 0.41039 0.0
O24 O 0.65936 0.3377 0.39722 0.0
O25 O 0.71429 0.3208 0.38599 0.0
In26 In 0.39745 0.72215 0.74286 0.0
O27 O 0.32037 0.67218 0.72928 0.0
O28 O 0.38916 0.7316 0.71771 0.0
C29 C 0.37465 0.71098 0.77278 0.0
C30 C 0.43471 0.82742 0.74107 0.0
C31 C 0.44078 0.65906 0.74038 0.0
O32 O 0.33835 0.6944 0.76277 0.0
O33 O 0.42124 0.73212 0.76759 0.0
O34 O 0.46927 0.7091 0.74149 0.0
O35 O 0.39146 0.64176 0.74034 0.0
C36 C 0.34116 0.69542 0.71684 0.0
O37 O 0.46355 0.8073 0.73801 0.0
O38 O 0.38772 0.79439 0.74503 0.0
In39 In 0.69109 0.39621 0.0777 0.0
O40 O 0.66181 0.31996 0.06356 0.0
O41 O 0.67472 0.39124 0.05255 0.0
C42 C 0.67907 0.37258 0.10755 0.0
C43 C 0.62346 0.43371 0.07615 0.0
C44 C 0.79726 0.43827 0.07535 0.0
O45 O 0.66117 0.33639 0.09752 0.0
O46 O 0.70282 0.41943 0.10241 0.0
O47 O 0.77636 0.46731 0.07646 0.0
O48 O 0.76471 0.38901 0.07522 0.0
C49 C 0.66077 0.34274 0.05133 0.0
O50 O 0.67254 0.46281 0.07324 0.0
O51 O 0.60919 0.38633 0.07988 0.0
In52 In 0.30777 0.69507 0.41156 0.0
O53 O 0.22278 0.67924 0.40851 0.0
O54 O 0.23451 0.61433 0.41432 0.0
C55 C 0.3733 0.80108 0.4084 0.0
C56 C 0.32656 0.66191 0.38501 0.0
C57 C 0.3223 0.68119 0.44113 0.0
O58 O 0.32357 0.78096 0.40982 0.0
O59 O 0.38915 0.76785 0.40848 0.0
O60 O 0.3374 0.662 0.43063 0.0
O61 O 0.30131 0.70771 0.43661 0.0
C62 C 0.20192 0.62994 0.41136 0.0
O63 O 0.35218 0.66423 0.39696 0.0
O64 O 0.29237 0.67611 0.38659 0.0
In65 In 0.61087 0.32837 0.74397 0.0
O66 O 0.5405 0.24402 0.73966 0.0
O67 O 0.61765 0.25443 0.74314 0.0
C68 C 0.57334 0.39644 0.74363 0.0
C69 C 0.66435 0.35721 0.71756 0.0
C70 C 0.63755 0.33691 0.77359 0.0
O71 O 0.5427 0.34649 0.74301 0.0
O72 O 0.62221 0.41138 0.74458 0.0
O73 O 0.6722 0.35956 0.76329 0.0
O74 O 0.59027 0.31112 0.76887 0.0
C75 C 0.56911 0.22254 0.74067 0.0
O76 O 0.68681 0.35673 0.72989 0.0
O77 O 0.61597 0.34367 0.7187 0.0
In78 In 0.39761 0.67272 0.58367 0.0
O79 O 0.4639 0.654 0.58855 0.0
O80 O 0.3883 0.59088 0.58133 0.0
C81 C 0.44053 0.77918 0.58629 0.0
C82 C 0.34178 0.64219 0.6097 0.0
C83 C 0.37378 0.66167 0.5538 0.0
O84 O 0.46918 0.75796 0.58491 0.0
O85 O 0.3913 0.74683 0.58654 0.0
O86 O 0.33782 0.64321 0.56388 0.0
O87 O 0.42064 0.68532 0.55889 0.0
C88 C 0.43528 0.60504 0.5854 0.0
O89 O 0.32044 0.64383 0.59726 0.0
O90 O 0.39011 0.65531 0.60884 0.0
In91 In 0.71896 0.40982 0.91601 0.0
O92 O 0.805 0.47706 0.91843 0.0
O93 O 0.78983 0.39759 0.91559 0.0
C94 C 0.65507 0.45216 0.91828 0.0
C95 C 0.69667 0.35828 0.94275 0.0
C96 C 0.70602 0.38467 0.88627 0.0
O97 O 0.70506 0.48107 0.91733 0.0
O98 O 0.63816 0.40284 0.91833 0.0
O99 O 0.68744 0.34897 0.89648 0.0
O100 O 0.73027 0.43169 0.89118 0.0
C101 C 0.82387 0.44614 0.9174 0.0
O102 O 0.67406 0.33425 0.93056 0.0
O103 O 0.72939 0.40732 0.94133 0.0
In104 In 0.30904 0.70481 0.25016 0.0
O105 O 0.32644 0.79022 0.25347 0.0
O106 O 0.38992 0.7775 0.24695 0.0
C107 C 0.20341 0.64003 0.25405 0.0
C108 C 0.34417 0.68476 0.27629 0.0
C109 C 0.31836 0.6902 0.22036 0.0
O110 O 0.22379 0.68989 0.25264 0.0
O111 O 0.23623 0.62371 0.25366 0.0
O112 O 0.33924 0.67518 0.23049 0.0
O113 O 0.29267 0.71128 0.22539 0.0
C114 C 0.37529 0.81055 0.25023 0.0
O115 O 0.34051 0.65935 0.26423 0.0
O116 O 0.33033 0.7194 0.27503 0.0
In117 In 0.61119 0.28039 0.58379 0.0
O118 O 0.68711 0.32984 0.59783 0.0
O119 O 0.61767 0.26977 0.60899 0.0
C120 C 0.63792 0.29956 0.55425 0.0
C121 C 0.56986 0.34452 0.5874 0.0
C122 C 0.5722 0.17445 0.58383 0.0
O123 O 0.67114 0.30375 0.5643 0.0
O124 O 0.59203 0.28549 0.55913 0.0
O125 O 0.54201 0.19419 0.58465 0.0
O126 O 0.62109 0.20806 0.58281 0.0
C127 C 0.66556 0.30601 0.61013 0.0
O128 O 0.54092 0.2943 0.58801 0.0
O129 O 0.61858 0.36124 0.58525 0.0
In130 In 0.32272 0.61958 0.91497 0.0
O131 O 0.23857 0.54727 0.91691 0.0
O132 O 0.24919 0.62481 0.91979 0.0
C133 C 0.3911 0.58259 0.91428 0.0
C134 C 0.35338 0.66897 0.94195 0.0
C135 C 0.32816 0.64941 0.88565 0.0
O136 O 0.34147 0.55181 0.9157 0.0
O137 O 0.40556 0.63131 0.91296 0.0
O138 O 0.35289 0.68307 0.89605 0.0
O139 O 0.30169 0.60191 0.89015 0.0
C140 C 0.21728 0.57542 0.91933 0.0
O141 O 0.35087 0.69305 0.93018 0.0
O142 O 0.34083 0.62108 0.93996 0.0
In143 In 0.70314 0.31125 0.25044 0.0
O144 O 0.68627 0.22587 0.25366 0.0
O145 O 0.62233 0.23846 0.24738 0.0
C146 C 0.80886 0.37655 0.2541 0.0
C147 C 0.66814 0.33014 0.27661 0.0
C148 C 0.69161 0.32523 0.22068 0.0
O149 O 0.78864 0.32669 0.25282 0.0
O150 O 0.77585 0.39263 0.25366 0.0
O151 O 0.67182 0.34079 0.23089 0.0
O152 O 0.71762 0.30418 0.22559 0.0
C153 C 0.63726 0.20546 0.25053 0.0
O154 O 0.67147 0.35592 0.2646 0.0
O155 O 0.68242 0.29589 0.2753 0.0
H156 H 0.41004 0.65437 0.96394 0.0
H157 H 0.32052 0.73316 0.95465 0.0
H158 H 0.41194 0.67419 0.991 0.0
H159 H 0.32081 0.75153 0.98196 0.0
H160 H 0.25003 0.64608 0.0287 0.0
H161 H 0.27028 0.67072 0.00193 0.0
H162 H 0.43791 0.75057 0.01219 0.0
H163 H 0.41738 0.72734 0.03925 0.0
C164 C 0.39219 0.67739 0.96768 0.0
C165 C 0.36507 0.69222 0.95731 0.0
C166 C 0.39352 0.68897 0.98313 0.0
C167 C 0.36652 0.71437 0.98853 0.0
C168 C 0.34219 0.73221 0.97803 0.0
C169 C 0.34212 0.72184 0.96245 0.0
C170 C 0.29114 0.67057 0.02531 0.0
C171 C 0.3322 0.68483 0.03593 0.0
C172 C 0.30273 0.68492 0.01003 0.0
C173 C 0.35563 0.71257 0.00504 0.0
C174 C 0.39682 0.72956 0.01582 0.0
C175 C 0.38513 0.71641 0.03124 0.0
H176 H 0.75532 0.3998 0.36408 0.0
H177 H 0.58663 0.3124 0.37241 0.0
H178 H 0.73907 0.40979 0.33732 0.0
H179 H 0.57007 0.3208 0.34533 0.0
H180 H 0.60492 0.2575 0.29736 0.0
H181 H 0.59747 0.2731 0.32427 0.0
H182 H 0.69341 0.44229 0.31686 0.0
H183 H 0.69933 0.4265 0.28964 0.0
C184 C 0.71476 0.38426 0.36022 0.0
C185 C 0.67218 0.35528 0.37018 0.0
C186 C 0.70544 0.39023 0.34495 0.0
C187 C 0.65332 0.36603 0.33928 0.0
C188 C 0.61059 0.34008 0.34948 0.0
C189 C 0.62002 0.33536 0.36492 0.0
C190 C 0.62255 0.29808 0.30138 0.0
C191 C 0.65277 0.34083 0.29154 0.0
C192 C 0.61805 0.30704 0.31675 0.0
C193 C 0.64492 0.35889 0.32262 0.0
C194 C 0.67209 0.40198 0.31256 0.0
C195 C 0.67539 0.393 0.29703 0.0
H196 H 0.34981 0.75925 0.69327 0.0
H197 H 0.27545 0.59445 0.70673 0.0
H198 H 0.32597 0.73283 0.66679 0.0
H199 H 0.25281 0.56775 0.67999 0.0
H200 H 0.27384 0.67455 0.61977 0.0
H201 H 0.25081 0.67782 0.64648 0.0
H202 H 0.32851 0.59029 0.65977 0.0
H203 H 0.35273 0.58852 0.6333 0.0
C204 C 0.32675 0.7173 0.69058 0.0
C205 C 0.31453 0.67883 0.70195 0.0
C206 C 0.31285 0.70214 0.67544 0.0
C207 C 0.28766 0.64825 0.67135 0.0
C208 C 0.27203 0.60954 0.68289 0.0
C209 C 0.2848 0.62476 0.69814 0.0
C210 C 0.28415 0.65437 0.62836 0.0
C211 C 0.31523 0.63153 0.62459 0.0
C212 C 0.27115 0.65636 0.64361 0.0
C213 C 0.2879 0.6343 0.65516 0.0
C214 C 0.31453 0.60704 0.6511 0.0
C215 C 0.32864 0.60626 0.63597 0.0
H216 H 0.70198 0.28568 0.03876 0.0
H217 H 0.59637 0.34665 0.02984 0.0
H218 H 0.70335 0.26846 0.01143 0.0
H219 H 0.59617 0.3279 0.00275 0.0
H220 H 0.60046 0.28313 0.95411 0.0
H221 H 0.58006 0.25675 0.981 0.0
H222 H 0.74674 0.35038 0.99205 0.0
H223 H 0.76667 0.37788 0.96548 0.0
C224 C 0.67709 0.29291 0.03105 0.0
C225 C 0.64907 0.31742 0.03627 0.0
C226 C 0.67801 0.28329 0.01546 0.0
C227 C 0.64983 0.29686 0.00503 0.0
C228 C 0.6177 0.31645 0.01055 0.0
C229 C 0.61793 0.32735 0.02602 0.0
C230 C 0.63269 0.29663 0.96225 0.0
C231 C 0.68502 0.33273 0.95785 0.0
C232 C 0.62107 0.28162 0.97758 0.0
C233 C 0.66189 0.30136 0.98854 0.0
C234 C 0.71463 0.33396 0.98381 0.0
C235 C 0.72599 0.35002 0.96865 0.0
H236 H 0.31396 0.58741 0.28866 0.0
H237 H 0.40511 0.75567 0.29771 0.0
H238 H 0.319 0.56888 0.31577 0.0
H239 H 0.41169 0.73737 0.32453 0.0
H240 H 0.25455 0.60297 0.36356 0.0
H241 H 0.27151 0.59757 0.33662 0.0
H242 H 0.44028 0.68816 0.34508 0.0
H243 H 0.42308 0.69199 0.3723 0.0
C244 C 0.33697 0.62023 0.29633 0.0
C245 C 0.35895 0.67291 0.29122 0.0
C246 C 0.33975 0.60968 0.31179 0.0
C247 C 0.3658 0.65172 0.3222 0.0
C248 C 0.39197 0.70422 0.31674 0.0
C249 C 0.38797 0.71472 0.30142 0.0
C250 C 0.29525 0.61992 0.35974 0.0
C251 C 0.33754 0.64798 0.3699 0.0
C252 C 0.30498 0.61657 0.34436 0.0
C253 C 0.3572 0.64247 0.3388 0.0
C254 C 0.39969 0.66762 0.34914 0.0
C255 C 0.3899 0.66971 0.36467 0.0
H256 H 0.65102 0.40926 0.69395 0.0
H257 H 0.7329 0.32599 0.70729 0.0
H258 H 0.67509 0.40794 0.66743 0.0
H259 H 0.75564 0.32301 0.68052 0.0
H260 H 0.73118 0.40653 0.62051 0.0
H261 H 0.75316 0.43248 0.64732 0.0
H262 H 0.67867 0.26703 0.6602 0.0
H263 H 0.65533 0.24132 0.63363 0.0
C264 C 0.67562 0.39216 0.69122 0.0
C265 C 0.69002 0.36758 0.70256 0.0
C266 C 0.68967 0.39166 0.67607 0.0
C267 C 0.71718 0.36534 0.67197 0.0
C268 C 0.73469 0.34382 0.68346 0.0
C269 C 0.7218 0.3456 0.69872 0.0
C270 C 0.72133 0.37596 0.62904 0.0
C271 C 0.69137 0.32201 0.62513 0.0
C272 C 0.73377 0.39076 0.64433 0.0
C273 C 0.71763 0.35172 0.65577 0.0
C274 C 0.69215 0.29791 0.65159 0.0
C275 C 0.67853 0.28318 0.63642 0.0
H276 H 0.36506 0.64033 0.20597 0.0
H277 H 0.28382 0.72819 0.1974 0.0
H278 H 0.37143 0.63059 0.17847 0.0
H279 H 0.28969 0.71809 0.17013 0.0
H280 H 0.34587 0.72842 0.12154 0.0
H281 H 0.35364 0.74561 0.14898 0.0
H282 H 0.30838 0.58183 0.15767 0.0
H283 H 0.30121 0.5649 0.1304 0.0
C284 C 0.34873 0.65762 0.19823 0.0
C285 C 0.3237 0.68473 0.20383 0.0
C286 C 0.35226 0.65199 0.18251 0.0
C287 C 0.33116 0.67371 0.17213 0.0
C288 C 0.30703 0.70159 0.1778 0.0
C289 C 0.30324 0.70693 0.19345 0.0
C290 C 0.33807 0.69632 0.12933 0.0
C291 C 0.32255 0.64527 0.12384 0.0
C292 C 0.34232 0.70605 0.14502 0.0
C293 C 0.33146 0.665 0.15549 0.0
C294 C 0.31758 0.61443 0.14992 0.0
C295 C 0.31305 0.60466 0.13429 0.0
H296 H 0.76497 0.33824 0.46224 0.0
H297 H 0.60299 0.30194 0.45634 0.0
H298 H 0.75696 0.3428 0.48965 0.0
H299 H 0.59289 0.30207 0.48388 0.0
H300 H 0.59445 0.33611 0.53357 0.0
H301 H 0.61056 0.34744 0.50629 0.0
H302 H 0.72249 0.291 0.51076 0.0
H303 H 0.70901 0.28396 0.53821 0.0
C304 C 0.72746 0.33097 0.4669 0.0
C305 C 0.68453 0.31965 0.45726 0.0
C306 C 0.72257 0.33299 0.48265 0.0
C307 C 0.67402 0.32207 0.48919 0.0
C308 C 0.63127 0.31164 0.4794 0.0
C309 C 0.63676 0.31119 0.46358 0.0
C310 C 0.62298 0.32683 0.52867 0.0
C311 C 0.65054 0.30918 0.53792 0.0
C312 C 0.63189 0.33277 0.51298 0.0
C313 C 0.66749 0.31967 0.50611 0.0
C314 C 0.69555 0.30259 0.51553 0.0
C315 C 0.68768 0.29814 0.5313 0.0
H316 H 0.27871 0.66161 0.78757 0.0
H317 H 0.44804 0.75042 0.79544 0.0
H318 H 0.26377 0.65189 0.81513 0.0
H319 H 0.43327 0.74016 0.82276 0.0
H320 H 0.39087 0.746 0.87186 0.0
H321 H 0.39831 0.76551 0.84452 0.0
H322 H 0.2786 0.60268 0.83544 0.0
H323 H 0.2707 0.58355 0.86258 0.0
C324 C 0.31264 0.6792 0.79517 0.0
C325 C 0.3645 0.70643 0.78935 0.0
C326 C 0.30415 0.67357 0.81093 0.0
C327 C 0.34737 0.69531 0.82114 0.0
C328 C 0.3991 0.72362 0.81525 0.0
C329 C 0.40755 0.72905 0.79956 0.0
C330 C 0.36582 0.71466 0.864 0.0
C331 C 0.33057 0.6632 0.86934 0.0
C332 C 0.37018 0.72571 0.84836 0.0
C333 C 0.33914 0.68556 0.8378 0.0
C334 C 0.30261 0.63465 0.84325 0.0
C335 C 0.29844 0.6236 0.85882 0.0
H336 H 0.70098 0.4442 0.13011 0.0
H337 H 0.64509 0.27765 0.12239 0.0
H338 H 0.69788 0.4297 0.15749 0.0
H339 H 0.64177 0.26302 0.14998 0.0
H340 H 0.72046 0.28299 0.19763 0.0
H341 H 0.71054 0.29069 0.17036 0.0
H342 H 0.63564 0.38423 0.17901 0.0
H343 H 0.64581 0.37668 0.20647 0.0
C344 C 0.68761 0.40432 0.13428 0.0
C345 C 0.67363 0.36207 0.12411 0.0
C346 C 0.68543 0.39599 0.14998 0.0
C347 C 0.66962 0.34527 0.15589 0.0
C348 C 0.65452 0.30266 0.14573 0.0
C349 C 0.65623 0.31094 0.12997 0.0
C350 C 0.7017 0.30509 0.19374 0.0
C351 C 0.68423 0.32958 0.20418 0.0
C352 C 0.69558 0.30904 0.17811 0.0
C353 C 0.67218 0.3379 0.17254 0.0
C354 C 0.65413 0.36198 0.18298 0.0
C355 C 0.65987 0.35764 0.19868 0.0
H356 H 0.27847 0.62767 0.5393 0.0
H357 H 0.44494 0.68594 0.53094 0.0
H358 H 0.26304 0.62619 0.5118 0.0
H359 H 0.42963 0.68466 0.50363 0.0
H360 H 0.37501 0.6353 0.45453 0.0
H361 H 0.38389 0.62364 0.48184 0.0
H362 H 0.28936 0.69643 0.49189 0.0
H363 H 0.28038 0.70787 0.46477 0.0
C364 C 0.31159 0.63971 0.5316 0.0
C365 C 0.36292 0.65722 0.53726 0.0
C366 C 0.30284 0.63907 0.51588 0.0
C367 C 0.34518 0.65538 0.50557 0.0
C368 C 0.39613 0.67131 0.51126 0.0
C369 C 0.40492 0.67241 0.52692 0.0
C370 C 0.35602 0.64857 0.46259 0.0
C371 C 0.32731 0.67277 0.45753 0.0
C372 C 0.36114 0.64199 0.4782 0.0
C373 C 0.33718 0.659 0.48899 0.0
C374 C 0.30767 0.68226 0.48386 0.0
C375 C 0.30296 0.68924 0.46832 0.0
H376 H 0.64628 0.28872 0.87188 0.0
H377 H 0.75152 0.45605 0.86334 0.0
H378 H 0.63302 0.27318 0.84438 0.0
H379 H 0.73784 0.4408 0.83612 0.0
H380 H 0.56894 0.28789 0.79699 0.0
H381 H 0.5886 0.29535 0.82413 0.0
H382 H 0.75512 0.3992 0.81447 0.0
H383 H 0.73522 0.39236 0.7872 0.0
C384 C 0.66678 0.32201 0.86414 0.0
C385 C 0.69967 0.37358 0.86975 0.0
C386 C 0.65907 0.31322 0.84842 0.0
C387 C 0.68441 0.3558 0.83807 0.0
C388 C 0.71833 0.40703 0.84374 0.0
C389 C 0.7258 0.41581 0.85938 0.0
C390 C 0.60982 0.31214 0.80064 0.0
C391 C 0.65053 0.33997 0.78998 0.0
C392 C 0.62112 0.316 0.8162 0.0
C393 C 0.67339 0.34787 0.82146 0.0
C394 C 0.71433 0.37476 0.81076 0.0
C395 C 0.70302 0.37078 0.79516 0.0
H396 H 0.84815 0.38635 0.06607 0.0
H397 H 0.87712 0.53705 0.08367 0.0
H398 H 0.94297 0.41816 0.06622 0.0
H399 H 0.97216 0.56836 0.08463 0.0
H400 H 0.1438 0.62734 0.07185 0.0
H401 H 0.04931 0.59668 0.07053 0.0
H402 H 0.01471 0.43756 0.08204 0.0
H403 H 0.1096 0.46815 0.08252 0.0
C404 C 0.87494 0.42634 0.07004 0.0
C405 C 0.85525 0.45928 0.07483 0.0
C406 C 0.92942 0.44448 0.07028 0.0
C407 C 0.9657 0.49581 0.07556 0.0
C408 C 0.9458 0.52891 0.08026 0.0
C409 C 0.89123 0.51097 0.07978 0.0
C410 C 0.11593 0.58577 0.07408 0.0
C411 C 0.13408 0.5501 0.07727 0.0
C412 C 0.06159 0.56818 0.07343 0.0
C413 C 0.02385 0.51453 0.0762 0.0
C414 C 0.04228 0.47895 0.07954 0.0
C415 C 0.09674 0.49646 0.07993 0.0
H416 H 0.65596 0.11444 0.41385 0.0
H417 H 0.53315 0.14698 0.39924 0.0
H418 H 0.59189 0.01927 0.41367 0.0
H419 H 0.46968 0.05218 0.39835 0.0
H420 H 0.35506 0.88307 0.41442 0.0
H421 H 0.41929 0.97814 0.41391 0.0
H422 H 0.5405 0.94451 0.39849 0.0
H423 H 0.47686 0.84975 0.39972 0.0
C424 C 0.61544 0.10116 0.41038 0.0
C425 C 0.59957 0.13816 0.40662 0.0
C426 C 0.57862 0.04653 0.4102 0.0
C427 C 0.5252 0.02762 0.40605 0.0
C428 C 0.50995 0.06494 0.40193 0.0
C429 C 0.54654 0.11943 0.40232 0.0
C430 C 0.3954 0.89615 0.41087 0.0
C431 C 0.41093 0.85896 0.40716 0.0
C432 C 0.43231 0.95073 0.41049 0.0
C433 C 0.48547 0.96943 0.40619 0.0
C434 C 0.50043 0.93191 0.40218 0.0
C435 C 0.46375 0.87745 0.40275 0.0
H436 H 0.47207 0.37748 0.74777 0.0
H437 H 0.63156 0.50265 0.7379 0.0
H438 H 0.44143 0.44175 0.74694 0.0
H439 H 0.60087 0.56654 0.73623 0.0
H440 H 0.53969 0.67869 0.74894 0.0
H441 H 0.57164 0.61537 0.74997 0.0
H442 H 0.42261 0.49405 0.73093 0.0
H443 H 0.39016 0.5566 0.73071 0.0
C444 C 0.50046 0.41869 0.74528 0.0
C445 C 0.55418 0.43502 0.74294 0.0
C446 C 0.48291 0.45564 0.74468 0.0
C447 C 0.51853 0.50971 0.74146 0.0
C448 C 0.57229 0.52569 0.73902 0.0
C449 C 0.58991 0.48891 0.73987 0.0
C450 C 0.51404 0.63853 0.74491 0.0
C451 C 0.46242 0.62255 0.7398 0.0
C452 C 0.53233 0.60213 0.74544 0.0
C453 C 0.4997 0.54911 0.74063 0.0
C454 C 0.44856 0.5339 0.7351 0.0
C455 C 0.43005 0.56999 0.73483 0.0
H456 H 0.47051 0.09209 0.57981 0.0
H457 H 0.63029 0.12629 0.58923 0.0
H458 H 0.43983 0.99704 0.5804 0.0
H459 H 0.59964 0.03173 0.59066 0.0
H460 H 0.53878 0.85901 0.57754 0.0
H461 H 0.57017 0.95419 0.57665 0.0
H462 H 0.42168 0.92538 0.59616 0.0
H463 H 0.38975 0.83042 0.59624 0.0
C464 C 0.49894 0.07922 0.58215 0.0
C465 C 0.55276 0.11662 0.58441 0.0
C466 C 0.48139 0.02466 0.58261 0.0
C467 C 0.51714 0.0062 0.58561 0.0
C468 C 0.57096 0.044 0.58801 0.0
C469 C 0.58856 0.09841 0.5873 0.0
C470 C 0.51312 0.87324 0.5817 0.0
C471 C 0.46183 0.8373 0.58692 0.0
C472 C 0.5311 0.92789 0.58126 0.0
C473 C 0.49847 0.94796 0.58626 0.0
C474 C 0.44761 0.91173 0.59185 0.0
C475 C 0.42941 0.85716 0.59205 0.0
H476 H 0.49752 0.64179 0.91926 0.0
H477 H 0.37248 0.48123 0.91045 0.0
H478 H 0.56169 0.61158 0.921 0.0
H479 H 0.43703 0.45101 0.9113 0.0
H480 H 0.55267 0.40139 0.92793 0.0
H481 H 0.48979 0.43336 0.92734 0.0
H482 H 0.6104 0.58172 0.90768 0.0
H483 H 0.67405 0.55036 0.90915 0.0
C484 C 0.48389 0.60002 0.9175 0.0
C485 C 0.42995 0.56383 0.91474 0.0
C486 C 0.52083 0.58265 0.91839 0.0
C487 C 0.50495 0.5287 0.9163 0.0
C488 C 0.45086 0.49266 0.91331 0.0
C489 C 0.41376 0.50996 0.91269 0.0
C490 C 0.56581 0.44104 0.92361 0.0
C491 C 0.61829 0.47344 0.91861 0.0
C492 C 0.52954 0.45926 0.92311 0.0
C493 C 0.54446 0.51008 0.91731 0.0
C494 C 0.59737 0.54269 0.91244 0.0
C495 C 0.63396 0.52473 0.91321 0.0
H496 H 0.12168 0.65886 0.24812 0.0
H497 H 0.15466 0.53655 0.26305 0.0
H498 H 0.02666 0.59481 0.24864 0.0
H499 H 0.05996 0.47308 0.26429 0.0
H500 H 0.89067 0.35784 0.24846 0.0
H501 H 0.98566 0.422 0.24896 0.0
H502 H 0.95223 0.54393 0.26391 0.0
H503 H 0.85754 0.48032 0.26268 0.0
C504 C 0.10853 0.61847 0.25174 0.0
C505 C 0.1456 0.60271 0.25548 0.0
C506 C 0.05397 0.58165 0.25212 0.0
C507 C 0.03519 0.52835 0.25645 0.0
C508 C 0.0726 0.51324 0.26057 0.0
C509 C 0.12703 0.54982 0.25999 0.0
C510 C 0.90378 0.39831 0.25192 0.0
C511 C 0.86667 0.41405 0.25547 0.0
C512 C 0.95832 0.43519 0.25229 0.0
C513 C 0.97706 0.48856 0.25643 0.0
C514 C 0.93962 0.5037 0.26034 0.0
C515 C 0.88519 0.46704 0.25976 0.0
H516 H 0.51978 0.38152 0.08491 0.0
H517 H 0.6401 0.52885 0.06494 0.0
H518 H 0.45629 0.41283 0.08365 0.0
H519 H 0.57607 0.55966 0.06314 0.0
H520 H 0.46869 0.62226 0.07925 0.0
H521 H 0.53092 0.58968 0.07902 0.0
H522 H 0.40349 0.43297 0.06707 0.0
H523 H 0.34053 0.46558 0.06785 0.0
C524 C 0.53255 0.42051 0.08014 0.0
C525 C 0.58504 0.4529 0.07511 0.0
C526 C 0.49596 0.43831 0.07929 0.0
C527 C 0.51087 0.48882 0.07329 0.0
C528 C 0.56333 0.52088 0.06806 0.0
C529 C 0.60005 0.50321 0.06903 0.0
C530 C 0.45387 0.58085 0.07651 0.0
C531 C 0.39961 0.54643 0.0736 0.0
C532 C 0.48974 0.56221 0.07627 0.0
C533 C 0.47246 0.50867 0.07299 0.0
C534 C 0.41816 0.4743 0.06985 0.0
C535 C 0.38207 0.49297 0.0702 0.0
H536 H 0.85762 0.47389 0.41829 0.0
H537 H 0.88703 0.35098 0.40193 0.0
H538 H 0.9526 0.53696 0.41834 0.0
H539 H 0.98228 0.41457 0.40155 0.0
H540 H 0.1502 0.5252 0.41913 0.0
H541 H 0.05519 0.46268 0.41864 0.0
H542 H 0.02733 0.58684 0.40194 0.0
H543 H 0.12274 0.64993 0.40286 0.0
C544 C 0.88442 0.46042 0.4146 0.0
C545 C 0.86486 0.4074 0.41015 0.0
C546 C 0.93892 0.49674 0.41452 0.0
C547 C 0.97526 0.481 0.40993 0.0
C548 C 0.95555 0.42793 0.40536 0.0
C549 C 0.90095 0.3915 0.4055 0.0
C550 C 0.12381 0.53922 0.41537 0.0
C551 C 0.14396 0.59255 0.41106 0.0
C552 C 0.06928 0.50321 0.41497 0.0
C553 C 0.03345 0.51952 0.41019 0.0
C554 C 0.05368 0.573 0.40587 0.0
C555 C 0.10836 0.60915 0.40633 0.0
H556 H 0.62394 0.1706 0.74504 0.0
H557 H 0.46752 0.14346 0.73394 0.0
H558 H 0.59094 0.07567 0.74441 0.0
H559 H 0.43445 0.04773 0.73279 0.0
H560 H 0.38297 0.87905 0.75009 0.0
H561 H 0.41441 0.97399 0.74908 0.0
H562 H 0.56027 1.00099 0.7282 0.0
H563 H 0.52933 0.90598 0.72973 0.0
C564 C 0.58248 0.14429 0.74229 0.0
C565 C 0.54828 0.16456 0.73957 0.0
C566 C 0.5636 0.0897 0.74182 0.0
C567 C 0.51001 0.05378 0.7385 0.0
C568 C 0.47583 0.07413 0.73558 0.0
C569 C 0.49475 0.12898 0.73615 0.0
C570 C 0.42176 0.90529 0.74527 0.0
C571 C 0.45385 0.88509 0.74008 0.0
C572 C 0.43963 0.95975 0.74457 0.0
C573 C 0.48994 0.9954 0.73856 0.0
C574 C 0.52167 0.97493 0.73313 0.0
C575 C 0.50391 0.92043 0.73394 0.0
H576 H 0.3846 0.50189 0.576 0.0
H577 H 0.52916 0.62117 0.59741 0.0
H578 H 0.41612 0.43853 0.5774 0.0
H579 H 0.56011 0.55724 0.59936 0.0
H580 H 0.62532 0.45162 0.58362 0.0
H581 H 0.59234 0.51354 0.58377 0.0
H582 H 0.43465 0.38445 0.59392 0.0
H583 H 0.46774 0.32182 0.59322 0.0
C584 C 0.42301 0.51445 0.58112 0.0
C585 C 0.45457 0.56665 0.58651 0.0
C586 C 0.44092 0.47792 0.58205 0.0
C587 C 0.49071 0.49255 0.5885 0.0
C588 C 0.52193 0.5447 0.59409 0.0
C589 C 0.50416 0.58138 0.59304 0.0
C590 C 0.5836 0.43635 0.58596 0.0
C591 C 0.54909 0.38173 0.58839 0.0
C592 C 0.56471 0.47206 0.58615 0.0
C593 C 0.51078 0.45425 0.58889 0.0
C594 C 0.4763 0.39957 0.59156 0.0
C595 C 0.49524 0.36366 0.59127 0.0
H596 H 0.1666 0.62395 0.93131 0.0
H597 H 0.13741 0.4781 0.91002 0.0
H598 H 0.07172 0.59192 0.93178 0.0
H599 H 0.0423 0.44673 0.90972 0.0
H600 H 0.87025 0.386 0.92224 0.0
H601 H 0.96451 0.41548 0.92398 0.0
H602 H 1.00156 0.57739 0.91574 0.0
H603 H 0.90698 0.54784 0.9148 0.0
C604 C 0.13973 0.58492 0.92671 0.0
C605 C 0.15935 0.55349 0.92062 0.0
C606 C 0.08527 0.56671 0.92683 0.0
C607 C 0.04898 0.5169 0.92062 0.0
C608 C 0.06875 0.485 0.9148 0.0
C609 C 0.12332 0.50296 0.91491 0.0
C610 C 0.89862 0.42793 0.92085 0.0
C611 C 0.88129 0.46466 0.91839 0.0
C612 C 0.95278 0.44485 0.92174 0.0
C613 C 0.99107 0.4989 0.91998 0.0
C614 C 0.97347 0.53559 0.91746 0.0
C615 C 0.91921 0.5187 0.91681 0.0
H616 H 0.47957 0.86133 0.24216 0.0
H617 H 0.357 0.89054 0.25885 0.0
H618 H 0.54282 0.95633 0.24243 0.0
H619 H 0.42077 0.98585 0.25952 0.0
H620 H 0.53284 0.15483 0.24256 0.0
H621 H 0.46978 0.05983 0.24266 0.0
H622 H 0.59237 0.02983 0.25937 0.0
H623 H 0.65602 0.12524 0.25887 0.0
C624 C 0.46619 0.88809 0.24597 0.0
C625 C 0.41323 0.86846 0.25045 0.0
C626 C 0.50261 0.94259 0.24623 0.0
C627 C 0.48705 0.97887 0.25104 0.0
C628 C 0.434 0.95914 0.25556 0.0
C629 C 0.39746 0.90452 0.25525 0.0
C630 C 0.5464 0.12798 0.24625 0.0
C631 C 0.59947 0.14752 0.25068 0.0
C632 C 0.51007 0.07346 0.24642 0.0
C633 C 0.52582 0.03705 0.25107 0.0
C634 C 0.579 0.05667 0.25554 0.0
C635 C 0.61546 0.11134 0.25532 0.0
loop_
_geom_bond_atom_site_label_1
_geom_bond_atom_site_label_2
_geom_bond_distance
_geom_bond_site_symmetry_2
_ccdc_geom_bond_type
In0 O1 2.294 . S
In0 O2 2.326 . S
In0 O6 2.266 . S
In0 O7 2.326 . S
In0 O8 2.266 . S
In0 O9 2.326 . S
In0 O11 2.294 . S
In0 O12 2.326 . S
O1 In0 2.294 . S
O1 C10 1.240 . S
O2 In0 2.326 . S
O2 C10 1.252 . S
C3 O6 1.252 . S
C3 O7 1.260 . S
C4 O11 1.240 . S
C4 O12 1.252 . S
C5 O8 1.252 . S
C5 O9 1.260 . S
O6 In0 2.266 . S
O6 C3 1.252 . S
O7 In0 2.326 . S
O7 C3 1.260 . S
O8 In0 2.266 . S
O8 C5 1.252 . S
O9 In0 2.326 . S
O9 C5 1.260 . S
C10 O1 1.240 . S
C10 O2 1.252 . S
O11 In0 2.294 . S
O11 C4 1.240 . S
O12 In0 2.326 . S
O12 C4 1.252 . S
In13 O14 2.294 . S
In13 O15 2.326 . S
In13 O19 2.266 . S
In13 O20 2.326 . S
In13 O21 2.266 . S
In13 O22 2.326 . S
In13 O24 2.294 . S
In13 O25 2.326 . S
O14 In13 2.294 . S
O14 C23 1.240 . S
O15 In13 2.326 . S
O15 C23 1.252 . S
C16 O19 1.252 . S
C16 O20 1.260 . S
C17 O24 1.240 . S
C17 O25 1.252 . S
C18 O21 1.252 . S
C18 O22 1.260 . S
O19 In13 2.266 . S
O19 C16 1.252 . S
O20 In13 2.326 . S
O20 C16 1.260 . S
O21 In13 2.266 . S
O21 C18 1.252 . S
O22 In13 2.326 . S
O22 C18 1.260 . S
C23 O14 1.240 . S
C23 O15 1.252 . S
O24 In13 2.294 . S
O24 C17 1.240 . S
O25 In13 2.326 . S
O25 C17 1.252 . S
In26 O27 2.294 . S
In26 O28 2.326 . S
In26 O32 2.266 . S
In26 O33 2.326 . S
In26 O34 2.266 . S
In26 O35 2.326 . S
In26 O37 2.294 . S
In26 O38 2.326 . S
O27 In26 2.294 . S
O27 C36 1.240 . S
O28 In26 2.326 . S
O28 C36 1.252 . S
C29 O32 1.252 . S
C29 O33 1.260 . S
C30 O37 1.240 . S
C30 O38 1.252 . S
C31 O34 1.252 . S
C31 O35 1.260 . S
O32 In26 2.266 . S
O32 C29 1.252 . S
O33 In26 2.326 . S
O33 C29 1.260 . S
O34 In26 2.266 . S
O34 C31 1.252 . S
O35 In26 2.326 . S
O35 C31 1.260 . S
C36 O27 1.240 . S
C36 O28 1.252 . S
O37 In26 2.294 . S
O37 C30 1.240 . S
O38 In26 2.326 . S
O38 C30 1.252 . S
In39 O40 2.294 . S
In39 O41 2.326 . S
In39 O45 2.266 . S
In39 O46 2.326 . S
In39 O47 2.266 . S
In39 O48 2.326 . S
In39 O50 2.294 . S
In39 O51 2.326 . S
O40 In39 2.294 . S
O40 C49 1.240 . S
O41 In39 2.326 . S
O41 C49 1.252 . S
C42 O45 1.252 . S
C42 O46 1.260 . S
C43 O50 1.240 . S
C43 O51 1.252 . S
C44 O47 1.252 . S
C44 O48 1.260 . S
O45 In39 2.266 . S
O45 C42 1.252 . S
O46 In39 2.326 . S
O46 C42 1.260 . S
O47 In39 2.266 . S
O47 C44 1.252 . S
O48 In39 2.326 . S
O48 C44 1.260 . S
C49 O40 1.240 . S
C49 O41 1.252 . S
O50 In39 2.294 . S
O50 C43 1.240 . S
O51 In39 2.326 . S
O51 C43 1.252 . S
In52 O53 2.294 . S
In52 O54 2.326 . S
In52 O58 2.266 . S
In52 O59 2.326 . S
In52 O60 2.266 . S
In52 O61 2.326 . S
In52 O63 2.294 . S
In52 O64 2.326 . S
O53 In52 2.294 . S
O53 C62 1.240 . S
O54 In52 2.326 . S
O54 C62 1.252 . S
C55 O58 1.252 . S
C55 O59 1.260 . S
C56 O63 1.240 . S
C56 O64 1.252 . S
C57 O60 1.252 . S
C57 O61 1.260 . S
O58 In52 2.266 . S
O58 C55 1.252 . S
O59 In52 2.326 . S
O59 C55 1.260 . S
O60 In52 2.266 . S
O60 C57 1.252 . S
O61 In52 2.326 . S
O61 C57 1.260 . S
C62 O53 1.240 . S
C62 O54 1.252 . S
O63 In52 2.294 . S
O63 C56 1.240 . S
O64 In52 2.326 . S
O64 C56 1.252 . S
In65 O66 2.294 . S
In65 O67 2.326 . S
In65 O71 2.266 . S
In65 O72 2.326 . S
In65 O73 2.266 . S
In65 O74 2.326 . S
In65 O76 2.294 . S
In65 O77 2.326 . S
O66 In65 2.294 . S
O66 C75 1.240 . S
O67 In65 2.326 . S
O67 C75 1.252 . S
C68 O71 1.252 . S
C68 O72 1.260 . S
C69 O76 1.240 . S
C69 O77 1.252 . S
C70 O73 1.252 . S
C70 O74 1.260 . S
O71 In65 2.266 . S
O71 C68 1.252 . S
O72 In65 2.326 . S
O72 C68 1.260 . S
O73 In65 2.266 . S
O73 C70 1.252 . S
O74 In65 2.326 . S
O74 C70 1.260 . S
C75 O66 1.240 . S
C75 O67 1.252 . S
O76 In65 2.294 . S
O76 C69 1.240 . S
O77 In65 2.326 . S
O77 C69 1.252 . S
In78 O79 2.294 . S
In78 O80 2.326 . S
In78 O84 2.266 . S
In78 O85 2.326 . S
In78 O86 2.266 . S
In78 O87 2.326 . S
In78 O89 2.294 . S
In78 O90 2.326 . S
O79 In78 2.294 . S
O79 C88 1.240 . S
O80 In78 2.326 . S
O80 C88 1.252 . S
C81 O84 1.252 . S
C81 O85 1.260 . S
C82 O89 1.240 . S
C82 O90 1.252 . S
C83 O86 1.252 . S
C83 O87 1.260 . S
O84 In78 2.266 . S
O84 C81 1.252 . S
O85 In78 2.326 . S
O85 C81 1.260 . S
O86 In78 2.266 . S
O86 C83 1.252 . S
O87 In78 2.326 . S
O87 C83 1.260 . S
C88 O79 1.240 . S
C88 O80 1.252 . S
O89 In78 2.294 . S
O89 C82 1.240 . S
O90 In78 2.326 . S
O90 C82 1.252 . S
In91 O92 2.294 . S
In91 O93 2.326 . S
In91 O97 2.266 . S
In91 O98 2.326 . S
In91 O99 2.266 . S
In91 O100 2.326 . S
In91 O102 2.294 . S
In91 O103 2.326 . S
O92 In91 2.294 . S
O92 C101 1.240 . S
O93 In91 2.326 . S
O93 C101 1.252 . S
C94 O97 1.252 . S
C94 O98 1.260 . S
C95 O102 1.240 . S
C95 O103 1.252 . S
C96 O99 1.252 . S
C96 O100 1.260 . S
O97 In91 2.266 . S
O97 C94 1.252 . S
O98 In91 2.326 . S
O98 C94 1.260 . S
O99 In91 2.266 . S
O99 C96 1.252 . S
O100 In91 2.326 . S
O100 C96 1.260 . S
C101 O92 1.240 . S
C101 O93 1.252 . S
O102 In91 2.294 . S
O102 C95 1.240 . S
O103 In91 2.326 . S
O103 C95 1.252 . S
In104 O105 2.294 . S
In104 O106 2.326 . S
In104 O110 2.266 . S
In104 O111 2.326 . S
In104 O112 2.266 . S
In104 O113 2.326 . S
In104 O115 2.294 . S
In104 O116 2.326 . S
O105 In104 2.294 . S
O105 C114 1.240 . S
O106 In104 2.326 . S
O106 C114 1.252 . S
C107 O110 1.252 . S
C107 O111 1.260 . S
C108 O115 1.240 . S
C108 O116 1.252 . S
C109 O112 1.252 . S
C109 O113 1.260 . S
O110 In104 2.266 . S
O110 C107 1.252 . S
O111 In104 2.326 . S
O111 C107 1.260 . S
O112 In104 2.266 . S
O112 C109 1.252 . S
O113 In104 2.326 . S
O113 C109 1.260 . S
C114 O105 1.240 . S
C114 O106 1.252 . S
O115 In104 2.294 . S
O115 C108 1.240 . S
O116 In104 2.326 . S
O116 C108 1.252 . S
In117 O118 2.294 . S
In117 O119 2.326 . S
In117 O123 2.266 . S
In117 O124 2.326 . S
In117 O125 2.266 . S
In117 O126 2.326 . S
In117 O128 2.294 . S
In117 O129 2.326 . S
O118 In117 2.294 . S
O118 C127 1.240 . S
O119 In117 2.326 . S
O119 C127 1.252 . S
C120 O123 1.252 . S
C120 O124 1.260 . S
C121 O128 1.240 . S
C121 O129 1.252 . S
C122 O125 1.252 . S
C122 O126 1.260 . S
O123 In117 2.266 . S
O123 C120 1.252 . S
O124 In117 2.326 . S
O124 C120 1.260 . S
O125 In117 2.266 . S
O125 C122 1.252 . S
O126 In117 2.326 . S
O126 C122 1.260 . S
C127 O118 1.240 . S
C127 O119 1.252 . S
O128 In117 2.294 . S
O128 C121 1.240 . S
O129 In117 2.326 . S
O129 C121 1.252 . S
In130 O131 2.294 . S
In130 O132 2.326 . S
In130 O136 2.266 . S
In130 O137 2.326 . S
In130 O138 2.266 . S
In130 O139 2.326 . S
In130 O141 2.294 . S
In130 O142 2.326 . S
O131 In130 2.294 . S
O131 C140 1.240 . S
O132 In130 2.326 . S
O132 C140 1.252 . S
C133 O136 1.252 . S
C133 O137 1.260 . S
C134 O141 1.240 . S
C134 O142 1.252 . S
C135 O138 1.252 . S
C135 O139 1.260 . S
O136 In130 2.266 . S
O136 C133 1.252 . S
O137 In130 2.326 . S
O137 C133 1.260 . S
O138 In130 2.266 . S
O138 C135 1.252 . S
O139 In130 2.326 . S
O139 C135 1.260 . S
C140 O131 1.240 . S
C140 O132 1.252 . S
O141 In130 2.294 . S
O141 C134 1.240 . S
O142 In130 2.326 . S
O142 C134 1.252 . S
In143 O144 2.294 . S
In143 O145 2.326 . S
In143 O149 2.266 . S
In143 O150 2.326 . S
In143 O151 2.266 . S
In143 O152 2.326 . S
In143 O154 2.294 . S
In143 O155 2.326 . S
O144 In143 2.294 . S
O144 C153 1.240 . S
O145 In143 2.326 . S
O145 C153 1.252 . S
C146 O149 1.252 . S
C146 O150 1.260 . S
C147 O154 1.240 . S
C147 O155 1.252 . S
C148 O151 1.252 . S
C148 O152 1.260 . S
O149 In143 2.266 . S
O149 C146 1.252 . S
O150 In143 2.326 . S
O150 C146 1.260 . S
O151 In143 2.266 . S
O151 C148 1.252 . S
O152 In143 2.326 . S
O152 C148 1.260 . S
C153 O144 1.240 . S
C153 O145 1.252 . S
O154 In143 2.294 . S
O154 C147 1.240 . S
O155 In143 2.326 . S
O155 C147 1.252 . S
H156 C164 0.950 . S
H157 C169 0.950 . S
H158 C166 0.950 . S
H159 C168 0.950 . S
H160 C170 0.950 . S
H161 C172 0.950 . S
H162 C174 0.950 . S
H163 C175 0.950 . S
C164 H156 0.950 . S
C164 C165 1.386 . S
C164 C166 1.391 . S
C165 C164 1.386 . S
C165 C169 1.393 . S
C166 H158 0.950 . S
C166 C164 1.391 . S
C166 C167 1.400 . S
C167 C166 1.400 . S
C167 C168 1.398 . S
C167 C173 1.491 1_556 S
C168 H159 0.950 . S
C168 C167 1.398 . S
C168 C169 1.391 . S
C169 H157 0.950 . S
C169 C165 1.393 . S
C169 C168 1.391 . S
C170 H160 0.950 . S
C170 C171 1.386 . S
C170 C172 1.391 . S
C171 C170 1.386 . S
C171 C175 1.393 . S
C172 H161 0.950 . S
C172 C170 1.391 . S
C172 C173 1.400 . S
C173 C167 1.491 1_554 S
C173 C172 1.400 . S
C173 C174 1.398 . S
C174 H162 0.950 . S
C174 C173 1.398 . S
C174 C175 1.391 . S
C175 H163 0.950 . S
C175 C171 1.393 . S
C175 C174 1.391 . S
H176 C184 0.950 . S
H177 C189 0.950 . S
H178 C186 0.950 . S
H179 C188 0.950 . S
H180 C190 0.950 . S
H181 C192 0.950 . S
H182 C194 0.950 . S
H183 C195 0.950 . S
C184 H176 0.950 . S
C184 C185 1.386 . S
C184 C186 1.391 . S
C185 C184 1.386 . S
C185 C189 1.393 . S
C186 H178 0.950 . S
C186 C184 1.391 . S
C186 C187 1.400 . S
C187 C186 1.400 . S
C187 C188 1.398 . S
C187 C193 1.491 . S
C188 H179 0.950 . S
C188 C187 1.398 . S
C188 C189 1.391 . S
C189 H177 0.950 . S
C189 C185 1.393 . S
C189 C188 1.391 . S
C190 H180 0.950 . S
C190 C191 1.386 . S
C190 C192 1.391 . S
C191 C190 1.386 . S
C191 C195 1.393 . S
C192 H181 0.950 . S
C192 C190 1.391 . S
C192 C193 1.400 . S
C193 C187 1.491 . S
C193 C192 1.400 . S
C193 C194 1.398 . S
C194 H182 0.950 . S
C194 C193 1.398 . S
C194 C195 1.391 . S
C195 H183 0.950 . S
C195 C191 1.393 . S
C195 C194 1.391 . S
H196 C204 0.950 . S
H197 C209 0.950 . S
H198 C206 0.950 . S
H199 C208 0.950 . S
H200 C210 0.950 . S
H201 C212 0.950 . S
H202 C214 0.950 . S
H203 C215 0.950 . S
C204 H196 0.950 . S
C204 C205 1.386 . S
C204 C206 1.391 . S
C205 C204 1.386 . S
C205 C209 1.393 . S
C206 H198 0.950 . S
C206 C204 1.391 . S
C206 C207 1.400 . S
C207 C206 1.400 . S
C207 C208 1.398 . S
C207 C213 1.491 . S
C208 H199 0.950 . S
C208 C207 1.398 . S
C208 C209 1.391 . S
C209 H197 0.950 . S
C209 C205 1.393 . S
C209 C208 1.391 . S
C210 H200 0.950 . S
C210 C211 1.386 . S
C210 C212 1.391 . S
C211 C210 1.386 . S
C211 C215 1.393 . S
C212 H201 0.950 . S
C212 C210 1.391 . S
C212 C213 1.400 . S
C213 C207 1.491 . S
C213 C212 1.400 . S
C213 C214 1.398 . S
C214 H202 0.950 . S
C214 C213 1.398 . S
C214 C215 1.391 . S
C215 H203 0.950 . S
C215 C211 1.393 . S
C215 C214 1.391 . S
H216 C224 0.950 . S
H217 C229 0.950 . S
H218 C226 0.950 . S
H219 C228 0.950 . S
H220 C230 0.950 . S
H221 C232 0.950 . S
H222 C234 0.950 . S
H223 C235 0.950 . S
C224 H216 0.950 . S
C224 C225 1.386 . S
C224 C226 1.391 . S
C225 C224 1.386 . S
C225 C229 1.393 . S
C226 H218 0.950 . S
C226 C224 1.391 . S
C226 C227 1.400 . S
C227 C226 1.400 . S
C227 C228 1.398 . S
C227 C233 1.491 1_554 S
C228 H219 0.950 . S
C228 C227 1.398 . S
C228 C229 1.391 . S
C229 H217 0.950 . S
C229 C225 1.393 . S
C229 C228 1.391 . S
C230 H220 0.950 . S
C230 C231 1.386 . S
C230 C232 1.391 . S
C231 C230 1.386 . S
C231 C235 1.393 . S
C232 H221 0.950 . S
C232 C230 1.391 . S
C232 C233 1.400 . S
C233 C227 1.491 1_556 S
C233 C232 1.400 . S
C233 C234 1.398 . S
C234 H222 0.950 . S
C234 C233 1.398 . S
C234 C235 1.391 . S
C235 H223 0.950 . S
C235 C231 1.393 . S
C235 C234 1.391 . S
H236 C244 0.950 . S
H237 C249 0.950 . S
H238 C246 0.950 . S
H239 C248 0.950 . S
H240 C250 0.950 . S
H241 C252 0.950 . S
H242 C254 0.950 . S
H243 C255 0.950 . S
C244 H236 0.950 . S
C244 C245 1.386 . S
C244 C246 1.391 . S
C245 C244 1.386 . S
C245 C249 1.393 . S
C246 H238 0.950 . S
C246 C244 1.391 . S
C246 C247 1.400 . S
C247 C246 1.400 . S
C247 C248 1.398 . S
C247 C253 1.491 . S
C248 H239 0.950 . S
C248 C247 1.398 . S
C248 C249 1.391 . S
C249 H237 0.950 . S
C249 C245 1.393 . S
C249 C248 1.391 . S
C250 H240 0.950 . S
C250 C251 1.386 . S
C250 C252 1.391 . S
C251 C250 1.386 . S
C251 C255 1.393 . S
C252 H241 0.950 . S
C252 C250 1.391 . S
C252 C253 1.400 . S
C253 C247 1.491 . S
C253 C252 1.400 . S
C253 C254 1.398 . S
C254 H242 0.950 . S
C254 C253 1.398 . S
C254 C255 1.391 . S
C255 H243 0.950 . S
C255 C251 1.393 . S
C255 C254 1.391 . S
H256 C264 0.950 . S
H257 C269 0.950 . S
H258 C266 0.950 . S
H259 C268 0.950 . S
H260 C270 0.950 . S
H261 C272 0.950 . S
H262 C274 0.950 . S
H263 C275 0.950 . S
C264 H256 0.950 . S
C264 C265 1.386 . S
C264 C266 1.391 . S
C265 C264 1.386 . S
C265 C269 1.393 . S
C266 H258 0.950 . S
C266 C264 1.391 . S
C266 C267 1.400 . S
C267 C266 1.400 . S
C267 C268 1.398 . S
C267 C273 1.491 . S
C268 H259 0.950 . S
C268 C267 1.398 . S
C268 C269 1.391 . S
C269 H257 0.950 . S
C269 C265 1.393 . S
C269 C268 1.391 . S
C270 H260 0.950 . S
C270 C271 1.386 . S
C270 C272 1.391 . S
C271 C270 1.386 . S
C271 C275 1.393 . S
C272 H261 0.950 . S
C272 C270 1.391 . S
C272 C273 1.400 . S
C273 C267 1.491 . S
C273 C272 1.400 . S
C273 C274 1.398 . S
C274 H262 0.950 . S
C274 C273 1.398 . S
C274 C275 1.391 . S
C275 H263 0.950 . S
C275 C271 1.393 . S
C275 C274 1.391 . S
H276 C284 0.950 . S
H277 C289 0.950 . S
H278 C286 0.950 . S
H279 C288 0.950 . S
H280 C290 0.950 . S
H281 C292 0.950 . S
H282 C294 0.950 . S
H283 C295 0.950 . S
C284 H276 0.950 . S
C284 C285 1.386 . S
C284 C286 1.391 . S
C285 C284 1.386 . S
C285 C289 1.393 . S
C286 H278 0.950 . S
C286 C284 1.391 . S
C286 C287 1.400 . S
C287 C286 1.400 . S
C287 C288 1.398 . S
C287 C293 1.491 . S
C288 H279 0.950 . S
C288 C287 1.398 . S
C288 C289 1.391 . S
C289 H277 0.950 . S
C289 C285 1.393 . S
C289 C288 1.391 . S
C290 H280 0.950 . S
C290 C291 1.386 . S
C290 C292 1.391 . S
C291 C290 1.386 . S
C291 C295 1.393 . S
C292 H281 0.950 . S
C292 C290 1.391 . S
C292 C293 1.400 . S
C293 C287 1.491 . S
C293 C292 1.400 . S
C293 C294 1.398 . S
C294 H282 0.950 . S
C294 C293 1.398 . S
C294 C295 1.391 . S
C295 H283 0.950 . S
C295 C291 1.393 . S
C295 C294 1.391 . S
H296 C304 0.950 . S
H297 C309 0.950 . S
H298 C306 0.950 . S
H299 C308 0.950 . S
H300 C310 0.950 . S
H301 C312 0.950 . S
H302 C314 0.950 . S
H303 C315 0.950 . S
C304 H296 0.950 . S
C304 C305 1.386 . S
C304 C306 1.391 . S
C305 C304 1.386 . S
C305 C309 1.393 . S
C306 H298 0.950 . S
C306 C304 1.391 . S
C306 C307 1.400 . S
C307 C306 1.400 . S
C307 C308 1.398 . S
C307 C313 1.491 . S
C308 H299 0.950 . S
C308 C307 1.398 . S
C308 C309 1.391 . S
C309 H297 0.950 . S
C309 C305 1.393 . S
C309 C308 1.391 . S
C310 H300 0.950 . S
C310 C311 1.386 . S
C310 C312 1.391 . S
C311 C310 1.386 . S
C311 C315 1.393 . S
C312 H301 0.950 . S
C312 C310 1.391 . S
C312 C313 1.400 . S
C313 C307 1.491 . S
C313 C312 1.400 . S
C313 C314 1.398 . S
C314 H302 0.950 . S
C314 C313 1.398 . S
C314 C315 1.391 . S
C315 H303 0.950 . S
C315 C311 1.393 . S
C315 C314 1.391 . S
H316 C324 0.950 . S
H317 C329 0.950 . S
H318 C326 0.950 . S
H319 C328 0.950 . S
H320 C330 0.950 . S
H321 C332 0.950 . S
H322 C334 0.950 . S
H323 C335 0.950 . S
C324 H316 0.950 . S
C324 C325 1.386 . S
C324 C326 1.391 . S
C325 C324 1.386 . S
C325 C329 1.393 . S
C326 H318 0.950 . S
C326 C324 1.391 . S
C326 C327 1.400 . S
C327 C326 1.400 . S
C327 C328 1.398 . S
C327 C333 1.491 . S
C328 H319 0.950 . S
C328 C327 1.398 . S
C328 C329 1.391 . S
C329 H317 0.950 . S
C329 C325 1.393 . S
C329 C328 1.391 . S
C330 H320 0.950 . S
C330 C331 1.386 . S
C330 C332 1.391 . S
C331 C330 1.386 . S
C331 C335 1.393 . S
C332 H321 0.950 . S
C332 C330 1.391 . S
C332 C333 1.400 . S
C333 C327 1.491 . S
C333 C332 1.400 . S
C333 C334 1.398 . S
C334 H322 0.950 . S
C334 C333 1.398 . S
C334 C335 1.391 . S
C335 H323 0.950 . S
C335 C331 1.393 . S
C335 C334 1.391 . S
H336 C344 0.950 . S
H337 C349 0.950 . S
H338 C346 0.950 . S
H339 C348 0.950 . S
H340 C350 0.950 . S
H341 C352 0.950 . S
H342 C354 0.950 . S
H343 C355 0.950 . S
C344 H336 0.950 . S
C344 C345 1.386 . S
C344 C346 1.391 . S
C345 C344 1.386 . S
C345 C349 1.393 . S
C346 H338 0.950 . S
C346 C344 1.391 . S
C346 C347 1.400 . S
C347 C346 1.400 . S
C347 C348 1.398 . S
C347 C353 1.491 . S
C348 H339 0.950 . S
C348 C347 1.398 . S
C348 C349 1.391 . S
C349 H337 0.950 . S
C349 C345 1.393 . S
C349 C348 1.391 . S
C350 H340 0.950 . S
C350 C351 1.386 . S
C350 C352 1.391 . S
C351 C350 1.386 . S
C351 C355 1.393 . S
C352 H341 0.950 . S
C352 C350 1.391 . S
C352 C353 1.400 . S
C353 C347 1.491 . S
C353 C352 1.400 . S
C353 C354 1.398 . S
C354 H342 0.950 . S
C354 C353 1.398 . S
C354 C355 1.391 . S
C355 H343 0.950 . S
C355 C351 1.393 . S
C355 C354 1.391 . S
H356 C364 0.950 . S
H357 C369 0.950 . S
H358 C366 0.950 . S
H359 C368 0.950 . S
H360 C370 0.950 . S
H361 C372 0.950 . S
H362 C374 0.950 . S
H363 C375 0.950 . S
C364 H356 0.950 . S
C364 C365 1.386 . S
C364 C366 1.391 . S
C365 C364 1.386 . S
C365 C369 1.393 . S
C366 H358 0.950 . S
C366 C364 1.391 . S
C366 C367 1.400 . S
C367 C366 1.400 . S
C367 C368 1.398 . S
C367 C373 1.491 . S
C368 H359 0.950 . S
C368 C367 1.398 . S
C368 C369 1.391 . S
C369 H357 0.950 . S
C369 C365 1.393 . S
C369 C368 1.391 . S
C370 H360 0.950 . S
C370 C371 1.386 . S
C370 C372 1.391 . S
C371 C370 1.386 . S
C371 C375 1.393 . S
C372 H361 0.950 . S
C372 C370 1.391 . S
C372 C373 1.400 . S
C373 C367 1.491 . S
C373 C372 1.400 . S
C373 C374 1.398 . S
C374 H362 0.950 . S
C374 C373 1.398 . S
C374 C375 1.391 . S
C375 H363 0.950 . S
C375 C371 1.393 . S
C375 C374 1.391 . S
H376 C384 0.950 . S
H377 C389 0.950 . S
H378 C386 0.950 . S
H379 C388 0.950 . S
H380 C390 0.950 . S
H381 C392 0.950 . S
H382 C394 0.950 . S
H383 C395 0.950 . S
C384 H376 0.950 . S
C384 C385 1.386 . S
C384 C386 1.391 . S
C385 C384 1.386 . S
C385 C389 1.393 . S
C386 H378 0.950 . S
C386 C384 1.391 . S
C386 C387 1.400 . S
C387 C386 1.400 . S
C387 C388 1.398 . S
C387 C393 1.491 . S
C388 H379 0.950 . S
C388 C387 1.398 . S
C388 C389 1.391 . S
C389 H377 0.950 . S
C389 C385 1.393 . S
C389 C388 1.391 . S
C390 H380 0.950 . S
C390 C391 1.386 . S
C390 C392 1.391 . S
C391 C390 1.386 . S
C391 C395 1.393 . S
C392 H381 0.950 . S
C392 C390 1.391 . S
C392 C393 1.400 . S
C393 C387 1.491 . S
C393 C392 1.400 . S
C393 C394 1.398 . S
C394 H382 0.950 . S
C394 C393 1.398 . S
C394 C395 1.391 . S
C395 H383 0.950 . S
C395 C391 1.393 . S
C395 C394 1.391 . S
H396 C404 0.950 . S
H397 C409 0.950 . S
H398 C406 0.950 . S
H399 C408 0.950 . S
H400 C410 0.950 . S
H401 C412 0.950 . S
H402 C414 0.950 . S
H403 C415 0.950 . S
C404 H396 0.950 . S
C404 C405 1.386 . S
C404 C406 1.391 . S
C405 C404 1.386 . S
C405 C409 1.393 . S
C406 H398 0.950 . S
C406 C404 1.391 . S
C406 C407 1.400 . S
C407 C406 1.400 . S
C407 C408 1.398 . S
C407 C413 1.491 1_655 S
C408 H399 0.950 . S
C408 C407 1.398 . S
C408 C409 1.391 . S
C409 H397 0.950 . S
C409 C405 1.393 . S
C409 C408 1.391 . S
C410 H400 0.950 . S
C410 C411 1.386 . S
C410 C412 1.391 . S
C411 C410 1.386 . S
C411 C415 1.393 . S
C412 H401 0.950 . S
C412 C410 1.391 . S
C412 C413 1.400 . S
C413 C407 1.491 1_455 S
C413 C412 1.400 . S
C413 C414 1.398 . S
C414 H402 0.950 . S
C414 C413 1.398 . S
C414 C415 1.391 . S
C415 H403 0.950 . S
C415 C411 1.393 . S
C415 C414 1.391 . S
H416 C424 0.950 . S
H417 C429 0.950 . S
H418 C426 0.950 . S
H419 C428 0.950 . S
H420 C430 0.950 . S
H421 C432 0.950 . S
H422 C434 0.950 . S
H423 C435 0.950 . S
C424 H416 0.950 . S
C424 C425 1.386 . S
C424 C426 1.391 . S
C425 C424 1.386 . S
C425 C429 1.393 . S
C426 H418 0.950 . S
C426 C424 1.391 . S
C426 C427 1.400 . S
C427 C426 1.400 . S
C427 C428 1.398 . S
C427 C433 1.491 1_545 S
C428 H419 0.950 . S
C428 C427 1.398 . S
C428 C429 1.391 . S
C429 H417 0.950 . S
C429 C425 1.393 . S
C429 C428 1.391 . S
C430 H420 0.950 . S
C430 C431 1.386 . S
C430 C432 1.391 . S
C431 C430 1.386 . S
C431 C435 1.393 . S
C432 H421 0.950 . S
C432 C430 1.391 . S
C432 C433 1.400 . S
C433 C427 1.491 1_565 S
C433 C432 1.400 . S
C433 C434 1.398 . S
C434 H422 0.950 . S
C434 C433 1.398 . S
C434 C435 1.391 . S
C435 H423 0.950 . S
C435 C431 1.393 . S
C435 C434 1.391 . S
H436 C444 0.950 . S
H437 C449 0.950 . S
H438 C446 0.950 . S
H439 C448 0.950 . S
H440 C450 0.950 . S
H441 C452 0.950 . S
H442 C454 0.950 . S
H443 C455 0.950 . S
C444 H436 0.950 . S
C444 C445 1.386 . S
C444 C446 1.391 . S
C445 C444 1.386 . S
C445 C449 1.393 . S
C446 H438 0.950 . S
C446 C444 1.391 . S
C446 C447 1.400 . S
C447 C446 1.400 . S
C447 C448 1.398 . S
C447 C453 1.491 . S
C448 H439 0.950 . S
C448 C447 1.398 . S
C448 C449 1.391 . S
C449 H437 0.950 . S
C449 C445 1.393 . S
C449 C448 1.391 . S
C450 H440 0.950 . S
C450 C451 1.386 . S
C450 C452 1.391 . S
C451 C450 1.386 . S
C451 C455 1.393 . S
C452 H441 0.950 . S
C452 C450 1.391 . S
C452 C453 1.400 . S
C453 C447 1.491 . S
C453 C452 1.400 . S
C453 C454 1.398 . S
C454 H442 0.950 . S
C454 C453 1.398 . S
C454 C455 1.391 . S
C455 H443 0.950 . S
C455 C451 1.393 . S
C455 C454 1.391 . S
H456 C464 0.950 . S
H457 C469 0.950 . S
H458 C466 0.950 . S
H459 C468 0.950 . S
H460 C470 0.950 . S
H461 C472 0.950 . S
H462 C474 0.950 . S
H463 C475 0.950 . S
C464 H456 0.950 . S
C464 C465 1.386 . S
C464 C466 1.391 . S
C465 C464 1.386 . S
C465 C469 1.393 . S
C466 H458 0.950 . S
C466 C464 1.391 . S
C466 C467 1.400 . S
C467 C466 1.400 . S
C467 C468 1.398 . S
C467 C473 1.491 1_545 S
C468 H459 0.950 . S
C468 C467 1.398 . S
C468 C469 1.391 . S
C469 H457 0.950 . S
C469 C465 1.393 . S
C469 C468 1.391 . S
C470 H460 0.950 . S
C470 C471 1.386 . S
C470 C472 1.391 . S
C471 C470 1.386 . S
C471 C475 1.393 . S
C472 H461 0.950 . S
C472 C470 1.391 . S
C472 C473 1.400 . S
C473 C467 1.491 1_565 S
C473 C472 1.400 . S
C473 C474 1.398 . S
C474 H462 0.950 . S
C474 C473 1.398 . S
C474 C475 1.391 . S
C475 H463 0.950 . S
C475 C471 1.393 . S
C475 C474 1.391 . S
H476 C484 0.950 . S
H477 C489 0.950 . S
H478 C486 0.950 . S
H479 C488 0.950 . S
H480 C490 0.950 . S
H481 C492 0.950 . S
H482 C494 0.950 . S
H483 C495 0.950 . S
C484 H476 0.950 . S
C484 C485 1.386 . S
C484 C486 1.391 . S
C485 C484 1.386 . S
C485 C489 1.393 . S
C486 H478 0.950 . S
C486 C484 1.391 . S
C486 C487 1.400 . S
C487 C486 1.400 . S
C487 C488 1.398 . S
C487 C493 1.491 . S
C488 H479 0.950 . S
C488 C487 1.398 . S
C488 C489 1.391 . S
C489 H477 0.950 . S
C489 C485 1.393 . S
C489 C488 1.391 . S
C490 H480 0.950 . S
C490 C491 1.386 . S
C490 C492 1.391 . S
C491 C490 1.386 . S
C491 C495 1.393 . S
C492 H481 0.950 . S
C492 C490 1.391 . S
C492 C493 1.400 . S
C493 C487 1.491 . S
C493 C492 1.400 . S
C493 C494 1.398 . S
C494 H482 0.950 . S
C494 C493 1.398 . S
C494 C495 1.391 . S
C495 H483 0.950 . S
C495 C491 1.393 . S
C495 C494 1.391 . S
H496 C504 0.950 . S
H497 C509 0.950 . S
H498 C506 0.950 . S
H499 C508 0.950 . S
H500 C510 0.950 . S
H501 C512 0.950 . S
H502 C514 0.950 . S
H503 C515 0.950 . S
C504 H496 0.950 . S
C504 C505 1.386 . S
C504 C506 1.391 . S
C505 C504 1.386 . S
C505 C509 1.393 . S
C506 H498 0.950 . S
C506 C504 1.391 . S
C506 C507 1.400 . S
C507 C506 1.400 . S
C507 C508 1.398 . S
C507 C513 1.491 1_455 S
C508 H499 0.950 . S
C508 C507 1.398 . S
C508 C509 1.391 . S
C509 H497 0.950 . S
C509 C505 1.393 . S
C509 C508 1.391 . S
C510 H500 0.950 . S
C510 C511 1.386 . S
C510 C512 1.391 . S
C511 C510 1.386 . S
C511 C515 1.393 . S
C512 H501 0.950 . S
C512 C510 1.391 . S
C512 C513 1.400 . S
C513 C507 1.491 1_655 S
C513 C512 1.400 . S
C513 C514 1.398 . S
C514 H502 0.950 . S
C514 C513 1.398 . S
C514 C515 1.391 . S
C515 H503 0.950 . S
C515 C511 1.393 . S
C515 C514 1.391 . S
H516 C524 0.950 . S
H517 C529 0.950 . S
H518 C526 0.950 . S
H519 C528 0.950 . S
H520 C530 0.950 . S
H521 C532 0.950 . S
H522 C534 0.950 . S
H523 C535 0.950 . S
C524 H516 0.950 . S
C524 C525 1.386 . S
C524 C526 1.391 . S
C525 C524 1.386 . S
C525 C529 1.393 . S
C526 H518 0.950 . S
C526 C524 1.391 . S
C526 C527 1.400 . S
C527 C526 1.400 . S
C527 C528 1.398 . S
C527 C533 1.491 . S
C528 H519 0.950 . S
C528 C527 1.398 . S
C528 C529 1.391 . S
C529 H517 0.950 . S
C529 C525 1.393 . S
C529 C528 1.391 . S
C530 H520 0.950 . S
C530 C531 1.386 . S
C530 C532 1.391 . S
C531 C530 1.386 . S
C531 C535 1.393 . S
C532 H521 0.950 . S
C532 C530 1.391 . S
C532 C533 1.400 . S
C533 C527 1.491 . S
C533 C532 1.400 . S
C533 C534 1.398 . S
C534 H522 0.950 . S
C534 C533 1.398 . S
C534 C535 1.391 . S
C535 H523 0.950 . S
C535 C531 1.393 . S
C535 C534 1.391 . S
H536 C544 0.950 . S
H537 C549 0.950 . S
H538 C546 0.950 . S
H539 C548 0.950 . S
H540 C550 0.950 . S
H541 C552 0.950 . S
H542 C554 0.950 . S
H543 C555 0.950 . S
C544 H536 0.950 . S
C544 C545 1.386 . S
C544 C546 1.391 . S
C545 C544 1.386 . S
C545 C549 1.393 . S
C546 H538 0.950 . S
C546 C544 1.391 . S
C546 C547 1.400 . S
C547 C546 1.400 . S
C547 C548 1.398 . S
C547 C553 1.491 1_655 S
C548 H539 0.950 . S
C548 C547 1.398 . S
C548 C549 1.391 . S
C549 H537 0.950 . S
C549 C545 1.393 . S
C549 C548 1.391 . S
C550 H540 0.950 . S
C550 C551 1.386 . S
C550 C552 1.391 . S
C551 C550 1.386 . S
C551 C555 1.393 . S
C552 H541 0.950 . S
C552 C550 1.391 . S
C552 C553 1.400 . S
C553 C547 1.491 1_455 S
C553 C552 1.400 . S
C553 C554 1.398 . S
C554 H542 0.950 . S
C554 C553 1.398 . S
C554 C555 1.391 . S
C555 H543 0.950 . S
C555 C551 1.393 . S
C555 C554 1.391 . S
H556 C564 0.950 . S
H557 C569 0.950 . S
H558 C566 0.950 . S
H559 C568 0.950 . S
H560 C570 0.950 . S
H561 C572 0.950 . S
H562 C574 0.950 . S
H563 C575 0.950 . S
C564 H556 0.950 . S
C564 C565 1.386 . S
C564 C566 1.391 . S
C565 C564 1.386 . S
C565 C569 1.393 . S
C566 H558 0.950 . S
C566 C564 1.391 . S
C566 C567 1.400 . S
C567 C566 1.400 . S
C567 C568 1.398 . S
C567 C573 1.491 1_545 S
C568 H559 0.950 . S
C568 C567 1.398 . S
C568 C569 1.391 . S
C569 H557 0.950 . S
C569 C565 1.393 . S
C569 C568 1.391 . S
C570 H560 0.950 . S
C570 C571 1.386 . S
C570 C572 1.391 . S
C571 C570 1.386 . S
C571 C575 1.393 . S
C572 H561 0.950 . S
C572 C570 1.391 . S
C572 C573 1.400 . S
C573 C567 1.491 1_565 S
C573 C572 1.400 . S
C573 C574 1.398 . S
C574 H562 0.950 . S
C574 C573 1.398 . S
C574 C575 1.391 . S
C575 H563 0.950 . S
C575 C571 1.393 . S
C575 C574 1.391 . S
H576 C584 0.950 . S
H577 C589 0.950 . S
H578 C586 0.950 . S
H579 C588 0.950 . S
H580 C590 0.950 . S
H581 C592 0.950 . S
H582 C594 0.950 . S
H583 C595 0.950 . S
C584 H576 0.950 . S
C584 C585 1.386 . S
C584 C586 1.391 . S
C585 C584 1.386 . S
C585 C589 1.393 . S
C586 H578 0.950 . S
C586 C584 1.391 . S
C586 C587 1.400 . S
C587 C586 1.400 . S
C587 C588 1.398 . S
C587 C593 1.491 . S
C588 H579 0.950 . S
C588 C587 1.398 . S
C588 C589 1.391 . S
C589 H577 0.950 . S
C589 C585 1.393 . S
C589 C588 1.391 . S
C590 H580 0.950 . S
C590 C591 1.386 . S
C590 C592 1.391 . S
C591 C590 1.386 . S
C591 C595 1.393 . S
C592 H581 0.950 . S
C592 C590 1.391 . S
C592 C593 1.400 . S
C593 C587 1.491 . S
C593 C592 1.400 . S
C593 C594 1.398 . S
C594 H582 0.950 . S
C594 C593 1.398 . S
C594 C595 1.391 . S
C595 H583 0.950 . S
C595 C591 1.393 . S
C595 C594 1.391 . S
H596 C604 0.950 . S
H597 C609 0.950 . S
H598 C606 0.950 . S
H599 C608 0.950 . S
H600 C610 0.950 . S
H601 C612 0.950 . S
H602 C614 0.950 . S
H603 C615 0.950 . S
C604 H596 0.950 . S
C604 C605 1.386 . S
C604 C606 1.391 . S
C605 C604 1.386 . S
C605 C609 1.393 . S
C606 H598 0.950 . S
C606 C604 1.391 . S
C606 C607 1.400 . S
C607 C606 1.400 . S
C607 C608 1.398 . S
C607 C613 1.491 1_455 S
C608 H599 0.950 . S
C608 C607 1.398 . S
C608 C609 1.391 . S
C609 H597 0.950 . S
C609 C605 1.393 . S
C609 C608 1.391 . S
C610 H600 0.950 . S
C610 C611 1.386 . S
C610 C612 1.391 . S
C611 C610 1.386 . S
C611 C615 1.393 . S
C612 H601 0.950 . S
C612 C610 1.391 . S
C612 C613 1.400 . S
C613 C607 1.491 1_655 S
C613 C612 1.400 . S
C613 C614 1.398 . S
C614 H602 0.950 . S
C614 C613 1.398 . S
C614 C615 1.391 . S
C615 H603 0.950 . S
C615 C611 1.393 . S
C615 C614 1.391 . S
H616 C624 0.950 . S
H617 C629 0.950 . S
H618 C626 0.950 . S
H619 C628 0.950 . S
H620 C630 0.950 . S
H621 C632 0.950 . S
H622 C634 0.950 . S
H623 C635 0.950 . S
C624 H616 0.950 . S
C624 C625 1.386 . S
C624 C626 1.391 . S
C625 C624 1.386 . S
C625 C629 1.393 . S
C626 H618 0.950 . S
C626 C624 1.391 . S
C626 C627 1.400 . S
C627 C626 1.400 . S
C627 C628 1.398 . S
C627 C633 1.491 1_565 S
C628 H619 0.950 . S
C628 C627 1.398 . S
C628 C629 1.391 . S
C629 H617 0.950 . S
C629 C625 1.393 . S
C629 C628 1.391 . S
C630 H620 0.950 . S
C630 C631 1.386 . S
C630 C632 1.391 . S
C631 C630 1.386 . S
C631 C635 1.393 . S
C632 H621 0.950 . S
C632 C630 1.391 . S
C632 C633 1.400 . S
C633 C627 1.491 1_545 S
C633 C632 1.400 . S
C633 C634 1.398 . S
C634 H622 0.950 . S
C634 C633 1.398 . S
C634 C635 1.391 . S
C635 H623 0.950 . S
C635 C631 1.393 . S
C635 C634 1.391 . S
C165 C134 1.332 . S
C171 C10 1.319 . S
C185 C17 1.317 . S
C191 C147 1.326 . S
C205 C36 1.323 . S
C211 C82 1.319 . S
C225 C49 1.325 . S
C231 C95 1.317 . S
C245 C108 1.324 . S
C251 C56 1.328 . S
C265 C69 1.327 . S
C271 C127 1.316 . S
C285 C109 1.321 . S
C291 C3 1.327 . S
C305 C18 1.320 . S
C311 C120 1.312 . S
C325 C29 1.306 . S
C331 C135 1.311 . S
C345 C42 1.329 . S
C351 C148 1.325 . S
C365 C83 1.304 . S
C371 C57 1.310 . S
C385 C96 1.327 . S
C391 C70 1.328 . S
C405 C44 1.208 . S
C411 C5 1.211 . S
C425 C16 1.220 . S
C431 C55 1.215 . S
C445 C68 1.223 . S
C451 C31 1.220 . S
C465 C122 1.223 . S
C471 C81 1.221 . S
C485 C133 1.210 . S
C491 C94 1.215 . S
C505 C107 1.211 . S
C511 C146 1.208 . S
C525 C43 1.613 . S
C531 C4 1.613 . S
C545 C23 1.614 . S
C551 C62 1.613 . S
C565 C75 1.606 . S
C571 C30 1.605 . S
C585 C88 1.614 . S
C591 C121 1.613 . S
C605 C140 1.610 . S
C611 C101 1.609 . S
C625 C114 1.605 . S
C631 C153 1.604 . S
