# Generated by pormake.
# Topology wjg, (4)-cn, num edge types: 1
# Building blocks:
#     Node 0, Type 0, BuildingBlock: ICAMEG_clean_sbu_1, # of connection points: 4
#     Node 1, Type 0, BuildingBlock: ICAMEG_clean_sbu_1, # of connection points: 4
#     Node 2, Type 0, BuildingBlock: ICAMEG_clean_sbu_1, # of connection points: 4
#     Node 3, Type 0, BuildingBlock: ICAMEG_clean_sbu_1, # of connection points: 4
#     Node 4, Type 0, BuildingBlock: ICAMEG_clean_sbu_1, # of connection points: 4
#     Node 5, Type 0, BuildingBlock: ICAMEG_clean_sbu_1, # of connection points: 4
#     Node 6, Type 0, BuildingBlock: ICAMEG_clean_sbu_1, # of connection points: 4
#     Node 7, Type 0, BuildingBlock: ICAMEG_clean_sbu_1, # of connection points: 4
#     Node 8, Type 0, BuildingBlock: ICAMEG_clean_sbu_1, # of connection points: 4
#     Node 9, Type 0, BuildingBlock: ICAMEG_clean_sbu_1, # of connection points: 4
#     Node 10, Type 0, BuildingBlock: ICAMEG_clean_sbu_1, # of connection points: 4
#     Node 11, Type 0, BuildingBlock: ICAMEG_clean_sbu_1, # of connection points: 4
#     Edge 12, Type (0, 0), BuildingBlock: CIFDUS_clean_linker_0, # of connection points: 2
#     Edge 13, Type (0, 0), BuildingBlock: CIFDUS_clean_linker_0, # of connection points: 2
#     Edge 14, Type (0, 0), BuildingBlock: CIFDUS_clean_linker_0, # of connection points: 2
#     Edge 15, Type (0, 0), BuildingBlock: CIFDUS_clean_linker_0, # of connection points: 2
#     Edge 16, Type (0, 0), BuildingBlock: CIFDUS_clean_linker_0, # of connection points: 2
#     Edge 17, Type (0, 0), BuildingBlock: CIFDUS_clean_linker_0, # of connection points: 2
#     Edge 18, Type (0, 0), BuildingBlock: CIFDUS_clean_linker_0, # of connection points: 2
#     Edge 19, Type (0, 0), BuildingBlock: CIFDUS_clean_linker_0, # of connection points: 2
#     Edge 20, Type (0, 0), BuildingBlock: CIFDUS_clean_linker_0, # of connection points: 2
#     Edge 21, Type (0, 0), BuildingBlock: CIFDUS_clean_linker_0, # of connection points: 2
#     Edge 22, Type (0, 0), BuildingBlock: CIFDUS_clean_linker_0, # of connection points: 2
#     Edge 23, Type (0, 0), BuildingBlock: CIFDUS_clean_linker_0, # of connection points: 2
#     Edge 24, Type (0, 0), BuildingBlock: CIFDUS_clean_linker_0, # of connection points: 2
#     Edge 25, Type (0, 0), BuildingBlock: CIFDUS_clean_linker_0, # of connection points: 2
#     Edge 26, Type (0, 0), BuildingBlock: CIFDUS_clean_linker_0, # of connection points: 2
#     Edge 27, Type (0, 0), BuildingBlock: CIFDUS_clean_linker_0, # of connection points: 2
#     Edge 28, Type (0, 0), BuildingBlock: CIFDUS_clean_linker_0, # of connection points: 2
#     Edge 29, Type (0, 0), BuildingBlock: CIFDUS_clean_linker_0, # of connection points: 2
#     Edge 30, Type (0, 0), BuildingBlock: CIFDUS_clean_linker_0, # of connection points: 2
#     Edge 31, Type (0, 0), BuildingBlock: CIFDUS_clean_linker_0, # of connection points: 2
#     Edge 32, Type (0, 0), BuildingBlock: CIFDUS_clean_linker_0, # of connection points: 2
#     Edge 33, Type (0, 0), BuildingBlock: CIFDUS_clean_linker_0, # of connection points: 2
#     Edge 34, Type (0, 0), BuildingBlock: CIFDUS_clean_linker_0, # of connection points: 2
#     Edge 35, Type (0, 0), BuildingBlock: CIFDUS_clean_linker_0, # of connection points: 2
# Relax obj value: 0.329
# Max RMSD: 0.126
# Mean RMSD: 0.123
data_MOF--net-wjg--node1-ICAMEG_clean_sbu_1--edge1-CIFDUS_clean_linker_0
_symmetry_space_group_name_H-M    P1
_symmetry_Int_Tables_number       1
_symmetry_cell_setting            triclinic
loop_
_symmetry_equiv_pos_as_xyz
'x, y, z'
_cell_length_a     29.520618
_cell_length_b     29.349204
_cell_length_c     37.708126
_cell_angle_alpha  89.91933
_cell_angle_beta   90.072696
_cell_angle_gamma 120.17877
loop_
_atom_site_label
_atom_site_type_symbol
_atom_site_fract_x
_atom_site_fract_y
_atom_site_fract_z
_atom_type_partial_charge
Co0 Co 0.20445 0.40587 0.33646 0.0
Co1 Co 0.07258 0.32105 0.34836 0.0
O2 O 0.13146 0.38333 0.32677 0.0
C3 C 0.24207 0.51807 0.35436 0.0
O4 O 0.24615 0.50707 0.38754 0.0
C5 C 0.05612 0.30554 0.27159 0.0
O6 O 0.1049 0.31617 0.27062 0.0
O7 O 0.10219 0.27576 0.33509 0.0
O8 O 0.18855 0.33167 0.34147 0.0
H9 H 0.98549 0.1573 0.42348 0.0
H10 H 0.17894 0.44729 0.27228 0.0
O11 O 0.22234 0.48133 0.33128 0.0
H12 H 0.26683 0.35344 0.22799 0.0
H13 H 0.39937 0.51828 0.31837 0.0
H14 H 0.25953 0.37499 0.38873 0.0
H15 H 0.25416 0.35871 0.29216 0.0
H16 H 0.30654 0.48782 0.30576 0.0
O17 O 0.03505 0.30479 0.30132 0.0
H18 H 0.06056 0.23669 0.39775 0.0
H19 H 0.95684 0.2723 0.34228 0.0
H20 H 0.3519 0.40418 0.4022 0.0
H21 H 0.19147 0.44359 0.20792 0.0
H22 H 0.42265 0.47636 0.36688 0.0
H23 H 0.23544 0.39616 0.18538 0.0
O24 O 0.19139 0.40615 0.38786 0.0
H25 H 0.0149 0.45332 0.32681 0.0
H26 H 0.02942 0.33745 0.41533 0.0
H27 H 0.99161 0.39228 0.43291 0.0
H28 H 0.98374 0.45039 0.38846 0.0
H29 H 0.05315 0.39839 0.31052 0.0
H30 H 0.88066 0.19295 0.36703 0.0
H31 H 0.89475 0.13492 0.40804 0.0
O32 O 0.11057 0.33629 0.3955 0.0
C33 C 0.14915 0.28552 0.33792 0.0
C34 C 0.97884 0.18237 0.40573 0.0
C35 C 0.91999 0.20233 0.37401 0.0
N36 N 0.01307 0.25932 0.3688 0.0
C37 C 0.02119 0.22749 0.3912 0.0
C38 C 0.96328 0.24714 0.36002 0.0
C39 C 0.92793 0.1698 0.39703 0.0
C40 C 0.19881 0.42725 0.26272 0.0
N41 N 0.21609 0.40355 0.28599 0.0
C42 C 0.20553 0.42503 0.22623 0.0
C43 C 0.2301 0.39831 0.2136 0.0
C44 C 0.24766 0.37427 0.23749 0.0
C45 C 0.24023 0.37727 0.2738 0.0
C46 C 0.36897 0.48687 0.33399 0.0
C47 C 0.29004 0.40636 0.3732 0.0
C48 C 0.31629 0.46948 0.32699 0.0
N49 N 0.27758 0.42956 0.34642 0.0
C50 C 0.34231 0.42277 0.38099 0.0
C51 C 0.38197 0.46329 0.36118 0.0
C52 C 0.15523 0.37173 0.40752 0.0
C53 C 0.01802 0.42809 0.34644 0.0
C54 C 0.02661 0.36306 0.39591 0.0
C55 C 0.00499 0.39386 0.40599 0.0
C56 C 0.00061 0.42648 0.38101 0.0
N57 N 0.04324 0.36458 0.36189 0.0
C58 C 0.03949 0.39678 0.33733 0.0
Co59 Co 0.78203 0.21688 0.66692 0.0
Co60 Co 0.74065 0.08374 0.6726 0.0
O61 O 0.73286 0.14314 0.65647 0.0
C62 C 0.67413 0.20384 0.67822 0.0
O63 O 0.64887 0.15373 0.66975 0.0
C64 C 0.74697 0.08469 0.59488 0.0
O65 O 0.77958 0.13528 0.59879 0.0
O66 O 0.81763 0.1211 0.66311 0.0
O67 O 0.84199 0.20641 0.65747 0.0
H68 H 0.81949 0.99403 0.7418 0.0
H69 H 0.69876 0.18677 0.61174 0.0
O70 O 0.72397 0.23113 0.67754 0.0
H71 H 0.86546 0.30245 0.55069 0.0
H72 H 0.85275 0.41269 0.66221 0.0
H73 H 0.88108 0.27139 0.70768 0.0
H74 H 0.86453 0.28229 0.61419 0.0
H75 H 0.78831 0.31955 0.65027 0.0
O76 O 0.72701 0.05564 0.6223 0.0
H77 H 0.81137 0.0697 0.72186 0.0
H78 H 0.68251 0.9691 0.65613 0.0
H79 H 0.94657 0.36406 0.72024 0.0
H80 H 0.69781 0.20662 0.54852 0.0
H81 H 0.93314 0.43544 0.69709 0.0
H82 H 0.78162 0.2647 0.5174 0.0
O83 O 0.783 0.19965 0.71768 0.0
H84 H 0.55022 0.01282 0.64406 0.0
H85 H 0.67605 0.02566 0.73522 0.0
H86 H 0.58151 0.97786 0.74878 0.0
H87 H 0.51789 0.97094 0.70297 0.0
H88 H 0.64517 0.06085 0.63177 0.0
H89 H 0.68959 0.89237 0.67505 0.0
H90 H 0.75833 0.90459 0.71831 0.0
O91 O 0.75609 0.11307 0.72236 0.0
C92 C 0.85203 0.16911 0.65779 0.0
C93 C 0.78927 0.98818 0.72302 0.0
C94 C 0.7164 0.93113 0.68552 0.0
N95 N 0.74629 0.02374 0.68805 0.0
C96 C 0.78438 0.03085 0.71172 0.0
C97 C 0.71268 0.97473 0.67483 0.0
C98 C 0.75498 0.93801 0.7098 0.0
C99 C 0.73531 0.21291 0.59882 0.0
N100 N 0.78153 0.23404 0.61707 0.0
C101 C 0.73457 0.22368 0.5628 0.0
C102 C 0.7816 0.25615 0.54533 0.0
C103 C 0.82863 0.2773 0.56398 0.0
C104 C 0.82785 0.26564 0.59997 0.0
C105 C 0.85926 0.38199 0.67241 0.0
C106 C 0.87477 0.30227 0.69761 0.0
C107 C 0.82281 0.32914 0.66578 0.0
N108 N 0.83129 0.29011 0.67786 0.0
C109 C 0.91195 0.35465 0.70487 0.0
C110 C 0.90424 0.39472 0.69194 0.0
C111 C 0.77314 0.15897 0.73588 0.0
C112 C 0.57757 0.01543 0.66421 0.0
C113 C 0.64864 0.02326 0.71524 0.0
C114 C 0.59514 0.99594 0.72302 0.0
C115 C 0.55945 0.99205 0.69729 0.0
N116 N 0.66612 0.046 0.68273 0.0
C117 C 0.63137 0.04238 0.65736 0.0
Co118 Co 0.66194 0.74787 0.01084 0.0
Co119 Co 0.56441 0.77451 0.98712 0.0
O120 O 0.59602 0.7304 0.98724 0.0
C121 C 0.67966 0.74323 0.9351 0.0
O122 O 0.65944 0.77385 0.93208 0.0
C123 C 0.46718 0.68155 0.01724 0.0
O124 O 0.48925 0.68705 0.04833 0.0
O125 O 0.5719 0.78194 0.03975 0.0
O126 O 0.639 0.76927 0.05498 0.0
H127 H 0.55328 0.93443 0.01965 0.0
H128 H 0.59879 0.64364 0.97603 0.0
O129 O 0.68528 0.72831 0.96585 0.0
H130 H 0.60755 0.60469 0.10229 0.0
H131 H 0.80973 0.71545 0.0399 0.0
H132 H 0.73688 0.83222 0.05909 0.0
H133 H 0.65147 0.69661 0.08087 0.0
H134 H 0.7267 0.69638 0.01143 0.0
O135 O 0.49309 0.71051 0.99117 0.0
H136 H 0.59026 0.87551 0.02145 0.0
H137 H 0.46919 0.76676 0.95355 0.0
H138 H 0.81975 0.85253 0.08836 0.0
H139 H 0.5548 0.55115 0.99621 0.0
H140 H 0.85675 0.79391 0.07877 0.0
H141 H 0.55896 0.53121 0.05978 0.0
O142 O 0.69821 0.82281 0.99496 0.0
H143 H 0.5202 0.67475 0.87209 0.0
H144 H 0.58818 0.8496 0.92693 0.0
H145 H 0.58295 0.84156 0.86176 0.0
H146 H 0.54862 0.75357 0.83393 0.0
H147 H 0.52695 0.68476 0.93714 0.0
H148 H 0.43139 0.82457 0.95062 0.0
H149 H 0.47381 0.90959 0.98364 0.0
O150 O 0.63376 0.83929 0.98162 0.0
C151 C 0.60374 0.78106 0.06245 0.0
C152 C 0.53459 0.8977 0.00506 0.0
C153 C 0.46606 0.83604 0.96644 0.0
N154 N 0.53225 0.81806 0.9873 0.0
C155 C 0.55531 0.86417 0.006 0.0
C156 C 0.48759 0.80332 0.96825 0.0
C157 C 0.4899 0.88366 0.98489 0.0
C158 C 0.60109 0.63526 1.00368 0.0
N159 N 0.62791 0.67543 0.02722 0.0
C160 C 0.57596 0.58282 0.01498 0.0
C161 C 0.57826 0.57166 0.05065 0.0
C162 C 0.6055 0.61287 0.07452 0.0
C163 C 0.63016 0.66483 0.06227 0.0
C164 C 0.79399 0.74123 0.04432 0.0
C165 C 0.75251 0.80632 0.05505 0.0
C166 C 0.74705 0.73069 0.02823 0.0
N167 N 0.7268 0.76295 0.03384 0.0
C168 C 0.79955 0.81812 0.07157 0.0
C169 C 0.82032 0.78526 0.06614 0.0
C170 C 0.68192 0.85349 0.98502 0.0
C171 C 0.53515 0.71329 0.88391 0.0
C172 C 0.57372 0.81131 0.91501 0.0
C173 C 0.57054 0.80693 0.8781 0.0
C174 C 0.55117 0.75754 0.86251 0.0
N175 N 0.55813 0.76778 0.93584 0.0
C176 C 0.53892 0.71919 0.92073 0.0
Co177 Co 0.7862 0.5757 0.3525 0.0
Co178 Co 0.91757 0.66168 0.34482 0.0
O179 O 0.85282 0.60002 0.32824 0.0
C180 C 0.78481 0.47765 0.32586 0.0
O181 O 0.83265 0.50485 0.31349 0.0
C182 C 0.91193 0.67923 0.26856 0.0
O183 O 0.86381 0.66821 0.27508 0.0
O184 O 0.8845 0.706 0.34192 0.0
O185 O 0.80631 0.64953 0.36548 0.0
H186 H 0.02585 0.82448 0.41787 0.0
H187 H 0.7856 0.54472 0.27683 0.0
O188 O 0.7627 0.50016 0.34104 0.0
H189 H 0.6844 0.63646 0.27843 0.0
H190 H 0.59029 0.4679 0.36782 0.0
H191 H 0.75649 0.60309 0.42101 0.0
H192 H 0.72229 0.62484 0.33354 0.0
H193 H 0.67427 0.49612 0.33736 0.0
O194 O 0.94079 0.67948 0.29391 0.0
H195 H 0.94419 0.74594 0.39816 0.0
H196 H 0.02939 0.71006 0.32359 0.0
H197 H 0.67371 0.57456 0.45284 0.0
H198 H 0.74757 0.55455 0.22133 0.0
H199 H 0.58969 0.50663 0.42611 0.0
H200 H 0.69668 0.60094 0.22178 0.0
O201 O 0.81797 0.56903 0.39691 0.0
H202 H 0.97147 0.53531 0.29854 0.0
H203 H 0.97723 0.64246 0.4009 0.0
H204 H 0.02024 0.58917 0.40508 0.0
H205 H 0.01822 0.5358 0.35346 0.0
H206 H 0.92841 0.5887 0.29564 0.0
H207 H 0.11187 0.78782 0.34261 0.0
H208 H 0.11054 0.84593 0.38997 0.0
O209 O 0.8943 0.64541 0.39622 0.0
C210 C 0.84162 0.69581 0.35652 0.0
C211 C 0.02701 0.7995 0.39723 0.0
C212 C 0.0753 0.7791 0.3549 0.0
N213 N 0.98212 0.72315 0.36004 0.0
C214 C 0.98091 0.75489 0.38605 0.0
C215 C 0.02844 0.73502 0.34428 0.0
C216 C 0.0745 0.81155 0.38154 0.0
C217 C 0.76262 0.56384 0.27758 0.0
N218 N 0.75552 0.58321 0.30871 0.0
C219 C 0.74154 0.56979 0.2459 0.0
C220 C 0.71314 0.59597 0.24614 0.0
C221 C 0.70629 0.61594 0.2779 0.0
C222 C 0.72797 0.60929 0.30905 0.0
C223 C 0.62669 0.49698 0.37988 0.0
C224 C 0.72027 0.57303 0.40937 0.0
C225 C 0.67436 0.51326 0.36274 0.0
N226 N 0.72034 0.55134 0.37733 0.0
C227 C 0.67344 0.55714 0.42751 0.0
C228 C 0.62635 0.51898 0.41252 0.0
C229 C 0.85699 0.60646 0.41284 0.0
C230 C 0.97275 0.55856 0.32117 0.0
C231 C 0.97527 0.61851 0.37855 0.0
C232 C 1e-05 0.58868 0.381 0.0
C233 C -0.0012 0.55868 0.35204 0.0
N234 N 0.95007 0.61848 0.3481 0.0
C235 C 0.9485 0.58893 0.31967 0.0
Co236 Co 0.22411 0.78733 0.67544 0.0
Co237 Co 0.25843 0.91832 0.68388 0.0
O238 O 0.27115 0.86236 0.66767 0.0
C239 C 0.29585 0.75891 0.71218 0.0
O240 O 0.26478 0.74477 0.73989 0.0
C241 C 0.26527 0.92844 0.60609 0.0
O242 O 0.23375 0.87721 0.60571 0.0
O243 O 0.18427 0.87979 0.66755 0.0
O244 O 0.16215 0.79446 0.66442 0.0
H245 H 0.1608 0.99475 0.74564 0.0
H246 H 0.31283 0.82398 0.62497 0.0
O247 O 0.28668 0.77965 0.68543 0.0
H248 H 0.15425 0.71108 0.55468 0.0
H249 H 0.16648 0.59372 0.66821 0.0
H250 H 0.12294 0.72494 0.71257 0.0
H251 H 0.14768 0.72467 0.61856 0.0
H252 H 0.22536 0.68868 0.65622 0.0
O253 O 0.28028 0.95266 0.63571 0.0
H254 H 0.17646 0.92351 0.7264 0.0
H255 H 0.31616 0.03473 0.674 0.0
H256 H 0.06269 0.63057 0.72426 0.0
H257 H 0.32126 0.81102 0.56123 0.0
H258 H 0.08451 0.56428 0.70206 0.0
H259 H 0.24156 0.75442 0.5256 0.0
O260 O 0.21737 0.80001 0.72643 0.0
H261 H 0.45283 0.99479 0.6715 0.0
H262 H 0.3106 0.97144 0.75148 0.0
H263 H 0.40208 0.01928 0.77273 0.0
H264 H 0.47396 0.03133 0.73256 0.0
H265 H 0.36081 0.94658 0.65155 0.0
H266 H 0.30176 0.10713 0.69235 0.0
H267 H 0.22366 0.08734 0.72849 0.0
O268 O 0.23484 0.88371 0.73168 0.0
C269 C 0.15158 0.83139 0.6617 0.0
C270 C 0.19506 0.0039 0.72997 0.0
C271 C 0.27413 0.06697 0.70003 0.0
N272 N 0.24736 0.975 0.69933 0.0
C273 C 0.20421 0.96374 0.71911 0.0
C274 C 0.28203 0.0258 0.68967 0.0
C275 C 0.23031 0.05583 0.72032 0.0
C276 C 0.27802 0.79884 0.60973 0.0
N277 N 0.22983 0.77498 0.62551 0.0
C278 C 0.28302 0.79183 0.57361 0.0
C279 C 0.23827 0.76013 0.55363 0.0
C280 C 0.18928 0.73584 0.56992 0.0
C281 C 0.18578 0.74379 0.60608 0.0
C282 C 0.15664 0.62236 0.67778 0.0
C283 C 0.13254 0.69635 0.70252 0.0
C284 C 0.18983 0.67611 0.67124 0.0
N285 N 0.17757 0.71237 0.68362 0.0
C286 C 0.09832 0.64295 0.70934 0.0
C287 C 0.11058 0.60579 0.69688 0.0
C288 C 0.21991 0.83791 0.74455 0.0
C289 C 0.42189 0.98982 0.68926 0.0
C290 C 0.34166 0.97626 0.73394 0.0
C291 C 0.39338 0.00352 0.74608 0.0
C292 C 0.4337 0.01031 0.72352 0.0
N293 N 0.33044 0.95645 0.70027 0.0
C294 C 0.36972 0.96274 0.67806 0.0
Co295 Co 0.32817 0.2647 0.01104 0.0
Co296 Co 0.40593 0.20787 1.0011 0.0
O297 O 0.3888 0.26279 0.99146 0.0
C298 C 0.31119 0.25178 0.93392 0.0
O299 O 0.32478 0.21583 0.93735 0.0
C300 C 0.50772 0.31121 0.01019 0.0
O301 O 0.48485 0.33927 0.00596 0.0
O302 O 0.39317 0.21048 0.05258 0.0
O303 O 0.3469 0.25205 0.06013 0.0
H304 H 0.37413 0.03737 0.05484 0.0
H305 H 0.40161 0.35254 0.96415 0.0
O306 O 0.30896 0.27605 0.96141 0.0
H307 H 0.40838 0.43472 0.0795 0.0
H308 H 0.20455 0.33535 0.01896 0.0
H309 H 0.24813 0.20528 0.0663 0.0
H310 H 0.35165 0.33884 0.07118 0.0
H311 H 0.28073 0.33138 0.99605 0.0
O312 O 0.48183 0.26108 0.00865 0.0
H313 H 0.35475 0.10838 0.04255 0.0
H314 H 0.49312 0.18942 0.98056 0.0
H315 H 0.17193 0.20829 0.09028 0.0
H316 H 0.4583 0.4487 0.97118 0.0
H317 H 0.14964 0.2736 0.06649 0.0
H318 H 0.46177 0.49036 0.02917 0.0
O319 O 0.28013 0.18696 0.00557 0.0
H320 H 0.47644 0.28484 0.88053 0.0
H321 H 0.37289 0.12091 0.94872 0.0
H322 H 0.38504 0.11596 0.88449 0.0
H323 H 0.4373 0.19833 0.84994 0.0
H324 H 0.46273 0.28802 0.9446 0.0
H325 H 0.51372 0.11908 0.99195 0.0
H326 H 0.45413 0.04242 0.02939 0.0
O327 O 0.33182 0.15293 0.99445 0.0
C328 C 0.37051 0.22858 0.07213 0.0
C329 C 0.40049 0.07062 0.03854 0.0
C330 C 0.47895 0.11658 1.00337 0.0
N331 N 0.42268 0.15298 0.01082 0.0
C332 C 0.38972 0.11096 0.03148 0.0
C333 C 0.46708 0.15633 0.99704 0.0
C334 C 0.4454 0.0735 0.02429 0.0
C335 C 0.40265 0.37043 0.9894 0.0
N336 N 0.37326 0.34012 0.0172 0.0
C337 C 0.43502 0.42487 0.99326 0.0
C338 C 0.4371 0.44822 0.02584 0.0
C339 C 0.40713 0.41701 0.05409 0.0
C340 C 0.37527 0.36271 0.04927 0.0
C341 C 0.21389 0.30677 0.02957 0.0
C342 C 0.23894 0.2341 0.05604 0.0
C343 C 0.25691 0.30425 0.01665 0.0
N344 N 0.26901 0.26832 0.02997 0.0
C345 C 0.19564 0.2355 0.06963 0.0
C346 C 0.18312 0.27212 0.05625 0.0
C347 C 0.28707 0.14851 0.9985 0.0
C348 C 0.45394 0.24865 0.89534 0.0
C349 C 0.3958 0.15697 0.93393 0.0
C350 C 0.40255 0.15389 0.89754 0.0
C351 C 0.43188 0.20011 0.87818 0.0
N352 N 0.41787 0.20472 0.95068 0.0
C353 C 0.44639 0.2502 0.93178 0.0
Co354 Co 0.58918 0.79985 0.32938 0.0
Co355 Co 0.66739 0.93559 0.33213 0.0
O356 O 0.6057 0.86903 0.34705 0.0
C357 C 0.48428 0.79509 0.33564 0.0
O358 O 0.50549 0.84394 0.34669 0.0
C359 C 0.67601 0.93135 0.40953 0.0
O360 O 0.66741 0.88351 0.40405 0.0
O361 O 0.71547 0.90782 0.33996 0.0
O362 O 0.66466 0.82127 0.32927 0.0
H363 H 0.83518 0.05022 0.26616 0.0
H364 H 0.53891 0.80834 0.39607 0.0
O365 O 0.51225 0.77455 0.32838 0.0
H366 H 0.62824 0.71098 0.42941 0.0
H367 H 0.48677 0.60157 0.32245 0.0
H368 H 0.63586 0.76407 0.27423 0.0
H369 H 0.63111 0.74017 0.3678 0.0
H370 H 0.50699 0.68859 0.34506 0.0
O371 O 0.67814 0.9598 0.38315 0.0
H372 H 0.757 0.96628 0.28315 0.0
H373 H 0.7084 0.04761 0.35235 0.0
H374 H 0.61719 0.67776 0.25103 0.0
H375 H 0.53414 0.77897 0.4577 0.0
H376 H 0.5422 0.59571 0.27522 0.0
H377 H 0.57927 0.73012 0.47488 0.0
O378 O 0.59454 0.825 0.28008 0.0
H379 H 0.53018 0.9809 0.36623 0.0
H380 H 0.65051 0.99113 0.27194 0.0
H381 H 0.59417 0.02966 0.26171 0.0
H382 H 0.53404 0.02538 0.30922 0.0
H383 H 0.5864 0.94198 0.37504 0.0
H384 H 0.78632 0.13237 0.3364 0.0
H385 H 0.85036 0.13404 0.293 0.0
O386 O 0.65792 0.91069 0.28118 0.0
C387 C 0.70884 0.8621 0.33513 0.0
C388 C 0.80748 0.05004 0.28502 0.0
C389 C 0.78011 0.09614 0.32448 0.0
N390 N 0.72792 0.00212 0.31843 0.0
C391 C 0.76301 0.00265 0.29461 0.0
C392 C 0.73609 0.04802 0.33344 0.0
C393 C 0.816 0.09705 0.30011 0.0
C394 C 0.55756 0.78607 0.40291 0.0
N395 N 0.58433 0.7752 0.37795 0.0
C396 C 0.55518 0.76994 0.43806 0.0
C397 C 0.58063 0.74267 0.44771 0.0
C398 C 0.6081 0.73194 0.42223 0.0
C399 C 0.60959 0.74864 0.38734 0.0
C400 C 0.51953 0.63701 0.31169 0.0
C401 C 0.60326 0.72853 0.28497 0.0
C402 C 0.53112 0.68643 0.32433 0.0
N403 N 0.57287 0.73138 0.31119 0.0
C404 C 0.5928 0.67978 0.27166 0.0
C405 C 0.55069 0.63376 0.28522 0.0
C406 C 0.62667 0.868 0.26469 0.0
C407 C 0.55626 0.98311 0.34531 0.0
C408 C 0.62369 0.98819 0.2925 0.0
C409 C 0.59213 0.01038 0.28664 0.0
C410 C 0.55835 0.00793 0.31331 0.0
N411 N 0.62164 0.9642 0.32403 0.0
C412 C 0.58836 0.9613 0.35021 0.0
Co413 Co 0.79247 0.5764 0.68696 0.0
Co414 Co 0.73733 0.65174 0.66698 0.0
O415 O 0.7397 0.5963 0.69418 0.0
C416 C 0.69571 0.47064 0.68579 0.0
O417 O 0.67709 0.48601 0.65964 0.0
C418 C 0.74322 0.68162 0.74138 0.0
O419 O 0.78431 0.67559 0.74242 0.0
O420 O 0.8127 0.70298 0.67581 0.0
O421 O 0.84638 0.64959 0.67432 0.0
H422 H 0.79754 0.79672 0.57649 0.0
H423 H 0.73303 0.54568 0.75456 0.0
O424 O 0.74019 0.50208 0.69939 0.0
H425 H 0.91791 0.65995 0.78904 0.0
H426 H 0.89379 0.48698 0.72001 0.0
H427 H 0.87371 0.60025 0.63224 0.0
H428 H 0.89346 0.6395 0.72611 0.0
H429 H 0.82294 0.50751 0.72603 0.0
O430 O 0.7188 0.67522 0.71214 0.0
H431 H 0.80105 0.72613 0.60977 0.0
H432 H 0.66606 0.69588 0.66852 0.0
H433 H 0.9445 0.57971 0.62472 0.0
H434 H 0.75595 0.56434 0.81785 0.0
H435 H 0.95547 0.52338 0.66907 0.0
H436 H 0.84892 0.62213 0.83543 0.0
O437 O 0.773 0.56268 0.6361 0.0
H438 H 0.55219 0.51714 0.69996 0.0
H439 H 0.67113 0.61881 0.6021 0.0
H440 H 0.57771 0.55744 0.58945 0.0
H441 H 0.51746 0.50676 0.63861 0.0
H442 H 0.64608 0.57877 0.7114 0.0
H443 H 0.66144 0.76661 0.63618 0.0
H444 H 0.72739 0.81741 0.58969 0.0
O445 O 0.75751 0.62855 0.62204 0.0
C446 C 0.85107 0.69504 0.67339 0.0
C447 C 0.76847 0.77475 0.59661 0.0
C448 C 0.69213 0.75789 0.63014 0.0
N449 N 0.73356 0.70668 0.64085 0.0
C450 C 0.77015 0.7346 0.61544 0.0
C451 C 0.69502 0.718 0.64842 0.0
C452 C 0.72914 0.78637 0.60405 0.0
C453 C 0.77368 0.57018 0.76201 0.0
N454 N 0.81185 0.59118 0.73663 0.0
C455 C 0.78638 0.58084 0.79789 0.0
C456 C 0.83855 0.61338 0.80773 0.0
C457 C 0.87726 0.63468 0.78171 0.0
C458 C 0.86312 0.62312 0.74609 0.0
C459 C 0.88952 0.51156 0.70044 0.0
C460 C 0.87779 0.57513 0.65142 0.0
C461 C 0.84937 0.52326 0.70371 0.0
N462 N 0.84462 0.55562 0.67978 0.0
C463 C 0.91802 0.56372 0.64705 0.0
C464 C 0.9241 0.53205 0.67193 0.0
C465 C 0.76673 0.59162 0.61361 0.0
C466 C 0.57805 0.53932 0.67834 0.0
C467 C 0.64525 0.59641 0.6236 0.0
C468 C 0.59237 0.56185 0.61629 0.0
C469 C 0.55859 0.53333 0.64391 0.0
N470 N 0.66392 0.60261 0.65749 0.0
C471 C 0.63119 0.57433 0.68467 0.0
Co472 Co 0.05674 0.73515 0.00553 0.0
Co473 Co 0.18497 0.76707 1.00408 0.0
O474 O 0.11528 0.72901 0.0244 0.0
C475 C 0.06057 0.75724 0.08166 0.0
O476 O 0.10993 0.79222 0.07584 0.0
C477 C 0.21056 0.68232 0.99681 0.0
O478 O 0.209 0.688 0.96236 0.0
O479 O 0.15525 0.73405 0.9577 0.0
O480 O 0.0829 0.74107 0.955 0.0
H481 H 0.31707 0.87709 0.9112 0.0
H482 H 0.03612 0.64634 0.05347 0.0
O483 O 0.03127 0.73059 0.05578 0.0
H484 H 0.94291 0.56357 0.94232 0.0
H485 H 0.86812 0.6895 1.0028 0.0
H486 H 0.0433 0.7998 0.95027 0.0
H487 H 0.99251 0.66038 0.94842 0.0
H488 H 0.94356 0.6826 0.02399 0.0
O489 O 0.19682 0.7075 0.01762 0.0
H490 H 0.22875 0.82612 0.93706 0.0
H491 H 0.29073 0.78821 0.02671 0.0
H492 H 0.96889 0.80774 0.92814 0.0
H493 H 0.98664 0.54936 0.04861 0.0
H494 H 0.88052 0.75237 0.9545 0.0
H495 H 0.93953 0.50739 0.99273 0.0
O496 O 0.09762 0.81347 0.00893 0.0
H497 H 0.20764 0.76729 0.13623 0.0
H498 H 0.25434 0.87788 0.02882 0.0
H499 H 0.28783 0.91982 0.08693 0.0
H500 H 0.26467 0.8644 0.14116 0.0
H501 H 0.1742 0.727 0.07764 0.0
H502 H 0.37959 0.83928 1.00225 0.0
H503 H 0.39348 0.88465 0.94396 0.0
O504 O 0.17563 0.82747 0.99026 0.0
C505 C 0.11894 0.73543 0.94036 0.0
C506 C 0.31165 0.85769 0.93656 0.0
C507 C 0.34682 0.83642 0.98754 0.0
N508 N 0.25457 0.80445 0.98345 0.0
C509 C 0.26168 0.82867 0.95131 0.0
C510 C 0.29629 0.80749 1.00133 0.0
C511 C 0.3545 0.86181 0.95496 0.0
C512 C 0.01548 0.62835 0.02915 0.0
N513 N 0.01693 0.65896 1.00134 0.0
C514 C 0.98766 0.57343 0.02651 0.0
C515 C 0.9613 0.5499 0.99513 0.0
C516 C 0.96318 0.5814 0.96683 0.0
C517 C 0.99142 0.63618 0.97041 0.0
C518 C 0.90641 0.71383 0.9911 0.0
C519 C 0.00492 0.77532 0.96171 0.0
C520 C 0.94928 0.71015 1.00302 0.0
N521 N 0.99769 0.74049 0.9882 0.0
C522 C 0.96295 0.78011 0.94915 0.0
C523 C 0.91339 0.74908 0.96397 0.0
C524 C 0.14322 0.84315 0.99627 0.0
C525 C 0.2182 0.79183 0.11277 0.0
C526 C 0.24375 0.85346 0.05229 0.0
C527 C 0.26304 0.87745 0.08513 0.0
C528 C 0.25009 0.84633 0.11553 0.0
N529 N 0.21253 0.79994 0.04978 0.0
C530 C 0.19962 0.7692 0.07949 0.0
Co531 Co 0.42082 0.18421 0.34191 0.0
Co532 Co 0.32805 0.05245 0.33024 0.0
O533 O 0.39476 0.10921 0.3485 0.0
C534 C 0.52225 0.21936 0.30606 0.0
O535 O 0.50261 0.22948 0.27788 0.0
C536 C 0.31922 0.04222 0.40811 0.0
O537 O 0.33872 0.09341 0.40846 0.0
O538 O 0.28947 0.0899 0.34308 0.0
O539 O 0.35096 0.1746 0.3521 0.0
H540 H 0.16116 0.97374 0.25944 0.0
H541 H 0.47473 0.14876 0.39181 0.0
O542 O 0.49257 0.19536 0.33236 0.0
H543 H 0.41859 0.25111 0.46448 0.0
H544 H 0.55245 0.37713 0.35578 0.0
H545 H 0.38162 0.24713 0.30507 0.0
H546 H 0.40123 0.24099 0.40016 0.0
H547 H 0.51702 0.28237 0.36529 0.0
O548 O 0.31139 0.01813 0.37855 0.0
H549 H 0.24483 0.04599 0.28262 0.0
H550 H 0.27022 0.93603 0.3398 0.0
H551 H 0.41502 0.342 0.29561 0.0
H552 H 0.49339 0.15838 0.45599 0.0
H553 H 0.50119 0.40787 0.32096 0.0
H554 H 0.465 0.20962 0.49282 0.0
O555 O 0.40257 0.17313 0.29042 0.0
H556 H 0.44476 0.97672 0.35301 0.0
H557 H 0.33417 -0.00088 0.2647 0.0
H558 H 0.37955 0.95097 0.24817 0.0
H559 H 0.43498 0.93911 0.29262 0.0
H560 H 0.39982 0.0257 0.3681 0.0
H561 H 0.18726 0.86268 0.31702 0.0
H562 H 0.13184 0.88124 0.27668 0.0
O563 O 0.34412 0.08682 0.28231 0.0
C564 C 0.30363 0.13733 0.35121 0.0
C565 C 0.18489 0.9651 0.27702 0.0
C566 C 0.19936 0.90275 0.30946 0.0
N567 N 0.26246 0.99517 0.31235 0.0
C568 C 0.23232 0.00583 0.29017 0.0
C569 C 0.24636 0.94447 0.32225 0.0
C570 C 0.16843 0.91322 0.28674 0.0
C571 C 0.46282 0.17167 0.40757 0.0
N572 N 0.43716 0.1945 0.39219 0.0
C573 C 0.47327 0.17677 0.44394 0.0
C574 C 0.45727 0.20546 0.46459 0.0
C575 C 0.4312 0.22871 0.44872 0.0
C576 C 0.42138 0.22275 0.41229 0.0
C577 C 0.51483 0.34908 0.34464 0.0
C578 C 0.41902 0.27557 0.3163 0.0
C579 C 0.49469 0.29521 0.34977 0.0
N580 N 0.44749 0.25917 0.33549 0.0
C581 C 0.43775 0.32924 0.31083 0.0
C582 C 0.48608 0.36617 0.32507 0.0
C583 C 0.37262 0.13393 0.27078 0.0
C584 C 0.42077 0.98162 0.3334 0.0
C585 C 0.35883 0.99477 0.284 0.0
C586 C 0.38418 0.96721 0.27456 0.0
C587 C 0.41524 0.96052 0.29952 0.0
N588 N 0.36425 0.01509 0.31735 0.0
C589 C 0.39504 0.00915 0.34184 0.0
Co590 Co 0.2509 0.45503 0.65857 0.0
Co591 Co 0.25806 0.34453 0.67287 0.0
O592 O 0.27519 0.41587 0.68689 0.0
C593 C 0.35373 0.53834 0.69136 0.0
O594 O 0.36054 0.5039 0.70931 0.0
C595 C 0.23801 0.33737 0.75032 0.0
O596 O 0.20962 0.35954 0.74441 0.0
O597 O 0.18232 0.32076 0.67597 0.0
O598 O 0.18429 0.38832 0.64674 0.0
H599 H 0.15961 0.17304 0.60674 0.0
H600 H 0.27545 0.47702 0.73642 0.0
O601 O 0.31601 0.52344 0.66944 0.0
H602 H 0.10081 0.45679 0.72039 0.0
H603 H 0.23641 0.61349 0.62468 0.0
H604 H 0.19542 0.43518 0.5894 0.0
H605 H 0.14705 0.44592 0.66979 0.0
H606 H 0.25792 0.56025 0.66427 0.0
O607 O 0.25947 0.32743 0.72442 0.0
H608 H 0.18355 0.26407 0.62218 0.0
H609 H 0.29378 0.27138 0.69782 0.0
H610 H 0.17091 0.48608 0.5499 0.0
H611 H 0.23118 0.48911 0.78742 0.0
H612 H 0.19169 0.57617 0.56736 0.0
H613 H 0.14304 0.47905 0.77974 0.0
O614 O 0.2863 0.4463 0.61685 0.0
H615 H 0.44459 0.43579 0.71581 0.0
H616 H 0.32507 0.33384 0.61826 0.0
H617 H 0.41902 0.36252 0.61362 0.0
H618 H 0.47929 0.41312 0.6629 0.0
H619 H 0.35039 0.40652 0.71927 0.0
H620 H 0.27067 0.18026 0.68341 0.0
H621 H 0.20328 0.13051 0.63748 0.0
O622 O 0.25539 0.35973 0.62065 0.0
C623 C 0.15978 0.34113 0.65862 0.0
C624 C 0.18919 0.19438 0.62671 0.0
C625 C 0.25147 0.1984 0.66977 0.0
N626 N 0.24039 0.27324 0.66063 0.0
C627 C 0.20304 0.24603 0.63548 0.0
C628 C 0.26432 0.24997 0.67785 0.0
C629 C 0.21366 0.17052 0.64399 0.0
C630 C 0.23808 0.4741 0.73232 0.0
N631 N 0.21525 0.46305 0.69954 0.0
C632 C 0.2127 0.48028 0.76158 0.0
C633 C 0.16319 0.47444 0.75729 0.0
C634 C 0.1395 0.46197 0.72402 0.0
C635 C 0.16607 0.45604 0.6954 0.0
C636 C 0.22678 0.57414 0.61693 0.0
C637 C 0.20402 0.47394 0.59749 0.0
C638 C 0.23934 0.54391 0.63908 0.0
N639 N 0.22841 0.49458 0.6291 0.0
C640 C 0.19015 0.50272 0.57492 0.0
C641 C 0.20183 0.55324 0.58471 0.0
C642 C 0.27225 0.40202 0.60247 0.0
C643 C 0.41864 0.41349 0.69426 0.0
C644 C 0.35119 0.35655 0.63957 0.0
C645 C 0.40431 0.37246 0.63687 0.0
C646 C 0.43812 0.40089 0.66452 0.0
N647 N 0.33226 0.36848 0.66903 0.0
C648 C 0.36527 0.39684 0.69606 0.0
Co649 Co 0.92979 0.27154 0.99795 0.0
Co650 Co 0.79854 0.22826 1.00414 0.0
O651 O 0.87074 0.2748 0.01877 0.0
C652 C 0.94057 0.26301 0.07488 0.0
O653 O 0.89089 0.2264 0.07429 0.0
C654 C 0.76432 0.30637 0.9922 0.0
O655 O 0.76327 0.29697 0.95809 0.0
O656 O 0.81833 0.25197 0.95449 0.0
O657 O 0.89609 0.25565 0.94929 0.0
H658 H 0.65653 0.09566 0.92469 0.0
H659 H 0.94953 0.36481 0.04037 0.0
O660 O 0.96359 0.28609 0.04617 0.0
H661 H 0.02215 0.43421 0.92187 0.0
H662 H 0.12125 0.33104 0.98474 0.0
H663 H 0.94188 0.20242 0.94595 0.0
H664 H 0.98101 0.33911 0.93469 0.0
H665 H 0.0453 0.33478 0.00839 0.0
O666 O 0.78255 0.28609 0.01385 0.0
H667 H 0.74767 0.15424 0.94412 0.0
H668 H 0.69426 0.20408 0.03232 0.0
H669 H 0.01676 0.19762 0.92131 0.0
H670 H 0.99081 0.46027 0.02881 0.0
H671 H 0.10723 0.26219 0.94078 0.0
H672 H 0.02738 0.49551 0.96918 0.0
O673 O 0.8957 0.19462 0.00748 0.0
H674 H 0.79765 0.25375 0.13588 0.0
H675 H 0.74092 0.12292 0.03948 0.0
H676 H 0.72026 0.09255 0.10144 0.0
H677 H 0.74858 0.15818 0.15016 0.0
H678 H 0.81819 0.28245 0.07357 0.0
H679 H 0.60271 0.14634 0.01385 0.0
H680 H 0.58319 0.09143 0.95964 0.0
O681 O 0.81213 0.1694 0.99458 0.0
C682 C 0.85512 0.2535 0.93599 0.0
C683 C 0.66446 0.1194 0.94832 0.0
C684 C 0.63421 0.14786 0.9983 0.0
N685 N 0.72636 0.18262 0.98933 0.0
C686 C 0.71602 0.15264 0.95947 0.0
C687 C 0.68621 0.18062 0.00862 0.0
C688 C 0.62334 0.11706 0.96793 0.0
C689 C 0.96569 0.37992 0.01443 0.0
N690 N 0.96311 0.3465 0.98829 0.0
C691 C 0.98887 0.43397 0.00801 0.0
C692 C 0.00934 0.45372 0.97453 0.0
C693 C 0.00639 0.41934 0.94797 0.0
C694 C 0.98294 0.36552 0.95536 0.0
C695 C 0.08204 0.30276 0.976 0.0
C696 C 0.98116 0.23094 0.9543 0.0
C697 C 0.03888 0.30461 0.98934 0.0
N698 N 0.98925 0.2691 0.97835 0.0
C699 C 0.0234 0.22791 0.94036 0.0
C700 C 0.07414 0.26412 0.95132 0.0
C701 C 0.84892 0.15949 1.00005 0.0
C702 C 0.7849 0.22478 0.11488 0.0
C703 C 0.75361 0.15177 0.06051 0.0
C704 C 0.74163 0.13431 0.09556 0.0
C705 C 0.75748 0.17115 0.12287 0.0
N706 N 0.78054 0.20446 0.05287 0.0
C707 C 0.79615 0.2408 0.07952 0.0
H708 H 0.28061 0.60744 0.39414 0.0
H709 H 0.27387 0.55306 0.28685 0.0
H710 H 0.34423 0.63997 0.26955 0.0
H711 H 0.41885 0.72504 0.28792 0.0
H712 H 0.42581 0.78062 0.39451 0.0
H713 H 0.34357 0.7002 0.40895 0.0
C714 C 0.29357 0.61504 0.36676 0.0
C715 C 0.27301 0.5734 0.34212 0.0
C716 C 0.33439 0.66526 0.35693 0.0
C717 C 0.28944 0.5841 0.30656 0.0
C718 C 0.32996 0.63382 0.29661 0.0
C719 C 0.40104 0.72031 0.31383 0.0
C720 C 0.42798 0.7582 0.34018 0.0
C721 C 0.35437 0.6738 0.32198 0.0
C722 C 0.40519 0.75201 0.37377 0.0
C723 C 0.3586 0.70574 0.38213 0.0
H724 H 0.67782 0.26183 0.73368 0.0
H725 H 0.61447 0.21597 0.6285 0.0
H726 H 0.60432 0.29368 0.62405 0.0
H727 H 0.63478 0.38455 0.64472 0.0
H728 H 0.70353 0.43124 0.74887 0.0
H729 H 0.68907 0.34311 0.75961 0.0
C730 C 0.65933 0.26765 0.71057 0.0
C731 C 0.64685 0.23373 0.6815 0.0
C732 C 0.65579 0.31333 0.70776 0.0
C733 C 0.62362 0.24148 0.65136 0.0
C734 C 0.61869 0.28638 0.64862 0.0
C735 C 0.64467 0.37474 0.67023 0.0
C736 C 0.67129 0.41452 0.69565 0.0
C737 C 0.63777 0.32421 0.67582 0.0
C738 C 0.68385 0.4014 0.72866 0.0
C739 C 0.67577 0.35107 0.73479 0.0
H740 H 0.39692 0.67458 0.06627 0.0
H741 H 0.40962 0.62989 0.9595 0.0
H742 H 0.32197 0.61386 0.94587 0.0
H743 H 0.25236 0.63274 0.96014 0.0
H744 H 0.24331 0.6854 0.06535 0.0
H745 H 0.31778 0.67679 0.08398 0.0
C746 C 0.3795 0.65912 0.04054 0.0
C747 C 0.40967 0.65381 0.0138 0.0
C748 C 0.3301 0.65262 0.03235 0.0
C749 C 0.38702 0.63437 0.98042 0.0
C750 C 0.33713 0.62572 0.97252 0.0
C751 C 0.26568 0.64094 0.98744 0.0
C752 C 0.24317 0.66112 0.01096 0.0
C753 C 0.3098 0.63787 0.99761 0.0
C754 C 0.26033 0.67053 0.04644 0.0
C755 C 0.30325 0.66596 0.05711 0.0
H756 H 0.59906 0.28003 0.25873 0.0
H757 H 0.57427 0.23133 0.36852 0.0
H758 H 0.6599 0.30499 0.38393 0.0
H759 H 0.73252 0.39318 0.36825 0.0
H760 H 0.75901 0.44143 0.25878 0.0
H761 H 0.6824 0.35786 0.24108 0.0
C762 C 0.61304 0.28453 0.28583 0.0
C763 C 0.57943 0.25125 0.31256 0.0
C764 C 0.66236 0.32744 0.29468 0.0
C765 C 0.59875 0.25689 0.34741 0.0
C766 C 0.6477 0.29934 0.35639 0.0
C767 C 0.72251 0.38428 0.34043 0.0
C768 C 0.75077 0.42287 0.31478 0.0
C769 C 0.67844 0.33641 0.33058 0.0
C770 C 0.73777 0.4117 0.27882 0.0
C771 C 0.69374 0.36423 0.26878 0.0
H772 H 0.32164 0.70609 0.76054 0.0
H773 H 0.35053 0.76356 0.65266 0.0
H774 H 0.38659 0.70737 0.63875 0.0
H775 H 0.38905 0.62731 0.65329 0.0
H776 H 0.35803 0.56749 0.76018 0.0
H777 H 0.34583 0.6403 0.77875 0.0
C778 C 0.3373 0.70754 0.7343 0.0
C779 C 0.33168 0.73773 0.70744 0.0
C780 C 0.35752 0.67442 0.72621 0.0
C781 C 0.35323 0.73994 0.67375 0.0
C782 C 0.37385 0.70766 0.66566 0.0
C783 C 0.38244 0.63195 0.68103 0.0
C784 C 0.37375 0.59195 0.70522 0.0
C785 C 0.37332 0.67261 0.69111 0.0
C786 C 0.3651 0.59799 0.74109 0.0
C787 C 0.35707 0.63911 0.75156 0.0
H788 H 0.72421 0.35873 0.95623 0.0
H789 H 0.72643 0.29634 0.05959 0.0
H790 H 0.64962 0.30113 0.07701 0.0
H791 H 0.57171 0.30502 0.05824 0.0
H792 H 0.56972 0.36894 0.95581 0.0
H793 H 0.65692 0.38248 0.94279 0.0
C794 C 0.70884 0.34769 0.98292 0.0
C795 C 0.73003 0.3256 0.0061 0.0
C796 C 0.6643 0.35027 0.9928 0.0
C797 C 0.71043 0.31262 0.0409 0.0
C798 C 0.66618 0.31502 0.05089 0.0
C799 C 0.59152 0.32397 0.03374 0.0
C800 C 0.56487 0.33604 0.00797 0.0
C801 C 0.64125 0.33109 0.02641 0.0
C802 C 0.59014 0.36006 0.97612 0.0
C803 C 0.63964 0.36716 0.96854 0.0
H804 H 0.20081 0.26927 0.3894 0.0
H805 H 0.12125 0.2053 0.29044 0.0
H806 H 0.15533 0.14414 0.28896 0.0
H807 H 0.21997 0.12043 0.31146 0.0
H808 H 0.30146 0.18889 0.40933 0.0
H809 H 0.25355 0.23598 0.41631 0.0
C810 C 0.19016 0.24106 0.36793 0.0
C811 C 0.15948 0.24177 0.33984 0.0
C812 C 0.21035 0.20708 0.36716 0.0
C813 C 0.14504 0.20506 0.31226 0.0
C814 C 0.16473 0.17047 0.31137 0.0
C815 C 0.22558 0.14419 0.33485 0.0
C816 C 0.26412 0.15174 0.35979 0.0
C817 C 0.19907 0.17257 0.33805 0.0
C818 C 0.27201 0.18301 0.38983 0.0
C819 C 0.24492 0.21009 0.39371 0.0
H820 H 0.9237 0.24824 0.61809 0.0
H821 H 0.90467 0.1251 0.6895 0.0
H822 H 0.00021 0.16553 0.69401 0.0
H823 H 0.08853 0.24285 0.68367 0.0
H824 H 0.10396 0.36709 0.61401 0.0
H825 H 0.01046 0.31948 0.60317 0.0
C826 C 0.94046 0.22981 0.63425 0.0
C827 C 0.90749 0.1844 0.65384 0.0
C828 C 0.99479 0.25408 0.63759 0.0
C829 C 0.92947 0.16015 0.67411 0.0
C830 C 0.98402 0.18361 0.67701 0.0
C831 C 0.07145 0.25922 0.6659 0.0
C832 C 0.10329 0.30906 0.65033 0.0
C833 C 0.01703 0.23174 0.6599 0.0
C834 C 0.08054 0.32937 0.62697 0.0
C835 C 0.02695 0.30207 0.62055 0.0
H836 H 0.7882 0.09227 0.95014 0.0
H837 H 0.87848 0.10349 0.04294 0.0
H838 H 0.83972 0.00719 0.0434 0.0
H839 H 0.76976 0.91962 0.02227 0.0
H840 H 0.67845 0.91134 0.93057 0.0
H841 H 0.72838 0.0068 0.9244 0.0
C842 C 0.8 0.07359 0.9701 0.0
C843 C 0.83521 0.10422 0.99679 0.0
C844 C 0.77702 0.01883 0.97048 0.0
C845 C 0.8512 0.08022 0.0222 0.0
C846 C 0.82879 0.0253 0.02257 0.0
C847 C 0.76194 0.93883 1.00046 0.0
C848 C 0.71996 0.90892 0.97728 0.0
C849 C 0.79018 0.99408 0.99757 0.0
C850 C 0.70986 0.93388 0.94913 0.0
C851 C 0.73841 0.98838 0.94556 0.0
H852 H 0.72796 0.8194 0.39103 0.0
H853 H 0.78517 0.88258 0.28707 0.0
H854 H 0.84153 0.84322 0.28725 0.0
H855 H 0.86047 0.77679 0.31264 0.0
H856 H 0.79544 0.7079 0.41442 0.0
H857 H 0.75668 0.76389 0.41997 0.0
C858 C 0.75424 0.82588 0.36904 0.0
C859 C 0.75313 0.8536 0.3392 0.0
C860 C 0.78437 0.80139 0.36884 0.0
C861 C 0.78638 0.86169 0.31045 0.0
C862 C 0.81799 0.83875 0.31044 0.0
C863 C 0.83925 0.7755 0.33644 0.0
C864 C 0.83015 0.73822 0.36292 0.0
C865 C 0.8154 0.80646 0.33882 0.0
C866 C 0.80225 0.73613 0.39359 0.0
C867 C 0.78006 0.76798 0.39675 0.0
H868 H 0.08689 0.85833 0.69458 0.0
H869 H 0.09629 0.7689 0.60718 0.0
H870 H 0.00173 0.72582 0.59851 0.0
H871 H 0.91637 0.70218 0.62267 0.0
H872 H 0.90427 0.78465 0.71319 0.0
H873 H -8e-05 0.84324 0.71343 0.0
C874 C 0.06815 0.83059 0.67304 0.0
C875 C 0.09781 0.81598 0.65178 0.0
C876 C 0.01344 0.80459 0.66908 0.0
C877 C 0.07367 0.77985 0.62408 0.0
C878 C 0.01978 0.75531 0.61914 0.0
C879 C 0.93477 0.73403 0.6418 0.0
C880 C 0.9042 0.73924 0.66806 0.0
C881 C 0.98921 0.76559 0.64253 0.0
C882 C 0.92758 0.78046 0.69268 0.0
C883 C 0.98213 0.81339 0.69301 0.0
H884 H 0.2723 0.07739 0.9491 0.0
H885 H 0.20269 0.09964 0.04291 0.0
H886 H 0.14394 0.00391 0.04792 0.0
H887 H 0.12471 0.91383 0.0313 0.0
H888 H 0.2006 0.89509 0.93928 0.0
H889 H 0.24423 0.98919 0.92764 0.0
C890 C 0.24323 0.06122 0.97008 0.0
C891 C 0.24192 0.09488 0.99581 0.0
C892 C 0.21138 0.00667 0.97341 0.0
C893 C 0.204 0.07408 0.02273 0.0
C894 C 0.17097 0.01942 0.02581 0.0
C895 C 0.14978 0.93044 0.00828 0.0
C896 C 0.16028 0.89798 0.98654 0.0
C897 C 0.17607 0.98521 1.00222 0.0
C898 C 0.19276 0.91961 0.95674 0.0
C899 C 0.21769 0.97337 0.95001 0.0
H900 H 0.90026 0.24075 0.14164 0.0
H901 H 0.04665 0.3159 0.08432 0.0
H902 H 0.095 0.33556 0.14015 0.0
H903 H 0.09574 0.33002 0.20502 0.0
H904 H 0.94982 0.25792 0.2628 0.0
H905 H 0.90119 0.23851 0.20694 0.0
C906 C 0.94276 0.26143 0.14136 0.0
C907 C 0.9698 0.27654 0.10882 0.0
C908 C 0.97035 0.2731 0.1736 0.0
C909 C 0.02487 0.30387 0.10896 0.0
C910 C 0.05255 0.31501 0.14088 0.0
C911 C 0.05328 0.31002 0.20544 0.0
C912 C 0.02641 0.29509 0.23802 0.0
C913 C 0.0257 0.29957 0.17332 0.0
C914 C 0.97143 0.26983 0.23808 0.0
C915 C 0.94362 0.25863 0.20615 0.0
H916 H 0.70073 0.98143 0.57401 0.0
H917 H 0.76354 0.13959 0.53364 0.0
H918 H 0.74541 0.10637 0.47314 0.0
H919 H 0.71423 0.03287 0.43111 0.0
H920 H 0.65442 0.87487 0.47087 0.0
H921 H 0.66871 0.90744 0.53171 0.0
C922 C 0.71014 0.0085 0.55196 0.0
C923 C 0.73359 0.0629 0.55845 0.0
C924 C 0.70032 0.98921 0.51692 0.0
C925 C 0.74577 0.09752 0.52951 0.0
C926 C 0.73537 0.07859 0.49479 0.0
C927 C 0.70407 0.00554 0.45308 0.0
C928 C 0.6834 0.95158 0.44635 0.0
C929 C 0.71305 0.02459 0.48811 0.0
C930 C 0.67069 0.91672 0.4752 0.0
C931 C 0.67878 0.93528 0.51009 0.0
H932 H 0.64974 0.74787 0.86814 0.0
H933 H 0.74365 0.70087 0.92875 0.0
H934 H 0.7716 0.67773 0.87377 0.0
H935 H 0.77085 0.67326 0.80866 0.0
H936 H 0.6741 0.71725 0.74856 0.0
H937 H 0.64556 0.73932 0.80355 0.0
C938 C 0.67625 0.73246 0.86943 0.0
C939 C 0.69494 0.72645 0.90248 0.0
C940 C 0.69167 0.71893 0.83789 0.0
C941 C 0.72877 0.70587 0.90365 0.0
C942 C 0.74484 0.69281 0.87224 0.0
C943 C 0.74351 0.68767 0.80754 0.0
C944 C 0.72493 0.69404 0.77452 0.0
C945 C 0.72682 0.6996 0.83923 0.0
C946 C 0.68906 0.71215 0.7736 0.0
C947 C 0.67279 0.72479 0.80501 0.0
H948 H 0.95864 0.70524 0.10381 0.0
H949 H 0.11781 0.78649 0.14259 0.0
H950 H 0.08628 0.76866 0.20357 0.0
H951 H 0.0135 0.72979 0.24628 0.0
H952 H 0.85428 0.65244 0.20778 0.0
H953 H 0.88573 0.66889 0.14664 0.0
C954 C 0.98637 0.71902 0.12562 0.0
C955 C 0.04048 0.74703 0.11855 0.0
C956 C 0.96797 0.7093 0.16082 0.0
C957 C 0.07591 0.76497 0.14717 0.0
C958 C 0.05795 0.75468 0.18214 0.0
C959 C 0.98573 0.71646 0.22449 0.0
C960 C 0.93166 0.68981 0.23161 0.0
C961 C 0.00408 0.72683 0.18932 0.0
C962 C 0.89615 0.67324 0.20308 0.0
C963 C 0.91408 0.68252 0.16805 0.0
H964 H 0.34295 0.08329 0.47468 0.0
H965 H 0.26766 0.93535 0.41814 0.0
H966 H 0.24556 0.88741 0.47438 0.0
H967 H 0.24601 0.88744 0.53948 0.0
H968 H 0.32155 0.03535 0.59605 0.0
H969 H 0.34535 0.08331 0.53979 0.0
C970 C 0.32164 0.04053 0.47459 0.0
C971 C 0.3067 0.01298 0.44216 0.0
C972 C 0.30914 0.01321 0.50702 0.0
C973 C 0.27958 0.95759 0.44265 0.0
C974 C 0.26688 0.93013 0.47482 0.0
C975 C 0.26773 0.9302 0.53959 0.0
C976 C 0.2817 0.95772 0.57204 0.0
C977 C 0.28122 0.95752 0.50715 0.0
C978 C 0.31022 0.01312 0.57154 0.0
C979 C 0.32377 0.04059 0.53936 0.0
H980 H 0.26327 0.30788 0.91465 0.0
H981 H 0.3365 0.22442 0.87158 0.0
H982 H 0.3204 0.24335 0.81166 0.0
H983 H 0.28563 0.28304 0.77102 0.0
H984 H 0.21032 0.36516 0.81261 0.0
H985 H 0.22683 0.3471 0.87319 0.0
C986 C 0.27574 0.29399 0.89212 0.0
C987 C 0.30101 0.2647 0.89777 0.0
C988 C 0.26584 0.30457 0.85732 0.0
C989 C 0.31671 0.24678 0.8682 0.0
C990 C 0.3076 0.25764 0.83378 0.0
C991 C 0.27274 0.29702 0.79328 0.0
C992 C 0.24676 0.32542 0.78716 0.0
C993 C 0.28214 0.28635 0.82799 0.0
C994 C 0.23025 0.34302 0.81646 0.0
C995 C 0.23981 0.33283 0.85118 0.0
H996 H 0.24604 0.43912 0.44168 0.0
H997 H 0.09513 0.29984 0.45883 0.0
H998 H 0.12086 0.29333 0.51948 0.0
H999 H 0.18582 0.32825 0.56806 0.0
H1000 H 0.33415 0.47016 0.55133 0.0
H1001 H 0.31032 0.47369 0.48961 0.0
C1002 C 0.2184 0.40738 0.45858 0.0
C1003 C 0.16846 0.37015 0.44548 0.0
C1004 C 0.2335 0.40373 0.49331 0.0
C1005 C 0.13362 0.32933 0.46808 0.0
C1006 C 0.14848 0.32532 0.50273 0.0
C1007 C 0.21345 0.35906 0.55055 0.0
C1008 C 0.26226 0.39824 0.56389 0.0
C1009 C 0.19844 0.36213 0.51557 0.0
C1010 C 0.29685 0.43913 0.5414 0.0
C1011 C 0.28296 0.44144 0.50629 0.0
H1012 H 0.83515 0.16757 0.89802 0.0
H1013 H 0.85118 0.3213 0.88902 0.0
H1014 H 0.8263 0.30509 0.82624 0.0
H1015 H 0.79819 0.24664 0.77473 0.0
H1016 H 0.77709 0.09039 0.78399 0.0
H1017 H 0.80469 0.10764 0.84612 0.0
C1018 C 0.83398 0.19768 0.88197 0.0
C1019 C 0.84615 0.24606 0.89753 0.0
C1020 C 0.81783 0.18722 0.8463 0.0
C1021 C 0.84292 0.28428 0.87716 0.0
C1022 C 0.82832 0.2748 0.84146 0.0
C1023 C 0.79941 0.2161 0.79022 0.0
C1024 C 0.78557 0.1672 0.77445 0.0
C1025 C 0.81526 0.22626 0.82586 0.0
C1026 C 0.78723 0.12827 0.79529 0.0
C1027 C 0.80336 0.13824 0.83081 0.0
H1028 H 0.54775 0.8159 0.21782 0.0
H1029 H 0.71583 0.9119 0.22488 0.0
H1030 H 0.72407 0.8922 0.16286 0.0
H1031 H 0.68319 0.84257 0.10768 0.0
H1032 H 0.51467 0.7534 0.09972 0.0
H1033 H 0.50679 0.77494 0.161 0.0
C1034 C 0.58611 0.83328 0.20552 0.0
C1035 C 0.63111 0.8653 0.2258 0.0
C1036 C 0.59045 0.82208 0.1699 0.0
C1037 C 0.6806 0.8877 0.20964 0.0
C1038 C 0.68533 0.87591 0.17432 0.0
C1039 C 0.64482 0.82776 0.11949 0.0
C1040 C 0.59958 0.79514 0.09951 0.0
C1041 C 0.64054 0.84219 0.15441 0.0
C1042 C 0.55008 0.77763 0.1147 0.0
C1043 C 0.54552 0.7902 0.14972 0.0
H1044 H 0.79039 0.52881 0.4579 0.0
H1045 H 0.91252 0.69239 0.45572 0.0
H1046 H 0.89322 0.70275 0.5171 0.0
H1047 H 0.83822 0.66666 0.5706 0.0
H1048 H 0.71968 0.50235 0.57394 0.0
H1049 H 0.74007 0.49115 0.51262 0.0
C1050 C 0.81341 0.56658 0.47096 0.0
C1051 C 0.85275 0.60979 0.45195 0.0
C1052 C 0.8018 0.57244 0.50622 0.0
C1053 C 0.88221 0.65832 0.46953 0.0
C1054 C 0.8708 0.66448 0.5046 0.0
C1055 C 0.8166 0.62862 0.55761 0.0
C1056 C 0.77663 0.58562 0.57613 0.0
C1057 C 0.82992 0.62216 0.52292 0.0
C1058 C 0.74994 0.53606 0.55976 0.0
C1059 C 0.76187 0.52965 0.52489 0.0
H1060 H 0.13387 0.81861 0.90123 0.0
H1061 H 0.12579 0.66827 0.89423 0.0
H1062 H 0.15594 0.68664 0.83255 0.0
H1063 H 0.18947 0.74753 0.7822 0.0
H1064 H 0.20559 0.90178 0.7909 0.0
H1065 H 0.16855 0.88034 0.8506 0.0
C1066 C 0.13751 0.78947 0.88576 0.0
C1067 C 0.12631 0.74155 0.90168 0.0
C1068 C 0.15763 0.80163 0.85104 0.0
C1069 C 0.13301 0.70479 0.88207 0.0
C1070 C 0.15084 0.71562 0.84703 0.0
C1071 C 0.18526 0.77676 0.79708 0.0
C1072 C 0.20075 0.82643 0.78186 0.0
C1073 C 0.16429 0.76435 0.83151 0.0
C1074 C 0.19451 0.86341 0.80181 0.0
C1075 C 0.17294 0.85105 0.83594 0.0
H1076 H 0.37902 0.22084 0.23977 0.0
H1077 H 0.36113 0.06894 0.21584 0.0
H1078 H 0.35956 0.08546 0.15242 0.0
H1079 H 0.36416 0.14317 0.10391 0.0
H1080 H 0.37486 0.2921 0.127 0.0
H1081 H 0.37797 0.27663 0.19077 0.0
C1082 C 0.37489 0.19146 0.22062 0.0
C1083 C 0.3707 0.14389 0.23245 0.0
C1084 C 0.37261 0.20069 0.18417 0.0
C1085 C 0.36441 0.10577 0.20741 0.0
C1086 C 0.36361 0.11526 0.17116 0.0
C1087 C 0.3673 0.17235 0.12287 0.0
C1088 C 0.37 0.21907 0.11077 0.0
C1089 C 0.36784 0.16259 0.15927 0.0
C1090 C 0.37285 0.25593 0.13569 0.0
C1091 C 0.37478 0.24712 0.17209 0.0
loop_
_geom_bond_atom_site_label_1
_geom_bond_atom_site_label_2
_geom_bond_distance
_geom_bond_site_symmetry_2
_ccdc_geom_bond_type
Co0 O2 2.143 . S
Co0 O8 2.074 . S
Co0 O11 2.093 . S
Co0 O24 2.097 . S
Co0 N41 2.151 . S
Co0 N49 2.214 . S
Co1 O2 2.160 . S
Co1 O7 2.058 . S
Co1 O17 2.057 . S
Co1 O32 2.037 . S
Co1 N36 2.145 1_455 S
Co1 N57 2.257 . S
O2 Co0 2.143 . S
O2 Co1 2.160 . S
C3 O4 1.278 . S
C3 O11 1.224 . S
O4 C3 1.278 . S
C5 O6 1.245 . S
C5 O17 1.232 . S
O6 C5 1.245 . S
O7 Co1 2.058 . S
O7 C33 1.269 . S
O8 Co0 2.074 . S
O8 C33 1.257 . S
H9 C34 0.930 . S
H10 C40 0.930 . S
O11 Co0 2.093 . S
O11 C3 1.224 . S
H12 C44 0.929 . S
H13 C46 0.930 . S
H14 C47 0.930 . S
H15 C45 0.929 . S
H16 C48 0.928 . S
O17 Co1 2.057 . S
O17 C5 1.232 . S
H18 C37 0.929 1_455 S
H19 C38 0.929 . S
H20 C50 0.931 . S
H21 C42 0.929 . S
H22 C51 0.930 . S
H23 C43 0.931 . S
O24 Co0 2.097 . S
O24 C52 1.214 . S
H25 C53 0.929 . S
H26 C54 0.936 1_655 S
H27 C55 0.930 . S
H28 C56 0.929 . S
H29 C58 0.930 . S
H30 C35 0.930 . S
H31 C39 0.930 . S
O32 Co1 2.037 . S
O32 C52 1.234 . S
C33 O7 1.269 . S
C33 O8 1.257 . S
C34 H9 0.930 . S
C34 C37 1.388 . S
C34 C39 1.418 . S
C35 H30 0.930 . S
C35 C38 1.404 . S
C35 C39 1.353 . S
N36 Co1 2.145 1_655 S
N36 C37 1.397 . S
N36 C38 1.334 . S
C37 H18 0.929 1_655 S
C37 C34 1.388 . S
C37 N36 1.397 . S
C38 H19 0.929 . S
C38 C35 1.404 . S
C38 N36 1.334 . S
C39 H31 0.930 . S
C39 C34 1.418 . S
C39 C35 1.353 . S
C40 H10 0.930 . S
C40 N41 1.330 . S
C40 C42 1.446 . S
N41 Co0 2.151 . S
N41 C40 1.330 . S
N41 C45 1.418 . S
C42 H21 0.929 . S
C42 C40 1.446 . S
C42 C43 1.332 . S
C43 H23 0.931 . S
C43 C42 1.332 . S
C43 C44 1.267 . S
C44 H12 0.929 . S
C44 C43 1.267 . S
C44 C45 1.251 . S
C45 H15 0.929 . S
C45 N41 1.418 . S
C45 C44 1.251 . S
C46 H13 0.930 . S
C46 C48 1.406 . S
C46 C51 1.261 . S
C47 H14 0.930 . S
C47 N49 1.325 . S
C47 C50 1.357 . S
C48 H16 0.928 . S
C48 C46 1.406 . S
C48 N49 1.261 . S
N49 Co0 2.214 . S
N49 C47 1.325 . S
N49 C48 1.261 . S
C50 H20 0.931 . S
C50 C47 1.357 . S
C50 C51 1.312 . S
C51 H22 0.930 . S
C51 C46 1.261 . S
C51 C50 1.312 . S
C52 O24 1.214 . S
C52 O32 1.234 . S
C53 H25 0.929 . S
C53 C56 1.391 1_455 S
C53 C58 1.391 . S
C54 H26 0.936 1_455 S
C54 C55 1.390 1_455 S
C54 N57 1.391 . S
C55 H27 0.930 . S
C55 C54 1.390 1_655 S
C55 C56 1.392 . S
C56 H28 0.929 . S
C56 C53 1.391 1_655 S
C56 C55 1.392 . S
N57 Co1 2.257 . S
N57 C54 1.391 . S
N57 C58 1.388 . S
C58 H29 0.930 . S
C58 C53 1.391 . S
C58 N57 1.388 . S
Co59 O61 2.143 . S
Co59 O67 2.074 . S
Co59 O70 2.093 . S
Co59 O83 2.097 . S
Co59 N100 2.151 . S
Co59 N108 2.214 . S
Co60 O61 2.160 . S
Co60 O66 2.058 . S
Co60 O76 2.057 . S
Co60 O91 2.037 . S
Co60 N95 2.145 1_545 S
Co60 N116 2.257 . S
O61 Co59 2.143 . S
O61 Co60 2.160 . S
C62 O63 1.278 . S
C62 O70 1.224 . S
O63 C62 1.278 . S
C64 O65 1.245 . S
C64 O76 1.232 . S
O65 C64 1.245 . S
O66 Co60 2.058 . S
O66 C92 1.269 . S
O67 Co59 2.074 . S
O67 C92 1.257 . S
H68 C93 0.930 . S
H69 C99 0.930 . S
O70 Co59 2.093 . S
O70 C62 1.224 . S
H71 C103 0.929 . S
H72 C105 0.930 . S
H73 C106 0.930 . S
H74 C104 0.929 . S
H75 C107 0.928 . S
O76 Co60 2.057 . S
O76 C64 1.232 . S
H77 C96 0.929 1_545 S
H78 C97 0.929 . S
H79 C109 0.931 . S
H80 C101 0.929 . S
H81 C110 0.930 . S
H82 C102 0.931 . S
O83 Co59 2.097 . S
O83 C111 1.214 . S
H84 C112 0.929 . S
H85 C113 0.918 1_565 S
H86 C114 0.930 . S
H87 C115 0.929 . S
H88 C117 0.930 . S
H89 C94 0.930 . S
H90 C98 0.930 . S
O91 Co60 2.037 . S
O91 C111 1.234 . S
C92 O66 1.269 . S
C92 O67 1.257 . S
C93 H68 0.930 . S
C93 C96 1.388 . S
C93 C98 1.418 . S
C94 H89 0.930 . S
C94 C97 1.404 . S
C94 C98 1.353 . S
N95 Co60 2.145 1_565 S
N95 C96 1.397 . S
N95 C97 1.334 . S
C96 H77 0.929 1_565 S
C96 C93 1.388 . S
C96 N95 1.397 . S
C97 H78 0.929 . S
C97 C94 1.404 . S
C97 N95 1.334 . S
C98 H90 0.930 . S
C98 C93 1.418 . S
C98 C94 1.353 . S
C99 H69 0.930 . S
C99 N100 1.330 . S
C99 C101 1.446 . S
N100 Co59 2.151 . S
N100 C99 1.330 . S
N100 C104 1.418 . S
C101 H80 0.929 . S
C101 C99 1.446 . S
C101 C102 1.332 . S
C102 H82 0.931 . S
C102 C101 1.332 . S
C102 C103 1.267 . S
C103 H71 0.929 . S
C103 C102 1.267 . S
C103 C104 1.251 . S
C104 H74 0.929 . S
C104 N100 1.418 . S
C104 C103 1.251 . S
C105 H72 0.930 . S
C105 C107 1.406 . S
C105 C110 1.261 . S
C106 H73 0.930 . S
C106 N108 1.325 . S
C106 C109 1.357 . S
C107 H75 0.928 . S
C107 C105 1.406 . S
C107 N108 1.261 . S
N108 Co59 2.214 . S
N108 C106 1.325 . S
N108 C107 1.261 . S
C109 H79 0.931 . S
C109 C106 1.357 . S
C109 C110 1.312 . S
C110 H81 0.930 . S
C110 C105 1.261 . S
C110 C109 1.312 . S
C111 O83 1.214 . S
C111 O91 1.234 . S
C112 H84 0.929 . S
C112 C115 1.391 1_545 S
C112 C117 1.391 . S
C113 H85 0.918 1_545 S
C113 C114 1.395 1_545 S
C113 N116 1.398 . S
C114 H86 0.930 . S
C114 C113 1.395 1_565 S
C114 C115 1.392 . S
C115 H87 0.929 . S
C115 C112 1.391 1_565 S
C115 C114 1.392 . S
N116 Co60 2.257 . S
N116 C113 1.398 . S
N116 C117 1.388 . S
C117 H88 0.930 . S
C117 C112 1.391 . S
C117 N116 1.388 . S
Co118 O120 2.143 1_554 S
Co118 O126 2.074 . S
Co118 O129 2.093 1_554 S
Co118 O142 2.097 1_554 S
Co118 N159 2.151 . S
Co118 N167 2.214 . S
Co119 O120 2.160 1_554 S
Co119 O125 2.058 . S
Co119 O135 2.057 . S
Co119 O150 2.037 . S
Co119 N154 2.145 . S
Co119 N175 2.257 1_554 S
O120 Co118 2.143 1_556 S
O120 Co119 2.160 1_556 S
C121 O122 1.278 . S
C121 O129 1.224 . S
O122 C121 1.278 . S
C123 O124 1.245 . S
C123 O135 1.232 1_556 S
O124 C123 1.245 . S
O125 Co119 2.058 . S
O125 C151 1.269 . S
O126 Co118 2.074 . S
O126 C151 1.257 . S
H127 C152 0.930 . S
H128 C158 0.930 . S
O129 Co118 2.093 1_556 S
O129 C121 1.224 . S
H130 C162 0.929 . S
H131 C164 0.930 . S
H132 C165 0.930 . S
H133 C163 0.929 . S
H134 C166 0.928 1_556 S
O135 Co119 2.057 . S
O135 C123 1.232 1_554 S
H136 C155 0.929 . S
H137 C156 0.929 . S
H138 C168 0.931 . S
H139 C160 0.929 1_556 S
H140 C169 0.930 . S
H141 C161 0.931 . S
O142 Co118 2.097 1_556 S
O142 C170 1.215 . S
H143 C171 0.929 . S
H144 C172 0.929 . S
H145 C173 0.930 . S
H146 C174 0.929 . S
H147 C176 0.930 . S
H148 C153 0.930 . S
H149 C157 0.930 . S
O150 Co119 2.037 . S
O150 C170 1.233 1_554 S
C151 O125 1.269 . S
C151 O126 1.257 . S
C152 H127 0.930 . S
C152 C155 1.388 . S
C152 C157 1.418 . S
C153 H148 0.930 . S
C153 C156 1.404 . S
C153 C157 1.353 . S
N154 Co119 2.145 . S
N154 C155 1.397 . S
N154 C156 1.334 . S
C155 H136 0.929 . S
C155 C152 1.388 . S
C155 N154 1.397 . S
C156 H137 0.929 . S
C156 C153 1.404 . S
C156 N154 1.334 . S
C157 H149 0.930 . S
C157 C152 1.418 . S
C157 C153 1.353 . S
C158 H128 0.930 . S
C158 N159 1.330 1_556 S
C158 C160 1.446 1_556 S
N159 Co118 2.151 . S
N159 C158 1.330 1_554 S
N159 C163 1.418 . S
C160 H139 0.929 1_554 S
C160 C158 1.446 1_554 S
C160 C161 1.332 . S
C161 H141 0.931 . S
C161 C160 1.332 . S
C161 C162 1.267 . S
C162 H130 0.929 . S
C162 C161 1.267 . S
C162 C163 1.251 . S
C163 H133 0.929 . S
C163 N159 1.418 . S
C163 C162 1.251 . S
C164 H131 0.930 . S
C164 C166 1.406 . S
C164 C169 1.261 . S
C165 H132 0.930 . S
C165 N167 1.325 . S
C165 C168 1.357 . S
C166 H134 0.928 1_554 S
C166 C164 1.406 . S
C166 N167 1.261 . S
N167 Co118 2.214 . S
N167 C165 1.325 . S
N167 C166 1.261 . S
C168 H138 0.931 . S
C168 C165 1.357 . S
C168 C169 1.312 . S
C169 H140 0.930 . S
C169 C164 1.261 . S
C169 C168 1.312 . S
C170 O142 1.215 . S
C170 O150 1.233 1_556 S
C171 H143 0.929 . S
C171 C174 1.391 . S
C171 C176 1.391 . S
C172 H144 0.929 . S
C172 C173 1.390 . S
C172 N175 1.391 . S
C173 H145 0.930 . S
C173 C172 1.390 . S
C173 C174 1.392 . S
C174 H146 0.929 . S
C174 C171 1.391 . S
C174 C173 1.392 . S
N175 Co119 2.257 1_556 S
N175 C172 1.391 . S
N175 C176 1.388 . S
C176 H147 0.930 . S
C176 C171 1.391 . S
C176 N175 1.388 . S
Co177 O179 2.143 . S
Co177 O185 2.074 . S
Co177 O188 2.093 . S
Co177 O201 2.097 . S
Co177 N218 2.151 . S
Co177 N226 2.214 . S
Co178 O179 2.160 . S
Co178 O184 2.058 . S
Co178 O194 2.057 . S
Co178 O209 2.037 . S
Co178 N213 2.145 1_655 S
Co178 N234 2.257 . S
O179 Co177 2.143 . S
O179 Co178 2.160 . S
C180 O181 1.278 . S
C180 O188 1.224 . S
O181 C180 1.278 . S
C182 O183 1.245 . S
C182 O194 1.232 . S
O183 C182 1.245 . S
O184 Co178 2.058 . S
O184 C210 1.269 . S
O185 Co177 2.074 . S
O185 C210 1.257 . S
H186 C211 0.930 . S
H187 C217 0.930 . S
O188 Co177 2.093 . S
O188 C180 1.224 . S
H189 C221 0.929 . S
H190 C223 0.930 . S
H191 C224 0.930 . S
H192 C222 0.929 . S
H193 C225 0.928 . S
O194 Co178 2.057 . S
O194 C182 1.232 . S
H195 C214 0.929 1_655 S
H196 C215 0.929 . S
H197 C227 0.931 . S
H198 C219 0.929 . S
H199 C228 0.930 . S
H200 C220 0.931 . S
O201 Co177 2.097 . S
O201 C229 1.214 . S
H202 C230 0.929 . S
H203 C231 0.936 1_455 S
H204 C232 0.930 . S
H205 C233 0.929 . S
H206 C235 0.930 . S
H207 C212 0.930 . S
H208 C216 0.930 . S
O209 Co178 2.037 . S
O209 C229 1.234 . S
C210 O184 1.269 . S
C210 O185 1.257 . S
C211 H186 0.930 . S
C211 C214 1.388 . S
C211 C216 1.418 . S
C212 H207 0.930 . S
C212 C215 1.404 . S
C212 C216 1.353 . S
N213 Co178 2.145 1_455 S
N213 C214 1.397 . S
N213 C215 1.334 . S
C214 H195 0.929 1_455 S
C214 C211 1.388 . S
C214 N213 1.397 . S
C215 H196 0.929 . S
C215 C212 1.404 . S
C215 N213 1.334 . S
C216 H208 0.930 . S
C216 C211 1.418 . S
C216 C212 1.353 . S
C217 H187 0.930 . S
C217 N218 1.330 . S
C217 C219 1.446 . S
N218 Co177 2.151 . S
N218 C217 1.330 . S
N218 C222 1.418 . S
C219 H198 0.929 . S
C219 C217 1.446 . S
C219 C220 1.332 . S
C220 H200 0.931 . S
C220 C219 1.332 . S
C220 C221 1.267 . S
C221 H189 0.929 . S
C221 C220 1.267 . S
C221 C222 1.251 . S
C222 H192 0.929 . S
C222 N218 1.418 . S
C222 C221 1.251 . S
C223 H190 0.930 . S
C223 C225 1.406 . S
C223 C228 1.261 . S
C224 H191 0.930 . S
C224 N226 1.325 . S
C224 C227 1.357 . S
C225 H193 0.928 . S
C225 C223 1.406 . S
C225 N226 1.261 . S
N226 Co177 2.214 . S
N226 C224 1.325 . S
N226 C225 1.261 . S
C227 H197 0.931 . S
C227 C224 1.357 . S
C227 C228 1.312 . S
C228 H199 0.930 . S
C228 C223 1.261 . S
C228 C227 1.312 . S
C229 O201 1.214 . S
C229 O209 1.234 . S
C230 H202 0.929 . S
C230 C233 1.391 1_655 S
C230 C235 1.391 . S
C231 H203 0.936 1_655 S
C231 C232 1.390 1_655 S
C231 N234 1.391 . S
C232 H204 0.930 . S
C232 C231 1.390 1_455 S
C232 C233 1.392 . S
C233 H205 0.929 . S
C233 C230 1.391 1_455 S
C233 C232 1.392 . S
N234 Co178 2.257 . S
N234 C231 1.391 . S
N234 C235 1.388 . S
C235 H206 0.930 . S
C235 C230 1.391 . S
C235 N234 1.388 . S
Co236 O238 2.143 . S
Co236 O244 2.074 . S
Co236 O247 2.093 . S
Co236 O260 2.097 . S
Co236 N277 2.151 . S
Co236 N285 2.214 . S
Co237 O238 2.160 . S
Co237 O243 2.058 . S
Co237 O253 2.057 . S
Co237 O268 2.037 . S
Co237 N272 2.145 1_565 S
Co237 N293 2.257 . S
O238 Co236 2.143 . S
O238 Co237 2.160 . S
C239 O240 1.278 . S
C239 O247 1.224 . S
O240 C239 1.278 . S
C241 O242 1.245 . S
C241 O253 1.232 . S
O242 C241 1.245 . S
O243 Co237 2.058 . S
O243 C269 1.269 . S
O244 Co236 2.074 . S
O244 C269 1.257 . S
H245 C270 0.930 . S
H246 C276 0.930 . S
O247 Co236 2.093 . S
O247 C239 1.224 . S
H248 C280 0.929 . S
H249 C282 0.930 . S
H250 C283 0.930 . S
H251 C281 0.929 . S
H252 C284 0.928 . S
O253 Co237 2.057 . S
O253 C241 1.232 . S
H254 C273 0.929 1_565 S
H255 C274 0.929 . S
H256 C286 0.931 . S
H257 C278 0.929 . S
H258 C287 0.930 . S
H259 C279 0.931 . S
O260 Co236 2.097 . S
O260 C288 1.214 . S
H261 C289 0.929 . S
H262 C290 0.918 1_545 S
H263 C291 0.930 . S
H264 C292 0.929 . S
H265 C294 0.930 . S
H266 C271 0.930 . S
H267 C275 0.930 . S
O268 Co237 2.037 . S
O268 C288 1.234 . S
C269 O243 1.269 . S
C269 O244 1.257 . S
C270 H245 0.930 . S
C270 C273 1.388 . S
C270 C275 1.418 . S
C271 H266 0.930 . S
C271 C274 1.404 . S
C271 C275 1.353 . S
N272 Co237 2.145 1_545 S
N272 C273 1.397 . S
N272 C274 1.334 . S
C273 H254 0.929 1_545 S
C273 C270 1.388 . S
C273 N272 1.397 . S
C274 H255 0.929 . S
C274 C271 1.404 . S
C274 N272 1.334 . S
C275 H267 0.930 . S
C275 C270 1.418 . S
C275 C271 1.353 . S
C276 H246 0.930 . S
C276 N277 1.330 . S
C276 C278 1.446 . S
N277 Co236 2.151 . S
N277 C276 1.330 . S
N277 C281 1.418 . S
C278 H257 0.929 . S
C278 C276 1.446 . S
C278 C279 1.332 . S
C279 H259 0.931 . S
C279 C278 1.332 . S
C279 C280 1.267 . S
C280 H248 0.929 . S
C280 C279 1.267 . S
C280 C281 1.251 . S
C281 H251 0.929 . S
C281 N277 1.418 . S
C281 C280 1.251 . S
C282 H249 0.930 . S
C282 C284 1.406 . S
C282 C287 1.261 . S
C283 H250 0.930 . S
C283 N285 1.325 . S
C283 C286 1.357 . S
C284 H252 0.928 . S
C284 C282 1.406 . S
C284 N285 1.261 . S
N285 Co236 2.214 . S
N285 C283 1.325 . S
N285 C284 1.261 . S
C286 H256 0.931 . S
C286 C283 1.357 . S
C286 C287 1.312 . S
C287 H258 0.930 . S
C287 C282 1.261 . S
C287 C286 1.312 . S
C288 O260 1.214 . S
C288 O268 1.234 . S
C289 H261 0.929 . S
C289 C292 1.391 1_565 S
C289 C294 1.391 . S
C290 H262 0.918 1_565 S
C290 C291 1.395 1_565 S
C290 N293 1.398 . S
C291 H263 0.930 . S
C291 C290 1.395 1_545 S
C291 C292 1.392 . S
C292 H264 0.929 . S
C292 C289 1.391 1_545 S
C292 C291 1.392 . S
N293 Co237 2.257 . S
N293 C290 1.398 . S
N293 C294 1.388 . S
C294 H265 0.930 . S
C294 C289 1.391 . S
C294 N293 1.388 . S
Co295 O297 2.143 1_554 S
Co295 O303 2.074 . S
Co295 O306 2.093 1_554 S
Co295 O319 2.097 1_554 S
Co295 N336 2.151 . S
Co295 N344 2.214 . S
Co296 O297 2.160 1_554 S
Co296 O302 2.058 . S
Co296 O312 2.057 . S
Co296 O327 2.037 . S
Co296 N331 2.145 . S
Co296 N352 2.257 1_554 S
O297 Co295 2.143 1_556 S
O297 Co296 2.160 1_556 S
C298 O299 1.278 . S
C298 O306 1.224 . S
O299 C298 1.278 . S
C300 O301 1.245 . S
C300 O312 1.232 1_556 S
O301 C300 1.245 . S
O302 Co296 2.058 . S
O302 C328 1.269 . S
O303 Co295 2.074 . S
O303 C328 1.257 . S
H304 C329 0.930 . S
H305 C335 0.930 . S
O306 Co295 2.093 1_556 S
O306 C298 1.224 . S
H307 C339 0.929 . S
H308 C341 0.930 . S
H309 C342 0.930 . S
H310 C340 0.929 . S
H311 C343 0.928 1_556 S
O312 Co296 2.057 . S
O312 C300 1.232 1_554 S
H313 C332 0.929 . S
H314 C333 0.929 . S
H315 C345 0.931 . S
H316 C337 0.929 1_556 S
H317 C346 0.930 . S
H318 C338 0.931 . S
O319 Co295 2.097 1_556 S
O319 C347 1.215 . S
H320 C348 0.929 . S
H321 C349 0.929 . S
H322 C350 0.930 . S
H323 C351 0.929 . S
H324 C353 0.930 . S
H325 C330 0.930 . S
H326 C334 0.930 . S
O327 Co296 2.037 . S
O327 C347 1.233 1_554 S
C328 O302 1.269 . S
C328 O303 1.257 . S
C329 H304 0.930 . S
C329 C332 1.388 . S
C329 C334 1.418 . S
C330 H325 0.930 . S
C330 C333 1.404 . S
C330 C334 1.353 . S
N331 Co296 2.145 . S
N331 C332 1.397 . S
N331 C333 1.334 . S
C332 H313 0.929 . S
C332 C329 1.388 . S
C332 N331 1.397 . S
C333 H314 0.929 . S
C333 C330 1.404 . S
C333 N331 1.334 . S
C334 H326 0.930 . S
C334 C329 1.418 . S
C334 C330 1.353 . S
C335 H305 0.930 . S
C335 N336 1.330 1_556 S
C335 C337 1.446 1_556 S
N336 Co295 2.151 . S
N336 C335 1.330 1_554 S
N336 C340 1.418 . S
C337 H316 0.929 1_554 S
C337 C335 1.446 1_554 S
C337 C338 1.332 . S
C338 H318 0.931 . S
C338 C337 1.332 . S
C338 C339 1.267 . S
C339 H307 0.929 . S
C339 C338 1.267 . S
C339 C340 1.251 . S
C340 H310 0.929 . S
C340 N336 1.418 . S
C340 C339 1.251 . S
C341 H308 0.930 . S
C341 C343 1.406 . S
C341 C346 1.261 . S
C342 H309 0.930 . S
C342 N344 1.325 . S
C342 C345 1.357 . S
C343 H311 0.928 1_554 S
C343 C341 1.406 . S
C343 N344 1.261 . S
N344 Co295 2.214 . S
N344 C342 1.325 . S
N344 C343 1.261 . S
C345 H315 0.931 . S
C345 C342 1.357 . S
C345 C346 1.312 . S
C346 H317 0.930 . S
C346 C341 1.261 . S
C346 C345 1.312 . S
C347 O319 1.215 . S
C347 O327 1.233 1_556 S
C348 H320 0.929 . S
C348 C351 1.391 . S
C348 C353 1.391 . S
C349 H321 0.929 . S
C349 C350 1.390 . S
C349 N352 1.391 . S
C350 H322 0.930 . S
C350 C349 1.390 . S
C350 C351 1.392 . S
C351 H323 0.929 . S
C351 C348 1.391 . S
C351 C350 1.392 . S
N352 Co296 2.257 1_556 S
N352 C349 1.391 . S
N352 C353 1.388 . S
C353 H324 0.930 . S
C353 C348 1.391 . S
C353 N352 1.388 . S
Co354 O356 2.143 . S
Co354 O362 2.074 . S
Co354 O365 2.093 . S
Co354 O378 2.097 . S
Co354 N395 2.151 . S
Co354 N403 2.214 . S
Co355 O356 2.160 . S
Co355 O361 2.058 . S
Co355 O371 2.057 . S
Co355 O386 2.037 . S
Co355 N390 2.145 1_565 S
Co355 N411 2.257 . S
O356 Co354 2.143 . S
O356 Co355 2.160 . S
C357 O358 1.278 . S
C357 O365 1.224 . S
O358 C357 1.278 . S
C359 O360 1.245 . S
C359 O371 1.232 . S
O360 C359 1.245 . S
O361 Co355 2.058 . S
O361 C387 1.269 . S
O362 Co354 2.074 . S
O362 C387 1.257 . S
H363 C388 0.930 . S
H364 C394 0.930 . S
O365 Co354 2.093 . S
O365 C357 1.224 . S
H366 C398 0.929 . S
H367 C400 0.930 . S
H368 C401 0.930 . S
H369 C399 0.929 . S
H370 C402 0.928 . S
O371 Co355 2.057 . S
O371 C359 1.232 . S
H372 C391 0.929 1_565 S
H373 C392 0.929 . S
H374 C404 0.931 . S
H375 C396 0.929 . S
H376 C405 0.930 . S
H377 C397 0.931 . S
O378 Co354 2.097 . S
O378 C406 1.214 . S
H379 C407 0.929 . S
H380 C408 0.937 1_545 S
H381 C409 0.930 . S
H382 C410 0.929 . S
H383 C412 0.930 . S
H384 C389 0.930 . S
H385 C393 0.930 . S
O386 Co355 2.037 . S
O386 C406 1.234 . S
C387 O361 1.269 . S
C387 O362 1.257 . S
C388 H363 0.930 . S
C388 C391 1.388 . S
C388 C393 1.418 . S
C389 H384 0.930 . S
C389 C392 1.404 . S
C389 C393 1.353 . S
N390 Co355 2.145 1_545 S
N390 C391 1.397 . S
N390 C392 1.334 . S
C391 H372 0.929 1_545 S
C391 C388 1.388 . S
C391 N390 1.397 . S
C392 H373 0.929 . S
C392 C389 1.404 . S
C392 N390 1.334 . S
C393 H385 0.930 . S
C393 C388 1.418 . S
C393 C389 1.353 . S
C394 H364 0.930 . S
C394 N395 1.330 . S
C394 C396 1.446 . S
N395 Co354 2.151 . S
N395 C394 1.330 . S
N395 C399 1.418 . S
C396 H375 0.929 . S
C396 C394 1.446 . S
C396 C397 1.332 . S
C397 H377 0.931 . S
C397 C396 1.332 . S
C397 C398 1.267 . S
C398 H366 0.929 . S
C398 C397 1.267 . S
C398 C399 1.251 . S
C399 H369 0.929 . S
C399 N395 1.418 . S
C399 C398 1.251 . S
C400 H367 0.930 . S
C400 C402 1.406 . S
C400 C405 1.261 . S
C401 H368 0.930 . S
C401 N403 1.325 . S
C401 C404 1.357 . S
C402 H370 0.928 . S
C402 C400 1.406 . S
C402 N403 1.261 . S
N403 Co354 2.214 . S
N403 C401 1.325 . S
N403 C402 1.261 . S
C404 H374 0.931 . S
C404 C401 1.357 . S
C404 C405 1.312 . S
C405 H376 0.930 . S
C405 C400 1.261 . S
C405 C404 1.312 . S
C406 O378 1.214 . S
C406 O386 1.234 . S
C407 H379 0.929 . S
C407 C410 1.391 1_565 S
C407 C412 1.391 . S
C408 H380 0.937 1_565 S
C408 C409 1.372 1_565 S
C408 N411 1.401 . S
C409 H381 0.930 . S
C409 C408 1.372 1_545 S
C409 C410 1.392 . S
C410 H382 0.929 . S
C410 C407 1.391 1_545 S
C410 C409 1.392 . S
N411 Co355 2.257 . S
N411 C408 1.401 . S
N411 C412 1.388 . S
C412 H383 0.930 . S
C412 C407 1.391 . S
C412 N411 1.388 . S
Co413 O415 2.143 . S
Co413 O421 2.074 . S
Co413 O424 2.093 . S
Co413 O437 2.097 . S
Co413 N454 2.151 . S
Co413 N462 2.214 . S
Co414 O415 2.160 . S
Co414 O420 2.058 . S
Co414 O430 2.057 . S
Co414 O445 2.037 . S
Co414 N449 2.145 . S
Co414 N470 2.257 . S
O415 Co413 2.143 . S
O415 Co414 2.160 . S
C416 O417 1.278 . S
C416 O424 1.224 . S
O417 C416 1.278 . S
C418 O419 1.245 . S
C418 O430 1.232 . S
O419 C418 1.245 . S
O420 Co414 2.058 . S
O420 C446 1.269 . S
O421 Co413 2.074 . S
O421 C446 1.257 . S
H422 C447 0.930 . S
H423 C453 0.930 . S
O424 Co413 2.093 . S
O424 C416 1.224 . S
H425 C457 0.929 . S
H426 C459 0.930 . S
H427 C460 0.930 . S
H428 C458 0.929 . S
H429 C461 0.928 . S
O430 Co414 2.057 . S
O430 C418 1.232 . S
H431 C450 0.929 . S
H432 C451 0.929 . S
H433 C463 0.931 . S
H434 C455 0.929 . S
H435 C464 0.930 . S
H436 C456 0.931 . S
O437 Co413 2.097 . S
O437 C465 1.214 . S
H438 C466 0.929 . S
H439 C467 0.929 . S
H440 C468 0.930 . S
H441 C469 0.929 . S
H442 C471 0.930 . S
H443 C448 0.930 . S
H444 C452 0.930 . S
O445 Co414 2.037 . S
O445 C465 1.234 . S
C446 O420 1.269 . S
C446 O421 1.257 . S
C447 H422 0.930 . S
C447 C450 1.388 . S
C447 C452 1.418 . S
C448 H443 0.930 . S
C448 C451 1.404 . S
C448 C452 1.353 . S
N449 Co414 2.145 . S
N449 C450 1.397 . S
N449 C451 1.334 . S
C450 H431 0.929 . S
C450 C447 1.388 . S
C450 N449 1.397 . S
C451 H432 0.929 . S
C451 C448 1.404 . S
C451 N449 1.334 . S
C452 H444 0.930 . S
C452 C447 1.418 . S
C452 C448 1.353 . S
C453 H423 0.930 . S
C453 N454 1.330 . S
C453 C455 1.446 . S
N454 Co413 2.151 . S
N454 C453 1.330 . S
N454 C458 1.418 . S
C455 H434 0.929 . S
C455 C453 1.446 . S
C455 C456 1.332 . S
C456 H436 0.931 . S
C456 C455 1.332 . S
C456 C457 1.267 . S
C457 H425 0.929 . S
C457 C456 1.267 . S
C457 C458 1.251 . S
C458 H428 0.929 . S
C458 N454 1.418 . S
C458 C457 1.251 . S
C459 H426 0.930 . S
C459 C461 1.406 . S
C459 C464 1.261 . S
C460 H427 0.930 . S
C460 N462 1.325 . S
C460 C463 1.357 . S
C461 H429 0.928 . S
C461 C459 1.406 . S
C461 N462 1.261 . S
N462 Co413 2.214 . S
N462 C460 1.325 . S
N462 C461 1.261 . S
C463 H433 0.931 . S
C463 C460 1.357 . S
C463 C464 1.312 . S
C464 H435 0.930 . S
C464 C459 1.261 . S
C464 C463 1.312 . S
C465 O437 1.214 . S
C465 O445 1.234 . S
C466 H438 0.929 . S
C466 C469 1.391 . S
C466 C471 1.391 . S
C467 H439 0.929 . S
C467 C468 1.390 . S
C467 N470 1.391 . S
C468 H440 0.930 . S
C468 C467 1.390 . S
C468 C469 1.392 . S
C469 H441 0.929 . S
C469 C466 1.391 . S
C469 C468 1.392 . S
N470 Co414 2.257 . S
N470 C467 1.391 . S
N470 C471 1.388 . S
C471 H442 0.930 . S
C471 C466 1.391 . S
C471 N470 1.388 . S
Co472 O474 2.143 1_556 S
Co472 O480 2.074 . S
Co472 O483 2.093 1_556 S
Co472 O496 2.097 1_556 S
Co472 N513 2.151 . S
Co472 N521 2.214 1_455 S
Co473 O474 2.160 1_556 S
Co473 O479 2.058 . S
Co473 O489 2.057 . S
Co473 O504 2.037 . S
Co473 N508 2.145 . S
Co473 N529 2.257 1_556 S
O474 Co472 2.143 1_554 S
O474 Co473 2.160 1_554 S
C475 O476 1.278 . S
C475 O483 1.224 . S
O476 C475 1.278 . S
C477 O478 1.245 . S
C477 O489 1.232 1_554 S
O478 C477 1.245 . S
O479 Co473 2.058 . S
O479 C505 1.269 . S
O480 Co472 2.074 . S
O480 C505 1.257 . S
H481 C506 0.930 . S
H482 C512 0.930 . S
O483 Co472 2.093 1_554 S
O483 C475 1.224 . S
H484 C516 0.929 . S
H485 C518 0.930 . S
H486 C519 0.930 1_455 S
H487 C517 0.929 . S
H488 C520 0.928 1_554 S
O489 Co473 2.057 . S
O489 C477 1.232 1_556 S
H490 C509 0.929 . S
H491 C510 0.929 . S
H492 C522 0.931 . S
H493 C514 0.929 1_554 S
H494 C523 0.930 . S
H495 C515 0.931 . S
O496 Co472 2.097 1_554 S
O496 C524 1.215 . S
H497 C525 0.929 . S
H498 C526 0.929 . S
H499 C527 0.930 . S
H500 C528 0.929 . S
H501 C530 0.930 . S
H502 C507 0.930 . S
H503 C511 0.930 . S
O504 Co473 2.037 . S
O504 C524 1.233 1_556 S
C505 O479 1.269 . S
C505 O480 1.257 . S
C506 H481 0.930 . S
C506 C509 1.388 . S
C506 C511 1.418 . S
C507 H502 0.930 . S
C507 C510 1.404 . S
C507 C511 1.353 . S
N508 Co473 2.145 . S
N508 C509 1.397 . S
N508 C510 1.334 . S
C509 H490 0.929 . S
C509 C506 1.388 . S
C509 N508 1.397 . S
C510 H491 0.929 . S
C510 C507 1.404 . S
C510 N508 1.334 . S
C511 H503 0.930 . S
C511 C506 1.418 . S
C511 C507 1.353 . S
C512 H482 0.930 . S
C512 N513 1.330 1_554 S
C512 C514 1.446 1_454 S
N513 Co472 2.151 . S
N513 C512 1.330 1_556 S
N513 C517 1.418 1_455 S
C514 H493 0.929 1_556 S
C514 C512 1.446 1_656 S
C514 C515 1.332 . S
C515 H495 0.931 . S
C515 C514 1.332 . S
C515 C516 1.267 . S
C516 H484 0.929 . S
C516 C515 1.267 . S
C516 C517 1.251 . S
C517 H487 0.929 . S
C517 N513 1.418 1_655 S
C517 C516 1.251 . S
C518 H485 0.930 . S
C518 C520 1.406 . S
C518 C523 1.261 . S
C519 H486 0.930 1_655 S
C519 N521 1.325 . S
C519 C522 1.357 . S
C520 H488 0.928 1_556 S
C520 C518 1.406 . S
C520 N521 1.261 . S
N521 Co472 2.214 1_655 S
N521 C519 1.325 . S
N521 C520 1.261 . S
C522 H492 0.931 . S
C522 C519 1.357 . S
C522 C523 1.312 . S
C523 H494 0.930 . S
C523 C518 1.261 . S
C523 C522 1.312 . S
C524 O496 1.215 . S
C524 O504 1.233 1_554 S
C525 H497 0.929 . S
C525 C528 1.391 . S
C525 C530 1.391 . S
C526 H498 0.929 . S
C526 C527 1.390 . S
C526 N529 1.391 . S
C527 H499 0.930 . S
C527 C526 1.390 . S
C527 C528 1.392 . S
C528 H500 0.929 . S
C528 C525 1.391 . S
C528 C527 1.392 . S
N529 Co473 2.257 1_554 S
N529 C526 1.391 . S
N529 C530 1.388 . S
C530 H501 0.930 . S
C530 C525 1.391 . S
C530 N529 1.388 . S
Co531 O533 2.143 . S
Co531 O539 2.074 . S
Co531 O542 2.093 . S
Co531 O555 2.097 . S
Co531 N572 2.151 . S
Co531 N580 2.214 . S
Co532 O533 2.160 . S
Co532 O538 2.058 . S
Co532 O548 2.057 . S
Co532 O563 2.037 . S
Co532 N567 2.145 1_545 S
Co532 N588 2.257 . S
O533 Co531 2.143 . S
O533 Co532 2.160 . S
C534 O535 1.278 . S
C534 O542 1.224 . S
O535 C534 1.278 . S
C536 O537 1.245 . S
C536 O548 1.232 . S
O537 C536 1.245 . S
O538 Co532 2.058 . S
O538 C564 1.269 . S
O539 Co531 2.074 . S
O539 C564 1.257 . S
H540 C565 0.930 . S
H541 C571 0.930 . S
O542 Co531 2.093 . S
O542 C534 1.224 . S
H543 C575 0.929 . S
H544 C577 0.930 . S
H545 C578 0.930 . S
H546 C576 0.929 . S
H547 C579 0.928 . S
O548 Co532 2.057 . S
O548 C536 1.232 . S
H549 C568 0.929 1_545 S
H550 C569 0.929 . S
H551 C581 0.931 . S
H552 C573 0.929 . S
H553 C582 0.930 . S
H554 C574 0.931 . S
O555 Co531 2.097 . S
O555 C583 1.214 . S
H556 C584 0.929 . S
H557 C585 0.937 1_565 S
H558 C586 0.930 . S
H559 C587 0.929 . S
H560 C589 0.930 . S
H561 C566 0.930 . S
H562 C570 0.930 . S
O563 Co532 2.037 . S
O563 C583 1.234 . S
C564 O538 1.269 . S
C564 O539 1.257 . S
C565 H540 0.930 . S
C565 C568 1.388 . S
C565 C570 1.418 . S
C566 H561 0.930 . S
C566 C569 1.404 . S
C566 C570 1.353 . S
N567 Co532 2.145 1_565 S
N567 C568 1.397 . S
N567 C569 1.334 . S
C568 H549 0.929 1_565 S
C568 C565 1.388 . S
C568 N567 1.397 . S
C569 H550 0.929 . S
C569 C566 1.404 . S
C569 N567 1.334 . S
C570 H562 0.930 . S
C570 C565 1.418 . S
C570 C566 1.353 . S
C571 H541 0.930 . S
C571 N572 1.330 . S
C571 C573 1.446 . S
N572 Co531 2.151 . S
N572 C571 1.330 . S
N572 C576 1.418 . S
C573 H552 0.929 . S
C573 C571 1.446 . S
C573 C574 1.332 . S
C574 H554 0.931 . S
C574 C573 1.332 . S
C574 C575 1.267 . S
C575 H543 0.929 . S
C575 C574 1.267 . S
C575 C576 1.251 . S
C576 H546 0.929 . S
C576 N572 1.418 . S
C576 C575 1.251 . S
C577 H544 0.930 . S
C577 C579 1.406 . S
C577 C582 1.261 . S
C578 H545 0.930 . S
C578 N580 1.325 . S
C578 C581 1.357 . S
C579 H547 0.928 . S
C579 C577 1.406 . S
C579 N580 1.261 . S
N580 Co531 2.214 . S
N580 C578 1.325 . S
N580 C579 1.261 . S
C581 H551 0.931 . S
C581 C578 1.357 . S
C581 C582 1.312 . S
C582 H553 0.930 . S
C582 C577 1.261 . S
C582 C581 1.312 . S
C583 O555 1.214 . S
C583 O563 1.234 . S
C584 H556 0.929 . S
C584 C587 1.391 1_545 S
C584 C589 1.391 . S
C585 H557 0.937 1_545 S
C585 C586 1.372 1_545 S
C585 N588 1.401 . S
C586 H558 0.930 . S
C586 C585 1.372 1_565 S
C586 C587 1.392 . S
C587 H559 0.929 . S
C587 C584 1.391 1_565 S
C587 C586 1.392 . S
N588 Co532 2.257 . S
N588 C585 1.401 . S
N588 C589 1.388 . S
C589 H560 0.930 . S
C589 C584 1.391 . S
C589 N588 1.388 . S
Co590 O592 2.143 . S
Co590 O598 2.074 . S
Co590 O601 2.093 . S
Co590 O614 2.097 . S
Co590 N631 2.151 . S
Co590 N639 2.214 . S
Co591 O592 2.160 . S
Co591 O597 2.058 . S
Co591 O607 2.057 . S
Co591 O622 2.037 . S
Co591 N626 2.145 . S
Co591 N647 2.257 . S
O592 Co590 2.143 . S
O592 Co591 2.160 . S
C593 O594 1.278 . S
C593 O601 1.224 . S
O594 C593 1.278 . S
C595 O596 1.245 . S
C595 O607 1.232 . S
O596 C595 1.245 . S
O597 Co591 2.058 . S
O597 C623 1.269 . S
O598 Co590 2.074 . S
O598 C623 1.257 . S
H599 C624 0.930 . S
H600 C630 0.930 . S
O601 Co590 2.093 . S
O601 C593 1.224 . S
H602 C634 0.929 . S
H603 C636 0.930 . S
H604 C637 0.930 . S
H605 C635 0.929 . S
H606 C638 0.928 . S
O607 Co591 2.057 . S
O607 C595 1.232 . S
H608 C627 0.929 . S
H609 C628 0.929 . S
H610 C640 0.931 . S
H611 C632 0.929 . S
H612 C641 0.930 . S
H613 C633 0.931 . S
O614 Co590 2.097 . S
O614 C642 1.214 . S
H615 C643 0.929 . S
H616 C644 0.929 . S
H617 C645 0.930 . S
H618 C646 0.929 . S
H619 C648 0.930 . S
H620 C625 0.930 . S
H621 C629 0.930 . S
O622 Co591 2.037 . S
O622 C642 1.234 . S
C623 O597 1.269 . S
C623 O598 1.257 . S
C624 H599 0.930 . S
C624 C627 1.388 . S
C624 C629 1.418 . S
C625 H620 0.930 . S
C625 C628 1.404 . S
C625 C629 1.353 . S
N626 Co591 2.145 . S
N626 C627 1.397 . S
N626 C628 1.334 . S
C627 H608 0.929 . S
C627 C624 1.388 . S
C627 N626 1.397 . S
C628 H609 0.929 . S
C628 C625 1.404 . S
C628 N626 1.334 . S
C629 H621 0.930 . S
C629 C624 1.418 . S
C629 C625 1.353 . S
C630 H600 0.930 . S
C630 N631 1.330 . S
C630 C632 1.446 . S
N631 Co590 2.151 . S
N631 C630 1.330 . S
N631 C635 1.418 . S
C632 H611 0.929 . S
C632 C630 1.446 . S
C632 C633 1.332 . S
C633 H613 0.931 . S
C633 C632 1.332 . S
C633 C634 1.267 . S
C634 H602 0.929 . S
C634 C633 1.267 . S
C634 C635 1.251 . S
C635 H605 0.929 . S
C635 N631 1.418 . S
C635 C634 1.251 . S
C636 H603 0.930 . S
C636 C638 1.406 . S
C636 C641 1.261 . S
C637 H604 0.930 . S
C637 N639 1.325 . S
C637 C640 1.357 . S
C638 H606 0.928 . S
C638 C636 1.406 . S
C638 N639 1.261 . S
N639 Co590 2.214 . S
N639 C637 1.325 . S
N639 C638 1.261 . S
C640 H610 0.931 . S
C640 C637 1.357 . S
C640 C641 1.312 . S
C641 H612 0.930 . S
C641 C636 1.261 . S
C641 C640 1.312 . S
C642 O614 1.214 . S
C642 O622 1.234 . S
C643 H615 0.929 . S
C643 C646 1.391 . S
C643 C648 1.391 . S
C644 H616 0.929 . S
C644 C645 1.390 . S
C644 N647 1.391 . S
C645 H617 0.930 . S
C645 C644 1.390 . S
C645 C646 1.392 . S
C646 H618 0.929 . S
C646 C643 1.391 . S
C646 C645 1.392 . S
N647 Co591 2.257 . S
N647 C644 1.391 . S
N647 C648 1.388 . S
C648 H619 0.930 . S
C648 C643 1.391 . S
C648 N647 1.388 . S
Co649 O651 2.143 1_556 S
Co649 O657 2.074 . S
Co649 O660 2.093 1_556 S
Co649 O673 2.097 1_556 S
Co649 N690 2.151 . S
Co649 N698 2.214 1_655 S
Co650 O651 2.160 1_556 S
Co650 O656 2.058 . S
Co650 O666 2.057 . S
Co650 O681 2.037 . S
Co650 N685 2.145 . S
Co650 N706 2.257 1_556 S
O651 Co649 2.143 1_554 S
O651 Co650 2.160 1_554 S
C652 O653 1.278 . S
C652 O660 1.224 . S
O653 C652 1.278 . S
C654 O655 1.245 . S
C654 O666 1.232 1_554 S
O655 C654 1.245 . S
O656 Co650 2.058 . S
O656 C682 1.269 . S
O657 Co649 2.074 . S
O657 C682 1.257 . S
H658 C683 0.930 . S
H659 C689 0.930 . S
O660 Co649 2.093 1_554 S
O660 C652 1.224 . S
H661 C693 0.929 . S
H662 C695 0.930 . S
H663 C696 0.930 1_655 S
H664 C694 0.929 . S
H665 C697 0.928 1_554 S
O666 Co650 2.057 . S
O666 C654 1.232 1_556 S
H667 C686 0.929 . S
H668 C687 0.929 . S
H669 C699 0.931 . S
H670 C691 0.929 1_554 S
H671 C700 0.930 . S
H672 C692 0.931 . S
O673 Co649 2.097 1_554 S
O673 C701 1.215 . S
H674 C702 0.929 . S
H675 C703 0.929 . S
H676 C704 0.930 . S
H677 C705 0.929 . S
H678 C707 0.930 . S
H679 C684 0.930 . S
H680 C688 0.930 . S
O681 Co650 2.037 . S
O681 C701 1.233 1_556 S
C682 O656 1.269 . S
C682 O657 1.257 . S
C683 H658 0.930 . S
C683 C686 1.388 . S
C683 C688 1.418 . S
C684 H679 0.930 . S
C684 C687 1.404 . S
C684 C688 1.353 . S
N685 Co650 2.145 . S
N685 C686 1.397 . S
N685 C687 1.334 . S
C686 H667 0.929 . S
C686 C683 1.388 . S
C686 N685 1.397 . S
C687 H668 0.929 . S
C687 C684 1.404 . S
C687 N685 1.334 . S
C688 H680 0.930 . S
C688 C683 1.418 . S
C688 C684 1.353 . S
C689 H659 0.930 . S
C689 N690 1.330 1_554 S
C689 C691 1.446 1_654 S
N690 Co649 2.151 . S
N690 C689 1.330 1_556 S
N690 C694 1.418 1_655 S
C691 H670 0.929 1_556 S
C691 C689 1.446 1_456 S
C691 C692 1.332 . S
C692 H672 0.931 . S
C692 C691 1.332 . S
C692 C693 1.267 . S
C693 H661 0.929 . S
C693 C692 1.267 . S
C693 C694 1.251 . S
C694 H664 0.929 . S
C694 N690 1.418 1_455 S
C694 C693 1.251 . S
C695 H662 0.930 . S
C695 C697 1.406 . S
C695 C700 1.261 . S
C696 H663 0.930 1_455 S
C696 N698 1.325 . S
C696 C699 1.357 . S
C697 H665 0.928 1_556 S
C697 C695 1.406 . S
C697 N698 1.261 . S
N698 Co649 2.214 1_455 S
N698 C696 1.325 . S
N698 C697 1.261 . S
C699 H669 0.931 . S
C699 C696 1.357 . S
C699 C700 1.312 . S
C700 H671 0.930 . S
C700 C695 1.261 . S
C700 C699 1.312 . S
C701 O673 1.215 . S
C701 O681 1.233 1_554 S
C702 H674 0.929 . S
C702 C705 1.391 . S
C702 C707 1.391 . S
C703 H675 0.929 . S
C703 C704 1.390 . S
C703 N706 1.391 . S
C704 H676 0.930 . S
C704 C703 1.390 . S
C704 C705 1.392 . S
C705 H677 0.929 . S
C705 C702 1.391 . S
C705 C704 1.392 . S
N706 Co650 2.257 1_554 S
N706 C703 1.391 . S
N706 C707 1.388 . S
C707 H678 0.930 . S
C707 C702 1.391 . S
C707 N706 1.388 . S
H708 C714 0.930 . S
H709 C717 0.930 . S
H710 C718 0.930 . S
H711 C719 0.930 . S
H712 C722 0.930 . S
H713 C723 0.930 . S
C714 H708 0.930 . S
C714 C715 1.355 . S
C714 C716 1.415 . S
C715 C714 1.355 . S
C715 C717 1.419 . S
C716 C714 1.415 . S
C716 C721 1.425 . S
C716 C723 1.409 . S
C717 H709 0.930 . S
C717 C715 1.419 . S
C717 C718 1.362 . S
C718 H710 0.930 . S
C718 C717 1.362 . S
C718 C721 1.409 . S
C719 H711 0.930 . S
C719 C720 1.355 . S
C719 C721 1.415 . S
C720 C719 1.355 . S
C720 C722 1.419 . S
C721 C716 1.425 . S
C721 C718 1.409 . S
C721 C719 1.415 . S
C722 H712 0.930 . S
C722 C720 1.419 . S
C722 C723 1.362 . S
C723 H713 0.930 . S
C723 C716 1.409 . S
C723 C722 1.362 . S
H724 C730 0.930 . S
H725 C733 0.930 . S
H726 C734 0.930 . S
H727 C735 0.930 . S
H728 C738 0.930 . S
H729 C739 0.930 . S
C730 H724 0.930 . S
C730 C731 1.355 . S
C730 C732 1.415 . S
C731 C730 1.355 . S
C731 C733 1.419 . S
C732 C730 1.415 . S
C732 C737 1.425 . S
C732 C739 1.409 . S
C733 H725 0.930 . S
C733 C731 1.419 . S
C733 C734 1.362 . S
C734 H726 0.930 . S
C734 C733 1.362 . S
C734 C737 1.409 . S
C735 H727 0.930 . S
C735 C736 1.355 . S
C735 C737 1.415 . S
C736 C735 1.355 . S
C736 C738 1.419 . S
C737 C732 1.425 . S
C737 C734 1.409 . S
C737 C735 1.415 . S
C738 H728 0.930 . S
C738 C736 1.419 . S
C738 C739 1.362 . S
C739 H729 0.930 . S
C739 C732 1.409 . S
C739 C738 1.362 . S
H740 C746 0.930 . S
H741 C749 0.930 . S
H742 C750 0.930 . S
H743 C751 0.930 . S
H744 C754 0.930 . S
H745 C755 0.930 . S
C746 H740 0.930 . S
C746 C747 1.355 1_554 S
C746 C748 1.415 . S
C747 C746 1.355 1_556 S
C747 C749 1.419 . S
C748 C746 1.415 . S
C748 C753 1.425 1_554 S
C748 C755 1.409 . S
C749 H741 0.930 . S
C749 C747 1.419 . S
C749 C750 1.362 . S
C750 H742 0.930 . S
C750 C749 1.362 . S
C750 C753 1.409 . S
C751 H743 0.930 . S
C751 C752 1.355 1_556 S
C751 C753 1.415 . S
C752 C751 1.355 1_554 S
C752 C754 1.419 . S
C753 C748 1.425 1_556 S
C753 C750 1.409 . S
C753 C751 1.415 . S
C754 H744 0.930 . S
C754 C752 1.419 . S
C754 C755 1.362 . S
C755 H745 0.930 . S
C755 C748 1.409 . S
C755 C754 1.362 . S
H756 C762 0.930 . S
H757 C765 0.930 . S
H758 C766 0.930 . S
H759 C767 0.930 . S
H760 C770 0.930 . S
H761 C771 0.930 . S
C762 H756 0.930 . S
C762 C763 1.355 . S
C762 C764 1.415 . S
C763 C762 1.355 . S
C763 C765 1.419 . S
C764 C762 1.415 . S
C764 C769 1.425 . S
C764 C771 1.409 . S
C765 H757 0.930 . S
C765 C763 1.419 . S
C765 C766 1.362 . S
C766 H758 0.930 . S
C766 C765 1.362 . S
C766 C769 1.409 . S
C767 H759 0.930 . S
C767 C768 1.355 . S
C767 C769 1.415 . S
C768 C767 1.355 . S
C768 C770 1.419 . S
C769 C764 1.425 . S
C769 C766 1.409 . S
C769 C767 1.415 . S
C770 H760 0.930 . S
C770 C768 1.419 . S
C770 C771 1.362 . S
C771 H761 0.930 . S
C771 C764 1.409 . S
C771 C770 1.362 . S
H772 C778 0.930 . S
H773 C781 0.930 . S
H774 C782 0.930 . S
H775 C783 0.930 . S
H776 C786 0.930 . S
H777 C787 0.930 . S
C778 H772 0.930 . S
C778 C779 1.355 . S
C778 C780 1.415 . S
C779 C778 1.355 . S
C779 C781 1.419 . S
C780 C778 1.415 . S
C780 C785 1.425 . S
C780 C787 1.409 . S
C781 H773 0.930 . S
C781 C779 1.419 . S
C781 C782 1.362 . S
C782 H774 0.930 . S
C782 C781 1.362 . S
C782 C785 1.409 . S
C783 H775 0.930 . S
C783 C784 1.355 . S
C783 C785 1.415 . S
C784 C783 1.355 . S
C784 C786 1.419 . S
C785 C780 1.425 . S
C785 C782 1.409 . S
C785 C783 1.415 . S
C786 H776 0.930 . S
C786 C784 1.419 . S
C786 C787 1.362 . S
C787 H777 0.930 . S
C787 C780 1.409 . S
C787 C786 1.362 . S
H788 C794 0.930 . S
H789 C797 0.930 . S
H790 C798 0.930 . S
H791 C799 0.930 . S
H792 C802 0.930 . S
H793 C803 0.930 . S
C794 H788 0.930 . S
C794 C795 1.355 1_556 S
C794 C796 1.415 . S
C795 C794 1.355 1_554 S
C795 C797 1.419 . S
C796 C794 1.415 . S
C796 C801 1.425 1_556 S
C796 C803 1.409 . S
C797 H789 0.930 . S
C797 C795 1.419 . S
C797 C798 1.362 . S
C798 H790 0.930 . S
C798 C797 1.362 . S
C798 C801 1.409 . S
C799 H791 0.930 . S
C799 C800 1.355 1_554 S
C799 C801 1.415 . S
C800 C799 1.355 1_556 S
C800 C802 1.419 . S
C801 C796 1.425 1_554 S
C801 C798 1.409 . S
C801 C799 1.415 . S
C802 H792 0.930 . S
C802 C800 1.419 . S
C802 C803 1.362 . S
C803 H793 0.930 . S
C803 C796 1.409 . S
C803 C802 1.362 . S
H804 C810 0.930 . S
H805 C813 0.930 . S
H806 C814 0.930 . S
H807 C815 0.930 . S
H808 C818 0.930 . S
H809 C819 0.930 . S
C810 H804 0.930 . S
C810 C811 1.355 . S
C810 C812 1.415 . S
C811 C810 1.355 . S
C811 C813 1.419 . S
C812 C810 1.415 . S
C812 C817 1.425 . S
C812 C819 1.409 . S
C813 H805 0.930 . S
C813 C811 1.419 . S
C813 C814 1.362 . S
C814 H806 0.930 . S
C814 C813 1.362 . S
C814 C817 1.409 . S
C815 H807 0.930 . S
C815 C816 1.355 . S
C815 C817 1.415 . S
C816 C815 1.355 . S
C816 C818 1.419 . S
C817 C812 1.425 . S
C817 C814 1.409 . S
C817 C815 1.415 . S
C818 H808 0.930 . S
C818 C816 1.419 . S
C818 C819 1.362 . S
C819 H809 0.930 . S
C819 C812 1.409 . S
C819 C818 1.362 . S
H820 C826 0.930 . S
H821 C829 0.930 . S
H822 C830 0.930 . S
H823 C831 0.930 . S
H824 C834 0.930 . S
H825 C835 0.930 . S
C826 H820 0.930 . S
C826 C827 1.355 . S
C826 C828 1.415 . S
C827 C826 1.355 . S
C827 C829 1.419 . S
C828 C826 1.415 . S
C828 C833 1.425 1_655 S
C828 C835 1.409 1_655 S
C829 H821 0.930 . S
C829 C827 1.419 . S
C829 C830 1.362 . S
C830 H822 0.930 . S
C830 C829 1.362 . S
C830 C833 1.409 1_655 S
C831 H823 0.930 . S
C831 C832 1.355 . S
C831 C833 1.415 . S
C832 C831 1.355 . S
C832 C834 1.419 . S
C833 C828 1.425 1_455 S
C833 C830 1.409 1_455 S
C833 C831 1.415 . S
C834 H824 0.930 . S
C834 C832 1.419 . S
C834 C835 1.362 . S
C835 H825 0.930 . S
C835 C828 1.409 1_455 S
C835 C834 1.362 . S
H836 C842 0.930 . S
H837 C845 0.930 . S
H838 C846 0.930 . S
H839 C847 0.930 . S
H840 C850 0.930 . S
H841 C851 0.930 . S
C842 H836 0.930 . S
C842 C843 1.355 1_556 S
C842 C844 1.415 . S
C843 C842 1.355 1_554 S
C843 C845 1.419 . S
C844 C842 1.415 . S
C844 C849 1.425 1_546 S
C844 C851 1.409 1_545 S
C845 H837 0.930 . S
C845 C843 1.419 . S
C845 C846 1.362 . S
C846 H838 0.930 . S
C846 C845 1.362 . S
C846 C849 1.409 1_545 S
C847 H839 0.930 . S
C847 C848 1.355 1_554 S
C847 C849 1.415 . S
C848 C847 1.355 1_556 S
C848 C850 1.419 . S
C849 C844 1.425 1_564 S
C849 C846 1.409 1_565 S
C849 C847 1.415 . S
C850 H840 0.930 . S
C850 C848 1.419 . S
C850 C851 1.362 . S
C851 H841 0.930 . S
C851 C844 1.409 1_565 S
C851 C850 1.362 . S
H852 C858 0.930 . S
H853 C861 0.930 . S
H854 C862 0.930 . S
H855 C863 0.930 . S
H856 C866 0.930 . S
H857 C867 0.930 . S
C858 H852 0.930 . S
C858 C859 1.355 . S
C858 C860 1.415 . S
C859 C858 1.355 . S
C859 C861 1.419 . S
C860 C858 1.415 . S
C860 C865 1.425 . S
C860 C867 1.409 . S
C861 H853 0.930 . S
C861 C859 1.419 . S
C861 C862 1.362 . S
C862 H854 0.930 . S
C862 C861 1.362 . S
C862 C865 1.409 . S
C863 H855 0.930 . S
C863 C864 1.355 . S
C863 C865 1.415 . S
C864 C863 1.355 . S
C864 C866 1.419 . S
C865 C860 1.425 . S
C865 C862 1.409 . S
C865 C863 1.415 . S
C866 H856 0.930 . S
C866 C864 1.419 . S
C866 C867 1.362 . S
C867 H857 0.930 . S
C867 C860 1.409 . S
C867 C866 1.362 . S
H868 C874 0.930 . S
H869 C877 0.930 . S
H870 C878 0.930 . S
H871 C879 0.930 . S
H872 C882 0.930 . S
H873 C883 0.930 . S
C874 H868 0.930 . S
C874 C875 1.355 . S
C874 C876 1.420 . S
C875 C874 1.355 . S
C875 C877 1.419 . S
C876 C874 1.420 . S
C876 C881 1.425 1_455 S
C876 C883 1.404 1_455 S
C877 H869 0.930 . S
C877 C875 1.419 . S
C877 C878 1.362 . S
C878 H870 0.930 . S
C878 C877 1.362 . S
C878 C881 1.409 1_455 S
C879 H871 0.930 . S
C879 C880 1.355 . S
C879 C881 1.415 . S
C880 C879 1.355 . S
C880 C882 1.419 . S
C881 C876 1.425 1_655 S
C881 C878 1.409 1_655 S
C881 C879 1.415 . S
C882 H872 0.930 . S
C882 C880 1.419 . S
C882 C883 1.362 . S
C883 H873 0.930 . S
C883 C876 1.404 1_655 S
C883 C882 1.362 . S
H884 C890 0.930 . S
H885 C893 0.930 . S
H886 C894 0.930 . S
H887 C895 0.930 . S
H888 C898 0.930 . S
H889 C899 0.930 . S
C890 H884 0.930 . S
C890 C891 1.355 1_556 S
C890 C892 1.415 . S
C891 C890 1.355 1_554 S
C891 C893 1.419 . S
C892 C890 1.415 . S
C892 C897 1.425 1_546 S
C892 C899 1.409 1_545 S
C893 H885 0.930 . S
C893 C891 1.419 . S
C893 C894 1.362 . S
C894 H886 0.930 . S
C894 C893 1.362 . S
C894 C897 1.409 1_545 S
C895 H887 0.930 . S
C895 C896 1.355 1_554 S
C895 C897 1.415 . S
C896 C895 1.355 1_556 S
C896 C898 1.419 . S
C897 C892 1.425 1_564 S
C897 C894 1.409 1_565 S
C897 C895 1.415 . S
C898 H888 0.930 . S
C898 C896 1.419 . S
C898 C899 1.362 . S
C899 H889 0.930 . S
C899 C892 1.409 1_565 S
C899 C898 1.362 . S
H900 C906 0.930 . S
H901 C909 0.930 . S
H902 C910 0.930 . S
H903 C911 0.930 . S
H904 C914 0.930 . S
H905 C915 0.930 . S
C906 H900 0.930 . S
C906 C907 1.355 . S
C906 C908 1.415 . S
C907 C906 1.355 . S
C907 C909 1.419 1_655 S
C908 C906 1.415 . S
C908 C913 1.425 1_655 S
C908 C915 1.409 . S
C909 H901 0.930 . S
C909 C907 1.419 1_455 S
C909 C910 1.362 . S
C910 H902 0.930 . S
C910 C909 1.362 . S
C910 C913 1.409 . S
C911 H903 0.930 . S
C911 C912 1.355 . S
C911 C913 1.415 . S
C912 C911 1.355 . S
C912 C914 1.419 1_455 S
C913 C908 1.425 1_455 S
C913 C910 1.409 . S
C913 C911 1.415 . S
C914 H904 0.930 . S
C914 C912 1.419 1_655 S
C914 C915 1.362 . S
C915 H905 0.930 . S
C915 C908 1.409 . S
C915 C914 1.362 . S
H916 C922 0.930 . S
H917 C925 0.930 . S
H918 C926 0.930 . S
H919 C927 0.930 . S
H920 C930 0.930 . S
H921 C931 0.930 . S
C922 H916 0.930 . S
C922 C923 1.355 1_565 S
C922 C924 1.415 . S
C923 C922 1.355 1_545 S
C923 C925 1.419 . S
C924 C922 1.415 . S
C924 C929 1.425 1_565 S
C924 C931 1.409 . S
C925 H917 0.930 . S
C925 C923 1.419 . S
C925 C926 1.362 . S
C926 H918 0.930 . S
C926 C925 1.362 . S
C926 C929 1.409 . S
C927 H919 0.930 . S
C927 C928 1.355 1_545 S
C927 C929 1.415 . S
C928 C927 1.355 1_565 S
C928 C930 1.419 . S
C929 C924 1.425 1_545 S
C929 C926 1.409 . S
C929 C927 1.415 . S
C930 H920 0.930 . S
C930 C928 1.419 . S
C930 C931 1.362 . S
C931 H921 0.930 . S
C931 C924 1.409 . S
C931 C930 1.362 . S
H932 C938 0.930 . S
H933 C941 0.930 . S
H934 C942 0.930 . S
H935 C943 0.930 . S
H936 C946 0.930 . S
H937 C947 0.930 . S
C938 H932 0.930 . S
C938 C939 1.355 . S
C938 C940 1.415 . S
C939 C938 1.355 . S
C939 C941 1.419 . S
C940 C938 1.415 . S
C940 C945 1.425 . S
C940 C947 1.409 . S
C941 H933 0.930 . S
C941 C939 1.419 . S
C941 C942 1.362 . S
C942 H934 0.930 . S
C942 C941 1.362 . S
C942 C945 1.409 . S
C943 H935 0.930 . S
C943 C944 1.355 . S
C943 C945 1.415 . S
C944 C943 1.355 . S
C944 C946 1.419 . S
C945 C940 1.425 . S
C945 C942 1.409 . S
C945 C943 1.415 . S
C946 H936 0.930 . S
C946 C944 1.419 . S
C946 C947 1.362 . S
C947 H937 0.930 . S
C947 C940 1.409 . S
C947 C946 1.362 . S
H948 C954 0.930 . S
H949 C957 0.930 . S
H950 C958 0.930 . S
H951 C959 0.930 . S
H952 C962 0.930 . S
H953 C963 0.930 . S
C954 H948 0.930 . S
C954 C955 1.355 1_655 S
C954 C956 1.415 . S
C955 C954 1.355 1_455 S
C955 C957 1.419 . S
C956 C954 1.415 . S
C956 C961 1.425 1_655 S
C956 C963 1.409 . S
C957 H949 0.930 . S
C957 C955 1.419 . S
C957 C958 1.362 . S
C958 H950 0.930 . S
C958 C957 1.362 . S
C958 C961 1.409 . S
C959 H951 0.930 . S
C959 C960 1.355 1_455 S
C959 C961 1.415 . S
C960 C959 1.355 1_655 S
C960 C962 1.419 . S
C961 C956 1.425 1_455 S
C961 C958 1.409 . S
C961 C959 1.415 . S
C962 H952 0.930 . S
C962 C960 1.419 . S
C962 C963 1.362 . S
C963 H953 0.930 . S
C963 C956 1.409 . S
C963 C962 1.362 . S
H964 C970 0.930 . S
H965 C973 0.930 . S
H966 C974 0.930 . S
H967 C975 0.930 . S
H968 C978 0.930 . S
H969 C979 0.930 . S
C970 H964 0.930 . S
C970 C971 1.355 . S
C970 C972 1.415 . S
C971 C970 1.355 . S
C971 C973 1.419 1_545 S
C972 C970 1.415 . S
C972 C977 1.425 1_545 S
C972 C979 1.409 . S
C973 H965 0.930 . S
C973 C971 1.419 1_565 S
C973 C974 1.362 . S
C974 H966 0.930 . S
C974 C973 1.362 . S
C974 C977 1.409 . S
C975 H967 0.930 . S
C975 C976 1.355 . S
C975 C977 1.415 . S
C976 C975 1.355 . S
C976 C978 1.419 1_565 S
C977 C972 1.425 1_565 S
C977 C974 1.409 . S
C977 C975 1.415 . S
C978 H968 0.930 . S
C978 C976 1.419 1_545 S
C978 C979 1.362 . S
C979 H969 0.930 . S
C979 C972 1.409 . S
C979 C978 1.362 . S
H980 C986 0.930 . S
H981 C989 0.930 . S
H982 C990 0.930 . S
H983 C991 0.930 . S
H984 C994 0.930 . S
H985 C995 0.930 . S
C986 H980 0.930 . S
C986 C987 1.355 . S
C986 C988 1.415 . S
C987 C986 1.355 . S
C987 C989 1.419 . S
C988 C986 1.415 . S
C988 C993 1.425 . S
C988 C995 1.409 . S
C989 H981 0.930 . S
C989 C987 1.419 . S
C989 C990 1.362 . S
C990 H982 0.930 . S
C990 C989 1.362 . S
C990 C993 1.409 . S
C991 H983 0.930 . S
C991 C992 1.355 . S
C991 C993 1.415 . S
C992 C991 1.355 . S
C992 C994 1.419 . S
C993 C988 1.425 . S
C993 C990 1.409 . S
C993 C991 1.415 . S
C994 H984 0.930 . S
C994 C992 1.419 . S
C994 C995 1.362 . S
C995 H985 0.930 . S
C995 C988 1.409 . S
C995 C994 1.362 . S
H996 C1002 0.930 . S
H997 C1005 0.930 . S
H998 C1006 0.930 . S
H999 C1007 0.930 . S
H1000 C1010 0.930 . S
H1001 C1011 0.930 . S
C1002 H996 0.930 . S
C1002 C1003 1.355 . S
C1002 C1004 1.415 . S
C1003 C1002 1.355 . S
C1003 C1005 1.419 . S
C1004 C1002 1.415 . S
C1004 C1009 1.425 . S
C1004 C1011 1.409 . S
C1005 H997 0.930 . S
C1005 C1003 1.419 . S
C1005 C1006 1.362 . S
C1006 H998 0.930 . S
C1006 C1005 1.362 . S
C1006 C1009 1.409 . S
C1007 H999 0.930 . S
C1007 C1008 1.355 . S
C1007 C1009 1.415 . S
C1008 C1007 1.355 . S
C1008 C1010 1.419 . S
C1009 C1004 1.425 . S
C1009 C1006 1.409 . S
C1009 C1007 1.415 . S
C1010 H1000 0.930 . S
C1010 C1008 1.419 . S
C1010 C1011 1.362 . S
C1011 H1001 0.930 . S
C1011 C1004 1.409 . S
C1011 C1010 1.362 . S
H1012 C1018 0.930 . S
H1013 C1021 0.930 . S
H1014 C1022 0.930 . S
H1015 C1023 0.930 . S
H1016 C1026 0.930 . S
H1017 C1027 0.930 . S
C1018 H1012 0.930 . S
C1018 C1019 1.355 . S
C1018 C1020 1.415 . S
C1019 C1018 1.355 . S
C1019 C1021 1.419 . S
C1020 C1018 1.415 . S
C1020 C1025 1.425 . S
C1020 C1027 1.409 . S
C1021 H1013 0.930 . S
C1021 C1019 1.419 . S
C1021 C1022 1.362 . S
C1022 H1014 0.930 . S
C1022 C1021 1.362 . S
C1022 C1025 1.409 . S
C1023 H1015 0.930 . S
C1023 C1024 1.355 . S
C1023 C1025 1.415 . S
C1024 C1023 1.355 . S
C1024 C1026 1.419 . S
C1025 C1020 1.425 . S
C1025 C1022 1.409 . S
C1025 C1023 1.415 . S
C1026 H1016 0.930 . S
C1026 C1024 1.419 . S
C1026 C1027 1.362 . S
C1027 H1017 0.930 . S
C1027 C1020 1.409 . S
C1027 C1026 1.362 . S
H1028 C1034 0.930 . S
H1029 C1037 0.930 . S
H1030 C1038 0.930 . S
H1031 C1039 0.930 . S
H1032 C1042 0.930 . S
H1033 C1043 0.930 . S
C1034 H1028 0.930 . S
C1034 C1035 1.355 . S
C1034 C1036 1.415 . S
C1035 C1034 1.355 . S
C1035 C1037 1.419 . S
C1036 C1034 1.415 . S
C1036 C1041 1.425 . S
C1036 C1043 1.409 . S
C1037 H1029 0.930 . S
C1037 C1035 1.419 . S
C1037 C1038 1.362 . S
C1038 H1030 0.930 . S
C1038 C1037 1.362 . S
C1038 C1041 1.409 . S
C1039 H1031 0.930 . S
C1039 C1040 1.355 . S
C1039 C1041 1.415 . S
C1040 C1039 1.355 . S
C1040 C1042 1.419 . S
C1041 C1036 1.425 . S
C1041 C1038 1.409 . S
C1041 C1039 1.415 . S
C1042 H1032 0.930 . S
C1042 C1040 1.419 . S
C1042 C1043 1.362 . S
C1043 H1033 0.930 . S
C1043 C1036 1.409 . S
C1043 C1042 1.362 . S
H1044 C1050 0.930 . S
H1045 C1053 0.930 . S
H1046 C1054 0.930 . S
H1047 C1055 0.930 . S
H1048 C1058 0.930 . S
H1049 C1059 0.930 . S
C1050 H1044 0.930 . S
C1050 C1051 1.355 . S
C1050 C1052 1.415 . S
C1051 C1050 1.355 . S
C1051 C1053 1.419 . S
C1052 C1050 1.415 . S
C1052 C1057 1.425 . S
C1052 C1059 1.409 . S
C1053 H1045 0.930 . S
C1053 C1051 1.419 . S
C1053 C1054 1.362 . S
C1054 H1046 0.930 . S
C1054 C1053 1.362 . S
C1054 C1057 1.409 . S
C1055 H1047 0.930 . S
C1055 C1056 1.355 . S
C1055 C1057 1.415 . S
C1056 C1055 1.355 . S
C1056 C1058 1.419 . S
C1057 C1052 1.425 . S
C1057 C1054 1.409 . S
C1057 C1055 1.415 . S
C1058 H1048 0.930 . S
C1058 C1056 1.419 . S
C1058 C1059 1.362 . S
C1059 H1049 0.930 . S
C1059 C1052 1.409 . S
C1059 C1058 1.362 . S
H1060 C1066 0.930 . S
H1061 C1069 0.930 . S
H1062 C1070 0.930 . S
H1063 C1071 0.930 . S
H1064 C1074 0.930 . S
H1065 C1075 0.930 . S
C1066 H1060 0.930 . S
C1066 C1067 1.355 . S
C1066 C1068 1.415 . S
C1067 C1066 1.355 . S
C1067 C1069 1.419 . S
C1068 C1066 1.415 . S
C1068 C1073 1.425 . S
C1068 C1075 1.409 . S
C1069 H1061 0.930 . S
C1069 C1067 1.419 . S
C1069 C1070 1.362 . S
C1070 H1062 0.930 . S
C1070 C1069 1.362 . S
C1070 C1073 1.409 . S
C1071 H1063 0.930 . S
C1071 C1072 1.355 . S
C1071 C1073 1.415 . S
C1072 C1071 1.355 . S
C1072 C1074 1.419 . S
C1073 C1068 1.425 . S
C1073 C1070 1.409 . S
C1073 C1071 1.415 . S
C1074 H1064 0.930 . S
C1074 C1072 1.419 . S
C1074 C1075 1.362 . S
C1075 H1065 0.930 . S
C1075 C1068 1.409 . S
C1075 C1074 1.362 . S
H1076 C1082 0.930 . S
H1077 C1085 0.930 . S
H1078 C1086 0.930 . S
H1079 C1087 0.930 . S
H1080 C1090 0.930 . S
H1081 C1091 0.930 . S
C1082 H1076 0.930 . S
C1082 C1083 1.355 . S
C1082 C1084 1.415 . S
C1083 C1082 1.355 . S
C1083 C1085 1.419 . S
C1084 C1082 1.415 . S
C1084 C1089 1.425 . S
C1084 C1091 1.409 . S
C1085 H1077 0.930 . S
C1085 C1083 1.419 . S
C1085 C1086 1.362 . S
C1086 H1078 0.930 . S
C1086 C1085 1.362 . S
C1086 C1089 1.409 . S
C1087 H1079 0.930 . S
C1087 C1088 1.355 . S
C1087 C1089 1.415 . S
C1088 C1087 1.355 . S
C1088 C1090 1.419 . S
C1089 C1084 1.425 . S
C1089 C1086 1.409 . S
C1089 C1087 1.415 . S
C1090 H1080 0.930 . S
C1090 C1088 1.419 . S
C1090 C1091 1.362 . S
C1091 H1081 0.930 . S
C1091 C1084 1.409 . S
C1091 C1090 1.362 . S
C715 C3 1.726 . S
C720 C357 1.771 . S
C731 C62 1.772 . S
C736 C416 1.716 . S
C747 C123 1.694 . S
C752 C477 1.661 . S
C763 C534 1.741 . S
C768 C180 1.761 . S
C779 C239 1.729 . S
C784 C593 1.765 . S
C795 C654 1.673 . S
C800 C300 1.687 . S
C811 C33 1.579 . S
C816 C564 1.548 . S
C827 C92 1.589 . S
C832 C623 1.540 . S
C843 C701 1.497 . S
C848 C170 1.450 . S
C859 C387 1.589 . S
C864 C210 1.555 . S
C875 C269 1.552 . S
C880 C446 1.572 . S
C891 C347 1.476 1_554 S
C896 C524 1.487 1_556 S
C907 C652 1.540 . S
C912 C5 1.561 . S
C923 C64 1.707 . S
C928 C359 1.722 . S
C939 C121 1.542 . S
C944 C418 1.562 . S
C955 C475 1.529 . S
C960 C182 1.498 . S
C971 C536 1.757 . S
C976 C241 1.763 . S
C987 C298 1.527 . S
C992 C595 1.498 . S
C1003 C52 1.268 . S
C1008 C642 1.252 . S
C1019 C682 1.357 . S
C1024 C111 1.396 . S
C1035 C406 1.353 . S
C1040 C151 1.340 . S
C1051 C229 1.260 . S
C1056 C465 1.240 . S
C1067 C505 1.388 . S
C1072 C288 1.424 . S
C1083 C583 1.357 . S
C1088 C328 1.333 . S
