# Generated by pormake.
# Topology sra, (4)-cn, num edge types: 1
# Building blocks:
#     Node 0, Type 0, BuildingBlock: UXUYUI_clean_sbu_0, # of connection points: 4
#     Node 1, Type 0, BuildingBlock: UXUYUI_clean_sbu_0, # of connection points: 4
#     Node 2, Type 0, BuildingBlock: UXUYUI_clean_sbu_0, # of connection points: 4
#     Node 3, Type 0, BuildingBlock: UXUYUI_clean_sbu_0, # of connection points: 4
#     Node 4, Type 0, BuildingBlock: UXUYUI_clean_sbu_0, # of connection points: 4
#     Node 5, Type 0, BuildingBlock: UXUYUI_clean_sbu_0, # of connection points: 4
#     Node 6, Type 0, BuildingBlock: UXUYUI_clean_sbu_0, # of connection points: 4
#     Node 7, Type 0, BuildingBlock: UXUYUI_clean_sbu_0, # of connection points: 4
#     Edge 8, Type (0, 0), BuildingBlock: EZIPEK_clean_linker_0, # of connection points: 2
#     Edge 9, Type (0, 0), BuildingBlock: EZIPEK_clean_linker_0, # of connection points: 2
#     Edge 10, Type (0, 0), BuildingBlock: EZIPEK_clean_linker_0, # of connection points: 2
#     Edge 11, Type (0, 0), BuildingBlock: EZIPEK_clean_linker_0, # of connection points: 2
#     Edge 12, Type (0, 0), BuildingBlock: EZIPEK_clean_linker_0, # of connection points: 2
#     Edge 13, Type (0, 0), BuildingBlock: EZIPEK_clean_linker_0, # of connection points: 2
#     Edge 14, Type (0, 0), BuildingBlock: EZIPEK_clean_linker_0, # of connection points: 2
#     Edge 15, Type (0, 0), BuildingBlock: EZIPEK_clean_linker_0, # of connection points: 2
#     Edge 16, Type (0, 0), BuildingBlock: EZIPEK_clean_linker_0, # of connection points: 2
#     Edge 17, Type (0, 0), BuildingBlock: EZIPEK_clean_linker_0, # of connection points: 2
#     Edge 18, Type (0, 0), BuildingBlock: EZIPEK_clean_linker_0, # of connection points: 2
#     Edge 19, Type (0, 0), BuildingBlock: EZIPEK_clean_linker_0, # of connection points: 2
#     Edge 20, Type (0, 0), BuildingBlock: EZIPEK_clean_linker_0, # of connection points: 2
#     Edge 21, Type (0, 0), BuildingBlock: EZIPEK_clean_linker_0, # of connection points: 2
#     Edge 22, Type (0, 0), BuildingBlock: EZIPEK_clean_linker_0, # of connection points: 2
#     Edge 23, Type (0, 0), BuildingBlock: EZIPEK_clean_linker_0, # of connection points: 2
# Relax obj value: 0.133
# Max RMSD: 0.099
# Mean RMSD: 0.099
data_MOF--net-sra--node1-UXUYUI_clean_sbu_0--edge1-EZIPEK_clean_linker_0
_symmetry_space_group_name_H-M    P1
_symmetry_Int_Tables_number       1
_symmetry_cell_setting            triclinic
loop_
_symmetry_equiv_pos_as_xyz
'x, y, z'
_cell_length_a     30.66847
_cell_length_b     51.838658
_cell_length_c     51.156831
_cell_angle_alpha  90.028672
_cell_angle_beta   90.053922
_cell_angle_gamma 89.991389
loop_
_atom_site_label
_atom_site_type_symbol
_atom_site_fract_x
_atom_site_fract_y
_atom_site_fract_z
_atom_type_partial_charge
Li0 Li 0.01079 0.10548 0.16149 0.0
Li1 Li 0.04795 0.06838 0.181 0.0
Li2 Li 1.00583 0.0628 0.13946 0.0
Li3 Li 0.96939 0.06838 0.18187 0.0
C4 C 0.08035 0.09497 0.1255 0.0
N5 N 0.12419 0.11592 0.08337 0.0
C6 C 0.12531 0.09922 0.12688 0.0
C7 C 0.05783 0.10111 0.10258 0.0
C8 C 0.14684 0.10993 0.10541 0.0
C9 C 0.08052 0.11173 0.08152 0.0
C10 C 0.03191 0.09957 0.22054 0.0
C11 C 0.05701 0.08825 0.26372 0.0
N12 N 0.08081 0.11037 0.26458 0.0
C13 C 0.05632 0.1223 0.22191 0.0
C14 C 0.03194 0.08249 0.24166 0.0
C15 C 0.08091 0.12738 0.24434 0.0
C16 C 0.97442 0.15472 0.16474 0.0
N17 N 0.01132 0.14198 0.15764 0.0
C18 C 0.04723 0.18179 0.14809 0.0
C19 C 0.04747 0.15489 0.1495 0.0
C20 C 0.00967 0.19532 0.15548 0.0
C21 C 0.97286 0.18162 0.16381 0.0
H22 H 0.94638 0.14392 0.17143 0.0
H23 H 0.07677 0.14443 0.14461 0.0
C24 C 0.10645 0.03697 0.21137 0.0
N25 N 0.10025 0.06012 0.1994 0.0
C26 C 0.14455 0.03241 0.22575 0.0
C27 C 0.16898 0.07548 0.21498 0.0
C28 C 0.13071 0.07913 0.20074 0.0
C29 C 0.17601 0.05196 0.22774 0.0
H30 H 0.0817 0.02219 0.20999 0.0
H31 H 0.12479 0.09736 0.19111 0.0
C32 C 0.928 0.09534 0.13085 0.0
N33 N 0.86636 0.11248 0.09537 0.0
C34 C 0.88647 0.08423 0.13023 0.0
C35 C 0.93786 0.11549 0.11367 0.0
C36 C 0.85586 0.09306 0.11207 0.0
C37 C 0.90635 0.1238 0.09583 0.0
C38 C 0.98627 0.01825 0.17838 0.0
C39 C 0.96527 0.00273 0.15991 0.0
C40 C 0.98383 0.01193 0.20489 0.0
C41 C 0.94164 0.98125 0.16834 0.0
C42 C 0.95979 0.99033 0.21254 0.0
N43 N 0.93936 0.97557 0.19427 0.0
C44 C 0.04247 0.03739 0.09602 0.0
C45 C 0.96594 0.04327 0.09298 0.0
C46 C 0.04346 0.02605 0.07125 0.0
N47 N 1.00417 0.04603 0.10619 0.0
C48 C 0.96544 0.0321 0.06813 0.0
C49 C 1.00461 0.02356 0.05704 0.0
H50 H 0.07234 0.03964 0.10705 0.0
H51 H 0.93583 0.04972 0.10164 0.0
C52 C 0.91094 0.0739 0.22395 0.0
N53 N 0.91771 0.06072 0.20132 0.0
C54 C 0.87192 0.07097 0.23768 0.0
C55 C 0.84775 0.04059 0.20484 0.0
C56 C 0.88728 0.04409 0.19175 0.0
C57 C 0.83969 0.05444 0.22786 0.0
H58 H 0.93533 0.08727 0.23096 0.0
H59 H 0.89311 0.0341 0.17355 0.0
O60 O 0.05885 0.08445 0.14638 0.0
O61 O 0.00853 0.09393 0.19849 0.0
O62 O 0.9582 0.08709 0.14877 0.0
O63 O 0.00927 0.03945 0.17051 0.0
H64 H 0.14341 0.09432 0.14433 0.0
H65 H 0.02336 0.09734 0.10088 0.0
H66 H 0.18159 0.11342 0.10626 0.0
H67 H 0.06344 0.11652 0.06365 0.0
H68 H 0.05764 0.0751 0.28013 0.0
H69 H 0.05666 0.13573 0.20574 0.0
H70 H 0.01312 0.06486 0.24092 0.0
H71 H 0.1002 0.14481 0.24561 0.0
H72 H 0.07624 0.19197 0.14183 0.0
H73 H 0.94352 0.19165 0.16976 0.0
H74 H 0.14923 0.01406 0.23547 0.0
H75 H 0.19273 0.0909 0.21623 0.0
H76 H 0.878 0.0688 0.14343 0.0
H77 H 0.96927 0.12487 0.11421 0.0
H78 H 0.82373 0.08448 0.11128 0.0
H79 H 0.91364 0.13933 0.08241 0.0
H80 H 0.96699 0.00728 0.1393 0.0
H81 H 0.99997 0.02371 0.21941 0.0
H82 H 0.92505 0.96912 0.15429 0.0
H83 H 0.95734 0.98532 0.23301 0.0
H84 H 0.07415 0.01952 0.06314 0.0
H85 H 0.93493 0.03023 0.05762 0.0
H86 H 0.86639 0.082 0.25536 0.0
H87 H 0.82327 0.0278 0.19676 0.0
Li88 Li 0.01237 0.43839 0.14006 0.0
Li89 Li 0.05147 0.43336 0.18095 0.0
Li90 Li 0.01 0.39688 0.16169 0.0
Li91 Li 0.9708 0.43315 0.18155 0.0
C92 C 0.08796 0.41195 0.12652 0.0
N93 N 0.14044 0.4067 0.08296 0.0
C94 C 0.13014 0.42218 0.12651 0.0
C95 C 0.07275 0.39872 0.10453 0.0
C96 C 0.1561 0.41941 0.10426 0.0
C97 C 0.09968 0.39636 0.08266 0.0
C98 C 0.03045 0.48493 0.16525 0.0
C99 C 0.0278 0.53124 0.16116 0.0
N100 N 0.06965 0.53119 0.15237 0.0
C101 C 0.0734 0.48534 0.1562 0.0
C102 C 1.00741 0.50805 0.16778 0.0
C103 C 0.09266 0.5089 0.14978 0.0
C104 C 0.97244 0.45789 0.09455 0.0
N105 N 0.01171 0.45513 0.10663 0.0
C106 C 0.04807 0.47489 0.07045 0.0
C107 C 0.04911 0.46372 0.09526 0.0
C108 C 1.00811 0.47751 0.05747 0.0
C109 C 0.96986 0.46912 0.06976 0.0
H110 H 0.94312 0.45121 0.10411 0.0
H111 H 0.07986 0.46183 0.10531 0.0
C112 C 0.13367 0.42196 0.20058 0.0
N113 N 0.10277 0.44075 0.2006 0.0
C114 C 0.17217 0.42515 0.21476 0.0
C115 C 0.14635 0.467 0.22885 0.0
C116 C 0.10815 0.46296 0.21444 0.0
C117 C 0.1787 0.44788 0.22903 0.0
H118 H 0.12822 0.40441 0.1896 0.0
H119 H 0.08275 0.47743 0.21441 0.0
C120 C 0.93222 0.40044 0.13516 0.0
N121 N 0.87508 0.36675 0.11105 0.0
C122 C 0.89502 0.39189 0.14833 0.0
C123 C 0.93989 0.39225 0.10955 0.0
C124 C 0.86666 0.37475 0.13586 0.0
C125 C 0.91075 0.37511 0.09774 0.0
C126 C 0.01422 0.41222 0.22512 0.0
C127 C 0.02247 0.39138 0.2417 0.0
C128 C 0.00967 0.43699 0.23559 0.0
C129 C 0.02596 0.39567 0.26859 0.0
C130 C 0.01338 0.44048 0.26258 0.0
N131 N 0.02138 0.41992 0.27838 0.0
C132 C 0.04424 0.34773 0.14843 0.0
C133 C 0.97346 0.3472 0.16708 0.0
C134 C 0.04464 0.32082 0.14707 0.0
N135 N 0.00885 0.36032 0.15814 0.0
C136 C 0.97228 0.32031 0.16583 0.0
C137 C 0.00831 0.30694 0.15585 0.0
H138 H 0.07256 0.35851 0.14229 0.0
H139 H 0.94654 0.3576 0.17569 0.0
C140 C 0.89686 0.46341 0.19622 0.0
N141 N 0.91901 0.44106 0.20047 0.0
C142 C 0.85747 0.46809 0.2092 0.0
C143 C 0.86487 0.4268 0.23077 0.0
C144 C 0.90387 0.42288 0.21734 0.0
C145 C 0.84119 0.44952 0.22657 0.0
H146 H 0.90942 0.47737 0.18244 0.0
H147 H 0.9217 0.40507 0.21997 0.0
O148 O 0.06195 0.41467 0.14806 0.0
O149 O 0.01079 0.46206 0.17147 0.0
O150 O 0.96035 0.41724 0.14707 0.0
O151 O 0.01135 0.40834 0.19873 0.0
H152 H 0.14264 0.43229 0.14344 0.0
H153 H 0.0406 0.39024 0.10442 0.0
H154 H 0.18871 0.42736 0.10392 0.0
H155 H 0.08823 0.38626 0.06546 0.0
H156 H 0.01035 0.54929 0.16301 0.0
H157 H 0.09164 0.46764 0.15408 0.0
H158 H 0.9741 0.50806 0.17476 0.0
H159 H 0.12588 0.50947 0.14271 0.0
H160 H 0.07807 0.48138 0.06144 0.0
H161 H 0.93852 0.47103 0.06017 0.0
H162 H 0.19656 0.41003 0.21469 0.0
H163 H 0.1505 0.48467 0.23988 0.0
H164 H 0.88828 0.39825 0.16805 0.0
H165 H 0.96778 0.39923 0.09878 0.0
H166 H 0.83794 0.36782 0.14591 0.0
H167 H 0.9164 0.36854 0.07796 0.0
H168 H 0.02622 0.37211 0.23385 0.0
H169 H 1.00346 0.45338 0.22305 0.0
H170 H 0.03234 0.37972 0.28168 0.0
H171 H 0.00997 0.45954 0.27095 0.0
H172 H 0.07311 0.31091 0.13959 0.0
H173 H 0.94407 0.31 0.1731 0.0
H174 H 0.83965 0.48576 0.20553 0.0
H175 H 0.85286 0.41208 0.24394 0.0
Li176 Li 1.00034 0.93957 0.87099 0.0
Li177 Li 0.96359 0.93341 0.82874 0.0
Li178 Li 1.00492 0.89661 0.84964 0.0
Li179 Li 0.04212 0.93329 0.82944 0.0
C180 C 0.92332 0.90761 0.88104 0.0
N181 N 0.86409 0.89178 0.91849 0.0
C182 C 0.88161 0.91847 0.88194 0.0
C183 C 0.93453 0.88832 0.89894 0.0
C184 C 0.85224 0.91033 0.9011 0.0
C185 C 0.90424 0.88068 0.91778 0.0
C186 C 0.97996 0.9834 0.83157 0.0
C187 C 0.95275 0.01094 0.79726 0.0
N188 N 0.93151 0.0254 0.81543 0.0
C189 C 0.95812 0.99862 0.84992 0.0
C190 C 0.97758 0.98969 0.80505 0.0
C191 C 0.93372 0.01976 0.84136 0.0
C192 C 0.03836 0.96537 0.91368 0.0
N193 N 0.99959 0.95684 0.90403 0.0
C194 C 0.96244 0.97123 0.94244 0.0
C195 C 0.96187 0.95991 0.91766 0.0
C196 C 1.00213 0.97961 0.95301 0.0
C197 C 0.04041 0.97686 0.93835 0.0
H198 H 0.0678 0.96286 0.90233 0.0
H199 H 0.93137 0.95355 0.90941 0.0
C200 C 0.90609 0.92816 0.78604 0.0
N201 N 0.91196 0.94085 0.80906 0.0
C202 C 0.86725 0.93097 0.77206 0.0
C203 C 0.84126 0.9601 0.80553 0.0
C204 C 0.88073 0.95685 0.8188 0.0
C205 C 0.8342 0.94679 0.78206 0.0
H206 H 0.93105 0.91526 0.7789 0.0
H207 H 0.88594 0.96654 0.83723 0.0
C208 C 0.07541 0.90696 0.88479 0.0
N209 N 0.12076 0.88546 0.92614 0.0
C210 C 0.11993 0.90164 0.88242 0.0
C211 C 0.05417 0.90168 0.90834 0.0
C212 C 0.14222 0.89065 0.90349 0.0
C213 C 0.07759 0.89075 0.92898 0.0
C214 C 0.02539 0.90168 0.7903 0.0
C215 C 0.04875 0.87858 0.7887 0.0
C216 C 0.02591 0.91887 0.76926 0.0
C217 C 0.07282 0.87323 0.76616 0.0
C218 C 0.05042 0.91283 0.74708 0.0
N219 N 0.0732 0.89035 0.74601 0.0
C220 C 0.9675 0.84743 0.85009 0.0
C221 C 0.04326 0.8474 0.85959 0.0
C222 C 0.96615 0.82056 0.85162 0.0
N223 N 1.00563 0.86022 0.85413 0.0
C224 C 0.04338 0.82052 0.86131 0.0
C225 C 1.00451 0.80693 0.85715 0.0
H226 H 0.93827 0.85814 0.84537 0.0
H227 H 0.07336 0.85793 0.86196 0.0
C228 C 0.10094 0.96433 0.79899 0.0
N229 N 0.0943 0.94116 0.81083 0.0
C230 C 0.13902 0.96864 0.78456 0.0
C231 C 0.16252 0.92531 0.79504 0.0
C232 C 0.12423 0.92188 0.80927 0.0
C233 C 0.17007 0.94887 0.78248 0.0
H234 H 0.07655 0.97931 0.80052 0.0
H235 H 0.11789 0.90361 0.81871 0.0
O236 O 0.95233 0.91523 0.86219 0.0
O237 O 1.00363 0.96248 0.83955 0.0
O238 O 0.05318 0.91777 0.8643 0.0
O239 O 1.00248 0.90754 0.81245 0.0
H240 H 0.87205 0.93318 0.86816 0.0
H241 H 0.96602 0.87905 0.89817 0.0
H242 H 0.82001 0.91874 0.90211 0.0
H243 H 0.9126 0.86583 0.93176 0.0
H244 H 0.95034 0.01592 0.77678 0.0
H245 H 0.95975 0.99408 0.87053 0.0
H246 H 0.9944 0.97815 0.79061 0.0
H247 H 0.91647 0.03164 0.85533 0.0
H248 H 0.93235 0.97331 0.95331 0.0
H249 H 0.07149 0.98325 0.94607 0.0
H250 H 0.86247 0.92032 0.75406 0.0
H251 H 0.81613 0.97233 0.81375 0.0
H252 H 0.13715 0.90591 0.86452 0.0
H253 H 0.02018 0.90636 0.91087 0.0
H254 H 0.17661 0.88631 0.90186 0.0
H255 H 0.06149 0.88661 0.94731 0.0
H256 H 0.04866 0.86504 0.80477 0.0
H257 H 1.00793 0.93679 0.77017 0.0
H258 H 0.09129 0.85551 0.76471 0.0
H259 H 0.05142 0.92606 0.73074 0.0
H260 H 0.93577 0.81048 0.84813 0.0
H261 H 0.07355 0.81039 0.86534 0.0
H262 H 0.14405 0.98701 0.77494 0.0
H263 H 0.18588 0.90969 0.79365 0.0
Li264 Li 0.9672 0.56888 0.83027 0.0
Li265 Li 1.0037 0.60565 0.85071 0.0
Li266 Li 0.04575 0.56908 0.82987 0.0
Li267 Li 0.00856 0.56265 0.87197 0.0
C268 C 0.9838 0.60056 0.79132 0.0
N269 N 0.93608 0.61163 0.7469 0.0
C270 C 0.95919 0.62321 0.78994 0.0
C271 C 0.98455 0.58368 0.77002 0.0
C272 C 0.9352 0.62843 0.76732 0.0
C273 C 0.96007 0.58957 0.74776 0.0
C274 C 0.93406 0.59487 0.88606 0.0
C275 C 0.93388 0.61104 0.93029 0.0
N276 N 0.89041 0.61585 0.92827 0.0
C277 C 0.8893 0.59974 0.88452 0.0
C278 C 0.95646 0.60039 0.90919 0.0
C279 C 0.86786 0.61046 0.90603 0.0
C280 C 0.90974 0.5381 0.79848 0.0
N281 N 0.91535 0.56088 0.8113 0.0
C282 C 0.84654 0.57632 0.79593 0.0
C283 C 0.88462 0.57976 0.81042 0.0
C284 C 0.84004 0.55316 0.78239 0.0
C285 C 0.87192 0.53379 0.78376 0.0
H286 H 0.93475 0.52344 0.79947 0.0
H287 H 0.89017 0.59774 0.82061 0.0
C288 C 0.04054 0.65489 0.85045 0.0
N289 N 1.00273 0.64203 0.85519 0.0
C290 C 0.04174 0.68178 0.85174 0.0
C291 C 0.96502 0.68169 0.86273 0.0
C292 C 0.96528 0.65479 0.86121 0.0
C293 C 1.00356 0.69534 0.85779 0.0
H294 H 0.06961 0.64422 0.8453 0.0
H295 H 0.93539 0.6442 0.86416 0.0
C296 C 0.02954 0.51886 0.83257 0.0
N297 N 0.07773 0.47665 0.8167 0.0
C298 C 0.05052 0.50338 0.85107 0.0
C299 C 0.03267 0.51274 0.80603 0.0
C300 C 0.07479 0.48213 0.84264 0.0
C301 C 0.05735 0.49138 0.79839 0.0
C302 C 0.08626 0.59492 0.88169 0.0
C303 C 0.12773 0.58372 0.88219 0.0
C304 C 0.07627 0.6146 0.89942 0.0
C305 C 0.15814 0.59199 0.90073 0.0
C306 C 0.10758 0.62235 0.91765 0.0
N307 N 0.14751 0.61096 0.91795 0.0
C308 C 0.1042 0.57572 0.78805 0.0
C309 C 0.1283 0.54526 0.81947 0.0
C310 C 0.14307 0.57312 0.77411 0.0
N311 N 0.09766 0.56202 0.81037 0.0
C312 C 0.16774 0.54212 0.80618 0.0
C313 C 0.17544 0.55642 0.78341 0.0
H314 H 0.07969 0.58919 0.78142 0.0
H315 H 0.12266 0.53483 0.83743 0.0
C316 C 0.971 0.53603 0.9143 0.0
N317 N 0.00946 0.54532 0.90497 0.0
C318 C 0.96917 0.52432 0.93887 0.0
C319 C 0.0467 0.53147 0.94358 0.0
C320 C 0.04707 0.54292 0.91888 0.0
C321 C 1.00734 0.52223 0.95379 0.0
H322 H 0.94162 0.53806 0.90276 0.0
H323 H 0.07735 0.54992 0.91092 0.0
O324 O 1.00666 0.5948 0.81354 0.0
O325 O 0.95546 0.58431 0.86514 0.0
O326 O 1.00591 0.53983 0.84043 0.0
O327 O 0.05624 0.58719 0.86343 0.0
H328 H 0.95827 0.63649 0.80624 0.0
H329 H 1.0035 0.5661 0.77077 0.0
H330 H 0.91578 0.6458 0.76603 0.0
H331 H 0.96005 0.57658 0.73121 0.0
H332 H 0.95087 0.61536 0.94831 0.0
H333 H 0.87125 0.59531 0.86691 0.0
H334 H 0.99074 0.59613 0.91101 0.0
H335 H 0.83327 0.61443 0.90506 0.0
H336 H 0.82252 0.59162 0.79512 0.0
H337 H 0.86769 0.51574 0.7734 0.0
H338 H 0.07185 0.69191 0.84765 0.0
H339 H 0.93499 0.69177 0.86717 0.0
H340 H 0.04829 0.50778 0.8717 0.0
H341 H 0.01658 0.5245 0.79148 0.0
H342 H 0.09137 0.47004 0.85673 0.0
H343 H 0.06034 0.48653 0.7779 0.0
H344 H 0.1363 0.56864 0.86858 0.0
H345 H 0.04491 0.62406 0.899 0.0
H346 H 0.19022 0.58333 0.90142 0.0
H347 H 0.10018 0.63752 0.93148 0.0
H348 H 0.14834 0.58451 0.75665 0.0
H349 H 0.19234 0.52918 0.81385 0.0
H350 H 0.93835 0.51727 0.94631 0.0
H351 H 0.0767 0.52991 0.95466 0.0
Li352 Li 0.54612 0.56957 0.68277 0.0
Li353 Li 0.50815 0.60665 0.6629 0.0
Li354 Li 0.46786 0.571 0.68046 0.0
Li355 Li 0.50778 0.56489 0.64111 0.0
C356 C 0.49217 0.59222 0.72471 0.0
N357 N 0.45906 0.58565 0.7745 0.0
C358 C 0.46773 0.61182 0.73643 0.0
C359 C 0.49981 0.56929 0.73836 0.0
C360 C 0.45124 0.60812 0.76161 0.0
C361 C 0.48282 0.56635 0.7635 0.0
C362 C 0.59814 0.59931 0.65085 0.0
C363 C 0.67163 0.60653 0.63581 0.0
N364 N 0.67825 0.62317 0.65599 0.0
C365 C 0.60567 0.61649 0.67145 0.0
C366 C 0.63135 0.59425 0.6329 0.0
C367 C 0.64638 0.62836 0.6737 0.0
C368 C 0.62415 0.54172 0.69304 0.0
N369 N 0.59751 0.56085 0.70181 0.0
C370 C 0.64828 0.57186 0.73547 0.0
C371 C 0.60869 0.57576 0.72265 0.0
C372 C 0.67665 0.55261 0.72657 0.0
C373 C 0.66427 0.53721 0.70527 0.0
H374 H 0.61473 0.53049 0.67613 0.0
H375 H 0.58746 0.59125 0.72882 0.0
C376 C 0.4781 0.65671 0.67204 0.0
N377 N 0.50789 0.64313 0.658 0.0
C378 C 0.47679 0.68357 0.67045 0.0
C379 C 0.53546 0.68194 0.63892 0.0
C380 C 0.53574 0.65509 0.6412 0.0
C381 C 0.50606 0.69636 0.65394 0.0
H382 H 0.45542 0.64663 0.68452 0.0
H383 H 0.55835 0.64384 0.62969 0.0
C384 C 0.48249 0.51983 0.66557 0.0
N385 N 0.43446 0.47661 0.65245 0.0
C386 C 0.44174 0.52247 0.65358 0.0
C387 C 0.49879 0.49521 0.67089 0.0
C388 C 0.41797 0.50039 0.6471 0.0
C389 C 0.47402 0.4736 0.6641 0.0
C390 C 0.4471 0.60124 0.62418 0.0
C391 C 0.40351 0.60684 0.61861 0.0
C392 C 0.47958 0.60844 0.60645 0.0
C393 C 0.39309 0.61955 0.59536 0.0
C394 C 0.46783 0.62112 0.58341 0.0
N395 N 0.42519 0.62637 0.57838 0.0
C396 C 0.38376 0.58244 0.69719 0.0
C397 C 0.40939 0.54243 0.7137 0.0
C398 C 0.34486 0.57984 0.71105 0.0
N399 N 0.41504 0.56393 0.69882 0.0
C400 C 0.37085 0.53902 0.72787 0.0
C401 C 0.3383 0.55799 0.72663 0.0
H402 H 0.38946 0.59945 0.68544 0.0
H403 H 0.43507 0.52818 0.71493 0.0
C404 C 0.54825 0.53946 0.59868 0.0
N405 N 0.50923 0.54796 0.60792 0.0
C406 C 0.55085 0.52775 0.5741 0.0
C407 C 0.47301 0.5335 0.56918 0.0
C408 C 0.47187 0.54495 0.59386 0.0
C409 C 0.51289 0.52491 0.5591 0.0
H410 H 0.57735 0.54193 0.61037 0.0
H411 H 0.44117 0.55164 0.60169 0.0
O412 O 0.50751 0.59506 0.69975 0.0
O413 O 0.55904 0.58676 0.64872 0.0
O414 O 0.50662 0.54109 0.67207 0.0
O415 O 0.45754 0.58883 0.64695 0.0
H416 H 0.46143 0.62968 0.72625 0.0
H417 H 0.51806 0.55374 0.72945 0.0
H418 H 0.43215 0.6231 0.77087 0.0
H419 H 0.48829 0.54865 0.77421 0.0
H420 H 0.69765 0.60277 0.62207 0.0
H421 H 0.58046 0.62054 0.68564 0.0
H422 H 0.62613 0.58091 0.61692 0.0
H423 H 0.65268 0.64165 0.68957 0.0
H424 H 0.65724 0.58416 0.75174 0.0
H425 H 0.68579 0.52232 0.69792 0.0
H426 H 0.45347 0.69428 0.68207 0.0
H427 H 0.55821 0.6914 0.62588 0.0
H428 H 0.42847 0.54133 0.64937 0.0
H429 H 0.5303 0.49286 0.68015 0.0
H430 H 0.3864 0.50216 0.63783 0.0
H431 H 0.48624 0.45442 0.6681 0.0
H432 H 0.378 0.60139 0.63214 0.0
H433 H 0.51349 0.60424 0.61031 0.0
H434 H 0.35947 0.624 0.5908 0.0
H435 H 0.49262 0.62676 0.56952 0.0
H436 H 0.32034 0.59484 0.70989 0.0
H437 H 0.36667 0.52204 0.73994 0.0
H438 H 0.58206 0.52121 0.56676 0.0
H439 H 0.44319 0.53145 0.558 0.0
Li440 Li 0.5026 0.93897 0.6377 0.0
Li441 Li 0.54162 0.93409 0.67751 0.0
Li442 Li 0.50263 0.8978 0.65893 0.0
Li443 Li 0.46183 0.93431 0.68044 0.0
C444 C 0.57556 0.92051 0.62169 0.0
N445 N 0.61873 0.93083 0.57546 0.0
C446 C 0.60835 0.93923 0.62095 0.0
C447 C 0.56483 0.907 0.59892 0.0
C448 C 0.6298 0.94416 0.59739 0.0
C449 C 0.58697 0.91252 0.57574 0.0
C450 C 0.51737 0.9836 0.68151 0.0
C451 C 0.51307 0.0149 0.71632 0.0
N452 N 0.55101 0.02565 0.70792 0.0
C453 C 0.5562 0.99503 0.67315 0.0
C454 C 0.49552 0.99363 0.70323 0.0
C455 C 0.57274 0.01623 0.6868 0.0
C456 C 0.47228 0.94616 0.58581 0.0
N457 N 0.50005 0.95559 0.60424 0.0
C458 C 0.52654 0.98736 0.57431 0.0
C459 C 0.52652 0.97602 0.59907 0.0
C460 C 0.4987 0.97769 0.55492 0.0
C461 C 0.47109 0.95699 0.56082 0.0
H462 H 0.45128 0.9301 0.59043 0.0
H463 H 0.54816 0.98325 0.61401 0.0
C464 C 0.63033 0.92815 0.68944 0.0
N465 N 0.59403 0.94118 0.69717 0.0
C466 C 0.66923 0.93048 0.70341 0.0
C467 C 0.63291 0.95942 0.73336 0.0
C468 C 0.59452 0.95636 0.71891 0.0
C469 C 0.67064 0.94624 0.72562 0.0
H470 H 0.62883 0.91542 0.67274 0.0
H471 H 0.56495 0.96558 0.7255 0.0
C472 C 0.42351 0.8976 0.63854 0.0
N473 N 0.36984 0.85691 0.6249 0.0
C474 C 0.38602 0.89237 0.65313 0.0
C475 C 0.43343 0.88228 0.61684 0.0
C476 C 0.35934 0.8717 0.64594 0.0
C477 C 0.40601 0.86173 0.61033 0.0
C478 C 0.52538 0.90227 0.71733 0.0
C479 C 0.55605 0.88239 0.71575 0.0
C480 C 0.51925 0.91527 0.74098 0.0
C481 C 0.58011 0.8758 0.73796 0.0
C482 C 0.54396 0.9081 0.76275 0.0
N483 N 0.57357 0.88865 0.76081 0.0
C484 C 0.53446 0.84922 0.6418 0.0
C485 C 0.4717 0.8476 0.66885 0.0
C486 C 0.53559 0.82233 0.64031 0.0
N487 N 0.50268 0.86123 0.65578 0.0
C488 C 0.47138 0.8207 0.66771 0.0
C489 C 0.50374 0.80791 0.6534 0.0
H490 H 0.55936 0.86049 0.63219 0.0
H491 H 0.44746 0.85766 0.68032 0.0
C492 C 0.38335 0.96115 0.69165 0.0
N493 N 0.41093 0.94229 0.69996 0.0
C494 C 0.34379 0.9653 0.70457 0.0
C495 C 0.36222 0.93082 0.73446 0.0
C496 C 0.4013 0.9273 0.72097 0.0
C497 C 0.33287 0.94978 0.72603 0.0
H498 H 0.39169 0.97253 0.67465 0.0
H499 H 0.42339 0.91208 0.72676 0.0
O500 O 0.55358 0.91576 0.64446 0.0
O501 O 0.50041 0.96294 0.66833 0.0
O502 O 0.45045 0.91751 0.64554 0.0
O503 O 0.50177 0.90913 0.69576 0.0
H504 H 0.61681 0.9501 0.63827 0.0
H505 H 0.53933 0.89261 0.59905 0.0
H506 H 0.65508 0.95868 0.59651 0.0
H507 H 0.5788 0.90233 0.55794 0.0
H508 H 0.49658 0.02282 0.7332 0.0
H509 H 0.57383 0.98736 0.65661 0.0
H510 H 0.46546 0.98504 0.71 0.0
H511 H 0.60294 0.02514 0.68067 0.0
H512 H 0.54817 0.00338 0.57025 0.0
H513 H 0.44919 0.94919 0.54619 0.0
H514 H 0.69776 0.91978 0.69723 0.0
H515 H 0.63292 0.97137 0.75073 0.0
H516 H 0.3776 0.90404 0.66989 0.0
H517 H 0.46238 0.88593 0.60539 0.0
H518 H 0.33032 0.86739 0.65712 0.0
H519 H 0.41356 0.84957 0.59375 0.0
H520 H 0.56141 0.87228 0.69752 0.0
H521 H 0.49597 0.9309 0.74243 0.0
H522 H 0.60405 0.8605 0.73703 0.0
H523 H 0.53969 0.91803 0.78117 0.0
H524 H 0.56121 0.81286 0.62936 0.0
H525 H 0.44668 0.80996 0.67821 0.0
H526 H 0.32154 0.98 0.6976 0.0
H527 H 0.35441 0.91845 0.75086 0.0
Li528 Li 0.47255 0.4362 0.3306 0.0
Li529 Li 0.51038 0.4411 0.37278 0.0
Li530 Li 0.55128 0.43512 0.33082 0.0
Li531 Li 0.51323 0.39851 0.35053 0.0
C532 C 0.49176 0.48625 0.33432 0.0
N533 N 0.44699 0.53008 0.31937 0.0
C534 C 0.47148 0.50171 0.35312 0.0
C535 C 0.48972 0.49324 0.30797 0.0
C536 C 0.44892 0.52377 0.34515 0.0
C537 C 0.46676 0.51541 0.30079 0.0
C538 C 0.43159 0.41109 0.38254 0.0
C539 C 0.40945 0.38531 0.41949 0.0
N540 N 0.37053 0.39788 0.41996 0.0
C541 C 0.39111 0.42349 0.38319 0.0
C542 C 0.44062 0.39162 0.40065 0.0
C543 C 0.3608 0.41665 0.40234 0.0
C544 C 0.4128 0.43007 0.28944 0.0
N545 N 0.42074 0.44427 0.3113 0.0
C546 C 0.35171 0.46544 0.30708 0.0
C547 C 0.39132 0.46189 0.32015 0.0
C548 C 0.34248 0.45056 0.28487 0.0
C549 C 0.37368 0.43299 0.27578 0.0
H550 H 0.43631 0.4159 0.28302 0.0
H551 H 0.39793 0.47263 0.33781 0.0
C552 C 0.54975 0.46438 0.4167 0.0
N553 N 0.51052 0.45774 0.40622 0.0
C554 C 0.55197 0.4756 0.44151 0.0
C555 C 0.47332 0.47357 0.44404 0.0
C556 C 0.47262 0.46245 0.41918 0.0
C557 C 0.51338 0.48007 0.45543 0.0
H558 H 0.57938 0.46069 0.40587 0.0
H559 H 0.44182 0.45769 0.41024 0.0
C560 C 0.53195 0.40497 0.2908 0.0
N561 N 0.5771 0.39497 0.2452 0.0
C562 C 0.55482 0.38183 0.28791 0.0
C563 C 0.5315 0.42286 0.27037 0.0
C564 C 0.57755 0.37716 0.26472 0.0
C565 C 0.55471 0.4175 0.24752 0.0
C566 C 0.58419 0.40659 0.38514 0.0
C567 C 0.62818 0.40016 0.38215 0.0
C568 C 0.56295 0.40078 0.40855 0.0
C569 C 0.64993 0.38756 0.40249 0.0
C570 C 0.58583 0.38823 0.42845 0.0
N571 N 0.62847 0.38189 0.42502 0.0
C572 C 0.61112 0.46627 0.3012 0.0
C573 C 0.63224 0.42299 0.3094 0.0
C574 C 0.64922 0.47051 0.28676 0.0
N575 N 0.60339 0.44274 0.31203 0.0
C576 C 0.67043 0.42631 0.29504 0.0
C577 C 0.67908 0.45025 0.28353 0.0
H578 H 0.58765 0.48164 0.30363 0.0
H579 H 0.62515 0.40448 0.31816 0.0
C580 C 0.47423 0.34957 0.35252 0.0
N581 N 0.51312 0.36205 0.35439 0.0
C582 C 0.47259 0.32268 0.35362 0.0
C583 C 0.55108 0.32197 0.35838 0.0
C584 C 0.55121 0.34888 0.35718 0.0
C585 C 0.51141 0.30871 0.35644 0.0
H586 H 0.44457 0.36054 0.34978 0.0
H587 H 0.58179 0.35917 0.35776 0.0
O588 O 0.51381 0.46453 0.34173 0.0
O589 O 0.46152 0.41745 0.36374 0.0
O590 O 0.51046 0.4102 0.31362 0.0
O591 O 0.5624 0.41883 0.36533 0.0
H592 H 0.47296 0.49668 0.37361 0.0
H593 H 0.50547 0.48158 0.29321 0.0
H594 H 0.43289 0.53585 0.35947 0.0
H595 H 0.46466 0.52095 0.28044 0.0
H596 H 0.41611 0.37033 0.43365 0.0
H597 H 0.38329 0.43841 0.36925 0.0
H598 H 0.4711 0.3812 0.40005 0.0
H599 H 0.32952 0.42626 0.40317 0.0
H600 H 0.32805 0.47906 0.31459 0.0
H601 H 0.36726 0.42116 0.25875 0.0
H602 H 0.58335 0.48057 0.44984 0.0
H603 H 0.44301 0.47705 0.45431 0.0
H604 H 0.5554 0.36774 0.30348 0.0
H605 H 0.51371 0.44077 0.27224 0.0
H606 H 0.59566 0.35941 0.26228 0.0
H607 H 0.55497 0.43127 0.23164 0.0
H608 H 0.64536 0.40476 0.36431 0.0
H609 H 0.52938 0.40623 0.41151 0.0
H610 H 0.6839 0.38234 0.40037 0.0
H611 H 0.56972 0.38363 0.44667 0.0
H612 H 0.65518 0.4892 0.27803 0.0
H613 H 0.69294 0.41035 0.29283 0.0
H614 H 0.44156 0.31285 0.35187 0.0
H615 H 0.58157 0.31158 0.36025 0.0
Li616 Li 0.50882 0.10752 0.34918 0.0
Li617 Li 0.46743 0.06872 0.3298 0.0
Li618 Li 0.50846 0.06528 0.37018 0.0
Li619 Li 0.5473 0.07005 0.33041 0.0
C620 C 0.43487 0.08543 0.38569 0.0
N621 N 0.39154 0.07839 0.43245 0.0
C622 C 0.40606 0.06476 0.3887 0.0
C623 C 0.44146 0.10262 0.40638 0.0
C624 C 0.38454 0.06149 0.41253 0.0
C625 C 0.41927 0.0987 0.42988 0.0
C626 C 0.52433 0.09499 0.2881 0.0
C627 C 0.53554 0.07568 0.24576 0.0
N628 N 0.56335 0.09515 0.23948 0.0
C629 C 0.55292 0.11485 0.28124 0.0
C630 C 0.51546 0.07526 0.27026 0.0
C631 C 0.57238 0.11455 0.25656 0.0
C632 C 0.5467 0.15676 0.34716 0.0
N633 N 0.50905 0.14387 0.35227 0.0
C634 C 0.47146 0.18341 0.36043 0.0
C635 C 0.47179 0.15652 0.35884 0.0
C636 C 0.50976 0.19714 0.35502 0.0
C637 C 0.54778 0.18365 0.34841 0.0
H638 H 0.57576 0.1461 0.34196 0.0
H639 H 0.44229 0.14571 0.36259 0.0
C640 C 0.39374 0.0381 0.31528 0.0
N641 N 0.41605 0.06037 0.31089 0.0
C642 C 0.35431 0.03346 0.30229 0.0
C643 C 0.36235 0.07444 0.28019 0.0
C644 C 0.40134 0.07836 0.29368 0.0
C645 C 0.33829 0.05192 0.28467 0.0
H646 H 0.40618 0.02422 0.3292 0.0
H647 H 0.41964 0.09595 0.29076 0.0
C648 C 0.58644 0.09556 0.3826 0.0
N649 N 0.64402 0.11087 0.42121 0.0
C650 C 0.62653 0.08303 0.38549 0.0
C651 C 0.57602 0.1162 0.39906 0.0
C652 C 0.65507 0.09096 0.40521 0.0
C653 C 0.60545 0.12355 0.41855 0.0
C654 C 0.53211 0.01895 0.34358 0.0
C655 C 0.56892 0.01948 0.35967 0.0
C656 C 0.52017 0.99599 0.33119 0.0
C657 C 0.59327 0.99697 0.36312 0.0
C658 C 0.54538 0.97388 0.33511 0.0
N659 N 0.58111 0.97482 0.35086 0.0
C660 C 0.49103 0.02412 0.40553 0.0
C661 C 0.51971 0.06159 0.42577 0.0
C662 C 0.48884 0.01152 0.42964 0.0
N663 N 0.50688 0.04862 0.40395 0.0
C664 C 0.51796 0.04978 0.45024 0.0
C665 C 0.50261 0.02444 0.45224 0.0
H666 H 0.47966 0.01443 0.38811 0.0
H667 H 0.53041 0.08129 0.42438 0.0
C668 C 0.63161 0.08045 0.31361 0.0
N669 N 0.59932 0.06261 0.31142 0.0
C670 C 0.67039 0.07749 0.29973 0.0
C671 C 0.64223 0.0377 0.28165 0.0
C672 C 0.60378 0.04148 0.29585 0.0
C673 C 0.67584 0.05596 0.28354 0.0
H674 H 0.62688 0.09723 0.32585 0.0
H675 H 0.57731 0.02782 0.29413 0.0
O676 O 0.4572 0.08849 0.36279 0.0
O677 O 0.50597 0.09448 0.31243 0.0
O678 O 0.55858 0.08851 0.36293 0.0
O679 O 0.50794 0.04079 0.33968 0.0
H680 H 0.40084 0.05121 0.37291 0.0
H681 H 0.46387 0.11861 0.40441 0.0
H682 H 0.36239 0.04548 0.41521 0.0
H683 H 0.42425 0.11175 0.44612 0.0
H684 H 0.52917 0.06047 0.23179 0.0
H685 H 0.56028 0.13017 0.2949 0.0
H686 H 0.49371 0.05962 0.27541 0.0
H687 H 0.59477 0.12971 0.251 0.0
H688 H 0.44163 0.19344 0.36548 0.0
H689 H 0.57775 0.19384 0.34409 0.0
H690 H 0.33624 0.01593 0.30615 0.0
H691 H 0.3506 0.08904 0.26676 0.0
H692 H 0.63573 0.06746 0.37252 0.0
H693 H 0.54526 0.1262 0.39711 0.0
H694 H 0.68612 0.08136 0.40772 0.0
H695 H 0.5976 0.13934 0.43156 0.0
H696 H 0.57836 0.03701 0.36952 0.0
H697 H 0.49176 0.99531 0.31862 0.0
H698 H 0.62181 0.9971 0.37557 0.0
H699 H 0.53656 0.95597 0.32562 0.0
H700 H 0.47634 0.99201 0.4307 0.0
H701 H 0.52824 0.06032 0.46746 0.0
H702 H 0.69573 0.09196 0.30138 0.0
H703 H 0.64554 0.021 0.26909 0.0
C704 C 0.02191 0.26481 0.17846 0.0
C705 C 0.00875 0.27833 0.15565 0.0
C706 C 0.99396 0.23742 0.13317 0.0
C707 C 0.00942 0.22393 0.15546 0.0
N708 N 0.04248 0.22401 0.19823 0.0
N709 N 0.98657 0.27834 0.11045 0.0
C710 C 0.02462 0.23742 0.17783 0.0
C711 C 0.99598 0.26485 0.13273 0.0
N712 N 0.03098 0.2782 0.20087 0.0
N713 N 0.97651 0.22394 0.11267 0.0
H714 H 0.98612 0.29845 0.1097 0.0
H715 H 0.9818 0.2698 0.09226 0.0
H716 H 0.97588 0.20383 0.11196 0.0
H717 H 0.96022 0.23248 0.09707 0.0
H718 H 0.03571 0.26956 0.21901 0.0
H719 H 0.0312 0.2983 0.20181 0.0
H720 H 0.0588 0.23262 0.21379 0.0
H721 H 0.04351 0.2039 0.19893 0.0
C722 C 1.0052 0.76464 0.83343 0.0
C723 C 1.00431 0.77833 0.85745 0.0
C724 C 1.00611 0.73759 0.88177 0.0
C725 C 1.00353 0.72394 0.85777 0.0
N726 N 0.99381 0.724 0.81098 0.0
N727 N 0.99791 0.77847 0.9044 0.0
C728 C 1.00117 0.73734 0.83364 0.0
C729 C 1.00311 0.76498 0.88164 0.0
N730 N 0.01121 0.7777 0.81049 0.0
N731 N 0.01264 0.72438 0.90457 0.0
H732 H 0.9962 0.79856 0.90505 0.0
H733 H 0.99201 0.7698 0.9224 0.0
H734 H 0.01436 0.7043 0.90543 0.0
H735 H 0.0196 0.73328 0.92234 0.0
H736 H 0.01708 0.76864 0.79267 0.0
H737 H 0.01387 0.79774 0.80951 0.0
H738 H 0.98687 0.73283 0.79319 0.0
H739 H 0.99113 0.70394 0.81029 0.0
C740 C 0.5318 0.73872 0.67172 0.0
C741 C 0.50664 0.72495 0.65307 0.0
C742 C 0.48284 0.76561 0.63309 0.0
C743 C 0.50525 0.77933 0.65299 0.0
N744 N 0.54728 0.77963 0.69285 0.0
N745 N 0.45494 0.72449 0.61758 0.0
C746 C 0.52877 0.76606 0.67275 0.0
C747 C 0.48132 0.73818 0.63411 0.0
N748 N 0.55934 0.72561 0.68806 0.0
N749 N 0.46368 0.77885 0.61301 0.0
H750 H 0.45395 0.70437 0.61732 0.0
H751 H 0.43199 0.73291 0.60526 0.0
H752 H 0.46304 0.79896 0.61208 0.0
H753 H 0.45092 0.77009 0.59637 0.0
H754 H 0.58217 0.73453 0.7001 0.0
H755 H 0.56173 0.70553 0.68827 0.0
H756 H 0.56038 0.77106 0.70949 0.0
H757 H 0.54707 0.79973 0.69381 0.0
C758 C 0.51375 0.2663 0.38007 0.0
C759 C 0.51074 0.28011 0.3562 0.0
C760 C 0.5034 0.23956 0.33191 0.0
C761 C 0.5098 0.22573 0.35552 0.0
N762 N 0.52661 0.22525 0.40155 0.0
N763 N 0.50913 0.28039 0.30906 0.0
C764 C 0.51652 0.23892 0.3795 0.0
C765 C 0.50728 0.26687 0.33199 0.0
N766 N 0.51274 0.27938 0.40329 0.0
N767 N 0.49258 0.22659 0.30953 0.0
H768 H 0.51152 0.30045 0.30831 0.0
H769 H 0.51173 0.27172 0.29077 0.0
H770 H 0.49033 0.20653 0.30858 0.0
H771 H 0.4826 0.23568 0.29241 0.0
H772 H 0.51005 0.27041 0.42141 0.0
H773 H 0.5113 0.29946 0.40442 0.0
H774 H 0.53667 0.23376 0.41897 0.0
H775 H 0.52798 0.20514 0.40196 0.0
C776 C 0.25714 0.05811 0.28353 0.0
C777 C 0.29551 0.04843 0.2715 0.0
C778 C 0.25461 0.03878 0.23144 0.0
C779 C 0.21621 0.04833 0.24351 0.0
N780 N 0.17831 0.06258 0.28213 0.0
N781 N 0.33007 0.02529 0.23636 0.0
C782 C 0.21669 0.05652 0.26998 0.0
C783 C 0.29395 0.03735 0.24616 0.0
N784 N 0.25977 0.06969 0.30752 0.0
N785 N 0.2537 0.03197 0.20561 0.0
H786 H 0.35954 0.0243 0.24651 0.0
H787 H 0.33012 0.01457 0.21916 0.0
H788 H 0.22513 0.03186 0.19452 0.0
H789 H 0.28142 0.02777 0.19469 0.0
H790 H 0.23431 0.07993 0.31606 0.0
H791 H 0.28848 0.07035 0.31845 0.0
H792 H 0.1756 0.06619 0.30207 0.0
H793 H 0.14823 0.06207 0.2726 0.0
C794 C 0.75842 0.46185 0.2804 0.0
C795 C 0.71945 0.45367 0.26791 0.0
C796 C 0.75973 0.44475 0.2275 0.0
C797 C 0.79864 0.45317 0.23991 0.0
N798 N 0.83453 0.47412 0.27601 0.0
N799 N 0.68068 0.44192 0.22871 0.0
C800 C 0.79776 0.46316 0.26572 0.0
C801 C 0.7194 0.44663 0.24112 0.0
N802 N 0.75803 0.46743 0.30653 0.0
N803 N 0.76168 0.43402 0.2031 0.0
H804 H 0.65066 0.44267 0.23825 0.0
H805 H 0.67776 0.43925 0.20862 0.0
H806 H 0.79037 0.43307 0.1922 0.0
H807 H 0.73559 0.42468 0.19416 0.0
H808 H 0.78605 0.4705 0.31759 0.0
H809 H 0.72955 0.46757 0.31767 0.0
H810 H 0.83519 0.48408 0.29368 0.0
H811 H 0.86399 0.47503 0.26587 0.0
C812 C 0.24746 0.96422 0.77787 0.0
C813 C 0.21025 0.95225 0.76667 0.0
C814 C 0.25286 0.93976 0.72816 0.0
C815 C 0.28982 0.95231 0.73904 0.0
N816 N 0.3209 0.98056 0.77146 0.0
N817 N 0.17451 0.93328 0.72938 0.0
C818 C 0.28662 0.96586 0.76306 0.0
C819 C 0.21204 0.94151 0.7412 0.0
N820 N 0.2458 0.97309 0.80303 0.0
N821 N 0.25724 0.92529 0.70595 0.0
H822 H 0.14411 0.93415 0.73848 0.0
H823 H 0.17274 0.92768 0.70987 0.0
H824 H 0.28639 0.92392 0.69555 0.0
H825 H 0.23294 0.9132 0.69875 0.0
H826 H 0.27306 0.97925 0.81343 0.0
H827 H 0.21739 0.9728 0.81422 0.0
H828 H 0.31925 0.993 0.78741 0.0
H829 H 0.35015 0.98194 0.76116 0.0
C830 C 0.72402 0.53532 0.7625 0.0
C831 C 0.72011 0.54966 0.73902 0.0
C832 C 0.79756 0.56128 0.74137 0.0
C833 C 0.79994 0.54973 0.76647 0.0
N834 N 0.76553 0.52712 0.80206 0.0
N835 N 0.75152 0.57786 0.70663 0.0
C836 C 0.76329 0.53688 0.77727 0.0
C837 C 0.75657 0.5629 0.72844 0.0
N838 N 0.69024 0.52002 0.77048 0.0
N839 N 0.83469 0.57039 0.72983 0.0
H840 H 0.72233 0.57901 0.69621 0.0
H841 H 0.77532 0.59044 0.69972 0.0
H842 H 0.86516 0.56962 0.73888 0.0
H843 H 0.83613 0.57672 0.71055 0.0
H844 H 0.6924 0.50707 0.78596 0.0
H845 H 0.66089 0.51873 0.76023 0.0
H846 H 0.73862 0.52025 0.81229 0.0
H847 H 0.79406 0.52733 0.81318 0.0
C848 C 0.744 0.96599 0.7346 0.0
C849 C 0.71128 0.94782 0.74136 0.0
C850 C 0.7589 0.92928 0.77503 0.0
C851 C 0.79116 0.94792 0.76879 0.0
N852 N 0.81304 0.98628 0.74573 0.0
N853 N 0.68409 0.91475 0.77015 0.0
C854 C 0.78324 0.967 0.74949 0.0
C855 C 0.7177 0.93025 0.76228 0.0
N856 N 0.7379 0.98179 0.7135 0.0
N857 N 0.76824 0.91017 0.79262 0.0
H858 H 0.65393 0.91437 0.76075 0.0
H859 H 0.68476 0.90357 0.78703 0.0
H860 H 0.79736 0.90938 0.80314 0.0
H861 H 0.74842 0.89419 0.79577 0.0
H862 H 0.76217 0.99341 0.70558 0.0
H863 H 0.7089 0.98227 0.70283 0.0
H864 H 0.80751 0.00232 0.73398 0.0
H865 H 0.84254 0.9872 0.75587 0.0
C866 C 0.26232 0.54081 0.7327 0.0
C867 C 0.2978 0.55562 0.74232 0.0
C868 C 0.25327 0.57068 0.77906 0.0
C869 C 0.2183 0.5551 0.77001 0.0
N870 N 0.19115 0.52204 0.74119 0.0
N871 N 0.33044 0.58077 0.77679 0.0
C872 C 0.22336 0.53912 0.7477 0.0
C873 C 0.29428 0.56937 0.7662 0.0
N874 N 0.26538 0.52913 0.7088 0.0
N875 N 0.24678 0.58739 0.7994 0.0
H876 H 0.36091 0.58039 0.76776 0.0
H877 H 0.33126 0.58876 0.79546 0.0
H878 H 0.21753 0.5885 0.80973 0.0
H879 H 0.26921 0.60143 0.80494 0.0
H880 H 0.23913 0.52053 0.69927 0.0
H881 H 0.29373 0.52948 0.69755 0.0
H882 H 0.19453 0.50795 0.72683 0.0
H883 H 0.16199 0.52059 0.75158 0.0
C884 C 0.72017 0.0667 0.24394 0.0
C885 C 0.71641 0.05325 0.26797 0.0
C886 C 0.79129 0.03719 0.26336 0.0
C887 C 0.79654 0.05294 0.24092 0.0
N888 N 0.76805 0.08469 0.21095 0.0
N889 N 0.74847 0.02726 0.30197 0.0
C890 C 0.76143 0.06813 0.23139 0.0
C891 C 0.75194 0.03877 0.27802 0.0
N892 N 0.68404 0.07779 0.23299 0.0
N893 N 0.82368 0.0204 0.27032 0.0
H894 H 0.71974 0.02738 0.31288 0.0
H895 H 0.77465 0.01896 0.31182 0.0
H896 H 0.85305 0.019 0.26014 0.0
H897 H 0.82029 0.00649 0.28483 0.0
H898 H 0.68343 0.08552 0.21422 0.0
H899 H 0.65343 0.07739 0.24185 0.0
H900 H 0.74542 0.09847 0.20504 0.0
H901 H 0.79755 0.08598 0.20091 0.0
C902 C 0.22209 0.43984 0.26972 0.0
C903 C 0.21926 0.45115 0.24454 0.0
C904 C 0.29497 0.46608 0.24809 0.0
C905 C 0.29926 0.45218 0.27183 0.0
N906 N 0.26876 0.42372 0.30434 0.0
N907 N 0.25304 0.47341 0.20851 0.0
C908 C 0.26321 0.43863 0.28253 0.0
C909 C 0.25566 0.46399 0.23343 0.0
N910 N 0.18526 0.43056 0.28149 0.0
N911 N 0.32828 0.48161 0.23987 0.0
H912 H 0.22442 0.47288 0.19748 0.0
H913 H 0.27977 0.48027 0.19809 0.0
H914 H 0.35758 0.48339 0.25009 0.0
H915 H 0.32573 0.49429 0.22417 0.0
H916 H 0.18414 0.42459 0.30089 0.0
H917 H 0.15472 0.43081 0.27249 0.0
H918 H 0.24526 0.41099 0.31133 0.0
H919 H 0.29816 0.4226 0.31454 0.0
C920 C 1.00636 0.02882 0.00832 0.0
C921 C 1.00491 0.01226 0.03039 0.0
C922 C 1.00582 0.97434 1.0017 0.0
C923 C 1.00364 0.99091 0.97965 0.0
N924 N 0.99652 0.03359 0.96148 0.0
N925 N 0.99795 0.96962 0.04866 0.0
C926 C 1.0025 0.01809 0.98282 0.0
C927 C 1.00324 0.98508 0.02724 0.0
N928 N 0.0125 0.05473 0.01177 0.0
N929 N 0.01143 0.94839 0.99816 0.0
H930 H 0.99685 0.97677 0.06771 0.0
H931 H 0.99152 0.94993 0.04754 0.0
H932 H 0.01268 0.93978 0.97974 0.0
H933 H 0.01811 0.93559 0.01331 0.0
H934 H 0.01867 0.06751 0.99653 0.0
H935 H 0.0147 0.06333 0.03017 0.0
H936 H 0.99045 0.05331 0.96269 0.0
H937 H 0.99449 0.02643 0.94245 0.0
C938 C 0.99867 0.52666 1.00234 0.0
C939 C 1.00613 0.51061 0.9803 0.0
C940 C 0.01068 0.47258 0.00871 0.0
C941 C 1.00651 0.48889 0.03086 0.0
N942 N 1.001 0.53144 0.04955 0.0
N943 N 0.02355 0.46903 0.96201 0.0
C944 C 1.00164 0.51595 0.0279 0.0
C945 C 0.01325 0.48373 0.98334 0.0
N946 N 0.98791 0.55202 0.99875 0.0
N947 N 0.01139 0.44638 0.01196 0.0
H948 H 0.02433 0.47638 0.94303 0.0
H949 H 0.03406 0.44998 0.96313 0.0
H950 H 0.01091 0.43756 0.03028 0.0
H951 H 0.00949 0.43326 0.99661 0.0
H952 H 0.97733 0.56412 0.01369 0.0
H953 H 0.98663 0.56071 0.98037 0.0
H954 H 1.00262 0.55148 0.04882 0.0
H955 H 1.00168 0.52422 0.06858 0.0
C956 C 0.51655 0.51873 0.48496 0.0
C957 C 0.51481 0.49153 0.48202 0.0
C958 C 0.51061 0.48619 0.52962 0.0
C959 C 0.51478 0.51329 0.5326 0.0
N960 N 0.52784 0.55525 0.51391 0.0
N961 N 0.51655 0.44898 0.50098 0.0
C962 C 0.51957 0.52954 0.51047 0.0
C963 C 0.51368 0.47513 0.50422 0.0
N964 N 0.51395 0.5342 0.46337 0.0
N965 N 0.50253 0.47114 0.55103 0.0
H966 H 0.51805 0.44019 0.48266 0.0
H967 H 0.52068 0.43606 0.51635 0.0
H968 H 0.5013 0.47848 0.57001 0.0
H969 H 0.49414 0.45172 0.54994 0.0
H970 H 0.51001 0.55412 0.46423 0.0
H971 H 0.51268 0.52696 0.44435 0.0
H972 H 0.53647 0.56767 0.49879 0.0
H973 H 0.52923 0.56396 0.53228 0.0
C974 C 0.46677 0.00756 0.52135 0.0
C975 C 0.49888 0.98909 0.52832 0.0
C976 C 0.53429 0.99436 0.48568 0.0
C977 C 0.50064 0.01163 0.47814 0.0
N978 N 0.43124 0.03172 0.48673 0.0
N979 N 0.55907 0.96168 0.51621 0.0
C980 C 0.46578 0.01738 0.4954 0.0
C981 C 0.53148 0.98154 0.51019 0.0
N982 N 0.43805 0.01626 0.5398 0.0
N983 N 0.5696 0.99088 0.46975 0.0
H984 H 0.55833 0.95208 0.53412 0.0
H985 H 0.5804 0.95334 0.50284 0.0
H986 H 0.57245 0.99959 0.45145 0.0
H987 H 0.59753 0.9809 0.47536 0.0
H988 H 0.41707 0.03178 0.53685 0.0
H989 H 0.43732 0.00919 0.55888 0.0
H990 H 0.40265 0.03432 0.49735 0.0
H991 H 0.42964 0.03939 0.46791 0.0
loop_
_geom_bond_atom_site_label_1
_geom_bond_atom_site_label_2
_geom_bond_distance
_geom_bond_site_symmetry_2
_ccdc_geom_bond_type
Li0 N17 1.990 . S
Li0 O60 1.956 . S
Li0 O61 1.970 1_455 S
Li0 O62 1.961 1_455 S
Li1 N25 1.990 . S
Li1 O60 1.970 . S
Li1 O61 1.941 1_455 S
Li1 O63 1.961 . S
Li2 N47 1.991 . S
Li2 O60 1.945 1_655 S
Li2 O62 1.971 . S
Li2 O63 1.970 1_655 S
Li3 N53 1.990 . S
Li3 O61 1.975 . S
Li3 O62 1.970 . S
Li3 O63 1.956 1_655 S
C4 C6 1.348 . S
C4 C7 1.356 . S
C4 O60 1.325 . S
N5 C8 1.314 . S
N5 C9 1.279 . S
C6 C4 1.348 . S
C6 C8 1.353 . S
C6 H64 0.929 . S
C7 C4 1.356 . S
C7 C9 1.358 . S
C7 H65 0.930 . S
C8 N5 1.314 . S
C8 C6 1.353 . S
C8 H66 0.930 . S
C9 N5 1.279 . S
C9 C7 1.358 . S
C9 H67 0.930 . S
C10 C13 1.349 . S
C10 C14 1.355 1_455 S
C10 O61 1.324 1_455 S
C11 N12 1.279 1_655 S
C11 C14 1.358 . S
C11 H68 0.930 . S
N12 C11 1.279 1_455 S
N12 C15 1.314 . S
C13 C10 1.349 . S
C13 C15 1.353 . S
C13 H69 0.929 . S
C14 C10 1.355 1_655 S
C14 C11 1.358 . S
C14 H70 0.930 . S
C15 N12 1.314 . S
C15 C13 1.353 . S
C15 H71 0.930 . S
C16 N17 1.314 1_655 S
C16 C21 1.353 . S
C16 H22 0.930 . S
N17 Li0 1.990 . S
N17 C16 1.314 1_455 S
N17 C19 1.279 . S
C18 C19 1.358 . S
C18 C20 1.366 . S
C18 H72 0.930 . S
C19 N17 1.279 . S
C19 C18 1.358 . S
C19 H23 0.930 . S
C20 C18 1.366 . S
C20 C21 1.337 1_455 S
C21 C16 1.353 . S
C21 C20 1.337 1_655 S
C21 H73 0.929 . S
H22 C16 0.930 . S
H23 C19 0.930 . S
C24 N25 1.314 . S
C24 C26 1.353 . S
C24 H30 0.930 . S
N25 Li1 1.990 . S
N25 C24 1.314 . S
N25 C28 1.279 . S
C26 C24 1.353 . S
C26 C29 1.348 . S
C26 H74 0.929 . S
C27 C28 1.358 . S
C27 C29 1.356 . S
C27 H75 0.930 . S
C28 N25 1.279 . S
C28 C27 1.358 . S
C28 H31 0.930 . S
C29 C26 1.348 . S
C29 C27 1.356 . S
H30 C24 0.930 . S
H31 C28 0.930 . S
C32 C34 1.348 . S
C32 C35 1.356 . S
C32 O62 1.325 . S
N33 C36 1.314 . S
N33 C37 1.279 . S
C34 C32 1.348 . S
C34 C36 1.353 . S
C34 H76 0.929 . S
C35 C32 1.356 . S
C35 C37 1.358 . S
C35 H77 0.930 . S
C36 N33 1.314 . S
C36 C34 1.353 . S
C36 H78 0.930 . S
C37 N33 1.279 . S
C37 C35 1.358 . S
C37 H79 0.930 . S
C38 C39 1.344 1_445 S
C38 C40 1.359 . S
C38 O63 1.325 . S
C39 C38 1.344 1_665 S
C39 C41 1.353 . S
C39 H80 0.924 1_565 S
C40 C38 1.359 . S
C40 C42 1.358 1_545 S
C40 H81 0.930 . S
C41 C39 1.353 . S
C41 N43 1.314 . S
C41 H82 0.930 . S
C42 C40 1.358 1_565 S
C42 N43 1.279 1_455 S
C42 H83 0.930 . S
N43 C41 1.314 . S
N43 C42 1.279 1_655 S
C44 C46 1.353 . S
C44 N47 1.314 1_455 S
C44 H50 0.930 . S
C45 N47 1.279 . S
C45 C48 1.358 . S
C45 H51 0.930 . S
C46 C44 1.353 . S
C46 C49 1.354 . S
C46 H84 0.929 . S
N47 Li2 1.991 . S
N47 C44 1.314 1_655 S
N47 C45 1.279 . S
C48 C45 1.358 . S
C48 C49 1.350 1_655 S
C48 H85 0.930 . S
C49 C46 1.354 . S
C49 C48 1.350 1_455 S
H50 C44 0.930 . S
H51 C45 0.930 . S
C52 N53 1.314 . S
C52 C54 1.353 . S
C52 H58 0.930 . S
N53 Li3 1.990 . S
N53 C52 1.314 . S
N53 C56 1.279 . S
C54 C52 1.353 . S
C54 C57 1.348 . S
C54 H86 0.929 . S
C55 C56 1.358 . S
C55 C57 1.356 . S
C55 H87 0.930 . S
C56 N53 1.279 . S
C56 C55 1.358 . S
C56 H59 0.930 . S
C57 C54 1.348 . S
C57 C55 1.356 . S
H58 C52 0.930 . S
H59 C56 0.930 . S
O60 Li0 1.956 . S
O60 Li1 1.970 . S
O60 Li2 1.945 1_455 S
O60 C4 1.325 . S
O61 Li0 1.970 1_655 S
O61 Li1 1.941 1_655 S
O61 Li3 1.975 . S
O61 C10 1.324 1_655 S
O62 Li0 1.961 1_655 S
O62 Li2 1.971 . S
O62 Li3 1.970 . S
O62 C32 1.325 . S
O63 Li1 1.961 . S
O63 Li2 1.970 1_455 S
O63 Li3 1.956 1_455 S
O63 C38 1.325 . S
H64 C6 0.929 . S
H65 C7 0.930 . S
H66 C8 0.930 . S
H67 C9 0.930 . S
H68 C11 0.930 . S
H69 C13 0.929 . S
H70 C14 0.930 . S
H71 C15 0.930 . S
H72 C18 0.930 . S
H73 C21 0.929 . S
H74 C26 0.929 . S
H75 C27 0.930 . S
H76 C34 0.929 . S
H77 C35 0.930 . S
H78 C36 0.930 . S
H79 C37 0.930 . S
H80 C39 0.924 1_545 S
H81 C40 0.930 . S
H82 C41 0.930 . S
H83 C42 0.930 . S
H84 C46 0.929 . S
H85 C48 0.930 . S
H86 C54 0.929 . S
H87 C55 0.930 . S
Li88 N105 1.990 . S
Li88 O148 1.956 . S
Li88 O149 1.970 1_455 S
Li88 O150 1.961 1_455 S
Li89 N113 1.990 . S
Li89 O148 1.970 . S
Li89 O149 1.956 1_455 S
Li89 O151 1.961 . S
Li90 N135 1.990 . S
Li90 O148 1.961 1_655 S
Li90 O150 1.956 . S
Li90 O151 1.970 1_655 S
Li91 N141 1.990 . S
Li91 O149 1.961 . S
Li91 O150 1.970 . S
Li91 O151 1.956 1_655 S
C92 C94 1.348 . S
C92 C95 1.356 . S
C92 O148 1.325 . S
N93 C96 1.314 . S
N93 C97 1.279 . S
C94 C92 1.348 . S
C94 C96 1.353 . S
C94 H152 0.929 . S
C95 C92 1.356 . S
C95 C97 1.358 . S
C95 H153 0.930 . S
C96 N93 1.314 . S
C96 C94 1.353 . S
C96 H154 0.930 . S
C97 N93 1.279 . S
C97 C95 1.358 . S
C97 H155 0.930 . S
C98 C101 1.347 . S
C98 C102 1.356 1_455 S
C98 O149 1.325 1_455 S
C99 N100 1.279 1_655 S
C99 C102 1.358 . S
C99 H156 0.930 . S
N100 C99 1.279 1_455 S
N100 C103 1.314 . S
C101 C98 1.347 . S
C101 C103 1.353 . S
C101 H157 0.929 . S
C102 C98 1.356 1_655 S
C102 C99 1.358 . S
C102 H158 0.930 . S
C103 N100 1.314 . S
C103 C101 1.353 . S
C103 H159 0.930 . S
C104 N105 1.314 1_655 S
C104 C109 1.353 . S
C104 H110 0.930 . S
N105 Li88 1.990 . S
N105 C104 1.314 1_455 S
N105 C107 1.279 . S
C106 C107 1.358 . S
C106 C108 1.359 . S
C106 H160 0.930 . S
C107 N105 1.279 . S
C107 C106 1.358 . S
C107 H111 0.930 . S
C108 C106 1.359 . S
C108 C109 1.344 1_455 S
C109 C104 1.353 . S
C109 C108 1.344 1_655 S
C109 H161 0.929 . S
H110 C104 0.930 . S
H111 C107 0.930 . S
C112 N113 1.314 . S
C112 C114 1.353 . S
C112 H118 0.930 . S
N113 Li89 1.990 . S
N113 C112 1.314 . S
N113 C116 1.279 . S
C114 C112 1.353 . S
C114 C117 1.348 . S
C114 H162 0.929 . S
C115 C116 1.358 . S
C115 C117 1.356 . S
C115 H163 0.930 . S
C116 N113 1.279 . S
C116 C115 1.358 . S
C116 H119 0.930 . S
C117 C114 1.348 . S
C117 C115 1.356 . S
H118 C112 0.930 . S
H119 C116 0.930 . S
C120 C122 1.348 . S
C120 C123 1.356 . S
C120 O150 1.325 . S
N121 C124 1.314 . S
N121 C125 1.279 . S
C122 C120 1.348 . S
C122 C124 1.353 . S
C122 H164 0.929 . S
C123 C120 1.356 . S
C123 C125 1.358 . S
C123 H165 0.930 . S
C124 N121 1.314 . S
C124 C122 1.353 . S
C124 H166 0.930 . S
C125 N121 1.279 . S
C125 C123 1.358 . S
C125 H167 0.930 . S
C126 C127 1.346 1_455 S
C126 C128 1.357 . S
C126 O151 1.325 . S
C127 C126 1.346 1_655 S
C127 C129 1.353 . S
C127 H168 0.929 . S
C128 C126 1.357 . S
C128 C130 1.358 . S
C128 H169 0.930 . S
C129 C127 1.353 . S
C129 N131 1.314 . S
C129 H170 0.930 . S
C130 C128 1.358 . S
C130 N131 1.279 1_455 S
C130 H171 0.930 . S
N131 C129 1.314 . S
N131 C130 1.279 1_655 S
C132 C134 1.353 . S
C132 N135 1.314 1_455 S
C132 H138 0.930 . S
C133 N135 1.279 . S
C133 C136 1.358 . S
C133 H139 0.930 . S
C134 C132 1.353 . S
C134 C137 1.347 . S
C134 H172 0.929 . S
N135 Li90 1.990 . S
N135 C132 1.314 1_655 S
N135 C133 1.279 . S
C136 C133 1.358 . S
C136 C137 1.357 1_655 S
C136 H173 0.930 . S
C137 C134 1.347 . S
C137 C136 1.357 1_455 S
H138 C132 0.930 . S
H139 C133 0.930 . S
C140 N141 1.314 . S
C140 C142 1.353 . S
C140 H146 0.930 . S
N141 Li91 1.990 . S
N141 C140 1.314 . S
N141 C144 1.279 . S
C142 C140 1.353 . S
C142 C145 1.348 . S
C142 H174 0.929 . S
C143 C144 1.358 . S
C143 C145 1.356 . S
C143 H175 0.930 . S
C144 N141 1.279 . S
C144 C143 1.358 . S
C144 H147 0.930 . S
C145 C142 1.348 . S
C145 C143 1.356 . S
H146 C140 0.930 . S
H147 C144 0.930 . S
O148 Li88 1.956 . S
O148 Li89 1.970 . S
O148 Li90 1.961 1_455 S
O148 C92 1.325 . S
O149 Li88 1.970 1_655 S
O149 Li89 1.956 1_655 S
O149 Li91 1.961 . S
O149 C98 1.325 1_655 S
O150 Li88 1.961 1_655 S
O150 Li90 1.956 . S
O150 Li91 1.970 . S
O150 C120 1.325 . S
O151 Li89 1.961 . S
O151 Li90 1.970 1_455 S
O151 Li91 1.956 1_455 S
O151 C126 1.325 . S
H152 C94 0.929 . S
H153 C95 0.930 . S
H154 C96 0.930 . S
H155 C97 0.930 . S
H156 C99 0.930 . S
H157 C101 0.929 . S
H158 C102 0.930 . S
H159 C103 0.930 . S
H160 C106 0.930 . S
H161 C109 0.929 . S
H162 C114 0.929 . S
H163 C115 0.930 . S
H164 C122 0.929 . S
H165 C123 0.930 . S
H166 C124 0.930 . S
H167 C125 0.930 . S
H168 C127 0.929 . S
H169 C128 0.930 . S
H170 C129 0.930 . S
H171 C130 0.930 . S
H172 C134 0.929 . S
H173 C136 0.930 . S
H174 C142 0.929 . S
H175 C143 0.930 . S
Li176 N193 1.991 . S
Li176 O236 1.971 . S
Li176 O237 1.970 1_655 S
Li176 O238 1.945 1_655 S
Li177 N201 1.990 . S
Li177 O236 1.970 . S
Li177 O237 1.956 1_655 S
Li177 O239 1.975 . S
Li178 N223 1.990 . S
Li178 O236 1.961 1_455 S
Li178 O238 1.956 . S
Li178 O239 1.970 1_455 S
Li179 N229 1.990 . S
Li179 O237 1.961 . S
Li179 O238 1.970 . S
Li179 O239 1.941 1_455 S
C180 C182 1.348 . S
C180 C183 1.356 . S
C180 O236 1.325 . S
N181 C184 1.314 . S
N181 C185 1.279 . S
C182 C180 1.348 . S
C182 C184 1.353 . S
C182 H240 0.929 . S
C183 C180 1.356 . S
C183 C185 1.358 . S
C183 H241 0.930 . S
C184 N181 1.314 . S
C184 C182 1.353 . S
C184 H242 0.930 . S
C185 N181 1.279 . S
C185 C183 1.358 . S
C185 H243 0.930 . S
C186 C189 1.344 1_465 S
C186 C190 1.359 . S
C186 O237 1.325 . S
C187 N188 1.279 1_455 S
C187 C190 1.358 1_545 S
C187 H244 0.930 . S
N188 C187 1.279 1_655 S
N188 C191 1.314 . S
C189 C186 1.344 1_645 S
C189 C191 1.353 . S
C189 H245 0.924 1_545 S
C190 C186 1.359 . S
C190 C187 1.358 1_565 S
C190 H246 0.930 . S
C191 N188 1.314 . S
C191 C189 1.353 . S
C191 H247 0.930 . S
C192 N193 1.314 1_455 S
C192 C197 1.353 . S
C192 H198 0.930 . S
N193 Li176 1.991 . S
N193 C192 1.314 1_655 S
N193 C195 1.279 . S
C194 C195 1.358 . S
C194 C196 1.350 1_655 S
C194 H248 0.930 . S
C195 N193 1.279 . S
C195 C194 1.358 . S
C195 H199 0.930 . S
C196 C194 1.350 1_455 S
C196 C197 1.354 . S
C197 C192 1.353 . S
C197 C196 1.354 . S
C197 H249 0.929 . S
H198 C192 0.930 . S
H199 C195 0.930 . S
C200 N201 1.314 . S
C200 C202 1.353 . S
C200 H206 0.930 . S
N201 Li177 1.990 . S
N201 C200 1.314 . S
N201 C204 1.279 . S
C202 C200 1.353 . S
C202 C205 1.348 . S
C202 H250 0.929 . S
C203 C204 1.358 . S
C203 C205 1.356 . S
C203 H251 0.930 . S
C204 N201 1.279 . S
C204 C203 1.358 . S
C204 H207 0.930 . S
C205 C202 1.348 . S
C205 C203 1.356 . S
H206 C200 0.930 . S
H207 C204 0.930 . S
C208 C210 1.348 . S
C208 C211 1.356 . S
C208 O238 1.325 . S
N209 C212 1.314 . S
N209 C213 1.279 . S
C210 C208 1.348 . S
C210 C212 1.353 . S
C210 H252 0.929 . S
C211 C208 1.356 . S
C211 C213 1.358 . S
C211 H253 0.930 . S
C212 N209 1.314 . S
C212 C210 1.353 . S
C212 H254 0.930 . S
C213 N209 1.279 . S
C213 C211 1.358 . S
C213 H255 0.930 . S
C214 C215 1.349 . S
C214 C216 1.355 1_455 S
C214 O239 1.324 1_455 S
C215 C214 1.349 . S
C215 C217 1.353 . S
C215 H256 0.929 . S
C216 C214 1.355 1_655 S
C216 C218 1.358 . S
C216 H257 0.930 . S
C217 C215 1.353 . S
C217 N219 1.314 . S
C217 H258 0.930 . S
C218 C216 1.358 . S
C218 N219 1.279 1_655 S
C218 H259 0.930 . S
N219 C217 1.314 . S
N219 C218 1.279 1_455 S
C220 C222 1.353 . S
C220 N223 1.314 1_655 S
C220 H226 0.930 . S
C221 N223 1.279 . S
C221 C224 1.358 . S
C221 H227 0.930 . S
C222 C220 1.353 . S
C222 C225 1.337 1_655 S
C222 H260 0.929 . S
N223 Li178 1.990 . S
N223 C220 1.314 1_455 S
N223 C221 1.279 . S
C224 C221 1.358 . S
C224 C225 1.366 . S
C224 H261 0.930 . S
C225 C222 1.337 1_455 S
C225 C224 1.366 . S
H226 C220 0.930 . S
H227 C221 0.930 . S
C228 N229 1.314 . S
C228 C230 1.353 . S
C228 H234 0.930 . S
N229 Li179 1.990 . S
N229 C228 1.314 . S
N229 C232 1.279 . S
C230 C228 1.353 . S
C230 C233 1.348 . S
C230 H262 0.929 . S
C231 C232 1.358 . S
C231 C233 1.356 . S
C231 H263 0.930 . S
C232 N229 1.279 . S
C232 C231 1.358 . S
C232 H235 0.930 . S
C233 C230 1.348 . S
C233 C231 1.356 . S
H234 C228 0.930 . S
H235 C232 0.930 . S
O236 Li176 1.971 . S
O236 Li177 1.970 . S
O236 Li178 1.961 1_655 S
O236 C180 1.325 . S
O237 Li176 1.970 1_455 S
O237 Li177 1.956 1_455 S
O237 Li179 1.961 . S
O237 C186 1.325 . S
O238 Li176 1.945 1_455 S
O238 Li178 1.956 . S
O238 Li179 1.970 . S
O238 C208 1.325 . S
O239 Li177 1.975 . S
O239 Li178 1.970 1_655 S
O239 Li179 1.941 1_655 S
O239 C214 1.324 1_655 S
H240 C182 0.929 . S
H241 C183 0.930 . S
H242 C184 0.930 . S
H243 C185 0.930 . S
H244 C187 0.930 . S
H245 C189 0.924 1_565 S
H246 C190 0.930 . S
H247 C191 0.930 . S
H248 C194 0.930 . S
H249 C197 0.929 . S
H250 C202 0.929 . S
H251 C203 0.930 . S
H252 C210 0.929 . S
H253 C211 0.930 . S
H254 C212 0.930 . S
H255 C213 0.930 . S
H256 C215 0.929 . S
H257 C216 0.930 . S
H258 C217 0.930 . S
H259 C218 0.930 . S
H260 C222 0.929 . S
H261 C224 0.930 . S
H262 C230 0.929 . S
H263 C231 0.930 . S
Li264 N281 1.990 . S
Li264 O324 1.956 1_655 S
Li264 O325 1.970 . S
Li264 O326 1.961 . S
Li265 N289 1.990 . S
Li265 O324 1.970 1_655 S
Li265 O325 1.956 . S
Li265 O327 1.961 1_655 S
Li266 N311 1.990 . S
Li266 O324 1.961 . S
Li266 O326 1.956 1_455 S
Li266 O327 1.970 . S
Li267 N317 1.990 . S
Li267 O325 1.961 1_455 S
Li267 O326 1.970 1_455 S
Li267 O327 1.956 . S
C268 C270 1.346 1_455 S
C268 C271 1.357 . S
C268 O324 1.325 . S
N269 C272 1.314 . S
N269 C273 1.279 1_655 S
C270 C268 1.346 1_655 S
C270 C272 1.353 . S
C270 H328 0.929 . S
C271 C268 1.357 . S
C271 C273 1.358 . S
C271 H329 0.930 . S
C272 N269 1.314 . S
C272 C270 1.353 . S
C272 H330 0.930 . S
C273 N269 1.279 1_455 S
C273 C271 1.358 . S
C273 H331 0.930 . S
C274 C277 1.348 . S
C274 C278 1.356 . S
C274 O325 1.325 . S
C275 N276 1.279 . S
C275 C278 1.358 . S
C275 H332 0.930 . S
N276 C275 1.279 . S
N276 C279 1.314 . S
C277 C274 1.348 . S
C277 C279 1.353 . S
C277 H333 0.929 . S
C278 C274 1.356 . S
C278 C275 1.358 . S
C278 H334 0.930 . S
C279 N276 1.314 . S
C279 C277 1.353 . S
C279 H335 0.930 . S
C280 N281 1.314 . S
C280 C285 1.353 . S
C280 H286 0.930 . S
N281 Li264 1.990 . S
N281 C280 1.314 . S
N281 C283 1.279 . S
C282 C283 1.358 . S
C282 C284 1.356 . S
C282 H336 0.930 . S
C283 N281 1.279 . S
C283 C282 1.358 . S
C283 H287 0.930 . S
C284 C282 1.356 . S
C284 C285 1.348 . S
C285 C280 1.353 . S
C285 C284 1.348 . S
C285 H337 0.929 . S
H286 C280 0.930 . S
H287 C283 0.930 . S
C288 N289 1.314 1_455 S
C288 C290 1.353 . S
C288 H294 0.930 . S
N289 Li265 1.990 . S
N289 C288 1.314 1_655 S
N289 C292 1.279 . S
C290 C288 1.353 . S
C290 C293 1.347 . S
C290 H338 0.929 . S
C291 C292 1.358 . S
C291 C293 1.357 1_655 S
C291 H339 0.930 . S
C292 N289 1.279 . S
C292 C291 1.358 . S
C292 H295 0.930 . S
C293 C290 1.347 . S
C293 C291 1.357 1_455 S
H294 C288 0.930 . S
H295 C292 0.930 . S
C296 C298 1.347 . S
C296 C299 1.356 1_455 S
C296 O326 1.325 1_455 S
N297 C300 1.314 . S
N297 C301 1.279 1_455 S
C298 C296 1.347 . S
C298 C300 1.353 . S
C298 H340 0.929 . S
C299 C296 1.356 1_655 S
C299 C301 1.358 . S
C299 H341 0.930 . S
C300 N297 1.314 . S
C300 C298 1.353 . S
C300 H342 0.930 . S
C301 N297 1.279 1_655 S
C301 C299 1.358 . S
C301 H343 0.930 . S
C302 C303 1.348 . S
C302 C304 1.356 . S
C302 O327 1.325 . S
C303 C302 1.348 . S
C303 C305 1.353 . S
C303 H344 0.929 . S
C304 C302 1.356 . S
C304 C306 1.358 . S
C304 H345 0.930 . S
C305 C303 1.353 . S
C305 N307 1.314 . S
C305 H346 0.930 . S
C306 C304 1.358 . S
C306 N307 1.279 . S
C306 H347 0.930 . S
N307 C305 1.314 . S
N307 C306 1.279 . S
C308 C310 1.353 . S
C308 N311 1.314 . S
C308 H314 0.930 . S
C309 N311 1.279 . S
C309 C312 1.358 . S
C309 H315 0.930 . S
C310 C308 1.353 . S
C310 C313 1.348 . S
C310 H348 0.929 . S
N311 Li266 1.990 . S
N311 C308 1.314 . S
N311 C309 1.279 . S
C312 C309 1.358 . S
C312 C313 1.356 . S
C312 H349 0.930 . S
C313 C310 1.348 . S
C313 C312 1.356 . S
H314 C308 0.930 . S
H315 C309 0.930 . S
C316 N317 1.314 1_655 S
C316 C318 1.353 . S
C316 H322 0.930 . S
N317 Li267 1.990 . S
N317 C316 1.314 1_455 S
N317 C320 1.279 . S
C318 C316 1.353 . S
C318 C321 1.344 1_655 S
C318 H350 0.929 . S
C319 C320 1.358 . S
C319 C321 1.359 . S
C319 H351 0.930 . S
C320 N317 1.279 . S
C320 C319 1.358 . S
C320 H323 0.930 . S
C321 C318 1.344 1_455 S
C321 C319 1.359 . S
H322 C316 0.930 . S
H323 C320 0.930 . S
O324 Li264 1.956 1_455 S
O324 Li265 1.970 1_455 S
O324 Li266 1.961 . S
O324 C268 1.325 . S
O325 Li264 1.970 . S
O325 Li265 1.956 . S
O325 Li267 1.961 1_655 S
O325 C274 1.325 . S
O326 Li264 1.961 . S
O326 Li266 1.956 1_655 S
O326 Li267 1.970 1_655 S
O326 C296 1.325 1_655 S
O327 Li265 1.961 1_455 S
O327 Li266 1.970 . S
O327 Li267 1.956 . S
O327 C302 1.325 . S
H328 C270 0.929 . S
H329 C271 0.930 . S
H330 C272 0.930 . S
H331 C273 0.930 . S
H332 C275 0.930 . S
H333 C277 0.929 . S
H334 C278 0.930 . S
H335 C279 0.930 . S
H336 C282 0.930 . S
H337 C285 0.929 . S
H338 C290 0.929 . S
H339 C291 0.930 . S
H340 C298 0.929 . S
H341 C299 0.930 . S
H342 C300 0.930 . S
H343 C301 0.930 . S
H344 C303 0.929 . S
H345 C304 0.930 . S
H346 C305 0.930 . S
H347 C306 0.930 . S
H348 C310 0.929 . S
H349 C312 0.930 . S
H350 C318 0.929 . S
H351 C319 0.930 . S
Li352 N369 1.990 . S
Li352 O412 1.956 . S
Li352 O413 1.970 . S
Li352 O414 1.961 . S
Li353 N377 1.990 . S
Li353 O412 1.970 . S
Li353 O413 1.956 . S
Li353 O415 1.961 . S
Li354 N399 1.990 . S
Li354 O412 1.961 . S
Li354 O414 1.956 . S
Li354 O415 1.970 . S
Li355 N405 1.990 . S
Li355 O413 1.961 . S
Li355 O414 1.970 . S
Li355 O415 1.956 . S
C356 C358 1.348 . S
C356 C359 1.356 . S
C356 O412 1.325 . S
N357 C360 1.314 . S
N357 C361 1.279 . S
C358 C356 1.348 . S
C358 C360 1.353 . S
C358 H416 0.929 . S
C359 C356 1.356 . S
C359 C361 1.358 . S
C359 H417 0.930 . S
C360 N357 1.314 . S
C360 C358 1.353 . S
C360 H418 0.930 . S
C361 N357 1.279 . S
C361 C359 1.358 . S
C361 H419 0.930 . S
C362 C365 1.348 . S
C362 C366 1.356 . S
C362 O413 1.325 . S
C363 N364 1.279 . S
C363 C366 1.358 . S
C363 H420 0.930 . S
N364 C363 1.279 . S
N364 C367 1.314 . S
C365 C362 1.348 . S
C365 C367 1.353 . S
C365 H421 0.929 . S
C366 C362 1.356 . S
C366 C363 1.358 . S
C366 H422 0.930 . S
C367 N364 1.314 . S
C367 C365 1.353 . S
C367 H423 0.930 . S
C368 N369 1.314 . S
C368 C373 1.353 . S
C368 H374 0.930 . S
N369 Li352 1.990 . S
N369 C368 1.314 . S
N369 C371 1.279 . S
C370 C371 1.358 . S
C370 C372 1.356 . S
C370 H424 0.930 . S
C371 N369 1.279 . S
C371 C370 1.358 . S
C371 H375 0.930 . S
C372 C370 1.356 . S
C372 C373 1.348 . S
C373 C368 1.353 . S
C373 C372 1.348 . S
C373 H425 0.929 . S
H374 C368 0.930 . S
H375 C371 0.930 . S
C376 N377 1.314 . S
C376 C378 1.353 . S
C376 H382 0.930 . S
N377 Li353 1.990 . S
N377 C376 1.314 . S
N377 C380 1.279 . S
C378 C376 1.353 . S
C378 C381 1.348 . S
C378 H426 0.929 . S
C379 C380 1.358 . S
C379 C381 1.356 . S
C379 H427 0.930 . S
C380 N377 1.279 . S
C380 C379 1.358 . S
C380 H383 0.930 . S
C381 C378 1.348 . S
C381 C379 1.356 . S
H382 C376 0.930 . S
H383 C380 0.930 . S
C384 C386 1.348 . S
C384 C387 1.356 . S
C384 O414 1.325 . S
N385 C388 1.314 . S
N385 C389 1.279 . S
C386 C384 1.348 . S
C386 C388 1.353 . S
C386 H428 0.929 . S
C387 C384 1.356 . S
C387 C389 1.358 . S
C387 H429 0.930 . S
C388 N385 1.314 . S
C388 C386 1.353 . S
C388 H430 0.930 . S
C389 N385 1.279 . S
C389 C387 1.358 . S
C389 H431 0.930 . S
C390 C391 1.348 . S
C390 C392 1.356 . S
C390 O415 1.325 . S
C391 C390 1.348 . S
C391 C393 1.353 . S
C391 H432 0.929 . S
C392 C390 1.356 . S
C392 C394 1.358 . S
C392 H433 0.930 . S
C393 C391 1.353 . S
C393 N395 1.314 . S
C393 H434 0.930 . S
C394 C392 1.358 . S
C394 N395 1.279 . S
C394 H435 0.930 . S
N395 C393 1.314 . S
N395 C394 1.279 . S
C396 C398 1.353 . S
C396 N399 1.314 . S
C396 H402 0.930 . S
C397 N399 1.279 . S
C397 C400 1.358 . S
C397 H403 0.930 . S
C398 C396 1.353 . S
C398 C401 1.348 . S
C398 H436 0.929 . S
N399 Li354 1.990 . S
N399 C396 1.314 . S
N399 C397 1.279 . S
C400 C397 1.358 . S
C400 C401 1.356 . S
C400 H437 0.930 . S
C401 C398 1.348 . S
C401 C400 1.356 . S
H402 C396 0.930 . S
H403 C397 0.930 . S
C404 N405 1.314 . S
C404 C406 1.353 . S
C404 H410 0.930 . S
N405 Li355 1.990 . S
N405 C404 1.314 . S
N405 C408 1.279 . S
C406 C404 1.353 . S
C406 C409 1.348 . S
C406 H438 0.929 . S
C407 C408 1.358 . S
C407 C409 1.356 . S
C407 H439 0.930 . S
C408 N405 1.279 . S
C408 C407 1.358 . S
C408 H411 0.930 . S
C409 C406 1.348 . S
C409 C407 1.356 . S
H410 C404 0.930 . S
H411 C408 0.930 . S
O412 Li352 1.956 . S
O412 Li353 1.970 . S
O412 Li354 1.961 . S
O412 C356 1.325 . S
O413 Li352 1.970 . S
O413 Li353 1.956 . S
O413 Li355 1.961 . S
O413 C362 1.325 . S
O414 Li352 1.961 . S
O414 Li354 1.956 . S
O414 Li355 1.970 . S
O414 C384 1.325 . S
O415 Li353 1.961 . S
O415 Li354 1.970 . S
O415 Li355 1.956 . S
O415 C390 1.325 . S
H416 C358 0.929 . S
H417 C359 0.930 . S
H418 C360 0.930 . S
H419 C361 0.930 . S
H420 C363 0.930 . S
H421 C365 0.929 . S
H422 C366 0.930 . S
H423 C367 0.930 . S
H424 C370 0.930 . S
H425 C373 0.929 . S
H426 C378 0.929 . S
H427 C379 0.930 . S
H428 C386 0.929 . S
H429 C387 0.930 . S
H430 C388 0.930 . S
H431 C389 0.930 . S
H432 C391 0.929 . S
H433 C392 0.930 . S
H434 C393 0.930 . S
H435 C394 0.930 . S
H436 C398 0.929 . S
H437 C400 0.930 . S
H438 C406 0.929 . S
H439 C407 0.930 . S
Li440 N457 1.990 . S
Li440 O500 1.956 . S
Li440 O501 1.970 . S
Li440 O502 1.961 . S
Li441 N465 1.990 . S
Li441 O500 1.970 . S
Li441 O501 1.956 . S
Li441 O503 1.961 . S
Li442 N487 1.990 . S
Li442 O500 1.961 . S
Li442 O502 1.956 . S
Li442 O503 1.970 . S
Li443 N493 1.990 . S
Li443 O501 1.961 . S
Li443 O502 1.970 . S
Li443 O503 1.956 . S
C444 C446 1.348 . S
C444 C447 1.356 . S
C444 O500 1.325 . S
N445 C448 1.314 . S
N445 C449 1.279 . S
C446 C444 1.348 . S
C446 C448 1.353 . S
C446 H504 0.929 . S
C447 C444 1.356 . S
C447 C449 1.358 . S
C447 H505 0.930 . S
C448 N445 1.314 . S
C448 C446 1.353 . S
C448 H506 0.930 . S
C449 N445 1.279 . S
C449 C447 1.358 . S
C449 H507 0.930 . S
C450 C453 1.348 1_565 S
C450 C454 1.356 . S
C450 O501 1.325 . S
C451 N452 1.279 . S
C451 C454 1.358 1_545 S
C451 H508 0.930 . S
N452 C451 1.279 . S
N452 C455 1.314 . S
C453 C450 1.348 1_545 S
C453 C455 1.353 . S
C453 H509 0.924 1_545 S
C454 C450 1.356 . S
C454 C451 1.358 1_565 S
C454 H510 0.930 . S
C455 N452 1.314 . S
C455 C453 1.353 . S
C455 H511 0.930 . S
C456 N457 1.314 . S
C456 C461 1.353 . S
C456 H462 0.930 . S
N457 Li440 1.990 . S
N457 C456 1.314 . S
N457 C459 1.279 . S
C458 C459 1.358 . S
C458 C460 1.356 . S
C458 H512 0.930 . S
C459 N457 1.279 . S
C459 C458 1.358 . S
C459 H463 0.930 . S
C460 C458 1.356 . S
C460 C461 1.348 . S
C461 C456 1.353 . S
C461 C460 1.348 . S
C461 H513 0.929 . S
H462 C456 0.930 . S
H463 C459 0.930 . S
C464 N465 1.314 . S
C464 C466 1.353 . S
C464 H470 0.930 . S
N465 Li441 1.990 . S
N465 C464 1.314 . S
N465 C468 1.279 . S
C466 C464 1.353 . S
C466 C469 1.348 . S
C466 H514 0.929 . S
C467 C468 1.358 . S
C467 C469 1.356 . S
C467 H515 0.930 . S
C468 N465 1.279 . S
C468 C467 1.358 . S
C468 H471 0.930 . S
C469 C466 1.348 . S
C469 C467 1.356 . S
H470 C464 0.930 . S
H471 C468 0.930 . S
C472 C474 1.348 . S
C472 C475 1.356 . S
C472 O502 1.325 . S
N473 C476 1.314 . S
N473 C477 1.279 . S
C474 C472 1.348 . S
C474 C476 1.353 . S
C474 H516 0.929 . S
C475 C472 1.356 . S
C475 C477 1.358 . S
C475 H517 0.930 . S
C476 N473 1.314 . S
C476 C474 1.353 . S
C476 H518 0.930 . S
C477 N473 1.279 . S
C477 C475 1.358 . S
C477 H519 0.930 . S
C478 C479 1.348 . S
C478 C480 1.356 . S
C478 O503 1.325 . S
C479 C478 1.348 . S
C479 C481 1.353 . S
C479 H520 0.929 . S
C480 C478 1.356 . S
C480 C482 1.358 . S
C480 H521 0.930 . S
C481 C479 1.353 . S
C481 N483 1.314 . S
C481 H522 0.930 . S
C482 C480 1.358 . S
C482 N483 1.279 . S
C482 H523 0.930 . S
N483 C481 1.314 . S
N483 C482 1.279 . S
C484 C486 1.353 . S
C484 N487 1.314 . S
C484 H490 0.930 . S
C485 N487 1.279 . S
C485 C488 1.358 . S
C485 H491 0.930 . S
C486 C484 1.353 . S
C486 C489 1.348 . S
C486 H524 0.929 . S
N487 Li442 1.990 . S
N487 C484 1.314 . S
N487 C485 1.279 . S
C488 C485 1.358 . S
C488 C489 1.356 . S
C488 H525 0.930 . S
C489 C486 1.348 . S
C489 C488 1.356 . S
H490 C484 0.930 . S
H491 C485 0.930 . S
C492 N493 1.314 . S
C492 C494 1.353 . S
C492 H498 0.930 . S
N493 Li443 1.990 . S
N493 C492 1.314 . S
N493 C496 1.279 . S
C494 C492 1.353 . S
C494 C497 1.348 . S
C494 H526 0.929 . S
C495 C496 1.358 . S
C495 C497 1.356 . S
C495 H527 0.930 . S
C496 N493 1.279 . S
C496 C495 1.358 . S
C496 H499 0.930 . S
C497 C494 1.348 . S
C497 C495 1.356 . S
H498 C492 0.930 . S
H499 C496 0.930 . S
O500 Li440 1.956 . S
O500 Li441 1.970 . S
O500 Li442 1.961 . S
O500 C444 1.325 . S
O501 Li440 1.970 . S
O501 Li441 1.956 . S
O501 Li443 1.961 . S
O501 C450 1.325 . S
O502 Li440 1.961 . S
O502 Li442 1.956 . S
O502 Li443 1.970 . S
O502 C472 1.325 . S
O503 Li441 1.961 . S
O503 Li442 1.970 . S
O503 Li443 1.956 . S
O503 C478 1.325 . S
H504 C446 0.929 . S
H505 C447 0.930 . S
H506 C448 0.930 . S
H507 C449 0.930 . S
H508 C451 0.930 . S
H509 C453 0.924 1_565 S
H510 C454 0.930 . S
H511 C455 0.930 . S
H512 C458 0.930 . S
H513 C461 0.929 . S
H514 C466 0.929 . S
H515 C467 0.930 . S
H516 C474 0.929 . S
H517 C475 0.930 . S
H518 C476 0.930 . S
H519 C477 0.930 . S
H520 C479 0.929 . S
H521 C480 0.930 . S
H522 C481 0.930 . S
H523 C482 0.930 . S
H524 C486 0.929 . S
H525 C488 0.930 . S
H526 C494 0.929 . S
H527 C495 0.930 . S
Li528 N545 1.990 . S
Li528 O588 1.956 . S
Li528 O589 1.970 . S
Li528 O590 1.961 . S
Li529 N553 1.990 . S
Li529 O588 1.970 . S
Li529 O589 1.956 . S
Li529 O591 1.961 . S
Li530 N575 1.990 . S
Li530 O588 1.961 . S
Li530 O590 1.956 . S
Li530 O591 1.970 . S
Li531 N581 1.990 . S
Li531 O589 1.961 . S
Li531 O590 1.970 . S
Li531 O591 1.956 . S
C532 C534 1.348 . S
C532 C535 1.356 . S
C532 O588 1.325 . S
N533 C536 1.314 . S
N533 C537 1.279 . S
C534 C532 1.348 . S
C534 C536 1.353 . S
C534 H592 0.929 . S
C535 C532 1.356 . S
C535 C537 1.358 . S
C535 H593 0.930 . S
C536 N533 1.314 . S
C536 C534 1.353 . S
C536 H594 0.930 . S
C537 N533 1.279 . S
C537 C535 1.358 . S
C537 H595 0.930 . S
C538 C541 1.348 . S
C538 C542 1.356 . S
C538 O589 1.325 . S
C539 N540 1.279 . S
C539 C542 1.358 . S
C539 H596 0.930 . S
N540 C539 1.279 . S
N540 C543 1.314 . S
C541 C538 1.348 . S
C541 C543 1.353 . S
C541 H597 0.929 . S
C542 C538 1.356 . S
C542 C539 1.358 . S
C542 H598 0.930 . S
C543 N540 1.314 . S
C543 C541 1.353 . S
C543 H599 0.930 . S
C544 N545 1.314 . S
C544 C549 1.353 . S
C544 H550 0.930 . S
N545 Li528 1.990 . S
N545 C544 1.314 . S
N545 C547 1.279 . S
C546 C547 1.358 . S
C546 C548 1.356 . S
C546 H600 0.930 . S
C547 N545 1.279 . S
C547 C546 1.358 . S
C547 H551 0.930 . S
C548 C546 1.356 . S
C548 C549 1.348 . S
C549 C544 1.353 . S
C549 C548 1.348 . S
C549 H601 0.929 . S
H550 C544 0.930 . S
H551 C547 0.930 . S
C552 N553 1.314 . S
C552 C554 1.353 . S
C552 H558 0.930 . S
N553 Li529 1.990 . S
N553 C552 1.314 . S
N553 C556 1.279 . S
C554 C552 1.353 . S
C554 C557 1.348 . S
C554 H602 0.929 . S
C555 C556 1.358 . S
C555 C557 1.356 . S
C555 H603 0.930 . S
C556 N553 1.279 . S
C556 C555 1.358 . S
C556 H559 0.930 . S
C557 C554 1.348 . S
C557 C555 1.356 . S
H558 C552 0.930 . S
H559 C556 0.930 . S
C560 C562 1.348 . S
C560 C563 1.356 . S
C560 O590 1.325 . S
N561 C564 1.314 . S
N561 C565 1.279 . S
C562 C560 1.348 . S
C562 C564 1.353 . S
C562 H604 0.929 . S
C563 C560 1.356 . S
C563 C565 1.358 . S
C563 H605 0.930 . S
C564 N561 1.314 . S
C564 C562 1.353 . S
C564 H606 0.930 . S
C565 N561 1.279 . S
C565 C563 1.358 . S
C565 H607 0.930 . S
C566 C567 1.348 . S
C566 C568 1.356 . S
C566 O591 1.325 . S
C567 C566 1.348 . S
C567 C569 1.353 . S
C567 H608 0.929 . S
C568 C566 1.356 . S
C568 C570 1.358 . S
C568 H609 0.930 . S
C569 C567 1.353 . S
C569 N571 1.314 . S
C569 H610 0.930 . S
C570 C568 1.358 . S
C570 N571 1.279 . S
C570 H611 0.930 . S
N571 C569 1.314 . S
N571 C570 1.279 . S
C572 C574 1.353 . S
C572 N575 1.314 . S
C572 H578 0.930 . S
C573 N575 1.279 . S
C573 C576 1.358 . S
C573 H579 0.930 . S
C574 C572 1.353 . S
C574 C577 1.348 . S
C574 H612 0.929 . S
N575 Li530 1.990 . S
N575 C572 1.314 . S
N575 C573 1.279 . S
C576 C573 1.358 . S
C576 C577 1.356 . S
C576 H613 0.930 . S
C577 C574 1.348 . S
C577 C576 1.356 . S
H578 C572 0.930 . S
H579 C573 0.930 . S
C580 N581 1.314 . S
C580 C582 1.353 . S
C580 H586 0.930 . S
N581 Li531 1.990 . S
N581 C580 1.314 . S
N581 C584 1.279 . S
C582 C580 1.353 . S
C582 C585 1.348 . S
C582 H614 0.929 . S
C583 C584 1.358 . S
C583 C585 1.356 . S
C583 H615 0.930 . S
C584 N581 1.279 . S
C584 C583 1.358 . S
C584 H587 0.930 . S
C585 C582 1.348 . S
C585 C583 1.356 . S
H586 C580 0.930 . S
H587 C584 0.930 . S
O588 Li528 1.956 . S
O588 Li529 1.970 . S
O588 Li530 1.961 . S
O588 C532 1.325 . S
O589 Li528 1.970 . S
O589 Li529 1.956 . S
O589 Li531 1.961 . S
O589 C538 1.325 . S
O590 Li528 1.961 . S
O590 Li530 1.956 . S
O590 Li531 1.970 . S
O590 C560 1.325 . S
O591 Li529 1.961 . S
O591 Li530 1.970 . S
O591 Li531 1.956 . S
O591 C566 1.325 . S
H592 C534 0.929 . S
H593 C535 0.930 . S
H594 C536 0.930 . S
H595 C537 0.930 . S
H596 C539 0.930 . S
H597 C541 0.929 . S
H598 C542 0.930 . S
H599 C543 0.930 . S
H600 C546 0.930 . S
H601 C549 0.929 . S
H602 C554 0.929 . S
H603 C555 0.930 . S
H604 C562 0.929 . S
H605 C563 0.930 . S
H606 C564 0.930 . S
H607 C565 0.930 . S
H608 C567 0.929 . S
H609 C568 0.930 . S
H610 C569 0.930 . S
H611 C570 0.930 . S
H612 C574 0.929 . S
H613 C576 0.930 . S
H614 C582 0.929 . S
H615 C583 0.930 . S
Li616 N633 1.990 . S
Li616 O676 1.956 . S
Li616 O677 1.970 . S
Li616 O678 1.961 . S
Li617 N641 1.990 . S
Li617 O676 1.970 . S
Li617 O677 1.956 . S
Li617 O679 1.961 . S
Li618 N663 1.990 . S
Li618 O676 1.961 . S
Li618 O678 1.956 . S
Li618 O679 1.970 . S
Li619 N669 1.990 . S
Li619 O677 1.961 . S
Li619 O678 1.970 . S
Li619 O679 1.956 . S
C620 C622 1.348 . S
C620 C623 1.356 . S
C620 O676 1.325 . S
N621 C624 1.314 . S
N621 C625 1.279 . S
C622 C620 1.348 . S
C622 C624 1.353 . S
C622 H680 0.929 . S
C623 C620 1.356 . S
C623 C625 1.358 . S
C623 H681 0.930 . S
C624 N621 1.314 . S
C624 C622 1.353 . S
C624 H682 0.930 . S
C625 N621 1.279 . S
C625 C623 1.358 . S
C625 H683 0.930 . S
C626 C629 1.348 . S
C626 C630 1.356 . S
C626 O677 1.325 . S
C627 N628 1.279 . S
C627 C630 1.358 . S
C627 H684 0.930 . S
N628 C627 1.279 . S
N628 C631 1.314 . S
C629 C626 1.348 . S
C629 C631 1.353 . S
C629 H685 0.929 . S
C630 C626 1.356 . S
C630 C627 1.358 . S
C630 H686 0.930 . S
C631 N628 1.314 . S
C631 C629 1.353 . S
C631 H687 0.930 . S
C632 N633 1.314 . S
C632 C637 1.353 . S
C632 H638 0.930 . S
N633 Li616 1.990 . S
N633 C632 1.314 . S
N633 C635 1.279 . S
C634 C635 1.358 . S
C634 C636 1.356 . S
C634 H688 0.930 . S
C635 N633 1.279 . S
C635 C634 1.358 . S
C635 H639 0.930 . S
C636 C634 1.356 . S
C636 C637 1.348 . S
C637 C632 1.353 . S
C637 C636 1.348 . S
C637 H689 0.929 . S
H638 C632 0.930 . S
H639 C635 0.930 . S
C640 N641 1.314 . S
C640 C642 1.353 . S
C640 H646 0.930 . S
N641 Li617 1.990 . S
N641 C640 1.314 . S
N641 C644 1.279 . S
C642 C640 1.353 . S
C642 C645 1.348 . S
C642 H690 0.929 . S
C643 C644 1.358 . S
C643 C645 1.356 . S
C643 H691 0.930 . S
C644 N641 1.279 . S
C644 C643 1.358 . S
C644 H647 0.930 . S
C645 C642 1.348 . S
C645 C643 1.356 . S
H646 C640 0.930 . S
H647 C644 0.930 . S
C648 C650 1.348 . S
C648 C651 1.356 . S
C648 O678 1.325 . S
N649 C652 1.314 . S
N649 C653 1.279 . S
C650 C648 1.348 . S
C650 C652 1.353 . S
C650 H692 0.929 . S
C651 C648 1.356 . S
C651 C653 1.358 . S
C651 H693 0.930 . S
C652 N649 1.314 . S
C652 C650 1.353 . S
C652 H694 0.930 . S
C653 N649 1.279 . S
C653 C651 1.358 . S
C653 H695 0.930 . S
C654 C655 1.348 1_545 S
C654 C656 1.356 . S
C654 O679 1.325 . S
C655 C654 1.348 1_565 S
C655 C657 1.353 . S
C655 H696 0.924 1_565 S
C656 C654 1.356 . S
C656 C658 1.358 1_545 S
C656 H697 0.930 . S
C657 C655 1.353 . S
C657 N659 1.314 . S
C657 H698 0.930 . S
C658 C656 1.358 1_565 S
C658 N659 1.279 . S
C658 H699 0.930 . S
N659 C657 1.314 . S
N659 C658 1.279 . S
C660 C662 1.353 . S
C660 N663 1.314 . S
C660 H666 0.930 . S
C661 N663 1.279 . S
C661 C664 1.358 . S
C661 H667 0.930 . S
C662 C660 1.353 . S
C662 C665 1.348 . S
C662 H700 0.929 . S
N663 Li618 1.990 . S
N663 C660 1.314 . S
N663 C661 1.279 . S
C664 C661 1.358 . S
C664 C665 1.356 . S
C664 H701 0.930 . S
C665 C662 1.348 . S
C665 C664 1.356 . S
H666 C660 0.930 . S
H667 C661 0.930 . S
C668 N669 1.314 . S
C668 C670 1.353 . S
C668 H674 0.930 . S
N669 Li619 1.990 . S
N669 C668 1.314 . S
N669 C672 1.279 . S
C670 C668 1.353 . S
C670 C673 1.348 . S
C670 H702 0.929 . S
C671 C672 1.358 . S
C671 C673 1.356 . S
C671 H703 0.930 . S
C672 N669 1.279 . S
C672 C671 1.358 . S
C672 H675 0.930 . S
C673 C670 1.348 . S
C673 C671 1.356 . S
H674 C668 0.930 . S
H675 C672 0.930 . S
O676 Li616 1.956 . S
O676 Li617 1.970 . S
O676 Li618 1.961 . S
O676 C620 1.325 . S
O677 Li616 1.970 . S
O677 Li617 1.956 . S
O677 Li619 1.961 . S
O677 C626 1.325 . S
O678 Li616 1.961 . S
O678 Li618 1.956 . S
O678 Li619 1.970 . S
O678 C648 1.325 . S
O679 Li617 1.961 . S
O679 Li618 1.970 . S
O679 Li619 1.956 . S
O679 C654 1.325 . S
H680 C622 0.929 . S
H681 C623 0.930 . S
H682 C624 0.930 . S
H683 C625 0.930 . S
H684 C627 0.930 . S
H685 C629 0.929 . S
H686 C630 0.930 . S
H687 C631 0.930 . S
H688 C634 0.930 . S
H689 C637 0.929 . S
H690 C642 0.929 . S
H691 C643 0.930 . S
H692 C650 0.929 . S
H693 C651 0.930 . S
H694 C652 0.930 . S
H695 C653 0.930 . S
H696 C655 0.924 1_545 S
H697 C656 0.930 . S
H698 C657 0.930 . S
H699 C658 0.930 . S
H700 C662 0.929 . S
H701 C664 0.930 . S
H702 C670 0.929 . S
H703 C671 0.930 . S
C704 C705 1.367 . S
C704 C710 1.379 . S
C704 N712 1.356 . S
C705 C704 1.367 . S
C705 C711 1.359 1_455 S
C706 C707 1.361 1_655 S
C706 C711 1.379 . S
C706 N713 1.356 . S
C707 C706 1.361 1_455 S
C707 C710 1.365 . S
N708 C710 1.356 . S
N708 H720 0.984 . S
N708 H721 0.985 . S
N709 C711 1.356 . S
N709 H714 0.984 . S
N709 H715 0.985 . S
C710 C704 1.379 . S
C710 C707 1.365 . S
C710 N708 1.356 . S
C711 C705 1.359 1_655 S
C711 C706 1.379 . S
C711 N709 1.356 . S
N712 C704 1.356 . S
N712 H718 0.984 . S
N712 H719 0.984 . S
N713 C706 1.356 . S
N713 H716 0.984 . S
N713 H717 0.985 . S
H714 N709 0.984 . S
H715 N709 0.985 . S
H716 N713 0.984 . S
H717 N713 0.985 . S
H718 N712 0.984 . S
H719 N712 0.984 . S
H720 N708 0.984 . S
H721 N708 0.985 . S
C722 C723 1.361 1_655 S
C722 C728 1.379 . S
C722 N730 1.356 . S
C723 C722 1.361 1_455 S
C723 C729 1.365 . S
C724 C725 1.367 . S
C724 C729 1.379 . S
C724 N731 1.356 . S
C725 C724 1.367 . S
C725 C728 1.359 1_455 S
N726 C728 1.356 . S
N726 H738 0.984 . S
N726 H739 0.985 . S
N727 C729 1.356 . S
N727 H732 0.984 . S
N727 H733 0.985 . S
C728 C722 1.379 . S
C728 C725 1.359 1_655 S
C728 N726 1.356 . S
C729 C723 1.365 . S
C729 C724 1.379 . S
C729 N727 1.356 . S
N730 C722 1.356 . S
N730 H736 0.984 . S
N730 H737 0.984 . S
N731 C724 1.356 . S
N731 H734 0.984 . S
N731 H735 0.985 . S
H732 N727 0.984 . S
H733 N727 0.985 . S
H734 N731 0.984 . S
H735 N731 0.985 . S
H736 N730 0.984 . S
H737 N730 0.984 . S
H738 N726 0.984 . S
H739 N726 0.985 . S
C740 C741 1.363 . S
C740 C746 1.379 . S
C740 N748 1.356 . S
C741 C740 1.363 . S
C741 C747 1.363 . S
C742 C743 1.363 . S
C742 C747 1.379 . S
C742 N749 1.356 . S
C743 C742 1.363 . S
C743 C746 1.363 . S
N744 C746 1.356 . S
N744 H756 0.984 . S
N744 H757 0.985 . S
N745 C747 1.356 . S
N745 H750 0.984 . S
N745 H751 0.985 . S
C746 C740 1.379 . S
C746 C743 1.363 . S
C746 N744 1.356 . S
C747 C741 1.363 . S
C747 C742 1.379 . S
C747 N745 1.356 . S
N748 C740 1.356 . S
N748 H754 0.984 . S
N748 H755 0.984 . S
N749 C742 1.356 . S
N749 H752 0.984 . S
N749 H753 0.985 . S
H750 N745 0.984 . S
H751 N745 0.985 . S
H752 N749 0.984 . S
H753 N749 0.985 . S
H754 N748 0.984 . S
H755 N748 0.984 . S
H756 N744 0.984 . S
H757 N744 0.985 . S
C758 C759 1.363 . S
C758 C764 1.379 . S
C758 N766 1.356 . S
C759 C758 1.363 . S
C759 C765 1.363 . S
C760 C761 1.363 . S
C760 C765 1.379 . S
C760 N767 1.356 . S
C761 C760 1.363 . S
C761 C764 1.363 . S
N762 C764 1.356 . S
N762 H774 0.984 . S
N762 H775 0.985 . S
N763 C765 1.356 . S
N763 H768 0.984 . S
N763 H769 0.985 . S
C764 C758 1.379 . S
C764 C761 1.363 . S
C764 N762 1.356 . S
C765 C759 1.363 . S
C765 C760 1.379 . S
C765 N763 1.356 . S
N766 C758 1.356 . S
N766 H772 0.984 . S
N766 H773 0.984 . S
N767 C760 1.356 . S
N767 H770 0.984 . S
N767 H771 0.985 . S
H768 N763 0.984 . S
H769 N763 0.985 . S
H770 N767 0.984 . S
H771 N767 0.985 . S
H772 N766 0.984 . S
H773 N766 0.984 . S
H774 N762 0.984 . S
H775 N762 0.985 . S
C776 C777 1.363 . S
C776 C782 1.379 . S
C776 N784 1.356 . S
C777 C776 1.363 . S
C777 C783 1.363 . S
C778 C779 1.363 . S
C778 C783 1.379 . S
C778 N785 1.356 . S
C779 C778 1.363 . S
C779 C782 1.363 . S
N780 C782 1.356 . S
N780 H792 0.984 . S
N780 H793 0.985 . S
N781 C783 1.356 . S
N781 H786 0.984 . S
N781 H787 0.985 1_545 S
C782 C776 1.379 . S
C782 C779 1.363 . S
C782 N780 1.356 . S
C783 C777 1.363 . S
C783 C778 1.379 . S
C783 N781 1.356 . S
N784 C776 1.356 . S
N784 H790 0.984 . S
N784 H791 0.984 . S
N785 C778 1.356 . S
N785 H788 0.984 . S
N785 H789 0.985 1_545 S
H786 N781 0.984 . S
H787 N781 0.985 1_565 S
H788 N785 0.984 . S
H789 N785 0.985 1_565 S
H790 N784 0.984 . S
H791 N784 0.984 . S
H792 N780 0.984 . S
H793 N780 0.985 . S
C794 C795 1.363 . S
C794 C800 1.379 . S
C794 N802 1.356 . S
C795 C794 1.363 . S
C795 C801 1.363 . S
C796 C797 1.363 . S
C796 C801 1.379 . S
C796 N803 1.356 . S
C797 C796 1.363 . S
C797 C800 1.363 . S
N798 C800 1.356 . S
N798 H810 0.984 . S
N798 H811 0.985 . S
N799 C801 1.356 . S
N799 H804 0.984 . S
N799 H805 0.985 . S
C800 C794 1.379 . S
C800 C797 1.363 . S
C800 N798 1.356 . S
C801 C795 1.363 . S
C801 C796 1.379 . S
C801 N799 1.356 . S
N802 C794 1.356 . S
N802 H808 0.984 . S
N802 H809 0.984 . S
N803 C796 1.356 . S
N803 H806 0.984 . S
N803 H807 0.985 . S
H804 N799 0.984 . S
H805 N799 0.985 . S
H806 N803 0.984 . S
H807 N803 0.985 . S
H808 N802 0.984 . S
H809 N802 0.984 . S
H810 N798 0.984 . S
H811 N798 0.985 . S
C812 C813 1.363 . S
C812 C818 1.379 . S
C812 N820 1.356 . S
C813 C812 1.363 . S
C813 C819 1.363 . S
C814 C815 1.363 . S
C814 C819 1.379 . S
C814 N821 1.356 . S
C815 C814 1.363 . S
C815 C818 1.363 . S
N816 C818 1.356 . S
N816 H828 0.984 . S
N816 H829 0.985 . S
N817 C819 1.356 . S
N817 H822 0.984 . S
N817 H823 0.985 1_565 S
C818 C812 1.379 . S
C818 C815 1.363 . S
C818 N816 1.356 . S
C819 C813 1.363 . S
C819 C814 1.379 . S
C819 N817 1.356 . S
N820 C812 1.356 . S
N820 H826 0.984 . S
N820 H827 0.984 . S
N821 C814 1.356 . S
N821 H824 0.984 . S
N821 H825 0.985 1_565 S
H822 N817 0.984 . S
H823 N817 0.985 1_545 S
H824 N821 0.984 . S
H825 N821 0.985 1_545 S
H826 N820 0.984 . S
H827 N820 0.984 . S
H828 N816 0.984 . S
H829 N816 0.985 . S
C830 C831 1.363 . S
C830 C836 1.379 . S
C830 N838 1.356 . S
C831 C830 1.363 . S
C831 C837 1.363 . S
C832 C833 1.363 . S
C832 C837 1.379 . S
C832 N839 1.356 . S
C833 C832 1.363 . S
C833 C836 1.363 . S
N834 C836 1.356 . S
N834 H846 0.984 . S
N834 H847 0.985 . S
N835 C837 1.356 . S
N835 H840 0.984 . S
N835 H841 0.985 . S
C836 C830 1.379 . S
C836 C833 1.363 . S
C836 N834 1.356 . S
C837 C831 1.363 . S
C837 C832 1.379 . S
C837 N835 1.356 . S
N838 C830 1.356 . S
N838 H844 0.984 . S
N838 H845 0.984 . S
N839 C832 1.356 . S
N839 H842 0.984 . S
N839 H843 0.985 . S
H840 N835 0.984 . S
H841 N835 0.985 . S
H842 N839 0.984 . S
H843 N839 0.985 . S
H844 N838 0.984 . S
H845 N838 0.984 . S
H846 N834 0.984 . S
H847 N834 0.985 . S
C848 C849 1.363 . S
C848 C854 1.379 . S
C848 N856 1.356 . S
C849 C848 1.363 . S
C849 C855 1.363 . S
C850 C851 1.363 . S
C850 C855 1.379 . S
C850 N857 1.356 . S
C851 C850 1.363 . S
C851 C854 1.363 . S
N852 C854 1.356 . S
N852 H864 0.984 1_565 S
N852 H865 0.985 . S
N853 C855 1.356 . S
N853 H858 0.984 . S
N853 H859 0.985 . S
C854 C848 1.379 . S
C854 C851 1.363 . S
C854 N852 1.356 . S
C855 C849 1.363 . S
C855 C850 1.379 . S
C855 N853 1.356 . S
N856 C848 1.356 . S
N856 H862 0.984 1_565 S
N856 H863 0.984 . S
N857 C850 1.356 . S
N857 H860 0.984 . S
N857 H861 0.985 . S
H858 N853 0.984 . S
H859 N853 0.985 . S
H860 N857 0.984 . S
H861 N857 0.985 . S
H862 N856 0.984 1_545 S
H863 N856 0.984 . S
H864 N852 0.984 1_545 S
H865 N852 0.985 . S
C866 C867 1.363 . S
C866 C872 1.379 . S
C866 N874 1.356 . S
C867 C866 1.363 . S
C867 C873 1.363 . S
C868 C869 1.363 . S
C868 C873 1.379 . S
C868 N875 1.356 . S
C869 C868 1.363 . S
C869 C872 1.363 . S
N870 C872 1.356 . S
N870 H882 0.984 . S
N870 H883 0.985 . S
N871 C873 1.356 . S
N871 H876 0.984 . S
N871 H877 0.985 . S
C872 C866 1.379 . S
C872 C869 1.363 . S
C872 N870 1.356 . S
C873 C867 1.363 . S
C873 C868 1.379 . S
C873 N871 1.356 . S
N874 C866 1.356 . S
N874 H880 0.984 . S
N874 H881 0.984 . S
N875 C868 1.356 . S
N875 H878 0.984 . S
N875 H879 0.985 . S
H876 N871 0.984 . S
H877 N871 0.985 . S
H878 N875 0.984 . S
H879 N875 0.985 . S
H880 N874 0.984 . S
H881 N874 0.984 . S
H882 N870 0.984 . S
H883 N870 0.985 . S
C884 C885 1.363 . S
C884 C890 1.379 . S
C884 N892 1.356 . S
C885 C884 1.363 . S
C885 C891 1.363 . S
C886 C887 1.363 . S
C886 C891 1.379 . S
C886 N893 1.356 . S
C887 C886 1.363 . S
C887 C890 1.363 . S
N888 C890 1.356 . S
N888 H900 0.984 . S
N888 H901 0.985 . S
N889 C891 1.356 . S
N889 H894 0.984 . S
N889 H895 0.985 1_545 S
C890 C884 1.379 . S
C890 C887 1.363 . S
C890 N888 1.356 . S
C891 C885 1.363 . S
C891 C886 1.379 . S
C891 N889 1.356 . S
N892 C884 1.356 . S
N892 H898 0.984 . S
N892 H899 0.984 . S
N893 C886 1.356 . S
N893 H896 0.984 . S
N893 H897 0.985 1_545 S
H894 N889 0.984 . S
H895 N889 0.985 1_565 S
H896 N893 0.984 . S
H897 N893 0.985 1_565 S
H898 N892 0.984 . S
H899 N892 0.984 . S
H900 N888 0.984 . S
H901 N888 0.985 . S
C902 C903 1.363 . S
C902 C908 1.379 . S
C902 N910 1.356 . S
C903 C902 1.363 . S
C903 C909 1.363 . S
C904 C905 1.363 . S
C904 C909 1.379 . S
C904 N911 1.356 . S
C905 C904 1.363 . S
C905 C908 1.363 . S
N906 C908 1.356 . S
N906 H918 0.984 . S
N906 H919 0.985 . S
N907 C909 1.356 . S
N907 H912 0.984 . S
N907 H913 0.985 . S
C908 C902 1.379 . S
C908 C905 1.363 . S
C908 N906 1.356 . S
C909 C903 1.363 . S
C909 C904 1.379 . S
C909 N907 1.356 . S
N910 C902 1.356 . S
N910 H916 0.984 . S
N910 H917 0.984 . S
N911 C904 1.356 . S
N911 H914 0.984 . S
N911 H915 0.985 . S
H912 N907 0.984 . S
H913 N907 0.985 . S
H914 N911 0.984 . S
H915 N911 0.985 . S
H916 N910 0.984 . S
H917 N910 0.984 . S
H918 N906 0.984 . S
H919 N906 0.985 . S
C920 C921 1.351 1_655 S
C920 C926 1.379 1_554 S
C920 N928 1.356 . S
C921 C920 1.351 1_455 S
C921 C927 1.375 1_545 S
C922 C923 1.375 . S
C922 C927 1.379 1_556 S
C922 N929 1.356 . S
C923 C922 1.375 . S
C923 C926 1.351 1_465 S
N924 C926 1.356 . S
N924 H936 0.984 . S
N924 H937 0.985 . S
N925 C927 1.356 . S
N925 H930 0.984 . S
N925 H931 0.985 . S
C926 C920 1.379 1_556 S
C926 C923 1.351 1_645 S
C926 N924 1.356 . S
C927 C921 1.375 1_565 S
C927 C922 1.379 1_554 S
C927 N925 1.356 . S
N928 C920 1.356 . S
N928 H934 0.984 . S
N928 H935 0.984 . S
N929 C922 1.356 . S
N929 H932 0.984 . S
N929 H933 0.985 . S
H930 N925 0.984 . S
H931 N925 0.985 . S
H932 N929 0.984 . S
H933 N929 0.985 . S
H934 N928 0.984 . S
H935 N928 0.984 . S
H936 N924 0.984 . S
H937 N924 0.985 . S
C938 C939 1.363 1_455 S
C938 C944 1.379 1_556 S
C938 N946 1.356 . S
C939 C938 1.363 1_655 S
C939 C945 1.363 . S
C940 C941 1.363 . S
C940 C945 1.379 1_554 S
C940 N947 1.356 . S
C941 C940 1.363 . S
C941 C944 1.363 1_655 S
N942 C944 1.356 . S
N942 H954 0.984 . S
N942 H955 0.985 . S
N943 C945 1.356 . S
N943 H948 0.984 . S
N943 H949 0.985 . S
C944 C938 1.379 1_554 S
C944 C941 1.363 1_455 S
C944 N942 1.356 . S
C945 C939 1.363 . S
C945 C940 1.379 1_556 S
C945 N943 1.356 . S
N946 C938 1.356 . S
N946 H952 0.984 . S
N946 H953 0.984 . S
N947 C940 1.356 . S
N947 H950 0.984 . S
N947 H951 0.985 . S
H948 N943 0.984 . S
H949 N943 0.985 . S
H950 N947 0.984 . S
H951 N947 0.985 . S
H952 N946 0.984 . S
H953 N946 0.984 . S
H954 N942 0.984 . S
H955 N942 0.985 . S
C956 C957 1.363 . S
C956 C962 1.379 . S
C956 N964 1.356 . S
C957 C956 1.363 . S
C957 C963 1.363 . S
C958 C959 1.363 . S
C958 C963 1.379 . S
C958 N965 1.356 . S
C959 C958 1.363 . S
C959 C962 1.363 . S
N960 C962 1.356 . S
N960 H972 0.984 . S
N960 H973 0.985 . S
N961 C963 1.356 . S
N961 H966 0.984 . S
N961 H967 0.985 . S
C962 C956 1.379 . S
C962 C959 1.363 . S
C962 N960 1.356 . S
C963 C957 1.363 . S
C963 C958 1.379 . S
C963 N961 1.356 . S
N964 C956 1.356 . S
N964 H970 0.984 . S
N964 H971 0.984 . S
N965 C958 1.356 . S
N965 H968 0.984 . S
N965 H969 0.985 . S
H966 N961 0.984 . S
H967 N961 0.985 . S
H968 N965 0.984 . S
H969 N965 0.985 . S
H970 N964 0.984 . S
H971 N964 0.984 . S
H972 N960 0.984 . S
H973 N960 0.985 . S
C974 C975 1.363 1_545 S
C974 C980 1.379 . S
C974 N982 1.356 . S
C975 C974 1.363 1_565 S
C975 C981 1.363 . S
C976 C977 1.363 1_565 S
C976 C981 1.379 . S
C976 N983 1.356 . S
C977 C976 1.363 1_545 S
C977 C980 1.363 . S
N978 C980 1.356 . S
N978 H990 0.984 . S
N978 H991 0.985 . S
N979 C981 1.356 . S
N979 H984 0.984 . S
N979 H985 0.985 . S
C980 C974 1.379 . S
C980 C977 1.363 . S
C980 N978 1.356 . S
C981 C975 1.363 . S
C981 C976 1.379 . S
C981 N979 1.356 . S
N982 C974 1.356 . S
N982 H988 0.984 . S
N982 H989 0.984 . S
N983 C976 1.356 . S
N983 H986 0.984 . S
N983 H987 0.985 . S
H984 N979 0.984 . S
H985 N979 0.985 . S
H986 N983 0.984 . S
H987 N983 0.985 . S
H988 N982 0.984 . S
H989 N982 0.984 . S
H990 N978 0.984 . S
H991 N978 0.985 . S
C705 C137 1.537 . S
C707 C20 1.537 . S
C723 C225 1.537 . S
C725 C293 1.537 . S
C741 C381 1.537 . S
C743 C489 1.537 . S
C759 C585 1.537 . S
C761 C636 1.537 . S
C777 C645 1.485 . S
C779 C29 1.485 . S
C795 C577 1.485 . S
C797 C145 1.485 . S
C813 C233 1.485 . S
C815 C497 1.485 . S
C831 C372 1.485 . S
C833 C284 1.485 . S
C849 C469 1.490 . S
C851 C205 1.490 . S
C867 C401 1.490 . S
C869 C313 1.490 . S
C885 C673 1.490 . S
C887 C57 1.490 . S
C903 C117 1.490 . S
C905 C548 1.490 . S
C921 C49 1.276 . S
C923 C196 1.276 . S
C939 C321 1.276 1_655 S
C941 C108 1.276 1_655 S
C957 C557 1.276 . S
C959 C409 1.276 . S
C975 C460 1.276 . S
C977 C665 1.276 . S
