# Generated by pormake.
# Topology pbz, (3)-cn, num edge types: 1
# Building blocks:
#     Node 0, Type 0, BuildingBlock: OLANEW_clean_sbu_2, # of connection points: 3
#     Node 1, Type 0, BuildingBlock: OLANEW_clean_sbu_2, # of connection points: 3
#     Node 2, Type 0, BuildingBlock: OLANEW_clean_sbu_2, # of connection points: 3
#     Node 3, Type 0, BuildingBlock: OLANEW_clean_sbu_2, # of connection points: 3
#     Node 4, Type 0, BuildingBlock: OLANEW_clean_sbu_2, # of connection points: 3
#     Node 5, Type 0, BuildingBlock: OLANEW_clean_sbu_2, # of connection points: 3
#     Node 6, Type 0, BuildingBlock: OLANEW_clean_sbu_2, # of connection points: 3
#     Node 7, Type 0, BuildingBlock: OLANEW_clean_sbu_2, # of connection points: 3
#     Node 8, Type 0, BuildingBlock: OLANEW_clean_sbu_2, # of connection points: 3
#     Node 9, Type 0, BuildingBlock: OLANEW_clean_sbu_2, # of connection points: 3
#     Node 10, Type 0, BuildingBlock: OLANEW_clean_sbu_2, # of connection points: 3
#     Node 11, Type 0, BuildingBlock: OLANEW_clean_sbu_2, # of connection points: 3
#     Node 12, Type 0, BuildingBlock: OLANEW_clean_sbu_2, # of connection points: 3
#     Node 13, Type 0, BuildingBlock: OLANEW_clean_sbu_2, # of connection points: 3
#     Node 14, Type 0, BuildingBlock: OLANEW_clean_sbu_2, # of connection points: 3
#     Node 15, Type 0, BuildingBlock: OLANEW_clean_sbu_2, # of connection points: 3
#     Node 16, Type 0, BuildingBlock: OLANEW_clean_sbu_2, # of connection points: 3
#     Node 17, Type 0, BuildingBlock: OLANEW_clean_sbu_2, # of connection points: 3
#     Node 18, Type 0, BuildingBlock: OLANEW_clean_sbu_2, # of connection points: 3
#     Node 19, Type 0, BuildingBlock: OLANEW_clean_sbu_2, # of connection points: 3
#     Node 20, Type 0, BuildingBlock: OLANEW_clean_sbu_2, # of connection points: 3
#     Node 21, Type 0, BuildingBlock: OLANEW_clean_sbu_2, # of connection points: 3
#     Node 22, Type 0, BuildingBlock: OLANEW_clean_sbu_2, # of connection points: 3
#     Node 23, Type 0, BuildingBlock: OLANEW_clean_sbu_2, # of connection points: 3
#     Edge 24, Type (0, 0), BuildingBlock: UVAHIK_clean_linker_0, # of connection points: 2
#     Edge 25, Type (0, 0), BuildingBlock: UVAHIK_clean_linker_0, # of connection points: 2
#     Edge 26, Type (0, 0), BuildingBlock: UVAHIK_clean_linker_0, # of connection points: 2
#     Edge 27, Type (0, 0), BuildingBlock: UVAHIK_clean_linker_0, # of connection points: 2
#     Edge 28, Type (0, 0), BuildingBlock: UVAHIK_clean_linker_0, # of connection points: 2
#     Edge 29, Type (0, 0), BuildingBlock: UVAHIK_clean_linker_0, # of connection points: 2
#     Edge 30, Type (0, 0), BuildingBlock: UVAHIK_clean_linker_0, # of connection points: 2
#     Edge 31, Type (0, 0), BuildingBlock: UVAHIK_clean_linker_0, # of connection points: 2
#     Edge 32, Type (0, 0), BuildingBlock: UVAHIK_clean_linker_0, # of connection points: 2
#     Edge 33, Type (0, 0), BuildingBlock: UVAHIK_clean_linker_0, # of connection points: 2
#     Edge 34, Type (0, 0), BuildingBlock: UVAHIK_clean_linker_0, # of connection points: 2
#     Edge 35, Type (0, 0), BuildingBlock: UVAHIK_clean_linker_0, # of connection points: 2
#     Edge 36, Type (0, 0), BuildingBlock: UVAHIK_clean_linker_0, # of connection points: 2
#     Edge 37, Type (0, 0), BuildingBlock: UVAHIK_clean_linker_0, # of connection points: 2
#     Edge 38, Type (0, 0), BuildingBlock: UVAHIK_clean_linker_0, # of connection points: 2
#     Edge 39, Type (0, 0), BuildingBlock: UVAHIK_clean_linker_0, # of connection points: 2
#     Edge 40, Type (0, 0), BuildingBlock: UVAHIK_clean_linker_0, # of connection points: 2
#     Edge 41, Type (0, 0), BuildingBlock: UVAHIK_clean_linker_0, # of connection points: 2
#     Edge 42, Type (0, 0), BuildingBlock: UVAHIK_clean_linker_0, # of connection points: 2
#     Edge 43, Type (0, 0), BuildingBlock: UVAHIK_clean_linker_0, # of connection points: 2
#     Edge 44, Type (0, 0), BuildingBlock: UVAHIK_clean_linker_0, # of connection points: 2
#     Edge 45, Type (0, 0), BuildingBlock: UVAHIK_clean_linker_0, # of connection points: 2
#     Edge 46, Type (0, 0), BuildingBlock: UVAHIK_clean_linker_0, # of connection points: 2
#     Edge 47, Type (0, 0), BuildingBlock: UVAHIK_clean_linker_0, # of connection points: 2
#     Edge 48, Type (0, 0), BuildingBlock: UVAHIK_clean_linker_0, # of connection points: 2
#     Edge 49, Type (0, 0), BuildingBlock: UVAHIK_clean_linker_0, # of connection points: 2
#     Edge 50, Type (0, 0), BuildingBlock: UVAHIK_clean_linker_0, # of connection points: 2
#     Edge 51, Type (0, 0), BuildingBlock: UVAHIK_clean_linker_0, # of connection points: 2
#     Edge 52, Type (0, 0), BuildingBlock: UVAHIK_clean_linker_0, # of connection points: 2
#     Edge 53, Type (0, 0), BuildingBlock: UVAHIK_clean_linker_0, # of connection points: 2
#     Edge 54, Type (0, 0), BuildingBlock: UVAHIK_clean_linker_0, # of connection points: 2
#     Edge 55, Type (0, 0), BuildingBlock: UVAHIK_clean_linker_0, # of connection points: 2
#     Edge 56, Type (0, 0), BuildingBlock: UVAHIK_clean_linker_0, # of connection points: 2
#     Edge 57, Type (0, 0), BuildingBlock: UVAHIK_clean_linker_0, # of connection points: 2
#     Edge 58, Type (0, 0), BuildingBlock: UVAHIK_clean_linker_0, # of connection points: 2
#     Edge 59, Type (0, 0), BuildingBlock: UVAHIK_clean_linker_0, # of connection points: 2
# Relax obj value: 0.052
# Max RMSD: 0.149
# Mean RMSD: 0.113
data_MOF--net-pbz--node1-OLANEW_clean_sbu_2--edge1-UVAHIK_clean_linker_0
_symmetry_space_group_name_H-M    P1
_symmetry_Int_Tables_number       1
_symmetry_cell_setting            triclinic
loop_
_symmetry_equiv_pos_as_xyz
'x, y, z'
_cell_length_a     86.218175
_cell_length_b     84.217812
_cell_length_c     82.650503
_cell_angle_alpha  90.864273
_cell_angle_beta   89.986118
_cell_angle_gamma 94.584911
loop_
_atom_site_label
_atom_site_type_symbol
_atom_site_fract_x
_atom_site_fract_y
_atom_site_fract_z
_atom_type_partial_charge
O0 O 0.00434 0.24784 0.78354 0.0
Cd1 Cd 0.00144 0.21872 0.78281 0.0
O2 O -0.00884 0.25088 0.76117 0.0
Cd3 Cd 0.98588 0.22554 0.75597 0.0
O4 O 0.97235 0.20649 0.74283 0.0
C5 C 0.97667 0.20253 0.72874 0.0
O6 O 0.98987 0.20911 0.72308 0.0
C7 C -0.00119 0.2569 0.77322 0.0
C8 C 0.03024 0.2059 0.78262 0.0
O9 O 0.02457 0.21137 0.7957 0.0
O10 O 0.02231 0.20639 0.76956 0.0
O11 O 0.91705 0.56381 0.23009 0.0
Cd12 Cd 0.8889 0.55733 0.22873 0.0
O13 O 0.92192 0.542 0.24282 0.0
Cd14 Cd 0.89735 0.53595 0.24764 0.0
O15 O 0.87839 0.53878 0.26463 0.0
C16 C 0.87835 0.55253 0.27117 0.0
O17 O 0.88885 0.56374 0.2666 0.0
C18 C 0.92678 0.55492 0.23605 0.0
C19 C 0.88048 0.53858 0.20152 0.0
O20 O 0.88202 0.55381 0.20075 0.0
O21 O 0.88289 0.5322 0.21519 0.0
O22 O 0.52176 0.31341 0.72464 0.0
Cd23 Cd 0.52006 0.32707 0.69891 0.0
O24 O 0.50316 0.326 0.73618 0.0
Cd25 Cd 0.49781 0.34063 0.71565 0.0
O26 O 0.48587 0.35995 0.70516 0.0
C27 C 0.48887 0.37378 0.71129 0.0
O28 O 0.49952 0.37576 0.72267 0.0
C29 C 0.51335 0.31592 0.73691 0.0
C30 C 0.54948 0.33176 0.68485 0.0
O31 O 0.54429 0.34229 0.69433 0.0
O32 O 0.54067 0.31907 0.68187 0.0
O33 O 0.79571 0.04384 0.22835 0.0
Cd34 Cd 0.76931 0.04474 0.21779 0.0
O35 O 0.79469 0.01783 0.231 0.0
Cd36 Cd 0.76988 0.01453 0.22541 0.0
O37 O 0.74602 0.0076 0.23288 0.0
C38 C 0.74393 0.00769 0.24811 0.0
O39 O 0.75578 0.01222 0.25755 0.0
C40 C 0.80227 0.03139 0.23204 0.0
C41 C 0.76975 0.06399 0.1906 0.0
O42 O 0.76942 0.07002 0.20491 0.0
O43 O 0.76964 0.04881 0.1891 0.0
O44 O -0.0075 0.42311 0.83593 0.0
Cd45 Cd 0.9865 0.44718 0.85087 0.0
O46 O 0.97481 0.42555 0.81715 0.0
Cd47 Cd 0.96476 0.4446 0.83078 0.0
O48 O 0.95145 0.45355 0.85099 0.0
C49 C 0.95102 0.44497 0.86352 0.0
O50 O 0.95864 0.43207 0.86338 0.0
C51 C 0.98593 0.41823 0.82279 0.0
C52 C 0.01299 0.46765 0.85665 0.0
O53 O 0.00847 0.45694 0.86685 0.0
O54 O 0.00495 0.46868 0.84371 0.0
O55 O 0.77275 0.57477 0.41403 0.0
Cd56 Cd 0.75488 0.57943 0.43623 0.0
O57 O 0.78247 0.59969 0.41331 0.0
Cd58 Cd 0.76381 0.60807 0.42821 0.0
O59 O 0.74174 0.61905 0.42712 0.0
C60 C 0.73811 0.62279 0.41285 0.0
O61 O 0.74766 0.61987 0.40096 0.0
C62 C 0.78258 0.58532 0.4084 0.0
C63 C 0.75655 0.55574 0.45927 0.0
O64 O 0.74651 0.55427 0.4478 0.0
O65 O 0.76565 0.56854 0.45998 0.0
O66 O 0.53096 0.22084 0.88838 0.0
Cd67 Cd 0.53086 0.20442 0.91251 0.0
O68 O 0.51316 0.23583 0.89781 0.0
Cd69 Cd 0.50831 0.22114 0.91906 0.0
O70 O 0.49553 0.20403 0.93473 0.0
C71 C 0.49331 0.1897 0.92967 0.0
O72 O 0.49947 0.18573 0.91579 0.0
C73 C 0.52272 0.23257 0.88675 0.0
C74 C 0.56092 0.20339 0.92468 0.0
O75 O 0.55537 0.19306 0.91422 0.0
O76 O 0.55218 0.21415 0.92948 0.0
O77 O 0.9256 0.05049 0.41279 0.0
Cd78 Cd 0.93121 0.0334 0.38963 0.0
O79 O 0.93413 0.0727 0.40091 0.0
Cd80 Cd 0.93671 0.06067 0.37759 0.0
O81 O 0.92835 0.0521 0.35382 0.0
C82 C 0.92475 0.06246 0.34376 0.0
O83 O 0.92714 0.07762 0.34777 0.0
C84 C 0.92852 0.06554 0.41331 0.0
C85 C 0.9556 0.01436 0.39561 0.0
O86 O 0.95817 0.02817 0.38937 0.0
O87 O 0.94151 0.00962 0.39909 0.0
O88 O 0.28021 0.67599 0.11784 0.0
Cd89 Cd 0.27022 0.64799 0.11613 0.0
O90 O 0.29809 0.67075 0.13554 0.0
Cd91 Cd 0.28664 0.64736 0.14085 0.0
O92 O 0.26897 0.63325 0.15456 0.0
C93 C 0.25524 0.6377 0.15392 0.0
O94 O 0.25252 0.64959 0.14449 0.0
C95 C 0.29212 0.68056 0.12628 0.0
C96 C 0.26176 0.63847 0.08471 0.0
O97 O 0.27598 0.63912 0.08933 0.0
O98 O 0.25149 0.64236 0.09494 0.0
O99 O 0.22129 0.84833 0.6721 0.0
Cd100 Cd 0.20226 0.86331 0.6864 0.0
O101 O 0.2167 0.86098 0.64991 0.0
Cd102 Cd 0.2164 0.86577 0.62399 0.0
O103 O 0.20855 0.87295 0.60026 0.0
C104 C 0.21256 0.86635 0.58716 0.0
O105 O 0.22213 0.85498 0.58773 0.0
C106 C 0.22372 0.85038 0.65709 0.0
C107 C 0.21363 0.893 0.69861 0.0
O108 O 0.21421 0.8804 0.70703 0.0
O109 O 0.20797 0.89148 0.68428 0.0
O110 O 0.38233 0.70084 0.5843 0.0
Cd111 Cd 0.38027 0.72725 0.57303 0.0
O112 O 0.35719 0.69691 0.58892 0.0
Cd113 Cd 0.35117 0.7206 0.58204 0.0
O114 O 0.33667 0.74058 0.58506 0.0
C115 C 0.32586 0.73814 0.59539 0.0
O116 O 0.32453 0.72442 0.60283 0.0
C117 C 0.37073 0.69193 0.58918 0.0
C118 C 0.40043 0.73183 0.54681 0.0
O119 O 0.40488 0.73576 0.56122 0.0
O120 O 0.38639 0.7259 0.5448 0.0
O121 O 0.38486 0.89379 0.16526 0.0
Cd122 Cd 0.36487 0.88623 0.14492 0.0
O123 O 0.36943 0.88691 0.18562 0.0
Cd124 Cd 0.35146 0.87548 0.16983 0.0
O125 O 0.34104 0.85381 0.15808 0.0
C126 C 0.34887 0.84179 0.15978 0.0
O127 O 0.36202 0.8436 0.16789 0.0
C128 C 0.3825 0.89283 0.18043 0.0
C129 C 0.36192 0.90987 0.12206 0.0
O130 O 0.35413 0.90974 0.13527 0.0
O131 O 0.37116 0.89887 0.11971 0.0
O132 O 0.11591 0.88794 0.43886 0.0
Cd133 Cd 0.09829 0.8846 0.41562 0.0
O134 O 0.13017 0.86925 0.42965 0.0
Cd135 Cd 0.11553 0.86154 0.40902 0.0
O136 O 0.10675 0.84261 0.39228 0.0
C137 C 0.10395 0.82894 0.39844 0.0
O138 O 0.10571 0.82747 0.41413 0.0
C139 C 0.12767 0.87985 0.44024 0.0
C140 C 0.07632 0.90723 0.41473 0.0
O141 O 0.07338 0.89393 0.42189 0.0
O142 O 0.08972 0.9099 0.40814 0.0
O143 O 0.23377 0.56768 0.8757 0.0
Cd144 Cd 0.21217 0.57804 0.89067 0.0
O145 O 0.21835 0.55114 0.86099 0.0
Cd146 Cd 0.19669 0.55584 0.87317 0.0
O147 O 0.17191 0.5513 0.8783 0.0
C148 C 0.16226 0.55413 0.8673 0.0
O149 O 0.16752 0.56062 0.85381 0.0
C150 C 0.23193 0.55725 0.86443 0.0
C151 C 0.22033 0.58726 0.92229 0.0
O152 O 0.21308 0.57365 0.91927 0.0
O153 O 0.22375 0.59646 0.91038 0.0
O154 O 0.56652 0.72691 0.35548 0.0
Cd155 Cd 0.56637 0.69817 0.35924 0.0
O156 O 0.55375 0.72801 0.37827 0.0
Cd157 Cd 0.53994 0.73853 0.39724 0.0
O158 O 0.52354 0.74244 0.41676 0.0
C159 C 0.50927 0.738 0.41443 0.0
O160 O 0.50498 0.73177 0.4003 0.0
C161 C 0.55988 0.73508 0.36608 0.0
C162 C 0.59487 0.6883 0.36938 0.0
O163 O 0.59168 0.68942 0.35431 0.0
O164 O 0.58462 0.69204 0.3797 0.0
O165 O 0.36346 0.0705 0.97693 0.0
Cd166 Cd 0.34119 0.05061 0.97642 0.0
O167 O 0.35191 0.08692 0.96132 0.0
Cd168 Cd 0.33073 0.07165 0.95626 0.0
O169 O 0.31103 0.06592 0.93999 0.0
C170 C 0.31334 0.05864 0.92673 0.0
O171 O 0.32716 0.05366 0.92391 0.0
C172 C 0.3636 0.08372 0.96969 0.0
C173 C 0.34397 0.02779 0.00017 0.0
O174 O 0.34969 0.02604 0.986 0.0
O175 O 0.33685 0.04032 0.0031 0.0
O176 O 0.12889 0.62548 0.27629 0.0
Cd177 Cd 0.10754 0.63289 0.2935 0.0
O178 O 0.14508 0.64506 0.28544 0.0
Cd179 Cd 0.1282 0.65571 0.30108 0.0
O180 O 0.11693 0.67433 0.3142 0.0
C181 C 0.11317 0.68624 0.30625 0.0
O182 O 0.11552 0.6864 0.29054 0.0
C183 C 0.14232 0.63288 0.27631 0.0
C184 C 0.07918 0.62001 0.28104 0.0
O185 O 0.08484 0.63392 0.27699 0.0
O186 O 0.08688 0.61227 0.2911 0.0
O187 O 0.36987 0.54204 0.68386 0.0
Cd188 Cd 0.36392 0.52136 0.70385 0.0
O189 O 0.37982 0.5593 0.70204 0.0
Cd190 Cd 0.37313 0.54466 0.72287 0.0
O191 O 0.36077 0.53994 0.74558 0.0
C192 C 0.34738 0.53244 0.74544 0.0
O193 O 0.34165 0.52671 0.73162 0.0
C194 C 0.37655 0.55567 0.68737 0.0
C195 C 0.38479 0.49777 0.70184 0.0
O196 O 0.37211 0.49659 0.69366 0.0
O197 O 0.38755 0.51009 0.711 0.0
O198 O 0.57178 0.91268 0.34829 0.0
Cd199 Cd 0.5741 0.94126 0.34308 0.0
O200 O 0.55505 0.91017 0.32839 0.0
Cd201 Cd 0.53714 0.89881 0.31235 0.0
O202 O 0.51771 0.89585 0.29531 0.0
C203 C 0.50984 0.90781 0.29335 0.0
O204 O 0.51368 0.92096 0.30168 0.0
C205 C 0.56256 0.90379 0.33947 0.0
C206 C 0.60128 0.95093 0.32641 0.0
O207 O 0.60095 0.95085 0.34191 0.0
O208 O 0.58874 0.94637 0.31876 0.0
O209 O 0.22344 0.12611 0.80303 0.0
Cd210 Cd 0.21629 0.14728 0.78525 0.0
O211 O 0.2241 0.10818 0.78357 0.0
Cd212 Cd 0.22675 0.08442 0.77337 0.0
O213 O 0.22823 0.06088 0.76232 0.0
C214 C 0.23279 0.04943 0.77045 0.0
O215 O 0.23676 0.05194 0.78567 0.0
C216 C 0.22595 0.11209 0.79841 0.0
C217 C 0.1846 0.15166 0.78484 0.0
O218 O 0.1932 0.15663 0.79681 0.0
O219 O 0.19088 0.1444 0.77311 0.0
O220 O 0.84839 0.43697 0.00772 0.0
Cd221 Cd 0.83421 0.425 0.0307 0.0
O222 O 0.83361 0.42395 0.98942 0.0
Cd223 Cd 0.81979 0.40929 0.00656 0.0
O224 O 0.80909 0.38639 0.0147 0.0
C225 C 0.79895 0.37907 0.00555 0.0
O226 O 0.79475 0.38602 -0.0077 0.0
C227 C 0.84492 0.43402 -0.00703 0.0
C228 C 0.8409 0.4427 0.05902 0.0
O229 O 0.84951 0.43178 0.05437 0.0
O230 O 0.82904 0.44518 0.05033 0.0
O231 O 0.87204 0.17424 0.59097 0.0
Cd232 Cd 0.8565 0.17822 0.56689 0.0
O233 O 0.85244 0.17404 0.60803 0.0
Cd234 Cd 0.83685 0.18377 0.59056 0.0
O235 O 0.82458 0.20436 0.58356 0.0
C236 C 0.8329 0.21744 0.58234 0.0
O237 O 0.84803 0.21742 0.58426 0.0
C238 C 0.86671 0.1723 0.60521 0.0
C239 C 0.86766 0.16022 0.54141 0.0
O240 O 0.85716 0.15424 0.55101 0.0
O241 O 0.87266 0.17484 0.54365 0.0
O242 O 0.7771 0.38204 0.5908 0.0
Cd243 Cd 0.76684 0.40737 0.59834 0.0
O244 O 0.75459 0.37118 0.59859 0.0
Cd245 Cd 0.73561 0.35395 0.60594 0.0
O246 O 0.71244 0.34638 0.6151 0.0
C247 C 0.70601 0.35658 0.62377 0.0
O248 O 0.71372 0.3704 0.6268 0.0
C249 C 0.76819 0.36952 0.59315 0.0
C250 C 0.76718 0.42971 0.57378 0.0
O251 O 0.77868 0.4294 0.58357 0.0
O252 O 0.75567 0.41925 0.57542 0.0
O253 O 0.79325 0.205 0.02206 0.0
Cd254 Cd 0.79874 0.17699 0.02058 0.0
O255 O 0.77003 0.19991 0.01152 0.0
Cd256 Cd 0.74691 0.20532 0.00329 0.0
O257 O 0.72343 0.20791 -0.00574 0.0
C258 C 0.71781 0.19812 0.98354 0.0
O259 O 0.72636 0.18691 0.97819 0.0
C260 C 0.78059 0.20995 0.01706 0.0
C261 C 0.79163 0.16046 0.04893 0.0
O262 O 0.80445 0.16912 0.04747 0.0
O263 O 0.78206 0.15972 0.03703 0.0
C264 C 0.00069 0.39377 0.82239 0.0
C265 C 0.99037 0.40341 0.81478 0.0
C266 C 0.00354 0.37891 0.81577 0.0
C267 C 0.98494 0.34758 0.789 0.0
H268 H 0.02454 0.32912 0.7928 0.0
C269 C -0.00674 0.2844 0.76496 0.0
C270 C 0.00046 0.27443 0.77566 0.0
C271 C -0.00638 0.30079 0.76798 0.0
C272 C 0.0134 0.33411 0.79171 0.0
H273 H 0.97563 0.40535 0.79375 0.0
H274 H 0.98084 0.3796 0.78203 0.0
H275 H 0.02248 0.3569 0.80089 0.0
H276 H 0.01421 0.27401 0.79761 0.0
H277 H 0.01478 0.30262 0.80291 0.0
H278 H 0.97581 0.32479 0.78002 0.0
C279 C 0.98645 0.38335 0.79334 0.0
C280 C 0.01221 0.35001 0.79636 0.0
C281 C 0.98353 0.39817 0.8 0.0
C282 C 0.00852 0.28133 0.78914 0.0
C283 C 0.00892 0.29775 0.79213 0.0
C284 C 0.98615 0.33174 0.7843 0.0
C285 C -0.0038 0.37337 0.80133 0.0
C286 C -0.0021 0.35688 0.79524 0.0
C287 C 0.00123 0.30761 0.78174 0.0
C288 C 0.00035 0.32476 0.78576 0.0
H289 H 0.00616 0.39742 0.83379 0.0
H290 H 0.01098 0.3715 0.82235 0.0
H291 H 0.97366 0.35234 0.78826 0.0
H292 H 0.98702 0.27951 0.75441 0.0
H293 H 0.98777 0.30811 0.75963 0.0
C294 C 0.804 0.59283 0.38878 0.0
C295 C 0.7935 0.5811 0.39548 0.0
C296 C 0.81348 0.58912 0.37577 0.0
C297 C 0.81563 0.56038 0.34201 0.0
H298 H 0.85839 0.57824 0.33917 0.0
C299 C 0.85761 0.54324 0.29099 0.0
C300 C 0.86767 0.55558 0.28469 0.0
C301 C 0.8484 0.54598 0.30453 0.0
C302 C 0.84641 0.5733 0.3397 0.0
H303 H 0.78506 0.55613 0.39403 0.0
H304 H 0.80172 0.54966 0.37142 0.0
H305 H 0.84313 0.58345 0.36323 0.0
H306 H 0.87558 0.5806 0.28737 0.0
H307 H 0.8594 0.5854 0.31078 0.0
H308 H 0.8189 0.55032 0.31842 0.0
C309 C 0.80245 0.56178 0.3761 0.0
C310 C 0.83768 0.57626 0.3535 0.0
C311 C 0.79298 0.56548 0.38913 0.0
C312 C 0.86803 0.5708 0.29196 0.0
C313 C 0.85884 0.57353 0.30547 0.0
C314 C 0.82437 0.55742 0.32819 0.0
C315 C 0.81268 0.5736 0.36915 0.0
C316 C 0.82216 0.56992 0.35477 0.0
C317 C 0.84907 0.56111 0.31204 0.0
C318 C 0.83982 0.56394 0.32683 0.0
H319 H 0.80469 0.60499 0.39335 0.0
H320 H 0.82113 0.59855 0.3706 0.0
H321 H 0.80363 0.55551 0.34251 0.0
H322 H 0.85708 0.53137 0.28568 0.0
H323 H 0.84107 0.53613 0.30936 0.0
C324 C 0.52657 0.29606 0.75337 0.0
C325 C 0.51547 0.30735 0.75218 0.0
C326 C 0.52863 0.28822 0.76793 0.0
C327 C 0.52165 0.29183 0.8119 0.0
H328 H 0.52541 0.24626 0.81183 0.0
C329 C 0.51412 0.25455 0.86962 0.0
C330 C 0.52373 0.24203 0.87176 0.0
C331 C 0.51442 0.26292 0.85514 0.0
C332 C 0.52461 0.25903 0.81205 0.0
H333 H 0.49777 0.31916 0.76537 0.0
H334 H 0.50129 0.30544 0.79061 0.0
H335 H 0.52345 0.25997 0.7862 0.0
H336 H 0.54148 0.22873 0.86045 0.0
H337 H 0.54212 0.24348 0.83525 0.0
H338 H 0.52267 0.29089 0.83773 0.0
C339 C 0.50855 0.30279 0.78038 0.0
C340 C 0.52348 0.26688 0.79736 0.0
C341 C 0.50646 0.31058 0.76585 0.0
C342 C 0.53388 0.23827 0.85919 0.0
C343 C 0.53418 0.24666 0.8447 0.0
C344 C 0.52281 0.28399 0.82657 0.0
C345 C 0.51968 0.29156 0.78162 0.0
C346 C 0.52179 0.28333 0.79714 0.0
C347 C 0.52436 0.25899 0.84246 0.0
C348 C 0.52411 0.26747 0.82683 0.0
H349 H 0.53372 0.29331 0.74308 0.0
H350 H 0.53738 0.27971 0.76855 0.0
H351 H 0.52065 0.30457 0.81212 0.0
H352 H 0.50613 0.25774 0.87902 0.0
H353 H 0.50656 0.27221 0.85375 0.0
C354 C 0.91239 0.04144 0.32495 0.0
C355 C 0.91629 0.05761 0.32866 0.0
C356 C 0.90283 0.037 0.31171 0.0
C357 C 0.88524 0.05231 0.27441 0.0
H358 H 0.85145 0.02071 0.28406 0.0
C359 C 0.82627 0.04788 0.24115 0.0
C360 C 0.81822 0.03282 0.23889 0.0
C361 C 0.84041 0.04946 0.24951 0.0
C362 C 0.86096 0.02933 0.28099 0.0
H363 H 0.91384 0.08177 0.32086 0.0
H364 H 0.89704 0.07406 0.29798 0.0
H365 H 0.87249 0.02601 0.30342 0.0
H366 H 0.81922 0.0075 0.24282 0.0
H367 H 0.84395 0.01027 0.2573 0.0
H368 H 0.87334 0.05597 0.25218 0.0
C369 C 0.90147 0.06477 0.30517 0.0
C370 C 0.87306 0.03237 0.29212 0.0
C371 C 0.91103 0.0692 0.31838 0.0
C372 C 0.82504 0.0193 0.24445 0.0
C373 C 0.83918 0.02088 0.25283 0.0
C374 C 0.87311 0.04928 0.26327 0.0
C375 C 0.89696 0.04863 0.30188 0.0
C376 C 0.88519 0.04412 0.28912 0.0
C377 C 0.84683 0.03602 0.25581 0.0
C378 C 0.86067 0.03797 0.26659 0.0
H379 H 0.91634 0.0322 0.33255 0.0
H380 H 0.89978 0.02445 0.30935 0.0
H381 H 0.89454 0.06126 0.27161 0.0
H382 H 0.82138 0.05855 0.237 0.0
H383 H 0.84591 0.06131 0.25171 0.0
C384 C 0.29032 0.70912 0.11875 0.0
C385 C 0.29857 0.69739 0.12607 0.0
C386 C 0.29584 0.72519 0.11975 0.0
C387 C 0.33105 0.75196 0.12808 0.0
H388 H 0.30202 0.78201 0.14264 0.0
C389 C 0.3516 0.81262 0.15639 0.0
C390 C 0.34318 0.82588 0.15336 0.0
C391 C 0.34614 0.79746 0.15089 0.0
C392 C 0.31023 0.77386 0.13828 0.0
H393 H 0.31934 0.6933 0.13972 0.0
H394 H 0.32898 0.72125 0.14136 0.0
H395 H 0.29261 0.75449 0.13653 0.0
H396 H 0.32252 0.83363 0.14188 0.0
H397 H 0.31306 0.80709 0.13205 0.0
H398 H 0.34871 0.77122 0.12997 0.0
C399 C 0.31827 0.71804 0.13482 0.0
C400 C 0.30484 0.75808 0.1348 0.0
C401 C 0.31269 0.70202 0.13396 0.0
C402 C 0.32925 0.82365 0.14447 0.0
C403 C 0.3238 0.80843 0.13891 0.0
C404 C 0.33643 0.76774 0.13147 0.0
C405 C 0.30981 0.72982 0.12792 0.0
C406 C 0.31525 0.74689 0.12998 0.0
C407 C 0.33215 0.79514 0.14213 0.0
C408 C 0.32615 0.77881 0.13694 0.0
H409 H 0.2794 0.70596 0.11259 0.0
H410 H 0.28915 0.73401 0.11421 0.0
H411 H 0.3393 0.74366 0.12414 0.0
H412 H 0.36234 0.81389 0.16325 0.0
H413 H 0.35274 0.78748 0.15387 0.0
C414 C 0.30329 0.74732 0.61089 0.0
C415 C 0.31496 0.75041 0.59923 0.0
C416 C 0.293 0.75875 0.61478 0.0
C417 C 0.28844 0.80182 0.61384 0.0
H418 H 0.2455 0.78787 0.62343 0.0
C419 C 0.24226 0.84486 0.63451 0.0
C420 C 0.23369 0.83973 0.6482 0.0
C421 C 0.2518 0.83457 0.62647 0.0
C422 C 0.25746 0.79195 0.6208 0.0
H423 H 0.32494 0.76795 0.58246 0.0
H424 H 0.3068 0.78797 0.58921 0.0
H425 H 0.26284 0.76876 0.61286 0.0
H426 H 0.22843 0.81989 0.66424 0.0
H427 H 0.24493 0.802 0.65025 0.0
H428 H 0.28298 0.82502 0.62201 0.0
C429 C 0.30574 0.77671 0.59542 0.0
C430 C 0.26741 0.781 0.61479 0.0
C431 C 0.31608 0.76522 0.59151 0.0
C432 C 0.23486 0.82418 0.6537 0.0
C433 C 0.24421 0.81388 0.64561 0.0
C434 C 0.27842 0.81282 0.61979 0.0
C435 C 0.29405 0.77357 0.60709 0.0
C436 C 0.28313 0.78569 0.61164 0.0
C437 C 0.25279 0.81894 0.63191 0.0
C438 C 0.26294 0.80789 0.62372 0.0
H439 H 0.30213 0.73608 0.61714 0.0
H440 H 0.28436 0.75604 0.62406 0.0
H441 H 0.3005 0.8058 0.61163 0.0
H442 H 0.24189 0.85691 0.63023 0.0
H443 H 0.25833 0.83879 0.61598 0.0
C444 C 0.09935 0.81587 0.37116 0.0
C445 C 0.10036 0.81463 0.38806 0.0
C446 C 0.09747 0.80216 0.36135 0.0
C447 C 0.08748 0.75828 0.36226 0.0
H448 H 0.11446 0.75801 0.32475 0.0
C449 C 0.10609 0.70071 0.33162 0.0
C450 C 0.10775 0.70041 0.3147 0.0
C451 C 0.10244 0.71464 0.3397 0.0
C452 C 0.10664 0.75794 0.33501 0.0
H453 H 0.09957 0.79804 0.40794 0.0
H454 H 0.09658 0.77424 0.39089 0.0
H455 H 0.11287 0.78253 0.34035 0.0
H456 H 0.10618 0.7143 0.29294 0.0
H457 H 0.09978 0.73855 0.30705 0.0
H458 H 0.08168 0.7335 0.35715 0.0
C459 C 0.09702 0.78576 0.38517 0.0
C460 C 0.10571 0.77203 0.34396 0.0
C461 C 0.09885 0.79943 0.39496 0.0
C462 C 0.10509 0.71415 0.30599 0.0
C463 C 0.10149 0.72808 0.31408 0.0
C464 C 0.08847 0.74416 0.35334 0.0
C465 C 0.09659 0.78693 0.36823 0.0
C466 C 0.09631 0.77233 0.35785 0.0
C467 C 0.10042 0.72857 0.33104 0.0
C468 C 0.09824 0.74379 0.33975 0.0
H469 H 0.10037 0.8274 0.36547 0.0
H470 H 0.09693 0.8035 0.34836 0.0
H471 H 0.07993 0.75815 0.37274 0.0
H472 H 0.10803 0.69033 0.33869 0.0
H473 H 0.10183 0.71466 0.35279 0.0
C474 C 0.34286 0.54001 0.77443 0.0
C475 C 0.33764 0.53187 0.76022 0.0
C476 C 0.33299 0.54098 0.78777 0.0
C477 C 0.29621 0.52361 0.80583 0.0
H478 H 0.29382 0.56605 0.82406 0.0
C479 C 0.24315 0.54166 0.84187 0.0
C480 C 0.24542 0.55258 0.85485 0.0
C481 C 0.25563 0.53786 0.83218 0.0
C482 C 0.29452 0.55405 0.81935 0.0
H483 H 0.3182 0.51775 0.74918 0.0
H484 H 0.301 0.51949 0.77241 0.0
H485 H 0.3136 0.56135 0.80391 0.0
H486 H 0.26273 0.56771 0.86812 0.0
H487 H 0.28458 0.56092 0.85127 0.0
H488 H 0.27694 0.51637 0.82108 0.0
C489 C 0.31274 0.52506 0.77328 0.0
C490 C 0.30587 0.55136 0.80778 0.0
C491 C 0.32258 0.52414 0.75991 0.0
C492 C 0.26056 0.55931 0.85816 0.0
C493 C 0.27307 0.55549 0.84846 0.0
C494 C 0.28489 0.52629 0.81745 0.0
C495 C 0.31772 0.53377 0.78723 0.0
C496 C 0.30667 0.53618 0.80067 0.0
C497 C 0.27072 0.54484 0.83524 0.0
C498 C 0.28372 0.54161 0.82413 0.0
H499 H 0.35442 0.54604 0.77511 0.0
H500 H 0.33723 0.5476 0.79843 0.0
H501 H 0.29669 0.51173 0.80075 0.0
H502 H 0.23166 0.53625 0.83894 0.0
H503 H 0.25334 0.52982 0.82196 0.0
C504 C 0.55736 0.87551 0.32968 0.0
C505 C 0.56058 0.88648 0.34243 0.0
C506 C 0.5564 0.85912 0.33251 0.0
C507 C 0.56849 0.82988 0.36228 0.0
H508 H 0.53917 0.80073 0.33886 0.0
C509 C 0.55919 0.76292 0.37711 0.0
C510 C 0.55894 0.75234 0.3638 0.0
C511 C 0.55873 0.77929 0.37477 0.0
C512 C 0.54747 0.80874 0.34542 0.0
H513 H 0.56512 0.88895 0.36816 0.0
H514 H 0.56302 0.86044 0.37323 0.0
H515 H 0.53931 0.82932 0.33436 0.0
H516 H 0.55808 0.75056 0.33762 0.0
H517 H 0.55717 0.77915 0.33354 0.0
H518 H 0.57651 0.80927 0.37344 0.0
C519 C 0.56156 0.8644 0.36096 0.0
C520 C 0.5476 0.82512 0.34281 0.0
C521 C 0.56267 0.88075 0.35809 0.0
C522 C 0.55822 0.75844 0.34811 0.0
C523 C 0.55759 0.77478 0.34577 0.0
C524 C 0.56825 0.81353 0.36499 0.0
C525 C 0.55858 0.85335 0.34819 0.0
C526 C 0.55816 0.83591 0.35116 0.0
C527 C 0.55791 0.78538 0.35908 0.0
C528 C 0.5578 0.80278 0.35653 0.0
H529 H 0.55615 0.87955 0.31741 0.0
H530 H 0.55439 0.85099 0.32232 0.0
H531 H 0.577 0.83777 0.3687 0.0
H532 H 0.56017 0.75861 0.38931 0.0
H533 H 0.55898 0.78718 0.38525 0.0
C534 C 0.3046 0.05113 0.89853 0.0
C535 C 0.30148 0.05795 0.9137 0.0
C536 C 0.29448 0.05252 0.88551 0.0
C537 C 0.25523 0.06419 0.87407 0.0
H538 H 0.27645 0.07919 0.83516 0.0
C539 C 0.2273 0.10236 0.82668 0.0
C540 C 0.23151 0.10092 0.81034 0.0
C541 C 0.23406 0.09341 0.83847 0.0
C542 C 0.27027 0.07468 0.84576 0.0
H543 H 0.28478 0.0707 0.92733 0.0
H544 H 0.26725 0.07328 0.9046 0.0
H545 H 0.29144 0.06991 0.85748 0.0
H546 H 0.24619 0.08895 0.79357 0.0
H547 H 0.25758 0.07288 0.81404 0.0
H548 H 0.23408 0.06949 0.86245 0.0
C549 C 0.27745 0.06675 0.90277 0.0
C550 C 0.27889 0.06936 0.8586 0.0
C551 C 0.28756 0.06536 0.9158 0.0
C552 C 0.24228 0.08996 0.80595 0.0
C553 C 0.24904 0.08097 0.81775 0.0
C554 C 0.24659 0.06951 0.86118 0.0
C555 C 0.28101 0.06075 0.88736 0.0
C556 C 0.27153 0.06438 0.87305 0.0
C557 C 0.24528 0.08286 0.8342 0.0
C558 C 0.25405 0.07516 0.84701 0.0
H559 H 0.31515 0.04521 0.89653 0.0
H560 H 0.29742 0.04751 0.87386 0.0
H561 H 0.24919 0.06021 0.88494 0.0
H562 H 0.2191 0.11079 0.83043 0.0
H563 H 0.23104 0.09537 0.85102 0.0
C564 C 0.78638 0.237 0.02939 0.0
C565 C 0.7786 0.22723 0.01755 0.0
C566 C 0.78579 0.25352 0.02914 0.0
C567 C 0.78006 0.28571 0.00077 0.0
H568 H 0.77911 0.31164 0.03988 0.0
C569 C 0.7827 0.35407 -0.00195 0.0
C570 C 0.79327 0.36234 0.00873 0.0
C571 C 0.77856 0.33783 2e-05 0.0
C572 C 0.77945 0.30456 0.02886 0.0
H573 H 0.7644 0.2272 -0.00408 0.0
H574 H 0.7629 0.25597 -0.00423 0.0
H575 H 0.77592 0.28264 0.04166 0.0
H576 H 0.80728 0.36018 0.03027 0.0
H577 H 0.80016 0.33181 0.03361 0.0
H578 H 0.78389 0.30755 0.98799 0.0
C579 C 0.76945 0.25085 0.00529 0.0
C580 C 0.77762 0.28795 0.02987 0.0
C581 C 0.77004 0.23431 0.00555 0.0
C582 C 0.79911 0.35416 0.02182 0.0
C583 C 0.79497 0.33791 0.02378 0.0
C584 C 0.78186 0.30229 -0.00024 0.0
C585 C 0.77749 0.26067 0.01696 0.0
C586 C 0.77811 0.27833 0.01585 0.0
C587 C 0.78488 0.32949 0.01271 0.0
C588 C 0.78177 0.31192 0.0138 0.0
H589 H 0.79317 0.23188 0.03872 0.0
H590 H 0.79233 0.26072 0.03816 0.0
H591 H 0.78078 0.27868 -0.01025 0.0
H592 H 0.77789 0.36003 0.98791 0.0
H593 H 0.77056 0.33175 -0.00857 0.0
C594 C 0.79022 0.35224 0.5898 0.0
C595 C 0.77409 0.35363 0.59042 0.0
C596 C 0.79609 0.33737 0.58779 0.0
C597 C 0.78569 0.29567 0.57445 0.0
H598 H 0.82173 0.28748 0.60015 0.0
C599 C 0.80939 0.23319 0.58041 0.0
C600 C 0.82567 0.23271 0.58062 0.0
C601 C 0.8027 0.2478 0.58041 0.0
C602 C 0.81178 0.28963 0.59274 0.0
H603 H 0.75151 0.34046 0.58835 0.0
H604 H 0.76174 0.31441 0.58544 0.0
H605 H 0.81072 0.31308 0.60266 0.0
H606 H 0.84763 0.24721 0.58024 0.0
H607 H 0.83597 0.27258 0.58012 0.0
H608 H 0.78673 0.27203 0.56469 0.0
C609 C 0.76985 0.32487 0.58653 0.0
C610 C 0.80546 0.30433 0.59417 0.0
C611 C 0.76397 0.33981 0.5885 0.0
C612 C 0.83506 0.24713 0.58021 0.0
C613 C 0.82838 0.26169 0.58024 0.0
C614 C 0.792 0.2809 0.57306 0.0
C615 C 0.786 0.32346 0.58635 0.0
C616 C 0.79241 0.3076 0.58496 0.0
C617 C 0.81214 0.26222 0.58066 0.0
C618 C 0.8052 0.27777 0.58211 0.0
H619 H 0.79838 0.36265 0.59108 0.0
H620 H 0.80859 0.33679 0.58735 0.0
H621 H 0.77572 0.29785 0.56707 0.0
H622 H 0.80182 0.2223 0.58071 0.0
H623 H 0.79014 0.24782 0.5808 0.0
C624 C 0.15923 0.15462 0.79861 0.0
C625 C 0.16805 0.15481 0.78436 0.0
C626 C 0.14376 0.15845 0.79831 0.0
C627 C 0.11137 0.16691 0.76983 0.0
H628 H 0.09568 0.18651 0.80854 0.0
C629 C 0.04859 0.18648 0.7725 0.0
C630 C 0.04559 0.19936 0.78266 0.0
C631 C 0.06307 0.18008 0.77288 0.0
C632 C 0.09988 0.18135 0.79747 0.0
H633 H 0.16779 0.15916 0.75864 0.0
H634 H 0.14127 0.16699 0.75819 0.0
H635 H 0.12158 0.17778 0.80853 0.0
H636 H 0.0554 0.21606 0.80076 0.0
H637 H 0.08094 0.20585 0.80063 0.0
H638 H 0.09016 0.17181 0.75834 0.0
C639 C 0.14584 0.16316 0.76954 0.0
C640 C 0.11476 0.17591 0.79759 0.0
C641 C 0.16115 0.15879 0.76977 0.0
C642 C 0.05738 0.20598 0.79295 0.0
C643 C 0.07201 0.19996 0.79296 0.0
C644 C 0.09667 0.17282 0.76956 0.0
C645 C 0.1369 0.16316 0.78384 0.0
C646 C 0.12078 0.16858 0.78378 0.0
C647 C 0.07507 0.18678 0.78307 0.0
C648 C 0.09068 0.18017 0.78337 0.0
H649 H 0.16429 0.15141 0.80999 0.0
H650 H 0.13726 0.15774 0.80951 0.0
H651 H 0.11529 0.16106 0.75901 0.0
H652 H 0.0396 0.18109 0.76454 0.0
H653 H 0.0647 0.16975 0.76532 0.0
C654 C 0.05835 0.59761 0.27845 0.0
C655 C 0.06421 0.61306 0.27427 0.0
C656 C 0.04419 0.59106 0.27213 0.0
C657 C 0.00754 0.60248 0.25474 0.0
H658 H 0.0021 0.55798 0.24159 0.0
C659 C 0.94896 0.57501 0.22988 0.0
C660 C 0.94356 0.56031 0.2365 0.0
C661 C 0.96439 0.58106 0.23214 0.0
C662 C 0.00341 0.5704 0.24529 0.0
H663 H 0.05987 0.63368 0.26003 0.0
H664 H 0.03517 0.62221 0.24897 0.0
H665 H 0.02768 0.56945 0.25035 0.0
H666 H 0.95037 0.54009 0.25002 0.0
H667 H 0.97717 0.55071 0.25411 0.0
H668 H 0.98325 0.6034 0.25004 0.0
C669 C 0.04147 0.61523 0.25725 0.0
C670 C 0.01806 0.57697 0.25032 0.0
C671 C 0.05565 0.62177 0.26355 0.0
C672 C 0.95413 0.55146 0.24476 0.0
C673 C 0.96954 0.55752 0.24704 0.0
C674 C -0.0071 0.59592 0.24974 0.0
C675 C 0.03556 0.59981 0.26151 0.0
C676 C 0.02024 0.59303 0.25528 0.0
C677 C 0.97476 0.57256 0.24108 0.0
C678 C -0.00938 0.57976 0.24513 0.0
H679 H 0.06466 0.59058 0.28669 0.0
H680 H 0.03986 0.57924 0.27582 0.0
H681 H 0.00878 0.61484 0.25869 0.0
H682 H 0.94116 0.5821 0.22335 0.0
H683 H 0.96812 0.59255 0.22715 0.0
C684 C 0.48255 0.40214 0.71436 0.0
C685 C 0.47948 0.38708 0.70699 0.0
C686 C 0.47287 0.41434 0.71155 0.0
C687 C 0.43275 0.42049 0.69964 0.0
H688 H 0.44883 0.46471 0.69703 0.0
C689 C 0.39261 0.47159 0.69104 0.0
C690 C 0.39591 0.48528 0.70077 0.0
C691 C 0.40306 0.45973 0.69019 0.0
C692 C 0.44416 0.45243 0.69785 0.0
H693 H 0.46413 0.37318 0.69038 0.0
H694 H 0.44729 0.39456 0.68536 0.0
H695 H 0.46687 0.44386 0.69786 0.0
H696 H 0.41281 0.49728 0.71717 0.0
H697 H 0.43094 0.47655 0.71579 0.0
H698 H 0.41004 0.42908 0.69986 0.0
C699 C 0.45708 0.39685 0.6935 0.0
C700 C 0.45449 0.44048 0.69831 0.0
C701 C 0.46679 0.38464 0.6963 0.0
C702 C 0.40992 0.4869 0.70954 0.0
C703 C 0.42037 0.47506 0.70866 0.0
C704 C 0.42241 0.43245 0.69916 0.0
C705 C 0.45988 0.41177 0.70129 0.0
C706 C 0.44891 0.42438 0.69943 0.0
C707 C 0.41705 0.46132 0.69901 0.0
C708 C 0.428 0.44857 0.69849 0.0
H709 H 0.49222 0.40444 0.72266 0.0
H710 H 0.47526 0.42562 0.71789 0.0
H711 H 0.42806 0.40824 0.70074 0.0
H712 H 0.38193 0.47 0.6841 0.0
H713 H 0.40023 0.44936 0.68252 0.0
C714 C 0.71604 -0.00331 0.24544 0.0
C715 C 0.72874 0.00213 0.25526 0.0
C716 C 0.70195 -0.00914 0.25242 0.0
C717 C 0.68602 0.97377 0.29039 0.0
H718 H 0.64635 0.98535 0.27413 0.0
C719 C 0.62926 0.96149 0.32623 0.0
C720 C 0.6157 0.95625 0.31764 0.0
C721 C 0.64286 0.96663 0.31803 0.0
C722 C 0.65732 0.98183 0.27868 0.0
H723 H 0.7365 0.00601 0.28009 0.0
H724 H 0.712 -0.00399 0.29217 0.0
H725 H 0.67039 -0.00472 0.26074 0.0
H726 H 0.60581 0.95227 0.29364 0.0
H727 H 0.62964 0.96112 0.2793 0.0
H728 H 0.67304 0.96037 0.30832 0.0
C729 C 0.71296 -0.004 0.27911 0.0
C730 C 0.67109 0.98753 0.27102 0.0
C731 C 0.72699 0.00184 0.27216 0.0
C732 C 0.61606 0.95626 0.30063 0.0
C733 C 0.62968 0.96142 0.2924 0.0
C734 C 0.67229 0.96806 0.29801 0.0
C735 C 0.70032 -0.00969 0.26934 0.0
C736 C 0.6856 0.98371 0.27691 0.0
C737 C 0.64325 0.96664 0.30102 0.0
C738 C 0.65778 0.97217 0.29238 0.0
H739 H 0.71702 -0.00325 0.23238 0.0
H740 H 0.69244 0.98648 0.24457 0.0
H741 H 0.69699 0.97033 0.29502 0.0
H742 H 0.62937 0.9617 0.33934 0.0
H743 H 0.65303 0.97081 0.32504 0.0
C744 C 0.03252 0.4895 0.84796 0.0
C745 C 0.02721 0.47835 0.85959 0.0
C746 C 0.04624 0.49922 0.85049 0.0
C747 C 0.08291 0.50087 0.87352 0.0
H748 H 0.08715 0.54478 0.85961 0.0
C749 C 0.14024 0.53988 0.88245 0.0
C750 C 0.14563 0.54842 0.8688 0.0
C751 C 0.12498 0.53291 0.88299 0.0
C752 C 0.08615 0.53251 0.86349 0.0
H753 H 0.03197 0.46892 0.88321 0.0
H754 H 0.05582 0.48598 0.8877 0.0
H755 H 0.06196 0.52944 0.85737 0.0
H756 H 0.13898 0.55699 0.84537 0.0
H757 H 0.11245 0.54475 0.84628 0.0
H758 H 0.10713 0.50382 0.87939 0.0
C759 C 0.04949 0.48705 0.8765 0.0
C760 C 0.07174 0.52372 0.86219 0.0
C761 C 0.03578 0.47732 0.87395 0.0
C762 C 0.13522 0.55046 0.85605 0.0
C763 C 0.11996 0.54351 0.85661 0.0
C764 C 0.09731 0.50966 0.87484 0.0
C765 C 0.05496 0.49802 0.86474 0.0
C766 C 0.07 0.50773 0.86701 0.0
C767 C 0.11477 0.53436 0.86993 0.0
C768 C 0.09914 0.52552 0.86968 0.0
H769 H 0.0262 0.49058 0.83675 0.0
H770 H 0.05022 0.50739 0.84109 0.0
H771 H 0.08206 0.48852 0.87711 0.0
H772 H 0.14792 0.53818 0.89253 0.0
H773 H 0.12125 0.52616 0.89354 0.0
C774 C 0.62093 0.67857 0.36317 0.0
C775 C 0.60977 0.68244 0.37466 0.0
C776 C 0.63472 0.67241 0.36803 0.0
C777 C 0.66055 0.6685 0.40324 0.0
H778 H 0.67527 0.63391 0.37748 0.0
C779 C 0.71295 0.63331 0.42188 0.0
C780 C 0.72337 0.62999 0.40942 0.0
C781 C 0.69892 0.63983 0.41834 0.0
C782 C 0.67139 0.64365 0.38472 0.0
H783 H 0.60446 0.68311 0.40031 0.0
H784 H 0.62851 0.67218 0.40878 0.0
H785 H 0.65123 0.6452 0.36998 0.0
H786 H 0.72732 0.63115 0.3835 0.0
H787 H 0.70302 0.64253 0.3774 0.0
H788 H 0.6808 0.66688 0.41798 0.0
C789 C 0.62665 0.67407 0.39602 0.0
C790 C 0.65762 0.65015 0.38041 0.0
C791 C 0.61283 0.68026 0.39115 0.0
C792 C 0.71954 0.63347 0.3934 0.0
C793 C 0.70555 0.63992 0.38987 0.0
C794 C 0.67435 0.66197 0.40758 0.0
C795 C 0.63768 0.66992 0.38449 0.0
C796 C 0.65211 0.66276 0.3895 0.0
C797 C 0.69502 0.64307 0.40226 0.0
C798 C 0.68001 0.64959 0.39825 0.0
H799 H 0.61898 0.68019 0.35038 0.0
H800 H 0.64309 0.66961 0.35886 0.0
H801 H 0.65668 0.6783 0.41042 0.0
H802 H 0.71558 0.63077 0.43435 0.0
H803 H 0.691 0.64205 0.42813 0.0
C804 C 0.47907 0.16274 0.9318 0.0
C805 C 0.48255 0.17813 0.93829 0.0
C806 C 0.46768 0.15233 0.93886 0.0
C807 C 0.4323 0.15319 0.96346 0.0
H808 H 0.43412 0.10733 0.96249 0.0
C809 C 0.37752 0.10982 0.96234 0.0
C810 C 0.37759 0.09517 0.97025 0.0
C811 C 0.39096 0.12018 0.96169 0.0
C812 C 0.43348 0.12012 0.96311 0.0
H813 H 0.47735 0.19436 0.95782 0.0
H814 H 0.45757 0.1761 0.97027 0.0
H815 H 0.45728 0.12455 0.95594 0.0
H816 H 0.39177 0.08017 0.98418 0.0
H817 H 0.41529 0.09837 0.98312 0.0
H818 H 0.40849 0.14877 0.97053 0.0
C819 C 0.46348 0.17219 0.95953 0.0
C820 C 0.44671 0.12999 0.95916 0.0
C821 C 0.47487 0.18262 0.95244 0.0
C822 C 0.39133 0.09134 0.97793 0.0
C823 C 0.40483 0.10172 0.97726 0.0
C824 C 0.41909 0.14333 0.96743 0.0
C825 C 0.45952 0.15704 0.95263 0.0
C826 C 0.44617 0.14663 0.9589 0.0
C827 C 0.40484 0.11618 0.96894 0.0
C828 C 0.4194 0.12667 0.96689 0.0
H829 H 0.48478 0.15887 0.92092 0.0
H830 H 0.46482 0.14084 0.93309 0.0
H831 H 0.4314 0.16594 0.96328 0.0
H832 H 0.36716 0.11319 0.95629 0.0
H833 H 0.3906 0.13109 0.95498 0.0
C834 C 0.98373 0.00892 0.39362 0.0
C835 C 0.96847 0.0041 0.3985 0.0
C836 C -0.00421 -0.00096 0.396 0.0
C837 C 0.00691 0.96507 0.42002 0.0
H838 H 0.03604 0.95943 0.38505 0.0
C839 C 0.04947 0.91548 0.42008 0.0
C840 C 0.06449 0.91902 0.41384 0.0
C841 C 0.03814 0.92638 0.41877 0.0
C842 C 0.02816 0.96104 0.39504 0.0
H843 H 0.95397 0.98519 0.40986 0.0
H844 H 0.97501 0.96797 0.41396 0.0
H845 H 0.01564 0.97756 0.3818 0.0
H846 H 0.07948 0.93692 0.40156 0.0
H847 H 0.0598 0.95603 0.39949 0.0
H848 H 0.0194 0.94855 0.43326 0.0
C849 C 0.97766 0.97943 0.40841 0.0
C850 C 0.01645 0.97143 0.39316 0.0
C851 C 0.96559 0.98927 0.40597 0.0
C852 C 0.068 0.93379 0.40644 0.0
C853 C 0.05668 0.94471 0.40516 0.0
C854 C 0.01866 0.95472 0.42193 0.0
C855 C -0.00711 0.98417 0.40338 0.0
C856 C 0.00563 0.97349 0.40559 0.0
C857 C 0.04158 0.9411 0.41122 0.0
C858 C 0.02937 0.9525 0.40942 0.0
H859 H 0.98635 0.02028 0.38786 0.0
H860 H 0.00743 0.00311 0.39216 0.0
H861 H -0.0011 0.96658 0.42992 0.0
H862 H 0.04637 0.90419 0.42581 0.0
H863 H 0.02659 0.92311 0.42338 0.0
C864 C 0.77595 0.09048 0.17784 0.0
C865 C 0.77065 0.07431 0.17626 0.0
C866 C 0.77756 0.10009 0.16421 0.0
C867 C 0.7635 0.10528 0.12347 0.0
H868 H 0.804 0.12709 0.11537 0.0
C869 C 0.77748 0.13784 0.0635 0.0
C870 C 0.7882 0.1513 0.06379 0.0
C871 C 0.77485 0.1287 0.07736 0.0
C872 C 0.79251 0.12138 0.11755 0.0
H873 H 0.76248 0.05562 0.15926 0.0
H874 H 0.76489 0.07262 0.13545 0.0
H875 H 0.79997 0.11099 0.13945 0.0
H876 H 0.80415 0.1661 0.07894 0.0
H877 H 0.79903 0.15071 0.1033 0.0
H878 H 0.75577 0.11601 0.10196 0.0
C879 C 0.76794 0.07774 0.14724 0.0
C880 C 0.79027 0.11206 0.13132 0.0
C881 C 0.76664 0.06803 0.16083 0.0
C882 C 0.79593 0.15568 0.07831 0.0
C883 C 0.79307 0.14675 0.09226 0.0
C884 C 0.76563 0.11487 0.10985 0.0
C885 C 0.7736 0.09379 0.1488 0.0
C886 C 0.77578 0.10387 0.13435 0.0
C887 C 0.78265 0.13298 0.09194 0.0
C888 C 0.7802 0.123 0.10664 0.0
H889 H 0.77918 0.09563 0.18956 0.0
H890 H 0.78188 0.11246 0.1657 0.0
H891 H 0.75217 0.09915 0.12565 0.0
H892 H 0.77143 0.13411 0.05242 0.0
H893 H 0.76695 0.11806 0.07648 0.0
C894 C 0.96983 0.1901 0.70169 0.0
C895 C 0.96587 0.19277 0.71795 0.0
C896 C 0.95879 0.18314 0.69082 0.0
C897 C 0.91666 0.18027 0.68499 0.0
H898 H 0.92592 0.15379 0.648 0.0
C899 C 0.87158 0.16703 0.63449 0.0
C900 C 0.87733 0.16921 0.61869 0.0
C901 C 0.88178 0.16594 0.6475 0.0
C902 C 0.92316 0.1612 0.65826 0.0
H903 H 0.94752 0.18911 0.73581 0.0
H904 H 0.9283 0.17685 0.71685 0.0
H905 H 0.9452 0.15871 0.66954 0.0
H906 H 0.8983 0.17115 0.60409 0.0
H907 H 0.91606 0.16958 0.62675 0.0
H908 H 0.89494 0.18333 0.67352 0.0
C909 C 0.93987 0.18042 0.71245 0.0
C910 C 0.93419 0.164 0.67059 0.0
C911 C 0.95092 0.18738 0.72333 0.0
C912 C 0.89346 0.16951 0.6161 0.0
C913 C 0.90366 0.16849 0.62911 0.0
C914 C 0.90567 0.17751 0.67266 0.0
C915 C 0.94354 0.17868 0.69598 0.0
C916 C 0.93119 0.17385 0.68393 0.0
C917 C 0.89797 0.16708 0.64501 0.0
C918 C 0.90891 0.16823 0.65898 0.0
H919 H 0.98126 0.19405 0.69716 0.0
H920 H 0.96197 0.18209 0.6782 0.0
H921 H 0.91405 0.18812 0.69494 0.0
H922 H 0.8592 0.16659 0.6369 0.0
H923 H 0.87699 0.16457 0.65956 0.0
C924 C 0.87598 0.53549 0.17166 0.0
C925 C 0.87611 0.52865 0.18705 0.0
C926 C 0.87199 0.5261 0.15796 0.0
C927 C 0.86826 0.48404 0.14332 0.0
H928 H 0.84495 0.50149 0.10862 0.0
C929 C 0.83398 0.46249 0.08024 0.0
C930 C 0.84463 0.45225 0.07389 0.0
C931 C 0.83757 0.47161 0.09422 0.0
C932 C 0.85132 0.49634 0.11826 0.0
H933 H 0.87196 0.50663 0.20019 0.0
H934 H 0.8646 0.49032 0.1764 0.0
H935 H 0.85118 0.51754 0.13279 0.0
H936 H 0.86744 0.44365 0.07715 0.0
H937 H 0.87389 0.45984 0.10122 0.0
H938 H 0.86793 0.46264 0.12904 0.0
C939 C 0.86794 0.50287 0.1748 0.0
C940 C 0.8551 0.50566 0.13205 0.0
C941 C 0.87206 0.51224 0.18848 0.0
C942 C 0.85894 0.45134 0.0818 0.0
C943 C 0.8626 0.46057 0.09568 0.0
C944 C 0.86437 0.47468 0.12959 0.0
C945 C 0.8679 0.50967 0.15935 0.0
C946 C 0.86368 0.49966 0.14474 0.0
C947 C 0.85196 0.47083 0.10209 0.0
C948 C 0.8559 0.48072 0.11684 0.0
H949 H 0.87913 0.54809 0.17014 0.0
H950 H 0.87236 0.53172 0.14626 0.0
H951 H 0.87505 0.47906 0.15274 0.0
H952 H 0.82281 0.46339 0.07448 0.0
H953 H 0.82898 0.47915 0.09894 0.0
C954 C 0.57111 0.32222 0.66788 0.0
C955 C 0.56525 0.3341 0.67775 0.0
C956 C 0.58615 0.32432 0.66149 0.0
C957 C 0.61744 0.35539 0.65211 0.0
H958 H 0.64411 0.32044 0.65288 0.0
C959 C 0.6831 0.3648 0.63947 0.0
C960 C 0.68994 0.35332 0.62991 0.0
C961 C 0.66781 0.36208 0.64492 0.0
C962 C 0.63675 0.33026 0.65239 0.0
H963 H 0.57058 0.35753 0.68858 0.0
H964 H 0.5968 0.36113 0.67752 0.0
H965 H 0.61747 0.31647 0.66289 0.0
H966 H 0.6861 0.32988 0.61871 0.0
H967 H 0.6593 0.32517 0.62815 0.0
H968 H 0.63669 0.3692 0.64166 0.0
C969 C 0.58972 0.35026 0.67457 0.0
C970 C 0.62148 0.32798 0.65812 0.0
C971 C 0.57472 0.34816 0.68099 0.0
C972 C 0.68118 0.33895 0.62608 0.0
C973 C 0.66584 0.33623 0.63155 0.0
C974 C 0.63268 0.35766 0.64637 0.0
C975 C 0.59563 0.33835 0.66478 0.0
C976 C 0.61169 0.34056 0.65817 0.0
C977 C 0.65895 0.34782 0.64094 0.0
C978 C 0.64257 0.34517 0.64656 0.0
H979 H 0.56411 0.31126 0.66513 0.0
H980 H 0.59029 0.31499 0.65384 0.0
H981 H 0.61011 0.36524 0.6517 0.0
H982 H 0.68953 0.37596 0.64273 0.0
H983 H 0.66295 0.37114 0.65238 0.0
C984 C 0.74709 0.52943 0.47091 0.0
C985 C 0.75778 0.54292 0.47115 0.0
C986 C 0.74846 0.51714 0.48187 0.0
C987 C 0.76658 0.50809 0.52098 0.0
H988 H 0.75815 0.46429 0.5063 0.0
C989 C 0.77876 0.45462 0.56076 0.0
C990 C 0.76696 0.44211 0.56128 0.0
C991 C 0.77812 0.46676 0.54949 0.0
C992 C 0.76043 0.47646 0.51061 0.0
H993 H 0.77832 0.55411 0.48312 0.0
H994 H 0.78087 0.53257 0.50206 0.0
H995 H 0.75606 0.48589 0.48731 0.0
H996 H 0.74539 0.43239 0.55018 0.0
H997 H 0.7443 0.45356 0.5305 0.0
H998 H 0.77104 0.4986 0.54427 0.0
C999 C 0.77125 0.53158 0.49358 0.0
C1000 C 0.75919 0.48885 0.49974 0.0
C1001 C 0.76984 0.5439 0.48266 0.0
C1002 C 0.75467 0.44185 0.55009 0.0
C1003 C 0.75408 0.45394 0.53876 0.0
C1004 C 0.76789 0.49569 0.53183 0.0
C1005 C 0.76061 0.51802 0.49329 0.0
C1006 C 0.76217 0.50483 0.50481 0.0
C1007 C 0.76572 0.4666 0.53842 0.0
C1008 C 0.76476 0.47974 0.52678 0.0
H1009 H 0.73762 0.52833 0.46225 0.0
H1010 H 0.7399 0.50701 0.48148 0.0
H1011 H 0.76873 0.52024 0.52537 0.0
H1012 H 0.7884 0.45517 0.56921 0.0
H1013 H 0.78736 0.47626 0.5494 0.0
C1014 C 0.58299 0.21434 0.94238 0.0
C1015 C 0.57697 0.20295 0.93094 0.0
C1016 C 0.59819 0.21398 0.94816 0.0
C1017 C 0.62986 0.18724 0.9524 0.0
H1018 H 0.65594 0.22665 0.95792 0.0
C1019 C 0.69554 0.18797 0.96578 0.0
C1020 C 0.70179 0.19908 0.97737 0.0
C1021 C 0.68033 0.18864 0.96015 0.0
C1022 C 0.64875 0.21555 0.95661 0.0
H1023 H 0.58222 0.18228 0.91658 0.0
H1024 H 0.60876 0.18176 0.92656 0.0
H1025 H 0.62932 0.2274 0.94811 0.0
H1026 H 0.69697 0.21968 -0.00794 0.0
H1027 H 0.67038 0.22077 0.9823 0.0
H1028 H 0.64928 0.17538 0.96087 0.0
C1029 C 0.60167 0.19084 0.93122 0.0
C1030 C 0.63349 0.21598 0.951 0.0
C1031 C 0.58647 0.1912 0.92543 0.0
C1032 C 0.69252 0.21095 0.98311 0.0
C1033 C 0.6773 0.21163 0.97746 0.0
C1034 C 0.64511 0.18681 0.958 0.0
C1035 C 0.60771 0.20223 0.94266 0.0
C1036 C 0.62388 0.20182 0.94879 0.0
C1037 C 0.67101 0.20043 0.96597 0.0
C1038 C 0.65475 0.20095 0.96013 0.0
H1039 H 0.57595 0.22354 0.94689 0.0
H1040 H 0.60242 0.22281 0.95711 0.0
H1041 H 0.62269 0.17613 0.9511 0.0
H1042 H 0.70237 0.17871 0.96105 0.0
H1043 H 0.67591 0.17998 0.95112 0.0
C1044 C 0.87002 0.13396 0.52735 0.0
C1045 C 0.87409 0.15044 0.52837 0.0
C1046 C 0.87647 0.12461 0.51539 0.0
C1047 C 0.90964 0.12452 0.48672 0.0
H1048 H 0.88402 0.09015 0.46595 0.0
C1049 C 0.92788 0.09141 0.42867 0.0
C1050 C 0.92431 0.07483 0.42781 0.0
C1051 C 0.92262 0.10038 0.44164 0.0
C1052 C 0.89138 0.09959 0.47178 0.0
H1053 H 0.88798 0.17006 0.51749 0.0
H1054 H 0.89896 0.15383 0.49638 0.0
H1055 H 0.87278 0.10646 0.48679 0.0
H1056 H 0.91283 0.05462 0.44022 0.0
H1057 H 0.90367 0.0703 0.46283 0.0
H1058 H 0.92815 0.11776 0.47142 0.0
C1059 C 0.89103 0.14805 0.50504 0.0
C1060 C 0.88494 0.10894 0.48374 0.0
C1061 C 0.88465 0.15739 0.51707 0.0
C1062 C 0.91576 0.06737 0.44047 0.0
C1063 C 0.91042 0.07636 0.45337 0.0
C1064 C 0.91604 0.11522 0.47467 0.0
C1065 C 0.88708 0.13152 0.50408 0.0
C1066 C 0.89398 0.12154 0.49137 0.0
C1067 C 0.91359 0.09299 0.45398 0.0
C1068 C 0.90698 0.10265 0.46707 0.0
H1069 H 0.86199 0.12821 0.53594 0.0
H1070 H 0.87333 0.1119 0.51518 0.0
H1071 H 0.91702 0.13394 0.49252 0.0
H1072 H 0.93444 0.09754 0.41914 0.0
H1073 H 0.92517 0.11319 0.44171 0.0
C1074 C 0.9316 0.46129 0.87738 0.0
C1075 C 0.94142 0.44875 0.8777 0.0
C1076 C 0.92176 0.46397 0.89045 0.0
C1077 C 0.91473 0.45391 0.93365 0.0
H1078 H 0.87157 0.45908 0.92337 0.0
C1079 C 0.86815 0.45132 0.98353 0.0
C1080 C 0.85481 0.4412 0.97989 0.0
C1081 C 0.87854 0.45636 0.97129 0.0
C1082 C 0.88359 0.45768 0.92645 0.0
H1083 H 0.94898 0.42954 0.89222 0.0
H1084 H 0.93182 0.43409 0.9148 0.0
H1085 H 0.89088 0.45991 0.90178 0.0
H1086 H 0.84149 0.42917 0.96038 0.0
H1087 H 0.85964 0.43769 0.93918 0.0
H1088 H 0.90734 0.45074 0.95814 0.0
C1089 C 0.93178 0.44199 0.90459 0.0
C1090 C 0.89469 0.45834 0.9141 0.0
C1091 C 0.94155 0.43929 0.89155 0.0
C1092 C 0.85167 0.43692 0.96364 0.0
C1093 C 0.86205 0.44192 0.95143 0.0
C1094 C 0.90363 0.45321 0.94598 0.0
C1095 C 0.92162 0.45422 0.90413 0.0
C1096 C 0.91031 0.45599 0.91749 0.0
C1097 C 0.87582 0.45137 0.95515 0.0
C1098 C 0.88785 0.45464 0.94247 0.0
H1099 H 0.93126 0.46883 0.8669 0.0
H1100 H 0.91416 0.47358 0.8898 0.0
H1101 H 0.92671 0.45231 0.9367 0.0
H1102 H 0.87087 0.45494 -0.00409 0.0
H1103 H 0.88891 0.46383 0.97453 0.0
C1104 C 0.228 0.63647 0.16437 0.0
C1105 C 0.24299 0.63109 0.16503 0.0
C1106 C 0.21691 0.63191 0.17606 0.0
C1107 C 0.21473 0.61983 0.21837 0.0
H1108 H 0.17042 0.61578 0.20949 0.0
C1109 C 0.16927 0.63636 0.26496 0.0
C1110 C 0.15451 0.62798 0.26506 0.0
C1111 C 0.18033 0.63283 0.25339 0.0
C1112 C 0.18275 0.61659 0.21221 0.0
H1113 H 0.25781 0.61593 0.17796 0.0
H1114 H 0.23835 0.60787 0.19836 0.0
H1115 H 0.18883 0.61581 0.18712 0.0
H1116 H 0.14004 0.60879 0.25351 0.0
H1117 H 0.15944 0.60257 0.23333 0.0
H1118 H 0.20865 0.62083 0.24345 0.0
C1119 C 0.23528 0.61582 0.1889 0.0
C1120 C 0.1933 0.61679 0.19937 0.0
C1121 C 0.24639 0.62037 0.17717 0.0
C1122 C 0.15128 0.61554 0.25371 0.0
C1123 C 0.16236 0.61202 0.24211 0.0
C1124 C 0.20418 0.61961 0.23121 0.0
C1125 C 0.22053 0.62184 0.18869 0.0
C1126 C 0.20941 0.61891 0.20228 0.0
C1127 C 0.17691 0.62082 0.24163 0.0
C1128 C 0.18807 0.61848 0.22826 0.0
H1129 H 0.22496 0.64469 0.15515 0.0
H1130 H 0.20574 0.63694 0.17562 0.0
H1131 H 0.22705 0.62158 0.22106 0.0
H1132 H 0.17218 0.64599 0.27353 0.0
H1133 H 0.19132 0.64 0.25326 0.0
C1134 C 0.13481 0.89244 0.4673 0.0
C1135 C 0.13809 0.88205 0.4545 0.0
C1136 C 0.14405 0.89341 0.48127 0.0
C1137 C 0.18203 0.88296 0.49773 0.0
H1138 H 0.16006 0.88151 0.53869 0.0
C1139 C 0.20937 0.86295 0.5571 0.0
C1140 C 0.20571 0.87077 0.57158 0.0
C1141 C 0.20214 0.86646 0.54258 0.0
C1142 C 0.16642 0.88217 0.52738 0.0
H1143 H 0.15399 0.86494 0.44615 0.0
H1144 H 0.16988 0.86651 0.47045 0.0
H1145 H 0.14565 0.88422 0.51369 0.0
H1146 H 0.19196 0.88882 0.58205 0.0
H1147 H 0.17945 0.89498 0.55673 0.0
H1148 H 0.20276 0.88052 0.51145 0.0
C1149 C 0.1603 0.87405 0.46969 0.0
C1150 C 0.15815 0.88375 0.51304 0.0
C1151 C 0.1511 0.87306 0.45577 0.0
C1152 C 0.19498 0.88248 0.57114 0.0
C1153 C 0.18774 0.88597 0.55664 0.0
C1154 C 0.1903 0.88135 0.51209 0.0
C1155 C 0.15677 0.88405 0.48271 0.0
C1156 C 0.16581 0.88392 0.49802 0.0
C1157 C 0.19108 0.87786 0.54223 0.0
C1158 C 0.18255 0.88072 0.52706 0.0
H1159 H 0.12493 0.89958 0.46669 0.0
H1160 H 0.14113 0.90138 0.49101 0.0
H1161 H 0.18832 0.88331 0.48639 0.0
H1162 H 0.21759 0.85387 0.55701 0.0
H1163 H 0.20486 0.85987 0.53173 0.0
C1164 C 0.26836 0.6345 0.05557 0.0
C1165 C 0.25734 0.63331 0.06807 0.0
C1166 C 0.26422 0.62961 0.03981 0.0
C1167 C 0.22956 0.61871 0.01348 0.0
H1168 H 0.26052 0.60125 0.9858 0.0
C1169 C 0.21635 0.58545 0.95223 0.0
C1170 C 0.22457 0.59226 0.93902 0.0
C1171 C 0.22017 0.59045 0.96804 0.0
C1172 C 0.2518 0.60614 -0.00657 0.0
H1173 H 0.23342 0.62584 0.07402 0.0
H1174 H 0.22636 0.61653 0.04679 0.0
H1175 H 0.26743 0.60956 0.01342 0.0
H1176 H 0.24337 0.60941 0.93199 0.0
H1177 H 0.25039 0.61773 0.95973 0.0
H1178 H 0.21381 0.61455 -0.00651 0.0
C1179 C 0.23806 0.62179 0.04889 0.0
C1180 C 0.25575 0.61105 0.00922 0.0
C1181 C 0.24212 0.62702 0.06457 0.0
C1182 C 0.23681 0.60399 0.94194 0.0
C1183 C 0.24086 0.60872 0.95776 0.0
C1184 C 0.22553 0.61346 -0.0022 0.0
C1185 C 0.24904 0.62305 0.03625 0.0
C1186 C 0.24473 0.61753 0.01947 0.0
C1187 C 0.2325 0.60206 0.97092 0.0
C1188 C 0.23665 0.60726 0.98763 0.0
H1189 H 0.28015 0.63945 0.0579 0.0
H1190 H 0.27294 0.63117 0.03042 0.0
H1191 H 0.2208 0.62391 0.02079 0.0
H1192 H 0.20682 0.57643 0.95033 0.0
H1193 H 0.21361 0.58514 0.97804 0.0
C1194 C 0.42676 0.73989 0.53532 0.0
C1195 C 0.41127 0.73375 0.53295 0.0
C1196 C 0.43712 0.7412 0.52231 0.0
C1197 C 0.44327 0.72477 0.48141 0.0
H1198 H 0.47295 0.76158 0.47726 0.0
C1199 C 0.48208 0.73375 0.42505 0.0
C1200 C 0.49778 0.73896 0.42767 0.0
C1201 C 0.47134 0.73387 0.4377 0.0
C1202 C 0.46483 0.75116 0.47834 0.0
H1203 H 0.39445 0.72442 0.515 0.0
H1204 H 0.41248 0.72685 0.49229 0.0
H1205 H 0.45451 0.76039 0.49972 0.0
H1206 H 0.51447 0.74868 0.44558 0.0
H1207 H 0.49573 0.74875 0.4677 0.0
H1208 H 0.45362 0.71547 0.46013 0.0
C1209 C 0.41668 0.73045 0.50425 0.0
C1210 C 0.45427 0.75048 0.4912 0.0
C1211 C 0.40632 0.72914 0.51725 0.0
C1212 C 0.50245 0.7446 0.44315 0.0
C1213 C 0.49169 0.74471 0.45582 0.0
C1214 C 0.45382 0.72544 0.46857 0.0
C1215 C 0.43223 0.73639 0.50664 0.0
C1216 C 0.44337 0.73727 0.49289 0.0
C1217 C 0.47604 0.7392 0.45328 0.0
C1218 C 0.46473 0.73864 0.46687 0.0
H1219 H 0.43095 0.74352 0.54727 0.0
H1220 H 0.44906 0.74567 0.5246 0.0
H1221 H 0.43522 0.71429 0.48252 0.0
H1222 H 0.47807 0.72941 0.41326 0.0
H1223 H 0.45932 0.72978 0.43527 0.0
C1224 C 0.33854 0.01726 0.02801 0.0
C1225 C 0.34561 0.01574 0.0128 0.0
C1226 C 0.34015 0.00589 0.03993 0.0
C1227 C 0.35034 0.96439 0.04544 0.0
H1228 H 0.35645 0.97786 0.09021 0.0
C1229 C 0.36789 0.92157 0.09485 0.0
C1230 C 0.36018 0.92224 0.10979 0.0
C1231 C 0.36603 0.93306 0.08313 0.0
C1232 C 0.3546 0.9739 0.07779 0.0
H1233 H 0.36001 0.00113 -0.00178 0.0
H1234 H 0.36302 0.98147 0.01906 0.0
H1235 H 0.35334 -0.00227 0.06953 0.0
H1236 H 0.34455 0.93563 0.12421 0.0
H1237 H 0.3413 0.95569 0.10374 0.0
H1238 H 0.35173 0.94057 0.05369 0.0
C1239 C 0.35599 -0.00871 0.02171 0.0
C1240 C 0.35279 0.98528 0.06593 0.0
C1241 C 0.35434 0.00262 0.00978 0.0
C1242 C 0.35066 0.93476 0.11282 0.0
C1243 C 0.34886 0.94631 0.10113 0.0
C1244 C 0.35221 0.95303 0.05728 0.0
C1245 C 0.34891 -0.00723 0.03693 0.0
C1246 C 0.35067 0.98067 0.0496 0.0
C1247 C 0.35647 0.94554 0.08612 0.0
C1248 C 0.35439 0.95765 0.07358 0.0
H1249 H 0.33169 0.0272 0.03071 0.0
H1250 H 0.33436 0.0073 0.05143 0.0
H1251 H 0.34845 0.96037 0.03303 0.0
H1252 H 0.37533 0.9121 0.09214 0.0
H1253 H 0.37221 0.93226 0.07177 0.0
C1254 C 0.48803 0.92041 0.2798 0.0
C1255 C 0.49671 0.90713 0.28174 0.0
C1256 C 0.47573 0.91991 0.26876 0.0
C1257 C 0.46019 0.89849 0.23222 0.0
H1258 H 0.42173 0.91656 0.24418 0.0
C1259 C 0.41027 0.90232 0.18642 0.0
C1260 C 0.39528 0.89736 0.192 0.0
C1261 C 0.42268 0.90493 0.19727 0.0
C1262 C 0.43238 0.91143 0.24067 0.0
H1263 H 0.49923 0.88285 0.27362 0.0
H1264 H 0.47767 0.88194 0.25442 0.0
H1265 H 0.44325 0.91761 0.26344 0.0
H1266 H 0.38149 0.89186 0.21347 0.0
H1267 H 0.40312 0.89634 0.23233 0.0
H1268 H 0.44921 0.89196 0.20962 0.0
C1269 C 0.4805 0.89282 0.26132 0.0
C1270 C 0.44476 0.91216 0.25165 0.0
C1271 C 0.4928 0.89331 0.2724 0.0
C1272 C 0.39288 0.89567 0.20874 0.0
C1273 C 0.40528 0.8983 0.21958 0.0
C1274 C 0.44783 0.8978 0.22124 0.0
C1275 C 0.47184 0.90612 0.25937 0.0
C1276 C 0.45877 0.90561 0.24759 0.0
C1277 C 0.42038 0.90268 0.21395 0.0
C1278 C 0.43375 0.90417 0.22537 0.0
H1279 H 0.49076 0.93127 0.28678 0.0
H1280 H 0.46941 0.93042 0.26741 0.0
H1281 H 0.47089 0.8935 0.22865 0.0
H1282 H 0.41252 0.9038 0.17362 0.0
H1283 H 0.43413 0.90855 0.19258 0.0
C1284 C 0.23739 0.02046 0.7721 0.0
C1285 C 0.23317 0.03338 0.76295 0.0
C1286 C 0.23721 0.00521 0.76515 0.0
C1287 C 0.23705 0.98363 0.72577 0.0
H1288 H 0.21818 0.9483 0.75034 0.0
C1289 C 0.2169 0.92273 0.6966 0.0
C1290 C 0.21862 0.9089 0.70553 0.0
C1291 C 0.22048 0.9378 0.70357 0.0
C1292 C 0.22372 0.95797 0.7434 0.0
H1293 H 0.2257 0.04043 0.73922 0.0
H1294 H 0.22527 0.01383 0.72717 0.0
H1295 H 0.22111 0.97482 0.76265 0.0
H1296 H 0.22599 0.90006 0.72858 0.0
H1297 H 0.2324 0.92636 0.74066 0.0
H1298 H 0.23946 0.96679 0.70644 0.0
C1299 C 0.22887 0.01551 0.73967 0.0
C1300 C 0.22539 0.97319 0.75046 0.0
C1301 C 0.22902 0.03075 0.74662 0.0
C1302 C 0.22444 0.91047 0.7214 0.0
C1303 C 0.22804 0.92555 0.72836 0.0
C1304 C 0.23539 0.96839 0.71871 0.0
C1305 C 0.23284 0.00254 0.74889 0.0
C1306 C 0.23192 0.98622 0.74167 0.0
C1307 C 0.22588 0.93939 0.71961 0.0
C1308 C 0.22856 0.95541 0.72739 0.0
H1309 H 0.2407 0.02209 0.7847 0.0
H1310 H 0.24051 -0.0045 0.77252 0.0
H1311 H 0.24235 -0.00662 0.71876 0.0
H1312 H 0.21243 0.92194 0.68435 0.0
H1313 H 0.21852 0.94821 0.69654 0.0
C1314 C 0.37567 0.56416 0.65839 0.0
C1315 C 0.37953 0.56774 0.67464 0.0
C1316 C 0.37703 0.57606 0.64673 0.0
C1317 C 0.39368 0.6176 0.63944 0.0
H1318 H 0.35839 0.61874 0.61054 0.0
C1319 C 0.38778 0.6702 0.59635 0.0
C1320 C 0.37295 0.67602 0.59584 0.0
C1321 C 0.3899 0.65562 0.60359 0.0
C1322 C 0.36833 0.61862 0.61853 0.0
H1323 H 0.38845 0.58651 0.69122 0.0
H1324 H 0.39053 0.60722 0.67105 0.0
H1325 H 0.36029 0.59592 0.6279 0.0
H1326 H 0.34866 0.67085 0.60221 0.0
H1327 H 0.3524 0.6457 0.61503 0.0
H1328 H 0.40124 0.64071 0.63073 0.0
C1329 C 0.38667 0.5952 0.6672 0.0
C1330 C 0.36954 0.60541 0.62835 0.0
C1331 C 0.38537 0.58332 0.67883 0.0
C1332 C 0.36025 0.66674 0.60236 0.0
C1333 C 0.36237 0.65222 0.60962 0.0
C1334 C 0.39243 0.63084 0.62968 0.0
C1335 C 0.38225 0.5918 0.65107 0.0
C1336 C 0.38204 0.6049 0.6392 0.0
C1337 C 0.37725 0.64654 0.61049 0.0
C1338 C 0.37955 0.63168 0.61938 0.0
H1339 H 0.37124 0.55225 0.65473 0.0
H1340 H 0.37376 0.57297 0.63436 0.0
H1341 H 0.40359 0.61748 0.64747 0.0
H1342 H 0.3978 0.67701 0.59137 0.0
H1343 H 0.40148 0.6515 0.60388 0.0
loop_
_geom_bond_atom_site_label_1
_geom_bond_atom_site_label_2
_geom_bond_distance
_geom_bond_site_symmetry_2
_ccdc_geom_bond_type
O0 Cd1 2.300 . S
O0 C7 1.275 . S
Cd1 O0 2.300 . S
Cd1 O9 2.381 . S
Cd1 O10 2.378 . S
O2 Cd3 2.385 . S
O2 C7 1.255 1_655 S
Cd3 O2 2.385 . S
Cd3 O4 2.317 . S
O4 Cd3 2.317 . S
O4 C5 1.232 . S
C5 O4 1.232 . S
C5 O6 1.218 . S
O6 C5 1.218 . S
C7 O0 1.275 . S
C7 O2 1.255 1_455 S
C8 O9 1.258 . S
C8 O10 1.256 . S
O9 Cd1 2.381 . S
O9 C8 1.258 . S
O10 Cd1 2.378 . S
O10 C8 1.256 . S
O11 Cd12 2.300 . S
O11 C18 1.275 . S
Cd12 O11 2.300 . S
Cd12 O20 2.381 . S
Cd12 O21 2.378 . S
O13 Cd14 2.385 . S
O13 C18 1.255 . S
Cd14 O13 2.385 . S
Cd14 O15 2.317 . S
O15 Cd14 2.317 . S
O15 C16 1.232 . S
C16 O15 1.232 . S
C16 O17 1.218 . S
O17 C16 1.218 . S
C18 O11 1.275 . S
C18 O13 1.255 . S
C19 O20 1.258 . S
C19 O21 1.256 . S
O20 Cd12 2.381 . S
O20 C19 1.258 . S
O21 Cd12 2.378 . S
O21 C19 1.256 . S
O22 Cd23 2.300 . S
O22 C29 1.275 . S
Cd23 O22 2.300 . S
Cd23 O31 2.381 . S
Cd23 O32 2.378 . S
O24 Cd25 2.385 . S
O24 C29 1.255 . S
Cd25 O24 2.385 . S
Cd25 O26 2.317 . S
O26 Cd25 2.317 . S
O26 C27 1.232 . S
C27 O26 1.232 . S
C27 O28 1.218 . S
O28 C27 1.218 . S
C29 O22 1.275 . S
C29 O24 1.255 . S
C30 O31 1.258 . S
C30 O32 1.256 . S
O31 Cd23 2.381 . S
O31 C30 1.258 . S
O32 Cd23 2.378 . S
O32 C30 1.256 . S
O33 Cd34 2.300 . S
O33 C40 1.275 . S
Cd34 O33 2.300 . S
Cd34 O42 2.381 . S
Cd34 O43 2.378 . S
O35 Cd36 2.385 . S
O35 C40 1.255 . S
Cd36 O35 2.385 . S
Cd36 O37 2.317 . S
O37 Cd36 2.317 . S
O37 C38 1.232 . S
C38 O37 1.232 . S
C38 O39 1.218 . S
O39 C38 1.218 . S
C40 O33 1.275 . S
C40 O35 1.255 . S
C41 O42 1.258 . S
C41 O43 1.256 . S
O42 Cd34 2.381 . S
O42 C41 1.258 . S
O43 Cd34 2.378 . S
O43 C41 1.256 . S
O44 Cd45 2.300 . S
O44 C51 1.282 . S
Cd45 O44 2.300 . S
Cd45 O53 2.381 . S
Cd45 O54 2.378 . S
O46 Cd47 2.385 . S
O46 C51 1.250 1_655 S
Cd47 O46 2.385 . S
Cd47 O48 2.317 . S
O48 Cd47 2.317 . S
O48 C49 1.232 . S
C49 O48 1.232 . S
C49 O50 1.218 . S
O50 C49 1.218 . S
C51 O44 1.282 . S
C51 O46 1.250 1_455 S
C52 O53 1.258 . S
C52 O54 1.256 . S
O53 Cd45 2.381 . S
O53 C52 1.258 . S
O54 Cd45 2.378 . S
O54 C52 1.256 . S
O55 Cd56 2.300 . S
O55 C62 1.275 . S
Cd56 O55 2.300 . S
Cd56 O64 2.381 . S
Cd56 O65 2.378 . S
O57 Cd58 2.385 . S
O57 C62 1.255 . S
Cd58 O57 2.385 . S
Cd58 O59 2.317 . S
O59 Cd58 2.317 . S
O59 C60 1.232 . S
C60 O59 1.232 . S
C60 O61 1.218 . S
O61 C60 1.218 . S
C62 O55 1.275 . S
C62 O57 1.255 . S
C63 O64 1.258 . S
C63 O65 1.256 . S
O64 Cd56 2.381 . S
O64 C63 1.258 . S
O65 Cd56 2.378 . S
O65 C63 1.256 . S
O66 Cd67 2.300 . S
O66 C73 1.275 . S
Cd67 O66 2.300 . S
Cd67 O75 2.381 . S
Cd67 O76 2.378 . S
O68 Cd69 2.385 . S
O68 C73 1.255 . S
Cd69 O68 2.385 . S
Cd69 O70 2.317 . S
O70 Cd69 2.317 . S
O70 C71 1.232 . S
C71 O70 1.232 . S
C71 O72 1.218 . S
O72 C71 1.218 . S
C73 O66 1.275 . S
C73 O68 1.255 . S
C74 O75 1.258 . S
C74 O76 1.256 . S
O75 Cd67 2.381 . S
O75 C74 1.258 . S
O76 Cd67 2.378 . S
O76 C74 1.256 . S
O77 Cd78 2.300 . S
O77 C84 1.275 . S
Cd78 O77 2.300 . S
Cd78 O86 2.381 . S
Cd78 O87 2.378 . S
O79 Cd80 2.385 . S
O79 C84 1.255 . S
Cd80 O79 2.385 . S
Cd80 O81 2.317 . S
O81 Cd80 2.317 . S
O81 C82 1.232 . S
C82 O81 1.232 . S
C82 O83 1.218 . S
O83 C82 1.218 . S
C84 O77 1.275 . S
C84 O79 1.255 . S
C85 O86 1.258 . S
C85 O87 1.256 . S
O86 Cd78 2.381 . S
O86 C85 1.258 . S
O87 Cd78 2.378 . S
O87 C85 1.256 . S
O88 Cd89 2.300 . S
O88 C95 1.275 . S
Cd89 O88 2.300 . S
Cd89 O97 2.381 . S
Cd89 O98 2.378 . S
O90 Cd91 2.385 . S
O90 C95 1.255 . S
Cd91 O90 2.385 . S
Cd91 O92 2.317 . S
O92 Cd91 2.317 . S
O92 C93 1.232 . S
C93 O92 1.232 . S
C93 O94 1.218 . S
O94 C93 1.218 . S
C95 O88 1.275 . S
C95 O90 1.255 . S
C96 O97 1.258 . S
C96 O98 1.256 . S
O97 Cd89 2.381 . S
O97 C96 1.258 . S
O98 Cd89 2.378 . S
O98 C96 1.256 . S
O99 Cd100 2.300 . S
O99 C106 1.275 . S
Cd100 O99 2.300 . S
Cd100 O108 2.381 . S
Cd100 O109 2.378 . S
O101 Cd102 2.385 . S
O101 C106 1.255 . S
Cd102 O101 2.385 . S
Cd102 O103 2.317 . S
O103 Cd102 2.317 . S
O103 C104 1.232 . S
C104 O103 1.232 . S
C104 O105 1.218 . S
O105 C104 1.218 . S
C106 O99 1.275 . S
C106 O101 1.255 . S
C107 O108 1.258 . S
C107 O109 1.256 . S
O108 Cd100 2.381 . S
O108 C107 1.258 . S
O109 Cd100 2.378 . S
O109 C107 1.256 . S
O110 Cd111 2.300 . S
O110 C117 1.275 . S
Cd111 O110 2.300 . S
Cd111 O119 2.381 . S
Cd111 O120 2.378 . S
O112 Cd113 2.385 . S
O112 C117 1.255 . S
Cd113 O112 2.385 . S
Cd113 O114 2.317 . S
O114 Cd113 2.317 . S
O114 C115 1.232 . S
C115 O114 1.232 . S
C115 O116 1.218 . S
O116 C115 1.218 . S
C117 O110 1.275 . S
C117 O112 1.255 . S
C118 O119 1.258 . S
C118 O120 1.256 . S
O119 Cd111 2.381 . S
O119 C118 1.258 . S
O120 Cd111 2.378 . S
O120 C118 1.256 . S
O121 Cd122 2.300 . S
O121 C128 1.275 . S
Cd122 O121 2.300 . S
Cd122 O130 2.381 . S
Cd122 O131 2.378 . S
O123 Cd124 2.385 . S
O123 C128 1.255 . S
Cd124 O123 2.385 . S
Cd124 O125 2.317 . S
O125 Cd124 2.317 . S
O125 C126 1.232 . S
C126 O125 1.232 . S
C126 O127 1.218 . S
O127 C126 1.218 . S
C128 O121 1.275 . S
C128 O123 1.255 . S
C129 O130 1.258 . S
C129 O131 1.256 . S
O130 Cd122 2.381 . S
O130 C129 1.258 . S
O131 Cd122 2.378 . S
O131 C129 1.256 . S
O132 Cd133 2.300 . S
O132 C139 1.275 . S
Cd133 O132 2.300 . S
Cd133 O141 2.381 . S
Cd133 O142 2.378 . S
O134 Cd135 2.385 . S
O134 C139 1.255 . S
Cd135 O134 2.385 . S
Cd135 O136 2.317 . S
O136 Cd135 2.317 . S
O136 C137 1.232 . S
C137 O136 1.232 . S
C137 O138 1.218 . S
O138 C137 1.218 . S
C139 O132 1.275 . S
C139 O134 1.255 . S
C140 O141 1.258 . S
C140 O142 1.256 . S
O141 Cd133 2.381 . S
O141 C140 1.258 . S
O142 Cd133 2.378 . S
O142 C140 1.256 . S
O143 Cd144 2.300 . S
O143 C150 1.275 . S
Cd144 O143 2.300 . S
Cd144 O152 2.381 . S
Cd144 O153 2.378 . S
O145 Cd146 2.385 . S
O145 C150 1.255 . S
Cd146 O145 2.385 . S
Cd146 O147 2.317 . S
O147 Cd146 2.317 . S
O147 C148 1.232 . S
C148 O147 1.232 . S
C148 O149 1.218 . S
O149 C148 1.218 . S
C150 O143 1.275 . S
C150 O145 1.255 . S
C151 O152 1.258 . S
C151 O153 1.256 . S
O152 Cd144 2.381 . S
O152 C151 1.258 . S
O153 Cd144 2.378 . S
O153 C151 1.256 . S
O154 Cd155 2.300 . S
O154 C161 1.275 . S
Cd155 O154 2.300 . S
Cd155 O163 2.381 . S
Cd155 O164 2.378 . S
O156 Cd157 2.385 . S
O156 C161 1.255 . S
Cd157 O156 2.385 . S
Cd157 O158 2.317 . S
O158 Cd157 2.317 . S
O158 C159 1.232 . S
C159 O158 1.232 . S
C159 O160 1.218 . S
O160 C159 1.218 . S
C161 O154 1.275 . S
C161 O156 1.255 . S
C162 O163 1.258 . S
C162 O164 1.256 . S
O163 Cd155 2.381 . S
O163 C162 1.258 . S
O164 Cd155 2.378 . S
O164 C162 1.256 . S
O165 Cd166 2.300 . S
O165 C172 1.275 . S
Cd166 O165 2.300 . S
Cd166 O174 2.381 1_556 S
Cd166 O175 2.378 1_556 S
O167 Cd168 2.385 . S
O167 C172 1.255 . S
Cd168 O167 2.385 . S
Cd168 O169 2.317 . S
O169 Cd168 2.317 . S
O169 C170 1.232 . S
C170 O169 1.232 . S
C170 O171 1.218 . S
O171 C170 1.218 . S
C172 O165 1.275 . S
C172 O167 1.255 . S
C173 O174 1.258 . S
C173 O175 1.256 . S
O174 Cd166 2.381 1_554 S
O174 C173 1.258 . S
O175 Cd166 2.378 1_554 S
O175 C173 1.256 . S
O176 Cd177 2.300 . S
O176 C183 1.275 . S
Cd177 O176 2.300 . S
Cd177 O185 2.381 . S
Cd177 O186 2.378 . S
O178 Cd179 2.385 . S
O178 C183 1.255 . S
Cd179 O178 2.385 . S
Cd179 O180 2.317 . S
O180 Cd179 2.317 . S
O180 C181 1.232 . S
C181 O180 1.232 . S
C181 O182 1.218 . S
O182 C181 1.218 . S
C183 O176 1.275 . S
C183 O178 1.255 . S
C184 O185 1.258 . S
C184 O186 1.256 . S
O185 Cd177 2.381 . S
O185 C184 1.258 . S
O186 Cd177 2.378 . S
O186 C184 1.256 . S
O187 Cd188 2.300 . S
O187 C194 1.275 . S
Cd188 O187 2.300 . S
Cd188 O196 2.381 . S
Cd188 O197 2.378 . S
O189 Cd190 2.385 . S
O189 C194 1.255 . S
Cd190 O189 2.385 . S
Cd190 O191 2.317 . S
O191 Cd190 2.317 . S
O191 C192 1.232 . S
C192 O191 1.232 . S
C192 O193 1.218 . S
O193 C192 1.218 . S
C194 O187 1.275 . S
C194 O189 1.255 . S
C195 O196 1.258 . S
C195 O197 1.256 . S
O196 Cd188 2.381 . S
O196 C195 1.258 . S
O197 Cd188 2.378 . S
O197 C195 1.256 . S
O198 Cd199 2.300 . S
O198 C205 1.275 . S
Cd199 O198 2.300 . S
Cd199 O207 2.381 . S
Cd199 O208 2.378 . S
O200 Cd201 2.385 . S
O200 C205 1.255 . S
Cd201 O200 2.385 . S
Cd201 O202 2.317 . S
O202 Cd201 2.317 . S
O202 C203 1.232 . S
C203 O202 1.232 . S
C203 O204 1.218 . S
O204 C203 1.218 . S
C205 O198 1.275 . S
C205 O200 1.255 . S
C206 O207 1.258 . S
C206 O208 1.256 . S
O207 Cd199 2.381 . S
O207 C206 1.258 . S
O208 Cd199 2.378 . S
O208 C206 1.256 . S
O209 Cd210 2.300 . S
O209 C216 1.275 . S
Cd210 O209 2.300 . S
Cd210 O218 2.381 . S
Cd210 O219 2.378 . S
O211 Cd212 2.385 . S
O211 C216 1.255 . S
Cd212 O211 2.385 . S
Cd212 O213 2.317 . S
O213 Cd212 2.317 . S
O213 C214 1.232 . S
C214 O213 1.232 . S
C214 O215 1.218 . S
O215 C214 1.218 . S
C216 O209 1.275 . S
C216 O211 1.255 . S
C217 O218 1.258 . S
C217 O219 1.256 . S
O218 Cd210 2.381 . S
O218 C217 1.258 . S
O219 Cd210 2.378 . S
O219 C217 1.256 . S
O220 Cd221 2.300 . S
O220 C227 1.275 1_554 S
Cd221 O220 2.300 . S
Cd221 O229 2.381 . S
Cd221 O230 2.378 . S
O222 Cd223 2.385 . S
O222 C227 1.255 . S
Cd223 O222 2.385 . S
Cd223 O224 2.317 1_556 S
O224 Cd223 2.317 1_554 S
O224 C225 1.232 . S
C225 O224 1.232 . S
C225 O226 1.218 1_554 S
O226 C225 1.218 1_556 S
C227 O220 1.275 1_556 S
C227 O222 1.255 . S
C228 O229 1.258 . S
C228 O230 1.256 . S
O229 Cd221 2.381 . S
O229 C228 1.258 . S
O230 Cd221 2.378 . S
O230 C228 1.256 . S
O231 Cd232 2.300 . S
O231 C238 1.275 . S
Cd232 O231 2.300 . S
Cd232 O240 2.381 . S
Cd232 O241 2.378 . S
O233 Cd234 2.385 . S
O233 C238 1.255 . S
Cd234 O233 2.385 . S
Cd234 O235 2.317 . S
O235 Cd234 2.317 . S
O235 C236 1.232 . S
C236 O235 1.232 . S
C236 O237 1.218 . S
O237 C236 1.218 . S
C238 O231 1.275 . S
C238 O233 1.255 . S
C239 O240 1.258 . S
C239 O241 1.256 . S
O240 Cd232 2.381 . S
O240 C239 1.258 . S
O241 Cd232 2.378 . S
O241 C239 1.256 . S
O242 Cd243 2.300 . S
O242 C249 1.275 . S
Cd243 O242 2.300 . S
Cd243 O251 2.381 . S
Cd243 O252 2.378 . S
O244 Cd245 2.385 . S
O244 C249 1.255 . S
Cd245 O244 2.385 . S
Cd245 O246 2.317 . S
O246 Cd245 2.317 . S
O246 C247 1.232 . S
C247 O246 1.232 . S
C247 O248 1.218 . S
O248 C247 1.218 . S
C249 O242 1.275 . S
C249 O244 1.255 . S
C250 O251 1.258 . S
C250 O252 1.256 . S
O251 Cd243 2.381 . S
O251 C250 1.258 . S
O252 Cd243 2.378 . S
O252 C250 1.256 . S
O253 Cd254 2.300 . S
O253 C260 1.292 . S
Cd254 O253 2.300 . S
Cd254 O262 2.381 . S
Cd254 O263 2.378 . S
O255 Cd256 2.385 . S
O255 C260 1.271 . S
Cd256 O255 2.385 . S
Cd256 O257 2.317 1_554 S
O257 Cd256 2.317 1_556 S
O257 C258 1.232 . S
C258 O257 1.232 . S
C258 O259 1.218 . S
O259 C258 1.218 . S
C260 O253 1.292 . S
C260 O255 1.271 . S
C261 O262 1.258 . S
C261 O263 1.256 . S
O262 Cd254 2.381 . S
O262 C261 1.258 . S
O263 Cd254 2.378 . S
O263 C261 1.256 . S
C264 C265 1.349 1_455 S
C264 C266 1.327 . S
C264 H289 0.950 . S
C265 C264 1.349 1_655 S
C265 C281 1.349 . S
C266 C264 1.327 . S
C266 C285 1.429 1_455 S
C266 H290 0.950 . S
C267 C284 1.574 . S
C267 C286 1.420 . S
C267 H291 0.949 . S
H268 C272 0.949 . S
C269 C270 1.335 1_655 S
C269 C271 1.327 . S
C269 H292 0.950 . S
C270 C269 1.335 1_455 S
C270 C282 1.361 . S
C271 C269 1.327 . S
C271 C287 1.433 . S
C271 H293 0.950 . S
C272 H268 0.949 . S
C272 C280 1.574 . S
C272 C288 1.347 1_455 S
H273 C281 0.950 . S
H274 C279 0.950 . S
H275 C280 0.949 . S
H276 C282 0.950 . S
H277 C283 0.950 . S
H278 C284 0.949 . S
C279 H274 0.950 . S
C279 C281 1.327 . S
C279 C285 1.429 . S
C280 C272 1.574 . S
C280 H275 0.949 . S
C280 C286 1.314 1_455 S
C281 C265 1.349 . S
C281 H273 0.950 . S
C281 C279 1.327 . S
C282 C270 1.361 . S
C282 H276 0.950 . S
C282 C283 1.327 . S
C283 H277 0.950 . S
C283 C282 1.327 . S
C283 C287 1.423 1_455 S
C284 C267 1.574 . S
C284 H278 0.949 . S
C284 C288 1.393 . S
C285 C266 1.429 1_655 S
C285 C279 1.429 . S
C285 C286 1.532 . S
C286 C267 1.420 . S
C286 C280 1.314 1_655 S
C286 C285 1.532 . S
C287 C271 1.433 . S
C287 C283 1.423 1_655 S
C287 C288 1.521 . S
C288 C272 1.347 1_655 S
C288 C284 1.393 . S
C288 C287 1.521 . S
H289 C264 0.950 . S
H290 C266 0.950 . S
H291 C267 0.949 . S
H292 C269 0.950 . S
H293 C271 0.950 . S
C294 C295 1.349 . S
C294 C296 1.327 . S
C294 H319 0.950 . S
C295 C294 1.349 . S
C295 C311 1.349 . S
C296 C294 1.327 . S
C296 C315 1.429 . S
C296 H320 0.950 . S
C297 C314 1.574 . S
C297 C316 1.368 . S
C297 H321 0.949 . S
H298 C302 0.949 . S
C299 C300 1.349 . S
C299 C301 1.327 . S
C299 H322 0.950 . S
C300 C299 1.349 . S
C300 C312 1.349 . S
C301 C299 1.327 . S
C301 C317 1.429 . S
C301 H323 0.950 . S
C302 H298 0.949 . S
C302 C310 1.574 . S
C302 C318 1.368 . S
H303 C311 0.950 . S
H304 C309 0.950 . S
H305 C310 0.949 . S
H306 C312 0.950 . S
H307 C313 0.950 . S
H308 C314 0.949 . S
C309 H304 0.950 . S
C309 C311 1.327 . S
C309 C315 1.429 . S
C310 C302 1.574 . S
C310 H305 0.949 . S
C310 C316 1.368 . S
C311 C295 1.349 . S
C311 H303 0.950 . S
C311 C309 1.327 . S
C312 C300 1.349 . S
C312 H306 0.950 . S
C312 C313 1.327 . S
C313 H307 0.950 . S
C313 C312 1.327 . S
C313 C317 1.429 . S
C314 C297 1.574 . S
C314 H308 0.949 . S
C314 C318 1.368 . S
C315 C296 1.429 . S
C315 C309 1.429 . S
C315 C316 1.523 . S
C316 C297 1.368 . S
C316 C310 1.368 . S
C316 C315 1.523 . S
C317 C301 1.429 . S
C317 C313 1.429 . S
C317 C318 1.523 . S
C318 C302 1.368 . S
C318 C314 1.368 . S
C318 C317 1.523 . S
H319 C294 0.950 . S
H320 C296 0.950 . S
H321 C297 0.949 . S
H322 C299 0.950 . S
H323 C301 0.950 . S
C324 C325 1.349 . S
C324 C326 1.327 . S
C324 H349 0.950 . S
C325 C324 1.349 . S
C325 C341 1.349 . S
C326 C324 1.327 . S
C326 C345 1.429 . S
C326 H350 0.950 . S
C327 C344 1.574 . S
C327 C346 1.368 . S
C327 H351 0.949 . S
H328 C332 0.949 . S
C329 C330 1.349 . S
C329 C331 1.327 . S
C329 H352 0.950 . S
C330 C329 1.349 . S
C330 C342 1.349 . S
C331 C329 1.327 . S
C331 C347 1.429 . S
C331 H353 0.950 . S
C332 H328 0.949 . S
C332 C340 1.574 . S
C332 C348 1.368 . S
H333 C341 0.950 . S
H334 C339 0.950 . S
H335 C340 0.949 . S
H336 C342 0.950 . S
H337 C343 0.950 . S
H338 C344 0.949 . S
C339 H334 0.950 . S
C339 C341 1.327 . S
C339 C345 1.429 . S
C340 C332 1.574 . S
C340 H335 0.949 . S
C340 C346 1.368 . S
C341 C325 1.349 . S
C341 H333 0.950 . S
C341 C339 1.327 . S
C342 C330 1.349 . S
C342 H336 0.950 . S
C342 C343 1.327 . S
C343 H337 0.950 . S
C343 C342 1.327 . S
C343 C347 1.429 . S
C344 C327 1.574 . S
C344 H338 0.949 . S
C344 C348 1.368 . S
C345 C326 1.429 . S
C345 C339 1.429 . S
C345 C346 1.523 . S
C346 C327 1.368 . S
C346 C340 1.368 . S
C346 C345 1.523 . S
C347 C331 1.429 . S
C347 C343 1.429 . S
C347 C348 1.523 . S
C348 C332 1.368 . S
C348 C344 1.368 . S
C348 C347 1.523 . S
H349 C324 0.950 . S
H350 C326 0.950 . S
H351 C327 0.949 . S
H352 C329 0.950 . S
H353 C331 0.950 . S
C354 C355 1.349 . S
C354 C356 1.327 . S
C354 H379 0.950 . S
C355 C354 1.349 . S
C355 C371 1.349 . S
C356 C354 1.327 . S
C356 C375 1.429 . S
C356 H380 0.950 . S
C357 C374 1.574 . S
C357 C376 1.368 . S
C357 H381 0.949 . S
H358 C362 0.949 . S
C359 C360 1.349 . S
C359 C361 1.327 . S
C359 H382 0.950 . S
C360 C359 1.349 . S
C360 C372 1.349 . S
C361 C359 1.327 . S
C361 C377 1.429 . S
C361 H383 0.950 . S
C362 H358 0.949 . S
C362 C370 1.574 . S
C362 C378 1.368 . S
H363 C371 0.950 . S
H364 C369 0.950 . S
H365 C370 0.949 . S
H366 C372 0.950 . S
H367 C373 0.950 . S
H368 C374 0.949 . S
C369 H364 0.950 . S
C369 C371 1.327 . S
C369 C375 1.429 . S
C370 C362 1.574 . S
C370 H365 0.949 . S
C370 C376 1.368 . S
C371 C355 1.349 . S
C371 H363 0.950 . S
C371 C369 1.327 . S
C372 C360 1.349 . S
C372 H366 0.950 . S
C372 C373 1.327 . S
C373 H367 0.950 . S
C373 C372 1.327 . S
C373 C377 1.429 . S
C374 C357 1.574 . S
C374 H368 0.949 . S
C374 C378 1.368 . S
C375 C356 1.429 . S
C375 C369 1.429 . S
C375 C376 1.523 . S
C376 C357 1.368 . S
C376 C370 1.368 . S
C376 C375 1.523 . S
C377 C361 1.429 . S
C377 C373 1.429 . S
C377 C378 1.523 . S
C378 C362 1.368 . S
C378 C374 1.368 . S
C378 C377 1.523 . S
H379 C354 0.950 . S
H380 C356 0.950 . S
H381 C357 0.949 . S
H382 C359 0.950 . S
H383 C361 0.950 . S
C384 C385 1.349 . S
C384 C386 1.327 . S
C384 H409 0.950 . S
C385 C384 1.349 . S
C385 C401 1.349 . S
C386 C384 1.327 . S
C386 C405 1.429 . S
C386 H410 0.950 . S
C387 C404 1.574 . S
C387 C406 1.368 . S
C387 H411 0.949 . S
H388 C392 0.949 . S
C389 C390 1.349 . S
C389 C391 1.327 . S
C389 H412 0.950 . S
C390 C389 1.349 . S
C390 C402 1.349 . S
C391 C389 1.327 . S
C391 C407 1.429 . S
C391 H413 0.950 . S
C392 H388 0.949 . S
C392 C400 1.574 . S
C392 C408 1.368 . S
H393 C401 0.950 . S
H394 C399 0.950 . S
H395 C400 0.949 . S
H396 C402 0.950 . S
H397 C403 0.950 . S
H398 C404 0.949 . S
C399 H394 0.950 . S
C399 C401 1.327 . S
C399 C405 1.429 . S
C400 C392 1.574 . S
C400 H395 0.949 . S
C400 C406 1.368 . S
C401 C385 1.349 . S
C401 H393 0.950 . S
C401 C399 1.327 . S
C402 C390 1.349 . S
C402 H396 0.950 . S
C402 C403 1.327 . S
C403 H397 0.950 . S
C403 C402 1.327 . S
C403 C407 1.429 . S
C404 C387 1.574 . S
C404 H398 0.949 . S
C404 C408 1.368 . S
C405 C386 1.429 . S
C405 C399 1.429 . S
C405 C406 1.523 . S
C406 C387 1.368 . S
C406 C400 1.368 . S
C406 C405 1.523 . S
C407 C391 1.429 . S
C407 C403 1.429 . S
C407 C408 1.523 . S
C408 C392 1.368 . S
C408 C404 1.368 . S
C408 C407 1.523 . S
H409 C384 0.950 . S
H410 C386 0.950 . S
H411 C387 0.949 . S
H412 C389 0.950 . S
H413 C391 0.950 . S
C414 C415 1.349 . S
C414 C416 1.327 . S
C414 H439 0.950 . S
C415 C414 1.349 . S
C415 C431 1.349 . S
C416 C414 1.327 . S
C416 C435 1.429 . S
C416 H440 0.950 . S
C417 C434 1.574 . S
C417 C436 1.368 . S
C417 H441 0.949 . S
H418 C422 0.949 . S
C419 C420 1.349 . S
C419 C421 1.327 . S
C419 H442 0.950 . S
C420 C419 1.349 . S
C420 C432 1.349 . S
C421 C419 1.327 . S
C421 C437 1.429 . S
C421 H443 0.950 . S
C422 H418 0.949 . S
C422 C430 1.574 . S
C422 C438 1.368 . S
H423 C431 0.950 . S
H424 C429 0.950 . S
H425 C430 0.949 . S
H426 C432 0.950 . S
H427 C433 0.950 . S
H428 C434 0.949 . S
C429 H424 0.950 . S
C429 C431 1.327 . S
C429 C435 1.429 . S
C430 C422 1.574 . S
C430 H425 0.949 . S
C430 C436 1.368 . S
C431 C415 1.349 . S
C431 H423 0.950 . S
C431 C429 1.327 . S
C432 C420 1.349 . S
C432 H426 0.950 . S
C432 C433 1.327 . S
C433 H427 0.950 . S
C433 C432 1.327 . S
C433 C437 1.429 . S
C434 C417 1.574 . S
C434 H428 0.949 . S
C434 C438 1.368 . S
C435 C416 1.429 . S
C435 C429 1.429 . S
C435 C436 1.523 . S
C436 C417 1.368 . S
C436 C430 1.368 . S
C436 C435 1.523 . S
C437 C421 1.429 . S
C437 C433 1.429 . S
C437 C438 1.523 . S
C438 C422 1.368 . S
C438 C434 1.368 . S
C438 C437 1.523 . S
H439 C414 0.950 . S
H440 C416 0.950 . S
H441 C417 0.949 . S
H442 C419 0.950 . S
H443 C421 0.950 . S
C444 C445 1.349 . S
C444 C446 1.327 . S
C444 H469 0.950 . S
C445 C444 1.349 . S
C445 C461 1.349 . S
C446 C444 1.327 . S
C446 C465 1.429 . S
C446 H470 0.950 . S
C447 C464 1.574 . S
C447 C466 1.368 . S
C447 H471 0.949 . S
H448 C452 0.949 . S
C449 C450 1.349 . S
C449 C451 1.327 . S
C449 H472 0.950 . S
C450 C449 1.349 . S
C450 C462 1.349 . S
C451 C449 1.327 . S
C451 C467 1.429 . S
C451 H473 0.950 . S
C452 H448 0.949 . S
C452 C460 1.574 . S
C452 C468 1.368 . S
H453 C461 0.950 . S
H454 C459 0.950 . S
H455 C460 0.949 . S
H456 C462 0.950 . S
H457 C463 0.950 . S
H458 C464 0.949 . S
C459 H454 0.950 . S
C459 C461 1.327 . S
C459 C465 1.429 . S
C460 C452 1.574 . S
C460 H455 0.949 . S
C460 C466 1.368 . S
C461 C445 1.349 . S
C461 H453 0.950 . S
C461 C459 1.327 . S
C462 C450 1.349 . S
C462 H456 0.950 . S
C462 C463 1.327 . S
C463 H457 0.950 . S
C463 C462 1.327 . S
C463 C467 1.429 . S
C464 C447 1.574 . S
C464 H458 0.949 . S
C464 C468 1.368 . S
C465 C446 1.429 . S
C465 C459 1.429 . S
C465 C466 1.523 . S
C466 C447 1.368 . S
C466 C460 1.368 . S
C466 C465 1.523 . S
C467 C451 1.429 . S
C467 C463 1.429 . S
C467 C468 1.523 . S
C468 C452 1.368 . S
C468 C464 1.368 . S
C468 C467 1.523 . S
H469 C444 0.950 . S
H470 C446 0.950 . S
H471 C447 0.949 . S
H472 C449 0.950 . S
H473 C451 0.950 . S
C474 C475 1.349 . S
C474 C476 1.327 . S
C474 H499 0.950 . S
C475 C474 1.349 . S
C475 C491 1.349 . S
C476 C474 1.327 . S
C476 C495 1.429 . S
C476 H500 0.950 . S
C477 C494 1.574 . S
C477 C496 1.368 . S
C477 H501 0.949 . S
H478 C482 0.949 . S
C479 C480 1.349 . S
C479 C481 1.327 . S
C479 H502 0.950 . S
C480 C479 1.349 . S
C480 C492 1.349 . S
C481 C479 1.327 . S
C481 C497 1.429 . S
C481 H503 0.950 . S
C482 H478 0.949 . S
C482 C490 1.574 . S
C482 C498 1.368 . S
H483 C491 0.950 . S
H484 C489 0.950 . S
H485 C490 0.949 . S
H486 C492 0.950 . S
H487 C493 0.950 . S
H488 C494 0.949 . S
C489 H484 0.950 . S
C489 C491 1.327 . S
C489 C495 1.429 . S
C490 C482 1.574 . S
C490 H485 0.949 . S
C490 C496 1.368 . S
C491 C475 1.349 . S
C491 H483 0.950 . S
C491 C489 1.327 . S
C492 C480 1.349 . S
C492 H486 0.950 . S
C492 C493 1.327 . S
C493 H487 0.950 . S
C493 C492 1.327 . S
C493 C497 1.429 . S
C494 C477 1.574 . S
C494 H488 0.949 . S
C494 C498 1.368 . S
C495 C476 1.429 . S
C495 C489 1.429 . S
C495 C496 1.523 . S
C496 C477 1.368 . S
C496 C490 1.368 . S
C496 C495 1.523 . S
C497 C481 1.429 . S
C497 C493 1.429 . S
C497 C498 1.523 . S
C498 C482 1.368 . S
C498 C494 1.368 . S
C498 C497 1.523 . S
H499 C474 0.950 . S
H500 C476 0.950 . S
H501 C477 0.949 . S
H502 C479 0.950 . S
H503 C481 0.950 . S
C504 C505 1.349 . S
C504 C506 1.327 . S
C504 H529 0.950 . S
C505 C504 1.349 . S
C505 C521 1.349 . S
C506 C504 1.327 . S
C506 C525 1.429 . S
C506 H530 0.950 . S
C507 C524 1.574 . S
C507 C526 1.368 . S
C507 H531 0.949 . S
H508 C512 0.949 . S
C509 C510 1.349 . S
C509 C511 1.327 . S
C509 H532 0.950 . S
C510 C509 1.349 . S
C510 C522 1.349 . S
C511 C509 1.327 . S
C511 C527 1.429 . S
C511 H533 0.950 . S
C512 H508 0.949 . S
C512 C520 1.574 . S
C512 C528 1.368 . S
H513 C521 0.950 . S
H514 C519 0.950 . S
H515 C520 0.949 . S
H516 C522 0.950 . S
H517 C523 0.950 . S
H518 C524 0.949 . S
C519 H514 0.950 . S
C519 C521 1.327 . S
C519 C525 1.429 . S
C520 C512 1.574 . S
C520 H515 0.949 . S
C520 C526 1.368 . S
C521 C505 1.349 . S
C521 H513 0.950 . S
C521 C519 1.327 . S
C522 C510 1.349 . S
C522 H516 0.950 . S
C522 C523 1.327 . S
C523 H517 0.950 . S
C523 C522 1.327 . S
C523 C527 1.429 . S
C524 C507 1.574 . S
C524 H518 0.949 . S
C524 C528 1.368 . S
C525 C506 1.429 . S
C525 C519 1.429 . S
C525 C526 1.523 . S
C526 C507 1.368 . S
C526 C520 1.368 . S
C526 C525 1.523 . S
C527 C511 1.429 . S
C527 C523 1.429 . S
C527 C528 1.523 . S
C528 C512 1.368 . S
C528 C524 1.368 . S
C528 C527 1.523 . S
H529 C504 0.950 . S
H530 C506 0.950 . S
H531 C507 0.949 . S
H532 C509 0.950 . S
H533 C511 0.950 . S
C534 C535 1.349 . S
C534 C536 1.327 . S
C534 H559 0.950 . S
C535 C534 1.349 . S
C535 C551 1.349 . S
C536 C534 1.327 . S
C536 C555 1.429 . S
C536 H560 0.950 . S
C537 C554 1.574 . S
C537 C556 1.368 . S
C537 H561 0.949 . S
H538 C542 0.949 . S
C539 C540 1.349 . S
C539 C541 1.327 . S
C539 H562 0.950 . S
C540 C539 1.349 . S
C540 C552 1.349 . S
C541 C539 1.327 . S
C541 C557 1.429 . S
C541 H563 0.950 . S
C542 H538 0.949 . S
C542 C550 1.574 . S
C542 C558 1.368 . S
H543 C551 0.950 . S
H544 C549 0.950 . S
H545 C550 0.949 . S
H546 C552 0.950 . S
H547 C553 0.950 . S
H548 C554 0.949 . S
C549 H544 0.950 . S
C549 C551 1.327 . S
C549 C555 1.429 . S
C550 C542 1.574 . S
C550 H545 0.949 . S
C550 C556 1.368 . S
C551 C535 1.349 . S
C551 H543 0.950 . S
C551 C549 1.327 . S
C552 C540 1.349 . S
C552 H546 0.950 . S
C552 C553 1.327 . S
C553 H547 0.950 . S
C553 C552 1.327 . S
C553 C557 1.429 . S
C554 C537 1.574 . S
C554 H548 0.949 . S
C554 C558 1.368 . S
C555 C536 1.429 . S
C555 C549 1.429 . S
C555 C556 1.523 . S
C556 C537 1.368 . S
C556 C550 1.368 . S
C556 C555 1.523 . S
C557 C541 1.429 . S
C557 C553 1.429 . S
C557 C558 1.523 . S
C558 C542 1.368 . S
C558 C554 1.368 . S
C558 C557 1.523 . S
H559 C534 0.950 . S
H560 C536 0.950 . S
H561 C537 0.949 . S
H562 C539 0.950 . S
H563 C541 0.950 . S
C564 C565 1.349 1_554 S
C564 C566 1.327 . S
C564 H589 0.950 . S
C565 C564 1.349 1_556 S
C565 C581 1.349 . S
C566 C564 1.327 . S
C566 C585 1.429 1_554 S
C566 H590 0.950 . S
C567 C584 1.574 . S
C567 C586 1.397 . S
C567 H591 0.949 . S
H568 C572 0.949 . S
C569 C570 1.349 1_556 S
C569 C571 1.327 . S
C569 H592 0.950 . S
C570 C569 1.349 1_554 S
C570 C582 1.349 . S
C571 C569 1.327 . S
C571 C587 1.429 1_556 S
C571 H593 0.950 . S
C572 H568 0.949 . S
C572 C580 1.574 . S
C572 C588 1.368 . S
H573 C581 0.950 . S
H574 C579 0.950 . S
H575 C580 0.949 . S
H576 C582 0.950 . S
H577 C583 0.950 . S
H578 C584 0.949 . S
C579 H574 0.950 . S
C579 C581 1.327 . S
C579 C585 1.429 . S
C580 C572 1.574 . S
C580 H575 0.949 . S
C580 C586 1.338 1_554 S
C581 C565 1.349 . S
C581 H573 0.950 . S
C581 C579 1.327 . S
C582 C570 1.349 . S
C582 H576 0.950 . S
C582 C583 1.327 . S
C583 H577 0.950 . S
C583 C582 1.327 . S
C583 C587 1.429 . S
C584 C567 1.574 . S
C584 H578 0.949 . S
C584 C588 1.368 1_556 S
C585 C566 1.429 1_556 S
C585 C579 1.429 . S
C585 C586 1.525 . S
C586 C567 1.397 . S
C586 C580 1.338 1_556 S
C586 C585 1.525 . S
C587 C571 1.429 1_554 S
C587 C583 1.429 . S
C587 C588 1.523 . S
C588 C572 1.368 . S
C588 C584 1.368 1_554 S
C588 C587 1.523 . S
H589 C564 0.950 . S
H590 C566 0.950 . S
H591 C567 0.949 . S
H592 C569 0.950 . S
H593 C571 0.950 . S
C594 C595 1.349 . S
C594 C596 1.327 . S
C594 H619 0.950 . S
C595 C594 1.349 . S
C595 C611 1.349 . S
C596 C594 1.327 . S
C596 C615 1.429 . S
C596 H620 0.950 . S
C597 C614 1.574 . S
C597 C616 1.368 . S
C597 H621 0.949 . S
H598 C602 0.949 . S
C599 C600 1.349 . S
C599 C601 1.327 . S
C599 H622 0.950 . S
C600 C599 1.349 . S
C600 C612 1.349 . S
C601 C599 1.327 . S
C601 C617 1.429 . S
C601 H623 0.950 . S
C602 H598 0.949 . S
C602 C610 1.574 . S
C602 C618 1.368 . S
H603 C611 0.950 . S
H604 C609 0.950 . S
H605 C610 0.949 . S
H606 C612 0.950 . S
H607 C613 0.950 . S
H608 C614 0.949 . S
C609 H604 0.950 . S
C609 C611 1.327 . S
C609 C615 1.429 . S
C610 C602 1.574 . S
C610 H605 0.949 . S
C610 C616 1.368 . S
C611 C595 1.349 . S
C611 H603 0.950 . S
C611 C609 1.327 . S
C612 C600 1.349 . S
C612 H606 0.950 . S
C612 C613 1.327 . S
C613 H607 0.950 . S
C613 C612 1.327 . S
C613 C617 1.429 . S
C614 C597 1.574 . S
C614 H608 0.949 . S
C614 C618 1.368 . S
C615 C596 1.429 . S
C615 C609 1.429 . S
C615 C616 1.523 . S
C616 C597 1.368 . S
C616 C610 1.368 . S
C616 C615 1.523 . S
C617 C601 1.429 . S
C617 C613 1.429 . S
C617 C618 1.523 . S
C618 C602 1.368 . S
C618 C614 1.368 . S
C618 C617 1.523 . S
H619 C594 0.950 . S
H620 C596 0.950 . S
H621 C597 0.949 . S
H622 C599 0.950 . S
H623 C601 0.950 . S
C624 C625 1.349 . S
C624 C626 1.327 . S
C624 H649 0.950 . S
C625 C624 1.349 . S
C625 C641 1.349 . S
C626 C624 1.327 . S
C626 C645 1.429 . S
C626 H650 0.950 . S
C627 C644 1.574 . S
C627 C646 1.368 . S
C627 H651 0.949 . S
H628 C632 0.949 . S
C629 C630 1.349 . S
C629 C631 1.327 . S
C629 H652 0.950 . S
C630 C629 1.349 . S
C630 C642 1.349 . S
C631 C629 1.327 . S
C631 C647 1.429 . S
C631 H653 0.950 . S
C632 H628 0.949 . S
C632 C640 1.574 . S
C632 C648 1.368 . S
H633 C641 0.950 . S
H634 C639 0.950 . S
H635 C640 0.949 . S
H636 C642 0.950 . S
H637 C643 0.950 . S
H638 C644 0.949 . S
C639 H634 0.950 . S
C639 C641 1.327 . S
C639 C645 1.429 . S
C640 C632 1.574 . S
C640 H635 0.949 . S
C640 C646 1.368 . S
C641 C625 1.349 . S
C641 H633 0.950 . S
C641 C639 1.327 . S
C642 C630 1.349 . S
C642 H636 0.950 . S
C642 C643 1.327 . S
C643 H637 0.950 . S
C643 C642 1.327 . S
C643 C647 1.429 . S
C644 C627 1.574 . S
C644 H638 0.949 . S
C644 C648 1.368 . S
C645 C626 1.429 . S
C645 C639 1.429 . S
C645 C646 1.523 . S
C646 C627 1.368 . S
C646 C640 1.368 . S
C646 C645 1.523 . S
C647 C631 1.429 . S
C647 C643 1.429 . S
C647 C648 1.523 . S
C648 C632 1.368 . S
C648 C644 1.368 . S
C648 C647 1.523 . S
H649 C624 0.950 . S
H650 C626 0.950 . S
H651 C627 0.949 . S
H652 C629 0.950 . S
H653 C631 0.950 . S
C654 C655 1.349 . S
C654 C656 1.327 . S
C654 H679 0.950 . S
C655 C654 1.349 . S
C655 C671 1.349 . S
C656 C654 1.327 . S
C656 C675 1.429 . S
C656 H680 0.950 . S
C657 C674 1.574 1_455 S
C657 C676 1.368 . S
C657 H681 0.949 . S
H658 C662 0.949 . S
C659 C660 1.349 . S
C659 C661 1.327 . S
C659 H682 0.950 . S
C660 C659 1.349 . S
C660 C672 1.349 . S
C661 C659 1.327 . S
C661 C677 1.429 . S
C661 H683 0.950 . S
C662 H658 0.949 . S
C662 C670 1.563 1_655 S
C662 C678 1.368 . S
H663 C671 0.950 . S
H664 C669 0.950 . S
H665 C670 0.952 . S
H666 C672 0.950 . S
H667 C673 0.950 . S
H668 C674 0.949 . S
C669 H664 0.950 . S
C669 C671 1.327 . S
C669 C675 1.429 . S
C670 C662 1.563 1_455 S
C670 H665 0.952 . S
C670 C676 1.376 . S
C671 C655 1.349 . S
C671 H663 0.950 . S
C671 C669 1.327 . S
C672 C660 1.349 . S
C672 H666 0.950 . S
C672 C673 1.327 . S
C673 H667 0.950 . S
C673 C672 1.327 . S
C673 C677 1.429 . S
C674 C657 1.574 1_655 S
C674 H668 0.949 . S
C674 C678 1.368 . S
C675 C656 1.429 . S
C675 C669 1.429 . S
C675 C676 1.523 . S
C676 C657 1.368 . S
C676 C670 1.376 . S
C676 C675 1.523 . S
C677 C661 1.429 . S
C677 C673 1.429 . S
C677 C678 1.523 . S
C678 C662 1.368 . S
C678 C674 1.368 . S
C678 C677 1.523 . S
H679 C654 0.950 . S
H680 C656 0.950 . S
H681 C657 0.949 . S
H682 C659 0.950 . S
H683 C661 0.950 . S
C684 C685 1.349 . S
C684 C686 1.327 . S
C684 H709 0.950 . S
C685 C684 1.349 . S
C685 C701 1.349 . S
C686 C684 1.327 . S
C686 C705 1.429 . S
C686 H710 0.950 . S
C687 C704 1.574 . S
C687 C706 1.368 . S
C687 H711 0.949 . S
H688 C692 0.949 . S
C689 C690 1.349 . S
C689 C691 1.327 . S
C689 H712 0.950 . S
C690 C689 1.349 . S
C690 C702 1.349 . S
C691 C689 1.327 . S
C691 C707 1.429 . S
C691 H713 0.950 . S
C692 H688 0.949 . S
C692 C700 1.574 . S
C692 C708 1.368 . S
H693 C701 0.950 . S
H694 C699 0.950 . S
H695 C700 0.949 . S
H696 C702 0.950 . S
H697 C703 0.950 . S
H698 C704 0.949 . S
C699 H694 0.950 . S
C699 C701 1.327 . S
C699 C705 1.429 . S
C700 C692 1.574 . S
C700 H695 0.949 . S
C700 C706 1.368 . S
C701 C685 1.349 . S
C701 H693 0.950 . S
C701 C699 1.327 . S
C702 C690 1.349 . S
C702 H696 0.950 . S
C702 C703 1.327 . S
C703 H697 0.950 . S
C703 C702 1.327 . S
C703 C707 1.429 . S
C704 C687 1.574 . S
C704 H698 0.949 . S
C704 C708 1.368 . S
C705 C686 1.429 . S
C705 C699 1.429 . S
C705 C706 1.523 . S
C706 C687 1.368 . S
C706 C700 1.368 . S
C706 C705 1.523 . S
C707 C691 1.429 . S
C707 C703 1.429 . S
C707 C708 1.523 . S
C708 C692 1.368 . S
C708 C704 1.368 . S
C708 C707 1.523 . S
H709 C684 0.950 . S
H710 C686 0.950 . S
H711 C687 0.949 . S
H712 C689 0.950 . S
H713 C691 0.950 . S
C714 C715 1.349 . S
C714 C716 1.327 . S
C714 H739 0.950 . S
C715 C714 1.349 . S
C715 C731 1.349 . S
C716 C714 1.327 . S
C716 C735 1.429 . S
C716 H740 0.950 . S
C717 C734 1.574 . S
C717 C736 1.368 . S
C717 H741 0.949 . S
H718 C722 0.949 . S
C719 C720 1.349 . S
C719 C721 1.327 . S
C719 H742 0.950 . S
C720 C719 1.349 . S
C720 C732 1.349 . S
C721 C719 1.327 . S
C721 C737 1.429 . S
C721 H743 0.950 . S
C722 H718 0.949 . S
C722 C730 1.574 . S
C722 C738 1.368 . S
H723 C731 0.950 . S
H724 C729 0.950 1_565 S
H725 C730 0.949 1_545 S
H726 C732 0.950 . S
H727 C733 0.950 . S
H728 C734 0.949 . S
C729 H724 0.950 1_545 S
C729 C731 1.327 . S
C729 C735 1.429 . S
C730 C722 1.574 . S
C730 H725 0.949 1_565 S
C730 C736 1.368 . S
C731 C715 1.349 . S
C731 H723 0.950 . S
C731 C729 1.327 . S
C732 C720 1.349 . S
C732 H726 0.950 . S
C732 C733 1.327 . S
C733 H727 0.950 . S
C733 C732 1.327 . S
C733 C737 1.429 . S
C734 C717 1.574 . S
C734 H728 0.949 . S
C734 C738 1.368 . S
C735 C716 1.429 . S
C735 C729 1.429 . S
C735 C736 1.523 1_545 S
C736 C717 1.368 . S
C736 C730 1.368 . S
C736 C735 1.523 1_565 S
C737 C721 1.429 . S
C737 C733 1.429 . S
C737 C738 1.523 . S
C738 C722 1.368 . S
C738 C734 1.368 . S
C738 C737 1.523 . S
H739 C714 0.950 . S
H740 C716 0.950 . S
H741 C717 0.949 . S
H742 C719 0.950 . S
H743 C721 0.950 . S
C744 C745 1.349 . S
C744 C746 1.327 . S
C744 H769 0.950 . S
C745 C744 1.349 . S
C745 C761 1.349 . S
C746 C744 1.327 . S
C746 C765 1.429 . S
C746 H770 0.950 . S
C747 C764 1.574 . S
C747 C766 1.368 . S
C747 H771 0.949 . S
H748 C752 0.949 . S
C749 C750 1.349 . S
C749 C751 1.327 . S
C749 H772 0.950 . S
C750 C749 1.349 . S
C750 C762 1.349 . S
C751 C749 1.327 . S
C751 C767 1.429 . S
C751 H773 0.950 . S
C752 H748 0.949 . S
C752 C760 1.574 . S
C752 C768 1.368 . S
H753 C761 0.950 . S
H754 C759 0.950 . S
H755 C760 0.949 . S
H756 C762 0.950 . S
H757 C763 0.950 . S
H758 C764 0.949 . S
C759 H754 0.950 . S
C759 C761 1.327 . S
C759 C765 1.429 . S
C760 C752 1.574 . S
C760 H755 0.949 . S
C760 C766 1.368 . S
C761 C745 1.349 . S
C761 H753 0.950 . S
C761 C759 1.327 . S
C762 C750 1.349 . S
C762 H756 0.950 . S
C762 C763 1.327 . S
C763 H757 0.950 . S
C763 C762 1.327 . S
C763 C767 1.429 . S
C764 C747 1.574 . S
C764 H758 0.949 . S
C764 C768 1.368 . S
C765 C746 1.429 . S
C765 C759 1.429 . S
C765 C766 1.523 . S
C766 C747 1.368 . S
C766 C760 1.368 . S
C766 C765 1.523 . S
C767 C751 1.429 . S
C767 C763 1.429 . S
C767 C768 1.523 . S
C768 C752 1.368 . S
C768 C764 1.368 . S
C768 C767 1.523 . S
H769 C744 0.950 . S
H770 C746 0.950 . S
H771 C747 0.949 . S
H772 C749 0.950 . S
H773 C751 0.950 . S
C774 C775 1.349 . S
C774 C776 1.327 . S
C774 H799 0.950 . S
C775 C774 1.349 . S
C775 C791 1.349 . S
C776 C774 1.327 . S
C776 C795 1.429 . S
C776 H800 0.950 . S
C777 C794 1.574 . S
C777 C796 1.368 . S
C777 H801 0.949 . S
H778 C782 0.949 . S
C779 C780 1.349 . S
C779 C781 1.327 . S
C779 H802 0.950 . S
C780 C779 1.349 . S
C780 C792 1.349 . S
C781 C779 1.327 . S
C781 C797 1.429 . S
C781 H803 0.950 . S
C782 H778 0.949 . S
C782 C790 1.574 . S
C782 C798 1.368 . S
H783 C791 0.950 . S
H784 C789 0.950 . S
H785 C790 0.949 . S
H786 C792 0.950 . S
H787 C793 0.950 . S
H788 C794 0.949 . S
C789 H784 0.950 . S
C789 C791 1.327 . S
C789 C795 1.429 . S
C790 C782 1.574 . S
C790 H785 0.949 . S
C790 C796 1.368 . S
C791 C775 1.349 . S
C791 H783 0.950 . S
C791 C789 1.327 . S
C792 C780 1.349 . S
C792 H786 0.950 . S
C792 C793 1.327 . S
C793 H787 0.950 . S
C793 C792 1.327 . S
C793 C797 1.429 . S
C794 C777 1.574 . S
C794 H788 0.949 . S
C794 C798 1.368 . S
C795 C776 1.429 . S
C795 C789 1.429 . S
C795 C796 1.523 . S
C796 C777 1.368 . S
C796 C790 1.368 . S
C796 C795 1.523 . S
C797 C781 1.429 . S
C797 C793 1.429 . S
C797 C798 1.523 . S
C798 C782 1.368 . S
C798 C794 1.368 . S
C798 C797 1.523 . S
H799 C774 0.950 . S
H800 C776 0.950 . S
H801 C777 0.949 . S
H802 C779 0.950 . S
H803 C781 0.950 . S
C804 C805 1.349 . S
C804 C806 1.327 . S
C804 H829 0.950 . S
C805 C804 1.349 . S
C805 C821 1.349 . S
C806 C804 1.327 . S
C806 C825 1.429 . S
C806 H830 0.950 . S
C807 C824 1.574 . S
C807 C826 1.368 . S
C807 H831 0.949 . S
H808 C812 0.949 . S
C809 C810 1.349 . S
C809 C811 1.327 . S
C809 H832 0.950 . S
C810 C809 1.349 . S
C810 C822 1.349 . S
C811 C809 1.327 . S
C811 C827 1.429 . S
C811 H833 0.950 . S
C812 H808 0.949 . S
C812 C820 1.574 . S
C812 C828 1.368 . S
H813 C821 0.950 . S
H814 C819 0.950 . S
H815 C820 0.949 . S
H816 C822 0.950 . S
H817 C823 0.950 . S
H818 C824 0.949 . S
C819 H814 0.950 . S
C819 C821 1.327 . S
C819 C825 1.429 . S
C820 C812 1.574 . S
C820 H815 0.949 . S
C820 C826 1.368 . S
C821 C805 1.349 . S
C821 H813 0.950 . S
C821 C819 1.327 . S
C822 C810 1.349 . S
C822 H816 0.950 . S
C822 C823 1.327 . S
C823 H817 0.950 . S
C823 C822 1.327 . S
C823 C827 1.429 . S
C824 C807 1.574 . S
C824 H818 0.949 . S
C824 C828 1.368 . S
C825 C806 1.429 . S
C825 C819 1.429 . S
C825 C826 1.523 . S
C826 C807 1.368 . S
C826 C820 1.368 . S
C826 C825 1.523 . S
C827 C811 1.429 . S
C827 C823 1.429 . S
C827 C828 1.523 . S
C828 C812 1.368 . S
C828 C824 1.368 . S
C828 C827 1.523 . S
H829 C804 0.950 . S
H830 C806 0.950 . S
H831 C807 0.949 . S
H832 C809 0.950 . S
H833 C811 0.950 . S
C834 C835 1.349 1_455 S
C834 C836 1.327 . S
C834 H859 0.950 . S
C835 C834 1.349 1_655 S
C835 C851 1.349 . S
C836 C834 1.327 . S
C836 C855 1.430 1_545 S
C836 H860 0.950 . S
C837 C854 1.574 . S
C837 C856 1.368 . S
C837 H861 0.949 . S
H838 C842 0.949 . S
C839 C840 1.349 . S
C839 C841 1.327 . S
C839 H862 0.950 . S
C840 C839 1.349 . S
C840 C852 1.349 . S
C841 C839 1.327 . S
C841 C857 1.429 . S
C841 H863 0.950 . S
C842 H838 0.949 . S
C842 C850 1.574 . S
C842 C858 1.368 . S
H843 C851 0.950 . S
H844 C849 0.950 1_565 S
H845 C850 0.949 . S
H846 C852 0.950 . S
H847 C853 0.950 . S
H848 C854 0.949 . S
C849 H844 0.950 1_545 S
C849 C851 1.327 1_455 S
C849 C855 1.429 1_545 S
C850 C842 1.574 . S
C850 H845 0.949 . S
C850 C856 1.368 . S
C851 C835 1.349 . S
C851 H843 0.950 . S
C851 C849 1.327 1_655 S
C852 C840 1.349 . S
C852 H846 0.950 . S
C852 C853 1.327 . S
C853 H847 0.950 . S
C853 C852 1.327 . S
C853 C857 1.429 . S
C854 C837 1.574 . S
C854 H848 0.949 . S
C854 C858 1.368 . S
C855 C836 1.430 1_565 S
C855 C849 1.429 1_565 S
C855 C856 1.521 . S
C856 C837 1.368 . S
C856 C850 1.368 . S
C856 C855 1.521 . S
C857 C841 1.429 . S
C857 C853 1.429 . S
C857 C858 1.523 . S
C858 C842 1.368 . S
C858 C854 1.368 . S
C858 C857 1.523 . S
H859 C834 0.950 . S
H860 C836 0.950 . S
H861 C837 0.949 . S
H862 C839 0.950 . S
H863 C841 0.950 . S
C864 C865 1.349 . S
C864 C866 1.327 . S
C864 H889 0.950 . S
C865 C864 1.349 . S
C865 C881 1.349 . S
C866 C864 1.327 . S
C866 C885 1.429 . S
C866 H890 0.950 . S
C867 C884 1.574 . S
C867 C886 1.368 . S
C867 H891 0.949 . S
H868 C872 0.949 . S
C869 C870 1.349 . S
C869 C871 1.327 . S
C869 H892 0.950 . S
C870 C869 1.349 . S
C870 C882 1.349 . S
C871 C869 1.327 . S
C871 C887 1.429 . S
C871 H893 0.950 . S
C872 H868 0.949 . S
C872 C880 1.574 . S
C872 C888 1.368 . S
H873 C881 0.950 . S
H874 C879 0.950 . S
H875 C880 0.949 . S
H876 C882 0.950 . S
H877 C883 0.950 . S
H878 C884 0.949 . S
C879 H874 0.950 . S
C879 C881 1.327 . S
C879 C885 1.429 . S
C880 C872 1.574 . S
C880 H875 0.949 . S
C880 C886 1.368 . S
C881 C865 1.349 . S
C881 H873 0.950 . S
C881 C879 1.327 . S
C882 C870 1.349 . S
C882 H876 0.950 . S
C882 C883 1.327 . S
C883 H877 0.950 . S
C883 C882 1.327 . S
C883 C887 1.429 . S
C884 C867 1.574 . S
C884 H878 0.949 . S
C884 C888 1.368 . S
C885 C866 1.429 . S
C885 C879 1.429 . S
C885 C886 1.523 . S
C886 C867 1.368 . S
C886 C880 1.368 . S
C886 C885 1.523 . S
C887 C871 1.429 . S
C887 C883 1.429 . S
C887 C888 1.523 . S
C888 C872 1.368 . S
C888 C884 1.368 . S
C888 C887 1.523 . S
H889 C864 0.950 . S
H890 C866 0.950 . S
H891 C867 0.949 . S
H892 C869 0.950 . S
H893 C871 0.950 . S
C894 C895 1.349 . S
C894 C896 1.327 . S
C894 H919 0.950 . S
C895 C894 1.349 . S
C895 C911 1.349 . S
C896 C894 1.327 . S
C896 C915 1.429 . S
C896 H920 0.950 . S
C897 C914 1.574 . S
C897 C916 1.368 . S
C897 H921 0.949 . S
H898 C902 0.949 . S
C899 C900 1.349 . S
C899 C901 1.327 . S
C899 H922 0.950 . S
C900 C899 1.349 . S
C900 C912 1.349 . S
C901 C899 1.327 . S
C901 C917 1.429 . S
C901 H923 0.950 . S
C902 H898 0.949 . S
C902 C910 1.574 . S
C902 C918 1.368 . S
H903 C911 0.950 . S
H904 C909 0.950 . S
H905 C910 0.949 . S
H906 C912 0.950 . S
H907 C913 0.950 . S
H908 C914 0.949 . S
C909 H904 0.950 . S
C909 C911 1.327 . S
C909 C915 1.429 . S
C910 C902 1.574 . S
C910 H905 0.949 . S
C910 C916 1.368 . S
C911 C895 1.349 . S
C911 H903 0.950 . S
C911 C909 1.327 . S
C912 C900 1.349 . S
C912 H906 0.950 . S
C912 C913 1.327 . S
C913 H907 0.950 . S
C913 C912 1.327 . S
C913 C917 1.429 . S
C914 C897 1.574 . S
C914 H908 0.949 . S
C914 C918 1.368 . S
C915 C896 1.429 . S
C915 C909 1.429 . S
C915 C916 1.523 . S
C916 C897 1.368 . S
C916 C910 1.368 . S
C916 C915 1.523 . S
C917 C901 1.429 . S
C917 C913 1.429 . S
C917 C918 1.523 . S
C918 C902 1.368 . S
C918 C914 1.368 . S
C918 C917 1.523 . S
H919 C894 0.950 . S
H920 C896 0.950 . S
H921 C897 0.949 . S
H922 C899 0.950 . S
H923 C901 0.950 . S
C924 C925 1.349 . S
C924 C926 1.327 . S
C924 H949 0.950 . S
C925 C924 1.349 . S
C925 C941 1.349 . S
C926 C924 1.327 . S
C926 C945 1.429 . S
C926 H950 0.950 . S
C927 C944 1.574 . S
C927 C946 1.368 . S
C927 H951 0.949 . S
H928 C932 0.949 . S
C929 C930 1.349 . S
C929 C931 1.327 . S
C929 H952 0.950 . S
C930 C929 1.349 . S
C930 C942 1.349 . S
C931 C929 1.327 . S
C931 C947 1.429 . S
C931 H953 0.950 . S
C932 H928 0.949 . S
C932 C940 1.574 . S
C932 C948 1.368 . S
H933 C941 0.950 . S
H934 C939 0.950 . S
H935 C940 0.949 . S
H936 C942 0.950 . S
H937 C943 0.950 . S
H938 C944 0.949 . S
C939 H934 0.950 . S
C939 C941 1.327 . S
C939 C945 1.429 . S
C940 C932 1.574 . S
C940 H935 0.949 . S
C940 C946 1.368 . S
C941 C925 1.349 . S
C941 H933 0.950 . S
C941 C939 1.327 . S
C942 C930 1.349 . S
C942 H936 0.950 . S
C942 C943 1.327 . S
C943 H937 0.950 . S
C943 C942 1.327 . S
C943 C947 1.429 . S
C944 C927 1.574 . S
C944 H938 0.949 . S
C944 C948 1.368 . S
C945 C926 1.429 . S
C945 C939 1.429 . S
C945 C946 1.523 . S
C946 C927 1.368 . S
C946 C940 1.368 . S
C946 C945 1.523 . S
C947 C931 1.429 . S
C947 C943 1.429 . S
C947 C948 1.523 . S
C948 C932 1.368 . S
C948 C944 1.368 . S
C948 C947 1.523 . S
H949 C924 0.950 . S
H950 C926 0.950 . S
H951 C927 0.949 . S
H952 C929 0.950 . S
H953 C931 0.950 . S
C954 C955 1.349 . S
C954 C956 1.327 . S
C954 H979 0.950 . S
C955 C954 1.349 . S
C955 C971 1.349 . S
C956 C954 1.327 . S
C956 C975 1.429 . S
C956 H980 0.950 . S
C957 C974 1.574 . S
C957 C976 1.368 . S
C957 H981 0.949 . S
H958 C962 0.949 . S
C959 C960 1.349 . S
C959 C961 1.327 . S
C959 H982 0.950 . S
C960 C959 1.349 . S
C960 C972 1.349 . S
C961 C959 1.327 . S
C961 C977 1.429 . S
C961 H983 0.950 . S
C962 H958 0.949 . S
C962 C970 1.574 . S
C962 C978 1.368 . S
H963 C971 0.950 . S
H964 C969 0.950 . S
H965 C970 0.949 . S
H966 C972 0.950 . S
H967 C973 0.950 . S
H968 C974 0.949 . S
C969 H964 0.950 . S
C969 C971 1.327 . S
C969 C975 1.429 . S
C970 C962 1.574 . S
C970 H965 0.949 . S
C970 C976 1.368 . S
C971 C955 1.349 . S
C971 H963 0.950 . S
C971 C969 1.327 . S
C972 C960 1.349 . S
C972 H966 0.950 . S
C972 C973 1.327 . S
C973 H967 0.950 . S
C973 C972 1.327 . S
C973 C977 1.429 . S
C974 C957 1.574 . S
C974 H968 0.949 . S
C974 C978 1.368 . S
C975 C956 1.429 . S
C975 C969 1.429 . S
C975 C976 1.523 . S
C976 C957 1.368 . S
C976 C970 1.368 . S
C976 C975 1.523 . S
C977 C961 1.429 . S
C977 C973 1.429 . S
C977 C978 1.523 . S
C978 C962 1.368 . S
C978 C974 1.368 . S
C978 C977 1.523 . S
H979 C954 0.950 . S
H980 C956 0.950 . S
H981 C957 0.949 . S
H982 C959 0.950 . S
H983 C961 0.950 . S
C984 C985 1.349 . S
C984 C986 1.327 . S
C984 H1009 0.950 . S
C985 C984 1.349 . S
C985 C1001 1.349 . S
C986 C984 1.327 . S
C986 C1005 1.429 . S
C986 H1010 0.950 . S
C987 C1004 1.574 . S
C987 C1006 1.368 . S
C987 H1011 0.949 . S
H988 C992 0.949 . S
C989 C990 1.349 . S
C989 C991 1.327 . S
C989 H1012 0.950 . S
C990 C989 1.349 . S
C990 C1002 1.349 . S
C991 C989 1.327 . S
C991 C1007 1.429 . S
C991 H1013 0.950 . S
C992 H988 0.949 . S
C992 C1000 1.574 . S
C992 C1008 1.368 . S
H993 C1001 0.950 . S
H994 C999 0.950 . S
H995 C1000 0.949 . S
H996 C1002 0.950 . S
H997 C1003 0.950 . S
H998 C1004 0.949 . S
C999 H994 0.950 . S
C999 C1001 1.327 . S
C999 C1005 1.429 . S
C1000 C992 1.574 . S
C1000 H995 0.949 . S
C1000 C1006 1.368 . S
C1001 C985 1.349 . S
C1001 H993 0.950 . S
C1001 C999 1.327 . S
C1002 C990 1.349 . S
C1002 H996 0.950 . S
C1002 C1003 1.327 . S
C1003 H997 0.950 . S
C1003 C1002 1.327 . S
C1003 C1007 1.429 . S
C1004 C987 1.574 . S
C1004 H998 0.949 . S
C1004 C1008 1.368 . S
C1005 C986 1.429 . S
C1005 C999 1.429 . S
C1005 C1006 1.523 . S
C1006 C987 1.368 . S
C1006 C1000 1.368 . S
C1006 C1005 1.523 . S
C1007 C991 1.429 . S
C1007 C1003 1.429 . S
C1007 C1008 1.523 . S
C1008 C992 1.368 . S
C1008 C1004 1.368 . S
C1008 C1007 1.523 . S
H1009 C984 0.950 . S
H1010 C986 0.950 . S
H1011 C987 0.949 . S
H1012 C989 0.950 . S
H1013 C991 0.950 . S
C1014 C1015 1.349 . S
C1014 C1016 1.327 . S
C1014 H1039 0.950 . S
C1015 C1014 1.349 . S
C1015 C1031 1.349 . S
C1016 C1014 1.327 . S
C1016 C1035 1.429 . S
C1016 H1040 0.950 . S
C1017 C1034 1.574 . S
C1017 C1036 1.368 . S
C1017 H1041 0.949 . S
H1018 C1022 0.949 . S
C1019 C1020 1.349 . S
C1019 C1021 1.327 . S
C1019 H1042 0.950 . S
C1020 C1019 1.349 . S
C1020 C1032 1.349 . S
C1021 C1019 1.327 . S
C1021 C1037 1.429 . S
C1021 H1043 0.950 . S
C1022 H1018 0.949 . S
C1022 C1030 1.574 . S
C1022 C1038 1.368 . S
H1023 C1031 0.950 . S
H1024 C1029 0.950 . S
H1025 C1030 0.949 . S
H1026 C1032 0.950 . S
H1027 C1033 0.950 . S
H1028 C1034 0.949 . S
C1029 H1024 0.950 . S
C1029 C1031 1.327 . S
C1029 C1035 1.429 . S
C1030 C1022 1.574 . S
C1030 H1025 0.949 . S
C1030 C1036 1.368 . S
C1031 C1015 1.349 . S
C1031 H1023 0.950 . S
C1031 C1029 1.327 . S
C1032 C1020 1.349 . S
C1032 H1026 0.950 . S
C1032 C1033 1.327 . S
C1033 H1027 0.950 . S
C1033 C1032 1.327 . S
C1033 C1037 1.429 . S
C1034 C1017 1.574 . S
C1034 H1028 0.949 . S
C1034 C1038 1.368 . S
C1035 C1016 1.429 . S
C1035 C1029 1.429 . S
C1035 C1036 1.523 . S
C1036 C1017 1.368 . S
C1036 C1030 1.368 . S
C1036 C1035 1.523 . S
C1037 C1021 1.429 . S
C1037 C1033 1.429 . S
C1037 C1038 1.523 . S
C1038 C1022 1.368 . S
C1038 C1034 1.368 . S
C1038 C1037 1.523 . S
H1039 C1014 0.950 . S
H1040 C1016 0.950 . S
H1041 C1017 0.949 . S
H1042 C1019 0.950 . S
H1043 C1021 0.950 . S
C1044 C1045 1.349 . S
C1044 C1046 1.327 . S
C1044 H1069 0.950 . S
C1045 C1044 1.349 . S
C1045 C1061 1.349 . S
C1046 C1044 1.327 . S
C1046 C1065 1.429 . S
C1046 H1070 0.950 . S
C1047 C1064 1.574 . S
C1047 C1066 1.368 . S
C1047 H1071 0.949 . S
H1048 C1052 0.949 . S
C1049 C1050 1.349 . S
C1049 C1051 1.327 . S
C1049 H1072 0.950 . S
C1050 C1049 1.349 . S
C1050 C1062 1.349 . S
C1051 C1049 1.327 . S
C1051 C1067 1.429 . S
C1051 H1073 0.950 . S
C1052 H1048 0.949 . S
C1052 C1060 1.574 . S
C1052 C1068 1.368 . S
H1053 C1061 0.950 . S
H1054 C1059 0.950 . S
H1055 C1060 0.949 . S
H1056 C1062 0.950 . S
H1057 C1063 0.950 . S
H1058 C1064 0.949 . S
C1059 H1054 0.950 . S
C1059 C1061 1.327 . S
C1059 C1065 1.429 . S
C1060 C1052 1.574 . S
C1060 H1055 0.949 . S
C1060 C1066 1.368 . S
C1061 C1045 1.349 . S
C1061 H1053 0.950 . S
C1061 C1059 1.327 . S
C1062 C1050 1.349 . S
C1062 H1056 0.950 . S
C1062 C1063 1.327 . S
C1063 H1057 0.950 . S
C1063 C1062 1.327 . S
C1063 C1067 1.429 . S
C1064 C1047 1.574 . S
C1064 H1058 0.949 . S
C1064 C1068 1.368 . S
C1065 C1046 1.429 . S
C1065 C1059 1.429 . S
C1065 C1066 1.523 . S
C1066 C1047 1.368 . S
C1066 C1060 1.368 . S
C1066 C1065 1.523 . S
C1067 C1051 1.429 . S
C1067 C1063 1.429 . S
C1067 C1068 1.523 . S
C1068 C1052 1.368 . S
C1068 C1064 1.368 . S
C1068 C1067 1.523 . S
H1069 C1044 0.950 . S
H1070 C1046 0.950 . S
H1071 C1047 0.949 . S
H1072 C1049 0.950 . S
H1073 C1051 0.950 . S
C1074 C1075 1.349 . S
C1074 C1076 1.327 . S
C1074 H1099 0.950 . S
C1075 C1074 1.349 . S
C1075 C1091 1.349 . S
C1076 C1074 1.327 . S
C1076 C1095 1.429 . S
C1076 H1100 0.950 . S
C1077 C1094 1.574 . S
C1077 C1096 1.368 . S
C1077 H1101 0.949 . S
H1078 C1082 0.949 . S
C1079 C1080 1.349 . S
C1079 C1081 1.327 . S
C1079 H1102 0.950 . S
C1080 C1079 1.349 . S
C1080 C1092 1.349 . S
C1081 C1079 1.327 . S
C1081 C1097 1.429 . S
C1081 H1103 0.950 . S
C1082 H1078 0.949 . S
C1082 C1090 1.574 . S
C1082 C1098 1.368 . S
H1083 C1091 0.950 . S
H1084 C1089 0.950 . S
H1085 C1090 0.949 . S
H1086 C1092 0.950 . S
H1087 C1093 0.950 . S
H1088 C1094 0.949 . S
C1089 H1084 0.950 . S
C1089 C1091 1.327 . S
C1089 C1095 1.429 . S
C1090 C1082 1.574 . S
C1090 H1085 0.949 . S
C1090 C1096 1.368 . S
C1091 C1075 1.349 . S
C1091 H1083 0.950 . S
C1091 C1089 1.327 . S
C1092 C1080 1.349 . S
C1092 H1086 0.950 . S
C1092 C1093 1.327 . S
C1093 H1087 0.950 . S
C1093 C1092 1.327 . S
C1093 C1097 1.429 . S
C1094 C1077 1.574 . S
C1094 H1088 0.949 . S
C1094 C1098 1.368 . S
C1095 C1076 1.429 . S
C1095 C1089 1.429 . S
C1095 C1096 1.523 . S
C1096 C1077 1.368 . S
C1096 C1090 1.368 . S
C1096 C1095 1.523 . S
C1097 C1081 1.429 . S
C1097 C1093 1.429 . S
C1097 C1098 1.523 . S
C1098 C1082 1.368 . S
C1098 C1094 1.368 . S
C1098 C1097 1.523 . S
H1099 C1074 0.950 . S
H1100 C1076 0.950 . S
H1101 C1077 0.949 . S
H1102 C1079 0.950 . S
H1103 C1081 0.950 . S
C1104 C1105 1.349 . S
C1104 C1106 1.327 . S
C1104 H1129 0.950 . S
C1105 C1104 1.349 . S
C1105 C1121 1.349 . S
C1106 C1104 1.327 . S
C1106 C1125 1.429 . S
C1106 H1130 0.950 . S
C1107 C1124 1.574 . S
C1107 C1126 1.368 . S
C1107 H1131 0.949 . S
H1108 C1112 0.949 . S
C1109 C1110 1.349 . S
C1109 C1111 1.327 . S
C1109 H1132 0.950 . S
C1110 C1109 1.349 . S
C1110 C1122 1.349 . S
C1111 C1109 1.327 . S
C1111 C1127 1.429 . S
C1111 H1133 0.950 . S
C1112 H1108 0.949 . S
C1112 C1120 1.574 . S
C1112 C1128 1.368 . S
H1113 C1121 0.950 . S
H1114 C1119 0.950 . S
H1115 C1120 0.949 . S
H1116 C1122 0.950 . S
H1117 C1123 0.950 . S
H1118 C1124 0.949 . S
C1119 H1114 0.950 . S
C1119 C1121 1.327 . S
C1119 C1125 1.429 . S
C1120 C1112 1.574 . S
C1120 H1115 0.949 . S
C1120 C1126 1.368 . S
C1121 C1105 1.349 . S
C1121 H1113 0.950 . S
C1121 C1119 1.327 . S
C1122 C1110 1.349 . S
C1122 H1116 0.950 . S
C1122 C1123 1.327 . S
C1123 H1117 0.950 . S
C1123 C1122 1.327 . S
C1123 C1127 1.429 . S
C1124 C1107 1.574 . S
C1124 H1118 0.949 . S
C1124 C1128 1.368 . S
C1125 C1106 1.429 . S
C1125 C1119 1.429 . S
C1125 C1126 1.523 . S
C1126 C1107 1.368 . S
C1126 C1120 1.368 . S
C1126 C1125 1.523 . S
C1127 C1111 1.429 . S
C1127 C1123 1.429 . S
C1127 C1128 1.523 . S
C1128 C1112 1.368 . S
C1128 C1124 1.368 . S
C1128 C1127 1.523 . S
H1129 C1104 0.950 . S
H1130 C1106 0.950 . S
H1131 C1107 0.949 . S
H1132 C1109 0.950 . S
H1133 C1111 0.950 . S
C1134 C1135 1.349 . S
C1134 C1136 1.327 . S
C1134 H1159 0.950 . S
C1135 C1134 1.349 . S
C1135 C1151 1.349 . S
C1136 C1134 1.327 . S
C1136 C1155 1.429 . S
C1136 H1160 0.950 . S
C1137 C1154 1.574 . S
C1137 C1156 1.368 . S
C1137 H1161 0.949 . S
H1138 C1142 0.949 . S
C1139 C1140 1.349 . S
C1139 C1141 1.327 . S
C1139 H1162 0.950 . S
C1140 C1139 1.349 . S
C1140 C1152 1.349 . S
C1141 C1139 1.327 . S
C1141 C1157 1.429 . S
C1141 H1163 0.950 . S
C1142 H1138 0.949 . S
C1142 C1150 1.574 . S
C1142 C1158 1.368 . S
H1143 C1151 0.950 . S
H1144 C1149 0.950 . S
H1145 C1150 0.949 . S
H1146 C1152 0.950 . S
H1147 C1153 0.950 . S
H1148 C1154 0.949 . S
C1149 H1144 0.950 . S
C1149 C1151 1.327 . S
C1149 C1155 1.429 . S
C1150 C1142 1.574 . S
C1150 H1145 0.949 . S
C1150 C1156 1.368 . S
C1151 C1135 1.349 . S
C1151 H1143 0.950 . S
C1151 C1149 1.327 . S
C1152 C1140 1.349 . S
C1152 H1146 0.950 . S
C1152 C1153 1.327 . S
C1153 H1147 0.950 . S
C1153 C1152 1.327 . S
C1153 C1157 1.429 . S
C1154 C1137 1.574 . S
C1154 H1148 0.949 . S
C1154 C1158 1.368 . S
C1155 C1136 1.429 . S
C1155 C1149 1.429 . S
C1155 C1156 1.523 . S
C1156 C1137 1.368 . S
C1156 C1150 1.368 . S
C1156 C1155 1.523 . S
C1157 C1141 1.429 . S
C1157 C1153 1.429 . S
C1157 C1158 1.523 . S
C1158 C1142 1.368 . S
C1158 C1154 1.368 . S
C1158 C1157 1.523 . S
H1159 C1134 0.950 . S
H1160 C1136 0.950 . S
H1161 C1137 0.949 . S
H1162 C1139 0.950 . S
H1163 C1141 0.950 . S
C1164 C1165 1.349 . S
C1164 C1166 1.327 . S
C1164 H1189 0.950 . S
C1165 C1164 1.349 . S
C1165 C1181 1.349 . S
C1166 C1164 1.327 . S
C1166 C1185 1.429 . S
C1166 H1190 0.950 . S
C1167 C1184 1.574 . S
C1167 C1186 1.368 . S
C1167 H1191 0.949 . S
H1168 C1172 0.949 . S
C1169 C1170 1.349 . S
C1169 C1171 1.327 . S
C1169 H1192 0.950 . S
C1170 C1169 1.349 . S
C1170 C1182 1.349 . S
C1171 C1169 1.327 . S
C1171 C1187 1.429 . S
C1171 H1193 0.950 . S
C1172 H1168 0.949 . S
C1172 C1180 1.574 . S
C1172 C1188 1.368 . S
H1173 C1181 0.950 . S
H1174 C1179 0.950 . S
H1175 C1180 0.949 . S
H1176 C1182 0.950 . S
H1177 C1183 0.950 . S
H1178 C1184 0.949 . S
C1179 H1174 0.950 . S
C1179 C1181 1.327 . S
C1179 C1185 1.429 . S
C1180 C1172 1.574 . S
C1180 H1175 0.949 . S
C1180 C1186 1.368 . S
C1181 C1165 1.349 . S
C1181 H1173 0.950 . S
C1181 C1179 1.327 . S
C1182 C1170 1.349 . S
C1182 H1176 0.950 . S
C1182 C1183 1.327 . S
C1183 H1177 0.950 . S
C1183 C1182 1.327 . S
C1183 C1187 1.429 . S
C1184 C1167 1.574 . S
C1184 H1178 0.949 . S
C1184 C1188 1.368 . S
C1185 C1166 1.429 . S
C1185 C1179 1.429 . S
C1185 C1186 1.523 . S
C1186 C1167 1.368 . S
C1186 C1180 1.368 . S
C1186 C1185 1.523 . S
C1187 C1171 1.429 . S
C1187 C1183 1.429 . S
C1187 C1188 1.523 1_556 S
C1188 C1172 1.368 . S
C1188 C1184 1.368 . S
C1188 C1187 1.523 1_554 S
H1189 C1164 0.950 . S
H1190 C1166 0.950 . S
H1191 C1167 0.949 . S
H1192 C1169 0.950 . S
H1193 C1171 0.950 . S
C1194 C1195 1.349 . S
C1194 C1196 1.327 . S
C1194 H1219 0.950 . S
C1195 C1194 1.349 . S
C1195 C1211 1.349 . S
C1196 C1194 1.327 . S
C1196 C1215 1.429 . S
C1196 H1220 0.950 . S
C1197 C1214 1.574 . S
C1197 C1216 1.368 . S
C1197 H1221 0.949 . S
H1198 C1202 0.949 . S
C1199 C1200 1.349 . S
C1199 C1201 1.327 . S
C1199 H1222 0.950 . S
C1200 C1199 1.349 . S
C1200 C1212 1.349 . S
C1201 C1199 1.327 . S
C1201 C1217 1.429 . S
C1201 H1223 0.950 . S
C1202 H1198 0.949 . S
C1202 C1210 1.574 . S
C1202 C1218 1.368 . S
H1203 C1211 0.950 . S
H1204 C1209 0.950 . S
H1205 C1210 0.949 . S
H1206 C1212 0.950 . S
H1207 C1213 0.950 . S
H1208 C1214 0.949 . S
C1209 H1204 0.950 . S
C1209 C1211 1.327 . S
C1209 C1215 1.429 . S
C1210 C1202 1.574 . S
C1210 H1205 0.949 . S
C1210 C1216 1.368 . S
C1211 C1195 1.349 . S
C1211 H1203 0.950 . S
C1211 C1209 1.327 . S
C1212 C1200 1.349 . S
C1212 H1206 0.950 . S
C1212 C1213 1.327 . S
C1213 H1207 0.950 . S
C1213 C1212 1.327 . S
C1213 C1217 1.429 . S
C1214 C1197 1.574 . S
C1214 H1208 0.949 . S
C1214 C1218 1.368 . S
C1215 C1196 1.429 . S
C1215 C1209 1.429 . S
C1215 C1216 1.523 . S
C1216 C1197 1.368 . S
C1216 C1210 1.368 . S
C1216 C1215 1.523 . S
C1217 C1201 1.429 . S
C1217 C1213 1.429 . S
C1217 C1218 1.523 . S
C1218 C1202 1.368 . S
C1218 C1214 1.368 . S
C1218 C1217 1.523 . S
H1219 C1194 0.950 . S
H1220 C1196 0.950 . S
H1221 C1197 0.949 . S
H1222 C1199 0.950 . S
H1223 C1201 0.950 . S
C1224 C1225 1.349 . S
C1224 C1226 1.327 . S
C1224 H1249 0.950 . S
C1225 C1224 1.349 . S
C1225 C1241 1.349 . S
C1226 C1224 1.327 . S
C1226 C1245 1.429 . S
C1226 H1250 0.950 . S
C1227 C1244 1.574 . S
C1227 C1246 1.368 1_565 S
C1227 H1251 0.949 . S
H1228 C1232 0.949 . S
C1229 C1230 1.349 . S
C1229 C1231 1.327 . S
C1229 H1252 0.950 . S
C1230 C1229 1.349 . S
C1230 C1242 1.349 . S
C1231 C1229 1.327 . S
C1231 C1247 1.429 . S
C1231 H1253 0.950 . S
C1232 H1228 0.949 . S
C1232 C1240 1.574 . S
C1232 C1248 1.368 1_545 S
H1233 C1241 0.950 . S
H1234 C1239 0.950 . S
H1235 C1240 0.949 . S
H1236 C1242 0.950 . S
H1237 C1243 0.950 . S
H1238 C1244 0.949 . S
C1239 H1234 0.950 . S
C1239 C1241 1.327 . S
C1239 C1245 1.429 . S
C1240 C1232 1.574 . S
C1240 H1235 0.949 . S
C1240 C1246 1.368 . S
C1241 C1225 1.349 . S
C1241 H1233 0.950 . S
C1241 C1239 1.327 . S
C1242 C1230 1.349 . S
C1242 H1236 0.950 . S
C1242 C1243 1.327 . S
C1243 H1237 0.950 . S
C1243 C1242 1.327 . S
C1243 C1247 1.429 . S
C1244 C1227 1.574 . S
C1244 H1238 0.949 . S
C1244 C1248 1.368 . S
C1245 C1226 1.429 . S
C1245 C1239 1.429 . S
C1245 C1246 1.523 . S
C1246 C1227 1.368 1_545 S
C1246 C1240 1.368 . S
C1246 C1245 1.523 . S
C1247 C1231 1.429 . S
C1247 C1243 1.429 . S
C1247 C1248 1.523 . S
C1248 C1232 1.368 1_565 S
C1248 C1244 1.368 . S
C1248 C1247 1.523 . S
H1249 C1224 0.950 . S
H1250 C1226 0.950 . S
H1251 C1227 0.949 . S
H1252 C1229 0.950 . S
H1253 C1231 0.950 . S
C1254 C1255 1.349 . S
C1254 C1256 1.327 . S
C1254 H1279 0.950 . S
C1255 C1254 1.349 . S
C1255 C1271 1.349 . S
C1256 C1254 1.327 . S
C1256 C1275 1.429 . S
C1256 H1280 0.950 . S
C1257 C1274 1.574 . S
C1257 C1276 1.368 . S
C1257 H1281 0.949 . S
H1258 C1262 0.949 . S
C1259 C1260 1.349 . S
C1259 C1261 1.327 . S
C1259 H1282 0.950 . S
C1260 C1259 1.349 . S
C1260 C1272 1.349 . S
C1261 C1259 1.327 . S
C1261 C1277 1.429 . S
C1261 H1283 0.950 . S
C1262 H1258 0.949 . S
C1262 C1270 1.574 . S
C1262 C1278 1.368 . S
H1263 C1271 0.950 . S
H1264 C1269 0.950 . S
H1265 C1270 0.949 . S
H1266 C1272 0.950 . S
H1267 C1273 0.950 . S
H1268 C1274 0.949 . S
C1269 H1264 0.950 . S
C1269 C1271 1.327 . S
C1269 C1275 1.429 . S
C1270 C1262 1.574 . S
C1270 H1265 0.949 . S
C1270 C1276 1.368 . S
C1271 C1255 1.349 . S
C1271 H1263 0.950 . S
C1271 C1269 1.327 . S
C1272 C1260 1.349 . S
C1272 H1266 0.950 . S
C1272 C1273 1.327 . S
C1273 H1267 0.950 . S
C1273 C1272 1.327 . S
C1273 C1277 1.429 . S
C1274 C1257 1.574 . S
C1274 H1268 0.949 . S
C1274 C1278 1.368 . S
C1275 C1256 1.429 . S
C1275 C1269 1.429 . S
C1275 C1276 1.523 . S
C1276 C1257 1.368 . S
C1276 C1270 1.368 . S
C1276 C1275 1.523 . S
C1277 C1261 1.429 . S
C1277 C1273 1.429 . S
C1277 C1278 1.523 . S
C1278 C1262 1.368 . S
C1278 C1274 1.368 . S
C1278 C1277 1.523 . S
H1279 C1254 0.950 . S
H1280 C1256 0.950 . S
H1281 C1257 0.949 . S
H1282 C1259 0.950 . S
H1283 C1261 0.950 . S
C1284 C1285 1.349 . S
C1284 C1286 1.327 . S
C1284 H1309 0.950 . S
C1285 C1284 1.349 . S
C1285 C1301 1.349 . S
C1286 C1284 1.327 . S
C1286 C1305 1.429 . S
C1286 H1310 0.950 . S
C1287 C1304 1.574 . S
C1287 C1306 1.368 . S
C1287 H1311 0.949 1_565 S
H1288 C1292 0.949 . S
C1289 C1290 1.349 . S
C1289 C1291 1.327 . S
C1289 H1312 0.950 . S
C1290 C1289 1.349 . S
C1290 C1302 1.349 . S
C1291 C1289 1.327 . S
C1291 C1307 1.429 . S
C1291 H1313 0.950 . S
C1292 H1288 0.949 . S
C1292 C1300 1.574 . S
C1292 C1308 1.368 . S
H1293 C1301 0.950 . S
H1294 C1299 0.950 . S
H1295 C1300 0.949 . S
H1296 C1302 0.950 . S
H1297 C1303 0.950 . S
H1298 C1304 0.949 . S
C1299 H1294 0.950 . S
C1299 C1301 1.327 . S
C1299 C1305 1.429 . S
C1300 C1292 1.574 . S
C1300 H1295 0.949 . S
C1300 C1306 1.368 . S
C1301 C1285 1.349 . S
C1301 H1293 0.950 . S
C1301 C1299 1.327 . S
C1302 C1290 1.349 . S
C1302 H1296 0.950 . S
C1302 C1303 1.327 . S
C1303 H1297 0.950 . S
C1303 C1302 1.327 . S
C1303 C1307 1.429 . S
C1304 C1287 1.574 . S
C1304 H1298 0.949 . S
C1304 C1308 1.368 . S
C1305 C1286 1.429 . S
C1305 C1299 1.429 . S
C1305 C1306 1.523 1_545 S
C1306 C1287 1.368 . S
C1306 C1300 1.368 . S
C1306 C1305 1.523 1_565 S
C1307 C1291 1.429 . S
C1307 C1303 1.429 . S
C1307 C1308 1.523 . S
C1308 C1292 1.368 . S
C1308 C1304 1.368 . S
C1308 C1307 1.523 . S
H1309 C1284 0.950 . S
H1310 C1286 0.950 . S
H1311 C1287 0.949 1_545 S
H1312 C1289 0.950 . S
H1313 C1291 0.950 . S
C1314 C1315 1.349 . S
C1314 C1316 1.327 . S
C1314 H1339 0.950 . S
C1315 C1314 1.349 . S
C1315 C1331 1.349 . S
C1316 C1314 1.327 . S
C1316 C1335 1.429 . S
C1316 H1340 0.950 . S
C1317 C1334 1.574 . S
C1317 C1336 1.368 . S
C1317 H1341 0.949 . S
H1318 C1322 0.949 . S
C1319 C1320 1.349 . S
C1319 C1321 1.327 . S
C1319 H1342 0.950 . S
C1320 C1319 1.349 . S
C1320 C1332 1.349 . S
C1321 C1319 1.327 . S
C1321 C1337 1.429 . S
C1321 H1343 0.950 . S
C1322 H1318 0.949 . S
C1322 C1330 1.574 . S
C1322 C1338 1.368 . S
H1323 C1331 0.950 . S
H1324 C1329 0.950 . S
H1325 C1330 0.949 . S
H1326 C1332 0.950 . S
H1327 C1333 0.950 . S
H1328 C1334 0.949 . S
C1329 H1324 0.950 . S
C1329 C1331 1.327 . S
C1329 C1335 1.429 . S
C1330 C1322 1.574 . S
C1330 H1325 0.949 . S
C1330 C1336 1.368 . S
C1331 C1315 1.349 . S
C1331 H1323 0.950 . S
C1331 C1329 1.327 . S
C1332 C1320 1.349 . S
C1332 H1326 0.950 . S
C1332 C1333 1.327 . S
C1333 H1327 0.950 . S
C1333 C1332 1.327 . S
C1333 C1337 1.429 . S
C1334 C1317 1.574 . S
C1334 H1328 0.949 . S
C1334 C1338 1.368 . S
C1335 C1316 1.429 . S
C1335 C1329 1.429 . S
C1335 C1336 1.523 . S
C1336 C1317 1.368 . S
C1336 C1330 1.368 . S
C1336 C1335 1.523 . S
C1337 C1321 1.429 . S
C1337 C1333 1.429 . S
C1337 C1338 1.523 . S
C1338 C1322 1.368 . S
C1338 C1334 1.368 . S
C1338 C1337 1.523 . S
H1339 C1314 0.950 . S
H1340 C1316 0.950 . S
H1341 C1317 0.949 . S
H1342 C1319 0.950 . S
H1343 C1321 0.950 . S
C265 C51 1.703 1_655 S
C270 C7 1.703 . S
C295 C62 1.443 . S
C300 C16 1.209 . S
C325 C29 1.669 . S
C330 C73 1.660 . S
C355 C82 1.240 . S
C360 C40 1.439 . S
C385 C95 1.874 . S
C390 C126 1.513 . S
C415 C115 1.407 . S
C420 C106 1.549 . S
C445 C137 1.615 . S
C450 C181 1.641 . S
C475 C192 1.130 . S
C480 C150 1.367 . S
C505 C205 1.400 . S
C510 C161 1.407 . S
C535 C170 1.125 . S
C540 C216 1.213 . S
C565 C260 1.412 1_556 S
C570 C225 1.446 . S
C595 C249 1.326 . S
C600 C236 1.287 . S
C625 C217 1.684 . S
C630 C8 1.683 . S
C655 C184 1.971 . S
C660 C18 1.891 . S
C685 C27 1.979 . S
C690 C195 2.070 . S
C715 C38 1.596 . S
C720 C206 1.720 . S
C745 C52 1.862 . S
C750 C148 1.704 . S
C775 C162 1.856 . S
C780 C60 1.838 . S
C805 C71 1.767 . S
C810 C172 1.857 . S
C835 C85 1.881 . S
C840 C140 1.894 . S
C865 C41 1.680 . S
C870 C261 1.613 . S
C895 C5 1.716 . S
C900 C238 1.828 . S
C925 C19 1.594 . S
C930 C228 1.609 . S
C955 C30 1.971 . S
C960 C247 1.592 . S
C985 C63 1.602 . S
C990 C250 1.571 . S
C1015 C74 1.871 . S
C1020 C258 1.418 . S
C1045 C239 1.843 . S
C1050 C84 1.768 . S
C1075 C49 1.763 . S
C1080 C227 1.835 . S
C1105 C93 1.935 . S
C1110 C183 2.012 . S
C1135 C139 1.862 . S
C1140 C104 1.504 . S
C1165 C96 1.983 . S
C1170 C151 1.992 . S
C1195 C118 1.875 . S
C1200 C159 1.558 . S
C1225 C173 1.910 . S
C1230 C129 1.868 . S
C1255 C203 1.772 . S
C1260 C128 1.995 . S
C1285 C214 1.788 . S
C1290 C107 1.826 . S
C1315 C194 2.178 . S
C1320 C117 2.183 . S
