# Generated by pormake.
# Topology zfw, (5)-cn, num edge types: 1
# Building blocks:
#     Node 0, Type 0, BuildingBlock: XOMCOT_clean_sbu_1, # of connection points: 5
#     Node 1, Type 0, BuildingBlock: XOMCOT_clean_sbu_1, # of connection points: 5
#     Node 2, Type 0, BuildingBlock: XOMCOT_clean_sbu_1, # of connection points: 5
#     Node 3, Type 0, BuildingBlock: XOMCOT_clean_sbu_1, # of connection points: 5
#     Node 4, Type 0, BuildingBlock: XOMCOT_clean_sbu_1, # of connection points: 5
#     Node 5, Type 0, BuildingBlock: XOMCOT_clean_sbu_1, # of connection points: 5
#     Node 6, Type 0, BuildingBlock: XOMCOT_clean_sbu_1, # of connection points: 5
#     Node 7, Type 0, BuildingBlock: XOMCOT_clean_sbu_1, # of connection points: 5
#     Node 8, Type 0, BuildingBlock: XOMCOT_clean_sbu_1, # of connection points: 5
#     Node 9, Type 0, BuildingBlock: XOMCOT_clean_sbu_1, # of connection points: 5
#     Node 10, Type 0, BuildingBlock: XOMCOT_clean_sbu_1, # of connection points: 5
#     Node 11, Type 0, BuildingBlock: XOMCOT_clean_sbu_1, # of connection points: 5
#     Node 12, Type 0, BuildingBlock: XOMCOT_clean_sbu_1, # of connection points: 5
#     Node 13, Type 0, BuildingBlock: XOMCOT_clean_sbu_1, # of connection points: 5
#     Node 14, Type 0, BuildingBlock: XOMCOT_clean_sbu_1, # of connection points: 5
#     Node 15, Type 0, BuildingBlock: XOMCOT_clean_sbu_1, # of connection points: 5
#     Edge 16, Type (0, 0), BuildingBlock: UVAHIK_clean_linker_0, # of connection points: 2
#     Edge 17, Type (0, 0), BuildingBlock: UVAHIK_clean_linker_0, # of connection points: 2
#     Edge 18, Type (0, 0), BuildingBlock: UVAHIK_clean_linker_0, # of connection points: 2
#     Edge 19, Type (0, 0), BuildingBlock: UVAHIK_clean_linker_0, # of connection points: 2
#     Edge 20, Type (0, 0), BuildingBlock: UVAHIK_clean_linker_0, # of connection points: 2
#     Edge 21, Type (0, 0), BuildingBlock: UVAHIK_clean_linker_0, # of connection points: 2
#     Edge 22, Type (0, 0), BuildingBlock: UVAHIK_clean_linker_0, # of connection points: 2
#     Edge 23, Type (0, 0), BuildingBlock: UVAHIK_clean_linker_0, # of connection points: 2
#     Edge 24, Type (0, 0), BuildingBlock: UVAHIK_clean_linker_0, # of connection points: 2
#     Edge 25, Type (0, 0), BuildingBlock: UVAHIK_clean_linker_0, # of connection points: 2
#     Edge 26, Type (0, 0), BuildingBlock: UVAHIK_clean_linker_0, # of connection points: 2
#     Edge 27, Type (0, 0), BuildingBlock: UVAHIK_clean_linker_0, # of connection points: 2
#     Edge 28, Type (0, 0), BuildingBlock: UVAHIK_clean_linker_0, # of connection points: 2
#     Edge 29, Type (0, 0), BuildingBlock: UVAHIK_clean_linker_0, # of connection points: 2
#     Edge 30, Type (0, 0), BuildingBlock: UVAHIK_clean_linker_0, # of connection points: 2
#     Edge 31, Type (0, 0), BuildingBlock: UVAHIK_clean_linker_0, # of connection points: 2
#     Edge 32, Type (0, 0), BuildingBlock: UVAHIK_clean_linker_0, # of connection points: 2
#     Edge 33, Type (0, 0), BuildingBlock: UVAHIK_clean_linker_0, # of connection points: 2
#     Edge 34, Type (0, 0), BuildingBlock: UVAHIK_clean_linker_0, # of connection points: 2
#     Edge 35, Type (0, 0), BuildingBlock: UVAHIK_clean_linker_0, # of connection points: 2
#     Edge 36, Type (0, 0), BuildingBlock: UVAHIK_clean_linker_0, # of connection points: 2
#     Edge 37, Type (0, 0), BuildingBlock: UVAHIK_clean_linker_0, # of connection points: 2
#     Edge 38, Type (0, 0), BuildingBlock: UVAHIK_clean_linker_0, # of connection points: 2
#     Edge 39, Type (0, 0), BuildingBlock: UVAHIK_clean_linker_0, # of connection points: 2
#     Edge 40, Type (0, 0), BuildingBlock: UVAHIK_clean_linker_0, # of connection points: 2
#     Edge 41, Type (0, 0), BuildingBlock: UVAHIK_clean_linker_0, # of connection points: 2
#     Edge 42, Type (0, 0), BuildingBlock: UVAHIK_clean_linker_0, # of connection points: 2
#     Edge 43, Type (0, 0), BuildingBlock: UVAHIK_clean_linker_0, # of connection points: 2
#     Edge 44, Type (0, 0), BuildingBlock: UVAHIK_clean_linker_0, # of connection points: 2
#     Edge 45, Type (0, 0), BuildingBlock: UVAHIK_clean_linker_0, # of connection points: 2
#     Edge 46, Type (0, 0), BuildingBlock: UVAHIK_clean_linker_0, # of connection points: 2
#     Edge 47, Type (0, 0), BuildingBlock: UVAHIK_clean_linker_0, # of connection points: 2
#     Edge 48, Type (0, 0), BuildingBlock: UVAHIK_clean_linker_0, # of connection points: 2
#     Edge 49, Type (0, 0), BuildingBlock: UVAHIK_clean_linker_0, # of connection points: 2
#     Edge 50, Type (0, 0), BuildingBlock: UVAHIK_clean_linker_0, # of connection points: 2
#     Edge 51, Type (0, 0), BuildingBlock: UVAHIK_clean_linker_0, # of connection points: 2
#     Edge 52, Type (0, 0), BuildingBlock: UVAHIK_clean_linker_0, # of connection points: 2
#     Edge 53, Type (0, 0), BuildingBlock: UVAHIK_clean_linker_0, # of connection points: 2
#     Edge 54, Type (0, 0), BuildingBlock: UVAHIK_clean_linker_0, # of connection points: 2
#     Edge 55, Type (0, 0), BuildingBlock: UVAHIK_clean_linker_0, # of connection points: 2
# Relax obj value: 0.239
# Max RMSD: 0.196
# Mean RMSD: 0.184
data_MOF--net-zfw--node1-XOMCOT_clean_sbu_1--edge1-UVAHIK_clean_linker_0
_symmetry_space_group_name_H-M    P1
_symmetry_Int_Tables_number       1
_symmetry_cell_setting            triclinic
loop_
_symmetry_equiv_pos_as_xyz
'x, y, z'
_cell_length_a     89.621085
_cell_length_b     89.004831
_cell_length_c     21.033432
_cell_angle_alpha  89.971553
_cell_angle_beta   89.989678
_cell_angle_gamma 89.995918
loop_
_atom_site_label
_atom_site_type_symbol
_atom_site_fract_x
_atom_site_fract_y
_atom_site_fract_z
_atom_type_partial_charge
C0 C 0.07728 0.06488 0.35402 0.0
C1 C 0.07787 0.05889 0.4142 0.0
N2 N 0.09123 0.06235 0.43959 0.0
N3 N 0.09019 0.07208 0.3418 0.0
C4 C 0.09852 0.07027 0.39457 0.0
H5 H 0.06799 0.0642 0.32132 0.0
Co6 Co 0.09474 0.08156 0.26596 0.0
C7 C 0.11055 0.1086 0.31224 0.0
O8 O 0.10069 0.11695 0.28246 0.0
N9 N 0.09949 0.09002 0.18736 0.0
C10 C 0.1138 0.09619 0.10482 0.0
C11 C 0.11166 0.09795 0.16897 0.0
C12 C 0.09461 0.08347 0.13337 0.0
N13 N 0.10312 0.087 0.08285 0.0
O14 O 0.10958 0.06673 0.24855 0.0
H15 H 0.1198 0.10297 0.19999 0.0
H16 H 0.08617 0.07476 0.13274 0.0
O17 O 0.10978 0.09425 0.30865 0.0
C18 C 0.10445 0.05399 0.23194 0.0
O19 O 0.08998 0.05173 0.23429 0.0
N20 N 0.0792 0.09575 0.28151 0.0
C21 C 0.05545 0.11542 0.30425 0.0
C22 C 0.06533 0.11156 0.35313 0.0
C23 C 0.07707 0.10168 0.34093 0.0
C24 C 0.06925 0.09892 0.23418 0.0
C25 C 0.05748 0.10894 0.24419 0.0
H26 H 0.08464 0.099 0.37927 0.0
H27 H 0.07019 0.09357 0.18844 0.0
H28 H 0.10969 0.07472 0.40001 0.0
H29 H 0.06898 0.05293 0.43821 0.0
H30 H 0.12328 0.10014 0.07764 0.0
H31 H 0.06414 0.11632 0.40026 0.0
H32 H 0.04983 0.11135 0.20563 0.0
C33 C 0.25608 0.74563 0.58953 0.0
C34 C 0.26176 0.74569 0.6502 0.0
N35 N 0.259 0.75925 0.67631 0.0
N36 N 0.24975 0.75905 0.57749 0.0
C37 C 0.2518 0.76716 0.63089 0.0
H38 H 0.2564 0.73636 0.55632 0.0
Co39 Co 0.24055 0.76438 0.50181 0.0
C40 C 0.21577 0.78263 0.56189 0.0
O41 O 0.20545 0.77257 0.54969 0.0
N42 N 0.23202 0.76983 0.42418 0.0
C43 C 0.2187 0.77865 0.34317 0.0
C44 C 0.21854 0.77527 0.40697 0.0
C45 C 0.24004 0.76982 0.36995 0.0
N46 N 0.23232 0.77532 0.32014 0.0
O47 O 0.25631 0.77846 0.48511 0.0
H48 H 0.20915 0.77694 0.43792 0.0
H49 H 0.25141 0.76584 0.36725 0.0
O50 O 0.22931 0.7805 0.54484 0.0
C51 C 0.26908 0.77291 0.47276 0.0
O52 O 0.27086 0.75828 0.47579 0.0
N53 N 0.22562 0.74959 0.51646 0.0
C54 C 0.20521 0.72618 0.53408 0.0
C55 C 0.20948 0.73532 0.58513 0.0
C56 C 0.21992 0.74675 0.57565 0.0
C57 C 0.22218 0.74024 0.46711 0.0
C58 C 0.21187 0.7286 0.47466 0.0
H59 H 0.22309 0.7536 0.61581 0.0
H60 H 0.22752 0.74166 0.42144 0.0
H61 H 0.24765 0.77847 0.63699 0.0
H62 H 0.26736 0.73641 0.67327 0.0
H63 H 0.20962 0.78355 0.31636 0.0
H64 H 0.20493 0.73356 0.63225 0.0
H65 H 0.20906 0.72165 0.43416 0.0
C66 C 0.57873 0.93073 0.81005 0.0
C67 C 0.5801 0.93665 0.8701 0.0
N68 N 0.56774 0.93308 0.90332 0.0
N69 N 0.56563 0.92339 0.80566 0.0
C70 C 0.55901 0.92532 0.86267 0.0
H71 H 0.58713 0.93096 0.77311 0.0
Co72 Co 0.56035 0.9116 0.73669 0.0
C73 C 0.54146 0.88852 0.79741 0.0
O74 O 0.54999 0.87804 0.77265 0.0
N75 N 0.55515 0.90057 0.66399 0.0
C76 C 0.54196 0.89128 0.5832 0.0
C77 C 0.54265 0.89289 0.64818 0.0
C78 C 0.5616 0.90372 0.60758 0.0
N79 N 0.5538 0.89834 0.55783 0.0
O80 O 0.54727 0.92717 0.70778 0.0
H81 H 0.53356 0.89023 0.6798 0.0
H82 H 0.57117 0.91104 0.60283 0.0
O83 O 0.54396 0.90239 0.78531 0.0
C84 C 0.55413 0.93684 0.67408 0.0
O85 O 0.56867 0.93559 0.66793 0.0
N86 N 0.57425 0.89667 0.76427 0.0
C87 C 0.59606 0.87616 0.80471 0.0
C88 C 0.58567 0.88211 0.84766 0.0
C89 C 0.57498 0.89236 0.82672 0.0
C90 C 0.58469 0.89148 0.72242 0.0
C91 C 0.5955 0.88106 0.7413 0.0
H92 H 0.56716 0.89668 0.8611 0.0
H93 H 0.58493 0.89552 0.6742 0.0
H94 H 0.54866 0.91995 0.87621 0.0
H95 H 0.5898 0.94237 0.88891 0.0
H96 H 0.53261 0.88685 0.55652 0.0
H97 H 0.58588 0.87909 0.89752 0.0
H98 H 0.60332 0.87688 0.70626 0.0
C99 C 0.39507 0.23709 0.07988 0.0
C100 C 0.39397 0.23158 0.1408 0.0
N101 N 0.40593 0.2228 0.15208 0.0
N102 N 0.40763 0.23174 0.05296 0.0
C103 C 0.41395 0.22301 0.09789 0.0
H104 H 0.38755 0.24501 0.05778 0.0
Co105 Co 0.41498 0.23702 0.97656 0.0
C106 C 0.4396 0.2155 0.94922 0.0
O107 O 0.44709 0.22599 0.91894 0.0
N108 N 0.42205 0.24238 0.89545 0.0
C109 C 0.43285 0.25283 0.81083 0.0
C110 C 0.42959 0.25459 0.87429 0.0
C111 C 0.42064 0.23359 0.84343 0.0
N112 N 0.42717 0.23961 0.79187 0.0
O113 O 0.39898 0.22622 0.93767 0.0
H114 H 0.4328 0.26418 0.90237 0.0
H115 H 0.41545 0.22261 0.8438 0.0
O116 O 0.42702 0.21864 0.97467 0.0
C117 C 0.38749 0.23383 0.92277 0.0
O118 O 0.38724 0.24826 0.93588 0.0
N119 N 0.43 0.24835 0.01442 0.0
C120 C 0.45054 0.26859 0.06609 0.0
C121 C 0.45322 0.25305 0.06773 0.0
C122 C 0.44274 0.2431 0.0424 0.0
C123 C 0.4265 0.26322 0.01847 0.0
C124 C 0.43672 0.27358 0.04274 0.0
H125 H 0.44498 0.23126 0.04608 0.0
H126 H 0.41599 0.26714 -0.00063 0.0
H127 H 0.42451 0.21733 0.09192 0.0
H128 H 0.38555 0.23463 0.1754 0.0
H129 H 0.43883 0.26068 0.78085 0.0
H130 H 0.46336 0.24857 0.08831 0.0
H131 H 0.434 0.28542 0.04085 0.0
C132 C 0.09556 0.94111 0.6381 0.0
C133 C 0.10002 0.94368 0.5767 0.0
N134 N 0.10689 0.93122 0.55491 0.0
N135 N 0.0997 0.92716 0.65544 0.0
C136 C 0.1066 0.9214 0.60393 0.0
H137 H 0.08946 0.94887 0.66778 0.0
Co138 Co 0.09563 0.91876 0.73366 0.0
C139 C 0.11561 0.89244 0.74781 0.0
O140 O 0.10484 0.88515 0.77692 0.0
N141 N 0.09139 0.91086 0.81451 0.0
C142 C 0.08088 0.9031 0.90448 0.0
C143 C 0.07844 0.9064 0.84143 0.0
C144 C 0.10141 0.91032 0.86243 0.0
N145 N 0.09538 0.90562 0.91764 0.0
O146 O 0.10781 0.93374 0.77315 0.0
H147 H 0.06771 0.90611 0.81836 0.0
H148 H 0.11298 0.91348 0.85664 0.0
O149 O 0.11324 0.90568 0.72627 0.0
C150 C 0.10063 0.94484 0.79591 0.0
O151 O 0.08604 0.94511 0.78977 0.0
N152 N 0.08279 0.90483 0.69379 0.0
C153 C 0.06049 0.88635 0.64389 0.0
C154 C 0.07561 0.88263 0.63653 0.0
C155 C 0.08661 0.89217 0.66082 0.0
C156 C 0.06827 0.90931 0.69582 0.0
C157 C 0.05691 0.90014 0.6723 0.0
H158 H 0.0981 0.88923 0.65261 0.0
H159 H 0.06545 0.9199 0.71805 0.0
H160 H 0.11087 0.91006 0.60183 0.0
H161 H 0.09813 0.95392 0.5502 0.0
H162 H 0.07242 0.89986 0.93854 0.0
H163 H 0.07895 0.87228 0.61359 0.0
H164 H 0.04542 0.90377 0.67683 0.0
C165 C 0.39104 0.77279 0.89995 0.0
C166 C 0.39063 0.77843 0.83911 0.0
N167 N 0.40365 0.7855 0.82765 0.0
N168 N 0.40423 0.77635 0.92666 0.0
C169 C 0.4116 0.78419 0.88174 0.0
H170 H 0.38257 0.76588 0.92196 0.0
Co171 Co 0.41109 0.76982 0.00211 0.0
C172 C 0.43622 0.79035 0.03586 0.0
O173 O 0.44318 0.7795 0.06612 0.0
N174 N 0.41772 0.76317 0.08199 0.0
C175 C 0.4278 0.75107 0.16417 0.0
C176 C 0.42457 0.75033 0.10028 0.0
C177 C 0.41662 0.77131 0.13597 0.0
N178 N 0.42276 0.7643 0.18619 0.0
O179 O 0.39546 0.78081 0.0428 0.0
H180 H 0.42733 0.74101 0.06978 0.0
H181 H 0.41203 0.78255 0.13793 0.0
O182 O 0.42382 0.78767 0.00798 0.0
C183 C 0.38381 0.77335 0.05685 0.0
O184 O 0.38323 0.75904 0.04162 0.0
N185 N 0.42577 0.75831 0.96254 0.0
C186 C 0.445 0.73769 0.90475 0.0
C187 C 0.44902 0.75286 0.91071 0.0
C188 C 0.43919 0.76303 0.93905 0.0
C189 C 0.42119 0.7439 0.95252 0.0
C190 C 0.43069 0.73334 0.92473 0.0
H191 H 0.44246 0.77464 0.94077 0.0
H192 H 0.41026 0.74046 0.96881 0.0
H193 H 0.42286 0.78833 0.88755 0.0
H194 H 0.38188 0.7765 0.80457 0.0
H195 H 0.43337 0.74256 0.19225 0.0
H196 H 0.45966 0.7569 0.89332 0.0
H197 H 0.42701 0.72179 0.92084 0.0
C198 C 0.57363 0.0707 0.1887 0.0
C199 C 0.57376 0.06486 0.1281 0.0
N200 N 0.5603 0.06739 0.10169 0.0
N201 N 0.56017 0.07691 0.19996 0.0
C202 C 0.55222 0.07448 0.14665 0.0
H203 H 0.58289 0.07092 0.22166 0.0
Co204 Co 0.55451 0.08711 0.2728 0.0
C205 C 0.53707 0.11218 0.21871 0.0
O206 O 0.54544 0.12167 0.2506 0.0
N207 N 0.54866 0.0964 0.3482 0.0
C208 C 0.5335 0.10247 0.428 0.0
C209 C 0.53551 0.10298 0.36336 0.0
C210 C 0.55424 0.0918 0.40453 0.0
N211 N 0.54526 0.09535 0.45354 0.0
O212 O 0.54072 0.0714 0.29236 0.0
H213 H 0.52684 0.10605 0.33032 0.0
H214 H 0.56366 0.08424 0.40858 0.0
O215 O 0.53904 0.09801 0.22482 0.0
C216 C 0.54716 0.05972 0.3139 0.0
O217 O 0.56179 0.05955 0.31779 0.0
N218 N 0.56903 0.10219 0.25448 0.0
C219 C 0.59205 0.12225 0.22505 0.0
C220 C 0.58201 0.11755 0.17819 0.0
C221 C 0.57066 0.1075 0.19372 0.0
C222 C 0.57898 0.1064 0.3003 0.0
C223 C 0.59041 0.11664 0.28689 0.0
H224 H 0.56316 0.10397 0.15644 0.0
H225 H 0.57844 0.1016 0.34724 0.0
H226 H 0.54084 0.07821 0.14019 0.0
H227 H 0.58327 0.05994 0.10419 0.0
H228 H 0.5235 0.10567 0.4535 0.0
H229 H 0.5829 0.12164 0.12981 0.0
H230 H 0.59817 0.11976 0.32406 0.0
C231 C 0.25754 0.25731 0.39356 0.0
C232 C 0.26329 0.25711 0.33304 0.0
N233 N 0.26047 0.24353 0.3072 0.0
N234 N 0.25113 0.24393 0.40589 0.0
C235 C 0.25323 0.23571 0.35281 0.0
H236 H 0.25777 0.26667 0.4263 0.0
Co237 Co 0.24157 0.23896 0.48123 0.0
C238 C 0.21803 0.21939 0.42037 0.0
O239 O 0.20756 0.2296 0.42544 0.0
N240 N 0.23271 0.2338 0.55848 0.0
C241 C 0.21899 0.22487 0.63808 0.0
C242 C 0.21919 0.22818 0.57414 0.0
C243 C 0.24036 0.23401 0.61359 0.0
N244 N 0.23242 0.22842 0.66252 0.0
O245 O 0.25781 0.22572 0.50197 0.0
H246 H 0.21007 0.22634 0.5418 0.0
H247 H 0.25167 0.23812 0.61757 0.0
O248 O 0.23125 0.2219 0.44068 0.0
C249 C 0.27021 0.23193 0.51548 0.0
O250 O 0.27129 0.24662 0.51213 0.0
N251 N 0.22606 0.25306 0.46221 0.0
C252 C 0.20432 0.27506 0.43818 0.0
C253 C 0.2105 0.26661 0.38845 0.0
C254 C 0.22136 0.25579 0.40131 0.0
C255 C 0.22093 0.26194 0.51046 0.0
C256 C 0.20984 0.27269 0.49984 0.0
H257 H 0.22558 0.24923 0.36207 0.0
H258 H 0.2254 0.26082 0.5579 0.0
H259 H 0.24893 0.22446 0.3468 0.0
H260 H 0.26888 0.26637 0.30972 0.0
H261 H 0.20984 0.21983 0.66398 0.0
H262 H 0.20706 0.26831 0.33965 0.0
H263 H 0.20559 0.27896 0.54002 0.0
C264 C 0.88784 0.24685 0.40609 0.0
C265 C 0.88185 0.24776 0.34612 0.0
N266 N 0.88591 0.26101 0.3201 0.0
N267 N 0.89562 0.25946 0.41809 0.0
C268 C 0.8941 0.26795 0.3654 0.0
H269 H 0.88689 0.23746 0.4385 0.0
Co270 Co 0.90615 0.26325 0.4923 0.0
C271 C 0.93012 0.28199 0.42898 0.0
O272 O 0.9402 0.27132 0.43096 0.0
N273 N 0.91599 0.26724 0.56849 0.0
C274 C 0.93018 0.2758 0.64726 0.0
C275 C 0.92936 0.27341 0.58268 0.0
C276 C 0.9091 0.26569 0.62502 0.0
N277 N 0.91737 0.27096 0.67352 0.0
O278 O 0.89097 0.2773 0.5175 0.0
H279 H 0.93788 0.27643 0.54893 0.0
H280 H 0.89786 0.26144 0.63012 0.0
O281 O 0.91707 0.27992 0.45193 0.0
C282 C 0.87853 0.27165 0.53443 0.0
O283 O 0.87679 0.25701 0.5317 0.0
N284 N 0.92061 0.24843 0.46893 0.0
C285 C 0.94066 0.22527 0.43886 0.0
C286 C 0.9348 0.2346 0.39125 0.0
C287 C 0.92473 0.24597 0.4071 0.0
C288 C 0.92548 0.23882 0.51517 0.0
C289 C 0.93571 0.22743 0.50149 0.0
H290 H 0.92067 0.25312 0.36944 0.0
H291 H 0.92142 0.2398 0.56331 0.0
H292 H 0.89953 0.27868 0.3594 0.0
H293 H 0.87532 0.23909 0.3233 0.0
H294 H 0.93935 0.28094 0.67272 0.0
H295 H 0.93787 0.23312 0.34187 0.0
H296 H 0.93977 0.22048 0.54004 0.0
C297 C 0.75639 0.74827 0.98122 0.0
C298 C 0.76239 0.74944 0.9213 0.0
N299 N 0.75939 0.73664 0.88955 0.0
N300 N 0.7496 0.73484 0.98704 0.0
C301 C 0.7518 0.7279 0.93089 0.0
H302 H 0.75651 0.75677 0.01525 0.0
Co303 Co 0.73905 0.72862 0.05585 0.0
C304 C 0.71418 0.71167 -0.00174 0.0
O305 O 0.7048 0.72038 0.02902 0.0
N306 N 0.72944 0.72241 0.13018 0.0
C307 C 0.72101 0.70797 0.2088 0.0
C308 C 0.72162 0.70982 0.14409 0.0
C309 C 0.73378 0.72769 0.18736 0.0
N310 N 0.72882 0.71916 0.23591 0.0
O311 O 0.75452 0.7145 0.07477 0.0
H312 H 0.71799 0.70143 0.11058 0.0
H313 H 0.74172 0.73677 0.19273 0.0
O314 O 0.72828 0.7133 0.00574 0.0
C315 C 0.76611 0.72071 0.09784 0.0
O316 O 0.76622 0.73536 0.1053 0.0
N317 N 0.72425 0.7435 0.03792 0.0
C318 C 0.7045 0.76686 0.00874 0.0
C319 C 0.70957 0.75716 0.9638 0.0
C320 C 0.71944 0.74564 0.9792 0.0
C321 C 0.71973 0.75321 0.0844 0.0
C322 C 0.70963 0.76479 0.07107 0.0
H323 H 0.72311 0.73828 0.94153 0.0
H324 H 0.72413 0.75232 0.13189 0.0
H325 H 0.74715 0.71703 0.91925 0.0
H326 H 0.76811 0.75914 0.9021 0.0
H327 H 0.71616 0.6985 0.23359 0.0
H328 H 0.70584 0.75835 0.91506 0.0
H329 H 0.70619 0.77233 0.10876 0.0
C330 C 0.75859 0.24941 0.08191 0.0
C331 C 0.76437 0.25003 0.14231 0.0
N332 N 0.76063 0.26338 0.16821 0.0
N333 N 0.75128 0.2623 0.06961 0.0
C334 C 0.75287 0.27067 0.12259 0.0
H335 H 0.75932 0.24002 0.04944 0.0
Co336 Co 0.741 0.26637 0.9975 0.0
C337 C 0.71709 0.28547 0.05658 0.0
O338 O 0.70684 0.27497 0.05424 0.0
N339 N 0.73134 0.27053 0.92089 0.0
C340 C 0.71667 0.27826 0.84209 0.0
C341 C 0.7174 0.27519 0.90622 0.0
C342 C 0.73869 0.2706 0.86504 0.0
N343 N 0.73018 0.27553 0.81662 0.0
O344 O 0.75647 0.28021 0.97298 0.0
H345 H 0.70837 0.27657 0.93943 0.0
H346 H 0.75021 0.26723 0.86012 0.0
O347 O 0.73022 0.28315 0.03485 0.0
C348 C 0.76904 0.27454 0.95794 0.0
O349 O 0.77083 0.25993 0.9622 0.0
N350 N 0.72626 0.25174 0.01806 0.0
C351 C 0.70613 0.22883 0.04884 0.0
C352 C 0.71185 0.23825 0.0961 0.0
C353 C 0.72197 0.24953 0.0799 0.0
C354 C 0.72144 0.24209 0.97459 0.0
C355 C 0.71111 0.2308 0.98866 0.0
H356 H 0.72592 0.25683 0.11721 0.0
H357 H 0.72565 0.24291 0.92659 0.0
H358 H 0.74771 0.28155 0.12882 0.0
H359 H 0.7705 0.24113 0.16566 0.0
H360 H 0.70711 0.28266 0.81675 0.0
H361 H 0.70832 0.23713 0.14514 0.0
H362 H 0.70726 0.22344 0.9511 0.0
C363 C 0.89979 0.75147 0.55372 0.0
C364 C 0.89403 0.75147 0.6143 0.0
N365 N 0.8973 0.73817 0.64171 0.0
N366 N 0.90671 0.73826 0.54316 0.0
C367 C 0.90488 0.73034 0.59722 0.0
H368 H 0.89919 0.76056 0.5197 0.0
Co369 Co 0.91644 0.73292 0.46865 0.0
C370 C 0.94179 0.71624 0.53136 0.0
O371 O 0.95169 0.72648 0.51588 0.0
N372 N 0.9254 0.72743 0.39205 0.0
C373 C 0.9386 0.71821 0.31146 0.0
C374 C 0.93866 0.72134 0.37551 0.0
C375 C 0.91761 0.72798 0.33731 0.0
N376 N 0.92526 0.72229 0.28774 0.0
O377 O 0.90131 0.71811 0.45255 0.0
H378 H 0.94775 0.71885 0.40709 0.0
H379 H 0.90639 0.7324 0.33419 0.0
O380 O 0.92814 0.71761 0.51441 0.0
C381 C 0.8884 0.72313 0.4387 0.0
O382 O 0.88618 0.73772 0.43837 0.0
N383 N 0.93079 0.74837 0.48298 0.0
C384 C 0.95018 0.77265 0.50181 0.0
C385 C 0.94571 0.7636 0.55291 0.0
C386 C 0.9359 0.75169 0.54271 0.0
C387 C 0.93454 0.75748 0.43316 0.0
C388 C 0.9444 0.7695 0.44131 0.0
H389 H 0.93273 0.74484 0.58294 0.0
H390 H 0.92973 0.75564 0.38673 0.0
H391 H 0.90951 0.71926 0.60462 0.0
H392 H 0.88808 0.76064 0.63654 0.0
H393 H 0.9475 0.71288 0.285 0.0
H394 H 0.94991 0.76556 0.60047 0.0
H395 H 0.94721 0.77647 0.40082 0.0
C396 C 0.57084 0.57329 0.7964 0.0
C397 C 0.57074 0.56731 0.85661 0.0
N398 N 0.58428 0.56959 0.88264 0.0
N399 N 0.58435 0.57933 0.78481 0.0
C400 C 0.59235 0.57687 0.83804 0.0
H401 H 0.56167 0.57324 0.76293 0.0
Co402 Co 0.58994 0.58765 0.70806 0.0
C403 C 0.60752 0.61413 0.74521 0.0
O404 O 0.59876 0.62207 0.70799 0.0
N405 N 0.59565 0.59485 0.62832 0.0
C406 C 0.61116 0.59771 0.54642 0.0
C407 C 0.60914 0.60025 0.61007 0.0
C408 C 0.58993 0.5888 0.57472 0.0
N409 N 0.59914 0.59038 0.52459 0.0
O410 O 0.6039 0.57179 0.69506 0.0
H411 H 0.61802 0.60368 0.64136 0.0
H412 H 0.58025 0.58152 0.57451 0.0
O413 O 0.60547 0.59992 0.75005 0.0
C414 C 0.59825 0.55929 0.67839 0.0
O415 O 0.58368 0.55772 0.67974 0.0
N416 N 0.57534 0.60298 0.71955 0.0
C417 C 0.55317 0.62474 0.73787 0.0
C418 C 0.56323 0.62117 0.7866 0.0
C419 C 0.57408 0.61019 0.7768 0.0
C420 C 0.56519 0.60581 0.67264 0.0
C421 C 0.55413 0.61675 0.68052 0.0
H422 H 0.58162 0.60757 0.81535 0.0
H423 H 0.56546 0.59953 0.62892 0.0
H424 H 0.60389 0.58019 0.8437 0.0
H425 H 0.56135 0.56201 0.87994 0.0
H426 H 0.62132 0.59968 0.51978 0.0
H427 H 0.56264 0.62669 0.8324 0.0
H428 H 0.5465 0.619 0.64177 0.0
C429 C 0.07184 0.42909 0.39618 0.0
C430 C 0.07239 0.43606 0.45422 0.0
N431 N 0.05844 0.44023 0.47024 0.0
N432 N 0.05757 0.42849 0.37606 0.0
C433 C 0.04974 0.4359 0.42113 0.0
H434 H 0.08129 0.42457 0.37052 0.0
Co435 Co 0.0519 0.42077 0.29731 0.0
C436 C 0.0275 0.40642 0.38161 0.0
O437 O 0.03264 0.41033 0.43761 0.0
N438 N 0.04668 0.41367 0.21766 0.0
C439 C 0.03995 0.39986 0.13461 0.0
C440 C 0.04255 0.39976 0.19918 0.0
C441 C 0.04658 0.42196 0.16409 0.0
N442 N 0.0424 0.41389 0.11301 0.0
O443 O 0.03966 0.43801 0.28231 0.0
H444 H 0.04174 0.39014 0.23043 0.0
H445 H 0.04991 0.43363 0.1622 0.0
O446 O 0.03455 0.41001 0.33099 0.0
C447 C 0.04602 0.45063 0.27357 0.0
O448 O 0.06048 0.45169 0.28292 0.0
N449 N 0.06444 0.40402 0.3097 0.0
C450 C 0.08583 0.38163 0.32658 0.0
C451 C 0.07432 0.38354 0.37087 0.0
C452 C 0.06367 0.39477 0.36143 0.0
C453 C 0.07563 0.40234 0.26627 0.0
C454 C 0.08632 0.39104 0.27325 0.0
H455 H 0.0553 0.39643 0.39733 0.0
H456 H 0.07643 0.41002 0.22653 0.0
H457 H 0.03786 0.43794 0.41828 0.0
H458 H 0.08221 0.43728 0.48368 0.0
H459 H 0.03656 0.39037 0.10583 0.0
H460 H 0.07367 0.37653 0.4129 0.0
H461 H 0.0952 0.39005 0.23857 0.0
C462 C 0.57502 0.42963 0.10487 0.0
C463 C 0.57422 0.43654 0.04673 0.0
N464 N 0.58797 0.44138 0.03101 0.0
N465 N 0.58928 0.42974 0.12541 0.0
C466 C 0.5968 0.4375 0.0804 0.0
H467 H 0.56576 0.42468 0.1303 0.0
Co468 Co 0.59534 0.42236 0.20428 0.0
C469 C 0.61979 0.40864 0.11884 0.0
O470 O 0.6142 0.41233 0.06336 0.0
N471 N 0.60092 0.41556 0.28391 0.0
C472 C 0.6082 0.40202 0.36697 0.0
C473 C 0.60551 0.4018 0.30248 0.0
C474 C 0.60087 0.4239 0.33733 0.0
N475 N 0.60536 0.41599 0.38842 0.0
O476 O 0.60716 0.43995 0.21798 0.0
H477 H 0.60656 0.39219 0.27138 0.0
H478 H 0.59718 0.43546 0.33912 0.0
O479 O 0.61291 0.41202 0.17014 0.0
C480 C 0.60053 0.4524 0.22733 0.0
O481 O 0.58599 0.45305 0.21967 0.0
N482 N 0.58319 0.40525 0.19341 0.0
C483 C 0.56254 0.38194 0.18077 0.0
C484 C 0.57431 0.38354 0.13734 0.0
C485 C 0.5845 0.39529 0.14439 0.0
C486 C 0.57179 0.4039 0.23603 0.0
C487 C 0.56142 0.39224 0.23099 0.0
H488 H 0.59306 0.3966 0.10906 0.0
H489 H 0.57061 0.41209 0.27366 0.0
H490 H 0.60859 0.44006 0.08338 0.0
H491 H 0.5644 0.43728 0.01698 0.0
H492 H 0.61191 0.39266 0.3958 0.0
H493 H 0.57558 0.37584 0.09786 0.0
H494 H 0.55236 0.39158 0.26496 0.0
C495 C 0.06373 0.56214 0.64617 0.0
C496 C 0.05902 0.55966 0.58507 0.0
N497 N 0.04759 0.56908 0.57244 0.0
N498 N 0.05536 0.57305 0.67226 0.0
C499 C 0.0456 0.57708 0.62643 0.0
H500 H 0.07308 0.55677 0.66935 0.0
Co501 Co 0.05903 0.5806 0.7522 0.0
C502 C 0.03976 0.6074 0.7678 0.0
O503 O 0.05054 0.6142 0.79886 0.0
N504 N 0.06301 0.5876 0.8348 0.0
C505 C 0.07348 0.59398 0.92672 0.0
C506 C 0.07601 0.59122 0.86338 0.0
C507 C 0.05282 0.58806 0.88225 0.0
N508 N 0.05885 0.59196 0.93861 0.0
O509 O 0.0462 0.56579 0.78804 0.0
H510 H 0.08685 0.59126 0.84131 0.0
H511 H 0.04116 0.58542 0.87535 0.0
O512 O 0.04188 0.59421 0.74548 0.0
C513 C 0.05219 0.55339 0.80384 0.0
O514 O 0.06636 0.55121 0.79087 0.0
N515 N 0.07233 0.59453 0.71548 0.0
C516 C 0.09465 0.61312 0.66635 0.0
C517 C 0.07952 0.61659 0.65732 0.0
C518 C 0.06852 0.60695 0.68084 0.0
C519 C 0.08688 0.59021 0.71895 0.0
C520 C 0.09825 0.59945 0.6959 0.0
H521 H 0.05704 0.60952 0.67037 0.0
H522 H 0.0897 0.57962 0.7412 0.0
H523 H 0.03751 0.58598 0.63197 0.0
H524 H 0.06421 0.55205 0.55164 0.0
H525 H 0.08195 0.59653 0.96175 0.0
H526 H 0.07613 0.62679 0.63322 0.0
H527 H 0.10974 0.5959 0.70127 0.0
C528 C 0.21388 0.19228 0.44303 0.0
C529 C 0.21346 0.20432 0.40001 0.0
C530 C 0.20545 0.1793 0.43132 0.0
C531 C 0.18729 0.15153 0.39118 0.0
H532 H 0.1486 0.16334 0.32565 0.0
C533 C 0.13816 0.11047 0.32991 0.0
C534 C 0.12371 0.11615 0.33942 0.0
C535 C 0.15065 0.11953 0.34224 0.0
C536 C 0.15928 0.15983 0.34463 0.0
H537 H 0.20526 0.21192 0.30891 0.0
H538 H 0.19131 0.18903 0.28637 0.0
H539 H 0.16837 0.18168 0.33147 0.0
H540 H 0.11089 0.13496 0.37497 0.0
H541 H 0.13253 0.15046 0.39896 0.0
H542 H 0.17771 0.12966 0.40617 0.0
C543 C 0.1976 0.18969 0.33026 0.0
C544 C 0.17078 0.17032 0.34679 0.0
C545 C 0.20572 0.20272 0.34262 0.0
C546 C 0.12194 0.13041 0.36656 0.0
C547 C 0.13433 0.13932 0.37975 0.0
C548 C 0.17567 0.14095 0.38907 0.0
C549 C 0.19663 0.17819 0.37611 0.0
C550 C 0.18493 0.16638 0.37023 0.0
C551 C 0.14879 0.1343 0.36477 0.0
C552 C 0.16147 0.14509 0.36657 0.0
H553 H 0.21963 0.19342 0.48809 0.0
H554 H 0.20495 0.17072 0.46775 0.0
H555 H 0.19807 0.14811 0.40934 0.0
H556 H 0.13978 0.09951 0.3086 0.0
H557 H 0.16164 0.11533 0.3303 0.0
C558 C 0.19974 0.79629 0.63848 0.0
C559 C 0.21119 0.7967 0.59306 0.0
C560 C 0.19382 0.80957 0.6628 0.0
C561 C 0.18497 0.84702 0.61441 0.0
H562 H 0.17392 0.8518 0.79149 0.0
C563 C 0.14082 0.89073 0.69529 0.0
C564 C 0.12999 0.88472 0.73649 0.0
C565 C 0.15401 0.88278 0.68276 0.0
C566 C 0.17693 0.85067 0.74185 0.0
H567 H 0.22579 0.8112 0.53852 0.0
H568 H 0.21497 0.83468 0.57987 0.0
H569 H 0.19186 0.83244 0.7614 0.0
H570 H 0.12472 0.86591 0.79819 0.0
H571 H 0.14738 0.85209 0.77587 0.0
H572 H 0.16927 0.86451 0.59416 0.0
C573 C 0.21081 0.82401 0.59722 0.0
C574 C 0.18727 0.83965 0.72477 0.0
C575 C 0.21701 0.81064 0.57389 0.0
C576 C 0.13279 0.87086 0.76606 0.0
C577 C 0.14591 0.86299 0.75378 0.0
C578 C 0.1745 0.85797 0.63143 0.0
C579 C 0.19901 0.82356 0.64127 0.0
C580 C 0.19095 0.83735 0.66066 0.0
C581 C 0.15664 0.86875 0.71161 0.0
C582 C 0.1699 0.85948 0.69507 0.0
H583 H 0.1951 0.78567 0.65407 0.0
H584 H 0.18462 0.80888 0.69613 0.0
H585 H 0.18755 0.84539 0.56456 0.0
H586 H 0.13899 0.9014 0.67179 0.0
H587 H 0.16209 0.88756 0.65022 0.0
C588 C 0.51484 0.89096 0.8325 0.0
C589 C 0.52882 0.88393 0.83753 0.0
C590 C 0.50247 0.88502 0.86471 0.0
C591 C 0.49113 0.86035 0.99595 0.0
H592 H 0.46068 0.84493 0.88249 0.0
C593 C 0.45835 0.80704 0.05021 0.0
C594 C 0.44393 0.80487 0.02583 0.0
C595 C 0.46636 0.82004 0.0359 0.0
C596 C 0.4688 0.84946 0.91544 0.0
H597 H 0.54117 0.86593 0.88259 0.0
H598 H 0.51977 0.85591 0.94037 0.0
H599 H 0.47918 0.86264 0.84246 0.0
H600 H 0.4263 0.81509 0.97232 0.0
H601 H 0.44021 0.83801 0.9483 0.0
H602 H 0.48102 0.84693 0.06623 0.0
C603 C 0.51827 0.86583 0.91116 0.0
C604 C 0.47941 0.8596 0.89234 0.0
C605 C 0.53047 0.87148 0.87784 0.0
C606 C 0.43744 0.81638 0.99152 0.0
C607 C 0.44544 0.82949 0.97748 0.0
C608 C 0.48037 0.85033 0.01688 0.0
C609 C 0.50409 0.87229 0.90372 0.0
C610 C 0.49101 0.86463 0.93176 0.0
C611 C 0.46011 0.83131 -0.00273 0.0
C612 C 0.4695 0.84428 0.97865 0.0
H613 H 0.51333 0.90053 0.80132 0.0
H614 H 0.49162 0.89014 0.85816 0.0
H615 H 0.49989 0.86413 0.0249 0.0
H616 H 0.46372 0.79847 0.07874 0.0
H617 H 0.47772 0.8209 0.05299 0.0
C618 C 0.51134 0.1113 0.17201 0.0
C619 C 0.52541 0.11817 0.1765 0.0
C620 C 0.49992 0.11815 0.13685 0.0
C621 C 0.49227 0.14456 0.00865 0.0
H622 H 0.45965 0.1601 0.1103 0.0
C623 C 0.46172 0.1985 0.9435 0.0
C624 C 0.44687 0.20089 0.96227 0.0
C625 C 0.46921 0.1854 0.96081 0.0
C626 C 0.4684 0.15557 0.08046 0.0
H627 H 0.53894 0.13696 0.1455 0.0
H628 H 0.51922 0.14859 0.08233 0.0
H629 H 0.47674 0.14171 0.15602 0.0
H630 H 0.42795 0.19095 0.00893 0.0
H631 H 0.44095 0.16781 0.03786 0.0
H632 H 0.48422 0.15852 0.93575 0.0
C633 C 0.51692 0.1381 0.1066 0.0
C634 C 0.4782 0.14504 0.10686 0.0
C635 C 0.52814 0.13151 0.14298 0.0
C636 C 0.43946 0.18955 0.99651 0.0
C637 C 0.44692 0.17626 0.01095 0.0
C638 C 0.48236 0.15492 0.9843 0.0
C639 C 0.50264 0.13166 0.10423 0.0
C640 C 0.49052 0.13992 0.07193 0.0
C641 C 0.46202 0.1742 0.99677 0.0
C642 C 0.47066 0.16101 0.0183 0.0
H643 H 0.509 0.10102 0.19779 0.0
H644 H 0.48895 0.11306 0.13577 0.0
H645 H 0.5017 0.14073 0.98322 0.0
H646 H 0.46779 0.20699 0.91719 0.0
H647 H 0.48087 0.18439 0.94811 0.0
C648 C 0.9724 0.78805 0.46878 0.0
C649 C 0.96074 0.7853 0.51199 0.0
C650 C 0.98275 0.79951 0.4802 0.0
C651 C 0.99828 0.82222 0.61141 0.0
H652 H 0.01411 0.84756 0.47593 0.0
C653 C 0.03601 0.8735 0.66345 0.0
C654 C 0.04855 0.87571 0.62433 0.0
C655 C 0.02514 0.86294 0.64741 0.0
C656 C 0.01009 0.84048 0.51416 0.0
H657 H 0.95045 0.79286 0.59964 0.0
H658 H 0.96842 0.81283 0.61941 0.0
H659 H 0.9948 0.8283 0.45203 0.0
H660 H 0.05923 0.86878 0.53656 0.0
H661 H 0.0403 0.85013 0.50898 0.0
H662 H 0.01354 0.83431 0.67351 0.0
C663 C 0.96978 0.80593 0.57741 0.0
C664 C 0.99873 0.82944 0.50047 0.0
C665 C 0.95947 0.79448 0.56606 0.0
C666 C 0.04979 0.86725 0.56808 0.0
C667 C 0.03887 0.85668 0.55194 0.0
C668 C 0.00959 0.83324 0.62506 0.0
C669 C 0.98166 0.80848 0.53504 0.0
C670 C 0.99302 0.82022 0.54902 0.0
C671 C 0.0265 0.85428 0.59184 0.0
C672 C 0.01524 0.84254 0.5767 0.0
H673 H 0.97378 0.78108 0.42701 0.0
H674 H 0.99185 0.80106 0.44694 0.0
H675 H 0.99435 0.81511 0.64973 0.0
H676 H 0.03477 0.87969 0.70746 0.0
H677 H 0.01565 0.86151 0.67876 0.0
C678 C 0.96268 0.21591 0.37583 0.0
C679 C 0.95186 0.21343 0.42327 0.0
C680 C 0.97329 0.20491 0.3616 0.0
C681 C 0.99306 0.17303 0.4307 0.0
H682 H 0.00174 0.16171 0.25598 0.0
C683 C 0.03399 0.12456 0.3701 0.0
C684 C 0.04307 0.12611 0.3161 0.0
C685 C 0.02252 0.13481 0.38205 0.0
C686 C 0.99913 0.16487 0.305 0.0
H687 H 0.94367 0.19716 0.49195 0.0
H688 H 0.96251 0.17821 0.46833 0.0
H689 H 0.98198 0.18052 0.27897 0.0
H690 H 0.04738 0.13962 0.23247 0.0
H691 H 0.02768 0.15782 0.2541 0.0
H692 H 0.01114 0.15783 0.45703 0.0
C693 C 0.96272 0.18872 0.44236 0.0
C694 C 0.98815 0.1756 0.3181 0.0
C695 C 0.95197 0.19964 0.45605 0.0
C696 C 0.04043 0.13808 0.27411 0.0
C697 C 0.02909 0.14846 0.28647 0.0
C698 C 0.00487 0.16246 0.41763 0.0
C699 C 0.97348 0.19125 0.39501 0.0
C700 C 0.985 0.17977 0.38107 0.0
C701 C 0.01999 0.14699 0.34071 0.0
C702 C 0.00805 0.15821 0.35458 0.0
H703 H 0.96316 0.22647 0.35038 0.0
H704 H 0.98157 0.20722 0.32538 0.0
H705 H 0.99099 0.17619 0.47965 0.0
H706 H 0.03567 0.11531 0.40283 0.0
H707 H 0.01557 0.13309 0.42353 0.0
C708 C 0.61316 0.13007 0.15459 0.0
C709 C 0.60435 0.13268 0.2087 0.0
C710 C 0.62452 0.14006 0.13791 0.0
C711 C 0.64765 0.1714 0.20144 0.0
H712 H 0.65489 0.1789 0.0225 0.0
C713 C 0.6972 0.2077 0.11782 0.0
C714 C 0.695 0.21713 0.0651 0.0
C715 C 0.68645 0.19704 0.13462 0.0
C716 C 0.65294 0.17708 0.07272 0.0
H717 H 0.60048 0.14773 0.2878 0.0
H718 H 0.62002 0.16547 0.25781 0.0
H719 H 0.63532 0.16155 0.05385 0.0
H720 H 0.67986 0.22293 0.9912 0.0
H721 H 0.66084 0.20459 0.01891 0.0
H722 H 0.66479 0.18747 0.22033 0.0
C723 C 0.61845 0.15552 0.22899 0.0
C724 C 0.64184 0.16692 0.09076 0.0
C725 C 0.6072 0.1454 0.24614 0.0
C726 C 0.68188 0.21562 0.02919 0.0
C727 C 0.67103 0.2051 0.04646 0.0
C728 C 0.65863 0.18171 0.1834 0.0
C729 C 0.62723 0.15301 0.17448 0.0
C730 C 0.63906 0.1639 0.15538 0.0
C731 C 0.67314 0.19569 0.09957 0.0
C732 C 0.66146 0.18467 0.11877 0.0
H733 H 0.61133 0.12022 0.1254 0.0
H734 H 0.63125 0.13754 0.09651 0.0
H735 H 0.64599 0.16925 0.25161 0.0
H736 H 0.70731 0.20851 0.14587 0.0
H737 H 0.68865 0.1898 0.17493 0.0
C738 C 0.60397 0.85439 0.87332 0.0
C739 C 0.60749 0.86512 0.82645 0.0
C740 C 0.61475 0.84426 0.89494 0.0
C741 C 0.64935 0.82559 0.84846 0.0
H742 H 0.65497 0.81935 0.02694 0.0
C743 C 0.69705 0.7885 0.94205 0.0
C744 C 0.69414 0.77927 0.99478 0.0
C745 C 0.68686 0.79954 0.92371 0.0
C746 C 0.65345 0.82083 0.97871 0.0
H747 H 0.62526 0.87357 0.76603 0.0
H748 H 0.6439 0.85556 0.80252 0.0
H749 H 0.63627 0.83728 0.99231 0.0
H750 H 0.6784 0.77439 0.06777 0.0
H751 H 0.66033 0.79341 0.03485 0.0
H752 H 0.66613 0.8089 0.83432 0.0
C753 C 0.63276 0.85506 0.82239 0.0
C754 C 0.64275 0.83112 0.95754 0.0
C755 C 0.62204 0.86532 0.80128 0.0
C756 C 0.68095 0.78144 0.02722 0.0
C757 C 0.67063 0.79238 0.00836 0.0
C758 C 0.65991 0.81518 0.86953 0.0
C759 C 0.62924 0.84448 0.86965 0.0
C760 C 0.64062 0.83362 0.89221 0.0
C761 C 0.6734 0.8015 0.95713 0.0
C762 C 0.66215 0.81268 0.93496 0.0
H763 H 0.59283 0.85366 0.89294 0.0
H764 H 0.61168 0.83608 0.93077 0.0
H765 H 0.64779 0.82715 0.7978 0.0
H766 H 0.70723 0.78714 0.91487 0.0
H767 H 0.68957 0.80653 0.88317 0.0
C768 C 0.71383 0.68494 0.96368 0.0
C769 C 0.70804 0.6996 0.96124 0.0
C770 C 0.70622 0.67311 0.93374 0.0
C771 C 0.67809 0.66493 0.81114 0.0
H772 H 0.66345 0.63354 0.923 0.0
C773 C 0.62228 0.63718 0.76747 0.0
C774 C 0.62081 0.62152 0.77297 0.0
C775 C 0.63527 0.64437 0.78706 0.0
C776 C 0.66769 0.64202 0.89077 0.0
H777 H 0.69042 0.71363 0.92347 0.0
H778 H 0.67749 0.69322 0.86964 0.0
H779 H 0.68326 0.65047 0.95961 0.0
H780 H 0.63164 0.60117 0.80605 0.0
H781 H 0.65453 0.61394 0.84131 0.0
H782 H 0.6622 0.65699 0.7433 0.0
C783 C 0.68774 0.69074 0.89493 0.0
C784 C 0.67903 0.65167 0.91163 0.0
C785 C 0.69509 0.70241 0.92588 0.0
C786 C 0.63246 0.61326 0.80106 0.0
C787 C 0.64555 0.62054 0.8211 0.0
C788 C 0.66686 0.65529 0.7903 0.0
C789 C 0.69301 0.67593 0.89968 0.0
C790 C 0.68387 0.6636 0.87287 0.0
C791 C 0.64718 0.63614 0.81287 0.0
C792 C 0.66107 0.64417 0.83088 0.0
H793 H 0.72374 0.68252 0.99133 0.0
H794 H 0.71048 0.66177 0.93809 0.0
H795 H 0.68176 0.67392 0.78008 0.0
H796 H 0.61347 0.64395 0.74689 0.0
H797 H 0.636 0.65646 0.78178 0.0
C798 C 0.63736 0.39185 0.17866 0.0
C799 C 0.63319 0.39891 0.12153 0.0
C800 C 0.64902 0.38143 0.17967 0.0
C801 C 0.68217 0.36763 0.09584 0.0
H802 H 0.66993 0.32857 0.15826 0.0
C803 C 0.71415 0.31289 0.03662 0.0
C804 C 0.7125 0.30052 0.0773 0.0
C805 C 0.70676 0.32639 0.04993 0.0
C806 C 0.6738 0.33944 0.14215 0.0
H807 H 0.63868 0.40128 0.02151 0.0
H808 H 0.65923 0.38323 0.02372 0.0
H809 H 0.65306 0.34972 0.16746 0.0
H810 H 0.70304 0.2927 0.16584 0.0
H811 H 0.69108 0.31649 0.19185 0.0
H812 H 0.703 0.35742 0.07099 0.0
C813 C 0.65334 0.38569 0.06747 0.0
C814 C 0.66402 0.35157 0.14711 0.0
C815 C 0.64151 0.39594 0.06621 0.0
C816 C 0.70437 0.30213 0.13373 0.0
C817 C 0.69736 0.31571 0.14801 0.0
C818 C 0.69213 0.35553 0.09193 0.0
C819 C 0.65695 0.37807 0.12387 0.0
C820 C 0.66801 0.36571 0.12321 0.0
C821 C 0.69784 0.32782 0.10487 0.0
C822 C 0.68799 0.34118 0.11419 0.0
H823 H 0.63135 0.394 0.2223 0.0
H824 H 0.65168 0.37578 0.22387 0.0
H825 H 0.68552 0.37848 0.07733 0.0
H826 H 0.72026 0.31184 0.99481 0.0
H827 H 0.70735 0.33533 0.01514 0.0
C828 C 0.0058 0.39316 0.43198 0.0
C829 C 0.01435 0.39638 0.37753 0.0
C830 C 0.99346 0.38271 0.42929 0.0
C831 C 0.98375 0.34853 0.34835 0.0
H832 H 0.94403 0.35399 0.41763 0.0
C833 C 0.94372 0.29872 0.35464 0.0
C834 C 0.93498 0.29706 0.40938 0.0
C835 C 0.95081 0.31234 0.34175 0.0
C836 C 0.95511 0.3522 0.39863 0.0
H837 H 0.0168 0.39168 0.27684 0.0
H838 H 0.99614 0.37308 0.27286 0.0
H839 H 0.96134 0.37522 0.41428 0.0
H840 H 0.92626 0.30828 0.49263 0.0
H841 H 0.93926 0.33189 0.47241 0.0
H842 H 0.97819 0.32548 0.33628 0.0
C843 C 0.99846 0.37871 0.31745 0.0
C844 C 0.96497 0.3644 0.39643 0.0
C845 C 0.01061 0.38934 0.31985 0.0
C846 C 0.93283 0.30942 0.44964 0.0
C847 C 0.94029 0.32295 0.4378 0.0
C848 C 0.97406 0.3363 0.35169 0.0
C849 C 0.99029 0.37513 0.37235 0.0
C850 C 0.97939 0.36263 0.37148 0.0
C851 C 0.94978 0.32445 0.38467 0.0
C852 C 0.9596 0.3379 0.37714 0.0
H853 H 0.00829 0.39848 0.47706 0.0
H854 H 0.98737 0.38007 0.47236 0.0
H855 H 0.99491 0.34682 0.32982 0.0
H856 H 0.94543 0.28931 0.32279 0.0
H857 H 0.95755 0.31316 0.29917 0.0
C858 C 0.95882 0.70443 0.60972 0.0
C859 C 0.94685 0.70296 0.56722 0.0
C860 C 0.96477 0.69184 0.63983 0.0
C861 C 0.97219 0.6529 0.61283 0.0
H862 H 0.98372 0.65311 0.79052 0.0
C863 C 0.01464 0.60943 0.71496 0.0
C864 C 0.02587 0.61573 0.75333 0.0
C865 C 0.002 0.61784 0.69858 0.0
C866 C 0.98061 0.65286 0.74079 0.0
H867 H 0.93142 0.6873 0.52375 0.0
H868 H 0.94228 0.66498 0.57525 0.0
H869 H 0.96662 0.67224 0.75062 0.0
H870 H 0.03239 0.63564 0.80597 0.0
H871 H 0.01068 0.65027 0.7767 0.0
H872 H 0.98694 0.63416 0.60181 0.0
C873 C 0.94684 0.67597 0.58575 0.0
C874 C 0.97074 0.66375 0.71815 0.0
C875 C 0.94063 0.68869 0.55659 0.0
C876 C 0.02399 0.63042 0.7763 0.0
C877 C 0.01141 0.63879 0.75997 0.0
C878 C 0.98221 0.64207 0.63534 0.0
C879 C 0.95906 0.67746 0.62719 0.0
C880 C 0.96684 0.66417 0.65355 0.0
C881 C 0.99961 0.63269 0.72042 0.0
C882 C 0.98696 0.64228 0.69911 0.0
H883 H 0.96377 0.71532 0.61895 0.0
H884 H 0.97429 0.69328 0.671 0.0
H885 H 0.96944 0.65306 0.56268 0.0
H886 H 0.01572 0.59811 0.69674 0.0
H887 H 0.9929 0.61276 0.66845 0.0
C888 C 0.45854 0.2931 0.11588 0.0
C889 C 0.46229 0.27948 0.0859 0.0
C890 C 0.46956 0.30373 0.13007 0.0
C891 C 0.49588 0.32171 0.18114 0.0
H892 H 0.52731 0.32727 0.05668 0.0
C893 C 0.54599 0.36158 0.2245 0.0
C894 C 0.55119 0.36994 0.17228 0.0
C895 C 0.53529 0.3503 0.21615 0.0
C896 C 0.51856 0.32597 0.09174 0.0
H897 H 0.48072 0.26636 0.04839 0.0
H898 H 0.49988 0.28455 0.07529 0.0
H899 H 0.5083 0.3083 0.03878 0.0
H900 H 0.54892 0.3733 0.07066 0.0
H901 H 0.53015 0.35384 0.05614 0.0
H902 H 0.50588 0.33979 0.23292 0.0
C903 C 0.48839 0.28718 0.08668 0.0
C904 C 0.50775 0.31491 0.08192 0.0
C905 C 0.47739 0.27662 0.07213 0.0
C906 C 0.54535 0.36687 0.11167 0.0
C907 C 0.5346 0.35568 0.10337 0.0
C908 C 0.50667 0.33284 0.19082 0.0
C909 C 0.4846 0.30099 0.11492 0.0
C910 C 0.49625 0.31263 0.12642 0.0
C911 C 0.52946 0.34719 0.15542 0.0
C912 C 0.51812 0.33516 0.14608 0.0
H913 H 0.44708 0.29563 0.12805 0.0
H914 H 0.4662 0.31427 0.1514 0.0
H915 H 0.48728 0.32017 0.21675 0.0
H916 H 0.55038 0.3636 0.27171 0.0
H917 H 0.53175 0.34386 0.25717 0.0
C918 C 0.45107 0.71454 0.84057 0.0
C919 C 0.45581 0.72646 0.87959 0.0
C920 C 0.46124 0.70374 0.81913 0.0
C921 C 0.5016 0.69709 0.79472 0.0
H922 H 0.49085 0.65497 0.80533 0.0
C923 C 0.54543 0.64995 0.77986 0.0
C924 C 0.54174 0.63666 0.74739 0.0
C925 C 0.53468 0.66102 0.79061 0.0
C926 C 0.49396 0.66668 0.80111 0.0
H927 H 0.47501 0.73621 0.92703 0.0
H928 H 0.49269 0.71751 0.88926 0.0
H929 H 0.47252 0.67413 0.83327 0.0
H930 H 0.52381 0.62463 0.70049 0.0
H931 H 0.50507 0.64411 0.71823 0.0
H932 H 0.52306 0.68969 0.76307 0.0
C933 C 0.48115 0.71663 0.87446 0.0
C934 C 0.48345 0.67767 0.81717 0.0
C935 C 0.47099 0.72738 0.89606 0.0
C936 C 0.52706 0.63479 0.72519 0.0
C937 C 0.51628 0.64588 0.73598 0.0
C938 C 0.51208 0.68612 0.77853 0.0
C939 C 0.4764 0.70465 0.83599 0.0
C940 C 0.48721 0.69299 0.81496 0.0
C941 C 0.51995 0.65911 0.76904 0.0
C942 C 0.50846 0.67078 0.78234 0.0
H943 H 0.4395 0.7136 0.82622 0.0
H944 H 0.45726 0.69474 0.78893 0.0
H945 H 0.50477 0.70881 0.79143 0.0
H946 H 0.55667 0.65185 0.79693 0.0
H947 H 0.53786 0.67097 0.8169 0.0
C948 C 0.19615 0.69978 0.51699 0.0
C949 C 0.19394 0.71415 0.54304 0.0
C950 C 0.18556 0.68844 0.52619 0.0
C951 C 0.16583 0.66473 0.58962 0.0
H952 H 0.12368 0.67381 0.57277 0.0
C953 C 0.11931 0.62582 0.68448 0.0
C954 C 0.10658 0.62376 0.64632 0.0
C955 C 0.13023 0.63628 0.66759 0.0
C956 C 0.13541 0.67107 0.57711 0.0
H957 H 0.1788 0.72798 0.59815 0.0
H958 H 0.16034 0.70818 0.61434 0.0
H959 H 0.14216 0.6933 0.55076 0.0
H960 H 0.09565 0.63084 0.55922 0.0
H961 H 0.11464 0.64928 0.53035 0.0
H962 H 0.15907 0.64252 0.61636 0.0
C963 C 0.17024 0.70569 0.58671 0.0
C964 C 0.14598 0.68226 0.56512 0.0
C965 C 0.18087 0.71698 0.57798 0.0
C966 C 0.10516 0.63231 0.59035 0.0
C967 C 0.11605 0.64285 0.57367 0.0
C968 C 0.15525 0.65357 0.60211 0.0
C969 C 0.17249 0.69128 0.5611 0.0
C970 C 0.1613 0.67924 0.57161 0.0
C971 C 0.12866 0.64501 0.61233 0.0
C972 C 0.13993 0.65664 0.59633 0.0
H973 H 0.20616 0.69724 0.49026 0.0
H974 H 0.18755 0.67747 0.50556 0.0
H975 H 0.17755 0.6621 0.59544 0.0
H976 H 0.12066 0.61965 0.72849 0.0
H977 H 0.13971 0.63785 0.69882 0.0
C978 C 0.18156 0.2836 0.3777 0.0
C979 C 0.19221 0.2862 0.42572 0.0
C980 C 0.17017 0.29397 0.36606 0.0
C981 C 0.14752 0.32244 0.44182 0.0
H982 H 0.14113 0.33827 0.27223 0.0
C983 C 0.10541 0.37016 0.39577 0.0
C984 C 0.09773 0.3704 0.33769 0.0
C985 C 0.11695 0.35988 0.40599 0.0
C986 C 0.14254 0.33378 0.31969 0.0
H987 H 0.19918 0.30208 0.49842 0.0
H988 H 0.17888 0.31978 0.4797 0.0
H989 H 0.16112 0.32019 0.29086 0.0
H990 H 0.09581 0.36001 0.24508 0.0
H991 H 0.11548 0.34156 0.26363 0.0
H992 H 0.1287 0.33546 0.47073 0.0
C993 C 0.1795 0.30968 0.45106 0.0
C994 C 0.15407 0.32351 0.33031 0.0
C995 C 0.19107 0.29946 0.46196 0.0
C996 C 0.10166 0.36008 0.29015 0.0
C997 C 0.11302 0.3496 0.30076 0.0
C998 C 0.13581 0.33249 0.43106 0.0
C999 C 0.16899 0.30704 0.40292 0.0
C1000 C 0.15671 0.31783 0.39153 0.0
C1001 C 0.12089 0.3494 0.35875 0.0
C1002 C 0.1332 0.3384 0.3699 0.0
H1003 H 0.18181 0.27341 0.34963 0.0
H1004 H 0.16209 0.29162 0.32907 0.0
H1005 H 0.14924 0.31806 0.48934 0.0
H1006 H 0.10271 0.37816 0.43284 0.0
H1007 H 0.12292 0.36037 0.45067 0.0
C1008 C 0.11015 0.02767 0.20299 0.0
C1009 C 0.11374 0.04295 0.19821 0.0
C1010 C 0.116 0.01735 0.15984 0.0
C1011 C 0.12588 0.01686 0.99599 0.0
H1012 H 0.13069 0.97368 0.02791 0.0
C1013 C 0.122 0.95453 0.86143 0.0
C1014 C 0.1082 0.95693 0.83143 0.0
C1015 C 0.12813 0.96562 0.90089 0.0
C1016 C 0.1297 0.98554 0.01713 0.0
H1017 H 0.12691 0.05943 0.14724 0.0
H1018 H 0.13709 0.04134 0.07075 0.0
H1019 H 0.13305 0.99176 0.11444 0.0
H1020 H 0.09039 0.97303 0.81625 0.0
H1021 H 0.10102 0.99226 0.88434 0.0
H1022 H 0.12182 0.01058 0.8993 0.0
C1023 C 0.12984 0.03732 0.1083 0.0
C1024 C 0.13093 0.99589 0.06684 0.0
C1025 C 0.12414 0.04764 0.15234 0.0
C1026 C 0.10102 0.97083 0.83901 0.0
C1027 C 0.1072 0.98192 0.87757 0.0
C1028 C 0.12464 0.00651 0.94634 0.0
C1029 C 0.12539 0.02215 0.11026 0.0
C1030 C 0.12833 0.01184 0.05614 0.0
C1031 C 0.12066 0.97936 0.91006 0.0
C1032 C 0.12577 0.99042 0.95823 0.0
H1033 H 0.10209 0.02383 0.2378 0.0
H1034 H 0.11217 0.00582 0.16236 0.0
H1035 H 0.12369 0.0286 0.98603 0.0
H1036 H 0.12774 0.94388 0.85654 0.0
H1037 H 0.13853 0.96333 0.9253 0.0
C1038 C 0.3575 0.77307 0.09484 0.0
C1039 C 0.37146 0.7802 0.09322 0.0
C1040 C 0.3461 0.77856 0.13346 0.0
C1041 C 0.32164 0.79514 0.20284 0.0
H1042 H 0.3333 0.80007 0.37908 0.0
C1043 C 0.27762 0.79341 0.3999 0.0
C1044 C 0.28101 0.78197 0.44361 0.0
C1045 C 0.28879 0.79921 0.36025 0.0
C1046 C 0.32987 0.79896 0.32993 0.0
H1047 H 0.38432 0.79898 0.12931 0.0
H1048 H 0.36433 0.80853 0.19792 0.0
H1049 H 0.35245 0.79862 0.29681 0.0
H1050 H 0.29876 0.7686 0.48445 0.0
H1051 H 0.31821 0.77881 0.41659 0.0
H1052 H 0.29913 0.79436 0.23633 0.0
C1053 C 0.36224 0.7987 0.16891 0.0
C1054 C 0.34083 0.79823 0.28273 0.0
C1055 C 0.37365 0.79327 0.12951 0.0
C1056 C 0.29588 0.77741 0.45106 0.0
C1057 C 0.30704 0.78334 0.41233 0.0
C1058 C 0.31068 0.7959 0.24999 0.0
C1059 C 0.34841 0.79127 0.17188 0.0
C1060 C 0.33685 0.79562 0.21906 0.0
C1061 C 0.30353 0.79383 0.36461 0.0
C1062 C 0.31472 0.79711 0.31436 0.0
H1063 H 0.35546 0.763 0.06722 0.0
H1064 H 0.33567 0.77242 0.13534 0.0
H1065 H 0.31823 0.79335 0.15402 0.0
H1066 H 0.26619 0.79701 0.39289 0.0
H1067 H 0.28577 0.80733 0.3241 0.0
C1068 C 0.54435 0.03228 0.32573 0.0
C1069 C 0.53876 0.0467 0.33764 0.0
C1070 C 0.53849 0.01986 0.35729 0.0
C1071 C 0.52339 0.01048 0.51087 0.0
H1072 H 0.52447 0.96995 0.43744 0.0
C1073 C 0.53187 0.95354 0.65332 0.0
C1074 C 0.54613 0.94828 0.63631 0.0
C1075 C 0.52489 0.96479 0.61701 0.0
C1076 C 0.5237 0.98102 0.45862 0.0
H1077 H 0.52235 0.05956 0.38996 0.0
H1078 H 0.51216 0.03767 0.44688 0.0
H1079 H 0.52211 0.99181 0.368 0.0
H1080 H 0.56403 0.95034 0.56733 0.0
H1081 H 0.5517 0.96933 0.50345 0.0
H1082 H 0.52594 0.99899 0.60128 0.0
C1083 C 0.52094 0.036 0.41224 0.0
C1084 C 0.52244 0.99353 0.41897 0.0
C1085 C 0.52667 0.04847 0.37947 0.0
C1086 C 0.55306 0.95413 0.5818 0.0
C1087 C 0.54598 0.96495 0.54492 0.0
C1088 C 0.52444 0.99732 0.55067 0.0
C1089 C 0.52705 0.0216 0.40245 0.0
C1090 C 0.52327 0.00871 0.44437 0.0
C1091 C 0.53192 0.97048 0.56231 0.0
C1092 C 0.5255 0.98287 0.52442 0.0
H1093 H 0.55373 0.03068 0.2939 0.0
H1094 H 0.54365 0.00902 0.34934 0.0
H1095 H 0.52405 0.02156 0.53192 0.0
H1096 H 0.52631 0.94923 0.69525 0.0
H1097 H 0.51409 0.96903 0.63145 0.0
C1098 C 0.37691 0.21377 0.85199 0.0
C1099 C 0.37495 0.22697 0.88767 0.0
C1100 C 0.36533 0.2083 0.81366 0.0
C1101 C 0.34345 0.20877 0.70126 0.0
H1102 H 0.30194 0.21217 0.75149 0.0
C1103 C 0.29719 0.22867 0.53706 0.0
C1104 C 0.28253 0.22348 0.54492 0.0
C1105 C 0.30866 0.22317 0.57523 0.0
C1106 C 0.31345 0.21078 0.73683 0.0
H1107 H 0.35917 0.24437 0.91376 0.0
H1108 H 0.33904 0.23485 0.84764 0.0
H1109 H 0.32147 0.21356 0.832 0.0
H1110 H 0.26843 0.20783 0.59603 0.0
H1111 H 0.28856 0.19834 0.66423 0.0
H1112 H 0.33545 0.20677 0.60566 0.0
C1113 C 0.34944 0.22866 0.84913 0.0
C1114 C 0.32464 0.21174 0.7829 0.0
C1115 C 0.36103 0.23421 0.88659 0.0
C1116 C 0.27969 0.21192 0.58876 0.0
C1117 C 0.29117 0.20658 0.628 0.0
C1118 C 0.33226 0.20788 0.65512 0.0
C1119 C 0.35153 0.21582 0.81128 0.0
C1120 C 0.33977 0.21138 0.76525 0.0
C1121 C 0.30568 0.21251 0.62289 0.0
C1122 C 0.31717 0.20951 0.67213 0.0
H1123 H 0.38755 0.20799 0.85179 0.0
H1124 H 0.36724 0.19838 0.78502 0.0
H1125 H 0.355 0.20849 0.68612 0.0
H1126 H 0.29965 0.23759 0.50355 0.0
H1127 H 0.31965 0.22811 0.57049 0.0
C1128 C 0.77699 0.29551 0.88576 0.0
C1129 C 0.7807 0.28348 0.92602 0.0
C1130 C 0.78775 0.3016 0.84476 0.0
C1131 C 0.80837 0.29999 0.72921 0.0
H1132 H 0.85066 0.30003 0.7683 0.0
C1133 C 0.85204 0.27554 0.56447 0.0
C1134 C 0.8668 0.28077 0.56501 0.0
C1135 C 0.84123 0.28225 0.60272 0.0
C1136 C 0.83891 0.30047 0.75633 0.0
H1137 H 0.79869 0.26925 0.95917 0.0
H1138 H 0.81739 0.27988 0.88889 0.0
H1139 H 0.83251 0.30105 0.85436 0.0
H1140 H 0.88172 0.29767 0.60308 0.0
H1141 H 0.86273 0.30942 0.67092 0.0
H1142 H 0.81478 0.29875 0.63129 0.0
C1143 C 0.80629 0.28469 0.88837 0.0
C1144 C 0.8285 0.3009 0.80578 0.0
C1145 C 0.79554 0.2785 0.92844 0.0
C1146 C 0.87038 0.29348 0.60158 0.0
C1147 C 0.85955 0.30012 0.64067 0.0
C1148 C 0.81879 0.2996 0.67974 0.0
C1149 C 0.80242 0.29592 0.84431 0.0
C1150 C 0.81313 0.29985 0.7929 0.0
C1151 C 0.84495 0.29428 0.64301 0.0
C1152 C 0.83417 0.29902 0.69292 0.0
H1153 H 0.76559 0.29949 0.88272 0.0
H1154 H 0.78445 0.31029 0.81156 0.0
H1155 H 0.79663 0.29914 0.71748 0.0
H1156 H 0.84897 0.26579 0.53655 0.0
H1157 H 0.83019 0.2773 0.6038 0.0
C1158 C 0.77767 0.69839 0.15154 0.0
C1159 C 0.77921 0.71201 0.11847 0.0
C1160 C 0.79007 0.69191 0.18177 0.0
C1161 C 0.81438 0.69191 0.28481 0.0
H1162 H 0.85465 0.69631 0.21995 0.0
C1163 C 0.86156 0.71723 0.42674 0.0
C1164 C 0.87644 0.71325 0.41522 0.0
C1165 C 0.85 0.71007 0.39444 0.0
C1166 C 0.84354 0.69458 0.23881 0.0
H1167 H 0.79486 0.72894 0.08663 0.0
H1168 H 0.81639 0.71763 0.13785 0.0
H1169 H 0.83369 0.69605 0.14627 0.0
H1170 H 0.89101 0.69814 0.36362 0.0
H1171 H 0.87068 0.68568 0.30574 0.0
H1172 H 0.82418 0.69136 0.37766 0.0
C1173 C 0.80576 0.71187 0.14098 0.0
C1174 C 0.8315 0.69456 0.19655 0.0
C1175 C 0.79341 0.71844 0.11201 0.0
C1176 C 0.87957 0.7013 0.37372 0.0
C1177 C 0.86797 0.69426 0.34038 0.0
C1178 C 0.82642 0.69195 0.3271 0.0
C1179 C 0.80418 0.69883 0.17805 0.0
C1180 C 0.81677 0.69409 0.21941 0.0
C1181 C 0.85308 0.69891 0.34903 0.0
C1182 C 0.84105 0.69415 0.30477 0.0
H1183 H 0.76678 0.6933 0.15749 0.0
H1184 H 0.78853 0.68186 0.21005 0.0
H1185 H 0.80317 0.69153 0.304 0.0
H1186 H 0.85888 0.72643 0.45852 0.0
H1187 H 0.83872 0.7141 0.4017 0.0
C1188 C 0.61869 0.55244 0.60294 0.0
C1189 C 0.60716 0.54799 0.64416 0.0
C1190 C 0.62451 0.54228 0.55855 0.0
C1191 C 0.62456 0.50197 0.51034 0.0
H1192 H 0.62074 0.51787 0.33942 0.0
C1193 C 0.60152 0.47913 0.26224 0.0
C1194 C 0.60823 0.46489 0.25994 0.0
C1195 C 0.60692 0.49013 0.30348 0.0
C1196 C 0.62203 0.51327 0.38681 0.0
H1197 H 0.5935 0.52931 0.67499 0.0
H1198 H 0.60377 0.51155 0.59882 0.0
H1199 H 0.62056 0.53499 0.42984 0.0
H1200 H 0.62647 0.4513 0.29597 0.0
H1201 H 0.63588 0.47058 0.3684 0.0
H1202 H 0.62491 0.48017 0.46772 0.0
C1203 C 0.60836 0.5228 0.60031 0.0
C1204 C 0.62209 0.5231 0.43863 0.0
C1205 C 0.60242 0.53298 0.64384 0.0
C1206 C 0.62109 0.46221 0.29651 0.0
C1207 C 0.62641 0.47319 0.33835 0.0
C1208 C 0.62453 0.49214 0.45855 0.0
C1209 C 0.61904 0.52747 0.55549 0.0
C1210 C 0.62271 0.5175 0.50109 0.0
C1211 C 0.61908 0.48711 0.34375 0.0
C1212 C 0.62263 0.49765 0.39639 0.0
H1213 H 0.62241 0.56402 0.6017 0.0
H1214 H 0.63276 0.54618 0.52476 0.0
H1215 H 0.62521 0.49734 0.5579 0.0
H1216 H 0.59162 0.48152 0.23449 0.0
H1217 H 0.6009 0.50066 0.30682 0.0
C1218 C 0.03189 0.54698 0.88131 0.0
C1219 C 0.04414 0.54249 0.8441 0.0
C1220 C 0.0259 0.53723 0.9269 0.0
C1221 C 0.02608 0.49753 0.9823 0.0
H1222 H 0.02558 0.51491 0.14876 0.0
C1223 C 0.04456 0.47721 0.23731 0.0
C1224 C 0.03828 0.46278 0.23893 0.0
C1225 C 0.03952 0.48784 0.19352 0.0
C1226 C 0.02546 0.50989 0.10184 0.0
H1227 H 0.05905 0.52402 0.82228 0.0
H1228 H 0.04857 0.50704 0.90104 0.0
H1229 H 0.02741 0.53127 0.05598 0.0
H1230 H 0.02102 0.44848 0.19937 0.0
H1231 H 0.01226 0.46707 0.12236 0.0
H1232 H 0.02519 0.47605 0.02573 0.0
C1233 C 0.04355 0.51803 0.8953 0.0
C1234 C 0.02638 0.51927 0.04865 0.0
C1235 C 0.04965 0.52781 0.85046 0.0
C1236 C 0.02606 0.45955 0.19934 0.0
C1237 C 0.02111 0.47014 0.15493 0.0
C1238 C 0.0251 0.4881 0.03299 0.0
C1239 C 0.03189 0.52276 0.93527 0.0
C1240 C 0.02738 0.51317 0.98971 0.0
C1241 C 0.02817 0.48421 0.15003 0.0
C1242 C 0.02544 0.49419 0.09465 0.0
H1243 H 0.02743 0.55825 0.87749 0.0
H1244 H 0.01687 0.54115 0.95687 0.0
H1245 H 0.02662 0.49248 0.9355 0.0
H1246 H 0.05396 0.48003 0.26742 0.0
H1247 H 0.0453 0.4985 0.19071 0.0
C1248 C 0.11629 0.07291 -0.00035 0.0
C1249 C 0.10313 0.07944 0.02285 0.0
C1250 C 0.11651 0.06611 0.94253 0.0
C1251 C 0.09188 0.05395 0.80853 0.0
H1252 H 0.12629 0.06474 0.70661 0.0
C1253 C 0.09083 0.04702 0.53736 0.0
C1254 C 0.09591 0.05969 0.50393 0.0
C1255 C 0.09401 0.04534 0.60199 0.0
C1256 C 0.1166 0.06162 0.73439 0.0
H1257 H 0.07978 0.08346 0.00463 0.0
H1258 H 0.08017 0.07231 0.90112 0.0
H1259 H 0.12661 0.06942 0.82011 0.0
H1260 H 0.1087 0.08027 0.5112 0.0
H1261 H 0.11397 0.07761 0.62366 0.0
H1262 H 0.0814 0.04734 0.72182 0.0
C1263 C 0.09029 0.07202 0.92922 0.0
C1264 C 0.11685 0.06409 0.79982 0.0
C1265 C 0.09006 0.0786 0.98943 0.0
C1266 C 0.10479 0.0703 0.53553 0.0
C1267 C 0.10785 0.06872 0.60012 0.0
C1268 C 0.09155 0.05167 0.74289 0.0
C1269 C 0.1036 0.06593 0.90452 0.0
C1270 C 0.10428 0.06079 0.83739 0.0
C1271 C 0.10223 0.05639 0.6345 0.0
C1272 C 0.1037 0.05601 0.70478 0.0
H1273 H 0.12642 0.07317 0.02769 0.0
H1274 H 0.12684 0.06119 0.92583 0.0
H1275 H 0.08215 0.05091 0.83624 0.0
H1276 H 0.08416 0.03856 0.51374 0.0
H1277 H 0.08974 0.03558 0.62677 0.0
C1278 C 0.22772 0.77766 0.2049 0.0
C1279 C 0.23771 0.77749 0.25631 0.0
C1280 C 0.23297 0.77915 0.14282 0.0
C1281 C 0.24634 0.78874 0.01724 0.0
H1282 H 0.27819 0.76144 0.97263 0.0
C1283 C 0.26172 0.77906 0.75807 0.0
C1284 C 0.26154 0.76377 0.74121 0.0
C1285 C 0.26235 0.78336 0.82189 0.0
C1286 C 0.26939 0.76924 0.98517 0.0
H1287 H 0.26104 0.77952 0.28288 0.0
H1288 H 0.27021 0.7819 0.17425 0.0
H1289 H 0.27173 0.76461 0.08204 0.0
H1290 H 0.26263 0.74104 0.77857 0.0
H1291 H 0.26379 0.74851 0.88915 0.0
H1292 H 0.24342 0.79271 0.92023 0.0
C1293 C 0.25832 0.78071 0.18214 0.0
C1294 C 0.26576 0.77113 0.04674 0.0
C1295 C 0.25306 0.77926 0.24432 0.0
C1296 C 0.26288 0.75291 0.78944 0.0
C1297 C 0.26358 0.75721 0.85308 0.0
C1298 C 0.25 0.78688 0.95571 0.0
C1299 C 0.24834 0.7805 0.13074 0.0
C1300 C 0.25386 0.78052 0.06441 0.0
C1301 C 0.26292 0.77245 0.87006 0.0
C1302 C 0.26119 0.77668 0.93772 0.0
H1303 H 0.21586 0.77618 0.21237 0.0
H1304 H 0.22502 0.77868 0.10408 0.0
H1305 H 0.23726 0.79622 0.02965 0.0
H1306 H 0.26107 0.78773 0.72213 0.0
H1307 H 0.26202 0.7952 0.83364 0.0
C1308 C 0.55155 0.93433 0.99801 0.0
C1309 C 0.56588 0.93373 0.97115 0.0
C1310 C 0.54959 0.93267 0.06113 0.0
C1311 C 0.54824 0.91735 0.18948 0.0
H1312 H 0.57764 0.93117 0.31127 0.0
C1313 C 0.55148 0.89307 0.4432 0.0
C1314 C 0.55534 0.90289 0.49263 0.0
C1315 C 0.55231 0.89782 0.37993 0.0
C1316 C 0.56919 0.92737 0.27817 0.0
H1317 H 0.58945 0.93138 0.99205 0.0
H1318 H 0.58612 0.92832 0.10324 0.0
H1319 H 0.57931 0.93931 0.2013 0.0
H1320 H 0.56262 0.92548 0.51506 0.0
H1321 H 0.56374 0.93391 0.40542 0.0
H1322 H 0.53789 0.90573 0.26674 0.0
C1323 C 0.57634 0.93036 0.07425 0.0
C1324 C 0.57026 0.9319 0.21484 0.0
C1325 C 0.57826 0.93209 0.0089 0.0
C1326 C 0.55993 0.91756 0.47782 0.0
C1327 C 0.56056 0.92239 0.41486 0.0
C1328 C 0.54707 0.91295 0.253 0.0
C1329 C 0.56197 0.93031 0.10104 0.0
C1330 C 0.55995 0.92676 0.1695 0.0
C1331 C 0.5568 0.91258 0.36505 0.0
C1332 C 0.55766 0.91772 0.29794 0.0
H1333 H 0.54182 0.93568 0.96805 0.0
H1334 H 0.53839 0.93298 0.08037 0.0
H1335 H 0.54019 0.91302 0.15576 0.0
H1336 H 0.54792 0.88171 0.45362 0.0
H1337 H 0.54957 0.88988 0.34275 0.0
C1338 C 0.42589 0.21653 0.22834 0.0
C1339 C 0.41063 0.21713 0.21288 0.0
C1340 C 0.43039 0.21371 0.29064 0.0
C1341 C 0.41796 0.20224 0.4511 0.0
H1342 H 0.44147 0.23646 0.50559 0.0
C1343 C 0.41561 0.22532 0.70498 0.0
C1344 C 0.42792 0.2331 0.72968 0.0
C1345 C 0.41599 0.21968 0.64318 0.0
C1346 C 0.43527 0.22657 0.49153 0.0
H1347 H 0.38824 0.21377 0.24893 0.0
H1348 H 0.3961 0.20903 0.35824 0.0
H1349 H 0.43788 0.23191 0.39328 0.0
H1350 H 0.45058 0.24027 0.71159 0.0
H1351 H 0.45153 0.22998 0.60409 0.0
H1352 H 0.4151 0.19709 0.54969 0.0
C1353 C 0.40456 0.21073 0.32213 0.0
C1354 C 0.43319 0.22398 0.42689 0.0
C1355 C 0.40004 0.21362 0.25982 0.0
C1356 C 0.44086 0.23457 0.6928 0.0
C1357 C 0.44136 0.22867 0.63139 0.0
C1358 C 0.42022 0.20471 0.516 0.0
C1359 C 0.41974 0.21138 0.33852 0.0
C1360 C 0.42414 0.21209 0.40611 0.0
C1361 C 0.4288 0.22149 0.60522 0.0
C1362 C 0.42847 0.21722 0.53698 0.0
H1363 H 0.43434 0.21924 0.19347 0.0
H1364 H 0.44217 0.21416 0.30208 0.0
H1365 H 0.41103 0.19292 0.43611 0.0
H1366 H 0.40549 0.22414 0.73266 0.0
H1367 H 0.40599 0.21448 0.62444 0.0
C1368 C 0.12162 0.91642 0.47702 0.0
C1369 C 0.11191 0.92843 0.49081 0.0
C1370 C 0.12533 0.91298 0.41407 0.0
C1371 C 0.11961 0.90214 0.27799 0.0
H1372 H 0.12323 0.93356 0.15125 0.0
C1373 C 0.09615 0.89678 0.02667 0.0
C1374 C 0.10252 0.90512 0.97905 0.0
C1375 C 0.10209 0.89765 0.08788 0.0
C1376 C 0.12259 0.92454 0.18571 0.0
H1377 H 0.09886 0.94643 0.44846 0.0
H1378 H 0.10538 0.94055 0.34011 0.0
H1379 H 0.12583 0.93977 0.26302 0.0
H1380 H 0.12074 0.92015 0.95395 0.0
H1381 H 0.13126 0.92117 0.05738 0.0
H1382 H 0.11599 0.88696 0.2006 0.0
C1383 C 0.1103 0.93389 0.3778 0.0
C1384 C 0.12393 0.92816 0.2499 0.0
C1385 C 0.10652 0.93725 0.44034 0.0
C1386 C 0.11551 0.91356 0.99094 0.0
C1387 C 0.1215 0.91425 0.04956 0.0
C1388 C 0.11834 0.89849 0.21362 0.0
C1389 C 0.11953 0.92158 0.36385 0.0
C1390 C 0.12176 0.91713 0.29673 0.0
C1391 C 0.11459 0.90673 0.10037 0.0
C1392 C 0.11915 0.90978 0.16695 0.0
H1393 H 0.12622 0.90954 0.51461 0.0
H1394 H 0.13255 0.90349 0.40461 0.0
H1395 H 0.11788 0.89339 0.31305 0.0
H1396 H 0.08635 0.88993 0.01909 0.0
H1397 H 0.09638 0.89181 0.12594 0.0
C1398 C 0.42426 0.78843 0.75091 0.0
C1399 C 0.4091 0.79021 0.76652 0.0
C1400 C 0.42907 0.79021 0.68832 0.0
C1401 C 0.41812 0.80256 0.52692 0.0
H1402 H 0.43684 0.76524 0.47499 0.0
C1403 C 0.41251 0.77902 0.27486 0.0
C1404 C 0.42398 0.77013 0.2495 0.0
C1405 C 0.4135 0.78448 0.3368 0.0
C1406 C 0.43198 0.77592 0.4884 0.0
H1407 H 0.38743 0.79671 0.73034 0.0
H1408 H 0.39577 0.79965 0.62058 0.0
H1409 H 0.43402 0.77077 0.58709 0.0
H1410 H 0.44578 0.76055 0.26729 0.0
H1411 H 0.44774 0.77036 0.37538 0.0
H1412 H 0.41576 0.80753 0.42791 0.0
C1413 C 0.40393 0.79689 0.65675 0.0
C1414 C 0.43036 0.77908 0.55285 0.0
C1415 C 0.39911 0.79504 0.71936 0.0
C1416 C 0.43667 0.76715 0.28641 0.0
C1417 C 0.43778 0.77279 0.34813 0.0
C1418 C 0.41989 0.79947 0.46224 0.0
C1419 C 0.41882 0.79386 0.64029 0.0
C1420 C 0.423 0.79219 0.5727 0.0
C1421 C 0.42609 0.78133 0.37443 0.0
C1422 C 0.42639 0.78587 0.44229 0.0
H1423 H 0.43226 0.78465 0.78597 0.0
H1424 H 0.44064 0.78795 0.67687 0.0
H1425 H 0.41252 0.81281 0.54112 0.0
H1426 H 0.40256 0.78137 0.24736 0.0
H1427 H 0.40414 0.79073 0.35581 0.0
C1428 C 0.55921 0.08985 0.55117 0.0
C1429 C 0.54601 0.08896 0.51588 0.0
C1430 C 0.55988 0.08372 0.61221 0.0
C1431 C 0.53502 0.07235 0.74394 0.0
H1432 H 0.57235 0.05873 0.817 0.0
C1433 C 0.54665 0.0758 0.00667 0.0
C1434 C 0.55631 0.0655 0.036 0.0
C1435 C 0.54399 0.07512 0.94408 0.0
C1436 C 0.56174 0.06218 0.79717 0.0
H1437 H 0.5235 0.0802 0.51368 0.0
H1438 H 0.52472 0.06901 0.6194 0.0
H1439 H 0.57084 0.06359 0.70343 0.0
H1440 H 0.57014 0.04587 0.02085 0.0
H1441 H 0.56531 0.04447 0.90899 0.0
H1442 H 0.52586 0.07073 0.83739 0.0
C1443 C 0.53439 0.07495 0.60155 0.0
C1444 C 0.56094 0.06522 0.73214 0.0
C1445 C 0.53366 0.08135 0.54113 0.0
C1446 C 0.56278 0.05405 -0.00077 0.0
C1447 C 0.56003 0.0533 0.93636 0.0
C1448 C 0.53576 0.0691 0.80866 0.0
C1449 C 0.54743 0.07629 0.63838 0.0
C1450 C 0.54773 0.07088 0.70518 0.0
C1451 C 0.55082 0.06399 0.90666 0.0
C1452 C 0.54928 0.06455 0.83649 0.0
H1453 H 0.56885 0.09561 0.53196 0.0
H1454 H 0.57002 0.08521 0.63942 0.0
H1455 H 0.52465 0.07674 0.72516 0.0
H1456 H 0.54171 0.08493 0.03331 0.0
H1457 H 0.53711 0.08376 0.92276 0.0
C1458 C 0.25287 0.22409 0.73909 0.0
C1459 C 0.23758 0.22613 0.72657 0.0
C1460 C 0.25799 0.22256 0.80137 0.0
C1461 C 0.26562 0.23196 0.93617 0.0
H1462 H 0.24282 0.21108 0.06346 0.0
C1463 C 0.26414 0.24992 0.19397 0.0
C1464 C 0.26272 0.23904 0.24205 0.0
C1465 C 0.26441 0.24572 0.13019 0.0
C1466 C 0.24949 0.21671 0.02771 0.0
H1467 H 0.21566 0.22776 0.7695 0.0
H1468 H 0.22458 0.2252 0.87835 0.0
H1469 H 0.23635 0.20782 0.95422 0.0
H1470 H 0.26164 0.21506 0.26048 0.0
H1471 H 0.26182 0.20775 0.14871 0.0
H1472 H 0.2785 0.24116 0.00979 0.0
C1473 C 0.23259 0.22458 0.83988 0.0
C1474 C 0.24568 0.21501 0.96631 0.0
C1475 C 0.22748 0.22611 0.77755 0.0
C1476 C 0.26238 0.22377 0.22476 0.0
C1477 C 0.26256 0.21956 0.16078 0.0
C1478 C 0.2694 0.23368 -0.00244 0.0
C1479 C 0.24792 0.223 0.85246 0.0
C1480 C 0.25339 0.22296 0.91887 0.0
C1481 C 0.26322 0.23053 0.11289 0.0
C1482 C 0.26109 0.22648 0.04527 0.0
H1483 H 0.26092 0.2237 0.7008 0.0
H1484 H 0.26984 0.22115 0.80959 0.0
H1485 H 0.27174 0.23828 0.90071 0.0
H1486 H 0.26429 0.26178 0.20507 0.0
H1487 H 0.26472 0.25445 0.09434 0.0
C1488 C 0.87982 0.25532 0.20773 0.0
C1489 C 0.88411 0.26571 0.25476 0.0
C1490 C 0.88032 0.25918 0.14353 0.0
C1491 C 0.90247 0.28205 0.03931 0.0
H1492 H 0.87447 0.26909 0.91265 0.0
C1493 C 0.91691 0.28496 0.77468 0.0
C1494 C 0.91261 0.27246 0.73838 0.0
C1495 C 0.91159 0.28676 0.83665 0.0
C1496 C 0.88245 0.27272 0.94814 0.0
H1497 H 0.89079 0.28893 0.27021 0.0
H1498 H 0.89214 0.2954 0.15801 0.0
H1499 H 0.86734 0.2679 0.02219 0.0
H1500 H 0.89966 0.25193 0.73838 0.0
H1501 H 0.89076 0.25475 0.84701 0.0
H1502 H 0.91791 0.28605 0.96619 0.0
C1503 C 0.88855 0.28421 0.17141 0.0
C1504 C 0.8783 0.27211 0.00963 0.0
C1505 C 0.88787 0.28042 0.23576 0.0
C1506 C 0.90301 0.26174 0.76522 0.0
C1507 C 0.89782 0.26345 0.82726 0.0
C1508 C 0.90669 0.28251 0.97792 0.0
C1509 C 0.88519 0.27349 0.12476 0.0
C1510 C 0.88842 0.27646 0.05704 0.0
C1511 C 0.90199 0.27601 0.86368 0.0
C1512 C 0.89686 0.27742 0.93049 0.0
H1513 H 0.87682 0.24391 0.2197 0.0
H1514 H 0.87777 0.25066 0.10844 0.0
H1515 H 0.91056 0.28529 0.07503 0.0
H1516 H 0.92409 0.29352 0.75463 0.0
H1517 H 0.91489 0.29666 0.8631 0.0
C1518 C 0.76155 0.7459 0.77932 0.0
C1519 C 0.76133 0.73388 0.82266 0.0
C1520 C 0.76112 0.74321 0.71405 0.0
C1521 C 0.74656 0.71527 0.60444 0.0
H1522 H 0.76607 0.73973 0.47644 0.0
C1523 C 0.73551 0.70699 0.3374 0.0
C1524 C 0.73357 0.72009 0.30105 0.0
C1525 C 0.74073 0.70785 0.39971 0.0
C1526 C 0.76048 0.73288 0.51173 0.0
H1527 H 0.76181 0.70961 0.83138 0.0
H1528 H 0.76098 0.7049 0.71713 0.0
H1529 H 0.77317 0.7424 0.58803 0.0
H1530 H 0.73548 0.74434 0.30142 0.0
H1531 H 0.7444 0.74591 0.41093 0.0
H1532 H 0.73357 0.70605 0.52882 0.0
C1533 C 0.7612 0.71641 0.73387 0.0
C1534 C 0.76459 0.73436 0.57546 0.0
C1535 C 0.76164 0.7191 0.7992 0.0
C1536 C 0.73696 0.73408 0.3283 0.0
C1537 C 0.74215 0.73495 0.39077 0.0
C1538 C 0.74244 0.71381 0.54086 0.0
C1539 C 0.76047 0.72844 0.69076 0.0
C1540 C 0.75751 0.72572 0.62253 0.0
C1541 C 0.74409 0.72183 0.42711 0.0
C1542 C 0.74919 0.72276 0.49395 0.0
H1543 H 0.76116 0.75742 0.79564 0.0
H1544 H 0.76041 0.75272 0.68204 0.0
H1545 H 0.74071 0.70865 0.63975 0.0
H1546 H 0.73333 0.69602 0.31731 0.0
H1547 H 0.74233 0.69753 0.42618 0.0
C1548 C 0.75001 0.28155 0.7393 0.0
C1549 C 0.73499 0.27817 0.75232 0.0
C1550 C 0.75489 0.28341 0.67686 0.0
C1551 C 0.76331 0.27455 0.54254 0.0
H1552 H 0.73893 0.29317 0.41218 0.0
C1553 C 0.76445 0.25702 0.28144 0.0
C1554 C 0.76226 0.26787 0.23372 0.0
C1555 C 0.76401 0.26104 0.34541 0.0
C1556 C 0.74601 0.28817 0.44814 0.0
H1557 H 0.71323 0.27455 0.71023 0.0
H1558 H 0.72176 0.27766 0.60086 0.0
H1559 H 0.7319 0.29576 0.52373 0.0
H1560 H 0.75909 0.29172 0.21637 0.0
H1561 H 0.75802 0.29864 0.32846 0.0
H1562 H 0.7772 0.26664 0.46685 0.0
C1563 C 0.72973 0.27906 0.63911 0.0
C1564 C 0.74189 0.2895 0.51189 0.0
C1565 C 0.72484 0.27721 0.70167 0.0
C1566 C 0.76045 0.28299 0.25172 0.0
C1567 C 0.7599 0.287 0.3159 0.0
C1568 C 0.7674 0.27318 0.47883 0.0
C1569 C 0.74485 0.28195 0.62605 0.0
C1570 C 0.75026 0.28235 0.55955 0.0
C1571 C 0.76132 0.27598 0.3633 0.0
C1572 C 0.75856 0.27962 0.43091 0.0
H1573 H 0.75804 0.28275 0.77735 0.0
H1574 H 0.76656 0.28587 0.66832 0.0
H1575 H 0.76995 0.26884 0.57815 0.0
H1576 H 0.76574 0.24526 0.26989 0.0
H1577 H 0.76495 0.25226 0.38089 0.0
C1578 C 0.93006 0.72032 0.17257 0.0
C1579 C 0.91997 0.72044 0.22364 0.0
C1580 C 0.92489 0.71912 0.11023 0.0
C1581 C 0.91163 0.70999 0.98635 0.0
H1582 H 0.87954 0.73707 0.9397 0.0
C1583 C 0.89524 0.7187 0.72523 0.0
C1584 C 0.89504 0.73392 0.7071 0.0
C1585 C 0.895 0.71468 0.78942 0.0
C1586 C 0.88844 0.72937 0.95211 0.0
H1587 H 0.89659 0.71859 0.24953 0.0
H1588 H 0.88757 0.71666 0.14047 0.0
H1589 H 0.88618 0.73396 0.04893 0.0
H1590 H 0.89367 0.75678 0.74251 0.0
H1591 H 0.8932 0.74979 0.85388 0.0
H1592 H 0.91441 0.70595 0.8869 0.0
C1593 C 0.89946 0.71772 0.14874 0.0
C1594 C 0.89215 0.72746 0.0136 0.0
C1595 C 0.90463 0.7189 0.21114 0.0
C1596 C 0.8937 0.74496 0.75448 0.0
C1597 C 0.89341 0.74095 0.81854 0.0
C1598 C 0.90788 0.71181 0.92245 0.0
C1599 C 0.90953 0.71798 0.09762 0.0
C1600 C 0.90409 0.71811 0.03115 0.0
C1601 C 0.89446 0.7258 0.83673 0.0
C1602 C 0.89655 0.72188 0.90457 0.0
H1603 H 0.94191 0.72161 0.18061 0.0
H1604 H 0.93291 0.71961 0.07176 0.0
H1605 H 0.92072 0.70248 -0.00382 0.0
H1606 H 0.89591 0.70989 0.68993 0.0
H1607 H 0.8956 0.7029 0.80209 0.0
C1608 C 0.61036 0.57436 0.44236 0.0
C1609 C 0.59811 0.58254 0.46535 0.0
C1610 C 0.60975 0.56754 0.38278 0.0
C1611 C 0.58407 0.5588 0.24771 0.0
H1612 H 0.61951 0.56633 0.14682 0.0
C1613 C 0.58242 0.55373 0.97852 0.0
C1614 C 0.5887 0.56607 0.94658 0.0
C1615 C 0.58543 0.55122 0.04036 0.0
C1616 C 0.60953 0.56411 0.17433 0.0
H1617 H 0.57544 0.58943 0.44687 0.0
H1618 H 0.57446 0.57818 0.34105 0.0
H1619 H 0.62028 0.57025 0.26084 0.0
H1620 H 0.60346 0.5852 0.95604 0.0
H1621 H 0.60848 0.58115 0.06567 0.0
H1622 H 0.57299 0.55389 0.16034 0.0
C1623 C 0.58444 0.57664 0.36928 0.0
C1624 C 0.61002 0.56615 0.24 0.0
C1625 C 0.585 0.58322 0.42945 0.0
C1626 C 0.59859 0.57551 0.97927 0.0
C1627 C 0.6015 0.5731 0.04112 0.0
C1628 C 0.58354 0.55694 0.18187 0.0
C1629 C 0.59695 0.569 0.34462 0.0
C1630 C 0.59713 0.56406 0.2772 0.0
C1631 C 0.5947 0.56116 0.07405 0.0
C1632 C 0.59611 0.56015 0.14421 0.0
H1633 H 0.62045 0.57338 0.47035 0.0
H1634 H 0.61943 0.56144 0.36602 0.0
H1635 H 0.57405 0.55673 0.27513 0.0
H1636 H 0.57497 0.54611 0.95402 0.0
H1637 H 0.58023 0.54176 0.06402 0.0
C1638 C 0.03732 0.43403 0.03531 0.0
C1639 C 0.04167 0.41917 0.04854 0.0
C1640 C 0.03762 0.43955 0.97545 0.0
C1641 C 0.05763 0.43432 0.82817 0.0
H1642 H 0.02388 0.45251 0.74191 0.0
C1643 C 0.06383 0.45269 0.57225 0.0
C1644 C 0.05376 0.4451 0.53237 0.0
C1645 C 0.06097 0.45397 0.6372 0.0
C1646 C 0.03341 0.44761 0.7658 0.0
H1647 H 0.04945 0.39831 0.00732 0.0
H1648 H 0.05018 0.40796 0.90087 0.0
H1649 H 0.02155 0.44486 0.85382 0.0
H1650 H 0.03201 0.43445 0.52817 0.0
H1651 H 0.02703 0.43669 0.64154 0.0
H1652 H 0.06945 0.43666 0.74069 0.0
C1653 C 0.0465 0.41533 0.93872 0.0
C1654 C 0.03209 0.44327 0.82955 0.0
C1655 C 0.04597 0.40976 -0.00169 0.0
C1656 C 0.04002 0.44033 0.55753 0.0
C1657 C 0.03714 0.44162 0.62259 0.0
C1658 C 0.05902 0.43884 0.76509 0.0
C1659 C 0.0425 0.43028 0.9257 0.0
C1660 C 0.04409 0.43624 0.86056 0.0
C1661 C 0.04796 0.44773 0.66341 0.0
C1662 C 0.04686 0.44524 0.73282 0.0
H1663 H 0.03381 0.44145 0.07324 0.0
H1664 H 0.0345 0.45111 0.96642 0.0
H1665 H 0.06707 0.42906 0.8514 0.0
H1666 H 0.07434 0.45683 0.55387 0.0
H1667 H 0.06936 0.45899 0.66755 0.0
C1668 C 0.60195 0.41175 0.50313 0.0
C1669 C 0.60594 0.42129 0.45286 0.0
C1670 C 0.60125 0.41724 0.56513 0.0
C1671 C 0.61459 0.44561 0.67455 0.0
H1672 H 0.57734 0.43771 0.76242 0.0
C1673 C 0.60648 0.44228 0.94643 0.0
C1674 C 0.59253 0.4465 0.97137 0.0
C1675 C 0.60936 0.44372 0.88142 0.0
C1676 C 0.58772 0.44026 0.73832 0.0
H1677 H 0.61307 0.44383 0.42805 0.0
H1678 H 0.61206 0.45341 0.53731 0.0
H1679 H 0.58011 0.43029 0.65173 0.0
H1680 H 0.57152 0.45738 0.94954 0.0
H1681 H 0.57653 0.45981 0.83595 0.0
H1682 H 0.62238 0.45504 0.76248 0.0
C1683 C 0.60932 0.44174 0.52833 0.0
C1684 C 0.58935 0.43584 0.67522 0.0
C1685 C 0.6098 0.4363 0.46603 0.0
C1686 C 0.58221 0.45368 0.93132 0.0
C1687 C 0.58508 0.4551 0.86642 0.0
C1688 C 0.61304 0.44985 0.73832 0.0
C1689 C 0.60474 0.43232 0.5781 0.0
C1690 C 0.60286 0.43822 0.64318 0.0
C1691 C 0.59836 0.44941 0.84041 0.0
C1692 C 0.59963 0.44702 0.77097 0.0
H1693 H 0.59885 0.40019 0.49418 0.0
H1694 H 0.5978 0.40975 0.60299 0.0
H1695 H 0.62511 0.44755 0.65056 0.0
H1696 H 0.61468 0.43673 0.97594 0.0
H1697 H 0.61969 0.4392 0.86265 0.0
C1698 C 0.04199 0.56049 0.4634 0.0
C1699 C 0.04064 0.57141 0.5113 0.0
C1700 C 0.03764 0.56363 0.40121 0.0
C1701 C 0.0265 0.57118 0.27083 0.0
H1702 H 0.03893 0.61106 0.21928 0.0
C1703 C 0.03821 0.58437 0.0081 0.0
C1704 C 0.05155 0.59232 -0.0027 0.0
C1705 C 0.03193 0.58374 0.06888 0.0
C1706 C 0.03543 0.59985 0.23276 0.0
H1707 H 0.03211 0.59373 0.53201 0.0
H1708 H 0.0239 0.59893 0.42429 0.0
H1709 H 0.0364 0.60532 0.33124 0.0
H1710 H 0.06818 0.6066 0.04153 0.0
H1711 H 0.05778 0.60489 0.14735 0.0
H1712 H 0.027 0.56531 0.17252 0.0
C1713 C 0.02892 0.58812 0.43435 0.0
C1714 C 0.0337 0.59661 0.29724 0.0
C1715 C 0.03351 0.58506 0.49655 0.0
C1716 C 0.05808 0.60013 0.04818 0.0
C1717 C 0.05191 0.59937 0.10893 0.0
C1718 C 0.02853 0.57434 0.20637 0.0
C1719 C 0.03153 0.5777 0.38532 0.0
C1720 C 0.02986 0.58203 0.31728 0.0
C1721 C 0.03891 0.59093 0.12041 0.0
C1722 C 0.03366 0.58854 0.18677 0.0
H1723 H 0.04698 0.54967 0.47315 0.0
H1724 H 0.03996 0.55529 0.36512 0.0
H1725 H 0.02308 0.55995 0.28431 0.0
H1726 H 0.03287 0.57821 0.9728 0.0
H1727 H 0.0218 0.57731 0.07569 0.0
loop_
_geom_bond_atom_site_label_1
_geom_bond_atom_site_label_2
_geom_bond_distance
_geom_bond_site_symmetry_2
_ccdc_geom_bond_type
C0 C1 1.351 . S
C0 N3 1.368 . S
C0 H5 0.931 . S
C1 C0 1.351 . S
C1 N2 1.373 . S
C1 H29 0.930 . S
N2 C1 1.373 . S
N2 C4 1.340 . S
N3 C0 1.368 . S
N3 C4 1.321 . S
N3 Co6 2.135 . S
C4 N2 1.340 . S
C4 N3 1.321 . S
C4 H28 0.930 . S
H5 C0 0.931 . S
Co6 N3 2.135 . S
Co6 N9 2.121 . S
Co6 O14 2.055 . S
Co6 O17 2.039 . S
Co6 N20 2.140 . S
C7 O8 1.227 . S
C7 O17 1.265 . S
O8 C7 1.227 . S
N9 Co6 2.121 . S
N9 C11 1.375 . S
N9 C12 1.313 . S
C10 C11 1.338 . S
C10 N13 1.377 . S
C10 H30 0.930 . S
C11 N9 1.375 . S
C11 C10 1.338 . S
C11 H15 0.931 . S
C12 N9 1.313 . S
C12 N13 1.344 . S
C12 H16 0.930 . S
N13 C10 1.377 . S
N13 C12 1.344 . S
O14 Co6 2.055 . S
O14 C18 1.253 . S
H15 C11 0.931 . S
H16 C12 0.930 . S
O17 Co6 2.039 . S
O17 C7 1.265 . S
C18 O14 1.253 . S
C18 O19 1.227 . S
O19 C18 1.227 . S
N20 Co6 2.140 . S
N20 C23 1.346 . S
N20 C24 1.345 . S
C21 C22 1.387 . S
C21 C25 1.391 . S
C22 C21 1.387 . S
C22 C23 1.369 . S
C22 H31 0.929 . S
C23 N20 1.346 . S
C23 C22 1.369 . S
C23 H26 0.928 . S
C24 N20 1.345 . S
C24 C25 1.371 . S
C24 H27 0.931 . S
C25 C21 1.391 . S
C25 C24 1.371 . S
C25 H32 0.930 . S
H26 C23 0.928 . S
H27 C24 0.931 . S
H28 C4 0.930 . S
H29 C1 0.930 . S
H30 C10 0.930 . S
H31 C22 0.929 . S
H32 C25 0.930 . S
C33 C34 1.351 . S
C33 N36 1.368 . S
C33 H38 0.931 . S
C34 C33 1.351 . S
C34 N35 1.373 . S
C34 H62 0.930 . S
N35 C34 1.373 . S
N35 C37 1.340 . S
N36 C33 1.368 . S
N36 C37 1.321 . S
N36 Co39 2.135 . S
C37 N35 1.340 . S
C37 N36 1.321 . S
C37 H61 0.930 . S
H38 C33 0.931 . S
Co39 N36 2.135 . S
Co39 N42 2.121 . S
Co39 O47 2.055 . S
Co39 O50 2.039 . S
Co39 N53 2.140 . S
C40 O41 1.227 . S
C40 O50 1.265 . S
O41 C40 1.227 . S
N42 Co39 2.121 . S
N42 C44 1.375 . S
N42 C45 1.313 . S
C43 C44 1.338 . S
C43 N46 1.377 . S
C43 H63 0.930 . S
C44 N42 1.375 . S
C44 C43 1.338 . S
C44 H48 0.931 . S
C45 N42 1.313 . S
C45 N46 1.344 . S
C45 H49 0.930 . S
N46 C43 1.377 . S
N46 C45 1.344 . S
O47 Co39 2.055 . S
O47 C51 1.253 . S
H48 C44 0.931 . S
H49 C45 0.930 . S
O50 Co39 2.039 . S
O50 C40 1.265 . S
C51 O47 1.253 . S
C51 O52 1.227 . S
O52 C51 1.227 . S
N53 Co39 2.140 . S
N53 C56 1.346 . S
N53 C57 1.345 . S
C54 C55 1.387 . S
C54 C58 1.391 . S
C55 C54 1.387 . S
C55 C56 1.369 . S
C55 H64 0.929 . S
C56 N53 1.346 . S
C56 C55 1.369 . S
C56 H59 0.928 . S
C57 N53 1.345 . S
C57 C58 1.371 . S
C57 H60 0.931 . S
C58 C54 1.391 . S
C58 C57 1.371 . S
C58 H65 0.930 . S
H59 C56 0.928 . S
H60 C57 0.931 . S
H61 C37 0.930 . S
H62 C34 0.930 . S
H63 C43 0.930 . S
H64 C55 0.929 . S
H65 C58 0.930 . S
C66 C67 1.351 . S
C66 N69 1.368 . S
C66 H71 0.931 . S
C67 C66 1.351 . S
C67 N68 1.373 . S
C67 H95 0.930 . S
N68 C67 1.373 . S
N68 C70 1.340 . S
N69 C66 1.368 . S
N69 C70 1.321 . S
N69 Co72 2.135 . S
C70 N68 1.340 . S
C70 N69 1.321 . S
C70 H94 0.930 . S
H71 C66 0.931 . S
Co72 N69 2.135 . S
Co72 N75 2.121 . S
Co72 O80 2.055 . S
Co72 O83 2.039 . S
Co72 N86 2.140 . S
C73 O74 1.227 . S
C73 O83 1.265 . S
O74 C73 1.227 . S
N75 Co72 2.121 . S
N75 C77 1.375 . S
N75 C78 1.313 . S
C76 C77 1.338 . S
C76 N79 1.377 . S
C76 H96 0.930 . S
C77 N75 1.375 . S
C77 C76 1.338 . S
C77 H81 0.931 . S
C78 N75 1.313 . S
C78 N79 1.344 . S
C78 H82 0.930 . S
N79 C76 1.377 . S
N79 C78 1.344 . S
O80 Co72 2.055 . S
O80 C84 1.253 . S
H81 C77 0.931 . S
H82 C78 0.930 . S
O83 Co72 2.039 . S
O83 C73 1.265 . S
C84 O80 1.253 . S
C84 O85 1.227 . S
O85 C84 1.227 . S
N86 Co72 2.140 . S
N86 C89 1.346 . S
N86 C90 1.345 . S
C87 C88 1.387 . S
C87 C91 1.391 . S
C88 C87 1.387 . S
C88 C89 1.369 . S
C88 H97 0.929 . S
C89 N86 1.346 . S
C89 C88 1.369 . S
C89 H92 0.928 . S
C90 N86 1.345 . S
C90 C91 1.371 . S
C90 H93 0.931 . S
C91 C87 1.391 . S
C91 C90 1.371 . S
C91 H98 0.930 . S
H92 C89 0.928 . S
H93 C90 0.931 . S
H94 C70 0.930 . S
H95 C67 0.930 . S
H96 C76 0.930 . S
H97 C88 0.929 . S
H98 C91 0.930 . S
C99 C100 1.351 . S
C99 N102 1.368 . S
C99 H104 0.931 . S
C100 C99 1.351 . S
C100 N101 1.373 . S
C100 H128 0.930 . S
N101 C100 1.373 . S
N101 C103 1.340 . S
N102 C99 1.368 . S
N102 C103 1.321 . S
N102 Co105 2.135 1_554 S
C103 N101 1.340 . S
C103 N102 1.321 . S
C103 H127 0.930 . S
H104 C99 0.931 . S
Co105 N102 2.135 1_556 S
Co105 N108 2.121 . S
Co105 O113 2.055 . S
Co105 O116 2.039 1_556 S
Co105 N119 2.140 1_556 S
C106 O107 1.227 . S
C106 O116 1.265 . S
O107 C106 1.227 . S
N108 Co105 2.121 . S
N108 C110 1.375 . S
N108 C111 1.313 . S
C109 C110 1.338 . S
C109 N112 1.377 . S
C109 H129 0.930 . S
C110 N108 1.375 . S
C110 C109 1.338 . S
C110 H114 0.931 . S
C111 N108 1.313 . S
C111 N112 1.344 . S
C111 H115 0.930 . S
N112 C109 1.377 . S
N112 C111 1.344 . S
O113 Co105 2.055 . S
O113 C117 1.253 . S
H114 C110 0.931 . S
H115 C111 0.930 . S
O116 Co105 2.039 1_554 S
O116 C106 1.265 . S
C117 O113 1.253 . S
C117 O118 1.227 . S
O118 C117 1.227 . S
N119 Co105 2.140 1_554 S
N119 C122 1.346 . S
N119 C123 1.345 1_554 S
C120 C121 1.387 . S
C120 C124 1.391 1_554 S
C121 C120 1.387 . S
C121 C122 1.369 . S
C121 H130 0.929 . S
C122 N119 1.346 . S
C122 C121 1.369 . S
C122 H125 0.928 . S
C123 N119 1.345 1_556 S
C123 C124 1.371 . S
C123 H126 0.931 . S
C124 C120 1.391 1_556 S
C124 C123 1.371 . S
C124 H131 0.930 . S
H125 C122 0.928 . S
H126 C123 0.931 . S
H127 C103 0.930 . S
H128 C100 0.930 . S
H129 C109 0.930 . S
H130 C121 0.929 . S
H131 C124 0.930 . S
C132 C133 1.351 . S
C132 N135 1.368 . S
C132 H137 0.931 . S
C133 C132 1.351 . S
C133 N134 1.373 . S
C133 H161 0.930 . S
N134 C133 1.373 . S
N134 C136 1.340 . S
N135 C132 1.368 . S
N135 C136 1.321 . S
N135 Co138 2.135 . S
C136 N134 1.340 . S
C136 N135 1.321 . S
C136 H160 0.930 . S
H137 C132 0.931 . S
Co138 N135 2.135 . S
Co138 N141 2.121 . S
Co138 O146 2.055 . S
Co138 O149 2.039 . S
Co138 N152 2.140 . S
C139 O140 1.227 . S
C139 O149 1.265 . S
O140 C139 1.227 . S
N141 Co138 2.121 . S
N141 C143 1.375 . S
N141 C144 1.313 . S
C142 C143 1.338 . S
C142 N145 1.377 . S
C142 H162 0.930 . S
C143 N141 1.375 . S
C143 C142 1.338 . S
C143 H147 0.931 . S
C144 N141 1.313 . S
C144 N145 1.344 . S
C144 H148 0.930 . S
N145 C142 1.377 . S
N145 C144 1.344 . S
O146 Co138 2.055 . S
O146 C150 1.253 . S
H147 C143 0.931 . S
H148 C144 0.930 . S
O149 Co138 2.039 . S
O149 C139 1.265 . S
C150 O146 1.253 . S
C150 O151 1.227 . S
O151 C150 1.227 . S
N152 Co138 2.140 . S
N152 C155 1.346 . S
N152 C156 1.345 . S
C153 C154 1.387 . S
C153 C157 1.391 . S
C154 C153 1.387 . S
C154 C155 1.369 . S
C154 H163 0.929 . S
C155 N152 1.346 . S
C155 C154 1.369 . S
C155 H158 0.928 . S
C156 N152 1.345 . S
C156 C157 1.371 . S
C156 H159 0.931 . S
C157 C153 1.391 . S
C157 C156 1.371 . S
C157 H164 0.930 . S
H158 C155 0.928 . S
H159 C156 0.931 . S
H160 C136 0.930 . S
H161 C133 0.930 . S
H162 C142 0.930 . S
H163 C154 0.929 . S
H164 C157 0.930 . S
C165 C166 1.351 . S
C165 N168 1.368 . S
C165 H170 0.931 . S
C166 C165 1.351 . S
C166 N167 1.373 . S
C166 H194 0.930 . S
N167 C166 1.373 . S
N167 C169 1.340 . S
N168 C165 1.368 . S
N168 C169 1.321 . S
N168 Co171 2.135 1_556 S
C169 N167 1.340 . S
C169 N168 1.321 . S
C169 H193 0.930 . S
H170 C165 0.931 . S
Co171 N168 2.135 1_554 S
Co171 N174 2.121 . S
Co171 O179 2.055 . S
Co171 O182 2.039 1_554 S
Co171 N185 2.140 1_554 S
C172 O173 1.227 . S
C172 O182 1.265 . S
O173 C172 1.227 . S
N174 Co171 2.121 . S
N174 C176 1.375 . S
N174 C177 1.313 . S
C175 C176 1.338 . S
C175 N178 1.377 . S
C175 H195 0.930 . S
C176 N174 1.375 . S
C176 C175 1.338 . S
C176 H180 0.931 . S
C177 N174 1.313 . S
C177 N178 1.344 . S
C177 H181 0.930 . S
N178 C175 1.377 . S
N178 C177 1.344 . S
O179 Co171 2.055 . S
O179 C183 1.253 . S
H180 C176 0.931 . S
H181 C177 0.930 . S
O182 Co171 2.039 1_556 S
O182 C172 1.265 . S
C183 O179 1.253 . S
C183 O184 1.227 . S
O184 C183 1.227 . S
N185 Co171 2.140 1_556 S
N185 C188 1.346 . S
N185 C189 1.345 1_556 S
C186 C187 1.387 . S
C186 C190 1.391 1_556 S
C187 C186 1.387 . S
C187 C188 1.369 . S
C187 H196 0.929 . S
C188 N185 1.346 . S
C188 C187 1.369 . S
C188 H191 0.928 . S
C189 N185 1.345 1_554 S
C189 C190 1.371 . S
C189 H192 0.931 . S
C190 C186 1.391 1_554 S
C190 C189 1.371 . S
C190 H197 0.930 . S
H191 C188 0.928 . S
H192 C189 0.931 . S
H193 C169 0.930 . S
H194 C166 0.930 . S
H195 C175 0.930 . S
H196 C187 0.929 . S
H197 C190 0.930 . S
C198 C199 1.351 . S
C198 N201 1.368 . S
C198 H203 0.931 . S
C199 C198 1.351 . S
C199 N200 1.373 . S
C199 H227 0.930 . S
N200 C199 1.373 . S
N200 C202 1.340 . S
N201 C198 1.368 . S
N201 C202 1.321 . S
N201 Co204 2.135 . S
C202 N200 1.340 . S
C202 N201 1.321 . S
C202 H226 0.930 . S
H203 C198 0.931 . S
Co204 N201 2.135 . S
Co204 N207 2.121 . S
Co204 O212 2.055 . S
Co204 O215 2.039 . S
Co204 N218 2.140 . S
C205 O206 1.227 . S
C205 O215 1.265 . S
O206 C205 1.227 . S
N207 Co204 2.121 . S
N207 C209 1.375 . S
N207 C210 1.313 . S
C208 C209 1.338 . S
C208 N211 1.377 . S
C208 H228 0.930 . S
C209 N207 1.375 . S
C209 C208 1.338 . S
C209 H213 0.931 . S
C210 N207 1.313 . S
C210 N211 1.344 . S
C210 H214 0.930 . S
N211 C208 1.377 . S
N211 C210 1.344 . S
O212 Co204 2.055 . S
O212 C216 1.253 . S
H213 C209 0.931 . S
H214 C210 0.930 . S
O215 Co204 2.039 . S
O215 C205 1.265 . S
C216 O212 1.253 . S
C216 O217 1.227 . S
O217 C216 1.227 . S
N218 Co204 2.140 . S
N218 C221 1.346 . S
N218 C222 1.345 . S
C219 C220 1.387 . S
C219 C223 1.391 . S
C220 C219 1.387 . S
C220 C221 1.369 . S
C220 H229 0.929 . S
C221 N218 1.346 . S
C221 C220 1.369 . S
C221 H224 0.928 . S
C222 N218 1.345 . S
C222 C223 1.371 . S
C222 H225 0.931 . S
C223 C219 1.391 . S
C223 C222 1.371 . S
C223 H230 0.930 . S
H224 C221 0.928 . S
H225 C222 0.931 . S
H226 C202 0.930 . S
H227 C199 0.930 . S
H228 C208 0.930 . S
H229 C220 0.929 . S
H230 C223 0.930 . S
C231 C232 1.351 . S
C231 N234 1.368 . S
C231 H236 0.931 . S
C232 C231 1.351 . S
C232 N233 1.373 . S
C232 H260 0.930 . S
N233 C232 1.373 . S
N233 C235 1.340 . S
N234 C231 1.368 . S
N234 C235 1.321 . S
N234 Co237 2.135 . S
C235 N233 1.340 . S
C235 N234 1.321 . S
C235 H259 0.930 . S
H236 C231 0.931 . S
Co237 N234 2.135 . S
Co237 N240 2.121 . S
Co237 O245 2.055 . S
Co237 O248 2.039 . S
Co237 N251 2.140 . S
C238 O239 1.227 . S
C238 O248 1.265 . S
O239 C238 1.227 . S
N240 Co237 2.121 . S
N240 C242 1.375 . S
N240 C243 1.313 . S
C241 C242 1.338 . S
C241 N244 1.377 . S
C241 H261 0.930 . S
C242 N240 1.375 . S
C242 C241 1.338 . S
C242 H246 0.931 . S
C243 N240 1.313 . S
C243 N244 1.344 . S
C243 H247 0.930 . S
N244 C241 1.377 . S
N244 C243 1.344 . S
O245 Co237 2.055 . S
O245 C249 1.253 . S
H246 C242 0.931 . S
H247 C243 0.930 . S
O248 Co237 2.039 . S
O248 C238 1.265 . S
C249 O245 1.253 . S
C249 O250 1.227 . S
O250 C249 1.227 . S
N251 Co237 2.140 . S
N251 C254 1.346 . S
N251 C255 1.345 . S
C252 C253 1.387 . S
C252 C256 1.391 . S
C253 C252 1.387 . S
C253 C254 1.369 . S
C253 H262 0.929 . S
C254 N251 1.346 . S
C254 C253 1.369 . S
C254 H257 0.928 . S
C255 N251 1.345 . S
C255 C256 1.371 . S
C255 H258 0.931 . S
C256 C252 1.391 . S
C256 C255 1.371 . S
C256 H263 0.930 . S
H257 C254 0.928 . S
H258 C255 0.931 . S
H259 C235 0.930 . S
H260 C232 0.930 . S
H261 C241 0.930 . S
H262 C253 0.929 . S
H263 C256 0.930 . S
C264 C265 1.351 . S
C264 N267 1.368 . S
C264 H269 0.931 . S
C265 C264 1.351 . S
C265 N266 1.373 . S
C265 H293 0.930 . S
N266 C265 1.373 . S
N266 C268 1.340 . S
N267 C264 1.368 . S
N267 C268 1.321 . S
N267 Co270 2.135 . S
C268 N266 1.340 . S
C268 N267 1.321 . S
C268 H292 0.930 . S
H269 C264 0.931 . S
Co270 N267 2.135 . S
Co270 N273 2.121 . S
Co270 O278 2.055 . S
Co270 O281 2.039 . S
Co270 N284 2.140 . S
C271 O272 1.227 . S
C271 O281 1.265 . S
O272 C271 1.227 . S
N273 Co270 2.121 . S
N273 C275 1.375 . S
N273 C276 1.313 . S
C274 C275 1.338 . S
C274 N277 1.377 . S
C274 H294 0.930 . S
C275 N273 1.375 . S
C275 C274 1.338 . S
C275 H279 0.931 . S
C276 N273 1.313 . S
C276 N277 1.344 . S
C276 H280 0.930 . S
N277 C274 1.377 . S
N277 C276 1.344 . S
O278 Co270 2.055 . S
O278 C282 1.253 . S
H279 C275 0.931 . S
H280 C276 0.930 . S
O281 Co270 2.039 . S
O281 C271 1.265 . S
C282 O278 1.253 . S
C282 O283 1.227 . S
O283 C282 1.227 . S
N284 Co270 2.140 . S
N284 C287 1.346 . S
N284 C288 1.345 . S
C285 C286 1.387 . S
C285 C289 1.391 . S
C286 C285 1.387 . S
C286 C287 1.369 . S
C286 H295 0.929 . S
C287 N284 1.346 . S
C287 C286 1.369 . S
C287 H290 0.928 . S
C288 N284 1.345 . S
C288 C289 1.371 . S
C288 H291 0.931 . S
C289 C285 1.391 . S
C289 C288 1.371 . S
C289 H296 0.930 . S
H290 C287 0.928 . S
H291 C288 0.931 . S
H292 C268 0.930 . S
H293 C265 0.930 . S
H294 C274 0.930 . S
H295 C286 0.929 . S
H296 C289 0.930 . S
C297 C298 1.351 . S
C297 N300 1.368 . S
C297 H302 0.931 . S
C298 C297 1.351 . S
C298 N299 1.373 . S
C298 H326 0.930 . S
N299 C298 1.373 . S
N299 C301 1.340 . S
N300 C297 1.368 . S
N300 C301 1.321 . S
N300 Co303 2.135 1_556 S
C301 N299 1.340 . S
C301 N300 1.321 . S
C301 H325 0.930 . S
H302 C297 0.931 . S
Co303 N300 2.135 1_554 S
Co303 N306 2.121 . S
Co303 O311 2.055 . S
Co303 O314 2.039 1_554 S
Co303 N317 2.140 1_554 S
C304 O305 1.227 . S
C304 O314 1.265 . S
O305 C304 1.227 . S
N306 Co303 2.121 . S
N306 C308 1.375 . S
N306 C309 1.313 . S
C307 C308 1.338 . S
C307 N310 1.377 . S
C307 H327 0.930 . S
C308 N306 1.375 . S
C308 C307 1.338 . S
C308 H312 0.931 . S
C309 N306 1.313 . S
C309 N310 1.344 . S
C309 H313 0.930 . S
N310 C307 1.377 . S
N310 C309 1.344 . S
O311 Co303 2.055 . S
O311 C315 1.253 . S
H312 C308 0.931 . S
H313 C309 0.930 . S
O314 Co303 2.039 1_556 S
O314 C304 1.265 . S
C315 O311 1.253 . S
C315 O316 1.227 . S
O316 C315 1.227 . S
N317 Co303 2.140 1_556 S
N317 C320 1.346 . S
N317 C321 1.345 1_556 S
C318 C319 1.387 . S
C318 C322 1.391 1_556 S
C319 C318 1.387 . S
C319 C320 1.369 . S
C319 H328 0.929 . S
C320 N317 1.346 . S
C320 C319 1.369 . S
C320 H323 0.928 . S
C321 N317 1.345 1_554 S
C321 C322 1.371 . S
C321 H324 0.931 . S
C322 C318 1.391 1_554 S
C322 C321 1.371 . S
C322 H329 0.930 . S
H323 C320 0.928 . S
H324 C321 0.931 . S
H325 C301 0.930 . S
H326 C298 0.930 . S
H327 C307 0.930 . S
H328 C319 0.929 . S
H329 C322 0.930 . S
C330 C331 1.351 . S
C330 N333 1.368 . S
C330 H335 0.931 . S
C331 C330 1.351 . S
C331 N332 1.373 . S
C331 H359 0.930 . S
N332 C331 1.373 . S
N332 C334 1.340 . S
N333 C330 1.368 . S
N333 C334 1.321 . S
N333 Co336 2.135 1_554 S
C334 N332 1.340 . S
C334 N333 1.321 . S
C334 H358 0.930 . S
H335 C330 0.931 . S
Co336 N333 2.135 1_556 S
Co336 N339 2.121 . S
Co336 O344 2.055 . S
Co336 O347 2.039 1_556 S
Co336 N350 2.140 1_556 S
C337 O338 1.227 . S
C337 O347 1.265 . S
O338 C337 1.227 . S
N339 Co336 2.121 . S
N339 C341 1.375 . S
N339 C342 1.313 . S
C340 C341 1.338 . S
C340 N343 1.377 . S
C340 H360 0.930 . S
C341 N339 1.375 . S
C341 C340 1.338 . S
C341 H345 0.931 . S
C342 N339 1.313 . S
C342 N343 1.344 . S
C342 H346 0.930 . S
N343 C340 1.377 . S
N343 C342 1.344 . S
O344 Co336 2.055 . S
O344 C348 1.253 . S
H345 C341 0.931 . S
H346 C342 0.930 . S
O347 Co336 2.039 1_554 S
O347 C337 1.265 . S
C348 O344 1.253 . S
C348 O349 1.227 . S
O349 C348 1.227 . S
N350 Co336 2.140 1_554 S
N350 C353 1.346 . S
N350 C354 1.345 1_554 S
C351 C352 1.387 . S
C351 C355 1.391 1_554 S
C352 C351 1.387 . S
C352 C353 1.369 . S
C352 H361 0.929 . S
C353 N350 1.346 . S
C353 C352 1.369 . S
C353 H356 0.928 . S
C354 N350 1.345 1_556 S
C354 C355 1.371 . S
C354 H357 0.931 . S
C355 C351 1.391 1_556 S
C355 C354 1.371 . S
C355 H362 0.930 . S
H356 C353 0.928 . S
H357 C354 0.931 . S
H358 C334 0.930 . S
H359 C331 0.930 . S
H360 C340 0.930 . S
H361 C352 0.929 . S
H362 C355 0.930 . S
C363 C364 1.351 . S
C363 N366 1.368 . S
C363 H368 0.931 . S
C364 C363 1.351 . S
C364 N365 1.373 . S
C364 H392 0.930 . S
N365 C364 1.373 . S
N365 C367 1.340 . S
N366 C363 1.368 . S
N366 C367 1.321 . S
N366 Co369 2.135 . S
C367 N365 1.340 . S
C367 N366 1.321 . S
C367 H391 0.930 . S
H368 C363 0.931 . S
Co369 N366 2.135 . S
Co369 N372 2.121 . S
Co369 O377 2.055 . S
Co369 O380 2.039 . S
Co369 N383 2.140 . S
C370 O371 1.227 . S
C370 O380 1.265 . S
O371 C370 1.227 . S
N372 Co369 2.121 . S
N372 C374 1.375 . S
N372 C375 1.313 . S
C373 C374 1.338 . S
C373 N376 1.377 . S
C373 H393 0.930 . S
C374 N372 1.375 . S
C374 C373 1.338 . S
C374 H378 0.931 . S
C375 N372 1.313 . S
C375 N376 1.344 . S
C375 H379 0.930 . S
N376 C373 1.377 . S
N376 C375 1.344 . S
O377 Co369 2.055 . S
O377 C381 1.253 . S
H378 C374 0.931 . S
H379 C375 0.930 . S
O380 Co369 2.039 . S
O380 C370 1.265 . S
C381 O377 1.253 . S
C381 O382 1.227 . S
O382 C381 1.227 . S
N383 Co369 2.140 . S
N383 C386 1.346 . S
N383 C387 1.345 . S
C384 C385 1.387 . S
C384 C388 1.391 . S
C385 C384 1.387 . S
C385 C386 1.369 . S
C385 H394 0.929 . S
C386 N383 1.346 . S
C386 C385 1.369 . S
C386 H389 0.928 . S
C387 N383 1.345 . S
C387 C388 1.371 . S
C387 H390 0.931 . S
C388 C384 1.391 . S
C388 C387 1.371 . S
C388 H395 0.930 . S
H389 C386 0.928 . S
H390 C387 0.931 . S
H391 C367 0.930 . S
H392 C364 0.930 . S
H393 C373 0.930 . S
H394 C385 0.929 . S
H395 C388 0.930 . S
C396 C397 1.351 . S
C396 N399 1.368 . S
C396 H401 0.931 . S
C397 C396 1.351 . S
C397 N398 1.373 . S
C397 H425 0.930 . S
N398 C397 1.373 . S
N398 C400 1.340 . S
N399 C396 1.368 . S
N399 C400 1.321 . S
N399 Co402 2.135 . S
C400 N398 1.340 . S
C400 N399 1.321 . S
C400 H424 0.930 . S
H401 C396 0.931 . S
Co402 N399 2.135 . S
Co402 N405 2.121 . S
Co402 O410 2.055 . S
Co402 O413 2.039 . S
Co402 N416 2.140 . S
C403 O404 1.227 . S
C403 O413 1.265 . S
O404 C403 1.227 . S
N405 Co402 2.121 . S
N405 C407 1.375 . S
N405 C408 1.313 . S
C406 C407 1.338 . S
C406 N409 1.377 . S
C406 H426 0.930 . S
C407 N405 1.375 . S
C407 C406 1.338 . S
C407 H411 0.931 . S
C408 N405 1.313 . S
C408 N409 1.344 . S
C408 H412 0.930 . S
N409 C406 1.377 . S
N409 C408 1.344 . S
O410 Co402 2.055 . S
O410 C414 1.253 . S
H411 C407 0.931 . S
H412 C408 0.930 . S
O413 Co402 2.039 . S
O413 C403 1.265 . S
C414 O410 1.253 . S
C414 O415 1.227 . S
O415 C414 1.227 . S
N416 Co402 2.140 . S
N416 C419 1.346 . S
N416 C420 1.345 . S
C417 C418 1.387 . S
C417 C421 1.391 . S
C418 C417 1.387 . S
C418 C419 1.369 . S
C418 H427 0.929 . S
C419 N416 1.346 . S
C419 C418 1.369 . S
C419 H422 0.928 . S
C420 N416 1.345 . S
C420 C421 1.371 . S
C420 H423 0.931 . S
C421 C417 1.391 . S
C421 C420 1.371 . S
C421 H428 0.930 . S
H422 C419 0.928 . S
H423 C420 0.931 . S
H424 C400 0.930 . S
H425 C397 0.930 . S
H426 C406 0.930 . S
H427 C418 0.929 . S
H428 C421 0.930 . S
C429 C430 1.351 . S
C429 N432 1.368 . S
C429 H434 0.931 . S
C430 C429 1.351 . S
C430 N431 1.373 . S
C430 H458 0.930 . S
N431 C430 1.373 . S
N431 C433 1.340 . S
N432 C429 1.368 . S
N432 C433 1.321 . S
N432 Co435 2.135 . S
C433 N431 1.340 . S
C433 N432 1.321 . S
C433 H457 0.930 . S
H434 C429 0.931 . S
Co435 N432 2.135 . S
Co435 N438 2.121 . S
Co435 O443 2.055 . S
Co435 O446 2.039 . S
Co435 N449 2.140 . S
C436 O437 1.227 . S
C436 O446 1.265 . S
O437 C436 1.227 . S
N438 Co435 2.121 . S
N438 C440 1.375 . S
N438 C441 1.313 . S
C439 C440 1.338 . S
C439 N442 1.377 . S
C439 H459 0.930 . S
C440 N438 1.375 . S
C440 C439 1.338 . S
C440 H444 0.931 . S
C441 N438 1.313 . S
C441 N442 1.344 . S
C441 H445 0.930 . S
N442 C439 1.377 . S
N442 C441 1.344 . S
O443 Co435 2.055 . S
O443 C447 1.253 . S
H444 C440 0.931 . S
H445 C441 0.930 . S
O446 Co435 2.039 . S
O446 C436 1.265 . S
C447 O443 1.253 . S
C447 O448 1.227 . S
O448 C447 1.227 . S
N449 Co435 2.140 . S
N449 C452 1.346 . S
N449 C453 1.345 . S
C450 C451 1.387 . S
C450 C454 1.391 . S
C451 C450 1.387 . S
C451 C452 1.369 . S
C451 H460 0.929 . S
C452 N449 1.346 . S
C452 C451 1.369 . S
C452 H455 0.928 . S
C453 N449 1.345 . S
C453 C454 1.371 . S
C453 H456 0.931 . S
C454 C450 1.391 . S
C454 C453 1.371 . S
C454 H461 0.930 . S
H455 C452 0.928 . S
H456 C453 0.931 . S
H457 C433 0.930 . S
H458 C430 0.930 . S
H459 C439 0.930 . S
H460 C451 0.929 . S
H461 C454 0.930 . S
C462 C463 1.351 . S
C462 N465 1.368 . S
C462 H467 0.931 . S
C463 C462 1.351 . S
C463 N464 1.373 . S
C463 H491 0.930 . S
N464 C463 1.373 . S
N464 C466 1.340 . S
N465 C462 1.368 . S
N465 C466 1.321 . S
N465 Co468 2.135 . S
C466 N464 1.340 . S
C466 N465 1.321 . S
C466 H490 0.930 . S
H467 C462 0.931 . S
Co468 N465 2.135 . S
Co468 N471 2.121 . S
Co468 O476 2.055 . S
Co468 O479 2.039 . S
Co468 N482 2.140 . S
C469 O470 1.227 . S
C469 O479 1.265 . S
O470 C469 1.227 . S
N471 Co468 2.121 . S
N471 C473 1.375 . S
N471 C474 1.313 . S
C472 C473 1.338 . S
C472 N475 1.377 . S
C472 H492 0.930 . S
C473 N471 1.375 . S
C473 C472 1.338 . S
C473 H477 0.931 . S
C474 N471 1.313 . S
C474 N475 1.344 . S
C474 H478 0.930 . S
N475 C472 1.377 . S
N475 C474 1.344 . S
O476 Co468 2.055 . S
O476 C480 1.253 . S
H477 C473 0.931 . S
H478 C474 0.930 . S
O479 Co468 2.039 . S
O479 C469 1.265 . S
C480 O476 1.253 . S
C480 O481 1.227 . S
O481 C480 1.227 . S
N482 Co468 2.140 . S
N482 C485 1.346 . S
N482 C486 1.345 . S
C483 C484 1.387 . S
C483 C487 1.391 . S
C484 C483 1.387 . S
C484 C485 1.369 . S
C484 H493 0.929 . S
C485 N482 1.346 . S
C485 C484 1.369 . S
C485 H488 0.928 . S
C486 N482 1.345 . S
C486 C487 1.371 . S
C486 H489 0.931 . S
C487 C483 1.391 . S
C487 C486 1.371 . S
C487 H494 0.930 . S
H488 C485 0.928 . S
H489 C486 0.931 . S
H490 C466 0.930 . S
H491 C463 0.930 . S
H492 C472 0.930 . S
H493 C484 0.929 . S
H494 C487 0.930 . S
C495 C496 1.351 . S
C495 N498 1.368 . S
C495 H500 0.931 . S
C496 C495 1.351 . S
C496 N497 1.373 . S
C496 H524 0.930 . S
N497 C496 1.373 . S
N497 C499 1.340 . S
N498 C495 1.368 . S
N498 C499 1.321 . S
N498 Co501 2.135 . S
C499 N497 1.340 . S
C499 N498 1.321 . S
C499 H523 0.930 . S
H500 C495 0.931 . S
Co501 N498 2.135 . S
Co501 N504 2.121 . S
Co501 O509 2.055 . S
Co501 O512 2.039 . S
Co501 N515 2.140 . S
C502 O503 1.227 . S
C502 O512 1.265 . S
O503 C502 1.227 . S
N504 Co501 2.121 . S
N504 C506 1.375 . S
N504 C507 1.313 . S
C505 C506 1.338 . S
C505 N508 1.377 . S
C505 H525 0.930 . S
C506 N504 1.375 . S
C506 C505 1.338 . S
C506 H510 0.931 . S
C507 N504 1.313 . S
C507 N508 1.344 . S
C507 H511 0.930 . S
N508 C505 1.377 . S
N508 C507 1.344 . S
O509 Co501 2.055 . S
O509 C513 1.253 . S
H510 C506 0.931 . S
H511 C507 0.930 . S
O512 Co501 2.039 . S
O512 C502 1.265 . S
C513 O509 1.253 . S
C513 O514 1.227 . S
O514 C513 1.227 . S
N515 Co501 2.140 . S
N515 C518 1.346 . S
N515 C519 1.345 . S
C516 C517 1.387 . S
C516 C520 1.391 . S
C517 C516 1.387 . S
C517 C518 1.369 . S
C517 H526 0.929 . S
C518 N515 1.346 . S
C518 C517 1.369 . S
C518 H521 0.928 . S
C519 N515 1.345 . S
C519 C520 1.371 . S
C519 H522 0.931 . S
C520 C516 1.391 . S
C520 C519 1.371 . S
C520 H527 0.930 . S
H521 C518 0.928 . S
H522 C519 0.931 . S
H523 C499 0.930 . S
H524 C496 0.930 . S
H525 C505 0.930 . S
H526 C517 0.929 . S
H527 C520 0.930 . S
C528 C529 1.349 . S
C528 C530 1.327 . S
C528 H553 0.950 . S
C529 C528 1.349 . S
C529 C545 1.349 . S
C530 C528 1.327 . S
C530 C549 1.429 . S
C530 H554 0.950 . S
C531 C548 1.574 . S
C531 C550 1.368 . S
C531 H555 0.949 . S
H532 C536 0.949 . S
C533 C534 1.349 . S
C533 C535 1.327 . S
C533 H556 0.950 . S
C534 C533 1.349 . S
C534 C546 1.349 . S
C535 C533 1.327 . S
C535 C551 1.429 . S
C535 H557 0.950 . S
C536 H532 0.949 . S
C536 C544 1.574 . S
C536 C552 1.368 . S
H537 C545 0.950 . S
H538 C543 0.950 . S
H539 C544 0.949 . S
H540 C546 0.950 . S
H541 C547 0.950 . S
H542 C548 0.949 . S
C543 H538 0.950 . S
C543 C545 1.327 . S
C543 C549 1.429 . S
C544 C536 1.574 . S
C544 H539 0.949 . S
C544 C550 1.368 . S
C545 C529 1.349 . S
C545 H537 0.950 . S
C545 C543 1.327 . S
C546 C534 1.349 . S
C546 H540 0.950 . S
C546 C547 1.327 . S
C547 H541 0.950 . S
C547 C546 1.327 . S
C547 C551 1.429 . S
C548 C531 1.574 . S
C548 H542 0.949 . S
C548 C552 1.368 . S
C549 C530 1.429 . S
C549 C543 1.429 . S
C549 C550 1.523 . S
C550 C531 1.368 . S
C550 C544 1.368 . S
C550 C549 1.523 . S
C551 C535 1.429 . S
C551 C547 1.429 . S
C551 C552 1.523 . S
C552 C536 1.368 . S
C552 C548 1.368 . S
C552 C551 1.523 . S
H553 C528 0.950 . S
H554 C530 0.950 . S
H555 C531 0.949 . S
H556 C533 0.950 . S
H557 C535 0.950 . S
C558 C559 1.349 . S
C558 C560 1.327 . S
C558 H583 0.950 . S
C559 C558 1.349 . S
C559 C575 1.349 . S
C560 C558 1.327 . S
C560 C579 1.429 . S
C560 H584 0.950 . S
C561 C578 1.574 . S
C561 C580 1.368 . S
C561 H585 0.949 . S
H562 C566 0.949 . S
C563 C564 1.349 . S
C563 C565 1.327 . S
C563 H586 0.950 . S
C564 C563 1.349 . S
C564 C576 1.349 . S
C565 C563 1.327 . S
C565 C581 1.429 . S
C565 H587 0.950 . S
C566 H562 0.949 . S
C566 C574 1.574 . S
C566 C582 1.368 . S
H567 C575 0.950 . S
H568 C573 0.950 . S
H569 C574 0.949 . S
H570 C576 0.950 . S
H571 C577 0.950 . S
H572 C578 0.949 . S
C573 H568 0.950 . S
C573 C575 1.327 . S
C573 C579 1.429 . S
C574 C566 1.574 . S
C574 H569 0.949 . S
C574 C580 1.368 . S
C575 C559 1.349 . S
C575 H567 0.950 . S
C575 C573 1.327 . S
C576 C564 1.349 . S
C576 H570 0.950 . S
C576 C577 1.327 . S
C577 H571 0.950 . S
C577 C576 1.327 . S
C577 C581 1.429 . S
C578 C561 1.574 . S
C578 H572 0.949 . S
C578 C582 1.368 . S
C579 C560 1.429 . S
C579 C573 1.429 . S
C579 C580 1.523 . S
C580 C561 1.368 . S
C580 C574 1.368 . S
C580 C579 1.523 . S
C581 C565 1.429 . S
C581 C577 1.429 . S
C581 C582 1.523 . S
C582 C566 1.368 . S
C582 C578 1.368 . S
C582 C581 1.523 . S
H583 C558 0.950 . S
H584 C560 0.950 . S
H585 C561 0.949 . S
H586 C563 0.950 . S
H587 C565 0.950 . S
C588 C589 1.349 . S
C588 C590 1.327 . S
C588 H613 0.950 . S
C589 C588 1.349 . S
C589 C605 1.349 . S
C590 C588 1.327 . S
C590 C609 1.429 . S
C590 H614 0.950 . S
C591 C608 1.574 . S
C591 C610 1.368 . S
C591 H615 0.949 . S
H592 C596 0.949 . S
C593 C594 1.349 1_554 S
C593 C595 1.327 1_554 S
C593 H616 0.950 . S
C594 C593 1.349 1_556 S
C594 C606 1.349 . S
C595 C593 1.327 1_556 S
C595 C611 1.429 . S
C595 H617 0.950 1_556 S
C596 H592 0.949 . S
C596 C604 1.574 . S
C596 C612 1.368 . S
H597 C605 0.950 . S
H598 C603 0.950 . S
H599 C604 0.949 . S
H600 C606 0.950 . S
H601 C607 0.950 . S
H602 C608 0.949 1_554 S
C603 H598 0.950 . S
C603 C605 1.327 . S
C603 C609 1.429 . S
C604 C596 1.574 . S
C604 H599 0.949 . S
C604 C610 1.368 . S
C605 C589 1.349 . S
C605 H597 0.950 . S
C605 C603 1.327 . S
C606 C594 1.349 . S
C606 H600 0.950 . S
C606 C607 1.327 . S
C607 H601 0.950 . S
C607 C606 1.327 . S
C607 C611 1.429 . S
C608 C591 1.574 . S
C608 H602 0.949 1_556 S
C608 C612 1.368 . S
C609 C590 1.429 . S
C609 C603 1.429 . S
C609 C610 1.523 . S
C610 C591 1.368 . S
C610 C604 1.368 . S
C610 C609 1.523 . S
C611 C595 1.429 . S
C611 C607 1.429 . S
C611 C612 1.523 . S
C612 C596 1.368 . S
C612 C608 1.368 . S
C612 C611 1.523 . S
H613 C588 0.950 . S
H614 C590 0.950 . S
H615 C591 0.949 . S
H616 C593 0.950 . S
H617 C595 0.950 1_554 S
C618 C619 1.349 . S
C618 C620 1.327 . S
C618 H643 0.950 . S
C619 C618 1.349 . S
C619 C635 1.349 . S
C620 C618 1.327 . S
C620 C639 1.429 . S
C620 H644 0.950 . S
C621 C638 1.574 . S
C621 C640 1.368 . S
C621 H645 0.949 . S
H622 C626 0.949 . S
C623 C624 1.349 1_556 S
C623 C625 1.327 1_556 S
C623 H646 0.950 . S
C624 C623 1.349 1_554 S
C624 C636 1.349 . S
C625 C623 1.327 1_554 S
C625 C641 1.429 . S
C625 H647 0.950 1_554 S
C626 H622 0.949 . S
C626 C634 1.574 . S
C626 C642 1.368 . S
H627 C635 0.950 . S
H628 C633 0.950 . S
H629 C634 0.949 . S
H630 C636 0.950 . S
H631 C637 0.950 . S
H632 C638 0.949 1_556 S
C633 H628 0.950 . S
C633 C635 1.327 . S
C633 C639 1.429 . S
C634 C626 1.574 . S
C634 H629 0.949 . S
C634 C640 1.368 . S
C635 C619 1.349 . S
C635 H627 0.950 . S
C635 C633 1.327 . S
C636 C624 1.349 . S
C636 H630 0.950 . S
C636 C637 1.327 . S
C637 H631 0.950 . S
C637 C636 1.327 . S
C637 C641 1.429 . S
C638 C621 1.574 . S
C638 H632 0.949 1_554 S
C638 C642 1.368 . S
C639 C620 1.429 . S
C639 C633 1.429 . S
C639 C640 1.523 . S
C640 C621 1.368 . S
C640 C634 1.368 . S
C640 C639 1.523 . S
C641 C625 1.429 . S
C641 C637 1.429 . S
C641 C642 1.523 . S
C642 C626 1.368 . S
C642 C638 1.368 . S
C642 C641 1.523 . S
H643 C618 0.950 . S
H644 C620 0.950 . S
H645 C621 0.949 . S
H646 C623 0.950 . S
H647 C625 0.950 1_556 S
C648 C649 1.349 . S
C648 C650 1.327 . S
C648 H673 0.950 . S
C649 C648 1.349 . S
C649 C665 1.349 . S
C650 C648 1.327 . S
C650 C669 1.429 . S
C650 H674 0.950 . S
C651 C668 1.574 . S
C651 C670 1.368 . S
C651 H675 0.949 . S
H652 C656 0.920 1_455 S
C653 C654 1.349 . S
C653 C655 1.327 . S
C653 H676 0.950 . S
C654 C653 1.349 . S
C654 C666 1.349 . S
C655 C653 1.327 . S
C655 C671 1.429 . S
C655 H677 0.950 . S
C656 H652 0.920 1_655 S
C656 C664 1.574 . S
C656 C672 1.362 1_655 S
H657 C665 0.950 . S
H658 C663 0.950 . S
H659 C664 0.949 . S
H660 C666 0.950 . S
H661 C667 0.950 . S
H662 C668 0.954 . S
C663 H658 0.950 . S
C663 C665 1.327 . S
C663 C669 1.429 . S
C664 C656 1.574 . S
C664 H659 0.949 . S
C664 C670 1.368 . S
C665 C649 1.349 . S
C665 H657 0.950 . S
C665 C663 1.327 . S
C666 C654 1.349 . S
C666 H660 0.950 . S
C666 C667 1.327 . S
C667 H661 0.950 . S
C667 C666 1.327 . S
C667 C671 1.429 . S
C668 C651 1.574 . S
C668 H662 0.954 . S
C668 C672 1.361 1_655 S
C669 C650 1.429 . S
C669 C663 1.429 . S
C669 C670 1.523 . S
C670 C651 1.368 . S
C670 C664 1.368 . S
C670 C669 1.523 . S
C671 C655 1.429 . S
C671 C667 1.429 . S
C671 C672 1.542 . S
C672 C656 1.362 1_455 S
C672 C668 1.361 1_455 S
C672 C671 1.542 . S
H673 C648 0.950 . S
H674 C650 0.950 . S
H675 C651 0.949 . S
H676 C653 0.950 . S
H677 C655 0.950 . S
C678 C679 1.349 . S
C678 C680 1.327 . S
C678 H703 0.950 . S
C679 C678 1.349 . S
C679 C695 1.349 . S
C680 C678 1.327 . S
C680 C699 1.429 . S
C680 H704 0.950 . S
C681 C698 1.574 . S
C681 C700 1.368 . S
C681 H705 0.949 . S
H682 C686 0.949 . S
C683 C684 1.349 . S
C683 C685 1.327 . S
C683 H706 0.950 . S
C684 C683 1.349 . S
C684 C696 1.349 . S
C685 C683 1.327 . S
C685 C701 1.429 . S
C685 H707 0.950 . S
C686 H682 0.949 . S
C686 C694 1.574 1_455 S
C686 C702 1.371 . S
H687 C695 0.950 . S
H688 C693 0.950 . S
H689 C694 0.949 . S
H690 C696 0.950 . S
H691 C697 0.950 . S
H692 C698 0.949 . S
C693 H688 0.950 . S
C693 C695 1.327 . S
C693 C699 1.429 . S
C694 C686 1.574 1_655 S
C694 H689 0.949 . S
C694 C700 1.368 . S
C695 C679 1.349 . S
C695 H687 0.950 . S
C695 C693 1.327 . S
C696 C684 1.349 . S
C696 H690 0.950 . S
C696 C697 1.327 . S
C697 H691 0.950 . S
C697 C696 1.327 . S
C697 C701 1.429 . S
C698 C681 1.574 . S
C698 H692 0.949 . S
C698 C702 1.352 1_655 S
C699 C680 1.429 . S
C699 C693 1.429 . S
C699 C700 1.523 . S
C700 C681 1.368 . S
C700 C694 1.368 . S
C700 C699 1.523 . S
C701 C685 1.429 . S
C701 C697 1.429 . S
C701 C702 1.541 . S
C702 C686 1.371 . S
C702 C698 1.352 1_455 S
C702 C701 1.541 . S
H703 C678 0.950 . S
H704 C680 0.950 . S
H705 C681 0.949 . S
H706 C683 0.950 . S
H707 C685 0.950 . S
C708 C709 1.349 . S
C708 C710 1.327 . S
C708 H733 0.950 . S
C709 C708 1.349 . S
C709 C725 1.349 . S
C710 C708 1.327 . S
C710 C729 1.429 . S
C710 H734 0.950 . S
C711 C728 1.574 . S
C711 C730 1.368 . S
C711 H735 0.949 . S
H712 C716 0.949 1_556 S
C713 C714 1.349 . S
C713 C715 1.327 . S
C713 H736 0.950 . S
C714 C713 1.349 . S
C714 C726 1.349 1_554 S
C715 C713 1.327 . S
C715 C731 1.429 . S
C715 H737 0.950 . S
C716 H712 0.949 1_554 S
C716 C724 1.574 . S
C716 C732 1.368 . S
H717 C725 0.950 . S
H718 C723 0.950 . S
H719 C724 0.949 . S
H720 C726 0.950 . S
H721 C727 0.950 1_556 S
H722 C728 0.949 . S
C723 H718 0.950 . S
C723 C725 1.327 . S
C723 C729 1.429 . S
C724 C716 1.574 . S
C724 H719 0.949 . S
C724 C730 1.368 . S
C725 C709 1.349 . S
C725 H717 0.950 . S
C725 C723 1.327 . S
C726 C714 1.349 1_556 S
C726 H720 0.950 . S
C726 C727 1.327 1_556 S
C727 H721 0.950 1_554 S
C727 C726 1.327 1_554 S
C727 C731 1.429 . S
C728 C711 1.574 . S
C728 H722 0.949 . S
C728 C732 1.368 . S
C729 C710 1.429 . S
C729 C723 1.429 . S
C729 C730 1.523 . S
C730 C711 1.368 . S
C730 C724 1.368 . S
C730 C729 1.523 . S
C731 C715 1.429 . S
C731 C727 1.429 . S
C731 C732 1.523 . S
C732 C716 1.368 . S
C732 C728 1.368 . S
C732 C731 1.523 . S
H733 C708 0.950 . S
H734 C710 0.950 . S
H735 C711 0.949 . S
H736 C713 0.950 . S
H737 C715 0.950 . S
C738 C739 1.349 . S
C738 C740 1.327 . S
C738 H763 0.950 . S
C739 C738 1.349 . S
C739 C755 1.349 . S
C740 C738 1.327 . S
C740 C759 1.429 . S
C740 H764 0.950 . S
C741 C758 1.574 . S
C741 C760 1.368 . S
C741 H765 0.949 . S
H742 C746 0.949 . S
C743 C744 1.349 . S
C743 C745 1.327 . S
C743 H766 0.950 . S
C744 C743 1.349 . S
C744 C756 1.349 . S
C745 C743 1.327 . S
C745 C761 1.429 . S
C745 H767 0.950 . S
C746 H742 0.949 . S
C746 C754 1.574 . S
C746 C762 1.368 . S
H747 C755 0.950 . S
H748 C753 0.950 . S
H749 C754 0.949 . S
H750 C756 0.950 1_554 S
H751 C757 0.950 . S
H752 C758 0.949 . S
C753 H748 0.950 . S
C753 C755 1.327 . S
C753 C759 1.429 . S
C754 C746 1.574 . S
C754 H749 0.949 . S
C754 C760 1.368 . S
C755 C739 1.349 . S
C755 H747 0.950 . S
C755 C753 1.327 . S
C756 C744 1.349 . S
C756 H750 0.950 1_556 S
C756 C757 1.327 . S
C757 H751 0.950 . S
C757 C756 1.327 . S
C757 C761 1.429 . S
C758 C741 1.574 . S
C758 H752 0.949 . S
C758 C762 1.368 . S
C759 C740 1.429 . S
C759 C753 1.429 . S
C759 C760 1.523 . S
C760 C741 1.368 . S
C760 C754 1.368 . S
C760 C759 1.523 . S
C761 C745 1.429 . S
C761 C757 1.429 . S
C761 C762 1.523 . S
C762 C746 1.368 . S
C762 C758 1.368 . S
C762 C761 1.523 . S
H763 C738 0.950 . S
H764 C740 0.950 . S
H765 C741 0.949 . S
H766 C743 0.950 . S
H767 C745 0.950 . S
C768 C769 1.349 1_554 S
C768 C770 1.327 1_554 S
C768 H793 0.950 . S
C769 C768 1.349 1_556 S
C769 C785 1.349 . S
C770 C768 1.327 1_556 S
C770 C789 1.429 . S
C770 H794 0.950 1_556 S
C771 C788 1.574 . S
C771 C790 1.368 . S
C771 H795 0.949 . S
H772 C776 0.949 . S
C773 C774 1.349 . S
C773 C775 1.327 . S
C773 H796 0.950 . S
C774 C773 1.349 . S
C774 C786 1.349 . S
C775 C773 1.327 . S
C775 C791 1.429 . S
C775 H797 0.950 . S
C776 H772 0.949 . S
C776 C784 1.574 . S
C776 C792 1.368 . S
H777 C785 0.950 . S
H778 C783 0.950 . S
H779 C784 0.949 1_554 S
H780 C786 0.950 . S
H781 C787 0.950 . S
H782 C788 0.949 . S
C783 H778 0.950 . S
C783 C785 1.327 . S
C783 C789 1.429 . S
C784 C776 1.574 . S
C784 H779 0.949 1_556 S
C784 C790 1.368 . S
C785 C769 1.349 . S
C785 H777 0.950 . S
C785 C783 1.327 . S
C786 C774 1.349 . S
C786 H780 0.950 . S
C786 C787 1.327 . S
C787 H781 0.950 . S
C787 C786 1.327 . S
C787 C791 1.429 . S
C788 C771 1.574 . S
C788 H782 0.949 . S
C788 C792 1.368 . S
C789 C770 1.429 . S
C789 C783 1.429 . S
C789 C790 1.523 . S
C790 C771 1.368 . S
C790 C784 1.368 . S
C790 C789 1.523 . S
C791 C775 1.429 . S
C791 C787 1.429 . S
C791 C792 1.523 . S
C792 C776 1.368 . S
C792 C788 1.368 . S
C792 C791 1.523 . S
H793 C768 0.950 . S
H794 C770 0.950 1_554 S
H795 C771 0.949 . S
H796 C773 0.950 . S
H797 C775 0.950 . S
C798 C799 1.349 . S
C798 C800 1.327 . S
C798 H823 0.950 . S
C799 C798 1.349 . S
C799 C815 1.349 . S
C800 C798 1.327 . S
C800 C819 1.429 . S
C800 H824 0.950 . S
C801 C818 1.574 . S
C801 C820 1.368 . S
C801 H825 0.949 . S
H802 C806 0.949 . S
C803 C804 1.349 . S
C803 C805 1.327 . S
C803 H826 0.950 1_554 S
C804 C803 1.349 . S
C804 C816 1.349 . S
C805 C803 1.327 . S
C805 C821 1.429 . S
C805 H827 0.950 1_554 S
C806 H802 0.949 . S
C806 C814 1.574 . S
C806 C822 1.368 . S
H807 C815 0.950 . S
H808 C813 0.950 . S
H809 C814 0.949 . S
H810 C816 0.950 . S
H811 C817 0.950 . S
H812 C818 0.949 . S
C813 H808 0.950 . S
C813 C815 1.327 . S
C813 C819 1.429 . S
C814 C806 1.574 . S
C814 H809 0.949 . S
C814 C820 1.368 . S
C815 C799 1.349 . S
C815 H807 0.950 . S
C815 C813 1.327 . S
C816 C804 1.349 . S
C816 H810 0.950 . S
C816 C817 1.327 . S
C817 H811 0.950 . S
C817 C816 1.327 . S
C817 C821 1.429 . S
C818 C801 1.574 . S
C818 H812 0.949 . S
C818 C822 1.368 . S
C819 C800 1.429 . S
C819 C813 1.429 . S
C819 C820 1.523 . S
C820 C801 1.368 . S
C820 C814 1.368 . S
C820 C819 1.523 . S
C821 C805 1.429 . S
C821 C817 1.429 . S
C821 C822 1.523 . S
C822 C806 1.368 . S
C822 C818 1.368 . S
C822 C821 1.523 . S
H823 C798 0.950 . S
H824 C800 0.950 . S
H825 C801 0.949 . S
H826 C803 0.950 1_556 S
H827 C805 0.950 1_556 S
C828 C829 1.349 . S
C828 C830 1.327 . S
C828 H853 0.950 . S
C829 C828 1.349 . S
C829 C845 1.349 . S
C830 C828 1.327 . S
C830 C849 1.429 . S
C830 H854 0.950 1_455 S
C831 C848 1.574 . S
C831 C850 1.368 . S
C831 H855 0.949 1_655 S
H832 C836 0.949 . S
C833 C834 1.349 . S
C833 C835 1.327 . S
C833 H856 0.950 . S
C834 C833 1.349 . S
C834 C846 1.349 . S
C835 C833 1.327 . S
C835 C851 1.429 . S
C835 H857 0.950 . S
C836 H832 0.949 . S
C836 C844 1.574 . S
C836 C852 1.368 . S
H837 C845 0.950 . S
H838 C843 0.950 . S
H839 C844 0.949 . S
H840 C846 0.950 . S
H841 C847 0.950 . S
H842 C848 0.949 . S
C843 H838 0.950 . S
C843 C845 1.327 . S
C843 C849 1.429 . S
C844 C836 1.574 . S
C844 H839 0.949 . S
C844 C850 1.368 . S
C845 C829 1.349 . S
C845 H837 0.950 . S
C845 C843 1.327 . S
C846 C834 1.349 . S
C846 H840 0.950 . S
C846 C847 1.327 . S
C847 H841 0.950 . S
C847 C846 1.327 . S
C847 C851 1.429 . S
C848 C831 1.574 . S
C848 H842 0.949 . S
C848 C852 1.368 . S
C849 C830 1.429 . S
C849 C843 1.429 . S
C849 C850 1.523 1_455 S
C850 C831 1.368 . S
C850 C844 1.368 . S
C850 C849 1.523 1_655 S
C851 C835 1.429 . S
C851 C847 1.429 . S
C851 C852 1.523 . S
C852 C836 1.368 . S
C852 C848 1.368 . S
C852 C851 1.523 . S
H853 C828 0.950 . S
H854 C830 0.950 1_655 S
H855 C831 0.949 1_455 S
H856 C833 0.950 . S
H857 C835 0.950 . S
C858 C859 1.349 . S
C858 C860 1.327 . S
C858 H883 0.950 . S
C859 C858 1.349 . S
C859 C875 1.349 . S
C860 C858 1.327 . S
C860 C879 1.429 . S
C860 H884 0.950 . S
C861 C878 1.574 . S
C861 C880 1.368 . S
C861 H885 0.949 . S
H862 C866 0.949 . S
C863 C864 1.349 . S
C863 C865 1.327 . S
C863 H886 0.950 . S
C864 C863 1.349 . S
C864 C876 1.349 . S
C865 C863 1.327 . S
C865 C881 1.429 . S
C865 H887 0.950 . S
C866 H862 0.949 . S
C866 C874 1.574 . S
C866 C882 1.368 . S
H867 C875 0.950 . S
H868 C873 0.950 . S
H869 C874 0.949 . S
H870 C876 0.950 . S
H871 C877 0.950 1_655 S
H872 C878 0.925 1_455 S
C873 H868 0.950 . S
C873 C875 1.327 . S
C873 C879 1.429 . S
C874 C866 1.574 . S
C874 H869 0.949 . S
C874 C880 1.368 . S
C875 C859 1.349 . S
C875 H867 0.950 . S
C875 C873 1.327 . S
C876 C864 1.349 . S
C876 H870 0.950 . S
C876 C877 1.327 . S
C877 H871 0.950 1_455 S
C877 C876 1.327 . S
C877 C881 1.429 . S
C878 C861 1.574 . S
C878 H872 0.925 1_655 S
C878 C882 1.368 . S
C879 C860 1.429 . S
C879 C873 1.429 . S
C879 C880 1.523 . S
C880 C861 1.368 . S
C880 C874 1.368 . S
C880 C879 1.523 . S
C881 C865 1.429 . S
C881 C877 1.429 . S
C881 C882 1.523 1_455 S
C882 C866 1.368 . S
C882 C878 1.368 . S
C882 C881 1.523 1_655 S
H883 C858 0.950 . S
H884 C860 0.950 . S
H885 C861 0.949 . S
H886 C863 0.950 . S
H887 C865 0.950 . S
C888 C889 1.349 . S
C888 C890 1.327 . S
C888 H913 0.950 1_554 S
C889 C888 1.349 . S
C889 C905 1.349 . S
C890 C888 1.327 . S
C890 C909 1.429 . S
C890 H914 0.950 1_554 S
C891 C908 1.574 . S
C891 C910 1.368 . S
C891 H915 0.949 . S
H892 C896 0.949 . S
C893 C894 1.349 . S
C893 C895 1.327 . S
C893 H916 0.950 . S
C894 C893 1.349 . S
C894 C906 1.349 . S
C895 C893 1.327 . S
C895 C911 1.429 . S
C895 H917 0.950 . S
C896 H892 0.949 . S
C896 C904 1.574 . S
C896 C912 1.368 . S
H897 C905 0.950 . S
H898 C903 0.950 . S
H899 C904 0.949 . S
H900 C906 0.950 . S
H901 C907 0.950 . S
H902 C908 0.949 . S
C903 H898 0.950 . S
C903 C905 1.327 . S
C903 C909 1.429 . S
C904 C896 1.574 . S
C904 H899 0.949 . S
C904 C910 1.368 . S
C905 C889 1.349 . S
C905 H897 0.950 . S
C905 C903 1.327 . S
C906 C894 1.349 . S
C906 H900 0.950 . S
C906 C907 1.327 . S
C907 H901 0.950 . S
C907 C906 1.327 . S
C907 C911 1.429 . S
C908 C891 1.574 . S
C908 H902 0.949 . S
C908 C912 1.368 . S
C909 C890 1.429 . S
C909 C903 1.429 . S
C909 C910 1.523 . S
C910 C891 1.368 . S
C910 C904 1.368 . S
C910 C909 1.523 . S
C911 C895 1.429 . S
C911 C907 1.429 . S
C911 C912 1.523 . S
C912 C896 1.368 . S
C912 C908 1.368 . S
C912 C911 1.523 . S
H913 C888 0.950 1_556 S
H914 C890 0.950 1_556 S
H915 C891 0.949 . S
H916 C893 0.950 . S
H917 C895 0.950 . S
C918 C919 1.349 . S
C918 C920 1.327 . S
C918 H943 0.950 . S
C919 C918 1.349 . S
C919 C935 1.349 . S
C920 C918 1.327 . S
C920 C939 1.429 . S
C920 H944 0.950 . S
C921 C938 1.574 . S
C921 C940 1.368 . S
C921 H945 0.949 . S
H922 C926 0.949 . S
C923 C924 1.349 . S
C923 C925 1.327 . S
C923 H946 0.950 . S
C924 C923 1.349 . S
C924 C936 1.349 . S
C925 C923 1.327 . S
C925 C941 1.429 . S
C925 H947 0.950 . S
C926 H922 0.949 . S
C926 C934 1.574 . S
C926 C942 1.368 . S
H927 C935 0.950 . S
H928 C933 0.950 . S
H929 C934 0.949 . S
H930 C936 0.950 . S
H931 C937 0.950 . S
H932 C938 0.949 . S
C933 H928 0.950 . S
C933 C935 1.327 . S
C933 C939 1.429 . S
C934 C926 1.574 . S
C934 H929 0.949 . S
C934 C940 1.368 . S
C935 C919 1.349 . S
C935 H927 0.950 . S
C935 C933 1.327 . S
C936 C924 1.349 . S
C936 H930 0.950 . S
C936 C937 1.327 . S
C937 H931 0.950 . S
C937 C936 1.327 . S
C937 C941 1.429 . S
C938 C921 1.574 . S
C938 H932 0.949 . S
C938 C942 1.368 . S
C939 C920 1.429 . S
C939 C933 1.429 . S
C939 C940 1.523 . S
C940 C921 1.368 . S
C940 C934 1.368 . S
C940 C939 1.523 . S
C941 C925 1.429 . S
C941 C937 1.429 . S
C941 C942 1.523 . S
C942 C926 1.368 . S
C942 C938 1.368 . S
C942 C941 1.523 . S
H943 C918 0.950 . S
H944 C920 0.950 . S
H945 C921 0.949 . S
H946 C923 0.950 . S
H947 C925 0.950 . S
C948 C949 1.349 . S
C948 C950 1.327 . S
C948 H973 0.950 . S
C949 C948 1.349 . S
C949 C965 1.349 . S
C950 C948 1.327 . S
C950 C969 1.429 . S
C950 H974 0.950 . S
C951 C968 1.574 . S
C951 C970 1.368 . S
C951 H975 0.949 . S
H952 C956 0.949 . S
C953 C954 1.349 . S
C953 C955 1.327 . S
C953 H976 0.950 . S
C954 C953 1.349 . S
C954 C966 1.349 . S
C955 C953 1.327 . S
C955 C971 1.429 . S
C955 H977 0.950 . S
C956 H952 0.949 . S
C956 C964 1.574 . S
C956 C972 1.368 . S
H957 C965 0.950 . S
H958 C963 0.950 . S
H959 C964 0.949 . S
H960 C966 0.950 . S
H961 C967 0.950 . S
H962 C968 0.949 . S
C963 H958 0.950 . S
C963 C965 1.327 . S
C963 C969 1.429 . S
C964 C956 1.574 . S
C964 H959 0.949 . S
C964 C970 1.368 . S
C965 C949 1.349 . S
C965 H957 0.950 . S
C965 C963 1.327 . S
C966 C954 1.349 . S
C966 H960 0.950 . S
C966 C967 1.327 . S
C967 H961 0.950 . S
C967 C966 1.327 . S
C967 C971 1.429 . S
C968 C951 1.574 . S
C968 H962 0.949 . S
C968 C972 1.368 . S
C969 C950 1.429 . S
C969 C963 1.429 . S
C969 C970 1.523 . S
C970 C951 1.368 . S
C970 C964 1.368 . S
C970 C969 1.523 . S
C971 C955 1.429 . S
C971 C967 1.429 . S
C971 C972 1.523 . S
C972 C956 1.368 . S
C972 C968 1.368 . S
C972 C971 1.523 . S
H973 C948 0.950 . S
H974 C950 0.950 . S
H975 C951 0.949 . S
H976 C953 0.950 . S
H977 C955 0.950 . S
C978 C979 1.349 . S
C978 C980 1.327 . S
C978 H1003 0.950 . S
C979 C978 1.349 . S
C979 C995 1.349 . S
C980 C978 1.327 . S
C980 C999 1.429 . S
C980 H1004 0.950 . S
C981 C998 1.574 . S
C981 C1000 1.368 . S
C981 H1005 0.949 . S
H982 C986 0.949 . S
C983 C984 1.349 . S
C983 C985 1.327 . S
C983 H1006 0.950 . S
C984 C983 1.349 . S
C984 C996 1.349 . S
C985 C983 1.327 . S
C985 C1001 1.429 . S
C985 H1007 0.950 . S
C986 H982 0.949 . S
C986 C994 1.574 . S
C986 C1002 1.368 . S
H987 C995 0.950 . S
H988 C993 0.950 . S
H989 C994 0.949 . S
H990 C996 0.950 . S
H991 C997 0.950 . S
H992 C998 0.949 . S
C993 H988 0.950 . S
C993 C995 1.327 . S
C993 C999 1.429 . S
C994 C986 1.574 . S
C994 H989 0.949 . S
C994 C1000 1.368 . S
C995 C979 1.349 . S
C995 H987 0.950 . S
C995 C993 1.327 . S
C996 C984 1.349 . S
C996 H990 0.950 . S
C996 C997 1.327 . S
C997 H991 0.950 . S
C997 C996 1.327 . S
C997 C1001 1.429 . S
C998 C981 1.574 . S
C998 H992 0.949 . S
C998 C1002 1.368 . S
C999 C980 1.429 . S
C999 C993 1.429 . S
C999 C1000 1.523 . S
C1000 C981 1.368 . S
C1000 C994 1.368 . S
C1000 C999 1.523 . S
C1001 C985 1.429 . S
C1001 C997 1.429 . S
C1001 C1002 1.523 . S
C1002 C986 1.368 . S
C1002 C998 1.368 . S
C1002 C1001 1.523 . S
H1003 C978 0.950 . S
H1004 C980 0.950 . S
H1005 C981 0.949 . S
H1006 C983 0.950 . S
H1007 C985 0.950 . S
C1008 C1009 1.349 . S
C1008 C1010 1.327 . S
C1008 H1033 0.950 . S
C1009 C1008 1.349 . S
C1009 C1025 1.349 . S
C1010 C1008 1.327 . S
C1010 C1029 1.429 . S
C1010 H1034 0.950 . S
C1011 C1028 1.574 . S
C1011 C1030 1.368 1_556 S
C1011 H1035 0.949 . S
H1012 C1016 0.949 . S
C1013 C1014 1.349 . S
C1013 C1015 1.327 . S
C1013 H1036 0.950 . S
C1014 C1013 1.349 . S
C1014 C1026 1.349 . S
C1015 C1013 1.327 . S
C1015 C1031 1.429 . S
C1015 H1037 0.950 . S
C1016 H1012 0.949 . S
C1016 C1024 1.574 . S
C1016 C1032 1.368 1_554 S
H1017 C1025 0.950 . S
H1018 C1023 0.950 . S
H1019 C1024 0.949 . S
H1020 C1026 0.950 . S
H1021 C1027 0.950 . S
H1022 C1028 0.949 . S
C1023 H1018 0.950 . S
C1023 C1025 1.327 . S
C1023 C1029 1.429 . S
C1024 C1016 1.574 . S
C1024 H1019 0.949 . S
C1024 C1030 1.368 1_565 S
C1025 C1009 1.349 . S
C1025 H1017 0.950 . S
C1025 C1023 1.327 . S
C1026 C1014 1.349 . S
C1026 H1020 0.950 . S
C1026 C1027 1.327 . S
C1027 H1021 0.950 . S
C1027 C1026 1.327 . S
C1027 C1031 1.429 . S
C1028 C1011 1.574 . S
C1028 H1022 0.949 . S
C1028 C1032 1.368 1_545 S
C1029 C1010 1.429 . S
C1029 C1023 1.429 . S
C1029 C1030 1.523 . S
C1030 C1011 1.368 1_554 S
C1030 C1024 1.368 1_545 S
C1030 C1029 1.523 . S
C1031 C1015 1.429 . S
C1031 C1027 1.429 . S
C1031 C1032 1.523 . S
C1032 C1016 1.368 1_556 S
C1032 C1028 1.368 1_565 S
C1032 C1031 1.523 . S
H1033 C1008 0.950 . S
H1034 C1010 0.950 . S
H1035 C1011 0.949 . S
H1036 C1013 0.950 . S
H1037 C1015 0.950 . S
C1038 C1039 1.349 . S
C1038 C1040 1.327 . S
C1038 H1063 0.950 . S
C1039 C1038 1.349 . S
C1039 C1055 1.349 . S
C1040 C1038 1.327 . S
C1040 C1059 1.429 . S
C1040 H1064 0.950 . S
C1041 C1058 1.574 . S
C1041 C1060 1.368 . S
C1041 H1065 0.949 . S
H1042 C1046 0.949 . S
C1043 C1044 1.349 . S
C1043 C1045 1.327 . S
C1043 H1066 0.950 . S
C1044 C1043 1.349 . S
C1044 C1056 1.349 . S
C1045 C1043 1.327 . S
C1045 C1061 1.429 . S
C1045 H1067 0.950 . S
C1046 H1042 0.949 . S
C1046 C1054 1.574 . S
C1046 C1062 1.368 . S
H1047 C1055 0.950 . S
H1048 C1053 0.950 . S
H1049 C1054 0.949 . S
H1050 C1056 0.950 . S
H1051 C1057 0.950 . S
H1052 C1058 0.949 . S
C1053 H1048 0.950 . S
C1053 C1055 1.327 . S
C1053 C1059 1.429 . S
C1054 C1046 1.574 . S
C1054 H1049 0.949 . S
C1054 C1060 1.368 . S
C1055 C1039 1.349 . S
C1055 H1047 0.950 . S
C1055 C1053 1.327 . S
C1056 C1044 1.349 . S
C1056 H1050 0.950 . S
C1056 C1057 1.327 . S
C1057 H1051 0.950 . S
C1057 C1056 1.327 . S
C1057 C1061 1.429 . S
C1058 C1041 1.574 . S
C1058 H1052 0.949 . S
C1058 C1062 1.368 . S
C1059 C1040 1.429 . S
C1059 C1053 1.429 . S
C1059 C1060 1.523 . S
C1060 C1041 1.368 . S
C1060 C1054 1.368 . S
C1060 C1059 1.523 . S
C1061 C1045 1.429 . S
C1061 C1057 1.429 . S
C1061 C1062 1.523 . S
C1062 C1046 1.368 . S
C1062 C1058 1.368 . S
C1062 C1061 1.523 . S
H1063 C1038 0.950 . S
H1064 C1040 0.950 . S
H1065 C1041 0.949 . S
H1066 C1043 0.950 . S
H1067 C1045 0.950 . S
C1068 C1069 1.349 . S
C1068 C1070 1.327 . S
C1068 H1093 0.950 . S
C1069 C1068 1.349 . S
C1069 C1085 1.349 . S
C1070 C1068 1.327 . S
C1070 C1089 1.429 . S
C1070 H1094 0.950 . S
C1071 C1088 1.574 . S
C1071 C1090 1.368 . S
C1071 H1095 0.949 . S
H1072 C1076 0.949 . S
C1073 C1074 1.349 . S
C1073 C1075 1.327 . S
C1073 H1096 0.950 . S
C1074 C1073 1.349 . S
C1074 C1086 1.349 . S
C1075 C1073 1.327 . S
C1075 C1091 1.429 . S
C1075 H1097 0.950 . S
C1076 H1072 0.949 . S
C1076 C1084 1.574 . S
C1076 C1092 1.368 . S
H1077 C1085 0.950 . S
H1078 C1083 0.950 . S
H1079 C1084 0.949 . S
H1080 C1086 0.950 . S
H1081 C1087 0.950 . S
H1082 C1088 0.949 . S
C1083 H1078 0.950 . S
C1083 C1085 1.327 . S
C1083 C1089 1.429 . S
C1084 C1076 1.574 . S
C1084 H1079 0.949 . S
C1084 C1090 1.368 1_565 S
C1085 C1069 1.349 . S
C1085 H1077 0.950 . S
C1085 C1083 1.327 . S
C1086 C1074 1.349 . S
C1086 H1080 0.950 . S
C1086 C1087 1.327 . S
C1087 H1081 0.950 . S
C1087 C1086 1.327 . S
C1087 C1091 1.429 . S
C1088 C1071 1.574 . S
C1088 H1082 0.949 . S
C1088 C1092 1.368 1_545 S
C1089 C1070 1.429 . S
C1089 C1083 1.429 . S
C1089 C1090 1.523 . S
C1090 C1071 1.368 . S
C1090 C1084 1.368 1_545 S
C1090 C1089 1.523 . S
C1091 C1075 1.429 . S
C1091 C1087 1.429 . S
C1091 C1092 1.523 . S
C1092 C1076 1.368 . S
C1092 C1088 1.368 1_565 S
C1092 C1091 1.523 . S
H1093 C1068 0.950 . S
H1094 C1070 0.950 . S
H1095 C1071 0.949 . S
H1096 C1073 0.950 . S
H1097 C1075 0.950 . S
C1098 C1099 1.349 . S
C1098 C1100 1.327 . S
C1098 H1123 0.950 . S
C1099 C1098 1.349 . S
C1099 C1115 1.349 . S
C1100 C1098 1.327 . S
C1100 C1119 1.429 . S
C1100 H1124 0.950 . S
C1101 C1118 1.574 . S
C1101 C1120 1.368 . S
C1101 H1125 0.949 . S
H1102 C1106 0.949 . S
C1103 C1104 1.349 . S
C1103 C1105 1.327 . S
C1103 H1126 0.950 . S
C1104 C1103 1.349 . S
C1104 C1116 1.349 . S
C1105 C1103 1.327 . S
C1105 C1121 1.429 . S
C1105 H1127 0.950 . S
C1106 H1102 0.949 . S
C1106 C1114 1.574 . S
C1106 C1122 1.368 . S
H1107 C1115 0.950 . S
H1108 C1113 0.950 . S
H1109 C1114 0.949 . S
H1110 C1116 0.950 . S
H1111 C1117 0.950 . S
H1112 C1118 0.949 . S
C1113 H1108 0.950 . S
C1113 C1115 1.327 . S
C1113 C1119 1.429 . S
C1114 C1106 1.574 . S
C1114 H1109 0.949 . S
C1114 C1120 1.368 . S
C1115 C1099 1.349 . S
C1115 H1107 0.950 . S
C1115 C1113 1.327 . S
C1116 C1104 1.349 . S
C1116 H1110 0.950 . S
C1116 C1117 1.327 . S
C1117 H1111 0.950 . S
C1117 C1116 1.327 . S
C1117 C1121 1.429 . S
C1118 C1101 1.574 . S
C1118 H1112 0.949 . S
C1118 C1122 1.368 . S
C1119 C1100 1.429 . S
C1119 C1113 1.429 . S
C1119 C1120 1.523 . S
C1120 C1101 1.368 . S
C1120 C1114 1.368 . S
C1120 C1119 1.523 . S
C1121 C1105 1.429 . S
C1121 C1117 1.429 . S
C1121 C1122 1.523 . S
C1122 C1106 1.368 . S
C1122 C1118 1.368 . S
C1122 C1121 1.523 . S
H1123 C1098 0.950 . S
H1124 C1100 0.950 . S
H1125 C1101 0.949 . S
H1126 C1103 0.950 . S
H1127 C1105 0.950 . S
C1128 C1129 1.349 . S
C1128 C1130 1.327 . S
C1128 H1153 0.950 . S
C1129 C1128 1.349 . S
C1129 C1145 1.349 . S
C1130 C1128 1.327 . S
C1130 C1149 1.429 . S
C1130 H1154 0.950 . S
C1131 C1148 1.574 . S
C1131 C1150 1.368 . S
C1131 H1155 0.949 . S
H1132 C1136 0.949 . S
C1133 C1134 1.349 . S
C1133 C1135 1.327 . S
C1133 H1156 0.950 . S
C1134 C1133 1.349 . S
C1134 C1146 1.349 . S
C1135 C1133 1.327 . S
C1135 C1151 1.429 . S
C1135 H1157 0.950 . S
C1136 H1132 0.949 . S
C1136 C1144 1.574 . S
C1136 C1152 1.368 . S
H1137 C1145 0.950 . S
H1138 C1143 0.950 . S
H1139 C1144 0.949 . S
H1140 C1146 0.950 . S
H1141 C1147 0.950 . S
H1142 C1148 0.949 . S
C1143 H1138 0.950 . S
C1143 C1145 1.327 . S
C1143 C1149 1.429 . S
C1144 C1136 1.574 . S
C1144 H1139 0.949 . S
C1144 C1150 1.368 . S
C1145 C1129 1.349 . S
C1145 H1137 0.950 . S
C1145 C1143 1.327 . S
C1146 C1134 1.349 . S
C1146 H1140 0.950 . S
C1146 C1147 1.327 . S
C1147 H1141 0.950 . S
C1147 C1146 1.327 . S
C1147 C1151 1.429 . S
C1148 C1131 1.574 . S
C1148 H1142 0.949 . S
C1148 C1152 1.368 . S
C1149 C1130 1.429 . S
C1149 C1143 1.429 . S
C1149 C1150 1.523 . S
C1150 C1131 1.368 . S
C1150 C1144 1.368 . S
C1150 C1149 1.523 . S
C1151 C1135 1.429 . S
C1151 C1147 1.429 . S
C1151 C1152 1.523 . S
C1152 C1136 1.368 . S
C1152 C1148 1.368 . S
C1152 C1151 1.523 . S
H1153 C1128 0.950 . S
H1154 C1130 0.950 . S
H1155 C1131 0.949 . S
H1156 C1133 0.950 . S
H1157 C1135 0.950 . S
C1158 C1159 1.349 . S
C1158 C1160 1.327 . S
C1158 H1183 0.950 . S
C1159 C1158 1.349 . S
C1159 C1175 1.349 . S
C1160 C1158 1.327 . S
C1160 C1179 1.429 . S
C1160 H1184 0.950 . S
C1161 C1178 1.574 . S
C1161 C1180 1.368 . S
C1161 H1185 0.949 . S
H1162 C1166 0.949 . S
C1163 C1164 1.349 . S
C1163 C1165 1.327 . S
C1163 H1186 0.950 . S
C1164 C1163 1.349 . S
C1164 C1176 1.349 . S
C1165 C1163 1.327 . S
C1165 C1181 1.429 . S
C1165 H1187 0.950 . S
C1166 H1162 0.949 . S
C1166 C1174 1.574 . S
C1166 C1182 1.368 . S
H1167 C1175 0.950 . S
H1168 C1173 0.950 . S
H1169 C1174 0.949 . S
H1170 C1176 0.950 . S
H1171 C1177 0.950 . S
H1172 C1178 0.949 . S
C1173 H1168 0.950 . S
C1173 C1175 1.327 . S
C1173 C1179 1.429 . S
C1174 C1166 1.574 . S
C1174 H1169 0.949 . S
C1174 C1180 1.368 . S
C1175 C1159 1.349 . S
C1175 H1167 0.950 . S
C1175 C1173 1.327 . S
C1176 C1164 1.349 . S
C1176 H1170 0.950 . S
C1176 C1177 1.327 . S
C1177 H1171 0.950 . S
C1177 C1176 1.327 . S
C1177 C1181 1.429 . S
C1178 C1161 1.574 . S
C1178 H1172 0.949 . S
C1178 C1182 1.368 . S
C1179 C1160 1.429 . S
C1179 C1173 1.429 . S
C1179 C1180 1.523 . S
C1180 C1161 1.368 . S
C1180 C1174 1.368 . S
C1180 C1179 1.523 . S
C1181 C1165 1.429 . S
C1181 C1177 1.429 . S
C1181 C1182 1.523 . S
C1182 C1166 1.368 . S
C1182 C1178 1.368 . S
C1182 C1181 1.523 . S
H1183 C1158 0.950 . S
H1184 C1160 0.950 . S
H1185 C1161 0.949 . S
H1186 C1163 0.950 . S
H1187 C1165 0.950 . S
C1188 C1189 1.349 . S
C1188 C1190 1.327 . S
C1188 H1213 0.950 . S
C1189 C1188 1.349 . S
C1189 C1205 1.349 . S
C1190 C1188 1.327 . S
C1190 C1209 1.429 . S
C1190 H1214 0.950 . S
C1191 C1208 1.574 . S
C1191 C1210 1.368 . S
C1191 H1215 0.949 . S
H1192 C1196 0.949 . S
C1193 C1194 1.349 . S
C1193 C1195 1.327 . S
C1193 H1216 0.950 . S
C1194 C1193 1.349 . S
C1194 C1206 1.349 . S
C1195 C1193 1.327 . S
C1195 C1211 1.429 . S
C1195 H1217 0.950 . S
C1196 H1192 0.949 . S
C1196 C1204 1.574 . S
C1196 C1212 1.368 . S
H1197 C1205 0.950 . S
H1198 C1203 0.950 . S
H1199 C1204 0.949 . S
H1200 C1206 0.950 . S
H1201 C1207 0.950 . S
H1202 C1208 0.949 . S
C1203 H1198 0.950 . S
C1203 C1205 1.327 . S
C1203 C1209 1.429 . S
C1204 C1196 1.574 . S
C1204 H1199 0.949 . S
C1204 C1210 1.368 . S
C1205 C1189 1.349 . S
C1205 H1197 0.950 . S
C1205 C1203 1.327 . S
C1206 C1194 1.349 . S
C1206 H1200 0.950 . S
C1206 C1207 1.327 . S
C1207 H1201 0.950 . S
C1207 C1206 1.327 . S
C1207 C1211 1.429 . S
C1208 C1191 1.574 . S
C1208 H1202 0.949 . S
C1208 C1212 1.368 . S
C1209 C1190 1.429 . S
C1209 C1203 1.429 . S
C1209 C1210 1.523 . S
C1210 C1191 1.368 . S
C1210 C1204 1.368 . S
C1210 C1209 1.523 . S
C1211 C1195 1.429 . S
C1211 C1207 1.429 . S
C1211 C1212 1.523 . S
C1212 C1196 1.368 . S
C1212 C1208 1.368 . S
C1212 C1211 1.523 . S
H1213 C1188 0.950 . S
H1214 C1190 0.950 . S
H1215 C1191 0.949 . S
H1216 C1193 0.950 . S
H1217 C1195 0.950 . S
C1218 C1219 1.349 . S
C1218 C1220 1.327 . S
C1218 H1243 0.950 . S
C1219 C1218 1.349 . S
C1219 C1235 1.349 . S
C1220 C1218 1.327 . S
C1220 C1239 1.429 . S
C1220 H1244 0.950 . S
C1221 C1238 1.574 1_556 S
C1221 C1240 1.368 . S
C1221 H1245 0.949 . S
H1222 C1226 0.949 . S
C1223 C1224 1.349 . S
C1223 C1225 1.327 . S
C1223 H1246 0.950 . S
C1224 C1223 1.349 . S
C1224 C1236 1.349 . S
C1225 C1223 1.327 . S
C1225 C1241 1.429 . S
C1225 H1247 0.950 . S
C1226 H1222 0.949 . S
C1226 C1234 1.574 1_554 S
C1226 C1242 1.368 . S
H1227 C1235 0.950 . S
H1228 C1233 0.950 . S
H1229 C1234 0.949 . S
H1230 C1236 0.950 . S
H1231 C1237 0.950 . S
H1232 C1238 0.949 . S
C1233 H1228 0.950 . S
C1233 C1235 1.327 . S
C1233 C1239 1.429 . S
C1234 C1226 1.574 1_556 S
C1234 H1229 0.949 . S
C1234 C1240 1.368 . S
C1235 C1219 1.349 . S
C1235 H1227 0.950 . S
C1235 C1233 1.327 . S
C1236 C1224 1.349 . S
C1236 H1230 0.950 . S
C1236 C1237 1.327 . S
C1237 H1231 0.950 . S
C1237 C1236 1.327 . S
C1237 C1241 1.429 . S
C1238 C1221 1.574 1_554 S
C1238 H1232 0.949 . S
C1238 C1242 1.368 . S
C1239 C1220 1.429 . S
C1239 C1233 1.429 . S
C1239 C1240 1.523 . S
C1240 C1221 1.368 . S
C1240 C1234 1.368 . S
C1240 C1239 1.523 . S
C1241 C1225 1.429 . S
C1241 C1237 1.429 . S
C1241 C1242 1.523 . S
C1242 C1226 1.368 . S
C1242 C1238 1.368 . S
C1242 C1241 1.523 . S
H1243 C1218 0.950 . S
H1244 C1220 0.950 . S
H1245 C1221 0.949 . S
H1246 C1223 0.950 . S
H1247 C1225 0.950 . S
C1248 C1249 1.345 1_556 S
C1248 C1250 1.333 . S
C1248 H1273 0.947 1_556 S
C1249 C1248 1.345 1_554 S
C1249 C1265 1.349 . S
C1250 C1248 1.333 . S
C1250 C1269 1.429 . S
C1250 H1274 0.950 . S
C1251 C1268 1.574 . S
C1251 C1270 1.368 . S
C1251 H1275 0.949 . S
H1252 C1256 0.949 . S
C1253 C1254 1.349 . S
C1253 C1255 1.327 . S
C1253 H1276 0.950 . S
C1254 C1253 1.349 . S
C1254 C1266 1.349 . S
C1255 C1253 1.327 . S
C1255 C1271 1.429 . S
C1255 H1277 0.950 . S
C1256 H1252 0.949 . S
C1256 C1264 1.574 . S
C1256 C1272 1.368 . S
H1257 C1265 0.950 . S
H1258 C1263 0.950 . S
H1259 C1264 0.949 . S
H1260 C1266 0.950 . S
H1261 C1267 0.950 . S
H1262 C1268 0.949 . S
C1263 H1258 0.950 . S
C1263 C1265 1.327 1_556 S
C1263 C1269 1.429 . S
C1264 C1256 1.574 . S
C1264 H1259 0.949 . S
C1264 C1270 1.368 . S
C1265 C1249 1.349 . S
C1265 H1257 0.950 . S
C1265 C1263 1.327 1_554 S
C1266 C1254 1.349 . S
C1266 H1260 0.950 . S
C1266 C1267 1.327 . S
C1267 H1261 0.950 . S
C1267 C1266 1.327 . S
C1267 C1271 1.429 . S
C1268 C1251 1.574 . S
C1268 H1262 0.949 . S
C1268 C1272 1.368 . S
C1269 C1250 1.429 . S
C1269 C1263 1.429 . S
C1269 C1270 1.523 . S
C1270 C1251 1.368 . S
C1270 C1264 1.368 . S
C1270 C1269 1.523 . S
C1271 C1255 1.429 . S
C1271 C1267 1.429 . S
C1271 C1272 1.523 . S
C1272 C1256 1.368 . S
C1272 C1268 1.368 . S
C1272 C1271 1.523 . S
H1273 C1248 0.947 1_554 S
H1274 C1250 0.950 . S
H1275 C1251 0.949 . S
H1276 C1253 0.950 . S
H1277 C1255 0.950 . S
C1278 C1279 1.349 . S
C1278 C1280 1.327 . S
C1278 H1303 0.950 . S
C1279 C1278 1.349 . S
C1279 C1295 1.349 . S
C1280 C1278 1.327 . S
C1280 C1299 1.429 . S
C1280 H1304 0.950 . S
C1281 C1298 1.574 . S
C1281 C1300 1.368 . S
C1281 H1305 0.949 . S
H1282 C1286 0.949 . S
C1283 C1284 1.349 . S
C1283 C1285 1.327 . S
C1283 H1306 0.950 . S
C1284 C1283 1.349 . S
C1284 C1296 1.349 . S
C1285 C1283 1.327 . S
C1285 C1301 1.429 . S
C1285 H1307 0.950 . S
C1286 H1282 0.949 . S
C1286 C1294 1.574 1_556 S
C1286 C1302 1.368 . S
H1287 C1295 0.950 . S
H1288 C1293 0.950 . S
H1289 C1294 0.949 . S
H1290 C1296 0.950 . S
H1291 C1297 0.950 . S
H1292 C1298 0.949 1_556 S
C1293 H1288 0.950 . S
C1293 C1295 1.327 . S
C1293 C1299 1.429 . S
C1294 C1286 1.574 1_554 S
C1294 H1289 0.949 . S
C1294 C1300 1.368 . S
C1295 C1279 1.349 . S
C1295 H1287 0.950 . S
C1295 C1293 1.327 . S
C1296 C1284 1.349 . S
C1296 H1290 0.950 . S
C1296 C1297 1.327 . S
C1297 H1291 0.950 . S
C1297 C1296 1.327 . S
C1297 C1301 1.429 . S
C1298 C1281 1.574 . S
C1298 H1292 0.949 1_554 S
C1298 C1302 1.368 1_554 S
C1299 C1280 1.429 . S
C1299 C1293 1.429 . S
C1299 C1300 1.523 . S
C1300 C1281 1.368 . S
C1300 C1294 1.368 . S
C1300 C1299 1.523 . S
C1301 C1285 1.429 . S
C1301 C1297 1.429 . S
C1301 C1302 1.523 . S
C1302 C1286 1.368 . S
C1302 C1298 1.368 1_556 S
C1302 C1301 1.523 . S
H1303 C1278 0.950 . S
H1304 C1280 0.950 . S
H1305 C1281 0.949 . S
H1306 C1283 0.950 . S
H1307 C1285 0.950 . S
C1308 C1309 1.349 . S
C1308 C1310 1.327 . S
C1308 H1333 0.950 . S
C1309 C1308 1.349 . S
C1309 C1325 1.349 . S
C1310 C1308 1.327 . S
C1310 C1329 1.429 . S
C1310 H1334 0.950 . S
C1311 C1328 1.574 . S
C1311 C1330 1.368 . S
C1311 H1335 0.949 . S
H1312 C1316 0.949 . S
C1313 C1314 1.349 . S
C1313 C1315 1.327 . S
C1313 H1336 0.950 . S
C1314 C1313 1.349 . S
C1314 C1326 1.349 . S
C1315 C1313 1.327 . S
C1315 C1331 1.429 . S
C1315 H1337 0.950 . S
C1316 H1312 0.949 . S
C1316 C1324 1.574 . S
C1316 C1332 1.368 . S
H1317 C1325 0.950 . S
H1318 C1323 0.950 . S
H1319 C1324 0.949 . S
H1320 C1326 0.950 . S
H1321 C1327 0.950 . S
H1322 C1328 0.949 . S
C1323 H1318 0.950 . S
C1323 C1325 1.327 . S
C1323 C1329 1.429 . S
C1324 C1316 1.574 . S
C1324 H1319 0.949 . S
C1324 C1330 1.368 . S
C1325 C1309 1.349 . S
C1325 H1317 0.950 . S
C1325 C1323 1.327 . S
C1326 C1314 1.349 . S
C1326 H1320 0.950 . S
C1326 C1327 1.327 . S
C1327 H1321 0.950 . S
C1327 C1326 1.327 . S
C1327 C1331 1.429 . S
C1328 C1311 1.574 . S
C1328 H1322 0.949 . S
C1328 C1332 1.368 . S
C1329 C1310 1.429 . S
C1329 C1323 1.429 . S
C1329 C1330 1.523 . S
C1330 C1311 1.368 . S
C1330 C1324 1.368 . S
C1330 C1329 1.523 . S
C1331 C1315 1.429 . S
C1331 C1327 1.429 . S
C1331 C1332 1.523 . S
C1332 C1316 1.368 . S
C1332 C1328 1.368 . S
C1332 C1331 1.523 . S
H1333 C1308 0.950 . S
H1334 C1310 0.950 . S
H1335 C1311 0.949 . S
H1336 C1313 0.950 . S
H1337 C1315 0.950 . S
C1338 C1339 1.349 . S
C1338 C1340 1.327 . S
C1338 H1363 0.950 . S
C1339 C1338 1.349 . S
C1339 C1355 1.349 . S
C1340 C1338 1.327 . S
C1340 C1359 1.429 . S
C1340 H1364 0.950 . S
C1341 C1358 1.574 . S
C1341 C1360 1.368 . S
C1341 H1365 0.949 . S
H1342 C1346 0.949 . S
C1343 C1344 1.349 . S
C1343 C1345 1.327 . S
C1343 H1366 0.950 . S
C1344 C1343 1.349 . S
C1344 C1356 1.349 . S
C1345 C1343 1.327 . S
C1345 C1361 1.429 . S
C1345 H1367 0.950 . S
C1346 H1342 0.949 . S
C1346 C1354 1.574 . S
C1346 C1362 1.368 . S
H1347 C1355 0.950 . S
H1348 C1353 0.950 . S
H1349 C1354 0.949 . S
H1350 C1356 0.950 . S
H1351 C1357 0.950 . S
H1352 C1358 0.949 . S
C1353 H1348 0.950 . S
C1353 C1355 1.327 . S
C1353 C1359 1.429 . S
C1354 C1346 1.574 . S
C1354 H1349 0.949 . S
C1354 C1360 1.368 . S
C1355 C1339 1.349 . S
C1355 H1347 0.950 . S
C1355 C1353 1.327 . S
C1356 C1344 1.349 . S
C1356 H1350 0.950 . S
C1356 C1357 1.327 . S
C1357 H1351 0.950 . S
C1357 C1356 1.327 . S
C1357 C1361 1.429 . S
C1358 C1341 1.574 . S
C1358 H1352 0.949 . S
C1358 C1362 1.368 . S
C1359 C1340 1.429 . S
C1359 C1353 1.429 . S
C1359 C1360 1.523 . S
C1360 C1341 1.368 . S
C1360 C1354 1.368 . S
C1360 C1359 1.523 . S
C1361 C1345 1.429 . S
C1361 C1357 1.429 . S
C1361 C1362 1.523 . S
C1362 C1346 1.368 . S
C1362 C1358 1.368 . S
C1362 C1361 1.523 . S
H1363 C1338 0.950 . S
H1364 C1340 0.950 . S
H1365 C1341 0.949 . S
H1366 C1343 0.950 . S
H1367 C1345 0.950 . S
C1368 C1369 1.349 . S
C1368 C1370 1.327 . S
C1368 H1393 0.950 . S
C1369 C1368 1.349 . S
C1369 C1385 1.349 . S
C1370 C1368 1.327 . S
C1370 C1389 1.429 . S
C1370 H1394 0.950 . S
C1371 C1388 1.574 . S
C1371 C1390 1.368 . S
C1371 H1395 0.949 . S
H1372 C1376 0.949 . S
C1373 C1374 1.349 1_554 S
C1373 C1375 1.327 . S
C1373 H1396 0.950 1_554 S
C1374 C1373 1.349 1_556 S
C1374 C1386 1.349 . S
C1375 C1373 1.327 . S
C1375 C1391 1.429 . S
C1375 H1397 0.950 . S
C1376 H1372 0.949 . S
C1376 C1384 1.574 . S
C1376 C1392 1.368 . S
H1377 C1385 0.950 . S
H1378 C1383 0.950 . S
H1379 C1384 0.949 . S
H1380 C1386 0.950 . S
H1381 C1387 0.950 . S
H1382 C1388 0.949 . S
C1383 H1378 0.950 . S
C1383 C1385 1.327 . S
C1383 C1389 1.429 . S
C1384 C1376 1.574 . S
C1384 H1379 0.949 . S
C1384 C1390 1.368 . S
C1385 C1369 1.349 . S
C1385 H1377 0.950 . S
C1385 C1383 1.327 . S
C1386 C1374 1.349 . S
C1386 H1380 0.950 . S
C1386 C1387 1.327 1_556 S
C1387 H1381 0.950 . S
C1387 C1386 1.327 1_554 S
C1387 C1391 1.429 . S
C1388 C1371 1.574 . S
C1388 H1382 0.949 . S
C1388 C1392 1.368 . S
C1389 C1370 1.429 . S
C1389 C1383 1.429 . S
C1389 C1390 1.523 . S
C1390 C1371 1.368 . S
C1390 C1384 1.368 . S
C1390 C1389 1.523 . S
C1391 C1375 1.429 . S
C1391 C1387 1.429 . S
C1391 C1392 1.523 . S
C1392 C1376 1.368 . S
C1392 C1388 1.368 . S
C1392 C1391 1.523 . S
H1393 C1368 0.950 . S
H1394 C1370 0.950 . S
H1395 C1371 0.949 . S
H1396 C1373 0.950 1_556 S
H1397 C1375 0.950 . S
C1398 C1399 1.349 . S
C1398 C1400 1.327 . S
C1398 H1423 0.950 . S
C1399 C1398 1.349 . S
C1399 C1415 1.349 . S
C1400 C1398 1.327 . S
C1400 C1419 1.429 . S
C1400 H1424 0.950 . S
C1401 C1418 1.574 . S
C1401 C1420 1.368 . S
C1401 H1425 0.949 . S
H1402 C1406 0.949 . S
C1403 C1404 1.349 . S
C1403 C1405 1.327 . S
C1403 H1426 0.950 . S
C1404 C1403 1.349 . S
C1404 C1416 1.349 . S
C1405 C1403 1.327 . S
C1405 C1421 1.429 . S
C1405 H1427 0.950 . S
C1406 H1402 0.949 . S
C1406 C1414 1.574 . S
C1406 C1422 1.368 . S
H1407 C1415 0.950 . S
H1408 C1413 0.950 . S
H1409 C1414 0.949 . S
H1410 C1416 0.950 . S
H1411 C1417 0.950 . S
H1412 C1418 0.949 . S
C1413 H1408 0.950 . S
C1413 C1415 1.327 . S
C1413 C1419 1.429 . S
C1414 C1406 1.574 . S
C1414 H1409 0.949 . S
C1414 C1420 1.368 . S
C1415 C1399 1.349 . S
C1415 H1407 0.950 . S
C1415 C1413 1.327 . S
C1416 C1404 1.349 . S
C1416 H1410 0.950 . S
C1416 C1417 1.327 . S
C1417 H1411 0.950 . S
C1417 C1416 1.327 . S
C1417 C1421 1.429 . S
C1418 C1401 1.574 . S
C1418 H1412 0.949 . S
C1418 C1422 1.368 . S
C1419 C1400 1.429 . S
C1419 C1413 1.429 . S
C1419 C1420 1.523 . S
C1420 C1401 1.368 . S
C1420 C1414 1.368 . S
C1420 C1419 1.523 . S
C1421 C1405 1.429 . S
C1421 C1417 1.429 . S
C1421 C1422 1.523 . S
C1422 C1406 1.368 . S
C1422 C1418 1.368 . S
C1422 C1421 1.523 . S
H1423 C1398 0.950 . S
H1424 C1400 0.950 . S
H1425 C1401 0.949 . S
H1426 C1403 0.950 . S
H1427 C1405 0.950 . S
C1428 C1429 1.349 . S
C1428 C1430 1.327 . S
C1428 H1453 0.950 . S
C1429 C1428 1.349 . S
C1429 C1445 1.349 . S
C1430 C1428 1.327 . S
C1430 C1449 1.429 . S
C1430 H1454 0.950 . S
C1431 C1448 1.574 . S
C1431 C1450 1.368 . S
C1431 H1455 0.949 . S
H1432 C1436 0.949 . S
C1433 C1434 1.349 . S
C1433 C1435 1.327 . S
C1433 H1456 0.950 . S
C1434 C1433 1.349 . S
C1434 C1446 1.349 . S
C1435 C1433 1.327 . S
C1435 C1451 1.429 . S
C1435 H1457 0.950 . S
C1436 H1432 0.949 . S
C1436 C1444 1.574 . S
C1436 C1452 1.368 . S
H1437 C1445 0.950 . S
H1438 C1443 0.950 . S
H1439 C1444 0.949 . S
H1440 C1446 0.950 . S
H1441 C1447 0.950 . S
H1442 C1448 0.949 . S
C1443 H1438 0.950 . S
C1443 C1445 1.327 . S
C1443 C1449 1.429 . S
C1444 C1436 1.574 . S
C1444 H1439 0.949 . S
C1444 C1450 1.368 . S
C1445 C1429 1.349 . S
C1445 H1437 0.950 . S
C1445 C1443 1.327 . S
C1446 C1434 1.349 . S
C1446 H1440 0.950 . S
C1446 C1447 1.327 . S
C1447 H1441 0.950 . S
C1447 C1446 1.327 . S
C1447 C1451 1.429 . S
C1448 C1431 1.574 . S
C1448 H1442 0.949 . S
C1448 C1452 1.368 . S
C1449 C1430 1.429 . S
C1449 C1443 1.429 . S
C1449 C1450 1.523 . S
C1450 C1431 1.368 . S
C1450 C1444 1.368 . S
C1450 C1449 1.523 . S
C1451 C1435 1.429 . S
C1451 C1447 1.429 . S
C1451 C1452 1.523 . S
C1452 C1436 1.368 . S
C1452 C1448 1.368 . S
C1452 C1451 1.523 . S
H1453 C1428 0.950 . S
H1454 C1430 0.950 . S
H1455 C1431 0.949 . S
H1456 C1433 0.950 . S
H1457 C1435 0.950 . S
C1458 C1459 1.349 . S
C1458 C1460 1.327 . S
C1458 H1483 0.950 . S
C1459 C1458 1.349 . S
C1459 C1475 1.349 . S
C1460 C1458 1.327 . S
C1460 C1479 1.429 . S
C1460 H1484 0.950 . S
C1461 C1478 1.574 1_556 S
C1461 C1480 1.368 . S
C1461 H1485 0.949 . S
H1462 C1466 0.949 1_554 S
C1463 C1464 1.349 . S
C1463 C1465 1.327 . S
C1463 H1486 0.950 . S
C1464 C1463 1.349 . S
C1464 C1476 1.349 . S
C1465 C1463 1.327 . S
C1465 C1481 1.429 . S
C1465 H1487 0.950 . S
C1466 H1462 0.949 1_556 S
C1466 C1474 1.574 . S
C1466 C1482 1.368 1_556 S
H1467 C1475 0.950 . S
H1468 C1473 0.950 . S
H1469 C1474 0.949 . S
H1470 C1476 0.950 . S
H1471 C1477 0.950 . S
H1472 C1478 0.949 . S
C1473 H1468 0.950 . S
C1473 C1475 1.327 . S
C1473 C1479 1.429 . S
C1474 C1466 1.574 . S
C1474 H1469 0.949 . S
C1474 C1480 1.368 . S
C1475 C1459 1.349 . S
C1475 H1467 0.950 . S
C1475 C1473 1.327 . S
C1476 C1464 1.349 . S
C1476 H1470 0.950 . S
C1476 C1477 1.327 . S
C1477 H1471 0.950 . S
C1477 C1476 1.327 . S
C1477 C1481 1.429 . S
C1478 C1461 1.574 1_554 S
C1478 H1472 0.949 . S
C1478 C1482 1.368 . S
C1479 C1460 1.429 . S
C1479 C1473 1.429 . S
C1479 C1480 1.523 . S
C1480 C1461 1.368 . S
C1480 C1474 1.368 . S
C1480 C1479 1.523 . S
C1481 C1465 1.429 . S
C1481 C1477 1.429 . S
C1481 C1482 1.523 . S
C1482 C1466 1.368 1_554 S
C1482 C1478 1.368 . S
C1482 C1481 1.523 . S
H1483 C1458 0.950 . S
H1484 C1460 0.950 . S
H1485 C1461 0.949 . S
H1486 C1463 0.950 . S
H1487 C1465 0.950 . S
C1488 C1489 1.349 . S
C1488 C1490 1.327 . S
C1488 H1513 0.950 . S
C1489 C1488 1.349 . S
C1489 C1505 1.349 . S
C1490 C1488 1.327 . S
C1490 C1509 1.429 . S
C1490 H1514 0.950 . S
C1491 C1508 1.574 1_554 S
C1491 C1510 1.368 . S
C1491 H1515 0.949 . S
H1492 C1496 0.949 . S
C1493 C1494 1.349 . S
C1493 C1495 1.327 . S
C1493 H1516 0.950 . S
C1494 C1493 1.349 . S
C1494 C1506 1.349 . S
C1495 C1493 1.327 . S
C1495 C1511 1.429 . S
C1495 H1517 0.950 . S
C1496 H1492 0.949 . S
C1496 C1504 1.571 1_556 S
C1496 C1512 1.368 . S
H1497 C1505 0.950 . S
H1498 C1503 0.950 . S
H1499 C1504 0.950 . S
H1500 C1506 0.950 . S
H1501 C1507 0.950 . S
H1502 C1508 0.949 . S
C1503 H1498 0.950 . S
C1503 C1505 1.327 . S
C1503 C1509 1.429 . S
C1504 C1496 1.571 1_554 S
C1504 H1499 0.950 . S
C1504 C1510 1.369 . S
C1505 C1489 1.349 . S
C1505 H1497 0.950 . S
C1505 C1503 1.327 . S
C1506 C1494 1.349 . S
C1506 H1500 0.950 . S
C1506 C1507 1.327 . S
C1507 H1501 0.950 . S
C1507 C1506 1.327 . S
C1507 C1511 1.429 . S
C1508 C1491 1.574 1_556 S
C1508 H1502 0.949 . S
C1508 C1512 1.368 . S
C1509 C1490 1.429 . S
C1509 C1503 1.429 . S
C1509 C1510 1.523 . S
C1510 C1491 1.368 . S
C1510 C1504 1.369 . S
C1510 C1509 1.523 . S
C1511 C1495 1.429 . S
C1511 C1507 1.429 . S
C1511 C1512 1.523 . S
C1512 C1496 1.368 . S
C1512 C1508 1.368 . S
C1512 C1511 1.523 . S
H1513 C1488 0.950 . S
H1514 C1490 0.950 . S
H1515 C1491 0.949 . S
H1516 C1493 0.950 . S
H1517 C1495 0.950 . S
C1518 C1519 1.349 . S
C1518 C1520 1.327 . S
C1518 H1543 0.950 . S
C1519 C1518 1.349 . S
C1519 C1535 1.349 . S
C1520 C1518 1.327 . S
C1520 C1539 1.429 . S
C1520 H1544 0.950 . S
C1521 C1538 1.574 . S
C1521 C1540 1.368 . S
C1521 H1545 0.949 . S
H1522 C1526 0.949 . S
C1523 C1524 1.349 . S
C1523 C1525 1.327 . S
C1523 H1546 0.950 . S
C1524 C1523 1.349 . S
C1524 C1536 1.349 . S
C1525 C1523 1.327 . S
C1525 C1541 1.429 . S
C1525 H1547 0.950 . S
C1526 H1522 0.949 . S
C1526 C1534 1.574 . S
C1526 C1542 1.368 . S
H1527 C1535 0.950 . S
H1528 C1533 0.950 . S
H1529 C1534 0.949 . S
H1530 C1536 0.950 . S
H1531 C1537 0.950 . S
H1532 C1538 0.949 . S
C1533 H1528 0.950 . S
C1533 C1535 1.327 . S
C1533 C1539 1.429 . S
C1534 C1526 1.574 . S
C1534 H1529 0.949 . S
C1534 C1540 1.368 . S
C1535 C1519 1.349 . S
C1535 H1527 0.950 . S
C1535 C1533 1.327 . S
C1536 C1524 1.349 . S
C1536 H1530 0.950 . S
C1536 C1537 1.327 . S
C1537 H1531 0.950 . S
C1537 C1536 1.327 . S
C1537 C1541 1.429 . S
C1538 C1521 1.574 . S
C1538 H1532 0.949 . S
C1538 C1542 1.368 . S
C1539 C1520 1.429 . S
C1539 C1533 1.429 . S
C1539 C1540 1.523 . S
C1540 C1521 1.368 . S
C1540 C1534 1.368 . S
C1540 C1539 1.523 . S
C1541 C1525 1.429 . S
C1541 C1537 1.429 . S
C1541 C1542 1.523 . S
C1542 C1526 1.368 . S
C1542 C1538 1.368 . S
C1542 C1541 1.523 . S
H1543 C1518 0.950 . S
H1544 C1520 0.950 . S
H1545 C1521 0.949 . S
H1546 C1523 0.950 . S
H1547 C1525 0.950 . S
C1548 C1549 1.349 . S
C1548 C1550 1.327 . S
C1548 H1573 0.950 . S
C1549 C1548 1.349 . S
C1549 C1565 1.349 . S
C1550 C1548 1.327 . S
C1550 C1569 1.429 . S
C1550 H1574 0.950 . S
C1551 C1568 1.574 . S
C1551 C1570 1.368 . S
C1551 H1575 0.949 . S
H1552 C1556 0.949 . S
C1553 C1554 1.349 . S
C1553 C1555 1.327 . S
C1553 H1576 0.950 . S
C1554 C1553 1.349 . S
C1554 C1566 1.349 . S
C1555 C1553 1.327 . S
C1555 C1571 1.429 . S
C1555 H1577 0.950 . S
C1556 H1552 0.949 . S
C1556 C1564 1.574 . S
C1556 C1572 1.368 . S
H1557 C1565 0.950 . S
H1558 C1563 0.950 . S
H1559 C1564 0.949 . S
H1560 C1566 0.950 . S
H1561 C1567 0.950 . S
H1562 C1568 0.949 . S
C1563 H1558 0.950 . S
C1563 C1565 1.327 . S
C1563 C1569 1.429 . S
C1564 C1556 1.574 . S
C1564 H1559 0.949 . S
C1564 C1570 1.368 . S
C1565 C1549 1.349 . S
C1565 H1557 0.950 . S
C1565 C1563 1.327 . S
C1566 C1554 1.349 . S
C1566 H1560 0.950 . S
C1566 C1567 1.327 . S
C1567 H1561 0.950 . S
C1567 C1566 1.327 . S
C1567 C1571 1.429 . S
C1568 C1551 1.574 . S
C1568 H1562 0.949 . S
C1568 C1572 1.368 . S
C1569 C1550 1.429 . S
C1569 C1563 1.429 . S
C1569 C1570 1.523 . S
C1570 C1551 1.368 . S
C1570 C1564 1.368 . S
C1570 C1569 1.523 . S
C1571 C1555 1.429 . S
C1571 C1567 1.429 . S
C1571 C1572 1.523 . S
C1572 C1556 1.368 . S
C1572 C1568 1.368 . S
C1572 C1571 1.523 . S
H1573 C1548 0.950 . S
H1574 C1550 0.950 . S
H1575 C1551 0.949 . S
H1576 C1553 0.950 . S
H1577 C1555 0.950 . S
C1578 C1579 1.349 . S
C1578 C1580 1.327 . S
C1578 H1603 0.950 . S
C1579 C1578 1.349 . S
C1579 C1595 1.349 . S
C1580 C1578 1.327 . S
C1580 C1599 1.429 . S
C1580 H1604 0.950 . S
C1581 C1598 1.574 . S
C1581 C1600 1.368 . S
C1581 H1605 0.949 . S
H1582 C1586 0.949 . S
C1583 C1584 1.349 . S
C1583 C1585 1.327 . S
C1583 H1606 0.950 . S
C1584 C1583 1.349 . S
C1584 C1596 1.349 . S
C1585 C1583 1.327 . S
C1585 C1601 1.429 . S
C1585 H1607 0.950 . S
C1586 H1582 0.949 . S
C1586 C1594 1.574 1_556 S
C1586 C1602 1.368 . S
H1587 C1595 0.950 . S
H1588 C1593 0.950 . S
H1589 C1594 0.949 . S
H1590 C1596 0.950 . S
H1591 C1597 0.950 . S
H1592 C1598 0.949 1_556 S
C1593 H1588 0.950 . S
C1593 C1595 1.327 . S
C1593 C1599 1.429 . S
C1594 C1586 1.574 1_554 S
C1594 H1589 0.949 . S
C1594 C1600 1.368 . S
C1595 C1579 1.349 . S
C1595 H1587 0.950 . S
C1595 C1593 1.327 . S
C1596 C1584 1.349 . S
C1596 H1590 0.950 . S
C1596 C1597 1.327 . S
C1597 H1591 0.950 . S
C1597 C1596 1.327 . S
C1597 C1601 1.429 . S
C1598 C1581 1.574 . S
C1598 H1592 0.949 1_554 S
C1598 C1602 1.368 1_554 S
C1599 C1580 1.429 . S
C1599 C1593 1.429 . S
C1599 C1600 1.523 . S
C1600 C1581 1.368 . S
C1600 C1594 1.368 . S
C1600 C1599 1.523 . S
C1601 C1585 1.429 . S
C1601 C1597 1.429 . S
C1601 C1602 1.523 . S
C1602 C1586 1.368 . S
C1602 C1598 1.368 1_556 S
C1602 C1601 1.523 . S
H1603 C1578 0.950 . S
H1604 C1580 0.950 . S
H1605 C1581 0.949 . S
H1606 C1583 0.950 . S
H1607 C1585 0.950 . S
C1608 C1609 1.349 . S
C1608 C1610 1.327 . S
C1608 H1633 0.950 . S
C1609 C1608 1.349 . S
C1609 C1625 1.349 . S
C1610 C1608 1.327 . S
C1610 C1629 1.429 . S
C1610 H1634 0.950 . S
C1611 C1628 1.574 . S
C1611 C1630 1.368 . S
C1611 H1635 0.949 . S
H1612 C1616 0.949 . S
C1613 C1614 1.349 . S
C1613 C1615 1.327 . S
C1613 H1636 0.950 . S
C1614 C1613 1.349 . S
C1614 C1626 1.349 . S
C1615 C1613 1.327 . S
C1615 C1631 1.429 . S
C1615 H1637 0.950 . S
C1616 H1612 0.949 . S
C1616 C1624 1.574 . S
C1616 C1632 1.368 . S
H1617 C1625 0.950 . S
H1618 C1623 0.950 . S
H1619 C1624 0.949 . S
H1620 C1626 0.950 . S
H1621 C1627 0.950 . S
H1622 C1628 0.949 . S
C1623 H1618 0.950 . S
C1623 C1625 1.327 . S
C1623 C1629 1.429 . S
C1624 C1616 1.574 . S
C1624 H1619 0.949 . S
C1624 C1630 1.368 . S
C1625 C1609 1.349 . S
C1625 H1617 0.950 . S
C1625 C1623 1.327 . S
C1626 C1614 1.349 . S
C1626 H1620 0.950 . S
C1626 C1627 1.327 . S
C1627 H1621 0.950 . S
C1627 C1626 1.327 . S
C1627 C1631 1.429 . S
C1628 C1611 1.574 . S
C1628 H1622 0.949 . S
C1628 C1632 1.368 . S
C1629 C1610 1.429 . S
C1629 C1623 1.429 . S
C1629 C1630 1.523 . S
C1630 C1611 1.368 . S
C1630 C1624 1.368 . S
C1630 C1629 1.523 . S
C1631 C1615 1.429 . S
C1631 C1627 1.429 . S
C1631 C1632 1.523 . S
C1632 C1616 1.368 . S
C1632 C1628 1.368 . S
C1632 C1631 1.523 . S
H1633 C1608 0.950 . S
H1634 C1610 0.950 . S
H1635 C1611 0.949 . S
H1636 C1613 0.950 . S
H1637 C1615 0.950 . S
C1638 C1639 1.341 1_556 S
C1638 C1640 1.341 . S
C1638 H1663 0.944 1_556 S
C1639 C1638 1.341 1_554 S
C1639 C1655 1.349 . S
C1640 C1638 1.341 . S
C1640 C1659 1.429 . S
C1640 H1664 0.950 . S
C1641 C1658 1.574 . S
C1641 C1660 1.368 . S
C1641 H1665 0.949 . S
H1642 C1646 0.949 . S
C1643 C1644 1.349 . S
C1643 C1645 1.327 . S
C1643 H1666 0.950 . S
C1644 C1643 1.349 . S
C1644 C1656 1.349 . S
C1645 C1643 1.327 . S
C1645 C1661 1.429 . S
C1645 H1667 0.950 . S
C1646 H1642 0.949 . S
C1646 C1654 1.574 . S
C1646 C1662 1.368 . S
H1647 C1655 0.950 . S
H1648 C1653 0.950 . S
H1649 C1654 0.949 . S
H1650 C1656 0.950 . S
H1651 C1657 0.950 . S
H1652 C1658 0.949 . S
C1653 H1648 0.950 . S
C1653 C1655 1.327 1_556 S
C1653 C1659 1.429 . S
C1654 C1646 1.574 . S
C1654 H1649 0.949 . S
C1654 C1660 1.368 . S
C1655 C1639 1.349 . S
C1655 H1647 0.950 . S
C1655 C1653 1.327 1_554 S
C1656 C1644 1.349 . S
C1656 H1650 0.950 . S
C1656 C1657 1.327 . S
C1657 H1651 0.950 . S
C1657 C1656 1.327 . S
C1657 C1661 1.429 . S
C1658 C1641 1.574 . S
C1658 H1652 0.949 . S
C1658 C1662 1.368 . S
C1659 C1640 1.429 . S
C1659 C1653 1.429 . S
C1659 C1660 1.523 . S
C1660 C1641 1.368 . S
C1660 C1654 1.368 . S
C1660 C1659 1.523 . S
C1661 C1645 1.429 . S
C1661 C1657 1.429 . S
C1661 C1662 1.523 . S
C1662 C1646 1.368 . S
C1662 C1658 1.368 . S
C1662 C1661 1.523 . S
H1663 C1638 0.944 1_554 S
H1664 C1640 0.950 . S
H1665 C1641 0.949 . S
H1666 C1643 0.950 . S
H1667 C1645 0.950 . S
C1668 C1669 1.349 . S
C1668 C1670 1.327 . S
C1668 H1693 0.950 . S
C1669 C1668 1.349 . S
C1669 C1685 1.349 . S
C1670 C1668 1.327 . S
C1670 C1689 1.429 . S
C1670 H1694 0.950 . S
C1671 C1688 1.574 . S
C1671 C1690 1.368 . S
C1671 H1695 0.949 . S
H1672 C1676 0.949 . S
C1673 C1674 1.349 . S
C1673 C1675 1.327 . S
C1673 H1696 0.950 . S
C1674 C1673 1.349 . S
C1674 C1686 1.349 . S
C1675 C1673 1.327 . S
C1675 C1691 1.429 . S
C1675 H1697 0.950 . S
C1676 H1672 0.949 . S
C1676 C1684 1.574 . S
C1676 C1692 1.368 . S
H1677 C1685 0.950 . S
H1678 C1683 0.950 . S
H1679 C1684 0.949 . S
H1680 C1686 0.950 . S
H1681 C1687 0.950 . S
H1682 C1688 0.949 . S
C1683 H1678 0.950 . S
C1683 C1685 1.327 . S
C1683 C1689 1.429 . S
C1684 C1676 1.574 . S
C1684 H1679 0.949 . S
C1684 C1690 1.368 . S
C1685 C1669 1.349 . S
C1685 H1677 0.950 . S
C1685 C1683 1.327 . S
C1686 C1674 1.349 . S
C1686 H1680 0.950 . S
C1686 C1687 1.327 . S
C1687 H1681 0.950 . S
C1687 C1686 1.327 . S
C1687 C1691 1.429 . S
C1688 C1671 1.574 . S
C1688 H1682 0.949 . S
C1688 C1692 1.368 . S
C1689 C1670 1.429 . S
C1689 C1683 1.429 . S
C1689 C1690 1.523 . S
C1690 C1671 1.368 . S
C1690 C1684 1.368 . S
C1690 C1689 1.523 . S
C1691 C1675 1.429 . S
C1691 C1687 1.429 . S
C1691 C1692 1.523 . S
C1692 C1676 1.368 . S
C1692 C1688 1.368 . S
C1692 C1691 1.523 . S
H1693 C1668 0.950 . S
H1694 C1670 0.950 . S
H1695 C1671 0.949 . S
H1696 C1673 0.950 . S
H1697 C1675 0.950 . S
C1698 C1699 1.349 . S
C1698 C1700 1.327 . S
C1698 H1723 0.950 . S
C1699 C1698 1.349 . S
C1699 C1715 1.349 . S
C1700 C1698 1.327 . S
C1700 C1719 1.429 . S
C1700 H1724 0.950 . S
C1701 C1718 1.574 . S
C1701 C1720 1.368 . S
C1701 H1725 0.949 . S
H1702 C1706 0.949 . S
C1703 C1704 1.349 . S
C1703 C1705 1.327 1_556 S
C1703 H1726 0.950 . S
C1704 C1703 1.349 . S
C1704 C1716 1.349 1_556 S
C1705 C1703 1.327 1_554 S
C1705 C1721 1.429 . S
C1705 H1727 0.950 . S
C1706 H1702 0.949 . S
C1706 C1714 1.574 . S
C1706 C1722 1.368 . S
H1707 C1715 0.950 . S
H1708 C1713 0.950 . S
H1709 C1714 0.949 . S
H1710 C1716 0.950 1_556 S
H1711 C1717 0.950 . S
H1712 C1718 0.949 . S
C1713 H1708 0.950 . S
C1713 C1715 1.327 . S
C1713 C1719 1.429 . S
C1714 C1706 1.574 . S
C1714 H1709 0.949 . S
C1714 C1720 1.368 . S
C1715 C1699 1.349 . S
C1715 H1707 0.950 . S
C1715 C1713 1.327 . S
C1716 C1704 1.349 1_554 S
C1716 H1710 0.950 1_554 S
C1716 C1717 1.327 . S
C1717 H1711 0.950 . S
C1717 C1716 1.327 . S
C1717 C1721 1.429 . S
C1718 C1701 1.574 . S
C1718 H1712 0.949 . S
C1718 C1722 1.368 . S
C1719 C1700 1.429 . S
C1719 C1713 1.429 . S
C1719 C1720 1.523 . S
C1720 C1701 1.368 . S
C1720 C1714 1.368 . S
C1720 C1719 1.523 . S
C1721 C1705 1.429 . S
C1721 C1717 1.429 . S
C1721 C1722 1.523 . S
C1722 C1706 1.368 . S
C1722 C1718 1.368 . S
C1722 C1721 1.523 . S
H1723 C1698 0.950 . S
H1724 C1700 0.950 . S
H1725 C1701 0.949 . S
H1726 C1703 0.950 . S
H1727 C1705 0.950 . S
C529 C238 1.433 . S
C534 C7 1.434 . S
C559 C40 1.433 . S
C564 C139 1.434 . S
C589 C73 1.481 . S
C594 C172 1.483 . S
C619 C205 1.481 . S
C624 C106 1.483 . S
C649 C384 1.479 . S
C654 C153 1.480 . S
C679 C285 1.479 . S
C684 C21 1.480 . S
C709 C219 1.522 . S
C714 C351 1.524 . S
C739 C87 1.522 . S
C744 C318 1.524 . S
C769 C304 1.483 . S
C774 C403 1.481 . S
C799 C469 1.481 . S
C804 C337 1.483 . S
C829 C436 1.434 . S
C834 C271 1.433 . S
C859 C370 1.433 . S
C864 C502 1.434 . S
C889 C120 1.524 . S
C894 C483 1.522 . S
C919 C186 1.524 . S
C924 C417 1.522 . S
C949 C54 1.480 . S
C954 C516 1.481 . S
C979 C252 1.479 . S
C984 C450 1.480 . S
C1009 C18 1.209 . S
C1014 C150 1.209 . S
C1039 C183 1.233 . S
C1044 C51 1.231 . S
C1069 C216 1.382 . S
C1074 C84 1.382 . S
C1099 C117 1.233 . S
C1104 C249 1.231 . S
C1129 C348 1.233 . S
C1134 C282 1.231 . S
C1159 C315 1.233 . S
C1164 C381 1.231 . S
C1189 C414 1.382 . S
C1194 C480 1.382 . S
C1219 C513 1.209 . S
C1224 C447 1.209 . S
C1249 N13 0.715 . S
C1254 N2 0.715 . S
C1279 N46 0.710 . S
C1284 N35 0.710 . S
C1309 N68 0.735 1_554 S
C1314 N79 0.735 . S
C1339 N101 0.717 . S
C1344 N112 0.717 . S
C1369 N134 0.715 . S
C1374 N145 0.715 . S
C1399 N167 0.717 . S
C1404 N178 0.717 . S
C1429 N211 0.735 . S
C1434 N200 0.735 1_556 S
C1459 N244 0.710 . S
C1464 N233 0.710 . S
C1489 N266 0.710 . S
C1494 N277 0.710 . S
C1519 N299 0.717 . S
C1524 N310 0.717 . S
C1549 N343 0.717 . S
C1554 N332 0.717 . S
C1579 N376 0.710 . S
C1584 N365 0.710 . S
C1609 N409 0.735 . S
C1614 N398 0.735 1_554 S
C1639 N442 0.715 . S
C1644 N431 0.715 . S
C1669 N475 0.735 . S
C1674 N464 0.735 1_556 S
C1699 N497 0.715 . S
C1704 N508 0.715 . S
