# Generated by pormake.
# Topology unj, (4)-cn, num edge types: 1
# Building blocks:
#     Node 0, Type 0, BuildingBlock: TATPOV_clean_sbu_0, # of connection points: 4
#     Node 1, Type 0, BuildingBlock: TATPOV_clean_sbu_0, # of connection points: 4
#     Node 2, Type 0, BuildingBlock: TATPOV_clean_sbu_0, # of connection points: 4
#     Node 3, Type 0, BuildingBlock: TATPOV_clean_sbu_0, # of connection points: 4
#     Node 4, Type 0, BuildingBlock: TATPOV_clean_sbu_0, # of connection points: 4
#     Node 5, Type 0, BuildingBlock: TATPOV_clean_sbu_0, # of connection points: 4
#     Edge 6, Type (0, 0), BuildingBlock: XUDNAN_clean_linker_2, # of connection points: 2
#     Edge 7, Type (0, 0), BuildingBlock: XUDNAN_clean_linker_2, # of connection points: 2
#     Edge 8, Type (0, 0), BuildingBlock: XUDNAN_clean_linker_2, # of connection points: 2
#     Edge 9, Type (0, 0), BuildingBlock: XUDNAN_clean_linker_2, # of connection points: 2
#     Edge 10, Type (0, 0), BuildingBlock: XUDNAN_clean_linker_2, # of connection points: 2
#     Edge 11, Type (0, 0), BuildingBlock: XUDNAN_clean_linker_2, # of connection points: 2
#     Edge 12, Type (0, 0), BuildingBlock: XUDNAN_clean_linker_2, # of connection points: 2
#     Edge 13, Type (0, 0), BuildingBlock: XUDNAN_clean_linker_2, # of connection points: 2
#     Edge 14, Type (0, 0), BuildingBlock: XUDNAN_clean_linker_2, # of connection points: 2
#     Edge 15, Type (0, 0), BuildingBlock: XUDNAN_clean_linker_2, # of connection points: 2
#     Edge 16, Type (0, 0), BuildingBlock: XUDNAN_clean_linker_2, # of connection points: 2
#     Edge 17, Type (0, 0), BuildingBlock: XUDNAN_clean_linker_2, # of connection points: 2
# Relax obj value: 0.021
# Max RMSD: 0.060
# Mean RMSD: 0.060
data_MOF--net-unj--node1-TATPOV_clean_sbu_0--edge1-XUDNAN_clean_linker_2
_symmetry_space_group_name_H-M    P1
_symmetry_Int_Tables_number       1
_symmetry_cell_setting            triclinic
loop_
_symmetry_equiv_pos_as_xyz
'x, y, z'
_cell_length_a     34.029981
_cell_length_b     34.07928
_cell_length_c     35.305066
_cell_angle_alpha  90.025543
_cell_angle_beta   89.999797
_cell_angle_gamma 120.12518
loop_
_atom_site_label
_atom_site_type_symbol
_atom_site_fract_x
_atom_site_fract_y
_atom_site_fract_z
_atom_type_partial_charge
Zn0 Zn 0.43497 0.13939 0.63977 0.0
Zn1 Zn 0.46908 0.17578 0.57336 0.0
O2 O 0.44301 0.21528 0.59286 0.0
O3 O 0.42127 0.18899 0.65055 0.0
O4 O 0.49459 0.20289 0.52189 0.0
O5 O 0.38719 0.08261 0.61535 0.0
O6 O 0.41933 0.10991 0.56005 0.0
C7 C 0.42675 0.21717 0.62486 0.0
C8 C 0.52947 0.17231 0.63731 0.0
O9 O 0.52514 0.1862 0.60483 0.0
O10 O 0.49459 0.14762 0.65706 0.0
C11 C 0.51213 0.24544 0.51739 0.0
O12 O 0.51533 0.27064 0.5467 0.0
C13 C 0.38852 0.07811 0.57991 0.0
Zn14 Zn 0.28442 0.42702 0.8013 0.0
Zn15 Zn 0.28566 0.47833 0.7437 0.0
O16 O 0.218 0.43956 0.75727 0.0
O17 O 0.21633 0.39627 0.80412 0.0
O18 O 0.28209 0.5131 0.699 0.0
O19 O 0.31435 0.40118 0.76916 0.0
O20 O 0.31515 0.44308 0.72148 0.0
C21 C 0.19571 0.40879 0.7817 0.0
C22 C 0.33306 0.52256 0.81852 0.0
O23 O 0.32223 0.52657 0.78471 0.0
O24 O 0.32162 0.48369 0.83163 0.0
C25 C 0.30762 0.52508 0.66995 0.0
O26 O 0.34165 0.51724 0.66864 0.0
C27 C 0.32406 0.41377 0.73506 0.0
Zn28 Zn 0.84974 0.28986 0.95865 0.0
Zn29 Zn 0.79701 0.28522 0.90077 0.0
O30 O 0.76404 0.22085 0.92293 0.0
O31 O 0.80482 0.22542 0.97286 0.0
O32 O 0.75842 0.27728 0.8548 0.0
O33 O 0.90123 0.30274 0.92387 0.0
O34 O 0.85989 0.30527 0.87707 0.0
C35 C 0.77054 0.20257 0.9519 0.0
C36 C 0.81435 0.35085 0.96591 0.0
O37 O 0.79235 0.33149 0.93582 0.0
O38 O 0.84252 0.34078 0.97968 0.0
C39 C 0.77379 0.29912 0.82401 0.0
O40 O 0.81645 0.33167 0.82222 0.0
C41 C 0.89696 0.30922 0.88921 0.0
Zn42 Zn 0.56253 0.85668 0.14165 0.0
Zn43 Zn 0.50835 0.80689 0.08401 0.0
O44 O 0.54232 0.7733 0.09845 0.0
O45 O 0.5858 0.81292 0.14612 0.0
O46 O 0.47231 0.77249 0.03806 0.0
O47 O 0.59421 0.91129 0.10773 0.0
O48 O 0.54785 0.87065 0.06183 0.0
C49 C 0.57142 0.77937 0.12384 0.0
C50 C 0.46647 0.81776 0.1572 0.0
O51 O 0.46152 0.80061 0.12419 0.0
O52 O 0.50593 0.84356 0.17034 0.0
C53 C 0.45616 0.72996 0.03509 0.0
O54 O 0.46008 0.70763 0.06379 0.0
C55 C 0.58047 0.90808 0.07395 0.0
Zn56 Zn 0.69342 0.55062 0.2962 0.0
Zn57 Zn 0.69958 0.50545 0.23732 0.0
O58 O 0.76351 0.5404 0.26074 0.0
O59 O 0.75867 0.57595 0.31089 0.0
O60 O 0.71561 0.48077 0.19177 0.0
O61 O 0.67531 0.58555 0.26191 0.0
O62 O 0.6747 0.54428 0.2137 0.0
C63 C 0.78193 0.5657 0.28945 0.0
C64 C 0.63766 0.45255 0.30294 0.0
O65 O 0.65508 0.45146 0.27117 0.0
O66 O 0.64731 0.49029 0.3176 0.0
C67 C 0.69436 0.46175 0.16148 0.0
O68 O 0.6519 0.4515 0.15724 0.0
C69 C 0.66843 0.57545 0.22712 0.0
Zn70 Zn 0.12295 0.68476 0.48043 0.0
Zn71 Zn 0.17842 0.70642 0.42093 0.0
O72 O 0.19971 0.76954 0.44388 0.0
O73 O 0.15211 0.75143 0.49173 0.0
O74 O 0.2147 0.7184 0.37301 0.0
O75 O 0.06726 0.65586 0.44797 0.0
O76 O 0.11335 0.67477 0.39912 0.0
C77 C 0.18475 0.78119 0.47227 0.0
C78 C 0.18259 0.64811 0.48542 0.0
O79 O 0.19706 0.66831 0.45375 0.0
O80 O 0.15015 0.64906 0.50212 0.0
C81 C 0.25599 0.74916 0.36929 0.0
O82 O 0.27776 0.77497 0.39844 0.0
C83 C 0.07327 0.65704 0.41255 0.0
H84 H 0.39248 0.02705 0.52078 0.0
H85 H 0.30035 0.0377 0.59948 0.0
H86 H 0.23644 0.96783 0.57337 0.0
H87 H 0.3103 0.97465 0.44062 0.0
H88 H 0.33107 0.93695 0.42839 0.0
H89 H 0.36903 0.99172 0.44882 0.0
H90 H 0.38972 0.95317 0.50228 0.0
H91 H 0.35198 0.89844 0.48197 0.0
H92 H 0.34502 0.90971 0.53066 0.0
H93 H 0.18445 0.89491 0.54432 0.0
H94 H 0.14687 0.81866 0.51624 0.0
H95 H 0.27132 0.85119 0.45675 0.0
C96 C 0.35861 0.01501 0.53175 0.0
C97 C 0.35106 0.0377 0.5619 0.0
C98 C 0.30666 0.02062 0.5764 0.0
C99 C 0.27012 0.98122 0.56156 0.0
C100 C 0.27855 0.95906 0.53236 0.0
C101 C 0.32159 0.97495 0.51764 0.0
C102 C 0.32167 0.94152 0.48922 0.0
C103 C 0.33373 0.96247 0.4494 0.0
C104 C 0.354 0.92472 0.50181 0.0
C105 C 0.27233 0.90396 0.49132 0.0
C106 C 0.24809 0.91546 0.51587 0.0
C107 C 0.2028 0.88561 0.52466 0.0
C108 C 0.18182 0.8423 0.50866 0.0
C109 C 0.20616 0.82905 0.48429 0.0
C110 C 0.25172 0.86069 0.4748 0.0
H111 H 0.40375 0.23651 0.69316 0.0
H112 H 0.42347 0.27813 0.57524 0.0
H113 H 0.40237 0.33628 0.59043 0.0
H114 H 0.30743 0.24689 0.71016 0.0
H115 H 0.32403 0.26766 0.75782 0.0
H116 H 0.34221 0.23108 0.73731 0.0
H117 H 0.42621 0.29133 0.75107 0.0
H118 H 0.40828 0.32819 0.77159 0.0
H119 H 0.44881 0.34824 0.73332 0.0
H120 H 0.3755 0.38809 0.61945 0.0
H121 H 0.34616 0.42792 0.65905 0.0
H122 H 0.34664 0.35114 0.75698 0.0
C123 C 0.40377 0.25778 0.67037 0.0
C124 C 0.41501 0.25262 0.63297 0.0
C125 C 0.41487 0.28148 0.60414 0.0
C126 C 0.40301 0.31459 0.61251 0.0
C127 C 0.39185 0.31851 0.64984 0.0
C128 C 0.39242 0.29089 0.67822 0.0
C129 C 0.37858 0.30093 0.71595 0.0
C130 C 0.3355 0.25917 0.73118 0.0
C131 C 0.41781 0.31821 0.74466 0.0
C132 C 0.36928 0.33809 0.70442 0.0
C133 C 0.37722 0.34812 0.66629 0.0
C134 C 0.36949 0.38066 0.64938 0.0
C135 C 0.35285 0.4031 0.67207 0.0
C136 C 0.34412 0.3927 0.71113 0.0
C137 C 0.35302 0.36009 0.72728 0.0
H138 H 0.96951 0.29795 0.90156 0.0
H139 H 0.91151 0.34829 0.81857 0.0
H140 H 0.97941 0.37333 0.77797 0.0
H141 H 0.08081 0.38607 0.89523 0.0
H142 H 0.10603 0.35085 0.90073 0.0
H143 H 0.05116 0.33332 0.92089 0.0
H144 H 0.01708 0.2573 0.88405 0.0
H145 H 0.07198 0.27467 0.86371 0.0
H146 H 0.02357 0.25809 0.83333 0.0
H147 H 0.05794 0.40011 0.75018 0.0
H148 H 0.13843 0.42428 0.73714 0.0
H149 H 0.14177 0.35313 0.83795 0.0
C150 C 0.97075 0.31378 0.87465 0.0
C151 C 0.93541 0.3214 0.86325 0.0
C152 C 0.93824 0.34204 0.82776 0.0
C153 C 0.97661 0.3563 0.80454 0.0
C154 C 0.01126 0.34889 0.81703 0.0
C155 C 0.00829 0.32763 0.85111 0.0
C156 C 0.05068 0.32536 0.85917 0.0
C157 C 0.0735 0.35041 0.89618 0.0
C158 C 0.04019 0.27591 0.8601 0.0
C159 C 0.07879 0.35009 0.82494 0.0
C160 C 0.05554 0.36318 0.80072 0.0
C161 C 0.07616 0.38935 0.76861 0.0
C162 C 0.12188 0.40297 0.76147 0.0
C163 C 0.14633 0.39037 0.78639 0.0
C164 C 0.12397 0.36284 0.81802 0.0
H165 H 0.65841 0.98813 0.08768 0.0
H166 H 0.55339 0.91796 0.00294 0.0
H167 H 0.59132 0.98527 0.96127 0.0
H168 H 0.67185 0.09769 0.07471 0.0
H169 H 0.73251 0.12709 0.08167 0.0
H170 H 0.69718 0.07317 0.10421 0.0
H171 H 0.74461 0.04146 0.07312 0.0
H172 H 0.78006 0.09529 0.05042 0.0
H173 H 0.75162 0.04426 0.0224 0.0
H174 H 0.64024 0.06182 0.9298 0.0
H175 H 0.69656 0.14029 0.91091 0.0
H176 H 0.76934 0.15785 0.01635 0.0
C177 C 0.64326 0.98678 0.06038 0.0
C178 C 0.60286 0.94786 0.04861 0.0
C179 C 0.58437 0.94746 0.01254 0.0
C180 C 0.60565 0.98549 0.98869 0.0
C181 C 0.64546 0.02336 0.00129 0.0
C182 C 0.66411 0.02412 0.03624 0.0
C183 C 0.70705 0.06878 0.04332 0.0
C184 C 0.7018 0.09311 0.07802 0.0
C185 C 0.74826 0.06202 0.04755 0.0
C186 C 0.70949 0.09333 0.00703 0.0
C187 C 0.67376 0.06673 0.98307 0.0
C188 C 0.66851 0.08286 0.94825 0.0
C189 C 0.70062 0.12743 0.93779 0.0
C190 C 0.73745 0.15514 0.96207 0.0
C191 C 0.74183 0.13752 0.99698 0.0
H192 H 0.67614 0.65705 0.24243 0.0
H193 H 0.62819 0.55184 0.15656 0.0
H194 H 0.60118 0.59456 0.11798 0.0
H195 H 0.58579 0.67851 0.23746 0.0
H196 H 0.62091 0.7388 0.24463 0.0
H197 H 0.63807 0.70081 0.2638 0.0
H198 H 0.71498 0.74456 0.22828 0.0
H199 H 0.69802 0.78273 0.20896 0.0
H200 H 0.71524 0.75223 0.17774 0.0
H201 H 0.57446 0.64744 0.0915 0.0
H202 H 0.55329 0.70598 0.07881 0.0
H203 H 0.62233 0.77614 0.18194 0.0
C204 C 0.66016 0.64293 0.21542 0.0
C205 C 0.65397 0.601 0.20255 0.0
C206 C 0.63328 0.58399 0.1669 0.0
C207 C 0.61785 0.608 0.14486 0.0
C208 C 0.6241 0.64912 0.15874 0.0
C209 C 0.6452 0.66652 0.19309 0.0
C210 C 0.64733 0.71078 0.20236 0.0
C211 C 0.62147 0.70696 0.23923 0.0
C212 C 0.69684 0.74988 0.20444 0.0
C213 C 0.62325 0.71535 0.16825 0.0
C214 C 0.61005 0.67965 0.14326 0.0
C215 C 0.58517 0.67581 0.11067 0.0
C216 C 0.57328 0.70918 0.10372 0.0
C217 C 0.58644 0.74584 0.12924 0.0
C218 C 0.61219 0.74894 0.16158 0.0
H219 H 0.98952 0.64333 0.43039 0.0
H220 H 0.06824 0.63574 0.33688 0.0
H221 H 0.00225 0.61204 0.29419 0.0
H222 H 0.88169 0.54804 0.40466 0.0
H223 H 0.8503 0.57513 0.41926 0.0
H224 H 0.90321 0.58967 0.44208 0.0
H225 H 0.93423 0.67442 0.42579 0.0
H226 H 0.88154 0.66008 0.40264 0.0
H227 H 0.9344 0.69073 0.37719 0.0
H228 H 0.92624 0.58773 0.26232 0.0
H229 H 0.84802 0.56721 0.24374 0.0
H230 H 0.8226 0.5957 0.35812 0.0
C231 C -0.00715 0.63623 0.40103 0.0
C232 C 0.03381 0.6409 0.38698 0.0
C233 C 0.03702 0.63214 0.34821 0.0
C234 C -0.00021 0.61872 0.32381 0.0
C235 C 0.95999 0.61484 0.33861 0.0
C236 C 0.95649 0.62358 0.37631 0.0
C237 C 0.91069 0.61836 0.3852 0.0
C238 C 0.88496 0.58055 0.41452 0.0
C239 C 0.91553 0.6636 0.39848 0.0
C240 C 0.88866 0.60498 0.34665 0.0
C241 C 0.91738 0.60281 0.32012 0.0
C242 C 0.90361 0.58964 0.28281 0.0
C243 C 0.8592 0.57808 0.27253 0.0
C244 C 0.82945 0.58031 0.2994 0.0
C245 C 0.84473 0.59432 0.33677 0.0
H246 H 0.53013 0.32958 0.49626 0.0
H247 H 0.52651 0.2087 0.45288 0.0
H248 H 0.55196 0.24564 0.39011 0.0
H249 H 0.4894 0.35669 0.41051 0.0
H250 H 0.52559 0.41694 0.41716 0.0
H251 H 0.50517 0.37979 0.45763 0.0
H252 H 0.588 0.41096 0.48071 0.0
H253 H 0.60858 0.44839 0.44056 0.0
H254 H 0.62889 0.40948 0.44916 0.0
H255 H 0.58385 0.29974 0.33296 0.0
H256 H 0.6189 0.36487 0.28848 0.0
H257 H 0.59652 0.44673 0.37033 0.0
C258 C 0.53449 0.31068 0.4736 0.0
C259 C 0.5266 0.26638 0.4795 0.0
C260 C 0.53241 0.24276 0.44895 0.0
C261 C 0.54673 0.26342 0.41321 0.0
C262 C 0.55436 0.30736 0.40843 0.0
C263 C 0.5481 0.33044 0.43788 0.0
C264 C 0.55961 0.37763 0.42626 0.0
C265 C 0.51742 0.38305 0.42798 0.0
C266 C 0.59858 0.41372 0.4506 0.0
C267 C 0.57448 0.37815 0.38588 0.0
C268 C 0.57114 0.33742 0.37579 0.0
C269 C 0.58598 0.33154 0.34045 0.0
C270 C 0.6057 0.36864 0.31529 0.0
C271 C 0.61035 0.41093 0.32575 0.0
C272 C 0.59327 0.41491 0.36114 0.0
H273 H 0.15935 0.60299 0.55287 0.0
H274 H 0.25903 0.64611 0.46248 0.0
H275 H 0.30161 0.61752 0.49904 0.0
H276 H 0.23623 0.63614 0.62818 0.0
H277 H 0.19984 0.58882 0.65813 0.0
H278 H 0.17535 0.60891 0.62343 0.0
H279 H 0.13094 0.52851 0.59385 0.0
H280 H 0.15488 0.508 0.62877 0.0
H281 H 0.16133 0.50042 0.57908 0.0
H282 H 0.33547 0.58779 0.54804 0.0
H283 H 0.35595 0.55754 0.60369 0.0
H284 H 0.23402 0.5362 0.66127 0.0
C285 C 0.18975 0.6059 0.54035 0.0
C286 C 0.20578 0.62673 0.50472 0.0
C287 C 0.24593 0.63005 0.48963 0.0
C288 C 0.2704 0.61401 0.51024 0.0
C289 C 0.25412 0.59468 0.54575 0.0
C290 C 0.21449 0.5903 0.56046 0.0
C291 C 0.20488 0.56995 0.59974 0.0
C292 C 0.20405 0.60293 0.62908 0.0
C293 C 0.16038 0.52399 0.60038 0.0
C294 C 0.24567 0.56412 0.60521 0.0
C295 C 0.27364 0.57826 0.57378 0.0
C296 C 0.31366 0.57643 0.57271 0.0
C297 C 0.32508 0.55934 0.60449 0.0
C298 C 0.29668 0.5446 0.6369 0.0
C299 C 0.2566 0.54728 0.63706 0.0
H300 H 0.68751 0.22705 0.8165 0.0
H301 H 0.79465 0.33936 0.75379 0.0
H302 H 0.74662 0.3143 0.69628 0.0
H303 H 0.64929 0.14472 0.73992 0.0
H304 H 0.59036 0.11918 0.75325 0.0
H305 H 0.63408 0.14487 0.78881 0.0
H306 H 0.60257 0.19677 0.80977 0.0
H307 H 0.55848 0.17081 0.7747 0.0
H308 H 0.59554 0.23149 0.77499 0.0
H309 H 0.68443 0.27859 0.64632 0.0
H310 H 0.61254 0.2385 0.61014 0.0
H311 H 0.54838 0.14891 0.70594 0.0
C312 C 0.70105 0.24642 0.7907 0.0
C313 C 0.74485 0.28523 0.78969 0.0
C314 C 0.76116 0.30951 0.75527 0.0
C315 C 0.73423 0.2954 0.7224 0.0
C316 C 0.69127 0.25674 0.72436 0.0
C317 C 0.67485 0.2327 0.75771 0.0
C318 C 0.62698 0.19345 0.753 0.0
C319 C 0.62509 0.14786 0.7591 0.0
C320 C 0.59396 0.19846 0.77968 0.0
C321 C 0.6185 0.1997 0.71201 0.0
C322 C 0.65604 0.23605 0.69573 0.0
C323 C 0.65501 0.24976 0.65867 0.0
C324 C 0.61408 0.22664 0.63825 0.0
C325 C 0.57479 0.19043 0.65508 0.0
C326 C 0.57779 0.17614 0.69201 0.0
H327 H 0.36157 0.52352 0.89083 0.0
H328 H 0.35502 0.61105 0.80478 0.0
H329 H 0.38622 0.67458 0.8508 0.0
H330 H 0.32588 0.56414 0.96732 0.0
H331 H 0.36292 0.55968 0.00136 0.0
H332 H 0.34305 0.52238 0.96099 0.0
H333 H 0.42611 0.54848 0.94166 0.0
H334 H 0.44627 0.58546 0.98225 0.0
H335 H 0.46593 0.60812 0.93551 0.0
H336 H 0.41536 0.72755 0.90804 0.0
H337 H 0.44263 0.76583 0.96994 0.0
H338 H 0.42784 0.64161 0.0174 0.0
C339 C 0.3671 0.55611 0.88132 0.0
C340 C 0.35588 0.56229 0.8441 0.0
C341 C 0.36358 0.60556 0.83307 0.0
C342 C 0.38113 0.64176 0.85906 0.0
C343 C 0.39081 0.63404 0.89582 0.0
C344 C 0.38432 0.59229 0.90674 0.0
C345 C 0.39622 0.59203 0.94796 0.0
C346 C 0.35453 0.55752 0.97073 0.0
C347 C 0.436 0.58301 0.95207 0.0
C348 C 0.41015 0.64015 0.95881 0.0
C349 C 0.40695 0.664 0.92844 0.0
C350 C 0.41808 0.70917 0.93193 0.0
C351 C 0.4334 0.73057 0.96724 0.0
C352 C 0.43728 0.7067 0.99858 0.0
C353 C 0.42511 0.66081 0.99413 0.0
H354 H 0.73166 0.3436 0.98012 0.0
H355 H 0.87588 0.42632 0.00297 0.0
H356 H 0.86025 0.46925 0.05093 0.0
H357 H 0.70127 0.43503 0.99954 0.0
H358 H 0.64859 0.39489 0.02193 0.0
H359 H 0.67131 0.37677 0.98398 0.0
H360 H 0.66834 0.3142 0.02749 0.0
H361 H 0.64645 0.33254 0.06573 0.0
H362 H 0.69756 0.32984 0.07237 0.0
H363 H 0.82974 0.49402 0.1027 0.0
H364 H 0.78605 0.50381 0.15343 0.0
H365 H 0.66016 0.40557 0.09886 0.0
C366 C 0.75991 0.37212 0.99407 0.0
C367 C 0.80504 0.3823 0.98752 0.0
C368 C 0.84117 0.41849 0.00736 0.0
C369 C 0.8326 0.44302 0.03463 0.0
C370 C 0.78768 0.4309 0.04178 0.0
C371 C 0.75183 0.39675 0.02184 0.0
C372 C 0.70663 0.38752 0.03813 0.0
C373 C 0.6804 0.39927 0.00917 0.0
C374 C 0.67809 0.3381 0.05173 0.0
C375 C 0.72281 0.42046 0.0712 0.0
C376 C 0.76972 0.44538 0.07236 0.0
C377 C 0.79299 0.47543 0.1017 0.0
C378 C 0.76777 0.48043 0.1306 0.0
C379 C 0.71962 0.45555 0.1301 0.0
C380 C 0.69689 0.42546 0.09974 0.0
H381 H 0.34537 0.80847 0.35229 0.0
H382 H 0.21888 0.70424 0.30273 0.0
H383 H 0.25766 0.71395 0.24146 0.0
H384 H 0.38729 0.88096 0.26887 0.0
H385 H 0.4454 0.89581 0.2772 0.0
H386 H 0.40699 0.88243 0.31653 0.0
H387 H 0.4245 0.82021 0.33853 0.0
H388 H 0.46302 0.8335 0.29939 0.0
H389 H 0.41683 0.77626 0.30582 0.0
H390 H 0.31141 0.73277 0.18611 0.0
H391 H 0.37627 0.75773 0.14212 0.0
H392 H 0.46675 0.84944 0.2284 0.0
C393 C 0.32568 0.78792 0.32851 0.0
C394 C 0.27907 0.75565 0.33235 0.0
C395 C 0.25465 0.72922 0.30052 0.0
C396 C 0.27633 0.73458 0.26553 0.0
C397 C 0.32239 0.76657 0.26278 0.0
C398 C 0.34675 0.79277 0.29344 0.0
C399 C 0.39628 0.82339 0.28352 0.0
C400 C 0.40977 0.87362 0.28672 0.0
C401 C 0.42695 0.81267 0.30828 0.0
C402 C 0.39613 0.80979 0.2427 0.0
C403 C 0.35319 0.77726 0.23108 0.0
C404 C 0.34516 0.75849 0.19482 0.0
C405 C 0.38218 0.7729 0.17001 0.0
C406 C 0.42662 0.80558 0.18171 0.0
C407 C 0.43325 0.82456 0.2184 0.0
loop_
_geom_bond_atom_site_label_1
_geom_bond_atom_site_label_2
_geom_bond_distance
_geom_bond_site_symmetry_2
_ccdc_geom_bond_type
Zn0 O3 2.031 . S
Zn0 O5 2.049 . S
Zn0 O10 2.067 . S
Zn1 O2 1.962 . S
Zn1 O4 1.986 . S
Zn1 O6 1.996 . S
Zn1 O9 1.943 . S
O2 Zn1 1.962 . S
O2 C7 1.254 . S
O3 Zn0 2.031 . S
O3 C7 1.269 . S
O4 Zn1 1.986 . S
O4 C11 1.262 . S
O5 Zn0 2.049 . S
O5 C13 1.260 . S
O6 Zn1 1.996 . S
O6 C13 1.257 . S
C7 O2 1.254 . S
C7 O3 1.269 . S
C8 O9 1.249 . S
C8 O10 1.270 . S
O9 Zn1 1.943 . S
O9 C8 1.249 . S
O10 Zn0 2.067 . S
O10 C8 1.270 . S
C11 O4 1.262 . S
C11 O12 1.232 . S
O12 C11 1.232 . S
C13 O5 1.260 . S
C13 O6 1.257 . S
Zn14 O17 2.031 . S
Zn14 O19 2.049 . S
Zn14 O24 2.067 . S
Zn15 O16 1.962 . S
Zn15 O18 1.986 . S
Zn15 O20 1.996 . S
Zn15 O23 1.943 . S
O16 Zn15 1.962 . S
O16 C21 1.254 . S
O17 Zn14 2.031 . S
O17 C21 1.269 . S
O18 Zn15 1.986 . S
O18 C25 1.262 . S
O19 Zn14 2.049 . S
O19 C27 1.260 . S
O20 Zn15 1.996 . S
O20 C27 1.257 . S
C21 O16 1.254 . S
C21 O17 1.269 . S
C22 O23 1.249 . S
C22 O24 1.270 . S
O23 Zn15 1.943 . S
O23 C22 1.249 . S
O24 Zn14 2.067 . S
O24 C22 1.270 . S
C25 O18 1.262 . S
C25 O26 1.232 . S
O26 C25 1.232 . S
C27 O19 1.260 . S
C27 O20 1.257 . S
Zn28 O31 2.031 . S
Zn28 O33 2.049 . S
Zn28 O38 2.067 . S
Zn29 O30 1.962 . S
Zn29 O32 1.986 . S
Zn29 O34 1.996 . S
Zn29 O37 1.943 . S
O30 Zn29 1.962 . S
O30 C35 1.254 . S
O31 Zn28 2.031 . S
O31 C35 1.269 . S
O32 Zn29 1.986 . S
O32 C39 1.262 . S
O33 Zn28 2.049 . S
O33 C41 1.260 . S
O34 Zn29 1.996 . S
O34 C41 1.257 . S
C35 O30 1.254 . S
C35 O31 1.269 . S
C36 O37 1.249 . S
C36 O38 1.270 . S
O37 Zn29 1.943 . S
O37 C36 1.249 . S
O38 Zn28 2.067 . S
O38 C36 1.270 . S
C39 O32 1.262 . S
C39 O40 1.232 . S
O40 C39 1.232 . S
C41 O33 1.260 . S
C41 O34 1.257 . S
Zn42 O45 2.031 . S
Zn42 O47 2.049 . S
Zn42 O52 2.067 . S
Zn43 O44 1.962 . S
Zn43 O46 1.986 . S
Zn43 O48 1.996 . S
Zn43 O51 1.943 . S
O44 Zn43 1.962 . S
O44 C49 1.254 . S
O45 Zn42 2.031 . S
O45 C49 1.269 . S
O46 Zn43 1.986 . S
O46 C53 1.262 . S
O47 Zn42 2.049 . S
O47 C55 1.260 . S
O48 Zn43 1.996 . S
O48 C55 1.257 . S
C49 O44 1.254 . S
C49 O45 1.269 . S
C50 O51 1.249 . S
C50 O52 1.270 . S
O51 Zn43 1.943 . S
O51 C50 1.249 . S
O52 Zn42 2.067 . S
O52 C50 1.270 . S
C53 O46 1.262 . S
C53 O54 1.232 . S
O54 C53 1.232 . S
C55 O47 1.260 . S
C55 O48 1.257 . S
Zn56 O59 2.031 . S
Zn56 O61 2.049 . S
Zn56 O66 2.067 . S
Zn57 O58 1.962 . S
Zn57 O60 1.986 . S
Zn57 O62 1.996 . S
Zn57 O65 1.943 . S
O58 Zn57 1.962 . S
O58 C63 1.254 . S
O59 Zn56 2.031 . S
O59 C63 1.269 . S
O60 Zn57 1.986 . S
O60 C67 1.262 . S
O61 Zn56 2.049 . S
O61 C69 1.260 . S
O62 Zn57 1.996 . S
O62 C69 1.257 . S
C63 O58 1.254 . S
C63 O59 1.269 . S
C64 O65 1.249 . S
C64 O66 1.270 . S
O65 Zn57 1.943 . S
O65 C64 1.249 . S
O66 Zn56 2.067 . S
O66 C64 1.270 . S
C67 O60 1.262 . S
C67 O68 1.232 . S
O68 C67 1.232 . S
C69 O61 1.260 . S
C69 O62 1.257 . S
Zn70 O73 2.031 . S
Zn70 O75 2.049 . S
Zn70 O80 2.067 . S
Zn71 O72 1.962 . S
Zn71 O74 1.986 . S
Zn71 O76 1.996 . S
Zn71 O79 1.943 . S
O72 Zn71 1.962 . S
O72 C77 1.254 . S
O73 Zn70 2.031 . S
O73 C77 1.269 . S
O74 Zn71 1.986 . S
O74 C81 1.262 . S
O75 Zn70 2.049 . S
O75 C83 1.260 . S
O76 Zn71 1.996 . S
O76 C83 1.257 . S
C77 O72 1.254 . S
C77 O73 1.269 . S
C78 O79 1.249 . S
C78 O80 1.270 . S
O79 Zn71 1.943 . S
O79 C78 1.249 . S
O80 Zn70 2.067 . S
O80 C78 1.270 . S
C81 O74 1.262 . S
C81 O82 1.232 . S
O82 C81 1.232 . S
C83 O75 1.260 . S
C83 O76 1.257 . S
H84 C96 0.930 . S
H85 C98 0.930 . S
H86 C99 0.930 . S
H87 C103 0.959 . S
H88 C103 0.959 . S
H89 C103 0.961 . S
H90 C104 0.960 . S
H91 C104 0.961 1_565 S
H92 C104 0.959 1_565 S
H93 C107 0.929 . S
H94 C108 0.931 . S
H95 C110 0.930 . S
C96 H84 0.930 . S
C96 C97 1.399 . S
C96 C101 1.399 . S
C97 C96 1.399 . S
C97 C98 1.376 . S
C98 H85 0.930 . S
C98 C97 1.376 . S
C98 C99 1.388 . S
C99 H86 0.930 . S
C99 C98 1.388 . S
C99 C100 1.390 . S
C100 C99 1.390 . S
C100 C101 1.394 . S
C100 C106 1.465 1_545 S
C101 C96 1.399 . S
C101 C100 1.394 . S
C101 C102 1.516 . S
C102 C101 1.516 . S
C102 C103 1.502 . S
C102 C104 1.561 . S
C102 C105 1.526 1_545 S
C103 H87 0.959 . S
C103 H88 0.959 . S
C103 H89 0.961 . S
C103 C102 1.502 . S
C104 H90 0.960 . S
C104 H91 0.961 1_545 S
C104 H92 0.959 1_545 S
C104 C102 1.561 . S
C105 C102 1.526 1_565 S
C105 C106 1.396 . S
C105 C110 1.390 . S
C106 C100 1.465 1_565 S
C106 C105 1.396 . S
C106 C107 1.399 . S
C107 H93 0.929 . S
C107 C106 1.399 . S
C107 C108 1.385 . S
C108 H94 0.931 . S
C108 C107 1.385 . S
C108 C109 1.389 . S
C109 C108 1.389 . S
C109 C110 1.387 . S
C110 H95 0.930 . S
C110 C105 1.390 . S
C110 C109 1.387 . S
H111 C123 0.930 . S
H112 C125 0.930 . S
H113 C126 0.930 . S
H114 C130 0.959 . S
H115 C130 0.959 . S
H116 C130 0.961 . S
H117 C131 0.960 . S
H118 C131 0.961 . S
H119 C131 0.959 . S
H120 C134 0.929 . S
H121 C135 0.931 . S
H122 C137 0.930 . S
C123 H111 0.930 . S
C123 C124 1.399 . S
C123 C128 1.399 . S
C124 C123 1.399 . S
C124 C125 1.376 . S
C125 H112 0.930 . S
C125 C124 1.376 . S
C125 C126 1.388 . S
C126 H113 0.930 . S
C126 C125 1.388 . S
C126 C127 1.390 . S
C127 C126 1.390 . S
C127 C128 1.394 . S
C127 C133 1.465 . S
C128 C123 1.399 . S
C128 C127 1.394 . S
C128 C129 1.516 . S
C129 C128 1.516 . S
C129 C130 1.502 . S
C129 C131 1.561 . S
C129 C132 1.526 . S
C130 H114 0.959 . S
C130 H115 0.959 . S
C130 H116 0.961 . S
C130 C129 1.502 . S
C131 H117 0.960 . S
C131 H118 0.961 . S
C131 H119 0.959 . S
C131 C129 1.561 . S
C132 C129 1.526 . S
C132 C133 1.396 . S
C132 C137 1.390 . S
C133 C127 1.465 . S
C133 C132 1.396 . S
C133 C134 1.399 . S
C134 H120 0.929 . S
C134 C133 1.399 . S
C134 C135 1.385 . S
C135 H121 0.931 . S
C135 C134 1.385 . S
C135 C136 1.389 . S
C136 C135 1.389 . S
C136 C137 1.387 . S
C137 H122 0.930 . S
C137 C132 1.390 . S
C137 C136 1.387 . S
H138 C150 0.930 . S
H139 C152 0.930 . S
H140 C153 0.930 . S
H141 C157 0.959 . S
H142 C157 0.959 . S
H143 C157 0.961 1_655 S
H144 C158 0.960 . S
H145 C158 0.961 . S
H146 C158 0.959 . S
H147 C161 0.929 . S
H148 C162 0.931 . S
H149 C164 0.930 . S
C150 H138 0.930 . S
C150 C151 1.399 . S
C150 C155 1.399 . S
C151 C150 1.399 . S
C151 C152 1.376 . S
C152 H139 0.930 . S
C152 C151 1.376 . S
C152 C153 1.388 . S
C153 H140 0.930 . S
C153 C152 1.388 . S
C153 C154 1.390 . S
C154 C153 1.390 . S
C154 C155 1.394 . S
C154 C160 1.465 1_655 S
C155 C150 1.399 . S
C155 C154 1.394 . S
C155 C156 1.516 1_655 S
C156 C155 1.516 1_455 S
C156 C157 1.502 . S
C156 C158 1.561 . S
C156 C159 1.526 . S
C157 H141 0.959 . S
C157 H142 0.959 . S
C157 H143 0.961 1_455 S
C157 C156 1.502 . S
C158 H144 0.960 . S
C158 H145 0.961 . S
C158 H146 0.959 . S
C158 C156 1.561 . S
C159 C156 1.526 . S
C159 C160 1.396 . S
C159 C164 1.390 . S
C160 C154 1.465 1_455 S
C160 C159 1.396 . S
C160 C161 1.399 . S
C161 H147 0.929 . S
C161 C160 1.399 . S
C161 C162 1.385 . S
C162 H148 0.931 . S
C162 C161 1.385 . S
C162 C163 1.389 . S
C163 C162 1.389 . S
C163 C164 1.387 . S
C164 H149 0.930 . S
C164 C159 1.390 . S
C164 C163 1.387 . S
H165 C177 0.930 . S
H166 C179 0.930 1_556 S
H167 C180 0.930 . S
H168 C184 0.959 . S
H169 C184 0.959 . S
H170 C184 0.961 . S
H171 C185 0.960 . S
H172 C185 0.961 . S
H173 C185 0.959 . S
H174 C188 0.929 . S
H175 C189 0.931 . S
H176 C191 0.948 . S
C177 H165 0.930 . S
C177 C178 1.399 . S
C177 C182 1.399 . S
C178 C177 1.399 . S
C178 C179 1.376 . S
C179 H166 0.930 1_554 S
C179 C178 1.376 . S
C179 C180 1.388 1_554 S
C180 H167 0.930 . S
C180 C179 1.388 1_556 S
C180 C181 1.390 . S
C181 C180 1.390 . S
C181 C182 1.394 1_556 S
C181 C187 1.465 1_565 S
C182 C177 1.399 . S
C182 C181 1.394 1_554 S
C182 C183 1.516 1_565 S
C183 C182 1.516 1_545 S
C183 C184 1.502 . S
C183 C185 1.561 . S
C183 C186 1.526 . S
C184 H168 0.959 . S
C184 H169 0.959 . S
C184 H170 0.961 . S
C184 C183 1.502 . S
C185 H171 0.960 . S
C185 H172 0.961 . S
C185 H173 0.959 . S
C185 C183 1.561 . S
C186 C183 1.526 . S
C186 C187 1.396 1_554 S
C186 C191 1.395 . S
C187 C181 1.465 1_545 S
C187 C186 1.396 1_556 S
C187 C188 1.399 . S
C188 H174 0.929 . S
C188 C187 1.399 . S
C188 C189 1.385 . S
C189 H175 0.931 . S
C189 C188 1.385 . S
C189 C190 1.389 . S
C190 C189 1.389 . S
C190 C191 1.363 1_556 S
C191 H176 0.948 . S
C191 C186 1.395 . S
C191 C190 1.363 1_554 S
H192 C204 0.930 . S
H193 C206 0.930 . S
H194 C207 0.930 . S
H195 C211 0.959 . S
H196 C211 0.959 . S
H197 C211 0.961 . S
H198 C212 0.960 . S
H199 C212 0.961 . S
H200 C212 0.959 . S
H201 C215 0.929 . S
H202 C216 0.931 . S
H203 C218 0.930 . S
C204 H192 0.930 . S
C204 C205 1.399 . S
C204 C209 1.399 . S
C205 C204 1.399 . S
C205 C206 1.376 . S
C206 H193 0.930 . S
C206 C205 1.376 . S
C206 C207 1.388 . S
C207 H194 0.930 . S
C207 C206 1.388 . S
C207 C208 1.390 . S
C208 C207 1.390 . S
C208 C209 1.394 . S
C208 C214 1.465 . S
C209 C204 1.399 . S
C209 C208 1.394 . S
C209 C210 1.516 . S
C210 C209 1.516 . S
C210 C211 1.502 . S
C210 C212 1.561 . S
C210 C213 1.526 . S
C211 H195 0.959 . S
C211 H196 0.959 . S
C211 H197 0.961 . S
C211 C210 1.502 . S
C212 H198 0.960 . S
C212 H199 0.961 . S
C212 H200 0.959 . S
C212 C210 1.561 . S
C213 C210 1.526 . S
C213 C214 1.396 . S
C213 C218 1.390 . S
C214 C208 1.465 . S
C214 C213 1.396 . S
C214 C215 1.399 . S
C215 H201 0.929 . S
C215 C214 1.399 . S
C215 C216 1.385 . S
C216 H202 0.931 . S
C216 C215 1.385 . S
C216 C217 1.389 . S
C217 C216 1.389 . S
C217 C218 1.387 . S
C218 H203 0.930 . S
C218 C213 1.390 . S
C218 C217 1.387 . S
H219 C231 0.930 . S
H220 C233 0.930 . S
H221 C234 0.930 . S
H222 C238 0.959 . S
H223 C238 0.959 . S
H224 C238 0.961 . S
H225 C239 0.960 . S
H226 C239 0.961 . S
H227 C239 0.959 . S
H228 C242 0.929 . S
H229 C243 0.931 . S
H230 C245 0.930 . S
C231 H219 0.930 . S
C231 C232 1.399 . S
C231 C236 1.399 . S
C232 C231 1.399 . S
C232 C233 1.376 . S
C233 H220 0.930 . S
C233 C232 1.376 . S
C233 C234 1.388 . S
C234 H221 0.930 . S
C234 C233 1.388 . S
C234 C235 1.390 . S
C235 C234 1.390 . S
C235 C236 1.394 . S
C235 C241 1.465 1_455 S
C236 C231 1.399 . S
C236 C235 1.394 . S
C236 C237 1.516 1_455 S
C237 C236 1.516 1_655 S
C237 C238 1.502 . S
C237 C239 1.561 . S
C237 C240 1.526 . S
C238 H222 0.959 . S
C238 H223 0.959 . S
C238 H224 0.961 . S
C238 C237 1.502 . S
C239 H225 0.960 . S
C239 H226 0.961 . S
C239 H227 0.959 . S
C239 C237 1.561 . S
C240 C237 1.526 . S
C240 C241 1.396 . S
C240 C245 1.390 . S
C241 C235 1.465 1_655 S
C241 C240 1.396 . S
C241 C242 1.399 . S
C242 H228 0.929 . S
C242 C241 1.399 . S
C242 C243 1.385 . S
C243 H229 0.931 . S
C243 C242 1.385 . S
C243 C244 1.389 . S
C244 C243 1.389 . S
C244 C245 1.387 . S
C245 H230 0.930 . S
C245 C240 1.390 . S
C245 C244 1.387 . S
H246 C258 0.930 . S
H247 C260 0.930 . S
H248 C261 0.930 . S
H249 C265 0.959 . S
H250 C265 0.959 . S
H251 C265 0.961 . S
H252 C266 0.960 . S
H253 C266 0.961 . S
H254 C266 0.959 . S
H255 C269 0.929 . S
H256 C270 0.931 . S
H257 C272 0.930 . S
C258 H246 0.930 . S
C258 C259 1.399 . S
C258 C263 1.399 . S
C259 C258 1.399 . S
C259 C260 1.376 . S
C260 H247 0.930 . S
C260 C259 1.376 . S
C260 C261 1.388 . S
C261 H248 0.930 . S
C261 C260 1.388 . S
C261 C262 1.390 . S
C262 C261 1.390 . S
C262 C263 1.394 . S
C262 C268 1.465 . S
C263 C258 1.399 . S
C263 C262 1.394 . S
C263 C264 1.516 . S
C264 C263 1.516 . S
C264 C265 1.502 . S
C264 C266 1.561 . S
C264 C267 1.526 . S
C265 H249 0.959 . S
C265 H250 0.959 . S
C265 H251 0.961 . S
C265 C264 1.502 . S
C266 H252 0.960 . S
C266 H253 0.961 . S
C266 H254 0.959 . S
C266 C264 1.561 . S
C267 C264 1.526 . S
C267 C268 1.396 . S
C267 C272 1.390 . S
C268 C262 1.465 . S
C268 C267 1.396 . S
C268 C269 1.399 . S
C269 H255 0.929 . S
C269 C268 1.399 . S
C269 C270 1.385 . S
C270 H256 0.931 . S
C270 C269 1.385 . S
C270 C271 1.389 . S
C271 C270 1.389 . S
C271 C272 1.387 . S
C272 H257 0.930 . S
C272 C267 1.390 . S
C272 C271 1.387 . S
H273 C285 0.930 . S
H274 C287 0.930 . S
H275 C288 0.930 . S
H276 C292 0.959 . S
H277 C292 0.959 . S
H278 C292 0.961 . S
H279 C293 0.960 . S
H280 C293 0.961 . S
H281 C293 0.959 . S
H282 C296 0.929 . S
H283 C297 0.931 . S
H284 C299 0.930 . S
C285 H273 0.930 . S
C285 C286 1.399 . S
C285 C290 1.399 . S
C286 C285 1.399 . S
C286 C287 1.376 . S
C287 H274 0.930 . S
C287 C286 1.376 . S
C287 C288 1.388 . S
C288 H275 0.930 . S
C288 C287 1.388 . S
C288 C289 1.390 . S
C289 C288 1.390 . S
C289 C290 1.394 . S
C289 C295 1.465 . S
C290 C285 1.399 . S
C290 C289 1.394 . S
C290 C291 1.516 . S
C291 C290 1.516 . S
C291 C292 1.502 . S
C291 C293 1.561 . S
C291 C294 1.526 . S
C292 H276 0.959 . S
C292 H277 0.959 . S
C292 H278 0.961 . S
C292 C291 1.502 . S
C293 H279 0.960 . S
C293 H280 0.961 . S
C293 H281 0.959 . S
C293 C291 1.561 . S
C294 C291 1.526 . S
C294 C295 1.396 . S
C294 C299 1.390 . S
C295 C289 1.465 . S
C295 C294 1.396 . S
C295 C296 1.399 . S
C296 H282 0.929 . S
C296 C295 1.399 . S
C296 C297 1.385 . S
C297 H283 0.931 . S
C297 C296 1.385 . S
C297 C298 1.389 . S
C298 C297 1.389 . S
C298 C299 1.387 . S
C299 H284 0.930 . S
C299 C294 1.390 . S
C299 C298 1.387 . S
H300 C312 0.930 . S
H301 C314 0.930 . S
H302 C315 0.930 . S
H303 C319 0.959 . S
H304 C319 0.959 . S
H305 C319 0.961 . S
H306 C320 0.960 . S
H307 C320 0.961 . S
H308 C320 0.959 . S
H309 C323 0.929 . S
H310 C324 0.931 . S
H311 C326 0.930 . S
C312 H300 0.930 . S
C312 C313 1.399 . S
C312 C317 1.399 . S
C313 C312 1.399 . S
C313 C314 1.376 . S
C314 H301 0.930 . S
C314 C313 1.376 . S
C314 C315 1.388 . S
C315 H302 0.930 . S
C315 C314 1.388 . S
C315 C316 1.390 . S
C316 C315 1.390 . S
C316 C317 1.394 . S
C316 C322 1.465 . S
C317 C312 1.399 . S
C317 C316 1.394 . S
C317 C318 1.516 . S
C318 C317 1.516 . S
C318 C319 1.502 . S
C318 C320 1.561 . S
C318 C321 1.526 . S
C319 H303 0.959 . S
C319 H304 0.959 . S
C319 H305 0.961 . S
C319 C318 1.502 . S
C320 H306 0.960 . S
C320 H307 0.961 . S
C320 H308 0.959 . S
C320 C318 1.561 . S
C321 C318 1.526 . S
C321 C322 1.396 . S
C321 C326 1.390 . S
C322 C316 1.465 . S
C322 C321 1.396 . S
C322 C323 1.399 . S
C323 H309 0.929 . S
C323 C322 1.399 . S
C323 C324 1.385 . S
C324 H310 0.931 . S
C324 C323 1.385 . S
C324 C325 1.389 . S
C325 C324 1.389 . S
C325 C326 1.387 . S
C326 H311 0.930 . S
C326 C321 1.390 . S
C326 C325 1.387 . S
H327 C339 0.930 . S
H328 C341 0.930 . S
H329 C342 0.930 . S
H330 C346 0.959 . S
H331 C346 0.959 . S
H332 C346 0.961 . S
H333 C347 0.960 . S
H334 C347 0.961 . S
H335 C347 0.959 . S
H336 C350 0.929 . S
H337 C351 0.931 . S
H338 C353 0.930 1_554 S
C339 H327 0.930 . S
C339 C340 1.399 . S
C339 C344 1.399 . S
C340 C339 1.399 . S
C340 C341 1.376 . S
C341 H328 0.930 . S
C341 C340 1.376 . S
C341 C342 1.388 . S
C342 H329 0.930 . S
C342 C341 1.388 . S
C342 C343 1.390 . S
C343 C342 1.390 . S
C343 C344 1.394 . S
C343 C349 1.465 . S
C344 C339 1.399 . S
C344 C343 1.394 . S
C344 C345 1.516 . S
C345 C344 1.516 . S
C345 C346 1.502 . S
C345 C347 1.561 . S
C345 C348 1.526 . S
C346 H330 0.959 . S
C346 H331 0.959 . S
C346 H332 0.961 . S
C346 C345 1.502 . S
C347 H333 0.960 . S
C347 H334 0.961 . S
C347 H335 0.959 . S
C347 C345 1.561 . S
C348 C345 1.526 . S
C348 C349 1.396 . S
C348 C353 1.390 . S
C349 C343 1.465 . S
C349 C348 1.396 . S
C349 C350 1.399 . S
C350 H336 0.929 . S
C350 C349 1.399 . S
C350 C351 1.385 . S
C351 H337 0.931 . S
C351 C350 1.385 . S
C351 C352 1.389 . S
C352 C351 1.389 . S
C352 C353 1.387 . S
C353 H338 0.930 1_556 S
C353 C348 1.390 . S
C353 C352 1.387 . S
H354 C366 0.930 . S
H355 C368 0.930 1_556 S
H356 C369 0.930 . S
H357 C373 0.959 . S
H358 C373 0.959 . S
H359 C373 0.961 . S
H360 C374 0.960 . S
H361 C374 0.961 . S
H362 C374 0.959 . S
H363 C377 0.929 . S
H364 C378 0.931 . S
H365 C380 0.930 . S
C366 H354 0.930 . S
C366 C367 1.399 . S
C366 C371 1.399 . S
C367 C366 1.399 . S
C367 C368 1.376 . S
C368 H355 0.930 1_554 S
C368 C367 1.376 . S
C368 C369 1.388 . S
C369 H356 0.930 . S
C369 C368 1.388 . S
C369 C370 1.390 . S
C370 C369 1.390 . S
C370 C371 1.394 . S
C370 C376 1.465 . S
C371 C366 1.399 . S
C371 C370 1.394 . S
C371 C372 1.516 . S
C372 C371 1.516 . S
C372 C373 1.502 . S
C372 C374 1.561 . S
C372 C375 1.526 . S
C373 H357 0.959 . S
C373 H358 0.959 . S
C373 H359 0.961 . S
C373 C372 1.502 . S
C374 H360 0.960 . S
C374 H361 0.961 . S
C374 H362 0.959 . S
C374 C372 1.561 . S
C375 C372 1.526 . S
C375 C376 1.396 . S
C375 C380 1.390 . S
C376 C370 1.465 . S
C376 C375 1.396 . S
C376 C377 1.399 . S
C377 H363 0.929 . S
C377 C376 1.399 . S
C377 C378 1.385 . S
C378 H364 0.931 . S
C378 C377 1.385 . S
C378 C379 1.389 . S
C379 C378 1.389 . S
C379 C380 1.387 . S
C380 H365 0.930 . S
C380 C375 1.390 . S
C380 C379 1.387 . S
H381 C393 0.930 . S
H382 C395 0.930 . S
H383 C396 0.930 . S
H384 C400 0.959 . S
H385 C400 0.959 . S
H386 C400 0.961 . S
H387 C401 0.960 . S
H388 C401 0.961 . S
H389 C401 0.959 . S
H390 C404 0.929 . S
H391 C405 0.931 . S
H392 C407 0.930 . S
C393 H381 0.930 . S
C393 C394 1.399 . S
C393 C398 1.399 . S
C394 C393 1.399 . S
C394 C395 1.376 . S
C395 H382 0.930 . S
C395 C394 1.376 . S
C395 C396 1.388 . S
C396 H383 0.930 . S
C396 C395 1.388 . S
C396 C397 1.390 . S
C397 C396 1.390 . S
C397 C398 1.394 . S
C397 C403 1.465 . S
C398 C393 1.399 . S
C398 C397 1.394 . S
C398 C399 1.516 . S
C399 C398 1.516 . S
C399 C400 1.502 . S
C399 C401 1.561 . S
C399 C402 1.526 . S
C400 H384 0.959 . S
C400 H385 0.959 . S
C400 H386 0.961 . S
C400 C399 1.502 . S
C401 H387 0.960 . S
C401 H388 0.961 . S
C401 H389 0.959 . S
C401 C399 1.561 . S
C402 C399 1.526 . S
C402 C403 1.396 . S
C402 C407 1.390 . S
C403 C397 1.465 . S
C403 C402 1.396 . S
C403 C404 1.399 . S
C404 H390 0.929 . S
C404 C403 1.399 . S
C404 C405 1.385 . S
C405 H391 0.931 . S
C405 C404 1.385 . S
C405 C406 1.389 . S
C406 C405 1.389 . S
C406 C407 1.387 . S
C407 H392 0.930 . S
C407 C402 1.390 . S
C407 C406 1.387 . S
C97 C13 1.314 . S
C109 C77 1.411 . S
C124 C7 1.409 . S
C136 C27 1.323 . S
C151 C41 1.345 . S
C163 C21 1.413 . S
C178 C55 1.375 . S
C190 C35 1.420 . S
C205 C69 1.357 . S
C217 C49 1.422 . S
C232 C83 1.388 . S
C244 C63 1.423 . S
C259 C11 1.533 . S
C271 C64 1.519 . S
C286 C78 1.520 . S
C298 C25 1.528 . S
C313 C39 1.523 . S
C325 C8 1.512 . S
C340 C22 1.499 . S
C352 C53 1.529 1_556 S
C367 C36 1.465 1_554 S
C379 C67 1.511 . S
C394 C81 1.528 . S
C406 C50 1.520 . S
