# Generated by pormake.
# Topology ske, (6)-cn, num edge types: 1
# Building blocks:
#     Node 0, Type 0, BuildingBlock: BETFEN_clean_sbu_0, # of connection points: 6
#     Node 1, Type 0, BuildingBlock: BETFEN_clean_sbu_0, # of connection points: 6
#     Node 2, Type 0, BuildingBlock: BETFEN_clean_sbu_0, # of connection points: 6
#     Node 3, Type 0, BuildingBlock: BETFEN_clean_sbu_0, # of connection points: 6
#     Node 4, Type 0, BuildingBlock: BETFEN_clean_sbu_0, # of connection points: 6
#     Node 5, Type 0, BuildingBlock: BETFEN_clean_sbu_0, # of connection points: 6
#     Node 6, Type 0, BuildingBlock: BETFEN_clean_sbu_0, # of connection points: 6
#     Node 7, Type 0, BuildingBlock: BETFEN_clean_sbu_0, # of connection points: 6
#     Edge 8, Type (0, 0), BuildingBlock: MIFKUJ_clean_linker_0, # of connection points: 2
#     Edge 9, Type (0, 0), BuildingBlock: MIFKUJ_clean_linker_0, # of connection points: 2
#     Edge 10, Type (0, 0), BuildingBlock: MIFKUJ_clean_linker_0, # of connection points: 2
#     Edge 11, Type (0, 0), BuildingBlock: MIFKUJ_clean_linker_0, # of connection points: 2
#     Edge 12, Type (0, 0), BuildingBlock: MIFKUJ_clean_linker_0, # of connection points: 2
#     Edge 13, Type (0, 0), BuildingBlock: MIFKUJ_clean_linker_0, # of connection points: 2
#     Edge 14, Type (0, 0), BuildingBlock: MIFKUJ_clean_linker_0, # of connection points: 2
#     Edge 15, Type (0, 0), BuildingBlock: MIFKUJ_clean_linker_0, # of connection points: 2
#     Edge 16, Type (0, 0), BuildingBlock: MIFKUJ_clean_linker_0, # of connection points: 2
#     Edge 17, Type (0, 0), BuildingBlock: MIFKUJ_clean_linker_0, # of connection points: 2
#     Edge 18, Type (0, 0), BuildingBlock: MIFKUJ_clean_linker_0, # of connection points: 2
#     Edge 19, Type (0, 0), BuildingBlock: MIFKUJ_clean_linker_0, # of connection points: 2
#     Edge 20, Type (0, 0), BuildingBlock: MIFKUJ_clean_linker_0, # of connection points: 2
#     Edge 21, Type (0, 0), BuildingBlock: MIFKUJ_clean_linker_0, # of connection points: 2
#     Edge 22, Type (0, 0), BuildingBlock: MIFKUJ_clean_linker_0, # of connection points: 2
#     Edge 23, Type (0, 0), BuildingBlock: MIFKUJ_clean_linker_0, # of connection points: 2
#     Edge 24, Type (0, 0), BuildingBlock: MIFKUJ_clean_linker_0, # of connection points: 2
#     Edge 25, Type (0, 0), BuildingBlock: MIFKUJ_clean_linker_0, # of connection points: 2
#     Edge 26, Type (0, 0), BuildingBlock: MIFKUJ_clean_linker_0, # of connection points: 2
#     Edge 27, Type (0, 0), BuildingBlock: MIFKUJ_clean_linker_0, # of connection points: 2
#     Edge 28, Type (0, 0), BuildingBlock: MIFKUJ_clean_linker_0, # of connection points: 2
#     Edge 29, Type (0, 0), BuildingBlock: MIFKUJ_clean_linker_0, # of connection points: 2
#     Edge 30, Type (0, 0), BuildingBlock: MIFKUJ_clean_linker_0, # of connection points: 2
#     Edge 31, Type (0, 0), BuildingBlock: MIFKUJ_clean_linker_0, # of connection points: 2
# Relax obj value: 0.202
# Max RMSD: 0.202
# Mean RMSD: 0.195
data_MOF--net-ske--node1-BETFEN_clean_sbu_0--edge1-MIFKUJ_clean_linker_0
_symmetry_space_group_name_H-M    P1
_symmetry_Int_Tables_number       1
_symmetry_cell_setting            triclinic
loop_
_symmetry_equiv_pos_as_xyz
'x, y, z'
_cell_length_a     122.05702
_cell_length_b     38.481276
_cell_length_c     20.366029
_cell_angle_alpha  89.786596
_cell_angle_beta   90.019627
_cell_angle_gamma 84.694134
loop_
_atom_site_label
_atom_site_type_symbol
_atom_site_fract_x
_atom_site_fract_y
_atom_site_fract_z
_atom_type_partial_charge
Pr0 Pr 0.14898 0.2558 0.55048 0.0
Pr1 Pr 0.12478 0.24903 0.55698 0.0
C2 C 0.17002 0.27262 0.56024 0.0
C3 C 0.18083 0.26668 0.5945 0.0
C4 C 0.18847 0.23851 0.57737 0.0
C5 C 0.19915 0.23554 0.60345 0.0
C6 C 0.20253 0.26071 0.64722 0.0
C7 C 0.19479 0.28837 0.66569 0.0
C8 C 0.18411 0.29139 0.63946 0.0
C9 C 0.14383 0.18633 0.54026 0.0
C10 C 0.13756 0.24713 0.69721 0.0
C11 C 0.10371 0.23218 0.55203 0.0
C12 C 0.09197 0.23973 0.53314 0.0
C13 C 0.08566 0.26997 0.55483 0.0
C14 C 0.07421 0.27377 0.54602 0.0
C15 C 0.06877 0.2474 0.51553 0.0
C16 C 0.07518 0.21786 0.49147 0.0
C17 C 0.08662 0.21408 0.50031 0.0
C18 C 0.12994 0.31899 0.55988 0.0
C19 C 0.1364 0.25538 0.41 0.0
O20 O 0.16176 0.28977 0.59054 0.0
O21 O 0.16696 0.24806 0.52202 0.0
O22 O 0.13934 0.20835 0.58027 0.0
O23 O 0.15148 0.1995 0.5068 0.0
O24 O 0.1295 0.23402 0.66547 0.0
O25 O 0.14538 0.26115 0.66434 0.0
O26 O 0.11106 0.22167 0.50787 0.0
O27 O 0.10761 0.25082 0.5985 0.0
O28 O 0.13443 0.29554 0.5231 0.0
O29 O 0.12223 0.30698 0.59457 0.0
O30 O 0.14441 0.26925 0.44115 0.0
O31 O 0.12857 0.24155 0.44348 0.0
H32 H 0.1863 0.21911 0.54247 0.0
H33 H 0.20481 0.21361 0.58876 0.0
H34 H 0.1971 0.30849 0.69863 0.0
H35 H 0.17851 0.31372 0.65293 0.0
H36 H 0.08951 0.29014 0.5808 0.0
H37 H 0.06958 0.29675 0.56571 0.0
H38 H 0.07134 0.19728 0.46672 0.0
H39 H 0.09125 0.1904 0.48351 0.0
Pr40 Pr 0.86819 0.25184 0.55122 0.0
Pr41 Pr 0.8941 0.25805 0.55537 0.0
C42 C 0.8472 0.23477 0.56141 0.0
C43 C 0.83646 0.24052 0.59627 0.0
C44 C 0.8292 0.27044 0.58422 0.0
C45 C 0.81856 0.27352 0.61086 0.0
C46 C 0.81487 0.24676 0.65014 0.0
C47 C 0.82226 0.21727 0.66359 0.0
C48 C 0.83288 0.21415 0.63679 0.0
C49 C 0.87456 0.3195 0.53418 0.0
C50 C 0.88044 0.258 0.69819 0.0
C51 C 0.91425 0.28201 0.55667 0.0
C52 C 0.92619 0.27468 0.54203 0.0
C53 C 0.93292 0.25039 0.57942 0.0
C54 C 0.94437 0.24693 0.57094 0.0
C55 C 0.94943 0.26765 0.52482 0.0
C56 C 0.94263 0.29125 0.48617 0.0
C57 C 0.93118 0.2948 0.49489 0.0
C58 C 0.89033 0.18683 0.54276 0.0
C59 C 0.88156 0.24974 0.41196 0.0
O60 O 0.8555 0.21747 0.59141 0.0
O61 O 0.85019 0.25956 0.52306 0.0
O62 O 0.87888 0.29724 0.57474 0.0
O63 O 0.86632 0.30765 0.5039 0.0
O64 O 0.88983 0.26202 0.66778 0.0
O65 O 0.8713 0.25339 0.66559 0.0
O66 O 0.9073 0.28815 0.50793 0.0
O67 O 0.91019 0.26523 0.60573 0.0
O68 O 0.88324 0.21266 0.54639 0.0
O69 O 0.90008 0.19765 0.54653 0.0
O70 O 0.8736 0.2359 0.44422 0.0
O71 O 0.88932 0.26506 0.44341 0.0
H72 H 0.83162 0.29122 0.55292 0.0
H73 H 0.81318 0.29683 0.60015 0.0
H74 H 0.81969 0.19593 0.69291 0.0
H75 H 0.8382 0.19053 0.64622 0.0
H76 H 0.9294 0.23467 0.61675 0.0
H77 H 0.94927 0.22883 0.60235 0.0
H78 H 0.94616 0.30729 0.44943 0.0
H79 H 0.92624 0.31398 0.46575 0.0
Pr80 Pr 0.12391 0.74809 0.48343 0.0
Pr81 Pr 0.14996 0.75576 0.48624 0.0
C82 C 0.10392 0.72309 0.47962 0.0
C83 C 0.09186 0.73087 0.4897 0.0
C84 C 0.08525 0.74822 0.4408 0.0
C85 C 0.07377 0.7516 0.44622 0.0
C86 C 0.06854 0.73768 0.50058 0.0
C87 C 0.07514 0.72125 0.55049 0.0
C88 C 0.08666 0.71772 0.54492 0.0
C89 C 0.1275 0.81923 0.49725 0.0
C90 C 0.13661 0.75517 0.62643 0.0
C91 C 0.17068 0.77506 0.4758 0.0
C92 C 0.18162 0.76836 0.44345 0.0
C93 C 0.19003 0.74632 0.47344 0.0
C94 C 0.20071 0.74296 0.4475 0.0
C95 C 0.20332 0.7617 0.39101 0.0
C96 C 0.19484 0.78314 0.36012 0.0
C97 C 0.18415 0.78654 0.38614 0.0
C98 C 0.14414 0.68708 0.49738 0.0
C99 C 0.13729 0.7525 0.34016 0.0
O100 O 0.11044 0.71921 0.53089 0.0
O101 O 0.1084 0.7379 0.42963 0.0
O102 O 0.13461 0.79353 0.49308 0.0
O103 O 0.11776 0.80832 0.49349 0.0
O104 O 0.14461 0.76914 0.59466 0.0
O105 O 0.1288 0.74024 0.59487 0.0
O106 O 0.16238 0.78955 0.44159 0.0
O107 O 0.16778 0.7522 0.51862 0.0
O108 O 0.13936 0.71048 0.46086 0.0
O109 O 0.15277 0.69824 0.52469 0.0
O110 O 0.12797 0.74792 0.37081 0.0
O111 O 0.14657 0.75601 0.37222 0.0
H112 H 0.08892 0.75848 0.39727 0.0
H113 H 0.06896 0.76485 0.40731 0.0
H114 H 0.07141 0.70994 0.59275 0.0
H115 H 0.09148 0.70376 0.58298 0.0
H116 H 0.18844 0.73219 0.518 0.0
H117 H 0.20695 0.72581 0.47214 0.0
H118 H 0.19654 0.7983 0.31702 0.0
H119 H 0.17794 0.80416 0.36227 0.0
Pr120 Pr 0.89353 0.75718 0.46921 0.0
Pr121 Pr 0.86759 0.75107 0.47207 0.0
C122 C 0.91443 0.77519 0.4771 0.0
C123 C 0.92626 0.76555 0.49063 0.0
C124 C 0.93214 0.7369 0.46008 0.0
C125 C 0.94361 0.73123 0.46691 0.0
C126 C 0.94947 0.7541 0.50432 0.0
C127 C 0.94348 0.78208 0.53649 0.0
C128 C 0.93203 0.78771 0.52963 0.0
C129 C 0.88729 0.68858 0.46372 0.0
C130 C 0.88057 0.75587 0.61516 0.0
C131 C 0.84754 0.72673 0.46669 0.0
C132 C 0.83643 0.73231 0.43636 0.0
C133 C 0.82977 0.76392 0.44337 0.0
C134 C 0.81899 0.76751 0.41847 0.0
C135 C 0.81463 0.73967 0.38578 0.0
C136 C 0.82141 0.70832 0.37789 0.0
C137 C 0.83215 0.70469 0.40303 0.0
C138 C 0.87152 0.82238 0.462 0.0
C139 C 0.88017 0.76001 0.32919 0.0
O140 O 0.90752 0.77865 0.52621 0.0
O141 O 0.91016 0.76312 0.42393 0.0
O142 O 0.88281 0.71292 0.49867 0.0
O143 O 0.89577 0.69877 0.43329 0.0
O144 O 0.87164 0.74707 0.58477 0.0
O145 O 0.88946 0.76334 0.58241 0.0
O146 O 0.85578 0.71483 0.42917 0.0
O147 O 0.85027 0.74929 0.51052 0.0
O148 O 0.87853 0.79629 0.46422 0.0
O149 O 0.86174 0.8117 0.46414 0.0
O150 O 0.8881 0.77355 0.36198 0.0
O151 O 0.87237 0.74476 0.36027 0.0
H152 H 0.92792 0.71935 0.42962 0.0
H153 H 0.9479 0.7091 0.44226 0.0
H154 H 0.94767 0.80052 0.56501 0.0
H155 H 0.92772 0.81022 0.55308 0.0
H156 H 0.83281 0.78576 0.46876 0.0
H157 H 0.81408 0.79218 0.42477 0.0
H158 H 0.81832 0.68615 0.35382 0.0
H159 H 0.83706 0.67993 0.39748 0.0
Pr160 Pr 0.64873 0.7531 0.05134 0.0
Pr161 Pr 0.62447 0.74562 0.05645 0.0
C162 C 0.66959 0.7712 0.06283 0.0
C163 C 0.68024 0.76557 0.09874 0.0
C164 C 0.68705 0.73414 0.09329 0.0
C165 C 0.69762 0.73081 0.12097 0.0
C166 C 0.70168 0.75881 0.1548 0.0
C167 C 0.69473 0.78988 0.16174 0.0
C168 C 0.68417 0.79323 0.13387 0.0
C169 C 0.64384 0.68344 0.04118 0.0
C170 C 0.63711 0.74437 0.19737 0.0
C171 C 0.60348 0.72814 0.05044 0.0
C172 C 0.59173 0.73617 0.03215 0.0
C173 C 0.58526 0.76458 0.05978 0.0
C174 C 0.57382 0.76839 0.05073 0.0
C175 C 0.56854 0.74385 0.01397 0.0
C176 C 0.5751 0.71626 0.98419 0.0
C177 C 0.58654 0.71244 0.99334 0.0
C178 C 0.62951 0.81577 0.05866 0.0
C179 C 0.63636 0.75128 0.9102 0.0
O180 O 0.66118 0.78802 0.09228 0.0
O181 O 0.66677 0.74645 0.02426 0.0
O182 O 0.63912 0.70547 0.08032 0.0
O183 O 0.65172 0.69654 1.00961 0.0
O184 O 0.62911 0.73102 0.16536 0.0
O185 O 0.64493 0.75855 0.16482 0.0
O186 O 0.6108 0.71906 1.00523 0.0
O187 O 0.6074 0.74552 0.09867 0.0
O188 O 0.63408 0.79215 0.02274 0.0
O189 O 0.62167 0.80394 0.09251 0.0
O190 O 0.64427 0.76567 0.94143 0.0
O191 O 0.62856 0.73727 0.94357 0.0
H192 H 0.68432 0.71228 0.06641 0.0
H193 H 0.70266 0.70632 0.11541 0.0
H194 H 0.69759 0.81214 0.18671 0.0
H195 H 0.67919 0.81792 0.13819 0.0
H196 H 0.58898 0.78322 0.09045 0.0
H197 H 0.56907 0.7898 0.07496 0.0
H198 H 0.57139 0.69719 0.95458 0.0
H199 H 0.59128 0.69015 0.97188 0.0
Pr200 Pr 0.36895 0.75342 0.05178 0.0
Pr201 Pr 0.39326 0.75862 0.05886 0.0
C202 C 0.34775 0.73816 0.06033 0.0
C203 C 0.33697 0.74406 0.09467 0.0
C204 C 0.32837 0.7658 0.06584 0.0
C205 C 0.31779 0.76853 0.09289 0.0
C206 C 0.31544 0.74941 0.1494 0.0
C207 C 0.32411 0.72833 0.17932 0.0
C208 C 0.33473 0.72557 0.15215 0.0
C209 C 0.37467 0.82199 0.03955 0.0
C210 C 0.38035 0.76169 0.19885 0.0
C211 C 0.41442 0.77457 0.05392 0.0
C212 C 0.42614 0.76687 0.03472 0.0
C213 C 0.43287 0.73979 0.06511 0.0
C214 C 0.44429 0.7365 0.05523 0.0
C215 C 0.4493 0.7602 0.01474 0.0
C216 C 0.44248 0.78642 0.98231 0.0
C217 C 0.43107 0.78979 0.99241 0.0
C218 C 0.38757 0.68916 0.06162 0.0
C219 C 0.38162 0.7531 0.91158 0.0
O220 O 0.35592 0.71964 0.08924 0.0
O221 O 0.35095 0.76345 0.02417 0.0
O222 O 0.37887 0.80003 0.08086 0.0
O223 O 0.36706 0.80928 1.00529 0.0
O224 O 0.38865 0.77355 0.16716 0.0
O225 O 0.37233 0.74873 0.16611 0.0
O226 O 0.40706 0.78579 1.01011 0.0
O227 O 0.41046 0.7557 0.10013 0.0
O228 O 0.38332 0.7131 0.02491 0.0
O229 O 0.39538 0.70033 0.0966 0.0
O230 O 0.37343 0.74007 0.94266 0.0
O231 O 0.38962 0.76595 0.945 0.0
H232 H 0.32976 0.78013 0.02119 0.0
H233 H 0.3114 0.78547 0.06902 0.0
H234 H 0.32261 0.71296 0.22249 0.0
H235 H 0.3411 0.70822 0.17526 0.0
H236 H 0.4294 0.72187 0.09865 0.0
H237 H 0.44922 0.71622 0.08175 0.0
H238 H 0.44598 0.80482 0.94986 0.0
H239 H 0.42613 0.81114 0.96883 0.0
Pr240 Pr 0.62461 0.24536 0.97414 0.0
Pr241 Pr 0.64888 0.25352 0.97932 0.0
C242 C 0.60368 0.22727 0.9809 0.0
C243 C 0.59183 0.23654 0.99507 0.0
C244 C 0.5856 0.26274 0.95923 0.0
C245 C 0.57411 0.26723 0.96543 0.0
C246 C 0.56856 0.24568 1.00762 0.0
C247 C 0.57487 0.22046 0.04543 0.0
C248 C 0.58635 0.21589 0.03901 0.0
C249 C 0.62941 0.31574 0.97134 0.0
C250 C 0.63655 0.25071 0.11993 0.0
C251 C 0.66971 0.27196 0.96839 0.0
C252 C 0.68046 0.26621 0.93359 0.0
C253 C 0.6877 0.23619 0.94531 0.0
C254 C 0.69833 0.23308 0.91853 0.0
C255 C 0.70202 0.25989 0.8794 0.0
C256 C 0.69466 0.28947 0.86627 0.0
C257 C 0.68404 0.29263 0.89323 0.0
C258 C 0.6441 0.18374 0.99036 0.0
C259 C 0.63728 0.24462 0.83334 0.0
O260 O 0.6107 0.22187 0.02927 0.0
O261 O 0.60791 0.24108 0.92919 0.0
O262 O 0.63412 0.29213 1.00712 0.0
O263 O 0.62155 0.30378 0.93797 0.0
O264 O 0.6442 0.26637 0.0886 0.0
O265 O 0.62901 0.23557 0.0865 0.0
O266 O 0.66133 0.28828 0.93753 0.0
O267 O 0.66686 0.24756 1.00801 0.0
O268 O 0.63938 0.20571 0.9508 0.0
O269 O 0.65194 0.19695 0.0219 0.0
O270 O 0.62936 0.23087 0.86549 0.0
O271 O 0.64503 0.25918 0.86577 0.0
H272 H 0.58954 0.27909 0.92476 0.0
H273 H 0.56955 0.28727 0.93631 0.0
H274 H 0.5709 0.20315 0.07791 0.0
H275 H 0.59091 0.1952 0.06658 0.0
H276 H 0.68526 0.21536 0.97642 0.0
H277 H 0.70369 0.20971 0.92899 0.0
H278 H 0.69723 0.31084 0.83706 0.0
H279 H 0.67873 0.31629 0.88401 0.0
Pr280 Pr 0.39319 0.25867 0.96632 0.0
Pr281 Pr 0.369 0.25286 0.97416 0.0
C282 C 0.41443 0.27407 0.97079 0.0
C283 C 0.42626 0.2644 0.98585 0.0
C284 C 0.43272 0.24094 0.94567 0.0
C285 C 0.44419 0.23656 0.95285 0.0
C286 C 0.44951 0.25548 1.00037 0.0
C287 C 0.443 0.27781 0.0424 0.0
C288 C 0.43152 0.28234 0.03497 0.0
C289 C 0.38768 0.18912 0.96306 0.0
C290 C 0.38168 0.25297 0.11399 0.0
C291 C 0.34786 0.23692 0.96529 0.0
C292 C 0.3371 0.24275 0.93042 0.0
C293 C 0.32949 0.27116 0.9466 0.0
C294 C 0.31885 0.27416 0.92001 0.0
C295 C 0.31548 0.24879 0.87664 0.0
C296 C 0.32319 0.22087 0.85911 0.0
C297 C 0.33383 0.21781 0.88589 0.0
C298 C 0.3745 0.32171 0.98661 0.0
C299 C 0.38023 0.26204 0.82677 0.0
O300 O 0.40743 0.28204 0.01824 0.0
O301 O 0.41005 0.25898 0.9212 0.0
O302 O 0.38349 0.21258 1.00062 0.0
O303 O 0.39522 0.20087 0.9267 0.0
O304 O 0.37362 0.23917 0.08319 0.0
O305 O 0.38949 0.26664 0.08007 0.0
O306 O 0.35608 0.21878 0.93637 0.0
O307 O 0.35101 0.26203 1.00178 0.0
O308 O 0.37876 0.3001 0.94513 0.0
O309 O 0.36689 0.30854 0.02033 0.0
O310 O 0.38841 0.27454 0.85842 0.0
O311 O 0.37235 0.24835 0.85975 0.0
H312 H 0.42899 0.22679 0.90701 0.0
H313 H 0.44891 0.21875 0.92028 0.0
H314 H 0.4468 0.29303 0.07916 0.0
H315 H 0.4268 0.30099 0.06602 0.0
H316 H 0.33165 0.29073 0.98117 0.0
H317 H 0.31321 0.29628 0.93397 0.0
H318 H 0.32088 0.2006 0.8265 0.0
H319 H 0.33941 0.19529 0.87317 0.0
H320 H 0.22151 0.24256 0.57824 0.0
H321 H 0.24051 0.2404 0.61689 0.0
H322 H 0.22907 0.27287 0.80935 0.0
H323 H 0.21 0.27514 0.77092 0.0
H324 H 0.24596 0.30766 0.7746 0.0
H325 H 0.23898 0.18694 0.77554 0.0
H326 H 0.23325 0.13248 0.72862 0.0
H327 H 0.25857 0.13308 0.58243 0.0
H328 H 0.26437 0.18782 0.62797 0.0
H329 H 0.29644 0.26746 0.94463 0.0
H330 H 0.27749 0.26978 0.90524 0.0
H331 H 0.28911 0.2365 0.71356 0.0
H332 H 0.30813 0.23402 0.75281 0.0
H333 H 0.27215 0.20223 0.74735 0.0
H334 H 0.27918 0.32271 0.7462 0.0
H335 H 0.28493 0.37728 0.79258 0.0
H336 H 0.25953 0.37733 0.9384 0.0
H337 H 0.25372 0.32248 0.89342 0.0
C338 C 0.223 0.24881 0.62907 0.0
C339 C 0.21416 0.2588 0.67149 0.0
C340 C 0.23391 0.24762 0.65114 0.0
C341 C 0.23629 0.25603 0.71642 0.0
C342 C 0.22749 0.26626 0.75878 0.0
C343 C 0.21657 0.2676 0.73666 0.0
C344 C 0.24793 0.25462 0.74016 0.0
C345 C 0.25163 0.28441 0.76945 0.0
C346 C 0.25548 0.22465 0.73208 0.0
C347 C 0.25204 0.19166 0.7048 0.0
C348 C 0.24328 0.17559 0.7331 0.0
C349 C 0.24002 0.14465 0.70679 0.0
C350 C 0.24552 0.12938 0.65247 0.0
C351 C 0.25431 0.14497 0.62445 0.0
C352 C 0.25759 0.17593 0.65053 0.0
C353 C 0.295 0.26106 0.89381 0.0
C354 C 0.30388 0.25078 0.85187 0.0
C355 C 0.28412 0.26235 0.8713 0.0
C356 C 0.2818 0.25378 0.80602 0.0
C357 C 0.29064 0.24326 0.76412 0.0
C358 C 0.30153 0.2418 0.7867 0.0
C359 C 0.27018 0.25526 0.78187 0.0
C360 C 0.26648 0.22549 0.75249 0.0
C361 C 0.26263 0.28526 0.7898 0.0
C362 C 0.26608 0.31831 0.81681 0.0
C363 C 0.27487 0.33422 0.78846 0.0
C364 C 0.27813 0.36522 0.81445 0.0
C365 C 0.27261 0.38071 0.86851 0.0
C366 C 0.2638 0.36528 0.89658 0.0
C367 C 0.26052 0.33425 0.87082 0.0
H368 H 0.27515 0.40472 0.88856 0.0
H369 H 0.24299 0.10542 0.63218 0.0
H370 H 0.72092 0.23534 0.9442 0.0
H371 H 0.73989 0.23295 0.90493 0.0
H372 H 0.72854 0.27788 0.72006 0.0
H373 H 0.70948 0.27953 0.75844 0.0
H374 H 0.74437 0.22505 0.701 0.0
H375 H 0.74003 0.32719 0.83572 0.0
H376 H 0.73529 0.36095 0.93605 0.0
H377 H 0.75979 0.29702 0.04419 0.0
H378 H 0.76458 0.26255 0.94464 0.0
H379 H 0.79598 0.27109 0.58498 0.0
H380 H 0.777 0.27346 0.62404 0.0
H381 H 0.78831 0.2288 0.80921 0.0
H382 H 0.80738 0.22721 0.77107 0.0
H383 H 0.7725 0.28152 0.82803 0.0
H384 H 0.77683 0.17937 0.69331 0.0
H385 H 0.78157 0.14562 0.59297 0.0
H386 H 0.75707 0.20954 0.48484 0.0
H387 H 0.75228 0.24401 0.58438 0.0
C388 C 0.72242 0.24435 0.89486 0.0
C389 C 0.71361 0.25766 0.85459 0.0
C390 C 0.73331 0.2433 0.87268 0.0
C391 C 0.73571 0.25565 0.80974 0.0
C392 C 0.72694 0.26833 0.76891 0.0
C393 C 0.71603 0.2695 0.79114 0.0
C394 C 0.74734 0.2554 0.7867 0.0
C395 C 0.75047 0.23783 0.72835 0.0
C396 C 0.75543 0.27135 0.82297 0.0
C397 C 0.75259 0.29207 0.88287 0.0
C398 C 0.74435 0.32015 0.88102 0.0
C399 C 0.74166 0.33944 0.93772 0.0
C400 C 0.74722 0.33107 0.9965 0.0
C401 C 0.75549 0.30344 0.99865 0.0
C402 C 0.7582 0.28403 0.94208 0.0
C403 C 0.79447 0.26214 0.63434 0.0
C404 C 0.80327 0.24893 0.67478 0.0
C405 C 0.78357 0.26317 0.6564 0.0
C406 C 0.78116 0.25089 0.71936 0.0
C407 C 0.78992 0.23829 0.76034 0.0
C408 C 0.80084 0.23716 0.73824 0.0
C409 C 0.76952 0.25116 0.74234 0.0
C410 C 0.76639 0.26874 0.80068 0.0
C411 C 0.76144 0.23522 0.70606 0.0
C412 C 0.76428 0.2145 0.64615 0.0
C413 C 0.77251 0.18641 0.64801 0.0
C414 C 0.7752 0.16712 0.5913 0.0
C415 C 0.76965 0.17549 0.53252 0.0
C416 C 0.76137 0.20312 0.53038 0.0
C417 C 0.75867 0.22253 0.58694 0.0
H418 H 0.77173 0.16051 0.48867 0.0
H419 H 0.74513 0.34605 0.04035 0.0
H420 H 0.29621 0.75008 0.07941 0.0
H421 H 0.27742 0.7523 0.12104 0.0
H422 H 0.28962 0.75305 0.3197 0.0
H423 H 0.30851 0.75091 0.27827 0.0
H424 H 0.27384 0.70956 0.30964 0.0
H425 H 0.27747 0.82786 0.24527 0.0
H426 H 0.28175 0.87524 0.17037 0.0
H427 H 0.25692 0.84736 0.03608 0.0
H428 H 0.25259 0.79948 0.10979 0.0
H429 H 0.22245 0.76003 0.46236 0.0
H430 H 0.24133 0.75735 0.42186 0.0
H431 H 0.22945 0.75692 0.22248 0.0
H432 H 0.21049 0.75952 0.26272 0.0
H433 H 0.24511 0.80042 0.23359 0.0
H434 H 0.24152 0.682 0.29781 0.0
H435 H 0.23724 0.63461 0.3727 0.0
H436 H 0.26199 0.66274 0.50734 0.0
H437 H 0.26632 0.71063 0.43363 0.0
C438 C 0.29493 0.75115 0.13199 0.0
C439 C 0.30393 0.75065 0.17537 0.0
C440 C 0.28414 0.75235 0.15579 0.0
C441 C 0.28203 0.75336 0.22362 0.0
C442 C 0.291 0.75233 0.26716 0.0
C443 C 0.30182 0.75103 0.24336 0.0
C444 C 0.27049 0.75522 0.24889 0.0
C445 C 0.26761 0.72975 0.29371 0.0
C446 C 0.26223 0.78102 0.22708 0.0
C447 C 0.26478 0.80988 0.18278 0.0
C448 C 0.27298 0.83167 0.19953 0.0
C449 C 0.27541 0.85864 0.15733 0.0
C450 C 0.26963 0.86426 0.09842 0.0
C451 C 0.26139 0.84296 0.08168 0.0
C452 C 0.25895 0.81592 0.12368 0.0
C453 C 0.22383 0.7589 0.40986 0.0
C454 C 0.21489 0.75974 0.36591 0.0
C455 C 0.23467 0.75744 0.38671 0.0
C456 C 0.23689 0.75647 0.319 0.0
C457 C 0.22799 0.75764 0.27493 0.0
C458 C 0.21713 0.7592 0.29806 0.0
C459 C 0.24846 0.75473 0.29425 0.0
C460 C 0.25134 0.78023 0.24955 0.0
C461 C 0.25672 0.72896 0.31617 0.0
C462 C 0.25417 0.70011 0.36048 0.0
C463 C 0.24599 0.67825 0.34362 0.0
C464 C 0.24357 0.65127 0.38582 0.0
C465 C 0.24932 0.64573 0.44482 0.0
C466 C 0.25753 0.6671 0.46166 0.0
C467 C 0.25998 0.69414 0.41966 0.0
H468 H 0.24743 0.62483 0.47743 0.0
H469 H 0.27152 0.88516 0.06581 0.0
H470 H 0.70923 0.7834 0.27163 0.0
H471 H 0.72821 0.78048 0.31147 0.0
H472 H 0.73933 0.72548 0.13618 0.0
H473 H 0.72039 0.72822 0.09616 0.0
H474 H 0.74961 0.69633 0.23952 0.0
H475 H 0.74243 0.81387 0.15944 0.0
H476 H 0.73231 0.87224 0.15133 0.0
H477 H 0.73785 0.88934 0.35643 0.0
H478 H 0.74788 0.83085 0.36596 0.0
H479 H 0.80666 0.71572 0.26976 0.0
H480 H 0.78758 0.7192 0.23192 0.0
H481 H 0.7771 0.77419 0.40843 0.0
H482 H 0.79618 0.77094 0.44645 0.0
H483 H 0.76641 0.80333 0.30614 0.0
H484 H 0.77371 0.68608 0.38617 0.0
H485 H 0.78383 0.62773 0.39446 0.0
H486 H 0.77804 0.61005 0.18983 0.0
H487 H 0.76801 0.66852 0.18011 0.0
C488 C 0.71571 0.77084 0.24133 0.0
C489 C 0.71323 0.75612 0.1805 0.0
C490 C 0.72659 0.76919 0.26421 0.0
C491 C 0.73529 0.75316 0.22654 0.0
C492 C 0.73281 0.73797 0.16633 0.0
C493 C 0.72194 0.73945 0.14356 0.0
C494 C 0.74696 0.75215 0.24968 0.0
C495 C 0.75331 0.71982 0.25325 0.0
C496 C 0.75179 0.78261 0.26923 0.0
C497 C 0.74581 0.81785 0.26354 0.0
C498 C 0.74142 0.82998 0.20291 0.0
C499 C 0.73571 0.8631 0.19805 0.0
C500 C 0.73442 0.88445 0.25337 0.0
C501 C 0.73885 0.87276 0.31364 0.0
C502 C 0.74455 0.83964 0.31879 0.0
C503 C 0.8003 0.7284 0.30078 0.0
C504 C 0.803 0.74288 0.36142 0.0
C505 C 0.78936 0.73037 0.27904 0.0
C506 C 0.78081 0.74649 0.31768 0.0
C507 C 0.7835 0.76159 0.37761 0.0
C508 C 0.79445 0.75979 0.39924 0.0
C509 C 0.76907 0.74752 0.29576 0.0
C510 C 0.76271 0.77984 0.29246 0.0
C511 C 0.76422 0.71705 0.27649 0.0
C512 C 0.7702 0.68181 0.28229 0.0
C513 C 0.77466 0.66984 0.34284 0.0
C514 C 0.78037 0.63674 0.34781 0.0
C515 C 0.7816 0.61523 0.29267 0.0
C516 C 0.7771 0.62676 0.23248 0.0
C517 C 0.77139 0.65986 0.22723 0.0
H518 H 0.78603 0.58961 0.29662 0.0
H519 H 0.72999 0.91008 0.2495 0.0
H520 H 0.11272 0.8761 0.48409 0.0
H521 H 0.11595 0.93774 0.49233 0.0
H522 H 0.15026 0.90869 0.53252 0.0
H523 H 0.14709 0.8466 0.52325 0.0
H524 H 0.14041 0.96221 0.61725 0.0
H525 H 0.14421 0.93731 0.38766 0.0
H526 H 0.13867 0.91524 0.28029 0.0
H527 H 0.10976 0.98788 0.28115 0.0
H528 H 0.11505 0.01004 0.38905 0.0
H529 H 0.15276 0.13801 0.45417 0.0
H530 H 0.15026 0.07587 0.4491 0.0
H531 H 0.12807 0.08694 0.614 0.0
H532 H 0.13061 0.14956 0.61946 0.0
H533 H 0.13278 0.04134 0.42645 0.0
H534 H 0.13099 0.00948 0.7032 0.0
H535 H 0.1378 0.03078 0.8084 0.0
H536 H 0.16507 0.0705 0.70897 0.0
H537 H 0.15851 0.04904 0.60338 0.0
C538 C 0.12096 0.88278 0.49464 0.0
C539 C 0.12966 0.85648 0.50279 0.0
C540 C 0.1228 0.91807 0.4993 0.0
C541 C 0.13335 0.92795 0.51288 0.0
C542 C 0.14204 0.90172 0.52211 0.0
C543 C 0.14024 0.86629 0.51652 0.0
C544 C 0.13525 0.96569 0.51619 0.0
C545 C 0.13873 0.97953 0.57557 0.0
C546 C 0.13318 0.98832 0.46169 0.0
C547 C 0.12997 0.97509 0.39677 0.0
C548 C 0.13662 0.94836 0.36525 0.0
C549 C 0.13353 0.93588 0.30423 0.0
C550 C 0.12385 0.95008 0.274 0.0
C551 C 0.11725 0.97687 0.30467 0.0
C552 C 0.12029 0.98942 0.36574 0.0
C553 C 0.14734 0.12728 0.48948 0.0
C554 C 0.14193 0.14873 0.53749 0.0
C555 C 0.14589 0.09168 0.48634 0.0
C556 C 0.13905 0.07643 0.53142 0.0
C557 C 0.1335 0.09789 0.57911 0.0
C558 C 0.13492 0.13371 0.58208 0.0
C559 C 0.13779 0.03816 0.52791 0.0
C560 C 0.13441 0.02415 0.46836 0.0
C561 C 0.14008 0.01535 0.58204 0.0
C562 C 0.14418 0.02799 0.64534 0.0
C563 C 0.13846 0.02266 0.70386 0.0
C564 C 0.14228 0.03477 0.76354 0.0
C565 C 0.15184 0.05209 0.76533 0.0
C566 C 0.15764 0.05721 0.70748 0.0
C567 C 0.15387 0.04512 0.64769 0.0
H568 H 0.15477 0.06147 0.81157 0.0
H569 H 0.12148 0.9404 0.22675 0.0
H570 H 0.86974 0.36383 0.43212 0.0
H571 H 0.8726 0.42591 0.42392 0.0
H572 H 0.88734 0.42177 0.61636 0.0
H573 H 0.88482 0.35903 0.62404 0.0
H574 H 0.86686 0.48066 0.57112 0.0
H575 H 0.90467 0.4298 0.52985 0.0
H576 H 0.91774 0.38826 0.47091 0.0
H577 H 0.90676 0.43359 0.28662 0.0
H578 H 0.89349 0.47503 0.34451 0.0
H579 H 0.88135 0.65509 0.57514 0.0
H580 H 0.88009 0.59256 0.59084 0.0
H581 H 0.88736 0.57513 0.38538 0.0
H582 H 0.88961 0.63732 0.37158 0.0
H583 H 0.89692 0.52509 0.44048 0.0
H584 H 0.85984 0.57386 0.4666 0.0
H585 H 0.84449 0.61298 0.51104 0.0
H586 H 0.85089 0.57064 0.70411 0.0
H587 H 0.86638 0.53161 0.66097 0.0
C588 C 0.87368 0.37604 0.47253 0.0
C589 C 0.87706 0.35652 0.52874 0.0
C590 C 0.87529 0.41154 0.46778 0.0
C591 C 0.88013 0.42856 0.51961 0.0
C592 C 0.88357 0.40917 0.57583 0.0
C593 C 0.88218 0.37332 0.58003 0.0
C594 C 0.88145 0.46665 0.51462 0.0
C595 C 0.87354 0.49054 0.54367 0.0
C596 C 0.88982 0.47945 0.47604 0.0
C597 C 0.89804 0.45531 0.44147 0.0
C598 C 0.905 0.43075 0.47675 0.0
C599 C 0.91245 0.40725 0.44354 0.0
C600 C 0.91307 0.40824 0.37505 0.0
C601 C 0.90627 0.43284 0.33966 0.0
C602 C 0.89879 0.45637 0.37265 0.0
C603 C 0.8826 0.63787 0.53331 0.0
C604 C 0.88548 0.65113 0.47198 0.0
C605 C 0.8818 0.60197 0.54212 0.0
C606 C 0.88336 0.57854 0.48907 0.0
C607 C 0.88612 0.59213 0.4275 0.0
C608 C 0.88732 0.62783 0.41935 0.0
C609 C 0.88234 0.54 0.49777 0.0
C610 C 0.89026 0.51574 0.46875 0.0
C611 C 0.87371 0.52686 0.53461 0.0
C612 C 0.86434 0.55007 0.56065 0.0
C613 C 0.85802 0.57304 0.5186 0.0
C614 C 0.84929 0.59518 0.54355 0.0
C615 C 0.84674 0.59435 0.61038 0.0
C616 C 0.85289 0.57129 0.65237 0.0
C617 C 0.86164 0.54914 0.62769 0.0
H618 H 0.83998 0.61152 0.62961 0.0
H619 H 0.91883 0.38999 0.34942 0.0
H620 H 0.89156 0.84984 0.46776 0.0
H621 H 0.89494 0.91157 0.47812 0.0
H622 H 0.85996 0.94078 0.47431 0.0
H623 H 0.8566 0.87946 0.46274 0.0
H624 H 0.86998 0.98599 0.4037 0.0
H625 H 0.87524 0.93611 0.61978 0.0
H626 H 0.88345 0.89378 0.70118 0.0
H627 H 0.91555 0.92525 0.65866 0.0
H628 H 0.90754 0.96745 0.57631 0.0
H629 H 0.87041 0.15902 0.53087 0.0
H630 H 0.86724 0.09739 0.51572 0.0
H631 H 0.90227 0.06917 0.51961 0.0
H632 H 0.90543 0.13036 0.53574 0.0
H633 H 0.89237 0.02343 0.5893 0.0
H634 H 0.88717 0.07383 0.37446 0.0
H635 H 0.87905 0.11604 0.2926 0.0
H636 H 0.84696 0.08359 0.33202 0.0
H637 H 0.85488 0.04153 0.4149 0.0
C638 C 0.88461 0.86949 0.46868 0.0
C639 C 0.87381 0.85971 0.46467 0.0
C640 C 0.88653 0.90481 0.47499 0.0
C641 C 0.8777 0.9311 0.478 0.0
C642 C 0.86694 0.92126 0.47223 0.0
C643 C 0.86502 0.88607 0.46579 0.0
C644 C 0.87957 0.96871 0.48849 0.0
C645 C 0.87477 0.99415 0.44477 0.0
C646 C 0.88599 0.97966 0.54126 0.0
C647 C 0.8908 0.95469 0.59145 0.0
C648 C 0.88406 0.93386 0.62753 0.0
C649 C 0.88868 0.9099 0.67385 0.0
C650 C 0.90002 0.90676 0.68496 0.0
C651 C 0.90677 0.92767 0.64993 0.0
C652 C 0.90219 0.95163 0.60347 0.0
C653 C 0.87742 0.13962 0.52863 0.0
C654 C 0.88817 0.14963 0.5344 0.0
C655 C 0.87561 0.10436 0.51963 0.0
C656 C 0.88453 0.07837 0.51574 0.0
C657 C 0.89524 0.08847 0.52241 0.0
C658 C 0.89704 0.12359 0.53144 0.0
C659 C 0.88277 0.04074 0.50457 0.0
C660 C 0.88758 0.01529 0.54819 0.0
C661 C 0.87637 0.0298 0.45167 0.0
C662 C 0.87161 0.05478 0.40135 0.0
C663 C 0.87837 0.07586 0.366 0.0
C664 C 0.87381 0.09974 0.31938 0.0
C665 C 0.86249 0.10256 0.30724 0.0
C666 C 0.85573 0.08141 0.34155 0.0
C667 C 0.86025 0.05754 0.38833 0.0
H668 H 0.85897 0.12107 0.27115 0.0
H669 H 0.90358 0.88818 0.7208 0.0
H670 H 0.12633 0.65616 0.44783 0.0
H671 H 0.12309 0.59393 0.45387 0.0
H672 H 0.15426 0.57142 0.55206 0.0
H673 H 0.15733 0.633 0.5481 0.0
H674 H 0.13355 0.53287 0.40945 0.0
H675 H 0.15262 0.50978 0.66799 0.0
H676 H 0.15605 0.54453 0.76616 0.0
H677 H 0.12851 0.61759 0.71638 0.0
H678 H 0.12469 0.58267 0.61962 0.0
H679 H 0.14392 0.35032 0.47765 0.0
H680 H 0.14549 0.41297 0.46297 0.0
H681 H 0.12021 0.43591 0.60849 0.0
H682 H 0.11876 0.37343 0.62406 0.0
H683 H 0.13608 0.47563 0.6284 0.0
H684 H 0.1152 0.44687 0.44032 0.0
H685 H 0.11135 0.41396 0.34055 0.0
H686 H 0.14051 0.44612 0.24955 0.0
H687 H 0.14461 0.47886 0.34915 0.0
C688 C 0.13247 0.63784 0.47066 0.0
C689 C 0.14203 0.64961 0.49809 0.0
C690 C 0.13064 0.60225 0.4738 0.0
C691 C 0.13835 0.57785 0.50432 0.0
C692 C 0.14806 0.58961 0.52945 0.0
C693 C 0.14982 0.62498 0.52706 0.0
C694 C 0.13618 0.5404 0.51274 0.0
C695 C 0.13408 0.52039 0.45732 0.0
C696 C 0.1367 0.52395 0.57528 0.0
C697 C 0.13844 0.54377 0.63616 0.0
C698 C 0.14721 0.533 0.67857 0.0
C699 C 0.14922 0.55273 0.73404 0.0
C700 C 0.14252 0.58328 0.74759 0.0
C701 C 0.13369 0.5939 0.70619 0.0
C702 C 0.13158 0.57409 0.65109 0.0
C703 C 0.13871 0.36875 0.50655 0.0
C704 C 0.13118 0.35688 0.55187 0.0
C705 C 0.13956 0.40462 0.49781 0.0
C706 C 0.13286 0.42944 0.53389 0.0
C707 C 0.12546 0.41748 0.57985 0.0
C708 C 0.12462 0.38167 0.58868 0.0
C709 C 0.13367 0.46779 0.52496 0.0
C710 C 0.13551 0.48803 0.58044 0.0
C711 C 0.13277 0.48442 0.46261 0.0
C712 C 0.13026 0.46508 0.40241 0.0
C713 C 0.12082 0.44675 0.39918 0.0
C714 C 0.11859 0.42815 0.34264 0.0
C715 C 0.12569 0.42788 0.2888 0.0
C716 C 0.13502 0.44632 0.29132 0.0
C717 C 0.1373 0.46494 0.34777 0.0
H718 H 0.12395 0.41345 0.24509 0.0
H719 H 0.1442 0.59871 0.79011 0.0
H720 H 0.62705 0.64977 0.09608 0.0
H721 H 0.62399 0.58774 0.08583 0.0
H722 H 0.65342 0.57056 0.96855 0.0
H723 H 0.65625 0.63223 0.97686 0.0
H724 H 0.63869 0.53747 0.91495 0.0
H725 H 0.65174 0.54542 0.13684 0.0
H726 H 0.65162 0.56797 0.25008 0.0
H727 H 0.61937 0.53474 0.28043 0.0
H728 H 0.61925 0.51237 0.16704 0.0
H729 H 0.644 0.34603 0.05014 0.0
H730 H 0.64604 0.40839 0.06369 0.0
H731 H 0.61981 0.43323 0.9245 0.0
H732 H 0.61787 0.37095 0.9101 0.0
H733 H 0.63283 0.46214 0.10749 0.0
H734 H 0.6246 0.50617 0.83837 0.0
H735 H 0.62685 0.48228 0.7264 0.0
H736 H 0.65328 0.40923 0.79298 0.0
H737 H 0.65129 0.43301 0.90506 0.0
C738 C 0.63286 0.63265 0.06832 0.0
C739 C 0.64192 0.6459 0.03752 0.0
C740 C 0.63114 0.59713 0.06263 0.0
C741 C 0.63853 0.57408 0.02684 0.0
C742 C 0.64755 0.58754 0.99622 0.0
C743 C 0.6492 0.62291 1.00129 0.0
C744 C 0.63694 0.53608 0.02021 0.0
C745 C 0.63736 0.52114 0.9572 0.0
C746 C 0.63536 0.51427 0.07506 0.0
C747 C 0.63544 0.52755 0.14328 0.0
C748 C 0.64459 0.54314 0.16753 0.0
C749 C 0.64457 0.55585 0.23175 0.0
C750 C 0.63548 0.55288 0.27236 0.0
C751 C 0.6264 0.53708 0.24889 0.0
C752 C 0.62637 0.52436 0.18467 0.0
C753 C 0.63869 0.3648 0.02228 0.0
C754 C 0.6308 0.35352 0.97886 0.0
C755 C 0.63983 0.40049 0.03033 0.0
C756 C 0.63314 0.42572 0.99488 0.0
C757 C 0.62519 0.41442 0.95184 0.0
C758 C 0.62406 0.37875 0.94371 0.0
C759 C 0.63456 0.46374 1.00231 0.0
C760 C 0.63408 0.47861 0.06533 0.0
C761 C 0.63636 0.48537 0.94764 0.0
C762 C 0.6377 0.47113 0.88024 0.0
C763 C 0.63091 0.48509 0.82904 0.0
C764 C 0.63214 0.47156 0.76557 0.0
C765 C 0.64017 0.44417 0.75264 0.0
C766 C 0.64703 0.43035 0.80311 0.0
C767 C 0.64585 0.44382 0.86663 0.0
H768 H 0.6411 0.43371 0.70349 0.0
H769 H 0.63548 0.56274 0.32206 0.0
H770 H 0.37057 0.86559 0.9359 0.0
H771 H 0.37375 0.92737 0.9272 0.0
H772 H 0.38695 0.92433 0.12363 0.0
H773 H 0.38411 0.86186 0.13195 0.0
H774 H 0.36743 0.98315 0.07438 0.0
H775 H 0.40494 0.93 0.03803 0.0
H776 H 0.41811 0.8875 0.98202 0.0
H777 H 0.40833 0.9324 0.79528 0.0
H778 H 0.39497 0.9748 0.85018 0.0
H779 H 0.38268 0.1558 0.07603 0.0
H780 H 0.38157 0.09336 0.09294 0.0
H781 H 0.38824 0.07514 0.88702 0.0
H782 H 0.39027 0.13743 0.87162 0.0
H783 H 0.398 0.02515 0.94459 0.0
H784 H 0.36104 0.07569 0.96711 0.0
H785 H 0.34577 0.11581 1.00962 0.0
H786 H 0.35163 0.07478 0.20413 0.0
H787 H 0.36704 0.03473 0.16292 0.0
C788 C 0.37421 0.87801 0.97717 0.0
C789 C 0.37708 0.85896 0.03467 0.0
C790 C 0.37601 0.91329 0.97208 0.0
C791 C 0.38054 0.93041 0.02479 0.0
C792 C 0.38343 0.91153 0.08243 0.0
C793 C 0.38185 0.87591 0.08703 0.0
C794 C 0.3821 0.96816 0.01924 0.0
C795 C 0.37422 0.99251 0.04717 0.0
C796 C 0.39065 0.98015 0.98099 0.0
C797 C 0.3989 0.95537 0.94818 0.0
C798 C 0.40555 0.93064 0.985 0.0
C799 C 0.41305 0.90661 0.95347 0.0
C800 C 0.41404 0.90721 0.88512 0.0
C801 C 0.40755 0.93195 0.84821 0.0
C802 C 0.40003 0.95602 0.87952 0.0
C803 C 0.38389 0.13842 0.0344 0.0
C804 C 0.38648 0.15145 0.97239 0.0
C805 C 0.38317 0.10263 0.04393 0.0
C806 C 0.38453 0.07914 0.99102 0.0
C807 C 0.38714 0.09237 0.92891 0.0
C808 C 0.38823 0.12804 0.91991 0.0
C809 C 0.38335 0.04094 1.00046 0.0
C810 C 0.39124 0.01626 0.97263 0.0
C811 C 0.37457 0.02861 0.03713 0.0
C812 C 0.36526 0.05246 0.06202 0.0
C813 C 0.35911 0.07537 0.01901 0.0
C814 C 0.35043 0.09808 0.04287 0.0
C815 C 0.34775 0.0979 0.10956 0.0
C816 C 0.35373 0.07492 0.1525 0.0
C817 C 0.36243 0.05219 0.12892 0.0
H818 H 0.34103 0.11551 0.12794 0.0
H819 H 0.41984 0.88855 0.86079 0.0
H820 H 0.36703 0.36805 0.07993 0.0
H821 H 0.36968 0.42994 0.08723 0.0
H822 H 0.38913 0.42241 0.91015 0.0
H823 H 0.38674 0.35971 0.90376 0.0
H824 H 0.39808 0.46332 0.99392 0.0
H825 H 0.36187 0.45861 0.9098 0.0
H826 H 0.34303 0.44051 0.9053 0.0
H827 H 0.33578 0.48851 0.09222 0.0
H828 H 0.35464 0.5065 0.09826 0.0
H829 H 0.37417 0.6602 0.97359 0.0
H830 H 0.37242 0.59816 0.95445 0.0
H831 H 0.39564 0.5712 0.11038 0.0
H832 H 0.39759 0.6332 0.1286 0.0
H833 H 0.36534 0.54828 0.02352 0.0
H834 H 0.41048 0.49408 0.07857 0.0
H835 H 0.42919 0.51303 0.06931 0.0
H836 H 0.4183 0.58484 0.91574 0.0
H837 H 0.39958 0.56598 0.92341 0.0
C838 C 0.37189 0.3795 0.04249 0.0
C839 C 0.37658 0.35905 0.99086 0.0
C840 C 0.37336 0.41503 0.04657 0.0
C841 C 0.3794 0.43126 0.9985 0.0
C842 C 0.38437 0.41065 0.94769 0.0
C843 C 0.38298 0.37484 0.94393 0.0
C844 C 0.38041 0.46968 1.00154 0.0
C845 C 0.39091 0.48186 1.00034 0.0
C846 C 0.37107 0.49423 1.0083 0.0
C847 C 0.3597 0.48367 1.0047 0.0
C848 C 0.35628 0.46512 0.95014 0.0
C849 C 0.3456 0.4549 0.94729 0.0
C850 C 0.33822 0.46329 0.9985 0.0
C851 C 0.34151 0.482 0.05261 0.0
C852 C 0.35219 0.49226 0.05573 0.0
C853 C 0.3789 0.64104 1.0038 0.0
C854 C 0.38607 0.65162 0.05234 0.0
C855 C 0.37788 0.60553 0.99289 0.0
C856 C 0.38402 0.57975 0.03021 0.0
C857 C 0.39099 0.59039 0.07985 0.0
C858 C 0.39204 0.6259 0.09056 0.0
C859 C 0.38303 0.54187 0.01772 0.0
C860 C 0.37251 0.52978 0.01709 0.0
C861 C 0.39233 0.51758 1.0075 0.0
C862 C 0.4036 0.52885 1.00209 0.0
C863 C 0.41209 0.51382 0.04267 0.0
C864 C 0.4227 0.52456 0.03771 0.0
C865 C 0.42492 0.5502 0.99212 0.0
C866 C 0.41656 0.56507 0.95121 0.0
C867 C 0.40595 0.5544 0.9559 0.0
H868 H 0.43314 0.55849 0.9884 0.0
H869 H 0.32995 0.45535 0.99621 0.0
H870 H 0.65602 0.13303 0.05967 0.0
H871 H 0.6533 0.07121 0.06776 0.0
H872 H 0.62499 0.08725 0.94055 0.0
H873 H 0.62792 0.14944 0.93084 0.0
H874 H 0.63806 0.03767 0.11645 0.0
H875 H 0.62161 0.01167 0.85682 0.0
H876 H 0.62303 0.03388 0.7436 0.0
H877 H 0.6547 0.06818 0.78762 0.0
H878 H 0.65353 0.04579 0.90079 0.0
H879 H 0.61754 0.87107 0.11595 0.0
H880 H 0.61961 0.93327 0.1015 0.0
H881 H 0.64693 0.90822 0.97037 0.0
H882 H 0.6447 0.84587 0.98355 0.0
H883 H 0.63448 0.96197 0.92254 0.0
H884 H 0.65064 0.93326 0.1323 0.0
H885 H 0.65136 0.90963 0.24511 0.0
H886 H 0.62419 0.98258 0.30015 0.0
H887 H 0.62321 0.00634 0.18737 0.0
C888 C 0.64924 0.12344 0.03307 0.0
C889 C 0.64223 0.14615 0.99425 0.0
C890 C 0.64766 0.08799 0.038 0.0
C891 C 0.63899 0.07418 1.00449 0.0
C892 C 0.63187 0.09694 0.96608 0.0
C893 C 0.63351 0.13254 0.96071 0.0
C894 C 0.63747 0.03609 1.01077 0.0
C895 C 0.63723 0.02124 0.0739 0.0
C896 C 0.63656 0.01419 0.95556 0.0
C897 C 0.63741 0.02741 0.88745 0.0
C898 C 0.62889 0.02386 0.84225 0.0
C899 C 0.62965 0.03649 0.7781 0.0
C900 C 0.63893 0.05254 0.7585 0.0
C901 C 0.6475 0.05587 0.80293 0.0
C902 C 0.64678 0.04325 0.8671 0.0
C903 C 0.624 0.8788 0.08409 0.0
C904 C 0.63098 0.85351 0.05103 0.0
C905 C 0.6252 0.91444 0.07597 0.0
C906 C 0.63351 0.92568 0.03531 0.0
C907 C 0.64044 0.90038 1.00192 0.0
C908 C 0.6392 0.8647 1.00974 0.0
C909 C 0.63502 0.9637 0.02819 0.0
C910 C 0.63523 0.9785 0.965 0.0
C911 C 0.63618 0.98545 0.08331 0.0
C912 C 0.63678 0.97134 0.15123 0.0
C913 C 0.64476 0.9441 0.16835 0.0
C914 C 0.64523 0.9307 0.23229 0.0
C915 C 0.6378 0.94454 0.27972 0.0
C916 C 0.62992 0.97186 0.26333 0.0
C917 C 0.62941 0.98532 0.19942 0.0
H918 H 0.63818 0.93413 0.3292 0.0
H919 H 0.6395 0.06233 0.70884 0.0
H920 H 0.12118 0.22984 0.32776 0.0
H921 H 0.1213 0.22841 0.20763 0.0
H922 H 0.15148 0.27848 0.20561 0.0
H923 H 0.15131 0.28058 0.32552 0.0
H924 H 0.13813 0.30616 0.11327 0.0
H925 H 0.15086 0.18932 0.17835 0.0
H926 H 0.14995 0.13354 0.2372 0.0
H927 H 0.11999 0.11702 0.13632 0.0
H928 H 0.12063 0.17298 0.07754 0.0
H929 H 0.15284 0.27165 0.78028 0.0
H930 H 0.15266 0.27257 0.90039 0.0
H931 H 0.12239 0.22296 0.90095 0.0
H932 H 0.12261 0.22143 0.78094 0.0
H933 H 0.1357 0.19498 0.99402 0.0
H934 H 0.12297 0.31177 0.92896 0.0
H935 H 0.1238 0.36775 0.87068 0.0
H936 H 0.15373 0.38443 0.97185 0.0
H937 H 0.15316 0.32828 0.03008 0.0
C938 C 0.12784 0.24064 0.30184 0.0
C939 C 0.13625 0.25521 0.33668 0.0
C940 C 0.12793 0.23964 0.23294 0.0
C941 C 0.13649 0.25288 0.19709 0.0
C942 C 0.14479 0.26801 0.23179 0.0
C943 C 0.14469 0.2691 0.30061 0.0
C944 C 0.13683 0.25098 0.12362 0.0
C945 C 0.13774 0.28173 0.08733 0.0
C946 C 0.13609 0.21932 0.08917 0.0
C947 C 0.13574 0.18551 0.12402 0.0
C948 C 0.14404 0.17391 0.16905 0.0
C949 C 0.14358 0.14224 0.20235 0.0
C950 C 0.1349 0.12179 0.19063 0.0
C951 C 0.12669 0.13291 0.14542 0.0
C952 C 0.1271 0.16459 0.11206 0.0
C953 C 0.14616 0.2608 0.80585 0.0
C954 C 0.13772 0.24658 0.77056 0.0
C955 C 0.14603 0.26152 0.87475 0.0
C956 C 0.13742 0.2483 0.9102 0.0
C957 C 0.12912 0.23342 0.87508 0.0
C958 C 0.12925 0.23263 0.80621 0.0
C959 C 0.13701 0.25015 0.98368 0.0
C960 C 0.13609 0.2194 0.01996 0.0
C961 C 0.13774 0.28182 0.01814 0.0
C962 C 0.13808 0.31565 0.98338 0.0
C963 C 0.12977 0.32724 0.93841 0.0
C964 C 0.13019 0.35903 0.90544 0.0
C965 C 0.13883 0.37959 0.91742 0.0
C966 C 0.14705 0.36845 0.96254 0.0
C967 C 0.14668 0.33666 0.99557 0.0
H968 H 0.13913 0.40419 0.89185 0.0
H969 H 0.13456 0.09728 0.21647 0.0
H970 H 0.89772 0.26794 0.32801 0.0
H971 H 0.89747 0.26892 0.20806 0.0
H972 H 0.86508 0.23255 0.20902 0.0
H973 H 0.86544 0.23037 0.32902 0.0
H974 H 0.87633 0.20114 0.11527 0.0
H975 H 0.87003 0.32099 0.17954 0.0
H976 H 0.87402 0.37417 0.23879 0.0
H977 H 0.90485 0.3744 0.13739 0.0
H978 H 0.90111 0.32091 0.07817 0.0
H979 H 0.86348 0.24479 0.78121 0.0
H980 H 0.8635 0.24375 0.90142 0.0
H981 H 0.89699 0.27089 0.90263 0.0
H982 H 0.89702 0.27222 0.78262 0.0
H983 H 0.88492 0.30756 0.99483 0.0
H984 H 0.89095 0.18701 0.93123 0.0
H985 H 0.88677 0.13357 0.87355 0.0
H986 H 0.85585 0.13549 0.97456 0.0
H987 H 0.85978 0.18925 0.0322 0.0
C988 C 0.89054 0.26004 0.30282 0.0
C989 C 0.88157 0.24926 0.33859 0.0
C990 C 0.89038 0.26083 0.23393 0.0
C991 C 0.88115 0.25152 0.19882 0.0
C992 C 0.87229 0.24003 0.23447 0.0
C993 C 0.8725 0.23886 0.30337 0.0
C994 C 0.88073 0.25381 0.12521 0.0
C995 C 0.87805 0.22465 0.08917 0.0
C996 C 0.88316 0.28417 0.09034 0.0
C997 C 0.88533 0.31676 0.12483 0.0
C998 C 0.87768 0.33228 0.1701 0.0
C999 C 0.8799 0.36248 0.20368 0.0
C1000 C 0.88969 0.3776 0.19198 0.0
C1001 C 0.89727 0.36264 0.14645 0.0
C1002 C 0.8951 0.3324 0.11281 0.0
C1003 C 0.87085 0.25067 0.80689 0.0
C1004 C 0.88026 0.25846 0.7717 0.0
C1005 C 0.87087 0.24991 0.87587 0.0
C1006 C 0.88029 0.25687 0.91155 0.0
C1007 C 0.88961 0.26537 0.87657 0.0
C1008 C 0.88961 0.266 0.80766 0.0
C1009 C 0.88051 0.25492 0.98512 0.0
C1010 C 0.88316 0.28414 0.02108 0.0
C1011 C 0.87797 0.22472 0.01995 0.0
C1012 C 0.87561 0.19235 0.9855 0.0
C1013 C 0.88322 0.17619 0.94075 0.0
C1014 C 0.8809 0.14582 0.90813 0.0
C1015 C 0.87104 0.1312 0.92024 0.0
C1016 C 0.86348 0.14688 0.96515 0.0
C1017 C 0.86575 0.17728 0.99783 0.0
H1018 H 0.86926 0.10768 0.89495 0.0
H1019 H 0.8914 0.40095 0.2181 0.0
H1020 H 0.15496 0.75197 0.2558 0.0
H1021 H 0.15467 0.75385 0.13568 0.0
H1022 H 0.11922 0.75904 0.1381 0.0
H1023 H 0.11946 0.75609 0.25772 0.0
H1024 H 0.12616 0.71618 0.04846 0.0
H1025 H 0.13418 0.83178 0.10222 0.0
H1026 H 0.14422 0.87683 0.15535 0.0
H1027 H 0.17371 0.83938 0.05308 0.0
H1028 H 0.16388 0.79379 0.99999 0.0
H1029 H 0.11883 0.7541 0.70826 0.0
H1030 H 0.11855 0.75592 0.82812 0.0
H1031 H 0.15386 0.75758 0.83053 0.0
H1032 H 0.15403 0.75816 0.71044 0.0
H1033 H 0.14655 0.79839 0.91882 0.0
H1034 H 0.13814 0.67795 0.87561 0.0
H1035 H 0.12754 0.63216 0.82968 0.0
H1036 H 0.09784 0.68171 0.91281 0.0
H1037 H 0.10829 0.72734 0.96085 0.0
C1038 C 0.14709 0.75355 0.23083 0.0
C1039 C 0.13724 0.75382 0.26684 0.0
C1040 C 0.14693 0.75487 0.1619 0.0
C1041 C 0.13691 0.7571 0.12722 0.0
C1042 C 0.12708 0.75732 0.16322 0.0
C1043 C 0.12724 0.75566 0.23196 0.0
C1044 C 0.13662 0.75817 0.0536 0.0
C1045 C 0.13053 0.7345 0.02028 0.0
C1046 C 0.1424 0.78164 0.01611 0.0
C1047 C 0.14832 0.80916 0.04761 0.0
C1048 C 0.14283 0.833 0.09141 0.0
C1049 C 0.14848 0.85865 0.12146 0.0
C1050 C 0.1596 0.8609 0.10772 0.0
C1051 C 0.1651 0.83757 0.06374 0.0
C1052 C 0.15949 0.81184 0.0336 0.0
C1053 C 0.12654 0.75481 0.73438 0.0
C1054 C 0.13646 0.75588 0.69963 0.0
C1055 C 0.12639 0.75547 0.80329 0.0
C1056 C 0.13622 0.75593 0.83951 0.0
C1057 C 0.14613 0.75715 0.80451 0.0
C1058 C 0.14624 0.75743 0.73558 0.0
C1059 C 0.13621 0.75595 0.91342 0.0
C1060 C 0.14222 0.77996 0.94692 0.0
C1061 C 0.13025 0.73304 0.95128 0.0
C1062 C 0.12396 0.70619 0.92105 0.0
C1063 C 0.12933 0.67918 0.88364 0.0
C1064 C 0.12336 0.65323 0.85737 0.0
C1065 C 0.11202 0.65422 0.86753 0.0
C1066 C 0.10662 0.68102 0.9047 0.0
C1067 C 0.11257 0.70681 0.93182 0.0
H1068 H 0.10743 0.63411 0.84695 0.0
H1069 H 0.16397 0.88077 0.13105 0.0
H1070 H 0.89675 0.77616 0.6972 0.0
H1071 H 0.89675 0.77791 0.81724 0.0
H1072 H 0.86469 0.73937 0.82041 0.0
H1073 H 0.86453 0.73816 0.70047 0.0
H1074 H 0.86518 0.78951 0.90727 0.0
H1075 H 0.8888 0.68656 0.85784 0.0
H1076 H 0.90443 0.65208 0.80545 0.0
H1077 H 0.92701 0.71484 0.90046 0.0
H1078 H 0.9115 0.75003 0.95276 0.0
H1079 H 0.86454 0.73903 0.2445 0.0
H1080 H 0.86475 0.73947 0.12444 0.0
H1081 H 0.89593 0.78368 0.12639 0.0
H1082 H 0.89582 0.78315 0.24664 0.0
H1083 H 0.89607 0.73151 0.03735 0.0
H1084 H 0.8721 0.83371 0.08849 0.0
H1085 H 0.85629 0.86705 0.14128 0.0
H1086 H 0.83412 0.80401 0.04325 0.0
H1087 H 0.84982 0.76996 0.99054 0.0
C1088 C 0.88969 0.76798 0.72329 0.0
C1089 C 0.88066 0.75688 0.68863 0.0
C1090 C 0.88973 0.76885 0.79224 0.0
C1091 C 0.88078 0.75834 0.82854 0.0
C1092 C 0.87171 0.74761 0.79399 0.0
C1093 C 0.87165 0.74683 0.72509 0.0
C1094 C 0.88082 0.75871 0.90227 0.0
C1095 C 0.87189 0.77641 0.93556 0.0
C1096 C 0.88964 0.74232 0.93987 0.0
C1097 C 0.89898 0.72116 0.90866 0.0
C1098 C 0.89709 0.69318 0.86716 0.0
C1099 C 0.90593 0.67348 0.83755 0.0
C1100 C 0.9167 0.68133 0.84947 0.0
C1101 C 0.91866 0.70884 0.89119 0.0
C1102 C 0.90985 0.72865 0.92087 0.0
C1103 C 0.87144 0.749 0.21958 0.0
C1104 C 0.88015 0.76118 0.25573 0.0
C1105 C 0.87153 0.74933 0.15065 0.0
C1106 C 0.88031 0.7619 0.11585 0.0
C1107 C 0.88905 0.77387 0.15178 0.0
C1108 C 0.88894 0.77369 0.22076 0.0
C1109 C 0.88043 0.76223 0.0422 0.0
C1110 C 0.88938 0.74465 1.00897 0.0
C1111 C 0.8716 0.77856 1.00465 0.0
C1112 C 0.86215 0.79907 0.03607 0.0
C1113 C 0.86386 0.82678 0.07859 0.0
C1114 C 0.85492 0.84584 0.10843 0.0
C1115 C 0.84421 0.83759 0.09576 0.0
C1116 C 0.84242 0.81033 0.05308 0.0
C1117 C 0.85134 0.79117 0.02316 0.0
H1118 H 0.8373 0.85238 0.11891 0.0
H1119 H 0.92353 0.66604 0.82651 0.0
H1120 H 0.62251 0.7167 0.281 0.0
H1121 H 0.62242 0.7174 0.40101 0.0
H1122 H 0.65174 0.77188 0.40069 0.0
H1123 H 0.65199 0.7708 0.28055 0.0
H1124 H 0.65328 0.72259 0.49309 0.0
H1125 H 0.62594 0.81439 0.43108 0.0
H1126 H 0.60936 0.84065 0.37395 0.0
H1127 H 0.58967 0.77026 0.47408 0.0
H1128 H 0.60617 0.74324 0.53118 0.0
H1129 H 0.65089 0.77833 0.82549 0.0
H1130 H 0.65094 0.77673 0.70557 0.0
H1131 H 0.62177 0.72148 0.70799 0.0
H1132 H 0.62158 0.72341 0.82816 0.0
H1133 H 0.62011 0.77076 0.61466 0.0
H1134 H 0.64751 0.67928 0.67735 0.0
H1135 H 0.66411 0.65346 0.73484 0.0
H1136 H 0.68372 0.72367 0.63358 0.0
H1137 H 0.6672 0.75026 0.57612 0.0
C1138 C 0.62897 0.72878 0.30631 0.0
C1139 C 0.63724 0.7438 0.27072 0.0
C1140 C 0.62887 0.72932 0.37518 0.0
C1141 C 0.63698 0.74515 0.41038 0.0
C1142 C 0.64537 0.75957 0.37499 0.0
C1143 C 0.64548 0.75899 0.30608 0.0
C1144 C 0.63672 0.74673 0.48389 0.0
C1145 C 0.64607 0.73356 0.51953 0.0
C1146 C 0.62724 0.7603 0.519 0.0
C1147 C 0.61731 0.77656 0.4849 0.0
C1148 C 0.61809 0.80433 0.44054 0.0
C1149 C 0.6087 0.81938 0.40822 0.0
C1150 C 0.59847 0.80706 0.42024 0.0
C1151 C 0.5976 0.77973 0.46474 0.0
C1152 C 0.60696 0.76456 0.49714 0.0
C1153 C 0.64446 0.76584 0.80069 0.0
C1154 C 0.63625 0.75088 0.83687 0.0
C1155 C 0.64453 0.7648 0.73186 0.0
C1156 C 0.63645 0.74854 0.69729 0.0
C1157 C 0.62813 0.73411 0.73324 0.0
C1158 C 0.62804 0.73517 0.80215 0.0
C1159 C 0.63667 0.74664 0.62382 0.0
C1160 C 0.62732 0.75975 0.58819 0.0
C1161 C 0.64614 0.73305 0.58873 0.0
C1162 C 0.6561 0.71698 0.6229 0.0
C1163 C 0.65535 0.68938 0.66769 0.0
C1164 C 0.66474 0.67459 0.70022 0.0
C1165 C 0.67496 0.68698 0.688 0.0
C1166 C 0.6758 0.71413 0.64307 0.0
C1167 C 0.66642 0.72905 0.61046 0.0
H1168 H 0.68222 0.67549 0.71324 0.0
H1169 H 0.59122 0.81875 0.39518 0.0
H1170 H 0.39816 0.77019 0.82902 0.0
H1171 H 0.39806 0.77165 0.70886 0.0
H1172 H 0.36514 0.73936 0.70795 0.0
H1173 H 0.36532 0.7368 0.82775 0.0
H1174 H 0.37649 0.70593 0.61605 0.0
H1175 H 0.37113 0.82662 0.67966 0.0
H1176 H 0.37581 0.87918 0.73852 0.0
H1177 H 0.40663 0.8757 0.63609 0.0
H1178 H 0.4022 0.82281 0.57725 0.0
H1179 H 0.36374 0.74603 0.28221 0.0
H1180 H 0.36384 0.7457 0.40237 0.0
H1181 H 0.39677 0.77782 0.40201 0.0
H1182 H 0.39661 0.77917 0.28209 0.0
H1183 H 0.38549 0.81155 0.49463 0.0
H1184 H 0.39092 0.69079 0.43171 0.0
H1185 H 0.38646 0.63745 0.37464 0.0
H1186 H 0.35561 0.64081 0.47683 0.0
H1187 H 0.35983 0.69444 0.53389 0.0
C1188 C 0.3909 0.76332 0.80328 0.0
C1189 C 0.38174 0.75346 0.83834 0.0
C1190 C 0.39082 0.76437 0.73438 0.0
C1191 C 0.38151 0.75618 0.69881 0.0
C1192 C 0.37243 0.74586 0.73384 0.0
C1193 C 0.37254 0.74448 0.80261 0.0
C1194 C 0.38119 0.75827 0.62532 0.0
C1195 C 0.37832 0.72924 0.58966 0.0
C1196 C 0.3838 0.78833 0.59023 0.0
C1197 C 0.38637 0.82058 0.62446 0.0
C1198 C 0.37893 0.83697 0.66991 0.0
C1199 C 0.38153 0.86682 0.70326 0.0
C1200 C 0.39152 0.88072 0.69117 0.0
C1201 C 0.3989 0.86488 0.64546 0.0
C1202 C 0.39634 0.83499 0.61204 0.0
C1203 C 0.371 0.75315 0.30763 0.0
C1204 C 0.38018 0.7625 0.27214 0.0
C1205 C 0.37107 0.75277 0.37657 0.0
C1206 C 0.38039 0.76116 0.41182 0.0
C1207 C 0.38948 0.77117 0.37639 0.0
C1208 C 0.38937 0.77185 0.30754 0.0
C1209 C 0.38075 0.75923 0.48536 0.0
C1210 C 0.38365 0.78827 0.52102 0.0
C1211 C 0.37816 0.72918 0.52052 0.0
C1212 C 0.37564 0.69681 0.48658 0.0
C1213 C 0.38315 0.68028 0.44168 0.0
C1214 C 0.38067 0.64998 0.40938 0.0
C1215 C 0.37075 0.6358 0.42198 0.0
C1216 C 0.36329 0.65184 0.46705 0.0
C1217 C 0.36573 0.68217 0.49943 0.0
H1218 H 0.36884 0.61234 0.39691 0.0
H1219 H 0.39353 0.9038 0.71711 0.0
H1220 H 0.64968 0.28368 0.20445 0.0
H1221 H 0.64972 0.28224 0.32436 0.0
H1222 H 0.62341 0.21479 0.32235 0.0
H1223 H 0.62316 0.21673 0.20215 0.0
H1224 H 0.61964 0.26241 0.41486 0.0
H1225 H 0.65083 0.18382 0.35445 0.0
H1226 H 0.66831 0.16611 0.29789 0.0
H1227 H 0.68387 0.24614 0.39878 0.0
H1228 H 0.66644 0.26464 0.45531 0.0
H1229 H 0.62399 0.21121 0.7503 0.0
H1230 H 0.62393 0.21144 0.63029 0.0
H1231 H 0.65062 0.27745 0.62949 0.0
H1232 H 0.65092 0.27658 0.74962 0.0
H1233 H 0.65415 0.22999 0.53818 0.0
H1234 H 0.62302 0.30906 0.59769 0.0
H1235 H 0.60554 0.32734 0.65378 0.0
H1236 H 0.58989 0.24702 0.55437 0.0
H1237 H 0.60732 0.22796 0.49831 0.0
C1238 C 0.64389 0.26851 0.22935 0.0
C1239 C 0.63645 0.2502 0.19326 0.0
C1240 C 0.64396 0.26757 0.2982 0.0
C1241 C 0.63669 0.24793 0.33295 0.0
C1242 C 0.62913 0.23007 0.29704 0.0
C1243 C 0.62901 0.23115 0.2281 0.0
C1244 C 0.63694 0.24616 0.40653 0.0
C1245 C 0.62717 0.25482 0.4417 0.0
C1246 C 0.64679 0.23708 0.44218 0.0
C1247 C 0.6573 0.22581 0.40867 0.0
C1248 C 0.65796 0.19779 0.36425 0.0
C1249 C 0.66786 0.18759 0.33224 0.0
C1250 C 0.67719 0.20504 0.34462 0.0
C1251 C 0.67664 0.23267 0.38919 0.0
C1252 C 0.66675 0.243 0.42128 0.0
C1253 C 0.62987 0.22575 0.72472 0.0
C1254 C 0.63743 0.24399 0.76 0.0
C1255 C 0.62979 0.22603 0.65581 0.0
C1256 C 0.63714 0.24497 0.62023 0.0
C1257 C 0.64483 0.26269 0.65539 0.0
C1258 C 0.64498 0.26222 0.72432 0.0
C1259 C 0.63685 0.24629 0.54659 0.0
C1260 C 0.64662 0.23754 0.51138 0.0
C1261 C 0.62701 0.25535 0.5109 0.0
C1262 C 0.6165 0.26688 0.5443 0.0
C1263 C 0.61587 0.29514 0.58814 0.0
C1264 C 0.60597 0.30567 0.61988 0.0
C1265 C 0.59662 0.28829 0.60778 0.0
C1266 C 0.59714 0.26042 0.56376 0.0
C1267 C 0.60703 0.24977 0.53195 0.0
H1268 H 0.58896 0.29647 0.6324 0.0
H1269 H 0.68484 0.19712 0.31977 0.0
H1270 H 0.36596 0.23275 0.19852 0.0
H1271 H 0.36582 0.23503 0.31836 0.0
H1272 H 0.39743 0.27659 0.31666 0.0
H1273 H 0.39765 0.27434 0.19631 0.0
H1274 H 0.39649 0.22622 0.41133 0.0
H1275 H 0.37436 0.32955 0.34536 0.0
H1276 H 0.3594 0.36372 0.28573 0.0
H1277 H 0.33549 0.30736 0.38486 0.0
H1278 H 0.35033 0.27245 0.44439 0.0
H1279 H 0.39602 0.28285 0.74325 0.0
H1280 H 0.39621 0.28156 0.62332 0.0
H1281 H 0.36443 0.24114 0.62297 0.0
H1282 H 0.36415 0.24247 0.74332 0.0
H1283 H 0.36552 0.29128 0.52918 0.0
H1284 H 0.38761 0.18768 0.59447 0.0
H1285 H 0.40255 0.15312 0.65356 0.0
H1286 H 0.4265 0.20972 0.55543 0.0
H1287 H 0.41169 0.245 0.49642 0.0
C1288 C 0.37292 0.24232 0.22341 0.0
C1289 C 0.38181 0.25346 0.18735 0.0
C1290 C 0.3728 0.24375 0.2922 0.0
C1291 C 0.38155 0.25635 0.32693 0.0
C1292 C 0.39055 0.26684 0.2912 0.0
C1293 C 0.39065 0.26561 0.22224 0.0
C1294 C 0.38126 0.25867 0.40034 0.0
C1295 C 0.38979 0.24089 0.437 0.0
C1296 C 0.37241 0.2771 0.43431 0.0
C1297 C 0.36346 0.29814 0.39885 0.0
C1298 C 0.36592 0.32424 0.35406 0.0
C1299 C 0.35746 0.34378 0.32034 0.0
C1300 C 0.34651 0.33766 0.33138 0.0
C1301 C 0.34398 0.31204 0.37629 0.0
C1302 C 0.35241 0.29238 0.41007 0.0
C1303 C 0.38903 0.2738 0.71787 0.0
C1304 C 0.38007 0.26268 0.75337 0.0
C1305 C 0.38918 0.27292 0.64903 0.0
C1306 C 0.3804 0.26085 0.61368 0.0
C1307 C 0.37133 0.25049 0.64887 0.0
C1308 C 0.37119 0.2512 0.71786 0.0
C1309 C 0.38074 0.25882 0.54022 0.0
C1310 C 0.37222 0.27665 0.50353 0.0
C1311 C 0.3896 0.24042 0.50621 0.0
C1312 C 0.39853 0.21924 0.54155 0.0
C1313 C 0.39606 0.19297 0.58591 0.0
C1314 C 0.4045 0.17321 0.61931 0.0
C1315 C 0.41547 0.17928 0.6084 0.0
C1316 C 0.41801 0.20508 0.56392 0.0
C1317 C 0.40959 0.22496 0.53044 0.0
H1318 H 0.42199 0.16394 0.63428 0.0
H1319 H 0.33997 0.35281 0.30524 0.0
H1320 H 0.05432 0.30525 0.48995 0.0
H1321 H 0.03419 0.30916 0.48824 0.0
H1322 H 0.03513 0.19912 0.53118 0.0
H1323 H 0.05521 0.19503 0.53334 0.0
H1324 H 0.02011 0.21652 0.43897 0.0
H1325 H 0.02895 0.2616 0.65022 0.0
H1326 H 0.03765 0.30016 0.72699 0.0
H1327 H 0.02011 0.38994 0.63734 0.0
H1328 H 0.01141 0.35192 0.55941 0.0
H1329 H 0.96436 0.20954 0.53484 0.0
H1330 H 0.98441 0.20678 0.53072 0.0
H1331 H 0.98257 0.3177 0.49514 0.0
H1332 H 0.96254 0.321 0.50251 0.0
H1333 H 0.99807 0.3007 0.58134 0.0
H1334 H 0.98892 0.25541 0.37119 0.0
H1335 H 0.98021 0.21668 0.29475 0.0
H1336 H 0.99832 0.12726 0.38214 0.0
H1337 H 1.00703 0.16543 0.45969 0.0
C1338 C 0.05026 0.28189 0.49938 0.0
C1339 C 0.05646 0.24982 0.51182 0.0
C1340 C 0.03872 0.28416 0.49835 0.0
C1341 C 0.03308 0.25451 0.5103 0.0
C1342 C 0.03924 0.22239 0.52163 0.0
C1343 C 0.05077 0.22008 0.52257 0.0
C1344 C 0.02078 0.25686 0.51142 0.0
C1345 C 0.0153 0.23467 0.47068 0.0
C1346 C 0.01443 0.28104 0.55163 0.0
C1347 C 0.01962 0.30393 0.59855 0.0
C1348 C 0.02701 0.28958 0.64655 0.0
C1349 C 0.03193 0.31133 0.69032 0.0
C1350 C 0.02946 0.34748 0.68692 0.0
C1351 C 0.02203 0.36194 0.63985 0.0
C1352 C 0.0171 0.3403 0.59589 0.0
C1353 C 0.96819 0.23346 0.52657 0.0
C1354 C 0.96173 0.26551 0.51889 0.0
C1355 C 0.9797 0.23176 0.52344 0.0
C1356 C 0.98508 0.26195 0.51168 0.0
C1357 C 0.97867 0.29396 0.50398 0.0
C1358 C 0.96716 0.29573 0.50748 0.0
C1359 C 0.99738 0.26033 0.50884 0.0
C1360 C 1.00286 0.28264 0.54937 0.0
C1361 C 1.00373 0.23626 0.46841 0.0
C1362 C 0.99855 0.21326 0.42163 0.0
C1363 C 0.99098 0.22747 0.3744 0.0
C1364 C 0.98606 0.20562 0.33083 0.0
C1365 C 0.98869 0.16953 0.33369 0.0
C1366 C 0.99628 0.15521 0.38002 0.0
C1367 C 1.00122 0.17695 0.42376 0.0
H1368 H 0.98487 0.15266 0.29992 0.0
H1369 H 0.03327 0.36428 0.72087 0.0
H1370 H 0.96406 0.73522 0.40526 0.0
H1371 H 0.98414 0.73085 0.40893 0.0
H1372 H 0.98299 0.75983 0.61329 0.0
H1373 H 0.96287 0.76404 0.61016 0.0
H1374 H 0.99748 0.79526 0.54919 0.0
H1375 H 0.99051 0.67527 0.56543 0.0
H1376 H 0.98247 0.62133 0.53359 0.0
H1377 H 0.99902 0.62204 0.34762 0.0
H1378 H 1.00704 0.67629 0.378 0.0
H1379 H 0.055 0.75198 0.60709 0.0
H1380 H 0.03489 0.75358 0.61127 0.0
H1381 H 0.03417 0.72835 0.40531 0.0
H1382 H 0.05423 0.72608 0.40105 0.0
H1383 H 0.02067 0.69012 0.47476 0.0
H1384 H 0.02715 0.81105 0.45756 0.0
H1385 H 0.03515 0.86507 0.48938 0.0
H1386 H 0.0195 0.86232 0.67789 0.0
H1387 H 0.01153 0.80797 0.64751 0.0
C1388 C 0.96805 0.74011 0.45137 0.0
C1389 C 0.96178 0.74985 0.50749 0.0
C1390 C 0.97957 0.73769 0.45334 0.0
C1391 C 0.98514 0.74469 0.51156 0.0
C1392 C 0.97891 0.75436 0.56771 0.0
C1393 C 0.96739 0.75682 0.56578 0.0
C1394 C 0.99742 0.74268 0.51338 0.0
C1395 C 1.00254 0.77204 0.53392 0.0
C1396 C 1.00409 0.7127 0.49217 0.0
C1397 C 0.99929 0.68004 0.47377 0.0
C1398 C 0.99237 0.66408 0.51754 0.0
C1399 C 0.98783 0.63342 0.49979 0.0
C1400 C 0.99021 0.61831 0.43856 0.0
C1401 C 0.99717 0.6338 0.39501 0.0
C1402 C 1.00172 0.66449 0.41249 0.0
C1403 C 0.05057 0.74662 0.56275 0.0
C1404 C 0.05626 0.73911 0.50364 0.0
C1405 C 0.03905 0.74778 0.5651 0.0
C1406 C 0.03297 0.74139 0.50845 0.0
C1407 C 0.03865 0.73348 0.44964 0.0
C1408 C 0.05013 0.7325 0.44717 0.0
C1409 C 0.0207 0.74274 0.51025 0.0
C1410 C 0.0156 0.71326 0.49035 0.0
C1411 C 0.01405 0.77258 0.53212 0.0
C1412 C 0.01884 0.80523 0.55053 0.0
C1413 C 0.02549 0.82179 0.50602 0.0
C1414 C 0.03001 0.8525 0.52375 0.0
C1415 C 0.02786 0.86706 0.58569 0.0
C1416 C 0.02117 0.85098 0.62998 0.0
C1417 C 0.01665 0.82023 0.61251 0.0
H1418 H 0.03136 0.89085 0.59931 0.0
H1419 H 0.98669 0.59457 0.42491 0.0
H1420 H 0.55519 0.69018 0.01778 0.0
H1421 H 0.53514 0.69362 0.01344 0.0
H1422 H 0.53376 0.80568 0.99757 0.0
H1423 H 0.55388 0.80248 1.00118 0.0
H1424 H 0.51896 0.78646 0.08566 0.0
H1425 H 0.52884 0.75491 0.86412 0.0
H1426 H 0.53858 0.71961 0.77766 0.0
H1427 H 0.52341 0.62924 0.84264 0.0
H1428 H 0.51368 0.6639 0.9301 0.0
H1429 H 0.46231 0.8148 1.0074 0.0
H1430 H 0.48233 0.81237 1.00256 0.0
H1431 H 0.48438 0.69993 1.00829 0.0
H1432 H 0.4643 0.70208 1.00995 0.0
H1433 H 0.49889 0.71995 0.924 0.0
H1434 H 0.48939 0.74986 0.14622 0.0
H1435 H 0.47981 0.78383 0.23498 0.0
H1436 H 0.49441 0.87561 0.17177 0.0
H1437 H 0.50397 0.84228 0.08203 0.0
C1438 C 0.55067 0.71558 1.01225 0.0
C1439 C 0.55624 0.74604 1.00937 0.0
C1440 C 0.53916 0.7175 1.01001 0.0
C1441 C 0.53289 0.74989 1.00446 0.0
C1442 C 0.53839 0.78037 1.00189 0.0
C1443 C 0.54992 0.77848 1.00412 0.0
C1444 C 0.5206 0.75195 1.00259 0.0
C1445 C 0.51458 0.77235 0.04963 0.0
C1446 C 0.51483 0.73279 0.95683 0.0
C1447 C 0.52061 0.71194 0.90403 0.0
C1448 C 0.52764 0.72745 0.86027 0.0
C1449 C 0.53315 0.70757 0.81104 0.0
C1450 C 0.53164 0.67219 0.80476 0.0
C1451 C 0.52458 0.65664 0.8476 0.0
C1452 C 0.51906 0.6764 0.89697 0.0
C1453 C 0.46697 0.78947 1.00651 0.0
C1454 C 0.46159 0.75863 1.00921 0.0
C1455 C 0.47848 0.78814 1.00465 0.0
C1456 C 0.48495 0.75597 1.00625 0.0
C1457 C 0.47962 0.72512 1.00741 0.0
C1458 C 0.4681 0.72641 1.00895 0.0
C1459 C 0.49724 0.7545 1.00708 0.0
C1460 C 0.50327 0.73417 0.95992 0.0
C1461 C 0.50303 0.77355 0.05302 0.0
C1462 C 0.49731 0.79365 0.10699 0.0
C1463 C 0.49049 0.77735 0.15093 0.0
C1464 C 0.48508 0.79648 0.20147 0.0
C1465 C 0.48648 0.83188 0.2089 0.0
C1466 C 0.49332 0.8482 0.16589 0.0
C1467 C 0.49875 0.8292 0.11521 0.0
H1468 H 0.48228 0.84664 0.24807 0.0
H1469 H 0.53591 0.65683 0.76661 0.0
H1470 H 0.46281 0.25186 0.10983 0.0
H1471 H 0.48291 0.24989 0.1141 0.0
H1472 H 0.48411 0.25315 0.9025 0.0
H1473 H 0.46408 0.25461 0.898 0.0
H1474 H 0.49973 0.2081 0.94432 0.0
H1475 H 0.4876 0.32614 1.00197 0.0
H1476 H 0.47723 0.37293 0.06489 0.0
H1477 H 0.49383 0.33666 0.2416 0.0
H1478 H 0.50419 0.28934 0.17984 0.0
H1479 H 0.55415 0.25502 0.90434 0.0
H1480 H 0.53409 0.25676 0.90646 0.0
H1481 H 0.53492 0.24266 0.11656 0.0
H1482 H 0.55503 0.24163 0.11503 0.0
H1483 H 0.51845 0.29213 0.07884 0.0
H1484 H 0.53103 0.17478 0.01724 0.0
H1485 H 0.54149 0.12945 0.95135 0.0
H1486 H 0.52402 0.16651 0.77801 0.0
H1487 H 0.51356 0.21241 0.84273 0.0
C1488 C 0.46736 0.25226 0.06422 0.0
C1489 C 0.4618 0.25337 1.00358 0.0
C1490 C 0.47887 0.25122 0.0667 0.0
C1491 C 0.4851 0.25184 1.00862 0.0
C1492 C 0.47956 0.25255 0.94807 0.0
C1493 C 0.46807 0.25329 0.94556 0.0
C1494 C 0.49737 0.25167 1.01059 0.0
C1495 C 0.50378 0.2268 0.97317 0.0
C1496 C 0.50278 0.27551 0.04919 0.0
C1497 C 0.49658 0.30398 0.08641 0.0
C1498 C 0.48897 0.32798 0.05433 0.0
C1499 C 0.48311 0.35462 0.08977 0.0
C1500 C 0.48485 0.35771 0.15723 0.0
C1501 C 0.49248 0.33421 0.18936 0.0
C1502 C 0.49836 0.30748 0.15416 0.0
C1503 C 0.55008 0.25275 0.9512 0.0
C1504 C 0.55626 0.24817 1.00954 0.0
C1505 C 0.53859 0.2534 0.95224 0.0
C1506 C 0.53296 0.24941 1.01157 0.0
C1507 C 0.53906 0.24565 0.07012 0.0
C1508 C 0.55057 0.24483 0.0691 0.0
C1509 C 0.52074 0.24877 1.01227 0.0
C1510 C 0.51436 0.27343 0.05018 0.0
C1511 C 0.51535 0.22494 0.97369 0.0
C1512 C 0.52159 0.19723 0.93474 0.0
C1513 C 0.52948 0.17343 0.96498 0.0
C1514 C 0.5354 0.14761 0.92786 0.0
C1515 C 0.53344 0.14515 0.86051 0.0
C1516 C 0.52554 0.16847 0.83017 0.0
C1517 C 0.5196 0.19437 0.86706 0.0
H1518 H 0.53803 0.12514 0.83185 0.0
H1519 H 0.4803 0.37836 0.18458 0.0
loop_
_geom_bond_atom_site_label_1
_geom_bond_atom_site_label_2
_geom_bond_distance
_geom_bond_site_symmetry_2
_ccdc_geom_bond_type
Pr0 C2 2.880 . S
Pr0 O20 2.562 . S
Pr0 O21 2.490 . S
Pr0 O22 2.695 . S
Pr0 O23 2.512 . S
Pr0 O25 2.437 . S
Pr0 O28 2.436 . S
Pr0 O30 2.438 . S
Pr1 C11 2.880 . S
Pr1 O22 2.436 . S
Pr1 O24 2.438 . S
Pr1 O26 2.562 . S
Pr1 O27 2.490 . S
Pr1 O28 2.695 . S
Pr1 O29 2.512 . S
Pr1 O31 2.437 . S
C2 Pr0 2.880 . S
C2 C3 1.491 . S
C2 O20 1.254 . S
C2 O21 1.225 . S
C3 C2 1.491 . S
C3 C4 1.392 . S
C3 C8 1.356 . S
C4 C3 1.392 . S
C4 C5 1.368 . S
C4 H32 0.929 . S
C5 C4 1.368 . S
C5 C6 1.386 . S
C5 H33 0.929 . S
C6 C5 1.386 . S
C6 C7 1.373 . S
C7 C6 1.373 . S
C7 C8 1.409 . S
C7 H34 0.931 . S
C8 C3 1.356 . S
C8 C7 1.409 . S
C8 H35 0.930 . S
C9 O22 1.270 . S
C9 O23 1.248 . S
C10 O24 1.267 . S
C10 O25 1.278 . S
C11 Pr1 2.880 . S
C11 C12 1.491 . S
C11 O26 1.254 . S
C11 O27 1.225 . S
C12 C11 1.491 . S
C12 C13 1.392 . S
C12 C17 1.356 . S
C13 C12 1.392 . S
C13 C14 1.368 . S
C13 H36 0.929 . S
C14 C13 1.368 . S
C14 C15 1.386 . S
C14 H37 0.929 . S
C15 C14 1.386 . S
C15 C16 1.373 . S
C16 C15 1.373 . S
C16 C17 1.409 . S
C16 H38 0.931 . S
C17 C12 1.356 . S
C17 C16 1.409 . S
C17 H39 0.930 . S
C18 O28 1.270 . S
C18 O29 1.248 . S
C19 O30 1.267 . S
C19 O31 1.278 . S
O20 Pr0 2.562 . S
O20 C2 1.254 . S
O21 Pr0 2.490 . S
O21 C2 1.225 . S
O22 Pr0 2.695 . S
O22 Pr1 2.436 . S
O22 C9 1.270 . S
O23 Pr0 2.512 . S
O23 C9 1.248 . S
O24 Pr1 2.438 . S
O24 C10 1.267 . S
O25 Pr0 2.437 . S
O25 C10 1.278 . S
O26 Pr1 2.562 . S
O26 C11 1.254 . S
O27 Pr1 2.490 . S
O27 C11 1.225 . S
O28 Pr0 2.436 . S
O28 Pr1 2.695 . S
O28 C18 1.270 . S
O29 Pr1 2.512 . S
O29 C18 1.248 . S
O30 Pr0 2.438 . S
O30 C19 1.267 . S
O31 Pr1 2.437 . S
O31 C19 1.278 . S
H32 C4 0.929 . S
H33 C5 0.929 . S
H34 C7 0.931 . S
H35 C8 0.930 . S
H36 C13 0.929 . S
H37 C14 0.929 . S
H38 C16 0.931 . S
H39 C17 0.930 . S
Pr40 C42 2.880 . S
Pr40 O60 2.562 . S
Pr40 O61 2.490 . S
Pr40 O62 2.695 . S
Pr40 O63 2.512 . S
Pr40 O65 2.437 . S
Pr40 O68 2.436 . S
Pr40 O70 2.438 . S
Pr41 C51 2.880 . S
Pr41 O62 2.436 . S
Pr41 O64 2.438 . S
Pr41 O66 2.562 . S
Pr41 O67 2.490 . S
Pr41 O68 2.695 . S
Pr41 O69 2.512 . S
Pr41 O71 2.437 . S
C42 Pr40 2.880 . S
C42 C43 1.491 . S
C42 O60 1.254 . S
C42 O61 1.225 . S
C43 C42 1.491 . S
C43 C44 1.392 . S
C43 C48 1.356 . S
C44 C43 1.392 . S
C44 C45 1.368 . S
C44 H72 0.929 . S
C45 C44 1.368 . S
C45 C46 1.386 . S
C45 H73 0.929 . S
C46 C45 1.386 . S
C46 C47 1.373 . S
C47 C46 1.373 . S
C47 C48 1.409 . S
C47 H74 0.931 . S
C48 C43 1.356 . S
C48 C47 1.409 . S
C48 H75 0.930 . S
C49 O62 1.270 . S
C49 O63 1.248 . S
C50 O64 1.267 . S
C50 O65 1.278 . S
C51 Pr41 2.880 . S
C51 C52 1.491 . S
C51 O66 1.254 . S
C51 O67 1.225 . S
C52 C51 1.491 . S
C52 C53 1.392 . S
C52 C57 1.356 . S
C53 C52 1.392 . S
C53 C54 1.368 . S
C53 H76 0.929 . S
C54 C53 1.368 . S
C54 C55 1.386 . S
C54 H77 0.929 . S
C55 C54 1.386 . S
C55 C56 1.373 . S
C56 C55 1.373 . S
C56 C57 1.409 . S
C56 H78 0.931 . S
C57 C52 1.356 . S
C57 C56 1.409 . S
C57 H79 0.930 . S
C58 O68 1.270 . S
C58 O69 1.248 . S
C59 O70 1.267 . S
C59 O71 1.278 . S
O60 Pr40 2.562 . S
O60 C42 1.254 . S
O61 Pr40 2.490 . S
O61 C42 1.225 . S
O62 Pr40 2.695 . S
O62 Pr41 2.436 . S
O62 C49 1.270 . S
O63 Pr40 2.512 . S
O63 C49 1.248 . S
O64 Pr41 2.438 . S
O64 C50 1.267 . S
O65 Pr40 2.437 . S
O65 C50 1.278 . S
O66 Pr41 2.562 . S
O66 C51 1.254 . S
O67 Pr41 2.490 . S
O67 C51 1.225 . S
O68 Pr40 2.436 . S
O68 Pr41 2.695 . S
O68 C58 1.270 . S
O69 Pr41 2.512 . S
O69 C58 1.248 . S
O70 Pr40 2.438 . S
O70 C59 1.267 . S
O71 Pr41 2.437 . S
O71 C59 1.278 . S
H72 C44 0.929 . S
H73 C45 0.929 . S
H74 C47 0.931 . S
H75 C48 0.930 . S
H76 C53 0.929 . S
H77 C54 0.929 . S
H78 C56 0.931 . S
H79 C57 0.930 . S
Pr80 C82 2.880 . S
Pr80 O100 2.562 . S
Pr80 O101 2.490 . S
Pr80 O102 2.695 . S
Pr80 O103 2.512 . S
Pr80 O105 2.437 . S
Pr80 O108 2.436 . S
Pr80 O110 2.438 . S
Pr81 C91 2.880 . S
Pr81 O102 2.436 . S
Pr81 O104 2.438 . S
Pr81 O106 2.562 . S
Pr81 O107 2.490 . S
Pr81 O108 2.695 . S
Pr81 O109 2.512 . S
Pr81 O111 2.437 . S
C82 Pr80 2.880 . S
C82 C83 1.491 . S
C82 O100 1.254 . S
C82 O101 1.225 . S
C83 C82 1.491 . S
C83 C84 1.392 . S
C83 C88 1.356 . S
C84 C83 1.392 . S
C84 C85 1.368 . S
C84 H112 0.929 . S
C85 C84 1.368 . S
C85 C86 1.386 . S
C85 H113 0.929 . S
C86 C85 1.386 . S
C86 C87 1.373 . S
C87 C86 1.373 . S
C87 C88 1.409 . S
C87 H114 0.931 . S
C88 C83 1.356 . S
C88 C87 1.409 . S
C88 H115 0.930 . S
C89 O102 1.270 . S
C89 O103 1.248 . S
C90 O104 1.267 . S
C90 O105 1.278 . S
C91 Pr81 2.880 . S
C91 C92 1.491 . S
C91 O106 1.254 . S
C91 O107 1.225 . S
C92 C91 1.491 . S
C92 C93 1.392 . S
C92 C97 1.356 . S
C93 C92 1.392 . S
C93 C94 1.368 . S
C93 H116 0.929 . S
C94 C93 1.368 . S
C94 C95 1.386 . S
C94 H117 0.929 . S
C95 C94 1.386 . S
C95 C96 1.373 . S
C96 C95 1.373 . S
C96 C97 1.409 . S
C96 H118 0.931 . S
C97 C92 1.356 . S
C97 C96 1.409 . S
C97 H119 0.930 . S
C98 O108 1.270 . S
C98 O109 1.248 . S
C99 O110 1.267 . S
C99 O111 1.278 . S
O100 Pr80 2.562 . S
O100 C82 1.254 . S
O101 Pr80 2.490 . S
O101 C82 1.225 . S
O102 Pr80 2.695 . S
O102 Pr81 2.436 . S
O102 C89 1.270 . S
O103 Pr80 2.512 . S
O103 C89 1.248 . S
O104 Pr81 2.438 . S
O104 C90 1.267 . S
O105 Pr80 2.437 . S
O105 C90 1.278 . S
O106 Pr81 2.562 . S
O106 C91 1.254 . S
O107 Pr81 2.490 . S
O107 C91 1.225 . S
O108 Pr80 2.436 . S
O108 Pr81 2.695 . S
O108 C98 1.270 . S
O109 Pr81 2.512 . S
O109 C98 1.248 . S
O110 Pr80 2.438 . S
O110 C99 1.267 . S
O111 Pr81 2.437 . S
O111 C99 1.278 . S
H112 C84 0.929 . S
H113 C85 0.929 . S
H114 C87 0.931 . S
H115 C88 0.930 . S
H116 C93 0.929 . S
H117 C94 0.929 . S
H118 C96 0.931 . S
H119 C97 0.930 . S
Pr120 C122 2.880 . S
Pr120 O140 2.562 . S
Pr120 O141 2.490 . S
Pr120 O142 2.695 . S
Pr120 O143 2.512 . S
Pr120 O145 2.437 . S
Pr120 O148 2.436 . S
Pr120 O150 2.438 . S
Pr121 C131 2.880 . S
Pr121 O142 2.436 . S
Pr121 O144 2.438 . S
Pr121 O146 2.562 . S
Pr121 O147 2.490 . S
Pr121 O148 2.695 . S
Pr121 O149 2.512 . S
Pr121 O151 2.437 . S
C122 Pr120 2.880 . S
C122 C123 1.491 . S
C122 O140 1.254 . S
C122 O141 1.225 . S
C123 C122 1.491 . S
C123 C124 1.392 . S
C123 C128 1.356 . S
C124 C123 1.392 . S
C124 C125 1.368 . S
C124 H152 0.929 . S
C125 C124 1.368 . S
C125 C126 1.386 . S
C125 H153 0.929 . S
C126 C125 1.386 . S
C126 C127 1.373 . S
C127 C126 1.373 . S
C127 C128 1.409 . S
C127 H154 0.931 . S
C128 C123 1.356 . S
C128 C127 1.409 . S
C128 H155 0.930 . S
C129 O142 1.270 . S
C129 O143 1.248 . S
C130 O144 1.267 . S
C130 O145 1.278 . S
C131 Pr121 2.880 . S
C131 C132 1.491 . S
C131 O146 1.254 . S
C131 O147 1.225 . S
C132 C131 1.491 . S
C132 C133 1.392 . S
C132 C137 1.356 . S
C133 C132 1.392 . S
C133 C134 1.368 . S
C133 H156 0.929 . S
C134 C133 1.368 . S
C134 C135 1.386 . S
C134 H157 0.929 . S
C135 C134 1.386 . S
C135 C136 1.373 . S
C136 C135 1.373 . S
C136 C137 1.409 . S
C136 H158 0.931 . S
C137 C132 1.356 . S
C137 C136 1.409 . S
C137 H159 0.930 . S
C138 O148 1.270 . S
C138 O149 1.248 . S
C139 O150 1.267 . S
C139 O151 1.278 . S
O140 Pr120 2.562 . S
O140 C122 1.254 . S
O141 Pr120 2.490 . S
O141 C122 1.225 . S
O142 Pr120 2.695 . S
O142 Pr121 2.436 . S
O142 C129 1.270 . S
O143 Pr120 2.512 . S
O143 C129 1.248 . S
O144 Pr121 2.438 . S
O144 C130 1.267 . S
O145 Pr120 2.437 . S
O145 C130 1.278 . S
O146 Pr121 2.562 . S
O146 C131 1.254 . S
O147 Pr121 2.490 . S
O147 C131 1.225 . S
O148 Pr120 2.436 . S
O148 Pr121 2.695 . S
O148 C138 1.270 . S
O149 Pr121 2.512 . S
O149 C138 1.248 . S
O150 Pr120 2.438 . S
O150 C139 1.267 . S
O151 Pr121 2.437 . S
O151 C139 1.278 . S
H152 C124 0.929 . S
H153 C125 0.929 . S
H154 C127 0.931 . S
H155 C128 0.930 . S
H156 C133 0.929 . S
H157 C134 0.929 . S
H158 C136 0.931 . S
H159 C137 0.930 . S
Pr160 C162 2.880 1_556 S
Pr160 O180 2.562 1_556 S
Pr160 O181 2.490 1_556 S
Pr160 O182 2.695 . S
Pr160 O183 2.512 . S
Pr160 O185 2.437 1_556 S
Pr160 O188 2.436 1_556 S
Pr160 O190 2.438 . S
Pr161 C171 2.880 1_554 S
Pr161 O182 2.436 1_554 S
Pr161 O184 2.438 . S
Pr161 O186 2.562 1_554 S
Pr161 O187 2.490 1_554 S
Pr161 O188 2.695 . S
Pr161 O189 2.512 . S
Pr161 O191 2.437 1_554 S
C162 Pr160 2.880 1_554 S
C162 C163 1.491 . S
C162 O180 1.254 . S
C162 O181 1.225 . S
C163 C162 1.491 . S
C163 C164 1.392 . S
C163 C168 1.356 . S
C164 C163 1.392 . S
C164 C165 1.368 . S
C164 H192 0.929 . S
C165 C164 1.368 . S
C165 C166 1.386 . S
C165 H193 0.929 . S
C166 C165 1.386 . S
C166 C167 1.373 . S
C167 C166 1.373 . S
C167 C168 1.409 . S
C167 H194 0.931 . S
C168 C163 1.356 . S
C168 C167 1.409 . S
C168 H195 0.930 . S
C169 O182 1.270 . S
C169 O183 1.248 . S
C170 O184 1.267 . S
C170 O185 1.278 . S
C171 Pr161 2.880 1_556 S
C171 C172 1.491 . S
C171 O186 1.254 . S
C171 O187 1.225 . S
C172 C171 1.491 . S
C172 C173 1.392 . S
C172 C177 1.356 . S
C173 C172 1.392 . S
C173 C174 1.368 . S
C173 H196 0.929 . S
C174 C173 1.368 . S
C174 C175 1.386 . S
C174 H197 0.929 . S
C175 C174 1.386 . S
C175 C176 1.373 . S
C176 C175 1.373 . S
C176 C177 1.409 . S
C176 H198 0.931 . S
C177 C172 1.356 . S
C177 C176 1.409 . S
C177 H199 0.930 . S
C178 O188 1.270 . S
C178 O189 1.248 . S
C179 O190 1.267 . S
C179 O191 1.278 . S
O180 Pr160 2.562 1_554 S
O180 C162 1.254 . S
O181 Pr160 2.490 1_554 S
O181 C162 1.225 . S
O182 Pr160 2.695 . S
O182 Pr161 2.436 1_556 S
O182 C169 1.270 . S
O183 Pr160 2.512 . S
O183 C169 1.248 . S
O184 Pr161 2.438 . S
O184 C170 1.267 . S
O185 Pr160 2.437 1_554 S
O185 C170 1.278 . S
O186 Pr161 2.562 1_556 S
O186 C171 1.254 . S
O187 Pr161 2.490 1_556 S
O187 C171 1.225 . S
O188 Pr160 2.436 1_554 S
O188 Pr161 2.695 . S
O188 C178 1.270 . S
O189 Pr161 2.512 . S
O189 C178 1.248 . S
O190 Pr160 2.438 . S
O190 C179 1.267 . S
O191 Pr161 2.437 1_556 S
O191 C179 1.278 . S
H192 C164 0.929 . S
H193 C165 0.929 . S
H194 C167 0.931 . S
H195 C168 0.930 . S
H196 C173 0.929 . S
H197 C174 0.929 . S
H198 C176 0.931 . S
H199 C177 0.930 . S
Pr200 C202 2.880 1_556 S
Pr200 O220 2.562 1_556 S
Pr200 O221 2.490 1_556 S
Pr200 O222 2.695 . S
Pr200 O223 2.512 . S
Pr200 O225 2.437 1_556 S
Pr200 O228 2.436 1_556 S
Pr200 O230 2.438 . S
Pr201 C211 2.880 1_554 S
Pr201 O222 2.436 1_554 S
Pr201 O224 2.438 . S
Pr201 O226 2.562 1_554 S
Pr201 O227 2.490 1_554 S
Pr201 O228 2.695 . S
Pr201 O229 2.512 . S
Pr201 O231 2.437 1_554 S
C202 Pr200 2.880 1_554 S
C202 C203 1.491 . S
C202 O220 1.254 . S
C202 O221 1.225 . S
C203 C202 1.491 . S
C203 C204 1.392 . S
C203 C208 1.356 . S
C204 C203 1.392 . S
C204 C205 1.368 . S
C204 H232 0.929 . S
C205 C204 1.368 . S
C205 C206 1.386 . S
C205 H233 0.929 . S
C206 C205 1.386 . S
C206 C207 1.373 . S
C207 C206 1.373 . S
C207 C208 1.409 . S
C207 H234 0.931 . S
C208 C203 1.356 . S
C208 C207 1.409 . S
C208 H235 0.930 . S
C209 O222 1.270 . S
C209 O223 1.248 . S
C210 O224 1.267 . S
C210 O225 1.278 . S
C211 Pr201 2.880 1_556 S
C211 C212 1.491 . S
C211 O226 1.254 . S
C211 O227 1.225 . S
C212 C211 1.491 . S
C212 C213 1.392 . S
C212 C217 1.356 . S
C213 C212 1.392 . S
C213 C214 1.368 . S
C213 H236 0.929 . S
C214 C213 1.368 . S
C214 C215 1.386 . S
C214 H237 0.929 . S
C215 C214 1.386 . S
C215 C216 1.373 . S
C216 C215 1.373 . S
C216 C217 1.409 . S
C216 H238 0.931 . S
C217 C212 1.356 . S
C217 C216 1.409 . S
C217 H239 0.930 . S
C218 O228 1.270 . S
C218 O229 1.248 . S
C219 O230 1.267 . S
C219 O231 1.278 . S
O220 Pr200 2.562 1_554 S
O220 C202 1.254 . S
O221 Pr200 2.490 1_554 S
O221 C202 1.225 . S
O222 Pr200 2.695 . S
O222 Pr201 2.436 1_556 S
O222 C209 1.270 . S
O223 Pr200 2.512 . S
O223 C209 1.248 . S
O224 Pr201 2.438 . S
O224 C210 1.267 . S
O225 Pr200 2.437 1_554 S
O225 C210 1.278 . S
O226 Pr201 2.562 1_556 S
O226 C211 1.254 . S
O227 Pr201 2.490 1_556 S
O227 C211 1.225 . S
O228 Pr200 2.436 1_554 S
O228 Pr201 2.695 . S
O228 C218 1.270 . S
O229 Pr201 2.512 . S
O229 C218 1.248 . S
O230 Pr200 2.438 . S
O230 C219 1.267 . S
O231 Pr201 2.437 1_556 S
O231 C219 1.278 . S
H232 C204 0.929 . S
H233 C205 0.929 . S
H234 C207 0.931 . S
H235 C208 0.930 . S
H236 C213 0.929 . S
H237 C214 0.929 . S
H238 C216 0.931 . S
H239 C217 0.930 . S
Pr240 C242 2.880 1_556 S
Pr240 O260 2.562 1_556 S
Pr240 O261 2.490 1_556 S
Pr240 O262 2.695 . S
Pr240 O263 2.512 . S
Pr240 O265 2.437 1_556 S
Pr240 O268 2.436 1_556 S
Pr240 O270 2.438 . S
Pr241 C251 2.880 1_554 S
Pr241 O262 2.436 1_554 S
Pr241 O264 2.438 . S
Pr241 O266 2.562 1_554 S
Pr241 O267 2.490 1_554 S
Pr241 O268 2.695 . S
Pr241 O269 2.512 . S
Pr241 O271 2.437 1_554 S
C242 Pr240 2.880 1_554 S
C242 C243 1.491 . S
C242 O260 1.254 . S
C242 O261 1.225 . S
C243 C242 1.491 . S
C243 C244 1.392 . S
C243 C248 1.356 . S
C244 C243 1.392 . S
C244 C245 1.368 . S
C244 H272 0.929 . S
C245 C244 1.368 . S
C245 C246 1.386 . S
C245 H273 0.929 . S
C246 C245 1.386 . S
C246 C247 1.373 . S
C247 C246 1.373 . S
C247 C248 1.409 . S
C247 H274 0.931 . S
C248 C243 1.356 . S
C248 C247 1.409 . S
C248 H275 0.930 . S
C249 O262 1.270 . S
C249 O263 1.248 . S
C250 O264 1.267 . S
C250 O265 1.278 . S
C251 Pr241 2.880 1_556 S
C251 C252 1.491 . S
C251 O266 1.254 . S
C251 O267 1.225 . S
C252 C251 1.491 . S
C252 C253 1.392 . S
C252 C257 1.356 . S
C253 C252 1.392 . S
C253 C254 1.368 . S
C253 H276 0.929 . S
C254 C253 1.368 . S
C254 C255 1.386 . S
C254 H277 0.929 . S
C255 C254 1.386 . S
C255 C256 1.373 . S
C256 C255 1.373 . S
C256 C257 1.409 . S
C256 H278 0.931 . S
C257 C252 1.356 . S
C257 C256 1.409 . S
C257 H279 0.930 . S
C258 O268 1.270 . S
C258 O269 1.248 . S
C259 O270 1.267 . S
C259 O271 1.278 . S
O260 Pr240 2.562 1_554 S
O260 C242 1.254 . S
O261 Pr240 2.490 1_554 S
O261 C242 1.225 . S
O262 Pr240 2.695 . S
O262 Pr241 2.436 1_556 S
O262 C249 1.270 . S
O263 Pr240 2.512 . S
O263 C249 1.248 . S
O264 Pr241 2.438 . S
O264 C250 1.267 . S
O265 Pr240 2.437 1_554 S
O265 C250 1.278 . S
O266 Pr241 2.562 1_556 S
O266 C251 1.254 . S
O267 Pr241 2.490 1_556 S
O267 C251 1.225 . S
O268 Pr240 2.436 1_554 S
O268 Pr241 2.695 . S
O268 C258 1.270 . S
O269 Pr241 2.512 . S
O269 C258 1.248 . S
O270 Pr240 2.438 . S
O270 C259 1.267 . S
O271 Pr241 2.437 1_556 S
O271 C259 1.278 . S
H272 C244 0.929 . S
H273 C245 0.929 . S
H274 C247 0.931 . S
H275 C248 0.930 . S
H276 C253 0.929 . S
H277 C254 0.929 . S
H278 C256 0.931 . S
H279 C257 0.930 . S
Pr280 C282 2.880 1_556 S
Pr280 O300 2.562 1_556 S
Pr280 O301 2.490 1_556 S
Pr280 O302 2.695 . S
Pr280 O303 2.512 . S
Pr280 O305 2.437 1_556 S
Pr280 O308 2.436 1_556 S
Pr280 O310 2.438 . S
Pr281 C291 2.880 1_554 S
Pr281 O302 2.436 1_554 S
Pr281 O304 2.438 . S
Pr281 O306 2.562 1_554 S
Pr281 O307 2.490 1_554 S
Pr281 O308 2.695 . S
Pr281 O309 2.512 . S
Pr281 O311 2.437 1_554 S
C282 Pr280 2.880 1_554 S
C282 C283 1.491 . S
C282 O300 1.254 . S
C282 O301 1.225 . S
C283 C282 1.491 . S
C283 C284 1.392 . S
C283 C288 1.356 . S
C284 C283 1.392 . S
C284 C285 1.368 . S
C284 H312 0.929 . S
C285 C284 1.368 . S
C285 C286 1.386 . S
C285 H313 0.929 . S
C286 C285 1.386 . S
C286 C287 1.373 . S
C287 C286 1.373 . S
C287 C288 1.409 . S
C287 H314 0.931 . S
C288 C283 1.356 . S
C288 C287 1.409 . S
C288 H315 0.930 . S
C289 O302 1.270 . S
C289 O303 1.248 . S
C290 O304 1.267 . S
C290 O305 1.278 . S
C291 Pr281 2.880 1_556 S
C291 C292 1.491 . S
C291 O306 1.254 . S
C291 O307 1.225 . S
C292 C291 1.491 . S
C292 C293 1.392 . S
C292 C297 1.356 . S
C293 C292 1.392 . S
C293 C294 1.368 . S
C293 H316 0.929 . S
C294 C293 1.368 . S
C294 C295 1.386 . S
C294 H317 0.929 . S
C295 C294 1.386 . S
C295 C296 1.373 . S
C296 C295 1.373 . S
C296 C297 1.409 . S
C296 H318 0.931 . S
C297 C292 1.356 . S
C297 C296 1.409 . S
C297 H319 0.930 . S
C298 O308 1.270 . S
C298 O309 1.248 . S
C299 O310 1.267 . S
C299 O311 1.278 . S
O300 Pr280 2.562 1_554 S
O300 C282 1.254 . S
O301 Pr280 2.490 1_554 S
O301 C282 1.225 . S
O302 Pr280 2.695 . S
O302 Pr281 2.436 1_556 S
O302 C289 1.270 . S
O303 Pr280 2.512 . S
O303 C289 1.248 . S
O304 Pr281 2.438 . S
O304 C290 1.267 . S
O305 Pr280 2.437 1_554 S
O305 C290 1.278 . S
O306 Pr281 2.562 1_556 S
O306 C291 1.254 . S
O307 Pr281 2.490 1_556 S
O307 C291 1.225 . S
O308 Pr280 2.436 1_554 S
O308 Pr281 2.695 . S
O308 C298 1.270 . S
O309 Pr281 2.512 . S
O309 C298 1.248 . S
O310 Pr280 2.438 . S
O310 C299 1.267 . S
O311 Pr281 2.437 1_556 S
O311 C299 1.278 . S
H312 C284 0.929 . S
H313 C285 0.929 . S
H314 C287 0.931 . S
H315 C288 0.930 . S
H316 C293 0.929 . S
H317 C294 0.929 . S
H318 C296 0.931 . S
H319 C297 0.930 . S
H320 C338 0.951 . S
H321 C340 0.951 . S
H322 C342 0.950 . S
H323 C343 0.950 . S
H324 C345 0.950 . S
H325 C348 0.950 . S
H326 C349 0.950 . S
H327 C351 0.950 . S
H328 C352 0.950 . S
H329 C353 0.951 . S
H330 C355 0.951 . S
H331 C357 0.950 . S
H332 C358 0.950 . S
H333 C360 0.950 . S
H334 C363 0.950 . S
H335 C364 0.950 . S
H336 C366 0.950 . S
H337 C367 0.950 . S
C338 H320 0.951 . S
C338 C339 1.366 . S
C338 C340 1.388 . S
C339 C338 1.366 . S
C339 C343 1.385 . S
C340 H321 0.951 . S
C340 C338 1.388 . S
C340 C341 1.366 . S
C341 C340 1.366 . S
C341 C342 1.414 . S
C341 C344 1.499 . S
C342 H322 0.950 . S
C342 C341 1.414 . S
C342 C343 1.374 . S
C343 H323 0.950 . S
C343 C339 1.385 . S
C343 C342 1.374 . S
C344 C341 1.499 . S
C344 C345 1.373 . S
C344 C346 1.389 . S
C345 H324 0.950 . S
C345 C344 1.373 . S
C345 C361 1.377 . S
C346 C344 1.389 . S
C346 C347 1.524 . S
C346 C360 1.377 . S
C347 C346 1.524 . S
C347 C348 1.397 . S
C347 C352 1.363 . S
C348 H325 0.950 . S
C348 C347 1.397 . S
C348 C349 1.334 . S
C349 H326 0.950 . S
C349 C348 1.334 . S
C349 C350 1.287 . S
C350 C349 1.287 . S
C350 C351 1.524 . S
C350 H369 0.913 . S
C351 H327 0.950 . S
C351 C350 1.524 . S
C351 C352 1.415 . S
C352 H328 0.950 . S
C352 C347 1.363 . S
C352 C351 1.415 . S
C353 H329 0.951 . S
C353 C354 1.366 . S
C353 C355 1.388 . S
C354 C353 1.366 . S
C354 C358 1.385 . S
C355 H330 0.951 . S
C355 C353 1.388 . S
C355 C356 1.366 . S
C356 C355 1.366 . S
C356 C357 1.414 . S
C356 C359 1.499 . S
C357 H331 0.950 . S
C357 C356 1.414 . S
C357 C358 1.374 . S
C358 H332 0.950 . S
C358 C354 1.385 . S
C358 C357 1.374 . S
C359 C356 1.499 . S
C359 C360 1.373 . S
C359 C361 1.389 . S
C360 H333 0.950 . S
C360 C346 1.377 . S
C360 C359 1.373 . S
C361 C345 1.377 . S
C361 C359 1.389 . S
C361 C362 1.524 . S
C362 C361 1.524 . S
C362 C363 1.397 . S
C362 C367 1.363 . S
C363 H334 0.950 . S
C363 C362 1.397 . S
C363 C364 1.334 . S
C364 H335 0.950 . S
C364 C363 1.334 . S
C364 C365 1.287 . S
C365 C364 1.287 . S
C365 C366 1.524 . S
C365 H368 0.999 . S
C366 H336 0.950 . S
C366 C365 1.524 . S
C366 C367 1.415 . S
C367 H337 0.950 . S
C367 C362 1.363 . S
C367 C366 1.415 . S
H368 C365 0.999 . S
H369 C350 0.913 . S
H370 C388 0.951 . S
H371 C390 0.951 . S
H372 C392 0.950 . S
H373 C393 0.950 . S
H374 C395 0.950 . S
H375 C398 0.950 . S
H376 C399 0.950 . S
H377 C401 0.950 . S
H378 C402 0.950 . S
H379 C403 0.951 . S
H380 C405 0.951 . S
H381 C407 0.950 . S
H382 C408 0.950 . S
H383 C410 0.950 . S
H384 C413 0.950 . S
H385 C414 0.950 . S
H386 C416 0.950 . S
H387 C417 0.950 . S
C388 H370 0.951 . S
C388 C389 1.366 . S
C388 C390 1.388 . S
C389 C388 1.366 . S
C389 C393 1.385 . S
C390 H371 0.951 . S
C390 C388 1.388 . S
C390 C391 1.366 . S
C391 C390 1.366 . S
C391 C392 1.414 . S
C391 C394 1.499 . S
C392 H372 0.950 . S
C392 C391 1.414 . S
C392 C393 1.374 . S
C393 H373 0.950 . S
C393 C389 1.385 . S
C393 C392 1.374 . S
C394 C391 1.499 . S
C394 C395 1.373 . S
C394 C396 1.389 . S
C395 H374 0.950 . S
C395 C394 1.373 . S
C395 C411 1.377 . S
C396 C394 1.389 . S
C396 C397 1.524 . S
C396 C410 1.377 . S
C397 C396 1.524 . S
C397 C398 1.397 . S
C397 C402 1.363 . S
C398 H375 0.950 . S
C398 C397 1.397 . S
C398 C399 1.334 . S
C399 H376 0.950 . S
C399 C398 1.334 . S
C399 C400 1.287 . S
C400 C399 1.287 . S
C400 C401 1.524 . S
C400 H419 0.913 . S
C401 H377 0.950 . S
C401 C400 1.524 . S
C401 C402 1.415 . S
C402 H378 0.950 . S
C402 C397 1.363 . S
C402 C401 1.415 . S
C403 H379 0.951 . S
C403 C404 1.366 . S
C403 C405 1.388 . S
C404 C403 1.366 . S
C404 C408 1.385 . S
C405 H380 0.951 . S
C405 C403 1.388 . S
C405 C406 1.366 . S
C406 C405 1.366 . S
C406 C407 1.414 . S
C406 C409 1.499 . S
C407 H381 0.950 . S
C407 C406 1.414 . S
C407 C408 1.374 . S
C408 H382 0.950 . S
C408 C404 1.385 . S
C408 C407 1.374 . S
C409 C406 1.499 . S
C409 C410 1.373 . S
C409 C411 1.389 . S
C410 H383 0.950 . S
C410 C396 1.377 . S
C410 C409 1.373 . S
C411 C395 1.377 . S
C411 C409 1.389 . S
C411 C412 1.524 . S
C412 C411 1.524 . S
C412 C413 1.397 . S
C412 C417 1.363 . S
C413 H384 0.950 . S
C413 C412 1.397 . S
C413 C414 1.334 . S
C414 H385 0.950 . S
C414 C413 1.334 . S
C414 C415 1.287 . S
C415 C414 1.287 . S
C415 C416 1.524 . S
C415 H418 0.999 . S
C416 H386 0.950 . S
C416 C415 1.524 . S
C416 C417 1.415 . S
C417 H387 0.950 . S
C417 C412 1.363 . S
C417 C416 1.415 . S
H418 C415 0.999 . S
H419 C400 0.913 . S
H420 C438 0.951 . S
H421 C440 0.951 . S
H422 C442 0.950 . S
H423 C443 0.950 . S
H424 C445 0.950 . S
H425 C448 0.950 . S
H426 C449 0.950 . S
H427 C451 0.950 . S
H428 C452 0.950 . S
H429 C453 0.951 . S
H430 C455 0.951 . S
H431 C457 0.950 . S
H432 C458 0.950 . S
H433 C460 0.950 . S
H434 C463 0.950 . S
H435 C464 0.950 . S
H436 C466 0.950 . S
H437 C467 0.950 . S
C438 H420 0.951 . S
C438 C439 1.366 . S
C438 C440 1.388 . S
C439 C438 1.366 . S
C439 C443 1.385 . S
C440 H421 0.951 . S
C440 C438 1.388 . S
C440 C441 1.366 . S
C441 C440 1.366 . S
C441 C442 1.414 . S
C441 C444 1.499 . S
C442 H422 0.950 . S
C442 C441 1.414 . S
C442 C443 1.374 . S
C443 H423 0.950 . S
C443 C439 1.385 . S
C443 C442 1.374 . S
C444 C441 1.499 . S
C444 C445 1.373 . S
C444 C446 1.389 . S
C445 H424 0.950 . S
C445 C444 1.373 . S
C445 C461 1.377 . S
C446 C444 1.389 . S
C446 C447 1.524 . S
C446 C460 1.377 . S
C447 C446 1.524 . S
C447 C448 1.397 . S
C447 C452 1.363 . S
C448 H425 0.950 . S
C448 C447 1.397 . S
C448 C449 1.334 . S
C449 H426 0.950 . S
C449 C448 1.334 . S
C449 C450 1.287 . S
C450 C449 1.287 . S
C450 C451 1.524 . S
C450 H469 0.913 . S
C451 H427 0.950 . S
C451 C450 1.524 . S
C451 C452 1.415 . S
C452 H428 0.950 . S
C452 C447 1.363 . S
C452 C451 1.415 . S
C453 H429 0.951 . S
C453 C454 1.366 . S
C453 C455 1.388 . S
C454 C453 1.366 . S
C454 C458 1.385 . S
C455 H430 0.951 . S
C455 C453 1.388 . S
C455 C456 1.366 . S
C456 C455 1.366 . S
C456 C457 1.414 . S
C456 C459 1.499 . S
C457 H431 0.950 . S
C457 C456 1.414 . S
C457 C458 1.374 . S
C458 H432 0.950 . S
C458 C454 1.385 . S
C458 C457 1.374 . S
C459 C456 1.499 . S
C459 C460 1.373 . S
C459 C461 1.389 . S
C460 H433 0.950 . S
C460 C446 1.377 . S
C460 C459 1.373 . S
C461 C445 1.377 . S
C461 C459 1.389 . S
C461 C462 1.524 . S
C462 C461 1.524 . S
C462 C463 1.397 . S
C462 C467 1.363 . S
C463 H434 0.950 . S
C463 C462 1.397 . S
C463 C464 1.334 . S
C464 H435 0.950 . S
C464 C463 1.334 . S
C464 C465 1.287 . S
C465 C464 1.287 . S
C465 C466 1.524 . S
C465 H468 0.999 . S
C466 H436 0.950 . S
C466 C465 1.524 . S
C466 C467 1.415 . S
C467 H437 0.950 . S
C467 C462 1.363 . S
C467 C466 1.415 . S
H468 C465 0.999 . S
H469 C450 0.913 . S
H470 C488 0.951 . S
H471 C490 0.951 . S
H472 C492 0.950 . S
H473 C493 0.950 . S
H474 C495 0.950 . S
H475 C498 0.950 . S
H476 C499 0.950 . S
H477 C501 0.950 . S
H478 C502 0.950 . S
H479 C503 0.951 . S
H480 C505 0.951 . S
H481 C507 0.950 . S
H482 C508 0.950 . S
H483 C510 0.950 . S
H484 C513 0.950 . S
H485 C514 0.950 . S
H486 C516 0.950 . S
H487 C517 0.950 . S
C488 H470 0.951 . S
C488 C489 1.366 . S
C488 C490 1.388 . S
C489 C488 1.366 . S
C489 C493 1.385 . S
C490 H471 0.951 . S
C490 C488 1.388 . S
C490 C491 1.366 . S
C491 C490 1.366 . S
C491 C492 1.414 . S
C491 C494 1.499 . S
C492 H472 0.950 . S
C492 C491 1.414 . S
C492 C493 1.374 . S
C493 H473 0.950 . S
C493 C489 1.385 . S
C493 C492 1.374 . S
C494 C491 1.499 . S
C494 C495 1.373 . S
C494 C496 1.389 . S
C495 H474 0.950 . S
C495 C494 1.373 . S
C495 C511 1.377 . S
C496 C494 1.389 . S
C496 C497 1.524 . S
C496 C510 1.377 . S
C497 C496 1.524 . S
C497 C498 1.397 . S
C497 C502 1.363 . S
C498 H475 0.950 . S
C498 C497 1.397 . S
C498 C499 1.334 . S
C499 H476 0.950 . S
C499 C498 1.334 . S
C499 C500 1.287 . S
C500 C499 1.287 . S
C500 C501 1.524 . S
C500 H519 0.913 . S
C501 H477 0.950 . S
C501 C500 1.524 . S
C501 C502 1.415 . S
C502 H478 0.950 . S
C502 C497 1.363 . S
C502 C501 1.415 . S
C503 H479 0.951 . S
C503 C504 1.366 . S
C503 C505 1.388 . S
C504 C503 1.366 . S
C504 C508 1.385 . S
C505 H480 0.951 . S
C505 C503 1.388 . S
C505 C506 1.366 . S
C506 C505 1.366 . S
C506 C507 1.414 . S
C506 C509 1.499 . S
C507 H481 0.950 . S
C507 C506 1.414 . S
C507 C508 1.374 . S
C508 H482 0.950 . S
C508 C504 1.385 . S
C508 C507 1.374 . S
C509 C506 1.499 . S
C509 C510 1.373 . S
C509 C511 1.389 . S
C510 H483 0.950 . S
C510 C496 1.377 . S
C510 C509 1.373 . S
C511 C495 1.377 . S
C511 C509 1.389 . S
C511 C512 1.524 . S
C512 C511 1.524 . S
C512 C513 1.397 . S
C512 C517 1.363 . S
C513 H484 0.950 . S
C513 C512 1.397 . S
C513 C514 1.334 . S
C514 H485 0.950 . S
C514 C513 1.334 . S
C514 C515 1.287 . S
C515 C514 1.287 . S
C515 C516 1.524 . S
C515 H518 0.999 . S
C516 H486 0.950 . S
C516 C515 1.524 . S
C516 C517 1.415 . S
C517 H487 0.950 . S
C517 C512 1.363 . S
C517 C516 1.415 . S
H518 C515 0.999 . S
H519 C500 0.913 . S
H520 C538 0.951 . S
H521 C540 0.951 . S
H522 C542 0.950 . S
H523 C543 0.950 . S
H524 C545 0.950 . S
H525 C548 0.950 . S
H526 C549 0.950 . S
H527 C551 0.950 . S
H528 C552 0.950 . S
H529 C553 0.951 . S
H530 C555 0.951 . S
H531 C557 0.950 . S
H532 C558 0.950 . S
H533 C560 0.950 . S
H534 C563 0.950 . S
H535 C564 0.950 . S
H536 C566 0.950 . S
H537 C567 0.950 . S
C538 H520 0.951 . S
C538 C539 1.366 . S
C538 C540 1.388 . S
C539 C538 1.366 . S
C539 C543 1.385 . S
C540 H521 0.951 . S
C540 C538 1.388 . S
C540 C541 1.366 . S
C541 C540 1.366 . S
C541 C542 1.414 . S
C541 C544 1.499 . S
C542 H522 0.950 . S
C542 C541 1.414 . S
C542 C543 1.374 . S
C543 H523 0.950 . S
C543 C539 1.385 . S
C543 C542 1.374 . S
C544 C541 1.499 . S
C544 C545 1.373 . S
C544 C546 1.389 . S
C545 H524 0.950 . S
C545 C544 1.373 . S
C545 C561 1.377 1_565 S
C546 C544 1.389 . S
C546 C547 1.524 . S
C546 C560 1.377 1_565 S
C547 C546 1.524 . S
C547 C548 1.397 . S
C547 C552 1.363 . S
C548 H525 0.950 . S
C548 C547 1.397 . S
C548 C549 1.334 . S
C549 H526 0.950 . S
C549 C548 1.334 . S
C549 C550 1.287 . S
C550 C549 1.287 . S
C550 C551 1.524 . S
C550 H569 0.913 . S
C551 H527 0.950 . S
C551 C550 1.524 . S
C551 C552 1.415 . S
C552 H528 0.950 . S
C552 C547 1.363 . S
C552 C551 1.415 . S
C553 H529 0.951 . S
C553 C554 1.366 . S
C553 C555 1.388 . S
C554 C553 1.366 . S
C554 C558 1.385 . S
C555 H530 0.951 . S
C555 C553 1.388 . S
C555 C556 1.366 . S
C556 C555 1.366 . S
C556 C557 1.414 . S
C556 C559 1.499 . S
C557 H531 0.950 . S
C557 C556 1.414 . S
C557 C558 1.374 . S
C558 H532 0.950 . S
C558 C554 1.385 . S
C558 C557 1.374 . S
C559 C556 1.499 . S
C559 C560 1.373 . S
C559 C561 1.389 . S
C560 H533 0.950 . S
C560 C546 1.377 1_545 S
C560 C559 1.373 . S
C561 C545 1.377 1_545 S
C561 C559 1.389 . S
C561 C562 1.524 . S
C562 C561 1.524 . S
C562 C563 1.397 . S
C562 C567 1.363 . S
C563 H534 0.950 . S
C563 C562 1.397 . S
C563 C564 1.334 . S
C564 H535 0.950 . S
C564 C563 1.334 . S
C564 C565 1.287 . S
C565 C564 1.287 . S
C565 C566 1.524 . S
C565 H568 0.999 . S
C566 H536 0.950 . S
C566 C565 1.524 . S
C566 C567 1.415 . S
C567 H537 0.950 . S
C567 C562 1.363 . S
C567 C566 1.415 . S
H568 C565 0.999 . S
H569 C550 0.913 . S
H570 C588 0.951 . S
H571 C590 0.951 . S
H572 C592 0.950 . S
H573 C593 0.950 . S
H574 C595 0.950 . S
H575 C598 0.950 . S
H576 C599 0.950 . S
H577 C601 0.950 . S
H578 C602 0.950 . S
H579 C603 0.951 . S
H580 C605 0.951 . S
H581 C607 0.950 . S
H582 C608 0.950 . S
H583 C610 0.950 . S
H584 C613 0.950 . S
H585 C614 0.950 . S
H586 C616 0.950 . S
H587 C617 0.950 . S
C588 H570 0.951 . S
C588 C589 1.366 . S
C588 C590 1.388 . S
C589 C588 1.366 . S
C589 C593 1.385 . S
C590 H571 0.951 . S
C590 C588 1.388 . S
C590 C591 1.366 . S
C591 C590 1.366 . S
C591 C592 1.414 . S
C591 C594 1.499 . S
C592 H572 0.950 . S
C592 C591 1.414 . S
C592 C593 1.374 . S
C593 H573 0.950 . S
C593 C589 1.385 . S
C593 C592 1.374 . S
C594 C591 1.499 . S
C594 C595 1.373 . S
C594 C596 1.389 . S
C595 H574 0.950 . S
C595 C594 1.373 . S
C595 C611 1.377 . S
C596 C594 1.389 . S
C596 C597 1.524 . S
C596 C610 1.377 . S
C597 C596 1.524 . S
C597 C598 1.397 . S
C597 C602 1.363 . S
C598 H575 0.950 . S
C598 C597 1.397 . S
C598 C599 1.334 . S
C599 H576 0.950 . S
C599 C598 1.334 . S
C599 C600 1.287 . S
C600 C599 1.287 . S
C600 C601 1.524 . S
C600 H619 0.913 . S
C601 H577 0.950 . S
C601 C600 1.524 . S
C601 C602 1.415 . S
C602 H578 0.950 . S
C602 C597 1.363 . S
C602 C601 1.415 . S
C603 H579 0.951 . S
C603 C604 1.366 . S
C603 C605 1.388 . S
C604 C603 1.366 . S
C604 C608 1.385 . S
C605 H580 0.951 . S
C605 C603 1.388 . S
C605 C606 1.366 . S
C606 C605 1.366 . S
C606 C607 1.414 . S
C606 C609 1.499 . S
C607 H581 0.950 . S
C607 C606 1.414 . S
C607 C608 1.374 . S
C608 H582 0.950 . S
C608 C604 1.385 . S
C608 C607 1.374 . S
C609 C606 1.499 . S
C609 C610 1.373 . S
C609 C611 1.389 . S
C610 H583 0.950 . S
C610 C596 1.377 . S
C610 C609 1.373 . S
C611 C595 1.377 . S
C611 C609 1.389 . S
C611 C612 1.524 . S
C612 C611 1.524 . S
C612 C613 1.397 . S
C612 C617 1.363 . S
C613 H584 0.950 . S
C613 C612 1.397 . S
C613 C614 1.334 . S
C614 H585 0.950 . S
C614 C613 1.334 . S
C614 C615 1.287 . S
C615 C614 1.287 . S
C615 C616 1.524 . S
C615 H618 0.999 . S
C616 H586 0.950 . S
C616 C615 1.524 . S
C616 C617 1.415 . S
C617 H587 0.950 . S
C617 C612 1.363 . S
C617 C616 1.415 . S
H618 C615 0.999 . S
H619 C600 0.913 . S
H620 C638 0.951 . S
H621 C640 0.951 . S
H622 C642 0.950 . S
H623 C643 0.950 . S
H624 C645 0.950 . S
H625 C648 0.950 . S
H626 C649 0.950 . S
H627 C651 0.950 . S
H628 C652 0.950 . S
H629 C653 0.951 . S
H630 C655 0.951 . S
H631 C657 0.950 . S
H632 C658 0.950 . S
H633 C660 0.950 . S
H634 C663 0.950 . S
H635 C664 0.950 . S
H636 C666 0.950 . S
H637 C667 0.950 . S
C638 H620 0.951 . S
C638 C639 1.366 . S
C638 C640 1.388 . S
C639 C638 1.366 . S
C639 C643 1.385 . S
C640 H621 0.951 . S
C640 C638 1.388 . S
C640 C641 1.366 . S
C641 C640 1.366 . S
C641 C642 1.414 . S
C641 C644 1.499 . S
C642 H622 0.950 . S
C642 C641 1.414 . S
C642 C643 1.374 . S
C643 H623 0.950 . S
C643 C639 1.385 . S
C643 C642 1.374 . S
C644 C641 1.499 . S
C644 C645 1.373 . S
C644 C646 1.389 . S
C645 H624 0.950 . S
C645 C644 1.373 . S
C645 C661 1.377 1_565 S
C646 C644 1.389 . S
C646 C647 1.524 . S
C646 C660 1.377 1_565 S
C647 C646 1.524 . S
C647 C648 1.397 . S
C647 C652 1.363 . S
C648 H625 0.950 . S
C648 C647 1.397 . S
C648 C649 1.334 . S
C649 H626 0.950 . S
C649 C648 1.334 . S
C649 C650 1.287 . S
C650 C649 1.287 . S
C650 C651 1.524 . S
C650 H669 0.913 . S
C651 H627 0.950 . S
C651 C650 1.524 . S
C651 C652 1.415 . S
C652 H628 0.950 . S
C652 C647 1.363 . S
C652 C651 1.415 . S
C653 H629 0.951 . S
C653 C654 1.366 . S
C653 C655 1.388 . S
C654 C653 1.366 . S
C654 C658 1.385 . S
C655 H630 0.951 . S
C655 C653 1.388 . S
C655 C656 1.366 . S
C656 C655 1.366 . S
C656 C657 1.414 . S
C656 C659 1.499 . S
C657 H631 0.950 . S
C657 C656 1.414 . S
C657 C658 1.374 . S
C658 H632 0.950 . S
C658 C654 1.385 . S
C658 C657 1.374 . S
C659 C656 1.499 . S
C659 C660 1.373 . S
C659 C661 1.389 . S
C660 H633 0.950 . S
C660 C646 1.377 1_545 S
C660 C659 1.373 . S
C661 C645 1.377 1_545 S
C661 C659 1.389 . S
C661 C662 1.524 . S
C662 C661 1.524 . S
C662 C663 1.397 . S
C662 C667 1.363 . S
C663 H634 0.950 . S
C663 C662 1.397 . S
C663 C664 1.334 . S
C664 H635 0.950 . S
C664 C663 1.334 . S
C664 C665 1.287 . S
C665 C664 1.287 . S
C665 C666 1.524 . S
C665 H668 0.999 . S
C666 H636 0.950 . S
C666 C665 1.524 . S
C666 C667 1.415 . S
C667 H637 0.950 . S
C667 C662 1.363 . S
C667 C666 1.415 . S
H668 C665 0.999 . S
H669 C650 0.913 . S
H670 C688 0.951 . S
H671 C690 0.951 . S
H672 C692 0.950 . S
H673 C693 0.950 . S
H674 C695 0.950 . S
H675 C698 0.950 . S
H676 C699 0.950 . S
H677 C701 0.950 . S
H678 C702 0.950 . S
H679 C703 0.951 . S
H680 C705 0.951 . S
H681 C707 0.950 . S
H682 C708 0.950 . S
H683 C710 0.950 . S
H684 C713 0.950 . S
H685 C714 0.950 . S
H686 C716 0.950 . S
H687 C717 0.950 . S
C688 H670 0.951 . S
C688 C689 1.366 . S
C688 C690 1.388 . S
C689 C688 1.366 . S
C689 C693 1.385 . S
C690 H671 0.951 . S
C690 C688 1.388 . S
C690 C691 1.366 . S
C691 C690 1.366 . S
C691 C692 1.414 . S
C691 C694 1.499 . S
C692 H672 0.950 . S
C692 C691 1.414 . S
C692 C693 1.374 . S
C693 H673 0.950 . S
C693 C689 1.385 . S
C693 C692 1.374 . S
C694 C691 1.499 . S
C694 C695 1.373 . S
C694 C696 1.389 . S
C695 H674 0.950 . S
C695 C694 1.373 . S
C695 C711 1.377 . S
C696 C694 1.389 . S
C696 C697 1.524 . S
C696 C710 1.377 . S
C697 C696 1.524 . S
C697 C698 1.397 . S
C697 C702 1.363 . S
C698 H675 0.950 . S
C698 C697 1.397 . S
C698 C699 1.334 . S
C699 H676 0.950 . S
C699 C698 1.334 . S
C699 C700 1.287 . S
C700 C699 1.287 . S
C700 C701 1.524 . S
C700 H719 0.913 . S
C701 H677 0.950 . S
C701 C700 1.524 . S
C701 C702 1.415 . S
C702 H678 0.950 . S
C702 C697 1.363 . S
C702 C701 1.415 . S
C703 H679 0.951 . S
C703 C704 1.366 . S
C703 C705 1.388 . S
C704 C703 1.366 . S
C704 C708 1.385 . S
C705 H680 0.951 . S
C705 C703 1.388 . S
C705 C706 1.366 . S
C706 C705 1.366 . S
C706 C707 1.414 . S
C706 C709 1.499 . S
C707 H681 0.950 . S
C707 C706 1.414 . S
C707 C708 1.374 . S
C708 H682 0.950 . S
C708 C704 1.385 . S
C708 C707 1.374 . S
C709 C706 1.499 . S
C709 C710 1.373 . S
C709 C711 1.389 . S
C710 H683 0.950 . S
C710 C696 1.377 . S
C710 C709 1.373 . S
C711 C695 1.377 . S
C711 C709 1.389 . S
C711 C712 1.524 . S
C712 C711 1.524 . S
C712 C713 1.397 . S
C712 C717 1.363 . S
C713 H684 0.950 . S
C713 C712 1.397 . S
C713 C714 1.334 . S
C714 H685 0.950 . S
C714 C713 1.334 . S
C714 C715 1.287 . S
C715 C714 1.287 . S
C715 C716 1.524 . S
C715 H718 0.999 . S
C716 H686 0.950 . S
C716 C715 1.524 . S
C716 C717 1.415 . S
C717 H687 0.950 . S
C717 C712 1.363 . S
C717 C716 1.415 . S
H718 C715 0.999 . S
H719 C700 0.913 . S
H720 C738 0.951 . S
H721 C740 0.951 . S
H722 C742 0.950 . S
H723 C743 0.950 . S
H724 C745 0.950 . S
H725 C748 0.950 . S
H726 C749 0.950 . S
H727 C751 0.950 . S
H728 C752 0.950 . S
H729 C753 0.951 . S
H730 C755 0.951 . S
H731 C757 0.950 . S
H732 C758 0.950 . S
H733 C760 0.950 . S
H734 C763 0.950 . S
H735 C764 0.950 . S
H736 C766 0.950 . S
H737 C767 0.950 . S
C738 H720 0.951 . S
C738 C739 1.366 1_554 S
C738 C740 1.388 . S
C739 C738 1.366 1_556 S
C739 C743 1.385 . S
C740 H721 0.951 . S
C740 C738 1.388 . S
C740 C741 1.366 . S
C741 C740 1.366 . S
C741 C742 1.413 1_554 S
C741 C744 1.499 1_554 S
C742 H722 0.950 . S
C742 C741 1.413 1_556 S
C742 C743 1.374 . S
C743 H723 0.950 . S
C743 C739 1.385 . S
C743 C742 1.374 . S
C744 C741 1.499 1_556 S
C744 C745 1.372 . S
C744 C746 1.390 1_556 S
C745 H724 0.950 . S
C745 C744 1.372 . S
C745 C761 1.377 . S
C746 C744 1.390 1_554 S
C746 C747 1.524 . S
C746 C760 1.377 . S
C747 C746 1.524 . S
C747 C748 1.397 . S
C747 C752 1.363 . S
C748 H725 0.950 . S
C748 C747 1.397 . S
C748 C749 1.334 . S
C749 H726 0.950 . S
C749 C748 1.334 . S
C749 C750 1.287 . S
C750 C749 1.287 . S
C750 C751 1.524 . S
C750 H769 0.913 . S
C751 H727 0.950 . S
C751 C750 1.524 . S
C751 C752 1.415 . S
C752 H728 0.950 . S
C752 C747 1.363 . S
C752 C751 1.415 . S
C753 H729 0.951 . S
C753 C754 1.366 . S
C753 C755 1.388 . S
C754 C753 1.366 . S
C754 C758 1.385 1_556 S
C755 H730 0.951 . S
C755 C753 1.388 . S
C755 C756 1.366 . S
C756 C755 1.366 . S
C756 C757 1.414 1_556 S
C756 C759 1.499 . S
C757 H731 0.950 . S
C757 C756 1.414 1_554 S
C757 C758 1.374 . S
C758 H732 0.950 . S
C758 C754 1.385 1_554 S
C758 C757 1.374 . S
C759 C756 1.499 . S
C759 C760 1.373 1_556 S
C759 C761 1.389 . S
C760 H733 0.950 . S
C760 C746 1.377 . S
C760 C759 1.373 1_554 S
C761 C745 1.377 . S
C761 C759 1.389 . S
C761 C762 1.524 . S
C762 C761 1.524 . S
C762 C763 1.397 . S
C762 C767 1.363 . S
C763 H734 0.950 . S
C763 C762 1.397 . S
C763 C764 1.334 . S
C764 H735 0.950 . S
C764 C763 1.334 . S
C764 C765 1.287 . S
C765 C764 1.287 . S
C765 C766 1.524 . S
C765 H768 0.999 . S
C766 H736 0.950 . S
C766 C765 1.524 . S
C766 C767 1.415 . S
C767 H737 0.950 . S
C767 C762 1.363 . S
C767 C766 1.415 . S
H768 C765 0.999 . S
H769 C750 0.913 . S
H770 C788 0.951 . S
H771 C790 0.951 . S
H772 C792 0.950 . S
H773 C793 0.950 . S
H774 C795 0.950 . S
H775 C798 0.950 . S
H776 C799 0.950 . S
H777 C801 0.950 . S
H778 C802 0.950 . S
H779 C803 0.951 . S
H780 C805 0.951 . S
H781 C807 0.950 . S
H782 C808 0.950 . S
H783 C810 0.950 . S
H784 C813 0.950 . S
H785 C814 0.950 . S
H786 C816 0.950 . S
H787 C817 0.950 . S
C788 H770 0.951 . S
C788 C789 1.366 . S
C788 C790 1.388 . S
C789 C788 1.366 . S
C789 C793 1.385 1_556 S
C790 H771 0.951 . S
C790 C788 1.388 . S
C790 C791 1.366 . S
C791 C790 1.366 . S
C791 C792 1.414 1_556 S
C791 C794 1.499 . S
C792 H772 0.950 . S
C792 C791 1.414 1_554 S
C792 C793 1.374 . S
C793 H773 0.950 . S
C793 C789 1.385 1_554 S
C793 C792 1.374 . S
C794 C791 1.499 . S
C794 C795 1.373 1_556 S
C794 C796 1.389 . S
C795 H774 0.950 . S
C795 C794 1.373 1_554 S
C795 C811 1.377 1_565 S
C796 C794 1.389 . S
C796 C797 1.524 . S
C796 C810 1.377 1_565 S
C797 C796 1.524 . S
C797 C798 1.397 . S
C797 C802 1.363 . S
C798 H775 0.950 . S
C798 C797 1.397 . S
C798 C799 1.334 . S
C799 H776 0.950 . S
C799 C798 1.334 . S
C799 C800 1.287 . S
C800 C799 1.287 . S
C800 C801 1.524 . S
C800 H819 0.913 . S
C801 H777 0.950 . S
C801 C800 1.524 . S
C801 C802 1.415 . S
C802 H778 0.950 . S
C802 C797 1.363 . S
C802 C801 1.415 . S
C803 H779 0.951 . S
C803 C804 1.366 1_554 S
C803 C805 1.388 . S
C804 C803 1.366 1_556 S
C804 C808 1.385 . S
C805 H780 0.951 . S
C805 C803 1.388 . S
C805 C806 1.366 1_554 S
C806 C805 1.366 1_556 S
C806 C807 1.414 . S
C806 C809 1.499 . S
C807 H781 0.950 . S
C807 C806 1.414 . S
C807 C808 1.374 . S
C808 H782 0.950 . S
C808 C804 1.385 . S
C808 C807 1.374 . S
C809 C806 1.499 . S
C809 C810 1.373 . S
C809 C811 1.389 1_556 S
C810 H783 0.950 . S
C810 C796 1.377 1_545 S
C810 C809 1.373 . S
C811 C795 1.377 1_545 S
C811 C809 1.389 1_554 S
C811 C812 1.524 . S
C812 C811 1.524 . S
C812 C813 1.397 . S
C812 C817 1.363 . S
C813 H784 0.950 . S
C813 C812 1.397 . S
C813 C814 1.334 . S
C814 H785 0.950 . S
C814 C813 1.334 . S
C814 C815 1.287 . S
C815 C814 1.287 . S
C815 C816 1.524 . S
C815 H818 0.999 . S
C816 H786 0.950 . S
C816 C815 1.524 . S
C816 C817 1.415 . S
C817 H787 0.950 . S
C817 C812 1.363 . S
C817 C816 1.415 . S
H818 C815 0.999 . S
H819 C800 0.913 . S
H820 C838 0.951 . S
H821 C840 0.951 . S
H822 C842 0.950 . S
H823 C843 0.950 . S
H824 C845 0.950 . S
H825 C848 0.950 . S
H826 C849 0.950 1_556 S
H827 C851 0.950 . S
H828 C852 0.950 . S
H829 C853 0.951 . S
H830 C855 0.951 . S
H831 C857 0.950 . S
H832 C858 0.950 . S
H833 C860 0.950 . S
H834 C863 0.950 . S
H835 C864 0.948 1_554 S
H836 C866 0.950 . S
H837 C867 0.950 . S
C838 H820 0.951 . S
C838 C839 1.366 . S
C838 C840 1.388 . S
C839 C838 1.366 . S
C839 C843 1.385 1_554 S
C840 H821 0.951 . S
C840 C838 1.388 . S
C840 C841 1.366 . S
C841 C840 1.366 . S
C841 C842 1.414 1_554 S
C841 C844 1.499 1_554 S
C842 H822 0.950 . S
C842 C841 1.414 1_556 S
C842 C843 1.374 . S
C843 H823 0.950 . S
C843 C839 1.385 1_556 S
C843 C842 1.374 . S
C844 C841 1.499 1_556 S
C844 C845 1.374 . S
C844 C846 1.389 1_556 S
C845 H824 0.950 . S
C845 C844 1.374 . S
C845 C861 1.377 . S
C846 C844 1.389 1_554 S
C846 C847 1.524 . S
C846 C860 1.377 . S
C847 C846 1.524 . S
C847 C848 1.397 1_554 S
C847 C852 1.363 . S
C848 H825 0.950 . S
C848 C847 1.397 1_556 S
C848 C849 1.334 1_556 S
C849 H826 0.950 1_554 S
C849 C848 1.334 1_554 S
C849 C850 1.287 . S
C850 C849 1.287 . S
C850 C851 1.524 . S
C850 H869 0.913 . S
C851 H827 0.950 . S
C851 C850 1.524 . S
C851 C852 1.415 . S
C852 H828 0.950 . S
C852 C847 1.363 . S
C852 C851 1.415 . S
C853 H829 0.951 . S
C853 C854 1.366 1_556 S
C853 C855 1.388 . S
C854 C853 1.366 1_554 S
C854 C858 1.385 . S
C855 H830 0.951 . S
C855 C853 1.388 . S
C855 C856 1.366 1_556 S
C856 C855 1.366 1_554 S
C856 C857 1.414 . S
C856 C859 1.499 . S
C857 H831 0.950 . S
C857 C856 1.414 . S
C857 C858 1.374 . S
C858 H832 0.950 . S
C858 C854 1.385 . S
C858 C857 1.374 . S
C859 C856 1.499 . S
C859 C860 1.373 . S
C859 C861 1.389 1_554 S
C860 H833 0.950 . S
C860 C846 1.377 . S
C860 C859 1.373 . S
C861 C845 1.377 . S
C861 C859 1.389 1_556 S
C861 C862 1.524 . S
C862 C861 1.524 . S
C862 C863 1.397 1_556 S
C862 C867 1.363 . S
C863 H834 0.950 . S
C863 C862 1.397 1_554 S
C863 C864 1.333 1_554 S
C864 H835 0.948 1_556 S
C864 C863 1.333 1_556 S
C864 C865 1.290 . S
C865 C864 1.290 . S
C865 C866 1.524 . S
C865 H868 0.999 . S
C866 H836 0.950 . S
C866 C865 1.524 . S
C866 C867 1.415 . S
C867 H837 0.950 . S
C867 C862 1.363 . S
C867 C866 1.415 . S
H868 C865 0.999 . S
H869 C850 0.913 . S
H870 C888 0.951 . S
H871 C890 0.951 . S
H872 C892 0.950 . S
H873 C893 0.950 . S
H874 C895 0.950 . S
H875 C898 0.950 . S
H876 C899 0.950 . S
H877 C901 0.950 . S
H878 C902 0.950 . S
H879 C903 0.951 . S
H880 C905 0.951 . S
H881 C907 0.950 . S
H882 C908 0.950 . S
H883 C910 0.950 . S
H884 C913 0.950 . S
H885 C914 0.950 . S
H886 C916 0.950 . S
H887 C917 0.950 . S
C888 H870 0.951 . S
C888 C889 1.366 1_556 S
C888 C890 1.388 . S
C889 C888 1.366 1_554 S
C889 C893 1.385 . S
C890 H871 0.951 . S
C890 C888 1.388 . S
C890 C891 1.365 . S
C891 C890 1.365 . S
C891 C892 1.414 1_556 S
C891 C894 1.499 1_556 S
C892 H872 0.950 . S
C892 C891 1.414 1_554 S
C892 C893 1.374 . S
C893 H873 0.950 . S
C893 C889 1.385 . S
C893 C892 1.374 . S
C894 C891 1.499 1_554 S
C894 C895 1.379 . S
C894 C896 1.384 1_554 S
C895 H874 0.950 . S
C895 C894 1.379 . S
C895 C911 1.377 1_545 S
C896 C894 1.384 1_556 S
C896 C897 1.524 . S
C896 C910 1.377 1_545 S
C897 C896 1.524 . S
C897 C898 1.397 . S
C897 C902 1.363 . S
C898 H875 0.950 . S
C898 C897 1.397 . S
C898 C899 1.334 . S
C899 H876 0.950 . S
C899 C898 1.334 . S
C899 C900 1.287 . S
C900 C899 1.287 . S
C900 C901 1.524 . S
C900 H919 0.913 . S
C901 H877 0.950 . S
C901 C900 1.524 . S
C901 C902 1.415 . S
C902 H878 0.950 . S
C902 C897 1.363 . S
C902 C901 1.415 . S
C903 H879 0.951 . S
C903 C904 1.366 . S
C903 C905 1.388 . S
C904 C903 1.366 . S
C904 C908 1.385 1_554 S
C905 H880 0.951 . S
C905 C903 1.388 . S
C905 C906 1.366 . S
C906 C905 1.366 . S
C906 C907 1.414 1_554 S
C906 C909 1.499 . S
C907 H881 0.950 . S
C907 C906 1.414 1_556 S
C907 C908 1.374 . S
C908 H882 0.950 . S
C908 C904 1.385 1_556 S
C908 C907 1.374 . S
C909 C906 1.499 . S
C909 C910 1.373 1_554 S
C909 C911 1.389 . S
C910 H883 0.950 . S
C910 C896 1.377 1_565 S
C910 C909 1.373 1_556 S
C911 C895 1.377 1_565 S
C911 C909 1.389 . S
C911 C912 1.524 . S
C912 C911 1.524 . S
C912 C913 1.397 . S
C912 C917 1.363 . S
C913 H884 0.950 . S
C913 C912 1.397 . S
C913 C914 1.334 . S
C914 H885 0.950 . S
C914 C913 1.334 . S
C914 C915 1.287 . S
C915 C914 1.287 . S
C915 C916 1.524 . S
C915 H918 0.999 . S
C916 H886 0.950 . S
C916 C915 1.524 . S
C916 C917 1.415 . S
C917 H887 0.950 . S
C917 C912 1.363 . S
C917 C916 1.415 . S
H918 C915 0.999 . S
H919 C900 0.913 . S
H920 C938 0.951 . S
H921 C940 0.951 . S
H922 C942 0.950 . S
H923 C943 0.950 . S
H924 C945 0.950 . S
H925 C948 0.950 . S
H926 C949 0.950 . S
H927 C951 0.950 . S
H928 C952 0.950 . S
H929 C953 0.951 . S
H930 C955 0.951 . S
H931 C957 0.950 . S
H932 C958 0.950 . S
H933 C960 0.950 . S
H934 C963 0.950 . S
H935 C964 0.950 . S
H936 C966 0.950 . S
H937 C967 0.950 . S
C938 H920 0.951 . S
C938 C939 1.366 . S
C938 C940 1.388 . S
C939 C938 1.366 . S
C939 C943 1.385 . S
C940 H921 0.951 . S
C940 C938 1.388 . S
C940 C941 1.366 . S
C941 C940 1.366 . S
C941 C942 1.414 . S
C941 C944 1.499 . S
C942 H922 0.950 . S
C942 C941 1.414 . S
C942 C943 1.374 . S
C943 H923 0.950 . S
C943 C939 1.385 . S
C943 C942 1.374 . S
C944 C941 1.499 . S
C944 C945 1.373 1_554 S
C944 C946 1.389 1_554 S
C945 H924 0.950 . S
C945 C944 1.373 1_556 S
C945 C961 1.377 . S
C946 C944 1.389 1_556 S
C946 C947 1.524 1_556 S
C946 C960 1.377 . S
C947 C946 1.524 1_554 S
C947 C948 1.397 . S
C947 C952 1.363 1_554 S
C948 H925 0.950 . S
C948 C947 1.397 . S
C948 C949 1.334 . S
C949 H926 0.950 . S
C949 C948 1.334 . S
C949 C950 1.287 . S
C950 C949 1.287 . S
C950 C951 1.524 . S
C950 H969 0.913 . S
C951 H927 0.950 . S
C951 C950 1.524 . S
C951 C952 1.415 1_554 S
C952 H928 0.950 . S
C952 C947 1.363 1_556 S
C952 C951 1.415 1_556 S
C953 H929 0.951 . S
C953 C954 1.366 . S
C953 C955 1.388 . S
C954 C953 1.366 . S
C954 C958 1.385 . S
C955 H930 0.951 . S
C955 C953 1.388 . S
C955 C956 1.366 . S
C956 C955 1.366 . S
C956 C957 1.414 . S
C956 C959 1.499 . S
C957 H931 0.950 . S
C957 C956 1.414 . S
C957 C958 1.374 . S
C958 H932 0.950 . S
C958 C954 1.385 . S
C958 C957 1.374 . S
C959 C956 1.499 . S
C959 C960 1.373 . S
C959 C961 1.389 . S
C960 H933 0.950 . S
C960 C946 1.377 . S
C960 C959 1.373 . S
C961 C945 1.377 . S
C961 C959 1.389 . S
C961 C962 1.524 . S
C962 C961 1.524 . S
C962 C963 1.397 . S
C962 C967 1.363 . S
C963 H934 0.950 . S
C963 C962 1.397 . S
C963 C964 1.334 . S
C964 H935 0.950 . S
C964 C963 1.334 . S
C964 C965 1.287 . S
C965 C964 1.287 . S
C965 C966 1.524 . S
C965 H968 0.999 . S
C966 H936 0.950 . S
C966 C965 1.524 . S
C966 C967 1.415 . S
C967 H937 0.950 . S
C967 C962 1.363 . S
C967 C966 1.415 . S
H968 C965 0.999 . S
H969 C950 0.913 . S
H970 C988 0.951 . S
H971 C990 0.951 . S
H972 C992 0.950 . S
H973 C993 0.950 . S
H974 C995 0.950 1_554 S
H975 C998 0.950 . S
H976 C999 0.950 . S
H977 C1001 0.949 . S
H978 C1002 0.950 . S
H979 C1003 0.951 . S
H980 C1005 0.951 . S
H981 C1007 0.950 . S
H982 C1008 0.950 . S
H983 C1010 0.950 . S
H984 C1013 0.950 . S
H985 C1014 0.950 . S
H986 C1016 0.950 . S
H987 C1017 0.950 . S
C988 H970 0.951 . S
C988 C989 1.366 . S
C988 C990 1.388 . S
C989 C988 1.366 . S
C989 C993 1.385 . S
C990 H971 0.951 . S
C990 C988 1.388 . S
C990 C991 1.366 . S
C991 C990 1.366 . S
C991 C992 1.414 . S
C991 C994 1.499 . S
C992 H972 0.950 . S
C992 C991 1.414 . S
C992 C993 1.374 . S
C993 H973 0.950 . S
C993 C989 1.385 . S
C993 C992 1.374 . S
C994 C991 1.499 . S
C994 C995 1.373 1_554 S
C994 C996 1.389 1_554 S
C995 H974 0.950 1_556 S
C995 C994 1.373 1_556 S
C995 C1011 1.377 . S
C996 C994 1.389 1_556 S
C996 C997 1.524 1_556 S
C996 C1010 1.377 . S
C997 C996 1.524 1_554 S
C997 C998 1.397 . S
C997 C1002 1.363 1_554 S
C998 H975 0.950 . S
C998 C997 1.397 . S
C998 C999 1.334 . S
C999 H976 0.950 . S
C999 C998 1.334 . S
C999 C1000 1.287 . S
C1000 C999 1.287 . S
C1000 C1001 1.524 . S
C1000 H1019 0.913 . S
C1001 H977 0.949 . S
C1001 C1000 1.524 . S
C1001 C1002 1.415 1_554 S
C1002 H978 0.950 . S
C1002 C997 1.363 1_556 S
C1002 C1001 1.415 1_556 S
C1003 H979 0.951 . S
C1003 C1004 1.366 . S
C1003 C1005 1.388 . S
C1004 C1003 1.366 . S
C1004 C1008 1.385 . S
C1005 H980 0.951 . S
C1005 C1003 1.388 . S
C1005 C1006 1.366 . S
C1006 C1005 1.366 . S
C1006 C1007 1.414 . S
C1006 C1009 1.499 . S
C1007 H981 0.950 . S
C1007 C1006 1.414 . S
C1007 C1008 1.374 . S
C1008 H982 0.950 . S
C1008 C1004 1.385 . S
C1008 C1007 1.374 . S
C1009 C1006 1.499 . S
C1009 C1010 1.373 . S
C1009 C1011 1.389 . S
C1010 H983 0.950 . S
C1010 C996 1.377 . S
C1010 C1009 1.373 . S
C1011 C995 1.377 . S
C1011 C1009 1.389 . S
C1011 C1012 1.524 . S
C1012 C1011 1.524 . S
C1012 C1013 1.397 . S
C1012 C1017 1.363 . S
C1013 H984 0.950 . S
C1013 C1012 1.397 . S
C1013 C1014 1.334 . S
C1014 H985 0.950 . S
C1014 C1013 1.334 . S
C1014 C1015 1.287 . S
C1015 C1014 1.287 . S
C1015 C1016 1.524 . S
C1015 H1018 0.999 . S
C1016 H986 0.950 . S
C1016 C1015 1.524 . S
C1016 C1017 1.415 . S
C1017 H987 0.950 . S
C1017 C1012 1.363 . S
C1017 C1016 1.415 . S
H1018 C1015 0.999 . S
H1019 C1000 0.913 . S
H1020 C1038 0.951 . S
H1021 C1040 0.951 . S
H1022 C1042 0.950 . S
H1023 C1043 0.950 . S
H1024 C1045 0.950 . S
H1025 C1048 0.950 . S
H1026 C1049 0.950 . S
H1027 C1051 0.950 . S
H1028 C1052 0.950 . S
H1029 C1053 0.951 . S
H1030 C1055 0.951 . S
H1031 C1057 0.950 . S
H1032 C1058 0.950 . S
H1033 C1060 0.950 1_556 S
H1034 C1063 0.950 . S
H1035 C1064 0.950 . S
H1036 C1066 0.950 . S
H1037 C1067 0.950 . S
C1038 H1020 0.951 . S
C1038 C1039 1.366 . S
C1038 C1040 1.388 . S
C1039 C1038 1.366 . S
C1039 C1043 1.385 . S
C1040 H1021 0.951 . S
C1040 C1038 1.388 . S
C1040 C1041 1.366 . S
C1041 C1040 1.366 . S
C1041 C1042 1.414 . S
C1041 C1044 1.499 . S
C1042 H1022 0.950 . S
C1042 C1041 1.414 . S
C1042 C1043 1.374 . S
C1043 H1023 0.950 . S
C1043 C1039 1.385 . S
C1043 C1042 1.374 . S
C1044 C1041 1.499 . S
C1044 C1045 1.373 . S
C1044 C1046 1.389 . S
C1045 H1024 0.950 . S
C1045 C1044 1.373 . S
C1045 C1061 1.377 . S
C1046 C1044 1.389 . S
C1046 C1047 1.524 . S
C1046 C1060 1.377 . S
C1047 C1046 1.524 . S
C1047 C1048 1.397 . S
C1047 C1052 1.363 . S
C1048 H1025 0.950 . S
C1048 C1047 1.397 . S
C1048 C1049 1.334 . S
C1049 H1026 0.950 . S
C1049 C1048 1.334 . S
C1049 C1050 1.287 . S
C1050 C1049 1.287 . S
C1050 C1051 1.524 . S
C1050 H1069 0.913 . S
C1051 H1027 0.950 . S
C1051 C1050 1.524 . S
C1051 C1052 1.415 . S
C1052 H1028 0.950 . S
C1052 C1047 1.363 . S
C1052 C1051 1.415 . S
C1053 H1029 0.951 . S
C1053 C1054 1.366 . S
C1053 C1055 1.388 . S
C1054 C1053 1.366 . S
C1054 C1058 1.385 . S
C1055 H1030 0.951 . S
C1055 C1053 1.388 . S
C1055 C1056 1.366 . S
C1056 C1055 1.366 . S
C1056 C1057 1.414 . S
C1056 C1059 1.499 . S
C1057 H1031 0.950 . S
C1057 C1056 1.414 . S
C1057 C1058 1.374 . S
C1058 H1032 0.950 . S
C1058 C1054 1.385 . S
C1058 C1057 1.374 . S
C1059 C1056 1.499 . S
C1059 C1060 1.373 1_556 S
C1059 C1061 1.389 1_556 S
C1060 H1033 0.950 1_554 S
C1060 C1046 1.377 . S
C1060 C1059 1.373 1_554 S
C1061 C1045 1.377 . S
C1061 C1059 1.389 1_554 S
C1061 C1062 1.524 . S
C1062 C1061 1.524 . S
C1062 C1063 1.397 1_554 S
C1062 C1067 1.363 . S
C1063 H1034 0.950 . S
C1063 C1062 1.397 1_556 S
C1063 C1064 1.334 . S
C1064 H1035 0.950 . S
C1064 C1063 1.334 . S
C1064 C1065 1.287 . S
C1065 C1064 1.287 . S
C1065 C1066 1.524 1_556 S
C1065 H1068 0.999 . S
C1066 H1036 0.950 . S
C1066 C1065 1.524 1_554 S
C1066 C1067 1.415 . S
C1067 H1037 0.950 . S
C1067 C1062 1.363 . S
C1067 C1066 1.415 . S
H1068 C1065 0.999 . S
H1069 C1050 0.913 . S
H1070 C1088 0.951 . S
H1071 C1090 0.951 . S
H1072 C1092 0.950 . S
H1073 C1093 0.950 . S
H1074 C1095 0.950 1_556 S
H1075 C1098 0.950 . S
H1076 C1099 0.950 . S
H1077 C1101 0.950 . S
H1078 C1102 0.950 . S
H1079 C1103 0.951 . S
H1080 C1105 0.951 . S
H1081 C1107 0.950 . S
H1082 C1108 0.950 . S
H1083 C1110 0.950 . S
H1084 C1113 0.950 . S
H1085 C1114 0.950 . S
H1086 C1116 0.950 . S
H1087 C1117 0.950 . S
C1088 H1070 0.951 . S
C1088 C1089 1.366 . S
C1088 C1090 1.388 . S
C1089 C1088 1.366 . S
C1089 C1093 1.385 . S
C1090 H1071 0.951 . S
C1090 C1088 1.388 . S
C1090 C1091 1.366 . S
C1091 C1090 1.366 . S
C1091 C1092 1.414 . S
C1091 C1094 1.499 . S
C1092 H1072 0.950 . S
C1092 C1091 1.414 . S
C1092 C1093 1.374 . S
C1093 H1073 0.950 . S
C1093 C1089 1.385 . S
C1093 C1092 1.374 . S
C1094 C1091 1.499 . S
C1094 C1095 1.373 1_556 S
C1094 C1096 1.389 1_556 S
C1095 H1074 0.950 1_554 S
C1095 C1094 1.373 1_554 S
C1095 C1111 1.377 . S
C1096 C1094 1.389 1_554 S
C1096 C1097 1.524 . S
C1096 C1110 1.377 . S
C1097 C1096 1.524 . S
C1097 C1098 1.397 1_554 S
C1097 C1102 1.363 . S
C1098 H1075 0.950 . S
C1098 C1097 1.397 1_556 S
C1098 C1099 1.334 . S
C1099 H1076 0.950 . S
C1099 C1098 1.334 . S
C1099 C1100 1.287 . S
C1100 C1099 1.287 . S
C1100 C1101 1.524 1_556 S
C1100 H1119 0.913 . S
C1101 H1077 0.950 . S
C1101 C1100 1.524 1_554 S
C1101 C1102 1.415 . S
C1102 H1078 0.950 . S
C1102 C1097 1.363 . S
C1102 C1101 1.415 . S
C1103 H1079 0.951 . S
C1103 C1104 1.366 . S
C1103 C1105 1.388 . S
C1104 C1103 1.366 . S
C1104 C1108 1.385 . S
C1105 H1080 0.951 . S
C1105 C1103 1.388 . S
C1105 C1106 1.366 . S
C1106 C1105 1.366 . S
C1106 C1107 1.414 . S
C1106 C1109 1.499 . S
C1107 H1081 0.950 . S
C1107 C1106 1.414 . S
C1107 C1108 1.374 . S
C1108 H1082 0.950 . S
C1108 C1104 1.385 . S
C1108 C1107 1.374 . S
C1109 C1106 1.499 . S
C1109 C1110 1.373 . S
C1109 C1111 1.389 . S
C1110 H1083 0.950 . S
C1110 C1096 1.377 . S
C1110 C1109 1.373 . S
C1111 C1095 1.377 . S
C1111 C1109 1.389 . S
C1111 C1112 1.524 . S
C1112 C1111 1.524 . S
C1112 C1113 1.397 . S
C1112 C1117 1.363 . S
C1113 H1084 0.950 . S
C1113 C1112 1.397 . S
C1113 C1114 1.334 . S
C1114 H1085 0.950 . S
C1114 C1113 1.334 . S
C1114 C1115 1.287 . S
C1115 C1114 1.287 . S
C1115 C1116 1.524 . S
C1115 H1118 0.999 . S
C1116 H1086 0.950 . S
C1116 C1115 1.524 . S
C1116 C1117 1.415 . S
C1117 H1087 0.950 . S
C1117 C1112 1.363 . S
C1117 C1116 1.415 . S
H1118 C1115 0.999 . S
H1119 C1100 0.913 . S
H1120 C1138 0.951 . S
H1121 C1140 0.951 . S
H1122 C1142 0.950 . S
H1123 C1143 0.950 . S
H1124 C1145 0.950 . S
H1125 C1148 0.950 . S
H1126 C1149 0.950 . S
H1127 C1151 0.950 . S
H1128 C1152 0.950 . S
H1129 C1153 0.951 . S
H1130 C1155 0.951 . S
H1131 C1157 0.950 . S
H1132 C1158 0.950 . S
H1133 C1160 0.950 . S
H1134 C1163 0.950 . S
H1135 C1164 0.950 . S
H1136 C1166 0.950 . S
H1137 C1167 0.950 . S
C1138 H1120 0.951 . S
C1138 C1139 1.366 . S
C1138 C1140 1.388 . S
C1139 C1138 1.366 . S
C1139 C1143 1.385 . S
C1140 H1121 0.951 . S
C1140 C1138 1.388 . S
C1140 C1141 1.366 . S
C1141 C1140 1.366 . S
C1141 C1142 1.414 . S
C1141 C1144 1.499 . S
C1142 H1122 0.950 . S
C1142 C1141 1.414 . S
C1142 C1143 1.374 . S
C1143 H1123 0.950 . S
C1143 C1139 1.385 . S
C1143 C1142 1.374 . S
C1144 C1141 1.499 . S
C1144 C1145 1.373 . S
C1144 C1146 1.389 . S
C1145 H1124 0.950 . S
C1145 C1144 1.373 . S
C1145 C1161 1.377 . S
C1146 C1144 1.389 . S
C1146 C1147 1.524 . S
C1146 C1160 1.377 . S
C1147 C1146 1.524 . S
C1147 C1148 1.397 . S
C1147 C1152 1.363 . S
C1148 H1125 0.950 . S
C1148 C1147 1.397 . S
C1148 C1149 1.334 . S
C1149 H1126 0.950 . S
C1149 C1148 1.334 . S
C1149 C1150 1.287 . S
C1150 C1149 1.287 . S
C1150 C1151 1.524 . S
C1150 H1169 0.913 . S
C1151 H1127 0.950 . S
C1151 C1150 1.524 . S
C1151 C1152 1.415 . S
C1152 H1128 0.950 . S
C1152 C1147 1.363 . S
C1152 C1151 1.415 . S
C1153 H1129 0.951 . S
C1153 C1154 1.366 . S
C1153 C1155 1.388 . S
C1154 C1153 1.366 . S
C1154 C1158 1.385 . S
C1155 H1130 0.951 . S
C1155 C1153 1.388 . S
C1155 C1156 1.366 . S
C1156 C1155 1.366 . S
C1156 C1157 1.414 . S
C1156 C1159 1.499 . S
C1157 H1131 0.950 . S
C1157 C1156 1.414 . S
C1157 C1158 1.374 . S
C1158 H1132 0.950 . S
C1158 C1154 1.385 . S
C1158 C1157 1.374 . S
C1159 C1156 1.499 . S
C1159 C1160 1.373 . S
C1159 C1161 1.389 . S
C1160 H1133 0.950 . S
C1160 C1146 1.377 . S
C1160 C1159 1.373 . S
C1161 C1145 1.377 . S
C1161 C1159 1.389 . S
C1161 C1162 1.524 . S
C1162 C1161 1.524 . S
C1162 C1163 1.397 . S
C1162 C1167 1.363 . S
C1163 H1134 0.950 . S
C1163 C1162 1.397 . S
C1163 C1164 1.334 . S
C1164 H1135 0.950 . S
C1164 C1163 1.334 . S
C1164 C1165 1.287 . S
C1165 C1164 1.287 . S
C1165 C1166 1.524 . S
C1165 H1168 0.999 . S
C1166 H1136 0.950 . S
C1166 C1165 1.524 . S
C1166 C1167 1.415 . S
C1167 H1137 0.950 . S
C1167 C1162 1.363 . S
C1167 C1166 1.415 . S
H1168 C1165 0.999 . S
H1169 C1150 0.913 . S
H1170 C1188 0.951 . S
H1171 C1190 0.951 . S
H1172 C1192 0.950 . S
H1173 C1193 0.950 . S
H1174 C1195 0.950 . S
H1175 C1198 0.950 . S
H1176 C1199 0.950 . S
H1177 C1201 0.950 . S
H1178 C1202 0.950 . S
H1179 C1203 0.951 . S
H1180 C1205 0.951 . S
H1181 C1207 0.950 . S
H1182 C1208 0.950 . S
H1183 C1210 0.950 . S
H1184 C1213 0.950 . S
H1185 C1214 0.950 . S
H1186 C1216 0.950 . S
H1187 C1217 0.950 . S
C1188 H1170 0.951 . S
C1188 C1189 1.366 . S
C1188 C1190 1.388 . S
C1189 C1188 1.366 . S
C1189 C1193 1.385 . S
C1190 H1171 0.951 . S
C1190 C1188 1.388 . S
C1190 C1191 1.366 . S
C1191 C1190 1.366 . S
C1191 C1192 1.414 . S
C1191 C1194 1.499 . S
C1192 H1172 0.950 . S
C1192 C1191 1.414 . S
C1192 C1193 1.374 . S
C1193 H1173 0.950 . S
C1193 C1189 1.385 . S
C1193 C1192 1.374 . S
C1194 C1191 1.499 . S
C1194 C1195 1.373 . S
C1194 C1196 1.389 . S
C1195 H1174 0.950 . S
C1195 C1194 1.373 . S
C1195 C1211 1.377 . S
C1196 C1194 1.389 . S
C1196 C1197 1.524 . S
C1196 C1210 1.377 . S
C1197 C1196 1.524 . S
C1197 C1198 1.397 . S
C1197 C1202 1.363 . S
C1198 H1175 0.950 . S
C1198 C1197 1.397 . S
C1198 C1199 1.334 . S
C1199 H1176 0.950 . S
C1199 C1198 1.334 . S
C1199 C1200 1.287 . S
C1200 C1199 1.287 . S
C1200 C1201 1.524 . S
C1200 H1219 0.913 . S
C1201 H1177 0.950 . S
C1201 C1200 1.524 . S
C1201 C1202 1.415 . S
C1202 H1178 0.950 . S
C1202 C1197 1.363 . S
C1202 C1201 1.415 . S
C1203 H1179 0.951 . S
C1203 C1204 1.366 . S
C1203 C1205 1.388 . S
C1204 C1203 1.366 . S
C1204 C1208 1.385 . S
C1205 H1180 0.951 . S
C1205 C1203 1.388 . S
C1205 C1206 1.366 . S
C1206 C1205 1.366 . S
C1206 C1207 1.414 . S
C1206 C1209 1.499 . S
C1207 H1181 0.950 . S
C1207 C1206 1.414 . S
C1207 C1208 1.374 . S
C1208 H1182 0.950 . S
C1208 C1204 1.385 . S
C1208 C1207 1.374 . S
C1209 C1206 1.499 . S
C1209 C1210 1.373 . S
C1209 C1211 1.389 . S
C1210 H1183 0.950 . S
C1210 C1196 1.377 . S
C1210 C1209 1.373 . S
C1211 C1195 1.377 . S
C1211 C1209 1.389 . S
C1211 C1212 1.524 . S
C1212 C1211 1.524 . S
C1212 C1213 1.397 . S
C1212 C1217 1.363 . S
C1213 H1184 0.950 . S
C1213 C1212 1.397 . S
C1213 C1214 1.334 . S
C1214 H1185 0.950 . S
C1214 C1213 1.334 . S
C1214 C1215 1.287 . S
C1215 C1214 1.287 . S
C1215 C1216 1.524 . S
C1215 H1218 0.999 . S
C1216 H1186 0.950 . S
C1216 C1215 1.524 . S
C1216 C1217 1.415 . S
C1217 H1187 0.950 . S
C1217 C1212 1.363 . S
C1217 C1216 1.415 . S
H1218 C1215 0.999 . S
H1219 C1200 0.913 . S
H1220 C1238 0.951 . S
H1221 C1240 0.951 . S
H1222 C1242 0.950 . S
H1223 C1243 0.950 . S
H1224 C1245 0.950 . S
H1225 C1248 0.950 . S
H1226 C1249 0.950 . S
H1227 C1251 0.950 . S
H1228 C1252 0.950 . S
H1229 C1253 0.951 . S
H1230 C1255 0.951 . S
H1231 C1257 0.950 . S
H1232 C1258 0.950 . S
H1233 C1260 0.950 . S
H1234 C1263 0.950 . S
H1235 C1264 0.950 . S
H1236 C1266 0.950 . S
H1237 C1267 0.950 . S
C1238 H1220 0.951 . S
C1238 C1239 1.366 . S
C1238 C1240 1.388 . S
C1239 C1238 1.366 . S
C1239 C1243 1.385 . S
C1240 H1221 0.951 . S
C1240 C1238 1.388 . S
C1240 C1241 1.366 . S
C1241 C1240 1.366 . S
C1241 C1242 1.414 . S
C1241 C1244 1.499 . S
C1242 H1222 0.950 . S
C1242 C1241 1.414 . S
C1242 C1243 1.374 . S
C1243 H1223 0.950 . S
C1243 C1239 1.385 . S
C1243 C1242 1.374 . S
C1244 C1241 1.499 . S
C1244 C1245 1.373 . S
C1244 C1246 1.389 . S
C1245 H1224 0.950 . S
C1245 C1244 1.373 . S
C1245 C1261 1.377 . S
C1246 C1244 1.389 . S
C1246 C1247 1.524 . S
C1246 C1260 1.377 . S
C1247 C1246 1.524 . S
C1247 C1248 1.397 . S
C1247 C1252 1.363 . S
C1248 H1225 0.950 . S
C1248 C1247 1.397 . S
C1248 C1249 1.334 . S
C1249 H1226 0.950 . S
C1249 C1248 1.334 . S
C1249 C1250 1.287 . S
C1250 C1249 1.287 . S
C1250 C1251 1.524 . S
C1250 H1269 0.913 . S
C1251 H1227 0.950 . S
C1251 C1250 1.524 . S
C1251 C1252 1.415 . S
C1252 H1228 0.950 . S
C1252 C1247 1.363 . S
C1252 C1251 1.415 . S
C1253 H1229 0.951 . S
C1253 C1254 1.366 . S
C1253 C1255 1.388 . S
C1254 C1253 1.366 . S
C1254 C1258 1.385 . S
C1255 H1230 0.951 . S
C1255 C1253 1.388 . S
C1255 C1256 1.366 . S
C1256 C1255 1.366 . S
C1256 C1257 1.414 . S
C1256 C1259 1.499 . S
C1257 H1231 0.950 . S
C1257 C1256 1.414 . S
C1257 C1258 1.374 . S
C1258 H1232 0.950 . S
C1258 C1254 1.385 . S
C1258 C1257 1.374 . S
C1259 C1256 1.499 . S
C1259 C1260 1.373 . S
C1259 C1261 1.389 . S
C1260 H1233 0.950 . S
C1260 C1246 1.377 . S
C1260 C1259 1.373 . S
C1261 C1245 1.377 . S
C1261 C1259 1.389 . S
C1261 C1262 1.524 . S
C1262 C1261 1.524 . S
C1262 C1263 1.397 . S
C1262 C1267 1.363 . S
C1263 H1234 0.950 . S
C1263 C1262 1.397 . S
C1263 C1264 1.334 . S
C1264 H1235 0.950 . S
C1264 C1263 1.334 . S
C1264 C1265 1.287 . S
C1265 C1264 1.287 . S
C1265 C1266 1.524 . S
C1265 H1268 0.999 . S
C1266 H1236 0.950 . S
C1266 C1265 1.524 . S
C1266 C1267 1.415 . S
C1267 H1237 0.950 . S
C1267 C1262 1.363 . S
C1267 C1266 1.415 . S
H1268 C1265 0.999 . S
H1269 C1250 0.913 . S
H1270 C1288 0.951 . S
H1271 C1290 0.951 . S
H1272 C1292 0.950 . S
H1273 C1293 0.950 . S
H1274 C1295 0.950 . S
H1275 C1298 0.950 . S
H1276 C1299 0.950 . S
H1277 C1301 0.950 . S
H1278 C1302 0.950 . S
H1279 C1303 0.951 . S
H1280 C1305 0.951 . S
H1281 C1307 0.950 . S
H1282 C1308 0.950 . S
H1283 C1310 0.950 . S
H1284 C1313 0.950 . S
H1285 C1314 0.950 . S
H1286 C1316 0.950 . S
H1287 C1317 0.950 . S
C1288 H1270 0.951 . S
C1288 C1289 1.366 . S
C1288 C1290 1.388 . S
C1289 C1288 1.366 . S
C1289 C1293 1.385 . S
C1290 H1271 0.951 . S
C1290 C1288 1.388 . S
C1290 C1291 1.366 . S
C1291 C1290 1.366 . S
C1291 C1292 1.414 . S
C1291 C1294 1.499 . S
C1292 H1272 0.950 . S
C1292 C1291 1.414 . S
C1292 C1293 1.374 . S
C1293 H1273 0.950 . S
C1293 C1289 1.385 . S
C1293 C1292 1.374 . S
C1294 C1291 1.499 . S
C1294 C1295 1.373 . S
C1294 C1296 1.389 . S
C1295 H1274 0.950 . S
C1295 C1294 1.373 . S
C1295 C1311 1.377 . S
C1296 C1294 1.389 . S
C1296 C1297 1.524 . S
C1296 C1310 1.377 . S
C1297 C1296 1.524 . S
C1297 C1298 1.397 . S
C1297 C1302 1.363 . S
C1298 H1275 0.950 . S
C1298 C1297 1.397 . S
C1298 C1299 1.334 . S
C1299 H1276 0.950 . S
C1299 C1298 1.334 . S
C1299 C1300 1.287 . S
C1300 C1299 1.287 . S
C1300 C1301 1.524 . S
C1300 H1319 0.913 . S
C1301 H1277 0.950 . S
C1301 C1300 1.524 . S
C1301 C1302 1.415 . S
C1302 H1278 0.950 . S
C1302 C1297 1.363 . S
C1302 C1301 1.415 . S
C1303 H1279 0.951 . S
C1303 C1304 1.366 . S
C1303 C1305 1.388 . S
C1304 C1303 1.366 . S
C1304 C1308 1.385 . S
C1305 H1280 0.951 . S
C1305 C1303 1.388 . S
C1305 C1306 1.366 . S
C1306 C1305 1.366 . S
C1306 C1307 1.414 . S
C1306 C1309 1.499 . S
C1307 H1281 0.950 . S
C1307 C1306 1.414 . S
C1307 C1308 1.374 . S
C1308 H1282 0.950 . S
C1308 C1304 1.385 . S
C1308 C1307 1.374 . S
C1309 C1306 1.499 . S
C1309 C1310 1.373 . S
C1309 C1311 1.389 . S
C1310 H1283 0.950 . S
C1310 C1296 1.377 . S
C1310 C1309 1.373 . S
C1311 C1295 1.377 . S
C1311 C1309 1.389 . S
C1311 C1312 1.524 . S
C1312 C1311 1.524 . S
C1312 C1313 1.397 . S
C1312 C1317 1.363 . S
C1313 H1284 0.950 . S
C1313 C1312 1.397 . S
C1313 C1314 1.334 . S
C1314 H1285 0.950 . S
C1314 C1313 1.334 . S
C1314 C1315 1.287 . S
C1315 C1314 1.287 . S
C1315 C1316 1.524 . S
C1315 H1318 0.999 . S
C1316 H1286 0.950 . S
C1316 C1315 1.524 . S
C1316 C1317 1.415 . S
C1317 H1287 0.950 . S
C1317 C1312 1.363 . S
C1317 C1316 1.415 . S
H1318 C1315 0.999 . S
H1319 C1300 0.913 . S
H1320 C1338 0.951 . S
H1321 C1340 0.951 . S
H1322 C1342 0.950 . S
H1323 C1343 0.950 . S
H1324 C1345 0.950 . S
H1325 C1348 0.950 . S
H1326 C1349 0.950 . S
H1327 C1351 0.950 . S
H1328 C1352 0.954 . S
H1329 C1353 0.951 . S
H1330 C1355 0.951 . S
H1331 C1357 0.950 . S
H1332 C1358 0.950 . S
H1333 C1360 0.950 . S
H1334 C1363 0.950 . S
H1335 C1364 0.950 . S
H1336 C1366 0.950 . S
H1337 C1367 0.954 . S
C1338 H1320 0.951 . S
C1338 C1339 1.366 . S
C1338 C1340 1.388 . S
C1339 C1338 1.366 . S
C1339 C1343 1.385 . S
C1340 H1321 0.951 . S
C1340 C1338 1.388 . S
C1340 C1341 1.366 . S
C1341 C1340 1.366 . S
C1341 C1342 1.414 . S
C1341 C1344 1.499 . S
C1342 H1322 0.950 . S
C1342 C1341 1.414 . S
C1342 C1343 1.374 . S
C1343 H1323 0.950 . S
C1343 C1339 1.385 . S
C1343 C1342 1.374 . S
C1344 C1341 1.499 . S
C1344 C1345 1.373 . S
C1344 C1346 1.389 . S
C1345 H1324 0.950 . S
C1345 C1344 1.373 . S
C1345 C1361 1.377 1_455 S
C1346 C1344 1.389 . S
C1346 C1347 1.524 . S
C1346 C1360 1.377 1_455 S
C1347 C1346 1.524 . S
C1347 C1348 1.397 . S
C1347 C1352 1.363 . S
C1348 H1325 0.950 . S
C1348 C1347 1.397 . S
C1348 C1349 1.334 . S
C1349 H1326 0.950 . S
C1349 C1348 1.334 . S
C1349 C1350 1.287 . S
C1350 C1349 1.287 . S
C1350 C1351 1.524 . S
C1350 H1369 0.913 . S
C1351 H1327 0.950 . S
C1351 C1350 1.524 . S
C1351 C1352 1.415 . S
C1352 H1328 0.954 . S
C1352 C1347 1.363 . S
C1352 C1351 1.415 . S
C1353 H1329 0.951 . S
C1353 C1354 1.366 . S
C1353 C1355 1.388 . S
C1354 C1353 1.366 . S
C1354 C1358 1.385 . S
C1355 H1330 0.951 . S
C1355 C1353 1.388 . S
C1355 C1356 1.366 . S
C1356 C1355 1.366 . S
C1356 C1357 1.414 . S
C1356 C1359 1.499 . S
C1357 H1331 0.950 . S
C1357 C1356 1.414 . S
C1357 C1358 1.374 . S
C1358 H1332 0.950 . S
C1358 C1354 1.385 . S
C1358 C1357 1.374 . S
C1359 C1356 1.499 . S
C1359 C1360 1.373 . S
C1359 C1361 1.389 . S
C1360 H1333 0.950 . S
C1360 C1346 1.377 1_655 S
C1360 C1359 1.373 . S
C1361 C1345 1.377 1_655 S
C1361 C1359 1.389 . S
C1361 C1362 1.524 . S
C1362 C1361 1.524 . S
C1362 C1363 1.397 . S
C1362 C1367 1.363 . S
C1363 H1334 0.950 . S
C1363 C1362 1.397 . S
C1363 C1364 1.334 . S
C1364 H1335 0.950 . S
C1364 C1363 1.334 . S
C1364 C1365 1.287 . S
C1365 C1364 1.287 . S
C1365 C1366 1.524 . S
C1365 H1368 0.999 . S
C1366 H1336 0.950 . S
C1366 C1365 1.524 . S
C1366 C1367 1.415 . S
C1367 H1337 0.954 . S
C1367 C1362 1.363 . S
C1367 C1366 1.415 . S
H1368 C1365 0.999 . S
H1369 C1350 0.913 . S
H1370 C1388 0.951 . S
H1371 C1390 0.951 . S
H1372 C1392 0.950 . S
H1373 C1393 0.950 . S
H1374 C1395 0.950 . S
H1375 C1398 0.950 . S
H1376 C1399 0.950 . S
H1377 C1401 0.950 . S
H1378 C1402 1.015 . S
H1379 C1403 0.951 . S
H1380 C1405 0.951 . S
H1381 C1407 0.950 . S
H1382 C1408 0.950 . S
H1383 C1410 0.950 . S
H1384 C1413 0.950 . S
H1385 C1414 0.950 . S
H1386 C1416 0.950 . S
H1387 C1417 1.015 . S
C1388 H1370 0.951 . S
C1388 C1389 1.366 . S
C1388 C1390 1.388 . S
C1389 C1388 1.366 . S
C1389 C1393 1.385 . S
C1390 H1371 0.951 . S
C1390 C1388 1.388 . S
C1390 C1391 1.366 . S
C1391 C1390 1.366 . S
C1391 C1392 1.414 . S
C1391 C1394 1.499 . S
C1392 H1372 0.950 . S
C1392 C1391 1.414 . S
C1392 C1393 1.374 . S
C1393 H1373 0.950 . S
C1393 C1389 1.385 . S
C1393 C1392 1.374 . S
C1394 C1391 1.499 . S
C1394 C1395 1.373 . S
C1394 C1396 1.389 . S
C1395 H1374 0.950 . S
C1395 C1394 1.373 . S
C1395 C1411 1.377 1_655 S
C1396 C1394 1.389 . S
C1396 C1397 1.524 . S
C1396 C1410 1.377 1_655 S
C1397 C1396 1.524 . S
C1397 C1398 1.397 . S
C1397 C1402 1.363 . S
C1398 H1375 0.950 . S
C1398 C1397 1.397 . S
C1398 C1399 1.334 . S
C1399 H1376 0.950 . S
C1399 C1398 1.334 . S
C1399 C1400 1.287 . S
C1400 C1399 1.287 . S
C1400 C1401 1.524 . S
C1400 H1419 0.913 . S
C1401 H1377 0.950 . S
C1401 C1400 1.524 . S
C1401 C1402 1.415 . S
C1402 H1378 1.015 . S
C1402 C1397 1.363 . S
C1402 C1401 1.415 . S
C1403 H1379 0.951 . S
C1403 C1404 1.366 . S
C1403 C1405 1.388 . S
C1404 C1403 1.366 . S
C1404 C1408 1.385 . S
C1405 H1380 0.951 . S
C1405 C1403 1.388 . S
C1405 C1406 1.366 . S
C1406 C1405 1.366 . S
C1406 C1407 1.414 . S
C1406 C1409 1.499 . S
C1407 H1381 0.950 . S
C1407 C1406 1.414 . S
C1407 C1408 1.374 . S
C1408 H1382 0.950 . S
C1408 C1404 1.385 . S
C1408 C1407 1.374 . S
C1409 C1406 1.499 . S
C1409 C1410 1.373 . S
C1409 C1411 1.389 . S
C1410 H1383 0.950 . S
C1410 C1396 1.377 1_455 S
C1410 C1409 1.373 . S
C1411 C1395 1.377 1_455 S
C1411 C1409 1.389 . S
C1411 C1412 1.524 . S
C1412 C1411 1.524 . S
C1412 C1413 1.397 . S
C1412 C1417 1.363 . S
C1413 H1384 0.950 . S
C1413 C1412 1.397 . S
C1413 C1414 1.334 . S
C1414 H1385 0.950 . S
C1414 C1413 1.334 . S
C1414 C1415 1.287 . S
C1415 C1414 1.287 . S
C1415 C1416 1.524 . S
C1415 H1418 0.999 . S
C1416 H1386 0.950 . S
C1416 C1415 1.524 . S
C1416 C1417 1.415 . S
C1417 H1387 1.015 . S
C1417 C1412 1.363 . S
C1417 C1416 1.415 . S
H1418 C1415 0.999 . S
H1419 C1400 0.913 . S
H1420 C1438 0.951 . S
H1421 C1440 0.951 . S
H1422 C1442 0.950 . S
H1423 C1443 0.950 . S
H1424 C1445 0.950 . S
H1425 C1448 0.950 . S
H1426 C1449 0.950 . S
H1427 C1451 0.950 . S
H1428 C1452 0.950 . S
H1429 C1453 0.951 . S
H1430 C1455 0.951 . S
H1431 C1457 0.950 . S
H1432 C1458 0.950 . S
H1433 C1460 0.950 . S
H1434 C1463 0.950 . S
H1435 C1464 0.950 . S
H1436 C1466 0.950 . S
H1437 C1467 0.950 . S
C1438 H1420 0.951 . S
C1438 C1439 1.366 . S
C1438 C1440 1.388 . S
C1439 C1438 1.366 . S
C1439 C1443 1.385 . S
C1440 H1421 0.951 . S
C1440 C1438 1.388 . S
C1440 C1441 1.366 . S
C1441 C1440 1.366 . S
C1441 C1442 1.414 . S
C1441 C1444 1.499 . S
C1442 H1422 0.950 . S
C1442 C1441 1.414 . S
C1442 C1443 1.374 . S
C1443 H1423 0.950 . S
C1443 C1439 1.385 . S
C1443 C1442 1.374 . S
C1444 C1441 1.499 . S
C1444 C1445 1.373 . S
C1444 C1446 1.389 . S
C1445 H1424 0.950 . S
C1445 C1444 1.373 . S
C1445 C1461 1.377 . S
C1446 C1444 1.389 . S
C1446 C1447 1.524 . S
C1446 C1460 1.377 . S
C1447 C1446 1.524 . S
C1447 C1448 1.397 . S
C1447 C1452 1.363 . S
C1448 H1425 0.950 . S
C1448 C1447 1.397 . S
C1448 C1449 1.334 . S
C1449 H1426 0.950 . S
C1449 C1448 1.334 . S
C1449 C1450 1.287 . S
C1450 C1449 1.287 . S
C1450 C1451 1.524 . S
C1450 H1469 0.913 . S
C1451 H1427 0.950 . S
C1451 C1450 1.524 . S
C1451 C1452 1.415 . S
C1452 H1428 0.950 . S
C1452 C1447 1.363 . S
C1452 C1451 1.415 . S
C1453 H1429 0.951 . S
C1453 C1454 1.366 . S
C1453 C1455 1.388 . S
C1454 C1453 1.366 . S
C1454 C1458 1.385 . S
C1455 H1430 0.951 . S
C1455 C1453 1.388 . S
C1455 C1456 1.366 . S
C1456 C1455 1.366 . S
C1456 C1457 1.414 . S
C1456 C1459 1.499 . S
C1457 H1431 0.950 . S
C1457 C1456 1.414 . S
C1457 C1458 1.374 . S
C1458 H1432 0.950 . S
C1458 C1454 1.385 . S
C1458 C1457 1.374 . S
C1459 C1456 1.499 . S
C1459 C1460 1.373 . S
C1459 C1461 1.389 . S
C1460 H1433 0.950 . S
C1460 C1446 1.377 . S
C1460 C1459 1.373 . S
C1461 C1445 1.377 . S
C1461 C1459 1.389 . S
C1461 C1462 1.524 . S
C1462 C1461 1.524 . S
C1462 C1463 1.397 . S
C1462 C1467 1.363 . S
C1463 H1434 0.950 . S
C1463 C1462 1.397 . S
C1463 C1464 1.334 1_556 S
C1464 H1435 0.950 . S
C1464 C1463 1.334 1_554 S
C1464 C1465 1.287 . S
C1465 C1464 1.287 . S
C1465 C1466 1.524 1_554 S
C1465 H1468 0.999 . S
C1466 H1436 0.950 . S
C1466 C1465 1.524 1_556 S
C1466 C1467 1.415 . S
C1467 H1437 0.950 . S
C1467 C1462 1.363 . S
C1467 C1466 1.415 . S
H1468 C1465 0.999 . S
H1469 C1450 0.913 . S
H1470 C1488 0.951 . S
H1471 C1490 0.951 . S
H1472 C1492 0.950 . S
H1473 C1493 0.950 . S
H1474 C1495 0.950 . S
H1475 C1498 0.950 . S
H1476 C1499 0.950 . S
H1477 C1501 0.950 . S
H1478 C1502 0.950 . S
H1479 C1503 0.951 . S
H1480 C1505 0.951 . S
H1481 C1507 0.950 . S
H1482 C1508 0.950 . S
H1483 C1510 0.950 . S
H1484 C1513 0.950 . S
H1485 C1514 0.950 . S
H1486 C1516 0.950 . S
H1487 C1517 0.950 . S
C1488 H1470 0.951 . S
C1488 C1489 1.366 . S
C1488 C1490 1.388 . S
C1489 C1488 1.366 . S
C1489 C1493 1.385 . S
C1490 H1471 0.951 . S
C1490 C1488 1.388 . S
C1490 C1491 1.366 . S
C1491 C1490 1.366 . S
C1491 C1492 1.414 . S
C1491 C1494 1.499 . S
C1492 H1472 0.950 . S
C1492 C1491 1.414 . S
C1492 C1493 1.374 . S
C1493 H1473 0.950 . S
C1493 C1489 1.385 . S
C1493 C1492 1.374 . S
C1494 C1491 1.499 . S
C1494 C1495 1.373 . S
C1494 C1496 1.389 . S
C1495 H1474 0.950 . S
C1495 C1494 1.373 . S
C1495 C1511 1.377 . S
C1496 C1494 1.389 . S
C1496 C1497 1.524 . S
C1496 C1510 1.377 . S
C1497 C1496 1.524 . S
C1497 C1498 1.397 . S
C1497 C1502 1.363 . S
C1498 H1475 0.950 . S
C1498 C1497 1.397 . S
C1498 C1499 1.334 . S
C1499 H1476 0.950 . S
C1499 C1498 1.334 . S
C1499 C1500 1.287 . S
C1500 C1499 1.287 . S
C1500 C1501 1.524 . S
C1500 H1519 0.913 . S
C1501 H1477 0.950 . S
C1501 C1500 1.524 . S
C1501 C1502 1.415 . S
C1502 H1478 0.950 . S
C1502 C1497 1.363 . S
C1502 C1501 1.415 . S
C1503 H1479 0.951 . S
C1503 C1504 1.366 . S
C1503 C1505 1.388 . S
C1504 C1503 1.366 . S
C1504 C1508 1.385 . S
C1505 H1480 0.951 . S
C1505 C1503 1.388 . S
C1505 C1506 1.366 . S
C1506 C1505 1.366 . S
C1506 C1507 1.414 . S
C1506 C1509 1.499 . S
C1507 H1481 0.950 . S
C1507 C1506 1.414 . S
C1507 C1508 1.374 . S
C1508 H1482 0.950 . S
C1508 C1504 1.385 . S
C1508 C1507 1.374 . S
C1509 C1506 1.499 . S
C1509 C1510 1.373 . S
C1509 C1511 1.389 . S
C1510 H1483 0.950 . S
C1510 C1496 1.377 . S
C1510 C1509 1.373 . S
C1511 C1495 1.377 . S
C1511 C1509 1.389 . S
C1511 C1512 1.524 . S
C1512 C1511 1.524 . S
C1512 C1513 1.397 . S
C1512 C1517 1.363 . S
C1513 H1484 0.950 . S
C1513 C1512 1.397 . S
C1513 C1514 1.334 . S
C1514 H1485 0.950 . S
C1514 C1513 1.334 . S
C1514 C1515 1.287 . S
C1515 C1514 1.287 . S
C1515 C1516 1.524 1_554 S
C1515 H1518 0.999 1_554 S
C1516 H1486 0.950 . S
C1516 C1515 1.524 1_556 S
C1516 C1517 1.415 1_556 S
C1517 H1487 0.950 . S
C1517 C1512 1.363 . S
C1517 C1516 1.415 1_554 S
H1518 C1515 0.999 1_556 S
H1519 C1500 0.913 . S
C339 C6 1.704 . S
C354 C295 1.703 . S
C389 C255 1.704 . S
C404 C46 1.703 . S
C439 C206 1.704 . S
C454 C95 1.703 . S
C489 C166 1.704 . S
C504 C135 1.703 . S
C539 C89 1.529 . S
C554 C9 1.541 . S
C589 C49 1.541 . S
C604 C129 1.528 . S
C639 C138 1.541 . S
C654 C58 1.528 . S
C689 C98 1.541 . S
C704 C18 1.529 . S
C739 C169 1.442 . S
C754 C249 1.442 . S
C789 C209 1.442 . S
C804 C289 1.442 . S
C839 C298 1.442 . S
C854 C218 1.442 . S
C889 C258 1.442 . S
C904 C178 1.442 . S
C939 C19 2.068 . S
C954 C10 2.068 . S
C989 C59 2.068 . S
C1004 C50 2.068 . S
C1039 C99 2.068 . S
C1054 C90 2.068 . S
C1089 C130 2.068 . S
C1104 C139 2.068 . S
C1139 C170 2.068 . S
C1154 C179 2.068 . S
C1189 C219 2.067 . S
C1204 C210 2.067 . S
C1239 C250 2.068 . S
C1254 C259 2.068 . S
C1289 C290 2.068 . S
C1304 C299 2.068 . S
C1339 C15 2.375 . S
C1354 C55 2.375 . S
C1389 C126 2.375 . S
C1404 C86 2.375 . S
C1439 C175 2.376 . S
C1454 C215 2.376 . S
C1489 C286 2.376 . S
C1504 C246 2.376 . S
