# Generated by pormake.
# Topology cag, (4)-cn, num edge types: 1
# Building blocks:
#     Node 0, Type 0, BuildingBlock: QUQFOY_clean_sbu_3, # of connection points: 4
#     Node 1, Type 0, BuildingBlock: QUQFOY_clean_sbu_3, # of connection points: 4
#     Node 2, Type 0, BuildingBlock: QUQFOY_clean_sbu_3, # of connection points: 4
#     Node 3, Type 0, BuildingBlock: QUQFOY_clean_sbu_3, # of connection points: 4
#     Node 4, Type 0, BuildingBlock: QUQFOY_clean_sbu_3, # of connection points: 4
#     Node 5, Type 0, BuildingBlock: QUQFOY_clean_sbu_3, # of connection points: 4
#     Node 6, Type 0, BuildingBlock: QUQFOY_clean_sbu_3, # of connection points: 4
#     Node 7, Type 0, BuildingBlock: QUQFOY_clean_sbu_3, # of connection points: 4
#     Node 8, Type 0, BuildingBlock: QUQFOY_clean_sbu_3, # of connection points: 4
#     Node 9, Type 0, BuildingBlock: QUQFOY_clean_sbu_3, # of connection points: 4
#     Node 10, Type 0, BuildingBlock: QUQFOY_clean_sbu_3, # of connection points: 4
#     Node 11, Type 0, BuildingBlock: QUQFOY_clean_sbu_3, # of connection points: 4
#     Node 12, Type 0, BuildingBlock: QUQFOY_clean_sbu_3, # of connection points: 4
#     Node 13, Type 0, BuildingBlock: QUQFOY_clean_sbu_3, # of connection points: 4
#     Node 14, Type 0, BuildingBlock: QUQFOY_clean_sbu_3, # of connection points: 4
#     Node 15, Type 0, BuildingBlock: QUQFOY_clean_sbu_3, # of connection points: 4
#     Edge 16, Type (0, 0), BuildingBlock: KIFKEQ_clean_linker_1, # of connection points: 2
#     Edge 17, Type (0, 0), BuildingBlock: KIFKEQ_clean_linker_1, # of connection points: 2
#     Edge 18, Type (0, 0), BuildingBlock: KIFKEQ_clean_linker_1, # of connection points: 2
#     Edge 19, Type (0, 0), BuildingBlock: KIFKEQ_clean_linker_1, # of connection points: 2
#     Edge 20, Type (0, 0), BuildingBlock: KIFKEQ_clean_linker_1, # of connection points: 2
#     Edge 21, Type (0, 0), BuildingBlock: KIFKEQ_clean_linker_1, # of connection points: 2
#     Edge 22, Type (0, 0), BuildingBlock: KIFKEQ_clean_linker_1, # of connection points: 2
#     Edge 23, Type (0, 0), BuildingBlock: KIFKEQ_clean_linker_1, # of connection points: 2
#     Edge 24, Type (0, 0), BuildingBlock: KIFKEQ_clean_linker_1, # of connection points: 2
#     Edge 25, Type (0, 0), BuildingBlock: KIFKEQ_clean_linker_1, # of connection points: 2
#     Edge 26, Type (0, 0), BuildingBlock: KIFKEQ_clean_linker_1, # of connection points: 2
#     Edge 27, Type (0, 0), BuildingBlock: KIFKEQ_clean_linker_1, # of connection points: 2
#     Edge 28, Type (0, 0), BuildingBlock: KIFKEQ_clean_linker_1, # of connection points: 2
#     Edge 29, Type (0, 0), BuildingBlock: KIFKEQ_clean_linker_1, # of connection points: 2
#     Edge 30, Type (0, 0), BuildingBlock: KIFKEQ_clean_linker_1, # of connection points: 2
#     Edge 31, Type (0, 0), BuildingBlock: KIFKEQ_clean_linker_1, # of connection points: 2
#     Edge 32, Type (0, 0), BuildingBlock: KIFKEQ_clean_linker_1, # of connection points: 2
#     Edge 33, Type (0, 0), BuildingBlock: KIFKEQ_clean_linker_1, # of connection points: 2
#     Edge 34, Type (0, 0), BuildingBlock: KIFKEQ_clean_linker_1, # of connection points: 2
#     Edge 35, Type (0, 0), BuildingBlock: KIFKEQ_clean_linker_1, # of connection points: 2
#     Edge 36, Type (0, 0), BuildingBlock: KIFKEQ_clean_linker_1, # of connection points: 2
#     Edge 37, Type (0, 0), BuildingBlock: KIFKEQ_clean_linker_1, # of connection points: 2
#     Edge 38, Type (0, 0), BuildingBlock: KIFKEQ_clean_linker_1, # of connection points: 2
#     Edge 39, Type (0, 0), BuildingBlock: KIFKEQ_clean_linker_1, # of connection points: 2
#     Edge 40, Type (0, 0), BuildingBlock: KIFKEQ_clean_linker_1, # of connection points: 2
#     Edge 41, Type (0, 0), BuildingBlock: KIFKEQ_clean_linker_1, # of connection points: 2
#     Edge 42, Type (0, 0), BuildingBlock: KIFKEQ_clean_linker_1, # of connection points: 2
#     Edge 43, Type (0, 0), BuildingBlock: KIFKEQ_clean_linker_1, # of connection points: 2
#     Edge 44, Type (0, 0), BuildingBlock: KIFKEQ_clean_linker_1, # of connection points: 2
#     Edge 45, Type (0, 0), BuildingBlock: KIFKEQ_clean_linker_1, # of connection points: 2
#     Edge 46, Type (0, 0), BuildingBlock: KIFKEQ_clean_linker_1, # of connection points: 2
#     Edge 47, Type (0, 0), BuildingBlock: KIFKEQ_clean_linker_1, # of connection points: 2
# Relax obj value: 0.110
# Max RMSD: 0.144
# Mean RMSD: 0.144
data_MOF--net-cag--node1-QUQFOY_clean_sbu_3--edge1-KIFKEQ_clean_linker_1
_symmetry_space_group_name_H-M    P1
_symmetry_Int_Tables_number       1
_symmetry_cell_setting            triclinic
loop_
_symmetry_equiv_pos_as_xyz
'x, y, z'
_cell_length_a     45.856654
_cell_length_b     51.848055
_cell_length_c     43.505891
_cell_angle_alpha  90.030092
_cell_angle_beta   89.836948
_cell_angle_gamma 89.979527
loop_
_atom_site_label
_atom_site_type_symbol
_atom_site_fract_x
_atom_site_fract_y
_atom_site_fract_z
_atom_type_partial_charge
C0 C 0.35061 0.13964 0.04785 0.0
O1 O 0.34662 0.14693 0.02032 0.0
Cd2 Cd 0.29892 0.14904 -0.00167 0.0
O3 O 0.32901 0.1348 0.06542 0.0
Cd4 Cd 0.27486 0.13703 0.06501 0.0
C5 C 0.27366 0.08792 0.01396 0.0
O6 O 0.27207 0.17562 0.03374 0.0
O7 O 0.23105 0.15651 0.04202 0.0
O8 O 0.28144 0.15291 0.11723 0.0
C9 C 0.24459 0.17573 0.03105 0.0
O10 O 0.28268 0.10395 -0.0061 0.0
C11 C 0.26124 0.13933 0.12892 0.0
O12 O 0.26991 0.09487 0.04172 0.0
O13 O 0.24712 0.12478 0.11079 0.0
C14 C 0.12972 0.83862 0.54621 0.0
O15 O 0.13372 0.83289 0.51811 0.0
Cd16 Cd 0.1811 0.83274 0.49435 0.0
O17 O 0.15125 0.84316 0.56384 0.0
Cd18 Cd 0.20523 0.84307 0.56258 0.0
C19 C 0.20523 0.89349 0.51251 0.0
O20 O 0.21024 0.80675 0.52787 0.0
O21 O 0.25053 0.82534 0.5406 0.0
O22 O 0.20425 0.82368 0.61369 0.0
C23 C 0.23778 0.80748 0.52596 0.0
O24 O 0.19627 0.87806 0.4918 0.0
C25 C 0.21964 0.84113 0.62617 0.0
O26 O 0.20928 0.88568 0.53987 0.0
O27 O 0.22857 0.85925 0.60892 0.0
C28 C 0.35036 0.8421 0.93325 0.0
O29 O 0.34632 0.83858 0.96186 0.0
Cd30 Cd 0.299 0.83788 0.98587 0.0
O31 O 0.32876 0.84524 0.91528 0.0
Cd32 Cd 0.27488 0.84674 0.91702 0.0
C33 C 0.27506 0.89817 0.96608 0.0
O34 O 0.26983 0.81128 0.95301 0.0
O35 O 0.22963 0.82957 0.93916 0.0
O36 O 0.27541 0.82624 0.86654 0.0
C37 C 0.24225 0.81207 0.95449 0.0
O38 O 0.28338 0.88293 0.98726 0.0
C39 C 0.26031 0.84362 0.85354 0.0
O40 O 0.27154 0.89003 0.93874 0.0
O41 O 0.25175 0.86226 0.87023 0.0
C42 C 0.12904 0.13748 0.43637 0.0
O43 O 0.13301 0.14166 0.46482 0.0
Cd44 Cd 0.18066 0.14402 0.48697 0.0
O45 O 0.15073 0.13459 0.41831 0.0
Cd46 Cd 0.20482 0.13493 0.41967 0.0
C47 C 0.20589 0.08383 0.46826 0.0
O48 O 0.20712 0.17229 0.45304 0.0
O49 O 0.24847 0.15418 0.44336 0.0
O50 O 0.19872 0.15184 0.36782 0.0
C51 C 0.23462 0.17274 0.45549 0.0
O52 O 0.1975 0.0992 0.48935 0.0
C53 C 0.2191 0.13853 0.35599 0.0
O54 O 0.20904 0.09175 0.4408 0.0
O55 O 0.23314 0.12375 0.37389 0.0
C56 C 0.55652 0.86848 0.86071 0.0
O57 O 0.56218 0.88722 0.84286 0.0
Cd58 Cd 0.61078 0.90359 0.8348 0.0
O59 O 0.57699 0.85698 0.87491 0.0
Cd60 Cd 0.63041 0.85959 0.88023 0.0
C61 C 0.62729 0.92086 0.90824 0.0
O62 O 0.64276 0.86737 0.82628 0.0
O63 O 0.67828 0.86942 0.85881 0.0
O64 O 0.6359 0.81273 0.88385 0.0
C65 C 0.66992 0.86976 0.83107 0.0
O66 O 0.62172 0.92848 0.88107 0.0
C67 C 0.64537 0.81313 0.91125 0.0
O68 O 0.63026 0.89697 0.91403 0.0
O69 O 0.64761 0.83503 0.92408 0.0
C70 C 0.92299 0.11235 0.36342 0.0
O71 O 0.91761 0.09464 0.34409 0.0
Cd72 Cd 0.86928 0.07865 0.33494 0.0
O73 O 0.9023 0.12301 0.37833 0.0
Cd74 Cd 0.84863 0.11945 0.38191 0.0
C75 C 0.85336 0.05777 0.40702 0.0
O76 O 0.83728 0.11516 0.32719 0.0
O77 O 0.8021 0.10727 0.35885 0.0
O78 O 0.84459 0.16606 0.39165 0.0
C79 C 0.81036 0.11073 0.33135 0.0
O80 O 0.85838 0.05106 0.37936 0.0
C81 C 0.82996 0.16326 0.41628 0.0
O82 O 0.85056 0.08144 0.41398 0.0
O83 O 0.82448 0.14032 0.42462 0.0
C84 C 0.55685 0.10826 0.1183 0.0
O85 O 0.56115 0.09249 0.14012 0.0
Cd86 Cd 0.60902 0.07551 0.14994 0.0
O87 O 0.57822 0.11704 0.10277 0.0
Cd88 Cd 0.63201 0.11415 0.10241 0.0
C89 C 0.62739 0.05222 0.07918 0.0
O90 O 0.64197 0.11142 0.15767 0.0
O91 O 0.67755 0.10182 0.12713 0.0
O92 O 0.63573 0.16062 0.09212 0.0
C93 C 0.66887 0.1064 0.15426 0.0
O94 O 0.62034 0.0464 0.10665 0.0
C95 C 0.65126 0.15778 0.06812 0.0
O96 O 0.63154 0.07558 0.07165 0.0
O97 O 0.65748 0.13483 0.06034 0.0
C98 C 0.92331 0.86894 0.61729 0.0
O99 O 0.91911 0.88543 0.63844 0.0
Cd100 Cd 0.87158 0.90352 0.64825 0.0
O101 O 0.90194 0.85994 0.60206 0.0
Cd102 Cd 0.84828 0.86342 0.60106 0.0
C103 C 0.85385 0.92528 0.57674 0.0
O104 O 0.83825 0.86808 0.65638 0.0
O105 O 0.80202 0.87382 0.62545 0.0
O106 O 0.84468 0.81691 0.59108 0.0
C107 C 0.8111 0.87175 0.6528 0.0
O108 O 0.86092 0.9315 0.60404 0.0
C109 C 0.82942 0.81968 0.56695 0.0
O110 O 0.84924 0.90184 0.56978 0.0
O111 O 0.82343 0.8426 0.55893 0.0
C112 C 0.84757 0.64 0.04579 0.0
O113 O 0.84359 0.64286 0.0171 0.0
Cd114 Cd 0.79612 0.64228 -0.00634 0.0
O115 O 0.82598 0.63672 0.06384 0.0
Cd116 Cd 0.77228 0.63385 0.06259 0.0
C117 C 0.77348 0.5819 0.0143 0.0
O118 O 0.76642 0.66888 0.02633 0.0
O119 O 0.72649 0.6505 0.04094 0.0
O120 O 0.77291 0.65454 0.11296 0.0
C121 C 0.73887 0.66788 0.0251 0.0
O122 O 0.78155 0.59698 -0.00718 0.0
C123 C 0.75838 0.63696 0.12635 0.0
O124 O 0.76976 0.59033 0.0415 0.0
O125 O 0.74992 0.61817 0.10989 0.0
C126 C 0.62552 0.34066 0.54947 0.0
O127 O 0.62976 0.33671 0.52099 0.0
Cd128 Cd 0.67724 0.33488 0.4979 0.0
O129 O 0.647 0.34389 0.56759 0.0
Cd130 Cd 0.70099 0.34527 0.56554 0.0
C131 C 0.70231 0.39528 0.51469 0.0
O132 O 0.70552 0.30848 0.53201 0.0
O133 O 0.74586 0.32852 0.54124 0.0
O134 O 0.70659 0.32402 0.61535 0.0
C135 C 0.733 0.30937 0.52915 0.0
O136 O 0.69352 0.37972 0.49405 0.0
C137 C 0.71664 0.34376 0.62891 0.0
O138 O 0.70571 0.3877 0.54224 0.0
O139 O 0.71981 0.36405 0.61296 0.0
C140 C 0.85259 0.33779 0.93495 0.0
O141 O 0.8485 0.33369 0.96343 0.0
Cd142 Cd 0.80119 0.33118 0.98681 0.0
O143 O 0.83099 0.34087 0.91694 0.0
Cd144 Cd 0.777 0.34177 0.91926 0.0
C145 C 0.77534 0.3914 0.97085 0.0
O146 O 0.77326 0.30471 0.95239 0.0
O147 O 0.73247 0.32405 0.94322 0.0
O148 O 0.77145 0.32139 0.86885 0.0
C149 C 0.74577 0.30511 0.95523 0.0
O150 O 0.78448 0.37589 -0.00865 0.0
C151 C 0.7611 0.34132 0.85594 0.0
O152 O 0.77183 0.38385 0.94329 0.0
O153 O 0.75772 0.36124 0.87252 0.0
C154 C 0.62867 0.63931 0.43216 0.0
O155 O 0.63203 0.64368 0.46066 0.0
Cd156 Cd 0.67902 0.64559 0.48455 0.0
O157 O 0.65072 0.636 0.41471 0.0
Cd158 Cd 0.70465 0.63561 0.41775 0.0
C159 C 0.70408 0.5851 0.46755 0.0
O160 O 0.70763 0.67268 0.45128 0.0
O161 O 0.74855 0.65341 0.44249 0.0
O162 O 0.70455 0.65531 0.3669 0.0
C163 C 0.73507 0.67229 0.45445 0.0
O164 O 0.6952 0.60068 0.48818 0.0
C165 C 0.72067 0.63831 0.35449 0.0
O166 O 0.70803 0.59275 0.44008 0.0
O167 O 0.72977 0.62026 0.3717 0.0
C168 C 0.05793 0.37236 0.86491 0.0
O169 O 0.06265 0.3906 0.84605 0.0
Cd170 Cd 0.11025 0.40827 0.83601 0.0
O171 O 0.07895 0.36208 0.87956 0.0
Cd172 Cd 0.13232 0.36696 0.88384 0.0
C173 C 0.12658 0.42932 0.90788 0.0
O174 O 0.14272 0.37213 0.82892 0.0
O175 O 0.17919 0.37623 0.85986 0.0
O176 O 0.13611 0.32056 0.8943 0.0
C177 C 0.16994 0.37515 0.8325 0.0
O178 O 0.12072 0.43578 0.88036 0.0
C179 C 0.15074 0.32354 0.91883 0.0
O180 O 0.13029 0.40577 0.91491 0.0
O181 O 0.15628 0.34654 0.9269 0.0
C182 C 0.42416 0.6119 0.3564 0.0
O183 O 0.41896 0.59353 0.33792 0.0
Cd184 Cd 0.37055 0.5773 0.32933 0.0
O185 O 0.40337 0.62287 0.3708 0.0
Cd186 Cd 0.34989 0.61918 0.37517 0.0
C187 C 0.35328 0.55774 0.40163 0.0
O188 O 0.33806 0.61336 0.32093 0.0
O189 O 0.30315 0.60632 0.35333 0.0
O190 O 0.34174 0.66573 0.38 0.0
C191 C 0.31117 0.60906 0.32561 0.0
O192 O 0.35915 0.55061 0.3743 0.0
C193 C 0.33239 0.66448 0.40746 0.0
O194 O 0.35026 0.58151 0.408 0.0
O195 O 0.33137 0.64231 0.41973 0.0
C196 C 0.05279 0.61726 0.12131 0.0
O197 O 0.05787 0.59927 0.14035 0.0
Cd198 Cd 0.10596 0.58256 0.14938 0.0
O199 O 0.07367 0.62783 0.10666 0.0
Cd200 Cd 0.12721 0.62387 0.10287 0.0
C201 C 0.12301 0.56231 0.07712 0.0
O202 O 0.13911 0.61813 0.15713 0.0
O203 O 0.17364 0.61006 0.12461 0.0
O204 O 0.13589 0.67032 0.09831 0.0
C205 C 0.16582 0.6131 0.15236 0.0
O206 O 0.11708 0.55558 0.10457 0.0
C207 C 0.14555 0.66905 0.07096 0.0
O208 O 0.12632 0.58597 0.07033 0.0
O209 O 0.14644 0.6469 0.05858 0.0
C210 C 0.41942 0.37281 0.61873 0.0
O211 O 0.41439 0.39132 0.63715 0.0
Cd212 Cd 0.36653 0.40862 0.64671 0.0
O213 O 0.39858 0.36201 0.60434 0.0
Cd214 Cd 0.34512 0.36621 0.60008 0.0
C215 C 0.34997 0.4281 0.57431 0.0
O216 O 0.33466 0.37224 0.65488 0.0
O217 O 0.29814 0.37547 0.62388 0.0
O218 O 0.34197 0.31959 0.59059 0.0
C219 C 0.3074 0.37489 0.65126 0.0
O220 O 0.35569 0.43517 0.60166 0.0
C221 C 0.3271 0.32206 0.56614 0.0
O222 O 0.34661 0.40437 0.56793 0.0
O223 O 0.32119 0.34488 0.55768 0.0
H224 H 0.26826 0.2205 0.01018 0.0
H225 H 0.18681 0.17879 0.01553 0.0
H226 H 0.24375 0.25572 0.98383 0.0
H227 H 0.16219 0.21432 0.9891 0.0
H228 H 0.14134 0.27204 0.9086 0.0
H229 H 0.16269 0.23571 0.93655 0.0
H230 H 0.2065 0.28895 -0.00277 0.0
H231 H 0.18544 0.32512 0.9694 0.0
C232 C 0.2451 0.21886 0.00575 0.0
C233 C 0.22944 0.1969 0.01498 0.0
C234 C 0.23105 0.23911 0.99081 0.0
C235 C 0.20105 0.2378 0.98459 0.0
C236 C 0.18537 0.21574 -0.00651 0.0
C237 C 0.19943 0.19551 0.00872 0.0
C238 C 0.15537 0.27594 0.92804 0.0
C239 C 0.16188 0.30142 0.93667 0.0
C240 C 0.16746 0.25517 0.94409 0.0
C241 C 0.18642 0.25956 0.96887 0.0
C242 C 0.1923 0.28502 0.97793 0.0
C243 C 0.18011 0.30572 0.96206 0.0
H244 H 0.31312 0.70986 0.38318 0.0
H245 H 0.32836 0.67086 0.4694 0.0
H246 H 0.29217 0.74659 0.41109 0.0
H247 H 0.30815 0.70786 0.49717 0.0
H248 H 0.29463 0.79278 0.53209 0.0
H249 H 0.3205 0.75957 0.50245 0.0
H250 H 0.24346 0.747 0.44775 0.0
H251 H 0.21733 0.77958 0.47776 0.0
C252 C 0.31241 0.70933 0.40806 0.0
C253 C 0.32219 0.68752 0.42417 0.0
C254 C 0.3004 0.73025 0.42394 0.0
C255 C 0.29868 0.72991 0.45615 0.0
C256 C 0.30948 0.70856 0.47231 0.0
C257 C 0.32086 0.68741 0.45643 0.0
C258 C 0.28333 0.783 0.51362 0.0
C259 C 0.25398 0.78858 0.50727 0.0
C260 C 0.29808 0.76406 0.49678 0.0
C261 C 0.28389 0.75094 0.47288 0.0
C262 C 0.25485 0.75705 0.46596 0.0
C263 C 0.23991 0.77553 0.48322 0.0
H264 H 0.18555 0.79728 0.94742 0.0
H265 H 0.26194 0.78439 0.00325 0.0
H266 H 0.15933 0.76403 0.97655 0.0
H267 H 0.23545 0.75174 0.03275 0.0
H268 H 0.16477 0.71424 0.0958 0.0
H269 H 0.18632 0.75095 0.06847 0.0
H270 H 0.17154 0.71252 0.98191 0.0
H271 H 0.15072 0.67554 0.00913 0.0
C272 C 0.19657 0.78757 0.96612 0.0
C273 C 0.22578 0.79325 0.97303 0.0
C274 C 0.18162 0.7686 0.98267 0.0
C275 C 0.19545 0.75552 0.00682 0.0
C276 C 0.22433 0.76175 0.01433 0.0
C277 C 0.23948 0.78028 -0.00263 0.0
C278 C 0.16589 0.71377 0.07093 0.0
C279 C 0.15624 0.69205 0.05454 0.0
C280 C 0.17824 0.73468 0.05538 0.0
C281 C 0.18046 0.73442 0.0232 0.0
C282 C 0.16984 0.71315 0.00674 0.0
C283 C 0.1581 0.69201 0.02231 0.0
H284 H 0.29135 0.32262 0.51641 0.0
H285 H 0.33783 0.2708 0.57673 0.0
H286 H 0.27052 0.2859 0.48945 0.0
H287 H 0.31674 0.23388 0.54958 0.0
H288 H 0.29257 0.17664 0.47008 0.0
H289 H 0.3168 0.2124 0.49655 0.0
H290 H 0.23425 0.252 0.50451 0.0
H291 H 0.21013 0.21654 0.4782 0.0
C292 C 0.29725 0.30338 0.52383 0.0
C293 C 0.31609 0.2996 0.54883 0.0
C294 C 0.2852 0.28236 0.50846 0.0
C295 C 0.29183 0.25708 0.51762 0.0
C296 C 0.31138 0.2532 0.542 0.0
C297 C 0.32332 0.2743 0.55759 0.0
C298 C 0.27965 0.19298 0.47755 0.0
C299 C 0.24948 0.19385 0.47198 0.0
C300 C 0.29348 0.21335 0.49279 0.0
C301 C 0.27741 0.235 0.50236 0.0
C302 C 0.24724 0.2357 0.49699 0.0
C303 C 0.23342 0.21532 0.48206 0.0
H304 H 0.6823 0.6829 0.03314 0.0
H305 H 0.758 0.6949 0.97556 0.0
H306 H 0.65603 0.71633 0.00445 0.0
H307 H 0.73147 0.72771 0.94652 0.0
H308 H 0.66212 0.76751 0.88544 0.0
H309 H 0.68217 0.72977 0.91191 0.0
H310 H 0.66914 0.76754 -0.00071 0.0
H311 H 0.64981 0.80552 0.97293 0.0
C312 C 0.69312 0.69241 0.01411 0.0
C313 C 0.72218 0.6865 0.00662 0.0
C314 C 0.67815 0.71148 -0.00219 0.0
C315 C 0.6918 0.72439 0.97334 0.0
C316 C 0.72048 0.71782 0.96518 0.0
C317 C 0.73565 0.69921 0.98188 0.0
C318 C 0.66322 0.7676 0.91031 0.0
C319 C 0.65461 0.78944 0.92717 0.0
C320 C 0.67472 0.74609 0.92537 0.0
C321 C 0.67708 0.74589 0.95753 0.0
C322 C 0.66729 0.76725 0.97447 0.0
C323 C 0.65642 0.78896 0.95939 0.0
H324 H 0.79558 0.16182 0.46723 0.0
H325 H 0.83887 0.21481 0.40547 0.0
H326 H 0.7741 0.19797 0.4948 0.0
H327 H 0.81709 0.25119 0.43329 0.0
H328 H 0.79109 0.30776 0.51369 0.0
H329 H 0.81682 0.27292 0.4867 0.0
H330 H 0.73614 0.23044 0.47971 0.0
H331 H 0.71058 0.26487 0.50644 0.0
C332 C 0.80066 0.1812 0.45963 0.0
C333 C 0.81873 0.18547 0.434 0.0
C334 C 0.78826 0.20189 0.47538 0.0
C335 C 0.79373 0.22733 0.46598 0.0
C336 C 0.81262 0.23174 0.44105 0.0
C337 C 0.82494 0.21094 0.42508 0.0
C338 C 0.77892 0.29098 0.5063 0.0
C339 C 0.74886 0.28898 0.51229 0.0
C340 C 0.7936 0.27115 0.49079 0.0
C341 C 0.77848 0.24894 0.48139 0.0
C342 C 0.74841 0.24717 0.48711 0.0
C343 C 0.73376 0.26697 0.50229 0.0
H344 H 0.76934 0.26129 0.97856 0.0
H345 H 0.68757 0.30212 0.9699 0.0
H346 H 0.7446 0.22643 0.00528 0.0
H347 H 0.66266 0.26684 -0.0032 0.0
H348 H 0.64066 0.20921 0.0778 0.0
H349 H 0.66198 0.24572 0.04997 0.0
H350 H 0.70827 0.19277 0.99072 0.0
H351 H 0.68728 0.15647 0.01839 0.0
C352 C 0.74605 0.26284 0.98237 0.0
C353 C 0.73038 0.28441 0.97201 0.0
C354 C 0.73187 0.24278 -0.00245 0.0
C355 C 0.70169 0.24385 0.00287 0.0
C356 C 0.68598 0.26561 -0.00695 0.0
C357 C 0.7002 0.28569 0.97758 0.0
C358 C 0.65525 0.20542 0.05871 0.0
C359 C 0.66249 0.17999 0.05044 0.0
C360 C 0.6673 0.22629 0.04272 0.0
C361 C 0.68695 0.22203 0.0184 0.0
C362 C 0.69353 0.1966 0.00968 0.0
C363 C 0.6814 0.17582 0.02547 0.0
H364 H 0.79372 0.82089 0.5172 0.0
H365 H 0.83958 0.76825 0.57706 0.0
H366 H 0.77255 0.78454 0.48984 0.0
H367 H 0.81811 0.73169 0.54953 0.0
H368 H 0.79304 0.67517 0.4695 0.0
H369 H 0.81779 0.71041 0.49646 0.0
H370 H 0.7359 0.75106 0.50449 0.0
H371 H 0.71129 0.71618 0.47768 0.0
C372 C 0.7994 0.80155 0.52444 0.0
C373 C 0.81816 0.79742 0.54943 0.0
C374 C 0.78716 0.78074 0.50884 0.0
C375 C 0.79349 0.75534 0.51776 0.0
C376 C 0.81297 0.75111 0.54212 0.0
C377 C 0.82513 0.772 0.55793 0.0
C378 C 0.78038 0.69163 0.47711 0.0
C379 C 0.75027 0.69297 0.47137 0.0
C380 C 0.79451 0.7117 0.49261 0.0
C381 C 0.77877 0.73351 0.50231 0.0
C382 C 0.74864 0.73464 0.49685 0.0
C383 C 0.73454 0.71459 0.48163 0.0
H384 H 0.25016 0.04966 0.04938 0.0
H385 H 0.28704 0.06415 0.95948 0.0
H386 H 0.24658 0.00394 0.03727 0.0
H387 H 0.28413 0.01829 0.94768 0.0
H388 H 0.25624 0.93622 0.92722 0.0
H389 H 0.25185 0.98221 0.93806 0.0
H390 H 0.28052 0.96883 0.03123 0.0
H391 H 0.28423 0.92291 0.02069 0.0
C392 C 0.25739 0.04312 0.02697 0.0
C393 C 0.2691 0.06055 0.00548 0.0
C394 C 0.25548 0.01688 0.0201 0.0
C395 C 0.26533 0.00741 -0.00837 0.0
C396 C 0.27608 0.02496 0.96972 0.0
C397 C 0.27789 0.05126 0.97655 0.0
C398 C 0.26137 0.94306 0.9501 0.0
C399 C 0.27069 0.92587 0.97306 0.0
C400 C 0.25899 0.96945 0.95625 0.0
C401 C 0.26591 0.97922 0.98548 0.0
C402 C 0.27462 0.96193 0.00859 0.0
C403 C 0.27692 0.93558 0.00248 0.0
H404 H 0.19286 0.91849 0.4587 0.0
H405 H 0.22751 0.93106 0.5498 0.0
H406 H 0.19638 0.96451 0.44827 0.0
H407 H 0.2317 0.97699 0.53905 0.0
H408 H 0.19571 0.05896 0.52268 0.0
H409 H 0.19877 0.0129 0.53283 0.0
H410 H 0.2297 -2e-05 0.44017 0.0
H411 H 0.22596 0.04602 0.42973 0.0
C412 C 0.20161 0.931 0.47636 0.0
C413 C 0.20968 0.9211 0.50516 0.0
C414 C 0.20378 0.9574 0.47031 0.0
C415 C 0.2142 0.97447 0.49289 0.0
C416 C 0.22313 0.96443 0.52135 0.0
C417 C 0.22087 0.93806 0.52743 0.0
C418 C 0.20342 0.04635 0.50454 0.0
C419 C 0.21038 0.05618 0.47533 0.0
C420 C 0.20533 0.01993 0.51041 0.0
C421 C 0.21436 0.00273 0.48726 0.0
C422 C 0.22222 0.01266 0.45835 0.0
C423 C 0.22023 0.03908 0.45244 0.0
H424 H 0.64222 0.91195 0.9682 0.0
H425 H 0.61691 0.97272 0.90569 0.0
H426 H 0.64432 0.94308 0.01014 0.0
H427 H 0.61828 0.00361 0.94772 0.0
H428 H 0.64997 0.05735 0.02155 0.0
H429 H 0.65202 0.02523 0.98098 0.0
H430 H 0.61217 0.96933 0.04159 0.0
H431 H 0.61083 0.00143 0.08268 0.0
C432 C 0.63708 0.93194 0.96339 0.0
C433 C 0.62943 0.93985 0.93355 0.0
C434 C 0.63812 0.94974 0.98749 0.0
C435 C 0.63147 0.97583 0.98231 0.0
C436 C 0.62398 0.98374 0.95243 0.0
C437 C 0.62305 0.96598 0.92833 0.0
C438 C 0.64176 0.03818 0.02635 0.0
C439 C 0.63005 0.032 0.05532 0.0
C440 C 0.6428 0.01979 0.00298 0.0
C441 C 0.63198 -0.00521 0.00791 0.0
C442 C 0.62092 0.98837 0.03713 0.0
C443 C 0.62003 0.00678 0.06064 0.0
H444 H 0.83733 0.06509 0.46688 0.0
H445 H 0.86531 0.00611 0.40299 0.0
H446 H 0.83576 0.03331 0.50795 0.0
H447 H 0.86449 0.97443 0.44435 0.0
H448 H 0.83342 0.91927 0.51833 0.0
H449 H 0.83164 0.95125 0.47753 0.0
H450 H 0.86858 0.00804 0.53885 0.0
H451 H 0.86964 0.97618 0.58003 0.0
C452 C 0.84321 0.04534 0.46158 0.0
C453 C 0.85149 0.03814 0.43163 0.0
C454 C 0.84248 0.02715 0.48521 0.0
C455 C 0.85012 0.00135 0.4795 0.0
C456 C 0.8581 -0.00592 0.44946 0.0
C457 C 0.8587 0.01227 0.42576 0.0
C458 C 0.84105 0.93861 0.5232 0.0
C459 C 0.85174 0.94516 0.55246 0.0
C460 C 0.8402 0.9569 0.49971 0.0
C461 C 0.85013 0.98216 0.50484 0.0
C462 C 0.86044 0.98883 0.53422 0.0
C463 C 0.86117 0.97054 0.55781 0.0
H464 H 0.75184 0.42881 0.93425 0.0
H465 H 0.78776 0.41627 0.02479 0.0
H466 H 0.74751 0.47469 0.9452 0.0
H467 H 0.7841 0.46228 0.03541 0.0
H468 H 0.75476 0.54424 0.05382 0.0
H469 H 0.75117 0.49807 0.04394 0.0
H470 H 0.78077 0.51034 0.9507 0.0
H471 H 0.78368 0.55646 0.96028 0.0
C472 C 0.7587 0.4358 0.95655 0.0
C473 C 0.77036 0.41887 0.97857 0.0
C474 C 0.75636 0.46215 0.96275 0.0
C475 C 0.76571 0.47221 -0.00894 0.0
C476 C 0.77642 0.45515 0.01348 0.0
C477 C 0.77866 0.42876 0.00732 0.0
C478 C 0.76027 0.53712 0.03113 0.0
C479 C 0.76962 0.55406 0.00787 0.0
C480 C 0.75835 0.51063 0.02553 0.0
C481 C 0.76577 0.50049 -0.00343 0.0
C482 C 0.77449 0.51752 0.97314 0.0
C483 C 0.77634 0.54399 0.9787 0.0
H484 H 0.69152 0.41967 0.46012 0.0
H485 H 0.72381 0.43322 0.55199 0.0
H486 H 0.69533 0.46556 0.44909 0.0
H487 H 0.72828 0.47904 0.54065 0.0
H488 H 0.69248 0.56076 0.522 0.0
H489 H 0.69542 0.51483 0.53295 0.0
H490 H 0.72876 0.50099 0.44141 0.0
H491 H 0.72514 0.5469 0.43015 0.0
C492 C 0.69983 0.43237 0.47783 0.0
C493 C 0.70713 0.42277 0.50702 0.0
C494 C 0.70217 0.45869 0.47144 0.0
C495 C 0.71198 0.476 0.49405 0.0
C496 C 0.72019 0.46628 0.5229 0.0
C497 C 0.71776 0.43998 0.52933 0.0
C498 C 0.70068 0.54798 0.50428 0.0
C499 C 0.70836 0.55752 0.47512 0.0
C500 C 0.70253 0.52163 0.51062 0.0
C501 C 0.71221 0.5042 0.488 0.0
C502 C 0.72077 0.51385 0.45917 0.0
C503 C 0.71884 0.54019 0.45279 0.0
H504 H 0.14141 0.56927 0.01794 0.0
H505 H 0.11011 0.51085 0.08075 0.0
H506 H 0.14421 0.53729 0.9771 0.0
H507 H 0.11213 0.47901 0.03961 0.0
H508 H 0.14466 0.42306 0.96716 0.0
H509 H 0.14564 0.45517 0.00793 0.0
H510 H 0.11231 0.51239 0.94493 0.0
H511 H 0.11211 0.48044 0.90387 0.0
C512 C 0.13506 0.54961 0.02303 0.0
C513 C 0.12549 0.54262 0.05261 0.0
C514 C 0.13651 0.5313 -0.00046 0.0
C515 C 0.12829 0.50561 0.00502 0.0
C516 C 0.119 0.49856 0.0347 0.0
C517 C 0.1177 0.51685 0.05826 0.0
C518 C 0.13766 0.44253 0.96194 0.0
C519 C 0.12824 0.44917 0.93225 0.0
C520 C 0.13807 0.4609 0.98539 0.0
C521 C 0.12891 0.48632 0.97977 0.0
C522 C 0.11986 0.49306 0.94996 0.0
C523 C 0.11961 0.47471 0.92644 0.0
H524 H 0.3344 0.56568 0.46044 0.0
H525 H 0.36617 0.5062 0.39923 0.0
H526 H 0.33152 0.53446 0.50204 0.0
H527 H 0.36409 0.47511 0.44116 0.0
H528 H 0.33202 0.42047 0.5152 0.0
H529 H 0.33081 0.4517 0.47351 0.0
H530 H 0.36351 0.51045 0.53491 0.0
H531 H 0.36391 0.47939 0.57689 0.0
C532 C 0.34083 0.54594 0.45586 0.0
C533 C 0.35059 0.53844 0.42651 0.0
C534 C 0.33934 0.52807 0.47979 0.0
C535 C 0.34772 0.50231 0.47501 0.0
C536 C 0.35711 0.49473 0.44554 0.0
C537 C 0.35845 0.51258 0.42153 0.0
C538 C 0.33881 0.44009 0.51988 0.0
C539 C 0.34812 0.44742 0.54938 0.0
C540 C 0.33829 0.45795 0.49589 0.0
C541 C 0.3472 0.48355 0.5008 0.0
C542 C 0.35613 0.49097 0.53042 0.0
C543 C 0.3565 0.47313 0.55447 0.0
H544 H 0.50789 0.10766 0.15431 0.0
H545 H 0.53801 0.12436 0.06235 0.0
H546 H 0.45807 0.11759 0.13891 0.0
H547 H 0.48828 0.13263 0.0463 0.0
H548 H 0.3994 0.16497 0.02873 0.0
H549 H 0.4489 0.16006 0.04778 0.0
H550 H 0.41904 0.10149 0.11137 0.0
H551 H 0.3693 0.10783 0.09357 0.0
C552 C 0.50379 0.11336 0.13076 0.0
C553 C 0.5268 0.1153 0.10955 0.0
C554 C 0.47519 0.11885 0.12181 0.0
C555 C 0.46889 0.12583 0.09124 0.0
C556 C 0.49213 0.12789 0.07017 0.0
C557 C 0.52074 0.12298 0.07931 0.0
C558 C 0.40349 0.15115 0.04688 0.0
C559 C 0.38057 0.13673 0.05961 0.0
C560 C 0.43193 0.14817 0.05772 0.0
C561 C 0.43825 0.1302 0.08104 0.0
C562 C 0.41512 0.11587 0.09383 0.0
C563 C 0.38657 0.11932 0.08347 0.0
H564 H 0.97191 0.86898 0.65355 0.0
H565 H 0.94238 0.85236 0.56154 0.0
H566 H 0.02175 0.8586 0.63834 0.0
H567 H -0.00786 0.84375 0.54561 0.0
H568 H 0.08135 0.81279 0.52691 0.0
H569 H 0.03176 0.81683 0.54642 0.0
H570 H 0.0609 0.87463 0.61128 0.0
H571 H 0.11066 0.86905 0.59309 0.0
C572 C 0.97615 0.86319 0.63004 0.0
C573 C 0.95331 0.86144 0.60875 0.0
C574 C 0.00477 0.85744 0.62117 0.0
C575 C 0.01127 0.85045 0.59059 0.0
C576 C 0.98816 0.84848 0.56948 0.0
C577 C 0.95953 0.8536 0.57855 0.0
C578 C 0.07706 0.82619 0.54549 0.0
C579 C 0.09977 0.84065 0.55845 0.0
C580 C 0.04858 0.82869 0.55659 0.0
C581 C 0.042 0.84625 0.58036 0.0
C582 C 0.06498 0.86053 0.59342 0.0
C583 C 0.09356 0.85752 0.58283 0.0
H584 H 0.36711 0.84921 0.8734 0.0
H585 H 0.40167 0.83759 0.96472 0.0
H586 H 0.41656 0.8527 0.85315 0.0
H587 H 0.451 0.84157 0.94453 0.0
H588 H 0.53676 0.82891 0.89664 0.0
H589 H 0.48666 0.82002 0.91198 0.0
H590 H 0.45682 0.88333 0.85571 0.0
H591 H 0.50686 0.89196 0.83983 0.0
C592 C 0.38522 0.84735 0.88916 0.0
C593 C 0.3804 0.84321 0.92073 0.0
C594 C 0.41356 0.84946 0.87755 0.0
C595 C 0.43771 0.84744 0.89721 0.0
C596 C 0.43288 0.84285 0.92867 0.0
C597 C 0.40457 0.84075 0.94029 0.0
C598 C 0.5195 0.84076 0.88722 0.0
C599 C 0.52587 0.86129 0.86718 0.0
C600 C 0.4908 0.83575 0.89618 0.0
C601 C 0.4678 0.85114 0.88534 0.0
C602 C 0.47402 0.87098 0.8643 0.0
C603 C 0.50274 0.87599 0.85529 0.0
H604 H 0.07779 0.14001 0.46849 0.0
H605 H 0.11228 0.13137 0.37646 0.0
H606 H 0.02848 0.13617 0.44858 0.0
H607 H 0.06281 0.12813 0.35647 0.0
H608 H 0.97272 0.08986 0.34112 0.0
H609 H 0.02266 0.09777 0.3574 0.0
H610 H -0.00742 0.15846 0.41777 0.0
H611 H 0.94252 0.15016 0.40208 0.0
C612 C 0.07487 0.1375 0.44397 0.0
C613 C 0.09901 0.13588 0.4241 0.0
C614 C 0.04655 0.13549 0.43252 0.0
C615 C 0.0417 0.1319 0.40091 0.0
C616 C 0.06583 0.13059 0.38098 0.0
C617 C 0.09418 0.13254 0.39244 0.0
C618 C 0.97676 0.10509 0.35761 0.0
C619 C 0.95358 0.11922 0.3705 0.0
C620 C 0.00544 0.10971 0.36685 0.0
C621 C 0.01158 0.1286 0.38909 0.0
C622 C 0.98852 0.14344 0.40102 0.0
C623 C 0.95983 0.13878 0.39186 0.0
H624 H 0.00267 0.5956 0.14372 0.0
H625 H 0.03393 0.65487 0.08201 0.0
H626 H 0.95297 0.60367 0.12683 0.0
H627 H 0.98407 0.6633 0.06564 0.0
H628 H 0.89911 0.64319 0.01415 0.0
H629 H 0.94831 0.64053 0.0348 0.0
H630 H 0.91309 0.63437 0.12673 0.0
H631 H 0.86384 0.63646 0.10607 0.0
C632 C -0.00109 0.61066 0.12695 0.0
C633 C 0.02233 0.62442 0.11403 0.0
C634 C 0.97036 0.61537 0.11735 0.0
C635 C 0.96458 0.63399 0.09469 0.0
C636 C 0.98787 0.64851 0.08274 0.0
C637 C 0.01642 0.64378 0.09229 0.0
C638 C 0.90184 0.64142 0.03878 0.0
C639 C 0.87752 0.63986 0.05841 0.0
C640 C 0.93007 0.64008 0.05065 0.0
C641 C 0.93462 0.63721 0.08242 0.0
C642 C 0.91031 0.63623 0.10211 0.0
C643 C 0.88208 0.63753 0.09025 0.0
H644 H 0.60808 0.34809 0.60908 0.0
H645 H 0.57464 0.33712 0.51717 0.0
H646 H 0.55842 0.35285 0.62843 0.0
H647 H 0.52517 0.34245 0.53642 0.0
H648 H 0.43805 0.33297 0.58244 0.0
H649 H 0.48799 0.32241 0.568 0.0
H650 H 0.51953 0.38454 0.62517 0.0
H651 H 0.46967 0.39476 0.6402 0.0
C652 C 0.59017 0.34663 0.59301 0.0
C653 C 0.59536 0.34233 0.56154 0.0
C654 C 0.56172 0.34947 0.60409 0.0
C655 C 0.53785 0.34808 0.58396 0.0
C656 C 0.54304 0.34326 0.55262 0.0
C657 C 0.57145 0.34039 0.54155 0.0
C658 C 0.45564 0.34422 0.59221 0.0
C659 C 0.44983 0.36485 0.6123 0.0
C660 C 0.48426 0.33824 0.58379 0.0
C661 C 0.50771 0.35278 0.5952 0.0
C662 C 0.50198 0.3728 0.61618 0.0
C663 C 0.47336 0.37874 0.62468 0.0
H664 H 0.04007 0.33252 0.90153 0.0
H665 H 0.00727 0.39358 0.84346 0.0
H666 H -0.00964 0.32139 0.91616 0.0
H667 H 0.95762 0.38282 0.85871 0.0
H668 H 0.86972 0.34533 0.87527 0.0
H669 H 0.91924 0.3507 0.85577 0.0
H670 H 0.95291 0.34097 0.9477 0.0
H671 H 0.90361 0.33502 0.9671 0.0
C672 C 0.02226 0.34349 0.89174 0.0
C673 C 0.02767 0.36408 0.8715 0.0
C674 C -0.00623 0.33719 0.90028 0.0
C675 C 0.97004 0.35137 0.88884 0.0
C676 C 0.97538 0.37134 0.86772 0.0
C677 C 0.00388 0.3776 0.8591 0.0
C678 C 0.8877 0.34415 0.8913 0.0
C679 C 0.88267 0.33984 0.92278 0.0
C680 C 0.91607 0.34735 0.88012 0.0
C681 C 0.94002 0.34632 0.90018 0.0
C682 C 0.935 0.34151 0.93155 0.0
C683 C 0.90667 0.33827 0.94271 0.0
H684 H 0.57672 0.64336 0.46276 0.0
H685 H 0.61326 0.63166 0.37208 0.0
H686 H 0.52787 0.63909 0.44177 0.0
H687 H 0.56423 0.62794 0.35099 0.0
H688 H 0.47427 0.58876 0.33598 0.0
H689 H 0.52397 0.59748 0.35261 0.0
H690 H 0.49283 0.66048 0.40888 0.0
H691 H 0.44305 0.65143 0.39284 0.0
C692 C 0.57435 0.6401 0.4383 0.0
C693 C 0.59893 0.63773 0.41915 0.0
C694 C 0.5463 0.63785 0.42622 0.0
C695 C 0.54216 0.63323 0.39468 0.0
C696 C 0.56671 0.63122 0.37543 0.0
C697 C 0.5948 0.63345 0.38753 0.0
C698 C 0.47804 0.60468 0.3516 0.0
C699 C 0.45464 0.61923 0.36331 0.0
C700 C 0.50657 0.60975 0.36104 0.0
C701 C 0.51231 0.62951 0.38232 0.0
C702 C 0.48905 0.64479 0.39293 0.0
C703 C 0.46054 0.63969 0.38357 0.0
H704 H 0.29572 0.15839 0.17452 0.0
H705 H 0.21241 0.12197 0.15834 0.0
H706 H 0.28568 0.15878 0.22975 0.0
H707 H 0.20227 0.12276 0.21358 0.0
H708 H 0.18473 0.15798 0.31054 0.0
H709 H 0.19485 0.15868 0.25532 0.0
H710 H 0.27836 0.12275 0.27132 0.0
H711 H 0.26815 0.12166 0.32654 0.0
C712 C 0.27522 0.15061 0.18275 0.0
C713 C 0.25484 0.14013 0.16217 0.0
C714 C 0.26957 0.15073 0.21431 0.0
C715 C 0.24323 0.1408 0.22579 0.0
C716 C 0.22267 0.13067 0.20521 0.0
C717 C 0.22852 0.13012 0.17368 0.0
C718 C 0.20528 0.15031 0.30228 0.0
C719 C 0.22566 0.13974 0.3228 0.0
C720 C 0.21097 0.1506 0.27073 0.0
C721 C 0.23734 0.14076 0.2592 0.0
C722 C 0.25794 0.13059 0.27973 0.0
C723 C 0.25204 0.12988 0.31124 0.0
H724 H 0.2708 0.80395 0.81364 0.0
H725 H 0.23484 0.88092 0.81853 0.0
H726 H 0.26113 0.80286 0.75845 0.0
H727 H 0.22516 0.87975 0.76343 0.0
H728 H 0.24569 0.87889 0.65999 0.0
H729 H 0.25526 0.87894 0.71512 0.0
H730 H 0.21793 0.80274 0.72261 0.0
H731 H 0.20837 0.8026 0.66738 0.0
C732 C 0.26074 0.82058 0.80296 0.0
C733 C 0.25362 0.84254 0.82039 0.0
C734 C 0.25511 0.8199 0.77142 0.0
C735 C 0.24251 0.84126 0.75668 0.0
C736 C 0.23521 0.86313 0.77415 0.0
C737 C 0.24059 0.86373 0.80571 0.0
C738 C 0.23961 0.86211 0.67337 0.0
C739 C 0.22624 0.84076 0.65937 0.0
C740 C 0.24493 0.86221 0.70494 0.0
C741 C 0.23722 0.84089 0.72312 0.0
C742 C 0.22427 0.81936 0.70909 0.0
C743 C 0.2187 0.81934 0.67752 0.0
H744 H 0.65932 0.88589 0.77258 0.0
H745 H 0.72787 0.85833 0.83189 0.0
H746 H 0.69377 0.88858 0.73002 0.0
H747 H 0.76204 0.85937 0.78904 0.0
H748 H 0.82365 0.88264 0.71275 0.0
H749 H 0.78976 0.88447 0.75598 0.0
H750 H 0.71906 0.86334 0.69528 0.0
H751 H 0.75267 0.86317 0.65206 0.0
C752 C 0.68176 0.88022 0.77639 0.0
C753 C 0.69094 0.87187 0.80546 0.0
C754 C 0.70153 0.88155 0.75195 0.0
C755 C 0.7308 0.874 0.75584 0.0
C756 C 0.7399 0.8658 0.78514 0.0
C757 C 0.72026 0.86501 0.80973 0.0
C758 C 0.8008 0.87853 0.70876 0.0
C759 C 0.79076 0.87282 0.6791 0.0
C760 C 0.78135 0.87939 0.73356 0.0
C761 C 0.75151 0.87403 0.72932 0.0
C762 C 0.74165 0.86818 0.6995 0.0
C763 C 0.76098 0.86786 0.67467 0.0
H764 H 0.82081 0.12177 0.27097 0.0
H765 H 0.7532 0.09617 0.33321 0.0
H766 H 0.78634 0.12031 0.22848 0.0
H767 H 0.71894 0.09389 0.29059 0.0
H768 H 0.72571 0.09095 0.15411 0.0
H769 H 0.75969 0.09083 0.19701 0.0
H770 H 0.69227 0.12132 0.25645 0.0
H771 H 0.65802 0.12062 0.21369 0.0
C772 C 0.79864 0.11561 0.27551 0.0
C773 C 0.7897 0.10912 0.30542 0.0
C774 C 0.77891 0.11463 0.25114 0.0
C775 C 0.74984 0.10696 0.25609 0.0
C776 C 0.74102 0.10026 0.28602 0.0
C777 C 0.76071 0.1014 0.31042 0.0
C778 C 0.71811 0.09753 0.17638 0.0
C779 C 0.6892 0.10581 0.18054 0.0
C780 C 0.73765 0.09762 0.20093 0.0
C781 C 0.72879 0.10618 0.23018 0.0
C782 C 0.69975 0.11428 0.23435 0.0
C783 C 0.68014 0.11402 0.20981 0.0
H784 H 0.7088 0.67686 0.31364 0.0
H785 H 0.74792 0.60122 0.32039 0.0
H786 H 0.71802 0.67699 0.25832 0.0
H787 H 0.75716 0.60145 0.2651 0.0
H788 H 0.73459 0.59919 0.16209 0.0
H789 H 0.72624 0.60011 0.21749 0.0
H790 H 0.76055 0.67759 0.22149 0.0
H791 H 0.76889 0.67675 0.166 0.0
C792 C 0.71951 0.66034 0.30335 0.0
C793 C 0.72759 0.639 0.32133 0.0
C794 C 0.72487 0.66048 0.27172 0.0
C795 C 0.73817 0.63918 0.25745 0.0
C796 C 0.74656 0.61799 0.27548 0.0
C797 C 0.74144 0.61794 0.30714 0.0
C798 C 0.74026 0.61646 0.17475 0.0
C799 C 0.7524 0.6379 0.1597 0.0
C800 C 0.73566 0.6169 0.20648 0.0
C801 C 0.74288 0.63887 0.22376 0.0
C802 C 0.75463 0.66046 0.20868 0.0
C803 C 0.75948 0.65994 0.17696 0.0
H804 H 0.71238 0.38345 0.66934 0.0
H805 H 0.73615 0.30315 0.66271 0.0
H806 H 0.72155 0.38264 0.72429 0.0
H807 H 0.74786 0.30259 0.71725 0.0
H808 H 0.74211 0.3013 0.82076 0.0
H809 H 0.73035 0.30192 0.76623 0.0
H810 H 0.75555 0.38236 0.76196 0.0
H811 H 0.76477 0.38196 0.8169 0.0
C812 C 0.7201 0.36572 0.67969 0.0
C813 C 0.72357 0.34337 0.66193 0.0
C814 C 0.72562 0.36524 0.71123 0.0
C815 C 0.73565 0.34256 0.7256 0.0
C816 C 0.73954 0.32029 0.70744 0.0
C817 C 0.73313 0.32061 0.67605 0.0
C818 C 0.74488 0.3191 0.80803 0.0
C819 C 0.75414 0.34161 0.82293 0.0
C820 C 0.73843 0.31946 0.77665 0.0
C821 C 0.742 0.34219 0.75926 0.0
C822 C 0.75173 0.36462 0.77441 0.0
C823 C 0.75728 0.36441 0.80595 0.0
H824 H 0.24933 0.36431 0.65178 0.0
H825 H 0.32006 0.38892 0.7101 0.0
H826 H 0.2163 0.36493 0.69558 0.0
H827 H 0.28674 0.39117 0.75374 0.0
H828 H 0.22818 0.36526 0.83212 0.0
H829 H 0.26119 0.36576 0.78832 0.0
H830 H 0.19033 0.39042 0.72976 0.0
H831 H 0.15705 0.38828 0.77343 0.0
C832 C 0.25768 0.37023 0.67396 0.0
C833 C 0.28724 0.37646 0.67763 0.0
C834 C 0.2387 0.37079 0.69909 0.0
C835 C 0.24872 0.37812 0.72838 0.0
C836 C 0.27828 0.38488 0.73177 0.0
C837 C 0.29739 0.38379 0.70674 0.0
C838 C 0.21973 0.3708 0.80985 0.0
C839 C 0.19007 0.37662 0.80609 0.0
C840 C 0.2387 0.3713 0.78471 0.0
C841 C 0.22857 0.37815 0.75531 0.0
C842 C 0.19889 0.3845 0.75182 0.0
C843 C 0.1798 0.38347 0.77687 0.0
H844 H 0.32074 0.62058 0.26525 0.0
H845 H 0.25406 0.5944 0.32825 0.0
H846 H 0.28542 0.62043 0.22356 0.0
H847 H 0.21893 0.59334 0.28636 0.0
H848 H 0.15693 0.62454 0.21289 0.0
H849 H 0.19219 0.62235 0.25457 0.0
H850 H 0.25711 0.59307 0.19128 0.0
H851 H 0.2221 0.59615 0.14943 0.0
C852 C 0.2986 0.6145 0.2701 0.0
C853 C 0.29014 0.60761 0.30003 0.0
C854 C 0.27837 0.61426 0.24617 0.0
C855 C 0.24928 0.60691 0.25158 0.0
C856 C 0.24101 0.59953 0.28146 0.0
C857 C 0.26119 0.59997 0.30545 0.0
C858 C 0.17871 0.61756 0.20792 0.0
C859 C 0.18679 0.61062 0.17788 0.0
C860 C 0.19889 0.61614 0.23185 0.0
C861 C 0.22754 0.60756 0.22631 0.0
C862 C 0.2354 0.60019 0.19629 0.0
C863 C 0.21529 0.6018 0.17233 0.0
loop_
_geom_bond_atom_site_label_1
_geom_bond_atom_site_label_2
_geom_bond_distance
_geom_bond_site_symmetry_2
_ccdc_geom_bond_type
C0 O1 1.306 . S
C0 O3 1.160 . S
O1 C0 1.306 . S
O1 Cd2 2.228 . S
Cd2 O1 2.228 . S
Cd2 O6 2.273 . S
Cd2 O10 2.277 . S
O3 C0 1.160 . S
O3 Cd4 2.203 . S
Cd4 O3 2.203 . S
Cd4 O6 2.411 . S
Cd4 O7 2.333 . S
Cd4 O8 2.352 . S
Cd4 O12 2.277 . S
Cd4 O13 2.356 . S
C5 O10 1.209 . S
C5 O12 1.226 . S
O6 Cd2 2.273 . S
O6 Cd4 2.411 . S
O6 C9 1.320 . S
O7 Cd4 2.333 . S
O7 C9 1.214 . S
O8 Cd4 2.352 . S
O8 C11 1.258 . S
C9 O6 1.320 . S
C9 O7 1.214 . S
O10 Cd2 2.277 . S
O10 C5 1.209 . S
C11 O8 1.258 . S
C11 O13 1.282 . S
O12 Cd4 2.277 . S
O12 C5 1.226 . S
O13 Cd4 2.356 . S
O13 C11 1.282 . S
C14 O15 1.306 . S
C14 O17 1.160 . S
O15 C14 1.306 . S
O15 Cd16 2.228 . S
Cd16 O15 2.228 . S
Cd16 O20 2.273 . S
Cd16 O24 2.277 . S
O17 C14 1.160 . S
O17 Cd18 2.203 . S
Cd18 O17 2.203 . S
Cd18 O20 2.411 . S
Cd18 O21 2.333 . S
Cd18 O22 2.352 . S
Cd18 O26 2.277 . S
Cd18 O27 2.356 . S
C19 O24 1.209 . S
C19 O26 1.226 . S
O20 Cd16 2.273 . S
O20 Cd18 2.411 . S
O20 C23 1.320 . S
O21 Cd18 2.333 . S
O21 C23 1.214 . S
O22 Cd18 2.352 . S
O22 C25 1.258 . S
C23 O20 1.320 . S
C23 O21 1.214 . S
O24 Cd16 2.277 . S
O24 C19 1.209 . S
C25 O22 1.258 . S
C25 O27 1.282 . S
O26 Cd18 2.277 . S
O26 C19 1.226 . S
O27 Cd18 2.356 . S
O27 C25 1.282 . S
C28 O29 1.306 . S
C28 O31 1.160 . S
O29 C28 1.306 . S
O29 Cd30 2.228 . S
Cd30 O29 2.228 . S
Cd30 O34 2.273 . S
Cd30 O38 2.277 . S
O31 C28 1.160 . S
O31 Cd32 2.203 . S
Cd32 O31 2.203 . S
Cd32 O34 2.411 . S
Cd32 O35 2.333 . S
Cd32 O36 2.352 . S
Cd32 O40 2.277 . S
Cd32 O41 2.356 . S
C33 O38 1.209 . S
C33 O40 1.226 . S
O34 Cd30 2.273 . S
O34 Cd32 2.411 . S
O34 C37 1.320 . S
O35 Cd32 2.333 . S
O35 C37 1.214 . S
O36 Cd32 2.352 . S
O36 C39 1.258 . S
C37 O34 1.320 . S
C37 O35 1.214 . S
O38 Cd30 2.277 . S
O38 C33 1.209 . S
C39 O36 1.258 . S
C39 O41 1.282 . S
O40 Cd32 2.277 . S
O40 C33 1.226 . S
O41 Cd32 2.356 . S
O41 C39 1.282 . S
C42 O43 1.306 . S
C42 O45 1.160 . S
O43 C42 1.306 . S
O43 Cd44 2.228 . S
Cd44 O43 2.228 . S
Cd44 O48 2.273 . S
Cd44 O52 2.277 . S
O45 C42 1.160 . S
O45 Cd46 2.203 . S
Cd46 O45 2.203 . S
Cd46 O48 2.411 . S
Cd46 O49 2.333 . S
Cd46 O50 2.352 . S
Cd46 O54 2.277 . S
Cd46 O55 2.356 . S
C47 O52 1.209 . S
C47 O54 1.226 . S
O48 Cd44 2.273 . S
O48 Cd46 2.411 . S
O48 C51 1.320 . S
O49 Cd46 2.333 . S
O49 C51 1.214 . S
O50 Cd46 2.352 . S
O50 C53 1.258 . S
C51 O48 1.320 . S
C51 O49 1.214 . S
O52 Cd44 2.277 . S
O52 C47 1.209 . S
C53 O50 1.258 . S
C53 O55 1.282 . S
O54 Cd46 2.277 . S
O54 C47 1.226 . S
O55 Cd46 2.356 . S
O55 C53 1.282 . S
C56 O57 1.306 . S
C56 O59 1.160 . S
O57 C56 1.306 . S
O57 Cd58 2.228 . S
Cd58 O57 2.228 . S
Cd58 O62 2.273 . S
Cd58 O66 2.277 . S
O59 C56 1.160 . S
O59 Cd60 2.203 . S
Cd60 O59 2.203 . S
Cd60 O62 2.411 . S
Cd60 O63 2.333 . S
Cd60 O64 2.352 . S
Cd60 O68 2.277 . S
Cd60 O69 2.356 . S
C61 O66 1.209 . S
C61 O68 1.226 . S
O62 Cd58 2.273 . S
O62 Cd60 2.411 . S
O62 C65 1.320 . S
O63 Cd60 2.333 . S
O63 C65 1.214 . S
O64 Cd60 2.352 . S
O64 C67 1.258 . S
C65 O62 1.320 . S
C65 O63 1.214 . S
O66 Cd58 2.277 . S
O66 C61 1.209 . S
C67 O64 1.258 . S
C67 O69 1.282 . S
O68 Cd60 2.277 . S
O68 C61 1.226 . S
O69 Cd60 2.356 . S
O69 C67 1.282 . S
C70 O71 1.306 . S
C70 O73 1.160 . S
O71 C70 1.306 . S
O71 Cd72 2.228 . S
Cd72 O71 2.228 . S
Cd72 O76 2.273 . S
Cd72 O80 2.277 . S
O73 C70 1.160 . S
O73 Cd74 2.203 . S
Cd74 O73 2.203 . S
Cd74 O76 2.411 . S
Cd74 O77 2.333 . S
Cd74 O78 2.352 . S
Cd74 O82 2.277 . S
Cd74 O83 2.356 . S
C75 O80 1.209 . S
C75 O82 1.226 . S
O76 Cd72 2.273 . S
O76 Cd74 2.411 . S
O76 C79 1.320 . S
O77 Cd74 2.333 . S
O77 C79 1.214 . S
O78 Cd74 2.352 . S
O78 C81 1.258 . S
C79 O76 1.320 . S
C79 O77 1.214 . S
O80 Cd72 2.277 . S
O80 C75 1.209 . S
C81 O78 1.258 . S
C81 O83 1.282 . S
O82 Cd74 2.277 . S
O82 C75 1.226 . S
O83 Cd74 2.356 . S
O83 C81 1.282 . S
C84 O85 1.306 . S
C84 O87 1.160 . S
O85 C84 1.306 . S
O85 Cd86 2.228 . S
Cd86 O85 2.228 . S
Cd86 O90 2.273 . S
Cd86 O94 2.277 . S
O87 C84 1.160 . S
O87 Cd88 2.203 . S
Cd88 O87 2.203 . S
Cd88 O90 2.411 . S
Cd88 O91 2.333 . S
Cd88 O92 2.352 . S
Cd88 O96 2.277 . S
Cd88 O97 2.356 . S
C89 O94 1.209 . S
C89 O96 1.226 . S
O90 Cd86 2.273 . S
O90 Cd88 2.411 . S
O90 C93 1.320 . S
O91 Cd88 2.333 . S
O91 C93 1.214 . S
O92 Cd88 2.352 . S
O92 C95 1.258 . S
C93 O90 1.320 . S
C93 O91 1.214 . S
O94 Cd86 2.277 . S
O94 C89 1.209 . S
C95 O92 1.258 . S
C95 O97 1.282 . S
O96 Cd88 2.277 . S
O96 C89 1.226 . S
O97 Cd88 2.356 . S
O97 C95 1.282 . S
C98 O99 1.306 . S
C98 O101 1.160 . S
O99 C98 1.306 . S
O99 Cd100 2.228 . S
Cd100 O99 2.228 . S
Cd100 O104 2.273 . S
Cd100 O108 2.277 . S
O101 C98 1.160 . S
O101 Cd102 2.203 . S
Cd102 O101 2.203 . S
Cd102 O104 2.411 . S
Cd102 O105 2.333 . S
Cd102 O106 2.352 . S
Cd102 O110 2.277 . S
Cd102 O111 2.356 . S
C103 O108 1.209 . S
C103 O110 1.226 . S
O104 Cd100 2.273 . S
O104 Cd102 2.411 . S
O104 C107 1.320 . S
O105 Cd102 2.333 . S
O105 C107 1.214 . S
O106 Cd102 2.352 . S
O106 C109 1.258 . S
C107 O104 1.320 . S
C107 O105 1.214 . S
O108 Cd100 2.277 . S
O108 C103 1.209 . S
C109 O106 1.258 . S
C109 O111 1.282 . S
O110 Cd102 2.277 . S
O110 C103 1.226 . S
O111 Cd102 2.356 . S
O111 C109 1.282 . S
C112 O113 1.306 . S
C112 O115 1.160 . S
O113 C112 1.306 . S
O113 Cd114 2.228 . S
Cd114 O113 2.228 . S
Cd114 O118 2.273 . S
Cd114 O122 2.277 . S
O115 C112 1.160 . S
O115 Cd116 2.203 . S
Cd116 O115 2.203 . S
Cd116 O118 2.411 . S
Cd116 O119 2.333 . S
Cd116 O120 2.352 . S
Cd116 O124 2.277 . S
Cd116 O125 2.356 . S
C117 O122 1.209 . S
C117 O124 1.226 . S
O118 Cd114 2.273 . S
O118 Cd116 2.411 . S
O118 C121 1.320 . S
O119 Cd116 2.333 . S
O119 C121 1.214 . S
O120 Cd116 2.352 . S
O120 C123 1.258 . S
C121 O118 1.320 . S
C121 O119 1.214 . S
O122 Cd114 2.277 . S
O122 C117 1.209 . S
C123 O120 1.258 . S
C123 O125 1.282 . S
O124 Cd116 2.277 . S
O124 C117 1.226 . S
O125 Cd116 2.356 . S
O125 C123 1.282 . S
C126 O127 1.306 . S
C126 O129 1.160 . S
O127 C126 1.306 . S
O127 Cd128 2.228 . S
Cd128 O127 2.228 . S
Cd128 O132 2.273 . S
Cd128 O136 2.277 . S
O129 C126 1.160 . S
O129 Cd130 2.203 . S
Cd130 O129 2.203 . S
Cd130 O132 2.411 . S
Cd130 O133 2.333 . S
Cd130 O134 2.352 . S
Cd130 O138 2.277 . S
Cd130 O139 2.356 . S
C131 O136 1.209 . S
C131 O138 1.226 . S
O132 Cd128 2.273 . S
O132 Cd130 2.411 . S
O132 C135 1.320 . S
O133 Cd130 2.333 . S
O133 C135 1.214 . S
O134 Cd130 2.352 . S
O134 C137 1.258 . S
C135 O132 1.320 . S
C135 O133 1.214 . S
O136 Cd128 2.277 . S
O136 C131 1.209 . S
C137 O134 1.258 . S
C137 O139 1.282 . S
O138 Cd130 2.277 . S
O138 C131 1.226 . S
O139 Cd130 2.356 . S
O139 C137 1.282 . S
C140 O141 1.306 . S
C140 O143 1.160 . S
O141 C140 1.306 . S
O141 Cd142 2.228 . S
Cd142 O141 2.228 . S
Cd142 O146 2.273 . S
Cd142 O150 2.277 . S
O143 C140 1.160 . S
O143 Cd144 2.203 . S
Cd144 O143 2.203 . S
Cd144 O146 2.411 . S
Cd144 O147 2.333 . S
Cd144 O148 2.352 . S
Cd144 O152 2.277 . S
Cd144 O153 2.356 . S
C145 O150 1.209 . S
C145 O152 1.226 . S
O146 Cd142 2.273 . S
O146 Cd144 2.411 . S
O146 C149 1.320 . S
O147 Cd144 2.333 . S
O147 C149 1.214 . S
O148 Cd144 2.352 . S
O148 C151 1.258 . S
C149 O146 1.320 . S
C149 O147 1.214 . S
O150 Cd142 2.277 . S
O150 C145 1.209 . S
C151 O148 1.258 . S
C151 O153 1.282 . S
O152 Cd144 2.277 . S
O152 C145 1.226 . S
O153 Cd144 2.356 . S
O153 C151 1.282 . S
C154 O155 1.306 . S
C154 O157 1.160 . S
O155 C154 1.306 . S
O155 Cd156 2.228 . S
Cd156 O155 2.228 . S
Cd156 O160 2.273 . S
Cd156 O164 2.277 . S
O157 C154 1.160 . S
O157 Cd158 2.203 . S
Cd158 O157 2.203 . S
Cd158 O160 2.411 . S
Cd158 O161 2.333 . S
Cd158 O162 2.352 . S
Cd158 O166 2.277 . S
Cd158 O167 2.356 . S
C159 O164 1.209 . S
C159 O166 1.226 . S
O160 Cd156 2.273 . S
O160 Cd158 2.411 . S
O160 C163 1.320 . S
O161 Cd158 2.333 . S
O161 C163 1.214 . S
O162 Cd158 2.352 . S
O162 C165 1.258 . S
C163 O160 1.320 . S
C163 O161 1.214 . S
O164 Cd156 2.277 . S
O164 C159 1.209 . S
C165 O162 1.258 . S
C165 O167 1.282 . S
O166 Cd158 2.277 . S
O166 C159 1.226 . S
O167 Cd158 2.356 . S
O167 C165 1.282 . S
C168 O169 1.306 . S
C168 O171 1.160 . S
O169 C168 1.306 . S
O169 Cd170 2.228 . S
Cd170 O169 2.228 . S
Cd170 O174 2.273 . S
Cd170 O178 2.277 . S
O171 C168 1.160 . S
O171 Cd172 2.203 . S
Cd172 O171 2.203 . S
Cd172 O174 2.411 . S
Cd172 O175 2.333 . S
Cd172 O176 2.352 . S
Cd172 O180 2.277 . S
Cd172 O181 2.356 . S
C173 O178 1.209 . S
C173 O180 1.226 . S
O174 Cd170 2.273 . S
O174 Cd172 2.411 . S
O174 C177 1.320 . S
O175 Cd172 2.333 . S
O175 C177 1.214 . S
O176 Cd172 2.352 . S
O176 C179 1.258 . S
C177 O174 1.320 . S
C177 O175 1.214 . S
O178 Cd170 2.277 . S
O178 C173 1.209 . S
C179 O176 1.258 . S
C179 O181 1.282 . S
O180 Cd172 2.277 . S
O180 C173 1.226 . S
O181 Cd172 2.356 . S
O181 C179 1.282 . S
C182 O183 1.306 . S
C182 O185 1.160 . S
O183 C182 1.306 . S
O183 Cd184 2.228 . S
Cd184 O183 2.228 . S
Cd184 O188 2.273 . S
Cd184 O192 2.277 . S
O185 C182 1.160 . S
O185 Cd186 2.203 . S
Cd186 O185 2.203 . S
Cd186 O188 2.411 . S
Cd186 O189 2.333 . S
Cd186 O190 2.352 . S
Cd186 O194 2.277 . S
Cd186 O195 2.356 . S
C187 O192 1.209 . S
C187 O194 1.226 . S
O188 Cd184 2.273 . S
O188 Cd186 2.411 . S
O188 C191 1.320 . S
O189 Cd186 2.333 . S
O189 C191 1.214 . S
O190 Cd186 2.352 . S
O190 C193 1.258 . S
C191 O188 1.320 . S
C191 O189 1.214 . S
O192 Cd184 2.277 . S
O192 C187 1.209 . S
C193 O190 1.258 . S
C193 O195 1.282 . S
O194 Cd186 2.277 . S
O194 C187 1.226 . S
O195 Cd186 2.356 . S
O195 C193 1.282 . S
C196 O197 1.306 . S
C196 O199 1.160 . S
O197 C196 1.306 . S
O197 Cd198 2.228 . S
Cd198 O197 2.228 . S
Cd198 O202 2.273 . S
Cd198 O206 2.277 . S
O199 C196 1.160 . S
O199 Cd200 2.203 . S
Cd200 O199 2.203 . S
Cd200 O202 2.411 . S
Cd200 O203 2.333 . S
Cd200 O204 2.352 . S
Cd200 O208 2.277 . S
Cd200 O209 2.356 . S
C201 O206 1.209 . S
C201 O208 1.226 . S
O202 Cd198 2.273 . S
O202 Cd200 2.411 . S
O202 C205 1.320 . S
O203 Cd200 2.333 . S
O203 C205 1.214 . S
O204 Cd200 2.352 . S
O204 C207 1.258 . S
C205 O202 1.320 . S
C205 O203 1.214 . S
O206 Cd198 2.277 . S
O206 C201 1.209 . S
C207 O204 1.258 . S
C207 O209 1.282 . S
O208 Cd200 2.277 . S
O208 C201 1.226 . S
O209 Cd200 2.356 . S
O209 C207 1.282 . S
C210 O211 1.306 . S
C210 O213 1.160 . S
O211 C210 1.306 . S
O211 Cd212 2.228 . S
Cd212 O211 2.228 . S
Cd212 O216 2.273 . S
Cd212 O220 2.277 . S
O213 C210 1.160 . S
O213 Cd214 2.203 . S
Cd214 O213 2.203 . S
Cd214 O216 2.411 . S
Cd214 O217 2.333 . S
Cd214 O218 2.352 . S
Cd214 O222 2.277 . S
Cd214 O223 2.356 . S
C215 O220 1.209 . S
C215 O222 1.226 . S
O216 Cd212 2.273 . S
O216 Cd214 2.411 . S
O216 C219 1.320 . S
O217 Cd214 2.333 . S
O217 C219 1.214 . S
O218 Cd214 2.352 . S
O218 C221 1.258 . S
C219 O216 1.320 . S
C219 O217 1.214 . S
O220 Cd212 2.277 . S
O220 C215 1.209 . S
C221 O218 1.258 . S
C221 O223 1.282 . S
O222 Cd214 2.277 . S
O222 C215 1.226 . S
O223 Cd214 2.356 . S
O223 C221 1.282 . S
H224 C232 0.950 . S
H225 C237 0.950 . S
H226 C234 0.950 . S
H227 C236 0.950 . S
H228 C238 0.950 . S
H229 C240 0.950 1_554 S
H230 C242 0.950 . S
H231 C243 0.950 . S
C232 H224 0.950 . S
C232 C233 1.386 . S
C232 C234 1.391 1_554 S
C233 C232 1.386 . S
C233 C237 1.393 . S
C234 H226 0.950 . S
C234 C232 1.391 1_556 S
C234 C235 1.395 1_556 S
C235 C234 1.395 1_554 S
C235 C236 1.418 . S
C235 C241 1.477 1_554 S
C236 H227 0.950 . S
C236 C235 1.418 . S
C236 C237 1.391 . S
C237 H225 0.950 . S
C237 C233 1.393 . S
C237 C236 1.391 . S
C238 H228 0.950 . S
C238 C239 1.386 . S
C238 C240 1.391 . S
C239 C238 1.386 . S
C239 C243 1.393 . S
C240 H229 0.950 1_556 S
C240 C238 1.391 . S
C240 C241 1.400 . S
C241 C235 1.477 1_556 S
C241 C240 1.400 . S
C241 C242 1.398 . S
C242 H230 0.950 . S
C242 C241 1.398 . S
C242 C243 1.391 . S
C243 H231 0.950 . S
C243 C239 1.393 . S
C243 C242 1.391 . S
H244 C252 0.950 . S
H245 C257 0.950 . S
H246 C254 0.950 . S
H247 C256 0.950 . S
H248 C258 0.950 . S
H249 C260 0.950 . S
H250 C262 0.950 . S
H251 C263 0.950 . S
C252 H244 0.950 . S
C252 C253 1.386 . S
C252 C254 1.391 . S
C253 C252 1.386 . S
C253 C257 1.393 . S
C254 H246 0.950 . S
C254 C252 1.391 . S
C254 C255 1.400 . S
C255 C254 1.400 . S
C255 C256 1.398 . S
C255 C261 1.491 . S
C256 H247 0.950 . S
C256 C255 1.398 . S
C256 C257 1.391 . S
C257 H245 0.950 . S
C257 C253 1.393 . S
C257 C256 1.391 . S
C258 H248 0.950 . S
C258 C259 1.386 . S
C258 C260 1.391 . S
C259 C258 1.386 . S
C259 C263 1.393 . S
C260 H249 0.950 . S
C260 C258 1.391 . S
C260 C261 1.400 . S
C261 C255 1.491 . S
C261 C260 1.400 . S
C261 C262 1.398 . S
C262 H250 0.950 . S
C262 C261 1.398 . S
C262 C263 1.391 . S
C263 H251 0.950 . S
C263 C259 1.393 . S
C263 C262 1.391 . S
H264 C272 0.950 . S
H265 C277 0.950 1_554 S
H266 C274 0.950 . S
H267 C276 0.950 . S
H268 C278 0.950 . S
H269 C280 0.950 . S
H270 C282 0.950 1_556 S
H271 C283 0.950 . S
C272 H264 0.950 . S
C272 C273 1.386 . S
C272 C274 1.391 . S
C273 C272 1.386 . S
C273 C277 1.393 . S
C274 H266 0.950 . S
C274 C272 1.391 . S
C274 C275 1.400 . S
C275 C274 1.400 . S
C275 C276 1.398 1_556 S
C275 C281 1.491 1_556 S
C276 H267 0.950 . S
C276 C275 1.398 1_554 S
C276 C277 1.391 1_554 S
C277 H265 0.950 1_556 S
C277 C273 1.393 . S
C277 C276 1.391 1_556 S
C278 H268 0.950 . S
C278 C279 1.386 . S
C278 C280 1.391 . S
C279 C278 1.386 . S
C279 C283 1.393 . S
C280 H269 0.950 . S
C280 C278 1.391 . S
C280 C281 1.400 . S
C281 C275 1.491 1_554 S
C281 C280 1.400 . S
C281 C282 1.398 . S
C282 H270 0.950 1_554 S
C282 C281 1.398 . S
C282 C283 1.391 . S
C283 H271 0.950 . S
C283 C279 1.393 . S
C283 C282 1.391 . S
H284 C292 0.950 . S
H285 C297 0.950 . S
H286 C294 0.950 . S
H287 C296 0.950 . S
H288 C298 0.950 . S
H289 C300 0.950 . S
H290 C302 0.950 . S
H291 C303 0.950 . S
C292 H284 0.950 . S
C292 C293 1.386 . S
C292 C294 1.391 . S
C293 C292 1.386 . S
C293 C297 1.393 . S
C294 H286 0.950 . S
C294 C292 1.391 . S
C294 C295 1.400 . S
C295 C294 1.400 . S
C295 C296 1.398 . S
C295 C301 1.491 . S
C296 H287 0.950 . S
C296 C295 1.398 . S
C296 C297 1.391 . S
C297 H285 0.950 . S
C297 C293 1.393 . S
C297 C296 1.391 . S
C298 H288 0.950 . S
C298 C299 1.386 . S
C298 C300 1.391 . S
C299 C298 1.386 . S
C299 C303 1.393 . S
C300 H289 0.950 . S
C300 C298 1.391 . S
C300 C301 1.400 . S
C301 C295 1.491 . S
C301 C300 1.400 . S
C301 C302 1.398 . S
C302 H290 0.950 . S
C302 C301 1.398 . S
C302 C303 1.391 . S
C303 H291 0.950 . S
C303 C299 1.393 . S
C303 C302 1.391 . S
H304 C312 0.950 . S
H305 C317 0.950 . S
H306 C314 0.950 . S
H307 C316 0.950 . S
H308 C318 0.950 . S
H309 C320 0.950 . S
H310 C322 0.950 1_554 S
H311 C323 0.950 . S
C312 H304 0.950 . S
C312 C313 1.386 . S
C312 C314 1.391 . S
C313 C312 1.386 . S
C313 C317 1.393 . S
C314 H306 0.950 . S
C314 C312 1.391 . S
C314 C315 1.400 . S
C315 C314 1.400 . S
C315 C316 1.398 1_554 S
C315 C321 1.491 1_554 S
C316 H307 0.950 . S
C316 C315 1.398 1_556 S
C316 C317 1.391 1_556 S
C317 H305 0.950 . S
C317 C313 1.393 . S
C317 C316 1.391 1_554 S
C318 H308 0.950 . S
C318 C319 1.386 . S
C318 C320 1.391 . S
C319 C318 1.386 . S
C319 C323 1.393 . S
C320 H309 0.950 . S
C320 C318 1.391 . S
C320 C321 1.400 . S
C321 C315 1.491 1_556 S
C321 C320 1.400 . S
C321 C322 1.398 . S
C322 H310 0.950 1_556 S
C322 C321 1.398 . S
C322 C323 1.391 . S
C323 H311 0.950 . S
C323 C319 1.393 . S
C323 C322 1.391 . S
H324 C332 0.950 . S
H325 C337 0.950 . S
H326 C334 0.950 . S
H327 C336 0.950 . S
H328 C338 0.950 . S
H329 C340 0.950 . S
H330 C342 0.950 . S
H331 C343 0.950 . S
C332 H324 0.950 . S
C332 C333 1.386 . S
C332 C334 1.391 . S
C333 C332 1.386 . S
C333 C337 1.393 . S
C334 H326 0.950 . S
C334 C332 1.391 . S
C334 C335 1.400 . S
C335 C334 1.400 . S
C335 C336 1.398 . S
C335 C341 1.491 . S
C336 H327 0.950 . S
C336 C335 1.398 . S
C336 C337 1.391 . S
C337 H325 0.950 . S
C337 C333 1.393 . S
C337 C336 1.391 . S
C338 H328 0.950 . S
C338 C339 1.386 . S
C338 C340 1.391 . S
C339 C338 1.386 . S
C339 C343 1.393 . S
C340 H329 0.950 . S
C340 C338 1.391 . S
C340 C341 1.400 . S
C341 C335 1.491 . S
C341 C340 1.400 . S
C341 C342 1.398 . S
C342 H330 0.950 . S
C342 C341 1.398 . S
C342 C343 1.391 . S
C343 H331 0.950 . S
C343 C339 1.393 . S
C343 C342 1.391 . S
H344 C352 0.950 . S
H345 C357 0.950 1_554 S
H346 C354 0.950 . S
H347 C356 0.950 . S
H348 C358 0.950 . S
H349 C360 0.950 . S
H350 C362 0.924 1_556 S
H351 C363 0.950 . S
C352 H344 0.950 . S
C352 C353 1.386 . S
C352 C354 1.391 . S
C353 C352 1.386 . S
C353 C357 1.393 . S
C354 H346 0.950 . S
C354 C352 1.391 . S
C354 C355 1.400 . S
C355 C354 1.400 . S
C355 C356 1.398 1_556 S
C355 C361 1.491 1_556 S
C356 H347 0.950 . S
C356 C355 1.398 1_554 S
C356 C357 1.391 1_554 S
C357 H345 0.950 1_556 S
C357 C353 1.393 . S
C357 C356 1.391 1_556 S
C358 H348 0.950 . S
C358 C359 1.386 . S
C358 C360 1.391 . S
C359 C358 1.386 . S
C359 C363 1.393 . S
C360 H349 0.950 . S
C360 C358 1.391 . S
C360 C361 1.400 . S
C361 C355 1.491 1_554 S
C361 C360 1.400 . S
C361 C362 1.411 . S
C362 H350 0.924 1_554 S
C362 C361 1.411 . S
C362 C363 1.404 . S
C363 H351 0.950 . S
C363 C359 1.393 . S
C363 C362 1.404 . S
H364 C372 0.950 . S
H365 C377 0.950 . S
H366 C374 0.950 . S
H367 C376 0.950 . S
H368 C378 0.950 . S
H369 C380 0.950 . S
H370 C382 0.950 . S
H371 C383 0.950 . S
C372 H364 0.950 . S
C372 C373 1.386 . S
C372 C374 1.391 . S
C373 C372 1.386 . S
C373 C377 1.393 . S
C374 H366 0.950 . S
C374 C372 1.391 . S
C374 C375 1.400 . S
C375 C374 1.400 . S
C375 C376 1.398 . S
C375 C381 1.491 . S
C376 H367 0.950 . S
C376 C375 1.398 . S
C376 C377 1.391 . S
C377 H365 0.950 . S
C377 C373 1.393 . S
C377 C376 1.391 . S
C378 H368 0.950 . S
C378 C379 1.386 . S
C378 C380 1.391 . S
C379 C378 1.386 . S
C379 C383 1.393 . S
C380 H369 0.950 . S
C380 C378 1.391 . S
C380 C381 1.400 . S
C381 C375 1.491 . S
C381 C380 1.400 . S
C381 C382 1.398 . S
C382 H370 0.950 . S
C382 C381 1.398 . S
C382 C383 1.391 . S
C383 H371 0.950 . S
C383 C379 1.393 . S
C383 C382 1.391 . S
H384 C392 0.950 . S
H385 C397 0.950 1_556 S
H386 C394 0.950 . S
H387 C396 0.950 . S
H388 C398 0.950 . S
H389 C400 0.950 . S
H390 C402 0.950 . S
H391 C403 0.950 1_554 S
C392 H384 0.950 . S
C392 C393 1.386 . S
C392 C394 1.391 . S
C393 C392 1.386 . S
C393 C397 1.393 . S
C394 H386 0.950 . S
C394 C392 1.391 . S
C394 C395 1.400 . S
C395 C394 1.400 . S
C395 C396 1.398 1_554 S
C395 C401 1.491 1_544 S
C396 H387 0.950 . S
C396 C395 1.398 1_556 S
C396 C397 1.391 1_556 S
C397 H385 0.950 1_554 S
C397 C393 1.393 . S
C397 C396 1.391 1_554 S
C398 H388 0.950 . S
C398 C399 1.386 . S
C398 C400 1.391 . S
C399 C398 1.386 . S
C399 C403 1.393 . S
C400 H389 0.950 . S
C400 C398 1.391 . S
C400 C401 1.400 . S
C401 C395 1.491 1_566 S
C401 C400 1.400 . S
C401 C402 1.398 1_556 S
C402 H390 0.950 . S
C402 C401 1.398 1_554 S
C402 C403 1.391 1_554 S
C403 H391 0.950 1_556 S
C403 C399 1.393 . S
C403 C402 1.391 1_556 S
H404 C412 0.950 . S
H405 C417 0.950 . S
H406 C414 0.950 . S
H407 C416 0.950 . S
H408 C418 0.950 . S
H409 C420 0.950 . S
H410 C422 0.950 . S
H411 C423 0.950 . S
C412 H404 0.950 . S
C412 C413 1.386 . S
C412 C414 1.391 . S
C413 C412 1.386 . S
C413 C417 1.393 . S
C414 H406 0.950 . S
C414 C412 1.391 . S
C414 C415 1.400 . S
C415 C414 1.400 . S
C415 C416 1.398 . S
C415 C421 1.491 1_565 S
C416 H407 0.950 . S
C416 C415 1.398 . S
C416 C417 1.391 . S
C417 H405 0.950 . S
C417 C413 1.393 . S
C417 C416 1.391 . S
C418 H408 0.950 . S
C418 C419 1.386 . S
C418 C420 1.391 . S
C419 C418 1.386 . S
C419 C423 1.393 . S
C420 H409 0.950 . S
C420 C418 1.391 . S
C420 C421 1.400 . S
C421 C415 1.491 1_545 S
C421 C420 1.400 . S
C421 C422 1.398 . S
C422 H410 0.950 . S
C422 C421 1.398 . S
C422 C423 1.391 . S
C423 H411 0.950 . S
C423 C419 1.393 . S
C423 C422 1.391 . S
H424 C432 0.950 . S
H425 C437 0.950 . S
H426 C434 0.954 . S
H427 C436 0.950 1_545 S
H428 C438 0.950 . S
H429 C440 0.954 . S
H430 C442 0.950 1_565 S
H431 C443 0.950 . S
C432 H424 0.950 . S
C432 C433 1.386 . S
C432 C434 1.388 1_556 S
C433 C432 1.386 . S
C433 C437 1.393 . S
C434 H426 0.954 . S
C434 C432 1.388 1_554 S
C434 C435 1.399 1_554 S
C435 C434 1.399 1_556 S
C435 C436 1.398 . S
C435 C441 1.491 1_566 S
C436 H427 0.950 1_565 S
C436 C435 1.398 . S
C436 C437 1.391 . S
C437 H425 0.950 . S
C437 C433 1.393 . S
C437 C436 1.391 . S
C438 H428 0.950 . S
C438 C439 1.386 . S
C438 C440 1.388 1_554 S
C439 C438 1.386 . S
C439 C443 1.393 . S
C440 H429 0.954 . S
C440 C438 1.388 1_556 S
C440 C441 1.399 1_556 S
C441 C435 1.491 1_544 S
C441 C440 1.399 1_554 S
C441 C442 1.398 . S
C442 H430 0.950 1_545 S
C442 C441 1.398 . S
C442 C443 1.391 . S
C443 H431 0.950 . S
C443 C439 1.393 . S
C443 C442 1.391 . S
H444 C452 0.950 . S
H445 C457 0.950 . S
H446 C454 0.950 . S
H447 C456 0.950 1_565 S
H448 C458 0.950 . S
H449 C460 0.950 . S
H450 C462 0.950 1_545 S
H451 C463 0.950 . S
C452 H444 0.950 . S
C452 C453 1.386 . S
C452 C454 1.391 . S
C453 C452 1.386 . S
C453 C457 1.393 . S
C454 H446 0.950 . S
C454 C452 1.391 . S
C454 C455 1.400 . S
C455 C454 1.400 . S
C455 C456 1.398 . S
C455 C461 1.491 1_545 S
C456 H447 0.950 1_545 S
C456 C455 1.398 . S
C456 C457 1.391 . S
C457 H445 0.950 . S
C457 C453 1.393 . S
C457 C456 1.391 . S
C458 H448 0.950 . S
C458 C459 1.386 . S
C458 C460 1.391 . S
C459 C458 1.386 . S
C459 C463 1.393 . S
C460 H449 0.950 . S
C460 C458 1.391 . S
C460 C461 1.400 . S
C461 C455 1.491 1_565 S
C461 C460 1.400 . S
C461 C462 1.398 . S
C462 H450 0.950 1_565 S
C462 C461 1.398 . S
C462 C463 1.391 . S
C463 H451 0.950 . S
C463 C459 1.393 . S
C463 C462 1.391 . S
H464 C472 0.950 . S
H465 C477 0.950 1_554 S
H466 C474 0.950 . S
H467 C476 0.950 . S
H468 C478 0.950 . S
H469 C480 0.950 . S
H470 C482 0.950 . S
H471 C483 0.950 1_556 S
C472 H464 0.950 . S
C472 C473 1.386 . S
C472 C474 1.391 . S
C473 C472 1.386 . S
C473 C477 1.393 . S
C474 H466 0.950 . S
C474 C472 1.391 . S
C474 C475 1.400 . S
C475 C474 1.400 . S
C475 C476 1.398 1_556 S
C475 C481 1.491 1_556 S
C476 H467 0.950 . S
C476 C475 1.398 1_554 S
C476 C477 1.391 1_554 S
C477 H465 0.950 1_556 S
C477 C473 1.393 . S
C477 C476 1.391 1_556 S
C478 H468 0.950 . S
C478 C479 1.386 . S
C478 C480 1.391 . S
C479 C478 1.386 . S
C479 C483 1.393 . S
C480 H469 0.950 . S
C480 C478 1.391 . S
C480 C481 1.400 . S
C481 C475 1.491 1_554 S
C481 C480 1.400 . S
C481 C482 1.398 1_554 S
C482 H470 0.950 . S
C482 C481 1.398 1_556 S
C482 C483 1.391 1_556 S
C483 H471 0.950 1_554 S
C483 C479 1.393 . S
C483 C482 1.391 1_554 S
H484 C492 0.950 . S
H485 C497 0.950 . S
H486 C494 0.950 . S
H487 C496 0.950 . S
H488 C498 0.950 . S
H489 C500 0.950 . S
H490 C502 0.950 . S
H491 C503 0.950 . S
C492 H484 0.950 . S
C492 C493 1.386 . S
C492 C494 1.391 . S
C493 C492 1.386 . S
C493 C497 1.393 . S
C494 H486 0.950 . S
C494 C492 1.391 . S
C494 C495 1.400 . S
C495 C494 1.400 . S
C495 C496 1.398 . S
C495 C501 1.491 . S
C496 H487 0.950 . S
C496 C495 1.398 . S
C496 C497 1.391 . S
C497 H485 0.950 . S
C497 C493 1.393 . S
C497 C496 1.391 . S
C498 H488 0.950 . S
C498 C499 1.386 . S
C498 C500 1.391 . S
C499 C498 1.386 . S
C499 C503 1.393 . S
C500 H489 0.950 . S
C500 C498 1.391 . S
C500 C501 1.400 . S
C501 C495 1.491 . S
C501 C500 1.400 . S
C501 C502 1.398 . S
C502 H490 0.950 . S
C502 C501 1.398 . S
C502 C503 1.391 . S
C503 H491 0.950 . S
C503 C499 1.393 . S
C503 C502 1.391 . S
H504 C512 0.950 . S
H505 C517 0.950 . S
H506 C514 0.950 1_556 S
H507 C516 0.950 . S
H508 C518 0.950 . S
H509 C520 0.950 1_554 S
H510 C522 0.950 . S
H511 C523 0.950 . S
C512 H504 0.950 . S
C512 C513 1.386 . S
C512 C514 1.391 . S
C513 C512 1.386 . S
C513 C517 1.393 . S
C514 H506 0.950 1_554 S
C514 C512 1.391 . S
C514 C515 1.400 . S
C515 C514 1.400 . S
C515 C516 1.398 . S
C515 C521 1.491 1_554 S
C516 H507 0.950 . S
C516 C515 1.398 . S
C516 C517 1.391 . S
C517 H505 0.950 . S
C517 C513 1.393 . S
C517 C516 1.391 . S
C518 H508 0.950 . S
C518 C519 1.386 . S
C518 C520 1.391 . S
C519 C518 1.386 . S
C519 C523 1.393 . S
C520 H509 0.950 1_556 S
C520 C518 1.391 . S
C520 C521 1.400 . S
C521 C515 1.491 1_556 S
C521 C520 1.400 . S
C521 C522 1.398 . S
C522 H510 0.950 . S
C522 C521 1.398 . S
C522 C523 1.391 . S
C523 H511 0.950 . S
C523 C519 1.393 . S
C523 C522 1.391 . S
H524 C532 0.950 . S
H525 C537 0.950 . S
H526 C534 0.950 . S
H527 C536 0.950 . S
H528 C538 0.950 . S
H529 C540 0.950 . S
H530 C542 0.950 . S
H531 C543 0.950 . S
C532 H524 0.950 . S
C532 C533 1.386 . S
C532 C534 1.391 . S
C533 C532 1.386 . S
C533 C537 1.393 . S
C534 H526 0.950 . S
C534 C532 1.391 . S
C534 C535 1.400 . S
C535 C534 1.400 . S
C535 C536 1.398 . S
C535 C541 1.491 . S
C536 H527 0.950 . S
C536 C535 1.398 . S
C536 C537 1.391 . S
C537 H525 0.950 . S
C537 C533 1.393 . S
C537 C536 1.391 . S
C538 H528 0.950 . S
C538 C539 1.386 . S
C538 C540 1.391 . S
C539 C538 1.386 . S
C539 C543 1.393 . S
C540 H529 0.950 . S
C540 C538 1.391 . S
C540 C541 1.400 . S
C541 C535 1.491 . S
C541 C540 1.400 . S
C541 C542 1.398 . S
C542 H530 0.950 . S
C542 C541 1.398 . S
C542 C543 1.391 . S
C543 H531 0.950 . S
C543 C539 1.393 . S
C543 C542 1.391 . S
H544 C552 0.950 . S
H545 C557 0.950 . S
H546 C554 0.950 . S
H547 C556 0.950 . S
H548 C558 0.950 . S
H549 C560 0.950 . S
H550 C562 0.950 . S
H551 C563 0.950 . S
C552 H544 0.950 . S
C552 C553 1.386 . S
C552 C554 1.391 . S
C553 C552 1.386 . S
C553 C557 1.393 . S
C554 H546 0.950 . S
C554 C552 1.391 . S
C554 C555 1.400 . S
C555 C554 1.400 . S
C555 C556 1.398 . S
C555 C561 1.491 . S
C556 H547 0.950 . S
C556 C555 1.398 . S
C556 C557 1.391 . S
C557 H545 0.950 . S
C557 C553 1.393 . S
C557 C556 1.391 . S
C558 H548 0.950 . S
C558 C559 1.386 . S
C558 C560 1.391 . S
C559 C558 1.386 . S
C559 C563 1.393 . S
C560 H549 0.950 . S
C560 C558 1.391 . S
C560 C561 1.400 . S
C561 C555 1.491 . S
C561 C560 1.400 . S
C561 C562 1.398 . S
C562 H550 0.950 . S
C562 C561 1.398 . S
C562 C563 1.391 . S
C563 H551 0.950 . S
C563 C559 1.393 . S
C563 C562 1.391 . S
H564 C572 0.950 . S
H565 C577 0.950 . S
H566 C574 0.950 . S
H567 C576 0.950 . S
H568 C578 0.950 . S
H569 C580 0.950 . S
H570 C582 0.950 . S
H571 C583 0.950 . S
C572 H564 0.950 . S
C572 C573 1.386 . S
C572 C574 1.391 . S
C573 C572 1.386 . S
C573 C577 1.393 . S
C574 H566 0.950 . S
C574 C572 1.391 . S
C574 C575 1.400 . S
C575 C574 1.400 . S
C575 C576 1.398 . S
C575 C581 1.491 1_655 S
C576 H567 0.950 . S
C576 C575 1.398 . S
C576 C577 1.391 . S
C577 H565 0.950 . S
C577 C573 1.393 . S
C577 C576 1.391 . S
C578 H568 0.950 . S
C578 C579 1.386 . S
C578 C580 1.391 . S
C579 C578 1.386 . S
C579 C583 1.393 . S
C580 H569 0.950 . S
C580 C578 1.391 . S
C580 C581 1.400 . S
C581 C575 1.491 1_455 S
C581 C580 1.400 . S
C581 C582 1.398 . S
C582 H570 0.950 . S
C582 C581 1.398 . S
C582 C583 1.391 . S
C583 H571 0.950 . S
C583 C579 1.393 . S
C583 C582 1.391 . S
H584 C592 0.950 . S
H585 C597 0.950 . S
H586 C594 0.950 . S
H587 C596 0.950 . S
H588 C598 0.950 . S
H589 C600 0.950 . S
H590 C602 0.950 . S
H591 C603 0.950 . S
C592 H584 0.950 . S
C592 C593 1.386 . S
C592 C594 1.391 . S
C593 C592 1.386 . S
C593 C597 1.393 . S
C594 H586 0.950 . S
C594 C592 1.391 . S
C594 C595 1.400 . S
C595 C594 1.400 . S
C595 C596 1.398 . S
C595 C601 1.491 . S
C596 H587 0.950 . S
C596 C595 1.398 . S
C596 C597 1.391 . S
C597 H585 0.950 . S
C597 C593 1.393 . S
C597 C596 1.391 . S
C598 H588 0.950 . S
C598 C599 1.386 . S
C598 C600 1.391 . S
C599 C598 1.386 . S
C599 C603 1.393 . S
C600 H589 0.950 . S
C600 C598 1.391 . S
C600 C601 1.400 . S
C601 C595 1.491 . S
C601 C600 1.400 . S
C601 C602 1.398 . S
C602 H590 0.950 . S
C602 C601 1.398 . S
C602 C603 1.391 . S
C603 H591 0.950 . S
C603 C599 1.393 . S
C603 C602 1.391 . S
H604 C612 0.950 . S
H605 C617 0.950 . S
H606 C614 0.950 . S
H607 C616 0.950 . S
H608 C618 0.950 . S
H609 C620 0.950 . S
H610 C622 0.950 . S
H611 C623 0.950 . S
C612 H604 0.950 . S
C612 C613 1.386 . S
C612 C614 1.391 . S
C613 C612 1.386 . S
C613 C617 1.393 . S
C614 H606 0.950 . S
C614 C612 1.391 . S
C614 C615 1.400 . S
C615 C614 1.400 . S
C615 C616 1.398 . S
C615 C621 1.491 1_455 S
C616 H607 0.950 . S
C616 C615 1.398 . S
C616 C617 1.391 . S
C617 H605 0.950 . S
C617 C613 1.393 . S
C617 C616 1.391 . S
C618 H608 0.950 . S
C618 C619 1.386 . S
C618 C620 1.391 . S
C619 C618 1.386 . S
C619 C623 1.393 . S
C620 H609 0.950 . S
C620 C618 1.391 . S
C620 C621 1.400 . S
C621 C615 1.491 1_655 S
C621 C620 1.400 . S
C621 C622 1.398 . S
C622 H610 0.950 . S
C622 C621 1.398 . S
C622 C623 1.391 . S
C623 H611 0.950 . S
C623 C619 1.393 . S
C623 C622 1.391 . S
H624 C632 0.950 . S
H625 C637 0.950 . S
H626 C634 0.950 . S
H627 C636 0.950 . S
H628 C638 0.950 . S
H629 C640 0.950 . S
H630 C642 0.950 . S
H631 C643 0.950 . S
C632 H624 0.950 . S
C632 C633 1.386 . S
C632 C634 1.391 . S
C633 C632 1.386 . S
C633 C637 1.393 . S
C634 H626 0.950 . S
C634 C632 1.391 . S
C634 C635 1.400 . S
C635 C634 1.400 . S
C635 C636 1.398 . S
C635 C641 1.491 1_455 S
C636 H627 0.950 . S
C636 C635 1.398 . S
C636 C637 1.391 . S
C637 H625 0.950 . S
C637 C633 1.393 . S
C637 C636 1.391 . S
C638 H628 0.950 . S
C638 C639 1.386 . S
C638 C640 1.391 . S
C639 C638 1.386 . S
C639 C643 1.393 . S
C640 H629 0.950 . S
C640 C638 1.391 . S
C640 C641 1.400 . S
C641 C635 1.491 1_655 S
C641 C640 1.400 . S
C641 C642 1.398 . S
C642 H630 0.950 . S
C642 C641 1.398 . S
C642 C643 1.391 . S
C643 H631 0.950 . S
C643 C639 1.393 . S
C643 C642 1.391 . S
H644 C652 0.950 . S
H645 C657 0.950 . S
H646 C654 0.950 . S
H647 C656 0.950 . S
H648 C658 0.950 . S
H649 C660 0.950 . S
H650 C662 0.950 . S
H651 C663 0.950 . S
C652 H644 0.950 . S
C652 C653 1.386 . S
C652 C654 1.391 . S
C653 C652 1.386 . S
C653 C657 1.393 . S
C654 H646 0.950 . S
C654 C652 1.391 . S
C654 C655 1.400 . S
C655 C654 1.400 . S
C655 C656 1.398 . S
C655 C661 1.491 . S
C656 H647 0.950 . S
C656 C655 1.398 . S
C656 C657 1.391 . S
C657 H645 0.950 . S
C657 C653 1.393 . S
C657 C656 1.391 . S
C658 H648 0.950 . S
C658 C659 1.386 . S
C658 C660 1.391 . S
C659 C658 1.386 . S
C659 C663 1.393 . S
C660 H649 0.950 . S
C660 C658 1.391 . S
C660 C661 1.400 . S
C661 C655 1.491 . S
C661 C660 1.400 . S
C661 C662 1.398 . S
C662 H650 0.950 . S
C662 C661 1.398 . S
C662 C663 1.391 . S
C663 H651 0.950 . S
C663 C659 1.393 . S
C663 C662 1.391 . S
H664 C672 0.950 . S
H665 C677 0.950 . S
H666 C674 0.950 . S
H667 C676 0.950 . S
H668 C678 0.950 . S
H669 C680 0.950 . S
H670 C682 0.950 . S
H671 C683 0.950 . S
C672 H664 0.950 . S
C672 C673 1.386 . S
C672 C674 1.391 . S
C673 C672 1.386 . S
C673 C677 1.393 . S
C674 H666 0.950 . S
C674 C672 1.391 . S
C674 C675 1.400 . S
C675 C674 1.400 . S
C675 C676 1.398 . S
C675 C681 1.491 1_455 S
C676 H667 0.950 . S
C676 C675 1.398 . S
C676 C677 1.391 . S
C677 H665 0.950 . S
C677 C673 1.393 . S
C677 C676 1.391 . S
C678 H668 0.950 . S
C678 C679 1.386 . S
C678 C680 1.391 . S
C679 C678 1.386 . S
C679 C683 1.393 . S
C680 H669 0.950 . S
C680 C678 1.391 . S
C680 C681 1.400 . S
C681 C675 1.491 1_655 S
C681 C680 1.400 . S
C681 C682 1.398 . S
C682 H670 0.950 . S
C682 C681 1.398 . S
C682 C683 1.391 . S
C683 H671 0.950 . S
C683 C679 1.393 . S
C683 C682 1.391 . S
H684 C692 0.950 . S
H685 C697 0.950 . S
H686 C694 0.950 . S
H687 C696 0.950 . S
H688 C698 0.950 . S
H689 C700 0.950 . S
H690 C702 0.950 . S
H691 C703 0.950 . S
C692 H684 0.950 . S
C692 C693 1.386 . S
C692 C694 1.391 . S
C693 C692 1.386 . S
C693 C697 1.393 . S
C694 H686 0.950 . S
C694 C692 1.391 . S
C694 C695 1.400 . S
C695 C694 1.400 . S
C695 C696 1.398 . S
C695 C701 1.491 . S
C696 H687 0.950 . S
C696 C695 1.398 . S
C696 C697 1.391 . S
C697 H685 0.950 . S
C697 C693 1.393 . S
C697 C696 1.391 . S
C698 H688 0.950 . S
C698 C699 1.386 . S
C698 C700 1.391 . S
C699 C698 1.386 . S
C699 C703 1.393 . S
C700 H689 0.950 . S
C700 C698 1.391 . S
C700 C701 1.400 . S
C701 C695 1.491 . S
C701 C700 1.400 . S
C701 C702 1.398 . S
C702 H690 0.950 . S
C702 C701 1.398 . S
C702 C703 1.391 . S
C703 H691 0.950 . S
C703 C699 1.393 . S
C703 C702 1.391 . S
H704 C712 0.950 . S
H705 C717 0.950 . S
H706 C714 0.950 . S
H707 C716 0.950 . S
H708 C718 0.950 . S
H709 C720 0.950 . S
H710 C722 0.950 . S
H711 C723 0.950 . S
C712 H704 0.950 . S
C712 C713 1.386 . S
C712 C714 1.391 . S
C713 C712 1.386 . S
C713 C717 1.393 . S
C714 H706 0.950 . S
C714 C712 1.391 . S
C714 C715 1.400 . S
C715 C714 1.400 . S
C715 C716 1.398 . S
C715 C721 1.491 . S
C716 H707 0.950 . S
C716 C715 1.398 . S
C716 C717 1.391 . S
C717 H705 0.950 . S
C717 C713 1.393 . S
C717 C716 1.391 . S
C718 H708 0.950 . S
C718 C719 1.386 . S
C718 C720 1.391 . S
C719 C718 1.386 . S
C719 C723 1.393 . S
C720 H709 0.950 . S
C720 C718 1.391 . S
C720 C721 1.400 . S
C721 C715 1.491 . S
C721 C720 1.400 . S
C721 C722 1.398 . S
C722 H710 0.950 . S
C722 C721 1.398 . S
C722 C723 1.391 . S
C723 H711 0.950 . S
C723 C719 1.393 . S
C723 C722 1.391 . S
H724 C732 0.950 . S
H725 C737 0.950 . S
H726 C734 0.950 . S
H727 C736 0.950 . S
H728 C738 0.950 . S
H729 C740 0.950 . S
H730 C742 0.950 . S
H731 C743 0.950 . S
C732 H724 0.950 . S
C732 C733 1.386 . S
C732 C734 1.391 . S
C733 C732 1.386 . S
C733 C737 1.393 . S
C734 H726 0.950 . S
C734 C732 1.391 . S
C734 C735 1.400 . S
C735 C734 1.400 . S
C735 C736 1.398 . S
C735 C741 1.491 . S
C736 H727 0.950 . S
C736 C735 1.398 . S
C736 C737 1.391 . S
C737 H725 0.950 . S
C737 C733 1.393 . S
C737 C736 1.391 . S
C738 H728 0.950 . S
C738 C739 1.386 . S
C738 C740 1.391 . S
C739 C738 1.386 . S
C739 C743 1.393 . S
C740 H729 0.950 . S
C740 C738 1.391 . S
C740 C741 1.400 . S
C741 C735 1.491 . S
C741 C740 1.400 . S
C741 C742 1.398 . S
C742 H730 0.950 . S
C742 C741 1.398 . S
C742 C743 1.391 . S
C743 H731 0.950 . S
C743 C739 1.393 . S
C743 C742 1.391 . S
H744 C752 0.950 . S
H745 C757 0.950 . S
H746 C754 0.950 . S
H747 C756 0.950 . S
H748 C758 0.950 . S
H749 C760 0.950 . S
H750 C762 0.950 . S
H751 C763 0.950 . S
C752 H744 0.950 . S
C752 C753 1.386 . S
C752 C754 1.391 . S
C753 C752 1.386 . S
C753 C757 1.393 . S
C754 H746 0.950 . S
C754 C752 1.391 . S
C754 C755 1.400 . S
C755 C754 1.400 . S
C755 C756 1.398 . S
C755 C761 1.491 . S
C756 H747 0.950 . S
C756 C755 1.398 . S
C756 C757 1.391 . S
C757 H745 0.950 . S
C757 C753 1.393 . S
C757 C756 1.391 . S
C758 H748 0.950 . S
C758 C759 1.386 . S
C758 C760 1.391 . S
C759 C758 1.386 . S
C759 C763 1.393 . S
C760 H749 0.950 . S
C760 C758 1.391 . S
C760 C761 1.400 . S
C761 C755 1.491 . S
C761 C760 1.400 . S
C761 C762 1.398 . S
C762 H750 0.950 . S
C762 C761 1.398 . S
C762 C763 1.391 . S
C763 H751 0.950 . S
C763 C759 1.393 . S
C763 C762 1.391 . S
H764 C772 0.950 . S
H765 C777 0.950 . S
H766 C774 0.950 . S
H767 C776 0.950 . S
H768 C778 0.950 . S
H769 C780 0.950 . S
H770 C782 0.950 . S
H771 C783 0.950 . S
C772 H764 0.950 . S
C772 C773 1.386 . S
C772 C774 1.391 . S
C773 C772 1.386 . S
C773 C777 1.393 . S
C774 H766 0.950 . S
C774 C772 1.391 . S
C774 C775 1.400 . S
C775 C774 1.400 . S
C775 C776 1.398 . S
C775 C781 1.491 . S
C776 H767 0.950 . S
C776 C775 1.398 . S
C776 C777 1.391 . S
C777 H765 0.950 . S
C777 C773 1.393 . S
C777 C776 1.391 . S
C778 H768 0.950 . S
C778 C779 1.386 . S
C778 C780 1.391 . S
C779 C778 1.386 . S
C779 C783 1.393 . S
C780 H769 0.950 . S
C780 C778 1.391 . S
C780 C781 1.400 . S
C781 C775 1.491 . S
C781 C780 1.400 . S
C781 C782 1.398 . S
C782 H770 0.950 . S
C782 C781 1.398 . S
C782 C783 1.391 . S
C783 H771 0.950 . S
C783 C779 1.393 . S
C783 C782 1.391 . S
H784 C792 0.950 . S
H785 C797 0.950 . S
H786 C794 0.950 . S
H787 C796 0.950 . S
H788 C798 0.950 . S
H789 C800 0.950 . S
H790 C802 0.950 . S
H791 C803 0.950 . S
C792 H784 0.950 . S
C792 C793 1.386 . S
C792 C794 1.391 . S
C793 C792 1.386 . S
C793 C797 1.393 . S
C794 H786 0.950 . S
C794 C792 1.391 . S
C794 C795 1.400 . S
C795 C794 1.400 . S
C795 C796 1.398 . S
C795 C801 1.491 . S
C796 H787 0.950 . S
C796 C795 1.398 . S
C796 C797 1.391 . S
C797 H785 0.950 . S
C797 C793 1.393 . S
C797 C796 1.391 . S
C798 H788 0.950 . S
C798 C799 1.386 . S
C798 C800 1.391 . S
C799 C798 1.386 . S
C799 C803 1.393 . S
C800 H789 0.950 . S
C800 C798 1.391 . S
C800 C801 1.400 . S
C801 C795 1.491 . S
C801 C800 1.400 . S
C801 C802 1.398 . S
C802 H790 0.950 . S
C802 C801 1.398 . S
C802 C803 1.391 . S
C803 H791 0.950 . S
C803 C799 1.393 . S
C803 C802 1.391 . S
H804 C812 0.950 . S
H805 C817 0.950 . S
H806 C814 0.950 . S
H807 C816 0.950 . S
H808 C818 0.950 . S
H809 C820 0.950 . S
H810 C822 0.950 . S
H811 C823 0.950 . S
C812 H804 0.950 . S
C812 C813 1.386 . S
C812 C814 1.391 . S
C813 C812 1.386 . S
C813 C817 1.393 . S
C814 H806 0.950 . S
C814 C812 1.391 . S
C814 C815 1.400 . S
C815 C814 1.400 . S
C815 C816 1.398 . S
C815 C821 1.491 . S
C816 H807 0.950 . S
C816 C815 1.398 . S
C816 C817 1.391 . S
C817 H805 0.950 . S
C817 C813 1.393 . S
C817 C816 1.391 . S
C818 H808 0.950 . S
C818 C819 1.386 . S
C818 C820 1.391 . S
C819 C818 1.386 . S
C819 C823 1.393 . S
C820 H809 0.950 . S
C820 C818 1.391 . S
C820 C821 1.400 . S
C821 C815 1.491 . S
C821 C820 1.400 . S
C821 C822 1.398 . S
C822 H810 0.950 . S
C822 C821 1.398 . S
C822 C823 1.391 . S
C823 H811 0.950 . S
C823 C819 1.393 . S
C823 C822 1.391 . S
H824 C832 0.950 . S
H825 C837 0.950 . S
H826 C834 0.950 . S
H827 C836 0.950 . S
H828 C838 0.950 . S
H829 C840 0.950 . S
H830 C842 0.950 . S
H831 C843 0.950 . S
C832 H824 0.950 . S
C832 C833 1.386 . S
C832 C834 1.391 . S
C833 C832 1.386 . S
C833 C837 1.393 . S
C834 H826 0.950 . S
C834 C832 1.391 . S
C834 C835 1.400 . S
C835 C834 1.400 . S
C835 C836 1.398 . S
C835 C841 1.491 . S
C836 H827 0.950 . S
C836 C835 1.398 . S
C836 C837 1.391 . S
C837 H825 0.950 . S
C837 C833 1.393 . S
C837 C836 1.391 . S
C838 H828 0.950 . S
C838 C839 1.386 . S
C838 C840 1.391 . S
C839 C838 1.386 . S
C839 C843 1.393 . S
C840 H829 0.950 . S
C840 C838 1.391 . S
C840 C841 1.400 . S
C841 C835 1.491 . S
C841 C840 1.400 . S
C841 C842 1.398 . S
C842 H830 0.950 . S
C842 C841 1.398 . S
C842 C843 1.391 . S
C843 H831 0.950 . S
C843 C839 1.393 . S
C843 C842 1.391 . S
H844 C852 0.950 . S
H845 C857 0.950 . S
H846 C854 0.950 . S
H847 C856 0.950 . S
H848 C858 0.950 . S
H849 C860 0.950 . S
H850 C862 0.950 . S
H851 C863 0.950 . S
C852 H844 0.950 . S
C852 C853 1.386 . S
C852 C854 1.391 . S
C853 C852 1.386 . S
C853 C857 1.393 . S
C854 H846 0.950 . S
C854 C852 1.391 . S
C854 C855 1.400 . S
C855 C854 1.400 . S
C855 C856 1.398 . S
C855 C861 1.491 . S
C856 H847 0.950 . S
C856 C855 1.398 . S
C856 C857 1.391 . S
C857 H845 0.950 . S
C857 C853 1.393 . S
C857 C856 1.391 . S
C858 H848 0.950 . S
C858 C859 1.386 . S
C858 C860 1.391 . S
C859 C858 1.386 . S
C859 C863 1.393 . S
C860 H849 0.950 . S
C860 C858 1.391 . S
C860 C861 1.400 . S
C861 C855 1.491 . S
C861 C860 1.400 . S
C861 C862 1.398 . S
C862 H850 0.950 . S
C862 C861 1.398 . S
C862 C863 1.391 . S
C863 H851 0.950 . S
C863 C859 1.393 . S
C863 C862 1.391 . S
C233 C9 1.506 . S
C239 C179 1.483 . S
C253 C193 1.484 . S
C259 C23 1.505 . S
C273 C37 1.502 . S
C279 C207 1.497 . S
C293 C221 1.485 . S
C299 C51 1.507 . S
C313 C121 1.501 . S
C319 C67 1.497 . S
C333 C81 1.489 . S
C339 C135 1.506 . S
C353 C149 1.504 . S
C359 C95 1.495 . S
C373 C109 1.488 . S
C379 C163 1.506 . S
C393 C5 1.472 . S
C399 C33 1.470 . S
C413 C19 1.457 . S
C419 C47 1.460 . S
C433 C61 1.680 . S
C439 C89 1.677 . S
C453 C75 1.682 . S
C459 C103 1.680 . S
C473 C145 1.461 . S
C479 C117 1.458 . S
C493 C131 1.459 . S
C499 C159 1.463 . S
C513 C201 1.683 . S
C519 C173 1.681 . S
C533 C187 1.681 . S
C539 C215 1.678 . S
C553 C84 1.486 . S
C559 C0 1.484 . S
C573 C98 1.485 . S
C579 C14 1.483 . S
C593 C28 1.478 . S
C599 C56 1.478 . S
C613 C42 1.481 . S
C619 C70 1.472 . S
C633 C196 1.490 . S
C639 C112 1.490 . S
C653 C126 1.478 . S
C659 C210 1.473 . S
C673 C168 1.480 . S
C679 C140 1.492 . S
C693 C154 1.493 . S
C699 C182 1.483 . S
C713 C11 1.199 . S
C719 C53 1.187 . S
C733 C39 1.188 . S
C739 C25 1.185 . S
C753 C65 1.773 . S
C759 C107 1.770 . S
C773 C79 1.771 . S
C779 C93 1.772 . S
C793 C165 1.183 . S
C799 C123 1.195 . S
C813 C137 1.199 . S
C819 C151 1.191 . S
C833 C219 1.770 . S
C839 C177 1.773 . S
C853 C191 1.774 . S
C859 C205 1.768 . S
