# Generated by pormake.
# Topology upa, (4)-cn, num edge types: 1
# Building blocks:
#     Node 0, Type 0, BuildingBlock: GALJAG_clean_sbu_0, # of connection points: 4
#     Node 1, Type 0, BuildingBlock: GALJAG_clean_sbu_0, # of connection points: 4
#     Node 2, Type 0, BuildingBlock: GALJAG_clean_sbu_0, # of connection points: 4
#     Node 3, Type 0, BuildingBlock: GALJAG_clean_sbu_0, # of connection points: 4
#     Node 4, Type 0, BuildingBlock: GALJAG_clean_sbu_0, # of connection points: 4
#     Node 5, Type 0, BuildingBlock: GALJAG_clean_sbu_0, # of connection points: 4
#     Node 6, Type 0, BuildingBlock: GALJAG_clean_sbu_0, # of connection points: 4
#     Node 7, Type 0, BuildingBlock: GALJAG_clean_sbu_0, # of connection points: 4
#     Edge 8, Type (0, 0), BuildingBlock: MIFKUJ_clean_linker_0, # of connection points: 2
#     Edge 9, Type (0, 0), BuildingBlock: MIFKUJ_clean_linker_0, # of connection points: 2
#     Edge 10, Type (0, 0), BuildingBlock: MIFKUJ_clean_linker_0, # of connection points: 2
#     Edge 11, Type (0, 0), BuildingBlock: MIFKUJ_clean_linker_0, # of connection points: 2
#     Edge 12, Type (0, 0), BuildingBlock: MIFKUJ_clean_linker_0, # of connection points: 2
#     Edge 13, Type (0, 0), BuildingBlock: MIFKUJ_clean_linker_0, # of connection points: 2
#     Edge 14, Type (0, 0), BuildingBlock: MIFKUJ_clean_linker_0, # of connection points: 2
#     Edge 15, Type (0, 0), BuildingBlock: MIFKUJ_clean_linker_0, # of connection points: 2
#     Edge 16, Type (0, 0), BuildingBlock: MIFKUJ_clean_linker_0, # of connection points: 2
#     Edge 17, Type (0, 0), BuildingBlock: MIFKUJ_clean_linker_0, # of connection points: 2
#     Edge 18, Type (0, 0), BuildingBlock: MIFKUJ_clean_linker_0, # of connection points: 2
#     Edge 19, Type (0, 0), BuildingBlock: MIFKUJ_clean_linker_0, # of connection points: 2
#     Edge 20, Type (0, 0), BuildingBlock: MIFKUJ_clean_linker_0, # of connection points: 2
#     Edge 21, Type (0, 0), BuildingBlock: MIFKUJ_clean_linker_0, # of connection points: 2
#     Edge 22, Type (0, 0), BuildingBlock: MIFKUJ_clean_linker_0, # of connection points: 2
#     Edge 23, Type (0, 0), BuildingBlock: MIFKUJ_clean_linker_0, # of connection points: 2
# Relax obj value: 0.230
# Max RMSD: 0.125
# Mean RMSD: 0.125
data_MOF--net-upa--node1-GALJAG_clean_sbu_0--edge1-MIFKUJ_clean_linker_0
_symmetry_space_group_name_H-M    P1
_symmetry_Int_Tables_number       1
_symmetry_cell_setting            triclinic
loop_
_symmetry_equiv_pos_as_xyz
'x, y, z'
_cell_length_a     34.764848
_cell_length_b     34.771646
_cell_length_c     55.370839
_cell_angle_alpha  89.927472
_cell_angle_beta   89.979872
_cell_angle_gamma 90.03164
loop_
_atom_site_label
_atom_site_type_symbol
_atom_site_fract_x
_atom_site_fract_y
_atom_site_fract_z
_atom_type_partial_charge
In0 In 0.18814 0.20911 0.32651 0.0
O1 O 0.18851 0.24726 0.36032 0.0
O2 O 0.21912 0.1943 0.36137 0.0
C3 C 0.13595 0.24386 0.29752 0.0
C4 C 0.25637 0.21361 0.30302 0.0
C5 C 0.14351 0.14764 0.33619 0.0
O6 O 0.14667 0.25852 0.31731 0.0
O7 O 0.1537 0.21363 0.29172 0.0
O8 O 0.17575 0.14418 0.32582 0.0
O9 O 0.13472 0.18154 0.34196 0.0
C10 C 0.20876 0.22413 0.37255 0.0
O11 O 0.23638 0.18329 0.30356 0.0
O12 O 0.24146 0.242 0.31374 0.0
In13 In 0.29187 0.69071 0.82518 0.0
O14 O 0.31498 0.74181 0.80382 0.0
O15 O 0.256 0.74314 0.81385 0.0
C16 C 0.35898 0.65265 0.83033 0.0
C17 C 0.27839 0.70902 0.87166 0.0
C18 C 0.25551 0.63514 0.79939 0.0
O19 O 0.35309 0.67586 0.81322 0.0
O20 O 0.33175 0.64987 0.84522 0.0
O21 O 0.24354 0.6459 0.81982 0.0
O22 O 0.28352 0.65431 0.7915 0.0
C23 C 0.28372 0.76012 0.80363 0.0
O24 O 0.2574 0.68564 0.86015 0.0
O25 O 0.30558 0.72361 0.85957 0.0
In26 In 0.81732 0.7878 0.32595 0.0
O27 O 0.7646 0.81806 0.31077 0.0
O28 O 0.76839 0.75762 0.30548 0.0
C29 C 0.86166 0.84834 0.33803 0.0
C30 C 0.79693 0.76421 0.37066 0.0
C31 C 0.87048 0.75883 0.29534 0.0
O32 O 0.83217 0.85204 0.32488 0.0
O33 O 0.86767 0.81469 0.34555 0.0
O34 O 0.85838 0.74001 0.31339 0.0
O35 O 0.85356 0.79045 0.29189 0.0
C36 C 0.74907 0.78806 0.30245 0.0
O37 O 0.81947 0.74489 0.35749 0.0
O38 O 0.78397 0.79432 0.36096 0.0
In39 In 0.69718 0.30699 0.8246 0.0
O40 O 0.67198 0.25134 0.80997 0.0
O41 O 0.73199 0.2595 0.80538 0.0
C42 C 0.62981 0.34483 0.82883 0.0
C43 C 0.71435 0.28956 0.87095 0.0
C44 C 0.73101 0.36475 0.79936 0.0
O45 O 0.63796 0.32463 0.81064 0.0
O46 O 0.65487 0.34463 0.84526 0.0
O47 O 0.74566 0.35166 0.81859 0.0
O48 O 0.70153 0.34694 0.79233 0.0
C49 C 0.70322 0.23786 0.80219 0.0
O50 O 0.73466 0.3125 0.85859 0.0
O51 O 0.6863 0.27503 0.85974 0.0
In52 In 0.68754 0.28998 0.1764 0.0
O53 O 0.7364 0.31399 0.19959 0.0
O54 O 0.74165 0.25645 0.18725 0.0
C55 C 0.64333 0.35299 0.17112 0.0
C56 C 0.70506 0.27853 0.12936 0.0
C57 C 0.63572 0.25258 0.20446 0.0
O58 O 0.6771 0.35497 0.17951 0.0
O59 O 0.63277 0.3198 0.1649 0.0
O60 O 0.64498 0.24063 0.1837 0.0
O61 O 0.65483 0.28124 0.2116 0.0
C62 C 0.75664 0.28391 0.19883 0.0
O63 O 0.68828 0.25326 0.14198 0.0
O64 O 0.71352 0.3089 0.14059 0.0
In65 In 0.2092 0.18862 0.67681 0.0
O66 O 0.18325 0.23674 0.69969 0.0
O67 O 0.24166 0.24244 0.68886 0.0
C68 C 0.14805 0.14184 0.67087 0.0
C69 C 0.2224 0.20779 0.63019 0.0
C70 C 0.24816 0.13915 0.70548 0.0
O71 O 0.14434 0.17573 0.67879 0.0
O72 O 0.18197 0.13241 0.6656 0.0
O73 O 0.25849 0.14643 0.68406 0.0
O74 O 0.21997 0.15879 0.71281 0.0
C75 C 0.21345 0.25694 0.69998 0.0
O76 O 0.24716 0.19057 0.64294 0.0
O77 O 0.19162 0.21592 0.6411 0.0
In78 In 0.32203 0.72278 0.17661 0.0
O79 O 0.27377 0.69799 0.20006 0.0
O80 O 0.26742 0.7553 0.18738 0.0
C81 C 0.37034 0.66198 0.17758 0.0
C82 C 0.30284 0.72817 0.12935 0.0
C83 C 0.37225 0.76939 0.19961 0.0
O84 O 0.33601 0.65936 0.18493 0.0
O85 O 0.37944 0.69442 0.16928 0.0
O86 O 0.36604 0.77131 0.17719 0.0
O87 O 0.3507 0.74614 0.21079 0.0
C88 C 0.25293 0.72767 0.1991 0.0
O89 O 0.31471 0.75656 0.14141 0.0
O90 O 0.30016 0.69729 0.14119 0.0
In91 In 0.78799 0.80939 0.6735 0.0
O92 O 0.81308 0.76201 0.69747 0.0
O93 O 0.75444 0.75705 0.68698 0.0
C94 C 0.84848 0.85742 0.66982 0.0
C95 C 0.78147 0.78504 0.62733 0.0
C96 C 0.74539 0.8625 0.69703 0.0
O97 O 0.85119 0.8255 0.68069 0.0
O98 O 0.81613 0.86402 0.66052 0.0
O99 O 0.74087 0.85513 0.67488 0.0
O100 O 0.76903 0.84085 0.70773 0.0
C101 C 0.78248 0.74241 0.69824 0.0
O102 O 0.75335 0.79903 0.63883 0.0
O103 O 0.81224 0.78268 0.6393 0.0
H104 H 0.15784 0.07036 0.33227 0.0
H105 H 0.11131 0.01777 0.33669 0.0
H106 H 0.02175 0.10023 0.35192 0.0
H107 H 0.06824 0.15237 0.34861 0.0
H108 H 0.01152 0.04184 0.37953 0.0
H109 H 0.03592 0.05796 0.2942 0.0
H110 H 0.07551 0.06096 0.25726 0.0
H111 H 0.1138 0.94513 0.26937 0.0
H112 H 0.07493 0.9417 0.30661 0.0
H113 H 0.85297 0.92501 0.3281 0.0
H114 H 0.90205 0.97553 0.33202 0.0
H115 H 0.98206 0.89248 0.36056 0.0
H116 H 0.93329 0.84214 0.35718 0.0
H117 H 0.99677 0.94946 0.31196 0.0
H118 H 0.97122 0.93569 0.39914 0.0
H119 H 0.92635 0.93402 0.43364 0.0
H120 H 0.88623 0.04724 0.41555 0.0
H121 H 0.93037 0.04919 0.38062 0.0
C122 C 0.12828 0.0771 0.33677 0.0
C123 C 0.1166 0.11539 0.33998 0.0
C124 C 0.10168 0.04711 0.33917 0.0
C125 C 0.06282 0.05507 0.34423 0.0
C126 C 0.0515 0.09329 0.34804 0.0
C127 C 0.07812 0.12311 0.34605 0.0
C128 C 0.03349 0.02401 0.34481 0.0
C129 C 0.00847 0.02164 0.36473 0.0
C130 C 0.02925 0.99752 0.32556 0.0
C131 C 0.05281 0.99971 0.30328 0.0
C132 C 0.05303 0.03325 0.28907 0.0
C133 C 0.07532 0.03502 0.26808 0.0
C134 C 0.09724 0.0033 0.261 0.0
C135 C 0.09689 0.96971 0.27489 0.0
C136 C 0.07474 0.96784 0.29594 0.0
C137 C 0.88084 0.91772 0.33554 0.0
C138 C 0.88932 0.87973 0.34237 0.0
C139 C 0.90873 0.9465 0.33776 0.0
C140 C 0.94544 0.9375 0.3466 0.0
C141 C 0.95374 0.89983 0.35382 0.0
C142 C 0.92582 0.87121 0.35192 0.0
C143 C 0.97598 0.96687 0.34685 0.0
C144 C 1.00069 0.96916 0.32694 0.0
C145 C 0.97979 0.99332 0.36597 0.0
C146 C 0.95369 0.99237 0.38711 0.0
C147 C 0.95251 0.96003 0.40236 0.0
C148 C 0.92729 0.95907 0.42202 0.0
C149 C 0.90337 0.99046 0.42674 0.0
C150 C 0.90472 0.02292 0.41184 0.0
C151 C 0.92983 0.02396 0.39212 0.0
H152 H 0.88386 0.98968 0.44197 0.0
H153 H 0.11445 0.00471 0.24473 0.0
H154 H 0.40777 0.63454 0.79354 0.0
H155 H 0.45552 0.58268 0.79319 0.0
H156 H 0.4328 0.56009 0.86845 0.0
H157 H 0.38458 0.6114 0.86885 0.0
H158 H 0.51519 0.55879 0.85217 0.0
H159 H 0.38643 0.51022 0.83114 0.0
H160 H 0.32851 0.51296 0.80542 0.0
H161 H 0.39735 0.49002 0.7427 0.0
H162 H 0.45577 0.48802 0.76794 0.0
H163 H 0.59713 0.37819 0.86825 0.0
H164 H 0.54964 0.43002 0.86848 0.0
H165 H 0.54287 0.42492 0.79069 0.0
H166 H 0.58887 0.37178 0.79053 0.0
H167 H 0.47625 0.44223 0.80656 0.0
H168 H 0.60095 0.4908 0.82009 0.0
H169 H 0.66497 0.49574 0.83872 0.0
H170 H 0.61329 0.52622 0.90652 0.0
H171 H 0.54871 0.52066 0.88833 0.0
C172 C 0.4136 0.61909 0.81013 0.0
C173 C 0.39242 0.62675 0.8312 0.0
C174 C 0.4407 0.58945 0.80987 0.0
C175 C 0.44723 0.56749 0.83074 0.0
C176 C 0.42799 0.57677 0.85219 0.0
C177 C 0.40049 0.60599 0.85237 0.0
C178 C 0.47177 0.53293 0.82981 0.0
C179 C 0.50658 0.53307 0.84249 0.0
C180 C 0.46106 0.50018 0.81625 0.0
C181 C 0.42554 0.49946 0.80139 0.0
C182 C 0.38925 0.50599 0.81185 0.0
C183 C 0.35634 0.50744 0.79735 0.0
C184 C 0.35936 0.50199 0.77243 0.0
C185 C 0.39514 0.49448 0.76199 0.0
C186 C 0.42813 0.49317 0.77638 0.0
C187 C 0.58482 0.38761 0.85127 0.0
C188 C 0.59676 0.37124 0.82937 0.0
C189 C 0.55795 0.4174 0.85138 0.0
C190 C 0.54351 0.43213 0.82955 0.0
C191 C 0.55373 0.41421 0.80776 0.0
C192 C 0.58 0.38383 0.80768 0.0
C193 C 0.51969 0.46756 0.82936 0.0
C194 C 0.48498 0.46773 0.8164 0.0
C195 C 0.53128 0.50123 0.84183 0.0
C196 C 0.56998 0.5049 0.85291 0.0
C197 C 0.6032 0.49827 0.83902 0.0
C198 C 0.63962 0.50123 0.8495 0.0
C199 C 0.64326 0.51126 0.87382 0.0
C200 C 0.61043 0.5184 0.88769 0.0
C201 C 0.57389 0.51534 0.8773 0.0
H202 H 0.6715 0.51356 0.88192 0.0
H203 H 0.33402 0.50352 0.76117 0.0
H204 H 0.56592 0.35075 0.1657 0.0
H205 H 0.52096 0.40433 0.1666 0.0
H206 H 0.61564 0.48373 0.17456 0.0
H207 H 0.66086 0.42958 0.17486 0.0
H208 H 0.56217 0.50286 0.20401 0.0
H209 H 0.56259 0.47315 0.12012 0.0
H210 H 0.55846 0.43206 0.08395 0.0
H211 H 0.44207 0.40227 0.10202 0.0
H212 H 0.44567 0.44274 0.13851 0.0
H213 H 0.44802 0.66762 0.175 0.0
H214 H 0.4951 0.6155 0.17525 0.0
H215 H 0.40356 0.53259 0.18291 0.0
H216 H 0.35606 0.58495 0.18303 0.0
H217 H 0.45624 0.51715 0.14468 0.0
H218 H 0.46045 0.54337 0.23082 0.0
H219 H 0.46817 0.58217 0.26777 0.0
H220 H 0.5783 0.62171 0.24285 0.0
H221 H 0.57147 0.5826 0.20591 0.0
C222 C 0.57723 0.37965 0.16742 0.0
C223 C 0.61689 0.38608 0.17009 0.0
C224 C 0.55147 0.41033 0.16779 0.0
C225 C 0.56487 0.44823 0.17016 0.0
C226 C 0.6046 0.45476 0.17262 0.0
C227 C 0.63042 0.42389 0.17272 0.0
C228 C 0.53713 0.48068 0.17124 0.0
C229 C 0.53948 0.50633 0.19074 0.0
C230 C 0.50694 0.48488 0.15424 0.0
C231 C 0.50452 0.46077 0.13217 0.0
C232 C 0.53619 0.45764 0.11647 0.0
C233 C 0.53394 0.43448 0.0959 0.0
C234 C 0.50006 0.4145 0.09072 0.0
C235 C 0.46831 0.41774 0.10607 0.0
C236 C 0.47043 0.44083 0.12668 0.0
C237 C 0.4379 0.63829 0.17686 0.0
C238 C 0.39838 0.63022 0.17881 0.0
C239 C 0.46486 0.6086 0.17716 0.0
C240 C 0.45279 0.57027 0.17918 0.0
C241 C 0.41337 0.56207 0.18139 0.0
C242 C 0.38634 0.5919 0.18147 0.0
C243 C 0.48129 0.53881 0.17749 0.0
C244 C 0.47911 0.51356 0.15781 0.0
C245 C 0.51201 0.53534 0.19405 0.0
C246 C 0.51531 0.56034 0.21557 0.0
C247 C 0.48615 0.56061 0.23314 0.0
C248 C 0.49051 0.58241 0.25416 0.0
C249 C 0.52374 0.60435 0.25767 0.0
C250 C 0.55264 0.60461 0.24014 0.0
C251 C 0.54863 0.58249 0.21923 0.0
H252 H 0.52707 0.62122 0.27395 0.0
H253 H 0.49838 0.39657 0.07479 0.0
H254 H 0.07053 0.15649 0.67184 0.0
H255 H 0.01824 0.10925 0.66979 0.0
H256 H 0.10173 0.01757 0.66545 0.0
H257 H 0.15354 0.06461 0.66594 0.0
H258 H 0.04829 1.00082 0.63709 0.0
H259 H 0.05001 0.04378 0.71913 0.0
H260 H 0.04802 0.09046 0.7527 0.0
H261 H 0.93468 0.12551 0.73113 0.0
H262 H 0.93636 0.07938 0.6973 0.0
H263 H 0.92541 0.84705 0.67878 0.0
H264 H 0.97609 0.89646 0.67743 0.0
H265 H 0.89162 0.98201 0.65832 0.0
H266 H 0.84129 0.93304 0.65912 0.0
H267 H 0.94331 0.00205 0.69778 0.0
H268 H 0.94353 0.95437 0.61579 0.0
H269 H 0.94748 0.90373 0.58476 0.0
H270 H 0.06027 0.8729 0.60972 0.0
H271 H 0.05673 0.92303 0.64116 0.0
C272 C 0.07754 0.12624 0.67029 0.0
C273 C 0.11601 0.11417 0.66913 0.0
C274 C 0.04771 0.09923 0.6693 0.0
C275 C 0.05594 0.05965 0.6679 0.0
C276 C 0.09446 0.04782 0.66644 0.0
C277 C 0.12412 0.07479 0.66682 0.0
C278 C 0.02479 0.03029 0.66805 0.0
C279 C 0.02567 0.00097 0.65059 0.0
C280 C 0.99472 0.03057 0.68537 0.0
C281 C 0.99358 0.0585 0.70557 0.0
C282 C 0.02487 0.06171 0.7215 0.0
C283 C 0.02376 0.088 0.74056 0.0
C284 C 0.99129 0.11103 0.744 0.0
C285 C 0.95985 0.10772 0.72841 0.0
C286 C 0.96088 0.0815 0.7093 0.0
C287 C 0.91781 0.87638 0.67422 0.0
C288 C 0.87956 0.88623 0.66895 0.0
C289 C 0.94666 0.90446 0.67343 0.0
C290 C 0.93741 0.94274 0.66774 0.0
C291 C 0.89921 0.95261 0.66274 0.0
C292 C 0.8706 0.92456 0.6631 0.0
C293 C 0.96743 0.97278 0.66711 0.0
C294 C 0.96611 0.00217 0.68438 0.0
C295 C 0.99745 0.97217 0.64995 0.0
C296 C 0.99968 0.94216 0.63099 0.0
C297 C 0.96902 0.93656 0.61481 0.0
C298 C 0.97122 0.90799 0.59712 0.0
C299 C 0.00406 0.88503 0.59532 0.0
C300 C 0.03483 0.89066 0.61116 0.0
C301 C 0.03275 0.91916 0.62891 0.0
H302 H 0.00572 0.86294 0.5816 0.0
H303 H 0.99045 0.13136 0.75877 0.0
H304 H 0.26224 0.18645 0.39948 0.0
H305 H 0.27129 0.18941 0.44317 0.0
H306 H 0.18215 0.27535 0.44821 0.0
H307 H 0.17399 0.27347 0.40425 0.0
H308 H 0.23703 0.29096 0.47965 0.0
H309 H 0.16394 0.17891 0.45924 0.0
H310 H 0.14987 0.11828 0.43794 0.0
H311 H 0.25119 0.06693 0.46837 0.0
H312 H 0.26617 0.12748 0.48959 0.0
H313 H 0.17794 0.25298 0.60124 0.0
H314 H 0.18287 0.26128 0.55746 0.0
H315 H 0.28275 0.1878 0.55629 0.0
H316 H 0.27818 0.17962 0.60021 0.0
H317 H 0.2256 0.16667 0.52322 0.0
H318 H 0.2946 0.28044 0.54629 0.0
H319 H 0.30439 0.34137 0.56817 0.0
H320 H 0.20493 0.38961 0.5336 0.0
H321 H 0.1942 0.32875 0.51176 0.0
C322 C 0.24494 0.20637 0.40986 0.0
C323 C 0.21716 0.22949 0.3985 0.0
C324 C 0.25 0.20791 0.43486 0.0
C325 C 0.22675 0.23191 0.4491 0.0
C326 C 0.20029 0.25645 0.43764 0.0
C327 C 0.19561 0.25534 0.41253 0.0
C328 C 0.22867 0.22986 0.47592 0.0
C329 C 0.23417 0.26383 0.48918 0.0
C330 C 0.22543 0.19439 0.48842 0.0
C331 C 0.21639 0.15786 0.4758 0.0
C332 C 0.18337 0.15478 0.46125 0.0
C333 C 0.17521 0.12042 0.44921 0.0
C334 C 0.19968 0.0888 0.45175 0.0
C335 C 0.2323 0.09146 0.46639 0.0
C336 C 0.24063 0.12579 0.47844 0.0
C337 C 0.20127 0.239 0.59171 0.0
C338 C 0.22767 0.21561 0.60413 0.0
C339 C 0.20411 0.24387 0.56671 0.0
C340 C 0.23326 0.22528 0.55365 0.0
C341 C 0.2601 0.20246 0.56606 0.0
C342 C 0.25753 0.19792 0.59113 0.0
C343 C 0.2341 0.22769 0.52689 0.0
C344 C 0.22885 0.19374 0.51366 0.0
C345 C 0.23693 0.26321 0.51451 0.0
C346 C 0.24341 0.2999 0.52755 0.0
C347 C 0.27462 0.30393 0.5435 0.0
C348 C 0.28038 0.33848 0.55587 0.0
C349 C 0.25525 0.36932 0.55232 0.0
C350 C 0.22436 0.36569 0.53635 0.0
C351 C 0.21845 0.33119 0.52395 0.0
H352 H 0.25976 0.39604 0.56191 0.0
H353 H 0.19331 0.06222 0.44241 0.0
H354 H 0.30825 0.76826 0.89778 0.0
H355 H 0.30631 0.77674 0.94158 0.0
H356 H 0.23815 0.67349 0.94843 0.0
H357 H 0.23856 0.66596 0.90448 0.0
H358 H 0.21452 0.72292 0.98015 0.0
H359 H 0.3383 0.67471 0.95727 0.0
H360 H 0.39956 0.67363 0.93481 0.0
H361 H 0.43025 0.78326 0.96479 0.0
H362 H 0.36889 0.78524 0.98718 0.0
H363 H 0.26875 0.67363 0.10114 0.0
H364 H 0.25878 0.67559 0.05738 0.0
H365 H 0.30889 0.789 0.05465 0.0
H366 H 0.31867 0.78739 0.09847 0.0
H367 H 0.34049 0.73713 0.02131 0.0
H368 H 0.21554 0.78051 0.04686 0.0
H369 H 0.15505 0.77663 0.06999 0.0
H370 H 0.12788 0.66922 0.03582 0.0
H371 H 0.18851 0.67218 0.01272 0.0
C372 C 0.29244 0.74767 0.90863 0.0
C373 C 0.27382 0.71628 0.89778 0.0
C374 C 0.29152 0.7524 0.93367 0.0
C375 C 0.27291 0.72521 0.94842 0.0
C376 C 0.25286 0.69476 0.93749 0.0
C377 C 0.25315 0.69044 0.91237 0.0
C378 C 0.27586 0.72752 0.9752 0.0
C379 C 0.24211 0.72567 0.98913 0.0
C380 C 0.31181 0.73152 0.98702 0.0
C381 C 0.34883 0.7303 0.9737 0.0
C382 C 0.358 0.69871 0.95895 0.0
C383 C 0.39275 0.69792 0.94624 0.0
C384 C 0.41873 0.7284 0.94832 0.0
C385 C 0.41006 0.7597 0.96317 0.0
C386 C 0.37532 0.76066 0.97588 0.0
C387 C 0.27729 0.69914 0.09125 0.0
C388 C 0.29452 0.73036 0.10321 0.0
C389 C 0.27146 0.70027 0.06628 0.0
C390 C 0.28294 0.73252 0.05282 0.0
C391 C 0.29977 0.76389 0.06474 0.0
C392 C 0.30523 0.76296 0.08976 0.0
C393 C 0.27923 0.73262 0.02614 0.0
C394 C 0.31291 0.73472 0.01226 0.0
C395 C 0.24334 0.72811 0.01445 0.0
C396 C 0.20674 0.72641 0.02821 0.0
C397 C 0.19682 0.75591 0.04441 0.0
C398 C 0.16247 0.75391 0.05749 0.0
C399 C 0.13768 0.72266 0.05442 0.0
C400 C 0.14713 0.69339 0.0382 0.0
C401 C 0.18146 0.69524 0.02509 0.0
H402 H 0.1111 0.72116 0.06457 0.0
H403 H 0.44562 0.72774 0.93847 0.0
H404 H 0.72163 0.79564 0.59586 0.0
H405 H 0.72141 0.78362 0.55229 0.0
H406 H 0.83689 0.73878 0.55688 0.0
H407 H 0.83753 0.75143 0.60026 0.0
H408 H 0.83219 0.78851 0.52135 0.0
H409 H 0.75828 0.67975 0.5467 0.0
H410 H 0.70605 0.64546 0.56782 0.0
H411 H 0.62206 0.70722 0.52623 0.0
H412 H 0.6738 0.7423 0.50509 0.0
H413 H 0.84064 0.72008 0.40085 0.0
H414 H 0.83474 0.7153 0.44491 0.0
H415 H 0.7316 0.784 0.44253 0.0
H416 H 0.7378 0.78963 0.39859 0.0
H417 H 0.7304 0.71838 0.47657 0.0
H418 H 0.80479 0.8303 0.45395 0.0
H419 H 0.85716 0.86421 0.4327 0.0
H420 H 0.94074 0.79478 0.46957 0.0
H421 H 0.88876 0.76003 0.49077 0.0
C422 C 0.74677 0.78279 0.58761 0.0
C423 C 0.77961 0.77454 0.60147 0.0
C424 C 0.74658 0.77579 0.56271 0.0
C425 C 0.77907 0.76004 0.55128 0.0
C426 C 0.81152 0.75099 0.56525 0.0
C427 C 0.81179 0.75814 0.59007 0.0
C428 C 0.78017 0.75507 0.52461 0.0
C429 C 0.81026 0.77255 0.51168 0.0
C430 C 0.75114 0.73499 0.51182 0.0
C431 C 0.71993 0.71392 0.52446 0.0
C432 C 0.72867 0.68625 0.54219 0.0
C433 C 0.69915 0.66663 0.55414 0.0
C434 C 0.66076 0.67422 0.54841 0.0
C435 C 0.65181 0.7014 0.53067 0.0
C436 C 0.68123 0.72113 0.51868 0.0
C437 C 0.81625 0.73341 0.40967 0.0
C438 C 0.78976 0.75536 0.39636 0.0
C439 C 0.81298 0.73076 0.43481 0.0
C440 C 0.78284 0.74948 0.44691 0.0
C441 C 0.75498 0.76929 0.43349 0.0
C442 C 0.75863 0.77256 0.40843 0.0
C443 C 0.78241 0.75161 0.47362 0.0
C444 C 0.75244 0.73388 0.48644 0.0
C445 C 0.81157 0.77133 0.48638 0.0
C446 C 0.84288 0.79223 0.47371 0.0
C447 C 0.83431 0.82199 0.45734 0.0
C448 C 0.86392 0.84142 0.44534 0.0
C449 C 0.90225 0.83157 0.44972 0.0
C450 C 0.91104 0.80232 0.46616 0.0
C451 C 0.88151 0.78276 0.47817 0.0
H452 H 0.92513 0.84667 0.44043 0.0
H453 H 0.63795 0.659 0.55768 0.0
H454 H 0.76115 0.32918 0.90198 0.0
H455 H 0.76485 0.32215 0.94593 0.0
H456 H 0.68515 0.22708 0.9427 0.0
H457 H 0.6805 0.23479 0.89896 0.0
H458 H 0.6632 0.27452 0.97595 0.0
H459 H 0.78366 0.21563 0.95596 0.0
H460 H 0.84763 0.21096 0.93695 0.0
H461 H 0.88565 0.30987 0.9767 0.0
H462 H 0.82172 0.31544 0.99572 0.0
H463 H 0.67919 0.22168 0.0993 0.0
H464 H 0.68613 0.21846 0.05528 0.0
H465 H 0.75345 0.32267 0.05622 0.0
H466 H 0.7466 0.3261 0.10013 0.0
H467 H 0.7829 0.26795 0.02451 0.0
H468 H 0.66166 0.32847 0.04253 0.0
H469 H 0.59776 0.33328 0.06165 0.0
H470 H 0.56162 0.23042 0.02529 0.0
H471 H 0.62553 0.22472 0.00619 0.0
C472 C 0.74489 0.30643 0.91063 0.0
C473 C 0.72049 0.28259 0.89704 0.0
C474 C 0.74711 0.30233 0.93577 0.0
C475 C 0.72545 0.27389 0.94771 0.0
C476 C 0.70204 0.24931 0.93398 0.0
C477 C 0.69951 0.25366 0.90894 0.0
C478 C 0.7251 0.27127 0.97457 0.0
C479 C 0.68942 0.27235 0.98648 0.0
C480 C 0.75927 0.26947 0.98848 0.0
C481 C 0.79777 0.26615 0.9771 0.0
C482 C 0.80556 0.23656 0.96051 0.0
C483 C 0.84184 0.23372 0.94976 0.0
C484 C 0.87066 0.26016 0.95557 0.0
C485 C 0.86329 0.28943 0.9722 0.0
C486 C 0.82705 0.29242 0.98299 0.0
C487 C 0.69585 0.24363 0.09015 0.0
C488 C 0.71215 0.27426 0.10314 0.0
C489 C 0.6997 0.24182 0.06501 0.0
C490 C 0.72002 0.27054 0.05246 0.0
C491 C 0.73767 0.30023 0.06553 0.0
C492 C 0.7336 0.30221 0.09061 0.0
C493 C 0.72109 0.27089 0.02565 0.0
C494 C 0.7568 0.26966 0.01384 0.0
C495 C 0.68698 0.27248 0.01177 0.0
C496 C 0.6485 0.27594 0.02315 0.0
C497 C 0.64019 0.3067 0.03877 0.0
C498 C 0.60396 0.30962 0.04958 0.0
C499 C 0.57569 0.28211 0.04475 0.0
C500 C 0.58357 0.25167 0.02904 0.0
C501 C 0.61978 0.2486 0.01822 0.0
H502 H 0.54765 0.28442 0.05312 0.0
H503 H 0.89873 0.25791 0.94723 0.0
H504 H 0.60472 0.28245 0.24549 0.0
H505 H 0.54174 0.26897 0.26273 0.0
H506 H 0.52399 0.17927 0.2101 0.0
H507 H 0.58683 0.19378 0.19212 0.0
H508 H 0.46319 0.2215 0.21164 0.0
H509 H 0.53759 0.16051 0.27253 0.0
H510 H 0.58916 0.15322 0.30274 0.0
H511 H 0.54311 0.24775 0.34331 0.0
H512 H 0.49154 0.25597 0.31317 0.0
H513 H 0.28943 0.1613 0.27254 0.0
H514 H 0.35494 0.16235 0.25603 0.0
H515 H 0.37695 0.26938 0.29275 0.0
H516 H 0.31135 0.26888 0.30897 0.0
H517 H 0.43519 0.21147 0.29927 0.0
H518 H 0.36299 0.27329 0.23548 0.0
H519 H 0.31108 0.27758 0.20525 0.0
H520 H 0.35336 0.17578 0.17039 0.0
H521 H 0.40523 0.17058 0.20064 0.0
C522 C 0.58783 0.25927 0.23787 0.0
C523 C 0.60089 0.23911 0.21745 0.0
C524 C 0.55171 0.25147 0.24782 0.0
C525 C 0.52799 0.2228 0.23793 0.0
C526 C 0.54164 0.20155 0.21809 0.0
C527 C 0.57772 0.20964 0.20793 0.0
C528 C 0.48804 0.21717 0.24723 0.0
C529 C 0.45725 0.21848 0.23078 0.0
C530 C 0.4799 0.21387 0.27225 0.0
C531 C 0.51085 0.20903 0.29047 0.0
C532 C 0.53861 0.17993 0.2878 0.0
C533 C 0.56782 0.1756 0.30493 0.0
C534 C 0.56946 0.20006 0.32491 0.0
C535 C 0.54182 0.22884 0.32782 0.0
C536 C 0.51256 0.23332 0.31073 0.0
C537 C 0.30815 0.1852 0.27694 0.0
C538 C 0.29521 0.21508 0.29199 0.0
C539 C 0.34554 0.18574 0.26751 0.0
C540 C 0.37081 0.21593 0.27319 0.0
C541 C 0.35794 0.24578 0.28819 0.0
C542 C 0.32039 0.24556 0.29732 0.0
C543 C 0.41081 0.21629 0.26371 0.0
C544 C 0.44144 0.21402 0.28014 0.0
C545 C 0.41882 0.21815 0.23869 0.0
C546 C 0.3877 0.2213 0.22048 0.0
C547 C 0.36099 0.25161 0.2215 0.0
C548 C 0.33163 0.25426 0.20434 0.0
C549 C 0.32885 0.2269 0.18596 0.0
C550 C 0.35551 0.19691 0.18467 0.0
C551 C 0.38491 0.19411 0.2018 0.0
H552 H 0.3061 0.229 0.17268 0.0
H553 H 0.5921 0.19666 0.33815 0.0
H554 H 0.32472 0.79087 0.76646 0.0
H555 H 0.32244 0.85689 0.75129 0.0
H556 H 0.23645 0.88475 0.80482 0.0
H557 H 0.23669 0.81791 0.81867 0.0
H558 H 0.21797 0.91957 0.76794 0.0
H559 H 0.33881 0.91063 0.80826 0.0
H560 H 0.40272 0.88412 0.81804 0.0
H561 H 0.44051 0.90552 0.74541 0.0
H562 H 0.37664 0.93171 0.7351 0.0
H563 H 0.23154 0.11935 0.75203 0.0
H564 H 0.24362 0.05739 0.77151 0.0
H565 H 0.30742 0.0199 0.70902 0.0
H566 H 0.29612 0.08219 0.68961 0.0
H567 H 0.33833 0.99205 0.75201 0.0
H568 H 0.21112 1.00067 0.71416 0.0
H569 H 0.148 0.03202 0.70912 0.0
H570 H 0.12361 0.01541 0.7844 0.0
H571 H 0.18676 0.98427 0.78998 0.0
C572 C 0.30512 0.81111 0.77479 0.0
C573 C 0.28085 0.79941 0.79369 0.0
C574 C 0.30414 0.84901 0.76633 0.0
C575 C 0.28006 0.87643 0.77729 0.0
C576 C 0.2554 0.86441 0.79601 0.0
C577 C 0.25549 0.82619 0.80394 0.0
C578 C 0.27996 0.91735 0.76902 0.0
C579 C 0.24443 0.9354 0.76488 0.0
C580 C 0.31432 0.93841 0.76471 0.0
C581 C 0.35282 0.92281 0.77085 0.0
C582 C 0.36067 0.90946 0.79433 0.0
C583 C 0.3969 0.89452 0.79997 0.0
C584 C 0.42563 0.89305 0.78234 0.0
C585 C 0.41821 0.90663 0.75904 0.0
C586 C 0.38202 0.92156 0.75329 0.0
C587 C 0.24899 0.0983 0.74268 0.0
C588 C 0.26257 0.10552 0.71918 0.0
C589 C 0.2557 0.0628 0.75379 0.0
C590 C 0.27563 0.03367 0.74148 0.0
C591 C 0.29176 0.04187 0.71879 0.0
C592 C 0.28531 0.07752 0.70773 0.0
C593 C 0.27653 0.99377 0.75114 0.0
C594 C 0.3121 0.97598 0.75533 0.0
C595 C 0.24227 0.97324 0.7562 0.0
C596 C 0.20374 0.99046 0.75252 0.0
C597 C 0.1923 0.00376 0.72963 0.0
C598 C 0.15654 0.02151 0.72669 0.0
C599 C 0.13193 0.02587 0.74644 0.0
C600 C 0.14277 0.01208 0.76914 0.0
C601 C 0.17849 0.99433 0.77219 0.0
H602 H 0.10449 0.03998 0.74422 0.0
H603 H 0.45365 0.88147 0.78675 0.0
H604 H 0.71309 0.73022 0.27751 0.0
H605 H 0.64908 0.73183 0.25893 0.0
H606 H 0.6335 0.84815 0.2842 0.0
H607 H 0.69775 0.84715 0.30187 0.0
H608 H 0.58017 0.73798 0.27524 0.0
H609 H 0.57789 0.89976 0.2473 0.0
H610 H 0.62336 0.94966 0.23349 0.0
H611 H 0.69975 0.86241 0.20693 0.0
H612 H 0.65453 0.81202 0.22028 0.0
H613 H 0.38912 0.77711 0.24763 0.0
H614 H 0.4528 0.78839 0.26512 0.0
H615 H 0.49973 0.80493 0.19369 0.0
H616 H 0.43591 0.79589 0.17632 0.0
H617 H 0.53862 0.84686 0.22339 0.0
H618 H 0.49929 0.71484 0.22171 0.0
H619 H 0.45165 0.66389 0.22994 0.0
H620 H 0.46311 0.68341 0.30616 0.0
H621 H 0.5103 0.73503 0.29836 0.0
C622 C 0.69607 0.7562 0.27891 0.0
C623 C 0.71059 0.78867 0.29095 0.0
C624 C 0.65941 0.75706 0.26838 0.0
C625 C 0.6365 0.79031 0.26982 0.0
C626 C 0.65083 0.82246 0.28226 0.0
C627 C 0.68758 0.8218 0.29247 0.0
C628 C 0.5975 0.7914 0.25861 0.0
C629 C 0.57124 0.76179 0.26388 0.0
C630 C 0.58574 0.82197 0.24331 0.0
C631 C 0.61297 0.85212 0.23503 0.0
C632 C 0.60432 0.89123 0.23844 0.0
C633 C 0.63007 0.9196 0.2307 0.0
C634 C 0.66448 0.90921 0.21941 0.0
C635 C 0.67316 0.87042 0.21576 0.0
C636 C 0.6475 0.84195 0.22344 0.0
C637 C 0.41279 0.78442 0.23576 0.0
C638 C 0.4076 0.78527 0.21061 0.0
C639 C 0.44927 0.79052 0.24573 0.0
C640 C 0.48139 0.79622 0.23067 0.0
C641 C 0.47557 0.80027 0.20571 0.0
C642 C 0.43896 0.7951 0.19579 0.0
C643 C 0.52124 0.79403 0.24051 0.0
C644 C 0.54765 0.82321 0.23485 0.0
C645 C 0.53364 0.7623 0.25461 0.0
C646 C 0.50802 0.72903 0.25945 0.0
C647 C 0.49168 0.70822 0.24023 0.0
C648 C 0.46456 0.67943 0.2448 0.0
C649 C 0.45402 0.67077 0.26855 0.0
C650 C 0.4711 0.69039 0.28778 0.0
C651 C 0.49807 0.71938 0.28329 0.0
H652 H 0.43288 0.6486 0.27206 0.0
H653 H 0.68437 0.93121 0.21345 0.0
H654 H 0.64555 0.18548 0.79745 0.0
H655 H 0.649 0.12099 0.78031 0.0
H656 H 0.76902 0.13851 0.76368 0.0
H657 H 0.76594 0.20297 0.7815 0.0
H658 H 0.66232 0.09408 0.73773 0.0
H659 H 0.81718 0.05389 0.76732 0.0
H660 H 0.86263 0.06841 0.80031 0.0
H661 H 0.76826 0.09522 0.84742 0.0
H662 H 0.72227 0.08039 0.81483 0.0
H663 H 0.72452 0.92846 0.67417 0.0
H664 H 0.71357 0.99128 0.69237 0.0
H665 H 0.72263 0.94067 0.7634 0.0
H666 H 0.73621 0.87808 0.74506 0.0
H667 H 0.76177 1.0008 0.76394 0.0
H668 H 0.63355 0.9766 0.73625 0.0
H669 H 0.5829 0.95955 0.70696 0.0
H670 H 0.6141 0.05633 0.66285 0.0
H671 H 0.66522 0.0737 0.69173 0.0
C672 C 0.67272 0.17565 0.79015 0.0
C673 C 0.70554 0.19928 0.79093 0.0
C674 C 0.67461 0.13875 0.78027 0.0
C675 C 0.70933 0.12458 0.77089 0.0
C676 C 0.74203 0.14846 0.77119 0.0
C677 C 0.74022 0.18537 0.78126 0.0
C678 C 0.71111 0.08478 0.76096 0.0
C679 C 0.68406 0.07366 0.74346 0.0
C680 C 0.73889 0.05774 0.76877 0.0
C681 C 0.76633 0.06643 0.78854 0.0
C682 C 0.80614 0.06277 0.78474 0.0
C683 C 0.83199 0.07107 0.80337 0.0
C684 C 0.81834 0.08286 0.82592 0.0
C685 C 0.7788 0.08624 0.82992 0.0
C686 C 0.75284 0.07794 0.81137 0.0
C687 C 0.72327 0.93055 0.69368 0.0
C688 C 0.7309 0.89829 0.70821 0.0
C689 C 0.71692 0.9666 0.70412 0.0
C690 C 0.71676 0.97099 0.72937 0.0
C691 C 0.72273 0.93829 0.7439 0.0
C692 C 0.73011 0.9024 0.73343 0.0
C693 C 0.71298 0.00991 0.74056 0.0
C694 C 0.73984 0.02102 0.75822 0.0
C695 C 0.68426 0.03654 0.73342 0.0
C696 C 0.65341 0.02626 0.71607 0.0
C697 C 0.62975 0.9941 0.72023 0.0
C698 C 0.60094 0.98441 0.70371 0.0
C699 C 0.59534 0.0068 0.68303 0.0
C700 C 0.61848 0.039 0.67887 0.0
C701 C 0.64734 0.04881 0.69532 0.0
H702 H 0.57303 0.99923 0.67026 0.0
H703 H 0.8384 0.08928 0.8403 0.0
H704 H 0.10467 0.21193 0.25717 0.0
H705 H 0.0418 0.22502 0.23961 0.0
H706 H 0.02465 0.31736 0.29047 0.0
H707 H 0.08747 0.30356 0.30864 0.0
H708 H 0.96359 0.2737 0.28976 0.0
H709 H 0.0384 0.33394 0.22855 0.0
H710 H 0.09014 0.3405 0.19836 0.0
H711 H 0.04384 0.24536 0.15843 0.0
H712 H 0.9921 0.23788 0.18857 0.0
H713 H 0.79025 0.33462 0.23007 0.0
H714 H 0.85582 0.33261 0.24631 0.0
H715 H 0.8771 0.22723 0.20759 0.0
H716 H 0.81141 0.22879 0.19152 0.0
H717 H 0.93587 0.28325 0.20208 0.0
H718 H 0.86314 0.22198 0.26558 0.0
H719 H 0.81121 0.21744 0.29579 0.0
H720 H 0.85399 0.31853 0.33125 0.0
H721 H 0.9059 0.32399 0.30102 0.0
C722 C 0.08793 0.23558 0.26433 0.0
C723 C 0.10116 0.25676 0.28429 0.0
C724 C 0.05189 0.24313 0.2542 0.0
C725 C 0.02839 0.27241 0.26355 0.0
C726 C 0.04218 0.2946 0.28292 0.0
C727 C 0.07823 0.28689 0.29318 0.0
C728 C 0.9885 0.27778 0.25418 0.0
C729 C 0.95768 0.27659 0.27061 0.0
C730 C 0.98046 0.28078 0.22915 0.0
C731 C 0.01153 0.28516 0.21094 0.0
C732 C 0.03941 0.31422 0.21344 0.0
C733 C 0.06871 0.31814 0.19631 0.0
C734 C 0.07032 0.29331 0.17652 0.0
C735 C 0.04257 0.26456 0.17378 0.0
C736 C 0.01322 0.2605 0.19086 0.0
C737 C 0.80882 0.31088 0.22514 0.0
C738 C 0.79564 0.28179 0.20957 0.0
C739 C 0.84625 0.30977 0.23444 0.0
C740 C 0.87133 0.27975 0.22817 0.0
C741 C 0.85824 0.25069 0.21262 0.0
C742 C 0.82065 0.25151 0.20357 0.0
C743 C 0.91133 0.27879 0.23765 0.0
C744 C 0.94203 0.28077 0.22123 0.0
C745 C 0.91927 0.27691 0.26268 0.0
C746 C 0.88812 0.27365 0.28087 0.0
C747 C 0.86126 0.24345 0.27968 0.0
C748 C 0.83188 0.24067 0.29684 0.0
C749 C 0.82923 0.26775 0.31539 0.0
C750 C 0.85604 0.29762 0.31685 0.0
C751 C 0.88545 0.30056 0.29972 0.0
H752 H 0.80647 0.26553 0.32866 0.0
H753 H 0.09303 0.29639 0.16328 0.0
H754 H 0.27126 0.30987 0.6972 0.0
H755 H 0.2734 0.37374 0.71542 0.0
H756 H 0.16239 0.35401 0.7481 0.0
H757 H 0.15959 0.29043 0.72918 0.0
H758 H 0.16393 0.42333 0.73074 0.0
H759 H 0.2488 0.35179 0.78163 0.0
H760 H 0.30302 0.30935 0.79234 0.0
H761 H 0.38233 0.38887 0.75994 0.0
H762 H 0.3285 0.43129 0.74852 0.0
H763 H 0.19643 0.58682 0.81258 0.0
H764 H 0.18319 0.52232 0.79633 0.0
H765 H 0.27405 0.5371 0.74416 0.0
H766 H 0.28705 0.6013 0.75989 0.0
H767 H 0.27838 0.46872 0.77586 0.0
H768 H 0.1911 0.53858 0.72314 0.0
H769 H 0.13613 0.5814 0.71487 0.0
H770 H 0.06097 0.50478 0.75334 0.0
H771 H 0.11566 0.46176 0.76215 0.0
C772 C 0.24739 0.31904 0.70837 0.0
C773 C 0.21532 0.29506 0.71183 0.0
C774 C 0.24871 0.35554 0.7189 0.0
C775 C 0.21833 0.36861 0.73351 0.0
C776 C 0.18624 0.34464 0.73697 0.0
C777 C 0.18472 0.30825 0.72621 0.0
C778 C 0.21975 0.40761 0.74462 0.0
C779 C 0.18883 0.43301 0.74085 0.0
C780 C 0.25223 0.42058 0.75775 0.0
C781 C 0.28459 0.39467 0.76416 0.0
C782 C 0.27777 0.36005 0.7766 0.0
C783 C 0.30844 0.33599 0.7828 0.0
C784 C 0.34609 0.34638 0.7768 0.0
C785 C 0.35316 0.38083 0.76457 0.0
C786 C 0.32258 0.40491 0.75824 0.0
C787 C 0.21297 0.5766 0.7973 0.0
C788 C 0.24276 0.59917 0.78751 0.0
C789 C 0.20546 0.53977 0.78811 0.0
C790 C 0.22789 0.52493 0.76919 0.0
C791 C 0.2566 0.54798 0.75886 0.0
C792 C 0.26379 0.58479 0.76779 0.0
C793 C 0.22349 0.48457 0.76105 0.0
C794 C 0.25369 0.45889 0.76563 0.0
C795 C 0.19036 0.47137 0.74884 0.0
C796 C 0.15754 0.49722 0.74357 0.0
C797 C 0.16293 0.53107 0.73006 0.0
C798 C 0.13181 0.55533 0.72522 0.0
C799 C 0.0951 0.54589 0.73365 0.0
C800 C 0.08943 0.5121 0.74687 0.0
C801 C 0.12047 0.48776 0.75178 0.0
H802 H 0.07104 0.56469 0.72987 0.0
H803 H 0.36979 0.32775 0.78167 0.0
H804 H 0.2164 0.67235 0.22578 0.0
H805 H 0.15069 0.67384 0.24165 0.0
H806 H 0.13494 0.78733 0.21165 0.0
H807 H 0.20085 0.7863 0.1962 0.0
H808 H 0.10587 0.78445 0.25548 0.0
H809 H 0.09678 0.70547 0.18467 0.0
H810 H 0.11357 0.65132 0.15797 0.0
H811 H 0.08177 0.57112 0.21353 0.0
H812 H 0.06527 0.62484 0.2407 0.0
H813 H 0.90501 0.7997 0.25942 0.0
H814 H 0.96917 0.78991 0.24264 0.0
H815 H 0.98134 0.68586 0.28435 0.0
H816 H 0.9169 0.69564 0.3015 0.0
H817 H 0.01215 0.6813 0.23607 0.0
H818 H 0.02015 0.76145 0.30643 0.0
H819 H 0.00373 0.81631 0.33268 0.0
H820 H 0.03716 0.89506 0.2767 0.0
H821 H 0.05339 0.84069 0.25001 0.0
C822 C 0.19898 0.6977 0.22267 0.0
C823 C 0.21381 0.7292 0.20971 0.0
C824 C 0.16131 0.69841 0.23161 0.0
C825 C 0.13755 0.73046 0.22755 0.0
C826 C 0.15262 0.76223 0.21499 0.0
C827 C 0.19032 0.7616 0.20615 0.0
C828 C 0.09711 0.73115 0.23647 0.0
C829 C 0.08533 0.7621 0.25095 0.0
C830 C 0.07038 0.70153 0.23112 0.0
C831 C 0.08018 0.66919 0.21481 0.0
C832 C 0.09366 0.67629 0.19126 0.0
C833 C 0.10307 0.64568 0.17603 0.0
C834 C 0.09884 0.60781 0.18407 0.0
C835 C 0.08509 0.60047 0.20734 0.0
C836 C 0.07568 0.63099 0.22266 0.0
C837 C 0.92092 0.77428 0.2647 0.0
C838 C 0.9059 0.74853 0.2819 0.0
C839 C 0.95771 0.76884 0.25515 0.0
C840 C 0.98024 0.73749 0.26252 0.0
C841 C 0.96445 0.71033 0.27849 0.0
C842 C 0.92762 0.71591 0.28824 0.0
C843 C 0.02105 0.7348 0.25473 0.0
C844 C 0.03284 0.70353 0.24057 0.0
C845 C 0.04782 0.7642 0.26024 0.0
C846 C 0.0377 0.79698 0.27615 0.0
C847 C 0.02367 0.79046 0.29964 0.0
C848 C 0.0145 0.82146 0.31462 0.0
C849 C 0.01951 0.8591 0.30637 0.0
C850 C 0.03346 0.86587 0.28309 0.0
C851 C 0.04266 0.83498 0.26803 0.0
H852 H 0.01278 0.88299 0.31807 0.0
H853 H 0.10614 0.58414 0.17225 0.0
H854 H 0.79694 0.40701 0.80734 0.0
H855 H 0.81302 0.47018 0.79014 0.0
H856 H 0.70711 0.46874 0.74946 0.0
H857 H 0.69219 0.40539 0.76545 0.0
H858 H 0.75827 0.49699 0.72252 0.0
H859 H 0.7234 0.51957 0.80651 0.0
H860 H 0.73046 0.51265 0.85069 0.0
H861 H 0.84535 0.5573 0.84665 0.0
H862 H 0.83931 0.56394 0.80244 0.0
H863 H 0.72172 0.69261 0.69884 0.0
H864 H 0.71929 0.62811 0.71645 0.0
H865 H 0.83558 0.64123 0.74225 0.0
H866 H 0.83818 0.70599 0.7247 0.0
H867 H 0.78799 0.60707 0.77626 0.0
H868 H 0.82017 0.58949 0.69287 0.0
H869 H 0.81234 0.59835 0.64895 0.0
H870 H 0.70087 0.54534 0.65223 0.0
H871 H 0.7078 0.53666 0.69624 0.0
C872 C 0.77748 0.42004 0.79444 0.0
C873 C 0.74339 0.40113 0.7877 0.0
C874 C 0.78645 0.45635 0.7848 0.0
C875 C 0.76095 0.47482 0.76878 0.0
C876 C 0.7274 0.45535 0.76171 0.0
C877 C 0.71886 0.41896 0.7709 0.0
C878 C 0.76833 0.51444 0.75934 0.0
C879 C 0.7644 0.52101 0.7344 0.0
C880 C 0.77756 0.54593 0.77457 0.0
C881 C 0.78106 0.54183 0.80114 0.0
C882 C 0.75026 0.52764 0.81502 0.0
C883 C 0.75405 0.52381 0.84006 0.0
C884 C 0.7883 0.53444 0.85143 0.0
C885 C 0.81885 0.549 0.83781 0.0
C886 C 0.81528 0.55279 0.81277 0.0
C887 C 0.74671 0.6819 0.7084 0.0
C888 C 0.78021 0.70435 0.71027 0.0
C889 C 0.74533 0.64495 0.71837 0.0
C890 C 0.77744 0.62961 0.7304 0.0
C891 C 0.81052 0.65242 0.73299 0.0
C892 C 0.81198 0.68937 0.72291 0.0
C893 C 0.7766 0.58945 0.73972 0.0
C894 C 0.782 0.58287 0.7645 0.0
C895 C 0.76846 0.55793 0.72441 0.0
C896 C 0.7644 0.56269 0.69789 0.0
C897 C 0.79389 0.57994 0.68425 0.0
C898 C 0.78962 0.58491 0.65934 0.0
C899 C 0.7561 0.57248 0.64781 0.0
C900 C 0.72681 0.55497 0.66118 0.0
C901 C 0.73091 0.54998 0.68611 0.0
H902 H 0.75284 0.57637 0.62853 0.0
H903 H 0.79113 0.53147 0.87081 0.0
loop_
_geom_bond_atom_site_label_1
_geom_bond_atom_site_label_2
_geom_bond_distance
_geom_bond_site_symmetry_2
_ccdc_geom_bond_type
In0 O1 2.294 . S
In0 O2 2.326 . S
In0 O6 2.266 . S
In0 O7 2.326 . S
In0 O8 2.266 . S
In0 O9 2.326 . S
In0 O11 2.294 . S
In0 O12 2.326 . S
O1 In0 2.294 . S
O1 C10 1.240 . S
O2 In0 2.326 . S
O2 C10 1.252 . S
C3 O6 1.252 . S
C3 O7 1.260 . S
C4 O11 1.240 . S
C4 O12 1.252 . S
C5 O8 1.252 . S
C5 O9 1.260 . S
O6 In0 2.266 . S
O6 C3 1.252 . S
O7 In0 2.326 . S
O7 C3 1.260 . S
O8 In0 2.266 . S
O8 C5 1.252 . S
O9 In0 2.326 . S
O9 C5 1.260 . S
C10 O1 1.240 . S
C10 O2 1.252 . S
O11 In0 2.294 . S
O11 C4 1.240 . S
O12 In0 2.326 . S
O12 C4 1.252 . S
In13 O14 2.294 . S
In13 O15 2.326 . S
In13 O19 2.266 . S
In13 O20 2.326 . S
In13 O21 2.266 . S
In13 O22 2.326 . S
In13 O24 2.294 . S
In13 O25 2.326 . S
O14 In13 2.294 . S
O14 C23 1.240 . S
O15 In13 2.326 . S
O15 C23 1.252 . S
C16 O19 1.252 . S
C16 O20 1.260 . S
C17 O24 1.240 . S
C17 O25 1.252 . S
C18 O21 1.252 . S
C18 O22 1.260 . S
O19 In13 2.266 . S
O19 C16 1.252 . S
O20 In13 2.326 . S
O20 C16 1.260 . S
O21 In13 2.266 . S
O21 C18 1.252 . S
O22 In13 2.326 . S
O22 C18 1.260 . S
C23 O14 1.240 . S
C23 O15 1.252 . S
O24 In13 2.294 . S
O24 C17 1.240 . S
O25 In13 2.326 . S
O25 C17 1.252 . S
In26 O27 2.294 . S
In26 O28 2.326 . S
In26 O32 2.266 . S
In26 O33 2.326 . S
In26 O34 2.266 . S
In26 O35 2.326 . S
In26 O37 2.294 . S
In26 O38 2.326 . S
O27 In26 2.294 . S
O27 C36 1.240 . S
O28 In26 2.326 . S
O28 C36 1.252 . S
C29 O32 1.252 . S
C29 O33 1.260 . S
C30 O37 1.240 . S
C30 O38 1.252 . S
C31 O34 1.252 . S
C31 O35 1.260 . S
O32 In26 2.266 . S
O32 C29 1.252 . S
O33 In26 2.326 . S
O33 C29 1.260 . S
O34 In26 2.266 . S
O34 C31 1.252 . S
O35 In26 2.326 . S
O35 C31 1.260 . S
C36 O27 1.240 . S
C36 O28 1.252 . S
O37 In26 2.294 . S
O37 C30 1.240 . S
O38 In26 2.326 . S
O38 C30 1.252 . S
In39 O40 2.294 . S
In39 O41 2.326 . S
In39 O45 2.266 . S
In39 O46 2.326 . S
In39 O47 2.266 . S
In39 O48 2.326 . S
In39 O50 2.294 . S
In39 O51 2.326 . S
O40 In39 2.294 . S
O40 C49 1.240 . S
O41 In39 2.326 . S
O41 C49 1.252 . S
C42 O45 1.252 . S
C42 O46 1.260 . S
C43 O50 1.240 . S
C43 O51 1.252 . S
C44 O47 1.252 . S
C44 O48 1.260 . S
O45 In39 2.266 . S
O45 C42 1.252 . S
O46 In39 2.326 . S
O46 C42 1.260 . S
O47 In39 2.266 . S
O47 C44 1.252 . S
O48 In39 2.326 . S
O48 C44 1.260 . S
C49 O40 1.240 . S
C49 O41 1.252 . S
O50 In39 2.294 . S
O50 C43 1.240 . S
O51 In39 2.326 . S
O51 C43 1.252 . S
In52 O53 2.294 . S
In52 O54 2.326 . S
In52 O58 2.266 . S
In52 O59 2.326 . S
In52 O60 2.266 . S
In52 O61 2.326 . S
In52 O63 2.294 . S
In52 O64 2.326 . S
O53 In52 2.294 . S
O53 C62 1.240 . S
O54 In52 2.326 . S
O54 C62 1.252 . S
C55 O58 1.252 . S
C55 O59 1.260 . S
C56 O63 1.240 . S
C56 O64 1.252 . S
C57 O60 1.252 . S
C57 O61 1.260 . S
O58 In52 2.266 . S
O58 C55 1.252 . S
O59 In52 2.326 . S
O59 C55 1.260 . S
O60 In52 2.266 . S
O60 C57 1.252 . S
O61 In52 2.326 . S
O61 C57 1.260 . S
C62 O53 1.240 . S
C62 O54 1.252 . S
O63 In52 2.294 . S
O63 C56 1.240 . S
O64 In52 2.326 . S
O64 C56 1.252 . S
In65 O66 2.294 . S
In65 O67 2.326 . S
In65 O71 2.266 . S
In65 O72 2.326 . S
In65 O73 2.266 . S
In65 O74 2.326 . S
In65 O76 2.294 . S
In65 O77 2.326 . S
O66 In65 2.294 . S
O66 C75 1.240 . S
O67 In65 2.326 . S
O67 C75 1.252 . S
C68 O71 1.252 . S
C68 O72 1.260 . S
C69 O76 1.240 . S
C69 O77 1.252 . S
C70 O73 1.252 . S
C70 O74 1.260 . S
O71 In65 2.266 . S
O71 C68 1.252 . S
O72 In65 2.326 . S
O72 C68 1.260 . S
O73 In65 2.266 . S
O73 C70 1.252 . S
O74 In65 2.326 . S
O74 C70 1.260 . S
C75 O66 1.240 . S
C75 O67 1.252 . S
O76 In65 2.294 . S
O76 C69 1.240 . S
O77 In65 2.326 . S
O77 C69 1.252 . S
In78 O79 2.294 . S
In78 O80 2.326 . S
In78 O84 2.266 . S
In78 O85 2.326 . S
In78 O86 2.266 . S
In78 O87 2.326 . S
In78 O89 2.294 . S
In78 O90 2.326 . S
O79 In78 2.294 . S
O79 C88 1.240 . S
O80 In78 2.326 . S
O80 C88 1.252 . S
C81 O84 1.252 . S
C81 O85 1.260 . S
C82 O89 1.240 . S
C82 O90 1.252 . S
C83 O86 1.252 . S
C83 O87 1.260 . S
O84 In78 2.266 . S
O84 C81 1.252 . S
O85 In78 2.326 . S
O85 C81 1.260 . S
O86 In78 2.266 . S
O86 C83 1.252 . S
O87 In78 2.326 . S
O87 C83 1.260 . S
C88 O79 1.240 . S
C88 O80 1.252 . S
O89 In78 2.294 . S
O89 C82 1.240 . S
O90 In78 2.326 . S
O90 C82 1.252 . S
In91 O92 2.294 . S
In91 O93 2.326 . S
In91 O97 2.266 . S
In91 O98 2.326 . S
In91 O99 2.266 . S
In91 O100 2.326 . S
In91 O102 2.294 . S
In91 O103 2.326 . S
O92 In91 2.294 . S
O92 C101 1.240 . S
O93 In91 2.326 . S
O93 C101 1.252 . S
C94 O97 1.252 . S
C94 O98 1.260 . S
C95 O102 1.240 . S
C95 O103 1.252 . S
C96 O99 1.252 . S
C96 O100 1.260 . S
O97 In91 2.266 . S
O97 C94 1.252 . S
O98 In91 2.326 . S
O98 C94 1.260 . S
O99 In91 2.266 . S
O99 C96 1.252 . S
O100 In91 2.326 . S
O100 C96 1.260 . S
C101 O92 1.240 . S
C101 O93 1.252 . S
O102 In91 2.294 . S
O102 C95 1.240 . S
O103 In91 2.326 . S
O103 C95 1.252 . S
H104 C122 0.951 . S
H105 C124 0.951 . S
H106 C126 0.950 1_655 S
H107 C127 0.950 . S
H108 C129 0.950 . S
H109 C132 0.950 . S
H110 C133 0.950 . S
H111 C135 0.950 . S
H112 C136 0.950 . S
H113 C137 0.951 . S
H114 C139 0.951 . S
H115 C141 0.950 1_455 S
H116 C142 0.950 . S
H117 C144 0.950 . S
H118 C147 0.950 . S
H119 C148 0.950 . S
H120 C150 0.950 . S
H121 C151 0.950 . S
C122 H104 0.951 . S
C122 C123 1.366 . S
C122 C124 1.388 . S
C123 C122 1.366 . S
C123 C127 1.385 . S
C124 H105 0.951 . S
C124 C122 1.388 . S
C124 C125 1.366 . S
C125 C124 1.366 . S
C125 C126 1.414 . S
C125 C128 1.499 . S
C126 H106 0.950 1_455 S
C126 C125 1.414 . S
C126 C127 1.374 . S
C127 H107 0.950 . S
C127 C123 1.385 . S
C127 C126 1.374 . S
C128 C125 1.499 . S
C128 C129 1.373 1_455 S
C128 C130 1.416 . S
C129 H108 0.950 . S
C129 C128 1.373 1_655 S
C129 C145 1.350 1_545 S
C130 C128 1.416 . S
C130 C131 1.524 1_545 S
C130 C144 1.350 1_545 S
C131 C130 1.524 1_565 S
C131 C132 1.397 1_565 S
C131 C136 1.362 . S
C132 H109 0.950 . S
C132 C131 1.397 1_545 S
C132 C133 1.334 . S
C133 H110 0.950 . S
C133 C132 1.334 . S
C133 C134 1.292 . S
C134 C133 1.292 . S
C134 C135 1.519 1_545 S
C134 H153 0.914 . S
C135 H111 0.950 . S
C135 C134 1.519 1_565 S
C135 C136 1.415 . S
C136 H112 0.950 . S
C136 C131 1.362 . S
C136 C135 1.415 . S
C137 H113 0.951 . S
C137 C138 1.366 . S
C137 C139 1.388 . S
C138 C137 1.366 . S
C138 C142 1.385 . S
C139 H114 0.951 . S
C139 C137 1.388 . S
C139 C140 1.366 . S
C140 C139 1.366 . S
C140 C141 1.414 . S
C140 C143 1.499 . S
C141 H115 0.950 1_655 S
C141 C140 1.414 . S
C141 C142 1.374 . S
C142 H116 0.950 . S
C142 C138 1.385 . S
C142 C141 1.374 . S
C143 C140 1.499 . S
C143 C144 1.373 1_655 S
C143 C145 1.416 . S
C144 H117 0.950 . S
C144 C130 1.350 1_565 S
C144 C143 1.373 1_455 S
C145 C129 1.350 1_565 S
C145 C143 1.416 . S
C145 C146 1.524 1_565 S
C146 C145 1.524 1_545 S
C146 C147 1.397 1_545 S
C146 C151 1.362 . S
C147 H118 0.950 . S
C147 C146 1.397 1_565 S
C147 C148 1.334 . S
C148 H119 0.950 . S
C148 C147 1.334 . S
C148 C149 1.292 . S
C149 C148 1.292 . S
C149 C150 1.519 1_565 S
C149 H152 0.999 1_565 S
C150 H120 0.950 . S
C150 C149 1.519 1_545 S
C150 C151 1.415 . S
C151 H121 0.950 . S
C151 C146 1.362 . S
C151 C150 1.415 . S
H152 C149 0.999 1_545 S
H153 C134 0.914 . S
H154 C172 0.951 . S
H155 C174 0.951 . S
H156 C176 0.950 . S
H157 C177 0.950 . S
H158 C179 0.950 . S
H159 C182 0.950 . S
H160 C183 0.950 . S
H161 C185 0.950 . S
H162 C186 0.950 . S
H163 C187 0.951 . S
H164 C189 0.951 . S
H165 C191 0.950 . S
H166 C192 0.950 . S
H167 C194 0.950 . S
H168 C197 0.950 . S
H169 C198 0.950 . S
H170 C200 0.950 . S
H171 C201 0.950 . S
C172 H154 0.951 . S
C172 C173 1.366 . S
C172 C174 1.388 . S
C173 C172 1.366 . S
C173 C177 1.385 . S
C174 H155 0.951 . S
C174 C172 1.388 . S
C174 C175 1.366 . S
C175 C174 1.366 . S
C175 C176 1.414 . S
C175 C178 1.499 . S
C176 H156 0.950 . S
C176 C175 1.414 . S
C176 C177 1.374 . S
C177 H157 0.950 . S
C177 C173 1.385 . S
C177 C176 1.374 . S
C178 C175 1.499 . S
C178 C179 1.373 . S
C178 C180 1.389 . S
C179 H158 0.950 . S
C179 C178 1.373 . S
C179 C195 1.377 . S
C180 C178 1.389 . S
C180 C181 1.524 . S
C180 C194 1.377 . S
C181 C180 1.524 . S
C181 C182 1.397 . S
C181 C186 1.363 . S
C182 H159 0.950 . S
C182 C181 1.397 . S
C182 C183 1.334 . S
C183 H160 0.950 . S
C183 C182 1.334 . S
C183 C184 1.287 . S
C184 C183 1.287 . S
C184 C185 1.524 . S
C184 H203 0.913 . S
C185 H161 0.950 . S
C185 C184 1.524 . S
C185 C186 1.415 . S
C186 H162 0.950 . S
C186 C181 1.363 . S
C186 C185 1.415 . S
C187 H163 0.951 . S
C187 C188 1.366 . S
C187 C189 1.388 . S
C188 C187 1.366 . S
C188 C192 1.385 . S
C189 H164 0.951 . S
C189 C187 1.388 . S
C189 C190 1.366 . S
C190 C189 1.366 . S
C190 C191 1.414 . S
C190 C193 1.499 . S
C191 H165 0.950 . S
C191 C190 1.414 . S
C191 C192 1.374 . S
C192 H166 0.950 . S
C192 C188 1.385 . S
C192 C191 1.374 . S
C193 C190 1.499 . S
C193 C194 1.373 . S
C193 C195 1.389 . S
C194 H167 0.950 . S
C194 C180 1.377 . S
C194 C193 1.373 . S
C195 C179 1.377 . S
C195 C193 1.389 . S
C195 C196 1.524 . S
C196 C195 1.524 . S
C196 C197 1.397 . S
C196 C201 1.363 . S
C197 H168 0.950 . S
C197 C196 1.397 . S
C197 C198 1.334 . S
C198 H169 0.950 . S
C198 C197 1.334 . S
C198 C199 1.287 . S
C199 C198 1.287 . S
C199 C200 1.524 . S
C199 H202 0.999 . S
C200 H170 0.950 . S
C200 C199 1.524 . S
C200 C201 1.415 . S
C201 H171 0.950 . S
C201 C196 1.363 . S
C201 C200 1.415 . S
H202 C199 0.999 . S
H203 C184 0.913 . S
H204 C222 0.951 . S
H205 C224 0.951 . S
H206 C226 0.950 . S
H207 C227 0.950 . S
H208 C229 0.950 . S
H209 C232 0.950 . S
H210 C233 0.950 . S
H211 C235 0.950 . S
H212 C236 0.950 . S
H213 C237 0.951 . S
H214 C239 0.951 . S
H215 C241 0.950 . S
H216 C242 0.950 . S
H217 C244 0.950 . S
H218 C247 0.950 . S
H219 C248 0.950 . S
H220 C250 0.950 . S
H221 C251 0.950 . S
C222 H204 0.951 . S
C222 C223 1.366 . S
C222 C224 1.388 . S
C223 C222 1.366 . S
C223 C227 1.385 . S
C224 H205 0.951 . S
C224 C222 1.388 . S
C224 C225 1.366 . S
C225 C224 1.366 . S
C225 C226 1.414 . S
C225 C228 1.499 . S
C226 H206 0.950 . S
C226 C225 1.414 . S
C226 C227 1.374 . S
C227 H207 0.950 . S
C227 C223 1.385 . S
C227 C226 1.374 . S
C228 C225 1.499 . S
C228 C229 1.373 . S
C228 C230 1.389 . S
C229 H208 0.950 . S
C229 C228 1.373 . S
C229 C245 1.377 . S
C230 C228 1.389 . S
C230 C231 1.524 . S
C230 C244 1.377 . S
C231 C230 1.524 . S
C231 C232 1.397 . S
C231 C236 1.363 . S
C232 H209 0.950 . S
C232 C231 1.397 . S
C232 C233 1.334 . S
C233 H210 0.950 . S
C233 C232 1.334 . S
C233 C234 1.287 . S
C234 C233 1.287 . S
C234 C235 1.524 . S
C234 H253 0.913 . S
C235 H211 0.950 . S
C235 C234 1.524 . S
C235 C236 1.415 . S
C236 H212 0.950 . S
C236 C231 1.363 . S
C236 C235 1.415 . S
C237 H213 0.951 . S
C237 C238 1.366 . S
C237 C239 1.388 . S
C238 C237 1.366 . S
C238 C242 1.385 . S
C239 H214 0.951 . S
C239 C237 1.388 . S
C239 C240 1.366 . S
C240 C239 1.366 . S
C240 C241 1.414 . S
C240 C243 1.499 . S
C241 H215 0.950 . S
C241 C240 1.414 . S
C241 C242 1.374 . S
C242 H216 0.950 . S
C242 C238 1.385 . S
C242 C241 1.374 . S
C243 C240 1.499 . S
C243 C244 1.373 . S
C243 C245 1.389 . S
C244 H217 0.950 . S
C244 C230 1.377 . S
C244 C243 1.373 . S
C245 C229 1.377 . S
C245 C243 1.389 . S
C245 C246 1.524 . S
C246 C245 1.524 . S
C246 C247 1.397 . S
C246 C251 1.363 . S
C247 H218 0.950 . S
C247 C246 1.397 . S
C247 C248 1.334 . S
C248 H219 0.950 . S
C248 C247 1.334 . S
C248 C249 1.287 . S
C249 C248 1.287 . S
C249 C250 1.524 . S
C249 H252 0.999 . S
C250 H220 0.950 . S
C250 C249 1.524 . S
C250 C251 1.415 . S
C251 H221 0.950 . S
C251 C246 1.363 . S
C251 C250 1.415 . S
H252 C249 0.999 . S
H253 C234 0.913 . S
H254 C272 0.951 . S
H255 C274 0.951 . S
H256 C276 0.950 . S
H257 C277 0.950 . S
H258 C279 0.950 . S
H259 C282 0.950 1_565 S
H260 C283 0.950 . S
H261 C285 0.950 . S
H262 C286 0.950 1_655 S
H263 C287 0.951 . S
H264 C289 0.951 . S
H265 C291 0.950 . S
H266 C292 0.950 . S
H267 C294 0.950 . S
H268 C297 0.950 1_545 S
H269 C298 0.950 . S
H270 C300 0.950 . S
H271 C301 0.950 1_455 S
C272 H254 0.951 . S
C272 C273 1.366 . S
C272 C274 1.388 . S
C273 C272 1.366 . S
C273 C277 1.385 . S
C274 H255 0.951 . S
C274 C272 1.388 . S
C274 C275 1.366 . S
C275 C274 1.366 . S
C275 C276 1.414 . S
C275 C278 1.499 . S
C276 H256 0.950 . S
C276 C275 1.414 . S
C276 C277 1.374 . S
C277 H257 0.950 . S
C277 C273 1.385 . S
C277 C276 1.374 . S
C278 C275 1.499 . S
C278 C279 1.373 . S
C278 C280 1.389 . S
C279 H258 0.950 . S
C279 C278 1.373 . S
C279 C295 1.377 1_445 S
C280 C278 1.389 . S
C280 C281 1.524 . S
C280 C294 1.377 1_445 S
C281 C280 1.524 . S
C281 C282 1.397 . S
C281 C286 1.363 . S
C282 H259 0.950 1_545 S
C282 C281 1.397 . S
C282 C283 1.334 . S
C283 H260 0.950 . S
C283 C282 1.334 . S
C283 C284 1.287 . S
C284 C283 1.287 . S
C284 C285 1.524 . S
C284 H303 0.913 . S
C285 H261 0.950 . S
C285 C284 1.524 . S
C285 C286 1.415 . S
C286 H262 0.950 1_455 S
C286 C281 1.363 . S
C286 C285 1.415 . S
C287 H263 0.951 . S
C287 C288 1.366 . S
C287 C289 1.388 . S
C288 C287 1.366 . S
C288 C292 1.385 . S
C289 H264 0.951 . S
C289 C287 1.388 . S
C289 C290 1.366 . S
C290 C289 1.366 . S
C290 C291 1.414 . S
C290 C293 1.499 . S
C291 H265 0.950 . S
C291 C290 1.414 . S
C291 C292 1.374 . S
C292 H266 0.950 . S
C292 C288 1.385 . S
C292 C291 1.374 . S
C293 C290 1.499 . S
C293 C294 1.373 . S
C293 C295 1.389 . S
C294 H267 0.950 . S
C294 C280 1.377 1_665 S
C294 C293 1.373 . S
C295 C279 1.377 1_665 S
C295 C293 1.389 . S
C295 C296 1.524 . S
C296 C295 1.524 . S
C296 C297 1.397 . S
C296 C301 1.363 . S
C297 H268 0.950 1_565 S
C297 C296 1.397 . S
C297 C298 1.334 . S
C298 H269 0.950 . S
C298 C297 1.334 . S
C298 C299 1.287 . S
C299 C298 1.287 . S
C299 C300 1.524 . S
C299 H302 0.999 . S
C300 H270 0.950 . S
C300 C299 1.524 . S
C300 C301 1.415 . S
C301 H271 0.950 1_655 S
C301 C296 1.363 . S
C301 C300 1.415 . S
H302 C299 0.999 . S
H303 C284 0.913 . S
H304 C322 0.951 . S
H305 C324 0.951 . S
H306 C326 0.950 . S
H307 C327 0.950 . S
H308 C329 0.950 . S
H309 C332 0.950 . S
H310 C333 0.950 . S
H311 C335 0.950 . S
H312 C336 0.950 . S
H313 C337 0.951 . S
H314 C339 0.951 . S
H315 C341 0.950 . S
H316 C342 0.950 . S
H317 C344 0.950 . S
H318 C347 0.950 . S
H319 C348 0.950 . S
H320 C350 0.950 . S
H321 C351 0.950 . S
C322 H304 0.951 . S
C322 C323 1.366 . S
C322 C324 1.388 . S
C323 C322 1.366 . S
C323 C327 1.385 . S
C324 H305 0.951 . S
C324 C322 1.388 . S
C324 C325 1.366 . S
C325 C324 1.366 . S
C325 C326 1.414 . S
C325 C328 1.499 . S
C326 H306 0.950 . S
C326 C325 1.414 . S
C326 C327 1.374 . S
C327 H307 0.950 . S
C327 C323 1.385 . S
C327 C326 1.374 . S
C328 C325 1.499 . S
C328 C329 1.373 . S
C328 C330 1.389 . S
C329 H308 0.950 . S
C329 C328 1.373 . S
C329 C345 1.377 . S
C330 C328 1.389 . S
C330 C331 1.524 . S
C330 C344 1.377 . S
C331 C330 1.524 . S
C331 C332 1.397 . S
C331 C336 1.363 . S
C332 H309 0.950 . S
C332 C331 1.397 . S
C332 C333 1.334 . S
C333 H310 0.950 . S
C333 C332 1.334 . S
C333 C334 1.287 . S
C334 C333 1.287 . S
C334 C335 1.524 . S
C334 H353 0.913 . S
C335 H311 0.950 . S
C335 C334 1.524 . S
C335 C336 1.415 . S
C336 H312 0.950 . S
C336 C331 1.363 . S
C336 C335 1.415 . S
C337 H313 0.951 . S
C337 C338 1.366 . S
C337 C339 1.388 . S
C338 C337 1.366 . S
C338 C342 1.385 . S
C339 H314 0.951 . S
C339 C337 1.388 . S
C339 C340 1.366 . S
C340 C339 1.366 . S
C340 C341 1.414 . S
C340 C343 1.499 . S
C341 H315 0.950 . S
C341 C340 1.414 . S
C341 C342 1.374 . S
C342 H316 0.950 . S
C342 C338 1.385 . S
C342 C341 1.374 . S
C343 C340 1.499 . S
C343 C344 1.373 . S
C343 C345 1.389 . S
C344 H317 0.950 . S
C344 C330 1.377 . S
C344 C343 1.373 . S
C345 C329 1.377 . S
C345 C343 1.389 . S
C345 C346 1.524 . S
C346 C345 1.524 . S
C346 C347 1.397 . S
C346 C351 1.363 . S
C347 H318 0.950 . S
C347 C346 1.397 . S
C347 C348 1.334 . S
C348 H319 0.950 . S
C348 C347 1.334 . S
C348 C349 1.287 . S
C349 C348 1.287 . S
C349 C350 1.524 . S
C349 H352 0.999 . S
C350 H320 0.950 . S
C350 C349 1.524 . S
C350 C351 1.415 . S
C351 H321 0.950 . S
C351 C346 1.363 . S
C351 C350 1.415 . S
H352 C349 0.999 . S
H353 C334 0.913 . S
H354 C372 0.951 . S
H355 C374 0.951 . S
H356 C376 0.950 . S
H357 C377 0.950 . S
H358 C379 0.950 . S
H359 C382 0.950 . S
H360 C383 0.950 . S
H361 C385 0.950 . S
H362 C386 0.950 . S
H363 C387 0.951 . S
H364 C389 0.951 . S
H365 C391 0.950 . S
H366 C392 0.950 . S
H367 C394 0.950 . S
H368 C397 0.950 . S
H369 C398 0.950 . S
H370 C400 0.950 . S
H371 C401 0.950 . S
C372 H354 0.951 . S
C372 C373 1.366 . S
C372 C374 1.388 . S
C373 C372 1.366 . S
C373 C377 1.385 . S
C374 H355 0.951 . S
C374 C372 1.388 . S
C374 C375 1.366 . S
C375 C374 1.366 . S
C375 C376 1.414 . S
C375 C378 1.499 . S
C376 H356 0.950 . S
C376 C375 1.414 . S
C376 C377 1.374 . S
C377 H357 0.950 . S
C377 C373 1.385 . S
C377 C376 1.374 . S
C378 C375 1.499 . S
C378 C379 1.373 . S
C378 C380 1.389 . S
C379 H358 0.950 . S
C379 C378 1.373 . S
C379 C395 1.377 1_556 S
C380 C378 1.389 . S
C380 C381 1.524 . S
C380 C394 1.377 1_556 S
C381 C380 1.524 . S
C381 C382 1.397 . S
C381 C386 1.363 . S
C382 H359 0.950 . S
C382 C381 1.397 . S
C382 C383 1.334 . S
C383 H360 0.950 . S
C383 C382 1.334 . S
C383 C384 1.287 . S
C384 C383 1.287 . S
C384 C385 1.524 . S
C384 H403 0.913 . S
C385 H361 0.950 . S
C385 C384 1.524 . S
C385 C386 1.415 . S
C386 H362 0.950 . S
C386 C381 1.363 . S
C386 C385 1.415 . S
C387 H363 0.951 . S
C387 C388 1.366 . S
C387 C389 1.388 . S
C388 C387 1.366 . S
C388 C392 1.385 . S
C389 H364 0.951 . S
C389 C387 1.388 . S
C389 C390 1.366 . S
C390 C389 1.366 . S
C390 C391 1.414 . S
C390 C393 1.499 . S
C391 H365 0.950 . S
C391 C390 1.414 . S
C391 C392 1.374 . S
C392 H366 0.950 . S
C392 C388 1.385 . S
C392 C391 1.374 . S
C393 C390 1.499 . S
C393 C394 1.373 . S
C393 C395 1.389 . S
C394 H367 0.950 . S
C394 C380 1.377 1_554 S
C394 C393 1.373 . S
C395 C379 1.377 1_554 S
C395 C393 1.389 . S
C395 C396 1.524 . S
C396 C395 1.524 . S
C396 C397 1.397 . S
C396 C401 1.363 . S
C397 H368 0.950 . S
C397 C396 1.397 . S
C397 C398 1.334 . S
C398 H369 0.950 . S
C398 C397 1.334 . S
C398 C399 1.287 . S
C399 C398 1.287 . S
C399 C400 1.524 . S
C399 H402 0.999 . S
C400 H370 0.950 . S
C400 C399 1.524 . S
C400 C401 1.415 . S
C401 H371 0.950 . S
C401 C396 1.363 . S
C401 C400 1.415 . S
H402 C399 0.999 . S
H403 C384 0.913 . S
H404 C422 0.951 . S
H405 C424 0.951 . S
H406 C426 0.950 . S
H407 C427 0.950 . S
H408 C429 0.950 . S
H409 C432 0.950 . S
H410 C433 0.950 . S
H411 C435 0.950 . S
H412 C436 0.950 . S
H413 C437 0.951 . S
H414 C439 0.951 . S
H415 C441 0.950 . S
H416 C442 0.950 . S
H417 C444 0.950 . S
H418 C447 0.950 . S
H419 C448 0.950 . S
H420 C450 0.950 . S
H421 C451 0.950 . S
C422 H404 0.951 . S
C422 C423 1.366 . S
C422 C424 1.388 . S
C423 C422 1.366 . S
C423 C427 1.385 . S
C424 H405 0.951 . S
C424 C422 1.388 . S
C424 C425 1.366 . S
C425 C424 1.366 . S
C425 C426 1.414 . S
C425 C428 1.499 . S
C426 H406 0.950 . S
C426 C425 1.414 . S
C426 C427 1.374 . S
C427 H407 0.950 . S
C427 C423 1.385 . S
C427 C426 1.374 . S
C428 C425 1.499 . S
C428 C429 1.373 . S
C428 C430 1.389 . S
C429 H408 0.950 . S
C429 C428 1.373 . S
C429 C445 1.377 . S
C430 C428 1.389 . S
C430 C431 1.524 . S
C430 C444 1.377 . S
C431 C430 1.524 . S
C431 C432 1.397 . S
C431 C436 1.363 . S
C432 H409 0.950 . S
C432 C431 1.397 . S
C432 C433 1.334 . S
C433 H410 0.950 . S
C433 C432 1.334 . S
C433 C434 1.287 . S
C434 C433 1.287 . S
C434 C435 1.524 . S
C434 H453 0.913 . S
C435 H411 0.950 . S
C435 C434 1.524 . S
C435 C436 1.415 . S
C436 H412 0.950 . S
C436 C431 1.363 . S
C436 C435 1.415 . S
C437 H413 0.951 . S
C437 C438 1.366 . S
C437 C439 1.388 . S
C438 C437 1.366 . S
C438 C442 1.385 . S
C439 H414 0.951 . S
C439 C437 1.388 . S
C439 C440 1.366 . S
C440 C439 1.366 . S
C440 C441 1.414 . S
C440 C443 1.499 . S
C441 H415 0.950 . S
C441 C440 1.414 . S
C441 C442 1.374 . S
C442 H416 0.950 . S
C442 C438 1.385 . S
C442 C441 1.374 . S
C443 C440 1.499 . S
C443 C444 1.373 . S
C443 C445 1.389 . S
C444 H417 0.950 . S
C444 C430 1.377 . S
C444 C443 1.373 . S
C445 C429 1.377 . S
C445 C443 1.389 . S
C445 C446 1.524 . S
C446 C445 1.524 . S
C446 C447 1.397 . S
C446 C451 1.363 . S
C447 H418 0.950 . S
C447 C446 1.397 . S
C447 C448 1.334 . S
C448 H419 0.950 . S
C448 C447 1.334 . S
C448 C449 1.287 . S
C449 C448 1.287 . S
C449 C450 1.524 . S
C449 H452 0.999 . S
C450 H420 0.950 . S
C450 C449 1.524 . S
C450 C451 1.415 . S
C451 H421 0.950 . S
C451 C446 1.363 . S
C451 C450 1.415 . S
H452 C449 0.999 . S
H453 C434 0.913 . S
H454 C472 0.951 . S
H455 C474 0.951 . S
H456 C476 0.950 . S
H457 C477 0.950 . S
H458 C479 0.950 . S
H459 C482 0.950 . S
H460 C483 0.950 . S
H461 C485 0.950 . S
H462 C486 0.950 1_554 S
H463 C487 0.951 . S
H464 C489 0.951 . S
H465 C491 0.950 . S
H466 C492 0.950 . S
H467 C494 0.950 . S
H468 C497 0.950 . S
H469 C498 0.950 . S
H470 C500 0.950 . S
H471 C501 0.950 1_556 S
C472 H454 0.951 . S
C472 C473 1.366 . S
C472 C474 1.388 . S
C473 C472 1.366 . S
C473 C477 1.385 . S
C474 H455 0.951 . S
C474 C472 1.388 . S
C474 C475 1.366 . S
C475 C474 1.366 . S
C475 C476 1.414 . S
C475 C478 1.499 . S
C476 H456 0.950 . S
C476 C475 1.414 . S
C476 C477 1.374 . S
C477 H457 0.950 . S
C477 C473 1.385 . S
C477 C476 1.374 . S
C478 C475 1.499 . S
C478 C479 1.373 . S
C478 C480 1.389 . S
C479 H458 0.950 . S
C479 C478 1.373 . S
C479 C495 1.377 1_556 S
C480 C478 1.389 . S
C480 C481 1.524 . S
C480 C494 1.377 1_556 S
C481 C480 1.524 . S
C481 C482 1.397 . S
C481 C486 1.363 . S
C482 H459 0.950 . S
C482 C481 1.397 . S
C482 C483 1.334 . S
C483 H460 0.950 . S
C483 C482 1.334 . S
C483 C484 1.287 . S
C484 C483 1.287 . S
C484 C485 1.524 . S
C484 H503 0.913 . S
C485 H461 0.950 . S
C485 C484 1.524 . S
C485 C486 1.415 . S
C486 H462 0.950 1_556 S
C486 C481 1.363 . S
C486 C485 1.415 . S
C487 H463 0.951 . S
C487 C488 1.366 . S
C487 C489 1.388 . S
C488 C487 1.366 . S
C488 C492 1.385 . S
C489 H464 0.951 . S
C489 C487 1.388 . S
C489 C490 1.366 . S
C490 C489 1.366 . S
C490 C491 1.414 . S
C490 C493 1.499 . S
C491 H465 0.950 . S
C491 C490 1.414 . S
C491 C492 1.374 . S
C492 H466 0.950 . S
C492 C488 1.385 . S
C492 C491 1.374 . S
C493 C490 1.499 . S
C493 C494 1.373 . S
C493 C495 1.389 . S
C494 H467 0.950 . S
C494 C480 1.377 1_554 S
C494 C493 1.373 . S
C495 C479 1.377 1_554 S
C495 C493 1.389 . S
C495 C496 1.524 . S
C496 C495 1.524 . S
C496 C497 1.397 . S
C496 C501 1.363 . S
C497 H468 0.950 . S
C497 C496 1.397 . S
C497 C498 1.334 . S
C498 H469 0.950 . S
C498 C497 1.334 . S
C498 C499 1.287 . S
C499 C498 1.287 . S
C499 C500 1.524 . S
C499 H502 0.999 . S
C500 H470 0.950 . S
C500 C499 1.524 . S
C500 C501 1.415 . S
C501 H471 0.950 1_554 S
C501 C496 1.363 . S
C501 C500 1.415 . S
H502 C499 0.999 . S
H503 C484 0.913 . S
H504 C522 0.951 . S
H505 C524 0.951 . S
H506 C526 0.950 . S
H507 C527 0.950 . S
H508 C529 0.950 . S
H509 C532 0.950 . S
H510 C533 0.950 . S
H511 C535 0.950 . S
H512 C536 0.950 . S
H513 C537 0.951 . S
H514 C539 0.951 . S
H515 C541 0.950 . S
H516 C542 0.950 . S
H517 C544 0.950 . S
H518 C547 0.950 . S
H519 C548 0.950 . S
H520 C550 0.950 . S
H521 C551 0.950 . S
C522 H504 0.951 . S
C522 C523 1.366 . S
C522 C524 1.388 . S
C523 C522 1.366 . S
C523 C527 1.385 . S
C524 H505 0.951 . S
C524 C522 1.388 . S
C524 C525 1.366 . S
C525 C524 1.366 . S
C525 C526 1.414 . S
C525 C528 1.499 . S
C526 H506 0.950 . S
C526 C525 1.414 . S
C526 C527 1.374 . S
C527 H507 0.950 . S
C527 C523 1.385 . S
C527 C526 1.374 . S
C528 C525 1.499 . S
C528 C529 1.373 . S
C528 C530 1.389 . S
C529 H508 0.950 . S
C529 C528 1.373 . S
C529 C545 1.377 . S
C530 C528 1.389 . S
C530 C531 1.524 . S
C530 C544 1.377 . S
C531 C530 1.524 . S
C531 C532 1.397 . S
C531 C536 1.363 . S
C532 H509 0.950 . S
C532 C531 1.397 . S
C532 C533 1.334 . S
C533 H510 0.950 . S
C533 C532 1.334 . S
C533 C534 1.287 . S
C534 C533 1.287 . S
C534 C535 1.524 . S
C534 H553 0.913 . S
C535 H511 0.950 . S
C535 C534 1.524 . S
C535 C536 1.415 . S
C536 H512 0.950 . S
C536 C531 1.363 . S
C536 C535 1.415 . S
C537 H513 0.951 . S
C537 C538 1.366 . S
C537 C539 1.388 . S
C538 C537 1.366 . S
C538 C542 1.385 . S
C539 H514 0.951 . S
C539 C537 1.388 . S
C539 C540 1.366 . S
C540 C539 1.366 . S
C540 C541 1.414 . S
C540 C543 1.499 . S
C541 H515 0.950 . S
C541 C540 1.414 . S
C541 C542 1.374 . S
C542 H516 0.950 . S
C542 C538 1.385 . S
C542 C541 1.374 . S
C543 C540 1.499 . S
C543 C544 1.373 . S
C543 C545 1.389 . S
C544 H517 0.950 . S
C544 C530 1.377 . S
C544 C543 1.373 . S
C545 C529 1.377 . S
C545 C543 1.389 . S
C545 C546 1.524 . S
C546 C545 1.524 . S
C546 C547 1.397 . S
C546 C551 1.363 . S
C547 H518 0.950 . S
C547 C546 1.397 . S
C547 C548 1.334 . S
C548 H519 0.950 . S
C548 C547 1.334 . S
C548 C549 1.287 . S
C549 C548 1.287 . S
C549 C550 1.524 . S
C549 H552 0.999 . S
C550 H520 0.950 . S
C550 C549 1.524 . S
C550 C551 1.415 . S
C551 H521 0.950 . S
C551 C546 1.363 . S
C551 C550 1.415 . S
H552 C549 0.999 . S
H553 C534 0.913 . S
H554 C572 0.951 . S
H555 C574 0.951 . S
H556 C576 0.950 . S
H557 C577 0.950 . S
H558 C579 0.950 . S
H559 C582 0.950 . S
H560 C583 0.950 . S
H561 C585 0.950 . S
H562 C586 0.950 . S
H563 C587 0.951 . S
H564 C589 0.951 . S
H565 C591 0.950 . S
H566 C592 0.951 . S
H567 C594 0.950 . S
H568 C597 0.950 . S
H569 C598 0.950 . S
H570 C600 0.950 . S
H571 C601 0.950 . S
C572 H554 0.951 . S
C572 C573 1.366 . S
C572 C574 1.388 . S
C573 C572 1.366 . S
C573 C577 1.385 . S
C574 H555 0.951 . S
C574 C572 1.388 . S
C574 C575 1.366 . S
C575 C574 1.366 . S
C575 C576 1.414 . S
C575 C578 1.499 . S
C576 H556 0.950 . S
C576 C575 1.414 . S
C576 C577 1.374 . S
C577 H557 0.950 . S
C577 C573 1.385 . S
C577 C576 1.374 . S
C578 C575 1.499 . S
C578 C579 1.373 . S
C578 C580 1.389 . S
C579 H558 0.950 . S
C579 C578 1.373 . S
C579 C595 1.377 . S
C580 C578 1.389 . S
C580 C581 1.524 . S
C580 C594 1.377 . S
C581 C580 1.524 . S
C581 C582 1.397 . S
C581 C586 1.363 . S
C582 H559 0.950 . S
C582 C581 1.397 . S
C582 C583 1.334 . S
C583 H560 0.950 . S
C583 C582 1.334 . S
C583 C584 1.287 . S
C584 C583 1.287 . S
C584 C585 1.524 . S
C584 H603 0.913 . S
C585 H561 0.950 . S
C585 C584 1.524 . S
C585 C586 1.415 . S
C586 H562 0.950 . S
C586 C581 1.363 . S
C586 C585 1.415 . S
C587 H563 0.951 . S
C587 C588 1.366 . S
C587 C589 1.388 1_545 S
C588 C587 1.366 . S
C588 C592 1.399 . S
C589 H564 0.951 . S
C589 C587 1.388 1_565 S
C589 C590 1.366 . S
C590 C589 1.366 . S
C590 C591 1.414 . S
C590 C593 1.499 . S
C591 H565 0.950 . S
C591 C590 1.414 . S
C591 C592 1.358 1_565 S
C592 H566 0.951 . S
C592 C588 1.399 . S
C592 C591 1.358 1_545 S
C593 C590 1.499 . S
C593 C594 1.373 . S
C593 C595 1.389 . S
C594 H567 0.950 . S
C594 C580 1.377 . S
C594 C593 1.373 . S
C595 C579 1.377 . S
C595 C593 1.389 . S
C595 C596 1.524 . S
C596 C595 1.524 . S
C596 C597 1.397 . S
C596 C601 1.363 . S
C597 H568 0.950 . S
C597 C596 1.397 . S
C597 C598 1.334 . S
C598 H569 0.950 . S
C598 C597 1.334 . S
C598 C599 1.287 . S
C599 C598 1.287 . S
C599 C600 1.524 . S
C599 H602 0.999 . S
C600 H570 0.950 . S
C600 C599 1.524 . S
C600 C601 1.415 . S
C601 H571 0.950 . S
C601 C596 1.363 . S
C601 C600 1.415 . S
H602 C599 0.999 . S
H603 C584 0.913 . S
H604 C622 0.951 . S
H605 C624 0.951 . S
H606 C626 0.950 . S
H607 C627 0.950 . S
H608 C629 0.950 . S
H609 C632 0.950 . S
H610 C633 0.950 . S
H611 C635 0.950 . S
H612 C636 0.950 . S
H613 C637 0.951 . S
H614 C639 0.951 . S
H615 C641 0.950 . S
H616 C642 0.950 . S
H617 C644 0.950 . S
H618 C647 0.950 . S
H619 C648 0.950 . S
H620 C650 0.950 . S
H621 C651 0.950 . S
C622 H604 0.951 . S
C622 C623 1.366 . S
C622 C624 1.388 . S
C623 C622 1.366 . S
C623 C627 1.385 . S
C624 H605 0.951 . S
C624 C622 1.388 . S
C624 C625 1.366 . S
C625 C624 1.366 . S
C625 C626 1.414 . S
C625 C628 1.499 . S
C626 H606 0.950 . S
C626 C625 1.414 . S
C626 C627 1.374 . S
C627 H607 0.950 . S
C627 C623 1.385 . S
C627 C626 1.374 . S
C628 C625 1.499 . S
C628 C629 1.373 . S
C628 C630 1.389 . S
C629 H608 0.950 . S
C629 C628 1.373 . S
C629 C645 1.377 . S
C630 C628 1.389 . S
C630 C631 1.524 . S
C630 C644 1.377 . S
C631 C630 1.524 . S
C631 C632 1.397 . S
C631 C636 1.363 . S
C632 H609 0.950 . S
C632 C631 1.397 . S
C632 C633 1.334 . S
C633 H610 0.950 . S
C633 C632 1.334 . S
C633 C634 1.287 . S
C634 C633 1.287 . S
C634 C635 1.524 . S
C634 H653 0.913 . S
C635 H611 0.950 . S
C635 C634 1.524 . S
C635 C636 1.415 . S
C636 H612 0.950 . S
C636 C631 1.363 . S
C636 C635 1.415 . S
C637 H613 0.951 . S
C637 C638 1.366 . S
C637 C639 1.388 . S
C638 C637 1.366 . S
C638 C642 1.385 . S
C639 H614 0.951 . S
C639 C637 1.388 . S
C639 C640 1.366 . S
C640 C639 1.366 . S
C640 C641 1.414 . S
C640 C643 1.499 . S
C641 H615 0.950 . S
C641 C640 1.414 . S
C641 C642 1.374 . S
C642 H616 0.950 . S
C642 C638 1.385 . S
C642 C641 1.374 . S
C643 C640 1.499 . S
C643 C644 1.373 . S
C643 C645 1.389 . S
C644 H617 0.950 . S
C644 C630 1.377 . S
C644 C643 1.373 . S
C645 C629 1.377 . S
C645 C643 1.389 . S
C645 C646 1.524 . S
C646 C645 1.524 . S
C646 C647 1.397 . S
C646 C651 1.363 . S
C647 H618 0.950 . S
C647 C646 1.397 . S
C647 C648 1.334 . S
C648 H619 0.950 . S
C648 C647 1.334 . S
C648 C649 1.287 . S
C649 C648 1.287 . S
C649 C650 1.524 . S
C649 H652 0.999 . S
C650 H620 0.950 . S
C650 C649 1.524 . S
C650 C651 1.415 . S
C651 H621 0.950 . S
C651 C646 1.363 . S
C651 C650 1.415 . S
H652 C649 0.999 . S
H653 C634 0.913 . S
H654 C672 0.951 . S
H655 C674 0.951 . S
H656 C676 0.950 . S
H657 C677 0.950 . S
H658 C679 0.950 . S
H659 C682 0.950 . S
H660 C683 0.950 . S
H661 C685 0.950 . S
H662 C686 0.950 . S
H663 C687 0.951 . S
H664 C689 0.951 . S
H665 C691 0.950 . S
H666 C692 0.950 . S
H667 C694 0.950 . S
H668 C697 0.950 . S
H669 C698 0.950 . S
H670 C700 0.950 . S
H671 C701 0.950 . S
C672 H654 0.951 . S
C672 C673 1.366 . S
C672 C674 1.388 . S
C673 C672 1.366 . S
C673 C677 1.385 . S
C674 H655 0.951 . S
C674 C672 1.388 . S
C674 C675 1.366 . S
C675 C674 1.366 . S
C675 C676 1.414 . S
C675 C678 1.499 . S
C676 H656 0.950 . S
C676 C675 1.414 . S
C676 C677 1.374 . S
C677 H657 0.950 . S
C677 C673 1.385 . S
C677 C676 1.374 . S
C678 C675 1.499 . S
C678 C679 1.373 . S
C678 C680 1.389 . S
C679 H658 0.950 . S
C679 C678 1.373 . S
C679 C695 1.377 . S
C680 C678 1.389 . S
C680 C681 1.524 . S
C680 C694 1.377 . S
C681 C680 1.524 . S
C681 C682 1.397 . S
C681 C686 1.363 . S
C682 H659 0.950 . S
C682 C681 1.397 . S
C682 C683 1.334 . S
C683 H660 0.950 . S
C683 C682 1.334 . S
C683 C684 1.287 . S
C684 C683 1.287 . S
C684 C685 1.524 . S
C684 H703 0.913 . S
C685 H661 0.950 . S
C685 C684 1.524 . S
C685 C686 1.415 . S
C686 H662 0.950 . S
C686 C681 1.363 . S
C686 C685 1.415 . S
C687 H663 0.951 . S
C687 C688 1.366 . S
C687 C689 1.388 1_565 S
C688 C687 1.366 . S
C688 C692 1.385 . S
C689 H664 0.951 . S
C689 C687 1.388 1_545 S
C689 C690 1.366 . S
C690 C689 1.366 . S
C690 C691 1.414 . S
C690 C693 1.499 . S
C691 H665 0.950 . S
C691 C690 1.414 . S
C691 C692 1.374 1_545 S
C692 H666 0.950 . S
C692 C688 1.385 . S
C692 C691 1.374 1_565 S
C693 C690 1.499 . S
C693 C694 1.373 . S
C693 C695 1.389 . S
C694 H667 0.950 . S
C694 C680 1.377 . S
C694 C693 1.373 . S
C695 C679 1.377 . S
C695 C693 1.389 . S
C695 C696 1.524 . S
C696 C695 1.524 . S
C696 C697 1.397 . S
C696 C701 1.363 . S
C697 H668 0.950 . S
C697 C696 1.397 . S
C697 C698 1.334 . S
C698 H669 0.950 . S
C698 C697 1.334 . S
C698 C699 1.287 . S
C699 C698 1.287 . S
C699 C700 1.524 . S
C699 H702 0.999 . S
C700 H670 0.950 . S
C700 C699 1.524 . S
C700 C701 1.415 . S
C701 H671 0.950 . S
C701 C696 1.363 . S
C701 C700 1.415 . S
H702 C699 0.999 . S
H703 C684 0.913 . S
H704 C722 0.951 . S
H705 C724 0.951 . S
H706 C726 0.950 . S
H707 C727 0.950 . S
H708 C729 0.950 . S
H709 C732 0.950 . S
H710 C733 0.950 . S
H711 C735 0.950 . S
H712 C736 0.950 . S
H713 C737 0.951 . S
H714 C739 0.951 . S
H715 C741 0.950 . S
H716 C742 0.950 . S
H717 C744 0.950 . S
H718 C747 0.950 . S
H719 C748 0.950 . S
H720 C750 0.950 . S
H721 C751 0.950 . S
C722 H704 0.951 . S
C722 C723 1.366 . S
C722 C724 1.388 1_455 S
C723 C722 1.366 . S
C723 C727 1.385 . S
C724 H705 0.951 . S
C724 C722 1.388 1_655 S
C724 C725 1.366 . S
C725 C724 1.366 . S
C725 C726 1.414 . S
C725 C728 1.499 . S
C726 H706 0.950 . S
C726 C725 1.414 . S
C726 C727 1.374 1_655 S
C727 H707 0.950 . S
C727 C723 1.385 . S
C727 C726 1.374 1_455 S
C728 C725 1.499 . S
C728 C729 1.373 . S
C728 C730 1.389 . S
C729 H708 0.950 . S
C729 C728 1.373 . S
C729 C745 1.377 . S
C730 C728 1.389 . S
C730 C731 1.524 . S
C730 C744 1.377 . S
C731 C730 1.524 . S
C731 C732 1.397 . S
C731 C736 1.363 . S
C732 H709 0.950 . S
C732 C731 1.397 . S
C732 C733 1.334 1_655 S
C733 H710 0.950 . S
C733 C732 1.334 1_455 S
C733 C734 1.287 . S
C734 C733 1.287 . S
C734 C735 1.524 1_455 S
C734 H753 0.913 . S
C735 H711 0.950 . S
C735 C734 1.524 1_655 S
C735 C736 1.415 . S
C736 H712 0.950 . S
C736 C731 1.363 . S
C736 C735 1.415 . S
C737 H713 0.951 . S
C737 C738 1.366 . S
C737 C739 1.388 . S
C738 C737 1.366 . S
C738 C742 1.385 . S
C739 H714 0.951 . S
C739 C737 1.388 . S
C739 C740 1.366 . S
C740 C739 1.366 . S
C740 C741 1.414 . S
C740 C743 1.499 . S
C741 H715 0.950 . S
C741 C740 1.414 . S
C741 C742 1.374 . S
C742 H716 0.950 . S
C742 C738 1.385 . S
C742 C741 1.374 . S
C743 C740 1.499 . S
C743 C744 1.373 . S
C743 C745 1.389 . S
C744 H717 0.950 . S
C744 C730 1.377 . S
C744 C743 1.373 . S
C745 C729 1.377 . S
C745 C743 1.389 . S
C745 C746 1.524 . S
C746 C745 1.524 . S
C746 C747 1.397 . S
C746 C751 1.363 . S
C747 H718 0.950 . S
C747 C746 1.397 . S
C747 C748 1.334 . S
C748 H719 0.950 . S
C748 C747 1.334 . S
C748 C749 1.287 . S
C749 C748 1.287 . S
C749 C750 1.524 . S
C749 H752 0.999 . S
C750 H720 0.950 . S
C750 C749 1.524 . S
C750 C751 1.415 . S
C751 H721 0.950 . S
C751 C746 1.363 . S
C751 C750 1.415 . S
H752 C749 0.999 . S
H753 C734 0.913 . S
H754 C772 0.951 . S
H755 C774 0.951 . S
H756 C776 0.950 . S
H757 C777 0.950 . S
H758 C779 0.950 . S
H759 C782 0.950 . S
H760 C783 0.950 . S
H761 C785 0.950 . S
H762 C786 0.950 . S
H763 C787 0.951 . S
H764 C789 0.951 . S
H765 C791 0.950 . S
H766 C792 0.950 . S
H767 C794 0.950 . S
H768 C797 0.950 . S
H769 C798 0.950 . S
H770 C800 0.950 . S
H771 C801 0.950 . S
C772 H754 0.951 . S
C772 C773 1.366 . S
C772 C774 1.388 . S
C773 C772 1.366 . S
C773 C777 1.385 . S
C774 H755 0.951 . S
C774 C772 1.388 . S
C774 C775 1.366 . S
C775 C774 1.366 . S
C775 C776 1.414 . S
C775 C778 1.499 . S
C776 H756 0.950 . S
C776 C775 1.414 . S
C776 C777 1.374 . S
C777 H757 0.950 . S
C777 C773 1.385 . S
C777 C776 1.374 . S
C778 C775 1.499 . S
C778 C779 1.373 . S
C778 C780 1.389 . S
C779 H758 0.950 . S
C779 C778 1.373 . S
C779 C795 1.377 . S
C780 C778 1.389 . S
C780 C781 1.524 . S
C780 C794 1.377 . S
C781 C780 1.524 . S
C781 C782 1.397 . S
C781 C786 1.363 . S
C782 H759 0.950 . S
C782 C781 1.397 . S
C782 C783 1.334 . S
C783 H760 0.950 . S
C783 C782 1.334 . S
C783 C784 1.287 . S
C784 C783 1.287 . S
C784 C785 1.524 . S
C784 H803 0.913 . S
C785 H761 0.950 . S
C785 C784 1.524 . S
C785 C786 1.415 . S
C786 H762 0.950 . S
C786 C781 1.363 . S
C786 C785 1.415 . S
C787 H763 0.951 . S
C787 C788 1.366 . S
C787 C789 1.388 . S
C788 C787 1.366 . S
C788 C792 1.385 . S
C789 H764 0.951 . S
C789 C787 1.388 . S
C789 C790 1.366 . S
C790 C789 1.366 . S
C790 C791 1.414 . S
C790 C793 1.499 . S
C791 H765 0.950 . S
C791 C790 1.414 . S
C791 C792 1.374 . S
C792 H766 0.950 . S
C792 C788 1.385 . S
C792 C791 1.374 . S
C793 C790 1.499 . S
C793 C794 1.373 . S
C793 C795 1.389 . S
C794 H767 0.950 . S
C794 C780 1.377 . S
C794 C793 1.373 . S
C795 C779 1.377 . S
C795 C793 1.389 . S
C795 C796 1.524 . S
C796 C795 1.524 . S
C796 C797 1.397 . S
C796 C801 1.363 . S
C797 H768 0.950 . S
C797 C796 1.397 . S
C797 C798 1.334 . S
C798 H769 0.950 . S
C798 C797 1.334 . S
C798 C799 1.287 . S
C799 C798 1.287 . S
C799 C800 1.524 . S
C799 H802 0.999 . S
C800 H770 0.950 . S
C800 C799 1.524 . S
C800 C801 1.415 . S
C801 H771 0.950 . S
C801 C796 1.363 . S
C801 C800 1.415 . S
H802 C799 0.999 . S
H803 C784 0.913 . S
H804 C822 0.951 . S
H805 C824 0.951 . S
H806 C826 0.950 . S
H807 C827 0.950 . S
H808 C829 0.950 . S
H809 C832 0.950 . S
H810 C833 0.950 . S
H811 C835 0.950 . S
H812 C836 0.950 . S
H813 C837 0.951 . S
H814 C839 0.951 . S
H815 C841 0.950 . S
H816 C842 0.950 . S
H817 C844 0.950 . S
H818 C847 0.950 . S
H819 C848 0.950 . S
H820 C850 0.950 . S
H821 C851 0.950 . S
C822 H804 0.951 . S
C822 C823 1.366 . S
C822 C824 1.388 . S
C823 C822 1.366 . S
C823 C827 1.385 . S
C824 H805 0.951 . S
C824 C822 1.388 . S
C824 C825 1.366 . S
C825 C824 1.366 . S
C825 C826 1.414 . S
C825 C828 1.499 . S
C826 H806 0.950 . S
C826 C825 1.414 . S
C826 C827 1.374 . S
C827 H807 0.950 . S
C827 C823 1.385 . S
C827 C826 1.374 . S
C828 C825 1.499 . S
C828 C829 1.373 . S
C828 C830 1.389 . S
C829 H808 0.950 . S
C829 C828 1.373 . S
C829 C845 1.377 . S
C830 C828 1.389 . S
C830 C831 1.524 . S
C830 C844 1.377 . S
C831 C830 1.524 . S
C831 C832 1.397 . S
C831 C836 1.363 . S
C832 H809 0.950 . S
C832 C831 1.397 . S
C832 C833 1.334 . S
C833 H810 0.950 . S
C833 C832 1.334 . S
C833 C834 1.287 . S
C834 C833 1.287 . S
C834 C835 1.524 . S
C834 H853 0.913 . S
C835 H811 0.950 . S
C835 C834 1.524 . S
C835 C836 1.415 . S
C836 H812 0.950 . S
C836 C831 1.363 . S
C836 C835 1.415 . S
C837 H813 0.951 . S
C837 C838 1.366 . S
C837 C839 1.388 1_655 S
C838 C837 1.366 . S
C838 C842 1.385 . S
C839 H814 0.951 . S
C839 C837 1.388 1_455 S
C839 C840 1.366 . S
C840 C839 1.366 . S
C840 C841 1.414 . S
C840 C843 1.499 . S
C841 H815 0.950 . S
C841 C840 1.414 . S
C841 C842 1.374 1_455 S
C842 H816 0.950 . S
C842 C838 1.385 . S
C842 C841 1.374 1_655 S
C843 C840 1.499 . S
C843 C844 1.373 . S
C843 C845 1.389 . S
C844 H817 0.950 . S
C844 C830 1.377 . S
C844 C843 1.373 . S
C845 C829 1.377 . S
C845 C843 1.389 . S
C845 C846 1.524 . S
C846 C845 1.524 . S
C846 C847 1.397 . S
C846 C851 1.363 . S
C847 H818 0.950 . S
C847 C846 1.397 . S
C847 C848 1.334 . S
C848 H819 0.950 . S
C848 C847 1.334 . S
C848 C849 1.287 . S
C849 C848 1.287 . S
C849 C850 1.524 . S
C849 H852 0.999 . S
C850 H820 0.950 . S
C850 C849 1.524 . S
C850 C851 1.415 . S
C851 H821 0.950 . S
C851 C846 1.363 . S
C851 C850 1.415 . S
H852 C849 0.999 . S
H853 C834 0.913 . S
H854 C872 0.951 . S
H855 C874 0.951 . S
H856 C876 0.950 . S
H857 C877 0.950 . S
H858 C879 0.950 . S
H859 C882 0.950 . S
H860 C883 0.950 . S
H861 C885 0.950 . S
H862 C886 0.950 . S
H863 C887 0.951 . S
H864 C889 0.951 . S
H865 C891 0.950 . S
H866 C892 0.950 . S
H867 C894 0.950 . S
H868 C897 0.950 . S
H869 C898 0.950 . S
H870 C900 0.950 . S
H871 C901 0.950 . S
C872 H854 0.951 . S
C872 C873 1.366 . S
C872 C874 1.388 . S
C873 C872 1.366 . S
C873 C877 1.385 . S
C874 H855 0.951 . S
C874 C872 1.388 . S
C874 C875 1.366 . S
C875 C874 1.366 . S
C875 C876 1.414 . S
C875 C878 1.499 . S
C876 H856 0.950 . S
C876 C875 1.414 . S
C876 C877 1.374 . S
C877 H857 0.950 . S
C877 C873 1.385 . S
C877 C876 1.374 . S
C878 C875 1.499 . S
C878 C879 1.373 . S
C878 C880 1.389 . S
C879 H858 0.950 . S
C879 C878 1.373 . S
C879 C895 1.377 . S
C880 C878 1.389 . S
C880 C881 1.524 . S
C880 C894 1.377 . S
C881 C880 1.524 . S
C881 C882 1.397 . S
C881 C886 1.363 . S
C882 H859 0.950 . S
C882 C881 1.397 . S
C882 C883 1.334 . S
C883 H860 0.950 . S
C883 C882 1.334 . S
C883 C884 1.287 . S
C884 C883 1.287 . S
C884 C885 1.524 . S
C884 H903 0.913 . S
C885 H861 0.950 . S
C885 C884 1.524 . S
C885 C886 1.415 . S
C886 H862 0.950 . S
C886 C881 1.363 . S
C886 C885 1.415 . S
C887 H863 0.951 . S
C887 C888 1.366 . S
C887 C889 1.388 . S
C888 C887 1.366 . S
C888 C892 1.385 . S
C889 H864 0.951 . S
C889 C887 1.388 . S
C889 C890 1.366 . S
C890 C889 1.366 . S
C890 C891 1.414 . S
C890 C893 1.499 . S
C891 H865 0.950 . S
C891 C890 1.414 . S
C891 C892 1.374 . S
C892 H866 0.950 . S
C892 C888 1.385 . S
C892 C891 1.374 . S
C893 C890 1.499 . S
C893 C894 1.373 . S
C893 C895 1.389 . S
C894 H867 0.950 . S
C894 C880 1.377 . S
C894 C893 1.373 . S
C895 C879 1.377 . S
C895 C893 1.389 . S
C895 C896 1.524 . S
C896 C895 1.524 . S
C896 C897 1.397 . S
C896 C901 1.363 . S
C897 H868 0.950 . S
C897 C896 1.397 . S
C897 C898 1.334 . S
C898 H869 0.950 . S
C898 C897 1.334 . S
C898 C899 1.287 . S
C899 C898 1.287 . S
C899 C900 1.524 . S
C899 H902 0.999 . S
C900 H870 0.950 . S
C900 C899 1.524 . S
C900 C901 1.415 . S
C901 H871 0.950 . S
C901 C896 1.363 . S
C901 C900 1.415 . S
H902 C899 0.999 . S
H903 C884 0.913 . S
C123 C5 0.636 . S
C138 C29 0.636 . S
C173 C16 0.636 . S
C188 C42 0.636 . S
C223 C55 0.636 . S
C238 C81 0.636 . S
C273 C68 0.636 . S
C288 C94 0.636 . S
C323 C10 1.436 . S
C338 C69 1.436 . S
C373 C17 1.436 . S
C388 C82 1.436 . S
C423 C95 1.436 . S
C438 C30 1.436 . S
C473 C43 1.436 . S
C488 C56 1.436 . S
C523 C57 1.703 . S
C538 C4 1.729 . S
C573 C23 1.730 . S
C588 C70 1.703 . S
C623 C36 1.730 . S
C638 C83 1.703 . S
C673 C49 1.729 . S
C688 C96 1.703 . S
C723 C3 1.702 . S
C738 C62 1.729 . S
C773 C75 1.729 . S
C788 C18 1.703 . S
C823 C88 1.730 . S
C838 C31 1.703 . S
C873 C44 1.703 . S
C888 C101 1.729 . S
