# Generated by pormake.
# Topology bcu, (8)-cn, num edge types: 1
# Building blocks:
#     Node 0, Type 0, BuildingBlock: VETTIZ_charged_sbu_0, # of connection points: 8
#     Node 1, Type 0, BuildingBlock: VETTIZ_charged_sbu_0, # of connection points: 8
#     Edge 2, Type (0, 0), BuildingBlock: ZUJKAS_clean_linker_0, # of connection points: 2
#     Edge 3, Type (0, 0), BuildingBlock: ZUJKAS_clean_linker_0, # of connection points: 2
#     Edge 4, Type (0, 0), BuildingBlock: ZUJKAS_clean_linker_0, # of connection points: 2
#     Edge 5, Type (0, 0), BuildingBlock: ZUJKAS_clean_linker_0, # of connection points: 2
#     Edge 6, Type (0, 0), BuildingBlock: ZUJKAS_clean_linker_0, # of connection points: 2
#     Edge 7, Type (0, 0), BuildingBlock: ZUJKAS_clean_linker_0, # of connection points: 2
#     Edge 8, Type (0, 0), BuildingBlock: ZUJKAS_clean_linker_0, # of connection points: 2
#     Edge 9, Type (0, 0), BuildingBlock: ZUJKAS_clean_linker_0, # of connection points: 2
# Relax obj value: 0.000
# Max RMSD: 0.009
# Mean RMSD: 0.009
data_MOF--net-bcu--node1-VETTIZ_charged_sbu_0--edge1-ZUJKAS_clean_linker_0
_symmetry_space_group_name_H-M    P1
_symmetry_Int_Tables_number       1
_symmetry_cell_setting            triclinic
loop_
_symmetry_equiv_pos_as_xyz
'x, y, z'
_cell_length_a     25.214649
_cell_length_b     23.351837
_cell_length_c     25.410167
_cell_angle_alpha  88.400616
_cell_angle_beta   88.998751
_cell_angle_gamma 91.466311
loop_
_atom_site_label
_atom_site_type_symbol
_atom_site_fract_x
_atom_site_fract_y
_atom_site_fract_z
_atom_type_partial_charge
Fe0 Fe 0.04076 0.92075 0.00131 0.0
O1 O 0.03681 1.00459 -0.00183 0.0
Fe2 Fe 0.99264 1.04201 0.93705 0.0
Fe3 Fe 0.01019 0.04994 0.05819 0.0
O4 O 0.03517 1.00375 0.99294 0.0
O5 O 0.96566 0.08744 -0.0029 0.0
O6 O 0.96739 0.08833 0.00252 0.0
Fe7 Fe 0.96366 0.17181 0.99457 0.0
C8 C 0.95201 0.93901 0.08339 0.0
O9 O 0.10009 0.93955 0.05286 0.0
O10 O 0.06046 1.00301 0.10842 0.0
O11 O 0.01401 0.1822 0.92956 0.0
O12 O 0.0548 0.09925 0.92307 0.0
O13 O 0.02864 0.98897 0.8817 0.0
O14 O 0.08359 0.93217 0.9317 0.0
O15 O 0.07243 0.10801 0.04751 0.0
O16 O 0.02697 0.18828 0.04221 0.0
C17 C 0.06756 0.95354 0.88706 0.0
O18 O 0.90492 0.15483 0.94202 0.0
O19 O 0.94322 0.09016 0.88659 0.0
O20 O 0.99089 0.91013 0.06685 0.0
O21 O 0.94853 0.99232 0.0729 0.0
C22 C 0.0975 0.96723 0.09637 0.0
C23 C 0.06902 0.16177 0.05287 0.0
C24 C 0.93602 0.13916 0.10838 0.0
O25 O 0.9747 0.10338 0.11368 0.0
O26 O 0.92024 0.16076 0.06375 0.0
C27 C 0.05236 0.15269 0.91298 0.0
O28 O 0.93054 0.9828 0.94661 0.0
O29 O 0.97745 0.90344 0.95437 0.0
C30 C 0.90851 0.129 0.89757 0.0
C31 C 0.93511 0.92882 0.94232 0.0
Fe32 Fe 0.50265 0.66921 0.54224 0.0
O33 O 0.49565 0.58657 0.53334 0.0
Fe34 Fe 0.56181 0.54191 0.50719 0.0
Fe35 Fe 0.44039 0.55023 0.48884 0.0
O36 O 0.50071 0.58545 0.53523 0.0
O37 O 0.50671 0.50618 0.46194 0.0
O38 O 0.50147 0.50714 0.46023 0.0
Fe39 Fe 0.49896 0.42346 0.45291 0.0
C40 C 0.38791 0.63352 0.56669 0.0
O41 O 0.45542 0.68936 0.47978 0.0
O42 O 0.45016 0.61252 0.43 0.0
O43 O 0.56967 0.4375 0.41171 0.0
O44 O 0.61849 0.49122 0.46986 0.0
O45 O 0.57666 0.60297 0.4489 0.0
O46 O 0.56891 0.68323 0.49344 0.0
O47 O 0.39037 0.50525 0.43738 0.0
O48 O 0.44711 0.44518 0.3944 0.0
C49 C 0.58621 0.65619 0.45401 0.0
O50 O 0.54586 0.40267 0.51554 0.0
O51 O 0.55092 0.47933 0.56562 0.0
O52 O 0.43229 0.65486 0.58393 0.0
O53 O 0.38357 0.6003 0.52645 0.0
C54 C 0.44462 0.66596 0.43652 0.0
C55 C 0.4027 0.47162 0.39909 0.0
C56 C 0.41639 0.4363 0.54179 0.0
O57 O 0.42682 0.48926 0.5474 0.0
O58 O 0.43252 0.40972 0.5016 0.0
C59 C 0.61416 0.45808 0.42949 0.0
O60 O 0.61135 0.58641 0.5599 0.0
O61 O 0.55443 0.64808 0.60059 0.0
C62 C 0.55643 0.4259 0.55894 0.0
C63 C 0.59857 0.6209 0.59751 0.0
H64 H 0.13558 0.12151 0.12849 0.0
H65 H 0.19149 0.17924 0.1858 0.0
H66 H 0.15341 0.33181 0.09603 0.0
H67 H 0.09602 0.27472 0.04005 0.0
H68 H 0.27612 0.24784 0.17386 0.0
H69 H 0.1079 0.37672 0.24066 0.0
H70 H 0.09883 0.31387 0.20184 0.0
H71 H 0.11756 0.38177 0.1706 0.0
C72 C 0.13994 0.16722 0.12046 0.0
C73 C 0.11114 0.19377 0.08015 0.0
C74 C 0.17159 0.20024 0.15343 0.0
C75 C 0.17524 0.26016 0.14631 0.0
C76 C 0.14964 0.286 0.10355 0.0
H77 H 0.41634 0.46965 0.29335 0.0
H78 H 0.35783 0.42302 0.23083 0.0
C79 C 0.11739 0.25324 0.07119 0.0
C80 C 0.20505 0.29573 0.184 0.0
H81 H 0.19426 0.41027 0.26413 0.0
C82 C 0.25815 0.28322 0.19371 0.0
C83 C 0.18123 0.34109 0.211 0.0
C84 C 0.1231 0.35379 0.20599 0.0
C85 C 0.28843 0.31546 0.22866 0.0
C86 C 0.26558 0.36299 0.25319 0.0
C87 C 0.21209 0.37467 0.2445 0.0
C88 C 0.29645 0.40007 0.28883 0.0
C89 C 0.34423 0.29719 0.23984 0.0
C90 C 0.27935 0.40713 0.34118 0.0
C91 C 0.31208 0.43556 0.37662 0.0
C92 C 0.36243 0.45676 0.36014 0.0
C93 C 0.3777 0.45339 0.30694 0.0
C94 C 0.34464 0.4261 0.27142 0.0
H95 H 0.3496 0.25126 0.23133 0.0
H96 H 0.37259 0.32275 0.21424 0.0
H97 H 0.35449 0.30404 0.28155 0.0
H98 H 0.24203 0.38795 0.35536 0.0
H99 H 0.29976 0.43713 0.41761 0.0
H100 H 0.83649 0.17947 0.11796 0.0
H101 H 0.80074 0.23514 0.18952 0.0
H102 H 0.94291 0.20919 0.27788 0.0
H103 H 0.9795 0.15292 0.20583 0.0
H104 H 0.82036 0.20032 0.33045 0.0
H105 H 0.88828 0.39873 0.22057 0.0
H106 H 0.86023 0.34245 0.18189 0.0
H107 H 0.92156 0.33141 0.21506 0.0
C108 C 0.85989 0.18459 0.15297 0.0
C109 C 0.911 0.16223 0.15609 0.0
C110 C 0.83937 0.2164 0.19377 0.0
C111 C 0.86952 0.22666 0.23845 0.0
C112 C 0.91923 0.20162 0.24348 0.0
H113 H 0.7101 0.43887 0.47512 0.0
H114 H 0.78486 0.38776 0.43657 0.0
C115 C 0.93986 0.16933 0.2025 0.0
C116 C 0.84966 0.26735 0.27712 0.0
H117 H 0.8192 0.40839 0.28491 0.0
C118 C 0.82141 0.24606 0.32174 0.0
C119 C 0.85124 0.32685 0.26526 0.0
C120 C 0.88225 0.35157 0.21829 0.0
C121 C 0.79115 0.28257 0.35266 0.0
C122 C 0.78945 0.34148 0.3383 0.0
C123 C 0.82077 0.36323 0.29585 0.0
C124 C 0.74859 0.37852 0.36066 0.0
C125 C 0.75786 0.25742 0.39793 0.0
C126 C 0.70463 0.3918 0.33005 0.0
C127 C 0.66215 0.42057 0.3518 0.0
C128 C 0.66303 0.43717 0.40449 0.0
C129 C 0.70854 0.42693 0.43428 0.0
C130 C 0.75101 0.39742 0.41253 0.0
H131 H 0.76207 0.21032 0.40264 0.0
H132 H 0.76983 0.27765 0.43505 0.0
H133 H 0.71539 0.26662 0.39175 0.0
H134 H 0.70218 0.37766 0.28988 0.0
H135 H 0.62777 0.42814 0.32782 0.0
H136 H 0.87585 0.98909 0.14377 0.0
H137 H 0.81221 0.94186 0.20553 0.0
H138 H 0.87086 0.77705 0.16364 0.0
H139 H 0.93551 0.82389 0.10278 0.0
H140 H 0.73175 0.86437 0.19247 0.0
H141 H 0.883 0.76924 0.32171 0.0
H142 H 0.89965 0.82292 0.27129 0.0
H143 H 0.89006 0.74907 0.25441 0.0
C144 C 0.87523 0.94276 0.14758 0.0
C145 C 0.91126 0.91032 0.11864 0.0
C146 C 0.83877 0.91583 0.18297 0.0
C147 C 0.83747 0.85597 0.19013 0.0
C148 C 0.8721 0.82338 0.15995 0.0
H149 H 0.64542 0.60977 0.37538 0.0
H150 H 0.70423 0.65984 0.31087 0.0
C151 C 0.90887 0.85025 0.12489 0.0
C152 C 0.7999 0.82768 0.22911 0.0
H153 H 0.79359 0.73736 0.33739 0.0
C154 C 0.74531 0.83689 0.22434 0.0
C155 C 0.8176 0.79202 0.27093 0.0
C156 C 0.87579 0.78312 0.28033 0.0
C157 C 0.70795 0.8104 0.25949 0.0
C158 C 0.72569 0.77404 0.30058 0.0
C159 C 0.78017 0.76506 0.3056 0.0
C160 C 0.68835 0.74446 0.3387 0.0
C161 C 0.6497 0.82046 0.25192 0.0
C162 C 0.66006 0.77552 0.37589 0.0
C163 C 0.62655 0.74704 0.41317 0.0
C164 C 0.62061 0.68691 0.41379 0.0
C165 C 0.64878 0.65608 0.37603 0.0
C166 C 0.68253 0.68458 0.33912 0.0
H167 H 0.6419 0.84129 0.21307 0.0
H168 H 0.62658 0.77936 0.25537 0.0
H169 H 0.63512 0.84869 0.28317 0.0
H170 H 0.66452 0.82176 0.37658 0.0
H171 H 0.60547 0.77213 0.44158 0.0
H172 H 0.09133 0.96977 0.20471 0.0
H173 H 0.15555 0.92989 0.26676 0.0
H174 H 0.25916 0.89053 0.13656 0.0
H175 H 0.19656 0.93093 0.0752 0.0
H176 H 0.18563 0.81796 0.26949 0.0
H177 H 0.36335 0.95854 0.23711 0.0
H178 H 0.29846 0.97864 0.21536 0.0
H179 H 0.3387 0.93287 0.17613 0.0
C180 C 0.12852 0.95411 0.18962 0.0
C181 C 0.13875 0.95324 0.1351 0.0
C182 C 0.16499 0.93102 0.22499 0.0
C183 C 0.21241 0.90766 0.2063 0.0
C184 C 0.22348 0.90927 0.15207 0.0
H185 H 0.39007 0.63093 0.34942 0.0
H186 H 0.33509 0.69034 0.29212 0.0
C187 C 0.18729 0.93201 0.11696 0.0
C188 C 0.24824 0.87644 0.24217 0.0
H189 H 0.37856 0.8643 0.27396 0.0
C190 C 0.22771 0.82852 0.27108 0.0
C191 C 0.30308 0.89038 0.24444 0.0
C192 C 0.32707 0.94329 0.217 0.0
C193 C 0.26078 0.79316 0.30089 0.0
C194 C 0.31611 0.80524 0.30069 0.0
C195 C 0.33635 0.85426 0.27316 0.0
C196 C 0.35326 0.76951 0.33127 0.0
C197 C 0.23597 0.74367 0.33282 0.0
C198 C 0.38408 0.79477 0.37013 0.0
C199 C 0.41608 0.76128 0.40213 0.0
C200 C 0.41797 0.70158 0.39616 0.0
C201 C 0.38941 0.67669 0.3552 0.0
C202 C 0.35744 0.71049 0.32289 0.0
H203 H 0.19284 0.74942 0.33984 0.0
H204 H 0.24074 0.70355 0.31102 0.0
H205 H 0.25543 0.73851 0.37147 0.0
H206 H 0.38198 0.84025 0.37699 0.0
H207 H 0.43792 0.78212 0.43288 0.0
H208 H 0.16782 0.9155 0.87687 0.0
H209 H 0.2037 0.85932 0.8057 0.0
H210 H 0.05982 0.88055 0.71893 0.0
H211 H 0.0232 0.9374 0.7905 0.0
H212 H 0.13308 0.75255 0.77152 0.0
H213 H 0.20137 0.91105 0.61501 0.0
H214 H 0.20247 0.9305 0.6833 0.0
H215 H 0.1402 0.91994 0.65166 0.0
C216 C 0.14413 0.90931 0.84221 0.0
C217 C 0.09257 0.93051 0.83939 0.0
C218 C 0.16469 0.8772 0.80165 0.0
C219 C 0.1342 0.86564 0.75747 0.0
C220 C 0.08388 0.88935 0.75282 0.0
H221 H 0.29243 0.65486 0.52142 0.0
H222 H 0.21737 0.704 0.56164 0.0
C223 C 0.06322 0.92198 0.79351 0.0
C224 C 0.15406 0.82423 0.71948 0.0
H225 H 0.2318 0.8165 0.60894 0.0
C226 C 0.15352 0.76616 0.73519 0.0
C227 C 0.18021 0.84226 0.67214 0.0
C228 C 0.18132 0.9043 0.65406 0.0
C229 C 0.18175 0.72615 0.70655 0.0
C230 C 0.21169 0.74501 0.66158 0.0
C231 C 0.20876 0.80223 0.64352 0.0
C232 C 0.25279 0.70887 0.63836 0.0
C233 C 0.18159 0.66457 0.7261 0.0
C234 C 0.29695 0.69488 0.66845 0.0
C235 C 0.33972 0.66752 0.64566 0.0
C236 C 0.33902 0.65327 0.59236 0.0
C237 C 0.29367 0.66477 0.56278 0.0
C238 C 0.25101 0.69306 0.58553 0.0
H239 H 0.14522 0.6534 0.74992 0.0
H240 H 0.18431 0.63489 0.69281 0.0
H241 H 0.21637 0.65801 0.75154 0.0
H242 H 0.29938 0.70747 0.70908 0.0
H243 H 0.37415 0.65919 0.66934 0.0
H244 H 0.39398 0.32074 0.55191 0.0
H245 H 0.33489 0.27132 0.61709 0.0
H246 H 0.30216 0.43255 0.68783 0.0
H247 H 0.36096 0.48238 0.62323 0.0
H248 H 0.33949 0.27625 0.73531 0.0
H249 H 0.15379 0.3583 0.6494 0.0
H250 H 0.21549 0.35686 0.61227 0.0
H251 H 0.20572 0.41067 0.66032 0.0
C252 C 0.37428 0.34573 0.58135 0.0
C253 C 0.38207 0.40561 0.58208 0.0
C254 C 0.34066 0.31737 0.61861 0.0
C255 C 0.31384 0.34841 0.65685 0.0
C256 C 0.32211 0.40794 0.65826 0.0
H257 H 0.07089 0.26767 0.89485 0.0
H258 H 0.13687 0.31396 0.83503 0.0
C259 C 0.35593 0.43628 0.62134 0.0
C260 C 0.27665 0.31883 0.69505 0.0
H261 H 0.14549 0.30586 0.72999 0.0
C262 C 0.29703 0.28241 0.73416 0.0
C263 C 0.22141 0.32734 0.69347 0.0
C264 C 0.19747 0.36507 0.65145 0.0
C265 C 0.26359 0.25507 0.77253 0.0
C266 C 0.20816 0.2633 0.77081 0.0
C267 C 0.18792 0.29961 0.73142 0.0
C268 C 0.17022 0.23476 0.80927 0.0
C269 C 0.28818 0.21901 0.81536 0.0
C270 C 0.1669 0.17476 0.81478 0.0
C271 C 0.12947 0.14813 0.84932 0.0
C272 C 0.09396 0.18095 0.87848 0.0
C273 C 0.09748 0.24105 0.87295 0.0
C274 C 0.1352 0.26762 0.83873 0.0
H275 H 0.33075 0.23075 0.8203 0.0
H276 H 0.26707 0.22359 0.85366 0.0
H277 H 0.28567 0.17328 0.80468 0.0
H278 H 0.19249 0.14838 0.79153 0.0
H279 H 0.12758 0.10174 0.85218 0.0
H280 H 0.87143 0.236 0.88813 0.0
H281 H 0.80985 0.27394 0.82465 0.0
H282 H 0.8027 0.11123 0.74866 0.0
H283 H 0.86558 0.07201 0.81318 0.0
H284 H 0.82327 0.2729 0.70577 0.0
H285 H 0.64269 0.16019 0.79133 0.0
H286 H 0.70085 0.17233 0.83042 0.0
H287 H 0.70221 0.12084 0.7795 0.0
C288 C 0.85685 0.20783 0.85814 0.0
C289 C 0.87295 0.15062 0.85612 0.0
C290 C 0.82178 0.22986 0.8217 0.0
C291 C 0.80147 0.19535 0.78237 0.0
C292 C 0.81786 0.13837 0.77915 0.0
H293 H 0.55743 0.30938 0.56677 0.0
H294 H 0.61551 0.25063 0.62039 0.0
C295 C 0.85381 0.11615 0.81571 0.0
C296 C 0.76287 0.22053 0.74575 0.0
H297 H 0.62974 0.23372 0.72802 0.0
C298 C 0.78098 0.26375 0.70992 0.0
C299 C 0.70783 0.20866 0.75164 0.0
C300 C 0.68675 0.1631 0.79029 0.0
C301 C 0.74538 0.29645 0.68063 0.0
C302 C 0.69014 0.28661 0.68847 0.0
C303 C 0.67207 0.24175 0.72272 0.0
C304 C 0.65075 0.32206 0.66072 0.0
C305 C 0.76727 0.34132 0.64162 0.0
C306 C 0.64949 0.3816 0.66736 0.0
C307 C 0.61617 0.41555 0.63672 0.0
C308 C 0.58355 0.39036 0.59898 0.0
C309 C 0.58246 0.33027 0.5951 0.0
C310 C 0.61563 0.29651 0.62572 0.0
H311 H 0.8091 0.33317 0.63025 0.0
H312 H 0.74318 0.34285 0.60545 0.0
H313 H 0.76623 0.38399 0.65971 0.0
H314 H 0.6755 0.40202 0.6951 0.0
H315 H 0.618 0.46162 0.64072 0.0
H316 H 0.70796 0.62241 0.59121 0.0
H317 H 0.76896 0.66449 0.65505 0.0
H318 H 0.63617 0.69651 0.75851 0.0
H319 H 0.57611 0.6533 0.69665 0.0
H320 H 0.76948 0.77407 0.68471 0.0
H321 H 0.73833 0.63571 0.86253 0.0
H322 H 0.71613 0.61451 0.79865 0.0
H323 H 0.67607 0.6598 0.83868 0.0
C324 C 0.6922 0.63667 0.6284 0.0
C325 C 0.63725 0.63471 0.63878 0.0
C326 C 0.72694 0.66116 0.66462 0.0
C327 C 0.70722 0.68329 0.71188 0.0
C328 C 0.65265 0.67871 0.72308 0.0
H329 H 0.85028 0.96575 0.88402 0.0
H330 H 0.79253 0.90653 0.8294 0.0
C331 C 0.61822 0.65432 0.68728 0.0
C332 C 0.74203 0.71621 0.74744 0.0
H333 H 0.77125 0.73184 0.877 0.0
C334 C 0.77053 0.76439 0.72667 0.0
C335 C 0.74369 0.70349 0.80216 0.0
C336 C 0.71734 0.65018 0.82664 0.0
C337 C 0.79948 0.80095 0.75925 0.0
C338 C 0.7985 0.7901 0.81441 0.0
C339 C 0.77108 0.74106 0.83492 0.0
C340 C 0.82891 0.82638 0.85118 0.0
C341 C 0.8316 0.85012 0.73402 0.0
C342 C 0.86602 0.80078 0.88414 0.0
C343 C 0.89786 0.83411 0.91617 0.0
C344 C 0.89383 0.89417 0.91585 0.0
C345 C 0.85454 0.91969 0.88511 0.0
C346 C 0.82209 0.88595 0.85325 0.0
H347 H 0.83976 0.84315 0.6916 0.0
H348 H 0.809 0.89008 0.73703 0.0
H349 H 0.87004 0.85637 0.75401 0.0
H350 H 0.87176 0.75496 0.88378 0.0
H351 H 0.92723 0.81273 0.93973 0.0
loop_
_geom_bond_atom_site_label_1
_geom_bond_atom_site_label_2
_geom_bond_distance
_geom_bond_site_symmetry_2
_ccdc_geom_bond_type
Fe0 O1 1.886 . S
Fe0 O4 1.715 1_554 S
Fe0 O9 2.077 . S
Fe0 O14 1.935 1_554 S
Fe0 O20 2.077 1_455 S
Fe0 O29 1.935 1_454 S
O1 Fe0 1.886 . S
O1 Fe3 1.715 1_565 S
Fe2 O4 1.886 . S
Fe2 O5 1.715 1_565 S
Fe2 O12 1.935 1_565 S
Fe2 O13 2.077 . S
Fe2 O19 1.935 1_465 S
Fe2 O28 2.077 1_455 S
Fe3 O1 1.715 1_545 S
Fe3 O6 1.886 . S
Fe3 O10 1.935 1_545 S
Fe3 O15 2.077 . S
Fe3 O21 1.935 1_445 S
Fe3 O25 2.077 1_455 S
O4 Fe0 1.715 1_556 S
O4 Fe2 1.886 . S
O5 Fe2 1.715 1_545 S
O5 Fe7 1.886 . S
O6 Fe3 1.886 . S
O6 Fe7 1.715 1_554 S
Fe7 O5 1.886 . S
Fe7 O6 1.715 1_556 S
Fe7 O11 2.077 . S
Fe7 O16 1.935 1_556 S
Fe7 O18 2.077 1_455 S
Fe7 O26 1.935 1_456 S
C8 O20 1.381 . S
C8 O21 1.421 . S
O9 Fe0 2.077 . S
O9 C22 1.381 . S
O10 Fe3 1.935 1_565 S
O10 C22 1.421 . S
O11 Fe7 2.077 . S
O11 C27 1.381 . S
O12 Fe2 1.935 1_545 S
O12 C27 1.421 . S
O13 Fe2 2.077 . S
O13 C17 1.381 . S
O14 Fe0 1.935 1_556 S
O14 C17 1.421 . S
O15 Fe3 2.077 . S
O15 C23 1.381 . S
O16 Fe7 1.935 1_554 S
O16 C23 1.421 . S
C17 O13 1.381 . S
C17 O14 1.421 . S
O18 Fe7 2.077 1_655 S
O18 C30 1.381 . S
O19 Fe2 1.935 1_645 S
O19 C30 1.421 . S
O20 Fe0 2.077 1_655 S
O20 C8 1.381 . S
O21 Fe3 1.935 1_665 S
O21 C8 1.421 . S
C22 O9 1.381 . S
C22 O10 1.421 . S
C23 O15 1.381 . S
C23 O16 1.421 . S
C24 O25 1.381 . S
C24 O26 1.421 . S
O25 Fe3 2.077 1_655 S
O25 C24 1.381 . S
O26 Fe7 1.935 1_654 S
O26 C24 1.421 . S
C27 O11 1.381 . S
C27 O12 1.421 . S
O28 Fe2 2.077 1_655 S
O28 C31 1.381 . S
O29 Fe0 1.935 1_656 S
O29 C31 1.421 . S
C30 O18 1.381 . S
C30 O19 1.421 . S
C31 O28 1.381 . S
C31 O29 1.421 . S
Fe32 O33 1.886 . S
Fe32 O36 1.715 . S
Fe32 O41 2.077 . S
Fe32 O46 1.935 . S
Fe32 O52 2.077 . S
Fe32 O61 1.935 . S
O33 Fe32 1.886 . S
O33 Fe35 1.715 . S
Fe34 O36 1.886 . S
Fe34 O37 1.715 . S
Fe34 O44 1.935 . S
Fe34 O45 2.077 . S
Fe34 O51 1.935 . S
Fe34 O60 2.077 . S
Fe35 O33 1.715 . S
Fe35 O38 1.886 . S
Fe35 O42 1.935 . S
Fe35 O47 2.077 . S
Fe35 O53 1.935 . S
Fe35 O57 2.077 . S
O36 Fe32 1.715 . S
O36 Fe34 1.886 . S
O37 Fe34 1.715 . S
O37 Fe39 1.886 . S
O38 Fe35 1.886 . S
O38 Fe39 1.715 . S
Fe39 O37 1.886 . S
Fe39 O38 1.715 . S
Fe39 O43 2.077 . S
Fe39 O48 1.935 . S
Fe39 O50 2.077 . S
Fe39 O58 1.935 . S
C40 O52 1.381 . S
C40 O53 1.421 . S
O41 Fe32 2.077 . S
O41 C54 1.381 . S
O42 Fe35 1.935 . S
O42 C54 1.421 . S
O43 Fe39 2.077 . S
O43 C59 1.381 . S
O44 Fe34 1.935 . S
O44 C59 1.421 . S
O45 Fe34 2.077 . S
O45 C49 1.381 . S
O46 Fe32 1.935 . S
O46 C49 1.421 . S
O47 Fe35 2.077 . S
O47 C55 1.381 . S
O48 Fe39 1.935 . S
O48 C55 1.421 . S
C49 O45 1.381 . S
C49 O46 1.421 . S
O50 Fe39 2.077 . S
O50 C62 1.381 . S
O51 Fe34 1.935 . S
O51 C62 1.421 . S
O52 Fe32 2.077 . S
O52 C40 1.381 . S
O53 Fe35 1.935 . S
O53 C40 1.421 . S
C54 O41 1.381 . S
C54 O42 1.421 . S
C55 O47 1.381 . S
C55 O48 1.421 . S
C56 O57 1.381 . S
C56 O58 1.421 . S
O57 Fe35 2.077 . S
O57 C56 1.381 . S
O58 Fe39 1.935 . S
O58 C56 1.421 . S
C59 O43 1.381 . S
C59 O44 1.421 . S
O60 Fe34 2.077 . S
O60 C63 1.381 . S
O61 Fe32 1.935 . S
O61 C63 1.421 . S
C62 O50 1.381 . S
C62 O51 1.421 . S
C63 O60 1.381 . S
C63 O61 1.421 . S
H64 C72 0.929 . S
H65 C74 0.930 . S
H66 C76 0.930 . S
H67 C79 0.929 . S
H68 C82 0.930 . S
H69 C84 0.960 . S
H70 C84 0.960 . S
H71 C84 0.960 . S
C72 H64 0.929 . S
C72 C73 1.377 . S
C72 C74 1.384 . S
C73 C72 1.377 . S
C73 C79 1.390 . S
C74 H65 0.930 . S
C74 C72 1.384 . S
C74 C75 1.372 . S
C75 C74 1.372 . S
C75 C76 1.400 . S
C75 C80 1.490 . S
C76 H66 0.930 . S
C76 C75 1.400 . S
C76 C79 1.386 . S
H77 C93 0.930 . S
H78 C94 0.931 . S
C79 H67 0.929 . S
C79 C73 1.390 . S
C79 C76 1.386 . S
C80 C75 1.490 . S
C80 C82 1.395 . S
C80 C83 1.403 . S
H81 C87 0.930 . S
C82 H68 0.930 . S
C82 C80 1.395 . S
C82 C85 1.403 . S
C83 C80 1.403 . S
C83 C84 1.524 . S
C83 C87 1.400 . S
C84 H69 0.960 . S
C84 H70 0.960 . S
C84 H71 0.960 . S
C84 C83 1.524 . S
C85 C82 1.403 . S
C85 C86 1.392 . S
C85 C89 1.495 . S
C86 C85 1.392 . S
C86 C87 1.385 . S
C86 C88 1.478 . S
C87 H81 0.930 . S
C87 C83 1.400 . S
C87 C86 1.385 . S
C88 C86 1.478 . S
C88 C90 1.381 . S
C88 C94 1.383 . S
C89 C85 1.495 . S
C89 H95 0.959 . S
C89 H96 0.961 . S
C89 H97 0.960 . S
C90 C88 1.381 . S
C90 C91 1.394 . S
C90 H98 0.930 . S
C91 C90 1.394 . S
C91 C92 1.383 . S
C91 H99 0.929 . S
C92 C91 1.383 . S
C92 C93 1.377 . S
C93 H77 0.930 . S
C93 C92 1.377 . S
C93 C94 1.379 . S
C94 H78 0.931 . S
C94 C88 1.383 . S
C94 C93 1.379 . S
H95 C89 0.959 . S
H96 C89 0.961 . S
H97 C89 0.960 . S
H98 C90 0.930 . S
H99 C91 0.929 . S
H100 C108 0.929 . S
H101 C110 0.930 . S
H102 C112 0.930 . S
H103 C115 0.929 . S
H104 C118 0.930 . S
H105 C120 0.960 . S
H106 C120 0.960 . S
H107 C120 0.960 . S
C108 H100 0.929 . S
C108 C109 1.377 . S
C108 C110 1.384 . S
C109 C108 1.377 . S
C109 C115 1.390 . S
C110 H101 0.930 . S
C110 C108 1.384 . S
C110 C111 1.372 . S
C111 C110 1.372 . S
C111 C112 1.400 . S
C111 C116 1.490 . S
C112 H102 0.930 . S
C112 C111 1.400 . S
C112 C115 1.386 . S
H113 C129 0.930 . S
H114 C130 0.931 . S
C115 H103 0.929 . S
C115 C109 1.390 . S
C115 C112 1.386 . S
C116 C111 1.490 . S
C116 C118 1.395 . S
C116 C119 1.403 . S
H117 C123 0.930 . S
C118 H104 0.930 . S
C118 C116 1.395 . S
C118 C121 1.403 . S
C119 C116 1.403 . S
C119 C120 1.524 . S
C119 C123 1.400 . S
C120 H105 0.960 . S
C120 H106 0.960 . S
C120 H107 0.960 . S
C120 C119 1.524 . S
C121 C118 1.403 . S
C121 C122 1.392 . S
C121 C125 1.495 . S
C122 C121 1.392 . S
C122 C123 1.385 . S
C122 C124 1.478 . S
C123 H117 0.930 . S
C123 C119 1.400 . S
C123 C122 1.385 . S
C124 C122 1.478 . S
C124 C126 1.381 . S
C124 C130 1.383 . S
C125 C121 1.495 . S
C125 H131 0.959 . S
C125 H132 0.961 . S
C125 H133 0.960 . S
C126 C124 1.381 . S
C126 C127 1.394 . S
C126 H134 0.930 . S
C127 C126 1.394 . S
C127 C128 1.383 . S
C127 H135 0.929 . S
C128 C127 1.383 . S
C128 C129 1.377 . S
C129 H113 0.930 . S
C129 C128 1.377 . S
C129 C130 1.379 . S
C130 H114 0.931 . S
C130 C124 1.383 . S
C130 C129 1.379 . S
H131 C125 0.959 . S
H132 C125 0.961 . S
H133 C125 0.960 . S
H134 C126 0.930 . S
H135 C127 0.929 . S
H136 C144 0.929 . S
H137 C146 0.930 . S
H138 C148 0.930 . S
H139 C151 0.929 . S
H140 C154 0.930 . S
H141 C156 0.960 . S
H142 C156 0.960 . S
H143 C156 0.960 . S
C144 H136 0.929 . S
C144 C145 1.377 . S
C144 C146 1.384 . S
C145 C144 1.377 . S
C145 C151 1.390 . S
C146 H137 0.930 . S
C146 C144 1.384 . S
C146 C147 1.372 . S
C147 C146 1.372 . S
C147 C148 1.400 . S
C147 C152 1.490 . S
C148 H138 0.930 . S
C148 C147 1.400 . S
C148 C151 1.386 . S
H149 C165 0.930 . S
H150 C166 0.931 . S
C151 H139 0.929 . S
C151 C145 1.390 . S
C151 C148 1.386 . S
C152 C147 1.490 . S
C152 C154 1.395 . S
C152 C155 1.403 . S
H153 C159 0.930 . S
C154 H140 0.930 . S
C154 C152 1.395 . S
C154 C157 1.403 . S
C155 C152 1.403 . S
C155 C156 1.524 . S
C155 C159 1.400 . S
C156 H141 0.960 . S
C156 H142 0.960 . S
C156 H143 0.960 . S
C156 C155 1.524 . S
C157 C154 1.403 . S
C157 C158 1.392 . S
C157 C161 1.495 . S
C158 C157 1.392 . S
C158 C159 1.385 . S
C158 C160 1.478 . S
C159 H153 0.930 . S
C159 C155 1.400 . S
C159 C158 1.385 . S
C160 C158 1.478 . S
C160 C162 1.381 . S
C160 C166 1.383 . S
C161 C157 1.495 . S
C161 H167 0.959 . S
C161 H168 0.961 . S
C161 H169 0.960 . S
C162 C160 1.381 . S
C162 C163 1.394 . S
C162 H170 0.930 . S
C163 C162 1.394 . S
C163 C164 1.383 . S
C163 H171 0.929 . S
C164 C163 1.383 . S
C164 C165 1.377 . S
C165 H149 0.930 . S
C165 C164 1.377 . S
C165 C166 1.379 . S
C166 H150 0.931 . S
C166 C160 1.383 . S
C166 C165 1.379 . S
H167 C161 0.959 . S
H168 C161 0.961 . S
H169 C161 0.960 . S
H170 C162 0.930 . S
H171 C163 0.929 . S
H172 C180 0.929 . S
H173 C182 0.930 . S
H174 C184 0.930 . S
H175 C187 0.929 . S
H176 C190 0.930 . S
H177 C192 0.960 . S
H178 C192 0.960 . S
H179 C192 0.960 . S
C180 H172 0.929 . S
C180 C181 1.377 . S
C180 C182 1.384 . S
C181 C180 1.377 . S
C181 C187 1.390 . S
C182 H173 0.930 . S
C182 C180 1.384 . S
C182 C183 1.372 . S
C183 C182 1.372 . S
C183 C184 1.400 . S
C183 C188 1.490 . S
C184 H174 0.930 . S
C184 C183 1.400 . S
C184 C187 1.386 . S
H185 C201 0.930 . S
H186 C202 0.931 . S
C187 H175 0.929 . S
C187 C181 1.390 . S
C187 C184 1.386 . S
C188 C183 1.490 . S
C188 C190 1.395 . S
C188 C191 1.403 . S
H189 C195 0.930 . S
C190 H176 0.930 . S
C190 C188 1.395 . S
C190 C193 1.403 . S
C191 C188 1.403 . S
C191 C192 1.524 . S
C191 C195 1.400 . S
C192 H177 0.960 . S
C192 H178 0.960 . S
C192 H179 0.960 . S
C192 C191 1.524 . S
C193 C190 1.403 . S
C193 C194 1.392 . S
C193 C197 1.495 . S
C194 C193 1.392 . S
C194 C195 1.385 . S
C194 C196 1.478 . S
C195 H189 0.930 . S
C195 C191 1.400 . S
C195 C194 1.385 . S
C196 C194 1.478 . S
C196 C198 1.381 . S
C196 C202 1.383 . S
C197 C193 1.495 . S
C197 H203 0.959 . S
C197 H204 0.961 . S
C197 H205 0.960 . S
C198 C196 1.381 . S
C198 C199 1.394 . S
C198 H206 0.930 . S
C199 C198 1.394 . S
C199 C200 1.383 . S
C199 H207 0.929 . S
C200 C199 1.383 . S
C200 C201 1.377 . S
C201 H185 0.930 . S
C201 C200 1.377 . S
C201 C202 1.379 . S
C202 H186 0.931 . S
C202 C196 1.383 . S
C202 C201 1.379 . S
H203 C197 0.959 . S
H204 C197 0.961 . S
H205 C197 0.960 . S
H206 C198 0.930 . S
H207 C199 0.929 . S
H208 C216 0.929 . S
H209 C218 0.930 . S
H210 C220 0.930 . S
H211 C223 0.929 . S
H212 C226 0.930 . S
H213 C228 0.960 . S
H214 C228 0.960 . S
H215 C228 0.960 . S
C216 H208 0.929 . S
C216 C217 1.377 . S
C216 C218 1.384 . S
C217 C216 1.377 . S
C217 C223 1.390 . S
C218 H209 0.930 . S
C218 C216 1.384 . S
C218 C219 1.372 . S
C219 C218 1.372 . S
C219 C220 1.400 . S
C219 C224 1.490 . S
C220 H210 0.930 . S
C220 C219 1.400 . S
C220 C223 1.386 . S
H221 C237 0.930 . S
H222 C238 0.931 . S
C223 H211 0.929 . S
C223 C217 1.390 . S
C223 C220 1.386 . S
C224 C219 1.490 . S
C224 C226 1.395 . S
C224 C227 1.403 . S
H225 C231 0.930 . S
C226 H212 0.930 . S
C226 C224 1.395 . S
C226 C229 1.403 . S
C227 C224 1.403 . S
C227 C228 1.524 . S
C227 C231 1.400 . S
C228 H213 0.960 . S
C228 H214 0.960 . S
C228 H215 0.960 . S
C228 C227 1.524 . S
C229 C226 1.403 . S
C229 C230 1.392 . S
C229 C233 1.495 . S
C230 C229 1.392 . S
C230 C231 1.385 . S
C230 C232 1.478 . S
C231 H225 0.930 . S
C231 C227 1.400 . S
C231 C230 1.385 . S
C232 C230 1.478 . S
C232 C234 1.381 . S
C232 C238 1.383 . S
C233 C229 1.495 . S
C233 H239 0.959 . S
C233 H240 0.961 . S
C233 H241 0.960 . S
C234 C232 1.381 . S
C234 C235 1.394 . S
C234 H242 0.930 . S
C235 C234 1.394 . S
C235 C236 1.383 . S
C235 H243 0.929 . S
C236 C235 1.383 . S
C236 C237 1.377 . S
C237 H221 0.930 . S
C237 C236 1.377 . S
C237 C238 1.379 . S
C238 H222 0.931 . S
C238 C232 1.383 . S
C238 C237 1.379 . S
H239 C233 0.959 . S
H240 C233 0.961 . S
H241 C233 0.960 . S
H242 C234 0.930 . S
H243 C235 0.929 . S
H244 C252 0.929 . S
H245 C254 0.930 . S
H246 C256 0.930 . S
H247 C259 0.929 . S
H248 C262 0.930 . S
H249 C264 0.960 . S
H250 C264 0.960 . S
H251 C264 0.960 . S
C252 H244 0.929 . S
C252 C253 1.377 . S
C252 C254 1.384 . S
C253 C252 1.377 . S
C253 C259 1.390 . S
C254 H245 0.930 . S
C254 C252 1.384 . S
C254 C255 1.372 . S
C255 C254 1.372 . S
C255 C256 1.400 . S
C255 C260 1.490 . S
C256 H246 0.930 . S
C256 C255 1.400 . S
C256 C259 1.386 . S
H257 C273 0.930 . S
H258 C274 0.931 . S
C259 H247 0.929 . S
C259 C253 1.390 . S
C259 C256 1.386 . S
C260 C255 1.490 . S
C260 C262 1.395 . S
C260 C263 1.403 . S
H261 C267 0.930 . S
C262 H248 0.930 . S
C262 C260 1.395 . S
C262 C265 1.403 . S
C263 C260 1.403 . S
C263 C264 1.524 . S
C263 C267 1.400 . S
C264 H249 0.960 . S
C264 H250 0.960 . S
C264 H251 0.960 . S
C264 C263 1.524 . S
C265 C262 1.403 . S
C265 C266 1.392 . S
C265 C269 1.495 . S
C266 C265 1.392 . S
C266 C267 1.385 . S
C266 C268 1.478 . S
C267 H261 0.930 . S
C267 C263 1.400 . S
C267 C266 1.385 . S
C268 C266 1.478 . S
C268 C270 1.381 . S
C268 C274 1.383 . S
C269 C265 1.495 . S
C269 H275 0.959 . S
C269 H276 0.961 . S
C269 H277 0.960 . S
C270 C268 1.381 . S
C270 C271 1.394 . S
C270 H278 0.930 . S
C271 C270 1.394 . S
C271 C272 1.383 . S
C271 H279 0.929 . S
C272 C271 1.383 . S
C272 C273 1.377 . S
C273 H257 0.930 . S
C273 C272 1.377 . S
C273 C274 1.379 . S
C274 H258 0.931 . S
C274 C268 1.383 . S
C274 C273 1.379 . S
H275 C269 0.959 . S
H276 C269 0.961 . S
H277 C269 0.960 . S
H278 C270 0.930 . S
H279 C271 0.929 . S
H280 C288 0.929 . S
H281 C290 0.930 . S
H282 C292 0.930 . S
H283 C295 0.929 . S
H284 C298 0.930 . S
H285 C300 0.960 . S
H286 C300 0.960 . S
H287 C300 0.960 . S
C288 H280 0.929 . S
C288 C289 1.377 . S
C288 C290 1.384 . S
C289 C288 1.377 . S
C289 C295 1.390 . S
C290 H281 0.930 . S
C290 C288 1.384 . S
C290 C291 1.372 . S
C291 C290 1.372 . S
C291 C292 1.400 . S
C291 C296 1.490 . S
C292 H282 0.930 . S
C292 C291 1.400 . S
C292 C295 1.386 . S
H293 C309 0.930 . S
H294 C310 0.931 . S
C295 H283 0.929 . S
C295 C289 1.390 . S
C295 C292 1.386 . S
C296 C291 1.490 . S
C296 C298 1.395 . S
C296 C299 1.403 . S
H297 C303 0.930 . S
C298 H284 0.930 . S
C298 C296 1.395 . S
C298 C301 1.403 . S
C299 C296 1.403 . S
C299 C300 1.524 . S
C299 C303 1.400 . S
C300 H285 0.960 . S
C300 H286 0.960 . S
C300 H287 0.960 . S
C300 C299 1.524 . S
C301 C298 1.403 . S
C301 C302 1.392 . S
C301 C305 1.495 . S
C302 C301 1.392 . S
C302 C303 1.385 . S
C302 C304 1.478 . S
C303 H297 0.930 . S
C303 C299 1.400 . S
C303 C302 1.385 . S
C304 C302 1.478 . S
C304 C306 1.381 . S
C304 C310 1.383 . S
C305 C301 1.495 . S
C305 H311 0.959 . S
C305 H312 0.961 . S
C305 H313 0.960 . S
C306 C304 1.381 . S
C306 C307 1.394 . S
C306 H314 0.930 . S
C307 C306 1.394 . S
C307 C308 1.383 . S
C307 H315 0.929 . S
C308 C307 1.383 . S
C308 C309 1.377 . S
C309 H293 0.930 . S
C309 C308 1.377 . S
C309 C310 1.379 . S
C310 H294 0.931 . S
C310 C304 1.383 . S
C310 C309 1.379 . S
H311 C305 0.959 . S
H312 C305 0.961 . S
H313 C305 0.960 . S
H314 C306 0.930 . S
H315 C307 0.929 . S
H316 C324 0.929 . S
H317 C326 0.930 . S
H318 C328 0.930 . S
H319 C331 0.929 . S
H320 C334 0.930 . S
H321 C336 0.960 . S
H322 C336 0.960 . S
H323 C336 0.960 . S
C324 H316 0.929 . S
C324 C325 1.377 . S
C324 C326 1.384 . S
C325 C324 1.377 . S
C325 C331 1.390 . S
C326 H317 0.930 . S
C326 C324 1.384 . S
C326 C327 1.372 . S
C327 C326 1.372 . S
C327 C328 1.400 . S
C327 C332 1.490 . S
C328 H318 0.930 . S
C328 C327 1.400 . S
C328 C331 1.386 . S
H329 C345 0.930 . S
H330 C346 0.931 . S
C331 H319 0.929 . S
C331 C325 1.390 . S
C331 C328 1.386 . S
C332 C327 1.490 . S
C332 C334 1.395 . S
C332 C335 1.403 . S
H333 C339 0.930 . S
C334 H320 0.930 . S
C334 C332 1.395 . S
C334 C337 1.403 . S
C335 C332 1.403 . S
C335 C336 1.524 . S
C335 C339 1.400 . S
C336 H321 0.960 . S
C336 H322 0.960 . S
C336 H323 0.960 . S
C336 C335 1.524 . S
C337 C334 1.403 . S
C337 C338 1.392 . S
C337 C341 1.495 . S
C338 C337 1.392 . S
C338 C339 1.385 . S
C338 C340 1.478 . S
C339 H333 0.930 . S
C339 C335 1.400 . S
C339 C338 1.385 . S
C340 C338 1.478 . S
C340 C342 1.381 . S
C340 C346 1.383 . S
C341 C337 1.495 . S
C341 H347 0.959 . S
C341 H348 0.961 . S
C341 H349 0.960 . S
C342 C340 1.381 . S
C342 C343 1.394 . S
C342 H350 0.930 . S
C343 C342 1.394 . S
C343 C344 1.383 . S
C343 H351 0.929 . S
C344 C343 1.383 . S
C344 C345 1.377 . S
C345 H329 0.930 . S
C345 C344 1.377 . S
C345 C346 1.379 . S
C346 H330 0.931 . S
C346 C340 1.383 . S
C346 C345 1.379 . S
H347 C341 0.959 . S
H348 C341 0.961 . S
H349 C341 0.960 . S
H350 C342 0.930 . S
H351 C343 0.929 . S
C73 C23 1.446 . S
C92 C55 1.428 . S
C109 C24 1.455 . S
C128 C59 1.429 . S
C145 C8 1.447 . S
C164 C49 1.439 . S
C181 C22 1.452 . S
C200 C54 1.435 . S
C217 C17 1.457 . S
C236 C40 1.463 . S
C253 C56 1.446 . S
C272 C27 1.472 . S
C289 C30 1.451 . S
C308 C62 1.425 . S
C325 C63 1.455 . S
C344 C31 1.443 . S
