# Generated by pormake.
# Topology uox, (4)-cn, num edge types: 1
# Building blocks:
#     Node 0, Type 0, BuildingBlock: UXUYUI_clean_sbu_0, # of connection points: 4
#     Node 1, Type 0, BuildingBlock: UXUYUI_clean_sbu_0, # of connection points: 4
#     Node 2, Type 0, BuildingBlock: UXUYUI_clean_sbu_0, # of connection points: 4
#     Node 3, Type 0, BuildingBlock: UXUYUI_clean_sbu_0, # of connection points: 4
#     Node 4, Type 0, BuildingBlock: UXUYUI_clean_sbu_0, # of connection points: 4
#     Node 5, Type 0, BuildingBlock: UXUYUI_clean_sbu_0, # of connection points: 4
#     Node 6, Type 0, BuildingBlock: UXUYUI_clean_sbu_0, # of connection points: 4
#     Node 7, Type 0, BuildingBlock: UXUYUI_clean_sbu_0, # of connection points: 4
#     Node 8, Type 0, BuildingBlock: UXUYUI_clean_sbu_0, # of connection points: 4
#     Node 9, Type 0, BuildingBlock: UXUYUI_clean_sbu_0, # of connection points: 4
#     Node 10, Type 0, BuildingBlock: UXUYUI_clean_sbu_0, # of connection points: 4
#     Node 11, Type 0, BuildingBlock: UXUYUI_clean_sbu_0, # of connection points: 4
#     Node 12, Type 0, BuildingBlock: UXUYUI_clean_sbu_0, # of connection points: 4
#     Node 13, Type 0, BuildingBlock: UXUYUI_clean_sbu_0, # of connection points: 4
#     Node 14, Type 0, BuildingBlock: UXUYUI_clean_sbu_0, # of connection points: 4
#     Node 15, Type 0, BuildingBlock: UXUYUI_clean_sbu_0, # of connection points: 4
#     Node 16, Type 0, BuildingBlock: UXUYUI_clean_sbu_0, # of connection points: 4
#     Node 17, Type 0, BuildingBlock: UXUYUI_clean_sbu_0, # of connection points: 4
#     Node 18, Type 0, BuildingBlock: UXUYUI_clean_sbu_0, # of connection points: 4
#     Node 19, Type 0, BuildingBlock: UXUYUI_clean_sbu_0, # of connection points: 4
#     Node 20, Type 0, BuildingBlock: UXUYUI_clean_sbu_0, # of connection points: 4
#     Node 21, Type 0, BuildingBlock: UXUYUI_clean_sbu_0, # of connection points: 4
#     Node 22, Type 0, BuildingBlock: UXUYUI_clean_sbu_0, # of connection points: 4
#     Node 23, Type 0, BuildingBlock: UXUYUI_clean_sbu_0, # of connection points: 4
#     Node 24, Type 0, BuildingBlock: UXUYUI_clean_sbu_0, # of connection points: 4
#     Node 25, Type 0, BuildingBlock: UXUYUI_clean_sbu_0, # of connection points: 4
#     Node 26, Type 0, BuildingBlock: UXUYUI_clean_sbu_0, # of connection points: 4
#     Node 27, Type 0, BuildingBlock: UXUYUI_clean_sbu_0, # of connection points: 4
#     Node 28, Type 0, BuildingBlock: UXUYUI_clean_sbu_0, # of connection points: 4
#     Node 29, Type 0, BuildingBlock: UXUYUI_clean_sbu_0, # of connection points: 4
#     Node 30, Type 0, BuildingBlock: UXUYUI_clean_sbu_0, # of connection points: 4
#     Node 31, Type 0, BuildingBlock: UXUYUI_clean_sbu_0, # of connection points: 4
#     Edge 32, Type (0, 0), BuildingBlock: AJUNOK_clean_linker_0, # of connection points: 2
#     Edge 33, Type (0, 0), BuildingBlock: AJUNOK_clean_linker_0, # of connection points: 2
#     Edge 34, Type (0, 0), BuildingBlock: AJUNOK_clean_linker_0, # of connection points: 2
#     Edge 35, Type (0, 0), BuildingBlock: AJUNOK_clean_linker_0, # of connection points: 2
#     Edge 36, Type (0, 0), BuildingBlock: AJUNOK_clean_linker_0, # of connection points: 2
#     Edge 37, Type (0, 0), BuildingBlock: AJUNOK_clean_linker_0, # of connection points: 2
#     Edge 38, Type (0, 0), BuildingBlock: AJUNOK_clean_linker_0, # of connection points: 2
#     Edge 39, Type (0, 0), BuildingBlock: AJUNOK_clean_linker_0, # of connection points: 2
#     Edge 40, Type (0, 0), BuildingBlock: AJUNOK_clean_linker_0, # of connection points: 2
#     Edge 41, Type (0, 0), BuildingBlock: AJUNOK_clean_linker_0, # of connection points: 2
#     Edge 42, Type (0, 0), BuildingBlock: AJUNOK_clean_linker_0, # of connection points: 2
#     Edge 43, Type (0, 0), BuildingBlock: AJUNOK_clean_linker_0, # of connection points: 2
#     Edge 44, Type (0, 0), BuildingBlock: AJUNOK_clean_linker_0, # of connection points: 2
#     Edge 45, Type (0, 0), BuildingBlock: AJUNOK_clean_linker_0, # of connection points: 2
#     Edge 46, Type (0, 0), BuildingBlock: AJUNOK_clean_linker_0, # of connection points: 2
#     Edge 47, Type (0, 0), BuildingBlock: AJUNOK_clean_linker_0, # of connection points: 2
#     Edge 48, Type (0, 0), BuildingBlock: AJUNOK_clean_linker_0, # of connection points: 2
#     Edge 49, Type (0, 0), BuildingBlock: AJUNOK_clean_linker_0, # of connection points: 2
#     Edge 50, Type (0, 0), BuildingBlock: AJUNOK_clean_linker_0, # of connection points: 2
#     Edge 51, Type (0, 0), BuildingBlock: AJUNOK_clean_linker_0, # of connection points: 2
#     Edge 52, Type (0, 0), BuildingBlock: AJUNOK_clean_linker_0, # of connection points: 2
#     Edge 53, Type (0, 0), BuildingBlock: AJUNOK_clean_linker_0, # of connection points: 2
#     Edge 54, Type (0, 0), BuildingBlock: AJUNOK_clean_linker_0, # of connection points: 2
#     Edge 55, Type (0, 0), BuildingBlock: AJUNOK_clean_linker_0, # of connection points: 2
#     Edge 56, Type (0, 0), BuildingBlock: AJUNOK_clean_linker_0, # of connection points: 2
#     Edge 57, Type (0, 0), BuildingBlock: AJUNOK_clean_linker_0, # of connection points: 2
#     Edge 58, Type (0, 0), BuildingBlock: AJUNOK_clean_linker_0, # of connection points: 2
#     Edge 59, Type (0, 0), BuildingBlock: AJUNOK_clean_linker_0, # of connection points: 2
#     Edge 60, Type (0, 0), BuildingBlock: AJUNOK_clean_linker_0, # of connection points: 2
#     Edge 61, Type (0, 0), BuildingBlock: AJUNOK_clean_linker_0, # of connection points: 2
#     Edge 62, Type (0, 0), BuildingBlock: AJUNOK_clean_linker_0, # of connection points: 2
#     Edge 63, Type (0, 0), BuildingBlock: AJUNOK_clean_linker_0, # of connection points: 2
#     Edge 64, Type (0, 0), BuildingBlock: AJUNOK_clean_linker_0, # of connection points: 2
#     Edge 65, Type (0, 0), BuildingBlock: AJUNOK_clean_linker_0, # of connection points: 2
#     Edge 66, Type (0, 0), BuildingBlock: AJUNOK_clean_linker_0, # of connection points: 2
#     Edge 67, Type (0, 0), BuildingBlock: AJUNOK_clean_linker_0, # of connection points: 2
#     Edge 68, Type (0, 0), BuildingBlock: AJUNOK_clean_linker_0, # of connection points: 2
#     Edge 69, Type (0, 0), BuildingBlock: AJUNOK_clean_linker_0, # of connection points: 2
#     Edge 70, Type (0, 0), BuildingBlock: AJUNOK_clean_linker_0, # of connection points: 2
#     Edge 71, Type (0, 0), BuildingBlock: AJUNOK_clean_linker_0, # of connection points: 2
#     Edge 72, Type (0, 0), BuildingBlock: AJUNOK_clean_linker_0, # of connection points: 2
#     Edge 73, Type (0, 0), BuildingBlock: AJUNOK_clean_linker_0, # of connection points: 2
#     Edge 74, Type (0, 0), BuildingBlock: AJUNOK_clean_linker_0, # of connection points: 2
#     Edge 75, Type (0, 0), BuildingBlock: AJUNOK_clean_linker_0, # of connection points: 2
#     Edge 76, Type (0, 0), BuildingBlock: AJUNOK_clean_linker_0, # of connection points: 2
#     Edge 77, Type (0, 0), BuildingBlock: AJUNOK_clean_linker_0, # of connection points: 2
#     Edge 78, Type (0, 0), BuildingBlock: AJUNOK_clean_linker_0, # of connection points: 2
#     Edge 79, Type (0, 0), BuildingBlock: AJUNOK_clean_linker_0, # of connection points: 2
#     Edge 80, Type (0, 0), BuildingBlock: AJUNOK_clean_linker_0, # of connection points: 2
#     Edge 81, Type (0, 0), BuildingBlock: AJUNOK_clean_linker_0, # of connection points: 2
#     Edge 82, Type (0, 0), BuildingBlock: AJUNOK_clean_linker_0, # of connection points: 2
#     Edge 83, Type (0, 0), BuildingBlock: AJUNOK_clean_linker_0, # of connection points: 2
#     Edge 84, Type (0, 0), BuildingBlock: AJUNOK_clean_linker_0, # of connection points: 2
#     Edge 85, Type (0, 0), BuildingBlock: AJUNOK_clean_linker_0, # of connection points: 2
#     Edge 86, Type (0, 0), BuildingBlock: AJUNOK_clean_linker_0, # of connection points: 2
#     Edge 87, Type (0, 0), BuildingBlock: AJUNOK_clean_linker_0, # of connection points: 2
#     Edge 88, Type (0, 0), BuildingBlock: AJUNOK_clean_linker_0, # of connection points: 2
#     Edge 89, Type (0, 0), BuildingBlock: AJUNOK_clean_linker_0, # of connection points: 2
#     Edge 90, Type (0, 0), BuildingBlock: AJUNOK_clean_linker_0, # of connection points: 2
#     Edge 91, Type (0, 0), BuildingBlock: AJUNOK_clean_linker_0, # of connection points: 2
#     Edge 92, Type (0, 0), BuildingBlock: AJUNOK_clean_linker_0, # of connection points: 2
#     Edge 93, Type (0, 0), BuildingBlock: AJUNOK_clean_linker_0, # of connection points: 2
#     Edge 94, Type (0, 0), BuildingBlock: AJUNOK_clean_linker_0, # of connection points: 2
#     Edge 95, Type (0, 0), BuildingBlock: AJUNOK_clean_linker_0, # of connection points: 2
# Relax obj value: 0.188
# Max RMSD: 0.179
# Mean RMSD: 0.179
data_MOF--net-uox--node1-UXUYUI_clean_sbu_0--edge1-AJUNOK_clean_linker_0
_symmetry_space_group_name_H-M    P1
_symmetry_Int_Tables_number       1
_symmetry_cell_setting            triclinic
loop_
_symmetry_equiv_pos_as_xyz
'x, y, z'
_cell_length_a     54.014403
_cell_length_b     54.010449
_cell_length_c     95.875881
_cell_angle_alpha  89.99715
_cell_angle_beta   90.008486
_cell_angle_gamma 90.004721
loop_
_atom_site_label
_atom_site_type_symbol
_atom_site_fract_x
_atom_site_fract_y
_atom_site_fract_z
_atom_type_partial_charge
Li0 Li 0.45054 0.04711 0.15159 0.0
Li1 Li 0.42723 0.03732 0.1746 0.0
Li2 Li 0.41419 0.02021 0.15221 0.0
Li3 Li 0.40879 0.06292 0.15625 0.0
C4 C 0.45203 0.99146 0.15764 0.0
N5 N 0.46098 0.94365 0.14876 0.0
C6 C 0.44217 0.97142 0.165 0.0
C7 C 0.4666 0.98721 0.14584 0.0
C8 C 0.44685 0.94737 0.16032 0.0
C9 C 0.4709 0.96289 0.14151 0.0
C10 C 0.43539 0.093 0.17194 0.0
C11 C 0.41686 0.12102 0.18849 0.0
N12 N 0.4258 0.14053 0.18107 0.0
C13 C 0.44441 0.11328 0.16446 0.0
C14 C 0.42152 0.09684 0.18405 0.0
C15 C 0.43935 0.13719 0.16926 0.0
C16 C 0.48004 0.0699 0.13153 0.0
N17 N 0.4812 0.05595 0.1433 0.0
C18 C 0.52542 0.05791 0.14317 0.0
C19 C 0.50325 0.0498 0.14919 0.0
C20 C 0.52481 0.0722 0.1309 0.0
C21 C 0.50168 0.07802 0.12505 0.0
H22 H 0.46222 0.0749 0.12722 0.0
H23 H 0.50357 0.03904 0.15871 0.0
C24 C 0.41729 0.00896 0.19795 0.0
N25 N 0.43019 0.02926 0.19378 0.0
C26 C 0.4189 0.00065 0.21169 0.0
C27 C 0.44651 0.03475 0.21676 0.0
C28 C 0.44467 0.0422 0.20281 0.0
C29 C 0.43372 0.01356 0.22124 0.0
H30 H 0.40579 0.99918 0.19054 0.0
H31 H 0.45484 0.05821 0.19918 0.0
C32 C 0.41596 0.03922 0.12615 0.0
N33 N 0.40421 0.02272 0.09968 0.0
C34 C 0.39159 0.04063 0.12132 0.0
C35 C 0.43442 0.02967 0.11746 0.0
C36 C 0.386 0.0321 0.10793 0.0
C37 C 0.42809 0.02137 0.10412 0.0
C38 C 0.37013 0.04235 0.16964 0.0
C39 C 0.35239 0.04204 0.15904 0.0
C40 C 0.36335 0.04942 0.18313 0.0
C41 C 0.32814 0.04924 0.16205 0.0
C42 C 0.33888 0.05646 0.18573 0.0
N43 N 0.32195 0.05626 0.17522 0.0
C44 C 0.37905 0.98268 0.15274 0.0
C45 C 0.40584 0.97867 0.13332 0.0
C46 C 0.36518 0.96241 0.14835 0.0
N47 N 0.39856 0.99085 0.14505 0.0
C48 C 0.39247 0.95818 0.12854 0.0
C49 C 0.37168 0.94999 0.13604 0.0
H50 H 0.37397 0.99208 0.16224 0.0
H51 H 0.42192 0.9848 0.12763 0.0
C52 C 0.39206 0.10052 0.13884 0.0
N53 N 0.38905 0.09167 0.152 0.0
C54 C 0.3791 0.12137 0.13437 0.0
C55 C 0.3604 0.12426 0.15719 0.0
C56 C 0.37368 0.10317 0.16122 0.0
C57 C 0.36308 0.13356 0.14359 0.0
H58 H 0.40481 0.09153 0.13179 0.0
H59 H 0.37187 0.09621 0.17172 0.0
O60 O 0.44715 0.01516 0.16183 0.0
O61 O 0.43991 0.06947 0.16737 0.0
O62 O 0.42183 0.04779 0.13916 0.0
O63 O 0.3939 0.03514 0.16692 0.0
H64 H 0.4308 0.9744 0.17413 0.0
H65 H 0.47435 0.00253 0.14003 0.0
H66 H 0.43919 0.93168 0.16584 0.0
H67 H 0.48203 0.95932 0.13235 0.0
H68 H 0.40605 0.12428 0.19781 0.0
H69 H 0.45513 0.11056 0.15504 0.0
H70 H 0.41415 0.08132 0.18985 0.0
H71 H 0.44619 0.15309 0.16358 0.0
H72 H 0.54276 0.0536 0.14829 0.0
H73 H 0.50028 0.08893 0.1156 0.0
H74 H 0.4085 0.98445 0.21486 0.0
H75 H 0.45804 0.04515 0.22391 0.0
H76 H 0.37717 0.04838 0.1278 0.0
H77 H 0.45336 0.02835 0.12102 0.0
H78 H 0.3672 0.03303 0.10407 0.0
H79 H 0.44216 0.01378 0.09732 0.0
H80 H 0.35728 0.03621 0.14861 0.0
H81 H 0.37684 0.04955 0.19147 0.0
H82 H 0.31423 0.04918 0.15393 0.0
H83 H 0.33336 0.06209 0.1961 0.0
H84 H 0.34903 0.95703 0.15432 0.0
H85 H 0.39818 0.94895 0.11905 0.0
H86 H 0.38196 0.1282 0.12387 0.0
H87 H 0.34815 0.13313 0.1646 0.0
Li88 Li 0.20396 0.20094 0.40151 0.0
Li89 Li 0.21227 0.17745 0.42363 0.0
Li90 Li 0.22859 0.16388 0.4019 0.0
Li91 Li 0.18524 0.15858 0.40548 0.0
C92 C 0.25926 0.20299 0.40849 0.0
N93 N 0.3072 0.21766 0.4027 0.0
C94 C 0.27885 0.19471 0.41679 0.0
C95 C 0.26406 0.21881 0.39726 0.0
C96 C 0.30296 0.20228 0.41367 0.0
C97 C 0.28841 0.22603 0.39451 0.0
C98 C 0.16855 0.20902 0.42281 0.0
C99 C 0.13188 0.2286 0.43192 0.0
N100 N 0.14569 0.24855 0.43574 0.0
C101 C 0.1824 0.2297 0.42679 0.0
C102 C 0.1431 0.20844 0.42534 0.0
C103 C 0.17049 0.2495 0.43333 0.0
C104 C 0.17534 0.2311 0.3848 0.0
N105 N 0.19538 0.23195 0.39333 0.0
C106 C 0.19913 0.27565 0.38981 0.0
C107 C 0.20717 0.25367 0.39609 0.0
C108 C 0.17855 0.27528 0.38081 0.0
C109 C 0.16644 0.25261 0.37851 0.0
H110 H 0.16601 0.21364 0.38306 0.0
H111 H 0.22267 0.25399 0.40322 0.0
C112 C 0.23978 0.16551 0.44693 0.0
N113 N 0.21939 0.17869 0.4432 0.0
C114 C 0.24734 0.1645 0.46083 0.0
C115 C 0.21253 0.19036 0.46698 0.0
C116 C 0.20555 0.19079 0.45291 0.0
C117 C 0.23363 0.17701 0.47106 0.0
H118 H 0.25013 0.1556 0.43906 0.0
H119 H 0.18901 0.20057 0.44985 0.0
C120 C 0.21145 0.16403 0.37667 0.0
N121 N 0.23348 0.14644 0.35266 0.0
C122 C 0.20846 0.13926 0.3728 0.0
C123 C 0.22538 0.17993 0.36828 0.0
C124 C 0.21984 0.1307 0.36063 0.0
C125 C 0.23642 0.17067 0.35618 0.0
C126 C 0.20249 0.12775 0.42623 0.0
C127 C 0.21427 0.10556 0.42973 0.0
C128 C 0.1808 0.13459 0.43321 0.0
C129 C 0.20403 0.09046 0.44006 0.0
C130 C 0.17115 0.11898 0.44348 0.0
N131 N 0.18286 0.09742 0.44666 0.0
C132 C 0.2749 0.15667 0.38641 0.0
C133 C 0.25424 0.1212 0.39511 0.0
C134 C 0.29363 0.14188 0.38075 0.0
N135 N 0.25588 0.14619 0.39363 0.0
C136 C 0.27228 0.10575 0.38945 0.0
C137 C 0.29227 0.1161 0.38221 0.0
H138 H 0.27543 0.17637 0.38476 0.0
H139 H 0.23863 0.11319 0.4005 0.0
C140 C 0.13892 0.15353 0.3938 0.0
N141 N 0.15632 0.1402 0.40074 0.0
C142 C 0.11759 0.14206 0.38875 0.0
C143 C 0.13213 0.10332 0.39833 0.0
C144 C 0.15346 0.1155 0.40301 0.0
C145 C 0.11396 0.11658 0.39092 0.0
H146 H 0.1419 0.17307 0.39197 0.0
H147 H 0.16775 0.10514 0.40831 0.0
O148 O 0.23546 0.19631 0.4116 0.0
O149 O 0.1797 0.18959 0.41619 0.0
O150 O 0.20124 0.17251 0.38879 0.0
O151 O 0.21271 0.1429 0.41632 0.0
H152 H 0.27552 0.1826 0.42556 0.0
H153 H 0.24924 0.22508 0.39057 0.0
H154 H 0.3183 0.19597 0.42 0.0
H155 H 0.29239 0.23816 0.38582 0.0
H156 H 0.11219 0.22841 0.43398 0.0
H157 H 0.20215 0.23036 0.42493 0.0
H158 H 0.13214 0.19258 0.42224 0.0
H159 H 0.18097 0.26562 0.43649 0.0
H160 H 0.2089 0.29272 0.39198 0.0
H161 H 0.14994 0.25152 0.37213 0.0
H162 H 0.26388 0.15422 0.46353 0.0
H163 H 0.20136 0.20006 0.47461 0.0
H164 H 0.19778 0.12673 0.37924 0.0
H165 H 0.22785 0.19915 0.37118 0.0
H166 H 0.21791 0.11152 0.35756 0.0
H167 H 0.24741 0.1827 0.34963 0.0
H168 H 0.23124 0.10011 0.42459 0.0
H169 H 0.17142 0.1517 0.43078 0.0
H170 H 0.21296 0.07323 0.44286 0.0
H171 H 0.15437 0.12403 0.44893 0.0
H172 H 0.30869 0.15041 0.37504 0.0
H173 H 0.27067 0.08588 0.39074 0.0
H174 H 0.10425 0.153 0.38299 0.0
H175 H 0.1299 0.0838 0.40054 0.0
Li176 Li 0.05142 0.95231 0.65399 0.0
Li177 Li 0.07549 0.96182 0.6751 0.0
Li178 Li 0.08816 0.97865 0.6531 0.0
Li179 Li 0.09448 0.93495 0.65752 0.0
C180 C 0.05553 0.00814 0.66882 0.0
N181 N 0.05441 0.05465 0.68079 0.0
C182 C 0.077 0.01824 0.67465 0.0
C183 C 0.0335 0.02169 0.66908 0.0
C184 C 0.07604 0.04178 0.68066 0.0
C185 C 0.03331 0.04518 0.67517 0.0
C186 C 0.05083 0.9167 0.67857 0.0
C187 C 0.04867 0.88655 0.69709 0.0
N188 N 0.02431 0.89204 0.69894 0.0
C189 C 0.0257 0.92179 0.68052 0.0
C190 C 0.06235 0.8987 0.6868 0.0
C191 C 0.01264 0.90922 0.69092 0.0
C192 C 0.02167 0.92158 0.63856 0.0
N193 N 0.02072 0.94304 0.64591 0.0
C194 C 0.97719 0.9465 0.64177 0.0
C195 C 0.99918 0.95577 0.64751 0.0
C196 C 0.97756 0.92396 0.63443 0.0
C197 C 1.00026 0.91172 0.63265 0.0
H198 H 0.03913 0.91196 0.63744 0.0
H199 H 0.999 0.9728 0.65345 0.0
C200 C 0.09315 0.97811 0.70154 0.0
N201 N 0.07279 0.9696 0.69467 0.0
C202 C 0.09157 0.98534 0.71549 0.0
C203 C 0.04798 0.97546 0.71512 0.0
C204 C 0.05035 0.96865 0.7011 0.0
C205 C 0.06881 0.98388 0.72246 0.0
H206 H 0.11056 0.97993 0.69613 0.0
H207 H 0.03414 0.96324 0.69529 0.0
C208 C 0.08172 0.96055 0.62788 0.0
N209 N 0.08665 0.98244 0.60201 0.0
C210 C 0.10289 0.95622 0.61988 0.0
C211 C 0.06302 0.97593 0.62275 0.0
C212 C 0.10504 0.96749 0.60681 0.0
C213 C 0.06587 0.98685 0.60964 0.0
C214 C 0.12992 0.95444 0.67425 0.0
C215 C 0.1534 0.9643 0.67164 0.0
C216 C 0.12734 0.93498 0.68373 0.0
C217 C 0.17395 0.95432 0.67848 0.0
C218 C 0.14832 0.92551 0.69037 0.0
N219 N 0.17101 0.93528 0.68761 0.0
C220 C 0.09331 0.02792 0.64135 0.0
C221 C 0.12813 0.00126 0.64062 0.0
C222 C 0.10729 0.04729 0.63569 0.0
N223 N 0.1041 0.00563 0.64396 0.0
C224 C 0.14275 0.02001 0.63502 0.0
C225 C 0.13251 0.04355 0.63271 0.0
H226 H 0.07399 0.03078 0.64382 0.0
H227 H 0.136 0.98316 0.6425 0.0
C228 C 0.10215 0.88451 0.65338 0.0
N229 N 0.11392 0.90673 0.65323 0.0
C230 C 0.11416 0.86333 0.64855 0.0
C231 C 0.15053 0.88811 0.6439 0.0
C232 C 0.13771 0.90893 0.64872 0.0
C233 C 0.13852 0.86506 0.64356 0.0
H234 H 0.08309 0.88344 0.65679 0.0
H235 H 0.14639 0.92696 0.6484 0.0
O236 O 0.05588 0.98508 0.66292 0.0
O237 O 0.06389 0.92871 0.66839 0.0
O238 O 0.0795 0.95018 0.64081 0.0
O239 O 0.10967 0.96335 0.66729 0.0
H240 H 0.09425 0.00809 0.67451 0.0
H241 H 0.01672 0.01411 0.66461 0.0
H242 H 0.09251 0.04982 0.68521 0.0
H243 H 0.01639 0.05589 0.67543 0.0
H244 H 0.05739 0.87268 0.70359 0.0
H245 H 0.01645 0.9356 0.67424 0.0
H246 H 0.08161 0.89401 0.6852 0.0
H247 H 0.99325 0.91317 0.69263 0.0
H248 H 0.96002 0.95647 0.64334 0.0
H249 H 0.00143 0.8946 0.6268 0.0
H250 H 0.10799 0.99202 0.72078 0.0
H251 H 0.02996 0.97473 0.72005 0.0
H252 H 0.11755 0.94443 0.62377 0.0
H253 H 0.04661 0.97959 0.62889 0.0
H254 H 0.12135 0.96439 0.60051 0.0
H255 H 0.0516 0.99888 0.60554 0.0
H256 H 0.15579 0.97952 0.66444 0.0
H257 H 0.1093 0.92733 0.68593 0.0
H258 H 0.19223 0.96172 0.67652 0.0
H259 H 0.14657 0.91039 0.6977 0.0
H260 H 0.09852 0.06497 0.63371 0.0
H261 H 0.16207 0.01628 0.63283 0.0
H262 H 0.10433 0.84584 0.64842 0.0
H263 H 0.16918 0.89018 0.63992 0.0
Li264 Li 0.28808 0.82452 0.92447 0.0
Li265 Li 0.29866 0.80014 0.90334 0.0
Li266 Li 0.31452 0.84288 0.90725 0.0
Li267 Li 0.27115 0.83645 0.9019 0.0
C268 C 0.33004 0.8026 0.93032 0.0
N269 N 0.34596 0.78245 0.95524 0.0
C270 C 0.3299 0.77695 0.93223 0.0
C271 C 0.33848 0.818 0.94103 0.0
C272 C 0.338 0.76712 0.94492 0.0
C273 C 0.34637 0.80746 0.95357 0.0
C274 C 0.2409 0.80142 0.91277 0.0
C275 C 0.20323 0.78349 0.90379 0.0
N276 N 0.19002 0.79622 0.9135 0.0
C277 C 0.22697 0.81413 0.92275 0.0
C278 C 0.22898 0.7858 0.90327 0.0
C279 C 0.20127 0.81134 0.92292 0.0
C280 C 0.27505 0.84354 0.95091 0.0
N281 N 0.2798 0.82226 0.94383 0.0
C282 C 0.26966 0.79804 0.96393 0.0
C283 C 0.27706 0.79973 0.94998 0.0
C284 C 0.26467 0.81974 0.97149 0.0
C285 C 0.26738 0.8427 0.96481 0.0
H286 H 0.27673 0.86118 0.94569 0.0
H287 H 0.28027 0.78307 0.94399 0.0
C288 C 0.32648 0.76939 0.88617 0.0
N289 N 0.30762 0.769 0.89555 0.0
C290 C 0.33417 0.74761 0.87969 0.0
C291 C 0.30344 0.72516 0.89297 0.0
C292 C 0.29601 0.74753 0.89905 0.0
C293 C 0.3226 0.72517 0.88307 0.0
H294 H 0.33548 0.78673 0.88369 0.0
H295 H 0.28111 0.7478 0.90659 0.0
C296 C 0.29335 0.88191 0.91697 0.0
N297 N 0.31077 0.93001 0.91731 0.0
C298 C 0.28558 0.89879 0.90682 0.0
C299 C 0.30995 0.88951 0.9273 0.0
C300 C 0.29459 0.92303 0.90717 0.0
C301 C 0.31856 0.9139 0.92729 0.0
C302 C 0.29518 0.82261 0.87645 0.0
C303 C 0.30659 0.83569 0.86564 0.0
C304 C 0.2794 0.80287 0.87329 0.0
C305 C 0.30179 0.82896 0.85183 0.0
C306 C 0.27513 0.79666 0.85936 0.0
N307 N 0.2863 0.80975 0.849 0.0
C308 C 0.36417 0.8598 0.90996 0.0
C309 C 0.34045 0.87952 0.89237 0.0
C310 C 0.38538 0.87259 0.90574 0.0
N311 N 0.34238 0.86328 0.90315 0.0
C312 C 0.36116 0.89269 0.88781 0.0
C313 C 0.38409 0.88903 0.89439 0.0
H314 H 0.36528 0.8465 0.91836 0.0
H315 H 0.32297 0.8816 0.887 0.0
C316 C 0.22821 0.86462 0.90288 0.0
N317 N 0.24245 0.85159 0.89376 0.0
C318 C 0.20828 0.87873 0.89813 0.0
C319 C 0.21757 0.86544 0.87465 0.0
C320 C 0.2373 0.85154 0.87986 0.0
C321 C 0.20316 0.87967 0.88381 0.0
H322 H 0.23295 0.86482 0.91384 0.0
H323 H 0.24882 0.84148 0.87269 0.0
O324 O 0.32175 0.81259 0.91808 0.0
O325 O 0.26606 0.80424 0.91228 0.0
O326 O 0.28514 0.85796 0.91664 0.0
O327 O 0.30016 0.8286 0.89003 0.0
H328 H 0.32344 0.76477 0.92406 0.0
H329 H 0.33867 0.83789 0.93973 0.0
H330 H 0.33788 0.74731 0.94657 0.0
H331 H 0.35278 0.81916 0.96199 0.0
H332 H 0.19376 0.77155 0.89647 0.0
H333 H 0.23585 0.82634 0.93015 0.0
H334 H 0.23946 0.77549 0.89562 0.0
H335 H 0.19025 0.82124 0.93051 0.0
H336 H 0.26732 0.77997 0.96865 0.0
H337 H 0.26363 0.85982 0.9703 0.0
H338 H 0.34927 0.74822 0.87226 0.0
H339 H 0.29422 0.7081 0.89585 0.0
H340 H 0.27299 0.89319 0.89863 0.0
H341 H 0.31629 0.87665 0.93518 0.0
H342 H 0.28881 0.93626 0.89935 0.0
H343 H 0.33149 0.92 0.93519 0.0
H344 H 0.31908 0.85083 0.86788 0.0
H345 H 0.27047 0.79255 0.88151 0.0
H346 H 0.31045 0.83897 0.84336 0.0
H347 H 0.26293 0.78146 0.85678 0.0
H348 H 0.40273 0.86925 0.91108 0.0
H349 H 0.35947 0.90475 0.87884 0.0
H350 H 0.1977 0.88965 0.90549 0.0
H351 H 0.21399 0.86555 0.86353 0.0
Li352 Li 0.41279 0.9795 0.34738 0.0
Li353 Li 0.40676 0.93456 0.34407 0.0
Li354 Li 0.44806 0.95207 0.34833 0.0
Li355 Li 0.42642 0.95933 0.32598 0.0
C356 C 0.4274 0.94774 0.37377 0.0
N357 N 0.44682 0.93717 0.39975 0.0
C358 C 0.42266 0.92488 0.38006 0.0
C359 C 0.44185 0.9653 0.38073 0.0
C360 C 0.43268 0.91988 0.39319 0.0
C361 C 0.45157 0.95957 0.39384 0.0
C362 C 0.36845 0.9554 0.33149 0.0
C363 C 0.33741 0.93031 0.32023 0.0
N364 N 0.31981 0.94044 0.32862 0.0
C365 C 0.35007 0.96562 0.33998 0.0
C366 C 0.3621 0.93768 0.3215 0.0
C367 C 0.32558 0.9578 0.33837 0.0
C368 C 0.3857 0.02276 0.34387 0.0
N369 N 0.3969 0.00869 0.35379 0.0
C370 C 0.37931 0.03344 0.37191 0.0
C371 C 0.39436 0.01382 0.3676 0.0
C372 C 0.36663 0.04753 0.36188 0.0
C373 C 0.37048 0.04246 0.3477 0.0
H374 H 0.38776 0.01797 0.33298 0.0
H375 H 0.4031 0.00206 0.37527 0.0
C376 C 0.39592 0.88383 0.34524 0.0
N377 N 0.38683 0.90655 0.34855 0.0
C378 C 0.3843 0.86248 0.35019 0.0
C379 C 0.35353 0.88822 0.36138 0.0
C380 C 0.36597 0.90913 0.35638 0.0
C381 C 0.36309 0.86464 0.35853 0.0
H382 H 0.41284 0.8823 0.33929 0.0
H383 H 0.35965 0.92739 0.3593 0.0
C384 C 0.44835 0.00818 0.33787 0.0
N385 N 0.45294 0.0591 0.33858 0.0
C386 C 0.44089 0.0224 0.32644 0.0
C387 C 0.45833 0.01981 0.34961 0.0
C388 C 0.44331 0.04814 0.32702 0.0
C389 C 0.46045 0.04558 0.34978 0.0
C390 C 0.44896 0.91591 0.32316 0.0
C391 C 0.47476 0.91558 0.32212 0.0
C392 C 0.43461 0.90492 0.31273 0.0
C393 C 0.48581 0.90442 0.31053 0.0
C394 C 0.44636 0.89401 0.30129 0.0
N395 N 0.4715 0.89399 0.30044 0.0
C396 C 0.47981 0.92159 0.36345 0.0
C397 C 0.49899 0.95891 0.35615 0.0
C398 C 0.50162 0.91373 0.36984 0.0
N399 N 0.47879 0.94392 0.35694 0.0
C400 C 0.52143 0.9515 0.36215 0.0
C401 C 0.52276 0.92869 0.36913 0.0
H402 H 0.46368 0.90974 0.36355 0.0
H403 H 0.49777 0.97638 0.35068 0.0
C404 C 0.40896 0.9733 0.29967 0.0
N405 N 0.4296 0.96536 0.30645 0.0
C406 C 0.41028 0.98069 0.28575 0.0
C407 C 0.45401 0.97118 0.28588 0.0
C408 C 0.45193 0.96434 0.2999 0.0
C409 C 0.43301 0.97971 0.27872 0.0
H410 H 0.39158 0.97461 0.30519 0.0
H411 H 0.46824 0.95886 0.30565 0.0
O412 O 0.41797 0.95289 0.36085 0.0
O413 O 0.39256 0.96268 0.33295 0.0
O414 O 0.44579 0.983 0.33759 0.0
O415 O 0.43777 0.92693 0.33433 0.0
H416 H 0.41152 0.91107 0.37482 0.0
H417 H 0.44569 0.98306 0.376 0.0
H418 H 0.42925 0.90223 0.39817 0.0
H419 H 0.4629 0.97293 0.39931 0.0
H420 H 0.33224 0.91655 0.31257 0.0
H421 H 0.35466 0.97924 0.34784 0.0
H422 H 0.37612 0.92965 0.31483 0.0
H423 H 0.31117 0.96548 0.34491 0.0
H424 H 0.37662 0.03676 0.38294 0.0
H425 H 0.36116 0.05309 0.33969 0.0
H426 H 0.39223 0.8445 0.34793 0.0
H427 H 0.33741 0.89046 0.36798 0.0
H428 H 0.43311 0.01371 0.31727 0.0
H429 H 0.46433 0.00905 0.3585 0.0
H430 H 0.43749 0.0594 0.31828 0.0
H431 H 0.46806 0.05485 0.35882 0.0
H432 H 0.48614 0.92399 0.3301 0.0
H433 H 0.41462 0.90495 0.31342 0.0
H434 H 0.50576 0.90411 0.30955 0.0
H435 H 0.4355 0.88556 0.2931 0.0
H436 H 0.50217 0.89587 0.37498 0.0
H437 H 0.53754 0.96335 0.36135 0.0
H438 H 0.39374 0.98727 0.28054 0.0
H439 H 0.47192 0.97057 0.28081 0.0
Li440 Li 0.27189 0.16276 0.59821 0.0
Li441 Li 0.31563 0.15574 0.59435 0.0
Li442 Li 0.29827 0.1991 0.5982 0.0
Li443 Li 0.2884 0.17504 0.57634 0.0
C444 C 0.29743 0.16489 0.6245 0.0
N445 N 0.29348 0.15332 0.65246 0.0
C446 C 0.30177 0.14069 0.62903 0.0
C447 C 0.29128 0.18326 0.63416 0.0
C448 C 0.29963 0.13521 0.64323 0.0
C449 C 0.2893 0.17702 0.64826 0.0
C450 C 0.29578 0.12407 0.57461 0.0
C451 C 0.3244 0.11257 0.55642 0.0
N452 N 0.31281 0.09031 0.55521 0.0
C453 C 0.28412 0.10113 0.57316 0.0
C454 C 0.31606 0.1299 0.56616 0.0
C455 C 0.29302 0.08429 0.5633 0.0
C456 C 0.22893 0.13555 0.5959 0.0
N457 N 0.24303 0.14695 0.60573 0.0
C458 C 0.21728 0.13089 0.62389 0.0
C459 C 0.23728 0.14539 0.61951 0.0
C460 C 0.20275 0.11836 0.61396 0.0
C461 C 0.20853 0.12131 0.59978 0.0
H462 H 0.23388 0.13714 0.58501 0.0
H463 H 0.24846 0.15476 0.62718 0.0
C464 C 0.36116 0.14948 0.60676 0.0
N465 N 0.34401 0.13671 0.59929 0.0
C466 C 0.38196 0.13746 0.6121 0.0
C467 C 0.36741 0.09934 0.60174 0.0
C468 C 0.34664 0.11206 0.59674 0.0
C469 C 0.38524 0.11208 0.60961 0.0
H470 H 0.35837 0.16898 0.60879 0.0
H471 H 0.33247 0.10211 0.5911 0.0
C472 C 0.2421 0.19851 0.59214 0.0
N473 N 0.19327 0.20338 0.60022 0.0
C474 C 0.22308 0.19368 0.58264 0.0
C475 C 0.23633 0.20599 0.60571 0.0
C476 C 0.1985 0.19622 0.58694 0.0
C477 C 0.21151 0.20829 0.6096 0.0
C478 C 0.33628 0.20145 0.57579 0.0
C479 C 0.32908 0.22586 0.57314 0.0
C480 C 0.35894 0.19278 0.57075 0.0
C481 C 0.34468 0.24118 0.56536 0.0
C482 C 0.37399 0.20867 0.56299 0.0
N483 N 0.36661 0.23233 0.56047 0.0
C484 C 0.33126 0.23088 0.61108 0.0
C485 C 0.29229 0.24973 0.60696 0.0
C486 C 0.34036 0.25263 0.61699 0.0
N487 N 0.30768 0.22984 0.6062 0.0
C488 C 0.30062 0.27191 0.61289 0.0
C489 C 0.32498 0.2735 0.61798 0.0
H490 H 0.34304 0.21474 0.61029 0.0
H491 H 0.27368 0.24844 0.60287 0.0
C492 C 0.26159 0.16174 0.55288 0.0
N493 N 0.28079 0.17644 0.55684 0.0
C494 C 0.25384 0.16117 0.539 0.0
C495 C 0.28564 0.19103 0.53343 0.0
C496 C 0.29288 0.19093 0.54745 0.0
C497 C 0.26595 0.1759 0.52907 0.0
H498 H 0.25219 0.15051 0.56057 0.0
H499 H 0.3081 0.20243 0.55075 0.0
O500 O 0.29978 0.17076 0.61072 0.0
O501 O 0.28699 0.14077 0.58412 0.0
O502 O 0.26626 0.19553 0.58826 0.0
O503 O 0.32152 0.18623 0.58356 0.0
H504 H 0.30668 0.12633 0.62166 0.0
H505 H 0.28803 0.20212 0.6308 0.0
H506 H 0.30288 0.11655 0.6469 0.0
H507 H 0.28448 0.19101 0.65586 0.0
H508 H 0.34007 0.11682 0.54982 0.0
H509 H 0.26832 0.09641 0.57958 0.0
H510 H 0.32524 0.14759 0.56707 0.0
H511 H 0.28419 0.06645 0.56208 0.0
H512 H 0.21392 0.12875 0.63496 0.0
H513 H 0.19774 0.1122 0.59176 0.0
H514 H 0.39536 0.14787 0.61812 0.0
H515 H 0.36922 0.07967 0.59978 0.0
H516 H 0.22727 0.18789 0.5721 0.0
H517 H 0.25087 0.20961 0.61321 0.0
H518 H 0.18357 0.19244 0.57972 0.0
H519 H 0.20675 0.21388 0.6201 0.0
H520 H 0.31155 0.23281 0.57696 0.0
H521 H 0.36483 0.17398 0.57283 0.0
H522 H 0.33934 0.26009 0.56318 0.0
H523 H 0.39157 0.2022 0.55898 0.0
H524 H 0.35921 0.2531 0.62084 0.0
H525 H 0.28834 0.28775 0.61326 0.0
H526 H 0.2383 0.14958 0.5361 0.0
H527 H 0.29545 0.20263 0.52605 0.0
Li528 Li 0.08972 0.06221 0.84608 0.0
Li529 Li 0.08365 0.0184 0.84978 0.0
Li530 Li 0.07031 0.03651 0.82776 0.0
Li531 Li 0.04746 0.04547 0.85025 0.0
C532 C 0.12697 0.03418 0.82988 0.0
N533 N 0.17395 0.03326 0.81845 0.0
C534 C 0.14673 0.024 0.83737 0.0
C535 C 0.13108 0.04356 0.81648 0.0
C536 C 0.17034 0.02379 0.83143 0.0
C537 C 0.15498 0.04303 0.81092 0.0
C538 C 0.09106 0.0462 0.87454 0.0
C539 C 0.09621 0.0478 0.89951 0.0
N540 N 0.1212 0.04726 0.89782 0.0
C541 C 0.11677 0.04563 0.87305 0.0
C542 C 0.08065 0.04728 0.88787 0.0
C543 C 0.13171 0.0462 0.88494 0.0
C544 C 0.09662 0.10953 0.85635 0.0
N545 N 0.10938 0.09052 0.85047 0.0
C546 C 0.14765 0.11206 0.85373 0.0
C547 C 0.13441 0.09148 0.84894 0.0
C548 C 0.13494 0.13174 0.86009 0.0
C549 C 0.10907 0.13047 0.86118 0.0
H550 H 0.07675 0.10813 0.85753 0.0
H551 H 0.14419 0.07612 0.84432 0.0
C552 C 0.10986 0.97479 0.8468 0.0
N553 N 0.09909 0.9892 0.8567 0.0
C554 C 0.12483 0.95494 0.85065 0.0
C555 C 0.11624 0.96418 0.87484 0.0
C556 C 0.10122 0.98381 0.87051 0.0
C557 C 0.12893 0.95004 0.86483 0.0
H558 H 0.10758 0.97938 0.8359 0.0
H559 H 0.09205 0.99521 0.87818 0.0
C560 C 0.05921 0.08823 0.82616 0.0
N561 N 0.06008 0.12662 0.80713 0.0
C562 C 0.0375 0.10115 0.82304 0.0
C563 C 0.0814 0.09494 0.81969 0.0
C564 C 0.03831 0.12047 0.81336 0.0
C565 C 0.08146 0.11437 0.81008 0.0
C566 C 0.04546 0.99043 0.84475 0.0
C567 C 0.04934 0.96987 0.83618 0.0
C568 C 0.03683 0.98711 0.85836 0.0
C569 C 0.04461 0.9462 0.84143 0.0
C570 C 0.03232 0.96315 0.86322 0.0
N571 N 0.03629 0.94336 0.85473 0.0
C572 C 0.07887 0.00775 0.80442 0.0
C573 C 0.05596 0.0439 0.79893 0.0
C574 C 0.07812 1.00003 0.79054 0.0
N575 N 0.06784 0.02927 0.80835 0.0
C576 C 0.05503 0.03702 0.78486 0.0
C577 C 0.06601 0.01472 0.78059 0.0
H578 H 0.08833 0.99659 0.81213 0.0
H579 H 0.04714 0.06082 0.80228 0.0
C580 C 0.01739 0.06902 0.86968 0.0
N581 N 0.01671 0.0535 0.85854 0.0
C582 C 0.99547 0.07678 0.876 0.0
C583 C 0.97249 0.05253 0.85921 0.0
C584 C 0.99493 0.04508 0.85325 0.0
C585 C 0.97265 0.06859 0.87074 0.0
H586 H 0.03501 0.07574 0.87348 0.0
H587 H 0.99501 0.03289 0.84429 0.0
O588 O 0.10361 0.03422 0.83543 0.0
O589 O 0.07604 0.0456 0.86306 0.0
O590 O 0.05867 0.06924 0.83557 0.0
O591 O 0.05073 0.0137 0.84 0.0
H592 H 0.14392 0.01625 0.84765 0.0
H593 H 0.11598 0.05102 0.81038 0.0
H594 H 0.18578 0.01603 0.83714 0.0
H595 H 0.15842 0.05029 0.80058 0.0
H596 H 0.08841 0.0486 0.90989 0.0
H597 H 0.12507 0.04473 0.86284 0.0
H598 H 0.06075 0.04759 0.88921 0.0
H599 H 0.15165 0.04579 0.88392 0.0
H600 H 0.16758 0.11254 0.85253 0.0
H601 H 0.09864 0.14525 0.86606 0.0
H602 H 0.13376 0.94403 0.84261 0.0
H603 H 0.11881 0.96085 0.88588 0.0
H604 H 0.02019 0.09621 0.82801 0.0
H605 H 0.0984 0.08537 0.82215 0.0
H606 H 0.02163 0.13058 0.8108 0.0
H607 H 0.0985 0.11974 0.80499 0.0
H608 H 0.05609 0.97214 0.82564 0.0
H609 H 0.03394 0.00287 0.86515 0.0
H610 H 0.04762 0.93009 0.83495 0.0
H611 H 0.02576 0.96027 0.87375 0.0
H612 H 0.08716 0.98292 0.78758 0.0
H613 H 0.04555 0.0488 0.77744 0.0
H614 H 0.99634 0.08963 0.88467 0.0
H615 H 0.95522 0.04594 0.85483 0.0
Li616 Li 0.18656 0.84344 0.09517 0.0
Li617 Li 0.22981 0.83646 0.09815 0.0
Li618 Li 0.2116 0.82355 0.0768 0.0
Li619 Li 0.20336 0.80073 0.09889 0.0
C620 C 0.20387 0.87352 0.07418 0.0
N621 N 0.18413 0.90471 0.05419 0.0
C622 C 0.21698 0.89446 0.06985 0.0
C623 C 0.18076 0.86836 0.06825 0.0
C624 C 0.20668 0.91003 0.05976 0.0
C625 C 0.1711 0.88438 0.0582 0.0
C626 C 0.21369 0.83804 0.12354 0.0
C627 C 0.23827 0.83157 0.14421 0.0
N628 N 0.23715 0.85624 0.14699 0.0
C629 C 0.21256 0.86329 0.12666 0.0
C630 C 0.22647 0.82199 0.13242 0.0
C631 C 0.22463 0.87214 0.13855 0.0
C632 C 0.13857 0.85046 0.10446 0.0
N633 N 0.15882 0.86319 0.10009 0.0
C634 C 0.13937 0.90175 0.10561 0.0
C635 C 0.15964 0.88835 0.10052 0.0
C636 C 0.11832 0.88902 0.11038 0.0
C637 C 0.11802 0.86306 0.10967 0.0
H638 H 0.13868 0.83044 0.10421 0.0
H639 H 0.17622 0.89797 0.09727 0.0
C640 C 0.27711 0.84142 0.1128 0.0
N641 N 0.25849 0.8528 0.10569 0.0
C642 C 0.29734 0.85509 0.11764 0.0
C643 C 0.27837 0.89205 0.10834 0.0
C644 C 0.25872 0.87767 0.10356 0.0
C645 C 0.2981 0.88079 0.11542 0.0
H646 H 0.27631 0.82185 0.11486 0.0
H647 H 0.2434 0.88646 0.09829 0.0
C648 C 0.16839 0.79307 0.07772 0.0
N649 N 0.147 0.7532 0.0643 0.0
C650 C 0.18325 0.77427 0.07222 0.0
C651 C 0.14267 0.79161 0.0764 0.0
C652 C 0.17207 0.75426 0.06548 0.0
C653 C 0.1322 0.7713 0.06957 0.0
C654 C 0.25692 0.79393 0.09271 0.0
C655 C 0.27838 0.79795 0.08488 0.0
C656 C 0.2581 0.77917 0.10468 0.0
C657 C 0.30067 0.78729 0.08921 0.0
C658 C 0.28072 0.76878 0.10864 0.0
N659 N 0.30137 0.77304 0.10089 0.0
C660 C 0.24132 0.82808 0.05359 0.0
C661 C 0.20093 0.81495 0.0474 0.0
C662 C 0.24892 0.82706 0.0397 0.0
N663 N 0.21791 0.82154 0.05721 0.0
C664 C 0.20772 0.81381 0.03331 0.0
C665 C 0.23213 0.81952 0.02939 0.0
H666 H 0.25405 0.83434 0.06153 0.0
H667 H 0.18216 0.81065 0.05045 0.0
C668 C 0.17754 0.77214 0.11799 0.0
N669 N 0.19376 0.77018 0.10721 0.0
C670 C 0.16779 0.75094 0.12422 0.0
C671 C 0.19196 0.72599 0.10832 0.0
C672 C 0.20123 0.74772 0.10235 0.0
C673 C 0.1747 0.72751 0.11925 0.0
H674 H 0.17186 0.79025 0.12158 0.0
H675 H 0.21408 0.7467 0.09372 0.0
O676 O 0.21399 0.85804 0.08396 0.0
O677 O 0.20273 0.82917 0.11171 0.0
O678 O 0.17885 0.81274 0.08448 0.0
O679 O 0.23481 0.80383 0.08848 0.0
H680 H 0.235 0.89863 0.07418 0.0
H681 H 0.17031 0.85223 0.07134 0.0
H682 H 0.21663 0.92631 0.05633 0.0
H683 H 0.15323 0.88062 0.05356 0.0
H684 H 0.24837 0.81939 0.15113 0.0
H685 H 0.2028 0.87594 0.11985 0.0
H686 H 0.2274 0.80238 0.13017 0.0
H687 H 0.22411 0.89167 0.14103 0.0
H688 H 0.14045 0.92174 0.10622 0.0
H689 H 0.10212 0.85261 0.11324 0.0
H690 H 0.31226 0.84561 0.12297 0.0
H691 H 0.27796 0.91188 0.10665 0.0
H692 H 0.20319 0.77517 0.07311 0.0
H693 H 0.13094 0.80604 0.08061 0.0
H694 H 0.18334 0.73957 0.06117 0.0
H695 H 0.11232 0.76993 0.06847 0.0
H696 H 0.27792 0.80915 0.07556 0.0
H697 H 0.24189 0.77607 0.11101 0.0
H698 H 0.31741 0.79032 0.08325 0.0
H699 H 0.28188 0.75743 0.11791 0.0
H700 H 0.26766 0.83242 0.03703 0.0
H701 H 0.19416 0.80827 0.0256 0.0
H702 H 0.15483 0.75285 0.13277 0.0
H703 H 0.19766 0.70821 0.1042 0.0
Li704 Li 0.57244 0.96194 0.82728 0.0
Li705 Li 0.58591 0.97867 0.84888 0.0
Li706 Li 0.59079 0.9345 0.84516 0.0
Li707 Li 0.54848 0.95369 0.84923 0.0
C708 C 0.62227 0.97597 0.82713 0.0
N709 N 0.65345 0.00511 0.81126 0.0
C710 C 0.61554 1.00022 0.82377 0.0
C711 C 0.64488 0.96654 0.82247 0.0
C712 C 0.63155 0.01466 0.81573 0.0
C713 C 0.66039 0.98157 0.81445 0.0
C714 C 0.54361 0.00793 0.84175 0.0
C715 C 0.51779 0.03481 0.85562 0.0
N716 N 0.52253 0.05375 0.84665 0.0
C717 C 0.54791 0.02757 0.83255 0.0
C718 C 0.52818 0.01149 0.85328 0.0
C719 C 0.53721 0.05062 0.83526 0.0
C720 C 0.55015 0.98193 0.80304 0.0
N721 N 0.56977 0.96853 0.80773 0.0
C722 C 0.5885 0.9696 0.78515 0.0
C723 C 0.58849 0.9618 0.79903 0.0
C724 C 0.56898 0.9843 0.78016 0.0
C725 C 0.5493 0.98995 0.78917 0.0
H726 H 0.53553 0.98705 0.81018 0.0
H727 H 0.60383 0.95104 0.80297 0.0
C728 C 0.62841 0.00177 0.85866 0.0
N729 N 0.60366 0.00578 0.85729 0.0
C730 C 0.6438 0.02012 0.86406 0.0
C731 C 0.608 0.0464 0.86698 0.0
C732 C 0.59323 0.02745 0.86155 0.0
C733 C 0.63367 0.0429 0.86812 0.0
H734 H 0.63624 0.98424 0.85547 0.0
H735 H 0.57355 0.03017 0.86079 0.0
C736 C 0.5597 0.91306 0.8236 0.0
N737 N 0.56051 0.87999 0.80164 0.0
C738 C 0.53764 0.90276 0.81868 0.0
C739 C 0.58217 0.90662 0.81734 0.0
C740 C 0.53845 0.88603 0.80757 0.0
C741 C 0.58219 0.88987 0.80625 0.0
C742 C 0.58451 0.96125 0.87434 0.0
C743 C 0.60833 0.95684 0.87946 0.0
C744 C 0.56836 0.97647 0.88183 0.0
C745 C 0.61573 0.96806 0.89191 0.0
C746 C 0.57645 0.98735 0.89424 0.0
N747 N 0.59978 0.98298 0.89897 0.0
C748 C 0.63376 0.90805 0.85324 0.0
C749 C 0.59784 0.88349 0.84986 0.0
C750 C 0.64686 0.88749 0.85815 0.0
N751 N 0.60961 0.90574 0.84944 0.0
C752 C 0.61036 0.8624 0.85445 0.0
C753 C 0.635 0.86441 0.85893 0.0
H754 H 0.64257 0.92603 0.85287 0.0
H755 H 0.57851 0.88228 0.84699 0.0
C756 C 0.49549 0.95221 0.85162 0.0
N757 N 0.51751 0.94617 0.8576 0.0
C758 C 0.47325 0.94475 0.85784 0.0
C759 C 0.49689 0.92525 0.87623 0.0
C760 C 0.51857 0.93308 0.86969 0.0
C761 C 0.47385 0.9309 0.87026 0.0
H762 H 0.49524 0.96241 0.84191 0.0
H763 H 0.53635 0.92834 0.87414 0.0
O764 O 0.60677 0.96134 0.83483 0.0
O765 O 0.55366 0.98513 0.83917 0.0
O766 O 0.55923 0.92958 0.83439 0.0
O767 O 0.57717 0.95104 0.86196 0.0
H768 H 0.59819 0.00777 0.82737 0.0
H769 H 0.65032 0.94777 0.82498 0.0
H770 H 0.62655 0.03346 0.81304 0.0
H771 H 0.67793 0.9745 0.81073 0.0
H772 H 0.50595 0.03785 0.86455 0.0
H773 H 0.55925 0.02506 0.82337 0.0
H774 H 0.52429 0.99647 0.86038 0.0
H775 H 0.5405 0.06601 0.82828 0.0
H776 H 0.6038 0.96452 0.77843 0.0
H777 H 0.53393 0.00123 0.78567 0.0
H778 H 0.66351 0.01668 0.86483 0.0
H779 H 0.59944 0.06353 0.87032 0.0
H780 H 0.52011 0.90764 0.82341 0.0
H781 H 0.59939 0.91459 0.82096 0.0
H782 H 0.52153 0.87787 0.80365 0.0
H783 H 0.59943 0.88474 0.80129 0.0
H784 H 0.62107 0.94513 0.8738 0.0
H785 H 0.54982 0.97993 0.87807 0.0
H786 H 0.63419 0.96498 0.89594 0.0
H787 H 0.56418 0.99928 0.9001 0.0
H788 H 0.66591 0.88962 0.86148 0.0
H789 H 0.60062 0.84489 0.85502 0.0
H790 H 0.45586 0.94909 0.85278 0.0
H791 H 0.49812 0.91465 0.8858 0.0
Li792 Li 0.81726 0.83789 0.59623 0.0
Li793 Li 0.79593 0.79677 0.59951 0.0
Li794 Li 0.78833 0.82233 0.57778 0.0
Li795 Li 0.77348 0.83563 0.59986 0.0
C796 C 0.83953 0.79341 0.58097 0.0
N797 N 0.88005 0.76496 0.57377 0.0
C798 C 0.85331 0.78142 0.59131 0.0
C799 C 0.84639 0.79099 0.56699 0.0
C800 C 0.87371 0.76707 0.58745 0.0
C801 C 0.86695 0.77654 0.56356 0.0
C802 C 0.78853 0.83042 0.62506 0.0
C803 C 0.75686 0.82233 0.64221 0.0
N804 N 0.7633 0.84345 0.64903 0.0
C805 C 0.79492 0.85197 0.63228 0.0
C806 C 0.7694 0.81542 0.63007 0.0
C807 C 0.78191 0.85826 0.64437 0.0
C808 C 0.84461 0.87815 0.60678 0.0
N809 N 0.84696 0.85579 0.60038 0.0
C810 C 0.89096 0.8574 0.60285 0.0
C811 C 0.86961 0.84567 0.598 0.0
C812 C 0.88899 0.87977 0.61023 0.0
C813 C 0.86552 0.89056 0.61181 0.0
H814 H 0.82638 0.88595 0.60838 0.0
H815 H 0.87118 0.82822 0.59265 0.0
C816 C 0.80346 0.74451 0.5981 0.0
N817 N 0.80173 0.76436 0.60676 0.0
C818 C 0.81157 0.72162 0.60323 0.0
C819 C 0.81495 0.73989 0.62615 0.0
C820 C 0.80712 0.7624 0.62057 0.0
C821 C 0.81771 0.7192 0.61742 0.0
H822 H 0.79968 0.74675 0.58709 0.0
H823 H 0.80633 0.77856 0.62718 0.0
C824 C 0.80222 0.87213 0.57682 0.0
N825 N 0.82456 0.90408 0.55815 0.0
C826 C 0.79315 0.89617 0.57511 0.0
C827 C 0.82272 0.86436 0.56906 0.0
C828 C 0.80467 0.91203 0.5656 0.0
C829 C 0.83374 0.88079 0.55968 0.0
C830 C 0.74011 0.80363 0.58616 0.0
C831 C 0.72953 0.82335 0.57885 0.0
C832 C 0.72558 0.78325 0.58982 0.0
C833 C 0.70448 0.82229 0.57527 0.0
C834 C 0.70059 0.7829 0.58606 0.0
N835 N 0.69065 0.80227 0.57893 0.0
C836 C 0.78298 0.79819 0.55144 0.0
C837 C 0.77183 0.84062 0.55161 0.0
C838 C 0.77637 0.79624 0.53735 0.0
N839 N 0.78078 0.82021 0.55823 0.0
C840 C 0.76529 0.83957 0.53756 0.0
C841 C 0.7676 0.81721 0.53024 0.0
H842 H 0.78966 0.78211 0.55701 0.0
H843 H 0.76924 0.85768 0.55728 0.0
C844 C 0.75132 0.8785 0.60972 0.0
N845 N 0.74696 0.85386 0.6082 0.0
C846 C 0.73304 0.894 0.6151 0.0
C847 C 0.70608 0.85851 0.61741 0.0
C848 C 0.72502 0.84359 0.6121 0.0
C849 C 0.70998 0.88408 0.61883 0.0
H850 H 0.76902 0.88611 0.60665 0.0
H851 H 0.72214 0.82389 0.61107 0.0
O852 O 0.81932 0.80735 0.58447 0.0
O853 O 0.80051 0.8243 0.61297 0.0
O854 O 0.79101 0.85651 0.58612 0.0
O855 O 0.76441 0.80447 0.5901 0.0
H856 H 0.84846 0.78337 0.6022 0.0
H857 H 0.83603 0.80029 0.55887 0.0
H858 H 0.88454 0.75769 0.59533 0.0
H859 H 0.8725 0.77453 0.55277 0.0
H860 H 0.7419 0.81099 0.64614 0.0
H861 H 0.80966 0.86377 0.62857 0.0
H862 H 0.76399 0.79885 0.6245 0.0
H863 H 0.78658 0.87495 0.65003 0.0
H864 H 0.90881 0.84882 0.6011 0.0
H865 H 0.86327 0.90788 0.61737 0.0
H866 H 0.81406 0.70637 0.59604 0.0
H867 H 0.81946 0.73886 0.63715 0.0
H868 H 0.7773 0.90247 0.58103 0.0
H869 H 0.8301 0.84591 0.57023 0.0
H870 H 0.7978 0.93067 0.56415 0.0
H871 H 0.8496 0.87501 0.5536 0.0
H872 H 0.74043 0.83948 0.57621 0.0
H873 H 0.73351 0.76793 0.59558 0.0
H874 H 0.696 0.83746 0.56966 0.0
H875 H 0.68909 0.76727 0.58885 0.0
H876 H 0.77821 0.77863 0.53205 0.0
H877 H 0.758 0.85598 0.53251 0.0
H878 H 0.7367 0.91365 0.61606 0.0
H879 H 0.68864 0.85017 0.62041 0.0
Li880 Li 0.90579 0.06514 0.34591 0.0
Li881 Li 0.94592 0.04906 0.35044 0.0
Li882 Li 0.92418 0.03942 0.32789 0.0
Li883 Li 0.90895 0.02167 0.3504 0.0
C884 C 0.94498 0.09534 0.33661 0.0
N885 N 0.96184 0.14323 0.34 0.0
C886 C 0.94537 0.10611 0.34986 0.0
C887 C 0.95308 0.10892 0.32508 0.0
C888 C 0.95402 0.13034 0.35136 0.0
C889 C 0.96154 0.13312 0.327 0.0
C890 C 0.92304 0.03931 0.37602 0.0
C891 C 0.94407 0.00845 0.38983 0.0
N892 N 0.9356 0.01951 0.40165 0.0
C893 C 0.91449 0.05032 0.3883 0.0
C894 C 0.93791 0.01815 0.37678 0.0
C895 C 0.92107 0.04005 0.40116 0.0
C896 C 0.87183 0.09157 0.36183 0.0
N897 N 0.88524 0.09308 0.34987 0.0
C898 C 0.87179 0.13476 0.34624 0.0
C899 C 0.88509 0.11393 0.34191 0.0
C900 C 0.85842 0.13398 0.35881 0.0
C901 C 0.85822 0.11187 0.36651 0.0
H902 H 0.87215 0.07468 0.36789 0.0
H903 H 0.89586 0.11463 0.33241 0.0
C904 C 0.9984 0.05435 0.35061 0.0
N905 N 0.97762 0.05667 0.35851 0.0
C906 C 0.02135 0.06221 0.35579 0.0
C907 C 0.00115 0.07404 0.37724 0.0
C908 C 0.97865 0.06639 0.37158 0.0
C909 C 0.0229 0.07232 0.36929 0.0
H910 H 0.99701 0.04712 0.34011 0.0
H911 H 0.96193 0.06907 0.37753 0.0
C912 C 0.86897 0.04986 0.33138 0.0
N913 N 0.82715 0.07646 0.32426 0.0
C914 C 0.84715 0.04697 0.33903 0.0
C915 C 0.86951 0.0662 0.32007 0.0
C916 C 0.8262 0.06061 0.33528 0.0
C917 C 0.84817 0.07948 0.31664 0.0
C918 C 0.95237 0.9951 0.33715 0.0
C919 C 0.94098 0.98015 0.32713 0.0
C920 C 0.9749 0.98779 0.343 0.0
C921 C 0.95236 0.95802 0.32315 0.0
C922 C 0.98566 0.9655 0.33877 0.0
N923 N 0.97426 0.95121 0.329 0.0
C924 C 0.94951 0.03387 0.30178 0.0
C925 C 0.90753 0.02108 0.30231 0.0
C926 C 0.95179 0.02577 0.28795 0.0
N927 N 0.92763 0.03126 0.30864 0.0
C928 C 0.90899 0.01278 0.28857 0.0
C929 C 0.93142 0.01473 0.28127 0.0
H930 H 0.96527 0.04181 0.30712 0.0
H931 H 0.89044 0.01895 0.30805 0.0
C932 C 0.87257 0.00057 0.36671 0.0
N933 N 0.89218 0.99432 0.35857 0.0
C934 C 0.85671 0.98234 0.37181 0.0
C935 C 0.88226 0.95134 0.36069 0.0
C936 C 0.89764 0.97025 0.35576 0.0
C937 C 0.86111 0.95743 0.36847 0.0
H938 H 0.86885 0.01987 0.36889 0.0
H939 H 0.91342 0.96567 0.34939 0.0
O940 O 0.93612 0.07185 0.33479 0.0
O941 O 0.91657 0.0492 0.36339 0.0
O942 O 0.88992 0.03732 0.33514 0.0
O943 O 0.94177 0.01698 0.34112 0.0
H944 H 0.93877 0.09599 0.35886 0.0
H945 H 0.9527 0.10086 0.31474 0.0
H946 H 0.9544 0.13893 0.36155 0.0
H947 H 0.96782 0.14387 0.31817 0.0
H948 H 0.95557 0.99211 0.39056 0.0
H949 H 0.90295 0.06669 0.38791 0.0
H950 H 0.94466 0.00928 0.36744 0.0
H951 H 0.91463 0.04843 0.41074 0.0
H952 H 0.87274 0.15157 0.3401 0.0
H953 H 0.848 0.11045 0.3762 0.0
H954 H 0.03746 0.0612 0.34911 0.0
H955 H 0.0014 0.08173 0.38768 0.0
H956 H 0.84642 0.03445 0.34782 0.0
H957 H 0.88636 0.06887 0.31414 0.0
H958 H 0.80921 0.05864 0.34115 0.0
H959 H 0.84836 0.0923 0.30797 0.0
H960 H 0.9234 0.98539 0.32262 0.0
H961 H 0.98395 0.99918 0.35077 0.0
H962 H 0.94373 0.94622 0.31543 0.0
H963 H 0.00307 0.95957 0.34324 0.0
H964 H 0.9694 0.02763 0.28265 0.0
H965 H 0.89269 0.00491 0.2837 0.0
H966 H 0.84087 0.98767 0.37805 0.0
H967 H 0.88628 0.93229 0.35798 0.0
Li968 Li 0.68448 0.16154 0.09489 0.0
Li969 Li 0.70188 0.20155 0.09998 0.0
Li970 Li 0.7109 0.17898 0.07694 0.0
Li971 Li 0.72747 0.16363 0.09984 0.0
C972 C 0.65562 0.19543 0.08021 0.0
N973 N 0.60683 0.20057 0.07211 0.0
C974 C 0.63757 0.20181 0.09001 0.0
C975 C 0.64894 0.19188 0.06626 0.0
C976 C 0.61298 0.20424 0.08571 0.0
C977 C 0.62415 0.19453 0.06238 0.0
C978 C 0.70802 0.17926 0.12554 0.0
C979 C 0.73648 0.20202 0.1401 0.0
N980 N 0.72405 0.19413 0.15161 0.0
C981 C 0.69542 0.17154 0.13751 0.0
C982 C 0.7286 0.19477 0.12684 0.0
C983 C 0.70386 0.17919 0.1506 0.0
C984 C 0.65634 0.12952 0.11113 0.0
N985 N 0.65578 0.14147 0.09865 0.0
C986 C 0.61478 0.12656 0.09431 0.0
C987 C 0.63584 0.13953 0.09003 0.0
C988 C 0.61461 0.1149 0.10739 0.0
C989 C 0.63589 0.116 0.11572 0.0
H990 H 0.67262 0.1308 0.11764 0.0
H991 H 0.63606 0.14826 0.07991 0.0
C992 C 0.70634 0.25398 0.10442 0.0
N993 N 0.69506 0.23264 0.10845 0.0
C994 C 0.69976 0.27649 0.11064 0.0
C995 C 0.6704 0.25447 0.12508 0.0
C996 C 0.67747 0.23251 0.11858 0.0
C997 C 0.68154 0.27686 0.12112 0.0
H998 H 0.72016 0.25354 0.09625 0.0
H999 H 0.6686 0.21531 0.12147 0.0
C1000 C 0.70119 0.12227 0.0831 0.0
N1001 N 0.67826 0.07674 0.08088 0.0
C1002 C 0.70581 0.10385 0.093 0.0
C1003 C 0.68498 0.11755 0.07205 0.0
C1004 C 0.69401 0.08094 0.09169 0.0
C1005 C 0.67356 0.0944 0.07111 0.0
C1006 C 0.75872 0.20075 0.08807 0.0
C1007 C 0.77147 0.18803 0.07761 0.0
C1008 C 0.77111 0.2186 0.096 0.0
C1009 C 0.79656 0.19298 0.07545 0.0
C1010 C 0.79621 0.22303 0.09352 0.0
N1011 N 0.80832 0.21022 0.0834 0.0
C1012 C 0.71994 0.20538 0.05168 0.0
C1013 C 0.72417 0.16176 0.05036 0.0
C1014 C 0.72749 0.20784 0.03778 0.0
N1015 N 0.71852 0.18258 0.05765 0.0
C1016 C 0.73169 0.16335 0.03647 0.0
C1017 C 0.73358 0.18661 0.03001 0.0
H1018 H 0.71573 0.22165 0.05782 0.0
H1019 H 0.72337 0.14391 0.05544 0.0
C1020 C 0.75832 0.14052 0.12097 0.0
N1021 N 0.75521 0.14555 0.10716 0.0
C1022 C 0.77779 0.12545 0.12542 0.0
C1023 C 0.79018 0.12032 0.1014 0.0
C1024 C 0.77055 0.13557 0.09742 0.0
C1025 C 0.79397 0.11512 0.11556 0.0
H1026 H 0.74534 0.14733 0.12857 0.0
H1027 H 0.76704 0.13878 0.08648 0.0
O1028 O 0.6798 0.19305 0.08415 0.0
O1029 O 0.69946 0.17257 0.11264 0.0
O1030 O 0.71197 0.14503 0.08444 0.0
O1031 O 0.73406 0.19636 0.09026 0.0
H1032 H 0.64246 0.20458 0.10083 0.0
H1033 H 0.66275 0.18703 0.05855 0.0
H1034 H 0.59877 0.209 0.0932 0.0
H1035 H 0.61867 0.19175 0.05164 0.0
H1036 H 0.75245 0.21393 0.14124 0.0
H1037 H 0.67918 0.1599 0.13672 0.0
H1038 H 0.73843 0.20104 0.11773 0.0
H1039 H 0.6943 0.17332 0.15994 0.0
H1040 H 0.59872 0.12583 0.08756 0.0
H1041 H 0.63637 0.10725 0.12588 0.0
H1042 H 0.70864 0.29343 0.10725 0.0
H1043 H 0.65581 0.25402 0.13282 0.0
H1044 H 0.71817 0.1073 0.10167 0.0
H1045 H 0.68096 0.13175 0.06441 0.0
H1046 H 0.69731 0.06654 0.09931 0.0
H1047 H 0.66085 0.09052 0.06267 0.0
H1048 H 0.76216 0.17436 0.07127 0.0
H1049 H 0.76145 0.22906 0.10394 0.0
H1050 H 0.80668 0.18314 0.06745 0.0
H1051 H 0.80604 0.23673 0.09962 0.0
H1052 H 0.72917 0.22616 0.03329 0.0
H1053 H 0.73614 0.14652 0.03086 0.0
H1054 H 0.77959 0.12116 0.13641 0.0
H1055 H 0.80207 0.11238 0.09347 0.0
Li1056 Li 0.55148 0.04925 0.65267 0.0
Li1057 Li 0.59221 0.06609 0.6566 0.0
Li1058 Li 0.58889 0.02274 0.6525 0.0
Li1059 Li 0.57549 0.04091 0.67545 0.0
C1060 C 0.57236 0.04173 0.62665 0.0
N1061 N 0.55591 0.02589 0.60085 0.0
C1062 C 0.57874 0.05485 0.6146 0.0
C1063 C 0.55746 0.02068 0.62557 0.0
C1064 C 0.57028 0.04652 0.60166 0.0
C1065 C 0.54939 0.01291 0.61244 0.0
C1066 C 0.55938 0.09665 0.67089 0.0
C1067 C 0.56111 0.13044 0.68729 0.0
N1068 N 0.5547 0.14641 0.67693 0.0
C1069 C 0.55265 0.11334 0.66042 0.0
C1070 C 0.56354 0.10518 0.68445 0.0
C1071 C 0.55045 0.13846 0.66367 0.0
C1072 C 0.49853 0.04716 0.65037 0.0
N1073 N 0.51983 0.05622 0.64478 0.0
C1074 C 0.49709 0.0783 0.62738 0.0
C1075 C 0.51946 0.07161 0.63355 0.0
C1076 C 0.4748 0.06937 0.63292 0.0
C1077 C 0.4756 0.05368 0.6446 0.0
H1078 H 0.49934 0.03519 0.6594 0.0
H1079 H 0.53658 0.07908 0.62952 0.0
C1080 C 0.62414 0.09202 0.63925 0.0
N1081 N 0.61267 0.09405 0.65181 0.0
C1082 C 0.63761 0.11181 0.63379 0.0
C1083 C 0.62817 0.13527 0.65455 0.0
C1084 C 0.61524 0.1148 0.65973 0.0
C1085 C 0.63899 0.13417 0.64123 0.0
H1086 H 0.62257 0.07502 0.63337 0.0
H1087 H 0.60691 0.11575 0.66994 0.0
C1088 C 0.55046 0.99326 0.6648 0.0
N1089 N 0.53734 0.94433 0.66895 0.0
C1090 C 0.56241 0.97914 0.675 0.0
C1091 C 0.53147 0.98261 0.65691 0.0
C1092 C 0.55563 0.95441 0.67688 0.0
C1093 C 0.52521 0.95782 0.65911 0.0
C1094 C 0.63126 0.04982 0.66897 0.0
C1095 C 0.65021 0.0457 0.65933 0.0
C1096 C 0.63519 0.06576 0.68024 0.0
C1097 C 0.67287 0.05778 0.66109 0.0
C1098 C 0.65812 0.07748 0.68163 0.0
N1099 N 0.67631 0.0733 0.6721 0.0
C1100 C 0.61148 0.99123 0.6316 0.0
C1101 C 0.61544 0.97875 0.65518 0.0
C1102 C 0.62632 0.97151 0.62726 0.0
N1103 N 0.6061 0.99436 0.64537 0.0
C1104 C 0.63047 0.95887 0.65131 0.0
C1105 C 0.63611 0.95512 0.63719 0.0
H1106 H 0.60523 0.00448 0.62398 0.0
H1107 H 0.612 0.98229 0.66609 0.0
C1108 C 0.55278 0.03897 0.70245 0.0
N1109 N 0.57356 0.03415 0.69492 0.0
C1110 C 0.55158 0.03237 0.71656 0.0
C1111 C 0.59309 0.01598 0.71481 0.0
C1112 C 0.59354 0.02299 0.70081 0.0
C1113 C 0.57196 0.02071 0.72291 0.0
H1114 H 0.53708 0.0477 0.69745 0.0
H1115 H 0.60966 0.01899 0.69451 0.0
O1116 O 0.57983 0.05017 0.63944 0.0
O1117 O 0.56159 0.07201 0.66796 0.0
O1118 O 0.55669 0.0176 0.66289 0.0
O1119 O 0.60874 0.03878 0.6672 0.0
H1120 H 0.58993 0.07143 0.61525 0.0
H1121 H 0.5524 0.01036 0.63475 0.0
H1122 H 0.57507 0.0565 0.59225 0.0
H1123 H 0.53793 0.99657 0.61147 0.0
H1124 H 0.56436 0.13735 0.69772 0.0
H1125 H 0.54943 0.107 0.64987 0.0
H1126 H 0.56871 0.09244 0.69266 0.0
H1127 H 0.54541 0.15163 0.65566 0.0
H1128 H 0.49716 0.09091 0.61859 0.0
H1129 H 0.45871 0.04664 0.64922 0.0
H1130 H 0.64657 0.1097 0.62376 0.0
H1131 H 0.62903 0.15202 0.66074 0.0
H1132 H 0.57685 0.98715 0.68136 0.0
H1133 H 0.52152 0.99339 0.64922 0.0
H1134 H 0.56487 0.94324 0.68466 0.0
H1135 H 0.51063 0.94932 0.65302 0.0
H1136 H 0.64734 0.03349 0.65052 0.0
H1137 H 0.62058 0.06926 0.68771 0.0
H1138 H 0.68768 0.05489 0.65368 0.0
H1139 H 0.66141 0.08998 0.69025 0.0
H1140 H 0.63098 0.96973 0.61632 0.0
H1141 H 0.63801 0.94684 0.65929 0.0
H1142 H 0.53492 0.03632 0.72244 0.0
H1143 H 0.60894 0.00642 0.71915 0.0
Li1144 Li 0.72523 0.8355 0.40372 0.0
Li1145 Li 0.70765 0.82131 0.42609 0.0
Li1146 Li 0.69942 0.79908 0.40334 0.0
Li1147 Li 0.68035 0.83888 0.40799 0.0
C1148 C 0.75628 0.80114 0.4126 0.0
N1149 N 0.80721 0.79814 0.41058 0.0
C1150 C 0.77115 0.80776 0.42394 0.0
C1151 C 0.7673 0.79279 0.40028 0.0
C1152 C 0.79687 0.80616 0.4227 0.0
C1153 C 0.79309 0.79148 0.39945 0.0
C1154 C 0.70118 0.87965 0.41859 0.0
C1155 C 0.67608 0.91264 0.428 0.0
N1156 N 0.6861 0.92859 0.41859 0.0
C1157 C 0.71128 0.89643 0.40904 0.0
C1158 C 0.6835 0.88787 0.42819 0.0
C1159 C 0.70341 0.92107 0.4092 0.0
C1160 C 0.75475 0.85631 0.38219 0.0
N1161 N 0.75322 0.85208 0.39614 0.0
C1162 C 0.78898 0.87705 0.40031 0.0
C1163 C 0.76995 0.86188 0.40519 0.0
C1164 C 0.79044 0.88251 0.38604 0.0
C1165 C 0.7734 0.87152 0.37687 0.0
H1166 H 0.74091 0.84875 0.37526 0.0
H1167 H 0.76783 0.85879 0.41626 0.0
C1168 C 0.72101 0.79612 0.45117 0.0
N1169 N 0.71526 0.81845 0.44546 0.0
C1170 C 0.72956 0.79471 0.46494 0.0
C1171 C 0.72528 0.83912 0.46676 0.0
C1172 C 0.71704 0.8397 0.45297 0.0
C1173 C 0.73226 0.81649 0.47282 0.0
H1174 H 0.71975 0.77954 0.44488 0.0
H1175 H 0.71259 0.85722 0.44815 0.0
C1176 C 0.69182 0.81858 0.37826 0.0
N1177 N 0.67931 0.7973 0.35301 0.0
C1178 C 0.66772 0.82081 0.37308 0.0
C1179 C 0.70959 0.80571 0.37054 0.0
C1180 C 0.66176 0.80989 0.36031 0.0
C1181 C 0.70289 0.79502 0.35782 0.0
C1182 C 0.65604 0.80513 0.42723 0.0
C1183 C 0.63824 0.78693 0.42458 0.0
C1184 C 0.65335 0.82067 0.43877 0.0
C1185 C 0.61784 0.78481 0.43346 0.0
C1186 C 0.63271 0.81796 0.44742 0.0
N1187 N 0.61551 0.80025 0.44459 0.0
C1188 C 0.70891 0.74934 0.39372 0.0
C1189 C 0.66872 0.76555 0.38978 0.0
C1190 C 0.70228 0.72702 0.38728 0.0
N1191 N 0.69212 0.76801 0.39481 0.0
C1192 C 0.66145 0.74382 0.38311 0.0
C1193 C 0.67826 0.72418 0.38188 0.0
H1194 H 0.72736 0.75172 0.39789 0.0
H1195 H 0.65566 0.78058 0.39097 0.0
C1196 C 0.6556 0.8775 0.39442 0.0
N1197 N 0.65172 0.85852 0.40349 0.0
C1198 C 0.63574 0.89133 0.38931 0.0
C1199 C 0.60802 0.86571 0.40278 0.0
C1200 C 0.62847 0.8526 0.40781 0.0
C1201 C 0.61147 0.88511 0.39321 0.0
H1202 H 0.67413 0.88141 0.39079 0.0
H1203 H 0.62552 0.83719 0.41473 0.0
O1204 O 0.73108 0.80291 0.41354 0.0
O1205 O 0.70842 0.85532 0.41849 0.0
O1206 O 0.69793 0.8288 0.39086 0.0
O1207 O 0.67607 0.80747 0.41861 0.0
H1208 H 0.76295 0.81434 0.43354 0.0
H1209 H 0.75607 0.7875 0.39144 0.0
H1210 H 0.80861 0.81136 0.43136 0.0
H1211 H 0.80187 0.78516 0.38996 0.0
H1212 H 0.66234 0.91918 0.43533 0.0
H1213 H 0.72476 0.89053 0.40144 0.0
H1214 H 0.67543 0.87528 0.43566 0.0
H1215 H 0.71098 0.93418 0.40182 0.0
H1216 H 0.80166 0.88543 0.40769 0.0
H1217 H 0.77409 0.87523 0.36578 0.0
H1218 H 0.73475 0.77689 0.46923 0.0
H1219 H 0.72646 0.85628 0.47256 0.0
H1220 H 0.65368 0.83059 0.37892 0.0
H1221 H 0.72831 0.80382 0.37438 0.0
H1222 H 0.64315 0.81134 0.35621 0.0
H1223 H 0.71642 0.78487 0.35178 0.0
H1224 H 0.64012 0.77461 0.41575 0.0
H1225 H 0.66703 0.83465 0.44105 0.0
H1226 H 0.60387 0.77089 0.43151 0.0
H1227 H 0.63037 0.82991 0.45637 0.0
H1228 H 0.71571 0.7122 0.3865 0.0
H1229 H 0.6427 0.74216 0.37921 0.0
H1230 H 0.63937 0.90646 0.38219 0.0
H1231 H 0.58963 0.8601 0.40598 0.0
Li1232 Li 0.91582 0.98011 0.15365 0.0
Li1233 Li 0.92884 0.96308 0.17555 0.0
Li1234 Li 0.95423 0.95582 0.15367 0.0
Li1235 Li 0.91334 0.93535 0.15757 0.0
C1236 C 0.95738 0.00967 0.16008 0.0
N1237 N 0.97836 0.05457 0.15286 0.0
C1238 C 0.95391 0.03045 0.16856 0.0
C1239 C 0.9717 0.01172 0.14798 0.0
C1240 C 0.9646 0.05299 0.16471 0.0
C1241 C 0.98211 0.03458 0.1445 0.0
C1242 C 0.87986 0.96613 0.17816 0.0
C1243 C 0.8582 0.95184 0.19863 0.0
N1244 N 0.84956 0.97518 0.20081 0.0
C1245 C 0.87063 0.98993 0.18055 0.0
C1246 C 0.87348 0.94688 0.18721 0.0
C1247 C 0.85539 0.99414 0.19207 0.0
C1248 C 0.87275 0.00156 0.14375 0.0
N1249 N 0.89731 0.00653 0.14518 0.0
C1250 C 0.89148 0.04701 0.13557 0.0
C1251 C 0.90693 0.02861 0.14098 0.0
C1252 C 0.866 0.04249 0.13433 0.0
C1253 C 0.85671 0.0193 0.13828 0.0
H1254 H 0.86557 0.9838 0.14702 0.0
H1255 H 0.92646 0.03215 0.14182 0.0
C1256 C 0.94017 0.95362 0.20434 0.0
N1257 N 0.93075 0.9702 0.19507 0.0
C1258 C 0.94158 0.9596 0.21853 0.0
C1259 C 0.92374 0.99956 0.21332 0.0
C1260 C 0.9228 0.99288 0.19928 0.0
C1261 C 0.93314 0.98281 0.22318 0.0
H1262 H 0.94677 0.93586 0.2007 0.0
H1263 H 0.91559 0.0058 0.1917 0.0
C1264 C 0.91529 0.96037 0.12868 0.0
N1265 N 0.89265 0.97742 0.10469 0.0
C1266 C 0.8918 0.95173 0.12497 0.0
C1267 C 0.92733 0.97757 0.12015 0.0
C1268 C 0.88066 0.96059 0.1128 0.0
C1269 C 0.91555 0.986 0.10808 0.0
C1270 C 0.94648 0.90719 0.17106 0.0
C1271 C 0.96355 0.89315 0.16348 0.0
C1272 C 0.93124 0.89559 0.18085 0.0
C1273 C 0.96484 0.86762 0.1657 0.0
C1274 C 0.93307 0.87001 0.18276 0.0
N1275 N 0.94968 0.85667 0.1752 0.0
C1276 C 0.0066 0.94988 0.15396 0.0
C1277 C 0.98696 0.94306 0.13217 0.0
C1278 C 0.02944 0.94274 0.14838 0.0
N1279 N 0.98597 0.94967 0.14584 0.0
C1280 C 0.00938 0.93595 0.12616 0.0
C1281 C 0.03095 0.93549 0.13433 0.0
H1282 H 0.00515 0.95491 0.16485 0.0
H1283 H 0.97017 0.94258 0.12604 0.0
C1284 C 0.87151 0.90257 0.15554 0.0
N1285 N 0.89592 0.90591 0.15261 0.0
C1286 C 0.85883 0.88205 0.15015 0.0
C1287 C 0.89684 0.86862 0.13923 0.0
C1288 C 0.90862 0.88947 0.14462 0.0
C1289 C 0.87145 0.86499 0.14165 0.0
H1290 H 0.86167 0.91625 0.16162 0.0
H1291 H 0.92783 0.89294 0.14213 0.0
O1292 O 0.94734 0.98737 0.16381 0.0
O1293 O 0.89502 0.96168 0.16701 0.0
O1294 O 0.92619 0.95248 0.14076 0.0
O1295 O 0.94474 0.93216 0.16892 0.0
H1296 H 0.94306 0.02924 0.178 0.0
H1297 H 0.97458 0.99596 0.14126 0.0
H1298 H 0.96198 0.06922 0.17115 0.0
H1299 H 0.99313 0.03643 0.13514 0.0
H1300 H 0.8532 0.93714 0.20575 0.0
H1301 H 0.87549 0.00509 0.1737 0.0
H1302 H 0.88027 0.92832 0.18545 0.0
H1303 H 0.84826 0.01251 0.1941 0.0
H1304 H 0.89935 0.06455 0.13236 0.0
H1305 H 0.83715 0.01514 0.13744 0.0
H1306 H 0.94948 0.94634 0.22574 0.0
H1307 H 0.91694 0.01758 0.21645 0.0
H1308 H 0.88214 0.93856 0.13149 0.0
H1309 H 0.94546 0.98451 0.12289 0.0
H1310 H 0.86243 0.95417 0.10984 0.0
H1311 H 0.92458 0.99941 0.10143 0.0
H1312 H 0.97552 0.90182 0.15587 0.0
H1313 H 0.91809 0.90621 0.18689 0.0
H1314 H 0.97785 0.8565 0.15984 0.0
H1315 H 0.92129 0.86077 0.19026 0.0
H1316 H 0.04567 0.94248 0.15502 0.0
H1317 H 0.00965 0.9299 0.11539 0.0
H1318 H 0.83924 0.87998 0.15224 0.0
H1319 H 0.90746 0.85564 0.13304 0.0
Li1320 Li 0.7704 0.16459 0.90313 0.0
Li1321 Li 0.78837 0.18 0.92513 0.0
Li1322 Li 0.79586 0.20108 0.90204 0.0
Li1323 Li 0.81527 0.16183 0.90707 0.0
C1324 C 0.73914 0.19828 0.91207 0.0
N1325 N 0.68803 0.19874 0.91094 0.0
C1326 C 0.72526 0.19069 0.9236 0.0
C1327 C 0.72704 0.20631 0.9 0.0
C1328 C 0.69943 0.19101 0.92282 0.0
C1329 C 0.70118 0.20634 0.89962 0.0
C1330 C 0.79579 0.1217 0.91826 0.0
C1331 C 0.82076 0.08933 0.92841 0.0
N1332 N 0.81298 0.07349 0.9183 0.0
C1333 C 0.78802 0.10507 0.90798 0.0
C1334 C 0.81225 0.11375 0.92859 0.0
C1335 C 0.79691 0.08078 0.90818 0.0
C1336 C 0.7379 0.14443 0.88248 0.0
N1337 N 0.74219 0.14722 0.89636 0.0
C1338 C 0.70812 0.12077 0.9019 0.0
C1339 C 0.72773 0.13588 0.90605 0.0
C1340 C 0.70344 0.11723 0.88764 0.0
C1341 C 0.71845 0.12947 0.87786 0.0
H1342 H 0.75007 0.15309 0.87499 0.0
H1343 H 0.73193 0.13802 0.91701 0.0
C1344 C 0.77899 0.2065 0.95036 0.0
N1345 N 0.78148 0.18369 0.94452 0.0
C1346 C 0.77203 0.20882 0.96436 0.0
C1347 C 0.77077 0.16418 0.96605 0.0
C1348 C 0.77753 0.16272 0.95203 0.0
C1349 C 0.76767 0.18743 0.97234 0.0
H1350 H 0.78203 0.22285 0.94407 0.0
H1351 H 0.77922 0.14485 0.94707 0.0
C1352 C 0.80228 0.18126 0.87716 0.0
N1353 N 0.81278 0.20312 0.85177 0.0
C1354 C 0.82606 0.17952 0.87147 0.0
C1355 C 0.78382 0.19397 0.86987 0.0
C1356 C 0.83099 0.19071 0.85863 0.0
C1357 C 0.7895 0.20495 0.85708 0.0
C1358 C 0.83997 0.19591 0.9257 0.0
C1359 C 0.85847 0.21308 0.92246 0.0
C1360 C 0.84211 0.18148 0.93774 0.0
C1361 C 0.87897 0.21531 0.93126 0.0
C1362 C 0.86288 0.18429 0.94628 0.0
N1363 N 0.88074 0.20099 0.94289 0.0
C1364 C 0.78605 0.25042 0.89166 0.0
C1365 C 0.82627 0.23408 0.88803 0.0
C1366 C 0.79266 0.27239 0.88484 0.0
N1367 N 0.80287 0.23184 0.89307 0.0
C1368 C 0.8335 0.25543 0.88098 0.0
C1369 C 0.8166 0.27488 0.87929 0.0
H1370 H 0.76761 0.24823 0.89588 0.0
H1371 H 0.83935 0.21915 0.88949 0.0
C1372 C 0.84055 0.1251 0.89238 0.0
N1373 N 0.84374 0.14174 0.90288 0.0
C1374 C 0.86037 0.11078 0.88766 0.0
C1375 C 0.88651 0.13071 0.90473 0.0
C1376 C 0.86615 0.14458 0.90915 0.0
C1377 C 0.8838 0.11365 0.89378 0.0
H1378 H 0.82266 0.12342 0.88739 0.0
H1379 H 0.8686 0.15799 0.91733 0.0
O1380 O 0.76443 0.19759 0.91253 0.0
O1381 O 0.78776 0.14574 0.91805 0.0
O1382 O 0.79721 0.17087 0.88986 0.0
O1383 O 0.8197 0.19366 0.91724 0.0
H1384 H 0.73431 0.18435 0.93301 0.0
H1385 H 0.73749 0.21235 0.89101 0.0
H1386 H 0.68846 0.18505 0.93164 0.0
H1387 H 0.69157 0.21238 0.89033 0.0
H1388 H 0.83358 0.08298 0.93631 0.0
H1389 H 0.77558 0.11089 0.89978 0.0
H1390 H 0.81854 0.12631 0.93662 0.0
H1391 H 0.79114 0.06777 0.90024 0.0
H1392 H 0.69703 0.11155 0.90975 0.0
H1393 H 0.71584 0.12669 0.86677 0.0
H1394 H 0.77006 0.22707 0.9689 0.0
H1395 H 0.76738 0.14728 0.97183 0.0
H1396 H 0.84067 0.16999 0.877 0.0
H1397 H 0.76538 0.19563 0.87414 0.0
H1398 H 0.84935 0.18965 0.85416 0.0
H1399 H 0.77542 0.215 0.85138 0.0
H1400 H 0.85703 0.22457 0.91326 0.0
H1401 H 0.82804 0.16813 0.94041 0.0
H1402 H 0.89346 0.22847 0.92886 0.0
H1403 H 0.86481 0.17316 0.9556 0.0
H1404 H 0.77925 0.2872 0.88384 0.0
H1405 H 0.85229 0.25692 0.87711 0.0
H1406 H 0.85749 0.09786 0.87918 0.0
H1407 H 0.90438 0.13396 0.90951 0.0
Li1408 Li 0.92781 0.53585 0.67362 0.0
Li1409 Li 0.95182 0.54435 0.65155 0.0
Li1410 Li 0.90883 0.56046 0.6547 0.0
Li1411 Li 0.91633 0.51686 0.65213 0.0
C1412 C 0.94737 0.58617 0.67414 0.0
N1413 N 0.96511 0.62275 0.69161 0.0
C1414 C 0.97248 0.5869 0.67762 0.0
C1415 C 0.93134 0.60423 0.67937 0.0
C1416 C 0.98108 0.60551 0.68651 0.0
C1417 C 0.94065 0.62251 0.68825 0.0
C1418 C 0.95365 0.48939 0.65816 0.0
C1419 C 0.96836 0.46057 0.64085 0.0
N1420 N 0.96161 0.44143 0.64926 0.0
C1421 C 0.94696 0.46948 0.66667 0.0
C1422 C 0.96452 0.48497 0.64517 0.0
C1423 C 0.9511 0.44535 0.66196 0.0
C1424 C 0.91602 0.50903 0.69706 0.0
N1425 N 0.92908 0.52942 0.69321 0.0
C1426 C 0.94142 0.53638 0.71686 0.0
C1427 C 0.94175 0.5431 0.70276 0.0
C1428 C 0.9279 0.51546 0.72112 0.0
C1429 C 0.91528 0.50161 0.71098 0.0
H1430 H 0.90622 0.49844 0.68924 0.0
H1431 H 0.95208 0.55917 0.6995 0.0
C1432 C 0.98105 0.57033 0.63296 0.0
N1433 N 0.98251 0.55376 0.64359 0.0
C1434 C 0.00253 0.57998 0.62701 0.0
C1435 C 0.02675 0.55502 0.64289 0.0
C1436 C 0.00471 0.54575 0.64854 0.0
C1437 C 0.02576 0.57272 0.63215 0.0
H1438 H 0.9631 0.57637 0.62928 0.0
H1439 H 0.00526 0.53264 0.65706 0.0
C1440 C 0.87459 0.54002 0.67356 0.0
N1441 N 0.83454 0.55444 0.68952 0.0
C1442 C 0.85131 0.52948 0.67126 0.0
C1443 C 0.87754 0.55781 0.68401 0.0
C1444 C 0.83128 0.53706 0.67942 0.0
C1445 C 0.85705 0.56486 0.69196 0.0
C1446 C 0.90725 0.54256 0.62738 0.0
C1447 C 0.882 0.53894 0.62985 0.0
C1448 C 0.91575 0.54554 0.61372 0.0
C1449 C 0.86564 0.5384 0.61857 0.0
C1450 C 0.89879 0.54487 0.60272 0.0
N1451 N 0.8743 0.54134 0.60536 0.0
C1452 C 0.90263 0.6071 0.6435 0.0
C1453 C 0.86437 0.58978 0.65066 0.0
C1454 C 0.89064 0.62807 0.63835 0.0
N1455 N 0.88944 0.58849 0.64948 0.0
C1456 C 0.8516 0.61055 0.6457 0.0
C1457 C 0.86476 0.62994 0.63933 0.0
H1458 H 0.92251 0.6054 0.64255 0.0
H1459 H 0.85418 0.57464 0.65523 0.0
C1460 C 0.88691 0.47549 0.65482 0.0
N1461 N 0.90151 0.48726 0.64539 0.0
C1462 C 0.87211 0.45568 0.65072 0.0
C1463 C 0.88857 0.45957 0.62737 0.0
C1464 C 0.90314 0.47939 0.63194 0.0
C1465 C 0.87237 0.44791 0.63677 0.0
H1466 H 0.8861 0.48212 0.66545 0.0
H1467 H 0.91493 0.48913 0.62466 0.0
O1468 O 0.93864 0.56821 0.66539 0.0
O1469 O 0.94903 0.51313 0.66235 0.0
O1470 O 0.89429 0.53277 0.6656 0.0
O1471 O 0.92372 0.54299 0.63821 0.0
H1472 H 0.98514 0.57313 0.67358 0.0
H1473 H 0.91192 0.6042 0.67657 0.0
H1474 H 0.00044 0.60624 0.68936 0.0
H1475 H 0.92843 0.63654 0.69243 0.0
H1476 H 0.97663 0.45684 0.63079 0.0
H1477 H 0.93847 0.47261 0.67673 0.0
H1478 H 0.96963 0.50022 0.63844 0.0
H1479 H 0.94589 0.42974 0.66839 0.0
H1480 H 0.95141 0.54753 0.72437 0.0
H1481 H 0.90514 0.48501 0.71374 0.0
H1482 H 0.00097 0.59317 0.61854 0.0
H1483 H 0.04433 0.54899 0.64713 0.0
H1484 H 0.84874 0.51571 0.66319 0.0
H1485 H 0.89543 0.56599 0.68599 0.0
H1486 H 0.81313 0.52913 0.67772 0.0
H1487 H 0.85906 0.57861 0.70009 0.0
H1488 H 0.87508 0.53644 0.64033 0.0
H1489 H 0.93526 0.54828 0.61165 0.0
H1490 H 0.84605 0.5356 0.62033 0.0
H1491 H 0.90511 0.54712 0.59209 0.0
H1492 H 0.90148 0.64251 0.63344 0.0
H1493 H 0.83169 0.61143 0.64691 0.0
H1494 H 0.85994 0.44706 0.65827 0.0
H1495 H 0.88901 0.45431 0.61647 0.0
Li1496 Li 0.70377 0.70058 0.90311 0.0
Li1497 Li 0.71231 0.67604 0.92511 0.0
Li1498 Li 0.7291 0.66367 0.90323 0.0
Li1499 Li 0.6857 0.65733 0.90669 0.0
C1500 C 0.75942 0.70229 0.91185 0.0
N1501 N 0.80841 0.71638 0.90937 0.0
C1502 C 0.77725 0.6925 0.92085 0.0
C1503 C 0.7665 0.71929 0.90159 0.0
C1504 C 0.80194 0.69982 0.91941 0.0
C1505 C 0.79136 0.72619 0.90051 0.0
C1506 C 0.66507 0.70308 0.92538 0.0
C1507 C 0.62745 0.71013 0.93833 0.0
N1508 N 0.63482 0.73379 0.94088 0.0
C1509 C 0.67225 0.72747 0.9281 0.0
C1510 C 0.64246 0.69434 0.93048 0.0
C1511 C 0.6567 0.7427 0.93597 0.0
C1512 C 0.67471 0.73139 0.8869 0.0
N1513 N 0.69502 0.73176 0.89526 0.0
C1514 C 0.69936 0.77545 0.892 0.0
C1515 C 0.70731 0.7532 0.89798 0.0
C1516 C 0.67822 0.77569 0.88342 0.0
C1517 C 0.66592 0.75321 0.88089 0.0
H1518 H 0.66516 0.71409 0.88506 0.0
H1519 H 0.72311 0.7531 0.9049 0.0
C1520 C 0.73764 0.66176 0.94905 0.0
N1521 N 0.71951 0.67745 0.94472 0.0
C1522 C 0.74566 0.66196 0.96289 0.0
C1523 C 0.71574 0.69403 0.96778 0.0
C1524 C 0.70835 0.69328 0.9538 0.0
C1525 C 0.7349 0.67849 0.97241 0.0
H1526 H 0.74612 0.64922 0.94166 0.0
H1527 H 0.69395 0.70554 0.95024 0.0
C1528 C 0.71279 0.66569 0.87787 0.0
N1529 N 0.73661 0.65194 0.85361 0.0
C1530 C 0.70943 0.64193 0.87244 0.0
C1531 C 0.72807 0.68255 0.87094 0.0
C1532 C 0.72169 0.63531 0.86016 0.0
C1533 C 0.74 0.67522 0.85869 0.0
C1534 C 0.70375 0.62545 0.92669 0.0
C1535 C 0.71505 0.60243 0.92865 0.0
C1536 C 0.68279 0.63161 0.93449 0.0
C1537 C 0.70509 0.58588 0.93835 0.0
C1538 C 0.6734 0.61458 0.9441 0.0
N1539 N 0.68464 0.59225 0.9458 0.0
C1540 C 0.77766 0.65694 0.8898 0.0
C1541 C 0.75358 0.62145 0.89487 0.0
C1542 C 0.79702 0.64209 0.88491 0.0
N1543 N 0.75669 0.64642 0.89499 0.0
C1544 C 0.77222 0.60596 0.88989 0.0
C1545 C 0.79446 0.6162 0.88499 0.0
H1546 H 0.77958 0.67675 0.88948 0.0
H1547 H 0.73648 0.61351 0.89864 0.0
C1548 C 0.63617 0.65076 0.89933 0.0
N1549 N 0.65736 0.63816 0.90214 0.0
C1550 C 0.61521 0.6382 0.89459 0.0
C1551 C 0.63819 0.59985 0.89582 0.0
C1552 C 0.65875 0.61318 0.90056 0.0
C1553 C 0.61616 0.61246 0.89258 0.0
H1554 H 0.63578 0.67069 0.90044 0.0
H1555 H 0.67598 0.60368 0.90268 0.0
O1556 O 0.73507 0.69586 0.91332 0.0
O1557 O 0.67979 0.68797 0.9175 0.0
O1558 O 0.70158 0.67227 0.89009 0.0
O1559 O 0.7134 0.64177 0.91721 0.0
H1560 H 0.77214 0.67938 0.92885 0.0
H1561 H 0.75306 0.72676 0.89438 0.0
H1562 H 0.81594 0.69235 0.9263 0.0
H1563 H 0.79711 0.73924 0.89259 0.0
H1564 H 0.60993 0.7036 0.94237 0.0
H1565 H 0.6898 0.73443 0.92436 0.0
H1566 H 0.63654 0.67555 0.92839 0.0
H1567 H 0.66206 0.76158 0.93821 0.0
H1568 H 0.70971 0.79223 0.89404 0.0
H1569 H 0.64941 0.75253 0.87449 0.0
H1570 H 0.7601 0.64927 0.96611 0.0
H1571 H 0.70692 0.70696 0.97484 0.0
H1572 H 0.69771 0.62867 0.87774 0.0
H1573 H 0.73086 0.701 0.87507 0.0
H1574 H 0.7194 0.61693 0.85587 0.0
H1575 H 0.75202 0.688 0.85325 0.0
H1576 H 0.73139 0.59739 0.92277 0.0
H1577 H 0.67387 0.64933 0.9332 0.0
H1578 H 0.71363 0.56799 0.93995 0.0
H1579 H 0.65719 0.61912 0.9502 0.0
H1580 H 0.81392 0.65081 0.88136 0.0
H1581 H 0.76923 0.58613 0.88988 0.0
H1582 H 0.59865 0.64863 0.89211 0.0
H1583 H 0.63955 0.57996 0.89462 0.0
Li1584 Li 0.57306 0.46378 0.1741 0.0
Li1585 Li 0.54984 0.45404 0.15203 0.0
Li1586 Li 0.5917 0.43645 0.15653 0.0
Li1587 Li 0.58644 0.48007 0.15222 0.0
C1588 C 0.56423 0.41281 0.17717 0.0
N1589 N 0.57157 0.37651 0.19704 0.0
C1590 C 0.54655 0.39425 0.17909 0.0
C1591 C 0.58568 0.41291 0.18534 0.0
C1592 C 0.55059 0.37606 0.1892 0.0
C1593 C 0.58904 0.3944 0.19533 0.0
C1594 C 0.55142 0.5109 0.15899 0.0
C1595 C 0.5389 0.54414 0.14376 0.0
N1596 N 0.54814 0.56083 0.15302 0.0
C1597 C 0.56056 0.52837 0.16843 0.0
C1598 C 0.5403 0.51881 0.14661 0.0
C1599 C 0.55881 0.55353 0.1652 0.0
C1600 C 0.58733 0.48704 0.19875 0.0
N1601 N 0.57025 0.4712 0.19339 0.0
C1602 C 0.54977 0.46851 0.21544 0.0
C1603 C 0.55165 0.46188 0.20138 0.0
C1604 C 0.56712 0.48496 0.22123 0.0
C1605 C 0.58605 0.49429 0.2127 0.0
H1606 H 0.60181 0.49427 0.1921 0.0
H1607 H 0.53819 0.44948 0.19679 0.0
C1608 C 0.51963 0.42659 0.13448 0.0
N1609 N 0.51912 0.44558 0.14377 0.0
C1610 C 0.49787 0.41858 0.12809 0.0
C1611 C 0.47529 0.44953 0.14116 0.0
C1612 C 0.49762 0.45715 0.1472 0.0
C1613 C 0.47535 0.43007 0.13143 0.0
H1614 H 0.537 0.41756 0.13211 0.0
H1615 H 0.4978 0.4721 0.15472 0.0
C1616 C 0.63206 0.46503 0.1643 0.0
N1617 N 0.68237 0.46629 0.15918 0.0
C1618 C 0.64091 0.46403 0.15063 0.0
C1619 C 0.64878 0.46669 0.17538 0.0
C1620 C 0.66641 0.46471 0.14824 0.0
C1621 C 0.67416 0.46729 0.17258 0.0
C1622 C 0.5796 0.45494 0.12552 0.0
C1623 C 0.59983 0.44578 0.11803 0.0
C1624 C 0.56002 0.46618 0.11837 0.0
C1625 C 0.60034 0.44843 0.10354 0.0
C1626 C 0.56121 0.46845 0.10388 0.0
N1627 N 0.58119 0.45963 0.09682 0.0
C1628 C 0.6014 0.39385 0.14175 0.0
C1629 C 0.63204 0.40136 0.15895 0.0
C1630 C 0.61415 0.37305 0.13704 0.0
N1631 N 0.6106 0.40766 0.1524 0.0
C1632 C 0.64544 0.38059 0.15456 0.0
C1633 C 0.63653 0.36624 0.1434 0.0
H1634 H 0.58424 0.39926 0.1368 0.0
H1635 H 0.63891 0.41258 0.16745 0.0
C1636 C 0.61588 0.52226 0.15399 0.0
N1637 N 0.60263 0.50874 0.14463 0.0
C1638 C 0.63032 0.54217 0.14957 0.0
C1639 C 0.61678 0.53443 0.12596 0.0
C1640 C 0.60247 0.51473 0.13085 0.0
C1641 C 0.63115 0.54822 0.13536 0.0
H1642 H 0.61572 0.51713 0.1649 0.0
H1643 H 0.59171 0.50404 0.12357 0.0
O1644 O 0.56048 0.43072 0.16731 0.0
O1645 O 0.55362 0.48618 0.16178 0.0
O1646 O 0.60718 0.46432 0.16694 0.0
O1647 O 0.57859 0.45211 0.13969 0.0
H1648 H 0.52986 0.39393 0.17283 0.0
H1649 H 0.59958 0.42712 0.18401 0.0
H1650 H 0.53705 0.36158 0.19081 0.0
H1651 H 0.60554 0.39425 0.20173 0.0
H1652 H 0.53048 0.55052 0.13417 0.0
H1653 H 0.56918 0.52255 0.17807 0.0
H1654 H 0.5329 0.50554 0.13927 0.0
H1655 H 0.566 0.56726 0.17235 0.0
H1656 H 0.5347 0.46121 0.22166 0.0
H1657 H 0.59981 0.50693 0.2168 0.0
H1658 H 0.49856 0.40319 0.12086 0.0
H1659 H 0.45821 0.45871 0.14402 0.0
H1660 H 0.62825 0.4629 0.14195 0.0
H1661 H 0.6422 0.46742 0.18604 0.0
H1662 H 0.6735 0.46398 0.1377 0.0
H1663 H 0.68732 0.46853 0.18106 0.0
H1664 H 0.61496 0.43662 0.12332 0.0
H1665 H 0.54411 0.47316 0.12395 0.0
H1666 H 0.61592 0.4415 0.09762 0.0
H1667 H 0.54624 0.4772 0.09824 0.0
H1668 H 0.60653 0.36233 0.1285 0.0
H1669 H 0.66276 0.37609 0.15965 0.0
H1670 H 0.64145 0.55212 0.15712 0.0
H1671 H 0.61693 0.53864 0.11491 0.0
Li1672 Li 0.78612 0.32255 0.4237 0.0
Li1673 Li 0.79373 0.29995 0.40226 0.0
Li1674 Li 0.81411 0.34089 0.40569 0.0
Li1675 Li 0.77019 0.33719 0.4013 0.0
C1676 C 0.83024 0.29178 0.42399 0.0
N1677 N 0.85439 0.25539 0.43899 0.0
C1678 C 0.81671 0.27336 0.43079 0.0
C1679 C 0.85606 0.29185 0.42492 0.0
C1680 C 0.82924 0.25506 0.43828 0.0
C1681 C 0.86793 0.27326 0.43253 0.0
C1682 C 0.74929 0.28443 0.41085 0.0
C1683 C 0.72916 0.25217 0.39767 0.0
N1684 N 0.72543 0.23922 0.40965 0.0
C1685 C 0.74507 0.27091 0.42306 0.0
C1686 C 0.74109 0.27511 0.39806 0.0
C1687 C 0.73304 0.24806 0.42223 0.0
C1688 C 0.7543 0.3269 0.44606 0.0
N1689 N 0.77827 0.32146 0.44304 0.0
C1690 C 0.78756 0.31647 0.46726 0.0
C1691 C 0.79499 0.31651 0.45328 0.0
C1692 C 0.76291 0.32211 0.47064 0.0
C1693 C 0.74617 0.32733 0.45986 0.0
H1694 H 0.7415 0.33096 0.43768 0.0
H1695 H 0.81409 0.31283 0.45064 0.0
C1696 C 0.81128 0.26852 0.3813 0.0
N1697 N 0.80038 0.26817 0.39409 0.0
C1698 C 0.81869 0.24649 0.37492 0.0
C1699 C 0.8034 0.22399 0.39491 0.0
C1700 C 0.7962 0.24646 0.4009 0.0
C1701 C 0.81496 0.22387 0.3818 0.0
H1702 H 0.81485 0.28599 0.37619 0.0
H1703 H 0.78768 0.24648 0.41107 0.0
C1704 C 0.79599 0.37271 0.42607 0.0
N1705 N 0.81411 0.40382 0.44654 0.0
C1706 C 0.78335 0.39447 0.42943 0.0
C1707 C 0.81783 0.36672 0.43315 0.0
C1708 C 0.79282 0.40997 0.43981 0.0
C1709 C 0.82669 0.38271 0.44345 0.0
C1710 C 0.78922 0.33737 0.37673 0.0
C1711 C 0.79516 0.36174 0.37316 0.0
C1712 C 0.77379 0.32349 0.36803 0.0
C1713 C 0.78528 0.37195 0.36098 0.0
C1714 C 0.76428 0.33436 0.35594 0.0
N1715 N 0.77016 0.35817 0.35271 0.0
C1716 C 0.86275 0.34546 0.39677 0.0
C1717 C 0.84421 0.38417 0.40194 0.0
C1718 C 0.88438 0.35717 0.39233 0.0
N1719 N 0.8433 0.35901 0.40148 0.0
C1720 C 0.86555 0.39668 0.39761 0.0
C1721 C 0.886 0.38311 0.39275 0.0
H1722 H 0.86118 0.32552 0.39613 0.0
H1723 H 0.82822 0.39455 0.40538 0.0
C1724 C 0.72288 0.34411 0.3881 0.0
N1725 N 0.7437 0.35513 0.39311 0.0
C1726 C 0.70376 0.35853 0.38255 0.0
C1727 C 0.72798 0.39517 0.38745 0.0
C1728 C 0.74657 0.3801 0.39286 0.0
C1729 C 0.70616 0.38443 0.38229 0.0
H1730 H 0.72109 0.3242 0.38845 0.0
H1731 H 0.76336 0.38832 0.39691 0.0
O1732 O 0.81837 0.31018 0.41683 0.0
O1733 O 0.76103 0.30685 0.41147 0.0
O1734 O 0.78669 0.35727 0.41604 0.0
O1735 O 0.79803 0.32734 0.38885 0.0
H1736 H 0.79673 0.27339 0.43043 0.0
H1737 H 0.86681 0.3062 0.41989 0.0
H1738 H 0.81897 0.24068 0.44359 0.0
H1739 H 0.88791 0.27309 0.43334 0.0
H1740 H 0.7229 0.24464 0.38782 0.0
H1741 H 0.75108 0.27792 0.43307 0.0
H1742 H 0.74419 0.28532 0.38853 0.0
H1743 H 0.72978 0.23734 0.43158 0.0
H1744 H 0.801 0.31255 0.47535 0.0
H1745 H 0.72696 0.33155 0.46208 0.0
H1746 H 0.82805 0.24725 0.36494 0.0
H1747 H 0.80024 0.2069 0.40055 0.0
H1748 H 0.76636 0.3993 0.4241 0.0
H1749 H 0.82788 0.34997 0.43074 0.0
H1750 H 0.78323 0.42689 0.44251 0.0
H1751 H 0.84356 0.37831 0.449 0.0
H1752 H 0.80699 0.37276 0.37982 0.0
H1753 H 0.76909 0.30458 0.37063 0.0
H1754 H 0.78957 0.39085 0.35814 0.0
H1755 H 0.7522 0.32389 0.34915 0.0
H1756 H 0.89942 0.34605 0.38826 0.0
H1757 H 0.86604 0.41672 0.39799 0.0
H1758 H 0.6874 0.34953 0.37844 0.0
H1759 H 0.7305 0.41507 0.3875 0.0
Li1760 Li 0.91268 0.47689 0.84901 0.0
Li1761 Li 0.90724 0.43382 0.84434 0.0
Li1762 Li 0.94942 0.45086 0.84866 0.0
Li1763 Li 0.9253 0.46129 0.82644 0.0
C1764 C 0.91829 0.45437 0.87514 0.0
N1765 N 0.91289 0.46507 0.90315 0.0
C1766 C 0.89538 0.45111 0.88167 0.0
C1767 C 0.93856 0.46267 0.88291 0.0
C1768 C 0.893 0.45675 0.89582 0.0
C1769 C 0.93542 0.46808 0.89705 0.0
C1770 C 0.86696 0.4587 0.83415 0.0
C1771 C 0.82915 0.45082 0.82155 0.0
N1772 N 0.81628 0.452 0.83372 0.0
C1773 C 0.85337 0.45997 0.84652 0.0
C1774 C 0.85479 0.45421 0.82154 0.0
C1775 C 0.82776 0.45649 0.8461 0.0
C1776 C 0.88054 0.51681 0.84772 0.0
N1777 N 0.89644 0.50552 0.85669 0.0
C1778 C 0.88563 0.53417 0.87472 0.0
C1779 C 0.89962 0.51413 0.86991 0.0
C1780 C 0.86838 0.54553 0.86581 0.0
C1781 C 0.86611 0.53672 0.8521 0.0
H1782 H 0.87868 0.51001 0.83717 0.0
H1783 H 0.91285 0.5055 0.87677 0.0
C1784 C 0.89229 0.39466 0.86091 0.0
N1785 N 0.88773 0.40512 0.84828 0.0
C1786 C 0.87878 0.37415 0.86535 0.0
C1787 C 0.85647 0.37485 0.8435 0.0
C1788 C 0.87032 0.39561 0.83952 0.0
C1789 C 0.8606 0.36401 0.85661 0.0
H1790 H 0.9065 0.40228 0.86759 0.0
H1791 H 0.86712 0.4041 0.82947 0.0
C1792 C 0.94716 0.50782 0.84254 0.0
N1793 N 0.94939 0.55718 0.84998 0.0
C1794 C 0.9384 0.526 0.83342 0.0
C1795 C 0.95721 0.51473 0.8554 0.0
C1796 C 0.93965 0.55086 0.83739 0.0
C1797 C 0.95815 0.53979 0.85897 0.0
C1798 C 0.93446 0.4085 0.82451 0.0
C1799 C 0.94971 0.38772 0.82571 0.0
C1800 C 0.91549 0.40876 0.8146 0.0
C1801 C 0.94577 0.3675 0.81689 0.0
C1802 C 0.91212 0.38817 0.806 0.0
N1803 N 0.92721 0.36814 0.8073 0.0
C1804 C 0.98108 0.41742 0.86091 0.0
C1805 C 1.00027 0.45649 0.85763 0.0
C1806 C 0.0026 0.40788 0.86688 0.0
N1807 N 0.98032 0.44126 0.85642 0.0
C1808 C 0.0222 0.44774 0.86368 0.0
C1809 C 0.02349 0.4231 0.86836 0.0
H1810 H 0.96486 0.40582 0.85984 0.0
H1811 H 0.99919 0.47534 0.85389 0.0
C1812 C 0.9104 0.48685 0.80281 0.0
N1813 N 0.92688 0.46952 0.80718 0.0
C1814 C 0.91019 0.49457 0.78893 0.0
C1815 C 0.94385 0.46629 0.78422 0.0
C1816 C 0.94355 0.45923 0.79827 0.0
C1817 C 0.92689 0.48408 0.77938 0.0
H1818 H 0.89752 0.49485 0.81018 0.0
H1819 H 0.95653 0.44555 0.80206 0.0
O1820 O 0.92109 0.44859 0.86134 0.0
O1821 O 0.89206 0.46197 0.83433 0.0
O1822 O 0.94531 0.48334 0.83906 0.0
O1823 O 0.93798 0.4284 0.83309 0.0
H1824 H 0.87966 0.44412 0.87591 0.0
H1825 H 0.9565 0.46499 0.87809 0.0
H1826 H 0.87536 0.4544 0.901 0.0
H1827 H 0.95091 0.47465 0.90317 0.0
H1828 H 0.81948 0.44724 0.81187 0.0
H1829 H 0.86249 0.46373 0.85632 0.0
H1830 H 0.86506 0.45327 0.81186 0.0
H1831 H 0.817 0.45739 0.8556 0.0
H1832 H 0.88807 0.54055 0.88534 0.0
H1833 H 0.85273 0.54457 0.84495 0.0
H1834 H 0.88272 0.36607 0.87545 0.0
H1835 H 0.84254 0.36752 0.8365 0.0
H1836 H 0.93051 0.52096 0.82345 0.0
H1837 H 0.96387 0.50088 0.86262 0.0
H1838 H 0.9328 0.56513 0.83047 0.0
H1839 H 0.96571 0.54539 0.86893 0.0
H1840 H 0.96446 0.38725 0.83335 0.0
H1841 H 0.9034 0.42462 0.81362 0.0
H1842 H 0.95745 0.35129 0.81768 0.0
H1843 H 0.89748 0.3881 0.79829 0.0
H1844 H 0.00287 0.38883 0.87041 0.0
H1845 H 0.03806 0.45992 0.86449 0.0
H1846 H 0.89726 0.50882 0.78575 0.0
H1847 H 0.95703 0.45777 0.77719 0.0
Li1848 Li 0.81563 0.66003 0.09574 0.0
Li1849 Li 0.7721 0.66535 0.10012 0.0
Li1850 Li 0.78788 0.6773 0.07781 0.0
Li1851 Li 0.79776 0.70213 0.09943 0.0
C1852 C 0.78704 0.61903 0.08895 0.0
N1853 N 0.78558 0.5691 0.09515 0.0
C1854 C 0.78844 0.61108 0.10279 0.0
C1855 C 0.7849 0.6016 0.07825 0.0
C1856 C 0.78765 0.58577 0.10572 0.0
C1857 C 0.78421 0.57643 0.0816 0.0
C1858 C 0.79748 0.67382 0.12653 0.0
C1859 C 0.78309 0.69252 0.14789 0.0
N1860 N 0.79261 0.67317 0.15522 0.0
C1861 C 0.80736 0.65425 0.13429 0.0
C1862 C 0.78545 0.69322 0.13339 0.0
C1863 C 0.8046 0.65422 0.14878 0.0
C1864 C 0.85926 0.65308 0.10989 0.0
N1865 N 0.84486 0.64198 0.1001 0.0
C1866 C 0.8727 0.6076 0.09887 0.0
C1867 C 0.85114 0.61971 0.09448 0.0
C1868 C 0.8879 0.61871 0.10899 0.0
C1869 C 0.88088 0.6417 0.11454 0.0
H1870 H 0.85373 0.67075 0.11419 0.0
H1871 H 0.83946 0.61133 0.08664 0.0
C1872 C 0.72919 0.6377 0.09823 0.0
N1873 N 0.74369 0.64906 0.1079 0.0
C1874 C 0.70913 0.62322 0.10235 0.0
C1875 C 0.71896 0.63253 0.12637 0.0
C1876 C 0.73879 0.64701 0.12177 0.0
C1877 C 0.70399 0.6202 0.11659 0.0
H1878 H 0.73362 0.63944 0.08728 0.0
H1879 H 0.75056 0.65593 0.12931 0.0
C1880 C 0.83855 0.68629 0.0743 0.0
N1881 N 0.87445 0.67809 0.05431 0.0
C1882 C 0.85639 0.70439 0.07157 0.0
C1883 C 0.83896 0.66402 0.06688 0.0
C1884 C 0.87439 0.69989 0.06141 0.0
C1885 C 0.85726 0.66023 0.05681 0.0
C1886 C 0.74036 0.69869 0.09168 0.0
C1887 C 0.7244 0.69241 0.08076 0.0
C1888 C 0.73054 0.7059 0.10454 0.0
C1889 C 0.69884 0.69309 0.08297 0.0
C1890 C 0.70487 0.70631 0.10634 0.0
N1891 N 0.68969 0.69993 0.09561 0.0
C1892 C 0.76554 0.66042 0.05333 0.0
C1893 C 0.78926 0.69691 0.05008 0.0
C1894 C 0.75849 0.6605 0.03932 0.0
N1895 N 0.78056 0.67848 0.05841 0.0
C1896 C 0.78278 0.69762 0.03595 0.0
C1897 C 0.76715 0.67926 0.03044 0.0
H1898 H 0.75872 0.64614 0.06024 0.0
H1899 H 0.80102 0.71116 0.05444 0.0
C1900 C 0.83192 0.73721 0.10739 0.0
N1901 N 0.80706 0.73349 0.10677 0.0
C1902 C 0.84142 0.75926 0.11271 0.0
C1903 C 0.79957 0.77317 0.11706 0.0
C1904 C 0.79081 0.7509 0.11141 0.0
C1905 C 0.82518 0.77754 0.11762 0.0
H1906 H 0.84437 0.72291 0.10377 0.0
H1907 H 0.77112 0.74744 0.11082 0.0
O1908 O 0.78774 0.64373 0.08579 0.0
O1909 O 0.80019 0.67426 0.11235 0.0
O1910 O 0.82084 0.69046 0.08422 0.0
O1911 O 0.76545 0.69752 0.08982 0.0
H1912 H 0.78998 0.62431 0.11118 0.0
H1913 H 0.78388 0.60745 0.06747 0.0
H1914 H 0.78868 0.57938 0.1164 0.0
H1915 H 0.78259 0.56272 0.07342 0.0
H1916 H 0.7737 0.70735 0.15332 0.0
H1917 H 0.81711 0.63927 0.12921 0.0
H1918 H 0.77793 0.70861 0.12759 0.0
H1919 H 0.81206 0.63914 0.15491 0.0
H1920 H 0.87757 0.58989 0.09434 0.0
H1921 H 0.89185 0.65065 0.12255 0.0
H1922 H 0.69802 0.61409 0.09448 0.0
H1923 H 0.71597 0.63026 0.13746 0.0
H1924 H 0.8563 0.72174 0.07721 0.0
H1925 H 0.82531 0.6498 0.06883 0.0
H1926 H 0.88831 0.71373 0.05918 0.0
H1927 H 0.85779 0.64309 0.05098 0.0
H1928 H 0.73166 0.68691 0.07073 0.0
H1929 H 0.74258 0.7108 0.1131 0.0
H1930 H 0.68629 0.68813 0.07463 0.0
H1931 H 0.69703 0.71164 0.11628 0.0
H1932 H 0.74645 0.646 0.03545 0.0
H1933 H 0.78951 0.71262 0.02948 0.0
H1934 H 0.86129 0.76193 0.11314 0.0
H1935 H 0.78657 0.78694 0.12077 0.0
Li1936 Li 0.58939 0.56602 0.34437 0.0
Li1937 Li 0.585 0.52224 0.34798 0.0
Li1938 Li 0.57124 0.53934 0.32617 0.0
Li1939 Li 0.54782 0.54747 0.34856 0.0
C1940 C 0.6302 0.5405 0.33443 0.0
N1941 N 0.68113 0.5439 0.33612 0.0
C1942 C 0.64202 0.53854 0.34734 0.0
C1943 C 0.64425 0.54411 0.32236 0.0
C1944 C 0.66779 0.54031 0.34798 0.0
C1945 C 0.66999 0.54581 0.32344 0.0
C1946 C 0.57974 0.54423 0.37489 0.0
C1947 C 0.56404 0.52913 0.39686 0.0
N1948 N 0.58602 0.53481 0.403 0.0
C1949 C 0.60206 0.5502 0.38147 0.0
C1950 C 0.56047 0.53384 0.38267 0.0
C1951 C 0.60491 0.54517 0.39567 0.0
C1952 C 0.60188 0.60539 0.36128 0.0
N1953 N 0.60823 0.59474 0.34894 0.0
C1954 C 0.64046 0.62456 0.34559 0.0
C1955 C 0.62695 0.60397 0.34099 0.0
C1956 C 0.63474 0.63532 0.35853 0.0
C1957 C 0.61505 0.62566 0.36634 0.0
H1958 H 0.58664 0.59795 0.36726 0.0
H1959 H 0.63151 0.59533 0.33116 0.0
C1960 C 0.61562 0.48144 0.34502 0.0
N1961 N 0.60178 0.49333 0.35479 0.0
C1962 C 0.6306 0.4615 0.34874 0.0
C1963 C 0.61623 0.4657 0.37249 0.0
C1964 C 0.60134 0.48547 0.36826 0.0
C1965 C 0.6314 0.45369 0.36269 0.0
H1966 H 0.6154 0.48782 0.33433 0.0
H1967 H 0.58995 0.49475 0.37584 0.0
C1968 C 0.56142 0.59068 0.3243 0.0
N1969 N 0.5681 0.62912 0.30568 0.0
C1970 C 0.5444 0.61013 0.32379 0.0
C1971 C 0.58186 0.59077 0.31536 0.0
C1972 C 0.54809 0.6294 0.31429 0.0
C1973 C 0.58491 0.61038 0.30602 0.0
C1974 C 0.54982 0.49146 0.34151 0.0
C1975 C 0.55866 0.47335 0.33237 0.0
C1976 C 0.53879 0.48442 0.35408 0.0
C1977 C 0.55667 0.44841 0.33609 0.0
C1978 C 0.53714 0.4593 0.35741 0.0
N1979 N 0.54606 0.44197 0.34843 0.0
C1980 C 0.58544 0.51505 0.30205 0.0
C1981 C 0.55141 0.54201 0.29835 0.0
C1982 C 0.58453 0.50713 0.28822 0.0
N1983 N 0.56892 0.53201 0.30684 0.0
C1984 C 0.54997 0.53476 0.28435 0.0
C1985 C 0.56647 0.51682 0.27922 0.0
H1986 H 0.59914 0.50743 0.30907 0.0
H1987 H 0.53843 0.55539 0.30247 0.0
C1988 C 0.51682 0.57289 0.36666 0.0
N1989 N 0.51685 0.55485 0.35679 0.0
C1990 C 0.49467 0.58045 0.37279 0.0
C1991 C 0.47289 0.55077 0.35841 0.0
C1992 C 0.49557 0.54361 0.35263 0.0
C1993 C 0.47232 0.56958 0.36854 0.0
H1994 H 0.53406 0.58162 0.36964 0.0
H1995 H 0.4962 0.52938 0.3447 0.0
O1996 O 0.60498 0.53901 0.33353 0.0
O1997 O 0.57645 0.54937 0.36103 0.0
O1998 O 0.55806 0.57175 0.33358 0.0
O1999 O 0.55231 0.51598 0.33828 0.0
H2000 H 0.63143 0.53554 0.35673 0.0
H2001 H 0.63534 0.54567 0.31229 0.0
H2002 H 0.67719 0.53881 0.35791 0.0
H2003 H 0.68111 0.54866 0.31419 0.0
H2004 H 0.54934 0.52097 0.40298 0.0
H2005 H 0.61699 0.55879 0.37572 0.0
H2006 H 0.54298 0.52935 0.37782 0.0
H2007 H 0.62212 0.54962 0.40087 0.0
H2008 H 0.65543 0.63175 0.33926 0.0
H2009 H 0.60979 0.63384 0.37622 0.0
H2010 H 0.64185 0.4526 0.34085 0.0
H2011 H 0.61657 0.46054 0.3834 0.0
H2012 H 0.5285 0.61031 0.33066 0.0
H2013 H 0.59525 0.5759 0.31562 0.0
H2014 H 0.53506 0.64457 0.31377 0.0
H2015 H 0.60065 0.61069 0.29904 0.0
H2016 H 0.56724 0.4785 0.3226 0.0
H2017 H 0.5317 0.49822 0.3612 0.0
H2018 H 0.56361 0.43419 0.32917 0.0
H2019 H 0.52878 0.45358 0.36715 0.0
H2020 H 0.59786 0.49362 0.28457 0.0
H2021 H 0.53585 0.54267 0.27768 0.0
H2022 H 0.49491 0.59513 0.38049 0.0
H2023 H 0.45601 0.54186 0.35497 0.0
Li2024 Li 0.72934 0.3368 0.59756 0.0
Li2025 Li 0.6859 0.34246 0.59534 0.0
Li2026 Li 0.70528 0.29954 0.59848 0.0
Li2027 Li 0.71162 0.32438 0.57623 0.0
C2028 C 0.71474 0.33536 0.62341 0.0
N2029 N 0.73879 0.35095 0.64725 0.0
C2030 C 0.71294 0.36002 0.62769 0.0
C2031 C 0.72855 0.31855 0.6313 0.0
C2032 C 0.72532 0.36756 0.63976 0.0
C2033 C 0.74061 0.32681 0.64332 0.0
C2034 C 0.70073 0.37425 0.57468 0.0
C2035 C 0.66761 0.38297 0.5585 0.0
N2036 N 0.67799 0.40534 0.55566 0.0
C2037 C 0.7111 0.39732 0.57154 0.0
C2038 C 0.67884 0.36699 0.56805 0.0
C2039 C 0.69932 0.41277 0.56192 0.0
C2040 C 0.77611 0.34196 0.61261 0.0
N2041 N 0.7577 0.35334 0.60532 0.0
C2042 C 0.77698 0.39272 0.60855 0.0
C2043 C 0.75776 0.37825 0.60335 0.0
C2044 C 0.79642 0.38147 0.61586 0.0
C2045 C 0.79592 0.35575 0.61791 0.0
H2046 H 0.77529 0.32229 0.61453 0.0
H2047 H 0.74262 0.38698 0.59792 0.0
C2048 C 0.63856 0.3474 0.60631 0.0
N2049 N 0.6575 0.36079 0.60083 0.0
C2050 C 0.61783 0.35933 0.61181 0.0
C2051 C 0.63631 0.39867 0.60578 0.0
C2052 C 0.65681 0.38597 0.60047 0.0
C2053 C 0.61671 0.38529 0.61174 0.0
H2054 H 0.63982 0.32742 0.60664 0.0
H2055 H 0.67239 0.39622 0.59637 0.0
C2056 C 0.76034 0.30101 0.5883 0.0
N2057 N 0.81073 0.29302 0.59008 0.0
C2058 C 0.77667 0.31554 0.5805 0.0
C2059 C 0.76958 0.28225 0.59688 0.0
C2060 C 0.80211 0.31128 0.58159 0.0
C2061 C 0.79514 0.27853 0.59766 0.0
C2062 C 0.6634 0.29676 0.57788 0.0
C2063 C 0.67018 0.27294 0.57369 0.0
C2064 C 0.63929 0.30512 0.57545 0.0
C2065 C 0.65274 0.25786 0.56709 0.0
C2066 C 0.62238 0.28949 0.56881 0.0
N2067 N 0.62939 0.26637 0.56481 0.0
C2068 C 0.68416 0.26835 0.61828 0.0
C2069 C 0.70612 0.24657 0.60072 0.0
C2070 C 0.67646 0.24615 0.62434 0.0
N2071 N 0.69845 0.26816 0.60661 0.0
C2072 C 0.69845 0.2239 0.6063 0.0
C2073 C 0.68321 0.22363 0.61816 0.0
H2074 H 0.67827 0.28581 0.6227 0.0
H2075 H 0.71761 0.24696 0.59149 0.0
C2076 C 0.73283 0.34101 0.55157 0.0
N2077 N 0.71764 0.32297 0.55655 0.0
C2078 C 0.73952 0.34149 0.53753 0.0
C2079 C 0.71532 0.30442 0.53392 0.0
C2080 C 0.70888 0.30479 0.54806 0.0
C2081 C 0.73073 0.32304 0.52853 0.0
H2082 H 0.74013 0.35488 0.55858 0.0
H2083 H 0.69721 0.2904 0.55222 0.0
O2084 O 0.70333 0.32778 0.61144 0.0
O2085 O 0.71233 0.35889 0.58401 0.0
O2086 O 0.73539 0.30478 0.58735 0.0
O2087 O 0.68003 0.31167 0.58462 0.0
H2088 H 0.70235 0.37323 0.62164 0.0
H2089 H 0.73019 0.29942 0.62806 0.0
H2090 H 0.72427 0.38664 0.64315 0.0
H2091 H 0.75151 0.31407 0.64949 0.0
H2092 H 0.65065 0.37756 0.55333 0.0
H2093 H 0.72817 0.40322 0.57641 0.0
H2094 H 0.67053 0.34927 0.57019 0.0
H2095 H 0.70717 0.43065 0.55942 0.0
H2096 H 0.77667 0.41256 0.60687 0.0
H2097 H 0.81035 0.34654 0.62379 0.0
H2098 H 0.60291 0.34838 0.61616 0.0
H2099 H 0.63609 0.41873 0.60561 0.0
H2100 H 0.76978 0.33011 0.57381 0.0
H2101 H 0.75714 0.27082 0.60296 0.0
H2102 H 0.81499 0.3225 0.57571 0.0
H2103 H 0.80258 0.26416 0.60431 0.0
H2104 H 0.68884 0.26634 0.5753 0.0
H2105 H 0.63369 0.32351 0.57864 0.0
H2106 H 0.65779 0.23941 0.56375 0.0
H2107 H 0.60367 0.29574 0.56685 0.0
H2108 H 0.6646 0.24657 0.63345 0.0
H2109 H 0.70406 0.20679 0.60132 0.0
H2110 H 0.75187 0.35585 0.53381 0.0
H2111 H 0.70831 0.28981 0.52726 0.0
Li2112 Li 0.07169 0.46194 0.32668 0.0
Li2113 Li 0.08545 0.47988 0.3479 0.0
Li2114 Li 0.09019 0.43549 0.34503 0.0
Li2115 Li 0.04812 0.45504 0.34888 0.0
C2116 C 0.12118 0.47599 0.32596 0.0
N2117 N 0.15146 0.50443 0.30916 0.0
C2118 C 0.11407 0.49995 0.3222 0.0
C2119 C 0.1437 0.46649 0.3212 0.0
C2120 C 0.12962 0.51404 0.31369 0.0
C2121 C 0.15875 0.48116 0.31271 0.0
C2122 C 0.0428 0.50853 0.34083 0.0
C2123 C 0.01709 0.53515 0.35491 0.0
N2124 N 0.02124 0.55408 0.34585 0.0
C2125 C 0.04654 0.52817 0.33155 0.0
C2126 C 0.02772 0.51196 0.35252 0.0
C2127 C 0.03559 0.55108 0.33432 0.0
C2128 C 0.04999 0.48204 0.30237 0.0
N2129 N 0.06883 0.46757 0.30706 0.0
C2130 C 0.08663 0.46614 0.28425 0.0
C2131 C 0.08674 0.45921 0.29828 0.0
C2132 C 0.06806 0.48203 0.27924 0.0
C2133 C 0.04922 0.48952 0.28841 0.0
H2134 H 0.03599 0.48845 0.30957 0.0
H2135 H 0.10159 0.4478 0.30225 0.0
C2136 C 0.12813 0.50341 0.35721 0.0
N2137 N 0.10348 0.50761 0.35553 0.0
C2138 C 0.14359 0.52193 0.36237 0.0
C2139 C 0.10807 0.54886 0.3643 0.0
C2140 C 0.09324 0.52975 0.35912 0.0
C2141 C 0.13362 0.54508 0.36586 0.0
H2142 H 0.13581 0.48555 0.35451 0.0
H2143 H 0.07362 0.53267 0.35815 0.0
C2144 C 0.05922 0.41257 0.32413 0.0
N2145 N 0.06045 0.37728 0.3033 0.0
C2146 C 0.03734 0.4012 0.31973 0.0
C2147 C 0.08171 0.40603 0.31795 0.0
C2148 C 0.03835 0.38338 0.30918 0.0
C2149 C 0.08195 0.38814 0.30743 0.0
C2150 C 0.08682 0.46359 0.37341 0.0
C2151 C 0.10978 0.45568 0.37844 0.0
C2152 C 0.0743 0.48271 0.38025 0.0
C2153 C 0.11996 0.46723 0.39016 0.0
C2154 C 0.0851 0.49381 0.39192 0.0
N2155 N 0.10753 0.48592 0.39658 0.0
C2156 C 0.13358 0.40825 0.35205 0.0
C2157 C 0.09657 0.38475 0.35052 0.0
C2158 C 0.14674 0.38737 0.35648 0.0
N2159 N 0.1089 0.4066 0.34936 0.0
C2160 C 0.10911 0.36334 0.3546 0.0
C2161 C 0.1344 0.36464 0.3578 0.0
H2162 H 0.14285 0.42594 0.35112 0.0
H2163 H 0.07689 0.38404 0.3485 0.0
C2164 C 0.9973 0.44167 0.3489 0.0
N2165 N 0.01691 0.44774 0.3571 0.0
C2166 C 0.97537 0.43296 0.35491 0.0
C2167 C 0.99393 0.43796 0.37767 0.0
C2168 C 0.01553 0.44631 0.37123 0.0
C2169 C 0.97374 0.43045 0.36947 0.0
H2170 H 0.99903 0.44276 0.33767 0.0
H2171 H 0.03147 0.45094 0.37751 0.0
O2172 O 0.10607 0.46167 0.33408 0.0
O2173 O 0.05312 0.48587 0.33821 0.0
O2174 O 0.05854 0.43011 0.33441 0.0
O2175 O 0.07692 0.45301 0.36169 0.0
H2176 H 0.09674 0.50753 0.32582 0.0
H2177 H 0.1494 0.44792 0.32399 0.0
H2178 H 0.12433 0.53261 0.31069 0.0
H2179 H 0.17622 0.47403 0.30892 0.0
H2180 H 0.00551 0.53809 0.36397 0.0
H2181 H 0.05771 0.52579 0.32229 0.0
H2182 H 0.0243 0.49695 0.3597 0.0
H2183 H 0.03844 0.56647 0.32728 0.0
H2184 H 0.10117 0.45945 0.27745 0.0
H2185 H 0.03455 0.50174 0.28495 0.0
H2186 H 0.16321 0.51827 0.36347 0.0
H2187 H 0.0996 0.56628 0.36722 0.0
H2188 H 0.01978 0.40607 0.32442 0.0
H2189 H 0.09881 0.41474 0.32119 0.0
H2190 H 0.02157 0.3744 0.30566 0.0
H2191 H 0.09923 0.38292 0.30254 0.0
H2192 H 0.11973 0.44092 0.37332 0.0
H2193 H 0.05662 0.48922 0.37646 0.0
H2194 H 0.13778 0.46137 0.39411 0.0
H2195 H 0.0757 0.50877 0.39723 0.0
H2196 H 0.16627 0.38894 0.3589 0.0
H2197 H 0.09903 0.3461 0.35565 0.0
H2198 H 0.96022 0.42732 0.34822 0.0
H2199 H 0.99325 0.43687 0.38894 0.0
Li2200 Li 0.31673 0.33922 0.09521 0.0
Li2201 Li 0.29837 0.29814 0.09925 0.0
Li2202 Li 0.29145 0.32039 0.07697 0.0
Li2203 Li 0.27191 0.33403 0.09854 0.0
C2204 C 0.33709 0.30008 0.0742 0.0
N2205 N 0.36597 0.28364 0.0523 0.0
C2206 C 0.34271 0.27493 0.07292 0.0
C2207 C 0.34607 0.31685 0.06432 0.0
C2208 C 0.35742 0.267 0.0618 0.0
C2209 C 0.36059 0.30818 0.05331 0.0
C2210 C 0.30522 0.31696 0.12434 0.0
C2211 C 0.29553 0.29133 0.14421 0.0
N2212 N 0.3192 0.29388 0.14883 0.0
C2213 C 0.32943 0.31941 0.12932 0.0
C2214 C 0.28809 0.30291 0.13187 0.0
C2215 C 0.33613 0.30759 0.14172 0.0
C2216 C 0.34185 0.3779 0.10903 0.0
N2217 N 0.34483 0.35909 0.09976 0.0
C2218 C 0.38848 0.36623 0.09898 0.0
C2219 C 0.36756 0.35305 0.09472 0.0
C2220 C 0.38597 0.38584 0.10852 0.0
C2221 C 0.36223 0.39169 0.1135 0.0
H2222 H 0.3237 0.38178 0.11325 0.0
H2223 H 0.36961 0.3375 0.08775 0.0
C2224 C 0.28939 0.24855 0.10944 0.0
N2225 N 0.30617 0.26708 0.10769 0.0
C2226 C 0.29635 0.22652 0.11607 0.0
C2227 C 0.3376 0.24315 0.11891 0.0
C2228 C 0.32997 0.26462 0.1121 0.0
C2229 C 0.32067 0.22383 0.12104 0.0
H2230 H 0.27066 0.25085 0.10568 0.0
H2231 H 0.34301 0.27949 0.11034 0.0
C2232 C 0.29605 0.37893 0.08457 0.0
N2233 N 0.31103 0.42787 0.08578 0.0
C2234 C 0.28561 0.39505 0.09436 0.0
C2235 C 0.31418 0.38777 0.07543 0.0
C2236 C 0.29339 0.4197 0.09479 0.0
C2237 C 0.3215 0.41254 0.0762 0.0
C2238 C 0.24211 0.30004 0.08941 0.0
C2239 C 0.22753 0.30812 0.07825 0.0
C2240 C 0.23075 0.29121 0.10152 0.0
C2241 C 0.20176 0.30731 0.07944 0.0
C2242 C 0.20493 0.29074 0.10231 0.0
N2243 N 0.19109 0.29873 0.09135 0.0
C2244 C 0.27592 0.29503 0.05258 0.0
C2245 C 0.29019 0.33594 0.04868 0.0
C2246 C 0.26899 0.29278 0.03857 0.0
N2247 N 0.28601 0.31649 0.05736 0.0
C2248 C 0.28393 0.33435 0.03457 0.0
C2249 C 0.27292 0.31267 0.02941 0.0
H2250 H 0.27251 0.27995 0.05975 0.0
H2251 H 0.29777 0.35293 0.05276 0.0
C2252 C 0.2385 0.35103 0.11951 0.0
N2253 N 0.24295 0.3498 0.10558 0.0
C2254 C 0.21885 0.36526 0.12456 0.0
C2255 C 0.20853 0.37628 0.10082 0.0
C2256 C 0.2283 0.36179 0.09624 0.0
C2257 C 0.20381 0.37841 0.11517 0.0
H2258 H 0.2507 0.34171 0.12673 0.0
H2259 H 0.23268 0.36097 0.08524 0.0
O2260 O 0.32342 0.3083 0.08527 0.0
O2261 O 0.29844 0.3279 0.11204 0.0
O2262 O 0.28892 0.35458 0.0841 0.0
O2263 O 0.26737 0.30127 0.08858 0.0
H2264 H 0.33598 0.26172 0.08052 0.0
H2265 H 0.34196 0.33637 0.0652 0.0
H2266 H 0.36209 0.24761 0.06073 0.0
H2267 H 0.36766 0.32097 0.04559 0.0
H2268 H 0.28251 0.28024 0.15008 0.0
H2269 H 0.343 0.33005 0.1236 0.0
H2270 H 0.26934 0.30065 0.12813 0.0
H2271 H 0.35483 0.30921 0.14565 0.0
H2272 H 0.40651 0.36055 0.09524 0.0
H2273 H 0.3595 0.40654 0.12093 0.0
H2274 H 0.28289 0.21185 0.11741 0.0
H2275 H 0.35667 0.2415 0.12229 0.0
H2276 H 0.27197 0.38861 0.10174 0.0
H2277 H 0.32281 0.37561 0.06793 0.0
H2278 H 0.28552 0.43231 0.10235 0.0
H2279 H 0.33557 0.41955 0.06921 0.0
H2280 H 0.23598 0.3153 0.06886 0.0
H2281 H 0.24174 0.28504 0.11028 0.0
H2282 H 0.19024 0.31363 0.07092 0.0
H2283 H 0.1959 0.28407 0.11165 0.0
H2284 H 0.26048 0.27579 0.03494 0.0
H2285 H 0.28691 0.3502 0.02785 0.0
H2286 H 0.21586 0.36651 0.13571 0.0
H2287 H 0.19786 0.38665 0.09326 0.0
Li2288 Li 0.41094 0.56656 0.84462 0.0
Li2289 Li 0.45058 0.54639 0.84977 0.0
Li2290 Li 0.42766 0.539 0.82645 0.0
Li2291 Li 0.41124 0.52224 0.84914 0.0
C2292 C 0.44843 0.59294 0.82985 0.0
N2293 N 0.46051 0.64018 0.82121 0.0
C2294 C 0.45971 0.60943 0.83912 0.0
C2295 C 0.44336 0.6004 0.81619 0.0
C2296 C 0.46566 0.63326 0.83454 0.0
C2297 C 0.44958 0.6244 0.81202 0.0
C2298 C 0.42275 0.54672 0.87591 0.0
C2299 C 0.4288 0.52107 0.89623 0.0
N2300 N 0.4255 0.54124 0.90452 0.0
C2301 C 0.41942 0.56718 0.88463 0.0
C2302 C 0.42746 0.52346 0.88175 0.0
C2303 C 0.42089 0.56403 0.89907 0.0
C2304 C 0.37512 0.59257 0.85938 0.0
N2305 N 0.39162 0.59555 0.8488 0.0
C2306 C 0.3815 0.63859 0.84722 0.0
C2307 C 0.39453 0.6179 0.84247 0.0
C2308 C 0.3647 0.63618 0.85834 0.0
C2309 C 0.36132 0.61263 0.86428 0.0
H2310 H 0.37299 0.57458 0.8642 0.0
H2311 H 0.4073 0.61997 0.83393 0.0
C2312 C 0.50044 0.56135 0.84919 0.0
N2313 N 0.48277 0.55181 0.85776 0.0
C2314 C 0.52331 0.56886 0.85457 0.0
C2315 C 0.50984 0.55569 0.87741 0.0
C2316 C 0.48726 0.54844 0.8716 0.0
C2317 C 0.52806 0.5664 0.86891 0.0
H2318 H 0.49641 0.56398 0.83824 0.0
H2319 H 0.47323 0.54073 0.87826 0.0
C2320 C 0.37228 0.55156 0.83047 0.0
N2321 N 0.32941 0.57683 0.82393 0.0
C2322 C 0.35087 0.54789 0.83838 0.0
C2323 C 0.37191 0.56795 0.8192 0.0
C2324 C 0.32937 0.56088 0.83491 0.0
C2325 C 0.35004 0.58059 0.81607 0.0
C2326 C 0.45281 0.49166 0.84122 0.0
C2327 C 0.45085 0.4746 0.83031 0.0
C2328 C 0.4647 0.48487 0.85358 0.0
C2329 C 0.46044 0.45078 0.83208 0.0
C2330 C 0.47407 0.46088 0.85493 0.0
N2331 N 0.47174 0.44447 0.84425 0.0
C2332 C 0.45002 0.53734 0.79927 0.0
C2333 C 0.41212 0.51581 0.80227 0.0
C2334 C 0.45161 0.52921 0.78543 0.0
N2335 N 0.43047 0.53048 0.80733 0.0
C2336 C 0.41305 0.50716 0.78857 0.0
C2337 C 0.4331 0.51365 0.78002 0.0
H2338 H 0.46447 0.54884 0.80364 0.0
H2339 H 0.39688 0.51057 0.80896 0.0
C2340 C 0.37769 0.4995 0.86778 0.0
N2341 N 0.39226 0.49551 0.85643 0.0
C2342 C 0.36238 0.48071 0.87282 0.0
C2343 C 0.37643 0.45439 0.85402 0.0
C2344 C 0.39171 0.4736 0.84945 0.0
C2345 C 0.36164 0.45786 0.86588 0.0
H2346 H 0.37756 0.51747 0.87275 0.0
H2347 H 0.4026 0.47126 0.8401 0.0
O2348 O 0.44282 0.56943 0.83403 0.0
O2349 O 0.42062 0.54939 0.86177 0.0
O2350 O 0.39365 0.53953 0.83391 0.0
O2351 O 0.44377 0.51512 0.8396 0.0
H2352 H 0.46373 0.6039 0.84973 0.0
H2353 H 0.4346 0.58784 0.80891 0.0
H2354 H 0.47437 0.64625 0.84159 0.0
H2355 H 0.44571 0.63047 0.8015 0.0
H2356 H 0.43242 0.50319 0.90088 0.0
H2357 H 0.41569 0.58529 0.88028 0.0
H2358 H 0.43002 0.50741 0.87517 0.0
H2359 H 0.41831 0.57969 0.90595 0.0
H2360 H 0.38522 0.65641 0.84251 0.0
H2361 H 0.34842 0.6098 0.87277 0.0
H2362 H 0.53668 0.57743 0.84769 0.0
H2363 H 0.51284 0.55337 0.88851 0.0
H2364 H 0.35094 0.53531 0.84717 0.0
H2365 H 0.38841 0.57101 0.81302 0.0
H2366 H 0.31267 0.55832 0.84096 0.0
H2367 H 0.34949 0.59344 0.80742 0.0
H2368 H 0.44191 0.47967 0.82062 0.0
H2369 H 0.46683 0.49802 0.862 0.0
H2370 H 0.45893 0.43733 0.82376 0.0
H2371 H 0.48328 0.45534 0.86445 0.0
H2372 H 0.46735 0.53459 0.77913 0.0
H2373 H 0.3982 0.49556 0.78469 0.0
H2374 H 0.35069 0.48423 0.88178 0.0
H2375 H 0.37601 0.43709 0.84831 0.0
Li2376 Li 0.20446 0.70063 0.59881 0.0
Li2377 Li 0.18625 0.65975 0.59518 0.0
Li2378 Li 0.2309 0.66475 0.59905 0.0
Li2379 Li 0.21211 0.67755 0.57716 0.0
C2380 C 0.19744 0.68318 0.6242 0.0
N2381 N 0.18409 0.70767 0.64835 0.0
C2382 C 0.17312 0.68179 0.62911 0.0
C2383 C 0.21501 0.69687 0.63162 0.0
C2384 C 0.16673 0.69433 0.64134 0.0
C2385 C 0.20788 0.70918 0.64379 0.0
C2386 C 0.1707 0.70088 0.57276 0.0
C2387 C 0.1517 0.69743 0.55008 0.0
N2388 N 0.15354 0.72239 0.54847 0.0
C2389 C 0.17237 0.72649 0.5709 0.0
C2390 C 0.16023 0.68621 0.5623 0.0
C2391 C 0.16358 0.73701 0.55854 0.0
C2392 C 0.2129 0.75068 0.60859 0.0
N2393 N 0.19639 0.73196 0.60674 0.0
C2394 C 0.16387 0.75631 0.61653 0.0
C2395 C 0.17225 0.73448 0.61043 0.0
C2396 C 0.18036 0.77607 0.61863 0.0
C2397 C 0.20519 0.77311 0.61451 0.0
H2398 H 0.23193 0.7483 0.60537 0.0
H2399 H 0.1595 0.71936 0.60868 0.0
C2400 C 0.15983 0.62292 0.60994 0.0
N2401 N 0.15792 0.64029 0.59973 0.0
C2402 C 0.13876 0.61056 0.61474 0.0
C2403 C 0.11423 0.63392 0.59826 0.0
C2404 C 0.13577 0.64575 0.59374 0.0
C2405 C 0.11552 0.61647 0.60911 0.0
H2406 H 0.17761 0.61935 0.61473 0.0
H2407 H 0.13471 0.65989 0.58579 0.0
C2408 C 0.26109 0.6983 0.58931 0.0
N2409 N 0.31214 0.69992 0.5908 0.0
C2410 C 0.27539 0.69036 0.57802 0.0
C2411 C 0.27273 0.70722 0.60132 0.0
C2412 C 0.30119 0.6913 0.57898 0.0
C2413 C 0.29857 0.70783 0.60188 0.0
C2414 C 0.20581 0.62008 0.58468 0.0
C2415 C 0.21474 0.60298 0.5944 0.0
C2416 C 0.18772 0.61284 0.57509 0.0
C2417 C 0.20539 0.57886 0.59436 0.0
C2418 C 0.1788 0.58857 0.5754 0.0
N2419 N 0.18775 0.57222 0.58494 0.0
C2420 C 0.264 0.64679 0.62014 0.0
C2421 C 0.27369 0.63658 0.59671 0.0
C2422 C 0.28339 0.63194 0.62497 0.0
N2423 N 0.25943 0.64858 0.60623 0.0
C2424 C 0.29318 0.62154 0.60106 0.0
C2425 C 0.29798 0.61877 0.61536 0.0
H2426 H 0.25201 0.65607 0.62749 0.0
H2427 H 0.26928 0.63796 0.58573 0.0
C2428 C 0.22343 0.70246 0.55174 0.0
N2429 N 0.2189 0.68001 0.55765 0.0
C2430 C 0.23133 0.70402 0.53787 0.0
C2431 C 0.22949 0.65939 0.53642 0.0
C2432 C 0.22156 0.65869 0.55027 0.0
C2433 C 0.23496 0.68223 0.53015 0.0
H2434 H 0.22168 0.7191 0.55794 0.0
H2435 H 0.21829 0.64107 0.55526 0.0
O2436 O 0.20394 0.67152 0.61207 0.0
O2437 O 0.17956 0.69017 0.58468 0.0
O2438 O 0.23583 0.69705 0.58869 0.0
O2439 O 0.21438 0.64392 0.58471 0.0
H2440 H 0.15922 0.67145 0.62346 0.0
H2441 H 0.23388 0.69824 0.62793 0.0
H2442 H 0.14794 0.69353 0.64522 0.0
H2443 H 0.22124 0.72 0.64958 0.0
H2444 H 0.14367 0.68629 0.54187 0.0
H2445 H 0.18055 0.7381 0.57886 0.0
H2446 H 0.15895 0.66634 0.56354 0.0
H2447 H 0.16481 0.7568 0.55694 0.0
H2448 H 0.14463 0.75768 0.61961 0.0
H2449 H 0.2184 0.78807 0.61562 0.0
H2450 H 0.14046 0.59733 0.62318 0.0
H2451 H 0.09666 0.63874 0.59354 0.0
H2452 H 0.26671 0.68328 0.56867 0.0
H2453 H 0.26194 0.71342 0.61015 0.0
H2454 H 0.31249 0.6851 0.57035 0.0
H2455 H 0.30783 0.71457 0.61114 0.0
H2456 H 0.22852 0.60829 0.60201 0.0
H2457 H 0.18044 0.6259 0.56758 0.0
H2458 H 0.21207 0.56546 0.60185 0.0
H2459 H 0.16473 0.58274 0.56808 0.0
H2460 H 0.28619 0.62984 0.63609 0.0
H2461 H 0.30399 0.61163 0.59336 0.0
H2462 H 0.23543 0.72198 0.5334 0.0
H2463 H 0.23169 0.6422 0.53074 0.0
Li2464 Li 0.09221 0.56358 0.15562 0.0
Li2465 Li 0.05072 0.54602 0.15143 0.0
Li2466 Li 0.07495 0.53788 0.17433 0.0
Li2467 Li 0.08811 0.52002 0.152 0.0
C2468 C 0.06143 0.59466 0.1677 0.0
N2469 N 0.06437 0.64568 0.16896 0.0
C2470 C 0.05259 0.60906 0.15666 0.0
C2471 C 0.07142 0.6062 0.17947 0.0
C2472 C 0.05435 0.63483 0.15746 0.0
C2473 C 0.07281 0.63203 0.17989 0.0
C2474 C 0.08503 0.53625 0.12637 0.0
C2475 C 0.0754 0.50753 0.10791 0.0
N2476 N 0.09712 0.51339 0.10152 0.0
C2477 C 0.10721 0.54206 0.11962 0.0
C2478 C 0.06894 0.51892 0.12047 0.0
C2479 C 0.113 0.53028 0.10707 0.0
C2480 C 0.12684 0.60508 0.15875 0.0
N2481 N 0.11015 0.59305 0.15053 0.0
C2482 C 0.11418 0.62407 0.13287 0.0
C2483 C 0.10375 0.60217 0.1378 0.0
C2484 C 0.13137 0.63685 0.14111 0.0
C2485 C 0.13792 0.62703 0.15415 0.0
H2486 H 0.13128 0.59807 0.16895 0.0
H2487 H 0.09012 0.59264 0.13155 0.0
C2488 C 0.99803 0.55164 0.15014 0.0
N2489 N 0.01971 0.55333 0.143 0.0
C2490 C 0.97606 0.56046 0.14417 0.0
C2491 C 0.99915 0.57175 0.12353 0.0
C2492 C 0.02057 0.56281 0.12987 0.0
C2493 C 0.97665 0.57126 0.13083 0.0
H2494 H 0.99796 0.54428 0.16063 0.0
H2495 H 0.0381 0.5643 0.12451 0.0
C2496 C 0.12847 0.54631 0.1736 0.0
N2497 N 0.1681 0.56508 0.18853 0.0
C2498 C 0.15267 0.54307 0.16874 0.0
C2499 C 0.12451 0.55912 0.18608 0.0
C2500 C 0.17243 0.55274 0.17641 0.0
C2501 C 0.14476 0.56841 0.19348 0.0
C2502 C 0.04583 0.4919 0.16162 0.0
C2503 C 0.05261 0.47429 0.17159 0.0
C2504 C 0.02822 0.4859 0.15149 0.0
C2505 C 0.04184 0.45078 0.17115 0.0
C2506 C 0.01788 0.46219 0.1514 0.0
N2507 N 0.02485 0.44527 0.16115 0.0
C2508 C 0.0542 0.53955 0.20201 0.0
C2509 C 0.08869 0.51308 0.19857 0.0
C2510 C 0.0529 0.53269 0.21609 0.0
N2511 N 0.07199 0.52975 0.19363 0.0
C2512 C 0.08818 0.50587 0.21253 0.0
C2513 C 0.07023 0.51581 0.2215 0.0
H2514 H 0.04108 0.55268 0.19777 0.0
H2515 H 0.10245 0.5054 0.19162 0.0
C2516 C 0.12844 0.49691 0.14 0.0
N2517 N 0.10479 0.492 0.14394 0.0
C2518 C 0.14362 0.47815 0.13489 0.0
C2519 C 0.10971 0.44941 0.13759 0.0
C2520 C 0.09508 0.46886 0.14257 0.0
C2521 C 0.13442 0.45393 0.13382 0.0
H2522 H 0.13552 0.51553 0.14088 0.0
H2523 H 0.07618 0.46523 0.14548 0.0
O2524 O 0.06077 0.56939 0.16685 0.0
O2525 O 0.07927 0.54718 0.13882 0.0
O2526 O 0.10892 0.53662 0.16629 0.0
O2527 O 0.05596 0.51506 0.16194 0.0
H2528 H 0.04489 0.60042 0.14746 0.0
H2529 H 0.07806 0.59537 0.18818 0.0
H2530 H 0.04785 0.6462 0.14893 0.0
H2531 H 0.08063 0.64121 0.18889 0.0
H2532 H 0.06318 0.49399 0.10324 0.0
H2533 H 0.11996 0.55531 0.12412 0.0
H2534 H 0.05175 0.51417 0.12559 0.0
H2535 H 0.13016 0.5345 0.10176 0.0
H2536 H 0.10883 0.63097 0.12269 0.0
H2537 H 0.15101 0.63654 0.16082 0.0
H2538 H 0.95903 0.55981 0.15012 0.0
H2539 H 1.00028 0.57957 0.11314 0.0
H2540 H 0.15627 0.5332 0.15917 0.0
H2541 H 0.10604 0.56222 0.18995 0.0
H2542 H 0.19122 0.55039 0.17274 0.0
H2543 H 0.14189 0.5784 0.20313 0.0
H2544 H 0.06616 0.47866 0.17952 0.0
H2545 H 0.02259 0.4994 0.14378 0.0
H2546 H 0.04699 0.43692 0.17877 0.0
H2547 H 0.00428 0.45725 0.14359 0.0
H2548 H 0.03877 0.54069 0.22271 0.0
H2549 H 0.10155 0.49246 0.21625 0.0
H2550 H 0.16245 0.48251 0.13188 0.0
H2551 H 0.10195 0.43094 0.13707 0.0
Li2552 Li 0.22798 0.33383 0.9026 0.0
Li2553 Li 0.21187 0.32051 0.92529 0.0
Li2554 Li 0.20411 0.29515 0.90312 0.0
Li2555 Li 0.18304 0.33627 0.90695 0.0
C2556 C 0.25827 0.2923 0.91182 0.0
N2557 N 0.30464 0.27114 0.90962 0.0
C2558 C 0.27585 0.29602 0.92231 0.0
C2559 C 0.26415 0.27763 0.90028 0.0
C2560 C 0.29922 0.28521 0.92099 0.0
C2561 C 0.28773 0.26715 0.89934 0.0
C2562 C 0.21116 0.37478 0.92422 0.0
C2563 C 0.1918 0.40493 0.93922 0.0
N2564 N 0.21345 0.41774 0.93982 0.0
C2565 C 0.23318 0.38834 0.92489 0.0
C2566 C 0.19025 0.38319 0.93137 0.0
C2567 C 0.23399 0.40996 0.93287 0.0
C2568 C 0.24752 0.37486 0.889 0.0
N2569 N 0.25436 0.35258 0.89438 0.0
C2570 C 0.29695 0.36131 0.88963 0.0
C2571 C 0.27854 0.34549 0.89465 0.0
C2572 C 0.29032 0.38445 0.88417 0.0
C2573 C 0.26526 0.39106 0.88366 0.0
H2574 H 0.22825 0.3803 0.88919 0.0
H2575 H 0.28376 0.32789 0.899 0.0
C2576 C 0.21258 0.29945 0.95273 0.0
N2577 N 0.22045 0.3186 0.94464 0.0
C2578 C 0.22088 0.29718 0.96652 0.0
C2579 C 0.24475 0.33459 0.96345 0.0
C2580 C 0.23628 0.33594 0.94973 0.0
C2581 C 0.23749 0.31475 0.97199 0.0
H2582 H 0.2003 0.28564 0.94837 0.0
H2583 H 0.24287 0.35056 0.94304 0.0
C2584 C 0.20764 0.33223 0.87744 0.0
N2585 N 0.22386 0.35115 0.85227 0.0
C2586 C 0.19517 0.35204 0.87123 0.0
C2587 C 0.22823 0.32189 0.87079 0.0
C2588 C 0.20368 0.36136 0.85851 0.0
C2589 C 0.23619 0.33177 0.8581 0.0
C2590 C 0.15929 0.30373 0.92607 0.0
C2591 C 0.14115 0.28627 0.92271 0.0
C2592 C 0.15566 0.31969 0.93735 0.0
C2593 C 0.11942 0.28535 0.93059 0.0
C2594 C 0.13369 0.31817 0.94498 0.0
N2595 N 0.11616 0.30119 0.94146 0.0
C2596 C 0.19268 0.24385 0.90398 0.0
C2597 C 0.19696 0.26108 0.88137 0.0
C2598 C 0.18487 0.22129 0.8983 0.0
N2599 N 0.19823 0.26321 0.89548 0.0
C2600 C 0.18929 0.23893 0.87526 0.0
C2601 C 0.18275 0.2188 0.88375 0.0
H2602 H 0.19336 0.24625 0.91518 0.0
H2603 H 0.20103 0.27687 0.87485 0.0
C2604 C 0.15417 0.37894 0.90077 0.0
N2605 N 0.15346 0.354 0.90269 0.0
C2606 C 0.13325 0.39154 0.89589 0.0
C2607 C 0.11123 0.35261 0.89531 0.0
C2608 C 0.13258 0.34077 0.90007 0.0
C2609 C 0.11144 0.37829 0.89299 0.0
H2610 H 0.17127 0.3889 0.90246 0.0
H2611 H 0.13274 0.32088 0.90121 0.0
O2612 O 0.23529 0.30264 0.91298 0.0
O2613 O 0.20999 0.35371 0.91633 0.0
O2614 O 0.19985 0.32314 0.89001 0.0
O2615 O 0.18063 0.30492 0.91844 0.0
H2616 H 0.27151 0.30723 0.93134 0.0
H2617 H 0.25065 0.27437 0.89215 0.0
H2618 H 0.31306 0.28801 0.92899 0.0
H2619 H 0.29259 0.25582 0.89045 0.0
H2620 H 0.17575 0.41166 0.94481 0.0
H2621 H 0.24956 0.38209 0.91943 0.0
H2622 H 0.17292 0.37322 0.93075 0.0
H2623 H 0.25094 0.42056 0.93354 0.0
H2624 H 0.31617 0.35564 0.89011 0.0
H2625 H 0.25956 0.40889 0.87961 0.0
H2626 H 0.21484 0.28156 0.97273 0.0
H2627 H 0.25699 0.34893 0.96729 0.0
H2628 H 0.17915 0.36019 0.87619 0.0
H2629 H 0.23816 0.30663 0.87549 0.0
H2630 H 0.19427 0.37676 0.85361 0.0
H2631 H 0.25221 0.32408 0.85289 0.0
H2632 H 0.14379 0.2737 0.91404 0.0
H2633 H 0.16972 0.33297 0.94023 0.0
H2634 H 0.10514 0.27203 0.92806 0.0
H2635 H 0.1306 0.33044 0.95373 0.0
H2636 H 0.17949 0.20639 0.90522 0.0
H2637 H 0.18787 0.23774 0.86401 0.0
H2638 H 0.13447 0.41123 0.89389 0.0
H2639 H 0.09484 0.34168 0.89319 0.0
Li2640 Li 0.42775 0.46088 0.67472 0.0
Li2641 Li 0.41432 0.4787 0.65376 0.0
Li2642 Li 0.40963 0.43379 0.65685 0.0
Li2643 Li 0.45232 0.45446 0.65341 0.0
C2644 C 0.37775 0.47178 0.67632 0.0
N2645 N 0.34609 0.49463 0.69491 0.0
C2646 C 0.38151 0.4965 0.68004 0.0
C2647 C 0.35784 0.45869 0.68198 0.0
C2648 C 0.36532 0.50773 0.68947 0.0
C2649 C 0.34205 0.47057 0.69139 0.0
C2650 C 0.45507 0.50852 0.66113 0.0
C2651 C 0.48063 0.53653 0.64783 0.0
N2652 N 0.47357 0.55545 0.65631 0.0
C2653 C 0.44833 0.52818 0.66982 0.0
C2654 C 0.47156 0.51265 0.65013 0.0
C2655 C 0.45777 0.5518 0.66716 0.0
C2656 C 0.44943 0.48139 0.69875 0.0
N2657 N 0.43064 0.46657 0.69437 0.0
C2658 C 0.41498 0.46347 0.71762 0.0
C2659 C 0.41379 0.45724 0.7035 0.0
C2660 C 0.4339 0.4792 0.72242 0.0
C2661 C 0.45141 0.48799 0.71279 0.0
H2662 H 0.46271 0.4884 0.6913 0.0
H2663 H 0.39911 0.44536 0.69977 0.0
C2664 C 0.37138 0.50277 0.64523 0.0
N2665 N 0.39634 0.50603 0.6457 0.0
C2666 C 0.35602 0.52134 0.64004 0.0
C2667 C 0.39225 0.54627 0.63548 0.0
C2668 C 0.40696 0.5271 0.6407 0.0
C2669 C 0.36642 0.54355 0.63525 0.0
H2670 H 0.36335 0.48563 0.6489 0.0
H2671 H 0.42678 0.52908 0.6406 0.0
C2672 C 0.44625 0.41757 0.67973 0.0
N2673 N 0.4557 0.39654 0.70544 0.0
C2674 C 0.46904 0.42145 0.68627 0.0
C2675 C 0.42828 0.40294 0.68622 0.0
C2676 C 0.47345 0.41068 0.69928 0.0
C2677 C 0.43342 0.39247 0.69923 0.0
C2678 C 0.41578 0.46248 0.6283 0.0
C2679 C 0.39182 0.45799 0.62342 0.0
C2680 C 0.43129 0.47865 0.621 0.0
C2681 C 0.38365 0.47 0.61136 0.0
C2682 C 0.42244 0.49028 0.60898 0.0
N2683 N 0.39899 0.48577 0.60446 0.0
C2684 C 0.36691 0.40592 0.64918 0.0
C2685 C 0.40461 0.38359 0.65068 0.0
C2686 C 0.35461 0.38489 0.6442 0.0
N2687 N 0.39151 0.4049 0.65214 0.0
C2688 C 0.39306 0.36216 0.64581 0.0
C2689 C 0.3678 0.36269 0.64232 0.0
H2690 H 0.35706 0.42325 0.65026 0.0
H2691 H 0.42421 0.38343 0.653 0.0
C2692 C 0.50488 0.45158 0.65312 0.0
N2693 N 0.48389 0.44793 0.64556 0.0
C2694 C 0.52776 0.44386 0.64786 0.0
C2695 C 0.50703 0.42969 0.62698 0.0
C2696 C 0.48457 0.43753 0.63266 0.0
C2697 C 0.52889 0.43231 0.63474 0.0
H2698 H 0.50374 0.4599 0.66336 0.0
H2699 H 0.46754 0.4346 0.62697 0.0
O2700 O 0.39354 0.46031 0.66724 0.0
O2701 O 0.4463 0.48521 0.6637 0.0
O2702 O 0.44125 0.42861 0.66722 0.0
O2703 O 0.4238 0.45163 0.64036 0.0
H2704 H 0.39676 0.50687 0.67569 0.0
H2705 H 0.35472 0.43952 0.67919 0.0
H2706 H 0.36803 0.52684 0.69247 0.0
H2707 H 0.3266 0.46066 0.69589 0.0
H2708 H 0.49327 0.54002 0.63931 0.0
H2709 H 0.43605 0.52525 0.67858 0.0
H2710 H 0.4772 0.49765 0.64339 0.0
H2711 H 0.45261 0.5672 0.67376 0.0
H2712 H 0.40084 0.45662 0.72463 0.0
H2713 H 0.46637 0.5 0.71607 0.0
H2714 H 0.33617 0.51849 0.63993 0.0
H2715 H 0.40097 0.56291 0.63152 0.0
H2716 H 0.48305 0.43288 0.68142 0.0
H2717 H 0.41045 0.39998 0.68135 0.0
H2718 H 0.49095 0.41362 0.70451 0.0
H2719 H 0.41966 0.38121 0.70441 0.0
H2720 H 0.37956 0.44563 0.62899 0.0
H2721 H 0.44986 0.48235 0.62466 0.0
H2722 H 0.36509 0.46684 0.60752 0.0
H2723 H 0.43417 0.50296 0.60327 0.0
H2724 H 0.33524 0.38623 0.64138 0.0
H2725 H 0.40387 0.34541 0.64459 0.0
H2726 H 0.54431 0.44647 0.65407 0.0
H2727 H 0.50716 0.42074 0.61687 0.0
Li2728 Li 0.26962 0.66466 0.40317 0.0
Li2729 Li 0.2887 0.67717 0.42518 0.0
Li2730 Li 0.29684 0.69994 0.40299 0.0
Li2731 Li 0.31433 0.65856 0.40682 0.0
C2732 C 0.24028 0.69916 0.41285 0.0
N2733 N 0.1893 0.70218 0.41141 0.0
C2734 C 0.22581 0.6919 0.42422 0.0
C2735 C 0.22886 0.70818 0.4008 0.0
C2736 C 0.20005 0.69352 0.42328 0.0
C2737 C 0.20305 0.7095 0.40026 0.0
C2738 C 0.29183 0.61879 0.41723 0.0
C2739 C 0.31328 0.58359 0.42694 0.0
N2740 N 0.30413 0.5691 0.41655 0.0
C2741 C 0.2826 0.60351 0.40666 0.0
C2742 C 0.30725 0.60872 0.42748 0.0
C2743 C 0.28903 0.57846 0.4065 0.0
C2744 C 0.23715 0.64678 0.38195 0.0
N2745 N 0.24071 0.64922 0.39591 0.0
C2746 C 0.20589 0.62332 0.4007 0.0
C2747 C 0.22545 0.63809 0.40528 0.0
C2748 C 0.20213 0.61986 0.38635 0.0
C2749 C 0.2178 0.63211 0.3769 0.0
H2750 H 0.24997 0.65525 0.37474 0.0
H2751 H 0.22914 0.63985 0.41632 0.0
C2752 C 0.2819 0.70231 0.45107 0.0
N2753 N 0.28293 0.67982 0.44472 0.0
C2754 C 0.27552 0.70404 0.4652 0.0
C2755 C 0.27171 0.65947 0.46592 0.0
C2756 C 0.27795 0.65862 0.45181 0.0
C2757 C 0.27039 0.68239 0.47278 0.0
H2758 H 0.28558 0.71891 0.4451 0.0
H2759 H 0.27823 0.64106 0.44643 0.0
C2760 C 0.30315 0.68147 0.37764 0.0
N2761 N 0.3165 0.70412 0.35292 0.0
C2762 C 0.32711 0.6786 0.37238 0.0
C2763 C 0.28593 0.69571 0.37029 0.0
C2764 C 0.33351 0.69023 0.35987 0.0
C2765 C 0.29306 0.70707 0.35783 0.0
C2766 C 0.3372 0.6943 0.42779 0.0
C2767 C 0.34883 0.71739 0.4283 0.0
C2768 C 0.34254 0.67655 0.43796 0.0
C2769 C 0.36587 0.72224 0.43892 0.0
C2770 C 0.35958 0.68215 0.44845 0.0
N2771 N 0.37084 0.70467 0.4487 0.0
C2772 C 0.29016 0.75063 0.39395 0.0
C2773 C 0.32967 0.73248 0.39063 0.0
C2774 C 0.29854 0.77301 0.38825 0.0
N2775 N 0.30584 0.73102 0.39506 0.0
C2776 C 0.33866 0.75424 0.3847 0.0
C2777 C 0.3232 0.77507 0.38368 0.0
H2778 H 0.27131 0.74899 0.39763 0.0
H2779 H 0.34175 0.71663 0.39173 0.0
C2780 C 0.33859 0.62024 0.39253 0.0
N2781 N 0.34212 0.63835 0.40218 0.0
C2782 C 0.35865 0.60667 0.38745 0.0
C2783 C 0.3857 0.63064 0.4023 0.0
C2784 C 0.36507 0.64362 0.40718 0.0
C2785 C 0.38267 0.61222 0.3921 0.0
H2786 H 0.32029 0.61694 0.38838 0.0
H2787 H 0.36759 0.65852 0.41453 0.0
O2788 O 0.26549 0.69721 0.41347 0.0
O2789 O 0.28598 0.64347 0.41749 0.0
O2790 O 0.29663 0.67058 0.38999 0.0
O2791 O 0.32085 0.68906 0.41731 0.0
H2792 H 0.23436 0.68483 0.43362 0.0
H2793 H 0.2398 0.71396 0.39194 0.0
H2794 H 0.1886 0.68783 0.43196 0.0
H2795 H 0.19394 0.71631 0.39097 0.0
H2796 H 0.32525 0.5756 0.43479 0.0
H2797 H 0.27096 0.61091 0.39851 0.0
H2798 H 0.31455 0.62015 0.43576 0.0
H2799 H 0.28213 0.56649 0.39833 0.0
H2800 H 0.19426 0.61411 0.4083 0.0
H2801 H 0.21589 0.62941 0.36576 0.0
H2802 H 0.27457 0.72206 0.47013 0.0
H2803 H 0.26732 0.64241 0.47133 0.0
H2804 H 0.34073 0.66778 0.37795 0.0
H2805 H 0.26734 0.69817 0.37423 0.0
H2806 H 0.35202 0.68827 0.35571 0.0
H2807 H 0.27997 0.71827 0.35207 0.0
H2808 H 0.34489 0.73134 0.42051 0.0
H2809 H 0.33368 0.65863 0.4377 0.0
H2810 H 0.37515 0.73997 0.43939 0.0
H2811 H 0.36391 0.66856 0.45638 0.0
H2812 H 0.28602 0.78863 0.38765 0.0
H2813 H 0.35755 0.75469 0.38093 0.0
H2814 H 0.35545 0.59238 0.37974 0.0
H2815 H 0.40394 0.63565 0.40606 0.0
C2816 C 0.42718 0.01251 0.26062 0.0
C2817 C 0.43474 0.98835 0.2641 0.0
C2818 C 0.42766 0.02082 0.24676 0.0
C2819 C 0.43528 0.00509 0.2359 0.0
H2820 H 0.42076 0.02502 0.26868 0.0
H2821 H 0.4214 0.03944 0.24447 0.0
S2822 S 0.45729 0.9404 0.23956 0.0
N2823 N 0.45062 0.94905 0.25566 0.0
N2824 N 0.45113 0.96453 0.22955 0.0
C2825 C 0.44315 0.98101 0.23926 0.0
C2826 C 0.44302 0.97269 0.25339 0.0
C2827 C 0.25253 0.19814 0.50739 0.0
C2828 C 0.25784 0.17574 0.51426 0.0
C2829 C 0.24434 0.19838 0.49349 0.0
C2830 C 0.24148 0.17625 0.48591 0.0
H2831 H 0.25446 0.2156 0.51284 0.0
H2832 H 0.24056 0.21604 0.48857 0.0
S2833 S 0.25304 0.11272 0.49912 0.0
N2834 N 0.25981 0.1309 0.51243 0.0
N2835 N 0.24429 0.13133 0.48637 0.0
C2836 C 0.24675 0.15374 0.49267 0.0
C2837 C 0.25492 0.15349 0.50683 0.0
C2838 C 0.07459 0.02277 0.75534 0.0
C2839 C 0.06536 0.00694 0.76576 0.0
C2840 C 0.07552 0.01521 0.74135 0.0
C2841 C 0.06687 0.99172 0.73725 0.0
H2842 H 0.08167 0.0409 0.75808 0.0
H2843 H 0.08306 0.02784 0.73366 0.0
S2844 S 0.04013 0.94378 0.76046 0.0
N2845 N 0.04686 0.967 0.77101 0.0
N2846 N 0.04842 0.95288 0.74469 0.0
C2847 C 0.05712 0.97595 0.74753 0.0
C2848 C 0.05646 0.98352 0.76179 0.0
C2849 C 0.23465 0.83127 0.99033 0.0
C2850 C 0.25622 0.81859 0.98621 0.0
C2851 C 0.22661 0.83096 0.00424 0.0
C2852 C 0.24005 0.81827 0.01457 0.0
H2853 H 0.2239 0.84149 0.98272 0.0
H2854 H 0.21008 0.84121 0.007 0.0
S2855 S 0.29752 0.78191 0.00916 0.0
N2856 N 0.29068 0.79278 0.99353 0.0
N2857 N 0.2756 0.79219 0.01968 0.0
C2858 C 0.2615 0.80532 0.01056 0.0
C2859 C 0.26955 0.80546 0.99638 0.0
C2860 C 0.54956 0.99084 0.75665 0.0
C2861 C 0.56965 0.99442 0.76576 0.0
C2862 C 0.55025 0.99975 0.74289 0.0
C2863 C 0.57098 0.01272 0.73778 0.0
H2864 H 0.53342 0.98061 0.76009 0.0
H2865 H 0.53466 0.99595 0.73611 0.0
S2866 S 0.62702 0.02959 0.75809 0.0
N2867 N 0.60997 0.01342 0.76911 0.0
N2868 N 0.61116 0.03049 0.74337 0.0
C2869 C 0.59081 0.01714 0.74698 0.0
C2870 C 0.59016 0.00792 0.76093 0.0
C2871 C 0.73388 0.79852 0.49702 0.0
C2872 C 0.74267 0.81581 0.4872 0.0
C2873 C 0.74255 0.79855 0.51085 0.0
C2874 C 0.76025 0.81592 0.51534 0.0
H2875 H 0.7197 0.78531 0.49411 0.0
H2876 H 0.7348 0.7854 0.51818 0.0
S2877 S 0.79156 0.8629 0.49335 0.0
N2878 N 0.77193 0.84912 0.48267 0.0
N2879 N 0.78781 0.84939 0.50865 0.0
C2880 C 0.76985 0.83266 0.50552 0.0
C2881 C 0.76117 0.83256 0.49146 0.0
C2882 C 0.94291 0.02085 0.25616 0.0
C2883 C 0.93331 0.00549 0.26669 0.0
C2884 C 0.94316 0.01319 0.24217 0.0
C2885 C 0.93402 0.9898 0.23819 0.0
H2886 H 0.94966 0.0392 0.25868 0.0
H2887 H 0.95044 0.02578 0.23438 0.0
S2888 S 0.90811 0.94212 0.26192 0.0
N2889 N 0.91559 0.96532 0.27231 0.0
N2890 N 0.9156 0.95115 0.24602 0.0
C2891 C 0.92496 0.97402 0.24868 0.0
C2892 C 0.92467 0.98183 0.26292 0.0
C2893 C 0.77185 0.17506 0.99738 0.0
C2894 C 0.75956 0.18903 0.98712 0.0
C2895 C 0.7636 0.17483 0.01123 0.0
C2896 C 0.74262 0.18845 0.01538 0.0
H2897 H 0.78794 0.1641 0.99465 0.0
H2898 H 0.77369 0.16378 0.01876 0.0
S2899 S 0.70338 0.22736 0.99239 0.0
N2900 N 0.7252 0.21658 0.98197 0.0
N2901 N 0.7095 0.21598 0.00801 0.0
C2902 C 0.7303 0.20272 0.00525 0.0
C2903 C 0.7388 0.20303 0.99113 0.0
C2904 C 0.94922 0.50608 0.74379 0.0
C2905 C 0.92717 0.50786 0.73603 0.0
C2906 C 0.94901 0.49815 0.75774 0.0
C2907 C 0.92673 0.49189 0.76449 0.0
H2908 H 0.96682 0.51052 0.73899 0.0
H2909 H 0.96642 0.49718 0.76333 0.0
S2910 S 0.8639 0.49363 0.74883 0.0
N2911 N 0.88239 0.5032 0.73623 0.0
N2912 N 0.88207 0.4877 0.76226 0.0
C2913 C 0.90455 0.49363 0.75685 0.0
C2914 C 0.90476 0.50173 0.74267 0.0
C2915 C 0.73417 0.67769 0.01206 0.0
C2916 C 0.75941 0.67975 0.01556 0.0
C2917 C 0.72637 0.67767 0.9981 0.0
C2918 C 0.74354 0.67939 0.98711 0.0
H2919 H 0.72033 0.67619 0.02019 0.0
H2920 H 0.70679 0.67587 0.99588 0.0
S2921 S 0.81168 0.68541 0.99069 0.0
N2922 N 0.80151 0.68367 0.0069 0.0
N2923 N 0.78686 0.68379 0.98067 0.0
C2924 C 0.76881 0.68161 0.99047 0.0
C2925 C 0.77673 0.68181 0.00468 0.0
C2926 C 0.5659 0.52565 0.25358 0.0
C2927 C 0.56513 0.50833 0.26452 0.0
C2928 C 0.5663 0.51793 0.23961 0.0
C2929 C 0.56558 0.49264 0.23608 0.0
H2930 H 0.56683 0.54528 0.25585 0.0
H2931 H 0.56724 0.53187 0.2315 0.0
S2932 S 0.56239 0.44001 0.26085 0.0
N2933 N 0.56281 0.46484 0.27091 0.0
N2934 N 0.56359 0.45035 0.24465 0.0
C2935 C 0.56423 0.47518 0.24691 0.0
C2936 C 0.56404 0.48302 0.26113 0.0
C2937 C 0.7496 0.3019 0.50785 0.0
C2938 C 0.73824 0.32295 0.51366 0.0
C2939 C 0.75785 0.30186 0.49396 0.0
C2940 C 0.75462 0.32271 0.48537 0.0
H2941 H 0.75251 0.28552 0.51416 0.0
H2942 H 0.76657 0.28532 0.48987 0.0
S2943 S 0.7257 0.3823 0.49553 0.0
N2944 N 0.72405 0.36508 0.50974 0.0
N2945 N 0.73938 0.36493 0.48363 0.0
C2946 C 0.74312 0.34378 0.49102 0.0
C2947 C 0.73499 0.34393 0.50517 0.0
C2948 C 0.0473 0.49084 0.25629 0.0
C2949 C 0.06875 0.49135 0.26464 0.0
C2950 C 0.04775 0.49922 0.24242 0.0
C2951 C 0.06968 0.50837 0.23641 0.0
H2952 H 0.03015 0.48348 0.26042 0.0
H2953 H 0.03097 0.49802 0.23627 0.0
S2954 S 0.13006 0.51634 0.25427 0.0
N2955 N 0.11195 0.50375 0.26619 0.0
N2956 N 0.11282 0.51919 0.24013 0.0
C2957 C 0.09104 0.50962 0.24475 0.0
C2958 C 0.09057 0.50119 0.25885 0.0
C2959 C 0.23975 0.30634 0.01146 0.0
C2960 C 0.26467 0.31138 0.01466 0.0
C2961 C 0.23118 0.30699 0.99763 0.0
C2962 C 0.24726 0.31253 0.98649 0.0
H2963 H 0.22664 0.30264 0.01975 0.0
H2964 H 0.21168 0.30381 0.9957 0.0
S2965 S 0.31493 0.32379 0.98932 0.0
N2966 N 0.30568 0.32013 0.0056 0.0
N2967 N 0.28988 0.32066 0.9796 0.0
C2968 C 0.27247 0.31652 0.98956 0.0
C2969 C 0.28108 0.31611 0.00364 0.0
C2970 C 0.43799 0.52086 0.75435 0.0
C2971 C 0.43449 0.50428 0.76548 0.0
C2972 C 0.43807 0.51254 0.74048 0.0
C2973 C 0.43478 0.48731 0.73724 0.0
H2974 H 0.44006 0.54049 0.75635 0.0
H2975 H 0.44017 0.52607 0.73223 0.0
S2976 S 0.42768 0.43611 0.76273 0.0
N2977 N 0.42941 0.46131 0.77244 0.0
N2978 N 0.42985 0.44563 0.74641 0.0
C2979 C 0.43201 0.47046 0.74832 0.0
C2980 C 0.43182 0.47896 0.76242 0.0
C2981 C 0.23442 0.69874 0.50564 0.0
C2982 C 0.24512 0.68316 0.51575 0.0
C2983 C 0.2431 0.69891 0.49183 0.0
C2984 C 0.2628 0.68353 0.48766 0.0
H2985 H 0.21882 0.71039 0.50835 0.0
H2986 H 0.23388 0.71062 0.48427 0.0
S2987 S 0.29921 0.64184 0.51054 0.0
N2988 N 0.27791 0.65373 0.52092 0.0
N2989 N 0.29412 0.654 0.495 0.0
C2990 C 0.27423 0.6686 0.49779 0.0
C2991 C 0.26543 0.66843 0.51182 0.0
C2992 C 0.34729 0.93092 0.11669 0.0
C2993 C 0.35559 0.92994 0.13058 0.0
C2994 C 0.32935 0.91437 0.11177 0.0
C2995 C 0.31902 0.89617 0.12053 0.0
H2996 H 0.35391 0.94526 0.10973 0.0
H2997 H 0.3231 0.91619 0.10108 0.0
S2998 S 0.3361 0.88449 0.15745 0.0
N2999 N 0.35371 0.90803 0.15271 0.0
N3000 N 0.31936 0.8774 0.1436 0.0
C3001 C 0.32795 0.89429 0.13428 0.0
C3002 C 0.34633 0.91109 0.13927 0.0
C3003 C 0.33616 0.10162 0.38056 0.0
C3004 C 0.31142 0.09982 0.37612 0.0
C3005 C 0.3541 0.08482 0.37579 0.0
C3006 C 0.34791 0.06602 0.36625 0.0
H3007 H 0.3415 0.11563 0.38807 0.0
H3008 H 0.37289 0.08643 0.37965 0.0
S3009 S 0.28578 0.0542 0.35114 0.0
N3010 N 0.28173 0.07835 0.36145 0.0
N3011 N 0.31538 0.04686 0.35242 0.0
C3012 C 0.32333 0.06448 0.3615 0.0
C3013 C 0.30508 0.08137 0.36646 0.0
C3014 C 0.16487 0.05926 0.61629 0.0
C3015 C 0.1485 0.06387 0.62739 0.0
C3016 C 0.18184 0.07719 0.61186 0.0
C3017 C 0.18313 0.10058 0.61831 0.0
H3018 H 0.16484 0.04144 0.6111 0.0
H3019 H 0.19457 0.07234 0.60357 0.0
S3020 S 0.14343 0.12249 0.6474 0.0
N3021 N 0.13422 0.09376 0.64458 0.0
N3022 N 0.16552 0.12787 0.63589 0.0
C3023 C 0.16633 0.10575 0.62915 0.0
C3024 C 0.14911 0.08737 0.63374 0.0
C3025 C 0.14213 0.91392 0.87956 0.0
C3026 C 0.14766 0.93148 0.86917 0.0
C3027 C 0.16004 0.89691 0.88411 0.0
C3028 C 0.18404 0.89685 0.8784 0.0
H3029 H 0.12385 0.91334 0.88419 0.0
H3030 H 0.1551 0.88372 0.89216 0.0
S3031 S 0.20846 0.94038 0.85184 0.0
N3032 N 0.17927 0.94866 0.85391 0.0
N3033 N 0.21276 0.91661 0.86239 0.0
C3034 C 0.18982 0.9144 0.86809 0.0
C3035 C 0.17168 0.93173 0.86349 0.0
C3036 C 0.68414 0.07523 0.88875 0.0
C3037 C 0.68434 0.09924 0.88305 0.0
C3038 C 0.66739 0.0573 0.88403 0.0
C3039 C 0.65006 0.06274 0.87352 0.0
H3040 H 0.69747 0.07005 0.89667 0.0
H3041 H 0.66812 0.03895 0.88858 0.0
S3042 S 0.64233 0.12308 0.85556 0.0
N3043 N 0.66521 0.12779 0.86668 0.0
N3044 N 0.63382 0.09395 0.8577 0.0
C3045 C 0.64968 0.08682 0.86794 0.0
C3046 C 0.66685 0.10507 0.8727 0.0
C3047 C 0.67711 0.93408 0.63952 0.0
C3048 C 0.65384 0.93555 0.63296 0.0
C3049 C 0.69498 0.91704 0.63505 0.0
C3050 C 0.69013 0.90065 0.62399 0.0
H3051 H 0.68181 0.9467 0.64789 0.0
H3052 H 0.71284 0.91684 0.6402 0.0
S3053 S 0.63178 0.89633 0.60375 0.0
N3054 N 0.62661 0.91864 0.61517 0.0
N3055 N 0.66027 0.88656 0.60676 0.0
C3056 C 0.66674 0.90148 0.61758 0.0
C3057 C 0.64861 0.91898 0.62205 0.0
C3058 C 0.83377 0.89883 0.38413 0.0
C3059 C 0.80844 0.90113 0.38095 0.0
C3060 C 0.85085 0.91692 0.37987 0.0
C3061 C 0.84306 0.93809 0.37254 0.0
H3062 H 0.8404 0.88295 0.38993 0.0
H3063 H 0.87019 0.91457 0.38256 0.0
S3064 S 0.7788 0.95273 0.36166 0.0
N3065 N 0.77644 0.92613 0.37004 0.0
N3066 N 0.80848 0.96002 0.36201 0.0
C3067 C 0.81781 0.94048 0.36925 0.0
C3068 C 0.80052 0.92202 0.37345 0.0
C3069 C 0.81518 0.07412 0.11364 0.0
C3070 C 0.81357 0.09756 0.11997 0.0
C3071 C 0.83244 0.05653 0.11821 0.0
C3072 C 0.84893 0.06188 0.12915 0.0
H3073 H 0.80254 0.06908 0.10533 0.0
H3074 H 0.83281 0.03855 0.1132 0.0
S3075 S 0.85284 0.12082 0.14887 0.0
N3076 N 0.83039 0.12545 0.13746 0.0
N3077 N 0.86284 0.09234 0.14609 0.0
C3078 C 0.84789 0.08542 0.13537 0.0
C3079 C 0.83017 0.10325 0.1308 0.0
C3080 C 0.81036 0.4175 0.63004 0.0
C3081 C 0.81648 0.39698 0.62172 0.0
C3082 C 0.82868 0.43348 0.63506 0.0
C3083 C 0.85381 0.42968 0.63185 0.0
H3084 H 0.7912 0.42133 0.63261 0.0
H3085 H 0.82303 0.44931 0.64123 0.0
S3086 S 0.87956 0.37831 0.61071 0.0
N3087 N 0.84937 0.37337 0.61067 0.0
N3088 N 0.88396 0.40354 0.62014 0.0
C3089 C 0.86024 0.40905 0.62369 0.0
C3090 C 0.84154 0.39261 0.61866 0.0
C3091 C 0.83879 0.56164 0.88368 0.0
C3092 C 0.85149 0.56517 0.87103 0.0
C3093 C 0.82084 0.57853 0.88821 0.0
C3094 C 0.81481 0.59963 0.88028 0.0
H3095 H 0.84216 0.54527 0.88993 0.0
H3096 H 0.8114 0.57485 0.89796 0.0
S3097 S 0.84385 0.61818 0.84678 0.0
N3098 N 0.85799 0.59216 0.85106 0.0
N3099 N 0.82359 0.62348 0.85932 0.0
C3100 C 0.82788 0.60377 0.8678 0.0
C3101 C 0.84631 0.58662 0.86322 0.0
C3102 C 0.68289 0.57908 0.11513 0.0
C3103 C 0.68429 0.60281 0.12116 0.0
C3104 C 0.66524 0.56181 0.11957 0.0
C3105 C 0.64839 0.56754 0.13026 0.0
H3106 H 0.69595 0.57357 0.10713 0.0
H3107 H 0.66526 0.54357 0.11486 0.0
S3108 S 0.64278 0.6277 0.14861 0.0
N3109 N 0.66618 0.63166 0.13775 0.0
N3110 N 0.63315 0.59898 0.14621 0.0
C3111 C 0.64919 0.59133 0.13618 0.0
C3112 C 0.66711 0.609 0.13162 0.0
C3113 C 0.69224 0.41968 0.36736 0.0
C3114 C 0.68623 0.40052 0.3767 0.0
C3115 C 0.67425 0.43634 0.36266 0.0
C3116 C 0.6495 0.43455 0.36713 0.0
H3117 H 0.71112 0.42199 0.36376 0.0
H3118 H 0.67995 0.45118 0.35577 0.0
S3119 S 0.62389 0.38707 0.39108 0.0
N3120 N 0.65366 0.38037 0.39004 0.0
N3121 N 0.61964 0.41139 0.38091 0.0
C3122 C 0.64306 0.41511 0.37619 0.0
C3123 C 0.66145 0.39812 0.38101 0.0
C3124 C 0.1666 0.55972 0.38218 0.0
C3125 C 0.14996 0.56495 0.37129 0.0
C3126 C 0.18298 0.57778 0.38715 0.0
C3127 C 0.18348 0.60172 0.38136 0.0
H3128 H 0.16701 0.54148 0.38688 0.0
H3129 H 0.19576 0.57276 0.39539 0.0
S3130 S 0.1434 0.62492 0.3528 0.0
N3131 N 0.13481 0.59582 0.35492 0.0
N3132 N 0.16548 0.6299 0.36439 0.0
C3133 C 0.16675 0.60729 0.37057 0.0
C3134 C 0.14997 0.58891 0.36554 0.0
C3135 C 0.19145 0.41326 0.13081 0.0
C3136 C 0.18494 0.39616 0.12037 0.0
C3137 C 0.17485 0.43159 0.13517 0.0
C3138 C 0.15105 0.43355 0.1293 0.0
H3139 H 0.20978 0.41294 0.13539 0.0
H3140 H 0.18078 0.44444 0.14318 0.0
S3141 S 0.12457 0.39266 0.10202 0.0
N3142 N 0.1527 0.38164 0.10467 0.0
N3143 N 0.12163 0.41651 0.11268 0.0
C3144 C 0.14408 0.41625 0.11906 0.0
C3145 C 0.16102 0.39753 0.11461 0.0
C3146 C 0.32665 0.42872 0.86132 0.0
C3147 C 0.34448 0.43821 0.87058 0.0
C3148 C 0.30925 0.41114 0.86576 0.0
C3149 C 0.30946 0.40215 0.87952 0.0
H3150 H 0.32576 0.43539 0.85067 0.0
H3151 H 0.29549 0.40456 0.85842 0.0
S3152 S 0.35277 0.42059 0.90765 0.0
N3153 N 0.36157 0.43711 0.89401 0.0
N3154 N 0.32906 0.40375 0.90231 0.0
C3155 C 0.32748 0.41113 0.88879 0.0
C3156 C 0.34494 0.42927 0.88433 0.0
C3157 C 0.33209 0.55794 0.6198 0.0
C3158 C 0.35017 0.5635 0.62988 0.0
C3159 C 0.31568 0.57609 0.615 0.0
C3160 C 0.31656 0.60045 0.62017 0.0
H3161 H 0.33056 0.53935 0.61564 0.0
H3162 H 0.3018 0.57086 0.60739 0.0
S3163 S 0.3607 0.62463 0.64648 0.0
N3164 N 0.36822 0.59514 0.64478 0.0
N3165 N 0.33735 0.62937 0.63567 0.0
C3166 C 0.33471 0.60636 0.63014 0.0
C3167 C 0.35157 0.58788 0.63497 0.0
C3168 C 0.33684 0.15612 0.12621 0.0
C3169 C 0.34989 0.15621 0.13893 0.0
C3170 C 0.32641 0.17788 0.1208 0.0
C3171 C 0.32895 0.20058 0.12782 0.0
H3172 H 0.33511 0.13915 0.12026 0.0
H3173 H 0.31717 0.17713 0.11077 0.0
S3174 S 0.36006 0.21059 0.16184 0.0
N3175 N 0.36377 0.18076 0.15869 0.0
N3176 N 0.34415 0.22166 0.14851 0.0
C3177 C 0.34119 0.20079 0.14077 0.0
C3178 C 0.35162 0.1786 0.14634 0.0
C3179 C 0.0681 0.11624 0.387 0.0
C3180 C 0.09112 0.10431 0.38556 0.0
C3181 C 0.04634 0.10573 0.38172 0.0
C3182 C 0.04653 0.08269 0.37484 0.0
H3183 H 0.06681 0.13391 0.39229 0.0
H3184 H 0.02923 0.11598 0.3829 0.0
S3185 S 0.10187 0.04357 0.36843 0.0
N3186 N 0.11283 0.06821 0.37655 0.0
N3187 N 0.07169 0.04792 0.36718 0.0
C3188 C 0.06936 0.07038 0.37343 0.0
C3189 C 0.09165 0.08123 0.37871 0.0
C3190 C 0.13809 0.8306 0.62628 0.0
C3191 C 0.15042 0.84319 0.63706 0.0
C3192 C 0.14827 0.80937 0.62019 0.0
C3193 C 0.1711 0.79968 0.62472 0.0
H3194 H 0.12038 0.83724 0.62251 0.0
H3195 H 0.13807 0.80041 0.61188 0.0
S3196 S 0.21052 0.82569 0.65287 0.0
N3197 N 0.18664 0.84474 0.65202 0.0
N3198 N 0.20563 0.80436 0.64083 0.0
C3199 C 0.18379 0.81231 0.63541 0.0
C3200 C 0.17347 0.83415 0.64153 0.0
C3201 C 0.44941 0.89586 0.8803 0.0
C3202 C 0.45078 0.92105 0.87663 0.0
C3203 C 0.42793 0.88585 0.88622 0.0
C3204 C 0.40694 0.90061 0.88873 0.0
H3205 H 0.46495 0.88366 0.87836 0.0
H3206 H 0.42759 0.86623 0.88858 0.0
S3207 S 0.40165 0.96805 0.882 0.0
N3208 N 0.42975 0.96083 0.87655 0.0
N3209 N 0.38929 0.94198 0.88773 0.0
C3210 C 0.40816 0.92592 0.8853 0.0
C3211 C 0.43008 0.93613 0.87924 0.0
C3212 C 0.31926 0.81218 0.36793 0.0
C3213 C 0.33297 0.79872 0.37789 0.0
C3214 C 0.32888 0.83378 0.3618 0.0
C3215 C 0.35257 0.84247 0.36534 0.0
H3216 H 0.30123 0.80567 0.36461 0.0
H3217 H 0.31797 0.84346 0.35404 0.0
S3218 S 0.39476 0.81595 0.39187 0.0
N3219 N 0.37056 0.79726 0.39189 0.0
N3220 N 0.38877 0.83729 0.38002 0.0
C3221 C 0.36615 0.82968 0.37551 0.0
C3222 C 0.35632 0.80795 0.38187 0.0
C3223 C 0.41218 0.10063 0.62984 0.0
C3224 C 0.4071 0.09913 0.61546 0.0
C3225 C 0.43361 0.08997 0.63551 0.0
C3226 C 0.4509 0.07778 0.62697 0.0
H3227 H 0.39961 0.11039 0.63671 0.0
H3228 H 0.43712 0.09206 0.64657 0.0
S3229 S 0.44581 0.06801 0.58879 0.0
N3230 N 0.42064 0.08378 0.59291 0.0
N3231 N 0.46109 0.06395 0.60355 0.0
C3232 C 0.44576 0.07567 0.61264 0.0
C3233 C 0.4238 0.08625 0.6069 0.0
C3234 C 0.1407 0.17754 0.86213 0.0
C3235 C 0.14839 0.15351 0.86574 0.0
C3236 C 0.15225 0.19845 0.86782 0.0
C3237 C 0.17181 0.19617 0.87744 0.0
H3238 H 0.12554 0.18019 0.85488 0.0
H3239 H 0.14543 0.21659 0.86488 0.0
S3240 S 0.19908 0.13738 0.89022 0.0
N3241 N 0.17686 0.12857 0.87947 0.0
N3242 N 0.19872 0.16796 0.8901 0.0
C3243 C 0.17984 0.17225 0.88105 0.0
C3244 C 0.16816 0.15092 0.87518 0.0
C3245 C 0.08769 0.89495 0.12965 0.0
C3246 C 0.09702 0.90242 0.11661 0.0
C3247 C 0.06684 0.90636 0.13551 0.0
C3248 C 0.05437 0.92552 0.12848 0.0
H3249 H 0.09648 0.88001 0.13534 0.0
H3250 H 0.05997 0.89959 0.14542 0.0
S3251 S 0.07188 0.95258 0.09432 0.0
N3252 N 0.09263 0.93063 0.09702 0.0
N3253 N 0.05343 0.95218 0.10806 0.0
C3254 C 0.06381 0.93354 0.11557 0.0
C3255 C 0.08517 0.92202 0.10965 0.0
C3256 C 0.66048 0.7994 0.86322 0.0
C3257 C 0.6687 0.79911 0.87718 0.0
C3258 C 0.65001 0.82071 0.8573 0.0
C3259 C 0.64769 0.84266 0.86504 0.0
H3260 H 0.662 0.78295 0.85681 0.0
H3261 H 0.64357 0.82 0.8466 0.0
S3262 S 0.66532 0.85175 0.90204 0.0
N3263 N 0.67289 0.82273 0.89868 0.0
N3264 N 0.65394 0.86294 0.88735 0.0
C3265 C 0.6561 0.84286 0.8789 0.0
C3266 C 0.66646 0.82107 0.88501 0.0
C3267 C 0.9381 0.92695 0.6206 0.0
C3268 C 0.95443 0.91284 0.62884 0.0
C3269 C 0.91682 0.91625 0.61468 0.0
C3270 C 0.91119 0.89108 0.61679 0.0
H3271 H 0.94209 0.94623 0.61846 0.0
H3272 H 0.90496 0.92762 0.6082 0.0
S3273 S 0.94626 0.84702 0.63895 0.0
N3274 N 0.9623 0.873 0.63978 0.0
N3275 N 0.92248 0.85295 0.62865 0.0
C3276 C 0.92694 0.87703 0.62537 0.0
C3277 C 0.9485 0.88789 0.63139 0.0
C3278 C 0.83957 0.18488 0.384 0.0
C3279 C 0.82468 0.20047 0.37578 0.0
C3280 C 0.85012 0.16335 0.37844 0.0
C3281 C 0.84615 0.15649 0.36445 0.0
H3282 H 0.84363 0.18968 0.39473 0.0
H3283 H 0.86196 0.15226 0.38509 0.0
S3284 S 0.80677 0.18982 0.33891 0.0
N3285 N 0.80528 0.20688 0.35319 0.0
N3286 N 0.82503 0.16625 0.34274 0.0
C3287 C 0.83085 0.17163 0.35619 0.0
C3288 C 0.82013 0.19363 0.36186 0.0
C3289 C 0.57007 0.11714 0.11405 0.0
C3290 C 0.59181 0.10308 0.11276 0.0
C3291 C 0.5486 0.10697 0.1199 0.0
C3292 C 0.54792 0.08221 0.12454 0.0
H3293 H 0.56986 0.13637 0.11082 0.0
H3294 H 0.53253 0.11879 0.12103 0.0
S3295 S 0.59962 0.03707 0.12229 0.0
N3296 N 0.61131 0.06301 0.11597 0.0
N3297 N 0.5707 0.04347 0.12657 0.0
C3298 C 0.56947 0.06778 0.12298 0.0
C3299 C 0.59145 0.0783 0.11718 0.0
C3300 C 0.67729 0.19311 0.63755 0.0
C3301 C 0.67304 0.2001 0.62364 0.0
C3302 C 0.66659 0.17157 0.6431 0.0
C3303 C 0.651 0.15641 0.63498 0.0
H3304 H 0.68895 0.20442 0.64419 0.0
H3305 H 0.67055 0.16677 0.65384 0.0
S3306 S 0.63255 0.16805 0.59821 0.0
N3307 N 0.65167 0.19093 0.60199 0.0
N3308 N 0.63086 0.15093 0.61245 0.0
C3309 C 0.64646 0.16346 0.62105 0.0
C3310 C 0.65763 0.18519 0.61538 0.0
C3311 C 0.54804 0.91521 0.38959 0.0
C3312 C 0.54628 0.91974 0.37519 0.0
C3313 C 0.56944 0.90467 0.39537 0.0
C3314 C 0.58972 0.89794 0.38694 0.0
H3315 H 0.53264 0.91964 0.39639 0.0
H3316 H 0.56999 0.90154 0.40653 0.0
S3317 S 0.59337 0.9048 0.34843 0.0
N3318 N 0.56609 0.91647 0.35258 0.0
N3319 N 0.60603 0.89586 0.36328 0.0
C3320 C 0.58808 0.90247 0.37249 0.0
C3321 C 0.56641 0.91353 0.36666 0.0
C3322 C 0.83069 0.80789 0.13717 0.0
C3323 C 0.83526 0.80099 0.12326 0.0
C3324 C 0.84205 0.82889 0.143 0.0
C3325 C 0.85825 0.84376 0.13509 0.0
H3326 H 0.8189 0.79652 0.1437 0.0
H3327 H 0.8387 0.83309 0.15388 0.0
S3328 S 0.87339 0.83527 0.0976 0.0
N3329 N 0.85527 0.81159 0.10142 0.0
N3330 N 0.87605 0.85139 0.11216 0.0
C3331 C 0.86195 0.8376 0.12096 0.0
C3332 C 0.85061 0.81614 0.11511 0.0
C3333 C 0.93128 0.08886 0.86808 0.0
C3334 C 0.94918 0.07798 0.87679 0.0
C3335 C 0.90992 0.0998 0.87365 0.0
C3336 C 0.90562 0.1002 0.88814 0.0
H3337 H 0.9342 0.08966 0.85691 0.0
H3338 H 0.89707 0.10872 0.86658 0.0
S3339 S 0.94539 0.07152 0.91524 0.0
N3340 N 0.96031 0.06648 0.90048 0.0
N3341 N 0.92004 0.08683 0.91095 0.0
C3342 C 0.92293 0.08853 0.89691 0.0
C3343 C 0.94472 0.07747 0.89123 0.0
C3344 C 0.84999 0.69733 0.63155 0.0
C3345 C 0.82882 0.69598 0.62301 0.0
C3346 C 0.86125 0.67595 0.63684 0.0
C3347 C 0.85186 0.65226 0.63382 0.0
H3348 H 0.8582 0.71509 0.63403 0.0
H3349 H 0.87746 0.67802 0.64339 0.0
S3350 S 0.79682 0.63842 0.61198 0.0
N3351 N 0.79864 0.66894 0.61196 0.0
N3352 N 0.82026 0.62865 0.62157 0.0
C3353 C 0.83067 0.65057 0.62532 0.0
C3354 C 0.81912 0.67241 0.61995 0.0
C3355 C 0.57064 0.6036 0.89249 0.0
C3356 C 0.59428 0.59917 0.88686 0.0
C3357 C 0.54948 0.59247 0.88681 0.0
C3358 C 0.55108 0.57662 0.87519 0.0
H3359 H 0.56845 0.61591 0.90133 0.0
H3360 H 0.53163 0.59681 0.89134 0.0
S3361 S 0.60863 0.55849 0.85673 0.0
N3362 N 0.61808 0.57758 0.86909 0.0
N3363 N 0.57829 0.5564 0.85853 0.0
C3364 C 0.57462 0.57172 0.86958 0.0
C3365 C 0.59622 0.58299 0.87541 0.0
C3366 C 0.65442 0.34147 0.12378 0.0
C3367 C 0.65033 0.34432 0.13819 0.0
C3368 C 0.66551 0.32004 0.1184 0.0
C3369 C 0.67278 0.30056 0.12723 0.0
H3370 H 0.64862 0.35577 0.11656 0.0
H3371 H 0.66755 0.31833 0.1072 0.0
S3372 S 0.66759 0.29944 0.16581 0.0
N3373 N 0.65533 0.32626 0.16124 0.0
N3374 N 0.67652 0.2861 0.15116 0.0
C3375 C 0.6696 0.30353 0.1417 0.0
C3376 C 0.65835 0.32539 0.14718 0.0
C3377 C 0.90652 0.41528 0.37782 0.0
C3378 C 0.90856 0.39589 0.38757 0.0
C3379 C 0.92764 0.42652 0.3721 0.0
C3380 C 0.95158 0.41893 0.37601 0.0
H3381 H 0.88845 0.42142 0.37434 0.0
H3382 H 0.9252 0.44123 0.36455 0.0
S3383 S 0.96695 0.36937 0.40142 0.0
N3384 N 0.9364 0.37015 0.40122 0.0
N3385 N 0.97604 0.39078 0.39025 0.0
C3386 C 0.95385 0.39979 0.38589 0.0
C3387 C 0.93237 0.38838 0.39171 0.0
C3388 C 0.83486 0.34204 0.87442 0.0
C3389 C 0.84656 0.34193 0.8613 0.0
C3390 C 0.82395 0.32053 0.87986 0.0
C3391 C 0.82471 0.2981 0.87245 0.0
H3392 H 0.83467 0.35875 0.88067 0.0
H3393 H 0.81588 0.32119 0.8902 0.0
S3394 S 0.85176 0.2883 0.83735 0.0
N3395 N 0.85713 0.3178 0.84076 0.0
N3396 N 0.83678 0.27732 0.85104 0.0
C3397 C 0.83553 0.29795 0.85912 0.0
C3398 C 0.84639 0.31989 0.85351 0.0
C3399 C 0.93161 0.57054 0.12425 0.0
C3400 C 0.9543 0.5833 0.12487 0.0
C3401 C 0.91032 0.58187 0.11876 0.0
C3402 C 0.91092 0.60645 0.11389 0.0
H3403 H 0.93035 0.55166 0.12799 0.0
H3404 H 0.89314 0.57152 0.11861 0.0
S3405 S 0.96572 0.64783 0.11321 0.0
N3406 N 0.97602 0.62186 0.12021 0.0
N3407 N 0.93618 0.64296 0.10976 0.0
C3408 C 0.93353 0.61931 0.11437 0.0
C3409 C 0.95517 0.60778 0.11989 0.0
C3410 C 0.64921 0.67913 0.35626 0.0
C3411 C 0.64869 0.65692 0.36389 0.0
C3412 C 0.65956 0.7007 0.36198 0.0
C3413 C 0.67011 0.70064 0.37541 0.0
H3414 H 0.64064 0.68009 0.34606 0.0
H3415 H 0.65885 0.7177 0.35599 0.0
S3416 S 0.67475 0.64675 0.39921 0.0
N3417 N 0.66057 0.6358 0.38524 0.0
N3418 N 0.68026 0.67627 0.39593 0.0
C3419 C 0.67061 0.67828 0.38288 0.0
C3420 C 0.65981 0.65644 0.37715 0.0
C3421 C 0.58173 0.41566 0.61027 0.0
C3422 C 0.59529 0.39827 0.61807 0.0
C3423 C 0.5605 0.42698 0.61582 0.0
C3424 C 0.55237 0.42161 0.62943 0.0
H3425 H 0.58718 0.42004 0.59968 0.0
H3426 H 0.55026 0.43989 0.60937 0.0
S3427 S 0.58211 0.37822 0.65431 0.0
N3428 N 0.59968 0.3769 0.64024 0.0
N3429 N 0.55981 0.39809 0.65065 0.0
C3430 C 0.56616 0.40473 0.63745 0.0
C3431 C 0.5876 0.39306 0.63176 0.0
C3432 C 0.1565 0.34192 0.37677 0.0
C3433 C 0.14745 0.34245 0.36304 0.0
C3434 C 0.167 0.3203 0.38235 0.0
C3435 C 0.16905 0.29852 0.37433 0.0
H3436 H 0.15471 0.35808 0.38339 0.0
H3437 H 0.17285 0.32047 0.39315 0.0
S3438 S 0.15069 0.29166 0.33718 0.0
N3439 N 0.14256 0.32023 0.34124 0.0
N3440 N 0.16315 0.27985 0.35144 0.0
C3441 C 0.16097 0.29929 0.36035 0.0
C3442 C 0.14997 0.32119 0.35478 0.0
C3443 C 0.41084 0.40279 0.12842 0.0
C3444 C 0.40815 0.39897 0.11397 0.0
C3445 C 0.43231 0.4136 0.13396 0.0
C3446 C 0.45194 0.42085 0.12525 0.0
H3447 H 0.39657 0.39669 0.13558 0.0
H3448 H 0.4339 0.41552 0.14517 0.0
S3449 S 0.45309 0.41755 0.08663 0.0
N3450 N 0.42615 0.40533 0.09099 0.0
N3451 N 0.46666 0.42526 0.10144 0.0
C3452 C 0.44921 0.41791 0.11076 0.0
C3453 C 0.42729 0.40705 0.10512 0.0
C3454 C 0.34022 0.68251 0.88493 0.0
C3455 C 0.33123 0.70185 0.87656 0.0
C3456 C 0.35055 0.66119 0.87894 0.0
C3457 C 0.352 0.65827 0.86434 0.0
H3458 H 0.34006 0.68426 0.89619 0.0
H3459 H 0.35814 0.64723 0.88584 0.0
S3460 S 0.32808 0.70256 0.83795 0.0
N3461 N 0.32275 0.71624 0.85306 0.0
N3462 N 0.34131 0.67583 0.84174 0.0
C3463 C 0.34205 0.67714 0.85589 0.0
C3464 C 0.33186 0.69898 0.86201 0.0
C3465 C 0.0688 0.56922 0.62238 0.0
C3466 C 0.04874 0.58412 0.62653 0.0
C3467 C 0.09039 0.57975 0.61674 0.0
C3468 C 0.09261 0.60554 0.61504 0.0
H3469 H 0.06767 0.54926 0.62329 0.0
H3470 H 0.10531 0.56763 0.61353 0.0
S3471 S 0.04656 0.65278 0.62578 0.0
N3472 N 0.03332 0.62607 0.62958 0.0
N3473 N 0.07373 0.64578 0.61895 0.0
C3474 C 0.07293 0.62064 0.61947 0.0
C3475 C 0.05105 0.60996 0.62522 0.0
C3476 C 0.16796 0.66338 0.13522 0.0
C3477 C 0.14213 0.66046 0.1361 0.0
C3478 C 0.17841 0.68511 0.12973 0.0
C3479 C 0.16337 0.70478 0.12515 0.0
H3480 H 0.18014 0.64856 0.13852 0.0
H3481 H 0.19838 0.68658 0.12912 0.0
S3482 S 0.09471 0.70647 0.12561 0.0
N3483 N 0.1018 0.67918 0.13226 0.0
N3484 N 0.12137 0.71992 0.12192 0.0
C3485 C 0.13753 0.70218 0.12618 0.0
C3486 C 0.12693 0.68004 0.13165 0.0
C3487 C 0.07735 0.37972 0.87531 0.0
C3488 C 0.08946 0.3907 0.88675 0.0
C3489 C 0.05629 0.39053 0.86934 0.0
C3490 C 0.04655 0.41286 0.8745 0.0
H3491 H 0.08426 0.36262 0.87086 0.0
H3492 H 0.04756 0.38134 0.86058 0.0
S3493 S 0.07066 0.44876 0.90453 0.0
N3494 N 0.08971 0.42495 0.90322 0.0
N3495 N 0.05023 0.44543 0.89185 0.0
C3496 C 0.05853 0.42422 0.88584 0.0
C3497 C 0.07995 0.41312 0.89199 0.0
C3498 C 0.35765 0.30621 0.6194 0.0
C3499 C 0.33477 0.29687 0.62402 0.0
C3500 C 0.36796 0.32758 0.62528 0.0
C3501 C 0.35587 0.34047 0.63608 0.0
H3502 H 0.36767 0.29692 0.61112 0.0
H3503 H 0.38555 0.33413 0.6213 0.0
S3504 S 0.29599 0.32309 0.65231 0.0
N3505 N 0.30051 0.3018 0.64021 0.0
N3506 N 0.31999 0.34197 0.65136 0.0
C3507 C 0.3329 0.33141 0.64076 0.0
C3508 C 0.32234 0.30963 0.63472 0.0
C3509 C 0.44536 0.58068 0.38884 0.0
C3510 C 0.44856 0.57871 0.37432 0.0
C3511 C 0.42377 0.591 0.39452 0.0
C3512 C 0.40464 0.59985 0.38589 0.0
H3513 H 0.45975 0.57435 0.39586 0.0
H3514 H 0.42211 0.59222 0.40576 0.0
S3515 S 0.40471 0.60025 0.34716 0.0
N3516 N 0.4312 0.58701 0.35143 0.0
N3517 N 0.39078 0.60674 0.36205 0.0
C3518 C 0.40761 0.5979 0.37134 0.0
C3519 C 0.42953 0.58725 0.36557 0.0
loop_
_geom_bond_atom_site_label_1
_geom_bond_atom_site_label_2
_geom_bond_distance
_geom_bond_site_symmetry_2
_ccdc_geom_bond_type
Li0 N17 1.990 . S
Li0 O60 1.956 . S
Li0 O61 1.970 . S
Li0 O62 1.961 . S
Li1 N25 1.990 . S
Li1 O60 1.970 . S
Li1 O61 1.956 . S
Li1 O63 1.961 . S
Li2 N47 1.990 1_545 S
Li2 O60 1.961 . S
Li2 O62 1.956 . S
Li2 O63 1.970 . S
Li3 N53 1.990 . S
Li3 O61 1.961 . S
Li3 O62 1.970 . S
Li3 O63 1.956 . S
C4 C6 1.348 . S
C4 C7 1.356 . S
C4 O60 1.325 1_565 S
N5 C8 1.314 . S
N5 C9 1.279 . S
C6 C4 1.348 . S
C6 C8 1.353 . S
C6 H64 0.929 . S
C7 C4 1.356 . S
C7 C9 1.358 . S
C7 H65 0.930 . S
C8 N5 1.314 . S
C8 C6 1.353 . S
C8 H66 0.930 . S
C9 N5 1.279 . S
C9 C7 1.358 . S
C9 H67 0.930 . S
C10 C13 1.348 . S
C10 C14 1.356 . S
C10 O61 1.325 . S
C11 N12 1.279 . S
C11 C14 1.358 . S
C11 H68 0.930 . S
N12 C11 1.279 . S
N12 C15 1.314 . S
C13 C10 1.348 . S
C13 C15 1.353 . S
C13 H69 0.929 . S
C14 C10 1.356 . S
C14 C11 1.358 . S
C14 H70 0.930 . S
C15 N12 1.314 . S
C15 C13 1.353 . S
C15 H71 0.930 . S
C16 N17 1.314 . S
C16 C21 1.353 . S
C16 H22 0.930 . S
N17 Li0 1.990 . S
N17 C16 1.314 . S
N17 C19 1.279 . S
C18 C19 1.358 . S
C18 C20 1.356 . S
C18 H72 0.930 . S
C19 N17 1.279 . S
C19 C18 1.358 . S
C19 H23 0.930 . S
C20 C18 1.356 . S
C20 C21 1.348 . S
C21 C16 1.353 . S
C21 C20 1.348 . S
C21 H73 0.929 . S
H22 C16 0.930 . S
H23 C19 0.930 . S
C24 N25 1.314 . S
C24 C26 1.353 . S
C24 H30 0.930 . S
N25 Li1 1.990 . S
N25 C24 1.314 . S
N25 C28 1.279 . S
C26 C24 1.353 . S
C26 C29 1.348 . S
C26 H74 0.929 1_545 S
C27 C28 1.358 . S
C27 C29 1.356 . S
C27 H75 0.930 . S
C28 N25 1.279 . S
C28 C27 1.358 . S
C28 H31 0.930 . S
C29 C26 1.348 . S
C29 C27 1.356 . S
H30 C24 0.930 . S
H31 C28 0.930 . S
C32 C34 1.348 . S
C32 C35 1.356 . S
C32 O62 1.325 . S
N33 C36 1.314 . S
N33 C37 1.279 . S
C34 C32 1.348 . S
C34 C36 1.353 . S
C34 H76 0.929 . S
C35 C32 1.356 . S
C35 C37 1.358 . S
C35 H77 0.930 . S
C36 N33 1.314 . S
C36 C34 1.353 . S
C36 H78 0.930 . S
C37 N33 1.279 . S
C37 C35 1.358 . S
C37 H79 0.930 . S
C38 C39 1.348 . S
C38 C40 1.356 . S
C38 O63 1.325 . S
C39 C38 1.348 . S
C39 C41 1.353 . S
C39 H80 0.929 . S
C40 C38 1.356 . S
C40 C42 1.358 . S
C40 H81 0.930 . S
C41 C39 1.353 . S
C41 N43 1.314 . S
C41 H82 0.930 . S
C42 C40 1.358 . S
C42 N43 1.279 . S
C42 H83 0.930 . S
N43 C41 1.314 . S
N43 C42 1.279 . S
C44 C46 1.353 . S
C44 N47 1.314 . S
C44 H50 0.930 . S
C45 N47 1.279 . S
C45 C48 1.358 . S
C45 H51 0.930 . S
C46 C44 1.353 . S
C46 C49 1.348 . S
C46 H84 0.929 . S
N47 Li2 1.990 1_565 S
N47 C44 1.314 . S
N47 C45 1.279 . S
C48 C45 1.358 . S
C48 C49 1.356 . S
C48 H85 0.930 . S
C49 C46 1.348 . S
C49 C48 1.356 . S
H50 C44 0.930 . S
H51 C45 0.930 . S
C52 N53 1.314 . S
C52 C54 1.353 . S
C52 H58 0.930 . S
N53 Li3 1.990 . S
N53 C52 1.314 . S
N53 C56 1.279 . S
C54 C52 1.353 . S
C54 C57 1.348 . S
C54 H86 0.929 . S
C55 C56 1.358 . S
C55 C57 1.356 . S
C55 H87 0.930 . S
C56 N53 1.279 . S
C56 C55 1.358 . S
C56 H59 0.930 . S
C57 C54 1.348 . S
C57 C55 1.356 . S
H58 C52 0.930 . S
H59 C56 0.930 . S
O60 Li0 1.956 . S
O60 Li1 1.970 . S
O60 Li2 1.961 . S
O60 C4 1.325 1_545 S
O61 Li0 1.970 . S
O61 Li1 1.956 . S
O61 Li3 1.961 . S
O61 C10 1.325 . S
O62 Li0 1.961 . S
O62 Li2 1.956 . S
O62 Li3 1.970 . S
O62 C32 1.325 . S
O63 Li1 1.961 . S
O63 Li2 1.970 . S
O63 Li3 1.956 . S
O63 C38 1.325 . S
H64 C6 0.929 . S
H65 C7 0.930 . S
H66 C8 0.930 . S
H67 C9 0.930 . S
H68 C11 0.930 . S
H69 C13 0.929 . S
H70 C14 0.930 . S
H71 C15 0.930 . S
H72 C18 0.930 . S
H73 C21 0.929 . S
H74 C26 0.929 1_565 S
H75 C27 0.930 . S
H76 C34 0.929 . S
H77 C35 0.930 . S
H78 C36 0.930 . S
H79 C37 0.930 . S
H80 C39 0.929 . S
H81 C40 0.930 . S
H82 C41 0.930 . S
H83 C42 0.930 . S
H84 C46 0.929 . S
H85 C48 0.930 . S
H86 C54 0.929 . S
H87 C55 0.930 . S
Li88 N105 1.990 . S
Li88 O148 1.956 . S
Li88 O149 1.970 . S
Li88 O150 1.961 . S
Li89 N113 1.990 . S
Li89 O148 1.970 . S
Li89 O149 1.956 . S
Li89 O151 1.961 . S
Li90 N135 1.990 . S
Li90 O148 1.961 . S
Li90 O150 1.956 . S
Li90 O151 1.970 . S
Li91 N141 1.990 . S
Li91 O149 1.961 . S
Li91 O150 1.970 . S
Li91 O151 1.956 . S
C92 C94 1.348 . S
C92 C95 1.356 . S
C92 O148 1.325 . S
N93 C96 1.314 . S
N93 C97 1.279 . S
C94 C92 1.348 . S
C94 C96 1.353 . S
C94 H152 0.929 . S
C95 C92 1.356 . S
C95 C97 1.358 . S
C95 H153 0.930 . S
C96 N93 1.314 . S
C96 C94 1.353 . S
C96 H154 0.930 . S
C97 N93 1.279 . S
C97 C95 1.358 . S
C97 H155 0.930 . S
C98 C101 1.348 . S
C98 C102 1.356 . S
C98 O149 1.325 . S
C99 N100 1.279 . S
C99 C102 1.358 . S
C99 H156 0.930 . S
N100 C99 1.279 . S
N100 C103 1.314 . S
C101 C98 1.348 . S
C101 C103 1.353 . S
C101 H157 0.929 . S
C102 C98 1.356 . S
C102 C99 1.358 . S
C102 H158 0.930 . S
C103 N100 1.314 . S
C103 C101 1.353 . S
C103 H159 0.930 . S
C104 N105 1.314 . S
C104 C109 1.353 . S
C104 H110 0.930 . S
N105 Li88 1.990 . S
N105 C104 1.314 . S
N105 C107 1.279 . S
C106 C107 1.358 . S
C106 C108 1.356 . S
C106 H160 0.930 . S
C107 N105 1.279 . S
C107 C106 1.358 . S
C107 H111 0.930 . S
C108 C106 1.356 . S
C108 C109 1.348 . S
C109 C104 1.353 . S
C109 C108 1.348 . S
C109 H161 0.929 . S
H110 C104 0.930 . S
H111 C107 0.930 . S
C112 N113 1.314 . S
C112 C114 1.353 . S
C112 H118 0.930 . S
N113 Li89 1.990 . S
N113 C112 1.314 . S
N113 C116 1.279 . S
C114 C112 1.353 . S
C114 C117 1.348 . S
C114 H162 0.929 . S
C115 C116 1.358 . S
C115 C117 1.356 . S
C115 H163 0.930 . S
C116 N113 1.279 . S
C116 C115 1.358 . S
C116 H119 0.930 . S
C117 C114 1.348 . S
C117 C115 1.356 . S
H118 C112 0.930 . S
H119 C116 0.930 . S
C120 C122 1.348 . S
C120 C123 1.356 . S
C120 O150 1.325 . S
N121 C124 1.314 . S
N121 C125 1.279 . S
C122 C120 1.348 . S
C122 C124 1.353 . S
C122 H164 0.929 . S
C123 C120 1.356 . S
C123 C125 1.358 . S
C123 H165 0.930 . S
C124 N121 1.314 . S
C124 C122 1.353 . S
C124 H166 0.930 . S
C125 N121 1.279 . S
C125 C123 1.358 . S
C125 H167 0.930 . S
C126 C127 1.348 . S
C126 C128 1.356 . S
C126 O151 1.325 . S
C127 C126 1.348 . S
C127 C129 1.353 . S
C127 H168 0.929 . S
C128 C126 1.356 . S
C128 C130 1.358 . S
C128 H169 0.930 . S
C129 C127 1.353 . S
C129 N131 1.314 . S
C129 H170 0.930 . S
C130 C128 1.358 . S
C130 N131 1.279 . S
C130 H171 0.930 . S
N131 C129 1.314 . S
N131 C130 1.279 . S
C132 C134 1.353 . S
C132 N135 1.314 . S
C132 H138 0.930 . S
C133 N135 1.279 . S
C133 C136 1.358 . S
C133 H139 0.930 . S
C134 C132 1.353 . S
C134 C137 1.348 . S
C134 H172 0.929 . S
N135 Li90 1.990 . S
N135 C132 1.314 . S
N135 C133 1.279 . S
C136 C133 1.358 . S
C136 C137 1.356 . S
C136 H173 0.930 . S
C137 C134 1.348 . S
C137 C136 1.356 . S
H138 C132 0.930 . S
H139 C133 0.930 . S
C140 N141 1.314 . S
C140 C142 1.353 . S
C140 H146 0.930 . S
N141 Li91 1.990 . S
N141 C140 1.314 . S
N141 C144 1.279 . S
C142 C140 1.353 . S
C142 C145 1.348 . S
C142 H174 0.929 . S
C143 C144 1.358 . S
C143 C145 1.356 . S
C143 H175 0.930 . S
C144 N141 1.279 . S
C144 C143 1.358 . S
C144 H147 0.930 . S
C145 C142 1.348 . S
C145 C143 1.356 . S
H146 C140 0.930 . S
H147 C144 0.930 . S
O148 Li88 1.956 . S
O148 Li89 1.970 . S
O148 Li90 1.961 . S
O148 C92 1.325 . S
O149 Li88 1.970 . S
O149 Li89 1.956 . S
O149 Li91 1.961 . S
O149 C98 1.325 . S
O150 Li88 1.961 . S
O150 Li90 1.956 . S
O150 Li91 1.970 . S
O150 C120 1.325 . S
O151 Li89 1.961 . S
O151 Li90 1.970 . S
O151 Li91 1.956 . S
O151 C126 1.325 . S
H152 C94 0.929 . S
H153 C95 0.930 . S
H154 C96 0.930 . S
H155 C97 0.930 . S
H156 C99 0.930 . S
H157 C101 0.929 . S
H158 C102 0.930 . S
H159 C103 0.930 . S
H160 C106 0.930 . S
H161 C109 0.929 . S
H162 C114 0.929 . S
H163 C115 0.930 . S
H164 C122 0.929 . S
H165 C123 0.930 . S
H166 C124 0.930 . S
H167 C125 0.930 . S
H168 C127 0.929 . S
H169 C128 0.930 . S
H170 C129 0.930 . S
H171 C130 0.930 . S
H172 C134 0.929 . S
H173 C136 0.930 . S
H174 C142 0.929 . S
H175 C143 0.930 . S
Li176 N193 1.990 . S
Li176 O236 1.956 . S
Li176 O237 1.970 . S
Li176 O238 1.961 . S
Li177 N201 1.990 . S
Li177 O236 1.970 . S
Li177 O237 1.956 . S
Li177 O239 1.961 . S
Li178 N223 1.990 1_565 S
Li178 O236 1.961 . S
Li178 O238 1.956 . S
Li178 O239 1.970 . S
Li179 N229 1.990 . S
Li179 O237 1.961 . S
Li179 O238 1.970 . S
Li179 O239 1.956 . S
C180 C182 1.348 . S
C180 C183 1.356 . S
C180 O236 1.325 1_545 S
N181 C184 1.314 . S
N181 C185 1.279 . S
C182 C180 1.348 . S
C182 C184 1.353 . S
C182 H240 0.929 . S
C183 C180 1.356 . S
C183 C185 1.358 . S
C183 H241 0.930 . S
C184 N181 1.314 . S
C184 C182 1.353 . S
C184 H242 0.930 . S
C185 N181 1.279 . S
C185 C183 1.358 . S
C185 H243 0.930 . S
C186 C189 1.348 . S
C186 C190 1.356 . S
C186 O237 1.325 . S
C187 N188 1.279 . S
C187 C190 1.358 . S
C187 H244 0.930 . S
N188 C187 1.279 . S
N188 C191 1.314 . S
C189 C186 1.348 . S
C189 C191 1.353 . S
C189 H245 0.929 . S
C190 C186 1.356 . S
C190 C187 1.358 . S
C190 H246 0.930 . S
C191 N188 1.314 . S
C191 C189 1.353 . S
C191 H247 0.930 . S
C192 N193 1.314 . S
C192 C197 1.353 1_455 S
C192 H198 0.930 . S
N193 Li176 1.990 . S
N193 C192 1.314 . S
N193 C195 1.279 . S
C194 C195 1.358 1_655 S
C194 C196 1.356 . S
C194 H248 0.930 . S
C195 N193 1.279 . S
C195 C194 1.358 1_455 S
C195 H199 0.930 . S
C196 C194 1.356 . S
C196 C197 1.348 . S
C197 C192 1.353 1_655 S
C197 C196 1.348 . S
C197 H249 0.929 . S
H198 C192 0.930 . S
H199 C195 0.930 . S
C200 N201 1.314 . S
C200 C202 1.353 . S
C200 H206 0.930 . S
N201 Li177 1.990 . S
N201 C200 1.314 . S
N201 C204 1.279 . S
C202 C200 1.353 . S
C202 C205 1.348 . S
C202 H250 0.929 1_565 S
C203 C204 1.358 . S
C203 C205 1.356 . S
C203 H251 0.930 . S
C204 N201 1.279 . S
C204 C203 1.358 . S
C204 H207 0.930 . S
C205 C202 1.348 . S
C205 C203 1.356 . S
H206 C200 0.930 . S
H207 C204 0.930 . S
C208 C210 1.348 . S
C208 C211 1.356 . S
C208 O238 1.325 . S
N209 C212 1.314 . S
N209 C213 1.279 . S
C210 C208 1.348 . S
C210 C212 1.353 . S
C210 H252 0.929 . S
C211 C208 1.356 . S
C211 C213 1.358 . S
C211 H253 0.930 . S
C212 N209 1.314 . S
C212 C210 1.353 . S
C212 H254 0.930 . S
C213 N209 1.279 . S
C213 C211 1.358 . S
C213 H255 0.930 . S
C214 C215 1.348 . S
C214 C216 1.356 . S
C214 O239 1.325 . S
C215 C214 1.348 . S
C215 C217 1.353 . S
C215 H256 0.929 . S
C216 C214 1.356 . S
C216 C218 1.358 . S
C216 H257 0.930 . S
C217 C215 1.353 . S
C217 N219 1.314 . S
C217 H258 0.930 . S
C218 C216 1.358 . S
C218 N219 1.279 . S
C218 H259 0.930 . S
N219 C217 1.314 . S
N219 C218 1.279 . S
C220 C222 1.353 . S
C220 N223 1.314 . S
C220 H226 0.930 . S
C221 N223 1.279 . S
C221 C224 1.358 . S
C221 H227 0.930 . S
C222 C220 1.353 . S
C222 C225 1.348 . S
C222 H260 0.929 . S
N223 Li178 1.990 1_545 S
N223 C220 1.314 . S
N223 C221 1.279 . S
C224 C221 1.358 . S
C224 C225 1.356 . S
C224 H261 0.930 . S
C225 C222 1.348 . S
C225 C224 1.356 . S
H226 C220 0.930 . S
H227 C221 0.930 . S
C228 N229 1.314 . S
C228 C230 1.353 . S
C228 H234 0.930 . S
N229 Li179 1.990 . S
N229 C228 1.314 . S
N229 C232 1.279 . S
C230 C228 1.353 . S
C230 C233 1.348 . S
C230 H262 0.929 . S
C231 C232 1.358 . S
C231 C233 1.356 . S
C231 H263 0.930 . S
C232 N229 1.279 . S
C232 C231 1.358 . S
C232 H235 0.930 . S
C233 C230 1.348 . S
C233 C231 1.356 . S
H234 C228 0.930 . S
H235 C232 0.930 . S
O236 Li176 1.956 . S
O236 Li177 1.970 . S
O236 Li178 1.961 . S
O236 C180 1.325 1_565 S
O237 Li176 1.970 . S
O237 Li177 1.956 . S
O237 Li179 1.961 . S
O237 C186 1.325 . S
O238 Li176 1.961 . S
O238 Li178 1.956 . S
O238 Li179 1.970 . S
O238 C208 1.325 . S
O239 Li177 1.961 . S
O239 Li178 1.970 . S
O239 Li179 1.956 . S
O239 C214 1.325 . S
H240 C182 0.929 . S
H241 C183 0.930 . S
H242 C184 0.930 . S
H243 C185 0.930 . S
H244 C187 0.930 . S
H245 C189 0.929 . S
H246 C190 0.930 . S
H247 C191 0.930 . S
H248 C194 0.930 . S
H249 C197 0.929 . S
H250 C202 0.929 1_545 S
H251 C203 0.930 . S
H252 C210 0.929 . S
H253 C211 0.930 . S
H254 C212 0.930 . S
H255 C213 0.930 . S
H256 C215 0.929 . S
H257 C216 0.930 . S
H258 C217 0.930 . S
H259 C218 0.930 . S
H260 C222 0.929 . S
H261 C224 0.930 . S
H262 C230 0.929 . S
H263 C231 0.930 . S
Li264 N281 1.990 . S
Li264 O324 1.956 . S
Li264 O325 1.970 . S
Li264 O326 1.961 . S
Li265 N289 1.990 . S
Li265 O324 1.970 . S
Li265 O325 1.956 . S
Li265 O327 1.961 . S
Li266 N311 1.990 . S
Li266 O324 1.961 . S
Li266 O326 1.956 . S
Li266 O327 1.970 . S
Li267 N317 1.990 . S
Li267 O325 1.961 . S
Li267 O326 1.970 . S
Li267 O327 1.956 . S
C268 C270 1.348 . S
C268 C271 1.356 . S
C268 O324 1.325 . S
N269 C272 1.314 . S
N269 C273 1.279 . S
C270 C268 1.348 . S
C270 C272 1.353 . S
C270 H328 0.929 . S
C271 C268 1.356 . S
C271 C273 1.358 . S
C271 H329 0.930 . S
C272 N269 1.314 . S
C272 C270 1.353 . S
C272 H330 0.930 . S
C273 N269 1.279 . S
C273 C271 1.358 . S
C273 H331 0.930 . S
C274 C277 1.348 . S
C274 C278 1.356 . S
C274 O325 1.325 . S
C275 N276 1.279 . S
C275 C278 1.358 . S
C275 H332 0.930 . S
N276 C275 1.279 . S
N276 C279 1.314 . S
C277 C274 1.348 . S
C277 C279 1.353 . S
C277 H333 0.929 . S
C278 C274 1.356 . S
C278 C275 1.358 . S
C278 H334 0.930 . S
C279 N276 1.314 . S
C279 C277 1.353 . S
C279 H335 0.930 . S
C280 N281 1.314 . S
C280 C285 1.353 . S
C280 H286 0.930 . S
N281 Li264 1.990 . S
N281 C280 1.314 . S
N281 C283 1.279 . S
C282 C283 1.358 . S
C282 C284 1.356 . S
C282 H336 0.930 . S
C283 N281 1.279 . S
C283 C282 1.358 . S
C283 H287 0.930 . S
C284 C282 1.356 . S
C284 C285 1.348 . S
C285 C280 1.353 . S
C285 C284 1.348 . S
C285 H337 0.929 . S
H286 C280 0.930 . S
H287 C283 0.930 . S
C288 N289 1.314 . S
C288 C290 1.353 . S
C288 H294 0.930 . S
N289 Li265 1.990 . S
N289 C288 1.314 . S
N289 C292 1.279 . S
C290 C288 1.353 . S
C290 C293 1.348 . S
C290 H338 0.929 . S
C291 C292 1.358 . S
C291 C293 1.356 . S
C291 H339 0.930 . S
C292 N289 1.279 . S
C292 C291 1.358 . S
C292 H295 0.930 . S
C293 C290 1.348 . S
C293 C291 1.356 . S
H294 C288 0.930 . S
H295 C292 0.930 . S
C296 C298 1.348 . S
C296 C299 1.356 . S
C296 O326 1.325 . S
N297 C300 1.314 . S
N297 C301 1.279 . S
C298 C296 1.348 . S
C298 C300 1.353 . S
C298 H340 0.929 . S
C299 C296 1.356 . S
C299 C301 1.358 . S
C299 H341 0.930 . S
C300 N297 1.314 . S
C300 C298 1.353 . S
C300 H342 0.930 . S
C301 N297 1.279 . S
C301 C299 1.358 . S
C301 H343 0.930 . S
C302 C303 1.348 . S
C302 C304 1.356 . S
C302 O327 1.325 . S
C303 C302 1.348 . S
C303 C305 1.353 . S
C303 H344 0.929 . S
C304 C302 1.356 . S
C304 C306 1.358 . S
C304 H345 0.930 . S
C305 C303 1.353 . S
C305 N307 1.314 . S
C305 H346 0.930 . S
C306 C304 1.358 . S
C306 N307 1.279 . S
C306 H347 0.930 . S
N307 C305 1.314 . S
N307 C306 1.279 . S
C308 C310 1.353 . S
C308 N311 1.314 . S
C308 H314 0.930 . S
C309 N311 1.279 . S
C309 C312 1.358 . S
C309 H315 0.930 . S
C310 C308 1.353 . S
C310 C313 1.348 . S
C310 H348 0.929 . S
N311 Li266 1.990 . S
N311 C308 1.314 . S
N311 C309 1.279 . S
C312 C309 1.358 . S
C312 C313 1.356 . S
C312 H349 0.930 . S
C313 C310 1.348 . S
C313 C312 1.356 . S
H314 C308 0.930 . S
H315 C309 0.930 . S
C316 N317 1.314 . S
C316 C318 1.353 . S
C316 H322 0.930 . S
N317 Li267 1.990 . S
N317 C316 1.314 . S
N317 C320 1.279 . S
C318 C316 1.353 . S
C318 C321 1.348 . S
C318 H350 0.929 . S
C319 C320 1.358 . S
C319 C321 1.356 . S
C319 H351 0.930 . S
C320 N317 1.279 . S
C320 C319 1.358 . S
C320 H323 0.930 . S
C321 C318 1.348 . S
C321 C319 1.356 . S
H322 C316 0.930 . S
H323 C320 0.930 . S
O324 Li264 1.956 . S
O324 Li265 1.970 . S
O324 Li266 1.961 . S
O324 C268 1.325 . S
O325 Li264 1.970 . S
O325 Li265 1.956 . S
O325 Li267 1.961 . S
O325 C274 1.325 . S
O326 Li264 1.961 . S
O326 Li266 1.956 . S
O326 Li267 1.970 . S
O326 C296 1.325 . S
O327 Li265 1.961 . S
O327 Li266 1.970 . S
O327 Li267 1.956 . S
O327 C302 1.325 . S
H328 C270 0.929 . S
H329 C271 0.930 . S
H330 C272 0.930 . S
H331 C273 0.930 . S
H332 C275 0.930 . S
H333 C277 0.929 . S
H334 C278 0.930 . S
H335 C279 0.930 . S
H336 C282 0.930 . S
H337 C285 0.929 . S
H338 C290 0.929 . S
H339 C291 0.930 . S
H340 C298 0.929 . S
H341 C299 0.930 . S
H342 C300 0.930 . S
H343 C301 0.930 . S
H344 C303 0.929 . S
H345 C304 0.930 . S
H346 C305 0.930 . S
H347 C306 0.930 . S
H348 C310 0.929 . S
H349 C312 0.930 . S
H350 C318 0.929 . S
H351 C319 0.930 . S
Li352 N369 1.990 1_565 S
Li352 O412 1.956 . S
Li352 O413 1.970 . S
Li352 O414 1.961 . S
Li353 N377 1.990 . S
Li353 O412 1.970 . S
Li353 O413 1.956 . S
Li353 O415 1.961 . S
Li354 N399 1.990 . S
Li354 O412 1.961 . S
Li354 O414 1.956 . S
Li354 O415 1.970 . S
Li355 N405 1.990 . S
Li355 O413 1.961 . S
Li355 O414 1.970 . S
Li355 O415 1.956 . S
C356 C358 1.348 . S
C356 C359 1.356 . S
C356 O412 1.325 . S
N357 C360 1.314 . S
N357 C361 1.279 . S
C358 C356 1.348 . S
C358 C360 1.353 . S
C358 H416 0.929 . S
C359 C356 1.356 . S
C359 C361 1.358 . S
C359 H417 0.930 . S
C360 N357 1.314 . S
C360 C358 1.353 . S
C360 H418 0.930 . S
C361 N357 1.279 . S
C361 C359 1.358 . S
C361 H419 0.930 . S
C362 C365 1.348 . S
C362 C366 1.356 . S
C362 O413 1.325 . S
C363 N364 1.279 . S
C363 C366 1.358 . S
C363 H420 0.930 . S
N364 C363 1.279 . S
N364 C367 1.314 . S
C365 C362 1.348 . S
C365 C367 1.353 . S
C365 H421 0.929 . S
C366 C362 1.356 . S
C366 C363 1.358 . S
C366 H422 0.930 . S
C367 N364 1.314 . S
C367 C365 1.353 . S
C367 H423 0.930 . S
C368 N369 1.314 . S
C368 C373 1.353 . S
C368 H374 0.930 . S
N369 Li352 1.990 1_545 S
N369 C368 1.314 . S
N369 C371 1.279 . S
C370 C371 1.358 . S
C370 C372 1.356 . S
C370 H424 0.930 . S
C371 N369 1.279 . S
C371 C370 1.358 . S
C371 H375 0.930 . S
C372 C370 1.356 . S
C372 C373 1.348 . S
C373 C368 1.353 . S
C373 C372 1.348 . S
C373 H425 0.929 . S
H374 C368 0.930 . S
H375 C371 0.930 . S
C376 N377 1.314 . S
C376 C378 1.353 . S
C376 H382 0.930 . S
N377 Li353 1.990 . S
N377 C376 1.314 . S
N377 C380 1.279 . S
C378 C376 1.353 . S
C378 C381 1.348 . S
C378 H426 0.929 . S
C379 C380 1.358 . S
C379 C381 1.356 . S
C379 H427 0.930 . S
C380 N377 1.279 . S
C380 C379 1.358 . S
C380 H383 0.930 . S
C381 C378 1.348 . S
C381 C379 1.356 . S
H382 C376 0.930 . S
H383 C380 0.930 . S
C384 C386 1.348 . S
C384 C387 1.356 . S
C384 O414 1.325 1_545 S
N385 C388 1.314 . S
N385 C389 1.279 . S
C386 C384 1.348 . S
C386 C388 1.353 . S
C386 H428 0.929 . S
C387 C384 1.356 . S
C387 C389 1.358 . S
C387 H429 0.930 . S
C388 N385 1.314 . S
C388 C386 1.353 . S
C388 H430 0.930 . S
C389 N385 1.279 . S
C389 C387 1.358 . S
C389 H431 0.930 . S
C390 C391 1.348 . S
C390 C392 1.356 . S
C390 O415 1.325 . S
C391 C390 1.348 . S
C391 C393 1.353 . S
C391 H432 0.929 . S
C392 C390 1.356 . S
C392 C394 1.358 . S
C392 H433 0.930 . S
C393 C391 1.353 . S
C393 N395 1.314 . S
C393 H434 0.930 . S
C394 C392 1.358 . S
C394 N395 1.279 . S
C394 H435 0.930 . S
N395 C393 1.314 . S
N395 C394 1.279 . S
C396 C398 1.353 . S
C396 N399 1.314 . S
C396 H402 0.930 . S
C397 N399 1.279 . S
C397 C400 1.358 . S
C397 H403 0.930 . S
C398 C396 1.353 . S
C398 C401 1.348 . S
C398 H436 0.929 . S
N399 Li354 1.990 . S
N399 C396 1.314 . S
N399 C397 1.279 . S
C400 C397 1.358 . S
C400 C401 1.356 . S
C400 H437 0.930 . S
C401 C398 1.348 . S
C401 C400 1.356 . S
H402 C396 0.930 . S
H403 C397 0.930 . S
C404 N405 1.314 . S
C404 C406 1.353 . S
C404 H410 0.930 . S
N405 Li355 1.990 . S
N405 C404 1.314 . S
N405 C408 1.279 . S
C406 C404 1.353 . S
C406 C409 1.348 . S
C406 H438 0.929 1_565 S
C407 C408 1.358 . S
C407 C409 1.356 . S
C407 H439 0.930 . S
C408 N405 1.279 . S
C408 C407 1.358 . S
C408 H411 0.930 . S
C409 C406 1.348 . S
C409 C407 1.356 . S
H410 C404 0.930 . S
H411 C408 0.930 . S
O412 Li352 1.956 . S
O412 Li353 1.970 . S
O412 Li354 1.961 . S
O412 C356 1.325 . S
O413 Li352 1.970 . S
O413 Li353 1.956 . S
O413 Li355 1.961 . S
O413 C362 1.325 . S
O414 Li352 1.961 . S
O414 Li354 1.956 . S
O414 Li355 1.970 . S
O414 C384 1.325 1_565 S
O415 Li353 1.961 . S
O415 Li354 1.970 . S
O415 Li355 1.956 . S
O415 C390 1.325 . S
H416 C358 0.929 . S
H417 C359 0.930 . S
H418 C360 0.930 . S
H419 C361 0.930 . S
H420 C363 0.930 . S
H421 C365 0.929 . S
H422 C366 0.930 . S
H423 C367 0.930 . S
H424 C370 0.930 . S
H425 C373 0.929 . S
H426 C378 0.929 . S
H427 C379 0.930 . S
H428 C386 0.929 . S
H429 C387 0.930 . S
H430 C388 0.930 . S
H431 C389 0.930 . S
H432 C391 0.929 . S
H433 C392 0.930 . S
H434 C393 0.930 . S
H435 C394 0.930 . S
H436 C398 0.929 . S
H437 C400 0.930 . S
H438 C406 0.929 1_545 S
H439 C407 0.930 . S
Li440 N457 1.990 . S
Li440 O500 1.956 . S
Li440 O501 1.970 . S
Li440 O502 1.961 . S
Li441 N465 1.990 . S
Li441 O500 1.970 . S
Li441 O501 1.956 . S
Li441 O503 1.961 . S
Li442 N487 1.990 . S
Li442 O500 1.961 . S
Li442 O502 1.956 . S
Li442 O503 1.970 . S
Li443 N493 1.990 . S
Li443 O501 1.961 . S
Li443 O502 1.970 . S
Li443 O503 1.956 . S
C444 C446 1.348 . S
C444 C447 1.356 . S
C444 O500 1.325 . S
N445 C448 1.314 . S
N445 C449 1.279 . S
C446 C444 1.348 . S
C446 C448 1.353 . S
C446 H504 0.929 . S
C447 C444 1.356 . S
C447 C449 1.358 . S
C447 H505 0.930 . S
C448 N445 1.314 . S
C448 C446 1.353 . S
C448 H506 0.930 . S
C449 N445 1.279 . S
C449 C447 1.358 . S
C449 H507 0.930 . S
C450 C453 1.348 . S
C450 C454 1.356 . S
C450 O501 1.325 . S
C451 N452 1.279 . S
C451 C454 1.358 . S
C451 H508 0.930 . S
N452 C451 1.279 . S
N452 C455 1.314 . S
C453 C450 1.348 . S
C453 C455 1.353 . S
C453 H509 0.929 . S
C454 C450 1.356 . S
C454 C451 1.358 . S
C454 H510 0.930 . S
C455 N452 1.314 . S
C455 C453 1.353 . S
C455 H511 0.930 . S
C456 N457 1.314 . S
C456 C461 1.353 . S
C456 H462 0.930 . S
N457 Li440 1.990 . S
N457 C456 1.314 . S
N457 C459 1.279 . S
C458 C459 1.358 . S
C458 C460 1.356 . S
C458 H512 0.930 . S
C459 N457 1.279 . S
C459 C458 1.358 . S
C459 H463 0.930 . S
C460 C458 1.356 . S
C460 C461 1.348 . S
C461 C456 1.353 . S
C461 C460 1.348 . S
C461 H513 0.929 . S
H462 C456 0.930 . S
H463 C459 0.930 . S
C464 N465 1.314 . S
C464 C466 1.353 . S
C464 H470 0.930 . S
N465 Li441 1.990 . S
N465 C464 1.314 . S
N465 C468 1.279 . S
C466 C464 1.353 . S
C466 C469 1.348 . S
C466 H514 0.929 . S
C467 C468 1.358 . S
C467 C469 1.356 . S
C467 H515 0.930 . S
C468 N465 1.279 . S
C468 C467 1.358 . S
C468 H471 0.930 . S
C469 C466 1.348 . S
C469 C467 1.356 . S
H470 C464 0.930 . S
H471 C468 0.930 . S
C472 C474 1.348 . S
C472 C475 1.356 . S
C472 O502 1.325 . S
N473 C476 1.314 . S
N473 C477 1.279 . S
C474 C472 1.348 . S
C474 C476 1.353 . S
C474 H516 0.929 . S
C475 C472 1.356 . S
C475 C477 1.358 . S
C475 H517 0.930 . S
C476 N473 1.314 . S
C476 C474 1.353 . S
C476 H518 0.930 . S
C477 N473 1.279 . S
C477 C475 1.358 . S
C477 H519 0.930 . S
C478 C479 1.348 . S
C478 C480 1.356 . S
C478 O503 1.325 . S
C479 C478 1.348 . S
C479 C481 1.353 . S
C479 H520 0.929 . S
C480 C478 1.356 . S
C480 C482 1.358 . S
C480 H521 0.930 . S
C481 C479 1.353 . S
C481 N483 1.314 . S
C481 H522 0.930 . S
C482 C480 1.358 . S
C482 N483 1.279 . S
C482 H523 0.930 . S
N483 C481 1.314 . S
N483 C482 1.279 . S
C484 C486 1.353 . S
C484 N487 1.314 . S
C484 H490 0.930 . S
C485 N487 1.279 . S
C485 C488 1.358 . S
C485 H491 0.930 . S
C486 C484 1.353 . S
C486 C489 1.348 . S
C486 H524 0.929 . S
N487 Li442 1.990 . S
N487 C484 1.314 . S
N487 C485 1.279 . S
C488 C485 1.358 . S
C488 C489 1.356 . S
C488 H525 0.930 . S
C489 C486 1.348 . S
C489 C488 1.356 . S
H490 C484 0.930 . S
H491 C485 0.930 . S
C492 N493 1.314 . S
C492 C494 1.353 . S
C492 H498 0.930 . S
N493 Li443 1.990 . S
N493 C492 1.314 . S
N493 C496 1.279 . S
C494 C492 1.353 . S
C494 C497 1.348 . S
C494 H526 0.929 . S
C495 C496 1.358 . S
C495 C497 1.356 . S
C495 H527 0.930 . S
C496 N493 1.279 . S
C496 C495 1.358 . S
C496 H499 0.930 . S
C497 C494 1.348 . S
C497 C495 1.356 . S
H498 C492 0.930 . S
H499 C496 0.930 . S
O500 Li440 1.956 . S
O500 Li441 1.970 . S
O500 Li442 1.961 . S
O500 C444 1.325 . S
O501 Li440 1.970 . S
O501 Li441 1.956 . S
O501 Li443 1.961 . S
O501 C450 1.325 . S
O502 Li440 1.961 . S
O502 Li442 1.956 . S
O502 Li443 1.970 . S
O502 C472 1.325 . S
O503 Li441 1.961 . S
O503 Li442 1.970 . S
O503 Li443 1.956 . S
O503 C478 1.325 . S
H504 C446 0.929 . S
H505 C447 0.930 . S
H506 C448 0.930 . S
H507 C449 0.930 . S
H508 C451 0.930 . S
H509 C453 0.929 . S
H510 C454 0.930 . S
H511 C455 0.930 . S
H512 C458 0.930 . S
H513 C461 0.929 . S
H514 C466 0.929 . S
H515 C467 0.930 . S
H516 C474 0.929 . S
H517 C475 0.930 . S
H518 C476 0.930 . S
H519 C477 0.930 . S
H520 C479 0.929 . S
H521 C480 0.930 . S
H522 C481 0.930 . S
H523 C482 0.930 . S
H524 C486 0.929 . S
H525 C488 0.930 . S
H526 C494 0.929 . S
H527 C495 0.930 . S
Li528 N545 1.990 . S
Li528 O588 1.956 . S
Li528 O589 1.970 . S
Li528 O590 1.961 . S
Li529 N553 1.990 1_545 S
Li529 O588 1.970 . S
Li529 O589 1.956 . S
Li529 O591 1.961 . S
Li530 N575 1.990 . S
Li530 O588 1.961 . S
Li530 O590 1.956 . S
Li530 O591 1.970 . S
Li531 N581 1.990 . S
Li531 O589 1.961 . S
Li531 O590 1.970 . S
Li531 O591 1.956 . S
C532 C534 1.348 . S
C532 C535 1.356 . S
C532 O588 1.325 . S
N533 C536 1.314 . S
N533 C537 1.279 . S
C534 C532 1.348 . S
C534 C536 1.353 . S
C534 H592 0.929 . S
C535 C532 1.356 . S
C535 C537 1.358 . S
C535 H593 0.930 . S
C536 N533 1.314 . S
C536 C534 1.353 . S
C536 H594 0.930 . S
C537 N533 1.279 . S
C537 C535 1.358 . S
C537 H595 0.930 . S
C538 C541 1.348 . S
C538 C542 1.356 . S
C538 O589 1.325 . S
C539 N540 1.279 . S
C539 C542 1.358 . S
C539 H596 0.930 . S
N540 C539 1.279 . S
N540 C543 1.314 . S
C541 C538 1.348 . S
C541 C543 1.353 . S
C541 H597 0.929 . S
C542 C538 1.356 . S
C542 C539 1.358 . S
C542 H598 0.930 . S
C543 N540 1.314 . S
C543 C541 1.353 . S
C543 H599 0.930 . S
C544 N545 1.314 . S
C544 C549 1.353 . S
C544 H550 0.930 . S
N545 Li528 1.990 . S
N545 C544 1.314 . S
N545 C547 1.279 . S
C546 C547 1.358 . S
C546 C548 1.356 . S
C546 H600 0.930 . S
C547 N545 1.279 . S
C547 C546 1.358 . S
C547 H551 0.930 . S
C548 C546 1.356 . S
C548 C549 1.348 . S
C549 C544 1.353 . S
C549 C548 1.348 . S
C549 H601 0.929 . S
H550 C544 0.930 . S
H551 C547 0.930 . S
C552 N553 1.314 . S
C552 C554 1.353 . S
C552 H558 0.930 . S
N553 Li529 1.990 1_565 S
N553 C552 1.314 . S
N553 C556 1.279 . S
C554 C552 1.353 . S
C554 C557 1.348 . S
C554 H602 0.929 . S
C555 C556 1.358 . S
C555 C557 1.356 . S
C555 H603 0.930 . S
C556 N553 1.279 . S
C556 C555 1.358 . S
C556 H559 0.930 . S
C557 C554 1.348 . S
C557 C555 1.356 . S
H558 C552 0.930 . S
H559 C556 0.930 . S
C560 C562 1.348 . S
C560 C563 1.356 . S
C560 O590 1.325 . S
N561 C564 1.314 . S
N561 C565 1.279 . S
C562 C560 1.348 . S
C562 C564 1.353 . S
C562 H604 0.929 . S
C563 C560 1.356 . S
C563 C565 1.358 . S
C563 H605 0.930 . S
C564 N561 1.314 . S
C564 C562 1.353 . S
C564 H606 0.930 . S
C565 N561 1.279 . S
C565 C563 1.358 . S
C565 H607 0.930 . S
C566 C567 1.348 . S
C566 C568 1.356 . S
C566 O591 1.325 1_565 S
C567 C566 1.348 . S
C567 C569 1.353 . S
C567 H608 0.929 . S
C568 C566 1.356 . S
C568 C570 1.358 . S
C568 H609 0.930 . S
C569 C567 1.353 . S
C569 N571 1.314 . S
C569 H610 0.930 . S
C570 C568 1.358 . S
C570 N571 1.279 . S
C570 H611 0.930 . S
N571 C569 1.314 . S
N571 C570 1.279 . S
C572 C574 1.353 . S
C572 N575 1.314 . S
C572 H578 0.930 . S
C573 N575 1.279 . S
C573 C576 1.358 . S
C573 H579 0.930 . S
C574 C572 1.353 . S
C574 C577 1.348 . S
C574 H612 0.929 1_545 S
N575 Li530 1.990 . S
N575 C572 1.314 . S
N575 C573 1.279 . S
C576 C573 1.358 . S
C576 C577 1.356 . S
C576 H613 0.930 . S
C577 C574 1.348 . S
C577 C576 1.356 . S
H578 C572 0.930 . S
H579 C573 0.930 . S
C580 N581 1.314 . S
C580 C582 1.353 1_455 S
C580 H586 0.930 . S
N581 Li531 1.990 . S
N581 C580 1.314 . S
N581 C584 1.279 . S
C582 C580 1.353 1_655 S
C582 C585 1.348 . S
C582 H614 0.929 . S
C583 C584 1.358 1_655 S
C583 C585 1.356 . S
C583 H615 0.930 . S
C584 N581 1.279 . S
C584 C583 1.358 1_455 S
C584 H587 0.930 . S
C585 C582 1.348 . S
C585 C583 1.356 . S
H586 C580 0.930 . S
H587 C584 0.930 . S
O588 Li528 1.956 . S
O588 Li529 1.970 . S
O588 Li530 1.961 . S
O588 C532 1.325 . S
O589 Li528 1.970 . S
O589 Li529 1.956 . S
O589 Li531 1.961 . S
O589 C538 1.325 . S
O590 Li528 1.961 . S
O590 Li530 1.956 . S
O590 Li531 1.970 . S
O590 C560 1.325 . S
O591 Li529 1.961 . S
O591 Li530 1.970 . S
O591 Li531 1.956 . S
O591 C566 1.325 1_545 S
H592 C534 0.929 . S
H593 C535 0.930 . S
H594 C536 0.930 . S
H595 C537 0.930 . S
H596 C539 0.930 . S
H597 C541 0.929 . S
H598 C542 0.930 . S
H599 C543 0.930 . S
H600 C546 0.930 . S
H601 C549 0.929 . S
H602 C554 0.929 . S
H603 C555 0.930 . S
H604 C562 0.929 . S
H605 C563 0.930 . S
H606 C564 0.930 . S
H607 C565 0.930 . S
H608 C567 0.929 . S
H609 C568 0.930 . S
H610 C569 0.930 . S
H611 C570 0.930 . S
H612 C574 0.929 1_565 S
H613 C576 0.930 . S
H614 C582 0.929 . S
H615 C583 0.930 . S
Li616 N633 1.990 . S
Li616 O676 1.956 . S
Li616 O677 1.970 . S
Li616 O678 1.961 . S
Li617 N641 1.990 . S
Li617 O676 1.970 . S
Li617 O677 1.956 . S
Li617 O679 1.961 . S
Li618 N663 1.990 . S
Li618 O676 1.961 . S
Li618 O678 1.956 . S
Li618 O679 1.970 . S
Li619 N669 1.990 . S
Li619 O677 1.961 . S
Li619 O678 1.970 . S
Li619 O679 1.956 . S
C620 C622 1.348 . S
C620 C623 1.356 . S
C620 O676 1.325 . S
N621 C624 1.314 . S
N621 C625 1.279 . S
C622 C620 1.348 . S
C622 C624 1.353 . S
C622 H680 0.929 . S
C623 C620 1.356 . S
C623 C625 1.358 . S
C623 H681 0.930 . S
C624 N621 1.314 . S
C624 C622 1.353 . S
C624 H682 0.930 . S
C625 N621 1.279 . S
C625 C623 1.358 . S
C625 H683 0.930 . S
C626 C629 1.348 . S
C626 C630 1.356 . S
C626 O677 1.325 . S
C627 N628 1.279 . S
C627 C630 1.358 . S
C627 H684 0.930 . S
N628 C627 1.279 . S
N628 C631 1.314 . S
C629 C626 1.348 . S
C629 C631 1.353 . S
C629 H685 0.929 . S
C630 C626 1.356 . S
C630 C627 1.358 . S
C630 H686 0.930 . S
C631 N628 1.314 . S
C631 C629 1.353 . S
C631 H687 0.930 . S
C632 N633 1.314 . S
C632 C637 1.353 . S
C632 H638 0.930 . S
N633 Li616 1.990 . S
N633 C632 1.314 . S
N633 C635 1.279 . S
C634 C635 1.358 . S
C634 C636 1.356 . S
C634 H688 0.930 . S
C635 N633 1.279 . S
C635 C634 1.358 . S
C635 H639 0.930 . S
C636 C634 1.356 . S
C636 C637 1.348 . S
C637 C632 1.353 . S
C637 C636 1.348 . S
C637 H689 0.929 . S
H638 C632 0.930 . S
H639 C635 0.930 . S
C640 N641 1.314 . S
C640 C642 1.353 . S
C640 H646 0.930 . S
N641 Li617 1.990 . S
N641 C640 1.314 . S
N641 C644 1.279 . S
C642 C640 1.353 . S
C642 C645 1.348 . S
C642 H690 0.929 . S
C643 C644 1.358 . S
C643 C645 1.356 . S
C643 H691 0.930 . S
C644 N641 1.279 . S
C644 C643 1.358 . S
C644 H647 0.930 . S
C645 C642 1.348 . S
C645 C643 1.356 . S
H646 C640 0.930 . S
H647 C644 0.930 . S
C648 C650 1.348 . S
C648 C651 1.356 . S
C648 O678 1.325 . S
N649 C652 1.314 . S
N649 C653 1.279 . S
C650 C648 1.348 . S
C650 C652 1.353 . S
C650 H692 0.929 . S
C651 C648 1.356 . S
C651 C653 1.358 . S
C651 H693 0.930 . S
C652 N649 1.314 . S
C652 C650 1.353 . S
C652 H694 0.930 . S
C653 N649 1.279 . S
C653 C651 1.358 . S
C653 H695 0.930 . S
C654 C655 1.348 . S
C654 C656 1.356 . S
C654 O679 1.325 . S
C655 C654 1.348 . S
C655 C657 1.353 . S
C655 H696 0.929 . S
C656 C654 1.356 . S
C656 C658 1.358 . S
C656 H697 0.930 . S
C657 C655 1.353 . S
C657 N659 1.314 . S
C657 H698 0.930 . S
C658 C656 1.358 . S
C658 N659 1.279 . S
C658 H699 0.930 . S
N659 C657 1.314 . S
N659 C658 1.279 . S
C660 C662 1.353 . S
C660 N663 1.314 . S
C660 H666 0.930 . S
C661 N663 1.279 . S
C661 C664 1.358 . S
C661 H667 0.930 . S
C662 C660 1.353 . S
C662 C665 1.348 . S
C662 H700 0.929 . S
N663 Li618 1.990 . S
N663 C660 1.314 . S
N663 C661 1.279 . S
C664 C661 1.358 . S
C664 C665 1.356 . S
C664 H701 0.930 . S
C665 C662 1.348 . S
C665 C664 1.356 . S
H666 C660 0.930 . S
H667 C661 0.930 . S
C668 N669 1.314 . S
C668 C670 1.353 . S
C668 H674 0.930 . S
N669 Li619 1.990 . S
N669 C668 1.314 . S
N669 C672 1.279 . S
C670 C668 1.353 . S
C670 C673 1.348 . S
C670 H702 0.929 . S
C671 C672 1.358 . S
C671 C673 1.356 . S
C671 H703 0.930 . S
C672 N669 1.279 . S
C672 C671 1.358 . S
C672 H675 0.930 . S
C673 C670 1.348 . S
C673 C671 1.356 . S
H674 C668 0.930 . S
H675 C672 0.930 . S
O676 Li616 1.956 . S
O676 Li617 1.970 . S
O676 Li618 1.961 . S
O676 C620 1.325 . S
O677 Li616 1.970 . S
O677 Li617 1.956 . S
O677 Li619 1.961 . S
O677 C626 1.325 . S
O678 Li616 1.961 . S
O678 Li618 1.956 . S
O678 Li619 1.970 . S
O678 C648 1.325 . S
O679 Li617 1.961 . S
O679 Li618 1.970 . S
O679 Li619 1.956 . S
O679 C654 1.325 . S
H680 C622 0.929 . S
H681 C623 0.930 . S
H682 C624 0.930 . S
H683 C625 0.930 . S
H684 C627 0.930 . S
H685 C629 0.929 . S
H686 C630 0.930 . S
H687 C631 0.930 . S
H688 C634 0.930 . S
H689 C637 0.929 . S
H690 C642 0.929 . S
H691 C643 0.930 . S
H692 C650 0.929 . S
H693 C651 0.930 . S
H694 C652 0.930 . S
H695 C653 0.930 . S
H696 C655 0.929 . S
H697 C656 0.930 . S
H698 C657 0.930 . S
H699 C658 0.930 . S
H700 C662 0.929 . S
H701 C664 0.930 . S
H702 C670 0.929 . S
H703 C671 0.930 . S
Li704 N721 1.990 . S
Li704 O764 1.956 . S
Li704 O765 1.970 . S
Li704 O766 1.961 . S
Li705 N729 1.990 1_565 S
Li705 O764 1.970 . S
Li705 O765 1.956 . S
Li705 O767 1.961 . S
Li706 N751 1.990 . S
Li706 O764 1.961 . S
Li706 O766 1.956 . S
Li706 O767 1.970 . S
Li707 N757 1.990 . S
Li707 O765 1.961 . S
Li707 O766 1.970 . S
Li707 O767 1.956 . S
C708 C710 1.348 . S
C708 C711 1.356 . S
C708 O764 1.325 . S
N709 C712 1.314 . S
N709 C713 1.279 . S
C710 C708 1.348 . S
C710 C712 1.353 . S
C710 H768 0.929 1_565 S
C711 C708 1.356 . S
C711 C713 1.358 . S
C711 H769 0.930 . S
C712 N709 1.314 . S
C712 C710 1.353 . S
C712 H770 0.930 1_565 S
C713 N709 1.279 . S
C713 C711 1.358 . S
C713 H771 0.930 . S
C714 C717 1.348 . S
C714 C718 1.356 . S
C714 O765 1.325 1_545 S
C715 N716 1.279 . S
C715 C718 1.358 . S
C715 H772 0.930 . S
N716 C715 1.279 . S
N716 C719 1.314 . S
C717 C714 1.348 . S
C717 C719 1.353 . S
C717 H773 0.929 . S
C718 C714 1.356 . S
C718 C715 1.358 . S
C718 H774 0.930 . S
C719 N716 1.314 . S
C719 C717 1.353 . S
C719 H775 0.930 . S
C720 N721 1.314 . S
C720 C725 1.353 . S
C720 H726 0.930 . S
N721 Li704 1.990 . S
N721 C720 1.314 . S
N721 C723 1.279 . S
C722 C723 1.358 . S
C722 C724 1.356 . S
C722 H776 0.930 . S
C723 N721 1.279 . S
C723 C722 1.358 . S
C723 H727 0.930 . S
C724 C722 1.356 . S
C724 C725 1.348 . S
C725 C720 1.353 . S
C725 C724 1.348 . S
C725 H777 0.929 . S
H726 C720 0.930 . S
H727 C723 0.930 . S
C728 N729 1.314 . S
C728 C730 1.353 . S
C728 H734 0.930 1_545 S
N729 Li705 1.990 1_545 S
N729 C728 1.314 . S
N729 C732 1.279 . S
C730 C728 1.353 . S
C730 C733 1.348 . S
C730 H778 0.929 . S
C731 C732 1.358 . S
C731 C733 1.356 . S
C731 H779 0.930 . S
C732 N729 1.279 . S
C732 C731 1.358 . S
C732 H735 0.930 . S
C733 C730 1.348 . S
C733 C731 1.356 . S
H734 C728 0.930 1_565 S
H735 C732 0.930 . S
C736 C738 1.348 . S
C736 C739 1.356 . S
C736 O766 1.325 . S
N737 C740 1.314 . S
N737 C741 1.279 . S
C738 C736 1.348 . S
C738 C740 1.353 . S
C738 H780 0.929 . S
C739 C736 1.356 . S
C739 C741 1.358 . S
C739 H781 0.930 . S
C740 N737 1.314 . S
C740 C738 1.353 . S
C740 H782 0.930 . S
C741 N737 1.279 . S
C741 C739 1.358 . S
C741 H783 0.930 . S
C742 C743 1.348 . S
C742 C744 1.356 . S
C742 O767 1.325 . S
C743 C742 1.348 . S
C743 C745 1.353 . S
C743 H784 0.929 . S
C744 C742 1.356 . S
C744 C746 1.358 . S
C744 H785 0.930 . S
C745 C743 1.353 . S
C745 N747 1.314 . S
C745 H786 0.930 . S
C746 C744 1.358 . S
C746 N747 1.279 . S
C746 H787 0.930 . S
N747 C745 1.314 . S
N747 C746 1.279 . S
C748 C750 1.353 . S
C748 N751 1.314 . S
C748 H754 0.930 . S
C749 N751 1.279 . S
C749 C752 1.358 . S
C749 H755 0.930 . S
C750 C748 1.353 . S
C750 C753 1.348 . S
C750 H788 0.929 . S
N751 Li706 1.990 . S
N751 C748 1.314 . S
N751 C749 1.279 . S
C752 C749 1.358 . S
C752 C753 1.356 . S
C752 H789 0.930 . S
C753 C750 1.348 . S
C753 C752 1.356 . S
H754 C748 0.930 . S
H755 C749 0.930 . S
C756 N757 1.314 . S
C756 C758 1.353 . S
C756 H762 0.930 . S
N757 Li707 1.990 . S
N757 C756 1.314 . S
N757 C760 1.279 . S
C758 C756 1.353 . S
C758 C761 1.348 . S
C758 H790 0.929 . S
C759 C760 1.358 . S
C759 C761 1.356 . S
C759 H791 0.930 . S
C760 N757 1.279 . S
C760 C759 1.358 . S
C760 H763 0.930 . S
C761 C758 1.348 . S
C761 C759 1.356 . S
H762 C756 0.930 . S
H763 C760 0.930 . S
O764 Li704 1.956 . S
O764 Li705 1.970 . S
O764 Li706 1.961 . S
O764 C708 1.325 . S
O765 Li704 1.970 . S
O765 Li705 1.956 . S
O765 Li707 1.961 . S
O765 C714 1.325 1_565 S
O766 Li704 1.961 . S
O766 Li706 1.956 . S
O766 Li707 1.970 . S
O766 C736 1.325 . S
O767 Li705 1.961 . S
O767 Li706 1.970 . S
O767 Li707 1.956 . S
O767 C742 1.325 . S
H768 C710 0.929 1_545 S
H769 C711 0.930 . S
H770 C712 0.930 1_545 S
H771 C713 0.930 . S
H772 C715 0.930 . S
H773 C717 0.929 . S
H774 C718 0.930 . S
H775 C719 0.930 . S
H776 C722 0.930 . S
H777 C725 0.929 . S
H778 C730 0.929 . S
H779 C731 0.930 . S
H780 C738 0.929 . S
H781 C739 0.930 . S
H782 C740 0.930 . S
H783 C741 0.930 . S
H784 C743 0.929 . S
H785 C744 0.930 . S
H786 C745 0.930 . S
H787 C746 0.930 . S
H788 C750 0.929 . S
H789 C752 0.930 . S
H790 C758 0.929 . S
H791 C759 0.930 . S
Li792 N809 1.990 . S
Li792 O852 1.956 . S
Li792 O853 1.970 . S
Li792 O854 1.961 . S
Li793 N817 1.990 . S
Li793 O852 1.970 . S
Li793 O853 1.956 . S
Li793 O855 1.961 . S
Li794 N839 1.990 . S
Li794 O852 1.961 . S
Li794 O854 1.956 . S
Li794 O855 1.970 . S
Li795 N845 1.990 . S
Li795 O853 1.961 . S
Li795 O854 1.970 . S
Li795 O855 1.956 . S
C796 C798 1.348 . S
C796 C799 1.356 . S
C796 O852 1.325 . S
N797 C800 1.314 . S
N797 C801 1.279 . S
C798 C796 1.348 . S
C798 C800 1.353 . S
C798 H856 0.929 . S
C799 C796 1.356 . S
C799 C801 1.358 . S
C799 H857 0.930 . S
C800 N797 1.314 . S
C800 C798 1.353 . S
C800 H858 0.930 . S
C801 N797 1.279 . S
C801 C799 1.358 . S
C801 H859 0.930 . S
C802 C805 1.348 . S
C802 C806 1.356 . S
C802 O853 1.325 . S
C803 N804 1.279 . S
C803 C806 1.358 . S
C803 H860 0.930 . S
N804 C803 1.279 . S
N804 C807 1.314 . S
C805 C802 1.348 . S
C805 C807 1.353 . S
C805 H861 0.929 . S
C806 C802 1.356 . S
C806 C803 1.358 . S
C806 H862 0.930 . S
C807 N804 1.314 . S
C807 C805 1.353 . S
C807 H863 0.930 . S
C808 N809 1.314 . S
C808 C813 1.353 . S
C808 H814 0.930 . S
N809 Li792 1.990 . S
N809 C808 1.314 . S
N809 C811 1.279 . S
C810 C811 1.358 . S
C810 C812 1.356 . S
C810 H864 0.930 . S
C811 N809 1.279 . S
C811 C810 1.358 . S
C811 H815 0.930 . S
C812 C810 1.356 . S
C812 C813 1.348 . S
C813 C808 1.353 . S
C813 C812 1.348 . S
C813 H865 0.929 . S
H814 C808 0.930 . S
H815 C811 0.930 . S
C816 N817 1.314 . S
C816 C818 1.353 . S
C816 H822 0.930 . S
N817 Li793 1.990 . S
N817 C816 1.314 . S
N817 C820 1.279 . S
C818 C816 1.353 . S
C818 C821 1.348 . S
C818 H866 0.929 . S
C819 C820 1.358 . S
C819 C821 1.356 . S
C819 H867 0.930 . S
C820 N817 1.279 . S
C820 C819 1.358 . S
C820 H823 0.930 . S
C821 C818 1.348 . S
C821 C819 1.356 . S
H822 C816 0.930 . S
H823 C820 0.930 . S
C824 C826 1.348 . S
C824 C827 1.356 . S
C824 O854 1.325 . S
N825 C828 1.314 . S
N825 C829 1.279 . S
C826 C824 1.348 . S
C826 C828 1.353 . S
C826 H868 0.929 . S
C827 C824 1.356 . S
C827 C829 1.358 . S
C827 H869 0.930 . S
C828 N825 1.314 . S
C828 C826 1.353 . S
C828 H870 0.930 . S
C829 N825 1.279 . S
C829 C827 1.358 . S
C829 H871 0.930 . S
C830 C831 1.348 . S
C830 C832 1.356 . S
C830 O855 1.325 . S
C831 C830 1.348 . S
C831 C833 1.353 . S
C831 H872 0.929 . S
C832 C830 1.356 . S
C832 C834 1.358 . S
C832 H873 0.930 . S
C833 C831 1.353 . S
C833 N835 1.314 . S
C833 H874 0.930 . S
C834 C832 1.358 . S
C834 N835 1.279 . S
C834 H875 0.930 . S
N835 C833 1.314 . S
N835 C834 1.279 . S
C836 C838 1.353 . S
C836 N839 1.314 . S
C836 H842 0.930 . S
C837 N839 1.279 . S
C837 C840 1.358 . S
C837 H843 0.930 . S
C838 C836 1.353 . S
C838 C841 1.348 . S
C838 H876 0.929 . S
N839 Li794 1.990 . S
N839 C836 1.314 . S
N839 C837 1.279 . S
C840 C837 1.358 . S
C840 C841 1.356 . S
C840 H877 0.930 . S
C841 C838 1.348 . S
C841 C840 1.356 . S
H842 C836 0.930 . S
H843 C837 0.930 . S
C844 N845 1.314 . S
C844 C846 1.353 . S
C844 H850 0.930 . S
N845 Li795 1.990 . S
N845 C844 1.314 . S
N845 C848 1.279 . S
C846 C844 1.353 . S
C846 C849 1.348 . S
C846 H878 0.929 . S
C847 C848 1.358 . S
C847 C849 1.356 . S
C847 H879 0.930 . S
C848 N845 1.279 . S
C848 C847 1.358 . S
C848 H851 0.930 . S
C849 C846 1.348 . S
C849 C847 1.356 . S
H850 C844 0.930 . S
H851 C848 0.930 . S
O852 Li792 1.956 . S
O852 Li793 1.970 . S
O852 Li794 1.961 . S
O852 C796 1.325 . S
O853 Li792 1.970 . S
O853 Li793 1.956 . S
O853 Li795 1.961 . S
O853 C802 1.325 . S
O854 Li792 1.961 . S
O854 Li794 1.956 . S
O854 Li795 1.970 . S
O854 C824 1.325 . S
O855 Li793 1.961 . S
O855 Li794 1.970 . S
O855 Li795 1.956 . S
O855 C830 1.325 . S
H856 C798 0.929 . S
H857 C799 0.930 . S
H858 C800 0.930 . S
H859 C801 0.930 . S
H860 C803 0.930 . S
H861 C805 0.929 . S
H862 C806 0.930 . S
H863 C807 0.930 . S
H864 C810 0.930 . S
H865 C813 0.929 . S
H866 C818 0.929 . S
H867 C819 0.930 . S
H868 C826 0.929 . S
H869 C827 0.930 . S
H870 C828 0.930 . S
H871 C829 0.930 . S
H872 C831 0.929 . S
H873 C832 0.930 . S
H874 C833 0.930 . S
H875 C834 0.930 . S
H876 C838 0.929 . S
H877 C840 0.930 . S
H878 C846 0.929 . S
H879 C847 0.930 . S
Li880 N897 1.990 . S
Li880 O940 1.956 . S
Li880 O941 1.970 . S
Li880 O942 1.961 . S
Li881 N905 1.990 . S
Li881 O940 1.970 . S
Li881 O941 1.956 . S
Li881 O943 1.961 . S
Li882 N927 1.990 . S
Li882 O940 1.961 . S
Li882 O942 1.956 . S
Li882 O943 1.970 . S
Li883 N933 1.990 1_545 S
Li883 O941 1.961 . S
Li883 O942 1.970 . S
Li883 O943 1.956 . S
C884 C886 1.348 . S
C884 C887 1.356 . S
C884 O940 1.325 . S
N885 C888 1.314 . S
N885 C889 1.279 . S
C886 C884 1.348 . S
C886 C888 1.353 . S
C886 H944 0.929 . S
C887 C884 1.356 . S
C887 C889 1.358 . S
C887 H945 0.930 . S
C888 N885 1.314 . S
C888 C886 1.353 . S
C888 H946 0.930 . S
C889 N885 1.279 . S
C889 C887 1.358 . S
C889 H947 0.930 . S
C890 C893 1.348 . S
C890 C894 1.356 . S
C890 O941 1.325 . S
C891 N892 1.279 . S
C891 C894 1.358 . S
C891 H948 0.930 . S
N892 C891 1.279 . S
N892 C895 1.314 . S
C893 C890 1.348 . S
C893 C895 1.353 . S
C893 H949 0.929 . S
C894 C890 1.356 . S
C894 C891 1.358 . S
C894 H950 0.930 . S
C895 N892 1.314 . S
C895 C893 1.353 . S
C895 H951 0.930 . S
C896 N897 1.314 . S
C896 C901 1.353 . S
C896 H902 0.930 . S
N897 Li880 1.990 . S
N897 C896 1.314 . S
N897 C899 1.279 . S
C898 C899 1.358 . S
C898 C900 1.356 . S
C898 H952 0.930 . S
C899 N897 1.279 . S
C899 C898 1.358 . S
C899 H903 0.930 . S
C900 C898 1.356 . S
C900 C901 1.348 . S
C901 C896 1.353 . S
C901 C900 1.348 . S
C901 H953 0.929 . S
H902 C896 0.930 . S
H903 C899 0.930 . S
C904 N905 1.314 . S
C904 C906 1.353 1_655 S
C904 H910 0.930 . S
N905 Li881 1.990 . S
N905 C904 1.314 . S
N905 C908 1.279 . S
C906 C904 1.353 1_455 S
C906 C909 1.348 . S
C906 H954 0.929 . S
C907 C908 1.358 1_455 S
C907 C909 1.356 . S
C907 H955 0.930 . S
C908 N905 1.279 . S
C908 C907 1.358 1_655 S
C908 H911 0.930 . S
C909 C906 1.348 . S
C909 C907 1.356 . S
H910 C904 0.930 . S
H911 C908 0.930 . S
C912 C914 1.348 . S
C912 C915 1.356 . S
C912 O942 1.325 . S
N913 C916 1.314 . S
N913 C917 1.279 . S
C914 C912 1.348 . S
C914 C916 1.353 . S
C914 H956 0.929 1_545 S
C915 C912 1.356 . S
C915 C917 1.358 . S
C915 H957 0.930 . S
C916 N913 1.314 . S
C916 C914 1.353 . S
C916 H958 0.930 1_545 S
C917 N913 1.279 . S
C917 C915 1.358 . S
C917 H959 0.930 . S
C918 C919 1.348 . S
C918 C920 1.356 . S
C918 O943 1.325 1_565 S
C919 C918 1.348 . S
C919 C921 1.353 . S
C919 H960 0.929 . S
C920 C918 1.356 . S
C920 C922 1.358 . S
C920 H961 0.930 . S
C921 C919 1.353 . S
C921 N923 1.314 . S
C921 H962 0.930 . S
C922 C920 1.358 . S
C922 N923 1.279 . S
C922 H963 0.930 . S
N923 C921 1.314 . S
N923 C922 1.279 . S
C924 C926 1.353 . S
C924 N927 1.314 . S
C924 H930 0.930 . S
C925 N927 1.279 . S
C925 C928 1.358 . S
C925 H931 0.930 . S
C926 C924 1.353 . S
C926 C929 1.348 . S
C926 H964 0.929 . S
N927 Li882 1.990 . S
N927 C924 1.314 . S
N927 C925 1.279 . S
C928 C925 1.358 . S
C928 C929 1.356 . S
C928 H965 0.930 . S
C929 C926 1.348 . S
C929 C928 1.356 . S
H930 C924 0.930 . S
H931 C925 0.930 . S
C932 N933 1.314 . S
C932 C934 1.353 . S
C932 H938 0.930 1_565 S
N933 Li883 1.990 1_565 S
N933 C932 1.314 . S
N933 C936 1.279 . S
C934 C932 1.353 . S
C934 C937 1.348 . S
C934 H966 0.929 . S
C935 C936 1.358 . S
C935 C937 1.356 . S
C935 H967 0.930 . S
C936 N933 1.279 . S
C936 C935 1.358 . S
C936 H939 0.930 . S
C937 C934 1.348 . S
C937 C935 1.356 . S
H938 C932 0.930 1_545 S
H939 C936 0.930 . S
O940 Li880 1.956 . S
O940 Li881 1.970 . S
O940 Li882 1.961 . S
O940 C884 1.325 . S
O941 Li880 1.970 . S
O941 Li881 1.956 . S
O941 Li883 1.961 . S
O941 C890 1.325 . S
O942 Li880 1.961 . S
O942 Li882 1.956 . S
O942 Li883 1.970 . S
O942 C912 1.325 . S
O943 Li881 1.961 . S
O943 Li882 1.970 . S
O943 Li883 1.956 . S
O943 C918 1.325 1_545 S
H944 C886 0.929 . S
H945 C887 0.930 . S
H946 C888 0.930 . S
H947 C889 0.930 . S
H948 C891 0.930 . S
H949 C893 0.929 . S
H950 C894 0.930 . S
H951 C895 0.930 . S
H952 C898 0.930 . S
H953 C901 0.929 . S
H954 C906 0.929 . S
H955 C907 0.930 . S
H956 C914 0.929 1_565 S
H957 C915 0.930 . S
H958 C916 0.930 1_565 S
H959 C917 0.930 . S
H960 C919 0.929 . S
H961 C920 0.930 . S
H962 C921 0.930 . S
H963 C922 0.930 . S
H964 C926 0.929 . S
H965 C928 0.930 . S
H966 C934 0.929 . S
H967 C935 0.930 . S
Li968 N985 1.990 . S
Li968 O1028 1.956 . S
Li968 O1029 1.970 . S
Li968 O1030 1.961 . S
Li969 N993 1.990 . S
Li969 O1028 1.970 . S
Li969 O1029 1.956 . S
Li969 O1031 1.961 . S
Li970 N1015 1.990 . S
Li970 O1028 1.961 . S
Li970 O1030 1.956 . S
Li970 O1031 1.970 . S
Li971 N1021 1.990 . S
Li971 O1029 1.961 . S
Li971 O1030 1.970 . S
Li971 O1031 1.956 . S
C972 C974 1.348 . S
C972 C975 1.356 . S
C972 O1028 1.325 . S
N973 C976 1.314 . S
N973 C977 1.279 . S
C974 C972 1.348 . S
C974 C976 1.353 . S
C974 H1032 0.929 . S
C975 C972 1.356 . S
C975 C977 1.358 . S
C975 H1033 0.930 . S
C976 N973 1.314 . S
C976 C974 1.353 . S
C976 H1034 0.930 . S
C977 N973 1.279 . S
C977 C975 1.358 . S
C977 H1035 0.930 . S
C978 C981 1.348 . S
C978 C982 1.356 . S
C978 O1029 1.325 . S
C979 N980 1.279 . S
C979 C982 1.358 . S
C979 H1036 0.930 . S
N980 C979 1.279 . S
N980 C983 1.314 . S
C981 C978 1.348 . S
C981 C983 1.353 . S
C981 H1037 0.929 . S
C982 C978 1.356 . S
C982 C979 1.358 . S
C982 H1038 0.930 . S
C983 N980 1.314 . S
C983 C981 1.353 . S
C983 H1039 0.930 . S
C984 N985 1.314 . S
C984 C989 1.353 . S
C984 H990 0.930 . S
N985 Li968 1.990 . S
N985 C984 1.314 . S
N985 C987 1.279 . S
C986 C987 1.358 . S
C986 C988 1.356 . S
C986 H1040 0.930 . S
C987 N985 1.279 . S
C987 C986 1.358 . S
C987 H991 0.930 . S
C988 C986 1.356 . S
C988 C989 1.348 . S
C989 C984 1.353 . S
C989 C988 1.348 . S
C989 H1041 0.929 . S
H990 C984 0.930 . S
H991 C987 0.930 . S
C992 N993 1.314 . S
C992 C994 1.353 . S
C992 H998 0.930 . S
N993 Li969 1.990 . S
N993 C992 1.314 . S
N993 C996 1.279 . S
C994 C992 1.353 . S
C994 C997 1.348 . S
C994 H1042 0.929 . S
C995 C996 1.358 . S
C995 C997 1.356 . S
C995 H1043 0.930 . S
C996 N993 1.279 . S
C996 C995 1.358 . S
C996 H999 0.930 . S
C997 C994 1.348 . S
C997 C995 1.356 . S
H998 C992 0.930 . S
H999 C996 0.930 . S
C1000 C1002 1.348 . S
C1000 C1003 1.356 . S
C1000 O1030 1.325 . S
N1001 C1004 1.314 . S
N1001 C1005 1.279 . S
C1002 C1000 1.348 . S
C1002 C1004 1.353 . S
C1002 H1044 0.929 . S
C1003 C1000 1.356 . S
C1003 C1005 1.358 . S
C1003 H1045 0.930 . S
C1004 N1001 1.314 . S
C1004 C1002 1.353 . S
C1004 H1046 0.930 . S
C1005 N1001 1.279 . S
C1005 C1003 1.358 . S
C1005 H1047 0.930 . S
C1006 C1007 1.348 . S
C1006 C1008 1.356 . S
C1006 O1031 1.325 . S
C1007 C1006 1.348 . S
C1007 C1009 1.353 . S
C1007 H1048 0.929 . S
C1008 C1006 1.356 . S
C1008 C1010 1.358 . S
C1008 H1049 0.930 . S
C1009 C1007 1.353 . S
C1009 N1011 1.314 . S
C1009 H1050 0.930 . S
C1010 C1008 1.358 . S
C1010 N1011 1.279 . S
C1010 H1051 0.930 . S
N1011 C1009 1.314 . S
N1011 C1010 1.279 . S
C1012 C1014 1.353 . S
C1012 N1015 1.314 . S
C1012 H1018 0.930 . S
C1013 N1015 1.279 . S
C1013 C1016 1.358 . S
C1013 H1019 0.930 . S
C1014 C1012 1.353 . S
C1014 C1017 1.348 . S
C1014 H1052 0.929 . S
N1015 Li970 1.990 . S
N1015 C1012 1.314 . S
N1015 C1013 1.279 . S
C1016 C1013 1.358 . S
C1016 C1017 1.356 . S
C1016 H1053 0.930 . S
C1017 C1014 1.348 . S
C1017 C1016 1.356 . S
H1018 C1012 0.930 . S
H1019 C1013 0.930 . S
C1020 N1021 1.314 . S
C1020 C1022 1.353 . S
C1020 H1026 0.930 . S
N1021 Li971 1.990 . S
N1021 C1020 1.314 . S
N1021 C1024 1.279 . S
C1022 C1020 1.353 . S
C1022 C1025 1.348 . S
C1022 H1054 0.929 . S
C1023 C1024 1.358 . S
C1023 C1025 1.356 . S
C1023 H1055 0.930 . S
C1024 N1021 1.279 . S
C1024 C1023 1.358 . S
C1024 H1027 0.930 . S
C1025 C1022 1.348 . S
C1025 C1023 1.356 . S
H1026 C1020 0.930 . S
H1027 C1024 0.930 . S
O1028 Li968 1.956 . S
O1028 Li969 1.970 . S
O1028 Li970 1.961 . S
O1028 C972 1.325 . S
O1029 Li968 1.970 . S
O1029 Li969 1.956 . S
O1029 Li971 1.961 . S
O1029 C978 1.325 . S
O1030 Li968 1.961 . S
O1030 Li970 1.956 . S
O1030 Li971 1.970 . S
O1030 C1000 1.325 . S
O1031 Li969 1.961 . S
O1031 Li970 1.970 . S
O1031 Li971 1.956 . S
O1031 C1006 1.325 . S
H1032 C974 0.929 . S
H1033 C975 0.930 . S
H1034 C976 0.930 . S
H1035 C977 0.930 . S
H1036 C979 0.930 . S
H1037 C981 0.929 . S
H1038 C982 0.930 . S
H1039 C983 0.930 . S
H1040 C986 0.930 . S
H1041 C989 0.929 . S
H1042 C994 0.929 . S
H1043 C995 0.930 . S
H1044 C1002 0.929 . S
H1045 C1003 0.930 . S
H1046 C1004 0.930 . S
H1047 C1005 0.930 . S
H1048 C1007 0.929 . S
H1049 C1008 0.930 . S
H1050 C1009 0.930 . S
H1051 C1010 0.930 . S
H1052 C1014 0.929 . S
H1053 C1016 0.930 . S
H1054 C1022 0.929 . S
H1055 C1023 0.930 . S
Li1056 N1073 1.990 . S
Li1056 O1116 1.956 . S
Li1056 O1117 1.970 . S
Li1056 O1118 1.961 . S
Li1057 N1081 1.990 . S
Li1057 O1116 1.970 . S
Li1057 O1117 1.956 . S
Li1057 O1119 1.961 . S
Li1058 N1103 1.990 1_545 S
Li1058 O1116 1.961 . S
Li1058 O1118 1.956 . S
Li1058 O1119 1.970 . S
Li1059 N1109 1.990 . S
Li1059 O1117 1.961 . S
Li1059 O1118 1.970 . S
Li1059 O1119 1.956 . S
C1060 C1062 1.348 . S
C1060 C1063 1.356 . S
C1060 O1116 1.325 . S
N1061 C1064 1.314 . S
N1061 C1065 1.279 . S
C1062 C1060 1.348 . S
C1062 C1064 1.353 . S
C1062 H1120 0.929 . S
C1063 C1060 1.356 . S
C1063 C1065 1.358 . S
C1063 H1121 0.930 . S
C1064 N1061 1.314 . S
C1064 C1062 1.353 . S
C1064 H1122 0.930 . S
C1065 N1061 1.279 . S
C1065 C1063 1.358 . S
C1065 H1123 0.930 . S
C1066 C1069 1.348 . S
C1066 C1070 1.356 . S
C1066 O1117 1.325 . S
C1067 N1068 1.279 . S
C1067 C1070 1.358 . S
C1067 H1124 0.930 . S
N1068 C1067 1.279 . S
N1068 C1071 1.314 . S
C1069 C1066 1.348 . S
C1069 C1071 1.353 . S
C1069 H1125 0.929 . S
C1070 C1066 1.356 . S
C1070 C1067 1.358 . S
C1070 H1126 0.930 . S
C1071 N1068 1.314 . S
C1071 C1069 1.353 . S
C1071 H1127 0.930 . S
C1072 N1073 1.314 . S
C1072 C1077 1.353 . S
C1072 H1078 0.930 . S
N1073 Li1056 1.990 . S
N1073 C1072 1.314 . S
N1073 C1075 1.279 . S
C1074 C1075 1.358 . S
C1074 C1076 1.356 . S
C1074 H1128 0.930 . S
C1075 N1073 1.279 . S
C1075 C1074 1.358 . S
C1075 H1079 0.930 . S
C1076 C1074 1.356 . S
C1076 C1077 1.348 . S
C1077 C1072 1.353 . S
C1077 C1076 1.348 . S
C1077 H1129 0.929 . S
H1078 C1072 0.930 . S
H1079 C1075 0.930 . S
C1080 N1081 1.314 . S
C1080 C1082 1.353 . S
C1080 H1086 0.930 . S
N1081 Li1057 1.990 . S
N1081 C1080 1.314 . S
N1081 C1084 1.279 . S
C1082 C1080 1.353 . S
C1082 C1085 1.348 . S
C1082 H1130 0.929 . S
C1083 C1084 1.358 . S
C1083 C1085 1.356 . S
C1083 H1131 0.930 . S
C1084 N1081 1.279 . S
C1084 C1083 1.358 . S
C1084 H1087 0.930 . S
C1085 C1082 1.348 . S
C1085 C1083 1.356 . S
H1086 C1080 0.930 . S
H1087 C1084 0.930 . S
C1088 C1090 1.348 . S
C1088 C1091 1.356 . S
C1088 O1118 1.325 1_565 S
N1089 C1092 1.314 . S
N1089 C1093 1.279 . S
C1090 C1088 1.348 . S
C1090 C1092 1.353 . S
C1090 H1132 0.929 . S
C1091 C1088 1.356 . S
C1091 C1093 1.358 . S
C1091 H1133 0.930 . S
C1092 N1089 1.314 . S
C1092 C1090 1.353 . S
C1092 H1134 0.930 . S
C1093 N1089 1.279 . S
C1093 C1091 1.358 . S
C1093 H1135 0.930 . S
C1094 C1095 1.348 . S
C1094 C1096 1.356 . S
C1094 O1119 1.325 . S
C1095 C1094 1.348 . S
C1095 C1097 1.353 . S
C1095 H1136 0.929 1_545 S
C1096 C1094 1.356 . S
C1096 C1098 1.358 . S
C1096 H1137 0.930 . S
C1097 C1095 1.353 . S
C1097 N1099 1.314 . S
C1097 H1138 0.930 1_545 S
C1098 C1096 1.358 . S
C1098 N1099 1.279 . S
C1098 H1139 0.930 . S
N1099 C1097 1.314 . S
N1099 C1098 1.279 . S
C1100 C1102 1.353 . S
C1100 N1103 1.314 . S
C1100 H1106 0.930 1_565 S
C1101 N1103 1.279 . S
C1101 C1104 1.358 . S
C1101 H1107 0.930 . S
C1102 C1100 1.353 . S
C1102 C1105 1.348 . S
C1102 H1140 0.929 . S
N1103 Li1058 1.990 1_565 S
N1103 C1100 1.314 . S
N1103 C1101 1.279 . S
C1104 C1101 1.358 . S
C1104 C1105 1.356 . S
C1104 H1141 0.930 . S
C1105 C1102 1.348 . S
C1105 C1104 1.356 . S
H1106 C1100 0.930 1_545 S
H1107 C1101 0.930 . S
C1108 N1109 1.314 . S
C1108 C1110 1.353 . S
C1108 H1114 0.930 . S
N1109 Li1059 1.990 . S
N1109 C1108 1.314 . S
N1109 C1112 1.279 . S
C1110 C1108 1.353 . S
C1110 C1113 1.348 . S
C1110 H1142 0.929 . S
C1111 C1112 1.358 . S
C1111 C1113 1.356 . S
C1111 H1143 0.930 . S
C1112 N1109 1.279 . S
C1112 C1111 1.358 . S
C1112 H1115 0.930 . S
C1113 C1110 1.348 . S
C1113 C1111 1.356 . S
H1114 C1108 0.930 . S
H1115 C1112 0.930 . S
O1116 Li1056 1.956 . S
O1116 Li1057 1.970 . S
O1116 Li1058 1.961 . S
O1116 C1060 1.325 . S
O1117 Li1056 1.970 . S
O1117 Li1057 1.956 . S
O1117 Li1059 1.961 . S
O1117 C1066 1.325 . S
O1118 Li1056 1.961 . S
O1118 Li1058 1.956 . S
O1118 Li1059 1.970 . S
O1118 C1088 1.325 1_545 S
O1119 Li1057 1.961 . S
O1119 Li1058 1.970 . S
O1119 Li1059 1.956 . S
O1119 C1094 1.325 . S
H1120 C1062 0.929 . S
H1121 C1063 0.930 . S
H1122 C1064 0.930 . S
H1123 C1065 0.930 . S
H1124 C1067 0.930 . S
H1125 C1069 0.929 . S
H1126 C1070 0.930 . S
H1127 C1071 0.930 . S
H1128 C1074 0.930 . S
H1129 C1077 0.929 . S
H1130 C1082 0.929 . S
H1131 C1083 0.930 . S
H1132 C1090 0.929 . S
H1133 C1091 0.930 . S
H1134 C1092 0.930 . S
H1135 C1093 0.930 . S
H1136 C1095 0.929 1_565 S
H1137 C1096 0.930 . S
H1138 C1097 0.930 1_565 S
H1139 C1098 0.930 . S
H1140 C1102 0.929 . S
H1141 C1104 0.930 . S
H1142 C1110 0.929 . S
H1143 C1111 0.930 . S
Li1144 N1161 1.990 . S
Li1144 O1204 1.956 . S
Li1144 O1205 1.970 . S
Li1144 O1206 1.961 . S
Li1145 N1169 1.990 . S
Li1145 O1204 1.970 . S
Li1145 O1205 1.956 . S
Li1145 O1207 1.961 . S
Li1146 N1191 1.990 . S
Li1146 O1204 1.961 . S
Li1146 O1206 1.956 . S
Li1146 O1207 1.970 . S
Li1147 N1197 1.990 . S
Li1147 O1205 1.961 . S
Li1147 O1206 1.970 . S
Li1147 O1207 1.956 . S
C1148 C1150 1.348 . S
C1148 C1151 1.356 . S
C1148 O1204 1.325 . S
N1149 C1152 1.314 . S
N1149 C1153 1.279 . S
C1150 C1148 1.348 . S
C1150 C1152 1.353 . S
C1150 H1208 0.929 . S
C1151 C1148 1.356 . S
C1151 C1153 1.358 . S
C1151 H1209 0.930 . S
C1152 N1149 1.314 . S
C1152 C1150 1.353 . S
C1152 H1210 0.930 . S
C1153 N1149 1.279 . S
C1153 C1151 1.358 . S
C1153 H1211 0.930 . S
C1154 C1157 1.348 . S
C1154 C1158 1.356 . S
C1154 O1205 1.325 . S
C1155 N1156 1.279 . S
C1155 C1158 1.358 . S
C1155 H1212 0.930 . S
N1156 C1155 1.279 . S
N1156 C1159 1.314 . S
C1157 C1154 1.348 . S
C1157 C1159 1.353 . S
C1157 H1213 0.929 . S
C1158 C1154 1.356 . S
C1158 C1155 1.358 . S
C1158 H1214 0.930 . S
C1159 N1156 1.314 . S
C1159 C1157 1.353 . S
C1159 H1215 0.930 . S
C1160 N1161 1.314 . S
C1160 C1165 1.353 . S
C1160 H1166 0.930 . S
N1161 Li1144 1.990 . S
N1161 C1160 1.314 . S
N1161 C1163 1.279 . S
C1162 C1163 1.358 . S
C1162 C1164 1.356 . S
C1162 H1216 0.930 . S
C1163 N1161 1.279 . S
C1163 C1162 1.358 . S
C1163 H1167 0.930 . S
C1164 C1162 1.356 . S
C1164 C1165 1.348 . S
C1165 C1160 1.353 . S
C1165 C1164 1.348 . S
C1165 H1217 0.929 . S
H1166 C1160 0.930 . S
H1167 C1163 0.930 . S
C1168 N1169 1.314 . S
C1168 C1170 1.353 . S
C1168 H1174 0.930 . S
N1169 Li1145 1.990 . S
N1169 C1168 1.314 . S
N1169 C1172 1.279 . S
C1170 C1168 1.353 . S
C1170 C1173 1.348 . S
C1170 H1218 0.929 . S
C1171 C1172 1.358 . S
C1171 C1173 1.356 . S
C1171 H1219 0.930 . S
C1172 N1169 1.279 . S
C1172 C1171 1.358 . S
C1172 H1175 0.930 . S
C1173 C1170 1.348 . S
C1173 C1171 1.356 . S
H1174 C1168 0.930 . S
H1175 C1172 0.930 . S
C1176 C1178 1.348 . S
C1176 C1179 1.356 . S
C1176 O1206 1.325 . S
N1177 C1180 1.314 . S
N1177 C1181 1.279 . S
C1178 C1176 1.348 . S
C1178 C1180 1.353 . S
C1178 H1220 0.929 . S
C1179 C1176 1.356 . S
C1179 C1181 1.358 . S
C1179 H1221 0.930 . S
C1180 N1177 1.314 . S
C1180 C1178 1.353 . S
C1180 H1222 0.930 . S
C1181 N1177 1.279 . S
C1181 C1179 1.358 . S
C1181 H1223 0.930 . S
C1182 C1183 1.348 . S
C1182 C1184 1.356 . S
C1182 O1207 1.325 . S
C1183 C1182 1.348 . S
C1183 C1185 1.353 . S
C1183 H1224 0.929 . S
C1184 C1182 1.356 . S
C1184 C1186 1.358 . S
C1184 H1225 0.930 . S
C1185 C1183 1.353 . S
C1185 N1187 1.314 . S
C1185 H1226 0.930 . S
C1186 C1184 1.358 . S
C1186 N1187 1.279 . S
C1186 H1227 0.930 . S
N1187 C1185 1.314 . S
N1187 C1186 1.279 . S
C1188 C1190 1.353 . S
C1188 N1191 1.314 . S
C1188 H1194 0.930 . S
C1189 N1191 1.279 . S
C1189 C1192 1.358 . S
C1189 H1195 0.930 . S
C1190 C1188 1.353 . S
C1190 C1193 1.348 . S
C1190 H1228 0.929 . S
N1191 Li1146 1.990 . S
N1191 C1188 1.314 . S
N1191 C1189 1.279 . S
C1192 C1189 1.358 . S
C1192 C1193 1.356 . S
C1192 H1229 0.930 . S
C1193 C1190 1.348 . S
C1193 C1192 1.356 . S
H1194 C1188 0.930 . S
H1195 C1189 0.930 . S
C1196 N1197 1.314 . S
C1196 C1198 1.353 . S
C1196 H1202 0.930 . S
N1197 Li1147 1.990 . S
N1197 C1196 1.314 . S
N1197 C1200 1.279 . S
C1198 C1196 1.353 . S
C1198 C1201 1.348 . S
C1198 H1230 0.929 . S
C1199 C1200 1.358 . S
C1199 C1201 1.356 . S
C1199 H1231 0.930 . S
C1200 N1197 1.279 . S
C1200 C1199 1.358 . S
C1200 H1203 0.930 . S
C1201 C1198 1.348 . S
C1201 C1199 1.356 . S
H1202 C1196 0.930 . S
H1203 C1200 0.930 . S
O1204 Li1144 1.956 . S
O1204 Li1145 1.970 . S
O1204 Li1146 1.961 . S
O1204 C1148 1.325 . S
O1205 Li1144 1.970 . S
O1205 Li1145 1.956 . S
O1205 Li1147 1.961 . S
O1205 C1154 1.325 . S
O1206 Li1144 1.961 . S
O1206 Li1146 1.956 . S
O1206 Li1147 1.970 . S
O1206 C1176 1.325 . S
O1207 Li1145 1.961 . S
O1207 Li1146 1.970 . S
O1207 Li1147 1.956 . S
O1207 C1182 1.325 . S
H1208 C1150 0.929 . S
H1209 C1151 0.930 . S
H1210 C1152 0.930 . S
H1211 C1153 0.930 . S
H1212 C1155 0.930 . S
H1213 C1157 0.929 . S
H1214 C1158 0.930 . S
H1215 C1159 0.930 . S
H1216 C1162 0.930 . S
H1217 C1165 0.929 . S
H1218 C1170 0.929 . S
H1219 C1171 0.930 . S
H1220 C1178 0.929 . S
H1221 C1179 0.930 . S
H1222 C1180 0.930 . S
H1223 C1181 0.930 . S
H1224 C1183 0.929 . S
H1225 C1184 0.930 . S
H1226 C1185 0.930 . S
H1227 C1186 0.930 . S
H1228 C1190 0.929 . S
H1229 C1192 0.930 . S
H1230 C1198 0.929 . S
H1231 C1199 0.930 . S
Li1232 N1249 1.990 1_565 S
Li1232 O1292 1.956 . S
Li1232 O1293 1.970 . S
Li1232 O1294 1.961 . S
Li1233 N1257 1.990 . S
Li1233 O1292 1.970 . S
Li1233 O1293 1.956 . S
Li1233 O1295 1.961 . S
Li1234 N1279 1.990 . S
Li1234 O1292 1.961 . S
Li1234 O1294 1.956 . S
Li1234 O1295 1.970 . S
Li1235 N1285 1.990 . S
Li1235 O1293 1.961 . S
Li1235 O1294 1.970 . S
Li1235 O1295 1.956 . S
C1236 C1238 1.348 . S
C1236 C1239 1.356 . S
C1236 O1292 1.325 1_545 S
N1237 C1240 1.314 . S
N1237 C1241 1.279 . S
C1238 C1236 1.348 . S
C1238 C1240 1.353 . S
C1238 H1296 0.929 . S
C1239 C1236 1.356 . S
C1239 C1241 1.358 . S
C1239 H1297 0.930 . S
C1240 N1237 1.314 . S
C1240 C1238 1.353 . S
C1240 H1298 0.930 . S
C1241 N1237 1.279 . S
C1241 C1239 1.358 . S
C1241 H1299 0.930 . S
C1242 C1245 1.348 . S
C1242 C1246 1.356 . S
C1242 O1293 1.325 . S
C1243 N1244 1.279 . S
C1243 C1246 1.358 . S
C1243 H1300 0.930 . S
N1244 C1243 1.279 . S
N1244 C1247 1.314 . S
C1245 C1242 1.348 . S
C1245 C1247 1.353 . S
C1245 H1301 0.929 1_565 S
C1246 C1242 1.356 . S
C1246 C1243 1.358 . S
C1246 H1302 0.930 . S
C1247 N1244 1.314 . S
C1247 C1245 1.353 . S
C1247 H1303 0.930 1_565 S
C1248 N1249 1.314 . S
C1248 C1253 1.353 . S
C1248 H1254 0.930 1_545 S
N1249 Li1232 1.990 1_545 S
N1249 C1248 1.314 . S
N1249 C1251 1.279 . S
C1250 C1251 1.358 . S
C1250 C1252 1.356 . S
C1250 H1304 0.930 . S
C1251 N1249 1.279 . S
C1251 C1250 1.358 . S
C1251 H1255 0.930 . S
C1252 C1250 1.356 . S
C1252 C1253 1.348 . S
C1253 C1248 1.353 . S
C1253 C1252 1.348 . S
C1253 H1305 0.929 . S
H1254 C1248 0.930 1_565 S
H1255 C1251 0.930 . S
C1256 N1257 1.314 . S
C1256 C1258 1.353 . S
C1256 H1262 0.930 . S
N1257 Li1233 1.990 . S
N1257 C1256 1.314 . S
N1257 C1260 1.279 . S
C1258 C1256 1.353 . S
C1258 C1261 1.348 . S
C1258 H1306 0.929 . S
C1259 C1260 1.358 . S
C1259 C1261 1.356 . S
C1259 H1307 0.930 . S
C1260 N1257 1.279 . S
C1260 C1259 1.358 . S
C1260 H1263 0.930 . S
C1261 C1258 1.348 . S
C1261 C1259 1.356 . S
H1262 C1256 0.930 . S
H1263 C1260 0.930 . S
C1264 C1266 1.348 . S
C1264 C1267 1.356 . S
C1264 O1294 1.325 . S
N1265 C1268 1.314 . S
N1265 C1269 1.279 . S
C1266 C1264 1.348 . S
C1266 C1268 1.353 . S
C1266 H1308 0.929 . S
C1267 C1264 1.356 . S
C1267 C1269 1.358 . S
C1267 H1309 0.930 . S
C1268 N1265 1.314 . S
C1268 C1266 1.353 . S
C1268 H1310 0.930 . S
C1269 N1265 1.279 . S
C1269 C1267 1.358 . S
C1269 H1311 0.930 . S
C1270 C1271 1.348 . S
C1270 C1272 1.356 . S
C1270 O1295 1.325 . S
C1271 C1270 1.348 . S
C1271 C1273 1.353 . S
C1271 H1312 0.929 . S
C1272 C1270 1.356 . S
C1272 C1274 1.358 . S
C1272 H1313 0.930 . S
C1273 C1271 1.353 . S
C1273 N1275 1.314 . S
C1273 H1314 0.930 . S
C1274 C1272 1.358 . S
C1274 N1275 1.279 . S
C1274 H1315 0.930 . S
N1275 C1273 1.314 . S
N1275 C1274 1.279 . S
C1276 C1278 1.353 1_655 S
C1276 N1279 1.314 . S
C1276 H1282 0.930 . S
C1277 N1279 1.279 . S
C1277 C1280 1.358 1_655 S
C1277 H1283 0.930 . S
C1278 C1276 1.353 1_455 S
C1278 C1281 1.348 . S
C1278 H1316 0.929 . S
N1279 Li1234 1.990 . S
N1279 C1276 1.314 . S
N1279 C1277 1.279 . S
C1280 C1277 1.358 1_455 S
C1280 C1281 1.356 . S
C1280 H1317 0.930 . S
C1281 C1278 1.348 . S
C1281 C1280 1.356 . S
H1282 C1276 0.930 . S
H1283 C1277 0.930 . S
C1284 N1285 1.314 . S
C1284 C1286 1.353 . S
C1284 H1290 0.930 . S
N1285 Li1235 1.990 . S
N1285 C1284 1.314 . S
N1285 C1288 1.279 . S
C1286 C1284 1.353 . S
C1286 C1289 1.348 . S
C1286 H1318 0.929 . S
C1287 C1288 1.358 . S
C1287 C1289 1.356 . S
C1287 H1319 0.930 . S
C1288 N1285 1.279 . S
C1288 C1287 1.358 . S
C1288 H1291 0.930 . S
C1289 C1286 1.348 . S
C1289 C1287 1.356 . S
H1290 C1284 0.930 . S
H1291 C1288 0.930 . S
O1292 Li1232 1.956 . S
O1292 Li1233 1.970 . S
O1292 Li1234 1.961 . S
O1292 C1236 1.325 1_565 S
O1293 Li1232 1.970 . S
O1293 Li1233 1.956 . S
O1293 Li1235 1.961 . S
O1293 C1242 1.325 . S
O1294 Li1232 1.961 . S
O1294 Li1234 1.956 . S
O1294 Li1235 1.970 . S
O1294 C1264 1.325 . S
O1295 Li1233 1.961 . S
O1295 Li1234 1.970 . S
O1295 Li1235 1.956 . S
O1295 C1270 1.325 . S
H1296 C1238 0.929 . S
H1297 C1239 0.930 . S
H1298 C1240 0.930 . S
H1299 C1241 0.930 . S
H1300 C1243 0.930 . S
H1301 C1245 0.929 1_545 S
H1302 C1246 0.930 . S
H1303 C1247 0.930 1_545 S
H1304 C1250 0.930 . S
H1305 C1253 0.929 . S
H1306 C1258 0.929 . S
H1307 C1259 0.930 . S
H1308 C1266 0.929 . S
H1309 C1267 0.930 . S
H1310 C1268 0.930 . S
H1311 C1269 0.930 . S
H1312 C1271 0.929 . S
H1313 C1272 0.930 . S
H1314 C1273 0.930 . S
H1315 C1274 0.930 . S
H1316 C1278 0.929 . S
H1317 C1280 0.930 . S
H1318 C1286 0.929 . S
H1319 C1287 0.930 . S
Li1320 N1337 1.990 . S
Li1320 O1380 1.956 . S
Li1320 O1381 1.970 . S
Li1320 O1382 1.961 . S
Li1321 N1345 1.990 . S
Li1321 O1380 1.970 . S
Li1321 O1381 1.956 . S
Li1321 O1383 1.961 . S
Li1322 N1367 1.990 . S
Li1322 O1380 1.961 . S
Li1322 O1382 1.956 . S
Li1322 O1383 1.970 . S
Li1323 N1373 1.990 . S
Li1323 O1381 1.961 . S
Li1323 O1382 1.970 . S
Li1323 O1383 1.956 . S
C1324 C1326 1.348 . S
C1324 C1327 1.356 . S
C1324 O1380 1.325 . S
N1325 C1328 1.314 . S
N1325 C1329 1.279 . S
C1326 C1324 1.348 . S
C1326 C1328 1.353 . S
C1326 H1384 0.929 . S
C1327 C1324 1.356 . S
C1327 C1329 1.358 . S
C1327 H1385 0.930 . S
C1328 N1325 1.314 . S
C1328 C1326 1.353 . S
C1328 H1386 0.930 . S
C1329 N1325 1.279 . S
C1329 C1327 1.358 . S
C1329 H1387 0.930 . S
C1330 C1333 1.348 . S
C1330 C1334 1.356 . S
C1330 O1381 1.325 . S
C1331 N1332 1.279 . S
C1331 C1334 1.358 . S
C1331 H1388 0.930 . S
N1332 C1331 1.279 . S
N1332 C1335 1.314 . S
C1333 C1330 1.348 . S
C1333 C1335 1.353 . S
C1333 H1389 0.929 . S
C1334 C1330 1.356 . S
C1334 C1331 1.358 . S
C1334 H1390 0.930 . S
C1335 N1332 1.314 . S
C1335 C1333 1.353 . S
C1335 H1391 0.930 . S
C1336 N1337 1.314 . S
C1336 C1341 1.353 . S
C1336 H1342 0.930 . S
N1337 Li1320 1.990 . S
N1337 C1336 1.314 . S
N1337 C1339 1.279 . S
C1338 C1339 1.358 . S
C1338 C1340 1.356 . S
C1338 H1392 0.930 . S
C1339 N1337 1.279 . S
C1339 C1338 1.358 . S
C1339 H1343 0.930 . S
C1340 C1338 1.356 . S
C1340 C1341 1.348 . S
C1341 C1336 1.353 . S
C1341 C1340 1.348 . S
C1341 H1393 0.929 . S
H1342 C1336 0.930 . S
H1343 C1339 0.930 . S
C1344 N1345 1.314 . S
C1344 C1346 1.353 . S
C1344 H1350 0.930 . S
N1345 Li1321 1.990 . S
N1345 C1344 1.314 . S
N1345 C1348 1.279 . S
C1346 C1344 1.353 . S
C1346 C1349 1.348 . S
C1346 H1394 0.929 . S
C1347 C1348 1.358 . S
C1347 C1349 1.356 . S
C1347 H1395 0.930 . S
C1348 N1345 1.279 . S
C1348 C1347 1.358 . S
C1348 H1351 0.930 . S
C1349 C1346 1.348 . S
C1349 C1347 1.356 . S
H1350 C1344 0.930 . S
H1351 C1348 0.930 . S
C1352 C1354 1.348 . S
C1352 C1355 1.356 . S
C1352 O1382 1.325 . S
N1353 C1356 1.314 . S
N1353 C1357 1.279 . S
C1354 C1352 1.348 . S
C1354 C1356 1.353 . S
C1354 H1396 0.929 . S
C1355 C1352 1.356 . S
C1355 C1357 1.358 . S
C1355 H1397 0.930 . S
C1356 N1353 1.314 . S
C1356 C1354 1.353 . S
C1356 H1398 0.930 . S
C1357 N1353 1.279 . S
C1357 C1355 1.358 . S
C1357 H1399 0.930 . S
C1358 C1359 1.348 . S
C1358 C1360 1.356 . S
C1358 O1383 1.325 . S
C1359 C1358 1.348 . S
C1359 C1361 1.353 . S
C1359 H1400 0.929 . S
C1360 C1358 1.356 . S
C1360 C1362 1.358 . S
C1360 H1401 0.930 . S
C1361 C1359 1.353 . S
C1361 N1363 1.314 . S
C1361 H1402 0.930 . S
C1362 C1360 1.358 . S
C1362 N1363 1.279 . S
C1362 H1403 0.930 . S
N1363 C1361 1.314 . S
N1363 C1362 1.279 . S
C1364 C1366 1.353 . S
C1364 N1367 1.314 . S
C1364 H1370 0.930 . S
C1365 N1367 1.279 . S
C1365 C1368 1.358 . S
C1365 H1371 0.930 . S
C1366 C1364 1.353 . S
C1366 C1369 1.348 . S
C1366 H1404 0.929 . S
N1367 Li1322 1.990 . S
N1367 C1364 1.314 . S
N1367 C1365 1.279 . S
C1368 C1365 1.358 . S
C1368 C1369 1.356 . S
C1368 H1405 0.930 . S
C1369 C1366 1.348 . S
C1369 C1368 1.356 . S
H1370 C1364 0.930 . S
H1371 C1365 0.930 . S
C1372 N1373 1.314 . S
C1372 C1374 1.353 . S
C1372 H1378 0.930 . S
N1373 Li1323 1.990 . S
N1373 C1372 1.314 . S
N1373 C1376 1.279 . S
C1374 C1372 1.353 . S
C1374 C1377 1.348 . S
C1374 H1406 0.929 . S
C1375 C1376 1.358 . S
C1375 C1377 1.356 . S
C1375 H1407 0.930 . S
C1376 N1373 1.279 . S
C1376 C1375 1.358 . S
C1376 H1379 0.930 . S
C1377 C1374 1.348 . S
C1377 C1375 1.356 . S
H1378 C1372 0.930 . S
H1379 C1376 0.930 . S
O1380 Li1320 1.956 . S
O1380 Li1321 1.970 . S
O1380 Li1322 1.961 . S
O1380 C1324 1.325 . S
O1381 Li1320 1.970 . S
O1381 Li1321 1.956 . S
O1381 Li1323 1.961 . S
O1381 C1330 1.325 . S
O1382 Li1320 1.961 . S
O1382 Li1322 1.956 . S
O1382 Li1323 1.970 . S
O1382 C1352 1.325 . S
O1383 Li1321 1.961 . S
O1383 Li1322 1.970 . S
O1383 Li1323 1.956 . S
O1383 C1358 1.325 . S
H1384 C1326 0.929 . S
H1385 C1327 0.930 . S
H1386 C1328 0.930 . S
H1387 C1329 0.930 . S
H1388 C1331 0.930 . S
H1389 C1333 0.929 . S
H1390 C1334 0.930 . S
H1391 C1335 0.930 . S
H1392 C1338 0.930 . S
H1393 C1341 0.929 . S
H1394 C1346 0.929 . S
H1395 C1347 0.930 . S
H1396 C1354 0.929 . S
H1397 C1355 0.930 . S
H1398 C1356 0.930 . S
H1399 C1357 0.930 . S
H1400 C1359 0.929 . S
H1401 C1360 0.930 . S
H1402 C1361 0.930 . S
H1403 C1362 0.930 . S
H1404 C1366 0.929 . S
H1405 C1368 0.930 . S
H1406 C1374 0.929 . S
H1407 C1375 0.930 . S
Li1408 N1425 1.990 . S
Li1408 O1468 1.956 . S
Li1408 O1469 1.970 . S
Li1408 O1470 1.961 . S
Li1409 N1433 1.990 . S
Li1409 O1468 1.970 . S
Li1409 O1469 1.956 . S
Li1409 O1471 1.961 . S
Li1410 N1455 1.990 . S
Li1410 O1468 1.961 . S
Li1410 O1470 1.956 . S
Li1410 O1471 1.970 . S
Li1411 N1461 1.990 . S
Li1411 O1469 1.961 . S
Li1411 O1470 1.970 . S
Li1411 O1471 1.956 . S
C1412 C1414 1.348 . S
C1412 C1415 1.356 . S
C1412 O1468 1.325 . S
N1413 C1416 1.314 . S
N1413 C1417 1.279 . S
C1414 C1412 1.348 . S
C1414 C1416 1.353 . S
C1414 H1472 0.929 . S
C1415 C1412 1.356 . S
C1415 C1417 1.358 . S
C1415 H1473 0.930 . S
C1416 N1413 1.314 . S
C1416 C1414 1.353 . S
C1416 H1474 0.930 . S
C1417 N1413 1.279 . S
C1417 C1415 1.358 . S
C1417 H1475 0.930 . S
C1418 C1421 1.348 . S
C1418 C1422 1.356 . S
C1418 O1469 1.325 . S
C1419 N1420 1.279 . S
C1419 C1422 1.358 . S
C1419 H1476 0.930 . S
N1420 C1419 1.279 . S
N1420 C1423 1.314 . S
C1421 C1418 1.348 . S
C1421 C1423 1.353 . S
C1421 H1477 0.929 . S
C1422 C1418 1.356 . S
C1422 C1419 1.358 . S
C1422 H1478 0.930 . S
C1423 N1420 1.314 . S
C1423 C1421 1.353 . S
C1423 H1479 0.930 . S
C1424 N1425 1.314 . S
C1424 C1429 1.353 . S
C1424 H1430 0.930 . S
N1425 Li1408 1.990 . S
N1425 C1424 1.314 . S
N1425 C1427 1.279 . S
C1426 C1427 1.358 . S
C1426 C1428 1.356 . S
C1426 H1480 0.930 . S
C1427 N1425 1.279 . S
C1427 C1426 1.358 . S
C1427 H1431 0.930 . S
C1428 C1426 1.356 . S
C1428 C1429 1.348 . S
C1429 C1424 1.353 . S
C1429 C1428 1.348 . S
C1429 H1481 0.929 . S
H1430 C1424 0.930 . S
H1431 C1427 0.930 . S
C1432 N1433 1.314 . S
C1432 C1434 1.353 1_655 S
C1432 H1438 0.930 . S
N1433 Li1409 1.990 . S
N1433 C1432 1.314 . S
N1433 C1436 1.279 . S
C1434 C1432 1.353 1_455 S
C1434 C1437 1.348 . S
C1434 H1482 0.929 . S
C1435 C1436 1.358 1_455 S
C1435 C1437 1.356 . S
C1435 H1483 0.930 . S
C1436 N1433 1.279 . S
C1436 C1435 1.358 1_655 S
C1436 H1439 0.930 . S
C1437 C1434 1.348 . S
C1437 C1435 1.356 . S
H1438 C1432 0.930 . S
H1439 C1436 0.930 . S
C1440 C1442 1.348 . S
C1440 C1443 1.356 . S
C1440 O1470 1.325 . S
N1441 C1444 1.314 . S
N1441 C1445 1.279 . S
C1442 C1440 1.348 . S
C1442 C1444 1.353 . S
C1442 H1484 0.929 . S
C1443 C1440 1.356 . S
C1443 C1445 1.358 . S
C1443 H1485 0.930 . S
C1444 N1441 1.314 . S
C1444 C1442 1.353 . S
C1444 H1486 0.930 . S
C1445 N1441 1.279 . S
C1445 C1443 1.358 . S
C1445 H1487 0.930 . S
C1446 C1447 1.348 . S
C1446 C1448 1.356 . S
C1446 O1471 1.325 . S
C1447 C1446 1.348 . S
C1447 C1449 1.353 . S
C1447 H1488 0.929 . S
C1448 C1446 1.356 . S
C1448 C1450 1.358 . S
C1448 H1489 0.930 . S
C1449 C1447 1.353 . S
C1449 N1451 1.314 . S
C1449 H1490 0.930 . S
C1450 C1448 1.358 . S
C1450 N1451 1.279 . S
C1450 H1491 0.930 . S
N1451 C1449 1.314 . S
N1451 C1450 1.279 . S
C1452 C1454 1.353 . S
C1452 N1455 1.314 . S
C1452 H1458 0.930 . S
C1453 N1455 1.279 . S
C1453 C1456 1.358 . S
C1453 H1459 0.930 . S
C1454 C1452 1.353 . S
C1454 C1457 1.348 . S
C1454 H1492 0.929 . S
N1455 Li1410 1.990 . S
N1455 C1452 1.314 . S
N1455 C1453 1.279 . S
C1456 C1453 1.358 . S
C1456 C1457 1.356 . S
C1456 H1493 0.930 . S
C1457 C1454 1.348 . S
C1457 C1456 1.356 . S
H1458 C1452 0.930 . S
H1459 C1453 0.930 . S
C1460 N1461 1.314 . S
C1460 C1462 1.353 . S
C1460 H1466 0.930 . S
N1461 Li1411 1.990 . S
N1461 C1460 1.314 . S
N1461 C1464 1.279 . S
C1462 C1460 1.353 . S
C1462 C1465 1.348 . S
C1462 H1494 0.929 . S
C1463 C1464 1.358 . S
C1463 C1465 1.356 . S
C1463 H1495 0.930 . S
C1464 N1461 1.279 . S
C1464 C1463 1.358 . S
C1464 H1467 0.930 . S
C1465 C1462 1.348 . S
C1465 C1463 1.356 . S
H1466 C1460 0.930 . S
H1467 C1464 0.930 . S
O1468 Li1408 1.956 . S
O1468 Li1409 1.970 . S
O1468 Li1410 1.961 . S
O1468 C1412 1.325 . S
O1469 Li1408 1.970 . S
O1469 Li1409 1.956 . S
O1469 Li1411 1.961 . S
O1469 C1418 1.325 . S
O1470 Li1408 1.961 . S
O1470 Li1410 1.956 . S
O1470 Li1411 1.970 . S
O1470 C1440 1.325 . S
O1471 Li1409 1.961 . S
O1471 Li1410 1.970 . S
O1471 Li1411 1.956 . S
O1471 C1446 1.325 . S
H1472 C1414 0.929 . S
H1473 C1415 0.930 . S
H1474 C1416 0.930 . S
H1475 C1417 0.930 . S
H1476 C1419 0.930 . S
H1477 C1421 0.929 . S
H1478 C1422 0.930 . S
H1479 C1423 0.930 . S
H1480 C1426 0.930 . S
H1481 C1429 0.929 . S
H1482 C1434 0.929 . S
H1483 C1435 0.930 . S
H1484 C1442 0.929 . S
H1485 C1443 0.930 . S
H1486 C1444 0.930 . S
H1487 C1445 0.930 . S
H1488 C1447 0.929 . S
H1489 C1448 0.930 . S
H1490 C1449 0.930 . S
H1491 C1450 0.930 . S
H1492 C1454 0.929 . S
H1493 C1456 0.930 . S
H1494 C1462 0.929 . S
H1495 C1463 0.930 . S
Li1496 N1513 1.990 . S
Li1496 O1556 1.956 . S
Li1496 O1557 1.970 . S
Li1496 O1558 1.961 . S
Li1497 N1521 1.990 . S
Li1497 O1556 1.970 . S
Li1497 O1557 1.956 . S
Li1497 O1559 1.961 . S
Li1498 N1543 1.990 . S
Li1498 O1556 1.961 . S
Li1498 O1558 1.956 . S
Li1498 O1559 1.970 . S
Li1499 N1549 1.990 . S
Li1499 O1557 1.961 . S
Li1499 O1558 1.970 . S
Li1499 O1559 1.956 . S
C1500 C1502 1.348 . S
C1500 C1503 1.356 . S
C1500 O1556 1.325 . S
N1501 C1504 1.314 . S
N1501 C1505 1.279 . S
C1502 C1500 1.348 . S
C1502 C1504 1.353 . S
C1502 H1560 0.929 . S
C1503 C1500 1.356 . S
C1503 C1505 1.358 . S
C1503 H1561 0.930 . S
C1504 N1501 1.314 . S
C1504 C1502 1.353 . S
C1504 H1562 0.930 . S
C1505 N1501 1.279 . S
C1505 C1503 1.358 . S
C1505 H1563 0.930 . S
C1506 C1509 1.348 . S
C1506 C1510 1.356 . S
C1506 O1557 1.325 . S
C1507 N1508 1.279 . S
C1507 C1510 1.358 . S
C1507 H1564 0.930 . S
N1508 C1507 1.279 . S
N1508 C1511 1.314 . S
C1509 C1506 1.348 . S
C1509 C1511 1.353 . S
C1509 H1565 0.929 . S
C1510 C1506 1.356 . S
C1510 C1507 1.358 . S
C1510 H1566 0.930 . S
C1511 N1508 1.314 . S
C1511 C1509 1.353 . S
C1511 H1567 0.930 . S
C1512 N1513 1.314 . S
C1512 C1517 1.353 . S
C1512 H1518 0.930 . S
N1513 Li1496 1.990 . S
N1513 C1512 1.314 . S
N1513 C1515 1.279 . S
C1514 C1515 1.358 . S
C1514 C1516 1.356 . S
C1514 H1568 0.930 . S
C1515 N1513 1.279 . S
C1515 C1514 1.358 . S
C1515 H1519 0.930 . S
C1516 C1514 1.356 . S
C1516 C1517 1.348 . S
C1517 C1512 1.353 . S
C1517 C1516 1.348 . S
C1517 H1569 0.929 . S
H1518 C1512 0.930 . S
H1519 C1515 0.930 . S
C1520 N1521 1.314 . S
C1520 C1522 1.353 . S
C1520 H1526 0.930 . S
N1521 Li1497 1.990 . S
N1521 C1520 1.314 . S
N1521 C1524 1.279 . S
C1522 C1520 1.353 . S
C1522 C1525 1.348 . S
C1522 H1570 0.929 . S
C1523 C1524 1.358 . S
C1523 C1525 1.356 . S
C1523 H1571 0.930 . S
C1524 N1521 1.279 . S
C1524 C1523 1.358 . S
C1524 H1527 0.930 . S
C1525 C1522 1.348 . S
C1525 C1523 1.356 . S
H1526 C1520 0.930 . S
H1527 C1524 0.930 . S
C1528 C1530 1.348 . S
C1528 C1531 1.356 . S
C1528 O1558 1.325 . S
N1529 C1532 1.314 . S
N1529 C1533 1.279 . S
C1530 C1528 1.348 . S
C1530 C1532 1.353 . S
C1530 H1572 0.929 . S
C1531 C1528 1.356 . S
C1531 C1533 1.358 . S
C1531 H1573 0.930 . S
C1532 N1529 1.314 . S
C1532 C1530 1.353 . S
C1532 H1574 0.930 . S
C1533 N1529 1.279 . S
C1533 C1531 1.358 . S
C1533 H1575 0.930 . S
C1534 C1535 1.348 . S
C1534 C1536 1.356 . S
C1534 O1559 1.325 . S
C1535 C1534 1.348 . S
C1535 C1537 1.353 . S
C1535 H1576 0.929 . S
C1536 C1534 1.356 . S
C1536 C1538 1.358 . S
C1536 H1577 0.930 . S
C1537 C1535 1.353 . S
C1537 N1539 1.314 . S
C1537 H1578 0.930 . S
C1538 C1536 1.358 . S
C1538 N1539 1.279 . S
C1538 H1579 0.930 . S
N1539 C1537 1.314 . S
N1539 C1538 1.279 . S
C1540 C1542 1.353 . S
C1540 N1543 1.314 . S
C1540 H1546 0.930 . S
C1541 N1543 1.279 . S
C1541 C1544 1.358 . S
C1541 H1547 0.930 . S
C1542 C1540 1.353 . S
C1542 C1545 1.348 . S
C1542 H1580 0.929 . S
N1543 Li1498 1.990 . S
N1543 C1540 1.314 . S
N1543 C1541 1.279 . S
C1544 C1541 1.358 . S
C1544 C1545 1.356 . S
C1544 H1581 0.930 . S
C1545 C1542 1.348 . S
C1545 C1544 1.356 . S
H1546 C1540 0.930 . S
H1547 C1541 0.930 . S
C1548 N1549 1.314 . S
C1548 C1550 1.353 . S
C1548 H1554 0.930 . S
N1549 Li1499 1.990 . S
N1549 C1548 1.314 . S
N1549 C1552 1.279 . S
C1550 C1548 1.353 . S
C1550 C1553 1.348 . S
C1550 H1582 0.929 . S
C1551 C1552 1.358 . S
C1551 C1553 1.356 . S
C1551 H1583 0.930 . S
C1552 N1549 1.279 . S
C1552 C1551 1.358 . S
C1552 H1555 0.930 . S
C1553 C1550 1.348 . S
C1553 C1551 1.356 . S
H1554 C1548 0.930 . S
H1555 C1552 0.930 . S
O1556 Li1496 1.956 . S
O1556 Li1497 1.970 . S
O1556 Li1498 1.961 . S
O1556 C1500 1.325 . S
O1557 Li1496 1.970 . S
O1557 Li1497 1.956 . S
O1557 Li1499 1.961 . S
O1557 C1506 1.325 . S
O1558 Li1496 1.961 . S
O1558 Li1498 1.956 . S
O1558 Li1499 1.970 . S
O1558 C1528 1.325 . S
O1559 Li1497 1.961 . S
O1559 Li1498 1.970 . S
O1559 Li1499 1.956 . S
O1559 C1534 1.325 . S
H1560 C1502 0.929 . S
H1561 C1503 0.930 . S
H1562 C1504 0.930 . S
H1563 C1505 0.930 . S
H1564 C1507 0.930 . S
H1565 C1509 0.929 . S
H1566 C1510 0.930 . S
H1567 C1511 0.930 . S
H1568 C1514 0.930 . S
H1569 C1517 0.929 . S
H1570 C1522 0.929 . S
H1571 C1523 0.930 . S
H1572 C1530 0.929 . S
H1573 C1531 0.930 . S
H1574 C1532 0.930 . S
H1575 C1533 0.930 . S
H1576 C1535 0.929 . S
H1577 C1536 0.930 . S
H1578 C1537 0.930 . S
H1579 C1538 0.930 . S
H1580 C1542 0.929 . S
H1581 C1544 0.930 . S
H1582 C1550 0.929 . S
H1583 C1551 0.930 . S
Li1584 N1601 1.990 . S
Li1584 O1644 1.956 . S
Li1584 O1645 1.970 . S
Li1584 O1646 1.961 . S
Li1585 N1609 1.990 . S
Li1585 O1644 1.970 . S
Li1585 O1645 1.956 . S
Li1585 O1647 1.961 . S
Li1586 N1631 1.990 . S
Li1586 O1644 1.961 . S
Li1586 O1646 1.956 . S
Li1586 O1647 1.970 . S
Li1587 N1637 1.990 . S
Li1587 O1645 1.961 . S
Li1587 O1646 1.970 . S
Li1587 O1647 1.956 . S
C1588 C1590 1.348 . S
C1588 C1591 1.356 . S
C1588 O1644 1.325 . S
N1589 C1592 1.314 . S
N1589 C1593 1.279 . S
C1590 C1588 1.348 . S
C1590 C1592 1.353 . S
C1590 H1648 0.929 . S
C1591 C1588 1.356 . S
C1591 C1593 1.358 . S
C1591 H1649 0.930 . S
C1592 N1589 1.314 . S
C1592 C1590 1.353 . S
C1592 H1650 0.930 . S
C1593 N1589 1.279 . S
C1593 C1591 1.358 . S
C1593 H1651 0.930 . S
C1594 C1597 1.348 . S
C1594 C1598 1.356 . S
C1594 O1645 1.325 . S
C1595 N1596 1.279 . S
C1595 C1598 1.358 . S
C1595 H1652 0.930 . S
N1596 C1595 1.279 . S
N1596 C1599 1.314 . S
C1597 C1594 1.348 . S
C1597 C1599 1.353 . S
C1597 H1653 0.929 . S
C1598 C1594 1.356 . S
C1598 C1595 1.358 . S
C1598 H1654 0.930 . S
C1599 N1596 1.314 . S
C1599 C1597 1.353 . S
C1599 H1655 0.930 . S
C1600 N1601 1.314 . S
C1600 C1605 1.353 . S
C1600 H1606 0.930 . S
N1601 Li1584 1.990 . S
N1601 C1600 1.314 . S
N1601 C1603 1.279 . S
C1602 C1603 1.358 . S
C1602 C1604 1.356 . S
C1602 H1656 0.930 . S
C1603 N1601 1.279 . S
C1603 C1602 1.358 . S
C1603 H1607 0.930 . S
C1604 C1602 1.356 . S
C1604 C1605 1.348 . S
C1605 C1600 1.353 . S
C1605 C1604 1.348 . S
C1605 H1657 0.929 . S
H1606 C1600 0.930 . S
H1607 C1603 0.930 . S
C1608 N1609 1.314 . S
C1608 C1610 1.353 . S
C1608 H1614 0.930 . S
N1609 Li1585 1.990 . S
N1609 C1608 1.314 . S
N1609 C1612 1.279 . S
C1610 C1608 1.353 . S
C1610 C1613 1.348 . S
C1610 H1658 0.929 . S
C1611 C1612 1.358 . S
C1611 C1613 1.356 . S
C1611 H1659 0.930 . S
C1612 N1609 1.279 . S
C1612 C1611 1.358 . S
C1612 H1615 0.930 . S
C1613 C1610 1.348 . S
C1613 C1611 1.356 . S
H1614 C1608 0.930 . S
H1615 C1612 0.930 . S
C1616 C1618 1.348 . S
C1616 C1619 1.356 . S
C1616 O1646 1.325 . S
N1617 C1620 1.314 . S
N1617 C1621 1.279 . S
C1618 C1616 1.348 . S
C1618 C1620 1.353 . S
C1618 H1660 0.929 . S
C1619 C1616 1.356 . S
C1619 C1621 1.358 . S
C1619 H1661 0.930 . S
C1620 N1617 1.314 . S
C1620 C1618 1.353 . S
C1620 H1662 0.930 . S
C1621 N1617 1.279 . S
C1621 C1619 1.358 . S
C1621 H1663 0.930 . S
C1622 C1623 1.348 . S
C1622 C1624 1.356 . S
C1622 O1647 1.325 . S
C1623 C1622 1.348 . S
C1623 C1625 1.353 . S
C1623 H1664 0.929 . S
C1624 C1622 1.356 . S
C1624 C1626 1.358 . S
C1624 H1665 0.930 . S
C1625 C1623 1.353 . S
C1625 N1627 1.314 . S
C1625 H1666 0.930 . S
C1626 C1624 1.358 . S
C1626 N1627 1.279 . S
C1626 H1667 0.930 . S
N1627 C1625 1.314 . S
N1627 C1626 1.279 . S
C1628 C1630 1.353 . S
C1628 N1631 1.314 . S
C1628 H1634 0.930 . S
C1629 N1631 1.279 . S
C1629 C1632 1.358 . S
C1629 H1635 0.930 . S
C1630 C1628 1.353 . S
C1630 C1633 1.348 . S
C1630 H1668 0.929 . S
N1631 Li1586 1.990 . S
N1631 C1628 1.314 . S
N1631 C1629 1.279 . S
C1632 C1629 1.358 . S
C1632 C1633 1.356 . S
C1632 H1669 0.930 . S
C1633 C1630 1.348 . S
C1633 C1632 1.356 . S
H1634 C1628 0.930 . S
H1635 C1629 0.930 . S
C1636 N1637 1.314 . S
C1636 C1638 1.353 . S
C1636 H1642 0.930 . S
N1637 Li1587 1.990 . S
N1637 C1636 1.314 . S
N1637 C1640 1.279 . S
C1638 C1636 1.353 . S
C1638 C1641 1.348 . S
C1638 H1670 0.929 . S
C1639 C1640 1.358 . S
C1639 C1641 1.356 . S
C1639 H1671 0.930 . S
C1640 N1637 1.279 . S
C1640 C1639 1.358 . S
C1640 H1643 0.930 . S
C1641 C1638 1.348 . S
C1641 C1639 1.356 . S
H1642 C1636 0.930 . S
H1643 C1640 0.930 . S
O1644 Li1584 1.956 . S
O1644 Li1585 1.970 . S
O1644 Li1586 1.961 . S
O1644 C1588 1.325 . S
O1645 Li1584 1.970 . S
O1645 Li1585 1.956 . S
O1645 Li1587 1.961 . S
O1645 C1594 1.325 . S
O1646 Li1584 1.961 . S
O1646 Li1586 1.956 . S
O1646 Li1587 1.970 . S
O1646 C1616 1.325 . S
O1647 Li1585 1.961 . S
O1647 Li1586 1.970 . S
O1647 Li1587 1.956 . S
O1647 C1622 1.325 . S
H1648 C1590 0.929 . S
H1649 C1591 0.930 . S
H1650 C1592 0.930 . S
H1651 C1593 0.930 . S
H1652 C1595 0.930 . S
H1653 C1597 0.929 . S
H1654 C1598 0.930 . S
H1655 C1599 0.930 . S
H1656 C1602 0.930 . S
H1657 C1605 0.929 . S
H1658 C1610 0.929 . S
H1659 C1611 0.930 . S
H1660 C1618 0.929 . S
H1661 C1619 0.930 . S
H1662 C1620 0.930 . S
H1663 C1621 0.930 . S
H1664 C1623 0.929 . S
H1665 C1624 0.930 . S
H1666 C1625 0.930 . S
H1667 C1626 0.930 . S
H1668 C1630 0.929 . S
H1669 C1632 0.930 . S
H1670 C1638 0.929 . S
H1671 C1639 0.930 . S
Li1672 N1689 1.990 . S
Li1672 O1732 1.956 . S
Li1672 O1733 1.970 . S
Li1672 O1734 1.961 . S
Li1673 N1697 1.990 . S
Li1673 O1732 1.970 . S
Li1673 O1733 1.956 . S
Li1673 O1735 1.961 . S
Li1674 N1719 1.990 . S
Li1674 O1732 1.961 . S
Li1674 O1734 1.956 . S
Li1674 O1735 1.970 . S
Li1675 N1725 1.990 . S
Li1675 O1733 1.961 . S
Li1675 O1734 1.970 . S
Li1675 O1735 1.956 . S
C1676 C1678 1.348 . S
C1676 C1679 1.356 . S
C1676 O1732 1.325 . S
N1677 C1680 1.314 . S
N1677 C1681 1.279 . S
C1678 C1676 1.348 . S
C1678 C1680 1.353 . S
C1678 H1736 0.929 . S
C1679 C1676 1.356 . S
C1679 C1681 1.358 . S
C1679 H1737 0.930 . S
C1680 N1677 1.314 . S
C1680 C1678 1.353 . S
C1680 H1738 0.930 . S
C1681 N1677 1.279 . S
C1681 C1679 1.358 . S
C1681 H1739 0.930 . S
C1682 C1685 1.348 . S
C1682 C1686 1.356 . S
C1682 O1733 1.325 . S
C1683 N1684 1.279 . S
C1683 C1686 1.358 . S
C1683 H1740 0.930 . S
N1684 C1683 1.279 . S
N1684 C1687 1.314 . S
C1685 C1682 1.348 . S
C1685 C1687 1.353 . S
C1685 H1741 0.929 . S
C1686 C1682 1.356 . S
C1686 C1683 1.358 . S
C1686 H1742 0.930 . S
C1687 N1684 1.314 . S
C1687 C1685 1.353 . S
C1687 H1743 0.930 . S
C1688 N1689 1.314 . S
C1688 C1693 1.353 . S
C1688 H1694 0.930 . S
N1689 Li1672 1.990 . S
N1689 C1688 1.314 . S
N1689 C1691 1.279 . S
C1690 C1691 1.358 . S
C1690 C1692 1.356 . S
C1690 H1744 0.930 . S
C1691 N1689 1.279 . S
C1691 C1690 1.358 . S
C1691 H1695 0.930 . S
C1692 C1690 1.356 . S
C1692 C1693 1.348 . S
C1693 C1688 1.353 . S
C1693 C1692 1.348 . S
C1693 H1745 0.929 . S
H1694 C1688 0.930 . S
H1695 C1691 0.930 . S
C1696 N1697 1.314 . S
C1696 C1698 1.353 . S
C1696 H1702 0.930 . S
N1697 Li1673 1.990 . S
N1697 C1696 1.314 . S
N1697 C1700 1.279 . S
C1698 C1696 1.353 . S
C1698 C1701 1.348 . S
C1698 H1746 0.929 . S
C1699 C1700 1.358 . S
C1699 C1701 1.356 . S
C1699 H1747 0.930 . S
C1700 N1697 1.279 . S
C1700 C1699 1.358 . S
C1700 H1703 0.930 . S
C1701 C1698 1.348 . S
C1701 C1699 1.356 . S
H1702 C1696 0.930 . S
H1703 C1700 0.930 . S
C1704 C1706 1.348 . S
C1704 C1707 1.356 . S
C1704 O1734 1.325 . S
N1705 C1708 1.314 . S
N1705 C1709 1.279 . S
C1706 C1704 1.348 . S
C1706 C1708 1.353 . S
C1706 H1748 0.929 . S
C1707 C1704 1.356 . S
C1707 C1709 1.358 . S
C1707 H1749 0.930 . S
C1708 N1705 1.314 . S
C1708 C1706 1.353 . S
C1708 H1750 0.930 . S
C1709 N1705 1.279 . S
C1709 C1707 1.358 . S
C1709 H1751 0.930 . S
C1710 C1711 1.348 . S
C1710 C1712 1.356 . S
C1710 O1735 1.325 . S
C1711 C1710 1.348 . S
C1711 C1713 1.353 . S
C1711 H1752 0.929 . S
C1712 C1710 1.356 . S
C1712 C1714 1.358 . S
C1712 H1753 0.930 . S
C1713 C1711 1.353 . S
C1713 N1715 1.314 . S
C1713 H1754 0.930 . S
C1714 C1712 1.358 . S
C1714 N1715 1.279 . S
C1714 H1755 0.930 . S
N1715 C1713 1.314 . S
N1715 C1714 1.279 . S
C1716 C1718 1.353 . S
C1716 N1719 1.314 . S
C1716 H1722 0.930 . S
C1717 N1719 1.279 . S
C1717 C1720 1.358 . S
C1717 H1723 0.930 . S
C1718 C1716 1.353 . S
C1718 C1721 1.348 . S
C1718 H1756 0.929 . S
N1719 Li1674 1.990 . S
N1719 C1716 1.314 . S
N1719 C1717 1.279 . S
C1720 C1717 1.358 . S
C1720 C1721 1.356 . S
C1720 H1757 0.930 . S
C1721 C1718 1.348 . S
C1721 C1720 1.356 . S
H1722 C1716 0.930 . S
H1723 C1717 0.930 . S
C1724 N1725 1.314 . S
C1724 C1726 1.353 . S
C1724 H1730 0.930 . S
N1725 Li1675 1.990 . S
N1725 C1724 1.314 . S
N1725 C1728 1.279 . S
C1726 C1724 1.353 . S
C1726 C1729 1.348 . S
C1726 H1758 0.929 . S
C1727 C1728 1.358 . S
C1727 C1729 1.356 . S
C1727 H1759 0.930 . S
C1728 N1725 1.279 . S
C1728 C1727 1.358 . S
C1728 H1731 0.930 . S
C1729 C1726 1.348 . S
C1729 C1727 1.356 . S
H1730 C1724 0.930 . S
H1731 C1728 0.930 . S
O1732 Li1672 1.956 . S
O1732 Li1673 1.970 . S
O1732 Li1674 1.961 . S
O1732 C1676 1.325 . S
O1733 Li1672 1.970 . S
O1733 Li1673 1.956 . S
O1733 Li1675 1.961 . S
O1733 C1682 1.325 . S
O1734 Li1672 1.961 . S
O1734 Li1674 1.956 . S
O1734 Li1675 1.970 . S
O1734 C1704 1.325 . S
O1735 Li1673 1.961 . S
O1735 Li1674 1.970 . S
O1735 Li1675 1.956 . S
O1735 C1710 1.325 . S
H1736 C1678 0.929 . S
H1737 C1679 0.930 . S
H1738 C1680 0.930 . S
H1739 C1681 0.930 . S
H1740 C1683 0.930 . S
H1741 C1685 0.929 . S
H1742 C1686 0.930 . S
H1743 C1687 0.930 . S
H1744 C1690 0.930 . S
H1745 C1693 0.929 . S
H1746 C1698 0.929 . S
H1747 C1699 0.930 . S
H1748 C1706 0.929 . S
H1749 C1707 0.930 . S
H1750 C1708 0.930 . S
H1751 C1709 0.930 . S
H1752 C1711 0.929 . S
H1753 C1712 0.930 . S
H1754 C1713 0.930 . S
H1755 C1714 0.930 . S
H1756 C1718 0.929 . S
H1757 C1720 0.930 . S
H1758 C1726 0.929 . S
H1759 C1727 0.930 . S
Li1760 N1777 1.990 . S
Li1760 O1820 1.956 . S
Li1760 O1821 1.970 . S
Li1760 O1822 1.961 . S
Li1761 N1785 1.990 . S
Li1761 O1820 1.970 . S
Li1761 O1821 1.956 . S
Li1761 O1823 1.961 . S
Li1762 N1807 1.990 . S
Li1762 O1820 1.961 . S
Li1762 O1822 1.956 . S
Li1762 O1823 1.970 . S
Li1763 N1813 1.990 . S
Li1763 O1821 1.961 . S
Li1763 O1822 1.970 . S
Li1763 O1823 1.956 . S
C1764 C1766 1.348 . S
C1764 C1767 1.356 . S
C1764 O1820 1.325 . S
N1765 C1768 1.314 . S
N1765 C1769 1.279 . S
C1766 C1764 1.348 . S
C1766 C1768 1.353 . S
C1766 H1824 0.929 . S
C1767 C1764 1.356 . S
C1767 C1769 1.358 . S
C1767 H1825 0.930 . S
C1768 N1765 1.314 . S
C1768 C1766 1.353 . S
C1768 H1826 0.930 . S
C1769 N1765 1.279 . S
C1769 C1767 1.358 . S
C1769 H1827 0.930 . S
C1770 C1773 1.348 . S
C1770 C1774 1.356 . S
C1770 O1821 1.325 . S
C1771 N1772 1.279 . S
C1771 C1774 1.358 . S
C1771 H1828 0.930 . S
N1772 C1771 1.279 . S
N1772 C1775 1.314 . S
C1773 C1770 1.348 . S
C1773 C1775 1.353 . S
C1773 H1829 0.929 . S
C1774 C1770 1.356 . S
C1774 C1771 1.358 . S
C1774 H1830 0.930 . S
C1775 N1772 1.314 . S
C1775 C1773 1.353 . S
C1775 H1831 0.930 . S
C1776 N1777 1.314 . S
C1776 C1781 1.353 . S
C1776 H1782 0.930 . S
N1777 Li1760 1.990 . S
N1777 C1776 1.314 . S
N1777 C1779 1.279 . S
C1778 C1779 1.358 . S
C1778 C1780 1.356 . S
C1778 H1832 0.930 . S
C1779 N1777 1.279 . S
C1779 C1778 1.358 . S
C1779 H1783 0.930 . S
C1780 C1778 1.356 . S
C1780 C1781 1.348 . S
C1781 C1776 1.353 . S
C1781 C1780 1.348 . S
C1781 H1833 0.929 . S
H1782 C1776 0.930 . S
H1783 C1779 0.930 . S
C1784 N1785 1.314 . S
C1784 C1786 1.353 . S
C1784 H1790 0.930 . S
N1785 Li1761 1.990 . S
N1785 C1784 1.314 . S
N1785 C1788 1.279 . S
C1786 C1784 1.353 . S
C1786 C1789 1.348 . S
C1786 H1834 0.929 . S
C1787 C1788 1.358 . S
C1787 C1789 1.356 . S
C1787 H1835 0.930 . S
C1788 N1785 1.279 . S
C1788 C1787 1.358 . S
C1788 H1791 0.930 . S
C1789 C1786 1.348 . S
C1789 C1787 1.356 . S
H1790 C1784 0.930 . S
H1791 C1788 0.930 . S
C1792 C1794 1.348 . S
C1792 C1795 1.356 . S
C1792 O1822 1.325 . S
N1793 C1796 1.314 . S
N1793 C1797 1.279 . S
C1794 C1792 1.348 . S
C1794 C1796 1.353 . S
C1794 H1836 0.929 . S
C1795 C1792 1.356 . S
C1795 C1797 1.358 . S
C1795 H1837 0.930 . S
C1796 N1793 1.314 . S
C1796 C1794 1.353 . S
C1796 H1838 0.930 . S
C1797 N1793 1.279 . S
C1797 C1795 1.358 . S
C1797 H1839 0.930 . S
C1798 C1799 1.348 . S
C1798 C1800 1.356 . S
C1798 O1823 1.325 . S
C1799 C1798 1.348 . S
C1799 C1801 1.353 . S
C1799 H1840 0.929 . S
C1800 C1798 1.356 . S
C1800 C1802 1.358 . S
C1800 H1841 0.930 . S
C1801 C1799 1.353 . S
C1801 N1803 1.314 . S
C1801 H1842 0.930 . S
C1802 C1800 1.358 . S
C1802 N1803 1.279 . S
C1802 H1843 0.930 . S
N1803 C1801 1.314 . S
N1803 C1802 1.279 . S
C1804 C1806 1.353 1_655 S
C1804 N1807 1.314 . S
C1804 H1810 0.930 . S
C1805 N1807 1.279 . S
C1805 C1808 1.358 1_655 S
C1805 H1811 0.930 . S
C1806 C1804 1.353 1_455 S
C1806 C1809 1.348 . S
C1806 H1844 0.929 . S
N1807 Li1762 1.990 . S
N1807 C1804 1.314 . S
N1807 C1805 1.279 . S
C1808 C1805 1.358 1_455 S
C1808 C1809 1.356 . S
C1808 H1845 0.930 . S
C1809 C1806 1.348 . S
C1809 C1808 1.356 . S
H1810 C1804 0.930 . S
H1811 C1805 0.930 . S
C1812 N1813 1.314 . S
C1812 C1814 1.353 . S
C1812 H1818 0.930 . S
N1813 Li1763 1.990 . S
N1813 C1812 1.314 . S
N1813 C1816 1.279 . S
C1814 C1812 1.353 . S
C1814 C1817 1.348 . S
C1814 H1846 0.929 . S
C1815 C1816 1.358 . S
C1815 C1817 1.356 . S
C1815 H1847 0.930 . S
C1816 N1813 1.279 . S
C1816 C1815 1.358 . S
C1816 H1819 0.930 . S
C1817 C1814 1.348 . S
C1817 C1815 1.356 . S
H1818 C1812 0.930 . S
H1819 C1816 0.930 . S
O1820 Li1760 1.956 . S
O1820 Li1761 1.970 . S
O1820 Li1762 1.961 . S
O1820 C1764 1.325 . S
O1821 Li1760 1.970 . S
O1821 Li1761 1.956 . S
O1821 Li1763 1.961 . S
O1821 C1770 1.325 . S
O1822 Li1760 1.961 . S
O1822 Li1762 1.956 . S
O1822 Li1763 1.970 . S
O1822 C1792 1.325 . S
O1823 Li1761 1.961 . S
O1823 Li1762 1.970 . S
O1823 Li1763 1.956 . S
O1823 C1798 1.325 . S
H1824 C1766 0.929 . S
H1825 C1767 0.930 . S
H1826 C1768 0.930 . S
H1827 C1769 0.930 . S
H1828 C1771 0.930 . S
H1829 C1773 0.929 . S
H1830 C1774 0.930 . S
H1831 C1775 0.930 . S
H1832 C1778 0.930 . S
H1833 C1781 0.929 . S
H1834 C1786 0.929 . S
H1835 C1787 0.930 . S
H1836 C1794 0.929 . S
H1837 C1795 0.930 . S
H1838 C1796 0.930 . S
H1839 C1797 0.930 . S
H1840 C1799 0.929 . S
H1841 C1800 0.930 . S
H1842 C1801 0.930 . S
H1843 C1802 0.930 . S
H1844 C1806 0.929 . S
H1845 C1808 0.930 . S
H1846 C1814 0.929 . S
H1847 C1815 0.930 . S
Li1848 N1865 1.990 . S
Li1848 O1908 1.956 . S
Li1848 O1909 1.970 . S
Li1848 O1910 1.961 . S
Li1849 N1873 1.990 . S
Li1849 O1908 1.970 . S
Li1849 O1909 1.956 . S
Li1849 O1911 1.961 . S
Li1850 N1895 1.990 . S
Li1850 O1908 1.961 . S
Li1850 O1910 1.956 . S
Li1850 O1911 1.970 . S
Li1851 N1901 1.990 . S
Li1851 O1909 1.961 . S
Li1851 O1910 1.970 . S
Li1851 O1911 1.956 . S
C1852 C1854 1.348 . S
C1852 C1855 1.356 . S
C1852 O1908 1.325 . S
N1853 C1856 1.314 . S
N1853 C1857 1.279 . S
C1854 C1852 1.348 . S
C1854 C1856 1.353 . S
C1854 H1912 0.929 . S
C1855 C1852 1.356 . S
C1855 C1857 1.358 . S
C1855 H1913 0.930 . S
C1856 N1853 1.314 . S
C1856 C1854 1.353 . S
C1856 H1914 0.930 . S
C1857 N1853 1.279 . S
C1857 C1855 1.358 . S
C1857 H1915 0.930 . S
C1858 C1861 1.348 . S
C1858 C1862 1.356 . S
C1858 O1909 1.325 . S
C1859 N1860 1.279 . S
C1859 C1862 1.358 . S
C1859 H1916 0.930 . S
N1860 C1859 1.279 . S
N1860 C1863 1.314 . S
C1861 C1858 1.348 . S
C1861 C1863 1.353 . S
C1861 H1917 0.929 . S
C1862 C1858 1.356 . S
C1862 C1859 1.358 . S
C1862 H1918 0.930 . S
C1863 N1860 1.314 . S
C1863 C1861 1.353 . S
C1863 H1919 0.930 . S
C1864 N1865 1.314 . S
C1864 C1869 1.353 . S
C1864 H1870 0.930 . S
N1865 Li1848 1.990 . S
N1865 C1864 1.314 . S
N1865 C1867 1.279 . S
C1866 C1867 1.358 . S
C1866 C1868 1.356 . S
C1866 H1920 0.930 . S
C1867 N1865 1.279 . S
C1867 C1866 1.358 . S
C1867 H1871 0.930 . S
C1868 C1866 1.356 . S
C1868 C1869 1.348 . S
C1869 C1864 1.353 . S
C1869 C1868 1.348 . S
C1869 H1921 0.929 . S
H1870 C1864 0.930 . S
H1871 C1867 0.930 . S
C1872 N1873 1.314 . S
C1872 C1874 1.353 . S
C1872 H1878 0.930 . S
N1873 Li1849 1.990 . S
N1873 C1872 1.314 . S
N1873 C1876 1.279 . S
C1874 C1872 1.353 . S
C1874 C1877 1.348 . S
C1874 H1922 0.929 . S
C1875 C1876 1.358 . S
C1875 C1877 1.356 . S
C1875 H1923 0.930 . S
C1876 N1873 1.279 . S
C1876 C1875 1.358 . S
C1876 H1879 0.930 . S
C1877 C1874 1.348 . S
C1877 C1875 1.356 . S
H1878 C1872 0.930 . S
H1879 C1876 0.930 . S
C1880 C1882 1.348 . S
C1880 C1883 1.356 . S
C1880 O1910 1.325 . S
N1881 C1884 1.314 . S
N1881 C1885 1.279 . S
C1882 C1880 1.348 . S
C1882 C1884 1.353 . S
C1882 H1924 0.929 . S
C1883 C1880 1.356 . S
C1883 C1885 1.358 . S
C1883 H1925 0.930 . S
C1884 N1881 1.314 . S
C1884 C1882 1.353 . S
C1884 H1926 0.930 . S
C1885 N1881 1.279 . S
C1885 C1883 1.358 . S
C1885 H1927 0.930 . S
C1886 C1887 1.348 . S
C1886 C1888 1.356 . S
C1886 O1911 1.325 . S
C1887 C1886 1.348 . S
C1887 C1889 1.353 . S
C1887 H1928 0.929 . S
C1888 C1886 1.356 . S
C1888 C1890 1.358 . S
C1888 H1929 0.930 . S
C1889 C1887 1.353 . S
C1889 N1891 1.314 . S
C1889 H1930 0.930 . S
C1890 C1888 1.358 . S
C1890 N1891 1.279 . S
C1890 H1931 0.930 . S
N1891 C1889 1.314 . S
N1891 C1890 1.279 . S
C1892 C1894 1.353 . S
C1892 N1895 1.314 . S
C1892 H1898 0.930 . S
C1893 N1895 1.279 . S
C1893 C1896 1.358 . S
C1893 H1899 0.930 . S
C1894 C1892 1.353 . S
C1894 C1897 1.348 . S
C1894 H1932 0.929 . S
N1895 Li1850 1.990 . S
N1895 C1892 1.314 . S
N1895 C1893 1.279 . S
C1896 C1893 1.358 . S
C1896 C1897 1.356 . S
C1896 H1933 0.930 . S
C1897 C1894 1.348 . S
C1897 C1896 1.356 . S
H1898 C1892 0.930 . S
H1899 C1893 0.930 . S
C1900 N1901 1.314 . S
C1900 C1902 1.353 . S
C1900 H1906 0.930 . S
N1901 Li1851 1.990 . S
N1901 C1900 1.314 . S
N1901 C1904 1.279 . S
C1902 C1900 1.353 . S
C1902 C1905 1.348 . S
C1902 H1934 0.929 . S
C1903 C1904 1.358 . S
C1903 C1905 1.356 . S
C1903 H1935 0.930 . S
C1904 N1901 1.279 . S
C1904 C1903 1.358 . S
C1904 H1907 0.930 . S
C1905 C1902 1.348 . S
C1905 C1903 1.356 . S
H1906 C1900 0.930 . S
H1907 C1904 0.930 . S
O1908 Li1848 1.956 . S
O1908 Li1849 1.970 . S
O1908 Li1850 1.961 . S
O1908 C1852 1.325 . S
O1909 Li1848 1.970 . S
O1909 Li1849 1.956 . S
O1909 Li1851 1.961 . S
O1909 C1858 1.325 . S
O1910 Li1848 1.961 . S
O1910 Li1850 1.956 . S
O1910 Li1851 1.970 . S
O1910 C1880 1.325 . S
O1911 Li1849 1.961 . S
O1911 Li1850 1.970 . S
O1911 Li1851 1.956 . S
O1911 C1886 1.325 . S
H1912 C1854 0.929 . S
H1913 C1855 0.930 . S
H1914 C1856 0.930 . S
H1915 C1857 0.930 . S
H1916 C1859 0.930 . S
H1917 C1861 0.929 . S
H1918 C1862 0.930 . S
H1919 C1863 0.930 . S
H1920 C1866 0.930 . S
H1921 C1869 0.929 . S
H1922 C1874 0.929 . S
H1923 C1875 0.930 . S
H1924 C1882 0.929 . S
H1925 C1883 0.930 . S
H1926 C1884 0.930 . S
H1927 C1885 0.930 . S
H1928 C1887 0.929 . S
H1929 C1888 0.930 . S
H1930 C1889 0.930 . S
H1931 C1890 0.930 . S
H1932 C1894 0.929 . S
H1933 C1896 0.930 . S
H1934 C1902 0.929 . S
H1935 C1903 0.930 . S
Li1936 N1953 1.990 . S
Li1936 O1996 1.956 . S
Li1936 O1997 1.970 . S
Li1936 O1998 1.961 . S
Li1937 N1961 1.990 . S
Li1937 O1996 1.970 . S
Li1937 O1997 1.956 . S
Li1937 O1999 1.961 . S
Li1938 N1983 1.990 . S
Li1938 O1996 1.961 . S
Li1938 O1998 1.956 . S
Li1938 O1999 1.970 . S
Li1939 N1989 1.990 . S
Li1939 O1997 1.961 . S
Li1939 O1998 1.970 . S
Li1939 O1999 1.956 . S
C1940 C1942 1.348 . S
C1940 C1943 1.356 . S
C1940 O1996 1.325 . S
N1941 C1944 1.314 . S
N1941 C1945 1.279 . S
C1942 C1940 1.348 . S
C1942 C1944 1.353 . S
C1942 H2000 0.929 . S
C1943 C1940 1.356 . S
C1943 C1945 1.358 . S
C1943 H2001 0.930 . S
C1944 N1941 1.314 . S
C1944 C1942 1.353 . S
C1944 H2002 0.930 . S
C1945 N1941 1.279 . S
C1945 C1943 1.358 . S
C1945 H2003 0.930 . S
C1946 C1949 1.348 . S
C1946 C1950 1.356 . S
C1946 O1997 1.325 . S
C1947 N1948 1.279 . S
C1947 C1950 1.358 . S
C1947 H2004 0.930 . S
N1948 C1947 1.279 . S
N1948 C1951 1.314 . S
C1949 C1946 1.348 . S
C1949 C1951 1.353 . S
C1949 H2005 0.929 . S
C1950 C1946 1.356 . S
C1950 C1947 1.358 . S
C1950 H2006 0.930 . S
C1951 N1948 1.314 . S
C1951 C1949 1.353 . S
C1951 H2007 0.930 . S
C1952 N1953 1.314 . S
C1952 C1957 1.353 . S
C1952 H1958 0.930 . S
N1953 Li1936 1.990 . S
N1953 C1952 1.314 . S
N1953 C1955 1.279 . S
C1954 C1955 1.358 . S
C1954 C1956 1.356 . S
C1954 H2008 0.930 . S
C1955 N1953 1.279 . S
C1955 C1954 1.358 . S
C1955 H1959 0.930 . S
C1956 C1954 1.356 . S
C1956 C1957 1.348 . S
C1957 C1952 1.353 . S
C1957 C1956 1.348 . S
C1957 H2009 0.929 . S
H1958 C1952 0.930 . S
H1959 C1955 0.930 . S
C1960 N1961 1.314 . S
C1960 C1962 1.353 . S
C1960 H1966 0.930 . S
N1961 Li1937 1.990 . S
N1961 C1960 1.314 . S
N1961 C1964 1.279 . S
C1962 C1960 1.353 . S
C1962 C1965 1.348 . S
C1962 H2010 0.929 . S
C1963 C1964 1.358 . S
C1963 C1965 1.356 . S
C1963 H2011 0.930 . S
C1964 N1961 1.279 . S
C1964 C1963 1.358 . S
C1964 H1967 0.930 . S
C1965 C1962 1.348 . S
C1965 C1963 1.356 . S
H1966 C1960 0.930 . S
H1967 C1964 0.930 . S
C1968 C1970 1.348 . S
C1968 C1971 1.356 . S
C1968 O1998 1.325 . S
N1969 C1972 1.314 . S
N1969 C1973 1.279 . S
C1970 C1968 1.348 . S
C1970 C1972 1.353 . S
C1970 H2012 0.929 . S
C1971 C1968 1.356 . S
C1971 C1973 1.358 . S
C1971 H2013 0.930 . S
C1972 N1969 1.314 . S
C1972 C1970 1.353 . S
C1972 H2014 0.930 . S
C1973 N1969 1.279 . S
C1973 C1971 1.358 . S
C1973 H2015 0.930 . S
C1974 C1975 1.348 . S
C1974 C1976 1.356 . S
C1974 O1999 1.325 . S
C1975 C1974 1.348 . S
C1975 C1977 1.353 . S
C1975 H2016 0.929 . S
C1976 C1974 1.356 . S
C1976 C1978 1.358 . S
C1976 H2017 0.930 . S
C1977 C1975 1.353 . S
C1977 N1979 1.314 . S
C1977 H2018 0.930 . S
C1978 C1976 1.358 . S
C1978 N1979 1.279 . S
C1978 H2019 0.930 . S
N1979 C1977 1.314 . S
N1979 C1978 1.279 . S
C1980 C1982 1.353 . S
C1980 N1983 1.314 . S
C1980 H1986 0.930 . S
C1981 N1983 1.279 . S
C1981 C1984 1.358 . S
C1981 H1987 0.930 . S
C1982 C1980 1.353 . S
C1982 C1985 1.348 . S
C1982 H2020 0.929 . S
N1983 Li1938 1.990 . S
N1983 C1980 1.314 . S
N1983 C1981 1.279 . S
C1984 C1981 1.358 . S
C1984 C1985 1.356 . S
C1984 H2021 0.930 . S
C1985 C1982 1.348 . S
C1985 C1984 1.356 . S
H1986 C1980 0.930 . S
H1987 C1981 0.930 . S
C1988 N1989 1.314 . S
C1988 C1990 1.353 . S
C1988 H1994 0.930 . S
N1989 Li1939 1.990 . S
N1989 C1988 1.314 . S
N1989 C1992 1.279 . S
C1990 C1988 1.353 . S
C1990 C1993 1.348 . S
C1990 H2022 0.929 . S
C1991 C1992 1.358 . S
C1991 C1993 1.356 . S
C1991 H2023 0.930 . S
C1992 N1989 1.279 . S
C1992 C1991 1.358 . S
C1992 H1995 0.930 . S
C1993 C1990 1.348 . S
C1993 C1991 1.356 . S
H1994 C1988 0.930 . S
H1995 C1992 0.930 . S
O1996 Li1936 1.956 . S
O1996 Li1937 1.970 . S
O1996 Li1938 1.961 . S
O1996 C1940 1.325 . S
O1997 Li1936 1.970 . S
O1997 Li1937 1.956 . S
O1997 Li1939 1.961 . S
O1997 C1946 1.325 . S
O1998 Li1936 1.961 . S
O1998 Li1938 1.956 . S
O1998 Li1939 1.970 . S
O1998 C1968 1.325 . S
O1999 Li1937 1.961 . S
O1999 Li1938 1.970 . S
O1999 Li1939 1.956 . S
O1999 C1974 1.325 . S
H2000 C1942 0.929 . S
H2001 C1943 0.930 . S
H2002 C1944 0.930 . S
H2003 C1945 0.930 . S
H2004 C1947 0.930 . S
H2005 C1949 0.929 . S
H2006 C1950 0.930 . S
H2007 C1951 0.930 . S
H2008 C1954 0.930 . S
H2009 C1957 0.929 . S
H2010 C1962 0.929 . S
H2011 C1963 0.930 . S
H2012 C1970 0.929 . S
H2013 C1971 0.930 . S
H2014 C1972 0.930 . S
H2015 C1973 0.930 . S
H2016 C1975 0.929 . S
H2017 C1976 0.930 . S
H2018 C1977 0.930 . S
H2019 C1978 0.930 . S
H2020 C1982 0.929 . S
H2021 C1984 0.930 . S
H2022 C1990 0.929 . S
H2023 C1991 0.930 . S
Li2024 N2041 1.990 . S
Li2024 O2084 1.956 . S
Li2024 O2085 1.970 . S
Li2024 O2086 1.961 . S
Li2025 N2049 1.990 . S
Li2025 O2084 1.970 . S
Li2025 O2085 1.956 . S
Li2025 O2087 1.961 . S
Li2026 N2071 1.990 . S
Li2026 O2084 1.961 . S
Li2026 O2086 1.956 . S
Li2026 O2087 1.970 . S
Li2027 N2077 1.990 . S
Li2027 O2085 1.961 . S
Li2027 O2086 1.970 . S
Li2027 O2087 1.956 . S
C2028 C2030 1.348 . S
C2028 C2031 1.356 . S
C2028 O2084 1.325 . S
N2029 C2032 1.314 . S
N2029 C2033 1.279 . S
C2030 C2028 1.348 . S
C2030 C2032 1.353 . S
C2030 H2088 0.929 . S
C2031 C2028 1.356 . S
C2031 C2033 1.358 . S
C2031 H2089 0.930 . S
C2032 N2029 1.314 . S
C2032 C2030 1.353 . S
C2032 H2090 0.930 . S
C2033 N2029 1.279 . S
C2033 C2031 1.358 . S
C2033 H2091 0.930 . S
C2034 C2037 1.348 . S
C2034 C2038 1.356 . S
C2034 O2085 1.325 . S
C2035 N2036 1.279 . S
C2035 C2038 1.358 . S
C2035 H2092 0.930 . S
N2036 C2035 1.279 . S
N2036 C2039 1.314 . S
C2037 C2034 1.348 . S
C2037 C2039 1.353 . S
C2037 H2093 0.929 . S
C2038 C2034 1.356 . S
C2038 C2035 1.358 . S
C2038 H2094 0.930 . S
C2039 N2036 1.314 . S
C2039 C2037 1.353 . S
C2039 H2095 0.930 . S
C2040 N2041 1.314 . S
C2040 C2045 1.353 . S
C2040 H2046 0.930 . S
N2041 Li2024 1.990 . S
N2041 C2040 1.314 . S
N2041 C2043 1.279 . S
C2042 C2043 1.358 . S
C2042 C2044 1.356 . S
C2042 H2096 0.930 . S
C2043 N2041 1.279 . S
C2043 C2042 1.358 . S
C2043 H2047 0.930 . S
C2044 C2042 1.356 . S
C2044 C2045 1.348 . S
C2045 C2040 1.353 . S
C2045 C2044 1.348 . S
C2045 H2097 0.929 . S
H2046 C2040 0.930 . S
H2047 C2043 0.930 . S
C2048 N2049 1.314 . S
C2048 C2050 1.353 . S
C2048 H2054 0.930 . S
N2049 Li2025 1.990 . S
N2049 C2048 1.314 . S
N2049 C2052 1.279 . S
C2050 C2048 1.353 . S
C2050 C2053 1.348 . S
C2050 H2098 0.929 . S
C2051 C2052 1.358 . S
C2051 C2053 1.356 . S
C2051 H2099 0.930 . S
C2052 N2049 1.279 . S
C2052 C2051 1.358 . S
C2052 H2055 0.930 . S
C2053 C2050 1.348 . S
C2053 C2051 1.356 . S
H2054 C2048 0.930 . S
H2055 C2052 0.930 . S
C2056 C2058 1.348 . S
C2056 C2059 1.356 . S
C2056 O2086 1.325 . S
N2057 C2060 1.314 . S
N2057 C2061 1.279 . S
C2058 C2056 1.348 . S
C2058 C2060 1.353 . S
C2058 H2100 0.929 . S
C2059 C2056 1.356 . S
C2059 C2061 1.358 . S
C2059 H2101 0.930 . S
C2060 N2057 1.314 . S
C2060 C2058 1.353 . S
C2060 H2102 0.930 . S
C2061 N2057 1.279 . S
C2061 C2059 1.358 . S
C2061 H2103 0.930 . S
C2062 C2063 1.348 . S
C2062 C2064 1.356 . S
C2062 O2087 1.325 . S
C2063 C2062 1.348 . S
C2063 C2065 1.353 . S
C2063 H2104 0.929 . S
C2064 C2062 1.356 . S
C2064 C2066 1.358 . S
C2064 H2105 0.930 . S
C2065 C2063 1.353 . S
C2065 N2067 1.314 . S
C2065 H2106 0.930 . S
C2066 C2064 1.358 . S
C2066 N2067 1.279 . S
C2066 H2107 0.930 . S
N2067 C2065 1.314 . S
N2067 C2066 1.279 . S
C2068 C2070 1.353 . S
C2068 N2071 1.314 . S
C2068 H2074 0.930 . S
C2069 N2071 1.279 . S
C2069 C2072 1.358 . S
C2069 H2075 0.930 . S
C2070 C2068 1.353 . S
C2070 C2073 1.348 . S
C2070 H2108 0.929 . S
N2071 Li2026 1.990 . S
N2071 C2068 1.314 . S
N2071 C2069 1.279 . S
C2072 C2069 1.358 . S
C2072 C2073 1.356 . S
C2072 H2109 0.930 . S
C2073 C2070 1.348 . S
C2073 C2072 1.356 . S
H2074 C2068 0.930 . S
H2075 C2069 0.930 . S
C2076 N2077 1.314 . S
C2076 C2078 1.353 . S
C2076 H2082 0.930 . S
N2077 Li2027 1.990 . S
N2077 C2076 1.314 . S
N2077 C2080 1.279 . S
C2078 C2076 1.353 . S
C2078 C2081 1.348 . S
C2078 H2110 0.929 . S
C2079 C2080 1.358 . S
C2079 C2081 1.356 . S
C2079 H2111 0.930 . S
C2080 N2077 1.279 . S
C2080 C2079 1.358 . S
C2080 H2083 0.930 . S
C2081 C2078 1.348 . S
C2081 C2079 1.356 . S
H2082 C2076 0.930 . S
H2083 C2080 0.930 . S
O2084 Li2024 1.956 . S
O2084 Li2025 1.970 . S
O2084 Li2026 1.961 . S
O2084 C2028 1.325 . S
O2085 Li2024 1.970 . S
O2085 Li2025 1.956 . S
O2085 Li2027 1.961 . S
O2085 C2034 1.325 . S
O2086 Li2024 1.961 . S
O2086 Li2026 1.956 . S
O2086 Li2027 1.970 . S
O2086 C2056 1.325 . S
O2087 Li2025 1.961 . S
O2087 Li2026 1.970 . S
O2087 Li2027 1.956 . S
O2087 C2062 1.325 . S
H2088 C2030 0.929 . S
H2089 C2031 0.930 . S
H2090 C2032 0.930 . S
H2091 C2033 0.930 . S
H2092 C2035 0.930 . S
H2093 C2037 0.929 . S
H2094 C2038 0.930 . S
H2095 C2039 0.930 . S
H2096 C2042 0.930 . S
H2097 C2045 0.929 . S
H2098 C2050 0.929 . S
H2099 C2051 0.930 . S
H2100 C2058 0.929 . S
H2101 C2059 0.930 . S
H2102 C2060 0.930 . S
H2103 C2061 0.930 . S
H2104 C2063 0.929 . S
H2105 C2064 0.930 . S
H2106 C2065 0.930 . S
H2107 C2066 0.930 . S
H2108 C2070 0.929 . S
H2109 C2072 0.930 . S
H2110 C2078 0.929 . S
H2111 C2079 0.930 . S
Li2112 N2129 1.990 . S
Li2112 O2172 1.956 . S
Li2112 O2173 1.970 . S
Li2112 O2174 1.961 . S
Li2113 N2137 1.990 . S
Li2113 O2172 1.970 . S
Li2113 O2173 1.956 . S
Li2113 O2175 1.961 . S
Li2114 N2159 1.990 . S
Li2114 O2172 1.961 . S
Li2114 O2174 1.956 . S
Li2114 O2175 1.970 . S
Li2115 N2165 1.990 . S
Li2115 O2173 1.961 . S
Li2115 O2174 1.970 . S
Li2115 O2175 1.956 . S
C2116 C2118 1.348 . S
C2116 C2119 1.356 . S
C2116 O2172 1.325 . S
N2117 C2120 1.314 . S
N2117 C2121 1.279 . S
C2118 C2116 1.348 . S
C2118 C2120 1.353 . S
C2118 H2176 0.929 . S
C2119 C2116 1.356 . S
C2119 C2121 1.358 . S
C2119 H2177 0.930 . S
C2120 N2117 1.314 . S
C2120 C2118 1.353 . S
C2120 H2178 0.930 . S
C2121 N2117 1.279 . S
C2121 C2119 1.358 . S
C2121 H2179 0.930 . S
C2122 C2125 1.348 . S
C2122 C2126 1.356 . S
C2122 O2173 1.325 . S
C2123 N2124 1.279 . S
C2123 C2126 1.358 . S
C2123 H2180 0.930 . S
N2124 C2123 1.279 . S
N2124 C2127 1.314 . S
C2125 C2122 1.348 . S
C2125 C2127 1.353 . S
C2125 H2181 0.929 . S
C2126 C2122 1.356 . S
C2126 C2123 1.358 . S
C2126 H2182 0.930 . S
C2127 N2124 1.314 . S
C2127 C2125 1.353 . S
C2127 H2183 0.930 . S
C2128 N2129 1.314 . S
C2128 C2133 1.353 . S
C2128 H2134 0.930 . S
N2129 Li2112 1.990 . S
N2129 C2128 1.314 . S
N2129 C2131 1.279 . S
C2130 C2131 1.358 . S
C2130 C2132 1.356 . S
C2130 H2184 0.930 . S
C2131 N2129 1.279 . S
C2131 C2130 1.358 . S
C2131 H2135 0.930 . S
C2132 C2130 1.356 . S
C2132 C2133 1.348 . S
C2133 C2128 1.353 . S
C2133 C2132 1.348 . S
C2133 H2185 0.929 . S
H2134 C2128 0.930 . S
H2135 C2131 0.930 . S
C2136 N2137 1.314 . S
C2136 C2138 1.353 . S
C2136 H2142 0.930 . S
N2137 Li2113 1.990 . S
N2137 C2136 1.314 . S
N2137 C2140 1.279 . S
C2138 C2136 1.353 . S
C2138 C2141 1.348 . S
C2138 H2186 0.929 . S
C2139 C2140 1.358 . S
C2139 C2141 1.356 . S
C2139 H2187 0.930 . S
C2140 N2137 1.279 . S
C2140 C2139 1.358 . S
C2140 H2143 0.930 . S
C2141 C2138 1.348 . S
C2141 C2139 1.356 . S
H2142 C2136 0.930 . S
H2143 C2140 0.930 . S
C2144 C2146 1.348 . S
C2144 C2147 1.356 . S
C2144 O2174 1.325 . S
N2145 C2148 1.314 . S
N2145 C2149 1.279 . S
C2146 C2144 1.348 . S
C2146 C2148 1.353 . S
C2146 H2188 0.929 . S
C2147 C2144 1.356 . S
C2147 C2149 1.358 . S
C2147 H2189 0.930 . S
C2148 N2145 1.314 . S
C2148 C2146 1.353 . S
C2148 H2190 0.930 . S
C2149 N2145 1.279 . S
C2149 C2147 1.358 . S
C2149 H2191 0.930 . S
C2150 C2151 1.348 . S
C2150 C2152 1.356 . S
C2150 O2175 1.325 . S
C2151 C2150 1.348 . S
C2151 C2153 1.353 . S
C2151 H2192 0.929 . S
C2152 C2150 1.356 . S
C2152 C2154 1.358 . S
C2152 H2193 0.930 . S
C2153 C2151 1.353 . S
C2153 N2155 1.314 . S
C2153 H2194 0.930 . S
C2154 C2152 1.358 . S
C2154 N2155 1.279 . S
C2154 H2195 0.930 . S
N2155 C2153 1.314 . S
N2155 C2154 1.279 . S
C2156 C2158 1.353 . S
C2156 N2159 1.314 . S
C2156 H2162 0.930 . S
C2157 N2159 1.279 . S
C2157 C2160 1.358 . S
C2157 H2163 0.930 . S
C2158 C2156 1.353 . S
C2158 C2161 1.348 . S
C2158 H2196 0.929 . S
N2159 Li2114 1.990 . S
N2159 C2156 1.314 . S
N2159 C2157 1.279 . S
C2160 C2157 1.358 . S
C2160 C2161 1.356 . S
C2160 H2197 0.930 . S
C2161 C2158 1.348 . S
C2161 C2160 1.356 . S
H2162 C2156 0.930 . S
H2163 C2157 0.930 . S
C2164 N2165 1.314 . S
C2164 C2166 1.353 1_455 S
C2164 H2170 0.930 . S
N2165 Li2115 1.990 . S
N2165 C2164 1.314 . S
N2165 C2168 1.279 . S
C2166 C2164 1.353 1_655 S
C2166 C2169 1.348 . S
C2166 H2198 0.929 . S
C2167 C2168 1.358 1_655 S
C2167 C2169 1.356 . S
C2167 H2199 0.930 . S
C2168 N2165 1.279 . S
C2168 C2167 1.358 1_455 S
C2168 H2171 0.930 . S
C2169 C2166 1.348 . S
C2169 C2167 1.356 . S
H2170 C2164 0.930 . S
H2171 C2168 0.930 . S
O2172 Li2112 1.956 . S
O2172 Li2113 1.970 . S
O2172 Li2114 1.961 . S
O2172 C2116 1.325 . S
O2173 Li2112 1.970 . S
O2173 Li2113 1.956 . S
O2173 Li2115 1.961 . S
O2173 C2122 1.325 . S
O2174 Li2112 1.961 . S
O2174 Li2114 1.956 . S
O2174 Li2115 1.970 . S
O2174 C2144 1.325 . S
O2175 Li2113 1.961 . S
O2175 Li2114 1.970 . S
O2175 Li2115 1.956 . S
O2175 C2150 1.325 . S
H2176 C2118 0.929 . S
H2177 C2119 0.930 . S
H2178 C2120 0.930 . S
H2179 C2121 0.930 . S
H2180 C2123 0.930 . S
H2181 C2125 0.929 . S
H2182 C2126 0.930 . S
H2183 C2127 0.930 . S
H2184 C2130 0.930 . S
H2185 C2133 0.929 . S
H2186 C2138 0.929 . S
H2187 C2139 0.930 . S
H2188 C2146 0.929 . S
H2189 C2147 0.930 . S
H2190 C2148 0.930 . S
H2191 C2149 0.930 . S
H2192 C2151 0.929 . S
H2193 C2152 0.930 . S
H2194 C2153 0.930 . S
H2195 C2154 0.930 . S
H2196 C2158 0.929 . S
H2197 C2160 0.930 . S
H2198 C2166 0.929 . S
H2199 C2167 0.930 . S
Li2200 N2217 1.990 . S
Li2200 O2260 1.956 . S
Li2200 O2261 1.970 . S
Li2200 O2262 1.961 . S
Li2201 N2225 1.990 . S
Li2201 O2260 1.970 . S
Li2201 O2261 1.956 . S
Li2201 O2263 1.961 . S
Li2202 N2247 1.990 . S
Li2202 O2260 1.961 . S
Li2202 O2262 1.956 . S
Li2202 O2263 1.970 . S
Li2203 N2253 1.990 . S
Li2203 O2261 1.961 . S
Li2203 O2262 1.970 . S
Li2203 O2263 1.956 . S
C2204 C2206 1.348 . S
C2204 C2207 1.356 . S
C2204 O2260 1.325 . S
N2205 C2208 1.314 . S
N2205 C2209 1.279 . S
C2206 C2204 1.348 . S
C2206 C2208 1.353 . S
C2206 H2264 0.929 . S
C2207 C2204 1.356 . S
C2207 C2209 1.358 . S
C2207 H2265 0.930 . S
C2208 N2205 1.314 . S
C2208 C2206 1.353 . S
C2208 H2266 0.930 . S
C2209 N2205 1.279 . S
C2209 C2207 1.358 . S
C2209 H2267 0.930 . S
C2210 C2213 1.348 . S
C2210 C2214 1.356 . S
C2210 O2261 1.325 . S
C2211 N2212 1.279 . S
C2211 C2214 1.358 . S
C2211 H2268 0.930 . S
N2212 C2211 1.279 . S
N2212 C2215 1.314 . S
C2213 C2210 1.348 . S
C2213 C2215 1.353 . S
C2213 H2269 0.929 . S
C2214 C2210 1.356 . S
C2214 C2211 1.358 . S
C2214 H2270 0.930 . S
C2215 N2212 1.314 . S
C2215 C2213 1.353 . S
C2215 H2271 0.930 . S
C2216 N2217 1.314 . S
C2216 C2221 1.353 . S
C2216 H2222 0.930 . S
N2217 Li2200 1.990 . S
N2217 C2216 1.314 . S
N2217 C2219 1.279 . S
C2218 C2219 1.358 . S
C2218 C2220 1.356 . S
C2218 H2272 0.930 . S
C2219 N2217 1.279 . S
C2219 C2218 1.358 . S
C2219 H2223 0.930 . S
C2220 C2218 1.356 . S
C2220 C2221 1.348 . S
C2221 C2216 1.353 . S
C2221 C2220 1.348 . S
C2221 H2273 0.929 . S
H2222 C2216 0.930 . S
H2223 C2219 0.930 . S
C2224 N2225 1.314 . S
C2224 C2226 1.353 . S
C2224 H2230 0.930 . S
N2225 Li2201 1.990 . S
N2225 C2224 1.314 . S
N2225 C2228 1.279 . S
C2226 C2224 1.353 . S
C2226 C2229 1.348 . S
C2226 H2274 0.929 . S
C2227 C2228 1.358 . S
C2227 C2229 1.356 . S
C2227 H2275 0.930 . S
C2228 N2225 1.279 . S
C2228 C2227 1.358 . S
C2228 H2231 0.930 . S
C2229 C2226 1.348 . S
C2229 C2227 1.356 . S
H2230 C2224 0.930 . S
H2231 C2228 0.930 . S
C2232 C2234 1.348 . S
C2232 C2235 1.356 . S
C2232 O2262 1.325 . S
N2233 C2236 1.314 . S
N2233 C2237 1.279 . S
C2234 C2232 1.348 . S
C2234 C2236 1.353 . S
C2234 H2276 0.929 . S
C2235 C2232 1.356 . S
C2235 C2237 1.358 . S
C2235 H2277 0.930 . S
C2236 N2233 1.314 . S
C2236 C2234 1.353 . S
C2236 H2278 0.930 . S
C2237 N2233 1.279 . S
C2237 C2235 1.358 . S
C2237 H2279 0.930 . S
C2238 C2239 1.348 . S
C2238 C2240 1.356 . S
C2238 O2263 1.325 . S
C2239 C2238 1.348 . S
C2239 C2241 1.353 . S
C2239 H2280 0.929 . S
C2240 C2238 1.356 . S
C2240 C2242 1.358 . S
C2240 H2281 0.930 . S
C2241 C2239 1.353 . S
C2241 N2243 1.314 . S
C2241 H2282 0.930 . S
C2242 C2240 1.358 . S
C2242 N2243 1.279 . S
C2242 H2283 0.930 . S
N2243 C2241 1.314 . S
N2243 C2242 1.279 . S
C2244 C2246 1.353 . S
C2244 N2247 1.314 . S
C2244 H2250 0.930 . S
C2245 N2247 1.279 . S
C2245 C2248 1.358 . S
C2245 H2251 0.930 . S
C2246 C2244 1.353 . S
C2246 C2249 1.348 . S
C2246 H2284 0.929 . S
N2247 Li2202 1.990 . S
N2247 C2244 1.314 . S
N2247 C2245 1.279 . S
C2248 C2245 1.358 . S
C2248 C2249 1.356 . S
C2248 H2285 0.930 . S
C2249 C2246 1.348 . S
C2249 C2248 1.356 . S
H2250 C2244 0.930 . S
H2251 C2245 0.930 . S
C2252 N2253 1.314 . S
C2252 C2254 1.353 . S
C2252 H2258 0.930 . S
N2253 Li2203 1.990 . S
N2253 C2252 1.314 . S
N2253 C2256 1.279 . S
C2254 C2252 1.353 . S
C2254 C2257 1.348 . S
C2254 H2286 0.929 . S
C2255 C2256 1.358 . S
C2255 C2257 1.356 . S
C2255 H2287 0.930 . S
C2256 N2253 1.279 . S
C2256 C2255 1.358 . S
C2256 H2259 0.930 . S
C2257 C2254 1.348 . S
C2257 C2255 1.356 . S
H2258 C2252 0.930 . S
H2259 C2256 0.930 . S
O2260 Li2200 1.956 . S
O2260 Li2201 1.970 . S
O2260 Li2202 1.961 . S
O2260 C2204 1.325 . S
O2261 Li2200 1.970 . S
O2261 Li2201 1.956 . S
O2261 Li2203 1.961 . S
O2261 C2210 1.325 . S
O2262 Li2200 1.961 . S
O2262 Li2202 1.956 . S
O2262 Li2203 1.970 . S
O2262 C2232 1.325 . S
O2263 Li2201 1.961 . S
O2263 Li2202 1.970 . S
O2263 Li2203 1.956 . S
O2263 C2238 1.325 . S
H2264 C2206 0.929 . S
H2265 C2207 0.930 . S
H2266 C2208 0.930 . S
H2267 C2209 0.930 . S
H2268 C2211 0.930 . S
H2269 C2213 0.929 . S
H2270 C2214 0.930 . S
H2271 C2215 0.930 . S
H2272 C2218 0.930 . S
H2273 C2221 0.929 . S
H2274 C2226 0.929 . S
H2275 C2227 0.930 . S
H2276 C2234 0.929 . S
H2277 C2235 0.930 . S
H2278 C2236 0.930 . S
H2279 C2237 0.930 . S
H2280 C2239 0.929 . S
H2281 C2240 0.930 . S
H2282 C2241 0.930 . S
H2283 C2242 0.930 . S
H2284 C2246 0.929 . S
H2285 C2248 0.930 . S
H2286 C2254 0.929 . S
H2287 C2255 0.930 . S
Li2288 N2305 1.990 . S
Li2288 O2348 1.956 . S
Li2288 O2349 1.970 . S
Li2288 O2350 1.961 . S
Li2289 N2313 1.990 . S
Li2289 O2348 1.970 . S
Li2289 O2349 1.956 . S
Li2289 O2351 1.961 . S
Li2290 N2335 1.990 . S
Li2290 O2348 1.961 . S
Li2290 O2350 1.956 . S
Li2290 O2351 1.970 . S
Li2291 N2341 1.990 . S
Li2291 O2349 1.961 . S
Li2291 O2350 1.970 . S
Li2291 O2351 1.956 . S
C2292 C2294 1.348 . S
C2292 C2295 1.356 . S
C2292 O2348 1.325 . S
N2293 C2296 1.314 . S
N2293 C2297 1.279 . S
C2294 C2292 1.348 . S
C2294 C2296 1.353 . S
C2294 H2352 0.929 . S
C2295 C2292 1.356 . S
C2295 C2297 1.358 . S
C2295 H2353 0.930 . S
C2296 N2293 1.314 . S
C2296 C2294 1.353 . S
C2296 H2354 0.930 . S
C2297 N2293 1.279 . S
C2297 C2295 1.358 . S
C2297 H2355 0.930 . S
C2298 C2301 1.348 . S
C2298 C2302 1.356 . S
C2298 O2349 1.325 . S
C2299 N2300 1.279 . S
C2299 C2302 1.358 . S
C2299 H2356 0.930 . S
N2300 C2299 1.279 . S
N2300 C2303 1.314 . S
C2301 C2298 1.348 . S
C2301 C2303 1.353 . S
C2301 H2357 0.929 . S
C2302 C2298 1.356 . S
C2302 C2299 1.358 . S
C2302 H2358 0.930 . S
C2303 N2300 1.314 . S
C2303 C2301 1.353 . S
C2303 H2359 0.930 . S
C2304 N2305 1.314 . S
C2304 C2309 1.353 . S
C2304 H2310 0.930 . S
N2305 Li2288 1.990 . S
N2305 C2304 1.314 . S
N2305 C2307 1.279 . S
C2306 C2307 1.358 . S
C2306 C2308 1.356 . S
C2306 H2360 0.930 . S
C2307 N2305 1.279 . S
C2307 C2306 1.358 . S
C2307 H2311 0.930 . S
C2308 C2306 1.356 . S
C2308 C2309 1.348 . S
C2309 C2304 1.353 . S
C2309 C2308 1.348 . S
C2309 H2361 0.929 . S
H2310 C2304 0.930 . S
H2311 C2307 0.930 . S
C2312 N2313 1.314 . S
C2312 C2314 1.353 . S
C2312 H2318 0.930 . S
N2313 Li2289 1.990 . S
N2313 C2312 1.314 . S
N2313 C2316 1.279 . S
C2314 C2312 1.353 . S
C2314 C2317 1.348 . S
C2314 H2362 0.929 . S
C2315 C2316 1.358 . S
C2315 C2317 1.356 . S
C2315 H2363 0.930 . S
C2316 N2313 1.279 . S
C2316 C2315 1.358 . S
C2316 H2319 0.930 . S
C2317 C2314 1.348 . S
C2317 C2315 1.356 . S
H2318 C2312 0.930 . S
H2319 C2316 0.930 . S
C2320 C2322 1.348 . S
C2320 C2323 1.356 . S
C2320 O2350 1.325 . S
N2321 C2324 1.314 . S
N2321 C2325 1.279 . S
C2322 C2320 1.348 . S
C2322 C2324 1.353 . S
C2322 H2364 0.929 . S
C2323 C2320 1.356 . S
C2323 C2325 1.358 . S
C2323 H2365 0.930 . S
C2324 N2321 1.314 . S
C2324 C2322 1.353 . S
C2324 H2366 0.930 . S
C2325 N2321 1.279 . S
C2325 C2323 1.358 . S
C2325 H2367 0.930 . S
C2326 C2327 1.348 . S
C2326 C2328 1.356 . S
C2326 O2351 1.325 . S
C2327 C2326 1.348 . S
C2327 C2329 1.353 . S
C2327 H2368 0.929 . S
C2328 C2326 1.356 . S
C2328 C2330 1.358 . S
C2328 H2369 0.930 . S
C2329 C2327 1.353 . S
C2329 N2331 1.314 . S
C2329 H2370 0.930 . S
C2330 C2328 1.358 . S
C2330 N2331 1.279 . S
C2330 H2371 0.930 . S
N2331 C2329 1.314 . S
N2331 C2330 1.279 . S
C2332 C2334 1.353 . S
C2332 N2335 1.314 . S
C2332 H2338 0.930 . S
C2333 N2335 1.279 . S
C2333 C2336 1.358 . S
C2333 H2339 0.930 . S
C2334 C2332 1.353 . S
C2334 C2337 1.348 . S
C2334 H2372 0.929 . S
N2335 Li2290 1.990 . S
N2335 C2332 1.314 . S
N2335 C2333 1.279 . S
C2336 C2333 1.358 . S
C2336 C2337 1.356 . S
C2336 H2373 0.930 . S
C2337 C2334 1.348 . S
C2337 C2336 1.356 . S
H2338 C2332 0.930 . S
H2339 C2333 0.930 . S
C2340 N2341 1.314 . S
C2340 C2342 1.353 . S
C2340 H2346 0.930 . S
N2341 Li2291 1.990 . S
N2341 C2340 1.314 . S
N2341 C2344 1.279 . S
C2342 C2340 1.353 . S
C2342 C2345 1.348 . S
C2342 H2374 0.929 . S
C2343 C2344 1.358 . S
C2343 C2345 1.356 . S
C2343 H2375 0.930 . S
C2344 N2341 1.279 . S
C2344 C2343 1.358 . S
C2344 H2347 0.930 . S
C2345 C2342 1.348 . S
C2345 C2343 1.356 . S
H2346 C2340 0.930 . S
H2347 C2344 0.930 . S
O2348 Li2288 1.956 . S
O2348 Li2289 1.970 . S
O2348 Li2290 1.961 . S
O2348 C2292 1.325 . S
O2349 Li2288 1.970 . S
O2349 Li2289 1.956 . S
O2349 Li2291 1.961 . S
O2349 C2298 1.325 . S
O2350 Li2288 1.961 . S
O2350 Li2290 1.956 . S
O2350 Li2291 1.970 . S
O2350 C2320 1.325 . S
O2351 Li2289 1.961 . S
O2351 Li2290 1.970 . S
O2351 Li2291 1.956 . S
O2351 C2326 1.325 . S
H2352 C2294 0.929 . S
H2353 C2295 0.930 . S
H2354 C2296 0.930 . S
H2355 C2297 0.930 . S
H2356 C2299 0.930 . S
H2357 C2301 0.929 . S
H2358 C2302 0.930 . S
H2359 C2303 0.930 . S
H2360 C2306 0.930 . S
H2361 C2309 0.929 . S
H2362 C2314 0.929 . S
H2363 C2315 0.930 . S
H2364 C2322 0.929 . S
H2365 C2323 0.930 . S
H2366 C2324 0.930 . S
H2367 C2325 0.930 . S
H2368 C2327 0.929 . S
H2369 C2328 0.930 . S
H2370 C2329 0.930 . S
H2371 C2330 0.930 . S
H2372 C2334 0.929 . S
H2373 C2336 0.930 . S
H2374 C2342 0.929 . S
H2375 C2343 0.930 . S
Li2376 N2393 1.990 . S
Li2376 O2436 1.956 . S
Li2376 O2437 1.970 . S
Li2376 O2438 1.961 . S
Li2377 N2401 1.990 . S
Li2377 O2436 1.970 . S
Li2377 O2437 1.956 . S
Li2377 O2439 1.961 . S
Li2378 N2423 1.990 . S
Li2378 O2436 1.961 . S
Li2378 O2438 1.956 . S
Li2378 O2439 1.970 . S
Li2379 N2429 1.990 . S
Li2379 O2437 1.961 . S
Li2379 O2438 1.970 . S
Li2379 O2439 1.956 . S
C2380 C2382 1.348 . S
C2380 C2383 1.356 . S
C2380 O2436 1.325 . S
N2381 C2384 1.314 . S
N2381 C2385 1.279 . S
C2382 C2380 1.348 . S
C2382 C2384 1.353 . S
C2382 H2440 0.929 . S
C2383 C2380 1.356 . S
C2383 C2385 1.358 . S
C2383 H2441 0.930 . S
C2384 N2381 1.314 . S
C2384 C2382 1.353 . S
C2384 H2442 0.930 . S
C2385 N2381 1.279 . S
C2385 C2383 1.358 . S
C2385 H2443 0.930 . S
C2386 C2389 1.348 . S
C2386 C2390 1.356 . S
C2386 O2437 1.325 . S
C2387 N2388 1.279 . S
C2387 C2390 1.358 . S
C2387 H2444 0.930 . S
N2388 C2387 1.279 . S
N2388 C2391 1.314 . S
C2389 C2386 1.348 . S
C2389 C2391 1.353 . S
C2389 H2445 0.929 . S
C2390 C2386 1.356 . S
C2390 C2387 1.358 . S
C2390 H2446 0.930 . S
C2391 N2388 1.314 . S
C2391 C2389 1.353 . S
C2391 H2447 0.930 . S
C2392 N2393 1.314 . S
C2392 C2397 1.353 . S
C2392 H2398 0.930 . S
N2393 Li2376 1.990 . S
N2393 C2392 1.314 . S
N2393 C2395 1.279 . S
C2394 C2395 1.358 . S
C2394 C2396 1.356 . S
C2394 H2448 0.930 . S
C2395 N2393 1.279 . S
C2395 C2394 1.358 . S
C2395 H2399 0.930 . S
C2396 C2394 1.356 . S
C2396 C2397 1.348 . S
C2397 C2392 1.353 . S
C2397 C2396 1.348 . S
C2397 H2449 0.929 . S
H2398 C2392 0.930 . S
H2399 C2395 0.930 . S
C2400 N2401 1.314 . S
C2400 C2402 1.353 . S
C2400 H2406 0.930 . S
N2401 Li2377 1.990 . S
N2401 C2400 1.314 . S
N2401 C2404 1.279 . S
C2402 C2400 1.353 . S
C2402 C2405 1.348 . S
C2402 H2450 0.929 . S
C2403 C2404 1.358 . S
C2403 C2405 1.356 . S
C2403 H2451 0.930 . S
C2404 N2401 1.279 . S
C2404 C2403 1.358 . S
C2404 H2407 0.930 . S
C2405 C2402 1.348 . S
C2405 C2403 1.356 . S
H2406 C2400 0.930 . S
H2407 C2404 0.930 . S
C2408 C2410 1.348 . S
C2408 C2411 1.356 . S
C2408 O2438 1.325 . S
N2409 C2412 1.314 . S
N2409 C2413 1.279 . S
C2410 C2408 1.348 . S
C2410 C2412 1.353 . S
C2410 H2452 0.929 . S
C2411 C2408 1.356 . S
C2411 C2413 1.358 . S
C2411 H2453 0.930 . S
C2412 N2409 1.314 . S
C2412 C2410 1.353 . S
C2412 H2454 0.930 . S
C2413 N2409 1.279 . S
C2413 C2411 1.358 . S
C2413 H2455 0.930 . S
C2414 C2415 1.348 . S
C2414 C2416 1.356 . S
C2414 O2439 1.325 . S
C2415 C2414 1.348 . S
C2415 C2417 1.353 . S
C2415 H2456 0.929 . S
C2416 C2414 1.356 . S
C2416 C2418 1.358 . S
C2416 H2457 0.930 . S
C2417 C2415 1.353 . S
C2417 N2419 1.314 . S
C2417 H2458 0.930 . S
C2418 C2416 1.358 . S
C2418 N2419 1.279 . S
C2418 H2459 0.930 . S
N2419 C2417 1.314 . S
N2419 C2418 1.279 . S
C2420 C2422 1.353 . S
C2420 N2423 1.314 . S
C2420 H2426 0.930 . S
C2421 N2423 1.279 . S
C2421 C2424 1.358 . S
C2421 H2427 0.930 . S
C2422 C2420 1.353 . S
C2422 C2425 1.348 . S
C2422 H2460 0.929 . S
N2423 Li2378 1.990 . S
N2423 C2420 1.314 . S
N2423 C2421 1.279 . S
C2424 C2421 1.358 . S
C2424 C2425 1.356 . S
C2424 H2461 0.930 . S
C2425 C2422 1.348 . S
C2425 C2424 1.356 . S
H2426 C2420 0.930 . S
H2427 C2421 0.930 . S
C2428 N2429 1.314 . S
C2428 C2430 1.353 . S
C2428 H2434 0.930 . S
N2429 Li2379 1.990 . S
N2429 C2428 1.314 . S
N2429 C2432 1.279 . S
C2430 C2428 1.353 . S
C2430 C2433 1.348 . S
C2430 H2462 0.929 . S
C2431 C2432 1.358 . S
C2431 C2433 1.356 . S
C2431 H2463 0.930 . S
C2432 N2429 1.279 . S
C2432 C2431 1.358 . S
C2432 H2435 0.930 . S
C2433 C2430 1.348 . S
C2433 C2431 1.356 . S
H2434 C2428 0.930 . S
H2435 C2432 0.930 . S
O2436 Li2376 1.956 . S
O2436 Li2377 1.970 . S
O2436 Li2378 1.961 . S
O2436 C2380 1.325 . S
O2437 Li2376 1.970 . S
O2437 Li2377 1.956 . S
O2437 Li2379 1.961 . S
O2437 C2386 1.325 . S
O2438 Li2376 1.961 . S
O2438 Li2378 1.956 . S
O2438 Li2379 1.970 . S
O2438 C2408 1.325 . S
O2439 Li2377 1.961 . S
O2439 Li2378 1.970 . S
O2439 Li2379 1.956 . S
O2439 C2414 1.325 . S
H2440 C2382 0.929 . S
H2441 C2383 0.930 . S
H2442 C2384 0.930 . S
H2443 C2385 0.930 . S
H2444 C2387 0.930 . S
H2445 C2389 0.929 . S
H2446 C2390 0.930 . S
H2447 C2391 0.930 . S
H2448 C2394 0.930 . S
H2449 C2397 0.929 . S
H2450 C2402 0.929 . S
H2451 C2403 0.930 . S
H2452 C2410 0.929 . S
H2453 C2411 0.930 . S
H2454 C2412 0.930 . S
H2455 C2413 0.930 . S
H2456 C2415 0.929 . S
H2457 C2416 0.930 . S
H2458 C2417 0.930 . S
H2459 C2418 0.930 . S
H2460 C2422 0.929 . S
H2461 C2424 0.930 . S
H2462 C2430 0.929 . S
H2463 C2431 0.930 . S
Li2464 N2481 1.990 . S
Li2464 O2524 1.956 . S
Li2464 O2525 1.970 . S
Li2464 O2526 1.961 . S
Li2465 N2489 1.990 . S
Li2465 O2524 1.970 . S
Li2465 O2525 1.956 . S
Li2465 O2527 1.961 . S
Li2466 N2511 1.990 . S
Li2466 O2524 1.961 . S
Li2466 O2526 1.956 . S
Li2466 O2527 1.970 . S
Li2467 N2517 1.990 . S
Li2467 O2525 1.961 . S
Li2467 O2526 1.970 . S
Li2467 O2527 1.956 . S
C2468 C2470 1.348 . S
C2468 C2471 1.356 . S
C2468 O2524 1.325 . S
N2469 C2472 1.314 . S
N2469 C2473 1.279 . S
C2470 C2468 1.348 . S
C2470 C2472 1.353 . S
C2470 H2528 0.929 . S
C2471 C2468 1.356 . S
C2471 C2473 1.358 . S
C2471 H2529 0.930 . S
C2472 N2469 1.314 . S
C2472 C2470 1.353 . S
C2472 H2530 0.930 . S
C2473 N2469 1.279 . S
C2473 C2471 1.358 . S
C2473 H2531 0.930 . S
C2474 C2477 1.348 . S
C2474 C2478 1.356 . S
C2474 O2525 1.325 . S
C2475 N2476 1.279 . S
C2475 C2478 1.358 . S
C2475 H2532 0.930 . S
N2476 C2475 1.279 . S
N2476 C2479 1.314 . S
C2477 C2474 1.348 . S
C2477 C2479 1.353 . S
C2477 H2533 0.929 . S
C2478 C2474 1.356 . S
C2478 C2475 1.358 . S
C2478 H2534 0.930 . S
C2479 N2476 1.314 . S
C2479 C2477 1.353 . S
C2479 H2535 0.930 . S
C2480 N2481 1.314 . S
C2480 C2485 1.353 . S
C2480 H2486 0.930 . S
N2481 Li2464 1.990 . S
N2481 C2480 1.314 . S
N2481 C2483 1.279 . S
C2482 C2483 1.358 . S
C2482 C2484 1.356 . S
C2482 H2536 0.930 . S
C2483 N2481 1.279 . S
C2483 C2482 1.358 . S
C2483 H2487 0.930 . S
C2484 C2482 1.356 . S
C2484 C2485 1.348 . S
C2485 C2480 1.353 . S
C2485 C2484 1.348 . S
C2485 H2537 0.929 . S
H2486 C2480 0.930 . S
H2487 C2483 0.930 . S
C2488 N2489 1.314 . S
C2488 C2490 1.353 1_455 S
C2488 H2494 0.930 . S
N2489 Li2465 1.990 . S
N2489 C2488 1.314 . S
N2489 C2492 1.279 . S
C2490 C2488 1.353 1_655 S
C2490 C2493 1.348 . S
C2490 H2538 0.929 . S
C2491 C2492 1.358 1_655 S
C2491 C2493 1.356 . S
C2491 H2539 0.930 . S
C2492 N2489 1.279 . S
C2492 C2491 1.358 1_455 S
C2492 H2495 0.930 . S
C2493 C2490 1.348 . S
C2493 C2491 1.356 . S
H2494 C2488 0.930 . S
H2495 C2492 0.930 . S
C2496 C2498 1.348 . S
C2496 C2499 1.356 . S
C2496 O2526 1.325 . S
N2497 C2500 1.314 . S
N2497 C2501 1.279 . S
C2498 C2496 1.348 . S
C2498 C2500 1.353 . S
C2498 H2540 0.929 . S
C2499 C2496 1.356 . S
C2499 C2501 1.358 . S
C2499 H2541 0.930 . S
C2500 N2497 1.314 . S
C2500 C2498 1.353 . S
C2500 H2542 0.930 . S
C2501 N2497 1.279 . S
C2501 C2499 1.358 . S
C2501 H2543 0.930 . S
C2502 C2503 1.348 . S
C2502 C2504 1.356 . S
C2502 O2527 1.325 . S
C2503 C2502 1.348 . S
C2503 C2505 1.353 . S
C2503 H2544 0.929 . S
C2504 C2502 1.356 . S
C2504 C2506 1.358 . S
C2504 H2545 0.930 . S
C2505 C2503 1.353 . S
C2505 N2507 1.314 . S
C2505 H2546 0.930 . S
C2506 C2504 1.358 . S
C2506 N2507 1.279 . S
C2506 H2547 0.930 . S
N2507 C2505 1.314 . S
N2507 C2506 1.279 . S
C2508 C2510 1.353 . S
C2508 N2511 1.314 . S
C2508 H2514 0.930 . S
C2509 N2511 1.279 . S
C2509 C2512 1.358 . S
C2509 H2515 0.930 . S
C2510 C2508 1.353 . S
C2510 C2513 1.348 . S
C2510 H2548 0.929 . S
N2511 Li2466 1.990 . S
N2511 C2508 1.314 . S
N2511 C2509 1.279 . S
C2512 C2509 1.358 . S
C2512 C2513 1.356 . S
C2512 H2549 0.930 . S
C2513 C2510 1.348 . S
C2513 C2512 1.356 . S
H2514 C2508 0.930 . S
H2515 C2509 0.930 . S
C2516 N2517 1.314 . S
C2516 C2518 1.353 . S
C2516 H2522 0.930 . S
N2517 Li2467 1.990 . S
N2517 C2516 1.314 . S
N2517 C2520 1.279 . S
C2518 C2516 1.353 . S
C2518 C2521 1.348 . S
C2518 H2550 0.929 . S
C2519 C2520 1.358 . S
C2519 C2521 1.356 . S
C2519 H2551 0.930 . S
C2520 N2517 1.279 . S
C2520 C2519 1.358 . S
C2520 H2523 0.930 . S
C2521 C2518 1.348 . S
C2521 C2519 1.356 . S
H2522 C2516 0.930 . S
H2523 C2520 0.930 . S
O2524 Li2464 1.956 . S
O2524 Li2465 1.970 . S
O2524 Li2466 1.961 . S
O2524 C2468 1.325 . S
O2525 Li2464 1.970 . S
O2525 Li2465 1.956 . S
O2525 Li2467 1.961 . S
O2525 C2474 1.325 . S
O2526 Li2464 1.961 . S
O2526 Li2466 1.956 . S
O2526 Li2467 1.970 . S
O2526 C2496 1.325 . S
O2527 Li2465 1.961 . S
O2527 Li2466 1.970 . S
O2527 Li2467 1.956 . S
O2527 C2502 1.325 . S
H2528 C2470 0.929 . S
H2529 C2471 0.930 . S
H2530 C2472 0.930 . S
H2531 C2473 0.930 . S
H2532 C2475 0.930 . S
H2533 C2477 0.929 . S
H2534 C2478 0.930 . S
H2535 C2479 0.930 . S
H2536 C2482 0.930 . S
H2537 C2485 0.929 . S
H2538 C2490 0.929 . S
H2539 C2491 0.930 . S
H2540 C2498 0.929 . S
H2541 C2499 0.930 . S
H2542 C2500 0.930 . S
H2543 C2501 0.930 . S
H2544 C2503 0.929 . S
H2545 C2504 0.930 . S
H2546 C2505 0.930 . S
H2547 C2506 0.930 . S
H2548 C2510 0.929 . S
H2549 C2512 0.930 . S
H2550 C2518 0.929 . S
H2551 C2519 0.930 . S
Li2552 N2569 1.990 . S
Li2552 O2612 1.956 . S
Li2552 O2613 1.970 . S
Li2552 O2614 1.961 . S
Li2553 N2577 1.990 . S
Li2553 O2612 1.970 . S
Li2553 O2613 1.956 . S
Li2553 O2615 1.961 . S
Li2554 N2599 1.990 . S
Li2554 O2612 1.961 . S
Li2554 O2614 1.956 . S
Li2554 O2615 1.970 . S
Li2555 N2605 1.990 . S
Li2555 O2613 1.961 . S
Li2555 O2614 1.970 . S
Li2555 O2615 1.956 . S
C2556 C2558 1.348 . S
C2556 C2559 1.356 . S
C2556 O2612 1.325 . S
N2557 C2560 1.314 . S
N2557 C2561 1.279 . S
C2558 C2556 1.348 . S
C2558 C2560 1.353 . S
C2558 H2616 0.929 . S
C2559 C2556 1.356 . S
C2559 C2561 1.358 . S
C2559 H2617 0.930 . S
C2560 N2557 1.314 . S
C2560 C2558 1.353 . S
C2560 H2618 0.930 . S
C2561 N2557 1.279 . S
C2561 C2559 1.358 . S
C2561 H2619 0.930 . S
C2562 C2565 1.348 . S
C2562 C2566 1.356 . S
C2562 O2613 1.325 . S
C2563 N2564 1.279 . S
C2563 C2566 1.358 . S
C2563 H2620 0.930 . S
N2564 C2563 1.279 . S
N2564 C2567 1.314 . S
C2565 C2562 1.348 . S
C2565 C2567 1.353 . S
C2565 H2621 0.929 . S
C2566 C2562 1.356 . S
C2566 C2563 1.358 . S
C2566 H2622 0.930 . S
C2567 N2564 1.314 . S
C2567 C2565 1.353 . S
C2567 H2623 0.930 . S
C2568 N2569 1.314 . S
C2568 C2573 1.353 . S
C2568 H2574 0.930 . S
N2569 Li2552 1.990 . S
N2569 C2568 1.314 . S
N2569 C2571 1.279 . S
C2570 C2571 1.358 . S
C2570 C2572 1.356 . S
C2570 H2624 0.930 . S
C2571 N2569 1.279 . S
C2571 C2570 1.358 . S
C2571 H2575 0.930 . S
C2572 C2570 1.356 . S
C2572 C2573 1.348 . S
C2573 C2568 1.353 . S
C2573 C2572 1.348 . S
C2573 H2625 0.929 . S
H2574 C2568 0.930 . S
H2575 C2571 0.930 . S
C2576 N2577 1.314 . S
C2576 C2578 1.353 . S
C2576 H2582 0.930 . S
N2577 Li2553 1.990 . S
N2577 C2576 1.314 . S
N2577 C2580 1.279 . S
C2578 C2576 1.353 . S
C2578 C2581 1.348 . S
C2578 H2626 0.929 . S
C2579 C2580 1.358 . S
C2579 C2581 1.356 . S
C2579 H2627 0.930 . S
C2580 N2577 1.279 . S
C2580 C2579 1.358 . S
C2580 H2583 0.930 . S
C2581 C2578 1.348 . S
C2581 C2579 1.356 . S
H2582 C2576 0.930 . S
H2583 C2580 0.930 . S
C2584 C2586 1.348 . S
C2584 C2587 1.356 . S
C2584 O2614 1.325 . S
N2585 C2588 1.314 . S
N2585 C2589 1.279 . S
C2586 C2584 1.348 . S
C2586 C2588 1.353 . S
C2586 H2628 0.929 . S
C2587 C2584 1.356 . S
C2587 C2589 1.358 . S
C2587 H2629 0.930 . S
C2588 N2585 1.314 . S
C2588 C2586 1.353 . S
C2588 H2630 0.930 . S
C2589 N2585 1.279 . S
C2589 C2587 1.358 . S
C2589 H2631 0.930 . S
C2590 C2591 1.348 . S
C2590 C2592 1.356 . S
C2590 O2615 1.325 . S
C2591 C2590 1.348 . S
C2591 C2593 1.353 . S
C2591 H2632 0.929 . S
C2592 C2590 1.356 . S
C2592 C2594 1.358 . S
C2592 H2633 0.930 . S
C2593 C2591 1.353 . S
C2593 N2595 1.314 . S
C2593 H2634 0.930 . S
C2594 C2592 1.358 . S
C2594 N2595 1.279 . S
C2594 H2635 0.930 . S
N2595 C2593 1.314 . S
N2595 C2594 1.279 . S
C2596 C2598 1.353 . S
C2596 N2599 1.314 . S
C2596 H2602 0.930 . S
C2597 N2599 1.279 . S
C2597 C2600 1.358 . S
C2597 H2603 0.930 . S
C2598 C2596 1.353 . S
C2598 C2601 1.348 . S
C2598 H2636 0.929 . S
N2599 Li2554 1.990 . S
N2599 C2596 1.314 . S
N2599 C2597 1.279 . S
C2600 C2597 1.358 . S
C2600 C2601 1.356 . S
C2600 H2637 0.930 . S
C2601 C2598 1.348 . S
C2601 C2600 1.356 . S
H2602 C2596 0.930 . S
H2603 C2597 0.930 . S
C2604 N2605 1.314 . S
C2604 C2606 1.353 . S
C2604 H2610 0.930 . S
N2605 Li2555 1.990 . S
N2605 C2604 1.314 . S
N2605 C2608 1.279 . S
C2606 C2604 1.353 . S
C2606 C2609 1.348 . S
C2606 H2638 0.929 . S
C2607 C2608 1.358 . S
C2607 C2609 1.356 . S
C2607 H2639 0.930 . S
C2608 N2605 1.279 . S
C2608 C2607 1.358 . S
C2608 H2611 0.930 . S
C2609 C2606 1.348 . S
C2609 C2607 1.356 . S
H2610 C2604 0.930 . S
H2611 C2608 0.930 . S
O2612 Li2552 1.956 . S
O2612 Li2553 1.970 . S
O2612 Li2554 1.961 . S
O2612 C2556 1.325 . S
O2613 Li2552 1.970 . S
O2613 Li2553 1.956 . S
O2613 Li2555 1.961 . S
O2613 C2562 1.325 . S
O2614 Li2552 1.961 . S
O2614 Li2554 1.956 . S
O2614 Li2555 1.970 . S
O2614 C2584 1.325 . S
O2615 Li2553 1.961 . S
O2615 Li2554 1.970 . S
O2615 Li2555 1.956 . S
O2615 C2590 1.325 . S
H2616 C2558 0.929 . S
H2617 C2559 0.930 . S
H2618 C2560 0.930 . S
H2619 C2561 0.930 . S
H2620 C2563 0.930 . S
H2621 C2565 0.929 . S
H2622 C2566 0.930 . S
H2623 C2567 0.930 . S
H2624 C2570 0.930 . S
H2625 C2573 0.929 . S
H2626 C2578 0.929 . S
H2627 C2579 0.930 . S
H2628 C2586 0.929 . S
H2629 C2587 0.930 . S
H2630 C2588 0.930 . S
H2631 C2589 0.930 . S
H2632 C2591 0.929 . S
H2633 C2592 0.930 . S
H2634 C2593 0.930 . S
H2635 C2594 0.930 . S
H2636 C2598 0.929 . S
H2637 C2600 0.930 . S
H2638 C2606 0.929 . S
H2639 C2607 0.930 . S
Li2640 N2657 1.990 . S
Li2640 O2700 1.956 . S
Li2640 O2701 1.970 . S
Li2640 O2702 1.961 . S
Li2641 N2665 1.990 . S
Li2641 O2700 1.970 . S
Li2641 O2701 1.956 . S
Li2641 O2703 1.961 . S
Li2642 N2687 1.990 . S
Li2642 O2700 1.961 . S
Li2642 O2702 1.956 . S
Li2642 O2703 1.970 . S
Li2643 N2693 1.990 . S
Li2643 O2701 1.961 . S
Li2643 O2702 1.970 . S
Li2643 O2703 1.956 . S
C2644 C2646 1.348 . S
C2644 C2647 1.356 . S
C2644 O2700 1.325 . S
N2645 C2648 1.314 . S
N2645 C2649 1.279 . S
C2646 C2644 1.348 . S
C2646 C2648 1.353 . S
C2646 H2704 0.929 . S
C2647 C2644 1.356 . S
C2647 C2649 1.358 . S
C2647 H2705 0.930 . S
C2648 N2645 1.314 . S
C2648 C2646 1.353 . S
C2648 H2706 0.930 . S
C2649 N2645 1.279 . S
C2649 C2647 1.358 . S
C2649 H2707 0.930 . S
C2650 C2653 1.348 . S
C2650 C2654 1.356 . S
C2650 O2701 1.325 . S
C2651 N2652 1.279 . S
C2651 C2654 1.358 . S
C2651 H2708 0.930 . S
N2652 C2651 1.279 . S
N2652 C2655 1.314 . S
C2653 C2650 1.348 . S
C2653 C2655 1.353 . S
C2653 H2709 0.929 . S
C2654 C2650 1.356 . S
C2654 C2651 1.358 . S
C2654 H2710 0.930 . S
C2655 N2652 1.314 . S
C2655 C2653 1.353 . S
C2655 H2711 0.930 . S
C2656 N2657 1.314 . S
C2656 C2661 1.353 . S
C2656 H2662 0.930 . S
N2657 Li2640 1.990 . S
N2657 C2656 1.314 . S
N2657 C2659 1.279 . S
C2658 C2659 1.358 . S
C2658 C2660 1.356 . S
C2658 H2712 0.930 . S
C2659 N2657 1.279 . S
C2659 C2658 1.358 . S
C2659 H2663 0.930 . S
C2660 C2658 1.356 . S
C2660 C2661 1.348 . S
C2661 C2656 1.353 . S
C2661 C2660 1.348 . S
C2661 H2713 0.929 . S
H2662 C2656 0.930 . S
H2663 C2659 0.930 . S
C2664 N2665 1.314 . S
C2664 C2666 1.353 . S
C2664 H2670 0.930 . S
N2665 Li2641 1.990 . S
N2665 C2664 1.314 . S
N2665 C2668 1.279 . S
C2666 C2664 1.353 . S
C2666 C2669 1.348 . S
C2666 H2714 0.929 . S
C2667 C2668 1.358 . S
C2667 C2669 1.356 . S
C2667 H2715 0.930 . S
C2668 N2665 1.279 . S
C2668 C2667 1.358 . S
C2668 H2671 0.930 . S
C2669 C2666 1.348 . S
C2669 C2667 1.356 . S
H2670 C2664 0.930 . S
H2671 C2668 0.930 . S
C2672 C2674 1.348 . S
C2672 C2675 1.356 . S
C2672 O2702 1.325 . S
N2673 C2676 1.314 . S
N2673 C2677 1.279 . S
C2674 C2672 1.348 . S
C2674 C2676 1.353 . S
C2674 H2716 0.929 . S
C2675 C2672 1.356 . S
C2675 C2677 1.358 . S
C2675 H2717 0.930 . S
C2676 N2673 1.314 . S
C2676 C2674 1.353 . S
C2676 H2718 0.930 . S
C2677 N2673 1.279 . S
C2677 C2675 1.358 . S
C2677 H2719 0.930 . S
C2678 C2679 1.348 . S
C2678 C2680 1.356 . S
C2678 O2703 1.325 . S
C2679 C2678 1.348 . S
C2679 C2681 1.353 . S
C2679 H2720 0.929 . S
C2680 C2678 1.356 . S
C2680 C2682 1.358 . S
C2680 H2721 0.930 . S
C2681 C2679 1.353 . S
C2681 N2683 1.314 . S
C2681 H2722 0.930 . S
C2682 C2680 1.358 . S
C2682 N2683 1.279 . S
C2682 H2723 0.930 . S
N2683 C2681 1.314 . S
N2683 C2682 1.279 . S
C2684 C2686 1.353 . S
C2684 N2687 1.314 . S
C2684 H2690 0.930 . S
C2685 N2687 1.279 . S
C2685 C2688 1.358 . S
C2685 H2691 0.930 . S
C2686 C2684 1.353 . S
C2686 C2689 1.348 . S
C2686 H2724 0.929 . S
N2687 Li2642 1.990 . S
N2687 C2684 1.314 . S
N2687 C2685 1.279 . S
C2688 C2685 1.358 . S
C2688 C2689 1.356 . S
C2688 H2725 0.930 . S
C2689 C2686 1.348 . S
C2689 C2688 1.356 . S
H2690 C2684 0.930 . S
H2691 C2685 0.930 . S
C2692 N2693 1.314 . S
C2692 C2694 1.353 . S
C2692 H2698 0.930 . S
N2693 Li2643 1.990 . S
N2693 C2692 1.314 . S
N2693 C2696 1.279 . S
C2694 C2692 1.353 . S
C2694 C2697 1.348 . S
C2694 H2726 0.929 . S
C2695 C2696 1.358 . S
C2695 C2697 1.356 . S
C2695 H2727 0.930 . S
C2696 N2693 1.279 . S
C2696 C2695 1.358 . S
C2696 H2699 0.930 . S
C2697 C2694 1.348 . S
C2697 C2695 1.356 . S
H2698 C2692 0.930 . S
H2699 C2696 0.930 . S
O2700 Li2640 1.956 . S
O2700 Li2641 1.970 . S
O2700 Li2642 1.961 . S
O2700 C2644 1.325 . S
O2701 Li2640 1.970 . S
O2701 Li2641 1.956 . S
O2701 Li2643 1.961 . S
O2701 C2650 1.325 . S
O2702 Li2640 1.961 . S
O2702 Li2642 1.956 . S
O2702 Li2643 1.970 . S
O2702 C2672 1.325 . S
O2703 Li2641 1.961 . S
O2703 Li2642 1.970 . S
O2703 Li2643 1.956 . S
O2703 C2678 1.325 . S
H2704 C2646 0.929 . S
H2705 C2647 0.930 . S
H2706 C2648 0.930 . S
H2707 C2649 0.930 . S
H2708 C2651 0.930 . S
H2709 C2653 0.929 . S
H2710 C2654 0.930 . S
H2711 C2655 0.930 . S
H2712 C2658 0.930 . S
H2713 C2661 0.929 . S
H2714 C2666 0.929 . S
H2715 C2667 0.930 . S
H2716 C2674 0.929 . S
H2717 C2675 0.930 . S
H2718 C2676 0.930 . S
H2719 C2677 0.930 . S
H2720 C2679 0.929 . S
H2721 C2680 0.930 . S
H2722 C2681 0.930 . S
H2723 C2682 0.930 . S
H2724 C2686 0.929 . S
H2725 C2688 0.930 . S
H2726 C2694 0.929 . S
H2727 C2695 0.930 . S
Li2728 N2745 1.990 . S
Li2728 O2788 1.956 . S
Li2728 O2789 1.970 . S
Li2728 O2790 1.961 . S
Li2729 N2753 1.990 . S
Li2729 O2788 1.970 . S
Li2729 O2789 1.956 . S
Li2729 O2791 1.961 . S
Li2730 N2775 1.990 . S
Li2730 O2788 1.961 . S
Li2730 O2790 1.956 . S
Li2730 O2791 1.970 . S
Li2731 N2781 1.990 . S
Li2731 O2789 1.961 . S
Li2731 O2790 1.970 . S
Li2731 O2791 1.956 . S
C2732 C2734 1.348 . S
C2732 C2735 1.356 . S
C2732 O2788 1.325 . S
N2733 C2736 1.314 . S
N2733 C2737 1.279 . S
C2734 C2732 1.348 . S
C2734 C2736 1.353 . S
C2734 H2792 0.929 . S
C2735 C2732 1.356 . S
C2735 C2737 1.358 . S
C2735 H2793 0.930 . S
C2736 N2733 1.314 . S
C2736 C2734 1.353 . S
C2736 H2794 0.930 . S
C2737 N2733 1.279 . S
C2737 C2735 1.358 . S
C2737 H2795 0.930 . S
C2738 C2741 1.348 . S
C2738 C2742 1.356 . S
C2738 O2789 1.325 . S
C2739 N2740 1.279 . S
C2739 C2742 1.358 . S
C2739 H2796 0.930 . S
N2740 C2739 1.279 . S
N2740 C2743 1.314 . S
C2741 C2738 1.348 . S
C2741 C2743 1.353 . S
C2741 H2797 0.929 . S
C2742 C2738 1.356 . S
C2742 C2739 1.358 . S
C2742 H2798 0.930 . S
C2743 N2740 1.314 . S
C2743 C2741 1.353 . S
C2743 H2799 0.930 . S
C2744 N2745 1.314 . S
C2744 C2749 1.353 . S
C2744 H2750 0.930 . S
N2745 Li2728 1.990 . S
N2745 C2744 1.314 . S
N2745 C2747 1.279 . S
C2746 C2747 1.358 . S
C2746 C2748 1.356 . S
C2746 H2800 0.930 . S
C2747 N2745 1.279 . S
C2747 C2746 1.358 . S
C2747 H2751 0.930 . S
C2748 C2746 1.356 . S
C2748 C2749 1.348 . S
C2749 C2744 1.353 . S
C2749 C2748 1.348 . S
C2749 H2801 0.929 . S
H2750 C2744 0.930 . S
H2751 C2747 0.930 . S
C2752 N2753 1.314 . S
C2752 C2754 1.353 . S
C2752 H2758 0.930 . S
N2753 Li2729 1.990 . S
N2753 C2752 1.314 . S
N2753 C2756 1.279 . S
C2754 C2752 1.353 . S
C2754 C2757 1.348 . S
C2754 H2802 0.929 . S
C2755 C2756 1.358 . S
C2755 C2757 1.356 . S
C2755 H2803 0.930 . S
C2756 N2753 1.279 . S
C2756 C2755 1.358 . S
C2756 H2759 0.930 . S
C2757 C2754 1.348 . S
C2757 C2755 1.356 . S
H2758 C2752 0.930 . S
H2759 C2756 0.930 . S
C2760 C2762 1.348 . S
C2760 C2763 1.356 . S
C2760 O2790 1.325 . S
N2761 C2764 1.314 . S
N2761 C2765 1.279 . S
C2762 C2760 1.348 . S
C2762 C2764 1.353 . S
C2762 H2804 0.929 . S
C2763 C2760 1.356 . S
C2763 C2765 1.358 . S
C2763 H2805 0.930 . S
C2764 N2761 1.314 . S
C2764 C2762 1.353 . S
C2764 H2806 0.930 . S
C2765 N2761 1.279 . S
C2765 C2763 1.358 . S
C2765 H2807 0.930 . S
C2766 C2767 1.348 . S
C2766 C2768 1.356 . S
C2766 O2791 1.325 . S
C2767 C2766 1.348 . S
C2767 C2769 1.353 . S
C2767 H2808 0.929 . S
C2768 C2766 1.356 . S
C2768 C2770 1.358 . S
C2768 H2809 0.930 . S
C2769 C2767 1.353 . S
C2769 N2771 1.314 . S
C2769 H2810 0.930 . S
C2770 C2768 1.358 . S
C2770 N2771 1.279 . S
C2770 H2811 0.930 . S
N2771 C2769 1.314 . S
N2771 C2770 1.279 . S
C2772 C2774 1.353 . S
C2772 N2775 1.314 . S
C2772 H2778 0.930 . S
C2773 N2775 1.279 . S
C2773 C2776 1.358 . S
C2773 H2779 0.930 . S
C2774 C2772 1.353 . S
C2774 C2777 1.348 . S
C2774 H2812 0.929 . S
N2775 Li2730 1.990 . S
N2775 C2772 1.314 . S
N2775 C2773 1.279 . S
C2776 C2773 1.358 . S
C2776 C2777 1.356 . S
C2776 H2813 0.930 . S
C2777 C2774 1.348 . S
C2777 C2776 1.356 . S
H2778 C2772 0.930 . S
H2779 C2773 0.930 . S
C2780 N2781 1.314 . S
C2780 C2782 1.353 . S
C2780 H2786 0.930 . S
N2781 Li2731 1.990 . S
N2781 C2780 1.314 . S
N2781 C2784 1.279 . S
C2782 C2780 1.353 . S
C2782 C2785 1.348 . S
C2782 H2814 0.929 . S
C2783 C2784 1.358 . S
C2783 C2785 1.356 . S
C2783 H2815 0.930 . S
C2784 N2781 1.279 . S
C2784 C2783 1.358 . S
C2784 H2787 0.930 . S
C2785 C2782 1.348 . S
C2785 C2783 1.356 . S
H2786 C2780 0.930 . S
H2787 C2784 0.930 . S
O2788 Li2728 1.956 . S
O2788 Li2729 1.970 . S
O2788 Li2730 1.961 . S
O2788 C2732 1.325 . S
O2789 Li2728 1.970 . S
O2789 Li2729 1.956 . S
O2789 Li2731 1.961 . S
O2789 C2738 1.325 . S
O2790 Li2728 1.961 . S
O2790 Li2730 1.956 . S
O2790 Li2731 1.970 . S
O2790 C2760 1.325 . S
O2791 Li2729 1.961 . S
O2791 Li2730 1.970 . S
O2791 Li2731 1.956 . S
O2791 C2766 1.325 . S
H2792 C2734 0.929 . S
H2793 C2735 0.930 . S
H2794 C2736 0.930 . S
H2795 C2737 0.930 . S
H2796 C2739 0.930 . S
H2797 C2741 0.929 . S
H2798 C2742 0.930 . S
H2799 C2743 0.930 . S
H2800 C2746 0.930 . S
H2801 C2749 0.929 . S
H2802 C2754 0.929 . S
H2803 C2755 0.930 . S
H2804 C2762 0.929 . S
H2805 C2763 0.930 . S
H2806 C2764 0.930 . S
H2807 C2765 0.930 . S
H2808 C2767 0.929 . S
H2809 C2768 0.930 . S
H2810 C2769 0.930 . S
H2811 C2770 0.930 . S
H2812 C2774 0.929 . S
H2813 C2776 0.930 . S
H2814 C2782 0.929 . S
H2815 C2783 0.930 . S
C2816 C2817 1.369 1_545 S
C2816 C2818 1.419 . S
C2816 H2820 0.930 . S
C2817 C2816 1.369 1_565 S
C2817 C2826 1.429 . S
C2818 C2816 1.419 . S
C2818 C2819 1.363 . S
C2818 H2821 0.929 . S
C2819 C2818 1.363 . S
C2819 C2825 1.428 1_545 S
H2820 C2816 0.930 . S
H2821 C2818 0.929 . S
S2822 N2823 1.613 . S
S2822 N2824 1.610 . S
N2823 S2822 1.613 . S
N2823 C2826 1.350 . S
N2824 S2822 1.610 . S
N2824 C2825 1.351 . S
C2825 C2819 1.428 1_565 S
C2825 N2824 1.351 . S
C2825 C2826 1.434 . S
C2826 C2817 1.429 . S
C2826 N2823 1.350 . S
C2826 C2825 1.434 . S
C2827 C2828 1.369 . S
C2827 C2829 1.419 . S
C2827 H2831 0.930 . S
C2828 C2827 1.369 . S
C2828 C2837 1.429 . S
C2829 C2827 1.419 . S
C2829 C2830 1.363 . S
C2829 H2832 0.929 . S
C2830 C2829 1.363 . S
C2830 C2836 1.428 . S
H2831 C2827 0.930 . S
H2832 C2829 0.929 . S
S2833 N2834 1.613 . S
S2833 N2835 1.610 . S
N2834 S2833 1.613 . S
N2834 C2837 1.350 . S
N2835 S2833 1.610 . S
N2835 C2836 1.351 . S
C2836 C2830 1.428 . S
C2836 N2835 1.351 . S
C2836 C2837 1.434 . S
C2837 C2828 1.429 . S
C2837 N2834 1.350 . S
C2837 C2836 1.434 . S
C2838 C2839 1.369 . S
C2838 C2840 1.419 . S
C2838 H2842 0.930 . S
C2839 C2838 1.369 . S
C2839 C2848 1.429 1_545 S
C2840 C2838 1.419 . S
C2840 C2841 1.363 1_545 S
C2840 H2843 0.929 . S
C2841 C2840 1.363 1_565 S
C2841 C2847 1.428 . S
H2842 C2838 0.930 . S
H2843 C2840 0.929 . S
S2844 N2845 1.613 . S
S2844 N2846 1.610 . S
N2845 S2844 1.613 . S
N2845 C2848 1.350 . S
N2846 S2844 1.610 . S
N2846 C2847 1.351 . S
C2847 C2841 1.428 . S
C2847 N2846 1.351 . S
C2847 C2848 1.434 . S
C2848 C2839 1.429 1_565 S
C2848 N2845 1.350 . S
C2848 C2847 1.434 . S
C2849 C2850 1.369 . S
C2849 C2851 1.419 1_556 S
C2849 H2853 0.930 . S
C2850 C2849 1.369 . S
C2850 C2859 1.429 . S
C2851 C2849 1.419 1_554 S
C2851 C2852 1.363 . S
C2851 H2854 0.929 . S
C2852 C2851 1.363 . S
C2852 C2858 1.428 . S
H2853 C2849 0.930 . S
H2854 C2851 0.929 . S
S2855 N2856 1.613 1_554 S
S2855 N2857 1.610 . S
N2856 S2855 1.613 1_556 S
N2856 C2859 1.350 . S
N2857 S2855 1.610 . S
N2857 C2858 1.351 . S
C2858 C2852 1.428 . S
C2858 N2857 1.351 . S
C2858 C2859 1.434 1_554 S
C2859 C2850 1.429 . S
C2859 N2856 1.350 . S
C2859 C2858 1.434 1_556 S
C2860 C2861 1.369 . S
C2860 C2862 1.419 . S
C2860 H2864 0.930 . S
C2861 C2860 1.369 . S
C2861 C2870 1.429 1_565 S
C2862 C2860 1.419 . S
C2862 C2863 1.363 1_565 S
C2862 H2865 0.929 . S
C2863 C2862 1.363 1_545 S
C2863 C2869 1.428 . S
H2864 C2860 0.930 . S
H2865 C2862 0.929 . S
S2866 N2867 1.613 . S
S2866 N2868 1.610 . S
N2867 S2866 1.613 . S
N2867 C2870 1.350 . S
N2868 S2866 1.610 . S
N2868 C2869 1.351 . S
C2869 C2863 1.428 . S
C2869 N2868 1.351 . S
C2869 C2870 1.434 . S
C2870 C2861 1.429 1_545 S
C2870 N2867 1.350 . S
C2870 C2869 1.434 . S
C2871 C2872 1.369 . S
C2871 C2873 1.419 . S
C2871 H2875 0.930 . S
C2872 C2871 1.369 . S
C2872 C2881 1.429 . S
C2873 C2871 1.419 . S
C2873 C2874 1.363 . S
C2873 H2876 0.929 . S
C2874 C2873 1.363 . S
C2874 C2880 1.428 . S
H2875 C2871 0.930 . S
H2876 C2873 0.929 . S
S2877 N2878 1.613 . S
S2877 N2879 1.610 . S
N2878 S2877 1.613 . S
N2878 C2881 1.350 . S
N2879 S2877 1.610 . S
N2879 C2880 1.351 . S
C2880 C2874 1.428 . S
C2880 N2879 1.351 . S
C2880 C2881 1.434 . S
C2881 C2872 1.429 . S
C2881 N2878 1.350 . S
C2881 C2880 1.434 . S
C2882 C2883 1.369 . S
C2882 C2884 1.419 . S
C2882 H2886 0.930 . S
C2883 C2882 1.369 . S
C2883 C2892 1.429 1_545 S
C2884 C2882 1.419 . S
C2884 C2885 1.363 1_545 S
C2884 H2887 0.929 . S
C2885 C2884 1.363 1_565 S
C2885 C2891 1.428 . S
H2886 C2882 0.930 . S
H2887 C2884 0.929 . S
S2888 N2889 1.613 . S
S2888 N2890 1.610 . S
N2889 S2888 1.613 . S
N2889 C2892 1.350 . S
N2890 S2888 1.610 . S
N2890 C2891 1.351 . S
C2891 C2885 1.428 . S
C2891 N2890 1.351 . S
C2891 C2892 1.434 . S
C2892 C2883 1.429 1_565 S
C2892 N2889 1.350 . S
C2892 C2891 1.434 . S
C2893 C2894 1.369 . S
C2893 C2895 1.419 1_556 S
C2893 H2897 0.930 . S
C2894 C2893 1.369 . S
C2894 C2903 1.429 . S
C2895 C2893 1.419 1_554 S
C2895 C2896 1.363 . S
C2895 H2898 0.929 . S
C2896 C2895 1.363 . S
C2896 C2902 1.428 . S
H2897 C2893 0.930 . S
H2898 C2895 0.929 . S
S2899 N2900 1.613 . S
S2899 N2901 1.610 1_556 S
N2900 S2899 1.613 . S
N2900 C2903 1.350 . S
N2901 S2899 1.610 1_554 S
N2901 C2902 1.351 . S
C2902 C2896 1.428 . S
C2902 N2901 1.351 . S
C2902 C2903 1.434 1_554 S
C2903 C2894 1.429 . S
C2903 N2900 1.350 . S
C2903 C2902 1.434 1_556 S
C2904 C2905 1.369 . S
C2904 C2906 1.419 . S
C2904 H2908 0.930 . S
C2905 C2904 1.369 . S
C2905 C2914 1.429 . S
C2906 C2904 1.419 . S
C2906 C2907 1.363 . S
C2906 H2909 0.929 . S
C2907 C2906 1.363 . S
C2907 C2913 1.428 . S
H2908 C2904 0.930 . S
H2909 C2906 0.929 . S
S2910 N2911 1.613 . S
S2910 N2912 1.610 . S
N2911 S2910 1.613 . S
N2911 C2914 1.350 . S
N2912 S2910 1.610 . S
N2912 C2913 1.351 . S
C2913 C2907 1.428 . S
C2913 N2912 1.351 . S
C2913 C2914 1.434 . S
C2914 C2905 1.429 . S
C2914 N2911 1.350 . S
C2914 C2913 1.434 . S
C2915 C2916 1.369 . S
C2915 C2917 1.419 1_554 S
C2915 H2919 0.930 . S
C2916 C2915 1.369 . S
C2916 C2925 1.429 . S
C2917 C2915 1.419 1_556 S
C2917 C2918 1.363 . S
C2917 H2920 0.929 . S
C2918 C2917 1.363 . S
C2918 C2924 1.428 . S
H2919 C2915 0.930 . S
H2920 C2917 0.929 . S
S2921 N2922 1.613 1_556 S
S2921 N2923 1.610 . S
N2922 S2921 1.613 1_554 S
N2922 C2925 1.350 . S
N2923 S2921 1.610 . S
N2923 C2924 1.351 . S
C2924 C2918 1.428 . S
C2924 N2923 1.351 . S
C2924 C2925 1.434 1_556 S
C2925 C2916 1.429 . S
C2925 N2922 1.350 . S
C2925 C2924 1.434 1_554 S
C2926 C2927 1.369 . S
C2926 C2928 1.419 . S
C2926 H2930 0.930 . S
C2927 C2926 1.369 . S
C2927 C2936 1.429 . S
C2928 C2926 1.419 . S
C2928 C2929 1.363 . S
C2928 H2931 0.929 . S
C2929 C2928 1.363 . S
C2929 C2935 1.428 . S
H2930 C2926 0.930 . S
H2931 C2928 0.929 . S
S2932 N2933 1.613 . S
S2932 N2934 1.610 . S
N2933 S2932 1.613 . S
N2933 C2936 1.350 . S
N2934 S2932 1.610 . S
N2934 C2935 1.351 . S
C2935 C2929 1.428 . S
C2935 N2934 1.351 . S
C2935 C2936 1.434 . S
C2936 C2927 1.429 . S
C2936 N2933 1.350 . S
C2936 C2935 1.434 . S
C2937 C2938 1.369 . S
C2937 C2939 1.419 . S
C2937 H2941 0.930 . S
C2938 C2937 1.369 . S
C2938 C2947 1.429 . S
C2939 C2937 1.419 . S
C2939 C2940 1.363 . S
C2939 H2942 0.929 . S
C2940 C2939 1.363 . S
C2940 C2946 1.428 . S
H2941 C2937 0.930 . S
H2942 C2939 0.929 . S
S2943 N2944 1.613 . S
S2943 N2945 1.610 . S
N2944 S2943 1.613 . S
N2944 C2947 1.350 . S
N2945 S2943 1.610 . S
N2945 C2946 1.351 . S
C2946 C2940 1.428 . S
C2946 N2945 1.351 . S
C2946 C2947 1.434 . S
C2947 C2938 1.429 . S
C2947 N2944 1.350 . S
C2947 C2946 1.434 . S
C2948 C2949 1.369 . S
C2948 C2950 1.419 . S
C2948 H2952 0.930 . S
C2949 C2948 1.369 . S
C2949 C2958 1.429 . S
C2950 C2948 1.419 . S
C2950 C2951 1.363 . S
C2950 H2953 0.929 . S
C2951 C2950 1.363 . S
C2951 C2957 1.428 . S
H2952 C2948 0.930 . S
H2953 C2950 0.929 . S
S2954 N2955 1.613 . S
S2954 N2956 1.610 . S
N2955 S2954 1.613 . S
N2955 C2958 1.350 . S
N2956 S2954 1.610 . S
N2956 C2957 1.351 . S
C2957 C2951 1.428 . S
C2957 N2956 1.351 . S
C2957 C2958 1.434 . S
C2958 C2949 1.429 . S
C2958 N2955 1.350 . S
C2958 C2957 1.434 . S
C2959 C2960 1.369 . S
C2959 C2961 1.419 1_554 S
C2959 H2963 0.930 . S
C2960 C2959 1.369 . S
C2960 C2969 1.429 . S
C2961 C2959 1.419 1_556 S
C2961 C2962 1.363 . S
C2961 H2964 0.929 . S
C2962 C2961 1.363 . S
C2962 C2968 1.428 . S
H2963 C2959 0.930 . S
H2964 C2961 0.929 . S
S2965 N2966 1.613 1_556 S
S2965 N2967 1.610 . S
N2966 S2965 1.613 1_554 S
N2966 C2969 1.350 . S
N2967 S2965 1.610 . S
N2967 C2968 1.351 . S
C2968 C2962 1.428 . S
C2968 N2967 1.351 . S
C2968 C2969 1.434 1_556 S
C2969 C2960 1.429 . S
C2969 N2966 1.350 . S
C2969 C2968 1.434 1_554 S
C2970 C2971 1.369 . S
C2970 C2972 1.419 . S
C2970 H2974 0.930 . S
C2971 C2970 1.369 . S
C2971 C2980 1.429 . S
C2972 C2970 1.419 . S
C2972 C2973 1.363 . S
C2972 H2975 0.929 . S
C2973 C2972 1.363 . S
C2973 C2979 1.428 . S
H2974 C2970 0.930 . S
H2975 C2972 0.929 . S
S2976 N2977 1.613 . S
S2976 N2978 1.610 . S
N2977 S2976 1.613 . S
N2977 C2980 1.350 . S
N2978 S2976 1.610 . S
N2978 C2979 1.351 . S
C2979 C2973 1.428 . S
C2979 N2978 1.351 . S
C2979 C2980 1.434 . S
C2980 C2971 1.429 . S
C2980 N2977 1.350 . S
C2980 C2979 1.434 . S
C2981 C2982 1.369 . S
C2981 C2983 1.419 . S
C2981 H2985 0.930 . S
C2982 C2981 1.369 . S
C2982 C2991 1.429 . S
C2983 C2981 1.419 . S
C2983 C2984 1.363 . S
C2983 H2986 0.929 . S
C2984 C2983 1.363 . S
C2984 C2990 1.428 . S
H2985 C2981 0.930 . S
H2986 C2983 0.929 . S
S2987 N2988 1.613 . S
S2987 N2989 1.610 . S
N2988 S2987 1.613 . S
N2988 C2991 1.350 . S
N2989 S2987 1.610 . S
N2989 C2990 1.351 . S
C2990 C2984 1.428 . S
C2990 N2989 1.351 . S
C2990 C2991 1.434 . S
C2991 C2982 1.429 . S
C2991 N2988 1.350 . S
C2991 C2990 1.434 . S
C2992 C2993 1.369 . S
C2992 C2994 1.419 . S
C2992 H2996 0.930 . S
C2993 C2992 1.369 . S
C2993 C3002 1.429 . S
C2994 C2992 1.419 . S
C2994 C2995 1.363 . S
C2994 H2997 0.929 . S
C2995 C2994 1.363 . S
C2995 C3001 1.428 . S
H2996 C2992 0.930 . S
H2997 C2994 0.929 . S
S2998 N2999 1.613 . S
S2998 N3000 1.610 . S
N2999 S2998 1.613 . S
N2999 C3002 1.350 . S
N3000 S2998 1.610 . S
N3000 C3001 1.351 . S
C3001 C2995 1.428 . S
C3001 N3000 1.351 . S
C3001 C3002 1.434 . S
C3002 C2993 1.429 . S
C3002 N2999 1.350 . S
C3002 C3001 1.434 . S
C3003 C3004 1.369 . S
C3003 C3005 1.419 . S
C3003 H3007 0.930 . S
C3004 C3003 1.369 . S
C3004 C3013 1.429 . S
C3005 C3003 1.419 . S
C3005 C3006 1.363 . S
C3005 H3008 0.929 . S
C3006 C3005 1.363 . S
C3006 C3012 1.428 . S
H3007 C3003 0.930 . S
H3008 C3005 0.929 . S
S3009 N3010 1.613 . S
S3009 N3011 1.610 . S
N3010 S3009 1.613 . S
N3010 C3013 1.350 . S
N3011 S3009 1.610 . S
N3011 C3012 1.351 . S
C3012 C3006 1.428 . S
C3012 N3011 1.351 . S
C3012 C3013 1.434 . S
C3013 C3004 1.429 . S
C3013 N3010 1.350 . S
C3013 C3012 1.434 . S
C3014 C3015 1.369 . S
C3014 C3016 1.419 . S
C3014 H3018 0.930 . S
C3015 C3014 1.369 . S
C3015 C3024 1.429 . S
C3016 C3014 1.419 . S
C3016 C3017 1.363 . S
C3016 H3019 0.929 . S
C3017 C3016 1.363 . S
C3017 C3023 1.428 . S
H3018 C3014 0.930 . S
H3019 C3016 0.929 . S
S3020 N3021 1.613 . S
S3020 N3022 1.610 . S
N3021 S3020 1.613 . S
N3021 C3024 1.350 . S
N3022 S3020 1.610 . S
N3022 C3023 1.351 . S
C3023 C3017 1.428 . S
C3023 N3022 1.351 . S
C3023 C3024 1.434 . S
C3024 C3015 1.429 . S
C3024 N3021 1.350 . S
C3024 C3023 1.434 . S
C3025 C3026 1.369 . S
C3025 C3027 1.419 . S
C3025 H3029 0.930 . S
C3026 C3025 1.369 . S
C3026 C3035 1.429 . S
C3027 C3025 1.419 . S
C3027 C3028 1.363 . S
C3027 H3030 0.929 . S
C3028 C3027 1.363 . S
C3028 C3034 1.428 . S
H3029 C3025 0.930 . S
H3030 C3027 0.929 . S
S3031 N3032 1.613 . S
S3031 N3033 1.610 . S
N3032 S3031 1.613 . S
N3032 C3035 1.350 . S
N3033 S3031 1.610 . S
N3033 C3034 1.351 . S
C3034 C3028 1.428 . S
C3034 N3033 1.351 . S
C3034 C3035 1.434 . S
C3035 C3026 1.429 . S
C3035 N3032 1.350 . S
C3035 C3034 1.434 . S
C3036 C3037 1.369 . S
C3036 C3038 1.419 . S
C3036 H3040 0.930 . S
C3037 C3036 1.369 . S
C3037 C3046 1.429 . S
C3038 C3036 1.419 . S
C3038 C3039 1.363 . S
C3038 H3041 0.929 . S
C3039 C3038 1.363 . S
C3039 C3045 1.428 . S
H3040 C3036 0.930 . S
H3041 C3038 0.929 . S
S3042 N3043 1.613 . S
S3042 N3044 1.610 . S
N3043 S3042 1.613 . S
N3043 C3046 1.350 . S
N3044 S3042 1.610 . S
N3044 C3045 1.351 . S
C3045 C3039 1.428 . S
C3045 N3044 1.351 . S
C3045 C3046 1.434 . S
C3046 C3037 1.429 . S
C3046 N3043 1.350 . S
C3046 C3045 1.434 . S
C3047 C3048 1.369 . S
C3047 C3049 1.419 . S
C3047 H3051 0.930 . S
C3048 C3047 1.369 . S
C3048 C3057 1.429 . S
C3049 C3047 1.419 . S
C3049 C3050 1.363 . S
C3049 H3052 0.929 . S
C3050 C3049 1.363 . S
C3050 C3056 1.428 . S
H3051 C3047 0.930 . S
H3052 C3049 0.929 . S
S3053 N3054 1.613 . S
S3053 N3055 1.610 . S
N3054 S3053 1.613 . S
N3054 C3057 1.350 . S
N3055 S3053 1.610 . S
N3055 C3056 1.351 . S
C3056 C3050 1.428 . S
C3056 N3055 1.351 . S
C3056 C3057 1.434 . S
C3057 C3048 1.429 . S
C3057 N3054 1.350 . S
C3057 C3056 1.434 . S
C3058 C3059 1.369 . S
C3058 C3060 1.419 . S
C3058 H3062 0.930 . S
C3059 C3058 1.369 . S
C3059 C3068 1.429 . S
C3060 C3058 1.419 . S
C3060 C3061 1.363 . S
C3060 H3063 0.929 . S
C3061 C3060 1.363 . S
C3061 C3067 1.428 . S
H3062 C3058 0.930 . S
H3063 C3060 0.929 . S
S3064 N3065 1.613 . S
S3064 N3066 1.610 . S
N3065 S3064 1.613 . S
N3065 C3068 1.350 . S
N3066 S3064 1.610 . S
N3066 C3067 1.351 . S
C3067 C3061 1.428 . S
C3067 N3066 1.351 . S
C3067 C3068 1.434 . S
C3068 C3059 1.429 . S
C3068 N3065 1.350 . S
C3068 C3067 1.434 . S
C3069 C3070 1.369 . S
C3069 C3071 1.419 . S
C3069 H3073 0.930 . S
C3070 C3069 1.369 . S
C3070 C3079 1.429 . S
C3071 C3069 1.419 . S
C3071 C3072 1.363 . S
C3071 H3074 0.929 . S
C3072 C3071 1.363 . S
C3072 C3078 1.428 . S
H3073 C3069 0.930 . S
H3074 C3071 0.929 . S
S3075 N3076 1.613 . S
S3075 N3077 1.610 . S
N3076 S3075 1.613 . S
N3076 C3079 1.350 . S
N3077 S3075 1.610 . S
N3077 C3078 1.351 . S
C3078 C3072 1.428 . S
C3078 N3077 1.351 . S
C3078 C3079 1.434 . S
C3079 C3070 1.429 . S
C3079 N3076 1.350 . S
C3079 C3078 1.434 . S
C3080 C3081 1.369 . S
C3080 C3082 1.419 . S
C3080 H3084 0.930 . S
C3081 C3080 1.369 . S
C3081 C3090 1.429 . S
C3082 C3080 1.419 . S
C3082 C3083 1.363 . S
C3082 H3085 0.929 . S
C3083 C3082 1.363 . S
C3083 C3089 1.428 . S
H3084 C3080 0.930 . S
H3085 C3082 0.929 . S
S3086 N3087 1.613 . S
S3086 N3088 1.610 . S
N3087 S3086 1.613 . S
N3087 C3090 1.350 . S
N3088 S3086 1.610 . S
N3088 C3089 1.351 . S
C3089 C3083 1.428 . S
C3089 N3088 1.351 . S
C3089 C3090 1.434 . S
C3090 C3081 1.429 . S
C3090 N3087 1.350 . S
C3090 C3089 1.434 . S
C3091 C3092 1.369 . S
C3091 C3093 1.419 . S
C3091 H3095 0.930 . S
C3092 C3091 1.369 . S
C3092 C3101 1.429 . S
C3093 C3091 1.419 . S
C3093 C3094 1.363 . S
C3093 H3096 0.929 . S
C3094 C3093 1.363 . S
C3094 C3100 1.428 . S
H3095 C3091 0.930 . S
H3096 C3093 0.929 . S
S3097 N3098 1.613 . S
S3097 N3099 1.610 . S
N3098 S3097 1.613 . S
N3098 C3101 1.350 . S
N3099 S3097 1.610 . S
N3099 C3100 1.351 . S
C3100 C3094 1.428 . S
C3100 N3099 1.351 . S
C3100 C3101 1.434 . S
C3101 C3092 1.429 . S
C3101 N3098 1.350 . S
C3101 C3100 1.434 . S
C3102 C3103 1.369 . S
C3102 C3104 1.419 . S
C3102 H3106 0.930 . S
C3103 C3102 1.369 . S
C3103 C3112 1.429 . S
C3104 C3102 1.419 . S
C3104 C3105 1.363 . S
C3104 H3107 0.929 . S
C3105 C3104 1.363 . S
C3105 C3111 1.428 . S
H3106 C3102 0.930 . S
H3107 C3104 0.929 . S
S3108 N3109 1.613 . S
S3108 N3110 1.610 . S
N3109 S3108 1.613 . S
N3109 C3112 1.350 . S
N3110 S3108 1.610 . S
N3110 C3111 1.351 . S
C3111 C3105 1.428 . S
C3111 N3110 1.351 . S
C3111 C3112 1.434 . S
C3112 C3103 1.429 . S
C3112 N3109 1.350 . S
C3112 C3111 1.434 . S
C3113 C3114 1.369 . S
C3113 C3115 1.419 . S
C3113 H3117 0.930 . S
C3114 C3113 1.369 . S
C3114 C3123 1.429 . S
C3115 C3113 1.419 . S
C3115 C3116 1.363 . S
C3115 H3118 0.929 . S
C3116 C3115 1.363 . S
C3116 C3122 1.428 . S
H3117 C3113 0.930 . S
H3118 C3115 0.929 . S
S3119 N3120 1.613 . S
S3119 N3121 1.610 . S
N3120 S3119 1.613 . S
N3120 C3123 1.350 . S
N3121 S3119 1.610 . S
N3121 C3122 1.351 . S
C3122 C3116 1.428 . S
C3122 N3121 1.351 . S
C3122 C3123 1.434 . S
C3123 C3114 1.429 . S
C3123 N3120 1.350 . S
C3123 C3122 1.434 . S
C3124 C3125 1.369 . S
C3124 C3126 1.419 . S
C3124 H3128 0.930 . S
C3125 C3124 1.369 . S
C3125 C3134 1.429 . S
C3126 C3124 1.419 . S
C3126 C3127 1.363 . S
C3126 H3129 0.929 . S
C3127 C3126 1.363 . S
C3127 C3133 1.428 . S
H3128 C3124 0.930 . S
H3129 C3126 0.929 . S
S3130 N3131 1.613 . S
S3130 N3132 1.610 . S
N3131 S3130 1.613 . S
N3131 C3134 1.350 . S
N3132 S3130 1.610 . S
N3132 C3133 1.351 . S
C3133 C3127 1.428 . S
C3133 N3132 1.351 . S
C3133 C3134 1.434 . S
C3134 C3125 1.429 . S
C3134 N3131 1.350 . S
C3134 C3133 1.434 . S
C3135 C3136 1.369 . S
C3135 C3137 1.419 . S
C3135 H3139 0.930 . S
C3136 C3135 1.369 . S
C3136 C3145 1.429 . S
C3137 C3135 1.419 . S
C3137 C3138 1.363 . S
C3137 H3140 0.929 . S
C3138 C3137 1.363 . S
C3138 C3144 1.428 . S
H3139 C3135 0.930 . S
H3140 C3137 0.929 . S
S3141 N3142 1.613 . S
S3141 N3143 1.610 . S
N3142 S3141 1.613 . S
N3142 C3145 1.350 . S
N3143 S3141 1.610 . S
N3143 C3144 1.351 . S
C3144 C3138 1.428 . S
C3144 N3143 1.351 . S
C3144 C3145 1.434 . S
C3145 C3136 1.429 . S
C3145 N3142 1.350 . S
C3145 C3144 1.434 . S
C3146 C3147 1.369 . S
C3146 C3148 1.419 . S
C3146 H3150 0.930 . S
C3147 C3146 1.369 . S
C3147 C3156 1.429 . S
C3148 C3146 1.419 . S
C3148 C3149 1.363 . S
C3148 H3151 0.929 . S
C3149 C3148 1.363 . S
C3149 C3155 1.428 . S
H3150 C3146 0.930 . S
H3151 C3148 0.929 . S
S3152 N3153 1.613 . S
S3152 N3154 1.610 . S
N3153 S3152 1.613 . S
N3153 C3156 1.350 . S
N3154 S3152 1.610 . S
N3154 C3155 1.351 . S
C3155 C3149 1.428 . S
C3155 N3154 1.351 . S
C3155 C3156 1.434 . S
C3156 C3147 1.429 . S
C3156 N3153 1.350 . S
C3156 C3155 1.434 . S
C3157 C3158 1.369 . S
C3157 C3159 1.419 . S
C3157 H3161 0.930 . S
C3158 C3157 1.369 . S
C3158 C3167 1.429 . S
C3159 C3157 1.419 . S
C3159 C3160 1.363 . S
C3159 H3162 0.929 . S
C3160 C3159 1.363 . S
C3160 C3166 1.428 . S
H3161 C3157 0.930 . S
H3162 C3159 0.929 . S
S3163 N3164 1.613 . S
S3163 N3165 1.610 . S
N3164 S3163 1.613 . S
N3164 C3167 1.350 . S
N3165 S3163 1.610 . S
N3165 C3166 1.351 . S
C3166 C3160 1.428 . S
C3166 N3165 1.351 . S
C3166 C3167 1.434 . S
C3167 C3158 1.429 . S
C3167 N3164 1.350 . S
C3167 C3166 1.434 . S
C3168 C3169 1.369 . S
C3168 C3170 1.419 . S
C3168 H3172 0.930 . S
C3169 C3168 1.369 . S
C3169 C3178 1.429 . S
C3170 C3168 1.419 . S
C3170 C3171 1.363 . S
C3170 H3173 0.929 . S
C3171 C3170 1.363 . S
C3171 C3177 1.428 . S
H3172 C3168 0.930 . S
H3173 C3170 0.929 . S
S3174 N3175 1.613 . S
S3174 N3176 1.610 . S
N3175 S3174 1.613 . S
N3175 C3178 1.350 . S
N3176 S3174 1.610 . S
N3176 C3177 1.351 . S
C3177 C3171 1.428 . S
C3177 N3176 1.351 . S
C3177 C3178 1.434 . S
C3178 C3169 1.429 . S
C3178 N3175 1.350 . S
C3178 C3177 1.434 . S
C3179 C3180 1.369 . S
C3179 C3181 1.419 . S
C3179 H3183 0.930 . S
C3180 C3179 1.369 . S
C3180 C3189 1.429 . S
C3181 C3179 1.419 . S
C3181 C3182 1.363 . S
C3181 H3184 0.929 . S
C3182 C3181 1.363 . S
C3182 C3188 1.428 . S
H3183 C3179 0.930 . S
H3184 C3181 0.929 . S
S3185 N3186 1.613 . S
S3185 N3187 1.610 . S
N3186 S3185 1.613 . S
N3186 C3189 1.350 . S
N3187 S3185 1.610 . S
N3187 C3188 1.351 . S
C3188 C3182 1.428 . S
C3188 N3187 1.351 . S
C3188 C3189 1.434 . S
C3189 C3180 1.429 . S
C3189 N3186 1.350 . S
C3189 C3188 1.434 . S
C3190 C3191 1.369 . S
C3190 C3192 1.419 . S
C3190 H3194 0.930 . S
C3191 C3190 1.369 . S
C3191 C3200 1.429 . S
C3192 C3190 1.419 . S
C3192 C3193 1.363 . S
C3192 H3195 0.929 . S
C3193 C3192 1.363 . S
C3193 C3199 1.428 . S
H3194 C3190 0.930 . S
H3195 C3192 0.929 . S
S3196 N3197 1.613 . S
S3196 N3198 1.610 . S
N3197 S3196 1.613 . S
N3197 C3200 1.350 . S
N3198 S3196 1.610 . S
N3198 C3199 1.351 . S
C3199 C3193 1.428 . S
C3199 N3198 1.351 . S
C3199 C3200 1.434 . S
C3200 C3191 1.429 . S
C3200 N3197 1.350 . S
C3200 C3199 1.434 . S
C3201 C3202 1.369 . S
C3201 C3203 1.419 . S
C3201 H3205 0.930 . S
C3202 C3201 1.369 . S
C3202 C3211 1.429 . S
C3203 C3201 1.419 . S
C3203 C3204 1.363 . S
C3203 H3206 0.929 . S
C3204 C3203 1.363 . S
C3204 C3210 1.428 . S
H3205 C3201 0.930 . S
H3206 C3203 0.929 . S
S3207 N3208 1.613 . S
S3207 N3209 1.610 . S
N3208 S3207 1.613 . S
N3208 C3211 1.350 . S
N3209 S3207 1.610 . S
N3209 C3210 1.351 . S
C3210 C3204 1.428 . S
C3210 N3209 1.351 . S
C3210 C3211 1.434 . S
C3211 C3202 1.429 . S
C3211 N3208 1.350 . S
C3211 C3210 1.434 . S
C3212 C3213 1.369 . S
C3212 C3214 1.419 . S
C3212 H3216 0.930 . S
C3213 C3212 1.369 . S
C3213 C3222 1.429 . S
C3214 C3212 1.419 . S
C3214 C3215 1.363 . S
C3214 H3217 0.929 . S
C3215 C3214 1.363 . S
C3215 C3221 1.428 . S
H3216 C3212 0.930 . S
H3217 C3214 0.929 . S
S3218 N3219 1.613 . S
S3218 N3220 1.610 . S
N3219 S3218 1.613 . S
N3219 C3222 1.350 . S
N3220 S3218 1.610 . S
N3220 C3221 1.351 . S
C3221 C3215 1.428 . S
C3221 N3220 1.351 . S
C3221 C3222 1.434 . S
C3222 C3213 1.429 . S
C3222 N3219 1.350 . S
C3222 C3221 1.434 . S
C3223 C3224 1.369 . S
C3223 C3225 1.419 . S
C3223 H3227 0.930 . S
C3224 C3223 1.369 . S
C3224 C3233 1.429 . S
C3225 C3223 1.419 . S
C3225 C3226 1.363 . S
C3225 H3228 0.929 . S
C3226 C3225 1.363 . S
C3226 C3232 1.428 . S
H3227 C3223 0.930 . S
H3228 C3225 0.929 . S
S3229 N3230 1.613 . S
S3229 N3231 1.610 . S
N3230 S3229 1.613 . S
N3230 C3233 1.350 . S
N3231 S3229 1.610 . S
N3231 C3232 1.351 . S
C3232 C3226 1.428 . S
C3232 N3231 1.351 . S
C3232 C3233 1.434 . S
C3233 C3224 1.429 . S
C3233 N3230 1.350 . S
C3233 C3232 1.434 . S
C3234 C3235 1.369 . S
C3234 C3236 1.419 . S
C3234 H3238 0.930 . S
C3235 C3234 1.369 . S
C3235 C3244 1.429 . S
C3236 C3234 1.419 . S
C3236 C3237 1.363 . S
C3236 H3239 0.929 . S
C3237 C3236 1.363 . S
C3237 C3243 1.428 . S
H3238 C3234 0.930 . S
H3239 C3236 0.929 . S
S3240 N3241 1.613 . S
S3240 N3242 1.610 . S
N3241 S3240 1.613 . S
N3241 C3244 1.350 . S
N3242 S3240 1.610 . S
N3242 C3243 1.351 . S
C3243 C3237 1.428 . S
C3243 N3242 1.351 . S
C3243 C3244 1.434 . S
C3244 C3235 1.429 . S
C3244 N3241 1.350 . S
C3244 C3243 1.434 . S
C3245 C3246 1.369 . S
C3245 C3247 1.419 . S
C3245 H3249 0.930 . S
C3246 C3245 1.369 . S
C3246 C3255 1.429 . S
C3247 C3245 1.419 . S
C3247 C3248 1.363 . S
C3247 H3250 0.929 . S
C3248 C3247 1.363 . S
C3248 C3254 1.428 . S
H3249 C3245 0.930 . S
H3250 C3247 0.929 . S
S3251 N3252 1.613 . S
S3251 N3253 1.610 . S
N3252 S3251 1.613 . S
N3252 C3255 1.350 . S
N3253 S3251 1.610 . S
N3253 C3254 1.351 . S
C3254 C3248 1.428 . S
C3254 N3253 1.351 . S
C3254 C3255 1.434 . S
C3255 C3246 1.429 . S
C3255 N3252 1.350 . S
C3255 C3254 1.434 . S
C3256 C3257 1.369 . S
C3256 C3258 1.419 . S
C3256 H3260 0.930 . S
C3257 C3256 1.369 . S
C3257 C3266 1.429 . S
C3258 C3256 1.419 . S
C3258 C3259 1.363 . S
C3258 H3261 0.929 . S
C3259 C3258 1.363 . S
C3259 C3265 1.428 . S
H3260 C3256 0.930 . S
H3261 C3258 0.929 . S
S3262 N3263 1.613 . S
S3262 N3264 1.610 . S
N3263 S3262 1.613 . S
N3263 C3266 1.350 . S
N3264 S3262 1.610 . S
N3264 C3265 1.351 . S
C3265 C3259 1.428 . S
C3265 N3264 1.351 . S
C3265 C3266 1.434 . S
C3266 C3257 1.429 . S
C3266 N3263 1.350 . S
C3266 C3265 1.434 . S
C3267 C3268 1.369 . S
C3267 C3269 1.419 . S
C3267 H3271 0.930 . S
C3268 C3267 1.369 . S
C3268 C3277 1.429 . S
C3269 C3267 1.419 . S
C3269 C3270 1.363 . S
C3269 H3272 0.929 . S
C3270 C3269 1.363 . S
C3270 C3276 1.428 . S
H3271 C3267 0.930 . S
H3272 C3269 0.929 . S
S3273 N3274 1.613 . S
S3273 N3275 1.610 . S
N3274 S3273 1.613 . S
N3274 C3277 1.350 . S
N3275 S3273 1.610 . S
N3275 C3276 1.351 . S
C3276 C3270 1.428 . S
C3276 N3275 1.351 . S
C3276 C3277 1.434 . S
C3277 C3268 1.429 . S
C3277 N3274 1.350 . S
C3277 C3276 1.434 . S
C3278 C3279 1.369 . S
C3278 C3280 1.419 . S
C3278 H3282 0.930 . S
C3279 C3278 1.369 . S
C3279 C3288 1.429 . S
C3280 C3278 1.419 . S
C3280 C3281 1.363 . S
C3280 H3283 0.929 . S
C3281 C3280 1.363 . S
C3281 C3287 1.428 . S
H3282 C3278 0.930 . S
H3283 C3280 0.929 . S
S3284 N3285 1.613 . S
S3284 N3286 1.610 . S
N3285 S3284 1.613 . S
N3285 C3288 1.350 . S
N3286 S3284 1.610 . S
N3286 C3287 1.351 . S
C3287 C3281 1.428 . S
C3287 N3286 1.351 . S
C3287 C3288 1.434 . S
C3288 C3279 1.429 . S
C3288 N3285 1.350 . S
C3288 C3287 1.434 . S
C3289 C3290 1.369 . S
C3289 C3291 1.419 . S
C3289 H3293 0.930 . S
C3290 C3289 1.369 . S
C3290 C3299 1.429 . S
C3291 C3289 1.419 . S
C3291 C3292 1.363 . S
C3291 H3294 0.929 . S
C3292 C3291 1.363 . S
C3292 C3298 1.428 . S
H3293 C3289 0.930 . S
H3294 C3291 0.929 . S
S3295 N3296 1.613 . S
S3295 N3297 1.610 . S
N3296 S3295 1.613 . S
N3296 C3299 1.350 . S
N3297 S3295 1.610 . S
N3297 C3298 1.351 . S
C3298 C3292 1.428 . S
C3298 N3297 1.351 . S
C3298 C3299 1.434 . S
C3299 C3290 1.429 . S
C3299 N3296 1.350 . S
C3299 C3298 1.434 . S
C3300 C3301 1.369 . S
C3300 C3302 1.419 . S
C3300 H3304 0.930 . S
C3301 C3300 1.369 . S
C3301 C3310 1.429 . S
C3302 C3300 1.419 . S
C3302 C3303 1.363 . S
C3302 H3305 0.929 . S
C3303 C3302 1.363 . S
C3303 C3309 1.428 . S
H3304 C3300 0.930 . S
H3305 C3302 0.929 . S
S3306 N3307 1.613 . S
S3306 N3308 1.610 . S
N3307 S3306 1.613 . S
N3307 C3310 1.350 . S
N3308 S3306 1.610 . S
N3308 C3309 1.351 . S
C3309 C3303 1.428 . S
C3309 N3308 1.351 . S
C3309 C3310 1.434 . S
C3310 C3301 1.429 . S
C3310 N3307 1.350 . S
C3310 C3309 1.434 . S
C3311 C3312 1.369 . S
C3311 C3313 1.419 . S
C3311 H3315 0.930 . S
C3312 C3311 1.369 . S
C3312 C3321 1.429 . S
C3313 C3311 1.419 . S
C3313 C3314 1.363 . S
C3313 H3316 0.929 . S
C3314 C3313 1.363 . S
C3314 C3320 1.428 . S
H3315 C3311 0.930 . S
H3316 C3313 0.929 . S
S3317 N3318 1.613 . S
S3317 N3319 1.610 . S
N3318 S3317 1.613 . S
N3318 C3321 1.350 . S
N3319 S3317 1.610 . S
N3319 C3320 1.351 . S
C3320 C3314 1.428 . S
C3320 N3319 1.351 . S
C3320 C3321 1.434 . S
C3321 C3312 1.429 . S
C3321 N3318 1.350 . S
C3321 C3320 1.434 . S
C3322 C3323 1.369 . S
C3322 C3324 1.419 . S
C3322 H3326 0.930 . S
C3323 C3322 1.369 . S
C3323 C3332 1.429 . S
C3324 C3322 1.419 . S
C3324 C3325 1.363 . S
C3324 H3327 0.929 . S
C3325 C3324 1.363 . S
C3325 C3331 1.428 . S
H3326 C3322 0.930 . S
H3327 C3324 0.929 . S
S3328 N3329 1.613 . S
S3328 N3330 1.610 . S
N3329 S3328 1.613 . S
N3329 C3332 1.350 . S
N3330 S3328 1.610 . S
N3330 C3331 1.351 . S
C3331 C3325 1.428 . S
C3331 N3330 1.351 . S
C3331 C3332 1.434 . S
C3332 C3323 1.429 . S
C3332 N3329 1.350 . S
C3332 C3331 1.434 . S
C3333 C3334 1.369 . S
C3333 C3335 1.419 . S
C3333 H3337 0.930 . S
C3334 C3333 1.369 . S
C3334 C3343 1.429 . S
C3335 C3333 1.419 . S
C3335 C3336 1.363 . S
C3335 H3338 0.929 . S
C3336 C3335 1.363 . S
C3336 C3342 1.428 . S
H3337 C3333 0.930 . S
H3338 C3335 0.929 . S
S3339 N3340 1.613 . S
S3339 N3341 1.610 . S
N3340 S3339 1.613 . S
N3340 C3343 1.350 . S
N3341 S3339 1.610 . S
N3341 C3342 1.351 . S
C3342 C3336 1.428 . S
C3342 N3341 1.351 . S
C3342 C3343 1.434 . S
C3343 C3334 1.429 . S
C3343 N3340 1.350 . S
C3343 C3342 1.434 . S
C3344 C3345 1.369 . S
C3344 C3346 1.419 . S
C3344 H3348 0.930 . S
C3345 C3344 1.369 . S
C3345 C3354 1.429 . S
C3346 C3344 1.419 . S
C3346 C3347 1.363 . S
C3346 H3349 0.929 . S
C3347 C3346 1.363 . S
C3347 C3353 1.428 . S
H3348 C3344 0.930 . S
H3349 C3346 0.929 . S
S3350 N3351 1.613 . S
S3350 N3352 1.610 . S
N3351 S3350 1.613 . S
N3351 C3354 1.350 . S
N3352 S3350 1.610 . S
N3352 C3353 1.351 . S
C3353 C3347 1.428 . S
C3353 N3352 1.351 . S
C3353 C3354 1.434 . S
C3354 C3345 1.429 . S
C3354 N3351 1.350 . S
C3354 C3353 1.434 . S
C3355 C3356 1.369 . S
C3355 C3357 1.419 . S
C3355 H3359 0.930 . S
C3356 C3355 1.369 . S
C3356 C3365 1.429 . S
C3357 C3355 1.419 . S
C3357 C3358 1.363 . S
C3357 H3360 0.929 . S
C3358 C3357 1.363 . S
C3358 C3364 1.428 . S
H3359 C3355 0.930 . S
H3360 C3357 0.929 . S
S3361 N3362 1.613 . S
S3361 N3363 1.610 . S
N3362 S3361 1.613 . S
N3362 C3365 1.350 . S
N3363 S3361 1.610 . S
N3363 C3364 1.351 . S
C3364 C3358 1.428 . S
C3364 N3363 1.351 . S
C3364 C3365 1.434 . S
C3365 C3356 1.429 . S
C3365 N3362 1.350 . S
C3365 C3364 1.434 . S
C3366 C3367 1.369 . S
C3366 C3368 1.419 . S
C3366 H3370 0.930 . S
C3367 C3366 1.369 . S
C3367 C3376 1.429 . S
C3368 C3366 1.419 . S
C3368 C3369 1.363 . S
C3368 H3371 0.929 . S
C3369 C3368 1.363 . S
C3369 C3375 1.428 . S
H3370 C3366 0.930 . S
H3371 C3368 0.929 . S
S3372 N3373 1.613 . S
S3372 N3374 1.610 . S
N3373 S3372 1.613 . S
N3373 C3376 1.350 . S
N3374 S3372 1.610 . S
N3374 C3375 1.351 . S
C3375 C3369 1.428 . S
C3375 N3374 1.351 . S
C3375 C3376 1.434 . S
C3376 C3367 1.429 . S
C3376 N3373 1.350 . S
C3376 C3375 1.434 . S
C3377 C3378 1.369 . S
C3377 C3379 1.419 . S
C3377 H3381 0.930 . S
C3378 C3377 1.369 . S
C3378 C3387 1.429 . S
C3379 C3377 1.419 . S
C3379 C3380 1.363 . S
C3379 H3382 0.929 . S
C3380 C3379 1.363 . S
C3380 C3386 1.428 . S
H3381 C3377 0.930 . S
H3382 C3379 0.929 . S
S3383 N3384 1.613 . S
S3383 N3385 1.610 . S
N3384 S3383 1.613 . S
N3384 C3387 1.350 . S
N3385 S3383 1.610 . S
N3385 C3386 1.351 . S
C3386 C3380 1.428 . S
C3386 N3385 1.351 . S
C3386 C3387 1.434 . S
C3387 C3378 1.429 . S
C3387 N3384 1.350 . S
C3387 C3386 1.434 . S
C3388 C3389 1.369 . S
C3388 C3390 1.419 . S
C3388 H3392 0.930 . S
C3389 C3388 1.369 . S
C3389 C3398 1.429 . S
C3390 C3388 1.419 . S
C3390 C3391 1.363 . S
C3390 H3393 0.929 . S
C3391 C3390 1.363 . S
C3391 C3397 1.428 . S
H3392 C3388 0.930 . S
H3393 C3390 0.929 . S
S3394 N3395 1.613 . S
S3394 N3396 1.610 . S
N3395 S3394 1.613 . S
N3395 C3398 1.350 . S
N3396 S3394 1.610 . S
N3396 C3397 1.351 . S
C3397 C3391 1.428 . S
C3397 N3396 1.351 . S
C3397 C3398 1.434 . S
C3398 C3389 1.429 . S
C3398 N3395 1.350 . S
C3398 C3397 1.434 . S
C3399 C3400 1.369 . S
C3399 C3401 1.419 . S
C3399 H3403 0.930 . S
C3400 C3399 1.369 . S
C3400 C3409 1.429 . S
C3401 C3399 1.419 . S
C3401 C3402 1.363 . S
C3401 H3404 0.929 . S
C3402 C3401 1.363 . S
C3402 C3408 1.428 . S
H3403 C3399 0.930 . S
H3404 C3401 0.929 . S
S3405 N3406 1.613 . S
S3405 N3407 1.610 . S
N3406 S3405 1.613 . S
N3406 C3409 1.350 . S
N3407 S3405 1.610 . S
N3407 C3408 1.351 . S
C3408 C3402 1.428 . S
C3408 N3407 1.351 . S
C3408 C3409 1.434 . S
C3409 C3400 1.429 . S
C3409 N3406 1.350 . S
C3409 C3408 1.434 . S
C3410 C3411 1.369 . S
C3410 C3412 1.419 . S
C3410 H3414 0.930 . S
C3411 C3410 1.369 . S
C3411 C3420 1.429 . S
C3412 C3410 1.419 . S
C3412 C3413 1.363 . S
C3412 H3415 0.929 . S
C3413 C3412 1.363 . S
C3413 C3419 1.428 . S
H3414 C3410 0.930 . S
H3415 C3412 0.929 . S
S3416 N3417 1.613 . S
S3416 N3418 1.610 . S
N3417 S3416 1.613 . S
N3417 C3420 1.350 . S
N3418 S3416 1.610 . S
N3418 C3419 1.351 . S
C3419 C3413 1.428 . S
C3419 N3418 1.351 . S
C3419 C3420 1.434 . S
C3420 C3411 1.429 . S
C3420 N3417 1.350 . S
C3420 C3419 1.434 . S
C3421 C3422 1.369 . S
C3421 C3423 1.419 . S
C3421 H3425 0.930 . S
C3422 C3421 1.369 . S
C3422 C3431 1.429 . S
C3423 C3421 1.419 . S
C3423 C3424 1.363 . S
C3423 H3426 0.929 . S
C3424 C3423 1.363 . S
C3424 C3430 1.428 . S
H3425 C3421 0.930 . S
H3426 C3423 0.929 . S
S3427 N3428 1.613 . S
S3427 N3429 1.610 . S
N3428 S3427 1.613 . S
N3428 C3431 1.350 . S
N3429 S3427 1.610 . S
N3429 C3430 1.351 . S
C3430 C3424 1.428 . S
C3430 N3429 1.351 . S
C3430 C3431 1.434 . S
C3431 C3422 1.429 . S
C3431 N3428 1.350 . S
C3431 C3430 1.434 . S
C3432 C3433 1.369 . S
C3432 C3434 1.419 . S
C3432 H3436 0.930 . S
C3433 C3432 1.369 . S
C3433 C3442 1.429 . S
C3434 C3432 1.419 . S
C3434 C3435 1.363 . S
C3434 H3437 0.929 . S
C3435 C3434 1.363 . S
C3435 C3441 1.428 . S
H3436 C3432 0.930 . S
H3437 C3434 0.929 . S
S3438 N3439 1.613 . S
S3438 N3440 1.610 . S
N3439 S3438 1.613 . S
N3439 C3442 1.350 . S
N3440 S3438 1.610 . S
N3440 C3441 1.351 . S
C3441 C3435 1.428 . S
C3441 N3440 1.351 . S
C3441 C3442 1.434 . S
C3442 C3433 1.429 . S
C3442 N3439 1.350 . S
C3442 C3441 1.434 . S
C3443 C3444 1.369 . S
C3443 C3445 1.419 . S
C3443 H3447 0.930 . S
C3444 C3443 1.369 . S
C3444 C3453 1.429 . S
C3445 C3443 1.419 . S
C3445 C3446 1.363 . S
C3445 H3448 0.929 . S
C3446 C3445 1.363 . S
C3446 C3452 1.428 . S
H3447 C3443 0.930 . S
H3448 C3445 0.929 . S
S3449 N3450 1.613 . S
S3449 N3451 1.610 . S
N3450 S3449 1.613 . S
N3450 C3453 1.350 . S
N3451 S3449 1.610 . S
N3451 C3452 1.351 . S
C3452 C3446 1.428 . S
C3452 N3451 1.351 . S
C3452 C3453 1.434 . S
C3453 C3444 1.429 . S
C3453 N3450 1.350 . S
C3453 C3452 1.434 . S
C3454 C3455 1.369 . S
C3454 C3456 1.419 . S
C3454 H3458 0.930 . S
C3455 C3454 1.369 . S
C3455 C3464 1.429 . S
C3456 C3454 1.419 . S
C3456 C3457 1.363 . S
C3456 H3459 0.929 . S
C3457 C3456 1.363 . S
C3457 C3463 1.428 . S
H3458 C3454 0.930 . S
H3459 C3456 0.929 . S
S3460 N3461 1.613 . S
S3460 N3462 1.610 . S
N3461 S3460 1.613 . S
N3461 C3464 1.350 . S
N3462 S3460 1.610 . S
N3462 C3463 1.351 . S
C3463 C3457 1.428 . S
C3463 N3462 1.351 . S
C3463 C3464 1.434 . S
C3464 C3455 1.429 . S
C3464 N3461 1.350 . S
C3464 C3463 1.434 . S
C3465 C3466 1.369 . S
C3465 C3467 1.419 . S
C3465 H3469 0.930 . S
C3466 C3465 1.369 . S
C3466 C3475 1.429 . S
C3467 C3465 1.419 . S
C3467 C3468 1.363 . S
C3467 H3470 0.929 . S
C3468 C3467 1.363 . S
C3468 C3474 1.428 . S
H3469 C3465 0.930 . S
H3470 C3467 0.929 . S
S3471 N3472 1.613 . S
S3471 N3473 1.610 . S
N3472 S3471 1.613 . S
N3472 C3475 1.350 . S
N3473 S3471 1.610 . S
N3473 C3474 1.351 . S
C3474 C3468 1.428 . S
C3474 N3473 1.351 . S
C3474 C3475 1.434 . S
C3475 C3466 1.429 . S
C3475 N3472 1.350 . S
C3475 C3474 1.434 . S
C3476 C3477 1.369 . S
C3476 C3478 1.419 . S
C3476 H3480 0.930 . S
C3477 C3476 1.369 . S
C3477 C3486 1.429 . S
C3478 C3476 1.419 . S
C3478 C3479 1.363 . S
C3478 H3481 0.929 . S
C3479 C3478 1.363 . S
C3479 C3485 1.428 . S
H3480 C3476 0.930 . S
H3481 C3478 0.929 . S
S3482 N3483 1.613 . S
S3482 N3484 1.610 . S
N3483 S3482 1.613 . S
N3483 C3486 1.350 . S
N3484 S3482 1.610 . S
N3484 C3485 1.351 . S
C3485 C3479 1.428 . S
C3485 N3484 1.351 . S
C3485 C3486 1.434 . S
C3486 C3477 1.429 . S
C3486 N3483 1.350 . S
C3486 C3485 1.434 . S
C3487 C3488 1.369 . S
C3487 C3489 1.419 . S
C3487 H3491 0.930 . S
C3488 C3487 1.369 . S
C3488 C3497 1.429 . S
C3489 C3487 1.419 . S
C3489 C3490 1.363 . S
C3489 H3492 0.929 . S
C3490 C3489 1.363 . S
C3490 C3496 1.428 . S
H3491 C3487 0.930 . S
H3492 C3489 0.929 . S
S3493 N3494 1.613 . S
S3493 N3495 1.610 . S
N3494 S3493 1.613 . S
N3494 C3497 1.350 . S
N3495 S3493 1.610 . S
N3495 C3496 1.351 . S
C3496 C3490 1.428 . S
C3496 N3495 1.351 . S
C3496 C3497 1.434 . S
C3497 C3488 1.429 . S
C3497 N3494 1.350 . S
C3497 C3496 1.434 . S
C3498 C3499 1.369 . S
C3498 C3500 1.419 . S
C3498 H3502 0.930 . S
C3499 C3498 1.369 . S
C3499 C3508 1.429 . S
C3500 C3498 1.419 . S
C3500 C3501 1.363 . S
C3500 H3503 0.929 . S
C3501 C3500 1.363 . S
C3501 C3507 1.428 . S
H3502 C3498 0.930 . S
H3503 C3500 0.929 . S
S3504 N3505 1.613 . S
S3504 N3506 1.610 . S
N3505 S3504 1.613 . S
N3505 C3508 1.350 . S
N3506 S3504 1.610 . S
N3506 C3507 1.351 . S
C3507 C3501 1.428 . S
C3507 N3506 1.351 . S
C3507 C3508 1.434 . S
C3508 C3499 1.429 . S
C3508 N3505 1.350 . S
C3508 C3507 1.434 . S
C3509 C3510 1.369 . S
C3509 C3511 1.419 . S
C3509 H3513 0.930 . S
C3510 C3509 1.369 . S
C3510 C3519 1.429 . S
C3511 C3509 1.419 . S
C3511 C3512 1.363 . S
C3511 H3514 0.929 . S
C3512 C3511 1.363 . S
C3512 C3518 1.428 . S
H3513 C3509 0.930 . S
H3514 C3511 0.929 . S
S3515 N3516 1.613 . S
S3515 N3517 1.610 . S
N3516 S3515 1.613 . S
N3516 C3519 1.350 . S
N3517 S3515 1.610 . S
N3517 C3518 1.351 . S
C3518 C3512 1.428 . S
C3518 N3517 1.351 . S
C3518 C3519 1.434 . S
C3519 C3510 1.429 . S
C3519 N3516 1.350 . S
C3519 C3518 1.434 . S
C2817 C409 1.515 . S
C2819 C29 1.513 . S
C2828 C497 1.514 . S
C2830 C117 1.513 . S
C2839 C577 1.513 . S
C2841 C205 1.515 . S
C2850 C284 1.515 . S
C2852 C665 1.513 . S
C2861 C724 1.505 . S
C2863 C1113 1.507 . S
C2872 C1173 1.505 . S
C2874 C841 1.507 . S
C2883 C929 1.505 . S
C2885 C1261 1.507 . S
C2894 C1349 1.506 . S
C2896 C1017 1.507 . S
C2905 C1428 1.514 . S
C2907 C1817 1.513 . S
C2916 C1897 1.515 . S
C2918 C1525 1.514 . S
C2927 C1985 1.513 . S
C2929 C1604 1.515 . S
C2938 C2081 1.515 . S
C2940 C1692 1.513 . S
C2949 C2132 1.505 . S
C2951 C2513 1.507 . S
C2960 C2249 1.507 . S
C2962 C2581 1.505 . S
C2971 C2337 1.505 . S
C2973 C2660 1.507 . S
C2982 C2433 1.505 . S
C2984 C2757 1.507 . S
C2993 C49 0.837 . S
C2995 C645 0.833 . S
C3004 C137 0.837 . S
C3006 C372 0.824 . S
C3015 C225 0.823 . S
C3017 C460 0.840 . S
C3026 C557 0.821 . S
C3028 C321 0.838 . S
C3037 C1340 0.848 . S
C3039 C733 0.832 . S
C3048 C1105 0.848 . S
C3050 C849 0.832 . S
C3059 C1164 0.833 . S
C3061 C937 0.838 . S
C3070 C1025 0.848 . S
C3072 C1252 0.831 . S
C3081 C2044 0.826 . S
C3083 C1465 0.839 . S
C3092 C1780 0.835 . S
C3094 C1545 0.834 . S
C3103 C1877 0.840 . S
C3105 C1641 0.829 . S
C3114 C1729 0.824 . S
C3116 C1965 0.840 . S
C3125 C2141 0.827 . S
C3127 C2748 0.845 . S
C3136 C2257 0.835 . S
C3138 C2521 0.843 . S
C3147 C2345 0.848 . S
C3149 C2572 0.831 . S
C3158 C2669 0.828 . S
C3160 C2425 0.846 . S
C3169 C57 1.679 . S
C3171 C2229 1.619 . S
C3180 C145 1.677 . S
C3182 C909 1.620 . S
C3191 C233 1.677 . S
C3193 C2396 1.621 . S
C3202 C761 1.621 . S
C3204 C313 1.678 . S
C3213 C2777 1.614 . S
C3215 C381 1.680 . S
C3224 C469 1.679 . S
C3226 C1076 1.618 . S
C3235 C548 1.677 . S
C3237 C2601 1.620 . S
C3246 C636 1.679 . S
C3248 C1281 1.618 . S
C3257 C1516 1.617 . S
C3259 C753 1.677 . S
C3268 C196 1.615 . S
C3270 C812 1.679 . S
C3279 C1701 1.622 . S
C3281 C900 1.677 . S
C3290 C988 1.676 . S
C3292 C20 1.623 . S
C3301 C2073 1.617 . S
C3303 C1085 1.677 . S
C3312 C401 1.619 . S
C3314 C1201 1.676 . S
C3323 C1905 1.615 . S
C3325 C1289 1.678 . S
C3334 C585 1.618 . S
C3336 C1377 1.678 . S
C3345 C821 1.622 . S
C3347 C1457 1.677 . S
C3356 C1553 1.677 . S
C3358 C2317 1.620 . S
C3367 C1633 1.679 . S
C3369 C997 1.619 . S
C3378 C1721 1.681 . S
C3380 C2169 1.614 . S
C3389 C1789 1.680 . S
C3391 C1369 1.617 . S
C3400 C2493 1.613 . S
C3402 C1868 1.680 . S
C3411 C1956 1.678 . S
C3413 C1193 1.617 . S
C3422 C2053 1.679 . S
C3424 C2697 1.616 . S
C3433 C2161 1.679 . S
C3435 C108 1.617 . S
C3444 C2220 1.679 . S
C3446 C1613 1.618 . S
C3455 C293 1.618 . S
C3457 C2308 1.679 . S
C3466 C1437 1.615 . S
C3468 C2405 1.679 . S
C3477 C2484 1.679 . S
C3479 C673 1.616 . S
C3488 C2609 1.678 . S
C3490 C1809 1.620 . S
C3499 C489 1.624 . S
C3501 C2689 1.677 . S
C3510 C1993 1.618 . S
C3512 C2785 1.677 . S
