# Generated by pormake.
# Topology ukv, (4)-cn, num edge types: 1
# Building blocks:
#     Node 0, Type 0, BuildingBlock: CEKHIL_clean_sbu_0, # of connection points: 4
#     Node 1, Type 0, BuildingBlock: CEKHIL_clean_sbu_0, # of connection points: 4
#     Node 2, Type 0, BuildingBlock: CEKHIL_clean_sbu_0, # of connection points: 4
#     Node 3, Type 0, BuildingBlock: CEKHIL_clean_sbu_0, # of connection points: 4
#     Node 4, Type 0, BuildingBlock: CEKHIL_clean_sbu_0, # of connection points: 4
#     Node 5, Type 0, BuildingBlock: CEKHIL_clean_sbu_0, # of connection points: 4
#     Node 6, Type 0, BuildingBlock: CEKHIL_clean_sbu_0, # of connection points: 4
#     Node 7, Type 0, BuildingBlock: CEKHIL_clean_sbu_0, # of connection points: 4
#     Node 8, Type 0, BuildingBlock: CEKHIL_clean_sbu_0, # of connection points: 4
#     Node 9, Type 0, BuildingBlock: CEKHIL_clean_sbu_0, # of connection points: 4
#     Node 10, Type 0, BuildingBlock: CEKHIL_clean_sbu_0, # of connection points: 4
#     Node 11, Type 0, BuildingBlock: CEKHIL_clean_sbu_0, # of connection points: 4
#     Node 12, Type 0, BuildingBlock: CEKHIL_clean_sbu_0, # of connection points: 4
#     Node 13, Type 0, BuildingBlock: CEKHIL_clean_sbu_0, # of connection points: 4
#     Node 14, Type 0, BuildingBlock: CEKHIL_clean_sbu_0, # of connection points: 4
#     Node 15, Type 0, BuildingBlock: CEKHIL_clean_sbu_0, # of connection points: 4
#     Node 16, Type 0, BuildingBlock: CEKHIL_clean_sbu_0, # of connection points: 4
#     Node 17, Type 0, BuildingBlock: CEKHIL_clean_sbu_0, # of connection points: 4
#     Node 18, Type 0, BuildingBlock: CEKHIL_clean_sbu_0, # of connection points: 4
#     Node 19, Type 0, BuildingBlock: CEKHIL_clean_sbu_0, # of connection points: 4
#     Node 20, Type 0, BuildingBlock: CEKHIL_clean_sbu_0, # of connection points: 4
#     Node 21, Type 0, BuildingBlock: CEKHIL_clean_sbu_0, # of connection points: 4
#     Node 22, Type 0, BuildingBlock: CEKHIL_clean_sbu_0, # of connection points: 4
#     Node 23, Type 0, BuildingBlock: CEKHIL_clean_sbu_0, # of connection points: 4
#     Node 24, Type 0, BuildingBlock: CEKHIL_clean_sbu_0, # of connection points: 4
#     Node 25, Type 0, BuildingBlock: CEKHIL_clean_sbu_0, # of connection points: 4
#     Node 26, Type 0, BuildingBlock: CEKHIL_clean_sbu_0, # of connection points: 4
#     Node 27, Type 0, BuildingBlock: CEKHIL_clean_sbu_0, # of connection points: 4
#     Node 28, Type 0, BuildingBlock: CEKHIL_clean_sbu_0, # of connection points: 4
#     Node 29, Type 0, BuildingBlock: CEKHIL_clean_sbu_0, # of connection points: 4
#     Node 30, Type 0, BuildingBlock: CEKHIL_clean_sbu_0, # of connection points: 4
#     Node 31, Type 0, BuildingBlock: CEKHIL_clean_sbu_0, # of connection points: 4
#     Node 32, Type 0, BuildingBlock: CEKHIL_clean_sbu_0, # of connection points: 4
#     Node 33, Type 0, BuildingBlock: CEKHIL_clean_sbu_0, # of connection points: 4
#     Node 34, Type 0, BuildingBlock: CEKHIL_clean_sbu_0, # of connection points: 4
#     Node 35, Type 0, BuildingBlock: CEKHIL_clean_sbu_0, # of connection points: 4
#     Edge 36, Type (0, 0), BuildingBlock: UVAHIK_clean_linker_0, # of connection points: 2
#     Edge 37, Type (0, 0), BuildingBlock: UVAHIK_clean_linker_0, # of connection points: 2
#     Edge 38, Type (0, 0), BuildingBlock: UVAHIK_clean_linker_0, # of connection points: 2
#     Edge 39, Type (0, 0), BuildingBlock: UVAHIK_clean_linker_0, # of connection points: 2
#     Edge 40, Type (0, 0), BuildingBlock: UVAHIK_clean_linker_0, # of connection points: 2
#     Edge 41, Type (0, 0), BuildingBlock: UVAHIK_clean_linker_0, # of connection points: 2
#     Edge 42, Type (0, 0), BuildingBlock: UVAHIK_clean_linker_0, # of connection points: 2
#     Edge 43, Type (0, 0), BuildingBlock: UVAHIK_clean_linker_0, # of connection points: 2
#     Edge 44, Type (0, 0), BuildingBlock: UVAHIK_clean_linker_0, # of connection points: 2
#     Edge 45, Type (0, 0), BuildingBlock: UVAHIK_clean_linker_0, # of connection points: 2
#     Edge 46, Type (0, 0), BuildingBlock: UVAHIK_clean_linker_0, # of connection points: 2
#     Edge 47, Type (0, 0), BuildingBlock: UVAHIK_clean_linker_0, # of connection points: 2
#     Edge 48, Type (0, 0), BuildingBlock: UVAHIK_clean_linker_0, # of connection points: 2
#     Edge 49, Type (0, 0), BuildingBlock: UVAHIK_clean_linker_0, # of connection points: 2
#     Edge 50, Type (0, 0), BuildingBlock: UVAHIK_clean_linker_0, # of connection points: 2
#     Edge 51, Type (0, 0), BuildingBlock: UVAHIK_clean_linker_0, # of connection points: 2
#     Edge 52, Type (0, 0), BuildingBlock: UVAHIK_clean_linker_0, # of connection points: 2
#     Edge 53, Type (0, 0), BuildingBlock: UVAHIK_clean_linker_0, # of connection points: 2
#     Edge 54, Type (0, 0), BuildingBlock: UVAHIK_clean_linker_0, # of connection points: 2
#     Edge 55, Type (0, 0), BuildingBlock: UVAHIK_clean_linker_0, # of connection points: 2
#     Edge 56, Type (0, 0), BuildingBlock: UVAHIK_clean_linker_0, # of connection points: 2
#     Edge 57, Type (0, 0), BuildingBlock: UVAHIK_clean_linker_0, # of connection points: 2
#     Edge 58, Type (0, 0), BuildingBlock: UVAHIK_clean_linker_0, # of connection points: 2
#     Edge 59, Type (0, 0), BuildingBlock: UVAHIK_clean_linker_0, # of connection points: 2
#     Edge 60, Type (0, 0), BuildingBlock: UVAHIK_clean_linker_0, # of connection points: 2
#     Edge 61, Type (0, 0), BuildingBlock: UVAHIK_clean_linker_0, # of connection points: 2
#     Edge 62, Type (0, 0), BuildingBlock: UVAHIK_clean_linker_0, # of connection points: 2
#     Edge 63, Type (0, 0), BuildingBlock: UVAHIK_clean_linker_0, # of connection points: 2
#     Edge 64, Type (0, 0), BuildingBlock: UVAHIK_clean_linker_0, # of connection points: 2
#     Edge 65, Type (0, 0), BuildingBlock: UVAHIK_clean_linker_0, # of connection points: 2
#     Edge 66, Type (0, 0), BuildingBlock: UVAHIK_clean_linker_0, # of connection points: 2
#     Edge 67, Type (0, 0), BuildingBlock: UVAHIK_clean_linker_0, # of connection points: 2
#     Edge 68, Type (0, 0), BuildingBlock: UVAHIK_clean_linker_0, # of connection points: 2
#     Edge 69, Type (0, 0), BuildingBlock: UVAHIK_clean_linker_0, # of connection points: 2
#     Edge 70, Type (0, 0), BuildingBlock: UVAHIK_clean_linker_0, # of connection points: 2
#     Edge 71, Type (0, 0), BuildingBlock: UVAHIK_clean_linker_0, # of connection points: 2
#     Edge 72, Type (0, 0), BuildingBlock: UVAHIK_clean_linker_0, # of connection points: 2
#     Edge 73, Type (0, 0), BuildingBlock: UVAHIK_clean_linker_0, # of connection points: 2
#     Edge 74, Type (0, 0), BuildingBlock: UVAHIK_clean_linker_0, # of connection points: 2
#     Edge 75, Type (0, 0), BuildingBlock: UVAHIK_clean_linker_0, # of connection points: 2
#     Edge 76, Type (0, 0), BuildingBlock: UVAHIK_clean_linker_0, # of connection points: 2
#     Edge 77, Type (0, 0), BuildingBlock: UVAHIK_clean_linker_0, # of connection points: 2
#     Edge 78, Type (0, 0), BuildingBlock: UVAHIK_clean_linker_0, # of connection points: 2
#     Edge 79, Type (0, 0), BuildingBlock: UVAHIK_clean_linker_0, # of connection points: 2
#     Edge 80, Type (0, 0), BuildingBlock: UVAHIK_clean_linker_0, # of connection points: 2
#     Edge 81, Type (0, 0), BuildingBlock: UVAHIK_clean_linker_0, # of connection points: 2
#     Edge 82, Type (0, 0), BuildingBlock: UVAHIK_clean_linker_0, # of connection points: 2
#     Edge 83, Type (0, 0), BuildingBlock: UVAHIK_clean_linker_0, # of connection points: 2
#     Edge 84, Type (0, 0), BuildingBlock: UVAHIK_clean_linker_0, # of connection points: 2
#     Edge 85, Type (0, 0), BuildingBlock: UVAHIK_clean_linker_0, # of connection points: 2
#     Edge 86, Type (0, 0), BuildingBlock: UVAHIK_clean_linker_0, # of connection points: 2
#     Edge 87, Type (0, 0), BuildingBlock: UVAHIK_clean_linker_0, # of connection points: 2
#     Edge 88, Type (0, 0), BuildingBlock: UVAHIK_clean_linker_0, # of connection points: 2
#     Edge 89, Type (0, 0), BuildingBlock: UVAHIK_clean_linker_0, # of connection points: 2
#     Edge 90, Type (0, 0), BuildingBlock: UVAHIK_clean_linker_0, # of connection points: 2
#     Edge 91, Type (0, 0), BuildingBlock: UVAHIK_clean_linker_0, # of connection points: 2
#     Edge 92, Type (0, 0), BuildingBlock: UVAHIK_clean_linker_0, # of connection points: 2
#     Edge 93, Type (0, 0), BuildingBlock: UVAHIK_clean_linker_0, # of connection points: 2
#     Edge 94, Type (0, 0), BuildingBlock: UVAHIK_clean_linker_0, # of connection points: 2
#     Edge 95, Type (0, 0), BuildingBlock: UVAHIK_clean_linker_0, # of connection points: 2
#     Edge 96, Type (0, 0), BuildingBlock: UVAHIK_clean_linker_0, # of connection points: 2
#     Edge 97, Type (0, 0), BuildingBlock: UVAHIK_clean_linker_0, # of connection points: 2
#     Edge 98, Type (0, 0), BuildingBlock: UVAHIK_clean_linker_0, # of connection points: 2
#     Edge 99, Type (0, 0), BuildingBlock: UVAHIK_clean_linker_0, # of connection points: 2
#     Edge 100, Type (0, 0), BuildingBlock: UVAHIK_clean_linker_0, # of connection points: 2
#     Edge 101, Type (0, 0), BuildingBlock: UVAHIK_clean_linker_0, # of connection points: 2
#     Edge 102, Type (0, 0), BuildingBlock: UVAHIK_clean_linker_0, # of connection points: 2
#     Edge 103, Type (0, 0), BuildingBlock: UVAHIK_clean_linker_0, # of connection points: 2
#     Edge 104, Type (0, 0), BuildingBlock: UVAHIK_clean_linker_0, # of connection points: 2
#     Edge 105, Type (0, 0), BuildingBlock: UVAHIK_clean_linker_0, # of connection points: 2
#     Edge 106, Type (0, 0), BuildingBlock: UVAHIK_clean_linker_0, # of connection points: 2
#     Edge 107, Type (0, 0), BuildingBlock: UVAHIK_clean_linker_0, # of connection points: 2
# Relax obj value: 0.235
# Max RMSD: 0.136
# Mean RMSD: 0.136
data_MOF--net-ukv--node1-CEKHIL_clean_sbu_0--edge1-UVAHIK_clean_linker_0
_symmetry_space_group_name_H-M    P1
_symmetry_Int_Tables_number       1
_symmetry_cell_setting            triclinic
loop_
_symmetry_equiv_pos_as_xyz
'x, y, z'
_cell_length_a     121.46567
_cell_length_b     121.509
_cell_length_c     27.394476
_cell_angle_alpha  89.987091
_cell_angle_beta   90.012971
_cell_angle_gamma 119.99341
loop_
_atom_site_label
_atom_site_type_symbol
_atom_site_fract_x
_atom_site_fract_y
_atom_site_fract_z
_atom_type_partial_charge
Co0 Co 0.26645 0.07459 0.07985 0.0
O1 O 0.26152 0.06224 0.13078 0.0
O2 O 0.2484 0.0625 0.07513 0.0
C3 C 0.28413 0.07433 0.05673 0.0
O4 O 0.26839 0.0858 0.0215 0.0
Co5 Co 0.29201 0.10007 0.0901 0.0
O6 O 0.28819 0.1027 0.02201 0.0
C7 C 0.26994 0.09567 0.14885 0.0
C8 C 0.25005 0.05722 0.11368 0.0
C9 C 0.27734 0.09601 0.00199 0.0
O10 O 0.2628 0.08568 0.12368 0.0
O11 O 0.28205 0.10203 0.14457 0.0
O12 O 0.27307 0.06576 0.04038 0.0
O13 O 0.28393 0.08176 0.08991 0.0
Co14 Co 0.92761 0.18567 0.08317 0.0
O15 O 0.94001 0.19328 0.13391 0.0
O16 O 0.9401 0.18024 0.07752 0.0
C17 C 0.92712 0.20325 0.06006 0.0
O18 O 0.91638 0.17636 0.02487 0.0
Co19 Co 0.90175 0.185 0.09598 0.0
O20 O 0.89926 0.17893 0.02741 0.0
C21 C 0.90713 0.16792 0.1538 0.0
C22 C 0.94532 0.18718 0.11612 0.0
C23 C 0.90605 0.17506 0.00619 0.0
O24 O 0.91686 0.17073 0.12693 0.0
O25 O 0.90068 0.1736 0.15092 0.0
O26 O 0.93604 0.20125 0.04402 0.0
O27 O 0.91999 0.19552 0.09362 0.0
Co28 Co 0.8056 0.73509 0.08686 0.0
O29 O 0.79714 0.74225 0.12254 0.0
O30 O 0.81481 0.7534 0.07942 0.0
C31 C 0.78791 0.71919 0.05237 0.0
O32 O 0.81656 0.73088 0.04344 0.0
Co33 Co 0.79961 0.70749 0.10848 0.0
O34 O 0.80951 0.70991 0.04771 0.0
C35 C 0.81569 0.72821 0.17626 0.0
C36 C 0.80597 0.75321 0.10683 0.0
C37 C 0.81664 0.72084 0.02897 0.0
O38 O 0.81628 0.73652 0.14562 0.0
O39 O 0.80852 0.71621 0.17039 0.0
O40 O 0.79337 0.73049 0.03325 0.0
O41 O 0.79258 0.71824 0.09335 0.0
Co42 Co 0.07429 0.26322 0.40465 0.0
O43 O 0.06109 0.25894 0.35765 0.0
O44 O 0.0647 0.24495 0.39564 0.0
C45 C 0.07091 0.27712 0.4473 0.0
O46 O 0.0869 0.26417 0.45588 0.0
Co47 Co 0.09677 0.29109 0.41071 0.0
O48 O 0.10231 0.28453 0.46618 0.0
C49 C 0.09585 0.27443 0.33062 0.0
C50 C 0.05809 0.24719 0.36383 0.0
C51 C 0.09709 0.27276 0.47681 0.0
O52 O 0.08634 0.26482 0.35082 0.0
O53 O 0.10052 0.28581 0.34645 0.0
O54 O 0.06412 0.26503 0.4564 0.0
O55 O 0.07855 0.2802 0.41075 0.0
Co56 Co 0.74217 0.81409 0.41641 0.0
O57 O 0.74429 0.80693 0.35716 0.0
O58 O 0.75991 0.81925 0.40762 0.0
C59 C 0.72494 0.79612 0.44296 0.0
O60 O 0.74371 0.82304 0.48112 0.0
Co61 Co 0.71761 0.81514 0.43893 0.0
O62 O 0.72416 0.81791 0.50672 0.0
C63 C 0.7373 0.83425 0.37299 0.0
C64 C 0.75634 0.8127 0.36737 0.0
C65 C 0.73604 0.82276 0.51413 0.0
O66 O 0.74457 0.82949 0.37937 0.0
O67 O 0.72622 0.82965 0.39192 0.0
O68 O 0.73628 0.79789 0.45094 0.0
O69 O 0.72446 0.8047 0.41701 0.0
Co70 Co 0.18945 0.92673 0.39668 0.0
O71 O 0.19758 0.9387 0.34494 0.0
O72 O 0.18312 0.93852 0.39478 0.0
C73 C 0.20707 0.92759 0.42762 0.0
O74 O 0.1793 0.91595 0.45449 0.0
Co75 Co 0.19032 0.9015 0.39539 0.0
O76 O 0.18178 0.8988 0.45966 0.0
C77 C 0.17325 0.90474 0.32843 0.0
C78 C 0.19071 0.94364 0.35769 0.0
C79 C 0.17734 0.90567 0.47571 0.0
O80 O 0.17556 0.91498 0.35075 0.0
O81 O 0.17917 0.89871 0.33723 0.0
O82 O 0.20415 0.93617 0.43956 0.0
O83 O 0.20015 0.91982 0.3938 0.0
Co84 Co 0.73957 0.92915 0.91481 0.0
O85 O 0.74412 0.94311 0.87134 0.0
O86 O 0.7577 0.94087 0.9187 0.0
C87 C 0.72242 0.92905 0.94694 0.0
O88 O 0.73818 0.91642 0.96593 0.0
Co89 Co 0.7135 0.90424 0.90364 0.0
O90 O 0.71809 0.90007 0.96789 0.0
C91 C 0.73445 0.90966 0.8357 0.0
C92 C 0.75566 0.94762 0.88697 0.0
C93 C 0.72935 0.90609 0.98507 0.0
O94 O 0.74229 0.91916 0.86191 0.0
O95 O 0.72245 0.90342 0.84348 0.0
O96 O 0.73372 0.93691 0.96345 0.0
O97 O 0.72202 0.92249 0.90933 0.0
Co98 Co 0.07341 0.81307 0.9003 0.0
O99 O 0.06389 0.80638 0.84119 0.0
O100 O 0.06107 0.81859 0.89392 0.0
C101 C 0.07209 0.79474 0.92472 0.0
O102 O 0.08109 0.82155 0.96524 0.0
Co103 Co 0.09874 0.81339 0.91967 0.0
O104 O 0.09612 0.81699 0.98794 0.0
C105 C 0.09837 0.83277 0.85481 0.0
C106 C 0.05776 0.81216 0.85337 0.0
C107 C 0.08894 0.8216 0.99685 0.0
O108 O 0.08651 0.82848 0.86388 0.0
O109 O 0.10464 0.82768 0.87144 0.0
O110 O 0.06285 0.79691 0.93402 0.0
O111 O 0.08128 0.80318 0.89873 0.0
Co112 Co 0.19215 0.26244 0.9051 0.0
O113 O 0.20093 0.25686 0.86279 0.0
O114 O 0.1834 0.24404 0.90407 0.0
C115 C 0.20956 0.27735 0.94456 0.0
O116 O 0.18093 0.26481 0.95419 0.0
Co117 Co 0.19749 0.29028 0.90028 0.0
O118 O 0.18856 0.28577 0.96397 0.0
C119 C 0.17978 0.27127 0.8294 0.0
C120 C 0.19242 0.24537 0.87479 0.0
C121 C 0.18122 0.27426 0.97669 0.0
O122 O 0.18127 0.26251 0.8494 0.0
O123 O 0.18585 0.28293 0.84281 0.0
O124 O 0.20432 0.26549 0.95735 0.0
O125 O 0.20496 0.27957 0.90574 0.0
Co126 Co 0.92204 0.73158 0.58847 0.0
O127 O 0.9346 0.73526 0.63761 0.0
O128 O 0.93195 0.74978 0.59891 0.0
C129 C 0.92577 0.71778 0.54666 0.0
O130 O 0.91031 0.7313 0.53469 0.0
Co131 Co 0.89937 0.70406 0.57501 0.0
O132 O 0.89723 0.71102 0.5124 0.0
C133 C 0.89941 0.71995 0.65722 0.0
C134 C 0.93823 0.74716 0.63089 0.0
C135 C 0.90193 0.72293 0.50594 0.0
O136 O 0.90935 0.72975 0.64006 0.0
O137 O 0.89472 0.70881 0.63871 0.0
O138 O 0.9328 0.72992 0.53902 0.0
O139 O 0.91753 0.71457 0.58121 0.0
Co140 Co 0.2579 0.18495 0.57084 0.0
O141 O 0.25605 0.19253 0.62948 0.0
O142 O 0.24008 0.17776 0.58614 0.0
C143 C 0.27251 0.20325 0.53551 0.0
O144 O 0.2559 0.17517 0.50812 0.0
Co145 Co 0.28351 0.18712 0.54011 0.0
O146 O 0.27514 0.18169 0.47549 0.0
C147 C 0.26732 0.16813 0.6145 0.0
C148 C 0.24387 0.18529 0.62378 0.0
C149 C 0.26305 0.1756 0.47271 0.0
O150 O 0.25876 0.17137 0.61031 0.0
O151 O 0.27788 0.17354 0.59125 0.0
O152 O 0.2605 0.19963 0.5322 0.0
O153 O 0.2753 0.1963 0.56257 0.0
Co154 Co 0.81272 0.07385 0.57106 0.0
O155 O 0.8053 0.06538 0.6316 0.0
O156 O 0.81819 0.0618 0.58561 0.0
C157 C 0.79474 0.07217 0.54006 0.0
O158 O 0.82197 0.08015 0.50637 0.0
Co159 Co 0.81365 0.09872 0.53846 0.0
O160 O 0.81805 0.09476 0.47363 0.0
C161 C 0.83232 0.09967 0.61072 0.0
C162 C 0.81133 0.05918 0.62489 0.0
C163 C 0.82259 0.08734 0.47079 0.0
O164 O 0.82778 0.0876 0.60721 0.0
O165 O 0.8277 0.10568 0.58807 0.0
O166 O 0.79687 0.06273 0.53614 0.0
O167 O 0.80302 0.08184 0.56459 0.0
Co168 Co 0.92731 0.40792 0.41059 0.0
O169 O 0.92538 0.39818 0.46825 0.0
O170 O 0.9095 0.39583 0.4212 0.0
C171 C 0.94372 0.40651 0.37905 0.0
O172 O 0.92569 0.41599 0.34785 0.0
Co173 Co 0.95231 0.43324 0.38976 0.0
O174 O 0.94537 0.43018 0.32245 0.0
C175 C 0.93356 0.43283 0.46 0.0
C176 C 0.91324 0.39234 0.45975 0.0
C177 C 0.93344 0.42346 0.31524 0.0
O178 O 0.92585 0.42103 0.45073 0.0
O179 O 0.94469 0.43915 0.44129 0.0
O180 O 0.93213 0.3973 0.37254 0.0
O181 O 0.94497 0.41556 0.40724 0.0
Co182 Co 0.59785 0.52049 0.41844 0.0
O183 O 0.61381 0.53006 0.45119 0.0
O184 O 0.60824 0.51276 0.40684 0.0
C185 C 0.59733 0.5373 0.38623 0.0
O186 O 0.58246 0.50864 0.37755 0.0
Co187 Co 0.57506 0.52391 0.44913 0.0
O188 O 0.56675 0.51298 0.39138 0.0
C189 C 0.58222 0.50862 0.5104 0.0
C190 C 0.61674 0.52198 0.43337 0.0
C191 C 0.57133 0.50699 0.36874 0.0
O192 O 0.59009 0.5093 0.47749 0.0
O193 O 0.57632 0.51488 0.50829 0.0
O194 O 0.60381 0.53279 0.36496 0.0
O195 O 0.59259 0.5324 0.42819 0.0
Co196 Co 0.4733 0.07047 0.43301 0.0
O197 O 0.4637 0.07714 0.46376 0.0
O198 O 0.48264 0.08887 0.42954 0.0
C199 C 0.45684 0.0551 0.39061 0.0
O200 O 0.48569 0.06694 0.39569 0.0
Co201 Co 0.46669 0.04254 0.4517 0.0
O202 O 0.47921 0.04608 0.39885 0.0
C203 C 0.48025 0.06211 0.52699 0.0
C204 C 0.47296 0.08832 0.45213 0.0
C205 C 0.48671 0.05728 0.38316 0.0
O206 O 0.48189 0.07096 0.49691 0.0
O207 O 0.47335 0.05026 0.51736 0.0
O208 O 0.46292 0.06664 0.37373 0.0
O209 O 0.46019 0.05356 0.43352 0.0
Co210 Co 0.7404 0.5956 0.7363 0.0
O211 O 0.73044 0.59264 0.6783 0.0
O212 O 0.73067 0.57757 0.72313 0.0
C213 C 0.73573 0.60969 0.77005 0.0
O214 O 0.74907 0.59484 0.79878 0.0
Co215 Co 0.76296 0.62226 0.76265 0.0
O216 O 0.76101 0.6146 0.8283 0.0
C217 C 0.76635 0.60644 0.6884 0.0
C218 C 0.72635 0.58063 0.68511 0.0
C219 C 0.75576 0.60259 0.83288 0.0
O220 O 0.755 0.59719 0.69589 0.0
O221 O 0.77098 0.61726 0.70958 0.0
O222 O 0.72793 0.59757 0.77523 0.0
O223 O 0.7454 0.61278 0.74232 0.0
Co224 Co 0.40834 0.14857 0.74786 0.0
O225 O 0.41064 0.14225 0.68683 0.0
O226 O 0.42625 0.15682 0.73202 0.0
C227 C 0.39449 0.12946 0.77983 0.0
O228 O 0.40973 0.15709 0.81334 0.0
Co229 Co 0.38188 0.14413 0.78037 0.0
O230 O 0.39018 0.14911 0.84528 0.0
C231 C 0.39715 0.16427 0.70811 0.0
C232 C 0.42275 0.14981 0.69291 0.0
C233 C 0.40224 0.15562 0.84905 0.0
O234 O 0.40653 0.16222 0.71274 0.0
O235 O 0.38644 0.15759 0.72958 0.0
O236 O 0.40664 0.13367 0.78246 0.0
O237 O 0.39119 0.13635 0.75506 0.0
Co238 Co 0.85321 0.26085 0.74352 0.0
O239 O 0.86372 0.27546 0.70423 0.0
O240 O 0.84702 0.27273 0.74696 0.0
C241 C 0.86912 0.25954 0.78052 0.0
O242 O 0.8406 0.24737 0.78969 0.0
Co243 Co 0.85386 0.23579 0.72723 0.0
O244 O 0.84265 0.22997 0.78556 0.0
C245 C 0.84017 0.24304 0.6578 0.0
C246 C 0.85642 0.27983 0.71803 0.0
C247 C 0.8377 0.23614 0.80388 0.0
O248 O 0.84157 0.25204 0.68647 0.0
O249 O 0.84554 0.23642 0.66484 0.0
O250 O 0.86577 0.26753 0.79629 0.0
O251 O 0.86379 0.2538 0.74037 0.0
Co252 Co 0.40039 0.25635 0.23892 0.0
O253 O 0.40449 0.26601 0.17973 0.0
O254 O 0.41836 0.26882 0.23789 0.0
C255 C 0.38286 0.25748 0.25683 0.0
O256 O 0.39955 0.24838 0.30523 0.0
Co257 Co 0.37495 0.23083 0.24926 0.0
O258 O 0.37926 0.23345 0.31972 0.0
C259 C 0.39649 0.23161 0.19525 0.0
C260 C 0.4161 0.27219 0.19565 0.0
C261 C 0.39071 0.24048 0.33377 0.0
O262 O 0.40367 0.24343 0.20601 0.0
O263 O 0.3847 0.22521 0.20679 0.0
O264 O 0.39404 0.26675 0.26864 0.0
O265 O 0.38273 0.24851 0.23125 0.0
Co266 Co 0.73638 0.14344 0.24748 0.0
O267 O 0.7248 0.13504 0.19455 0.0
O268 O 0.72492 0.15006 0.24085 0.0
C269 C 0.73467 0.12569 0.28072 0.0
O270 O 0.74651 0.15417 0.30549 0.0
Co271 Co 0.76125 0.14249 0.2609 0.0
O272 O 0.76176 0.14975 0.32627 0.0
C273 C 0.76006 0.15978 0.18733 0.0
C274 C 0.72 0.14223 0.20438 0.0
C275 C 0.75536 0.15525 0.3343 0.0
O276 O 0.74875 0.15671 0.20107 0.0
O277 O 0.76626 0.1547 0.2048 0.0
O278 O 0.72632 0.12905 0.29114 0.0
O279 O 0.74316 0.1326 0.24897 0.0
Co280 Co 0.85552 0.59259 0.2365 0.0
O281 O 0.86252 0.58484 0.19562 0.0
O282 O 0.84609 0.57435 0.24561 0.0
C283 C 0.87423 0.60839 0.26471 0.0
O284 O 0.84619 0.59744 0.28582 0.0
Co285 Co 0.86162 0.62032 0.21649 0.0
O286 O 0.85297 0.61835 0.2801 0.0
C287 C 0.84327 0.59941 0.15409 0.0
C288 C 0.85392 0.5741 0.21385 0.0
C289 C 0.84642 0.60759 0.30092 0.0
O290 O 0.84337 0.59117 0.18329 0.0
O291 O 0.85082 0.6114 0.15829 0.0
O292 O 0.86911 0.59716 0.28443 0.0
O293 O 0.86858 0.60927 0.22633 0.0
Co294 Co 0.58993 0.07151 0.93474 0.0
O295 O 0.60594 0.07758 0.9667 0.0
O296 O 0.59908 0.08995 0.93553 0.0
C297 C 0.59132 0.05685 0.88881 0.0
O298 O 0.57425 0.06852 0.89686 0.0
Co299 Co 0.56861 0.04331 0.94792 0.0
O300 O 0.56005 0.04757 0.89564 0.0
C301 C 0.57407 0.06176 0.02715 0.0
C302 C 0.60802 0.08894 0.95767 0.0
C303 C 0.56373 0.05895 0.88226 0.0
O304 O 0.58141 0.07102 -0.00119 0.0
O305 O 0.56923 0.05006 0.01514 0.0
O306 O 0.59687 0.06862 0.87449 0.0
O307 O 0.58617 0.05466 0.9314 0.0
Co308 Co 0.92491 0.52374 0.91103 0.0
O309 O 0.92011 0.5315 0.96102 0.0
O310 O 0.90653 0.51532 0.91521 0.0
C311 C 0.93997 0.54175 0.87556 0.0
O312 O 0.92655 0.51354 0.85558 0.0
Co313 Co 0.95256 0.52828 0.91101 0.0
O314 O 0.94703 0.51853 0.84902 0.0
C315 C 0.93402 0.51084 0.98264 0.0
C316 C 0.90842 0.52318 0.95078 0.0
C317 C 0.93551 0.51259 0.83444 0.0
O318 O 0.92504 0.51145 0.96021 0.0
O319 O 0.94579 0.51785 0.97185 0.0
O320 O 0.92807 0.53727 0.86444 0.0
O321 O 0.9421 0.53609 0.911 0.0
Co322 Co 0.47857 0.40728 0.91106 0.0
O323 O 0.46875 0.39597 0.96277 0.0
O324 O 0.48473 0.39567 0.92507 0.0
C325 C 0.46163 0.40524 0.86957 0.0
O326 O 0.49068 0.41703 0.85547 0.0
Co327 Co 0.47793 0.43191 0.88752 0.0
O328 O 0.48634 0.43167 0.82585 0.0
C329 C 0.4932 0.43128 0.97117 0.0
C330 C 0.47578 0.39079 0.95782 0.0
C331 C 0.49214 0.42539 0.82342 0.0
O332 O 0.49067 0.41995 0.96007 0.0
O333 O 0.48846 0.43719 0.94854 0.0
O334 O 0.46527 0.39692 0.8636 0.0
O335 O 0.46782 0.41398 0.90144 0.0
Co336 Co 0.59507 0.73941 0.75166 0.0
O337 O 0.59222 0.72891 0.80817 0.0
O338 O 0.57736 0.72657 0.75538 0.0
C339 C 0.6128 0.73957 0.72557 0.0
O340 O 0.59419 0.74792 0.68906 0.0
Co341 Co 0.61951 0.76569 0.7379 0.0
O342 O 0.61354 0.764 0.66949 0.0
C343 C 0.5988 0.76325 0.8026 0.0
C344 C 0.58036 0.72274 0.7949 0.0
C345 C 0.60188 0.75653 0.65937 0.0
O346 O 0.5918 0.75143 0.79152 0.0
O347 O 0.61019 0.77023 0.78701 0.0
O348 O 0.60165 0.73003 0.715 0.0
O349 O 0.61281 0.748 0.75416 0.0
Co350 Co 0.26368 0.85652 0.74951 0.0
O351 O 0.27953 0.8651 0.78351 0.0
O352 O 0.27236 0.84684 0.74378 0.0
C353 C 0.26564 0.87384 0.71121 0.0
O354 O 0.2481 0.84538 0.70825 0.0
Co355 Co 0.24284 0.86367 0.7708 0.0
O356 O 0.23494 0.85338 0.71121 0.0
C357 C 0.24691 0.84749 0.84014 0.0
C358 C 0.28132 0.85593 0.76934 0.0
C359 C 0.23818 0.8457 0.69365 0.0
O360 O 0.25461 0.84666 0.8101 0.0
O361 O 0.24225 0.85477 0.83325 0.0
O362 O 0.27116 0.8679 0.6935 0.0
O363 O 0.26037 0.86995 0.75333 0.0
Co364 Co 0.1462 0.40286 0.75247 0.0
O365 O 0.14126 0.40642 0.81457 0.0
O366 O 0.15243 0.42084 0.7581 0.0
C367 C 0.12708 0.38614 0.73296 0.0
O368 O 0.15285 0.40302 0.68422 0.0
Co369 Co 0.14496 0.37719 0.72985 0.0
O370 O 0.1475 0.38322 0.66127 0.0
C371 C 0.16611 0.39676 0.78955 0.0
C372 C 0.14698 0.41822 0.80066 0.0
C373 C 0.15204 0.39498 0.65186 0.0
O374 O 0.16226 0.40476 0.78224 0.0
O375 O 0.16006 0.38524 0.77445 0.0
O376 O 0.12941 0.39766 0.72513 0.0
O377 O 0.13586 0.38517 0.75558 0.0
Co378 Co 0.40566 0.92935 0.0691 0.0
O379 O 0.39459 0.926 0.01415 0.0
O380 O 0.39489 0.91125 0.0609 0.0
C381 C 0.40295 0.94479 0.10251 0.0
O382 O 0.4153 0.92889 0.12893 0.0
Co383 Co 0.42982 0.95561 0.08653 0.0
O384 O 0.42973 0.94866 0.15218 0.0
C385 C 0.4302 0.9379 0.01302 0.0
C386 C 0.39014 0.91402 0.02351 0.0
C387 C 0.42358 0.9367 0.15932 0.0
O388 O 0.41888 0.92928 0.02498 0.0
O389 O 0.43585 0.94909 0.03137 0.0
O390 O 0.3947 0.93292 0.11083 0.0
O391 O 0.41184 0.94684 0.07195 0.0
Co392 Co 0.07318 0.47749 0.08272 0.0
O393 O 0.07775 0.47085 0.02742 0.0
O394 O 0.09098 0.48268 0.08611 0.0
C395 C 0.05523 0.45935 0.10266 0.0
O396 O 0.07212 0.48585 0.14551 0.0
Co397 Co 0.04797 0.47833 0.08586 0.0
O398 O 0.05251 0.48301 0.1551 0.0
C399 C 0.0704 0.49838 0.03341 0.0
C400 C 0.08914 0.47636 0.04579 0.0
C401 C 0.06376 0.48695 0.17056 0.0
O402 O 0.07711 0.49327 0.04476 0.0
O403 O 0.05868 0.4937 0.04479 0.0
O404 O 0.06626 0.46118 0.11654 0.0
O405 O 0.05552 0.46787 0.07374 0.0
Co406 Co 0.52203 0.59183 0.08469 0.0
O407 O 0.52973 0.60357 0.03192 0.0
O408 O 0.51469 0.60275 0.08022 0.0
C409 C 0.54016 0.59429 0.11724 0.0
O410 O 0.5122 0.58125 0.14344 0.0
Co411 Co 0.5249 0.56776 0.09037 0.0
O412 O 0.51733 0.56606 0.15613 0.0
C413 C 0.50759 0.56907 0.01823 0.0
C414 C 0.52238 0.60806 0.04356 0.0
C415 C 0.51175 0.57214 0.16898 0.0
O416 O 0.50873 0.57911 0.03885 0.0
O417 O 0.51423 0.56397 0.03012 0.0
O418 O 0.53642 0.60234 0.12771 0.0
O419 O 0.53362 0.58601 0.0843 0.0
Co420 Co 0.07184 0.59053 0.58401 0.0
O421 O 0.07361 0.60044 0.52693 0.0
O422 O 0.08926 0.60417 0.57796 0.0
C423 C 0.05389 0.58968 0.61127 0.0
O424 O 0.07372 0.58273 0.64693 0.0
Co425 Co 0.04815 0.5637 0.59906 0.0
O426 O 0.05578 0.56437 0.66353 0.0
C427 C 0.06913 0.56693 0.53432 0.0
C428 C 0.08549 0.60741 0.53883 0.0
C429 C 0.067 0.57305 0.67426 0.0
O430 O 0.07569 0.57886 0.54441 0.0
O431 O 0.05784 0.55962 0.55019 0.0
O432 O 0.06491 0.59949 0.62095 0.0
O433 O 0.05402 0.58125 0.58306 0.0
Co434 Co 0.4033 0.47714 0.58162 0.0
O435 O 0.39217 0.47084 0.52599 0.0
O436 O 0.39148 0.48337 0.58334 0.0
C437 C 0.40175 0.45845 0.60273 0.0
O438 O 0.41279 0.48534 0.6446 0.0
Co439 Co 0.42832 0.47615 0.58921 0.0
O440 O 0.42692 0.47899 0.65966 0.0
C441 C 0.42773 0.49671 0.53265 0.0
C442 C 0.3868 0.47695 0.54334 0.0
C443 C 0.4207 0.48435 0.67288 0.0
O444 O 0.41594 0.49241 0.54303 0.0
O445 O 0.43408 0.49143 0.54626 0.0
O446 O 0.39306 0.46108 0.61621 0.0
O447 O 0.4104 0.46664 0.5741 0.0
Co448 Co 0.52256 0.92917 0.5646 0.0
O449 O 0.53113 0.92383 0.52032 0.0
O450 O 0.51527 0.91093 0.56885 0.0
C451 C 0.53995 0.94593 0.59652 0.0
O452 O 0.51174 0.93146 0.61559 0.0
Co453 Co 0.525 0.95574 0.5496 0.0
O454 O 0.5151 0.95143 0.61131 0.0
C455 C 0.50876 0.93468 0.48406 0.0
C456 C 0.52344 0.91234 0.5352 0.0
C457 C 0.50991 0.94043 0.63094 0.0
O458 O 0.50994 0.92688 0.51225 0.0
O459 O 0.5151 0.94676 0.48957 0.0
O460 O 0.53622 0.93453 0.61264 0.0
O461 O 0.53402 0.94655 0.55852 0.0
Co462 Co 0.25615 0.40368 0.25261 0.0
O463 O 0.26497 0.40754 0.31407 0.0
O464 O 0.2678 0.42172 0.25715 0.0
C465 C 0.25868 0.38705 0.23338 0.0
O466 O 0.24927 0.4035 0.1848 0.0
Co467 Co 0.2318 0.3778 0.23216 0.0
O468 O 0.23496 0.38354 0.16319 0.0
C469 C 0.23022 0.39747 0.29118 0.0
C470 C 0.27088 0.41929 0.29959 0.0
C471 C 0.242 0.39527 0.15303 0.0
O472 O 0.24204 0.40552 0.28328 0.0
O473 O 0.22478 0.38591 0.27658 0.0
O474 O 0.26772 0.39857 0.22444 0.0
O475 O 0.249 0.38602 0.25671 0.0
Co476 Co 0.59212 0.85366 0.25316 0.0
O477 O 0.58778 0.86174 0.30353 0.0
O478 O 0.57388 0.84645 0.25516 0.0
C479 C 0.60833 0.87136 0.22031 0.0
O480 O 0.59317 0.84331 0.1971 0.0
Co481 Co 0.61875 0.85577 0.25537 0.0
O482 O 0.61302 0.84638 0.19261 0.0
C483 C 0.59905 0.83898 0.32466 0.0
C484 C 0.57601 0.85414 0.29157 0.0
C485 C 0.60165 0.84146 0.17674 0.0
O486 O 0.59076 0.8405 0.30115 0.0
O487 O 0.61098 0.84528 0.31556 0.0
O488 O 0.59667 0.86784 0.20817 0.0
O489 O 0.60961 0.86499 0.25527 0.0
Co490 Co 0.14246 0.74232 0.25179 0.0
O491 O 0.13318 0.73052 0.30273 0.0
O492 O 0.14996 0.73181 0.26532 0.0
C493 C 0.12522 0.73906 0.20904 0.0
O494 O 0.15419 0.75318 0.19683 0.0
Co495 Co 0.13906 0.76575 0.23419 0.0
O496 O 0.14771 0.76665 0.17161 0.0
C497 C 0.15443 0.76553 0.31765 0.0
C498 C 0.14108 0.72634 0.29809 0.0
C499 C 0.15449 0.76142 0.16648 0.0
O500 O 0.15371 0.75521 0.30188 0.0
O501 O 0.14847 0.77061 0.29793 0.0
O502 O 0.12976 0.73147 0.20331 0.0
O503 O 0.13056 0.74757 0.24249 0.0
C504 C 0.19809 0.958 0.28567 0.0
C505 C 0.19155 0.95451 0.33032 0.0
C506 C 0.19968 0.96862 0.26033 0.0
C507 C 0.19863 0.98924 0.20361 0.0
H508 H 0.21343 0.01984 0.28222 0.0
C509 C 0.22747 0.03909 0.11663 0.0
C510 C 0.2395 0.04618 0.1384 0.0
C511 C 0.21787 0.02826 0.14003 0.0
C512 C 0.20918 0.01137 0.25975 0.0
H513 H 0.18113 0.95915 0.38272 0.0
H514 H 0.18409 0.97801 0.33842 0.0
H515 H 0.20284 0.99915 0.32212 0.0
H516 H 0.25073 0.04786 0.20252 0.0
H517 H 0.2342 0.02913 0.24272 0.0
H518 H 0.20586 0.00147 0.14142 0.0
C519 C 0.18795 0.97244 0.32315 0.0
C520 C 0.20299 -0.00049 0.2826 0.0
C521 C 0.18626 0.96166 0.34845 0.0
C522 C 0.2416 0.04255 0.18457 0.0
C523 C 0.23204 0.03188 0.20799 0.0
C524 C 0.20484 0.00111 0.18076 0.0
C525 C 0.19482 0.9761 0.27906 0.0
C526 C 0.19823 0.98833 0.25485 0.0
C527 C 0.22012 0.02449 0.18582 0.0
C528 C 0.21075 0.01228 0.20875 0.0
H529 H 0.20222 0.95264 0.27053 0.0
H530 H 0.20523 0.97129 0.22703 0.0
H531 H 0.19483 0.98077 0.18124 0.0
H532 H 0.22558 0.04171 0.08113 0.0
H533 H 0.20876 0.02275 0.12209 0.0
C534 C 0.95969 0.19286 0.18773 0.0
C535 C 0.95667 0.18812 0.13992 0.0
C536 C 0.97078 0.1947 0.21009 0.0
C537 C 0.99289 0.19419 0.25731 0.0
H538 H 0.02306 0.21563 0.18119 0.0
C539 C 0.04228 0.22416 0.34747 0.0
C540 C 0.04781 0.23705 0.33457 0.0
C541 C 0.03205 0.21484 0.32043 0.0
C542 C 0.01474 0.2095 0.20279 0.0
H543 H 0.96264 0.18111 0.07855 0.0
H544 H 0.98235 0.18461 0.11759 0.0
H545 H 0.00242 0.20449 0.14085 0.0
H546 H 0.04737 0.25022 0.28217 0.0
H547 H 0.0297 0.23412 0.2355 0.0
H548 H 0.0051 0.19998 0.31981 0.0
C549 C 0.97603 0.18683 0.1377 0.0
C550 C 0.00292 0.20302 0.1796 0.0
C551 C 0.96477 0.18482 0.11541 0.0
C552 C 0.04327 0.24038 0.29328 0.0
C553 C 0.03322 0.23112 0.2661 0.0
C554 C 0.00471 0.20066 0.28049 0.0
C555 C 0.9792 0.19194 0.18511 0.0
C556 C 0.99181 0.19583 0.20704 0.0
C557 C 0.02736 0.21827 0.27966 0.0
C558 C 0.01565 0.20889 0.2538 0.0
H559 H 0.95359 0.1954 0.20775 0.0
H560 H 0.97303 0.19885 0.24626 0.0
H561 H 0.98449 0.18853 0.27924 0.0
H562 H 0.04563 0.22133 0.37907 0.0
H563 H 0.0277 0.205 0.33172 0.0
C564 C 0.77837 0.81721 0.34639 0.0
C565 C 0.76544 0.81178 0.33421 0.0
C566 C 0.78672 0.81575 0.31529 0.0
C567 C 0.78918 0.80543 0.18931 0.0
H568 H 0.80901 0.79234 0.25118 0.0
C569 C 0.79385 0.76435 0.11813 0.0
C570 C 0.80557 0.76475 0.11938 0.0
C571 C 0.79276 0.7745 0.13589 0.0
C572 C 0.80383 0.79632 0.23328 0.0
H573 H 0.75121 0.80093 0.27935 0.0
H574 H 0.76557 0.79822 0.226 0.0
H575 H 0.79973 0.80228 0.30102 0.0
H576 H 0.82546 0.77606 0.13869 0.0
H577 H 0.82342 0.79379 0.17234 0.0
H578 H 0.79237 0.79841 0.12218 0.0
C579 C 0.7694 0.80379 0.25893 0.0
C580 C 0.79849 0.80201 0.2618 0.0
C581 C 0.76111 0.80521 0.2899 0.0
C582 C 0.81635 0.77565 0.13713 0.0
C583 C 0.81519 0.78572 0.15635 0.0
C584 C 0.79439 0.79963 0.16096 0.0
C585 C 0.78228 0.80892 0.27138 0.0
C586 C 0.79055 0.80602 0.24039 0.0
C587 C 0.80332 0.78511 0.15643 0.0
C588 C 0.80124 0.79449 0.18306 0.0
H589 H 0.78199 0.82239 0.38024 0.0
H590 H 0.79659 0.81985 0.32583 0.0
H591 H 0.78339 0.80874 0.17155 0.0
H592 H 0.78542 0.75602 0.10457 0.0
H593 H 0.78347 0.77371 0.13615 0.0
C594 C 0.76242 0.9695 0.85985 0.0
C595 C 0.76571 0.96023 0.87083 0.0
C596 C 0.77154 0.98137 0.84254 0.0
C597 C 0.7971 0.99642 0.76355 0.0
H598 H 0.80237 0.02756 0.82384 0.0
C599 C 0.81709 0.0431 0.65368 0.0
C600 C 0.81021 0.04947 0.6601 0.0
C601 C 0.81547 0.03348 0.68602 0.0
C602 C 0.80104 0.01897 0.80649 0.0
H603 H 0.78105 0.95602 0.87288 0.0
H604 H 0.79709 0.97687 0.83984 0.0
H605 H 0.79243 0.0078 0.87051 0.0
H606 H 0.79649 0.05099 0.70599 0.0
H607 H 0.7934 0.03411 0.76126 0.0
H608 H 0.80458 0.00723 0.69812 0.0
C609 C 0.78747 0.97492 0.84597 0.0
C610 C 0.79549 0.00772 0.83343 0.0
C611 C 0.77835 0.96307 0.86474 0.0
C612 C 0.80194 0.04628 0.70006 0.0
C613 C 0.80028 0.03666 0.73214 0.0
C614 C 0.80249 0.00765 0.73628 0.0
C615 C 0.78407 0.98412 0.83481 0.0
C616 C 0.79304 0.99629 0.81155 0.0
C617 C 0.80691 0.03004 0.72532 0.0
C618 C 0.80397 0.01893 0.75683 0.0
H619 H 0.75276 0.96756 0.86454 0.0
H620 H 0.76871 0.98829 0.83364 0.0
H621 H 0.79516 0.98764 0.74589 0.0
H622 H 0.82361 0.04542 0.62334 0.0
H623 H 0.8208 0.02865 0.67994 0.0
C624 C 0.04586 0.8066 0.775 0.0
C625 C 0.04702 0.81072 0.82353 0.0
C626 C 0.03478 0.80316 0.74872 0.0
C627 C 0.00357 0.80201 0.74892 0.0
H628 H 0.99213 0.7688 0.69201 0.0
C629 C 0.95498 0.75346 0.69402 0.0
C630 C 0.94961 0.75707 0.65629 0.0
C631 C 0.96677 0.76212 0.71339 0.0
C632 C 0.99522 0.7781 0.70753 0.0
H633 H 0.03796 0.81544 0.88153 0.0
H634 H 0.01833 0.809 0.836 0.0
H635 H 0.01354 0.78084 0.72413 0.0
H636 H 0.95194 0.77284 0.61165 0.0
H637 H 0.9728 0.78814 0.64604 0.0
H638 H 0.98483 0.79884 0.73317 0.0
C639 C 0.02607 0.80862 0.818 0.0
C640 C 0.00754 0.78508 0.72546 0.0
C641 C 0.03727 0.81224 0.84418 0.0
C642 C 0.95589 0.7698 0.64063 0.0
C643 C 0.96778 0.77854 0.66026 0.0
C644 C 0.99116 0.795 0.73045 0.0
C645 C 0.02453 0.80355 0.77068 0.0
C646 C 0.01183 0.79703 0.74707 0.0
C647 C 0.97347 0.7746 0.69556 0.0
C648 C 0.98683 0.78285 0.7107 0.0
H649 H 0.05334 0.80557 0.75788 0.0
H650 H 0.034 0.79958 0.7119 0.0
H651 H 0.00664 0.81122 0.7652 0.0
H652 H 0.9503 0.74377 0.70739 0.0
H653 H 0.97089 0.75893 0.74117 0.0
C654 C 0.23944 0.19368 0.69964 0.0
C655 C 0.23483 0.18597 0.65799 0.0
C656 C 0.23119 0.19527 0.73028 0.0
C657 C 0.21189 0.19461 0.8 0.0
H658 H 0.19001 0.20438 0.73253 0.0
C659 C 0.20587 0.23632 0.85071 0.0
C660 C 0.19366 0.23453 0.85816 0.0
C661 C 0.20745 0.22639 0.83396 0.0
C662 C 0.19579 0.20133 0.75205 0.0
H663 H 0.21787 0.17344 0.61676 0.0
H664 H 0.20336 0.17625 0.67062 0.0
H665 H 0.19941 0.19374 0.68751 0.0
H666 H 0.17348 0.22099 0.85436 0.0
H667 H 0.17629 0.20356 0.82224 0.0
H668 H 0.20921 0.20334 0.86334 0.0
C669 C 0.2134 0.18112 0.67929 0.0
C670 C 0.20118 0.19524 0.72635 0.0
C671 C 0.2217 0.17949 0.64855 0.0
C672 C 0.18299 0.22255 0.84891 0.0
C673 C 0.18458 0.21264 0.83068 0.0
C674 C 0.20663 0.20082 0.82543 0.0
C675 C 0.2181 0.18919 0.72013 0.0
C676 C 0.20982 0.19242 0.74953 0.0
C677 C 0.19685 0.21454 0.82327 0.0
C678 C 0.19901 0.20473 0.80108 0.0
H679 H 0.24951 0.19878 0.70801 0.0
H680 H 0.23521 0.20175 0.76078 0.0
H681 H 0.21826 0.19227 0.81918 0.0
H682 H 0.21425 0.24543 0.85794 0.0
H683 H 0.21699 0.22809 0.82795 0.0
C684 C 0.84912 0.29501 0.69274 0.0
C685 C 0.85902 0.29244 0.7017 0.0
C686 C 0.85183 0.30676 0.67314 0.0
C687 C 0.87608 0.33977 0.66273 0.0
H688 H 0.86797 0.33916 0.52547 0.0
C689 C 0.90898 0.37889 0.53363 0.0
C690 C 0.90427 0.38219 0.49277 0.0
C691 C 0.90079 0.36904 0.5643 0.0
C692 C 0.87004 0.33958 0.5641 0.0
H693 H 0.87941 0.30018 0.69957 0.0
H694 H 0.88413 0.32079 0.66727 0.0
H695 H 0.85781 0.31946 0.57279 0.0
H696 H 0.88721 0.37797 0.45268 0.0
H697 H 0.87278 0.36066 0.50679 0.0
H698 H 0.88859 0.35974 0.65419 0.0
C699 C 0.87432 0.3137 0.67458 0.0
C700 C 0.86422 0.3283 0.5911 0.0
C701 C 0.87162 0.30191 0.69276 0.0
C702 C 0.89111 0.37559 0.48382 0.0
C703 C 0.88286 0.36567 0.51473 0.0
C704 C 0.88175 0.35106 0.63605 0.0
C705 C 0.86446 0.31615 0.66392 0.0
C706 C 0.86766 0.32825 0.63995 0.0
C707 C 0.88764 0.36223 0.55515 0.0
C708 C 0.87932 0.35098 0.58578 0.0
H709 H 0.83932 0.28779 0.69917 0.0
H710 H 0.8441 0.30849 0.66481 0.0
H711 H 0.87882 0.33991 0.70048 0.0
H712 H 0.91906 0.38377 0.54159 0.0
H713 H 0.90488 0.36648 0.59431 0.0
C714 C 0.63086 0.51351 0.45933 0.0
C715 C 0.62937 0.52362 0.44283 0.0
C716 C 0.64273 0.51584 0.47641 0.0
C717 C 0.67695 0.53957 0.47806 0.0
H718 H 0.67562 0.53338 0.61737 0.0
C719 C 0.71389 0.57496 0.60791 0.0
C720 C 0.71717 0.57101 0.65097 0.0
C721 C 0.70473 0.5661 0.57651 0.0
C722 C 0.67625 0.5349 0.57827 0.0
H723 H 0.639 0.54381 0.42792 0.0
H724 H 0.65971 0.54782 0.45582 0.0
H725 H 0.65621 0.52252 0.56892 0.0
H726 H 0.71371 0.55463 0.69416 0.0
H727 H 0.6975 0.53905 0.63907 0.0
H728 H 0.69684 0.55245 0.48762 0.0
C729 C 0.65182 0.53814 0.45615 0.0
C730 C 0.66512 0.52866 0.55052 0.0
C731 C 0.63997 0.53588 0.44049 0.0
C732 C 0.71133 0.55795 0.66128 0.0
C733 C 0.70206 0.54904 0.62982 0.0
C734 C 0.68809 0.54572 0.50564 0.0
C735 C 0.65325 0.52824 0.47564 0.0
C736 C 0.66528 0.53148 0.50073 0.0
C737 C 0.69856 0.55305 0.58733 0.0
C738 C 0.68772 0.54401 0.55652 0.0
H739 H 0.62274 0.50399 0.46177 0.0
H740 H 0.64361 0.50809 0.49159 0.0
H741 H 0.67732 0.54181 0.43958 0.0
H742 H 0.71824 0.58495 0.5988 0.0
H743 H 0.70211 0.56958 0.54469 0.0
C744 C 0.42758 0.14268 0.61473 0.0
C745 C 0.43199 0.14974 0.65801 0.0
C746 C 0.43589 0.14117 0.58414 0.0
C747 C 0.46517 0.13979 0.5912 0.0
H748 H 0.45801 0.13246 0.45333 0.0
C749 C 0.48287 0.11111 0.47831 0.0
C750 C 0.47214 0.09972 0.46363 0.0
C751 C 0.48152 0.12134 0.4944 0.0
C752 C 0.46032 0.13471 0.49157 0.0
H753 H 0.44872 0.16139 0.70185 0.0
H754 H 0.46335 0.15876 0.64802 0.0
H755 H 0.44933 0.14397 0.49668 0.0
H756 H 0.45182 0.09024 0.45134 0.0
H757 H 0.44954 0.10814 0.47765 0.0
H758 H 0.47573 0.13002 0.58617 0.0
C759 C 0.4534 0.15429 0.63809 0.0
C760 C 0.45528 0.14121 0.51652 0.0
C761 C 0.44504 0.15584 0.6688 0.0
C762 C 0.46022 0.09891 0.46273 0.0
C763 C 0.45894 0.10918 0.4774 0.0
C764 C 0.47035 0.13343 0.56602 0.0
C765 C 0.44885 0.14669 0.59595 0.0
C766 C 0.45703 0.14316 0.56722 0.0
C767 C 0.4695 0.12038 0.49436 0.0
C768 C 0.4674 0.13026 0.51663 0.0
H769 H 0.41759 0.13791 0.60522 0.0
H770 H 0.43196 0.13507 0.55255 0.0
H771 H 0.46669 0.14109 0.63022 0.0
H772 H 0.49215 0.1119 0.47945 0.0
H773 H 0.48978 0.12987 0.50767 0.0
C774 C 0.4366 0.29292 0.19072 0.0
C775 C 0.42594 0.28299 0.16757 0.0
C776 C 0.44455 0.30416 0.16524 0.0
C777 C 0.4411 0.32225 0.06657 0.0
H778 H 0.47743 0.34497 0.07981 0.0
C779 C 0.47951 0.37265 0.97705 0.0
C780 C 0.47304 0.37934 0.98614 0.0
C781 C 0.47567 0.36098 0.00015 0.0
C782 C 0.4673 0.33864 0.07565 0.0
H783 H 0.41597 0.2764 0.0987 0.0
H784 H 0.42992 0.29579 0.05419 0.0
H785 H 0.46752 0.32352 0.11565 0.0
H786 H 0.45804 0.37947 0.02877 0.0
H787 H 0.45137 0.35921 0.06848 0.0
H788 H 0.44073 0.33727 0.02757 0.0
C789 C 0.43196 0.29512 0.09222 0.0
C790 C 0.46163 0.32644 0.09627 0.0
C791 C 0.42398 0.28401 0.11769 0.0
C792 C 0.46314 0.3745 0.02051 0.0
C793 C 0.45929 0.36288 0.04325 0.0
C794 C 0.4467 0.33437 0.04655 0.0
C795 C 0.44197 0.30553 0.11624 0.0
C796 C 0.44844 0.31816 0.09209 0.0
C797 C 0.46527 0.35585 0.0323 0.0
C798 C 0.4598 0.34276 0.05142 0.0
H799 H 0.43834 0.29234 0.22916 0.0
H800 H 0.45218 0.31203 0.18474 0.0
H801 H 0.43089 0.3162 0.06332 0.0
H802 H 0.48721 0.37619 0.95085 0.0
H803 H 0.48041 0.35571 0.99114 0.0
C804 C 0.70322 0.14813 0.1882 0.0
C805 C 0.70962 0.14166 0.17436 0.0
C806 C 0.6932 0.14721 0.15973 0.0
C807 C 0.67858 0.13752 0.0367 0.0
H808 H 0.64656 0.12602 0.10387 0.0
C809 C 0.63133 0.09917 0.96545 0.0
C810 C 0.62029 0.09999 0.97103 0.0
C811 C 0.64292 0.10874 0.98324 0.0
C812 C 0.65548 0.12958 0.08453 0.0
H813 H 0.71078 0.12945 0.11934 0.0
H814 H 0.69341 0.12779 0.0702 0.0
H815 H 0.66625 0.13469 0.15089 0.0
H816 H 0.61263 0.11153 -0.00193 0.0
H817 H 0.63307 0.12824 0.03149 0.0
H818 H 0.66768 0.13148 0.97075 0.0
C819 C 0.69614 0.13369 0.1026 0.0
C820 C 0.66676 0.13452 0.11145 0.0
C821 C 0.70602 0.13451 0.13112 0.0
C822 C 0.62108 0.11078 0.99319 0.0
C823 C 0.63271 0.12028 0.01231 0.0
C824 C 0.66733 0.13253 0.0099 0.0
C825 C 0.68955 0.13994 0.11666 0.0
C826 C 0.67832 0.1379 0.08795 0.0
C827 C 0.64368 0.11921 0.00799 0.0
C828 C 0.65562 0.12793 0.03383 0.0
H829 H 0.70581 0.15374 0.22133 0.0
H830 H 0.68827 0.15212 0.17146 0.0
H831 H 0.6874 0.14033 0.01752 0.0
H832 H 0.63093 0.09094 0.94836 0.0
H833 H 0.65116 0.10757 0.98002 0.0
C834 C 0.84298 0.5525 0.17602 0.0
C835 C 0.8536 0.56232 0.19971 0.0
C836 C 0.84381 0.54246 0.15445 0.0
C837 C 0.86321 0.52686 0.14958 0.0
H838 H 0.86157 0.52882 0.00866 0.0
C839 C 0.90083 0.52837 0.02659 0.0
C840 C 0.89796 0.52243 0.98076 0.0
C841 C 0.89129 0.52806 0.05564 0.0
C842 C 0.86172 0.52779 0.0479 0.0
H843 H 0.87302 0.56919 0.22229 0.0
H844 H 0.87434 0.55153 0.18653 0.0
H845 H 0.85127 0.53745 0.06017 0.0
H846 H 0.88281 0.51126 0.92959 0.0
H847 H 0.86597 0.51106 0.98039 0.0
H848 H 0.87445 0.51807 0.13746 0.0
C849 C 0.86542 0.5515 0.18417 0.0
C850 C 0.85581 0.53272 0.0774 0.0
C851 C 0.86471 0.56163 0.20441 0.0
C852 C 0.88526 0.51595 0.96478 0.0
C853 C 0.87566 0.51581 0.99377 0.0
C854 C 0.86905 0.52189 0.12018 0.0
C855 C 0.85513 0.54203 0.15771 0.0
C856 C 0.85721 0.533 0.12838 0.0
C857 C 0.87863 0.52188 0.03952 0.0
C858 C 0.86906 0.52307 0.06913 0.0
H859 H 0.83438 0.55299 0.17162 0.0
H860 H 0.8358 0.53531 0.13389 0.0
H861 H 0.8643 0.52686 0.18884 0.0
H862 H 0.9105 0.53337 0.04013 0.0
H863 H 0.89394 0.53307 0.09019 0.0
C864 C 0.55821 0.70451 0.80657 0.0
C865 C 0.57079 0.71178 0.82331 0.0
C866 C 0.54942 0.69371 0.83225 0.0
C867 C 0.53733 0.6667 0.87178 0.0
H868 H 0.53828 0.66441 0.0128 0.0
C869 C 0.52914 0.62213 0.97077 0.0
C870 C 0.52318 0.61895 0.0166 0.0
C871 C 0.53123 0.63311 0.94675 0.0
C872 C 0.53766 0.66491 0.97349 0.0
H873 H 0.58389 0.71374 0.88097 0.0
H874 H 0.56866 0.69488 0.92528 0.0
H875 H 0.54909 0.6852 0.97336 0.0
H876 H 0.51426 0.62446 0.07248 0.0
H877 H 0.51813 0.64395 0.0305 0.0
H878 H 0.52627 0.64639 0.87181 0.0
C879 C 0.5655 0.69756 0.89272 0.0
C880 C 0.54398 0.67681 0.95087 0.0
C881 C 0.57428 0.70831 0.86702 0.0
C882 C 0.51888 0.62671 0.03715 0.0
C883 C 0.52113 0.63785 0.01327 0.0
C884 C 0.53103 0.65482 0.89439 0.0
C885 C 0.55302 0.69002 0.87526 0.0
C886 C 0.5443 0.67779 0.89967 0.0
C887 C 0.52752 0.64125 0.96815 0.0
C888 C 0.53158 0.65377 0.94532 0.0
H889 H 0.55522 0.70701 0.77312 0.0
H890 H 0.53985 0.68814 0.81808 0.0
H891 H 0.5374 0.66711 0.83228 0.0
H892 H 0.5325 0.61628 0.95389 0.0
H893 H 0.53634 0.63553 0.91242 0.0
C894 C 0.37404 0.89121 0.00626 0.0
C895 C 0.38032 0.90406 0.99218 0.0
C896 C 0.36449 0.88194 0.97674 0.0
C897 C 0.35106 0.87642 0.85151 0.0
H898 H 0.31846 0.85618 0.91512 0.0
C899 C 0.3047 0.86787 0.7729 0.0
C900 C 0.29335 0.85644 0.78076 0.0
C901 C 0.31614 0.86954 0.79095 0.0
C902 C 0.32754 0.86144 0.89677 0.0
H903 H 0.38181 0.91723 0.93563 0.0
H904 H 0.36522 0.90118 0.8845 0.0
H905 H 0.33769 0.86735 0.96443 0.0
H906 H 0.28493 0.83756 0.81174 0.0
H907 H 0.30512 0.84065 0.84539 0.0
H908 H 0.34078 0.87128 0.78407 0.0
C909 C 0.3677 0.89819 0.91799 0.0
C910 C 0.33856 0.86787 0.92503 0.0
C911 C 0.37711 0.90742 0.9476 0.0
C912 C 0.29365 0.84641 0.80499 0.0
C913 C 0.30513 0.8482 0.82426 0.0
C914 C 0.34006 0.87002 0.82333 0.0
C915 C 0.3612 0.88536 0.93237 0.0
C916 C 0.35031 0.87598 0.90273 0.0
C917 C 0.31643 0.8599 0.81826 0.0
C918 C 0.32812 0.86305 0.84586 0.0
H919 H 0.37635 0.88835 0.04043 0.0
H920 H 0.35962 0.87214 0.98873 0.0
H921 H 0.36004 0.88239 0.83332 0.0
H922 H 0.30463 0.87572 0.75439 0.0
H923 H 0.32462 0.87873 0.78637 0.0
C924 C 0.14556 0.4269 0.88132 0.0
C925 C 0.14633 0.42797 0.83034 0.0
C926 C 0.14327 0.43518 0.90915 0.0
C927 C 0.13891 0.46377 0.89984 0.0
H928 H 0.11625 0.44726 0.00908 0.0
C929 C 0.09874 0.47198 0.97324 0.0
C930 C 0.09928 0.47481 0.02317 0.0
C931 C 0.10757 0.46917 0.95271 0.0
C932 C 0.12273 0.45205 0.97912 0.0
H933 H 0.14577 0.4387 0.7683 0.0
H934 H 0.14091 0.45258 0.81604 0.0
H935 H 0.12603 0.43662 0.96812 0.0
H936 H 0.10964 0.47732 0.09057 0.0
H937 H 0.12479 0.47182 0.05481 0.0
H938 H 0.13448 0.4787 0.90896 0.0
C939 C 0.14258 0.44578 0.83531 0.0
C940 C 0.12846 0.44601 0.95567 0.0
C941 C 0.14528 0.43775 0.80769 0.0
C942 C 0.10906 0.47522 0.05192 0.0
C943 C 0.1177 0.47208 0.03161 0.0
C944 C 0.13289 0.46965 0.92261 0.0
C945 C 0.14121 0.4444 0.88642 0.0
C946 C 0.13646 0.45166 0.91504 0.0
C947 C 0.11689 0.46888 0.98202 0.0
C948 C 0.12463 0.46373 0.96195 0.0
H949 H 0.14651 0.41951 0.89962 0.0
H950 H 0.14275 0.43406 0.94842 0.0
H951 H 0.14524 0.46862 0.8696 0.0
H952 H 0.09131 0.47165 0.9503 0.0
H953 H 0.10673 0.4666 0.91446 0.0
C954 C 0.10599 0.628 0.52828 0.0
C955 C 0.09403 0.61886 0.51023 0.0
C956 C 0.11323 0.63954 0.50362 0.0
C957 C 0.10768 0.66051 0.4255 0.0
H958 H 0.14419 0.67925 0.40544 0.0
C959 C 0.14424 0.70767 0.31268 0.0
C960 C 0.1394 0.71547 0.32777 0.0
C961 C 0.14071 0.69625 0.33731 0.0
C962 C 0.13399 0.67407 0.41076 0.0
H963 H 0.0807 0.61419 0.45043 0.0
H964 H 0.0933 0.63418 0.4075 0.0
H965 H 0.13407 0.65777 0.44093 0.0
H966 H 0.12811 0.71813 0.38283 0.0
H967 H 0.12214 0.69845 0.42578 0.0
H968 H 0.10744 0.67659 0.39565 0.0
C969 C 0.097 0.63258 0.4411 0.0
C970 C 0.12822 0.66185 0.43123 0.0
C971 C 0.08979 0.62112 0.46569 0.0
C972 C 0.1318 0.71219 0.3698 0.0
C973 C 0.12836 0.7009 0.39439 0.0
C974 C 0.11341 0.67265 0.40559 0.0
C975 C 0.10858 0.64208 0.46059 0.0
C976 C 0.11499 0.65495 0.43856 0.0
C977 C 0.13235 0.69257 0.37731 0.0
C978 C 0.12661 0.67961 0.39822 0.0
H979 H 0.10951 0.62647 0.56248 0.0
H980 H 0.12211 0.64672 0.51953 0.0
H981 H 0.0975 0.65552 0.43134 0.0
H982 H 0.15015 0.71002 0.28043 0.0
H983 H 0.14392 0.68998 0.32342 0.0
C984 C 0.37298 0.47282 0.47046 0.0
C985 C 0.37534 0.47584 0.52024 0.0
C986 C 0.36142 0.47021 0.44971 0.0
C987 C 0.32917 0.45371 0.47677 0.0
H988 H 0.32344 0.46977 0.36499 0.0
C989 C 0.2811 0.42841 0.37962 0.0
C990 C 0.28135 0.42918 0.32857 0.0
C991 C 0.29173 0.43679 0.40697 0.0
C992 C 0.32486 0.46506 0.39588 0.0
H993 H 0.36771 0.47891 0.5871 0.0
H994 H 0.34718 0.47375 0.55101 0.0
H995 H 0.34431 0.47986 0.40413 0.0
H996 H 0.29262 0.43946 0.26582 0.0
H997 H 0.31147 0.45349 0.31279 0.0
H998 H 0.31034 0.43837 0.46669 0.0
C999 C 0.35443 0.47373 0.52806 0.0
C1000 C 0.33678 0.47095 0.41852 0.0
C1001 C 0.36614 0.47667 0.54856 0.0
C1002 C 0.29219 0.43876 0.30528 0.0
C1003 C 0.30299 0.44687 0.33246 0.0
C1004 C 0.31738 0.44765 0.45346 0.0
C1005 C 0.35195 0.4703 0.47868 0.0
C1006 C 0.33904 0.46521 0.45869 0.0
C1007 C 0.30304 0.4458 0.38371 0.0
C1008 C 0.31509 0.45311 0.41204 0.0
H1009 H 0.37994 0.47216 0.44786 0.0
H1010 H 0.35961 0.46745 0.41165 0.0
H1011 H 0.3308 0.44905 0.50736 0.0
H1012 H 0.27274 0.42118 0.39837 0.0
H1013 H 0.29116 0.4359 0.44632 0.0
C1014 C 0.51657 0.88906 0.53113 0.0
C1015 C 0.5238 0.90149 0.51273 0.0
C1016 C 0.51719 0.87899 0.50884 0.0
C1017 C 0.53113 0.86463 0.47222 0.0
H1018 H 0.53168 0.86364 0.33068 0.0
C1019 C 0.56834 0.86013 0.36544 0.0
C1020 C 0.56564 0.85407 0.31983 0.0
C1021 C 0.55888 0.86073 0.39188 0.0
C1022 C 0.53123 0.86344 0.37019 0.0
H1023 H 0.53718 0.91308 0.45643 0.0
H1024 H 0.53815 0.89565 0.41782 0.0
H1025 H 0.5222 0.87471 0.37149 0.0
H1026 H 0.55078 0.84338 0.26695 0.0
H1027 H 0.53416 0.84477 0.31295 0.0
H1028 H 0.54104 0.85417 0.47085 0.0
C1029 C 0.53194 0.89362 0.44903 0.0
C1030 C 0.52586 0.86984 0.39351 0.0
C1031 C 0.53147 0.90363 0.47152 0.0
C1032 C 0.55313 0.84819 0.3019 0.0
C1033 C 0.54364 0.84894 0.32823 0.0
C1034 C 0.53656 0.85826 0.44886 0.0
C1035 C 0.52483 0.88123 0.46736 0.0
C1036 C 0.52645 0.87112 0.44454 0.0
C1037 C 0.54649 0.85539 0.37319 0.0
C1038 C 0.53733 0.85828 0.39759 0.0
H1039 H 0.51057 0.88715 0.56287 0.0
H1040 H 0.51173 0.8695 0.52383 0.0
H1041 H 0.53168 0.86547 0.51163 0.0
H1042 H 0.57786 0.86463 0.38047 0.0
H1043 H 0.56146 0.86598 0.4259 0.0
C1044 C 0.26981 0.14958 0.63525 0.0
C1045 C 0.26501 0.1576 0.64746 0.0
C1046 C 0.26885 0.14035 0.66796 0.0
C1047 C 0.25464 0.12437 0.78687 0.0
H1048 H 0.28547 0.12233 0.79314 0.0
C1049 C 0.2845 0.11189 0.93419 0.0
C1050 C 0.27483 0.10072 0.95571 0.0
C1051 C 0.28208 0.11698 0.89272 0.0
C1052 C 0.2768 0.1228 0.79203 0.0
H1053 H 0.2549 0.16191 0.70232 0.0
H1054 H 0.25376 0.14618 0.7609 0.0
H1055 H 0.28301 0.13461 0.72898 0.0
H1056 H 0.25504 0.08596 0.94949 0.0
H1057 H 0.25087 0.0948 0.87621 0.0
H1058 H 0.24887 0.11314 0.85216 0.0
C1059 C 0.25798 0.14677 0.72551 0.0
C1060 C 0.27528 0.1297 0.75465 0.0
C1061 C 0.2587 0.15584 0.69215 0.0
C1062 C 0.26271 0.09459 0.9339 0.0
C1063 C 0.26029 0.0997 0.89213 0.0
C1064 C 0.25623 0.11753 0.82471 0.0
C1065 C 0.26335 0.13913 0.71428 0.0
C1066 C 0.26427 0.13076 0.75188 0.0
C1067 C 0.26994 0.111 0.87127 0.0
C1068 C 0.26746 0.11691 0.82826 0.0
H1069 H 0.27448 0.15056 0.60052 0.0
H1070 H 0.27271 0.13438 0.65729 0.0
H1071 H 0.24596 0.12481 0.78551 0.0
H1072 H 0.29394 0.11692 0.94989 0.0
H1073 H 0.28968 0.12582 0.87825 0.0
C1074 C 0.85202 0.11984 0.6316 0.0
C1075 C 0.84331 0.10712 0.64296 0.0
C1076 C 0.86168 0.12743 0.66421 0.0
C1077 C 0.87737 0.12712 0.78151 0.0
H1078 H 0.8813 0.16068 0.79432 0.0
C1079 C 0.89049 0.16747 0.93739 0.0
C1080 C 0.90142 0.16837 0.95889 0.0
C1081 C 0.88554 0.16065 0.89441 0.0
C1082 C 0.88032 0.15134 0.79129 0.0
H1083 H 0.83824 0.09213 0.69604 0.0
H1084 H 0.85474 0.10554 0.75439 0.0
H1085 H 0.86877 0.14707 0.7279 0.0
H1086 H 0.91586 0.16294 0.95128 0.0
H1087 H 0.9072 0.15106 0.87533 0.0
H1088 H 0.88832 0.13126 0.84729 0.0
C1089 C 0.85435 0.10961 0.71974 0.0
C1090 C 0.87327 0.14356 0.75263 0.0
C1091 C 0.84483 0.10193 0.6865 0.0
C1092 C 0.90743 0.16244 0.93569 0.0
C1093 C 0.90244 0.15557 0.89238 0.0
C1094 C 0.88437 0.13491 0.82063 0.0
C1095 C 0.86268 0.12256 0.70956 0.0
C1096 C 0.87147 0.13124 0.7477 0.0
C1097 C 0.89141 0.15459 0.8714 0.0
C1098 C 0.88562 0.14698 0.82659 0.0
H1099 H 0.85122 0.12401 0.59775 0.0
H1100 H 0.86814 0.13723 0.65438 0.0
H1101 H 0.87636 0.11778 0.77843 0.0
H1102 H 0.88557 0.17187 0.95409 0.0
H1103 H 0.8769 0.15989 0.87985 0.0
C1104 C 0.89486 0.73361 0.71347 0.0
C1105 C 0.89248 0.72152 0.69867 0.0
C1106 C 0.88725 0.73479 0.74919 0.0
C1107 C 0.85519 0.71635 0.80186 0.0
H1108 H 0.86826 0.74045 0.9088 0.0
C1109 C 0.82501 0.71108 0.96991 0.0
C1110 C 0.82552 0.72202 0.98954 0.0
C1111 C 0.83341 0.71209 0.93315 0.0
C1112 C 0.86447 0.73379 0.87872 0.0
H1113 H 0.88072 0.70125 0.71201 0.0
H1114 H 0.86768 0.70334 0.77412 0.0
H1115 H 0.88295 0.74039 0.84762 0.0
H1116 H 0.83534 0.74262 0.98577 0.0
H1117 H 0.85003 0.74433 0.92128 0.0
H1118 H 0.83678 0.70961 0.83291 0.0
C1119 C 0.87518 0.71189 0.75737 0.0
C1120 C 0.87287 0.73376 0.84378 0.0
C1121 C 0.88273 0.71071 0.72187 0.0
C1122 C 0.83467 0.734 0.97145 0.0
C1123 C 0.84313 0.735 0.93472 0.0
C1124 C 0.84684 0.71637 0.83663 0.0
C1125 C 0.87715 0.7239 0.77062 0.0
C1126 C 0.86833 0.72483 0.80561 0.0
C1127 C 0.84254 0.72404 0.91509 0.0
C1128 C 0.8514 0.7249 0.876 0.0
H1129 H 0.90231 0.74213 0.69636 0.0
H1130 H 0.88899 0.74417 0.75876 0.0
H1131 H 0.85136 0.70957 0.77216 0.0
H1132 H 0.81813 0.7017 0.98291 0.0
H1133 H 0.83284 0.70347 0.91929 0.0
C1134 C 0.16566 0.25683 0.7626 0.0
C1135 C 0.16979 0.2677 0.7919 0.0
C1136 C 0.156 0.25359 0.728 0.0
C1137 C 0.12873 0.25743 0.69944 0.0
H1138 H 0.13774 0.25922 0.56275 0.0
C1139 C 0.11694 0.27627 0.51736 0.0
C1140 C 0.10368 0.26884 0.51216 0.0
C1141 C 0.12344 0.27262 0.54942 0.0
C1142 C 0.13501 0.25845 0.60079 0.0
H1143 H 0.16677 0.28344 0.809 0.0
H1144 H 0.14986 0.27765 0.74974 0.0
H1145 H 0.15196 0.25882 0.62537 0.0
H1146 H 0.08682 0.25174 0.53651 0.0
H1147 H 0.09827 0.24563 0.59471 0.0
H1148 H 0.11207 0.25764 0.67501 0.0
C1149 C 0.15414 0.27171 0.75311 0.0
C1150 C 0.14309 0.25816 0.63647 0.0
C1151 C 0.16393 0.27509 0.78663 0.0
C1152 C 0.09704 0.25765 0.53986 0.0
C1153 C 0.10356 0.25414 0.57297 0.0
C1154 C 0.12055 0.2575 0.66375 0.0
C1155 C 0.1501 0.26098 0.72341 0.0
C1156 C 0.14026 0.25817 0.6861 0.0
C1157 C 0.11683 0.26159 0.57772 0.0
C1158 C 0.12389 0.25855 0.61424 0.0
H1159 H 0.16999 0.25094 0.76601 0.0
H1160 H 0.15306 0.24531 0.70515 0.0
H1161 H 0.12637 0.25743 0.73758 0.0
H1162 H 0.12235 0.28487 0.49618 0.0
H1163 H 0.13365 0.27862 0.55296 0.0
C1164 C 0.7517 0.84287 0.5549 0.0
C1165 C 0.74123 0.83051 0.55848 0.0
C1166 C 0.75415 0.85173 0.59191 0.0
C1167 C 0.73471 0.85693 0.68079 0.0
H1168 H 0.76604 0.88817 0.70884 0.0
C1169 C 0.732 0.89861 0.75689 0.0
C1170 C 0.73937 0.9045 0.79838 0.0
C1171 C 0.73468 0.89086 0.7277 0.0
C1172 C 0.75724 0.87945 0.70154 0.0
H1173 H 0.72621 0.81717 0.6058 0.0
H1174 H 0.73093 0.83236 0.67173 0.0
H1175 H 0.76679 0.87089 0.66553 0.0
H1176 H 0.75591 0.90776 0.83993 0.0
H1177 H 0.76047 0.89389 0.78922 0.0
H1178 H 0.72514 0.86526 0.71682 0.0
C1179 C 0.73688 0.83546 0.63948 0.0
C1180 C 0.75766 0.86958 0.6766 0.0
C1181 C 0.73424 0.8267 0.60202 0.0
C1182 C 0.75013 0.90336 0.80791 0.0
C1183 C 0.75271 0.8954 0.77897 0.0
C1184 C 0.73431 0.8667 0.70561 0.0
C1185 C 0.74628 0.8483 0.63338 0.0
C1186 C 0.74635 0.85825 0.66534 0.0
C1187 C 0.74462 0.88861 0.73995 0.0
C1188 C 0.74551 0.87819 0.71531 0.0
H1189 H 0.75721 0.84604 0.52152 0.0
H1190 H 0.76148 0.8615 0.58587 0.0
H1191 H 0.72577 0.84851 0.67212 0.0
H1192 H 0.72373 0.89946 0.74849 0.0
H1193 H 0.72852 0.88608 0.69692 0.0
C1194 C 0.16583 0.90905 0.54535 0.0
C1195 C 0.16876 0.90098 0.51843 0.0
C1196 C 0.15712 0.90422 0.58399 0.0
C1197 C 0.12982 0.87488 0.62668 0.0
H1198 H 0.14003 0.88709 0.75897 0.0
C1199 C 0.09848 0.84731 0.78946 0.0
C1200 C 0.10515 0.84398 0.8227 0.0
C1201 C 0.10508 0.85702 0.75545 0.0
C1202 C 0.13698 0.88371 0.72211 0.0
H1203 H 0.16485 0.88155 0.51103 0.0
H1204 H 0.14961 0.8732 0.57757 0.0
H1205 H 0.15403 0.89884 0.69055 0.0
H1206 H 0.12391 0.84884 0.84888 0.0
H1207 H 0.13536 0.8657 0.78975 0.0
H1208 H 0.11311 0.85943 0.65791 0.0
C1209 C 0.15406 0.88323 0.56888 0.0
C1210 C 0.14494 0.89045 0.68309 0.0
C1211 C 0.16288 0.88805 0.53108 0.0
C1212 C 0.1185 0.85106 0.82331 0.0
C1213 C 0.12507 0.86084 0.78981 0.0
C1214 C 0.12181 0.86823 0.6655 0.0
C1215 C 0.15103 0.89122 0.59543 0.0
C1216 C 0.14163 0.88578 0.63532 0.0
C1217 C 0.11845 0.86368 0.75463 0.0
C1218 C 0.12554 0.8723 0.71373 0.0
H1219 H 0.17023 0.91905 0.5365 0.0
H1220 H 0.15495 0.91055 0.60427 0.0
H1221 H 0.12705 0.87116 0.59001 0.0
H1222 H 0.08819 0.84206 0.78827 0.0
H1223 H 0.09976 0.85907 0.72881 0.0
C1224 C 0.72291 0.88957 0.05024 0.0
C1225 C 0.73239 0.9008 0.02842 0.0
C1226 C 0.72566 0.8845 0.09093 0.0
C1227 C 0.73172 0.88012 0.19277 0.0
H1228 H 0.76182 0.87675 0.19778 0.0
C1229 C 0.73846 0.85472 0.35341 0.0
C1230 C 0.74157 0.8454 0.34118 0.0
C1231 C 0.74033 0.86413 0.31993 0.0
C1232 C 0.75338 0.87764 0.1969 0.0
H1233 H 0.75228 0.91547 0.03235 0.0
H1234 H 0.75704 0.90657 0.10398 0.0
H1235 H 0.75865 0.88767 0.12871 0.0
H1236 H 0.74989 0.83903 0.28607 0.0
H1237 H 0.75266 0.85517 0.22626 0.0
H1238 H 0.72602 0.8696 0.25905 0.0
C1239 C 0.74749 0.90169 0.08913 0.0
C1240 C 0.75163 0.88399 0.15762 0.0
C1241 C 0.74474 0.90681 0.04827 0.0
C1242 C 0.74742 0.84614 0.2962 0.0
C1243 C 0.74905 0.85543 0.26211 0.0
C1244 C 0.73343 0.87377 0.23172 0.0
C1245 C 0.73795 0.89052 0.11102 0.0
C1246 C 0.74062 0.88503 0.15468 0.0
C1247 C 0.74503 0.86421 0.27295 0.0
C1248 C 0.74417 0.87226 0.23398 0.0
H1249 H 0.71332 0.88463 0.03589 0.0
H1250 H 0.71815 0.87574 0.10639 0.0
H1251 H 0.72325 0.88095 0.19197 0.0
H1252 H 0.73414 0.85446 0.38833 0.0
H1253 H 0.73752 0.87099 0.33008 0.0
C1254 C 0.09732 0.82706 0.08197 0.0
C1255 C 0.09138 0.82915 0.04189 0.0
C1256 C 0.10234 0.83593 0.11974 0.0
C1257 C 0.11022 0.85602 0.20056 0.0
H1258 H 0.13592 0.8874 0.14068 0.0
C1259 C 0.15136 0.89942 0.30328 0.0
C1260 C 0.16252 0.89896 0.29397 0.0
C1261 C 0.14053 0.89238 0.27456 0.0
C1262 C 0.1286 0.87881 0.1579 0.0
H1263 H 0.08509 0.84161 0.01187 0.0
H1264 H 0.0942 0.8573 0.07741 0.0
H1265 H 0.11893 0.87111 0.0904 0.0
H1266 H 0.17136 0.89142 0.24617 0.0
H1267 H 0.15255 0.87954 0.19474 0.0
H1268 H 0.12032 0.86358 0.26772 0.0
C1269 C 0.09486 0.84874 0.07963 0.0
C1270 C 0.11887 0.86953 0.12935 0.0
C1271 C 0.08962 0.83974 0.04228 0.0
C1272 C 0.16288 0.89191 0.25406 0.0
C1273 C 0.15217 0.88516 0.22469 0.0
C1274 C 0.11982 0.86542 0.22931 0.0
C1275 C 0.10167 0.84714 0.11765 0.0
C1276 C 0.10989 0.85786 0.15009 0.0
C1277 C 0.14087 0.88513 0.23543 0.0
C1278 C 0.1293 0.87666 0.20774 0.0
H1279 H 0.09872 0.81893 0.08278 0.0
H1280 H 0.10762 0.83451 0.14853 0.0
H1281 H 0.10342 0.84708 0.21725 0.0
H1282 H 0.15082 0.90469 0.33418 0.0
H1283 H 0.13184 0.89238 0.28339 0.0
C1284 C 0.17371 0.28195 0.04656 0.0
C1285 C 0.1723 0.2718 0.01747 0.0
C1286 C 0.16492 0.27998 0.08295 0.0
C1287 C 0.13177 0.25906 0.11768 0.0
H1288 H 0.14324 0.2784 0.23794 0.0
C1289 C 0.0992 0.25985 0.27497 0.0
C1290 C 0.10261 0.27223 0.29012 0.0
C1291 C 0.10682 0.2579 0.24166 0.0
C1292 C 0.13991 0.27292 0.20455 0.0
H1293 H 0.16063 0.25152 0.00467 0.0
H1294 H 0.14519 0.24809 0.06883 0.0
H1295 H 0.15873 0.27801 0.1826 0.0
H1296 H 0.11625 0.29228 0.27953 0.0
H1297 H 0.12942 0.28883 0.22213 0.0
H1298 H 0.11289 0.25417 0.13988 0.0
C1299 C 0.15312 0.25758 0.06295 0.0
C1300 C 0.14876 0.27271 0.17287 0.0
C1301 C 0.162 0.25954 0.02647 0.0
C1302 C 0.11338 0.2826 0.26929 0.0
C1303 C 0.12099 0.28065 0.23653 0.0
C1304 C 0.12286 0.25921 0.14975 0.0
C1305 C 0.15447 0.26782 0.09134 0.0
C1306 C 0.14484 0.26616 0.1283 0.0
C1307 C 0.11798 0.2683 0.22344 0.0
C1308 C 0.12694 0.2665 0.19259 0.0
H1309 H 0.18154 0.29151 0.04081 0.0
H1310 H 0.16613 0.28812 0.10362 0.0
H1311 H 0.12848 0.25396 0.08351 0.0
H1312 H 0.09094 0.25165 0.29014 0.0
H1313 H 0.10429 0.24829 0.2318 0.0
C1314 C 0.83747 0.74181 0.2105 0.0
C1315 C 0.82473 0.73235 0.21733 0.0
C1316 C 0.84672 0.74339 0.2447 0.0
C1317 C 0.86473 0.74615 0.32868 0.0
H1318 H 0.8584 0.71317 0.37286 0.0
C1319 C 0.8956 0.73811 0.47182 0.0
C1320 C 0.89642 0.72703 0.46675 0.0
C1321 C 0.88822 0.74062 0.43931 0.0
C1322 C 0.86043 0.72246 0.36043 0.0
H1323 H 0.81138 0.71817 0.26738 0.0
H1324 H 0.82734 0.72132 0.32813 0.0
H1325 H 0.84254 0.7146 0.32454 0.0
H1326 H 0.89128 0.71059 0.42108 0.0
H1327 H 0.87883 0.71517 0.36361 0.0
H1328 H 0.88292 0.75389 0.36377 0.0
C1329 C 0.83035 0.72715 0.29553 0.0
C1330 C 0.85118 0.72332 0.33346 0.0
C1331 C 0.82118 0.72541 0.26101 0.0
C1332 C 0.89063 0.71908 0.42641 0.0
C1333 C 0.88343 0.72167 0.39367 0.0
C1334 C 0.87407 0.74528 0.35577 0.0
C1335 C 0.84331 0.73563 0.28652 0.0
C1336 C 0.85316 0.73515 0.31728 0.0
C1337 C 0.88166 0.73214 0.40096 0.0
C1338 C 0.87204 0.73339 0.37163 0.0
H1339 H 0.84045 0.74725 0.17694 0.0
H1340 H 0.85661 0.75001 0.23658 0.0
H1341 H 0.86654 0.75541 0.31682 0.0
H1342 H 0.89998 0.74441 0.50261 0.0
H1343 H 0.88706 0.74877 0.44597 0.0
C1344 C 0.27021 0.10712 0.22465 0.0
C1345 C 0.26387 0.10057 0.18217 0.0
C1346 C 0.26503 0.11276 0.25405 0.0
C1347 C 0.24877 0.1298 0.24678 0.0
H1348 H 0.24568 0.12557 0.38736 0.0
C1349 C 0.26401 0.16953 0.38647 0.0
C1350 C 0.2572 0.16715 0.43032 0.0
C1351 C 0.25989 0.16021 0.35033 0.0
C1352 C 0.24618 0.12669 0.34805 0.0
H1353 H 0.24709 0.09456 0.13736 0.0
H1354 H 0.23829 0.10497 0.18819 0.0
H1355 H 0.24785 0.11011 0.33741 0.0
H1356 H 0.24015 0.15363 0.46898 0.0
H1357 H 0.23314 0.1372 0.40614 0.0
H1358 H 0.24824 0.147 0.25787 0.0
C1359 C 0.2471 0.10545 0.19898 0.0
C1360 C 0.24748 0.11789 0.31962 0.0
C1361 C 0.25211 0.0995 0.17015 0.0
C1362 C 0.24561 0.15572 0.43559 0.0
C1363 C 0.2416 0.1463 0.39975 0.0
C1364 C 0.24769 0.13875 0.27534 0.0
C1365 C 0.25359 0.11219 0.24091 0.0
C1366 C 0.24923 0.11963 0.26904 0.0
C1367 C 0.24899 0.14829 0.35774 0.0
C1368 C 0.24685 0.13749 0.32639 0.0
H1369 H 0.27926 0.10805 0.23474 0.0
H1370 H 0.27025 0.11804 0.28604 0.0
H1371 H 0.25019 0.13134 0.20778 0.0
H1372 H 0.2729 0.17831 0.38125 0.0
H1373 H 0.26581 0.16196 0.31842 0.0
C1374 C 0.82966 0.09427 0.38502 0.0
C1375 C 0.83066 0.08865 0.42832 0.0
C1376 C 0.83906 0.09821 0.34924 0.0
C1377 C 0.87269 0.11271 0.34826 0.0
H1378 H 0.86869 0.11432 0.20845 0.0
C1379 C 0.89724 0.15734 0.23223 0.0
C1380 C 0.90245 0.15698 0.187 0.0
C1381 C 0.89108 0.14642 0.26086 0.0
C1382 C 0.87005 0.11374 0.24726 0.0
H1383 H 0.84169 0.08169 0.46616 0.0
H1384 H 0.85829 0.08891 0.40402 0.0
H1385 H 0.85126 0.09783 0.25666 0.0
H1386 H 0.90575 0.14517 0.13668 0.0
H1387 H 0.89437 0.12578 0.18623 0.0
H1388 H 0.891 0.12934 0.33948 0.0
C1389 C 0.85018 0.09018 0.39778 0.0
C1390 C 0.86008 0.10437 0.27478 0.0
C1391 C 0.84066 0.08604 0.43324 0.0
C1392 C 0.90187 0.14566 0.17168 0.0
C1393 C 0.89536 0.13461 0.19979 0.0
C1394 C 0.88256 0.1222 0.32088 0.0
C1395 C 0.84971 0.09675 0.35644 0.0
C1396 C 0.86113 0.10412 0.32578 0.0
C1397 C 0.88975 0.13489 0.24419 0.0
C1398 C 0.88109 0.12309 0.27051 0.0
H1399 H 0.822 0.0963 0.38002 0.0
H1400 H 0.8385 0.10334 0.31785 0.0
H1401 H 0.87372 0.11281 0.38758 0.0
H1402 H 0.8976 0.16597 0.24475 0.0
H1403 H 0.88668 0.14682 0.29473 0.0
C1404 C 0.93486 0.4284 0.22673 0.0
C1405 C 0.9284 0.42628 0.27118 0.0
C1406 C 0.93239 0.43442 0.18838 0.0
C1407 C 0.91289 0.44925 0.15121 0.0
H1408 H 0.94524 0.4745 0.09683 0.0
C1409 C 0.91928 0.48909 0.01555 0.0
C1410 C 0.9307 0.50076 0.01929 0.0
C1411 C 0.91724 0.47878 0.04471 0.0
C1412 C 0.93613 0.46761 0.11203 0.0
H1413 H 0.91363 0.42778 0.30956 0.0
H1414 H 0.90975 0.43888 0.24379 0.0
H1415 H 0.94418 0.45755 0.14592 0.0
H1416 H 0.94839 0.51114 0.05919 0.0
H1417 H 0.94463 0.4934 0.11132 0.0
H1418 H 0.90509 0.45999 0.11921 0.0
C1419 C 0.91645 0.43562 0.23751 0.0
C1420 C 0.93544 0.45765 0.13941 0.0
C1421 C 0.91868 0.42926 0.27539 0.0
C1422 C 0.93959 0.5022 0.05501 0.0
C1423 C 0.93748 0.49199 0.08455 0.0
C1424 C 0.91362 0.45937 0.12407 0.0
C1425 C 0.92376 0.43886 0.1945 0.0
C1426 C 0.92387 0.44841 0.16004 0.0
C1427 C 0.92653 0.48002 0.07842 0.0
C1428 C 0.92533 0.46882 0.10509 0.0
H1429 H 0.94232 0.42605 0.22262 0.0
H1430 H 0.93785 0.4363 0.1551 0.0
H1431 H 0.90378 0.44224 0.16601 0.0
H1432 H 0.91227 0.48771 0.98816 0.0
H1433 H 0.9087 0.4697 0.03906 0.0
C1434 C 0.55024 0.49321 0.32932 0.0
C1435 C 0.56337 0.49769 0.33095 0.0
C1436 C 0.54271 0.48482 0.29282 0.0
C1437 C 0.54187 0.46309 0.19559 0.0
H1438 H 0.51671 0.47022 0.14025 0.0
C1439 C 0.50777 0.45135 0.01499 0.0
C1440 C 0.5021 0.43807 0.01168 0.0
C1441 C 0.51564 0.45792 0.05409 0.0
C1442 C 0.52375 0.46814 0.15497 0.0
H1443 H 0.57884 0.49661 0.29614 0.0
H1444 H 0.56571 0.48221 0.23132 0.0
H1445 H 0.52966 0.48286 0.20799 0.0
H1446 H 0.50064 0.42132 0.04608 0.0
H1447 H 0.51428 0.43286 0.11553 0.0
H1448 H 0.53614 0.4486 0.14089 0.0
C1449 C 0.56121 0.48502 0.25891 0.0
C1450 C 0.53106 0.47528 0.19439 0.0
C1451 C 0.56875 0.49334 0.29586 0.0
C1452 C 0.50484 0.43155 0.04772 0.0
C1453 C 0.51268 0.43816 0.08734 0.0
C1454 C 0.53454 0.45594 0.15577 0.0
C1455 C 0.54813 0.48082 0.25657 0.0
C1456 C 0.54023 0.47288 0.2152 0.0
C1457 C 0.51797 0.4514 0.09132 0.0
C1458 C 0.52549 0.45849 0.13476 0.0
H1459 H 0.54574 0.4962 0.35625 0.0
H1460 H 0.53262 0.48155 0.29284 0.0
H1461 H 0.54877 0.46093 0.21107 0.0
H1462 H 0.50609 0.45673 0.98738 0.0
H1463 H 0.51984 0.46815 0.05529 0.0
C1464 C 0.56843 0.07532 0.07861 0.0
C1465 C 0.5696 0.06444 0.07346 0.0
C1466 C 0.5613 0.07619 0.11713 0.0
C1467 C 0.5339 0.05432 0.18937 0.0
H1468 H 0.54041 0.08345 0.26826 0.0
C1469 C 0.50003 0.04945 0.3433 0.0
C1470 C 0.49716 0.05921 0.34995 0.0
C1471 C 0.50978 0.0511 0.31195 0.0
C1472 C 0.53841 0.07528 0.24607 0.0
H1473 H 0.56551 0.04666 0.10739 0.0
H1474 H 0.55331 0.04828 0.17458 0.0
H1475 H 0.5567 0.08503 0.21108 0.0
H1476 H 0.50246 0.07847 0.32909 0.0
H1477 H 0.51935 0.08124 0.27324 0.0
H1478 H 0.51562 0.0446 0.22281 0.0
C1479 C 0.55755 0.05595 0.14828 0.0
C1480 C 0.54775 0.07619 0.21356 0.0
C1481 C 0.56458 0.05506 0.10992 0.0
C1482 C 0.50441 0.07075 0.32481 0.0
C1483 C 0.51415 0.07237 0.29303 0.0
C1484 C 0.52459 0.05344 0.22136 0.0
C1485 C 0.55532 0.06621 0.15098 0.0
C1486 C 0.54563 0.06563 0.18543 0.0
C1487 C 0.51687 0.06251 0.28593 0.0
C1488 C 0.52676 0.06383 0.25064 0.0
H1489 H 0.57219 0.0827 0.05104 0.0
H1490 H 0.55975 0.08423 0.11843 0.0
H1491 H 0.53184 0.04613 0.16715 0.0
H1492 H 0.49478 0.0405 0.3625 0.0
H1493 H 0.51179 0.04341 0.30825 0.0
C1494 C 0.76278 0.6046 0.91953 0.0
C1495 C 0.75929 0.59767 0.87578 0.0
C1496 C 0.76896 0.60177 0.95614 0.0
C1497 C 0.78092 0.57988 0.99275 0.0
H1498 H 0.81001 0.61162 0.0343 0.0
C1499 C 0.83512 0.60269 0.07544 0.0
C1500 C 0.83311 0.59524 0.11722 0.0
C1501 C 0.82492 0.60069 0.04605 0.0
C1502 C 0.802 0.60265 0.02275 0.0
H1503 H 0.75844 0.58163 0.8377 0.0
H1504 H 0.76969 0.57699 0.90074 0.0
H1505 H 0.79323 0.61201 0.98847 0.0
H1506 H 0.81902 0.57919 0.15895 0.0
H1507 H 0.80106 0.57582 0.10775 0.0
H1508 H 0.79019 0.57064 0.02597 0.0
C1509 C 0.76747 0.58446 0.90737 0.0
C1510 C 0.79221 0.60286 0.99723 0.0
C1511 C 0.76105 0.58714 0.87109 0.0
C1512 C 0.82084 0.58506 0.12685 0.0
C1513 C 0.81056 0.58314 0.09761 0.0
C1514 C 0.79081 0.57968 0.01846 0.0
C1515 C 0.77206 0.59216 0.94921 0.0
C1516 C 0.7816 0.59151 0.98133 0.0
C1517 C 0.81246 0.59132 0.0582 0.0
C1518 C 0.80157 0.59112 0.03277 0.0
H1519 H 0.76132 0.61263 0.9244 0.0
H1520 H 0.77199 0.60762 0.98866 0.0
H1521 H 0.77284 0.57096 0.98131 0.0
H1522 H 0.84451 0.61048 0.06676 0.0
H1523 H 0.82674 0.60689 0.01502 0.0
C1524 C 0.40025 0.1593 0.93736 0.0
C1525 C 0.40761 0.16286 0.8946 0.0
C1526 C 0.40419 0.16729 0.97792 0.0
C1527 C 0.42098 0.20098 0.00185 0.0
H1528 H 0.41168 0.18955 0.13544 0.0
C1529 C 0.41397 0.23164 0.1458 0.0
C1530 C 0.40207 0.22491 0.16896 0.0
C1531 C 0.41884 0.22514 0.11947 0.0
C1532 C 0.41444 0.19293 0.09839 0.0
H1533 H 0.42537 0.17711 0.86214 0.0
H1534 H 0.43219 0.19119 0.93317 0.0
H1535 H 0.41325 0.17551 0.07557 0.0
H1536 H 0.38624 0.20607 0.18441 0.0
H1537 H 0.39463 0.19485 0.13847 0.0
H1538 H 0.42138 0.21806 0.02385 0.0
C1539 C 0.42335 0.18222 0.93506 0.0
C1540 C 0.41535 0.1849 0.06419 0.0
C1541 C 0.41946 0.17414 0.89452 0.0
C1542 C 0.39538 0.21157 0.16667 0.0
C1543 C 0.40028 0.20511 0.14083 0.0
C1544 C 0.42005 0.209 0.03607 0.0
C1545 C 0.41553 0.17907 0.97653 0.0
C1546 C 0.41801 0.18861 0.01505 0.0
C1547 C 0.41197 0.2118 0.11639 0.0
C1548 C 0.41614 0.20479 0.08406 0.0
H1549 H 0.39114 0.1506 0.93872 0.0
H1550 H 0.39788 0.16462 0.0091 0.0
H1551 H 0.42298 0.20409 0.96422 0.0
H1552 H 0.41939 0.24192 0.14707 0.0
H1553 H 0.42789 0.23054 0.10102 0.0
C1554 C 0.82472 0.23707 0.87342 0.0
C1555 C 0.82795 0.22992 0.84229 0.0
C1556 C 0.81565 0.23108 0.91022 0.0
C1557 C 0.78901 0.20008 0.94813 0.0
H1558 H 0.79963 0.21194 0.08054 0.0
C1559 C 0.75929 0.17263 0.11697 0.0
C1560 C 0.76639 0.16979 0.14998 0.0
C1561 C 0.76543 0.18169 0.08022 0.0
C1562 C 0.79648 0.20862 0.04369 0.0
H1563 H 0.82393 0.21086 0.82445 0.0
H1564 H 0.80811 0.20047 0.88824 0.0
H1565 H 0.81279 0.22452 0.01192 0.0
H1566 H 0.78545 0.17459 0.17184 0.0
H1567 H 0.7961 0.19039 0.10823 0.0
H1568 H 0.77299 0.18391 0.97996 0.0
C1569 C 0.81257 0.21068 0.8842 0.0
C1570 C 0.80395 0.21585 0.0045 0.0
C1571 C 0.82173 0.21666 0.848 0.0
C1572 C 0.77971 0.17648 0.14667 0.0
C1573 C 0.78583 0.18563 0.11058 0.0
C1574 C 0.78147 0.19292 0.98729 0.0
C1575 C 0.80951 0.21783 0.91589 0.0
C1576 C 0.8005 0.21141 0.95647 0.0
C1577 C 0.77876 0.1882 0.0766 0.0
C1578 C 0.78538 0.19692 0.03545 0.0
H1579 H 0.82934 0.24731 0.86991 0.0
H1580 H 0.81344 0.2368 0.93427 0.0
H1581 H 0.7861 0.19652 0.91136 0.0
H1582 H 0.74901 0.16763 0.1187 0.0
H1583 H 0.75978 0.18352 0.05439 0.0
C1584 C 0.38491 0.23329 0.41976 0.0
C1585 C 0.39408 0.23797 0.3826 0.0
C1586 C 0.38689 0.22816 0.46213 0.0
C1587 C 0.41021 0.22254 0.53081 0.0
H1588 H 0.37981 0.1906 0.56065 0.0
C1589 C 0.40893 0.18121 0.64461 0.0
C1590 C 0.3986 0.17486 0.67681 0.0
C1591 C 0.40965 0.19068 0.61333 0.0
C1592 C 0.38835 0.19957 0.55331 0.0
H1593 H 0.41293 0.2419 0.36205 0.0
H1594 H 0.41626 0.23254 0.43546 0.0
H1595 H 0.37888 0.20458 0.49997 0.0
H1596 H 0.38137 0.17409 0.70342 0.0
H1597 H 0.38268 0.19049 0.64942 0.0
H1598 H 0.4197 0.21711 0.58369 0.0
C1599 C 0.40762 0.23302 0.43237 0.0
C1600 C 0.38782 0.20765 0.51863 0.0
C1601 C 0.40571 0.23837 0.39024 0.0
C1602 C 0.38934 0.17857 0.67849 0.0
C1603 C 0.39008 0.18799 0.64751 0.0
C1604 C 0.41076 0.21436 0.5656 0.0
C1605 C 0.39797 0.22734 0.46775 0.0
C1606 C 0.3987 0.21926 0.50696 0.0
C1607 C 0.40006 0.19395 0.61381 0.0
C1608 C 0.3998 0.20281 0.57725 0.0
H1609 H 0.37593 0.23305 0.41507 0.0
H1610 H 0.37944 0.22424 0.4894 0.0
H1611 H 0.41877 0.23142 0.52272 0.0
H1612 H 0.41627 0.17863 0.64261 0.0
H1613 H 0.41743 0.1951 0.58755 0.0
C1614 C 0.83219 0.2335 0.57578 0.0
C1615 C 0.83057 0.23884 0.6187 0.0
C1616 C 0.82207 0.22703 0.54343 0.0
C1617 C 0.78907 0.2057 0.54877 0.0
H1618 H 0.78994 0.20802 0.40747 0.0
C1619 C 0.75849 0.17563 0.36902 0.0
C1620 C 0.75957 0.16469 0.37414 0.0
C1621 C 0.76468 0.18576 0.40161 0.0
C1622 C 0.78946 0.20738 0.44694 0.0
H1623 H 0.81735 0.24218 0.66043 0.0
H1624 H 0.79946 0.2304 0.60442 0.0
H1625 H 0.80647 0.22542 0.45579 0.0
H1626 H 0.7671 0.15535 0.4194 0.0
H1627 H 0.77757 0.17292 0.47732 0.0
H1628 H 0.77265 0.18721 0.53974 0.0
C1629 C 0.80864 0.23147 0.59555 0.0
C1630 C 0.79891 0.21729 0.47443 0.0
C1631 C 0.81887 0.23824 0.62732 0.0
C1632 C 0.76614 0.16368 0.41452 0.0
C1633 C 0.77208 0.17369 0.44772 0.0
C1634 C 0.77978 0.19567 0.52122 0.0
C1635 C 0.81009 0.22554 0.55407 0.0
C1636 C 0.79894 0.21639 0.52548 0.0
C1637 C 0.77176 0.18498 0.44053 0.0
C1638 C 0.78009 0.19631 0.47007 0.0
H1639 H 0.84111 0.23383 0.5684 0.0
H1640 H 0.82338 0.22245 0.51182 0.0
H1641 H 0.789 0.20475 0.58811 0.0
H1642 H 0.75355 0.17671 0.33808 0.0
H1643 H 0.76433 0.19439 0.39546 0.0
C1644 C 0.78785 0.61182 0.65871 0.0
C1645 C 0.77459 0.60467 0.65349 0.0
C1646 C 0.7958 0.61093 0.62419 0.0
C1647 C 0.79641 0.59224 0.51731 0.0
H1648 H 0.82645 0.62423 0.48491 0.0
C1649 C 0.83605 0.6166 0.35367 0.0
C1650 C 0.83851 0.6067 0.34349 0.0
C1651 C 0.8284 0.61573 0.39313 0.0
C1652 C 0.81805 0.61523 0.49311 0.0
H1653 H 0.75921 0.59068 0.60896 0.0
H1654 H 0.7731 0.58949 0.5473 0.0
H1655 H 0.8126 0.62353 0.54984 0.0
H1656 H 0.83497 0.58817 0.36722 0.0
H1657 H 0.82189 0.58682 0.43705 0.0
H1658 H 0.80159 0.58412 0.45857 0.0
C1659 C 0.77739 0.59557 0.5787 0.0
C1660 C 0.81019 0.61477 0.53105 0.0
C1661 C 0.76941 0.5963 0.61385 0.0
C1662 C 0.8332 0.59594 0.37392 0.0
C1663 C 0.82565 0.59513 0.4138 0.0
C1664 C 0.80422 0.59273 0.47887 0.0
C1665 C 0.79069 0.60307 0.58301 0.0
C1666 C 0.79924 0.60329 0.5436 0.0
C1667 C 0.82315 0.60503 0.42386 0.0
C1668 C 0.81509 0.60427 0.46604 0.0
H1669 H 0.79212 0.61818 0.68944 0.0
H1670 H 0.80598 0.61656 0.62956 0.0
H1671 H 0.78814 0.58321 0.5263 0.0
H1672 H 0.83987 0.62497 0.33072 0.0
H1673 H 0.82647 0.62342 0.39906 0.0
C1674 C 0.55984 0.07275 0.82427 0.0
C1675 C 0.55538 0.06114 0.8491 0.0
C1676 C 0.5519 0.0745 0.79192 0.0
C1677 C 0.5228 0.05565 0.71851 0.0
H1678 H 0.52207 0.08712 0.70779 0.0
C1679 C 0.48365 0.05656 0.61088 0.0
C1680 C 0.48776 0.06542 0.57257 0.0
C1681 C 0.4919 0.05787 0.64864 0.0
C1682 C 0.52225 0.07831 0.71041 0.0
H1683 H 0.5389 0.04248 0.86086 0.0
H1684 H 0.5251 0.04561 0.8058 0.0
H1685 H 0.53683 0.08567 0.76524 0.0
H1686 H 0.50334 0.08327 0.54623 0.0
H1687 H 0.51786 0.08555 0.61275 0.0
H1688 H 0.5082 0.04822 0.66447 0.0
C1689 C 0.53481 0.05325 0.81001 0.0
C1690 C 0.53071 0.07748 0.74304 0.0
C1691 C 0.54274 0.05148 0.84183 0.0
C1692 C 0.49991 0.07629 0.57528 0.0
C1693 C 0.50823 0.07759 0.61325 0.0
C1694 C 0.51433 0.05644 0.68651 0.0
C1695 C 0.53933 0.06469 0.78401 0.0
C1696 C 0.53093 0.06605 0.74792 0.0
C1697 C 0.50445 0.06805 0.64891 0.0
C1698 C 0.51382 0.06769 0.68259 0.0
H1699 H 0.56953 0.0804 0.82908 0.0
H1700 H 0.5557 0.08339 0.77226 0.0
H1701 H 0.52298 0.04683 0.72012 0.0
H1702 H 0.47427 0.04819 0.61024 0.0
H1703 H 0.48866 0.05053 0.67631 0.0
C1704 C 0.91991 0.4328 0.52888 0.0
C1705 C 0.92949 0.43954 0.49415 0.0
C1706 C 0.91688 0.43933 0.56352 0.0
C1707 C 0.92227 0.45663 0.6522 0.0
H1708 H 0.92075 0.48712 0.6234 0.0
C1709 C 0.94026 0.49862 0.78264 0.0
C1710 C 0.93226 0.50355 0.79353 0.0
C1711 C 0.93702 0.48955 0.74612 0.0
C1712 C 0.92095 0.47852 0.63191 0.0
H1713 H 0.94283 0.45833 0.46659 0.0
H1714 H 0.93748 0.46965 0.52668 0.0
H1715 H 0.91962 0.47315 0.55662 0.0
H1716 H 0.91468 0.503 0.7739 0.0
H1717 H 0.90922 0.4873 0.70834 0.0
H1718 H 0.92433 0.46236 0.72712 0.0
C1719 C 0.93235 0.45936 0.52728 0.0
C1720 C 0.92037 0.47058 0.59383 0.0
C1721 C 0.93551 0.45287 0.49322 0.0
C1722 C 0.92102 0.49935 0.76636 0.0
C1723 C 0.9179 0.4904 0.72897 0.0
C1724 C 0.92302 0.46464 0.69011 0.0
C1725 C 0.9232 0.45267 0.5634 0.0
C1726 C 0.92139 0.45976 0.60357 0.0
C1727 C 0.92581 0.48532 0.7191 0.0
C1728 C 0.92274 0.47583 0.68012 0.0
H1729 H 0.91508 0.42252 0.5304 0.0
H1730 H 0.90978 0.43396 0.59099 0.0
H1731 H 0.92317 0.44841 0.66074 0.0
H1732 H 0.94894 0.50158 0.80302 0.0
H1733 H 0.94336 0.48589 0.73867 0.0
C1734 C 0.5736 0.50047 0.59345 0.0
C1735 C 0.57828 0.49885 0.54881 0.0
C1736 C 0.56714 0.49023 0.62526 0.0
C1737 C 0.54508 0.45714 0.61648 0.0
H1738 H 0.54636 0.45804 0.75795 0.0
C1739 C 0.51296 0.42808 0.79561 0.0
C1740 C 0.50215 0.42913 0.786 0.0
C1741 C 0.5235 0.43379 0.76454 0.0
C1742 C 0.546 0.45751 0.71846 0.0
H1743 H 0.58063 0.48549 0.50377 0.0
H1744 H 0.56897 0.46745 0.55902 0.0
H1745 H 0.56429 0.47427 0.71102 0.0
H1746 H 0.49347 0.43606 0.73448 0.0
H1747 H 0.51175 0.44575 0.67963 0.0
H1748 H 0.52638 0.44097 0.62396 0.0
C1749 C 0.57046 0.47669 0.5695 0.0
C1750 C 0.55622 0.46681 0.69171 0.0
C1751 C 0.57718 0.48702 0.53811 0.0
C1752 C 0.5017 0.43516 0.74291 0.0
C1753 C 0.51213 0.44063 0.7114 0.0
C1754 C 0.53477 0.44797 0.64323 0.0
C1755 C 0.56504 0.47813 0.61256 0.0
C1756 C 0.55568 0.46692 0.64054 0.0
C1757 C 0.52327 0.44038 0.72281 0.0
C1758 C 0.53499 0.44832 0.69445 0.0
H1759 H 0.57433 0.50949 0.60258 0.0
H1760 H 0.56297 0.49157 0.65808 0.0
H1761 H 0.54438 0.45709 0.57704 0.0
H1762 H 0.5136 0.42353 0.82865 0.0
H1763 H 0.53199 0.43345 0.774 0.0
C1764 C 0.60218 0.82986 0.40136 0.0
C1765 C 0.59457 0.8287 0.36095 0.0
C1766 C 0.59869 0.81956 0.43255 0.0
C1767 C 0.58663 0.78697 0.43042 0.0
H1768 H 0.58247 0.78746 0.57065 0.0
C1769 C 0.60458 0.76565 0.57564 0.0
C1770 C 0.59666 0.75934 0.61555 0.0
C1771 C 0.60049 0.77074 0.53894 0.0
C1772 C 0.58335 0.78705 0.53142 0.0
H1773 H 0.57723 0.81604 0.32189 0.0
H1774 H 0.57142 0.79778 0.37576 0.0
H1775 H 0.58233 0.80398 0.51987 0.0
H1776 H 0.57796 0.75268 0.64683 0.0
H1777 H 0.57101 0.762 0.58327 0.0
H1778 H 0.58879 0.77069 0.44245 0.0
C1779 C 0.57989 0.80677 0.3836 0.0
C1780 C 0.58331 0.7965 0.50258 0.0
C1781 C 0.58321 0.81718 0.35307 0.0
C1782 C 0.58425 0.75745 0.61637 0.0
C1783 C 0.58027 0.7628 0.5802 0.0
C1784 C 0.58696 0.77768 0.4594 0.0
C1785 C 0.58771 0.80788 0.42314 0.0
C1786 C 0.58526 0.79668 0.4521 0.0
C1787 C 0.58852 0.76982 0.54209 0.0
C1788 C 0.58563 0.77785 0.51025 0.0
H1789 H 0.61096 0.83864 0.40819 0.0
H1790 H 0.60488 0.82054 0.46276 0.0
H1791 H 0.58827 0.78706 0.3915 0.0
H1792 H 0.61416 0.76719 0.57406 0.0
H1793 H 0.60705 0.77621 0.51002 0.0
C1794 C 0.21948 0.83717 0.63738 0.0
C1795 C 0.22995 0.83656 0.65584 0.0
C1796 C 0.21142 0.82837 0.60298 0.0
C1797 C 0.20937 0.8055 0.51035 0.0
H1798 H 0.17318 0.79276 0.52357 0.0
C1799 C 0.17161 0.76878 0.37701 0.0
C1800 C 0.16275 0.77212 0.35991 0.0
C1801 C 0.17979 0.77548 0.41562 0.0
C1802 C 0.18327 0.79626 0.51934 0.0
H1803 H 0.24028 0.82627 0.65178 0.0
H1804 H 0.22609 0.81081 0.59174 0.0
H1805 H 0.18771 0.80676 0.58596 0.0
H1806 H 0.15541 0.78499 0.37064 0.0
H1807 H 0.16958 0.79655 0.43764 0.0
H1808 H 0.20485 0.79505 0.44322 0.0
C1809 C 0.2242 0.81819 0.60386 0.0
C1810 C 0.19159 0.8043 0.55497 0.0
C1811 C 0.23229 0.82702 0.63838 0.0
C1812 C 0.16211 0.78214 0.38276 0.0
C1813 C 0.17018 0.78874 0.42143 0.0
C1814 C 0.20101 0.7974 0.47465 0.0
C1815 C 0.2136 0.8187 0.58618 0.0
C1816 C 0.20476 0.80925 0.55035 0.0
C1817 C 0.17914 0.78553 0.43816 0.0
C1818 C 0.1879 0.79293 0.47832 0.0
H1819 H 0.21743 0.84445 0.64954 0.0
H1820 H 0.2035 0.82921 0.58928 0.0
H1821 H 0.21948 0.80922 0.50564 0.0
H1822 H 0.17237 0.76112 0.36014 0.0
H1823 H 0.18658 0.77277 0.42798 0.0
C1824 C 0.1552 0.3913 0.5645 0.0
C1825 C 0.15807 0.39975 0.60374 0.0
C1826 C 0.16247 0.39524 0.52194 0.0
C1827 C 0.17785 0.40688 0.42974 0.0
H1828 H 0.21315 0.41931 0.46349 0.0
C1829 C 0.22774 0.41355 0.34104 0.0
C1830 C 0.22233 0.4016 0.31813 0.0
C1831 C 0.22013 0.41696 0.36824 0.0
C1832 C 0.20343 0.41618 0.45296 0.0
H1833 H 0.17024 0.4192 0.62779 0.0
H1834 H 0.1831 0.42599 0.55352 0.0
H1835 H 0.19858 0.41901 0.52511 0.0
H1836 H 0.20457 0.38413 0.30426 0.0
H1837 H 0.19154 0.38993 0.35193 0.0
H1838 H 0.18258 0.40357 0.35811 0.0
C1839 C 0.17521 0.41634 0.55584 0.0
C1840 C 0.19507 0.416 0.48835 0.0
C1841 C 0.16781 0.41245 0.59823 0.0
C1842 C 0.20913 0.39337 0.32163 0.0
C1843 C 0.20158 0.39678 0.34854 0.0
C1844 C 0.18624 0.40717 0.39423 0.0
C1845 C 0.17285 0.40766 0.51795 0.0
C1846 C 0.18208 0.4108 0.47767 0.0
C1847 C 0.20698 0.40853 0.37274 0.0
C1848 C 0.19897 0.41122 0.40615 0.0
H1849 H 0.14769 0.38149 0.5675 0.0
H1850 H 0.16049 0.3883 0.49349 0.0
H1851 H 0.16793 0.403 0.42039 0.0
H1852 H 0.23786 0.42015 0.33882 0.0
H1853 H 0.22457 0.42612 0.38627 0.0
C1854 C 0.48694 0.91859 0.45685 0.0
C1855 C 0.49865 0.92955 0.44691 0.0
C1856 C 0.47654 0.91508 0.42599 0.0
C1857 C 0.45677 0.921 0.3785 0.0
H1858 H 0.45731 0.91838 0.23751 0.0
C1859 C 0.43378 0.93918 0.24094 0.0
C1860 C 0.42749 0.93154 0.20036 0.0
C1861 C 0.43953 0.93517 0.27531 0.0
C1862 C 0.4569 0.91885 0.27692 0.0
H1863 H 0.50898 0.94487 0.39542 0.0
H1864 H 0.49091 0.93844 0.34049 0.0
H1865 H 0.47395 0.91792 0.28647 0.0
H1866 H 0.42163 0.9134 0.16543 0.0
H1867 H 0.43204 0.90661 0.22493 0.0
H1868 H 0.44031 0.92296 0.36864 0.0
C1869 C 0.48975 0.9327 0.37244 0.0
C1870 C 0.46642 0.91864 0.30476 0.0
C1871 C 0.50005 0.9364 0.40388 0.0
C1872 C 0.42639 0.91948 0.1964 0.0
C1873 C 0.43236 0.9156 0.23025 0.0
C1874 C 0.4474 0.92149 0.35056 0.0
C1875 C 0.47783 0.92228 0.38411 0.0
C1876 C 0.46659 0.92002 0.35561 0.0
C1877 C 0.43926 0.92357 0.2692 0.0
C1878 C 0.44758 0.92072 0.29949 0.0
H1879 H 0.4856 0.9132 0.49001 0.0
H1880 H 0.4674 0.90703 0.43561 0.0
H1881 H 0.45681 0.92221 0.41769 0.0
H1882 H 0.43472 0.94848 0.24502 0.0
H1883 H 0.44488 0.94152 0.30493 0.0
C1884 C 0.08347 0.56803 0.46617 0.0
C1885 C 0.07475 0.5611 0.50329 0.0
C1886 C 0.08737 0.56184 0.43323 0.0
C1887 C 0.08668 0.53136 0.40839 0.0
H1888 H 0.07696 0.53536 0.27765 0.0
C1889 C 0.08037 0.50013 0.23313 0.0
C1890 C 0.06781 0.49472 0.21565 0.0
C1891 C 0.08468 0.50923 0.27045 0.0
C1892 C 0.07995 0.53431 0.31381 0.0
H1893 H 0.06422 0.54264 0.53802 0.0
H1894 H 0.07101 0.53192 0.481 0.0
H1895 H 0.07986 0.55077 0.34055 0.0
H1896 H 0.04975 0.49409 0.22598 0.0
H1897 H 0.05737 0.51 0.29015 0.0
H1898 H 0.08599 0.5144 0.38166 0.0
C1899 C 0.07482 0.54206 0.47693 0.0
C1900 C 0.08171 0.54317 0.34969 0.0
C1901 C 0.07078 0.54817 0.5092 0.0
C1902 C 0.0595 0.49808 0.23814 0.0
C1903 C 0.06385 0.50725 0.27471 0.0
C1904 C 0.08505 0.52254 0.37219 0.0
C1905 C 0.0828 0.54872 0.43764 0.0
C1906 C 0.08452 0.54146 0.39786 0.0
C1907 C 0.07653 0.51313 0.29018 0.0
C1908 C 0.08111 0.52369 0.3253 0.0
H1909 H 0.08673 0.57804 0.46106 0.0
H1910 H 0.09356 0.56719 0.40325 0.0
H1911 H 0.08892 0.52987 0.44523 0.0
H1912 H 0.08701 0.49772 0.21675 0.0
H1913 H 0.09449 0.51362 0.28231 0.0
C1914 C 0.43083 0.50914 0.45644 0.0
C1915 C 0.43459 0.50844 0.50414 0.0
C1916 C 0.43889 0.51929 0.42618 0.0
C1917 C 0.47329 0.54185 0.41503 0.0
H1918 H 0.46273 0.55272 0.29997 0.0
C1919 C 0.49612 0.57307 0.22678 0.0
C1920 C 0.50392 0.56801 0.21394 0.0
C1921 C 0.48805 0.56838 0.26733 0.0
C1922 C 0.46588 0.54998 0.33238 0.0
H1923 H 0.44892 0.51814 0.55963 0.0
H1924 H 0.46264 0.53623 0.50813 0.0
H1925 H 0.44713 0.54047 0.36291 0.0
H1926 H 0.50959 0.55431 0.23472 0.0
H1927 H 0.49552 0.54609 0.30435 0.0
H1928 H 0.492 0.55135 0.38481 0.0
C1929 C 0.45383 0.52876 0.49293 0.0
C1930 C 0.4569 0.54281 0.36819 0.0
C1931 C 0.44594 0.51847 0.52262 0.0
C1932 C 0.50373 0.55844 0.24334 0.0
C1933 C 0.4957 0.55378 0.28368 0.0
C1934 C 0.48224 0.54909 0.37962 0.0
C1935 C 0.45073 0.529 0.44358 0.0
C1936 C 0.46043 0.53832 0.40927 0.0
C1937 C 0.48768 0.55859 0.29595 0.0
C1938 C 0.47857 0.55285 0.33705 0.0
H1939 H 0.42211 0.50142 0.44157 0.0
H1940 H 0.43619 0.51906 0.38838 0.0
H1941 H 0.47643 0.53849 0.44567 0.0
H1942 H 0.49604 0.58047 0.205 0.0
H1943 H 0.48205 0.57235 0.2761 0.0
C1944 C 0.07547 0.5775 0.75951 0.0
C1945 C 0.07313 0.5707 0.71576 0.0
C1946 C 0.07996 0.57397 0.80031 0.0
C1947 C 0.09417 0.55475 0.84104 0.0
H1948 H 0.06958 0.54399 0.94599 0.0
C1949 C 0.08222 0.51168 0.96166 0.0
C1950 C 0.07641 0.5105 0.00697 0.0
C1951 C 0.08587 0.52251 0.93305 0.0
C1952 C 0.07684 0.54721 0.91806 0.0
H1953 H 0.07414 0.55553 0.67861 0.0
H1954 H 0.08215 0.54948 0.74935 0.0
H1955 H 0.06925 0.55761 0.88229 0.0
H1956 H 0.07094 0.51996 0.06052 0.0
H1957 H 0.07802 0.53919 0.01226 0.0
H1958 H 0.10159 0.5441 0.87611 0.0
C1959 C 0.0806 0.5575 0.75251 0.0
C1960 C 0.0766 0.55504 0.88136 0.0
C1961 C 0.07592 0.56086 0.71225 0.0
C1962 C 0.07525 0.52065 0.02517 0.0
C1963 C 0.07922 0.5316 -0.00269 0.0
C1964 C 0.09456 0.54706 0.87823 0.0
C1965 C 0.08235 0.56379 0.79727 0.0
C1966 C 0.08489 0.55842 0.84147 0.0
C1967 C 0.08402 0.53244 0.94988 0.0
C1968 C 0.08551 0.54272 0.91609 0.0
H1969 H 0.07334 0.58512 0.76266 0.0
H1970 H 0.0812 0.57891 0.83455 0.0
H1971 H 0.10075 0.55734 0.81077 0.0
H1972 H 0.08316 0.50391 0.94705 0.0
H1973 H 0.08941 0.52268 0.89662 0.0
C1974 C 0.49966 0.55606 0.94296 0.0
C1975 C 0.49757 0.56239 0.98146 0.0
C1976 C 0.48969 0.54797 0.9125 0.0
C1977 C 0.46647 0.5245 0.87955 0.0
H1978 H 0.43874 0.52933 0.83723 0.0
C1979 C 0.42808 0.48693 0.75912 0.0
C1980 C 0.42448 0.49155 0.71894 0.0
C1981 C 0.43431 0.49485 0.79874 0.0
C1982 C 0.44644 0.52784 0.84856 0.0
H1983 H 0.48361 0.56573 0.01724 0.0
H1984 H 0.46595 0.55116 0.96491 0.0
H1985 H 0.45586 0.54565 0.8865 0.0
H1986 H 0.42375 0.50773 0.68969 0.0
H1987 H 0.43521 0.52179 0.75729 0.0
H1988 H 0.45771 0.50722 0.83951 0.0
C1989 C 0.47536 0.55264 0.95756 0.0
C1990 C 0.4562 0.53716 0.87726 0.0
C1991 C 0.48545 0.56099 0.98753 0.0
C1992 C 0.42638 0.50393 0.72046 0.0
C1993 C 0.43294 0.51198 0.75944 0.0
C1994 C 0.45688 0.51533 0.85044 0.0
C1995 C 0.47729 0.54573 0.92063 0.0
C1996 C 0.46647 0.5357 0.89227 0.0
C1997 C 0.43748 0.50771 0.79814 0.0
C1998 C 0.44679 0.51691 0.83392 0.0
H1999 H 0.50897 0.55712 0.93716 0.0
H2000 H 0.49166 0.54319 0.88332 0.0
H2001 H 0.474 0.52283 0.89158 0.0
H2002 H 0.42656 0.47735 0.75897 0.0
H2003 H 0.4372 0.49105 0.82869 0.0
C2004 C 0.49553 0.94554 0.67863 0.0
C2005 C 0.5009 0.93776 0.67154 0.0
C2006 C 0.48663 0.94284 0.71551 0.0
C2007 C 0.47686 0.92854 0.83461 0.0
H2008 H 0.44622 0.92989 0.80695 0.0
C2009 C 0.45054 0.94173 0.97567 0.0
C2010 C 0.43718 0.93481 0.9765 0.0
C2011 C 0.45725 0.93932 0.94009 0.0
C2012 C 0.45462 0.92928 0.81511 0.0
H2013 H 0.50125 0.9211 0.69802 0.0
H2014 H 0.48584 0.91657 0.76366 0.0
H2015 H 0.45998 0.93096 0.73982 0.0
H2016 H 0.42039 0.91974 0.94141 0.0
H2017 H 0.43223 0.91575 0.87803 0.0
H2018 H 0.47179 0.92744 0.91012 0.0
C2019 C 0.48848 0.92468 0.74007 0.0
C2020 C 0.46253 0.93 0.77682 0.0
C2021 C 0.49726 0.92726 0.70256 0.0
C2022 C 0.43068 0.92522 0.9416 0.0
C2023 C 0.43743 0.92295 0.90538 0.0
C2024 C 0.46903 0.92799 0.87299 0.0
C2025 C 0.48302 0.93239 0.74653 0.0
C2026 C 0.47386 0.92993 0.78635 0.0
C2027 C 0.45077 0.93006 0.90417 0.0
C2028 C 0.458 0.92865 0.86361 0.0
H2029 H 0.49806 0.95365 0.65526 0.0
H2030 H 0.48269 0.94904 0.7202 0.0
H2031 H 0.48557 0.92851 0.84285 0.0
H2032 H 0.45582 0.9491 0.00234 0.0
H2033 H 0.46753 0.94503 0.93964 0.0
C2034 C 0.1847 0.41288 0.83916 0.0
C2035 C 0.17813 0.40089 0.81656 0.0
C2036 C 0.1957 0.4163 0.86653 0.0
C2037 C 0.21151 0.41565 0.9518 0.0
H2038 H 0.23371 0.4022 0.92104 0.0
C2039 C 0.23486 0.39114 0.06604 0.0
C2040 C 0.24054 0.39978 0.10466 0.0
C2041 C 0.23144 0.39487 0.02314 0.0
C2042 C 0.22769 0.40615 0.92988 0.0
H2043 H 0.17832 0.38335 0.80344 0.0
H2044 H 0.19711 0.38915 0.85149 0.0
H2045 H 0.21968 0.40264 0.85816 0.0
H2046 H 0.24788 0.41935 0.12726 0.0
H2047 H 0.24167 0.42578 0.05242 0.0
H2048 H 0.21917 0.4187 0.02403 0.0
C2049 C 0.19397 0.39603 0.84768 0.0
C2050 C 0.21962 0.40636 0.89403 0.0
C2051 C 0.18304 0.39262 0.82054 0.0
C2052 C 0.24349 0.41246 0.09821 0.0
C2053 C 0.23991 0.41614 0.05549 0.0
C2054 C 0.21966 0.41555 0.98752 0.0
C2055 C 0.20035 0.40783 0.87159 0.0
C2056 C 0.21099 0.41052 0.90531 0.0
C2057 C 0.23351 0.40728 0.01819 0.0
C2058 C 0.2274 0.41026 0.9775 0.0
H2059 H 0.18123 0.41951 0.83656 0.0
H2060 H 0.20044 0.42549 0.8843 0.0
H2061 H 0.20495 0.41885 0.96186 0.0
H2062 H 0.23256 0.38134 0.06975 0.0
H2063 H 0.22643 0.3878 0.99517 0.0
C2064 C 0.58408 0.76202 0.86944 0.0
C2065 C 0.59364 0.76924 0.83527 0.0
C2066 C 0.58037 0.76807 0.90382 0.0
C2067 C 0.58283 0.79892 0.93633 0.0
H2068 H 0.58801 0.79071 0.06805 0.0
C2069 C 0.58654 0.82877 0.10931 0.0
C2070 C 0.59784 0.83246 0.1354 0.0
C2071 C 0.58271 0.81966 0.07217 0.0
C2072 C 0.58635 0.79299 0.03152 0.0
H2073 H 0.60606 0.78828 0.80772 0.0
H2074 H 0.59959 0.79875 0.8673 0.0
H2075 H 0.5862 0.77674 0.00084 0.0
H2076 H 0.61396 0.82947 0.1429 0.0
H2077 H 0.60721 0.81358 0.07878 0.0
H2078 H 0.58369 0.81556 0.96708 0.0
C2079 C 0.59497 0.78847 0.86781 0.0
C2080 C 0.5852 0.78494 0.99312 0.0
C2081 C 0.5988 0.78248 0.83405 0.0
C2082 C 0.60524 0.82691 0.12344 0.0
C2083 C 0.60131 0.81771 0.08707 0.0
C2084 C 0.58386 0.80691 0.97491 0.0
C2085 C 0.586 0.78138 0.90393 0.0
C2086 C 0.58398 0.78812 0.94491 0.0
C2087 C 0.58999 0.81393 0.06134 0.0
C2088 C 0.58618 0.80428 0.02246 0.0
H2089 H 0.5799 0.7518 0.87105 0.0
H2090 H 0.5734 0.76238 0.93124 0.0
H2091 H 0.58179 0.80151 0.8995 0.0
H2092 H 0.58064 0.83289 0.11766 0.0
H2093 H 0.57397 0.81694 0.05253 0.0
C2094 C 0.23914 0.8259 0.87592 0.0
C2095 C 0.24172 0.83848 0.88133 0.0
C2096 C 0.23123 0.81653 0.90932 0.0
C2097 C 0.20491 0.81084 0.99059 0.0
H2098 H 0.2055 0.78047 0.02952 0.0
C2099 C 0.16171 0.77112 0.08428 0.0
C2100 C 0.16406 0.76628 0.12706 0.0
C2101 C 0.1715 0.77809 0.05125 0.0
C2102 C 0.20524 0.78893 0.01903 0.0
H2103 H 0.23932 0.85143 0.92852 0.0
H2104 H 0.22605 0.83527 0.98778 0.0
H2105 H 0.22344 0.79715 0.98366 0.0
H2106 H 0.17823 0.7641 0.16717 0.0
H2107 H 0.19551 0.77666 0.11006 0.0
H2108 H 0.18701 0.80298 0.02648 0.0
C2109 C 0.22964 0.83248 0.95681 0.0
C2110 C 0.21547 0.79844 0.99258 0.0
C2111 C 0.23734 0.84177 0.92313 0.0
C2112 C 0.17616 0.76772 0.1344 0.0
C2113 C 0.18606 0.77491 0.10163 0.0
C2114 C 0.19477 0.80142 0.01688 0.0
C2115 C 0.22592 0.81964 0.9489 0.0
C2116 C 0.21543 0.80955 0.97831 0.0
C2117 C 0.18394 0.78063 0.06077 0.0
C2118 C 0.19474 0.79031 0.03131 0.0
H2119 H 0.24237 0.8231 0.84388 0.0
H2120 H 0.22858 0.80675 0.90215 0.0
H2121 H 0.20438 0.81911 0.97933 0.0
H2122 H 0.1524 0.76996 0.07734 0.0
H2123 H 0.16944 0.78201 0.01931 0.0
C2124 C 0.37268 0.11161 0.79377 0.0
C2125 C 0.38513 0.11922 0.81109 0.0
C2126 C 0.36294 0.1037 0.82555 0.0
C2127 C 0.35356 0.10438 0.9482 0.0
H2128 H 0.32586 0.07038 0.92129 0.0
C2129 C 0.3076 0.08345 0.06091 0.0
C2130 C 0.29617 0.07649 0.03515 0.0
C2131 C 0.31918 0.08642 0.0393 0.0
C2132 C 0.33346 0.07991 0.9292 0.0
H2133 H 0.39735 0.1243 0.87451 0.0
H2134 H 0.38013 0.11066 0.93085 0.0
H2135 H 0.34522 0.07924 0.87213 0.0
H2136 H 0.28777 0.06693 0.96704 0.0
H2137 H 0.30796 0.07259 0.92823 0.0
H2138 H 0.34165 0.10559 0.00249 0.0
C2139 C 0.37801 0.11064 0.89244 0.0
C2140 C 0.34459 0.08491 0.90134 0.0
C2141 C 0.38784 0.11835 0.86026 0.0
C2142 C 0.29646 0.07225 0.98781 0.0
C2143 C 0.30806 0.07544 0.96574 0.0
C2144 C 0.34238 0.09949 0.97546 0.0
C2145 C 0.36542 0.1035 0.87549 0.0
C2146 C 0.35463 0.09729 0.90999 0.0
C2147 C 0.31962 0.08274 0.99092 0.0
C2148 C 0.33205 0.08728 0.96567 0.0
H2149 H 0.37038 0.11222 0.75601 0.0
H2150 H 0.35332 0.09841 0.81163 0.0
H2151 H 0.36108 0.11403 0.95507 0.0
H2152 H 0.30762 0.08672 0.09772 0.0
H2153 H 0.3278 0.09177 0.06039 0.0
C2154 C 0.93121 0.21981 0.99688 0.0
C2155 C 0.92388 0.21213 0.03583 0.0
C2156 C 0.92737 0.22728 0.97121 0.0
C2157 C 0.90459 0.23953 0.97551 0.0
H2158 H 0.90769 0.23976 0.83467 0.0
C2159 C 0.87904 0.24609 0.79402 0.0
C2160 C 0.87741 0.25624 0.8089 0.0
C2161 C 0.88634 0.24248 0.8218 0.0
C2162 C 0.90668 0.23974 0.87395 0.0
H2163 H 0.90701 0.20659 0.07953 0.0
H2164 H 0.90012 0.2192 0.03415 0.0
H2165 H 0.91727 0.23022 0.88436 0.0
H2166 H 0.88245 0.27083 0.86381 0.0
H2167 H 0.89553 0.26475 0.91184 0.0
H2168 H 0.89332 0.24833 0.96491 0.0
C2169 C 0.90897 0.21974 0.02377 0.0
C2170 C 0.91237 0.23443 0.90258 0.0
C2171 C 0.91287 0.21238 0.04963 0.0
C2172 C 0.88348 0.26291 0.8516 0.0
C2173 C 0.89091 0.25938 0.87924 0.0
C2174 C 0.89879 0.24471 0.94684 0.0
C2175 C 0.91606 0.22715 0.98376 0.0
C2176 C 0.9112 0.23404 0.95371 0.0
C2177 C 0.89233 0.24903 0.86492 0.0
C2178 C 0.89955 0.24466 0.89562 0.0
H2179 H 0.93978 0.21986 0.98559 0.0
H2180 H 0.93319 0.23304 0.94116 0.0
H2181 H 0.90368 0.23961 0.0148 0.0
H2182 H 0.87445 0.24073 0.76135 0.0
H2183 H 0.88699 0.23432 0.81003 0.0
C2184 C 0.74087 0.63198 0.7817 0.0
C2185 C 0.73504 0.61948 0.79944 0.0
C2186 C 0.74235 0.64189 0.81168 0.0
C2187 C 0.74804 0.65079 0.93837 0.0
H2188 H 0.74654 0.68041 0.89503 0.0
C2189 C 0.77094 0.69642 0.05265 0.0
C2190 C 0.77813 0.7078 0.02671 0.0
C2191 C 0.76255 0.68524 0.02827 0.0
C2192 C 0.74707 0.67224 0.90764 0.0
H2193 H 0.72564 0.60736 0.86158 0.0
H2194 H 0.72844 0.62485 0.91484 0.0
H2195 H 0.7367 0.66106 0.84571 0.0
H2196 H 0.78189 0.71654 0.95521 0.0
H2197 H 0.76757 0.69692 0.91214 0.0
H2198 H 0.75903 0.66205 -0.00143 0.0
C2199 C 0.73176 0.62692 0.87746 0.0
C2200 C 0.74135 0.66114 0.87956 0.0
C2201 C 0.73009 0.61692 0.84701 0.0
C2202 C 0.77643 0.7079 0.9761 0.0
C2203 C 0.76815 0.69665 0.95152 0.0
C2204 C 0.75385 0.66191 0.96618 0.0
C2205 C 0.73819 0.63953 0.86035 0.0
C2206 C 0.74206 0.65041 0.89406 0.0
C2207 C 0.7613 0.68511 0.97721 0.0
C2208 C 0.75372 0.67288 0.95059 0.0
H2209 H 0.74476 0.63417 0.74508 0.0
H2210 H 0.74746 0.6515 0.79758 0.0
H2211 H 0.74893 0.64275 0.9501 0.0
H2212 H 0.77196 0.69611 0.09183 0.0
H2213 H 0.75723 0.67663 0.04943 0.0
C2214 C 0.11302 0.36272 0.72663 0.0
C2215 C 0.1164 0.37493 0.7098 0.0
C2216 C 0.10428 0.35195 0.70089 0.0
C2217 C 0.09506 0.34256 0.57647 0.0
H2218 H 0.06949 0.3105 0.63201 0.0
C2219 C 0.07264 0.29817 0.45736 0.0
C2220 C 0.07104 0.28699 0.47872 0.0
C2221 C 0.07479 0.30849 0.48634 0.0
C2222 C 0.07665 0.31935 0.61594 0.0
H2223 H 0.11286 0.38549 0.65432 0.0
H2224 H 0.0977 0.36659 0.60852 0.0
H2225 H 0.07935 0.32961 0.68282 0.0
H2226 H 0.06993 0.27749 0.54686 0.0
H2227 H 0.07439 0.29577 0.59788 0.0
H2228 H 0.09319 0.33241 0.51086 0.0
C2229 C 0.10177 0.36539 0.64187 0.0
C2230 C 0.08221 0.3303 0.64498 0.0
C2231 C 0.11039 0.37618 0.66811 0.0
C2232 C 0.07104 0.28603 0.5297 0.0
C2233 C 0.07355 0.29651 0.55883 0.0
C2234 C 0.08968 0.33163 0.54773 0.0
C2235 C 0.09888 0.3532 0.65741 0.0
C2236 C 0.09161 0.34197 0.62564 0.0
C2237 C 0.07584 0.30802 0.53737 0.0
C2238 C 0.08052 0.31981 0.56716 0.0
H2239 H 0.11749 0.36149 0.7588 0.0
H2240 H 0.10233 0.3427 0.71347 0.0
H2241 H 0.10246 0.35137 0.56085 0.0
H2242 H 0.07255 0.29905 0.41801 0.0
H2243 H 0.07606 0.31699 0.46845 0.0
C2244 C 0.70152 0.78446 0.45255 0.0
C2245 C 0.71337 0.78631 0.46777 0.0
C2246 C 0.6906 0.77688 0.47958 0.0
C2247 C 0.6747 0.7524 0.57118 0.0
H2248 H 0.65984 0.77286 0.61017 0.0
C2249 C 0.6245 0.73459 0.66121 0.0
C2250 C 0.62462 0.742 0.70086 0.0
C2251 C 0.63568 0.73815 0.63471 0.0
C2252 C 0.66389 0.76703 0.5997 0.0
H2253 H 0.72296 0.78093 0.52134 0.0
H2254 H 0.7036 0.76749 0.56914 0.0
H2255 H 0.67859 0.78207 0.55814 0.0
H2256 H 0.63667 0.75838 0.74588 0.0
H2257 H 0.65595 0.76458 0.69958 0.0
H2258 H 0.6597 0.73726 0.61261 0.0
C2259 C 0.7029 0.77199 0.53605 0.0
C2260 C 0.67457 0.77228 0.56978 0.0
C2261 C 0.71394 0.77967 0.50886 0.0
C2262 C 0.6362 0.75256 0.71513 0.0
C2263 C 0.64727 0.75612 0.6887 0.0
C2264 C 0.6638 0.74704 0.60075 0.0
C2265 C 0.69124 0.77092 0.52241 0.0
C2266 C 0.68008 0.76505 0.55518 0.0
C2267 C 0.64706 0.74918 0.64748 0.0
C2268 C 0.65838 0.75438 0.61546 0.0
H2269 H 0.70073 0.7893 0.42067 0.0
H2270 H 0.6817 0.77609 0.46808 0.0
H2271 H 0.67879 0.74666 0.56018 0.0
H2272 H 0.61571 0.72638 0.64949 0.0
H2273 H 0.63529 0.73268 0.60288 0.0
C2274 C 0.2205 0.91752 0.43641 0.0
C2275 C 0.2164 0.92563 0.45509 0.0
C2276 C 0.22842 0.91467 0.46398 0.0
C2277 C 0.23499 0.911 0.58972 0.0
H2278 H 0.2636 0.90908 0.53679 0.0
C2279 C 0.26023 0.89103 0.70581 0.0
C2280 C 0.26355 0.88285 0.68225 0.0
C2281 C 0.25678 0.89856 0.67874 0.0
C2282 C 0.25557 0.90946 0.55205 0.0
H2283 H 0.21761 0.9374 0.51663 0.0
H2284 H 0.2313 0.93218 0.56538 0.0
H2285 H 0.2533 0.91813 0.4875 0.0
H2286 H 0.26626 0.87636 0.61204 0.0
H2287 H 0.25974 0.88912 0.56455 0.0
H2288 H 0.23668 0.90174 0.65304 0.0
C2289 C 0.22843 0.92812 0.52924 0.0
C2290 C 0.24974 0.91471 0.52389 0.0
C2291 C 0.22065 0.93113 0.50132 0.0
C2292 C 0.26381 0.88266 0.63108 0.0
C2293 C 0.26013 0.89004 0.60391 0.0
C2294 C 0.2407 0.9056 0.61759 0.0
C2295 C 0.23224 0.91972 0.51105 0.0
C2296 C 0.2393 0.91539 0.54229 0.0
C2297 C 0.2563 0.89789 0.62744 0.0
C2298 C 0.25098 0.90461 0.59896 0.0
H2299 H 0.21739 0.91317 0.40082 0.0
H2300 H 0.23111 0.90807 0.44926 0.0
H2301 H 0.22683 0.91122 0.60452 0.0
H2302 H 0.26008 0.89144 0.7453 0.0
H2303 H 0.25424 0.90473 0.69818 0.0
C2304 C 0.71074 0.92869 0.02273 0.0
C2305 C 0.7107 0.92648 0.97247 0.0
C2306 C 0.69931 0.92486 0.04749 0.0
C2307 C 0.66466 0.90232 0.0337 0.0
H2308 H 0.66253 0.91883 0.15155 0.0
C2309 C 0.61804 0.88332 0.143 0.0
C2310 C 0.6194 0.88064 0.19179 0.0
C2311 C 0.6288 0.89084 0.11448 0.0
C2312 C 0.663 0.91418 0.1185 0.0
H2313 H 0.69888 0.91928 0.908 0.0
H2314 H 0.67905 0.91322 0.95036 0.0
H2315 H 0.68216 0.92865 0.10384 0.0
H2316 H 0.63291 0.88423 0.24983 0.0
H2317 H 0.65166 0.89759 0.20037 0.0
H2318 H 0.64547 0.8879 0.04845 0.0
C2319 C 0.68777 0.91739 0.97138 0.0
C2320 C 0.67426 0.91973 0.09134 0.0
C2321 C 0.69914 0.92096 0.94694 0.0
C2322 C 0.63162 0.88613 0.21226 0.0
C2323 C 0.64233 0.89383 0.18408 0.0
C2324 C 0.65336 0.89691 0.06038 0.0
C2325 C 0.68763 0.91896 0.02223 0.0
C2326 C 0.67533 0.91375 0.04904 0.0
C2327 C 0.64105 0.896 0.13463 0.0
C2328 C 0.6525 0.90265 0.10349 0.0
H2329 H 0.71954 0.93285 0.04329 0.0
H2330 H 0.69962 0.92609 0.08669 0.0
H2331 H 0.66513 0.89724 0.00205 0.0
H2332 H 0.60873 0.87915 0.1263 0.0
H2333 H 0.62758 0.89241 0.07643 0.0
C2334 C 0.11459 0.73522 0.12748 0.0
C2335 C 0.11567 0.73917 0.17626 0.0
C2336 C 0.10683 0.7372 0.09506 0.0
C2337 C 0.08107 0.74488 0.08604 0.0
H2338 H 0.10086 0.76688 0.97958 0.0
C2339 C 0.06867 0.77999 0.99412 0.0
C2340 C 0.07298 0.78415 0.94655 0.0
C2341 C 0.07141 0.77134 0.01707 0.0
C2342 C 0.09497 0.76047 0.0081 0.0
H2343 H 0.10896 0.74743 0.23039 0.0
H2344 H 0.09522 0.75061 0.17421 0.0
H2345 H 0.10964 0.7565 0.02855 0.0
H2346 H 0.08257 0.7819 0.88404 0.0
H2347 H 0.08667 0.76627 0.92261 0.0
H2348 H 0.06643 0.74893 0.06601 0.0
C2349 C 0.10038 0.74608 0.16083 0.0
C2350 C 0.10007 0.75454 0.03629 0.0
C2351 C 0.10831 0.74435 0.19285 0.0
C2352 C 0.07929 0.77893 0.92107 0.0
C2353 C 0.08173 0.77005 0.94342 0.0
C2354 C 0.07585 0.75065 0.05726 0.0
C2355 C 0.09985 0.74287 0.11134 0.0
C2356 C 0.09334 0.747 0.07638 0.0
C2357 C 0.07828 0.76651 0.99239 0.0
C2358 C 0.0829 0.75884 0.01879 0.0
H2359 H 0.12023 0.73124 0.11384 0.0
H2360 H 0.10658 0.73466 0.057 0.0
H2361 H 0.07567 0.73904 0.11669 0.0
H2362 H 0.06385 0.78398 0.01455 0.0
H2363 H 0.06871 0.769 0.05494 0.0
C2364 C 0.26273 0.3764 0.16325 0.0
C2365 C 0.25812 0.37581 0.21067 0.0
C2366 C 0.26003 0.36523 0.13866 0.0
C2367 C 0.23622 0.33078 0.14233 0.0
H2368 H 0.25645 0.32923 0.03599 0.0
C2369 C 0.21908 0.28559 0.02681 0.0
C2370 C 0.21835 0.28777 0.97687 0.0
C2371 C 0.22607 0.29579 0.05845 0.0
C2372 C 0.25076 0.32953 0.06584 0.0
H2373 H 0.24801 0.36338 0.27115 0.0
H2374 H 0.244 0.344 0.22978 0.0
H2375 H 0.26516 0.34816 0.08764 0.0
H2376 H 0.22488 0.30216 0.92034 0.0
H2377 H 0.23729 0.31995 0.9755 0.0
H2378 H 0.22185 0.31216 0.12044 0.0
C2379 C 0.24915 0.35292 0.21036 0.0
C2380 C 0.25569 0.34039 0.09524 0.0
C2381 C 0.25156 0.36403 0.23436 0.0
C2382 C 0.22528 0.30023 0.95871 0.0
C2383 C 0.23243 0.31039 0.99019 0.0
C2384 C 0.23141 0.31988 0.11354 0.0
C2385 C 0.25289 0.35329 0.16147 0.0
C2386 C 0.24837 0.34127 0.13331 0.0
C2387 C 0.23261 0.3083 0.04051 0.0
C2388 C 0.23851 0.31924 0.07444 0.0
H2389 H 0.2677 0.38539 0.14409 0.0
H2390 H 0.26297 0.36595 0.10094 0.0
H2391 H 0.23012 0.33112 0.17035 0.0
H2392 H 0.2138 0.27609 0.0418 0.0
H2393 H 0.22609 0.29395 0.09713 0.0
C2394 C 0.88684 0.61996 0.33858 0.0
C2395 C 0.88441 0.61986 0.28848 0.0
C2396 C 0.89516 0.63138 0.36206 0.0
C2397 C 0.9076 0.66578 0.34695 0.0
H2398 H 0.92627 0.66788 0.46465 0.0
C2399 C 0.93026 0.71081 0.46655 0.0
C2400 C 0.92591 0.70807 0.51493 0.0
C2401 C 0.92871 0.70102 0.43522 0.0
C2402 C 0.92118 0.66745 0.43157 0.0
H2403 H 0.88943 0.63133 0.22285 0.0
H2404 H 0.90427 0.65112 0.26329 0.0
H2405 H 0.91709 0.64854 0.41533 0.0
H2406 H 0.91727 0.69321 0.56946 0.0
H2407 H 0.91472 0.67623 0.51525 0.0
H2408 H 0.91142 0.68455 0.36387 0.0
C2409 C 0.89947 0.64254 0.28495 0.0
C2410 C 0.91586 0.65636 0.40348 0.0
C2411 C 0.89103 0.63118 0.2617 0.0
C2412 C 0.92066 0.69557 0.53222 0.0
C2413 C 0.9193 0.68586 0.50129 0.0
C2414 C 0.91301 0.67689 0.37476 0.0
C2415 C 0.90134 0.64287 0.33571 0.0
C2416 C 0.90865 0.65524 0.36163 0.0
C2417 C 0.92299 0.68842 0.45216 0.0
C2418 C 0.91951 0.67769 0.41815 0.0
H2419 H 0.88181 0.61137 0.36011 0.0
H2420 H 0.89623 0.63126 0.40127 0.0
H2421 H 0.90197 0.66524 0.31542 0.0
H2422 H 0.93431 0.72038 0.45236 0.0
H2423 H 0.93166 0.70324 0.39748 0.0
C2424 C 0.29482 0.22012 0.52128 0.0
C2425 C 0.28228 0.21312 0.5041 0.0
C2426 C 0.30467 0.22799 0.48978 0.0
C2427 C 0.31395 0.22817 0.36669 0.0
H2428 H 0.34168 0.26207 0.39479 0.0
C2429 C 0.35955 0.24907 0.25263 0.0
C2430 C 0.37105 0.25603 0.2779 0.0
C2431 C 0.34806 0.24628 0.27458 0.0
C2432 C 0.33409 0.25256 0.38653 0.0
H2433 H 0.27005 0.20905 0.44117 0.0
H2434 H 0.28747 0.22255 0.38522 0.0
H2435 H 0.32248 0.25293 0.44488 0.0
H2436 H 0.37972 0.2658 0.34532 0.0
H2437 H 0.35968 0.26038 0.38495 0.0
H2438 H 0.32571 0.22719 0.31125 0.0
C2439 C 0.28957 0.22214 0.42338 0.0
C2440 C 0.32304 0.24741 0.41495 0.0
C2441 C 0.27964 0.21449 0.45531 0.0
C2442 C 0.37096 0.26052 0.32493 0.0
C2443 C 0.35943 0.25745 0.34748 0.0
C2444 C 0.32506 0.23319 0.33895 0.0
C2445 C 0.3022 0.22875 0.44023 0.0
C2446 C 0.31297 0.23508 0.40576 0.0
C2447 C 0.34778 0.25004 0.32298 0.0
C2448 C 0.33542 0.24537 0.34902 0.0
H2449 H 0.29707 0.21916 0.55876 0.0
H2450 H 0.31433 0.23286 0.50354 0.0
H2451 H 0.3064 0.21856 0.35939 0.0
H2452 H 0.35941 0.2456 0.21608 0.0
H2453 H 0.33939 0.24091 0.25384 0.0
C2454 C 0.77937 0.06633 0.4704 0.0
C2455 C 0.78424 0.07262 0.51494 0.0
C2456 C 0.77064 0.06835 0.44405 0.0
C2457 C 0.74818 0.08041 0.45227 0.0
H2458 H 0.76093 0.09485 0.32457 0.0
C2459 C 0.73434 0.11417 0.35687 0.0
C2460 C 0.73542 0.11541 0.30599 0.0
C2461 C 0.73747 0.10592 0.38098 0.0
C2462 C 0.75693 0.09054 0.35949 0.0
H2463 H 0.78329 0.08527 0.56839 0.0
H2464 H 0.76786 0.08851 0.52316 0.0
H2465 H 0.77102 0.08507 0.36933 0.0
H2466 H 0.73955 0.10842 0.23988 0.0
H2467 H 0.74413 0.09344 0.2812 0.0
H2468 H 0.73413 0.08594 0.44277 0.0
C2469 C 0.77081 0.08212 0.50833 0.0
C2470 C 0.76279 0.08495 0.38521 0.0
C2471 C 0.77971 0.08034 0.53401 0.0
C2472 C 0.73877 0.10768 0.2793 0.0
C2473 C 0.74153 0.0992 0.30313 0.0
C2474 C 0.74215 0.08581 0.42616 0.0
C2475 C 0.76644 0.07642 0.46253 0.0
C2476 C 0.75871 0.08015 0.43235 0.0
C2477 C 0.74146 0.09858 0.35444 0.0
C2478 C 0.74667 0.09128 0.37991 0.0
H2479 H 0.78278 0.06038 0.45487 0.0
H2480 H 0.76741 0.06386 0.40873 0.0
H2481 H 0.74482 0.07671 0.48856 0.0
H2482 H 0.7319 0.12016 0.37815 0.0
H2483 H 0.7374 0.10586 0.42048 0.0
C2484 C 0.96696 0.41749 0.36316 0.0
C2485 C 0.9547 0.40762 0.35161 0.0
C2486 C 0.9774 0.41943 0.33552 0.0
C2487 C 0.98584 0.41448 0.21269 0.0
H2488 H 0.01913 0.42836 0.27228 0.0
C2489 C 0.03171 0.44891 0.11255 0.0
C2490 C 0.04321 0.44948 0.1247 0.0
C2491 C 0.02049 0.44057 0.13685 0.0
C2492 C 0.00991 0.42426 0.25481 0.0
H2493 H 0.94378 0.39178 0.30287 0.0
H2494 H 0.96217 0.39516 0.25419 0.0
H2495 H 0.00028 0.41914 0.32352 0.0
H2496 H 0.05186 0.44121 0.16985 0.0
H2497 H 0.03218 0.42642 0.21187 0.0
H2498 H 0.9955 0.41972 0.14395 0.0
C2499 C 0.96364 0.40144 0.28462 0.0
C2500 C 0.9991 0.41911 0.28432 0.0
C2501 C 0.95313 0.39946 0.31257 0.0
C2502 C 0.04315 0.44106 0.16 0.0
C2503 C 0.03189 0.43264 0.18421 0.0
C2504 C 0.99667 0.41957 0.18309 0.0
C2505 C 0.97588 0.41155 0.29554 0.0
C2506 C 0.98698 0.41463 0.26377 0.0
C2507 C 0.02047 0.4325 0.17372 0.0
C2508 C 0.00887 0.42496 0.20393 0.0
H2509 H 0.9685 0.42394 0.39305 0.0
H2510 H 0.98663 0.42744 0.34449 0.0
H2511 H 0.97666 0.41112 0.19563 0.0
H2512 H 0.03142 0.45524 0.08537 0.0
H2513 H 0.01196 0.44089 0.12821 0.0
C2514 C 0.55559 0.58667 0.12641 0.0
C2515 C 0.54971 0.59308 0.14629 0.0
C2516 C 0.56335 0.58389 0.15527 0.0
C2517 C 0.56592 0.57582 0.27936 0.0
H2518 H 0.59753 0.57842 0.23603 0.0
C2519 C 0.58932 0.55261 0.38924 0.0
C2520 C 0.59445 0.54643 0.36218 0.0
C2521 C 0.58586 0.56069 0.36621 0.0
C2522 C 0.58866 0.57752 0.24853 0.0
H2523 H 0.54759 0.60198 0.21136 0.0
H2524 H 0.561 0.59682 0.26249 0.0
H2525 H 0.58812 0.58874 0.18913 0.0
H2526 H 0.60019 0.54397 0.29001 0.0
H2527 H 0.59372 0.55767 0.24936 0.0
H2528 H 0.56594 0.56401 0.33695 0.0
C2529 C 0.55968 0.5941 0.22436 0.0
C2530 C 0.58334 0.58353 0.22185 0.0
C2531 C 0.55209 0.5971 0.19513 0.0
C2532 C 0.59631 0.54867 0.31181 0.0
C2533 C 0.59268 0.55661 0.2886 0.0
C2534 C 0.57113 0.56968 0.30567 0.0
C2535 C 0.5652 0.58728 0.20483 0.0
C2536 C 0.57181 0.58254 0.23656 0.0
C2537 C 0.58727 0.56262 0.31542 0.0
C2538 C 0.58245 0.57024 0.2901 0.0
H2539 H 0.5539 0.58348 0.08881 0.0
H2540 H 0.56737 0.57852 0.1394 0.0
H2541 H 0.55692 0.57476 0.2911 0.0
H2542 H 0.58789 0.55113 0.42826 0.0
H2543 H 0.58199 0.56534 0.38826 0.0
C2544 C 0.41064 0.96781 0.11262 0.0
C2545 C 0.40357 0.95539 0.13096 0.0
C2546 C 0.41293 0.9782 0.14138 0.0
C2547 C 0.41756 0.98755 0.26831 0.0
H2548 H 0.41927 0.01834 0.21947 0.0
C2549 C 0.43938 0.03264 0.3854 0.0
C2550 C 0.44762 0.04409 0.36162 0.0
C2551 C 0.43142 0.02175 0.35864 0.0
C2552 C 0.41892 0.00984 0.23358 0.0
H2553 H 0.39285 0.94401 0.19295 0.0
H2554 H 0.39703 0.96231 0.24396 0.0
H2555 H 0.40934 0.99904 0.16985 0.0
H2556 H 0.45373 0.0533 0.29127 0.0
H2557 H 0.44012 0.03414 0.24409 0.0
H2558 H 0.42767 0.99836 0.33075 0.0
C2559 C 0.40075 0.96395 0.20711 0.0
C2560 C 0.41316 0.99878 0.20529 0.0
C2561 C 0.39831 0.9535 0.17792 0.0
C2562 C 0.44743 0.04459 0.31048 0.0
C2563 C 0.43957 0.03361 0.28354 0.0
C2564 C 0.4234 0.99861 0.29638 0.0
C2565 C 0.40833 0.97642 0.18941 0.0
C2566 C 0.41263 0.98758 0.22201 0.0
C2567 C 0.43165 0.02198 0.30734 0.0
C2568 C 0.42436 0.00997 0.27906 0.0
H2569 H 0.41478 0.96953 0.07643 0.0
H2570 H 0.41891 0.98767 0.12686 0.0
H2571 H 0.4175 0.97914 0.28183 0.0
H2572 H 0.43922 0.03203 0.42488 0.0
H2573 H 0.42523 0.01308 0.37828 0.0
C2574 C 0.58712 0.03478 0.87923 0.0
C2575 C 0.58982 0.04633 0.85755 0.0
C2576 C 0.58434 0.02424 0.85051 0.0
C2577 C 0.58445 0.01349 0.72319 0.0
H2578 H 0.55636 0.98196 0.77211 0.0
C2579 C 0.55289 0.96951 0.60397 0.0
C2580 C 0.5488 0.95744 0.62404 0.0
C2581 C 0.5601 0.98046 0.63175 0.0
C2582 C 0.56435 0.99063 0.75828 0.0
H2583 H 0.59222 0.05612 0.78894 0.0
H2584 H 0.58689 0.03751 0.73832 0.0
H2585 H 0.56478 0.00102 0.82157 0.0
H2586 H 0.54949 0.94732 0.68811 0.0
H2587 H 0.56204 0.96648 0.73688 0.0
H2588 H 0.58353 0.00302 0.65879 0.0
C2589 C 0.58719 0.03666 0.77758 0.0
C2590 C 0.56922 0.00159 0.78668 0.0
C2591 C 0.59019 0.04731 0.80648 0.0
C2592 C 0.55249 0.95651 0.67174 0.0
C2593 C 0.55962 0.96746 0.69969 0.0
C2594 C 0.57948 0.0025 0.6945 0.0
C2595 C 0.58394 0.02492 0.79937 0.0
C2596 C 0.57929 0.01319 0.76949 0.0
C2597 C 0.56326 0.97952 0.68028 0.0
C2598 C 0.56932 0.99098 0.71171 0.0
H2599 H 0.58695 0.03382 0.91859 0.0
H2600 H 0.58226 0.01548 0.86856 0.0
H2601 H 0.5923 0.02221 0.70905 0.0
H2602 H 0.55022 0.97051 0.5672 0.0
H2603 H 0.56267 0.98961 0.61595 0.0
C2604 C 0.03042 0.58016 0.60798 0.0
C2605 C 0.04192 0.58777 0.63255 0.0
C2606 C 0.0189 0.5776 0.62879 0.0
C2607 C 0.00467 0.58639 0.73278 0.0
H2608 H 0.97665 0.55218 0.71197 0.0
C2609 C 0.96269 0.55804 0.86441 0.0
C2610 C 0.95049 0.55078 0.84432 0.0
C2611 C 0.9732 0.56495 0.83424 0.0
C2612 C 0.98431 0.56184 0.71743 0.0
H2613 H 0.0505 0.59888 0.69764 0.0
H2614 H 0.03033 0.59385 0.7356 0.0
H2615 H 0.99644 0.55933 0.66819 0.0
H2616 H 0.93955 0.54541 0.77732 0.0
H2617 H 0.95809 0.55727 0.72412 0.0
H2618 H 0.9926 0.58839 0.78499 0.0
C2619 C 0.03015 0.59019 0.69942 0.0
C2620 C 0.9957 0.566 0.6922 0.0
C2621 C 0.04174 0.59302 0.67792 0.0
C2622 C 0.94886 0.55103 0.79367 0.0
C2623 C 0.95944 0.55774 0.76332 0.0
C2624 C 0.99333 0.58211 0.75877 0.0
C2625 C 0.01854 0.58228 0.67541 0.0
C2626 C 0.00612 0.57829 0.69987 0.0
C2627 C 0.97173 0.56451 0.78334 0.0
C2628 C 0.98311 0.56975 0.75165 0.0
H2629 H 0.03033 0.57615 0.57256 0.0
H2630 H 0.01025 0.5718 0.60837 0.0
H2631 H 0.01235 0.59599 0.73903 0.0
H2632 H 0.96417 0.55797 0.90339 0.0
H2633 H 0.98258 0.57 0.85054 0.0
C2634 C 0.39759 0.44318 0.67114 0.0
C2635 C 0.4033 0.44836 0.62599 0.0
C2636 C 0.40074 0.43513 0.69645 0.0
C2637 C 0.41607 0.41548 0.68645 0.0
H2638 H 0.42877 0.42835 0.81597 0.0
C2639 C 0.45122 0.40466 0.7901 0.0
C2640 C 0.45141 0.40529 0.84118 0.0
C2641 C 0.44284 0.40716 0.76354 0.0
C2642 C 0.42499 0.42433 0.78046 0.0
H2643 H 0.41608 0.44856 0.57034 0.0
H2644 H 0.42144 0.43439 0.61419 0.0
H2645 H 0.41797 0.43716 0.76993 0.0
H2646 H 0.44252 0.40795 0.90498 0.0
H2647 H 0.42737 0.41145 0.85928 0.0
H2648 H 0.42319 0.40268 0.69688 0.0
C2649 C 0.41458 0.43655 0.63013 0.0
C2650 C 0.41881 0.42945 0.75398 0.0
C2651 C 0.41158 0.44473 0.6052 0.0
C2652 C 0.44258 0.40754 0.86547 0.0
C2653 C 0.43401 0.40968 0.83917 0.0
C2654 C 0.42211 0.41019 0.7133 0.0
C2655 C 0.4095 0.43199 0.67665 0.0
C2656 C 0.41449 0.42525 0.70642 0.0
C2657 C 0.43438 0.41009 0.78783 0.0
C2658 C 0.42685 0.41471 0.76042 0.0
H2659 H 0.3912 0.44584 0.68804 0.0
H2660 H 0.39665 0.43168 0.73219 0.0
H2661 H 0.41278 0.41204 0.64983 0.0
H2662 H 0.45807 0.40306 0.77074 0.0
H2663 H 0.44351 0.40748 0.72411 0.0
loop_
_geom_bond_atom_site_label_1
_geom_bond_atom_site_label_2
_geom_bond_distance
_geom_bond_site_symmetry_2
_ccdc_geom_bond_type
Co0 O1 2.216 . S
Co0 O2 2.091 . S
Co0 O4 2.004 1_554 S
Co0 O10 2.021 . S
Co0 O12 2.137 . S
Co0 O13 2.244 . S
O1 Co0 2.216 . S
O1 C8 1.247 . S
O2 Co0 2.091 . S
O2 C8 1.261 . S
C3 O12 1.247 . S
C3 O13 1.272 . S
O4 Co0 2.004 1_556 S
O4 C9 1.259 . S
Co5 O6 2.058 1_554 S
Co5 O11 2.052 . S
Co5 O13 2.135 . S
O6 Co5 2.058 1_556 S
O6 C9 1.237 . S
C7 O10 1.238 . S
C7 O11 1.241 . S
C8 O1 1.247 . S
C8 O2 1.261 . S
C9 O4 1.259 . S
C9 O6 1.237 . S
O10 Co0 2.021 . S
O10 C7 1.238 . S
O11 Co5 2.052 . S
O11 C7 1.241 . S
O12 Co0 2.137 . S
O12 C3 1.247 . S
O13 Co0 2.244 . S
O13 C3 1.272 . S
O13 Co5 2.135 . S
Co14 O15 2.216 . S
Co14 O16 2.091 . S
Co14 O18 2.004 1_554 S
Co14 O24 2.021 . S
Co14 O26 2.137 . S
Co14 O27 2.244 . S
O15 Co14 2.216 . S
O15 C22 1.247 . S
O16 Co14 2.091 . S
O16 C22 1.261 . S
C17 O26 1.247 . S
C17 O27 1.272 . S
O18 Co14 2.004 1_556 S
O18 C23 1.259 . S
Co19 O20 2.057 1_554 S
Co19 O25 2.052 . S
Co19 O27 2.135 . S
O20 Co19 2.057 1_556 S
O20 C23 1.238 . S
C21 O24 1.238 . S
C21 O25 1.241 . S
C22 O15 1.247 . S
C22 O16 1.261 . S
C23 O18 1.259 . S
C23 O20 1.238 . S
O24 Co14 2.021 . S
O24 C21 1.238 . S
O25 Co19 2.052 . S
O25 C21 1.241 . S
O26 Co14 2.137 . S
O26 C17 1.247 . S
O27 Co14 2.244 . S
O27 C17 1.272 . S
O27 Co19 2.135 . S
Co28 O29 2.216 . S
Co28 O30 2.091 . S
Co28 O32 2.004 1_554 S
Co28 O38 2.021 . S
Co28 O40 2.137 . S
Co28 O41 2.244 . S
O29 Co28 2.216 . S
O29 C36 1.247 . S
O30 Co28 2.091 . S
O30 C36 1.261 . S
C31 O40 1.247 . S
C31 O41 1.272 . S
O32 Co28 2.004 1_556 S
O32 C37 1.259 . S
Co33 O34 2.056 1_554 S
Co33 O39 2.052 . S
Co33 O41 2.135 . S
O34 Co33 2.056 1_556 S
O34 C37 1.238 . S
C35 O38 1.238 . S
C35 O39 1.241 . S
C36 O29 1.247 . S
C36 O30 1.261 . S
C37 O32 1.259 . S
C37 O34 1.238 . S
O38 Co28 2.021 . S
O38 C35 1.238 . S
O39 Co33 2.052 . S
O39 C35 1.241 . S
O40 Co28 2.137 . S
O40 C31 1.247 . S
O41 Co28 2.244 . S
O41 C31 1.272 . S
O41 Co33 2.135 . S
Co42 O43 2.216 . S
Co42 O44 2.091 . S
Co42 O46 2.004 . S
Co42 O52 2.021 . S
Co42 O54 2.137 . S
Co42 O55 2.244 . S
O43 Co42 2.216 . S
O43 C50 1.247 . S
O44 Co42 2.091 . S
O44 C50 1.261 . S
C45 O54 1.247 . S
C45 O55 1.272 . S
O46 Co42 2.004 . S
O46 C51 1.259 . S
Co47 O48 2.061 . S
Co47 O53 2.052 . S
Co47 O55 2.135 . S
O48 Co47 2.061 . S
O48 C51 1.235 . S
C49 O52 1.238 . S
C49 O53 1.241 . S
C50 O43 1.247 . S
C50 O44 1.261 . S
C51 O46 1.259 . S
C51 O48 1.235 . S
O52 Co42 2.021 . S
O52 C49 1.238 . S
O53 Co47 2.052 . S
O53 C49 1.241 . S
O54 Co42 2.137 . S
O54 C45 1.247 . S
O55 Co42 2.244 . S
O55 C45 1.272 . S
O55 Co47 2.135 . S
Co56 O57 2.216 . S
Co56 O58 2.091 . S
Co56 O60 2.004 . S
Co56 O66 2.021 . S
Co56 O68 2.137 . S
Co56 O69 2.244 . S
O57 Co56 2.216 . S
O57 C64 1.247 . S
O58 Co56 2.091 . S
O58 C64 1.261 . S
C59 O68 1.247 . S
C59 O69 1.272 . S
O60 Co56 2.004 . S
O60 C65 1.259 . S
Co61 O62 2.061 . S
Co61 O67 2.052 . S
Co61 O69 2.135 . S
O62 Co61 2.061 . S
O62 C65 1.235 . S
C63 O66 1.238 . S
C63 O67 1.241 . S
C64 O57 1.247 . S
C64 O58 1.261 . S
C65 O60 1.259 . S
C65 O62 1.235 . S
O66 Co56 2.021 . S
O66 C63 1.238 . S
O67 Co61 2.052 . S
O67 C63 1.241 . S
O68 Co56 2.137 . S
O68 C59 1.247 . S
O69 Co56 2.244 . S
O69 C59 1.272 . S
O69 Co61 2.135 . S
Co70 O71 2.216 . S
Co70 O72 2.091 . S
Co70 O74 2.004 . S
Co70 O80 2.021 . S
Co70 O82 2.137 . S
Co70 O83 2.244 . S
O71 Co70 2.216 . S
O71 C78 1.247 . S
O72 Co70 2.091 . S
O72 C78 1.261 . S
C73 O82 1.247 . S
C73 O83 1.272 . S
O74 Co70 2.004 . S
O74 C79 1.259 . S
Co75 O76 2.061 . S
Co75 O81 2.052 . S
Co75 O83 2.135 . S
O76 Co75 2.061 . S
O76 C79 1.235 . S
C77 O80 1.238 . S
C77 O81 1.241 . S
C78 O71 1.247 . S
C78 O72 1.261 . S
C79 O74 1.259 . S
C79 O76 1.235 . S
O80 Co70 2.021 . S
O80 C77 1.238 . S
O81 Co75 2.052 . S
O81 C77 1.241 . S
O82 Co70 2.137 . S
O82 C73 1.247 . S
O83 Co70 2.244 . S
O83 C73 1.272 . S
O83 Co75 2.135 . S
Co84 O85 2.216 . S
Co84 O86 2.091 . S
Co84 O88 2.004 1_556 S
Co84 O94 2.021 . S
Co84 O96 2.137 . S
Co84 O97 2.244 . S
O85 Co84 2.216 . S
O85 C92 1.247 . S
O86 Co84 2.091 . S
O86 C92 1.261 . S
C87 O96 1.247 . S
C87 O97 1.272 . S
O88 Co84 2.004 1_554 S
O88 C93 1.259 . S
Co89 O90 2.058 1_556 S
Co89 O95 2.052 . S
Co89 O97 2.135 . S
O90 Co89 2.058 1_554 S
O90 C93 1.237 . S
C91 O94 1.238 . S
C91 O95 1.241 . S
C92 O85 1.247 . S
C92 O86 1.261 . S
C93 O88 1.259 . S
C93 O90 1.237 . S
O94 Co84 2.021 . S
O94 C91 1.238 . S
O95 Co89 2.052 . S
O95 C91 1.241 . S
O96 Co84 2.137 . S
O96 C87 1.247 . S
O97 Co84 2.244 . S
O97 C87 1.272 . S
O97 Co89 2.135 . S
Co98 O99 2.216 . S
Co98 O100 2.091 . S
Co98 O102 2.004 1_556 S
Co98 O108 2.021 . S
Co98 O110 2.137 . S
Co98 O111 2.244 . S
O99 Co98 2.216 . S
O99 C106 1.247 . S
O100 Co98 2.091 . S
O100 C106 1.261 . S
C101 O110 1.247 . S
C101 O111 1.272 . S
O102 Co98 2.004 1_554 S
O102 C107 1.259 . S
Co103 O104 2.057 1_556 S
Co103 O109 2.052 . S
Co103 O111 2.135 . S
O104 Co103 2.057 1_554 S
O104 C107 1.238 . S
C105 O108 1.238 . S
C105 O109 1.241 . S
C106 O99 1.247 . S
C106 O100 1.261 . S
C107 O102 1.259 . S
C107 O104 1.238 . S
O108 Co98 2.021 . S
O108 C105 1.238 . S
O109 Co103 2.052 . S
O109 C105 1.241 . S
O110 Co98 2.137 . S
O110 C101 1.247 . S
O111 Co98 2.244 . S
O111 C101 1.272 . S
O111 Co103 2.135 . S
Co112 O113 2.216 . S
Co112 O114 2.091 . S
Co112 O116 2.004 1_556 S
Co112 O122 2.021 . S
Co112 O124 2.137 . S
Co112 O125 2.244 . S
O113 Co112 2.216 . S
O113 C120 1.247 . S
O114 Co112 2.091 . S
O114 C120 1.261 . S
C115 O124 1.247 . S
C115 O125 1.272 . S
O116 Co112 2.004 1_554 S
O116 C121 1.259 . S
Co117 O118 2.056 1_556 S
Co117 O123 2.052 . S
Co117 O125 2.135 . S
O118 Co117 2.056 1_554 S
O118 C121 1.238 . S
C119 O122 1.238 . S
C119 O123 1.241 . S
C120 O113 1.247 . S
C120 O114 1.261 . S
C121 O116 1.259 . S
C121 O118 1.238 . S
O122 Co112 2.021 . S
O122 C119 1.238 . S
O123 Co117 2.052 . S
O123 C119 1.241 . S
O124 Co112 2.137 . S
O124 C115 1.247 . S
O125 Co112 2.244 . S
O125 C115 1.272 . S
O125 Co117 2.135 . S
Co126 O127 2.216 . S
Co126 O128 2.091 . S
Co126 O130 2.004 . S
Co126 O136 2.021 . S
Co126 O138 2.137 . S
Co126 O139 2.244 . S
O127 Co126 2.216 . S
O127 C134 1.247 . S
O128 Co126 2.091 . S
O128 C134 1.261 . S
C129 O138 1.247 . S
C129 O139 1.272 . S
O130 Co126 2.004 . S
O130 C135 1.259 . S
Co131 O132 2.061 . S
Co131 O137 2.052 . S
Co131 O139 2.135 . S
O132 Co131 2.061 . S
O132 C135 1.235 . S
C133 O136 1.238 . S
C133 O137 1.241 . S
C134 O127 1.247 . S
C134 O128 1.261 . S
C135 O130 1.259 . S
C135 O132 1.235 . S
O136 Co126 2.021 . S
O136 C133 1.238 . S
O137 Co131 2.052 . S
O137 C133 1.241 . S
O138 Co126 2.137 . S
O138 C129 1.247 . S
O139 Co126 2.244 . S
O139 C129 1.272 . S
O139 Co131 2.135 . S
Co140 O141 2.216 . S
Co140 O142 2.091 . S
Co140 O144 2.004 . S
Co140 O150 2.021 . S
Co140 O152 2.137 . S
Co140 O153 2.244 . S
O141 Co140 2.216 . S
O141 C148 1.247 . S
O142 Co140 2.091 . S
O142 C148 1.261 . S
C143 O152 1.247 . S
C143 O153 1.272 . S
O144 Co140 2.004 . S
O144 C149 1.259 . S
Co145 O146 2.061 . S
Co145 O151 2.052 . S
Co145 O153 2.135 . S
O146 Co145 2.061 . S
O146 C149 1.235 . S
C147 O150 1.238 . S
C147 O151 1.241 . S
C148 O141 1.247 . S
C148 O142 1.261 . S
C149 O144 1.259 . S
C149 O146 1.235 . S
O150 Co140 2.021 . S
O150 C147 1.238 . S
O151 Co145 2.052 . S
O151 C147 1.241 . S
O152 Co140 2.137 . S
O152 C143 1.247 . S
O153 Co140 2.244 . S
O153 C143 1.272 . S
O153 Co145 2.135 . S
Co154 O155 2.216 . S
Co154 O156 2.091 . S
Co154 O158 2.004 . S
Co154 O164 2.021 . S
Co154 O166 2.137 . S
Co154 O167 2.244 . S
O155 Co154 2.216 . S
O155 C162 1.247 . S
O156 Co154 2.091 . S
O156 C162 1.261 . S
C157 O166 1.247 . S
C157 O167 1.272 . S
O158 Co154 2.004 . S
O158 C163 1.259 . S
Co159 O160 2.061 . S
Co159 O165 2.052 . S
Co159 O167 2.135 . S
O160 Co159 2.061 . S
O160 C163 1.235 . S
C161 O164 1.238 . S
C161 O165 1.241 . S
C162 O155 1.247 . S
C162 O156 1.261 . S
C163 O158 1.259 . S
C163 O160 1.235 . S
O164 Co154 2.021 . S
O164 C161 1.238 . S
O165 Co159 2.052 . S
O165 C161 1.241 . S
O166 Co154 2.137 . S
O166 C157 1.247 . S
O167 Co154 2.244 . S
O167 C157 1.272 . S
O167 Co159 2.135 . S
Co168 O169 2.216 . S
Co168 O170 2.091 . S
Co168 O172 2.004 . S
Co168 O178 2.021 . S
Co168 O180 2.137 . S
Co168 O181 2.244 . S
O169 Co168 2.216 . S
O169 C176 1.247 . S
O170 Co168 2.091 . S
O170 C176 1.261 . S
C171 O180 1.247 . S
C171 O181 1.272 . S
O172 Co168 2.004 . S
O172 C177 1.259 . S
Co173 O174 2.061 . S
Co173 O179 2.052 . S
Co173 O181 2.135 . S
O174 Co173 2.061 . S
O174 C177 1.235 . S
C175 O178 1.238 . S
C175 O179 1.241 . S
C176 O169 1.247 . S
C176 O170 1.261 . S
C177 O172 1.259 . S
C177 O174 1.235 . S
O178 Co168 2.021 . S
O178 C175 1.238 . S
O179 Co173 2.052 . S
O179 C175 1.241 . S
O180 Co168 2.137 . S
O180 C171 1.247 . S
O181 Co168 2.244 . S
O181 C171 1.272 . S
O181 Co173 2.135 . S
Co182 O183 2.216 . S
Co182 O184 2.091 . S
Co182 O186 2.004 . S
Co182 O192 2.021 . S
Co182 O194 2.137 . S
Co182 O195 2.244 . S
O183 Co182 2.216 . S
O183 C190 1.247 . S
O184 Co182 2.091 . S
O184 C190 1.261 . S
C185 O194 1.247 . S
C185 O195 1.272 . S
O186 Co182 2.004 . S
O186 C191 1.259 . S
Co187 O188 2.061 . S
Co187 O193 2.052 . S
Co187 O195 2.135 . S
O188 Co187 2.061 . S
O188 C191 1.235 . S
C189 O192 1.238 . S
C189 O193 1.241 . S
C190 O183 1.247 . S
C190 O184 1.261 . S
C191 O186 1.259 . S
C191 O188 1.235 . S
O192 Co182 2.021 . S
O192 C189 1.238 . S
O193 Co187 2.052 . S
O193 C189 1.241 . S
O194 Co182 2.137 . S
O194 C185 1.247 . S
O195 Co182 2.244 . S
O195 C185 1.272 . S
O195 Co187 2.135 . S
Co196 O197 2.216 . S
Co196 O198 2.091 . S
Co196 O200 2.004 . S
Co196 O206 2.021 . S
Co196 O208 2.137 . S
Co196 O209 2.244 . S
O197 Co196 2.216 . S
O197 C204 1.247 . S
O198 Co196 2.091 . S
O198 C204 1.261 . S
C199 O208 1.247 . S
C199 O209 1.272 . S
O200 Co196 2.004 . S
O200 C205 1.259 . S
Co201 O202 2.061 . S
Co201 O207 2.052 . S
Co201 O209 2.135 . S
O202 Co201 2.061 . S
O202 C205 1.235 . S
C203 O206 1.238 . S
C203 O207 1.241 . S
C204 O197 1.247 . S
C204 O198 1.261 . S
C205 O200 1.259 . S
C205 O202 1.235 . S
O206 Co196 2.021 . S
O206 C203 1.238 . S
O207 Co201 2.052 . S
O207 C203 1.241 . S
O208 Co196 2.137 . S
O208 C199 1.247 . S
O209 Co196 2.244 . S
O209 C199 1.272 . S
O209 Co201 2.135 . S
Co210 O211 2.216 . S
Co210 O212 2.091 . S
Co210 O214 2.004 . S
Co210 O220 2.021 . S
Co210 O222 2.137 . S
Co210 O223 2.244 . S
O211 Co210 2.216 . S
O211 C218 1.247 . S
O212 Co210 2.091 . S
O212 C218 1.261 . S
C213 O222 1.247 . S
C213 O223 1.272 . S
O214 Co210 2.004 . S
O214 C219 1.259 . S
Co215 O216 2.061 . S
Co215 O221 2.052 . S
Co215 O223 2.135 . S
O216 Co215 2.061 . S
O216 C219 1.235 . S
C217 O220 1.238 . S
C217 O221 1.241 . S
C218 O211 1.247 . S
C218 O212 1.261 . S
C219 O214 1.259 . S
C219 O216 1.235 . S
O220 Co210 2.021 . S
O220 C217 1.238 . S
O221 Co215 2.052 . S
O221 C217 1.241 . S
O222 Co210 2.137 . S
O222 C213 1.247 . S
O223 Co210 2.244 . S
O223 C213 1.272 . S
O223 Co215 2.135 . S
Co224 O225 2.216 . S
Co224 O226 2.091 . S
Co224 O228 2.004 . S
Co224 O234 2.021 . S
Co224 O236 2.137 . S
Co224 O237 2.244 . S
O225 Co224 2.216 . S
O225 C232 1.247 . S
O226 Co224 2.091 . S
O226 C232 1.261 . S
C227 O236 1.247 . S
C227 O237 1.272 . S
O228 Co224 2.004 . S
O228 C233 1.259 . S
Co229 O230 2.061 . S
Co229 O235 2.052 . S
Co229 O237 2.135 . S
O230 Co229 2.061 . S
O230 C233 1.235 . S
C231 O234 1.238 . S
C231 O235 1.241 . S
C232 O225 1.247 . S
C232 O226 1.261 . S
C233 O228 1.259 . S
C233 O230 1.235 . S
O234 Co224 2.021 . S
O234 C231 1.238 . S
O235 Co229 2.052 . S
O235 C231 1.241 . S
O236 Co224 2.137 . S
O236 C227 1.247 . S
O237 Co224 2.244 . S
O237 C227 1.272 . S
O237 Co229 2.135 . S
Co238 O239 2.216 . S
Co238 O240 2.091 . S
Co238 O242 2.004 . S
Co238 O248 2.021 . S
Co238 O250 2.137 . S
Co238 O251 2.244 . S
O239 Co238 2.216 . S
O239 C246 1.247 . S
O240 Co238 2.091 . S
O240 C246 1.261 . S
C241 O250 1.247 . S
C241 O251 1.272 . S
O242 Co238 2.004 . S
O242 C247 1.259 . S
Co243 O244 2.061 . S
Co243 O249 2.052 . S
Co243 O251 2.135 . S
O244 Co243 2.061 . S
O244 C247 1.235 . S
C245 O248 1.238 . S
C245 O249 1.241 . S
C246 O239 1.247 . S
C246 O240 1.261 . S
C247 O242 1.259 . S
C247 O244 1.235 . S
O248 Co238 2.021 . S
O248 C245 1.238 . S
O249 Co243 2.052 . S
O249 C245 1.241 . S
O250 Co238 2.137 . S
O250 C241 1.247 . S
O251 Co238 2.244 . S
O251 C241 1.272 . S
O251 Co243 2.135 . S
Co252 O253 2.216 . S
Co252 O254 2.091 . S
Co252 O256 2.004 . S
Co252 O262 2.021 . S
Co252 O264 2.137 . S
Co252 O265 2.244 . S
O253 Co252 2.216 . S
O253 C260 1.247 . S
O254 Co252 2.091 . S
O254 C260 1.261 . S
C255 O264 1.247 . S
C255 O265 1.272 . S
O256 Co252 2.004 . S
O256 C261 1.259 . S
Co257 O258 2.061 . S
Co257 O263 2.052 . S
Co257 O265 2.135 . S
O258 Co257 2.061 . S
O258 C261 1.235 . S
C259 O262 1.238 . S
C259 O263 1.241 . S
C260 O253 1.247 . S
C260 O254 1.261 . S
C261 O256 1.259 . S
C261 O258 1.235 . S
O262 Co252 2.021 . S
O262 C259 1.238 . S
O263 Co257 2.052 . S
O263 C259 1.241 . S
O264 Co252 2.137 . S
O264 C255 1.247 . S
O265 Co252 2.244 . S
O265 C255 1.272 . S
O265 Co257 2.135 . S
Co266 O267 2.216 . S
Co266 O268 2.091 . S
Co266 O270 2.004 . S
Co266 O276 2.021 . S
Co266 O278 2.137 . S
Co266 O279 2.244 . S
O267 Co266 2.216 . S
O267 C274 1.247 . S
O268 Co266 2.091 . S
O268 C274 1.261 . S
C269 O278 1.247 . S
C269 O279 1.272 . S
O270 Co266 2.004 . S
O270 C275 1.259 . S
Co271 O272 2.061 . S
Co271 O277 2.052 . S
Co271 O279 2.135 . S
O272 Co271 2.061 . S
O272 C275 1.235 . S
C273 O276 1.238 . S
C273 O277 1.241 . S
C274 O267 1.247 . S
C274 O268 1.261 . S
C275 O270 1.259 . S
C275 O272 1.235 . S
O276 Co266 2.021 . S
O276 C273 1.238 . S
O277 Co271 2.052 . S
O277 C273 1.241 . S
O278 Co266 2.137 . S
O278 C269 1.247 . S
O279 Co266 2.244 . S
O279 C269 1.272 . S
O279 Co271 2.135 . S
Co280 O281 2.216 . S
Co280 O282 2.091 . S
Co280 O284 2.004 . S
Co280 O290 2.021 . S
Co280 O292 2.137 . S
Co280 O293 2.244 . S
O281 Co280 2.216 . S
O281 C288 1.247 . S
O282 Co280 2.091 . S
O282 C288 1.261 . S
C283 O292 1.247 . S
C283 O293 1.272 . S
O284 Co280 2.004 . S
O284 C289 1.259 . S
Co285 O286 2.061 . S
Co285 O291 2.052 . S
Co285 O293 2.135 . S
O286 Co285 2.061 . S
O286 C289 1.235 . S
C287 O290 1.238 . S
C287 O291 1.241 . S
C288 O281 1.247 . S
C288 O282 1.261 . S
C289 O284 1.259 . S
C289 O286 1.235 . S
O290 Co280 2.021 . S
O290 C287 1.238 . S
O291 Co285 2.052 . S
O291 C287 1.241 . S
O292 Co280 2.137 . S
O292 C283 1.247 . S
O293 Co280 2.244 . S
O293 C283 1.272 . S
O293 Co285 2.135 . S
Co294 O295 2.216 . S
Co294 O296 2.091 . S
Co294 O298 2.004 . S
Co294 O304 2.021 . S
Co294 O306 2.137 . S
Co294 O307 2.244 . S
O295 Co294 2.216 . S
O295 C302 1.247 . S
O296 Co294 2.091 . S
O296 C302 1.261 . S
C297 O306 1.247 . S
C297 O307 1.272 . S
O298 Co294 2.004 . S
O298 C303 1.259 . S
Co299 O300 2.061 . S
Co299 O305 2.052 . S
Co299 O307 2.135 . S
O300 Co299 2.061 . S
O300 C303 1.235 . S
C301 O304 1.238 . S
C301 O305 1.241 . S
C302 O295 1.247 . S
C302 O296 1.261 . S
C303 O298 1.259 . S
C303 O300 1.235 . S
O304 Co294 2.021 . S
O304 C301 1.238 . S
O305 Co299 2.052 . S
O305 C301 1.241 . S
O306 Co294 2.137 . S
O306 C297 1.247 . S
O307 Co294 2.244 . S
O307 C297 1.272 . S
O307 Co299 2.135 . S
Co308 O309 2.216 . S
Co308 O310 2.091 . S
Co308 O312 2.004 . S
Co308 O318 2.021 . S
Co308 O320 2.137 . S
Co308 O321 2.244 . S
O309 Co308 2.216 . S
O309 C316 1.247 . S
O310 Co308 2.091 . S
O310 C316 1.261 . S
C311 O320 1.247 . S
C311 O321 1.272 . S
O312 Co308 2.004 . S
O312 C317 1.259 . S
Co313 O314 2.061 . S
Co313 O319 2.052 . S
Co313 O321 2.135 . S
O314 Co313 2.061 . S
O314 C317 1.235 . S
C315 O318 1.238 . S
C315 O319 1.241 . S
C316 O309 1.247 . S
C316 O310 1.261 . S
C317 O312 1.259 . S
C317 O314 1.235 . S
O318 Co308 2.021 . S
O318 C315 1.238 . S
O319 Co313 2.052 . S
O319 C315 1.241 . S
O320 Co308 2.137 . S
O320 C311 1.247 . S
O321 Co308 2.244 . S
O321 C311 1.272 . S
O321 Co313 2.135 . S
Co322 O323 2.216 . S
Co322 O324 2.091 . S
Co322 O326 2.004 . S
Co322 O332 2.021 . S
Co322 O334 2.137 . S
Co322 O335 2.244 . S
O323 Co322 2.216 . S
O323 C330 1.247 . S
O324 Co322 2.091 . S
O324 C330 1.261 . S
C325 O334 1.247 . S
C325 O335 1.272 . S
O326 Co322 2.004 . S
O326 C331 1.259 . S
Co327 O328 2.061 . S
Co327 O333 2.052 . S
Co327 O335 2.135 . S
O328 Co327 2.061 . S
O328 C331 1.235 . S
C329 O332 1.238 . S
C329 O333 1.241 . S
C330 O323 1.247 . S
C330 O324 1.261 . S
C331 O326 1.259 . S
C331 O328 1.235 . S
O332 Co322 2.021 . S
O332 C329 1.238 . S
O333 Co327 2.052 . S
O333 C329 1.241 . S
O334 Co322 2.137 . S
O334 C325 1.247 . S
O335 Co322 2.244 . S
O335 C325 1.272 . S
O335 Co327 2.135 . S
Co336 O337 2.216 . S
Co336 O338 2.091 . S
Co336 O340 2.004 . S
Co336 O346 2.021 . S
Co336 O348 2.137 . S
Co336 O349 2.244 . S
O337 Co336 2.216 . S
O337 C344 1.247 . S
O338 Co336 2.091 . S
O338 C344 1.261 . S
C339 O348 1.247 . S
C339 O349 1.272 . S
O340 Co336 2.004 . S
O340 C345 1.259 . S
Co341 O342 2.061 . S
Co341 O347 2.052 . S
Co341 O349 2.135 . S
O342 Co341 2.061 . S
O342 C345 1.235 . S
C343 O346 1.238 . S
C343 O347 1.241 . S
C344 O337 1.247 . S
C344 O338 1.261 . S
C345 O340 1.259 . S
C345 O342 1.235 . S
O346 Co336 2.021 . S
O346 C343 1.238 . S
O347 Co341 2.052 . S
O347 C343 1.241 . S
O348 Co336 2.137 . S
O348 C339 1.247 . S
O349 Co336 2.244 . S
O349 C339 1.272 . S
O349 Co341 2.135 . S
Co350 O351 2.216 . S
Co350 O352 2.091 . S
Co350 O354 2.004 . S
Co350 O360 2.021 . S
Co350 O362 2.137 . S
Co350 O363 2.244 . S
O351 Co350 2.216 . S
O351 C358 1.247 . S
O352 Co350 2.091 . S
O352 C358 1.261 . S
C353 O362 1.247 . S
C353 O363 1.272 . S
O354 Co350 2.004 . S
O354 C359 1.259 . S
Co355 O356 2.061 . S
Co355 O361 2.052 . S
Co355 O363 2.135 . S
O356 Co355 2.061 . S
O356 C359 1.235 . S
C357 O360 1.238 . S
C357 O361 1.241 . S
C358 O351 1.247 . S
C358 O352 1.261 . S
C359 O354 1.259 . S
C359 O356 1.235 . S
O360 Co350 2.021 . S
O360 C357 1.238 . S
O361 Co355 2.052 . S
O361 C357 1.241 . S
O362 Co350 2.137 . S
O362 C353 1.247 . S
O363 Co350 2.244 . S
O363 C353 1.272 . S
O363 Co355 2.135 . S
Co364 O365 2.216 . S
Co364 O366 2.091 . S
Co364 O368 2.004 . S
Co364 O374 2.021 . S
Co364 O376 2.137 . S
Co364 O377 2.244 . S
O365 Co364 2.216 . S
O365 C372 1.247 . S
O366 Co364 2.091 . S
O366 C372 1.261 . S
C367 O376 1.247 . S
C367 O377 1.272 . S
O368 Co364 2.004 . S
O368 C373 1.259 . S
Co369 O370 2.061 . S
Co369 O375 2.052 . S
Co369 O377 2.135 . S
O370 Co369 2.061 . S
O370 C373 1.235 . S
C371 O374 1.238 . S
C371 O375 1.241 . S
C372 O365 1.247 . S
C372 O366 1.261 . S
C373 O368 1.259 . S
C373 O370 1.235 . S
O374 Co364 2.021 . S
O374 C371 1.238 . S
O375 Co369 2.052 . S
O375 C371 1.241 . S
O376 Co364 2.137 . S
O376 C367 1.247 . S
O377 Co364 2.244 . S
O377 C367 1.272 . S
O377 Co369 2.135 . S
Co378 O379 2.216 . S
Co378 O380 2.091 . S
Co378 O382 2.004 . S
Co378 O388 2.021 . S
Co378 O390 2.137 . S
Co378 O391 2.244 . S
O379 Co378 2.216 . S
O379 C386 1.247 . S
O380 Co378 2.091 . S
O380 C386 1.261 . S
C381 O390 1.247 . S
C381 O391 1.272 . S
O382 Co378 2.004 . S
O382 C387 1.259 . S
Co383 O384 2.061 . S
Co383 O389 2.052 . S
Co383 O391 2.135 . S
O384 Co383 2.061 . S
O384 C387 1.235 . S
C385 O388 1.238 . S
C385 O389 1.241 . S
C386 O379 1.247 . S
C386 O380 1.261 . S
C387 O382 1.259 . S
C387 O384 1.235 . S
O388 Co378 2.021 . S
O388 C385 1.238 . S
O389 Co383 2.052 . S
O389 C385 1.241 . S
O390 Co378 2.137 . S
O390 C381 1.247 . S
O391 Co378 2.244 . S
O391 C381 1.272 . S
O391 Co383 2.135 . S
Co392 O393 2.216 . S
Co392 O394 2.091 . S
Co392 O396 2.004 . S
Co392 O402 2.021 . S
Co392 O404 2.137 . S
Co392 O405 2.244 . S
O393 Co392 2.216 . S
O393 C400 1.247 . S
O394 Co392 2.091 . S
O394 C400 1.261 . S
C395 O404 1.247 . S
C395 O405 1.272 . S
O396 Co392 2.004 . S
O396 C401 1.259 . S
Co397 O398 2.061 . S
Co397 O403 2.052 . S
Co397 O405 2.135 . S
O398 Co397 2.061 . S
O398 C401 1.235 . S
C399 O402 1.238 . S
C399 O403 1.241 . S
C400 O393 1.247 . S
C400 O394 1.261 . S
C401 O396 1.259 . S
C401 O398 1.235 . S
O402 Co392 2.021 . S
O402 C399 1.238 . S
O403 Co397 2.052 . S
O403 C399 1.241 . S
O404 Co392 2.137 . S
O404 C395 1.247 . S
O405 Co392 2.244 . S
O405 C395 1.272 . S
O405 Co397 2.135 . S
Co406 O407 2.216 . S
Co406 O408 2.091 . S
Co406 O410 2.004 . S
Co406 O416 2.021 . S
Co406 O418 2.137 . S
Co406 O419 2.244 . S
O407 Co406 2.216 . S
O407 C414 1.247 . S
O408 Co406 2.091 . S
O408 C414 1.261 . S
C409 O418 1.247 . S
C409 O419 1.272 . S
O410 Co406 2.004 . S
O410 C415 1.259 . S
Co411 O412 2.061 . S
Co411 O417 2.052 . S
Co411 O419 2.135 . S
O412 Co411 2.061 . S
O412 C415 1.235 . S
C413 O416 1.238 . S
C413 O417 1.241 . S
C414 O407 1.247 . S
C414 O408 1.261 . S
C415 O410 1.259 . S
C415 O412 1.235 . S
O416 Co406 2.021 . S
O416 C413 1.238 . S
O417 Co411 2.052 . S
O417 C413 1.241 . S
O418 Co406 2.137 . S
O418 C409 1.247 . S
O419 Co406 2.244 . S
O419 C409 1.272 . S
O419 Co411 2.135 . S
Co420 O421 2.216 . S
Co420 O422 2.091 . S
Co420 O424 2.004 . S
Co420 O430 2.021 . S
Co420 O432 2.137 . S
Co420 O433 2.244 . S
O421 Co420 2.216 . S
O421 C428 1.247 . S
O422 Co420 2.091 . S
O422 C428 1.261 . S
C423 O432 1.247 . S
C423 O433 1.272 . S
O424 Co420 2.004 . S
O424 C429 1.259 . S
Co425 O426 2.061 . S
Co425 O431 2.052 . S
Co425 O433 2.135 . S
O426 Co425 2.061 . S
O426 C429 1.235 . S
C427 O430 1.238 . S
C427 O431 1.241 . S
C428 O421 1.247 . S
C428 O422 1.261 . S
C429 O424 1.259 . S
C429 O426 1.235 . S
O430 Co420 2.021 . S
O430 C427 1.238 . S
O431 Co425 2.052 . S
O431 C427 1.241 . S
O432 Co420 2.137 . S
O432 C423 1.247 . S
O433 Co420 2.244 . S
O433 C423 1.272 . S
O433 Co425 2.135 . S
Co434 O435 2.216 . S
Co434 O436 2.091 . S
Co434 O438 2.004 . S
Co434 O444 2.021 . S
Co434 O446 2.137 . S
Co434 O447 2.244 . S
O435 Co434 2.216 . S
O435 C442 1.247 . S
O436 Co434 2.091 . S
O436 C442 1.261 . S
C437 O446 1.247 . S
C437 O447 1.272 . S
O438 Co434 2.004 . S
O438 C443 1.259 . S
Co439 O440 2.061 . S
Co439 O445 2.052 . S
Co439 O447 2.135 . S
O440 Co439 2.061 . S
O440 C443 1.235 . S
C441 O444 1.238 . S
C441 O445 1.241 . S
C442 O435 1.247 . S
C442 O436 1.261 . S
C443 O438 1.259 . S
C443 O440 1.235 . S
O444 Co434 2.021 . S
O444 C441 1.238 . S
O445 Co439 2.052 . S
O445 C441 1.241 . S
O446 Co434 2.137 . S
O446 C437 1.247 . S
O447 Co434 2.244 . S
O447 C437 1.272 . S
O447 Co439 2.135 . S
Co448 O449 2.216 . S
Co448 O450 2.091 . S
Co448 O452 2.004 . S
Co448 O458 2.021 . S
Co448 O460 2.137 . S
Co448 O461 2.244 . S
O449 Co448 2.216 . S
O449 C456 1.247 . S
O450 Co448 2.091 . S
O450 C456 1.261 . S
C451 O460 1.247 . S
C451 O461 1.272 . S
O452 Co448 2.004 . S
O452 C457 1.259 . S
Co453 O454 2.061 . S
Co453 O459 2.052 . S
Co453 O461 2.135 . S
O454 Co453 2.061 . S
O454 C457 1.235 . S
C455 O458 1.238 . S
C455 O459 1.241 . S
C456 O449 1.247 . S
C456 O450 1.261 . S
C457 O452 1.259 . S
C457 O454 1.235 . S
O458 Co448 2.021 . S
O458 C455 1.238 . S
O459 Co453 2.052 . S
O459 C455 1.241 . S
O460 Co448 2.137 . S
O460 C451 1.247 . S
O461 Co448 2.244 . S
O461 C451 1.272 . S
O461 Co453 2.135 . S
Co462 O463 2.216 . S
Co462 O464 2.091 . S
Co462 O466 2.004 . S
Co462 O472 2.021 . S
Co462 O474 2.137 . S
Co462 O475 2.244 . S
O463 Co462 2.216 . S
O463 C470 1.247 . S
O464 Co462 2.091 . S
O464 C470 1.261 . S
C465 O474 1.247 . S
C465 O475 1.272 . S
O466 Co462 2.004 . S
O466 C471 1.259 . S
Co467 O468 2.061 . S
Co467 O473 2.052 . S
Co467 O475 2.135 . S
O468 Co467 2.061 . S
O468 C471 1.235 . S
C469 O472 1.238 . S
C469 O473 1.241 . S
C470 O463 1.247 . S
C470 O464 1.261 . S
C471 O466 1.259 . S
C471 O468 1.235 . S
O472 Co462 2.021 . S
O472 C469 1.238 . S
O473 Co467 2.052 . S
O473 C469 1.241 . S
O474 Co462 2.137 . S
O474 C465 1.247 . S
O475 Co462 2.244 . S
O475 C465 1.272 . S
O475 Co467 2.135 . S
Co476 O477 2.216 . S
Co476 O478 2.091 . S
Co476 O480 2.004 . S
Co476 O486 2.021 . S
Co476 O488 2.137 . S
Co476 O489 2.244 . S
O477 Co476 2.216 . S
O477 C484 1.247 . S
O478 Co476 2.091 . S
O478 C484 1.261 . S
C479 O488 1.247 . S
C479 O489 1.272 . S
O480 Co476 2.004 . S
O480 C485 1.259 . S
Co481 O482 2.061 . S
Co481 O487 2.052 . S
Co481 O489 2.135 . S
O482 Co481 2.061 . S
O482 C485 1.235 . S
C483 O486 1.238 . S
C483 O487 1.241 . S
C484 O477 1.247 . S
C484 O478 1.261 . S
C485 O480 1.259 . S
C485 O482 1.235 . S
O486 Co476 2.021 . S
O486 C483 1.238 . S
O487 Co481 2.052 . S
O487 C483 1.241 . S
O488 Co476 2.137 . S
O488 C479 1.247 . S
O489 Co476 2.244 . S
O489 C479 1.272 . S
O489 Co481 2.135 . S
Co490 O491 2.216 . S
Co490 O492 2.091 . S
Co490 O494 2.004 . S
Co490 O500 2.021 . S
Co490 O502 2.137 . S
Co490 O503 2.244 . S
O491 Co490 2.216 . S
O491 C498 1.247 . S
O492 Co490 2.091 . S
O492 C498 1.261 . S
C493 O502 1.247 . S
C493 O503 1.272 . S
O494 Co490 2.004 . S
O494 C499 1.259 . S
Co495 O496 2.061 . S
Co495 O501 2.052 . S
Co495 O503 2.135 . S
O496 Co495 2.061 . S
O496 C499 1.235 . S
C497 O500 1.238 . S
C497 O501 1.241 . S
C498 O491 1.247 . S
C498 O492 1.261 . S
C499 O494 1.259 . S
C499 O496 1.235 . S
O500 Co490 2.021 . S
O500 C497 1.238 . S
O501 Co495 2.052 . S
O501 C497 1.241 . S
O502 Co490 2.137 . S
O502 C493 1.247 . S
O503 Co490 2.244 . S
O503 C493 1.272 . S
O503 Co495 2.135 . S
C504 C505 1.349 . S
C504 C506 1.327 . S
C504 H529 0.950 . S
C505 C504 1.349 . S
C505 C521 1.349 . S
C506 C504 1.327 . S
C506 C525 1.429 . S
C506 H530 0.950 . S
C507 C524 1.589 . S
C507 C526 1.368 . S
C507 H531 0.949 . S
H508 C512 0.949 . S
C509 C510 1.349 . S
C509 C511 1.327 . S
C509 H532 0.950 . S
C510 C509 1.349 . S
C510 C522 1.349 . S
C511 C509 1.327 . S
C511 C527 1.429 . S
C511 H533 0.950 . S
C512 H508 0.949 . S
C512 C520 1.591 . S
C512 C528 1.368 . S
H513 C521 0.950 . S
H514 C519 0.950 . S
H515 C520 0.948 . S
H516 C522 0.950 . S
H517 C523 0.950 . S
H518 C524 0.948 . S
C519 H514 0.950 . S
C519 C521 1.327 . S
C519 C525 1.429 . S
C520 C512 1.591 . S
C520 H515 0.948 . S
C520 C526 1.359 1_545 S
C521 C505 1.349 . S
C521 H513 0.950 . S
C521 C519 1.327 . S
C522 C510 1.349 . S
C522 H516 0.950 . S
C522 C523 1.327 . S
C523 H517 0.950 . S
C523 C522 1.327 . S
C523 C527 1.429 . S
C524 C507 1.589 . S
C524 H518 0.948 . S
C524 C528 1.360 1_565 S
C525 C506 1.429 . S
C525 C519 1.429 . S
C525 C526 1.523 . S
C526 C507 1.368 . S
C526 C520 1.359 1_565 S
C526 C525 1.523 . S
C527 C511 1.429 . S
C527 C523 1.429 . S
C527 C528 1.523 . S
C528 C512 1.368 . S
C528 C524 1.360 1_545 S
C528 C527 1.523 . S
H529 C504 0.950 . S
H530 C506 0.950 . S
H531 C507 0.949 . S
H532 C509 0.950 . S
H533 C511 0.950 . S
C534 C535 1.349 . S
C534 C536 1.327 . S
C534 H559 0.950 . S
C535 C534 1.349 . S
C535 C551 1.349 . S
C536 C534 1.327 . S
C536 C555 1.429 . S
C536 H560 0.950 . S
C537 C554 1.574 . S
C537 C556 1.368 . S
C537 H561 0.949 . S
H538 C542 0.949 . S
C539 C540 1.349 . S
C539 C541 1.327 . S
C539 H562 0.950 . S
C540 C539 1.349 . S
C540 C552 1.349 . S
C541 C539 1.327 . S
C541 C557 1.429 . S
C541 H563 0.950 . S
C542 H538 0.949 . S
C542 C550 1.572 . S
C542 C558 1.368 . S
H543 C551 0.950 . S
H544 C549 0.950 . S
H545 C550 0.951 1_655 S
H546 C552 0.950 . S
H547 C553 0.950 . S
H548 C554 0.951 1_455 S
C549 H544 0.950 . S
C549 C551 1.327 . S
C549 C555 1.429 . S
C550 C542 1.572 . S
C550 H545 0.951 1_455 S
C550 C556 1.369 1_455 S
C551 C535 1.349 . S
C551 H543 0.950 . S
C551 C549 1.327 . S
C552 C540 1.349 . S
C552 H546 0.950 . S
C552 C553 1.327 . S
C553 H547 0.950 . S
C553 C552 1.327 . S
C553 C557 1.429 . S
C554 C537 1.574 . S
C554 H548 0.951 1_655 S
C554 C558 1.368 1_655 S
C555 C536 1.429 . S
C555 C549 1.429 . S
C555 C556 1.523 . S
C556 C537 1.368 . S
C556 C550 1.369 1_655 S
C556 C555 1.523 . S
C557 C541 1.429 . S
C557 C553 1.429 . S
C557 C558 1.523 . S
C558 C542 1.368 . S
C558 C554 1.368 1_455 S
C558 C557 1.523 . S
H559 C534 0.950 . S
H560 C536 0.950 . S
H561 C537 0.949 . S
H562 C539 0.950 . S
H563 C541 0.950 . S
C564 C565 1.349 . S
C564 C566 1.327 . S
C564 H589 0.950 . S
C565 C564 1.349 . S
C565 C581 1.349 . S
C566 C564 1.327 . S
C566 C585 1.429 . S
C566 H590 0.950 . S
C567 C584 1.574 . S
C567 C586 1.368 . S
C567 H591 0.949 . S
H568 C572 0.949 . S
C569 C570 1.349 . S
C569 C571 1.327 . S
C569 H592 0.950 . S
C570 C569 1.349 . S
C570 C582 1.349 . S
C571 C569 1.327 . S
C571 C587 1.429 . S
C571 H593 0.950 . S
C572 H568 0.949 . S
C572 C580 1.574 . S
C572 C588 1.368 . S
H573 C581 0.950 . S
H574 C579 0.950 . S
H575 C580 0.949 . S
H576 C582 0.950 . S
H577 C583 0.950 . S
H578 C584 0.949 . S
C579 H574 0.950 . S
C579 C581 1.327 . S
C579 C585 1.429 . S
C580 C572 1.574 . S
C580 H575 0.949 . S
C580 C586 1.368 . S
C581 C565 1.349 . S
C581 H573 0.950 . S
C581 C579 1.327 . S
C582 C570 1.349 . S
C582 H576 0.950 . S
C582 C583 1.327 . S
C583 H577 0.950 . S
C583 C582 1.327 . S
C583 C587 1.429 . S
C584 C567 1.574 . S
C584 H578 0.949 . S
C584 C588 1.368 . S
C585 C566 1.429 . S
C585 C579 1.429 . S
C585 C586 1.523 . S
C586 C567 1.368 . S
C586 C580 1.368 . S
C586 C585 1.523 . S
C587 C571 1.429 . S
C587 C583 1.429 . S
C587 C588 1.523 . S
C588 C572 1.368 . S
C588 C584 1.368 . S
C588 C587 1.523 . S
H589 C564 0.950 . S
H590 C566 0.950 . S
H591 C567 0.949 . S
H592 C569 0.950 . S
H593 C571 0.950 . S
C594 C595 1.349 . S
C594 C596 1.327 . S
C594 H619 0.950 . S
C595 C594 1.349 . S
C595 C611 1.349 . S
C596 C594 1.327 . S
C596 C615 1.429 . S
C596 H620 0.950 . S
C597 C614 1.574 1_565 S
C597 C616 1.368 . S
C597 H621 0.949 . S
H598 C602 0.949 . S
C599 C600 1.349 . S
C599 C601 1.327 . S
C599 H622 0.950 . S
C600 C599 1.349 . S
C600 C612 1.349 . S
C601 C599 1.327 . S
C601 C617 1.429 . S
C601 H623 0.950 . S
C602 H598 0.949 . S
C602 C610 1.574 1_545 S
C602 C618 1.368 . S
H603 C611 0.950 . S
H604 C609 0.950 . S
H605 C610 0.949 . S
H606 C612 0.950 . S
H607 C613 0.950 . S
H608 C614 0.949 . S
C609 H604 0.950 . S
C609 C611 1.327 . S
C609 C615 1.429 . S
C610 C602 1.574 1_565 S
C610 H605 0.949 . S
C610 C616 1.368 . S
C611 C595 1.349 . S
C611 H603 0.950 . S
C611 C609 1.327 . S
C612 C600 1.349 . S
C612 H606 0.950 . S
C612 C613 1.327 . S
C613 H607 0.950 . S
C613 C612 1.327 . S
C613 C617 1.429 . S
C614 C597 1.574 1_545 S
C614 H608 0.949 . S
C614 C618 1.368 . S
C615 C596 1.429 . S
C615 C609 1.429 . S
C615 C616 1.523 . S
C616 C597 1.368 . S
C616 C610 1.368 . S
C616 C615 1.523 . S
C617 C601 1.429 . S
C617 C613 1.429 . S
C617 C618 1.523 . S
C618 C602 1.368 . S
C618 C614 1.368 . S
C618 C617 1.523 . S
H619 C594 0.950 . S
H620 C596 0.950 . S
H621 C597 0.949 . S
H622 C599 0.950 . S
H623 C601 0.950 . S
C624 C625 1.349 . S
C624 C626 1.327 . S
C624 H649 0.950 . S
C625 C624 1.349 . S
C625 C641 1.349 . S
C626 C624 1.327 . S
C626 C645 1.429 . S
C626 H650 0.950 . S
C627 C644 1.574 . S
C627 C646 1.368 1_655 S
C627 H651 0.949 . S
H628 C632 0.949 . S
C629 C630 1.349 . S
C629 C631 1.327 . S
C629 H652 0.950 . S
C630 C629 1.349 . S
C630 C642 1.349 . S
C631 C629 1.327 . S
C631 C647 1.429 . S
C631 H653 0.950 . S
C632 H628 0.949 . S
C632 C640 1.574 . S
C632 C648 1.368 1_455 S
H633 C641 0.950 . S
H634 C639 0.950 . S
H635 C640 0.949 . S
H636 C642 0.950 . S
H637 C643 0.950 . S
H638 C644 0.949 . S
C639 H634 0.950 . S
C639 C641 1.327 . S
C639 C645 1.429 . S
C640 C632 1.574 . S
C640 H635 0.949 . S
C640 C646 1.368 . S
C641 C625 1.349 . S
C641 H633 0.950 . S
C641 C639 1.327 . S
C642 C630 1.349 . S
C642 H636 0.950 . S
C642 C643 1.327 . S
C643 H637 0.950 . S
C643 C642 1.327 . S
C643 C647 1.429 . S
C644 C627 1.574 . S
C644 H638 0.949 . S
C644 C648 1.368 . S
C645 C626 1.429 . S
C645 C639 1.429 . S
C645 C646 1.523 . S
C646 C627 1.368 1_455 S
C646 C640 1.368 . S
C646 C645 1.523 . S
C647 C631 1.429 . S
C647 C643 1.429 . S
C647 C648 1.523 . S
C648 C632 1.368 1_655 S
C648 C644 1.368 . S
C648 C647 1.523 . S
H649 C624 0.950 . S
H650 C626 0.950 . S
H651 C627 0.949 . S
H652 C629 0.950 . S
H653 C631 0.950 . S
C654 C655 1.349 . S
C654 C656 1.327 . S
C654 H679 0.950 . S
C655 C654 1.349 . S
C655 C671 1.349 . S
C656 C654 1.327 . S
C656 C675 1.429 . S
C656 H680 0.950 . S
C657 C674 1.574 . S
C657 C676 1.368 . S
C657 H681 0.949 . S
H658 C662 0.949 . S
C659 C660 1.349 . S
C659 C661 1.327 . S
C659 H682 0.950 . S
C660 C659 1.349 . S
C660 C672 1.349 . S
C661 C659 1.327 . S
C661 C677 1.429 . S
C661 H683 0.950 . S
C662 H658 0.949 . S
C662 C670 1.574 . S
C662 C678 1.368 . S
H663 C671 0.950 . S
H664 C669 0.950 . S
H665 C670 0.949 . S
H666 C672 0.950 . S
H667 C673 0.950 . S
H668 C674 0.949 . S
C669 H664 0.950 . S
C669 C671 1.327 . S
C669 C675 1.429 . S
C670 C662 1.574 . S
C670 H665 0.949 . S
C670 C676 1.368 . S
C671 C655 1.349 . S
C671 H663 0.950 . S
C671 C669 1.327 . S
C672 C660 1.349 . S
C672 H666 0.950 . S
C672 C673 1.327 . S
C673 H667 0.950 . S
C673 C672 1.327 . S
C673 C677 1.429 . S
C674 C657 1.574 . S
C674 H668 0.949 . S
C674 C678 1.368 . S
C675 C656 1.429 . S
C675 C669 1.429 . S
C675 C676 1.523 . S
C676 C657 1.368 . S
C676 C670 1.368 . S
C676 C675 1.523 . S
C677 C661 1.429 . S
C677 C673 1.429 . S
C677 C678 1.523 . S
C678 C662 1.368 . S
C678 C674 1.368 . S
C678 C677 1.523 . S
H679 C654 0.950 . S
H680 C656 0.950 . S
H681 C657 0.949 . S
H682 C659 0.950 . S
H683 C661 0.950 . S
C684 C685 1.349 . S
C684 C686 1.327 . S
C684 H709 0.950 . S
C685 C684 1.349 . S
C685 C701 1.349 . S
C686 C684 1.327 . S
C686 C705 1.429 . S
C686 H710 0.950 . S
C687 C704 1.574 . S
C687 C706 1.368 . S
C687 H711 0.949 . S
H688 C692 0.949 . S
C689 C690 1.349 . S
C689 C691 1.327 . S
C689 H712 0.950 . S
C690 C689 1.349 . S
C690 C702 1.349 . S
C691 C689 1.327 . S
C691 C707 1.429 . S
C691 H713 0.950 . S
C692 H688 0.949 . S
C692 C700 1.574 . S
C692 C708 1.368 . S
H693 C701 0.950 . S
H694 C699 0.950 . S
H695 C700 0.949 . S
H696 C702 0.950 . S
H697 C703 0.950 . S
H698 C704 0.949 . S
C699 H694 0.950 . S
C699 C701 1.327 . S
C699 C705 1.429 . S
C700 C692 1.574 . S
C700 H695 0.949 . S
C700 C706 1.368 . S
C701 C685 1.349 . S
C701 H693 0.950 . S
C701 C699 1.327 . S
C702 C690 1.349 . S
C702 H696 0.950 . S
C702 C703 1.327 . S
C703 H697 0.950 . S
C703 C702 1.327 . S
C703 C707 1.429 . S
C704 C687 1.574 . S
C704 H698 0.949 . S
C704 C708 1.368 . S
C705 C686 1.429 . S
C705 C699 1.429 . S
C705 C706 1.523 . S
C706 C687 1.368 . S
C706 C700 1.368 . S
C706 C705 1.523 . S
C707 C691 1.429 . S
C707 C703 1.429 . S
C707 C708 1.523 . S
C708 C692 1.368 . S
C708 C704 1.368 . S
C708 C707 1.523 . S
H709 C684 0.950 . S
H710 C686 0.950 . S
H711 C687 0.949 . S
H712 C689 0.950 . S
H713 C691 0.950 . S
C714 C715 1.349 . S
C714 C716 1.327 . S
C714 H739 0.950 . S
C715 C714 1.349 . S
C715 C731 1.349 . S
C716 C714 1.327 . S
C716 C735 1.429 . S
C716 H740 0.950 . S
C717 C734 1.574 . S
C717 C736 1.368 . S
C717 H741 0.949 . S
H718 C722 0.949 . S
C719 C720 1.349 . S
C719 C721 1.327 . S
C719 H742 0.950 . S
C720 C719 1.349 . S
C720 C732 1.349 . S
C721 C719 1.327 . S
C721 C737 1.429 . S
C721 H743 0.950 . S
C722 H718 0.949 . S
C722 C730 1.574 . S
C722 C738 1.368 . S
H723 C731 0.950 . S
H724 C729 0.950 . S
H725 C730 0.949 . S
H726 C732 0.950 . S
H727 C733 0.950 . S
H728 C734 0.949 . S
C729 H724 0.950 . S
C729 C731 1.327 . S
C729 C735 1.429 . S
C730 C722 1.574 . S
C730 H725 0.949 . S
C730 C736 1.368 . S
C731 C715 1.349 . S
C731 H723 0.950 . S
C731 C729 1.327 . S
C732 C720 1.349 . S
C732 H726 0.950 . S
C732 C733 1.327 . S
C733 H727 0.950 . S
C733 C732 1.327 . S
C733 C737 1.429 . S
C734 C717 1.574 . S
C734 H728 0.949 . S
C734 C738 1.368 . S
C735 C716 1.429 . S
C735 C729 1.429 . S
C735 C736 1.523 . S
C736 C717 1.368 . S
C736 C730 1.368 . S
C736 C735 1.523 . S
C737 C721 1.429 . S
C737 C733 1.429 . S
C737 C738 1.523 . S
C738 C722 1.368 . S
C738 C734 1.368 . S
C738 C737 1.523 . S
H739 C714 0.950 . S
H740 C716 0.950 . S
H741 C717 0.949 . S
H742 C719 0.950 . S
H743 C721 0.950 . S
C744 C745 1.349 . S
C744 C746 1.327 . S
C744 H769 0.950 . S
C745 C744 1.349 . S
C745 C761 1.349 . S
C746 C744 1.327 . S
C746 C765 1.429 . S
C746 H770 0.950 . S
C747 C764 1.574 . S
C747 C766 1.368 . S
C747 H771 0.949 . S
H748 C752 0.949 . S
C749 C750 1.349 . S
C749 C751 1.327 . S
C749 H772 0.950 . S
C750 C749 1.349 . S
C750 C762 1.349 . S
C751 C749 1.327 . S
C751 C767 1.429 . S
C751 H773 0.950 . S
C752 H748 0.949 . S
C752 C760 1.574 . S
C752 C768 1.368 . S
H753 C761 0.950 . S
H754 C759 0.950 . S
H755 C760 0.949 . S
H756 C762 0.950 . S
H757 C763 0.950 . S
H758 C764 0.949 . S
C759 H754 0.950 . S
C759 C761 1.327 . S
C759 C765 1.429 . S
C760 C752 1.574 . S
C760 H755 0.949 . S
C760 C766 1.368 . S
C761 C745 1.349 . S
C761 H753 0.950 . S
C761 C759 1.327 . S
C762 C750 1.349 . S
C762 H756 0.950 . S
C762 C763 1.327 . S
C763 H757 0.950 . S
C763 C762 1.327 . S
C763 C767 1.429 . S
C764 C747 1.574 . S
C764 H758 0.949 . S
C764 C768 1.368 . S
C765 C746 1.429 . S
C765 C759 1.429 . S
C765 C766 1.523 . S
C766 C747 1.368 . S
C766 C760 1.368 . S
C766 C765 1.523 . S
C767 C751 1.429 . S
C767 C763 1.429 . S
C767 C768 1.523 . S
C768 C752 1.368 . S
C768 C764 1.368 . S
C768 C767 1.523 . S
H769 C744 0.950 . S
H770 C746 0.950 . S
H771 C747 0.949 . S
H772 C749 0.950 . S
H773 C751 0.950 . S
C774 C775 1.349 . S
C774 C776 1.327 . S
C774 H799 0.950 . S
C775 C774 1.349 . S
C775 C791 1.349 . S
C776 C774 1.327 . S
C776 C795 1.429 . S
C776 H800 0.950 . S
C777 C794 1.574 . S
C777 C796 1.368 . S
C777 H801 0.949 . S
H778 C782 0.949 . S
C779 C780 1.349 . S
C779 C781 1.327 . S
C779 H802 0.950 . S
C780 C779 1.349 . S
C780 C792 1.349 . S
C781 C779 1.327 . S
C781 C797 1.429 1_556 S
C781 H803 0.950 . S
C782 H778 0.949 . S
C782 C790 1.574 . S
C782 C798 1.368 . S
H783 C791 0.950 . S
H784 C789 0.950 . S
H785 C790 0.949 . S
H786 C792 0.950 1_554 S
H787 C793 0.950 . S
H788 C794 0.949 1_556 S
C789 H784 0.950 . S
C789 C791 1.327 . S
C789 C795 1.429 . S
C790 C782 1.574 . S
C790 H785 0.949 . S
C790 C796 1.368 . S
C791 C775 1.349 . S
C791 H783 0.950 . S
C791 C789 1.327 . S
C792 C780 1.349 . S
C792 H786 0.950 1_556 S
C792 C793 1.327 1_556 S
C793 H787 0.950 . S
C793 C792 1.327 1_554 S
C793 C797 1.429 . S
C794 C777 1.574 . S
C794 H788 0.949 1_554 S
C794 C798 1.368 . S
C795 C776 1.429 . S
C795 C789 1.429 . S
C795 C796 1.523 . S
C796 C777 1.368 . S
C796 C790 1.368 . S
C796 C795 1.523 . S
C797 C781 1.429 1_554 S
C797 C793 1.429 . S
C797 C798 1.523 . S
C798 C782 1.368 . S
C798 C794 1.368 . S
C798 C797 1.523 . S
H799 C774 0.950 . S
H800 C776 0.950 . S
H801 C777 0.949 . S
H802 C779 0.950 . S
H803 C781 0.950 . S
C804 C805 1.349 . S
C804 C806 1.327 . S
C804 H829 0.950 . S
C805 C804 1.349 . S
C805 C821 1.349 . S
C806 C804 1.327 . S
C806 C825 1.429 . S
C806 H830 0.950 . S
C807 C824 1.574 . S
C807 C826 1.368 . S
C807 H831 0.949 . S
H808 C812 0.949 . S
C809 C810 1.349 . S
C809 C811 1.327 . S
C809 H832 0.950 . S
C810 C809 1.349 . S
C810 C822 1.349 . S
C811 C809 1.327 . S
C811 C827 1.429 1_556 S
C811 H833 0.950 . S
C812 H808 0.949 . S
C812 C820 1.574 . S
C812 C828 1.368 . S
H813 C821 0.950 . S
H814 C819 0.950 . S
H815 C820 0.949 . S
H816 C822 0.950 1_554 S
H817 C823 0.950 . S
H818 C824 0.949 1_556 S
C819 H814 0.950 . S
C819 C821 1.327 . S
C819 C825 1.429 . S
C820 C812 1.574 . S
C820 H815 0.949 . S
C820 C826 1.368 . S
C821 C805 1.349 . S
C821 H813 0.950 . S
C821 C819 1.327 . S
C822 C810 1.349 . S
C822 H816 0.950 1_556 S
C822 C823 1.327 1_556 S
C823 H817 0.950 . S
C823 C822 1.327 1_554 S
C823 C827 1.429 . S
C824 C807 1.574 . S
C824 H818 0.949 1_554 S
C824 C828 1.368 . S
C825 C806 1.429 . S
C825 C819 1.429 . S
C825 C826 1.523 . S
C826 C807 1.368 . S
C826 C820 1.368 . S
C826 C825 1.523 . S
C827 C811 1.429 1_554 S
C827 C823 1.429 . S
C827 C828 1.523 . S
C828 C812 1.368 . S
C828 C824 1.368 . S
C828 C827 1.523 . S
H829 C804 0.950 . S
H830 C806 0.950 . S
H831 C807 0.949 . S
H832 C809 0.950 . S
H833 C811 0.950 . S
C834 C835 1.349 . S
C834 C836 1.327 . S
C834 H859 0.950 . S
C835 C834 1.349 . S
C835 C851 1.349 . S
C836 C834 1.327 . S
C836 C855 1.429 . S
C836 H860 0.950 . S
C837 C854 1.574 . S
C837 C856 1.368 . S
C837 H861 0.949 . S
H838 C842 0.949 . S
C839 C840 1.349 . S
C839 C841 1.328 1_556 S
C839 H862 0.950 . S
C840 C839 1.349 . S
C840 C852 1.349 . S
C841 C839 1.328 1_554 S
C841 C857 1.428 . S
C841 H863 0.949 . S
C842 H838 0.949 . S
C842 C850 1.574 . S
C842 C858 1.368 . S
H843 C851 0.950 . S
H844 C849 0.950 . S
H845 C850 0.949 . S
H846 C852 0.950 . S
H847 C853 0.950 1_554 S
H848 C854 0.949 . S
C849 H844 0.950 . S
C849 C851 1.327 . S
C849 C855 1.429 . S
C850 C842 1.574 . S
C850 H845 0.949 . S
C850 C856 1.368 . S
C851 C835 1.349 . S
C851 H843 0.950 . S
C851 C849 1.327 . S
C852 C840 1.349 . S
C852 H846 0.950 . S
C852 C853 1.327 . S
C853 H847 0.950 1_556 S
C853 C852 1.327 . S
C853 C857 1.429 1_556 S
C854 C837 1.574 . S
C854 H848 0.949 . S
C854 C858 1.368 . S
C855 C836 1.429 . S
C855 C849 1.429 . S
C855 C856 1.523 . S
C856 C837 1.368 . S
C856 C850 1.368 . S
C856 C855 1.523 . S
C857 C841 1.428 . S
C857 C853 1.429 1_554 S
C857 C858 1.523 . S
C858 C842 1.368 . S
C858 C854 1.368 . S
C858 C857 1.523 . S
H859 C834 0.950 . S
H860 C836 0.950 . S
H861 C837 0.949 . S
H862 C839 0.950 . S
H863 C841 0.949 . S
C864 C865 1.349 . S
C864 C866 1.327 . S
C864 H889 0.950 . S
C865 C864 1.349 . S
C865 C881 1.349 . S
C866 C864 1.327 . S
C866 C885 1.429 . S
C866 H890 0.950 . S
C867 C884 1.574 . S
C867 C886 1.368 . S
C867 H891 0.949 . S
H868 C872 0.949 . S
C869 C870 1.349 . S
C869 C871 1.327 1_554 S
C869 H892 0.950 . S
C870 C869 1.349 . S
C870 C882 1.349 . S
C871 C869 1.327 1_556 S
C871 C887 1.429 . S
C871 H893 0.950 . S
C872 H868 0.949 . S
C872 C880 1.574 . S
C872 C888 1.368 . S
H873 C881 0.950 . S
H874 C879 0.950 . S
H875 C880 0.949 . S
H876 C882 0.950 . S
H877 C883 0.950 . S
H878 C884 0.949 . S
C879 H874 0.950 . S
C879 C881 1.327 . S
C879 C885 1.429 . S
C880 C872 1.574 . S
C880 H875 0.949 . S
C880 C886 1.368 . S
C881 C865 1.349 . S
C881 H873 0.950 . S
C881 C879 1.327 . S
C882 C870 1.349 . S
C882 H876 0.950 . S
C882 C883 1.327 . S
C883 H877 0.950 . S
C883 C882 1.327 . S
C883 C887 1.429 1_554 S
C884 C867 1.574 . S
C884 H878 0.949 . S
C884 C888 1.368 . S
C885 C866 1.429 . S
C885 C879 1.429 . S
C885 C886 1.523 . S
C886 C867 1.368 . S
C886 C880 1.368 . S
C886 C885 1.523 . S
C887 C871 1.429 . S
C887 C883 1.429 1_556 S
C887 C888 1.523 . S
C888 C872 1.368 . S
C888 C884 1.368 . S
C888 C887 1.523 . S
H889 C864 0.950 . S
H890 C866 0.950 . S
H891 C867 0.949 . S
H892 C869 0.950 . S
H893 C871 0.950 . S
C894 C895 1.349 . S
C894 C896 1.327 . S
C894 H919 0.950 . S
C895 C894 1.349 . S
C895 C911 1.349 . S
C896 C894 1.327 . S
C896 C915 1.429 1_554 S
C896 H920 0.950 . S
C897 C914 1.574 . S
C897 C916 1.368 . S
C897 H921 0.949 . S
H898 C902 0.949 . S
C899 C900 1.349 . S
C899 C901 1.327 . S
C899 H922 0.950 . S
C900 C899 1.349 . S
C900 C912 1.349 . S
C901 C899 1.327 . S
C901 C917 1.429 . S
C901 H923 0.950 . S
C902 H898 0.949 . S
C902 C910 1.574 . S
C902 C918 1.368 . S
H903 C911 0.947 1_556 S
H904 C909 0.950 . S
H905 C910 0.949 . S
H906 C912 0.950 . S
H907 C913 0.950 . S
H908 C914 0.949 . S
C909 H904 0.950 . S
C909 C911 1.327 1_556 S
C909 C915 1.429 . S
C910 C902 1.574 . S
C910 H905 0.949 . S
C910 C916 1.368 . S
C911 C895 1.349 . S
C911 H903 0.947 1_554 S
C911 C909 1.327 1_554 S
C912 C900 1.349 . S
C912 H906 0.950 . S
C912 C913 1.327 . S
C913 H907 0.950 . S
C913 C912 1.327 . S
C913 C917 1.429 . S
C914 C897 1.574 . S
C914 H908 0.949 . S
C914 C918 1.368 . S
C915 C896 1.429 1_556 S
C915 C909 1.429 . S
C915 C916 1.523 . S
C916 C897 1.368 . S
C916 C910 1.368 . S
C916 C915 1.523 . S
C917 C901 1.429 . S
C917 C913 1.429 . S
C917 C918 1.523 . S
C918 C902 1.368 . S
C918 C914 1.368 . S
C918 C917 1.523 . S
H919 C894 0.950 . S
H920 C896 0.950 . S
H921 C897 0.949 . S
H922 C899 0.950 . S
H923 C901 0.950 . S
C924 C925 1.349 . S
C924 C926 1.327 . S
C924 H949 0.950 . S
C925 C924 1.349 . S
C925 C941 1.349 . S
C926 C924 1.327 . S
C926 C945 1.429 . S
C926 H950 0.950 . S
C927 C944 1.574 . S
C927 C946 1.368 . S
C927 H951 0.949 . S
H928 C932 0.949 1_554 S
C929 C930 1.349 . S
C929 C931 1.327 1_554 S
C929 H952 0.950 1_554 S
C930 C929 1.349 . S
C930 C942 1.349 . S
C931 C929 1.327 1_556 S
C931 C947 1.429 . S
C931 H953 0.950 . S
C932 H928 0.949 1_556 S
C932 C940 1.574 . S
C932 C948 1.368 . S
H933 C941 0.950 . S
H934 C939 0.950 . S
H935 C940 0.949 . S
H936 C942 0.950 . S
H937 C943 0.950 . S
H938 C944 0.949 . S
C939 H934 0.950 . S
C939 C941 1.327 . S
C939 C945 1.429 . S
C940 C932 1.574 . S
C940 H935 0.949 . S
C940 C946 1.368 . S
C941 C925 1.349 . S
C941 H933 0.950 . S
C941 C939 1.327 . S
C942 C930 1.349 . S
C942 H936 0.950 . S
C942 C943 1.327 . S
C943 H937 0.950 . S
C943 C942 1.327 . S
C943 C947 1.429 1_554 S
C944 C927 1.574 . S
C944 H938 0.949 . S
C944 C948 1.368 . S
C945 C926 1.429 . S
C945 C939 1.429 . S
C945 C946 1.523 . S
C946 C927 1.368 . S
C946 C940 1.368 . S
C946 C945 1.523 . S
C947 C931 1.429 . S
C947 C943 1.429 1_556 S
C947 C948 1.523 . S
C948 C932 1.368 . S
C948 C944 1.368 . S
C948 C947 1.523 . S
H949 C924 0.950 . S
H950 C926 0.950 . S
H951 C927 0.949 . S
H952 C929 0.950 1_556 S
H953 C931 0.950 . S
C954 C955 1.349 . S
C954 C956 1.327 . S
C954 H979 0.950 . S
C955 C954 1.349 . S
C955 C971 1.349 . S
C956 C954 1.327 . S
C956 C975 1.429 . S
C956 H980 0.950 . S
C957 C974 1.574 . S
C957 C976 1.368 . S
C957 H981 0.949 . S
H958 C962 0.949 . S
C959 C960 1.349 . S
C959 C961 1.327 . S
C959 H982 0.950 . S
C960 C959 1.349 . S
C960 C972 1.349 . S
C961 C959 1.327 . S
C961 C977 1.429 . S
C961 H983 0.950 . S
C962 H958 0.949 . S
C962 C970 1.574 . S
C962 C978 1.368 . S
H963 C971 0.950 . S
H964 C969 0.950 . S
H965 C970 0.949 . S
H966 C972 0.950 . S
H967 C973 0.950 . S
H968 C974 0.949 . S
C969 H964 0.950 . S
C969 C971 1.327 . S
C969 C975 1.429 . S
C970 C962 1.574 . S
C970 H965 0.949 . S
C970 C976 1.368 . S
C971 C955 1.349 . S
C971 H963 0.950 . S
C971 C969 1.327 . S
C972 C960 1.349 . S
C972 H966 0.950 . S
C972 C973 1.327 . S
C973 H967 0.950 . S
C973 C972 1.327 . S
C973 C977 1.429 . S
C974 C957 1.574 . S
C974 H968 0.949 . S
C974 C978 1.368 . S
C975 C956 1.429 . S
C975 C969 1.429 . S
C975 C976 1.523 . S
C976 C957 1.368 . S
C976 C970 1.368 . S
C976 C975 1.523 . S
C977 C961 1.429 . S
C977 C973 1.429 . S
C977 C978 1.523 . S
C978 C962 1.368 . S
C978 C974 1.368 . S
C978 C977 1.523 . S
H979 C954 0.950 . S
H980 C956 0.950 . S
H981 C957 0.949 . S
H982 C959 0.950 . S
H983 C961 0.950 . S
C984 C985 1.349 . S
C984 C986 1.327 . S
C984 H1009 0.950 . S
C985 C984 1.349 . S
C985 C1001 1.349 . S
C986 C984 1.327 . S
C986 C1005 1.429 . S
C986 H1010 0.950 . S
C987 C1004 1.574 . S
C987 C1006 1.368 . S
C987 H1011 0.949 . S
H988 C992 0.949 . S
C989 C990 1.349 . S
C989 C991 1.327 . S
C989 H1012 0.950 . S
C990 C989 1.349 . S
C990 C1002 1.349 . S
C991 C989 1.327 . S
C991 C1007 1.429 . S
C991 H1013 0.950 . S
C992 H988 0.949 . S
C992 C1000 1.574 . S
C992 C1008 1.368 . S
H993 C1001 0.950 . S
H994 C999 0.950 . S
H995 C1000 0.949 . S
H996 C1002 0.950 . S
H997 C1003 0.950 . S
H998 C1004 0.949 . S
C999 H994 0.950 . S
C999 C1001 1.327 . S
C999 C1005 1.429 . S
C1000 C992 1.574 . S
C1000 H995 0.949 . S
C1000 C1006 1.368 . S
C1001 C985 1.349 . S
C1001 H993 0.950 . S
C1001 C999 1.327 . S
C1002 C990 1.349 . S
C1002 H996 0.950 . S
C1002 C1003 1.327 . S
C1003 H997 0.950 . S
C1003 C1002 1.327 . S
C1003 C1007 1.429 . S
C1004 C987 1.574 . S
C1004 H998 0.949 . S
C1004 C1008 1.368 . S
C1005 C986 1.429 . S
C1005 C999 1.429 . S
C1005 C1006 1.523 . S
C1006 C987 1.368 . S
C1006 C1000 1.368 . S
C1006 C1005 1.523 . S
C1007 C991 1.429 . S
C1007 C1003 1.429 . S
C1007 C1008 1.523 . S
C1008 C992 1.368 . S
C1008 C1004 1.368 . S
C1008 C1007 1.523 . S
H1009 C984 0.950 . S
H1010 C986 0.950 . S
H1011 C987 0.949 . S
H1012 C989 0.950 . S
H1013 C991 0.950 . S
C1014 C1015 1.349 . S
C1014 C1016 1.327 . S
C1014 H1039 0.950 . S
C1015 C1014 1.349 . S
C1015 C1031 1.349 . S
C1016 C1014 1.327 . S
C1016 C1035 1.429 . S
C1016 H1040 0.950 . S
C1017 C1034 1.574 . S
C1017 C1036 1.368 . S
C1017 H1041 0.949 . S
H1018 C1022 0.949 . S
C1019 C1020 1.349 . S
C1019 C1021 1.327 . S
C1019 H1042 0.950 . S
C1020 C1019 1.349 . S
C1020 C1032 1.349 . S
C1021 C1019 1.327 . S
C1021 C1037 1.429 . S
C1021 H1043 0.950 . S
C1022 H1018 0.949 . S
C1022 C1030 1.574 . S
C1022 C1038 1.368 . S
H1023 C1031 0.950 . S
H1024 C1029 0.950 . S
H1025 C1030 0.949 . S
H1026 C1032 0.950 . S
H1027 C1033 0.950 . S
H1028 C1034 0.949 . S
C1029 H1024 0.950 . S
C1029 C1031 1.327 . S
C1029 C1035 1.429 . S
C1030 C1022 1.574 . S
C1030 H1025 0.949 . S
C1030 C1036 1.368 . S
C1031 C1015 1.349 . S
C1031 H1023 0.950 . S
C1031 C1029 1.327 . S
C1032 C1020 1.349 . S
C1032 H1026 0.950 . S
C1032 C1033 1.327 . S
C1033 H1027 0.950 . S
C1033 C1032 1.327 . S
C1033 C1037 1.429 . S
C1034 C1017 1.574 . S
C1034 H1028 0.949 . S
C1034 C1038 1.368 . S
C1035 C1016 1.429 . S
C1035 C1029 1.429 . S
C1035 C1036 1.523 . S
C1036 C1017 1.368 . S
C1036 C1030 1.368 . S
C1036 C1035 1.523 . S
C1037 C1021 1.429 . S
C1037 C1033 1.429 . S
C1037 C1038 1.523 . S
C1038 C1022 1.368 . S
C1038 C1034 1.368 . S
C1038 C1037 1.523 . S
H1039 C1014 0.950 . S
H1040 C1016 0.950 . S
H1041 C1017 0.949 . S
H1042 C1019 0.950 . S
H1043 C1021 0.950 . S
C1044 C1045 1.349 . S
C1044 C1046 1.327 . S
C1044 H1069 0.950 . S
C1045 C1044 1.349 . S
C1045 C1061 1.349 . S
C1046 C1044 1.327 . S
C1046 C1065 1.429 . S
C1046 H1070 0.950 . S
C1047 C1064 1.574 . S
C1047 C1066 1.368 . S
C1047 H1071 0.949 . S
H1048 C1052 0.949 . S
C1049 C1050 1.349 . S
C1049 C1051 1.327 . S
C1049 H1072 0.950 . S
C1050 C1049 1.349 . S
C1050 C1062 1.349 . S
C1051 C1049 1.327 . S
C1051 C1067 1.429 . S
C1051 H1073 0.950 . S
C1052 H1048 0.949 . S
C1052 C1060 1.574 . S
C1052 C1068 1.368 . S
H1053 C1061 0.950 . S
H1054 C1059 0.950 . S
H1055 C1060 0.949 . S
H1056 C1062 0.950 . S
H1057 C1063 0.950 . S
H1058 C1064 0.949 . S
C1059 H1054 0.950 . S
C1059 C1061 1.327 . S
C1059 C1065 1.429 . S
C1060 C1052 1.574 . S
C1060 H1055 0.949 . S
C1060 C1066 1.368 . S
C1061 C1045 1.349 . S
C1061 H1053 0.950 . S
C1061 C1059 1.327 . S
C1062 C1050 1.349 . S
C1062 H1056 0.950 . S
C1062 C1063 1.327 . S
C1063 H1057 0.950 . S
C1063 C1062 1.327 . S
C1063 C1067 1.429 . S
C1064 C1047 1.574 . S
C1064 H1058 0.949 . S
C1064 C1068 1.368 . S
C1065 C1046 1.429 . S
C1065 C1059 1.429 . S
C1065 C1066 1.523 . S
C1066 C1047 1.368 . S
C1066 C1060 1.368 . S
C1066 C1065 1.523 . S
C1067 C1051 1.429 . S
C1067 C1063 1.429 . S
C1067 C1068 1.523 . S
C1068 C1052 1.368 . S
C1068 C1064 1.368 . S
C1068 C1067 1.523 . S
H1069 C1044 0.950 . S
H1070 C1046 0.950 . S
H1071 C1047 0.949 . S
H1072 C1049 0.950 . S
H1073 C1051 0.950 . S
C1074 C1075 1.349 . S
C1074 C1076 1.327 . S
C1074 H1099 0.950 . S
C1075 C1074 1.349 . S
C1075 C1091 1.349 . S
C1076 C1074 1.327 . S
C1076 C1095 1.429 . S
C1076 H1100 0.950 . S
C1077 C1094 1.574 . S
C1077 C1096 1.368 . S
C1077 H1101 0.949 . S
H1078 C1082 0.949 . S
C1079 C1080 1.349 . S
C1079 C1081 1.327 . S
C1079 H1102 0.950 . S
C1080 C1079 1.349 . S
C1080 C1092 1.349 . S
C1081 C1079 1.327 . S
C1081 C1097 1.429 . S
C1081 H1103 0.950 . S
C1082 H1078 0.949 . S
C1082 C1090 1.574 . S
C1082 C1098 1.368 . S
H1083 C1091 0.950 . S
H1084 C1089 0.950 . S
H1085 C1090 0.949 . S
H1086 C1092 0.950 . S
H1087 C1093 0.950 . S
H1088 C1094 0.949 . S
C1089 H1084 0.950 . S
C1089 C1091 1.327 . S
C1089 C1095 1.429 . S
C1090 C1082 1.574 . S
C1090 H1085 0.949 . S
C1090 C1096 1.368 . S
C1091 C1075 1.349 . S
C1091 H1083 0.950 . S
C1091 C1089 1.327 . S
C1092 C1080 1.349 . S
C1092 H1086 0.950 . S
C1092 C1093 1.327 . S
C1093 H1087 0.950 . S
C1093 C1092 1.327 . S
C1093 C1097 1.429 . S
C1094 C1077 1.574 . S
C1094 H1088 0.949 . S
C1094 C1098 1.368 . S
C1095 C1076 1.429 . S
C1095 C1089 1.429 . S
C1095 C1096 1.523 . S
C1096 C1077 1.368 . S
C1096 C1090 1.368 . S
C1096 C1095 1.523 . S
C1097 C1081 1.429 . S
C1097 C1093 1.429 . S
C1097 C1098 1.523 . S
C1098 C1082 1.368 . S
C1098 C1094 1.368 . S
C1098 C1097 1.523 . S
H1099 C1074 0.950 . S
H1100 C1076 0.950 . S
H1101 C1077 0.949 . S
H1102 C1079 0.950 . S
H1103 C1081 0.950 . S
C1104 C1105 1.349 . S
C1104 C1106 1.327 . S
C1104 H1129 0.950 . S
C1105 C1104 1.349 . S
C1105 C1121 1.349 . S
C1106 C1104 1.327 . S
C1106 C1125 1.429 . S
C1106 H1130 0.950 . S
C1107 C1124 1.574 . S
C1107 C1126 1.368 . S
C1107 H1131 0.949 . S
H1108 C1112 0.949 . S
C1109 C1110 1.349 . S
C1109 C1111 1.327 . S
C1109 H1132 0.950 . S
C1110 C1109 1.349 . S
C1110 C1122 1.349 . S
C1111 C1109 1.327 . S
C1111 C1127 1.429 . S
C1111 H1133 0.950 . S
C1112 H1108 0.949 . S
C1112 C1120 1.574 . S
C1112 C1128 1.368 . S
H1113 C1121 0.950 . S
H1114 C1119 0.950 . S
H1115 C1120 0.949 . S
H1116 C1122 0.950 . S
H1117 C1123 0.950 . S
H1118 C1124 0.949 . S
C1119 H1114 0.950 . S
C1119 C1121 1.327 . S
C1119 C1125 1.429 . S
C1120 C1112 1.574 . S
C1120 H1115 0.949 . S
C1120 C1126 1.368 . S
C1121 C1105 1.349 . S
C1121 H1113 0.950 . S
C1121 C1119 1.327 . S
C1122 C1110 1.349 . S
C1122 H1116 0.950 . S
C1122 C1123 1.327 . S
C1123 H1117 0.950 . S
C1123 C1122 1.327 . S
C1123 C1127 1.429 . S
C1124 C1107 1.574 . S
C1124 H1118 0.949 . S
C1124 C1128 1.368 . S
C1125 C1106 1.429 . S
C1125 C1119 1.429 . S
C1125 C1126 1.523 . S
C1126 C1107 1.368 . S
C1126 C1120 1.368 . S
C1126 C1125 1.523 . S
C1127 C1111 1.429 . S
C1127 C1123 1.429 . S
C1127 C1128 1.523 . S
C1128 C1112 1.368 . S
C1128 C1124 1.368 . S
C1128 C1127 1.523 . S
H1129 C1104 0.950 . S
H1130 C1106 0.950 . S
H1131 C1107 0.949 . S
H1132 C1109 0.950 . S
H1133 C1111 0.950 . S
C1134 C1135 1.349 . S
C1134 C1136 1.327 . S
C1134 H1159 0.950 . S
C1135 C1134 1.349 . S
C1135 C1151 1.349 . S
C1136 C1134 1.327 . S
C1136 C1155 1.429 . S
C1136 H1160 0.950 . S
C1137 C1154 1.574 . S
C1137 C1156 1.368 . S
C1137 H1161 0.949 . S
H1138 C1142 0.949 . S
C1139 C1140 1.349 . S
C1139 C1141 1.327 . S
C1139 H1162 0.950 . S
C1140 C1139 1.349 . S
C1140 C1152 1.349 . S
C1141 C1139 1.327 . S
C1141 C1157 1.429 . S
C1141 H1163 0.950 . S
C1142 H1138 0.949 . S
C1142 C1150 1.574 . S
C1142 C1158 1.368 . S
H1143 C1151 0.950 . S
H1144 C1149 0.950 . S
H1145 C1150 0.949 . S
H1146 C1152 0.950 . S
H1147 C1153 0.950 . S
H1148 C1154 0.949 . S
C1149 H1144 0.950 . S
C1149 C1151 1.327 . S
C1149 C1155 1.429 . S
C1150 C1142 1.574 . S
C1150 H1145 0.949 . S
C1150 C1156 1.368 . S
C1151 C1135 1.349 . S
C1151 H1143 0.950 . S
C1151 C1149 1.327 . S
C1152 C1140 1.349 . S
C1152 H1146 0.950 . S
C1152 C1153 1.327 . S
C1153 H1147 0.950 . S
C1153 C1152 1.327 . S
C1153 C1157 1.429 . S
C1154 C1137 1.574 . S
C1154 H1148 0.949 . S
C1154 C1158 1.368 . S
C1155 C1136 1.429 . S
C1155 C1149 1.429 . S
C1155 C1156 1.523 . S
C1156 C1137 1.368 . S
C1156 C1150 1.368 . S
C1156 C1155 1.523 . S
C1157 C1141 1.429 . S
C1157 C1153 1.429 . S
C1157 C1158 1.523 . S
C1158 C1142 1.368 . S
C1158 C1154 1.368 . S
C1158 C1157 1.523 . S
H1159 C1134 0.950 . S
H1160 C1136 0.950 . S
H1161 C1137 0.949 . S
H1162 C1139 0.950 . S
H1163 C1141 0.950 . S
C1164 C1165 1.349 . S
C1164 C1166 1.327 . S
C1164 H1189 0.950 . S
C1165 C1164 1.349 . S
C1165 C1181 1.349 . S
C1166 C1164 1.327 . S
C1166 C1185 1.429 . S
C1166 H1190 0.950 . S
C1167 C1184 1.574 . S
C1167 C1186 1.368 . S
C1167 H1191 0.949 . S
H1168 C1172 0.949 . S
C1169 C1170 1.349 . S
C1169 C1171 1.327 . S
C1169 H1192 0.950 . S
C1170 C1169 1.349 . S
C1170 C1182 1.349 . S
C1171 C1169 1.327 . S
C1171 C1187 1.429 . S
C1171 H1193 0.950 . S
C1172 H1168 0.949 . S
C1172 C1180 1.574 . S
C1172 C1188 1.368 . S
H1173 C1181 0.950 . S
H1174 C1179 0.950 . S
H1175 C1180 0.949 . S
H1176 C1182 0.950 . S
H1177 C1183 0.950 . S
H1178 C1184 0.949 . S
C1179 H1174 0.950 . S
C1179 C1181 1.327 . S
C1179 C1185 1.429 . S
C1180 C1172 1.574 . S
C1180 H1175 0.949 . S
C1180 C1186 1.368 . S
C1181 C1165 1.349 . S
C1181 H1173 0.950 . S
C1181 C1179 1.327 . S
C1182 C1170 1.349 . S
C1182 H1176 0.950 . S
C1182 C1183 1.327 . S
C1183 H1177 0.950 . S
C1183 C1182 1.327 . S
C1183 C1187 1.429 . S
C1184 C1167 1.574 . S
C1184 H1178 0.949 . S
C1184 C1188 1.368 . S
C1185 C1166 1.429 . S
C1185 C1179 1.429 . S
C1185 C1186 1.523 . S
C1186 C1167 1.368 . S
C1186 C1180 1.368 . S
C1186 C1185 1.523 . S
C1187 C1171 1.429 . S
C1187 C1183 1.429 . S
C1187 C1188 1.523 . S
C1188 C1172 1.368 . S
C1188 C1184 1.368 . S
C1188 C1187 1.523 . S
H1189 C1164 0.950 . S
H1190 C1166 0.950 . S
H1191 C1167 0.949 . S
H1192 C1169 0.950 . S
H1193 C1171 0.950 . S
C1194 C1195 1.349 . S
C1194 C1196 1.327 . S
C1194 H1219 0.950 . S
C1195 C1194 1.349 . S
C1195 C1211 1.349 . S
C1196 C1194 1.327 . S
C1196 C1215 1.429 . S
C1196 H1220 0.950 . S
C1197 C1214 1.574 . S
C1197 C1216 1.368 . S
C1197 H1221 0.949 . S
H1198 C1202 0.949 . S
C1199 C1200 1.349 . S
C1199 C1201 1.327 . S
C1199 H1222 0.950 . S
C1200 C1199 1.349 . S
C1200 C1212 1.349 . S
C1201 C1199 1.327 . S
C1201 C1217 1.429 . S
C1201 H1223 0.950 . S
C1202 H1198 0.949 . S
C1202 C1210 1.574 . S
C1202 C1218 1.368 . S
H1203 C1211 0.950 . S
H1204 C1209 0.950 . S
H1205 C1210 0.949 . S
H1206 C1212 0.950 . S
H1207 C1213 0.950 . S
H1208 C1214 0.949 . S
C1209 H1204 0.950 . S
C1209 C1211 1.327 . S
C1209 C1215 1.429 . S
C1210 C1202 1.574 . S
C1210 H1205 0.949 . S
C1210 C1216 1.368 . S
C1211 C1195 1.349 . S
C1211 H1203 0.950 . S
C1211 C1209 1.327 . S
C1212 C1200 1.349 . S
C1212 H1206 0.950 . S
C1212 C1213 1.327 . S
C1213 H1207 0.950 . S
C1213 C1212 1.327 . S
C1213 C1217 1.429 . S
C1214 C1197 1.574 . S
C1214 H1208 0.949 . S
C1214 C1218 1.368 . S
C1215 C1196 1.429 . S
C1215 C1209 1.429 . S
C1215 C1216 1.523 . S
C1216 C1197 1.368 . S
C1216 C1210 1.368 . S
C1216 C1215 1.523 . S
C1217 C1201 1.429 . S
C1217 C1213 1.429 . S
C1217 C1218 1.523 . S
C1218 C1202 1.368 . S
C1218 C1214 1.368 . S
C1218 C1217 1.523 . S
H1219 C1194 0.950 . S
H1220 C1196 0.950 . S
H1221 C1197 0.949 . S
H1222 C1199 0.950 . S
H1223 C1201 0.950 . S
C1224 C1225 1.349 . S
C1224 C1226 1.327 . S
C1224 H1249 0.950 . S
C1225 C1224 1.349 . S
C1225 C1241 1.349 . S
C1226 C1224 1.327 . S
C1226 C1245 1.429 . S
C1226 H1250 0.950 . S
C1227 C1244 1.574 . S
C1227 C1246 1.368 . S
C1227 H1251 0.949 . S
H1228 C1232 0.949 . S
C1229 C1230 1.349 . S
C1229 C1231 1.327 . S
C1229 H1252 0.950 . S
C1230 C1229 1.349 . S
C1230 C1242 1.349 . S
C1231 C1229 1.327 . S
C1231 C1247 1.429 . S
C1231 H1253 0.950 . S
C1232 H1228 0.949 . S
C1232 C1240 1.574 . S
C1232 C1248 1.368 . S
H1233 C1241 0.950 . S
H1234 C1239 0.950 . S
H1235 C1240 0.949 . S
H1236 C1242 0.950 . S
H1237 C1243 0.950 . S
H1238 C1244 0.949 . S
C1239 H1234 0.950 . S
C1239 C1241 1.327 . S
C1239 C1245 1.429 . S
C1240 C1232 1.574 . S
C1240 H1235 0.949 . S
C1240 C1246 1.368 . S
C1241 C1225 1.349 . S
C1241 H1233 0.950 . S
C1241 C1239 1.327 . S
C1242 C1230 1.349 . S
C1242 H1236 0.950 . S
C1242 C1243 1.327 . S
C1243 H1237 0.950 . S
C1243 C1242 1.327 . S
C1243 C1247 1.429 . S
C1244 C1227 1.574 . S
C1244 H1238 0.949 . S
C1244 C1248 1.368 . S
C1245 C1226 1.429 . S
C1245 C1239 1.429 . S
C1245 C1246 1.523 . S
C1246 C1227 1.368 . S
C1246 C1240 1.368 . S
C1246 C1245 1.523 . S
C1247 C1231 1.429 . S
C1247 C1243 1.429 . S
C1247 C1248 1.523 . S
C1248 C1232 1.368 . S
C1248 C1244 1.368 . S
C1248 C1247 1.523 . S
H1249 C1224 0.950 . S
H1250 C1226 0.950 . S
H1251 C1227 0.949 . S
H1252 C1229 0.950 . S
H1253 C1231 0.950 . S
C1254 C1255 1.349 . S
C1254 C1256 1.327 . S
C1254 H1279 0.950 . S
C1255 C1254 1.349 . S
C1255 C1271 1.349 . S
C1256 C1254 1.327 . S
C1256 C1275 1.429 . S
C1256 H1280 0.950 . S
C1257 C1274 1.574 . S
C1257 C1276 1.368 . S
C1257 H1281 0.949 . S
H1258 C1262 0.949 . S
C1259 C1260 1.349 . S
C1259 C1261 1.327 . S
C1259 H1282 0.950 . S
C1260 C1259 1.349 . S
C1260 C1272 1.349 . S
C1261 C1259 1.327 . S
C1261 C1277 1.429 . S
C1261 H1283 0.950 . S
C1262 H1258 0.949 . S
C1262 C1270 1.574 . S
C1262 C1278 1.368 . S
H1263 C1271 0.950 . S
H1264 C1269 0.950 . S
H1265 C1270 0.949 . S
H1266 C1272 0.950 . S
H1267 C1273 0.950 . S
H1268 C1274 0.949 . S
C1269 H1264 0.950 . S
C1269 C1271 1.327 . S
C1269 C1275 1.429 . S
C1270 C1262 1.574 . S
C1270 H1265 0.949 . S
C1270 C1276 1.368 . S
C1271 C1255 1.349 . S
C1271 H1263 0.950 . S
C1271 C1269 1.327 . S
C1272 C1260 1.349 . S
C1272 H1266 0.950 . S
C1272 C1273 1.327 . S
C1273 H1267 0.950 . S
C1273 C1272 1.327 . S
C1273 C1277 1.429 . S
C1274 C1257 1.574 . S
C1274 H1268 0.949 . S
C1274 C1278 1.368 . S
C1275 C1256 1.429 . S
C1275 C1269 1.429 . S
C1275 C1276 1.523 . S
C1276 C1257 1.368 . S
C1276 C1270 1.368 . S
C1276 C1275 1.523 . S
C1277 C1261 1.429 . S
C1277 C1273 1.429 . S
C1277 C1278 1.523 . S
C1278 C1262 1.368 . S
C1278 C1274 1.368 . S
C1278 C1277 1.523 . S
H1279 C1254 0.950 . S
H1280 C1256 0.950 . S
H1281 C1257 0.949 . S
H1282 C1259 0.950 . S
H1283 C1261 0.950 . S
C1284 C1285 1.349 . S
C1284 C1286 1.327 . S
C1284 H1309 0.950 . S
C1285 C1284 1.349 . S
C1285 C1301 1.349 . S
C1286 C1284 1.327 . S
C1286 C1305 1.429 . S
C1286 H1310 0.950 . S
C1287 C1304 1.574 . S
C1287 C1306 1.368 . S
C1287 H1311 0.949 . S
H1288 C1292 0.949 . S
C1289 C1290 1.349 . S
C1289 C1291 1.327 . S
C1289 H1312 0.950 . S
C1290 C1289 1.349 . S
C1290 C1302 1.349 . S
C1291 C1289 1.327 . S
C1291 C1307 1.429 . S
C1291 H1313 0.950 . S
C1292 H1288 0.949 . S
C1292 C1300 1.574 . S
C1292 C1308 1.368 . S
H1293 C1301 0.950 . S
H1294 C1299 0.950 . S
H1295 C1300 0.949 . S
H1296 C1302 0.950 . S
H1297 C1303 0.950 . S
H1298 C1304 0.949 . S
C1299 H1294 0.950 . S
C1299 C1301 1.327 . S
C1299 C1305 1.429 . S
C1300 C1292 1.574 . S
C1300 H1295 0.949 . S
C1300 C1306 1.368 . S
C1301 C1285 1.349 . S
C1301 H1293 0.950 . S
C1301 C1299 1.327 . S
C1302 C1290 1.349 . S
C1302 H1296 0.950 . S
C1302 C1303 1.327 . S
C1303 H1297 0.950 . S
C1303 C1302 1.327 . S
C1303 C1307 1.429 . S
C1304 C1287 1.574 . S
C1304 H1298 0.949 . S
C1304 C1308 1.368 . S
C1305 C1286 1.429 . S
C1305 C1299 1.429 . S
C1305 C1306 1.523 . S
C1306 C1287 1.368 . S
C1306 C1300 1.368 . S
C1306 C1305 1.523 . S
C1307 C1291 1.429 . S
C1307 C1303 1.429 . S
C1307 C1308 1.523 . S
C1308 C1292 1.368 . S
C1308 C1304 1.368 . S
C1308 C1307 1.523 . S
H1309 C1284 0.950 . S
H1310 C1286 0.950 . S
H1311 C1287 0.949 . S
H1312 C1289 0.950 . S
H1313 C1291 0.950 . S
C1314 C1315 1.349 . S
C1314 C1316 1.327 . S
C1314 H1339 0.950 . S
C1315 C1314 1.349 . S
C1315 C1331 1.349 . S
C1316 C1314 1.327 . S
C1316 C1335 1.429 . S
C1316 H1340 0.950 . S
C1317 C1334 1.574 . S
C1317 C1336 1.368 . S
C1317 H1341 0.949 . S
H1318 C1322 0.949 . S
C1319 C1320 1.349 . S
C1319 C1321 1.327 . S
C1319 H1342 0.950 . S
C1320 C1319 1.349 . S
C1320 C1332 1.349 . S
C1321 C1319 1.327 . S
C1321 C1337 1.429 . S
C1321 H1343 0.950 . S
C1322 H1318 0.949 . S
C1322 C1330 1.574 . S
C1322 C1338 1.368 . S
H1323 C1331 0.950 . S
H1324 C1329 0.950 . S
H1325 C1330 0.949 . S
H1326 C1332 0.950 . S
H1327 C1333 0.950 . S
H1328 C1334 0.949 . S
C1329 H1324 0.950 . S
C1329 C1331 1.327 . S
C1329 C1335 1.429 . S
C1330 C1322 1.574 . S
C1330 H1325 0.949 . S
C1330 C1336 1.368 . S
C1331 C1315 1.349 . S
C1331 H1323 0.950 . S
C1331 C1329 1.327 . S
C1332 C1320 1.349 . S
C1332 H1326 0.950 . S
C1332 C1333 1.327 . S
C1333 H1327 0.950 . S
C1333 C1332 1.327 . S
C1333 C1337 1.429 . S
C1334 C1317 1.574 . S
C1334 H1328 0.949 . S
C1334 C1338 1.368 . S
C1335 C1316 1.429 . S
C1335 C1329 1.429 . S
C1335 C1336 1.523 . S
C1336 C1317 1.368 . S
C1336 C1330 1.368 . S
C1336 C1335 1.523 . S
C1337 C1321 1.429 . S
C1337 C1333 1.429 . S
C1337 C1338 1.523 . S
C1338 C1322 1.368 . S
C1338 C1334 1.368 . S
C1338 C1337 1.523 . S
H1339 C1314 0.950 . S
H1340 C1316 0.950 . S
H1341 C1317 0.949 . S
H1342 C1319 0.950 . S
H1343 C1321 0.950 . S
C1344 C1345 1.349 . S
C1344 C1346 1.327 . S
C1344 H1369 0.950 . S
C1345 C1344 1.349 . S
C1345 C1361 1.349 . S
C1346 C1344 1.327 . S
C1346 C1365 1.429 . S
C1346 H1370 0.950 . S
C1347 C1364 1.574 . S
C1347 C1366 1.368 . S
C1347 H1371 0.949 . S
H1348 C1352 0.949 . S
C1349 C1350 1.349 . S
C1349 C1351 1.327 . S
C1349 H1372 0.950 . S
C1350 C1349 1.349 . S
C1350 C1362 1.349 . S
C1351 C1349 1.327 . S
C1351 C1367 1.429 . S
C1351 H1373 0.950 . S
C1352 H1348 0.949 . S
C1352 C1360 1.574 . S
C1352 C1368 1.368 . S
H1353 C1361 0.950 . S
H1354 C1359 0.950 . S
H1355 C1360 0.949 . S
H1356 C1362 0.950 . S
H1357 C1363 0.950 . S
H1358 C1364 0.949 . S
C1359 H1354 0.950 . S
C1359 C1361 1.327 . S
C1359 C1365 1.429 . S
C1360 C1352 1.574 . S
C1360 H1355 0.949 . S
C1360 C1366 1.368 . S
C1361 C1345 1.349 . S
C1361 H1353 0.950 . S
C1361 C1359 1.327 . S
C1362 C1350 1.349 . S
C1362 H1356 0.950 . S
C1362 C1363 1.327 . S
C1363 H1357 0.950 . S
C1363 C1362 1.327 . S
C1363 C1367 1.429 . S
C1364 C1347 1.574 . S
C1364 H1358 0.949 . S
C1364 C1368 1.368 . S
C1365 C1346 1.429 . S
C1365 C1359 1.429 . S
C1365 C1366 1.523 . S
C1366 C1347 1.368 . S
C1366 C1360 1.368 . S
C1366 C1365 1.523 . S
C1367 C1351 1.429 . S
C1367 C1363 1.429 . S
C1367 C1368 1.523 . S
C1368 C1352 1.368 . S
C1368 C1364 1.368 . S
C1368 C1367 1.523 . S
H1369 C1344 0.950 . S
H1370 C1346 0.950 . S
H1371 C1347 0.949 . S
H1372 C1349 0.950 . S
H1373 C1351 0.950 . S
C1374 C1375 1.349 . S
C1374 C1376 1.327 . S
C1374 H1399 0.950 . S
C1375 C1374 1.349 . S
C1375 C1391 1.349 . S
C1376 C1374 1.327 . S
C1376 C1395 1.429 . S
C1376 H1400 0.950 . S
C1377 C1394 1.574 . S
C1377 C1396 1.368 . S
C1377 H1401 0.949 . S
H1378 C1382 0.949 . S
C1379 C1380 1.349 . S
C1379 C1381 1.327 . S
C1379 H1402 0.950 . S
C1380 C1379 1.349 . S
C1380 C1392 1.349 . S
C1381 C1379 1.327 . S
C1381 C1397 1.429 . S
C1381 H1403 0.950 . S
C1382 H1378 0.949 . S
C1382 C1390 1.574 . S
C1382 C1398 1.368 . S
H1383 C1391 0.950 . S
H1384 C1389 0.950 . S
H1385 C1390 0.949 . S
H1386 C1392 0.950 . S
H1387 C1393 0.950 . S
H1388 C1394 0.949 . S
C1389 H1384 0.950 . S
C1389 C1391 1.327 . S
C1389 C1395 1.429 . S
C1390 C1382 1.574 . S
C1390 H1385 0.949 . S
C1390 C1396 1.368 . S
C1391 C1375 1.349 . S
C1391 H1383 0.950 . S
C1391 C1389 1.327 . S
C1392 C1380 1.349 . S
C1392 H1386 0.950 . S
C1392 C1393 1.327 . S
C1393 H1387 0.950 . S
C1393 C1392 1.327 . S
C1393 C1397 1.429 . S
C1394 C1377 1.574 . S
C1394 H1388 0.949 . S
C1394 C1398 1.368 . S
C1395 C1376 1.429 . S
C1395 C1389 1.429 . S
C1395 C1396 1.523 . S
C1396 C1377 1.368 . S
C1396 C1390 1.368 . S
C1396 C1395 1.523 . S
C1397 C1381 1.429 . S
C1397 C1393 1.429 . S
C1397 C1398 1.523 . S
C1398 C1382 1.368 . S
C1398 C1394 1.368 . S
C1398 C1397 1.523 . S
H1399 C1374 0.950 . S
H1400 C1376 0.950 . S
H1401 C1377 0.949 . S
H1402 C1379 0.950 . S
H1403 C1381 0.950 . S
C1404 C1405 1.349 . S
C1404 C1406 1.327 . S
C1404 H1429 0.950 . S
C1405 C1404 1.349 . S
C1405 C1421 1.349 . S
C1406 C1404 1.327 . S
C1406 C1425 1.429 . S
C1406 H1430 0.950 . S
C1407 C1424 1.574 . S
C1407 C1426 1.368 . S
C1407 H1431 0.949 . S
H1408 C1412 0.949 . S
C1409 C1410 1.349 1_554 S
C1409 C1411 1.327 . S
C1409 H1432 0.950 . S
C1410 C1409 1.349 1_556 S
C1410 C1422 1.349 1_556 S
C1411 C1409 1.327 . S
C1411 C1427 1.429 . S
C1411 H1433 0.950 . S
C1412 H1408 0.949 . S
C1412 C1420 1.574 . S
C1412 C1428 1.368 . S
H1413 C1421 0.950 . S
H1414 C1419 0.950 . S
H1415 C1420 0.949 . S
H1416 C1422 0.950 1_556 S
H1417 C1423 0.950 . S
H1418 C1424 0.949 . S
C1419 H1414 0.950 . S
C1419 C1421 1.327 . S
C1419 C1425 1.429 . S
C1420 C1412 1.574 . S
C1420 H1415 0.949 . S
C1420 C1426 1.368 . S
C1421 C1405 1.349 . S
C1421 H1413 0.950 . S
C1421 C1419 1.327 . S
C1422 C1410 1.349 1_554 S
C1422 H1416 0.950 1_554 S
C1422 C1423 1.327 . S
C1423 H1417 0.950 . S
C1423 C1422 1.327 . S
C1423 C1427 1.429 . S
C1424 C1407 1.574 . S
C1424 H1418 0.949 . S
C1424 C1428 1.368 . S
C1425 C1406 1.429 . S
C1425 C1419 1.429 . S
C1425 C1426 1.523 . S
C1426 C1407 1.368 . S
C1426 C1420 1.368 . S
C1426 C1425 1.523 . S
C1427 C1411 1.429 . S
C1427 C1423 1.429 . S
C1427 C1428 1.523 . S
C1428 C1412 1.368 . S
C1428 C1424 1.368 . S
C1428 C1427 1.523 . S
H1429 C1404 0.950 . S
H1430 C1406 0.950 . S
H1431 C1407 0.949 . S
H1432 C1409 0.950 . S
H1433 C1411 0.950 . S
C1434 C1435 1.349 . S
C1434 C1436 1.327 . S
C1434 H1459 0.950 . S
C1435 C1434 1.349 . S
C1435 C1451 1.349 . S
C1436 C1434 1.327 . S
C1436 C1455 1.429 . S
C1436 H1460 0.950 . S
C1437 C1454 1.574 . S
C1437 C1456 1.368 . S
C1437 H1461 0.949 . S
H1438 C1442 0.949 . S
C1439 C1440 1.349 . S
C1439 C1441 1.327 1_556 S
C1439 H1462 0.950 . S
C1440 C1439 1.349 . S
C1440 C1452 1.349 1_556 S
C1441 C1439 1.327 1_554 S
C1441 C1457 1.429 . S
C1441 H1463 0.950 . S
C1442 H1438 0.949 . S
C1442 C1450 1.574 . S
C1442 C1458 1.368 . S
H1443 C1451 0.950 . S
H1444 C1449 0.950 . S
H1445 C1450 0.949 . S
H1446 C1452 0.950 . S
H1447 C1453 0.950 . S
H1448 C1454 0.949 . S
C1449 H1444 0.950 . S
C1449 C1451 1.327 . S
C1449 C1455 1.429 . S
C1450 C1442 1.574 . S
C1450 H1445 0.949 . S
C1450 C1456 1.368 . S
C1451 C1435 1.349 . S
C1451 H1443 0.950 . S
C1451 C1449 1.327 . S
C1452 C1440 1.349 1_554 S
C1452 H1446 0.950 . S
C1452 C1453 1.327 . S
C1453 H1447 0.950 . S
C1453 C1452 1.327 . S
C1453 C1457 1.429 . S
C1454 C1437 1.574 . S
C1454 H1448 0.949 . S
C1454 C1458 1.368 . S
C1455 C1436 1.429 . S
C1455 C1449 1.429 . S
C1455 C1456 1.523 . S
C1456 C1437 1.368 . S
C1456 C1450 1.368 . S
C1456 C1455 1.523 . S
C1457 C1441 1.429 . S
C1457 C1453 1.429 . S
C1457 C1458 1.523 . S
C1458 C1442 1.368 . S
C1458 C1454 1.368 . S
C1458 C1457 1.523 . S
H1459 C1434 0.950 . S
H1460 C1436 0.950 . S
H1461 C1437 0.949 . S
H1462 C1439 0.950 . S
H1463 C1441 0.950 . S
C1464 C1465 1.349 . S
C1464 C1466 1.327 1_556 S
C1464 H1489 0.950 . S
C1465 C1464 1.349 . S
C1465 C1481 1.349 1_556 S
C1466 C1464 1.327 1_554 S
C1466 C1485 1.429 . S
C1466 H1490 0.950 . S
C1467 C1484 1.574 . S
C1467 C1486 1.368 . S
C1467 H1491 0.949 . S
H1468 C1472 0.949 . S
C1469 C1470 1.349 . S
C1469 C1471 1.327 . S
C1469 H1492 0.950 . S
C1470 C1469 1.349 . S
C1470 C1482 1.349 . S
C1471 C1469 1.327 . S
C1471 C1487 1.429 . S
C1471 H1493 0.950 . S
C1472 H1468 0.949 . S
C1472 C1480 1.574 . S
C1472 C1488 1.368 . S
H1473 C1481 0.950 . S
H1474 C1479 0.950 . S
H1475 C1480 0.949 . S
H1476 C1482 0.950 . S
H1477 C1483 0.950 . S
H1478 C1484 0.949 . S
C1479 H1474 0.950 . S
C1479 C1481 1.327 . S
C1479 C1485 1.429 . S
C1480 C1472 1.574 . S
C1480 H1475 0.949 . S
C1480 C1486 1.368 . S
C1481 C1465 1.349 1_554 S
C1481 H1473 0.950 . S
C1481 C1479 1.327 . S
C1482 C1470 1.349 . S
C1482 H1476 0.950 . S
C1482 C1483 1.327 . S
C1483 H1477 0.950 . S
C1483 C1482 1.327 . S
C1483 C1487 1.429 . S
C1484 C1467 1.574 . S
C1484 H1478 0.949 . S
C1484 C1488 1.368 . S
C1485 C1466 1.429 . S
C1485 C1479 1.429 . S
C1485 C1486 1.523 . S
C1486 C1467 1.368 . S
C1486 C1480 1.368 . S
C1486 C1485 1.523 . S
C1487 C1471 1.429 . S
C1487 C1483 1.429 . S
C1487 C1488 1.523 . S
C1488 C1472 1.368 . S
C1488 C1484 1.368 . S
C1488 C1487 1.523 . S
H1489 C1464 0.950 . S
H1490 C1466 0.950 . S
H1491 C1467 0.949 . S
H1492 C1469 0.950 . S
H1493 C1471 0.950 . S
C1494 C1495 1.349 . S
C1494 C1496 1.327 . S
C1494 H1519 0.950 . S
C1495 C1494 1.349 . S
C1495 C1511 1.349 . S
C1496 C1494 1.327 . S
C1496 C1515 1.429 . S
C1496 H1520 0.950 . S
C1497 C1514 1.574 1_556 S
C1497 C1516 1.368 . S
C1497 H1521 0.949 . S
H1498 C1502 0.949 . S
C1499 C1500 1.349 . S
C1499 C1501 1.327 . S
C1499 H1522 0.950 . S
C1500 C1499 1.349 . S
C1500 C1512 1.349 . S
C1501 C1499 1.327 . S
C1501 C1517 1.429 . S
C1501 H1523 0.950 . S
C1502 H1498 0.949 . S
C1502 C1510 1.574 . S
C1502 C1518 1.368 . S
H1503 C1511 0.950 . S
H1504 C1509 0.950 . S
H1505 C1510 0.949 . S
H1506 C1512 0.950 . S
H1507 C1513 0.950 . S
H1508 C1514 0.949 . S
C1509 H1504 0.950 . S
C1509 C1511 1.327 . S
C1509 C1515 1.429 . S
C1510 C1502 1.574 . S
C1510 H1505 0.949 . S
C1510 C1516 1.368 1_554 S
C1511 C1495 1.349 . S
C1511 H1503 0.950 . S
C1511 C1509 1.327 . S
C1512 C1500 1.349 . S
C1512 H1506 0.950 . S
C1512 C1513 1.327 . S
C1513 H1507 0.950 . S
C1513 C1512 1.327 . S
C1513 C1517 1.429 . S
C1514 C1497 1.574 1_554 S
C1514 H1508 0.949 . S
C1514 C1518 1.368 . S
C1515 C1496 1.429 . S
C1515 C1509 1.429 . S
C1515 C1516 1.523 . S
C1516 C1497 1.368 . S
C1516 C1510 1.368 1_556 S
C1516 C1515 1.523 . S
C1517 C1501 1.429 . S
C1517 C1513 1.429 . S
C1517 C1518 1.523 . S
C1518 C1502 1.368 . S
C1518 C1514 1.368 . S
C1518 C1517 1.523 . S
H1519 C1494 0.950 . S
H1520 C1496 0.950 . S
H1521 C1497 0.949 . S
H1522 C1499 0.950 . S
H1523 C1501 0.950 . S
C1524 C1525 1.349 . S
C1524 C1526 1.327 . S
C1524 H1549 0.950 . S
C1525 C1524 1.349 . S
C1525 C1541 1.349 . S
C1526 C1524 1.327 . S
C1526 C1545 1.429 . S
C1526 H1550 0.950 1_556 S
C1527 C1544 1.574 1_556 S
C1527 C1546 1.368 . S
C1527 H1551 0.949 . S
H1528 C1532 0.949 . S
C1529 C1530 1.349 . S
C1529 C1531 1.327 . S
C1529 H1552 0.950 . S
C1530 C1529 1.349 . S
C1530 C1542 1.349 . S
C1531 C1529 1.327 . S
C1531 C1547 1.429 . S
C1531 H1553 0.950 . S
C1532 H1528 0.949 . S
C1532 C1540 1.574 . S
C1532 C1548 1.368 . S
H1533 C1541 0.950 . S
H1534 C1539 0.950 . S
H1535 C1540 0.949 . S
H1536 C1542 0.950 . S
H1537 C1543 0.950 . S
H1538 C1544 0.949 . S
C1539 H1534 0.950 . S
C1539 C1541 1.327 . S
C1539 C1545 1.429 . S
C1540 C1532 1.574 . S
C1540 H1535 0.949 . S
C1540 C1546 1.368 1_554 S
C1541 C1525 1.349 . S
C1541 H1533 0.950 . S
C1541 C1539 1.327 . S
C1542 C1530 1.349 . S
C1542 H1536 0.950 . S
C1542 C1543 1.327 . S
C1543 H1537 0.950 . S
C1543 C1542 1.327 . S
C1543 C1547 1.429 . S
C1544 C1527 1.574 1_554 S
C1544 H1538 0.949 . S
C1544 C1548 1.368 . S
C1545 C1526 1.429 . S
C1545 C1539 1.429 . S
C1545 C1546 1.523 . S
C1546 C1527 1.368 . S
C1546 C1540 1.368 1_556 S
C1546 C1545 1.523 . S
C1547 C1531 1.429 . S
C1547 C1543 1.429 . S
C1547 C1548 1.523 . S
C1548 C1532 1.368 . S
C1548 C1544 1.368 . S
C1548 C1547 1.523 . S
H1549 C1524 0.950 . S
H1550 C1526 0.950 1_554 S
H1551 C1527 0.949 . S
H1552 C1529 0.950 . S
H1553 C1531 0.950 . S
C1554 C1555 1.349 . S
C1554 C1556 1.327 . S
C1554 H1579 0.950 . S
C1555 C1554 1.349 . S
C1555 C1571 1.349 . S
C1556 C1554 1.327 . S
C1556 C1575 1.429 . S
C1556 H1580 0.950 . S
C1557 C1574 1.574 . S
C1557 C1576 1.368 1_554 S
C1557 H1581 0.949 1_554 S
H1558 C1562 0.949 . S
C1559 C1560 1.349 . S
C1559 C1561 1.327 . S
C1559 H1582 0.950 . S
C1560 C1559 1.349 . S
C1560 C1572 1.349 . S
C1561 C1559 1.327 . S
C1561 C1577 1.429 . S
C1561 H1583 0.950 . S
C1562 H1558 0.949 . S
C1562 C1570 1.574 . S
C1562 C1578 1.368 . S
H1563 C1571 0.950 . S
H1564 C1569 0.950 . S
H1565 C1570 0.949 1_556 S
H1566 C1572 0.950 . S
H1567 C1573 0.950 . S
H1568 C1574 0.949 . S
C1569 H1564 0.950 . S
C1569 C1571 1.327 . S
C1569 C1575 1.429 . S
C1570 C1562 1.574 . S
C1570 H1565 0.949 1_554 S
C1570 C1576 1.368 1_554 S
C1571 C1555 1.349 . S
C1571 H1563 0.950 . S
C1571 C1569 1.327 . S
C1572 C1560 1.349 . S
C1572 H1566 0.950 . S
C1572 C1573 1.327 . S
C1573 H1567 0.950 . S
C1573 C1572 1.327 . S
C1573 C1577 1.429 . S
C1574 C1557 1.574 . S
C1574 H1568 0.949 . S
C1574 C1578 1.368 . S
C1575 C1556 1.429 . S
C1575 C1569 1.429 . S
C1575 C1576 1.523 . S
C1576 C1557 1.368 1_556 S
C1576 C1570 1.368 1_556 S
C1576 C1575 1.523 . S
C1577 C1561 1.429 . S
C1577 C1573 1.429 . S
C1577 C1578 1.523 . S
C1578 C1562 1.368 . S
C1578 C1574 1.368 . S
C1578 C1577 1.523 . S
H1579 C1554 0.950 . S
H1580 C1556 0.950 . S
H1581 C1557 0.949 1_556 S
H1582 C1559 0.950 . S
H1583 C1561 0.950 . S
C1584 C1585 1.349 . S
C1584 C1586 1.327 . S
C1584 H1609 0.950 . S
C1585 C1584 1.349 . S
C1585 C1601 1.349 . S
C1586 C1584 1.327 . S
C1586 C1605 1.429 . S
C1586 H1610 0.950 . S
C1587 C1604 1.574 . S
C1587 C1606 1.368 . S
C1587 H1611 0.949 . S
H1588 C1592 0.949 . S
C1589 C1590 1.349 . S
C1589 C1591 1.327 . S
C1589 H1612 0.950 . S
C1590 C1589 1.349 . S
C1590 C1602 1.349 . S
C1591 C1589 1.327 . S
C1591 C1607 1.429 . S
C1591 H1613 0.950 . S
C1592 H1588 0.949 . S
C1592 C1600 1.574 . S
C1592 C1608 1.368 . S
H1593 C1601 0.950 . S
H1594 C1599 0.950 . S
H1595 C1600 0.949 . S
H1596 C1602 0.950 . S
H1597 C1603 0.950 . S
H1598 C1604 0.949 . S
C1599 H1594 0.950 . S
C1599 C1601 1.327 . S
C1599 C1605 1.429 . S
C1600 C1592 1.574 . S
C1600 H1595 0.949 . S
C1600 C1606 1.368 . S
C1601 C1585 1.349 . S
C1601 H1593 0.950 . S
C1601 C1599 1.327 . S
C1602 C1590 1.349 . S
C1602 H1596 0.950 . S
C1602 C1603 1.327 . S
C1603 H1597 0.950 . S
C1603 C1602 1.327 . S
C1603 C1607 1.429 . S
C1604 C1587 1.574 . S
C1604 H1598 0.949 . S
C1604 C1608 1.368 . S
C1605 C1586 1.429 . S
C1605 C1599 1.429 . S
C1605 C1606 1.523 . S
C1606 C1587 1.368 . S
C1606 C1600 1.368 . S
C1606 C1605 1.523 . S
C1607 C1591 1.429 . S
C1607 C1603 1.429 . S
C1607 C1608 1.523 . S
C1608 C1592 1.368 . S
C1608 C1604 1.368 . S
C1608 C1607 1.523 . S
H1609 C1584 0.950 . S
H1610 C1586 0.950 . S
H1611 C1587 0.949 . S
H1612 C1589 0.950 . S
H1613 C1591 0.950 . S
C1614 C1615 1.349 . S
C1614 C1616 1.327 . S
C1614 H1639 0.950 . S
C1615 C1614 1.349 . S
C1615 C1631 1.349 . S
C1616 C1614 1.327 . S
C1616 C1635 1.429 . S
C1616 H1640 0.950 . S
C1617 C1634 1.574 . S
C1617 C1636 1.368 . S
C1617 H1641 0.949 . S
H1618 C1622 0.949 . S
C1619 C1620 1.349 . S
C1619 C1621 1.327 . S
C1619 H1642 0.950 . S
C1620 C1619 1.349 . S
C1620 C1632 1.349 . S
C1621 C1619 1.327 . S
C1621 C1637 1.429 . S
C1621 H1643 0.950 . S
C1622 H1618 0.949 . S
C1622 C1630 1.574 . S
C1622 C1638 1.368 . S
H1623 C1631 0.950 . S
H1624 C1629 0.950 . S
H1625 C1630 0.949 . S
H1626 C1632 0.950 . S
H1627 C1633 0.950 . S
H1628 C1634 0.949 . S
C1629 H1624 0.950 . S
C1629 C1631 1.327 . S
C1629 C1635 1.429 . S
C1630 C1622 1.574 . S
C1630 H1625 0.949 . S
C1630 C1636 1.368 . S
C1631 C1615 1.349 . S
C1631 H1623 0.950 . S
C1631 C1629 1.327 . S
C1632 C1620 1.349 . S
C1632 H1626 0.950 . S
C1632 C1633 1.327 . S
C1633 H1627 0.950 . S
C1633 C1632 1.327 . S
C1633 C1637 1.429 . S
C1634 C1617 1.574 . S
C1634 H1628 0.949 . S
C1634 C1638 1.368 . S
C1635 C1616 1.429 . S
C1635 C1629 1.429 . S
C1635 C1636 1.523 . S
C1636 C1617 1.368 . S
C1636 C1630 1.368 . S
C1636 C1635 1.523 . S
C1637 C1621 1.429 . S
C1637 C1633 1.429 . S
C1637 C1638 1.523 . S
C1638 C1622 1.368 . S
C1638 C1634 1.368 . S
C1638 C1637 1.523 . S
H1639 C1614 0.950 . S
H1640 C1616 0.950 . S
H1641 C1617 0.949 . S
H1642 C1619 0.950 . S
H1643 C1621 0.950 . S
C1644 C1645 1.349 . S
C1644 C1646 1.327 . S
C1644 H1669 0.950 . S
C1645 C1644 1.349 . S
C1645 C1661 1.349 . S
C1646 C1644 1.327 . S
C1646 C1665 1.429 . S
C1646 H1670 0.950 . S
C1647 C1664 1.574 . S
C1647 C1666 1.368 . S
C1647 H1671 0.949 . S
H1648 C1652 0.949 . S
C1649 C1650 1.349 . S
C1649 C1651 1.327 . S
C1649 H1672 0.950 . S
C1650 C1649 1.349 . S
C1650 C1662 1.349 . S
C1651 C1649 1.327 . S
C1651 C1667 1.429 . S
C1651 H1673 0.950 . S
C1652 H1648 0.949 . S
C1652 C1660 1.574 . S
C1652 C1668 1.368 . S
H1653 C1661 0.950 . S
H1654 C1659 0.950 . S
H1655 C1660 0.949 . S
H1656 C1662 0.950 . S
H1657 C1663 0.950 . S
H1658 C1664 0.949 . S
C1659 H1654 0.950 . S
C1659 C1661 1.327 . S
C1659 C1665 1.429 . S
C1660 C1652 1.574 . S
C1660 H1655 0.949 . S
C1660 C1666 1.368 . S
C1661 C1645 1.349 . S
C1661 H1653 0.950 . S
C1661 C1659 1.327 . S
C1662 C1650 1.349 . S
C1662 H1656 0.950 . S
C1662 C1663 1.327 . S
C1663 H1657 0.950 . S
C1663 C1662 1.327 . S
C1663 C1667 1.429 . S
C1664 C1647 1.574 . S
C1664 H1658 0.949 . S
C1664 C1668 1.368 . S
C1665 C1646 1.429 . S
C1665 C1659 1.429 . S
C1665 C1666 1.523 . S
C1666 C1647 1.368 . S
C1666 C1660 1.368 . S
C1666 C1665 1.523 . S
C1667 C1651 1.429 . S
C1667 C1663 1.429 . S
C1667 C1668 1.523 . S
C1668 C1652 1.368 . S
C1668 C1664 1.368 . S
C1668 C1667 1.523 . S
H1669 C1644 0.950 . S
H1670 C1646 0.950 . S
H1671 C1647 0.949 . S
H1672 C1649 0.950 . S
H1673 C1651 0.950 . S
C1674 C1675 1.349 . S
C1674 C1676 1.327 . S
C1674 H1699 0.950 . S
C1675 C1674 1.349 . S
C1675 C1691 1.349 . S
C1676 C1674 1.327 . S
C1676 C1695 1.429 . S
C1676 H1700 0.950 . S
C1677 C1694 1.574 . S
C1677 C1696 1.368 . S
C1677 H1701 0.949 . S
H1678 C1682 0.949 . S
C1679 C1680 1.349 . S
C1679 C1681 1.327 . S
C1679 H1702 0.950 . S
C1680 C1679 1.349 . S
C1680 C1692 1.349 . S
C1681 C1679 1.327 . S
C1681 C1697 1.429 . S
C1681 H1703 0.950 . S
C1682 H1678 0.949 . S
C1682 C1690 1.574 . S
C1682 C1698 1.368 . S
H1683 C1691 0.950 . S
H1684 C1689 0.950 . S
H1685 C1690 0.949 . S
H1686 C1692 0.950 . S
H1687 C1693 0.950 . S
H1688 C1694 0.949 . S
C1689 H1684 0.950 . S
C1689 C1691 1.327 . S
C1689 C1695 1.429 . S
C1690 C1682 1.574 . S
C1690 H1685 0.949 . S
C1690 C1696 1.368 . S
C1691 C1675 1.349 . S
C1691 H1683 0.950 . S
C1691 C1689 1.327 . S
C1692 C1680 1.349 . S
C1692 H1686 0.950 . S
C1692 C1693 1.327 . S
C1693 H1687 0.950 . S
C1693 C1692 1.327 . S
C1693 C1697 1.429 . S
C1694 C1677 1.574 . S
C1694 H1688 0.949 . S
C1694 C1698 1.368 . S
C1695 C1676 1.429 . S
C1695 C1689 1.429 . S
C1695 C1696 1.523 . S
C1696 C1677 1.368 . S
C1696 C1690 1.368 . S
C1696 C1695 1.523 . S
C1697 C1681 1.429 . S
C1697 C1693 1.429 . S
C1697 C1698 1.523 . S
C1698 C1682 1.368 . S
C1698 C1694 1.368 . S
C1698 C1697 1.523 . S
H1699 C1674 0.950 . S
H1700 C1676 0.950 . S
H1701 C1677 0.949 . S
H1702 C1679 0.950 . S
H1703 C1681 0.950 . S
C1704 C1705 1.349 . S
C1704 C1706 1.327 . S
C1704 H1729 0.950 . S
C1705 C1704 1.349 . S
C1705 C1721 1.349 . S
C1706 C1704 1.327 . S
C1706 C1725 1.429 . S
C1706 H1730 0.950 . S
C1707 C1724 1.574 . S
C1707 C1726 1.368 . S
C1707 H1731 0.949 . S
H1708 C1712 0.949 . S
C1709 C1710 1.349 . S
C1709 C1711 1.327 . S
C1709 H1732 0.950 . S
C1710 C1709 1.349 . S
C1710 C1722 1.349 . S
C1711 C1709 1.327 . S
C1711 C1727 1.429 . S
C1711 H1733 0.950 . S
C1712 H1708 0.949 . S
C1712 C1720 1.574 . S
C1712 C1728 1.368 . S
H1713 C1721 0.950 . S
H1714 C1719 0.950 . S
H1715 C1720 0.949 . S
H1716 C1722 0.950 . S
H1717 C1723 0.950 . S
H1718 C1724 0.949 . S
C1719 H1714 0.950 . S
C1719 C1721 1.327 . S
C1719 C1725 1.429 . S
C1720 C1712 1.574 . S
C1720 H1715 0.949 . S
C1720 C1726 1.368 . S
C1721 C1705 1.349 . S
C1721 H1713 0.950 . S
C1721 C1719 1.327 . S
C1722 C1710 1.349 . S
C1722 H1716 0.950 . S
C1722 C1723 1.327 . S
C1723 H1717 0.950 . S
C1723 C1722 1.327 . S
C1723 C1727 1.429 . S
C1724 C1707 1.574 . S
C1724 H1718 0.949 . S
C1724 C1728 1.368 . S
C1725 C1706 1.429 . S
C1725 C1719 1.429 . S
C1725 C1726 1.523 . S
C1726 C1707 1.368 . S
C1726 C1720 1.368 . S
C1726 C1725 1.523 . S
C1727 C1711 1.429 . S
C1727 C1723 1.429 . S
C1727 C1728 1.523 . S
C1728 C1712 1.368 . S
C1728 C1724 1.368 . S
C1728 C1727 1.523 . S
H1729 C1704 0.950 . S
H1730 C1706 0.950 . S
H1731 C1707 0.949 . S
H1732 C1709 0.950 . S
H1733 C1711 0.950 . S
C1734 C1735 1.349 . S
C1734 C1736 1.327 . S
C1734 H1759 0.950 . S
C1735 C1734 1.349 . S
C1735 C1751 1.349 . S
C1736 C1734 1.327 . S
C1736 C1755 1.429 . S
C1736 H1760 0.950 . S
C1737 C1754 1.574 . S
C1737 C1756 1.368 . S
C1737 H1761 0.949 . S
H1738 C1742 0.949 . S
C1739 C1740 1.349 . S
C1739 C1741 1.327 . S
C1739 H1762 0.950 . S
C1740 C1739 1.349 . S
C1740 C1752 1.349 . S
C1741 C1739 1.327 . S
C1741 C1757 1.429 . S
C1741 H1763 0.950 . S
C1742 H1738 0.949 . S
C1742 C1750 1.574 . S
C1742 C1758 1.368 . S
H1743 C1751 0.950 . S
H1744 C1749 0.950 . S
H1745 C1750 0.949 . S
H1746 C1752 0.950 . S
H1747 C1753 0.950 . S
H1748 C1754 0.949 . S
C1749 H1744 0.950 . S
C1749 C1751 1.327 . S
C1749 C1755 1.429 . S
C1750 C1742 1.574 . S
C1750 H1745 0.949 . S
C1750 C1756 1.368 . S
C1751 C1735 1.349 . S
C1751 H1743 0.950 . S
C1751 C1749 1.327 . S
C1752 C1740 1.349 . S
C1752 H1746 0.950 . S
C1752 C1753 1.327 . S
C1753 H1747 0.950 . S
C1753 C1752 1.327 . S
C1753 C1757 1.429 . S
C1754 C1737 1.574 . S
C1754 H1748 0.949 . S
C1754 C1758 1.368 . S
C1755 C1736 1.429 . S
C1755 C1749 1.429 . S
C1755 C1756 1.523 . S
C1756 C1737 1.368 . S
C1756 C1750 1.368 . S
C1756 C1755 1.523 . S
C1757 C1741 1.429 . S
C1757 C1753 1.429 . S
C1757 C1758 1.523 . S
C1758 C1742 1.368 . S
C1758 C1754 1.368 . S
C1758 C1757 1.523 . S
H1759 C1734 0.950 . S
H1760 C1736 0.950 . S
H1761 C1737 0.949 . S
H1762 C1739 0.950 . S
H1763 C1741 0.950 . S
C1764 C1765 1.349 . S
C1764 C1766 1.327 . S
C1764 H1789 0.950 . S
C1765 C1764 1.349 . S
C1765 C1781 1.349 . S
C1766 C1764 1.327 . S
C1766 C1785 1.429 . S
C1766 H1790 0.950 . S
C1767 C1784 1.574 . S
C1767 C1786 1.368 . S
C1767 H1791 0.949 . S
H1768 C1772 0.949 . S
C1769 C1770 1.349 . S
C1769 C1771 1.327 . S
C1769 H1792 0.950 . S
C1770 C1769 1.349 . S
C1770 C1782 1.349 . S
C1771 C1769 1.327 . S
C1771 C1787 1.429 . S
C1771 H1793 0.950 . S
C1772 H1768 0.949 . S
C1772 C1780 1.574 . S
C1772 C1788 1.368 . S
H1773 C1781 0.950 . S
H1774 C1779 0.950 . S
H1775 C1780 0.949 . S
H1776 C1782 0.950 . S
H1777 C1783 0.950 . S
H1778 C1784 0.949 . S
C1779 H1774 0.950 . S
C1779 C1781 1.327 . S
C1779 C1785 1.429 . S
C1780 C1772 1.574 . S
C1780 H1775 0.949 . S
C1780 C1786 1.368 . S
C1781 C1765 1.349 . S
C1781 H1773 0.950 . S
C1781 C1779 1.327 . S
C1782 C1770 1.349 . S
C1782 H1776 0.950 . S
C1782 C1783 1.327 . S
C1783 H1777 0.950 . S
C1783 C1782 1.327 . S
C1783 C1787 1.429 . S
C1784 C1767 1.574 . S
C1784 H1778 0.949 . S
C1784 C1788 1.368 . S
C1785 C1766 1.429 . S
C1785 C1779 1.429 . S
C1785 C1786 1.523 . S
C1786 C1767 1.368 . S
C1786 C1780 1.368 . S
C1786 C1785 1.523 . S
C1787 C1771 1.429 . S
C1787 C1783 1.429 . S
C1787 C1788 1.523 . S
C1788 C1772 1.368 . S
C1788 C1784 1.368 . S
C1788 C1787 1.523 . S
H1789 C1764 0.950 . S
H1790 C1766 0.950 . S
H1791 C1767 0.949 . S
H1792 C1769 0.950 . S
H1793 C1771 0.950 . S
C1794 C1795 1.349 . S
C1794 C1796 1.327 . S
C1794 H1819 0.950 . S
C1795 C1794 1.349 . S
C1795 C1811 1.349 . S
C1796 C1794 1.327 . S
C1796 C1815 1.429 . S
C1796 H1820 0.950 . S
C1797 C1814 1.574 . S
C1797 C1816 1.368 . S
C1797 H1821 0.949 . S
H1798 C1802 0.949 . S
C1799 C1800 1.349 . S
C1799 C1801 1.327 . S
C1799 H1822 0.950 . S
C1800 C1799 1.349 . S
C1800 C1812 1.349 . S
C1801 C1799 1.327 . S
C1801 C1817 1.429 . S
C1801 H1823 0.950 . S
C1802 H1798 0.949 . S
C1802 C1810 1.574 . S
C1802 C1818 1.368 . S
H1803 C1811 0.950 . S
H1804 C1809 0.950 . S
H1805 C1810 0.949 . S
H1806 C1812 0.950 . S
H1807 C1813 0.950 . S
H1808 C1814 0.949 . S
C1809 H1804 0.950 . S
C1809 C1811 1.327 . S
C1809 C1815 1.429 . S
C1810 C1802 1.574 . S
C1810 H1805 0.949 . S
C1810 C1816 1.368 . S
C1811 C1795 1.349 . S
C1811 H1803 0.950 . S
C1811 C1809 1.327 . S
C1812 C1800 1.349 . S
C1812 H1806 0.950 . S
C1812 C1813 1.327 . S
C1813 H1807 0.950 . S
C1813 C1812 1.327 . S
C1813 C1817 1.429 . S
C1814 C1797 1.574 . S
C1814 H1808 0.949 . S
C1814 C1818 1.368 . S
C1815 C1796 1.429 . S
C1815 C1809 1.429 . S
C1815 C1816 1.523 . S
C1816 C1797 1.368 . S
C1816 C1810 1.368 . S
C1816 C1815 1.523 . S
C1817 C1801 1.429 . S
C1817 C1813 1.429 . S
C1817 C1818 1.523 . S
C1818 C1802 1.368 . S
C1818 C1814 1.368 . S
C1818 C1817 1.523 . S
H1819 C1794 0.950 . S
H1820 C1796 0.950 . S
H1821 C1797 0.949 . S
H1822 C1799 0.950 . S
H1823 C1801 0.950 . S
C1824 C1825 1.349 . S
C1824 C1826 1.327 . S
C1824 H1849 0.950 . S
C1825 C1824 1.349 . S
C1825 C1841 1.349 . S
C1826 C1824 1.327 . S
C1826 C1845 1.429 . S
C1826 H1850 0.950 . S
C1827 C1844 1.574 . S
C1827 C1846 1.368 . S
C1827 H1851 0.949 . S
H1828 C1832 0.949 . S
C1829 C1830 1.349 . S
C1829 C1831 1.327 . S
C1829 H1852 0.950 . S
C1830 C1829 1.349 . S
C1830 C1842 1.349 . S
C1831 C1829 1.327 . S
C1831 C1847 1.429 . S
C1831 H1853 0.950 . S
C1832 H1828 0.949 . S
C1832 C1840 1.574 . S
C1832 C1848 1.368 . S
H1833 C1841 0.950 . S
H1834 C1839 0.950 . S
H1835 C1840 0.949 . S
H1836 C1842 0.950 . S
H1837 C1843 0.950 . S
H1838 C1844 0.949 . S
C1839 H1834 0.950 . S
C1839 C1841 1.327 . S
C1839 C1845 1.429 . S
C1840 C1832 1.574 . S
C1840 H1835 0.949 . S
C1840 C1846 1.368 . S
C1841 C1825 1.349 . S
C1841 H1833 0.950 . S
C1841 C1839 1.327 . S
C1842 C1830 1.349 . S
C1842 H1836 0.950 . S
C1842 C1843 1.327 . S
C1843 H1837 0.950 . S
C1843 C1842 1.327 . S
C1843 C1847 1.429 . S
C1844 C1827 1.574 . S
C1844 H1838 0.949 . S
C1844 C1848 1.368 . S
C1845 C1826 1.429 . S
C1845 C1839 1.429 . S
C1845 C1846 1.523 . S
C1846 C1827 1.368 . S
C1846 C1840 1.368 . S
C1846 C1845 1.523 . S
C1847 C1831 1.429 . S
C1847 C1843 1.429 . S
C1847 C1848 1.523 . S
C1848 C1832 1.368 . S
C1848 C1844 1.368 . S
C1848 C1847 1.523 . S
H1849 C1824 0.950 . S
H1850 C1826 0.950 . S
H1851 C1827 0.949 . S
H1852 C1829 0.950 . S
H1853 C1831 0.950 . S
C1854 C1855 1.349 . S
C1854 C1856 1.327 . S
C1854 H1879 0.950 . S
C1855 C1854 1.349 . S
C1855 C1871 1.349 . S
C1856 C1854 1.327 . S
C1856 C1875 1.429 . S
C1856 H1880 0.950 . S
C1857 C1874 1.574 . S
C1857 C1876 1.368 . S
C1857 H1881 0.949 . S
H1858 C1862 0.949 . S
C1859 C1860 1.349 . S
C1859 C1861 1.327 . S
C1859 H1882 0.950 . S
C1860 C1859 1.349 . S
C1860 C1872 1.349 . S
C1861 C1859 1.327 . S
C1861 C1877 1.429 . S
C1861 H1883 0.950 . S
C1862 H1858 0.949 . S
C1862 C1870 1.574 . S
C1862 C1878 1.368 . S
H1863 C1871 0.950 . S
H1864 C1869 0.950 . S
H1865 C1870 0.949 . S
H1866 C1872 0.950 . S
H1867 C1873 0.950 . S
H1868 C1874 0.949 . S
C1869 H1864 0.950 . S
C1869 C1871 1.327 . S
C1869 C1875 1.429 . S
C1870 C1862 1.574 . S
C1870 H1865 0.949 . S
C1870 C1876 1.368 . S
C1871 C1855 1.349 . S
C1871 H1863 0.950 . S
C1871 C1869 1.327 . S
C1872 C1860 1.349 . S
C1872 H1866 0.950 . S
C1872 C1873 1.327 . S
C1873 H1867 0.950 . S
C1873 C1872 1.327 . S
C1873 C1877 1.429 . S
C1874 C1857 1.574 . S
C1874 H1868 0.949 . S
C1874 C1878 1.368 . S
C1875 C1856 1.429 . S
C1875 C1869 1.429 . S
C1875 C1876 1.523 . S
C1876 C1857 1.368 . S
C1876 C1870 1.368 . S
C1876 C1875 1.523 . S
C1877 C1861 1.429 . S
C1877 C1873 1.429 . S
C1877 C1878 1.523 . S
C1878 C1862 1.368 . S
C1878 C1874 1.368 . S
C1878 C1877 1.523 . S
H1879 C1854 0.950 . S
H1880 C1856 0.950 . S
H1881 C1857 0.949 . S
H1882 C1859 0.950 . S
H1883 C1861 0.950 . S
C1884 C1885 1.349 . S
C1884 C1886 1.327 . S
C1884 H1909 0.950 . S
C1885 C1884 1.349 . S
C1885 C1901 1.349 . S
C1886 C1884 1.327 . S
C1886 C1905 1.429 . S
C1886 H1910 0.950 . S
C1887 C1904 1.574 . S
C1887 C1906 1.368 . S
C1887 H1911 0.949 . S
H1888 C1892 0.949 . S
C1889 C1890 1.349 . S
C1889 C1891 1.327 . S
C1889 H1912 0.950 . S
C1890 C1889 1.349 . S
C1890 C1902 1.349 . S
C1891 C1889 1.327 . S
C1891 C1907 1.429 . S
C1891 H1913 0.950 . S
C1892 H1888 0.949 . S
C1892 C1900 1.574 . S
C1892 C1908 1.368 . S
H1893 C1901 0.950 . S
H1894 C1899 0.950 . S
H1895 C1900 0.949 . S
H1896 C1902 0.950 . S
H1897 C1903 0.950 . S
H1898 C1904 0.949 . S
C1899 H1894 0.950 . S
C1899 C1901 1.327 . S
C1899 C1905 1.429 . S
C1900 C1892 1.574 . S
C1900 H1895 0.949 . S
C1900 C1906 1.368 . S
C1901 C1885 1.349 . S
C1901 H1893 0.950 . S
C1901 C1899 1.327 . S
C1902 C1890 1.349 . S
C1902 H1896 0.950 . S
C1902 C1903 1.327 . S
C1903 H1897 0.950 . S
C1903 C1902 1.327 . S
C1903 C1907 1.429 . S
C1904 C1887 1.574 . S
C1904 H1898 0.949 . S
C1904 C1908 1.368 . S
C1905 C1886 1.429 . S
C1905 C1899 1.429 . S
C1905 C1906 1.523 . S
C1906 C1887 1.368 . S
C1906 C1900 1.368 . S
C1906 C1905 1.523 . S
C1907 C1891 1.429 . S
C1907 C1903 1.429 . S
C1907 C1908 1.523 . S
C1908 C1892 1.368 . S
C1908 C1904 1.368 . S
C1908 C1907 1.523 . S
H1909 C1884 0.950 . S
H1910 C1886 0.950 . S
H1911 C1887 0.949 . S
H1912 C1889 0.950 . S
H1913 C1891 0.950 . S
C1914 C1915 1.349 . S
C1914 C1916 1.327 . S
C1914 H1939 0.950 . S
C1915 C1914 1.349 . S
C1915 C1931 1.349 . S
C1916 C1914 1.327 . S
C1916 C1935 1.429 . S
C1916 H1940 0.950 . S
C1917 C1934 1.574 . S
C1917 C1936 1.368 . S
C1917 H1941 0.949 . S
H1918 C1922 0.949 . S
C1919 C1920 1.349 . S
C1919 C1921 1.327 . S
C1919 H1942 0.950 . S
C1920 C1919 1.349 . S
C1920 C1932 1.349 . S
C1921 C1919 1.327 . S
C1921 C1937 1.429 . S
C1921 H1943 0.950 . S
C1922 H1918 0.949 . S
C1922 C1930 1.574 . S
C1922 C1938 1.368 . S
H1923 C1931 0.950 . S
H1924 C1929 0.950 . S
H1925 C1930 0.949 . S
H1926 C1932 0.950 . S
H1927 C1933 0.950 . S
H1928 C1934 0.949 . S
C1929 H1924 0.950 . S
C1929 C1931 1.327 . S
C1929 C1935 1.429 . S
C1930 C1922 1.574 . S
C1930 H1925 0.949 . S
C1930 C1936 1.368 . S
C1931 C1915 1.349 . S
C1931 H1923 0.950 . S
C1931 C1929 1.327 . S
C1932 C1920 1.349 . S
C1932 H1926 0.950 . S
C1932 C1933 1.327 . S
C1933 H1927 0.950 . S
C1933 C1932 1.327 . S
C1933 C1937 1.429 . S
C1934 C1917 1.574 . S
C1934 H1928 0.949 . S
C1934 C1938 1.368 . S
C1935 C1916 1.429 . S
C1935 C1929 1.429 . S
C1935 C1936 1.523 . S
C1936 C1917 1.368 . S
C1936 C1930 1.368 . S
C1936 C1935 1.523 . S
C1937 C1921 1.429 . S
C1937 C1933 1.429 . S
C1937 C1938 1.523 . S
C1938 C1922 1.368 . S
C1938 C1934 1.368 . S
C1938 C1937 1.523 . S
H1939 C1914 0.950 . S
H1940 C1916 0.950 . S
H1941 C1917 0.949 . S
H1942 C1919 0.950 . S
H1943 C1921 0.950 . S
C1944 C1945 1.349 . S
C1944 C1946 1.327 . S
C1944 H1969 0.950 . S
C1945 C1944 1.349 . S
C1945 C1961 1.349 . S
C1946 C1944 1.327 . S
C1946 C1965 1.429 . S
C1946 H1970 0.950 . S
C1947 C1964 1.574 . S
C1947 C1966 1.368 . S
C1947 H1971 0.949 . S
H1948 C1952 0.949 . S
C1949 C1950 1.349 1_556 S
C1949 C1951 1.327 . S
C1949 H1972 0.950 . S
C1950 C1949 1.349 1_554 S
C1950 C1962 1.349 . S
C1951 C1949 1.327 . S
C1951 C1967 1.429 . S
C1951 H1973 0.950 . S
C1952 H1948 0.949 . S
C1952 C1960 1.574 . S
C1952 C1968 1.368 . S
H1953 C1961 0.950 . S
H1954 C1959 0.950 . S
H1955 C1960 0.949 . S
H1956 C1962 0.950 . S
H1957 C1963 0.950 . S
H1958 C1964 0.949 . S
C1959 H1954 0.950 . S
C1959 C1961 1.327 . S
C1959 C1965 1.429 . S
C1960 C1952 1.574 . S
C1960 H1955 0.949 . S
C1960 C1966 1.368 . S
C1961 C1945 1.349 . S
C1961 H1953 0.950 . S
C1961 C1959 1.327 . S
C1962 C1950 1.349 . S
C1962 H1956 0.950 . S
C1962 C1963 1.327 1_554 S
C1963 H1957 0.950 . S
C1963 C1962 1.327 1_556 S
C1963 C1967 1.429 . S
C1964 C1947 1.574 . S
C1964 H1958 0.949 . S
C1964 C1968 1.368 . S
C1965 C1946 1.429 . S
C1965 C1959 1.429 . S
C1965 C1966 1.523 . S
C1966 C1947 1.368 . S
C1966 C1960 1.368 . S
C1966 C1965 1.523 . S
C1967 C1951 1.429 . S
C1967 C1963 1.429 . S
C1967 C1968 1.523 . S
C1968 C1952 1.368 . S
C1968 C1964 1.368 . S
C1968 C1967 1.523 . S
H1969 C1944 0.950 . S
H1970 C1946 0.950 . S
H1971 C1947 0.949 . S
H1972 C1949 0.950 . S
H1973 C1951 0.950 . S
C1974 C1975 1.349 1_556 S
C1974 C1976 1.327 . S
C1974 H1999 0.950 . S
C1975 C1974 1.349 1_554 S
C1975 C1991 1.349 . S
C1976 C1974 1.327 . S
C1976 C1995 1.429 . S
C1976 H2000 0.950 . S
C1977 C1994 1.574 . S
C1977 C1996 1.368 . S
C1977 H2001 0.949 . S
H1978 C1982 0.949 . S
C1979 C1980 1.349 . S
C1979 C1981 1.327 . S
C1979 H2002 0.950 . S
C1980 C1979 1.349 . S
C1980 C1992 1.349 . S
C1981 C1979 1.327 . S
C1981 C1997 1.429 . S
C1981 H2003 0.950 . S
C1982 H1978 0.949 . S
C1982 C1990 1.574 . S
C1982 C1998 1.368 . S
H1983 C1991 0.950 . S
H1984 C1989 0.950 . S
H1985 C1990 0.949 . S
H1986 C1992 0.950 . S
H1987 C1993 0.950 . S
H1988 C1994 0.949 . S
C1989 H1984 0.950 . S
C1989 C1991 1.327 1_556 S
C1989 C1995 1.429 . S
C1990 C1982 1.574 . S
C1990 H1985 0.949 . S
C1990 C1996 1.368 . S
C1991 C1975 1.349 . S
C1991 H1983 0.950 . S
C1991 C1989 1.327 1_554 S
C1992 C1980 1.349 . S
C1992 H1986 0.950 . S
C1992 C1993 1.327 . S
C1993 H1987 0.950 . S
C1993 C1992 1.327 . S
C1993 C1997 1.429 . S
C1994 C1977 1.574 . S
C1994 H1988 0.949 . S
C1994 C1998 1.368 . S
C1995 C1976 1.429 . S
C1995 C1989 1.429 . S
C1995 C1996 1.523 . S
C1996 C1977 1.368 . S
C1996 C1990 1.368 . S
C1996 C1995 1.523 . S
C1997 C1981 1.429 . S
C1997 C1993 1.429 . S
C1997 C1998 1.523 . S
C1998 C1982 1.368 . S
C1998 C1994 1.368 . S
C1998 C1997 1.523 . S
H1999 C1974 0.950 . S
H2000 C1976 0.950 . S
H2001 C1977 0.949 . S
H2002 C1979 0.950 . S
H2003 C1981 0.950 . S
C2004 C2005 1.349 . S
C2004 C2006 1.327 . S
C2004 H2029 0.950 . S
C2005 C2004 1.349 . S
C2005 C2021 1.349 . S
C2006 C2004 1.327 . S
C2006 C2025 1.429 . S
C2006 H2030 0.950 . S
C2007 C2024 1.574 . S
C2007 C2026 1.368 . S
C2007 H2031 0.949 . S
H2008 C2012 0.949 . S
C2009 C2010 1.349 . S
C2009 C2011 1.327 1_554 S
C2009 H2032 0.950 . S
C2010 C2009 1.349 . S
C2010 C2022 1.349 1_554 S
C2011 C2009 1.327 1_556 S
C2011 C2027 1.429 . S
C2011 H2033 0.950 . S
C2012 H2008 0.949 . S
C2012 C2020 1.574 . S
C2012 C2028 1.368 . S
H2013 C2021 0.950 . S
H2014 C2019 0.950 . S
H2015 C2020 0.949 . S
H2016 C2022 0.950 . S
H2017 C2023 0.950 . S
H2018 C2024 0.949 . S
C2019 H2014 0.950 . S
C2019 C2021 1.327 . S
C2019 C2025 1.429 . S
C2020 C2012 1.574 . S
C2020 H2015 0.949 . S
C2020 C2026 1.368 . S
C2021 C2005 1.349 . S
C2021 H2013 0.950 . S
C2021 C2019 1.327 . S
C2022 C2010 1.349 1_556 S
C2022 H2016 0.950 . S
C2022 C2023 1.327 . S
C2023 H2017 0.950 . S
C2023 C2022 1.327 . S
C2023 C2027 1.429 . S
C2024 C2007 1.574 . S
C2024 H2018 0.949 . S
C2024 C2028 1.368 . S
C2025 C2006 1.429 . S
C2025 C2019 1.429 . S
C2025 C2026 1.523 . S
C2026 C2007 1.368 . S
C2026 C2020 1.368 . S
C2026 C2025 1.523 . S
C2027 C2011 1.429 . S
C2027 C2023 1.429 . S
C2027 C2028 1.523 . S
C2028 C2012 1.368 . S
C2028 C2024 1.368 . S
C2028 C2027 1.523 . S
H2029 C2004 0.950 . S
H2030 C2006 0.950 . S
H2031 C2007 0.949 . S
H2032 C2009 0.950 . S
H2033 C2011 0.950 . S
C2034 C2035 1.349 . S
C2034 C2036 1.327 . S
C2034 H2059 0.950 . S
C2035 C2034 1.349 . S
C2035 C2051 1.349 . S
C2036 C2034 1.327 . S
C2036 C2055 1.429 . S
C2036 H2060 0.950 . S
C2037 C2054 1.574 . S
C2037 C2056 1.368 . S
C2037 H2061 0.949 . S
H2038 C2042 0.949 . S
C2039 C2040 1.349 . S
C2039 C2041 1.327 . S
C2039 H2062 0.950 . S
C2040 C2039 1.349 . S
C2040 C2052 1.349 . S
C2041 C2039 1.327 . S
C2041 C2057 1.429 . S
C2041 H2063 0.950 . S
C2042 H2038 0.949 . S
C2042 C2050 1.574 1_554 S
C2042 C2058 1.368 . S
H2043 C2051 0.950 . S
H2044 C2049 0.950 . S
H2045 C2050 0.949 . S
H2046 C2052 0.950 . S
H2047 C2053 0.950 . S
H2048 C2054 0.949 . S
C2049 H2044 0.950 . S
C2049 C2051 1.327 . S
C2049 C2055 1.429 . S
C2050 C2042 1.574 1_556 S
C2050 H2045 0.949 . S
C2050 C2056 1.368 . S
C2051 C2035 1.349 . S
C2051 H2043 0.950 . S
C2051 C2049 1.327 . S
C2052 C2040 1.349 . S
C2052 H2046 0.950 . S
C2052 C2053 1.327 . S
C2053 H2047 0.950 . S
C2053 C2052 1.327 . S
C2053 C2057 1.429 . S
C2054 C2037 1.574 . S
C2054 H2048 0.949 . S
C2054 C2058 1.368 1_556 S
C2055 C2036 1.429 . S
C2055 C2049 1.429 . S
C2055 C2056 1.523 . S
C2056 C2037 1.368 . S
C2056 C2050 1.368 . S
C2056 C2055 1.523 . S
C2057 C2041 1.429 . S
C2057 C2053 1.429 . S
C2057 C2058 1.523 . S
C2058 C2042 1.368 . S
C2058 C2054 1.368 1_554 S
C2058 C2057 1.523 . S
H2059 C2034 0.950 . S
H2060 C2036 0.950 . S
H2061 C2037 0.949 . S
H2062 C2039 0.950 . S
H2063 C2041 0.950 . S
C2064 C2065 1.349 . S
C2064 C2066 1.327 . S
C2064 H2089 0.950 . S
C2065 C2064 1.349 . S
C2065 C2081 1.349 . S
C2066 C2064 1.327 . S
C2066 C2085 1.429 . S
C2066 H2090 0.950 . S
C2067 C2084 1.574 . S
C2067 C2086 1.368 . S
C2067 H2091 0.949 . S
H2068 C2072 0.949 . S
C2069 C2070 1.349 . S
C2069 C2071 1.327 . S
C2069 H2092 0.950 . S
C2070 C2069 1.349 . S
C2070 C2082 1.349 . S
C2071 C2069 1.327 . S
C2071 C2087 1.429 . S
C2071 H2093 0.950 . S
C2072 H2068 0.949 . S
C2072 C2080 1.574 1_554 S
C2072 C2088 1.368 . S
H2073 C2081 0.950 . S
H2074 C2079 0.950 . S
H2075 C2080 0.949 . S
H2076 C2082 0.950 . S
H2077 C2083 0.950 . S
H2078 C2084 0.949 . S
C2079 H2074 0.950 . S
C2079 C2081 1.327 . S
C2079 C2085 1.429 . S
C2080 C2072 1.574 1_556 S
C2080 H2075 0.949 . S
C2080 C2086 1.368 . S
C2081 C2065 1.349 . S
C2081 H2073 0.950 . S
C2081 C2079 1.327 . S
C2082 C2070 1.349 . S
C2082 H2076 0.950 . S
C2082 C2083 1.327 . S
C2083 H2077 0.950 . S
C2083 C2082 1.327 . S
C2083 C2087 1.429 . S
C2084 C2067 1.574 . S
C2084 H2078 0.949 . S
C2084 C2088 1.368 1_556 S
C2085 C2066 1.429 . S
C2085 C2079 1.429 . S
C2085 C2086 1.523 . S
C2086 C2067 1.368 . S
C2086 C2080 1.368 . S
C2086 C2085 1.523 . S
C2087 C2071 1.429 . S
C2087 C2083 1.429 . S
C2087 C2088 1.523 . S
C2088 C2072 1.368 . S
C2088 C2084 1.368 1_554 S
C2088 C2087 1.523 . S
H2089 C2064 0.950 . S
H2090 C2066 0.950 . S
H2091 C2067 0.949 . S
H2092 C2069 0.950 . S
H2093 C2071 0.950 . S
C2094 C2095 1.349 . S
C2094 C2096 1.327 . S
C2094 H2119 0.950 . S
C2095 C2094 1.349 . S
C2095 C2111 1.349 . S
C2096 C2094 1.327 . S
C2096 C2115 1.429 . S
C2096 H2120 0.950 . S
C2097 C2114 1.574 . S
C2097 C2116 1.368 . S
C2097 H2121 0.949 . S
H2098 C2102 0.949 1_554 S
C2099 C2100 1.349 . S
C2099 C2101 1.327 . S
C2099 H2122 0.950 . S
C2100 C2099 1.349 . S
C2100 C2112 1.349 . S
C2101 C2099 1.327 . S
C2101 C2117 1.429 . S
C2101 H2123 0.950 . S
C2102 H2098 0.949 1_556 S
C2102 C2110 1.574 . S
C2102 C2118 1.368 1_556 S
H2103 C2111 0.950 . S
H2104 C2109 0.950 . S
H2105 C2110 0.949 . S
H2106 C2112 0.950 . S
H2107 C2113 0.950 . S
H2108 C2114 0.949 . S
C2109 H2104 0.950 . S
C2109 C2111 1.327 . S
C2109 C2115 1.429 . S
C2110 C2102 1.574 . S
C2110 H2105 0.949 . S
C2110 C2116 1.368 . S
C2111 C2095 1.349 . S
C2111 H2103 0.950 . S
C2111 C2109 1.327 . S
C2112 C2100 1.349 . S
C2112 H2106 0.950 . S
C2112 C2113 1.327 . S
C2113 H2107 0.950 . S
C2113 C2112 1.327 . S
C2113 C2117 1.429 . S
C2114 C2097 1.574 . S
C2114 H2108 0.949 . S
C2114 C2118 1.368 1_556 S
C2115 C2096 1.429 . S
C2115 C2109 1.429 . S
C2115 C2116 1.523 . S
C2116 C2097 1.368 . S
C2116 C2110 1.368 . S
C2116 C2115 1.523 . S
C2117 C2101 1.429 . S
C2117 C2113 1.429 . S
C2117 C2118 1.523 . S
C2118 C2102 1.368 1_554 S
C2118 C2114 1.368 1_554 S
C2118 C2117 1.523 . S
H2119 C2094 0.950 . S
H2120 C2096 0.950 . S
H2121 C2097 0.949 . S
H2122 C2099 0.950 . S
H2123 C2101 0.950 . S
C2124 C2125 1.349 . S
C2124 C2126 1.327 . S
C2124 H2149 0.950 . S
C2125 C2124 1.349 . S
C2125 C2141 1.349 . S
C2126 C2124 1.327 . S
C2126 C2145 1.429 . S
C2126 H2150 0.950 . S
C2127 C2144 1.574 . S
C2127 C2146 1.368 . S
C2127 H2151 0.949 . S
H2128 C2132 0.949 . S
C2129 C2130 1.350 . S
C2129 C2131 1.321 1_554 S
C2129 H2152 0.955 . S
C2130 C2129 1.350 . S
C2130 C2142 1.349 1_554 S
C2131 C2129 1.321 1_556 S
C2131 C2147 1.429 . S
C2131 H2153 0.950 . S
C2132 H2128 0.949 . S
C2132 C2140 1.574 . S
C2132 C2148 1.368 . S
H2133 C2141 0.950 . S
H2134 C2139 0.950 . S
H2135 C2140 0.949 . S
H2136 C2142 0.950 . S
H2137 C2143 0.950 . S
H2138 C2144 0.949 . S
C2139 H2134 0.950 . S
C2139 C2141 1.327 . S
C2139 C2145 1.429 . S
C2140 C2132 1.574 . S
C2140 H2135 0.949 . S
C2140 C2146 1.368 . S
C2141 C2125 1.349 . S
C2141 H2133 0.950 . S
C2141 C2139 1.327 . S
C2142 C2130 1.349 1_556 S
C2142 H2136 0.950 . S
C2142 C2143 1.327 . S
C2143 H2137 0.950 . S
C2143 C2142 1.327 . S
C2143 C2147 1.429 . S
C2144 C2127 1.574 . S
C2144 H2138 0.949 . S
C2144 C2148 1.368 . S
C2145 C2126 1.429 . S
C2145 C2139 1.429 . S
C2145 C2146 1.523 . S
C2146 C2127 1.368 . S
C2146 C2140 1.368 . S
C2146 C2145 1.523 . S
C2147 C2131 1.429 . S
C2147 C2143 1.429 . S
C2147 C2148 1.523 . S
C2148 C2132 1.368 . S
C2148 C2144 1.368 . S
C2148 C2147 1.523 . S
H2149 C2124 0.950 . S
H2150 C2126 0.950 . S
H2151 C2127 0.949 . S
H2152 C2129 0.955 . S
H2153 C2131 0.950 . S
C2154 C2155 1.349 . S
C2154 C2156 1.327 1_554 S
C2154 H2179 0.950 . S
C2155 C2154 1.349 . S
C2155 C2171 1.349 1_554 S
C2156 C2154 1.327 1_556 S
C2156 C2175 1.429 . S
C2156 H2180 0.950 . S
C2157 C2174 1.574 . S
C2157 C2176 1.368 . S
C2157 H2181 0.949 . S
H2158 C2162 0.949 . S
C2159 C2160 1.349 . S
C2159 C2161 1.327 . S
C2159 H2182 0.950 . S
C2160 C2159 1.349 . S
C2160 C2172 1.349 . S
C2161 C2159 1.327 . S
C2161 C2177 1.429 . S
C2161 H2183 0.950 . S
C2162 H2158 0.949 . S
C2162 C2170 1.574 . S
C2162 C2178 1.368 . S
H2163 C2171 0.950 . S
H2164 C2169 0.950 . S
H2165 C2170 0.949 . S
H2166 C2172 0.950 . S
H2167 C2173 0.950 . S
H2168 C2174 0.949 . S
C2169 H2164 0.950 . S
C2169 C2171 1.327 . S
C2169 C2175 1.429 . S
C2170 C2162 1.574 . S
C2170 H2165 0.949 . S
C2170 C2176 1.368 . S
C2171 C2155 1.349 1_556 S
C2171 H2163 0.950 . S
C2171 C2169 1.327 . S
C2172 C2160 1.349 . S
C2172 H2166 0.950 . S
C2172 C2173 1.327 . S
C2173 H2167 0.950 . S
C2173 C2172 1.327 . S
C2173 C2177 1.429 . S
C2174 C2157 1.574 . S
C2174 H2168 0.949 . S
C2174 C2178 1.368 . S
C2175 C2156 1.429 . S
C2175 C2169 1.429 . S
C2175 C2176 1.523 . S
C2176 C2157 1.368 . S
C2176 C2170 1.368 . S
C2176 C2175 1.523 . S
C2177 C2161 1.429 . S
C2177 C2173 1.429 . S
C2177 C2178 1.523 . S
C2178 C2162 1.368 . S
C2178 C2174 1.368 . S
C2178 C2177 1.523 . S
H2179 C2154 0.950 . S
H2180 C2156 0.950 . S
H2181 C2157 0.949 . S
H2182 C2159 0.950 . S
H2183 C2161 0.950 . S
C2184 C2185 1.349 . S
C2184 C2186 1.327 . S
C2184 H2209 0.950 . S
C2185 C2184 1.349 . S
C2185 C2201 1.349 . S
C2186 C2184 1.327 . S
C2186 C2205 1.429 . S
C2186 H2210 0.950 . S
C2187 C2204 1.574 . S
C2187 C2206 1.368 . S
C2187 H2211 0.949 . S
H2188 C2192 0.949 . S
C2189 C2190 1.349 . S
C2189 C2191 1.327 . S
C2189 H2212 0.950 . S
C2190 C2189 1.349 . S
C2190 C2202 1.349 1_554 S
C2191 C2189 1.327 . S
C2191 C2207 1.429 1_554 S
C2191 H2213 0.950 . S
C2192 H2188 0.949 . S
C2192 C2200 1.574 . S
C2192 C2208 1.368 . S
H2193 C2201 0.950 . S
H2194 C2199 0.950 . S
H2195 C2200 0.949 . S
H2196 C2202 0.950 . S
H2197 C2203 0.950 . S
H2198 C2204 0.949 . S
C2199 H2194 0.950 . S
C2199 C2201 1.327 . S
C2199 C2205 1.429 . S
C2200 C2192 1.574 . S
C2200 H2195 0.949 . S
C2200 C2206 1.368 . S
C2201 C2185 1.349 . S
C2201 H2193 0.950 . S
C2201 C2199 1.327 . S
C2202 C2190 1.349 1_556 S
C2202 H2196 0.950 . S
C2202 C2203 1.327 . S
C2203 H2197 0.950 . S
C2203 C2202 1.327 . S
C2203 C2207 1.429 . S
C2204 C2187 1.574 . S
C2204 H2198 0.949 . S
C2204 C2208 1.368 . S
C2205 C2186 1.429 . S
C2205 C2199 1.429 . S
C2205 C2206 1.523 . S
C2206 C2187 1.368 . S
C2206 C2200 1.368 . S
C2206 C2205 1.523 . S
C2207 C2191 1.429 1_556 S
C2207 C2203 1.429 . S
C2207 C2208 1.523 . S
C2208 C2192 1.368 . S
C2208 C2204 1.368 . S
C2208 C2207 1.523 . S
H2209 C2184 0.950 . S
H2210 C2186 0.950 . S
H2211 C2187 0.949 . S
H2212 C2189 0.950 . S
H2213 C2191 0.950 . S
C2214 C2215 1.349 . S
C2214 C2216 1.327 . S
C2214 H2239 0.950 . S
C2215 C2214 1.349 . S
C2215 C2231 1.349 . S
C2216 C2214 1.327 . S
C2216 C2235 1.429 . S
C2216 H2240 0.950 . S
C2217 C2234 1.574 . S
C2217 C2236 1.368 . S
C2217 H2241 0.949 . S
H2218 C2222 0.949 . S
C2219 C2220 1.349 . S
C2219 C2221 1.327 . S
C2219 H2242 0.950 . S
C2220 C2219 1.349 . S
C2220 C2232 1.349 . S
C2221 C2219 1.327 . S
C2221 C2237 1.429 . S
C2221 H2243 0.950 . S
C2222 H2218 0.949 . S
C2222 C2230 1.574 . S
C2222 C2238 1.368 . S
H2223 C2231 0.950 . S
H2224 C2229 0.950 . S
H2225 C2230 0.949 . S
H2226 C2232 0.950 . S
H2227 C2233 0.950 . S
H2228 C2234 0.949 . S
C2229 H2224 0.950 . S
C2229 C2231 1.327 . S
C2229 C2235 1.429 . S
C2230 C2222 1.574 . S
C2230 H2225 0.949 . S
C2230 C2236 1.368 . S
C2231 C2215 1.349 . S
C2231 H2223 0.950 . S
C2231 C2229 1.327 . S
C2232 C2220 1.349 . S
C2232 H2226 0.950 . S
C2232 C2233 1.327 . S
C2233 H2227 0.950 . S
C2233 C2232 1.327 . S
C2233 C2237 1.429 . S
C2234 C2217 1.574 . S
C2234 H2228 0.949 . S
C2234 C2238 1.368 . S
C2235 C2216 1.429 . S
C2235 C2229 1.429 . S
C2235 C2236 1.523 . S
C2236 C2217 1.368 . S
C2236 C2230 1.368 . S
C2236 C2235 1.523 . S
C2237 C2221 1.429 . S
C2237 C2233 1.429 . S
C2237 C2238 1.523 . S
C2238 C2222 1.368 . S
C2238 C2234 1.368 . S
C2238 C2237 1.523 . S
H2239 C2214 0.950 . S
H2240 C2216 0.950 . S
H2241 C2217 0.949 . S
H2242 C2219 0.950 . S
H2243 C2221 0.950 . S
C2244 C2245 1.349 . S
C2244 C2246 1.327 . S
C2244 H2269 0.950 . S
C2245 C2244 1.349 . S
C2245 C2261 1.349 . S
C2246 C2244 1.327 . S
C2246 C2265 1.429 . S
C2246 H2270 0.950 . S
C2247 C2264 1.574 . S
C2247 C2266 1.368 . S
C2247 H2271 0.949 . S
H2248 C2252 0.949 . S
C2249 C2250 1.349 . S
C2249 C2251 1.327 . S
C2249 H2272 0.950 . S
C2250 C2249 1.349 . S
C2250 C2262 1.349 . S
C2251 C2249 1.327 . S
C2251 C2267 1.429 . S
C2251 H2273 0.950 . S
C2252 H2248 0.949 . S
C2252 C2260 1.574 . S
C2252 C2268 1.368 . S
H2253 C2261 0.950 . S
H2254 C2259 0.950 . S
H2255 C2260 0.949 . S
H2256 C2262 0.950 . S
H2257 C2263 0.950 . S
H2258 C2264 0.949 . S
C2259 H2254 0.950 . S
C2259 C2261 1.327 . S
C2259 C2265 1.429 . S
C2260 C2252 1.574 . S
C2260 H2255 0.949 . S
C2260 C2266 1.368 . S
C2261 C2245 1.349 . S
C2261 H2253 0.950 . S
C2261 C2259 1.327 . S
C2262 C2250 1.349 . S
C2262 H2256 0.950 . S
C2262 C2263 1.327 . S
C2263 H2257 0.950 . S
C2263 C2262 1.327 . S
C2263 C2267 1.429 . S
C2264 C2247 1.574 . S
C2264 H2258 0.949 . S
C2264 C2268 1.368 . S
C2265 C2246 1.429 . S
C2265 C2259 1.429 . S
C2265 C2266 1.523 . S
C2266 C2247 1.368 . S
C2266 C2260 1.368 . S
C2266 C2265 1.523 . S
C2267 C2251 1.429 . S
C2267 C2263 1.429 . S
C2267 C2268 1.523 . S
C2268 C2252 1.368 . S
C2268 C2264 1.368 . S
C2268 C2267 1.523 . S
H2269 C2244 0.950 . S
H2270 C2246 0.950 . S
H2271 C2247 0.949 . S
H2272 C2249 0.950 . S
H2273 C2251 0.950 . S
C2274 C2275 1.349 . S
C2274 C2276 1.327 . S
C2274 H2299 0.950 . S
C2275 C2274 1.349 . S
C2275 C2291 1.349 . S
C2276 C2274 1.327 . S
C2276 C2295 1.429 . S
C2276 H2300 0.950 . S
C2277 C2294 1.574 . S
C2277 C2296 1.368 . S
C2277 H2301 0.949 . S
H2278 C2282 0.949 . S
C2279 C2280 1.349 . S
C2279 C2281 1.327 . S
C2279 H2302 0.950 . S
C2280 C2279 1.349 . S
C2280 C2292 1.349 . S
C2281 C2279 1.327 . S
C2281 C2297 1.429 . S
C2281 H2303 0.950 . S
C2282 H2278 0.949 . S
C2282 C2290 1.574 . S
C2282 C2298 1.368 . S
H2283 C2291 0.950 . S
H2284 C2289 0.950 . S
H2285 C2290 0.949 . S
H2286 C2292 0.950 . S
H2287 C2293 0.950 . S
H2288 C2294 0.949 . S
C2289 H2284 0.950 . S
C2289 C2291 1.327 . S
C2289 C2295 1.429 . S
C2290 C2282 1.574 . S
C2290 H2285 0.949 . S
C2290 C2296 1.368 . S
C2291 C2275 1.349 . S
C2291 H2283 0.950 . S
C2291 C2289 1.327 . S
C2292 C2280 1.349 . S
C2292 H2286 0.950 . S
C2292 C2293 1.327 . S
C2293 H2287 0.950 . S
C2293 C2292 1.327 . S
C2293 C2297 1.429 . S
C2294 C2277 1.574 . S
C2294 H2288 0.949 . S
C2294 C2298 1.368 . S
C2295 C2276 1.429 . S
C2295 C2289 1.429 . S
C2295 C2296 1.523 . S
C2296 C2277 1.368 . S
C2296 C2290 1.368 . S
C2296 C2295 1.523 . S
C2297 C2281 1.429 . S
C2297 C2293 1.429 . S
C2297 C2298 1.523 . S
C2298 C2282 1.368 . S
C2298 C2294 1.368 . S
C2298 C2297 1.523 . S
H2299 C2274 0.950 . S
H2300 C2276 0.950 . S
H2301 C2277 0.949 . S
H2302 C2279 0.950 . S
H2303 C2281 0.950 . S
C2304 C2305 1.349 1_554 S
C2304 C2306 1.327 . S
C2304 H2329 0.950 . S
C2305 C2304 1.349 1_556 S
C2305 C2321 1.349 . S
C2306 C2304 1.327 . S
C2306 C2325 1.429 . S
C2306 H2330 0.950 . S
C2307 C2324 1.574 . S
C2307 C2326 1.368 . S
C2307 H2331 0.949 . S
H2308 C2312 0.949 . S
C2309 C2310 1.349 . S
C2309 C2311 1.327 . S
C2309 H2332 0.950 . S
C2310 C2309 1.349 . S
C2310 C2322 1.349 . S
C2311 C2309 1.327 . S
C2311 C2327 1.429 . S
C2311 H2333 0.950 . S
C2312 H2308 0.949 . S
C2312 C2320 1.574 . S
C2312 C2328 1.368 . S
H2313 C2321 0.950 . S
H2314 C2319 0.950 . S
H2315 C2320 0.949 . S
H2316 C2322 0.950 . S
H2317 C2323 0.950 . S
H2318 C2324 0.949 . S
C2319 H2314 0.950 . S
C2319 C2321 1.327 1_554 S
C2319 C2325 1.429 . S
C2320 C2312 1.574 . S
C2320 H2315 0.949 . S
C2320 C2326 1.368 . S
C2321 C2305 1.349 . S
C2321 H2313 0.950 . S
C2321 C2319 1.327 1_556 S
C2322 C2310 1.349 . S
C2322 H2316 0.950 . S
C2322 C2323 1.327 . S
C2323 H2317 0.950 . S
C2323 C2322 1.327 . S
C2323 C2327 1.429 . S
C2324 C2307 1.574 . S
C2324 H2318 0.949 . S
C2324 C2328 1.368 . S
C2325 C2306 1.429 . S
C2325 C2319 1.429 . S
C2325 C2326 1.523 . S
C2326 C2307 1.368 . S
C2326 C2320 1.368 . S
C2326 C2325 1.523 . S
C2327 C2311 1.429 . S
C2327 C2323 1.429 . S
C2327 C2328 1.523 . S
C2328 C2312 1.368 . S
C2328 C2324 1.368 . S
C2328 C2327 1.523 . S
H2329 C2304 0.950 . S
H2330 C2306 0.950 . S
H2331 C2307 0.949 . S
H2332 C2309 0.950 . S
H2333 C2311 0.950 . S
C2334 C2335 1.349 . S
C2334 C2336 1.327 . S
C2334 H2359 0.950 . S
C2335 C2334 1.349 . S
C2335 C2351 1.349 . S
C2336 C2334 1.327 . S
C2336 C2355 1.429 . S
C2336 H2360 0.950 . S
C2337 C2354 1.574 . S
C2337 C2356 1.368 . S
C2337 H2361 0.949 . S
H2338 C2342 0.949 . S
C2339 C2340 1.349 1_554 S
C2339 C2341 1.327 . S
C2339 H2362 0.950 . S
C2340 C2339 1.349 1_556 S
C2340 C2352 1.349 . S
C2341 C2339 1.327 . S
C2341 C2357 1.429 . S
C2341 H2363 0.950 . S
C2342 H2338 0.949 . S
C2342 C2350 1.574 . S
C2342 C2358 1.368 . S
H2343 C2351 0.950 . S
H2344 C2349 0.950 . S
H2345 C2350 0.949 . S
H2346 C2352 0.950 . S
H2347 C2353 0.950 . S
H2348 C2354 0.949 . S
C2349 H2344 0.950 . S
C2349 C2351 1.327 . S
C2349 C2355 1.429 . S
C2350 C2342 1.574 . S
C2350 H2345 0.949 . S
C2350 C2356 1.368 . S
C2351 C2335 1.349 . S
C2351 H2343 0.950 . S
C2351 C2349 1.327 . S
C2352 C2340 1.349 . S
C2352 H2346 0.950 . S
C2352 C2353 1.327 1_556 S
C2353 H2347 0.950 . S
C2353 C2352 1.327 1_554 S
C2353 C2357 1.429 . S
C2354 C2337 1.574 . S
C2354 H2348 0.949 . S
C2354 C2358 1.368 . S
C2355 C2336 1.429 . S
C2355 C2349 1.429 . S
C2355 C2356 1.523 . S
C2356 C2337 1.368 . S
C2356 C2350 1.368 . S
C2356 C2355 1.523 . S
C2357 C2341 1.429 . S
C2357 C2353 1.429 . S
C2357 C2358 1.523 . S
C2358 C2342 1.368 . S
C2358 C2354 1.368 . S
C2358 C2357 1.523 . S
H2359 C2334 0.950 . S
H2360 C2336 0.950 . S
H2361 C2337 0.949 . S
H2362 C2339 0.950 . S
H2363 C2341 0.950 . S
C2364 C2365 1.349 . S
C2364 C2366 1.327 . S
C2364 H2389 0.950 . S
C2365 C2364 1.349 . S
C2365 C2381 1.349 . S
C2366 C2364 1.327 . S
C2366 C2385 1.429 . S
C2366 H2390 0.950 . S
C2367 C2384 1.574 . S
C2367 C2386 1.368 . S
C2367 H2391 0.949 . S
H2368 C2372 0.949 . S
C2369 C2370 1.349 1_554 S
C2369 C2371 1.327 . S
C2369 H2392 0.950 . S
C2370 C2369 1.349 1_556 S
C2370 C2382 1.349 . S
C2371 C2369 1.327 . S
C2371 C2387 1.429 . S
C2371 H2393 0.950 . S
C2372 H2368 0.949 . S
C2372 C2380 1.574 . S
C2372 C2388 1.368 . S
H2373 C2381 0.950 . S
H2374 C2379 0.950 . S
H2375 C2380 0.949 . S
H2376 C2382 0.950 . S
H2377 C2383 0.950 . S
H2378 C2384 0.949 . S
C2379 H2374 0.950 . S
C2379 C2381 1.327 . S
C2379 C2385 1.429 . S
C2380 C2372 1.574 . S
C2380 H2375 0.949 . S
C2380 C2386 1.368 . S
C2381 C2365 1.349 . S
C2381 H2373 0.950 . S
C2381 C2379 1.327 . S
C2382 C2370 1.349 . S
C2382 H2376 0.950 . S
C2382 C2383 1.327 . S
C2383 H2377 0.950 . S
C2383 C2382 1.327 . S
C2383 C2387 1.429 1_556 S
C2384 C2367 1.574 . S
C2384 H2378 0.949 . S
C2384 C2388 1.368 . S
C2385 C2366 1.429 . S
C2385 C2379 1.429 . S
C2385 C2386 1.523 . S
C2386 C2367 1.368 . S
C2386 C2380 1.368 . S
C2386 C2385 1.523 . S
C2387 C2371 1.429 . S
C2387 C2383 1.429 1_554 S
C2387 C2388 1.523 . S
C2388 C2372 1.368 . S
C2388 C2384 1.368 . S
C2388 C2387 1.523 . S
H2389 C2364 0.950 . S
H2390 C2366 0.950 . S
H2391 C2367 0.949 . S
H2392 C2369 0.950 . S
H2393 C2371 0.950 . S
C2394 C2395 1.349 . S
C2394 C2396 1.327 . S
C2394 H2419 0.950 . S
C2395 C2394 1.349 . S
C2395 C2411 1.349 . S
C2396 C2394 1.327 . S
C2396 C2415 1.429 . S
C2396 H2420 0.950 . S
C2397 C2414 1.574 . S
C2397 C2416 1.368 . S
C2397 H2421 0.949 . S
H2398 C2402 0.949 . S
C2399 C2400 1.349 . S
C2399 C2401 1.327 . S
C2399 H2422 0.950 . S
C2400 C2399 1.349 . S
C2400 C2412 1.349 . S
C2401 C2399 1.327 . S
C2401 C2417 1.429 . S
C2401 H2423 0.950 . S
C2402 H2398 0.949 . S
C2402 C2410 1.574 . S
C2402 C2418 1.368 . S
H2403 C2411 0.950 . S
H2404 C2409 0.950 . S
H2405 C2410 0.949 . S
H2406 C2412 0.950 . S
H2407 C2413 0.950 . S
H2408 C2414 0.949 . S
C2409 H2404 0.950 . S
C2409 C2411 1.327 . S
C2409 C2415 1.429 . S
C2410 C2402 1.574 . S
C2410 H2405 0.949 . S
C2410 C2416 1.368 . S
C2411 C2395 1.349 . S
C2411 H2403 0.950 . S
C2411 C2409 1.327 . S
C2412 C2400 1.349 . S
C2412 H2406 0.950 . S
C2412 C2413 1.327 . S
C2413 H2407 0.950 . S
C2413 C2412 1.327 . S
C2413 C2417 1.429 . S
C2414 C2397 1.574 . S
C2414 H2408 0.949 . S
C2414 C2418 1.368 . S
C2415 C2396 1.429 . S
C2415 C2409 1.429 . S
C2415 C2416 1.523 . S
C2416 C2397 1.368 . S
C2416 C2410 1.368 . S
C2416 C2415 1.523 . S
C2417 C2401 1.429 . S
C2417 C2413 1.429 . S
C2417 C2418 1.523 . S
C2418 C2402 1.368 . S
C2418 C2414 1.368 . S
C2418 C2417 1.523 . S
H2419 C2394 0.950 . S
H2420 C2396 0.950 . S
H2421 C2397 0.949 . S
H2422 C2399 0.950 . S
H2423 C2401 0.950 . S
C2424 C2425 1.349 . S
C2424 C2426 1.327 . S
C2424 H2449 0.950 . S
C2425 C2424 1.349 . S
C2425 C2441 1.349 . S
C2426 C2424 1.327 . S
C2426 C2445 1.429 . S
C2426 H2450 0.950 . S
C2427 C2444 1.574 . S
C2427 C2446 1.368 . S
C2427 H2451 0.949 . S
H2428 C2432 0.949 . S
C2429 C2430 1.349 . S
C2429 C2431 1.327 . S
C2429 H2452 0.950 . S
C2430 C2429 1.349 . S
C2430 C2442 1.349 . S
C2431 C2429 1.327 . S
C2431 C2447 1.429 . S
C2431 H2453 0.950 . S
C2432 H2428 0.949 . S
C2432 C2440 1.574 . S
C2432 C2448 1.368 . S
H2433 C2441 0.950 . S
H2434 C2439 0.950 . S
H2435 C2440 0.949 . S
H2436 C2442 0.950 . S
H2437 C2443 0.950 . S
H2438 C2444 0.949 . S
C2439 H2434 0.950 . S
C2439 C2441 1.327 . S
C2439 C2445 1.429 . S
C2440 C2432 1.574 . S
C2440 H2435 0.949 . S
C2440 C2446 1.368 . S
C2441 C2425 1.349 . S
C2441 H2433 0.950 . S
C2441 C2439 1.327 . S
C2442 C2430 1.349 . S
C2442 H2436 0.950 . S
C2442 C2443 1.327 . S
C2443 H2437 0.950 . S
C2443 C2442 1.327 . S
C2443 C2447 1.429 . S
C2444 C2427 1.574 . S
C2444 H2438 0.949 . S
C2444 C2448 1.368 . S
C2445 C2426 1.429 . S
C2445 C2439 1.429 . S
C2445 C2446 1.523 . S
C2446 C2427 1.368 . S
C2446 C2440 1.368 . S
C2446 C2445 1.523 . S
C2447 C2431 1.429 . S
C2447 C2443 1.429 . S
C2447 C2448 1.523 . S
C2448 C2432 1.368 . S
C2448 C2444 1.368 . S
C2448 C2447 1.523 . S
H2449 C2424 0.950 . S
H2450 C2426 0.950 . S
H2451 C2427 0.949 . S
H2452 C2429 0.950 . S
H2453 C2431 0.950 . S
C2454 C2455 1.349 . S
C2454 C2456 1.327 . S
C2454 H2479 0.950 . S
C2455 C2454 1.349 . S
C2455 C2471 1.349 . S
C2456 C2454 1.327 . S
C2456 C2475 1.429 . S
C2456 H2480 0.950 . S
C2457 C2474 1.574 . S
C2457 C2476 1.368 . S
C2457 H2481 0.949 . S
H2458 C2462 0.949 . S
C2459 C2460 1.349 . S
C2459 C2461 1.327 . S
C2459 H2482 0.950 . S
C2460 C2459 1.349 . S
C2460 C2472 1.349 . S
C2461 C2459 1.327 . S
C2461 C2477 1.429 . S
C2461 H2483 0.950 . S
C2462 H2458 0.949 . S
C2462 C2470 1.574 . S
C2462 C2478 1.368 . S
H2463 C2471 0.950 . S
H2464 C2469 0.950 . S
H2465 C2470 0.949 . S
H2466 C2472 0.950 . S
H2467 C2473 0.950 . S
H2468 C2474 0.949 . S
C2469 H2464 0.950 . S
C2469 C2471 1.327 . S
C2469 C2475 1.429 . S
C2470 C2462 1.574 . S
C2470 H2465 0.949 . S
C2470 C2476 1.368 . S
C2471 C2455 1.349 . S
C2471 H2463 0.950 . S
C2471 C2469 1.327 . S
C2472 C2460 1.349 . S
C2472 H2466 0.950 . S
C2472 C2473 1.327 . S
C2473 H2467 0.950 . S
C2473 C2472 1.327 . S
C2473 C2477 1.429 . S
C2474 C2457 1.574 . S
C2474 H2468 0.949 . S
C2474 C2478 1.368 . S
C2475 C2456 1.429 . S
C2475 C2469 1.429 . S
C2475 C2476 1.523 . S
C2476 C2457 1.368 . S
C2476 C2470 1.368 . S
C2476 C2475 1.523 . S
C2477 C2461 1.429 . S
C2477 C2473 1.429 . S
C2477 C2478 1.523 . S
C2478 C2462 1.368 . S
C2478 C2474 1.368 . S
C2478 C2477 1.523 . S
H2479 C2454 0.950 . S
H2480 C2456 0.950 . S
H2481 C2457 0.949 . S
H2482 C2459 0.950 . S
H2483 C2461 0.950 . S
C2484 C2485 1.349 . S
C2484 C2486 1.327 . S
C2484 H2509 0.950 . S
C2485 C2484 1.349 . S
C2485 C2501 1.349 . S
C2486 C2484 1.327 . S
C2486 C2505 1.429 . S
C2486 H2510 0.950 . S
C2487 C2504 1.574 1_655 S
C2487 C2506 1.368 . S
C2487 H2511 0.949 . S
H2488 C2492 0.949 . S
C2489 C2490 1.349 . S
C2489 C2491 1.327 . S
C2489 H2512 0.950 . S
C2490 C2489 1.349 . S
C2490 C2502 1.349 . S
C2491 C2489 1.327 . S
C2491 C2507 1.429 . S
C2491 H2513 0.950 . S
C2492 H2488 0.949 . S
C2492 C2500 1.574 1_455 S
C2492 C2508 1.368 . S
H2493 C2501 0.950 . S
H2494 C2499 0.950 . S
H2495 C2500 0.949 . S
H2496 C2502 0.950 . S
H2497 C2503 0.950 . S
H2498 C2504 0.949 . S
C2499 H2494 0.950 . S
C2499 C2501 1.327 . S
C2499 C2505 1.429 . S
C2500 C2492 1.574 1_655 S
C2500 H2495 0.949 . S
C2500 C2506 1.368 . S
C2501 C2485 1.349 . S
C2501 H2493 0.950 . S
C2501 C2499 1.327 . S
C2502 C2490 1.349 . S
C2502 H2496 0.950 . S
C2502 C2503 1.327 . S
C2503 H2497 0.950 . S
C2503 C2502 1.327 . S
C2503 C2507 1.429 . S
C2504 C2487 1.574 1_455 S
C2504 H2498 0.949 . S
C2504 C2508 1.368 . S
C2505 C2486 1.429 . S
C2505 C2499 1.429 . S
C2505 C2506 1.523 . S
C2506 C2487 1.368 . S
C2506 C2500 1.368 . S
C2506 C2505 1.523 . S
C2507 C2491 1.429 . S
C2507 C2503 1.429 . S
C2507 C2508 1.523 . S
C2508 C2492 1.368 . S
C2508 C2504 1.368 . S
C2508 C2507 1.523 . S
H2509 C2484 0.950 . S
H2510 C2486 0.950 . S
H2511 C2487 0.949 . S
H2512 C2489 0.950 . S
H2513 C2491 0.950 . S
C2514 C2515 1.349 . S
C2514 C2516 1.327 . S
C2514 H2539 0.950 . S
C2515 C2514 1.349 . S
C2515 C2531 1.349 . S
C2516 C2514 1.327 . S
C2516 C2535 1.429 . S
C2516 H2540 0.950 . S
C2517 C2534 1.574 . S
C2517 C2536 1.368 . S
C2517 H2541 0.949 . S
H2518 C2522 0.949 . S
C2519 C2520 1.349 . S
C2519 C2521 1.327 . S
C2519 H2542 0.950 . S
C2520 C2519 1.349 . S
C2520 C2532 1.349 . S
C2521 C2519 1.327 . S
C2521 C2537 1.429 . S
C2521 H2543 0.950 . S
C2522 H2518 0.949 . S
C2522 C2530 1.574 . S
C2522 C2538 1.368 . S
H2523 C2531 0.950 . S
H2524 C2529 0.950 . S
H2525 C2530 0.949 . S
H2526 C2532 0.950 . S
H2527 C2533 0.950 . S
H2528 C2534 0.949 . S
C2529 H2524 0.950 . S
C2529 C2531 1.327 . S
C2529 C2535 1.429 . S
C2530 C2522 1.574 . S
C2530 H2525 0.949 . S
C2530 C2536 1.368 . S
C2531 C2515 1.349 . S
C2531 H2523 0.950 . S
C2531 C2529 1.327 . S
C2532 C2520 1.349 . S
C2532 H2526 0.950 . S
C2532 C2533 1.327 . S
C2533 H2527 0.950 . S
C2533 C2532 1.327 . S
C2533 C2537 1.429 . S
C2534 C2517 1.574 . S
C2534 H2528 0.949 . S
C2534 C2538 1.368 . S
C2535 C2516 1.429 . S
C2535 C2529 1.429 . S
C2535 C2536 1.523 . S
C2536 C2517 1.368 . S
C2536 C2530 1.368 . S
C2536 C2535 1.523 . S
C2537 C2521 1.429 . S
C2537 C2533 1.429 . S
C2537 C2538 1.523 . S
C2538 C2522 1.368 . S
C2538 C2534 1.368 . S
C2538 C2537 1.523 . S
H2539 C2514 0.950 . S
H2540 C2516 0.950 . S
H2541 C2517 0.949 . S
H2542 C2519 0.950 . S
H2543 C2521 0.950 . S
C2544 C2545 1.349 . S
C2544 C2546 1.327 . S
C2544 H2569 0.950 . S
C2545 C2544 1.349 . S
C2545 C2561 1.349 . S
C2546 C2544 1.327 . S
C2546 C2565 1.429 . S
C2546 H2570 0.950 . S
C2547 C2564 1.574 1_565 S
C2547 C2566 1.368 . S
C2547 H2571 0.949 . S
H2548 C2552 0.949 . S
C2549 C2550 1.349 . S
C2549 C2551 1.327 . S
C2549 H2572 0.950 . S
C2550 C2549 1.349 . S
C2550 C2562 1.349 . S
C2551 C2549 1.327 . S
C2551 C2567 1.429 . S
C2551 H2573 0.950 . S
C2552 H2548 0.949 . S
C2552 C2560 1.574 1_545 S
C2552 C2568 1.368 . S
H2553 C2561 0.950 . S
H2554 C2559 0.950 . S
H2555 C2560 0.949 . S
H2556 C2562 0.950 . S
H2557 C2563 0.950 . S
H2558 C2564 0.949 . S
C2559 H2554 0.950 . S
C2559 C2561 1.327 . S
C2559 C2565 1.429 . S
C2560 C2552 1.574 1_565 S
C2560 H2555 0.949 . S
C2560 C2566 1.368 . S
C2561 C2545 1.349 . S
C2561 H2553 0.950 . S
C2561 C2559 1.327 . S
C2562 C2550 1.349 . S
C2562 H2556 0.950 . S
C2562 C2563 1.327 . S
C2563 H2557 0.950 . S
C2563 C2562 1.327 . S
C2563 C2567 1.429 . S
C2564 C2547 1.574 1_545 S
C2564 H2558 0.949 . S
C2564 C2568 1.368 . S
C2565 C2546 1.429 . S
C2565 C2559 1.429 . S
C2565 C2566 1.523 . S
C2566 C2547 1.368 . S
C2566 C2560 1.368 . S
C2566 C2565 1.523 . S
C2567 C2551 1.429 . S
C2567 C2563 1.429 . S
C2567 C2568 1.523 . S
C2568 C2552 1.368 . S
C2568 C2564 1.368 . S
C2568 C2567 1.523 . S
H2569 C2544 0.950 . S
H2570 C2546 0.950 . S
H2571 C2547 0.949 . S
H2572 C2549 0.950 . S
H2573 C2551 0.950 . S
C2574 C2575 1.349 . S
C2574 C2576 1.327 . S
C2574 H2599 0.950 . S
C2575 C2574 1.349 . S
C2575 C2591 1.349 . S
C2576 C2574 1.327 . S
C2576 C2595 1.429 . S
C2576 H2600 0.950 . S
C2577 C2594 1.574 1_545 S
C2577 C2596 1.368 . S
C2577 H2601 0.949 . S
H2578 C2582 0.949 . S
C2579 C2580 1.349 . S
C2579 C2581 1.327 . S
C2579 H2602 0.950 . S
C2580 C2579 1.349 . S
C2580 C2592 1.349 . S
C2581 C2579 1.327 . S
C2581 C2597 1.429 . S
C2581 H2603 0.950 . S
C2582 H2578 0.949 . S
C2582 C2590 1.574 1_565 S
C2582 C2598 1.368 . S
H2583 C2591 0.950 . S
H2584 C2589 0.950 . S
H2585 C2590 0.949 . S
H2586 C2592 0.950 . S
H2587 C2593 0.950 . S
H2588 C2594 0.949 . S
C2589 H2584 0.950 . S
C2589 C2591 1.327 . S
C2589 C2595 1.429 . S
C2590 C2582 1.574 1_545 S
C2590 H2585 0.949 . S
C2590 C2596 1.368 . S
C2591 C2575 1.349 . S
C2591 H2583 0.950 . S
C2591 C2589 1.327 . S
C2592 C2580 1.349 . S
C2592 H2586 0.950 . S
C2592 C2593 1.327 . S
C2593 H2587 0.950 . S
C2593 C2592 1.327 . S
C2593 C2597 1.429 . S
C2594 C2577 1.574 1_565 S
C2594 H2588 0.949 . S
C2594 C2598 1.368 . S
C2595 C2576 1.429 . S
C2595 C2589 1.429 . S
C2595 C2596 1.523 . S
C2596 C2577 1.368 . S
C2596 C2590 1.368 . S
C2596 C2595 1.523 . S
C2597 C2581 1.429 . S
C2597 C2593 1.429 . S
C2597 C2598 1.523 . S
C2598 C2582 1.368 . S
C2598 C2594 1.368 . S
C2598 C2597 1.523 . S
H2599 C2574 0.950 . S
H2600 C2576 0.950 . S
H2601 C2577 0.949 . S
H2602 C2579 0.950 . S
H2603 C2581 0.950 . S
C2604 C2605 1.349 . S
C2604 C2606 1.327 . S
C2604 H2629 0.950 . S
C2605 C2604 1.349 . S
C2605 C2621 1.349 . S
C2606 C2604 1.327 . S
C2606 C2625 1.429 . S
C2606 H2630 0.950 . S
C2607 C2624 1.574 1_455 S
C2607 C2626 1.368 . S
C2607 H2631 0.949 . S
H2608 C2612 0.949 . S
C2609 C2610 1.349 . S
C2609 C2611 1.327 . S
C2609 H2632 0.950 . S
C2610 C2609 1.349 . S
C2610 C2622 1.349 . S
C2611 C2609 1.327 . S
C2611 C2627 1.429 . S
C2611 H2633 0.950 . S
C2612 H2608 0.949 . S
C2612 C2620 1.574 1_655 S
C2612 C2628 1.368 . S
H2613 C2621 0.950 . S
H2614 C2619 0.950 . S
H2615 C2620 0.949 . S
H2616 C2622 0.950 . S
H2617 C2623 0.950 . S
H2618 C2624 0.949 . S
C2619 H2614 0.950 . S
C2619 C2621 1.327 . S
C2619 C2625 1.429 . S
C2620 C2612 1.574 1_455 S
C2620 H2615 0.949 . S
C2620 C2626 1.368 . S
C2621 C2605 1.349 . S
C2621 H2613 0.950 . S
C2621 C2619 1.327 . S
C2622 C2610 1.349 . S
C2622 H2616 0.950 . S
C2622 C2623 1.327 . S
C2623 H2617 0.950 . S
C2623 C2622 1.327 . S
C2623 C2627 1.429 . S
C2624 C2607 1.574 1_655 S
C2624 H2618 0.949 . S
C2624 C2628 1.368 . S
C2625 C2606 1.429 . S
C2625 C2619 1.429 . S
C2625 C2626 1.523 . S
C2626 C2607 1.368 . S
C2626 C2620 1.368 . S
C2626 C2625 1.523 . S
C2627 C2611 1.429 . S
C2627 C2623 1.429 . S
C2627 C2628 1.523 . S
C2628 C2612 1.368 . S
C2628 C2624 1.368 . S
C2628 C2627 1.523 . S
H2629 C2604 0.950 . S
H2630 C2606 0.950 . S
H2631 C2607 0.949 . S
H2632 C2609 0.950 . S
H2633 C2611 0.950 . S
C2634 C2635 1.349 . S
C2634 C2636 1.327 . S
C2634 H2659 0.950 . S
C2635 C2634 1.349 . S
C2635 C2651 1.349 . S
C2636 C2634 1.327 . S
C2636 C2655 1.429 . S
C2636 H2660 0.950 . S
C2637 C2654 1.574 . S
C2637 C2656 1.368 . S
C2637 H2661 0.949 . S
H2638 C2642 0.949 . S
C2639 C2640 1.349 . S
C2639 C2641 1.327 . S
C2639 H2662 0.950 . S
C2640 C2639 1.349 . S
C2640 C2652 1.349 . S
C2641 C2639 1.327 . S
C2641 C2657 1.429 . S
C2641 H2663 0.950 . S
C2642 H2638 0.949 . S
C2642 C2650 1.574 . S
C2642 C2658 1.368 . S
H2643 C2651 0.950 . S
H2644 C2649 0.950 . S
H2645 C2650 0.949 . S
H2646 C2652 0.950 . S
H2647 C2653 0.950 . S
H2648 C2654 0.949 . S
C2649 H2644 0.950 . S
C2649 C2651 1.327 . S
C2649 C2655 1.429 . S
C2650 C2642 1.574 . S
C2650 H2645 0.949 . S
C2650 C2656 1.368 . S
C2651 C2635 1.349 . S
C2651 H2643 0.950 . S
C2651 C2649 1.327 . S
C2652 C2640 1.349 . S
C2652 H2646 0.950 . S
C2652 C2653 1.327 . S
C2653 H2647 0.950 . S
C2653 C2652 1.327 . S
C2653 C2657 1.429 . S
C2654 C2637 1.574 . S
C2654 H2648 0.949 . S
C2654 C2658 1.368 . S
C2655 C2636 1.429 . S
C2655 C2649 1.429 . S
C2655 C2656 1.523 . S
C2656 C2637 1.368 . S
C2656 C2650 1.368 . S
C2656 C2655 1.523 . S
C2657 C2641 1.429 . S
C2657 C2653 1.429 . S
C2657 C2658 1.523 . S
C2658 C2642 1.368 . S
C2658 C2654 1.368 . S
C2658 C2657 1.523 . S
H2659 C2634 0.950 . S
H2660 C2636 0.950 . S
H2661 C2637 0.949 . S
H2662 C2639 0.950 . S
H2663 C2641 0.950 . S
C505 C78 1.064 . S
C510 C8 1.064 . S
C535 C22 1.063 . S
C540 C50 1.063 . S
C565 C64 1.063 . S
C570 C36 1.063 . S
C595 C92 1.064 . S
C600 C162 1.064 . S
C625 C106 1.063 . S
C630 C134 1.063 . S
C655 C148 1.063 . S
C660 C120 1.063 . S
C685 C246 1.064 . S
C690 C176 1.064 . S
C715 C190 1.065 . S
C720 C218 1.065 . S
C745 C232 1.064 . S
C750 C204 1.064 . S
C775 C260 1.064 . S
C780 C330 1.064 . S
C805 C274 1.063 . S
C810 C302 1.063 . S
C835 C288 1.064 . S
C840 C316 1.064 . S
C865 C344 1.064 . S
C870 C414 1.064 . S
C895 C386 1.063 . S
C900 C358 1.063 . S
C925 C372 1.064 . S
C930 C400 1.064 . S
C955 C428 1.063 . S
C960 C498 1.063 . S
C985 C442 1.064 . S
C990 C470 1.064 . S
C1015 C456 1.064 . S
C1020 C484 1.064 . S
C1045 C147 1.188 . S
C1050 C9 1.177 . S
C1075 C161 1.189 . S
C1080 C23 1.178 . S
C1105 C133 1.189 . S
C1110 C37 1.178 . S
C1135 C119 1.189 . S
C1140 C51 1.178 . S
C1165 C65 1.177 . S
C1170 C91 1.188 . S
C1195 C79 1.177 . S
C1200 C105 1.188 . S
C1225 C93 1.176 . S
C1230 C63 1.188 . S
C1255 C107 1.178 . S
C1260 C77 1.189 . S
C1285 C121 1.178 . S
C1290 C49 1.189 . S
C1315 C35 1.189 . S
C1320 C135 1.178 . S
C1345 C7 1.188 . S
C1350 C149 1.177 . S
C1375 C163 1.177 . S
C1380 C21 1.188 . S
C1405 C177 1.177 . S
C1410 C315 1.188 . S
C1435 C191 1.178 . S
C1440 C329 1.189 . S
C1465 C301 1.189 . S
C1470 C205 1.177 . S
C1495 C219 1.177 . S
C1500 C287 1.189 . S
C1525 C233 1.178 . S
C1530 C259 1.190 . S
C1555 C247 1.177 . S
C1560 C273 1.188 . S
C1585 C261 1.177 . S
C1590 C231 1.189 . S
C1615 C245 1.189 . S
C1620 C275 1.177 . S
C1645 C217 1.189 . S
C1650 C289 1.177 . S
C1675 C303 1.176 . S
C1680 C203 1.188 . S
C1705 C175 1.189 . S
C1710 C317 1.178 . S
C1735 C189 1.189 . S
C1740 C331 1.177 . S
C1765 C483 1.188 . S
C1770 C345 1.177 . S
C1795 C359 1.177 . S
C1800 C497 1.189 . S
C1825 C373 1.178 . S
C1830 C469 1.189 . S
C1855 C455 1.188 . S
C1860 C387 1.177 . S
C1885 C427 1.190 . S
C1890 C401 1.178 . S
C1915 C441 1.189 . S
C1920 C415 1.177 . S
C1945 C429 1.177 . S
C1950 C399 1.189 . S
C1975 C413 1.189 . S
C1980 C443 1.178 . S
C2005 C457 1.177 . S
C2010 C385 1.189 . S
C2035 C371 1.189 . S
C2040 C471 1.178 . S
C2065 C343 1.189 . S
C2070 C485 1.178 . S
C2095 C357 1.188 . S
C2100 C499 1.177 . S
C2125 C227 1.283 . S
C2130 C3 1.282 . S
C2155 C17 1.283 . S
C2160 C241 1.283 . S
C2185 C213 1.283 . S
C2190 C31 1.283 . S
C2215 C367 1.283 . S
C2220 C45 1.283 . S
C2245 C59 1.282 . S
C2250 C339 1.282 . S
C2275 C73 1.282 . S
C2280 C353 1.282 . S
C2305 C87 1.282 . S
C2310 C479 1.282 . S
C2335 C493 1.283 . S
C2340 C101 1.283 . S
C2365 C465 1.283 . S
C2370 C115 1.283 . S
C2395 C283 1.282 . S
C2400 C129 1.282 . S
C2425 C143 1.282 . S
C2430 C255 1.282 . S
C2455 C157 1.282 . S
C2460 C269 1.282 . S
C2485 C171 1.283 . S
C2490 C395 1.283 . S
C2515 C409 1.283 . S
C2520 C185 1.283 . S
C2545 C381 1.282 . S
C2550 C199 1.282 . S
C2575 C297 1.282 . S
C2580 C451 1.282 . S
C2605 C423 1.282 . S
C2610 C311 1.282 . S
C2635 C437 1.283 . S
C2640 C325 1.283 . S
