# Generated by pormake.
# Topology atn, (4)-cn, num edge types: 1
# Building blocks:
#     Node 0, Type 0, BuildingBlock: AZAVOO_clean_sbu_0, # of connection points: 4
#     Node 1, Type 0, BuildingBlock: AZAVOO_clean_sbu_0, # of connection points: 4
#     Node 2, Type 0, BuildingBlock: AZAVOO_clean_sbu_0, # of connection points: 4
#     Node 3, Type 0, BuildingBlock: AZAVOO_clean_sbu_0, # of connection points: 4
#     Node 4, Type 0, BuildingBlock: AZAVOO_clean_sbu_0, # of connection points: 4
#     Node 5, Type 0, BuildingBlock: AZAVOO_clean_sbu_0, # of connection points: 4
#     Node 6, Type 0, BuildingBlock: AZAVOO_clean_sbu_0, # of connection points: 4
#     Node 7, Type 0, BuildingBlock: AZAVOO_clean_sbu_0, # of connection points: 4
#     Node 8, Type 0, BuildingBlock: AZAVOO_clean_sbu_0, # of connection points: 4
#     Node 9, Type 0, BuildingBlock: AZAVOO_clean_sbu_0, # of connection points: 4
#     Node 10, Type 0, BuildingBlock: AZAVOO_clean_sbu_0, # of connection points: 4
#     Node 11, Type 0, BuildingBlock: AZAVOO_clean_sbu_0, # of connection points: 4
#     Node 12, Type 0, BuildingBlock: AZAVOO_clean_sbu_0, # of connection points: 4
#     Node 13, Type 0, BuildingBlock: AZAVOO_clean_sbu_0, # of connection points: 4
#     Node 14, Type 0, BuildingBlock: AZAVOO_clean_sbu_0, # of connection points: 4
#     Node 15, Type 0, BuildingBlock: AZAVOO_clean_sbu_0, # of connection points: 4
#     Edge 16, Type (0, 0), BuildingBlock: KIFKEQ_clean_linker_1, # of connection points: 2
#     Edge 17, Type (0, 0), BuildingBlock: KIFKEQ_clean_linker_1, # of connection points: 2
#     Edge 18, Type (0, 0), BuildingBlock: KIFKEQ_clean_linker_1, # of connection points: 2
#     Edge 19, Type (0, 0), BuildingBlock: KIFKEQ_clean_linker_1, # of connection points: 2
#     Edge 20, Type (0, 0), BuildingBlock: KIFKEQ_clean_linker_1, # of connection points: 2
#     Edge 21, Type (0, 0), BuildingBlock: KIFKEQ_clean_linker_1, # of connection points: 2
#     Edge 22, Type (0, 0), BuildingBlock: KIFKEQ_clean_linker_1, # of connection points: 2
#     Edge 23, Type (0, 0), BuildingBlock: KIFKEQ_clean_linker_1, # of connection points: 2
#     Edge 24, Type (0, 0), BuildingBlock: KIFKEQ_clean_linker_1, # of connection points: 2
#     Edge 25, Type (0, 0), BuildingBlock: KIFKEQ_clean_linker_1, # of connection points: 2
#     Edge 26, Type (0, 0), BuildingBlock: KIFKEQ_clean_linker_1, # of connection points: 2
#     Edge 27, Type (0, 0), BuildingBlock: KIFKEQ_clean_linker_1, # of connection points: 2
#     Edge 28, Type (0, 0), BuildingBlock: KIFKEQ_clean_linker_1, # of connection points: 2
#     Edge 29, Type (0, 0), BuildingBlock: KIFKEQ_clean_linker_1, # of connection points: 2
#     Edge 30, Type (0, 0), BuildingBlock: KIFKEQ_clean_linker_1, # of connection points: 2
#     Edge 31, Type (0, 0), BuildingBlock: KIFKEQ_clean_linker_1, # of connection points: 2
#     Edge 32, Type (0, 0), BuildingBlock: KIFKEQ_clean_linker_1, # of connection points: 2
#     Edge 33, Type (0, 0), BuildingBlock: KIFKEQ_clean_linker_1, # of connection points: 2
#     Edge 34, Type (0, 0), BuildingBlock: KIFKEQ_clean_linker_1, # of connection points: 2
#     Edge 35, Type (0, 0), BuildingBlock: KIFKEQ_clean_linker_1, # of connection points: 2
#     Edge 36, Type (0, 0), BuildingBlock: KIFKEQ_clean_linker_1, # of connection points: 2
#     Edge 37, Type (0, 0), BuildingBlock: KIFKEQ_clean_linker_1, # of connection points: 2
#     Edge 38, Type (0, 0), BuildingBlock: KIFKEQ_clean_linker_1, # of connection points: 2
#     Edge 39, Type (0, 0), BuildingBlock: KIFKEQ_clean_linker_1, # of connection points: 2
#     Edge 40, Type (0, 0), BuildingBlock: KIFKEQ_clean_linker_1, # of connection points: 2
#     Edge 41, Type (0, 0), BuildingBlock: KIFKEQ_clean_linker_1, # of connection points: 2
#     Edge 42, Type (0, 0), BuildingBlock: KIFKEQ_clean_linker_1, # of connection points: 2
#     Edge 43, Type (0, 0), BuildingBlock: KIFKEQ_clean_linker_1, # of connection points: 2
#     Edge 44, Type (0, 0), BuildingBlock: KIFKEQ_clean_linker_1, # of connection points: 2
#     Edge 45, Type (0, 0), BuildingBlock: KIFKEQ_clean_linker_1, # of connection points: 2
#     Edge 46, Type (0, 0), BuildingBlock: KIFKEQ_clean_linker_1, # of connection points: 2
#     Edge 47, Type (0, 0), BuildingBlock: KIFKEQ_clean_linker_1, # of connection points: 2
# Relax obj value: 0.125
# Max RMSD: 0.132
# Mean RMSD: 0.132
data_MOF--net-atn--node1-AZAVOO_clean_sbu_0--edge1-KIFKEQ_clean_linker_1
_symmetry_space_group_name_H-M    P1
_symmetry_Int_Tables_number       1
_symmetry_cell_setting            triclinic
loop_
_symmetry_equiv_pos_as_xyz
'x, y, z'
_cell_length_a     62.121201
_cell_length_b     62.035552
_cell_length_c     26.942462
_cell_angle_alpha  90.061612
_cell_angle_beta   90.048284
_cell_angle_gamma 89.995428
loop_
_atom_site_label
_atom_site_type_symbol
_atom_site_fract_x
_atom_site_fract_y
_atom_site_fract_z
_atom_type_partial_charge
Mg0 Mg 0.19446 0.38018 0.99105 0.0
O1 O 0.22355 0.35757 0.9865 0.0
O2 O 0.23841 0.36095 0.91141 0.0
Mg3 Mg 0.21937 0.38606 0.86809 0.0
C4 C 0.23781 0.35244 0.95449 0.0
C5 C 0.18962 0.35446 0.08815 0.0
O6 O 0.1922 0.33902 0.05527 0.0
O7 O 0.21707 0.40892 0.00043 0.0
O8 O 0.23007 0.41195 0.92329 0.0
O9 O 0.17367 0.35475 0.95781 0.0
O10 O 0.19135 0.37935 0.9147 0.0
C11 C 0.22878 0.41848 0.96817 0.0
C12 C 0.17949 0.36239 0.9152 0.0
O13 O 0.1911 0.37398 0.07411 0.0
Mg14 Mg 0.60926 0.19922 0.99173 0.0
O15 O 0.63165 0.22843 0.98745 0.0
O16 O 0.6288 0.24296 0.91168 0.0
Mg17 Mg 0.60263 0.2249 0.86946 0.0
C18 C 0.63712 0.24235 0.95496 0.0
C19 C 0.62317 0.17614 0.08429 0.0
O20 O 0.62249 0.16155 0.04893 0.0
O21 O 0.58063 0.22179 0.00331 0.0
O22 O 0.57759 0.23542 0.92669 0.0
O23 O 0.63448 0.17895 0.9558 0.0
O24 O 0.60918 0.19655 0.91486 0.0
C25 C 0.57115 0.23388 0.97158 0.0
C26 C 0.62621 0.18484 0.9139 0.0
O27 O 0.61704 0.19523 0.07424 0.0
Mg28 Mg 0.79165 0.61069 0.98325 0.0
O29 O 0.76305 0.63358 0.97584 0.0
O30 O 0.74811 0.62919 0.90109 0.0
Mg31 Mg 0.76706 0.60314 0.86034 0.0
C32 C 0.74884 0.63838 0.94344 0.0
C33 C 0.81326 0.61881 0.08276 0.0
O34 O 0.82901 0.61193 0.0543 0.0
O35 O 0.76864 0.58243 0.99464 0.0
O36 O 0.756 0.57825 0.91738 0.0
O37 O 0.81289 0.63517 0.94822 0.0
O38 O 0.79516 0.60993 0.90694 0.0
C39 C 0.75704 0.57243 0.9628 0.0
C40 C 0.80728 0.62671 0.9062 0.0
O41 O 0.79424 0.61905 0.06531 0.0
Mg42 Mg 0.37818 0.79356 0.99362 0.0
O43 O 0.35561 0.76443 0.98798 0.0
O44 O 0.35763 0.75116 0.91082 0.0
Mg45 Mg 0.38321 0.77003 0.86877 0.0
C46 C 0.34977 0.75104 0.95456 0.0
C47 C 0.35284 0.79785 0.09128 0.0
O48 O 0.33735 0.79566 0.05844 0.0
O49 O 0.40683 0.77075 0.00085 0.0
O50 O 0.40913 0.75844 0.92289 0.0
O51 O 0.35268 0.81481 0.9618 0.0
O52 O 0.37716 0.79751 0.91751 0.0
C53 C 0.41602 0.75925 0.96756 0.0
C54 C 0.36028 0.80944 0.91881 0.0
O55 O 0.3723 0.79621 0.07698 0.0
Mg56 Mg 0.19591 0.60979 -0.00276 0.0
O57 O 0.22488 0.63255 0.00262 0.0
O58 O 0.23859 0.63016 0.07929 0.0
Mg59 Mg 0.22006 0.60427 0.12125 0.0
C60 C 0.23841 0.63827 0.0358 0.0
C61 C 0.19107 0.63546 0.89995 0.0
O62 O 0.19341 0.65096 0.93279 0.0
O63 O 0.21876 0.58127 0.98867 0.0
O64 O 0.23144 0.57853 0.06622 0.0
O65 O 0.17466 0.63501 0.03014 0.0
O66 O 0.19232 0.61047 0.07349 0.0
C67 C 0.23041 0.57189 0.02136 0.0
C68 C 0.18023 0.62726 0.07284 0.0
O69 O 0.19281 0.61597 0.9141 0.0
Mg70 Mg 0.3805 0.20052 0.0077 0.0
O71 O 0.35696 0.22882 0.01213 0.0
O72 O 0.36074 0.2447 0.0861 0.0
Mg73 Mg 0.38673 0.22686 0.12938 0.0
C74 C 0.35176 0.24331 0.04359 0.0
C75 C 0.35373 0.19166 0.91463 0.0
O76 O 0.3394 0.1919 0.95046 0.0
O77 O 0.40846 0.22391 -0.00407 0.0
O78 O 0.41191 0.23738 0.07265 0.0
O79 O 0.35637 0.17906 0.04372 0.0
O80 O 0.38071 0.19811 0.08446 0.0
C81 C 0.41812 0.23592 0.02758 0.0
C82 C 0.3643 0.18554 0.08557 0.0
O83 O 0.37319 0.19624 0.92503 0.0
Mg84 Mg 0.79249 0.38115 0.00299 0.0
O85 O 0.7631 0.35905 0.00784 0.0
O86 O 0.74886 0.36205 0.08385 0.0
Mg87 Mg 0.76734 0.38809 0.12563 0.0
C88 C 0.74925 0.35372 0.04055 0.0
C89 C 0.81498 0.3672 0.90987 0.0
O90 O 0.82972 0.36781 0.94484 0.0
O91 O 0.77021 0.40998 0.99185 0.0
O92 O 0.75679 0.41328 0.06859 0.0
O93 O 0.81256 0.35563 0.0382 0.0
O94 O 0.79546 0.38112 0.07977 0.0
C95 C 0.75828 0.41962 0.02362 0.0
C96 C 0.80691 0.36389 0.0803 0.0
O97 O 0.796 0.37341 0.92042 0.0
Mg98 Mg 0.60798 0.79204 0.00075 0.0
O99 O 0.63046 0.7628 0.00257 0.0
O100 O 0.62686 0.7466 0.07612 0.0
Mg101 Mg 0.60178 0.76486 0.12117 0.0
C102 C 0.63547 0.74795 0.03324 0.0
C103 C 0.63392 0.79852 0.9043 0.0
O104 O 0.64929 0.79527 0.93697 0.0
O105 O 0.57916 0.76975 0.98891 0.0
O106 O 0.57595 0.75543 0.06478 0.0
O107 O 0.63337 0.81209 0.03629 0.0
O108 O 0.60866 0.79372 0.07744 0.0
C109 C 0.56948 0.75757 0.02004 0.0
C110 C 0.62565 0.80552 0.07824 0.0
O111 O 0.6144 0.79694 0.91812 0.0
Mg112 Mg 0.69633 0.87649 0.47981 0.0
O113 O 0.72648 0.85546 0.4772 0.0
O114 O 0.74129 0.85876 0.40186 0.0
Mg115 Mg 0.72172 0.88317 0.35732 0.0
C116 C 0.74091 0.85065 0.44536 0.0
C117 C 0.67333 0.86343 0.57259 0.0
O118 O 0.65891 0.86358 0.53689 0.0
O119 O 0.71735 0.90643 0.48991 0.0
O120 O 0.72971 0.91012 0.41217 0.0
O121 O 0.67716 0.84997 0.4449 0.0
O122 O 0.69379 0.8756 0.40307 0.0
C123 C 0.72796 0.91676 0.45689 0.0
C124 C 0.68264 0.8582 0.40268 0.0
O125 O 0.69238 0.86961 0.56261 0.0
Mg126 Mg 0.10994 0.69649 0.47668 0.0
O127 O 0.1316 0.72622 0.47422 0.0
O128 O 0.127 0.74275 0.40133 0.0
Mg129 Mg 0.10188 0.72402 0.35718 0.0
C130 C 0.13597 0.74137 0.44384 0.0
C131 C 0.12534 0.67298 0.56792 0.0
O132 O 0.12574 0.65872 0.53186 0.0
O133 O 0.08078 0.71806 0.49075 0.0
O134 O 0.07657 0.73264 0.41538 0.0
O135 O 0.13545 0.67738 0.43895 0.0
O136 O 0.10967 0.69504 0.39968 0.0
C137 C 0.07058 0.7302 0.46038 0.0
C138 C 0.12692 0.68366 0.39761 0.0
O139 O 0.11804 0.69173 0.55873 0.0
Mg140 Mg 0.29555 0.11277 0.48738 0.0
O141 O 0.26586 0.1343 0.4812 0.0
O142 O 0.25101 0.12987 0.40636 0.0
Mg143 Mg 0.27116 0.10515 0.36423 0.0
C144 C 0.25137 0.13868 0.44917 0.0
C145 C 0.31696 0.12142 0.58689 0.0
O146 O 0.33298 0.11565 0.55795 0.0
O147 O 0.2739 0.08332 0.49761 0.0
O148 O 0.26142 0.0793 0.42015 0.0
O149 O 0.31561 0.13849 0.45306 0.0
O150 O 0.29896 0.11276 0.41106 0.0
C151 C 0.26277 0.07309 0.46523 0.0
C152 C 0.31036 0.13004 0.4108 0.0
O153 O 0.2979 0.12066 0.56976 0.0
Mg154 Mg 0.87728 0.29313 0.48186 0.0
O155 O 0.85552 0.26333 0.48043 0.0
O156 O 0.85952 0.24708 0.40696 0.0
Mg157 Mg 0.88378 0.26614 0.36123 0.0
C158 C 0.85095 0.24825 0.44992 0.0
C159 C 0.85181 0.29943 0.57928 0.0
O160 O 0.83621 0.29589 0.54733 0.0
O161 O 0.90672 0.27161 0.49292 0.0
O162 O 0.91026 0.2576 0.41674 0.0
O163 O 0.85141 0.31278 0.44671 0.0
O164 O 0.87633 0.29479 0.40532 0.0
C165 C 0.91678 0.2599 0.46142 0.0
C166 C 0.85928 0.30648 0.40464 0.0
O167 O 0.87123 0.29801 0.56464 0.0
Mg168 Mg 0.69479 0.11169 0.51267 0.0
O169 O 0.72475 0.13304 0.51504 0.0
O170 O 0.74052 0.12895 0.589 0.0
Mg171 Mg 0.72053 0.10539 0.6349 0.0
C172 C 0.73973 0.13744 0.54589 0.0
C173 C 0.68959 0.13713 0.41498 0.0
O174 O 0.69313 0.15265 0.44718 0.0
O175 O 0.71604 0.08181 0.50325 0.0
O176 O 0.72826 0.07805 0.58115 0.0
O177 O 0.6752 0.13804 0.54678 0.0
O178 O 0.69251 0.11297 0.58913 0.0
C179 C 0.72653 0.07141 0.53644 0.0
C180 C 0.68106 0.13018 0.58917 0.0
O181 O 0.69063 0.11765 0.42955 0.0
Mg182 Mg 0.87945 0.69563 0.50326 0.0
O183 O 0.85696 0.72477 0.50728 0.0
O184 O 0.85967 0.73971 0.58267 0.0
Mg185 Mg 0.88549 0.72141 0.62567 0.0
C186 C 0.85149 0.73892 0.53927 0.0
C187 C 0.85268 0.68799 0.40992 0.0
O188 O 0.83834 0.6888 0.44567 0.0
O189 O 0.90792 0.71835 0.49262 0.0
O190 O 0.91106 0.73182 0.56945 0.0
O191 O 0.85459 0.67471 0.53856 0.0
O192 O 0.87929 0.69297 0.57996 0.0
C193 C 0.91751 0.73026 0.52456 0.0
C194 C 0.86261 0.68076 0.58063 0.0
O195 O 0.87231 0.69177 0.42046 0.0
Mg196 Mg 0.29111 0.87835 0.51485 0.0
O197 O 0.26096 0.85732 0.51511 0.0
O198 O 0.24366 0.86219 0.58691 0.0
Mg199 Mg 0.26239 0.88681 0.63268 0.0
C200 C 0.24538 0.85322 0.54446 0.0
C201 C 0.3151 0.86244 0.42444 0.0
O202 O 0.32896 0.86128 0.46118 0.0
O203 O 0.27059 0.9082 0.50003 0.0
O204 O 0.25539 0.9127 0.57465 0.0
O205 O 0.30913 0.85227 0.55338 0.0
O206 O 0.29165 0.8784 0.59192 0.0
C207 C 0.25856 0.91878 0.52995 0.0
C208 C 0.3026 0.86087 0.59445 0.0
O209 O 0.29657 0.87039 0.43295 0.0
Mg210 Mg 0.11079 0.29155 0.51176 0.0
O211 O 0.13231 0.26168 0.51275 0.0
O212 O 0.12766 0.24468 0.585 0.0
Mg213 Mg 0.10288 0.26334 0.63032 0.0
C214 C 0.13662 0.24629 0.54254 0.0
C215 C 0.12574 0.31556 0.42092 0.0
O216 O 0.12639 0.32962 0.45739 0.0
O217 O 0.0813 0.27046 0.49754 0.0
O218 O 0.07702 0.25561 0.57258 0.0
O219 O 0.13659 0.31025 0.54961 0.0
O220 O 0.11085 0.29254 0.58878 0.0
C221 C 0.0709 0.25844 0.52777 0.0
C222 C 0.12816 0.30383 0.59091 0.0
O223 O 0.11848 0.29677 0.42975 0.0
H224 H 0.2547 0.54658 0.08275 0.0
H225 H 0.22858 0.54928 0.93398 0.0
H226 H 0.26282 0.50852 0.07145 0.0
H227 H 0.23677 0.51124 0.92295 0.0
H228 H 0.22581 0.44137 0.05502 0.0
H229 H 0.23497 0.47918 0.06677 0.0
H230 H 0.26361 0.48098 0.92085 0.0
H231 H 0.25452 0.44318 0.90884 0.0
C232 C 0.25118 0.53925 0.04715 0.0
C233 C 0.24044 0.55086 0.00966 0.0
C234 C 0.25585 0.51743 0.04083 0.0
C235 C 0.2501 0.50688 -0.00326 0.0
C236 C 0.24145 0.51898 0.95737 0.0
C237 C 0.23664 0.54079 0.96377 0.0
C238 C 0.23461 0.44961 0.02599 0.0
C239 C 0.23892 0.43939 0.98054 0.0
C240 C 0.23998 0.47127 0.03282 0.0
C241 C 0.2497 0.48306 0.99432 0.0
C242 C 0.25583 0.47232 0.95078 0.0
C243 C 0.25059 0.45065 0.94403 0.0
H244 H 0.44039 0.23278 0.93998 0.0
H245 H 0.44354 0.26119 0.08655 0.0
H246 H 0.4784 0.24078 0.92796 0.0
H247 H 0.48156 0.26896 0.07436 0.0
H248 H 0.54635 0.25964 0.91247 0.0
H249 H 0.50858 0.26854 0.92452 0.0
H250 H 0.5107 0.24007 0.07058 0.0
H251 H 0.54848 0.23093 0.05868 0.0
C252 C 0.44897 0.2413 0.96901 0.0
C253 C 0.43904 0.24582 0.01466 0.0
C254 C 0.47075 0.24596 0.96206 0.0
C255 C 0.48294 0.25516 0.00066 0.0
C256 C 0.47255 0.26158 0.04436 0.0
C257 C 0.45076 0.25711 0.05117 0.0
C258 C 0.53896 0.2557 0.94771 0.0
C259 C 0.55031 0.24405 0.9842 0.0
C260 C 0.51732 0.26083 0.95446 0.0
C261 C 0.5067 0.25472 -0.00193 0.0
C262 C 0.51855 0.24504 0.03658 0.0
C263 C 0.54019 0.23972 0.02969 0.0
H264 H 0.73307 0.44502 0.08275 0.0
H265 H 0.76083 0.44172 0.93571 0.0
H266 H 0.72417 0.48277 0.06947 0.0
H267 H 0.7518 0.47947 0.92266 0.0
H268 H 0.75977 0.55075 0.05123 0.0
H269 H 0.75147 0.51286 0.06466 0.0
H270 H 0.72366 0.50881 0.91801 0.0
H271 H 0.73184 0.5467 0.90436 0.0
C272 C 0.73681 0.45214 0.0471 0.0
C273 C 0.74818 0.44048 0.01068 0.0
C274 C 0.73168 0.47378 0.03964 0.0
C275 C 0.73758 0.48408 -0.00456 0.0
C276 C 0.74699 0.47189 0.95712 0.0
C277 C 0.75227 0.45027 0.96468 0.0
C278 C 0.75129 0.54201 0.02241 0.0
C279 C 0.74701 0.55162 0.97627 0.0
C280 C 0.74643 0.5203 0.03018 0.0
C281 C 0.73726 0.50786 0.99195 0.0
C282 C 0.73104 0.51799 0.94774 0.0
C283 C 0.73574 0.53971 0.94007 0.0
H284 H 0.5467 0.76227 0.93348 0.0
H285 H 0.54435 0.73135 0.07724 0.0
H286 H 0.50873 0.75414 0.92125 0.0
H287 H 0.50639 0.72335 0.06479 0.0
H288 H 0.43893 0.76021 0.05457 0.0
H289 H 0.47684 0.75132 0.06471 0.0
H290 H 0.47884 0.72661 0.9149 0.0
H291 H 0.44093 0.73538 0.90451 0.0
C292 C 0.5383 0.7532 0.96182 0.0
C293 C 0.54844 0.74797 0.00683 0.0
C294 C 0.51654 0.74844 0.95471 0.0
C295 C 0.50458 0.73842 0.99251 0.0
C296 C 0.5152 0.73137 0.03544 0.0
C297 C 0.53696 0.73598 0.04243 0.0
C298 C 0.44724 0.75231 0.02427 0.0
C299 C 0.43702 0.74903 0.97837 0.0
C300 C 0.46896 0.7471 0.03015 0.0
C301 C 0.48081 0.73859 0.99023 0.0
C302 C 0.47011 0.73345 0.94596 0.0
C303 C 0.44838 0.73848 0.94017 0.0
H304 H 0.74337 0.05567 0.44951 0.0
H305 H 0.72667 0.0377 0.59928 0.0
H306 H 0.75216 0.01817 0.43098 0.0
H307 H 0.73322 0.00039 0.58026 0.0
H308 H 0.74391 0.93278 0.54451 0.0
H309 H 0.75189 0.97043 0.56332 0.0
H310 H 0.73452 0.98773 0.41267 0.0
H311 H 0.7288 0.9503 0.39349 0.0
C312 C 0.74162 0.04365 0.47837 0.0
C313 C 0.73421 0.04948 0.52558 0.0
C314 C 0.74644 0.02209 0.46782 0.0
C315 C 0.74302 0.00585 0.50368 0.0
C316 C 0.73653 0.01211 0.55159 0.0
C317 C 0.7325 0.03366 0.56252 0.0
C318 C 0.74237 0.94473 0.51541 0.0
C319 C 0.73557 0.93872 0.46779 0.0
C320 C 0.74671 0.96637 0.52612 0.0
C321 C 0.74339 0.98252 0.48997 0.0
C322 C 0.73767 0.97609 0.44163 0.0
C323 C 0.73413 0.95447 0.43058 0.0
H324 H 0.93908 0.72856 0.4359 0.0
H325 H 0.94385 0.75376 0.58532 0.0
H326 H 0.97699 0.73665 0.42275 0.0
H327 H 0.98175 0.76169 0.57193 0.0
H328 H 0.04459 0.75633 0.40497 0.0
H329 H 0.00686 0.76446 0.4202 0.0
H330 H 0.01109 0.73343 0.56324 0.0
H331 H 0.04886 0.72513 0.54821 0.0
C332 C 0.948 0.73637 0.46543 0.0
C333 C 0.93854 0.74001 0.51201 0.0
C334 C 0.96972 0.7411 0.45782 0.0
C335 C 0.98233 0.74949 0.49668 0.0
C336 C 0.97242 0.75496 0.54167 0.0
C337 C 0.95068 0.75041 0.54916 0.0
C338 C 0.03767 0.75164 0.44023 0.0
C339 C 0.04962 0.73958 0.47494 0.0
C340 C 0.01605 0.75633 0.44881 0.0
C341 C 0.00604 0.74931 0.49247 0.0
C342 C 0.01846 0.73912 0.52926 0.0
C343 C 0.04009 0.73426 0.52055 0.0
H344 H 0.26522 0.05124 0.55357 0.0
H345 H 0.23934 0.0466 0.40477 0.0
H346 H 0.2568 0.01332 0.56702 0.0
H347 H 0.23112 0.00874 0.41844 0.0
H348 H 0.23398 0.94619 0.58555 0.0
H349 H 0.22785 0.98435 0.57038 0.0
H350 H 0.25851 0.97851 0.42725 0.0
H351 H 0.26485 0.9403 0.44224 0.0
C352 C 0.25725 0.04234 0.52422 0.0
C353 C 0.2534 0.05186 0.47779 0.0
C354 C 0.25234 0.02064 0.53199 0.0
C355 C 0.24358 0.0081 0.49343 0.0
C356 C 0.23813 0.01802 0.44847 0.0
C357 C 0.24285 0.03973 0.44082 0.0
C358 C 0.23903 0.95287 0.55029 0.0
C359 C 0.25037 0.94027 0.51549 0.0
C360 C 0.23551 0.97474 0.54178 0.0
C361 C 0.24297 0.98438 0.49807 0.0
C362 C 0.25252 0.97143 0.46128 0.0
C363 C 0.25622 0.94955 0.46995 0.0
H364 H 0.04379 0.23386 0.58397 0.0
H365 H 0.04944 0.26382 0.4396 0.0
H366 H 0.00582 0.22702 0.56851 0.0
H367 H 0.01142 0.2568 0.42436 0.0
H368 H 0.9385 0.2632 0.54979 0.0
H369 H 0.97647 0.25544 0.56385 0.0
H370 H 0.98161 0.22901 0.41604 0.0
H371 H 0.94369 0.2366 0.40174 0.0
C372 C 0.03711 0.23856 0.54844 0.0
C373 C 0.04958 0.24985 0.5134 0.0
C374 C 0.01533 0.23463 0.53977 0.0
C375 C 0.00567 0.24165 0.49565 0.0
C376 C 0.01852 0.25114 0.4587 0.0
C377 C 0.04029 0.25525 0.46751 0.0
C378 C 0.94754 0.25522 0.52074 0.0
C379 C 0.93814 0.25095 0.47433 0.0
C380 C 0.96928 0.25068 0.52887 0.0
C381 C 0.98198 0.24189 0.4907 0.0
C382 C 0.97221 0.23605 0.44578 0.0
C383 C 0.95046 0.2404 0.43777 0.0
H384 H 0.24231 0.33075 0.04239 0.0
H385 H 0.27038 0.33699 0.89621 0.0
H386 H 0.26937 0.30385 0.06368 0.0
H387 H 0.29756 0.31039 0.91795 0.0
H388 H 0.32877 0.24588 0.95701 0.0
H389 H 0.30072 0.27174 0.93582 0.0
H390 H 0.3083 0.30224 0.07899 0.0
H391 H 0.33607 0.27624 0.10067 0.0
C392 C 0.25425 0.32645 0.01483 0.0
C393 C 0.25417 0.33607 0.9676 0.0
C394 C 0.26981 0.31111 0.02714 0.0
C395 C 0.28559 0.30503 0.99248 0.0
C396 C 0.28544 0.31455 0.94522 0.0
C397 C 0.26993 0.32991 0.93291 0.0
C398 C 0.32446 0.25807 0.98403 0.0
C399 C 0.33472 0.25899 0.03053 0.0
C400 C 0.30845 0.27295 0.97176 0.0
C401 C 0.30232 0.28902 0.00574 0.0
C402 C 0.31249 0.28987 0.05228 0.0
C403 C 0.32851 0.27503 0.06454 0.0
H404 H 0.72989 0.34714 0.95132 0.0
H405 H 0.7324 0.32328 0.10157 0.0
H406 H 0.7024 0.32062 0.93104 0.0
H407 H 0.70617 0.29559 0.08081 0.0
H408 H 0.64393 0.26146 0.04447 0.0
H409 H 0.67062 0.28878 0.0649 0.0
H410 H 0.69549 0.28508 0.915 0.0
H411 H 0.66766 0.25904 0.89411 0.0
C412 C 0.72472 0.33595 0.97976 0.0
C413 C 0.73312 0.33725 0.02798 0.0
C414 C 0.70908 0.32059 0.96815 0.0
C415 C 0.70195 0.30578 0.00418 0.0
C416 C 0.71076 0.30696 0.05229 0.0
C417 C 0.72595 0.32272 0.06421 0.0
C418 C 0.65513 0.2666 0.01603 0.0
C419 C 0.65374 0.2583 0.96773 0.0
C420 C 0.67058 0.28214 0.02774 0.0
C421 C 0.68538 0.28926 0.9917 0.0
C422 C 0.68413 0.28051 0.94353 0.0
C423 C 0.66828 0.26543 0.93153 0.0
H424 H 0.71637 0.6536 0.88424 0.0
H425 H 0.74446 0.66081 0.03031 0.0
H426 H 0.68904 0.68023 0.90538 0.0
H427 H 0.71732 0.68765 0.05092 0.0
H428 H 0.65092 0.71457 0.08899 0.0
H429 H 0.67841 0.68847 0.06632 0.0
H430 H 0.6854 0.71907 0.92329 0.0
H431 H 0.6576 0.7451 0.94551 0.0
C432 C 0.71681 0.66091 0.92075 0.0
C433 C 0.73258 0.65498 0.95565 0.0
C434 C 0.7012 0.67626 0.93271 0.0
C435 C 0.70101 0.68596 0.97983 0.0
C436 C 0.71689 0.68021 0.01454 0.0
C437 C 0.73251 0.66491 0.00258 0.0
C438 C 0.65826 0.71577 0.05264 0.0
C439 C 0.65203 0.73195 0.01908 0.0
C440 C 0.67412 0.70087 0.03981 0.0
C441 C 0.68411 0.70179 0.99313 0.0
C442 C 0.67783 0.71786 0.95938 0.0
C443 C 0.66197 0.73281 0.97224 0.0
H444 H 0.25507 0.66853 0.0978 0.0
H445 H 0.25757 0.64566 0.94661 0.0
H446 H 0.28107 0.69652 0.0781 0.0
H447 H 0.28484 0.67253 0.92735 0.0
H448 H 0.31925 0.73457 0.89304 0.0
H449 H 0.29161 0.70822 0.91279 0.0
H450 H 0.31656 0.70366 0.06256 0.0
H451 H 0.34308 0.73127 0.04332 0.0
C452 C 0.26146 0.66937 0.06045 0.0
C453 C 0.25436 0.655 0.02369 0.0
C454 C 0.27653 0.68531 0.04914 0.0
C455 C 0.28529 0.68687 0.00109 0.0
C456 C 0.2782 0.67225 0.96447 0.0
C457 C 0.26268 0.6567 0.9755 0.0
C458 C 0.3187 0.72793 0.93019 0.0
C459 C 0.33324 0.7349 0.96669 0.0
C460 C 0.30296 0.71266 0.94152 0.0
C461 C 0.30177 0.70357 0.98931 0.0
C462 C 0.31655 0.71054 0.02567 0.0
C463 C 0.3319 0.72626 0.01464 0.0
H464 H 0.82091 0.75684 0.59847 0.0
H465 H 0.84567 0.75743 0.44892 0.0
H466 H 0.79381 0.78332 0.57552 0.0
H467 H 0.81981 0.78518 0.42645 0.0
H468 H 0.75871 0.82018 0.38582 0.0
H469 H 0.78471 0.79263 0.4086 0.0
H470 H 0.78729 0.8187 0.5577 0.0
H471 H 0.75995 0.84508 0.53536 0.0
C472 C 0.82068 0.76292 0.56078 0.0
C473 C 0.83527 0.75512 0.5254 0.0
C474 C 0.80527 0.77827 0.5476 0.0
C475 C 0.80452 0.78664 0.49903 0.0
C476 C 0.81942 0.77887 0.46387 0.0
C477 C 0.8344 0.76306 0.47675 0.0
C478 C 0.7649 0.81993 0.42342 0.0
C479 C 0.75738 0.83467 0.45888 0.0
C480 C 0.77996 0.80423 0.43654 0.0
C481 C 0.78831 0.80331 0.48512 0.0
C482 C 0.78095 0.81844 0.52028 0.0
C483 C 0.76542 0.83373 0.50747 0.0
H484 H 0.21115 0.83839 0.59841 0.0
H485 H 0.2425 0.83175 0.45588 0.0
H486 H 0.18457 0.81161 0.57369 0.0
H487 H 0.21603 0.80475 0.43165 0.0
H488 H 0.15115 0.77489 0.38796 0.0
H489 H 0.17726 0.80223 0.41221 0.0
H490 H 0.18332 0.77252 0.55648 0.0
H491 H 0.15699 0.74532 0.5327 0.0
C492 C 0.2124 0.83125 0.56183 0.0
C493 C 0.22899 0.83723 0.52915 0.0
C494 C 0.19723 0.8158 0.54783 0.0
C495 C 0.19827 0.80606 0.50082 0.0
C496 C 0.21471 0.81215 0.46795 0.0
C497 C 0.22994 0.82755 0.48198 0.0
C498 C 0.15801 0.77417 0.42489 0.0
C499 C 0.15194 0.7579 0.4584 0.0
C500 C 0.17306 0.78977 0.43864 0.0
C501 C 0.18231 0.7895 0.48621 0.0
C502 C 0.17625 0.77328 0.51975 0.0
C503 C 0.16126 0.75762 0.50598 0.0
H504 H 0.21843 0.15331 0.39054 0.0
H505 H 0.24577 0.15968 0.53755 0.0
H506 H 0.19026 0.17889 0.41269 0.0
H507 H 0.21779 0.18547 0.55921 0.0
H508 H 0.15874 0.24363 0.45486 0.0
H509 H 0.18635 0.21755 0.43205 0.0
H510 H 0.17872 0.18595 0.57374 0.0
H511 H 0.15136 0.21215 0.59704 0.0
C512 C 0.2185 0.16019 0.4275 0.0
C513 C 0.23437 0.1544 0.46228 0.0
C514 C 0.20241 0.17493 0.44007 0.0
C515 C 0.20181 0.18415 0.48769 0.0
C516 C 0.21767 0.17841 0.52242 0.0
C517 C 0.23379 0.16372 0.50986 0.0
C518 C 0.16289 0.2311 0.48116 0.0
C519 C 0.15286 0.23004 0.52787 0.0
C520 C 0.17864 0.2161 0.46794 0.0
C521 C 0.18473 0.19976 0.50116 0.0
C522 C 0.17457 0.19855 0.54763 0.0
C523 C 0.15879 0.21351 0.56083 0.0
H524 H 0.82946 0.24461 0.53829 0.0
H525 H 0.83628 0.21435 0.39442 0.0
H526 H 0.80274 0.21764 0.56129 0.0
H527 H 0.80983 0.18729 0.41787 0.0
H528 H 0.74402 0.15852 0.45725 0.0
H529 H 0.77101 0.18521 0.43465 0.0
H530 H 0.80044 0.17875 0.57919 0.0
H531 H 0.77329 0.15228 0.60228 0.0
C532 C 0.82536 0.23218 0.51164 0.0
C533 C 0.83501 0.23168 0.46447 0.0
C534 C 0.81013 0.21667 0.52495 0.0
C535 C 0.80419 0.20037 0.49135 0.0
C536 C 0.81389 0.19982 0.44431 0.0
C537 C 0.82914 0.21527 0.43103 0.0
C538 C 0.75625 0.16273 0.48424 0.0
C539 C 0.75646 0.15324 0.53161 0.0
C540 C 0.77178 0.17796 0.47116 0.0
C541 C 0.78783 0.18407 0.50516 0.0
C542 C 0.78811 0.17455 0.55243 0.0
C543 C 0.77262 0.15927 0.5655 0.0
H544 H 0.14837 0.35166 0.39741 0.0
H545 H 0.12423 0.29239 0.33403 0.0
H546 H 0.16507 0.36082 0.31889 0.0
H547 H 0.14031 0.30199 0.25435 0.0
H548 H 0.18914 0.31494 0.13261 0.0
H549 H 0.17406 0.3055 0.21314 0.0
H550 H 0.15711 0.37227 0.23754 0.0
H551 H 0.17291 0.38177 0.15792 0.0
C552 C 0.1464 0.34067 0.36648 0.0
C553 C 0.13492 0.32129 0.37198 0.0
C554 C 0.15593 0.34599 0.32125 0.0
C555 C 0.15406 0.33219 0.28008 0.0
C556 C 0.14239 0.31285 0.28545 0.0
C557 C 0.133 0.30742 0.33099 0.0
C558 C 0.18239 0.32763 0.15544 0.0
C559 C 0.18224 0.34911 0.13888 0.0
C560 C 0.17354 0.32218 0.20143 0.0
C561 C 0.16416 0.33806 0.2318 0.0
C562 C 0.16441 0.35962 0.21554 0.0
C563 C 0.17345 0.3651 0.16976 0.0
H564 H 0.67059 0.11013 0.34765 0.0
H565 H 0.69017 0.17631 0.3689 0.0
H566 H 0.65407 0.11974 0.26885 0.0
H567 H 0.67438 0.18583 0.28906 0.0
H568 H 0.62404 0.20036 0.16984 0.0
H569 H 0.64059 0.19076 0.24913 0.0
H570 H 0.66129 0.12997 0.1867 0.0
H571 H 0.64409 0.13916 0.10879 0.0
C572 C 0.67171 0.12667 0.33506 0.0
C573 C 0.68168 0.14245 0.36459 0.0
C574 C 0.66226 0.13221 0.28972 0.0
C575 C 0.66276 0.15363 0.27248 0.0
C576 C 0.67326 0.16928 0.30152 0.0
C577 C 0.68252 0.16378 0.34711 0.0
C578 C 0.63201 0.18491 0.1733 0.0
C579 C 0.63262 0.1705 0.13308 0.0
C580 C 0.64167 0.17945 0.2186 0.0
C581 C 0.65233 0.15955 0.22449 0.0
C582 C 0.65292 0.14524 0.18405 0.0
C583 C 0.6431 0.15058 0.13913 0.0
H584 H 0.81338 0.67288 0.38151 0.0
H585 H 0.87758 0.68461 0.32613 0.0
H586 H 0.80359 0.65608 0.30331 0.0
H587 H 0.86751 0.66847 0.24677 0.0
H588 H 0.85085 0.61619 0.13469 0.0
H589 H 0.85998 0.63391 0.21251 0.0
H590 H 0.79629 0.66189 0.21823 0.0
H591 H 0.78694 0.64348 0.14123 0.0
C592 C 0.82534 0.6722 0.35231 0.0
C593 C 0.84632 0.68 0.3602 0.0
C594 C 0.81967 0.66262 0.30725 0.0
C595 C 0.83477 0.66075 0.26867 0.0
C596 C 0.85558 0.66922 0.276 0.0
C597 C 0.86131 0.67866 0.32132 0.0
C598 C 0.83874 0.62599 0.15277 0.0
C599 C 0.81815 0.62838 0.13184 0.0
C600 C 0.84405 0.63636 0.19718 0.0
C601 C 0.82897 0.64955 0.22156 0.0
C602 C 0.80826 0.65169 0.20086 0.0
C603 C 0.80288 0.64114 0.15664 0.0
H604 H 0.35064 0.83888 0.40116 0.0
H605 H 0.29217 0.86449 0.33732 0.0
H606 H 0.35952 0.82193 0.32264 0.0
H607 H 0.3015 0.84813 0.25768 0.0
H608 H 0.31341 0.79899 0.13582 0.0
H609 H 0.30426 0.81419 0.21649 0.0
H610 H 0.37127 0.82965 0.2413 0.0
H611 H 0.38046 0.81375 0.16148 0.0
C612 C 0.33976 0.84112 0.37014 0.0
C613 C 0.32069 0.85309 0.37551 0.0
C614 C 0.34494 0.83144 0.32492 0.0
C615 C 0.33127 0.83363 0.28363 0.0
C616 C 0.31224 0.84579 0.28888 0.0
C617 C 0.30696 0.85534 0.33439 0.0
C618 C 0.32622 0.80542 0.15877 0.0
C619 C 0.34767 0.80515 0.14223 0.0
C620 C 0.32094 0.81435 0.20485 0.0
C621 C 0.33697 0.82337 0.23535 0.0
C622 C 0.3585 0.82264 0.21917 0.0
C623 C 0.3638 0.81354 0.17328 0.0
H624 H 0.14839 0.63715 0.5915 0.0
H625 H 0.12417 0.69646 0.65443 0.0
H626 H 0.1656 0.62838 0.66971 0.0
H627 H 0.14076 0.68724 0.73389 0.0
H628 H 0.19007 0.6749 0.85511 0.0
H629 H 0.1746 0.68406 0.77473 0.0
H630 H 0.15823 0.61707 0.75122 0.0
H631 H 0.17445 0.60787 0.83061 0.0
C632 C 0.14651 0.64824 0.62228 0.0
C633 C 0.13485 0.66751 0.61673 0.0
C634 C 0.15633 0.64313 0.66735 0.0
C635 C 0.15458 0.65704 0.70835 0.0
C636 C 0.14275 0.67629 0.70292 0.0
C637 C 0.13308 0.68151 0.65752 0.0
C638 C 0.18338 0.6621 0.83248 0.0
C639 C 0.18352 0.64065 0.84923 0.0
C640 C 0.1743 0.66739 0.78658 0.0
C641 C 0.16496 0.65136 0.7565 0.0
C642 C 0.16551 0.62983 0.77296 0.0
C643 C 0.17478 0.62453 0.81862 0.0
H644 H 0.28955 0.14445 0.64626 0.0
H645 H 0.35476 0.12052 0.63833 0.0
H646 H 0.29816 0.16307 0.72347 0.0
H647 H 0.36318 0.13842 0.71635 0.0
H648 H 0.37855 0.18959 0.83051 0.0
H649 H 0.36908 0.17314 0.75112 0.0
H650 H 0.30598 0.15754 0.80832 0.0
H651 H 0.31514 0.17467 0.88656 0.0
C652 C 0.30563 0.14289 0.66142 0.0
C653 C 0.32147 0.13101 0.63615 0.0
C654 C 0.31058 0.15355 0.70576 0.0
C655 C 0.33144 0.15241 0.72613 0.0
C656 C 0.3471 0.1401 0.7013 0.0
C657 C 0.34221 0.12962 0.65677 0.0
C658 C 0.36258 0.18287 0.82585 0.0
C659 C 0.34764 0.18342 0.86492 0.0
C660 C 0.3572 0.17324 0.78049 0.0
C661 C 0.33681 0.16379 0.77332 0.0
C662 C 0.32173 0.16485 0.81212 0.0
C663 C 0.32704 0.17462 0.85721 0.0
H664 H 0.7904 0.36655 0.82494 0.0
H665 H 0.85156 0.34582 0.8846 0.0
H666 H 0.79942 0.34977 0.74551 0.0
H667 H 0.86015 0.32838 0.8066 0.0
H668 H 0.87919 0.31844 0.64561 0.0
H669 H 0.87008 0.33539 0.72425 0.0
H670 H 0.80375 0.31582 0.70568 0.0
H671 H 0.81278 0.29963 0.62591 0.0
C672 C 0.80572 0.35838 0.82114 0.0
C673 C 0.82029 0.35764 0.86099 0.0
C674 C 0.81084 0.34859 0.77577 0.0
C675 C 0.83055 0.33766 0.76947 0.0
C676 C 0.84503 0.33695 0.80956 0.0
C677 C 0.84002 0.34691 0.85453 0.0
C678 C 0.8627 0.31758 0.65851 0.0
C679 C 0.84672 0.30769 0.62949 0.0
C680 C 0.85745 0.32728 0.70376 0.0
C681 C 0.83613 0.32708 0.72145 0.0
C682 C 0.82025 0.31669 0.69287 0.0
C683 C 0.82547 0.3072 0.64733 0.0
H684 H 0.60702 0.81715 0.83641 0.0
H685 H 0.67328 0.79851 0.85931 0.0
H686 H 0.61671 0.83354 0.75757 0.0
H687 H 0.68289 0.81414 0.77941 0.0
H688 H 0.69721 0.86369 0.6586 0.0
H689 H 0.68752 0.84775 0.73845 0.0
H690 H 0.62725 0.82582 0.67588 0.0
H691 H 0.6365 0.84243 0.59741 0.0
C692 C 0.6236 0.81622 0.82419 0.0
C693 C 0.63937 0.80653 0.85413 0.0
C694 C 0.62919 0.8256 0.77884 0.0
C695 C 0.65064 0.82527 0.76199 0.0
C696 C 0.66631 0.81511 0.79154 0.0
C697 C 0.66076 0.80594 0.83716 0.0
C698 C 0.68184 0.85559 0.66216 0.0
C699 C 0.6676 0.85443 0.62173 0.0
C700 C 0.67634 0.84627 0.70779 0.0
C701 C 0.65657 0.83544 0.71377 0.0
C702 C 0.64241 0.83434 0.67314 0.0
C703 C 0.6478 0.84381 0.62789 0.0
H704 H 0.8798 0.68548 0.67259 0.0
H705 H 0.82311 0.6625 0.59589 0.0
H706 H 0.86447 0.67439 0.75125 0.0
H707 H 0.80746 0.65172 0.67527 0.0
H708 H 0.80343 0.60884 0.81466 0.0
H709 H 0.81478 0.62388 0.73585 0.0
H710 H 0.83627 0.68167 0.81078 0.0
H711 H 0.82524 0.66633 0.89028 0.0
C712 C 0.86388 0.67838 0.67263 0.0
C713 C 0.85263 0.67483 0.62813 0.0
C714 C 0.85504 0.67213 0.71781 0.0
C715 C 0.83475 0.66224 0.71946 0.0
C716 C 0.82326 0.6591 0.67502 0.0
C717 C 0.83217 0.66529 0.62966 0.0
C718 C 0.81035 0.62486 0.81434 0.0
C719 C 0.81349 0.63643 0.85859 0.0
C720 C 0.81673 0.63353 0.76908 0.0
C721 C 0.82635 0.65398 0.7671 0.0
C722 C 0.8291 0.66576 0.81129 0.0
C723 C 0.82278 0.65702 0.85672 0.0
H724 H 0.3196 0.82105 0.61222 0.0
H725 H 0.29622 0.87841 0.6858 0.0
H726 H 0.33038 0.80623 0.69233 0.0
H727 H 0.30737 0.86384 0.76541 0.0
H728 H 0.3198 0.82623 0.90683 0.0
H729 H 0.30235 0.83601 0.82848 0.0
H730 H 0.35929 0.81612 0.74843 0.0
H731 H 0.37643 0.80623 0.82582 0.0
C732 C 0.3166 0.83039 0.6455 0.0
C733 C 0.30724 0.85092 0.64279 0.0
C734 C 0.3228 0.82194 0.69129 0.0
C735 C 0.31987 0.83398 0.73503 0.0
C736 C 0.3096 0.85409 0.73245 0.0
C737 C 0.30332 0.86247 0.68675 0.0
C738 C 0.32846 0.8239 0.87238 0.0
C739 C 0.34939 0.81538 0.87233 0.0
C740 C 0.31851 0.82945 0.82764 0.0
C741 C 0.32939 0.82662 0.78234 0.0
C742 C 0.35027 0.81799 0.78256 0.0
C743 C 0.36015 0.81244 0.82703 0.0
H744 H 0.11075 0.29801 0.68243 0.0
H745 H 0.16777 0.32139 0.60806 0.0
H746 H 0.12532 0.30966 0.76166 0.0
H747 H 0.18266 0.33263 0.68784 0.0
H748 H 0.18363 0.37841 0.82214 0.0
H749 H 0.17363 0.36139 0.7445 0.0
H750 H 0.15289 0.30464 0.82429 0.0
H751 H 0.1626 0.32201 0.9027 0.0
C752 C 0.12661 0.30523 0.68314 0.0
C753 C 0.13807 0.30895 0.63906 0.0
C754 C 0.13501 0.31181 0.72863 0.0
C755 C 0.15508 0.32216 0.73094 0.0
C756 C 0.16698 0.32499 0.68705 0.0
C757 C 0.1585 0.31852 0.64145 0.0
C758 C 0.17718 0.3622 0.82318 0.0
C759 C 0.1739 0.35151 0.86843 0.0
C760 C 0.17158 0.35238 0.7786 0.0
C761 C 0.16261 0.33162 0.77824 0.0
C762 C 0.15962 0.32074 0.8235 0.0
C763 C 0.16517 0.33065 0.8683 0.0
H764 H 0.66635 0.16811 0.89841 0.0
H765 H 0.60897 0.18936 0.8219 0.0
H766 H 0.68236 0.15796 0.81895 0.0
H767 H 0.6247 0.17891 0.74308 0.0
H768 H 0.66342 0.17017 0.60351 0.0
H769 H 0.6528 0.18634 0.68267 0.0
H770 H 0.6751 0.12948 0.75977 0.0
H771 H 0.68589 0.11361 0.68155 0.0
C772 C 0.65722 0.17068 0.86466 0.0
C773 C 0.63643 0.17947 0.86628 0.0
C774 C 0.66635 0.16488 0.81925 0.0
C775 C 0.65476 0.16765 0.77483 0.0
C776 C 0.63419 0.17695 0.77653 0.0
C777 C 0.62512 0.1828 0.82178 0.0
C778 C 0.6662 0.16128 0.6375 0.0
C779 C 0.67552 0.14068 0.63641 0.0
C780 C 0.66013 0.17049 0.68271 0.0
C781 C 0.66319 0.15918 0.72739 0.0
C782 C 0.67293 0.13879 0.72615 0.0
C783 C 0.67903 0.12965 0.68118 0.0
H784 H 0.87577 0.30065 0.31238 0.0
H785 H 0.81992 0.32518 0.38962 0.0
H786 H 0.86059 0.31217 0.23394 0.0
H787 H 0.80441 0.33644 0.31036 0.0
H788 H 0.80305 0.38092 0.17269 0.0
H789 H 0.813 0.36449 0.25109 0.0
H790 H 0.83227 0.30653 0.17377 0.0
H791 H 0.82266 0.32324 0.09474 0.0
C792 C 0.86002 0.30812 0.31251 0.0
C793 C 0.84904 0.31206 0.35714 0.0
C794 C 0.85127 0.31463 0.26743 0.0
C795 C 0.83131 0.3252 0.26597 0.0
C796 C 0.81996 0.32854 0.31048 0.0
C797 C 0.82879 0.32207 0.35576 0.0
C798 C 0.80915 0.36457 0.1724 0.0
C799 C 0.81215 0.35336 0.12764 0.0
C800 C 0.81472 0.3551 0.21742 0.0
C801 C 0.82336 0.3342 0.21861 0.0
C802 C 0.82586 0.32276 0.17388 0.0
C803 C 0.82037 0.3323 0.12872 0.0
H804 H 0.66577 0.82247 0.09257 0.0
H805 H 0.60949 0.79971 0.17086 0.0
H806 H 0.68248 0.83205 0.17166 0.0
H807 H 0.6259 0.80964 0.24936 0.0
H808 H 0.66553 0.81804 0.38752 0.0
H809 H 0.65455 0.80225 0.30821 0.0
H810 H 0.67557 0.8599 0.23234 0.0
H811 H 0.68676 0.87537 0.31071 0.0
C812 C 0.65704 0.81945 0.12663 0.0
C813 C 0.63634 0.81043 0.12562 0.0
C814 C 0.66657 0.82492 0.17184 0.0
C815 C 0.65548 0.82161 0.21669 0.0
C816 C 0.63502 0.81204 0.21557 0.0
C817 C 0.62556 0.80648 0.17049 0.0
C818 C 0.66797 0.82718 0.35375 0.0
C819 C 0.67702 0.84789 0.35525 0.0
C820 C 0.66168 0.81819 0.30845 0.0
C821 C 0.66425 0.82984 0.26407 0.0
C822 C 0.67377 0.85033 0.26568 0.0
C823 C 0.68009 0.85924 0.31075 0.0
H824 H 0.10935 0.68914 0.30606 0.0
H825 H 0.1667 0.66651 0.38057 0.0
H826 H 0.12421 0.67799 0.22674 0.0
H827 H 0.18184 0.65576 0.30075 0.0
H828 H 0.18396 0.6107 0.16545 0.0
H829 H 0.17327 0.62707 0.24325 0.0
H830 H 0.15201 0.68396 0.16469 0.0
H831 H 0.1625 0.66728 0.08599 0.0
C832 C 0.12532 0.68216 0.30538 0.0
C833 C 0.13683 0.67855 0.34949 0.0
C834 C 0.13388 0.67589 0.25985 0.0
C835 C 0.15414 0.66593 0.25755 0.0
C836 C 0.16603 0.66311 0.30152 0.0
C837 C 0.1574 0.66929 0.34715 0.0
C838 C 0.17726 0.62682 0.16469 0.0
C839 C 0.17411 0.63776 0.11968 0.0
C840 C 0.17125 0.63625 0.20939 0.0
C841 C 0.16196 0.65687 0.21013 0.0
C842 C 0.15901 0.66797 0.16514 0.0
C843 C 0.165 0.65846 0.12019 0.0
H844 H 0.30705 0.11243 0.31896 0.0
H845 H 0.32711 0.1703 0.39564 0.0
H846 H 0.31792 0.12805 0.2405 0.0
H847 H 0.33771 0.18622 0.31635 0.0
H848 H 0.38127 0.19112 0.17757 0.0
H849 H 0.36612 0.17991 0.25642 0.0
H850 H 0.30969 0.15579 0.18052 0.0
H851 H 0.32515 0.16666 0.10109 0.0
C852 C 0.31345 0.12867 0.31895 0.0
C853 C 0.31623 0.14017 0.3634 0.0
C854 C 0.31957 0.13766 0.27387 0.0
C855 C 0.32858 0.15839 0.27222 0.0
C856 C 0.33099 0.17011 0.31661 0.0
C857 C 0.32492 0.16104 0.3619 0.0
C858 C 0.36551 0.18367 0.1777 0.0
C859 C 0.3544 0.17969 0.13322 0.0
C860 C 0.35677 0.17736 0.22296 0.0
C861 C 0.33672 0.16698 0.22466 0.0
C862 C 0.32532 0.16353 0.18023 0.0
C863 C 0.33413 0.16976 0.13483 0.0
loop_
_geom_bond_atom_site_label_1
_geom_bond_atom_site_label_2
_geom_bond_distance
_geom_bond_site_symmetry_2
_ccdc_geom_bond_type
Mg0 O1 2.025 1_556 S
Mg0 O7 1.982 1_556 S
Mg0 O9 2.124 . S
Mg0 O10 2.270 . S
Mg0 O13 1.993 1_556 S
O1 Mg0 2.025 1_554 S
O1 C4 1.250 1_554 S
O2 Mg3 2.028 . S
O2 C4 1.248 . S
Mg3 O2 2.028 . S
Mg3 O8 2.032 . S
Mg3 O10 2.079 . S
C4 O1 1.250 1_556 S
C4 O2 1.248 . S
C5 O6 1.264 . S
C5 O13 1.249 . S
O6 C5 1.264 . S
O7 Mg0 1.982 1_554 S
O7 C11 1.246 1_554 S
O8 Mg3 2.032 . S
O8 C11 1.259 . S
O9 Mg0 2.124 . S
O9 C12 1.252 . S
O10 Mg0 2.270 . S
O10 Mg3 2.079 . S
O10 C12 1.273 . S
C11 O7 1.246 1_556 S
C11 O8 1.259 . S
C12 O9 1.252 . S
C12 O10 1.273 . S
O13 Mg0 1.993 1_554 S
O13 C5 1.249 . S
Mg14 O15 2.025 1_556 S
Mg14 O21 1.982 1_556 S
Mg14 O23 2.124 . S
Mg14 O24 2.270 . S
Mg14 O27 1.993 1_556 S
O15 Mg14 2.025 1_554 S
O15 C18 1.250 1_554 S
O16 Mg17 2.028 . S
O16 C18 1.248 . S
Mg17 O16 2.028 . S
Mg17 O22 2.032 . S
Mg17 O24 2.079 . S
C18 O15 1.250 1_556 S
C18 O16 1.248 . S
C19 O20 1.264 . S
C19 O27 1.249 . S
O20 C19 1.264 . S
O21 Mg14 1.982 1_554 S
O21 C25 1.246 1_554 S
O22 Mg17 2.032 . S
O22 C25 1.259 . S
O23 Mg14 2.124 . S
O23 C26 1.252 . S
O24 Mg14 2.270 . S
O24 Mg17 2.079 . S
O24 C26 1.273 . S
C25 O21 1.246 1_556 S
C25 O22 1.259 . S
C26 O23 1.252 . S
C26 O24 1.273 . S
O27 Mg14 1.993 1_554 S
O27 C19 1.249 . S
Mg28 O29 2.025 1_556 S
Mg28 O35 1.982 1_556 S
Mg28 O37 2.124 . S
Mg28 O38 2.270 . S
Mg28 O41 1.993 1_556 S
O29 Mg28 2.025 1_554 S
O29 C32 1.250 1_554 S
O30 Mg31 2.028 . S
O30 C32 1.248 . S
Mg31 O30 2.028 . S
Mg31 O36 2.032 . S
Mg31 O38 2.079 . S
C32 O29 1.250 1_556 S
C32 O30 1.248 . S
C33 O34 1.264 . S
C33 O41 1.249 . S
O34 C33 1.264 . S
O35 Mg28 1.982 1_554 S
O35 C39 1.246 1_554 S
O36 Mg31 2.032 . S
O36 C39 1.259 . S
O37 Mg28 2.124 . S
O37 C40 1.252 . S
O38 Mg28 2.270 . S
O38 Mg31 2.079 . S
O38 C40 1.273 . S
C39 O35 1.246 1_556 S
C39 O36 1.259 . S
C40 O37 1.252 . S
C40 O38 1.273 . S
O41 Mg28 1.993 1_554 S
O41 C33 1.249 . S
Mg42 O43 2.025 1_556 S
Mg42 O49 1.982 1_556 S
Mg42 O51 2.124 . S
Mg42 O52 2.270 . S
Mg42 O55 1.993 1_556 S
O43 Mg42 2.025 1_554 S
O43 C46 1.250 1_554 S
O44 Mg45 2.028 . S
O44 C46 1.248 . S
Mg45 O44 2.028 . S
Mg45 O50 2.032 . S
Mg45 O52 2.079 . S
C46 O43 1.250 1_556 S
C46 O44 1.248 . S
C47 O48 1.264 . S
C47 O55 1.249 . S
O48 C47 1.264 . S
O49 Mg42 1.982 1_554 S
O49 C53 1.246 1_554 S
O50 Mg45 2.032 . S
O50 C53 1.259 . S
O51 Mg42 2.124 . S
O51 C54 1.252 . S
O52 Mg42 2.270 . S
O52 Mg45 2.079 . S
O52 C54 1.273 . S
C53 O49 1.246 1_556 S
C53 O50 1.259 . S
C54 O51 1.252 . S
C54 O52 1.273 . S
O55 Mg42 1.993 1_554 S
O55 C47 1.249 . S
Mg56 O57 2.028 1_554 S
Mg56 O63 1.986 1_554 S
Mg56 O65 2.114 . S
Mg56 O66 2.251 . S
Mg56 O69 2.010 1_554 S
O57 Mg56 2.028 1_556 S
O57 C60 1.250 1_556 S
O58 Mg59 2.028 . S
O58 C60 1.248 . S
Mg59 O58 2.028 . S
Mg59 O64 2.032 . S
Mg59 O66 2.079 . S
C60 O57 1.250 1_554 S
C60 O58 1.248 . S
C61 O62 1.264 . S
C61 O69 1.249 . S
O62 C61 1.264 . S
O63 Mg56 1.986 1_556 S
O63 C67 1.246 1_556 S
O64 Mg59 2.032 . S
O64 C67 1.259 . S
O65 Mg56 2.114 . S
O65 C68 1.252 . S
O66 Mg56 2.251 . S
O66 Mg59 2.079 . S
O66 C68 1.273 . S
C67 O63 1.246 1_554 S
C67 O64 1.259 . S
C68 O65 1.252 . S
C68 O66 1.273 . S
O69 Mg56 2.010 1_556 S
O69 C61 1.249 . S
Mg70 O71 2.028 1_554 S
Mg70 O77 1.986 1_554 S
Mg70 O79 2.114 . S
Mg70 O80 2.251 . S
Mg70 O83 2.010 1_554 S
O71 Mg70 2.028 1_556 S
O71 C74 1.250 1_556 S
O72 Mg73 2.028 . S
O72 C74 1.248 . S
Mg73 O72 2.028 . S
Mg73 O78 2.032 . S
Mg73 O80 2.079 . S
C74 O71 1.250 1_554 S
C74 O72 1.248 . S
C75 O76 1.264 . S
C75 O83 1.249 . S
O76 C75 1.264 . S
O77 Mg70 1.986 1_556 S
O77 C81 1.246 1_556 S
O78 Mg73 2.032 . S
O78 C81 1.259 . S
O79 Mg70 2.114 . S
O79 C82 1.252 . S
O80 Mg70 2.251 . S
O80 Mg73 2.079 . S
O80 C82 1.273 . S
C81 O77 1.246 1_554 S
C81 O78 1.259 . S
C82 O79 1.252 . S
C82 O80 1.273 . S
O83 Mg70 2.010 1_556 S
O83 C75 1.249 . S
Mg84 O85 2.028 1_554 S
Mg84 O91 1.986 1_554 S
Mg84 O93 2.114 . S
Mg84 O94 2.251 . S
Mg84 O97 2.010 1_554 S
O85 Mg84 2.028 1_556 S
O85 C88 1.250 1_556 S
O86 Mg87 2.028 . S
O86 C88 1.248 . S
Mg87 O86 2.028 . S
Mg87 O92 2.032 . S
Mg87 O94 2.079 . S
C88 O85 1.250 1_554 S
C88 O86 1.248 . S
C89 O90 1.264 . S
C89 O97 1.249 . S
O90 C89 1.264 . S
O91 Mg84 1.986 1_556 S
O91 C95 1.246 1_556 S
O92 Mg87 2.032 . S
O92 C95 1.259 . S
O93 Mg84 2.114 . S
O93 C96 1.252 . S
O94 Mg84 2.251 . S
O94 Mg87 2.079 . S
O94 C96 1.273 . S
C95 O91 1.246 1_554 S
C95 O92 1.259 . S
C96 O93 1.252 . S
C96 O94 1.273 . S
O97 Mg84 2.010 1_556 S
O97 C89 1.249 . S
Mg98 O99 2.028 1_554 S
Mg98 O105 1.986 1_554 S
Mg98 O107 2.114 . S
Mg98 O108 2.251 . S
Mg98 O111 2.010 1_554 S
O99 Mg98 2.028 1_556 S
O99 C102 1.250 1_556 S
O100 Mg101 2.028 . S
O100 C102 1.248 . S
Mg101 O100 2.028 . S
Mg101 O106 2.032 . S
Mg101 O108 2.079 . S
C102 O99 1.250 1_554 S
C102 O100 1.248 . S
C103 O104 1.264 . S
C103 O111 1.249 . S
O104 C103 1.264 . S
O105 Mg98 1.986 1_556 S
O105 C109 1.246 1_556 S
O106 Mg101 2.032 . S
O106 C109 1.259 . S
O107 Mg98 2.114 . S
O107 C110 1.252 . S
O108 Mg98 2.251 . S
O108 Mg101 2.079 . S
O108 C110 1.273 . S
C109 O105 1.246 1_554 S
C109 O106 1.259 . S
C110 O107 1.252 . S
C110 O108 1.273 . S
O111 Mg98 2.010 1_556 S
O111 C103 1.249 . S
Mg112 O113 2.028 . S
Mg112 O119 1.986 . S
Mg112 O121 2.114 . S
Mg112 O122 2.251 . S
Mg112 O125 2.010 . S
O113 Mg112 2.028 . S
O113 C116 1.250 . S
O114 Mg115 2.028 . S
O114 C116 1.248 . S
Mg115 O114 2.028 . S
Mg115 O120 2.032 . S
Mg115 O122 2.079 . S
C116 O113 1.250 . S
C116 O114 1.248 . S
C117 O118 1.264 . S
C117 O125 1.249 . S
O118 C117 1.264 . S
O119 Mg112 1.986 . S
O119 C123 1.246 . S
O120 Mg115 2.032 . S
O120 C123 1.259 . S
O121 Mg112 2.114 . S
O121 C124 1.252 . S
O122 Mg112 2.251 . S
O122 Mg115 2.079 . S
O122 C124 1.273 . S
C123 O119 1.246 . S
C123 O120 1.259 . S
C124 O121 1.252 . S
C124 O122 1.273 . S
O125 Mg112 2.010 . S
O125 C117 1.249 . S
Mg126 O127 2.028 . S
Mg126 O133 1.986 . S
Mg126 O135 2.114 . S
Mg126 O136 2.251 . S
Mg126 O139 2.010 . S
O127 Mg126 2.028 . S
O127 C130 1.250 . S
O128 Mg129 2.028 . S
O128 C130 1.248 . S
Mg129 O128 2.028 . S
Mg129 O134 2.032 . S
Mg129 O136 2.079 . S
C130 O127 1.250 . S
C130 O128 1.248 . S
C131 O132 1.264 . S
C131 O139 1.249 . S
O132 C131 1.264 . S
O133 Mg126 1.986 . S
O133 C137 1.246 . S
O134 Mg129 2.032 . S
O134 C137 1.259 . S
O135 Mg126 2.114 . S
O135 C138 1.252 . S
O136 Mg126 2.251 . S
O136 Mg129 2.079 . S
O136 C138 1.273 . S
C137 O133 1.246 . S
C137 O134 1.259 . S
C138 O135 1.252 . S
C138 O136 1.273 . S
O139 Mg126 2.010 . S
O139 C131 1.249 . S
Mg140 O141 2.028 . S
Mg140 O147 1.986 . S
Mg140 O149 2.114 . S
Mg140 O150 2.251 . S
Mg140 O153 2.010 . S
O141 Mg140 2.028 . S
O141 C144 1.250 . S
O142 Mg143 2.028 . S
O142 C144 1.248 . S
Mg143 O142 2.028 . S
Mg143 O148 2.032 . S
Mg143 O150 2.079 . S
C144 O141 1.250 . S
C144 O142 1.248 . S
C145 O146 1.264 . S
C145 O153 1.249 . S
O146 C145 1.264 . S
O147 Mg140 1.986 . S
O147 C151 1.246 . S
O148 Mg143 2.032 . S
O148 C151 1.259 . S
O149 Mg140 2.114 . S
O149 C152 1.252 . S
O150 Mg140 2.251 . S
O150 Mg143 2.079 . S
O150 C152 1.273 . S
C151 O147 1.246 . S
C151 O148 1.259 . S
C152 O149 1.252 . S
C152 O150 1.273 . S
O153 Mg140 2.010 . S
O153 C145 1.249 . S
Mg154 O155 2.028 . S
Mg154 O161 1.986 . S
Mg154 O163 2.114 . S
Mg154 O164 2.251 . S
Mg154 O167 2.010 . S
O155 Mg154 2.028 . S
O155 C158 1.250 . S
O156 Mg157 2.028 . S
O156 C158 1.248 . S
Mg157 O156 2.028 . S
Mg157 O162 2.032 . S
Mg157 O164 2.079 . S
C158 O155 1.250 . S
C158 O156 1.248 . S
C159 O160 1.264 . S
C159 O167 1.249 . S
O160 C159 1.264 . S
O161 Mg154 1.986 . S
O161 C165 1.246 . S
O162 Mg157 2.032 . S
O162 C165 1.259 . S
O163 Mg154 2.114 . S
O163 C166 1.252 . S
O164 Mg154 2.251 . S
O164 Mg157 2.079 . S
O164 C166 1.273 . S
C165 O161 1.246 . S
C165 O162 1.259 . S
C166 O163 1.252 . S
C166 O164 1.273 . S
O167 Mg154 2.010 . S
O167 C159 1.249 . S
Mg168 O169 2.028 . S
Mg168 O175 1.986 . S
Mg168 O177 2.114 . S
Mg168 O178 2.251 . S
Mg168 O181 2.010 . S
O169 Mg168 2.028 . S
O169 C172 1.250 . S
O170 Mg171 2.028 . S
O170 C172 1.248 . S
Mg171 O170 2.028 . S
Mg171 O176 2.032 . S
Mg171 O178 2.079 . S
C172 O169 1.250 . S
C172 O170 1.248 . S
C173 O174 1.264 . S
C173 O181 1.249 . S
O174 C173 1.264 . S
O175 Mg168 1.986 . S
O175 C179 1.246 . S
O176 Mg171 2.032 . S
O176 C179 1.259 . S
O177 Mg168 2.114 . S
O177 C180 1.252 . S
O178 Mg168 2.251 . S
O178 Mg171 2.079 . S
O178 C180 1.273 . S
C179 O175 1.246 . S
C179 O176 1.259 . S
C180 O177 1.252 . S
C180 O178 1.273 . S
O181 Mg168 2.010 . S
O181 C173 1.249 . S
Mg182 O183 2.028 . S
Mg182 O189 1.986 . S
Mg182 O191 2.114 . S
Mg182 O192 2.251 . S
Mg182 O195 2.010 . S
O183 Mg182 2.028 . S
O183 C186 1.250 . S
O184 Mg185 2.028 . S
O184 C186 1.248 . S
Mg185 O184 2.028 . S
Mg185 O190 2.032 . S
Mg185 O192 2.079 . S
C186 O183 1.250 . S
C186 O184 1.248 . S
C187 O188 1.264 . S
C187 O195 1.249 . S
O188 C187 1.264 . S
O189 Mg182 1.986 . S
O189 C193 1.246 . S
O190 Mg185 2.032 . S
O190 C193 1.259 . S
O191 Mg182 2.114 . S
O191 C194 1.252 . S
O192 Mg182 2.251 . S
O192 Mg185 2.079 . S
O192 C194 1.273 . S
C193 O189 1.246 . S
C193 O190 1.259 . S
C194 O191 1.252 . S
C194 O192 1.273 . S
O195 Mg182 2.010 . S
O195 C187 1.249 . S
Mg196 O197 2.028 . S
Mg196 O203 1.986 . S
Mg196 O205 2.114 . S
Mg196 O206 2.251 . S
Mg196 O209 2.010 . S
O197 Mg196 2.028 . S
O197 C200 1.250 . S
O198 Mg199 2.028 . S
O198 C200 1.248 . S
Mg199 O198 2.028 . S
Mg199 O204 2.032 . S
Mg199 O206 2.079 . S
C200 O197 1.250 . S
C200 O198 1.248 . S
C201 O202 1.264 . S
C201 O209 1.249 . S
O202 C201 1.264 . S
O203 Mg196 1.986 . S
O203 C207 1.246 . S
O204 Mg199 2.032 . S
O204 C207 1.259 . S
O205 Mg196 2.114 . S
O205 C208 1.252 . S
O206 Mg196 2.251 . S
O206 Mg199 2.079 . S
O206 C208 1.273 . S
C207 O203 1.246 . S
C207 O204 1.259 . S
C208 O205 1.252 . S
C208 O206 1.273 . S
O209 Mg196 2.010 . S
O209 C201 1.249 . S
Mg210 O211 2.028 . S
Mg210 O217 1.986 . S
Mg210 O219 2.114 . S
Mg210 O220 2.251 . S
Mg210 O223 2.010 . S
O211 Mg210 2.028 . S
O211 C214 1.250 . S
O212 Mg213 2.028 . S
O212 C214 1.248 . S
Mg213 O212 2.028 . S
Mg213 O218 2.032 . S
Mg213 O220 2.079 . S
C214 O211 1.250 . S
C214 O212 1.248 . S
C215 O216 1.264 . S
C215 O223 1.249 . S
O216 C215 1.264 . S
O217 Mg210 1.986 . S
O217 C221 1.246 . S
O218 Mg213 2.032 . S
O218 C221 1.259 . S
O219 Mg210 2.114 . S
O219 C222 1.252 . S
O220 Mg210 2.251 . S
O220 Mg213 2.079 . S
O220 C222 1.273 . S
C221 O217 1.246 . S
C221 O218 1.259 . S
C222 O219 1.252 . S
C222 O220 1.273 . S
O223 Mg210 2.010 . S
O223 C215 1.249 . S
H224 C232 0.950 . S
H225 C237 0.950 . S
H226 C234 0.950 . S
H227 C236 0.950 . S
H228 C238 0.950 . S
H229 C240 0.950 . S
H230 C242 0.950 . S
H231 C243 0.950 . S
C232 H224 0.950 . S
C232 C233 1.386 1_556 S
C232 C234 1.391 . S
C233 C232 1.386 1_554 S
C233 C237 1.393 . S
C234 H226 0.950 . S
C234 C232 1.391 . S
C234 C235 1.400 1_556 S
C235 C234 1.400 1_554 S
C235 C236 1.398 . S
C235 C241 1.489 1_554 S
C236 H227 0.950 . S
C236 C235 1.398 . S
C236 C237 1.391 . S
C237 H225 0.950 . S
C237 C233 1.393 . S
C237 C236 1.391 . S
C238 H228 0.950 . S
C238 C239 1.386 1_554 S
C238 C240 1.391 . S
C239 C238 1.386 1_556 S
C239 C243 1.393 . S
C240 H229 0.950 . S
C240 C238 1.391 . S
C240 C241 1.396 1_554 S
C241 C235 1.489 1_556 S
C241 C240 1.396 1_556 S
C241 C242 1.405 . S
C242 H230 0.950 . S
C242 C241 1.405 . S
C242 C243 1.391 . S
C243 H231 0.950 . S
C243 C239 1.393 . S
C243 C242 1.391 . S
H244 C252 0.950 . S
H245 C257 0.950 . S
H246 C254 0.950 . S
H247 C256 0.950 . S
H248 C258 0.950 . S
H249 C260 0.950 . S
H250 C262 0.950 . S
H251 C263 0.950 . S
C252 H244 0.950 . S
C252 C253 1.386 . S
C252 C254 1.391 . S
C253 C252 1.386 . S
C253 C257 1.393 1_554 S
C254 H246 0.950 . S
C254 C252 1.391 . S
C254 C255 1.400 . S
C255 C254 1.400 . S
C255 C256 1.398 1_554 S
C255 C261 1.491 . S
C256 H247 0.950 . S
C256 C255 1.398 1_556 S
C256 C257 1.391 . S
C257 H245 0.950 . S
C257 C253 1.393 1_556 S
C257 C256 1.391 . S
C258 H248 0.950 . S
C258 C259 1.386 . S
C258 C260 1.391 . S
C259 C258 1.386 . S
C259 C263 1.393 1_556 S
C260 H249 0.950 . S
C260 C258 1.391 . S
C260 C261 1.397 1_556 S
C261 C255 1.491 . S
C261 C260 1.397 1_554 S
C261 C262 1.402 . S
C262 H250 0.950 . S
C262 C261 1.402 . S
C262 C263 1.391 . S
C263 H251 0.950 . S
C263 C259 1.393 1_554 S
C263 C262 1.391 . S
H264 C272 0.948 1_556 S
H265 C277 0.950 . S
H266 C274 0.950 . S
H267 C276 0.950 . S
H268 C278 0.950 . S
H269 C280 0.950 . S
H270 C282 0.950 . S
H271 C283 0.950 . S
C272 H264 0.948 1_554 S
C272 C273 1.388 . S
C272 C274 1.390 1_554 S
C273 C272 1.388 . S
C273 C277 1.393 . S
C274 H266 0.950 . S
C274 C272 1.390 1_556 S
C274 C275 1.400 1_556 S
C275 C274 1.400 1_554 S
C275 C276 1.398 . S
C275 C281 1.489 1_554 S
C276 H267 0.950 . S
C276 C275 1.398 . S
C276 C277 1.391 . S
C277 H265 0.950 . S
C277 C273 1.393 . S
C277 C276 1.391 . S
C278 H268 0.950 . S
C278 C279 1.386 1_554 S
C278 C280 1.391 . S
C279 C278 1.386 1_556 S
C279 C283 1.393 . S
C280 H269 0.950 . S
C280 C278 1.391 . S
C280 C281 1.398 1_554 S
C281 C275 1.489 1_556 S
C281 C280 1.398 1_556 S
C281 C282 1.403 . S
C282 H270 0.950 . S
C282 C281 1.403 . S
C282 C283 1.391 . S
C283 H271 0.950 . S
C283 C279 1.393 . S
C283 C282 1.391 . S
H284 C292 0.950 . S
H285 C297 0.950 . S
H286 C294 0.950 . S
H287 C296 0.950 . S
H288 C298 0.950 . S
H289 C300 0.950 . S
H290 C302 0.950 . S
H291 C303 0.950 . S
C292 H284 0.950 . S
C292 C293 1.386 1_556 S
C292 C294 1.391 . S
C293 C292 1.386 1_554 S
C293 C297 1.393 . S
C294 H286 0.950 . S
C294 C292 1.391 . S
C294 C295 1.400 1_556 S
C295 C294 1.400 1_554 S
C295 C296 1.398 . S
C295 C301 1.491 . S
C296 H287 0.950 . S
C296 C295 1.398 . S
C296 C297 1.391 . S
C297 H285 0.950 . S
C297 C293 1.393 . S
C297 C296 1.391 . S
C298 H288 0.950 . S
C298 C299 1.386 1_554 S
C298 C300 1.391 . S
C299 C298 1.386 1_556 S
C299 C303 1.393 . S
C300 H289 0.950 . S
C300 C298 1.391 . S
C300 C301 1.403 . S
C301 C295 1.491 . S
C301 C300 1.403 . S
C301 C302 1.396 1_554 S
C302 H290 0.950 . S
C302 C301 1.396 1_556 S
C302 C303 1.391 . S
C303 H291 0.950 . S
C303 C299 1.393 . S
C303 C302 1.391 . S
H304 C312 0.950 . S
H305 C317 0.950 . S
H306 C314 0.950 . S
H307 C316 0.950 . S
H308 C318 0.950 . S
H309 C320 0.950 . S
H310 C322 0.950 . S
H311 C323 0.950 . S
C312 H304 0.950 . S
C312 C313 1.386 . S
C312 C314 1.391 . S
C313 C312 1.386 . S
C313 C317 1.393 . S
C314 H306 0.950 . S
C314 C312 1.391 . S
C314 C315 1.400 . S
C315 C314 1.400 . S
C315 C316 1.398 . S
C315 C321 1.491 1_545 S
C316 H307 0.950 . S
C316 C315 1.398 . S
C316 C317 1.391 . S
C317 H305 0.950 . S
C317 C313 1.393 . S
C317 C316 1.391 . S
C318 H308 0.950 . S
C318 C319 1.386 . S
C318 C320 1.391 . S
C319 C318 1.386 . S
C319 C323 1.393 . S
C320 H309 0.950 . S
C320 C318 1.391 . S
C320 C321 1.400 . S
C321 C315 1.491 1_565 S
C321 C320 1.400 . S
C321 C322 1.398 . S
C322 H310 0.950 . S
C322 C321 1.398 . S
C322 C323 1.391 . S
C323 H311 0.950 . S
C323 C319 1.393 . S
C323 C322 1.391 . S
H324 C332 0.950 . S
H325 C337 0.950 . S
H326 C334 0.950 . S
H327 C336 0.950 . S
H328 C338 0.950 . S
H329 C340 0.950 . S
H330 C342 0.950 . S
H331 C343 0.950 . S
C332 H324 0.950 . S
C332 C333 1.386 . S
C332 C334 1.391 . S
C333 C332 1.386 . S
C333 C337 1.393 . S
C334 H326 0.950 . S
C334 C332 1.391 . S
C334 C335 1.400 . S
C335 C334 1.400 . S
C335 C336 1.398 . S
C335 C341 1.491 1_655 S
C336 H327 0.950 . S
C336 C335 1.398 . S
C336 C337 1.391 . S
C337 H325 0.950 . S
C337 C333 1.393 . S
C337 C336 1.391 . S
C338 H328 0.950 . S
C338 C339 1.386 . S
C338 C340 1.391 . S
C339 C338 1.386 . S
C339 C343 1.393 . S
C340 H329 0.950 . S
C340 C338 1.391 . S
C340 C341 1.400 . S
C341 C335 1.491 1_455 S
C341 C340 1.400 . S
C341 C342 1.398 . S
C342 H330 0.950 . S
C342 C341 1.398 . S
C342 C343 1.391 . S
C343 H331 0.950 . S
C343 C339 1.393 . S
C343 C342 1.391 . S
H344 C352 0.950 . S
H345 C357 0.950 . S
H346 C354 0.950 . S
H347 C356 0.950 . S
H348 C358 0.950 . S
H349 C360 0.950 . S
H350 C362 0.950 . S
H351 C363 0.950 . S
C352 H344 0.950 . S
C352 C353 1.386 . S
C352 C354 1.391 . S
C353 C352 1.386 . S
C353 C357 1.393 . S
C354 H346 0.950 . S
C354 C352 1.391 . S
C354 C355 1.400 . S
C355 C354 1.400 . S
C355 C356 1.398 . S
C355 C361 1.491 1_545 S
C356 H347 0.950 . S
C356 C355 1.398 . S
C356 C357 1.391 . S
C357 H345 0.950 . S
C357 C353 1.393 . S
C357 C356 1.391 . S
C358 H348 0.950 . S
C358 C359 1.386 . S
C358 C360 1.391 . S
C359 C358 1.386 . S
C359 C363 1.393 . S
C360 H349 0.950 . S
C360 C358 1.391 . S
C360 C361 1.400 . S
C361 C355 1.491 1_565 S
C361 C360 1.400 . S
C361 C362 1.398 . S
C362 H350 0.950 . S
C362 C361 1.398 . S
C362 C363 1.391 . S
C363 H351 0.950 . S
C363 C359 1.393 . S
C363 C362 1.391 . S
H364 C372 0.950 . S
H365 C377 0.950 . S
H366 C374 0.950 . S
H367 C376 0.950 . S
H368 C378 0.950 . S
H369 C380 0.950 . S
H370 C382 0.950 . S
H371 C383 0.950 . S
C372 H364 0.950 . S
C372 C373 1.386 . S
C372 C374 1.391 . S
C373 C372 1.386 . S
C373 C377 1.393 . S
C374 H366 0.950 . S
C374 C372 1.391 . S
C374 C375 1.400 . S
C375 C374 1.400 . S
C375 C376 1.398 . S
C375 C381 1.491 1_455 S
C376 H367 0.950 . S
C376 C375 1.398 . S
C376 C377 1.391 . S
C377 H365 0.950 . S
C377 C373 1.393 . S
C377 C376 1.391 . S
C378 H368 0.950 . S
C378 C379 1.386 . S
C378 C380 1.391 . S
C379 C378 1.386 . S
C379 C383 1.393 . S
C380 H369 0.950 . S
C380 C378 1.391 . S
C380 C381 1.400 . S
C381 C375 1.491 1_655 S
C381 C380 1.400 . S
C381 C382 1.398 . S
C382 H370 0.950 . S
C382 C381 1.398 . S
C382 C383 1.391 . S
C383 H371 0.950 . S
C383 C379 1.393 . S
C383 C382 1.391 . S
H384 C392 0.950 . S
H385 C397 0.950 . S
H386 C394 0.950 . S
H387 C396 0.950 . S
H388 C398 0.950 . S
H389 C400 0.950 . S
H390 C402 0.950 . S
H391 C403 0.950 . S
C392 H384 0.950 . S
C392 C393 1.384 . S
C392 C394 1.391 . S
C393 C392 1.384 . S
C393 C397 1.394 1_554 S
C394 H386 0.950 . S
C394 C392 1.391 . S
C394 C395 1.400 . S
C395 C394 1.400 . S
C395 C396 1.398 1_554 S
C395 C401 1.491 . S
C396 H387 0.950 . S
C396 C395 1.398 1_556 S
C396 C397 1.391 . S
C397 H385 0.950 . S
C397 C393 1.394 1_556 S
C397 C396 1.391 . S
C398 H388 0.950 . S
C398 C399 1.386 1_556 S
C398 C400 1.391 . S
C399 C398 1.386 1_554 S
C399 C403 1.393 . S
C400 H389 0.950 . S
C400 C398 1.391 . S
C400 C401 1.400 1_556 S
C401 C395 1.491 . S
C401 C400 1.400 1_554 S
C401 C402 1.398 . S
C402 H390 0.950 . S
C402 C401 1.398 . S
C402 C403 1.391 . S
C403 H391 0.950 . S
C403 C399 1.393 . S
C403 C402 1.391 . S
H404 C412 0.950 . S
H405 C417 0.950 . S
H406 C414 0.950 . S
H407 C416 0.950 . S
H408 C418 0.950 . S
H409 C420 0.950 . S
H410 C422 0.950 . S
H411 C423 0.950 . S
C412 H404 0.950 . S
C412 C413 1.386 1_556 S
C412 C414 1.391 . S
C413 C412 1.386 1_554 S
C413 C417 1.393 . S
C414 H406 0.950 . S
C414 C412 1.391 . S
C414 C415 1.385 1_556 S
C415 C414 1.385 1_554 S
C415 C416 1.413 . S
C415 C421 1.491 . S
C416 H407 0.950 . S
C416 C415 1.413 . S
C416 C417 1.391 . S
C417 H405 0.950 . S
C417 C413 1.393 . S
C417 C416 1.391 . S
C418 H408 0.950 . S
C418 C419 1.388 . S
C418 C420 1.391 . S
C419 C418 1.388 . S
C419 C423 1.391 1_554 S
C420 H409 0.950 . S
C420 C418 1.391 . S
C420 C421 1.400 . S
C421 C415 1.491 . S
C421 C420 1.400 . S
C421 C422 1.398 1_554 S
C422 H410 0.950 . S
C422 C421 1.398 1_556 S
C422 C423 1.391 . S
C423 H411 0.950 . S
C423 C419 1.391 1_556 S
C423 C422 1.391 . S
H424 C432 0.950 . S
H425 C437 0.950 . S
H426 C434 0.950 . S
H427 C436 0.950 . S
H428 C438 0.950 . S
H429 C440 0.950 . S
H430 C442 0.950 . S
H431 C443 0.950 . S
C432 H424 0.950 . S
C432 C433 1.382 1_556 S
C432 C434 1.391 . S
C433 C432 1.382 1_554 S
C433 C437 1.396 . S
C434 H426 0.950 . S
C434 C432 1.391 . S
C434 C435 1.400 1_556 S
C435 C434 1.400 1_554 S
C435 C436 1.398 . S
C435 C441 1.491 . S
C436 H427 0.950 . S
C436 C435 1.398 . S
C436 C437 1.391 . S
C437 H425 0.950 . S
C437 C433 1.396 . S
C437 C436 1.391 . S
C438 H428 0.950 . S
C438 C439 1.386 . S
C438 C440 1.391 . S
C439 C438 1.386 . S
C439 C443 1.393 1_554 S
C440 H429 0.950 . S
C440 C438 1.391 . S
C440 C441 1.418 . S
C441 C435 1.491 . S
C441 C440 1.418 . S
C441 C442 1.380 1_554 S
C442 H430 0.950 . S
C442 C441 1.380 1_556 S
C442 C443 1.391 . S
C443 H431 0.950 . S
C443 C439 1.393 1_556 S
C443 C442 1.391 . S
H444 C452 0.950 . S
H445 C457 0.950 . S
H446 C454 0.950 . S
H447 C456 0.950 . S
H448 C458 0.950 . S
H449 C460 0.950 . S
H450 C462 0.950 . S
H451 C463 0.950 . S
C452 H444 0.950 . S
C452 C453 1.386 . S
C452 C454 1.391 . S
C453 C452 1.386 . S
C453 C457 1.393 1_554 S
C454 H446 0.950 . S
C454 C452 1.391 . S
C454 C455 1.414 . S
C455 C454 1.414 . S
C455 C456 1.385 1_554 S
C455 C461 1.491 . S
C456 H447 0.950 . S
C456 C455 1.385 1_556 S
C456 C457 1.391 . S
C457 H445 0.950 . S
C457 C453 1.393 1_556 S
C457 C456 1.391 . S
C458 H448 0.950 . S
C458 C459 1.378 1_556 S
C458 C460 1.391 . S
C459 C458 1.378 1_554 S
C459 C463 1.401 . S
C460 H449 0.950 . S
C460 C458 1.391 . S
C460 C461 1.400 1_556 S
C461 C455 1.491 . S
C461 C460 1.400 1_554 S
C461 C462 1.398 . S
C462 H450 0.950 . S
C462 C461 1.398 . S
C462 C463 1.391 . S
C463 H451 0.950 . S
C463 C459 1.401 . S
C463 C462 1.391 . S
H464 C472 0.950 . S
H465 C477 0.950 . S
H466 C474 0.950 . S
H467 C476 0.950 . S
H468 C478 0.950 . S
H469 C480 0.950 . S
H470 C482 0.950 . S
H471 C483 0.950 . S
C472 H464 0.950 . S
C472 C473 1.386 . S
C472 C474 1.391 . S
C473 C472 1.386 . S
C473 C477 1.393 . S
C474 H466 0.950 . S
C474 C472 1.391 . S
C474 C475 1.400 . S
C475 C474 1.400 . S
C475 C476 1.398 . S
C475 C481 1.491 . S
C476 H467 0.950 . S
C476 C475 1.398 . S
C476 C477 1.391 . S
C477 H465 0.950 . S
C477 C473 1.393 . S
C477 C476 1.391 . S
C478 H468 0.950 . S
C478 C479 1.386 . S
C478 C480 1.391 . S
C479 C478 1.386 . S
C479 C483 1.393 . S
C480 H469 0.950 . S
C480 C478 1.391 . S
C480 C481 1.400 . S
C481 C475 1.491 . S
C481 C480 1.400 . S
C481 C482 1.398 . S
C482 H470 0.950 . S
C482 C481 1.398 . S
C482 C483 1.391 . S
C483 H471 0.950 . S
C483 C479 1.393 . S
C483 C482 1.391 . S
H484 C492 0.950 . S
H485 C497 0.950 . S
H486 C494 0.950 . S
H487 C496 0.950 . S
H488 C498 0.950 . S
H489 C500 0.950 . S
H490 C502 0.950 . S
H491 C503 0.950 . S
C492 H484 0.950 . S
C492 C493 1.386 . S
C492 C494 1.391 . S
C493 C492 1.386 . S
C493 C497 1.393 . S
C494 H486 0.950 . S
C494 C492 1.391 . S
C494 C495 1.400 . S
C495 C494 1.400 . S
C495 C496 1.398 . S
C495 C501 1.491 . S
C496 H487 0.950 . S
C496 C495 1.398 . S
C496 C497 1.391 . S
C497 H485 0.950 . S
C497 C493 1.393 . S
C497 C496 1.391 . S
C498 H488 0.950 . S
C498 C499 1.386 . S
C498 C500 1.391 . S
C499 C498 1.386 . S
C499 C503 1.393 . S
C500 H489 0.950 . S
C500 C498 1.391 . S
C500 C501 1.400 . S
C501 C495 1.491 . S
C501 C500 1.400 . S
C501 C502 1.398 . S
C502 H490 0.950 . S
C502 C501 1.398 . S
C502 C503 1.391 . S
C503 H491 0.950 . S
C503 C499 1.393 . S
C503 C502 1.391 . S
H504 C512 0.950 . S
H505 C517 0.950 . S
H506 C514 0.950 . S
H507 C516 0.950 . S
H508 C518 0.950 . S
H509 C520 0.950 . S
H510 C522 0.950 . S
H511 C523 0.950 . S
C512 H504 0.950 . S
C512 C513 1.386 . S
C512 C514 1.391 . S
C513 C512 1.386 . S
C513 C517 1.393 . S
C514 H506 0.950 . S
C514 C512 1.391 . S
C514 C515 1.400 . S
C515 C514 1.400 . S
C515 C516 1.398 . S
C515 C521 1.491 . S
C516 H507 0.950 . S
C516 C515 1.398 . S
C516 C517 1.391 . S
C517 H505 0.950 . S
C517 C513 1.393 . S
C517 C516 1.391 . S
C518 H508 0.950 . S
C518 C519 1.386 . S
C518 C520 1.391 . S
C519 C518 1.386 . S
C519 C523 1.393 . S
C520 H509 0.950 . S
C520 C518 1.391 . S
C520 C521 1.400 . S
C521 C515 1.491 . S
C521 C520 1.400 . S
C521 C522 1.398 . S
C522 H510 0.950 . S
C522 C521 1.398 . S
C522 C523 1.391 . S
C523 H511 0.950 . S
C523 C519 1.393 . S
C523 C522 1.391 . S
H524 C532 0.950 . S
H525 C537 0.950 . S
H526 C534 0.950 . S
H527 C536 0.950 . S
H528 C538 0.950 . S
H529 C540 0.950 . S
H530 C542 0.950 . S
H531 C543 0.950 . S
C532 H524 0.950 . S
C532 C533 1.386 . S
C532 C534 1.391 . S
C533 C532 1.386 . S
C533 C537 1.393 . S
C534 H526 0.950 . S
C534 C532 1.391 . S
C534 C535 1.400 . S
C535 C534 1.400 . S
C535 C536 1.398 . S
C535 C541 1.491 . S
C536 H527 0.950 . S
C536 C535 1.398 . S
C536 C537 1.391 . S
C537 H525 0.950 . S
C537 C533 1.393 . S
C537 C536 1.391 . S
C538 H528 0.950 . S
C538 C539 1.386 . S
C538 C540 1.391 . S
C539 C538 1.386 . S
C539 C543 1.393 . S
C540 H529 0.950 . S
C540 C538 1.391 . S
C540 C541 1.400 . S
C541 C535 1.491 . S
C541 C540 1.400 . S
C541 C542 1.398 . S
C542 H530 0.950 . S
C542 C541 1.398 . S
C542 C543 1.391 . S
C543 H531 0.950 . S
C543 C539 1.393 . S
C543 C542 1.391 . S
H544 C552 0.950 . S
H545 C557 0.950 . S
H546 C554 0.950 . S
H547 C556 0.950 . S
H548 C558 0.950 . S
H549 C560 0.950 . S
H550 C562 0.950 . S
H551 C563 0.950 . S
C552 H544 0.950 . S
C552 C553 1.386 . S
C552 C554 1.391 . S
C553 C552 1.386 . S
C553 C557 1.393 . S
C554 H546 0.950 . S
C554 C552 1.391 . S
C554 C555 1.400 . S
C555 C554 1.400 . S
C555 C556 1.398 . S
C555 C561 1.491 . S
C556 H547 0.950 . S
C556 C555 1.398 . S
C556 C557 1.391 . S
C557 H545 0.950 . S
C557 C553 1.393 . S
C557 C556 1.391 . S
C558 H548 0.950 . S
C558 C559 1.386 . S
C558 C560 1.391 . S
C559 C558 1.386 . S
C559 C563 1.393 . S
C560 H549 0.950 . S
C560 C558 1.391 . S
C560 C561 1.400 . S
C561 C555 1.491 . S
C561 C560 1.400 . S
C561 C562 1.398 . S
C562 H550 0.950 . S
C562 C561 1.398 . S
C562 C563 1.391 . S
C563 H551 0.950 . S
C563 C559 1.393 . S
C563 C562 1.391 . S
H564 C572 0.950 . S
H565 C577 0.950 . S
H566 C574 0.950 . S
H567 C576 0.950 . S
H568 C578 0.950 . S
H569 C580 0.950 . S
H570 C582 0.950 . S
H571 C583 0.950 . S
C572 H564 0.950 . S
C572 C573 1.386 . S
C572 C574 1.391 . S
C573 C572 1.386 . S
C573 C577 1.393 . S
C574 H566 0.950 . S
C574 C572 1.391 . S
C574 C575 1.400 . S
C575 C574 1.400 . S
C575 C576 1.398 . S
C575 C581 1.491 . S
C576 H567 0.950 . S
C576 C575 1.398 . S
C576 C577 1.391 . S
C577 H565 0.950 . S
C577 C573 1.393 . S
C577 C576 1.391 . S
C578 H568 0.950 . S
C578 C579 1.386 . S
C578 C580 1.391 . S
C579 C578 1.386 . S
C579 C583 1.393 . S
C580 H569 0.950 . S
C580 C578 1.391 . S
C580 C581 1.400 . S
C581 C575 1.491 . S
C581 C580 1.400 . S
C581 C582 1.398 . S
C582 H570 0.950 . S
C582 C581 1.398 . S
C582 C583 1.391 . S
C583 H571 0.950 . S
C583 C579 1.393 . S
C583 C582 1.391 . S
H584 C592 0.950 . S
H585 C597 0.950 . S
H586 C594 0.950 . S
H587 C596 0.950 . S
H588 C598 0.950 . S
H589 C600 0.950 . S
H590 C602 0.950 . S
H591 C603 0.950 . S
C592 H584 0.950 . S
C592 C593 1.386 . S
C592 C594 1.391 . S
C593 C592 1.386 . S
C593 C597 1.393 . S
C594 H586 0.950 . S
C594 C592 1.391 . S
C594 C595 1.400 . S
C595 C594 1.400 . S
C595 C596 1.398 . S
C595 C601 1.491 . S
C596 H587 0.950 . S
C596 C595 1.398 . S
C596 C597 1.391 . S
C597 H585 0.950 . S
C597 C593 1.393 . S
C597 C596 1.391 . S
C598 H588 0.950 . S
C598 C599 1.386 . S
C598 C600 1.391 . S
C599 C598 1.386 . S
C599 C603 1.393 . S
C600 H589 0.950 . S
C600 C598 1.391 . S
C600 C601 1.400 . S
C601 C595 1.491 . S
C601 C600 1.400 . S
C601 C602 1.398 . S
C602 H590 0.950 . S
C602 C601 1.398 . S
C602 C603 1.391 . S
C603 H591 0.950 . S
C603 C599 1.393 . S
C603 C602 1.391 . S
H604 C612 0.950 . S
H605 C617 0.950 . S
H606 C614 0.950 . S
H607 C616 0.950 . S
H608 C618 0.950 . S
H609 C620 0.950 . S
H610 C622 0.950 . S
H611 C623 0.950 . S
C612 H604 0.950 . S
C612 C613 1.386 . S
C612 C614 1.391 . S
C613 C612 1.386 . S
C613 C617 1.393 . S
C614 H606 0.950 . S
C614 C612 1.391 . S
C614 C615 1.400 . S
C615 C614 1.400 . S
C615 C616 1.398 . S
C615 C621 1.491 . S
C616 H607 0.950 . S
C616 C615 1.398 . S
C616 C617 1.391 . S
C617 H605 0.950 . S
C617 C613 1.393 . S
C617 C616 1.391 . S
C618 H608 0.950 . S
C618 C619 1.386 . S
C618 C620 1.391 . S
C619 C618 1.386 . S
C619 C623 1.393 . S
C620 H609 0.950 . S
C620 C618 1.391 . S
C620 C621 1.400 . S
C621 C615 1.491 . S
C621 C620 1.400 . S
C621 C622 1.398 . S
C622 H610 0.950 . S
C622 C621 1.398 . S
C622 C623 1.391 . S
C623 H611 0.950 . S
C623 C619 1.393 . S
C623 C622 1.391 . S
H624 C632 0.950 . S
H625 C637 0.950 . S
H626 C634 0.950 . S
H627 C636 0.950 . S
H628 C638 0.950 . S
H629 C640 0.950 . S
H630 C642 0.950 . S
H631 C643 0.950 . S
C632 H624 0.950 . S
C632 C633 1.386 . S
C632 C634 1.391 . S
C633 C632 1.386 . S
C633 C637 1.393 . S
C634 H626 0.950 . S
C634 C632 1.391 . S
C634 C635 1.400 . S
C635 C634 1.400 . S
C635 C636 1.398 . S
C635 C641 1.491 . S
C636 H627 0.950 . S
C636 C635 1.398 . S
C636 C637 1.391 . S
C637 H625 0.950 . S
C637 C633 1.393 . S
C637 C636 1.391 . S
C638 H628 0.950 . S
C638 C639 1.386 . S
C638 C640 1.391 . S
C639 C638 1.386 . S
C639 C643 1.393 . S
C640 H629 0.950 . S
C640 C638 1.391 . S
C640 C641 1.400 . S
C641 C635 1.491 . S
C641 C640 1.400 . S
C641 C642 1.398 . S
C642 H630 0.950 . S
C642 C641 1.398 . S
C642 C643 1.391 . S
C643 H631 0.950 . S
C643 C639 1.393 . S
C643 C642 1.391 . S
H644 C652 0.950 . S
H645 C657 0.950 . S
H646 C654 0.950 . S
H647 C656 0.950 . S
H648 C658 0.950 . S
H649 C660 0.950 . S
H650 C662 0.950 . S
H651 C663 0.950 . S
C652 H644 0.950 . S
C652 C653 1.386 . S
C652 C654 1.391 . S
C653 C652 1.386 . S
C653 C657 1.393 . S
C654 H646 0.950 . S
C654 C652 1.391 . S
C654 C655 1.400 . S
C655 C654 1.400 . S
C655 C656 1.398 . S
C655 C661 1.491 . S
C656 H647 0.950 . S
C656 C655 1.398 . S
C656 C657 1.391 . S
C657 H645 0.950 . S
C657 C653 1.393 . S
C657 C656 1.391 . S
C658 H648 0.950 . S
C658 C659 1.386 . S
C658 C660 1.391 . S
C659 C658 1.386 . S
C659 C663 1.393 . S
C660 H649 0.950 . S
C660 C658 1.391 . S
C660 C661 1.400 . S
C661 C655 1.491 . S
C661 C660 1.400 . S
C661 C662 1.398 . S
C662 H650 0.950 . S
C662 C661 1.398 . S
C662 C663 1.391 . S
C663 H651 0.950 . S
C663 C659 1.393 . S
C663 C662 1.391 . S
H664 C672 0.950 . S
H665 C677 0.950 . S
H666 C674 0.950 . S
H667 C676 0.950 . S
H668 C678 0.950 . S
H669 C680 0.950 . S
H670 C682 0.950 . S
H671 C683 0.950 . S
C672 H664 0.950 . S
C672 C673 1.386 . S
C672 C674 1.391 . S
C673 C672 1.386 . S
C673 C677 1.393 . S
C674 H666 0.950 . S
C674 C672 1.391 . S
C674 C675 1.400 . S
C675 C674 1.400 . S
C675 C676 1.398 . S
C675 C681 1.491 . S
C676 H667 0.950 . S
C676 C675 1.398 . S
C676 C677 1.391 . S
C677 H665 0.950 . S
C677 C673 1.393 . S
C677 C676 1.391 . S
C678 H668 0.950 . S
C678 C679 1.386 . S
C678 C680 1.391 . S
C679 C678 1.386 . S
C679 C683 1.393 . S
C680 H669 0.950 . S
C680 C678 1.391 . S
C680 C681 1.400 . S
C681 C675 1.491 . S
C681 C680 1.400 . S
C681 C682 1.398 . S
C682 H670 0.950 . S
C682 C681 1.398 . S
C682 C683 1.391 . S
C683 H671 0.950 . S
C683 C679 1.393 . S
C683 C682 1.391 . S
H684 C692 0.950 . S
H685 C697 0.950 . S
H686 C694 0.950 . S
H687 C696 0.950 . S
H688 C698 0.950 . S
H689 C700 0.950 . S
H690 C702 0.950 . S
H691 C703 0.950 . S
C692 H684 0.950 . S
C692 C693 1.386 . S
C692 C694 1.391 . S
C693 C692 1.386 . S
C693 C697 1.393 . S
C694 H686 0.950 . S
C694 C692 1.391 . S
C694 C695 1.400 . S
C695 C694 1.400 . S
C695 C696 1.398 . S
C695 C701 1.491 . S
C696 H687 0.950 . S
C696 C695 1.398 . S
C696 C697 1.391 . S
C697 H685 0.950 . S
C697 C693 1.393 . S
C697 C696 1.391 . S
C698 H688 0.950 . S
C698 C699 1.386 . S
C698 C700 1.391 . S
C699 C698 1.386 . S
C699 C703 1.393 . S
C700 H689 0.950 . S
C700 C698 1.391 . S
C700 C701 1.400 . S
C701 C695 1.491 . S
C701 C700 1.400 . S
C701 C702 1.398 . S
C702 H690 0.950 . S
C702 C701 1.398 . S
C702 C703 1.391 . S
C703 H691 0.950 . S
C703 C699 1.393 . S
C703 C702 1.391 . S
H704 C712 0.950 . S
H705 C717 0.950 . S
H706 C714 0.950 . S
H707 C716 0.950 . S
H708 C718 0.950 . S
H709 C720 0.950 . S
H710 C722 0.950 . S
H711 C723 0.950 . S
C712 H704 0.950 . S
C712 C713 1.386 . S
C712 C714 1.391 . S
C713 C712 1.386 . S
C713 C717 1.393 . S
C714 H706 0.950 . S
C714 C712 1.391 . S
C714 C715 1.400 . S
C715 C714 1.400 . S
C715 C716 1.398 . S
C715 C721 1.491 . S
C716 H707 0.950 . S
C716 C715 1.398 . S
C716 C717 1.391 . S
C717 H705 0.950 . S
C717 C713 1.393 . S
C717 C716 1.391 . S
C718 H708 0.950 . S
C718 C719 1.386 . S
C718 C720 1.391 . S
C719 C718 1.386 . S
C719 C723 1.393 . S
C720 H709 0.950 . S
C720 C718 1.391 . S
C720 C721 1.400 . S
C721 C715 1.491 . S
C721 C720 1.400 . S
C721 C722 1.398 . S
C722 H710 0.950 . S
C722 C721 1.398 . S
C722 C723 1.391 . S
C723 H711 0.950 . S
C723 C719 1.393 . S
C723 C722 1.391 . S
H724 C732 0.950 . S
H725 C737 0.950 . S
H726 C734 0.950 . S
H727 C736 0.950 . S
H728 C738 0.950 . S
H729 C740 0.950 . S
H730 C742 0.950 . S
H731 C743 0.950 . S
C732 H724 0.950 . S
C732 C733 1.386 . S
C732 C734 1.391 . S
C733 C732 1.386 . S
C733 C737 1.393 . S
C734 H726 0.950 . S
C734 C732 1.391 . S
C734 C735 1.400 . S
C735 C734 1.400 . S
C735 C736 1.398 . S
C735 C741 1.491 . S
C736 H727 0.950 . S
C736 C735 1.398 . S
C736 C737 1.391 . S
C737 H725 0.950 . S
C737 C733 1.393 . S
C737 C736 1.391 . S
C738 H728 0.950 . S
C738 C739 1.386 . S
C738 C740 1.391 . S
C739 C738 1.386 . S
C739 C743 1.393 . S
C740 H729 0.950 . S
C740 C738 1.391 . S
C740 C741 1.400 . S
C741 C735 1.491 . S
C741 C740 1.400 . S
C741 C742 1.398 . S
C742 H730 0.950 . S
C742 C741 1.398 . S
C742 C743 1.391 . S
C743 H731 0.950 . S
C743 C739 1.393 . S
C743 C742 1.391 . S
H744 C752 0.950 . S
H745 C757 0.950 . S
H746 C754 0.950 . S
H747 C756 0.950 . S
H748 C758 0.950 . S
H749 C760 0.950 . S
H750 C762 0.950 . S
H751 C763 0.950 . S
C752 H744 0.950 . S
C752 C753 1.386 . S
C752 C754 1.391 . S
C753 C752 1.386 . S
C753 C757 1.393 . S
C754 H746 0.950 . S
C754 C752 1.391 . S
C754 C755 1.400 . S
C755 C754 1.400 . S
C755 C756 1.398 . S
C755 C761 1.491 . S
C756 H747 0.950 . S
C756 C755 1.398 . S
C756 C757 1.391 . S
C757 H745 0.950 . S
C757 C753 1.393 . S
C757 C756 1.391 . S
C758 H748 0.950 . S
C758 C759 1.386 . S
C758 C760 1.391 . S
C759 C758 1.386 . S
C759 C763 1.393 . S
C760 H749 0.950 . S
C760 C758 1.391 . S
C760 C761 1.400 . S
C761 C755 1.491 . S
C761 C760 1.400 . S
C761 C762 1.398 . S
C762 H750 0.950 . S
C762 C761 1.398 . S
C762 C763 1.391 . S
C763 H751 0.950 . S
C763 C759 1.393 . S
C763 C762 1.391 . S
H764 C772 0.950 . S
H765 C777 0.950 . S
H766 C774 0.950 . S
H767 C776 0.950 . S
H768 C778 0.950 . S
H769 C780 0.950 . S
H770 C782 0.950 . S
H771 C783 0.950 . S
C772 H764 0.950 . S
C772 C773 1.386 . S
C772 C774 1.391 . S
C773 C772 1.386 . S
C773 C777 1.393 . S
C774 H766 0.950 . S
C774 C772 1.391 . S
C774 C775 1.400 . S
C775 C774 1.400 . S
C775 C776 1.398 . S
C775 C781 1.491 . S
C776 H767 0.950 . S
C776 C775 1.398 . S
C776 C777 1.391 . S
C777 H765 0.950 . S
C777 C773 1.393 . S
C777 C776 1.391 . S
C778 H768 0.950 . S
C778 C779 1.386 . S
C778 C780 1.391 . S
C779 C778 1.386 . S
C779 C783 1.393 . S
C780 H769 0.950 . S
C780 C778 1.391 . S
C780 C781 1.400 . S
C781 C775 1.491 . S
C781 C780 1.400 . S
C781 C782 1.398 . S
C782 H770 0.950 . S
C782 C781 1.398 . S
C782 C783 1.391 . S
C783 H771 0.950 . S
C783 C779 1.393 . S
C783 C782 1.391 . S
H784 C792 0.950 . S
H785 C797 0.950 . S
H786 C794 0.950 . S
H787 C796 0.950 . S
H788 C798 0.950 . S
H789 C800 0.950 . S
H790 C802 0.950 . S
H791 C803 0.950 . S
C792 H784 0.950 . S
C792 C793 1.386 . S
C792 C794 1.391 . S
C793 C792 1.386 . S
C793 C797 1.393 . S
C794 H786 0.950 . S
C794 C792 1.391 . S
C794 C795 1.400 . S
C795 C794 1.400 . S
C795 C796 1.398 . S
C795 C801 1.491 . S
C796 H787 0.950 . S
C796 C795 1.398 . S
C796 C797 1.391 . S
C797 H785 0.950 . S
C797 C793 1.393 . S
C797 C796 1.391 . S
C798 H788 0.950 . S
C798 C799 1.386 . S
C798 C800 1.391 . S
C799 C798 1.386 . S
C799 C803 1.393 . S
C800 H789 0.950 . S
C800 C798 1.391 . S
C800 C801 1.400 . S
C801 C795 1.491 . S
C801 C800 1.400 . S
C801 C802 1.398 . S
C802 H790 0.950 . S
C802 C801 1.398 . S
C802 C803 1.391 . S
C803 H791 0.950 . S
C803 C799 1.393 . S
C803 C802 1.391 . S
H804 C812 0.950 . S
H805 C817 0.950 . S
H806 C814 0.950 . S
H807 C816 0.950 . S
H808 C818 0.950 . S
H809 C820 0.950 . S
H810 C822 0.950 . S
H811 C823 0.950 . S
C812 H804 0.950 . S
C812 C813 1.386 . S
C812 C814 1.391 . S
C813 C812 1.386 . S
C813 C817 1.393 . S
C814 H806 0.950 . S
C814 C812 1.391 . S
C814 C815 1.400 . S
C815 C814 1.400 . S
C815 C816 1.398 . S
C815 C821 1.491 . S
C816 H807 0.950 . S
C816 C815 1.398 . S
C816 C817 1.391 . S
C817 H805 0.950 . S
C817 C813 1.393 . S
C817 C816 1.391 . S
C818 H808 0.950 . S
C818 C819 1.386 . S
C818 C820 1.391 . S
C819 C818 1.386 . S
C819 C823 1.393 . S
C820 H809 0.950 . S
C820 C818 1.391 . S
C820 C821 1.400 . S
C821 C815 1.491 . S
C821 C820 1.400 . S
C821 C822 1.398 . S
C822 H810 0.950 . S
C822 C821 1.398 . S
C822 C823 1.391 . S
C823 H811 0.950 . S
C823 C819 1.393 . S
C823 C822 1.391 . S
H824 C832 0.950 . S
H825 C837 0.950 . S
H826 C834 0.950 . S
H827 C836 0.950 . S
H828 C838 0.950 . S
H829 C840 0.950 . S
H830 C842 0.950 . S
H831 C843 0.950 . S
C832 H824 0.950 . S
C832 C833 1.386 . S
C832 C834 1.391 . S
C833 C832 1.386 . S
C833 C837 1.393 . S
C834 H826 0.950 . S
C834 C832 1.391 . S
C834 C835 1.400 . S
C835 C834 1.400 . S
C835 C836 1.398 . S
C835 C841 1.491 . S
C836 H827 0.950 . S
C836 C835 1.398 . S
C836 C837 1.391 . S
C837 H825 0.950 . S
C837 C833 1.393 . S
C837 C836 1.391 . S
C838 H828 0.950 . S
C838 C839 1.386 . S
C838 C840 1.391 . S
C839 C838 1.386 . S
C839 C843 1.393 . S
C840 H829 0.950 . S
C840 C838 1.391 . S
C840 C841 1.400 . S
C841 C835 1.491 . S
C841 C840 1.400 . S
C841 C842 1.398 . S
C842 H830 0.950 . S
C842 C841 1.398 . S
C842 C843 1.391 . S
C843 H831 0.950 . S
C843 C839 1.393 . S
C843 C842 1.391 . S
H844 C852 0.950 . S
H845 C857 0.950 . S
H846 C854 0.950 . S
H847 C856 0.950 . S
H848 C858 0.950 . S
H849 C860 0.950 . S
H850 C862 0.950 . S
H851 C863 0.950 . S
C852 H844 0.950 . S
C852 C853 1.386 . S
C852 C854 1.391 . S
C853 C852 1.386 . S
C853 C857 1.393 . S
C854 H846 0.950 . S
C854 C852 1.391 . S
C854 C855 1.400 . S
C855 C854 1.400 . S
C855 C856 1.398 . S
C855 C861 1.491 . S
C856 H847 0.950 . S
C856 C855 1.398 . S
C856 C857 1.391 . S
C857 H845 0.950 . S
C857 C853 1.393 . S
C857 C856 1.391 . S
C858 H848 0.950 . S
C858 C859 1.386 . S
C858 C860 1.391 . S
C859 C858 1.386 . S
C859 C863 1.393 . S
C860 H849 0.950 . S
C860 C858 1.391 . S
C860 C861 1.400 . S
C861 C855 1.491 . S
C861 C860 1.400 . S
C861 C862 1.398 . S
C862 H850 0.950 . S
C862 C861 1.398 . S
C862 C863 1.391 . S
C863 H851 0.950 . S
C863 C859 1.393 . S
C863 C862 1.391 . S
C233 C67 1.178 . S
C239 C11 1.178 . S
C253 C81 1.192 . S
C259 C25 1.192 . S
C273 C95 1.178 . S
C279 C39 1.178 . S
C293 C109 1.186 . S
C299 C53 1.187 . S
C313 C179 1.187 . S
C319 C123 1.188 . S
C333 C193 1.192 . S
C339 C137 1.192 . S
C353 C151 1.191 . S
C359 C207 1.190 . S
C373 C221 1.178 . S
C379 C165 1.178 . S
C393 C4 1.100 1_554 S
C399 C74 1.104 . S
C413 C88 1.101 . S
C419 C18 1.104 1_554 S
C433 C32 1.104 1_554 S
C439 C102 1.101 . S
C453 C60 1.107 . S
C459 C46 1.100 1_554 S
C473 C186 1.098 . S
C479 C116 1.094 . S
C493 C200 1.095 . S
C499 C130 1.090 . S
C513 C144 1.109 . S
C519 C214 1.109 . S
C533 C158 1.088 . S
C539 C172 1.092 . S
C553 C215 1.219 . S
C559 C5 1.170 . S
C573 C173 1.178 . S
C579 C19 1.200 . S
C593 C187 1.209 . S
C599 C33 1.201 . S
C613 C201 1.222 . S
C619 C47 1.171 . S
C633 C131 1.216 . S
C639 C61 1.170 . S
C653 C145 1.180 . S
C659 C75 1.222 . S
C673 C89 1.171 . S
C679 C159 1.221 . S
C693 C103 1.170 . S
C699 C117 1.214 . S
C713 C194 1.677 . S
C719 C40 1.681 . S
C733 C208 1.681 . S
C739 C54 1.677 . S
C753 C222 1.676 . S
C759 C12 1.680 . S
C773 C26 1.681 . S
C779 C180 1.677 . S
C793 C166 1.677 . S
C799 C96 1.681 . S
C813 C110 1.681 . S
C819 C124 1.677 . S
C833 C138 1.677 . S
C839 C68 1.681 . S
C853 C152 1.676 . S
C859 C82 1.680 . S
