# Generated by pormake.
# Topology uka, (4)-cn, num edge types: 1
# Building blocks:
#     Node 0, Type 0, BuildingBlock: QUQFOY_clean_sbu_1, # of connection points: 4
#     Node 1, Type 0, BuildingBlock: QUQFOY_clean_sbu_1, # of connection points: 4
#     Node 2, Type 0, BuildingBlock: QUQFOY_clean_sbu_1, # of connection points: 4
#     Node 3, Type 0, BuildingBlock: QUQFOY_clean_sbu_1, # of connection points: 4
#     Node 4, Type 0, BuildingBlock: QUQFOY_clean_sbu_1, # of connection points: 4
#     Node 5, Type 0, BuildingBlock: QUQFOY_clean_sbu_1, # of connection points: 4
#     Node 6, Type 0, BuildingBlock: QUQFOY_clean_sbu_1, # of connection points: 4
#     Node 7, Type 0, BuildingBlock: QUQFOY_clean_sbu_1, # of connection points: 4
#     Node 8, Type 0, BuildingBlock: QUQFOY_clean_sbu_1, # of connection points: 4
#     Node 9, Type 0, BuildingBlock: QUQFOY_clean_sbu_1, # of connection points: 4
#     Node 10, Type 0, BuildingBlock: QUQFOY_clean_sbu_1, # of connection points: 4
#     Node 11, Type 0, BuildingBlock: QUQFOY_clean_sbu_1, # of connection points: 4
#     Node 12, Type 0, BuildingBlock: QUQFOY_clean_sbu_1, # of connection points: 4
#     Node 13, Type 0, BuildingBlock: QUQFOY_clean_sbu_1, # of connection points: 4
#     Node 14, Type 0, BuildingBlock: QUQFOY_clean_sbu_1, # of connection points: 4
#     Node 15, Type 0, BuildingBlock: QUQFOY_clean_sbu_1, # of connection points: 4
#     Node 16, Type 0, BuildingBlock: QUQFOY_clean_sbu_1, # of connection points: 4
#     Node 17, Type 0, BuildingBlock: QUQFOY_clean_sbu_1, # of connection points: 4
#     Node 18, Type 0, BuildingBlock: QUQFOY_clean_sbu_1, # of connection points: 4
#     Node 19, Type 0, BuildingBlock: QUQFOY_clean_sbu_1, # of connection points: 4
#     Node 20, Type 0, BuildingBlock: QUQFOY_clean_sbu_1, # of connection points: 4
#     Node 21, Type 0, BuildingBlock: QUQFOY_clean_sbu_1, # of connection points: 4
#     Node 22, Type 0, BuildingBlock: QUQFOY_clean_sbu_1, # of connection points: 4
#     Node 23, Type 0, BuildingBlock: QUQFOY_clean_sbu_1, # of connection points: 4
#     Node 24, Type 0, BuildingBlock: QUQFOY_clean_sbu_1, # of connection points: 4
#     Node 25, Type 0, BuildingBlock: QUQFOY_clean_sbu_1, # of connection points: 4
#     Node 26, Type 0, BuildingBlock: QUQFOY_clean_sbu_1, # of connection points: 4
#     Node 27, Type 0, BuildingBlock: QUQFOY_clean_sbu_1, # of connection points: 4
#     Node 28, Type 0, BuildingBlock: QUQFOY_clean_sbu_1, # of connection points: 4
#     Node 29, Type 0, BuildingBlock: QUQFOY_clean_sbu_1, # of connection points: 4
#     Node 30, Type 0, BuildingBlock: QUQFOY_clean_sbu_1, # of connection points: 4
#     Node 31, Type 0, BuildingBlock: QUQFOY_clean_sbu_1, # of connection points: 4
#     Edge 32, Type (0, 0), BuildingBlock: OJICUG_clean_linker_0, # of connection points: 2
#     Edge 33, Type (0, 0), BuildingBlock: OJICUG_clean_linker_0, # of connection points: 2
#     Edge 34, Type (0, 0), BuildingBlock: OJICUG_clean_linker_0, # of connection points: 2
#     Edge 35, Type (0, 0), BuildingBlock: OJICUG_clean_linker_0, # of connection points: 2
#     Edge 36, Type (0, 0), BuildingBlock: OJICUG_clean_linker_0, # of connection points: 2
#     Edge 37, Type (0, 0), BuildingBlock: OJICUG_clean_linker_0, # of connection points: 2
#     Edge 38, Type (0, 0), BuildingBlock: OJICUG_clean_linker_0, # of connection points: 2
#     Edge 39, Type (0, 0), BuildingBlock: OJICUG_clean_linker_0, # of connection points: 2
#     Edge 40, Type (0, 0), BuildingBlock: OJICUG_clean_linker_0, # of connection points: 2
#     Edge 41, Type (0, 0), BuildingBlock: OJICUG_clean_linker_0, # of connection points: 2
#     Edge 42, Type (0, 0), BuildingBlock: OJICUG_clean_linker_0, # of connection points: 2
#     Edge 43, Type (0, 0), BuildingBlock: OJICUG_clean_linker_0, # of connection points: 2
#     Edge 44, Type (0, 0), BuildingBlock: OJICUG_clean_linker_0, # of connection points: 2
#     Edge 45, Type (0, 0), BuildingBlock: OJICUG_clean_linker_0, # of connection points: 2
#     Edge 46, Type (0, 0), BuildingBlock: OJICUG_clean_linker_0, # of connection points: 2
#     Edge 47, Type (0, 0), BuildingBlock: OJICUG_clean_linker_0, # of connection points: 2
#     Edge 48, Type (0, 0), BuildingBlock: OJICUG_clean_linker_0, # of connection points: 2
#     Edge 49, Type (0, 0), BuildingBlock: OJICUG_clean_linker_0, # of connection points: 2
#     Edge 50, Type (0, 0), BuildingBlock: OJICUG_clean_linker_0, # of connection points: 2
#     Edge 51, Type (0, 0), BuildingBlock: OJICUG_clean_linker_0, # of connection points: 2
#     Edge 52, Type (0, 0), BuildingBlock: OJICUG_clean_linker_0, # of connection points: 2
#     Edge 53, Type (0, 0), BuildingBlock: OJICUG_clean_linker_0, # of connection points: 2
#     Edge 54, Type (0, 0), BuildingBlock: OJICUG_clean_linker_0, # of connection points: 2
#     Edge 55, Type (0, 0), BuildingBlock: OJICUG_clean_linker_0, # of connection points: 2
#     Edge 56, Type (0, 0), BuildingBlock: OJICUG_clean_linker_0, # of connection points: 2
#     Edge 57, Type (0, 0), BuildingBlock: OJICUG_clean_linker_0, # of connection points: 2
#     Edge 58, Type (0, 0), BuildingBlock: OJICUG_clean_linker_0, # of connection points: 2
#     Edge 59, Type (0, 0), BuildingBlock: OJICUG_clean_linker_0, # of connection points: 2
#     Edge 60, Type (0, 0), BuildingBlock: OJICUG_clean_linker_0, # of connection points: 2
#     Edge 61, Type (0, 0), BuildingBlock: OJICUG_clean_linker_0, # of connection points: 2
#     Edge 62, Type (0, 0), BuildingBlock: OJICUG_clean_linker_0, # of connection points: 2
#     Edge 63, Type (0, 0), BuildingBlock: OJICUG_clean_linker_0, # of connection points: 2
#     Edge 64, Type (0, 0), BuildingBlock: OJICUG_clean_linker_0, # of connection points: 2
#     Edge 65, Type (0, 0), BuildingBlock: OJICUG_clean_linker_0, # of connection points: 2
#     Edge 66, Type (0, 0), BuildingBlock: OJICUG_clean_linker_0, # of connection points: 2
#     Edge 67, Type (0, 0), BuildingBlock: OJICUG_clean_linker_0, # of connection points: 2
#     Edge 68, Type (0, 0), BuildingBlock: OJICUG_clean_linker_0, # of connection points: 2
#     Edge 69, Type (0, 0), BuildingBlock: OJICUG_clean_linker_0, # of connection points: 2
#     Edge 70, Type (0, 0), BuildingBlock: OJICUG_clean_linker_0, # of connection points: 2
#     Edge 71, Type (0, 0), BuildingBlock: OJICUG_clean_linker_0, # of connection points: 2
#     Edge 72, Type (0, 0), BuildingBlock: OJICUG_clean_linker_0, # of connection points: 2
#     Edge 73, Type (0, 0), BuildingBlock: OJICUG_clean_linker_0, # of connection points: 2
#     Edge 74, Type (0, 0), BuildingBlock: OJICUG_clean_linker_0, # of connection points: 2
#     Edge 75, Type (0, 0), BuildingBlock: OJICUG_clean_linker_0, # of connection points: 2
#     Edge 76, Type (0, 0), BuildingBlock: OJICUG_clean_linker_0, # of connection points: 2
#     Edge 77, Type (0, 0), BuildingBlock: OJICUG_clean_linker_0, # of connection points: 2
#     Edge 78, Type (0, 0), BuildingBlock: OJICUG_clean_linker_0, # of connection points: 2
#     Edge 79, Type (0, 0), BuildingBlock: OJICUG_clean_linker_0, # of connection points: 2
#     Edge 80, Type (0, 0), BuildingBlock: OJICUG_clean_linker_0, # of connection points: 2
#     Edge 81, Type (0, 0), BuildingBlock: OJICUG_clean_linker_0, # of connection points: 2
#     Edge 82, Type (0, 0), BuildingBlock: OJICUG_clean_linker_0, # of connection points: 2
#     Edge 83, Type (0, 0), BuildingBlock: OJICUG_clean_linker_0, # of connection points: 2
#     Edge 84, Type (0, 0), BuildingBlock: OJICUG_clean_linker_0, # of connection points: 2
#     Edge 85, Type (0, 0), BuildingBlock: OJICUG_clean_linker_0, # of connection points: 2
#     Edge 86, Type (0, 0), BuildingBlock: OJICUG_clean_linker_0, # of connection points: 2
#     Edge 87, Type (0, 0), BuildingBlock: OJICUG_clean_linker_0, # of connection points: 2
#     Edge 88, Type (0, 0), BuildingBlock: OJICUG_clean_linker_0, # of connection points: 2
#     Edge 89, Type (0, 0), BuildingBlock: OJICUG_clean_linker_0, # of connection points: 2
#     Edge 90, Type (0, 0), BuildingBlock: OJICUG_clean_linker_0, # of connection points: 2
#     Edge 91, Type (0, 0), BuildingBlock: OJICUG_clean_linker_0, # of connection points: 2
#     Edge 92, Type (0, 0), BuildingBlock: OJICUG_clean_linker_0, # of connection points: 2
#     Edge 93, Type (0, 0), BuildingBlock: OJICUG_clean_linker_0, # of connection points: 2
#     Edge 94, Type (0, 0), BuildingBlock: OJICUG_clean_linker_0, # of connection points: 2
#     Edge 95, Type (0, 0), BuildingBlock: OJICUG_clean_linker_0, # of connection points: 2
# Relax obj value: 0.072
# Max RMSD: 0.095
# Mean RMSD: 0.095
data_MOF--net-uka--node1-QUQFOY_clean_sbu_1--edge1-OJICUG_clean_linker_0
_symmetry_space_group_name_H-M    P1
_symmetry_Int_Tables_number       1
_symmetry_cell_setting            triclinic
loop_
_symmetry_equiv_pos_as_xyz
'x, y, z'
_cell_length_a     47.574857
_cell_length_b     47.562439
_cell_length_c     32.45338
_cell_angle_alpha  89.998859
_cell_angle_beta   89.99731
_cell_angle_gamma 90.049949
loop_
_atom_site_label
_atom_site_type_symbol
_atom_site_fract_x
_atom_site_fract_y
_atom_site_fract_z
_atom_type_partial_charge
O0 O 0.13528 0.22111 0.33712 0.0
Cd1 Cd 0.15286 0.2588 0.32212 0.0
Cd2 Cd 0.10465 0.26309 0.27415 0.0
O3 O 0.09995 0.2214 0.29307 0.0
O4 O 0.19339 0.25487 0.336 0.0
O5 O 0.17773 0.26162 0.27248 0.0
C6 C 0.19861 0.25715 0.29714 0.0
C7 C 0.0907 0.27793 0.208 0.0
C8 C 0.11392 0.20925 0.32146 0.0
C9 C 0.1124 0.30205 0.34832 0.0
O10 O 0.09719 0.29294 0.31899 0.0
O11 O 0.13681 0.29222 0.35474 0.0
O12 O 0.07277 0.26868 0.23441 0.0
O13 O 0.11693 0.27766 0.2182 0.0
O14 O 0.03559 0.88038 0.57965 0.0
Cd15 Cd 0.99544 0.8912 0.56242 0.0
Cd16 Cd 0.00168 0.84279 0.52242 0.0
O17 O 0.04428 0.84897 0.53159 0.0
O18 O 0.99335 0.9319 0.57635 0.0
O19 O 0.99054 0.91567 0.51255 0.0
C20 C 0.99181 0.93691 0.53737 0.0
C21 C 0.98186 0.82781 0.45992 0.0
C22 C 0.05267 0.86392 0.5617 0.0
C23 C 0.96487 0.84404 0.59784 0.0
O24 O 0.98065 0.82955 0.57445 0.0
O25 O 0.96373 0.87062 0.59408 0.0
O26 O -0.00229 0.81147 0.48146 0.0
O27 O 0.97823 0.85326 0.47284 0.0
O28 O 0.36815 0.75942 0.83333 0.0
Cd29 Cd 0.34662 0.72285 0.82314 0.0
Cd30 Cd 0.39536 0.7079 0.77788 0.0
O31 O 0.40623 0.74793 0.79822 0.0
O32 O 0.3067 0.73181 0.8358 0.0
O33 O 0.32143 0.71876 0.77396 0.0
C34 C 0.30111 0.72689 0.79759 0.0
C35 C 0.41407 0.69232 0.71438 0.0
C36 C 0.39285 0.76507 0.82113 0.0
C37 C 0.37959 0.67425 0.85466 0.0
O38 O 0.39524 0.67761 0.82326 0.0
O39 O 0.35855 0.69012 0.86091 0.0
O40 O 0.42993 0.69799 0.74532 0.0
O41 O 0.38737 0.69597 0.71876 0.0
O42 O 0.46977 0.11959 0.07645 0.0
Cd43 Cd 0.50306 0.09274 0.07069 0.0
Cd44 Cd 0.52751 0.13738 0.02607 0.0
O45 O 0.491 0.15612 0.04802 0.0
O46 O 0.48856 0.05447 0.08423 0.0
O47 O 0.50553 0.06605 0.02299 0.0
C48 C 0.49425 0.04737 0.0468 0.0
C49 C 0.54488 0.15296 0.96162 0.0
C50 C 0.47017 0.14553 0.06727 0.0
C51 C 0.55617 0.11741 0.1042 0.0
O52 O 0.55787 0.13088 0.07044 0.0
O53 O 0.53546 0.10121 0.11123 0.0
O54 O 0.54605 0.16847 0.994 0.0
O55 O 0.53338 0.1285 0.96529 0.0
O56 O 0.12828 0.77393 0.18755 0.0
Cd57 Cd 0.14618 0.7366 0.20337 0.0
Cd58 Cd 0.09339 0.73025 0.24538 0.0
O59 O 0.08995 0.77194 0.22587 0.0
O60 O 0.1867 0.74221 0.19099 0.0
O61 O 0.17034 0.73436 0.25384 0.0
C62 C 0.19141 0.73977 0.22993 0.0
C63 C 0.07115 0.71626 0.30711 0.0
C64 C 0.10572 0.78501 0.20051 0.0
C65 C 0.10933 0.69119 0.17309 0.0
O66 O 0.09192 0.69947 0.20028 0.0
O67 O 0.13325 0.70269 0.16919 0.0
O68 O 0.05694 0.72431 0.27554 0.0
O69 O 0.09821 0.71703 0.30449 0.0
O70 O 0.4742 0.88702 0.43204 0.0
Cd71 Cd 0.51164 0.90521 0.44627 0.0
Cd72 Cd 0.51653 0.85768 0.49561 0.0
O73 O 0.47476 0.85258 0.47756 0.0
O74 O 0.50694 0.94546 0.43139 0.0
O75 O 0.51402 0.93059 0.49529 0.0
C76 C 0.50901 0.9511 0.47015 0.0
C77 C 0.53174 0.84356 0.56151 0.0
C78 C 0.46247 0.86594 0.44869 0.0
C79 C 0.55487 0.86486 0.4205 0.0
O80 O 0.54595 0.84996 0.4503 0.0
O81 O 0.54501 0.88921 0.41365 0.0
O82 O 0.52237 0.8257 0.53509 0.0
O83 O 0.53147 0.86981 0.55146 0.0
O84 O 0.37107 0.22172 0.69351 0.0
Cd85 Cd 0.34411 0.25486 0.69957 0.0
Cd86 Cd 0.38903 0.28011 0.74194 0.0
O87 O 0.40798 0.24402 0.71891 0.0
O88 O 0.30602 0.23989 0.68637 0.0
O89 O 0.31751 0.25735 0.74735 0.0
C90 C 0.29891 0.24577 0.72373 0.0
C91 C 0.40537 0.29727 0.80608 0.0
C92 C 0.39726 0.22279 0.70081 0.0
C93 C 0.36759 0.30803 0.66444 0.0
O94 O 0.38119 0.31043 0.698 0.0
O95 O 0.35185 0.28688 0.65816 0.0
O96 O 0.42031 0.299 0.77319 0.0
O97 O 0.38105 0.2854 0.80306 0.0
O98 O 0.01159 0.12362 0.94175 0.0
Cd99 Cd 0.97544 0.10178 0.95259 0.0
Cd100 Cd 0.95936 0.15127 0.99485 0.0
O101 O -0.00067 0.16242 0.97452 0.0
O102 O 0.9854 0.06208 0.94051 0.0
O103 O 0.97223 0.07696 1.00223 0.0
C104 C 0.98085 0.0567 0.97887 0.0
C105 C 0.94349 0.16995 0.0582 0.0
C106 C 0.01683 0.14867 0.9527 0.0
C107 C 0.92641 0.13301 0.91868 0.0
O108 O 0.92925 0.14964 0.94912 0.0
O109 O 0.9427 0.11211 0.91399 0.0
O110 O 0.94866 0.1858 0.02703 0.0
O111 O 0.9477 0.14331 0.05406 0.0
O112 O 0.8746 0.77204 0.69584 0.0
Cd113 Cd 0.84957 0.73769 0.70573 0.0
Cd114 Cd 0.8975 0.716 0.74739 0.0
O115 O 0.91236 0.75434 0.72573 0.0
O116 O 0.81057 0.75058 0.69415 0.0
O117 O 0.82439 0.73506 0.75518 0.0
C118 C 0.80469 0.7452 0.73213 0.0
C119 C 0.91719 0.69946 0.80981 0.0
C120 C 0.90042 0.77382 0.70529 0.0
C121 C 0.87569 0.68558 0.67124 0.0
O122 O 0.89199 0.68583 0.70234 0.0
O123 O 0.85727 0.70461 0.66632 0.0
O124 O 0.93205 0.70247 0.77706 0.0
O125 O 0.8909 0.70592 0.8077 0.0
O126 O 0.97031 0.11416 0.43595 0.0
Cd127 Cd 0.00778 0.09624 0.45124 0.0
Cd128 Cd 0.01295 0.14744 0.49648 0.0
O129 O 0.97129 0.15111 0.4772 0.0
O130 O 0.00302 0.05569 0.43752 0.0
O131 O 0.01025 0.07125 0.50094 0.0
C132 C 0.00537 0.05041 0.47634 0.0
C133 C 0.02728 0.16724 0.55983 0.0
C134 C 0.9588 0.13615 0.45023 0.0
C135 C 0.05188 0.13537 0.42283 0.0
O136 O 0.04311 0.15168 0.45108 0.0
O137 O 0.04143 0.11104 0.41781 0.0
O138 O 0.01856 0.18261 0.52985 0.0
O139 O 0.02684 0.14032 0.55477 0.0
O140 O 0.62367 0.20849 0.1963 0.0
Cd141 Cd 0.63587 0.2485 0.21226 0.0
Cd142 Cd 0.58669 0.24492 0.25218 0.0
O143 O 0.59075 0.20194 0.24298 0.0
O144 O 0.67662 0.249 0.19865 0.0
O145 O 0.66027 0.25371 0.26213 0.0
C146 C 0.68154 0.25139 0.23755 0.0
C147 C 0.56856 0.26451 0.31351 0.0
C148 C 0.60594 0.19247 0.21381 0.0
C149 C 0.5904 0.28057 0.1753 0.0
O150 O 0.57512 0.2662 0.19957 0.0
O151 O 0.617 0.28029 0.17883 0.0
O152 O 0.55337 0.24936 0.28928 0.0
O153 O 0.59474 0.26772 0.30403 0.0
O154 O 0.51949 0.87913 0.94654 0.0
Cd155 Cd 0.47916 0.88816 0.96484 0.0
Cd156 Cd 0.48857 0.83974 1.00389 0.0
O157 O 0.53069 0.84817 0.99407 0.0
O158 O 0.47583 0.92859 0.94984 0.0
O159 O 0.47394 0.91323 0.01413 0.0
C160 C 0.47469 0.93413 0.98868 0.0
C161 C 0.4703 0.82323 0.06657 0.0
C162 C 0.53775 0.86365 0.96382 0.0
C163 C 0.45102 0.83986 0.92899 0.0
O164 O 0.46781 0.82611 0.95182 0.0
O165 O 0.44823 0.86627 0.93342 0.0
O166 O 0.48648 0.80781 0.04412 0.0
O167 O 0.46538 0.84862 0.05436 0.0
O168 O 0.86377 0.22359 0.82029 0.0
Cd169 Cd 0.85437 0.2638 0.80204 0.0
Cd170 Cd 0.90297 0.2546 0.7635 0.0
O171 O 0.89494 0.21236 0.77309 0.0
O172 O 0.8141 0.26668 0.81794 0.0
O173 O 0.82878 0.2691 0.75336 0.0
C174 C 0.80816 0.26801 0.77925 0.0
C175 C 0.91966 0.27383 0.70151 0.0
C176 C 0.87951 0.20537 0.80345 0.0
C177 C 0.90227 0.29149 0.83906 0.0
O178 O 0.91614 0.27485 0.81614 0.0
O179 O 0.87594 0.29456 0.83408 0.0
O180 O 0.93506 0.2574 0.72361 0.0
O181 O 0.89416 0.27837 0.71357 0.0
O182 O 0.53413 0.12165 0.57011 0.0
Cd183 Cd 0.49409 0.1102 0.55362 0.0
Cd184 Cd 0.49892 0.15899 0.51397 0.0
O185 O 0.54183 0.154 0.52301 0.0
O186 O 0.49318 0.06964 0.56811 0.0
O187 O 0.4893 0.08537 0.50416 0.0
C188 C 0.49146 0.06436 0.52924 0.0
C189 C 0.47911 0.17648 0.45249 0.0
C190 C 0.55074 0.13872 0.55246 0.0
C191 C 0.46305 0.1562 0.59055 0.0
O192 O 0.47801 0.17116 0.56662 0.0
O193 O 0.46248 0.12963 0.58661 0.0
O194 O 0.49471 0.19183 0.4759 0.0
O195 O 0.47561 0.15048 0.46285 0.0
O196 O 0.63095 0.77194 0.33589 0.0
Cd197 Cd 0.64709 0.73359 0.32132 0.0
Cd198 Cd 0.59624 0.73028 0.27627 0.0
O199 O 0.59402 0.77225 0.29469 0.0
O200 O 0.68755 0.73707 0.33551 0.0
O201 O 0.67215 0.72958 0.27204 0.0
C202 C 0.69295 0.7341 0.29683 0.0
C203 C 0.57744 0.71623 0.21224 0.0
C204 C 0.60956 0.78434 0.32134 0.0
C205 C 0.60657 0.69119 0.35021 0.0
O206 O 0.59058 0.70044 0.32188 0.0
O207 O 0.63122 0.70079 0.35519 0.0
O208 O 0.56167 0.72551 0.24142 0.0
O209 O 0.60424 0.71592 0.21854 0.0
O210 O 0.96722 0.88193 0.08264 0.0
Cd211 Cd 0.00483 0.90027 0.06965 0.0
Cd212 Cd 0.01164 0.85081 0.02453 0.0
O213 O 0.97059 0.8436 0.04458 0.0
O214 O -0.00114 0.94063 0.08248 0.0
O215 O 0.00866 0.92485 0.01987 0.0
C216 C 0.00241 0.94567 0.04379 0.0
C217 C 0.02705 0.83517 0.95953 0.0
C218 C 0.95693 0.85892 0.06984 0.0
C219 C 0.04951 0.86295 0.09919 0.0
O220 O 0.04232 0.84739 0.06917 0.0
O221 O 0.03746 0.88631 0.10568 0.0
O222 O 0.02203 0.81787 0.9891 0.0
O223 O 0.02196 0.86148 0.96592 0.0
O224 O 0.62595 0.73371 0.83102 0.0
Cd225 Cd 0.64747 0.77029 0.82093 0.0
Cd226 Cd 0.59871 0.78539 0.77609 0.0
O227 O 0.58771 0.74539 0.79645 0.0
O228 O 0.68734 0.76128 0.83381 0.0
O229 O 0.67283 0.77445 0.77192 0.0
C230 C 0.69307 0.76629 0.79567 0.0
C231 C 0.58042 0.80106 0.71239 0.0
C232 C 0.60116 0.72816 0.81911 0.0
C233 C 0.61457 0.81886 0.85289 0.0
O234 O 0.59886 0.81564 0.82153 0.0
O235 O 0.63559 0.80293 0.85892 0.0
O236 O 0.56436 0.79545 0.74315 0.0
O237 O 0.60708 0.79729 0.71707 0.0
O238 O 0.52435 0.37349 0.07545 0.0
Cd239 Cd 0.4912 0.40045 0.06923 0.0
Cd240 Cd 0.4667 0.35567 0.02496 0.0
O241 O 0.50302 0.33686 0.04747 0.0
O242 O 0.5059 0.43864 0.0828 0.0
O243 O 0.48908 0.42712 0.02145 0.0
C244 C 0.50039 0.44574 0.04531 0.0
C245 C 0.44943 0.33982 0.9606 0.0
C246 C 0.52384 0.34749 0.06669 0.0
C247 C 0.43788 0.37615 0.10263 0.0
O248 O 0.43621 0.36257 0.06897 0.0
O249 O 0.45865 0.39227 0.10965 0.0
O250 O 0.44812 0.32449 0.99314 0.0
O251 O 0.46105 0.36424 0.96404 0.0
O252 O 0.8581 0.27622 0.33881 0.0
Cd253 Cd 0.84064 0.23835 0.32448 0.0
Cd254 Cd 0.88843 0.2339 0.27578 0.0
O255 O 0.89322 0.27566 0.29439 0.0
O256 O 0.80007 0.24203 0.33824 0.0
O257 O 0.81588 0.23498 0.27484 0.0
C258 C 0.79492 0.2394 0.29939 0.0
C259 C 0.90201 0.21898 0.2095 0.0
C260 C 0.87939 0.28799 0.32275 0.0
C261 C 0.88129 0.1952 0.35038 0.0
O262 O 0.89623 0.20412 0.32063 0.0
O263 O 0.85699 0.20516 0.35726 0.0
O264 O 0.92009 0.22829 0.23565 0.0
O265 O 0.87585 0.21921 0.22003 0.0
O266 O 0.9613 0.61893 0.57043 0.0
Cd267 Cd 0.0012 0.60868 0.55177 0.0
Cd268 Cd 0.99301 0.65694 0.51208 0.0
O269 O 0.95069 0.65021 0.52303 0.0
O270 O 0.00397 0.56826 0.56725 0.0
O271 O 0.0057 0.58324 0.50276 0.0
C272 C 0.00494 0.56249 0.52847 0.0
C273 C 0.01241 0.67177 0.44928 0.0
C274 C 0.94346 0.63516 0.55369 0.0
C275 C 0.03058 0.65665 0.58673 0.0
O276 O 0.01425 0.67064 0.56351 0.0
O277 O 0.0326 0.63012 0.5828 0.0
O278 O 0.99642 0.68806 0.47069 0.0
O279 O 0.01623 0.64639 0.46239 0.0
O280 O 0.62215 0.27146 0.69475 0.0
Cd281 Cd 0.64923 0.23837 0.70015 0.0
Cd282 Cd 0.6044 0.21279 0.74251 0.0
O283 O 0.58531 0.24895 0.72 0.0
O284 O 0.68712 0.2536 0.68621 0.0
O285 O 0.67636 0.23591 0.74731 0.0
C286 C 0.69464 0.24767 0.72336 0.0
C287 C 0.58846 0.1954 0.80674 0.0
C288 C 0.59598 0.27031 0.70214 0.0
C289 C 0.62562 0.18535 0.66453 0.0
O290 O 0.6121 0.18273 0.69813 0.0
O291 O 0.64135 0.20655 0.65847 0.0
O292 O 0.57334 0.19372 0.774 0.0
O293 O 0.61274 0.20732 0.80349 0.0
O294 O 0.98178 0.37259 0.93795 0.0
Cd295 Cd 0.01758 0.39477 0.94952 0.0
Cd296 Cd 0.03315 0.34543 0.99338 0.0
O297 O 0.99326 0.33431 0.97263 0.0
O298 O 0.00756 0.43427 0.93616 0.0
O299 O 0.01952 0.42005 0.99875 0.0
C300 C 0.01118 0.44001 0.97462 0.0
C301 C 0.04871 0.32685 0.05695 0.0
C302 C 0.97619 0.3478 0.94974 0.0
C303 C 0.06713 0.36334 0.91781 0.0
O304 O 0.06364 0.34679 0.94819 0.0
O305 O 0.05108 0.38435 0.91241 0.0
O306 O 0.04357 0.31094 0.02583 0.0
O307 O 0.04457 0.35349 0.05265 0.0
O308 O 0.8723 0.71652 0.20188 0.0
Cd309 Cd 0.85187 0.75346 0.2119 0.0
Cd310 Cd 0.90246 0.76762 0.25547 0.0
O311 O 0.91128 0.72706 0.23555 0.0
O312 O 0.81199 0.74514 0.1983 0.0
O313 O 0.82627 0.75791 0.2605 0.0
C314 C 0.80608 0.75012 0.23637 0.0
C315 C 0.92425 0.7833 0.3169 0.0
C316 C 0.89697 0.71021 0.21335 0.0
C317 C 0.8857 0.80084 0.17855 0.0
O318 O 0.90189 0.79743 0.20933 0.0
O319 O 0.8642 0.78545 0.17327 0.0
O320 O 0.9386 0.77679 0.28477 0.0
O321 O 0.89731 0.78044 0.31491 0.0
O322 O 0.52106 0.607 0.43442 0.0
Cd323 Cd 0.48364 0.58889 0.44902 0.0
Cd324 Cd 0.47893 0.6365 0.49789 0.0
O325 O 0.52064 0.64168 0.47956 0.0
O326 O 0.48824 0.54864 0.43412 0.0
O327 O 0.48127 0.56349 0.49804 0.0
C328 C 0.48616 0.54298 0.47287 0.0
C329 C 0.46368 0.65033 0.56386 0.0
C330 C 0.53282 0.62819 0.45071 0.0
C331 C 0.44041 0.62918 0.4231 0.0
O332 O 0.44942 0.64418 0.45273 0.0
O333 O 0.45023 0.6048 0.41642 0.0
O334 O 0.47302 0.66832 0.5376 0.0
O335 O 0.46406 0.62411 0.55363 0.0
O336 O 0.37012 0.28533 0.19455 0.0
Cd337 Cd 0.35766 0.24544 0.21075 0.0
Cd338 Cd 0.40682 0.249 0.25089 0.0
O339 O 0.40279 0.29196 0.24155 0.0
O340 O 0.31693 0.24516 0.19693 0.0
O341 O 0.3331 0.24069 0.26055 0.0
C342 C 0.31191 0.24309 0.23584 0.0
C343 C 0.42496 0.22949 0.31226 0.0
C344 C 0.38776 0.30138 0.21218 0.0
C345 C 0.40309 0.21309 0.17427 0.0
O346 O 0.41837 0.22757 0.19838 0.0
O347 O 0.37649 0.21338 0.17779 0.0
O348 O 0.44015 0.24463 0.28802 0.0
O349 O 0.39879 0.22624 0.30278 0.0
O350 O 0.47536 0.61396 0.9463 0.0
Cd351 Cd 0.51584 0.60493 0.96382 0.0
Cd352 Cd 0.50674 0.65324 1.00342 0.0
O353 O 0.46456 0.6448 0.99419 0.0
O354 O 0.51907 0.56454 0.94858 0.0
O355 O 0.52143 0.57976 0.01291 0.0
C356 C 0.52047 0.55891 0.98738 0.0
C357 C 0.52523 0.6697 0.06601 0.0
C358 C 0.45724 0.62938 0.96402 0.0
C359 C 0.54372 0.65335 0.92783 0.0
O360 O 0.52715 0.66703 0.95111 0.0
O361 O 0.5465 0.62691 0.93198 0.0
O362 O 0.50896 0.68513 0.04371 0.0
O363 O 0.53018 0.64435 0.05366 0.0
O364 O 0.1195 0.72472 0.69511 0.0
Cd365 Cd 0.14567 0.7581 0.70557 0.0
Cd366 Cd 0.09854 0.78143 0.74525 0.0
O367 O 0.08119 0.7461 0.71742 0.0
O368 O 0.18434 0.74395 0.69476 0.0
O369 O 0.17051 0.76003 0.75547 0.0
C370 C 0.19009 0.74928 0.73279 0.0
C371 C 0.07827 0.79612 0.80813 0.0
C372 C 0.093 0.72538 0.69952 0.0
C373 C 0.12379 0.81244 0.67285 0.0
O374 O 0.10895 0.81357 0.7054 0.0
O375 O 0.13941 0.79134 0.66585 0.0
O376 O 0.06549 0.7993 0.77358 0.0
O377 O 0.10261 0.78418 0.80749 0.0
O378 O 0.02378 0.38314 0.43446 0.0
Cd379 Cd 0.98654 0.40154 0.44979 0.0
Cd380 Cd 0.98141 0.34989 0.49565 0.0
O381 O 0.02299 0.3463 0.47597 0.0
O382 O 0.99165 0.44176 0.4342 0.0
O383 O 0.98478 0.42764 0.49838 0.0
C384 C 0.9897 0.44789 0.47279 0.0
C385 C 0.96722 0.32944 0.55868 0.0
C386 C 0.03534 0.36118 0.44877 0.0
C387 C 0.9421 0.3623 0.42239 0.0
O388 O 0.95106 0.34597 0.45048 0.0
O389 O 0.95254 0.38663 0.41717 0.0
O390 O 0.97591 0.31438 0.52835 0.0
O391 O 0.96765 0.35641 0.55419 0.0
O392 O 0.36454 0.7218 0.3372 0.0
Cd393 Cd 0.34833 0.75979 0.32099 0.0
Cd394 Cd 0.39914 0.76262 0.27662 0.0
O395 O 0.40121 0.72075 0.29555 0.0
O396 O 0.30765 0.75634 0.33366 0.0
O397 O 0.32428 0.76268 0.27056 0.0
C398 C 0.30302 0.75845 0.29463 0.0
C399 C 0.41799 0.77647 0.21255 0.0
C400 C 0.38579 0.7091 0.32275 0.0
C401 C 0.38849 0.80247 0.34952 0.0
O402 O 0.40474 0.79268 0.32192 0.0
O403 O 0.36367 0.79321 0.35406 0.0
O404 O 0.43374 0.76723 0.24179 0.0
O405 O 0.39119 0.77679 0.2188 0.0
O406 O 0.02465 0.61161 0.08207 0.0
Cd407 Cd 0.9865 0.5968 0.06237 0.0
Cd408 Cd 0.98908 0.64495 0.0224 0.0
O409 O 0.03181 0.64324 0.03383 0.0
O410 O 0.98832 0.55614 0.07573 0.0
O411 O 0.9846 0.57249 0.01205 0.0
C412 C 0.98762 0.55133 0.03666 0.0
C413 C 0.97001 0.65864 0.95877 0.0
C414 C 0.0405 0.62973 0.06517 0.0
C415 C 0.95208 0.64007 0.09779 0.0
O416 O 0.9664 0.65587 0.07414 0.0
O417 O 0.95302 0.61353 0.09407 0.0
O418 O 0.98362 0.67613 0.98162 0.0
O419 O 0.96789 0.63294 0.97129 0.0
O420 O 0.13064 0.27171 0.82286 0.0
Cd421 Cd 0.13974 0.23131 0.8052 0.0
Cd422 Cd 0.09156 0.24052 0.76585 0.0
O423 O 0.0999 0.28274 0.77495 0.0
O424 O 0.18008 0.22812 0.82054 0.0
O425 O 0.1649 0.22553 0.7562 0.0
C426 C 0.18572 0.22653 0.78176 0.0
C427 C 0.07482 0.22147 0.70377 0.0
C428 C 0.11515 0.28989 0.80541 0.0
C429 C 0.09151 0.20408 0.84197 0.0
O430 O 0.07789 0.2206 0.81854 0.0
O431 O 0.11786 0.2009 0.8375 0.0
O432 O 0.05954 0.23803 0.72582 0.0
O433 O 0.10022 0.21662 0.71598 0.0
O434 O 0.45928 0.37221 0.57147 0.0
Cd435 Cd 0.49945 0.38355 0.55558 0.0
Cd436 Cd 0.49473 0.33486 0.51544 0.0
O437 O 0.4518 0.33997 0.52412 0.0
O438 O 0.50049 0.42406 0.57036 0.0
O439 O 0.50469 0.40851 0.50636 0.0
C440 C 0.50251 0.42945 0.53155 0.0
C441 C 0.51458 0.31746 0.45393 0.0
C442 C 0.44274 0.3552 0.55352 0.0
C443 C 0.53026 0.33731 0.5924 0.0
O444 O 0.51543 0.32245 0.56816 0.0
O445 O 0.53082 0.3639 0.58875 0.0
O446 O 0.49888 0.30211 0.47719 0.0
O447 O 0.51821 0.3434 0.46449 0.0
C448 C 0.06348 0.15143 0.35205 0.0
C449 C 0.07197 0.14682 0.39294 0.0
H450 H 0.07026 0.17514 0.29669 0.0
C451 C 0.09705 0.15877 0.40708 0.0
H452 H 0.04392 0.14262 0.34081 0.0
C453 C 0.11242 0.17679 0.38175 0.0
C454 C 0.10239 0.18401 0.34229 0.0
H455 H 0.1038 0.1556 0.43864 0.0
H456 H 0.13083 0.18693 0.39463 0.0
C457 C 0.07847 0.17013 0.32694 0.0
C458 C 0.08607 0.87069 0.6201 0.0
C459 C 0.07965 0.85741 0.58248 0.0
H460 H 0.10598 0.8667 0.67893 0.0
C461 C 0.09548 0.8338 0.57066 0.0
H462 H 0.0748 0.88933 0.62984 0.0
C463 C 0.11392 0.82116 0.5987 0.0
C464 C 0.1164 0.8318 0.63898 0.0
H465 H 0.09144 0.82332 0.54162 0.0
H466 H 0.1233 0.80118 0.59051 0.0
C467 C 0.10409 0.85783 0.6483 0.0
C468 C 0.40749 0.82811 0.88895 0.0
C469 C 0.4364 0.82475 0.89572 0.0
H470 H 0.37067 0.81156 0.85942 0.0
C471 C 0.45133 0.80482 0.87257 0.0
H472 H 0.39562 0.84345 0.90643 0.0
C473 C 0.43738 0.78724 0.84494 0.0
C474 C 0.40803 0.7887 0.84079 0.0
H475 H 0.47376 0.80214 0.87697 0.0
H476 H 0.44938 0.77112 0.82926 0.0
C477 C 0.39331 0.80993 0.86201 0.0
C478 C 0.40816 0.16975 0.13093 0.0
C479 C 0.41688 0.19703 0.1412 0.0
H480 H 0.41841 0.13168 0.09886 0.0
C481 C 0.44054 0.20855 0.12162 0.0
H482 H 0.38987 0.16053 0.14554 0.0
C483 C 0.45634 0.1925 0.09419 0.0
C484 C 0.44922 0.16431 0.08662 0.0
H485 H 0.4474 0.22976 0.12862 0.0
H486 H 0.47528 0.20162 0.08133 0.0
C487 C 0.42444 0.15334 0.10417 0.0
C488 C 0.07169 0.82522 0.19467 0.0
C489 C 0.09561 0.81098 0.18021 0.0
H490 H 0.03868 0.85431 0.18012 0.0
C491 C 0.10739 0.81907 0.14218 0.0
H492 H 0.06222 0.81958 0.22388 0.0
C493 C 0.09366 0.83844 0.11702 0.0
C494 C 0.0685 0.85081 0.13 0.0
H495 H 0.12588 0.80866 0.13009 0.0
H496 H 0.10163 0.84226 0.08623 0.0
C497 C 0.05837 0.84526 0.16982 0.0
C498 C 0.40536 0.81439 0.4197 0.0
C499 C 0.40022 0.82269 0.37889 0.0
H500 H 0.4294 0.82181 0.47454 0.0
C501 C 0.41155 0.84791 0.36427 0.0
H502 H 0.39697 0.79473 0.43127 0.0
C503 C 0.42951 0.8637 0.3891 0.0
C504 C 0.43726 0.85394 0.4285 0.0
H505 H 0.40791 0.8545 0.33275 0.0
H506 H 0.43916 0.88226 0.3759 0.0
C507 C 0.42398 0.82982 0.44433 0.0
C508 C 0.44359 0.20987 0.67078 0.0
C509 C 0.41584 0.20217 0.68036 0.0
H510 H 0.47995 0.20148 0.63413 0.0
C511 C 0.40486 0.17709 0.66378 0.0
H512 H 0.4527 0.22906 0.68285 0.0
C513 C 0.42074 0.16102 0.63611 0.0
C514 C 0.4475 0.17022 0.62395 0.0
H515 H 0.38353 0.17062 0.67063 0.0
H516 H 0.41148 0.14242 0.62242 0.0
C517 C 0.4591 0.19425 0.64249 0.0
C518 C 0.08011 0.16183 0.88501 0.0
C519 C 0.07637 0.19041 0.87602 0.0
H520 H 0.06391 0.12586 0.91707 0.0
C521 C 0.05617 0.20588 0.89789 0.0
H522 H 0.09571 0.14958 0.86862 0.0
C523 C 0.03863 0.19267 0.92632 0.0
C524 C 0.04044 0.16352 0.93259 0.0
H525 H 0.05324 0.2281 0.89185 0.0
H526 H 0.02225 0.20496 0.94091 0.0
C527 C 0.06201 0.14837 0.91278 0.0
C528 C 0.92108 0.83621 0.63939 0.0
C529 C 0.94915 0.82948 0.6306 0.0
H530 H 0.88327 0.82363 0.67042 0.0
C531 C 0.96198 0.80709 0.6515 0.0
H532 H 0.91083 0.85351 0.62371 0.0
C533 C 0.94663 0.79059 0.67896 0.0
C534 C 0.91786 0.79568 0.68524 0.0
H535 H 0.98376 0.80176 0.64562 0.0
H536 H 0.9569 0.77267 0.69298 0.0
C537 C 0.90541 0.81919 0.66616 0.0
C538 C 0.92641 0.13685 0.38991 0.0
C539 C 0.93329 0.14695 0.42945 0.0
H540 H 0.90441 0.14468 0.33346 0.0
C541 C 0.91846 0.17012 0.44526 0.0
H542 H 0.93735 0.11904 0.3767 0.0
C543 C 0.89885 0.18426 0.42063 0.0
C544 C 0.89435 0.17575 0.37973 0.0
H545 H 0.92322 0.17833 0.4756 0.0
H546 H 0.88912 0.20325 0.43231 0.0
C547 C 0.9075 0.15143 0.36504 0.0
C548 C 0.56257 0.13097 0.17774 0.0
C549 C 0.57437 0.12677 0.13847 0.0
H550 H 0.56351 0.15538 0.23322 0.0
C551 C 0.60065 0.13874 0.12966 0.0
H552 H 0.5423 0.12199 0.18543 0.0
C553 C 0.61297 0.15761 0.15722 0.0
C554 C 0.59892 0.16531 0.19371 0.0
H555 H 0.61034 0.13564 0.09979 0.0
H556 H 0.63203 0.1683 0.14779 0.0
C557 C 0.57467 0.15027 0.20512 0.0
C558 C 0.56968 0.87245 0.90431 0.0
C559 C 0.56486 0.85905 0.94235 0.0
H560 H 0.58983 0.86999 0.84546 0.0
C561 C 0.58293 0.83717 0.95444 0.0
H562 H 0.55657 0.88976 0.89427 0.0
C563 C 0.60261 0.82633 0.92658 0.0
C564 C 0.6041 0.83701 0.88625 0.0
H565 H 0.58004 0.82661 0.98371 0.0
H566 H 0.61415 0.80756 0.935 0.0
C567 C 0.58886 0.86127 0.87628 0.0
C568 C 0.90743 0.16135 0.81523 0.0
C569 C 0.88478 0.17882 0.82606 0.0
H570 H 0.93817 0.13191 0.83674 0.0
C571 C 0.87137 0.17444 0.86423 0.0
H572 H 0.91805 0.16393 0.78594 0.0
C573 C 0.88322 0.15657 0.89351 0.0
C574 C 0.90811 0.14209 0.88462 0.0
H575 H 0.85349 0.18709 0.87336 0.0
H576 H 0.8744 0.15607 0.92429 0.0
C577 C 0.91892 0.1429 0.84432 0.0
C578 C 0.61262 0.18056 0.59055 0.0
C579 C 0.61656 0.16788 0.6293 0.0
H580 H 0.58833 0.18109 0.53495 0.0
C581 C 0.60445 0.14146 0.63671 0.0
H582 H 0.62174 0.20093 0.58389 0.0
C583 C 0.58557 0.12992 0.60846 0.0
C584 C 0.57803 0.1449 0.5727 0.0
H585 H 0.60737 0.13107 0.66612 0.0
H586 H 0.57471 0.11073 0.61689 0.0
C587 C 0.59331 0.16923 0.56249 0.0
C588 C 0.61138 0.81808 0.38002 0.0
C589 C 0.60016 0.81068 0.34134 0.0
H590 H 0.60541 0.84131 0.43589 0.0
C591 C 0.57719 0.826 0.3259 0.0
H592 H 0.62913 0.80685 0.39289 0.0
C593 C 0.56419 0.84648 0.35033 0.0
C594 C 0.57368 0.85143 0.39065 0.0
H595 H 0.56816 0.8209 0.29619 0.0
H596 H 0.54521 0.85649 0.33916 0.0
C597 C 0.59794 0.83791 0.40473 0.0
C598 C 0.90153 0.80789 0.10653 0.0
C599 C 0.89547 0.81938 0.14541 0.0
H600 H 0.92618 0.81149 0.05144 0.0
C601 C 0.90513 0.84636 0.1551 0.0
H602 H 0.89448 0.78688 0.09871 0.0
C603 C 0.92266 0.86069 0.12783 0.0
C604 C 0.93171 0.84778 0.09106 0.0
H605 H 0.90078 0.85549 0.18503 0.0
H606 H 0.93116 0.88075 0.13757 0.0
C607 C 0.9198 0.82189 0.07962 0.0
C608 C 0.54301 0.6887 0.87182 0.0
C609 C 0.55806 0.66855 0.89438 0.0
H610 H 0.5447 0.72256 0.82874 0.0
C611 C 0.58685 0.66497 0.88678 0.0
H612 H 0.52067 0.69155 0.87685 0.0
C613 C 0.60084 0.68313 0.8596 0.0
C614 C 0.58603 0.70457 0.83896 0.0
H615 H 0.59881 0.64945 0.90377 0.0
H616 H 0.62343 0.68133 0.85636 0.0
C617 C 0.55676 0.70627 0.84395 0.0
C618 C 0.58561 0.32349 0.13099 0.0
C619 C 0.57664 0.29641 0.14198 0.0
H620 H 0.57571 0.36125 0.09791 0.0
C621 C 0.55286 0.28488 0.12273 0.0
H622 H 0.604 0.3327 0.14532 0.0
C623 C 0.53721 0.30074 0.09488 0.0
C624 C 0.5446 0.32876 0.08654 0.0
H625 H 0.54581 0.26383 0.13027 0.0
H626 H 0.51817 0.29164 0.08227 0.0
C627 C 0.56948 0.33971 0.1038 0.0
C628 C 0.8812 0.32088 0.38254 0.0
C629 C 0.89102 0.31337 0.34307 0.0
H630 H 0.89017 0.34241 0.43903 0.0
C631 C 0.91487 0.32713 0.32725 0.0
H632 H 0.86285 0.31085 0.39576 0.0
C633 C 0.93003 0.34596 0.35193 0.0
C634 C 0.92177 0.35084 0.39284 0.0
H635 H 0.92291 0.32191 0.29698 0.0
H636 H 0.94955 0.35465 0.34034 0.0
C637 C 0.89674 0.33904 0.40743 0.0
C638 C 0.89594 0.64096 0.64486 0.0
C639 C 0.88298 0.66682 0.63671 0.0
H640 H 0.92436 0.60956 0.62353 0.0
C641 C 0.8838 0.67767 0.59642 0.0
H642 H 0.89534 0.632 0.67555 0.0
C643 C 0.90106 0.6652 0.56665 0.0
C644 C 0.91735 0.64154 0.57681 0.0
H645 H 0.8739 0.69759 0.58928 0.0
H646 H 0.90386 0.6758 0.53739 0.0
C647 C 0.91266 0.62819 0.61494 0.0
C648 C 0.57241 0.33239 0.63821 0.0
C649 C 0.54573 0.32315 0.62576 0.0
H650 H 0.60956 0.32273 0.67284 0.0
C651 C 0.53416 0.29898 0.64392 0.0
H652 H 0.58164 0.35111 0.62482 0.0
C653 C 0.54965 0.28326 0.67213 0.0
C654 C 0.57734 0.291 0.68196 0.0
H655 H 0.51337 0.29172 0.63534 0.0
H656 H 0.54059 0.26395 0.68388 0.0
C657 C 0.58827 0.31623 0.66578 0.0
C658 C 0.95435 0.30359 0.92422 0.0
C659 C 0.95268 0.33282 0.92962 0.0
H660 H 0.93982 0.26782 0.89043 0.0
C661 C 0.93138 0.34786 0.909 0.0
H662 H 0.97052 0.2914 0.93946 0.0
C663 C 0.91344 0.33416 0.88125 0.0
C664 C 0.91708 0.30546 0.87314 0.0
H665 H 0.92959 0.37043 0.91263 0.0
H666 H 0.89809 0.34631 0.86421 0.0
C667 C 0.93698 0.29013 0.89582 0.0
C668 C 0.9091 0.6502 0.13957 0.0
C669 C 0.93808 0.65294 0.13329 0.0
H670 H 0.87295 0.66632 0.17107 0.0
C671 C 0.95386 0.67048 0.1592 0.0
H672 H 0.89667 0.63659 0.11995 0.0
C673 C 0.94062 0.68683 0.18902 0.0
C674 C 0.9112 0.68651 0.19259 0.0
H675 H 0.97639 0.67251 0.15508 0.0
H676 H 0.95326 0.70145 0.20669 0.0
C677 C 0.89566 0.6671 0.1689 0.0
C678 C 0.58988 0.67956 0.42066 0.0
C679 C 0.59471 0.67118 0.3798 0.0
H680 H 0.56617 0.67231 0.47588 0.0
C681 C 0.58316 0.64598 0.36543 0.0
H682 H 0.59845 0.69919 0.43205 0.0
C683 C 0.56533 0.6303 0.39059 0.0
C684 C 0.5579 0.64014 0.43008 0.0
H685 H 0.58658 0.63931 0.3339 0.0
H686 H 0.55553 0.61175 0.3776 0.0
C687 C 0.57136 0.66424 0.44561 0.0
C688 C 0.43129 0.36278 0.17619 0.0
C689 C 0.41957 0.36697 0.13686 0.0
H690 H 0.43022 0.3384 0.23169 0.0
C691 C 0.39328 0.35506 0.12799 0.0
H692 H 0.45157 0.37171 0.18393 0.0
C693 C 0.38087 0.33622 0.15553 0.0
C694 C 0.39486 0.32851 0.19207 0.0
H695 H 0.38364 0.35814 0.09808 0.0
H696 H 0.36181 0.32556 0.14605 0.0
C697 C 0.41911 0.34351 0.20355 0.0
C698 C 0.41198 0.65584 0.9556 0.0
C699 C 0.42992 0.63396 0.94314 0.0
H700 H 0.38062 0.68549 0.93678 0.0
C701 C 0.42473 0.62054 0.9052 0.0
H702 H 0.41515 0.66639 0.98481 0.0
C703 C 0.4053 0.63174 0.87756 0.0
C704 C 0.39019 0.65603 0.88784 0.0
H705 H 0.43774 0.60323 0.8949 0.0
H706 H 0.40405 0.62304 0.84675 0.0
C707 C 0.39205 0.66669 0.92814 0.0
C708 C 0.08766 0.68002 0.66058 0.0
C709 C 0.07563 0.70464 0.67704 0.0
H710 H 0.08261 0.64508 0.61918 0.0
C711 C 0.04785 0.7115 0.66649 0.0
H712 H 0.10904 0.67418 0.66818 0.0
C713 C 0.03319 0.69536 0.63783 0.0
C714 C 0.04569 0.67164 0.61975 0.0
H715 H 0.03794 0.73031 0.67844 0.0
H716 H 0.01219 0.70185 0.62909 0.0
C717 C 0.07264 0.66343 0.63248 0.0
C718 C 0.06758 0.36048 0.38824 0.0
C719 C 0.06077 0.35034 0.4278 0.0
H720 H 0.0894 0.35266 0.33165 0.0
C721 C 0.07561 0.32714 0.44347 0.0
H722 H 0.05663 0.37832 0.37513 0.0
C723 C 0.09512 0.31299 0.4187 0.0
C724 C 0.09954 0.32154 0.3778 0.0
H725 H 0.07091 0.3189 0.47382 0.0
H726 H 0.10485 0.29397 0.43027 0.0
C727 C 0.0864 0.34589 0.36323 0.0
C728 C 0.39755 0.65646 0.40736 0.0
C729 C 0.42156 0.64251 0.39323 0.0
H730 H 0.3666 0.68769 0.39524 0.0
C731 C 0.43081 0.64691 0.35264 0.0
H732 H 0.39028 0.65348 0.4387 0.0
C733 C 0.41784 0.66724 0.32792 0.0
C734 C 0.39515 0.68296 0.34333 0.0
H735 H 0.4496 0.63656 0.34143 0.0
H736 H 0.4267 0.6719 0.29793 0.0
C737 C 0.38413 0.67614 0.38237 0.0
C738 C 0.06921 0.63067 0.12929 0.0
C739 C 0.0654 0.63974 0.08834 0.0
H740 H 0.08611 0.64045 0.18876 0.0
C741 C 0.08167 0.66234 0.07371 0.0
H742 H 0.05729 0.61317 0.14161 0.0
C743 C 0.09891 0.67747 0.1008 0.0
C744 C 0.09962 0.67044 0.14281 0.0
H745 H 0.07936 0.66975 0.04234 0.0
H746 H 0.10941 0.69624 0.08976 0.0
C747 C 0.08574 0.64622 0.15645 0.0
C748 C 0.08757 0.33431 0.81547 0.0
C749 C 0.10986 0.31669 0.82737 0.0
H750 H 0.05677 0.36417 0.83548 0.0
C751 C 0.12273 0.32123 0.8659 0.0
H752 H 0.07741 0.33162 0.78587 0.0
C753 C 0.11058 0.33943 0.89448 0.0
C754 C 0.08596 0.35405 0.88453 0.0
H755 H 0.14032 0.30847 0.87583 0.0
H756 H 0.1189 0.34005 0.92555 0.0
C757 C 0.07581 0.35307 0.84388 0.0
C758 C 0.40008 0.32472 0.56279 0.0
C759 C 0.41533 0.34899 0.57339 0.0
H760 H 0.37161 0.29289 0.58364 0.0
C761 C 0.40763 0.36381 0.60922 0.0
H762 H 0.40518 0.31299 0.53517 0.0
C763 C 0.38865 0.35213 0.6372 0.0
C764 C 0.37661 0.32573 0.62944 0.0
H765 H 0.41846 0.38296 0.61793 0.0
H766 H 0.38563 0.36237 0.6667 0.0
C767 C 0.38067 0.31325 0.59057 0.0
C768 C 0.26035 0.24997 0.22414 0.0
C769 C 0.28279 0.24535 0.25155 0.0
H770 H 0.21627 0.25758 0.21697 0.0
C771 C 0.27729 0.24466 0.29405 0.0
H772 H 0.26388 0.25075 0.19118 0.0
C773 C 0.24998 0.2487 0.30882 0.0
C774 C 0.2276 0.25358 0.28141 0.0
H775 H 0.29411 0.24129 0.31599 0.0
H776 H 0.24645 0.24806 0.34178 0.0
C777 C 0.23306 0.25406 0.23891 0.0
C778 C -0.00218 0.98859 0.54924 0.0
C779 C 0.99363 0.9661 0.52174 0.0
H780 H 0.00509 0.03276 0.55654 0.0
C781 C 0.99314 0.97163 0.47924 0.0
H782 H -0.00156 0.98505 0.5822 0.0
C783 C 0.99705 -0.001 0.46455 0.0
C784 C 0.00163 0.02142 0.49204 0.0
H785 H 0.9901 0.95477 0.45725 0.0
H786 H 0.99663 0.00253 0.43159 0.0
C787 C 0.00182 0.01594 0.53455 0.0
C788 C 0.26631 0.72657 0.7396 0.0
C789 C 0.27244 0.73156 0.78128 0.0
H790 H 0.23553 0.72827 0.69161 0.0
C791 C 0.25113 0.74209 0.80707 0.0
H792 H 0.28225 0.71851 0.71892 0.0
C793 C 0.22437 0.74782 0.79141 0.0
C794 C 0.21832 0.74307 0.74964 0.0
H795 H 0.25517 0.74622 0.83935 0.0
H796 H 0.20848 0.75606 0.81202 0.0
C797 C 0.23953 0.73223 0.72395 0.0
C798 C 0.48947 0.01235 0.98958 0.0
C799 C 0.48788 0.01868 0.03177 0.0
H800 H 0.48595 0.98087 0.94286 0.0
C801 C 0.48012 0.9973 0.05951 0.0
H802 H 0.49516 0.02839 0.9674 0.0
C803 C 0.47493 0.96996 0.04549 0.0
C804 C 0.47707 0.96352 1.00336 0.0
H805 H 0.4786 0.00153 0.09223 0.0
H806 H 0.46974 0.95378 0.06772 0.0
C807 C 0.48398 0.98512 0.97552 0.0
C808 C 0.24247 0.75041 0.21987 0.0
C809 C 0.21999 0.74424 0.24655 0.0
H810 H 0.28627 0.75997 0.21409 0.0
C811 C 0.22494 0.74339 0.28918 0.0
H812 H 0.23932 0.75134 0.18684 0.0
C813 C 0.25183 0.74851 0.30478 0.0
C814 C 0.27434 0.75456 0.27808 0.0
H815 H 0.20805 0.73885 0.31054 0.0
H816 H 0.25499 0.74751 0.3378 0.0
C817 C 0.26937 0.7555 0.23546 0.0
C818 C 0.49926 0.0021 0.45739 0.0
C819 C 0.50446 0.98007 0.48528 0.0
H820 H 0.49077 0.04598 0.44935 0.0
C821 C 0.50418 0.98581 0.5277 0.0
H822 H 0.49915 -0.00166 0.42447 0.0
C823 C 0.4991 0.01306 0.54193 0.0
C824 C 0.49428 0.03518 0.51404 0.0
H825 H 0.50786 0.96927 0.54999 0.0
H826 H 0.49939 0.01682 0.57485 0.0
C827 C 0.49426 0.02939 0.47162 0.0
C828 C 0.22164 0.22616 0.72517 0.0
C829 C 0.21512 0.22871 0.76721 0.0
H830 H 0.25327 0.22946 0.67848 0.0
C831 C 0.23665 0.23591 0.79501 0.0
H832 H 0.20552 0.22073 0.70297 0.0
C833 C 0.26388 0.24132 0.78095 0.0
C834 C 0.27027 0.23935 0.73882 0.0
H835 H 0.23233 0.23819 0.82761 0.0
H836 H 0.27987 0.24726 0.80307 0.0
C837 C 0.24898 0.23127 0.71115 0.0
C838 C 0.98337 0.02284 0.03783 0.0
C839 C 0.98629 0.0283 0.99554 0.0
H840 H 0.98648 0.99255 0.08628 0.0
C841 C 0.99525 0.00652 0.96933 0.0
H842 H 0.97666 0.0392 0.05885 0.0
C843 C 0.00096 0.97978 0.98504 0.0
C844 C -0.0021 0.97429 0.0273 0.0
H845 H -0.00218 0.01008 0.93658 0.0
H846 H 0.00757 0.96339 0.964 0.0
C847 C 0.98915 0.99612 0.05356 0.0
C848 C 0.75501 0.76135 0.72261 0.0
C849 C 0.77623 0.75084 0.74857 0.0
H850 H 0.71216 0.77459 0.71709 0.0
C851 C 0.77002 0.74605 0.79027 0.0
H852 H 0.75913 0.76535 0.69031 0.0
C853 C 0.74311 0.75146 0.80563 0.0
C854 C 0.72182 0.76175 0.77961 0.0
H855 H 0.78591 0.73805 0.81109 0.0
H856 H 0.73896 0.74735 0.83789 0.0
C857 C 0.72809 0.76673 0.73796 0.0
C858 C 0.73319 0.24511 0.22613 0.0
C859 C 0.71065 0.24961 0.2534 0.0
H860 H 0.77739 0.23809 0.21921 0.0
C861 C 0.71608 0.25072 0.2959 0.0
H862 H 0.72972 0.24401 0.19318 0.0
C863 C 0.74342 0.24721 0.31082 0.0
C864 C 0.76592 0.24245 0.28355 0.0
H865 H 0.69917 0.25402 0.31773 0.0
H866 H 0.7469 0.24817 0.34377 0.0
C867 C 0.76051 0.24154 0.24104 0.0
C868 C 0.73014 0.25245 0.77989 0.0
C869 C 0.72338 0.25429 0.73788 0.0
H870 H 0.76206 0.25595 0.82596 0.0
C871 C 0.74436 0.2625 0.70979 0.0
H872 H 0.7144 0.24641 0.80233 0.0
C873 C 0.77178 0.26788 0.72328 0.0
C874 C 0.77866 0.26548 0.76521 0.0
H875 H 0.73978 0.26421 0.67719 0.0
H876 H 0.78766 0.27341 0.70077 0.0
C877 C 0.75744 0.25813 0.79343 0.0
C878 C 0.75537 0.73856 0.22471 0.0
C879 C 0.77714 0.74613 0.25187 0.0
H880 H 0.71172 0.72867 0.21757 0.0
C881 C 0.7711 0.74908 0.29399 0.0
H882 H 0.75936 0.73603 0.19206 0.0
C883 C 0.74384 0.74465 0.30862 0.0
C884 C 0.72202 0.73727 0.28142 0.0
H885 H 0.78743 0.75474 0.31572 0.0
H886 H 0.73985 0.74727 0.34125 0.0
C887 C 0.72807 0.73423 0.23932 0.0
C888 C 0.50541 0.48075 0.98812 0.0
C889 C 0.50699 0.47439 0.03029 0.0
H890 H 0.50905 0.51226 0.94144 0.0
C891 C 0.51492 0.49569 0.05805 0.0
H892 H 0.49961 0.46476 0.96591 0.0
C893 C 0.52025 0.52301 0.04407 0.0
C894 C 0.51808 0.52951 1.00197 0.0
H895 H 0.51643 0.49143 0.09076 0.0
H896 H 0.52554 0.53914 0.06633 0.0
C897 C 0.51104 0.50796 0.97409 0.0
C898 C 0.99448 0.48348 0.52936 0.0
C899 C 0.99396 0.47716 0.4871 0.0
H900 H -0.0012 0.51528 0.57554 0.0
C901 C -0.00166 0.49898 0.45853 0.0
H902 H 0.99139 0.46714 0.55216 0.0
C903 C 0.00268 0.5266 0.47191 0.0
C904 C 0.00285 0.53299 0.51416 0.0
H905 H -0.00177 0.49479 0.42572 0.0
H906 H 0.00551 0.54299 0.4491 0.0
C907 C -0.00108 0.51108 0.54273 0.0
C908 C -0.00223 0.49029 0.96331 0.0
C909 C 0.00501 0.46845 0.99052 0.0
H910 H 0.98641 0.5336 0.9565 0.0
C911 C 0.00549 0.47387 0.03303 0.0
H912 H 0.9971 0.48675 0.93035 0.0
C913 C -0.00093 0.50063 0.048 0.0
C914 C 0.9922 0.52258 0.02076 0.0
H915 H 0.01078 0.45744 0.05479 0.0
H916 H -8e-05 0.50418 0.08094 0.0
C917 C 0.99151 0.51711 0.97827 0.0
C918 C 0.50033 0.46459 0.47411 0.0
C919 C 0.50005 0.45869 0.5165 0.0
H920 H 0.49593 0.49579 0.42708 0.0
C921 C 0.49529 0.48079 0.54446 0.0
H922 H 0.50378 0.44802 0.45178 0.0
C923 C 0.49053 0.50812 0.53032 0.0
C924 C 0.4905 0.51396 0.48792 0.0
H925 H 0.49481 0.47694 0.57735 0.0
H926 H 0.48687 0.52464 0.55265 0.0
C927 C 0.49564 0.49195 0.45997 0.0
C928 C 0.04859 0.28898 0.11032 0.0
C929 C 0.05941 0.31463 0.09582 0.0
H930 H 0.04969 0.25756 0.1578 0.0
C931 C 0.08125 0.32771 0.11777 0.0
H932 H 0.03179 0.27844 0.09387 0.0
C933 C 0.09231 0.31514 0.15337 0.0
C934 C 0.08101 0.28981 0.16836 0.0
H935 H 0.09012 0.34736 0.10697 0.0
H936 H 0.10913 0.32561 0.16982 0.0
C937 C 0.05888 0.27699 0.14672 0.0
C938 C 0.92606 0.81545 0.37821 0.0
C939 C 0.93851 0.79431 0.35412 0.0
H940 H 0.93052 0.84337 0.42984 0.0
C941 C 0.96548 0.78465 0.36466 0.0
H942 H 0.9054 0.82344 0.37051 0.0
C943 C 0.97954 0.79555 0.39903 0.0
C944 C 0.96735 0.81705 0.42272 0.0
H945 H 0.97557 0.76838 0.34658 0.0
H946 H 0.0001 0.78734 0.40682 0.0
C947 C 0.94054 0.82703 0.41183 0.0
C948 C 0.41354 0.65964 0.65368 0.0
C949 C 0.42643 0.68161 0.67562 0.0
H950 H 0.41597 0.63167 0.60175 0.0
C951 C 0.45207 0.69254 0.66127 0.0
H952 H 0.39391 0.65069 0.66437 0.0
C953 C 0.46424 0.68222 0.62503 0.0
C954 C 0.45161 0.65999 0.60339 0.0
H955 H 0.46247 0.70942 0.67772 0.0
H956 H 0.48366 0.69149 0.61407 0.0
C957 C 0.4263 0.64858 0.61822 0.0
C958 C 0.55718 0.16293 0.84689 0.0
C959 C 0.578 0.18397 0.84643 0.0
H960 H 0.53078 0.13618 0.88361 0.0
C961 C 0.58822 0.19425 0.88412 0.0
H962 H 0.54896 0.15449 0.81831 0.0
C963 C 0.57734 0.18419 0.92145 0.0
C964 C 0.55654 0.16313 0.92192 0.0
H965 H 0.60419 0.2105 0.88477 0.0
H966 H 0.58536 0.19283 0.95002 0.0
C967 C 0.54682 0.15235 0.88424 0.0
C968 C 0.0155 0.70469 0.3891 0.0
C969 C 0.02711 0.68257 0.41223 0.0
H970 H 0.02021 0.73238 0.33735 0.0
C971 C 0.05364 0.67203 0.40106 0.0
H972 H 0.99517 0.71336 0.39712 0.0
C973 C 0.06842 0.68362 0.36773 0.0
C974 C 0.05657 0.70539 0.34419 0.0
H975 H 0.06325 0.65523 0.41863 0.0
H976 H 0.08884 0.67512 0.35981 0.0
C977 C 0.02987 0.71565 0.35502 0.0
C978 C 0.54273 0.80107 0.65882 0.0
C979 C 0.56833 0.81187 0.67351 0.0
H980 H 0.51139 0.80234 0.61127 0.0
C981 C 0.58142 0.83382 0.65179 0.0
H982 H 0.53217 0.7842 0.67509 0.0
C983 C 0.5689 0.845 0.61623 0.0
C984 C 0.54362 0.83373 0.60107 0.0
H985 H 0.60103 0.84268 0.66274 0.0
H986 H 0.57938 0.86191 0.59995 0.0
C987 C 0.53079 0.8115 0.62249 0.0
C988 C 0.40589 0.29843 0.88347 0.0
C989 C 0.41602 0.30865 0.84569 0.0
H990 H 0.40889 0.29996 0.94934 0.0
C991 C 0.43692 0.32963 0.84597 0.0
H992 H 0.38987 0.28224 0.88425 0.0
C993 C 0.4474 0.34022 0.88322 0.0
C994 C 0.43772 0.32955 0.92099 0.0
H995 H 0.44507 0.33801 0.81732 0.0
H996 H 0.46346 0.35637 0.88245 0.0
C997 C 0.41688 0.30852 0.9207 0.0
C998 C 0.90022 0.1817 0.15496 0.0
C999 C 0.9115 0.2071 0.16975 0.0
H1000 H 0.90233 0.1494 0.10868 0.0
C1001 C 0.93345 0.21998 0.14779 0.0
H1002 H 0.88354 0.17118 0.17166 0.0
C1003 C 0.9436 0.20798 0.11132 0.0
C1004 C 0.93283 0.18225 0.09704 0.0
H1005 H 0.94262 0.23946 0.15871 0.0
H1006 H 0.96028 0.21855 0.09467 0.0
C1007 C 0.91115 0.16912 0.11928 0.0
C1008 C 0.97036 0.68797 0.89492 0.0
C1009 C 0.95666 0.66824 0.92009 0.0
H1010 H 0.96874 0.71276 0.83976 0.0
C1011 C 0.92962 0.65898 0.90902 0.0
H1012 H 0.99117 0.69552 0.90284 0.0
C1013 C 0.91632 0.66971 0.87377 0.0
C1014 C 0.93028 0.68908 0.84826 0.0
H1015 H 0.91852 0.64399 0.92818 0.0
H1016 H 0.89539 0.66246 0.866 0.0
C1017 C 0.95752 0.69786 0.85894 0.0
C1018 C 0.07277 0.18118 0.6538 0.0
C1019 C 0.06297 0.20765 0.66666 0.0
H1020 H 0.06848 0.14717 0.61067 0.0
C1021 C 0.0408 0.22027 0.64483 0.0
H1022 H 0.08962 0.17082 0.6703 0.0
C1023 C 0.0291 0.20701 0.61033 0.0
C1024 C 0.03869 0.18043 0.59768 0.0
H1025 H 0.03272 0.24061 0.6541 0.0
H1026 H 0.01239 0.21751 0.59367 0.0
C1027 C 0.06047 0.16752 0.61998 0.0
C1028 C 0.55373 0.3159 0.40122 0.0
C1029 C 0.52845 0.30502 0.41718 0.0
H1030 H 0.58678 0.31126 0.35637 0.0
C1031 C 0.51702 0.28079 0.39913 0.0
H1032 H 0.5632 0.33446 0.41472 0.0
C1033 C 0.5304 0.26763 0.366 0.0
C1034 C 0.55571 0.27819 0.35011 0.0
H1035 H 0.49751 0.27212 0.41062 0.0
H1036 H 0.52107 0.24894 0.35282 0.0
C1037 C 0.56739 0.30246 0.36816 0.0
C1038 C 0.43089 0.82171 0.11802 0.0
C1039 C 0.45699 0.81156 0.10418 0.0
H1040 H 0.39762 0.81791 0.16243 0.0
C1041 C 0.4697 0.78922 0.12557 0.0
H1042 H 0.42047 0.8387 0.10189 0.0
C1043 C 0.45689 0.77771 0.16057 0.0
C1044 C 0.43068 0.78767 0.1742 0.0
H1045 H 0.48975 0.78087 0.11555 0.0
H1046 H 0.46745 0.76087 0.17685 0.0
C1047 C 0.41768 0.80962 0.15236 0.0
C1048 C 0.93389 0.32847 0.61866 0.0
C1049 C 0.95581 0.31587 0.59626 0.0
H1050 H 0.90463 0.32461 0.66874 0.0
C1051 C 0.96551 0.28924 0.6085 0.0
H1052 H 0.92579 0.34885 0.60964 0.0
C1053 C 0.9538 0.27564 0.64272 0.0
C1054 C 0.93149 0.28795 0.66463 0.0
H1055 H 0.98232 0.27897 0.59175 0.0
H1056 H 0.96197 0.25529 0.65171 0.0
C1057 C 0.92158 0.31447 0.65216 0.0
C1058 C 0.42645 0.19126 0.36644 0.0
C1059 C 0.43781 0.21583 0.34888 0.0
H1060 H 0.43094 0.15899 0.41254 0.0
C1061 C 0.46285 0.22672 0.36521 0.0
H1062 H 0.40727 0.18221 0.35429 0.0
C1063 C 0.47628 0.21354 0.39829 0.0
C1064 C 0.46519 0.18898 0.41583 0.0
H1065 H 0.47192 0.24566 0.35244 0.0
H1066 H 0.49557 0.22246 0.41015 0.0
C1067 C 0.44016 0.1778 0.39944 0.0
C1068 C 0.52582 0.70359 0.12513 0.0
C1069 C 0.53855 0.68132 0.10366 0.0
H1070 H 0.528 0.73184 0.17654 0.0
C1071 C 0.56464 0.67115 0.11748 0.0
H1072 H 0.50577 0.71196 0.11513 0.0
C1073 C 0.57782 0.68316 0.15192 0.0
C1074 C 0.56479 0.70505 0.17384 0.0
H1075 H 0.57508 0.6542 0.10129 0.0
H1076 H 0.59788 0.67486 0.16197 0.0
C1077 C 0.53859 0.71504 0.1602 0.0
C1078 C 0.07061 0.79242 0.88439 0.0
C1079 C 0.0653 0.80615 0.84692 0.0
H1080 H 0.06197 0.79046 0.94917 0.0
C1081 C 0.0471 0.82946 0.84661 0.0
H1082 H 0.08443 0.77435 0.88549 0.0
C1083 C 0.03481 0.83915 0.88319 0.0
C1084 C 0.03975 0.82513 0.92054 0.0
H1085 H 0.0427 0.84049 0.81812 0.0
H1086 H 0.02118 0.85737 0.88218 0.0
C1087 C 0.05761 0.80155 0.92072 0.0
loop_
_geom_bond_atom_site_label_1
_geom_bond_atom_site_label_2
_geom_bond_distance
_geom_bond_site_symmetry_2
_ccdc_geom_bond_type
O0 Cd1 2.223 . S
O0 C8 1.315 . S
Cd1 O0 2.223 . S
Cd1 O4 2.297 . S
Cd1 O5 2.439 . S
Cd1 O11 2.240 . S
Cd2 O3 2.240 . S
Cd2 O10 2.223 . S
Cd2 O12 2.297 . S
Cd2 O13 2.439 . S
O3 Cd2 2.240 . S
O3 C8 1.279 . S
O4 Cd1 2.297 . S
O4 C6 1.247 . S
O5 Cd1 2.439 . S
O5 C6 1.208 . S
C6 O4 1.247 . S
C6 O5 1.208 . S
C7 O12 1.247 . S
C7 O13 1.208 . S
C8 O0 1.315 . S
C8 O3 1.279 . S
C9 O10 1.315 . S
C9 O11 1.279 . S
O10 Cd2 2.223 . S
O10 C9 1.315 . S
O11 Cd1 2.240 . S
O11 C9 1.279 . S
O12 Cd2 2.297 . S
O12 C7 1.247 . S
O13 Cd2 2.439 . S
O13 C7 1.208 . S
O14 Cd15 2.223 . S
O14 C22 1.315 . S
Cd15 O14 2.223 . S
Cd15 O18 2.297 . S
Cd15 O19 2.439 . S
Cd15 O25 2.240 . S
Cd16 O17 2.240 . S
Cd16 O24 2.223 . S
Cd16 O26 2.297 . S
Cd16 O27 2.439 . S
O17 Cd16 2.240 . S
O17 C22 1.279 . S
O18 Cd15 2.297 . S
O18 C20 1.247 . S
O19 Cd15 2.439 . S
O19 C20 1.208 . S
C20 O18 1.247 . S
C20 O19 1.208 . S
C21 O26 1.247 . S
C21 O27 1.208 . S
C22 O14 1.315 . S
C22 O17 1.279 . S
C23 O24 1.315 . S
C23 O25 1.279 . S
O24 Cd16 2.223 . S
O24 C23 1.315 . S
O25 Cd15 2.240 . S
O25 C23 1.279 . S
O26 Cd16 2.297 . S
O26 C21 1.247 . S
O27 Cd16 2.439 . S
O27 C21 1.208 . S
O28 Cd29 2.223 . S
O28 C36 1.315 . S
Cd29 O28 2.223 . S
Cd29 O32 2.297 . S
Cd29 O33 2.439 . S
Cd29 O39 2.240 . S
Cd30 O31 2.240 . S
Cd30 O38 2.223 . S
Cd30 O40 2.297 . S
Cd30 O41 2.439 . S
O31 Cd30 2.240 . S
O31 C36 1.279 . S
O32 Cd29 2.297 . S
O32 C34 1.247 . S
O33 Cd29 2.439 . S
O33 C34 1.208 . S
C34 O32 1.247 . S
C34 O33 1.208 . S
C35 O40 1.247 . S
C35 O41 1.208 . S
C36 O28 1.315 . S
C36 O31 1.279 . S
C37 O38 1.315 . S
C37 O39 1.279 . S
O38 Cd30 2.223 . S
O38 C37 1.315 . S
O39 Cd29 2.240 . S
O39 C37 1.279 . S
O40 Cd30 2.297 . S
O40 C35 1.247 . S
O41 Cd30 2.439 . S
O41 C35 1.208 . S
O42 Cd43 2.223 . S
O42 C50 1.315 . S
Cd43 O42 2.223 . S
Cd43 O46 2.297 . S
Cd43 O47 2.439 . S
Cd43 O53 2.240 . S
Cd44 O45 2.240 . S
Cd44 O52 2.223 . S
Cd44 O54 2.297 1_554 S
Cd44 O55 2.439 1_554 S
O45 Cd44 2.240 . S
O45 C50 1.279 . S
O46 Cd43 2.297 . S
O46 C48 1.247 . S
O47 Cd43 2.439 . S
O47 C48 1.208 . S
C48 O46 1.247 . S
C48 O47 1.208 . S
C49 O54 1.247 . S
C49 O55 1.208 . S
C50 O42 1.315 . S
C50 O45 1.279 . S
C51 O52 1.315 . S
C51 O53 1.279 . S
O52 Cd44 2.223 . S
O52 C51 1.315 . S
O53 Cd43 2.240 . S
O53 C51 1.279 . S
O54 Cd44 2.297 1_556 S
O54 C49 1.247 . S
O55 Cd44 2.439 1_556 S
O55 C49 1.208 . S
O56 Cd57 2.223 . S
O56 C64 1.315 . S
Cd57 O56 2.223 . S
Cd57 O60 2.297 . S
Cd57 O61 2.439 . S
Cd57 O67 2.240 . S
Cd58 O59 2.240 . S
Cd58 O66 2.223 . S
Cd58 O68 2.297 . S
Cd58 O69 2.439 . S
O59 Cd58 2.240 . S
O59 C64 1.279 . S
O60 Cd57 2.297 . S
O60 C62 1.247 . S
O61 Cd57 2.439 . S
O61 C62 1.208 . S
C62 O60 1.247 . S
C62 O61 1.208 . S
C63 O68 1.247 . S
C63 O69 1.208 . S
C64 O56 1.315 . S
C64 O59 1.279 . S
C65 O66 1.315 . S
C65 O67 1.279 . S
O66 Cd58 2.223 . S
O66 C65 1.315 . S
O67 Cd57 2.240 . S
O67 C65 1.279 . S
O68 Cd58 2.297 . S
O68 C63 1.247 . S
O69 Cd58 2.439 . S
O69 C63 1.208 . S
O70 Cd71 2.223 . S
O70 C78 1.315 . S
Cd71 O70 2.223 . S
Cd71 O74 2.297 . S
Cd71 O75 2.439 . S
Cd71 O81 2.240 . S
Cd72 O73 2.240 . S
Cd72 O80 2.223 . S
Cd72 O82 2.297 . S
Cd72 O83 2.439 . S
O73 Cd72 2.240 . S
O73 C78 1.279 . S
O74 Cd71 2.297 . S
O74 C76 1.247 . S
O75 Cd71 2.439 . S
O75 C76 1.208 . S
C76 O74 1.247 . S
C76 O75 1.208 . S
C77 O82 1.247 . S
C77 O83 1.208 . S
C78 O70 1.315 . S
C78 O73 1.279 . S
C79 O80 1.315 . S
C79 O81 1.279 . S
O80 Cd72 2.223 . S
O80 C79 1.315 . S
O81 Cd71 2.240 . S
O81 C79 1.279 . S
O82 Cd72 2.297 . S
O82 C77 1.247 . S
O83 Cd72 2.439 . S
O83 C77 1.208 . S
O84 Cd85 2.223 . S
O84 C92 1.315 . S
Cd85 O84 2.223 . S
Cd85 O88 2.297 . S
Cd85 O89 2.439 . S
Cd85 O95 2.240 . S
Cd86 O87 2.240 . S
Cd86 O94 2.223 . S
Cd86 O96 2.297 . S
Cd86 O97 2.439 . S
O87 Cd86 2.240 . S
O87 C92 1.279 . S
O88 Cd85 2.297 . S
O88 C90 1.247 . S
O89 Cd85 2.439 . S
O89 C90 1.208 . S
C90 O88 1.247 . S
C90 O89 1.208 . S
C91 O96 1.247 . S
C91 O97 1.208 . S
C92 O84 1.315 . S
C92 O87 1.279 . S
C93 O94 1.315 . S
C93 O95 1.279 . S
O94 Cd86 2.223 . S
O94 C93 1.315 . S
O95 Cd85 2.240 . S
O95 C93 1.279 . S
O96 Cd86 2.297 . S
O96 C91 1.247 . S
O97 Cd86 2.439 . S
O97 C91 1.208 . S
O98 Cd99 2.223 . S
O98 C106 1.315 . S
Cd99 O98 2.223 . S
Cd99 O102 2.297 . S
Cd99 O103 2.439 . S
Cd99 O109 2.240 . S
Cd100 O101 2.240 . S
Cd100 O108 2.223 . S
Cd100 O110 2.297 1_556 S
Cd100 O111 2.439 1_556 S
O101 Cd100 2.240 . S
O101 C106 1.279 . S
O102 Cd99 2.297 . S
O102 C104 1.247 . S
O103 Cd99 2.439 . S
O103 C104 1.208 . S
C104 O102 1.247 . S
C104 O103 1.208 . S
C105 O110 1.247 . S
C105 O111 1.208 . S
C106 O98 1.315 . S
C106 O101 1.279 . S
C107 O108 1.315 . S
C107 O109 1.279 . S
O108 Cd100 2.223 . S
O108 C107 1.315 . S
O109 Cd99 2.240 . S
O109 C107 1.279 . S
O110 Cd100 2.297 1_554 S
O110 C105 1.247 . S
O111 Cd100 2.439 1_554 S
O111 C105 1.208 . S
O112 Cd113 2.223 . S
O112 C120 1.315 . S
Cd113 O112 2.223 . S
Cd113 O116 2.297 . S
Cd113 O117 2.439 . S
Cd113 O123 2.240 . S
Cd114 O115 2.240 . S
Cd114 O122 2.223 . S
Cd114 O124 2.297 . S
Cd114 O125 2.439 . S
O115 Cd114 2.240 . S
O115 C120 1.279 . S
O116 Cd113 2.297 . S
O116 C118 1.247 . S
O117 Cd113 2.439 . S
O117 C118 1.208 . S
C118 O116 1.247 . S
C118 O117 1.208 . S
C119 O124 1.247 . S
C119 O125 1.208 . S
C120 O112 1.315 . S
C120 O115 1.279 . S
C121 O122 1.315 . S
C121 O123 1.279 . S
O122 Cd114 2.223 . S
O122 C121 1.315 . S
O123 Cd113 2.240 . S
O123 C121 1.279 . S
O124 Cd114 2.297 . S
O124 C119 1.247 . S
O125 Cd114 2.439 . S
O125 C119 1.208 . S
O126 Cd127 2.223 . S
O126 C134 1.315 . S
Cd127 O126 2.223 . S
Cd127 O130 2.297 . S
Cd127 O131 2.439 . S
Cd127 O137 2.240 . S
Cd128 O129 2.240 . S
Cd128 O136 2.223 . S
Cd128 O138 2.297 . S
Cd128 O139 2.439 . S
O129 Cd128 2.240 . S
O129 C134 1.279 . S
O130 Cd127 2.297 . S
O130 C132 1.247 . S
O131 Cd127 2.439 . S
O131 C132 1.208 . S
C132 O130 1.247 . S
C132 O131 1.208 . S
C133 O138 1.247 . S
C133 O139 1.208 . S
C134 O126 1.315 . S
C134 O129 1.279 . S
C135 O136 1.315 . S
C135 O137 1.279 . S
O136 Cd128 2.223 . S
O136 C135 1.315 . S
O137 Cd127 2.240 . S
O137 C135 1.279 . S
O138 Cd128 2.297 . S
O138 C133 1.247 . S
O139 Cd128 2.439 . S
O139 C133 1.208 . S
O140 Cd141 2.223 . S
O140 C148 1.315 . S
Cd141 O140 2.223 . S
Cd141 O144 2.297 . S
Cd141 O145 2.439 . S
Cd141 O151 2.240 . S
Cd142 O143 2.240 . S
Cd142 O150 2.223 . S
Cd142 O152 2.297 . S
Cd142 O153 2.439 . S
O143 Cd142 2.240 . S
O143 C148 1.279 . S
O144 Cd141 2.297 . S
O144 C146 1.247 . S
O145 Cd141 2.439 . S
O145 C146 1.208 . S
C146 O144 1.247 . S
C146 O145 1.208 . S
C147 O152 1.247 . S
C147 O153 1.208 . S
C148 O140 1.315 . S
C148 O143 1.279 . S
C149 O150 1.315 . S
C149 O151 1.279 . S
O150 Cd142 2.223 . S
O150 C149 1.315 . S
O151 Cd141 2.240 . S
O151 C149 1.279 . S
O152 Cd142 2.297 . S
O152 C147 1.247 . S
O153 Cd142 2.439 . S
O153 C147 1.208 . S
O154 Cd155 2.223 . S
O154 C162 1.315 . S
Cd155 O154 2.223 . S
Cd155 O158 2.297 . S
Cd155 O159 2.439 . S
Cd155 O165 2.240 . S
Cd156 O157 2.240 . S
Cd156 O164 2.223 . S
Cd156 O166 2.297 1_556 S
Cd156 O167 2.439 1_556 S
O157 Cd156 2.240 . S
O157 C162 1.279 . S
O158 Cd155 2.297 . S
O158 C160 1.247 . S
O159 Cd155 2.439 . S
O159 C160 1.208 . S
C160 O158 1.247 . S
C160 O159 1.208 . S
C161 O166 1.247 . S
C161 O167 1.208 . S
C162 O154 1.315 . S
C162 O157 1.279 . S
C163 O164 1.315 . S
C163 O165 1.279 . S
O164 Cd156 2.223 . S
O164 C163 1.315 . S
O165 Cd155 2.240 . S
O165 C163 1.279 . S
O166 Cd156 2.297 1_554 S
O166 C161 1.247 . S
O167 Cd156 2.439 1_554 S
O167 C161 1.208 . S
O168 Cd169 2.223 . S
O168 C176 1.315 . S
Cd169 O168 2.223 . S
Cd169 O172 2.297 . S
Cd169 O173 2.439 . S
Cd169 O179 2.240 . S
Cd170 O171 2.240 . S
Cd170 O178 2.223 . S
Cd170 O180 2.297 . S
Cd170 O181 2.439 . S
O171 Cd170 2.240 . S
O171 C176 1.279 . S
O172 Cd169 2.297 . S
O172 C174 1.247 . S
O173 Cd169 2.439 . S
O173 C174 1.208 . S
C174 O172 1.247 . S
C174 O173 1.208 . S
C175 O180 1.247 . S
C175 O181 1.208 . S
C176 O168 1.315 . S
C176 O171 1.279 . S
C177 O178 1.315 . S
C177 O179 1.279 . S
O178 Cd170 2.223 . S
O178 C177 1.315 . S
O179 Cd169 2.240 . S
O179 C177 1.279 . S
O180 Cd170 2.297 . S
O180 C175 1.247 . S
O181 Cd170 2.439 . S
O181 C175 1.208 . S
O182 Cd183 2.223 . S
O182 C190 1.315 . S
Cd183 O182 2.223 . S
Cd183 O186 2.297 . S
Cd183 O187 2.439 . S
Cd183 O193 2.240 . S
Cd184 O185 2.240 . S
Cd184 O192 2.223 . S
Cd184 O194 2.297 . S
Cd184 O195 2.439 . S
O185 Cd184 2.240 . S
O185 C190 1.279 . S
O186 Cd183 2.297 . S
O186 C188 1.247 . S
O187 Cd183 2.439 . S
O187 C188 1.208 . S
C188 O186 1.247 . S
C188 O187 1.208 . S
C189 O194 1.247 . S
C189 O195 1.208 . S
C190 O182 1.315 . S
C190 O185 1.279 . S
C191 O192 1.315 . S
C191 O193 1.279 . S
O192 Cd184 2.223 . S
O192 C191 1.315 . S
O193 Cd183 2.240 . S
O193 C191 1.279 . S
O194 Cd184 2.297 . S
O194 C189 1.247 . S
O195 Cd184 2.439 . S
O195 C189 1.208 . S
O196 Cd197 2.223 . S
O196 C204 1.315 . S
Cd197 O196 2.223 . S
Cd197 O200 2.297 . S
Cd197 O201 2.439 . S
Cd197 O207 2.240 . S
Cd198 O199 2.240 . S
Cd198 O206 2.223 . S
Cd198 O208 2.297 . S
Cd198 O209 2.439 . S
O199 Cd198 2.240 . S
O199 C204 1.279 . S
O200 Cd197 2.297 . S
O200 C202 1.247 . S
O201 Cd197 2.439 . S
O201 C202 1.208 . S
C202 O200 1.247 . S
C202 O201 1.208 . S
C203 O208 1.247 . S
C203 O209 1.208 . S
C204 O196 1.315 . S
C204 O199 1.279 . S
C205 O206 1.315 . S
C205 O207 1.279 . S
O206 Cd198 2.223 . S
O206 C205 1.315 . S
O207 Cd197 2.240 . S
O207 C205 1.279 . S
O208 Cd198 2.297 . S
O208 C203 1.247 . S
O209 Cd198 2.439 . S
O209 C203 1.208 . S
O210 Cd211 2.223 . S
O210 C218 1.315 . S
Cd211 O210 2.223 . S
Cd211 O214 2.297 . S
Cd211 O215 2.439 . S
Cd211 O221 2.240 . S
Cd212 O213 2.240 . S
Cd212 O220 2.223 . S
Cd212 O222 2.297 1_554 S
Cd212 O223 2.439 1_554 S
O213 Cd212 2.240 . S
O213 C218 1.279 . S
O214 Cd211 2.297 . S
O214 C216 1.247 . S
O215 Cd211 2.439 . S
O215 C216 1.208 . S
C216 O214 1.247 . S
C216 O215 1.208 . S
C217 O222 1.247 . S
C217 O223 1.208 . S
C218 O210 1.315 . S
C218 O213 1.279 . S
C219 O220 1.315 . S
C219 O221 1.279 . S
O220 Cd212 2.223 . S
O220 C219 1.315 . S
O221 Cd211 2.240 . S
O221 C219 1.279 . S
O222 Cd212 2.297 1_556 S
O222 C217 1.247 . S
O223 Cd212 2.439 1_556 S
O223 C217 1.208 . S
O224 Cd225 2.223 . S
O224 C232 1.315 . S
Cd225 O224 2.223 . S
Cd225 O228 2.297 . S
Cd225 O229 2.439 . S
Cd225 O235 2.240 . S
Cd226 O227 2.240 . S
Cd226 O234 2.223 . S
Cd226 O236 2.297 . S
Cd226 O237 2.439 . S
O227 Cd226 2.240 . S
O227 C232 1.279 . S
O228 Cd225 2.297 . S
O228 C230 1.247 . S
O229 Cd225 2.439 . S
O229 C230 1.208 . S
C230 O228 1.247 . S
C230 O229 1.208 . S
C231 O236 1.247 . S
C231 O237 1.208 . S
C232 O224 1.315 . S
C232 O227 1.279 . S
C233 O234 1.315 . S
C233 O235 1.279 . S
O234 Cd226 2.223 . S
O234 C233 1.315 . S
O235 Cd225 2.240 . S
O235 C233 1.279 . S
O236 Cd226 2.297 . S
O236 C231 1.247 . S
O237 Cd226 2.439 . S
O237 C231 1.208 . S
O238 Cd239 2.223 . S
O238 C246 1.315 . S
Cd239 O238 2.223 . S
Cd239 O242 2.297 . S
Cd239 O243 2.439 . S
Cd239 O249 2.240 . S
Cd240 O241 2.240 . S
Cd240 O248 2.223 . S
Cd240 O250 2.297 1_554 S
Cd240 O251 2.439 1_554 S
O241 Cd240 2.240 . S
O241 C246 1.279 . S
O242 Cd239 2.297 . S
O242 C244 1.247 . S
O243 Cd239 2.439 . S
O243 C244 1.208 . S
C244 O242 1.247 . S
C244 O243 1.208 . S
C245 O250 1.247 . S
C245 O251 1.208 . S
C246 O238 1.315 . S
C246 O241 1.279 . S
C247 O248 1.315 . S
C247 O249 1.279 . S
O248 Cd240 2.223 . S
O248 C247 1.315 . S
O249 Cd239 2.240 . S
O249 C247 1.279 . S
O250 Cd240 2.297 1_556 S
O250 C245 1.247 . S
O251 Cd240 2.439 1_556 S
O251 C245 1.208 . S
O252 Cd253 2.223 . S
O252 C260 1.315 . S
Cd253 O252 2.223 . S
Cd253 O256 2.297 . S
Cd253 O257 2.439 . S
Cd253 O263 2.240 . S
Cd254 O255 2.240 . S
Cd254 O262 2.223 . S
Cd254 O264 2.297 . S
Cd254 O265 2.439 . S
O255 Cd254 2.240 . S
O255 C260 1.279 . S
O256 Cd253 2.297 . S
O256 C258 1.247 . S
O257 Cd253 2.439 . S
O257 C258 1.208 . S
C258 O256 1.247 . S
C258 O257 1.208 . S
C259 O264 1.247 . S
C259 O265 1.208 . S
C260 O252 1.315 . S
C260 O255 1.279 . S
C261 O262 1.315 . S
C261 O263 1.279 . S
O262 Cd254 2.223 . S
O262 C261 1.315 . S
O263 Cd253 2.240 . S
O263 C261 1.279 . S
O264 Cd254 2.297 . S
O264 C259 1.247 . S
O265 Cd254 2.439 . S
O265 C259 1.208 . S
O266 Cd267 2.223 . S
O266 C274 1.315 . S
Cd267 O266 2.223 . S
Cd267 O270 2.297 . S
Cd267 O271 2.439 . S
Cd267 O277 2.240 . S
Cd268 O269 2.240 . S
Cd268 O276 2.223 . S
Cd268 O278 2.297 . S
Cd268 O279 2.439 . S
O269 Cd268 2.240 . S
O269 C274 1.279 . S
O270 Cd267 2.297 . S
O270 C272 1.247 . S
O271 Cd267 2.439 . S
O271 C272 1.208 . S
C272 O270 1.247 . S
C272 O271 1.208 . S
C273 O278 1.247 . S
C273 O279 1.208 . S
C274 O266 1.315 . S
C274 O269 1.279 . S
C275 O276 1.315 . S
C275 O277 1.279 . S
O276 Cd268 2.223 . S
O276 C275 1.315 . S
O277 Cd267 2.240 . S
O277 C275 1.279 . S
O278 Cd268 2.297 . S
O278 C273 1.247 . S
O279 Cd268 2.439 . S
O279 C273 1.208 . S
O280 Cd281 2.223 . S
O280 C288 1.315 . S
Cd281 O280 2.223 . S
Cd281 O284 2.297 . S
Cd281 O285 2.439 . S
Cd281 O291 2.240 . S
Cd282 O283 2.240 . S
Cd282 O290 2.223 . S
Cd282 O292 2.297 . S
Cd282 O293 2.439 . S
O283 Cd282 2.240 . S
O283 C288 1.279 . S
O284 Cd281 2.297 . S
O284 C286 1.247 . S
O285 Cd281 2.439 . S
O285 C286 1.208 . S
C286 O284 1.247 . S
C286 O285 1.208 . S
C287 O292 1.247 . S
C287 O293 1.208 . S
C288 O280 1.315 . S
C288 O283 1.279 . S
C289 O290 1.315 . S
C289 O291 1.279 . S
O290 Cd282 2.223 . S
O290 C289 1.315 . S
O291 Cd281 2.240 . S
O291 C289 1.279 . S
O292 Cd282 2.297 . S
O292 C287 1.247 . S
O293 Cd282 2.439 . S
O293 C287 1.208 . S
O294 Cd295 2.223 . S
O294 C302 1.315 . S
Cd295 O294 2.223 . S
Cd295 O298 2.297 . S
Cd295 O299 2.439 . S
Cd295 O305 2.240 . S
Cd296 O297 2.240 . S
Cd296 O304 2.223 . S
Cd296 O306 2.297 1_556 S
Cd296 O307 2.439 1_556 S
O297 Cd296 2.240 . S
O297 C302 1.279 . S
O298 Cd295 2.297 . S
O298 C300 1.247 . S
O299 Cd295 2.439 . S
O299 C300 1.208 . S
C300 O298 1.247 . S
C300 O299 1.208 . S
C301 O306 1.247 . S
C301 O307 1.208 . S
C302 O294 1.315 . S
C302 O297 1.279 . S
C303 O304 1.315 . S
C303 O305 1.279 . S
O304 Cd296 2.223 . S
O304 C303 1.315 . S
O305 Cd295 2.240 . S
O305 C303 1.279 . S
O306 Cd296 2.297 1_554 S
O306 C301 1.247 . S
O307 Cd296 2.439 1_554 S
O307 C301 1.208 . S
O308 Cd309 2.223 . S
O308 C316 1.315 . S
Cd309 O308 2.223 . S
Cd309 O312 2.297 . S
Cd309 O313 2.439 . S
Cd309 O319 2.240 . S
Cd310 O311 2.240 . S
Cd310 O318 2.223 . S
Cd310 O320 2.297 . S
Cd310 O321 2.439 . S
O311 Cd310 2.240 . S
O311 C316 1.279 . S
O312 Cd309 2.297 . S
O312 C314 1.247 . S
O313 Cd309 2.439 . S
O313 C314 1.208 . S
C314 O312 1.247 . S
C314 O313 1.208 . S
C315 O320 1.247 . S
C315 O321 1.208 . S
C316 O308 1.315 . S
C316 O311 1.279 . S
C317 O318 1.315 . S
C317 O319 1.279 . S
O318 Cd310 2.223 . S
O318 C317 1.315 . S
O319 Cd309 2.240 . S
O319 C317 1.279 . S
O320 Cd310 2.297 . S
O320 C315 1.247 . S
O321 Cd310 2.439 . S
O321 C315 1.208 . S
O322 Cd323 2.223 . S
O322 C330 1.315 . S
Cd323 O322 2.223 . S
Cd323 O326 2.297 . S
Cd323 O327 2.439 . S
Cd323 O333 2.240 . S
Cd324 O325 2.240 . S
Cd324 O332 2.223 . S
Cd324 O334 2.297 . S
Cd324 O335 2.439 . S
O325 Cd324 2.240 . S
O325 C330 1.279 . S
O326 Cd323 2.297 . S
O326 C328 1.247 . S
O327 Cd323 2.439 . S
O327 C328 1.208 . S
C328 O326 1.247 . S
C328 O327 1.208 . S
C329 O334 1.247 . S
C329 O335 1.208 . S
C330 O322 1.315 . S
C330 O325 1.279 . S
C331 O332 1.315 . S
C331 O333 1.279 . S
O332 Cd324 2.223 . S
O332 C331 1.315 . S
O333 Cd323 2.240 . S
O333 C331 1.279 . S
O334 Cd324 2.297 . S
O334 C329 1.247 . S
O335 Cd324 2.439 . S
O335 C329 1.208 . S
O336 Cd337 2.223 . S
O336 C344 1.315 . S
Cd337 O336 2.223 . S
Cd337 O340 2.297 . S
Cd337 O341 2.439 . S
Cd337 O347 2.240 . S
Cd338 O339 2.240 . S
Cd338 O346 2.223 . S
Cd338 O348 2.297 . S
Cd338 O349 2.439 . S
O339 Cd338 2.240 . S
O339 C344 1.279 . S
O340 Cd337 2.297 . S
O340 C342 1.247 . S
O341 Cd337 2.439 . S
O341 C342 1.208 . S
C342 O340 1.247 . S
C342 O341 1.208 . S
C343 O348 1.247 . S
C343 O349 1.208 . S
C344 O336 1.315 . S
C344 O339 1.279 . S
C345 O346 1.315 . S
C345 O347 1.279 . S
O346 Cd338 2.223 . S
O346 C345 1.315 . S
O347 Cd337 2.240 . S
O347 C345 1.279 . S
O348 Cd338 2.297 . S
O348 C343 1.247 . S
O349 Cd338 2.439 . S
O349 C343 1.208 . S
O350 Cd351 2.223 . S
O350 C358 1.315 . S
Cd351 O350 2.223 . S
Cd351 O354 2.297 . S
Cd351 O355 2.439 . S
Cd351 O361 2.240 . S
Cd352 O353 2.240 . S
Cd352 O360 2.223 . S
Cd352 O362 2.297 1_556 S
Cd352 O363 2.439 1_556 S
O353 Cd352 2.240 . S
O353 C358 1.279 . S
O354 Cd351 2.297 . S
O354 C356 1.247 . S
O355 Cd351 2.439 . S
O355 C356 1.208 . S
C356 O354 1.247 . S
C356 O355 1.208 . S
C357 O362 1.247 . S
C357 O363 1.208 . S
C358 O350 1.315 . S
C358 O353 1.279 . S
C359 O360 1.315 . S
C359 O361 1.279 . S
O360 Cd352 2.223 . S
O360 C359 1.315 . S
O361 Cd351 2.240 . S
O361 C359 1.279 . S
O362 Cd352 2.297 1_554 S
O362 C357 1.247 . S
O363 Cd352 2.439 1_554 S
O363 C357 1.208 . S
O364 Cd365 2.223 . S
O364 C372 1.315 . S
Cd365 O364 2.223 . S
Cd365 O368 2.297 . S
Cd365 O369 2.439 . S
Cd365 O375 2.240 . S
Cd366 O367 2.240 . S
Cd366 O374 2.223 . S
Cd366 O376 2.297 . S
Cd366 O377 2.439 . S
O367 Cd366 2.240 . S
O367 C372 1.279 . S
O368 Cd365 2.297 . S
O368 C370 1.247 . S
O369 Cd365 2.439 . S
O369 C370 1.208 . S
C370 O368 1.247 . S
C370 O369 1.208 . S
C371 O376 1.247 . S
C371 O377 1.208 . S
C372 O364 1.315 . S
C372 O367 1.279 . S
C373 O374 1.315 . S
C373 O375 1.279 . S
O374 Cd366 2.223 . S
O374 C373 1.315 . S
O375 Cd365 2.240 . S
O375 C373 1.279 . S
O376 Cd366 2.297 . S
O376 C371 1.247 . S
O377 Cd366 2.439 . S
O377 C371 1.208 . S
O378 Cd379 2.223 . S
O378 C386 1.315 . S
Cd379 O378 2.223 . S
Cd379 O382 2.297 . S
Cd379 O383 2.439 . S
Cd379 O389 2.240 . S
Cd380 O381 2.240 . S
Cd380 O388 2.223 . S
Cd380 O390 2.297 . S
Cd380 O391 2.439 . S
O381 Cd380 2.240 . S
O381 C386 1.279 . S
O382 Cd379 2.297 . S
O382 C384 1.247 . S
O383 Cd379 2.439 . S
O383 C384 1.208 . S
C384 O382 1.247 . S
C384 O383 1.208 . S
C385 O390 1.247 . S
C385 O391 1.208 . S
C386 O378 1.315 . S
C386 O381 1.279 . S
C387 O388 1.315 . S
C387 O389 1.279 . S
O388 Cd380 2.223 . S
O388 C387 1.315 . S
O389 Cd379 2.240 . S
O389 C387 1.279 . S
O390 Cd380 2.297 . S
O390 C385 1.247 . S
O391 Cd380 2.439 . S
O391 C385 1.208 . S
O392 Cd393 2.223 . S
O392 C400 1.315 . S
Cd393 O392 2.223 . S
Cd393 O396 2.297 . S
Cd393 O397 2.439 . S
Cd393 O403 2.240 . S
Cd394 O395 2.240 . S
Cd394 O402 2.223 . S
Cd394 O404 2.297 . S
Cd394 O405 2.439 . S
O395 Cd394 2.240 . S
O395 C400 1.279 . S
O396 Cd393 2.297 . S
O396 C398 1.247 . S
O397 Cd393 2.439 . S
O397 C398 1.208 . S
C398 O396 1.247 . S
C398 O397 1.208 . S
C399 O404 1.247 . S
C399 O405 1.208 . S
C400 O392 1.315 . S
C400 O395 1.279 . S
C401 O402 1.315 . S
C401 O403 1.279 . S
O402 Cd394 2.223 . S
O402 C401 1.315 . S
O403 Cd393 2.240 . S
O403 C401 1.279 . S
O404 Cd394 2.297 . S
O404 C399 1.247 . S
O405 Cd394 2.439 . S
O405 C399 1.208 . S
O406 Cd407 2.223 . S
O406 C414 1.315 . S
Cd407 O406 2.223 . S
Cd407 O410 2.297 . S
Cd407 O411 2.439 . S
Cd407 O417 2.240 . S
Cd408 O409 2.240 . S
Cd408 O416 2.223 . S
Cd408 O418 2.297 1_554 S
Cd408 O419 2.439 1_554 S
O409 Cd408 2.240 . S
O409 C414 1.279 . S
O410 Cd407 2.297 . S
O410 C412 1.247 . S
O411 Cd407 2.439 . S
O411 C412 1.208 . S
C412 O410 1.247 . S
C412 O411 1.208 . S
C413 O418 1.247 . S
C413 O419 1.208 . S
C414 O406 1.315 . S
C414 O409 1.279 . S
C415 O416 1.315 . S
C415 O417 1.279 . S
O416 Cd408 2.223 . S
O416 C415 1.315 . S
O417 Cd407 2.240 . S
O417 C415 1.279 . S
O418 Cd408 2.297 1_556 S
O418 C413 1.247 . S
O419 Cd408 2.439 1_556 S
O419 C413 1.208 . S
O420 Cd421 2.223 . S
O420 C428 1.315 . S
Cd421 O420 2.223 . S
Cd421 O424 2.297 . S
Cd421 O425 2.439 . S
Cd421 O431 2.240 . S
Cd422 O423 2.240 . S
Cd422 O430 2.223 . S
Cd422 O432 2.297 . S
Cd422 O433 2.439 . S
O423 Cd422 2.240 . S
O423 C428 1.279 . S
O424 Cd421 2.297 . S
O424 C426 1.247 . S
O425 Cd421 2.439 . S
O425 C426 1.208 . S
C426 O424 1.247 . S
C426 O425 1.208 . S
C427 O432 1.247 . S
C427 O433 1.208 . S
C428 O420 1.315 . S
C428 O423 1.279 . S
C429 O430 1.315 . S
C429 O431 1.279 . S
O430 Cd422 2.223 . S
O430 C429 1.315 . S
O431 Cd421 2.240 . S
O431 C429 1.279 . S
O432 Cd422 2.297 . S
O432 C427 1.247 . S
O433 Cd422 2.439 . S
O433 C427 1.208 . S
O434 Cd435 2.223 . S
O434 C442 1.315 . S
Cd435 O434 2.223 . S
Cd435 O438 2.297 . S
Cd435 O439 2.439 . S
Cd435 O445 2.240 . S
Cd436 O437 2.240 . S
Cd436 O444 2.223 . S
Cd436 O446 2.297 . S
Cd436 O447 2.439 . S
O437 Cd436 2.240 . S
O437 C442 1.279 . S
O438 Cd435 2.297 . S
O438 C440 1.247 . S
O439 Cd435 2.439 . S
O439 C440 1.208 . S
C440 O438 1.247 . S
C440 O439 1.208 . S
C441 O446 1.247 . S
C441 O447 1.208 . S
C442 O434 1.315 . S
C442 O437 1.279 . S
C443 O444 1.315 . S
C443 O445 1.279 . S
O444 Cd436 2.223 . S
O444 C443 1.315 . S
O445 Cd435 2.240 . S
O445 C443 1.279 . S
O446 Cd436 2.297 . S
O446 C441 1.247 . S
O447 Cd436 2.439 . S
O447 C441 1.208 . S
C448 C449 1.387 . S
C448 H452 0.950 . S
C448 C457 1.390 . S
C449 C448 1.387 . S
C449 C451 1.387 . S
H450 C457 0.950 . S
C451 C449 1.387 . S
C451 C453 1.390 . S
C451 H455 0.950 . S
H452 C448 0.950 . S
C453 C451 1.390 . S
C453 C454 1.387 . S
C453 H456 0.950 . S
C454 C453 1.387 . S
C454 C457 1.387 . S
H455 C451 0.950 . S
H456 C453 0.950 . S
C457 C448 1.390 . S
C457 H450 0.950 . S
C457 C454 1.387 . S
C458 C459 1.387 . S
C458 H462 0.950 . S
C458 C467 1.390 . S
C459 C458 1.387 . S
C459 C461 1.387 . S
H460 C467 0.950 . S
C461 C459 1.387 . S
C461 C463 1.390 . S
C461 H465 0.950 . S
H462 C458 0.950 . S
C463 C461 1.390 . S
C463 C464 1.387 . S
C463 H466 0.950 . S
C464 C463 1.387 . S
C464 C467 1.387 . S
H465 C461 0.950 . S
H466 C463 0.950 . S
C467 C458 1.390 . S
C467 H460 0.950 . S
C467 C464 1.387 . S
C468 C469 1.387 . S
C468 H472 0.950 . S
C468 C477 1.390 . S
C469 C468 1.387 . S
C469 C471 1.387 . S
H470 C477 0.950 . S
C471 C469 1.387 . S
C471 C473 1.390 . S
C471 H475 0.950 . S
H472 C468 0.950 . S
C473 C471 1.390 . S
C473 C474 1.387 . S
C473 H476 0.950 . S
C474 C473 1.387 . S
C474 C477 1.387 . S
H475 C471 0.950 . S
H476 C473 0.950 . S
C477 C468 1.390 . S
C477 H470 0.950 . S
C477 C474 1.387 . S
C478 C479 1.387 . S
C478 H482 0.950 . S
C478 C487 1.390 . S
C479 C478 1.387 . S
C479 C481 1.387 . S
H480 C487 0.950 . S
C481 C479 1.387 . S
C481 C483 1.390 . S
C481 H485 0.950 . S
H482 C478 0.950 . S
C483 C481 1.390 . S
C483 C484 1.387 . S
C483 H486 0.950 . S
C484 C483 1.387 . S
C484 C487 1.387 . S
H485 C481 0.950 . S
H486 C483 0.950 . S
C487 C478 1.390 . S
C487 H480 0.950 . S
C487 C484 1.387 . S
C488 C489 1.387 . S
C488 H492 0.950 . S
C488 C497 1.390 . S
C489 C488 1.387 . S
C489 C491 1.387 . S
H490 C497 0.950 . S
C491 C489 1.387 . S
C491 C493 1.390 . S
C491 H495 0.950 . S
H492 C488 0.950 . S
C493 C491 1.390 . S
C493 C494 1.387 . S
C493 H496 0.950 . S
C494 C493 1.387 . S
C494 C497 1.387 . S
H495 C491 0.950 . S
H496 C493 0.950 . S
C497 C488 1.390 . S
C497 H490 0.950 . S
C497 C494 1.387 . S
C498 C499 1.387 . S
C498 H502 0.950 . S
C498 C507 1.390 . S
C499 C498 1.387 . S
C499 C501 1.387 . S
H500 C507 0.950 . S
C501 C499 1.387 . S
C501 C503 1.390 . S
C501 H505 0.950 . S
H502 C498 0.950 . S
C503 C501 1.390 . S
C503 C504 1.387 . S
C503 H506 0.950 . S
C504 C503 1.387 . S
C504 C507 1.387 . S
H505 C501 0.950 . S
H506 C503 0.950 . S
C507 C498 1.390 . S
C507 H500 0.950 . S
C507 C504 1.387 . S
C508 C509 1.387 . S
C508 H512 0.950 . S
C508 C517 1.390 . S
C509 C508 1.387 . S
C509 C511 1.387 . S
H510 C517 0.950 . S
C511 C509 1.387 . S
C511 C513 1.390 . S
C511 H515 0.950 . S
H512 C508 0.950 . S
C513 C511 1.390 . S
C513 C514 1.387 . S
C513 H516 0.950 . S
C514 C513 1.387 . S
C514 C517 1.387 . S
H515 C511 0.950 . S
H516 C513 0.950 . S
C517 C508 1.390 . S
C517 H510 0.950 . S
C517 C514 1.387 . S
C518 C519 1.387 . S
C518 H522 0.950 . S
C518 C527 1.390 . S
C519 C518 1.387 . S
C519 C521 1.387 . S
H520 C527 0.950 . S
C521 C519 1.387 . S
C521 C523 1.390 . S
C521 H525 0.950 . S
H522 C518 0.950 . S
C523 C521 1.390 . S
C523 C524 1.387 . S
C523 H526 0.950 . S
C524 C523 1.387 . S
C524 C527 1.387 . S
H525 C521 0.950 . S
H526 C523 0.950 . S
C527 C518 1.390 . S
C527 H520 0.950 . S
C527 C524 1.387 . S
C528 C529 1.387 . S
C528 H532 0.950 . S
C528 C537 1.390 . S
C529 C528 1.387 . S
C529 C531 1.387 . S
H530 C537 0.950 . S
C531 C529 1.387 . S
C531 C533 1.390 . S
C531 H535 0.950 . S
H532 C528 0.950 . S
C533 C531 1.390 . S
C533 C534 1.387 . S
C533 H536 0.950 . S
C534 C533 1.387 . S
C534 C537 1.387 . S
H535 C531 0.950 . S
H536 C533 0.950 . S
C537 C528 1.390 . S
C537 H530 0.950 . S
C537 C534 1.387 . S
C538 C539 1.387 . S
C538 H542 0.950 . S
C538 C547 1.390 . S
C539 C538 1.387 . S
C539 C541 1.387 . S
H540 C547 0.950 . S
C541 C539 1.387 . S
C541 C543 1.390 . S
C541 H545 0.950 . S
H542 C538 0.950 . S
C543 C541 1.390 . S
C543 C544 1.387 . S
C543 H546 0.950 . S
C544 C543 1.387 . S
C544 C547 1.387 . S
H545 C541 0.950 . S
H546 C543 0.950 . S
C547 C538 1.390 . S
C547 H540 0.950 . S
C547 C544 1.387 . S
C548 C549 1.387 . S
C548 H552 0.950 . S
C548 C557 1.390 . S
C549 C548 1.387 . S
C549 C551 1.387 . S
H550 C557 0.950 . S
C551 C549 1.387 . S
C551 C553 1.390 . S
C551 H555 0.950 . S
H552 C548 0.950 . S
C553 C551 1.390 . S
C553 C554 1.387 . S
C553 H556 0.950 . S
C554 C553 1.387 . S
C554 C557 1.387 . S
H555 C551 0.950 . S
H556 C553 0.950 . S
C557 C548 1.390 . S
C557 H550 0.950 . S
C557 C554 1.387 . S
C558 C559 1.387 . S
C558 H562 0.950 . S
C558 C567 1.390 . S
C559 C558 1.387 . S
C559 C561 1.387 . S
H560 C567 0.950 . S
C561 C559 1.387 . S
C561 C563 1.390 . S
C561 H565 0.950 . S
H562 C558 0.950 . S
C563 C561 1.390 . S
C563 C564 1.387 . S
C563 H566 0.950 . S
C564 C563 1.387 . S
C564 C567 1.387 . S
H565 C561 0.950 . S
H566 C563 0.950 . S
C567 C558 1.390 . S
C567 H560 0.950 . S
C567 C564 1.387 . S
C568 C569 1.387 . S
C568 H572 0.950 . S
C568 C577 1.390 . S
C569 C568 1.387 . S
C569 C571 1.387 . S
H570 C577 0.950 . S
C571 C569 1.387 . S
C571 C573 1.390 . S
C571 H575 0.950 . S
H572 C568 0.950 . S
C573 C571 1.390 . S
C573 C574 1.387 . S
C573 H576 0.950 . S
C574 C573 1.387 . S
C574 C577 1.387 . S
H575 C571 0.950 . S
H576 C573 0.950 . S
C577 C568 1.390 . S
C577 H570 0.950 . S
C577 C574 1.387 . S
C578 C579 1.387 . S
C578 H582 0.950 . S
C578 C587 1.390 . S
C579 C578 1.387 . S
C579 C581 1.387 . S
H580 C587 0.950 . S
C581 C579 1.387 . S
C581 C583 1.390 . S
C581 H585 0.950 . S
H582 C578 0.950 . S
C583 C581 1.390 . S
C583 C584 1.387 . S
C583 H586 0.950 . S
C584 C583 1.387 . S
C584 C587 1.387 . S
H585 C581 0.950 . S
H586 C583 0.950 . S
C587 C578 1.390 . S
C587 H580 0.950 . S
C587 C584 1.387 . S
C588 C589 1.387 . S
C588 H592 0.950 . S
C588 C597 1.390 . S
C589 C588 1.387 . S
C589 C591 1.387 . S
H590 C597 0.950 . S
C591 C589 1.387 . S
C591 C593 1.390 . S
C591 H595 0.950 . S
H592 C588 0.950 . S
C593 C591 1.390 . S
C593 C594 1.387 . S
C593 H596 0.950 . S
C594 C593 1.387 . S
C594 C597 1.387 . S
H595 C591 0.950 . S
H596 C593 0.950 . S
C597 C588 1.390 . S
C597 H590 0.950 . S
C597 C594 1.387 . S
C598 C599 1.387 . S
C598 H602 0.950 . S
C598 C607 1.390 . S
C599 C598 1.387 . S
C599 C601 1.387 . S
H600 C607 0.950 . S
C601 C599 1.387 . S
C601 C603 1.390 . S
C601 H605 0.950 . S
H602 C598 0.950 . S
C603 C601 1.390 . S
C603 C604 1.387 . S
C603 H606 0.950 . S
C604 C603 1.387 . S
C604 C607 1.387 . S
H605 C601 0.950 . S
H606 C603 0.950 . S
C607 C598 1.390 . S
C607 H600 0.950 . S
C607 C604 1.387 . S
C608 C609 1.387 . S
C608 H612 0.950 . S
C608 C617 1.390 . S
C609 C608 1.387 . S
C609 C611 1.387 . S
H610 C617 0.950 . S
C611 C609 1.387 . S
C611 C613 1.390 . S
C611 H615 0.950 . S
H612 C608 0.950 . S
C613 C611 1.390 . S
C613 C614 1.387 . S
C613 H616 0.950 . S
C614 C613 1.387 . S
C614 C617 1.387 . S
H615 C611 0.950 . S
H616 C613 0.950 . S
C617 C608 1.390 . S
C617 H610 0.950 . S
C617 C614 1.387 . S
C618 C619 1.387 . S
C618 H622 0.950 . S
C618 C627 1.390 . S
C619 C618 1.387 . S
C619 C621 1.387 . S
H620 C627 0.950 . S
C621 C619 1.387 . S
C621 C623 1.390 . S
C621 H625 0.950 . S
H622 C618 0.950 . S
C623 C621 1.390 . S
C623 C624 1.387 . S
C623 H626 0.950 . S
C624 C623 1.387 . S
C624 C627 1.387 . S
H625 C621 0.950 . S
H626 C623 0.950 . S
C627 C618 1.390 . S
C627 H620 0.950 . S
C627 C624 1.387 . S
C628 C629 1.387 . S
C628 H632 0.950 . S
C628 C637 1.390 . S
C629 C628 1.387 . S
C629 C631 1.387 . S
H630 C637 0.950 . S
C631 C629 1.387 . S
C631 C633 1.390 . S
C631 H635 0.950 . S
H632 C628 0.950 . S
C633 C631 1.390 . S
C633 C634 1.387 . S
C633 H636 0.950 . S
C634 C633 1.387 . S
C634 C637 1.387 . S
H635 C631 0.950 . S
H636 C633 0.950 . S
C637 C628 1.390 . S
C637 H630 0.950 . S
C637 C634 1.387 . S
C638 C639 1.387 . S
C638 H642 0.950 . S
C638 C647 1.390 . S
C639 C638 1.387 . S
C639 C641 1.387 . S
H640 C647 0.950 . S
C641 C639 1.387 . S
C641 C643 1.390 . S
C641 H645 0.950 . S
H642 C638 0.950 . S
C643 C641 1.390 . S
C643 C644 1.387 . S
C643 H646 0.950 . S
C644 C643 1.387 . S
C644 C647 1.387 . S
H645 C641 0.950 . S
H646 C643 0.950 . S
C647 C638 1.390 . S
C647 H640 0.950 . S
C647 C644 1.387 . S
C648 C649 1.387 . S
C648 H652 0.950 . S
C648 C657 1.390 . S
C649 C648 1.387 . S
C649 C651 1.387 . S
H650 C657 0.950 . S
C651 C649 1.387 . S
C651 C653 1.390 . S
C651 H655 0.950 . S
H652 C648 0.950 . S
C653 C651 1.390 . S
C653 C654 1.387 . S
C653 H656 0.950 . S
C654 C653 1.387 . S
C654 C657 1.387 . S
H655 C651 0.950 . S
H656 C653 0.950 . S
C657 C648 1.390 . S
C657 H650 0.950 . S
C657 C654 1.387 . S
C658 C659 1.387 . S
C658 H662 0.950 . S
C658 C667 1.390 . S
C659 C658 1.387 . S
C659 C661 1.387 . S
H660 C667 0.950 . S
C661 C659 1.387 . S
C661 C663 1.390 . S
C661 H665 0.950 . S
H662 C658 0.950 . S
C663 C661 1.390 . S
C663 C664 1.387 . S
C663 H666 0.950 . S
C664 C663 1.387 . S
C664 C667 1.387 . S
H665 C661 0.950 . S
H666 C663 0.950 . S
C667 C658 1.390 . S
C667 H660 0.950 . S
C667 C664 1.387 . S
C668 C669 1.387 . S
C668 H672 0.950 . S
C668 C677 1.390 . S
C669 C668 1.387 . S
C669 C671 1.387 . S
H670 C677 0.950 . S
C671 C669 1.387 . S
C671 C673 1.390 . S
C671 H675 0.950 . S
H672 C668 0.950 . S
C673 C671 1.390 . S
C673 C674 1.387 . S
C673 H676 0.950 . S
C674 C673 1.387 . S
C674 C677 1.387 . S
H675 C671 0.950 . S
H676 C673 0.950 . S
C677 C668 1.390 . S
C677 H670 0.950 . S
C677 C674 1.387 . S
C678 C679 1.387 . S
C678 H682 0.950 . S
C678 C687 1.390 . S
C679 C678 1.387 . S
C679 C681 1.387 . S
H680 C687 0.950 . S
C681 C679 1.387 . S
C681 C683 1.390 . S
C681 H685 0.950 . S
H682 C678 0.950 . S
C683 C681 1.390 . S
C683 C684 1.387 . S
C683 H686 0.950 . S
C684 C683 1.387 . S
C684 C687 1.387 . S
H685 C681 0.950 . S
H686 C683 0.950 . S
C687 C678 1.390 . S
C687 H680 0.950 . S
C687 C684 1.387 . S
C688 C689 1.387 . S
C688 H692 0.950 . S
C688 C697 1.390 . S
C689 C688 1.387 . S
C689 C691 1.387 . S
H690 C697 0.950 . S
C691 C689 1.387 . S
C691 C693 1.390 . S
C691 H695 0.950 . S
H692 C688 0.950 . S
C693 C691 1.390 . S
C693 C694 1.387 . S
C693 H696 0.950 . S
C694 C693 1.387 . S
C694 C697 1.387 . S
H695 C691 0.950 . S
H696 C693 0.950 . S
C697 C688 1.390 . S
C697 H690 0.950 . S
C697 C694 1.387 . S
C698 C699 1.387 . S
C698 H702 0.950 . S
C698 C707 1.390 . S
C699 C698 1.387 . S
C699 C701 1.387 . S
H700 C707 0.950 . S
C701 C699 1.387 . S
C701 C703 1.390 . S
C701 H705 0.950 . S
H702 C698 0.950 . S
C703 C701 1.390 . S
C703 C704 1.387 . S
C703 H706 0.950 . S
C704 C703 1.387 . S
C704 C707 1.387 . S
H705 C701 0.950 . S
H706 C703 0.950 . S
C707 C698 1.390 . S
C707 H700 0.950 . S
C707 C704 1.387 . S
C708 C709 1.387 . S
C708 H712 0.950 . S
C708 C717 1.390 . S
C709 C708 1.387 . S
C709 C711 1.387 . S
H710 C717 0.950 . S
C711 C709 1.387 . S
C711 C713 1.390 . S
C711 H715 0.950 . S
H712 C708 0.950 . S
C713 C711 1.390 . S
C713 C714 1.387 . S
C713 H716 0.950 . S
C714 C713 1.387 . S
C714 C717 1.387 . S
H715 C711 0.950 . S
H716 C713 0.950 . S
C717 C708 1.390 . S
C717 H710 0.950 . S
C717 C714 1.387 . S
C718 C719 1.387 . S
C718 H722 0.950 . S
C718 C727 1.390 . S
C719 C718 1.387 . S
C719 C721 1.387 . S
H720 C727 0.950 . S
C721 C719 1.387 . S
C721 C723 1.390 . S
C721 H725 0.950 . S
H722 C718 0.950 . S
C723 C721 1.390 . S
C723 C724 1.387 . S
C723 H726 0.950 . S
C724 C723 1.387 . S
C724 C727 1.387 . S
H725 C721 0.950 . S
H726 C723 0.950 . S
C727 C718 1.390 . S
C727 H720 0.950 . S
C727 C724 1.387 . S
C728 C729 1.387 . S
C728 H732 0.950 . S
C728 C737 1.390 . S
C729 C728 1.387 . S
C729 C731 1.387 . S
H730 C737 0.950 . S
C731 C729 1.387 . S
C731 C733 1.390 . S
C731 H735 0.950 . S
H732 C728 0.950 . S
C733 C731 1.390 . S
C733 C734 1.387 . S
C733 H736 0.950 . S
C734 C733 1.387 . S
C734 C737 1.387 . S
H735 C731 0.950 . S
H736 C733 0.950 . S
C737 C728 1.390 . S
C737 H730 0.950 . S
C737 C734 1.387 . S
C738 C739 1.387 . S
C738 H742 0.950 . S
C738 C747 1.390 . S
C739 C738 1.387 . S
C739 C741 1.387 . S
H740 C747 0.950 . S
C741 C739 1.387 . S
C741 C743 1.390 . S
C741 H745 0.950 . S
H742 C738 0.950 . S
C743 C741 1.390 . S
C743 C744 1.387 . S
C743 H746 0.950 . S
C744 C743 1.387 . S
C744 C747 1.387 . S
H745 C741 0.950 . S
H746 C743 0.950 . S
C747 C738 1.390 . S
C747 H740 0.950 . S
C747 C744 1.387 . S
C748 C749 1.387 . S
C748 H752 0.950 . S
C748 C757 1.390 . S
C749 C748 1.387 . S
C749 C751 1.387 . S
H750 C757 0.950 . S
C751 C749 1.387 . S
C751 C753 1.390 . S
C751 H755 0.950 . S
H752 C748 0.950 . S
C753 C751 1.390 . S
C753 C754 1.387 . S
C753 H756 0.950 . S
C754 C753 1.387 . S
C754 C757 1.387 . S
H755 C751 0.950 . S
H756 C753 0.950 . S
C757 C748 1.390 . S
C757 H750 0.950 . S
C757 C754 1.387 . S
C758 C759 1.387 . S
C758 H762 0.950 . S
C758 C767 1.390 . S
C759 C758 1.387 . S
C759 C761 1.387 . S
H760 C767 0.950 . S
C761 C759 1.387 . S
C761 C763 1.390 . S
C761 H765 0.950 . S
H762 C758 0.950 . S
C763 C761 1.390 . S
C763 C764 1.387 . S
C763 H766 0.950 . S
C764 C763 1.387 . S
C764 C767 1.387 . S
H765 C761 0.950 . S
H766 C763 0.950 . S
C767 C758 1.390 . S
C767 H760 0.950 . S
C767 C764 1.387 . S
C768 C769 1.387 . S
C768 H772 0.950 . S
C768 C777 1.390 . S
C769 C768 1.387 . S
C769 C771 1.387 . S
H770 C777 0.950 . S
C771 C769 1.387 . S
C771 C773 1.390 . S
C771 H775 0.950 . S
H772 C768 0.950 . S
C773 C771 1.390 . S
C773 C774 1.387 . S
C773 H776 0.950 . S
C774 C773 1.387 . S
C774 C777 1.387 . S
H775 C771 0.950 . S
H776 C773 0.950 . S
C777 C768 1.390 . S
C777 H770 0.950 . S
C777 C774 1.387 . S
C778 C779 1.387 1_545 S
C778 H782 0.950 . S
C778 C787 1.390 1_655 S
C779 C778 1.387 1_565 S
C779 C781 1.387 . S
H780 C787 0.950 . S
C781 C779 1.387 . S
C781 C783 1.390 1_655 S
C781 H785 0.950 . S
H782 C778 0.950 . S
C783 C781 1.390 1_455 S
C783 C784 1.387 1_565 S
C783 H786 0.950 . S
C784 C783 1.387 1_545 S
C784 C787 1.387 . S
H785 C781 0.950 . S
H786 C783 0.950 . S
C787 C778 1.390 1_455 S
C787 H780 0.950 . S
C787 C784 1.387 . S
C788 C789 1.387 . S
C788 H792 0.950 . S
C788 C797 1.390 . S
C789 C788 1.387 . S
C789 C791 1.387 . S
H790 C797 0.950 . S
C791 C789 1.387 . S
C791 C793 1.390 . S
C791 H795 0.950 . S
H792 C788 0.950 . S
C793 C791 1.390 . S
C793 C794 1.387 . S
C793 H796 0.950 . S
C794 C793 1.387 . S
C794 C797 1.387 . S
H795 C791 0.950 . S
H796 C793 0.950 . S
C797 C788 1.390 . S
C797 H790 0.950 . S
C797 C794 1.387 . S
C798 C799 1.387 1_556 S
C798 H802 0.950 . S
C798 C807 1.390 1_545 S
C799 C798 1.387 1_554 S
C799 C801 1.387 . S
H800 C807 0.950 . S
C801 C799 1.387 . S
C801 C803 1.390 1_545 S
C801 H805 0.950 . S
H802 C798 0.950 . S
C803 C801 1.390 1_565 S
C803 C804 1.387 1_554 S
C803 H806 0.950 . S
C804 C803 1.387 1_556 S
C804 C807 1.387 . S
H805 C801 0.950 . S
H806 C803 0.950 . S
C807 C798 1.390 1_565 S
C807 H800 0.950 . S
C807 C804 1.387 . S
C808 C809 1.387 . S
C808 H812 0.950 . S
C808 C817 1.390 . S
C809 C808 1.387 . S
C809 C811 1.387 . S
H810 C817 0.950 . S
C811 C809 1.387 . S
C811 C813 1.390 . S
C811 H815 0.950 . S
H812 C808 0.950 . S
C813 C811 1.390 . S
C813 C814 1.387 . S
C813 H816 0.950 . S
C814 C813 1.387 . S
C814 C817 1.387 . S
H815 C811 0.950 . S
H816 C813 0.950 . S
C817 C808 1.390 . S
C817 H810 0.950 . S
C817 C814 1.387 . S
C818 C819 1.387 1_545 S
C818 H822 0.950 . S
C818 C827 1.390 . S
C819 C818 1.387 1_565 S
C819 C821 1.387 . S
H820 C827 0.950 . S
C821 C819 1.387 . S
C821 C823 1.390 . S
C821 H825 0.950 . S
H822 C818 0.950 . S
C823 C821 1.390 . S
C823 C824 1.387 1_565 S
C823 H826 0.950 . S
C824 C823 1.387 1_545 S
C824 C827 1.387 . S
H825 C821 0.950 . S
H826 C823 0.950 . S
C827 C818 1.390 . S
C827 H820 0.950 . S
C827 C824 1.387 . S
C828 C829 1.387 . S
C828 H832 0.950 . S
C828 C837 1.390 . S
C829 C828 1.387 . S
C829 C831 1.387 . S
H830 C837 0.950 . S
C831 C829 1.387 . S
C831 C833 1.390 . S
C831 H835 0.950 . S
H832 C828 0.950 . S
C833 C831 1.390 . S
C833 C834 1.387 . S
C833 H836 0.950 . S
C834 C833 1.387 . S
C834 C837 1.387 . S
H835 C831 0.950 . S
H836 C833 0.950 . S
C837 C828 1.390 . S
C837 H830 0.950 . S
C837 C834 1.387 . S
C838 C839 1.387 1_454 S
C838 H842 0.950 . S
C838 C847 1.390 . S
C839 C838 1.387 1_656 S
C839 C841 1.387 1_545 S
H840 C847 0.950 . S
C841 C839 1.387 1_565 S
C841 C843 1.390 . S
C841 H845 0.950 . S
H842 C838 0.950 . S
C843 C841 1.390 . S
C843 C844 1.387 1_656 S
C843 H846 0.950 . S
C844 C843 1.387 1_454 S
C844 C847 1.387 1_565 S
H845 C841 0.950 . S
H846 C843 0.950 . S
C847 C838 1.390 . S
C847 H840 0.950 . S
C847 C844 1.387 1_545 S
C848 C849 1.387 . S
C848 H852 0.950 . S
C848 C857 1.390 . S
C849 C848 1.387 . S
C849 C851 1.387 . S
H850 C857 0.950 . S
C851 C849 1.387 . S
C851 C853 1.390 . S
C851 H855 0.950 . S
H852 C848 0.950 . S
C853 C851 1.390 . S
C853 C854 1.387 . S
C853 H856 0.950 . S
C854 C853 1.387 . S
C854 C857 1.387 . S
H855 C851 0.950 . S
H856 C853 0.950 . S
C857 C848 1.390 . S
C857 H850 0.950 . S
C857 C854 1.387 . S
C858 C859 1.387 . S
C858 H862 0.950 . S
C858 C867 1.390 . S
C859 C858 1.387 . S
C859 C861 1.387 . S
H860 C867 0.950 . S
C861 C859 1.387 . S
C861 C863 1.390 . S
C861 H865 0.950 . S
H862 C858 0.950 . S
C863 C861 1.390 . S
C863 C864 1.387 . S
C863 H866 0.950 . S
C864 C863 1.387 . S
C864 C867 1.387 . S
H865 C861 0.950 . S
H866 C863 0.950 . S
C867 C858 1.390 . S
C867 H860 0.950 . S
C867 C864 1.387 . S
C868 C869 1.387 . S
C868 H872 0.950 . S
C868 C877 1.390 . S
C869 C868 1.387 . S
C869 C871 1.387 . S
H870 C877 0.950 . S
C871 C869 1.387 . S
C871 C873 1.390 . S
C871 H875 0.950 . S
H872 C868 0.950 . S
C873 C871 1.390 . S
C873 C874 1.387 . S
C873 H876 0.950 . S
C874 C873 1.387 . S
C874 C877 1.387 . S
H875 C871 0.950 . S
H876 C873 0.950 . S
C877 C868 1.390 . S
C877 H870 0.950 . S
C877 C874 1.387 . S
C878 C879 1.387 . S
C878 H882 0.950 . S
C878 C887 1.390 . S
C879 C878 1.387 . S
C879 C881 1.387 . S
H880 C887 0.950 . S
C881 C879 1.387 . S
C881 C883 1.390 . S
C881 H885 0.950 . S
H882 C878 0.950 . S
C883 C881 1.390 . S
C883 C884 1.387 . S
C883 H886 0.950 . S
C884 C883 1.387 . S
C884 C887 1.387 . S
H885 C881 0.950 . S
H886 C883 0.950 . S
C887 C878 1.390 . S
C887 H880 0.950 . S
C887 C884 1.387 . S
C888 C889 1.387 1_556 S
C888 H892 0.950 . S
C888 C897 1.390 . S
C889 C888 1.387 1_554 S
C889 C891 1.387 . S
H890 C897 0.950 . S
C891 C889 1.387 . S
C891 C893 1.390 . S
C891 H895 0.950 . S
H892 C888 0.950 . S
C893 C891 1.390 . S
C893 C894 1.387 1_554 S
C893 H896 0.950 . S
C894 C893 1.387 1_556 S
C894 C897 1.387 . S
H895 C891 0.950 . S
H896 C893 0.950 . S
C897 C888 1.390 . S
C897 H890 0.950 . S
C897 C894 1.387 . S
C898 C899 1.387 . S
C898 H902 0.950 . S
C898 C907 1.407 . S
C899 C898 1.387 . S
C899 C901 1.370 1_655 S
H900 C907 0.951 . S
C901 C899 1.370 1_455 S
C901 C903 1.407 . S
C901 H905 0.951 . S
H902 C898 0.950 . S
C903 C901 1.407 . S
C903 C904 1.387 . S
C903 H906 0.950 . S
C904 C903 1.387 . S
C904 C907 1.370 1_455 S
H905 C901 0.951 . S
H906 C903 0.950 . S
C907 C898 1.407 . S
C907 H900 0.951 . S
C907 C904 1.370 1_655 S
C908 C909 1.387 1_655 S
C908 H912 0.950 . S
C908 C917 1.390 . S
C909 C908 1.387 1_455 S
C909 C911 1.387 1_556 S
H910 C917 0.950 . S
C911 C909 1.387 1_554 S
C911 C913 1.390 . S
C911 H915 0.950 . S
H912 C908 0.950 . S
C913 C911 1.390 . S
C913 C914 1.387 1_455 S
C913 H916 0.950 . S
C914 C913 1.387 1_655 S
C914 C917 1.387 1_554 S
H915 C911 0.950 . S
H916 C913 0.950 . S
C917 C908 1.390 . S
C917 H910 0.950 . S
C917 C914 1.387 1_556 S
C918 C919 1.387 . S
C918 H922 0.950 . S
C918 C927 1.390 . S
C919 C918 1.387 . S
C919 C921 1.387 . S
H920 C927 0.950 . S
C921 C919 1.387 . S
C921 C923 1.390 . S
C921 H925 0.950 . S
H922 C918 0.950 . S
C923 C921 1.390 . S
C923 C924 1.387 . S
C923 H926 0.950 . S
C924 C923 1.387 . S
C924 C927 1.387 . S
H925 C921 0.950 . S
H926 C923 0.950 . S
C927 C918 1.390 . S
C927 H920 0.950 . S
C927 C924 1.387 . S
C928 C929 1.387 . S
C928 H932 0.950 . S
C928 C937 1.390 . S
C929 C928 1.387 . S
C929 C931 1.387 . S
H930 C937 0.950 . S
C931 C929 1.387 . S
C931 C933 1.390 . S
C931 H935 0.950 . S
H932 C928 0.950 . S
C933 C931 1.390 . S
C933 C934 1.387 . S
C933 H936 0.950 . S
C934 C933 1.387 . S
C934 C937 1.387 . S
H935 C931 0.950 . S
H936 C933 0.950 . S
C937 C928 1.390 . S
C937 H930 0.950 . S
C937 C934 1.387 . S
C938 C939 1.387 . S
C938 H942 0.950 . S
C938 C947 1.390 . S
C939 C938 1.387 . S
C939 C941 1.387 . S
H940 C947 0.950 . S
C941 C939 1.387 . S
C941 C943 1.390 . S
C941 H945 0.950 . S
H942 C938 0.950 . S
C943 C941 1.390 . S
C943 C944 1.387 . S
C943 H946 0.950 . S
C944 C943 1.387 . S
C944 C947 1.387 . S
H945 C941 0.950 . S
H946 C943 0.950 . S
C947 C938 1.390 . S
C947 H940 0.950 . S
C947 C944 1.387 . S
C948 C949 1.387 . S
C948 H952 0.950 . S
C948 C957 1.390 . S
C949 C948 1.387 . S
C949 C951 1.387 . S
H950 C957 0.950 . S
C951 C949 1.387 . S
C951 C953 1.390 . S
C951 H955 0.950 . S
H952 C948 0.950 . S
C953 C951 1.390 . S
C953 C954 1.387 . S
C953 H956 0.950 . S
C954 C953 1.387 . S
C954 C957 1.387 . S
H955 C951 0.950 . S
H956 C953 0.950 . S
C957 C948 1.390 . S
C957 H950 0.950 . S
C957 C954 1.387 . S
C958 C959 1.387 . S
C958 H962 0.950 . S
C958 C967 1.390 . S
C959 C958 1.387 . S
C959 C961 1.387 . S
H960 C967 0.950 . S
C961 C959 1.387 . S
C961 C963 1.390 . S
C961 H965 0.950 . S
H962 C958 0.950 . S
C963 C961 1.390 . S
C963 C964 1.387 . S
C963 H966 0.950 . S
C964 C963 1.387 . S
C964 C967 1.387 . S
H965 C961 0.950 . S
H966 C963 0.950 . S
C967 C958 1.390 . S
C967 H960 0.950 . S
C967 C964 1.387 . S
C968 C969 1.387 . S
C968 H972 0.950 . S
C968 C977 1.390 . S
C969 C968 1.387 . S
C969 C971 1.387 . S
H970 C977 0.950 . S
C971 C969 1.387 . S
C971 C973 1.390 . S
C971 H975 0.950 . S
H972 C968 0.950 . S
C973 C971 1.390 . S
C973 C974 1.387 . S
C973 H976 0.950 . S
C974 C973 1.387 . S
C974 C977 1.387 . S
H975 C971 0.950 . S
H976 C973 0.950 . S
C977 C968 1.390 . S
C977 H970 0.950 . S
C977 C974 1.387 . S
C978 C979 1.387 . S
C978 H982 0.950 . S
C978 C987 1.390 . S
C979 C978 1.387 . S
C979 C981 1.387 . S
H980 C987 0.950 . S
C981 C979 1.387 . S
C981 C983 1.390 . S
C981 H985 0.950 . S
H982 C978 0.950 . S
C983 C981 1.390 . S
C983 C984 1.387 . S
C983 H986 0.950 . S
C984 C983 1.387 . S
C984 C987 1.387 . S
H985 C981 0.950 . S
H986 C983 0.950 . S
C987 C978 1.390 . S
C987 H980 0.950 . S
C987 C984 1.387 . S
C988 C989 1.387 . S
C988 H992 0.950 . S
C988 C997 1.390 . S
C989 C988 1.387 . S
C989 C991 1.387 . S
H990 C997 0.950 . S
C991 C989 1.387 . S
C991 C993 1.390 . S
C991 H995 0.950 . S
H992 C988 0.950 . S
C993 C991 1.390 . S
C993 C994 1.387 . S
C993 H996 0.950 . S
C994 C993 1.387 . S
C994 C997 1.387 . S
H995 C991 0.950 . S
H996 C993 0.950 . S
C997 C988 1.390 . S
C997 H990 0.950 . S
C997 C994 1.387 . S
C998 C999 1.387 . S
C998 H1002 0.950 . S
C998 C1007 1.390 . S
C999 C998 1.387 . S
C999 C1001 1.387 . S
H1000 C1007 0.950 . S
C1001 C999 1.387 . S
C1001 C1003 1.390 . S
C1001 H1005 0.950 . S
H1002 C998 0.950 . S
C1003 C1001 1.390 . S
C1003 C1004 1.387 . S
C1003 H1006 0.950 . S
C1004 C1003 1.387 . S
C1004 C1007 1.387 . S
H1005 C1001 0.950 . S
H1006 C1003 0.950 . S
C1007 C998 1.390 . S
C1007 H1000 0.950 . S
C1007 C1004 1.387 . S
C1008 C1009 1.387 . S
C1008 H1012 0.950 . S
C1008 C1017 1.390 . S
C1009 C1008 1.387 . S
C1009 C1011 1.387 . S
H1010 C1017 0.950 . S
C1011 C1009 1.387 . S
C1011 C1013 1.390 . S
C1011 H1015 0.950 . S
H1012 C1008 0.950 . S
C1013 C1011 1.390 . S
C1013 C1014 1.387 . S
C1013 H1016 0.950 . S
C1014 C1013 1.387 . S
C1014 C1017 1.387 . S
H1015 C1011 0.950 . S
H1016 C1013 0.950 . S
C1017 C1008 1.390 . S
C1017 H1010 0.950 . S
C1017 C1014 1.387 . S
C1018 C1019 1.387 . S
C1018 H1022 0.950 . S
C1018 C1027 1.390 . S
C1019 C1018 1.387 . S
C1019 C1021 1.387 . S
H1020 C1027 0.950 . S
C1021 C1019 1.387 . S
C1021 C1023 1.390 . S
C1021 H1025 0.950 . S
H1022 C1018 0.950 . S
C1023 C1021 1.390 . S
C1023 C1024 1.387 . S
C1023 H1026 0.950 . S
C1024 C1023 1.387 . S
C1024 C1027 1.387 . S
H1025 C1021 0.950 . S
H1026 C1023 0.950 . S
C1027 C1018 1.390 . S
C1027 H1020 0.950 . S
C1027 C1024 1.387 . S
C1028 C1029 1.387 . S
C1028 H1032 0.950 . S
C1028 C1037 1.390 . S
C1029 C1028 1.387 . S
C1029 C1031 1.387 . S
H1030 C1037 0.950 . S
C1031 C1029 1.387 . S
C1031 C1033 1.390 . S
C1031 H1035 0.950 . S
H1032 C1028 0.950 . S
C1033 C1031 1.390 . S
C1033 C1034 1.387 . S
C1033 H1036 0.950 . S
C1034 C1033 1.387 . S
C1034 C1037 1.387 . S
H1035 C1031 0.950 . S
H1036 C1033 0.950 . S
C1037 C1028 1.390 . S
C1037 H1030 0.950 . S
C1037 C1034 1.387 . S
C1038 C1039 1.387 . S
C1038 H1042 0.950 . S
C1038 C1047 1.390 . S
C1039 C1038 1.387 . S
C1039 C1041 1.387 . S
H1040 C1047 0.950 . S
C1041 C1039 1.387 . S
C1041 C1043 1.390 . S
C1041 H1045 0.950 . S
H1042 C1038 0.950 . S
C1043 C1041 1.390 . S
C1043 C1044 1.387 . S
C1043 H1046 0.950 . S
C1044 C1043 1.387 . S
C1044 C1047 1.387 . S
H1045 C1041 0.950 . S
H1046 C1043 0.950 . S
C1047 C1038 1.390 . S
C1047 H1040 0.950 . S
C1047 C1044 1.387 . S
C1048 C1049 1.387 . S
C1048 H1052 0.950 . S
C1048 C1057 1.390 . S
C1049 C1048 1.387 . S
C1049 C1051 1.387 . S
H1050 C1057 0.950 . S
C1051 C1049 1.387 . S
C1051 C1053 1.390 . S
C1051 H1055 0.950 . S
H1052 C1048 0.950 . S
C1053 C1051 1.390 . S
C1053 C1054 1.387 . S
C1053 H1056 0.950 . S
C1054 C1053 1.387 . S
C1054 C1057 1.387 . S
H1055 C1051 0.950 . S
H1056 C1053 0.950 . S
C1057 C1048 1.390 . S
C1057 H1050 0.950 . S
C1057 C1054 1.387 . S
C1058 C1059 1.387 . S
C1058 H1062 0.950 . S
C1058 C1067 1.390 . S
C1059 C1058 1.387 . S
C1059 C1061 1.387 . S
H1060 C1067 0.950 . S
C1061 C1059 1.387 . S
C1061 C1063 1.390 . S
C1061 H1065 0.950 . S
H1062 C1058 0.950 . S
C1063 C1061 1.390 . S
C1063 C1064 1.387 . S
C1063 H1066 0.950 . S
C1064 C1063 1.387 . S
C1064 C1067 1.387 . S
H1065 C1061 0.950 . S
H1066 C1063 0.950 . S
C1067 C1058 1.390 . S
C1067 H1060 0.950 . S
C1067 C1064 1.387 . S
C1068 C1069 1.387 . S
C1068 H1072 0.950 . S
C1068 C1077 1.390 . S
C1069 C1068 1.387 . S
C1069 C1071 1.387 . S
H1070 C1077 0.950 . S
C1071 C1069 1.387 . S
C1071 C1073 1.390 . S
C1071 H1075 0.950 . S
H1072 C1068 0.950 . S
C1073 C1071 1.390 . S
C1073 C1074 1.387 . S
C1073 H1076 0.950 . S
C1074 C1073 1.387 . S
C1074 C1077 1.387 . S
H1075 C1071 0.950 . S
H1076 C1073 0.950 . S
C1077 C1068 1.390 . S
C1077 H1070 0.950 . S
C1077 C1074 1.387 . S
C1078 C1079 1.387 . S
C1078 H1082 0.950 . S
C1078 C1087 1.390 . S
C1079 C1078 1.387 . S
C1079 C1081 1.387 . S
H1080 C1087 0.950 . S
C1081 C1079 1.387 . S
C1081 C1083 1.390 . S
C1081 H1085 0.950 . S
H1082 C1078 0.950 . S
C1083 C1081 1.390 . S
C1083 C1084 1.387 . S
C1083 H1086 0.950 . S
C1084 C1083 1.387 . S
C1084 C1087 1.387 . S
H1085 C1081 0.950 . S
H1086 C1083 0.950 . S
C1087 C1078 1.390 . S
C1087 H1080 0.950 . S
C1087 C1084 1.387 . S
C449 C135 1.535 . S
C454 C8 1.623 . S
C459 C22 1.622 1_455 S
C464 C373 1.532 . S
C469 C163 1.534 . S
C474 C36 1.622 . S
C479 C345 1.532 . S
C484 C50 1.622 . S
C489 C64 1.623 . S
C494 C219 1.534 . S
C499 C401 1.535 . S
C504 C78 1.622 . S
C509 C92 1.623 . S
C514 C191 1.535 . S
C519 C429 1.532 . S
C524 C106 1.622 1_455 S
C529 C23 1.535 . S
C534 C120 1.623 . S
C539 C134 1.623 1_655 S
C544 C261 1.535 . S
C549 C51 1.532 . S
C554 C148 1.622 . S
C559 C162 1.622 . S
C564 C233 1.536 . S
C569 C176 1.622 . S
C574 C107 1.532 . S
C579 C289 1.532 . S
C584 C190 1.622 . S
C589 C204 1.622 . S
C594 C79 1.535 . S
C599 C317 1.532 . S
C604 C218 1.622 1_655 S
C609 C359 1.535 . S
C614 C232 1.622 . S
C619 C149 1.532 . S
C624 C246 1.622 . S
C629 C260 1.622 . S
C634 C387 1.532 . S
C639 C121 1.532 . S
C644 C274 1.622 1_655 S
C649 C443 1.533 . S
C654 C288 1.623 . S
C659 C302 1.622 1_655 S
C664 C177 1.536 . S
C669 C415 1.533 . S
C674 C316 1.623 . S
C679 C205 1.536 . S
C684 C330 1.623 . S
C689 C247 1.532 . S
C694 C344 1.622 . S
C699 C358 1.622 . S
C704 C37 1.532 . S
C709 C372 1.623 . S
C714 C275 1.535 . S
C719 C386 1.622 1_455 S
C724 C9 1.536 . S
C729 C331 1.536 . S
C734 C400 1.622 . S
C739 C414 1.623 1_455 S
C744 C65 1.536 . S
C749 C428 1.622 . S
C754 C303 1.533 . S
C759 C442 1.622 . S
C764 C93 1.532 . S
C769 C342 1.575 . S
C774 C6 1.575 . S
C779 C20 1.576 . S
C784 C132 1.576 . S
C789 C34 1.575 . S
C794 C370 1.575 . S
C799 C48 1.575 . S
C804 C160 1.575 . S
C809 C62 1.576 . S
C814 C398 1.576 . S
C819 C76 1.576 . S
C824 C188 1.576 . S
C829 C426 1.576 . S
C834 C90 1.576 . S
C839 C104 1.576 . S
C844 C216 1.576 . S
C849 C118 1.575 . S
C854 C230 1.575 . S
C859 C146 1.575 . S
C864 C258 1.575 . S
C869 C286 1.575 . S
C874 C174 1.575 . S
C879 C314 1.576 . S
C884 C202 1.576 . S
C889 C244 1.576 . S
C894 C356 1.576 . S
C899 C384 1.576 . S
C904 C272 1.576 . S
C909 C300 1.576 . S
C914 C412 1.576 . S
C919 C440 1.576 . S
C924 C328 1.576 . S
C929 C301 1.321 . S
C934 C7 1.320 . S
C939 C315 1.320 . S
C944 C21 1.321 . S
C949 C35 1.319 . S
C954 C329 1.322 . S
C959 C287 1.321 . S
C964 C49 1.320 . S
C969 C273 1.320 . S
C974 C63 1.321 . S
C979 C231 1.320 . S
C984 C77 1.320 . S
C989 C91 1.322 . S
C994 C245 1.319 . S
C999 C259 1.319 . S
C1004 C105 1.322 . S
C1009 C413 1.319 . S
C1014 C119 1.322 . S
C1019 C427 1.321 . S
C1024 C133 1.320 . S
C1029 C441 1.320 . S
C1034 C147 1.320 . S
C1039 C161 1.320 . S
C1044 C399 1.321 . S
C1049 C385 1.320 . S
C1054 C175 1.321 . S
C1059 C343 1.321 . S
C1064 C189 1.319 . S
C1069 C357 1.319 . S
C1074 C203 1.322 . S
C1079 C371 1.319 . S
C1084 C217 1.322 . S
