# Generated by pormake.
# Topology ecm, (8)-cn, num edge types: 1
# Building blocks:
#     Node 0, Type 0, BuildingBlock: TAGTUT_clean_sbu_1, # of connection points: 8
#     Node 1, Type 0, BuildingBlock: TAGTUT_clean_sbu_1, # of connection points: 8
#     Node 2, Type 0, BuildingBlock: TAGTUT_clean_sbu_1, # of connection points: 8
#     Node 3, Type 0, BuildingBlock: TAGTUT_clean_sbu_1, # of connection points: 8
#     Node 4, Type 0, BuildingBlock: TAGTUT_clean_sbu_1, # of connection points: 8
#     Node 5, Type 0, BuildingBlock: TAGTUT_clean_sbu_1, # of connection points: 8
#     Node 6, Type 0, BuildingBlock: TAGTUT_clean_sbu_1, # of connection points: 8
#     Node 7, Type 0, BuildingBlock: TAGTUT_clean_sbu_1, # of connection points: 8
#     Edge 8, Type (0, 0), BuildingBlock: KIFKEQ_clean_linker_1, # of connection points: 2
#     Edge 9, Type (0, 0), BuildingBlock: KIFKEQ_clean_linker_1, # of connection points: 2
#     Edge 10, Type (0, 0), BuildingBlock: KIFKEQ_clean_linker_1, # of connection points: 2
#     Edge 11, Type (0, 0), BuildingBlock: KIFKEQ_clean_linker_1, # of connection points: 2
#     Edge 12, Type (0, 0), BuildingBlock: KIFKEQ_clean_linker_1, # of connection points: 2
#     Edge 13, Type (0, 0), BuildingBlock: KIFKEQ_clean_linker_1, # of connection points: 2
#     Edge 14, Type (0, 0), BuildingBlock: KIFKEQ_clean_linker_1, # of connection points: 2
#     Edge 15, Type (0, 0), BuildingBlock: KIFKEQ_clean_linker_1, # of connection points: 2
#     Edge 16, Type (0, 0), BuildingBlock: KIFKEQ_clean_linker_1, # of connection points: 2
#     Edge 17, Type (0, 0), BuildingBlock: KIFKEQ_clean_linker_1, # of connection points: 2
#     Edge 18, Type (0, 0), BuildingBlock: KIFKEQ_clean_linker_1, # of connection points: 2
#     Edge 19, Type (0, 0), BuildingBlock: KIFKEQ_clean_linker_1, # of connection points: 2
#     Edge 20, Type (0, 0), BuildingBlock: KIFKEQ_clean_linker_1, # of connection points: 2
#     Edge 21, Type (0, 0), BuildingBlock: KIFKEQ_clean_linker_1, # of connection points: 2
#     Edge 22, Type (0, 0), BuildingBlock: KIFKEQ_clean_linker_1, # of connection points: 2
#     Edge 23, Type (0, 0), BuildingBlock: KIFKEQ_clean_linker_1, # of connection points: 2
#     Edge 24, Type (0, 0), BuildingBlock: KIFKEQ_clean_linker_1, # of connection points: 2
#     Edge 25, Type (0, 0), BuildingBlock: KIFKEQ_clean_linker_1, # of connection points: 2
#     Edge 26, Type (0, 0), BuildingBlock: KIFKEQ_clean_linker_1, # of connection points: 2
#     Edge 27, Type (0, 0), BuildingBlock: KIFKEQ_clean_linker_1, # of connection points: 2
#     Edge 28, Type (0, 0), BuildingBlock: KIFKEQ_clean_linker_1, # of connection points: 2
#     Edge 29, Type (0, 0), BuildingBlock: KIFKEQ_clean_linker_1, # of connection points: 2
#     Edge 30, Type (0, 0), BuildingBlock: KIFKEQ_clean_linker_1, # of connection points: 2
#     Edge 31, Type (0, 0), BuildingBlock: KIFKEQ_clean_linker_1, # of connection points: 2
#     Edge 32, Type (0, 0), BuildingBlock: KIFKEQ_clean_linker_1, # of connection points: 2
#     Edge 33, Type (0, 0), BuildingBlock: KIFKEQ_clean_linker_1, # of connection points: 2
#     Edge 34, Type (0, 0), BuildingBlock: KIFKEQ_clean_linker_1, # of connection points: 2
#     Edge 35, Type (0, 0), BuildingBlock: KIFKEQ_clean_linker_1, # of connection points: 2
#     Edge 36, Type (0, 0), BuildingBlock: KIFKEQ_clean_linker_1, # of connection points: 2
#     Edge 37, Type (0, 0), BuildingBlock: KIFKEQ_clean_linker_1, # of connection points: 2
#     Edge 38, Type (0, 0), BuildingBlock: KIFKEQ_clean_linker_1, # of connection points: 2
#     Edge 39, Type (0, 0), BuildingBlock: KIFKEQ_clean_linker_1, # of connection points: 2
# Relax obj value: 0.250
# Max RMSD: 0.266
# Mean RMSD: 0.266
data_MOF--net-ecm--node1-TAGTUT_clean_sbu_1--edge1-KIFKEQ_clean_linker_1
_symmetry_space_group_name_H-M    P1
_symmetry_Int_Tables_number       1
_symmetry_cell_setting            triclinic
loop_
_symmetry_equiv_pos_as_xyz
'x, y, z'
_cell_length_a     43.681348
_cell_length_b     43.428712
_cell_length_c     16.322276
_cell_angle_alpha  90.03359
_cell_angle_beta   90.01228
_cell_angle_gamma 89.933944
loop_
_atom_site_label
_atom_site_type_symbol
_atom_site_fract_x
_atom_site_fract_y
_atom_site_fract_z
_atom_type_partial_charge
C0 C 0.54999 0.2777 0.98688 0.0
C1 C 0.52356 0.21742 0.18774 0.0
C2 C 0.43761 0.1685 0.97843 0.0
Mg3 Mg 0.49626 0.27718 0.11232 0.0
O4 O 0.47963 0.25258 0.02788 0.0
Mg5 Mg 0.50197 0.21546 0.9877 0.0
Mg6 Mg 0.438 0.23535 0.03561 0.0
O7 O 0.39471 0.21885 0.03776 0.0
Mg8 Mg 0.37982 0.20141 0.93664 0.0
Mg9 Mg 0.3742 0.25818 0.07375 0.0
C10 C 0.42913 0.30724 0.10045 0.0
C11 C 0.41623 0.23536 0.22743 0.0
O12 O 0.54323 0.25017 0.96296 0.0
O13 O 0.53448 0.29233 0.04094 0.0
O14 O 0.52061 0.20598 0.1161 0.0
O15 O 0.51431 0.24478 0.20432 0.0
O16 O 0.45695 0.30979 0.12615 0.0
O17 O 0.41993 0.28327 0.0618 0.0
C18 C 0.45657 0.23444 0.83969 0.0
O19 O 0.436 0.24133 0.89275 0.0
O20 O 0.48273 0.22442 0.86183 0.0
O21 O 0.33164 0.22725 0.07831 0.0
O22 O 0.33662 0.18681 0.99152 0.0
O23 O 0.36112 0.27415 0.94498 0.0
C24 C 0.32185 0.20205 0.04638 0.0
O25 O 0.36934 0.23795 0.85142 0.0
O26 O 0.42465 0.17948 0.91473 0.0
C27 C 0.36133 0.26523 0.87063 0.0
O28 O 0.45695 0.1856 0.01726 0.0
O29 O 0.43841 0.23057 0.17718 0.0
O30 O 0.38984 0.2442 0.20227 0.0
C31 C 0.18014 0.68366 0.96785 0.0
C32 C 0.25208 0.67774 0.13168 0.0
C33 C 0.29795 0.60442 0.91022 0.0
Mg34 Mg 0.18959 0.64517 0.08727 0.0
O35 O 0.21009 0.63472 0.97785 0.0
Mg36 Mg 0.2488 0.65915 0.92653 0.0
Mg37 Mg 0.22866 0.59089 0.97718 0.0
O38 O 0.24872 0.54979 0.98199 0.0
Mg39 Mg 0.27219 0.53486 0.89366 0.0
Mg40 Mg 0.21482 0.52406 0.02586 0.0
C41 C 0.16413 0.58538 0.04043 0.0
C42 C 0.23273 0.57083 0.17218 0.0
O43 O 0.19743 0.6599 0.95669 0.0
O44 O 0.16357 0.6832 0.03206 0.0
O45 O 0.25995 0.67716 0.05621 0.0
O46 O 0.22719 0.66547 0.15715 0.0
O47 O 0.17445 0.59753 0.106 0.0
O48 O 0.18166 0.56697 1.00036 0.0
C49 C 0.22813 0.61147 0.78201 0.0
O50 O 0.2228 0.59005 0.83458 0.0
O51 O 0.23729 0.63819 0.80399 0.0
O52 O 0.25233 0.48479 0.04381 0.0
O53 O 0.2917 0.49698 0.9604 0.0
O54 O 0.20364 0.50537 0.89871 0.0
C55 C 0.27955 0.48 0.01565 0.0
O56 O 0.23926 0.51554 0.80467 0.0
O57 O 0.30095 0.57688 0.88129 0.0
C58 C 0.21332 0.50402 0.82504 0.0
O59 O 0.27385 0.61277 0.95009 0.0
O60 O 0.23554 0.59248 0.11916 0.0
O61 O 0.2256 0.54352 0.15096 0.0
C62 C 0.47779 0.74274 1.0031 0.0
C63 C 0.49851 0.80862 0.19389 0.0
C64 C 0.58332 0.85895 0.98618 0.0
Mg65 Mg 0.53121 0.75025 0.12992 0.0
O66 O 0.5463 0.77325 0.04061 0.0
Mg67 Mg 0.52148 0.8077 0.9946 0.0
Mg68 Mg 0.58672 0.79337 0.04796 0.0
O69 O 0.62899 0.81275 0.04982 0.0
Mg70 Mg 0.6435 0.8301 0.94787 0.0
Mg71 Mg 0.65147 0.77478 0.08769 0.0
C72 C 0.5997 0.72342 0.12154 0.0
C73 C 0.60835 0.79616 0.23998 0.0
O74 O 0.48317 0.76978 0.97338 0.0
O75 O 0.49373 0.73114 0.06146 0.0
O76 O 0.50018 0.81806 0.11995 0.0
O77 O 0.51156 0.78363 0.2169 0.0
O78 O 0.57227 0.72056 0.14984 0.0
O79 O 0.60741 0.74675 0.07784 0.0
C80 C 0.56929 0.78999 0.85103 0.0
O81 O 0.59002 0.78667 0.90592 0.0
O82 O 0.54199 0.79738 0.87013 0.0
O83 O 0.69255 0.80737 0.09028 0.0
O84 O 0.68623 0.84701 1.00186 0.0
O85 O 0.66517 0.75812 0.95971 0.0
C86 C 0.70154 0.83263 0.05731 0.0
O87 O 0.65636 0.79356 0.86512 0.0
O88 O 0.59708 0.84832 0.92323 0.0
C89 C 0.66488 0.7666 0.88515 0.0
O90 O 0.56429 0.84126 0.02417 0.0
O91 O 0.5858 0.79927 0.18979 0.0
O92 O 0.63519 0.78887 0.21483 0.0
C93 C 0.82746 0.32202 0.97841 0.0
C94 C 0.76216 0.36133 0.14911 0.0
C95 C 0.72098 0.4266 0.91158 0.0
Mg96 Mg 0.82579 0.38073 0.08648 0.0
O97 O 0.80895 0.39517 0.98401 0.0
Mg98 Mg 0.77076 0.37333 0.94616 0.0
Mg99 Mg 0.79085 0.43819 0.98469 0.0
O100 O 0.77195 0.47926 0.99049 0.0
Mg101 Mg 0.7487 0.4948 0.90196 0.0
Mg102 Mg 0.80709 0.50342 0.03431 0.0
C103 C 0.85625 0.43978 0.04407 0.0
C104 C 0.78924 0.45691 0.18091 0.0
O105 O 0.80252 0.33135 0.94483 0.0
O106 O 0.84183 0.3373 0.03387 0.0
O107 O 0.75395 0.36054 0.07427 0.0
O108 O 0.78897 0.36986 0.16969 0.0
O109 O 0.84567 0.42665 0.10801 0.0
O110 O 0.8393 0.45967 1.00665 0.0
C111 C 0.79313 0.41587 0.79298 0.0
O112 O 0.79676 0.43845 0.84318 0.0
O113 O 0.78524 0.38906 0.81815 0.0
O114 O 0.76984 0.54278 0.05677 0.0
O115 O 0.7306 0.53224 0.9713 0.0
O116 O 0.81757 0.52275 0.90727 0.0
C117 C 0.74261 0.54814 0.02907 0.0
O118 O 0.78141 0.51423 0.81354 0.0
O119 O 0.71818 0.45428 0.88398 0.0
C120 C 0.80764 0.52499 0.83399 0.0
O121 O 0.74418 0.41838 0.9546 0.0
O122 O 0.78374 0.43593 0.12753 0.0
O123 O 0.79793 0.48366 0.15917 0.0
C124 C 0.04532 0.78307 0.50298 0.0
C125 C 0.02375 0.72025 0.69976 0.0
C126 C 0.93927 0.66806 0.4929 0.0
Mg127 Mg 0.99162 0.77795 0.62977 0.0
O128 O 0.97661 0.75393 0.54232 0.0
Mg129 Mg 1.00115 0.7184 0.50041 0.0
Mg130 Mg 0.93595 0.73449 0.54955 0.0
O131 O 0.8937 0.7153 0.55105 0.0
Mg132 Mg 0.87984 0.69673 0.44979 0.0
Mg133 Mg 0.8711 0.75338 0.5866 0.0
C134 C 0.92324 0.8052 0.6176 0.0
C135 C 0.9137 0.73331 0.74126 0.0
O136 O 0.03985 0.75563 0.47601 0.0
O137 O 0.02933 0.79567 0.5598 0.0
O138 O 0.02205 0.70975 0.62687 0.0
O139 O 0.01104 0.74574 0.72011 0.0
O140 O 0.95066 0.80814 0.64601 0.0
O141 O 0.91536 0.78144 0.57572 0.0
C142 C 0.95429 0.73496 0.35335 0.0
O143 O 0.93348 0.74057 0.40673 0.0
O144 O 0.98097 0.72642 0.37516 0.0
O145 O 0.83026 0.7204 0.59026 0.0
O146 O 0.83722 0.67999 0.50442 0.0
O147 O 0.85781 0.76834 0.45695 0.0
C148 C 0.82164 0.69472 0.55871 0.0
O149 O 0.8675 0.73242 0.36372 0.0
O150 O 0.92619 0.6781 0.42832 0.0
C151 C 0.85843 0.75938 0.3827 0.0
O152 O 0.95793 0.68605 0.53116 0.0
O153 O 0.93625 0.72978 0.69133 0.0
O154 O 0.8869 0.74052 0.71563 0.0
C155 C 0.6882 0.20548 0.47211 0.0
C156 C 0.75441 0.16884 0.64479 0.0
C157 C 0.79802 0.10374 0.40821 0.0
Mg158 Mg 0.69124 0.14746 0.58182 0.0
O159 O 0.709 0.13286 0.48036 0.0
Mg160 Mg 0.74658 0.15564 0.4423 0.0
Mg161 Mg 0.72854 0.0904 0.48217 0.0
O162 O 0.74891 0.04993 0.48903 0.0
Mg163 Mg 0.77126 0.03498 0.39829 0.0
Mg164 Mg 0.71504 0.02473 0.53555 0.0
C165 C 0.66376 0.08728 0.54201 0.0
C166 C 0.73217 0.07284 0.67918 0.0
O167 O 0.71359 0.19672 0.43986 0.0
O168 O 0.67389 0.18997 0.52717 0.0
O169 O 0.76308 0.16921 0.57041 0.0
O170 O 0.72748 0.16054 0.66424 0.0
O171 O 0.67377 0.10072 0.60611 0.0
O172 O 0.68109 0.06735 0.50603 0.0
C173 C 0.7254 0.11202 0.29019 0.0
O174 O 0.72251 0.08935 0.34041 0.0
O175 O 0.73256 0.13905 0.31528 0.0
O176 O 0.7534 0.98666 0.55616 0.0
O177 O 0.79095 0.99752 0.46575 0.0
O178 O 0.70447 1.00355 0.41079 0.0
C179 C 0.78015 0.98155 0.52513 0.0
O180 O 0.73783 0.01504 0.31212 0.0
O181 O 0.80072 0.07625 0.37905 0.0
C182 C 0.71323 1.00181 0.33638 0.0
O183 O 0.77478 0.11147 0.45194 0.0
O184 O 0.73519 0.09377 0.62441 0.0
O185 O 0.72522 0.04533 0.65987 0.0
C186 C 0.97624 0.2443 0.49803 0.0
C187 C 0.99783 0.30982 0.68934 0.0
C188 C 0.08237 0.36019 0.48267 0.0
Mg189 Mg 0.03 0.25133 0.62413 0.0
O190 O 0.04502 0.27429 0.53456 0.0
Mg191 Mg 0.02037 0.30907 0.48985 0.0
Mg192 Mg 0.08551 0.29425 0.54233 0.0
O193 O 0.12776 0.3135 0.54502 0.0
Mg194 Mg 0.14228 0.33173 0.44434 0.0
Mg195 Mg 0.15026 0.27542 0.58197 0.0
C196 C 0.09816 0.22358 0.61212 0.0
C197 C 0.10684 0.29645 0.73437 0.0
O198 O 0.98169 0.27131 0.46816 0.0
O199 O 0.99221 0.2327 0.55631 0.0
O200 O 0.99969 0.31918 0.61542 0.0
O201 O 1.01065 0.28466 0.71218 0.0
O202 O 0.07076 0.22087 0.64076 0.0
O203 O 0.10616 0.24735 0.57046 0.0
C204 C 0.06782 0.29171 0.34537 0.0
O205 O 0.08867 0.28816 0.39988 0.0
O206 O 0.04058 0.29909 0.36506 0.0
O207 O 0.19127 0.30837 0.58607 0.0
O208 O 0.18465 0.34861 0.49965 0.0
O209 O 0.16416 0.25939 0.45362 0.0
C210 C 0.20006 0.33396 0.55438 0.0
O211 O 0.15546 0.29565 0.36105 0.0
O212 O 0.09597 0.34989 0.41918 0.0
C213 C 0.16391 0.26852 0.37957 0.0
O214 O 0.0634 0.34233 0.52033 0.0
O215 O 0.08438 0.29976 0.68407 0.0
O216 O 0.13366 0.28903 0.70932 0.0
C217 C 0.34348 0.84381 0.46877 0.0
C218 C 0.27105 0.85045 0.6315 0.0
C219 C 0.22473 0.92048 0.40403 0.0
Mg220 Mg 0.33299 0.88317 0.58599 0.0
O221 O 0.31281 0.89226 0.47516 0.0
Mg222 Mg 0.27476 0.8667 0.42458 0.0
Mg223 Mg 0.29307 0.93544 0.47335 0.0
O224 O 0.27219 0.97614 0.47751 0.0
Mg225 Mg 0.24914 0.99065 0.38808 0.0
Mg226 Mg 0.30522 1.00274 0.52316 0.0
C227 C 0.35752 0.94303 0.5359 0.0
C228 C 0.28907 0.95489 0.66848 0.0
O229 O 0.32605 0.86733 0.45585 0.0
O230 O 0.35941 0.84466 0.53414 0.0
O231 O 0.26375 0.84992 0.55555 0.0
O232 O 0.29539 0.86375 0.6574 0.0
O233 O 0.34772 0.93104 0.6022 0.0
O234 O 0.33947 0.96092 0.4959 0.0
C235 C 0.2948 0.91371 0.27863 0.0
O236 O 0.29901 0.93557 0.33088 0.0
O237 O 0.28639 0.88675 0.30066 0.0
O238 O 0.26627 0.04026 0.54323 0.0
O239 O 0.22855 0.02807 0.45478 0.0
O240 O 0.31532 0.02375 0.39844 0.0
C241 C 0.23933 0.04478 0.51279 0.0
O242 O 0.28178 1.01167 0.30085 0.0
O243 O 0.22143 0.94789 0.37447 0.0
C244 C 0.30629 0.02531 0.3243 0.0
O245 O 0.24864 0.91267 0.44542 0.0
O246 O 0.2856 0.93334 0.61555 0.0
O247 O 0.29602 0.98212 0.64653 0.0
H248 H 0.48397 0.20046 0.72126 0.0
H249 H 0.41389 0.26936 0.75611 0.0
H250 H 0.47338 0.19939 0.57581 0.0
H251 H 0.40358 0.269 0.60855 0.0
H252 H 0.3739 0.24001 0.3509 0.0
H253 H 0.38287 0.23994 0.49809 0.0
H254 H 0.47973 0.22728 0.45505 0.0
H255 H 0.4705 0.226 0.30834 0.0
C256 C 0.46642 0.21571 0.69764 0.0
C257 C 0.44973 0.23503 0.75055 0.0
C258 C 0.46042 0.21518 0.61371 0.0
C259 C 0.43777 0.23425 0.57955 0.0
C260 C 0.42094 0.25365 0.63252 0.0
C261 C 0.42682 0.25394 0.71717 0.0
C262 C 0.39711 0.23691 0.37281 0.0
C263 C 0.42151 0.233 0.31733 0.0
C264 C 0.40229 0.23721 0.45749 0.0
C265 C 0.43205 0.23379 0.48915 0.0
C266 C 0.45639 0.22955 0.43352 0.0
C267 C 0.45116 0.22895 0.34892 0.0
H268 H 0.21387 0.62287 0.25006 0.0
H269 H 0.25217 0.53298 0.29496 0.0
H270 H 0.21103 0.63233 0.39669 0.0
H271 H 0.24944 0.54221 0.44259 0.0
H272 H 0.21182 0.5577 0.70235 0.0
H273 H 0.21318 0.54778 0.55469 0.0
H274 H 0.2425 0.64146 0.51275 0.0
H275 H 0.24045 0.6515 0.65812 0.0
C276 C 0.22275 0.60562 0.29127 0.0
C277 C 0.23418 0.5777 0.26087 0.0
C278 C 0.22073 0.61078 0.37559 0.0
C279 C 0.23006 0.58804 0.43178 0.0
C280 C 0.24167 0.56007 0.40124 0.0
C281 C 0.24357 0.55492 0.31671 0.0
C282 C 0.21835 0.57616 0.66147 0.0
C283 C 0.22617 0.60531 0.69257 0.0
C284 C 0.21934 0.57045 0.57684 0.0
C285 C 0.22809 0.59381 0.52165 0.0
C286 C 0.23527 0.62303 0.55297 0.0
C287 C 0.23421 0.62871 0.63693 0.0
H288 H 0.65105 0.79189 0.36238 0.0
H289 H 0.55418 0.80379 0.322 0.0
H290 H 0.64236 0.78901 0.50919 0.0
H291 H 0.54536 0.80176 0.46985 0.0
H292 H 0.53655 0.76287 0.72889 0.0
H293 H 0.54619 0.76531 0.5814 0.0
H294 H 0.62782 0.8188 0.62687 0.0
H295 H 0.61772 0.81653 0.77351 0.0
C296 C 0.62784 0.79435 0.3848 0.0
C297 C 0.60319 0.79808 0.33002 0.0
C298 C 0.62288 0.79278 0.46936 0.0
C299 C 0.59313 0.79493 0.50174 0.0
C300 C 0.56854 0.79945 0.44714 0.0
C301 C 0.57356 0.801 0.3624 0.0
C302 C 0.55682 0.77467 0.70711 0.0
C303 C 0.57711 0.78844 0.76291 0.0
C304 C 0.56219 0.77639 0.62263 0.0
C305 C 0.58784 0.79224 0.59189 0.0
C306 C 0.60822 0.80581 0.64811 0.0
C307 C 0.60279 0.80408 0.7325 0.0
H308 H 0.82331 0.48477 0.29775 0.0
H309 H 0.75568 0.41343 0.26594 0.0
H310 H 0.82571 0.47399 0.44293 0.0
H311 H 0.7574 0.40286 0.41349 0.0
H312 H 0.78877 0.37325 0.66942 0.0
H313 H 0.78757 0.38235 0.5223 0.0
H314 H 0.79892 0.4799 0.56532 0.0
H315 H 0.80146 0.47057 0.71187 0.0
C316 C 0.80861 0.46691 0.32204 0.0
C317 C 0.78927 0.44991 0.27001 0.0
C318 C 0.80991 0.46078 0.40584 0.0
C319 C 0.79161 0.4377 0.44087 0.0
C320 C 0.77218 0.42057 0.38881 0.0
C321 C 0.77111 0.42657 0.3042 0.0
C322 C 0.79136 0.39664 0.64752 0.0
C323 C 0.79521 0.42121 0.703 0.0
C324 C 0.7903 0.40189 0.56288 0.0
C325 C 0.79293 0.43188 0.53122 0.0
C326 C 0.79722 0.45638 0.5868 0.0
C327 C 0.79855 0.45109 0.67134 0.0
H328 H 0.90972 0.76761 0.27034 0.0
H329 H 0.9834 0.70276 0.23429 0.0
H330 H 0.89896 0.76654 0.12285 0.0
H331 H 0.97269 0.70132 0.0888 0.0
H332 H 0.8709 0.73408 0.8646 0.0
H333 H 0.87983 0.73493 0.01214 0.0
H334 H 0.97738 0.7314 0.96924 0.0
H335 H 0.96826 0.72973 0.82231 0.0
C336 C 0.92332 0.75289 0.2312 0.0
C337 C 0.94729 0.73526 0.26424 0.0
C338 C 0.91724 0.75225 0.14664 0.0
C339 C 0.93506 0.73392 0.09342 0.0
C340 C 0.95887 0.71621 0.12712 0.0
C341 C 0.96496 0.71698 0.21099 0.0
C342 C 0.89427 0.73319 0.88666 0.0
C343 C 0.91896 0.73157 0.83127 0.0
C344 C 0.89938 0.73399 0.97144 0.0
C345 C 0.92933 0.73325 1.0031 0.0
C346 C 0.95395 0.73146 0.94755 0.0
C347 C 0.9488 0.73052 0.86299 0.0
H348 H 0.71486 0.05781 0.20774 0.0
H349 H 0.73193 0.15456 0.16794 0.0
H350 H 0.71722 0.04892 0.05983 0.0
H351 H 0.73464 0.1457 0.02122 0.0
H352 H 0.7061 0.12185 0.75675 0.0
H353 H 0.70362 0.13195 0.90343 0.0
H354 H 0.75517 0.04878 0.94934 0.0
H355 H 0.75817 0.0393 0.80173 0.0
C356 C 0.71897 0.07716 0.16762 0.0
C357 C 0.72338 0.10679 0.20016 0.0
C358 C 0.72057 0.07207 0.08284 0.0
C359 C 0.72644 0.09656 0.02852 0.0
C360 C 0.72989 0.12632 0.06098 0.0
C361 C 0.72838 0.13137 0.14548 0.0
C362 C 0.71819 0.10662 0.79781 0.0
C363 C 0.73352 0.08061 0.76745 0.0
C364 C 0.71627 0.11202 0.8822 0.0
C365 C 0.72922 0.09119 0.93847 0.0
C366 C 0.74465 0.06514 0.90792 0.0
C367 C 0.74666 0.05986 0.82341 0.0
H368 H 0.03357 0.26661 0.22312 0.0
H369 H 0.11711 0.31651 0.26734 0.0
H370 H 0.04299 0.26905 0.07547 0.0
H371 H 0.12715 0.31839 0.1206 0.0
H372 H 0.1488 0.28832 0.85687 0.0
H373 H 0.13987 0.28621 1.00358 0.0
H374 H 0.04429 0.30702 0.96436 0.0
H375 H 0.05321 0.30882 0.81646 0.0
C376 C 0.05431 0.27754 0.20127 0.0
C377 C 0.07534 0.29021 0.25702 0.0
C378 C 0.05956 0.27923 0.11674 0.0
C379 C 0.0859 0.29384 0.08598 0.0
C380 C 0.10698 0.30636 0.14203 0.0
C381 C 0.1016 0.30477 0.22645 0.0
C382 C 0.12586 0.29272 0.87917 0.0
C383 C 0.10162 0.29853 0.82435 0.0
C384 C 0.12078 0.29157 0.96366 0.0
C385 C 0.09132 0.29618 0.99594 0.0
C386 C 0.06717 0.30278 0.94146 0.0
C387 C 0.07229 0.30403 0.85669 0.0
H388 H 0.29408 0.96928 0.19988 0.0
H389 H 0.29976 0.87156 0.1549 0.0
H390 H 0.29086 0.97868 0.05342 0.0
H391 H 0.298 0.88083 1.00793 0.0
H392 H 0.26313 0.90579 0.75107 0.0
H393 H 0.26532 0.8956 0.89859 0.0
H394 H 0.31878 0.97839 0.9327 0.0
H395 H 0.31561 0.98891 0.78791 0.0
C396 C 0.29522 0.94987 0.1587 0.0
C397 C 0.29704 0.91979 0.18938 0.0
C398 C 0.29344 0.95517 0.07434 0.0
C399 C 0.29401 0.93049 0.0182 0.0
C400 C 0.29679 0.90039 0.04899 0.0
C401 C 0.29815 0.89511 0.13344 0.0
C402 C 0.27523 0.92174 0.79041 0.0
C403 C 0.28898 0.94822 0.75761 0.0
C404 C 0.27665 0.91589 0.87496 0.0
C405 C 0.29213 0.93627 0.92816 0.0
C406 C 0.306 0.96254 0.8946 0.0
C407 C 0.30426 0.96852 0.81095 0.0
H408 H 0.3847 0.13916 0.93241 0.0
H409 H 0.44845 0.14619 0.13398 0.0
H410 H 0.3528 0.10478 0.01222 0.0
H411 H 0.41737 0.11019 0.21241 0.0
H412 H 0.34072 0.07418 0.36858 0.0
H413 H 0.37186 0.10739 0.28454 0.0
H414 H 0.34538 0.05572 0.06944 0.0
H415 H 0.31256 0.02296 0.15477 0.0
C416 C 0.39208 0.1333 0.99378 0.0
C417 C 0.419 0.14616 0.02715 0.0
C418 C 0.37382 0.11312 0.03939 0.0
C419 C 0.38213 0.10462 0.11943 0.0
C420 C 0.40962 0.11668 0.15184 0.0
C421 C 0.42769 0.13726 0.10658 0.0
C422 C 0.34148 0.06971 0.30329 0.0
C423 C 0.3243 0.04556 0.26866 0.0
C424 C 0.35969 0.08876 0.25488 0.0
C425 C 0.36187 0.08414 0.16991 0.0
C426 C 0.34427 0.06023 0.13459 0.0
C427 C 0.32549 0.04129 0.1834 0.0
H428 H 0.124 0.62835 0.09871 0.0
H429 H 0.15336 0.58497 0.87381 0.0
H430 H 0.09037 0.66231 0.02145 0.0
H431 H 0.11869 0.61779 0.79685 0.0
H432 H 0.08037 0.69961 0.66684 0.0
H433 H 0.11353 0.66785 0.75092 0.0
H434 H 0.04574 0.66898 0.94406 0.0
H435 H 0.01332 0.70258 0.86041 0.0
C436 C 0.12309 0.62587 0.03271 0.0
C437 C 0.14195 0.60431 0.99255 0.0
C438 C 0.10352 0.64523 0.9883 0.0
C439 C 0.10192 0.64333 0.90238 0.0
C440 C 0.11985 0.62077 0.86262 0.0
C441 C 0.13961 0.6016 0.90697 0.0
C442 C 0.07269 0.69331 0.7277 0.0
C443 C 0.04417 0.70348 0.75691 0.0
C444 C 0.09158 0.67472 0.77574 0.0
C445 C 0.08222 0.665 0.85399 0.0
C446 C 0.05394 0.67599 0.88437 0.0
C447 C 0.03522 0.69528 0.8365 0.0
H448 H 0.63499 0.89036 0.94102 0.0
H449 H 0.5718 0.88006 0.14279 0.0
H450 H 0.66634 0.92444 0.02262 0.0
H451 H 0.60202 0.91629 0.22287 0.0
H452 H 0.6776 0.95378 0.38075 0.0
H453 H 0.64649 0.92072 0.29608 0.0
H454 H 0.67424 0.972 0.08147 0.0
H455 H 0.70739 1.00403 0.16714 0.0
C456 C 0.62758 0.89549 1.00285 0.0
C457 C 0.6011 0.88166 0.03579 0.0
C458 C 0.6455 0.91557 0.04955 0.0
C459 C 0.63713 0.92325 0.13015 0.0
C460 C 0.6099 0.91041 0.16198 0.0
C461 C 0.59228 0.88975 0.11572 0.0
C462 C 0.6771 0.95814 0.31541 0.0
C463 C 0.69478 0.98192 0.28095 0.0
C464 C 0.65888 0.93921 0.26659 0.0
C465 C 0.65711 0.94373 0.18149 0.0
C466 C 0.67505 0.96745 0.1466 0.0
C467 C 0.69396 0.98608 0.1957 0.0
H468 H 0.87843 0.45222 0.88965 0.0
H469 H 0.88531 0.38598 0.08619 0.0
H470 H 0.91423 0.42181 0.80901 0.0
H471 H 0.91904 0.35442 1.0036 0.0
H472 H 0.99888 0.31334 0.8593 0.0
H473 H 0.96681 0.34601 0.94657 0.0
H474 H 0.91813 0.37802 0.732 0.0
H475 H 0.95116 0.34739 0.64615 0.0
C476 C 0.88721 0.43097 0.91532 0.0
C477 C 0.87833 0.4214 0.99399 0.0
C478 C 0.90766 0.41325 0.86871 0.0
C479 C 0.91948 0.38514 0.89877 0.0
C480 C 0.91093 0.37593 0.97809 0.0
C481 C 0.89105 0.39396 0.02528 0.0
C482 C 0.98151 0.32763 0.83115 0.0
C483 C 0.97809 0.32813 0.74561 0.0
C484 C 0.96285 0.34626 0.88113 0.0
C485 C 0.93986 0.36526 0.84676 0.0
C486 C 0.93607 0.36479 0.76128 0.0
C487 C 0.95501 0.34685 0.71171 0.0
H488 H 0.33584 0.48542 0.08204 0.0
H489 H 0.26711 0.41818 0.02087 0.0
H490 H 0.37128 0.44456 0.11977 0.0
H491 H 0.30317 0.37675 0.0528 0.0
H492 H 0.36908 0.30568 0.14888 0.0
H493 H 0.33177 0.34736 0.14288 0.0
H494 H 0.40296 0.40921 0.06041 0.0
H495 H 0.44016 0.36768 0.07029 0.0
C496 C 0.32832 0.46172 0.07728 0.0
C497 C 0.29876 0.4549 0.04902 0.0
C498 C 0.34879 0.43817 0.09781 0.0
C499 C 0.34061 0.407 0.08816 0.0
C500 C 0.31044 0.40029 0.06232 0.0
C501 C 0.28966 0.42401 0.04372 0.0
C502 C 0.3767 0.32827 0.13013 0.0
C503 C 0.4075 0.33336 0.10948 0.0
C504 C 0.35524 0.35226 0.12623 0.0
C505 C 0.36393 0.38192 0.10019 0.0
C506 C 0.39514 0.38706 0.0822 0.0
C507 C 0.41664 0.36318 0.08764 0.0
H508 H 0.42587 0.76134 0.92027 0.0
H509 H 0.47259 0.68046 0.01052 0.0
H510 H 0.38254 0.72899 0.87819 0.0
H511 H 0.42974 0.64852 0.96886 0.0
H512 H 0.35541 0.59398 0.84648 0.0
H513 H 0.39962 0.62845 0.85064 0.0
H514 H 0.34354 0.69954 0.9585 0.0
H515 H 0.30004 0.66546 0.9551 0.0
C516 C 0.42711 0.73668 0.93007 0.0
C517 C 0.45255 0.72356 0.96962 0.0
C518 C 0.40229 0.71819 0.90622 0.0
C519 C 0.4027 0.68615 0.92016 0.0
C520 C 0.42877 0.673 0.95626 0.0
C521 C 0.45326 0.69143 0.981 0.0
C522 C 0.3523 0.61717 0.86966 0.0
C523 C 0.32374 0.62673 0.90068 0.0
C524 C 0.37772 0.63688 0.87227 0.0
C525 C 0.37513 0.66677 0.90508 0.0
C526 C 0.34632 0.67686 0.93179 0.0
C527 C 0.32113 0.65709 0.93006 0.0
H528 H 0.59046 0.66552 0.18583 0.0
H529 H 0.66123 0.7236 0.08546 0.0
H530 H 0.6264 0.62227 0.1859 0.0
H531 H 0.69646 0.68108 0.08502 0.0
H532 H 0.7601 0.60038 0.11417 0.0
H533 H 0.72667 0.6425 0.16043 0.0
H534 H 0.64778 0.5928 0.07139 0.0
H535 H 0.68065 0.55121 0.0265 0.0
C536 C 0.61372 0.66942 0.16538 0.0
C537 C 0.62261 0.69836 0.13485 0.0
C538 C 0.6343 0.64456 0.16512 0.0
C539 C 0.66433 0.64814 0.13499 0.0
C540 C 0.67372 0.67747 0.10962 0.0
C541 C 0.65317 0.70208 0.10932 0.0
C542 C 0.73558 0.59836 0.10576 0.0
C543 C 0.72315 0.57267 0.06543 0.0
C544 C 0.71644 0.62245 0.13203 0.0
C545 C 0.6845 0.62104 0.11953 0.0
C546 C 0.67213 0.59459 0.08307 0.0
C547 C 0.69114 0.57084 0.05624 0.0
H548 H 0.61119 0.26597 1.00195 0.0
H549 H 0.54638 0.32874 0.89371 0.0
H550 H 0.65292 0.30141 0.96891 0.0
H551 H 0.58786 0.36357 0.85656 0.0
H552 H 0.65976 0.4369 0.92231 0.0
H553 H 0.61898 0.39874 0.92543 0.0
H554 H 0.68488 0.32693 0.87391 0.0
H555 H 0.72552 0.36525 0.87237 0.0
C556 C 0.60612 0.28683 0.96817 0.0
C557 C 0.57574 0.29459 0.94966 0.0
C558 C 0.62997 0.30725 0.9492 0.0
C559 C 0.62388 0.33575 0.91081 0.0
C560 C 0.5935 0.34233 0.88784 0.0
C561 C 0.56973 0.32218 0.90795 0.0
C562 C 0.6654 0.41303 0.91018 0.0
C563 C 0.69596 0.40405 0.89881 0.0
C564 C 0.64199 0.39102 0.91179 0.0
C565 C 0.6485 0.35945 0.90082 0.0
C566 C 0.67897 0.3508 0.88486 0.0
C567 C 0.70239 0.37281 0.88411 0.0
H568 H 0.89654 0.6278 0.43617 0.0
H569 H 0.93969 0.65794 0.66052 0.0
H570 H 0.86472 0.59218 0.51324 0.0
H571 H 0.9074 0.62249 0.73794 0.0
H572 H 0.86895 0.53455 0.84389 0.0
H573 H 0.90054 0.56826 0.761 0.0
H574 H 0.8224 0.58958 0.60891 0.0
H575 H 0.79064 0.555 0.69176 0.0
C576 C 0.89919 0.62693 0.50212 0.0
C577 C 0.92075 0.64588 0.54195 0.0
C578 C 0.88073 0.60657 0.54638 0.0
C579 C 0.88336 0.60436 0.6319 0.0
C580 C 0.90501 0.62321 0.67194 0.0
C581 C 0.92353 0.64365 0.62756 0.0
C582 C 0.85844 0.54617 0.79231 0.0
C583 C 0.82712 0.54217 0.77487 0.0
C584 C 0.87659 0.56579 0.74514 0.0
C585 C 0.86401 0.58217 0.67905 0.0
C586 C 0.83293 0.57726 0.65924 0.0
C587 C 0.81469 0.55739 0.70653 0.0
H588 H 0.62515 0.13248 0.59411 0.0
H589 H 0.65311 0.08429 0.3748 0.0
H590 H 0.59028 0.16408 0.51392 0.0
H591 H 0.61833 0.11632 0.29421 0.0
H592 H 0.53102 0.1553 0.1866 0.0
H593 H 0.5642 0.12418 0.2725 0.0
H594 H 0.58857 0.20498 0.41239 0.0
H595 H 0.55461 0.23631 0.32647 0.0
C596 C 0.62398 0.12867 0.52859 0.0
C597 C 0.64212 0.10578 0.4911 0.0
C598 C 0.60403 0.147 0.48252 0.0
C599 C 0.60139 0.14287 0.3975 0.0
C600 C 0.61942 0.1199 0.3598 0.0
C601 C 0.63948 0.10153 0.40599 0.0
C602 C 0.54318 0.1665 0.23618 0.0
C603 C 0.54022 0.19843 0.24924 0.0
C604 C 0.56249 0.14861 0.28504 0.0
C605 C 0.57957 0.16204 0.34857 0.0
C606 C 0.57569 0.19379 0.36413 0.0
C607 C 0.55615 0.21179 0.3151 0.0
H608 H 0.12481 0.40076 0.42637 0.0
H609 H 0.08155 0.37066 0.65039 0.0
H610 H 0.15634 0.43665 0.50347 0.0
H611 H 0.11358 0.40638 0.72796 0.0
H612 H 0.15208 0.49417 0.83497 0.0
H613 H 0.12055 0.46041 0.75194 0.0
H614 H 0.19856 0.43987 0.59865 0.0
H615 H 0.23025 0.47453 0.6817 0.0
C616 C 0.12206 0.40171 0.49228 0.0
C617 C 0.10055 0.38267 0.53195 0.0
C618 C 0.14037 0.42223 0.53659 0.0
C619 C 0.13768 0.42453 0.6221 0.0
C620 C 0.11605 0.40561 0.66199 0.0
C621 C 0.09765 0.38502 0.61752 0.0
C622 C 0.16256 0.48272 0.78306 0.0
C623 C 0.19384 0.48697 0.7654 0.0
C624 C 0.14445 0.46305 0.73581 0.0
C625 C 0.157 0.44684 0.66933 0.0
C626 C 0.18802 0.45203 0.64926 0.0
C627 C 0.20623 0.47197 0.69666 0.0
H628 H 0.36943 0.94515 0.37007 0.0
H629 H 0.397 0.89911 0.59268 0.0
H630 H 0.40443 0.91309 0.29224 0.0
H631 H 0.43054 0.86554 0.51441 0.0
H632 H 0.50673 0.82348 0.35765 0.0
H633 H 0.47464 0.85733 0.44083 0.0
H634 H 0.41054 0.86491 0.23961 0.0
H635 H 0.44383 0.83335 0.1558 0.0
C636 C 0.38279 0.92802 0.4025 0.0
C637 C 0.37984 0.92438 0.48768 0.0
C638 C 0.40273 0.90922 0.35756 0.0
C639 C 0.42013 0.88598 0.39621 0.0
C640 C 0.4179 0.88315 0.48189 0.0
C641 C 0.3983 0.90228 0.52695 0.0
C642 C 0.48586 0.8325 0.33149 0.0
C643 C 0.47816 0.82619 0.24973 0.0
C644 C 0.46721 0.85185 0.3793 0.0
C645 C 0.43998 0.86462 0.347 0.0
C646 C 0.43175 0.85679 0.2663 0.0
C647 C 0.45073 0.83829 0.21823 0.0
H648 H 0.76394 0.92999 0.61413 0.0
H649 H 0.84201 0.97743 0.51217 0.0
H650 H 0.79771 0.88774 0.65734 0.0
H651 H 0.87528 0.93566 0.55464 0.0
H652 H 0.93329 0.8639 0.67535 0.0
H653 H 0.89778 0.90749 0.67223 0.0
H654 H 0.82672 0.84806 0.57901 0.0
H655 H 0.86166 0.80511 0.58206 0.0
C656 C 0.78826 0.93161 0.60188 0.0
C657 C 0.80016 0.9569 0.55874 0.0
C658 C 0.80758 0.90742 0.62641 0.0
C659 C 0.83922 0.90835 0.60946 0.0
C660 C 0.85117 0.93432 0.56967 0.0
C661 C 0.83193 0.95816 0.54441 0.0
C662 C 0.90993 0.85996 0.6558 0.0
C663 C 0.90062 0.83069 0.62842 0.0
C664 C 0.8896 0.885 0.6537 0.0
C665 C 0.8594 0.88128 0.62504 0.0
C666 C 0.84964 0.85174 0.60238 0.0
C667 C 0.86997 0.82692 0.60371 0.0
H668 H 0.79842 0.16572 0.44442 0.0
H669 H 0.85586 0.09341 0.34759 0.0
H670 H 0.84162 0.20033 0.44785 0.0
H671 H 0.89951 0.12855 0.35035 0.0
H672 H 0.97112 0.1821 0.50749 0.0
H673 H 0.92857 0.14983 0.46637 0.0
H674 H 0.88127 0.22957 0.37153 0.0
H675 H 0.92434 0.26234 0.41353 0.0
C676 C 0.82 0.1572 0.42224 0.0
C677 C 0.82336 0.12641 0.39665 0.0
C678 C 0.84494 0.17734 0.42366 0.0
C679 C 0.87415 0.16724 0.39997 0.0
C680 C 0.87735 0.13699 0.36997 0.0
C681 C 0.85224 0.11686 0.36798 0.0
C682 C 0.95182 0.19288 0.47725 0.0
C683 C 0.95104 0.22495 0.46473 0.0
C684 C 0.92749 0.17422 0.45277 0.0
C685 C 0.90146 0.18702 0.41553 0.0
C686 C 0.90096 0.219 0.4005 0.0
C687 C 0.92563 0.23776 0.42426 0.0
H688 H 0.1603 0.22354 0.58284 0.0
H689 H 0.08666 0.16396 0.65954 0.0
H690 H 0.19451 0.17993 0.57451 0.0
H691 H 0.12141 0.11987 0.65194 0.0
H692 H 0.17772 0.05084 0.49278 0.0
H693 H 0.14486 0.09309 0.53448 0.0
H694 H 0.22206 0.1383 0.64759 0.0
H695 H 0.25539 0.09565 0.60508 0.0
C696 C 0.15137 0.20134 0.59945 0.0
C697 C 0.12038 0.19759 0.62104 0.0
C698 C 0.17126 0.17615 0.59522 0.0
C699 C 0.16075 0.14629 0.61195 0.0
C700 C 0.13019 0.14256 0.63769 0.0
C701 C 0.1103 0.16791 0.64259 0.0
C702 C 0.18782 0.06962 0.52704 0.0
C703 C 0.21938 0.06991 0.54479 0.0
C704 C 0.16879 0.09377 0.55178 0.0
C705 C 0.18072 0.11912 0.59455 0.0
C706 C 0.21215 0.11917 0.61429 0.0
C707 C 0.23124 0.09471 0.59019 0.0
H708 H 0.1679 0.92942 0.33497 0.0
H709 H 0.22304 0.85997 0.45334 0.0
H710 H 0.12398 0.89464 0.33972 0.0
H711 H 0.17975 0.82556 0.4575 0.0
H712 H 0.09764 0.76302 0.42439 0.0
H713 H 0.14116 0.79464 0.37987 0.0
H714 H 0.09337 0.87658 0.45848 0.0
H715 H 0.05035 0.84538 0.50244 0.0
C716 C 0.17103 0.90659 0.3604 0.0
C717 C 0.19937 0.89773 0.39412 0.0
C718 C 0.14577 0.88669 0.36334 0.0
C719 C 0.14831 0.85734 0.39932 0.0
C720 C 0.17701 0.84782 0.42842 0.0
C721 C 0.20205 0.86777 0.42623 0.0
C722 C 0.09633 0.78782 0.43095 0.0
C723 C 0.07068 0.80162 0.46785 0.0
C724 C 0.12124 0.80591 0.40571 0.0
C725 C 0.12071 0.83815 0.41559 0.0
C726 C 0.09443 0.85191 0.44897 0.0
C727 C 0.06986 0.83391 0.47507 0.0
H728 H 0.21427 0.35696 0.70238 0.0
H729 H 0.25315 0.33209 0.46902 0.0
H730 H 0.26389 0.35083 0.76707 0.0
H731 H 0.30346 0.32624 0.53316 0.0
H732 H 0.34718 0.25192 0.71101 0.0
H733 H 0.3161 0.28285 0.61917 0.0
H734 H 0.31739 0.35779 0.79354 0.0
H735 H 0.34788 0.32647 0.88656 0.0
C736 C 0.23397 0.35203 0.66416 0.0
C737 C 0.23009 0.34499 0.58109 0.0
C738 C 0.26253 0.34838 0.70115 0.0
C739 C 0.28759 0.33726 0.65563 0.0
C740 C 0.28447 0.33425 0.57015 0.0
C741 C 0.25581 0.33806 0.5331 0.0
C742 C 0.34148 0.27524 0.72899 0.0
C743 C 0.34912 0.28631 0.8072 0.0
C744 C 0.32387 0.29321 0.67582 0.0
C745 C 0.31369 0.32267 0.69964 0.0
C746 C 0.32427 0.33496 0.7741 0.0
C747 C 0.34172 0.31694 0.82745 0.0
H748 H 0.33255 0.83921 0.30765 0.0
H749 H 0.34064 0.78451 0.52721 0.0
H750 H 0.31554 0.79409 0.2317 0.0
H751 H 0.32308 0.7389 0.45086 0.0
H752 H 0.24222 0.68965 0.29541 0.0
H753 H 0.27057 0.7258 0.38196 0.0
H754 H 0.33451 0.7417 0.18499 0.0
H755 H 0.30653 0.70589 0.09861 0.0
C756 C 0.33116 0.8173 0.33917 0.0
C757 C 0.33796 0.8152 0.42291 0.0
C758 C 0.32154 0.79145 0.29573 0.0
C759 C 0.31803 0.76298 0.3354 0.0
C760 C 0.3256 0.76061 0.41896 0.0
C761 C 0.33585 0.78653 0.46232 0.0
C762 C 0.26264 0.70041 0.27107 0.0
C763 C 0.27166 0.69534 0.1894 0.0
C764 C 0.27897 0.72095 0.32085 0.0
C765 C 0.30448 0.73681 0.28969 0.0
C766 C 0.31467 0.7301 0.21014 0.0
C767 C 0.29855 0.70955 0.16069 0.0
H768 H 0.80871 0.67025 0.70565 0.0
H769 H 0.76783 0.69755 0.47677 0.0
H770 H 0.76016 0.67756 0.7748 0.0
H771 H 0.71848 0.70429 0.54519 0.0
H772 H 0.6781 0.77915 0.7247 0.0
H773 H 0.70773 0.74744 0.6314 0.0
H774 H 0.70748 0.67327 0.80803 0.0
H775 H 0.67869 0.70552 0.90274 0.0
C776 C 0.78871 0.67589 0.66927 0.0
C777 C 0.79184 0.68343 0.5863 0.0
C778 C 0.76075 0.68025 0.70889 0.0
C779 C 0.73552 0.69244 0.666 0.0
C780 C 0.73767 0.6956 0.58034 0.0
C781 C 0.76576 0.69124 0.54075 0.0
C782 C 0.68382 0.75587 0.74305 0.0
C783 C 0.67692 0.74525 0.82213 0.0
C784 C 0.70056 0.73743 0.68901 0.0
C785 C 0.71053 0.70787 0.71265 0.0
C786 C 0.7008 0.69615 0.78856 0.0
C787 C 0.6843 0.71469 0.84289 0.0
H788 H 0.691 0.25926 0.55543 0.0
H789 H 0.66379 0.21906 0.32543 0.0
H790 H 0.69821 0.30899 0.48809 0.0
H791 H 0.67148 0.26802 0.25739 0.0
H792 H 0.77416 0.3475 0.30952 0.0
H793 H 0.7417 0.31868 0.40246 0.0
H794 H 0.66814 0.32134 0.22529 0.0
H795 H 0.70106 0.34946 0.13111 0.0
C796 C 0.68479 0.26159 0.49145 0.0
C797 C 0.67696 0.23555 0.44521 0.0
C798 C 0.6894 0.2899 0.45251 0.0
C799 C 0.68643 0.2923 0.36685 0.0
C800 C 0.67408 0.26721 0.32333 0.0
C801 C 0.6695 0.23902 0.36229 0.0
C802 C 0.75086 0.34253 0.29103 0.0
C803 C 0.74055 0.34988 0.21196 0.0
C804 C 0.732 0.32626 0.34485 0.0
C805 C 0.70237 0.31716 0.32088 0.0
C806 C 0.69104 0.32739 0.24501 0.0
C807 C 0.70997 0.34346 0.19097 0.0
H808 H 0.30959 0.17849 0.19455 0.0
H809 H 0.26752 0.20491 0.96641 0.0
H810 H 0.26089 0.18382 0.26421 0.0
H811 H 0.21801 0.20975 0.03547 0.0
H812 H 0.17901 0.20759 0.39376 0.0
H813 H 0.20827 0.17678 0.29668 0.0
H814 H 0.20588 0.25212 0.1237 0.0
H815 H 0.17585 0.28238 0.21929 0.0
C816 C 0.28937 0.18365 0.15854 0.0
C817 C 0.29208 0.19136 0.0756 0.0
C818 C 0.26132 0.18678 0.19835 0.0
C819 C 0.23558 0.19801 0.15581 0.0
C820 C 0.23755 0.20168 0.07025 0.0
C821 C 0.26574 0.1985 0.03039 0.0
C822 C 0.18413 0.2173 0.33419 0.0
C823 C 0.17599 0.24783 0.31518 0.0
C824 C 0.20086 0.19959 0.27849 0.0
C825 C 0.21006 0.21214 0.20305 0.0
C826 C 0.19917 0.24153 0.18098 0.0
C827 C 0.18221 0.25914 0.23637 0.0
H828 H 0.18117 0.74329 0.02461 0.0
H829 H 0.19419 0.68768 0.80819 0.0
H830 H 0.19881 0.78896 0.94873 0.0
H831 H 0.21122 0.73288 0.73265 0.0
H832 H 0.21743 0.82094 0.59745 0.0
H833 H 0.19005 0.78467 0.68355 0.0
H834 H 0.25231 0.80324 0.88275 0.0
H835 H 0.28018 0.83983 0.79631 0.0
C836 C 0.18714 0.74103 0.96048 0.0
C837 C 0.18633 0.71212 0.92187 0.0
C838 C 0.19742 0.767 0.91743 0.0
C839 C 0.20627 0.76442 0.83486 0.0
C840 C 0.20423 0.73564 0.79592 0.0
C841 C 0.1946 0.70976 0.83914 0.0
C842 C 0.22517 0.81778 0.65993 0.0
C843 C 0.25152 0.83284 0.68928 0.0
C844 C 0.20938 0.79696 0.70922 0.0
C845 C 0.21932 0.79085 0.78929 0.0
C846 C 0.24416 0.8076 0.82116 0.0
C847 C 0.26018 0.82841 0.77149 0.0
H848 H 0.84347 0.74553 0.22395 0.0
H849 H 0.84618 0.82087 0.39688 0.0
H850 H 0.81403 0.77718 0.1299 0.0
H851 H 0.81746 0.85293 0.30164 0.0
H852 H 0.71563 0.85761 0.20304 0.0
H853 H 0.76426 0.84937 0.27113 0.0
H854 H 0.80428 0.82029 0.04143 0.0
H855 H 0.75489 0.82813 0.97399 0.0
C856 C 0.8385 0.76913 0.24096 0.0
C857 C 0.84631 0.78034 0.31888 0.0
C858 C 0.82187 0.78751 0.18653 0.0
C859 C 0.81287 0.81755 0.20869 0.0
C860 C 0.82342 0.82971 0.28334 0.0
C861 C 0.83985 0.81127 0.33799 0.0
C862 C 0.73534 0.85129 0.1663 0.0
C863 C 0.73168 0.84347 0.08363 0.0
C864 C 0.76332 0.84636 0.20533 0.0
C865 C 0.78805 0.83328 0.16218 0.0
C866 C 0.78548 0.82971 0.07672 0.0
C867 C 0.75738 0.83472 0.03769 0.0
H868 H 0.74169 0.18152 0.80537 0.0
H869 H 0.81555 0.181 0.62921 0.0
H870 H 0.77376 0.20938 0.90122 0.0
H871 H 0.84819 0.20794 0.72657 0.0
H872 H 0.82319 0.26776 0.05916 0.0
H873 H 0.81632 0.21847 0.98912 0.0
H874 H 0.84555 0.26063 0.76224 0.0
H875 H 0.85305 0.30904 0.83306 0.0
C876 C 0.76507 0.18662 0.78792 0.0
C877 C 0.7757 0.18001 0.7087 0.0
C878 C 0.78372 0.2023 0.84346 0.0
C879 C 0.81352 0.21146 0.82122 0.0
C880 C 0.82515 0.20189 0.74502 0.0
C881 C 0.80639 0.1865 0.68914 0.0
C882 C 0.83001 0.26574 0.99554 0.0
C883 C 0.83853 0.29196 0.95105 0.0
C884 C 0.82559 0.2377 0.95501 0.0
C885 C 0.82934 0.2358 0.86946 0.0
C886 C 0.84233 0.26103 0.82799 0.0
C887 C 0.8468 0.28892 0.86857 0.0
loop_
_geom_bond_atom_site_label_1
_geom_bond_atom_site_label_2
_geom_bond_distance
_geom_bond_site_symmetry_2
_ccdc_geom_bond_type
C0 O12 1.241 . S
C0 O13 1.280 . S
C1 O14 1.277 . S
C1 O15 1.245 . S
C2 O26 1.247 . S
C2 O28 1.289 . S
Mg3 O4 1.926 . S
Mg3 O13 1.984 . S
Mg3 O15 1.988 . S
Mg3 O16 2.061 . S
O4 Mg3 1.926 . S
O4 Mg5 1.986 . S
O4 Mg6 1.917 . S
Mg5 O4 1.986 . S
Mg5 O12 2.042 . S
Mg5 O14 2.041 . S
Mg5 O20 2.038 1_554 S
Mg5 O28 2.238 . S
Mg6 O4 1.917 . S
Mg6 O7 1.917 . S
Mg6 O17 2.106 . S
Mg6 O19 2.079 . S
Mg6 O28 2.106 . S
Mg6 O29 2.079 . S
O7 Mg6 1.917 . S
O7 Mg8 1.926 . S
O7 Mg9 1.986 . S
Mg8 O7 1.926 . S
Mg8 O22 1.984 . S
Mg8 O25 1.988 . S
Mg8 O26 2.061 . S
Mg9 O7 1.986 . S
Mg9 O17 2.238 . S
Mg9 O21 2.042 . S
Mg9 O23 2.041 . S
Mg9 O30 2.038 . S
C10 O16 1.247 . S
C10 O17 1.289 . S
C11 O29 1.245 . S
C11 O30 1.274 . S
O12 C0 1.241 . S
O12 Mg5 2.042 . S
O13 C0 1.280 . S
O13 Mg3 1.984 . S
O14 C1 1.277 . S
O14 Mg5 2.041 . S
O15 C1 1.245 . S
O15 Mg3 1.988 . S
O16 Mg3 2.061 . S
O16 C10 1.247 . S
O17 Mg6 2.106 . S
O17 Mg9 2.238 . S
O17 C10 1.289 . S
C18 O19 1.245 1_556 S
C18 O20 1.274 . S
O19 Mg6 2.079 . S
O19 C18 1.245 1_554 S
O20 Mg5 2.038 1_556 S
O20 C18 1.274 . S
O21 Mg9 2.042 . S
O21 C24 1.241 . S
O22 Mg8 1.984 . S
O22 C24 1.280 . S
O23 Mg9 2.041 . S
O23 C27 1.277 . S
C24 O21 1.241 . S
C24 O22 1.280 . S
O25 Mg8 1.988 . S
O25 C27 1.245 . S
O26 C2 1.247 . S
O26 Mg8 2.061 . S
C27 O23 1.277 . S
C27 O25 1.245 . S
O28 C2 1.289 . S
O28 Mg5 2.238 . S
O28 Mg6 2.106 . S
O29 Mg6 2.079 . S
O29 C11 1.245 . S
O30 Mg9 2.038 . S
O30 C11 1.274 . S
C31 O43 1.241 . S
C31 O44 1.280 . S
C32 O45 1.277 . S
C32 O46 1.245 . S
C33 O57 1.247 . S
C33 O59 1.289 . S
Mg34 O35 1.926 . S
Mg34 O44 1.984 . S
Mg34 O46 1.988 . S
Mg34 O47 2.061 . S
O35 Mg34 1.926 . S
O35 Mg36 1.986 . S
O35 Mg37 1.917 . S
Mg36 O35 1.986 . S
Mg36 O43 2.042 . S
Mg36 O45 2.041 . S
Mg36 O51 2.038 . S
Mg36 O59 2.238 . S
Mg37 O35 1.917 . S
Mg37 O38 1.917 . S
Mg37 O48 2.106 . S
Mg37 O50 2.079 . S
Mg37 O59 2.106 . S
Mg37 O60 2.079 . S
O38 Mg37 1.917 . S
O38 Mg39 1.926 . S
O38 Mg40 1.986 . S
Mg39 O38 1.926 . S
Mg39 O53 1.984 . S
Mg39 O56 1.988 . S
Mg39 O57 2.061 . S
Mg40 O38 1.986 . S
Mg40 O48 2.238 . S
Mg40 O52 2.042 . S
Mg40 O54 2.041 . S
Mg40 O61 2.038 1_556 S
C41 O47 1.247 . S
C41 O48 1.289 . S
C42 O60 1.245 1_554 S
C42 O61 1.274 . S
O43 C31 1.241 . S
O43 Mg36 2.042 . S
O44 C31 1.280 . S
O44 Mg34 1.984 . S
O45 C32 1.277 . S
O45 Mg36 2.041 . S
O46 C32 1.245 . S
O46 Mg34 1.988 . S
O47 Mg34 2.061 . S
O47 C41 1.247 . S
O48 Mg37 2.106 . S
O48 Mg40 2.238 . S
O48 C41 1.289 . S
C49 O50 1.245 . S
C49 O51 1.274 . S
O50 Mg37 2.079 . S
O50 C49 1.245 . S
O51 Mg36 2.038 . S
O51 C49 1.274 . S
O52 Mg40 2.042 . S
O52 C55 1.241 . S
O53 Mg39 1.984 . S
O53 C55 1.280 . S
O54 Mg40 2.041 . S
O54 C58 1.277 . S
C55 O52 1.241 . S
C55 O53 1.280 . S
O56 Mg39 1.988 . S
O56 C58 1.245 . S
O57 C33 1.247 . S
O57 Mg39 2.061 . S
C58 O54 1.277 . S
C58 O56 1.245 . S
O59 C33 1.289 . S
O59 Mg36 2.238 . S
O59 Mg37 2.106 . S
O60 Mg37 2.079 . S
O60 C42 1.245 1_556 S
O61 Mg40 2.038 1_554 S
O61 C42 1.274 . S
C62 O74 1.241 . S
C62 O75 1.280 . S
C63 O76 1.277 . S
C63 O77 1.245 . S
C64 O88 1.247 . S
C64 O90 1.289 . S
Mg65 O66 1.926 . S
Mg65 O75 1.984 . S
Mg65 O77 1.988 . S
Mg65 O78 2.061 . S
O66 Mg65 1.926 . S
O66 Mg67 1.986 . S
O66 Mg68 1.917 . S
Mg67 O66 1.986 . S
Mg67 O74 2.042 . S
Mg67 O76 2.041 . S
Mg67 O82 2.038 1_554 S
Mg67 O90 2.238 . S
Mg68 O66 1.917 . S
Mg68 O69 1.917 . S
Mg68 O79 2.106 . S
Mg68 O81 2.079 . S
Mg68 O90 2.106 . S
Mg68 O91 2.079 . S
O69 Mg68 1.917 . S
O69 Mg70 1.926 . S
O69 Mg71 1.986 . S
Mg70 O69 1.926 . S
Mg70 O84 1.984 . S
Mg70 O87 1.988 . S
Mg70 O88 2.061 . S
Mg71 O69 1.986 . S
Mg71 O79 2.238 . S
Mg71 O83 2.042 . S
Mg71 O85 2.041 . S
Mg71 O92 2.038 . S
C72 O78 1.247 . S
C72 O79 1.289 . S
C73 O91 1.245 . S
C73 O92 1.274 . S
O74 C62 1.241 . S
O74 Mg67 2.042 . S
O75 C62 1.280 . S
O75 Mg65 1.984 . S
O76 C63 1.277 . S
O76 Mg67 2.041 . S
O77 C63 1.245 . S
O77 Mg65 1.988 . S
O78 Mg65 2.061 . S
O78 C72 1.247 . S
O79 Mg68 2.106 . S
O79 Mg71 2.238 . S
O79 C72 1.289 . S
C80 O81 1.245 1_556 S
C80 O82 1.274 . S
O81 Mg68 2.079 . S
O81 C80 1.245 1_554 S
O82 Mg67 2.038 1_556 S
O82 C80 1.274 . S
O83 Mg71 2.042 . S
O83 C86 1.241 . S
O84 Mg70 1.984 . S
O84 C86 1.280 . S
O85 Mg71 2.041 . S
O85 C89 1.277 . S
C86 O83 1.241 . S
C86 O84 1.280 . S
O87 Mg70 1.988 . S
O87 C89 1.245 . S
O88 C64 1.247 . S
O88 Mg70 2.061 . S
C89 O85 1.277 . S
C89 O87 1.245 . S
O90 C64 1.289 . S
O90 Mg67 2.238 . S
O90 Mg68 2.106 . S
O91 Mg68 2.079 . S
O91 C73 1.245 . S
O92 Mg71 2.038 . S
O92 C73 1.274 . S
C93 O105 1.241 . S
C93 O106 1.280 . S
C94 O107 1.277 . S
C94 O108 1.245 . S
C95 O119 1.247 . S
C95 O121 1.289 . S
Mg96 O97 1.926 . S
Mg96 O106 1.984 . S
Mg96 O108 1.988 . S
Mg96 O109 2.061 . S
O97 Mg96 1.926 . S
O97 Mg98 1.986 . S
O97 Mg99 1.917 . S
Mg98 O97 1.986 . S
Mg98 O105 2.042 . S
Mg98 O107 2.041 . S
Mg98 O113 2.038 . S
Mg98 O121 2.238 . S
Mg99 O97 1.917 . S
Mg99 O100 1.917 . S
Mg99 O110 2.106 . S
Mg99 O112 2.079 . S
Mg99 O121 2.106 . S
Mg99 O122 2.079 . S
O100 Mg99 1.917 . S
O100 Mg101 1.926 . S
O100 Mg102 1.986 . S
Mg101 O100 1.926 . S
Mg101 O115 1.984 . S
Mg101 O118 1.988 . S
Mg101 O119 2.061 . S
Mg102 O100 1.986 . S
Mg102 O110 2.238 . S
Mg102 O114 2.042 . S
Mg102 O116 2.041 . S
Mg102 O123 2.038 1_556 S
C103 O109 1.247 . S
C103 O110 1.289 . S
C104 O122 1.245 1_554 S
C104 O123 1.274 . S
O105 C93 1.241 . S
O105 Mg98 2.042 . S
O106 C93 1.280 . S
O106 Mg96 1.984 . S
O107 C94 1.277 . S
O107 Mg98 2.041 . S
O108 C94 1.245 . S
O108 Mg96 1.988 . S
O109 Mg96 2.061 . S
O109 C103 1.247 . S
O110 Mg99 2.106 . S
O110 Mg102 2.238 . S
O110 C103 1.289 . S
C111 O112 1.245 . S
C111 O113 1.274 . S
O112 Mg99 2.079 . S
O112 C111 1.245 . S
O113 Mg98 2.038 . S
O113 C111 1.274 . S
O114 Mg102 2.042 . S
O114 C117 1.241 . S
O115 Mg101 1.984 . S
O115 C117 1.280 . S
O116 Mg102 2.041 . S
O116 C120 1.277 . S
C117 O114 1.241 . S
C117 O115 1.280 . S
O118 Mg101 1.988 . S
O118 C120 1.245 . S
O119 C95 1.247 . S
O119 Mg101 2.061 . S
C120 O116 1.277 . S
C120 O118 1.245 . S
O121 C95 1.289 . S
O121 Mg98 2.238 . S
O121 Mg99 2.106 . S
O122 Mg99 2.079 . S
O122 C104 1.245 1_556 S
O123 Mg102 2.038 1_554 S
O123 C104 1.274 . S
C124 O136 1.243 . S
C124 O137 1.281 . S
C125 O138 1.277 . S
C125 O139 1.245 . S
C126 O150 1.247 . S
C126 O152 1.289 . S
Mg127 O128 1.926 . S
Mg127 O137 1.984 . S
Mg127 O139 1.988 . S
Mg127 O140 2.061 . S
O128 Mg127 1.926 . S
O128 Mg129 1.986 . S
O128 Mg130 1.917 . S
Mg129 O128 1.986 . S
Mg129 O136 2.042 . S
Mg129 O138 2.041 . S
Mg129 O144 2.038 . S
Mg129 O152 2.238 . S
Mg130 O128 1.917 . S
Mg130 O131 1.917 . S
Mg130 O141 2.106 . S
Mg130 O143 2.079 . S
Mg130 O152 2.106 . S
Mg130 O153 2.079 . S
O131 Mg130 1.917 . S
O131 Mg132 1.926 . S
O131 Mg133 1.986 . S
Mg132 O131 1.926 . S
Mg132 O146 1.984 . S
Mg132 O149 1.988 . S
Mg132 O150 2.061 . S
Mg133 O131 1.986 . S
Mg133 O141 2.238 . S
Mg133 O145 2.042 . S
Mg133 O147 2.041 . S
Mg133 O154 2.038 . S
C134 O140 1.247 . S
C134 O141 1.289 . S
C135 O153 1.245 . S
C135 O154 1.274 . S
O136 C124 1.243 . S
O136 Mg129 2.042 . S
O137 C124 1.281 . S
O137 Mg127 1.984 . S
O138 C125 1.277 . S
O138 Mg129 2.041 . S
O139 C125 1.245 . S
O139 Mg127 1.988 . S
O140 Mg127 2.061 . S
O140 C134 1.247 . S
O141 Mg130 2.106 . S
O141 Mg133 2.238 . S
O141 C134 1.289 . S
C142 O143 1.245 . S
C142 O144 1.274 . S
O143 Mg130 2.079 . S
O143 C142 1.245 . S
O144 Mg129 2.038 . S
O144 C142 1.274 . S
O145 Mg133 2.042 . S
O145 C148 1.241 . S
O146 Mg132 1.984 . S
O146 C148 1.280 . S
O147 Mg133 2.041 . S
O147 C151 1.277 . S
C148 O145 1.241 . S
C148 O146 1.280 . S
O149 Mg132 1.988 . S
O149 C151 1.245 . S
O150 C126 1.247 . S
O150 Mg132 2.061 . S
C151 O147 1.277 . S
C151 O149 1.245 . S
O152 C126 1.289 . S
O152 Mg129 2.238 . S
O152 Mg130 2.106 . S
O153 Mg130 2.079 . S
O153 C135 1.245 . S
O154 Mg133 2.038 . S
O154 C135 1.274 . S
C155 O167 1.241 . S
C155 O168 1.280 . S
C156 O169 1.277 . S
C156 O170 1.245 . S
C157 O181 1.247 . S
C157 O183 1.289 . S
Mg158 O159 1.926 . S
Mg158 O168 1.984 . S
Mg158 O170 1.988 . S
Mg158 O171 2.061 . S
O159 Mg158 1.926 . S
O159 Mg160 1.986 . S
O159 Mg161 1.917 . S
Mg160 O159 1.986 . S
Mg160 O167 2.042 . S
Mg160 O169 2.041 . S
Mg160 O175 2.038 . S
Mg160 O183 2.238 . S
Mg161 O159 1.917 . S
Mg161 O162 1.917 . S
Mg161 O172 2.106 . S
Mg161 O174 2.079 . S
Mg161 O183 2.106 . S
Mg161 O184 2.079 . S
O162 Mg161 1.917 . S
O162 Mg163 1.926 . S
O162 Mg164 1.986 . S
Mg163 O162 1.926 . S
Mg163 O177 1.984 . S
Mg163 O180 1.988 . S
Mg163 O181 2.061 . S
Mg164 O162 1.986 . S
Mg164 O172 2.238 . S
Mg164 O176 2.042 . S
Mg164 O178 2.041 . S
Mg164 O185 2.038 . S
C165 O171 1.247 . S
C165 O172 1.289 . S
C166 O184 1.245 . S
C166 O185 1.274 . S
O167 C155 1.241 . S
O167 Mg160 2.042 . S
O168 C155 1.280 . S
O168 Mg158 1.984 . S
O169 C156 1.277 . S
O169 Mg160 2.041 . S
O170 C156 1.245 . S
O170 Mg158 1.988 . S
O171 Mg158 2.061 . S
O171 C165 1.247 . S
O172 Mg161 2.106 . S
O172 Mg164 2.238 . S
O172 C165 1.289 . S
C173 O174 1.245 . S
C173 O175 1.274 . S
O174 Mg161 2.079 . S
O174 C173 1.245 . S
O175 Mg160 2.038 . S
O175 C173 1.274 . S
O176 Mg164 2.042 . S
O176 C179 1.243 . S
O177 Mg163 1.984 . S
O177 C179 1.281 . S
O178 Mg164 2.041 . S
O178 C182 1.277 . S
C179 O176 1.243 . S
C179 O177 1.281 . S
O180 Mg163 1.988 . S
O180 C182 1.245 . S
O181 C157 1.247 . S
O181 Mg163 2.061 . S
C182 O178 1.277 . S
C182 O180 1.245 . S
O183 C157 1.289 . S
O183 Mg160 2.238 . S
O183 Mg161 2.106 . S
O184 Mg161 2.079 . S
O184 C166 1.245 . S
O185 Mg164 2.038 . S
O185 C166 1.274 . S
C186 O198 1.243 . S
C186 O199 1.281 . S
C187 O200 1.277 . S
C187 O201 1.245 . S
C188 O212 1.247 . S
C188 O214 1.289 . S
Mg189 O190 1.926 . S
Mg189 O199 1.984 . S
Mg189 O201 1.988 . S
Mg189 O202 2.061 . S
O190 Mg189 1.926 . S
O190 Mg191 1.986 . S
O190 Mg192 1.917 . S
Mg191 O190 1.986 . S
Mg191 O198 2.042 . S
Mg191 O200 2.041 . S
Mg191 O206 2.038 . S
Mg191 O214 2.238 . S
Mg192 O190 1.917 . S
Mg192 O193 1.917 . S
Mg192 O203 2.106 . S
Mg192 O205 2.079 . S
Mg192 O214 2.106 . S
Mg192 O215 2.079 . S
O193 Mg192 1.917 . S
O193 Mg194 1.926 . S
O193 Mg195 1.986 . S
Mg194 O193 1.926 . S
Mg194 O208 1.984 . S
Mg194 O211 1.988 . S
Mg194 O212 2.061 . S
Mg195 O193 1.986 . S
Mg195 O203 2.238 . S
Mg195 O207 2.042 . S
Mg195 O209 2.041 . S
Mg195 O216 2.038 . S
C196 O202 1.247 . S
C196 O203 1.289 . S
C197 O215 1.245 . S
C197 O216 1.274 . S
O198 C186 1.243 . S
O198 Mg191 2.042 . S
O199 C186 1.281 . S
O199 Mg189 1.984 . S
O200 C187 1.277 . S
O200 Mg191 2.041 . S
O201 C187 1.245 . S
O201 Mg189 1.988 . S
O202 Mg189 2.061 . S
O202 C196 1.247 . S
O203 Mg192 2.106 . S
O203 Mg195 2.238 . S
O203 C196 1.289 . S
C204 O205 1.245 . S
C204 O206 1.274 . S
O205 Mg192 2.079 . S
O205 C204 1.245 . S
O206 Mg191 2.038 . S
O206 C204 1.274 . S
O207 Mg195 2.042 . S
O207 C210 1.241 . S
O208 Mg194 1.984 . S
O208 C210 1.280 . S
O209 Mg195 2.041 . S
O209 C213 1.277 . S
C210 O207 1.241 . S
C210 O208 1.280 . S
O211 Mg194 1.988 . S
O211 C213 1.245 . S
O212 C188 1.247 . S
O212 Mg194 2.061 . S
C213 O209 1.277 . S
C213 O211 1.245 . S
O214 C188 1.289 . S
O214 Mg191 2.238 . S
O214 Mg192 2.106 . S
O215 Mg192 2.079 . S
O215 C197 1.245 . S
O216 Mg195 2.038 . S
O216 C197 1.274 . S
C217 O229 1.241 . S
C217 O230 1.280 . S
C218 O231 1.277 . S
C218 O232 1.245 . S
C219 O243 1.247 . S
C219 O245 1.289 . S
Mg220 O221 1.926 . S
Mg220 O230 1.984 . S
Mg220 O232 1.988 . S
Mg220 O233 2.061 . S
O221 Mg220 1.926 . S
O221 Mg222 1.986 . S
O221 Mg223 1.917 . S
Mg222 O221 1.986 . S
Mg222 O229 2.042 . S
Mg222 O231 2.041 . S
Mg222 O237 2.038 . S
Mg222 O245 2.238 . S
Mg223 O221 1.917 . S
Mg223 O224 1.917 . S
Mg223 O234 2.106 . S
Mg223 O236 2.079 . S
Mg223 O245 2.106 . S
Mg223 O246 2.079 . S
O224 Mg223 1.917 . S
O224 Mg225 1.926 . S
O224 Mg226 1.986 . S
Mg225 O224 1.926 . S
Mg225 O239 1.984 . S
Mg225 O242 1.988 . S
Mg225 O243 2.061 . S
Mg226 O224 1.986 . S
Mg226 O234 2.238 . S
Mg226 O238 2.042 . S
Mg226 O240 2.041 . S
Mg226 O247 2.038 . S
C227 O233 1.247 . S
C227 O234 1.289 . S
C228 O246 1.245 . S
C228 O247 1.274 . S
O229 C217 1.241 . S
O229 Mg222 2.042 . S
O230 C217 1.280 . S
O230 Mg220 1.984 . S
O231 C218 1.277 . S
O231 Mg222 2.041 . S
O232 C218 1.245 . S
O232 Mg220 1.988 . S
O233 Mg220 2.061 . S
O233 C227 1.247 . S
O234 Mg223 2.106 . S
O234 Mg226 2.238 . S
O234 C227 1.289 . S
C235 O236 1.245 . S
C235 O237 1.274 . S
O236 Mg223 2.079 . S
O236 C235 1.245 . S
O237 Mg222 2.038 . S
O237 C235 1.274 . S
O238 Mg226 2.042 . S
O238 C241 1.243 . S
O239 Mg225 1.984 . S
O239 C241 1.281 . S
O240 Mg226 2.041 . S
O240 C244 1.277 . S
C241 O238 1.243 . S
C241 O239 1.281 . S
O242 Mg225 1.988 . S
O242 C244 1.245 . S
O243 C219 1.247 . S
O243 Mg225 2.061 . S
C244 O240 1.277 . S
C244 O242 1.245 . S
O245 C219 1.289 . S
O245 Mg222 2.238 . S
O245 Mg223 2.106 . S
O246 Mg223 2.079 . S
O246 C228 1.245 . S
O247 Mg226 2.038 . S
O247 C228 1.274 . S
H248 C256 0.950 . S
H249 C261 0.950 . S
H250 C258 0.950 . S
H251 C260 0.950 . S
H252 C262 0.950 . S
H253 C264 0.950 . S
H254 C266 0.950 . S
H255 C267 0.950 . S
C256 H248 0.950 . S
C256 C257 1.386 . S
C256 C258 1.391 . S
C257 C256 1.386 . S
C257 C261 1.393 . S
C258 H250 0.950 . S
C258 C256 1.391 . S
C258 C259 1.400 . S
C259 C258 1.400 . S
C259 C260 1.398 . S
C259 C265 1.491 . S
C260 H251 0.950 . S
C260 C259 1.398 . S
C260 C261 1.391 . S
C261 H249 0.950 . S
C261 C257 1.393 . S
C261 C260 1.391 . S
C262 H252 0.950 . S
C262 C263 1.386 . S
C262 C264 1.391 . S
C263 C262 1.386 . S
C263 C267 1.393 . S
C264 H253 0.950 . S
C264 C262 1.391 . S
C264 C265 1.400 . S
C265 C259 1.491 . S
C265 C264 1.400 . S
C265 C266 1.398 . S
C266 H254 0.950 . S
C266 C265 1.398 . S
C266 C267 1.391 . S
C267 H255 0.950 . S
C267 C263 1.393 . S
C267 C266 1.391 . S
H268 C276 0.950 . S
H269 C281 0.950 . S
H270 C278 0.950 . S
H271 C280 0.950 . S
H272 C282 0.950 . S
H273 C284 0.950 . S
H274 C286 0.950 . S
H275 C287 0.950 . S
C276 H268 0.950 . S
C276 C277 1.386 . S
C276 C278 1.391 . S
C277 C276 1.386 . S
C277 C281 1.393 . S
C278 H270 0.950 . S
C278 C276 1.391 . S
C278 C279 1.400 . S
C279 C278 1.400 . S
C279 C280 1.398 . S
C279 C285 1.491 . S
C280 H271 0.950 . S
C280 C279 1.398 . S
C280 C281 1.391 . S
C281 H269 0.950 . S
C281 C277 1.393 . S
C281 C280 1.391 . S
C282 H272 0.950 . S
C282 C283 1.386 . S
C282 C284 1.391 . S
C283 C282 1.386 . S
C283 C287 1.393 . S
C284 H273 0.950 . S
C284 C282 1.391 . S
C284 C285 1.400 . S
C285 C279 1.491 . S
C285 C284 1.400 . S
C285 C286 1.398 . S
C286 H274 0.950 . S
C286 C285 1.398 . S
C286 C287 1.391 . S
C287 H275 0.950 . S
C287 C283 1.393 . S
C287 C286 1.391 . S
H288 C296 0.950 . S
H289 C301 0.950 . S
H290 C298 0.950 . S
H291 C300 0.950 . S
H292 C302 0.950 . S
H293 C304 0.950 . S
H294 C306 0.950 . S
H295 C307 0.950 . S
C296 H288 0.950 . S
C296 C297 1.386 . S
C296 C298 1.391 . S
C297 C296 1.386 . S
C297 C301 1.393 . S
C298 H290 0.950 . S
C298 C296 1.391 . S
C298 C299 1.400 . S
C299 C298 1.400 . S
C299 C300 1.398 . S
C299 C305 1.491 . S
C300 H291 0.950 . S
C300 C299 1.398 . S
C300 C301 1.391 . S
C301 H289 0.950 . S
C301 C297 1.393 . S
C301 C300 1.391 . S
C302 H292 0.950 . S
C302 C303 1.386 . S
C302 C304 1.391 . S
C303 C302 1.386 . S
C303 C307 1.393 . S
C304 H293 0.950 . S
C304 C302 1.391 . S
C304 C305 1.400 . S
C305 C299 1.491 . S
C305 C304 1.400 . S
C305 C306 1.398 . S
C306 H294 0.950 . S
C306 C305 1.398 . S
C306 C307 1.391 . S
C307 H295 0.950 . S
C307 C303 1.393 . S
C307 C306 1.391 . S
H308 C316 0.950 . S
H309 C321 0.950 . S
H310 C318 0.950 . S
H311 C320 0.950 . S
H312 C322 0.950 . S
H313 C324 0.950 . S
H314 C326 0.950 . S
H315 C327 0.950 . S
C316 H308 0.950 . S
C316 C317 1.386 . S
C316 C318 1.391 . S
C317 C316 1.386 . S
C317 C321 1.393 . S
C318 H310 0.950 . S
C318 C316 1.391 . S
C318 C319 1.400 . S
C319 C318 1.400 . S
C319 C320 1.398 . S
C319 C325 1.491 . S
C320 H311 0.950 . S
C320 C319 1.398 . S
C320 C321 1.391 . S
C321 H309 0.950 . S
C321 C317 1.393 . S
C321 C320 1.391 . S
C322 H312 0.950 . S
C322 C323 1.386 . S
C322 C324 1.391 . S
C323 C322 1.386 . S
C323 C327 1.393 . S
C324 H313 0.950 . S
C324 C322 1.391 . S
C324 C325 1.400 . S
C325 C319 1.491 . S
C325 C324 1.400 . S
C325 C326 1.398 . S
C326 H314 0.950 . S
C326 C325 1.398 . S
C326 C327 1.391 . S
C327 H315 0.950 . S
C327 C323 1.393 . S
C327 C326 1.391 . S
H328 C336 0.950 . S
H329 C341 0.950 . S
H330 C338 0.950 . S
H331 C340 0.950 . S
H332 C342 0.950 . S
H333 C344 0.950 . S
H334 C346 0.950 . S
H335 C347 0.950 . S
C336 H328 0.950 . S
C336 C337 1.386 . S
C336 C338 1.391 . S
C337 C336 1.386 . S
C337 C341 1.393 . S
C338 H330 0.950 . S
C338 C336 1.391 . S
C338 C339 1.400 . S
C339 C338 1.400 . S
C339 C340 1.398 . S
C339 C345 1.491 . S
C340 H331 0.950 . S
C340 C339 1.398 . S
C340 C341 1.391 . S
C341 H329 0.950 . S
C341 C337 1.393 . S
C341 C340 1.391 . S
C342 H332 0.950 . S
C342 C343 1.386 . S
C342 C344 1.391 1_556 S
C343 C342 1.386 . S
C343 C347 1.393 . S
C344 H333 0.950 . S
C344 C342 1.391 1_554 S
C344 C345 1.400 . S
C345 C339 1.491 . S
C345 C344 1.400 . S
C345 C346 1.398 . S
C346 H334 0.950 . S
C346 C345 1.398 . S
C346 C347 1.391 1_554 S
C347 H335 0.950 . S
C347 C343 1.393 . S
C347 C346 1.391 1_556 S
H348 C356 0.950 . S
H349 C361 0.950 . S
H350 C358 0.950 . S
H351 C360 0.950 . S
H352 C362 0.950 . S
H353 C364 0.950 . S
H354 C366 0.950 . S
H355 C367 0.950 . S
C356 H348 0.950 . S
C356 C357 1.386 . S
C356 C358 1.391 1_554 S
C357 C356 1.386 . S
C357 C361 1.393 . S
C358 H350 0.950 . S
C358 C356 1.391 1_556 S
C358 C359 1.400 . S
C359 C358 1.400 . S
C359 C360 1.398 . S
C359 C365 1.491 . S
C360 H351 0.950 . S
C360 C359 1.398 . S
C360 C361 1.391 1_556 S
C361 H349 0.950 . S
C361 C357 1.393 . S
C361 C360 1.391 1_554 S
C362 H352 0.950 . S
C362 C363 1.386 . S
C362 C364 1.391 . S
C363 C362 1.386 . S
C363 C367 1.393 . S
C364 H353 0.950 . S
C364 C362 1.391 . S
C364 C365 1.400 . S
C365 C359 1.491 . S
C365 C364 1.400 . S
C365 C366 1.398 . S
C366 H354 0.950 . S
C366 C365 1.398 . S
C366 C367 1.391 . S
C367 H355 0.950 . S
C367 C363 1.393 . S
C367 C366 1.391 . S
H368 C376 0.950 . S
H369 C381 0.950 . S
H370 C378 0.950 . S
H371 C380 0.950 . S
H372 C382 0.950 . S
H373 C384 0.950 . S
H374 C386 0.950 . S
H375 C387 0.950 . S
C376 H368 0.950 . S
C376 C377 1.386 . S
C376 C378 1.391 . S
C377 C376 1.386 . S
C377 C381 1.393 . S
C378 H370 0.950 . S
C378 C376 1.391 . S
C378 C379 1.400 . S
C379 C378 1.400 . S
C379 C380 1.398 . S
C379 C385 1.491 . S
C380 H371 0.950 . S
C380 C379 1.398 . S
C380 C381 1.391 . S
C381 H369 0.950 . S
C381 C377 1.393 . S
C381 C380 1.391 . S
C382 H372 0.950 . S
C382 C383 1.386 . S
C382 C384 1.391 1_556 S
C383 C382 1.386 . S
C383 C387 1.393 . S
C384 H373 0.950 . S
C384 C382 1.391 1_554 S
C384 C385 1.400 . S
C385 C379 1.491 . S
C385 C384 1.400 . S
C385 C386 1.398 . S
C386 H374 0.950 . S
C386 C385 1.398 . S
C386 C387 1.391 1_554 S
C387 H375 0.950 . S
C387 C383 1.393 . S
C387 C386 1.391 1_556 S
H388 C396 0.950 . S
H389 C401 0.950 . S
H390 C398 0.950 . S
H391 C400 0.950 . S
H392 C402 0.950 . S
H393 C404 0.950 . S
H394 C406 0.950 . S
H395 C407 0.950 . S
C396 H388 0.950 . S
C396 C397 1.386 . S
C396 C398 1.391 1_554 S
C397 C396 1.386 . S
C397 C401 1.393 . S
C398 H390 0.950 . S
C398 C396 1.391 1_556 S
C398 C399 1.400 . S
C399 C398 1.400 . S
C399 C400 1.398 . S
C399 C405 1.491 . S
C400 H391 0.950 . S
C400 C399 1.398 . S
C400 C401 1.391 1_556 S
C401 H389 0.950 . S
C401 C397 1.393 . S
C401 C400 1.391 1_554 S
C402 H392 0.950 . S
C402 C403 1.386 . S
C402 C404 1.391 . S
C403 C402 1.386 . S
C403 C407 1.393 . S
C404 H393 0.950 . S
C404 C402 1.391 . S
C404 C405 1.400 . S
C405 C399 1.491 . S
C405 C404 1.400 . S
C405 C406 1.398 . S
C406 H394 0.950 . S
C406 C405 1.398 . S
C406 C407 1.391 . S
C407 H395 0.950 . S
C407 C403 1.393 . S
C407 C406 1.391 . S
H408 C416 0.950 . S
H409 C421 0.950 . S
H410 C418 0.950 . S
H411 C420 0.950 . S
H412 C422 0.950 . S
H413 C424 0.950 . S
H414 C426 0.950 . S
H415 C427 0.950 . S
C416 H408 0.950 . S
C416 C417 1.386 . S
C416 C418 1.391 . S
C417 C416 1.386 . S
C417 C421 1.393 . S
C418 H410 0.950 . S
C418 C416 1.391 . S
C418 C419 1.400 . S
C419 C418 1.400 . S
C419 C420 1.398 . S
C419 C425 1.491 . S
C420 H411 0.950 . S
C420 C419 1.398 . S
C420 C421 1.391 . S
C421 H409 0.950 . S
C421 C417 1.393 . S
C421 C420 1.391 . S
C422 H412 0.950 . S
C422 C423 1.386 . S
C422 C424 1.391 . S
C423 C422 1.386 . S
C423 C427 1.393 . S
C424 H413 0.950 . S
C424 C422 1.391 . S
C424 C425 1.400 . S
C425 C419 1.491 . S
C425 C424 1.400 . S
C425 C426 1.398 . S
C426 H414 0.950 . S
C426 C425 1.398 . S
C426 C427 1.391 . S
C427 H415 0.950 . S
C427 C423 1.393 . S
C427 C426 1.391 . S
H428 C436 0.950 . S
H429 C441 0.950 . S
H430 C438 0.950 . S
H431 C440 0.950 . S
H432 C442 0.950 . S
H433 C444 0.950 . S
H434 C446 0.950 . S
H435 C447 0.950 1_655 S
C436 H428 0.950 . S
C436 C437 1.386 . S
C436 C438 1.391 . S
C437 C436 1.386 . S
C437 C441 1.393 . S
C438 H430 0.950 . S
C438 C436 1.391 . S
C438 C439 1.400 . S
C439 C438 1.400 . S
C439 C440 1.398 . S
C439 C445 1.491 . S
C440 H431 0.950 . S
C440 C439 1.398 . S
C440 C441 1.391 . S
C441 H429 0.950 . S
C441 C437 1.393 . S
C441 C440 1.391 . S
C442 H432 0.950 . S
C442 C443 1.386 . S
C442 C444 1.391 . S
C443 C442 1.386 . S
C443 C447 1.393 . S
C444 H433 0.950 . S
C444 C442 1.391 . S
C444 C445 1.400 . S
C445 C439 1.491 . S
C445 C444 1.400 . S
C445 C446 1.398 . S
C446 H434 0.950 . S
C446 C445 1.398 . S
C446 C447 1.391 . S
C447 H435 0.950 1_455 S
C447 C443 1.393 . S
C447 C446 1.391 . S
H448 C456 0.950 . S
H449 C461 0.950 . S
H450 C458 0.950 . S
H451 C460 0.950 . S
H452 C462 0.950 . S
H453 C464 0.950 . S
H454 C466 0.950 . S
H455 C467 0.950 1_545 S
C456 H448 0.950 . S
C456 C457 1.386 . S
C456 C458 1.391 . S
C457 C456 1.386 . S
C457 C461 1.393 . S
C458 H450 0.950 . S
C458 C456 1.391 . S
C458 C459 1.400 . S
C459 C458 1.400 . S
C459 C460 1.398 . S
C459 C465 1.491 . S
C460 H451 0.950 . S
C460 C459 1.398 . S
C460 C461 1.391 . S
C461 H449 0.950 . S
C461 C457 1.393 . S
C461 C460 1.391 . S
C462 H452 0.950 . S
C462 C463 1.386 . S
C462 C464 1.391 . S
C463 C462 1.386 . S
C463 C467 1.393 . S
C464 H453 0.950 . S
C464 C462 1.391 . S
C464 C465 1.400 . S
C465 C459 1.491 . S
C465 C464 1.400 . S
C465 C466 1.398 . S
C466 H454 0.950 . S
C466 C465 1.398 . S
C466 C467 1.391 . S
C467 H455 0.950 1_565 S
C467 C463 1.393 . S
C467 C466 1.391 . S
H468 C476 0.950 . S
H469 C481 0.950 . S
H470 C478 0.950 . S
H471 C480 0.950 . S
H472 C482 0.950 . S
H473 C484 0.950 . S
H474 C486 0.950 . S
H475 C487 0.950 . S
C476 H468 0.950 . S
C476 C477 1.386 . S
C476 C478 1.391 . S
C477 C476 1.386 . S
C477 C481 1.393 . S
C478 H470 0.950 . S
C478 C476 1.391 . S
C478 C479 1.400 . S
C479 C478 1.400 . S
C479 C480 1.398 . S
C479 C485 1.491 . S
C480 H471 0.950 . S
C480 C479 1.398 . S
C480 C481 1.391 . S
C481 H469 0.950 . S
C481 C477 1.393 . S
C481 C480 1.391 . S
C482 H472 0.950 . S
C482 C483 1.386 . S
C482 C484 1.391 . S
C483 C482 1.386 . S
C483 C487 1.393 . S
C484 H473 0.950 . S
C484 C482 1.391 . S
C484 C485 1.400 . S
C485 C479 1.491 . S
C485 C484 1.400 . S
C485 C486 1.398 . S
C486 H474 0.950 . S
C486 C485 1.398 . S
C486 C487 1.391 . S
C487 H475 0.950 . S
C487 C483 1.393 . S
C487 C486 1.391 . S
H488 C496 0.950 . S
H489 C501 0.950 . S
H490 C498 0.950 . S
H491 C500 0.950 . S
H492 C502 0.950 . S
H493 C504 0.950 . S
H494 C506 0.950 . S
H495 C507 0.950 . S
C496 H488 0.950 . S
C496 C497 1.386 . S
C496 C498 1.391 . S
C497 C496 1.386 . S
C497 C501 1.393 . S
C498 H490 0.950 . S
C498 C496 1.391 . S
C498 C499 1.400 . S
C499 C498 1.400 . S
C499 C500 1.398 . S
C499 C505 1.491 . S
C500 H491 0.950 . S
C500 C499 1.398 . S
C500 C501 1.391 . S
C501 H489 0.950 . S
C501 C497 1.393 . S
C501 C500 1.391 . S
C502 H492 0.950 . S
C502 C503 1.386 . S
C502 C504 1.391 . S
C503 C502 1.386 . S
C503 C507 1.393 . S
C504 H493 0.950 . S
C504 C502 1.391 . S
C504 C505 1.400 . S
C505 C499 1.491 . S
C505 C504 1.400 . S
C505 C506 1.398 . S
C506 H494 0.950 . S
C506 C505 1.398 . S
C506 C507 1.391 . S
C507 H495 0.950 . S
C507 C503 1.393 . S
C507 C506 1.391 . S
H508 C516 0.950 . S
H509 C521 0.950 . S
H510 C518 0.950 . S
H511 C520 0.950 . S
H512 C522 0.950 1_554 S
H513 C524 0.950 1_554 S
H514 C526 0.950 . S
H515 C527 0.950 . S
C516 H508 0.950 . S
C516 C517 1.386 . S
C516 C518 1.391 . S
C517 C516 1.386 . S
C517 C521 1.393 1_556 S
C518 H510 0.950 . S
C518 C516 1.391 . S
C518 C519 1.400 . S
C519 C518 1.400 . S
C519 C520 1.398 1_556 S
C519 C525 1.491 . S
C520 H511 0.950 . S
C520 C519 1.398 1_554 S
C520 C521 1.391 . S
C521 H509 0.950 . S
C521 C517 1.393 1_554 S
C521 C520 1.391 . S
C522 H512 0.950 1_556 S
C522 C523 1.386 . S
C522 C524 1.391 . S
C523 C522 1.386 . S
C523 C527 1.393 . S
C524 H513 0.950 1_556 S
C524 C522 1.391 . S
C524 C525 1.400 . S
C525 C519 1.491 . S
C525 C524 1.400 . S
C525 C526 1.398 . S
C526 H514 0.950 . S
C526 C525 1.398 . S
C526 C527 1.391 . S
C527 H515 0.950 . S
C527 C523 1.393 . S
C527 C526 1.391 . S
H528 C536 0.950 . S
H529 C541 0.950 . S
H530 C538 0.950 . S
H531 C540 0.950 1_556 S
H532 C542 0.949 . S
H533 C544 0.950 1_556 S
H534 C546 0.950 . S
H535 C547 0.950 . S
C536 H528 0.950 . S
C536 C537 1.386 . S
C536 C538 1.391 . S
C537 C536 1.386 . S
C537 C541 1.393 . S
C538 H530 0.950 . S
C538 C536 1.391 . S
C538 C539 1.400 . S
C539 C538 1.400 . S
C539 C540 1.398 . S
C539 C545 1.491 . S
C540 H531 0.950 1_554 S
C540 C539 1.398 . S
C540 C541 1.391 . S
C541 H529 0.950 . S
C541 C537 1.393 . S
C541 C540 1.391 . S
C542 H532 0.949 . S
C542 C543 1.386 1_556 S
C542 C544 1.391 1_556 S
C543 C542 1.386 1_554 S
C543 C547 1.393 . S
C544 H533 0.950 1_554 S
C544 C542 1.391 1_554 S
C544 C545 1.400 . S
C545 C539 1.491 . S
C545 C544 1.400 . S
C545 C546 1.398 . S
C546 H534 0.950 . S
C546 C545 1.398 . S
C546 C547 1.391 . S
C547 H535 0.950 . S
C547 C543 1.393 . S
C547 C546 1.391 . S
H548 C556 0.950 . S
H549 C561 0.950 . S
H550 C558 0.950 . S
H551 C560 0.950 . S
H552 C562 0.950 . S
H553 C564 0.950 . S
H554 C566 0.950 . S
H555 C567 0.950 . S
C556 H548 0.950 . S
C556 C557 1.386 . S
C556 C558 1.391 . S
C557 C556 1.386 . S
C557 C561 1.393 . S
C558 H550 0.950 . S
C558 C556 1.391 . S
C558 C559 1.400 . S
C559 C558 1.400 . S
C559 C560 1.398 . S
C559 C565 1.491 . S
C560 H551 0.950 . S
C560 C559 1.398 . S
C560 C561 1.391 . S
C561 H549 0.950 . S
C561 C557 1.393 . S
C561 C560 1.391 . S
C562 H552 0.950 . S
C562 C563 1.386 . S
C562 C564 1.391 . S
C563 C562 1.386 . S
C563 C567 1.393 . S
C564 H553 0.950 . S
C564 C562 1.391 . S
C564 C565 1.400 . S
C565 C559 1.491 . S
C565 C564 1.400 . S
C565 C566 1.398 . S
C566 H554 0.950 . S
C566 C565 1.398 . S
C566 C567 1.391 . S
C567 H555 0.950 . S
C567 C563 1.393 . S
C567 C566 1.391 . S
H568 C576 0.950 . S
H569 C581 0.950 . S
H570 C578 0.950 . S
H571 C580 0.950 . S
H572 C582 0.950 . S
H573 C584 0.950 . S
H574 C586 0.950 . S
H575 C587 0.950 . S
C576 H568 0.950 . S
C576 C577 1.386 . S
C576 C578 1.391 . S
C577 C576 1.386 . S
C577 C581 1.393 . S
C578 H570 0.950 . S
C578 C576 1.391 . S
C578 C579 1.400 . S
C579 C578 1.400 . S
C579 C580 1.398 . S
C579 C585 1.491 . S
C580 H571 0.950 . S
C580 C579 1.398 . S
C580 C581 1.391 . S
C581 H569 0.950 . S
C581 C577 1.393 . S
C581 C580 1.391 . S
C582 H572 0.950 . S
C582 C583 1.386 . S
C582 C584 1.391 . S
C583 C582 1.386 . S
C583 C587 1.393 . S
C584 H573 0.950 . S
C584 C582 1.391 . S
C584 C585 1.400 . S
C585 C579 1.491 . S
C585 C584 1.400 . S
C585 C586 1.398 . S
C586 H574 0.950 . S
C586 C585 1.398 . S
C586 C587 1.391 . S
C587 H575 0.950 . S
C587 C583 1.393 . S
C587 C586 1.391 . S
H588 C596 0.950 . S
H589 C601 0.950 . S
H590 C598 0.950 . S
H591 C600 0.950 . S
H592 C602 0.950 . S
H593 C604 0.950 . S
H594 C606 0.950 . S
H595 C607 0.950 . S
C596 H588 0.950 . S
C596 C597 1.386 . S
C596 C598 1.391 . S
C597 C596 1.386 . S
C597 C601 1.393 . S
C598 H590 0.950 . S
C598 C596 1.391 . S
C598 C599 1.400 . S
C599 C598 1.400 . S
C599 C600 1.398 . S
C599 C605 1.491 . S
C600 H591 0.950 . S
C600 C599 1.398 . S
C600 C601 1.391 . S
C601 H589 0.950 . S
C601 C597 1.393 . S
C601 C600 1.391 . S
C602 H592 0.950 . S
C602 C603 1.386 . S
C602 C604 1.391 . S
C603 C602 1.386 . S
C603 C607 1.393 . S
C604 H593 0.950 . S
C604 C602 1.391 . S
C604 C605 1.400 . S
C605 C599 1.491 . S
C605 C604 1.400 . S
C605 C606 1.398 . S
C606 H594 0.950 . S
C606 C605 1.398 . S
C606 C607 1.391 . S
C607 H595 0.950 . S
C607 C603 1.393 . S
C607 C606 1.391 . S
H608 C616 0.950 . S
H609 C621 0.950 . S
H610 C618 0.950 . S
H611 C620 0.950 . S
H612 C622 0.950 . S
H613 C624 0.950 . S
H614 C626 0.950 . S
H615 C627 0.950 . S
C616 H608 0.950 . S
C616 C617 1.386 . S
C616 C618 1.391 . S
C617 C616 1.386 . S
C617 C621 1.393 . S
C618 H610 0.950 . S
C618 C616 1.391 . S
C618 C619 1.400 . S
C619 C618 1.400 . S
C619 C620 1.398 . S
C619 C625 1.491 . S
C620 H611 0.950 . S
C620 C619 1.398 . S
C620 C621 1.391 . S
C621 H609 0.950 . S
C621 C617 1.393 . S
C621 C620 1.391 . S
C622 H612 0.950 . S
C622 C623 1.386 . S
C622 C624 1.391 . S
C623 C622 1.386 . S
C623 C627 1.393 . S
C624 H613 0.950 . S
C624 C622 1.391 . S
C624 C625 1.400 . S
C625 C619 1.491 . S
C625 C624 1.400 . S
C625 C626 1.398 . S
C626 H614 0.950 . S
C626 C625 1.398 . S
C626 C627 1.391 . S
C627 H615 0.950 . S
C627 C623 1.393 . S
C627 C626 1.391 . S
H628 C636 0.950 . S
H629 C641 0.950 . S
H630 C638 0.950 . S
H631 C640 0.950 . S
H632 C642 0.950 . S
H633 C644 0.950 . S
H634 C646 0.950 . S
H635 C647 0.950 . S
C636 H628 0.950 . S
C636 C637 1.386 . S
C636 C638 1.391 . S
C637 C636 1.386 . S
C637 C641 1.393 . S
C638 H630 0.950 . S
C638 C636 1.391 . S
C638 C639 1.400 . S
C639 C638 1.400 . S
C639 C640 1.398 . S
C639 C645 1.491 . S
C640 H631 0.950 . S
C640 C639 1.398 . S
C640 C641 1.391 . S
C641 H629 0.950 . S
C641 C637 1.393 . S
C641 C640 1.391 . S
C642 H632 0.950 . S
C642 C643 1.386 . S
C642 C644 1.391 . S
C643 C642 1.386 . S
C643 C647 1.393 . S
C644 H633 0.950 . S
C644 C642 1.391 . S
C644 C645 1.400 . S
C645 C639 1.491 . S
C645 C644 1.400 . S
C645 C646 1.398 . S
C646 H634 0.950 . S
C646 C645 1.398 . S
C646 C647 1.391 . S
C647 H635 0.950 . S
C647 C643 1.393 . S
C647 C646 1.391 . S
H648 C656 0.950 . S
H649 C661 0.950 . S
H650 C658 0.950 . S
H651 C660 0.950 . S
H652 C662 0.950 . S
H653 C664 0.950 . S
H654 C666 0.950 . S
H655 C667 0.950 . S
C656 H648 0.950 . S
C656 C657 1.386 . S
C656 C658 1.391 . S
C657 C656 1.386 . S
C657 C661 1.393 . S
C658 H650 0.950 . S
C658 C656 1.391 . S
C658 C659 1.400 . S
C659 C658 1.400 . S
C659 C660 1.398 . S
C659 C665 1.491 . S
C660 H651 0.950 . S
C660 C659 1.398 . S
C660 C661 1.391 . S
C661 H649 0.950 . S
C661 C657 1.393 . S
C661 C660 1.391 . S
C662 H652 0.950 . S
C662 C663 1.386 . S
C662 C664 1.391 . S
C663 C662 1.386 . S
C663 C667 1.393 . S
C664 H653 0.950 . S
C664 C662 1.391 . S
C664 C665 1.400 . S
C665 C659 1.491 . S
C665 C664 1.400 . S
C665 C666 1.398 . S
C666 H654 0.950 . S
C666 C665 1.398 . S
C666 C667 1.391 . S
C667 H655 0.950 . S
C667 C663 1.393 . S
C667 C666 1.391 . S
H668 C676 0.950 . S
H669 C681 0.950 . S
H670 C678 0.950 . S
H671 C680 0.950 . S
H672 C682 0.950 . S
H673 C684 0.950 . S
H674 C686 0.950 . S
H675 C687 0.950 . S
C676 H668 0.950 . S
C676 C677 1.386 . S
C676 C678 1.391 . S
C677 C676 1.386 . S
C677 C681 1.393 . S
C678 H670 0.950 . S
C678 C676 1.391 . S
C678 C679 1.400 . S
C679 C678 1.400 . S
C679 C680 1.398 . S
C679 C685 1.491 . S
C680 H671 0.950 . S
C680 C679 1.398 . S
C680 C681 1.391 . S
C681 H669 0.950 . S
C681 C677 1.393 . S
C681 C680 1.391 . S
C682 H672 0.950 . S
C682 C683 1.386 . S
C682 C684 1.391 . S
C683 C682 1.386 . S
C683 C687 1.393 . S
C684 H673 0.950 . S
C684 C682 1.391 . S
C684 C685 1.400 . S
C685 C679 1.491 . S
C685 C684 1.400 . S
C685 C686 1.398 . S
C686 H674 0.950 . S
C686 C685 1.398 . S
C686 C687 1.391 . S
C687 H675 0.950 . S
C687 C683 1.393 . S
C687 C686 1.391 . S
H688 C696 0.950 . S
H689 C701 0.950 . S
H690 C698 0.950 . S
H691 C700 0.950 . S
H692 C702 0.950 . S
H693 C704 0.950 . S
H694 C706 0.950 . S
H695 C707 0.950 . S
C696 H688 0.950 . S
C696 C697 1.386 . S
C696 C698 1.391 . S
C697 C696 1.386 . S
C697 C701 1.393 . S
C698 H690 0.950 . S
C698 C696 1.391 . S
C698 C699 1.400 . S
C699 C698 1.400 . S
C699 C700 1.398 . S
C699 C705 1.491 . S
C700 H691 0.950 . S
C700 C699 1.398 . S
C700 C701 1.391 . S
C701 H689 0.950 . S
C701 C697 1.393 . S
C701 C700 1.391 . S
C702 H692 0.950 . S
C702 C703 1.386 . S
C702 C704 1.391 . S
C703 C702 1.386 . S
C703 C707 1.393 . S
C704 H693 0.950 . S
C704 C702 1.391 . S
C704 C705 1.400 . S
C705 C699 1.491 . S
C705 C704 1.400 . S
C705 C706 1.398 . S
C706 H694 0.950 . S
C706 C705 1.398 . S
C706 C707 1.391 . S
C707 H695 0.950 . S
C707 C703 1.393 . S
C707 C706 1.391 . S
H708 C716 0.950 . S
H709 C721 0.950 . S
H710 C718 0.950 . S
H711 C720 0.950 . S
H712 C722 0.950 . S
H713 C724 0.950 . S
H714 C726 0.950 . S
H715 C727 0.950 . S
C716 H708 0.950 . S
C716 C717 1.386 . S
C716 C718 1.391 . S
C717 C716 1.386 . S
C717 C721 1.393 . S
C718 H710 0.950 . S
C718 C716 1.391 . S
C718 C719 1.400 . S
C719 C718 1.400 . S
C719 C720 1.398 . S
C719 C725 1.491 . S
C720 H711 0.950 . S
C720 C719 1.398 . S
C720 C721 1.391 . S
C721 H709 0.950 . S
C721 C717 1.393 . S
C721 C720 1.391 . S
C722 H712 0.950 . S
C722 C723 1.386 . S
C722 C724 1.391 . S
C723 C722 1.386 . S
C723 C727 1.393 . S
C724 H713 0.950 . S
C724 C722 1.391 . S
C724 C725 1.400 . S
C725 C719 1.491 . S
C725 C724 1.400 . S
C725 C726 1.398 . S
C726 H714 0.950 . S
C726 C725 1.398 . S
C726 C727 1.391 . S
C727 H715 0.950 . S
C727 C723 1.393 . S
C727 C726 1.391 . S
H728 C736 0.950 . S
H729 C741 0.950 . S
H730 C738 0.950 . S
H731 C740 0.950 . S
H732 C742 0.950 . S
H733 C744 0.950 . S
H734 C746 0.950 . S
H735 C747 0.950 . S
C736 H728 0.950 . S
C736 C737 1.386 . S
C736 C738 1.391 . S
C737 C736 1.386 . S
C737 C741 1.393 . S
C738 H730 0.950 . S
C738 C736 1.391 . S
C738 C739 1.400 . S
C739 C738 1.400 . S
C739 C740 1.398 . S
C739 C745 1.491 . S
C740 H731 0.950 . S
C740 C739 1.398 . S
C740 C741 1.391 . S
C741 H729 0.950 . S
C741 C737 1.393 . S
C741 C740 1.391 . S
C742 H732 0.950 . S
C742 C743 1.386 1_556 S
C742 C744 1.391 . S
C743 C742 1.386 1_554 S
C743 C747 1.393 . S
C744 H733 0.950 . S
C744 C742 1.391 . S
C744 C745 1.400 . S
C745 C739 1.491 . S
C745 C744 1.400 . S
C745 C746 1.398 1_556 S
C746 H734 0.950 . S
C746 C745 1.398 1_554 S
C746 C747 1.391 . S
C747 H735 0.950 . S
C747 C743 1.393 . S
C747 C746 1.391 . S
H748 C756 0.950 . S
H749 C761 0.950 . S
H750 C758 0.950 . S
H751 C760 0.950 . S
H752 C762 0.950 . S
H753 C764 0.950 . S
H754 C766 0.950 . S
H755 C767 0.950 . S
C756 H748 0.950 . S
C756 C757 1.386 . S
C756 C758 1.391 . S
C757 C756 1.386 . S
C757 C761 1.393 . S
C758 H750 0.950 . S
C758 C756 1.391 . S
C758 C759 1.400 . S
C759 C758 1.400 . S
C759 C760 1.398 . S
C759 C765 1.491 . S
C760 H751 0.950 . S
C760 C759 1.398 . S
C760 C761 1.391 . S
C761 H749 0.950 . S
C761 C757 1.393 . S
C761 C760 1.391 . S
C762 H752 0.950 . S
C762 C763 1.386 . S
C762 C764 1.391 1_556 S
C763 C762 1.386 . S
C763 C767 1.393 . S
C764 H753 0.950 . S
C764 C762 1.391 1_554 S
C764 C765 1.400 . S
C765 C759 1.491 . S
C765 C764 1.400 . S
C765 C766 1.398 . S
C766 H754 0.950 . S
C766 C765 1.398 . S
C766 C767 1.391 1_554 S
C767 H755 0.950 . S
C767 C763 1.393 . S
C767 C766 1.391 1_556 S
H768 C776 0.950 . S
H769 C781 0.950 . S
H770 C778 0.950 . S
H771 C780 0.950 . S
H772 C782 0.950 . S
H773 C784 0.950 . S
H774 C786 0.950 . S
H775 C787 0.950 . S
C776 H768 0.950 . S
C776 C777 1.386 . S
C776 C778 1.391 . S
C777 C776 1.386 . S
C777 C781 1.393 . S
C778 H770 0.950 . S
C778 C776 1.391 . S
C778 C779 1.400 . S
C779 C778 1.400 . S
C779 C780 1.398 . S
C779 C785 1.491 . S
C780 H771 0.950 . S
C780 C779 1.398 . S
C780 C781 1.391 . S
C781 H769 0.950 . S
C781 C777 1.393 . S
C781 C780 1.391 . S
C782 H772 0.950 . S
C782 C783 1.386 1_556 S
C782 C784 1.391 . S
C783 C782 1.386 1_554 S
C783 C787 1.393 . S
C784 H773 0.950 . S
C784 C782 1.391 . S
C784 C785 1.400 . S
C785 C779 1.491 . S
C785 C784 1.400 . S
C785 C786 1.398 1_556 S
C786 H774 0.950 . S
C786 C785 1.398 1_554 S
C786 C787 1.391 . S
C787 H775 0.950 . S
C787 C783 1.393 . S
C787 C786 1.391 . S
H788 C796 0.950 . S
H789 C801 0.950 . S
H790 C798 0.950 . S
H791 C800 0.950 . S
H792 C802 0.950 . S
H793 C804 0.950 . S
H794 C806 0.950 . S
H795 C807 0.950 1_556 S
C796 H788 0.950 . S
C796 C797 1.386 . S
C796 C798 1.391 . S
C797 C796 1.386 . S
C797 C801 1.393 . S
C798 H790 0.950 . S
C798 C796 1.391 . S
C798 C799 1.400 . S
C799 C798 1.400 . S
C799 C800 1.398 . S
C799 C805 1.491 . S
C800 H791 0.950 . S
C800 C799 1.398 . S
C800 C801 1.391 . S
C801 H789 0.950 . S
C801 C797 1.393 . S
C801 C800 1.391 . S
C802 H792 0.950 . S
C802 C803 1.386 . S
C802 C804 1.391 1_556 S
C803 C802 1.386 . S
C803 C807 1.393 1_556 S
C804 H793 0.950 . S
C804 C802 1.391 1_554 S
C804 C805 1.400 . S
C805 C799 1.491 . S
C805 C804 1.400 . S
C805 C806 1.398 . S
C806 H794 0.950 . S
C806 C805 1.398 . S
C806 C807 1.391 . S
C807 H795 0.950 1_554 S
C807 C803 1.393 1_554 S
C807 C806 1.391 . S
H808 C816 0.950 . S
H809 C821 0.950 . S
H810 C818 0.950 . S
H811 C820 0.950 . S
H812 C822 0.950 . S
H813 C824 0.950 . S
H814 C826 0.950 . S
H815 C827 0.950 . S
C816 H808 0.950 . S
C816 C817 1.386 . S
C816 C818 1.391 . S
C817 C816 1.386 . S
C817 C821 1.393 . S
C818 H810 0.950 . S
C818 C816 1.391 . S
C818 C819 1.400 . S
C819 C818 1.400 . S
C819 C820 1.398 . S
C819 C825 1.491 . S
C820 H811 0.950 . S
C820 C819 1.398 . S
C820 C821 1.391 . S
C821 H809 0.950 . S
C821 C817 1.393 . S
C821 C820 1.391 . S
C822 H812 0.950 . S
C822 C823 1.386 . S
C822 C824 1.391 . S
C823 C822 1.386 . S
C823 C827 1.393 . S
C824 H813 0.950 . S
C824 C822 1.391 . S
C824 C825 1.400 . S
C825 C819 1.491 . S
C825 C824 1.400 . S
C825 C826 1.398 . S
C826 H814 0.950 . S
C826 C825 1.398 . S
C826 C827 1.391 . S
C827 H815 0.950 . S
C827 C823 1.393 . S
C827 C826 1.391 . S
H828 C836 0.950 . S
H829 C841 0.950 . S
H830 C838 0.950 . S
H831 C840 0.950 . S
H832 C842 0.950 . S
H833 C844 0.950 . S
H834 C846 0.950 . S
H835 C847 0.950 . S
C836 H828 0.950 . S
C836 C837 1.386 . S
C836 C838 1.391 . S
C837 C836 1.386 . S
C837 C841 1.393 . S
C838 H830 0.950 . S
C838 C836 1.391 . S
C838 C839 1.400 . S
C839 C838 1.400 . S
C839 C840 1.398 . S
C839 C845 1.491 . S
C840 H831 0.950 . S
C840 C839 1.398 . S
C840 C841 1.391 . S
C841 H829 0.950 . S
C841 C837 1.393 . S
C841 C840 1.391 . S
C842 H832 0.950 . S
C842 C843 1.386 . S
C842 C844 1.391 . S
C843 C842 1.386 . S
C843 C847 1.393 . S
C844 H833 0.950 . S
C844 C842 1.391 . S
C844 C845 1.400 . S
C845 C839 1.491 . S
C845 C844 1.400 . S
C845 C846 1.398 . S
C846 H834 0.950 . S
C846 C845 1.398 . S
C846 C847 1.391 . S
C847 H835 0.950 . S
C847 C843 1.393 . S
C847 C846 1.391 . S
H848 C856 0.950 . S
H849 C861 0.950 . S
H850 C858 0.950 . S
H851 C860 0.950 . S
H852 C862 0.950 . S
H853 C864 0.950 . S
H854 C866 0.950 . S
H855 C867 0.950 . S
C856 H848 0.950 . S
C856 C857 1.386 . S
C856 C858 1.391 . S
C857 C856 1.386 . S
C857 C861 1.393 . S
C858 H850 0.950 . S
C858 C856 1.391 . S
C858 C859 1.400 . S
C859 C858 1.400 . S
C859 C860 1.398 . S
C859 C865 1.491 . S
C860 H851 0.950 . S
C860 C859 1.398 . S
C860 C861 1.391 . S
C861 H849 0.950 . S
C861 C857 1.393 . S
C861 C860 1.391 . S
C862 H852 0.950 . S
C862 C863 1.386 . S
C862 C864 1.391 . S
C863 C862 1.386 . S
C863 C867 1.393 . S
C864 H853 0.950 . S
C864 C862 1.391 . S
C864 C865 1.400 . S
C865 C859 1.491 . S
C865 C864 1.400 . S
C865 C866 1.398 . S
C866 H854 0.950 . S
C866 C865 1.398 . S
C866 C867 1.391 . S
C867 H855 0.950 . S
C867 C863 1.393 . S
C867 C866 1.391 . S
H868 C876 0.950 . S
H869 C881 0.950 . S
H870 C878 0.950 . S
H871 C880 0.950 . S
H872 C882 0.950 . S
H873 C884 0.950 . S
H874 C886 0.950 . S
H875 C887 0.950 . S
C876 H868 0.950 . S
C876 C877 1.386 . S
C876 C878 1.391 . S
C877 C876 1.386 . S
C877 C881 1.393 . S
C878 H870 0.950 . S
C878 C876 1.391 . S
C878 C879 1.400 . S
C879 C878 1.400 . S
C879 C880 1.398 . S
C879 C885 1.491 . S
C880 H871 0.950 . S
C880 C879 1.398 . S
C880 C881 1.391 . S
C881 H869 0.950 . S
C881 C877 1.393 . S
C881 C880 1.391 . S
C882 H872 0.950 . S
C882 C883 1.386 . S
C882 C884 1.391 . S
C883 C882 1.386 . S
C883 C887 1.393 . S
C884 H873 0.950 . S
C884 C882 1.391 . S
C884 C885 1.400 . S
C885 C879 1.491 . S
C885 C884 1.400 . S
C885 C886 1.398 . S
C886 H874 0.950 . S
C886 C885 1.398 . S
C886 C887 1.391 . S
C887 H875 0.950 . S
C887 C883 1.393 . S
C887 C886 1.391 . S
C257 C18 1.890 . S
C263 C11 1.890 . S
C277 C42 1.884 . S
C283 C49 1.884 . S
C297 C73 1.889 . S
C303 C80 1.889 . S
C317 C104 1.891 . S
C323 C111 1.891 . S
C337 C142 1.881 . S
C343 C135 1.881 . S
C357 C173 1.893 . S
C363 C166 1.893 . S
C377 C204 1.882 . S
C383 C197 1.882 . S
C397 C235 1.884 . S
C403 C228 1.884 . S
C417 C2 1.582 . S
C423 C244 1.692 1_545 S
C437 C41 1.546 . S
C443 C125 1.673 1_455 S
C457 C64 1.579 . S
C463 C182 1.696 1_565 S
C477 C103 1.578 . S
C483 C187 1.681 1_655 S
C497 C55 1.884 1_554 S
C503 C10 2.007 . S
C517 C62 1.868 1_556 S
C523 C33 1.996 . S
C537 C72 2.007 . S
C543 C117 1.882 1_554 S
C557 C0 1.883 1_556 S
C563 C95 2.004 . S
C577 C126 1.576 . S
C583 C120 1.679 . S
C597 C165 1.547 . S
C603 C1 1.691 . S
C617 C188 1.578 . S
C623 C58 1.681 . S
C637 C227 1.582 . S
C643 C63 1.689 . S
C657 C179 1.856 1_565 S
C663 C134 2.001 . S
C677 C157 2.007 . S
C683 C186 1.873 1_655 S
C697 C196 2.001 . S
C703 C241 1.857 1_545 S
C717 C219 1.993 . S
C723 C124 1.849 1_455 S
C737 C210 0.377 . S
C743 C27 0.384 . S
C757 C217 0.383 . S
C763 C32 0.345 . S
C777 C148 0.376 . S
C783 C89 0.381 . S
C797 C155 0.380 . S
C803 C94 0.351 . S
C817 C24 0.376 . S
C823 C213 0.382 . S
C837 C31 0.376 . S
C843 C218 0.361 . S
C857 C151 0.316 . S
C863 C86 0.438 . S
C877 C156 0.376 . S
C883 C93 0.470 . S
