# Generated by pormake.
# Topology ukk, (4)-cn, num edge types: 1
# Building blocks:
#     Node 0, Type 0, BuildingBlock: QUQFOY_clean_sbu_1, # of connection points: 4
#     Node 1, Type 0, BuildingBlock: QUQFOY_clean_sbu_1, # of connection points: 4
#     Node 2, Type 0, BuildingBlock: QUQFOY_clean_sbu_1, # of connection points: 4
#     Node 3, Type 0, BuildingBlock: QUQFOY_clean_sbu_1, # of connection points: 4
#     Node 4, Type 0, BuildingBlock: QUQFOY_clean_sbu_1, # of connection points: 4
#     Node 5, Type 0, BuildingBlock: QUQFOY_clean_sbu_1, # of connection points: 4
#     Node 6, Type 0, BuildingBlock: QUQFOY_clean_sbu_1, # of connection points: 4
#     Node 7, Type 0, BuildingBlock: QUQFOY_clean_sbu_1, # of connection points: 4
#     Node 8, Type 0, BuildingBlock: QUQFOY_clean_sbu_1, # of connection points: 4
#     Node 9, Type 0, BuildingBlock: QUQFOY_clean_sbu_1, # of connection points: 4
#     Node 10, Type 0, BuildingBlock: QUQFOY_clean_sbu_1, # of connection points: 4
#     Node 11, Type 0, BuildingBlock: QUQFOY_clean_sbu_1, # of connection points: 4
#     Node 12, Type 0, BuildingBlock: QUQFOY_clean_sbu_1, # of connection points: 4
#     Node 13, Type 0, BuildingBlock: QUQFOY_clean_sbu_1, # of connection points: 4
#     Node 14, Type 0, BuildingBlock: QUQFOY_clean_sbu_1, # of connection points: 4
#     Node 15, Type 0, BuildingBlock: QUQFOY_clean_sbu_1, # of connection points: 4
#     Edge 16, Type (0, 0), BuildingBlock: EZIPEK_clean_linker_0, # of connection points: 2
#     Edge 17, Type (0, 0), BuildingBlock: EZIPEK_clean_linker_0, # of connection points: 2
#     Edge 18, Type (0, 0), BuildingBlock: EZIPEK_clean_linker_0, # of connection points: 2
#     Edge 19, Type (0, 0), BuildingBlock: EZIPEK_clean_linker_0, # of connection points: 2
#     Edge 20, Type (0, 0), BuildingBlock: EZIPEK_clean_linker_0, # of connection points: 2
#     Edge 21, Type (0, 0), BuildingBlock: EZIPEK_clean_linker_0, # of connection points: 2
#     Edge 22, Type (0, 0), BuildingBlock: EZIPEK_clean_linker_0, # of connection points: 2
#     Edge 23, Type (0, 0), BuildingBlock: EZIPEK_clean_linker_0, # of connection points: 2
#     Edge 24, Type (0, 0), BuildingBlock: EZIPEK_clean_linker_0, # of connection points: 2
#     Edge 25, Type (0, 0), BuildingBlock: EZIPEK_clean_linker_0, # of connection points: 2
#     Edge 26, Type (0, 0), BuildingBlock: EZIPEK_clean_linker_0, # of connection points: 2
#     Edge 27, Type (0, 0), BuildingBlock: EZIPEK_clean_linker_0, # of connection points: 2
#     Edge 28, Type (0, 0), BuildingBlock: EZIPEK_clean_linker_0, # of connection points: 2
#     Edge 29, Type (0, 0), BuildingBlock: EZIPEK_clean_linker_0, # of connection points: 2
#     Edge 30, Type (0, 0), BuildingBlock: EZIPEK_clean_linker_0, # of connection points: 2
#     Edge 31, Type (0, 0), BuildingBlock: EZIPEK_clean_linker_0, # of connection points: 2
#     Edge 32, Type (0, 0), BuildingBlock: EZIPEK_clean_linker_0, # of connection points: 2
#     Edge 33, Type (0, 0), BuildingBlock: EZIPEK_clean_linker_0, # of connection points: 2
#     Edge 34, Type (0, 0), BuildingBlock: EZIPEK_clean_linker_0, # of connection points: 2
#     Edge 35, Type (0, 0), BuildingBlock: EZIPEK_clean_linker_0, # of connection points: 2
#     Edge 36, Type (0, 0), BuildingBlock: EZIPEK_clean_linker_0, # of connection points: 2
#     Edge 37, Type (0, 0), BuildingBlock: EZIPEK_clean_linker_0, # of connection points: 2
#     Edge 38, Type (0, 0), BuildingBlock: EZIPEK_clean_linker_0, # of connection points: 2
#     Edge 39, Type (0, 0), BuildingBlock: EZIPEK_clean_linker_0, # of connection points: 2
#     Edge 40, Type (0, 0), BuildingBlock: EZIPEK_clean_linker_0, # of connection points: 2
#     Edge 41, Type (0, 0), BuildingBlock: EZIPEK_clean_linker_0, # of connection points: 2
#     Edge 42, Type (0, 0), BuildingBlock: EZIPEK_clean_linker_0, # of connection points: 2
#     Edge 43, Type (0, 0), BuildingBlock: EZIPEK_clean_linker_0, # of connection points: 2
#     Edge 44, Type (0, 0), BuildingBlock: EZIPEK_clean_linker_0, # of connection points: 2
#     Edge 45, Type (0, 0), BuildingBlock: EZIPEK_clean_linker_0, # of connection points: 2
#     Edge 46, Type (0, 0), BuildingBlock: EZIPEK_clean_linker_0, # of connection points: 2
#     Edge 47, Type (0, 0), BuildingBlock: EZIPEK_clean_linker_0, # of connection points: 2
# Relax obj value: 0.045
# Max RMSD: 0.175
# Mean RMSD: 0.175
data_MOF--net-ukk--node1-QUQFOY_clean_sbu_1--edge1-EZIPEK_clean_linker_0
_symmetry_space_group_name_H-M    P1
_symmetry_Int_Tables_number       1
_symmetry_cell_setting            triclinic
loop_
_symmetry_equiv_pos_as_xyz
'x, y, z'
_cell_length_a     37.828408
_cell_length_b     37.637846
_cell_length_c     17.521605
_cell_angle_alpha  89.984698
_cell_angle_beta   90.097321
_cell_angle_gamma 90.032501
loop_
_atom_site_label
_atom_site_type_symbol
_atom_site_fract_x
_atom_site_fract_y
_atom_site_fract_z
_atom_type_partial_charge
O0 O 0.34167 0.17076 0.14065 0.0
Cd1 Cd 0.35337 0.11962 0.10977 0.0
Cd2 Cd 0.35625 0.11908 0.26176 0.0
O3 O 0.32332 0.16277 0.25868 0.0
O4 O 0.33768 0.11915 1.00091 0.0
O5 O 0.31111 0.08766 0.09071 0.0
C6 C 0.31142 0.0995 1.02146 0.0
C7 C 0.35462 0.0695 0.34001 0.0
C8 C 0.32698 0.18262 0.20044 0.0
C9 C 0.42395 0.12256 0.1731 0.0
O10 O 0.4072 0.13102 0.23293 0.0
O11 O 0.40767 0.1103 0.11497 0.0
O12 O 0.36181 0.10042 0.36782 0.0
O13 O 0.34459 0.06734 0.26956 0.0
O14 O 0.17253 0.66662 0.98478 0.0
Cd15 Cd 0.12256 0.64941 1.01077 0.0
Cd16 Cd 0.12338 0.64779 0.85916 0.0
O17 O 0.16733 0.68041 0.86299 0.0
O18 O 0.11661 0.66903 0.11606 0.0
O19 O 0.0834 0.68551 1.01865 0.0
C20 C 0.09332 0.69054 0.08827 0.0
C21 C 0.06843 0.65594 0.80414 0.0
C22 C 0.18528 0.68014 0.92446 0.0
C23 C 0.12739 0.57825 0.94433 0.0
O24 O 0.1337 0.59545 0.88349 0.0
O25 O 0.11738 0.59425 1.00476 0.0
O26 O 0.09528 0.64788 0.762 0.0
O27 O 0.07381 0.66293 0.87543 0.0
O28 O 0.66755 0.84216 0.11857 0.0
Cd29 Cd 0.65434 0.89357 0.09208 0.0
Cd30 Cd 0.65799 0.89692 0.23696 0.0
O31 O 0.69677 0.85829 0.22101 0.0
O32 O 0.67506 0.90184 0.98855 0.0
O33 O 0.69551 0.92753 0.09366 0.0
C34 C 0.69941 0.9203 1.02197 0.0
C35 C 0.6587 0.94905 0.30777 0.0
C36 C 0.68959 0.83484 0.17091 0.0
C37 C 0.5872 0.89024 0.1668 0.0
O38 O 0.60685 0.88017 0.2214 0.0
O39 O 0.60076 0.90402 0.1071 0.0
O40 O 0.65778 0.91853 0.34148 0.0
O41 O 0.66322 0.94985 0.23466 0.0
O42 O 0.84521 0.34661 0.9521 0.0
Cd43 Cd 0.89413 0.36352 0.98592 0.0
Cd44 Cd 0.89631 0.36761 0.83117 0.0
O45 O 0.85373 0.33325 0.83107 0.0
O46 O 0.89633 0.34364 0.09191 0.0
O47 O 0.93266 0.32668 1.00055 0.0
C48 C 0.92034 0.32187 0.06857 0.0
C49 C 0.94529 0.36816 0.75181 0.0
C50 C 0.83408 0.33348 0.88992 0.0
C51 C 0.8876 0.43522 0.92258 0.0
O52 O 0.88336 0.41844 0.86056 0.0
O53 O 0.89763 0.41915 0.9831 0.0
O54 O 0.91417 0.37431 0.72475 0.0
O55 O 0.94814 0.3579 0.82197 0.0
O56 O 0.35689 0.34831 0.2322 0.0
Cd57 Cd 0.36878 0.40093 0.24804 0.0
Cd58 Cd 0.36965 0.3932 0.10017 0.0
O59 O 0.33598 0.35051 0.11489 0.0
O60 O 0.35376 0.40834 0.35614 0.0
O61 O 0.32574 0.43252 0.25805 0.0
C62 C 0.32659 0.42523 0.33014 0.0
C63 C 0.36639 0.44296 1.02347 0.0
C64 C 0.34059 0.3337 0.17712 0.0
C65 C 0.43852 0.39549 0.18056 0.0
O66 O 0.42106 0.38187 0.12611 0.0
O67 O 0.42268 0.41158 0.23473 0.0
O68 O 0.37152 0.41198 0.99371 0.0
O69 O 0.3589 0.44503 0.09538 0.0
O70 O 0.3492 0.66945 0.88414 0.0
Cd71 Cd 0.39977 0.65432 0.85822 0.0
Cd72 Cd 0.39874 0.65124 1.00915 0.0
O73 O 0.35474 0.6838 1.00542 0.0
O74 O 0.40434 0.67374 0.75272 0.0
O75 O 0.43705 0.69255 0.84916 0.0
C76 C 0.42657 0.69662 0.77945 0.0
C77 C 0.44948 0.65638 0.08241 0.0
C78 C 0.33645 0.6829 0.94445 0.0
C79 C 0.39566 0.58272 0.92093 0.0
O80 O 0.38834 0.59937 0.98179 0.0
O81 O 0.4065 0.59929 0.8619 0.0
O82 O 0.41973 0.64798 0.1136 0.0
O83 O 0.44974 0.66515 1.01105 0.0
O84 O 0.67957 0.67765 0.22028 0.0
Cd85 Cd 0.66204 0.62724 0.24428 0.0
Cd86 Cd 0.65797 0.62903 0.09437 0.0
O87 O 0.69661 0.66805 0.10279 0.0
O88 O 0.68093 0.62002 0.34977 0.0
O89 O 0.70083 0.59045 0.24938 0.0
C90 C 0.70434 0.59921 0.3204 0.0
C91 C 0.65605 0.57859 1.01808 0.0
C92 C 0.69703 0.68753 0.16214 0.0
C93 C 0.59105 0.63456 0.18119 0.0
O94 O 0.60793 0.64474 0.12268 0.0
O95 O 0.60731 0.62056 0.23752 0.0
O96 O 0.65244 0.60979 0.98843 0.0
O97 O 0.66432 0.57623 0.08956 0.0
O98 O 0.66948 0.35943 0.85822 0.0
Cd99 Cd 0.61721 0.3706 0.8405 0.0
Cd100 Cd 0.6243 0.37127 0.98962 0.0
O101 O 0.66672 0.33743 0.97455 0.0
O102 O 0.61083 0.35403 0.7327 0.0
O103 O 0.58611 0.32686 0.83105 0.0
C104 C 0.59389 0.32693 0.75921 0.0
C105 C 0.57618 0.36815 0.07004 0.0
C106 C 0.6837 0.34256 0.91293 0.0
C107 C 0.62233 0.44077 0.90881 0.0
O108 O 0.63523 0.42302 0.96365 0.0
O109 O 0.6068 0.42504 0.85347 0.0
O110 O 0.60745 0.37364 0.09734 0.0
O111 O 0.5729 0.36035 0.99846 0.0
O112 O 0.84181 0.6815 0.64024 0.0
Cd113 Cd 0.8592 0.63054 0.62132 0.0
Cd114 Cd 0.84969 0.63052 0.76342 0.0
O115 O 0.80979 0.66678 0.73973 0.0
O116 O 0.85336 0.62128 0.50949 0.0
O117 O 0.81746 0.59923 0.59662 0.0
C118 C 0.82394 0.60554 0.52542 0.0
C119 C 0.85018 0.57446 0.81927 0.0
C120 C 0.81746 0.68904 0.68757 0.0
C121 C 0.92209 0.63833 0.71373 0.0
O122 O 0.89972 0.6516 0.75934 0.0
O123 O 0.91129 0.62092 0.65577 0.0
O124 O 0.84782 0.60273 0.86092 0.0
O125 O 0.84781 0.57791 0.74592 0.0
O126 O 0.66712 0.17192 0.45462 0.0
Cd127 Cd 0.61692 0.15734 0.48483 0.0
Cd128 Cd 0.61529 0.15819 0.33573 0.0
O129 O 0.65594 0.19478 0.34154 0.0
O130 O 0.61462 0.1728 0.59399 0.0
O131 O 0.58375 0.19882 0.5023 0.0
C132 C 0.59489 0.1989 0.57212 0.0
C133 C 0.56332 0.15854 0.26637 0.0
C134 C 0.67693 0.19005 0.39743 0.0
C135 C 0.62316 0.08819 0.4129 0.0
O136 O 0.63135 0.10723 0.35593 0.0
O137 O 0.60973 0.10237 0.47245 0.0
O138 O 0.59338 0.15534 0.23225 0.0
O139 O 0.56305 0.16555 0.33865 0.0
O140 O 0.16362 0.34994 0.60638 0.0
Cd141 Cd 0.1541 0.40296 0.58964 0.0
Cd142 Cd 0.1507 0.39526 0.73883 0.0
O143 O 0.18192 0.35075 0.72583 0.0
O144 O 0.17241 0.41005 0.48379 0.0
O145 O 0.19765 0.4342 0.58532 0.0
C146 C 0.19865 0.42721 0.51311 0.0
C147 C 0.15441 0.44184 0.82438 0.0
C148 C 0.17768 0.33434 0.66303 0.0
C149 C 0.08317 0.39989 0.65088 0.0
O150 O 0.09928 0.38696 0.70796 0.0
O151 O 0.10027 0.41472 0.59681 0.0
O152 O 0.14706 0.41017 0.84783 0.0
O153 O 0.16386 0.44618 0.75406 0.0
O154 O 0.34596 0.84241 0.47246 0.0
Cd155 Cd 0.39532 0.85942 0.50381 0.0
Cd156 Cd 0.39749 0.86333 0.35298 0.0
O157 O 0.35527 0.8284 0.35213 0.0
O158 O 0.39941 0.83942 0.60888 0.0
O159 O 0.43441 0.82317 0.51426 0.0
C160 C 0.42335 0.81814 0.58321 0.0
C161 C 0.44857 0.86196 0.28007 0.0
C162 C 0.33529 0.8287 0.41048 0.0
C163 C 0.3889 0.93097 0.44272 0.0
O164 O 0.38378 0.91431 0.3808 0.0
O165 O 0.39933 0.91466 0.50248 0.0
O166 O 0.4184 0.86879 0.24896 0.0
O167 O 0.44934 0.85278 0.35117 0.0
O168 O 0.84406 0.84019 0.70923 0.0
Cd169 Cd 0.86084 0.89069 0.73415 0.0
Cd170 Cd 0.85836 0.89286 0.58624 0.0
O171 O 0.81795 0.856 0.60252 0.0
O172 O 0.85104 0.89743 0.84552 0.0
O173 O 0.81875 0.92229 0.75552 0.0
C174 C 0.82264 0.9143 0.82682 0.0
C175 C 0.85846 0.94539 0.51678 0.0
C176 C 0.82242 0.83336 0.65565 0.0
C177 C 0.92844 0.88432 0.65721 0.0
O178 O 0.90896 0.8745 0.60207 0.0
O179 O 0.91467 0.89857 0.71606 0.0
O180 O 0.85866 0.91506 0.48232 0.0
O181 O 0.85478 0.94587 0.59018 0.0
O182 O 0.84301 0.17125 0.35938 0.0
Cd183 Cd 0.89438 0.15625 0.34248 0.0
Cd184 Cd 0.88708 0.15367 0.49261 0.0
O185 O 0.84352 0.18634 0.48087 0.0
O186 O 0.90164 0.1747 0.2364 0.0
O187 O 0.93063 0.19576 0.33598 0.0
C188 C 0.92191 0.19893 0.26492 0.0
C189 C 0.93725 0.15721 0.56739 0.0
C190 C 0.82764 0.1846 0.41693 0.0
C191 C 0.88783 0.08479 0.40952 0.0
O192 O 0.87661 0.10191 0.46685 0.0
O193 O 0.90189 0.10103 0.35306 0.0
O194 O 0.90671 0.15191 0.59836 0.0
O195 O 0.93855 0.16511 0.49556 0.0
O196 O 0.16118 0.17201 0.70312 0.0
Cd197 Cd 0.14718 0.12142 0.73362 0.0
Cd198 Cd 0.14579 0.12072 0.58211 0.0
O199 O 0.18113 0.16237 0.58699 0.0
O200 O 0.16186 0.12046 0.84311 0.0
O201 O 0.18842 0.08843 0.75422 0.0
C202 C 0.1879 0.10036 0.82339 0.0
C203 C 0.14774 0.07064 0.50573 0.0
C204 C 0.17778 0.18262 0.64458 0.0
C205 C 0.07723 0.12622 0.66654 0.0
O206 O 0.09483 0.13457 0.60768 0.0
O207 O 0.0927 0.11343 0.72521 0.0
O208 O 0.14173 0.10147 0.47629 0.0
O209 O 0.15578 0.06867 0.57738 0.0
O210 O 0.16971 0.84471 0.36552 0.0
Cd211 Cd 0.11831 0.85884 0.34481 0.0
Cd212 Cd 0.12267 0.86383 0.49308 0.0
O213 O 0.16718 0.83194 0.48809 0.0
O214 O 0.11085 0.83754 0.24205 0.0
O215 O 0.08141 0.82015 0.34418 0.0
C216 C 0.08981 0.8149 0.27369 0.0
C217 C 0.07114 0.85859 0.56284 0.0
C218 C 0.18408 0.83233 0.42536 0.0
C219 C 0.12213 0.93122 0.40253 0.0
O220 O 0.1318 0.91556 0.46314 0.0
O221 O 0.11012 0.91361 0.34598 0.0
O222 O 0.10045 0.86709 0.59615 0.0
O223 O 0.07193 0.84931 0.49183 0.0
C224 C 0.40815 0.99363 0.42571 0.0
C225 C 0.38071 0.96941 0.44265 0.0
C226 C 0.33623 0.01491 0.41233 0.0
C227 C 0.36352 0.03691 0.38352 0.0
N228 N 0.42561 0.04768 0.3605 0.0
N229 N 0.31887 0.9563 0.45725 0.0
C230 C 0.39963 0.02675 0.39102 0.0
C231 C 0.34476 0.98012 0.43868 0.0
N232 N 0.44233 0.98449 0.44165 0.0
N233 N 0.30235 0.02748 0.41464 0.0
H234 H 0.32454 0.93145 0.4808 0.0
H235 H 0.29206 0.9605 0.44752 0.0
H236 H 0.29558 0.05281 0.39528 0.0
H237 H 0.28147 0.01415 0.44054 0.0
H238 H 0.46363 1.00186 0.43682 0.0
H239 H 0.44899 0.96017 0.46639 0.0
H240 H 0.45192 0.03992 0.35587 0.0
H241 H 0.42068 0.07222 0.33507 0.0
C242 C 0.01844 0.66911 0.71182 0.0
C243 C 0.03178 0.65048 0.77611 0.0
C244 C 0.97332 0.62501 0.80003 0.0
C245 C 0.96026 0.64136 0.73255 0.0
N246 N 0.97114 0.67582 0.61877 0.0
N247 N 0.02457 0.60229 0.8658 0.0
C248 C 0.98319 0.66219 0.68627 0.0
C249 C 0.00998 0.62601 0.81568 0.0
N250 N 0.03879 0.69451 0.67758 0.0
N251 N 0.95083 0.60906 0.85057 0.0
H252 H 0.05165 0.60085 0.87646 0.0
H253 H 0.01039 0.58135 0.88984 0.0
H254 H 0.92371 0.60687 0.84198 0.0
H255 H 0.95877 0.60056 0.90456 0.0
H256 H 0.02949 0.71164 0.63546 0.0
H257 H 0.06448 0.70031 0.69539 0.0
H258 H 0.98744 0.68802 0.57875 0.0
H259 H 0.94507 0.67298 0.60033 0.0
C260 C 0.67713 1.0073 0.36607 0.0
C261 C 0.65021 0.98218 0.35006 0.0
C262 C 0.60488 0.02467 0.39274 0.0
C263 C 0.63185 0.04981 0.40816 0.0
N264 N 0.69348 0.06287 0.42728 0.0
N265 N 0.58921 0.96384 0.36144 0.0
C266 C 0.66798 0.04025 0.40071 0.0
C267 C 0.61434 0.98978 0.36847 0.0
N268 N 0.71125 1.00012 0.34573 0.0
N269 N 0.57024 0.03489 0.39638 0.0
H270 H 0.59464 0.93852 0.34045 0.0
H271 H 0.56341 0.9665 0.38118 0.0
H272 H 0.56247 0.05982 0.4162 0.0
H273 H 0.54932 0.01959 0.37604 0.0
H274 H 0.73131 0.01906 0.34628 0.0
H275 H 0.71911 0.97559 0.32385 0.0
H276 H 0.72023 0.05648 0.42977 0.0
H277 H 0.68737 0.08701 0.45347 0.0
C278 C 0.03029 0.36163 0.63645 0.0
C279 C 0.04429 0.39599 0.6498 0.0
C280 C 0.98827 0.41422 0.70739 0.0
C281 C 0.97717 0.37811 0.70767 0.0
N282 N 0.98654 0.31722 0.6712 0.0
N283 N 0.03734 0.45556 0.69667 0.0
C284 C 0.99767 0.35175 0.67084 0.0
C285 C 0.02317 0.42272 0.68339 0.0
N286 N 0.04855 0.3386 0.59103 0.0
N287 N 0.9656 0.44029 0.73073 0.0
H288 H 0.06229 0.46286 0.67669 0.0
H289 H 0.02523 0.47486 0.7302 0.0
H290 H 0.94018 0.43506 0.75073 0.0
H291 H 0.97084 0.46728 0.72438 0.0
H292 H 0.03887 0.31395 0.57395 0.0
H293 H 0.07226 0.3458 0.56479 0.0
H294 H 1.00213 0.29607 0.65317 0.0
H295 H 0.96212 0.30951 0.69338 0.0
C296 C 0.40991 0.48572 0.96683 0.0
C297 C 0.37405 0.4757 0.97926 0.0
C298 C 0.35425 0.53156 0.92143 0.0
C299 C 0.38967 0.54384 0.92123 0.0
N300 N 0.45164 0.53346 0.94111 0.0
N301 N 0.31188 0.48826 0.96842 0.0
C302 C 0.41773 0.52085 0.9416 0.0
C303 C 0.34611 0.49823 0.95564 0.0
N304 N 0.43647 0.46191 0.9807 0.0
N305 N 0.32855 0.55203 0.88866 0.0
H306 H 0.30509 0.46334 0.99001 0.0
H307 H 0.29037 0.50518 0.96136 0.0
H308 H 0.33425 0.57631 0.86256 0.0
H309 H 0.30249 0.54381 0.88129 0.0
H310 H 0.46275 0.4662 0.96579 0.0
H311 H 0.4321 0.4366 1.00289 0.0
H312 H 0.47311 0.51998 0.96439 0.0
H313 H 0.4581 0.55851 0.91973 0.0
C314 C 0.50202 0.6788 0.15583 0.0
C315 C 0.48315 0.65001 0.12347 0.0
C316 C 0.53108 0.60911 0.15894 0.0
C317 C 0.55213 0.63871 0.1797 0.0
N318 N 0.55839 0.70154 0.20127 0.0
N319 N 0.47888 0.58761 0.09279 0.0
C320 C 0.53757 0.67349 0.18022 0.0
C321 C 0.49718 0.61496 0.12588 0.0
N322 N 0.48577 0.711 0.1637 0.0
N323 N 0.54389 0.57551 0.16965 0.0
H324 H 0.45365 0.59057 0.06957 0.0
H325 H 0.48929 0.56235 0.08418 0.0
H326 H 0.56888 0.57056 0.19247 0.0
H327 H 0.52895 0.55256 0.16205 0.0
H328 H 0.49667 0.73221 0.19367 0.0
H329 H 0.4599 0.71557 0.14536 0.0
H330 H 0.55121 0.72803 0.19423 0.0
H331 H 0.58375 0.69814 0.22373 0.0
C332 C 0.66225 0.49302 0.90214 0.0
C333 C 0.62742 0.47982 0.91151 0.0
C334 C 0.60982 0.53585 0.97203 0.0
C335 C 0.64598 0.54637 0.97421 0.0
N336 N 0.70675 0.53614 0.94048 0.0
N337 N 0.56728 0.48824 0.95114 0.0
C338 C 0.67222 0.52549 0.93803 0.0
C339 C 0.60076 0.50146 0.94386 0.0
N340 N 0.68563 0.47414 0.85877 0.0
N341 N 0.58431 0.55864 0.99772 0.0
H342 H 0.5598 0.4638 0.92803 0.0
H343 H 0.54724 0.50057 0.98191 0.0
H344 H 0.59006 0.58354 1.0207 0.0
H345 H 0.55731 0.55411 0.99194 0.0
H346 H 0.71081 0.48304 0.84448 0.0
H347 H 0.67844 0.45058 0.83133 0.0
H348 H 0.72778 0.52046 0.9225 0.0
H349 H 0.71462 0.56033 0.96415 0.0
C350 C 0.49834 0.41961 0.14882 0.0
C351 C 0.47742 0.39154 0.17797 0.0
C352 C 0.52417 0.3485 0.14871 0.0
C353 C 0.54446 0.37627 0.11632 0.0
N354 N 0.5556 0.43917 0.10298 0.0
N355 N 0.47354 0.33203 0.22645 0.0
C356 C 0.53317 0.4122 0.12271 0.0
C357 C 0.49157 0.35683 0.18493 0.0
N358 N 0.48406 0.45279 0.1415 0.0
N359 N 0.53557 0.31417 0.14258 0.0
H360 H 0.45006 0.33817 0.25477 0.0
H361 H 0.48324 0.30679 0.23874 0.0
H362 H 0.56002 0.30752 0.11907 0.0
H363 H 0.52024 0.29225 0.15729 0.0
H364 H 0.49603 0.47339 0.11139 0.0
H365 H 0.45913 0.45927 0.16269 0.0
H366 H 0.55035 0.46584 0.11389 0.0
H367 H 0.58084 0.43484 0.08109 0.0
C368 C 0.84682 0.48754 0.93351 0.0
C369 C 0.88121 0.47404 0.91948 0.0
C370 C 0.89459 0.5254 0.83903 0.0
C371 C 0.86045 0.53978 0.85425 0.0
N372 N 0.80651 0.5377 0.92751 0.0
N373 N 0.94074 0.48467 0.87913 0.0
C374 C 0.83747 0.52202 0.90592 0.0
C375 C 0.90604 0.4947 0.87913 0.0
N376 N 0.82255 0.46656 0.96952 0.0
N377 N 0.91575 0.54006 0.78428 0.0
H378 H 0.94954 0.46213 0.90829 0.0
H379 H 0.96099 0.50043 0.85726 0.0
H380 H 0.90902 0.56261 0.75323 0.0
H381 H 0.93902 0.52822 0.76531 0.0
H382 H 0.79577 0.47275 0.97303 0.0
H383 H 0.82913 0.4419 0.99285 0.0
H384 H 0.79071 0.52798 0.97143 0.0
H385 H 0.79768 0.56172 0.90473 0.0
C386 C 0.50625 0.17609 0.2031 0.0
C387 C 0.53005 0.14912 0.22635 0.0
C388 C 0.48644 0.10311 0.19334 0.0
C389 C 0.46232 0.13017 0.17252 0.0
N390 N 0.45094 0.19112 0.1399 0.0
N391 N 0.54615 0.08701 0.23069 0.0
C392 C 0.47298 0.1663 0.17133 0.0
C393 C 0.5213 0.11259 0.21651 0.0
N394 N 0.51503 0.21097 0.21396 0.0
N395 N 0.47519 0.06858 0.19535 0.0
H396 H 0.57142 0.09269 0.25118 0.0
H397 H 0.54272 0.06025 0.21771 0.0
H398 H 0.4503 0.06086 0.17563 0.0
H399 H 0.48963 0.04784 0.21925 0.0
H400 H 0.49739 0.23192 0.20686 0.0
H401 H 0.53978 0.21894 0.23403 0.0
H402 H 0.45784 0.21759 0.13149 0.0
H403 H 0.42653 0.18436 0.11604 0.0
C404 C 0.10466 0.51678 0.92283 0.0
C405 C 0.13321 0.53934 0.94207 0.0
C406 C 0.17587 0.49452 0.89947 0.0
C407 C 0.1474 0.47312 0.87367 0.0
N408 N 0.0847 0.46049 0.86994 0.0
N409 N 0.19468 0.54655 0.97137 0.0
C410 C 0.11173 0.48296 0.88937 0.0
C411 C 0.16848 0.52699 0.93785 0.0
N412 N 0.07092 0.52869 0.93368 0.0
N413 N 0.20986 0.48431 0.8848 0.0
H414 H 0.1893 0.57001 1.00096 0.0
H415 H 0.22083 0.53826 0.97589 0.0
H416 H 0.21611 0.45982 0.86037 0.0
H417 H 0.23176 0.50052 0.89365 0.0
H418 H 0.04828 0.51592 0.91415 0.0
H419 H 0.06561 0.55214 0.96324 0.0
H420 H 0.05834 0.46459 0.88406 0.0
H421 H 0.08848 0.43658 0.8412 0.0
C422 C 0.49911 0.84418 0.19534 0.0
C423 C 0.48174 0.8705 0.23916 0.0
C424 C 0.52884 0.9133 0.20945 0.0
C425 C 0.5486 0.8855 0.17582 0.0
N426 N 0.55366 0.82453 0.13583 0.0
N427 N 0.47927 0.93017 0.28943 0.0
C428 C 0.53381 0.85103 0.16751 0.0
C429 C 0.49617 0.90527 0.24582 0.0
N430 N 0.48227 0.81285 0.18 0.0
N431 N 0.54159 0.94728 0.20684 0.0
H432 H 0.45475 0.92573 0.31485 0.0
H433 H 0.49022 0.9546 0.30416 0.0
H434 H 0.56562 0.95366 0.18105 0.0
H435 H 0.52739 0.96948 0.22441 0.0
H436 H 0.49181 0.79406 0.14165 0.0
H437 H 0.45719 0.80687 0.20117 0.0
H438 H 0.54644 0.79784 0.13651 0.0
H439 H 0.57837 0.82921 0.11133 0.0
C440 C 0.84155 0.99756 0.43407 0.0
C441 C 0.86772 0.97839 0.47482 0.0
C442 C 0.91108 0.02571 0.45051 0.0
C443 C 0.88446 0.04558 0.41282 0.0
N444 N 0.82785 0.04764 0.35111 0.0
N445 N 0.92927 0.96935 0.50546 0.0
C446 C 0.8508 0.03037 0.39857 0.0
C447 C 0.90318 0.99091 0.47753 0.0
N448 N 0.80762 0.9851 0.43217 0.0
N449 N 0.94333 0.04095 0.46366 0.0
H450 H 0.92435 0.94384 0.52622 0.0
H451 H 0.95608 0.97542 0.50261 0.0
H452 H 0.95028 0.06568 0.44127 0.0
H453 H 0.9626 0.02997 0.49897 0.0
H454 H 0.78636 0.99956 0.41088 0.0
H455 H 0.80033 0.96076 0.45597 0.0
H456 H 0.80369 0.03723 0.33349 0.0
H457 H 0.83466 0.07133 0.3238 0.0
C458 C 0.97928 0.11408 0.62874 0.0
C459 C 0.97036 0.14988 0.61031 0.0
C460 C 0.02802 0.16974 0.65819 0.0
C461 C 0.03879 0.13377 0.66499 0.0
N462 N 0.02572 0.07138 0.65692 0.0
N463 N 0.98556 0.21197 0.60727 0.0
C464 C 0.01445 0.10582 0.65205 0.0
C465 C 0.99445 0.17783 0.62576 0.0
N466 N 0.95444 0.08783 0.62215 0.0
N467 N 0.05014 0.19603 0.68325 0.0
H468 H 0.96046 0.21901 0.58768 0.0
H469 H 1.0034 0.23301 0.60774 0.0
H470 H 0.07466 0.19057 0.70805 0.0
H471 H 0.04318 0.22275 0.68578 0.0
H472 H 0.95799 0.06214 0.64272 0.0
H473 H 0.92918 0.09199 0.6002 0.0
H474 H 0.01103 0.04966 0.63827 0.0
H475 H 0.05087 0.06452 0.67642 0.0
C476 C 0.15937 0.98559 0.39154 0.0
C477 C 0.12537 0.97036 0.40123 0.0
C478 C 0.10451 0.02402 0.46553 0.0
C479 C 0.13941 0.03803 0.46208 0.0
N480 N 0.19789 0.03693 0.40861 0.0
N481 N 0.06355 0.97743 0.42669 0.0
C482 C 0.16617 0.02039 0.42022 0.0
C483 C 0.09718 0.99061 0.43103 0.0
N484 N 0.18525 0.96599 0.35726 0.0
N485 N 0.07888 0.04196 0.50482 0.0
H486 H 0.05797 0.95294 0.40147 0.0
H487 H 0.04105 0.9916 0.44196 0.0
H488 H 0.08291 0.06705 0.52857 0.0
H489 H 0.05403 0.03158 0.51699 0.0
H490 H 0.21168 0.97346 0.3544 0.0
H491 H 0.17995 0.94146 0.33184 0.0
H492 H 0.218 0.02683 0.37455 0.0
H493 H 0.20341 0.06223 0.42988 0.0
C494 C 0.9902 0.90704 0.63917 0.0
C495 C 0.96707 0.87795 0.65132 0.0
C496 C 0.01535 0.83611 0.62343 0.0
C497 C 0.03679 0.8651 0.60095 0.0
N498 N 0.0448 0.92823 0.58284 0.0
N499 N 0.95693 0.81482 0.6586 0.0
C500 C 0.02451 0.90065 0.60887 0.0
C501 C 0.97961 0.84244 0.64517 0.0
N502 N 0.97917 0.9408 0.65543 0.0
N503 N 0.02948 0.80268 0.62501 0.0
H504 H 0.9315 0.81851 0.68018 0.0
H505 H 0.96268 0.7884 0.64638 0.0
H506 H 0.05556 0.79747 0.60916 0.0
H507 H 0.01656 0.78058 0.64716 0.0
H508 H 0.99581 0.96282 0.65555 0.0
H509 H 0.95379 0.94664 0.6747 0.0
H510 H 0.03579 0.95426 0.57801 0.0
H511 H 0.07018 0.92494 0.56092 0.0
C512 C 0.30082 0.27948 0.17553 0.0
C513 C 0.33498 0.29487 0.18158 0.0
C514 C 0.35926 0.2381 0.22371 0.0
C515 C 0.32642 0.22156 0.20846 0.0
N516 N 0.26658 0.22506 0.16244 0.0
N517 N 0.39816 0.2863 0.19041 0.0
C518 C 0.29723 0.24185 0.18233 0.0
C519 C 0.36463 0.27347 0.2 0.0
N520 N 0.27196 0.30072 0.1653 0.0
N521 N 0.38557 0.2198 0.26006 0.0
H522 H 0.40335 0.31139 0.16775 0.0
H523 H 0.4207 0.27061 0.19609 0.0
H524 H 0.38241 0.19378 0.27926 0.0
H525 H 0.40902 0.23166 0.27825 0.0
H526 H 0.24608 0.29135 0.16779 0.0
H527 H 0.27391 0.32824 0.15953 0.0
H528 H 0.24565 0.23779 0.13514 0.0
H529 H 0.26298 0.19778 0.17001 0.0
C530 C 0.2415 0.71656 0.92922 0.0
C531 C 0.22412 0.68333 0.92188 0.0
C532 C 0.27918 0.65217 0.94876 0.0
C533 C 0.29757 0.68492 0.94811 0.0
N534 N 0.29765 0.7483 0.93033 0.0
N535 N 0.22814 0.61985 0.9047 0.0
C536 C 0.27915 0.71728 0.93625 0.0
C537 C 0.24354 0.65126 0.92552 0.0
N538 N 0.22203 0.74708 0.93084 0.0
N539 N 0.29565 0.62189 0.97315 0.0
H540 H 0.20207 0.6181 0.88562 0.0
H541 H 0.24235 0.59632 0.89837 0.0
H542 H 0.32175 0.62157 0.99232 0.0
H543 H 0.28229 0.59802 0.98211 0.0
H544 H 0.23269 0.7719 0.94348 0.0
H545 H 0.19466 0.74709 0.92323 0.0
H546 H 0.28624 0.77233 0.91423 0.0
H547 H 0.32501 0.74943 0.938 0.0
C548 C 0.70691 0.77798 0.24009 0.0
C549 C 0.70539 0.79854 0.172 0.0
C550 C 0.71687 0.7447 0.09584 0.0
C551 C 0.71284 0.72416 0.16314 0.0
N552 N 0.72589 0.72264 0.29739 0.0
N553 N 0.72244 0.80347 1.03968 0.0
C554 C 0.71551 0.74145 0.23467 0.0
C555 C 0.71485 0.78247 0.10117 0.0
N556 N 0.69725 0.79186 0.30904 0.0
N557 N 0.72228 0.72838 1.02732 0.0
H558 H 0.72165 0.83109 1.04231 0.0
H559 H 0.73242 0.79397 0.98829 0.0
H560 H 0.73098 0.70221 1.02324 0.0
H561 H 0.71941 0.74103 0.97483 0.0
H562 H 0.69408 0.77627 0.35773 0.0
H563 H 0.68959 0.81805 0.3175 0.0
H564 H 0.73116 0.73442 0.35004 0.0
H565 H 0.73323 0.696 0.29356 0.0
C566 C 0.7383 0.30384 0.90728 0.0
C567 C 0.72239 0.33796 0.9099 0.0
C568 C 0.77826 0.3656 0.87454 0.0
C569 C 0.79537 0.33233 0.88145 0.0
N570 N 0.79309 0.26996 0.91069 0.0
N571 N 0.72937 0.40169 0.91594 0.0
C572 C 0.77579 0.30134 0.89951 0.0
C573 C 0.74301 0.36896 0.89915 0.0
N574 N 0.71764 0.27412 0.91037 0.0
N575 N 0.79584 0.39415 0.84475 0.0
H576 H 0.70402 0.40519 0.93799 0.0
H577 H 0.7445 0.42483 0.9164 0.0
H578 H 0.82162 0.39244 0.82428 0.0
H579 H 0.78359 0.4183 0.83262 0.0
H580 H 0.72732 0.24857 0.90129 0.0
H581 H 0.69028 0.27533 0.91735 0.0
H582 H 0.78086 0.24718 0.93172 0.0
H583 H 0.82027 0.2674 0.90206 0.0
C584 C 0.79665 0.73859 0.60601 0.0
C585 C 0.80032 0.72461 0.68068 0.0
C586 C 0.79448 0.78492 0.73059 0.0
C587 C 0.80377 0.79842 0.65773 0.0
N588 N 0.80861 0.78781 0.5215 0.0
N589 N 0.79608 0.73483 0.81694 0.0
C590 C 0.80231 0.77544 0.59345 0.0
C591 C 0.79623 0.74771 0.74413 0.0
N592 N 0.78827 0.71621 0.54742 0.0
N593 N 0.78422 0.80796 0.78647 0.0
H594 H 0.79399 0.70798 0.82998 0.0
H595 H 0.79845 0.75104 0.86487 0.0
H596 H 0.78198 0.83522 0.77627 0.0
H597 H 0.77441 0.79981 0.83918 0.0
H598 H 0.78247 0.72496 0.49237 0.0
H599 H 0.78337 0.68924 0.55681 0.0
H600 H 0.81275 0.77109 0.47499 0.0
H601 H 0.81069 0.81459 0.50793 0.0
C602 C 0.77151 0.22123 0.42633 0.0
C603 C 0.78878 0.18843 0.41212 0.0
C604 C 0.73368 0.1631 0.36384 0.0
C605 C 0.71536 0.1939 0.38731 0.0
N606 N 0.71547 0.25153 0.44649 0.0
N607 N 0.78374 0.12532 0.38808 0.0
C608 C 0.7339 0.22293 0.42002 0.0
C609 C 0.76917 0.15858 0.38632 0.0
N610 N 0.79097 0.25065 0.44415 0.0
N611 N 0.7169 0.13772 0.3213 0.0
H612 H 0.80891 0.12026 0.40981 0.0
H613 H 0.76934 0.10229 0.37687 0.0
H614 H 0.69075 0.14027 0.30325 0.0
H615 H 0.73001 0.1161 0.29729 0.0
H616 H 0.78021 0.27603 0.44822 0.0
H617 H 0.81842 0.24994 0.44982 0.0
H618 H 0.72688 0.27184 0.47853 0.0
H619 H 0.68818 0.25394 0.43905 0.0
C620 C 0.21244 0.27691 0.66654 0.0
C621 C 0.17981 0.29521 0.65982 0.0
C622 C 0.15041 0.24052 0.62038 0.0
C623 C 0.18165 0.2213 0.63622 0.0
N624 N 0.24171 0.21977 0.68151 0.0
N625 N 0.11609 0.29233 0.65125 0.0
C626 C 0.21264 0.23907 0.66121 0.0
C627 C 0.14832 0.27644 0.64238 0.0
N628 N 0.24306 0.29561 0.67617 0.0
N629 N 0.12253 0.22432 0.58484 0.0
H630 H 0.11318 0.31813 0.67196 0.0
H631 H 0.09225 0.27857 0.64688 0.0
H632 H 0.12324 0.19789 0.5671 0.0
H633 H 0.10027 0.2381 0.56597 0.0
H634 H 0.26803 0.28401 0.67415 0.0
H635 H 0.2435 0.32324 0.68112 0.0
H636 H 0.26381 0.23079 0.70796 0.0
H637 H 0.24279 0.19221 0.67517 0.0
C638 C 0.24243 0.86054 0.4079 0.0
C639 C 0.22302 0.8293 0.42462 0.0
C640 C 0.27814 0.79496 0.42558 0.0
C641 C 0.29665 0.82578 0.40148 0.0
N642 N 0.29505 0.88571 0.35235 0.0
N643 N 0.22109 0.76584 0.44111 0.0
C644 C 0.27824 0.85776 0.38657 0.0
C645 C 0.24047 0.79609 0.43114 0.0
N646 N 0.22708 0.8932 0.41627 0.0
N647 N 0.29663 0.76509 0.44449 0.0
H648 H 0.19364 0.76624 0.44708 0.0
H649 H 0.23189 0.74043 0.43896 0.0
H650 H 0.32399 0.76332 0.43762 0.0
H651 H 0.28519 0.74291 0.47 0.0
H652 H 0.24121 0.91691 0.41286 0.0
H653 H 0.2012 0.89657 0.43535 0.0
H654 H 0.28184 0.90839 0.33358 0.0
H655 H 0.32145 0.88482 0.3356 0.0
C656 C 0.23648 0.13076 0.89453 0.0
C657 C 0.21986 0.09843 0.87314 0.0
C658 C 0.26515 0.06532 0.94525 0.0
C659 C 0.2792 0.09798 0.97249 0.0
N660 N 0.27146 0.16129 0.98908 0.0
N661 N 0.2159 0.03478 0.88388 0.0
C662 C 0.26289 0.13053 0.95176 0.0
C663 C 0.23356 0.06555 0.89994 0.0
N664 N 0.22832 0.16174 0.85764 0.0
N665 N 0.28251 0.03435 0.96083 0.0
H666 H 0.19302 0.03423 0.85058 0.0
H667 H 0.2224 0.01031 0.90775 0.0
H668 H 0.30535 0.03347 0.99422 0.0
H669 H 0.27578 0.01002 0.93656 0.0
H670 H 0.24243 0.18524 0.86571 0.0
H671 H 0.2103 0.16317 0.81271 0.0
H672 H 0.2576 0.18496 0.98147 0.0
H673 H 0.28959 0.16236 1.03387 0.0
C674 C 0.07292 0.78602 0.15081 0.0
C675 C 0.07878 0.78249 0.2303 0.0
C676 C 0.07688 0.7177 0.21378 0.0
C677 C 0.08134 0.72185 0.13397 0.0
N678 N 0.08755 0.76279 1.027 0.0
N679 N 0.08914 0.74259 0.33758 0.0
C680 C 0.07968 0.75668 0.10198 0.0
C681 C 0.08079 0.7477 0.26248 0.0
N682 N 0.06141 0.81764 0.12182 0.0
N683 N 0.06905 0.68503 0.24314 0.0
H684 H 0.09324 0.76289 0.37669 0.0
H685 H 0.09497 0.71761 0.35999 0.0
H686 H 0.06491 0.66286 0.20845 0.0
H687 H 0.0626 0.68105 0.30034 0.0
H688 H 0.05401 0.82084 0.06487 0.0
H689 H 0.05536 0.83925 0.15681 0.0
H690 H 0.09024 0.78832 1.00463 0.0
H691 H 0.095 0.74323 0.98848 0.0
C692 C 0.76182 0.90178 0.99969 0.0
C693 C 0.73402 0.92568 0.98292 0.0
C694 C 0.76968 0.9493 0.87717 0.0
C695 C 0.79343 0.92001 0.8838 0.0
N696 N 0.80346 0.86206 0.94226 0.0
N697 N 0.71052 0.97172 0.90234 0.0
C698 C 0.78755 0.89468 0.94313 0.0
C699 C 0.73762 0.94934 0.92046 0.0
N700 N 0.76332 0.88479 0.06846 0.0
N701 N 0.77818 0.97763 0.83212 0.0
H702 H 0.68767 0.97352 0.93542 0.0
H703 H 0.71006 0.98687 0.85255 0.0
H704 H 0.80241 0.97978 0.80427 0.0
H705 H 0.76306 1.00073 0.82982 0.0
H706 H 0.78493 0.86933 0.08483 0.0
H707 H 0.74492 0.88881 0.1117 0.0
H708 H 0.79715 0.84212 0.98131 0.0
H709 H 0.81857 0.85258 0.89715 0.0
C710 C 0.93808 0.22655 0.13897 0.0
C711 C 0.93131 0.23102 0.21802 0.0
C712 C 0.9331 0.29572 0.19769 0.0
C713 C 0.93066 0.29077 0.11761 0.0
N714 N 0.92631 0.24881 1.01246 0.0
N715 N 0.91721 0.27216 0.32075 0.0
C716 C 0.93256 0.25552 0.08792 0.0
C717 C 0.92803 0.26623 0.24748 0.0
N718 N 0.94976 0.19454 0.11245 0.0
N719 N 0.94015 0.3287 0.22642 0.0
H720 H 0.91084 0.25221 0.35931 0.0
H721 H 0.91093 0.29742 0.34104 0.0
H722 H 0.94514 0.35054 0.19131 0.0
H723 H 0.94516 0.33323 0.28414 0.0
H724 H 0.95794 0.19067 0.05627 0.0
H725 H 0.95519 0.17324 0.14879 0.0
H726 H 0.92367 0.22314 0.99087 0.0
H727 H 0.92021 0.26825 0.97244 0.0
C728 C 0.25113 0.39664 0.45874 0.0
C729 C 0.23258 0.4289 0.47035 0.0
C730 C 0.27781 0.46058 0.39546 0.0
C731 C 0.29398 0.42752 0.37761 0.0
N732 N 0.28985 0.36336 0.37658 0.0
N733 N 0.22619 0.49143 0.44602 0.0
C734 C 0.27896 0.39537 0.40503 0.0
C735 C 0.24538 0.46096 0.43778 0.0
N736 N 0.24278 0.36716 0.50066 0.0
N737 N 0.29387 0.49144 0.37362 0.0
H738 H 0.20304 0.49242 0.47826 0.0
H739 H 0.23199 0.51503 0.41769 0.0
H740 H 0.31731 0.49178 0.34231 0.0
H741 H 0.28541 0.51652 0.39068 0.0
H742 H 0.25795 0.34406 0.50034 0.0
H743 H 0.22304 0.36702 0.54201 0.0
H744 H 0.27699 0.33949 0.38835 0.0
H745 H 0.30908 0.36088 0.33451 0.0
C746 C 0.43937 0.79261 0.71062 0.0
C747 C 0.43504 0.78733 0.63106 0.0
C748 C 0.44183 0.72317 0.6526 0.0
C749 C 0.43662 0.72814 0.732 0.0
N750 N 0.42637 0.76976 0.83589 0.0
N751 N 0.42841 0.74522 0.52672 0.0
C752 C 0.43499 0.76344 0.76141 0.0
C753 C 0.43596 0.75202 0.6016 0.0
N754 N 0.44741 0.82565 0.73779 0.0
N755 N 0.45216 0.69074 0.62579 0.0
H756 H 0.42231 0.76466 0.48672 0.0
H757 H 0.4249 0.71955 0.50569 0.0
H758 H 0.4576 0.66945 0.66216 0.0
H759 H 0.45921 0.68639 0.56907 0.0
H760 H 0.4538 0.83043 0.79478 0.0
H761 H 0.45172 0.84727 0.70163 0.0
H762 H 0.42103 0.79516 0.85659 0.0
H763 H 0.42113 0.75002 0.87572 0.0
C764 C 0.76631 0.61764 0.34676 0.0
C765 C 0.73833 0.59369 0.36175 0.0
C766 C 0.77227 0.57031 0.47045 0.0
C767 C 0.79628 0.59943 0.46502 0.0
N768 N 0.80838 0.65673 0.40543 0.0
N769 N 0.71349 0.54787 0.4408 0.0
C770 C 0.79165 0.6245 0.40458 0.0
C771 C 0.74096 0.57012 0.42453 0.0
N772 N 0.76819 0.63498 0.2784 0.0
N773 N 0.77981 0.54233 0.51731 0.0
H774 H 0.69114 0.54608 0.40598 0.0
H775 H 0.71218 0.53284 0.49067 0.0
H776 H 0.80347 0.54044 0.54769 0.0
H777 H 0.76459 0.51927 0.51912 0.0
H778 H 0.79002 0.65023 0.26265 0.0
H779 H 0.74979 0.63144 0.23475 0.0
H780 H 0.80281 0.67671 0.36597 0.0
H781 H 0.8237 0.66598 0.4505 0.0
C782 C 0.56023 0.24586 0.64575 0.0
C783 C 0.59295 0.23176 0.61981 0.0
C784 C 0.62485 0.277 0.69341 0.0
C785 C 0.59241 0.29348 0.71338 0.0
N786 N 0.52902 0.29566 0.70399 0.0
N787 N 0.65588 0.24011 0.60338 0.0
C788 C 0.55993 0.27842 0.68844 0.0
C789 C 0.62508 0.24907 0.63932 0.0
N790 N 0.5297 0.22768 0.63131 0.0
N791 N 0.6556 0.28702 0.72849 0.0
H792 H 0.6574 0.22074 0.56108 0.0
H793 H 0.6792 0.25462 0.60937 0.0
H794 H 0.65672 0.30665 0.77022 0.0
H795 H 0.67927 0.27317 0.72237 0.0
H796 H 0.50532 0.23448 0.65454 0.0
H797 H 0.52924 0.20414 0.59987 0.0
H798 H 0.50466 0.2882 0.68139 0.0
H799 H 0.52816 0.31901 0.73602 0.0
loop_
_geom_bond_atom_site_label_1
_geom_bond_atom_site_label_2
_geom_bond_distance
_geom_bond_site_symmetry_2
_ccdc_geom_bond_type
O0 Cd1 2.223 . S
O0 C8 1.315 . S
Cd1 O0 2.223 . S
Cd1 O4 2.297 1_554 S
Cd1 O5 2.439 . S
Cd1 O11 2.240 . S
Cd2 O3 2.240 . S
Cd2 O10 2.223 . S
Cd2 O12 2.297 . S
Cd2 O13 2.439 . S
O3 Cd2 2.240 . S
O3 C8 1.279 . S
O4 Cd1 2.297 1_556 S
O4 C6 1.247 . S
O5 Cd1 2.439 . S
O5 C6 1.208 1_554 S
C6 O4 1.247 . S
C6 O5 1.208 1_556 S
C7 O12 1.247 . S
C7 O13 1.208 . S
C8 O0 1.315 . S
C8 O3 1.279 . S
C9 O10 1.315 . S
C9 O11 1.279 . S
O10 Cd2 2.223 . S
O10 C9 1.315 . S
O11 Cd1 2.240 . S
O11 C9 1.279 . S
O12 Cd2 2.297 . S
O12 C7 1.247 . S
O13 Cd2 2.439 . S
O13 C7 1.208 . S
O14 Cd15 2.223 . S
O14 C22 1.315 . S
Cd15 O14 2.223 . S
Cd15 O18 2.297 1_556 S
Cd15 O19 2.439 . S
Cd15 O25 2.240 . S
Cd16 O17 2.240 . S
Cd16 O24 2.223 . S
Cd16 O26 2.297 . S
Cd16 O27 2.439 . S
O17 Cd16 2.240 . S
O17 C22 1.279 . S
O18 Cd15 2.297 1_554 S
O18 C20 1.247 . S
O19 Cd15 2.439 . S
O19 C20 1.208 1_556 S
C20 O18 1.247 . S
C20 O19 1.208 1_554 S
C21 O26 1.247 . S
C21 O27 1.208 . S
C22 O14 1.315 . S
C22 O17 1.279 . S
C23 O24 1.315 . S
C23 O25 1.279 . S
O24 Cd16 2.223 . S
O24 C23 1.315 . S
O25 Cd15 2.240 . S
O25 C23 1.279 . S
O26 Cd16 2.297 . S
O26 C21 1.247 . S
O27 Cd16 2.439 . S
O27 C21 1.208 . S
O28 Cd29 2.223 . S
O28 C36 1.315 . S
Cd29 O28 2.223 . S
Cd29 O32 2.297 1_554 S
Cd29 O33 2.439 . S
Cd29 O39 2.240 . S
Cd30 O31 2.240 . S
Cd30 O38 2.223 . S
Cd30 O40 2.297 . S
Cd30 O41 2.439 . S
O31 Cd30 2.240 . S
O31 C36 1.279 . S
O32 Cd29 2.297 1_556 S
O32 C34 1.247 . S
O33 Cd29 2.439 . S
O33 C34 1.208 1_554 S
C34 O32 1.247 . S
C34 O33 1.208 1_556 S
C35 O40 1.247 . S
C35 O41 1.208 . S
C36 O28 1.315 . S
C36 O31 1.279 . S
C37 O38 1.315 . S
C37 O39 1.279 . S
O38 Cd30 2.223 . S
O38 C37 1.315 . S
O39 Cd29 2.240 . S
O39 C37 1.279 . S
O40 Cd30 2.297 . S
O40 C35 1.247 . S
O41 Cd30 2.439 . S
O41 C35 1.208 . S
O42 Cd43 2.223 . S
O42 C50 1.315 . S
Cd43 O42 2.223 . S
Cd43 O46 2.297 1_556 S
Cd43 O47 2.439 . S
Cd43 O53 2.240 . S
Cd44 O45 2.240 . S
Cd44 O52 2.223 . S
Cd44 O54 2.297 . S
Cd44 O55 2.439 . S
O45 Cd44 2.240 . S
O45 C50 1.279 . S
O46 Cd43 2.297 1_554 S
O46 C48 1.247 . S
O47 Cd43 2.439 . S
O47 C48 1.208 1_556 S
C48 O46 1.247 . S
C48 O47 1.208 1_554 S
C49 O54 1.247 . S
C49 O55 1.208 . S
C50 O42 1.315 . S
C50 O45 1.279 . S
C51 O52 1.315 . S
C51 O53 1.279 . S
O52 Cd44 2.223 . S
O52 C51 1.315 . S
O53 Cd43 2.240 . S
O53 C51 1.279 . S
O54 Cd44 2.297 . S
O54 C49 1.247 . S
O55 Cd44 2.439 . S
O55 C49 1.208 . S
O56 Cd57 2.223 . S
O56 C64 1.315 . S
Cd57 O56 2.223 . S
Cd57 O60 2.297 . S
Cd57 O61 2.439 . S
Cd57 O67 2.240 . S
Cd58 O59 2.240 . S
Cd58 O66 2.223 1_554 S
Cd58 O68 2.297 1_554 S
Cd58 O69 2.439 . S
O59 Cd58 2.240 . S
O59 C64 1.279 . S
O60 Cd57 2.297 . S
O60 C62 1.247 . S
O61 Cd57 2.439 . S
O61 C62 1.208 . S
C62 O60 1.247 . S
C62 O61 1.208 . S
C63 O68 1.247 . S
C63 O69 1.208 1_556 S
C64 O56 1.315 . S
C64 O59 1.279 . S
C65 O66 1.315 1_554 S
C65 O67 1.279 . S
O66 Cd58 2.223 1_556 S
O66 C65 1.315 1_556 S
O67 Cd57 2.240 . S
O67 C65 1.279 . S
O68 Cd58 2.297 1_556 S
O68 C63 1.247 . S
O69 Cd58 2.439 . S
O69 C63 1.208 1_554 S
O70 Cd71 2.223 . S
O70 C78 1.315 . S
Cd71 O70 2.223 . S
Cd71 O74 2.297 . S
Cd71 O75 2.439 . S
Cd71 O81 2.240 . S
Cd72 O73 2.240 . S
Cd72 O80 2.223 1_556 S
Cd72 O82 2.297 1_556 S
Cd72 O83 2.439 . S
O73 Cd72 2.240 . S
O73 C78 1.279 . S
O74 Cd71 2.297 . S
O74 C76 1.247 . S
O75 Cd71 2.439 . S
O75 C76 1.208 . S
C76 O74 1.247 . S
C76 O75 1.208 . S
C77 O82 1.247 . S
C77 O83 1.208 1_554 S
C78 O70 1.315 . S
C78 O73 1.279 . S
C79 O80 1.315 1_556 S
C79 O81 1.279 . S
O80 Cd72 2.223 1_554 S
O80 C79 1.315 1_554 S
O81 Cd71 2.240 . S
O81 C79 1.279 . S
O82 Cd72 2.297 1_554 S
O82 C77 1.247 . S
O83 Cd72 2.439 . S
O83 C77 1.208 1_556 S
O84 Cd85 2.223 . S
O84 C92 1.315 . S
Cd85 O84 2.223 . S
Cd85 O88 2.297 . S
Cd85 O89 2.439 . S
Cd85 O95 2.240 . S
Cd86 O87 2.240 . S
Cd86 O94 2.223 1_554 S
Cd86 O96 2.297 1_554 S
Cd86 O97 2.439 . S
O87 Cd86 2.240 . S
O87 C92 1.279 . S
O88 Cd85 2.297 . S
O88 C90 1.247 . S
O89 Cd85 2.439 . S
O89 C90 1.208 . S
C90 O88 1.247 . S
C90 O89 1.208 . S
C91 O96 1.247 . S
C91 O97 1.208 1_556 S
C92 O84 1.315 . S
C92 O87 1.279 . S
C93 O94 1.315 1_554 S
C93 O95 1.279 . S
O94 Cd86 2.223 1_556 S
O94 C93 1.315 1_556 S
O95 Cd85 2.240 . S
O95 C93 1.279 . S
O96 Cd86 2.297 1_556 S
O96 C91 1.247 . S
O97 Cd86 2.439 . S
O97 C91 1.208 1_554 S
O98 Cd99 2.223 . S
O98 C106 1.315 . S
Cd99 O98 2.223 . S
Cd99 O102 2.297 . S
Cd99 O103 2.439 . S
Cd99 O109 2.240 . S
Cd100 O101 2.240 . S
Cd100 O108 2.223 1_556 S
Cd100 O110 2.297 1_556 S
Cd100 O111 2.439 . S
O101 Cd100 2.240 . S
O101 C106 1.279 . S
O102 Cd99 2.297 . S
O102 C104 1.247 . S
O103 Cd99 2.439 . S
O103 C104 1.208 . S
C104 O102 1.247 . S
C104 O103 1.208 . S
C105 O110 1.247 . S
C105 O111 1.208 1_554 S
C106 O98 1.315 . S
C106 O101 1.279 . S
C107 O108 1.315 1_556 S
C107 O109 1.279 . S
O108 Cd100 2.223 1_554 S
O108 C107 1.315 1_554 S
O109 Cd99 2.240 . S
O109 C107 1.279 . S
O110 Cd100 2.297 1_554 S
O110 C105 1.247 . S
O111 Cd100 2.439 . S
O111 C105 1.208 1_556 S
O112 Cd113 2.223 . S
O112 C120 1.315 . S
Cd113 O112 2.223 . S
Cd113 O116 2.297 . S
Cd113 O117 2.439 . S
Cd113 O123 2.240 . S
Cd114 O115 2.240 . S
Cd114 O122 2.223 . S
Cd114 O124 2.297 . S
Cd114 O125 2.439 . S
O115 Cd114 2.240 . S
O115 C120 1.279 . S
O116 Cd113 2.297 . S
O116 C118 1.247 . S
O117 Cd113 2.439 . S
O117 C118 1.208 . S
C118 O116 1.247 . S
C118 O117 1.208 . S
C119 O124 1.247 . S
C119 O125 1.208 . S
C120 O112 1.315 . S
C120 O115 1.279 . S
C121 O122 1.315 . S
C121 O123 1.279 . S
O122 Cd114 2.223 . S
O122 C121 1.315 . S
O123 Cd113 2.240 . S
O123 C121 1.279 . S
O124 Cd114 2.297 . S
O124 C119 1.247 . S
O125 Cd114 2.439 . S
O125 C119 1.208 . S
O126 Cd127 2.223 . S
O126 C134 1.315 . S
Cd127 O126 2.223 . S
Cd127 O130 2.297 . S
Cd127 O131 2.439 . S
Cd127 O137 2.240 . S
Cd128 O129 2.240 . S
Cd128 O136 2.223 . S
Cd128 O138 2.297 . S
Cd128 O139 2.439 . S
O129 Cd128 2.240 . S
O129 C134 1.279 . S
O130 Cd127 2.297 . S
O130 C132 1.247 . S
O131 Cd127 2.439 . S
O131 C132 1.208 . S
C132 O130 1.247 . S
C132 O131 1.208 . S
C133 O138 1.247 . S
C133 O139 1.208 . S
C134 O126 1.315 . S
C134 O129 1.279 . S
C135 O136 1.315 . S
C135 O137 1.279 . S
O136 Cd128 2.223 . S
O136 C135 1.315 . S
O137 Cd127 2.240 . S
O137 C135 1.279 . S
O138 Cd128 2.297 . S
O138 C133 1.247 . S
O139 Cd128 2.439 . S
O139 C133 1.208 . S
O140 Cd141 2.223 . S
O140 C148 1.315 . S
Cd141 O140 2.223 . S
Cd141 O144 2.297 . S
Cd141 O145 2.439 . S
Cd141 O151 2.240 . S
Cd142 O143 2.240 . S
Cd142 O150 2.223 . S
Cd142 O152 2.297 . S
Cd142 O153 2.439 . S
O143 Cd142 2.240 . S
O143 C148 1.279 . S
O144 Cd141 2.297 . S
O144 C146 1.247 . S
O145 Cd141 2.439 . S
O145 C146 1.208 . S
C146 O144 1.247 . S
C146 O145 1.208 . S
C147 O152 1.247 . S
C147 O153 1.208 . S
C148 O140 1.315 . S
C148 O143 1.279 . S
C149 O150 1.315 . S
C149 O151 1.279 . S
O150 Cd142 2.223 . S
O150 C149 1.315 . S
O151 Cd141 2.240 . S
O151 C149 1.279 . S
O152 Cd142 2.297 . S
O152 C147 1.247 . S
O153 Cd142 2.439 . S
O153 C147 1.208 . S
O154 Cd155 2.223 . S
O154 C162 1.315 . S
Cd155 O154 2.223 . S
Cd155 O158 2.297 . S
Cd155 O159 2.439 . S
Cd155 O165 2.240 . S
Cd156 O157 2.240 . S
Cd156 O164 2.223 . S
Cd156 O166 2.297 . S
Cd156 O167 2.439 . S
O157 Cd156 2.240 . S
O157 C162 1.279 . S
O158 Cd155 2.297 . S
O158 C160 1.247 . S
O159 Cd155 2.439 . S
O159 C160 1.208 . S
C160 O158 1.247 . S
C160 O159 1.208 . S
C161 O166 1.247 . S
C161 O167 1.208 . S
C162 O154 1.315 . S
C162 O157 1.279 . S
C163 O164 1.315 . S
C163 O165 1.279 . S
O164 Cd156 2.223 . S
O164 C163 1.315 . S
O165 Cd155 2.240 . S
O165 C163 1.279 . S
O166 Cd156 2.297 . S
O166 C161 1.247 . S
O167 Cd156 2.439 . S
O167 C161 1.208 . S
O168 Cd169 2.223 . S
O168 C176 1.315 . S
Cd169 O168 2.223 . S
Cd169 O172 2.297 . S
Cd169 O173 2.439 . S
Cd169 O179 2.240 . S
Cd170 O171 2.240 . S
Cd170 O178 2.223 . S
Cd170 O180 2.297 . S
Cd170 O181 2.439 . S
O171 Cd170 2.240 . S
O171 C176 1.279 . S
O172 Cd169 2.297 . S
O172 C174 1.247 . S
O173 Cd169 2.439 . S
O173 C174 1.208 . S
C174 O172 1.247 . S
C174 O173 1.208 . S
C175 O180 1.247 . S
C175 O181 1.208 . S
C176 O168 1.315 . S
C176 O171 1.279 . S
C177 O178 1.315 . S
C177 O179 1.279 . S
O178 Cd170 2.223 . S
O178 C177 1.315 . S
O179 Cd169 2.240 . S
O179 C177 1.279 . S
O180 Cd170 2.297 . S
O180 C175 1.247 . S
O181 Cd170 2.439 . S
O181 C175 1.208 . S
O182 Cd183 2.223 . S
O182 C190 1.315 . S
Cd183 O182 2.223 . S
Cd183 O186 2.297 . S
Cd183 O187 2.439 . S
Cd183 O193 2.240 . S
Cd184 O185 2.240 . S
Cd184 O192 2.223 . S
Cd184 O194 2.297 . S
Cd184 O195 2.439 . S
O185 Cd184 2.240 . S
O185 C190 1.279 . S
O186 Cd183 2.297 . S
O186 C188 1.247 . S
O187 Cd183 2.439 . S
O187 C188 1.208 . S
C188 O186 1.247 . S
C188 O187 1.208 . S
C189 O194 1.247 . S
C189 O195 1.208 . S
C190 O182 1.315 . S
C190 O185 1.279 . S
C191 O192 1.315 . S
C191 O193 1.279 . S
O192 Cd184 2.223 . S
O192 C191 1.315 . S
O193 Cd183 2.240 . S
O193 C191 1.279 . S
O194 Cd184 2.297 . S
O194 C189 1.247 . S
O195 Cd184 2.439 . S
O195 C189 1.208 . S
O196 Cd197 2.223 . S
O196 C204 1.315 . S
Cd197 O196 2.223 . S
Cd197 O200 2.297 . S
Cd197 O201 2.439 . S
Cd197 O207 2.240 . S
Cd198 O199 2.240 . S
Cd198 O206 2.223 . S
Cd198 O208 2.297 . S
Cd198 O209 2.439 . S
O199 Cd198 2.240 . S
O199 C204 1.279 . S
O200 Cd197 2.297 . S
O200 C202 1.247 . S
O201 Cd197 2.439 . S
O201 C202 1.208 . S
C202 O200 1.247 . S
C202 O201 1.208 . S
C203 O208 1.247 . S
C203 O209 1.208 . S
C204 O196 1.315 . S
C204 O199 1.279 . S
C205 O206 1.315 . S
C205 O207 1.279 . S
O206 Cd198 2.223 . S
O206 C205 1.315 . S
O207 Cd197 2.240 . S
O207 C205 1.279 . S
O208 Cd198 2.297 . S
O208 C203 1.247 . S
O209 Cd198 2.439 . S
O209 C203 1.208 . S
O210 Cd211 2.223 . S
O210 C218 1.315 . S
Cd211 O210 2.223 . S
Cd211 O214 2.297 . S
Cd211 O215 2.439 . S
Cd211 O221 2.240 . S
Cd212 O213 2.240 . S
Cd212 O220 2.223 . S
Cd212 O222 2.297 . S
Cd212 O223 2.439 . S
O213 Cd212 2.240 . S
O213 C218 1.279 . S
O214 Cd211 2.297 . S
O214 C216 1.247 . S
O215 Cd211 2.439 . S
O215 C216 1.208 . S
C216 O214 1.247 . S
C216 O215 1.208 . S
C217 O222 1.247 . S
C217 O223 1.208 . S
C218 O210 1.315 . S
C218 O213 1.279 . S
C219 O220 1.315 . S
C219 O221 1.279 . S
O220 Cd212 2.223 . S
O220 C219 1.315 . S
O221 Cd211 2.240 . S
O221 C219 1.279 . S
O222 Cd212 2.297 . S
O222 C217 1.247 . S
O223 Cd212 2.439 . S
O223 C217 1.208 . S
C224 C225 1.363 . S
C224 C230 1.379 . S
C224 N232 1.356 . S
C225 C224 1.363 . S
C225 C231 1.363 . S
C226 C227 1.363 1_565 S
C226 C231 1.379 . S
C226 N233 1.356 1_565 S
C227 C226 1.363 1_545 S
C227 C230 1.363 1_545 S
N228 C230 1.356 1_545 S
N228 H240 0.984 . S
N228 H241 0.985 . S
N229 C231 1.356 . S
N229 H234 0.984 . S
N229 H235 0.985 . S
C230 C224 1.379 . S
C230 C227 1.363 1_565 S
C230 N228 1.356 1_565 S
C231 C225 1.363 . S
C231 C226 1.379 . S
C231 N229 1.356 . S
N232 C224 1.356 . S
N232 H238 0.984 . S
N232 H239 0.984 . S
N233 C226 1.356 1_545 S
N233 H236 0.984 . S
N233 H237 0.985 1_545 S
H234 N229 0.984 . S
H235 N229 0.985 . S
H236 N233 0.984 . S
H237 N233 0.985 1_565 S
H238 N232 0.984 . S
H239 N232 0.984 . S
H240 N228 0.984 . S
H241 N228 0.985 . S
C242 C243 1.363 1_655 S
C242 C248 1.379 . S
C242 N250 1.356 1_655 S
C243 C242 1.363 1_455 S
C243 C249 1.363 1_455 S
C244 C245 1.363 . S
C244 C249 1.379 . S
C244 N251 1.356 . S
C245 C244 1.363 . S
C245 C248 1.363 . S
N246 C248 1.356 . S
N246 H258 0.984 . S
N246 H259 0.985 . S
N247 C249 1.356 1_455 S
N247 H252 0.984 . S
N247 H253 0.985 . S
C248 C242 1.379 . S
C248 C245 1.363 . S
C248 N246 1.356 . S
C249 C243 1.363 1_655 S
C249 C244 1.379 . S
C249 N247 1.356 1_655 S
N250 C242 1.356 1_455 S
N250 H256 0.984 1_455 S
N250 H257 0.984 . S
N251 C244 1.356 . S
N251 H254 0.984 . S
N251 H255 0.985 . S
H252 N247 0.984 . S
H253 N247 0.985 . S
H254 N251 0.984 . S
H255 N251 0.985 . S
H256 N250 0.984 1_655 S
H257 N250 0.984 . S
H258 N246 0.984 . S
H259 N246 0.985 . S
C260 C261 1.363 1_545 S
C260 C266 1.379 . S
C260 N268 1.356 . S
C261 C260 1.363 1_565 S
C261 C267 1.359 1_565 S
C262 C263 1.363 . S
C262 C267 1.400 . S
C262 N269 1.356 . S
C263 C262 1.363 . S
C263 C266 1.363 . S
N264 C266 1.356 . S
N264 H276 0.984 . S
N264 H277 0.985 . S
N265 C267 1.335 1_565 S
N265 H270 0.984 . S
N265 H271 0.985 . S
C266 C260 1.379 . S
C266 C263 1.363 . S
C266 N264 1.356 . S
C267 C261 1.359 1_545 S
C267 C262 1.400 . S
C267 N265 1.335 1_545 S
N268 C260 1.356 . S
N268 H274 0.984 . S
N268 H275 0.984 1_545 S
N269 C262 1.356 . S
N269 H272 0.984 . S
N269 H273 0.985 . S
H270 N265 0.984 . S
H271 N265 0.985 . S
H272 N269 0.984 . S
H273 N269 0.985 . S
H274 N268 0.984 . S
H275 N268 0.984 1_565 S
H276 N264 0.984 . S
H277 N264 0.985 . S
C278 C279 1.363 . S
C278 C284 1.379 . S
C278 N286 1.356 . S
C279 C278 1.363 . S
C279 C285 1.363 . S
C280 C281 1.363 1_455 S
C280 C285 1.379 . S
C280 N287 1.356 1_455 S
C281 C280 1.363 1_655 S
C281 C284 1.363 1_655 S
N282 C284 1.356 . S
N282 H294 0.984 . S
N282 H295 0.985 1_455 S
N283 C285 1.356 . S
N283 H288 0.984 . S
N283 H289 0.985 . S
C284 C278 1.379 . S
C284 C281 1.363 1_455 S
C284 N282 1.356 . S
C285 C279 1.363 . S
C285 C280 1.379 . S
C285 N283 1.356 . S
N286 C278 1.356 . S
N286 H292 0.984 . S
N286 H293 0.984 . S
N287 C280 1.356 1_655 S
N287 H290 0.984 . S
N287 H291 0.985 . S
H288 N283 0.984 . S
H289 N283 0.985 . S
H290 N287 0.984 . S
H291 N287 0.985 . S
H292 N286 0.984 . S
H293 N286 0.984 . S
H294 N282 0.984 . S
H295 N282 0.985 1_655 S
C296 C297 1.363 . S
C296 C302 1.379 . S
C296 N304 1.356 . S
C297 C296 1.363 . S
C297 C303 1.364 . S
C298 C299 1.363 . S
C298 C303 1.379 . S
C298 N305 1.356 . S
C299 C298 1.363 . S
C299 C302 1.363 . S
N300 C302 1.356 . S
N300 H312 0.984 . S
N300 H313 0.985 . S
N301 C303 1.355 1_554 S
N301 H306 0.984 . S
N301 H307 0.985 . S
C302 C296 1.379 . S
C302 C299 1.363 . S
C302 N300 1.356 . S
C303 C297 1.364 . S
C303 C298 1.379 . S
C303 N301 1.355 1_556 S
N304 C296 1.356 . S
N304 H310 0.984 . S
N304 H311 0.984 . S
N305 C298 1.356 . S
N305 H308 0.984 . S
N305 H309 0.985 1_556 S
H306 N301 0.984 . S
H307 N301 0.985 . S
H308 N305 0.984 . S
H309 N305 0.985 1_554 S
H310 N304 0.984 . S
H311 N304 0.984 . S
H312 N300 0.984 . S
H313 N300 0.985 . S
C314 C315 1.363 . S
C314 C320 1.379 . S
C314 N322 1.356 . S
C315 C314 1.363 . S
C315 C321 1.363 . S
C316 C317 1.363 . S
C316 C321 1.379 . S
C316 N323 1.356 . S
C317 C316 1.363 . S
C317 C320 1.363 . S
N318 C320 1.356 . S
N318 H330 0.984 . S
N318 H331 0.985 . S
N319 C321 1.356 . S
N319 H324 0.984 . S
N319 H325 0.985 . S
C320 C314 1.379 . S
C320 C317 1.363 . S
C320 N318 1.356 . S
C321 C315 1.363 . S
C321 C316 1.379 . S
C321 N319 1.356 . S
N322 C314 1.356 . S
N322 H328 0.984 . S
N322 H329 0.983 1_554 S
N323 C316 1.356 . S
N323 H326 0.984 . S
N323 H327 0.985 . S
H324 N319 0.984 . S
H325 N319 0.985 . S
H326 N323 0.984 . S
H327 N323 0.985 . S
H328 N322 0.984 . S
H329 N322 0.983 1_556 S
H330 N318 0.984 . S
H331 N318 0.985 . S
C332 C333 1.363 . S
C332 C338 1.379 . S
C332 N340 1.356 . S
C333 C332 1.363 . S
C333 C339 1.366 . S
C334 C335 1.363 1_554 S
C334 C339 1.378 1_554 S
C334 N341 1.356 . S
C335 C334 1.363 1_556 S
C335 C338 1.363 . S
N336 C338 1.356 . S
N336 H348 0.984 . S
N336 H349 0.985 . S
N337 C339 1.355 1_554 S
N337 H342 0.984 1_554 S
N337 H343 0.985 . S
C338 C332 1.379 . S
C338 C335 1.363 . S
C338 N336 1.356 . S
C339 C333 1.366 . S
C339 C334 1.378 1_556 S
C339 N337 1.355 1_556 S
N340 C332 1.356 . S
N340 H346 0.984 . S
N340 H347 0.984 . S
N341 C334 1.356 . S
N341 H344 0.984 . S
N341 H345 0.985 . S
H342 N337 0.984 1_556 S
H343 N337 0.985 . S
H344 N341 0.984 . S
H345 N341 0.985 . S
H346 N340 0.984 . S
H347 N340 0.984 . S
H348 N336 0.984 . S
H349 N336 0.985 . S
C350 C351 1.363 . S
C350 C356 1.379 . S
C350 N358 1.356 . S
C351 C350 1.363 . S
C351 C357 1.363 1_554 S
C352 C353 1.363 1_556 S
C352 C357 1.379 . S
C352 N359 1.356 . S
C353 C352 1.363 1_554 S
C353 C356 1.363 . S
N354 C356 1.356 . S
N354 H366 0.984 . S
N354 H367 0.985 . S
N355 C357 1.356 . S
N355 H360 0.984 . S
N355 H361 0.985 . S
C356 C350 1.379 . S
C356 C353 1.363 . S
C356 N354 1.356 . S
C357 C351 1.363 1_556 S
C357 C352 1.379 . S
C357 N355 1.356 . S
N358 C350 1.356 . S
N358 H364 0.984 . S
N358 H365 0.984 . S
N359 C352 1.356 . S
N359 H362 0.984 . S
N359 H363 0.985 . S
H360 N355 0.984 . S
H361 N355 0.985 . S
H362 N359 0.984 . S
H363 N359 0.985 . S
H364 N358 0.984 . S
H365 N358 0.984 . S
H366 N354 0.984 . S
H367 N354 0.985 . S
C368 C369 1.363 . S
C368 C374 1.379 . S
C368 N376 1.356 . S
C369 C368 1.363 . S
C369 C375 1.363 . S
C370 C371 1.363 . S
C370 C375 1.379 . S
C370 N377 1.356 . S
C371 C370 1.363 . S
C371 C374 1.363 . S
N372 C374 1.356 . S
N372 H384 0.984 . S
N372 H385 0.985 . S
N373 C375 1.356 . S
N373 H378 0.984 . S
N373 H379 0.985 . S
C374 C368 1.379 . S
C374 C371 1.363 . S
C374 N372 1.356 . S
C375 C369 1.363 . S
C375 C370 1.379 . S
C375 N373 1.356 . S
N376 C368 1.356 . S
N376 H382 0.984 . S
N376 H383 0.984 . S
N377 C370 1.356 . S
N377 H380 0.984 . S
N377 H381 0.985 . S
H378 N373 0.984 . S
H379 N373 0.985 . S
H380 N377 0.984 . S
H381 N377 0.985 . S
H382 N376 0.984 . S
H383 N376 0.984 . S
H384 N372 0.984 . S
H385 N372 0.985 . S
C386 C387 1.363 . S
C386 C392 1.379 . S
C386 N394 1.356 . S
C387 C386 1.363 . S
C387 C393 1.363 . S
C388 C389 1.363 . S
C388 C393 1.379 . S
C388 N395 1.356 . S
C389 C388 1.363 . S
C389 C392 1.363 . S
N390 C392 1.356 . S
N390 H402 0.984 . S
N390 H403 0.985 . S
N391 C393 1.356 . S
N391 H396 0.984 . S
N391 H397 0.985 . S
C392 C386 1.379 . S
C392 C389 1.363 . S
C392 N390 1.356 . S
C393 C387 1.363 . S
C393 C388 1.379 . S
C393 N391 1.356 . S
N394 C386 1.356 . S
N394 H400 0.984 . S
N394 H401 0.984 . S
N395 C388 1.356 . S
N395 H398 0.984 . S
N395 H399 0.985 . S
H396 N391 0.984 . S
H397 N391 0.985 . S
H398 N395 0.984 . S
H399 N395 0.985 . S
H400 N394 0.984 . S
H401 N394 0.984 . S
H402 N390 0.984 . S
H403 N390 0.985 . S
C404 C405 1.363 . S
C404 C410 1.379 . S
C404 N412 1.356 . S
C405 C404 1.363 . S
C405 C411 1.363 . S
C406 C407 1.363 . S
C406 C411 1.379 . S
C406 N413 1.356 . S
C407 C406 1.363 . S
C407 C410 1.363 . S
N408 C410 1.356 . S
N408 H420 0.984 . S
N408 H421 0.985 . S
N409 C411 1.356 . S
N409 H414 0.984 . S
N409 H415 0.985 . S
C410 C404 1.379 . S
C410 C407 1.363 . S
C410 N408 1.356 . S
C411 C405 1.363 . S
C411 C406 1.379 . S
C411 N409 1.356 . S
N412 C404 1.356 . S
N412 H418 0.984 . S
N412 H419 0.984 . S
N413 C406 1.356 . S
N413 H416 0.984 . S
N413 H417 0.985 . S
H414 N409 0.984 . S
H415 N409 0.985 . S
H416 N413 0.984 . S
H417 N413 0.985 . S
H418 N412 0.984 . S
H419 N412 0.984 . S
H420 N408 0.984 . S
H421 N408 0.985 . S
C422 C423 1.363 . S
C422 C428 1.379 . S
C422 N430 1.356 . S
C423 C422 1.363 . S
C423 C429 1.363 . S
C424 C425 1.363 . S
C424 C429 1.379 . S
C424 N431 1.356 . S
C425 C424 1.363 . S
C425 C428 1.363 . S
N426 C428 1.356 . S
N426 H438 0.984 . S
N426 H439 0.985 . S
N427 C429 1.356 . S
N427 H432 0.984 . S
N427 H433 0.985 . S
C428 C422 1.379 . S
C428 C425 1.363 . S
C428 N426 1.356 . S
C429 C423 1.363 . S
C429 C424 1.379 . S
C429 N427 1.356 . S
N430 C422 1.356 . S
N430 H436 0.984 . S
N430 H437 0.984 . S
N431 C424 1.356 . S
N431 H434 0.984 . S
N431 H435 0.985 . S
H432 N427 0.984 . S
H433 N427 0.985 . S
H434 N431 0.984 . S
H435 N431 0.985 . S
H436 N430 0.984 . S
H437 N430 0.984 . S
H438 N426 0.984 . S
H439 N426 0.985 . S
C440 C441 1.363 1_545 S
C440 C446 1.379 . S
C440 N448 1.356 . S
C441 C440 1.363 1_565 S
C441 C447 1.363 1_565 S
C442 C443 1.363 . S
C442 C447 1.379 . S
C442 N449 1.356 . S
C443 C442 1.363 . S
C443 C446 1.363 . S
N444 C446 1.356 . S
N444 H456 0.984 . S
N444 H457 0.985 . S
N445 C447 1.356 1_565 S
N445 H450 0.984 . S
N445 H451 0.985 . S
C446 C440 1.379 . S
C446 C443 1.363 . S
C446 N444 1.356 . S
C447 C441 1.363 1_545 S
C447 C442 1.379 . S
C447 N445 1.356 1_545 S
N448 C440 1.356 . S
N448 H454 0.984 . S
N448 H455 0.984 1_545 S
N449 C442 1.356 . S
N449 H452 0.984 . S
N449 H453 0.985 . S
H450 N445 0.984 . S
H451 N445 0.985 . S
H452 N449 0.984 . S
H453 N449 0.985 . S
H454 N448 0.984 . S
H455 N448 0.984 1_565 S
H456 N444 0.984 . S
H457 N444 0.985 . S
C458 C459 1.363 1_455 S
C458 C464 1.379 . S
C458 N466 1.356 1_455 S
C459 C458 1.363 1_655 S
C459 C465 1.363 1_655 S
C460 C461 1.363 . S
C460 C465 1.379 . S
C460 N467 1.356 . S
C461 C460 1.363 . S
C461 C464 1.363 . S
N462 C464 1.356 . S
N462 H474 0.984 . S
N462 H475 0.985 . S
N463 C465 1.356 . S
N463 H468 0.984 1_455 S
N463 H469 0.985 . S
C464 C458 1.379 . S
C464 C461 1.363 . S
C464 N462 1.356 . S
C465 C459 1.363 1_455 S
C465 C460 1.379 . S
C465 N463 1.356 . S
N466 C458 1.356 1_655 S
N466 H472 0.984 . S
N466 H473 0.984 . S
N467 C460 1.356 . S
N467 H470 0.984 . S
N467 H471 0.985 . S
H468 N463 0.984 1_655 S
H469 N463 0.985 . S
H470 N467 0.984 . S
H471 N467 0.985 . S
H472 N466 0.984 . S
H473 N466 0.984 . S
H474 N462 0.984 . S
H475 N462 0.985 . S
C476 C477 1.363 . S
C476 C482 1.379 . S
C476 N484 1.356 . S
C477 C476 1.363 . S
C477 C483 1.363 . S
C478 C479 1.363 1_565 S
C478 C483 1.379 . S
C478 N485 1.356 1_565 S
C479 C478 1.363 1_545 S
C479 C482 1.363 1_545 S
N480 C482 1.356 1_545 S
N480 H492 0.984 . S
N480 H493 0.985 . S
N481 C483 1.356 . S
N481 H486 0.984 . S
N481 H487 0.985 . S
C482 C476 1.379 . S
C482 C479 1.363 1_565 S
C482 N480 1.356 1_565 S
C483 C477 1.363 . S
C483 C478 1.379 . S
C483 N481 1.356 . S
N484 C476 1.356 . S
N484 H490 0.984 . S
N484 H491 0.984 . S
N485 C478 1.356 1_545 S
N485 H488 0.984 . S
N485 H489 0.985 1_545 S
H486 N481 0.984 . S
H487 N481 0.985 . S
H488 N485 0.984 . S
H489 N485 0.985 1_565 S
H490 N484 0.984 . S
H491 N484 0.984 . S
H492 N480 0.984 . S
H493 N480 0.985 . S
C494 C495 1.363 . S
C494 C500 1.379 . S
C494 N502 1.356 . S
C495 C494 1.363 . S
C495 C501 1.363 . S
C496 C497 1.363 1_655 S
C496 C501 1.379 . S
C496 N503 1.356 1_655 S
C497 C496 1.363 1_455 S
C497 C500 1.363 1_455 S
N498 C500 1.367 . S
N498 H510 0.993 . S
N498 H511 0.966 1_655 S
N499 C501 1.356 . S
N499 H504 0.984 . S
N499 H505 0.985 . S
C500 C494 1.379 . S
C500 C497 1.363 1_655 S
C500 N498 1.367 . S
C501 C495 1.363 . S
C501 C496 1.379 . S
C501 N499 1.356 . S
N502 C494 1.356 . S
N502 H508 0.984 . S
N502 H509 0.984 . S
N503 C496 1.356 1_455 S
N503 H506 0.984 . S
N503 H507 0.985 . S
H504 N499 0.984 . S
H505 N499 0.985 . S
H506 N503 0.984 . S
H507 N503 0.985 . S
H508 N502 0.984 . S
H509 N502 0.984 . S
H510 N498 0.993 . S
H511 N498 0.966 1_455 S
C512 C513 1.363 . S
C512 C518 1.379 . S
C512 N520 1.356 . S
C513 C512 1.363 . S
C513 C519 1.363 . S
C514 C515 1.363 . S
C514 C519 1.379 . S
C514 N521 1.356 . S
C515 C514 1.363 . S
C515 C518 1.363 . S
N516 C518 1.356 . S
N516 H528 0.984 . S
N516 H529 0.985 . S
N517 C519 1.356 . S
N517 H522 0.984 . S
N517 H523 0.985 . S
C518 C512 1.379 . S
C518 C515 1.363 . S
C518 N516 1.356 . S
C519 C513 1.363 . S
C519 C514 1.379 . S
C519 N517 1.356 . S
N520 C512 1.356 . S
N520 H526 0.984 . S
N520 H527 0.984 . S
N521 C514 1.356 . S
N521 H524 0.984 . S
N521 H525 0.985 . S
H522 N517 0.984 . S
H523 N517 0.985 . S
H524 N521 0.984 . S
H525 N521 0.985 . S
H526 N520 0.984 . S
H527 N520 0.984 . S
H528 N516 0.984 . S
H529 N516 0.985 . S
C530 C531 1.363 . S
C530 C536 1.379 . S
C530 N538 1.356 . S
C531 C530 1.363 . S
C531 C537 1.363 . S
C532 C533 1.363 . S
C532 C537 1.379 . S
C532 N539 1.356 . S
C533 C532 1.363 . S
C533 C536 1.363 . S
N534 C536 1.356 . S
N534 H546 0.984 . S
N534 H547 0.985 . S
N535 C537 1.356 . S
N535 H540 0.984 . S
N535 H541 0.985 . S
C536 C530 1.379 . S
C536 C533 1.363 . S
C536 N534 1.356 . S
C537 C531 1.363 . S
C537 C532 1.379 . S
C537 N535 1.356 . S
N538 C530 1.356 . S
N538 H544 0.984 . S
N538 H545 0.984 . S
N539 C532 1.356 . S
N539 H542 0.984 . S
N539 H543 0.985 . S
H540 N535 0.984 . S
H541 N535 0.985 . S
H542 N539 0.984 . S
H543 N539 0.985 . S
H544 N538 0.984 . S
H545 N538 0.984 . S
H546 N534 0.984 . S
H547 N534 0.985 . S
C548 C549 1.363 . S
C548 C554 1.379 . S
C548 N556 1.356 . S
C549 C548 1.363 . S
C549 C555 1.363 . S
C550 C551 1.363 . S
C550 C555 1.379 . S
C550 N557 1.356 . S
C551 C550 1.363 . S
C551 C554 1.363 . S
N552 C554 1.356 . S
N552 H564 0.984 . S
N552 H565 0.985 . S
N553 C555 1.356 . S
N553 H558 0.984 . S
N553 H559 0.985 . S
C554 C548 1.379 . S
C554 C551 1.363 . S
C554 N552 1.356 . S
C555 C549 1.363 . S
C555 C550 1.379 . S
C555 N553 1.356 . S
N556 C548 1.356 . S
N556 H562 0.984 . S
N556 H563 0.984 . S
N557 C550 1.356 . S
N557 H560 0.984 1_554 S
N557 H561 0.985 1_554 S
H558 N553 0.984 . S
H559 N553 0.985 . S
H560 N557 0.984 1_556 S
H561 N557 0.985 1_556 S
H562 N556 0.984 . S
H563 N556 0.984 . S
H564 N552 0.984 . S
H565 N552 0.985 . S
C566 C567 1.363 . S
C566 C572 1.379 . S
C566 N574 1.356 . S
C567 C566 1.363 . S
C567 C573 1.363 . S
C568 C569 1.363 . S
C568 C573 1.379 . S
C568 N575 1.356 . S
C569 C568 1.363 . S
C569 C572 1.363 . S
N570 C572 1.356 . S
N570 H582 0.984 . S
N570 H583 0.985 . S
N571 C573 1.356 . S
N571 H576 0.984 . S
N571 H577 0.985 . S
C572 C566 1.379 . S
C572 C569 1.363 . S
C572 N570 1.356 . S
C573 C567 1.363 . S
C573 C568 1.379 . S
C573 N571 1.356 . S
N574 C566 1.356 . S
N574 H580 0.984 . S
N574 H581 0.984 . S
N575 C568 1.356 . S
N575 H578 0.984 . S
N575 H579 0.985 . S
H576 N571 0.984 . S
H577 N571 0.985 . S
H578 N575 0.984 . S
H579 N575 0.985 . S
H580 N574 0.984 . S
H581 N574 0.984 . S
H582 N570 0.984 . S
H583 N570 0.985 . S
C584 C585 1.363 . S
C584 C590 1.379 . S
C584 N592 1.356 . S
C585 C584 1.363 . S
C585 C591 1.363 . S
C586 C587 1.363 . S
C586 C591 1.379 . S
C586 N593 1.356 . S
C587 C586 1.363 . S
C587 C590 1.363 . S
N588 C590 1.356 . S
N588 H600 0.984 . S
N588 H601 0.985 . S
N589 C591 1.356 . S
N589 H594 0.984 . S
N589 H595 0.985 . S
C590 C584 1.379 . S
C590 C587 1.363 . S
C590 N588 1.356 . S
C591 C585 1.363 . S
C591 C586 1.379 . S
C591 N589 1.356 . S
N592 C584 1.356 . S
N592 H598 0.984 . S
N592 H599 0.984 . S
N593 C586 1.356 . S
N593 H596 0.984 . S
N593 H597 0.985 . S
H594 N589 0.984 . S
H595 N589 0.985 . S
H596 N593 0.984 . S
H597 N593 0.985 . S
H598 N592 0.984 . S
H599 N592 0.984 . S
H600 N588 0.984 . S
H601 N588 0.985 . S
C602 C603 1.363 . S
C602 C608 1.379 . S
C602 N610 1.356 . S
C603 C602 1.363 . S
C603 C609 1.363 . S
C604 C605 1.363 . S
C604 C609 1.379 . S
C604 N611 1.356 . S
C605 C604 1.363 . S
C605 C608 1.363 . S
N606 C608 1.356 . S
N606 H618 0.984 . S
N606 H619 0.985 . S
N607 C609 1.356 . S
N607 H612 0.984 . S
N607 H613 0.985 . S
C608 C602 1.379 . S
C608 C605 1.363 . S
C608 N606 1.356 . S
C609 C603 1.363 . S
C609 C604 1.379 . S
C609 N607 1.356 . S
N610 C602 1.356 . S
N610 H616 0.984 . S
N610 H617 0.984 . S
N611 C604 1.356 . S
N611 H614 0.984 . S
N611 H615 0.985 . S
H612 N607 0.984 . S
H613 N607 0.985 . S
H614 N611 0.984 . S
H615 N611 0.985 . S
H616 N610 0.984 . S
H617 N610 0.984 . S
H618 N606 0.984 . S
H619 N606 0.985 . S
C620 C621 1.363 . S
C620 C626 1.379 . S
C620 N628 1.356 . S
C621 C620 1.363 . S
C621 C627 1.363 . S
C622 C623 1.363 . S
C622 C627 1.379 . S
C622 N629 1.356 . S
C623 C622 1.363 . S
C623 C626 1.363 . S
N624 C626 1.356 . S
N624 H636 0.984 . S
N624 H637 0.985 . S
N625 C627 1.356 . S
N625 H630 0.984 . S
N625 H631 0.985 . S
C626 C620 1.379 . S
C626 C623 1.363 . S
C626 N624 1.356 . S
C627 C621 1.363 . S
C627 C622 1.379 . S
C627 N625 1.356 . S
N628 C620 1.356 . S
N628 H634 0.984 . S
N628 H635 0.984 . S
N629 C622 1.356 . S
N629 H632 0.984 . S
N629 H633 0.985 . S
H630 N625 0.984 . S
H631 N625 0.985 . S
H632 N629 0.984 . S
H633 N629 0.985 . S
H634 N628 0.984 . S
H635 N628 0.984 . S
H636 N624 0.984 . S
H637 N624 0.985 . S
C638 C639 1.363 . S
C638 C644 1.379 . S
C638 N646 1.356 . S
C639 C638 1.363 . S
C639 C645 1.363 . S
C640 C641 1.363 . S
C640 C645 1.379 . S
C640 N647 1.356 . S
C641 C640 1.363 . S
C641 C644 1.363 . S
N642 C644 1.356 . S
N642 H654 0.984 . S
N642 H655 0.985 . S
N643 C645 1.356 . S
N643 H648 0.984 . S
N643 H649 0.985 . S
C644 C638 1.379 . S
C644 C641 1.363 . S
C644 N642 1.356 . S
C645 C639 1.363 . S
C645 C640 1.379 . S
C645 N643 1.356 . S
N646 C638 1.356 . S
N646 H652 0.984 . S
N646 H653 0.984 . S
N647 C640 1.356 . S
N647 H650 0.984 . S
N647 H651 0.985 . S
H648 N643 0.984 . S
H649 N643 0.985 . S
H650 N647 0.984 . S
H651 N647 0.985 . S
H652 N646 0.984 . S
H653 N646 0.984 . S
H654 N642 0.984 . S
H655 N642 0.985 . S
C656 C657 1.363 . S
C656 C662 1.379 . S
C656 N664 1.356 . S
C657 C656 1.363 . S
C657 C663 1.363 . S
C658 C659 1.363 . S
C658 C663 1.379 . S
C658 N665 1.356 . S
C659 C658 1.363 . S
C659 C662 1.363 . S
N660 C662 1.356 . S
N660 H672 0.984 . S
N660 H673 0.985 . S
N661 C663 1.356 . S
N661 H666 0.984 . S
N661 H667 0.985 . S
C662 C656 1.379 . S
C662 C659 1.363 . S
C662 N660 1.356 . S
C663 C657 1.363 . S
C663 C658 1.379 . S
C663 N661 1.356 . S
N664 C656 1.356 . S
N664 H670 0.984 . S
N664 H671 0.984 . S
N665 C658 1.356 . S
N665 H668 0.984 1_556 S
N665 H669 0.985 . S
H666 N661 0.984 . S
H667 N661 0.985 . S
H668 N665 0.984 1_554 S
H669 N665 0.985 . S
H670 N664 0.984 . S
H671 N664 0.984 . S
H672 N660 0.984 . S
H673 N660 0.985 . S
C674 C675 1.363 . S
C674 C680 1.379 . S
C674 N682 1.356 . S
C675 C674 1.363 . S
C675 C681 1.363 . S
C676 C677 1.363 . S
C676 C681 1.379 . S
C676 N683 1.356 . S
C677 C676 1.363 . S
C677 C680 1.363 . S
N678 C680 1.356 . S
N678 H690 0.984 1_554 S
N678 H691 0.985 1_554 S
N679 C681 1.356 . S
N679 H684 0.984 . S
N679 H685 0.985 . S
C680 C674 1.379 . S
C680 C677 1.363 . S
C680 N678 1.356 . S
C681 C675 1.363 . S
C681 C676 1.379 . S
C681 N679 1.356 . S
N682 C674 1.356 . S
N682 H688 0.984 . S
N682 H689 0.984 . S
N683 C676 1.356 . S
N683 H686 0.984 . S
N683 H687 0.985 . S
H684 N679 0.984 . S
H685 N679 0.985 . S
H686 N683 0.984 . S
H687 N683 0.985 . S
H688 N682 0.984 . S
H689 N682 0.984 . S
H690 N678 0.984 1_556 S
H691 N678 0.985 1_556 S
C692 C693 1.363 . S
C692 C698 1.379 . S
C692 N700 1.356 . S
C693 C692 1.363 . S
C693 C699 1.363 . S
C694 C695 1.363 . S
C694 C699 1.379 . S
C694 N701 1.356 . S
C695 C694 1.363 . S
C695 C698 1.363 . S
N696 C698 1.356 . S
N696 H708 0.984 . S
N696 H709 0.985 . S
N697 C699 1.356 . S
N697 H702 0.984 . S
N697 H703 0.985 . S
C698 C692 1.379 . S
C698 C695 1.363 . S
C698 N696 1.356 . S
C699 C693 1.363 . S
C699 C694 1.379 . S
C699 N697 1.356 . S
N700 C692 1.356 . S
N700 H706 0.984 . S
N700 H707 0.984 1_556 S
N701 C694 1.356 . S
N701 H704 0.984 . S
N701 H705 0.985 . S
H702 N697 0.984 . S
H703 N697 0.985 . S
H704 N701 0.984 . S
H705 N701 0.985 . S
H706 N700 0.984 . S
H707 N700 0.984 1_554 S
H708 N696 0.984 . S
H709 N696 0.985 . S
C710 C711 1.363 . S
C710 C716 1.379 . S
C710 N718 1.356 . S
C711 C710 1.363 . S
C711 C717 1.363 . S
C712 C713 1.363 . S
C712 C717 1.379 . S
C712 N719 1.356 . S
C713 C712 1.363 . S
C713 C716 1.363 . S
N714 C716 1.356 1_556 S
N714 H726 0.984 . S
N714 H727 0.985 . S
N715 C717 1.356 . S
N715 H720 0.984 . S
N715 H721 0.985 . S
C716 C710 1.379 . S
C716 C713 1.363 . S
C716 N714 1.356 1_554 S
C717 C711 1.363 . S
C717 C712 1.379 . S
C717 N715 1.356 . S
N718 C710 1.356 . S
N718 H724 0.984 . S
N718 H725 0.984 . S
N719 C712 1.356 . S
N719 H722 0.984 . S
N719 H723 0.985 . S
H720 N715 0.984 . S
H721 N715 0.985 . S
H722 N719 0.984 . S
H723 N719 0.985 . S
H724 N718 0.984 . S
H725 N718 0.984 . S
H726 N714 0.984 . S
H727 N714 0.985 . S
C728 C729 1.363 . S
C728 C734 1.379 . S
C728 N736 1.356 . S
C729 C728 1.363 . S
C729 C735 1.363 . S
C730 C731 1.363 . S
C730 C735 1.379 . S
C730 N737 1.356 . S
C731 C730 1.363 . S
C731 C734 1.363 . S
N732 C734 1.356 . S
N732 H744 0.984 . S
N732 H745 0.985 . S
N733 C735 1.356 . S
N733 H738 0.984 . S
N733 H739 0.985 . S
C734 C728 1.379 . S
C734 C731 1.363 . S
C734 N732 1.356 . S
C735 C729 1.363 . S
C735 C730 1.379 . S
C735 N733 1.356 . S
N736 C728 1.356 . S
N736 H742 0.984 . S
N736 H743 0.984 . S
N737 C730 1.356 . S
N737 H740 0.984 . S
N737 H741 0.985 . S
H738 N733 0.984 . S
H739 N733 0.985 . S
H740 N737 0.984 . S
H741 N737 0.985 . S
H742 N736 0.984 . S
H743 N736 0.984 . S
H744 N732 0.984 . S
H745 N732 0.985 . S
C746 C747 1.363 . S
C746 C752 1.379 . S
C746 N754 1.356 . S
C747 C746 1.363 . S
C747 C753 1.363 . S
C748 C749 1.363 . S
C748 C753 1.379 . S
C748 N755 1.356 . S
C749 C748 1.363 . S
C749 C752 1.363 . S
N750 C752 1.356 . S
N750 H762 0.984 . S
N750 H763 0.985 . S
N751 C753 1.356 . S
N751 H756 0.984 . S
N751 H757 0.985 . S
C752 C746 1.379 . S
C752 C749 1.363 . S
C752 N750 1.356 . S
C753 C747 1.363 . S
C753 C748 1.379 . S
C753 N751 1.356 . S
N754 C746 1.356 . S
N754 H760 0.984 . S
N754 H761 0.984 . S
N755 C748 1.356 . S
N755 H758 0.984 . S
N755 H759 0.985 . S
H756 N751 0.984 . S
H757 N751 0.985 . S
H758 N755 0.984 . S
H759 N755 0.985 . S
H760 N754 0.984 . S
H761 N754 0.984 . S
H762 N750 0.984 . S
H763 N750 0.985 . S
C764 C765 1.363 . S
C764 C770 1.379 . S
C764 N772 1.356 . S
C765 C764 1.363 . S
C765 C771 1.363 . S
C766 C767 1.363 . S
C766 C771 1.379 . S
C766 N773 1.356 . S
C767 C766 1.363 . S
C767 C770 1.363 . S
N768 C770 1.356 . S
N768 H780 0.984 . S
N768 H781 0.985 . S
N769 C771 1.356 . S
N769 H774 0.984 . S
N769 H775 0.985 . S
C770 C764 1.379 . S
C770 C767 1.363 . S
C770 N768 1.356 . S
C771 C765 1.363 . S
C771 C766 1.379 . S
C771 N769 1.356 . S
N772 C764 1.356 . S
N772 H778 0.984 . S
N772 H779 0.984 . S
N773 C766 1.356 . S
N773 H776 0.984 . S
N773 H777 0.985 . S
H774 N769 0.984 . S
H775 N769 0.985 . S
H776 N773 0.984 . S
H777 N773 0.985 . S
H778 N772 0.984 . S
H779 N772 0.984 . S
H780 N768 0.984 . S
H781 N768 0.985 . S
C782 C783 1.363 . S
C782 C788 1.379 . S
C782 N790 1.356 . S
C783 C782 1.363 . S
C783 C789 1.363 . S
C784 C785 1.363 . S
C784 C789 1.379 . S
C784 N791 1.356 . S
C785 C784 1.363 . S
C785 C788 1.363 . S
N786 C788 1.356 . S
N786 H798 0.984 . S
N786 H799 0.985 . S
N787 C789 1.356 . S
N787 H792 0.984 . S
N787 H793 0.985 . S
C788 C782 1.379 . S
C788 C785 1.363 . S
C788 N786 1.356 . S
C789 C783 1.363 . S
C789 C784 1.379 . S
C789 N787 1.356 . S
N790 C782 1.356 . S
N790 H796 0.984 . S
N790 H797 0.984 . S
N791 C784 1.356 . S
N791 H794 0.984 . S
N791 H795 0.985 . S
H792 N787 0.984 . S
H793 N787 0.985 . S
H794 N791 0.984 . S
H795 N791 0.985 . S
H796 N790 0.984 . S
H797 N790 0.984 . S
H798 N786 0.984 . S
H799 N786 0.985 . S
C225 C163 1.489 . S
C227 C7 1.480 . S
C243 C21 1.480 . S
C245 C121 1.489 . S
C261 C35 1.480 . S
C263 C135 1.489 . S
C279 C149 1.489 . S
C281 C49 1.480 . S
C297 C63 1.480 . S
C299 C79 1.489 . S
C315 C77 1.480 . S
C317 C93 1.489 . S
C333 C107 1.489 . S
C335 C91 1.480 . S
C351 C65 1.489 . S
C353 C105 1.480 . S
C369 C51 1.489 . S
C371 C119 1.480 . S
C387 C133 1.480 . S
C389 C9 1.489 . S
C405 C23 1.489 . S
C407 C147 1.480 . S
C423 C161 1.480 . S
C425 C37 1.489 . S
C441 C175 1.480 . S
C443 C191 1.489 . S
C459 C189 1.480 . S
C461 C205 1.489 . S
C477 C219 1.489 . S
C479 C203 1.480 . S
C495 C177 1.489 . S
C497 C217 1.480 . S
C513 C64 1.353 . S
C515 C8 1.353 . S
C531 C22 1.353 . S
C533 C78 1.353 . S
C549 C36 1.353 . S
C551 C92 1.353 . S
C567 C106 1.353 . S
C569 C50 1.353 . S
C585 C120 1.353 . S
C587 C176 1.353 . S
C603 C190 1.353 . S
C605 C134 1.353 . S
C621 C148 1.353 . S
C623 C204 1.353 . S
C639 C218 1.353 . S
C641 C162 1.353 . S
C657 C202 1.399 . S
C659 C6 1.399 . S
C675 C216 1.399 . S
C677 C20 1.399 . S
C693 C34 1.399 . S
C695 C174 1.399 . S
C711 C188 1.399 . S
C713 C48 1.399 . S
C729 C146 1.399 . S
C731 C62 1.399 . S
C747 C160 1.399 . S
C749 C76 1.399 . S
C765 C90 1.399 . S
C767 C118 1.399 . S
C783 C132 1.399 . S
C785 C104 1.399 . S
