# Generated by pormake.
# Topology uob, (4)-cn, num edge types: 1
# Building blocks:
#     Node 0, Type 0, BuildingBlock: KUFVIS_clean_sbu_0, # of connection points: 4
#     Node 1, Type 0, BuildingBlock: KUFVIS_clean_sbu_0, # of connection points: 4
#     Node 2, Type 0, BuildingBlock: KUFVIS_clean_sbu_0, # of connection points: 4
#     Node 3, Type 0, BuildingBlock: KUFVIS_clean_sbu_0, # of connection points: 4
#     Node 4, Type 0, BuildingBlock: KUFVIS_clean_sbu_0, # of connection points: 4
#     Node 5, Type 0, BuildingBlock: KUFVIS_clean_sbu_0, # of connection points: 4
#     Node 6, Type 0, BuildingBlock: KUFVIS_clean_sbu_0, # of connection points: 4
#     Node 7, Type 0, BuildingBlock: KUFVIS_clean_sbu_0, # of connection points: 4
#     Node 8, Type 0, BuildingBlock: KUFVIS_clean_sbu_0, # of connection points: 4
#     Node 9, Type 0, BuildingBlock: KUFVIS_clean_sbu_0, # of connection points: 4
#     Node 10, Type 0, BuildingBlock: KUFVIS_clean_sbu_0, # of connection points: 4
#     Node 11, Type 0, BuildingBlock: KUFVIS_clean_sbu_0, # of connection points: 4
#     Node 12, Type 0, BuildingBlock: KUFVIS_clean_sbu_0, # of connection points: 4
#     Node 13, Type 0, BuildingBlock: KUFVIS_clean_sbu_0, # of connection points: 4
#     Node 14, Type 0, BuildingBlock: KUFVIS_clean_sbu_0, # of connection points: 4
#     Node 15, Type 0, BuildingBlock: KUFVIS_clean_sbu_0, # of connection points: 4
#     Edge 16, Type (0, 0), BuildingBlock: ZUJKAS_clean_linker_0, # of connection points: 2
#     Edge 17, Type (0, 0), BuildingBlock: ZUJKAS_clean_linker_0, # of connection points: 2
#     Edge 18, Type (0, 0), BuildingBlock: ZUJKAS_clean_linker_0, # of connection points: 2
#     Edge 19, Type (0, 0), BuildingBlock: ZUJKAS_clean_linker_0, # of connection points: 2
#     Edge 20, Type (0, 0), BuildingBlock: ZUJKAS_clean_linker_0, # of connection points: 2
#     Edge 21, Type (0, 0), BuildingBlock: ZUJKAS_clean_linker_0, # of connection points: 2
#     Edge 22, Type (0, 0), BuildingBlock: ZUJKAS_clean_linker_0, # of connection points: 2
#     Edge 23, Type (0, 0), BuildingBlock: ZUJKAS_clean_linker_0, # of connection points: 2
#     Edge 24, Type (0, 0), BuildingBlock: ZUJKAS_clean_linker_0, # of connection points: 2
#     Edge 25, Type (0, 0), BuildingBlock: ZUJKAS_clean_linker_0, # of connection points: 2
#     Edge 26, Type (0, 0), BuildingBlock: ZUJKAS_clean_linker_0, # of connection points: 2
#     Edge 27, Type (0, 0), BuildingBlock: ZUJKAS_clean_linker_0, # of connection points: 2
#     Edge 28, Type (0, 0), BuildingBlock: ZUJKAS_clean_linker_0, # of connection points: 2
#     Edge 29, Type (0, 0), BuildingBlock: ZUJKAS_clean_linker_0, # of connection points: 2
#     Edge 30, Type (0, 0), BuildingBlock: ZUJKAS_clean_linker_0, # of connection points: 2
#     Edge 31, Type (0, 0), BuildingBlock: ZUJKAS_clean_linker_0, # of connection points: 2
#     Edge 32, Type (0, 0), BuildingBlock: ZUJKAS_clean_linker_0, # of connection points: 2
#     Edge 33, Type (0, 0), BuildingBlock: ZUJKAS_clean_linker_0, # of connection points: 2
#     Edge 34, Type (0, 0), BuildingBlock: ZUJKAS_clean_linker_0, # of connection points: 2
#     Edge 35, Type (0, 0), BuildingBlock: ZUJKAS_clean_linker_0, # of connection points: 2
#     Edge 36, Type (0, 0), BuildingBlock: ZUJKAS_clean_linker_0, # of connection points: 2
#     Edge 37, Type (0, 0), BuildingBlock: ZUJKAS_clean_linker_0, # of connection points: 2
#     Edge 38, Type (0, 0), BuildingBlock: ZUJKAS_clean_linker_0, # of connection points: 2
#     Edge 39, Type (0, 0), BuildingBlock: ZUJKAS_clean_linker_0, # of connection points: 2
#     Edge 40, Type (0, 0), BuildingBlock: ZUJKAS_clean_linker_0, # of connection points: 2
#     Edge 41, Type (0, 0), BuildingBlock: ZUJKAS_clean_linker_0, # of connection points: 2
#     Edge 42, Type (0, 0), BuildingBlock: ZUJKAS_clean_linker_0, # of connection points: 2
#     Edge 43, Type (0, 0), BuildingBlock: ZUJKAS_clean_linker_0, # of connection points: 2
#     Edge 44, Type (0, 0), BuildingBlock: ZUJKAS_clean_linker_0, # of connection points: 2
#     Edge 45, Type (0, 0), BuildingBlock: ZUJKAS_clean_linker_0, # of connection points: 2
#     Edge 46, Type (0, 0), BuildingBlock: ZUJKAS_clean_linker_0, # of connection points: 2
#     Edge 47, Type (0, 0), BuildingBlock: ZUJKAS_clean_linker_0, # of connection points: 2
# Relax obj value: 0.195
# Max RMSD: 0.230
# Mean RMSD: 0.230
data_MOF--net-uob--node1-KUFVIS_clean_sbu_0--edge1-ZUJKAS_clean_linker_0
_symmetry_space_group_name_H-M    P1
_symmetry_Int_Tables_number       1
_symmetry_cell_setting            triclinic
loop_
_symmetry_equiv_pos_as_xyz
'x, y, z'
_cell_length_a     69.516902
_cell_length_b     69.418374
_cell_length_c     34.025328
_cell_angle_alpha  90.054671
_cell_angle_beta   90.040226
_cell_angle_gamma 89.933717
loop_
_atom_site_label
_atom_site_type_symbol
_atom_site_fract_x
_atom_site_fract_y
_atom_site_fract_z
_atom_type_partial_charge
Mn0 Mn 0.12983 0.05297 0.29935 0.0
Mn1 Mn 0.09806 0.08965 0.29095 0.0
C2 C 0.12299 0.07244 0.35238 0.0
C3 C 0.16161 0.04168 0.30051 0.0
C4 C 0.08586 0.04802 0.29824 0.0
O5 O 0.12827 0.0564 0.23965 0.0
O6 O 0.10658 0.08072 0.23866 0.0
C7 C 0.12467 0.11876 0.25828 0.0
N8 N 0.11188 0.1133 0.28644 0.0
C9 C 0.1143 0.14403 0.31879 0.0
C10 C 0.12743 0.15003 0.29003 0.0
C11 C 0.13269 0.13731 0.25973 0.0
C12 C 0.10682 0.12538 0.31585 0.0
H13 H 0.1287 0.10904 0.23489 0.0
C14 C 0.11751 0.06847 0.22158 0.0
O15 O 0.14723 0.02986 0.29656 0.0
O16 O 0.15754 0.05987 0.29997 0.0
N17 N 0.08865 0.09978 0.33959 0.0
C18 C 0.07662 0.09138 0.36611 0.0
C19 C 0.07045 0.10198 0.39897 0.0
C20 C 0.07646 0.12115 0.40386 0.0
C21 C 0.08867 0.12954 0.37592 0.0
C22 C 0.0944 0.11826 0.34387 0.0
H23 H 0.07188 0.07669 0.36229 0.0
O24 O 0.12955 0.05517 0.35763 0.0
O25 O 0.12032 0.0778 0.31625 0.0
O26 O 0.10273 0.04064 0.29992 0.0
O27 O 0.08261 0.06607 0.2957 0.0
C28 C 0.09557 0.14858 0.3788 0.0
C29 C 0.10847 0.15577 0.35042 0.0
H30 H 0.13365 0.16432 0.29105 0.0
H31 H 0.14286 0.14181 0.2375 0.0
H32 H 0.06105 0.0954 0.42043 0.0
H33 H 0.0717 0.12926 0.42928 0.0
H34 H 0.09119 0.15777 0.40294 0.0
H35 H 0.11391 0.17032 0.35333 0.0
Mn36 Mn 0.95883 0.64825 0.54737 0.0
Mn37 Mn 0.92635 0.61206 0.55171 0.0
C38 C 0.94799 0.6375 0.60743 0.0
C39 C 0.96508 0.68145 0.54775 0.0
C40 C 0.96874 0.60593 0.53344 0.0
O41 O 0.94831 0.64707 0.49094 0.0
O42 O 0.92464 0.62524 0.50045 0.0
C43 C 0.8901 0.63447 0.54987 0.0
N44 N 0.90154 0.62105 0.56735 0.0
C45 C 0.87737 0.61415 0.61593 0.0
C46 C 0.86523 0.62775 0.59818 0.0
C47 C 0.87166 0.63802 0.56514 0.0
C48 C 0.89555 0.61118 0.59932 0.0
H49 H 0.89504 0.64241 0.52456 0.0
C50 C 0.93368 0.63743 0.47914 0.0
O51 O 0.97803 0.6692 0.53595 0.0
O52 O 0.94823 0.67455 0.55535 0.0
N53 N 0.92637 0.59808 0.60015 0.0
C54 C 0.94055 0.58697 0.61604 0.0
C55 C 0.93683 0.57644 0.65042 0.0
C56 C 0.91853 0.57728 0.66784 0.0
C57 C 0.90418 0.58883 0.65099 0.0
C58 C 0.90869 0.59893 0.61661 0.0
H59 H 0.95458 0.58614 0.60258 0.0
O60 O 0.96407 0.64676 0.60482 0.0
O61 O 0.93863 0.63473 0.57486 0.0
O62 O 0.9745 0.62327 0.53842 0.0
O63 O 0.95117 0.60084 0.53604 0.0
C64 C 0.88574 0.59113 0.66754 0.0
C65 C 0.87235 0.6038 0.65004 0.0
H66 H 0.85104 0.63061 0.60998 0.0
H67 H 0.86244 0.64866 0.55149 0.0
H68 H 0.94801 0.56764 0.66339 0.0
H69 H 0.91573 0.56916 0.69439 0.0
H70 H 0.88186 0.58357 0.69421 0.0
H71 H 0.85837 0.60578 0.66353 0.0
Mn72 Mn 0.37265 0.44176 0.79378 0.0
Mn73 Mn 0.39967 0.40564 0.75599 0.0
C74 C 0.38481 0.41789 0.83393 0.0
C75 C 0.34222 0.45355 0.81183 0.0
C76 C 0.41478 0.44627 0.76944 0.0
O77 O 0.36748 0.44381 0.7347 0.0
O78 O 0.38334 0.41706 0.71467 0.0
C79 C 0.3684 0.37818 0.7374 0.0
N80 N 0.38525 0.38222 0.75607 0.0
C81 C 0.38691 0.3502 0.7829 0.0
C82 C 0.36968 0.34564 0.76358 0.0
C83 C 0.36035 0.35972 0.74086 0.0
C84 C 0.39424 0.36884 0.77834 0.0
H85 H 0.36113 0.389 0.72015 0.0
C86 C 0.37239 0.43156 0.70845 0.0
O87 O 0.35667 0.46512 0.80643 0.0
O88 O 0.34524 0.43549 0.80457 0.0
N89 N 0.41611 0.39314 0.79328 0.0
C90 C 0.43226 0.40005 0.81107 0.0
C91 C 0.44308 0.38787 0.83554 0.0
C92 C 0.43733 0.36868 0.84107 0.0
C93 C 0.42082 0.36181 0.822 0.0
C94 C 0.41068 0.37457 0.79778 0.0
H95 H 0.43683 0.41476 0.80676 0.0
O96 O 0.37933 0.43419 0.84876 0.0
O97 O 0.38271 0.41589 0.79638 0.0
O98 O 0.39975 0.45317 0.786 0.0
O99 O 0.4158 0.4291 0.75585 0.0
C100 C 0.41395 0.34284 0.82626 0.0
C101 C 0.39695 0.33707 0.80692 0.0
H102 H 0.3634 0.33142 0.76626 0.0
H103 H 0.34697 0.35636 0.7261 0.0
H104 H 0.45584 0.39327 0.85009 0.0
H105 H 0.4457 0.35936 0.86004 0.0
H106 H 0.42155 0.33259 0.84457 0.0
H107 H 0.39167 0.32253 0.81087 0.0
Mn108 Mn 0.56226 0.87797 0.06578 0.0
Mn109 Mn 0.60142 0.90291 0.03635 0.0
C110 C 0.58615 0.88599 0.1099 0.0
C111 C 0.54795 0.84803 0.07859 0.0
C112 C 0.56238 0.92157 0.05048 0.0
O113 O 0.56082 0.87543 0.00602 0.0
O114 O 0.58849 0.89085 0.99082 0.0
C115 C 0.62494 0.86974 0.01006 0.0
N116 N 0.62277 0.88561 0.0332 0.0
C117 C 0.65411 0.88105 0.06179 0.0
C118 C 0.65673 0.86474 0.03806 0.0
C119 C 0.64205 0.85903 0.01216 0.0
C120 C 0.63673 0.89113 0.05847 0.0
H121 H 0.61366 0.86527 0.99024 0.0
C122 C 0.57339 0.88138 0.98148 0.0
O123 O 0.53754 0.8635 0.07473 0.0
O124 O 0.56619 0.84984 0.0722 0.0
N125 N 0.61545 0.91526 0.07768 0.0
C126 C 0.61059 0.93125 0.09872 0.0
C127 C 0.6237 0.93882 0.12608 0.0
C128 C 0.64174 0.93003 0.13115 0.0
C129 C 0.64653 0.91377 0.10871 0.0
C130 C 0.63294 0.90695 0.08172 0.0
H131 H 0.59679 0.93815 0.09475 0.0
O132 O 0.56907 0.8817 0.12219 0.0
O133 O 0.58886 0.88522 0.0723 0.0
O134 O 0.55348 0.90635 0.06157 0.0
O135 O 0.58008 0.92163 0.0401 0.0
C136 C 0.66427 0.90406 0.11204 0.0
C137 C 0.66801 0.88764 0.08879 0.0
H138 H 0.66992 0.85643 0.0396 0.0
H139 H 0.64393 0.8464 -0.00612 0.0
H140 H 0.61992 0.95142 0.14319 0.0
H141 H 0.65182 0.93593 0.15223 0.0
H142 H 0.67513 0.90905 0.13247 0.0
H143 H 0.68162 0.88019 0.0919 0.0
Mn144 Mn 0.13698 0.44375 0.00952 0.0
Mn145 Mn 0.10677 0.40589 0.00318 0.0
C146 C 0.13502 0.4258 0.9528 0.0
C147 C 0.16803 0.45624 0.01806 0.0
C148 C 0.09311 0.44693 -0.00348 0.0
O149 O 0.13173 0.4384 0.06737 0.0
O150 O 0.11002 0.41461 0.05822 0.0
C151 C 0.13151 0.37763 0.0444 0.0
N152 N 0.12114 0.38283 0.01212 0.0
C153 C 0.12759 0.35247 0.98062 0.0
C154 C 0.13828 0.34675 0.01359 0.0
C155 C 0.14031 0.35942 0.04554 0.0
C156 C 0.11924 0.37082 0.98109 0.0
H157 H 0.13301 0.38729 0.0691 0.0
C158 C 0.11935 0.42634 0.08017 0.0
O159 O 0.15298 0.46739 0.01967 0.0
O160 O 0.16479 0.43795 0.01554 0.0
N161 N 0.1023 0.39587 0.9516 0.0
C162 C 0.0923 0.40396 0.92136 0.0
C163 C 0.08936 0.39334 0.88672 0.0
C164 C 0.09643 0.37443 0.88382 0.0
C165 C 0.10654 0.36636 0.91548 0.0
C166 C 0.1091 0.37766 0.94916 0.0
H167 H 0.08668 0.41843 0.92364 0.0
O168 O 0.14055 0.44358 0.95165 0.0
O169 O 0.13019 0.41906 0.98696 0.0
O170 O 0.10937 0.45487 0.00387 0.0
O171 O 0.0909 0.42876 -0.00685 0.0
C172 C 0.11434 0.3476 0.91485 0.0
C173 C 0.12498 0.34072 0.94725 0.0
H174 H 0.14505 0.33269 0.01461 0.0
H175 H 0.14857 0.35513 0.07104 0.0
H176 H 0.08158 0.39968 0.86239 0.0
H177 H 0.09408 0.36628 0.85709 0.0
H178 H 0.11241 0.33841 0.88941 0.0
H179 H 0.13114 0.32639 0.94615 0.0
Mn180 Mn 0.55923 0.64203 0.26606 0.0
Mn181 Mn 0.59342 0.61022 0.23877 0.0
C182 C 0.56673 0.63791 0.20063 0.0
C183 C 0.55096 0.67402 0.28026 0.0
C184 C 0.55304 0.59836 0.26284 0.0
O185 O 0.57321 0.6367 0.31804 0.0
O186 O 0.59644 0.61704 0.29484 0.0
C187 C 0.6274 0.63559 0.24653 0.0
N188 N 0.6162 0.62379 0.2242 0.0
C189 C 0.6376 0.6268 0.16901 0.0
C190 C 0.64941 0.63895 0.19143 0.0
C191 C 0.64423 0.64344 0.23029 0.0
C192 C 0.62087 0.61964 0.18658 0.0
H193 H 0.62354 0.63893 0.27652 0.0
C194 C 0.58828 0.6263 0.3228 0.0
O195 O 0.53959 0.65991 0.28993 0.0
O196 O 0.56758 0.6693 0.26625 0.0
N197 N 0.59226 0.60231 0.18495 0.0
C198 C 0.57914 0.59063 0.1671 0.0
C199 C 0.58202 0.58503 0.12786 0.0
C200 C 0.59855 0.59113 0.10771 0.0
C201 C 0.61205 0.60278 0.12699 0.0
C202 C 0.60829 0.60811 0.16592 0.0
H203 H 0.56655 0.58566 0.18265 0.0
O204 O 0.55037 0.64526 0.2107 0.0
O205 O 0.5783 0.63329 0.22901 0.0
O206 O 0.54619 0.61527 0.26871 0.0
O207 O 0.57041 0.59518 0.25235 0.0
C208 C 0.62914 0.60923 0.10921 0.0
C209 C 0.6418 0.62143 0.12999 0.0
H210 H 0.66247 0.64491 0.17911 0.0
H211 H 0.65325 0.65283 0.24777 0.0
H212 H 0.57158 0.57594 0.11327 0.0
H213 H 0.60076 0.58674 0.07748 0.0
H214 H 0.63259 0.60506 0.07935 0.0
H215 H 0.65472 0.62657 0.1157 0.0
Mn216 Mn 0.36477 0.05838 0.52296 0.0
Mn217 Mn 0.39526 0.09593 0.5341 0.0
C218 C 0.37401 0.07647 0.4693 0.0
C219 C 0.33315 0.04689 0.51832 0.0
C220 C 0.4083 0.05404 0.53418 0.0
O221 O 0.36412 0.06302 0.58244 0.0
O222 O 0.38267 0.08975 0.58457 0.0
C223 C 0.36647 0.12628 0.55105 0.0
N224 N 0.38154 0.11967 0.52934 0.0
C225 C 0.38246 0.14889 0.49143 0.0
C226 C 0.36709 0.15612 0.51371 0.0
C227 C 0.35899 0.14471 0.5435 0.0
C228 C 0.38923 0.13039 0.50019 0.0
H229 H 0.3602 0.11753 0.57384 0.0
C230 C 0.37189 0.07712 0.60074 0.0
O231 O 0.34741 0.03526 0.52539 0.0
O232 O 0.33712 0.06509 0.51741 0.0
N233 N 0.4085 0.10368 0.48747 0.0
C234 C 0.42265 0.09422 0.46752 0.0
C235 C 0.43207 0.1035 0.43638 0.0
C236 C 0.42706 0.12248 0.42644 0.0
C237 C 0.4125 0.13196 0.44745 0.0
C238 C 0.40367 0.122 0.47831 0.0
H239 H 0.42676 0.07973 0.47536 0.0
O240 O 0.36733 0.05923 0.46461 0.0
O241 O 0.37495 0.08277 0.50512 0.0
O242 O 0.39185 0.04637 0.52775 0.0
O243 O 0.41073 0.07218 0.53825 0.0
C244 C 0.40632 0.15084 0.4389 0.0
C245 C 0.39119 0.15924 0.46064 0.0
H246 H 0.36129 0.17034 0.50799 0.0
H247 H 0.34703 0.15013 0.56062 0.0
H248 H 0.44328 0.09609 0.42026 0.0
H249 H 0.43449 0.12962 0.40258 0.0
H250 H 0.41295 0.15897 0.41539 0.0
H251 H 0.38635 0.17363 0.45334 0.0
Mn252 Mn 0.94987 0.88426 0.75491 0.0
Mn253 Mn 0.91333 0.91478 0.73613 0.0
C254 C 0.93637 0.88617 0.69306 0.0
C255 C 0.96083 0.85285 0.76626 0.0
C256 C 0.9547 0.92796 0.74495 0.0
O257 O 0.93994 0.89 0.8105 0.0
O258 O 0.91578 0.91014 0.79329 0.0
C259 C 0.88088 0.89011 0.76129 0.0
N260 N 0.88978 0.90069 0.73295 0.0
C261 C 0.86414 0.89463 0.68706 0.0
C262 C 0.85466 0.88372 0.71579 0.0
C263 C 0.86311 0.8814 0.75302 0.0
C264 C 0.88185 0.9029 0.69695 0.0
H265 H 0.88729 0.88836 0.78999 0.0
C266 C 0.92579 0.90114 0.81909 0.0
O267 O 0.97207 0.86759 0.77184 0.0
O268 O 0.94296 0.85662 0.75914 0.0
N269 N 0.90953 0.92009 0.6815 0.0
C270 C 0.92106 0.93009 0.65642 0.0
C271 C 0.91504 0.93309 0.61749 0.0
C272 C 0.89713 0.926 0.60494 0.0
C273 C 0.88545 0.91591 0.63142 0.0
C274 C 0.89228 0.91323 0.66974 0.0
H275 H 0.9348 0.93564 0.66599 0.0
O276 O 0.95392 0.88034 0.69734 0.0
O277 O 0.92753 0.89138 0.72479 0.0
O278 O 0.96202 0.9114 0.75206 0.0
O279 O 0.93682 0.93052 0.7381 0.0
C280 C 0.86737 0.90827 0.62121 0.0
C281 C 0.85677 0.89752 0.64891 0.0
H282 H 0.84094 0.877 0.70954 0.0
H283 H 0.85591 0.87297 0.77531 0.0
H284 H 0.92415 0.94088 0.59723 0.0
H285 H 0.89254 0.92832 0.57489 0.0
H286 H 0.86162 0.91031 0.59191 0.0
H287 H 0.84305 0.8914 0.64045 0.0
Mn288 Mn 0.63557 0.55796 0.793 0.0
Mn289 Mn 0.60418 0.59338 0.76961 0.0
C290 C 0.62192 0.57676 0.84156 0.0
C291 C 0.66727 0.54841 0.80668 0.0
C292 C 0.59385 0.55079 0.76902 0.0
O293 O 0.63979 0.5615 0.73364 0.0
O294 O 0.62109 0.58783 0.72439 0.0
C295 C 0.63168 0.62566 0.76122 0.0
N296 N 0.61559 0.61809 0.77793 0.0
C297 C 0.61008 0.64707 0.81516 0.0
C298 C 0.6264 0.6553 0.7978 0.0
C299 C 0.63731 0.6445 0.77088 0.0
C300 C 0.60514 0.62825 0.80428 0.0
H301 H 0.64021 0.61731 0.74096 0.0
C302 C 0.6333 0.57531 0.71246 0.0
O303 O 0.65416 0.53585 0.79735 0.0
O304 O 0.66229 0.56636 0.80495 0.0
N305 N 0.58701 0.60031 0.8113 0.0
C306 C 0.57241 0.58983 0.82727 0.0
C307 C 0.56051 0.59829 0.85581 0.0
C308 C 0.56361 0.61746 0.86738 0.0
C309 C 0.57863 0.62801 0.85032 0.0
C310 C 0.58993 0.61887 0.82178 0.0
H311 H 0.56987 0.57513 0.81837 0.0
O312 O 0.62923 0.56013 0.85018 0.0
O313 O 0.62295 0.58195 0.80511 0.0
O314 O 0.60973 0.54434 0.78273 0.0
O315 O 0.59089 0.56855 0.76117 0.0
C316 C 0.583 0.64714 0.86092 0.0
C317 C 0.59877 0.65663 0.84348 0.0
H318 H 0.63085 0.66979 0.80534 0.0
H319 H 0.65006 0.65066 0.75771 0.0
H320 H 0.54896 0.59005 0.86886 0.0
H321 H 0.55444 0.6239 0.88951 0.0
H322 H 0.57452 0.65459 0.88289 0.0
H323 H 0.60221 0.6712 0.85241 0.0
Mn324 Mn 0.45101 0.14378 0.05197 0.0
Mn325 Mn 0.41535 0.11096 0.05665 0.0
C326 C 0.43737 0.13578 0.11157 0.0
C327 C 0.46007 0.17628 0.04957 0.0
C328 C 0.45747 0.1004 0.04446 0.0
O329 O 0.44217 0.14179 -0.0055 0.0
O330 O 0.41651 0.12221 0.00335 0.0
C331 C 0.38186 0.1369 0.04667 0.0
N332 N 0.39133 0.12319 0.06775 0.0
C333 C 0.36567 0.12152 0.11502 0.0
C334 C 0.3555 0.13543 0.0935 0.0
C335 C 0.3637 0.14325 0.05933 0.0
C336 C 0.38374 0.11584 0.10107 0.0
H337 H 0.38818 0.14299 0.02054 0.0
C338 C 0.42725 0.13287 0.98189 0.0
O339 O 0.47229 0.16269 0.04099 0.0
O340 O 0.4425 0.17101 0.05559 0.0
N341 N 0.41261 0.09912 0.10709 0.0
C342 C 0.42493 0.08698 0.12605 0.0
C343 C 0.41933 0.07865 0.16185 0.0
C344 C 0.40104 0.08262 0.17743 0.0
C345 C 0.38856 0.095 0.15717 0.0
C346 C 0.39499 0.10303 0.12183 0.0
H347 H 0.43892 0.08372 0.114 0.0
O348 O 0.45431 0.14345 0.11026 0.0
O349 O 0.42893 0.13302 0.07811 0.0
O350 O 0.46452 0.11737 0.04753 0.0
O351 O 0.43945 0.09687 0.04608 0.0
C352 C 0.37004 0.09981 0.17079 0.0
C353 C 0.35868 0.11322 0.14998 0.0
H354 H 0.34148 0.14034 0.10315 0.0
H355 H 0.35603 0.15412 0.04276 0.0
H356 H 0.42906 0.06911 0.17731 0.0
H357 H 0.39677 0.07616 0.20504 0.0
H358 H 0.36454 0.09356 0.19769 0.0
H359 H 0.34466 0.11717 0.16131 0.0
Mn360 Mn 0.86236 0.94201 0.29824 0.0
Mn361 Mn 0.89185 0.9041 0.28176 0.0
C362 C 0.87038 0.92153 0.34899 0.0
C363 C 0.83109 0.95448 0.30271 0.0
C364 C 0.90587 0.94547 0.28836 0.0
O365 O 0.86259 0.93982 0.23811 0.0
O366 O 0.87939 0.91205 0.23218 0.0
C367 C 0.86254 0.87491 0.26105 0.0
N368 N 0.87766 0.88058 0.28371 0.0
C369 C 0.87766 0.85049 0.31874 0.0
C370 C 0.86222 0.84423 0.29548 0.0
C371 C 0.85457 0.85653 0.26665 0.0
C372 C 0.88497 0.86896 0.31188 0.0
H373 H 0.85659 0.88436 0.23899 0.0
C374 C 0.86958 0.92596 0.21773 0.0
O375 O 0.84585 0.96577 0.29845 0.0
O376 O 0.83441 0.93615 0.30088 0.0
N377 N 0.90491 0.89476 0.32746 0.0
C378 C 0.91926 0.90331 0.34848 0.0
C379 C 0.92827 0.89306 0.37891 0.0
C380 C 0.92264 0.87406 0.38707 0.0
C381 C 0.90793 0.86552 0.36489 0.0
C382 C 0.89955 0.8764 0.33478 0.0
H383 H 0.92381 0.91783 0.34207 0.0
O384 O 0.86394 0.93867 0.35632 0.0
O385 O 0.8717 0.91673 0.31226 0.0
O386 O 0.88977 0.95321 0.29742 0.0
O387 O 0.90786 0.92761 0.28017 0.0
C388 C 0.90115 0.84668 0.37163 0.0
C389 C 0.88594 0.83923 0.34877 0.0
H390 H 0.85602 0.83007 0.29973 0.0
H391 H 0.84256 0.85186 0.24878 0.0
H392 H 0.93961 0.89975 0.39591 0.0
H393 H 0.92971 0.8662 0.41046 0.0
H394 H 0.90739 0.83787 0.39461 0.0
H395 H 0.88065 0.82484 0.35465 0.0
Mn396 Mn 0.06622 0.38083 0.56078 0.0
Mn397 Mn 0.10736 0.40633 0.55418 0.0
C398 C 0.08601 0.38458 0.61473 0.0
C399 C 0.05093 0.35076 0.56105 0.0
C400 C 0.0677 0.42493 0.55715 0.0
O401 O 0.07056 0.38187 0.5014 0.0
O402 O 0.09912 0.39747 0.5016 0.0
C403 C 0.13368 0.37523 0.52837 0.0
N404 N 0.1291 0.38947 0.5543 0.0
C405 C 0.15835 0.38434 0.59065 0.0
C406 C 0.16349 0.36977 0.56408 0.0
C407 C 0.15104 0.36512 0.53294 0.0
C408 C 0.14084 0.39389 0.58465 0.0
H409 H 0.12413 0.3716 0.50447 0.0
C410 C 0.08529 0.38886 0.48391 0.0
O411 O 0.04105 0.36657 0.557 0.0
O412 O 0.06943 0.35247 0.56133 0.0
N413 N 0.11691 0.41544 0.60356 0.0
C414 C 0.10906 0.42869 0.6284 0.0
C415 C 0.11921 0.43419 0.66229 0.0
C416 C 0.13743 0.42624 0.66996 0.0
C417 C 0.14526 0.41274 0.6438 0.0
C418 C 0.1344 0.40767 0.61072 0.0
H419 H 0.09513 0.43494 0.62244 0.0
O420 O 0.06792 0.3808 0.61935 0.0
O421 O 0.09187 0.3865 0.57886 0.0
O422 O 0.05786 0.40944 0.56052 0.0
O423 O 0.08603 0.42504 0.55446 0.0
C424 C 0.16333 0.40395 0.64943 0.0
C425 C 0.16979 0.38962 0.6231 0.0
H426 H 0.17687 0.36193 0.56752 0.0
H427 H 0.15484 0.3538 0.51249 0.0
H428 H 0.11305 0.4446 0.68238 0.0
H429 H 0.14521 0.43052 0.69614 0.0
H430 H 0.17226 0.40789 0.67425 0.0
H431 H 0.18351 0.38265 0.62828 0.0
Mn432 Mn 0.62915 0.94413 0.51728 0.0
Mn433 Mn 0.6015 0.90433 0.52277 0.0
C434 C 0.6237 0.92536 0.46244 0.0
C435 C 0.66001 0.95767 0.51735 0.0
C436 C 0.5851 0.94501 0.52067 0.0
O437 O 0.62776 0.93956 0.57648 0.0
O438 O 0.61068 0.91181 0.57579 0.0
C439 C 0.63169 0.87672 0.54727 0.0
N440 N 0.61761 0.88201 0.52161 0.0
C441 C 0.62256 0.85347 0.48274 0.0
C442 C 0.63695 0.84758 0.50905 0.0
C443 C 0.64159 0.85931 0.54134 0.0
C444 C 0.61323 0.87098 0.49012 0.0
H445 H 0.63538 0.88575 0.57194 0.0
C446 C 0.61986 0.92522 0.59361 0.0
O447 O 0.64482 0.96842 0.52193 0.0
O448 O 0.65724 0.93928 0.51641 0.0
N449 N 0.59188 0.89546 0.47325 0.0
C450 C 0.5783 0.90365 0.44966 0.0
C451 C 0.57243 0.89402 0.41538 0.0
C452 C 0.58038 0.87598 0.40601 0.0
C453 C 0.59418 0.86775 0.43096 0.0
C454 C 0.5995 0.87804 0.46465 0.0
H455 H 0.57207 0.91746 0.45684 0.0
O456 O 0.62892 0.94316 0.45881 0.0
O457 O 0.62186 0.91903 0.49803 0.0
O458 O 0.60114 0.95396 0.51792 0.0
O459 O 0.58384 0.92666 0.52302 0.0
C460 C 0.60293 0.84978 0.42366 0.0
C461 C 0.61723 0.84273 0.44933 0.0
H462 H 0.64462 0.83417 0.50456 0.0
H463 H 0.65278 0.85496 0.56161 0.0
H464 H 0.56177 0.90046 0.39628 0.0
H465 H 0.57581 0.8686 0.37956 0.0
H466 H 0.59889 0.84134 0.3982 0.0
H467 H 0.62408 0.82905 0.44301 0.0
Mn468 Mn 0.06539 0.14896 0.7653 0.0
Mn469 Mn 0.10431 0.11978 0.76165 0.0
C470 C 0.08093 0.14366 0.70646 0.0
C471 C 0.05274 0.18016 0.7701 0.0
C472 C 0.06323 0.10482 0.76572 0.0
O473 O 0.07261 0.14639 0.82334 0.0
O474 O 0.09951 0.12848 0.81614 0.0
C475 C 0.13379 0.14875 0.7826 0.0
N476 N 0.12708 0.135 0.75756 0.0
C477 C 0.15478 0.13824 0.71579 0.0
C478 C 0.16211 0.15231 0.74133 0.0
C479 C 0.15151 0.15766 0.77477 0.0
C480 C 0.13701 0.12995 0.72501 0.0
H481 H 0.12568 0.15289 0.8083 0.0
C482 C 0.08739 0.13776 0.83721 0.0
O483 O 0.04194 0.16514 0.776 0.0
O484 O 0.07092 0.17698 0.76533 0.0
N485 N 0.11093 0.11015 0.71072 0.0
C486 C 0.10146 0.09695 0.68826 0.0
C487 C 0.1099 0.09037 0.65324 0.0
C488 C 0.12813 0.09715 0.64208 0.0
C489 C 0.1377 0.11056 0.66592 0.0
C490 C 0.12855 0.11662 0.70043 0.0
H491 H 0.08756 0.0915 0.69698 0.0
O492 O 0.06336 0.14979 0.70711 0.0
O493 O 0.08916 0.14102 0.74031 0.0
O494 O 0.05472 0.1212 0.76563 0.0
O495 O 0.08153 0.10294 0.7649 0.0
C496 C 0.15589 0.11827 0.65668 0.0
C497 C 0.16435 0.13222 0.68142 0.0
H498 H 0.17578 0.15919 0.73543 0.0
H499 H 0.157 0.16859 0.79449 0.0
H500 H 0.10243 0.08002 0.635 0.0
H501 H 0.1346 0.09198 0.6151 0.0
H502 H 0.16344 0.11372 0.63042 0.0
H503 H 0.17819 0.13826 0.67366 0.0
Mn504 Mn 0.87028 0.55375 0.02917 0.0
Mn505 Mn 0.90583 0.58652 0.01786 0.0
C506 C 0.87917 0.56327 0.96685 0.0
C507 C 0.83724 0.54728 0.03309 0.0
C508 C 0.913 0.54451 0.03857 0.0
O509 O 0.8727 0.56552 0.08437 0.0
O510 O 0.89423 0.58887 0.07055 0.0
C511 C 0.88309 0.62259 0.02052 0.0
N512 N 0.89613 0.61107 0.00209 0.0
C513 C 0.90158 0.63484 0.95189 0.0
C514 C 0.88833 0.64705 0.97053 0.0
C515 C 0.87898 0.64086 0.00488 0.0
C516 C 0.90513 0.61684 0.96892 0.0
H517 H 0.87589 0.61785 0.0469 0.0
C518 C 0.88262 0.58035 0.09393 0.0
O519 O 0.84987 0.53464 0.04461 0.0
O520 O 0.84378 0.56401 0.02319 0.0
N521 N 0.91843 0.58606 0.96793 0.0
C522 C 0.92946 0.57189 0.95177 0.0
C523 C 0.93933 0.57547 0.91656 0.0
C524 C 0.93779 0.59358 0.89837 0.0
C525 C 0.92633 0.60792 0.9155 0.0
C526 C 0.91705 0.60361 0.95091 0.0
H527 H 0.93082 0.55801 0.96579 0.0
O528 O 0.87029 0.54714 0.97231 0.0
O529 O 0.88273 0.5735 -0.0019 0.0
O530 O 0.89562 0.53849 0.03675 0.0
O531 O 0.91777 0.56206 0.03348 0.0
C532 C 0.92342 0.62618 0.89842 0.0
C533 C 0.91101 0.63962 0.91656 0.0
H534 H 0.88504 0.66111 0.95846 0.0
H535 H 0.86863 0.65015 0.01927 0.0
H536 H 0.94811 0.56431 0.90343 0.0
H537 H 0.94529 0.59623 0.87101 0.0
H538 H 0.93033 0.62989 0.87093 0.0
H539 H 0.90857 0.65345 0.90272 0.0
Mn540 Mn 0.43903 0.37975 0.24807 0.0
Mn541 Mn 0.40127 0.40894 0.2309 0.0
C542 C 0.42609 0.38258 0.18597 0.0
C543 C 0.45146 0.34878 0.25817 0.0
C544 C 0.44187 0.42385 0.23886 0.0
O545 O 0.42903 0.38408 0.30393 0.0
O546 O 0.40538 0.40487 0.28768 0.0
C547 C 0.37122 0.38235 0.25999 0.0
N548 N 0.37858 0.39344 0.23063 0.0
C549 C 0.35175 0.38623 0.18848 0.0
C550 C 0.34384 0.37477 0.21828 0.0
C551 C 0.35368 0.37275 0.25412 0.0
C552 C 0.36941 0.39521 0.19581 0.0
H553 H 0.37864 0.3809 0.28771 0.0
C554 C 0.41548 0.39576 0.31305 0.0
O555 O 0.46196 0.36398 0.26462 0.0
O556 O 0.43352 0.35176 0.25036 0.0
N557 N 0.39549 0.41405 0.17696 0.0
C558 C 0.4052 0.42541 0.15109 0.0
C559 C 0.39743 0.4287 0.11358 0.0
C560 C 0.37954 0.42068 0.10347 0.0
C561 C 0.36966 0.40931 0.13087 0.0
C562 C 0.37827 0.40628 0.16752 0.0
H563 H 0.41879 0.43187 0.15903 0.0
O564 O 0.44373 0.37717 0.19073 0.0
O565 O 0.41644 0.38637 0.21765 0.0
O566 O 0.44963 0.4076 0.24728 0.0
O567 O 0.42406 0.42575 0.23026 0.0
C568 C 0.35155 0.40097 0.12336 0.0
C569 C 0.34272 0.38922 0.15192 0.0
H570 H 0.33023 0.36748 0.21398 0.0
H571 H 0.34769 0.36391 0.27726 0.0
H572 H 0.40511 0.43754 0.09265 0.0
H573 H 0.37352 0.42337 0.07461 0.0
H574 H 0.34435 0.40333 0.09553 0.0
H575 H 0.32895 0.38265 0.14553 0.0
H576 H 0.32348 0.0112 0.48945 0.0
H577 H 0.2942 1.00293 0.45266 0.0
H578 H 0.27087 0.05921 0.47726 0.0
H579 H 0.29992 0.06754 0.51392 0.0
H580 H 0.24335 0.02824 0.48153 0.0
H581 H 0.2857 0.02818 0.34264 0.0
H582 H 0.2939 0.01264 0.3815 0.0
H583 H 0.29494 0.03829 0.38775 0.0
C584 C 0.31188 0.02161 0.48796 0.0
C585 C 0.31407 0.04006 0.5045 0.0
C586 C 0.29524 0.01693 0.46655 0.0
C587 C 0.28049 0.03058 0.46159 0.0
C588 C 0.28209 0.04848 0.4805 0.0
H589 H 0.19488 0.06227 0.29853 0.0
H590 H 0.22435 0.05564 0.33526 0.0
C591 C 0.29871 0.05321 0.50155 0.0
C592 C 0.264 0.02706 0.43457 0.0
H593 H 0.25222 0.02475 0.33701 0.0
C594 C 0.24527 0.02711 0.44998 0.0
C595 C 0.26654 0.02586 0.39333 0.0
C596 C 0.28631 0.02635 0.37505 0.0
C597 C 0.22903 0.02652 0.42527 0.0
C598 C 0.23158 0.02571 0.38399 0.0
C599 C 0.2503 0.02514 0.36863 0.0
C600 C 0.21503 0.02782 0.35649 0.0
C601 C 0.20927 0.02779 0.44341 0.0
C602 C 0.20035 0.01394 0.35451 0.0
C603 C 0.18347 0.01763 0.33307 0.0
C604 C 0.18098 0.03531 0.31351 0.0
C605 C 0.19632 0.04851 0.31326 0.0
C606 C 0.21318 0.04476 0.33437 0.0
H607 H 0.20987 0.03123 0.47529 0.0
H608 H 0.20053 0.03899 0.42839 0.0
H609 H 0.20179 0.01379 0.4398 0.0
H610 H 0.20158 1.00064 0.37092 0.0
H611 H 0.17189 0.00722 0.3341 0.0
H612 H 0.99607 0.84331 0.7361 0.0
H613 H 1.00351 0.81389 0.69898 0.0
H614 H 0.94924 0.78944 0.73407 0.0
H615 H 0.94164 0.81879 0.77078 0.0
H616 H 0.98384 0.76248 0.72973 0.0
H617 H 0.96896 0.80612 0.59569 0.0
H618 H 0.98589 0.81544 0.63102 0.0
H619 H 0.96095 0.81357 0.64384 0.0
C620 C 0.98609 0.83135 0.73732 0.0
C621 C 0.96826 0.83339 0.75645 0.0
C622 C 0.99027 0.81463 0.71567 0.0
C623 C 0.97679 0.7996 0.71325 0.0
C624 C 0.95982 0.80088 0.7354 0.0
H625 H 0.94037 0.71145 0.55813 0.0
H626 H 0.94633 0.74103 0.5952 0.0
C627 C 0.95555 0.81763 0.75661 0.0
C628 C 0.97914 0.78358 0.68453 0.0
H629 H 0.97409 0.77297 0.58682 0.0
C630 C 0.98207 0.76478 0.69842 0.0
C631 C 0.97652 0.7866 0.64371 0.0
C632 C 0.9728 0.80647 0.62739 0.0
C633 C 0.98211 0.74888 0.67264 0.0
C634 C 0.97915 0.75187 0.63189 0.0
C635 C 0.97657 0.77072 0.61795 0.0
C636 C 0.97662 0.73543 0.60417 0.0
C637 C 0.98441 0.72888 0.68933 0.0
C638 C 0.99187 0.72287 0.59518 0.0
C639 C 0.98855 0.706 0.57337 0.0
C640 C 0.96986 0.70135 0.56055 0.0
C641 C 0.95493 0.71462 0.56746 0.0
C642 C 0.9583 0.73152 0.58882 0.0
H643 H 0.98407 0.72883 0.72198 0.0
H644 H 0.97284 0.71929 0.67823 0.0
H645 H 0.99839 0.72278 0.67964 0.0
H646 H 0.00618 0.72571 0.60638 0.0
H647 H 1.00032 0.69599 0.56894 0.0
H648 H 0.30856 0.43359 0.81515 0.0
H649 H 0.27963 0.44164 0.85233 0.0
H650 H 0.30516 0.49547 0.88791 0.0
H651 H 0.33435 0.48748 0.85046 0.0
H652 H 0.28995 0.47296 0.95112 0.0
H653 H 0.23662 0.48127 0.83137 0.0
H654 H 0.25055 0.45956 0.82744 0.0
H655 H 0.26225 0.48255 0.82298 0.0
C656 C 0.30793 0.44733 0.83022 0.0
C657 C 0.32376 0.45993 0.82965 0.0
C658 C 0.29132 0.45194 0.85143 0.0
C659 C 0.29011 0.46924 0.87268 0.0
C660 C 0.30572 0.48209 0.87154 0.0
H661 H 0.17837 0.49093 0.98591 0.0
H662 H 0.20934 0.49838 0.95486 0.0
C663 C 0.32234 0.47756 0.84994 0.0
C664 C 0.27305 0.47304 0.89804 0.0
H665 H 0.22396 0.47512 0.89577 0.0
C666 C 0.27554 0.47378 0.939 0.0
C667 C 0.25425 0.47434 0.88233 0.0
C668 C 0.25071 0.47458 0.83859 0.0
C669 C 0.25966 0.47465 0.96464 0.0
C670 C 0.24079 0.47462 0.94895 0.0
C671 C 0.23838 0.47504 0.90794 0.0
C672 C 0.22339 0.4722 0.97408 0.0
C673 C 0.26323 0.4752 0.00834 0.0
C674 C 0.22113 0.45534 -0.00366 0.0
C675 C 0.2035 0.45107 0.01406 0.0
C676 C 0.18768 0.46357 0.00997 0.0
C677 C 0.19033 0.48114 0.99014 0.0
C678 C 0.20799 0.48533 0.97204 0.0
H679 H 0.27755 0.48147 0.01518 0.0
H680 H 0.252 0.48372 0.02375 0.0
H681 H 0.26298 0.46029 0.02004 0.0
H682 H 0.23261 0.4448 -0.00215 0.0
H683 H 0.20189 0.43735 0.02883 0.0
H684 H 0.51543 0.8425 0.12325 0.0
H685 H 0.50771 0.81386 0.16274 0.0
H686 H 0.55655 0.78421 0.11328 0.0
H687 H 0.56426 0.81254 0.07396 0.0
H688 H 0.52305 0.76075 0.12192 0.0
H689 H 0.5422 0.80023 0.25905 0.0
H690 H 0.52406 0.81073 0.22796 0.0
H691 H 0.54844 0.8092 0.21094 0.0
C692 C 0.52419 0.82968 0.12003 0.0
C693 C 0.5405 0.82981 0.09556 0.0
C694 C 0.51989 0.8134 0.14295 0.0
C695 C 0.53176 0.797 0.14151 0.0
C696 C 0.54724 0.79671 0.11507 0.0
H697 H 0.57297 0.70628 0.27906 0.0
H698 H 0.56412 0.73733 0.25066 0.0
C699 C 0.55161 0.81293 0.09252 0.0
C700 C 0.52916 0.7805 0.16898 0.0
H701 H 0.53643 0.76706 0.26459 0.0
C702 C 0.52556 0.76216 0.15326 0.0
C703 C 0.53269 0.78235 0.20982 0.0
C704 C 0.53719 0.80162 0.22817 0.0
C705 C 0.52611 0.74554 0.1769 0.0
C706 C 0.53018 0.74731 0.21757 0.0
C707 C 0.53309 0.76574 0.23356 0.0
C708 C 0.53414 0.73008 0.24238 0.0
C709 C 0.52352 0.7261 0.15771 0.0
C710 C 0.51999 0.71603 0.24945 0.0
C711 C 0.52501 0.69823 0.26619 0.0
C712 C 0.54428 0.6942 0.27586 0.0
C713 C 0.558 0.70894 0.27197 0.0
C714 C 0.55297 0.72671 0.25557 0.0
H715 H 0.52333 0.72707 0.12512 0.0
H716 H 0.53524 0.71614 0.16663 0.0
H717 H 0.50967 0.71975 0.1674 0.0
H718 H 0.50529 0.71843 0.24004 0.0
H719 H 0.51414 0.68712 0.26845 0.0
H720 H 0.67726 0.51397 0.84081 0.0
H721 H 0.70558 0.50765 0.88223 0.0
H722 H 0.72734 0.56431 0.85626 0.0
H723 H 0.69914 0.5708 0.81533 0.0
H724 H 0.75562 0.53019 0.85546 0.0
H725 H 0.7116 0.53918 0.99113 0.0
H726 H 0.70282 0.52368 0.95257 0.0
H727 H 0.70412 0.54915 0.94452 0.0
C728 C 0.68832 0.52489 0.84314 0.0
C729 C 0.68594 0.5429 0.82476 0.0
C730 C 0.7044 0.52132 0.86708 0.0
C731 C 0.71845 0.5356 0.87265 0.0
C732 C 0.71665 0.55312 0.85247 0.0
H733 H 0.80663 0.57149 0.02666 0.0
H734 H 0.7766 0.56524 0.99146 0.0
C735 C 0.70053 0.55678 0.82899 0.0
C736 C 0.73447 0.53298 0.90117 0.0
H737 H 0.74502 0.53573 -0.00073 0.0
C738 C 0.7533 0.53103 0.88694 0.0
C739 C 0.7314 0.53431 0.94221 0.0
C740 C 0.71144 0.53677 0.95884 0.0
C741 C 0.76919 0.53081 0.91261 0.0
C742 C 0.76616 0.5326 0.95361 0.0
C743 C 0.74729 0.53414 0.96791 0.0
C744 C 0.78257 0.53508 0.98129 0.0
C745 C 0.7892 0.52958 0.89564 0.0
C746 C 0.79547 0.51995 0.98909 0.0
C747 C 0.81259 0.52343 0.00985 0.0
C748 C 0.81715 0.54215 0.02269 0.0
C749 C 0.80351 0.5569 0.01728 0.0
C750 C 0.78636 0.55337 -0.00299 0.0
H751 H 0.78919 0.53044 0.86304 0.0
H752 H 0.79831 0.54138 0.90746 0.0
H753 H 0.7959 0.51571 0.90439 0.0
H754 H 0.79275 0.50568 0.97745 0.0
H755 H 0.82289 0.51181 0.0131 0.0
H756 H 0.48777 0.34032 0.23184 0.0
H757 H 0.4973 0.31077 0.19715 0.0
H758 H 0.44299 0.28475 0.2271 0.0
H759 H 0.43341 0.31412 0.26158 0.0
H760 H 0.4759 0.25864 0.22813 0.0
H761 H 0.46907 0.30107 0.08993 0.0
H762 H 0.48512 0.31017 0.12708 0.0
H763 H 0.45971 0.30964 0.13623 0.0
C764 C 0.47819 0.32802 0.2324 0.0
C765 C 0.45981 0.32957 0.24942 0.0
C766 C 0.48356 0.31123 0.21209 0.0
C767 C 0.47069 0.29569 0.20884 0.0
C768 C 0.45312 0.29658 0.22901 0.0
H769 H 0.43783 0.20848 0.05101 0.0
H770 H 0.44438 0.23829 0.0868 0.0
C771 C 0.44769 0.31336 0.24892 0.0
C772 C 0.47436 0.27937 0.18136 0.0
H773 H 0.47393 0.26778 0.08356 0.0
C774 C 0.47587 0.26064 0.19653 0.0
C775 C 0.47401 0.282 0.14006 0.0
C776 C 0.47177 0.30175 0.12209 0.0
C777 C 0.47653 0.24444 0.17159 0.0
C778 C 0.47574 0.24705 0.13032 0.0
C779 C 0.47476 0.26582 0.11514 0.0
C780 C 0.47343 0.23043 0.10299 0.0
C781 C 0.47699 0.22459 0.18959 0.0
C782 C 0.48795 0.21649 0.09835 0.0
C783 C 0.48431 0.19944 0.07731 0.0
C784 C 0.46603 0.19604 0.0609 0.0
C785 C 0.45207 0.21068 0.0632 0.0
C786 C 0.45576 0.22771 0.08382 0.0
H787 H 0.47491 0.22498 0.22196 0.0
H788 H 0.46565 0.21537 0.17643 0.0
H789 H 0.49111 0.21776 0.18342 0.0
H790 H 0.50178 0.21839 0.11249 0.0
H791 H 0.4953 0.18838 0.07644 0.0
H792 H 0.82182 0.9903 0.33169 0.0
H793 H 0.79245 0.99912 0.36754 0.0
H794 H 0.76844 0.94322 0.34241 0.0
H795 H 0.7975 0.93441 0.30641 0.0
H796 H 0.74127 0.97326 0.33793 0.0
H797 H 0.78319 0.97569 0.47731 0.0
H798 H 0.79113 0.99129 0.43842 0.0
H799 H 0.79291 0.96564 0.4326 0.0
C800 C 0.81008 0.98009 0.33292 0.0
C801 C 0.81207 0.9616 0.31637 0.0
C802 C 0.79337 0.98508 0.3538 0.0
C803 C 0.77839 0.97168 0.35842 0.0
C804 C 0.77983 0.95376 0.3395 0.0
H805 H 0.69466 0.93982 0.52292 0.0
H806 H 0.72381 0.94774 0.48651 0.0
C807 C 0.79648 0.94875 0.31883 0.0
C808 C 0.76179 0.97548 0.38502 0.0
H809 H 0.74971 0.97903 0.48224 0.0
C810 C 0.74309 0.97489 0.36942 0.0
C811 C 0.7642 0.97736 0.42621 0.0
C812 C 0.7839 0.97741 0.44488 0.0
C813 C 0.72678 0.97546 0.39387 0.0
C814 C 0.7292 0.9769 0.43513 0.0
C815 C 0.74788 0.97816 0.45063 0.0
C816 C 0.71272 0.9744 0.46264 0.0
C817 C 0.70712 0.97336 0.37552 0.0
C818 C 0.69709 0.98729 0.46318 0.0
C819 C 0.68034 0.98285 0.48442 0.0
C820 C 0.67898 0.96541 0.50526 0.0
C821 C 0.69524 0.95337 0.50716 0.0
C822 C 0.71193 0.95785 0.48622 0.0
H823 H 0.70793 0.96936 0.34394 0.0
H824 H 0.69862 0.96223 0.39121 0.0
H825 H 0.69927 0.98723 0.3779 0.0
H826 H 0.69749 1.00031 0.4457 0.0
H827 H 0.66802 0.99235 0.4821 0.0
H828 H 0.01606 0.34458 0.59696 0.0
H829 H 0.00676 0.31554 0.63359 0.0
H830 H 0.05765 0.28649 0.59179 0.0
H831 H 0.06683 0.31517 0.55504 0.0
H832 H 0.02578 0.26208 0.59717 0.0
H833 H 0.03705 0.30399 0.73489 0.0
H834 H 0.01935 0.31308 0.70111 0.0
H835 H 0.04429 0.31299 0.68745 0.0
C836 C 0.02488 0.33176 0.59447 0.0
C837 C 0.04224 0.3322 0.57327 0.0
C838 C 0.01969 0.31526 0.61586 0.0
C839 C 0.03176 0.29898 0.61623 0.0
C840 C 0.04816 0.29888 0.59223 0.0
H841 H 0.07185 0.21428 0.76954 0.0
H842 H 0.06214 0.24372 0.73585 0.0
C843 C 0.05338 0.31531 0.57111 0.0
C844 C 0.02865 0.28268 0.644 0.0
H845 H 0.03244 0.27075 0.74125 0.0
C846 C 0.02681 0.26397 0.62874 0.0
C847 C 0.03028 0.28517 0.68522 0.0
C848 C 0.03298 0.30483 0.70336 0.0
C849 C 0.02739 0.24767 0.6533 0.0
C850 C 0.02957 0.25014 0.69442 0.0
C851 C 0.03057 0.26888 0.70983 0.0
C852 C 0.03366 0.23353 0.7209 0.0
C853 C 0.02691 0.22792 0.63474 0.0
C854 C 0.02051 0.21833 0.72572 0.0
C855 C 0.02603 0.2014 0.74533 0.0
C856 C 0.0448 0.19943 0.76032 0.0
C857 C 0.05731 0.2153 0.75828 0.0
C858 C 0.05178 0.23217 0.73889 0.0
H859 H 0.02832 0.22854 0.60224 0.0
H860 H 0.03868 0.21877 0.64657 0.0
H861 H 0.01304 0.22085 0.64181 0.0
H862 H 0.00631 0.2192 0.71274 0.0
H863 H 0.01609 0.18941 0.74621 0.0
H864 H 0.07699 0.01773 0.34687 0.0
H865 H 0.04647 0.99987 0.34888 0.0
H866 H 0.02622 0.03196 0.24834 0.0
H867 H 0.05604 0.05042 0.24793 0.0
H868 H 0.99951 0.03127 0.29968 0.0
H869 H 0.02668 0.95651 0.2851 0.0
H870 H 0.03628 0.96876 0.32715 0.0
H871 H 0.04202 0.97717 0.27848 0.0
C872 C 0.06607 0.02068 0.32496 0.0
C873 C 0.06882 0.03536 0.29719 0.0
C874 C 0.04866 0.01044 0.32597 0.0
C875 C 0.03401 0.01435 0.29843 0.0
C876 C 0.03715 0.02867 0.27004 0.0
H877 H 0.93712 0.94189 0.24095 0.0
H878 H 0.9675 0.95942 0.24488 0.0
C879 C 0.05425 0.03916 0.26967 0.0
C880 C 0.01501 1.00436 0.29976 0.0
H881 H 0.99345 0.96017 0.2986 0.0
C882 C 0.99822 0.0157 0.29928 0.0
C883 C 0.01321 0.98404 0.29904 0.0
C884 C 0.0305 0.97091 0.29707 0.0
C885 C 0.97982 0.0074 0.29716 0.0
C886 C 0.97799 0.98709 0.2973 0.0
C887 C 0.99476 0.97573 0.29863 0.0
C888 C 0.95898 0.97723 0.2942 0.0
C889 C 0.96265 0.0206 0.29307 0.0
C890 C 0.94384 0.98146 0.3203 0.0
C891 C 0.92619 0.9718 0.31728 0.0
C892 C 0.92356 0.95732 0.28892 0.0
C893 C 0.93871 0.95304 0.26303 0.0
C894 C 0.95614 0.96298 0.26542 0.0
H895 H 0.96684 0.03491 0.28127 0.0
H896 H 0.95158 0.01431 0.27334 0.0
H897 H 0.95613 0.02296 0.32244 0.0
H898 H 0.94577 0.99192 0.34356 0.0
H899 H 0.91489 0.97511 0.33815 0.0
H900 H 0.96421 0.57405 0.48846 0.0
H901 H 0.98312 0.54439 0.49101 0.0
H902 H 0.02314 0.57149 0.5705 0.0
H903 H 0.00418 0.60144 0.56793 0.0
H904 H 0.02359 0.53583 0.47669 0.0
H905 H 1.00023 0.52376 0.63115 0.0
H906 H 0.98835 0.54073 0.59905 0.0
H907 H 0.0112 0.54663 0.62043 0.0
C908 C 0.97731 0.57387 0.50572 0.0
C909 C 0.98274 0.59007 0.52797 0.0
C910 C 0.98806 0.55688 0.50724 0.0
C911 C 0.00433 0.55563 0.53144 0.0
C912 C 0.01048 0.57211 0.55197 0.0
H913 H 0.08425 0.46034 0.54811 0.0
H914 H 0.06858 0.49153 0.54215 0.0
C915 C 0.9998 0.58927 0.5501 0.0
C916 C 0.01396 0.53669 0.53673 0.0
H917 H 0.02054 0.50023 0.60298 0.0
C918 C 0.02305 0.5281 0.50434 0.0
C919 C 0.01284 0.52646 0.57263 0.0
C920 C 1.00252 0.53471 0.60784 0.0
C921 C 0.03129 0.50964 0.50705 0.0
C922 C 0.03046 0.49954 0.54313 0.0
C923 C 0.02117 0.50803 0.5754 0.0
C924 C 0.03973 0.48039 0.54806 0.0
C925 C 0.04059 0.50093 0.47114 0.0
C926 C 0.0287 0.46372 0.55431 0.0
C927 C 0.03764 0.44563 0.55768 0.0
C928 C 0.05779 0.44397 0.55522 0.0
C929 C 0.06871 0.46089 0.54993 0.0
C930 C 0.05979 0.47883 0.54638 0.0
H931 H 0.03636 0.50858 0.4438 0.0
H932 H 0.05646 0.50186 0.47413 0.0
H933 H 0.0367 0.48548 0.4682 0.0
H934 H 0.01316 0.46466 0.55592 0.0
H935 H 0.02877 0.43299 0.56186 0.0
H936 H 0.42614 0.47552 0.8185 0.0
H937 H 0.45689 0.49272 0.81789 0.0
H938 H 0.47395 0.46129 0.71411 0.0
H939 H 0.44369 0.44351 0.71567 0.0
H940 H 0.50235 0.46172 0.76348 0.0
H941 H 0.47473 0.53632 0.75198 0.0
H942 H 0.46564 0.52413 0.79449 0.0
H943 H 0.45936 0.51563 0.74611 0.0
C944 C 0.43635 0.4725 0.79524 0.0
C945 C 0.43243 0.45822 0.76703 0.0
C946 C 0.45392 0.48239 0.79482 0.0
C947 C 0.46772 0.47857 0.76557 0.0
C948 C 0.46362 0.46454 0.73701 0.0
H949 H 0.5646 0.55335 0.71606 0.0
H950 H 0.53497 0.53453 0.71417 0.0
C951 C 0.44625 0.45442 0.73785 0.0
C952 C 0.48674 0.48854 0.76535 0.0
H953 H 0.50805 0.53286 0.7663 0.0
C954 C 0.50357 0.47729 0.76386 0.0
C955 C 0.48844 0.50887 0.76538 0.0
C956 C 0.47108 0.52194 0.76416 0.0
C957 C 0.52194 0.48573 0.76242 0.0
C958 C 0.52366 0.50604 0.76391 0.0
C959 C 0.50683 0.51729 0.76541 0.0
C960 C 0.54264 0.51609 0.76303 0.0
C961 C 0.53924 0.47273 0.75812 0.0
C962 C 0.55713 0.51182 0.79059 0.0
C963 C 0.57437 0.52231 0.79107 0.0
C964 C 0.57722 0.5376 0.76466 0.0
C965 C 0.56285 0.54163 0.73675 0.0
C966 C 0.54584 0.53093 0.73578 0.0
H967 H 0.53525 0.45864 0.74496 0.0
H968 H 0.55049 0.47946 0.73951 0.0
H969 H 0.54544 0.46987 0.78759 0.0
H970 H 0.55489 0.50083 0.81266 0.0
H971 H 0.58501 0.51911 0.8134 0.0
H972 H 0.57551 0.95594 0.02195 0.0
H973 H 0.55907 0.98693 0.02084 0.0
H974 H 0.50939 0.96132 0.07547 0.0
H975 H 0.52579 0.93 0.0769 0.0
H976 H 0.52358 0.99609 0.98381 0.0
H977 H 0.5217 0.00917 0.14494 0.0
H978 H 0.53744 0.99156 0.12265 0.0
H979 H 0.51236 0.98629 0.12909 0.0
C980 C 0.56109 0.95678 0.03388 0.0
C981 C 0.55202 0.94035 0.04963 0.0
C982 C 0.55172 0.97458 0.03315 0.0
C983 C 0.53311 0.9765 0.04845 0.0
C984 C 0.52388 0.96021 0.06404 0.0
H985 H 0.44849 0.06504 0.01521 0.0
H986 H 0.46829 0.03604 0.0148 0.0
C987 C 0.53324 0.94229 0.06461 0.0
C988 C 0.52331 0.99553 0.04707 0.0
H989 H 0.50466 0.03131 0.10474 0.0
C990 C 0.51949 1.00381 0.01024 0.0
C991 C 0.51826 0.00573 0.08159 0.0
C992 C 0.52276 0.99787 0.12188 0.0
C993 C 0.51029 0.02178 0.00701 0.0
C994 C 0.5047 0.03169 0.04149 0.0
C995 C 0.50895 0.02366 0.07835 0.0
C996 C 0.49335 0.0498 0.03981 0.0
C997 C 0.5066 0.03005 0.96672 0.0
C998 C 0.5009 0.06726 0.05397 0.0
C999 C 0.4896 0.08404 0.05402 0.0
C1000 C 0.47047 0.08351 0.04054 0.0
C1001 C 0.46315 0.06601 0.02587 0.0
C1002 C 0.47446 0.04939 0.02547 0.0
H1003 H 0.51574 0.02312 0.94397 0.0
H1004 H 0.49132 0.02764 0.95868 0.0
H1005 H 0.50929 0.04582 0.96643 0.0
H1006 H 0.51544 0.06784 0.06533 0.0
H1007 H 0.49561 0.09722 0.06582 0.0
H1008 H 0.08655 0.48256 0.02956 0.0
H1009 H 0.05529 0.49865 0.03742 0.0
H1010 H 0.02803 0.45364 0.97017 0.0
H1011 H 0.05902 0.43768 0.96179 0.0
H1012 H 0.01424 0.49061 0.95219 0.0
H1013 H 0.0143 0.47695 0.11307 0.0
H1014 H 0.03485 0.48986 0.09493 0.0
H1015 H 0.03098 0.46533 0.08 0.0
C1016 C 0.07397 0.47633 0.01573 0.0
C1017 C 0.07529 0.45875 -0.00467 0.0
C1018 C 0.05608 0.48541 0.02064 0.0
C1019 C 0.03926 0.47709 0.00516 0.0
C1020 C 0.04077 0.46022 0.98271 0.0
H1021 H 0.91633 0.50775 0.0091 0.0
H1022 H 0.94634 0.48914 0.0029 0.0
C1023 C 0.05854 0.45112 0.97795 0.0
C1024 C 0.01995 0.48539 0.01342 0.0
H1025 H 0.98829 0.49513 0.0877 0.0
C1026 C 0.00852 0.49155 0.98179 0.0
C1027 C 0.01244 0.48641 0.05204 0.0
C1028 C 0.02366 0.47915 0.087 0.0
C1029 C 0.99003 0.49924 0.98781 0.0
C1030 C 0.98258 0.50041 0.02648 0.0
C1031 C 0.99394 0.49408 0.05807 0.0
C1032 C 0.96375 0.50971 0.03495 0.0
C1033 C 0.97888 0.50664 0.95287 0.0
C1034 C 0.96335 0.52677 0.05697 0.0
C1035 C 0.94631 0.53724 0.0608 0.0
C1036 C 0.92921 0.53082 0.04295 0.0
C1037 C 0.92923 0.51296 0.02344 0.0
C1038 C 0.94642 0.50248 0.01941 0.0
H1039 H 0.98813 0.50829 0.92648 0.0
H1040 H 0.96723 0.49632 0.94559 0.0
H1041 H 0.97214 0.52078 0.95961 0.0
H1042 H 0.97647 0.53255 0.06948 0.0
H1043 H 0.94674 0.55093 0.07609 0.0
H1044 H 0.48047 0.42766 0.25625 0.0
H1045 H 0.49884 0.45769 0.26261 0.0
H1046 H 0.44829 0.49047 0.23234 0.0
H1047 H 0.42987 0.46083 0.2258 0.0
H1048 H 0.50378 0.48815 0.20341 0.0
H1049 H 0.46703 0.51402 0.3386 0.0
H1050 H 0.46643 0.48912 0.3231 0.0
H1051 H 0.45148 0.50665 0.29912 0.0
C1052 C 0.47326 0.44124 0.25081 0.0
C1053 C 0.45362 0.44173 0.24071 0.0
C1054 C 0.48378 0.45838 0.25453 0.0
C1055 C 0.47481 0.47629 0.24862 0.0
C1056 C 0.45538 0.47682 0.23776 0.0
H1057 H 0.51346 0.59628 0.25776 0.0
H1058 H 0.49384 0.56682 0.25499 0.0
C1059 C 0.44491 0.45978 0.23382 0.0
C1060 C 0.48574 0.49451 0.25309 0.0
H1061 H 0.48841 0.53581 0.30766 0.0
C1062 C 0.50051 0.49853 0.22631 0.0
C1063 C 0.48126 0.50811 0.28273 0.0
C1064 C 0.46579 0.50428 0.31278 0.0
C1065 C 0.51081 0.5159 0.22808 0.0
C1066 C 0.50653 0.52943 0.25808 0.0
C1067 C 0.49166 0.52546 0.28471 0.0
C1068 C 0.5179 0.54738 0.26295 0.0
C1069 C 0.52593 0.51978 0.19727 0.0
C1070 C 0.53773 0.54624 0.26991 0.0
C1071 C 0.54888 0.5629 0.27138 0.0
C1072 C 0.54045 0.58119 0.26641 0.0
C1073 C 0.52039 0.58243 0.2617 0.0
C1074 C 0.50919 0.56562 0.25996 0.0
H1075 H 0.52355 0.51097 0.17043 0.0
H1076 H 0.52611 0.53523 0.18882 0.0
H1077 H 0.54029 0.51598 0.20927 0.0
H1078 H 0.54468 0.53237 0.27344 0.0
H1079 H 0.56426 0.56139 0.27568 0.0
H1080 H 0.44547 0.06565 0.54518 0.0
H1081 H 0.47463 0.04634 0.54224 0.0
H1082 H 0.44085 0.9953 0.52167 0.0
H1083 H 0.41124 0.0146 0.52459 0.0
H1084 H 0.47159 0.99179 0.58015 0.0
H1085 H 0.49717 0.02316 0.43956 0.0
H1086 H 0.49056 0.04053 0.47635 0.0
H1087 H 0.47249 0.02504 0.45571 0.0
C1088 C 0.44407 0.05031 0.54015 0.0
C1089 C 0.42586 0.04174 0.53493 0.0
C1090 C 0.46085 0.03931 0.53826 0.0
C1091 C 0.45994 0.01947 0.53104 0.0
C1092 C 0.44186 0.01066 0.52695 0.0
H1093 H 0.54839 0.93095 0.51711 0.0
H1094 H 0.51827 0.94881 0.51944 0.0
C1095 C 0.42495 0.02171 0.52869 0.0
C1096 C 0.47798 0.00809 0.52805 0.0
H1097 H 0.51946 1.00384 0.47486 0.0
C1098 C 0.482 0.99427 0.55697 0.0
C1099 C 0.49159 0.01149 0.49793 0.0
C1100 C 0.48773 0.02574 0.46538 0.0
C1101 C 0.4995 0.98409 0.55715 0.0
C1102 C 0.51316 0.98753 0.52706 0.0
C1103 C 0.50904 1.00126 0.49798 0.0
C1104 C 0.53166 0.97679 0.52489 0.0
C1105 C 0.50342 0.97016 0.59022 0.0
C1106 C 0.54933 0.98661 0.52575 0.0
C1107 C 0.56674 0.97641 0.52406 0.0
C1108 C 0.5668 0.95618 0.52135 0.0
C1109 C 0.54901 0.94648 0.51968 0.0
C1110 C 0.53169 0.95667 0.52123 0.0
H1111 H 0.49426 0.97321 0.61624 0.0
H1112 H 0.50018 0.95531 0.58012 0.0
H1113 H 0.51875 0.97069 0.5994 0.0
H1114 H 0.54965 1.00217 0.52823 0.0
H1115 H 0.58012 0.98437 0.52529 0.0
H1116 H 0.07614 0.06802 0.77665 0.0
H1117 H 0.05793 0.03813 0.77292 0.0
H1118 H 0.00596 0.07029 0.75093 0.0
H1119 H 0.02415 0.10054 0.75441 0.0
H1120 H 0.02555 0.026 0.8181 0.0
H1121 H 0.00917 0.03117 0.65851 0.0
H1122 H 0.0276 0.0455 0.68182 0.0
H1123 H 1.00271 0.05184 0.68753 0.0
C1124 C 0.06083 0.06887 0.77108 0.0
C1125 C 0.05166 0.08679 0.76563 0.0
C1126 C 0.05044 0.05169 0.76903 0.0
C1127 C 0.03066 0.05195 0.76115 0.0
C1128 C 0.0213 0.06976 0.75646 0.0
H1129 H 0.94402 0.96495 0.72843 0.0
H1130 H 0.96325 0.99407 0.73271 0.0
C1131 C 0.03169 0.08705 0.75872 0.0
C1132 C 0.02 0.03349 0.75779 0.0
H1133 H 0.99523 0.00519 0.69309 0.0
C1134 C 0.01893 0.0214 0.79078 0.0
C1135 C 0.01151 0.0275 0.72205 0.0
C1136 C 0.01288 0.03956 0.68529 0.0
C1137 C 0.00916 1.00368 0.78927 0.0
C1138 C 1.00061 0.99769 0.75351 0.0
C1139 C 1.00183 0.00975 0.72045 0.0
C1140 C 0.98938 0.97951 0.75027 0.0
C1141 C 0.00759 0.99184 0.8263 0.0
C1142 C 0.99774 0.96145 0.75806 0.0
C1143 C 0.98668 0.94457 0.75584 0.0
C1144 C 0.96708 0.94546 0.74553 0.0
C1145 C 0.959 0.96358 0.73674 0.0
C1146 C 0.97 0.98034 0.73908 0.0
H1147 H 0.01076 1.00053 0.85297 0.0
H1148 H 0.99298 0.98557 0.82928 0.0
H1149 H 0.01811 0.97983 0.82503 0.0
H1150 H 0.0128 0.96039 0.76589 0.0
H1151 H 0.99343 0.93089 0.76257 0.0
H1152 H 0.11522 0.15998 0.6867 0.0
H1153 H 0.13092 0.15893 0.62174 0.0
H1154 H 0.08347 0.12546 0.5767 0.0
H1155 H 0.06816 0.12614 0.64127 0.0
H1156 H 0.14067 0.12355 0.5795 0.0
H1157 H 0.09091 0.16941 0.49491 0.0
H1158 H 0.09357 0.17136 0.5477 0.0
H1159 H 0.07802 0.15334 0.52664 0.0
C1160 C 0.10842 0.15219 0.66286 0.0
C1161 C 0.09095 0.14249 0.66884 0.0
C1162 C 0.11718 0.15187 0.62588 0.0
C1163 C 0.10813 0.14243 0.59449 0.0
C1164 C 0.09046 0.13315 0.60047 0.0
H1165 H 0.10907 0.06662 0.42533 0.0
H1166 H 0.11146 0.08847 0.48174 0.0
C1167 C 0.08184 0.13335 0.63728 0.0
C1168 C 0.11745 0.14045 0.55593 0.0
H1169 H 0.10458 0.14169 0.45963 0.0
C1170 C 0.13328 0.12804 0.55309 0.0
C1171 C 0.10808 0.14679 0.52145 0.0
C1172 C 0.09182 0.16115 0.5228 0.0
C1173 C 0.13811 0.11949 0.51717 0.0
C1174 C 0.12692 0.1238 0.48371 0.0
C1175 C 0.11294 0.13828 0.48553 0.0
C1176 C 0.12659 0.11074 0.4498 0.0
C1177 C 0.15385 0.10456 0.51592 0.0
C1178 C 0.13422 0.11626 0.41347 0.0
C1179 C 0.1329 0.10376 0.38139 0.0
C1180 C 0.12338 0.08603 0.38518 0.0
C1181 C 0.11605 0.08045 0.42173 0.0
C1182 C 0.11753 0.09281 0.4538 0.0
H1183 H 0.16421 0.1065 0.54049 0.0
H1184 H 0.14735 0.09002 0.51865 0.0
H1185 H 0.16173 0.10518 0.48756 0.0
H1186 H 0.1412 0.1301 0.41005 0.0
H1187 H 0.13938 0.10789 0.35371 0.0
H1188 H 0.91146 0.64458 0.63014 0.0
H1189 H 0.89623 0.63386 0.69048 0.0
H1190 H 0.95193 0.617 0.73589 0.0
H1191 H 0.96639 0.62478 0.67253 0.0
H1192 H 0.93223 0.59035 0.74826 0.0
H1193 H 0.88529 0.64997 0.79378 0.0
H1194 H 0.87845 0.6432 0.74509 0.0
H1195 H 0.90221 0.65291 0.75434 0.0
C1196 C 0.92022 0.63805 0.65283 0.0
C1197 C 0.93961 0.63389 0.64599 0.0
C1198 C 0.91167 0.6326 0.68805 0.0
C1199 C 0.92277 0.62432 0.71814 0.0
C1200 C 0.94281 0.62269 0.71283 0.0
H1201 H 0.87283 0.59977 0.9429 0.0
H1202 H 0.88165 0.61356 0.88014 0.0
C1203 C 0.95113 0.62718 0.67678 0.0
C1204 C 0.91346 0.61502 0.75252 0.0
H1205 H 0.87597 0.61835 0.81621 0.0
C1206 C 0.92039 0.5969 0.76413 0.0
C1207 C 0.8977 0.62316 0.77294 0.0
C1208 C 0.89069 0.64347 0.76604 0.0
C1209 C 0.91282 0.58711 0.79643 0.0
C1210 C 0.8963 0.59471 0.81566 0.0
C1211 C 0.88869 0.61238 0.80241 0.0
C1212 C 0.88808 0.58603 0.85208 0.0
C1213 C 0.92345 0.56919 0.80947 0.0
C1214 C 0.88707 0.56596 0.85757 0.0
C1215 C 0.88436 0.55841 0.89517 0.0
C1216 C 0.88104 0.57082 0.92694 0.0
C1217 C 0.87781 0.59034 0.91973 0.0
C1218 C 0.8821 0.59806 0.88312 0.0
H1219 H 0.93875 0.56946 0.80007 0.0
H1220 H 0.92333 0.56744 0.84174 0.0
H1221 H 0.91676 0.55638 0.79557 0.0
H1222 H 0.88938 0.5561 0.83345 0.0
H1223 H 0.88525 0.54298 0.89951 0.0
H1224 H 0.43794 0.39532 0.11548 0.0
H1225 H 0.4263 0.38487 0.05117 0.0
H1226 H 0.38392 0.34873 0.10735 0.0
H1227 H 0.39491 0.36021 0.17185 0.0
H1228 H 0.42645 0.34786 0.02202 0.0
H1229 H 0.35118 0.376 0.0273 0.0
H1230 H 0.36932 0.38487 0.0604 0.0
H1231 H 0.35994 0.36095 0.06645 0.0
C1232 C 0.42578 0.38558 0.11387 0.0
C1233 C 0.41691 0.37894 0.1481 0.0
C1234 C 0.41931 0.3794 0.07733 0.0
C1235 C 0.40427 0.36596 0.07445 0.0
C1236 C 0.39528 0.35935 0.10879 0.0
H1237 H 0.36608 0.38385 0.83848 0.0
H1238 H 0.37042 0.35894 0.88903 0.0
C1239 C 0.40149 0.36596 0.14549 0.0
C1240 C 0.39834 0.35945 0.0349 0.0
H1241 H 0.36503 0.37149 0.96598 0.0
C1242 C 0.41274 0.35236 0.00979 0.0
C1243 C 0.38021 0.36451 0.0191 0.0
C1244 C 0.36415 0.37197 0.04454 0.0
C1245 C 0.41069 0.35362 0.96897 0.0
C1246 C 0.39383 0.36197 0.95347 0.0
C1247 C 0.3781 0.36539 0.97823 0.0
C1248 C 0.39446 0.37325 0.91691 0.0
C1249 C 0.42734 0.3482 0.94295 0.0
C1250 C 0.40655 0.38946 0.91601 0.0
C1251 C 0.40381 0.40377 0.88798 0.0
C1252 C 0.38933 0.40178 0.8598 0.0
C1253 C 0.37768 0.38528 0.85957 0.0
C1254 C 0.38021 0.37105 0.88809 0.0
H1255 H 0.43587 0.3363 0.95612 0.0
H1256 H 0.42223 0.34376 0.91343 0.0
H1257 H 0.437 0.36081 0.93952 0.0
H1258 H 0.41716 0.3918 0.93887 0.0
H1259 H 0.41264 0.41661 0.88892 0.0
H1260 H 0.60602 0.93002 0.39286 0.0
H1261 H 0.61347 0.91311 0.33163 0.0
H1262 H 0.65367 0.87659 0.39322 0.0
H1263 H 0.64595 0.89343 0.45502 0.0
H1264 H 0.65751 0.91141 0.30814 0.0
H1265 H 0.61802 0.84188 0.31311 0.0
H1266 H 0.60723 0.86198 0.33839 0.0
H1267 H 0.62964 0.85222 0.35577 0.0
C1268 C 0.61599 0.91801 0.39343 0.0
C1269 C 0.62513 0.91267 0.42835 0.0
C1270 C 0.6203 0.90845 0.35864 0.0
C1271 C 0.63416 0.89374 0.35817 0.0
C1272 C 0.64287 0.88785 0.39327 0.0
H1273 H 0.61737 0.86274 0.11511 0.0
H1274 H 0.64011 0.86107 0.17057 0.0
C1275 C 0.63836 0.89734 0.42836 0.0
C1276 C 0.64031 0.88625 0.31977 0.0
H1277 H 0.62193 0.85654 0.24992 0.0
C1278 C 0.65056 0.89888 0.29541 0.0
C1279 C 0.63163 0.86972 0.30359 0.0
C1280 C 0.6211 0.85551 0.32903 0.0
C1281 C 0.64947 0.89714 0.25453 0.0
C1282 C 0.63792 0.88248 0.23827 0.0
C1283 C 0.63063 0.86792 0.26263 0.0
C1284 C 0.6279 0.88563 0.20077 0.0
C1285 C 0.65851 0.91237 0.22912 0.0
C1286 C 0.61368 0.9 0.19968 0.0
C1287 C 0.60053 0.90064 0.16893 0.0
C1288 C 0.60185 0.88734 0.13821 0.0
C1289 C 0.61656 0.87345 0.13824 0.0
C1290 C 0.6295 0.8725 0.16964 0.0
H1291 H 0.67144 0.91861 0.24345 0.0
H1292 H 0.66261 0.90632 0.20012 0.0
H1293 H 0.64799 0.92417 0.22432 0.0
H1294 H 0.61193 0.90992 0.22403 0.0
H1295 H 0.589 0.91115 0.16967 0.0
H1296 H 0.118 0.36219 0.61357 0.0
H1297 H 0.13953 0.355 0.66909 0.0
H1298 H 0.10383 0.38984 0.74475 0.0
H1299 H 0.08282 0.39761 0.68915 0.0
H1300 H 0.15766 0.38713 0.72166 0.0
H1301 H 0.11257 0.33423 0.79976 0.0
H1302 H 0.11216 0.33706 0.7468 0.0
H1303 H 0.09857 0.35313 0.77773 0.0
C1304 C 0.1151 0.36862 0.64197 0.0
C1305 C 0.09932 0.38105 0.64717 0.0
C1306 C 0.12716 0.36423 0.67357 0.0
C1307 C 0.12302 0.37169 0.7108 0.0
C1308 C 0.10702 0.38378 0.71611 0.0
H1309 H 0.12766 0.43403 0.87708 0.0
H1310 H 0.13495 0.41419 0.81973 0.0
C1311 C 0.09516 0.38834 0.68451 0.0
C1312 C 0.13579 0.36836 0.74445 0.0
H1313 H 0.12938 0.35795 0.84084 0.0
C1314 C 0.15208 0.38009 0.74754 0.0
C1315 C 0.12893 0.35856 0.77787 0.0
C1316 C 0.11219 0.34484 0.77534 0.0
C1317 C 0.15917 0.38534 0.78448 0.0
C1318 C 0.14961 0.37856 0.8183 0.0
C1319 C 0.13618 0.36365 0.81478 0.0
C1320 C 0.14795 0.39098 0.85314 0.0
C1321 C 0.17493 0.40016 0.78709 0.0
C1322 C 0.15252 0.38429 0.89082 0.0
C1323 C 0.14831 0.39568 0.9236 0.0
C1324 C 0.13881 0.41341 0.91893 0.0
C1325 C 0.13464 0.42021 0.88123 0.0
C1326 C 0.13905 0.40902 0.84859 0.0
H1327 H 0.18542 0.39823 0.76276 0.0
H1328 H 0.16857 0.41476 0.78414 0.0
H1329 H 0.18261 0.39929 0.81568 0.0
H1330 H 0.15912 0.37028 0.89481 0.0
H1331 H 0.15238 0.39063 0.95255 0.0
H1332 H 0.59721 0.65773 0.17274 0.0
H1333 H 0.60687 0.66128 0.10387 0.0
H1334 H 0.55997 0.62406 0.06924 0.0
H1335 H 0.54948 0.62211 0.13743 0.0
H1336 H 0.62061 0.63839 0.05898 0.0
H1337 H 0.55545 0.65971 0.98224 0.0
H1338 H 0.55686 0.66108 0.03515 0.0
H1339 H 0.54824 0.63948 0.01103 0.0
C1340 C 0.58894 0.65056 0.15004 0.0
C1341 C 0.57295 0.63928 0.15983 0.0
C1342 C 0.59433 0.6527 0.1108 0.0
C1343 C 0.58391 0.64336 0.08094 0.0
C1344 C 0.56777 0.63221 0.09117 0.0
H1345 H 0.59663 0.5708 0.90058 0.0
H1346 H 0.58877 0.59314 0.95418 0.0
C1347 C 0.56201 0.63067 0.13021 0.0
C1348 C 0.5913 0.64268 0.04011 0.0
H1349 H 0.5752 0.63441 0.94711 0.0
C1350 C 0.61073 0.63784 0.03447 0.0
C1351 C 0.57886 0.64328 0.00719 0.0
C1352 C 0.55878 0.65145 0.00937 0.0
C1353 C 0.61715 0.63036 -0.00139 0.0
C1354 C 0.60383 0.62815 0.96766 0.0
C1355 C 0.58518 0.63556 0.97147 0.0
C1356 C 0.60805 0.61555 0.93407 0.0
C1357 C 0.6376 0.62319 -0.00477 0.0
C1358 C 0.62155 0.62084 0.90556 0.0
C1359 C 0.62604 0.6081 0.87522 0.0
C1360 C 0.61678 0.59018 0.87281 0.0
C1361 C 0.60357 0.58475 0.90172 0.0
C1362 C 0.59906 0.59749 0.93199 0.0
H1363 H 0.64593 0.62541 0.02274 0.0
H1364 H 0.63766 0.6076 0.98795 0.0
H1365 H 0.64503 0.63091 0.97111 0.0
H1366 H 0.62862 0.63472 0.90688 0.0
H1367 H 0.63672 0.6122 0.85363 0.0
H1368 H 0.35851 0.11173 0.45581 0.0
H1369 H 0.36298 0.1319 0.39695 0.0
H1370 H 0.39914 0.08789 0.34624 0.0
H1371 H 0.39498 0.06795 0.40507 0.0
H1372 H 0.40861 0.13773 0.35788 0.0
H1373 H 0.34764 0.10851 0.27064 0.0
H1374 H 0.34668 0.11122 0.32353 0.0
H1375 H 0.36015 0.0918 0.30215 0.0
C1376 C 0.36764 0.10662 0.43221 0.0
C1377 C 0.37702 0.08875 0.43508 0.0
C1378 C 0.37 0.11799 0.39871 0.0
C1379 C 0.3814 0.11128 0.3677 0.0
C1380 C 0.39033 0.09321 0.37019 0.0
H1381 H 0.44964 0.11954 0.17907 0.0
H1382 H 0.43322 0.11987 0.24267 0.0
C1383 C 0.38801 0.08191 0.40358 0.0
C1384 C 0.38453 0.12289 0.33236 0.0
H1385 H 0.37366 0.12242 0.23507 0.0
C1386 C 0.40076 0.13476 0.33115 0.0
C1387 C 0.37389 0.11938 0.29784 0.0
C1388 C 0.356 0.10714 0.29836 0.0
C1389 C 0.40797 0.14141 0.29532 0.0
C1390 C 0.39876 0.1357 0.26018 0.0
C1391 C 0.38108 0.12606 0.26196 0.0
C1392 C 0.40878 0.1365 0.22208 0.0
C1393 C 0.42597 0.15352 0.29534 0.0
C1394 C 0.40012 0.14509 0.18928 0.0
C1395 C 0.40936 0.14458 0.15291 0.0
C1396 C 0.42709 0.13509 0.14889 0.0
C1397 C 0.43582 0.12667 0.18168 0.0
C1398 C 0.42658 0.12711 0.21793 0.0
H1399 H 0.42662 0.16273 0.32203 0.0
H1400 H 0.43874 0.14392 0.2958 0.0
H1401 H 0.42677 0.16284 0.26889 0.0
H1402 H 0.3863 0.1522 0.19185 0.0
H1403 H 0.40276 0.15171 0.12799 0.0
H1404 H 0.90345 0.86555 0.68944 0.0
H1405 H 0.88649 0.85476 0.63018 0.0
H1406 H 0.92931 0.88294 0.55854 0.0
H1407 H 0.94642 0.89324 0.61769 0.0
H1408 H 0.86966 0.87524 0.57768 0.0
H1409 H 0.92406 0.83392 0.49875 0.0
H1410 H 0.92642 0.83909 0.55064 0.0
H1411 H 0.93562 0.85564 0.51424 0.0
C1412 C 0.90912 0.86941 0.66087 0.0
C1413 C 0.92585 0.88063 0.65765 0.0
C1414 C 0.89962 0.86301 0.62718 0.0
C1415 C 0.90693 0.86752 0.58992 0.0
C1416 C 0.92381 0.8786 0.58694 0.0
H1417 H 0.89228 0.92718 0.41296 0.0
H1418 H 0.89611 0.90552 0.46915 0.0
C1419 C 0.93338 0.88481 0.62059 0.0
C1420 C 0.89579 0.86327 0.55398 0.0
H1421 H 0.90473 0.85698 0.45673 0.0
C1422 C 0.87709 0.87076 0.55131 0.0
C1423 C 0.90485 0.85614 0.51976 0.0
C1424 C 0.92376 0.84552 0.52125 0.0
C1425 C 0.86903 0.87506 0.51467 0.0
C1426 C 0.87986 0.87128 0.48053 0.0
C1427 C 0.89677 0.8604 0.48313 0.0
C1428 C 0.87733 0.88345 0.44572 0.0
C1429 C 0.8503 0.88597 0.5128 0.0
C1430 C 0.8654 0.87808 0.41443 0.0
C1431 C 0.86326 0.89046 0.38232 0.0
C1432 C 0.87329 0.90801 0.38125 0.0
C1433 C 0.88482 0.91348 0.41301 0.0
C1434 C 0.88699 0.90117 0.44488 0.0
H1435 H 0.84178 0.88417 0.54017 0.0
H1436 H 0.85337 0.90155 0.50889 0.0
H1437 H 0.84159 0.88109 0.48731 0.0
H1438 H 0.85775 0.8645 0.41501 0.0
H1439 H 0.85375 0.88642 0.35848 0.0
H1440 H 0.06008 0.13281 0.89408 0.0
H1441 H 0.06598 0.12136 0.96138 0.0
H1442 H 0.12711 0.12672 0.94302 0.0
H1443 H 0.12135 0.13803 0.87621 0.0
H1444 H 0.08855 0.08664 0.97234 0.0
H1445 H 0.11893 0.14862 0.0549 0.0
H1446 H 0.10449 0.1516 0.01114 0.0
H1447 H 0.1293 0.1446 0.00722 0.0
C1448 C 0.07471 0.13227 0.90503 0.0
C1449 C 0.09025 0.13633 0.88005 0.0
C1450 C 0.07807 0.12557 0.94326 0.0
C1451 C 0.09699 0.12324 0.95711 0.0
C1452 C 0.11242 0.12864 0.93311 0.0
H1453 H 0.14719 0.07483 0.17057 0.0
H1454 H 0.14363 0.08554 0.10196 0.0
C1455 C 0.10909 0.1351 0.89493 0.0
C1456 C 0.10083 0.11299 -0.00559 0.0
H1457 H 0.12212 0.11778 0.08425 0.0
C1458 C 0.09576 0.09347 -0.00303 0.0
C1459 C 0.11059 0.12184 0.02605 0.0
C1460 C 0.11604 0.14286 0.025 0.0
C1461 C 0.10027 0.0825 0.03035 0.0
C1462 C 0.10979 0.09141 0.0623 0.0
C1463 C 0.11501 0.11091 0.05956 0.0
C1464 C 0.11276 0.08141 0.1003 0.0
C1465 C 0.09502 0.06141 0.03086 0.0
C1466 C 0.09673 0.07496 0.12149 0.0
C1467 C 0.09879 0.06879 0.16019 0.0
C1468 C 0.11689 0.06895 0.17848 0.0
C1469 C 0.13318 0.07416 0.15667 0.0
C1470 C 0.1311 0.08048 0.11776 0.0
H1471 H 0.09403 0.05546 0.0006 0.0
H1472 H 0.10568 0.05283 0.04775 0.0
H1473 H 0.08073 0.05968 0.04491 0.0
H1474 H 0.08242 0.07595 0.10907 0.0
H1475 H 0.08599 0.06514 0.17679 0.0
H1476 H 0.89697 0.63456 0.45357 0.0
H1477 H 0.88626 0.62816 0.3868 0.0
H1478 H 0.94412 0.63651 0.34445 0.0
H1479 H 0.95511 0.64265 0.41209 0.0
H1480 H 0.88676 0.64641 0.31578 0.0
H1481 H 0.93237 0.58059 0.31425 0.0
H1482 H 0.92833 0.59454 0.35823 0.0
H1483 H 0.94523 0.60271 0.32195 0.0
C1484 C 0.90739 0.63548 0.42999 0.0
C1485 C 0.92694 0.63888 0.43808 0.0
C1486 C 0.90121 0.63181 0.39179 0.0
C1487 C 0.91446 0.63136 0.36083 0.0
C1488 C 0.93374 0.63637 0.36817 0.0
H1489 H 0.8897 0.61712 0.11611 0.0
H1490 H 0.89489 0.62927 0.18212 0.0
C1491 C 0.93997 0.64013 0.40666 0.0
C1492 C 0.9081 0.62411 0.32194 0.0
H1493 H 0.91444 0.58716 0.25687 0.0
C1494 C 0.89285 0.6335 0.3028 0.0
C1495 C 0.91565 0.6069 0.3057 0.0
C1496 C 0.93117 0.59545 0.32618 0.0
C1497 C 0.88519 0.62636 0.26748 0.0
C1498 C 0.89325 0.60958 0.25049 0.0
C1499 C 0.90827 0.60001 0.26996 0.0
C1500 C 0.88745 0.60257 0.21105 0.0
C1501 C 0.86839 0.63673 0.249 0.0
C1502 C 0.88141 0.58344 0.20517 0.0
C1503 C 0.87847 0.57631 0.16703 0.0
C1504 C 0.88183 0.58819 0.13435 0.0
C1505 C 0.88701 0.60755 0.14062 0.0
C1506 C 0.88987 0.61461 0.17846 0.0
H1507 H 0.85998 0.64486 0.2713 0.0
H1508 H 0.87384 0.64725 0.22716 0.0
H1509 H 0.85861 0.62654 0.23371 0.0
H1510 H 0.87958 0.57387 0.23002 0.0
H1511 H 0.87464 0.56131 0.16309 0.0
H1512 H 0.35106 0.40777 0.66354 0.0
H1513 H 0.35532 0.40402 0.59276 0.0
H1514 H 0.38761 0.45701 0.58931 0.0
H1515 H 0.38362 0.46059 0.66061 0.0
H1516 H 0.35074 0.42428 0.52216 0.0
H1517 H 0.42747 0.4146 0.56393 0.0
H1518 H 0.4084 0.4159 0.59976 0.0
H1519 H 0.41731 0.43751 0.57714 0.0
C1520 C 0.35825 0.41909 0.64734 0.0
C1521 C 0.36705 0.43444 0.66727 0.0
C1522 C 0.3608 0.41687 0.60697 0.0
C1523 C 0.37227 0.42993 0.58617 0.0
C1524 C 0.37902 0.44659 0.60516 0.0
H1525 H 0.39866 0.42803 0.34114 0.0
H1526 H 0.38844 0.43495 0.40775 0.0
C1527 C 0.37644 0.44883 0.64568 0.0
C1528 C 0.37929 0.42459 0.54662 0.0
H1529 H 0.42002 0.41227 0.49632 0.0
C1530 C 0.36588 0.42173 0.51642 0.0
C1531 C 0.399 0.42061 0.5397 0.0
C1532 C 0.4139 0.42211 0.57187 0.0
C1533 C 0.37173 0.41551 0.47906 0.0
C1534 C 0.39153 0.41239 0.47167 0.0
C1535 C 0.40488 0.41477 0.50212 0.0
C1536 C 0.39871 0.40802 0.43177 0.0
C1537 C 0.35662 0.41217 0.44791 0.0
C1538 C 0.40877 0.39089 0.42352 0.0
C1539 C 0.41488 0.38685 0.38505 0.0
C1540 C 0.41093 0.39995 0.35462 0.0
C1541 C 0.40156 0.41739 0.36366 0.0
C1542 C 0.39562 0.4214 0.40175 0.0
H1543 H 0.34227 0.40945 0.46111 0.0
H1544 H 0.35544 0.4252 0.4292 0.0
H1545 H 0.36048 0.39977 0.42881 0.0
H1546 H 0.41151 0.38051 0.4466 0.0
H1547 H 0.42213 0.37337 0.37896 0.0
H1548 H 0.60314 0.95044 0.64396 0.0
H1549 H 0.59384 0.94341 0.71222 0.0
H1550 H 0.62513 0.88979 0.70682 0.0
H1551 H 0.63418 0.89666 0.63886 0.0
H1552 H 0.57227 0.90687 0.72805 0.0
H1553 H 0.63918 0.91459 0.81615 0.0
H1554 H 0.63545 0.92709 0.77019 0.0
H1555 H 0.64168 0.90199 0.77021 0.0
C1556 C 0.60868 0.93759 0.65807 0.0
C1557 C 0.61957 0.92418 0.63662 0.0
C1558 C 0.60319 0.93348 0.69674 0.0
C1559 C 0.60884 0.9161 0.71439 0.0
C1560 C 0.62081 0.90336 0.69379 0.0
H1561 H 0.59184 0.85707 0.93236 0.0
H1562 H 0.59748 0.86361 0.86268 0.0
C1563 C 0.62604 0.90732 0.65509 0.0
C1564 C 0.60067 0.9101 0.7525 0.0
H1565 H 0.61316 0.89828 0.84621 0.0
C1566 C 0.5811 0.90514 0.7541 0.0
C1567 C 0.61233 0.9077 0.78605 0.0
C1568 C 0.63331 0.91324 0.78589 0.0
C1569 C 0.57299 0.8973 0.78833 0.0
C1570 C 0.58472 0.89471 0.82186 0.0
C1571 C 0.60422 0.90002 0.8203 0.0
C1572 C 0.57718 0.88724 0.85961 0.0
C1573 C 0.55212 0.89137 0.78792 0.0
C1574 C 0.563 0.89752 0.88024 0.0
C1575 C 0.55947 0.89346 0.91982 0.0
C1576 C 0.57023 0.87924 0.93922 0.0
C1577 C 0.58308 0.8678 0.91768 0.0
C1578 C 0.58647 0.8717 0.87805 0.0
H1579 H 0.54684 0.88889 0.7575 0.0
H1580 H 0.54983 0.87806 0.80536 0.0
H1581 H 0.54331 0.90305 0.80106 0.0
H1582 H 0.55594 0.9098 0.86693 0.0
H1583 H 0.54995 0.90284 0.93627 0.0
H1584 H 0.05612 0.38763 0.42925 0.0
H1585 H 0.05959 0.39188 0.35778 0.0
H1586 H 0.12131 0.39319 0.37079 0.0
H1587 H 0.11804 0.38874 0.4411 0.0
H1588 H 0.07692 0.42419 0.32447 0.0
H1589 H 0.11482 0.35811 0.27673 0.0
H1590 H 0.1023 0.3597 0.32311 0.0
H1591 H 0.12633 0.36907 0.31826 0.0
C1592 C 0.0704 0.38826 0.41657 0.0
C1593 C 0.08679 0.38791 0.44072 0.0
C1594 C 0.07236 0.39079 0.3759 0.0
C1595 C 0.09072 0.39265 0.35905 0.0
C1596 C 0.10704 0.39139 0.38302 0.0
H1597 H 0.14389 0.43073 0.14282 0.0
H1598 H 0.13631 0.42418 0.21228 0.0
C1599 C 0.10511 0.38898 0.42334 0.0
C1600 C 0.09316 0.39796 0.31732 0.0
H1601 H 0.118 0.38575 0.2345 0.0
C1602 C 0.08564 0.41565 0.30454 0.0
C1603 C 0.10468 0.38685 0.29159 0.0
C1604 C 0.11233 0.36729 0.30301 0.0
C1605 C 0.0899 0.42284 0.26704 0.0
C1606 C 0.10193 0.41202 0.24193 0.0
C1607 C 0.1091 0.39416 0.25432 0.0
C1608 C 0.10619 0.41831 0.20153 0.0
C1609 C 0.0819 0.44212 0.25472 0.0
C1610 C 0.09168 0.4174 0.17311 0.0
C1611 C 0.09598 0.42093 0.13387 0.0
C1612 C 0.11485 0.42551 0.12236 0.0
C1613 C 0.12923 0.42734 0.15108 0.0
C1614 C 0.12494 0.42354 0.19053 0.0
H1615 H 0.07583 0.45027 0.27997 0.0
H1616 H 0.09326 0.45097 0.24058 0.0
H1617 H 0.07028 0.43987 0.23282 0.0
H1618 H 0.07719 0.41321 0.18109 0.0
H1619 H 0.08459 0.41955 0.11227 0.0
H1620 H 0.64693 0.60702 0.67646 0.0
H1621 H 0.64382 0.61427 0.60684 0.0
H1622 H 0.62785 0.55526 0.58402 0.0
H1623 H 0.63038 0.54811 0.65464 0.0
H1624 H 0.65668 0.6031 0.53652 0.0
H1625 H 0.57947 0.58412 0.55327 0.0
H1626 H 0.59574 0.58523 0.59446 0.0
H1627 H 0.59582 0.5646 0.56242 0.0
C1628 C 0.6434 0.59542 0.65647 0.0
C1629 C 0.63874 0.57706 0.67086 0.0
C1630 C 0.64156 0.59959 0.61662 0.0
C1631 C 0.63499 0.58547 0.5904 0.0
C1632 C 0.63245 0.5665 0.60399 0.0
H1633 H 0.62083 0.60647 0.34174 0.0
H1634 H 0.63239 0.59763 0.40632 0.0
C1635 C 0.63423 0.56232 0.64416 0.0
C1636 C 0.62883 0.59144 0.55043 0.0
H1637 H 0.58931 0.59525 0.49117 0.0
C1638 C 0.64198 0.60128 0.52647 0.0
C1639 C 0.60946 0.58962 0.5379 0.0
C1640 C 0.59423 0.5805 0.56343 0.0
C1641 C 0.63637 0.60927 0.49034 0.0
C1642 C 0.61717 0.60687 0.47723 0.0
C1643 C 0.60401 0.59708 0.50121 0.0
C1644 C 0.61062 0.61359 0.43801 0.0
C1645 C 0.65095 0.62068 0.46721 0.0
C1646 C 0.59421 0.62533 0.43403 0.0
C1647 C 0.5872 0.63021 0.39666 0.0
C1648 C 0.59648 0.62337 0.36269 0.0
C1649 C 0.61322 0.61207 0.36706 0.0
C1650 C 0.62004 0.6071 0.40416 0.0
H1651 H 0.66226 0.62676 0.48669 0.0
H1652 H 0.65815 0.61101 0.44579 0.0
H1653 H 0.64406 0.63267 0.45084 0.0
H1654 H 0.58663 0.63042 0.45984 0.0
H1655 H 0.57426 0.63885 0.39444 0.0
H1656 H 0.38628 0.05316 0.65635 0.0
H1657 H 0.39428 0.0628 0.72384 0.0
H1658 H 0.36314 0.11598 0.7076 0.0
H1659 H 0.35536 0.10645 0.64029 0.0
H1660 H 0.40203 0.12086 0.72719 0.0
H1661 H 0.3659 0.06995 0.82923 0.0
H1662 H 0.379 0.05903 0.78948 0.0
H1663 H 0.35807 0.07332 0.77907 0.0
C1664 C 0.38032 0.06641 0.66801 0.0
C1665 C 0.37001 0.07897 0.6435 0.0
C1666 C 0.38504 0.072 0.70639 0.0
C1667 C 0.37936 0.09015 0.72062 0.0
C1668 C 0.36769 0.10195 0.69714 0.0
H1669 H 0.39171 0.13739 0.95132 0.0
H1670 H 0.38135 0.12872 0.88522 0.0
C1671 C 0.36308 0.09642 0.65886 0.0
C1672 C 0.38744 0.09793 0.75767 0.0
H1673 H 0.38867 0.09137 0.85693 0.0
C1674 C 0.3991 0.11445 0.75562 0.0
C1675 C 0.38363 0.08949 0.79456 0.0
C1676 C 0.37085 0.07205 0.79849 0.0
C1677 C 0.40691 0.12286 0.7896 0.0
C1678 C 0.4031 0.11441 0.82648 0.0
C1679 C 0.39159 0.0978 0.8285 0.0
C1680 C 0.41006 0.12296 0.86377 0.0
C1681 C 0.41877 0.14095 0.78594 0.0
C1682 C 0.42977 0.12349 0.87308 0.0
C1683 C 0.43579 0.12876 0.91097 0.0
C1684 C 0.42211 0.13331 0.93989 0.0
C1685 C 0.40256 0.13402 0.92955 0.0
C1686 C 0.3966 0.12893 0.89187 0.0
H1687 H 0.41722 0.14771 0.75652 0.0
H1688 H 0.41456 0.15161 0.80874 0.0
H1689 H 0.43417 0.13736 0.79044 0.0
H1690 H 0.44038 0.11873 0.85189 0.0
H1691 H 0.45091 0.12775 0.91846 0.0
H1692 H 0.87488 0.95647 0.16822 0.0
H1693 H 0.88192 0.95426 0.09751 0.0
H1694 H 0.86981 0.89335 0.10029 0.0
H1695 H 0.86279 0.8955 0.1703 0.0
H1696 H 0.91232 0.93011 0.07016 0.0
H1697 H 0.84305 0.91119 -0.00082 0.0
H1698 H 0.84439 0.92213 0.0473 0.0
H1699 H 0.84859 0.89673 0.04143 0.0
C1700 C 0.87295 0.94282 0.15327 0.0
C1701 C 0.86819 0.92618 0.17455 0.0
C1702 C 0.87718 0.94152 0.11308 0.0
C1703 C 0.87634 0.92364 0.09371 0.0
C1704 C 0.87028 0.90732 0.11447 0.0
H1705 H 0.93904 0.88287 0.88631 0.0
H1706 H 0.92794 0.88826 0.95414 0.0
C1707 C 0.86626 0.90858 0.15449 0.0
C1708 C 0.88377 0.92137 0.05321 0.0
H1709 H 0.87151 0.90519 0.9619 0.0
C1710 C 0.90338 0.92486 0.04631 0.0
C1711 C 0.87209 0.91442 0.02233 0.0
C1712 C 0.85082 0.91105 0.02773 0.0
C1713 C 0.91169 0.9213 0.00938 0.0
C1714 C 0.9001 0.91385 0.97882 0.0
C1715 C 0.88043 0.91064 0.9856 0.0
C1716 C 0.90763 0.91068 0.9386 0.0
C1717 C 0.93269 0.92579 0.00315 0.0
C1718 C 0.89981 0.92135 0.90765 0.0
C1719 C 0.90597 0.91827 0.86929 0.0
C1720 C 0.92013 0.90433 0.86069 0.0
C1721 C 0.92817 0.89372 0.89186 0.0
C1722 C 0.9219 0.89684 0.93059 0.0
H1723 H 0.93862 0.93491 0.0271 0.0
H1724 H 0.94099 0.91213 0.00235 0.0
H1725 H 0.93488 0.93327 0.97467 0.0
H1726 H 0.88882 0.93211 0.91317 0.0
H1727 H 0.89944 0.92687 0.84633 0.0
loop_
_geom_bond_atom_site_label_1
_geom_bond_atom_site_label_2
_geom_bond_distance
_geom_bond_site_symmetry_2
_ccdc_geom_bond_type
Mn0 O5 2.095 . S
Mn0 O15 2.162 . S
Mn0 O16 2.297 . S
Mn0 O24 2.385 . S
Mn0 O25 2.209 . S
Mn0 O26 2.094 . S
Mn1 O6 2.121 . S
Mn1 N8 2.257 . S
Mn1 N17 2.282 . S
Mn1 O25 2.215 . S
Mn1 O27 2.117 . S
C2 O24 1.234 . S
C2 O25 1.283 . S
C3 O15 1.281 . S
C3 O16 1.236 . S
C4 O26 1.240 . S
C4 O27 1.264 . S
O5 Mn0 2.095 . S
O5 C14 1.250 . S
O6 Mn1 2.121 . S
O6 C14 1.258 . S
C7 N8 1.326 . S
C7 C11 1.460 . S
C7 H13 0.929 . S
N8 Mn1 2.257 . S
N8 C7 1.326 . S
N8 C12 1.362 . S
C9 C10 1.258 . S
C9 C12 1.431 . S
C9 C29 1.449 . S
C10 C9 1.258 . S
C10 C11 1.477 . S
C10 H30 0.931 . S
C11 C7 1.460 . S
C11 C10 1.477 . S
C11 H31 0.930 . S
C12 N8 1.362 . S
C12 C9 1.431 . S
C12 C22 1.476 . S
H13 C7 0.929 . S
C14 O5 1.250 . S
C14 O6 1.258 . S
O15 Mn0 2.162 . S
O15 C3 1.281 . S
O16 Mn0 2.297 . S
O16 C3 1.236 . S
N17 Mn1 2.282 . S
N17 C18 1.328 . S
N17 C22 1.318 . S
C18 N17 1.328 . S
C18 C19 1.457 . S
C18 H23 0.929 . S
C19 C18 1.457 . S
C19 C20 1.291 . S
C19 H32 0.931 . S
C20 C19 1.291 . S
C20 C21 1.373 . S
C20 H33 0.929 . S
C21 C20 1.373 . S
C21 C22 1.396 . S
C21 C28 1.403 . S
C22 C12 1.476 . S
C22 N17 1.318 . S
C22 C21 1.396 . S
H23 C18 0.929 . S
O24 Mn0 2.385 . S
O24 C2 1.234 . S
O25 Mn0 2.209 . S
O25 Mn1 2.215 . S
O25 C2 1.283 . S
O26 Mn0 2.094 . S
O26 C4 1.240 . S
O27 Mn1 2.117 . S
O27 C4 1.264 . S
C28 C21 1.403 . S
C28 C29 1.399 . S
C28 H34 0.929 . S
C29 C9 1.449 . S
C29 C28 1.399 . S
C29 H35 0.930 . S
H30 C10 0.931 . S
H31 C11 0.930 . S
H32 C19 0.931 . S
H33 C20 0.929 . S
H34 C28 0.929 . S
H35 C29 0.930 . S
Mn36 O41 2.095 . S
Mn36 O51 2.162 . S
Mn36 O52 2.297 . S
Mn36 O60 2.385 . S
Mn36 O61 2.209 . S
Mn36 O62 2.094 . S
Mn37 O42 2.121 . S
Mn37 N44 2.257 . S
Mn37 N53 2.282 . S
Mn37 O61 2.215 . S
Mn37 O63 2.117 . S
C38 O60 1.234 . S
C38 O61 1.283 . S
C39 O51 1.281 . S
C39 O52 1.236 . S
C40 O62 1.240 . S
C40 O63 1.264 . S
O41 Mn36 2.095 . S
O41 C50 1.250 . S
O42 Mn37 2.121 . S
O42 C50 1.258 . S
C43 N44 1.326 . S
C43 C47 1.460 . S
C43 H49 0.929 . S
N44 Mn37 2.257 . S
N44 C43 1.326 . S
N44 C48 1.362 . S
C45 C46 1.258 . S
C45 C48 1.431 . S
C45 C65 1.449 . S
C46 C45 1.258 . S
C46 C47 1.477 . S
C46 H66 0.931 . S
C47 C43 1.460 . S
C47 C46 1.477 . S
C47 H67 0.930 . S
C48 N44 1.362 . S
C48 C45 1.431 . S
C48 C58 1.476 . S
H49 C43 0.929 . S
C50 O41 1.250 . S
C50 O42 1.258 . S
O51 Mn36 2.162 . S
O51 C39 1.281 . S
O52 Mn36 2.297 . S
O52 C39 1.236 . S
N53 Mn37 2.282 . S
N53 C54 1.328 . S
N53 C58 1.318 . S
C54 N53 1.328 . S
C54 C55 1.457 . S
C54 H59 0.929 . S
C55 C54 1.457 . S
C55 C56 1.291 . S
C55 H68 0.931 . S
C56 C55 1.291 . S
C56 C57 1.373 . S
C56 H69 0.929 . S
C57 C56 1.373 . S
C57 C58 1.396 . S
C57 C64 1.403 . S
C58 C48 1.476 . S
C58 N53 1.318 . S
C58 C57 1.396 . S
H59 C54 0.929 . S
O60 Mn36 2.385 . S
O60 C38 1.234 . S
O61 Mn36 2.209 . S
O61 Mn37 2.215 . S
O61 C38 1.283 . S
O62 Mn36 2.094 . S
O62 C40 1.240 . S
O63 Mn37 2.117 . S
O63 C40 1.264 . S
C64 C57 1.403 . S
C64 C65 1.399 . S
C64 H70 0.929 . S
C65 C45 1.449 . S
C65 C64 1.399 . S
C65 H71 0.930 . S
H66 C46 0.931 . S
H67 C47 0.930 . S
H68 C55 0.931 . S
H69 C56 0.929 . S
H70 C64 0.929 . S
H71 C65 0.930 . S
Mn72 O77 2.095 . S
Mn72 O87 2.162 . S
Mn72 O88 2.297 . S
Mn72 O96 2.385 . S
Mn72 O97 2.209 . S
Mn72 O98 2.094 . S
Mn73 O78 2.121 . S
Mn73 N80 2.257 . S
Mn73 N89 2.282 . S
Mn73 O97 2.215 . S
Mn73 O99 2.117 . S
C74 O96 1.234 . S
C74 O97 1.283 . S
C75 O87 1.281 . S
C75 O88 1.236 . S
C76 O98 1.240 . S
C76 O99 1.264 . S
O77 Mn72 2.095 . S
O77 C86 1.250 . S
O78 Mn73 2.121 . S
O78 C86 1.258 . S
C79 N80 1.326 . S
C79 C83 1.460 . S
C79 H85 0.929 . S
N80 Mn73 2.257 . S
N80 C79 1.326 . S
N80 C84 1.362 . S
C81 C82 1.258 . S
C81 C84 1.431 . S
C81 C101 1.449 . S
C82 C81 1.258 . S
C82 C83 1.477 . S
C82 H102 0.931 . S
C83 C79 1.460 . S
C83 C82 1.477 . S
C83 H103 0.930 . S
C84 N80 1.362 . S
C84 C81 1.431 . S
C84 C94 1.476 . S
H85 C79 0.929 . S
C86 O77 1.250 . S
C86 O78 1.258 . S
O87 Mn72 2.162 . S
O87 C75 1.281 . S
O88 Mn72 2.297 . S
O88 C75 1.236 . S
N89 Mn73 2.282 . S
N89 C90 1.328 . S
N89 C94 1.318 . S
C90 N89 1.328 . S
C90 C91 1.457 . S
C90 H95 0.929 . S
C91 C90 1.457 . S
C91 C92 1.291 . S
C91 H104 0.931 . S
C92 C91 1.291 . S
C92 C93 1.373 . S
C92 H105 0.929 . S
C93 C92 1.373 . S
C93 C94 1.396 . S
C93 C100 1.403 . S
C94 C84 1.476 . S
C94 N89 1.318 . S
C94 C93 1.396 . S
H95 C90 0.929 . S
O96 Mn72 2.385 . S
O96 C74 1.234 . S
O97 Mn72 2.209 . S
O97 Mn73 2.215 . S
O97 C74 1.283 . S
O98 Mn72 2.094 . S
O98 C76 1.240 . S
O99 Mn73 2.117 . S
O99 C76 1.264 . S
C100 C93 1.403 . S
C100 C101 1.399 . S
C100 H106 0.929 . S
C101 C81 1.449 . S
C101 C100 1.399 . S
C101 H107 0.930 . S
H102 C82 0.931 . S
H103 C83 0.930 . S
H104 C91 0.931 . S
H105 C92 0.929 . S
H106 C100 0.929 . S
H107 C101 0.930 . S
Mn108 O113 2.095 . S
Mn108 O123 2.162 . S
Mn108 O124 2.297 . S
Mn108 O132 2.385 . S
Mn108 O133 2.209 . S
Mn108 O134 2.094 . S
Mn109 O114 2.121 . S
Mn109 N116 2.257 . S
Mn109 N125 2.282 . S
Mn109 O133 2.215 . S
Mn109 O135 2.117 . S
C110 O132 1.234 . S
C110 O133 1.283 . S
C111 O123 1.281 . S
C111 O124 1.236 . S
C112 O134 1.240 . S
C112 O135 1.264 . S
O113 Mn108 2.095 . S
O113 C122 1.250 1_554 S
O114 Mn109 2.121 . S
O114 C122 1.258 1_554 S
C115 N116 1.326 . S
C115 C119 1.460 . S
C115 H121 0.929 . S
N116 Mn109 2.257 . S
N116 C115 1.326 . S
N116 C120 1.362 . S
C117 C118 1.258 . S
C117 C120 1.431 . S
C117 C137 1.449 . S
C118 C117 1.258 . S
C118 C119 1.477 . S
C118 H138 0.931 . S
C119 C115 1.460 . S
C119 C118 1.477 . S
C119 H139 0.930 . S
C120 N116 1.362 . S
C120 C117 1.431 . S
C120 C130 1.476 . S
H121 C115 0.929 . S
C122 O113 1.250 1_556 S
C122 O114 1.258 1_556 S
O123 Mn108 2.162 . S
O123 C111 1.281 . S
O124 Mn108 2.297 . S
O124 C111 1.236 . S
N125 Mn109 2.282 . S
N125 C126 1.328 . S
N125 C130 1.318 . S
C126 N125 1.328 . S
C126 C127 1.457 . S
C126 H131 0.929 . S
C127 C126 1.457 . S
C127 C128 1.291 . S
C127 H140 0.931 . S
C128 C127 1.291 . S
C128 C129 1.373 . S
C128 H141 0.929 . S
C129 C128 1.373 . S
C129 C130 1.396 . S
C129 C136 1.403 . S
C130 C120 1.476 . S
C130 N125 1.318 . S
C130 C129 1.396 . S
H131 C126 0.929 . S
O132 Mn108 2.385 . S
O132 C110 1.234 . S
O133 Mn108 2.209 . S
O133 Mn109 2.215 . S
O133 C110 1.283 . S
O134 Mn108 2.094 . S
O134 C112 1.240 . S
O135 Mn109 2.117 . S
O135 C112 1.264 . S
C136 C129 1.403 . S
C136 C137 1.399 . S
C136 H142 0.929 . S
C137 C117 1.449 . S
C137 C136 1.399 . S
C137 H143 0.930 . S
H138 C118 0.931 . S
H139 C119 0.930 . S
H140 C127 0.931 . S
H141 C128 0.929 . S
H142 C136 0.929 . S
H143 C137 0.930 . S
Mn144 O149 2.095 . S
Mn144 O159 2.162 1_554 S
Mn144 O160 2.297 1_554 S
Mn144 O168 2.385 1_554 S
Mn144 O169 2.209 1_554 S
Mn144 O170 2.094 . S
Mn145 O150 2.121 . S
Mn145 N152 2.257 . S
Mn145 N161 2.282 1_554 S
Mn145 O169 2.215 1_554 S
Mn145 O171 2.117 . S
C146 O168 1.234 . S
C146 O169 1.283 . S
C147 O159 1.281 . S
C147 O160 1.236 . S
C148 O170 1.240 . S
C148 O171 1.264 . S
O149 Mn144 2.095 . S
O149 C158 1.250 . S
O150 Mn145 2.121 . S
O150 C158 1.258 . S
C151 N152 1.326 . S
C151 C155 1.460 . S
C151 H157 0.929 . S
N152 Mn145 2.257 . S
N152 C151 1.326 . S
N152 C156 1.362 1_554 S
C153 C154 1.258 . S
C153 C156 1.431 . S
C153 C173 1.449 . S
C154 C153 1.258 . S
C154 C155 1.477 1_556 S
C154 H174 0.931 . S
C155 C151 1.460 . S
C155 C154 1.477 1_554 S
C155 H175 0.930 . S
C156 N152 1.362 1_556 S
C156 C153 1.431 . S
C156 C166 1.476 . S
H157 C151 0.929 . S
C158 O149 1.250 . S
C158 O150 1.258 . S
O159 Mn144 2.162 1_556 S
O159 C147 1.281 . S
O160 Mn144 2.297 1_556 S
O160 C147 1.236 . S
N161 Mn145 2.282 1_556 S
N161 C162 1.328 . S
N161 C166 1.318 . S
C162 N161 1.328 . S
C162 C163 1.457 . S
C162 H167 0.929 . S
C163 C162 1.457 . S
C163 C164 1.291 . S
C163 H176 0.931 . S
C164 C163 1.291 . S
C164 C165 1.373 . S
C164 H177 0.929 . S
C165 C164 1.373 . S
C165 C166 1.396 . S
C165 C172 1.403 . S
C166 C156 1.476 . S
C166 N161 1.318 . S
C166 C165 1.396 . S
H167 C162 0.929 . S
O168 Mn144 2.385 1_556 S
O168 C146 1.234 . S
O169 Mn144 2.209 1_556 S
O169 Mn145 2.215 1_556 S
O169 C146 1.283 . S
O170 Mn144 2.094 . S
O170 C148 1.240 . S
O171 Mn145 2.117 . S
O171 C148 1.264 . S
C172 C165 1.403 . S
C172 C173 1.399 . S
C172 H178 0.929 . S
C173 C153 1.449 . S
C173 C172 1.399 . S
C173 H179 0.930 . S
H174 C154 0.931 . S
H175 C155 0.930 . S
H176 C163 0.931 . S
H177 C164 0.929 . S
H178 C172 0.929 . S
H179 C173 0.930 . S
Mn180 O185 2.095 . S
Mn180 O195 2.162 . S
Mn180 O196 2.297 . S
Mn180 O204 2.385 . S
Mn180 O205 2.209 . S
Mn180 O206 2.094 . S
Mn181 O186 2.121 . S
Mn181 N188 2.257 . S
Mn181 N197 2.282 . S
Mn181 O205 2.215 . S
Mn181 O207 2.117 . S
C182 O204 1.234 . S
C182 O205 1.283 . S
C183 O195 1.281 . S
C183 O196 1.236 . S
C184 O206 1.240 . S
C184 O207 1.264 . S
O185 Mn180 2.095 . S
O185 C194 1.250 . S
O186 Mn181 2.121 . S
O186 C194 1.258 . S
C187 N188 1.326 . S
C187 C191 1.460 . S
C187 H193 0.929 . S
N188 Mn181 2.257 . S
N188 C187 1.326 . S
N188 C192 1.362 . S
C189 C190 1.258 . S
C189 C192 1.431 . S
C189 C209 1.449 . S
C190 C189 1.258 . S
C190 C191 1.477 . S
C190 H210 0.931 . S
C191 C187 1.460 . S
C191 C190 1.477 . S
C191 H211 0.930 . S
C192 N188 1.362 . S
C192 C189 1.431 . S
C192 C202 1.476 . S
H193 C187 0.929 . S
C194 O185 1.250 . S
C194 O186 1.258 . S
O195 Mn180 2.162 . S
O195 C183 1.281 . S
O196 Mn180 2.297 . S
O196 C183 1.236 . S
N197 Mn181 2.282 . S
N197 C198 1.328 . S
N197 C202 1.318 . S
C198 N197 1.328 . S
C198 C199 1.457 . S
C198 H203 0.929 . S
C199 C198 1.457 . S
C199 C200 1.291 . S
C199 H212 0.931 . S
C200 C199 1.291 . S
C200 C201 1.373 . S
C200 H213 0.929 . S
C201 C200 1.373 . S
C201 C202 1.396 . S
C201 C208 1.403 . S
C202 C192 1.476 . S
C202 N197 1.318 . S
C202 C201 1.396 . S
H203 C198 0.929 . S
O204 Mn180 2.385 . S
O204 C182 1.234 . S
O205 Mn180 2.209 . S
O205 Mn181 2.215 . S
O205 C182 1.283 . S
O206 Mn180 2.094 . S
O206 C184 1.240 . S
O207 Mn181 2.117 . S
O207 C184 1.264 . S
C208 C201 1.403 . S
C208 C209 1.399 . S
C208 H214 0.929 . S
C209 C189 1.449 . S
C209 C208 1.399 . S
C209 H215 0.930 . S
H210 C190 0.931 . S
H211 C191 0.930 . S
H212 C199 0.931 . S
H213 C200 0.929 . S
H214 C208 0.929 . S
H215 C209 0.930 . S
Mn216 O221 2.095 . S
Mn216 O231 2.162 . S
Mn216 O232 2.297 . S
Mn216 O240 2.385 . S
Mn216 O241 2.209 . S
Mn216 O242 2.094 . S
Mn217 O222 2.121 . S
Mn217 N224 2.257 . S
Mn217 N233 2.282 . S
Mn217 O241 2.215 . S
Mn217 O243 2.117 . S
C218 O240 1.234 . S
C218 O241 1.283 . S
C219 O231 1.281 . S
C219 O232 1.236 . S
C220 O242 1.240 . S
C220 O243 1.264 . S
O221 Mn216 2.095 . S
O221 C230 1.250 . S
O222 Mn217 2.121 . S
O222 C230 1.258 . S
C223 N224 1.326 . S
C223 C227 1.460 . S
C223 H229 0.929 . S
N224 Mn217 2.257 . S
N224 C223 1.326 . S
N224 C228 1.362 . S
C225 C226 1.258 . S
C225 C228 1.431 . S
C225 C245 1.449 . S
C226 C225 1.258 . S
C226 C227 1.477 . S
C226 H246 0.931 . S
C227 C223 1.460 . S
C227 C226 1.477 . S
C227 H247 0.930 . S
C228 N224 1.362 . S
C228 C225 1.431 . S
C228 C238 1.476 . S
H229 C223 0.929 . S
C230 O221 1.250 . S
C230 O222 1.258 . S
O231 Mn216 2.162 . S
O231 C219 1.281 . S
O232 Mn216 2.297 . S
O232 C219 1.236 . S
N233 Mn217 2.282 . S
N233 C234 1.328 . S
N233 C238 1.318 . S
C234 N233 1.328 . S
C234 C235 1.457 . S
C234 H239 0.929 . S
C235 C234 1.457 . S
C235 C236 1.291 . S
C235 H248 0.931 . S
C236 C235 1.291 . S
C236 C237 1.373 . S
C236 H249 0.929 . S
C237 C236 1.373 . S
C237 C238 1.396 . S
C237 C244 1.403 . S
C238 C228 1.476 . S
C238 N233 1.318 . S
C238 C237 1.396 . S
H239 C234 0.929 . S
O240 Mn216 2.385 . S
O240 C218 1.234 . S
O241 Mn216 2.209 . S
O241 Mn217 2.215 . S
O241 C218 1.283 . S
O242 Mn216 2.094 . S
O242 C220 1.240 . S
O243 Mn217 2.117 . S
O243 C220 1.264 . S
C244 C237 1.403 . S
C244 C245 1.399 . S
C244 H250 0.929 . S
C245 C225 1.449 . S
C245 C244 1.399 . S
C245 H251 0.930 . S
H246 C226 0.931 . S
H247 C227 0.930 . S
H248 C235 0.931 . S
H249 C236 0.929 . S
H250 C244 0.929 . S
H251 C245 0.930 . S
Mn252 O257 2.095 . S
Mn252 O267 2.162 . S
Mn252 O268 2.297 . S
Mn252 O276 2.385 . S
Mn252 O277 2.209 . S
Mn252 O278 2.094 . S
Mn253 O258 2.121 . S
Mn253 N260 2.257 . S
Mn253 N269 2.282 . S
Mn253 O277 2.215 . S
Mn253 O279 2.117 . S
C254 O276 1.234 . S
C254 O277 1.283 . S
C255 O267 1.281 . S
C255 O268 1.236 . S
C256 O278 1.240 . S
C256 O279 1.264 . S
O257 Mn252 2.095 . S
O257 C266 1.250 . S
O258 Mn253 2.121 . S
O258 C266 1.258 . S
C259 N260 1.326 . S
C259 C263 1.460 . S
C259 H265 0.929 . S
N260 Mn253 2.257 . S
N260 C259 1.326 . S
N260 C264 1.362 . S
C261 C262 1.258 . S
C261 C264 1.431 . S
C261 C281 1.449 . S
C262 C261 1.258 . S
C262 C263 1.477 . S
C262 H282 0.931 . S
C263 C259 1.460 . S
C263 C262 1.477 . S
C263 H283 0.930 . S
C264 N260 1.362 . S
C264 C261 1.431 . S
C264 C274 1.476 . S
H265 C259 0.929 . S
C266 O257 1.250 . S
C266 O258 1.258 . S
O267 Mn252 2.162 . S
O267 C255 1.281 . S
O268 Mn252 2.297 . S
O268 C255 1.236 . S
N269 Mn253 2.282 . S
N269 C270 1.328 . S
N269 C274 1.318 . S
C270 N269 1.328 . S
C270 C271 1.457 . S
C270 H275 0.929 . S
C271 C270 1.457 . S
C271 C272 1.291 . S
C271 H284 0.931 . S
C272 C271 1.291 . S
C272 C273 1.373 . S
C272 H285 0.929 . S
C273 C272 1.373 . S
C273 C274 1.396 . S
C273 C280 1.403 . S
C274 C264 1.476 . S
C274 N269 1.318 . S
C274 C273 1.396 . S
H275 C270 0.929 . S
O276 Mn252 2.385 . S
O276 C254 1.234 . S
O277 Mn252 2.209 . S
O277 Mn253 2.215 . S
O277 C254 1.283 . S
O278 Mn252 2.094 . S
O278 C256 1.240 . S
O279 Mn253 2.117 . S
O279 C256 1.264 . S
C280 C273 1.403 . S
C280 C281 1.399 . S
C280 H286 0.929 . S
C281 C261 1.449 . S
C281 C280 1.399 . S
C281 H287 0.930 . S
H282 C262 0.931 . S
H283 C263 0.930 . S
H284 C271 0.931 . S
H285 C272 0.929 . S
H286 C280 0.929 . S
H287 C281 0.930 . S
Mn288 O293 2.095 . S
Mn288 O303 2.162 . S
Mn288 O304 2.297 . S
Mn288 O312 2.385 . S
Mn288 O313 2.209 . S
Mn288 O314 2.094 . S
Mn289 O294 2.121 . S
Mn289 N296 2.257 . S
Mn289 N305 2.282 . S
Mn289 O313 2.215 . S
Mn289 O315 2.117 . S
C290 O312 1.234 . S
C290 O313 1.283 . S
C291 O303 1.281 . S
C291 O304 1.236 . S
C292 O314 1.240 . S
C292 O315 1.264 . S
O293 Mn288 2.095 . S
O293 C302 1.250 . S
O294 Mn289 2.121 . S
O294 C302 1.258 . S
C295 N296 1.326 . S
C295 C299 1.460 . S
C295 H301 0.929 . S
N296 Mn289 2.257 . S
N296 C295 1.326 . S
N296 C300 1.362 . S
C297 C298 1.258 . S
C297 C300 1.431 . S
C297 C317 1.449 . S
C298 C297 1.258 . S
C298 C299 1.477 . S
C298 H318 0.931 . S
C299 C295 1.460 . S
C299 C298 1.477 . S
C299 H319 0.930 . S
C300 N296 1.362 . S
C300 C297 1.431 . S
C300 C310 1.476 . S
H301 C295 0.929 . S
C302 O293 1.250 . S
C302 O294 1.258 . S
O303 Mn288 2.162 . S
O303 C291 1.281 . S
O304 Mn288 2.297 . S
O304 C291 1.236 . S
N305 Mn289 2.282 . S
N305 C306 1.328 . S
N305 C310 1.318 . S
C306 N305 1.328 . S
C306 C307 1.457 . S
C306 H311 0.929 . S
C307 C306 1.457 . S
C307 C308 1.291 . S
C307 H320 0.931 . S
C308 C307 1.291 . S
C308 C309 1.373 . S
C308 H321 0.929 . S
C309 C308 1.373 . S
C309 C310 1.396 . S
C309 C316 1.403 . S
C310 C300 1.476 . S
C310 N305 1.318 . S
C310 C309 1.396 . S
H311 C306 0.929 . S
O312 Mn288 2.385 . S
O312 C290 1.234 . S
O313 Mn288 2.209 . S
O313 Mn289 2.215 . S
O313 C290 1.283 . S
O314 Mn288 2.094 . S
O314 C292 1.240 . S
O315 Mn289 2.117 . S
O315 C292 1.264 . S
C316 C309 1.403 . S
C316 C317 1.399 . S
C316 H322 0.929 . S
C317 C297 1.449 . S
C317 C316 1.399 . S
C317 H323 0.930 . S
H318 C298 0.931 . S
H319 C299 0.930 . S
H320 C307 0.931 . S
H321 C308 0.929 . S
H322 C316 0.929 . S
H323 C317 0.930 . S
Mn324 O329 2.095 . S
Mn324 O339 2.162 . S
Mn324 O340 2.297 . S
Mn324 O348 2.385 . S
Mn324 O349 2.209 . S
Mn324 O350 2.094 . S
Mn325 O330 2.121 . S
Mn325 N332 2.257 . S
Mn325 N341 2.282 . S
Mn325 O349 2.215 . S
Mn325 O351 2.117 . S
C326 O348 1.234 . S
C326 O349 1.283 . S
C327 O339 1.281 . S
C327 O340 1.236 . S
C328 O350 1.240 . S
C328 O351 1.264 . S
O329 Mn324 2.095 . S
O329 C338 1.250 1_554 S
O330 Mn325 2.121 . S
O330 C338 1.258 1_554 S
C331 N332 1.326 . S
C331 C335 1.460 . S
C331 H337 0.929 . S
N332 Mn325 2.257 . S
N332 C331 1.326 . S
N332 C336 1.362 . S
C333 C334 1.258 . S
C333 C336 1.431 . S
C333 C353 1.449 . S
C334 C333 1.258 . S
C334 C335 1.477 . S
C334 H354 0.931 . S
C335 C331 1.460 . S
C335 C334 1.477 . S
C335 H355 0.930 . S
C336 N332 1.362 . S
C336 C333 1.431 . S
C336 C346 1.476 . S
H337 C331 0.929 . S
C338 O329 1.250 1_556 S
C338 O330 1.258 1_556 S
O339 Mn324 2.162 . S
O339 C327 1.281 . S
O340 Mn324 2.297 . S
O340 C327 1.236 . S
N341 Mn325 2.282 . S
N341 C342 1.328 . S
N341 C346 1.318 . S
C342 N341 1.328 . S
C342 C343 1.457 . S
C342 H347 0.929 . S
C343 C342 1.457 . S
C343 C344 1.291 . S
C343 H356 0.931 . S
C344 C343 1.291 . S
C344 C345 1.373 . S
C344 H357 0.929 . S
C345 C344 1.373 . S
C345 C346 1.396 . S
C345 C352 1.403 . S
C346 C336 1.476 . S
C346 N341 1.318 . S
C346 C345 1.396 . S
H347 C342 0.929 . S
O348 Mn324 2.385 . S
O348 C326 1.234 . S
O349 Mn324 2.209 . S
O349 Mn325 2.215 . S
O349 C326 1.283 . S
O350 Mn324 2.094 . S
O350 C328 1.240 . S
O351 Mn325 2.117 . S
O351 C328 1.264 . S
C352 C345 1.403 . S
C352 C353 1.399 . S
C352 H358 0.929 . S
C353 C333 1.449 . S
C353 C352 1.399 . S
C353 H359 0.930 . S
H354 C334 0.931 . S
H355 C335 0.930 . S
H356 C343 0.931 . S
H357 C344 0.929 . S
H358 C352 0.929 . S
H359 C353 0.930 . S
Mn360 O365 2.095 . S
Mn360 O375 2.162 . S
Mn360 O376 2.297 . S
Mn360 O384 2.385 . S
Mn360 O385 2.209 . S
Mn360 O386 2.094 . S
Mn361 O366 2.121 . S
Mn361 N368 2.257 . S
Mn361 N377 2.282 . S
Mn361 O385 2.215 . S
Mn361 O387 2.117 . S
C362 O384 1.234 . S
C362 O385 1.283 . S
C363 O375 1.281 . S
C363 O376 1.236 . S
C364 O386 1.240 . S
C364 O387 1.264 . S
O365 Mn360 2.095 . S
O365 C374 1.250 . S
O366 Mn361 2.121 . S
O366 C374 1.258 . S
C367 N368 1.326 . S
C367 C371 1.460 . S
C367 H373 0.929 . S
N368 Mn361 2.257 . S
N368 C367 1.326 . S
N368 C372 1.362 . S
C369 C370 1.258 . S
C369 C372 1.431 . S
C369 C389 1.449 . S
C370 C369 1.258 . S
C370 C371 1.477 . S
C370 H390 0.931 . S
C371 C367 1.460 . S
C371 C370 1.477 . S
C371 H391 0.930 . S
C372 N368 1.362 . S
C372 C369 1.431 . S
C372 C382 1.476 . S
H373 C367 0.929 . S
C374 O365 1.250 . S
C374 O366 1.258 . S
O375 Mn360 2.162 . S
O375 C363 1.281 . S
O376 Mn360 2.297 . S
O376 C363 1.236 . S
N377 Mn361 2.282 . S
N377 C378 1.328 . S
N377 C382 1.318 . S
C378 N377 1.328 . S
C378 C379 1.457 . S
C378 H383 0.929 . S
C379 C378 1.457 . S
C379 C380 1.291 . S
C379 H392 0.931 . S
C380 C379 1.291 . S
C380 C381 1.373 . S
C380 H393 0.929 . S
C381 C380 1.373 . S
C381 C382 1.396 . S
C381 C388 1.403 . S
C382 C372 1.476 . S
C382 N377 1.318 . S
C382 C381 1.396 . S
H383 C378 0.929 . S
O384 Mn360 2.385 . S
O384 C362 1.234 . S
O385 Mn360 2.209 . S
O385 Mn361 2.215 . S
O385 C362 1.283 . S
O386 Mn360 2.094 . S
O386 C364 1.240 . S
O387 Mn361 2.117 . S
O387 C364 1.264 . S
C388 C381 1.403 . S
C388 C389 1.399 . S
C388 H394 0.929 . S
C389 C369 1.449 . S
C389 C388 1.399 . S
C389 H395 0.930 . S
H390 C370 0.931 . S
H391 C371 0.930 . S
H392 C379 0.931 . S
H393 C380 0.929 . S
H394 C388 0.929 . S
H395 C389 0.930 . S
Mn396 O401 2.095 . S
Mn396 O411 2.162 . S
Mn396 O412 2.297 . S
Mn396 O420 2.385 . S
Mn396 O421 2.209 . S
Mn396 O422 2.094 . S
Mn397 O402 2.121 . S
Mn397 N404 2.257 . S
Mn397 N413 2.282 . S
Mn397 O421 2.215 . S
Mn397 O423 2.117 . S
C398 O420 1.234 . S
C398 O421 1.283 . S
C399 O411 1.281 . S
C399 O412 1.236 . S
C400 O422 1.240 . S
C400 O423 1.264 . S
O401 Mn396 2.095 . S
O401 C410 1.250 . S
O402 Mn397 2.121 . S
O402 C410 1.258 . S
C403 N404 1.326 . S
C403 C407 1.460 . S
C403 H409 0.929 . S
N404 Mn397 2.257 . S
N404 C403 1.326 . S
N404 C408 1.362 . S
C405 C406 1.258 . S
C405 C408 1.431 . S
C405 C425 1.449 . S
C406 C405 1.258 . S
C406 C407 1.477 . S
C406 H426 0.931 . S
C407 C403 1.460 . S
C407 C406 1.477 . S
C407 H427 0.930 . S
C408 N404 1.362 . S
C408 C405 1.431 . S
C408 C418 1.476 . S
H409 C403 0.929 . S
C410 O401 1.250 . S
C410 O402 1.258 . S
O411 Mn396 2.162 . S
O411 C399 1.281 . S
O412 Mn396 2.297 . S
O412 C399 1.236 . S
N413 Mn397 2.282 . S
N413 C414 1.328 . S
N413 C418 1.318 . S
C414 N413 1.328 . S
C414 C415 1.457 . S
C414 H419 0.929 . S
C415 C414 1.457 . S
C415 C416 1.291 . S
C415 H428 0.931 . S
C416 C415 1.291 . S
C416 C417 1.373 . S
C416 H429 0.929 . S
C417 C416 1.373 . S
C417 C418 1.396 . S
C417 C424 1.403 . S
C418 C408 1.476 . S
C418 N413 1.318 . S
C418 C417 1.396 . S
H419 C414 0.929 . S
O420 Mn396 2.385 . S
O420 C398 1.234 . S
O421 Mn396 2.209 . S
O421 Mn397 2.215 . S
O421 C398 1.283 . S
O422 Mn396 2.094 . S
O422 C400 1.240 . S
O423 Mn397 2.117 . S
O423 C400 1.264 . S
C424 C417 1.403 . S
C424 C425 1.399 . S
C424 H430 0.929 . S
C425 C405 1.449 . S
C425 C424 1.399 . S
C425 H431 0.930 . S
H426 C406 0.931 . S
H427 C407 0.930 . S
H428 C415 0.931 . S
H429 C416 0.929 . S
H430 C424 0.929 . S
H431 C425 0.930 . S
Mn432 O437 2.095 . S
Mn432 O447 2.162 . S
Mn432 O448 2.297 . S
Mn432 O456 2.385 . S
Mn432 O457 2.209 . S
Mn432 O458 2.094 . S
Mn433 O438 2.121 . S
Mn433 N440 2.257 . S
Mn433 N449 2.282 . S
Mn433 O457 2.215 . S
Mn433 O459 2.117 . S
C434 O456 1.234 . S
C434 O457 1.283 . S
C435 O447 1.281 . S
C435 O448 1.236 . S
C436 O458 1.240 . S
C436 O459 1.264 . S
O437 Mn432 2.095 . S
O437 C446 1.250 . S
O438 Mn433 2.121 . S
O438 C446 1.258 . S
C439 N440 1.326 . S
C439 C443 1.460 . S
C439 H445 0.929 . S
N440 Mn433 2.257 . S
N440 C439 1.326 . S
N440 C444 1.362 . S
C441 C442 1.258 . S
C441 C444 1.431 . S
C441 C461 1.449 . S
C442 C441 1.258 . S
C442 C443 1.477 . S
C442 H462 0.931 . S
C443 C439 1.460 . S
C443 C442 1.477 . S
C443 H463 0.930 . S
C444 N440 1.362 . S
C444 C441 1.431 . S
C444 C454 1.476 . S
H445 C439 0.929 . S
C446 O437 1.250 . S
C446 O438 1.258 . S
O447 Mn432 2.162 . S
O447 C435 1.281 . S
O448 Mn432 2.297 . S
O448 C435 1.236 . S
N449 Mn433 2.282 . S
N449 C450 1.328 . S
N449 C454 1.318 . S
C450 N449 1.328 . S
C450 C451 1.457 . S
C450 H455 0.929 . S
C451 C450 1.457 . S
C451 C452 1.291 . S
C451 H464 0.931 . S
C452 C451 1.291 . S
C452 C453 1.373 . S
C452 H465 0.929 . S
C453 C452 1.373 . S
C453 C454 1.396 . S
C453 C460 1.403 . S
C454 C444 1.476 . S
C454 N449 1.318 . S
C454 C453 1.396 . S
H455 C450 0.929 . S
O456 Mn432 2.385 . S
O456 C434 1.234 . S
O457 Mn432 2.209 . S
O457 Mn433 2.215 . S
O457 C434 1.283 . S
O458 Mn432 2.094 . S
O458 C436 1.240 . S
O459 Mn433 2.117 . S
O459 C436 1.264 . S
C460 C453 1.403 . S
C460 C461 1.399 . S
C460 H466 0.929 . S
C461 C441 1.449 . S
C461 C460 1.399 . S
C461 H467 0.930 . S
H462 C442 0.931 . S
H463 C443 0.930 . S
H464 C451 0.931 . S
H465 C452 0.929 . S
H466 C460 0.929 . S
H467 C461 0.930 . S
Mn468 O473 2.095 . S
Mn468 O483 2.162 . S
Mn468 O484 2.297 . S
Mn468 O492 2.385 . S
Mn468 O493 2.209 . S
Mn468 O494 2.094 . S
Mn469 O474 2.121 . S
Mn469 N476 2.257 . S
Mn469 N485 2.282 . S
Mn469 O493 2.215 . S
Mn469 O495 2.117 . S
C470 O492 1.234 . S
C470 O493 1.283 . S
C471 O483 1.281 . S
C471 O484 1.236 . S
C472 O494 1.240 . S
C472 O495 1.264 . S
O473 Mn468 2.095 . S
O473 C482 1.250 . S
O474 Mn469 2.121 . S
O474 C482 1.258 . S
C475 N476 1.326 . S
C475 C479 1.460 . S
C475 H481 0.929 . S
N476 Mn469 2.257 . S
N476 C475 1.326 . S
N476 C480 1.362 . S
C477 C478 1.258 . S
C477 C480 1.431 . S
C477 C497 1.449 . S
C478 C477 1.258 . S
C478 C479 1.477 . S
C478 H498 0.931 . S
C479 C475 1.460 . S
C479 C478 1.477 . S
C479 H499 0.930 . S
C480 N476 1.362 . S
C480 C477 1.431 . S
C480 C490 1.476 . S
H481 C475 0.929 . S
C482 O473 1.250 . S
C482 O474 1.258 . S
O483 Mn468 2.162 . S
O483 C471 1.281 . S
O484 Mn468 2.297 . S
O484 C471 1.236 . S
N485 Mn469 2.282 . S
N485 C486 1.328 . S
N485 C490 1.318 . S
C486 N485 1.328 . S
C486 C487 1.457 . S
C486 H491 0.929 . S
C487 C486 1.457 . S
C487 C488 1.291 . S
C487 H500 0.931 . S
C488 C487 1.291 . S
C488 C489 1.373 . S
C488 H501 0.929 . S
C489 C488 1.373 . S
C489 C490 1.396 . S
C489 C496 1.403 . S
C490 C480 1.476 . S
C490 N485 1.318 . S
C490 C489 1.396 . S
H491 C486 0.929 . S
O492 Mn468 2.385 . S
O492 C470 1.234 . S
O493 Mn468 2.209 . S
O493 Mn469 2.215 . S
O493 C470 1.283 . S
O494 Mn468 2.094 . S
O494 C472 1.240 . S
O495 Mn469 2.117 . S
O495 C472 1.264 . S
C496 C489 1.403 . S
C496 C497 1.399 . S
C496 H502 0.929 . S
C497 C477 1.449 . S
C497 C496 1.399 . S
C497 H503 0.930 . S
H498 C478 0.931 . S
H499 C479 0.930 . S
H500 C487 0.931 . S
H501 C488 0.929 . S
H502 C496 0.929 . S
H503 C497 0.930 . S
Mn504 O509 2.095 . S
Mn504 O519 2.162 1_554 S
Mn504 O520 2.297 1_554 S
Mn504 O528 2.385 1_554 S
Mn504 O529 2.209 1_554 S
Mn504 O530 2.094 . S
Mn505 O510 2.121 . S
Mn505 N512 2.257 . S
Mn505 N521 2.282 1_554 S
Mn505 O529 2.215 1_554 S
Mn505 O531 2.117 . S
C506 O528 1.234 . S
C506 O529 1.283 . S
C507 O519 1.281 . S
C507 O520 1.236 . S
C508 O530 1.240 . S
C508 O531 1.264 . S
O509 Mn504 2.095 . S
O509 C518 1.250 . S
O510 Mn505 2.121 . S
O510 C518 1.258 . S
C511 N512 1.326 . S
C511 C515 1.460 . S
C511 H517 0.929 . S
N512 Mn505 2.257 . S
N512 C511 1.326 . S
N512 C516 1.362 1_554 S
C513 C514 1.258 . S
C513 C516 1.431 . S
C513 C533 1.449 . S
C514 C513 1.258 . S
C514 C515 1.477 1_556 S
C514 H534 0.931 . S
C515 C511 1.460 . S
C515 C514 1.477 1_554 S
C515 H535 0.930 . S
C516 N512 1.362 1_556 S
C516 C513 1.431 . S
C516 C526 1.476 . S
H517 C511 0.929 . S
C518 O509 1.250 . S
C518 O510 1.258 . S
O519 Mn504 2.162 1_556 S
O519 C507 1.281 . S
O520 Mn504 2.297 1_556 S
O520 C507 1.236 . S
N521 Mn505 2.282 1_556 S
N521 C522 1.328 . S
N521 C526 1.318 . S
C522 N521 1.328 . S
C522 C523 1.457 . S
C522 H527 0.929 . S
C523 C522 1.457 . S
C523 C524 1.291 . S
C523 H536 0.931 . S
C524 C523 1.291 . S
C524 C525 1.373 . S
C524 H537 0.929 . S
C525 C524 1.373 . S
C525 C526 1.396 . S
C525 C532 1.403 . S
C526 C516 1.476 . S
C526 N521 1.318 . S
C526 C525 1.396 . S
H527 C522 0.929 . S
O528 Mn504 2.385 1_556 S
O528 C506 1.234 . S
O529 Mn504 2.209 1_556 S
O529 Mn505 2.215 1_556 S
O529 C506 1.283 . S
O530 Mn504 2.094 . S
O530 C508 1.240 . S
O531 Mn505 2.117 . S
O531 C508 1.264 . S
C532 C525 1.403 . S
C532 C533 1.399 . S
C532 H538 0.929 . S
C533 C513 1.449 . S
C533 C532 1.399 . S
C533 H539 0.930 . S
H534 C514 0.931 . S
H535 C515 0.930 . S
H536 C523 0.931 . S
H537 C524 0.929 . S
H538 C532 0.929 . S
H539 C533 0.930 . S
Mn540 O545 2.095 . S
Mn540 O555 2.162 . S
Mn540 O556 2.297 . S
Mn540 O564 2.385 . S
Mn540 O565 2.209 . S
Mn540 O566 2.094 . S
Mn541 O546 2.121 . S
Mn541 N548 2.257 . S
Mn541 N557 2.282 . S
Mn541 O565 2.215 . S
Mn541 O567 2.117 . S
C542 O564 1.234 . S
C542 O565 1.283 . S
C543 O555 1.281 . S
C543 O556 1.236 . S
C544 O566 1.240 . S
C544 O567 1.264 . S
O545 Mn540 2.095 . S
O545 C554 1.250 . S
O546 Mn541 2.121 . S
O546 C554 1.258 . S
C547 N548 1.326 . S
C547 C551 1.460 . S
C547 H553 0.929 . S
N548 Mn541 2.257 . S
N548 C547 1.326 . S
N548 C552 1.362 . S
C549 C550 1.258 . S
C549 C552 1.431 . S
C549 C569 1.449 . S
C550 C549 1.258 . S
C550 C551 1.477 . S
C550 H570 0.931 . S
C551 C547 1.460 . S
C551 C550 1.477 . S
C551 H571 0.930 . S
C552 N548 1.362 . S
C552 C549 1.431 . S
C552 C562 1.476 . S
H553 C547 0.929 . S
C554 O545 1.250 . S
C554 O546 1.258 . S
O555 Mn540 2.162 . S
O555 C543 1.281 . S
O556 Mn540 2.297 . S
O556 C543 1.236 . S
N557 Mn541 2.282 . S
N557 C558 1.328 . S
N557 C562 1.318 . S
C558 N557 1.328 . S
C558 C559 1.457 . S
C558 H563 0.929 . S
C559 C558 1.457 . S
C559 C560 1.291 . S
C559 H572 0.931 . S
C560 C559 1.291 . S
C560 C561 1.373 . S
C560 H573 0.929 . S
C561 C560 1.373 . S
C561 C562 1.396 . S
C561 C568 1.403 . S
C562 C552 1.476 . S
C562 N557 1.318 . S
C562 C561 1.396 . S
H563 C558 0.929 . S
O564 Mn540 2.385 . S
O564 C542 1.234 . S
O565 Mn540 2.209 . S
O565 Mn541 2.215 . S
O565 C542 1.283 . S
O566 Mn540 2.094 . S
O566 C544 1.240 . S
O567 Mn541 2.117 . S
O567 C544 1.264 . S
C568 C561 1.403 . S
C568 C569 1.399 . S
C568 H574 0.929 . S
C569 C549 1.449 . S
C569 C568 1.399 . S
C569 H575 0.930 . S
H570 C550 0.931 . S
H571 C551 0.930 . S
H572 C559 0.931 . S
H573 C560 0.929 . S
H574 C568 0.929 . S
H575 C569 0.930 . S
H576 C584 0.929 . S
H577 C586 0.930 . S
H578 C588 0.930 . S
H579 C591 0.929 . S
H580 C594 0.930 . S
H581 C596 0.960 . S
H582 C596 0.960 . S
H583 C596 0.960 . S
C584 H576 0.929 . S
C584 C585 1.377 . S
C584 C586 1.384 . S
C585 C584 1.377 . S
C585 C591 1.390 . S
C586 H577 0.930 . S
C586 C584 1.384 . S
C586 C587 1.372 . S
C587 C586 1.372 . S
C587 C588 1.400 . S
C587 C592 1.490 . S
C588 H578 0.930 . S
C588 C587 1.400 . S
C588 C591 1.386 . S
H589 C605 0.930 . S
H590 C606 0.931 . S
C591 H579 0.929 . S
C591 C585 1.390 . S
C591 C588 1.386 . S
C592 C587 1.490 . S
C592 C594 1.395 . S
C592 C595 1.403 . S
H593 C599 0.930 . S
C594 H580 0.930 . S
C594 C592 1.395 . S
C594 C597 1.403 . S
C595 C592 1.403 . S
C595 C596 1.524 . S
C595 C599 1.400 . S
C596 H581 0.960 . S
C596 H582 0.960 . S
C596 H583 0.960 . S
C596 C595 1.524 . S
C597 C594 1.403 . S
C597 C598 1.392 . S
C597 C601 1.495 . S
C598 C597 1.392 . S
C598 C599 1.385 . S
C598 C600 1.478 . S
C599 H593 0.930 . S
C599 C595 1.400 . S
C599 C598 1.385 . S
C600 C598 1.478 . S
C600 C602 1.381 . S
C600 C606 1.383 . S
C601 C597 1.495 . S
C601 H607 0.959 . S
C601 H608 0.961 . S
C601 H609 0.960 . S
C602 C600 1.381 . S
C602 C603 1.394 . S
C602 H610 0.930 . S
C603 C602 1.394 . S
C603 C604 1.383 . S
C603 H611 0.929 . S
C604 C603 1.383 . S
C604 C605 1.377 . S
C605 H589 0.930 . S
C605 C604 1.377 . S
C605 C606 1.379 . S
C606 H590 0.931 . S
C606 C600 1.383 . S
C606 C605 1.379 . S
H607 C601 0.959 . S
H608 C601 0.961 . S
H609 C601 0.960 . S
H610 C602 0.930 . S
H611 C603 0.929 . S
H612 C620 0.929 . S
H613 C622 0.930 . S
H614 C624 0.930 . S
H615 C627 0.929 . S
H616 C630 0.930 . S
H617 C632 0.960 . S
H618 C632 0.960 . S
H619 C632 0.960 . S
C620 H612 0.929 . S
C620 C621 1.377 . S
C620 C622 1.384 . S
C621 C620 1.377 . S
C621 C627 1.390 . S
C622 H613 0.930 . S
C622 C620 1.384 . S
C622 C623 1.372 . S
C623 C622 1.372 . S
C623 C624 1.400 . S
C623 C628 1.490 . S
C624 H614 0.930 . S
C624 C623 1.400 . S
C624 C627 1.386 . S
H625 C641 0.930 . S
H626 C642 0.931 . S
C627 H615 0.929 . S
C627 C621 1.390 . S
C627 C624 1.386 . S
C628 C623 1.490 . S
C628 C630 1.395 . S
C628 C631 1.403 . S
H629 C635 0.930 . S
C630 H616 0.930 . S
C630 C628 1.395 . S
C630 C633 1.403 . S
C631 C628 1.403 . S
C631 C632 1.524 . S
C631 C635 1.400 . S
C632 H617 0.960 . S
C632 H618 0.960 . S
C632 H619 0.960 . S
C632 C631 1.524 . S
C633 C630 1.403 . S
C633 C634 1.392 . S
C633 C637 1.495 . S
C634 C633 1.392 . S
C634 C635 1.385 . S
C634 C636 1.478 . S
C635 H629 0.930 . S
C635 C631 1.400 . S
C635 C634 1.385 . S
C636 C634 1.478 . S
C636 C638 1.381 . S
C636 C642 1.383 . S
C637 C633 1.495 . S
C637 H643 0.959 . S
C637 H644 0.961 . S
C637 H645 0.960 . S
C638 C636 1.381 . S
C638 C639 1.394 . S
C638 H646 0.930 . S
C639 C638 1.394 . S
C639 C640 1.383 . S
C639 H647 0.929 . S
C640 C639 1.383 . S
C640 C641 1.377 . S
C641 H625 0.930 . S
C641 C640 1.377 . S
C641 C642 1.379 . S
C642 H626 0.931 . S
C642 C636 1.383 . S
C642 C641 1.379 . S
H643 C637 0.959 . S
H644 C637 0.961 . S
H645 C637 0.960 . S
H646 C638 0.930 . S
H647 C639 0.929 . S
H648 C656 0.929 . S
H649 C658 0.930 . S
H650 C660 0.930 . S
H651 C663 0.929 . S
H652 C666 0.930 . S
H653 C668 0.960 . S
H654 C668 0.960 . S
H655 C668 0.960 . S
C656 H648 0.929 . S
C656 C657 1.377 . S
C656 C658 1.384 . S
C657 C656 1.377 . S
C657 C663 1.390 . S
C658 H649 0.930 . S
C658 C656 1.384 . S
C658 C659 1.372 . S
C659 C658 1.372 . S
C659 C660 1.400 . S
C659 C664 1.490 . S
C660 H650 0.930 . S
C660 C659 1.400 . S
C660 C663 1.386 . S
H661 C677 0.930 . S
H662 C678 0.931 . S
C663 H651 0.929 . S
C663 C657 1.390 . S
C663 C660 1.386 . S
C664 C659 1.490 . S
C664 C666 1.395 . S
C664 C667 1.403 . S
H665 C671 0.930 . S
C666 H652 0.930 . S
C666 C664 1.395 . S
C666 C669 1.403 . S
C667 C664 1.403 . S
C667 C668 1.524 . S
C667 C671 1.400 . S
C668 H653 0.960 . S
C668 H654 0.960 . S
C668 H655 0.960 . S
C668 C667 1.524 . S
C669 C666 1.403 . S
C669 C670 1.392 . S
C669 C673 1.495 . S
C670 C669 1.392 . S
C670 C671 1.385 . S
C670 C672 1.478 . S
C671 H665 0.930 . S
C671 C667 1.400 . S
C671 C670 1.385 . S
C672 C670 1.478 . S
C672 C674 1.381 . S
C672 C678 1.383 . S
C673 C669 1.495 . S
C673 H679 0.953 1_556 S
C673 H680 0.961 . S
C673 H681 0.960 1_556 S
C674 C672 1.381 . S
C674 C675 1.394 1_556 S
C674 H682 0.930 . S
C675 C674 1.394 1_554 S
C675 C676 1.383 1_554 S
C675 H683 0.929 . S
C676 C675 1.383 1_556 S
C676 C677 1.377 . S
C677 H661 0.930 . S
C677 C676 1.377 . S
C677 C678 1.379 . S
C678 H662 0.931 . S
C678 C672 1.383 . S
C678 C677 1.379 . S
H679 C673 0.953 1_554 S
H680 C673 0.961 . S
H681 C673 0.960 1_554 S
H682 C674 0.930 . S
H683 C675 0.929 . S
H684 C692 0.929 . S
H685 C694 0.930 . S
H686 C696 0.930 . S
H687 C699 0.929 . S
H688 C702 0.930 . S
H689 C704 0.960 . S
H690 C704 0.960 . S
H691 C704 0.960 . S
C692 H684 0.929 . S
C692 C693 1.377 . S
C692 C694 1.384 . S
C693 C692 1.377 . S
C693 C699 1.390 . S
C694 H685 0.930 . S
C694 C692 1.384 . S
C694 C695 1.372 . S
C695 C694 1.372 . S
C695 C696 1.400 . S
C695 C700 1.490 . S
C696 H686 0.930 . S
C696 C695 1.400 . S
C696 C699 1.386 . S
H697 C713 0.930 . S
H698 C714 0.931 . S
C699 H687 0.929 . S
C699 C693 1.390 . S
C699 C696 1.386 . S
C700 C695 1.490 . S
C700 C702 1.395 . S
C700 C703 1.403 . S
H701 C707 0.930 . S
C702 H688 0.930 . S
C702 C700 1.395 . S
C702 C705 1.403 . S
C703 C700 1.403 . S
C703 C704 1.524 . S
C703 C707 1.400 . S
C704 H689 0.960 . S
C704 H690 0.960 . S
C704 H691 0.960 . S
C704 C703 1.524 . S
C705 C702 1.403 . S
C705 C706 1.392 . S
C705 C709 1.495 . S
C706 C705 1.392 . S
C706 C707 1.385 . S
C706 C708 1.478 . S
C707 H701 0.930 . S
C707 C703 1.400 . S
C707 C706 1.385 . S
C708 C706 1.478 . S
C708 C710 1.381 . S
C708 C714 1.383 . S
C709 C705 1.495 . S
C709 H715 0.959 . S
C709 H716 0.961 . S
C709 H717 0.960 . S
C710 C708 1.381 . S
C710 C711 1.394 . S
C710 H718 0.930 . S
C711 C710 1.394 . S
C711 C712 1.383 . S
C711 H719 0.929 . S
C712 C711 1.383 . S
C712 C713 1.377 . S
C713 H697 0.930 . S
C713 C712 1.377 . S
C713 C714 1.379 . S
C714 H698 0.931 . S
C714 C708 1.383 . S
C714 C713 1.379 . S
H715 C709 0.959 . S
H716 C709 0.961 . S
H717 C709 0.960 . S
H718 C710 0.930 . S
H719 C711 0.929 . S
H720 C728 0.929 . S
H721 C730 0.930 . S
H722 C732 0.930 . S
H723 C735 0.929 . S
H724 C738 0.930 . S
H725 C740 0.960 . S
H726 C740 0.960 . S
H727 C740 0.960 . S
C728 H720 0.929 . S
C728 C729 1.377 . S
C728 C730 1.384 . S
C729 C728 1.377 . S
C729 C735 1.390 . S
C730 H721 0.930 . S
C730 C728 1.384 . S
C730 C731 1.372 . S
C731 C730 1.372 . S
C731 C732 1.400 . S
C731 C736 1.490 . S
C732 H722 0.930 . S
C732 C731 1.400 . S
C732 C735 1.386 . S
H733 C749 0.930 . S
H734 C750 0.931 . S
C735 H723 0.929 . S
C735 C729 1.390 . S
C735 C732 1.386 . S
C736 C731 1.490 . S
C736 C738 1.395 . S
C736 C739 1.403 . S
H737 C743 0.930 . S
C738 H724 0.930 . S
C738 C736 1.395 . S
C738 C741 1.403 . S
C739 C736 1.403 . S
C739 C740 1.524 . S
C739 C743 1.400 . S
C740 H725 0.960 . S
C740 H726 0.960 . S
C740 H727 0.960 . S
C740 C739 1.524 . S
C741 C738 1.403 . S
C741 C742 1.392 . S
C741 C745 1.495 . S
C742 C741 1.392 . S
C742 C743 1.385 . S
C742 C744 1.478 . S
C743 H737 0.930 . S
C743 C739 1.400 . S
C743 C742 1.385 . S
C744 C742 1.478 . S
C744 C746 1.381 . S
C744 C750 1.383 . S
C745 C741 1.495 . S
C745 H751 0.959 . S
C745 H752 0.961 . S
C745 H753 0.960 . S
C746 C744 1.381 . S
C746 C747 1.394 1_556 S
C746 H754 0.930 1_556 S
C747 C746 1.394 1_554 S
C747 C748 1.383 1_554 S
C747 H755 0.929 . S
C748 C747 1.383 1_556 S
C748 C749 1.377 . S
C749 H733 0.930 . S
C749 C748 1.377 . S
C749 C750 1.379 . S
C750 H734 0.931 . S
C750 C744 1.383 . S
C750 C749 1.379 . S
H751 C745 0.959 . S
H752 C745 0.961 . S
H753 C745 0.960 . S
H754 C746 0.930 1_554 S
H755 C747 0.929 . S
H756 C764 0.929 . S
H757 C766 0.930 . S
H758 C768 0.930 . S
H759 C771 0.929 . S
H760 C774 0.930 . S
H761 C776 0.960 . S
H762 C776 0.960 . S
H763 C776 0.960 . S
C764 H756 0.929 . S
C764 C765 1.377 . S
C764 C766 1.384 . S
C765 C764 1.377 . S
C765 C771 1.390 . S
C766 H757 0.930 . S
C766 C764 1.384 . S
C766 C767 1.372 . S
C767 C766 1.372 . S
C767 C768 1.400 . S
C767 C772 1.490 . S
C768 H758 0.930 . S
C768 C767 1.400 . S
C768 C771 1.386 . S
H769 C785 0.930 . S
H770 C786 0.931 . S
C771 H759 0.929 . S
C771 C765 1.390 . S
C771 C768 1.386 . S
C772 C767 1.490 . S
C772 C774 1.395 . S
C772 C775 1.403 . S
H773 C779 0.930 . S
C774 H760 0.930 . S
C774 C772 1.395 . S
C774 C777 1.403 . S
C775 C772 1.403 . S
C775 C776 1.524 . S
C775 C779 1.400 . S
C776 H761 0.960 . S
C776 H762 0.960 . S
C776 H763 0.960 . S
C776 C775 1.524 . S
C777 C774 1.403 . S
C777 C778 1.392 . S
C777 C781 1.495 . S
C778 C777 1.392 . S
C778 C779 1.385 . S
C778 C780 1.478 . S
C779 H773 0.930 . S
C779 C775 1.400 . S
C779 C778 1.385 . S
C780 C778 1.478 . S
C780 C782 1.381 . S
C780 C786 1.383 . S
C781 C777 1.495 . S
C781 H787 0.959 . S
C781 H788 0.961 . S
C781 H789 0.960 . S
C782 C780 1.381 . S
C782 C783 1.394 . S
C782 H790 0.930 . S
C783 C782 1.394 . S
C783 C784 1.383 . S
C783 H791 0.929 . S
C784 C783 1.383 . S
C784 C785 1.377 . S
C785 H769 0.930 . S
C785 C784 1.377 . S
C785 C786 1.379 . S
C786 H770 0.931 . S
C786 C780 1.383 . S
C786 C785 1.379 . S
H787 C781 0.959 . S
H788 C781 0.961 . S
H789 C781 0.960 . S
H790 C782 0.930 . S
H791 C783 0.929 . S
H792 C800 0.929 . S
H793 C802 0.930 . S
H794 C804 0.930 . S
H795 C807 0.929 . S
H796 C810 0.930 . S
H797 C812 0.960 . S
H798 C812 0.960 . S
H799 C812 0.960 . S
C800 H792 0.929 . S
C800 C801 1.377 . S
C800 C802 1.384 . S
C801 C800 1.377 . S
C801 C807 1.390 . S
C802 H793 0.930 . S
C802 C800 1.384 . S
C802 C803 1.372 . S
C803 C802 1.372 . S
C803 C804 1.400 . S
C803 C808 1.490 . S
C804 H794 0.930 . S
C804 C803 1.400 . S
C804 C807 1.386 . S
H805 C821 0.930 . S
H806 C822 0.931 . S
C807 H795 0.929 . S
C807 C801 1.390 . S
C807 C804 1.386 . S
C808 C803 1.490 . S
C808 C810 1.395 . S
C808 C811 1.403 . S
H809 C815 0.930 . S
C810 H796 0.930 . S
C810 C808 1.395 . S
C810 C813 1.403 . S
C811 C808 1.403 . S
C811 C812 1.524 . S
C811 C815 1.400 . S
C812 H797 0.960 . S
C812 H798 0.960 . S
C812 H799 0.960 . S
C812 C811 1.524 . S
C813 C810 1.403 . S
C813 C814 1.392 . S
C813 C817 1.495 . S
C814 C813 1.392 . S
C814 C815 1.385 . S
C814 C816 1.478 . S
C815 H809 0.930 . S
C815 C811 1.400 . S
C815 C814 1.385 . S
C816 C814 1.478 . S
C816 C818 1.381 . S
C816 C822 1.383 . S
C817 C813 1.495 . S
C817 H823 0.959 . S
C817 H824 0.961 . S
C817 H825 0.960 . S
C818 C816 1.381 . S
C818 C819 1.394 . S
C818 H826 0.930 . S
C819 C818 1.394 . S
C819 C820 1.383 . S
C819 H827 0.929 . S
C820 C819 1.383 . S
C820 C821 1.377 . S
C821 H805 0.930 . S
C821 C820 1.377 . S
C821 C822 1.379 . S
C822 H806 0.931 . S
C822 C816 1.383 . S
C822 C821 1.379 . S
H823 C817 0.959 . S
H824 C817 0.961 . S
H825 C817 0.960 . S
H826 C818 0.930 . S
H827 C819 0.929 . S
H828 C836 0.929 . S
H829 C838 0.930 . S
H830 C840 0.930 . S
H831 C843 0.929 . S
H832 C846 0.930 . S
H833 C848 0.960 . S
H834 C848 0.960 . S
H835 C848 0.960 . S
C836 H828 0.929 . S
C836 C837 1.377 . S
C836 C838 1.384 . S
C837 C836 1.377 . S
C837 C843 1.390 . S
C838 H829 0.930 . S
C838 C836 1.384 . S
C838 C839 1.372 . S
C839 C838 1.372 . S
C839 C840 1.400 . S
C839 C844 1.490 . S
C840 H830 0.930 . S
C840 C839 1.400 . S
C840 C843 1.386 . S
H841 C857 0.930 . S
H842 C858 0.931 . S
C843 H831 0.929 . S
C843 C837 1.390 . S
C843 C840 1.386 . S
C844 C839 1.490 . S
C844 C846 1.395 . S
C844 C847 1.403 . S
H845 C851 0.930 . S
C846 H832 0.930 . S
C846 C844 1.395 . S
C846 C849 1.403 . S
C847 C844 1.403 . S
C847 C848 1.524 . S
C847 C851 1.400 . S
C848 H833 0.960 . S
C848 H834 0.960 . S
C848 H835 0.960 . S
C848 C847 1.524 . S
C849 C846 1.403 . S
C849 C850 1.392 . S
C849 C853 1.495 . S
C850 C849 1.392 . S
C850 C851 1.385 . S
C850 C852 1.478 . S
C851 H845 0.930 . S
C851 C847 1.400 . S
C851 C850 1.385 . S
C852 C850 1.478 . S
C852 C854 1.381 . S
C852 C858 1.383 . S
C853 C849 1.495 . S
C853 H859 0.959 . S
C853 H860 0.961 . S
C853 H861 0.960 . S
C854 C852 1.381 . S
C854 C855 1.394 . S
C854 H862 0.930 . S
C855 C854 1.394 . S
C855 C856 1.383 . S
C855 H863 0.929 . S
C856 C855 1.383 . S
C856 C857 1.377 . S
C857 H841 0.930 . S
C857 C856 1.377 . S
C857 C858 1.379 . S
C858 H842 0.931 . S
C858 C852 1.383 . S
C858 C857 1.379 . S
H859 C853 0.959 . S
H860 C853 0.961 . S
H861 C853 0.960 . S
H862 C854 0.930 . S
H863 C855 0.929 . S
H864 C872 0.929 . S
H865 C874 0.930 . S
H866 C876 0.930 . S
H867 C879 0.929 . S
H868 C882 0.936 . S
H869 C884 0.960 . S
H870 C884 0.960 . S
H871 C884 0.960 . S
C872 H864 0.929 . S
C872 C873 1.377 . S
C872 C874 1.384 . S
C873 C872 1.377 . S
C873 C879 1.390 . S
C874 H865 0.930 . S
C874 C872 1.384 . S
C874 C875 1.372 . S
C875 C874 1.372 . S
C875 C876 1.400 . S
C875 C880 1.490 . S
C876 H866 0.930 . S
C876 C875 1.400 . S
C876 C879 1.386 . S
H877 C893 0.930 . S
H878 C894 0.931 . S
C879 H867 0.929 . S
C879 C873 1.390 . S
C879 C876 1.386 . S
C880 C875 1.490 . S
C880 C882 1.430 . S
C880 C883 1.403 1_545 S
H881 C887 0.930 . S
C882 H868 0.936 . S
C882 C880 1.430 . S
C882 C885 1.364 1_455 S
C883 C880 1.403 1_565 S
C883 C884 1.524 . S
C883 C887 1.400 1_455 S
C884 H869 0.960 . S
C884 H870 0.960 . S
C884 H871 0.960 . S
C884 C883 1.524 . S
C885 C882 1.364 1_655 S
C885 C886 1.392 1_545 S
C885 C889 1.495 . S
C886 C885 1.392 1_565 S
C886 C887 1.385 . S
C886 C888 1.478 . S
C887 H881 0.930 . S
C887 C883 1.400 1_655 S
C887 C886 1.385 . S
C888 C886 1.478 . S
C888 C890 1.381 . S
C888 C894 1.383 . S
C889 C885 1.495 . S
C889 H895 0.959 . S
C889 H896 0.961 . S
C889 H897 0.960 . S
C890 C888 1.381 . S
C890 C891 1.394 . S
C890 H898 0.930 . S
C891 C890 1.394 . S
C891 C892 1.383 . S
C891 H899 0.929 . S
C892 C891 1.383 . S
C892 C893 1.377 . S
C893 H877 0.930 . S
C893 C892 1.377 . S
C893 C894 1.379 . S
C894 H878 0.931 . S
C894 C888 1.383 . S
C894 C893 1.379 . S
H895 C889 0.959 . S
H896 C889 0.961 . S
H897 C889 0.960 . S
H898 C890 0.930 . S
H899 C891 0.929 . S
H900 C908 0.929 . S
H901 C910 0.930 . S
H902 C912 0.981 . S
H903 C915 0.929 . S
H904 C918 0.930 . S
H905 C920 0.960 . S
H906 C920 0.960 . S
H907 C920 0.960 . S
C908 H900 0.929 . S
C908 C909 1.377 . S
C908 C910 1.384 . S
C909 C908 1.377 . S
C909 C915 1.390 . S
C910 H901 0.930 . S
C910 C908 1.384 . S
C910 C911 1.372 . S
C911 C910 1.372 . S
C911 C912 1.400 . S
C911 C916 1.490 . S
C912 H902 0.981 . S
C912 C911 1.400 . S
C912 C915 1.386 . S
H913 C929 0.930 . S
H914 C930 0.931 . S
C915 H903 0.929 . S
C915 C909 1.390 . S
C915 C912 1.386 . S
C916 C911 1.490 . S
C916 C918 1.395 . S
C916 C919 1.403 . S
H917 C923 0.930 . S
C918 H904 0.930 . S
C918 C916 1.395 . S
C918 C921 1.403 1_655 S
C919 C916 1.403 . S
C919 C920 1.524 . S
C919 C923 1.400 1_655 S
C920 H905 0.960 . S
C920 H906 0.960 . S
C920 H907 0.960 . S
C920 C919 1.524 . S
C921 C918 1.403 1_455 S
C921 C922 1.392 . S
C921 C925 1.495 . S
C922 C921 1.392 . S
C922 C923 1.385 . S
C922 C924 1.478 . S
C923 H917 0.930 . S
C923 C919 1.400 1_455 S
C923 C922 1.385 . S
C924 C922 1.478 . S
C924 C926 1.381 . S
C924 C930 1.383 . S
C925 C921 1.495 . S
C925 H931 0.959 . S
C925 H932 0.961 . S
C925 H933 0.960 . S
C926 C924 1.381 . S
C926 C927 1.394 . S
C926 H934 0.914 1_455 S
C927 C926 1.394 . S
C927 C928 1.383 . S
C927 H935 0.929 . S
C928 C927 1.383 . S
C928 C929 1.377 . S
C929 H913 0.930 . S
C929 C928 1.377 . S
C929 C930 1.379 . S
C930 H914 0.931 . S
C930 C924 1.383 . S
C930 C929 1.379 . S
H931 C925 0.959 . S
H932 C925 0.961 . S
H933 C925 0.960 . S
H934 C926 0.914 1_655 S
H935 C927 0.929 . S
H936 C944 0.929 . S
H937 C946 0.930 . S
H938 C948 0.930 . S
H939 C951 0.929 . S
H940 C954 0.930 . S
H941 C956 0.960 . S
H942 C956 0.960 . S
H943 C956 0.960 . S
C944 H936 0.929 . S
C944 C945 1.377 . S
C944 C946 1.384 . S
C945 C944 1.377 . S
C945 C951 1.390 . S
C946 H937 0.930 . S
C946 C944 1.384 . S
C946 C947 1.372 . S
C947 C946 1.372 . S
C947 C948 1.400 . S
C947 C952 1.490 . S
C948 H938 0.930 . S
C948 C947 1.400 . S
C948 C951 1.386 . S
H949 C965 0.930 . S
H950 C966 0.931 . S
C951 H939 0.929 . S
C951 C945 1.390 . S
C951 C948 1.386 . S
C952 C947 1.490 . S
C952 C954 1.395 . S
C952 C955 1.403 . S
H953 C959 0.930 . S
C954 H940 0.930 . S
C954 C952 1.395 . S
C954 C957 1.403 . S
C955 C952 1.403 . S
C955 C956 1.524 . S
C955 C959 1.400 . S
C956 H941 0.960 . S
C956 H942 0.960 . S
C956 H943 0.960 . S
C956 C955 1.524 . S
C957 C954 1.403 . S
C957 C958 1.392 . S
C957 C961 1.495 . S
C958 C957 1.392 . S
C958 C959 1.385 . S
C958 C960 1.478 . S
C959 H953 0.930 . S
C959 C955 1.400 . S
C959 C958 1.385 . S
C960 C958 1.478 . S
C960 C962 1.381 . S
C960 C966 1.383 . S
C961 C957 1.495 . S
C961 H967 0.959 . S
C961 H968 0.961 . S
C961 H969 0.960 . S
C962 C960 1.381 . S
C962 C963 1.394 . S
C962 H970 0.930 . S
C963 C962 1.394 . S
C963 C964 1.383 . S
C963 H971 0.929 . S
C964 C963 1.383 . S
C964 C965 1.377 . S
C965 H949 0.930 . S
C965 C964 1.377 . S
C965 C966 1.379 . S
C966 H950 0.931 . S
C966 C960 1.383 . S
C966 C965 1.379 . S
H967 C961 0.959 . S
H968 C961 0.961 . S
H969 C961 0.960 . S
H970 C962 0.930 . S
H971 C963 0.929 . S
H972 C980 0.929 . S
H973 C982 0.930 . S
H974 C984 0.930 . S
H975 C987 0.929 . S
H976 C990 0.930 . S
H977 C992 0.960 . S
H978 C992 0.960 . S
H979 C992 0.960 . S
C980 H972 0.929 . S
C980 C981 1.377 . S
C980 C982 1.384 . S
C981 C980 1.377 . S
C981 C987 1.390 . S
C982 H973 0.930 . S
C982 C980 1.384 . S
C982 C983 1.372 . S
C983 C982 1.372 . S
C983 C984 1.400 . S
C983 C988 1.490 . S
C984 H974 0.930 . S
C984 C983 1.400 . S
C984 C987 1.386 . S
H985 C1001 0.930 . S
H986 C1002 0.931 . S
C987 H975 0.929 . S
C987 C981 1.390 . S
C987 C984 1.386 . S
C988 C983 1.490 . S
C988 C990 1.395 . S
C988 C991 1.403 . S
H989 C995 0.930 . S
C990 H976 0.930 . S
C990 C988 1.395 . S
C990 C993 1.403 1_565 S
C991 C988 1.403 . S
C991 C992 1.524 . S
C991 C995 1.400 1_565 S
C992 H977 0.960 . S
C992 H978 0.960 . S
C992 H979 0.960 . S
C992 C991 1.524 . S
C993 C990 1.403 1_545 S
C993 C994 1.392 . S
C993 C997 1.495 . S
C994 C993 1.392 . S
C994 C995 1.385 . S
C994 C996 1.478 . S
C995 H989 0.930 . S
C995 C991 1.400 1_545 S
C995 C994 1.385 . S
C996 C994 1.478 . S
C996 C998 1.381 . S
C996 C1002 1.383 . S
C997 C993 1.495 . S
C997 H1003 0.959 . S
C997 H1004 0.961 1_554 S
C997 H1005 0.960 . S
C998 C996 1.381 . S
C998 C999 1.394 . S
C998 H1006 0.930 . S
C999 C998 1.394 . S
C999 C1000 1.383 . S
C999 H1007 0.929 . S
C1000 C999 1.383 . S
C1000 C1001 1.377 . S
C1001 H985 0.930 . S
C1001 C1000 1.377 . S
C1001 C1002 1.379 . S
C1002 H986 0.931 . S
C1002 C996 1.383 . S
C1002 C1001 1.379 . S
H1003 C997 0.959 . S
H1004 C997 0.961 1_556 S
H1005 C997 0.960 . S
H1006 C998 0.930 . S
H1007 C999 0.929 . S
H1008 C1016 0.929 . S
H1009 C1018 0.930 . S
H1010 C1020 0.930 . S
H1011 C1023 0.929 . S
H1012 C1026 0.928 1_556 S
H1013 C1028 0.951 1_655 S
H1014 C1028 0.965 . S
H1015 C1028 0.964 . S
C1016 H1008 0.929 . S
C1016 C1017 1.377 . S
C1016 C1018 1.384 . S
C1017 C1016 1.377 . S
C1017 C1023 1.390 1_554 S
C1018 H1009 0.930 . S
C1018 C1016 1.384 . S
C1018 C1019 1.372 . S
C1019 C1018 1.372 . S
C1019 C1020 1.400 1_554 S
C1019 C1024 1.490 . S
C1020 H1010 0.930 . S
C1020 C1019 1.400 1_556 S
C1020 C1023 1.386 . S
H1021 C1037 0.930 . S
H1022 C1038 0.931 . S
C1023 H1011 0.929 . S
C1023 C1017 1.390 1_556 S
C1023 C1020 1.386 . S
C1024 C1019 1.490 . S
C1024 C1026 1.397 . S
C1024 C1027 1.403 . S
H1025 C1031 0.930 . S
C1026 H1012 0.928 1_554 S
C1026 C1024 1.397 . S
C1026 C1029 1.447 1_554 S
C1027 C1024 1.403 . S
C1027 C1028 1.524 . S
C1027 C1031 1.400 1_455 S
C1028 H1013 0.951 1_455 S
C1028 H1014 0.965 . S
C1028 H1015 0.964 . S
C1028 C1027 1.524 . S
C1029 C1026 1.447 1_556 S
C1029 C1030 1.349 1_456 S
C1029 C1033 1.498 . S
C1030 C1029 1.349 1_654 S
C1030 C1031 1.385 . S
C1030 C1032 1.478 . S
C1031 H1025 0.930 . S
C1031 C1027 1.400 1_655 S
C1031 C1030 1.385 . S
C1032 C1030 1.478 . S
C1032 C1034 1.381 . S
C1032 C1038 1.383 1_554 S
C1033 C1029 1.498 . S
C1033 H1039 0.959 . S
C1033 H1040 0.961 1_455 S
C1033 H1041 0.960 1_456 S
C1034 C1032 1.381 . S
C1034 C1035 1.394 . S
C1034 H1042 0.930 . S
C1035 C1034 1.394 . S
C1035 C1036 1.383 . S
C1035 H1043 0.929 . S
C1036 C1035 1.383 . S
C1036 C1037 1.377 1_554 S
C1037 H1021 0.930 . S
C1037 C1036 1.377 1_556 S
C1037 C1038 1.379 . S
C1038 H1022 0.931 . S
C1038 C1032 1.383 1_556 S
C1038 C1037 1.379 . S
H1039 C1033 0.959 . S
H1040 C1033 0.961 1_655 S
H1041 C1033 0.960 1_654 S
H1042 C1034 0.930 . S
H1043 C1035 0.929 . S
H1044 C1052 0.929 . S
H1045 C1054 0.930 . S
H1046 C1056 0.930 . S
H1047 C1059 0.929 . S
H1048 C1062 0.930 . S
H1049 C1064 0.960 . S
H1050 C1064 0.960 . S
H1051 C1064 0.960 . S
C1052 H1044 0.929 . S
C1052 C1053 1.377 . S
C1052 C1054 1.384 . S
C1053 C1052 1.377 . S
C1053 C1059 1.390 . S
C1054 H1045 0.930 . S
C1054 C1052 1.384 . S
C1054 C1055 1.372 . S
C1055 C1054 1.372 . S
C1055 C1056 1.400 . S
C1055 C1060 1.490 . S
C1056 H1046 0.930 . S
C1056 C1055 1.400 . S
C1056 C1059 1.386 . S
H1057 C1073 0.930 . S
H1058 C1074 0.931 . S
C1059 H1047 0.929 . S
C1059 C1053 1.390 . S
C1059 C1056 1.386 . S
C1060 C1055 1.490 . S
C1060 C1062 1.395 . S
C1060 C1063 1.403 . S
H1061 C1067 0.930 . S
C1062 H1048 0.930 . S
C1062 C1060 1.395 . S
C1062 C1065 1.403 . S
C1063 C1060 1.403 . S
C1063 C1064 1.524 . S
C1063 C1067 1.400 . S
C1064 H1049 0.960 . S
C1064 H1050 0.960 . S
C1064 H1051 0.960 . S
C1064 C1063 1.524 . S
C1065 C1062 1.403 . S
C1065 C1066 1.392 . S
C1065 C1069 1.495 . S
C1066 C1065 1.392 . S
C1066 C1067 1.385 . S
C1066 C1068 1.478 . S
C1067 H1061 0.930 . S
C1067 C1063 1.400 . S
C1067 C1066 1.385 . S
C1068 C1066 1.478 . S
C1068 C1070 1.381 . S
C1068 C1074 1.383 . S
C1069 C1065 1.495 . S
C1069 H1075 0.959 . S
C1069 H1076 0.961 . S
C1069 H1077 0.960 . S
C1070 C1068 1.381 . S
C1070 C1071 1.394 . S
C1070 H1078 0.930 . S
C1071 C1070 1.394 . S
C1071 C1072 1.383 . S
C1071 H1079 0.929 . S
C1072 C1071 1.383 . S
C1072 C1073 1.377 . S
C1073 H1057 0.930 . S
C1073 C1072 1.377 . S
C1073 C1074 1.379 . S
C1074 H1058 0.931 . S
C1074 C1068 1.383 . S
C1074 C1073 1.379 . S
H1075 C1069 0.959 . S
H1076 C1069 0.961 . S
H1077 C1069 0.960 . S
H1078 C1070 0.930 . S
H1079 C1071 0.929 . S
H1080 C1088 0.929 . S
H1081 C1090 0.930 . S
H1082 C1092 0.930 . S
H1083 C1095 0.929 . S
H1084 C1098 0.930 . S
H1085 C1100 0.960 . S
H1086 C1100 0.960 . S
H1087 C1100 0.960 . S
C1088 H1080 0.929 . S
C1088 C1089 1.377 . S
C1088 C1090 1.384 . S
C1089 C1088 1.377 . S
C1089 C1095 1.390 . S
C1090 H1081 0.930 . S
C1090 C1088 1.384 . S
C1090 C1091 1.372 . S
C1091 C1090 1.372 . S
C1091 C1092 1.400 . S
C1091 C1096 1.490 . S
C1092 H1082 0.930 . S
C1092 C1091 1.400 . S
C1092 C1095 1.386 . S
H1093 C1109 0.930 . S
H1094 C1110 0.931 . S
C1095 H1083 0.929 . S
C1095 C1089 1.390 . S
C1095 C1092 1.386 . S
C1096 C1091 1.490 . S
C1096 C1098 1.395 1_545 S
C1096 C1099 1.403 . S
H1097 C1103 0.930 . S
C1098 H1084 0.930 . S
C1098 C1096 1.395 1_565 S
C1098 C1101 1.403 . S
C1099 C1096 1.403 . S
C1099 C1100 1.524 . S
C1099 C1103 1.400 . S
C1100 H1085 0.960 . S
C1100 H1086 0.960 . S
C1100 H1087 0.960 . S
C1100 C1099 1.524 . S
C1101 C1098 1.403 . S
C1101 C1102 1.392 . S
C1101 C1105 1.495 . S
C1102 C1101 1.392 . S
C1102 C1103 1.385 1_565 S
C1102 C1104 1.478 . S
C1103 H1097 0.930 . S
C1103 C1099 1.400 . S
C1103 C1102 1.385 1_545 S
C1104 C1102 1.478 . S
C1104 C1106 1.381 . S
C1104 C1110 1.383 . S
C1105 C1101 1.495 . S
C1105 H1111 0.959 . S
C1105 H1112 0.961 . S
C1105 H1113 0.960 . S
C1106 C1104 1.381 . S
C1106 C1107 1.394 . S
C1106 H1114 0.930 . S
C1107 C1106 1.394 . S
C1107 C1108 1.383 . S
C1107 H1115 0.929 . S
C1108 C1107 1.383 . S
C1108 C1109 1.377 . S
C1109 H1093 0.930 . S
C1109 C1108 1.377 . S
C1109 C1110 1.379 . S
C1110 H1094 0.931 . S
C1110 C1104 1.383 . S
C1110 C1109 1.379 . S
H1111 C1105 0.959 . S
H1112 C1105 0.961 . S
H1113 C1105 0.960 . S
H1114 C1106 0.930 . S
H1115 C1107 0.929 . S
H1116 C1124 0.929 . S
H1117 C1126 0.930 . S
H1118 C1128 0.930 1_655 S
H1119 C1131 0.929 . S
H1120 C1134 0.930 . S
H1121 C1136 0.960 . S
H1122 C1136 0.960 . S
H1123 C1136 0.960 . S
C1124 H1116 0.929 . S
C1124 C1125 1.377 . S
C1124 C1126 1.384 . S
C1125 C1124 1.377 . S
C1125 C1131 1.390 . S
C1126 H1117 0.930 . S
C1126 C1124 1.384 . S
C1126 C1127 1.372 . S
C1127 C1126 1.372 . S
C1127 C1128 1.400 . S
C1127 C1132 1.490 . S
C1128 H1118 0.930 1_455 S
C1128 C1127 1.400 . S
C1128 C1131 1.386 . S
H1129 C1145 0.930 . S
H1130 C1146 0.931 . S
C1131 H1119 0.929 . S
C1131 C1125 1.390 . S
C1131 C1128 1.386 . S
C1132 C1127 1.490 . S
C1132 C1134 1.395 . S
C1132 C1135 1.403 1_455 S
H1133 C1139 0.930 . S
C1134 H1120 0.930 . S
C1134 C1132 1.395 . S
C1134 C1137 1.403 1_545 S
C1135 C1132 1.403 1_655 S
C1135 C1136 1.524 . S
C1135 C1139 1.400 1_545 S
C1136 H1121 0.960 . S
C1136 H1122 0.960 . S
C1136 H1123 0.960 . S
C1136 C1135 1.524 . S
C1137 C1134 1.403 1_565 S
C1137 C1138 1.392 1_455 S
C1137 C1141 1.495 . S
C1138 C1137 1.392 1_655 S
C1138 C1139 1.385 . S
C1138 C1140 1.478 . S
C1139 H1133 0.930 . S
C1139 C1135 1.400 1_565 S
C1139 C1138 1.385 . S
C1140 C1138 1.478 . S
C1140 C1142 1.381 . S
C1140 C1146 1.383 . S
C1141 C1137 1.495 . S
C1141 H1147 0.959 . S
C1141 H1148 0.961 . S
C1141 H1149 0.960 . S
C1142 C1140 1.381 . S
C1142 C1143 1.394 . S
C1142 H1150 0.930 1_655 S
C1143 C1142 1.394 . S
C1143 C1144 1.383 . S
C1143 H1151 0.929 . S
C1144 C1143 1.383 . S
C1144 C1145 1.377 . S
C1145 H1129 0.930 . S
C1145 C1144 1.377 . S
C1145 C1146 1.379 . S
C1146 H1130 0.931 . S
C1146 C1140 1.383 . S
C1146 C1145 1.379 . S
H1147 C1141 0.959 . S
H1148 C1141 0.961 . S
H1149 C1141 0.960 . S
H1150 C1142 0.930 1_455 S
H1151 C1143 0.929 . S
H1152 C1160 0.929 . S
H1153 C1162 0.930 . S
H1154 C1164 0.930 . S
H1155 C1167 0.929 . S
H1156 C1170 0.930 . S
H1157 C1172 0.960 . S
H1158 C1172 0.960 . S
H1159 C1172 0.960 . S
C1160 H1152 0.929 . S
C1160 C1161 1.377 . S
C1160 C1162 1.384 . S
C1161 C1160 1.377 . S
C1161 C1167 1.390 . S
C1162 H1153 0.930 . S
C1162 C1160 1.384 . S
C1162 C1163 1.372 . S
C1163 C1162 1.372 . S
C1163 C1164 1.400 . S
C1163 C1168 1.490 . S
C1164 H1154 0.930 . S
C1164 C1163 1.400 . S
C1164 C1167 1.386 . S
H1165 C1181 0.930 . S
H1166 C1182 0.931 . S
C1167 H1155 0.929 . S
C1167 C1161 1.390 . S
C1167 C1164 1.386 . S
C1168 C1163 1.490 . S
C1168 C1170 1.395 . S
C1168 C1171 1.403 . S
H1169 C1175 0.930 . S
C1170 H1156 0.930 . S
C1170 C1168 1.395 . S
C1170 C1173 1.403 . S
C1171 C1168 1.403 . S
C1171 C1172 1.524 . S
C1171 C1175 1.400 . S
C1172 H1157 0.960 . S
C1172 H1158 0.960 . S
C1172 H1159 0.960 . S
C1172 C1171 1.524 . S
C1173 C1170 1.403 . S
C1173 C1174 1.392 . S
C1173 C1177 1.495 . S
C1174 C1173 1.392 . S
C1174 C1175 1.385 . S
C1174 C1176 1.478 . S
C1175 H1169 0.930 . S
C1175 C1171 1.400 . S
C1175 C1174 1.385 . S
C1176 C1174 1.478 . S
C1176 C1178 1.381 . S
C1176 C1182 1.383 . S
C1177 C1173 1.495 . S
C1177 H1183 0.959 . S
C1177 H1184 0.961 . S
C1177 H1185 0.960 . S
C1178 C1176 1.381 . S
C1178 C1179 1.394 . S
C1178 H1186 0.930 . S
C1179 C1178 1.394 . S
C1179 C1180 1.383 . S
C1179 H1187 0.929 . S
C1180 C1179 1.383 . S
C1180 C1181 1.377 . S
C1181 H1165 0.930 . S
C1181 C1180 1.377 . S
C1181 C1182 1.379 . S
C1182 H1166 0.931 . S
C1182 C1176 1.383 . S
C1182 C1181 1.379 . S
H1183 C1177 0.959 . S
H1184 C1177 0.961 . S
H1185 C1177 0.960 . S
H1186 C1178 0.930 . S
H1187 C1179 0.929 . S
H1188 C1196 0.929 . S
H1189 C1198 0.930 . S
H1190 C1200 0.930 . S
H1191 C1203 0.929 . S
H1192 C1206 0.930 . S
H1193 C1208 0.960 . S
H1194 C1208 0.960 . S
H1195 C1208 0.960 . S
C1196 H1188 0.929 . S
C1196 C1197 1.377 . S
C1196 C1198 1.384 . S
C1197 C1196 1.377 . S
C1197 C1203 1.390 . S
C1198 H1189 0.930 . S
C1198 C1196 1.384 . S
C1198 C1199 1.372 . S
C1199 C1198 1.372 . S
C1199 C1200 1.400 . S
C1199 C1204 1.490 . S
C1200 H1190 0.930 . S
C1200 C1199 1.400 . S
C1200 C1203 1.386 . S
H1201 C1217 0.930 . S
H1202 C1218 0.931 . S
C1203 H1191 0.929 . S
C1203 C1197 1.390 . S
C1203 C1200 1.386 . S
C1204 C1199 1.490 . S
C1204 C1206 1.395 . S
C1204 C1207 1.403 . S
H1205 C1211 0.930 . S
C1206 H1192 0.930 . S
C1206 C1204 1.395 . S
C1206 C1209 1.403 . S
C1207 C1204 1.403 . S
C1207 C1208 1.524 . S
C1207 C1211 1.400 . S
C1208 H1193 0.960 . S
C1208 H1194 0.960 . S
C1208 H1195 0.960 . S
C1208 C1207 1.524 . S
C1209 C1206 1.403 . S
C1209 C1210 1.392 . S
C1209 C1213 1.495 . S
C1210 C1209 1.392 . S
C1210 C1211 1.385 . S
C1210 C1212 1.478 . S
C1211 H1205 0.930 . S
C1211 C1207 1.400 . S
C1211 C1210 1.385 . S
C1212 C1210 1.478 . S
C1212 C1214 1.381 . S
C1212 C1218 1.383 . S
C1213 C1209 1.495 . S
C1213 H1219 0.959 . S
C1213 H1220 0.961 . S
C1213 H1221 0.960 . S
C1214 C1212 1.381 . S
C1214 C1215 1.394 . S
C1214 H1222 0.930 . S
C1215 C1214 1.394 . S
C1215 C1216 1.383 . S
C1215 H1223 0.929 . S
C1216 C1215 1.383 . S
C1216 C1217 1.377 . S
C1217 H1201 0.930 . S
C1217 C1216 1.377 . S
C1217 C1218 1.379 . S
C1218 H1202 0.931 . S
C1218 C1212 1.383 . S
C1218 C1217 1.379 . S
H1219 C1213 0.959 . S
H1220 C1213 0.961 . S
H1221 C1213 0.960 . S
H1222 C1214 0.930 . S
H1223 C1215 0.929 . S
H1224 C1232 0.929 . S
H1225 C1234 0.930 . S
H1226 C1236 0.930 . S
H1227 C1239 0.929 . S
H1228 C1242 0.930 . S
H1229 C1244 0.960 . S
H1230 C1244 0.960 . S
H1231 C1244 0.960 . S
C1232 H1224 0.929 . S
C1232 C1233 1.377 . S
C1232 C1234 1.384 . S
C1233 C1232 1.377 . S
C1233 C1239 1.390 . S
C1234 H1225 0.930 . S
C1234 C1232 1.384 . S
C1234 C1235 1.372 . S
C1235 C1234 1.372 . S
C1235 C1236 1.400 . S
C1235 C1240 1.490 . S
C1236 H1226 0.930 . S
C1236 C1235 1.400 . S
C1236 C1239 1.386 . S
H1237 C1253 0.930 . S
H1238 C1254 0.931 . S
C1239 H1227 0.929 . S
C1239 C1233 1.390 . S
C1239 C1236 1.386 . S
C1240 C1235 1.490 . S
C1240 C1242 1.395 . S
C1240 C1243 1.403 . S
H1241 C1247 0.925 1_556 S
C1242 H1228 0.930 . S
C1242 C1240 1.395 . S
C1242 C1245 1.403 . S
C1243 C1240 1.403 . S
C1243 C1244 1.524 . S
C1243 C1247 1.400 . S
C1244 H1229 0.960 . S
C1244 H1230 0.960 . S
C1244 H1231 0.960 . S
C1244 C1243 1.524 . S
C1245 C1242 1.403 . S
C1245 C1246 1.392 1_554 S
C1245 C1249 1.495 1_554 S
C1246 C1245 1.392 1_556 S
C1246 C1247 1.385 1_556 S
C1246 C1248 1.478 . S
C1247 H1241 0.925 1_554 S
C1247 C1243 1.400 . S
C1247 C1246 1.385 1_554 S
C1248 C1246 1.478 . S
C1248 C1250 1.381 . S
C1248 C1254 1.383 . S
C1249 C1245 1.495 1_556 S
C1249 H1255 0.959 1_556 S
C1249 H1256 0.961 . S
C1249 H1257 0.960 . S
C1250 C1248 1.381 . S
C1250 C1251 1.394 . S
C1250 H1258 0.930 . S
C1251 C1250 1.394 . S
C1251 C1252 1.383 . S
C1251 H1259 0.929 . S
C1252 C1251 1.383 . S
C1252 C1253 1.377 . S
C1253 H1237 0.930 . S
C1253 C1252 1.377 . S
C1253 C1254 1.379 . S
C1254 H1238 0.931 . S
C1254 C1248 1.383 . S
C1254 C1253 1.379 . S
H1255 C1249 0.959 1_554 S
H1256 C1249 0.961 . S
H1257 C1249 0.960 . S
H1258 C1250 0.930 . S
H1259 C1251 0.929 . S
H1260 C1268 0.929 . S
H1261 C1270 0.930 . S
H1262 C1272 0.930 . S
H1263 C1275 0.929 . S
H1264 C1278 0.930 . S
H1265 C1280 0.960 . S
H1266 C1280 0.960 . S
H1267 C1280 0.960 . S
C1268 H1260 0.929 . S
C1268 C1269 1.377 . S
C1268 C1270 1.384 . S
C1269 C1268 1.377 . S
C1269 C1275 1.390 . S
C1270 H1261 0.930 . S
C1270 C1268 1.384 . S
C1270 C1271 1.372 . S
C1271 C1270 1.372 . S
C1271 C1272 1.400 . S
C1271 C1276 1.490 . S
C1272 H1262 0.930 . S
C1272 C1271 1.400 . S
C1272 C1275 1.386 . S
H1273 C1289 0.930 . S
H1274 C1290 0.931 . S
C1275 H1263 0.929 . S
C1275 C1269 1.390 . S
C1275 C1272 1.386 . S
C1276 C1271 1.490 . S
C1276 C1278 1.395 . S
C1276 C1279 1.403 . S
H1277 C1283 0.930 . S
C1278 H1264 0.930 . S
C1278 C1276 1.395 . S
C1278 C1281 1.403 . S
C1279 C1276 1.403 . S
C1279 C1280 1.524 . S
C1279 C1283 1.400 . S
C1280 H1265 0.960 . S
C1280 H1266 0.960 . S
C1280 H1267 0.960 . S
C1280 C1279 1.524 . S
C1281 C1278 1.403 . S
C1281 C1282 1.392 . S
C1281 C1285 1.495 . S
C1282 C1281 1.392 . S
C1282 C1283 1.385 . S
C1282 C1284 1.478 . S
C1283 H1277 0.930 . S
C1283 C1279 1.400 . S
C1283 C1282 1.385 . S
C1284 C1282 1.478 . S
C1284 C1286 1.381 . S
C1284 C1290 1.383 . S
C1285 C1281 1.495 . S
C1285 H1291 0.959 . S
C1285 H1292 0.961 . S
C1285 H1293 0.960 . S
C1286 C1284 1.381 . S
C1286 C1287 1.394 . S
C1286 H1294 0.930 . S
C1287 C1286 1.394 . S
C1287 C1288 1.383 . S
C1287 H1295 0.929 . S
C1288 C1287 1.383 . S
C1288 C1289 1.377 . S
C1289 H1273 0.930 . S
C1289 C1288 1.377 . S
C1289 C1290 1.379 . S
C1290 H1274 0.931 . S
C1290 C1284 1.383 . S
C1290 C1289 1.379 . S
H1291 C1285 0.959 . S
H1292 C1285 0.961 . S
H1293 C1285 0.960 . S
H1294 C1286 0.930 . S
H1295 C1287 0.929 . S
H1296 C1304 0.929 . S
H1297 C1306 0.930 . S
H1298 C1308 0.930 . S
H1299 C1311 0.929 . S
H1300 C1314 0.930 . S
H1301 C1316 0.960 . S
H1302 C1316 0.960 . S
H1303 C1316 0.960 . S
C1304 H1296 0.929 . S
C1304 C1305 1.377 . S
C1304 C1306 1.384 . S
C1305 C1304 1.377 . S
C1305 C1311 1.390 . S
C1306 H1297 0.930 . S
C1306 C1304 1.384 . S
C1306 C1307 1.372 . S
C1307 C1306 1.372 . S
C1307 C1308 1.400 . S
C1307 C1312 1.490 . S
C1308 H1298 0.930 . S
C1308 C1307 1.400 . S
C1308 C1311 1.386 . S
H1309 C1325 0.930 . S
H1310 C1326 0.931 . S
C1311 H1299 0.929 . S
C1311 C1305 1.390 . S
C1311 C1308 1.386 . S
C1312 C1307 1.490 . S
C1312 C1314 1.395 . S
C1312 C1315 1.403 . S
H1313 C1319 0.930 . S
C1314 H1300 0.930 . S
C1314 C1312 1.395 . S
C1314 C1317 1.403 . S
C1315 C1312 1.403 . S
C1315 C1316 1.524 . S
C1315 C1319 1.400 . S
C1316 H1301 0.960 . S
C1316 H1302 0.960 . S
C1316 H1303 0.960 . S
C1316 C1315 1.524 . S
C1317 C1314 1.403 . S
C1317 C1318 1.392 . S
C1317 C1321 1.495 . S
C1318 C1317 1.392 . S
C1318 C1319 1.385 . S
C1318 C1320 1.478 . S
C1319 H1313 0.930 . S
C1319 C1315 1.400 . S
C1319 C1318 1.385 . S
C1320 C1318 1.478 . S
C1320 C1322 1.381 . S
C1320 C1326 1.383 . S
C1321 C1317 1.495 . S
C1321 H1327 0.959 . S
C1321 H1328 0.961 . S
C1321 H1329 0.960 . S
C1322 C1320 1.381 . S
C1322 C1323 1.394 . S
C1322 H1330 0.930 . S
C1323 C1322 1.394 . S
C1323 C1324 1.383 . S
C1323 H1331 0.929 . S
C1324 C1323 1.383 . S
C1324 C1325 1.377 . S
C1325 H1309 0.930 . S
C1325 C1324 1.377 . S
C1325 C1326 1.379 . S
C1326 H1310 0.931 . S
C1326 C1320 1.383 . S
C1326 C1325 1.379 . S
H1327 C1321 0.959 . S
H1328 C1321 0.961 . S
H1329 C1321 0.960 . S
H1330 C1322 0.930 . S
H1331 C1323 0.929 . S
H1332 C1340 0.929 . S
H1333 C1342 0.930 . S
H1334 C1344 0.930 . S
H1335 C1347 0.929 . S
H1336 C1350 0.930 . S
H1337 C1352 0.960 . S
H1338 C1352 0.960 . S
H1339 C1352 0.960 . S
C1340 H1332 0.929 . S
C1340 C1341 1.377 . S
C1340 C1342 1.384 . S
C1341 C1340 1.377 . S
C1341 C1347 1.390 . S
C1342 H1333 0.930 . S
C1342 C1340 1.384 . S
C1342 C1343 1.372 . S
C1343 C1342 1.372 . S
C1343 C1344 1.400 . S
C1343 C1348 1.490 . S
C1344 H1334 0.930 . S
C1344 C1343 1.400 . S
C1344 C1347 1.386 . S
H1345 C1361 0.930 . S
H1346 C1362 0.931 . S
C1347 H1335 0.929 . S
C1347 C1341 1.390 . S
C1347 C1344 1.386 . S
C1348 C1343 1.490 . S
C1348 C1350 1.395 . S
C1348 C1351 1.403 . S
H1349 C1355 0.930 1_556 S
C1350 H1336 0.930 . S
C1350 C1348 1.395 . S
C1350 C1353 1.403 . S
C1351 C1348 1.403 . S
C1351 C1352 1.524 . S
C1351 C1355 1.400 . S
C1352 H1337 0.960 . S
C1352 H1338 0.960 . S
C1352 H1339 0.960 . S
C1352 C1351 1.524 . S
C1353 C1350 1.403 . S
C1353 C1354 1.392 1_554 S
C1353 C1357 1.495 1_554 S
C1354 C1353 1.392 1_556 S
C1354 C1355 1.385 1_556 S
C1354 C1356 1.478 . S
C1355 H1349 0.930 1_554 S
C1355 C1351 1.400 . S
C1355 C1354 1.385 1_554 S
C1356 C1354 1.478 . S
C1356 C1358 1.381 . S
C1356 C1362 1.383 . S
C1357 C1353 1.495 1_556 S
C1357 H1363 0.959 1_556 S
C1357 H1364 0.961 . S
C1357 H1365 0.960 . S
C1358 C1356 1.381 . S
C1358 C1359 1.394 . S
C1358 H1366 0.930 . S
C1359 C1358 1.394 . S
C1359 C1360 1.383 . S
C1359 H1367 0.929 . S
C1360 C1359 1.383 . S
C1360 C1361 1.377 . S
C1361 H1345 0.930 . S
C1361 C1360 1.377 . S
C1361 C1362 1.379 . S
C1362 H1346 0.931 . S
C1362 C1356 1.383 . S
C1362 C1361 1.379 . S
H1363 C1357 0.959 1_554 S
H1364 C1357 0.961 . S
H1365 C1357 0.960 . S
H1366 C1358 0.930 . S
H1367 C1359 0.929 . S
H1368 C1376 0.929 . S
H1369 C1378 0.930 . S
H1370 C1380 0.930 . S
H1371 C1383 0.929 . S
H1372 C1386 0.930 . S
H1373 C1388 0.960 . S
H1374 C1388 0.960 . S
H1375 C1388 0.960 . S
C1376 H1368 0.929 . S
C1376 C1377 1.377 . S
C1376 C1378 1.384 . S
C1377 C1376 1.377 . S
C1377 C1383 1.390 . S
C1378 H1369 0.930 . S
C1378 C1376 1.384 . S
C1378 C1379 1.372 . S
C1379 C1378 1.372 . S
C1379 C1380 1.400 . S
C1379 C1384 1.490 . S
C1380 H1370 0.930 . S
C1380 C1379 1.400 . S
C1380 C1383 1.386 . S
H1381 C1397 0.930 . S
H1382 C1398 0.931 . S
C1383 H1371 0.929 . S
C1383 C1377 1.390 . S
C1383 C1380 1.386 . S
C1384 C1379 1.490 . S
C1384 C1386 1.395 . S
C1384 C1387 1.403 . S
H1385 C1391 0.930 . S
C1386 H1372 0.930 . S
C1386 C1384 1.395 . S
C1386 C1389 1.403 . S
C1387 C1384 1.403 . S
C1387 C1388 1.524 . S
C1387 C1391 1.400 . S
C1388 H1373 0.960 . S
C1388 H1374 0.960 . S
C1388 H1375 0.960 . S
C1388 C1387 1.524 . S
C1389 C1386 1.403 . S
C1389 C1390 1.392 . S
C1389 C1393 1.495 . S
C1390 C1389 1.392 . S
C1390 C1391 1.385 . S
C1390 C1392 1.478 . S
C1391 H1385 0.930 . S
C1391 C1387 1.400 . S
C1391 C1390 1.385 . S
C1392 C1390 1.478 . S
C1392 C1394 1.381 . S
C1392 C1398 1.383 . S
C1393 C1389 1.495 . S
C1393 H1399 0.959 . S
C1393 H1400 0.961 . S
C1393 H1401 0.960 . S
C1394 C1392 1.381 . S
C1394 C1395 1.394 . S
C1394 H1402 0.930 . S
C1395 C1394 1.394 . S
C1395 C1396 1.383 . S
C1395 H1403 0.929 . S
C1396 C1395 1.383 . S
C1396 C1397 1.377 . S
C1397 H1381 0.930 . S
C1397 C1396 1.377 . S
C1397 C1398 1.379 . S
C1398 H1382 0.931 . S
C1398 C1392 1.383 . S
C1398 C1397 1.379 . S
H1399 C1393 0.959 . S
H1400 C1393 0.961 . S
H1401 C1393 0.960 . S
H1402 C1394 0.930 . S
H1403 C1395 0.929 . S
H1404 C1412 0.929 . S
H1405 C1414 0.930 . S
H1406 C1416 0.930 . S
H1407 C1419 0.929 . S
H1408 C1422 0.930 . S
H1409 C1424 0.960 . S
H1410 C1424 0.960 . S
H1411 C1424 0.960 . S
C1412 H1404 0.929 . S
C1412 C1413 1.377 . S
C1412 C1414 1.384 . S
C1413 C1412 1.377 . S
C1413 C1419 1.390 . S
C1414 H1405 0.930 . S
C1414 C1412 1.384 . S
C1414 C1415 1.372 . S
C1415 C1414 1.372 . S
C1415 C1416 1.400 . S
C1415 C1420 1.490 . S
C1416 H1406 0.930 . S
C1416 C1415 1.400 . S
C1416 C1419 1.386 . S
H1417 C1433 0.930 . S
H1418 C1434 0.931 . S
C1419 H1407 0.929 . S
C1419 C1413 1.390 . S
C1419 C1416 1.386 . S
C1420 C1415 1.490 . S
C1420 C1422 1.395 . S
C1420 C1423 1.403 . S
H1421 C1427 0.930 . S
C1422 H1408 0.930 . S
C1422 C1420 1.395 . S
C1422 C1425 1.403 . S
C1423 C1420 1.403 . S
C1423 C1424 1.524 . S
C1423 C1427 1.400 . S
C1424 H1409 0.960 . S
C1424 H1410 0.960 . S
C1424 H1411 0.960 . S
C1424 C1423 1.524 . S
C1425 C1422 1.403 . S
C1425 C1426 1.392 . S
C1425 C1429 1.495 . S
C1426 C1425 1.392 . S
C1426 C1427 1.385 . S
C1426 C1428 1.478 . S
C1427 H1421 0.930 . S
C1427 C1423 1.400 . S
C1427 C1426 1.385 . S
C1428 C1426 1.478 . S
C1428 C1430 1.381 . S
C1428 C1434 1.383 . S
C1429 C1425 1.495 . S
C1429 H1435 0.959 . S
C1429 H1436 0.961 . S
C1429 H1437 0.960 . S
C1430 C1428 1.381 . S
C1430 C1431 1.394 . S
C1430 H1438 0.930 . S
C1431 C1430 1.394 . S
C1431 C1432 1.383 . S
C1431 H1439 0.929 . S
C1432 C1431 1.383 . S
C1432 C1433 1.377 . S
C1433 H1417 0.930 . S
C1433 C1432 1.377 . S
C1433 C1434 1.379 . S
C1434 H1418 0.931 . S
C1434 C1428 1.383 . S
C1434 C1433 1.379 . S
H1435 C1429 0.959 . S
H1436 C1429 0.961 . S
H1437 C1429 0.960 . S
H1438 C1430 0.930 . S
H1439 C1431 0.929 . S
H1440 C1448 0.929 . S
H1441 C1450 0.930 . S
H1442 C1452 0.930 . S
H1443 C1455 0.929 . S
H1444 C1458 0.919 1_556 S
H1445 C1460 0.960 1_554 S
H1446 C1460 0.960 . S
H1447 C1460 0.960 . S
C1448 H1440 0.929 . S
C1448 C1449 1.377 . S
C1448 C1450 1.384 . S
C1449 C1448 1.377 . S
C1449 C1455 1.390 . S
C1450 H1441 0.930 . S
C1450 C1448 1.384 . S
C1450 C1451 1.372 . S
C1451 C1450 1.372 . S
C1451 C1452 1.400 . S
C1451 C1456 1.490 . S
C1452 H1442 0.930 . S
C1452 C1451 1.400 . S
C1452 C1455 1.386 . S
H1453 C1469 0.930 . S
H1454 C1470 0.931 . S
C1455 H1443 0.929 . S
C1455 C1449 1.390 . S
C1455 C1452 1.386 . S
C1456 C1451 1.490 . S
C1456 C1458 1.395 1_556 S
C1456 C1459 1.403 1_556 S
H1457 C1463 0.930 . S
C1458 H1444 0.919 1_554 S
C1458 C1456 1.395 1_554 S
C1458 C1461 1.403 . S
C1459 C1456 1.403 1_554 S
C1459 C1460 1.524 1_554 S
C1459 C1463 1.400 . S
C1460 H1445 0.960 1_556 S
C1460 H1446 0.960 . S
C1460 H1447 0.960 . S
C1460 C1459 1.524 1_556 S
C1461 C1458 1.403 . S
C1461 C1462 1.392 . S
C1461 C1465 1.495 . S
C1462 C1461 1.392 . S
C1462 C1463 1.385 . S
C1462 C1464 1.478 . S
C1463 H1457 0.930 . S
C1463 C1459 1.400 . S
C1463 C1462 1.385 . S
C1464 C1462 1.478 . S
C1464 C1466 1.381 . S
C1464 C1470 1.383 . S
C1465 C1461 1.495 . S
C1465 H1471 0.959 . S
C1465 H1472 0.961 . S
C1465 H1473 0.960 . S
C1466 C1464 1.381 . S
C1466 C1467 1.394 . S
C1466 H1474 0.930 . S
C1467 C1466 1.394 . S
C1467 C1468 1.383 . S
C1467 H1475 0.929 . S
C1468 C1467 1.383 . S
C1468 C1469 1.377 . S
C1469 H1453 0.930 . S
C1469 C1468 1.377 . S
C1469 C1470 1.379 . S
C1470 H1454 0.931 . S
C1470 C1464 1.383 . S
C1470 C1469 1.379 . S
H1471 C1465 0.959 . S
H1472 C1465 0.961 . S
H1473 C1465 0.960 . S
H1474 C1466 0.930 . S
H1475 C1467 0.929 . S
H1476 C1484 0.929 . S
H1477 C1486 0.930 . S
H1478 C1488 0.930 . S
H1479 C1491 0.929 . S
H1480 C1494 0.930 . S
H1481 C1496 0.960 . S
H1482 C1496 0.960 . S
H1483 C1496 0.960 . S
C1484 H1476 0.929 . S
C1484 C1485 1.377 . S
C1484 C1486 1.384 . S
C1485 C1484 1.377 . S
C1485 C1491 1.390 . S
C1486 H1477 0.930 . S
C1486 C1484 1.384 . S
C1486 C1487 1.372 . S
C1487 C1486 1.372 . S
C1487 C1488 1.400 . S
C1487 C1492 1.490 . S
C1488 H1478 0.930 . S
C1488 C1487 1.400 . S
C1488 C1491 1.386 . S
H1489 C1505 0.930 . S
H1490 C1506 0.931 . S
C1491 H1479 0.929 . S
C1491 C1485 1.390 . S
C1491 C1488 1.386 . S
C1492 C1487 1.490 . S
C1492 C1494 1.395 . S
C1492 C1495 1.403 . S
H1493 C1499 0.930 . S
C1494 H1480 0.930 . S
C1494 C1492 1.395 . S
C1494 C1497 1.403 . S
C1495 C1492 1.403 . S
C1495 C1496 1.524 . S
C1495 C1499 1.400 . S
C1496 H1481 0.960 . S
C1496 H1482 0.960 . S
C1496 H1483 0.960 . S
C1496 C1495 1.524 . S
C1497 C1494 1.403 . S
C1497 C1498 1.392 . S
C1497 C1501 1.495 . S
C1498 C1497 1.392 . S
C1498 C1499 1.385 . S
C1498 C1500 1.478 . S
C1499 H1493 0.930 . S
C1499 C1495 1.400 . S
C1499 C1498 1.385 . S
C1500 C1498 1.478 . S
C1500 C1502 1.381 . S
C1500 C1506 1.383 . S
C1501 C1497 1.495 . S
C1501 H1507 0.959 . S
C1501 H1508 0.961 . S
C1501 H1509 0.960 . S
C1502 C1500 1.381 . S
C1502 C1503 1.394 . S
C1502 H1510 0.930 . S
C1503 C1502 1.394 . S
C1503 C1504 1.383 . S
C1503 H1511 0.929 . S
C1504 C1503 1.383 . S
C1504 C1505 1.377 . S
C1505 H1489 0.930 . S
C1505 C1504 1.377 . S
C1505 C1506 1.379 . S
C1506 H1490 0.931 . S
C1506 C1500 1.383 . S
C1506 C1505 1.379 . S
H1507 C1501 0.959 . S
H1508 C1501 0.961 . S
H1509 C1501 0.960 . S
H1510 C1502 0.930 . S
H1511 C1503 0.929 . S
H1512 C1520 0.929 . S
H1513 C1522 0.930 . S
H1514 C1524 0.930 . S
H1515 C1527 0.929 . S
H1516 C1530 0.930 . S
H1517 C1532 0.960 . S
H1518 C1532 0.960 . S
H1519 C1532 0.960 . S
C1520 H1512 0.929 . S
C1520 C1521 1.377 . S
C1520 C1522 1.384 . S
C1521 C1520 1.377 . S
C1521 C1527 1.390 . S
C1522 H1513 0.930 . S
C1522 C1520 1.384 . S
C1522 C1523 1.372 . S
C1523 C1522 1.372 . S
C1523 C1524 1.400 . S
C1523 C1528 1.490 . S
C1524 H1514 0.930 . S
C1524 C1523 1.400 . S
C1524 C1527 1.386 . S
H1525 C1541 0.930 . S
H1526 C1542 0.931 . S
C1527 H1515 0.929 . S
C1527 C1521 1.390 . S
C1527 C1524 1.386 . S
C1528 C1523 1.490 . S
C1528 C1530 1.395 . S
C1528 C1531 1.403 . S
H1529 C1535 0.930 . S
C1530 H1516 0.930 . S
C1530 C1528 1.395 . S
C1530 C1533 1.403 . S
C1531 C1528 1.403 . S
C1531 C1532 1.524 . S
C1531 C1535 1.400 . S
C1532 H1517 0.960 . S
C1532 H1518 0.960 . S
C1532 H1519 0.960 . S
C1532 C1531 1.524 . S
C1533 C1530 1.403 . S
C1533 C1534 1.392 . S
C1533 C1537 1.495 . S
C1534 C1533 1.392 . S
C1534 C1535 1.385 . S
C1534 C1536 1.478 . S
C1535 H1529 0.930 . S
C1535 C1531 1.400 . S
C1535 C1534 1.385 . S
C1536 C1534 1.478 . S
C1536 C1538 1.381 . S
C1536 C1542 1.383 . S
C1537 C1533 1.495 . S
C1537 H1543 0.959 . S
C1537 H1544 0.961 . S
C1537 H1545 0.960 . S
C1538 C1536 1.381 . S
C1538 C1539 1.394 . S
C1538 H1546 0.930 . S
C1539 C1538 1.394 . S
C1539 C1540 1.383 . S
C1539 H1547 0.929 . S
C1540 C1539 1.383 . S
C1540 C1541 1.377 . S
C1541 H1525 0.930 . S
C1541 C1540 1.377 . S
C1541 C1542 1.379 . S
C1542 H1526 0.931 . S
C1542 C1536 1.383 . S
C1542 C1541 1.379 . S
H1543 C1537 0.959 . S
H1544 C1537 0.961 . S
H1545 C1537 0.960 . S
H1546 C1538 0.930 . S
H1547 C1539 0.929 . S
H1548 C1556 0.929 . S
H1549 C1558 0.930 . S
H1550 C1560 0.930 . S
H1551 C1563 0.929 . S
H1552 C1566 0.930 . S
H1553 C1568 0.960 . S
H1554 C1568 0.960 . S
H1555 C1568 0.960 . S
C1556 H1548 0.929 . S
C1556 C1557 1.377 . S
C1556 C1558 1.384 . S
C1557 C1556 1.377 . S
C1557 C1563 1.390 . S
C1558 H1549 0.930 . S
C1558 C1556 1.384 . S
C1558 C1559 1.372 . S
C1559 C1558 1.372 . S
C1559 C1560 1.400 . S
C1559 C1564 1.490 . S
C1560 H1550 0.930 . S
C1560 C1559 1.400 . S
C1560 C1563 1.386 . S
H1561 C1577 0.930 . S
H1562 C1578 0.931 . S
C1563 H1551 0.929 . S
C1563 C1557 1.390 . S
C1563 C1560 1.386 . S
C1564 C1559 1.490 . S
C1564 C1566 1.395 . S
C1564 C1567 1.403 . S
H1565 C1571 0.930 . S
C1566 H1552 0.930 . S
C1566 C1564 1.395 . S
C1566 C1569 1.403 . S
C1567 C1564 1.403 . S
C1567 C1568 1.524 . S
C1567 C1571 1.400 . S
C1568 H1553 0.960 . S
C1568 H1554 0.960 . S
C1568 H1555 0.960 . S
C1568 C1567 1.524 . S
C1569 C1566 1.403 . S
C1569 C1570 1.392 . S
C1569 C1573 1.495 . S
C1570 C1569 1.392 . S
C1570 C1571 1.385 . S
C1570 C1572 1.478 . S
C1571 H1565 0.930 . S
C1571 C1567 1.400 . S
C1571 C1570 1.385 . S
C1572 C1570 1.478 . S
C1572 C1574 1.381 . S
C1572 C1578 1.383 . S
C1573 C1569 1.495 . S
C1573 H1579 0.959 . S
C1573 H1580 0.961 . S
C1573 H1581 0.960 . S
C1574 C1572 1.381 . S
C1574 C1575 1.394 . S
C1574 H1582 0.930 . S
C1575 C1574 1.394 . S
C1575 C1576 1.383 . S
C1575 H1583 0.929 . S
C1576 C1575 1.383 . S
C1576 C1577 1.377 . S
C1577 H1561 0.930 . S
C1577 C1576 1.377 . S
C1577 C1578 1.379 . S
C1578 H1562 0.931 . S
C1578 C1572 1.383 . S
C1578 C1577 1.379 . S
H1579 C1573 0.959 . S
H1580 C1573 0.961 . S
H1581 C1573 0.960 . S
H1582 C1574 0.930 . S
H1583 C1575 0.929 . S
H1584 C1592 0.929 . S
H1585 C1594 0.930 . S
H1586 C1596 0.930 . S
H1587 C1599 0.929 . S
H1588 C1602 0.930 . S
H1589 C1604 0.960 . S
H1590 C1604 0.960 . S
H1591 C1604 0.960 . S
C1592 H1584 0.929 . S
C1592 C1593 1.377 . S
C1592 C1594 1.384 . S
C1593 C1592 1.377 . S
C1593 C1599 1.390 . S
C1594 H1585 0.930 . S
C1594 C1592 1.384 . S
C1594 C1595 1.372 . S
C1595 C1594 1.372 . S
C1595 C1596 1.400 . S
C1595 C1600 1.490 . S
C1596 H1586 0.930 . S
C1596 C1595 1.400 . S
C1596 C1599 1.386 . S
H1597 C1613 0.930 . S
H1598 C1614 0.931 . S
C1599 H1587 0.929 . S
C1599 C1593 1.390 . S
C1599 C1596 1.386 . S
C1600 C1595 1.490 . S
C1600 C1602 1.395 . S
C1600 C1603 1.403 . S
H1601 C1607 0.930 . S
C1602 H1588 0.930 . S
C1602 C1600 1.395 . S
C1602 C1605 1.403 . S
C1603 C1600 1.403 . S
C1603 C1604 1.524 . S
C1603 C1607 1.400 . S
C1604 H1589 0.960 . S
C1604 H1590 0.960 . S
C1604 H1591 0.960 . S
C1604 C1603 1.524 . S
C1605 C1602 1.403 . S
C1605 C1606 1.392 . S
C1605 C1609 1.495 . S
C1606 C1605 1.392 . S
C1606 C1607 1.385 . S
C1606 C1608 1.478 . S
C1607 H1601 0.930 . S
C1607 C1603 1.400 . S
C1607 C1606 1.385 . S
C1608 C1606 1.478 . S
C1608 C1610 1.381 . S
C1608 C1614 1.383 . S
C1609 C1605 1.495 . S
C1609 H1615 0.959 . S
C1609 H1616 0.961 . S
C1609 H1617 0.960 . S
C1610 C1608 1.381 . S
C1610 C1611 1.394 . S
C1610 H1618 0.930 . S
C1611 C1610 1.394 . S
C1611 C1612 1.383 . S
C1611 H1619 0.929 . S
C1612 C1611 1.383 . S
C1612 C1613 1.377 . S
C1613 H1597 0.930 . S
C1613 C1612 1.377 . S
C1613 C1614 1.379 . S
C1614 H1598 0.931 . S
C1614 C1608 1.383 . S
C1614 C1613 1.379 . S
H1615 C1609 0.959 . S
H1616 C1609 0.961 . S
H1617 C1609 0.960 . S
H1618 C1610 0.930 . S
H1619 C1611 0.929 . S
H1620 C1628 0.929 . S
H1621 C1630 0.930 . S
H1622 C1632 0.930 . S
H1623 C1635 0.929 . S
H1624 C1638 0.930 . S
H1625 C1640 0.960 . S
H1626 C1640 0.960 . S
H1627 C1640 0.960 . S
C1628 H1620 0.929 . S
C1628 C1629 1.377 . S
C1628 C1630 1.384 . S
C1629 C1628 1.377 . S
C1629 C1635 1.390 . S
C1630 H1621 0.930 . S
C1630 C1628 1.384 . S
C1630 C1631 1.372 . S
C1631 C1630 1.372 . S
C1631 C1632 1.400 . S
C1631 C1636 1.490 . S
C1632 H1622 0.930 . S
C1632 C1631 1.400 . S
C1632 C1635 1.386 . S
H1633 C1649 0.930 . S
H1634 C1650 0.931 . S
C1635 H1623 0.929 . S
C1635 C1629 1.390 . S
C1635 C1632 1.386 . S
C1636 C1631 1.490 . S
C1636 C1638 1.395 . S
C1636 C1639 1.403 . S
H1637 C1643 0.930 . S
C1638 H1624 0.930 . S
C1638 C1636 1.395 . S
C1638 C1641 1.403 . S
C1639 C1636 1.403 . S
C1639 C1640 1.524 . S
C1639 C1643 1.400 . S
C1640 H1625 0.960 . S
C1640 H1626 0.960 . S
C1640 H1627 0.960 . S
C1640 C1639 1.524 . S
C1641 C1638 1.403 . S
C1641 C1642 1.392 . S
C1641 C1645 1.495 . S
C1642 C1641 1.392 . S
C1642 C1643 1.385 . S
C1642 C1644 1.478 . S
C1643 H1637 0.930 . S
C1643 C1639 1.400 . S
C1643 C1642 1.385 . S
C1644 C1642 1.478 . S
C1644 C1646 1.381 . S
C1644 C1650 1.383 . S
C1645 C1641 1.495 . S
C1645 H1651 0.959 . S
C1645 H1652 0.961 . S
C1645 H1653 0.960 . S
C1646 C1644 1.381 . S
C1646 C1647 1.394 . S
C1646 H1654 0.930 . S
C1647 C1646 1.394 . S
C1647 C1648 1.383 . S
C1647 H1655 0.929 . S
C1648 C1647 1.383 . S
C1648 C1649 1.377 . S
C1649 H1633 0.930 . S
C1649 C1648 1.377 . S
C1649 C1650 1.379 . S
C1650 H1634 0.931 . S
C1650 C1644 1.383 . S
C1650 C1649 1.379 . S
H1651 C1645 0.959 . S
H1652 C1645 0.961 . S
H1653 C1645 0.960 . S
H1654 C1646 0.930 . S
H1655 C1647 0.929 . S
H1656 C1664 0.929 . S
H1657 C1666 0.930 . S
H1658 C1668 0.930 . S
H1659 C1671 0.929 . S
H1660 C1674 0.930 . S
H1661 C1676 0.960 . S
H1662 C1676 0.960 . S
H1663 C1676 0.960 . S
C1664 H1656 0.929 . S
C1664 C1665 1.377 . S
C1664 C1666 1.384 . S
C1665 C1664 1.377 . S
C1665 C1671 1.390 . S
C1666 H1657 0.930 . S
C1666 C1664 1.384 . S
C1666 C1667 1.372 . S
C1667 C1666 1.372 . S
C1667 C1668 1.400 . S
C1667 C1672 1.490 . S
C1668 H1658 0.930 . S
C1668 C1667 1.400 . S
C1668 C1671 1.386 . S
H1669 C1685 0.930 . S
H1670 C1686 0.931 . S
C1671 H1659 0.929 . S
C1671 C1665 1.390 . S
C1671 C1668 1.386 . S
C1672 C1667 1.490 . S
C1672 C1674 1.395 . S
C1672 C1675 1.403 . S
H1673 C1679 0.930 . S
C1674 H1660 0.930 . S
C1674 C1672 1.395 . S
C1674 C1677 1.403 . S
C1675 C1672 1.403 . S
C1675 C1676 1.524 . S
C1675 C1679 1.400 . S
C1676 H1661 0.960 . S
C1676 H1662 0.960 . S
C1676 H1663 0.960 . S
C1676 C1675 1.524 . S
C1677 C1674 1.403 . S
C1677 C1678 1.392 . S
C1677 C1681 1.495 . S
C1678 C1677 1.392 . S
C1678 C1679 1.385 . S
C1678 C1680 1.478 . S
C1679 H1673 0.930 . S
C1679 C1675 1.400 . S
C1679 C1678 1.385 . S
C1680 C1678 1.478 . S
C1680 C1682 1.381 . S
C1680 C1686 1.383 . S
C1681 C1677 1.495 . S
C1681 H1687 0.959 . S
C1681 H1688 0.961 . S
C1681 H1689 0.960 . S
C1682 C1680 1.381 . S
C1682 C1683 1.394 . S
C1682 H1690 0.930 . S
C1683 C1682 1.394 . S
C1683 C1684 1.383 . S
C1683 H1691 0.929 . S
C1684 C1683 1.383 . S
C1684 C1685 1.377 . S
C1685 H1669 0.930 . S
C1685 C1684 1.377 . S
C1685 C1686 1.379 . S
C1686 H1670 0.931 . S
C1686 C1680 1.383 . S
C1686 C1685 1.379 . S
H1687 C1681 0.959 . S
H1688 C1681 0.961 . S
H1689 C1681 0.960 . S
H1690 C1682 0.930 . S
H1691 C1683 0.929 . S
H1692 C1700 0.929 . S
H1693 C1702 0.930 . S
H1694 C1704 0.930 . S
H1695 C1707 0.929 . S
H1696 C1710 0.930 . S
H1697 C1712 0.960 . S
H1698 C1712 0.960 . S
H1699 C1712 0.960 . S
C1700 H1692 0.929 . S
C1700 C1701 1.377 . S
C1700 C1702 1.384 . S
C1701 C1700 1.377 . S
C1701 C1707 1.390 . S
C1702 H1693 0.930 . S
C1702 C1700 1.384 . S
C1702 C1703 1.372 . S
C1703 C1702 1.372 . S
C1703 C1704 1.400 . S
C1703 C1708 1.490 . S
C1704 H1694 0.930 . S
C1704 C1703 1.400 . S
C1704 C1707 1.386 . S
H1705 C1721 0.930 . S
H1706 C1722 0.931 . S
C1707 H1695 0.929 . S
C1707 C1701 1.390 . S
C1707 C1704 1.386 . S
C1708 C1703 1.490 . S
C1708 C1710 1.395 . S
C1708 C1711 1.403 . S
H1709 C1715 0.930 . S
C1710 H1696 0.930 . S
C1710 C1708 1.395 . S
C1710 C1713 1.403 . S
C1711 C1708 1.403 . S
C1711 C1712 1.524 . S
C1711 C1715 1.400 . S
C1712 H1697 0.960 . S
C1712 H1698 0.960 . S
C1712 H1699 0.960 . S
C1712 C1711 1.524 . S
C1713 C1710 1.403 . S
C1713 C1714 1.392 1_554 S
C1713 C1717 1.495 1_554 S
C1714 C1713 1.392 1_556 S
C1714 C1715 1.385 1_556 S
C1714 C1716 1.478 . S
C1715 H1709 0.930 . S
C1715 C1711 1.400 . S
C1715 C1714 1.385 1_554 S
C1716 C1714 1.478 . S
C1716 C1718 1.381 . S
C1716 C1722 1.383 . S
C1717 C1713 1.495 1_556 S
C1717 H1723 0.959 1_556 S
C1717 H1724 0.961 . S
C1717 H1725 0.960 . S
C1718 C1716 1.381 . S
C1718 C1719 1.394 . S
C1718 H1726 0.930 . S
C1719 C1718 1.394 . S
C1719 C1720 1.383 . S
C1719 H1727 0.929 . S
C1720 C1719 1.383 . S
C1720 C1721 1.377 . S
C1721 H1705 0.930 . S
C1721 C1720 1.377 . S
C1721 C1722 1.379 . S
C1722 H1706 0.931 . S
C1722 C1716 1.383 . S
C1722 C1721 1.379 . S
H1723 C1717 0.959 1_554 S
H1724 C1717 0.961 . S
H1725 C1717 0.960 . S
H1726 C1718 0.930 . S
H1727 C1719 0.929 . S
C585 C219 1.386 . S
C604 C3 1.369 . S
C621 C255 1.384 . S
C640 C39 1.382 . S
C657 C75 1.385 . S
C676 C147 1.397 . S
C693 C111 1.383 . S
C712 C183 1.388 . S
C729 C291 1.383 . S
C748 C507 1.389 . S
C765 C543 1.388 . S
C784 C327 1.373 . S
C801 C363 1.385 . S
C820 C435 1.370 . S
C837 C399 1.386 . S
C856 C471 1.371 . S
C873 C4 1.353 . S
C892 C364 1.375 . S
C909 C40 1.347 . S
C928 C400 1.349 . S
C945 C76 1.353 . S
C964 C292 1.375 . S
C981 C112 1.352 . S
C1000 C328 1.373 . S
C1017 C148 1.353 . S
C1036 C508 1.325 . S
C1053 C544 1.355 . S
C1072 C184 1.330 . S
C1089 C220 1.348 . S
C1108 C436 1.334 . S
C1125 C472 1.350 . S
C1144 C256 1.370 . S
C1161 C470 0.602 . S
C1180 C2 0.515 . S
C1197 C38 0.606 . S
C1216 C506 0.529 . S
C1233 C542 0.582 . S
C1252 C74 0.681 . S
C1269 C434 0.608 . S
C1288 C110 0.588 . S
C1305 C398 0.586 . S
C1324 C146 0.531 . S
C1341 C182 0.573 . S
C1360 C290 0.635 . S
C1377 C218 0.600 . S
C1396 C326 0.513 . S
C1413 C254 0.574 . S
C1432 C362 0.605 . S
C1449 C482 1.361 . S
C1468 C14 1.323 . S
C1485 C50 1.353 . S
C1504 C518 1.375 . S
C1521 C86 1.351 . S
C1540 C554 1.378 . S
C1557 C446 1.351 . S
C1576 C122 1.370 . S
C1593 C410 1.357 . S
C1612 C158 1.339 . S
C1629 C302 1.356 . S
C1648 C194 1.361 . S
C1665 C230 1.350 . S
C1684 C338 1.371 . S
C1701 C374 1.362 . S
C1720 C266 1.323 . S
