# Generated by pormake.
# Topology wji, (4)-cn, num edge types: 1
# Building blocks:
#     Node 0, Type 0, BuildingBlock: AZAVOO_clean_sbu_0, # of connection points: 4
#     Node 1, Type 0, BuildingBlock: AZAVOO_clean_sbu_0, # of connection points: 4
#     Node 2, Type 0, BuildingBlock: AZAVOO_clean_sbu_0, # of connection points: 4
#     Node 3, Type 0, BuildingBlock: AZAVOO_clean_sbu_0, # of connection points: 4
#     Node 4, Type 0, BuildingBlock: AZAVOO_clean_sbu_0, # of connection points: 4
#     Node 5, Type 0, BuildingBlock: AZAVOO_clean_sbu_0, # of connection points: 4
#     Node 6, Type 0, BuildingBlock: AZAVOO_clean_sbu_0, # of connection points: 4
#     Node 7, Type 0, BuildingBlock: AZAVOO_clean_sbu_0, # of connection points: 4
#     Node 8, Type 0, BuildingBlock: AZAVOO_clean_sbu_0, # of connection points: 4
#     Node 9, Type 0, BuildingBlock: AZAVOO_clean_sbu_0, # of connection points: 4
#     Node 10, Type 0, BuildingBlock: AZAVOO_clean_sbu_0, # of connection points: 4
#     Node 11, Type 0, BuildingBlock: AZAVOO_clean_sbu_0, # of connection points: 4
#     Edge 12, Type (0, 0), BuildingBlock: EZIPEK_clean_linker_0, # of connection points: 2
#     Edge 13, Type (0, 0), BuildingBlock: EZIPEK_clean_linker_0, # of connection points: 2
#     Edge 14, Type (0, 0), BuildingBlock: EZIPEK_clean_linker_0, # of connection points: 2
#     Edge 15, Type (0, 0), BuildingBlock: EZIPEK_clean_linker_0, # of connection points: 2
#     Edge 16, Type (0, 0), BuildingBlock: EZIPEK_clean_linker_0, # of connection points: 2
#     Edge 17, Type (0, 0), BuildingBlock: EZIPEK_clean_linker_0, # of connection points: 2
#     Edge 18, Type (0, 0), BuildingBlock: EZIPEK_clean_linker_0, # of connection points: 2
#     Edge 19, Type (0, 0), BuildingBlock: EZIPEK_clean_linker_0, # of connection points: 2
#     Edge 20, Type (0, 0), BuildingBlock: EZIPEK_clean_linker_0, # of connection points: 2
#     Edge 21, Type (0, 0), BuildingBlock: EZIPEK_clean_linker_0, # of connection points: 2
#     Edge 22, Type (0, 0), BuildingBlock: EZIPEK_clean_linker_0, # of connection points: 2
#     Edge 23, Type (0, 0), BuildingBlock: EZIPEK_clean_linker_0, # of connection points: 2
#     Edge 24, Type (0, 0), BuildingBlock: EZIPEK_clean_linker_0, # of connection points: 2
#     Edge 25, Type (0, 0), BuildingBlock: EZIPEK_clean_linker_0, # of connection points: 2
#     Edge 26, Type (0, 0), BuildingBlock: EZIPEK_clean_linker_0, # of connection points: 2
#     Edge 27, Type (0, 0), BuildingBlock: EZIPEK_clean_linker_0, # of connection points: 2
#     Edge 28, Type (0, 0), BuildingBlock: EZIPEK_clean_linker_0, # of connection points: 2
#     Edge 29, Type (0, 0), BuildingBlock: EZIPEK_clean_linker_0, # of connection points: 2
#     Edge 30, Type (0, 0), BuildingBlock: EZIPEK_clean_linker_0, # of connection points: 2
#     Edge 31, Type (0, 0), BuildingBlock: EZIPEK_clean_linker_0, # of connection points: 2
#     Edge 32, Type (0, 0), BuildingBlock: EZIPEK_clean_linker_0, # of connection points: 2
#     Edge 33, Type (0, 0), BuildingBlock: EZIPEK_clean_linker_0, # of connection points: 2
#     Edge 34, Type (0, 0), BuildingBlock: EZIPEK_clean_linker_0, # of connection points: 2
#     Edge 35, Type (0, 0), BuildingBlock: EZIPEK_clean_linker_0, # of connection points: 2
# Relax obj value: 0.170
# Max RMSD: 0.105
# Mean RMSD: 0.105
data_MOF--net-wji--node1-AZAVOO_clean_sbu_0--edge1-EZIPEK_clean_linker_0
_symmetry_space_group_name_H-M    P1
_symmetry_Int_Tables_number       1
_symmetry_cell_setting            triclinic
loop_
_symmetry_equiv_pos_as_xyz
'x, y, z'
_cell_length_a     43.030498
_cell_length_b     43.147839
_cell_length_c     15.900483
_cell_angle_alpha  89.919206
_cell_angle_beta   90.080293
_cell_angle_gamma 119.95618
loop_
_atom_site_label
_atom_site_type_symbol
_atom_site_fract_x
_atom_site_fract_y
_atom_site_fract_z
_atom_type_partial_charge
Mg0 Mg 0.45368 0.33435 0.37552 0.0
O1 O 0.4269 0.34994 0.47988 0.0
O2 O 0.43642 0.4046 0.44911 0.0
Mg3 Mg 0.46141 0.42059 0.3188 0.0
C4 C 0.42477 0.37765 0.4982 0.0
C5 C 0.42111 0.26802 0.48916 0.0
O6 O 0.39277 0.27078 0.47131 0.0
O7 O 0.50989 0.37656 0.42347 0.0
O8 O 0.51279 0.42664 0.37348 0.0
O9 O 0.40281 0.30826 0.29565 0.0
O10 O 0.44397 0.36463 0.2925 0.0
C11 C 0.52691 0.41034 0.40999 0.0
C12 C 0.41384 0.33975 0.26469 0.0
O13 O 0.45145 0.2906 0.45909 0.0
Mg14 Mg 0.10791 0.42206 0.52925 0.0
O15 O 0.06724 0.39452 0.63639 0.0
O16 O 0.01264 0.38004 0.58899 0.0
Mg17 Mg 0.01828 0.3966 0.45004 0.0
C18 C 0.0336 0.38137 0.64757 0.0
C19 C 0.15691 0.41609 0.66145 0.0
O20 O 0.13379 0.38228 0.64652 0.0
O21 O 0.10348 0.47232 0.54837 0.0
O22 O 0.04908 0.45511 0.49421 0.0
O23 O 0.09919 0.36943 0.47899 0.0
O24 O 0.06867 0.3957 0.4394 0.0
C25 C 0.07828 0.47858 0.52872 0.0
C26 C 0.07394 0.369 0.43386 0.0
O27 O 0.15347 0.44022 0.62387 0.0
Mg28 Mg 0.66605 0.10044 0.72347 0.0
O29 O 0.65137 0.06283 0.837 0.0
O30 O 0.60231 0.01079 0.80782 0.0
Mg31 Mg 0.58932 0.01318 0.66815 0.0
C32 C 0.62691 0.03159 0.85865 0.0
C33 C 0.7262 0.14278 0.84863 0.0
O34 O 0.72719 0.11303 0.83972 0.0
O35 O 0.61713 0.10745 0.74751 0.0
O36 O 0.57282 0.0545 0.70153 0.0
O37 O 0.70165 0.08084 0.67039 0.0
O38 O 0.64384 0.05727 0.64228 0.0
C39 C 0.58411 0.086 0.73005 0.0
C40 C 0.67316 0.05674 0.63251 0.0
O41 O 0.70284 0.14681 0.80868 0.0
Mg42 Mg 0.62185 0.70897 0.86927 0.0
O43 O 0.63847 0.68439 0.97708 0.0
O44 O 0.63709 0.63503 0.92925 0.0
Mg45 Mg 0.62208 0.62988 0.78867 0.0
C46 C 0.64212 0.65707 0.98835 0.0
C47 C 0.61848 0.77333 0.94724 0.0
O48 O 0.62947 0.78634 0.87146 0.0
O49 O 0.56344 0.66463 0.87993 0.0
O50 O 0.56527 0.61797 0.82386 0.0
O51 O 0.67896 0.74174 0.82383 0.0
O52 O 0.64008 0.68736 0.77931 0.0
C53 C 0.54802 0.632 0.85632 0.0
C54 C 0.67184 0.71461 0.77633 0.0
O55 O 0.61316 0.74245 0.96572 0.0
Mg56 Mg 0.87272 0.54682 0.05257 0.0
O57 O 0.88632 0.56964 0.18925 0.0
O58 O 0.94284 0.58073 0.20713 0.0
Mg59 Mg 0.96739 0.57339 0.08842 0.0
C60 C 0.91445 0.57964 0.23453 0.0
C61 C 0.79196 0.52255 0.11857 0.0
O62 O 0.75707 0.50159 0.11295 0.0
O63 O 0.87172 0.49582 0.09563 0.0
O64 O 0.93016 0.51275 0.09722 0.0
O65 O 0.89147 0.59961 0.98324 0.0
O66 O 0.92596 0.57912 0.02402 0.0
C67 C 0.89712 0.4888 0.10237 0.0
C68 C 0.92308 0.60305 0.98313 0.0
O69 O 0.81199 0.51894 0.06576 0.0
Mg70 Mg 0.28766 0.87512 0.17207 0.0
O71 O 0.30177 0.91867 0.2717 0.0
O72 O 0.34578 0.97033 0.22399 0.0
Mg73 Mg 0.3602 0.96019 0.09181 0.0
C74 C 0.32292 0.95222 0.28089 0.0
C75 C 0.2233 0.80765 0.24612 0.0
O76 O 0.2135 0.80529 0.16705 0.0
O77 O 0.3386 0.87353 0.20668 0.0
O78 O 0.38086 0.9253 0.15064 0.0
O79 O 0.24905 0.8889 0.11061 0.0
O80 O 0.30654 0.91327 0.07776 0.0
C81 C 0.37137 0.89605 0.18983 0.0
C82 C 0.27633 0.91206 0.06757 0.0
O83 O 0.25366 0.83311 0.26916 0.0
Mg84 Mg 0.72696 0.61309 0.45563 0.0
O85 O 0.70283 0.62711 0.34136 0.0
O86 O 0.65284 0.62624 0.38366 0.0
Mg87 Mg 0.64611 0.61367 0.52532 0.0
C88 C 0.67534 0.63025 0.32636 0.0
C89 C 0.79228 0.60618 0.38221 0.0
O90 O 0.80801 0.61954 0.45458 0.0
O91 O 0.68251 0.55457 0.44681 0.0
O92 O 0.63483 0.55692 0.49519 0.0
O93 O 0.75859 0.67092 0.49721 0.0
O94 O 0.70354 0.63209 0.53827 0.0
C95 C 0.64938 0.53946 0.46696 0.0
C96 C 0.73046 0.66392 0.54103 0.0
O97 O 0.76161 0.60234 0.36631 0.0
Mg98 Mg 0.06152 0.67339 0.6177 0.0
O99 O 0.00882 0.64496 0.54155 0.0
O100 O 0.96819 0.5991 0.61856 0.0
Mg101 Mg 0.9952 0.59646 0.7403 0.0
C102 C 0.97736 0.61799 0.55159 0.0
C103 C 0.12448 0.71177 0.49556 0.0
O104 O 0.13639 0.69633 0.5474 0.0
O105 O 0.07221 0.62792 0.58254 0.0
O106 O 0.03233 0.58328 0.66424 0.0
O107 O 0.04303 0.70644 0.69393 0.0
O108 O 0.03393 0.65294 0.72583 0.0
C109 C 0.05784 0.59589 0.61063 0.0
C110 C 0.02959 0.67933 0.74459 0.0
O111 O 0.09314 0.70717 0.50545 0.0
Mg112 Mg 0.37386 0.07322 0.75778 0.0
O113 O 0.35561 0.03663 0.64163 0.0
O114 O 0.36048 0.98853 0.67036 0.0
Mg115 Mg 0.37553 0.99166 0.81049 0.0
C116 C 0.35329 0.00709 0.61965 0.0
C117 C 0.40175 0.15115 0.70179 0.0
O118 O 0.41799 0.15651 0.77476 0.0
O119 O 0.43237 0.08814 0.73712 0.0
O120 O 0.43179 0.03854 0.78166 0.0
O121 O 0.31734 0.04701 0.80729 0.0
O122 O 0.35666 0.02966 0.83625 0.0
C123 C 0.44835 0.07071 0.75454 0.0
C124 C 0.32492 0.02492 0.84471 0.0
O125 O 0.38113 0.11944 0.67632 0.0
Mg126 Mg 0.34108 0.43821 0.93987 0.0
O127 O 0.35762 0.41199 0.83605 0.0
O128 O 0.41279 0.42283 0.86827 0.0
Mg129 Mg 0.42803 0.4473 0.99906 0.0
C130 C 0.38599 0.41081 0.81839 0.0
C131 C 0.27403 0.44295 0.88406 0.0
O132 O 0.27672 0.45415 0.96194 0.0
O133 O 0.3831 0.49463 0.89238 0.0
O134 O 0.4333 0.49802 0.94432 0.0
O135 O 0.31578 0.38762 0.02131 0.0
O136 O 0.37191 0.42971 0.02353 0.0
C137 C 0.4169 0.51189 0.90717 0.0
C138 C 0.34752 0.39971 0.05252 0.0
O139 O 0.29686 0.43514 0.85577 0.0
Mg140 Mg 0.91554 0.29455 0.12478 0.0
O141 O 0.95148 0.31796 0.00752 0.0
O142 O 0.99933 0.36999 0.04487 0.0
Mg143 Mg 0.99532 0.37869 0.18581 0.0
C144 C 0.98102 0.3462 0.9899 0.0
C145 C 0.83753 0.24562 0.06455 0.0
O146 O 0.83172 0.25806 0.13453 0.0
O147 O 0.89805 0.33629 0.11142 0.0
O148 O 0.94718 0.3859 0.15611 0.0
O149 O 0.94538 0.26647 0.1678 0.0
O150 O 0.95905 0.32134 0.20317 0.0
C151 C 0.91489 0.3696 0.12922 0.0
C152 C 0.96607 0.29584 0.20782 0.0
O153 O 0.86948 0.25547 0.04225 0.0
Mg154 Mg 0.57557 0.90114 0.30585 0.0
O155 O 0.59984 0.94573 0.20744 0.0
O156 O 0.59943 0.99385 0.25424 0.0
Mg157 Mg 0.57401 0.97984 0.38586 0.0
C158 C 0.60772 0.97819 0.1979 0.0
C159 C 0.59717 0.85263 0.21097 0.0
O160 O 0.61876 0.8621 0.27616 0.0
O161 O 0.51935 0.89039 0.27147 0.0
O162 O 0.52032 0.93866 0.32674 0.0
O163 O 0.62958 0.92299 0.3673 0.0
O164 O 0.58941 0.93862 0.40108 0.0
C165 C 0.50427 0.90879 0.28787 0.0
C166 C 0.62095 0.94286 0.41077 0.0
O167 O 0.57439 0.86309 0.20551 0.0
C168 C 0.33953 0.34298 0.13114 0.0
C169 C 0.3582 0.38067 0.1151 0.0
C170 C 0.41196 0.38427 0.1701 0.0
C171 C 0.39321 0.34939 0.20411 0.0
N172 N 0.33446 0.29618 0.22436 0.0
N173 N 0.40715 0.43686 0.16749 0.0
C174 C 0.35548 0.32862 0.18718 0.0
C175 C 0.39265 0.40129 0.15083 0.0
N176 N 0.30764 0.32059 0.09296 0.0
N177 N 0.44776 0.401 0.15282 0.0
H178 H 0.39218 0.44981 0.16329 0.0
H179 H 0.43246 0.45173 0.19502 0.0
H180 H 0.46237 0.38766 0.15507 0.0
H181 H 0.46119 0.42655 0.12617 0.0
H182 H 0.2958 0.29283 0.096 0.0
H183 H 0.29404 0.32908 0.05383 0.0
H184 H 0.30655 0.28272 0.22032 0.0
H185 H 0.34397 0.28367 0.26399 0.0
C186 C 0.02066 0.30958 0.40178 0.0
C187 C 0.05236 0.34005 0.37371 0.0
C188 C 0.03174 0.32624 0.22804 0.0
C189 C 0.99726 0.30136 0.2582 0.0
N190 N 0.95884 0.265 0.37014 0.0
N191 N 0.09145 0.37504 0.26109 0.0
C192 C 0.99196 0.29095 0.34391 0.0
C193 C 0.05926 0.34714 0.28665 0.0
N194 N 0.01805 0.29929 0.48386 0.0
N195 N 0.03744 0.33014 0.14332 0.0
H196 H 0.11252 0.3895 0.30301 0.0
H197 H 0.0972 0.38433 0.19948 0.0
H198 H 0.01721 0.31431 0.10079 0.0
H199 H 0.06227 0.34648 0.11551 0.0
H200 H 0.99647 0.27629 0.50861 0.0
H201 H 0.03941 0.31256 0.52564 0.0
H202 H 0.9517 0.25857 0.43289 0.0
H203 H 0.93801 0.25022 0.32793 0.0
C204 C 0.66603 0.00684 0.43303 0.0
C205 C 0.64687 0.97173 0.46573 0.0
C206 C 0.66229 0.99521 0.60882 0.0
C207 C 0.67354 0.02972 0.57662 0.0
N208 N 0.68982 0.07015 0.4592 0.0
N209 N 0.62916 0.93121 0.58314 0.0
C210 C 0.67729 0.03621 0.48881 0.0
C211 C 0.64642 0.96548 0.55329 0.0
N212 N 0.67302 0.01176 0.34884 0.0
N213 N 0.66666 0.99114 0.69232 0.0
H214 H 0.61873 0.90905 0.54328 0.0
H215 H 0.62413 0.92476 0.64666 0.0
H216 H 0.67835 0.01291 0.73338 0.0
H217 H 0.66197 0.96711 0.71886 0.0
H218 H 0.68888 0.03667 0.32106 0.0
H219 H 0.66562 0.99029 0.30797 0.0
H220 H 0.68925 0.07623 0.39603 0.0
H221 H 0.69977 0.0923 0.499 0.0
C222 C 0.73965 0.69484 0.6789 0.0
C223 C 0.72809 0.69076 0.594 0.0
C224 C 0.68922 0.71533 0.62683 0.0
C225 C 0.69743 0.71528 0.7133 0.0
N226 N 0.73729 0.71574 0.8197 0.0
N227 N 0.70091 0.70601 0.48195 0.0
C228 C 0.7253 0.70893 0.73859 0.0
C229 C 0.706 0.70433 0.56626 0.0
N230 N 0.76256 0.68314 0.70278 0.0
N231 N 0.66428 0.72454 0.60371 0.0
H232 H 0.71367 0.69842 0.4376 0.0
H233 H 0.68666 0.71725 0.45566 0.0
H234 H 0.65328 0.73474 0.64648 0.0
H235 H 0.65395 0.72165 0.54323 0.0
H236 H 0.76916 0.68145 0.76492 0.0
H237 H 0.77448 0.67415 0.65939 0.0
H238 H 0.75897 0.71375 0.84197 0.0
H239 H 0.72719 0.72644 0.86338 0.0
C240 C 0.97859 0.67894 0.82702 0.0
C241 C 0.01021 0.67652 0.82385 0.0
C242 C 0.98573 0.62858 0.92347 0.0
C243 C 0.95424 0.63127 0.934 0.0
N244 N 0.92911 0.67045 0.91547 0.0
N245 N 0.04954 0.66281 0.90264 0.0
C246 C 0.95316 0.66021 0.89243 0.0
C247 C 0.01605 0.65752 0.88774 0.0
N248 N 0.97207 0.69758 0.76716 0.0
N249 N 0.9856 0.59702 0.93178 0.0
H250 H 0.0721 0.68335 0.87288 0.0
H251 H 0.05442 0.64881 0.94956 0.0
H252 H 0.96215 0.57225 0.9324 0.0
H253 H 0.00849 0.59505 0.92114 0.0
H254 H 0.9475 0.69675 0.76201 0.0
H255 H 0.99082 0.71263 0.72112 0.0
H256 H 0.929 0.69248 0.88878 0.0
H257 H 0.91298 0.66042 0.96862 0.0
C258 C 0.30112 0.00273 0.98828 0.0
C259 C 0.29933 0.99622 0.90058 0.0
C260 C 0.26919 0.9318 0.92491 0.0
C261 C 0.27448 0.93857 0.01238 0.0
N262 N 0.28336 0.97753 0.12864 0.0
N263 N 0.27141 0.95593 0.78533 0.0
C264 C 0.28622 0.9732 0.0445 0.0
C265 C 0.27966 0.96104 0.86886 0.0
N266 N 0.31878 0.03711 0.01738 0.0
N267 N 0.25608 0.89776 0.89568 0.0
H268 H 0.27897 0.97737 0.74406 0.0
H269 H 0.25452 0.93098 0.75887 0.0
H270 H 0.24684 0.87579 0.93599 0.0
H271 H 0.25545 0.89145 0.83229 0.0
H272 H 0.32485 0.04382 0.08049 0.0
H273 H 0.32848 0.05916 0.97722 0.0
H274 H 0.28931 0.00175 0.15616 0.0
H275 H 0.27164 0.95579 0.16979 0.0
C276 C 0.60617 0.48007 0.52835 0.0
C277 C 0.62603 0.50025 0.45742 0.0
C278 C 0.58974 0.44875 0.36703 0.0
C279 C 0.56498 0.4328 0.43357 0.0
N280 N 0.55006 0.43061 0.57969 0.0
N281 N 0.63745 0.50366 0.3078 0.0
C282 C 0.5738 0.44718 0.51561 0.0
C283 C 0.61881 0.48421 0.37651 0.0
N284 N 0.61826 0.49274 0.60741 0.0
N285 N 0.58434 0.43017 0.29392 0.0
H286 H 0.65881 0.52978 0.31146 0.0
H287 H 0.63034 0.4947 0.24622 0.0
H288 H 0.56281 0.40419 0.28665 0.0
H289 H 0.60274 0.43892 0.24469 0.0
H290 H 0.60653 0.47822 0.66197 0.0
H291 H 0.64222 0.51661 0.61779 0.0
H292 H 0.55261 0.44187 0.63896 0.0
H293 H 0.52691 0.40578 0.57199 0.0
C294 C 0.0763 0.53276 0.48085 0.0
C295 C 0.08197 0.51398 0.54703 0.0
C296 C 0.08464 0.55815 0.64762 0.0
C297 C 0.0718 0.5722 0.58451 0.0
N298 N 0.05369 0.57208 0.44077 0.0
N299 N 0.08925 0.50743 0.69577 0.0
C300 C 0.06773 0.55977 0.50054 0.0
C301 C 0.08621 0.52663 0.63102 0.0
N302 N 0.07949 0.52492 0.39918 0.0
N303 N 0.09549 0.57517 0.72342 0.0
H304 H 0.09046 0.48414 0.68725 0.0
H305 H 0.08779 0.51309 0.75883 0.0
H306 H 0.09507 0.59863 0.73688 0.0
H307 H 0.10827 0.56822 0.7692 0.0
H308 H 0.07887 0.53981 0.34824 0.0
H309 H 0.08646 0.50575 0.38299 0.0
H310 H 0.04609 0.56083 0.3811 0.0
H311 H 0.04727 0.59199 0.4525 0.0
C312 C 0.5079 0.09382 0.82302 0.0
C313 C 0.48788 0.08829 0.74812 0.0
C314 C 0.54027 0.10001 0.66434 0.0
C315 C 0.55705 0.09741 0.73859 0.0
N316 N 0.56022 0.0968 0.88936 0.0
N317 N 0.48533 0.09006 0.59709 0.0
C318 C 0.54225 0.09671 0.81847 0.0
C319 C 0.50449 0.09349 0.66845 0.0
N320 N 0.49371 0.09612 0.89805 0.0
N321 N 0.55874 0.10828 0.59019 0.0
H322 H 0.45976 0.08702 0.5987 0.0
H323 H 0.49415 0.08924 0.53668 0.0
H324 H 0.58513 0.1134 0.58691 0.0
H325 H 0.54939 0.1131 0.5341 0.0
H326 H 0.50762 0.10256 0.95479 0.0
H327 H 0.46872 0.09448 0.90209 0.0
H328 H 0.54929 0.09183 0.94953 0.0
H329 H 0.58638 0.10143 0.88715 0.0
C330 C 0.48845 0.59032 0.79226 0.0
C331 C 0.50856 0.60906 0.86443 0.0
C332 C 0.45549 0.57409 0.95164 0.0
C333 C 0.43944 0.5499 0.88427 0.0
N334 N 0.438 0.53567 0.73802 0.0
N335 N 0.51097 0.61927 0.01458 0.0
C336 C 0.45467 0.55874 0.80308 0.0
C337 C 0.49173 0.60192 0.94449 0.0
N338 N 0.50191 0.60273 0.71387 0.0
N339 N 0.43626 0.56907 0.02359 0.0
H340 H 0.53776 0.63938 0.0129 0.0
H341 H 0.50106 0.61208 0.07548 0.0
H342 H 0.40973 0.54831 0.02906 0.0
H343 H 0.44517 0.58715 0.07339 0.0
H344 H 0.48749 0.59182 0.6587 0.0
H345 H 0.52634 0.62622 0.70466 0.0
H346 H 0.44974 0.5381 0.67936 0.0
H347 H 0.41256 0.51318 0.7444 0.0
C348 C 0.88975 0.40508 0.19315 0.0
C349 C 0.897 0.39101 0.11996 0.0
C350 C 0.89229 0.43497 0.03213 0.0
C351 C 0.88866 0.4512 0.10619 0.0
N352 N 0.87271 0.44645 0.25204 0.0
N353 N 0.89434 0.38468 0.96937 0.0
C354 C 0.88344 0.43428 0.18521 0.0
C355 C 0.89431 0.40318 0.03903 0.0
N356 N 0.89036 0.39126 0.27014 0.0
N357 N 0.89555 0.45107 0.95597 0.0
H358 H 0.89595 0.3614 0.97308 0.0
H359 H 0.88983 0.3905 0.90859 0.0
H360 H 0.89226 0.47331 0.9487 0.0
H361 H 0.90265 0.44334 0.90062 0.0
H362 H 0.88941 0.40265 0.32702 0.0
H363 H 0.89283 0.36852 0.27691 0.0
H364 H 0.86621 0.43419 0.3108 0.0
H365 H 0.86713 0.46722 0.24583 0.0
C366 C 0.42282 0.88741 0.15338 0.0
C367 C 0.40029 0.889 0.21619 0.0
C368 C 0.44103 0.89002 0.32513 0.0
C369 C 0.46664 0.89567 0.2621 0.0
N370 N 0.48286 0.90111 0.11532 0.0
N371 N 0.38809 0.8931 0.36265 0.0
C372 C 0.4576 0.89402 0.17576 0.0
C373 C 0.40901 0.88992 0.30253 0.0
N374 N 0.41078 0.87956 0.07235 0.0
N375 N 0.44745 0.88467 0.40657 0.0
H376 H 0.36426 0.89281 0.34892 0.0
H377 H 0.39552 0.89836 0.42565 0.0
H378 H 0.47059 0.88426 0.42453 0.0
H379 H 0.42849 0.87718 0.45433 0.0
H380 H 0.42453 0.87481 0.02488 0.0
H381 H 0.38522 0.8743 0.05464 0.0
H382 H 0.47916 0.90462 0.05203 0.0
H383 H 0.5086 0.9059 0.1289 0.0
C384 C 0.38054 0.40728 0.65925 0.0
C385 C 0.3892 0.39631 0.73598 0.0
C386 C 0.41991 0.37081 0.65688 0.0
C387 C 0.40915 0.37961 0.58009 0.0
N388 N 0.36861 0.39488 0.5108 0.0
N389 N 0.40596 0.35674 0.8041 0.0
C390 C 0.38588 0.39405 0.58219 0.0
C391 C 0.40513 0.37438 0.7335 0.0
N392 N 0.36981 0.43222 0.65842 0.0
N393 N 0.44605 0.36163 0.65835 0.0
H394 H 0.39404 0.35759 0.86052 0.0
H395 H 0.41465 0.3381 0.80348 0.0
H396 H 0.45955 0.36069 0.60503 0.0
H397 H 0.45695 0.35851 0.71415 0.0
H398 H 0.36684 0.4434 0.60294 0.0
H399 H 0.36758 0.44472 0.71213 0.0
H400 H 0.3491 0.40248 0.51085 0.0
H401 H 0.3707 0.384 0.45395 0.0
C402 C 0.99264 0.38259 0.85887 0.0
C403 C 0.99287 0.35362 0.90079 0.0
C404 C 0.0166 0.34051 0.77344 0.0
C405 C 0.0191 0.37125 0.73421 0.0
N406 N 0.0146 0.42472 0.7431 0.0
N407 N 0.00704 0.30619 0.90166 0.0
C408 C 0.00836 0.39308 0.77777 0.0
C409 C 0.0052 0.33274 0.85889 0.0
N410 N 0.97619 0.39931 0.89546 0.0
N411 N 0.02421 0.31823 0.72807 0.0
H412 H 0.9974 0.2987 0.96271 0.0
H413 H 0.01979 0.29284 0.87881 0.0
H414 H 0.03343 0.32367 0.6663 0.0
H415 H 0.01922 0.29332 0.74912 0.0
H416 H 0.97129 0.41767 0.86421 0.0
H417 H 0.9645 0.39259 0.95496 0.0
H418 H 0.01159 0.44393 0.77589 0.0
H419 H 0.02565 0.43332 0.68346 0.0
C420 C 0.62935 0.97833 0.04896 0.0
C421 C 0.62334 0.99669 0.11533 0.0
C422 C 0.62675 0.0414 0.01493 0.0
C423 C 0.62667 0.01985 0.94706 0.0
N424 N 0.62758 0.96707 0.89958 0.0
N425 N 0.63916 0.05581 0.1625 0.0
C426 C 0.628 0.98814 0.9641 0.0
C427 C 0.62875 0.03133 0.09898 0.0
N428 N 0.64032 0.95433 0.0673 0.0
N429 N 0.62272 0.07038 0.99984 0.0
H430 H 0.64609 0.05098 0.22198 0.0
H431 H 0.6465 0.0825 0.15293 0.0
H432 H 0.62046 0.07857 0.9397 0.0
H433 H 0.61827 0.08433 0.04732 0.0
H434 H 0.64776 0.94186 0.02202 0.0
H435 H 0.64754 0.95126 0.12806 0.0
H436 H 0.62364 0.94143 0.90834 0.0
H437 H 0.62886 0.97415 0.83663 0.0
C438 C 0.626 0.61924 0.1192 0.0
C439 C 0.65124 0.65001 0.07409 0.0
C440 C 0.6922 0.66877 0.19557 0.0
C441 C 0.66795 0.63673 0.23831 0.0
N442 N 0.61554 0.57787 0.23336 0.0
N443 N 0.71065 0.70122 0.06342 0.0
C444 C 0.63588 0.61094 0.19798 0.0
C445 C 0.685 0.67402 0.11072 0.0
N446 N 0.59198 0.59869 0.08848 0.0
N447 N 0.72149 0.69479 0.23694 0.0
H448 H 0.70622 0.70607 0.00159 0.0
H449 H 0.73714 0.71716 0.08279 0.0
H450 H 0.72823 0.69169 0.29809 0.0
H451 H 0.73773 0.72043 0.21306 0.0
H452 H 0.57124 0.57834 0.12292 0.0
H453 H 0.58349 0.60399 0.0315 0.0
H454 H 0.59405 0.55668 0.20269 0.0
H455 H 0.62222 0.57041 0.29003 0.0
C456 C 0.93443 0.57008 0.45167 0.0
C457 C 0.95177 0.60631 0.47963 0.0
C458 C 0.93054 0.62287 0.35307 0.0
C459 C 0.91456 0.58707 0.32522 0.0
N460 N 0.8888 0.52527 0.36104 0.0
N461 N 0.9565 0.66436 0.46976 0.0
C462 C 0.91178 0.56023 0.38023 0.0
C463 C 0.94651 0.63186 0.43452 0.0
N464 N 0.94224 0.54584 0.48695 0.0
N465 N 0.93181 0.64833 0.29993 0.0
H466 H 0.96723 0.67114 0.53028 0.0
H467 H 0.95096 0.68305 0.4426 0.0
H468 H 0.91867 0.64167 0.24187 0.0
H469 H 0.94667 0.67567 0.31206 0.0
H470 H 0.93274 0.52024 0.46267 0.0
H471 H 0.96127 0.55209 0.53405 0.0
H472 H 0.88344 0.50423 0.40176 0.0
H473 H 0.87232 0.5182 0.30805 0.0
C474 C 0.30095 0.94923 0.43093 0.0
C475 C 0.32369 0.96967 0.36372 0.0
C476 C 0.36166 0.01714 0.463 0.0
C477 C 0.34237 0.99436 0.5315 0.0
N478 N 0.29339 0.93793 0.58063 0.0
N479 N 0.36072 0.03032 0.31549 0.0
C480 C 0.31185 0.9602 0.51546 0.0
C481 C 0.34978 0.00589 0.37932 0.0
N482 N 0.26724 0.9217 0.41379 0.0
N483 N 0.39262 0.0487 0.47713 0.0
H484 H 0.34842 0.02409 0.25657 0.0
H485 H 0.37754 0.05769 0.32448 0.0
H486 H 0.40295 0.05784 0.53697 0.0
H487 H 0.4099 0.06414 0.42909 0.0
H488 H 0.24819 0.9073 0.45974 0.0
H489 H 0.25633 0.91698 0.35342 0.0
H490 H 0.27418 0.91109 0.57261 0.0
H491 H 0.29873 0.94547 0.6434 0.0
C492 C 0.40553 0.23688 0.6285 0.0
C493 C 0.41754 0.23889 0.54455 0.0
C494 C 0.4236 0.18603 0.56797 0.0
C495 C 0.40793 0.18182 0.64865 0.0
N496 N 0.37886 0.19983 0.75154 0.0
N497 N 0.43273 0.21252 0.42938 0.0
C498 C 0.39761 0.2064 0.67805 0.0
C499 C 0.42529 0.21276 0.51288 0.0
N500 N 0.40277 0.26463 0.66175 0.0
N501 N 0.43798 0.16528 0.54506 0.0
H502 H 0.43394 0.23146 0.38667 0.0
H503 H 0.4346 0.19179 0.40088 0.0
H504 H 0.43766 0.14566 0.58406 0.0
H505 H 0.45314 0.16969 0.49076 0.0
H506 H 0.39802 0.2665 0.72523 0.0
H507 H 0.40842 0.28746 0.62746 0.0
H508 H 0.36714 0.21464 0.77138 0.0
H509 H 0.37223 0.17763 0.7894 0.0
C510 C 0.25142 0.45606 0.75105 0.0
C511 C 0.24397 0.43832 0.82985 0.0
C512 C 0.17949 0.41187 0.80373 0.0
C513 C 0.18698 0.42563 0.72059 0.0
N514 N 0.23025 0.45616 0.61008 0.0
N515 N 0.20083 0.39447 0.92575 0.0
C516 C 0.223 0.44668 0.69286 0.0
C517 C 0.20796 0.41504 0.85511 0.0
N518 N 0.28548 0.4826 0.73264 0.0
N519 N 0.14531 0.39663 0.83448 0.0
H520 H 0.22081 0.39519 0.96425 0.0
H521 H 0.17516 0.37422 0.94185 0.0
H522 H 0.12384 0.3945 0.79928 0.0
H523 H 0.13893 0.38942 0.89731 0.0
H524 H 0.29175 0.49896 0.67982 0.0
H525 H 0.30691 0.49068 0.77429 0.0
H526 H 0.25601 0.46805 0.58483 0.0
H527 H 0.21036 0.44922 0.56468 0.0
C528 C 0.78164 0.18636 0.04327 0.0
C529 C 0.80708 0.2205 0.0114 0.0
C530 C 0.77851 0.20439 0.87264 0.0
C531 C 0.75213 0.17088 0.90556 0.0
N532 N 0.72361 0.13293 0.02544 0.0
N533 N 0.82516 0.26518 0.90247 0.0
C534 C 0.75217 0.16278 0.99201 0.0
C535 C 0.80414 0.23049 0.928 0.0
N536 N 0.78655 0.17571 0.12079 0.0
N537 N 0.78023 0.21068 0.78799 0.0
H538 H 0.84397 0.28514 0.94164 0.0
H539 H 0.82167 0.27492 0.84539 0.0
H540 H 0.76196 0.19233 0.74517 0.0
H541 H 0.80139 0.23291 0.75933 0.0
H542 H 0.77115 0.14969 0.14334 0.0
H543 H 0.80796 0.19201 0.16013 0.0
H544 H 0.72031 0.12746 0.08965 0.0
H545 H 0.70141 0.11526 0.98973 0.0
C546 C 0.63548 0.84815 0.09896 0.0
C547 C 0.60189 0.83294 0.14073 0.0
C548 C 0.5778 0.78128 0.0462 0.0
C549 C 0.61254 0.79452 0.01152 0.0
N550 N 0.67586 0.83768 0.01366 0.0
N551 N 0.54229 0.78297 0.1624 0.0
C552 C 0.64179 0.82726 0.03998 0.0
C553 C 0.57325 0.79899 0.11639 0.0
N554 N 0.66096 0.88302 0.11334 0.0
N555 N 0.54896 0.75243 0.01041 0.0
H556 H 0.53801 0.79498 0.21456 0.0
H557 H 0.52207 0.75658 0.15336 0.0
H558 H 0.5512 0.73896 0.95839 0.0
H559 H 0.52251 0.74386 0.02723 0.0
H560 H 0.68431 0.89666 0.07786 0.0
H561 H 0.65727 0.89947 0.15524 0.0
H562 H 0.69864 0.85918 0.03977 0.0
H563 H 0.68175 0.82302 0.97094 0.0
C564 C 0.81801 0.60644 0.24232 0.0
C565 C 0.80697 0.59053 0.32266 0.0
C566 C 0.80377 0.53569 0.27068 0.0
C567 C 0.80661 0.54873 0.18778 0.0
N568 N 0.82075 0.59729 0.0923 0.0
N569 N 0.79285 0.5417 0.41778 0.0
C570 C 0.816 0.58475 0.17293 0.0
C571 C 0.80192 0.55597 0.33879 0.0
N572 N 0.82977 0.64208 0.23311 0.0
N573 N 0.80231 0.50366 0.28327 0.0
H574 H 0.79243 0.5563 0.46948 0.0
H575 H 0.78456 0.51515 0.43195 0.0
H576 H 0.80402 0.48878 0.23357 0.0
H577 H 0.80285 0.49348 0.34229 0.0
H578 H 0.84055 0.65629 0.17771 0.0
H579 H 0.83147 0.65813 0.28402 0.0
H580 H 0.82387 0.62202 0.07578 0.0
H581 H 0.82055 0.58219 0.0409 0.0
C582 C 0.15924 0.72203 0.36236 0.0
C583 C 0.1485 0.7361 0.42969 0.0
C584 C 0.18415 0.79656 0.37188 0.0
C585 C 0.19761 0.78296 0.30921 0.0
N586 N 0.20198 0.73381 0.25034 0.0
N587 N 0.15479 0.78703 0.50697 0.0
C588 C 0.18615 0.74592 0.30569 0.0
C589 C 0.16198 0.77345 0.43673 0.0
N590 N 0.14295 0.68582 0.35128 0.0
N591 N 0.1914 0.83121 0.36763 0.0
H592 H 0.13853 0.77103 0.55585 0.0
H593 H 0.1673 0.81428 0.52022 0.0
H594 H 0.20718 0.84894 0.32054 0.0
H595 H 0.17921 0.84154 0.40615 0.0
H596 H 0.14679 0.67389 0.29848 0.0
H597 H 0.12314 0.66755 0.39165 0.0
H598 H 0.19765 0.70782 0.25086 0.0
H599 H 0.2218 0.75055 0.20796 0.0
loop_
_geom_bond_atom_site_label_1
_geom_bond_atom_site_label_2
_geom_bond_distance
_geom_bond_site_symmetry_2
_ccdc_geom_bond_type
Mg0 O1 2.028 . S
Mg0 O7 1.986 . S
Mg0 O9 2.114 . S
Mg0 O10 2.251 . S
Mg0 O13 2.010 . S
O1 Mg0 2.028 . S
O1 C4 1.250 . S
O2 Mg3 2.028 . S
O2 C4 1.248 . S
Mg3 O2 2.028 . S
Mg3 O8 2.032 . S
Mg3 O10 2.079 . S
C4 O1 1.250 . S
C4 O2 1.248 . S
C5 O6 1.264 . S
C5 O13 1.249 . S
O6 C5 1.264 . S
O7 Mg0 1.986 . S
O7 C11 1.246 . S
O8 Mg3 2.032 . S
O8 C11 1.259 . S
O9 Mg0 2.114 . S
O9 C12 1.252 . S
O10 Mg0 2.251 . S
O10 Mg3 2.079 . S
O10 C12 1.273 . S
C11 O7 1.246 . S
C11 O8 1.259 . S
C12 O9 1.252 . S
C12 O10 1.273 . S
O13 Mg0 2.010 . S
O13 C5 1.249 . S
Mg14 O15 2.028 . S
Mg14 O21 1.986 . S
Mg14 O23 2.114 . S
Mg14 O24 2.251 . S
Mg14 O27 2.010 . S
O15 Mg14 2.028 . S
O15 C18 1.250 . S
O16 Mg17 2.028 . S
O16 C18 1.248 . S
Mg17 O16 2.028 . S
Mg17 O22 2.032 . S
Mg17 O24 2.079 . S
C18 O15 1.250 . S
C18 O16 1.248 . S
C19 O20 1.264 . S
C19 O27 1.249 . S
O20 C19 1.264 . S
O21 Mg14 1.986 . S
O21 C25 1.246 . S
O22 Mg17 2.032 . S
O22 C25 1.259 . S
O23 Mg14 2.114 . S
O23 C26 1.252 . S
O24 Mg14 2.251 . S
O24 Mg17 2.079 . S
O24 C26 1.273 . S
C25 O21 1.246 . S
C25 O22 1.259 . S
C26 O23 1.252 . S
C26 O24 1.273 . S
O27 Mg14 2.010 . S
O27 C19 1.249 . S
Mg28 O29 2.028 . S
Mg28 O35 1.986 . S
Mg28 O37 2.114 . S
Mg28 O38 2.251 . S
Mg28 O41 2.010 . S
O29 Mg28 2.028 . S
O29 C32 1.250 . S
O30 Mg31 2.028 . S
O30 C32 1.248 . S
Mg31 O30 2.028 . S
Mg31 O36 2.032 . S
Mg31 O38 2.079 . S
C32 O29 1.250 . S
C32 O30 1.248 . S
C33 O34 1.264 . S
C33 O41 1.249 . S
O34 C33 1.264 . S
O35 Mg28 1.986 . S
O35 C39 1.246 . S
O36 Mg31 2.032 . S
O36 C39 1.259 . S
O37 Mg28 2.114 . S
O37 C40 1.252 . S
O38 Mg28 2.251 . S
O38 Mg31 2.079 . S
O38 C40 1.273 . S
C39 O35 1.246 . S
C39 O36 1.259 . S
C40 O37 1.252 . S
C40 O38 1.273 . S
O41 Mg28 2.010 . S
O41 C33 1.249 . S
Mg42 O43 2.028 1_556 S
Mg42 O49 1.986 . S
Mg42 O51 2.114 . S
Mg42 O52 2.251 . S
Mg42 O55 2.010 . S
O43 Mg42 2.028 1_554 S
O43 C46 1.250 . S
O44 Mg45 2.028 . S
O44 C46 1.248 1_556 S
Mg45 O44 2.028 . S
Mg45 O50 2.032 . S
Mg45 O52 2.079 . S
C46 O43 1.250 . S
C46 O44 1.248 1_554 S
C47 O48 1.264 . S
C47 O55 1.249 . S
O48 C47 1.264 . S
O49 Mg42 1.986 . S
O49 C53 1.246 . S
O50 Mg45 2.032 . S
O50 C53 1.259 . S
O51 Mg42 2.114 . S
O51 C54 1.252 . S
O52 Mg42 2.251 . S
O52 Mg45 2.079 . S
O52 C54 1.273 . S
C53 O49 1.246 . S
C53 O50 1.259 . S
C54 O51 1.252 . S
C54 O52 1.273 . S
O55 Mg42 2.010 . S
O55 C47 1.249 . S
Mg56 O57 2.028 . S
Mg56 O63 1.986 . S
Mg56 O65 2.114 1_554 S
Mg56 O66 2.251 1_554 S
Mg56 O69 2.010 . S
O57 Mg56 2.028 . S
O57 C60 1.250 . S
O58 Mg59 2.028 . S
O58 C60 1.248 . S
Mg59 O58 2.028 . S
Mg59 O64 2.032 . S
Mg59 O66 2.079 1_554 S
C60 O57 1.250 . S
C60 O58 1.248 . S
C61 O62 1.264 . S
C61 O69 1.249 . S
O62 C61 1.264 . S
O63 Mg56 1.986 . S
O63 C67 1.246 . S
O64 Mg59 2.032 . S
O64 C67 1.259 . S
O65 Mg56 2.114 1_556 S
O65 C68 1.252 . S
O66 Mg56 2.251 1_556 S
O66 Mg59 2.079 1_556 S
O66 C68 1.273 . S
C67 O63 1.246 . S
C67 O64 1.259 . S
C68 O65 1.252 . S
C68 O66 1.273 . S
O69 Mg56 2.010 . S
O69 C61 1.249 . S
Mg70 O71 2.028 . S
Mg70 O77 1.986 . S
Mg70 O79 2.114 . S
Mg70 O80 2.251 . S
Mg70 O83 2.010 . S
O71 Mg70 2.028 . S
O71 C74 1.250 . S
O72 Mg73 2.028 . S
O72 C74 1.248 . S
Mg73 O72 2.028 . S
Mg73 O78 2.032 . S
Mg73 O80 2.079 . S
C74 O71 1.250 . S
C74 O72 1.248 . S
C75 O76 1.264 . S
C75 O83 1.249 . S
O76 C75 1.264 . S
O77 Mg70 1.986 . S
O77 C81 1.246 . S
O78 Mg73 2.032 . S
O78 C81 1.259 . S
O79 Mg70 2.114 . S
O79 C82 1.252 . S
O80 Mg70 2.251 . S
O80 Mg73 2.079 . S
O80 C82 1.273 . S
C81 O77 1.246 . S
C81 O78 1.259 . S
C82 O79 1.252 . S
C82 O80 1.273 . S
O83 Mg70 2.010 . S
O83 C75 1.249 . S
Mg84 O85 2.028 . S
Mg84 O91 1.986 . S
Mg84 O93 2.114 . S
Mg84 O94 2.251 . S
Mg84 O97 2.010 . S
O85 Mg84 2.028 . S
O85 C88 1.250 . S
O86 Mg87 2.028 . S
O86 C88 1.248 . S
Mg87 O86 2.028 . S
Mg87 O92 2.032 . S
Mg87 O94 2.079 . S
C88 O85 1.250 . S
C88 O86 1.248 . S
C89 O90 1.264 . S
C89 O97 1.249 . S
O90 C89 1.264 . S
O91 Mg84 1.986 . S
O91 C95 1.246 . S
O92 Mg87 2.032 . S
O92 C95 1.259 . S
O93 Mg84 2.114 . S
O93 C96 1.252 . S
O94 Mg84 2.251 . S
O94 Mg87 2.079 . S
O94 C96 1.273 . S
C95 O91 1.246 . S
C95 O92 1.259 . S
C96 O93 1.252 . S
C96 O94 1.273 . S
O97 Mg84 2.010 . S
O97 C89 1.249 . S
Mg98 O99 2.028 . S
Mg98 O105 1.986 . S
Mg98 O107 2.114 . S
Mg98 O108 2.251 . S
Mg98 O111 2.010 . S
O99 Mg98 2.028 . S
O99 C102 1.250 . S
O100 Mg101 2.028 . S
O100 C102 1.248 . S
Mg101 O100 2.028 . S
Mg101 O106 2.032 . S
Mg101 O108 2.079 . S
C102 O99 1.250 . S
C102 O100 1.248 . S
C103 O104 1.264 . S
C103 O111 1.249 . S
O104 C103 1.264 . S
O105 Mg98 1.986 . S
O105 C109 1.246 . S
O106 Mg101 2.032 . S
O106 C109 1.259 . S
O107 Mg98 2.114 . S
O107 C110 1.252 . S
O108 Mg98 2.251 . S
O108 Mg101 2.079 . S
O108 C110 1.273 . S
C109 O105 1.246 . S
C109 O106 1.259 . S
C110 O107 1.252 . S
C110 O108 1.273 . S
O111 Mg98 2.010 . S
O111 C103 1.249 . S
Mg112 O113 2.028 . S
Mg112 O119 1.986 . S
Mg112 O121 2.114 . S
Mg112 O122 2.251 . S
Mg112 O125 2.010 . S
O113 Mg112 2.028 . S
O113 C116 1.250 . S
O114 Mg115 2.028 . S
O114 C116 1.248 . S
Mg115 O114 2.028 . S
Mg115 O120 2.032 . S
Mg115 O122 2.079 . S
C116 O113 1.250 . S
C116 O114 1.248 . S
C117 O118 1.264 . S
C117 O125 1.249 . S
O118 C117 1.264 . S
O119 Mg112 1.986 . S
O119 C123 1.246 . S
O120 Mg115 2.032 . S
O120 C123 1.259 . S
O121 Mg112 2.114 . S
O121 C124 1.252 . S
O122 Mg112 2.251 . S
O122 Mg115 2.079 . S
O122 C124 1.273 . S
C123 O119 1.246 . S
C123 O120 1.259 . S
C124 O121 1.252 . S
C124 O122 1.273 . S
O125 Mg112 2.010 . S
O125 C117 1.249 . S
Mg126 O127 2.028 . S
Mg126 O133 1.986 . S
Mg126 O135 2.114 1_556 S
Mg126 O136 2.251 1_556 S
Mg126 O139 2.010 . S
O127 Mg126 2.028 . S
O127 C130 1.250 . S
O128 Mg129 2.028 . S
O128 C130 1.248 . S
Mg129 O128 2.028 . S
Mg129 O134 2.032 . S
Mg129 O136 2.079 1_556 S
C130 O127 1.250 . S
C130 O128 1.248 . S
C131 O132 1.264 . S
C131 O139 1.249 . S
O132 C131 1.264 . S
O133 Mg126 1.986 . S
O133 C137 1.246 . S
O134 Mg129 2.032 . S
O134 C137 1.259 . S
O135 Mg126 2.114 1_554 S
O135 C138 1.252 . S
O136 Mg126 2.251 1_554 S
O136 Mg129 2.079 1_554 S
O136 C138 1.273 . S
C137 O133 1.246 . S
C137 O134 1.259 . S
C138 O135 1.252 . S
C138 O136 1.273 . S
O139 Mg126 2.010 . S
O139 C131 1.249 . S
Mg140 O141 2.028 1_554 S
Mg140 O147 1.986 . S
Mg140 O149 2.114 . S
Mg140 O150 2.251 . S
Mg140 O153 2.010 . S
O141 Mg140 2.028 1_556 S
O141 C144 1.250 . S
O142 Mg143 2.028 . S
O142 C144 1.248 1_554 S
Mg143 O142 2.028 . S
Mg143 O148 2.032 . S
Mg143 O150 2.079 . S
C144 O141 1.250 . S
C144 O142 1.248 1_556 S
C145 O146 1.264 . S
C145 O153 1.249 . S
O146 C145 1.264 . S
O147 Mg140 1.986 . S
O147 C151 1.246 . S
O148 Mg143 2.032 . S
O148 C151 1.259 . S
O149 Mg140 2.114 . S
O149 C152 1.252 . S
O150 Mg140 2.251 . S
O150 Mg143 2.079 . S
O150 C152 1.273 . S
C151 O147 1.246 . S
C151 O148 1.259 . S
C152 O149 1.252 . S
C152 O150 1.273 . S
O153 Mg140 2.010 . S
O153 C145 1.249 . S
Mg154 O155 2.028 . S
Mg154 O161 1.986 . S
Mg154 O163 2.114 . S
Mg154 O164 2.251 . S
Mg154 O167 2.010 . S
O155 Mg154 2.028 . S
O155 C158 1.250 . S
O156 Mg157 2.028 . S
O156 C158 1.248 . S
Mg157 O156 2.028 . S
Mg157 O162 2.032 . S
Mg157 O164 2.079 . S
C158 O155 1.250 . S
C158 O156 1.248 . S
C159 O160 1.264 . S
C159 O167 1.249 . S
O160 C159 1.264 . S
O161 Mg154 1.986 . S
O161 C165 1.246 . S
O162 Mg157 2.032 . S
O162 C165 1.259 . S
O163 Mg154 2.114 . S
O163 C166 1.252 . S
O164 Mg154 2.251 . S
O164 Mg157 2.079 . S
O164 C166 1.273 . S
C165 O161 1.246 . S
C165 O162 1.259 . S
C166 O163 1.252 . S
C166 O164 1.273 . S
O167 Mg154 2.010 . S
O167 C159 1.249 . S
C168 C169 1.363 . S
C168 C174 1.379 . S
C168 N176 1.356 . S
C169 C168 1.363 . S
C169 C175 1.363 . S
C170 C171 1.363 . S
C170 C175 1.379 . S
C170 N177 1.356 . S
C171 C170 1.363 . S
C171 C174 1.363 . S
N172 C174 1.356 . S
N172 H184 0.984 . S
N172 H185 0.985 . S
N173 C175 1.356 . S
N173 H178 0.984 . S
N173 H179 0.985 . S
C174 C168 1.379 . S
C174 C171 1.363 . S
C174 N172 1.356 . S
C175 C169 1.363 . S
C175 C170 1.379 . S
C175 N173 1.356 . S
N176 C168 1.356 . S
N176 H182 0.984 . S
N176 H183 0.984 . S
N177 C170 1.356 . S
N177 H180 0.984 . S
N177 H181 0.985 . S
H178 N173 0.984 . S
H179 N173 0.985 . S
H180 N177 0.984 . S
H181 N177 0.985 . S
H182 N176 0.984 . S
H183 N176 0.984 . S
H184 N172 0.984 . S
H185 N172 0.985 . S
C186 C187 1.363 1_655 S
C186 C192 1.379 . S
C186 N194 1.356 . S
C187 C186 1.363 1_455 S
C187 C193 1.363 . S
C188 C189 1.363 1_455 S
C188 C193 1.379 . S
C188 N195 1.356 . S
C189 C188 1.363 1_655 S
C189 C192 1.363 . S
N190 C192 1.356 . S
N190 H202 0.984 . S
N190 H203 0.985 . S
N191 C193 1.356 . S
N191 H196 0.984 . S
N191 H197 0.985 . S
C192 C186 1.379 . S
C192 C189 1.363 . S
C192 N190 1.356 . S
C193 C187 1.363 . S
C193 C188 1.379 . S
C193 N191 1.356 . S
N194 C186 1.356 . S
N194 H200 0.984 . S
N194 H201 0.984 1_655 S
N195 C188 1.356 . S
N195 H198 0.984 1_455 S
N195 H199 0.985 . S
H196 N191 0.984 . S
H197 N191 0.985 . S
H198 N195 0.984 1_655 S
H199 N195 0.985 . S
H200 N194 0.984 . S
H201 N194 0.984 1_455 S
H202 N190 0.984 . S
H203 N190 0.985 . S
C204 C205 1.363 1_545 S
C204 C210 1.379 . S
C204 N212 1.356 . S
C205 C204 1.363 1_565 S
C205 C211 1.363 . S
C206 C207 1.363 1_565 S
C206 C211 1.379 . S
C206 N213 1.356 . S
C207 C206 1.363 1_545 S
C207 C210 1.363 . S
N208 C210 1.356 . S
N208 H220 0.984 . S
N208 H221 0.985 . S
N209 C211 1.356 . S
N209 H214 0.984 . S
N209 H215 0.985 . S
C210 C204 1.379 . S
C210 C207 1.363 . S
C210 N208 1.356 . S
C211 C205 1.363 . S
C211 C206 1.379 . S
C211 N209 1.356 . S
N212 C204 1.356 . S
N212 H218 0.984 . S
N212 H219 0.984 1_545 S
N213 C206 1.356 . S
N213 H216 0.984 1_565 S
N213 H217 0.985 . S
H214 N209 0.984 . S
H215 N209 0.985 . S
H216 N213 0.984 1_545 S
H217 N213 0.985 . S
H218 N212 0.984 . S
H219 N212 0.984 1_565 S
H220 N208 0.984 . S
H221 N208 0.985 . S
C222 C223 1.363 . S
C222 C228 1.379 . S
C222 N230 1.356 . S
C223 C222 1.363 . S
C223 C229 1.363 . S
C224 C225 1.363 . S
C224 C229 1.379 . S
C224 N231 1.356 . S
C225 C224 1.363 . S
C225 C228 1.363 . S
N226 C228 1.356 . S
N226 H238 0.984 . S
N226 H239 0.985 . S
N227 C229 1.356 . S
N227 H232 0.984 . S
N227 H233 0.985 . S
C228 C222 1.379 . S
C228 C225 1.363 . S
C228 N226 1.356 . S
C229 C223 1.363 . S
C229 C224 1.379 . S
C229 N227 1.356 . S
N230 C222 1.356 . S
N230 H236 0.984 . S
N230 H237 0.984 . S
N231 C224 1.356 . S
N231 H234 0.984 . S
N231 H235 0.985 . S
H232 N227 0.984 . S
H233 N227 0.985 . S
H234 N231 0.984 . S
H235 N231 0.985 . S
H236 N230 0.984 . S
H237 N230 0.984 . S
H238 N226 0.984 . S
H239 N226 0.985 . S
C240 C241 1.363 . S
C240 C246 1.379 1_455 S
C240 N248 1.356 . S
C241 C240 1.363 . S
C241 C247 1.363 . S
C242 C243 1.363 . S
C242 C247 1.379 1_655 S
C242 N249 1.356 . S
C243 C242 1.363 . S
C243 C246 1.363 . S
N244 C246 1.356 . S
N244 H256 0.984 . S
N244 H257 0.985 . S
N245 C247 1.356 . S
N245 H250 0.984 . S
N245 H251 0.985 . S
C246 C240 1.379 1_655 S
C246 C243 1.363 . S
C246 N244 1.356 . S
C247 C241 1.363 . S
C247 C242 1.379 1_455 S
C247 N245 1.356 . S
N248 C240 1.356 . S
N248 H254 0.984 . S
N248 H255 0.984 . S
N249 C242 1.356 . S
N249 H252 0.984 . S
N249 H253 0.985 . S
H250 N245 0.984 . S
H251 N245 0.985 . S
H252 N249 0.984 . S
H253 N249 0.985 . S
H254 N248 0.984 . S
H255 N248 0.984 . S
H256 N244 0.984 . S
H257 N244 0.985 . S
C258 C259 1.363 1_554 S
C258 C264 1.379 . S
C258 N266 1.356 . S
C259 C258 1.363 1_556 S
C259 C265 1.363 1_545 S
C260 C261 1.363 1_556 S
C260 C265 1.379 . S
C260 N267 1.356 . S
C261 C260 1.363 1_554 S
C261 C264 1.363 1_565 S
N262 C264 1.356 . S
N262 H274 0.984 . S
N262 H275 0.985 1_545 S
N263 C265 1.356 . S
N263 H268 0.984 1_565 S
N263 H269 0.985 . S
C264 C258 1.379 . S
C264 C261 1.363 1_545 S
C264 N262 1.356 . S
C265 C259 1.363 1_565 S
C265 C260 1.379 . S
C265 N263 1.356 . S
N266 C258 1.356 . S
N266 H272 0.984 . S
N266 H273 0.984 1_554 S
N267 C260 1.356 . S
N267 H270 0.984 1_556 S
N267 H271 0.985 . S
H268 N263 0.984 1_545 S
H269 N263 0.985 . S
H270 N267 0.984 1_554 S
H271 N267 0.985 . S
H272 N266 0.984 . S
H273 N266 0.984 1_556 S
H274 N262 0.984 . S
H275 N262 0.985 1_565 S
C276 C277 1.363 . S
C276 C282 1.379 . S
C276 N284 1.356 . S
C277 C276 1.363 . S
C277 C283 1.363 . S
C278 C279 1.363 . S
C278 C283 1.379 . S
C278 N285 1.356 . S
C279 C278 1.363 . S
C279 C282 1.363 . S
N280 C282 1.356 . S
N280 H292 0.984 . S
N280 H293 0.985 . S
N281 C283 1.356 . S
N281 H286 0.984 . S
N281 H287 0.985 . S
C282 C276 1.379 . S
C282 C279 1.363 . S
C282 N280 1.356 . S
C283 C277 1.363 . S
C283 C278 1.379 . S
C283 N281 1.356 . S
N284 C276 1.356 . S
N284 H290 0.984 . S
N284 H291 0.984 . S
N285 C278 1.356 . S
N285 H288 0.984 . S
N285 H289 0.985 . S
H286 N281 0.984 . S
H287 N281 0.985 . S
H288 N285 0.984 . S
H289 N285 0.985 . S
H290 N284 0.984 . S
H291 N284 0.984 . S
H292 N280 0.984 . S
H293 N280 0.985 . S
C294 C295 1.363 . S
C294 C300 1.379 . S
C294 N302 1.356 . S
C295 C294 1.363 . S
C295 C301 1.363 . S
C296 C297 1.363 . S
C296 C301 1.379 . S
C296 N303 1.356 . S
C297 C296 1.363 . S
C297 C300 1.363 . S
N298 C300 1.356 . S
N298 H310 0.984 . S
N298 H311 0.985 . S
N299 C301 1.356 . S
N299 H304 0.984 . S
N299 H305 0.985 . S
C300 C294 1.379 . S
C300 C297 1.363 . S
C300 N298 1.356 . S
C301 C295 1.363 . S
C301 C296 1.379 . S
C301 N299 1.356 . S
N302 C294 1.356 . S
N302 H308 0.984 . S
N302 H309 0.984 . S
N303 C296 1.356 . S
N303 H306 0.984 . S
N303 H307 0.985 . S
H304 N299 0.984 . S
H305 N299 0.985 . S
H306 N303 0.984 . S
H307 N303 0.985 . S
H308 N302 0.984 . S
H309 N302 0.984 . S
H310 N298 0.984 . S
H311 N298 0.985 . S
C312 C313 1.363 . S
C312 C318 1.379 . S
C312 N320 1.356 . S
C313 C312 1.363 . S
C313 C319 1.363 . S
C314 C315 1.363 . S
C314 C319 1.379 . S
C314 N321 1.356 . S
C315 C314 1.363 . S
C315 C318 1.363 . S
N316 C318 1.356 . S
N316 H328 0.984 . S
N316 H329 0.985 . S
N317 C319 1.356 . S
N317 H322 0.984 . S
N317 H323 0.985 . S
C318 C312 1.379 . S
C318 C315 1.363 . S
C318 N316 1.356 . S
C319 C313 1.363 . S
C319 C314 1.379 . S
C319 N317 1.356 . S
N320 C312 1.356 . S
N320 H326 0.984 . S
N320 H327 0.984 . S
N321 C314 1.356 . S
N321 H324 0.984 . S
N321 H325 0.985 . S
H322 N317 0.984 . S
H323 N317 0.985 . S
H324 N321 0.984 . S
H325 N321 0.985 . S
H326 N320 0.984 . S
H327 N320 0.984 . S
H328 N316 0.984 . S
H329 N316 0.985 . S
C330 C331 1.363 . S
C330 C336 1.379 . S
C330 N338 1.356 . S
C331 C330 1.363 . S
C331 C337 1.363 . S
C332 C333 1.363 . S
C332 C337 1.379 . S
C332 N339 1.356 1_556 S
C333 C332 1.363 . S
C333 C336 1.363 . S
N334 C336 1.356 . S
N334 H346 0.984 . S
N334 H347 0.985 . S
N335 C337 1.356 1_554 S
N335 H340 0.984 . S
N335 H341 0.985 . S
C336 C330 1.379 . S
C336 C333 1.363 . S
C336 N334 1.356 . S
C337 C331 1.363 . S
C337 C332 1.379 . S
C337 N335 1.356 1_556 S
N338 C330 1.356 . S
N338 H344 0.984 . S
N338 H345 0.984 . S
N339 C332 1.356 1_554 S
N339 H342 0.984 1_554 S
N339 H343 0.985 . S
H340 N335 0.984 . S
H341 N335 0.985 . S
H342 N339 0.984 1_556 S
H343 N339 0.985 . S
H344 N338 0.984 . S
H345 N338 0.984 . S
H346 N334 0.984 . S
H347 N334 0.985 . S
C348 C349 1.363 . S
C348 C354 1.379 . S
C348 N356 1.356 . S
C349 C348 1.363 . S
C349 C355 1.363 . S
C350 C351 1.363 . S
C350 C355 1.379 . S
C350 N357 1.356 1_554 S
C351 C350 1.363 . S
C351 C354 1.363 . S
N352 C354 1.356 . S
N352 H364 0.984 . S
N352 H365 0.985 . S
N353 C355 1.356 1_556 S
N353 H358 0.984 . S
N353 H359 0.985 . S
C354 C348 1.379 . S
C354 C351 1.363 . S
C354 N352 1.356 . S
C355 C349 1.363 . S
C355 C350 1.379 . S
C355 N353 1.356 1_554 S
N356 C348 1.356 . S
N356 H362 0.984 . S
N356 H363 0.984 . S
N357 C350 1.356 1_556 S
N357 H360 0.984 . S
N357 H361 0.985 . S
H358 N353 0.984 . S
H359 N353 0.985 . S
H360 N357 0.984 . S
H361 N357 0.985 . S
H362 N356 0.984 . S
H363 N356 0.984 . S
H364 N352 0.984 . S
H365 N352 0.985 . S
C366 C367 1.363 . S
C366 C372 1.379 . S
C366 N374 1.356 . S
C367 C366 1.363 . S
C367 C373 1.363 . S
C368 C369 1.363 . S
C368 C373 1.379 . S
C368 N375 1.356 . S
C369 C368 1.363 . S
C369 C372 1.363 . S
N370 C372 1.356 . S
N370 H382 0.984 . S
N370 H383 0.985 . S
N371 C373 1.356 . S
N371 H376 0.984 . S
N371 H377 0.985 . S
C372 C366 1.379 . S
C372 C369 1.363 . S
C372 N370 1.356 . S
C373 C367 1.363 . S
C373 C368 1.379 . S
C373 N371 1.356 . S
N374 C366 1.356 . S
N374 H380 0.984 . S
N374 H381 0.984 . S
N375 C368 1.356 . S
N375 H378 0.984 . S
N375 H379 0.985 . S
H376 N371 0.984 . S
H377 N371 0.985 . S
H378 N375 0.984 . S
H379 N375 0.985 . S
H380 N374 0.984 . S
H381 N374 0.984 . S
H382 N370 0.984 . S
H383 N370 0.985 . S
C384 C385 1.363 . S
C384 C390 1.379 . S
C384 N392 1.356 . S
C385 C384 1.363 . S
C385 C391 1.363 . S
C386 C387 1.363 . S
C386 C391 1.379 . S
C386 N393 1.356 . S
C387 C386 1.363 . S
C387 C390 1.363 . S
N388 C390 1.356 . S
N388 H400 0.984 . S
N388 H401 0.985 . S
N389 C391 1.356 . S
N389 H394 0.984 . S
N389 H395 0.985 . S
C390 C384 1.379 . S
C390 C387 1.363 . S
C390 N388 1.356 . S
C391 C385 1.363 . S
C391 C386 1.379 . S
C391 N389 1.356 . S
N392 C384 1.356 . S
N392 H398 0.984 . S
N392 H399 0.984 . S
N393 C386 1.356 . S
N393 H396 0.984 . S
N393 H397 0.985 . S
H394 N389 0.984 . S
H395 N389 0.985 . S
H396 N393 0.984 . S
H397 N393 0.985 . S
H398 N392 0.984 . S
H399 N392 0.984 . S
H400 N388 0.984 . S
H401 N388 0.985 . S
C402 C403 1.363 . S
C402 C408 1.379 1_655 S
C402 N410 1.356 . S
C403 C402 1.363 . S
C403 C409 1.363 . S
C404 C405 1.363 . S
C404 C409 1.379 1_455 S
C404 N411 1.356 . S
C405 C404 1.363 . S
C405 C408 1.363 . S
N406 C408 1.356 . S
N406 H418 0.984 . S
N406 H419 0.985 . S
N407 C409 1.356 . S
N407 H412 0.984 . S
N407 H413 0.985 . S
C408 C402 1.379 1_455 S
C408 C405 1.363 . S
C408 N406 1.356 . S
C409 C403 1.363 . S
C409 C404 1.379 1_655 S
C409 N407 1.356 . S
N410 C402 1.356 . S
N410 H416 0.984 . S
N410 H417 0.984 . S
N411 C404 1.356 . S
N411 H414 0.984 . S
N411 H415 0.985 . S
H412 N407 0.984 . S
H413 N407 0.985 . S
H414 N411 0.984 . S
H415 N411 0.985 . S
H416 N410 0.984 . S
H417 N410 0.984 . S
H418 N406 0.984 . S
H419 N406 0.985 . S
C420 C421 1.353 1_556 S
C420 C426 1.388 . S
C420 N428 1.353 1_556 S
C421 C420 1.353 1_554 S
C421 C427 1.363 1_565 S
C422 C423 1.353 1_554 S
C422 C427 1.388 . S
C422 N429 1.353 1_554 S
C423 C422 1.353 1_556 S
C423 C426 1.363 1_545 S
N424 C426 1.356 . S
N424 H436 0.984 . S
N424 H437 0.985 1_565 S
N425 C427 1.356 . S
N425 H430 0.984 1_545 S
N425 H431 0.985 . S
C426 C420 1.388 . S
C426 C423 1.363 1_565 S
C426 N424 1.356 . S
C427 C421 1.363 1_545 S
C427 C422 1.388 . S
C427 N425 1.356 . S
N428 C420 1.353 1_554 S
N428 H434 0.984 1_554 S
N428 H435 0.984 . S
N429 C422 1.353 1_556 S
N429 H432 0.984 . S
N429 H433 0.985 1_556 S
H430 N425 0.984 1_565 S
H431 N425 0.985 . S
H432 N429 0.984 . S
H433 N429 0.985 1_554 S
H434 N428 0.984 1_556 S
H435 N428 0.984 . S
H436 N424 0.984 . S
H437 N424 0.985 1_545 S
C438 C439 1.363 . S
C438 C444 1.379 . S
C438 N446 1.356 . S
C439 C438 1.363 . S
C439 C445 1.363 . S
C440 C441 1.363 . S
C440 C445 1.379 . S
C440 N447 1.356 . S
C441 C440 1.363 . S
C441 C444 1.363 . S
N442 C444 1.356 . S
N442 H454 0.984 . S
N442 H455 0.985 . S
N443 C445 1.356 . S
N443 H448 0.984 . S
N443 H449 0.985 . S
C444 C438 1.379 . S
C444 C441 1.363 . S
C444 N442 1.356 . S
C445 C439 1.363 . S
C445 C440 1.379 . S
C445 N443 1.356 . S
N446 C438 1.356 . S
N446 H452 0.984 . S
N446 H453 0.984 . S
N447 C440 1.356 . S
N447 H450 0.984 . S
N447 H451 0.985 . S
H448 N443 0.984 . S
H449 N443 0.985 . S
H450 N447 0.984 . S
H451 N447 0.985 . S
H452 N446 0.984 . S
H453 N446 0.984 . S
H454 N442 0.984 . S
H455 N442 0.985 . S
C456 C457 1.363 . S
C456 C462 1.379 1_455 S
C456 N464 1.356 . S
C457 C456 1.363 . S
C457 C463 1.363 . S
C458 C459 1.363 . S
C458 C463 1.379 1_655 S
C458 N465 1.356 . S
C459 C458 1.363 . S
C459 C462 1.363 . S
N460 C462 1.356 . S
N460 H472 0.984 . S
N460 H473 0.985 . S
N461 C463 1.356 . S
N461 H466 0.984 . S
N461 H467 0.985 . S
C462 C456 1.379 1_655 S
C462 C459 1.363 . S
C462 N460 1.356 . S
C463 C457 1.363 . S
C463 C458 1.379 1_455 S
C463 N461 1.356 . S
N464 C456 1.356 . S
N464 H470 0.984 . S
N464 H471 0.984 . S
N465 C458 1.356 . S
N465 H468 0.984 . S
N465 H469 0.985 . S
H466 N461 0.984 . S
H467 N461 0.985 . S
H468 N465 0.984 . S
H469 N465 0.985 . S
H470 N464 0.984 . S
H471 N464 0.984 . S
H472 N460 0.984 . S
H473 N460 0.985 . S
C474 C475 1.363 . S
C474 C480 1.379 . S
C474 N482 1.356 . S
C475 C474 1.363 . S
C475 C481 1.363 1_565 S
C476 C477 1.363 . S
C476 C481 1.379 . S
C476 N483 1.356 . S
C477 C476 1.363 . S
C477 C480 1.363 1_545 S
N478 C480 1.356 . S
N478 H490 0.984 . S
N478 H491 0.985 1_565 S
N479 C481 1.356 . S
N479 H484 0.984 1_545 S
N479 H485 0.985 . S
C480 C474 1.379 . S
C480 C477 1.363 1_565 S
C480 N478 1.356 . S
C481 C475 1.363 1_545 S
C481 C476 1.379 . S
C481 N479 1.356 . S
N482 C474 1.356 . S
N482 H488 0.984 . S
N482 H489 0.984 . S
N483 C476 1.356 . S
N483 H486 0.984 . S
N483 H487 0.985 . S
H484 N479 0.984 1_565 S
H485 N479 0.985 . S
H486 N483 0.984 . S
H487 N483 0.985 . S
H488 N482 0.984 . S
H489 N482 0.984 . S
H490 N478 0.984 . S
H491 N478 0.985 1_545 S
C492 C493 1.363 . S
C492 C498 1.379 . S
C492 N500 1.356 . S
C493 C492 1.363 . S
C493 C499 1.363 . S
C494 C495 1.363 . S
C494 C499 1.379 . S
C494 N501 1.356 . S
C495 C494 1.363 . S
C495 C498 1.363 . S
N496 C498 1.356 . S
N496 H508 0.984 . S
N496 H509 0.985 . S
N497 C499 1.356 . S
N497 H502 0.984 . S
N497 H503 0.985 . S
C498 C492 1.379 . S
C498 C495 1.363 . S
C498 N496 1.356 . S
C499 C493 1.363 . S
C499 C494 1.379 . S
C499 N497 1.356 . S
N500 C492 1.356 . S
N500 H506 0.984 . S
N500 H507 0.984 . S
N501 C494 1.356 . S
N501 H504 0.984 . S
N501 H505 0.985 . S
H502 N497 0.984 . S
H503 N497 0.985 . S
H504 N501 0.984 . S
H505 N501 0.985 . S
H506 N500 0.984 . S
H507 N500 0.984 . S
H508 N496 0.984 . S
H509 N496 0.985 . S
C510 C511 1.363 . S
C510 C516 1.379 . S
C510 N518 1.356 . S
C511 C510 1.363 . S
C511 C517 1.363 . S
C512 C513 1.363 . S
C512 C517 1.379 . S
C512 N519 1.356 . S
C513 C512 1.363 . S
C513 C516 1.363 . S
N514 C516 1.356 . S
N514 H526 0.984 . S
N514 H527 0.985 . S
N515 C517 1.356 . S
N515 H520 0.984 . S
N515 H521 0.985 . S
C516 C510 1.379 . S
C516 C513 1.363 . S
C516 N514 1.356 . S
C517 C511 1.363 . S
C517 C512 1.379 . S
C517 N515 1.356 . S
N518 C510 1.356 . S
N518 H524 0.984 . S
N518 H525 0.984 . S
N519 C512 1.356 . S
N519 H522 0.984 . S
N519 H523 0.985 . S
H520 N515 0.984 . S
H521 N515 0.985 . S
H522 N519 0.984 . S
H523 N519 0.985 . S
H524 N518 0.984 . S
H525 N518 0.984 . S
H526 N514 0.984 . S
H527 N514 0.985 . S
C528 C529 1.363 . S
C528 C534 1.379 . S
C528 N536 1.356 1_556 S
C529 C528 1.363 . S
C529 C535 1.363 . S
C530 C531 1.363 . S
C530 C535 1.379 . S
C530 N537 1.356 . S
C531 C530 1.363 . S
C531 C534 1.363 . S
N532 C534 1.356 . S
N532 H544 0.984 . S
N532 H545 0.985 . S
N533 C535 1.356 . S
N533 H538 0.984 . S
N533 H539 0.985 . S
C534 C528 1.379 . S
C534 C531 1.363 . S
C534 N532 1.356 . S
C535 C529 1.363 . S
C535 C530 1.379 . S
C535 N533 1.356 . S
N536 C528 1.356 1_554 S
N536 H542 0.984 . S
N536 H543 0.984 . S
N537 C530 1.356 . S
N537 H540 0.984 . S
N537 H541 0.985 . S
H538 N533 0.984 . S
H539 N533 0.985 . S
H540 N537 0.984 . S
H541 N537 0.985 . S
H542 N536 0.984 . S
H543 N536 0.984 . S
H544 N532 0.984 . S
H545 N532 0.985 . S
C546 C547 1.363 . S
C546 C552 1.379 . S
C546 N554 1.356 . S
C547 C546 1.363 . S
C547 C553 1.363 . S
C548 C549 1.363 . S
C548 C553 1.379 . S
C548 N555 1.356 1_554 S
C549 C548 1.363 . S
C549 C552 1.363 . S
N550 C552 1.356 . S
N550 H562 0.984 . S
N550 H563 0.985 . S
N551 C553 1.356 . S
N551 H556 0.984 . S
N551 H557 0.985 . S
C552 C546 1.379 . S
C552 C549 1.363 . S
C552 N550 1.356 . S
C553 C547 1.363 . S
C553 C548 1.379 . S
C553 N551 1.356 . S
N554 C546 1.356 . S
N554 H560 0.984 . S
N554 H561 0.984 . S
N555 C548 1.356 1_556 S
N555 H558 0.984 . S
N555 H559 0.985 . S
H556 N551 0.984 . S
H557 N551 0.985 . S
H558 N555 0.984 . S
H559 N555 0.985 . S
H560 N554 0.984 . S
H561 N554 0.984 . S
H562 N550 0.984 . S
H563 N550 0.985 . S
C564 C565 1.363 . S
C564 C570 1.379 . S
C564 N572 1.356 . S
C565 C564 1.363 . S
C565 C571 1.363 . S
C566 C567 1.363 . S
C566 C571 1.379 . S
C566 N573 1.356 . S
C567 C566 1.363 . S
C567 C570 1.363 . S
N568 C570 1.356 . S
N568 H580 0.984 . S
N568 H581 0.985 . S
N569 C571 1.356 . S
N569 H574 0.984 . S
N569 H575 0.985 . S
C570 C564 1.379 . S
C570 C567 1.363 . S
C570 N568 1.356 . S
C571 C565 1.363 . S
C571 C566 1.379 . S
C571 N569 1.356 . S
N572 C564 1.356 . S
N572 H578 0.984 . S
N572 H579 0.984 . S
N573 C566 1.356 . S
N573 H576 0.984 . S
N573 H577 0.985 . S
H574 N569 0.984 . S
H575 N569 0.985 . S
H576 N573 0.984 . S
H577 N573 0.985 . S
H578 N572 0.984 . S
H579 N572 0.984 . S
H580 N568 0.984 . S
H581 N568 0.985 . S
C582 C583 1.363 . S
C582 C588 1.379 . S
C582 N590 1.356 . S
C583 C582 1.363 . S
C583 C589 1.363 . S
C584 C585 1.363 . S
C584 C589 1.379 . S
C584 N591 1.356 . S
C585 C584 1.363 . S
C585 C588 1.363 . S
N586 C588 1.356 . S
N586 H598 0.984 . S
N586 H599 0.985 . S
N587 C589 1.356 . S
N587 H592 0.984 . S
N587 H593 0.985 . S
C588 C582 1.379 . S
C588 C585 1.363 . S
C588 N586 1.356 . S
C589 C583 1.363 . S
C589 C584 1.379 . S
C589 N587 1.356 . S
N590 C582 1.356 . S
N590 H596 0.984 . S
N590 H597 0.984 . S
N591 C584 1.356 . S
N591 H594 0.984 . S
N591 H595 0.985 . S
H592 N587 0.984 . S
H593 N587 0.985 . S
H594 N591 0.984 . S
H595 N591 0.985 . S
H596 N590 0.984 . S
H597 N590 0.984 . S
H598 N586 0.984 . S
H599 N586 0.985 . S
C169 C138 1.362 . S
C171 C12 1.362 . S
C187 C26 1.362 . S
C189 C152 1.362 . S
C205 C166 1.362 . S
C207 C40 1.362 . S
C223 C96 1.362 . S
C225 C54 1.362 . S
C241 C110 1.362 . S
C243 C68 1.362 . S
C259 C124 1.362 . S
C261 C82 1.362 . S
C277 C95 1.467 . S
C279 C11 1.467 . S
C295 C25 1.467 . S
C297 C109 1.467 . S
C313 C123 1.467 . S
C315 C39 1.467 . S
C331 C53 1.467 . S
C333 C137 1.467 . S
C349 C151 1.467 . S
C351 C67 1.467 . S
C367 C81 1.467 . S
C369 C165 1.467 . S
C385 C130 1.192 . S
C387 C4 1.192 . S
C403 C144 1.192 . S
C405 C18 1.192 . S
C421 C158 1.192 . S
C423 C32 1.192 . S
C439 C46 1.192 . S
C441 C88 1.192 . S
C457 C102 1.192 . S
C459 C60 1.192 . S
C475 C74 1.192 . S
C477 C116 1.192 . S
C493 C5 1.384 . S
C495 C117 1.384 . S
C511 C131 1.384 . S
C513 C19 1.384 . S
C529 C145 1.384 1_556 S
C531 C33 1.384 . S
C547 C159 1.384 . S
C549 C47 1.384 1_554 S
C565 C89 1.384 . S
C567 C61 1.384 . S
C583 C103 1.384 . S
C585 C75 1.384 . S
