# Generated by pormake.
# Topology unp, (4)-cn, num edge types: 1
# Building blocks:
#     Node 0, Type 0, BuildingBlock: CEKHIL_clean_sbu_0, # of connection points: 4
#     Node 1, Type 0, BuildingBlock: CEKHIL_clean_sbu_0, # of connection points: 4
#     Node 2, Type 0, BuildingBlock: CEKHIL_clean_sbu_0, # of connection points: 4
#     Node 3, Type 0, BuildingBlock: CEKHIL_clean_sbu_0, # of connection points: 4
#     Node 4, Type 0, BuildingBlock: CEKHIL_clean_sbu_0, # of connection points: 4
#     Node 5, Type 0, BuildingBlock: CEKHIL_clean_sbu_0, # of connection points: 4
#     Node 6, Type 0, BuildingBlock: CEKHIL_clean_sbu_0, # of connection points: 4
#     Node 7, Type 0, BuildingBlock: CEKHIL_clean_sbu_0, # of connection points: 4
#     Node 8, Type 0, BuildingBlock: CEKHIL_clean_sbu_0, # of connection points: 4
#     Node 9, Type 0, BuildingBlock: CEKHIL_clean_sbu_0, # of connection points: 4
#     Node 10, Type 0, BuildingBlock: CEKHIL_clean_sbu_0, # of connection points: 4
#     Node 11, Type 0, BuildingBlock: CEKHIL_clean_sbu_0, # of connection points: 4
#     Node 12, Type 0, BuildingBlock: CEKHIL_clean_sbu_0, # of connection points: 4
#     Node 13, Type 0, BuildingBlock: CEKHIL_clean_sbu_0, # of connection points: 4
#     Node 14, Type 0, BuildingBlock: CEKHIL_clean_sbu_0, # of connection points: 4
#     Node 15, Type 0, BuildingBlock: CEKHIL_clean_sbu_0, # of connection points: 4
#     Node 16, Type 0, BuildingBlock: CEKHIL_clean_sbu_0, # of connection points: 4
#     Node 17, Type 0, BuildingBlock: CEKHIL_clean_sbu_0, # of connection points: 4
#     Edge 18, Type (0, 0), BuildingBlock: KIFKEQ_clean_linker_1, # of connection points: 2
#     Edge 19, Type (0, 0), BuildingBlock: KIFKEQ_clean_linker_1, # of connection points: 2
#     Edge 20, Type (0, 0), BuildingBlock: KIFKEQ_clean_linker_1, # of connection points: 2
#     Edge 21, Type (0, 0), BuildingBlock: KIFKEQ_clean_linker_1, # of connection points: 2
#     Edge 22, Type (0, 0), BuildingBlock: KIFKEQ_clean_linker_1, # of connection points: 2
#     Edge 23, Type (0, 0), BuildingBlock: KIFKEQ_clean_linker_1, # of connection points: 2
#     Edge 24, Type (0, 0), BuildingBlock: KIFKEQ_clean_linker_1, # of connection points: 2
#     Edge 25, Type (0, 0), BuildingBlock: KIFKEQ_clean_linker_1, # of connection points: 2
#     Edge 26, Type (0, 0), BuildingBlock: KIFKEQ_clean_linker_1, # of connection points: 2
#     Edge 27, Type (0, 0), BuildingBlock: KIFKEQ_clean_linker_1, # of connection points: 2
#     Edge 28, Type (0, 0), BuildingBlock: KIFKEQ_clean_linker_1, # of connection points: 2
#     Edge 29, Type (0, 0), BuildingBlock: KIFKEQ_clean_linker_1, # of connection points: 2
#     Edge 30, Type (0, 0), BuildingBlock: KIFKEQ_clean_linker_1, # of connection points: 2
#     Edge 31, Type (0, 0), BuildingBlock: KIFKEQ_clean_linker_1, # of connection points: 2
#     Edge 32, Type (0, 0), BuildingBlock: KIFKEQ_clean_linker_1, # of connection points: 2
#     Edge 33, Type (0, 0), BuildingBlock: KIFKEQ_clean_linker_1, # of connection points: 2
#     Edge 34, Type (0, 0), BuildingBlock: KIFKEQ_clean_linker_1, # of connection points: 2
#     Edge 35, Type (0, 0), BuildingBlock: KIFKEQ_clean_linker_1, # of connection points: 2
#     Edge 36, Type (0, 0), BuildingBlock: KIFKEQ_clean_linker_1, # of connection points: 2
#     Edge 37, Type (0, 0), BuildingBlock: KIFKEQ_clean_linker_1, # of connection points: 2
#     Edge 38, Type (0, 0), BuildingBlock: KIFKEQ_clean_linker_1, # of connection points: 2
#     Edge 39, Type (0, 0), BuildingBlock: KIFKEQ_clean_linker_1, # of connection points: 2
#     Edge 40, Type (0, 0), BuildingBlock: KIFKEQ_clean_linker_1, # of connection points: 2
#     Edge 41, Type (0, 0), BuildingBlock: KIFKEQ_clean_linker_1, # of connection points: 2
#     Edge 42, Type (0, 0), BuildingBlock: KIFKEQ_clean_linker_1, # of connection points: 2
#     Edge 43, Type (0, 0), BuildingBlock: KIFKEQ_clean_linker_1, # of connection points: 2
#     Edge 44, Type (0, 0), BuildingBlock: KIFKEQ_clean_linker_1, # of connection points: 2
#     Edge 45, Type (0, 0), BuildingBlock: KIFKEQ_clean_linker_1, # of connection points: 2
#     Edge 46, Type (0, 0), BuildingBlock: KIFKEQ_clean_linker_1, # of connection points: 2
#     Edge 47, Type (0, 0), BuildingBlock: KIFKEQ_clean_linker_1, # of connection points: 2
#     Edge 48, Type (0, 0), BuildingBlock: KIFKEQ_clean_linker_1, # of connection points: 2
#     Edge 49, Type (0, 0), BuildingBlock: KIFKEQ_clean_linker_1, # of connection points: 2
#     Edge 50, Type (0, 0), BuildingBlock: KIFKEQ_clean_linker_1, # of connection points: 2
#     Edge 51, Type (0, 0), BuildingBlock: KIFKEQ_clean_linker_1, # of connection points: 2
#     Edge 52, Type (0, 0), BuildingBlock: KIFKEQ_clean_linker_1, # of connection points: 2
#     Edge 53, Type (0, 0), BuildingBlock: KIFKEQ_clean_linker_1, # of connection points: 2
# Relax obj value: 0.423
# Max RMSD: 0.186
# Mean RMSD: 0.186
data_MOF--net-unp--node1-CEKHIL_clean_sbu_0--edge1-KIFKEQ_clean_linker_1
_symmetry_space_group_name_H-M    P1
_symmetry_Int_Tables_number       1
_symmetry_cell_setting            triclinic
loop_
_symmetry_equiv_pos_as_xyz
'x, y, z'
_cell_length_a     49.185959
_cell_length_b     49.188549
_cell_length_c     54.893725
_cell_angle_alpha  90.064311
_cell_angle_beta   89.95694
_cell_angle_gamma 119.98604
loop_
_atom_site_label
_atom_site_type_symbol
_atom_site_fract_x
_atom_site_fract_y
_atom_site_fract_z
_atom_type_partial_charge
Co0 Co 0.18284 0.14116 0.14925 0.0
O1 O 0.2267 0.16026 0.15634 0.0
O2 O 0.1989 0.18459 0.15814 0.0
C3 C 0.16732 0.09621 0.16998 0.0
O4 O 0.13708 0.1287 0.14491 0.0
Co5 Co 0.14791 0.07854 0.12036 0.0
O6 O 0.11006 0.07787 0.13405 0.0
C7 C 0.19077 0.13727 0.09479 0.0
C8 C 0.22573 0.18572 0.16063 0.0
C9 C 0.11113 0.10278 0.14199 0.0
O10 O 0.19227 0.15342 0.11375 0.0
O11 O 0.17696 0.10726 0.09467 0.0
O12 O 0.1719 0.12128 0.18154 0.0
O13 O 0.17543 0.10027 0.1474 0.0
Co14 Co 0.85274 0.03033 0.13176 0.0
O15 O 0.8348 0.05648 0.12551 0.0
O16 O 0.81016 0.01001 0.1437 0.0
C17 C 0.89875 0.06858 0.14675 0.0
O18 O 0.86343 0.99704 0.14224 0.0
Co19 Co 0.91438 0.04095 0.10744 0.0
O20 O 0.91441 0.01444 0.1347 0.0
C21 C 0.85413 0.00921 0.08014 0.0
C22 C 0.80965 0.03476 0.13607 0.0
C23 C 0.8886 0.99555 0.14507 0.0
O24 O 0.83854 0.01007 0.09869 0.0
O25 O 0.884 0.0212 0.07991 0.0
O26 O 0.87427 0.05487 0.16083 0.0
O27 O 0.894 0.06048 0.12415 0.0
Co28 Co 0.95432 0.81698 0.13855 0.0
O29 O 0.93176 0.77212 0.13729 0.0
O30 O 0.98316 0.80155 0.14339 0.0
C31 C 0.92116 0.82307 0.16333 0.0
O32 O 0.98538 0.86368 0.14202 0.0
Co33 Co 0.92475 0.85499 0.11801 0.0
O34 O 0.96081 0.89095 0.13447 0.0
C35 C 0.94521 0.82195 0.08458 0.0
C36 C 0.95863 0.77379 0.14094 0.0
C37 C 0.9845 0.8894 0.14209 0.0
O38 O 0.96045 0.81818 0.10205 0.0
O39 O 0.92699 0.83323 0.08782 0.0
O40 O 0.94197 0.81708 0.1725 0.0
O41 O 0.91899 0.82168 0.1399 0.0
Co42 Co 0.14572 0.17996 0.87569 0.0
O43 O 0.16415 0.22445 0.87987 0.0
O44 O 0.18777 0.20082 0.86272 0.0
C45 C 0.09905 0.17046 0.86092 0.0
O46 O 0.13418 0.13517 0.86716 0.0
Co47 Co 0.08572 0.13215 0.9036 0.0
O48 O 0.08421 0.10262 0.87824 0.0
C49 C 0.14722 0.16288 0.92868 0.0
C50 C 0.18884 0.22674 0.86928 0.0
C51 C 0.1089 0.10823 0.8666 0.0
O52 O 0.16151 0.17672 0.90892 0.0
O53 O 0.1174 0.14547 0.93042 0.0
O54 O 0.1232 0.18066 0.84654 0.0
O55 O 0.10472 0.1696 0.88375 0.0
Co56 Co 0.81598 0.95284 0.85702 0.0
O57 O 0.77124 0.92847 0.85518 0.0
O58 O 0.79924 0.98031 0.85075 0.0
C59 C 0.82692 0.92209 0.83335 0.0
O60 O 0.86236 0.98566 0.857 0.0
Co61 Co 0.85427 0.92496 0.88034 0.0
O62 O 0.89058 0.96227 0.86533 0.0
C63 C 0.81588 0.94189 0.91117 0.0
C64 C 0.77194 0.95487 0.8515 0.0
C65 C 0.88862 0.98593 0.85825 0.0
O66 O 0.8128 0.95715 0.89337 0.0
O67 O 0.82878 0.92496 0.90888 0.0
O68 O 0.82071 0.94234 0.82336 0.0
O69 O 0.8228 0.9189 0.85657 0.0
Co70 Co 0.0369 0.85872 0.86316 0.0
O71 O 0.05979 0.83733 0.86936 0.0
O72 O 0.01332 0.81615 0.85119 0.0
C73 C 0.07731 0.90304 0.84785 0.0
O74 O 0.00676 0.87362 0.85263 0.0
Co75 Co 0.05391 0.92182 0.88852 0.0
O76 O 0.02693 0.92434 0.86284 0.0
C77 C 0.01788 0.86191 0.91533 0.0
C78 C 0.03674 0.8132 0.85879 0.0
C79 C 0.00696 0.89988 0.85141 0.0
O80 O 0.01639 0.84581 0.89634 0.0
O81 O 0.03281 0.89194 0.91603 0.0
O82 O 0.06196 0.87858 0.83396 0.0
O83 O 0.06976 0.89886 0.87058 0.0
Co84 Co 0.84791 0.47794 0.4728 0.0
O85 O 0.89267 0.49799 0.47335 0.0
O86 O 0.86498 0.52001 0.48554 0.0
C87 C 0.83751 0.43172 0.48899 0.0
O88 O 0.80159 0.46405 0.47545 0.0
Co89 Co 0.80914 0.41807 0.44129 0.0
O90 O 0.77322 0.41524 0.4602 0.0
C91 C 0.847 0.47961 0.41798 0.0
C92 C 0.89221 0.52236 0.48192 0.0
C93 C 0.77533 0.43862 0.47196 0.0
O94 O 0.84993 0.49343 0.4385 0.0
O95 O 0.8345 0.44985 0.41567 0.0
O96 O 0.84414 0.45541 0.50321 0.0
O97 O 0.84103 0.43793 0.46604 0.0
Co98 Co 0.51926 0.36743 0.45785 0.0
O99 O 0.50083 0.39344 0.45328 0.0
O100 O 0.47622 0.34536 0.46881 0.0
C101 C 0.56434 0.40448 0.47498 0.0
O102 O 0.53056 0.33394 0.4663 0.0
Co103 Co 0.58195 0.3816 0.43337 0.0
O104 O 0.58202 0.35342 0.45924 0.0
C105 C 0.52269 0.35146 0.40491 0.0
C106 C 0.47549 0.37051 0.46268 0.0
C107 C 0.55618 0.33322 0.46887 0.0
O108 O 0.50649 0.35022 0.42374 0.0
O109 O 0.55262 0.36396 0.40495 0.0
O110 O 0.53923 0.38923 0.48821 0.0
O111 O 0.56065 0.39881 0.45192 0.0
Co112 Co 0.62254 0.14983 0.46923 0.0
O113 O 0.59839 0.10503 0.47042 0.0
O114 O 0.64994 0.13328 0.47642 0.0
C115 C 0.5903 0.15975 0.49202 0.0
O116 O 0.65508 0.19624 0.47036 0.0
Co117 Co 0.59552 0.18819 0.44485 0.0
O118 O 0.63237 0.22455 0.46024 0.0
C119 C 0.61363 0.15016 0.41487 0.0
C120 C 0.62469 0.10589 0.47502 0.0
C121 C 0.65546 0.2225 0.46863 0.0
O122 O 0.62864 0.14744 0.43303 0.0
O123 O 0.59627 0.16263 0.41666 0.0
O124 O 0.61036 0.1537 0.50254 0.0
O125 O 0.58832 0.15635 0.46869 0.0
Co126 Co 0.81788 0.51912 0.19527 0.0
O127 O 0.83841 0.56394 0.19587 0.0
O128 O 0.86015 0.53629 0.18299 0.0
C129 C 0.7722 0.50991 0.17873 0.0
O130 O 0.80361 0.47286 0.1913 0.0
Co131 Co 0.75711 0.47927 0.22554 0.0
O132 O 0.75418 0.44427 0.20528 0.0
C133 C 0.81813 0.51551 0.25003 0.0
C134 C 0.86275 0.56352 0.18718 0.0
C135 C 0.77779 0.44667 0.1937 0.0
O136 O 0.83248 0.51944 0.22963 0.0
O137 O 0.78833 0.50302 0.25193 0.0
O138 O 0.79621 0.51698 0.16475 0.0
O139 O 0.77782 0.51232 0.20178 0.0
Co140 Co 0.4864 0.29849 0.18105 0.0
O141 O 0.44192 0.27557 0.17646 0.0
O142 O 0.47144 0.32761 0.17538 0.0
C143 C 0.49793 0.26841 0.15697 0.0
O144 O 0.53298 0.33007 0.18361 0.0
Co145 Co 0.52062 0.26691 0.20529 0.0
O146 O 0.55891 0.3046 0.19288 0.0
C147 C 0.48247 0.28483 0.2353 0.0
C148 C 0.44383 0.30268 0.1739 0.0
C149 C 0.55854 0.32917 0.18597 0.0
O150 O 0.48044 0.30055 0.21736 0.0
O151 O 0.49475 0.2673 0.23336 0.0
O152 O 0.49369 0.29019 0.14737 0.0
O153 O 0.4919 0.26366 0.17991 0.0
Co154 Co 0.69942 0.1887 0.19364 0.0
O155 O 0.72467 0.16951 0.19854 0.0
O156 O 0.67787 0.14649 0.18078 0.0
C157 C 0.73817 0.23467 0.17908 0.0
O158 O 0.66695 0.20123 0.18451 0.0
Co159 Co 0.71266 0.24992 0.2203 0.0
O160 O 0.68643 0.25218 0.19378 0.0
C161 C 0.68012 0.18876 0.24612 0.0
C162 C 0.70236 0.145 0.18775 0.0
C163 C 0.66672 0.22721 0.1828 0.0
O164 O 0.6797 0.17371 0.2268 0.0
O165 O 0.69303 0.21869 0.2473 0.0
O166 O 0.72362 0.21069 0.16461 0.0
O167 O 0.73064 0.22934 0.20178 0.0
Co168 Co 0.51238 0.80781 0.80321 0.0
O169 O 0.55701 0.82689 0.80061 0.0
O170 O 0.53172 0.85099 0.81372 0.0
C171 C 0.50307 0.7629 0.82128 0.0
O172 O 0.46692 0.79555 0.80914 0.0
Co173 Co 0.46832 0.74537 0.77627 0.0
O174 O 0.43557 0.74547 0.79753 0.0
C175 C 0.50362 0.80422 0.74861 0.0
C176 C 0.55817 0.8523 0.80863 0.0
C177 C 0.43996 0.77034 0.80832 0.0
O178 O 0.51055 0.82019 0.76849 0.0
O179 O 0.48971 0.77419 0.74809 0.0
O180 O 0.51187 0.78803 0.83434 0.0
O181 O 0.50367 0.76683 0.79805 0.0
Co182 Co 0.19238 0.70892 0.80368 0.0
O183 O 0.17182 0.7328 0.79836 0.0
O184 O 0.14911 0.68474 0.81391 0.0
C185 C 0.23606 0.74735 0.82149 0.0
O186 O 0.20611 0.67742 0.81273 0.0
Co187 Co 0.25685 0.72759 0.77989 0.0
O188 O 0.25714 0.69737 0.80364 0.0
C189 C 0.19842 0.69416 0.75086 0.0
C190 C 0.1469 0.70897 0.80739 0.0
C191 C 0.2319 0.67671 0.81381 0.0
O192 O 0.1813 0.69137 0.7695 0.0
O193 O 0.22847 0.70903 0.75118 0.0
O194 O 0.21071 0.73113 0.83428 0.0
O195 O 0.23309 0.74201 0.79839 0.0
Co196 Co 0.28712 0.4834 0.80545 0.0
O197 O 0.26209 0.43859 0.80536 0.0
O198 O 0.31264 0.46563 0.81526 0.0
C199 C 0.25305 0.49355 0.82521 0.0
O200 O 0.32009 0.52952 0.80863 0.0
Co201 Co 0.26469 0.52416 0.77846 0.0
O202 O 0.29882 0.55884 0.79758 0.0
C203 C 0.28535 0.48649 0.75066 0.0
C204 C 0.28729 0.43859 0.81238 0.0
C205 C 0.32074 0.55596 0.80743 0.0
O206 O 0.2977 0.48245 0.76998 0.0
O207 O 0.26845 0.49956 0.75077 0.0
O208 O 0.271 0.48612 0.83748 0.0
O209 O 0.25385 0.491 0.80189 0.0
Co210 Co 0.47237 0.85079 0.52814 0.0
O211 O 0.49257 0.89561 0.52791 0.0
O212 O 0.51609 0.86801 0.51984 0.0
C213 C 0.42924 0.84072 0.50675 0.0
O214 O 0.45903 0.8046 0.52588 0.0
Co215 Co 0.4081 0.81121 0.55392 0.0
O216 O 0.40852 0.77548 0.53725 0.0
C217 C 0.46541 0.84672 0.58314 0.0
C218 C 0.51803 0.89522 0.5223 0.0
C219 C 0.4335 0.77809 0.52797 0.0
O220 O 0.48226 0.85193 0.5639 0.0
O221 O 0.43545 0.83362 0.58262 0.0
O222 O 0.45516 0.84775 0.49543 0.0
O223 O 0.43144 0.84366 0.53012 0.0
Co224 Co 0.15049 0.62306 0.52841 0.0
O225 O 0.10573 0.59803 0.52982 0.0
O226 O 0.1323 0.64928 0.52229 0.0
C227 C 0.15882 0.59002 0.50527 0.0
O228 O 0.19642 0.65642 0.52482 0.0
Co229 Co 0.19328 0.59911 0.5496 0.0
O230 O 0.22623 0.63397 0.52982 0.0
C231 C 0.1578 0.6179 0.58245 0.0
C232 C 0.10542 0.62377 0.52531 0.0
C233 C 0.22267 0.65679 0.52309 0.0
O234 O 0.15148 0.63074 0.56458 0.0
O235 O 0.17161 0.60185 0.57975 0.0
O236 O 0.1514 0.60924 0.49497 0.0
O237 O 0.15803 0.58959 0.52871 0.0
Co238 Co 0.3672 0.52192 0.52817 0.0
O239 O 0.39215 0.50214 0.53129 0.0
O240 O 0.34496 0.48035 0.51419 0.0
C241 C 0.40538 0.56856 0.51428 0.0
O242 O 0.33511 0.53544 0.52065 0.0
Co243 Co 0.38192 0.58137 0.55823 0.0
O244 O 0.35355 0.58472 0.53419 0.0
C245 C 0.35167 0.51922 0.58194 0.0
C246 C 0.36937 0.47822 0.52029 0.0
C247 C 0.33418 0.56112 0.52161 0.0
O248 O 0.34814 0.50537 0.56131 0.0
O249 O 0.3661 0.54904 0.58466 0.0
O250 O 0.39075 0.54513 0.49932 0.0
O251 O 0.3988 0.56205 0.53701 0.0
H252 H 0.41302 0.31366 0.20967 0.0
H253 H 0.40918 0.29212 0.1332 0.0
H254 H 0.35695 0.29675 0.20914 0.0
H255 H 0.35339 0.27576 0.13242 0.0
H256 H 0.26563 0.19331 0.19688 0.0
H257 H 0.31927 0.23649 0.20165 0.0
H258 H 0.30562 0.28532 0.14178 0.0
H259 H 0.25111 0.24217 0.13766 0.0
C260 C 0.40049 0.30696 0.19249 0.0
C261 C 0.41507 0.30423 0.17143 0.0
C262 C 0.3685 0.29723 0.19219 0.0
C263 C 0.35091 0.28485 0.17077 0.0
C264 C 0.36648 0.28558 0.14909 0.0
C265 C 0.39833 0.29484 0.1495 0.0
C266 C 0.27375 0.21388 0.18544 0.0
C267 C 0.25457 0.21468 0.16697 0.0
C268 C 0.30433 0.23867 0.18823 0.0
C269 C 0.3165 0.26424 0.1721 0.0
C270 C 0.29662 0.26595 0.15454 0.0
C271 C 0.26558 0.24141 0.15221 0.0
H272 H 0.79257 0.07108 0.11058 0.0
H273 H 0.76744 0.01027 0.17329 0.0
H274 H 0.75556 0.08771 0.12333 0.0
H275 H 0.73087 0.02761 0.1864 0.0
H276 H 0.73539 0.12427 0.21348 0.0
H277 H 0.75113 0.08687 0.19996 0.0
H278 H 0.69576 0.06881 0.13469 0.0
H279 H 0.67922 0.10577 0.1486 0.0
C280 C 0.77855 0.06073 0.12677 0.0
C281 C 0.78302 0.03969 0.1411 0.0
C282 C 0.75722 0.07005 0.13395 0.0
C283 C 0.7405 0.05895 0.15585 0.0
C284 C 0.74349 0.03639 0.16941 0.0
C285 C 0.76435 0.0265 0.16191 0.0
C286 C 0.72583 0.11159 0.19661 0.0
C287 C 0.70635 0.118 0.18196 0.0
C288 C 0.73464 0.09005 0.18896 0.0
C289 C 0.72466 0.07509 0.16628 0.0
C290 C 0.70364 0.08005 0.15228 0.0
C291 C 0.69419 0.10109 0.16024 0.0
H292 H 0.88847 0.61625 0.21426 0.0
H293 H 0.90068 0.57735 0.14742 0.0
H294 H 0.92734 0.66872 0.20091 0.0
H295 H 0.93923 0.63037 0.13356 0.0
H296 H 0.92706 0.72109 0.11418 0.0
H297 H 0.9184 0.66924 0.12451 0.0
H298 H 0.9835 0.70908 0.18446 0.0
H299 H 0.99288 0.76149 0.17354 0.0
C300 C 0.90031 0.61896 0.19702 0.0
C301 C 0.89144 0.5931 0.18165 0.0
C302 C 0.9228 0.64891 0.18947 0.0
C303 C 0.93615 0.65355 0.16616 0.0
C304 C 0.92931 0.6273 0.15165 0.0
C305 C 0.90728 0.5971 0.15952 0.0
C306 C 0.94045 0.7189 0.12896 0.0
C307 C 0.96024 0.74494 0.14332 0.0
C308 C 0.93576 0.6893 0.13473 0.0
C309 C 0.95019 0.68521 0.15536 0.0
C310 C 0.97223 0.71175 0.16842 0.0
C311 C 0.97752 0.7416 0.16222 0.0
H312 H 0.31663 0.42682 0.84955 0.0
H313 H 0.2543 0.38353 0.78853 0.0
H314 H 0.30399 0.37471 0.86447 0.0
H315 H 0.24253 0.33187 0.80288 0.0
H316 H 0.22912 0.24176 0.831 0.0
H317 H 0.26546 0.29479 0.81606 0.0
H318 H 0.24512 0.33407 0.87913 0.0
H319 H 0.20831 0.28133 0.89367 0.0
C320 C 0.30123 0.40625 0.83888 0.0
C321 C 0.28607 0.40888 0.81812 0.0
C322 C 0.29405 0.37658 0.84738 0.0
C323 C 0.27236 0.34945 0.83477 0.0
C324 C 0.2596 0.35246 0.81276 0.0
C325 C 0.26611 0.38194 0.80467 0.0
C326 C 0.23321 0.26176 0.84199 0.0
C327 C 0.21568 0.25766 0.86326 0.0
C328 C 0.25398 0.29198 0.83348 0.0
C329 C 0.25799 0.31834 0.84649 0.0
C330 C 0.24268 0.31409 0.86893 0.0
C331 C 0.22142 0.28397 0.87712 0.0
H332 H 0.72015 0.92549 0.87929 0.0
H333 H 0.75764 0.98369 0.81547 0.0
H334 H 0.66753 0.91433 0.86845 0.0
H335 H 0.70443 0.97161 0.80401 0.0
H336 H 0.61023 0.87278 0.78107 0.0
H337 H 0.66348 0.91255 0.7921 0.0
H338 H 0.62833 0.93467 0.85679 0.0
H339 H 0.57455 0.89522 0.84524 0.0
C340 C 0.71711 0.93668 0.86335 0.0
C341 C 0.74257 0.95513 0.84804 0.0
C342 C 0.6871 0.93056 0.85725 0.0
C343 C 0.68201 0.94209 0.83538 0.0
C344 C 0.70791 0.96266 0.82104 0.0
C345 C 0.73819 0.96949 0.82754 0.0
C346 C 0.61381 0.88692 0.79719 0.0
C347 C 0.58859 0.88078 0.81255 0.0
C348 C 0.6442 0.90991 0.80336 0.0
C349 C 0.64991 0.92657 0.82531 0.0
C350 C 0.62439 0.92219 0.8397 0.0
C351 C 0.59376 0.89964 0.83317 0.0
H352 H 0.10412 0.68102 0.84387 0.0
H353 H 0.12658 0.74245 0.78181 0.0
H354 H 0.06505 0.69506 0.85708 0.0
H355 H 0.0872 0.7558 0.7946 0.0
H356 H 0.01239 0.77365 0.81994 0.0
H357 H 0.02815 0.73615 0.806 0.0
H358 H 0.0826 0.75267 0.87161 0.0
H359 H 0.06755 0.79052 0.88519 0.0
C360 C 0.09985 0.69657 0.8326 0.0
C361 C 0.11854 0.71104 0.81204 0.0
C362 C 0.07757 0.70457 0.84015 0.0
C363 C 0.07322 0.72651 0.82686 0.0
C364 C 0.08985 0.73857 0.80504 0.0
C365 C 0.11255 0.73115 0.79782 0.0
C366 C 0.02684 0.7684 0.83171 0.0
C367 C 0.03916 0.78517 0.85346 0.0
C368 C 0.03584 0.74702 0.82373 0.0
C369 C 0.05662 0.74166 0.83772 0.0
C370 C 0.06632 0.75614 0.86059 0.0
C371 C 0.05792 0.77797 0.86828 0.0
H372 H 0.94412 0.54885 0.45405 0.0
H373 H 0.90683 0.55946 0.5223 0.0
H374 H 0.99682 0.58809 0.46674 0.0
H375 H 0.96012 0.59837 0.53548 0.0
H376 H 0.05328 0.58946 0.55211 0.0
H377 H 0.00042 0.57865 0.54275 0.0
H378 H 0.03669 0.64465 0.48316 0.0
H379 H 0.09012 0.65619 0.49309 0.0
C380 C 0.94722 0.56041 0.47149 0.0
C381 C 0.92179 0.55105 0.48739 0.0
C382 C 0.97729 0.58308 0.47866 0.0
C383 C 0.98247 0.59613 0.50212 0.0
C384 C 0.9566 0.58869 0.51727 0.0
C385 C 0.92626 0.56647 0.50979 0.0
C386 C 0.05005 0.60246 0.53756 0.0
C387 C 0.07544 0.62322 0.52304 0.0
C388 C 0.01988 0.59656 0.53238 0.0
C389 C 0.01454 0.61078 0.5122 0.0
C390 C 0.04033 0.63355 0.49888 0.0
C391 C 0.07075 0.64005 0.50449 0.0
H392 H 0.40171 0.45556 0.54456 0.0
H393 H 0.3452 0.44057 0.48039 0.0
H394 H 0.41644 0.41807 0.52936 0.0
H395 H 0.36073 0.40352 0.46479 0.0
H396 H 0.43304 0.34346 0.49946 0.0
H397 H 0.39602 0.3596 0.5139 0.0
H398 H 0.42025 0.42267 0.45276 0.0
H399 H 0.45769 0.40724 0.43873 0.0
C400 C 0.39184 0.4436 0.52748 0.0
C401 C 0.37263 0.45108 0.51349 0.0
C402 C 0.40005 0.42199 0.51888 0.0
C403 C 0.38973 0.40804 0.49591 0.0
C404 C 0.36886 0.41397 0.4826 0.0
C405 C 0.36 0.43508 0.49151 0.0
C406 C 0.42969 0.36005 0.48875 0.0
C407 C 0.44839 0.37445 0.46818 0.0
C408 C 0.40859 0.36925 0.49701 0.0
C409 C 0.40539 0.39234 0.48442 0.0
C410 C 0.42205 0.40458 0.46264 0.0
C411 C 0.44363 0.39595 0.45472 0.0
H412 H 0.59558 0.05325 0.44804 0.0
H413 H 0.65323 0.0927 0.51193 0.0
H414 H 0.58383 0.00092 0.46037 0.0
H415 H 0.64056 0.03984 0.52488 0.0
H416 H 0.56163 0.90845 0.48676 0.0
H417 H 0.60266 0.9612 0.47434 0.0
H418 H 0.58101 0.00061 0.53668 0.0
H419 H 0.53967 0.94841 0.5485 0.0
C420 C 0.60657 0.0507 0.46431 0.0
C421 C 0.62496 0.07664 0.47923 0.0
C422 C 0.60012 0.02085 0.47126 0.0
C423 C 0.61124 0.01643 0.4936 0.0
C424 C 0.63191 0.04278 0.5075 0.0
C425 C 0.63908 0.07288 0.50015 0.0
C426 C 0.56652 0.92837 0.49818 0.0
C427 C 0.54738 0.92475 0.51828 0.0
C428 C 0.58996 0.9584 0.49115 0.0
C429 C 0.59491 0.98484 0.50458 0.0
C430 C 0.57794 0.98061 0.52617 0.0
C431 C 0.55407 0.95082 0.53279 0.0
H432 H 0.05382 0.05089 0.14973 0.0
H433 H 0.10134 0.15228 0.14948 0.0
H434 H 0.00444 0.04895 0.15907 0.0
H435 H 0.05176 0.15022 0.15882 0.0
H436 H 0.9492 0.11836 0.12727 0.0
H437 H 0.00349 0.13115 0.13241 0.0
H438 H 0.97532 0.06325 0.19056 0.0
H439 H 0.92079 0.05092 0.18563 0.0
C440 C 0.05377 0.07276 0.15179 0.0
C441 C 0.0814 0.10172 0.14846 0.0
C442 C 0.02557 0.07164 0.15752 0.0
C443 C 0.02433 0.09946 0.15981 0.0
C444 C 0.0521 0.12845 0.15717 0.0
C445 C 0.08041 0.12957 0.15172 0.0
C446 C 0.9549 0.10733 0.14195 0.0
C447 C 0.93101 0.08374 0.15607 0.0
C448 C 0.98595 0.11456 0.14486 0.0
C449 C 0.99351 0.09785 0.16165 0.0
C450 C 0.97002 0.0763 0.17737 0.0
C451 C 0.93893 0.06954 0.17477 0.0
H452 H 0.92566 0.99572 0.18199 0.0
H453 H 0.84752 0.93464 0.13632 0.0
H454 H 0.9264 0.95053 0.19923 0.0
H455 H 0.84999 0.88982 0.15091 0.0
H456 H 0.86142 0.8119 0.16582 0.0
H457 H 0.84677 0.85158 0.17297 0.0
H458 H 0.94318 0.91751 0.1929 0.0
H459 H 0.95568 0.87613 0.18952 0.0
C460 C 0.90858 0.9724 0.17576 0.0
C461 C 0.88664 0.96842 0.15783 0.0
C462 C 0.90915 0.94634 0.18537 0.0
C463 C 0.88881 0.91585 0.1763 0.0
C464 C 0.86587 0.91225 0.15907 0.0
C465 C 0.86452 0.93814 0.15031 0.0
C466 C 0.87883 0.8345 0.17305 0.0
C467 C 0.90978 0.84135 0.17659 0.0
C468 C 0.8708 0.85774 0.17649 0.0
C469 C 0.89415 0.88892 0.18177 0.0
C470 C 0.92422 0.89434 0.18841 0.0
C471 C 0.93165 0.87046 0.18643 0.0
H472 H 0.16862 0.04361 0.15899 0.0
H473 H 0.11438 0.07686 0.1975 0.0
H474 H 0.12361 0.99094 0.15825 0.0
H475 H 0.06894 0.02368 0.19713 0.0
H476 H 0.99071 0.94761 0.14741 0.0
H477 H 0.03566 0.99506 0.16289 0.0
H478 H 0.08396 0.94356 0.17683 0.0
H479 H 0.03923 0.8961 0.16073 0.0
C480 C 0.14738 0.03925 0.16834 0.0
C481 C 0.14489 0.06422 0.17822 0.0
C482 C 0.12148 0.00901 0.16789 0.0
C483 C 0.09243 0.00315 0.17724 0.0
C484 C 0.09087 0.02757 0.18942 0.0
C485 C 0.11701 0.05791 0.19003 0.0
C486 C 0.01088 0.94632 0.15378 0.0
C487 C 0.01156 0.91811 0.1523 0.0
C488 C 0.03653 0.9735 0.16303 0.0
C489 C 0.0635 0.97319 0.17111 0.0
C490 C 0.0637 0.94471 0.1705 0.0
C491 C 0.03806 0.9175 0.1612 0.0
H492 H 0.12832 0.95303 0.86668 0.0
H493 H 0.06023 0.92532 0.80883 0.0
H494 H 0.14173 0.00744 0.86163 0.0
H495 H 0.0732 0.97999 0.80397 0.0
H496 H 0.05832 0.0535 0.8514 0.0
H497 H 0.05816 0.00688 0.83634 0.0
H498 H 0.15953 0.05674 0.83712 0.0
H499 H 0.15977 0.10359 0.85232 0.0
C500 C 0.11736 0.95891 0.85206 0.0
C501 C 0.09324 0.93516 0.83821 0.0
C502 C 0.12499 0.99007 0.84915 0.0
C503 C 0.10816 0.99788 0.83264 0.0
C504 C 0.08638 0.97454 0.81693 0.0
C505 C 0.0792 0.94334 0.81953 0.0
C506 C 0.0806 0.05473 0.84793 0.0
C507 C 0.10905 0.08197 0.85359 0.0
C508 C 0.08052 0.02814 0.83897 0.0
C509 C 0.10887 0.02816 0.83564 0.0
C510 C 0.13736 0.05609 0.83961 0.0
C511 C 0.13746 0.08285 0.84835 0.0
H512 H 0.0464 0.16356 0.88201 0.0
H513 H 0.07907 0.13234 0.82095 0.0
H514 H 0.99307 0.12075 0.87507 0.0
H515 H 0.02557 0.08897 0.81416 0.0
H516 H 0.94644 0.9931 0.84894 0.0
H517 H 0.9956 0.04193 0.84239 0.0
H518 H 0.94636 0.0939 0.84669 0.0
H519 H 0.89703 0.04503 0.85326 0.0
C520 C 0.04188 0.14818 0.86653 0.0
C521 C 0.0667 0.15119 0.852 0.0
C522 C 0.01138 0.12367 0.86254 0.0
C523 C 0.00527 0.10138 0.84422 0.0
C524 C 0.02972 0.10578 0.82849 0.0
C525 C 0.06022 0.13075 0.8322 0.0
C526 C 0.946 0.01487 0.84822 0.0
C527 C 0.91789 0.01521 0.85201 0.0
C528 C 0.97411 0.04281 0.84416 0.0
C529 C 0.97475 0.07169 0.84402 0.0
C530 C 0.94649 0.07195 0.84679 0.0
C531 C 0.91829 0.04396 0.85057 0.0
H532 H 0.00185 0.95168 0.84192 0.0
H533 H 0.95474 0.85141 0.83001 0.0
H534 H 0.95643 0.95297 0.8263 0.0
H535 H 0.90934 0.85289 0.81376 0.0
H536 H 0.8269 0.86821 0.84177 0.0
H537 H 0.87133 0.86023 0.83623 0.0
H538 H 0.91905 0.94625 0.79471 0.0
H539 H 0.87422 0.95424 0.8006 0.0
C540 C 0.98205 0.92997 0.8355 0.0
C541 C 0.98162 0.9013 0.83787 0.0
C542 C 0.95607 0.93078 0.8262 0.0
C543 C 0.92903 0.90295 0.81901 0.0
C544 C 0.92963 0.87466 0.81948 0.0
C545 C 0.95567 0.87384 0.8288 0.0
C546 C 0.84628 0.88462 0.8305 0.0
C547 C 0.84732 0.91191 0.82179 0.0
C548 C 0.87183 0.88008 0.82726 0.0
C549 C 0.89906 0.90293 0.81541 0.0
C550 C 0.89858 0.92846 0.80424 0.0
C551 C 0.87276 0.93285 0.80732 0.0
H552 H 0.7185 0.38606 0.47979 0.0
H553 H 0.76621 0.48728 0.48457 0.0
H554 H 0.66893 0.38351 0.4897 0.0
H555 H 0.71646 0.48461 0.49441 0.0
H556 H 0.58367 0.38425 0.51402 0.0
H557 H 0.63771 0.39611 0.52116 0.0
H558 H 0.67026 0.46715 0.46516 0.0
H559 H 0.61646 0.45477 0.45772 0.0
C560 C 0.71848 0.40773 0.48329 0.0
C561 C 0.74615 0.43689 0.48094 0.0
C562 C 0.69017 0.40624 0.48929 0.0
C563 C 0.68891 0.43389 0.49281 0.0
C564 C 0.71684 0.46297 0.49176 0.0
C565 C 0.74525 0.46445 0.48608 0.0
C566 C 0.60259 0.40335 0.50408 0.0
C567 C 0.5961 0.41861 0.48528 0.0
C568 C 0.63342 0.40991 0.50798 0.0
C569 C 0.65807 0.43233 0.49355 0.0
C570 C 0.65179 0.44991 0.47666 0.0
C571 C 0.62102 0.44287 0.4724 0.0
H572 H 0.59305 0.33376 0.506 0.0
H573 H 0.51735 0.27208 0.4586 0.0
H574 H 0.59484 0.28902 0.52308 0.0
H575 H 0.52095 0.22773 0.47321 0.0
H576 H 0.53094 0.14961 0.4928 0.0
H577 H 0.51664 0.19001 0.49718 0.0
H578 H 0.61305 0.25682 0.5163 0.0
H579 H 0.62537 0.21508 0.5154 0.0
C580 C 0.57675 0.31043 0.49933 0.0
C581 C 0.55511 0.30614 0.48103 0.0
C582 C 0.57793 0.28467 0.50887 0.0
C583 C 0.55847 0.25419 0.49947 0.0
C584 C 0.53602 0.25022 0.48165 0.0
C585 C 0.53405 0.2758 0.4729 0.0
C586 C 0.54844 0.17264 0.49923 0.0
C587 C 0.57929 0.1795 0.50341 0.0
C588 C 0.54059 0.19621 0.5011 0.0
C589 C 0.56398 0.22759 0.50561 0.0
C590 C 0.59407 0.23337 0.51256 0.0
C591 C 0.60137 0.20931 0.51201 0.0
H592 H 0.83792 0.38097 0.47105 0.0
H593 H 0.79012 0.40906 0.5224 0.0
H594 H 0.79424 0.3273 0.47213 0.0
H595 H 0.746 0.35512 0.52346 0.0
H596 H 0.71277 0.23017 0.48123 0.0
H597 H 0.75932 0.27829 0.49451 0.0
H598 H 0.70793 0.32809 0.48956 0.0
H599 H 0.66136 0.2801 0.47657 0.0
C600 C 0.8186 0.37526 0.4834 0.0
C601 C 0.81729 0.39899 0.49663 0.0
C602 C 0.79352 0.34454 0.484 0.0
C603 C 0.76649 0.33712 0.4976 0.0
C604 C 0.76644 0.36031 0.51263 0.0
C605 C 0.79184 0.39104 0.5123 0.0
C606 C 0.71131 0.25132 0.48315 0.0
C607 C 0.68348 0.25139 0.47742 0.0
C608 C 0.73796 0.27884 0.49082 0.0
C609 C 0.73726 0.30692 0.49314 0.0
C610 C 0.7091 0.30672 0.4883 0.0
C611 C 0.68253 0.27929 0.48048 0.0
H612 H 0.78874 0.28407 0.19893 0.0
H613 H 0.72098 0.25836 0.14102 0.0
H614 H 0.80296 0.33886 0.19457 0.0
H615 H 0.73464 0.31339 0.13699 0.0
H616 H 0.82615 0.4372 0.18086 0.0
H617 H 0.82271 0.38792 0.1682 0.0
H618 H 0.72155 0.34215 0.17036 0.0
H619 H 0.72486 0.39124 0.18306 0.0
C620 C 0.77791 0.29045 0.18454 0.0
C621 C 0.75383 0.26719 0.17033 0.0
C622 C 0.78599 0.32179 0.18205 0.0
C623 C 0.76962 0.33027 0.16564 0.0
C624 C 0.7475 0.30738 0.14984 0.0
C625 C 0.73994 0.276 0.15196 0.0
C626 C 0.80317 0.41676 0.17823 0.0
C627 C 0.77577 0.41793 0.18341 0.0
C628 C 0.80125 0.38863 0.17093 0.0
C629 C 0.77191 0.3613 0.16828 0.0
C630 C 0.7445 0.36296 0.17196 0.0
C631 C 0.7464 0.39095 0.17957 0.0
H632 H 0.72103 0.50912 0.19714 0.0
H633 H 0.75026 0.4652 0.1431 0.0
H634 H 0.66706 0.46643 0.19346 0.0
H635 H 0.69602 0.42209 0.13943 0.0
H636 H 0.61587 0.33378 0.17972 0.0
H637 H 0.66573 0.38068 0.17072 0.0
H638 H 0.61936 0.43553 0.1682 0.0
H639 H 0.56935 0.38864 0.17747 0.0
C640 C 0.71559 0.49091 0.18374 0.0
C641 C 0.73965 0.49039 0.17039 0.0
C642 C 0.6847 0.46642 0.18164 0.0
C643 C 0.6774 0.44072 0.16638 0.0
C644 C 0.70109 0.4415 0.15149 0.0
C645 C 0.73201 0.46635 0.15333 0.0
C646 C 0.61622 0.3558 0.17721 0.0
C647 C 0.58868 0.35753 0.17974 0.0
C648 C 0.64475 0.3826 0.17168 0.0
C649 C 0.64641 0.41176 0.16866 0.0
C650 C 0.61876 0.41337 0.17052 0.0
C651 C 0.59017 0.38652 0.17589 0.0
H652 H 0.48662 0.20879 0.15358 0.0
H653 H 0.55546 0.30451 0.13696 0.0
H654 H 0.52643 0.19356 0.14996 0.0
H655 H 0.5963 0.29084 0.13669 0.0
H656 H 0.67053 0.26697 0.14688 0.0
H657 H 0.62762 0.27156 0.12916 0.0
H658 H 0.56209 0.19501 0.17517 0.0
H659 H 0.60474 0.1888 0.19044 0.0
C660 C 0.51029 0.22642 0.14857 0.0
C661 C 0.51817 0.25781 0.14582 0.0
C662 C 0.53345 0.21796 0.14714 0.0
C663 C 0.56532 0.24108 0.14441 0.0
C664 C 0.57238 0.27201 0.13895 0.0
C665 C 0.54885 0.28008 0.13912 0.0
C666 C 0.64669 0.2507 0.15253 0.0
C667 C 0.64073 0.22756 0.16994 0.0
C668 C 0.62199 0.25349 0.14263 0.0
C669 C 0.59089 0.23411 0.15082 0.0
C670 C 0.58519 0.21014 0.1677 0.0
C671 C 0.60976 0.20663 0.1768 0.0
H672 H 0.2883 0.79876 0.80584 0.0
H673 H 0.25472 0.72496 0.8595 0.0
H674 H 0.34154 0.80872 0.81143 0.0
H675 H 0.3082 0.73452 0.86491 0.0
H676 H 0.38242 0.72 0.81886 0.0
H677 H 0.33569 0.72085 0.83231 0.0
H678 H 0.3889 0.822 0.83675 0.0
H679 H 0.43581 0.82129 0.82315 0.0
C680 C 0.29265 0.78576 0.81974 0.0
C681 C 0.26756 0.76109 0.83217 0.0
C682 C 0.32314 0.79138 0.82292 0.0
C683 C 0.32893 0.77203 0.83832 0.0
C684 C 0.3043 0.7496 0.85278 0.0
C685 C 0.27379 0.74439 0.84991 0.0
C686 C 0.3843 0.74242 0.82301 0.0
C687 C 0.41267 0.77061 0.81941 0.0
C688 C 0.3576 0.74287 0.83107 0.0
C689 C 0.35864 0.77153 0.83554 0.0
C690 C 0.38743 0.79961 0.83334 0.0
C691 C 0.41424 0.79916 0.82549 0.0
H692 H 0.27891 0.53682 0.86175 0.0
H693 H 0.20245 0.49658 0.81025 0.0
H694 H 0.27005 0.58106 0.86811 0.0
H695 H 0.19349 0.54039 0.81652 0.0
H696 H 0.18118 0.62157 0.82907 0.0
H697 H 0.18098 0.574 0.842 0.0
H698 H 0.2822 0.62286 0.83769 0.0
H699 H 0.28252 0.67035 0.82514 0.0
C700 C 0.25928 0.53669 0.85269 0.0
C701 C 0.24141 0.51347 0.83542 0.0
C702 C 0.25443 0.56215 0.85612 0.0
C703 C 0.23135 0.56441 0.84258 0.0
C704 C 0.21131 0.53931 0.82738 0.0
C705 C 0.21644 0.51419 0.82372 0.0
C706 C 0.20344 0.62238 0.83142 0.0
C707 C 0.23184 0.64958 0.82555 0.0
C708 C 0.20329 0.59511 0.83882 0.0
C709 C 0.23153 0.59459 0.84067 0.0
C710 C 0.26004 0.62251 0.83668 0.0
C711 C 0.26019 0.64968 0.82917 0.0
H712 H 0.50224 0.71044 0.80618 0.0
H713 H 0.45828 0.74394 0.85664 0.0
H714 H 0.45838 0.65725 0.81048 0.0
H715 H 0.41386 0.69047 0.86083 0.0
H716 H 0.32718 0.61382 0.81534 0.0
H717 H 0.37419 0.66164 0.82799 0.0
H718 H 0.42372 0.61023 0.83528 0.0
H719 H 0.37675 0.56228 0.82237 0.0
C720 C 0.4838 0.70608 0.81908 0.0
C721 C 0.48354 0.73112 0.83107 0.0
C722 C 0.45861 0.67562 0.82152 0.0
C723 C 0.43246 0.66977 0.83572 0.0
C724 C 0.43362 0.6944 0.8496 0.0
C725 C 0.4592 0.72489 0.84747 0.0
C726 C 0.34798 0.61259 0.81985 0.0
C727 C 0.34838 0.58434 0.81733 0.0
C728 C 0.3748 0.63994 0.82745 0.0
C729 C 0.40266 0.63968 0.83262 0.0
C730 C 0.40262 0.61113 0.8313 0.0
C731 C 0.37572 0.58371 0.82384 0.0
H732 H 0.38232 0.72098 0.5179 0.0
H733 H 0.4838 0.77052 0.51791 0.0
H734 H 0.38164 0.67277 0.50644 0.0
H735 H 0.48298 0.72213 0.50641 0.0
H736 H 0.4538 0.6191 0.53524 0.0
H737 H 0.46492 0.67308 0.53184 0.0
H738 H 0.39689 0.64568 0.47382 0.0
H739 H 0.3862 0.59153 0.477 0.0
C740 C 0.40447 0.72165 0.51525 0.0
C741 C 0.43311 0.74944 0.51924 0.0
C742 C 0.40407 0.69413 0.50834 0.0
C743 C 0.43229 0.69377 0.50549 0.0
C744 C 0.46092 0.7218 0.50852 0.0
C745 C 0.46134 0.74944 0.51516 0.0
C746 C 0.44233 0.62496 0.52101 0.0
C747 C 0.41923 0.60134 0.50638 0.0
C748 C 0.44864 0.65582 0.51907 0.0
C749 C 0.43148 0.66344 0.50276 0.0
C750 C 0.4103 0.64032 0.48663 0.0
C751 C 0.40446 0.60947 0.48825 0.0
H752 H 0.24447 0.71577 0.53964 0.0
H753 H 0.26248 0.66211 0.4866 0.0
H754 H 0.29226 0.76267 0.52802 0.0
H755 H 0.30879 0.70961 0.47258 0.0
H756 H 0.41153 0.78753 0.48094 0.0
H757 H 0.35871 0.74337 0.4799 0.0
H758 H 0.32359 0.80352 0.50549 0.0
H759 H 0.37728 0.84626 0.50977 0.0
C760 C 0.25846 0.71438 0.52495 0.0
C761 C 0.2502 0.68549 0.5142 0.0
C762 C 0.28582 0.74147 0.51787 0.0
C763 C 0.30509 0.74061 0.49911 0.0
C764 C 0.29551 0.71157 0.4875 0.0
C765 C 0.26875 0.68423 0.49534 0.0
C766 C 0.39233 0.79136 0.48572 0.0
C767 C 0.39833 0.81991 0.49598 0.0
C768 C 0.3617 0.76589 0.48513 0.0
C769 C 0.33632 0.769 0.49374 0.0
C770 C 0.34233 0.7993 0.50019 0.0
C771 C 0.3731 0.82423 0.50203 0.0
H772 H 0.3295 0.61336 0.51316 0.0
H773 H 0.28121 0.51319 0.50063 0.0
H774 H 0.28445 0.61555 0.49754 0.0
H775 H 0.23614 0.51554 0.48457 0.0
H776 H 0.20402 0.61872 0.47039 0.0
H777 H 0.2475 0.60858 0.46423 0.0
H778 H 0.199 0.52472 0.50805 0.0
H779 H 0.15604 0.53495 0.51407 0.0
C780 C 0.30948 0.59186 0.50667 0.0
C781 C 0.30866 0.56296 0.50874 0.0
C782 C 0.28378 0.5932 0.49734 0.0
C783 C 0.25661 0.56567 0.4899 0.0
C784 C 0.25665 0.5371 0.49034 0.0
C785 C 0.28246 0.53577 0.49959 0.0
C786 C 0.202 0.59726 0.47753 0.0
C787 C 0.17696 0.57773 0.4929 0.0
C788 C 0.22704 0.59165 0.47429 0.0
C789 C 0.227 0.56625 0.48612 0.0
C790 C 0.19984 0.54447 0.49864 0.0
C791 C 0.17514 0.55029 0.5021 0.0
H792 H 0.21657 0.12085 0.05807 0.0
H793 H 0.18825 0.18813 0.07755 0.0
H794 H 0.21816 0.13464 0.01528 0.0
H795 H 0.18919 0.2015 0.03449 0.0
H796 H 0.14259 0.11502 0.95513 0.0
H797 H 0.16637 0.11739 0.99442 0.0
H798 H 0.2159 0.21873 0.99163 0.0
H799 H 0.19218 0.21615 0.95148 0.0
C800 C 0.21173 0.13936 0.05325 0.0
C801 C 0.20164 0.15296 0.07099 0.0
C802 C 0.21262 0.14724 0.02877 0.0
C803 C 0.20307 0.16857 0.02156 0.0
C804 C 0.19669 0.18499 0.03956 0.0
C805 C 0.1961 0.1773 0.0642 0.0
C806 C 0.15914 0.13778 0.96265 0.0
C807 C 0.16564 0.16537 0.95046 0.0
C808 C 0.17295 0.1392 0.98506 0.0
C809 C 0.19318 0.16828 0.99602 0.0
C810 C 0.20051 0.19605 0.98348 0.0
C811 C 0.18711 0.19459 0.9606 0.0
H812 H 0.81456 0.99277 0.93021 0.0
H813 H 0.7974 0.90007 0.94835 0.0
H814 H 0.81304 0.0038 0.97354 0.0
H815 H 0.79521 0.91082 0.99139 0.0
H816 H 0.86476 0.96971 0.0535 0.0
H817 H 0.84394 0.94827 0.01359 0.0
H818 H 0.78568 0.99104 0.01571 0.0
H819 H 0.80665 0.01246 0.05643 0.0
C820 C 0.80934 0.97439 0.94336 0.0
C821 C 0.80694 0.94589 0.93603 0.0
C822 C 0.80831 0.98064 0.96815 0.0
C823 C 0.80463 0.95835 0.98581 0.0
C824 C 0.79868 0.92862 0.97817 0.0
C825 C 0.80001 0.92251 0.95354 0.0
C826 C 0.84702 0.974 0.04568 0.0
C827 C 0.83736 0.99277 0.05787 0.0
C828 C 0.83488 0.96153 0.0229 0.0
C829 C 0.81306 0.96787 0.01156 0.0
C830 C 0.80245 0.98578 0.0241 0.0
C831 C 0.81426 0.99786 0.04733 0.0
H832 H 0.01735 0.81269 0.9394 0.0
H833 H 0.98035 0.87582 0.94142 0.0
H834 H 0.9949 0.79283 0.98009 0.0
H835 H 0.95787 0.85609 0.98132 0.0
H836 H 0.90589 0.80897 0.04607 0.0
H837 H 0.91796 0.80836 0.00317 0.0
H838 H 0.00821 0.81986 0.02242 0.0
H839 H 0.99591 0.81992 0.06565 0.0
C840 C 0.00375 0.82165 0.94829 0.0
C841 C 0.00054 0.84576 0.93749 0.0
C842 C 0.99113 0.8105 0.97152 0.0
C843 C 0.97455 0.82284 0.98381 0.0
C844 C 0.97009 0.84576 0.97222 0.0
C845 C 0.98311 0.85722 0.94944 0.0
C846 C 0.92808 0.81075 0.04123 0.0
C847 C 0.9503 0.81532 0.05921 0.0
C848 C 0.93492 0.81029 0.01665 0.0
C849 C 0.96424 0.81465 0.00946 0.0
C850 C 0.98538 0.81636 0.02745 0.0
C851 C 0.97842 0.81659 0.05219 0.0
H852 H 0.84954 0.48759 0.26694 0.0
H853 H 0.8251 0.55811 0.28437 0.0
H854 H 0.86625 0.48848 0.30862 0.0
H855 H 0.84444 0.5615 0.32582 0.0
H856 H 0.82153 0.51336 0.40111 0.0
H857 H 0.82439 0.53163 0.35966 0.0
H858 H 0.8953 0.50665 0.34304 0.0
H859 H 0.88988 0.48579 0.38418 0.0
C860 C 0.84915 0.50433 0.27958 0.0
C861 C 0.83594 0.52259 0.27276 0.0
C862 C 0.85891 0.50508 0.30357 0.0
C863 C 0.85624 0.52469 0.32105 0.0
C864 C 0.84589 0.5453 0.31326 0.0
C865 C 0.83519 0.54375 0.28945 0.0
C866 C 0.83823 0.51258 0.38865 0.0
C867 C 0.85527 0.49804 0.39551 0.0
C868 C 0.84012 0.52323 0.36481 0.0
C869 C 0.8597 0.52016 0.34753 0.0
C870 C 0.87914 0.50844 0.35543 0.0
C871 C 0.87642 0.49685 0.37906 0.0
H872 H 0.46233 0.24324 0.27274 0.0
H873 H 0.48344 0.33705 0.25397 0.0
H874 H 0.46156 0.25504 0.31574 0.0
H875 H 0.48322 0.34905 0.29726 0.0
H876 H 0.53312 0.31266 0.3772 0.0
H877 H 0.51213 0.2922 0.33705 0.0
H878 H 0.45571 0.33692 0.34006 0.0
H879 H 0.47666 0.35715 0.38106 0.0
C880 C 0.46602 0.26614 0.27778 0.0
C881 C 0.47367 0.28946 0.26007 0.0
C882 C 0.46554 0.27287 0.30239 0.0
C883 C 0.47299 0.30314 0.30983 0.0
C884 C 0.47734 0.3255 0.29202 0.0
C885 C 0.47757 0.31865 0.26725 0.0
C886 C 0.5158 0.31764 0.36949 0.0
C887 C 0.50649 0.33643 0.38208 0.0
C888 C 0.50358 0.30576 0.34658 0.0
C889 C 0.48211 0.3128 0.33549 0.0
C890 C 0.47214 0.33107 0.34828 0.0
C891 C 0.48396 0.34248 0.37166 0.0
H892 H 0.57148 0.12835 0.37792 0.0
H893 H 0.66624 0.15211 0.39609 0.0
H894 H 0.58241 0.12591 0.33496 0.0
H895 H 0.67748 0.15044 0.35281 0.0
H896 H 0.68706 0.14379 0.27027 0.0
H897 H 0.66644 0.12265 0.31111 0.0
H898 H 0.61698 0.17464 0.31194 0.0
H899 H 0.63773 0.1957 0.2719 0.0
C900 C 0.59446 0.13237 0.37274 0.0
C901 C 0.61826 0.14117 0.39021 0.0
C902 C 0.60069 0.13091 0.34817 0.0
C903 C 0.63097 0.13867 0.34051 0.0
C904 C 0.65389 0.14429 0.3582 0.0
C905 C 0.64752 0.1454 0.38295 0.0
C906 C 0.67112 0.14989 0.2791 0.0
C907 C 0.66388 0.1713 0.26817 0.0
C908 C 0.65951 0.138 0.3024 0.0
C909 C 0.63999 0.14687 0.31464 0.0
C910 C 0.63151 0.16691 0.30288 0.0
C911 C 0.64352 0.17915 0.28002 0.0
H912 H 0.44295 0.85527 0.62611 0.0
H913 H 0.52212 0.8524 0.59479 0.0
H914 H 0.46246 0.85509 0.66679 0.0
H915 H 0.54162 0.85215 0.63571 0.0
H916 H 0.51485 0.78527 0.70519 0.0
H917 H 0.51519 0.8065 0.66513 0.0
H918 H 0.50593 0.88108 0.69839 0.0
H919 H 0.5058 0.85982 0.73879 0.0
C920 C 0.46492 0.85534 0.62792 0.0
C921 C 0.48069 0.85324 0.60728 0.0
C922 C 0.47626 0.85556 0.65124 0.0
C923 C 0.50342 0.85335 0.65438 0.0
C924 C 0.52051 0.85368 0.63374 0.0
C925 C 0.50937 0.85387 0.61036 0.0
C926 C 0.51361 0.80662 0.704 0.0
C927 C 0.5098 0.82064 0.72504 0.0
C928 C 0.51413 0.81896 0.68106 0.0
C929 C 0.51044 0.84535 0.67867 0.0
C930 C 0.5087 0.86063 0.69978 0.0
C931 C 0.50869 0.84852 0.72284 0.0
H932 H 0.15267 0.66739 0.60015 0.0
H933 H 0.14757 0.58049 0.62168 0.0
H934 H 0.15314 0.68115 0.64315 0.0
H935 H 0.14755 0.59401 0.66433 0.0
H936 H 0.21699 0.6619 0.72271 0.0
H937 H 0.197 0.63861 0.68311 0.0
H938 H 0.12664 0.66652 0.68715 0.0
H939 H 0.14672 0.68979 0.72766 0.0
C940 C 0.15065 0.65083 0.61401 0.0
C941 C 0.15097 0.62329 0.60763 0.0
C942 C 0.15073 0.65862 0.63858 0.0
C943 C 0.1509 0.63884 0.65697 0.0
C944 C 0.14792 0.60987 0.65047 0.0
C945 C 0.14809 0.60223 0.62606 0.0
C946 C 0.19698 0.66274 0.71533 0.0
C947 C 0.18345 0.67772 0.72808 0.0
C948 C 0.18537 0.64918 0.69274 0.0
C949 C 0.16014 0.65059 0.68215 0.0
C950 C 0.14606 0.66508 0.69503 0.0
C951 C 0.1574 0.67822 0.71811 0.0
H952 H 0.29771 0.50939 0.60164 0.0
H953 H 0.373 0.48968 0.61175 0.0
H954 H 0.27891 0.49103 0.64258 0.0
H955 H 0.35382 0.4702 0.65299 0.0
H956 H 0.34205 0.49815 0.73309 0.0
H957 H 0.35484 0.49548 0.69047 0.0
H958 H 0.25632 0.45137 0.672 0.0
H959 H 0.24409 0.45595 0.7143 0.0
C960 C 0.30943 0.49986 0.61245 0.0
C961 C 0.33646 0.50055 0.60369 0.0
C962 C 0.29867 0.4892 0.63594 0.0
C963 C 0.31487 0.47912 0.65126 0.0
C964 C 0.34097 0.47806 0.6418 0.0
C965 C 0.35175 0.48882 0.61817 0.0
C966 C 0.32317 0.48718 0.71994 0.0
C967 C 0.29221 0.47775 0.72674 0.0
C968 C 0.33041 0.48548 0.69551 0.0
C969 C 0.30666 0.47382 0.67762 0.0
C970 C 0.2753 0.46137 0.68511 0.0
C971 C 0.26822 0.46378 0.70935 0.0
loop_
_geom_bond_atom_site_label_1
_geom_bond_atom_site_label_2
_geom_bond_distance
_geom_bond_site_symmetry_2
_ccdc_geom_bond_type
Co0 O1 2.216 . S
Co0 O2 2.091 . S
Co0 O4 2.004 . S
Co0 O10 2.021 . S
Co0 O12 2.137 . S
Co0 O13 2.244 . S
O1 Co0 2.216 . S
O1 C8 1.247 . S
O2 Co0 2.091 . S
O2 C8 1.261 . S
C3 O12 1.247 . S
C3 O13 1.272 . S
O4 Co0 2.004 . S
O4 C9 1.259 . S
Co5 O6 2.061 . S
Co5 O11 2.052 . S
Co5 O13 2.135 . S
O6 Co5 2.061 . S
O6 C9 1.235 . S
C7 O10 1.238 . S
C7 O11 1.241 . S
C8 O1 1.247 . S
C8 O2 1.261 . S
C9 O4 1.259 . S
C9 O6 1.235 . S
O10 Co0 2.021 . S
O10 C7 1.238 . S
O11 Co5 2.052 . S
O11 C7 1.241 . S
O12 Co0 2.137 . S
O12 C3 1.247 . S
O13 Co0 2.244 . S
O13 C3 1.272 . S
O13 Co5 2.135 . S
Co14 O15 2.216 . S
Co14 O16 2.091 1_545 S
Co14 O18 2.004 1_545 S
Co14 O24 2.021 1_545 S
Co14 O26 2.137 . S
Co14 O27 2.244 . S
O15 Co14 2.216 . S
O15 C22 1.247 . S
O16 Co14 2.091 1_565 S
O16 C22 1.261 1_565 S
C17 O26 1.247 . S
C17 O27 1.272 . S
O18 Co14 2.004 1_565 S
O18 C23 1.259 . S
Co19 O20 2.042 1_545 S
Co19 O25 2.063 1_545 S
Co19 O27 2.156 . S
O20 Co19 2.042 1_565 S
O20 C23 1.235 . S
C21 O24 1.238 . S
C21 O25 1.242 . S
C22 O15 1.247 . S
C22 O16 1.261 1_545 S
C23 O18 1.259 . S
C23 O20 1.235 . S
O24 Co14 2.021 1_565 S
O24 C21 1.238 . S
O25 Co19 2.063 1_565 S
O25 C21 1.242 . S
O26 Co14 2.137 . S
O26 C17 1.247 . S
O27 Co14 2.244 . S
O27 C17 1.272 . S
O27 Co19 2.156 . S
Co28 O29 2.216 . S
Co28 O30 2.112 . S
Co28 O32 2.004 1_655 S
Co28 O38 2.021 1_655 S
Co28 O40 2.137 . S
Co28 O41 2.244 . S
O29 Co28 2.216 . S
O29 C36 1.247 . S
O30 Co28 2.112 . S
O30 C36 1.288 . S
C31 O40 1.247 . S
C31 O41 1.272 . S
O32 Co28 2.004 1_455 S
O32 C37 1.259 . S
Co33 O34 2.061 1_655 S
Co33 O39 2.052 . S
Co33 O41 2.135 . S
O34 Co33 2.061 1_455 S
O34 C37 1.235 . S
C35 O38 1.238 . S
C35 O39 1.241 1_455 S
C36 O29 1.247 . S
C36 O30 1.288 . S
C37 O32 1.259 . S
C37 O34 1.235 . S
O38 Co28 2.021 1_455 S
O38 C35 1.238 . S
O39 Co33 2.052 . S
O39 C35 1.241 1_655 S
O40 Co28 2.137 . S
O40 C31 1.247 . S
O41 Co28 2.244 . S
O41 C31 1.272 . S
O41 Co33 2.135 . S
Co42 O43 2.216 . S
Co42 O44 2.091 . S
Co42 O46 2.004 . S
Co42 O52 2.021 . S
Co42 O54 2.137 . S
Co42 O55 2.244 . S
O43 Co42 2.216 . S
O43 C50 1.247 . S
O44 Co42 2.091 . S
O44 C50 1.261 . S
C45 O54 1.247 . S
C45 O55 1.272 . S
O46 Co42 2.004 . S
O46 C51 1.259 . S
Co47 O48 2.061 . S
Co47 O53 2.052 . S
Co47 O55 2.135 . S
O48 Co47 2.061 . S
O48 C51 1.235 . S
C49 O52 1.238 . S
C49 O53 1.241 . S
C50 O43 1.247 . S
C50 O44 1.261 . S
C51 O46 1.259 . S
C51 O48 1.235 . S
O52 Co42 2.021 . S
O52 C49 1.238 . S
O53 Co47 2.052 . S
O53 C49 1.241 . S
O54 Co42 2.137 . S
O54 C45 1.247 . S
O55 Co42 2.244 . S
O55 C45 1.272 . S
O55 Co47 2.135 . S
Co56 O57 2.216 . S
Co56 O58 2.113 . S
Co56 O60 2.004 1_565 S
Co56 O66 2.021 1_565 S
Co56 O68 2.137 . S
Co56 O69 2.244 . S
O57 Co56 2.216 . S
O57 C64 1.247 . S
O58 Co56 2.113 . S
O58 C64 1.288 . S
C59 O68 1.247 . S
C59 O69 1.272 . S
O60 Co56 2.004 1_545 S
O60 C65 1.259 . S
Co61 O62 2.061 1_565 S
Co61 O67 2.052 . S
Co61 O69 2.135 . S
O62 Co61 2.061 1_545 S
O62 C65 1.235 . S
C63 O66 1.238 . S
C63 O67 1.241 1_545 S
C64 O57 1.247 . S
C64 O58 1.288 . S
C65 O60 1.259 . S
C65 O62 1.235 . S
O66 Co56 2.021 1_545 S
O66 C63 1.238 . S
O67 Co61 2.052 . S
O67 C63 1.241 1_565 S
O68 Co56 2.137 . S
O68 C59 1.247 . S
O69 Co56 2.244 . S
O69 C59 1.272 . S
O69 Co61 2.135 . S
Co70 O71 2.216 . S
Co70 O72 2.091 1_455 S
Co70 O74 2.004 1_455 S
Co70 O80 2.021 1_455 S
Co70 O82 2.137 . S
Co70 O83 2.244 . S
O71 Co70 2.216 . S
O71 C78 1.247 . S
O72 Co70 2.091 1_655 S
O72 C78 1.261 1_655 S
C73 O82 1.247 . S
C73 O83 1.272 . S
O74 Co70 2.004 1_655 S
O74 C79 1.259 . S
Co75 O76 2.042 1_455 S
Co75 O81 2.063 1_455 S
Co75 O83 2.156 . S
O76 Co75 2.042 1_655 S
O76 C79 1.235 . S
C77 O80 1.238 . S
C77 O81 1.242 . S
C78 O71 1.247 . S
C78 O72 1.261 1_455 S
C79 O74 1.259 . S
C79 O76 1.235 . S
O80 Co70 2.021 1_655 S
O80 C77 1.238 . S
O81 Co75 2.063 1_655 S
O81 C77 1.242 . S
O82 Co70 2.137 . S
O82 C73 1.247 . S
O83 Co70 2.244 . S
O83 C73 1.272 . S
O83 Co75 2.156 . S
Co84 O85 2.216 . S
Co84 O86 2.091 . S
Co84 O88 2.004 . S
Co84 O94 2.021 . S
Co84 O96 2.137 . S
Co84 O97 2.244 . S
O85 Co84 2.216 . S
O85 C92 1.247 . S
O86 Co84 2.091 . S
O86 C92 1.261 . S
C87 O96 1.247 . S
C87 O97 1.272 . S
O88 Co84 2.004 . S
O88 C93 1.259 . S
Co89 O90 2.061 . S
Co89 O95 2.052 . S
Co89 O97 2.135 . S
O90 Co89 2.061 . S
O90 C93 1.235 . S
C91 O94 1.238 . S
C91 O95 1.241 . S
C92 O85 1.247 . S
C92 O86 1.261 . S
C93 O88 1.259 . S
C93 O90 1.235 . S
O94 Co84 2.021 . S
O94 C91 1.238 . S
O95 Co89 2.052 . S
O95 C91 1.241 . S
O96 Co84 2.137 . S
O96 C87 1.247 . S
O97 Co84 2.244 . S
O97 C87 1.272 . S
O97 Co89 2.135 . S
Co98 O99 2.216 . S
Co98 O100 2.091 . S
Co98 O102 2.004 . S
Co98 O108 2.021 . S
Co98 O110 2.137 . S
Co98 O111 2.244 . S
O99 Co98 2.216 . S
O99 C106 1.247 . S
O100 Co98 2.091 . S
O100 C106 1.261 . S
C101 O110 1.247 . S
C101 O111 1.272 . S
O102 Co98 2.004 . S
O102 C107 1.259 . S
Co103 O104 2.061 . S
Co103 O109 2.052 . S
Co103 O111 2.135 . S
O104 Co103 2.061 . S
O104 C107 1.235 . S
C105 O108 1.238 . S
C105 O109 1.241 . S
C106 O99 1.247 . S
C106 O100 1.261 . S
C107 O102 1.259 . S
C107 O104 1.235 . S
O108 Co98 2.021 . S
O108 C105 1.238 . S
O109 Co103 2.052 . S
O109 C105 1.241 . S
O110 Co98 2.137 . S
O110 C101 1.247 . S
O111 Co98 2.244 . S
O111 C101 1.272 . S
O111 Co103 2.135 . S
Co112 O113 2.216 . S
Co112 O114 2.091 . S
Co112 O116 2.004 . S
Co112 O122 2.021 . S
Co112 O124 2.137 . S
Co112 O125 2.244 . S
O113 Co112 2.216 . S
O113 C120 1.247 . S
O114 Co112 2.091 . S
O114 C120 1.261 . S
C115 O124 1.247 . S
C115 O125 1.272 . S
O116 Co112 2.004 . S
O116 C121 1.259 . S
Co117 O118 2.061 . S
Co117 O123 2.052 . S
Co117 O125 2.135 . S
O118 Co117 2.061 . S
O118 C121 1.235 . S
C119 O122 1.238 . S
C119 O123 1.241 . S
C120 O113 1.247 . S
C120 O114 1.261 . S
C121 O116 1.259 . S
C121 O118 1.235 . S
O122 Co112 2.021 . S
O122 C119 1.238 . S
O123 Co117 2.052 . S
O123 C119 1.241 . S
O124 Co112 2.137 . S
O124 C115 1.247 . S
O125 Co112 2.244 . S
O125 C115 1.272 . S
O125 Co117 2.135 . S
Co126 O127 2.216 . S
Co126 O128 2.091 . S
Co126 O130 2.004 . S
Co126 O136 2.021 . S
Co126 O138 2.137 . S
Co126 O139 2.244 . S
O127 Co126 2.216 . S
O127 C134 1.247 . S
O128 Co126 2.091 . S
O128 C134 1.261 . S
C129 O138 1.247 . S
C129 O139 1.272 . S
O130 Co126 2.004 . S
O130 C135 1.259 . S
Co131 O132 2.061 . S
Co131 O137 2.052 . S
Co131 O139 2.135 . S
O132 Co131 2.061 . S
O132 C135 1.235 . S
C133 O136 1.238 . S
C133 O137 1.241 . S
C134 O127 1.247 . S
C134 O128 1.261 . S
C135 O130 1.259 . S
C135 O132 1.235 . S
O136 Co126 2.021 . S
O136 C133 1.238 . S
O137 Co131 2.052 . S
O137 C133 1.241 . S
O138 Co126 2.137 . S
O138 C129 1.247 . S
O139 Co126 2.244 . S
O139 C129 1.272 . S
O139 Co131 2.135 . S
Co140 O141 2.216 . S
Co140 O142 2.091 . S
Co140 O144 2.004 . S
Co140 O150 2.021 . S
Co140 O152 2.137 . S
Co140 O153 2.244 . S
O141 Co140 2.216 . S
O141 C148 1.247 . S
O142 Co140 2.091 . S
O142 C148 1.261 . S
C143 O152 1.247 . S
C143 O153 1.272 . S
O144 Co140 2.004 . S
O144 C149 1.259 . S
Co145 O146 2.061 . S
Co145 O151 2.052 . S
Co145 O153 2.135 . S
O146 Co145 2.061 . S
O146 C149 1.235 . S
C147 O150 1.238 . S
C147 O151 1.241 . S
C148 O141 1.247 . S
C148 O142 1.261 . S
C149 O144 1.259 . S
C149 O146 1.235 . S
O150 Co140 2.021 . S
O150 C147 1.238 . S
O151 Co145 2.052 . S
O151 C147 1.241 . S
O152 Co140 2.137 . S
O152 C143 1.247 . S
O153 Co140 2.244 . S
O153 C143 1.272 . S
O153 Co145 2.135 . S
Co154 O155 2.216 . S
Co154 O156 2.091 . S
Co154 O158 2.004 . S
Co154 O164 2.021 . S
Co154 O166 2.137 . S
Co154 O167 2.244 . S
O155 Co154 2.216 . S
O155 C162 1.247 . S
O156 Co154 2.091 . S
O156 C162 1.261 . S
C157 O166 1.247 . S
C157 O167 1.272 . S
O158 Co154 2.004 . S
O158 C163 1.259 . S
Co159 O160 2.061 . S
Co159 O165 2.052 . S
Co159 O167 2.135 . S
O160 Co159 2.061 . S
O160 C163 1.235 . S
C161 O164 1.238 . S
C161 O165 1.241 . S
C162 O155 1.247 . S
C162 O156 1.261 . S
C163 O158 1.259 . S
C163 O160 1.235 . S
O164 Co154 2.021 . S
O164 C161 1.238 . S
O165 Co159 2.052 . S
O165 C161 1.241 . S
O166 Co154 2.137 . S
O166 C157 1.247 . S
O167 Co154 2.244 . S
O167 C157 1.272 . S
O167 Co159 2.135 . S
Co168 O169 2.216 . S
Co168 O170 2.091 . S
Co168 O172 2.004 . S
Co168 O178 2.021 . S
Co168 O180 2.137 . S
Co168 O181 2.244 . S
O169 Co168 2.216 . S
O169 C176 1.247 . S
O170 Co168 2.091 . S
O170 C176 1.261 . S
C171 O180 1.247 . S
C171 O181 1.272 . S
O172 Co168 2.004 . S
O172 C177 1.259 . S
Co173 O174 2.061 . S
Co173 O179 2.052 . S
Co173 O181 2.135 . S
O174 Co173 2.061 . S
O174 C177 1.235 . S
C175 O178 1.238 . S
C175 O179 1.241 . S
C176 O169 1.247 . S
C176 O170 1.261 . S
C177 O172 1.259 . S
C177 O174 1.235 . S
O178 Co168 2.021 . S
O178 C175 1.238 . S
O179 Co173 2.052 . S
O179 C175 1.241 . S
O180 Co168 2.137 . S
O180 C171 1.247 . S
O181 Co168 2.244 . S
O181 C171 1.272 . S
O181 Co173 2.135 . S
Co182 O183 2.216 . S
Co182 O184 2.091 . S
Co182 O186 2.004 . S
Co182 O192 2.021 . S
Co182 O194 2.137 . S
Co182 O195 2.244 . S
O183 Co182 2.216 . S
O183 C190 1.247 . S
O184 Co182 2.091 . S
O184 C190 1.261 . S
C185 O194 1.247 . S
C185 O195 1.272 . S
O186 Co182 2.004 . S
O186 C191 1.259 . S
Co187 O188 2.061 . S
Co187 O193 2.052 . S
Co187 O195 2.135 . S
O188 Co187 2.061 . S
O188 C191 1.235 . S
C189 O192 1.238 . S
C189 O193 1.241 . S
C190 O183 1.247 . S
C190 O184 1.261 . S
C191 O186 1.259 . S
C191 O188 1.235 . S
O192 Co182 2.021 . S
O192 C189 1.238 . S
O193 Co187 2.052 . S
O193 C189 1.241 . S
O194 Co182 2.137 . S
O194 C185 1.247 . S
O195 Co182 2.244 . S
O195 C185 1.272 . S
O195 Co187 2.135 . S
Co196 O197 2.216 . S
Co196 O198 2.091 . S
Co196 O200 2.004 . S
Co196 O206 2.021 . S
Co196 O208 2.137 . S
Co196 O209 2.244 . S
O197 Co196 2.216 . S
O197 C204 1.247 . S
O198 Co196 2.091 . S
O198 C204 1.261 . S
C199 O208 1.247 . S
C199 O209 1.272 . S
O200 Co196 2.004 . S
O200 C205 1.259 . S
Co201 O202 2.061 . S
Co201 O207 2.052 . S
Co201 O209 2.135 . S
O202 Co201 2.061 . S
O202 C205 1.235 . S
C203 O206 1.238 . S
C203 O207 1.241 . S
C204 O197 1.247 . S
C204 O198 1.261 . S
C205 O200 1.259 . S
C205 O202 1.235 . S
O206 Co196 2.021 . S
O206 C203 1.238 . S
O207 Co201 2.052 . S
O207 C203 1.241 . S
O208 Co196 2.137 . S
O208 C199 1.247 . S
O209 Co196 2.244 . S
O209 C199 1.272 . S
O209 Co201 2.135 . S
Co210 O211 2.216 . S
Co210 O212 2.091 . S
Co210 O214 2.004 . S
Co210 O220 2.021 . S
Co210 O222 2.137 . S
Co210 O223 2.244 . S
O211 Co210 2.216 . S
O211 C218 1.247 . S
O212 Co210 2.091 . S
O212 C218 1.261 . S
C213 O222 1.247 . S
C213 O223 1.272 . S
O214 Co210 2.004 . S
O214 C219 1.259 . S
Co215 O216 2.061 . S
Co215 O221 2.052 . S
Co215 O223 2.135 . S
O216 Co215 2.061 . S
O216 C219 1.235 . S
C217 O220 1.238 . S
C217 O221 1.241 . S
C218 O211 1.247 . S
C218 O212 1.261 . S
C219 O214 1.259 . S
C219 O216 1.235 . S
O220 Co210 2.021 . S
O220 C217 1.238 . S
O221 Co215 2.052 . S
O221 C217 1.241 . S
O222 Co210 2.137 . S
O222 C213 1.247 . S
O223 Co210 2.244 . S
O223 C213 1.272 . S
O223 Co215 2.135 . S
Co224 O225 2.216 . S
Co224 O226 2.091 . S
Co224 O228 2.004 . S
Co224 O234 2.021 . S
Co224 O236 2.137 . S
Co224 O237 2.244 . S
O225 Co224 2.216 . S
O225 C232 1.247 . S
O226 Co224 2.091 . S
O226 C232 1.261 . S
C227 O236 1.247 . S
C227 O237 1.272 . S
O228 Co224 2.004 . S
O228 C233 1.259 . S
Co229 O230 2.061 . S
Co229 O235 2.052 . S
Co229 O237 2.135 . S
O230 Co229 2.061 . S
O230 C233 1.235 . S
C231 O234 1.238 . S
C231 O235 1.241 . S
C232 O225 1.247 . S
C232 O226 1.261 . S
C233 O228 1.259 . S
C233 O230 1.235 . S
O234 Co224 2.021 . S
O234 C231 1.238 . S
O235 Co229 2.052 . S
O235 C231 1.241 . S
O236 Co224 2.137 . S
O236 C227 1.247 . S
O237 Co224 2.244 . S
O237 C227 1.272 . S
O237 Co229 2.135 . S
Co238 O239 2.216 . S
Co238 O240 2.091 . S
Co238 O242 2.004 . S
Co238 O248 2.021 . S
Co238 O250 2.137 . S
Co238 O251 2.244 . S
O239 Co238 2.216 . S
O239 C246 1.247 . S
O240 Co238 2.091 . S
O240 C246 1.261 . S
C241 O250 1.247 . S
C241 O251 1.272 . S
O242 Co238 2.004 . S
O242 C247 1.259 . S
Co243 O244 2.061 . S
Co243 O249 2.052 . S
Co243 O251 2.135 . S
O244 Co243 2.061 . S
O244 C247 1.235 . S
C245 O248 1.238 . S
C245 O249 1.241 . S
C246 O239 1.247 . S
C246 O240 1.261 . S
C247 O242 1.259 . S
C247 O244 1.235 . S
O248 Co238 2.021 . S
O248 C245 1.238 . S
O249 Co243 2.052 . S
O249 C245 1.241 . S
O250 Co238 2.137 . S
O250 C241 1.247 . S
O251 Co238 2.244 . S
O251 C241 1.272 . S
O251 Co243 2.135 . S
H252 C260 0.950 . S
H253 C265 0.950 . S
H254 C262 0.950 . S
H255 C264 0.950 . S
H256 C266 0.950 . S
H257 C268 0.950 . S
H258 C270 0.950 . S
H259 C271 0.950 . S
C260 H252 0.950 . S
C260 C261 1.386 . S
C260 C262 1.391 . S
C261 C260 1.386 . S
C261 C265 1.393 . S
C262 H254 0.950 . S
C262 C260 1.391 . S
C262 C263 1.400 . S
C263 C262 1.400 . S
C263 C264 1.398 . S
C263 C269 1.491 . S
C264 H255 0.950 . S
C264 C263 1.398 . S
C264 C265 1.391 . S
C265 H253 0.950 . S
C265 C261 1.393 . S
C265 C264 1.391 . S
C266 H256 0.950 . S
C266 C267 1.386 . S
C266 C268 1.391 . S
C267 C266 1.386 . S
C267 C271 1.393 . S
C268 H257 0.950 . S
C268 C266 1.391 . S
C268 C269 1.400 . S
C269 C263 1.491 . S
C269 C268 1.400 . S
C269 C270 1.398 . S
C270 H258 0.950 . S
C270 C269 1.398 . S
C270 C271 1.391 . S
C271 H259 0.950 . S
C271 C267 1.393 . S
C271 C270 1.391 . S
H272 C280 0.950 . S
H273 C285 0.950 . S
H274 C282 0.950 . S
H275 C284 0.950 . S
H276 C286 0.950 . S
H277 C288 0.950 . S
H278 C290 0.950 . S
H279 C291 0.950 . S
C280 H272 0.950 . S
C280 C281 1.386 . S
C280 C282 1.391 . S
C281 C280 1.386 . S
C281 C285 1.393 . S
C282 H274 0.950 . S
C282 C280 1.391 . S
C282 C283 1.400 . S
C283 C282 1.400 . S
C283 C284 1.398 . S
C283 C289 1.491 . S
C284 H275 0.950 . S
C284 C283 1.398 . S
C284 C285 1.391 . S
C285 H273 0.950 . S
C285 C281 1.393 . S
C285 C284 1.391 . S
C286 H276 0.950 . S
C286 C287 1.386 . S
C286 C288 1.391 . S
C287 C286 1.386 . S
C287 C291 1.393 . S
C288 H277 0.950 . S
C288 C286 1.391 . S
C288 C289 1.400 . S
C289 C283 1.491 . S
C289 C288 1.400 . S
C289 C290 1.398 . S
C290 H278 0.950 . S
C290 C289 1.398 . S
C290 C291 1.391 . S
C291 H279 0.950 . S
C291 C287 1.393 . S
C291 C290 1.391 . S
H292 C300 0.950 . S
H293 C305 0.950 . S
H294 C302 0.950 . S
H295 C304 0.950 . S
H296 C306 0.950 . S
H297 C308 0.950 . S
H298 C310 0.950 . S
H299 C311 0.950 . S
C300 H292 0.950 . S
C300 C301 1.386 . S
C300 C302 1.391 . S
C301 C300 1.386 . S
C301 C305 1.393 . S
C302 H294 0.950 . S
C302 C300 1.391 . S
C302 C303 1.400 . S
C303 C302 1.400 . S
C303 C304 1.398 . S
C303 C309 1.491 . S
C304 H295 0.950 . S
C304 C303 1.398 . S
C304 C305 1.391 . S
C305 H293 0.950 . S
C305 C301 1.393 . S
C305 C304 1.391 . S
C306 H296 0.950 . S
C306 C307 1.386 . S
C306 C308 1.391 . S
C307 C306 1.386 . S
C307 C311 1.393 . S
C308 H297 0.950 . S
C308 C306 1.391 . S
C308 C309 1.400 . S
C309 C303 1.491 . S
C309 C308 1.400 . S
C309 C310 1.398 . S
C310 H298 0.950 . S
C310 C309 1.398 . S
C310 C311 1.391 . S
C311 H299 0.950 . S
C311 C307 1.393 . S
C311 C310 1.391 . S
H312 C320 0.950 . S
H313 C325 0.950 . S
H314 C322 0.950 . S
H315 C324 0.950 . S
H316 C326 0.950 . S
H317 C328 0.950 . S
H318 C330 0.950 . S
H319 C331 0.950 . S
C320 H312 0.950 . S
C320 C321 1.386 . S
C320 C322 1.391 . S
C321 C320 1.386 . S
C321 C325 1.393 . S
C322 H314 0.950 . S
C322 C320 1.391 . S
C322 C323 1.400 . S
C323 C322 1.400 . S
C323 C324 1.398 . S
C323 C329 1.491 . S
C324 H315 0.950 . S
C324 C323 1.398 . S
C324 C325 1.391 . S
C325 H313 0.950 . S
C325 C321 1.393 . S
C325 C324 1.391 . S
C326 H316 0.950 . S
C326 C327 1.386 . S
C326 C328 1.391 . S
C327 C326 1.386 . S
C327 C331 1.393 . S
C328 H317 0.950 . S
C328 C326 1.391 . S
C328 C329 1.400 . S
C329 C323 1.491 . S
C329 C328 1.400 . S
C329 C330 1.398 . S
C330 H318 0.950 . S
C330 C329 1.398 . S
C330 C331 1.391 . S
C331 H319 0.950 . S
C331 C327 1.393 . S
C331 C330 1.391 . S
H332 C340 0.950 . S
H333 C345 0.954 . S
H334 C342 0.950 . S
H335 C344 0.950 . S
H336 C346 0.950 . S
H337 C348 0.950 . S
H338 C350 0.950 . S
H339 C351 0.950 . S
C340 H332 0.950 . S
C340 C341 1.386 . S
C340 C342 1.391 . S
C341 C340 1.386 . S
C341 C345 1.393 . S
C342 H334 0.950 . S
C342 C340 1.391 . S
C342 C343 1.400 . S
C343 C342 1.400 . S
C343 C344 1.398 . S
C343 C349 1.491 . S
C344 H335 0.950 . S
C344 C343 1.398 . S
C344 C345 1.391 . S
C345 H333 0.954 . S
C345 C341 1.393 . S
C345 C344 1.391 . S
C346 H336 0.950 . S
C346 C347 1.386 . S
C346 C348 1.391 . S
C347 C346 1.386 . S
C347 C351 1.393 . S
C348 H337 0.950 . S
C348 C346 1.391 . S
C348 C349 1.400 . S
C349 C343 1.491 . S
C349 C348 1.400 . S
C349 C350 1.398 . S
C350 H338 0.950 . S
C350 C349 1.398 . S
C350 C351 1.391 . S
C351 H339 0.950 . S
C351 C347 1.393 . S
C351 C350 1.391 . S
H352 C360 0.950 . S
H353 C365 0.950 . S
H354 C362 0.950 . S
H355 C364 0.950 . S
H356 C366 0.950 . S
H357 C368 0.950 . S
H358 C370 0.950 . S
H359 C371 0.950 . S
C360 H352 0.950 . S
C360 C361 1.386 . S
C360 C362 1.391 . S
C361 C360 1.386 . S
C361 C365 1.393 . S
C362 H354 0.950 . S
C362 C360 1.391 . S
C362 C363 1.400 . S
C363 C362 1.400 . S
C363 C364 1.398 . S
C363 C369 1.491 . S
C364 H355 0.950 . S
C364 C363 1.398 . S
C364 C365 1.391 . S
C365 H353 0.950 . S
C365 C361 1.393 . S
C365 C364 1.391 . S
C366 H356 0.950 . S
C366 C367 1.386 . S
C366 C368 1.391 . S
C367 C366 1.386 . S
C367 C371 1.393 . S
C368 H357 0.950 . S
C368 C366 1.391 . S
C368 C369 1.400 . S
C369 C363 1.491 . S
C369 C368 1.400 . S
C369 C370 1.398 . S
C370 H358 0.950 . S
C370 C369 1.398 . S
C370 C371 1.391 . S
C371 H359 0.950 . S
C371 C367 1.393 . S
C371 C370 1.391 . S
H372 C380 0.950 . S
H373 C385 0.950 . S
H374 C382 0.950 . S
H375 C384 0.950 . S
H376 C386 0.950 . S
H377 C388 0.950 . S
H378 C390 0.950 . S
H379 C391 0.950 . S
C380 H372 0.950 . S
C380 C381 1.386 . S
C380 C382 1.391 . S
C381 C380 1.386 . S
C381 C385 1.393 . S
C382 H374 0.950 . S
C382 C380 1.391 . S
C382 C383 1.400 . S
C383 C382 1.400 . S
C383 C384 1.398 . S
C383 C389 1.491 1_655 S
C384 H375 0.950 . S
C384 C383 1.398 . S
C384 C385 1.391 . S
C385 H373 0.950 . S
C385 C381 1.393 . S
C385 C384 1.391 . S
C386 H376 0.950 . S
C386 C387 1.386 . S
C386 C388 1.391 . S
C387 C386 1.386 . S
C387 C391 1.393 . S
C388 H377 0.950 . S
C388 C386 1.391 . S
C388 C389 1.400 . S
C389 C383 1.491 1_455 S
C389 C388 1.400 . S
C389 C390 1.398 . S
C390 H378 0.950 . S
C390 C389 1.398 . S
C390 C391 1.391 . S
C391 H379 0.950 . S
C391 C387 1.393 . S
C391 C390 1.391 . S
H392 C400 0.950 . S
H393 C405 0.950 . S
H394 C402 0.950 . S
H395 C404 0.950 . S
H396 C406 0.950 . S
H397 C408 0.950 . S
H398 C410 0.950 . S
H399 C411 0.950 . S
C400 H392 0.950 . S
C400 C401 1.386 . S
C400 C402 1.391 . S
C401 C400 1.386 . S
C401 C405 1.393 . S
C402 H394 0.950 . S
C402 C400 1.391 . S
C402 C403 1.400 . S
C403 C402 1.400 . S
C403 C404 1.398 . S
C403 C409 1.491 . S
C404 H395 0.950 . S
C404 C403 1.398 . S
C404 C405 1.391 . S
C405 H393 0.950 . S
C405 C401 1.393 . S
C405 C404 1.391 . S
C406 H396 0.950 . S
C406 C407 1.386 . S
C406 C408 1.391 . S
C407 C406 1.386 . S
C407 C411 1.393 . S
C408 H397 0.950 . S
C408 C406 1.391 . S
C408 C409 1.400 . S
C409 C403 1.491 . S
C409 C408 1.400 . S
C409 C410 1.398 . S
C410 H398 0.950 . S
C410 C409 1.398 . S
C410 C411 1.391 . S
C411 H399 0.950 . S
C411 C407 1.393 . S
C411 C410 1.391 . S
H412 C420 0.950 . S
H413 C425 0.950 . S
H414 C422 0.950 . S
H415 C424 0.950 . S
H416 C426 0.950 . S
H417 C428 0.950 . S
H418 C430 0.950 . S
H419 C431 0.950 . S
C420 H412 0.950 . S
C420 C421 1.386 . S
C420 C422 1.391 . S
C421 C420 1.386 . S
C421 C425 1.393 . S
C422 H414 0.950 . S
C422 C420 1.391 . S
C422 C423 1.400 . S
C423 C422 1.400 . S
C423 C424 1.398 . S
C423 C429 1.491 1_545 S
C424 H415 0.950 . S
C424 C423 1.398 . S
C424 C425 1.391 . S
C425 H413 0.950 . S
C425 C421 1.393 . S
C425 C424 1.391 . S
C426 H416 0.950 . S
C426 C427 1.386 . S
C426 C428 1.391 . S
C427 C426 1.386 . S
C427 C431 1.393 . S
C428 H417 0.950 . S
C428 C426 1.391 . S
C428 C429 1.400 . S
C429 C423 1.491 1_565 S
C429 C428 1.400 . S
C429 C430 1.398 . S
C430 H418 0.950 . S
C430 C429 1.398 . S
C430 C431 1.391 . S
C431 H419 0.950 . S
C431 C427 1.393 . S
C431 C430 1.391 . S
H432 C440 0.950 . S
H433 C445 0.950 . S
H434 C442 0.950 . S
H435 C444 0.950 . S
H436 C446 0.950 . S
H437 C448 0.950 . S
H438 C450 0.950 . S
H439 C451 0.950 . S
C440 H432 0.950 . S
C440 C441 1.386 . S
C440 C442 1.391 . S
C441 C440 1.386 . S
C441 C445 1.393 . S
C442 H434 0.950 . S
C442 C440 1.391 . S
C442 C443 1.400 . S
C443 C442 1.400 . S
C443 C444 1.398 . S
C443 C449 1.491 1_455 S
C444 H435 0.950 . S
C444 C443 1.398 . S
C444 C445 1.391 . S
C445 H433 0.950 . S
C445 C441 1.393 . S
C445 C444 1.391 . S
C446 H436 0.950 . S
C446 C447 1.386 . S
C446 C448 1.391 . S
C447 C446 1.386 . S
C447 C451 1.393 . S
C448 H437 0.950 . S
C448 C446 1.391 . S
C448 C449 1.400 . S
C449 C443 1.491 1_655 S
C449 C448 1.400 . S
C449 C450 1.398 . S
C450 H438 0.950 . S
C450 C449 1.398 . S
C450 C451 1.391 . S
C451 H439 0.950 . S
C451 C447 1.393 . S
C451 C450 1.391 . S
H452 C460 0.950 . S
H453 C465 0.950 . S
H454 C462 0.950 . S
H455 C464 0.950 . S
H456 C466 0.950 . S
H457 C468 0.950 . S
H458 C470 0.950 . S
H459 C471 0.950 . S
C460 H452 0.950 . S
C460 C461 1.386 . S
C460 C462 1.391 . S
C461 C460 1.386 . S
C461 C465 1.393 . S
C462 H454 0.950 . S
C462 C460 1.391 . S
C462 C463 1.400 . S
C463 C462 1.400 . S
C463 C464 1.398 . S
C463 C469 1.491 . S
C464 H455 0.950 . S
C464 C463 1.398 . S
C464 C465 1.391 . S
C465 H453 0.950 . S
C465 C461 1.393 . S
C465 C464 1.391 . S
C466 H456 0.950 . S
C466 C467 1.386 . S
C466 C468 1.391 . S
C467 C466 1.386 . S
C467 C471 1.393 . S
C468 H457 0.950 . S
C468 C466 1.391 . S
C468 C469 1.400 . S
C469 C463 1.491 . S
C469 C468 1.400 . S
C469 C470 1.398 . S
C470 H458 0.950 . S
C470 C469 1.398 . S
C470 C471 1.391 . S
C471 H459 0.950 . S
C471 C467 1.393 . S
C471 C470 1.391 . S
H472 C480 0.950 . S
H473 C485 0.950 . S
H474 C482 0.950 . S
H475 C484 0.950 . S
H476 C486 0.950 . S
H477 C488 0.950 . S
H478 C490 0.950 . S
H479 C491 0.950 . S
C480 H472 0.950 . S
C480 C481 1.386 . S
C480 C482 1.391 . S
C481 C480 1.386 . S
C481 C485 1.393 . S
C482 H474 0.950 . S
C482 C480 1.391 . S
C482 C483 1.400 . S
C483 C482 1.400 . S
C483 C484 1.398 . S
C483 C489 1.491 1_545 S
C484 H475 0.950 . S
C484 C483 1.398 . S
C484 C485 1.391 . S
C485 H473 0.950 . S
C485 C481 1.393 . S
C485 C484 1.391 . S
C486 H476 0.950 . S
C486 C487 1.386 . S
C486 C488 1.391 . S
C487 C486 1.386 . S
C487 C491 1.393 . S
C488 H477 0.950 . S
C488 C486 1.391 . S
C488 C489 1.400 . S
C489 C483 1.491 1_565 S
C489 C488 1.400 . S
C489 C490 1.398 . S
C490 H478 0.950 . S
C490 C489 1.398 . S
C490 C491 1.391 . S
C491 H479 0.950 . S
C491 C487 1.393 . S
C491 C490 1.391 . S
H492 C500 0.950 . S
H493 C505 0.950 . S
H494 C502 0.950 . S
H495 C504 0.950 . S
H496 C506 0.950 . S
H497 C508 0.950 . S
H498 C510 0.950 . S
H499 C511 0.950 . S
C500 H492 0.950 . S
C500 C501 1.386 . S
C500 C502 1.391 . S
C501 C500 1.386 . S
C501 C505 1.393 . S
C502 H494 0.950 . S
C502 C500 1.391 . S
C502 C503 1.400 . S
C503 C502 1.400 . S
C503 C504 1.398 . S
C503 C509 1.491 1_565 S
C504 H495 0.950 . S
C504 C503 1.398 . S
C504 C505 1.391 . S
C505 H493 0.950 . S
C505 C501 1.393 . S
C505 C504 1.391 . S
C506 H496 0.950 . S
C506 C507 1.386 . S
C506 C508 1.391 . S
C507 C506 1.386 . S
C507 C511 1.393 . S
C508 H497 0.950 . S
C508 C506 1.391 . S
C508 C509 1.400 . S
C509 C503 1.491 1_545 S
C509 C508 1.400 . S
C509 C510 1.398 . S
C510 H498 0.950 . S
C510 C509 1.398 . S
C510 C511 1.391 . S
C511 H499 0.950 . S
C511 C507 1.393 . S
C511 C510 1.391 . S
H512 C520 0.950 . S
H513 C525 0.950 . S
H514 C522 0.950 . S
H515 C524 0.950 . S
H516 C526 0.950 . S
H517 C528 0.950 . S
H518 C530 0.950 . S
H519 C531 0.950 . S
C520 H512 0.950 . S
C520 C521 1.386 . S
C520 C522 1.391 . S
C521 C520 1.386 . S
C521 C525 1.393 . S
C522 H514 0.950 . S
C522 C520 1.391 . S
C522 C523 1.400 . S
C523 C522 1.400 . S
C523 C524 1.398 . S
C523 C529 1.491 1_455 S
C524 H515 0.950 . S
C524 C523 1.398 . S
C524 C525 1.391 . S
C525 H513 0.950 . S
C525 C521 1.393 . S
C525 C524 1.391 . S
C526 H516 0.950 . S
C526 C527 1.386 . S
C526 C528 1.391 . S
C527 C526 1.386 . S
C527 C531 1.393 . S
C528 H517 0.950 . S
C528 C526 1.391 . S
C528 C529 1.400 . S
C529 C523 1.491 1_655 S
C529 C528 1.400 . S
C529 C530 1.398 . S
C530 H518 0.950 . S
C530 C529 1.398 . S
C530 C531 1.391 . S
C531 H519 0.950 . S
C531 C527 1.393 . S
C531 C530 1.391 . S
H532 C540 0.950 . S
H533 C545 0.950 . S
H534 C542 0.950 . S
H535 C544 0.950 . S
H536 C546 0.950 . S
H537 C548 0.950 . S
H538 C550 0.950 . S
H539 C551 0.950 . S
C540 H532 0.950 . S
C540 C541 1.386 . S
C540 C542 1.391 . S
C541 C540 1.386 . S
C541 C545 1.393 . S
C542 H534 0.950 . S
C542 C540 1.391 . S
C542 C543 1.400 . S
C543 C542 1.400 . S
C543 C544 1.398 . S
C543 C549 1.491 . S
C544 H535 0.950 . S
C544 C543 1.398 . S
C544 C545 1.391 . S
C545 H533 0.950 . S
C545 C541 1.393 . S
C545 C544 1.391 . S
C546 H536 0.950 . S
C546 C547 1.386 . S
C546 C548 1.391 . S
C547 C546 1.386 . S
C547 C551 1.393 . S
C548 H537 0.950 . S
C548 C546 1.391 . S
C548 C549 1.400 . S
C549 C543 1.491 . S
C549 C548 1.400 . S
C549 C550 1.398 . S
C550 H538 0.950 . S
C550 C549 1.398 . S
C550 C551 1.391 . S
C551 H539 0.950 . S
C551 C547 1.393 . S
C551 C550 1.391 . S
H552 C560 0.950 . S
H553 C565 0.950 . S
H554 C562 0.950 . S
H555 C564 0.950 . S
H556 C566 0.950 . S
H557 C568 0.950 . S
H558 C570 0.950 . S
H559 C571 0.950 . S
C560 H552 0.950 . S
C560 C561 1.386 . S
C560 C562 1.391 . S
C561 C560 1.386 . S
C561 C565 1.393 . S
C562 H554 0.950 . S
C562 C560 1.391 . S
C562 C563 1.400 . S
C563 C562 1.400 . S
C563 C564 1.398 . S
C563 C569 1.491 . S
C564 H555 0.950 . S
C564 C563 1.398 . S
C564 C565 1.391 . S
C565 H553 0.950 . S
C565 C561 1.393 . S
C565 C564 1.391 . S
C566 H556 0.950 . S
C566 C567 1.386 . S
C566 C568 1.391 . S
C567 C566 1.386 . S
C567 C571 1.393 . S
C568 H557 0.950 . S
C568 C566 1.391 . S
C568 C569 1.400 . S
C569 C563 1.491 . S
C569 C568 1.400 . S
C569 C570 1.398 . S
C570 H558 0.950 . S
C570 C569 1.398 . S
C570 C571 1.391 . S
C571 H559 0.950 . S
C571 C567 1.393 . S
C571 C570 1.391 . S
H572 C580 0.950 . S
H573 C585 0.950 . S
H574 C582 0.950 . S
H575 C584 0.950 . S
H576 C586 0.950 . S
H577 C588 0.950 . S
H578 C590 0.950 . S
H579 C591 0.950 . S
C580 H572 0.950 . S
C580 C581 1.386 . S
C580 C582 1.391 . S
C581 C580 1.386 . S
C581 C585 1.393 . S
C582 H574 0.950 . S
C582 C580 1.391 . S
C582 C583 1.400 . S
C583 C582 1.400 . S
C583 C584 1.398 . S
C583 C589 1.491 . S
C584 H575 0.950 . S
C584 C583 1.398 . S
C584 C585 1.391 . S
C585 H573 0.950 . S
C585 C581 1.393 . S
C585 C584 1.391 . S
C586 H576 0.950 . S
C586 C587 1.386 . S
C586 C588 1.391 . S
C587 C586 1.386 . S
C587 C591 1.393 . S
C588 H577 0.950 . S
C588 C586 1.391 . S
C588 C589 1.400 . S
C589 C583 1.491 . S
C589 C588 1.400 . S
C589 C590 1.398 . S
C590 H578 0.950 . S
C590 C589 1.398 . S
C590 C591 1.391 . S
C591 H579 0.950 . S
C591 C587 1.393 . S
C591 C590 1.391 . S
H592 C600 0.950 . S
H593 C605 0.950 . S
H594 C602 0.950 . S
H595 C604 0.950 . S
H596 C606 0.950 . S
H597 C608 0.950 . S
H598 C610 0.950 . S
H599 C611 0.950 . S
C600 H592 0.950 . S
C600 C601 1.386 . S
C600 C602 1.391 . S
C601 C600 1.386 . S
C601 C605 1.393 . S
C602 H594 0.950 . S
C602 C600 1.391 . S
C602 C603 1.400 . S
C603 C602 1.400 . S
C603 C604 1.398 . S
C603 C609 1.491 . S
C604 H595 0.950 . S
C604 C603 1.398 . S
C604 C605 1.391 . S
C605 H593 0.950 . S
C605 C601 1.393 . S
C605 C604 1.391 . S
C606 H596 0.950 . S
C606 C607 1.386 . S
C606 C608 1.391 . S
C607 C606 1.386 . S
C607 C611 1.393 . S
C608 H597 0.950 . S
C608 C606 1.391 . S
C608 C609 1.400 . S
C609 C603 1.491 . S
C609 C608 1.400 . S
C609 C610 1.398 . S
C610 H598 0.950 . S
C610 C609 1.398 . S
C610 C611 1.391 . S
C611 H599 0.950 . S
C611 C607 1.393 . S
C611 C610 1.391 . S
H612 C620 0.950 . S
H613 C625 0.950 . S
H614 C622 0.950 . S
H615 C624 0.950 . S
H616 C626 0.950 . S
H617 C628 0.950 . S
H618 C630 0.950 . S
H619 C631 0.950 . S
C620 H612 0.950 . S
C620 C621 1.386 . S
C620 C622 1.391 . S
C621 C620 1.386 . S
C621 C625 1.393 . S
C622 H614 0.950 . S
C622 C620 1.391 . S
C622 C623 1.400 . S
C623 C622 1.400 . S
C623 C624 1.398 . S
C623 C629 1.491 . S
C624 H615 0.950 . S
C624 C623 1.398 . S
C624 C625 1.391 . S
C625 H613 0.950 . S
C625 C621 1.393 . S
C625 C624 1.391 . S
C626 H616 0.950 . S
C626 C627 1.386 . S
C626 C628 1.391 . S
C627 C626 1.386 . S
C627 C631 1.393 . S
C628 H617 0.950 . S
C628 C626 1.391 . S
C628 C629 1.400 . S
C629 C623 1.491 . S
C629 C628 1.400 . S
C629 C630 1.398 . S
C630 H618 0.950 . S
C630 C629 1.398 . S
C630 C631 1.391 . S
C631 H619 0.950 . S
C631 C627 1.393 . S
C631 C630 1.391 . S
H632 C640 0.950 . S
H633 C645 0.950 . S
H634 C642 0.950 . S
H635 C644 0.950 . S
H636 C646 0.950 . S
H637 C648 0.950 . S
H638 C650 0.950 . S
H639 C651 0.950 . S
C640 H632 0.950 . S
C640 C641 1.386 . S
C640 C642 1.391 . S
C641 C640 1.386 . S
C641 C645 1.393 . S
C642 H634 0.950 . S
C642 C640 1.391 . S
C642 C643 1.400 . S
C643 C642 1.400 . S
C643 C644 1.398 . S
C643 C649 1.491 . S
C644 H635 0.950 . S
C644 C643 1.398 . S
C644 C645 1.391 . S
C645 H633 0.950 . S
C645 C641 1.393 . S
C645 C644 1.391 . S
C646 H636 0.950 . S
C646 C647 1.386 . S
C646 C648 1.391 . S
C647 C646 1.386 . S
C647 C651 1.393 . S
C648 H637 0.950 . S
C648 C646 1.391 . S
C648 C649 1.400 . S
C649 C643 1.491 . S
C649 C648 1.400 . S
C649 C650 1.398 . S
C650 H638 0.950 . S
C650 C649 1.398 . S
C650 C651 1.391 . S
C651 H639 0.950 . S
C651 C647 1.393 . S
C651 C650 1.391 . S
H652 C660 0.950 . S
H653 C665 0.950 . S
H654 C662 0.950 . S
H655 C664 0.950 . S
H656 C666 0.950 . S
H657 C668 0.950 . S
H658 C670 0.950 . S
H659 C671 0.950 . S
C660 H652 0.950 . S
C660 C661 1.386 . S
C660 C662 1.391 . S
C661 C660 1.386 . S
C661 C665 1.393 . S
C662 H654 0.950 . S
C662 C660 1.391 . S
C662 C663 1.400 . S
C663 C662 1.400 . S
C663 C664 1.398 . S
C663 C669 1.491 . S
C664 H655 0.950 . S
C664 C663 1.398 . S
C664 C665 1.391 . S
C665 H653 0.950 . S
C665 C661 1.393 . S
C665 C664 1.391 . S
C666 H656 0.950 . S
C666 C667 1.386 . S
C666 C668 1.391 . S
C667 C666 1.386 . S
C667 C671 1.393 . S
C668 H657 0.950 . S
C668 C666 1.391 . S
C668 C669 1.400 . S
C669 C663 1.491 . S
C669 C668 1.400 . S
C669 C670 1.398 . S
C670 H658 0.950 . S
C670 C669 1.398 . S
C670 C671 1.391 . S
C671 H659 0.950 . S
C671 C667 1.393 . S
C671 C670 1.391 . S
H672 C680 0.950 . S
H673 C685 0.950 . S
H674 C682 0.950 . S
H675 C684 0.950 . S
H676 C686 0.950 . S
H677 C688 0.950 . S
H678 C690 0.950 . S
H679 C691 0.950 . S
C680 H672 0.950 . S
C680 C681 1.386 . S
C680 C682 1.391 . S
C681 C680 1.386 . S
C681 C685 1.393 . S
C682 H674 0.950 . S
C682 C680 1.391 . S
C682 C683 1.400 . S
C683 C682 1.400 . S
C683 C684 1.398 . S
C683 C689 1.491 . S
C684 H675 0.950 . S
C684 C683 1.398 . S
C684 C685 1.391 . S
C685 H673 0.950 . S
C685 C681 1.393 . S
C685 C684 1.391 . S
C686 H676 0.950 . S
C686 C687 1.386 . S
C686 C688 1.391 . S
C687 C686 1.386 . S
C687 C691 1.393 . S
C688 H677 0.950 . S
C688 C686 1.391 . S
C688 C689 1.400 . S
C689 C683 1.491 . S
C689 C688 1.400 . S
C689 C690 1.398 . S
C690 H678 0.950 . S
C690 C689 1.398 . S
C690 C691 1.391 . S
C691 H679 0.950 . S
C691 C687 1.393 . S
C691 C690 1.391 . S
H692 C700 0.950 . S
H693 C705 0.950 . S
H694 C702 0.950 . S
H695 C704 0.950 . S
H696 C706 0.950 . S
H697 C708 0.950 . S
H698 C710 0.950 . S
H699 C711 0.950 . S
C700 H692 0.950 . S
C700 C701 1.386 . S
C700 C702 1.391 . S
C701 C700 1.386 . S
C701 C705 1.393 . S
C702 H694 0.950 . S
C702 C700 1.391 . S
C702 C703 1.400 . S
C703 C702 1.400 . S
C703 C704 1.398 . S
C703 C709 1.491 . S
C704 H695 0.950 . S
C704 C703 1.398 . S
C704 C705 1.391 . S
C705 H693 0.950 . S
C705 C701 1.393 . S
C705 C704 1.391 . S
C706 H696 0.950 . S
C706 C707 1.386 . S
C706 C708 1.391 . S
C707 C706 1.386 . S
C707 C711 1.393 . S
C708 H697 0.950 . S
C708 C706 1.391 . S
C708 C709 1.400 . S
C709 C703 1.491 . S
C709 C708 1.400 . S
C709 C710 1.398 . S
C710 H698 0.950 . S
C710 C709 1.398 . S
C710 C711 1.391 . S
C711 H699 0.950 . S
C711 C707 1.393 . S
C711 C710 1.391 . S
H712 C720 0.950 . S
H713 C725 0.950 . S
H714 C722 0.950 . S
H715 C724 0.950 . S
H716 C726 0.950 . S
H717 C728 0.950 . S
H718 C730 0.950 . S
H719 C731 0.950 . S
C720 H712 0.950 . S
C720 C721 1.386 . S
C720 C722 1.391 . S
C721 C720 1.386 . S
C721 C725 1.393 . S
C722 H714 0.950 . S
C722 C720 1.391 . S
C722 C723 1.400 . S
C723 C722 1.400 . S
C723 C724 1.398 . S
C723 C729 1.491 . S
C724 H715 0.950 . S
C724 C723 1.398 . S
C724 C725 1.391 . S
C725 H713 0.950 . S
C725 C721 1.393 . S
C725 C724 1.391 . S
C726 H716 0.950 . S
C726 C727 1.386 . S
C726 C728 1.391 . S
C727 C726 1.386 . S
C727 C731 1.393 . S
C728 H717 0.950 . S
C728 C726 1.391 . S
C728 C729 1.400 . S
C729 C723 1.491 . S
C729 C728 1.400 . S
C729 C730 1.398 . S
C730 H718 0.950 . S
C730 C729 1.398 . S
C730 C731 1.391 . S
C731 H719 0.950 . S
C731 C727 1.393 . S
C731 C730 1.391 . S
H732 C740 0.950 . S
H733 C745 0.950 . S
H734 C742 0.950 . S
H735 C744 0.950 . S
H736 C746 0.950 . S
H737 C748 0.950 . S
H738 C750 0.950 . S
H739 C751 0.950 . S
C740 H732 0.950 . S
C740 C741 1.386 . S
C740 C742 1.391 . S
C741 C740 1.386 . S
C741 C745 1.393 . S
C742 H734 0.950 . S
C742 C740 1.391 . S
C742 C743 1.400 . S
C743 C742 1.400 . S
C743 C744 1.398 . S
C743 C749 1.491 . S
C744 H735 0.950 . S
C744 C743 1.398 . S
C744 C745 1.391 . S
C745 H733 0.950 . S
C745 C741 1.393 . S
C745 C744 1.391 . S
C746 H736 0.950 . S
C746 C747 1.386 . S
C746 C748 1.391 . S
C747 C746 1.386 . S
C747 C751 1.393 . S
C748 H737 0.950 . S
C748 C746 1.391 . S
C748 C749 1.400 . S
C749 C743 1.491 . S
C749 C748 1.400 . S
C749 C750 1.398 . S
C750 H738 0.950 . S
C750 C749 1.398 . S
C750 C751 1.391 . S
C751 H739 0.950 . S
C751 C747 1.393 . S
C751 C750 1.391 . S
H752 C760 0.950 . S
H753 C765 0.950 . S
H754 C762 0.950 . S
H755 C764 0.950 . S
H756 C766 0.950 . S
H757 C768 0.950 . S
H758 C770 0.950 . S
H759 C771 0.950 . S
C760 H752 0.950 . S
C760 C761 1.386 . S
C760 C762 1.391 . S
C761 C760 1.386 . S
C761 C765 1.393 . S
C762 H754 0.950 . S
C762 C760 1.391 . S
C762 C763 1.400 . S
C763 C762 1.400 . S
C763 C764 1.398 . S
C763 C769 1.491 . S
C764 H755 0.950 . S
C764 C763 1.398 . S
C764 C765 1.391 . S
C765 H753 0.950 . S
C765 C761 1.393 . S
C765 C764 1.391 . S
C766 H756 0.950 . S
C766 C767 1.386 . S
C766 C768 1.391 . S
C767 C766 1.386 . S
C767 C771 1.393 . S
C768 H757 0.950 . S
C768 C766 1.391 . S
C768 C769 1.400 . S
C769 C763 1.491 . S
C769 C768 1.400 . S
C769 C770 1.398 . S
C770 H758 0.950 . S
C770 C769 1.398 . S
C770 C771 1.391 . S
C771 H759 0.950 . S
C771 C767 1.393 . S
C771 C770 1.391 . S
H772 C780 0.950 . S
H773 C785 0.950 . S
H774 C782 0.950 . S
H775 C784 0.950 . S
H776 C786 0.950 . S
H777 C788 0.950 . S
H778 C790 0.950 . S
H779 C791 0.950 . S
C780 H772 0.950 . S
C780 C781 1.386 . S
C780 C782 1.391 . S
C781 C780 1.386 . S
C781 C785 1.393 . S
C782 H774 0.950 . S
C782 C780 1.391 . S
C782 C783 1.400 . S
C783 C782 1.400 . S
C783 C784 1.398 . S
C783 C789 1.491 . S
C784 H775 0.950 . S
C784 C783 1.398 . S
C784 C785 1.391 . S
C785 H773 0.950 . S
C785 C781 1.393 . S
C785 C784 1.391 . S
C786 H776 0.950 . S
C786 C787 1.386 . S
C786 C788 1.391 . S
C787 C786 1.386 . S
C787 C791 1.393 . S
C788 H777 0.950 . S
C788 C786 1.391 . S
C788 C789 1.400 . S
C789 C783 1.491 . S
C789 C788 1.400 . S
C789 C790 1.398 . S
C790 H778 0.950 . S
C790 C789 1.398 . S
C790 C791 1.391 . S
C791 H779 0.950 . S
C791 C787 1.393 . S
C791 C790 1.391 . S
H792 C800 0.950 . S
H793 C805 0.950 . S
H794 C802 0.950 . S
H795 C804 0.950 . S
H796 C806 0.950 . S
H797 C808 0.950 . S
H798 C810 0.950 . S
H799 C811 0.950 . S
C800 H792 0.950 . S
C800 C801 1.386 . S
C800 C802 1.391 . S
C801 C800 1.386 . S
C801 C805 1.393 . S
C802 H794 0.950 . S
C802 C800 1.391 . S
C802 C803 1.400 . S
C803 C802 1.400 . S
C803 C804 1.398 . S
C803 C809 1.491 1_554 S
C804 H795 0.950 . S
C804 C803 1.398 . S
C804 C805 1.391 . S
C805 H793 0.950 . S
C805 C801 1.393 . S
C805 C804 1.391 . S
C806 H796 0.950 . S
C806 C807 1.386 . S
C806 C808 1.391 . S
C807 C806 1.386 . S
C807 C811 1.393 . S
C808 H797 0.950 . S
C808 C806 1.391 . S
C808 C809 1.400 . S
C809 C803 1.491 1_556 S
C809 C808 1.400 . S
C809 C810 1.398 . S
C810 H798 0.950 . S
C810 C809 1.398 . S
C810 C811 1.391 . S
C811 H799 0.950 . S
C811 C807 1.393 . S
C811 C810 1.391 . S
H812 C820 0.950 . S
H813 C825 0.950 . S
H814 C822 0.950 . S
H815 C824 0.950 . S
H816 C826 0.950 . S
H817 C828 0.950 . S
H818 C830 0.950 . S
H819 C831 0.950 . S
C820 H812 0.950 . S
C820 C821 1.386 . S
C820 C822 1.391 . S
C821 C820 1.386 . S
C821 C825 1.393 1_545 S
C822 H814 0.950 . S
C822 C820 1.391 . S
C822 C823 1.399 . S
C823 C822 1.399 . S
C823 C824 1.400 1_545 S
C823 C829 1.491 1_546 S
C824 H815 0.950 . S
C824 C823 1.400 1_565 S
C824 C825 1.391 . S
C825 H813 0.950 . S
C825 C821 1.393 1_565 S
C825 C824 1.391 . S
C826 H816 0.950 . S
C826 C827 1.386 . S
C826 C828 1.391 . S
C827 C826 1.386 . S
C827 C831 1.393 1_565 S
C828 H817 0.950 . S
C828 C826 1.391 . S
C828 C829 1.400 . S
C829 C823 1.491 1_564 S
C829 C828 1.400 . S
C829 C830 1.398 1_565 S
C830 H818 0.950 . S
C830 C829 1.398 1_545 S
C830 C831 1.391 . S
C831 H819 0.950 . S
C831 C827 1.393 1_545 S
C831 C830 1.391 . S
H832 C840 0.950 . S
H833 C845 0.950 . S
H834 C842 0.950 . S
H835 C844 0.950 . S
H836 C846 0.950 . S
H837 C848 0.950 . S
H838 C850 0.950 . S
H839 C851 0.950 . S
C840 H832 0.950 . S
C840 C841 1.386 1_455 S
C840 C842 1.391 . S
C841 C840 1.386 1_655 S
C841 C845 1.393 . S
C842 H834 0.950 . S
C842 C840 1.391 . S
C842 C843 1.400 1_455 S
C843 C842 1.400 1_655 S
C843 C844 1.398 . S
C843 C849 1.487 1_656 S
C844 H835 0.950 . S
C844 C843 1.398 . S
C844 C845 1.391 . S
C845 H833 0.950 . S
C845 C841 1.393 . S
C845 C844 1.391 . S
C846 H836 0.950 . S
C846 C847 1.386 1_655 S
C846 C848 1.391 . S
C847 C846 1.386 1_455 S
C847 C851 1.393 . S
C848 H837 0.950 . S
C848 C846 1.391 . S
C848 C849 1.381 1_655 S
C849 C843 1.487 1_454 S
C849 C848 1.381 1_455 S
C849 C850 1.421 . S
C850 H838 0.950 . S
C850 C849 1.421 . S
C850 C851 1.391 . S
C851 H839 0.950 . S
C851 C847 1.393 . S
C851 C850 1.391 . S
H852 C860 0.950 . S
H853 C865 0.950 . S
H854 C862 0.950 . S
H855 C864 0.950 . S
H856 C866 0.950 . S
H857 C868 0.950 . S
H858 C870 0.950 . S
H859 C871 0.950 . S
C860 H852 0.950 . S
C860 C861 1.386 . S
C860 C862 1.391 . S
C861 C860 1.386 . S
C861 C865 1.393 . S
C862 H854 0.950 . S
C862 C860 1.391 . S
C862 C863 1.400 . S
C863 C862 1.400 . S
C863 C864 1.398 . S
C863 C869 1.491 . S
C864 H855 0.950 . S
C864 C863 1.398 . S
C864 C865 1.391 . S
C865 H853 0.950 . S
C865 C861 1.393 . S
C865 C864 1.391 . S
C866 H856 0.950 . S
C866 C867 1.386 . S
C866 C868 1.391 . S
C867 C866 1.386 . S
C867 C871 1.393 . S
C868 H857 0.950 . S
C868 C866 1.391 . S
C868 C869 1.400 . S
C869 C863 1.491 . S
C869 C868 1.400 . S
C869 C870 1.398 . S
C870 H858 0.950 . S
C870 C869 1.398 . S
C870 C871 1.391 . S
C871 H859 0.950 . S
C871 C867 1.393 . S
C871 C870 1.391 . S
H872 C880 0.950 . S
H873 C885 0.950 . S
H874 C882 0.950 . S
H875 C884 0.950 . S
H876 C886 0.950 . S
H877 C888 0.950 . S
H878 C890 0.950 . S
H879 C891 0.950 . S
C880 H872 0.950 . S
C880 C881 1.386 . S
C880 C882 1.391 . S
C881 C880 1.386 . S
C881 C885 1.393 . S
C882 H874 0.950 . S
C882 C880 1.391 . S
C882 C883 1.400 . S
C883 C882 1.400 . S
C883 C884 1.398 . S
C883 C889 1.491 . S
C884 H875 0.950 . S
C884 C883 1.398 . S
C884 C885 1.391 . S
C885 H873 0.950 . S
C885 C881 1.393 . S
C885 C884 1.391 . S
C886 H876 0.950 . S
C886 C887 1.386 . S
C886 C888 1.391 . S
C887 C886 1.386 . S
C887 C891 1.393 . S
C888 H877 0.950 . S
C888 C886 1.391 . S
C888 C889 1.400 . S
C889 C883 1.491 . S
C889 C888 1.400 . S
C889 C890 1.398 . S
C890 H878 0.950 . S
C890 C889 1.398 . S
C890 C891 1.391 . S
C891 H879 0.950 . S
C891 C887 1.393 . S
C891 C890 1.391 . S
H892 C900 0.950 . S
H893 C905 0.950 . S
H894 C902 0.950 . S
H895 C904 0.950 . S
H896 C906 0.950 . S
H897 C908 0.950 . S
H898 C910 0.950 . S
H899 C911 0.950 . S
C900 H892 0.950 . S
C900 C901 1.386 . S
C900 C902 1.391 . S
C901 C900 1.386 . S
C901 C905 1.393 . S
C902 H894 0.950 . S
C902 C900 1.391 . S
C902 C903 1.400 . S
C903 C902 1.400 . S
C903 C904 1.398 . S
C903 C909 1.491 . S
C904 H895 0.950 . S
C904 C903 1.398 . S
C904 C905 1.391 . S
C905 H893 0.950 . S
C905 C901 1.393 . S
C905 C904 1.391 . S
C906 H896 0.950 . S
C906 C907 1.386 . S
C906 C908 1.391 . S
C907 C906 1.386 . S
C907 C911 1.393 . S
C908 H897 0.950 . S
C908 C906 1.391 . S
C908 C909 1.400 . S
C909 C903 1.491 . S
C909 C908 1.400 . S
C909 C910 1.398 . S
C910 H898 0.950 . S
C910 C909 1.398 . S
C910 C911 1.391 . S
C911 H899 0.950 . S
C911 C907 1.393 . S
C911 C910 1.391 . S
H912 C920 0.950 . S
H913 C925 0.950 . S
H914 C922 0.950 . S
H915 C924 0.950 . S
H916 C926 0.950 . S
H917 C928 0.950 . S
H918 C930 0.950 . S
H919 C931 0.950 . S
C920 H912 0.950 . S
C920 C921 1.386 . S
C920 C922 1.391 . S
C921 C920 1.386 . S
C921 C925 1.393 . S
C922 H914 0.950 . S
C922 C920 1.391 . S
C922 C923 1.400 . S
C923 C922 1.400 . S
C923 C924 1.398 . S
C923 C929 1.491 . S
C924 H915 0.950 . S
C924 C923 1.398 . S
C924 C925 1.391 . S
C925 H913 0.950 . S
C925 C921 1.393 . S
C925 C924 1.391 . S
C926 H916 0.950 . S
C926 C927 1.386 . S
C926 C928 1.391 . S
C927 C926 1.386 . S
C927 C931 1.393 . S
C928 H917 0.950 . S
C928 C926 1.391 . S
C928 C929 1.400 . S
C929 C923 1.491 . S
C929 C928 1.400 . S
C929 C930 1.398 . S
C930 H918 0.950 . S
C930 C929 1.398 . S
C930 C931 1.391 . S
C931 H919 0.950 . S
C931 C927 1.393 . S
C931 C930 1.391 . S
H932 C940 0.950 . S
H933 C945 0.950 . S
H934 C942 0.950 . S
H935 C944 0.950 . S
H936 C946 0.950 . S
H937 C948 0.950 . S
H938 C950 0.950 . S
H939 C951 0.950 . S
C940 H932 0.950 . S
C940 C941 1.386 . S
C940 C942 1.391 . S
C941 C940 1.386 . S
C941 C945 1.393 . S
C942 H934 0.950 . S
C942 C940 1.391 . S
C942 C943 1.400 . S
C943 C942 1.400 . S
C943 C944 1.398 . S
C943 C949 1.491 . S
C944 H935 0.950 . S
C944 C943 1.398 . S
C944 C945 1.391 . S
C945 H933 0.950 . S
C945 C941 1.393 . S
C945 C944 1.391 . S
C946 H936 0.950 . S
C946 C947 1.386 . S
C946 C948 1.391 . S
C947 C946 1.386 . S
C947 C951 1.393 . S
C948 H937 0.950 . S
C948 C946 1.391 . S
C948 C949 1.400 . S
C949 C943 1.491 . S
C949 C948 1.400 . S
C949 C950 1.398 . S
C950 H938 0.950 . S
C950 C949 1.398 . S
C950 C951 1.391 . S
C951 H939 0.950 . S
C951 C947 1.393 . S
C951 C950 1.391 . S
H952 C960 0.950 . S
H953 C965 0.950 . S
H954 C962 0.950 . S
H955 C964 0.950 . S
H956 C966 0.950 . S
H957 C968 0.950 . S
H958 C970 0.950 . S
H959 C971 0.950 . S
C960 H952 0.950 . S
C960 C961 1.386 . S
C960 C962 1.391 . S
C961 C960 1.386 . S
C961 C965 1.393 . S
C962 H954 0.950 . S
C962 C960 1.391 . S
C962 C963 1.400 . S
C963 C962 1.400 . S
C963 C964 1.398 . S
C963 C969 1.491 . S
C964 H955 0.950 . S
C964 C963 1.398 . S
C964 C965 1.391 . S
C965 H953 0.950 . S
C965 C961 1.393 . S
C965 C964 1.391 . S
C966 H956 0.950 . S
C966 C967 1.386 . S
C966 C968 1.391 . S
C967 C966 1.386 . S
C967 C971 1.393 . S
C968 H957 0.950 . S
C968 C966 1.391 . S
C968 C969 1.400 . S
C969 C963 1.491 . S
C969 C968 1.400 . S
C969 C970 1.398 . S
C970 H958 0.950 . S
C970 C969 1.398 . S
C970 C971 1.391 . S
C971 H959 0.950 . S
C971 C967 1.393 . S
C971 C970 1.391 . S
C261 C148 1.157 . S
C267 C8 1.158 . S
C281 C22 1.147 . S
C287 C162 1.142 . S
C301 C134 1.158 . S
C307 C36 1.151 . S
C321 C204 1.153 . S
C327 C50 1.159 . S
C341 C64 1.145 . S
C347 C176 1.142 . S
C361 C190 1.154 . S
C367 C78 1.159 . S
C381 C92 1.148 . S
C387 C232 1.142 . S
C401 C246 1.143 . S
C407 C106 1.149 . S
C421 C120 1.142 . S
C427 C218 1.146 . S
C441 C9 1.021 . S
C447 C17 1.047 . S
C461 C23 1.018 . S
C467 C31 1.044 . S
C481 C3 1.062 . S
C487 C37 0.967 . S
C501 C73 1.061 . S
C507 C51 0.969 . S
C521 C45 1.059 . S
C527 C65 0.971 . S
C541 C79 1.020 . S
C547 C59 1.048 . S
C561 C93 0.970 . S
C567 C101 1.067 . S
C581 C107 1.015 . S
C587 C115 1.044 . S
C601 C87 1.064 . S
C607 C121 0.985 . S
C621 C157 1.065 . S
C627 C135 0.983 . S
C641 C129 1.056 . S
C647 C149 0.976 . S
C661 C143 1.063 . S
C667 C163 0.988 . S
C681 C185 1.058 . S
C687 C177 1.004 . S
C701 C199 1.044 . S
C707 C191 1.019 . S
C721 C171 1.064 . S
C727 C205 0.966 . S
C741 C219 1.011 . S
C747 C241 1.055 . S
C761 C233 0.975 . S
C767 C213 1.066 . S
C781 C247 0.973 . S
C787 C227 1.066 . S
C801 C7 1.586 . S
C807 C49 1.586 . S
C821 C63 1.593 . S
C827 C21 1.580 . S
C841 C77 1.578 . S
C847 C35 1.606 . S
C861 C133 1.600 . S
C867 C91 1.576 . S
C881 C147 1.587 . S
C887 C105 1.584 . S
C901 C119 1.578 . S
C907 C161 1.606 . S
C921 C217 1.594 . S
C927 C175 1.599 . S
C941 C231 1.602 . S
C947 C189 1.575 . S
C961 C245 1.606 . S
C967 C203 1.581 . S
