# Generated by pormake.
# Topology fcd, (5)-cn, num edge types: 1
# Building blocks:
#     Node 0, Type 0, BuildingBlock: XOMCOT_clean_sbu_1, # of connection points: 5
#     Node 1, Type 0, BuildingBlock: XOMCOT_clean_sbu_1, # of connection points: 5
#     Node 2, Type 0, BuildingBlock: XOMCOT_clean_sbu_1, # of connection points: 5
#     Node 3, Type 0, BuildingBlock: XOMCOT_clean_sbu_1, # of connection points: 5
#     Node 4, Type 0, BuildingBlock: XOMCOT_clean_sbu_1, # of connection points: 5
#     Node 5, Type 0, BuildingBlock: XOMCOT_clean_sbu_1, # of connection points: 5
#     Node 6, Type 0, BuildingBlock: XOMCOT_clean_sbu_1, # of connection points: 5
#     Node 7, Type 0, BuildingBlock: XOMCOT_clean_sbu_1, # of connection points: 5
#     Node 8, Type 0, BuildingBlock: XOMCOT_clean_sbu_1, # of connection points: 5
#     Node 9, Type 0, BuildingBlock: XOMCOT_clean_sbu_1, # of connection points: 5
#     Node 10, Type 0, BuildingBlock: XOMCOT_clean_sbu_1, # of connection points: 5
#     Node 11, Type 0, BuildingBlock: XOMCOT_clean_sbu_1, # of connection points: 5
#     Node 12, Type 0, BuildingBlock: XOMCOT_clean_sbu_1, # of connection points: 5
#     Node 13, Type 0, BuildingBlock: XOMCOT_clean_sbu_1, # of connection points: 5
#     Node 14, Type 0, BuildingBlock: XOMCOT_clean_sbu_1, # of connection points: 5
#     Node 15, Type 0, BuildingBlock: XOMCOT_clean_sbu_1, # of connection points: 5
#     Node 16, Type 0, BuildingBlock: XOMCOT_clean_sbu_1, # of connection points: 5
#     Node 17, Type 0, BuildingBlock: XOMCOT_clean_sbu_1, # of connection points: 5
#     Node 18, Type 0, BuildingBlock: XOMCOT_clean_sbu_1, # of connection points: 5
#     Node 19, Type 0, BuildingBlock: XOMCOT_clean_sbu_1, # of connection points: 5
#     Node 20, Type 0, BuildingBlock: XOMCOT_clean_sbu_1, # of connection points: 5
#     Node 21, Type 0, BuildingBlock: XOMCOT_clean_sbu_1, # of connection points: 5
#     Node 22, Type 0, BuildingBlock: XOMCOT_clean_sbu_1, # of connection points: 5
#     Node 23, Type 0, BuildingBlock: XOMCOT_clean_sbu_1, # of connection points: 5
#     Node 24, Type 0, BuildingBlock: XOMCOT_clean_sbu_1, # of connection points: 5
#     Node 25, Type 0, BuildingBlock: XOMCOT_clean_sbu_1, # of connection points: 5
#     Node 26, Type 0, BuildingBlock: XOMCOT_clean_sbu_1, # of connection points: 5
#     Node 27, Type 0, BuildingBlock: XOMCOT_clean_sbu_1, # of connection points: 5
#     Node 28, Type 0, BuildingBlock: XOMCOT_clean_sbu_1, # of connection points: 5
#     Node 29, Type 0, BuildingBlock: XOMCOT_clean_sbu_1, # of connection points: 5
#     Node 30, Type 0, BuildingBlock: XOMCOT_clean_sbu_1, # of connection points: 5
#     Node 31, Type 0, BuildingBlock: XOMCOT_clean_sbu_1, # of connection points: 5
#     Node 32, Type 0, BuildingBlock: XOMCOT_clean_sbu_1, # of connection points: 5
#     Node 33, Type 0, BuildingBlock: XOMCOT_clean_sbu_1, # of connection points: 5
#     Node 34, Type 0, BuildingBlock: XOMCOT_clean_sbu_1, # of connection points: 5
#     Node 35, Type 0, BuildingBlock: XOMCOT_clean_sbu_1, # of connection points: 5
#     Node 36, Type 0, BuildingBlock: XOMCOT_clean_sbu_1, # of connection points: 5
#     Node 37, Type 0, BuildingBlock: XOMCOT_clean_sbu_1, # of connection points: 5
#     Node 38, Type 0, BuildingBlock: XOMCOT_clean_sbu_1, # of connection points: 5
#     Node 39, Type 0, BuildingBlock: XOMCOT_clean_sbu_1, # of connection points: 5
#     Node 40, Type 0, BuildingBlock: XOMCOT_clean_sbu_1, # of connection points: 5
#     Node 41, Type 0, BuildingBlock: XOMCOT_clean_sbu_1, # of connection points: 5
#     Node 42, Type 0, BuildingBlock: XOMCOT_clean_sbu_1, # of connection points: 5
#     Node 43, Type 0, BuildingBlock: XOMCOT_clean_sbu_1, # of connection points: 5
#     Node 44, Type 0, BuildingBlock: XOMCOT_clean_sbu_1, # of connection points: 5
#     Node 45, Type 0, BuildingBlock: XOMCOT_clean_sbu_1, # of connection points: 5
#     Node 46, Type 0, BuildingBlock: XOMCOT_clean_sbu_1, # of connection points: 5
#     Node 47, Type 0, BuildingBlock: XOMCOT_clean_sbu_1, # of connection points: 5
#     Edge 48, Type (0, 0), BuildingBlock: EZIPEK_clean_linker_0, # of connection points: 2
#     Edge 49, Type (0, 0), BuildingBlock: EZIPEK_clean_linker_0, # of connection points: 2
#     Edge 50, Type (0, 0), BuildingBlock: EZIPEK_clean_linker_0, # of connection points: 2
#     Edge 51, Type (0, 0), BuildingBlock: EZIPEK_clean_linker_0, # of connection points: 2
#     Edge 52, Type (0, 0), BuildingBlock: EZIPEK_clean_linker_0, # of connection points: 2
#     Edge 53, Type (0, 0), BuildingBlock: EZIPEK_clean_linker_0, # of connection points: 2
#     Edge 54, Type (0, 0), BuildingBlock: EZIPEK_clean_linker_0, # of connection points: 2
#     Edge 55, Type (0, 0), BuildingBlock: EZIPEK_clean_linker_0, # of connection points: 2
#     Edge 56, Type (0, 0), BuildingBlock: EZIPEK_clean_linker_0, # of connection points: 2
#     Edge 57, Type (0, 0), BuildingBlock: EZIPEK_clean_linker_0, # of connection points: 2
#     Edge 58, Type (0, 0), BuildingBlock: EZIPEK_clean_linker_0, # of connection points: 2
#     Edge 59, Type (0, 0), BuildingBlock: EZIPEK_clean_linker_0, # of connection points: 2
#     Edge 60, Type (0, 0), BuildingBlock: EZIPEK_clean_linker_0, # of connection points: 2
#     Edge 61, Type (0, 0), BuildingBlock: EZIPEK_clean_linker_0, # of connection points: 2
#     Edge 62, Type (0, 0), BuildingBlock: EZIPEK_clean_linker_0, # of connection points: 2
#     Edge 63, Type (0, 0), BuildingBlock: EZIPEK_clean_linker_0, # of connection points: 2
#     Edge 64, Type (0, 0), BuildingBlock: EZIPEK_clean_linker_0, # of connection points: 2
#     Edge 65, Type (0, 0), BuildingBlock: EZIPEK_clean_linker_0, # of connection points: 2
#     Edge 66, Type (0, 0), BuildingBlock: EZIPEK_clean_linker_0, # of connection points: 2
#     Edge 67, Type (0, 0), BuildingBlock: EZIPEK_clean_linker_0, # of connection points: 2
#     Edge 68, Type (0, 0), BuildingBlock: EZIPEK_clean_linker_0, # of connection points: 2
#     Edge 69, Type (0, 0), BuildingBlock: EZIPEK_clean_linker_0, # of connection points: 2
#     Edge 70, Type (0, 0), BuildingBlock: EZIPEK_clean_linker_0, # of connection points: 2
#     Edge 71, Type (0, 0), BuildingBlock: EZIPEK_clean_linker_0, # of connection points: 2
#     Edge 72, Type (0, 0), BuildingBlock: EZIPEK_clean_linker_0, # of connection points: 2
#     Edge 73, Type (0, 0), BuildingBlock: EZIPEK_clean_linker_0, # of connection points: 2
#     Edge 74, Type (0, 0), BuildingBlock: EZIPEK_clean_linker_0, # of connection points: 2
#     Edge 75, Type (0, 0), BuildingBlock: EZIPEK_clean_linker_0, # of connection points: 2
#     Edge 76, Type (0, 0), BuildingBlock: EZIPEK_clean_linker_0, # of connection points: 2
#     Edge 77, Type (0, 0), BuildingBlock: EZIPEK_clean_linker_0, # of connection points: 2
#     Edge 78, Type (0, 0), BuildingBlock: EZIPEK_clean_linker_0, # of connection points: 2
#     Edge 79, Type (0, 0), BuildingBlock: EZIPEK_clean_linker_0, # of connection points: 2
#     Edge 80, Type (0, 0), BuildingBlock: EZIPEK_clean_linker_0, # of connection points: 2
#     Edge 81, Type (0, 0), BuildingBlock: EZIPEK_clean_linker_0, # of connection points: 2
#     Edge 82, Type (0, 0), BuildingBlock: EZIPEK_clean_linker_0, # of connection points: 2
#     Edge 83, Type (0, 0), BuildingBlock: EZIPEK_clean_linker_0, # of connection points: 2
#     Edge 84, Type (0, 0), BuildingBlock: EZIPEK_clean_linker_0, # of connection points: 2
#     Edge 85, Type (0, 0), BuildingBlock: EZIPEK_clean_linker_0, # of connection points: 2
#     Edge 86, Type (0, 0), BuildingBlock: EZIPEK_clean_linker_0, # of connection points: 2
#     Edge 87, Type (0, 0), BuildingBlock: EZIPEK_clean_linker_0, # of connection points: 2
#     Edge 88, Type (0, 0), BuildingBlock: EZIPEK_clean_linker_0, # of connection points: 2
#     Edge 89, Type (0, 0), BuildingBlock: EZIPEK_clean_linker_0, # of connection points: 2
#     Edge 90, Type (0, 0), BuildingBlock: EZIPEK_clean_linker_0, # of connection points: 2
#     Edge 91, Type (0, 0), BuildingBlock: EZIPEK_clean_linker_0, # of connection points: 2
#     Edge 92, Type (0, 0), BuildingBlock: EZIPEK_clean_linker_0, # of connection points: 2
#     Edge 93, Type (0, 0), BuildingBlock: EZIPEK_clean_linker_0, # of connection points: 2
#     Edge 94, Type (0, 0), BuildingBlock: EZIPEK_clean_linker_0, # of connection points: 2
#     Edge 95, Type (0, 0), BuildingBlock: EZIPEK_clean_linker_0, # of connection points: 2
#     Edge 96, Type (0, 0), BuildingBlock: EZIPEK_clean_linker_0, # of connection points: 2
#     Edge 97, Type (0, 0), BuildingBlock: EZIPEK_clean_linker_0, # of connection points: 2
#     Edge 98, Type (0, 0), BuildingBlock: EZIPEK_clean_linker_0, # of connection points: 2
#     Edge 99, Type (0, 0), BuildingBlock: EZIPEK_clean_linker_0, # of connection points: 2
#     Edge 100, Type (0, 0), BuildingBlock: EZIPEK_clean_linker_0, # of connection points: 2
#     Edge 101, Type (0, 0), BuildingBlock: EZIPEK_clean_linker_0, # of connection points: 2
#     Edge 102, Type (0, 0), BuildingBlock: EZIPEK_clean_linker_0, # of connection points: 2
#     Edge 103, Type (0, 0), BuildingBlock: EZIPEK_clean_linker_0, # of connection points: 2
#     Edge 104, Type (0, 0), BuildingBlock: EZIPEK_clean_linker_0, # of connection points: 2
#     Edge 105, Type (0, 0), BuildingBlock: EZIPEK_clean_linker_0, # of connection points: 2
#     Edge 106, Type (0, 0), BuildingBlock: EZIPEK_clean_linker_0, # of connection points: 2
#     Edge 107, Type (0, 0), BuildingBlock: EZIPEK_clean_linker_0, # of connection points: 2
#     Edge 108, Type (0, 0), BuildingBlock: EZIPEK_clean_linker_0, # of connection points: 2
#     Edge 109, Type (0, 0), BuildingBlock: EZIPEK_clean_linker_0, # of connection points: 2
#     Edge 110, Type (0, 0), BuildingBlock: EZIPEK_clean_linker_0, # of connection points: 2
#     Edge 111, Type (0, 0), BuildingBlock: EZIPEK_clean_linker_0, # of connection points: 2
#     Edge 112, Type (0, 0), BuildingBlock: EZIPEK_clean_linker_0, # of connection points: 2
#     Edge 113, Type (0, 0), BuildingBlock: EZIPEK_clean_linker_0, # of connection points: 2
#     Edge 114, Type (0, 0), BuildingBlock: EZIPEK_clean_linker_0, # of connection points: 2
#     Edge 115, Type (0, 0), BuildingBlock: EZIPEK_clean_linker_0, # of connection points: 2
#     Edge 116, Type (0, 0), BuildingBlock: EZIPEK_clean_linker_0, # of connection points: 2
#     Edge 117, Type (0, 0), BuildingBlock: EZIPEK_clean_linker_0, # of connection points: 2
#     Edge 118, Type (0, 0), BuildingBlock: EZIPEK_clean_linker_0, # of connection points: 2
#     Edge 119, Type (0, 0), BuildingBlock: EZIPEK_clean_linker_0, # of connection points: 2
#     Edge 120, Type (0, 0), BuildingBlock: EZIPEK_clean_linker_0, # of connection points: 2
#     Edge 121, Type (0, 0), BuildingBlock: EZIPEK_clean_linker_0, # of connection points: 2
#     Edge 122, Type (0, 0), BuildingBlock: EZIPEK_clean_linker_0, # of connection points: 2
#     Edge 123, Type (0, 0), BuildingBlock: EZIPEK_clean_linker_0, # of connection points: 2
#     Edge 124, Type (0, 0), BuildingBlock: EZIPEK_clean_linker_0, # of connection points: 2
#     Edge 125, Type (0, 0), BuildingBlock: EZIPEK_clean_linker_0, # of connection points: 2
#     Edge 126, Type (0, 0), BuildingBlock: EZIPEK_clean_linker_0, # of connection points: 2
#     Edge 127, Type (0, 0), BuildingBlock: EZIPEK_clean_linker_0, # of connection points: 2
#     Edge 128, Type (0, 0), BuildingBlock: EZIPEK_clean_linker_0, # of connection points: 2
#     Edge 129, Type (0, 0), BuildingBlock: EZIPEK_clean_linker_0, # of connection points: 2
#     Edge 130, Type (0, 0), BuildingBlock: EZIPEK_clean_linker_0, # of connection points: 2
#     Edge 131, Type (0, 0), BuildingBlock: EZIPEK_clean_linker_0, # of connection points: 2
#     Edge 132, Type (0, 0), BuildingBlock: EZIPEK_clean_linker_0, # of connection points: 2
#     Edge 133, Type (0, 0), BuildingBlock: EZIPEK_clean_linker_0, # of connection points: 2
#     Edge 134, Type (0, 0), BuildingBlock: EZIPEK_clean_linker_0, # of connection points: 2
#     Edge 135, Type (0, 0), BuildingBlock: EZIPEK_clean_linker_0, # of connection points: 2
#     Edge 136, Type (0, 0), BuildingBlock: EZIPEK_clean_linker_0, # of connection points: 2
#     Edge 137, Type (0, 0), BuildingBlock: EZIPEK_clean_linker_0, # of connection points: 2
#     Edge 138, Type (0, 0), BuildingBlock: EZIPEK_clean_linker_0, # of connection points: 2
#     Edge 139, Type (0, 0), BuildingBlock: EZIPEK_clean_linker_0, # of connection points: 2
#     Edge 140, Type (0, 0), BuildingBlock: EZIPEK_clean_linker_0, # of connection points: 2
#     Edge 141, Type (0, 0), BuildingBlock: EZIPEK_clean_linker_0, # of connection points: 2
#     Edge 142, Type (0, 0), BuildingBlock: EZIPEK_clean_linker_0, # of connection points: 2
#     Edge 143, Type (0, 0), BuildingBlock: EZIPEK_clean_linker_0, # of connection points: 2
#     Edge 144, Type (0, 0), BuildingBlock: EZIPEK_clean_linker_0, # of connection points: 2
#     Edge 145, Type (0, 0), BuildingBlock: EZIPEK_clean_linker_0, # of connection points: 2
#     Edge 146, Type (0, 0), BuildingBlock: EZIPEK_clean_linker_0, # of connection points: 2
#     Edge 147, Type (0, 0), BuildingBlock: EZIPEK_clean_linker_0, # of connection points: 2
#     Edge 148, Type (0, 0), BuildingBlock: EZIPEK_clean_linker_0, # of connection points: 2
#     Edge 149, Type (0, 0), BuildingBlock: EZIPEK_clean_linker_0, # of connection points: 2
#     Edge 150, Type (0, 0), BuildingBlock: EZIPEK_clean_linker_0, # of connection points: 2
#     Edge 151, Type (0, 0), BuildingBlock: EZIPEK_clean_linker_0, # of connection points: 2
#     Edge 152, Type (0, 0), BuildingBlock: EZIPEK_clean_linker_0, # of connection points: 2
#     Edge 153, Type (0, 0), BuildingBlock: EZIPEK_clean_linker_0, # of connection points: 2
#     Edge 154, Type (0, 0), BuildingBlock: EZIPEK_clean_linker_0, # of connection points: 2
#     Edge 155, Type (0, 0), BuildingBlock: EZIPEK_clean_linker_0, # of connection points: 2
#     Edge 156, Type (0, 0), BuildingBlock: EZIPEK_clean_linker_0, # of connection points: 2
#     Edge 157, Type (0, 0), BuildingBlock: EZIPEK_clean_linker_0, # of connection points: 2
#     Edge 158, Type (0, 0), BuildingBlock: EZIPEK_clean_linker_0, # of connection points: 2
#     Edge 159, Type (0, 0), BuildingBlock: EZIPEK_clean_linker_0, # of connection points: 2
#     Edge 160, Type (0, 0), BuildingBlock: EZIPEK_clean_linker_0, # of connection points: 2
#     Edge 161, Type (0, 0), BuildingBlock: EZIPEK_clean_linker_0, # of connection points: 2
#     Edge 162, Type (0, 0), BuildingBlock: EZIPEK_clean_linker_0, # of connection points: 2
#     Edge 163, Type (0, 0), BuildingBlock: EZIPEK_clean_linker_0, # of connection points: 2
#     Edge 164, Type (0, 0), BuildingBlock: EZIPEK_clean_linker_0, # of connection points: 2
#     Edge 165, Type (0, 0), BuildingBlock: EZIPEK_clean_linker_0, # of connection points: 2
#     Edge 166, Type (0, 0), BuildingBlock: EZIPEK_clean_linker_0, # of connection points: 2
#     Edge 167, Type (0, 0), BuildingBlock: EZIPEK_clean_linker_0, # of connection points: 2
# Relax obj value: 0.330
# Max RMSD: 0.262
# Mean RMSD: 0.262
data_MOF--net-fcd--node1-XOMCOT_clean_sbu_1--edge1-EZIPEK_clean_linker_0
_symmetry_space_group_name_H-M    P1
_symmetry_Int_Tables_number       1
_symmetry_cell_setting            triclinic
loop_
_symmetry_equiv_pos_as_xyz
'x, y, z'
_cell_length_a     52.86251
_cell_length_b     52.940702
_cell_length_c     52.88319
_cell_angle_alpha  89.968306
_cell_angle_beta   89.977038
_cell_angle_gamma 89.996449
loop_
_atom_site_label
_atom_site_type_symbol
_atom_site_fract_x
_atom_site_fract_y
_atom_site_fract_z
_atom_type_partial_charge
C0 C 0.05564 0.17649 0.40955 0.0
C1 C 0.03389 0.18735 0.41881 0.0
N2 N 0.03806 0.21227 0.42124 0.0
N3 N 0.07305 0.19456 0.40516 0.0
C4 C 0.06226 0.21593 0.41398 0.0
H5 H 0.05842 0.1568 0.40527 0.0
Co6 Co 0.10354 0.18791 0.38841 0.0
C7 C 0.09717 0.24377 0.36966 0.0
O8 O 0.07272 0.24743 0.37156 0.0
N9 N 0.13414 0.18043 0.37213 0.0
C10 C 0.16467 0.17844 0.34313 0.0
C11 C 0.14005 0.18558 0.3478 0.0
C12 C 0.15538 0.16995 0.38178 0.0
N13 N 0.17412 0.16867 0.36457 0.0
O14 O 0.12092 0.19761 0.41848 0.0
H15 H 0.12742 0.19442 0.3344 0.0
H16 H 0.15762 0.16405 0.40119 0.0
O17 O 0.10739 0.22271 0.37572 0.0
C18 C 0.12241 0.17918 0.43384 0.0
O19 O 0.11515 0.15677 0.42593 0.0
N20 N 0.08522 0.17649 0.35986 0.0
C21 C 0.04358 0.15281 0.3382 0.0
C22 C 0.04588 0.17914 0.33763 0.0
C23 C 0.06726 0.19058 0.34791 0.0
C24 C 0.0852 0.15085 0.35715 0.0
C25 C 0.06479 0.13857 0.34551 0.0
H26 H 0.06758 0.21064 0.34857 0.0
H27 H 0.09953 0.1397 0.36656 0.0
H28 H 0.07143 0.23411 0.41433 0.0
H29 H 0.01588 0.17805 0.4217 0.0
H30 H 0.17508 0.18092 0.32567 0.0
H31 H 0.03035 0.19091 0.33129 0.0
H32 H 0.06408 0.11813 0.34544 0.0
C33 C 0.94361 0.32579 0.41939 0.0
C34 C 0.96428 0.31292 0.42866 0.0
N35 N 0.96235 0.28871 0.42125 0.0
N36 N 0.92891 0.30977 0.40611 0.0
C37 C 0.9408 0.28724 0.40767 0.0
H38 H 0.94031 0.34588 0.42085 0.0
Co39 Co 0.90044 0.31969 0.388 0.0
C40 C 0.88251 0.2748 0.35921 0.0
O41 O 0.8723 0.28906 0.34167 0.0
N42 N 0.87099 0.33077 0.37 0.0
C43 C 0.8447 0.34978 0.34287 0.0
C44 C 0.86949 0.34407 0.3481 0.0
C45 C 0.84647 0.3284 0.37732 0.0
N46 N 0.83037 0.33998 0.36133 0.0
O47 O 0.88121 0.31438 0.41802 0.0
H48 H 0.88516 0.34947 0.33625 0.0
H49 H 0.84032 0.31881 0.39424 0.0
O50 O 0.89423 0.28479 0.37782 0.0
C51 C 0.87543 0.33444 0.42991 0.0
O52 O 0.87851 0.35626 0.41842 0.0
N53 N 0.92154 0.32626 0.36032 0.0
C54 C 0.96684 0.34109 0.33801 0.0
C55 C 0.95914 0.31576 0.33706 0.0
C56 C 0.93625 0.30864 0.34841 0.0
C57 C 0.92782 0.3512 0.35936 0.0
C58 C 0.94991 0.35913 0.34746 0.0
H59 H 0.93223 0.28876 0.35033 0.0
H60 H 0.91673 0.36476 0.36991 0.0
H61 H 0.93482 0.2704 0.39775 0.0
H62 H 0.98028 0.32098 0.43855 0.0
H63 H 0.83771 0.36072 0.32704 0.0
H64 H 0.97189 0.30131 0.33014 0.0
H65 H 0.9553 0.37885 0.34861 0.0
C66 C 0.05247 0.82674 0.08762 0.0
C67 C 0.03195 0.81234 0.08106 0.0
N68 N 0.03849 0.78788 0.08313 0.0
N69 N 0.07186 0.81145 0.094 0.0
C70 C 0.063 0.7878 0.09035 0.0
H71 H 0.05261 0.84707 0.08955 0.0
Co72 Co 0.10031 0.82311 0.11103 0.0
C73 C 0.12945 0.77615 0.11681 0.0
O74 O 0.14868 0.78587 0.10446 0.0
N75 N 0.12867 0.83559 0.12844 0.0
C76 C 0.15654 0.84469 0.15841 0.0
C77 C 0.13315 0.83468 0.15347 0.0
C78 C 0.14954 0.8467 0.11875 0.0
N79 N 0.16682 0.85326 0.1366 0.0
O80 O 0.11951 0.8201 0.0804 0.0
H81 H 0.12075 0.82622 0.16733 0.0
H82 H 0.15264 0.84845 0.09869 0.0
O83 O 0.10946 0.78904 0.12058 0.0
C84 C 0.11464 0.83589 0.06291 0.0
O85 O 0.0979 0.85375 0.06707 0.0
N86 N 0.08012 0.82696 0.13987 0.0
C87 C 0.03589 0.83346 0.16709 0.0
C88 C 0.04898 0.81052 0.16844 0.0
C89 C 0.07116 0.80752 0.1544 0.0
C90 C 0.06953 0.85034 0.14135 0.0
C91 C 0.04712 0.85399 0.15476 0.0
H92 H 0.07949 0.78895 0.15352 0.0
H93 H 0.07685 0.86544 0.12964 0.0
H94 H 0.07341 0.77082 0.09502 0.0
H95 H 0.01314 0.81921 0.07675 0.0
H96 H 0.16551 0.8438 0.17669 0.0
H97 H 0.04074 0.79438 0.17799 0.0
H98 H 0.03747 0.87201 0.15356 0.0
C99 C 0.94144 0.67681 0.07703 0.0
C100 C 0.96183 0.69059 0.06879 0.0
N101 N 0.9622 0.71232 0.08184 0.0
N102 N 0.92895 0.68992 0.09504 0.0
C103 C 0.94225 0.71152 0.09773 0.0
H104 H 0.93677 0.65789 0.07105 0.0
Co105 Co 0.90205 0.67699 0.11355 0.0
C106 C 0.87432 0.72087 0.13621 0.0
O107 O 0.86579 0.7071 0.15504 0.0
N108 N 0.87489 0.66247 0.13163 0.0
C109 C 0.85172 0.63833 0.15743 0.0
C110 C 0.87579 0.64675 0.15182 0.0
C111 C 0.8501 0.66303 0.12523 0.0
N112 N 0.83578 0.64865 0.14059 0.0
O113 O 0.88186 0.67865 0.08389 0.0
H114 H 0.89287 0.64097 0.16144 0.0
H115 H 0.84257 0.67342 0.1093 0.0
O116 O 0.89057 0.7112 0.1212 0.0
C117 C 0.88169 0.65982 0.06908 0.0
O118 O 0.89302 0.63883 0.07599 0.0
N119 N 0.92337 0.67489 0.14172 0.0
C120 C 0.96444 0.66998 0.17428 0.0
C121 C 0.94553 0.68791 0.17918 0.0
C122 C 0.92539 0.6906 0.16213 0.0
C123 C 0.94037 0.65592 0.13817 0.0
C124 C 0.96126 0.65342 0.1539 0.0
H125 H 0.91218 0.70575 0.1651 0.0
H126 H 0.93837 0.64351 0.12205 0.0
H127 H 0.93824 0.72574 0.11187 0.0
H128 H 0.97599 0.68469 0.05523 0.0
H129 H 0.84645 0.62501 0.17205 0.0
H130 H 0.94689 0.70041 0.19532 0.0
H131 H 0.97523 0.63902 0.14977 0.0
C132 C 0.42612 0.04549 0.17872 0.0
C133 C 0.43205 0.02473 0.19317 0.0
N134 N 0.42478 0.02943 0.21709 0.0
N135 N 0.41471 0.06291 0.19342 0.0
C136 C 0.41483 0.05288 0.21688 0.0
H137 H 0.42857 0.04719 0.1585 0.0
Co138 Co 0.39846 0.09118 0.18078 0.0
C139 C 0.3708 0.11551 0.22425 0.0
O140 O 0.36115 0.13364 0.21042 0.0
N141 N 0.38214 0.11993 0.16662 0.0
C142 C 0.3544 0.14564 0.14774 0.0
C143 C 0.3588 0.12141 0.15602 0.0
C144 C 0.39147 0.14364 0.16415 0.0
N145 N 0.37505 0.15943 0.15286 0.0
O146 O 0.42823 0.11015 0.18833 0.0
H147 H 0.34545 0.10608 0.15438 0.0
H148 H 0.40976 0.14973 0.17074 0.0
O149 O 0.38497 0.09862 0.21439 0.0
C150 C 0.44269 0.11285 0.16931 0.0
O151 O 0.43398 0.10602 0.14704 0.0
N152 N 0.37102 0.07072 0.17252 0.0
C153 C 0.3404 0.03075 0.15773 0.0
C154 C 0.33529 0.04386 0.18022 0.0
C155 C 0.3514 0.06345 0.18772 0.0
C156 C 0.37453 0.05986 0.14948 0.0
C157 C 0.35972 0.03955 0.14188 0.0
H158 H 0.34867 0.07174 0.20611 0.0
H159 H 0.39011 0.06596 0.13771 0.0
H160 H 0.40608 0.06157 0.2332 0.0
H161 H 0.43994 0.00708 0.18648 0.0
H162 H 0.33749 0.1526 0.13852 0.0
H163 H 0.3202 0.03777 0.19267 0.0
H164 H 0.36402 0.0301 0.12423 0.0
C165 C 0.55406 0.4323 0.20091 0.0
C166 C 0.54952 0.45318 0.21576 0.0
N167 N 0.5718 0.4611 0.22506 0.0
N168 N 0.57905 0.42694 0.20116 0.0
C169 C 0.58925 0.44491 0.21613 0.0
H170 H 0.53987 0.42167 0.19084 0.0
Co171 Co 0.59609 0.40062 0.18479 0.0
C172 C 0.62876 0.3766 0.22503 0.0
O173 O 0.64316 0.36511 0.20843 0.0
N174 N 0.61305 0.37406 0.1678 0.0
C175 C 0.6365 0.35267 0.14003 0.0
C176 C 0.63004 0.37624 0.14874 0.0
C177 C 0.60935 0.34881 0.17007 0.0
N178 N 0.62347 0.33557 0.1535 0.0
O179 O 0.56706 0.37943 0.19059 0.0
H180 H 0.63696 0.39378 0.14097 0.0
H181 H 0.59633 0.34025 0.18333 0.0
O182 O 0.61062 0.39084 0.21763 0.0
C183 C 0.55429 0.37469 0.17068 0.0
O184 O 0.56456 0.37976 0.14861 0.0
N185 N 0.62243 0.42297 0.17726 0.0
C186 C 0.64978 0.46598 0.16512 0.0
C187 C 0.65793 0.45017 0.18474 0.0
C188 C 0.64397 0.42843 0.19046 0.0
C189 C 0.61533 0.4374 0.15716 0.0
C190 C 0.62882 0.45897 0.15067 0.0
H191 H 0.64927 0.41758 0.20674 0.0
H192 H 0.59814 0.43282 0.14706 0.0
H193 H 0.60905 0.446 0.22098 0.0
H194 H 0.53137 0.46194 0.21941 0.0
H195 H 0.64917 0.34837 0.12453 0.0
H196 H 0.67394 0.4554 0.19639 0.0
H197 H 0.62203 0.47094 0.13549 0.0
C198 C 0.41694 0.934 0.32965 0.0
C199 C 0.42666 0.95509 0.31795 0.0
N200 N 0.42057 0.95383 0.29332 0.0
N201 N 0.40477 0.91965 0.31243 0.0
C202 C 0.4074 0.93222 0.29036 0.0
H203 H 0.41751 0.92999 0.34969 0.0
Co204 Co 0.38617 0.89124 0.32132 0.0
C205 C 0.35316 0.88198 0.27593 0.0
O206 O 0.33243 0.88024 0.28939 0.0
N207 N 0.3679 0.86225 0.33197 0.0
C208 C 0.33899 0.83332 0.34279 0.0
C209 C 0.34288 0.85813 0.33591 0.0
C210 C 0.3787 0.84014 0.33862 0.0
N211 N 0.36171 0.82216 0.34433 0.0
O212 O 0.41484 0.87059 0.31157 0.0
H213 H 0.32816 0.87217 0.33414 0.0
H214 H 0.39868 0.83705 0.33969 0.0
O215 O 0.37423 0.88716 0.28653 0.0
C216 C 0.43424 0.86946 0.32574 0.0
O217 O 0.43379 0.88076 0.34782 0.0
N218 N 0.35926 0.91262 0.33058 0.0
C219 C 0.33501 0.95534 0.34931 0.0
C220 C 0.33811 0.95203 0.32325 0.0
C221 C 0.35021 0.93046 0.31422 0.0
C222 C 0.354 0.91425 0.35577 0.0
C223 C 0.34103 0.93515 0.36547 0.0
H224 H 0.35487 0.92977 0.29439 0.0
H225 H 0.36175 0.9004 0.36867 0.0
H226 H 0.39851 0.92663 0.27281 0.0
H227 H 0.43601 0.97086 0.32701 0.0
H228 H 0.32101 0.82414 0.34619 0.0
H229 H 0.33345 0.96706 0.31015 0.0
H230 H 0.33858 0.93691 0.38573 0.0
C231 C 0.58729 0.56249 0.32906 0.0
C232 C 0.57819 0.54217 0.3157 0.0
N233 N 0.58814 0.54305 0.29231 0.0
N234 N 0.603 0.57593 0.31417 0.0
C235 C 0.60313 0.56361 0.29177 0.0
H236 H 0.58367 0.56661 0.34873 0.0
Co237 Co 0.62101 0.60359 0.3256 0.0
C238 C 0.65322 0.62086 0.28294 0.0
O239 O 0.67092 0.62839 0.29862 0.0
N240 N 0.639 0.6323 0.33799 0.0
C241 C 0.66361 0.65805 0.36066 0.0
C242 C 0.65908 0.6334 0.35392 0.0
C243 C 0.63235 0.65683 0.33481 0.0
N244 N 0.64664 0.6726 0.34872 0.0
O245 O 0.59144 0.62346 0.31949 0.0
H246 H 0.66965 0.6175 0.361 0.0
H247 H 0.61653 0.66315 0.32354 0.0
O248 O 0.6331 0.61042 0.29138 0.0
C249 C 0.57936 0.62986 0.33932 0.0
O250 O 0.5908 0.62776 0.36129 0.0
N251 N 0.64769 0.5818 0.33331 0.0
C252 C 0.66592 0.53504 0.34861 0.0
C253 C 0.66881 0.54293 0.32347 0.0
C254 C 0.65968 0.56666 0.31614 0.0
C255 C 0.6464 0.57495 0.35814 0.0
C256 C 0.65617 0.55196 0.36638 0.0
H257 H 0.65936 0.57116 0.29625 0.0
H258 H 0.63547 0.5863 0.37117 0.0
H259 H 0.61477 0.56882 0.27576 0.0
H260 H 0.5661 0.52729 0.32286 0.0
H261 H 0.67744 0.66469 0.3742 0.0
H262 H 0.67592 0.53001 0.30926 0.0
H263 H 0.65332 0.54618 0.38583 0.0
C264 C 0.17302 0.42898 0.04469 0.0
C265 C 0.18581 0.43539 0.02291 0.0
N266 N 0.21054 0.43086 0.02671 0.0
N267 N 0.18963 0.42011 0.06191 0.0
C268 C 0.21246 0.42245 0.05068 0.0
H269 H 0.15271 0.42907 0.04716 0.0
Co270 Co 0.18058 0.40377 0.0918 0.0
C271 C 0.22714 0.37503 0.10866 0.0
O272 O 0.2138 0.35869 0.12168 0.0
N273 N 0.17015 0.38742 0.12235 0.0
C274 C 0.15318 0.35998 0.14972 0.0
C275 C 0.16007 0.36398 0.12499 0.0
C276 C 0.16881 0.39721 0.14603 0.0
N277 N 0.15851 0.381 0.16281 0.0
O278 O 0.18808 0.43423 0.10935 0.0
H279 H 0.15774 0.3503 0.11005 0.0
H280 H 0.17493 0.41594 0.15117 0.0
O281 O 0.21607 0.39274 0.09648 0.0
C282 C 0.16823 0.44751 0.11208 0.0
O283 O 0.14636 0.43718 0.10626 0.0
N284 N 0.17121 0.37555 0.07258 0.0
C285 C 0.15342 0.34916 0.03093 0.0
C286 C 0.17788 0.34465 0.04012 0.0
C287 C 0.18641 0.35798 0.06135 0.0
C288 C 0.14649 0.37776 0.06563 0.0
C289 C 0.13714 0.36466 0.04481 0.0
H290 H 0.20558 0.35538 0.06736 0.0
H291 H 0.13469 0.39173 0.07478 0.0
H292 H 0.2301 0.41665 0.0591 0.0
H293 H 0.17746 0.44108 0.0051 0.0
H294 H 0.14454 0.34313 0.15747 0.0
H295 H 0.19087 0.33268 0.02977 0.0
H296 H 0.11817 0.36859 0.03811 0.0
C297 C 0.17159 0.58105 0.44283 0.0
C298 C 0.18205 0.57035 0.46422 0.0
N299 N 0.20613 0.57833 0.46586 0.0
N300 N 0.18899 0.59577 0.43132 0.0
C301 C 0.20979 0.5937 0.44593 0.0
H302 H 0.15218 0.57921 0.43668 0.0
Co303 Co 0.18284 0.61594 0.4031 0.0
C304 C 0.23191 0.64084 0.39256 0.0
O305 O 0.22129 0.66311 0.39527 0.0
N306 N 0.17597 0.63632 0.37388 0.0
C307 C 0.16475 0.6676 0.34757 0.0
C308 C 0.1706 0.66137 0.37217 0.0
C309 C 0.17402 0.62823 0.34966 0.0
N310 N 0.16687 0.64657 0.33366 0.0
O311 O 0.18496 0.58596 0.38321 0.0
H312 H 0.17048 0.67456 0.38772 0.0
H313 H 0.17695 0.60911 0.34346 0.0
O314 O 0.21892 0.62098 0.39685 0.0
C315 C 0.16434 0.57565 0.37638 0.0
O316 O 0.14322 0.5885 0.37908 0.0
N317 N 0.17888 0.64372 0.42482 0.0
C318 C 0.16206 0.66668 0.46898 0.0
C319 C 0.18798 0.66313 0.46481 0.0
C320 C 0.19609 0.65156 0.44246 0.0
C321 C 0.15388 0.64937 0.42765 0.0
C322 C 0.14516 0.66171 0.4492 0.0
H323 H 0.21576 0.64645 0.4409 0.0
H324 H 0.14029 0.64214 0.41418 0.0
H325 H 0.22672 0.60471 0.44338 0.0
H326 H 0.17246 0.5588 0.47812 0.0
H327 H 0.15853 0.6858 0.34062 0.0
H328 H 0.20155 0.66687 0.47968 0.0
H329 H 0.12499 0.66427 0.45181 0.0
C330 C 0.82372 0.91627 0.44277 0.0
C331 C 0.81213 0.92487 0.46446 0.0
N332 N 0.78724 0.92004 0.46254 0.0
N333 N 0.80621 0.90603 0.42729 0.0
C334 C 0.78411 0.9089 0.43981 0.0
H335 H 0.84387 0.9159 0.43925 0.0
Co336 Co 0.81444 0.8877 0.39814 0.0
C337 C 0.76605 0.85794 0.38975 0.0
O338 O 0.7763 0.83548 0.39174 0.0
N339 N 0.82377 0.86945 0.36874 0.0
C340 C 0.83123 0.83907 0.34038 0.0
C341 C 0.82427 0.84414 0.36492 0.0
C342 C 0.83171 0.87914 0.34644 0.0
N343 N 0.83571 0.86118 0.32888 0.0
O344 O 0.80717 0.9174 0.37818 0.0
H345 H 0.82014 0.82998 0.37901 0.0
H346 H 0.83487 0.89889 0.343 0.0
O347 O 0.77915 0.87797 0.39286 0.0
C348 C 0.82345 0.93509 0.37809 0.0
O349 O 0.84499 0.93176 0.38996 0.0
N350 N 0.82221 0.85988 0.41878 0.0
C351 C 0.84115 0.83478 0.46079 0.0
C352 C 0.81505 0.83756 0.45757 0.0
C353 C 0.80592 0.85062 0.43656 0.0
C354 C 0.84735 0.8542 0.41994 0.0
C355 C 0.8572 0.84101 0.4406 0.0
H356 H 0.78622 0.85579 0.43636 0.0
H357 H 0.86018 0.86213 0.40612 0.0
H358 H 0.7663 0.90143 0.43332 0.0
H359 H 0.82147 0.93206 0.4812 0.0
H360 H 0.83264 0.82067 0.33157 0.0
H361 H 0.80208 0.83241 0.47256 0.0
H362 H 0.8775 0.8388 0.44234 0.0
C363 C 0.32345 0.58152 0.55286 0.0
C364 C 0.30899 0.57338 0.53279 0.0
N365 N 0.2845 0.57622 0.53905 0.0
N366 N 0.30809 0.58995 0.57142 0.0
C367 C 0.28447 0.58546 0.56279 0.0
H368 H 0.34386 0.58279 0.55319 0.0
Co369 Co 0.31854 0.60825 0.59975 0.0
C370 C 0.2728 0.63611 0.61831 0.0
O371 O 0.2864 0.65425 0.62834 0.0
N372 N 0.32992 0.62658 0.6286 0.0
C373 C 0.3504 0.65347 0.65393 0.0
C374 C 0.34403 0.64796 0.62934 0.0
C375 C 0.32776 0.61981 0.65323 0.0
N376 N 0.34037 0.63552 0.66877 0.0
O377 O 0.31347 0.57871 0.61918 0.0
H378 H 0.35 0.65888 0.61318 0.0
H379 H 0.31777 0.60328 0.65982 0.0
O380 O 0.28348 0.61798 0.60654 0.0
C381 C 0.33371 0.56745 0.62549 0.0
O382 O 0.35536 0.57939 0.62285 0.0
N383 N 0.32536 0.63566 0.57858 0.0
C384 C 0.33956 0.65908 0.53391 0.0
C385 C 0.31562 0.66373 0.54436 0.0
C386 C 0.30885 0.65179 0.56705 0.0
C387 C 0.34956 0.63334 0.57 0.0
C388 C 0.35711 0.64498 0.54769 0.0
H389 H 0.28991 0.65407 0.57397 0.0
H390 H 0.36229 0.62029 0.57928 0.0
H391 H 0.26739 0.5903 0.57286 0.0
H392 H 0.31586 0.56756 0.5144 0.0
H393 H 0.36222 0.66887 0.66037 0.0
H394 H 0.30168 0.67464 0.53405 0.0
H395 H 0.37573 0.64104 0.54006 0.0
C396 C 0.94437 0.8208 0.58026 0.0
C397 C 0.96463 0.80589 0.57354 0.0
N398 N 0.95947 0.78204 0.58063 0.0
N399 N 0.92678 0.80638 0.59179 0.0
C400 C 0.93634 0.78274 0.59133 0.0
H401 H 0.94315 0.84109 0.57825 0.0
Co402 Co 0.89843 0.81897 0.60806 0.0
C403 C 0.88045 0.77844 0.64276 0.0
O404 O 0.87182 0.79501 0.65909 0.0
N405 N 0.86928 0.83244 0.62431 0.0
C406 C 0.843 0.85513 0.6483 0.0
C407 C 0.86785 0.84956 0.64333 0.0
C408 C 0.84476 0.8278 0.61836 0.0
N409 N 0.82864 0.84146 0.63255 0.0
O410 O 0.87929 0.81078 0.57856 0.0
H411 H 0.8836 0.85786 0.65321 0.0
H412 H 0.83869 0.81505 0.60362 0.0
O413 O 0.89122 0.78574 0.62238 0.0
C414 C 0.8741 0.82997 0.56504 0.0
O415 O 0.8779 0.85253 0.57473 0.0
N416 N 0.91936 0.82833 0.63494 0.0
C417 C 0.96266 0.84507 0.65949 0.0
C418 C 0.95407 0.82031 0.66309 0.0
C419 C 0.93244 0.81213 0.65024 0.0
C420 C 0.92695 0.8528 0.63236 0.0
C421 C 0.94833 0.8617 0.64482 0.0
H422 H 0.92824 0.79224 0.65037 0.0
H423 H 0.91735 0.86495 0.61898 0.0
H424 H 0.92751 0.76657 0.60019 0.0
H425 H 0.98232 0.81222 0.56539 0.0
H426 H 0.83597 0.86867 0.66194 0.0
H427 H 0.96537 0.80683 0.67358 0.0
H428 H 0.9549 0.88075 0.64118 0.0
C429 C 0.05633 0.67051 0.5909 0.0
C430 C 0.03345 0.67942 0.58204 0.0
N431 N 0.03352 0.7047 0.58447 0.0
N432 N 0.07037 0.69013 0.59914 0.0
C433 C 0.05603 0.71073 0.59467 0.0
H434 H 0.06202 0.65093 0.59221 0.0
Co435 Co 0.10179 0.68761 0.61472 0.0
C436 C 0.10746 0.73489 0.64321 0.0
O437 O 0.11442 0.72134 0.66288 0.0
N438 N 0.13461 0.68439 0.62911 0.0
C439 C 0.17571 0.69292 0.63366 0.0
C440 C 0.15234 0.70289 0.62932 0.0
C441 C 0.14837 0.66295 0.63227 0.0
N442 N 0.17338 0.66779 0.63503 0.0
O443 O 0.11716 0.69467 0.58299 0.0
H444 H 0.14951 0.72209 0.62329 0.0
H445 H 0.14095 0.64421 0.62897 0.0
O446 O 0.10131 0.72372 0.62272 0.0
C447 C 0.12296 0.67464 0.5711 0.0
O448 O 0.11942 0.6528 0.58238 0.0
N449 N 0.085 0.67922 0.64539 0.0
C450 C 0.04443 0.6578 0.67138 0.0
C451 C 0.04516 0.68376 0.66686 0.0
C452 C 0.0655 0.69411 0.65373 0.0
C453 C 0.0863 0.65461 0.65297 0.0
C454 C 0.06639 0.64361 0.66665 0.0
H455 H 0.06333 0.71327 0.64723 0.0
H456 H 0.10098 0.64249 0.64571 0.0
H457 H 0.06122 0.72976 0.6 0.0
H458 H 0.01756 0.66823 0.57563 0.0
H459 H 0.19349 0.70299 0.6323 0.0
H460 H 0.02881 0.69548 0.6707 0.0
H461 H 0.06663 0.62346 0.67023 0.0
C462 C 0.94554 0.17226 0.92009 0.0
C463 C 0.96574 0.18561 0.92962 0.0
N464 N 0.96235 0.21007 0.92374 0.0
N465 N 0.92967 0.18823 0.90807 0.0
C466 C 0.94031 0.2112 0.91094 0.0
H467 H 0.94341 0.15195 0.92043 0.0
Co468 Co 0.90175 0.17771 0.88922 0.0
C469 C 0.88827 0.22125 0.85604 0.0
O470 O 0.88666 0.20613 0.83644 0.0
N471 N 0.87306 0.16593 0.87053 0.0
C472 C 0.84751 0.14733 0.84234 0.0
C473 C 0.87199 0.15449 0.84759 0.0
C474 C 0.84869 0.16561 0.87854 0.0
N475 N 0.83299 0.15442 0.86186 0.0
O476 O 0.88109 0.18404 0.91819 0.0
H477 H 0.88785 0.15131 0.83514 0.0
H478 H 0.84231 0.17294 0.8965 0.0
O479 O 0.89502 0.21253 0.87759 0.0
C480 C 0.88208 0.16611 0.93419 0.0
O481 O 0.89417 0.1453 0.92809 0.0
N482 N 0.92393 0.16999 0.86256 0.0
C483 C 0.96981 0.15449 0.84213 0.0
C484 C 0.96236 0.17977 0.84051 0.0
C485 C 0.93938 0.18719 0.8511 0.0
C486 C 0.92971 0.14489 0.86172 0.0
C487 C 0.95231 0.13661 0.85089 0.0
H488 H 0.93583 0.20698 0.85271 0.0
H489 H 0.91788 0.13151 0.8717 0.0
H490 H 0.93299 0.22829 0.90265 0.0
H491 H 0.98256 0.17779 0.93827 0.0
H492 H 0.84094 0.13727 0.82578 0.0
H493 H 0.97539 0.19407 0.83379 0.0
H494 H 0.95746 0.11685 0.85231 0.0
C495 C 0.04677 0.32952 0.91092 0.0
C496 C 0.0267 0.3156 0.91994 0.0
N497 N 0.03283 0.29101 0.91823 0.0
N498 N 0.06521 0.31374 0.90312 0.0
C499 C 0.0564 0.29039 0.90839 0.0
H500 H 0.04743 0.34983 0.90895 0.0
Co501 Co 0.09408 0.32433 0.88578 0.0
C502 C 0.10751 0.28056 0.85302 0.0
O503 O 0.10635 0.2947 0.83267 0.0
N504 N 0.12382 0.33565 0.86871 0.0
C505 C 0.15262 0.34778 0.84019 0.0
C506 C 0.1274 0.3428 0.84434 0.0
C507 C 0.14731 0.33699 0.87887 0.0
N508 N 0.16501 0.34425 0.86206 0.0
O509 O 0.1131 0.31844 0.91586 0.0
H510 H 0.1129 0.34366 0.82999 0.0
H511 H 0.15198 0.33195 0.89807 0.0
O512 O 0.10177 0.28968 0.8747 0.0
C513 C 0.11149 0.33642 0.93175 0.0
O514 O 0.09818 0.35653 0.92585 0.0
N515 N 0.07349 0.3317 0.85768 0.0
C516 C 0.0288 0.34822 0.83537 0.0
C517 C 0.03411 0.32241 0.8372 0.0
C518 C 0.05673 0.31452 0.84823 0.0
C519 C 0.06977 0.35689 0.85365 0.0
C520 C 0.0479 0.36555 0.84159 0.0
H521 H 0.05904 0.29475 0.85208 0.0
H522 H 0.08258 0.37045 0.86202 0.0
H523 H 0.06635 0.27316 0.90389 0.0
H524 H 0.00848 0.32284 0.92586 0.0
H525 H 0.16124 0.35341 0.82249 0.0
H526 H 0.01988 0.30847 0.83244 0.0
H527 H 0.0445 0.38568 0.84023 0.0
C528 C 0.58197 0.93802 0.82275 0.0
C529 C 0.57452 0.95833 0.80837 0.0
N530 N 0.58178 0.95407 0.78438 0.0
N531 N 0.59449 0.9214 0.80799 0.0
C532 C 0.59325 0.93131 0.78452 0.0
H533 H 0.57963 0.93616 0.84296 0.0
Co534 Co 0.61243 0.89388 0.82032 0.0
C535 C 0.64413 0.87401 0.77754 0.0
O536 O 0.6615 0.8654 0.79307 0.0
N537 N 0.63013 0.86594 0.83387 0.0
C538 C 0.65428 0.84194 0.85876 0.0
C539 C 0.64905 0.86621 0.85114 0.0
C540 C 0.62447 0.84115 0.83119 0.0
N541 N 0.63864 0.82635 0.84629 0.0
O542 O 0.58295 0.87361 0.81407 0.0
H543 H 0.65775 0.88293 0.85892 0.0
H544 H 0.60932 0.83402 0.81951 0.0
O545 O 0.62491 0.88598 0.78613 0.0
C546 C 0.57014 0.86783 0.83362 0.0
O547 O 0.58028 0.87186 0.85596 0.0
N548 N 0.63948 0.91579 0.82805 0.0
C549 C 0.66763 0.9578 0.84282 0.0
C550 C 0.67494 0.94353 0.82169 0.0
C551 C 0.66024 0.92276 0.81428 0.0
C552 C 0.63395 0.92791 0.85009 0.0
C553 C 0.64741 0.9492 0.85757 0.0
H554 H 0.66538 0.91314 0.79723 0.0
H555 H 0.61799 0.92171 0.86127 0.0
H556 H 0.60185 0.92295 0.76802 0.0
H557 H 0.56554 0.97542 0.81514 0.0
H558 H 0.66723 0.8363 0.87358 0.0
H559 H 0.69097 0.94925 0.81029 0.0
H560 H 0.64155 0.95934 0.87437 0.0
C561 C 0.43038 0.56815 0.80501 0.0
C562 C 0.43675 0.54791 0.79003 0.0
N563 N 0.4158 0.54027 0.77782 0.0
N564 N 0.40559 0.57348 0.80197 0.0
C565 C 0.3972 0.55599 0.78535 0.0
H566 H 0.44314 0.57834 0.81724 0.0
Co567 Co 0.38746 0.59951 0.81744 0.0
C568 C 0.35734 0.62388 0.77555 0.0
O569 O 0.34322 0.63713 0.79103 0.0
N570 N 0.36951 0.62592 0.8335 0.0
C571 C 0.34674 0.64792 0.86135 0.0
C572 C 0.35235 0.62412 0.85241 0.0
C573 C 0.37399 0.65103 0.83139 0.0
N574 N 0.36048 0.66464 0.84806 0.0
O575 O 0.41637 0.62105 0.81284 0.0
H576 H 0.34523 0.60664 0.86021 0.0
H577 H 0.38753 0.65924 0.81844 0.0
O578 O 0.37422 0.60885 0.78416 0.0
C579 C 0.42782 0.62669 0.8333 0.0
O580 O 0.41652 0.62186 0.85492 0.0
N581 N 0.36122 0.5769 0.82371 0.0
C582 C 0.33312 0.53399 0.83448 0.0
C583 C 0.32469 0.55114 0.81609 0.0
C584 C 0.33928 0.57261 0.81076 0.0
C585 C 0.3685 0.56134 0.84284 0.0
C586 C 0.35484 0.53967 0.84843 0.0
H587 H 0.33351 0.58485 0.7956 0.0
H588 H 0.38592 0.56516 0.85286 0.0
H589 H 0.3779 0.55486 0.77865 0.0
H590 H 0.45525 0.53929 0.78832 0.0
H591 H 0.33458 0.65252 0.87716 0.0
H592 H 0.30772 0.54735 0.80527 0.0
H593 H 0.36167 0.52695 0.86297 0.0
C594 C 0.58309 0.05023 0.67194 0.0
C595 C 0.57426 0.02878 0.68371 0.0
N596 N 0.58203 0.02944 0.70788 0.0
N597 N 0.59647 0.06414 0.68861 0.0
C598 C 0.59535 0.051 0.71046 0.0
H599 H 0.58099 0.05474 0.65212 0.0
Co600 Co 0.61392 0.0934 0.67994 0.0
C601 C 0.64384 0.10813 0.72502 0.0
O602 O 0.66307 0.11437 0.71067 0.0
N603 N 0.63099 0.12352 0.66996 0.0
C604 C 0.65809 0.15248 0.65528 0.0
C605 C 0.65463 0.12727 0.66067 0.0
C606 C 0.62061 0.14687 0.66958 0.0
N607 N 0.6364 0.1646 0.66051 0.0
O608 O 0.58375 0.11182 0.68603 0.0
H609 H 0.66889 0.11286 0.65832 0.0
H610 H 0.60176 0.15131 0.67594 0.0
O611 O 0.62374 0.09897 0.71519 0.0
C612 C 0.56878 0.1131 0.66727 0.0
O613 O 0.57581 0.10346 0.64549 0.0
N614 N 0.64222 0.07357 0.67285 0.0
C615 C 0.66391 0.02898 0.65634 0.0
C616 C 0.66377 0.0349 0.68212 0.0
C617 C 0.65266 0.05741 0.69009 0.0
C618 C 0.64541 0.06961 0.64759 0.0
C619 C 0.65709 0.0477 0.63886 0.0
H620 H 0.64923 0.05974 0.71003 0.0
H621 H 0.63629 0.08205 0.63416 0.0
H622 H 0.6052 0.05627 0.72759 0.0
H623 H 0.56421 0.01327 0.67495 0.0
H624 H 0.67499 0.16116 0.64763 0.0
H625 H 0.66918 0.02094 0.69609 0.0
H626 H 0.65722 0.04376 0.61876 0.0
C627 C 0.41967 0.44038 0.67028 0.0
C628 C 0.42586 0.46152 0.68399 0.0
N629 N 0.41527 0.45935 0.707 0.0
N630 N 0.40554 0.42475 0.68469 0.0
C631 C 0.4033 0.43686 0.7071 0.0
H632 H 0.4238 0.4375 0.65049 0.0
Co633 Co 0.38935 0.39583 0.67244 0.0
C634 C 0.35792 0.37633 0.7145 0.0
O635 O 0.3404 0.36865 0.69871 0.0
N636 N 0.37326 0.36634 0.6592 0.0
C637 C 0.34781 0.33907 0.63922 0.0
C638 C 0.35178 0.36398 0.64529 0.0
C639 C 0.38168 0.34226 0.66143 0.0
N640 N 0.3666 0.32555 0.64949 0.0
O641 O 0.41974 0.3772 0.67836 0.0
H642 H 0.33914 0.37905 0.64005 0.0
H643 H 0.39865 0.33681 0.67145 0.0
O644 O 0.37777 0.38742 0.70634 0.0
C645 C 0.43582 0.37947 0.6606 0.0
O646 O 0.42928 0.3919 0.64011 0.0
N647 N 0.36117 0.41585 0.66554 0.0
C648 C 0.33974 0.46149 0.65164 0.0
C649 C 0.33897 0.45359 0.6769 0.0
C650 C 0.3493 0.43023 0.68343 0.0
C651 C 0.36009 0.42242 0.64066 0.0
C652 C 0.34809 0.44452 0.63312 0.0
H653 H 0.35098 0.42582 0.70324 0.0
H654 H 0.37064 0.41163 0.62685 0.0
H655 H 0.39189 0.4302 0.72273 0.0
H656 H 0.43586 0.47799 0.67709 0.0
H657 H 0.33245 0.33145 0.62805 0.0
H658 H 0.33278 0.46631 0.6917 0.0
H659 H 0.34883 0.45006 0.6134 0.0
C660 C 0.81903 0.57495 0.94708 0.0
C661 C 0.80533 0.56661 0.96754 0.0
N662 N 0.78075 0.57135 0.96307 0.0
N663 N 0.80322 0.58527 0.92991 0.0
C664 C 0.7799 0.58207 0.93987 0.0
H665 H 0.83942 0.57504 0.94556 0.0
Co666 Co 0.815 0.60377 0.90221 0.0
C667 C 0.77342 0.63926 0.88834 0.0
O668 O 0.78947 0.65804 0.88612 0.0
N669 N 0.82822 0.62209 0.87407 0.0
C670 C 0.85033 0.64921 0.85034 0.0
C671 C 0.84068 0.6445 0.87399 0.0
C672 C 0.83033 0.61393 0.84986 0.0
N673 N 0.84396 0.62982 0.83534 0.0
O674 O 0.80695 0.57597 0.88096 0.0
H675 H 0.84332 0.6567 0.89012 0.0
H676 H 0.82281 0.59631 0.84288 0.0
O677 O 0.78109 0.61753 0.89568 0.0
C678 C 0.82388 0.5589 0.88075 0.0
O679 O 0.84488 0.56249 0.89353 0.0
N680 N 0.82435 0.62941 0.92464 0.0
C681 C 0.8418 0.65169 0.96865 0.0
C682 C 0.81695 0.65581 0.96069 0.0
C683 C 0.80846 0.64417 0.93864 0.0
C684 C 0.84921 0.62715 0.93112 0.0
C685 C 0.85842 0.63828 0.95311 0.0
H686 H 0.7887 0.64526 0.93449 0.0
H687 H 0.86135 0.61476 0.92029 0.0
H688 H 0.76273 0.58876 0.93113 0.0
H689 H 0.81292 0.55924 0.98507 0.0
H690 H 0.86208 0.66503 0.84481 0.0
H691 H 0.80364 0.66574 0.97268 0.0
H692 H 0.87766 0.63453 0.95907 0.0
C693 C 0.83182 0.42698 0.55279 0.0
C694 C 0.82262 0.43497 0.52971 0.0
N695 N 0.79791 0.429 0.52871 0.0
N696 N 0.81298 0.41601 0.56604 0.0
C697 C 0.79249 0.41782 0.55093 0.0
H698 H 0.8514 0.42728 0.55869 0.0
Co699 Co 0.8174 0.39754 0.59569 0.0
C700 C 0.76787 0.37173 0.60291 0.0
O701 O 0.77898 0.34967 0.60488 0.0
N702 N 0.82263 0.37865 0.62624 0.0
C703 C 0.83121 0.34755 0.65367 0.0
C704 C 0.82707 0.3535 0.62875 0.0
C705 C 0.82414 0.38735 0.65033 0.0
N706 N 0.8295 0.36893 0.66708 0.0
O707 O 0.81245 0.4281 0.61402 0.0
H708 H 0.82731 0.33987 0.61357 0.0
H709 H 0.82166 0.40678 0.65587 0.0
O710 O 0.78084 0.39152 0.59828 0.0
C711 C 0.83259 0.43954 0.62037 0.0
O712 O 0.85423 0.42748 0.61811 0.0
N713 N 0.82417 0.36902 0.57571 0.0
C714 C 0.84282 0.34323 0.53403 0.0
C715 C 0.81679 0.34649 0.53713 0.0
C716 C 0.80788 0.35989 0.55794 0.0
C717 C 0.8493 0.36332 0.57443 0.0
C718 C 0.85901 0.34975 0.55398 0.0
H719 H 0.78853 0.36565 0.5578 0.0
H720 H 0.86221 0.37145 0.58806 0.0
H721 H 0.77438 0.40923 0.55504 0.0
H722 H 0.83356 0.44254 0.51415 0.0
H723 H 0.83554 0.3291 0.66136 0.0
H724 H 0.80375 0.34154 0.52213 0.0
H725 H 0.87929 0.3474 0.55216 0.0
C726 C 0.165 0.09384 0.55656 0.0
C727 C 0.17481 0.08382 0.5346 0.0
N728 N 0.19963 0.08912 0.5341 0.0
N729 N 0.1836 0.10537 0.56975 0.0
C730 C 0.20444 0.1023 0.55533 0.0
H731 H 0.14531 0.09362 0.56204 0.0
Co732 Co 0.17834 0.12283 0.60009 0.0
C733 C 0.22782 0.14678 0.61164 0.0
O734 O 0.21716 0.16919 0.61133 0.0
N735 N 0.17193 0.1399 0.63136 0.0
C736 C 0.16351 0.16808 0.66178 0.0
C737 C 0.16806 0.16474 0.63633 0.0
C738 C 0.16972 0.12878 0.65437 0.0
N739 N 0.16442 0.14533 0.67294 0.0
O740 O 0.1811 0.09148 0.61731 0.0
H741 H 0.16866 0.17978 0.62255 0.0
H742 H 0.17229 0.10891 0.65799 0.0
O743 O 0.21468 0.12736 0.60588 0.0
C744 C 0.16141 0.07778 0.61853 0.0
O745 O 0.13979 0.08671 0.61017 0.0
N746 N 0.17439 0.1527 0.58113 0.0
C747 C 0.15779 0.17682 0.53751 0.0
C748 C 0.18357 0.17189 0.54107 0.0
C749 C 0.19158 0.16 0.56322 0.0
C750 C 0.14982 0.16036 0.57935 0.0
C751 C 0.14132 0.17347 0.55806 0.0
H752 H 0.21093 0.15366 0.56411 0.0
H753 H 0.13613 0.15379 0.59307 0.0
H754 H 0.22242 0.11102 0.55914 0.0
H755 H 0.16442 0.0745 0.51964 0.0
H756 H 0.15972 0.18575 0.67135 0.0
H757 H 0.19697 0.17464 0.52583 0.0
H758 H 0.1213 0.17742 0.55612 0.0
C759 C 0.68117 0.41003 0.44526 0.0
C760 C 0.69677 0.41925 0.46385 0.0
N761 N 0.72082 0.41629 0.45613 0.0
N762 N 0.69534 0.40122 0.42598 0.0
C763 C 0.7195 0.40562 0.43299 0.0
H764 H 0.66077 0.40876 0.44621 0.0
Co765 Co 0.68159 0.38462 0.39828 0.0
C766 C 0.7239 0.35431 0.37666 0.0
O767 O 0.70995 0.3338 0.37675 0.0
N768 N 0.66663 0.36818 0.36988 0.0
C769 C 0.64774 0.34077 0.34382 0.0
C770 C 0.65692 0.34454 0.36788 0.0
C771 C 0.66288 0.37828 0.3466 0.0
N772 N 0.65148 0.36208 0.33062 0.0
O773 O 0.68573 0.41479 0.37907 0.0
H774 H 0.65689 0.33045 0.38264 0.0
H775 H 0.66857 0.39707 0.341 0.0
O776 O 0.715 0.37422 0.38689 0.0
C777 C 0.66946 0.4319 0.38349 0.0
O778 O 0.65073 0.42696 0.39906 0.0
N779 N 0.67666 0.35633 0.41909 0.0
C780 C 0.66538 0.33142 0.46403 0.0
C781 C 0.69014 0.33122 0.45449 0.0
C782 C 0.69549 0.34417 0.43199 0.0
C783 C 0.6522 0.35473 0.42711 0.0
C784 C 0.6461 0.34213 0.44944 0.0
H785 H 0.71505 0.34678 0.42674 0.0
H786 H 0.63772 0.36547 0.41745 0.0
H787 H 0.73587 0.39991 0.42216 0.0
H788 H 0.69103 0.42651 0.4821 0.0
H789 H 0.63928 0.32366 0.33646 0.0
H790 H 0.70552 0.32368 0.46571 0.0
H791 H 0.62689 0.343 0.45654 0.0
C792 C 0.55882 0.66979 0.92826 0.0
C793 C 0.53715 0.68132 0.93716 0.0
N794 N 0.53571 0.70432 0.92649 0.0
N795 N 0.57074 0.68545 0.91201 0.0
C796 C 0.55608 0.70629 0.91132 0.0
H797 H 0.56477 0.6507 0.93228 0.0
Co798 Co 0.59906 0.67666 0.89294 0.0
C799 C 0.61454 0.72265 0.86552 0.0
O800 O 0.61545 0.70947 0.84449 0.0
N801 N 0.62817 0.6669 0.87376 0.0
C802 C 0.65472 0.64844 0.84645 0.0
C803 C 0.62988 0.65419 0.85153 0.0
C804 C 0.65258 0.66944 0.88105 0.0
N805 N 0.66885 0.65797 0.86517 0.0
O806 O 0.61866 0.67959 0.92335 0.0
H807 H 0.61432 0.64873 0.83959 0.0
H808 H 0.65855 0.67846 0.8983 0.0
O809 O 0.60687 0.712 0.88578 0.0
C810 C 0.62599 0.65961 0.93454 0.0
O811 O 0.62371 0.63794 0.92264 0.0
N812 N 0.57774 0.67236 0.8649 0.0
C813 C 0.53262 0.65846 0.84184 0.0
C814 C 0.53982 0.68393 0.8428 0.0
C815 C 0.56274 0.69053 0.85426 0.0
C816 C 0.57188 0.64746 0.86206 0.0
C817 C 0.55012 0.64005 0.84931 0.0
H818 H 0.56656 0.7103 0.8572 0.0
H819 H 0.58317 0.6333 0.87158 0.0
H820 H 0.55895 0.72189 0.89854 0.0
H821 H 0.52291 0.67302 0.9493 0.0
H822 H 0.66178 0.63724 0.83085 0.0
H823 H 0.5268 0.69867 0.83714 0.0
H824 H 0.54526 0.62018 0.84869 0.0
C825 C 0.44622 0.81998 0.91486 0.0
C826 C 0.46653 0.806 0.92323 0.0
N827 N 0.46144 0.78146 0.91907 0.0
N828 N 0.42858 0.80435 0.90518 0.0
C829 C 0.4383 0.78094 0.90832 0.0
H830 H 0.44487 0.84035 0.91478 0.0
Co831 Co 0.39956 0.81534 0.88822 0.0
C832 C 0.3825 0.76946 0.86032 0.0
O833 O 0.38412 0.78093 0.83835 0.0
N834 N 0.36976 0.82692 0.87136 0.0
C835 C 0.34136 0.83943 0.8426 0.0
C836 C 0.36611 0.83244 0.84658 0.0
C837 C 0.34666 0.83076 0.88188 0.0
N838 N 0.32929 0.83842 0.86489 0.0
O839 O 0.38132 0.8116 0.91893 0.0
H840 H 0.38024 0.83099 0.8319 0.0
H841 H 0.34213 0.82745 0.90149 0.0
O842 O 0.39001 0.7809 0.8801 0.0
C843 C 0.38378 0.82974 0.93446 0.0
O844 O 0.39663 0.84986 0.92765 0.0
N845 N 0.41952 0.8204 0.85921 0.0
C846 C 0.46491 0.83565 0.83734 0.0
C847 C 0.45897 0.80991 0.83935 0.0
C848 C 0.43584 0.80261 0.85006 0.0
C849 C 0.42377 0.8454 0.85462 0.0
C850 C 0.44595 0.85338 0.84276 0.0
H851 H 0.43275 0.78286 0.8541 0.0
H852 H 0.41127 0.85941 0.86271 0.0
H853 H 0.42962 0.76391 0.90123 0.0
H854 H 0.48411 0.8133 0.93078 0.0
H855 H 0.33279 0.84459 0.82474 0.0
H856 H 0.47303 0.79567 0.83501 0.0
H857 H 0.44976 0.87343 0.8412 0.0
C858 C 0.56028 0.3201 0.57799 0.0
C859 C 0.53947 0.30736 0.56886 0.0
N860 N 0.54131 0.28312 0.57619 0.0
N861 N 0.5751 0.30398 0.59109 0.0
C862 C 0.56305 0.28148 0.58944 0.0
H863 H 0.56347 0.34022 0.57659 0.0
Co864 Co 0.60372 0.31352 0.60989 0.0
C865 C 0.60917 0.26861 0.64389 0.0
O866 O 0.6082 0.28308 0.6641 0.0
N867 N 0.63317 0.32386 0.62799 0.0
C868 C 0.67191 0.32432 0.64484 0.0
C869 C 0.65019 0.31069 0.64196 0.0
C870 C 0.64564 0.34554 0.62249 0.0
N871 N 0.66947 0.34586 0.63184 0.0
O872 O 0.62482 0.30626 0.58102 0.0
H873 H 0.64963 0.291 0.64651 0.0
H874 H 0.63848 0.35944 0.60938 0.0
O875 O 0.60752 0.27863 0.62193 0.0
C876 C 0.62487 0.32388 0.5645 0.0
O877 O 0.61156 0.34435 0.56894 0.0
N878 N 0.58216 0.32274 0.63679 0.0
C879 C 0.53894 0.34286 0.65905 0.0
C880 C 0.54252 0.31676 0.6582 0.0
C881 C 0.56384 0.30704 0.64618 0.0
C882 C 0.58034 0.3482 0.64037 0.0
C883 C 0.55871 0.35875 0.65142 0.0
H884 H 0.56388 0.28714 0.64196 0.0
H885 H 0.59417 0.3606 0.63188 0.0
H886 H 0.56899 0.26453 0.59921 0.0
H887 H 0.52336 0.31557 0.55926 0.0
H888 H 0.68961 0.31704 0.65215 0.0
H889 H 0.52737 0.30406 0.66358 0.0
H890 H 0.55626 0.37906 0.65139 0.0
C891 C 0.44915 0.16859 0.58269 0.0
C892 C 0.46999 0.18187 0.57448 0.0
N893 N 0.46539 0.20662 0.5779 0.0
N894 N 0.43171 0.1849 0.59166 0.0
C895 C 0.44178 0.20798 0.58755 0.0
H896 H 0.44748 0.14825 0.58359 0.0
Co897 Co 0.40298 0.17518 0.60966 0.0
C898 C 0.38737 0.21938 0.64046 0.0
O899 O 0.38266 0.20462 0.65988 0.0
N900 N 0.37362 0.1645 0.62765 0.0
C901 C 0.34706 0.14382 0.6532 0.0
C902 C 0.372 0.1491 0.64809 0.0
C903 C 0.34917 0.16865 0.62116 0.0
N904 N 0.33287 0.15604 0.63612 0.0
O905 O 0.3838 0.18094 0.57969 0.0
H906 H 0.38773 0.1413 0.65843 0.0
H907 H 0.34327 0.17971 0.60504 0.0
O908 O 0.39653 0.21012 0.62009 0.0
C909 C 0.37692 0.161 0.56821 0.0
O910 O 0.37913 0.13925 0.58003 0.0
N911 N 0.42388 0.16768 0.63726 0.0
C912 C 0.46799 0.15204 0.66092 0.0
C913 C 0.45895 0.17661 0.66462 0.0
C914 C 0.43683 0.1842 0.65231 0.0
C915 C 0.4313 0.14307 0.63562 0.0
C916 C 0.45328 0.13477 0.64746 0.0
H917 H 0.43195 0.2038 0.65304 0.0
H918 H 0.42137 0.13043 0.62298 0.0
H919 H 0.43279 0.22546 0.59283 0.0
H920 H 0.48777 0.17395 0.56812 0.0
H921 H 0.33993 0.13096 0.66745 0.0
H922 H 0.47025 0.19044 0.67462 0.0
H923 H 0.45999 0.11574 0.64405 0.0
C924 C 0.92229 0.55689 0.67468 0.0
C925 C 0.92856 0.53386 0.68509 0.0
N926 N 0.92094 0.53395 0.70933 0.0
N927 N 0.91084 0.5713 0.69233 0.0
C928 C 0.91034 0.55676 0.71331 0.0
H929 H 0.92432 0.56216 0.65503 0.0
Co930 Co 0.89503 0.60193 0.68546 0.0
C931 C 0.8845 0.62307 0.73537 0.0
O932 O 0.89598 0.64398 0.72862 0.0
N933 N 0.87882 0.6329 0.67781 0.0
C934 C 0.84884 0.66198 0.67177 0.0
C935 C 0.85359 0.63735 0.6784 0.0
C936 C 0.88894 0.65528 0.67056 0.0
N937 N 0.87109 0.6731 0.66689 0.0
O938 O 0.92619 0.61875 0.69401 0.0
H939 H 0.83932 0.62358 0.68321 0.0
H940 H 0.90892 0.65881 0.66827 0.0
O941 O 0.88319 0.60449 0.72013 0.0
C942 C 0.94133 0.62095 0.67539 0.0
O943 O 0.9329 0.61519 0.65272 0.0
N944 N 0.86619 0.58396 0.67583 0.0
C945 C 0.84068 0.54301 0.65577 0.0
C946 C 0.84066 0.54712 0.68192 0.0
C947 C 0.85359 0.56791 0.69169 0.0
C948 C 0.86301 0.58237 0.65033 0.0
C949 C 0.84967 0.56221 0.63982 0.0
H950 H 0.85598 0.5691 0.71192 0.0
H951 H 0.87324 0.59514 0.63805 0.0
H952 H 0.90084 0.56191 0.73068 0.0
H953 H 0.93637 0.51773 0.67524 0.0
H954 H 0.83054 0.67112 0.67078 0.0
H955 H 0.83338 0.53294 0.69477 0.0
H956 H 0.84957 0.55979 0.61948 0.0
C957 C 0.07863 0.95708 0.6783 0.0
C958 C 0.07165 0.97735 0.69301 0.0
N959 N 0.07697 0.97167 0.71721 0.0
N960 N 0.08857 0.93894 0.69321 0.0
C961 C 0.08644 0.94803 0.71692 0.0
H962 H 0.07812 0.95632 0.65788 0.0
Co963 Co 0.10501 0.91044 0.68114 0.0
C964 C 0.14081 0.89476 0.72199 0.0
O965 O 0.15922 0.89261 0.70547 0.0
N966 N 0.12115 0.88124 0.66822 0.0
C967 C 0.14648 0.85347 0.64902 0.0
C968 C 0.14305 0.87852 0.65518 0.0
C969 C 0.11184 0.85749 0.66964 0.0
N970 N 0.12654 0.84046 0.65789 0.0
O971 O 0.07559 0.89121 0.68909 0.0
H972 H 0.15591 0.89361 0.65031 0.0
H973 H 0.09434 0.85234 0.67879 0.0
O974 O 0.11904 0.90279 0.71494 0.0
C975 C 0.05959 0.89146 0.67109 0.0
O976 O 0.06487 0.90431 0.65049 0.0
N977 N 0.13209 0.93113 0.67134 0.0
C978 C 0.15435 0.97519 0.65374 0.0
C979 C 0.15938 0.96665 0.67825 0.0
C980 C 0.14764 0.94467 0.68687 0.0
C981 C 0.12943 0.93781 0.64657 0.0
C982 C 0.14043 0.95989 0.63732 0.0
H983 H 0.14907 0.94044 0.70659 0.0
H984 H 0.11646 0.92738 0.6347 0.0
H985 H 0.09312 0.93835 0.73356 0.0
H986 H 0.06505 0.99552 0.68633 0.0
H987 H 0.16192 0.84554 0.63816 0.0
H988 H 0.16982 0.97835 0.69141 0.0
H989 H 0.13607 0.96616 0.61831 0.0
C990 C 0.90444 0.44137 0.82149 0.0
C991 C 0.91304 0.46168 0.80777 0.0
N992 N 0.90837 0.45714 0.78319 0.0
N993 N 0.89426 0.42425 0.80563 0.0
C994 C 0.89733 0.43417 0.7823 0.0
H995 H 0.90466 0.43959 0.84186 0.0
Co996 Co 0.87826 0.39522 0.81675 0.0
C997 C 0.84711 0.37607 0.77407 0.0
O998 O 0.83061 0.36598 0.78965 0.0
N999 N 0.86254 0.36531 0.82923 0.0
C1000 C 0.8408 0.33787 0.85291 0.0
C1001 C 0.84337 0.36282 0.8461 0.0
C1002 C 0.87072 0.34131 0.82569 0.0
N1003 N 0.85815 0.3245 0.84014 0.0
O1004 O 0.90895 0.37749 0.81003 0.0
H1005 H 0.8323 0.37801 0.85392 0.0
H1006 H 0.88651 0.33619 0.8138 0.0
O1007 O 0.86636 0.38795 0.7826 0.0
C1008 C 0.9223 0.37361 0.82964 0.0
O1009 O 0.91187 0.37741 0.85189 0.0
N1010 N 0.84998 0.41498 0.82446 0.0
C1011 C 0.82677 0.4599 0.83838 0.0
C1012 C 0.8238 0.45051 0.81381 0.0
C1013 C 0.83603 0.42808 0.80705 0.0
C1014 C 0.85101 0.42288 0.84896 0.0
C1015 C 0.83929 0.44521 0.85641 0.0
H1016 H 0.83686 0.42341 0.78726 0.0
H1017 H 0.86332 0.41323 0.86215 0.0
H1018 H 0.89063 0.42541 0.76507 0.0
H1019 H 0.92122 0.47887 0.81525 0.0
H1020 H 0.82809 0.33028 0.86706 0.0
H1021 H 0.81478 0.46187 0.79936 0.0
H1022 H 0.84224 0.45223 0.87542 0.0
C1023 C 0.08885 0.0647 0.83148 0.0
C1024 C 0.07853 0.04397 0.81968 0.0
N1025 N 0.0853 0.04485 0.7952 0.0
N1026 N 0.10223 0.07827 0.81453 0.0
C1027 C 0.09959 0.06577 0.79249 0.0
H1028 H 0.08765 0.06909 0.8514 0.0
Co1029 Co 0.11995 0.10701 0.8232 0.0
C1030 C 0.1493 0.12351 0.77864 0.0
O1031 O 0.16804 0.12971 0.79371 0.0
N1032 N 0.1372 0.13701 0.83331 0.0
C1033 C 0.15986 0.16574 0.85444 0.0
C1034 C 0.15711 0.14043 0.84912 0.0
C1035 C 0.12893 0.16078 0.8287 0.0
N1036 N 0.14193 0.17834 0.84169 0.0
O1037 O 0.08916 0.12518 0.81844 0.0
H1038 H 0.16858 0.12574 0.85728 0.0
H1039 H 0.11269 0.16528 0.8172 0.0
O1040 O 0.1292 0.11353 0.78777 0.0
C1041 C 0.07719 0.13112 0.83843 0.0
O1042 O 0.08903 0.12931 0.8602 0.0
N1043 N 0.14846 0.08664 0.82909 0.0
C1044 C 0.16919 0.04035 0.843 0.0
C1045 C 0.16893 0.04777 0.81759 0.0
C1046 C 0.15846 0.07113 0.81096 0.0
C1047 C 0.15092 0.08062 0.85404 0.0
C1048 C 0.16227 0.05804 0.86146 0.0
H1049 H 0.15505 0.07464 0.79119 0.0
H1050 H 0.14139 0.09193 0.86816 0.0
H1051 H 0.10882 0.07114 0.77502 0.0
H1052 H 0.06796 0.02883 0.8285 0.0
H1053 H 0.17301 0.1741 0.86771 0.0
H1054 H 0.17395 0.03451 0.80282 0.0
H1055 H 0.16211 0.05287 0.88129 0.0
C1056 C 0.67389 0.9125 0.55707 0.0
C1057 C 0.68752 0.92114 0.53663 0.0
N1058 N 0.71164 0.91344 0.53931 0.0
N1059 N 0.68929 0.89923 0.57243 0.0
C1060 C 0.71231 0.90053 0.56136 0.0
H1061 H 0.65376 0.91469 0.56001 0.0
Co1062 Co 0.67786 0.88161 0.6006 0.0
C1063 C 0.72151 0.85282 0.62033 0.0
O1064 O 0.70749 0.83249 0.623 0.0
N1065 N 0.66541 0.86425 0.62961 0.0
C1066 C 0.6406 0.84309 0.65644 0.0
C1067 C 0.64636 0.84723 0.63143 0.0
C1068 C 0.67123 0.86956 0.654 0.0
N1069 N 0.65614 0.85732 0.67054 0.0
O1070 O 0.68266 0.9115 0.6197 0.0
H1071 H 0.63617 0.83901 0.61585 0.0
H1072 H 0.68532 0.8832 0.65962 0.0
O1073 O 0.71197 0.87194 0.60928 0.0
C1074 C 0.66306 0.9237 0.62618 0.0
O1075 O 0.64081 0.91305 0.62308 0.0
N1076 N 0.67209 0.85373 0.57972 0.0
C1077 C 0.65951 0.83106 0.53407 0.0
C1078 C 0.68406 0.82867 0.54381 0.0
C1079 C 0.6901 0.8404 0.5668 0.0
C1080 C 0.64778 0.85446 0.57123 0.0
C1081 C 0.64092 0.84269 0.54878 0.0
H1082 H 0.70973 0.84136 0.57224 0.0
H1083 H 0.6342 0.86659 0.58057 0.0
H1084 H 0.72895 0.89094 0.56838 0.0
H1085 H 0.6801 0.93127 0.52046 0.0
H1086 H 0.62535 0.83152 0.66372 0.0
H1087 H 0.69899 0.82047 0.53242 0.0
H1088 H 0.62199 0.84546 0.54142 0.0
C1089 C 0.68049 0.07645 0.94541 0.0
C1090 C 0.69351 0.0686 0.96647 0.0
N1091 N 0.71816 0.07345 0.9627 0.0
N1092 N 0.69683 0.08637 0.9285 0.0
C1093 C 0.71979 0.08363 0.93932 0.0
H1094 H 0.66015 0.07652 0.94324 0.0
Co1095 Co 0.68543 0.10331 0.8998 0.0
C1096 C 0.72826 0.13919 0.88647 0.0
O1097 O 0.71358 0.15915 0.88621 0.0
N1098 N 0.67222 0.11987 0.87091 0.0
C1099 C 0.65802 0.14808 0.84285 0.0
C1100 C 0.66598 0.14445 0.86736 0.0
C1101 C 0.66618 0.10884 0.84868 0.0
N1102 N 0.65827 0.12556 0.83123 0.0
O1103 O 0.69544 0.0746 0.87972 0.0
H1104 H 0.66716 0.15907 0.88155 0.0
H1105 H 0.66753 0.08893 0.84499 0.0
O1106 O 0.71944 0.11754 0.89288 0.0
C1107 C 0.68185 0.05483 0.88132 0.0
O1108 O 0.66114 0.05551 0.89501 0.0
N1109 N 0.67521 0.13004 0.92078 0.0
C1110 C 0.65735 0.15432 0.96375 0.0
C1111 C 0.68276 0.15648 0.95681 0.0
C1112 C 0.69146 0.14366 0.93551 0.0
C1113 C 0.64991 0.13008 0.92583 0.0
C1114 C 0.64051 0.14211 0.9474 0.0
H1115 H 0.71156 0.14241 0.93285 0.0
H1116 H 0.63738 0.11853 0.91454 0.0
H1117 H 0.73718 0.09005 0.93097 0.0
H1118 H 0.68537 0.06175 0.98397 0.0
H1119 H 0.65275 0.16582 0.83414 0.0
H1120 H 0.69626 0.16535 0.96941 0.0
H1121 H 0.6208 0.13983 0.9525 0.0
C1122 C 0.32391 0.41799 0.93311 0.0
C1123 C 0.31134 0.42784 0.95365 0.0
N1124 N 0.2866 0.42273 0.95088 0.0
N1125 N 0.30713 0.40669 0.91758 0.0
C1126 C 0.28445 0.40994 0.92892 0.0
H1127 H 0.34417 0.41797 0.93022 0.0
Co1128 Co 0.31682 0.38817 0.88928 0.0
C1129 C 0.27205 0.35457 0.87897 0.0
O1130 O 0.28581 0.33432 0.87538 0.0
N1131 N 0.32805 0.36979 0.86049 0.0
C1132 C 0.34096 0.34006 0.83333 0.0
C1133 C 0.33361 0.34491 0.8578 0.0
C1134 C 0.33372 0.37969 0.83762 0.0
N1135 N 0.34093 0.36206 0.82079 0.0
O1136 O 0.30694 0.41641 0.86833 0.0
H1137 H 0.33236 0.33084 0.87255 0.0
H1138 H 0.33296 0.39946 0.83314 0.0
O1139 O 0.28241 0.37545 0.88515 0.0
C1140 C 0.32129 0.43567 0.86781 0.0
O1141 O 0.34293 0.43492 0.87996 0.0
N1142 N 0.3265 0.36185 0.91094 0.0
C1143 C 0.34586 0.33743 0.95325 0.0
C1144 C 0.3197 0.34008 0.9501 0.0
C1145 C 0.31033 0.35213 0.9286 0.0
C1146 C 0.35189 0.35769 0.91276 0.0
C1147 C 0.36191 0.34457 0.93334 0.0
H1148 H 0.29033 0.35611 0.92773 0.0
H1149 H 0.36457 0.36615 0.89912 0.0
H1150 H 0.26693 0.40183 0.92217 0.0
H1151 H 0.3198 0.43672 0.97004 0.0
H1152 H 0.34581 0.32188 0.82532 0.0
H1153 H 0.30675 0.33479 0.96508 0.0
H1154 H 0.38223 0.34265 0.93511 0.0
C1155 C 0.8281 0.07516 0.0611 0.0
C1156 C 0.81503 0.06762 0.03995 0.0
N1157 N 0.79125 0.07642 0.04185 0.0
N1158 N 0.81265 0.08875 0.07615 0.0
C1159 C 0.79015 0.08897 0.06406 0.0
H1160 H 0.84801 0.0721 0.0647 0.0
Co1161 Co 0.82478 0.10649 0.10377 0.0
C1162 C 0.78337 0.14078 0.12139 0.0
O1163 O 0.79976 0.15731 0.12999 0.0
N1164 N 0.83849 0.12402 0.13178 0.0
C1165 C 0.86409 0.14624 0.15695 0.0
C1166 C 0.85767 0.14102 0.13233 0.0
C1167 C 0.83339 0.11967 0.15647 0.0
N1168 N 0.84889 0.13262 0.17197 0.0
O1169 O 0.81641 0.07804 0.12498 0.0
H1170 H 0.86732 0.14872 0.11614 0.0
H1171 H 0.81893 0.10684 0.16306 0.0
O1172 O 0.79105 0.12065 0.11038 0.0
C1173 C 0.83382 0.06178 0.12842 0.0
O1174 O 0.85645 0.06617 0.11919 0.0
N1175 N 0.83383 0.13254 0.08148 0.0
C1176 C 0.84882 0.15599 0.03688 0.0
C1177 C 0.82461 0.16024 0.04672 0.0
C1178 C 0.81732 0.14806 0.06903 0.0
C1179 C 0.8579 0.12944 0.07273 0.0
C1180 C 0.86596 0.14137 0.05067 0.0
H1181 H 0.7977 0.14898 0.07433 0.0
H1182 H 0.8703 0.11603 0.08194 0.0
H1183 H 0.77381 0.09956 0.07037 0.0
H1184 H 0.82265 0.05755 0.02385 0.0
H1185 H 0.87951 0.15807 0.16335 0.0
H1186 H 0.81072 0.17075 0.03595 0.0
H1187 H 0.88457 0.1372 0.04315 0.0
C1188 C 0.44626 0.32247 0.0822 0.0
C1189 C 0.46906 0.31116 0.07638 0.0
N1190 N 0.46623 0.28603 0.07894 0.0
N1191 N 0.42941 0.30454 0.08889 0.0
C1192 C 0.44205 0.28249 0.08623 0.0
H1193 H 0.44236 0.34251 0.08234 0.0
Co1194 Co 0.39672 0.31039 0.10106 0.0
C1195 C 0.38503 0.26519 0.13143 0.0
O1196 O 0.37575 0.28 0.14911 0.0
N1197 N 0.36282 0.31651 0.11193 0.0
C1198 C 0.32103 0.31032 0.1126 0.0
C1199 C 0.34411 0.29919 0.10949 0.0
C1200 C 0.35007 0.33855 0.11544 0.0
N1201 N 0.32471 0.33506 0.11618 0.0
O1202 O 0.38404 0.30269 0.06832 0.0
H1203 H 0.34661 0.28001 0.10322 0.0
H1204 H 0.35869 0.35702 0.11447 0.0
O1205 O 0.39404 0.2749 0.11122 0.0
C1206 C 0.37962 0.32292 0.05612 0.0
O1207 O 0.38272 0.34461 0.06781 0.0
N1208 N 0.41098 0.31967 0.13274 0.0
C1209 C 0.45057 0.34055 0.1606 0.0
C1210 C 0.44866 0.31441 0.15766 0.0
C1211 C 0.42868 0.3043 0.14375 0.0
C1212 C 0.41069 0.34479 0.13853 0.0
C1213 C 0.42991 0.35552 0.15327 0.0
H1214 H 0.43004 0.28464 0.13874 0.0
H1215 H 0.39783 0.35731 0.12896 0.0
H1216 H 0.43427 0.26415 0.09078 0.0
H1217 H 0.48657 0.32063 0.0716 0.0
H1218 H 0.30279 0.30139 0.10991 0.0
H1219 H 0.46399 0.30214 0.1635 0.0
H1220 H 0.4306 0.37585 0.1555 0.0
C1221 C 0.56132 0.17267 0.08158 0.0
C1222 C 0.54015 0.18494 0.07255 0.0
N1223 N 0.54184 0.20935 0.07931 0.0
N1224 N 0.5762 0.18931 0.09397 0.0
C1225 C 0.56366 0.2115 0.09226 0.0
H1226 H 0.56498 0.15264 0.08023 0.0
Co1227 Co 0.60601 0.18119 0.1115 0.0
C1228 C 0.61714 0.2288 0.13936 0.0
O1229 O 0.61636 0.21706 0.16123 0.0
N1230 N 0.63667 0.17258 0.12888 0.0
C1231 C 0.66555 0.16213 0.15803 0.0
C1232 C 0.6406 0.16821 0.15386 0.0
C1233 C 0.65991 0.1692 0.11848 0.0
N1234 N 0.67754 0.16268 0.13569 0.0
O1235 O 0.62418 0.1857 0.08076 0.0
H1236 H 0.62639 0.16937 0.16849 0.0
H1237 H 0.66426 0.17171 0.09871 0.0
O1238 O 0.61209 0.21658 0.11926 0.0
C1239 C 0.62365 0.16617 0.06675 0.0
O1240 O 0.61331 0.14537 0.07555 0.0
N1241 N 0.58635 0.17488 0.14039 0.0
C1242 C 0.54378 0.15529 0.16414 0.0
C1243 C 0.54651 0.18145 0.1611 0.0
C1244 C 0.56816 0.19097 0.14924 0.0
C1245 C 0.58518 0.14974 0.14589 0.0
C1246 C 0.56451 0.13969 0.15876 0.0
H1247 H 0.56858 0.21077 0.14442 0.0
H1248 H 0.59907 0.13699 0.13796 0.0
H1249 H 0.56927 0.22858 0.10185 0.0
H1250 H 0.52411 0.1764 0.06314 0.0
H1251 H 0.67424 0.15757 0.17599 0.0
H1252 H 0.53101 0.1941 0.16542 0.0
H1253 H 0.56314 0.1194 0.16113 0.0
C1254 C 0.44487 0.67102 0.42395 0.0
C1255 C 0.46597 0.68375 0.43231 0.0
N1256 N 0.46577 0.70686 0.42181 0.0
N1257 N 0.43156 0.68606 0.40821 0.0
C1258 C 0.44476 0.70789 0.40737 0.0
H1259 H 0.44027 0.65153 0.42794 0.0
Co1260 Co 0.40391 0.67487 0.38964 0.0
C1261 C 0.38632 0.7174 0.35797 0.0
O1262 O 0.38082 0.7019 0.33941 0.0
N1263 N 0.37555 0.66233 0.37133 0.0
C1264 C 0.34985 0.64169 0.34482 0.0
C1265 C 0.3745 0.64837 0.34982 0.0
C1266 C 0.35106 0.66412 0.37861 0.0
N1267 N 0.33536 0.65151 0.36313 0.0
O1268 O 0.38311 0.68106 0.41845 0.0
H1269 H 0.3904 0.64303 0.33823 0.0
H1270 H 0.34457 0.67396 0.39529 0.0
O1271 O 0.39654 0.70911 0.37824 0.0
C1272 C 0.3806 0.66317 0.43427 0.0
O1273 O 0.39053 0.64101 0.42914 0.0
N1274 N 0.42596 0.66807 0.36278 0.0
C1275 C 0.47225 0.65463 0.34196 0.0
C1276 C 0.46364 0.6796 0.34029 0.0
C1277 C 0.44027 0.686 0.35086 0.0
C1278 C 0.43296 0.64331 0.36212 0.0
C1279 C 0.45558 0.63601 0.35076 0.0
H1280 H 0.43562 0.70575 0.35234 0.0
H1281 H 0.42204 0.62947 0.37249 0.0
H1282 H 0.44006 0.72368 0.39525 0.0
H1283 H 0.48105 0.67618 0.44391 0.0
H1284 H 0.34318 0.62981 0.32956 0.0
H1285 H 0.47602 0.69447 0.33359 0.0
H1286 H 0.46157 0.61648 0.35216 0.0
C1287 C 0.55447 0.82273 0.41368 0.0
C1288 C 0.53444 0.80792 0.42099 0.0
N1289 N 0.54067 0.78366 0.4168 0.0
N1290 N 0.57317 0.8079 0.40466 0.0
C1291 C 0.56436 0.78408 0.40727 0.0
H1292 H 0.55466 0.84314 0.41329 0.0
Co1293 Co 0.60054 0.82058 0.38648 0.0
C1294 C 0.63116 0.77648 0.37441 0.0
O1295 O 0.65122 0.78885 0.38217 0.0
N1296 N 0.62746 0.83408 0.36789 0.0
C1297 C 0.65509 0.84214 0.33743 0.0
C1298 C 0.63234 0.83099 0.34313 0.0
C1299 C 0.64722 0.84756 0.37661 0.0
N1300 N 0.6644 0.85338 0.35845 0.0
O1301 O 0.62176 0.81592 0.41555 0.0
H1302 H 0.62093 0.81991 0.33031 0.0
H1303 H 0.64995 0.85112 0.39641 0.0
O1304 O 0.60934 0.78684 0.37486 0.0
C1305 C 0.61833 0.83102 0.43397 0.0
O1306 O 0.60176 0.84936 0.43165 0.0
N1307 N 0.5788 0.82629 0.35949 0.0
C1308 C 0.53471 0.83716 0.33329 0.0
C1309 C 0.54705 0.81395 0.32963 0.0
C1310 C 0.56896 0.80858 0.3435 0.0
C1311 C 0.56883 0.84993 0.3607 0.0
C1312 C 0.5465 0.85567 0.34806 0.0
H1313 H 0.5768 0.78977 0.34263 0.0
H1314 H 0.5769 0.86357 0.37362 0.0
H1315 H 0.57401 0.76748 0.40034 0.0
H1316 H 0.5162 0.81447 0.42761 0.0
H1317 H 0.66448 0.83998 0.31947 0.0
H1318 H 0.53859 0.79938 0.318 0.0
H1319 H 0.53766 0.87389 0.35112 0.0
C1320 C 0.06998 0.44034 0.31855 0.0
C1321 C 0.0599 0.46115 0.30662 0.0
N1322 N 0.07497 0.46701 0.28697 0.0
N1323 N 0.09097 0.43278 0.30618 0.0
C1324 C 0.09343 0.44941 0.28693 0.0
H1325 H 0.06252 0.43137 0.33528 0.0
Co1326 Co 0.11083 0.40506 0.31532 0.0
C1327 C 0.14017 0.38996 0.26949 0.0
O1328 O 0.15758 0.3791 0.2834 0.0
N1329 N 0.13076 0.37647 0.32544 0.0
C1330 C 0.15886 0.35143 0.34485 0.0
C1331 C 0.15341 0.37579 0.33755 0.0
C1332 C 0.12356 0.35192 0.32489 0.0
N1333 N 0.13969 0.33667 0.33727 0.0
O1334 O 0.0814 0.38421 0.31012 0.0
H1335 H 0.16518 0.39189 0.34176 0.0
H1336 H 0.10604 0.34515 0.31695 0.0
O1337 O 0.12117 0.40078 0.2799 0.0
C1338 C 0.07069 0.3769 0.33049 0.0
O1339 O 0.08326 0.37941 0.35179 0.0
N1340 N 0.13731 0.42717 0.32252 0.0
C1341 C 0.15721 0.47256 0.3394 0.0
C1342 C 0.15893 0.46596 0.31377 0.0
C1343 C 0.14933 0.44268 0.30572 0.0
C1344 C 0.13756 0.43242 0.34773 0.0
C1345 C 0.14844 0.45455 0.35672 0.0
H1346 H 0.14887 0.43881 0.28572 0.0
H1347 H 0.12734 0.42031 0.36067 0.0
H1348 H 0.10834 0.44874 0.27296 0.0
H1349 H 0.04318 0.47155 0.31222 0.0
H1350 H 0.17456 0.34536 0.35649 0.0
H1351 H 0.16562 0.47946 0.2999 0.0
H1352 H 0.14699 0.45901 0.37666 0.0
C1353 C 0.93643 0.06362 0.31085 0.0
C1354 C 0.94189 0.04155 0.29839 0.0
N1355 N 0.9204 0.03317 0.28795 0.0
N1356 N 0.91161 0.06928 0.30805 0.0
C1357 C 0.90236 0.04996 0.29412 0.0
H1358 H 0.95005 0.07488 0.32087 0.0
Co1359 Co 0.89497 0.09779 0.32123 0.0
C1360 C 0.86236 0.11778 0.27916 0.0
O1361 O 0.84448 0.12381 0.29529 0.0
N1362 N 0.87866 0.12677 0.33507 0.0
C1363 C 0.85276 0.15302 0.35561 0.0
C1364 C 0.85742 0.1282 0.34931 0.0
C1365 C 0.8866 0.15108 0.33342 0.0
N1366 N 0.87141 0.16732 0.34587 0.0
O1367 O 0.92527 0.11687 0.31488 0.0
H1368 H 0.84588 0.11232 0.35494 0.0
H1369 H 0.90327 0.15709 0.3233 0.0
O1370 O 0.88237 0.10657 0.28713 0.0
C1371 C 0.93842 0.12231 0.33435 0.0
O1372 O 0.92802 0.11958 0.35678 0.0
N1373 N 0.86726 0.07707 0.32944 0.0
C1374 C 0.84009 0.03466 0.34451 0.0
C1375 C 0.83247 0.04855 0.32328 0.0
C1376 C 0.84668 0.06953 0.31568 0.0
C1377 C 0.87326 0.06512 0.35145 0.0
C1378 C 0.8601 0.04371 0.35922 0.0
H1379 H 0.84222 0.0778 0.29773 0.0
H1380 H 0.88974 0.07114 0.36197 0.0
H1381 H 0.88288 0.04786 0.28864 0.0
H1382 H 0.96022 0.03259 0.29665 0.0
H1383 H 0.83727 0.15998 0.36704 0.0
H1384 H 0.81698 0.04202 0.31157 0.0
H1385 H 0.86635 0.03353 0.37587 0.0
C1386 C 0.06737 0.57511 0.18577 0.0
C1387 C 0.05786 0.55429 0.19814 0.0
N1388 N 0.07137 0.55102 0.21942 0.0
N1389 N 0.0864 0.58523 0.19945 0.0
C1390 C 0.08818 0.57013 0.21999 0.0
H1391 H 0.06149 0.58175 0.16737 0.0
Co1392 Co 0.10636 0.61212 0.18794 0.0
C1393 C 0.14212 0.61518 0.23358 0.0
O1394 O 0.16195 0.60479 0.22287 0.0
N1395 N 0.12575 0.63918 0.17546 0.0
C1396 C 0.15749 0.66493 0.16506 0.0
C1397 C 0.15115 0.6423 0.17615 0.0
C1398 C 0.11724 0.65977 0.16298 0.0
N1399 N 0.13607 0.67573 0.15685 0.0
O1400 O 0.08029 0.63507 0.19896 0.0
H1401 H 0.16444 0.62883 0.18367 0.0
H1402 H 0.0977 0.66318 0.15834 0.0
O1403 O 0.12145 0.61746 0.22132 0.0
C1404 C 0.06128 0.63921 0.18484 0.0
O1405 O 0.06088 0.62978 0.1619 0.0
N1406 N 0.13089 0.58869 0.17641 0.0
C1407 C 0.15356 0.54751 0.15263 0.0
C1408 C 0.15032 0.54777 0.17886 0.0
C1409 C 0.13935 0.5687 0.19042 0.0
C1410 C 0.13529 0.58932 0.15097 0.0
C1411 C 0.14748 0.56929 0.13882 0.0
H1412 H 0.1363 0.56781 0.21046 0.0
H1413 H 0.12789 0.60468 0.1397 0.0
H1414 H 0.10248 0.5719 0.23441 0.0
H1415 H 0.04324 0.54167 0.19137 0.0
H1416 H 0.17624 0.67295 0.16332 0.0
H1417 H 0.15492 0.53133 0.19019 0.0
H1418 H 0.14987 0.56978 0.11848 0.0
C1419 C 0.93399 0.92284 0.1929 0.0
C1420 C 0.94059 0.94309 0.20776 0.0
N1421 N 0.92094 0.94823 0.22307 0.0
N1422 N 0.9105 0.91512 0.19923 0.0
C1423 C 0.90295 0.93114 0.21756 0.0
H1424 H 0.94531 0.91483 0.1779 0.0
Co1425 Co 0.89193 0.89037 0.18308 0.0
C1426 C 0.85631 0.86977 0.22259 0.0
O1427 O 0.84195 0.85764 0.20641 0.0
N1428 N 0.87361 0.86518 0.16572 0.0
C1429 C 0.85107 0.84512 0.13626 0.0
C1430 C 0.85749 0.86832 0.14607 0.0
C1431 C 0.87662 0.83981 0.1674 0.0
N1432 N 0.86326 0.82737 0.14967 0.0
O1433 O 0.9174 0.86636 0.19205 0.0
H1434 H 0.85153 0.88627 0.13842 0.0
H1435 H 0.88887 0.83052 0.18088 0.0
O1436 O 0.87501 0.88301 0.21498 0.0
C1437 C 0.93412 0.86256 0.17524 0.0
O1438 O 0.93099 0.87263 0.15275 0.0
N1439 N 0.86859 0.91528 0.17365 0.0
C1440 C 0.84524 0.96048 0.1606 0.0
C1441 C 0.8349 0.94512 0.17955 0.0
C1442 C 0.84708 0.92253 0.186 0.0
C1443 C 0.87781 0.92928 0.1541 0.0
C1444 C 0.86645 0.95201 0.14727 0.0
H1445 H 0.83998 0.9119 0.20174 0.0
H1446 H 0.89502 0.92338 0.14472 0.0
H1447 H 0.88431 0.93099 0.22604 0.0
H1448 H 0.95791 0.95395 0.20668 0.0
H1449 H 0.83928 0.84156 0.11991 0.0
H1450 H 0.81849 0.95125 0.19017 0.0
H1451 H 0.87483 0.96346 0.13248 0.0
C1452 C 0.31718 0.08011 0.44679 0.0
C1453 C 0.30179 0.07485 0.46715 0.0
N1454 N 0.27802 0.08165 0.46108 0.0
N1455 N 0.30323 0.09051 0.42818 0.0
C1456 C 0.27931 0.09077 0.43726 0.0
H1457 H 0.33748 0.0778 0.44606 0.0
Co1458 Co 0.31698 0.10489 0.39906 0.0
C1459 C 0.27802 0.14163 0.38169 0.0
O1460 O 0.29537 0.15867 0.37689 0.0
N1461 N 0.3316 0.11924 0.36904 0.0
C1462 C 0.35277 0.14388 0.3419 0.0
C1463 C 0.34443 0.14131 0.36632 0.0
C1464 C 0.33239 0.10898 0.34553 0.0
N1465 N 0.34523 0.12348 0.32898 0.0
O1466 O 0.30801 0.07464 0.38151 0.0
H1467 H 0.34731 0.15532 0.38083 0.0
H1468 H 0.32392 0.09118 0.34033 0.0
O1469 O 0.28425 0.12002 0.39054 0.0
C1470 C 0.32697 0.05983 0.38054 0.0
O1471 O 0.34921 0.06898 0.38689 0.0
N1472 N 0.32733 0.13242 0.41875 0.0
C1473 C 0.34553 0.15364 0.46325 0.0
C1474 C 0.31988 0.15569 0.45692 0.0
C1475 C 0.31117 0.14521 0.43428 0.0
C1476 C 0.35265 0.13217 0.42369 0.0
C1477 C 0.36231 0.14381 0.44524 0.0
H1478 H 0.29107 0.14425 0.43119 0.0
H1479 H 0.36514 0.12093 0.41203 0.0
H1480 H 0.26337 0.09903 0.42745 0.0
H1481 H 0.30772 0.06774 0.4854 0.0
H1482 H 0.36361 0.15942 0.33418 0.0
H1483 H 0.30636 0.16313 0.4704 0.0
H1484 H 0.38229 0.14202 0.44945 0.0
C1485 C 0.32457 0.91471 0.05513 0.0
C1486 C 0.31168 0.92342 0.03429 0.0
N1487 N 0.28699 0.91844 0.03771 0.0
N1488 N 0.30804 0.90425 0.07152 0.0
C1489 C 0.28519 0.90727 0.06058 0.0
H1490 H 0.34489 0.91458 0.0575 0.0
Co1491 Co 0.31789 0.88668 0.10034 0.0
C1492 C 0.27062 0.85492 0.1108 0.0
O1493 O 0.28152 0.83271 0.11192 0.0
N1494 N 0.32889 0.86933 0.12947 0.0
C1495 C 0.33731 0.84025 0.15885 0.0
C1496 C 0.33058 0.84422 0.134 0.0
C1497 C 0.33635 0.88006 0.1514 0.0
N1498 N 0.34077 0.86292 0.16969 0.0
O1499 O 0.30872 0.91555 0.12025 0.0
H1500 H 0.327 0.82956 0.12028 0.0
H1501 H 0.33815 0.90011 0.1543 0.0
O1502 O 0.28334 0.87485 0.10594 0.0
C1503 C 0.32265 0.93503 0.1187 0.0
O1504 O 0.3435 0.93402 0.10524 0.0
N1505 N 0.32738 0.8596 0.07966 0.0
C1506 C 0.3457 0.83641 0.03635 0.0
C1507 C 0.32003 0.83473 0.0425 0.0
C1508 C 0.31113 0.84697 0.06409 0.0
C1509 C 0.3528 0.85868 0.0755 0.0
C1510 C 0.36245 0.8472 0.05376 0.0
H1511 H 0.29104 0.84884 0.06623 0.0
H1512 H 0.36536 0.86942 0.08756 0.0
H1513 H 0.26773 0.90008 0.06831 0.0
H1514 H 0.31991 0.93112 0.0172 0.0
H1515 H 0.33901 0.82223 0.16838 0.0
H1516 H 0.30663 0.82689 0.02914 0.0
H1517 H 0.38237 0.84902 0.04934 0.0
C1518 C 0.67289 0.57539 0.06453 0.0
C1519 C 0.68297 0.56527 0.04274 0.0
N1520 N 0.70775 0.57087 0.04223 0.0
N1521 N 0.69119 0.5875 0.07756 0.0
C1522 C 0.71229 0.58405 0.06359 0.0
H1523 H 0.65311 0.57539 0.06973 0.0
Co1524 Co 0.68442 0.60748 0.10598 0.0
C1525 C 0.73054 0.63777 0.11625 0.0
O1526 O 0.71683 0.65843 0.11555 0.0
N1527 N 0.67639 0.62716 0.13524 0.0
C1528 C 0.66305 0.65671 0.16238 0.0
C1529 C 0.66744 0.65108 0.13733 0.0
C1530 C 0.67742 0.61899 0.15952 0.0
N1531 N 0.66901 0.63627 0.17619 0.0
O1532 O 0.68934 0.57825 0.12652 0.0
H1533 H 0.66422 0.66393 0.12182 0.0
H1534 H 0.68415 0.60063 0.1653 0.0
O1535 O 0.72047 0.61639 0.11075 0.0
C1536 C 0.66935 0.56524 0.12986 0.0
O1537 O 0.64775 0.57381 0.12109 0.0
N1538 N 0.67774 0.63456 0.08403 0.0
C1539 C 0.66024 0.65545 0.03908 0.0
C1540 C 0.6862 0.65462 0.04419 0.0
C1541 C 0.69464 0.64358 0.06666 0.0
C1542 C 0.65241 0.63795 0.08049 0.0
C1543 C 0.64323 0.64893 0.05833 0.0
H1544 H 0.71453 0.63961 0.0684 0.0
H1545 H 0.63918 0.6297 0.09374 0.0
H1546 H 0.73033 0.59212 0.06806 0.0
H1547 H 0.67261 0.55627 0.02756 0.0
H1548 H 0.65539 0.67415 0.16984 0.0
H1549 H 0.69983 0.65962 0.02975 0.0
H1550 H 0.62302 0.64939 0.05498 0.0
C1551 C 0.17633 0.92266 0.93956 0.0
C1552 C 0.18913 0.93022 0.96092 0.0
N1553 N 0.21255 0.92038 0.95993 0.0
N1554 N 0.19161 0.90803 0.92535 0.0
C1555 C 0.21369 0.90717 0.93814 0.0
H1556 H 0.15668 0.92635 0.93534 0.0
Co1557 Co 0.1808 0.89119 0.89662 0.0
C1558 C 0.22322 0.8584 0.87961 0.0
O1559 O 0.20726 0.84145 0.87103 0.0
N1560 N 0.16876 0.87449 0.86697 0.0
C1561 C 0.14574 0.85166 0.83987 0.0
C1562 C 0.15205 0.85516 0.86485 0.0
C1563 C 0.17277 0.88176 0.84273 0.0
N1564 N 0.15868 0.86857 0.82614 0.0
O1565 O 0.18855 0.92114 0.87777 0.0
H1566 H 0.14405 0.84451 0.88027 0.0
H1567 H 0.18475 0.89733 0.83721 0.0
O1568 O 0.21503 0.87839 0.89046 0.0
C1569 C 0.16931 0.93423 0.87163 0.0
O1570 O 0.14682 0.92399 0.87427 0.0
N1571 N 0.17172 0.86393 0.91725 0.0
C1572 C 0.15488 0.84178 0.96182 0.0
C1573 C 0.17988 0.83825 0.95378 0.0
C1574 C 0.18808 0.84975 0.93137 0.0
C1575 C 0.14688 0.86572 0.92395 0.0
C1576 C 0.13789 0.85425 0.94587 0.0
H1577 H 0.20807 0.84983 0.92742 0.0
H1578 H 0.1345 0.87816 0.91343 0.0
H1579 H 0.22981 0.89588 0.93254 0.0
H1580 H 0.18147 0.94092 0.9766 0.0
H1581 H 0.13179 0.83864 0.83248 0.0
H1582 H 0.19354 0.82919 0.96606 0.0
H1583 H 0.11858 0.85771 0.95184 0.0
C1584 C 0.1325 0.29149 0.32925 0.0
C1585 C 0.13339 0.3119 0.34645 0.0
C1586 C 0.11764 0.28454 0.38025 0.0
C1587 C 0.1131 0.26537 0.36221 0.0
N1588 N 0.11479 0.25037 0.31924 0.0
N1589 N 0.12307 0.32927 0.38736 0.0
C1590 C 0.12044 0.26861 0.33662 0.0
C1591 C 0.12528 0.30877 0.37183 0.0
N1592 N 0.1431 0.29427 0.30588 0.0
N1593 N 0.11458 0.27955 0.40543 0.0
H1594 H 0.12749 0.34758 0.38168 0.0
H1595 H 0.11459 0.3285 0.40513 0.0
H1596 H 0.10917 0.26182 0.41215 0.0
H1597 H 0.11988 0.2921 0.41963 0.0
H1598 H 0.14507 0.27955 0.29298 0.0
H1599 H 0.15181 0.31106 0.30025 0.0
H1600 H 0.11726 0.25266 0.29984 0.0
H1601 H 0.10616 0.23335 0.32415 0.0
C1602 C 0.88035 0.21012 0.32845 0.0
C1603 C 0.87546 0.19414 0.34946 0.0
C1604 C 0.8742 0.23129 0.37711 0.0
C1605 C 0.88138 0.2469 0.35646 0.0
N1606 N 0.89876 0.24937 0.31423 0.0
N1607 N 0.87604 0.18922 0.3948 0.0
C1608 C 0.8867 0.23579 0.33263 0.0
C1609 C 0.87482 0.20463 0.37414 0.0
N1610 N 0.87797 0.20117 0.3044 0.0
N1611 N 0.86566 0.24168 0.39916 0.0
H1612 H 0.87848 0.16973 0.39334 0.0
H1613 H 0.87779 0.19609 0.41318 0.0
H1614 H 0.86366 0.26107 0.40187 0.0
H1615 H 0.85802 0.23089 0.41378 0.0
H1616 H 0.87872 0.21277 0.28848 0.0
H1617 H 0.87274 0.1827 0.30048 0.0
H1618 H 0.90515 0.24131 0.29742 0.0
H1619 H 0.90505 0.26784 0.31692 0.0
C1620 C 0.13111 0.72138 0.16332 0.0
C1621 C 0.13354 0.70072 0.14661 0.0
C1622 C 0.13124 0.72921 0.11017 0.0
C1623 C 0.13109 0.75013 0.12698 0.0
N1624 N 0.13504 0.76646 0.16937 0.0
N1625 N 0.13824 0.68412 0.10472 0.0
C1626 C 0.13199 0.74631 0.15355 0.0
C1627 C 0.13425 0.70441 0.12015 0.0
N1628 N 0.12774 0.71699 0.18856 0.0
N1629 N 0.12761 0.73303 0.08485 0.0
H1630 H 0.13977 0.66574 0.11171 0.0
H1631 H 0.14158 0.68559 0.08538 0.0
H1632 H 0.12531 0.75094 0.07694 0.0
H1633 H 0.12502 0.71846 0.07191 0.0
H1634 H 0.123 0.73103 0.20149 0.0
H1635 H 0.12776 0.69886 0.1963 0.0
H1636 H 0.13832 0.76481 0.1887 0.0
H1637 H 0.13674 0.78486 0.16275 0.0
C1638 C 0.88109 0.76564 0.11912 0.0
C1639 C 0.8674 0.74844 0.1347 0.0
C1640 C 0.84759 0.78417 0.15673 0.0
C1641 C 0.86421 0.80082 0.14413 0.0
N1642 N 0.89704 0.80831 0.11365 0.0
N1643 N 0.82804 0.74288 0.15716 0.0
C1644 C 0.88094 0.7918 0.12528 0.0
C1645 C 0.84782 0.75809 0.15045 0.0
N1646 N 0.89191 0.75755 0.09709 0.0
N1647 N 0.83191 0.79336 0.17507 0.0
H1648 H 0.82558 0.72491 0.14946 0.0
H1649 H 0.81229 0.74918 0.16714 0.0
H1650 H 0.83078 0.81257 0.17932 0.0
H1651 H 0.82139 0.78186 0.18711 0.0
H1652 H 0.90104 0.76945 0.08435 0.0
H1653 H 0.8882 0.73987 0.08932 0.0
H1654 H 0.91186 0.80267 0.10198 0.0
H1655 H 0.89686 0.82766 0.11736 0.0
C1656 C 0.38342 0.11379 0.27014 0.0
C1657 C 0.36413 0.11427 0.25144 0.0
C1658 C 0.33192 0.1195 0.28444 0.0
C1659 C 0.35108 0.11804 0.30301 0.0
N1660 N 0.39376 0.1077 0.31443 0.0
N1661 N 0.3197 0.11105 0.24116 0.0
C1662 C 0.37645 0.11317 0.29607 0.0
C1663 C 0.33823 0.11512 0.25871 0.0
N1664 N 0.40831 0.11554 0.2633 0.0
N1665 N 0.30794 0.1262 0.29132 0.0
H1666 H 0.32355 0.10719 0.22221 0.0
H1667 H 0.30066 0.10901 0.24583 0.0
H1668 H 0.3028 0.12959 0.31006 0.0
H1669 H 0.29371 0.13032 0.27834 0.0
H1670 H 0.42292 0.11797 0.27628 0.0
H1671 H 0.41435 0.11683 0.24459 0.0
H1672 H 0.41208 0.10159 0.31056 0.0
H1673 H 0.38892 0.10692 0.33355 0.0
C1674 C 0.61466 0.36849 0.27002 0.0
C1675 C 0.63444 0.37375 0.25251 0.0
C1676 C 0.66557 0.36882 0.28667 0.0
C1677 C 0.6457 0.36628 0.30434 0.0
N1678 N 0.60138 0.3686 0.31395 0.0
N1679 N 0.67858 0.38445 0.24584 0.0
C1680 C 0.62023 0.36763 0.29632 0.0
C1681 C 0.6599 0.37545 0.26128 0.0
N1682 N 0.59088 0.36281 0.26159 0.0
N1683 N 0.68988 0.36401 0.294 0.0
H1684 H 0.67548 0.39037 0.22735 0.0
H1685 H 0.69677 0.38852 0.25223 0.0
H1686 H 0.69458 0.35869 0.3124 0.0
H1687 H 0.70494 0.36289 0.28134 0.0
H1688 H 0.57648 0.35651 0.27347 0.0
H1689 H 0.58617 0.36169 0.24249 0.0
H1690 H 0.58255 0.37219 0.3094 0.0
H1691 H 0.60503 0.36819 0.33334 0.0
C1692 C 0.3686 0.86198 0.23528 0.0
C1693 C 0.35161 0.87844 0.24812 0.0
C1694 C 0.32611 0.88188 0.20974 0.0
C1695 C 0.34458 0.86807 0.19616 0.0
N1696 N 0.38587 0.84914 0.19477 0.0
N1697 N 0.31813 0.90945 0.24512 0.0
C1698 C 0.36663 0.85939 0.20857 0.0
C1699 C 0.33153 0.89005 0.23461 0.0
N1700 N 0.38556 0.84766 0.24852 0.0
N1701 N 0.30285 0.88611 0.19938 0.0
H1702 H 0.32239 0.91705 0.2628 0.0
H1703 H 0.30474 0.91985 0.23506 0.0
H1704 H 0.29774 0.87931 0.18162 0.0
H1705 H 0.2879 0.89404 0.20948 0.0
H1706 H 0.39656 0.83364 0.24015 0.0
H1707 H 0.38687 0.84784 0.26817 0.0
H1708 H 0.40344 0.84465 0.2025 0.0
H1709 H 0.38503 0.84742 0.17514 0.0
C1710 C 0.68047 0.61766 0.244 0.0
C1711 C 0.65695 0.62422 0.25527 0.0
C1712 C 0.64045 0.63524 0.21339 0.0
C1713 C 0.66498 0.6324 0.20293 0.0
N1714 N 0.70947 0.62523 0.20942 0.0
N1715 N 0.61622 0.64471 0.25094 0.0
C1716 C 0.68534 0.62484 0.21859 0.0
C1717 C 0.63733 0.63452 0.24005 0.0
N1718 N 0.69773 0.60353 0.25704 0.0
N1719 N 0.61995 0.63748 0.19787 0.0
H1720 H 0.61365 0.64595 0.27044 0.0
H1721 H 0.60255 0.65448 0.24062 0.0
H1722 H 0.62134 0.63657 0.17823 0.0
H1723 H 0.6014 0.63727 0.20456 0.0
H1724 H 0.71409 0.5963 0.24877 0.0
H1725 H 0.69442 0.59659 0.27519 0.0
H1726 H 0.72532 0.62231 0.22076 0.0
H1727 H 0.71374 0.63095 0.19107 0.0
C1728 C 0.26728 0.37238 0.13346 0.0
C1729 C 0.25532 0.37297 0.10943 0.0
C1730 C 0.29509 0.35908 0.08975 0.0
C1731 C 0.30476 0.35343 0.11401 0.0
N1732 N 0.30146 0.35535 0.15908 0.0
N1733 N 0.25849 0.36858 0.06404 0.0
C1734 C 0.29144 0.36079 0.13593 0.0
C1735 C 0.26962 0.36746 0.08727 0.0
N1736 N 0.25548 0.38312 0.15376 0.0
N1737 N 0.31026 0.35566 0.06912 0.0
H1738 H 0.24053 0.37586 0.06128 0.0
H1739 H 0.26663 0.36158 0.04755 0.0
H1740 H 0.32874 0.34895 0.07068 0.0
H1741 H 0.3055 0.36136 0.05089 0.0
H1742 H 0.26378 0.38493 0.17151 0.0
H1743 H 0.23821 0.39254 0.15203 0.0
H1744 H 0.29163 0.35747 0.17601 0.0
H1745 H 0.31952 0.34761 0.16107 0.0
C1746 C 0.26466 0.65731 0.36256 0.0
C1747 C 0.258 0.63946 0.38159 0.0
C1748 C 0.30234 0.6254 0.38288 0.0
C1749 C 0.30914 0.64636 0.36781 0.0
N1750 N 0.29771 0.68308 0.34393 0.0
N1751 N 0.27098 0.60473 0.40867 0.0
C1752 C 0.29053 0.66249 0.35773 0.0
C1753 C 0.27689 0.62271 0.39117 0.0
N1754 N 0.24623 0.66828 0.34816 0.0
N1755 N 0.32029 0.60779 0.38881 0.0
H1756 H 0.25269 0.59881 0.41222 0.0
H1757 H 0.28442 0.59547 0.41968 0.0
H1758 H 0.33923 0.60973 0.38361 0.0
H1759 H 0.31624 0.59051 0.39728 0.0
H1760 H 0.25003 0.67981 0.33266 0.0
H1761 H 0.2272 0.66333 0.34977 0.0
H1762 H 0.28518 0.69722 0.33836 0.0
H1763 H 0.31661 0.68683 0.33958 0.0
C1764 C 0.7205 0.86899 0.39682 0.0
C1765 C 0.73982 0.86026 0.38043 0.0
C1766 C 0.70954 0.85998 0.34533 0.0
C1767 C 0.68971 0.86346 0.36293 0.0
N1768 N 0.67939 0.88881 0.39899 0.0
N1769 N 0.75306 0.84766 0.33849 0.0
C1770 C 0.69605 0.87338 0.38688 0.0
C1771 C 0.7345 0.85596 0.35442 0.0
N1772 N 0.72484 0.87131 0.42214 0.0
N1773 N 0.70522 0.86439 0.32032 0.0
H1774 H 0.77175 0.84514 0.3442 0.0
H1775 H 0.74945 0.84169 0.32007 0.0
H1776 H 0.68834 0.87262 0.31423 0.0
H1777 H 0.71937 0.86403 0.30661 0.0
H1778 H 0.71058 0.87561 0.43507 0.0
H1779 H 0.74199 0.86621 0.43042 0.0
H1780 H 0.68411 0.89887 0.41526 0.0
H1781 H 0.6622 0.8939 0.39068 0.0
C1782 C 0.20334 0.64848 0.60527 0.0
C1783 C 0.19442 0.65119 0.6304 0.0
C1784 C 0.2349 0.63566 0.64675 0.0
C1785 C 0.24489 0.63653 0.62185 0.0
N1786 N 0.23697 0.6361 0.57695 0.0
N1787 N 0.19994 0.64606 0.67494 0.0
C1788 C 0.2285 0.64025 0.60093 0.0
C1789 C 0.20957 0.64374 0.6511 0.0
N1790 N 0.18836 0.65613 0.58567 0.0
N1791 N 0.24959 0.62651 0.66593 0.0
H1792 H 0.18114 0.65125 0.67811 0.0
H1793 H 0.21041 0.64357 0.6914 0.0
H1794 H 0.26773 0.61939 0.66278 0.0
H1795 H 0.24333 0.62396 0.6844 0.0
H1796 H 0.19453 0.65832 0.56711 0.0
H1797 H 0.16967 0.66155 0.58824 0.0
H1798 H 0.2253 0.63552 0.56113 0.0
H1799 H 0.25547 0.63107 0.573 0.0
C1800 C 0.86819 0.73411 0.63078 0.0
C1801 C 0.87885 0.75108 0.64869 0.0
C1802 C 0.88347 0.71627 0.67901 0.0
C1803 C 0.87484 0.69919 0.66041 0.0
N1804 N 0.86303 0.69049 0.61753 0.0
N1805 N 0.90128 0.75727 0.68816 0.0
C1806 C 0.86848 0.70774 0.63591 0.0
C1807 C 0.8878 0.74189 0.67237 0.0
N1808 N 0.85651 0.7432 0.60957 0.0
N1809 N 0.88659 0.70812 0.70332 0.0
H1810 H 0.90514 0.77614 0.68421 0.0
H1811 H 0.91064 0.75073 0.7042 0.0
H1812 H 0.88343 0.68945 0.70872 0.0
H1813 H 0.89011 0.72021 0.71844 0.0
H1814 H 0.84627 0.73188 0.59715 0.0
H1815 H 0.85486 0.76241 0.60556 0.0
H1816 H 0.86071 0.69523 0.59855 0.0
H1817 H 0.86305 0.67108 0.62098 0.0
C1818 C 0.11775 0.77832 0.62467 0.0
C1819 C 0.10874 0.76291 0.64494 0.0
C1820 C 0.11285 0.79866 0.67383 0.0
C1821 C 0.12018 0.81437 0.65345 0.0
N1822 N 0.11997 0.82093 0.60836 0.0
N1823 N 0.08852 0.76211 0.68597 0.0
C1824 C 0.1197 0.80477 0.62849 0.0
C1825 C 0.10338 0.77425 0.66866 0.0
N1826 N 0.12571 0.76819 0.60228 0.0
N1827 N 0.11577 0.80656 0.6982 0.0
H1828 H 0.07956 0.74498 0.6821 0.0
H1829 H 0.08257 0.77058 0.70274 0.0
H1830 H 0.12364 0.82396 0.70281 0.0
H1831 H 0.1128 0.79475 0.7137 0.0
H1832 H 0.13494 0.7789 0.58853 0.0
H1833 H 0.12545 0.74909 0.59794 0.0
H1834 H 0.11732 0.81489 0.58979 0.0
H1835 H 0.1196 0.8405 0.61048 0.0
C1836 C 0.8491 0.27879 0.83756 0.0
C1837 C 0.86527 0.2987 0.84496 0.0
C1838 C 0.8972 0.26821 0.85866 0.0
C1839 C 0.88025 0.24807 0.8532 0.0
N1840 N 0.83783 0.23472 0.84262 0.0
N1841 N 0.90168 0.31266 0.86832 0.0
C1842 C 0.85551 0.25351 0.84408 0.0
C1843 C 0.88843 0.29348 0.85727 0.0
N1844 N 0.82796 0.28407 0.82372 0.0
N1845 N 0.92202 0.26346 0.86378 0.0
H1846 H 0.89524 0.33127 0.8684 0.0
H1847 H 0.91751 0.30971 0.87967 0.0
H1848 H 0.92951 0.24538 0.86389 0.0
H1849 H 0.93568 0.27757 0.86528 0.0
H1850 H 0.81668 0.2702 0.81549 0.0
H1851 H 0.82294 0.30247 0.81873 0.0
H1852 H 0.81888 0.23801 0.83835 0.0
H1853 H 0.84148 0.21617 0.84815 0.0
C1854 C 0.14838 0.22401 0.83499 0.0
C1855 C 0.13424 0.20407 0.84569 0.0
C1856 C 0.10157 0.23379 0.85925 0.0
C1857 C 0.11674 0.25418 0.85067 0.0
N1858 N 0.1568 0.26895 0.83415 0.0
N1859 N 0.1008 0.19028 0.87321 0.0
C1860 C 0.14081 0.24938 0.83955 0.0
C1861 C 0.11186 0.20908 0.85944 0.0
N1862 N 0.16862 0.21855 0.81991 0.0
N1863 N 0.07689 0.23766 0.86577 0.0
H1864 H 0.10865 0.17227 0.87454 0.0
H1865 H 0.08561 0.1933 0.8854 0.0
H1866 H 0.0682 0.2552 0.86425 0.0
H1867 H 0.06435 0.22304 0.86988 0.0
H1868 H 0.1782 0.23208 0.80928 0.0
H1869 H 0.17458 0.20006 0.81655 0.0
H1870 H 0.17551 0.26641 0.8285 0.0
H1871 H 0.1522 0.2878 0.83745 0.0
C1872 C 0.65225 0.84517 0.74054 0.0
C1873 C 0.64723 0.8699 0.74985 0.0
C1874 C 0.64579 0.88566 0.70628 0.0
C1875 C 0.65379 0.86176 0.69733 0.0
N1876 N 0.66891 0.81992 0.70605 0.0
N1877 N 0.64519 0.91479 0.74127 0.0
C1878 C 0.65832 0.84184 0.71455 0.0
C1879 C 0.64566 0.8905 0.73265 0.0
N1880 N 0.65 0.82471 0.75617 0.0
N1881 N 0.63716 0.90339 0.68964 0.0
H1882 H 0.6458 0.91937 0.76036 0.0
H1883 H 0.64673 0.93043 0.72939 0.0
H1884 H 0.63567 0.89991 0.67033 0.0
H1885 H 0.62887 0.92034 0.6953 0.0
H1886 H 0.65116 0.80614 0.74977 0.0
H1887 H 0.64435 0.8261 0.77501 0.0
H1888 H 0.67499 0.80554 0.71805 0.0
H1889 H 0.67376 0.8172 0.68711 0.0
C1890 C 0.36934 0.62746 0.70451 0.0
C1891 C 0.34461 0.6321 0.69541 0.0
C1892 C 0.32789 0.62677 0.73812 0.0
C1893 C 0.35302 0.62596 0.74784 0.0
N1894 N 0.39787 0.63145 0.73989 0.0
N1895 N 0.30094 0.64107 0.70397 0.0
C1896 C 0.37389 0.62783 0.73094 0.0
C1897 C 0.32402 0.63317 0.71236 0.0
N1898 N 0.38835 0.622 0.68792 0.0
N1899 N 0.30775 0.62032 0.75299 0.0
H1900 H 0.2979 0.64673 0.68531 0.0
H1901 H 0.28569 0.64446 0.71599 0.0
H1902 H 0.30963 0.61399 0.77154 0.0
H1903 H 0.28943 0.61846 0.74597 0.0
H1904 H 0.40624 0.61607 0.69372 0.0
H1905 H 0.38541 0.62076 0.66846 0.0
H1906 H 0.41323 0.63514 0.7281 0.0
H1907 H 0.40205 0.63374 0.759 0.0
C1908 C 0.67387 0.11051 0.78996 0.0
C1909 C 0.65404 0.12062 0.8048 0.0
C1910 C 0.62732 0.12368 0.7671 0.0
C1911 C 0.64626 0.11095 0.75284 0.0
N1912 N 0.68487 0.08637 0.75291 0.0
N1913 N 0.61021 0.132 0.80883 0.0
C1914 C 0.66874 0.10257 0.76493 0.0
C1915 C 0.63021 0.12574 0.79376 0.0
N1916 N 0.69792 0.10963 0.79932 0.0
N1917 N 0.60737 0.13504 0.75523 0.0
H1918 H 0.61173 0.13314 0.82847 0.0
H1919 H 0.59175 0.1336 0.80211 0.0
H1920 H 0.60501 0.13507 0.73567 0.0
H1921 H 0.5945 0.14663 0.76462 0.0
H1922 H 0.71352 0.10457 0.78838 0.0
H1923 H 0.70271 0.11663 0.81711 0.0
H1924 H 0.70018 0.07786 0.76195 0.0
H1925 H 0.68144 0.07922 0.73488 0.0
C1926 C 0.32549 0.37437 0.7786 0.0
C1927 C 0.34543 0.36583 0.79424 0.0
C1928 C 0.37309 0.36207 0.75733 0.0
C1929 C 0.35394 0.37319 0.74207 0.0
N1930 N 0.31391 0.39534 0.73977 0.0
N1931 N 0.38948 0.35616 0.79974 0.0
C1932 C 0.33067 0.38089 0.75313 0.0
C1933 C 0.36965 0.36103 0.78396 0.0
N1934 N 0.30137 0.37528 0.78784 0.0
N1935 N 0.39393 0.35138 0.7464 0.0
H1936 H 0.3875 0.3557 0.81937 0.0
H1937 H 0.40816 0.35498 0.79356 0.0
H1938 H 0.39675 0.35072 0.7269 0.0
H1939 H 0.4072 0.3409 0.75652 0.0
H1940 H 0.28565 0.379 0.77655 0.0
H1941 H 0.29675 0.36974 0.8062 0.0
H1942 H 0.29799 0.4036 0.74793 0.0
H1943 H 0.31714 0.40132 0.72129 0.0
C1944 C 0.7397 0.65507 0.85861 0.0
C1945 C 0.74632 0.64351 0.88202 0.0
C1946 C 0.7014 0.6376 0.89142 0.0
C1947 C 0.69499 0.6524 0.87014 0.0
N1948 N 0.70784 0.67827 0.83511 0.0
N1949 N 0.73262 0.62951 0.92341 0.0
C1950 C 0.71411 0.66202 0.85414 0.0
C1951 C 0.72695 0.63624 0.89919 0.0
N1952 N 0.75754 0.65841 0.8402 0.0
N1953 N 0.68313 0.62417 0.90375 0.0
H1954 H 0.7509 0.62998 0.93047 0.0
H1955 H 0.7189 0.62637 0.93723 0.0
H1956 H 0.66445 0.62361 0.89749 0.0
H1957 H 0.68714 0.61136 0.91818 0.0
H1958 H 0.75319 0.66453 0.82199 0.0
H1959 H 0.77627 0.65262 0.84223 0.0
H1960 H 0.72123 0.68798 0.8244 0.0
H1961 H 0.6892 0.68364 0.83151 0.0
C1962 C 0.72935 0.38311 0.6286 0.0
C1963 C 0.74006 0.37294 0.60616 0.0
C1964 C 0.70212 0.34809 0.59864 0.0
C1965 C 0.69103 0.35822 0.62084 0.0
N1966 N 0.69144 0.38871 0.65425 0.0
N1967 N 0.73243 0.35467 0.56527 0.0
C1968 C 0.70375 0.37717 0.63475 0.0
C1969 C 0.725 0.35839 0.58966 0.0
N1970 N 0.74401 0.39701 0.64468 0.0
N1971 N 0.69188 0.32743 0.58707 0.0
H1972 H 0.74807 0.36392 0.55777 0.0
H1973 H 0.72118 0.34558 0.55188 0.0
H1974 H 0.6751 0.31899 0.59291 0.0
H1975 H 0.70102 0.3177 0.57257 0.0
H1976 H 0.73818 0.40253 0.66265 0.0
H1977 H 0.76259 0.40209 0.64045 0.0
H1978 H 0.69878 0.40403 0.66417 0.0
H1979 H 0.67285 0.38404 0.65904 0.0
C1980 C 0.29911 0.1333 0.61352 0.0
C1981 C 0.30645 0.15179 0.63138 0.0
C1982 C 0.2621 0.16018 0.64148 0.0
C1983 C 0.25454 0.14462 0.62089 0.0
N1984 N 0.26572 0.11257 0.59028 0.0
N1985 N 0.296 0.18289 0.66253 0.0
C1986 C 0.27299 0.12988 0.60789 0.0
C1987 C 0.2882 0.16512 0.64553 0.0
N1988 N 0.31725 0.11831 0.60281 0.0
N1989 N 0.2443 0.16901 0.65804 0.0
H1990 H 0.31506 0.18587 0.66666 0.0
H1991 H 0.28384 0.19559 0.67137 0.0
H1992 H 0.2252 0.16429 0.65664 0.0
H1993 H 0.24864 0.17859 0.67467 0.0
H1994 H 0.31347 0.1028 0.59136 0.0
H1995 H 0.33648 0.12045 0.60663 0.0
H1996 H 0.27767 0.10517 0.57651 0.0
H1997 H 0.24794 0.10435 0.59049 0.0
C1998 C 0.76862 0.37252 0.37415 0.0
C1999 C 0.75105 0.35309 0.36795 0.0
C2000 C 0.78644 0.32593 0.35465 0.0
C2001 C 0.80363 0.34384 0.36444 0.0
N2002 N 0.81171 0.38299 0.3858 0.0
N2003 N 0.74378 0.3176 0.34026 0.0
C2004 C 0.79486 0.3668 0.37485 0.0
C2005 C 0.76006 0.33137 0.35484 0.0
N2006 N 0.76076 0.397 0.37643 0.0
N2007 N 0.79548 0.30356 0.34552 0.0
H2008 H 0.72532 0.32352 0.33661 0.0
H2009 H 0.74935 0.30258 0.32886 0.0
H2010 H 0.81479 0.29955 0.34461 0.0
H2011 H 0.78396 0.28837 0.34065 0.0
H2012 H 0.77306 0.41206 0.37943 0.0
H2013 H 0.74278 0.40295 0.37104 0.0
H2014 H 0.80622 0.39869 0.39632 0.0
H2015 H 0.83112 0.37941 0.38624 0.0
C2016 C 0.60998 0.76927 0.87763 0.0
C2017 C 0.62347 0.74954 0.86513 0.0
C2018 C 0.6477 0.78111 0.84113 0.0
C2019 C 0.63359 0.80048 0.85273 0.0
N2020 N 0.60461 0.81431 0.88479 0.0
N2021 N 0.66138 0.73751 0.84274 0.0
C2022 C 0.6156 0.7949 0.87174 0.0
C2023 C 0.64419 0.75573 0.84909 0.0
N2024 N 0.59176 0.76375 0.89502 0.0
N2025 N 0.66414 0.78707 0.82212 0.0
H2026 H 0.66057 0.71923 0.8501 0.0
H2027 H 0.67798 0.74117 0.83279 0.0
H2028 H 0.66735 0.80567 0.81639 0.0
H2029 H 0.67308 0.7736 0.81088 0.0
H2030 H 0.57766 0.77634 0.90048 0.0
H2031 H 0.59161 0.74703 0.90519 0.0
H2032 H 0.59338 0.81193 0.90078 0.0
H2033 H 0.60793 0.83324 0.88052 0.0
C2034 C 0.37938 0.69887 0.87324 0.0
C2035 C 0.36342 0.69111 0.85328 0.0
C2036 C 0.35415 0.73529 0.84307 0.0
C2037 C 0.37215 0.74306 0.86151 0.0
N2038 N 0.39006 0.73214 0.90235 0.0
N2039 N 0.33538 0.70083 0.81907 0.0
C2040 C 0.38145 0.72493 0.87911 0.0
C2041 C 0.35052 0.70906 0.83829 0.0
N2042 N 0.39328 0.6813 0.88607 0.0
N2043 N 0.3391 0.75301 0.83177 0.0
H2044 H 0.33168 0.68171 0.81606 0.0
H2045 H 0.32753 0.7126 0.80541 0.0
H2046 H 0.33938 0.77199 0.83707 0.0
H2047 H 0.3244 0.74877 0.81941 0.0
H2048 H 0.40764 0.68605 0.89869 0.0
H2049 H 0.39197 0.66199 0.88243 0.0
H2050 H 0.39562 0.71936 0.91626 0.0
H2051 H 0.38754 0.75021 0.90959 0.0
C2052 C 0.63484 0.20207 0.63227 0.0
C2053 C 0.63014 0.19074 0.65609 0.0
C2054 C 0.60654 0.22826 0.6687 0.0
C2055 C 0.61541 0.24136 0.64697 0.0
N2056 N 0.64475 0.24118 0.6114 0.0
N2057 N 0.61696 0.19621 0.69942 0.0
C2058 C 0.63146 0.22848 0.62956 0.0
C2059 C 0.61761 0.20479 0.6751 0.0
N2060 N 0.64144 0.18767 0.61192 0.0
N2061 N 0.58688 0.23749 0.68268 0.0
H2062 H 0.62651 0.17995 0.70516 0.0
H2063 H 0.60952 0.20687 0.71424 0.0
H2064 H 0.57656 0.25342 0.67737 0.0
H2065 H 0.57883 0.22741 0.69761 0.0
H2066 H 0.64305 0.19515 0.59374 0.0
H2067 H 0.64211 0.16801 0.61257 0.0
H2068 H 0.65797 0.23224 0.59981 0.0
H2069 H 0.64534 0.26076 0.60997 0.0
C2070 C 0.3579 0.25503 0.65186 0.0
C2071 C 0.38172 0.24685 0.64233 0.0
C2072 C 0.39258 0.29073 0.63309 0.0
C2073 C 0.37101 0.29894 0.64641 0.0
N2074 N 0.33471 0.28906 0.67195 0.0
N2075 N 0.4243 0.25842 0.63 0.0
C2076 C 0.35406 0.28112 0.65685 0.0
C2077 C 0.39982 0.26509 0.63452 0.0
N2078 N 0.33854 0.23823 0.6549 0.0
N2079 N 0.40562 0.3073 0.61829 0.0
H2080 H 0.43096 0.24024 0.63304 0.0
H2081 H 0.4385 0.27159 0.62624 0.0
H2082 H 0.39948 0.32583 0.61561 0.0
H2083 H 0.42041 0.30174 0.60648 0.0
H2084 H 0.32023 0.24367 0.65978 0.0
H2085 H 0.34 0.21931 0.6497 0.0
H2086 H 0.32316 0.27665 0.68201 0.0
H2087 H 0.33174 0.30807 0.67619 0.0
C2088 C 0.89004 0.61954 0.78227 0.0
C2089 C 0.87363 0.62108 0.76111 0.0
C2090 C 0.83719 0.62673 0.78927 0.0
C2091 C 0.85355 0.62506 0.81033 0.0
N2092 N 0.89393 0.61363 0.82765 0.0
N2093 N 0.83118 0.62009 0.74436 0.0
C2094 C 0.87955 0.61958 0.80703 0.0
C2095 C 0.84702 0.62264 0.76459 0.0
N2096 N 0.91563 0.61832 0.77869 0.0
N2097 N 0.8125 0.63335 0.79292 0.0
H2098 H 0.83776 0.61706 0.72609 0.0
H2099 H 0.81161 0.61866 0.74596 0.0
H2100 H 0.80489 0.63626 0.81086 0.0
H2101 H 0.80007 0.63769 0.77828 0.0
H2102 H 0.92874 0.62019 0.79325 0.0
H2103 H 0.92388 0.61663 0.76084 0.0
H2104 H 0.91248 0.60715 0.82653 0.0
H2105 H 0.88644 0.61293 0.8459 0.0
C2106 C 0.14086 0.89726 0.7941 0.0
C2107 C 0.15416 0.8749 0.80009 0.0
C2108 C 0.1567 0.86423 0.75514 0.0
C2109 C 0.14569 0.88804 0.74895 0.0
N2110 N 0.13398 0.92987 0.76316 0.0
N2111 N 0.17812 0.83883 0.78688 0.0
C2112 C 0.13952 0.9053 0.7686 0.0
C2113 C 0.16307 0.85886 0.78073 0.0
N2114 N 0.12889 0.91046 0.81276 0.0
N2115 N 0.16019 0.84634 0.73685 0.0
H2116 H 0.18285 0.83452 0.80556 0.0
H2117 H 0.18753 0.82785 0.77352 0.0
H2118 H 0.15572 0.84924 0.71791 0.0
H2119 H 0.16551 0.82781 0.74077 0.0
H2120 H 0.11691 0.92568 0.80916 0.0
H2121 H 0.12878 0.9045 0.83154 0.0
H2122 H 0.13175 0.94375 0.77696 0.0
H2123 H 0.1346 0.93701 0.74492 0.0
C2124 C 0.86227 0.36639 0.73005 0.0
C2125 C 0.84264 0.37479 0.74638 0.0
C2126 C 0.81382 0.37783 0.7101 0.0
C2127 C 0.83404 0.37169 0.69375 0.0
N2128 N 0.87856 0.3654 0.68721 0.0
N2129 N 0.80114 0.39366 0.75104 0.0
C2130 C 0.85861 0.36755 0.70347 0.0
C2131 C 0.81875 0.38194 0.73618 0.0
N2132 N 0.88388 0.35608 0.73983 0.0
N2133 N 0.78975 0.37891 0.70077 0.0
H2134 H 0.80402 0.39769 0.77009 0.0
H2135 H 0.7846 0.40162 0.7439 0.0
H2136 H 0.7856 0.37578 0.68175 0.0
H2137 H 0.77379 0.38067 0.71218 0.0
H2138 H 0.89766 0.34743 0.72873 0.0
H2139 H 0.88695 0.35379 0.75917 0.0
H2140 H 0.89733 0.36486 0.69316 0.0
H2141 H 0.87644 0.36667 0.66763 0.0
C2142 C 0.13329 0.14084 0.73701 0.0
C2143 C 0.15218 0.1277 0.75093 0.0
C2144 C 0.17993 0.12845 0.7137 0.0
C2145 C 0.16027 0.13946 0.69928 0.0
N2146 N 0.11635 0.15066 0.69555 0.0
N2147 N 0.19111 0.10366 0.7504 0.0
C2148 C 0.13636 0.14404 0.71046 0.0
C2149 C 0.17485 0.11995 0.73866 0.0
N2150 N 0.11311 0.15148 0.74916 0.0
N2151 N 0.20375 0.12695 0.70383 0.0
H2152 H 0.18776 0.09619 0.76831 0.0
H2153 H 0.20655 0.09547 0.74131 0.0
H2154 H 0.2082 0.13345 0.68577 0.0
H2155 H 0.21948 0.12156 0.7144 0.0
H2156 H 0.10025 0.1634 0.74018 0.0
H2157 H 0.11051 0.15055 0.76866 0.0
H2158 H 0.09785 0.15182 0.70226 0.0
H2159 H 0.11787 0.15248 0.67597 0.0
C2160 C 0.75889 0.83234 0.6425 0.0
C2161 C 0.74907 0.85243 0.62748 0.0
C2162 C 0.79224 0.86529 0.61654 0.0
C2163 C 0.80178 0.84404 0.62951 0.0
N2164 N 0.79518 0.80637 0.65372 0.0
N2165 N 0.75809 0.89514 0.61344 0.0
C2166 C 0.78534 0.82727 0.64221 0.0
C2167 C 0.76611 0.87104 0.61805 0.0
N2168 N 0.74339 0.82011 0.6592 0.0
N2169 N 0.80828 0.87986 0.60248 0.0
H2170 H 0.74062 0.90191 0.61951 0.0
H2171 H 0.77017 0.90967 0.6079 0.0
H2172 H 0.82762 0.87615 0.60121 0.0
H2173 H 0.80201 0.894 0.59028 0.0
H2174 H 0.74957 0.8064 0.67188 0.0
H2175 H 0.72504 0.82624 0.66301 0.0
H2176 H 0.7842 0.79177 0.66104 0.0
H2177 H 0.81459 0.80278 0.65428 0.0
C2178 C 0.79983 0.13208 0.88555 0.0
C2179 C 0.80667 0.14866 0.86584 0.0
C2180 C 0.7618 0.15488 0.85626 0.0
C2181 C 0.75527 0.14212 0.87907 0.0
N2182 N 0.76983 0.12536 0.91898 0.0
N2183 N 0.79424 0.1781 0.83353 0.0
C2184 C 0.77473 0.13232 0.89467 0.0
C2185 C 0.78765 0.1607 0.85138 0.0
N2186 N 0.81722 0.11574 0.89519 0.0
N2187 N 0.74358 0.16058 0.83884 0.0
H2188 H 0.81304 0.18252 0.8295 0.0
H2189 H 0.78108 0.18942 0.82422 0.0
H2190 H 0.72463 0.15559 0.84113 0.0
H2191 H 0.74771 0.16786 0.82101 0.0
H2192 H 0.81243 0.10172 0.90822 0.0
H2193 H 0.83568 0.11477 0.88821 0.0
H2194 H 0.78396 0.11955 0.93146 0.0
H2195 H 0.75243 0.12884 0.92748 0.0
C2196 C 0.23083 0.37146 0.86167 0.0
C2197 C 0.24419 0.35292 0.87581 0.0
C2198 C 0.20571 0.32735 0.87811 0.0
C2199 C 0.19174 0.3472 0.86675 0.0
N2200 N 0.19014 0.39098 0.85429 0.0
N2201 N 0.24204 0.31668 0.90361 0.0
C2202 C 0.20404 0.37015 0.86047 0.0
C2203 C 0.23096 0.33186 0.88588 0.0
N2204 N 0.24352 0.38953 0.84825 0.0
N2205 N 0.19535 0.30387 0.88052 0.0
H2206 H 0.25996 0.32021 0.91105 0.0
H2207 H 0.23223 0.30242 0.91304 0.0
H2208 H 0.17738 0.29941 0.87385 0.0
H2209 H 0.20569 0.28822 0.88658 0.0
H2210 H 0.23445 0.40195 0.83593 0.0
H2211 H 0.26318 0.39034 0.84709 0.0
H2212 H 0.19821 0.40876 0.8517 0.0
H2213 H 0.17043 0.39109 0.85465 0.0
C2214 C 0.73932 0.12734 0.13417 0.0
C2215 C 0.75578 0.146 0.12394 0.0
C2216 C 0.7205 0.17624 0.12314 0.0
C2217 C 0.70381 0.15695 0.13109 0.0
N2218 N 0.69602 0.11295 0.13891 0.0
N2219 N 0.76042 0.18661 0.10339 0.0
C2220 C 0.71286 0.13211 0.13499 0.0
C2221 C 0.74593 0.17004 0.11691 0.0
N2222 N 0.74896 0.10568 0.14443 0.0
N2223 N 0.71226 0.20068 0.12243 0.0
H2224 H 0.77885 0.18266 0.09765 0.0
H2225 H 0.75331 0.20325 0.09562 0.0
H2226 H 0.69383 0.20582 0.12728 0.0
H2227 H 0.72424 0.216 0.11935 0.0
H2228 H 0.73797 0.09268 0.15434 0.0
H2229 H 0.76827 0.10184 0.14543 0.0
H2230 H 0.70125 0.09398 0.13938 0.0
H2231 H 0.67651 0.11588 0.13917 0.0
C2232 C 0.37848 0.22008 0.11613 0.0
C2233 C 0.38535 0.23741 0.13561 0.0
C2234 C 0.38434 0.20303 0.16655 0.0
C2235 C 0.37918 0.18563 0.14697 0.0
N2236 N 0.37875 0.17639 0.10249 0.0
N2237 N 0.40331 0.24297 0.17736 0.0
C2238 C 0.37853 0.1938 0.12153 0.0
C2239 C 0.39088 0.22817 0.16024 0.0
N2240 N 0.37066 0.22834 0.09293 0.0
N2241 N 0.38202 0.19588 0.19123 0.0
H2242 H 0.41003 0.26096 0.17305 0.0
H2243 H 0.40968 0.2362 0.19474 0.0
H2244 H 0.37632 0.17783 0.19655 0.0
H2245 H 0.38319 0.20859 0.20623 0.0
H2246 H 0.36272 0.21637 0.07947 0.0
H2247 H 0.36993 0.2472 0.0876 0.0
H2248 H 0.38085 0.18124 0.08351 0.0
H2249 H 0.37963 0.15701 0.10591 0.0
C2250 C 0.61059 0.27339 0.12209 0.0
C2251 C 0.62309 0.25649 0.1389 0.0
C2252 C 0.63887 0.29274 0.16335 0.0
C2253 C 0.62308 0.30882 0.14899 0.0
N2254 N 0.59187 0.31482 0.11662 0.0
N2255 N 0.65711 0.25093 0.16864 0.0
C2256 C 0.6084 0.29922 0.12888 0.0
C2257 C 0.63952 0.26644 0.15773 0.0
N2258 N 0.60292 0.2656 0.09871 0.0
N2259 N 0.6528 0.30274 0.18263 0.0
H2260 H 0.65982 0.23231 0.16275 0.0
H2261 H 0.6708 0.25692 0.18141 0.0
H2262 H 0.65334 0.32209 0.18625 0.0
H2263 H 0.66281 0.29207 0.19577 0.0
H2264 H 0.59508 0.27769 0.08529 0.0
H2265 H 0.60815 0.24836 0.09092 0.0
H2266 H 0.57843 0.30834 0.10376 0.0
H2267 H 0.59008 0.33394 0.12105 0.0
C2268 C 0.36628 0.75758 0.37393 0.0
C2269 C 0.38055 0.74466 0.35513 0.0
C2270 C 0.37862 0.78205 0.328 0.0
C2271 C 0.36714 0.79577 0.34787 0.0
N2272 N 0.35399 0.79818 0.39128 0.0
N2273 N 0.40515 0.74673 0.3166 0.0
C2274 C 0.3621 0.78399 0.37133 0.0
C2275 C 0.38812 0.75749 0.33279 0.0
N2276 N 0.35558 0.74456 0.39353 0.0
N2277 N 0.37962 0.79218 0.30426 0.0
H2278 H 0.41332 0.7291 0.31977 0.0
H2279 H 0.41318 0.75645 0.30145 0.0
H2280 H 0.37183 0.80975 0.29989 0.0
H2281 H 0.3857 0.78209 0.28848 0.0
H2282 H 0.34302 0.75274 0.40631 0.0
H2283 H 0.35714 0.72505 0.39564 0.0
H2284 H 0.35244 0.79112 0.40961 0.0
H2285 H 0.351 0.81761 0.38989 0.0
C2286 C 0.64569 0.74347 0.34363 0.0
C2287 C 0.63384 0.74972 0.36693 0.0
C2288 C 0.62754 0.70486 0.37621 0.0
C2289 C 0.64136 0.69864 0.35416 0.0
N2290 N 0.6653 0.71092 0.31771 0.0
N2291 N 0.61729 0.73671 0.40742 0.0
C2292 C 0.65082 0.71768 0.33801 0.0
C2293 C 0.62561 0.73051 0.38373 0.0
N2294 N 0.65157 0.76215 0.32678 0.0
N2295 N 0.61601 0.68613 0.38974 0.0
H2296 H 0.61622 0.75529 0.41386 0.0
H2297 H 0.61351 0.72345 0.42147 0.0
H2298 H 0.6175 0.66711 0.38488 0.0
H2299 H 0.60335 0.68954 0.40444 0.0
H2300 H 0.65795 0.75879 0.30847 0.0
H2301 H 0.64846 0.78121 0.33054 0.0
H2302 H 0.67507 0.72373 0.30643 0.0
H2303 H 0.66875 0.69207 0.31305 0.0
C2304 C 0.12826 0.38402 0.19839 0.0
C2305 C 0.15339 0.38545 0.18921 0.0
C2306 C 0.16805 0.39638 0.23163 0.0
C2307 C 0.14373 0.39055 0.24159 0.0
N2308 N 0.10135 0.37479 0.2342 0.0
N2309 N 0.19794 0.3887 0.19788 0.0
C2310 C 0.12386 0.38348 0.22491 0.0
C2311 C 0.17351 0.39059 0.20603 0.0
N2312 N 0.10857 0.38375 0.18171 0.0
N2313 N 0.18571 0.40817 0.24634 0.0
H2314 H 0.20258 0.3833 0.17951 0.0
H2315 H 0.21344 0.38988 0.20998 0.0
H2316 H 0.1821 0.4139 0.26485 0.0
H2317 H 0.20286 0.41481 0.23924 0.0
H2318 H 0.08971 0.38507 0.18731 0.0
H2319 H 0.11125 0.38495 0.1622 0.0
H2320 H 0.08732 0.36706 0.22273 0.0
H2321 H 0.09754 0.37292 0.25343 0.0
C2322 C 0.86572 0.1027 0.23388 0.0
C2323 C 0.85796 0.1216 0.25138 0.0
C2324 C 0.84102 0.14636 0.21571 0.0
C2325 C 0.85193 0.12903 0.19869 0.0
N2326 N 0.87921 0.09353 0.19115 0.0
N2327 N 0.84097 0.16381 0.25782 0.0
C2328 C 0.86584 0.10816 0.20768 0.0
C2329 C 0.84621 0.14409 0.24203 0.0
N2330 N 0.87081 0.0788 0.24196 0.0
N2331 N 0.82543 0.16481 0.20663 0.0
H2332 H 0.84422 0.16343 0.27714 0.0
H2333 H 0.83528 0.18153 0.2514 0.0
H2334 H 0.82186 0.16706 0.18735 0.0
H2335 H 0.81452 0.17642 0.21821 0.0
H2336 H 0.87504 0.06391 0.2298 0.0
H2337 H 0.86691 0.07309 0.26031 0.0
H2338 H 0.89172 0.07949 0.19702 0.0
H2339 H 0.87922 0.09679 0.17169 0.0
C2340 C 0.1673 0.64265 0.2628 0.0
C2341 C 0.14532 0.62768 0.2587 0.0
C2342 C 0.13452 0.63192 0.30372 0.0
C2343 C 0.15856 0.64273 0.30811 0.0
N2344 N 0.1984 0.65793 0.29281 0.0
N2345 N 0.10645 0.60987 0.27525 0.0
C2346 C 0.17502 0.64818 0.28788 0.0
C2347 C 0.12823 0.62315 0.27908 0.0
N2348 N 0.18006 0.65261 0.24266 0.0
N2349 N 0.1176 0.63053 0.32322 0.0
H2350 H 0.09908 0.6063 0.25747 0.0
H2351 H 0.09557 0.60224 0.28978 0.0
H2352 H 0.12193 0.63668 0.34145 0.0
H2353 H 0.09876 0.62525 0.3211 0.0
H2354 H 0.19491 0.66541 0.24445 0.0
H2355 H 0.1739 0.65041 0.22409 0.0
H2356 H 0.21259 0.65956 0.27924 0.0
H2357 H 0.20406 0.66294 0.311 0.0
C2358 C 0.82148 0.87181 0.28578 0.0
C2359 C 0.84117 0.86483 0.30249 0.0
C2360 C 0.8702 0.85946 0.26684 0.0
C2361 C 0.85095 0.86802 0.25009 0.0
N2362 N 0.80931 0.88596 0.244 0.0
N2363 N 0.88494 0.85609 0.31023 0.0
C2364 C 0.82682 0.87515 0.25965 0.0
C2365 C 0.86578 0.85993 0.29336 0.0
N2366 N 0.79745 0.87444 0.2949 0.0
N2367 N 0.89215 0.84956 0.25737 0.0
H2368 H 0.88195 0.85615 0.32975 0.0
H2369 H 0.90392 0.85498 0.30509 0.0
H2370 H 0.89578 0.84789 0.23807 0.0
H2371 H 0.90581 0.8408 0.26851 0.0
H2372 H 0.78156 0.8764 0.28345 0.0
H2373 H 0.79315 0.87294 0.31407 0.0
H2374 H 0.7927 0.89435 0.25043 0.0
H2375 H 0.81205 0.88828 0.22466 0.0
C2376 C 0.20928 0.13839 0.3598 0.0
C2377 C 0.19997 0.16159 0.36918 0.0
C2378 C 0.24078 0.1703 0.38917 0.0
C2379 C 0.25096 0.14812 0.37782 0.0
N2380 N 0.24599 0.11331 0.34868 0.0
N2381 N 0.20736 0.20168 0.38905 0.0
C2382 C 0.23547 0.13264 0.36222 0.0
C2383 C 0.21588 0.17811 0.38286 0.0
N2384 N 0.19284 0.12169 0.34899 0.0
N2385 N 0.25447 0.18344 0.40671 0.0
H2386 H 0.18922 0.20798 0.38455 0.0
H2387 H 0.2189 0.21573 0.39659 0.0
H2388 H 0.27282 0.17866 0.41194 0.0
H2389 H 0.24687 0.19786 0.41774 0.0
H2390 H 0.19777 0.1033 0.34406 0.0
H2391 H 0.17362 0.12568 0.34685 0.0
H2392 H 0.23615 0.10303 0.33509 0.0
H2393 H 0.26522 0.10894 0.34925 0.0
C2394 C 0.2369 0.85633 0.14404 0.0
C2395 C 0.24378 0.85754 0.11808 0.0
C2396 C 0.20034 0.86907 0.10744 0.0
C2397 C 0.19261 0.86209 0.13204 0.0
N2398 N 0.20564 0.86878 0.17498 0.0
N2399 N 0.23145 0.86395 0.07452 0.0
C2400 C 0.2114 0.86112 0.15107 0.0
C2401 C 0.22543 0.86399 0.09962 0.0
N2402 N 0.25455 0.85045 0.16197 0.0
N2403 N 0.1846 0.88318 0.09277 0.0
H2404 H 0.24938 0.85924 0.06792 0.0
H2405 H 0.21798 0.86629 0.06031 0.0
H2406 H 0.16737 0.88985 0.09978 0.0
H2407 H 0.19017 0.89105 0.07558 0.0
H2408 H 0.24987 0.84675 0.18076 0.0
H2409 H 0.2736 0.84758 0.15775 0.0
H2410 H 0.21898 0.87037 0.18939 0.0
H2411 H 0.18843 0.8776 0.17899 0.0
C2412 C 0.76491 0.65415 0.14536 0.0
C2413 C 0.75769 0.63959 0.12385 0.0
C2414 C 0.80156 0.6257 0.1192 0.0
C2415 C 0.80926 0.6435 0.13743 0.0
N2416 N 0.79891 0.67648 0.16673 0.0
N2417 N 0.77135 0.61796 0.08615 0.0
C2418 C 0.79108 0.65826 0.15025 0.0
C2419 C 0.77655 0.62676 0.10977 0.0
N2420 N 0.74702 0.66322 0.16164 0.0
N2421 N 0.81824 0.60802 0.11072 0.0
H2422 H 0.75487 0.62315 0.07678 0.0
H2423 H 0.78478 0.60929 0.07465 0.0
H2424 H 0.8368 0.60706 0.11737 0.0
H2425 H 0.81286 0.59321 0.09889 0.0
H2426 H 0.75148 0.67191 0.17874 0.0
H2427 H 0.72774 0.65985 0.15943 0.0
H2428 H 0.78674 0.68981 0.1746 0.0
H2429 H 0.81796 0.67919 0.17114 0.0
C2430 C 0.28657 0.82412 0.87744 0.0
C2431 C 0.30294 0.84371 0.86949 0.0
C2432 C 0.26695 0.87276 0.86672 0.0
C2433 C 0.25089 0.85381 0.87706 0.0
N2434 N 0.24712 0.8132 0.89778 0.0
N2435 N 0.30997 0.88787 0.8618 0.0
C2436 C 0.26118 0.82996 0.88402 0.0
C2437 C 0.29348 0.86843 0.86573 0.0
N2438 N 0.29503 0.79975 0.87774 0.0
N2439 N 0.25688 0.89426 0.85653 0.0
H2440 H 0.32953 0.88527 0.86147 0.0
H2441 H 0.30441 0.90675 0.8614 0.0
H2442 H 0.2375 0.89777 0.85566 0.0
H2443 H 0.26759 0.90745 0.84657 0.0
H2444 H 0.28321 0.78431 0.88086 0.0
H2445 H 0.31336 0.79478 0.87242 0.0
H2446 H 0.2546 0.79669 0.90545 0.0
H2447 H 0.22875 0.81696 0.90384 0.0
C2448 C 0.00774 0.23894 0.44492 0.0
C2449 C 0.01875 0.23141 0.42173 0.0
C2450 C 0.99516 0.26418 0.39941 0.0
C2451 C 0.98214 0.27008 0.42196 0.0
N2452 N 0.97386 0.26205 0.46587 0.0
N2453 N 0.01819 0.23246 0.37621 0.0
C2454 C 0.98787 0.2572 0.44475 0.0
C2455 C 0.01109 0.24279 0.39874 0.0
N2456 N 0.01658 0.22882 0.46694 0.0
N2457 N 0.99302 0.27967 0.37891 0.0
H2458 H 0.02893 0.21603 0.37514 0.0
H2459 H 0.01124 0.23862 0.35883 0.0
H2460 H 0.98247 0.29627 0.37947 0.0
H2461 H 0.00389 0.27758 0.3626 0.0
H2462 H 0.01099 0.23496 0.48478 0.0
H2463 H 0.03083 0.21517 0.46721 0.0
H2464 H 0.97548 0.25183 0.48261 0.0
H2465 H 0.95937 0.27544 0.46601 0.0
C2466 C 0.9999 0.73082 0.10165 0.0
C2467 C 0.98227 0.7305 0.08164 0.0
C2468 C 0.0059 0.76383 0.06013 0.0
C2469 C 0.02111 0.76693 0.08199 0.0
N2470 N 0.02931 0.75581 0.12568 0.0
N2471 N 0.96668 0.74765 0.04263 0.0
C2472 C 0.01746 0.75093 0.10329 0.0
C2473 C 0.9848 0.74725 0.061 0.0
N2474 N 0.00026 0.71151 0.11874 0.0
N2475 N 0.01219 0.77624 0.03838 0.0
H2476 H 0.95106 0.73559 0.04296 0.0
H2477 H 0.9661 0.76111 0.02828 0.0
H2478 H 0.02822 0.78766 0.03704 0.0
H2479 H 0.0031 0.77324 0.02118 0.0
H2480 H 0.01502 0.70901 0.13155 0.0
H2481 H 0.98739 0.69658 0.11822 0.0
H2482 H 0.02516 0.74613 0.14231 0.0
H2483 H 0.04124 0.77111 0.12848 0.0
C2484 C 0.40059 0.00493 0.24883 0.0
C2485 C 0.42404 0.01141 0.23748 0.0
C2486 C 0.44542 0.97928 0.2631 0.0
C2487 C 0.42226 0.97413 0.2754 0.0
N2488 N 0.37978 0.9867 0.28523 0.0
N2489 N 0.46947 0.00866 0.23735 0.0
C2490 C 0.40043 0.98844 0.26986 0.0
C2491 C 0.44673 -0.00033 0.24565 0.0
N2492 N 0.37836 0.01333 0.23873 0.0
N2493 N 0.46591 0.96433 0.26782 0.0
H2494 H 0.47091 0.02419 0.22528 0.0
H2495 H 0.4868 0.00232 0.2442 0.0
H2496 H 0.46534 0.94962 0.28093 0.0
H2497 H 0.48273 0.96542 0.25763 0.0
H2498 H 0.3607 0.00716 0.24493 0.0
H2499 H 0.37747 0.02428 0.22242 0.0
H2500 H 0.36401 0.99839 0.28354 0.0
H2501 H 0.37979 0.97551 0.30144 0.0
C2502 C 0.59747 0.49985 0.27849 0.0
C2503 C 0.58626 0.52351 0.27357 0.0
C2504 C 0.56906 0.507 0.23404 0.0
C2505 C 0.57644 0.48229 0.24146 0.0
N2506 N 0.59372 0.45473 0.27349 0.0
N2507 N 0.55971 0.54976 0.24773 0.0
C2508 C 0.58965 0.47855 0.26446 0.0
C2509 C 0.5716 0.5272 0.25156 0.0
N2510 N 0.61627 0.49807 0.29598 0.0
N2511 N 0.56083 0.51133 0.20997 0.0
H2512 H 0.56162 0.56489 0.26022 0.0
H2513 H 0.54671 0.55276 0.23324 0.0
H2514 H 0.56012 0.49716 0.19631 0.0
H2515 H 0.5573 0.52935 0.20288 0.0
H2516 H 0.62658 0.48157 0.2991 0.0
H2517 H 0.62352 0.51409 0.30484 0.0
H2518 H 0.60157 0.45121 0.29122 0.0
H2519 H 0.58671 0.43864 0.26453 0.0
C2520 C 0.25627 0.44882 0.97502 0.0
C2521 C 0.26758 0.42509 0.97016 0.0
C2522 C 0.23957 0.40499 0.00082 0.0
C2523 C 0.22969 0.42901 0.00743 0.0
N2524 N 0.2305 0.47418 0.0034 0.0
N2525 N 0.27436 0.38188 0.98229 0.0
C2526 C 0.23853 0.4511 0.99517 0.0
C2527 C 0.26046 0.40352 0.98419 0.0
N2528 N 0.26224 0.46893 0.96002 0.0
N2529 N 0.22831 0.38351 0.00958 0.0
H2530 H 0.29038 0.38065 0.97089 0.0
H2531 H 0.27163 0.36622 0.99392 0.0
H2532 H 0.21261 0.3838 0.0214 0.0
H2533 H 0.23307 0.36549 0.00327 0.0
H2534 H 0.25303 0.48629 0.9609 0.0
H2535 H 0.27544 0.46758 0.94543 0.0
H2536 H 0.23784 0.49122 0.99686 0.0
H2537 H 0.21768 0.47621 0.01827 0.0
C2538 C 0.22821 0.59778 0.50147 0.0
C2539 C 0.22304 0.57605 0.48701 0.0
C2540 C 0.25582 0.55296 0.51022 0.0
C2541 C 0.26337 0.57588 0.52184 0.0
N2542 N 0.26035 0.62136 0.52328 0.0
N2543 N 0.2327 0.5332 0.47574 0.0
C2544 C 0.25045 0.59867 0.51619 0.0
C2545 C 0.23694 0.55355 0.49098 0.0
N2546 N 0.21162 0.6175 0.50122 0.0
N2547 N 0.26645 0.53077 0.5179 0.0
H2548 H 0.21876 0.53325 0.46178 0.0
H2549 H 0.24391 0.51703 0.47592 0.0
H2550 H 0.28013 0.53001 0.53209 0.0
H2551 H 0.26031 0.51313 0.51171 0.0
H2552 H 0.21338 0.63311 0.5131 0.0
H2553 H 0.19466 0.61673 0.49117 0.0
H2554 H 0.25293 0.63861 0.51732 0.0
H2555 H 0.27733 0.62297 0.53305 0.0
C2556 C 0.76523 0.8961 0.4958 0.0
C2557 C 0.76949 0.9192 0.48319 0.0
C2558 C 0.7385 0.9396 0.51089 0.0
C2559 C 0.73152 0.91555 0.52065 0.0
N2560 N 0.73471 0.87013 0.51729 0.0
N2561 N 0.75923 0.96287 0.47701 0.0
C2562 C 0.74397 0.89354 0.51177 0.0
C2563 C 0.75581 0.94101 0.49024 0.0
N2564 N 0.78206 0.87682 0.49314 0.0
N2565 N 0.72943 0.96099 0.52205 0.0
H2566 H 0.77226 0.96427 0.46223 0.0
H2567 H 0.74808 0.97889 0.47957 0.0
H2568 H 0.71776 0.9605 0.53795 0.0
H2569 H 0.73541 0.97909 0.51713 0.0
H2570 H 0.78112 0.86028 0.50382 0.0
H2571 H 0.79861 0.87888 0.48266 0.0
H2572 H 0.74191 0.85363 0.50927 0.0
H2573 H 0.71809 0.86738 0.5274 0.0
C2574 C 0.98486 0.75117 0.60471 0.0
C2575 C 0.97699 0.76124 0.58117 0.0
C2576 C 0.00584 0.73246 0.55912 0.0
C2577 C 0.0123 0.72151 0.58262 0.0
N2578 N 0.00323 0.71553 0.62663 0.0
N2579 N 0.97635 0.75884 0.53578 0.0
C2580 C 0.00017 0.7293 0.60506 0.0
C2581 C 0.98642 0.75107 0.55823 0.0
N2582 N 0.97911 0.76345 0.62666 0.0
N2583 N 0.01882 0.72553 0.53792 0.0
H2584 H 0.96184 0.77217 0.53479 0.0
H2585 H 0.98087 0.75068 0.51845 0.0
H2586 H 0.03271 0.71152 0.53824 0.0
H2587 H 0.01687 0.73457 0.52054 0.0
H2588 H 0.98631 0.75816 0.64422 0.0
H2589 H 0.9695 0.78059 0.62694 0.0
H2590 H 0.99318 0.71903 0.64322 0.0
H2591 H 0.01377 0.69888 0.62689 0.0
C2592 C 0.99434 0.23429 0.90053 0.0
C2593 C 0.98164 0.22918 0.92343 0.0
C2594 C 0.00545 0.26307 0.94411 0.0
C2595 C 0.01553 0.27009 0.92028 0.0
N2596 N 0.0139 0.26639 0.87498 0.0
N2597 N 0.97324 0.23923 0.96684 0.0
C2598 C 0.00851 0.25672 0.89823 0.0
C2599 C 0.98672 0.2437 0.9453 0.0
N2600 N 0.9932 0.21738 0.88114 0.0
N2601 N 0.01422 0.27457 0.96546 0.0
H2602 H 0.9598 0.22483 0.968 0.0
H2603 H 0.97428 0.2506 0.98287 0.0
H2604 H 0.02804 0.28863 0.96488 0.0
H2605 H 0.00923 0.26896 0.98366 0.0
H2606 H 0.00398 0.21913 0.86472 0.0
H2607 H 0.98378 0.20019 0.88289 0.0
H2608 H 0.00743 0.25843 0.85816 0.0
H2609 H 0.02199 0.28414 0.87286 0.0
C2610 C 0.55845 0.00326 0.73854 0.0
C2611 C 0.58116 0.00897 0.72565 0.0
C2612 C 0.6044 0.97952 0.75231 0.0
C2613 C 0.58142 0.97212 0.76402 0.0
N2614 N 0.5359 0.97312 0.76477 0.0
N2615 N 0.62361 0.99716 0.71482 0.0
C2616 C 0.55816 0.98291 0.7561 0.0
C2617 C 0.6035 0.99537 0.73085 0.0
N2618 N 0.53747 0.01769 0.7344 0.0
N2619 N 0.62712 0.97278 0.76254 0.0
H2620 H 0.62269 0.00769 0.69819 0.0
H2621 H 0.63972 0.98592 0.71648 0.0
H2622 H 0.62868 0.96287 0.77948 0.0
H2623 H 0.64435 0.97952 0.75574 0.0
H2624 H 0.52095 0.01607 0.74501 0.0
H2625 H 0.53732 0.03257 0.72144 0.0
H2626 H 0.51826 0.97879 0.75808 0.0
H2627 H 0.53521 0.95762 0.77694 0.0
C2628 C 0.42094 0.49482 0.76846 0.0
C2629 C 0.41381 0.51938 0.76048 0.0
C2630 C 0.40216 0.50242 0.71914 0.0
C2631 C 0.41336 0.47901 0.72571 0.0
N2632 N 0.43621 0.45358 0.75572 0.0
N2633 N 0.40148 0.54744 0.72671 0.0
C2634 C 0.42343 0.4753 0.75021 0.0
C2635 C 0.40532 0.52346 0.7354 0.0
N2636 N 0.42446 0.49 0.79357 0.0
N2637 N 0.38783 0.50427 0.69776 0.0
H2638 H 0.40487 0.56343 0.73769 0.0
H2639 H 0.39744 0.55151 0.70785 0.0
H2640 H 0.38404 0.48869 0.68633 0.0
H2641 H 0.37744 0.52033 0.69309 0.0
H2642 H 0.42755 0.47193 0.80074 0.0
H2643 H 0.42158 0.50369 0.80746 0.0
H2644 H 0.44608 0.45087 0.77255 0.0
H2645 H 0.43877 0.43916 0.74254 0.0
C2646 C 0.75423 0.54733 0.99342 0.0
C2647 C 0.76086 0.57056 0.98175 0.0
C2648 C 0.72807 0.59198 0.00615 0.0
C2649 C 0.72412 0.56984 0.02049 0.0
N2650 N 0.73421 0.52657 0.02932 0.0
N2651 N 0.75831 0.61609 0.98218 0.0
C2652 C 0.73737 0.54743 0.0145 0.0
C2653 C 0.74882 0.59323 0.98938 0.0
N2654 N 0.76363 0.52528 0.98394 0.0
N2655 N 0.7116 0.61164 0.00824 0.0
H2656 H 0.77496 0.61787 0.97184 0.0
H2657 H 0.75136 0.63319 0.98905 0.0
H2658 H 0.69561 0.61058 0.0197 0.0
H2659 H 0.71226 0.62742 0.99644 0.0
H2660 H 0.75799 0.50752 0.99026 0.0
H2661 H 0.77551 0.52482 0.96818 0.0
H2662 H 0.74509 0.51027 0.02754 0.0
H2663 H 0.72159 0.5263 0.04452 0.0
C2664 C 0.75875 0.40002 0.47825 0.0
C2665 C 0.74298 0.42056 0.47136 0.0
C2666 C 0.76614 0.44818 0.50046 0.0
C2667 C 0.78218 0.42776 0.50661 0.0
N2668 N 0.79902 0.38715 0.49563 0.0
N2669 N 0.73517 0.46528 0.47116 0.0
C2670 C 0.78026 0.40465 0.49345 0.0
C2671 C 0.74784 0.44508 0.48098 0.0
N2672 N 0.75213 0.37586 0.47213 0.0
N2673 N 0.76797 0.47013 0.51383 0.0
H2674 H 0.72219 0.46339 0.45641 0.0
H2675 H 0.73916 0.48393 0.47596 0.0
H2676 H 0.78178 0.47284 0.52766 0.0
H2677 H 0.75512 0.48495 0.51213 0.0
H2678 H 0.76181 0.36007 0.47885 0.0
H2679 H 0.73542 0.37139 0.46274 0.0
H2680 H 0.79986 0.37091 0.48451 0.0
H2681 H 0.81507 0.39035 0.5066 0.0
C2682 C 0.24561 0.10661 0.48391 0.0
C2683 C 0.25673 0.08292 0.47812 0.0
C2684 C 0.22873 0.06253 0.50899 0.0
C2685 C 0.21675 0.08603 0.51325 0.0
N2686 N 0.20874 0.12852 0.49978 0.0
N2687 N 0.25574 0.03762 0.48142 0.0
C2688 C 0.22354 0.10743 0.49894 0.0
C2689 C 0.24731 0.06058 0.48957 0.0
N2690 N 0.25726 0.12842 0.47675 0.0
N2691 N 0.22288 0.04242 0.52404 0.0
H2692 H 0.26891 0.0358 0.46684 0.0
H2693 H 0.24813 0.02053 0.48752 0.0
H2694 H 0.20905 0.04346 0.5381 0.0
H2695 H 0.23273 0.02539 0.52366 0.0
H2696 H 0.25106 0.14628 0.48222 0.0
H2697 H 0.27492 0.12836 0.46819 0.0
H2698 H 0.2116 0.14412 0.48809 0.0
H2699 H 0.19199 0.12908 0.5102 0.0
C2700 C 0.48953 0.75504 0.94582 0.0
C2701 C 0.47881 0.76061 0.92186 0.0
C2702 C 0.50048 0.72409 0.90385 0.0
C2703 C 0.5144 0.7212 0.92639 0.0
N2704 N 0.52395 0.73484 0.96862 0.0
N2705 N 0.47918 0.75369 0.8768 0.0
C2706 C 0.50932 0.73684 0.94747 0.0
C2707 C 0.48545 0.74585 0.90052 0.0
N2708 N 0.48033 0.76667 0.96693 0.0
N2709 N 0.50162 0.70589 0.88569 0.0
H2710 H 0.47076 0.7711 0.87359 0.0
H2711 H 0.48536 0.74463 0.86043 0.0
H2712 H 0.51214 0.68944 0.88821 0.0
H2713 H 0.49007 0.70592 0.86971 0.0
H2714 H 0.48595 0.7619 0.98519 0.0
H2715 H 0.46532 0.77944 0.96622 0.0
H2716 H 0.52288 0.74743 0.98371 0.0
H2717 H 0.53836 0.72147 0.97024 0.0
C2718 C 0.49573 0.23304 0.55381 0.0
C2719 C 0.48393 0.2266 0.57704 0.0
C2720 C 0.50724 0.26037 0.59826 0.0
C2721 C 0.52124 0.26474 0.57593 0.0
N2722 N 0.53082 0.25425 0.53288 0.0
N2723 N 0.48295 0.23046 0.62253 0.0
C2724 C 0.51601 0.2508 0.55373 0.0
C2725 C 0.49085 0.23932 0.59961 0.0
N2726 N 0.48698 0.22269 0.53187 0.0
N2727 N 0.50909 0.27686 0.61795 0.0
H2728 H 0.4719 0.21435 0.62447 0.0
H2729 H 0.48952 0.23756 0.63968 0.0
H2730 H 0.52039 0.29292 0.61697 0.0
H2731 H 0.49743 0.27611 0.63382 0.0
H2732 H 0.49324 0.22814 0.51402 0.0
H2733 H 0.47185 0.21003 0.5315 0.0
H2734 H 0.52965 0.24305 0.51675 0.0
H2735 H 0.54552 0.26741 0.53247 0.0
C2736 C 0.93664 0.48421 0.75767 0.0
C2737 C 0.91206 0.4747 0.7627 0.0
C2738 C 0.8952 0.50008 0.72798 0.0
C2739 C 0.91877 0.51243 0.72575 0.0
N2740 N 0.9618 0.51783 0.73901 0.0
N2741 N 0.86699 0.47705 0.75548 0.0
C2742 C 0.93956 0.50485 0.74069 0.0
C2743 C 0.89103 0.48339 0.74849 0.0
N2744 N 0.95714 0.47298 0.76863 0.0
N2745 N 0.87701 0.50405 0.71016 0.0
H2746 H 0.86297 0.46596 0.77123 0.0
H2747 H 0.85095 0.48493 0.74718 0.0
H2748 H 0.88015 0.51558 0.69449 0.0
H2749 H 0.86018 0.49383 0.70945 0.0
H2750 H 0.97575 0.47767 0.76419 0.0
H2751 H 0.95548 0.45728 0.78044 0.0
H2752 H 0.97699 0.51495 0.75121 0.0
H2753 H 0.96436 0.53268 0.72627 0.0
C2754 C 0.10383 0.01096 0.76973 0.0
C2755 C 0.08239 0.02505 0.77695 0.0
C2756 C 0.05639 0.00102 0.74719 0.0
C2757 C 0.0786 0.98944 0.73771 0.0
N2758 N 0.12421 0.98839 0.73594 0.0
N2759 N 0.03855 0.03564 0.77153 0.0
C2760 C 0.10258 0.99569 0.74794 0.0
C2761 C 0.05863 0.02062 0.76547 0.0
N2762 N 0.1252 0.01178 0.78415 0.0
N2763 N 0.0333 0.99284 0.73908 0.0
H2764 H 0.03986 0.05004 0.78495 0.0
H2765 H 0.02127 0.035 0.76212 0.0
H2766 H 0.03134 0.9783 0.7259 0.0
H2767 H 0.01627 0.99897 0.74682 0.0
H2768 H 0.14079 0.00013 0.78098 0.0
H2769 H 0.12604 0.02203 0.80096 0.0
H2770 H 0.14216 0.99439 0.74143 0.0
H2771 H 0.12398 0.97872 0.71885 0.0
C2772 C 0.76437 0.09845 0.01055 0.0
C2773 C 0.77242 0.07572 0.02218 0.0
C2774 C 0.74669 0.05134 0.99227 0.0
C2775 C 0.73708 0.07416 0.98225 0.0
N2776 N 0.73212 0.1192 0.98588 0.0
N2777 N 0.76851 0.03075 0.02705 0.0
C2778 C 0.74466 0.09768 0.99249 0.0
C2779 C 0.76284 0.05215 0.0138 0.0
N2780 N 0.77618 0.1207 0.01601 0.0
N2781 N 0.74064 0.02903 0.98086 0.0
H2782 H 0.77973 0.03101 0.04327 0.0
H2783 H 0.76042 0.01321 0.02332 0.0
H2784 H 0.7288 0.02816 0.96508 0.0
H2785 H 0.74878 0.01179 0.98571 0.0
H2786 H 0.77302 0.13734 0.00596 0.0
H2787 H 0.7909 0.12203 0.02894 0.0
H2788 H 0.73499 0.13656 0.99469 0.0
H2789 H 0.71693 0.11907 0.97345 0.0
C2790 C 0.51773 0.24204 0.05609 0.0
C2791 C 0.52199 0.22791 0.07841 0.0
C2792 C 0.49213 0.25446 0.10139 0.0
C2793 C 0.48588 0.26712 0.07866 0.0
N2794 N 0.4901 0.2711 0.03359 0.0
N2795 N 0.50916 0.2166 0.12044 0.0
C2796 C 0.49801 0.26044 0.05571 0.0
C2797 C 0.50791 0.23292 0.10053 0.0
N2798 N 0.53288 0.23812 0.03557 0.0
N2799 N 0.48395 0.26385 0.12394 0.0
H2800 H 0.51982 0.20006 0.11969 0.0
H2801 H 0.49761 0.21805 0.13635 0.0
H2802 H 0.47397 0.28074 0.12505 0.0
H2803 H 0.48959 0.25666 0.1414 0.0
H2804 H 0.53245 0.24938 0.01942 0.0
H2805 H 0.54711 0.22445 0.03547 0.0
H2806 H 0.49656 0.26545 0.01587 0.0
H2807 H 0.47558 0.28443 0.03292 0.0
C2808 C 0.51781 0.7478 0.39701 0.0
C2809 C 0.52369 0.76245 0.4187 0.0
C2810 C 0.4911 0.73993 0.44284 0.0
C2811 C 0.48636 0.72457 0.42153 0.0
N2812 N 0.50025 0.70865 0.38141 0.0
N2813 N 0.52024 0.76858 0.46364 0.0
C2814 C 0.50135 0.72689 0.39956 0.0
C2815 C 0.51159 0.75731 0.4421 0.0
N2816 N 0.52656 0.75464 0.3737 0.0
N2817 N 0.47556 0.73833 0.46339 0.0
H2818 H 0.53585 0.78064 0.46366 0.0
H2819 H 0.51359 0.7641 0.48163 0.0
H2820 H 0.46056 0.72555 0.46431 0.0
H2821 H 0.47645 0.75076 0.47862 0.0
H2822 H 0.52063 0.74595 0.35705 0.0
H2823 H 0.53758 0.77061 0.37059 0.0
H2824 H 0.51251 0.70799 0.36599 0.0
H2825 H 0.48891 0.6927 0.38348 0.0
C2826 C 0.07518 0.50494 0.22691 0.0
C2827 C 0.07089 0.52966 0.2363 0.0
C2828 C 0.07156 0.51323 0.27952 0.0
C2829 C 0.07262 0.4882 0.26995 0.0
N2830 N 0.06934 0.46021 0.23419 0.0
N2831 N 0.05997 0.55671 0.27115 0.0
C2832 C 0.07257 0.48404 0.24349 0.0
C2833 C 0.06751 0.5336 0.26254 0.0
N2834 N 0.08322 0.50147 0.20262 0.0
N2835 N 0.07588 0.51775 0.30455 0.0
H2836 H 0.05617 0.57178 0.25901 0.0
H2837 H 0.0551 0.5601 0.28994 0.0
H2838 H 0.0803 0.50347 0.31733 0.0
H2839 H 0.07776 0.53586 0.31202 0.0
H2840 H 0.08878 0.48393 0.19562 0.0
H2841 H 0.08714 0.51643 0.19042 0.0
H2842 H 0.06708 0.45645 0.21498 0.0
H2843 H 0.06614 0.44465 0.24587 0.0
C2844 C 0.9178 0.9942 0.22885 0.0
C2845 C 0.91845 0.96965 0.23947 0.0
C2846 C 0.9153 0.98747 0.28201 0.0
C2847 C 0.91792 0.01186 0.27149 0.0
N2848 N 0.9235 0.03915 0.2356 0.0
N2849 N 0.9197 0.94228 0.27575 0.0
C2850 C 0.91952 0.01546 0.24504 0.0
C2851 C 0.91742 0.96606 0.26599 0.0
N2852 N 0.91483 0.997 0.20334 0.0
N2853 N 0.91061 0.98502 0.30728 0.0
H2854 H 0.92165 0.9263 0.26436 0.0
H2855 H 0.92145 0.93849 0.29497 0.0
H2856 H 0.90921 0.00063 0.31928 0.0
H2857 H 0.90613 0.96795 0.31594 0.0
H2858 H 0.91217 0.01436 0.1945 0.0
H2859 H 0.91256 0.98163 0.1912 0.0
H2860 H 0.9274 0.04286 0.21668 0.0
H2861 H 0.92444 0.05512 0.24713 0.0
C2862 C 0.23723 0.89712 0.99191 0.0
C2863 C 0.23087 0.92022 0.98006 0.0
C2864 C 0.2595 0.94268 0.00872 0.0
C2865 C 0.26784 0.91919 0.01842 0.0
N2866 N 0.26913 0.87387 0.01466 0.0
N2867 N 0.23813 0.96472 0.97457 0.0
C2868 C 0.25792 0.89631 0.00877 0.0
C2869 C 0.24256 0.94302 0.9878 0.0
N2870 N 0.22291 0.87612 0.98774 0.0
N2871 N 0.26739 0.96452 0.01993 0.0
H2872 H 0.22613 0.96529 0.95892 0.0
H2873 H 0.24784 0.98152 0.97778 0.0
H2874 H 0.27965 0.96459 0.03539 0.0
H2875 H 0.26025 0.98225 0.01527 0.0
H2876 H 0.22519 0.85934 0.99781 0.0
H2877 H 0.20698 0.87646 0.97624 0.0
H2878 H 0.26408 0.85678 0.00628 0.0
H2879 H 0.28535 0.87281 0.02569 0.0
C2880 C 0.11695 0.16778 0.47912 0.0
C2881 C 0.12988 0.18239 0.46078 0.0
C2882 C 0.15726 0.19858 0.4946 0.0
C2883 C 0.14754 0.17993 0.51135 0.0
N2884 N 0.12337 0.14106 0.51511 0.0
N2885 N 0.16567 0.20925 0.45086 0.0
C2886 C 0.12878 0.16291 0.50246 0.0
C2887 C 0.1509 0.19738 0.4684 0.0
N2888 N 0.09318 0.15876 0.47454 0.0
N2889 N 0.17221 0.21754 0.50365 0.0
H2890 H 0.16249 0.20808 0.43147 0.0
H2891 H 0.18257 0.21826 0.45551 0.0
H2892 H 0.17656 0.21934 0.52281 0.0
H2893 H 0.17802 0.23276 0.49256 0.0
H2894 H 0.08264 0.14934 0.48831 0.0
H2895 H 0.08293 0.16356 0.45837 0.0
H2896 H 0.11103 0.12749 0.50789 0.0
H2897 H 0.13358 0.13485 0.53077 0.0
C2898 C 0.87919 0.35315 0.47302 0.0
C2899 C 0.86891 0.33402 0.4573 0.0
C2900 C 0.84646 0.317 0.49426 0.0
C2901 C 0.85302 0.33895 0.50818 0.0
N2902 N 0.87001 0.38155 0.50712 0.0
N2903 N 0.83975 0.29897 0.45277 0.0
C2904 C 0.86783 0.35807 0.49659 0.0
C2905 C 0.85184 0.31605 0.46785 0.0
N2906 N 0.90037 0.36617 0.46601 0.0
N2907 N 0.83535 0.29704 0.50628 0.0
H2908 H 0.84251 0.29782 0.43334 0.0
H2909 H 0.8252 0.28737 0.45925 0.0
H2910 H 0.83147 0.29714 0.52563 0.0
H2911 H 0.8323 0.27965 0.49759 0.0
H2912 H 0.90945 0.37888 0.47804 0.0
H2913 H 0.9107 0.36187 0.44981 0.0
H2914 H 0.87884 0.39653 0.4978 0.0
H2915 H 0.86049 0.38706 0.52345 0.0
C2916 C 0.14855 0.86027 0.00486 0.0
C2917 C 0.14805 0.83867 0.98891 0.0
C2918 C 0.12767 0.81399 0.02249 0.0
C2919 C 0.12847 0.83557 0.03851 0.0
N2920 N 0.14464 0.8773 0.04709 0.0
N2921 N 0.14205 0.79397 0.98365 0.0
C2922 C 0.14048 0.85809 0.03032 0.0
C2923 C 0.13932 0.81513 0.99818 0.0
N2924 N 0.1559 0.88317 0.99537 0.0
N2925 N 0.11437 0.79305 0.02975 0.0
H2926 H 0.14989 0.79445 0.96555 0.0
H2927 H 0.13847 0.77577 0.99021 0.0
H2928 H 0.10528 0.7915 0.04716 0.0
H2929 H 0.11068 0.77785 0.01783 0.0
H2930 H 0.15336 0.90024 0.00481 0.0
H2931 H 0.16315 0.8855 0.97723 0.0
H2932 H 0.15568 0.89308 0.04308 0.0
H2933 H 0.13891 0.87657 0.06591 0.0
C2934 C 0.84224 0.63831 0.01385 0.0
C2935 C 0.84893 0.65642 0.99522 0.0
C2936 C 0.87524 0.679 0.02582 0.0
C2937 C 0.86832 0.66093 0.04454 0.0
N2938 N 0.84022 0.62798 0.05832 0.0
N2939 N 0.86692 0.69665 0.98421 0.0
C2940 C 0.85023 0.642 0.0391 0.0
C2941 C 0.86384 0.6777 0.0015 0.0
N2942 N 0.82909 0.61705 0.00723 0.0
N2943 N 0.89366 0.69644 0.03072 0.0
H2944 H 0.85899 0.69595 0.96615 0.0
H2945 H 0.87542 0.71389 0.98838 0.0
H2946 H 0.90221 0.69848 0.04831 0.0
H2947 H 0.9017 0.70794 0.01692 0.0
H2948 H 0.82647 0.6017 0.01925 0.0
H2949 H 0.82221 0.61384 0.98906 0.0
H2950 H 0.82537 0.61532 0.05595 0.0
H2951 H 0.84517 0.63094 0.07714 0.0
C2952 C 0.47661 0.14211 0.18818 0.0
C2953 C 0.46921 0.12229 0.17143 0.0
C2954 C 0.50922 0.12655 0.14903 0.0
C2955 C 0.51815 0.14391 0.16739 0.0
N2956 N 0.51189 0.16386 0.20791 0.0
N2957 N 0.48394 0.08936 0.14325 0.0
C2958 C 0.50234 0.15036 0.18812 0.0
C2959 C 0.48725 0.11248 0.15421 0.0
N2960 N 0.45929 0.154 0.20319 0.0
N2961 N 0.52071 0.12431 0.12599 0.0
H2962 H 0.46928 0.07719 0.14837 0.0
H2963 H 0.49768 0.08108 0.13176 0.0
H2964 H 0.53538 0.13608 0.12009 0.0
H2965 H 0.51336 0.11299 0.11162 0.0
H2966 H 0.46355 0.17021 0.21351 0.0
H2967 H 0.44021 0.14932 0.20375 0.0
H2968 H 0.50181 0.16703 0.22455 0.0
H2969 H 0.53074 0.16967 0.20867 0.0
C2970 C 0.48713 0.36866 0.14812 0.0
C2971 C 0.47595 0.35196 0.16597 0.0
C2972 C 0.51671 0.34986 0.1884 0.0
C2973 C 0.52679 0.36836 0.17169 0.0
N2974 N 0.51699 0.40241 0.14263 0.0
N2975 N 0.47868 0.33178 0.20679 0.0
C2976 C 0.5105 0.38009 0.15389 0.0
C2977 C 0.49029 0.34424 0.18739 0.0
N2978 N 0.47674 0.37234 0.12476 0.0
N2979 N 0.53226 0.33665 0.20421 0.0
H2980 H 0.4593 0.32799 0.2068 0.0
H2981 H 0.48773 0.3276 0.22378 0.0
H2982 H 0.55173 0.3395 0.20504 0.0
H2983 H 0.52611 0.32126 0.21484 0.0
H2984 H 0.48583 0.38271 0.11065 0.0
H2985 H 0.46097 0.36261 0.11823 0.0
H2986 H 0.50455 0.41235 0.13098 0.0
H2987 H 0.53324 0.41251 0.14737 0.0
C2988 C 0.48808 0.82628 0.33245 0.0
C2989 C 0.50848 0.84175 0.3241 0.0
C2990 C 0.47808 0.87292 0.30829 0.0
C2991 C 0.4581 0.85752 0.31721 0.0
N2992 N 0.44435 0.81513 0.32513 0.0
N2993 N 0.52248 0.87546 0.29678 0.0
C2994 C 0.46319 0.83264 0.32504 0.0
C2995 C 0.50331 0.86363 0.30942 0.0
N2996 N 0.49187 0.80696 0.34913 0.0
N2997 N 0.47301 0.89667 0.29969 0.0
H2998 H 0.541 0.86862 0.29696 0.0
H2999 H 0.51956 0.8904 0.2843 0.0
H3000 H 0.45455 0.9032 0.29732 0.0
H3001 H 0.48701 0.90997 0.29582 0.0
H3002 H 0.477 0.79676 0.35714 0.0
H3003 H 0.50934 0.80299 0.35722 0.0
H3004 H 0.44735 0.79619 0.32965 0.0
H3005 H 0.42698 0.819 0.31666 0.0
C3006 C 0.54094 0.65074 0.3188 0.0
C3007 C 0.55186 0.63603 0.33856 0.0
C3008 C 0.51198 0.63801 0.36162 0.0
C3009 C 0.49982 0.64891 0.34034 0.0
N3010 N 0.50228 0.6617 0.2966 0.0
N3011 N 0.54357 0.6081 0.37409 0.0
C3012 C 0.51416 0.65414 0.31824 0.0
C3013 C 0.5362 0.62742 0.35861 0.0
N3014 N 0.55591 0.66242 0.3013 0.0
N3015 N 0.50096 0.63837 0.385 0.0
H3016 H 0.5599 0.59754 0.37108 0.0
H3017 H 0.53159 0.60033 0.38771 0.0
H3018 H 0.48388 0.64745 0.38873 0.0
H3019 H 0.51042 0.63231 0.40121 0.0
H3020 H 0.54885 0.67513 0.288 0.0
H3021 H 0.57558 0.66161 0.30169 0.0
H3022 H 0.51163 0.66347 0.27934 0.0
H3023 H 0.4827 0.66384 0.29542 0.0
C3024 C 0.1436 0.51309 0.12133 0.0
C3025 C 0.1602 0.52341 0.13968 0.0
C3026 C 0.1847 0.484 0.13933 0.0
C3027 C 0.16889 0.47461 0.11965 0.0
N3028 N 0.14096 0.48569 0.08516 0.0
N3029 N 0.20074 0.52135 0.16051 0.0
C3030 C 0.15088 0.49097 0.10841 0.0
C3031 C 0.18217 0.50972 0.14685 0.0
N3032 N 0.12012 0.5231 0.11729 0.0
N3033 N 0.2011 0.46848 0.15183 0.0
H3034 H 0.19973 0.54034 0.16567 0.0
H3035 H 0.21815 0.51292 0.1643 0.0
H3036 H 0.20391 0.4496 0.14728 0.0
H3037 H 0.21064 0.47398 0.16817 0.0
H3038 H 0.10687 0.51455 0.10545 0.0
H3039 H 0.11267 0.53792 0.1279 0.0
H3040 H 0.12902 0.49818 0.07564 0.0
H3041 H 0.14727 0.47059 0.07417 0.0
C3042 C 0.18258 0.51293 0.34466 0.0
C3043 C 0.15967 0.49933 0.34764 0.0
C3044 C 0.14246 0.53382 0.37279 0.0
C3045 C 0.16361 0.54921 0.36668 0.0
N3046 N 0.20181 0.5542 0.34156 0.0
N3047 N 0.11499 0.50098 0.35763 0.0
C3048 C 0.18323 0.53904 0.35115 0.0
C3049 C 0.1387 0.5111 0.35946 0.0
N3050 N 0.20386 0.50089 0.33634 0.0
N3051 N 0.12669 0.53982 0.39237 0.0
H3052 H 0.11097 0.48505 0.34677 0.0
H3053 H 0.09896 0.51026 0.36442 0.0
H3054 H 0.13013 0.55468 0.40479 0.0
H3055 H 0.11221 0.52785 0.39839 0.0
H3056 H 0.22164 0.5094 0.33627 0.0
H3057 H 0.20416 0.48172 0.33183 0.0
H3058 H 0.21494 0.54789 0.32828 0.0
H3059 H 0.20263 0.57358 0.34455 0.0
C3060 C 0.82322 0.96468 0.3415 0.0
C3061 C 0.81785 0.9603 0.36724 0.0
C3062 C 0.8171 0.00598 0.3745 0.0
C3063 C 0.82883 0.00963 0.35063 0.0
N3064 N 0.8455 0.99133 0.31198 0.0
N3065 N 0.80715 0.97655 0.4083 0.0
C3066 C 0.8322 0.98876 0.334 0.0
C3067 C 0.81368 0.98096 0.38372 0.0
N3068 N 0.8194 0.94594 0.32428 0.0
N3069 N 0.80926 0.02641 0.38819 0.0
H3070 H 0.8027 0.95851 0.41486 0.0
H3071 H 0.80685 0.99049 0.42218 0.0
H3072 H 0.81121 0.04489 0.38158 0.0
H3073 H 0.79882 0.02498 0.40483 0.0
H3074 H 0.8217 0.9485 0.30487 0.0
H3075 H 0.81026 0.92923 0.3293 0.0
H3076 H 0.85056 0.97597 0.30074 0.0
H3077 H 0.85359 0.00827 0.30609 0.0
C3078 C 0.35753 0.501 0.63279 0.0
C3079 C 0.33719 0.48868 0.64522 0.0
C3080 C 0.31483 0.52913 0.64757 0.0
C3081 C 0.33364 0.54018 0.63177 0.0
N3082 N 0.3674 0.53242 0.60168 0.0
N3083 N 0.29399 0.49027 0.65999 0.0
C3084 C 0.35338 0.5249 0.62205 0.0
C3085 C 0.31501 0.5025 0.65132 0.0
N3086 N 0.38115 0.49053 0.63195 0.0
N3087 N 0.29752 0.54386 0.65981 0.0
H3088 H 0.29326 0.47071 0.66226 0.0
H3089 H 0.27663 0.49926 0.66248 0.0
H3090 H 0.2972 0.56346 0.65844 0.0
H3091 H 0.28508 0.53673 0.67333 0.0
H3092 H 0.39672 0.50017 0.62461 0.0
H3093 H 0.38584 0.47387 0.64132 0.0
H3094 H 0.38083 0.52071 0.5932 0.0
H3095 H 0.36323 0.54857 0.59117 0.0
C3096 C 0.86725 0.85008 0.4974 0.0
C3097 C 0.85152 0.83113 0.48676 0.0
C3098 C 0.85006 0.80999 0.52813 0.0
C3099 C 0.86789 0.82775 0.53766 0.0
N3100 N 0.90082 0.8577 0.52701 0.0
N3101 N 0.83265 0.78985 0.49072 0.0
C3102 C 0.87889 0.84551 0.52089 0.0
C3103 C 0.84444 0.80998 0.50172 0.0
N3104 N 0.86985 0.87321 0.4862 0.0
N3105 N 0.83752 0.79408 0.54413 0.0
H3106 H 0.82876 0.78915 0.47139 0.0
H3107 H 0.82908 0.773 0.50027 0.0
H3108 H 0.84057 0.79368 0.56355 0.0
H3109 H 0.82249 0.78275 0.53833 0.0
H3110 H 0.87967 0.88801 0.49475 0.0
H3111 H 0.85965 0.87875 0.47029 0.0
H3112 H 0.91021 0.86955 0.51433 0.0
H3113 H 0.91123 0.85337 0.54319 0.0
C3114 C 0.15858 0.69133 0.51005 0.0
C3115 C 0.15214 0.66999 0.49514 0.0
C3116 C 0.12262 0.65626 0.52779 0.0
C3117 C 0.13188 0.67506 0.54444 0.0
N3118 N 0.16265 0.70802 0.55249 0.0
N3119 N 0.13411 0.6279 0.49425 0.0
C3120 C 0.15091 0.6921 0.53591 0.0
C3121 C 0.13595 0.65117 0.50529 0.0
N3122 N 0.17154 0.711 0.49951 0.0
N3123 N 0.10059 0.64376 0.53289 0.0
H3124 H 0.1451 0.62242 0.47882 0.0
H3125 H 0.12398 0.61309 0.50243 0.0
H3126 H 0.089 0.64833 0.54818 0.0
H3127 H 0.09235 0.63121 0.52012 0.0
H3128 H 0.17462 0.72802 0.50891 0.0
H3129 H 0.17712 0.71114 0.48058 0.0
H3130 H 0.17832 0.7189 0.54756 0.0
H3131 H 0.1585 0.70854 0.57172 0.0
C3132 C 0.87688 0.18559 0.97755 0.0
C3133 C 0.8694 0.16749 0.95915 0.0
C3134 C 0.84741 0.14295 0.99158 0.0
C3135 C 0.8542 0.1613 0.0099 0.0
N3136 N 0.87085 0.20237 0.01993 0.0
N3137 N 0.84194 0.13331 0.94731 0.0
C3138 C 0.86737 0.18348 0.0027 0.0
C3139 C 0.85278 0.14762 0.96581 0.0
N3140 N 0.89425 0.20373 0.9715 0.0
N3141 N 0.83705 0.12041 0.99889 0.0
H3142 H 0.84541 0.13666 0.92823 0.0
H3143 H 0.82775 0.12011 0.95073 0.0
H3144 H 0.83313 0.11592 0.01765 0.0
H3145 H 0.83437 0.10525 0.98664 0.0
H3146 H 0.9027 0.2155 0.98481 0.0
H3147 H 0.90153 0.20603 0.95334 0.0
H3148 H 0.87815 0.22004 0.01528 0.0
H3149 H 0.86448 0.20102 0.03857 0.0
C3150 C 0.12043 0.31839 0.975 0.0
C3151 C 0.12598 0.33626 0.9557 0.0
C3152 C 0.15199 0.36066 0.98511 0.0
C3153 C 0.14658 0.34282 0.00445 0.0
N3154 N 0.1303 0.30233 0.01699 0.0
N3155 N 0.15179 0.37067 0.94051 0.0
C3156 C 0.13238 0.32079 0.99905 0.0
C3157 C 0.14336 0.35614 0.96018 0.0
N3158 N 0.10261 0.30014 0.97088 0.0
N3159 N 0.16414 0.3827 0.99089 0.0
H3160 H 0.14531 0.36859 0.92203 0.0
H3161 H 0.16678 0.38334 0.94202 0.0
H3162 H 0.17098 0.38672 0.00887 0.0
H3163 H 0.16579 0.39786 0.97844 0.0
H3164 H 0.09558 0.28839 0.98501 0.0
H3165 H 0.09353 0.29772 0.95355 0.0
H3166 H 0.12221 0.28473 0.01359 0.0
H3167 H 0.1386 0.30391 0.03482 0.0
C3168 C 0.50714 0.83688 0.814 0.0
C3169 C 0.49183 0.84409 0.83489 0.0
C3170 C 0.52599 0.87121 0.84994 0.0
C3171 C 0.54288 0.86065 0.83201 0.0
N3172 N 0.54981 0.8302 0.79857 0.0
N3173 N 0.4908 0.8621 0.87704 0.0
C3174 C 0.53357 0.84263 0.8143 0.0
C3175 C 0.50243 0.85951 0.85413 0.0
N3176 N 0.49644 0.82514 0.79367 0.0
N3177 N 0.53184 0.89305 0.86239 0.0
H3178 H 0.47455 0.85217 0.88198 0.0
H3179 H 0.49916 0.87162 0.89215 0.0
H3180 H 0.5479 0.90371 0.85825 0.0
H3181 H 0.51902 0.9022 0.87427 0.0
H3182 H 0.50627 0.82158 0.77696 0.0
H3183 H 0.47714 0.8212 0.79263 0.0
H3184 H 0.54423 0.81511 0.78723 0.0
H3185 H 0.56924 0.83336 0.79845 0.0
C3186 C 0.49375 0.63688 0.85808 0.0
C3187 C 0.50554 0.65118 0.83868 0.0
C3188 C 0.46506 0.65212 0.81592 0.0
C3189 C 0.45487 0.63449 0.83354 0.0
N3190 N 0.46446 0.60323 0.86577 0.0
N3191 N 0.50328 0.6686 0.79654 0.0
C3192 C 0.47066 0.62479 0.85295 0.0
C3193 C 0.49146 0.65774 0.81676 0.0
N3194 N 0.50401 0.63534 0.88176 0.0
N3195 N 0.44965 0.6643 0.79917 0.0
H3196 H 0.52264 0.67236 0.79629 0.0
H3197 H 0.49431 0.67159 0.77925 0.0
H3198 H 0.43016 0.66158 0.79853 0.0
H3199 H 0.45594 0.67899 0.78764 0.0
H3200 H 0.49463 0.6266 0.89676 0.0
H3201 H 0.52013 0.64527 0.88721 0.0
H3202 H 0.47666 0.59483 0.8788 0.0
H3203 H 0.44905 0.59192 0.86099 0.0
C3204 C 0.53882 0.14574 0.65152 0.0
C3205 C 0.54426 0.12632 0.66915 0.0
C3206 C 0.5012 0.12956 0.68615 0.0
C3207 C 0.49482 0.1458 0.66588 0.0
N3208 N 0.50675 0.16725 0.62729 0.0
N3209 N 0.53021 0.09796 0.70217 0.0
C3210 C 0.51348 0.15362 0.6482 0.0
C3211 C 0.52549 0.11799 0.68653 0.0
N3212 N 0.5579 0.15682 0.63801 0.0
N3213 N 0.48397 0.12519 0.70491 0.0
H3214 H 0.54758 0.08868 0.7029 0.0
H3215 H 0.51635 0.08923 0.71309 0.0
H3216 H 0.46598 0.13333 0.70486 0.0
H3217 H 0.48822 0.11545 0.72149 0.0
H3218 H 0.55541 0.17307 0.62717 0.0
H3219 H 0.57673 0.15123 0.63938 0.0
H3220 H 0.51896 0.17082 0.61224 0.0
H3221 H 0.48834 0.17323 0.62384 0.0
C3222 C 0.47087 0.355 0.64084 0.0
C3223 C 0.46157 0.36834 0.66214 0.0
C3224 C 0.50284 0.36315 0.68302 0.0
C3225 C 0.51266 0.35264 0.66044 0.0
N3226 N 0.50735 0.34388 0.61592 0.0
N3227 N 0.47013 0.38901 0.70206 0.0
C3228 C 0.49705 0.35011 0.63879 0.0
C3229 C 0.47784 0.37335 0.68302 0.0
N3230 N 0.45458 0.34629 0.6228 0.0
N3231 N 0.51729 0.36326 0.70442 0.0
H3232 H 0.45238 0.39752 0.70254 0.0
H3233 H 0.48215 0.39537 0.7163 0.0
H3234 H 0.53587 0.35659 0.7047 0.0
H3235 H 0.51027 0.36819 0.72214 0.0
H3236 H 0.46005 0.33406 0.60836 0.0
H3237 H 0.43513 0.34908 0.62381 0.0
H3238 H 0.49723 0.34438 0.59902 0.0
H3239 H 0.52661 0.34065 0.61336 0.0
C3240 C 0.84112 0.50492 0.83759 0.0
C3241 C 0.82225 0.48694 0.84412 0.0
C3242 C 0.80177 0.51772 0.87198 0.0
C3243 C 0.82091 0.53553 0.86575 0.0
N3244 N 0.85507 0.54844 0.83837 0.0
N3245 N 0.78169 0.47753 0.86229 0.0
C3246 C 0.83931 0.52988 0.84708 0.0
C3247 C 0.8015 0.49388 0.85954 0.0
N3248 N 0.86167 0.49771 0.82363 0.0
N3249 N 0.78494 0.52286 0.89094 0.0
H3250 H 0.78127 0.45993 0.85339 0.0
H3251 H 0.76487 0.48219 0.87139 0.0
H3252 H 0.78445 0.54004 0.90052 0.0
H3253 H 0.77251 0.50956 0.89839 0.0
H3254 H 0.8777 0.50887 0.82117 0.0
H3255 H 0.86352 0.47985 0.81568 0.0
H3256 H 0.86671 0.54637 0.82262 0.0
H3257 H 0.85512 0.56673 0.8456 0.0
C3258 C 0.85283 0.48213 0.6201 0.0
C3259 C 0.83248 0.46661 0.62811 0.0
C3260 C 0.81436 0.50332 0.6501 0.0
C3261 C 0.83707 0.51694 0.64578 0.0
N3262 N 0.88121 0.51487 0.63331 0.0
N3263 N 0.79538 0.462 0.65479 0.0
C3264 C 0.8573 0.5051 0.63271 0.0
C3265 C 0.81346 0.47705 0.64414 0.0
N3266 N 0.86743 0.47564 0.59981 0.0
N3267 N 0.79359 0.51545 0.65949 0.0
H3268 H 0.7944 0.44258 0.65197 0.0
H3269 H 0.7828 0.46846 0.66852 0.0
H3270 H 0.79357 0.53472 0.66362 0.0
H3271 H 0.77587 0.50693 0.66079 0.0
H3272 H 0.88131 0.4876 0.59249 0.0
H3273 H 0.86344 0.46019 0.5883 0.0
H3274 H 0.89672 0.5054 0.62562 0.0
H3275 H 0.88614 0.53054 0.64412 0.0
C3276 C 0.17795 0.00855 0.62962 0.0
C3277 C 0.15869 0.00201 0.64702 0.0
C3278 C 0.14564 0.04631 0.64981 0.0
C3279 C 0.16238 0.05224 0.62975 0.0
N3280 N 0.1928 0.03857 0.59841 0.0
N3281 N 0.12181 0.01393 0.67131 0.0
C3282 C 0.17838 0.03334 0.61923 0.0
C3283 C 0.14201 0.02073 0.65666 0.0
N3284 N 0.19586 0.99109 0.62318 0.0
N3285 N 0.13348 0.06517 0.66266 0.0
H3286 H 0.11824 0.99538 0.67668 0.0
H3287 H 0.10735 0.02631 0.67634 0.0
H3288 H 0.13535 0.08422 0.65808 0.0
H3289 H 0.12341 0.06215 0.67932 0.0
H3290 H 0.2119 0.99539 0.61257 0.0
H3291 H 0.1958 0.97272 0.63035 0.0
H3292 H 0.20251 0.02483 0.58821 0.0
H3293 H 0.19355 0.05632 0.58997 0.0
C3294 C 0.64586 0.49279 0.35586 0.0
C3295 C 0.66806 0.5079 0.35538 0.0
C3296 C 0.69254 0.47242 0.37242 0.0
C3297 C 0.67057 0.45692 0.37097 0.0
N3298 N 0.62888 0.45054 0.35364 0.0
N3299 N 0.71337 0.51108 0.35895 0.0
C3300 C 0.64803 0.46657 0.36028 0.0
C3301 C 0.69175 0.4973 0.3621 0.0
N3302 N 0.62251 0.5035 0.35307 0.0
N3303 N 0.71353 0.46417 0.38506 0.0
H3304 H 0.71326 0.52963 0.3523 0.0
H3305 H 0.73142 0.50347 0.36107 0.0
H3306 H 0.71484 0.4464 0.39339 0.0
H3307 H 0.72894 0.47573 0.38912 0.0
H3308 H 0.60574 0.49362 0.35621 0.0
H3309 H 0.61976 0.5226 0.34926 0.0
H3310 H 0.61297 0.45643 0.3436 0.0
H3311 H 0.63028 0.43096 0.35555 0.0
C3312 C 0.64989 0.67954 0.97157 0.0
C3313 C 0.63416 0.66003 0.9616 0.0
C3314 C 0.63852 0.63678 0.0013 0.0
C3315 C 0.65124 0.65757 0.01244 0.0
N3316 N 0.66505 0.70082 0.00931 0.0
N3317 N 0.60659 0.6247 0.97143 0.0
C3318 C 0.65573 0.67963 0.99791 0.0
C3319 C 0.62643 0.63999 0.97774 0.0
N3320 N 0.66028 0.69732 0.956 0.0
N3321 N 0.63866 0.61356 0.0126 0.0
H3322 H 0.59534 0.62764 0.95556 0.0
H3323 H 0.59924 0.61122 0.98381 0.0
H3324 H 0.64843 0.60974 0.02926 0.0
H3325 H 0.63154 0.59745 0.00377 0.0
H3326 H 0.67394 0.71016 0.96203 0.0
H3327 H 0.65725 0.69785 0.9366 0.0
H3328 H 0.66629 0.71823 0.00019 0.0
H3329 H 0.66929 0.70154 0.02856 0.0
C3330 C 0.34783 0.85207 0.99178 0.0
C3331 C 0.35377 0.83295 0.0097 0.0
C3332 C 0.37873 0.81053 0.97777 0.0
C3333 C 0.37164 0.82907 0.95962 0.0
N3334 N 0.34477 0.86395 0.94776 0.0
N3335 N 0.37089 0.79189 0.01905 0.0
C3336 C 0.3547 0.84871 0.96615 0.0
C3337 C 0.36795 0.81145 0.00244 0.0
N3338 N 0.33675 0.8741 0.99946 0.0
N3339 N 0.39676 0.79295 0.97193 0.0
H3340 H 0.36349 0.79229 0.03735 0.0
H3341 H 0.37881 0.77458 0.01411 0.0
H3342 H 0.40517 0.79166 0.95416 0.0
H3343 H 0.40478 0.78083 0.98519 0.0
H3344 H 0.33469 0.88984 0.98783 0.0
H3345 H 0.33164 0.87755 0.01812 0.0
H3346 H 0.33005 0.87662 0.95103 0.0
H3347 H 0.34953 0.86233 0.9287 0.0
C3348 C 0.63588 0.30268 0.52291 0.0
C3349 C 0.63983 0.32253 0.54063 0.0
C3350 C 0.6643 0.34617 0.50893 0.0
C3351 C 0.66028 0.32642 0.49127 0.0
N3352 N 0.64753 0.28379 0.48258 0.0
N3353 N 0.66224 0.36062 0.55215 0.0
C3354 C 0.64788 0.3039 0.49874 0.0
C3355 C 0.65553 0.34339 0.53412 0.0
N3356 N 0.61921 0.28368 0.52831 0.0
N3357 N 0.67528 0.36829 0.50126 0.0
H3358 H 0.65589 0.35968 0.5707 0.0
H3359 H 0.67606 0.37438 0.54953 0.0
H3360 H 0.68321 0.37081 0.48343 0.0
H3361 H 0.67528 0.38479 0.51196 0.0
H3362 H 0.61328 0.27037 0.5151 0.0
H3363 H 0.6097 0.28217 0.54549 0.0
H3364 H 0.64096 0.26594 0.4876 0.0
H3365 H 0.65601 0.28444 0.46475 0.0
C3366 C 0.37843 0.14097 0.5256 0.0
C3367 C 0.37005 0.16127 0.54092 0.0
C3368 C 0.34953 0.17964 0.50349 0.0
C3369 C 0.35395 0.15687 0.48999 0.0
N3370 N 0.36567 0.11262 0.49269 0.0
N3371 N 0.34365 0.19853 0.54474 0.0
C3372 C 0.36635 0.13653 0.50233 0.0
C3373 C 0.35455 0.18039 0.52999 0.0
N3374 N 0.39863 0.12644 0.53255 0.0
N3375 N 0.34118 0.20064 0.49105 0.0
H3376 H 0.34592 0.19938 0.56425 0.0
H3377 H 0.3303 0.21128 0.53783 0.0
H3378 H 0.33806 0.20093 0.47157 0.0
H3379 H 0.33985 0.2183 0.49964 0.0
H3380 H 0.40611 0.11249 0.5208 0.0
H3381 H 0.40995 0.13063 0.54816 0.0
H3382 H 0.37308 0.09713 0.50239 0.0
H3383 H 0.355 0.10777 0.47688 0.0
C3384 C 0.9768 0.64784 0.69457 0.0
C3385 C 0.96857 0.62788 0.67853 0.0
C3386 C 0.01008 0.62731 0.65825 0.0
C3387 C 0.01931 0.64546 0.67575 0.0
N3388 N 0.01272 0.66798 0.71483 0.0
N3389 N 0.98158 0.59239 0.6528 0.0
C3390 C 0.00308 0.65401 0.69541 0.0
C3391 C 0.9866 0.61555 0.66295 0.0
N3392 N 0.95971 0.66202 0.70772 0.0
N3393 N 0.02241 0.62252 0.63605 0.0
H3394 H 0.96531 0.58224 0.65724 0.0
H3395 H 0.99507 0.58209 0.64276 0.0
H3396 H 0.03833 0.63241 0.63006 0.0
H3397 H 0.0148 0.61091 0.62205 0.0
H3398 H 0.96474 0.67828 0.71761 0.0
H3399 H 0.94027 0.65915 0.70679 0.0
H3400 H 0.00215 0.67293 0.73072 0.0
H3401 H 0.03194 0.6723 0.71617 0.0
C3402 C 0.00849 0.84716 0.64831 0.0
C3403 C 0.98895 0.8523 0.66598 0.0
C3404 C 0.01704 0.88058 0.68959 0.0
C3405 C 0.03648 0.87569 0.67168 0.0
N3406 N 0.05292 0.84989 0.63778 0.0
N3407 N 0.97571 0.86889 0.70613 0.0
C3408 C 0.0329 0.85747 0.65231 0.0
C3409 C 0.99367 0.86732 0.68762 0.0
N3410 N 0.00333 0.83363 0.62687 0.0
N3411 N 0.02028 0.89903 0.70739 0.0
H3412 H 0.9584 0.85947 0.7049 0.0
H3413 H 0.97869 0.87762 0.7235 0.0
H3414 H 0.03708 0.90913 0.70946 0.0
H3415 H 0.00585 0.90553 0.71909 0.0
H3416 H 0.01574 0.83214 0.61165 0.0
H3417 H 0.98592 0.8251 0.6234 0.0
H3418 H 0.05229 0.83444 0.62563 0.0
H3419 H 0.07091 0.85773 0.6393 0.0
C3420 C 0.96589 0.38147 0.84578 0.0
C3421 C 0.95007 0.36911 0.82803 0.0
C3422 C 0.98782 0.34847 0.81048 0.0
C3423 C 0.00212 0.35671 0.83168 0.0
N3424 N 0.00121 0.37557 0.87353 0.0
N3425 N 0.94617 0.338 0.79465 0.0
C3426 C 0.99024 0.37175 0.85046 0.0
C3427 C 0.96105 0.35194 0.81046 0.0
N3428 N 0.95813 0.40298 0.85773 0.0
N3429 N 0.99976 0.33774 0.79027 0.0
H3430 H 0.92655 0.33937 0.79426 0.0
H3431 H 0.95323 0.32341 0.78347 0.0
H3432 H 0.01937 0.33559 0.78947 0.0
H3433 H 0.99052 0.33345 0.77341 0.0
H3434 H 0.97004 0.41341 0.86948 0.0
H3435 H 0.94125 0.41214 0.85327 0.0
H3436 H 0.99187 0.38477 0.88827 0.0
H3437 H 0.018 0.36695 0.87906 0.0
C3438 C 0.03419 0.12739 0.85809 0.0
C3439 C 0.04948 0.13638 0.8379 0.0
C3440 C 0.01106 0.15303 0.81767 0.0
C3441 C 0.99712 0.14787 0.84001 0.0
N3442 N 0.99888 0.13762 0.88468 0.0
N3443 N 0.05229 0.16241 0.80022 0.0
C3444 C 0.00968 0.1373 0.86121 0.0
C3445 C 0.03791 0.15045 0.81802 0.0
N3446 N 0.04228 0.10843 0.87364 0.0
N3447 N 0.99875 0.15996 0.79606 0.0
H3448 H 0.07195 0.16229 0.80036 0.0
H3449 H 0.04467 0.17474 0.78687 0.0
H3450 H 0.9791 0.16153 0.79509 0.0
H3451 H 0.00784 0.16166 0.77865 0.0
H3452 H 0.03065 0.10039 0.88741 0.0
H3453 H 0.05892 0.09837 0.87056 0.0
H3454 H 0.00858 0.13181 0.90084 0.0
H3455 H 0.98173 0.14651 0.88849 0.0
C3456 C 0.68598 0.98657 0.65397 0.0
C3457 C 0.66488 0.00209 0.64828 0.0
C3458 C 0.64615 0.96768 0.62416 0.0
C3459 C 0.66479 0.95077 0.63337 0.0
N3460 N 0.70053 0.9439 0.66128 0.0
N3461 N 0.62093 0.00365 0.6351 0.0
C3462 C 0.68432 0.9601 0.64942 0.0
C3463 C 0.64375 0.99157 0.63551 0.0
N3464 N 0.70767 0.99706 0.66323 0.0
N3465 N 0.63149 0.96169 0.60375 0.0
H3466 H 0.61746 0.02029 0.64498 0.0
H3467 H 0.60468 0.99536 0.62759 0.0
H3468 H 0.63435 0.94553 0.59288 0.0
H3469 H 0.61892 0.97454 0.59564 0.0
H3470 H 0.7244 0.98688 0.66547 0.0
H3471 H 0.70959 0.01642 0.66634 0.0
H3472 H 0.71341 0.94976 0.67498 0.0
H3473 H 0.69945 0.92438 0.65946 0.0
C3474 C 0.68659 0.02743 0.84321 0.0
C3475 C 0.68937 0.03054 0.86955 0.0
C3476 C 0.69035 0.9846 0.87452 0.0
C3477 C 0.68016 0.98207 0.84982 0.0
N3478 N 0.66766 0.00208 0.81045 0.0
N3479 N 0.6975 0.01233 0.91037 0.0
C3480 C 0.67855 0.00365 0.8338 0.0
C3481 C 0.69276 0.00911 0.8852 0.0
N3482 N 0.69168 0.04706 0.82732 0.0
N3483 N 0.69746 0.96353 0.88764 0.0
H3484 H 0.70107 0.03009 0.91816 0.0
H3485 H 0.69717 0.99766 0.9235 0.0
H3486 H 0.69625 0.94545 0.87985 0.0
H3487 H 0.70669 0.96414 0.90502 0.0
H3488 H 0.69133 0.04541 0.80768 0.0
H3489 H 0.69974 0.06377 0.83391 0.0
H3490 H 0.66357 0.0179 0.79944 0.0
H3491 H 0.6608 0.98533 0.80287 0.0
C3492 C 0.31631 0.46439 0.83072 0.0
C3493 C 0.3129 0.46003 0.85682 0.0
C3494 C 0.30974 0.5056 0.86378 0.0
C3495 C 0.32024 0.50959 0.83947 0.0
N3496 N 0.33361 0.49258 0.79915 0.0
N3497 N 0.30271 0.47601 0.89808 0.0
C3498 C 0.32301 0.48902 0.82244 0.0
C3499 C 0.30799 0.48056 0.87325 0.0
N3500 N 0.31293 0.44509 0.81402 0.0
N3501 N 0.302 0.52584 0.87779 0.0
H3502 H 0.2995 0.4578 0.90484 0.0
H3503 H 0.30214 0.49001 0.91189 0.0
H3504 H 0.30306 0.54431 0.87092 0.0
H3505 H 0.29253 0.52423 0.89499 0.0
H3506 H 0.31385 0.44739 0.79448 0.0
H3507 H 0.3056 0.42777 0.81987 0.0
H3508 H 0.33869 0.4777 0.78729 0.0
H3509 H 0.33884 0.51028 0.7923 0.0
C3510 C 0.82007 0.01661 0.1241 0.0
C3511 C 0.82854 0.03665 0.13975 0.0
C3512 C 0.84221 0.00646 0.17205 0.0
C3513 C 0.83549 0.98633 0.15563 0.0
N3514 N 0.8121 0.97156 0.11958 0.0
N3515 N 0.83914 0.05117 0.18135 0.0
C3516 C 0.82236 0.99124 0.13279 0.0
C3517 C 0.83679 0.03168 0.16469 0.0
N3518 N 0.81076 0.02186 0.1006 0.0
N3519 N 0.85514 0.00163 0.19392 0.0
H3520 H 0.83493 0.06967 0.17626 0.0
H3521 H 0.84241 0.04873 0.2006 0.0
H3522 H 0.85941 0.98344 0.20016 0.0
H3523 H 0.86303 0.01567 0.20521 0.0
H3524 H 0.80724 0.00827 0.08684 0.0
H3525 H 0.80695 0.04024 0.0947 0.0
H3526 H 0.80057 0.97375 0.10379 0.0
H3527 H 0.81348 0.95287 0.12575 0.0
C3528 C 0.37303 0.34882 0.99058 0.0
C3529 C 0.35638 0.33143 0.97871 0.0
C3530 C 0.3547 0.30696 0.01812 0.0
C3531 C 0.37345 0.32303 0.02873 0.0
N3532 N 0.40695 0.35305 0.02058 0.0
N3533 N 0.33639 0.29044 0.97948 0.0
C3534 C 0.38477 0.3419 0.01347 0.0
C3535 C 0.34883 0.3093 0.99192 0.0
N3536 N 0.37638 0.37265 0.9812 0.0
N3537 N 0.34143 0.29058 0.03303 0.0
H3538 H 0.33243 0.2913 0.96017 0.0
H3539 H 0.3324 0.27301 0.98775 0.0
H3540 H 0.34436 0.2888 0.05241 0.0
H3541 H 0.32586 0.28044 0.02649 0.0
H3542 H 0.38688 0.38635 0.99071 0.0
H3543 H 0.36621 0.37979 0.96591 0.0
H3544 H 0.41665 0.36569 0.00895 0.0
H3545 H 0.41713 0.34727 0.03647 0.0
C3546 C 0.6521 0.14652 0.03489 0.0
C3547 C 0.63482 0.16602 0.04109 0.0
C3548 C 0.63555 0.18064 0.99698 0.0
C3549 C 0.64997 0.15908 0.9904 0.0
N3550 N 0.66828 0.11899 0.00239 0.0
N3551 N 0.60744 0.20005 0.02752 0.0
C3552 C 0.65735 0.14139 0.00919 0.0
C3553 C 0.62599 0.18291 0.02208 0.0
N3554 N 0.66386 0.1331 0.05361 0.0
N3555 N 0.63116 0.19896 0.97932 0.0
H3556 H 0.59973 0.20229 0.04551 0.0
H3557 H 0.59826 0.21078 0.0138 0.0
H3558 H 0.63755 0.19752 0.9607 0.0
H3559 H 0.62302 0.21636 0.9836 0.0
H3560 H 0.67875 0.12067 0.05021 0.0
H3561 H 0.66051 0.13618 0.07277 0.0
H3562 H 0.67151 0.10424 0.01503 0.0
H3563 H 0.67187 0.11408 0.98369 0.0
C3564 C 0.37427 0.68408 0.47668 0.0
C3565 C 0.3661 0.66659 0.45798 0.0
C3566 C 0.33706 0.6471 0.4882 0.0
C3567 C 0.34519 0.66448 0.50697 0.0
N3568 N 0.36657 0.703 0.51787 0.0
N3569 N 0.33475 0.63684 0.44372 0.0
C3570 C 0.36208 0.68426 0.5007 0.0
C3571 C 0.34578 0.64992 0.46305 0.0
N3572 N 0.39469 0.69929 0.47217 0.0
N3573 N 0.32241 0.62684 0.49471 0.0
H3574 H 0.34082 0.63848 0.42505 0.0
H3575 H 0.31815 0.62643 0.44577 0.0
H3576 H 0.31584 0.62382 0.513 0.0
H3577 H 0.31845 0.61194 0.48249 0.0
H3578 H 0.40335 0.7102 0.48605 0.0
H3579 H 0.40417 0.69981 0.45491 0.0
H3580 H 0.37691 0.71923 0.51375 0.0
H3581 H 0.35792 0.70332 0.53562 0.0
C3582 C 0.63156 0.80669 0.47286 0.0
C3583 C 0.6331 0.82888 0.45771 0.0
C3584 C 0.65646 0.85059 0.4913 0.0
C3585 C 0.65459 0.82859 0.50655 0.0
N3586 N 0.64575 0.78432 0.51053 0.0
N3587 N 0.65096 0.87024 0.45044 0.0
C3588 C 0.64402 0.80609 0.49677 0.0
C3589 C 0.64691 0.85023 0.46628 0.0
N3590 N 0.61666 0.78696 0.46533 0.0
N3591 N 0.66613 0.87235 0.50133 0.0
H3592 H 0.6431 0.87157 0.43248 0.0
H3593 H 0.66347 0.88489 0.45436 0.0
H3594 H 0.67451 0.87309 0.5191 0.0
H3595 H 0.66467 0.89001 0.49282 0.0
H3596 H 0.61255 0.77144 0.47669 0.0
H3597 H 0.6067 0.78685 0.44834 0.0
H3598 H 0.64055 0.76665 0.50365 0.0
H3599 H 0.65455 0.78368 0.52818 0.0
C3600 C 0.0291 0.37213 0.35297 0.0
C3601 C 0.04408 0.36724 0.33114 0.0
C3602 C 0.00727 0.34592 0.3121 0.0
C3603 C 0.99404 0.34812 0.33533 0.0
N3604 N 0.99702 0.35524 0.38039 0.0
N3605 N 0.04836 0.34368 0.29199 0.0
C3606 C 0.0065 0.35853 0.35658 0.0
C3607 C 0.03348 0.3525 0.31116 0.0
N3608 N 0.03526 0.39086 0.36966 0.0
N3609 N 0.99483 0.3381 0.29089 0.0
H3610 H 0.06781 0.34652 0.2912 0.0
H3611 H 0.04181 0.33108 0.27835 0.0
H3612 H 0.97573 0.33318 0.29099 0.0
H3613 H 0.00296 0.3386 0.27294 0.0
H3614 H 0.02349 0.39591 0.38467 0.0
H3615 H 0.0499 0.40365 0.36671 0.0
H3616 H 0.00679 0.36092 0.39656 0.0
H3617 H 0.98108 0.34427 0.38408 0.0
C3618 C 0.00688 0.12638 0.35426 0.0
C3619 C 0.01801 0.14112 0.33468 0.0
C3620 C 0.97655 0.14358 0.31376 0.0
C3621 C 0.96611 0.12739 0.33253 0.0
N3622 N 0.975 0.09566 0.36445 0.0
N3623 N 0.01469 0.15707 0.2921 0.0
C3624 C 0.98242 0.11629 0.35074 0.0
C3625 C 0.00323 0.14749 0.31316 0.0
N3626 N 0.01855 0.12319 0.37707 0.0
N3627 N 0.9612 0.1564 0.29743 0.0
H3628 H 0.03426 0.15942 0.29089 0.0
H3629 H 0.00515 0.16004 0.27511 0.0
H3630 H 0.94157 0.15502 0.29768 0.0
H3631 H 0.9679 0.17033 0.2852 0.0
H3632 H 0.00951 0.11504 0.39259 0.0
H3633 H 0.036 0.13083 0.38157 0.0
H3634 H 0.98738 0.08574 0.37617 0.0
H3635 H 0.95775 0.08652 0.3619 0.0
C3636 C 0.9933 0.64452 0.20155 0.0
C3637 C 0.98811 0.66784 0.18941 0.0
C3638 C 0.03337 0.67715 0.18705 0.0
C3639 C 0.03833 0.652 0.19448 0.0
N3640 N 0.02513 0.61539 0.21769 0.0
N3641 N 0.00231 0.71026 0.18064 0.0
C3642 C 0.0189 0.63698 0.20502 0.0
C3643 C 0.00787 0.6856 0.18566 0.0
N3644 N 0.97361 0.62926 0.20834 0.0
N3645 N 0.05304 0.69235 0.18011 0.0
H3646 H 0.98392 0.71692 0.17866 0.0
H3647 H 0.0158 0.72456 0.18064 0.0
H3648 H 0.07177 0.68712 0.18338 0.0
H3649 H 0.05089 0.70974 0.17118 0.0
H3650 H 0.97564 0.61089 0.21503 0.0
H3651 H 0.95484 0.63526 0.20693 0.0
H3652 H 0.01214 0.60369 0.2267 0.0
H3653 H 0.04393 0.61038 0.22096 0.0
C3654 C 0.00153 0.84958 0.19558 0.0
C3655 C 0.00881 0.83505 0.17431 0.0
C3656 C 0.96432 0.82918 0.1631 0.0
C3657 C 0.95768 0.84829 0.18044 0.0
N3658 N 0.96904 0.87497 0.21568 0.0
N3659 N 0.99711 0.81154 0.13683 0.0
C3660 C 0.97589 0.85759 0.19788 0.0
C3661 C 0.99017 0.82446 0.15809 0.0
N3662 N 0.0192 0.85566 0.21341 0.0
N3663 N 0.9457 0.81575 0.15134 0.0
H3664 H 0.01586 0.80815 0.13197 0.0
H3665 H 0.98437 0.80591 0.12291 0.0
H3666 H 0.92664 0.81876 0.15542 0.0
H3667 H 0.94917 0.80002 0.14002 0.0
H3668 H 0.0149 0.86441 0.2305 0.0
H3669 H 0.03805 0.84995 0.21197 0.0
H3670 H 0.98192 0.88518 0.22647 0.0
H3671 H 0.95027 0.87957 0.21943 0.0
C3672 C 0.30867 0.0223 0.35575 0.0
C3673 C 0.32472 0.03226 0.37495 0.0
C3674 C 0.34736 0.99219 0.3768 0.0
C3675 C 0.33005 0.98119 0.35952 0.0
N3676 N 0.28998 0.98441 0.33789 0.0
N3677 N 0.35125 0.02196 0.41082 0.0
C3678 C 0.30925 0.9958 0.35072 0.0
C3679 C 0.34138 0.01566 0.38782 0.0
N3680 N 0.2939 0.03785 0.34139 0.0
N3681 N 0.37041 0.98148 0.38148 0.0
H3682 H 0.34566 0.0381 0.42065 0.0
H3683 H 0.36227 0.00946 0.42138 0.0
H3684 H 0.37724 0.96579 0.37175 0.0
H3685 H 0.38406 0.9903 0.39266 0.0
H3686 H 0.28409 0.03154 0.32551 0.0
H3687 H 0.29305 0.05731 0.3438 0.0
H3688 H 0.27337 0.99379 0.33296 0.0
H3689 H 0.28955 0.96498 0.3346 0.0
C3690 C 0.31554 0.0051 0.12672 0.0
C3691 C 0.3271 0.00693 0.15088 0.0
C3692 C 0.31973 0.96176 0.15709 0.0
C3693 C 0.31572 0.95915 0.13093 0.0
N3694 N 0.3064 0.97813 0.09073 0.0
N3695 N 0.34198 0.98552 0.18874 0.0
C3696 C 0.31216 0.98085 0.11574 0.0
C3697 C 0.32916 0.98498 0.16635 0.0
N3698 N 0.30815 0.02652 0.11436 0.0
N3699 N 0.31477 0.94208 0.17292 0.0
H3700 H 0.3507 0.00162 0.19574 0.0
H3701 H 0.34605 0.96929 0.19914 0.0
H3702 H 0.30589 0.92578 0.16638 0.0
H3703 H 0.31608 0.94346 0.19253 0.0
H3704 H 0.29805 0.02635 0.09746 0.0
H3705 H 0.31007 0.04442 0.12241 0.0
H3706 H 0.30643 0.99303 0.07786 0.0
H3707 H 0.3023 0.96054 0.08282 0.0
C3708 C 0.64802 0.51242 0.17285 0.0
C3709 C 0.66044 0.49158 0.16146 0.0
C3710 C 0.68313 0.51981 0.13265 0.0
C3711 C 0.6698 0.54064 0.1432 0.0
N3712 N 0.64443 0.55788 0.17698 0.0
N3713 N 0.69416 0.47532 0.13577 0.0
C3714 C 0.65388 0.53727 0.16459 0.0
C3715 C 0.67961 0.49533 0.14319 0.0
N3716 N 0.62965 0.50828 0.19062 0.0
N3717 N 0.69761 0.52304 0.11145 0.0
H3718 H 0.69162 0.45717 0.14307 0.0
H3719 H 0.71004 0.47703 0.12425 0.0
H3720 H 0.70091 0.54057 0.10317 0.0
H3721 H 0.70517 0.50817 0.10104 0.0
H3722 H 0.61747 0.52221 0.19729 0.0
H3723 H 0.62577 0.49044 0.19805 0.0
H3724 H 0.63497 0.55693 0.19421 0.0
H3725 H 0.64774 0.57633 0.17101 0.0
C3726 C 0.19086 0.97133 0.84908 0.0
C3727 C 0.17133 0.96156 0.86494 0.0
C3728 C 0.1494 0.00196 0.86234 0.0
C3729 C 0.1704 0.01301 0.84986 0.0
N3730 N 0.21335 0.00884 0.83505 0.0
N3731 N 0.1374 0.97196 0.89405 0.0
C3732 C 0.19188 0.99789 0.84431 0.0
C3733 C 0.15221 0.97816 0.87381 0.0
N3734 N 0.20768 0.95546 0.83763 0.0
N3735 N 0.12635 0.01362 0.86253 0.0
H3736 H 0.14044 0.95589 0.90501 0.0
H3737 H 0.12448 0.98458 0.90198 0.0
H3738 H 0.12278 0.03027 0.85268 0.0
H3739 H 0.11017 0.005 0.86982 0.0
H3740 H 0.22059 0.96153 0.82403 0.0
H3741 H 0.20723 0.93594 0.83976 0.0
H3742 H 0.23034 0.99908 0.83297 0.0
H3743 H 0.21476 0.0282 0.83166 0.0
loop_
_geom_bond_atom_site_label_1
_geom_bond_atom_site_label_2
_geom_bond_distance
_geom_bond_site_symmetry_2
_ccdc_geom_bond_type
C0 C1 1.351 . S
C0 N3 1.368 . S
C0 H5 0.931 . S
C1 C0 1.351 . S
C1 N2 1.373 . S
C1 H29 0.930 . S
N2 C1 1.373 . S
N2 C4 1.340 . S
N3 C0 1.368 . S
N3 C4 1.321 . S
N3 Co6 2.135 . S
C4 N2 1.340 . S
C4 N3 1.321 . S
C4 H28 0.930 . S
H5 C0 0.931 . S
Co6 N3 2.135 . S
Co6 N9 2.121 . S
Co6 O14 2.055 . S
Co6 O17 2.039 . S
Co6 N20 2.140 . S
C7 O8 1.227 . S
C7 O17 1.265 . S
O8 C7 1.227 . S
N9 Co6 2.121 . S
N9 C11 1.375 . S
N9 C12 1.313 . S
C10 C11 1.338 . S
C10 N13 1.377 . S
C10 H30 0.930 . S
C11 N9 1.375 . S
C11 C10 1.338 . S
C11 H15 0.931 . S
C12 N9 1.313 . S
C12 N13 1.344 . S
C12 H16 0.930 . S
N13 C10 1.377 . S
N13 C12 1.344 . S
O14 Co6 2.055 . S
O14 C18 1.253 . S
H15 C11 0.931 . S
H16 C12 0.930 . S
O17 Co6 2.039 . S
O17 C7 1.265 . S
C18 O14 1.253 . S
C18 O19 1.227 . S
O19 C18 1.227 . S
N20 Co6 2.140 . S
N20 C23 1.346 . S
N20 C24 1.345 . S
C21 C22 1.387 . S
C21 C25 1.391 . S
C22 C21 1.387 . S
C22 C23 1.369 . S
C22 H31 0.929 . S
C23 N20 1.346 . S
C23 C22 1.369 . S
C23 H26 0.928 . S
C24 N20 1.345 . S
C24 C25 1.371 . S
C24 H27 0.931 . S
C25 C21 1.391 . S
C25 C24 1.371 . S
C25 H32 0.930 . S
H26 C23 0.928 . S
H27 C24 0.931 . S
H28 C4 0.930 . S
H29 C1 0.930 . S
H30 C10 0.930 . S
H31 C22 0.929 . S
H32 C25 0.930 . S
C33 C34 1.351 . S
C33 N36 1.368 . S
C33 H38 0.931 . S
C34 C33 1.351 . S
C34 N35 1.373 . S
C34 H62 0.930 . S
N35 C34 1.373 . S
N35 C37 1.340 . S
N36 C33 1.368 . S
N36 C37 1.321 . S
N36 Co39 2.135 . S
C37 N35 1.340 . S
C37 N36 1.321 . S
C37 H61 0.930 . S
H38 C33 0.931 . S
Co39 N36 2.135 . S
Co39 N42 2.121 . S
Co39 O47 2.055 . S
Co39 O50 2.039 . S
Co39 N53 2.140 . S
C40 O41 1.227 . S
C40 O50 1.265 . S
O41 C40 1.227 . S
N42 Co39 2.121 . S
N42 C44 1.375 . S
N42 C45 1.313 . S
C43 C44 1.338 . S
C43 N46 1.377 . S
C43 H63 0.930 . S
C44 N42 1.375 . S
C44 C43 1.338 . S
C44 H48 0.931 . S
C45 N42 1.313 . S
C45 N46 1.344 . S
C45 H49 0.930 . S
N46 C43 1.377 . S
N46 C45 1.344 . S
O47 Co39 2.055 . S
O47 C51 1.253 . S
H48 C44 0.931 . S
H49 C45 0.930 . S
O50 Co39 2.039 . S
O50 C40 1.265 . S
C51 O47 1.253 . S
C51 O52 1.227 . S
O52 C51 1.227 . S
N53 Co39 2.140 . S
N53 C56 1.346 . S
N53 C57 1.345 . S
C54 C55 1.387 . S
C54 C58 1.391 . S
C55 C54 1.387 . S
C55 C56 1.369 . S
C55 H64 0.929 . S
C56 N53 1.346 . S
C56 C55 1.369 . S
C56 H59 0.928 . S
C57 N53 1.345 . S
C57 C58 1.371 . S
C57 H60 0.931 . S
C58 C54 1.391 . S
C58 C57 1.371 . S
C58 H65 0.930 . S
H59 C56 0.928 . S
H60 C57 0.931 . S
H61 C37 0.930 . S
H62 C34 0.930 . S
H63 C43 0.930 . S
H64 C55 0.929 . S
H65 C58 0.930 . S
C66 C67 1.351 . S
C66 N69 1.368 . S
C66 H71 0.931 . S
C67 C66 1.351 . S
C67 N68 1.373 . S
C67 H95 0.930 . S
N68 C67 1.373 . S
N68 C70 1.340 . S
N69 C66 1.368 . S
N69 C70 1.321 . S
N69 Co72 2.135 . S
C70 N68 1.340 . S
C70 N69 1.321 . S
C70 H94 0.930 . S
H71 C66 0.931 . S
Co72 N69 2.135 . S
Co72 N75 2.121 . S
Co72 O80 2.055 . S
Co72 O83 2.039 . S
Co72 N86 2.140 . S
C73 O74 1.227 . S
C73 O83 1.265 . S
O74 C73 1.227 . S
N75 Co72 2.121 . S
N75 C77 1.375 . S
N75 C78 1.313 . S
C76 C77 1.338 . S
C76 N79 1.377 . S
C76 H96 0.930 . S
C77 N75 1.375 . S
C77 C76 1.338 . S
C77 H81 0.931 . S
C78 N75 1.313 . S
C78 N79 1.344 . S
C78 H82 0.930 . S
N79 C76 1.377 . S
N79 C78 1.344 . S
O80 Co72 2.055 . S
O80 C84 1.253 . S
H81 C77 0.931 . S
H82 C78 0.930 . S
O83 Co72 2.039 . S
O83 C73 1.265 . S
C84 O80 1.253 . S
C84 O85 1.227 . S
O85 C84 1.227 . S
N86 Co72 2.140 . S
N86 C89 1.346 . S
N86 C90 1.345 . S
C87 C88 1.387 . S
C87 C91 1.391 . S
C88 C87 1.387 . S
C88 C89 1.369 . S
C88 H97 0.929 . S
C89 N86 1.346 . S
C89 C88 1.369 . S
C89 H92 0.928 . S
C90 N86 1.345 . S
C90 C91 1.371 . S
C90 H93 0.931 . S
C91 C87 1.391 . S
C91 C90 1.371 . S
C91 H98 0.930 . S
H92 C89 0.928 . S
H93 C90 0.931 . S
H94 C70 0.930 . S
H95 C67 0.930 . S
H96 C76 0.930 . S
H97 C88 0.929 . S
H98 C91 0.930 . S
C99 C100 1.351 . S
C99 N102 1.368 . S
C99 H104 0.931 . S
C100 C99 1.351 . S
C100 N101 1.373 . S
C100 H128 0.930 . S
N101 C100 1.373 . S
N101 C103 1.340 . S
N102 C99 1.368 . S
N102 C103 1.321 . S
N102 Co105 2.135 . S
C103 N101 1.340 . S
C103 N102 1.321 . S
C103 H127 0.930 . S
H104 C99 0.931 . S
Co105 N102 2.135 . S
Co105 N108 2.121 . S
Co105 O113 2.055 . S
Co105 O116 2.039 . S
Co105 N119 2.140 . S
C106 O107 1.227 . S
C106 O116 1.265 . S
O107 C106 1.227 . S
N108 Co105 2.121 . S
N108 C110 1.375 . S
N108 C111 1.313 . S
C109 C110 1.338 . S
C109 N112 1.377 . S
C109 H129 0.930 . S
C110 N108 1.375 . S
C110 C109 1.338 . S
C110 H114 0.931 . S
C111 N108 1.313 . S
C111 N112 1.344 . S
C111 H115 0.930 . S
N112 C109 1.377 . S
N112 C111 1.344 . S
O113 Co105 2.055 . S
O113 C117 1.253 . S
H114 C110 0.931 . S
H115 C111 0.930 . S
O116 Co105 2.039 . S
O116 C106 1.265 . S
C117 O113 1.253 . S
C117 O118 1.227 . S
O118 C117 1.227 . S
N119 Co105 2.140 . S
N119 C122 1.346 . S
N119 C123 1.345 . S
C120 C121 1.387 . S
C120 C124 1.391 . S
C121 C120 1.387 . S
C121 C122 1.369 . S
C121 H130 0.929 . S
C122 N119 1.346 . S
C122 C121 1.369 . S
C122 H125 0.928 . S
C123 N119 1.345 . S
C123 C124 1.371 . S
C123 H126 0.931 . S
C124 C120 1.391 . S
C124 C123 1.371 . S
C124 H131 0.930 . S
H125 C122 0.928 . S
H126 C123 0.931 . S
H127 C103 0.930 . S
H128 C100 0.930 . S
H129 C109 0.930 . S
H130 C121 0.929 . S
H131 C124 0.930 . S
C132 C133 1.351 . S
C132 N135 1.368 . S
C132 H137 0.931 . S
C133 C132 1.351 . S
C133 N134 1.373 . S
C133 H161 0.930 . S
N134 C133 1.373 . S
N134 C136 1.340 . S
N135 C132 1.368 . S
N135 C136 1.321 . S
N135 Co138 2.135 . S
C136 N134 1.340 . S
C136 N135 1.321 . S
C136 H160 0.930 . S
H137 C132 0.931 . S
Co138 N135 2.135 . S
Co138 N141 2.121 . S
Co138 O146 2.055 . S
Co138 O149 2.039 . S
Co138 N152 2.140 . S
C139 O140 1.227 . S
C139 O149 1.265 . S
O140 C139 1.227 . S
N141 Co138 2.121 . S
N141 C143 1.375 . S
N141 C144 1.313 . S
C142 C143 1.338 . S
C142 N145 1.377 . S
C142 H162 0.930 . S
C143 N141 1.375 . S
C143 C142 1.338 . S
C143 H147 0.931 . S
C144 N141 1.313 . S
C144 N145 1.344 . S
C144 H148 0.930 . S
N145 C142 1.377 . S
N145 C144 1.344 . S
O146 Co138 2.055 . S
O146 C150 1.253 . S
H147 C143 0.931 . S
H148 C144 0.930 . S
O149 Co138 2.039 . S
O149 C139 1.265 . S
C150 O146 1.253 . S
C150 O151 1.227 . S
O151 C150 1.227 . S
N152 Co138 2.140 . S
N152 C155 1.346 . S
N152 C156 1.345 . S
C153 C154 1.387 . S
C153 C157 1.391 . S
C154 C153 1.387 . S
C154 C155 1.369 . S
C154 H163 0.929 . S
C155 N152 1.346 . S
C155 C154 1.369 . S
C155 H158 0.928 . S
C156 N152 1.345 . S
C156 C157 1.371 . S
C156 H159 0.931 . S
C157 C153 1.391 . S
C157 C156 1.371 . S
C157 H164 0.930 . S
H158 C155 0.928 . S
H159 C156 0.931 . S
H160 C136 0.930 . S
H161 C133 0.930 . S
H162 C142 0.930 . S
H163 C154 0.929 . S
H164 C157 0.930 . S
C165 C166 1.351 . S
C165 N168 1.368 . S
C165 H170 0.931 . S
C166 C165 1.351 . S
C166 N167 1.373 . S
C166 H194 0.930 . S
N167 C166 1.373 . S
N167 C169 1.340 . S
N168 C165 1.368 . S
N168 C169 1.321 . S
N168 Co171 2.135 . S
C169 N167 1.340 . S
C169 N168 1.321 . S
C169 H193 0.930 . S
H170 C165 0.931 . S
Co171 N168 2.135 . S
Co171 N174 2.121 . S
Co171 O179 2.055 . S
Co171 O182 2.039 . S
Co171 N185 2.140 . S
C172 O173 1.227 . S
C172 O182 1.265 . S
O173 C172 1.227 . S
N174 Co171 2.121 . S
N174 C176 1.375 . S
N174 C177 1.313 . S
C175 C176 1.338 . S
C175 N178 1.377 . S
C175 H195 0.930 . S
C176 N174 1.375 . S
C176 C175 1.338 . S
C176 H180 0.931 . S
C177 N174 1.313 . S
C177 N178 1.344 . S
C177 H181 0.930 . S
N178 C175 1.377 . S
N178 C177 1.344 . S
O179 Co171 2.055 . S
O179 C183 1.253 . S
H180 C176 0.931 . S
H181 C177 0.930 . S
O182 Co171 2.039 . S
O182 C172 1.265 . S
C183 O179 1.253 . S
C183 O184 1.227 . S
O184 C183 1.227 . S
N185 Co171 2.140 . S
N185 C188 1.346 . S
N185 C189 1.345 . S
C186 C187 1.387 . S
C186 C190 1.391 . S
C187 C186 1.387 . S
C187 C188 1.369 . S
C187 H196 0.929 . S
C188 N185 1.346 . S
C188 C187 1.369 . S
C188 H191 0.928 . S
C189 N185 1.345 . S
C189 C190 1.371 . S
C189 H192 0.931 . S
C190 C186 1.391 . S
C190 C189 1.371 . S
C190 H197 0.930 . S
H191 C188 0.928 . S
H192 C189 0.931 . S
H193 C169 0.930 . S
H194 C166 0.930 . S
H195 C175 0.930 . S
H196 C187 0.929 . S
H197 C190 0.930 . S
C198 C199 1.351 . S
C198 N201 1.368 . S
C198 H203 0.931 . S
C199 C198 1.351 . S
C199 N200 1.373 . S
C199 H227 0.930 . S
N200 C199 1.373 . S
N200 C202 1.340 . S
N201 C198 1.368 . S
N201 C202 1.321 . S
N201 Co204 2.135 . S
C202 N200 1.340 . S
C202 N201 1.321 . S
C202 H226 0.930 . S
H203 C198 0.931 . S
Co204 N201 2.135 . S
Co204 N207 2.121 . S
Co204 O212 2.055 . S
Co204 O215 2.039 . S
Co204 N218 2.140 . S
C205 O206 1.227 . S
C205 O215 1.265 . S
O206 C205 1.227 . S
N207 Co204 2.121 . S
N207 C209 1.375 . S
N207 C210 1.313 . S
C208 C209 1.338 . S
C208 N211 1.377 . S
C208 H228 0.930 . S
C209 N207 1.375 . S
C209 C208 1.338 . S
C209 H213 0.931 . S
C210 N207 1.313 . S
C210 N211 1.344 . S
C210 H214 0.930 . S
N211 C208 1.377 . S
N211 C210 1.344 . S
O212 Co204 2.055 . S
O212 C216 1.253 . S
H213 C209 0.931 . S
H214 C210 0.930 . S
O215 Co204 2.039 . S
O215 C205 1.265 . S
C216 O212 1.253 . S
C216 O217 1.227 . S
O217 C216 1.227 . S
N218 Co204 2.140 . S
N218 C221 1.346 . S
N218 C222 1.345 . S
C219 C220 1.387 . S
C219 C223 1.391 . S
C220 C219 1.387 . S
C220 C221 1.369 . S
C220 H229 0.929 . S
C221 N218 1.346 . S
C221 C220 1.369 . S
C221 H224 0.928 . S
C222 N218 1.345 . S
C222 C223 1.371 . S
C222 H225 0.931 . S
C223 C219 1.391 . S
C223 C222 1.371 . S
C223 H230 0.930 . S
H224 C221 0.928 . S
H225 C222 0.931 . S
H226 C202 0.930 . S
H227 C199 0.930 . S
H228 C208 0.930 . S
H229 C220 0.929 . S
H230 C223 0.930 . S
C231 C232 1.351 . S
C231 N234 1.368 . S
C231 H236 0.931 . S
C232 C231 1.351 . S
C232 N233 1.373 . S
C232 H260 0.930 . S
N233 C232 1.373 . S
N233 C235 1.340 . S
N234 C231 1.368 . S
N234 C235 1.321 . S
N234 Co237 2.135 . S
C235 N233 1.340 . S
C235 N234 1.321 . S
C235 H259 0.930 . S
H236 C231 0.931 . S
Co237 N234 2.135 . S
Co237 N240 2.121 . S
Co237 O245 2.055 . S
Co237 O248 2.039 . S
Co237 N251 2.140 . S
C238 O239 1.227 . S
C238 O248 1.265 . S
O239 C238 1.227 . S
N240 Co237 2.121 . S
N240 C242 1.375 . S
N240 C243 1.313 . S
C241 C242 1.338 . S
C241 N244 1.377 . S
C241 H261 0.930 . S
C242 N240 1.375 . S
C242 C241 1.338 . S
C242 H246 0.931 . S
C243 N240 1.313 . S
C243 N244 1.344 . S
C243 H247 0.930 . S
N244 C241 1.377 . S
N244 C243 1.344 . S
O245 Co237 2.055 . S
O245 C249 1.253 . S
H246 C242 0.931 . S
H247 C243 0.930 . S
O248 Co237 2.039 . S
O248 C238 1.265 . S
C249 O245 1.253 . S
C249 O250 1.227 . S
O250 C249 1.227 . S
N251 Co237 2.140 . S
N251 C254 1.346 . S
N251 C255 1.345 . S
C252 C253 1.387 . S
C252 C256 1.391 . S
C253 C252 1.387 . S
C253 C254 1.369 . S
C253 H262 0.929 . S
C254 N251 1.346 . S
C254 C253 1.369 . S
C254 H257 0.928 . S
C255 N251 1.345 . S
C255 C256 1.371 . S
C255 H258 0.931 . S
C256 C252 1.391 . S
C256 C255 1.371 . S
C256 H263 0.930 . S
H257 C254 0.928 . S
H258 C255 0.931 . S
H259 C235 0.930 . S
H260 C232 0.930 . S
H261 C241 0.930 . S
H262 C253 0.929 . S
H263 C256 0.930 . S
C264 C265 1.351 . S
C264 N267 1.368 . S
C264 H269 0.931 . S
C265 C264 1.351 . S
C265 N266 1.373 . S
C265 H293 0.930 . S
N266 C265 1.373 . S
N266 C268 1.340 . S
N267 C264 1.368 . S
N267 C268 1.321 . S
N267 Co270 2.135 . S
C268 N266 1.340 . S
C268 N267 1.321 . S
C268 H292 0.930 . S
H269 C264 0.931 . S
Co270 N267 2.135 . S
Co270 N273 2.121 . S
Co270 O278 2.055 . S
Co270 O281 2.039 . S
Co270 N284 2.140 . S
C271 O272 1.227 . S
C271 O281 1.265 . S
O272 C271 1.227 . S
N273 Co270 2.121 . S
N273 C275 1.375 . S
N273 C276 1.313 . S
C274 C275 1.338 . S
C274 N277 1.377 . S
C274 H294 0.930 . S
C275 N273 1.375 . S
C275 C274 1.338 . S
C275 H279 0.931 . S
C276 N273 1.313 . S
C276 N277 1.344 . S
C276 H280 0.930 . S
N277 C274 1.377 . S
N277 C276 1.344 . S
O278 Co270 2.055 . S
O278 C282 1.253 . S
H279 C275 0.931 . S
H280 C276 0.930 . S
O281 Co270 2.039 . S
O281 C271 1.265 . S
C282 O278 1.253 . S
C282 O283 1.227 . S
O283 C282 1.227 . S
N284 Co270 2.140 . S
N284 C287 1.346 . S
N284 C288 1.345 . S
C285 C286 1.387 . S
C285 C289 1.391 . S
C286 C285 1.387 . S
C286 C287 1.369 . S
C286 H295 0.929 . S
C287 N284 1.346 . S
C287 C286 1.369 . S
C287 H290 0.928 . S
C288 N284 1.345 . S
C288 C289 1.371 . S
C288 H291 0.931 . S
C289 C285 1.391 . S
C289 C288 1.371 . S
C289 H296 0.930 . S
H290 C287 0.928 . S
H291 C288 0.931 . S
H292 C268 0.930 . S
H293 C265 0.930 . S
H294 C274 0.930 . S
H295 C286 0.929 . S
H296 C289 0.930 . S
C297 C298 1.351 . S
C297 N300 1.368 . S
C297 H302 0.931 . S
C298 C297 1.351 . S
C298 N299 1.373 . S
C298 H326 0.930 . S
N299 C298 1.373 . S
N299 C301 1.340 . S
N300 C297 1.368 . S
N300 C301 1.321 . S
N300 Co303 2.135 . S
C301 N299 1.340 . S
C301 N300 1.321 . S
C301 H325 0.930 . S
H302 C297 0.931 . S
Co303 N300 2.135 . S
Co303 N306 2.121 . S
Co303 O311 2.055 . S
Co303 O314 2.039 . S
Co303 N317 2.140 . S
C304 O305 1.227 . S
C304 O314 1.265 . S
O305 C304 1.227 . S
N306 Co303 2.121 . S
N306 C308 1.375 . S
N306 C309 1.313 . S
C307 C308 1.338 . S
C307 N310 1.377 . S
C307 H327 0.930 . S
C308 N306 1.375 . S
C308 C307 1.338 . S
C308 H312 0.931 . S
C309 N306 1.313 . S
C309 N310 1.344 . S
C309 H313 0.930 . S
N310 C307 1.377 . S
N310 C309 1.344 . S
O311 Co303 2.055 . S
O311 C315 1.253 . S
H312 C308 0.931 . S
H313 C309 0.930 . S
O314 Co303 2.039 . S
O314 C304 1.265 . S
C315 O311 1.253 . S
C315 O316 1.227 . S
O316 C315 1.227 . S
N317 Co303 2.140 . S
N317 C320 1.346 . S
N317 C321 1.345 . S
C318 C319 1.387 . S
C318 C322 1.391 . S
C319 C318 1.387 . S
C319 C320 1.369 . S
C319 H328 0.929 . S
C320 N317 1.346 . S
C320 C319 1.369 . S
C320 H323 0.928 . S
C321 N317 1.345 . S
C321 C322 1.371 . S
C321 H324 0.931 . S
C322 C318 1.391 . S
C322 C321 1.371 . S
C322 H329 0.930 . S
H323 C320 0.928 . S
H324 C321 0.931 . S
H325 C301 0.930 . S
H326 C298 0.930 . S
H327 C307 0.930 . S
H328 C319 0.929 . S
H329 C322 0.930 . S
C330 C331 1.351 . S
C330 N333 1.368 . S
C330 H335 0.931 . S
C331 C330 1.351 . S
C331 N332 1.373 . S
C331 H359 0.930 . S
N332 C331 1.373 . S
N332 C334 1.340 . S
N333 C330 1.368 . S
N333 C334 1.321 . S
N333 Co336 2.135 . S
C334 N332 1.340 . S
C334 N333 1.321 . S
C334 H358 0.930 . S
H335 C330 0.931 . S
Co336 N333 2.135 . S
Co336 N339 2.121 . S
Co336 O344 2.055 . S
Co336 O347 2.039 . S
Co336 N350 2.140 . S
C337 O338 1.227 . S
C337 O347 1.265 . S
O338 C337 1.227 . S
N339 Co336 2.121 . S
N339 C341 1.375 . S
N339 C342 1.313 . S
C340 C341 1.338 . S
C340 N343 1.377 . S
C340 H360 0.930 . S
C341 N339 1.375 . S
C341 C340 1.338 . S
C341 H345 0.931 . S
C342 N339 1.313 . S
C342 N343 1.344 . S
C342 H346 0.930 . S
N343 C340 1.377 . S
N343 C342 1.344 . S
O344 Co336 2.055 . S
O344 C348 1.253 . S
H345 C341 0.931 . S
H346 C342 0.930 . S
O347 Co336 2.039 . S
O347 C337 1.265 . S
C348 O344 1.253 . S
C348 O349 1.227 . S
O349 C348 1.227 . S
N350 Co336 2.140 . S
N350 C353 1.346 . S
N350 C354 1.345 . S
C351 C352 1.387 . S
C351 C355 1.391 . S
C352 C351 1.387 . S
C352 C353 1.369 . S
C352 H361 0.929 . S
C353 N350 1.346 . S
C353 C352 1.369 . S
C353 H356 0.928 . S
C354 N350 1.345 . S
C354 C355 1.371 . S
C354 H357 0.931 . S
C355 C351 1.391 . S
C355 C354 1.371 . S
C355 H362 0.930 . S
H356 C353 0.928 . S
H357 C354 0.931 . S
H358 C334 0.930 . S
H359 C331 0.930 . S
H360 C340 0.930 . S
H361 C352 0.929 . S
H362 C355 0.930 . S
C363 C364 1.351 . S
C363 N366 1.368 . S
C363 H368 0.931 . S
C364 C363 1.351 . S
C364 N365 1.373 . S
C364 H392 0.930 . S
N365 C364 1.373 . S
N365 C367 1.340 . S
N366 C363 1.368 . S
N366 C367 1.321 . S
N366 Co369 2.135 . S
C367 N365 1.340 . S
C367 N366 1.321 . S
C367 H391 0.930 . S
H368 C363 0.931 . S
Co369 N366 2.135 . S
Co369 N372 2.121 . S
Co369 O377 2.055 . S
Co369 O380 2.039 . S
Co369 N383 2.140 . S
C370 O371 1.227 . S
C370 O380 1.265 . S
O371 C370 1.227 . S
N372 Co369 2.121 . S
N372 C374 1.375 . S
N372 C375 1.313 . S
C373 C374 1.338 . S
C373 N376 1.377 . S
C373 H393 0.930 . S
C374 N372 1.375 . S
C374 C373 1.338 . S
C374 H378 0.931 . S
C375 N372 1.313 . S
C375 N376 1.344 . S
C375 H379 0.930 . S
N376 C373 1.377 . S
N376 C375 1.344 . S
O377 Co369 2.055 . S
O377 C381 1.253 . S
H378 C374 0.931 . S
H379 C375 0.930 . S
O380 Co369 2.039 . S
O380 C370 1.265 . S
C381 O377 1.253 . S
C381 O382 1.227 . S
O382 C381 1.227 . S
N383 Co369 2.140 . S
N383 C386 1.346 . S
N383 C387 1.345 . S
C384 C385 1.387 . S
C384 C388 1.391 . S
C385 C384 1.387 . S
C385 C386 1.369 . S
C385 H394 0.929 . S
C386 N383 1.346 . S
C386 C385 1.369 . S
C386 H389 0.928 . S
C387 N383 1.345 . S
C387 C388 1.371 . S
C387 H390 0.931 . S
C388 C384 1.391 . S
C388 C387 1.371 . S
C388 H395 0.930 . S
H389 C386 0.928 . S
H390 C387 0.931 . S
H391 C367 0.930 . S
H392 C364 0.930 . S
H393 C373 0.930 . S
H394 C385 0.929 . S
H395 C388 0.930 . S
C396 C397 1.351 . S
C396 N399 1.368 . S
C396 H401 0.931 . S
C397 C396 1.351 . S
C397 N398 1.373 . S
C397 H425 0.930 . S
N398 C397 1.373 . S
N398 C400 1.340 . S
N399 C396 1.368 . S
N399 C400 1.321 . S
N399 Co402 2.135 . S
C400 N398 1.340 . S
C400 N399 1.321 . S
C400 H424 0.930 . S
H401 C396 0.931 . S
Co402 N399 2.135 . S
Co402 N405 2.121 . S
Co402 O410 2.055 . S
Co402 O413 2.039 . S
Co402 N416 2.140 . S
C403 O404 1.227 . S
C403 O413 1.265 . S
O404 C403 1.227 . S
N405 Co402 2.121 . S
N405 C407 1.375 . S
N405 C408 1.313 . S
C406 C407 1.338 . S
C406 N409 1.377 . S
C406 H426 0.930 . S
C407 N405 1.375 . S
C407 C406 1.338 . S
C407 H411 0.931 . S
C408 N405 1.313 . S
C408 N409 1.344 . S
C408 H412 0.930 . S
N409 C406 1.377 . S
N409 C408 1.344 . S
O410 Co402 2.055 . S
O410 C414 1.253 . S
H411 C407 0.931 . S
H412 C408 0.930 . S
O413 Co402 2.039 . S
O413 C403 1.265 . S
C414 O410 1.253 . S
C414 O415 1.227 . S
O415 C414 1.227 . S
N416 Co402 2.140 . S
N416 C419 1.346 . S
N416 C420 1.345 . S
C417 C418 1.387 . S
C417 C421 1.391 . S
C418 C417 1.387 . S
C418 C419 1.369 . S
C418 H427 0.929 . S
C419 N416 1.346 . S
C419 C418 1.369 . S
C419 H422 0.928 . S
C420 N416 1.345 . S
C420 C421 1.371 . S
C420 H423 0.931 . S
C421 C417 1.391 . S
C421 C420 1.371 . S
C421 H428 0.930 . S
H422 C419 0.928 . S
H423 C420 0.931 . S
H424 C400 0.930 . S
H425 C397 0.930 . S
H426 C406 0.930 . S
H427 C418 0.929 . S
H428 C421 0.930 . S
C429 C430 1.351 . S
C429 N432 1.368 . S
C429 H434 0.931 . S
C430 C429 1.351 . S
C430 N431 1.373 . S
C430 H458 0.930 . S
N431 C430 1.373 . S
N431 C433 1.340 . S
N432 C429 1.368 . S
N432 C433 1.321 . S
N432 Co435 2.135 . S
C433 N431 1.340 . S
C433 N432 1.321 . S
C433 H457 0.930 . S
H434 C429 0.931 . S
Co435 N432 2.135 . S
Co435 N438 2.121 . S
Co435 O443 2.055 . S
Co435 O446 2.039 . S
Co435 N449 2.140 . S
C436 O437 1.227 . S
C436 O446 1.265 . S
O437 C436 1.227 . S
N438 Co435 2.121 . S
N438 C440 1.375 . S
N438 C441 1.313 . S
C439 C440 1.338 . S
C439 N442 1.377 . S
C439 H459 0.930 . S
C440 N438 1.375 . S
C440 C439 1.338 . S
C440 H444 0.931 . S
C441 N438 1.313 . S
C441 N442 1.344 . S
C441 H445 0.930 . S
N442 C439 1.377 . S
N442 C441 1.344 . S
O443 Co435 2.055 . S
O443 C447 1.253 . S
H444 C440 0.931 . S
H445 C441 0.930 . S
O446 Co435 2.039 . S
O446 C436 1.265 . S
C447 O443 1.253 . S
C447 O448 1.227 . S
O448 C447 1.227 . S
N449 Co435 2.140 . S
N449 C452 1.346 . S
N449 C453 1.345 . S
C450 C451 1.387 . S
C450 C454 1.391 . S
C451 C450 1.387 . S
C451 C452 1.369 . S
C451 H460 0.929 . S
C452 N449 1.346 . S
C452 C451 1.369 . S
C452 H455 0.928 . S
C453 N449 1.345 . S
C453 C454 1.371 . S
C453 H456 0.931 . S
C454 C450 1.391 . S
C454 C453 1.371 . S
C454 H461 0.930 . S
H455 C452 0.928 . S
H456 C453 0.931 . S
H457 C433 0.930 . S
H458 C430 0.930 . S
H459 C439 0.930 . S
H460 C451 0.929 . S
H461 C454 0.930 . S
C462 C463 1.351 . S
C462 N465 1.368 . S
C462 H467 0.931 . S
C463 C462 1.351 . S
C463 N464 1.373 . S
C463 H491 0.930 . S
N464 C463 1.373 . S
N464 C466 1.340 . S
N465 C462 1.368 . S
N465 C466 1.321 . S
N465 Co468 2.135 . S
C466 N464 1.340 . S
C466 N465 1.321 . S
C466 H490 0.930 . S
H467 C462 0.931 . S
Co468 N465 2.135 . S
Co468 N471 2.121 . S
Co468 O476 2.055 . S
Co468 O479 2.039 . S
Co468 N482 2.140 . S
C469 O470 1.227 . S
C469 O479 1.265 . S
O470 C469 1.227 . S
N471 Co468 2.121 . S
N471 C473 1.375 . S
N471 C474 1.313 . S
C472 C473 1.338 . S
C472 N475 1.377 . S
C472 H492 0.930 . S
C473 N471 1.375 . S
C473 C472 1.338 . S
C473 H477 0.931 . S
C474 N471 1.313 . S
C474 N475 1.344 . S
C474 H478 0.930 . S
N475 C472 1.377 . S
N475 C474 1.344 . S
O476 Co468 2.055 . S
O476 C480 1.253 . S
H477 C473 0.931 . S
H478 C474 0.930 . S
O479 Co468 2.039 . S
O479 C469 1.265 . S
C480 O476 1.253 . S
C480 O481 1.227 . S
O481 C480 1.227 . S
N482 Co468 2.140 . S
N482 C485 1.346 . S
N482 C486 1.345 . S
C483 C484 1.387 . S
C483 C487 1.391 . S
C484 C483 1.387 . S
C484 C485 1.369 . S
C484 H493 0.929 . S
C485 N482 1.346 . S
C485 C484 1.369 . S
C485 H488 0.928 . S
C486 N482 1.345 . S
C486 C487 1.371 . S
C486 H489 0.931 . S
C487 C483 1.391 . S
C487 C486 1.371 . S
C487 H494 0.930 . S
H488 C485 0.928 . S
H489 C486 0.931 . S
H490 C466 0.930 . S
H491 C463 0.930 . S
H492 C472 0.930 . S
H493 C484 0.929 . S
H494 C487 0.930 . S
C495 C496 1.351 . S
C495 N498 1.368 . S
C495 H500 0.931 . S
C496 C495 1.351 . S
C496 N497 1.373 . S
C496 H524 0.930 . S
N497 C496 1.373 . S
N497 C499 1.340 . S
N498 C495 1.368 . S
N498 C499 1.321 . S
N498 Co501 2.135 . S
C499 N497 1.340 . S
C499 N498 1.321 . S
C499 H523 0.930 . S
H500 C495 0.931 . S
Co501 N498 2.135 . S
Co501 N504 2.121 . S
Co501 O509 2.055 . S
Co501 O512 2.039 . S
Co501 N515 2.140 . S
C502 O503 1.227 . S
C502 O512 1.265 . S
O503 C502 1.227 . S
N504 Co501 2.121 . S
N504 C506 1.375 . S
N504 C507 1.313 . S
C505 C506 1.338 . S
C505 N508 1.377 . S
C505 H525 0.930 . S
C506 N504 1.375 . S
C506 C505 1.338 . S
C506 H510 0.931 . S
C507 N504 1.313 . S
C507 N508 1.344 . S
C507 H511 0.930 . S
N508 C505 1.377 . S
N508 C507 1.344 . S
O509 Co501 2.055 . S
O509 C513 1.253 . S
H510 C506 0.931 . S
H511 C507 0.930 . S
O512 Co501 2.039 . S
O512 C502 1.265 . S
C513 O509 1.253 . S
C513 O514 1.227 . S
O514 C513 1.227 . S
N515 Co501 2.140 . S
N515 C518 1.346 . S
N515 C519 1.345 . S
C516 C517 1.387 . S
C516 C520 1.391 . S
C517 C516 1.387 . S
C517 C518 1.369 . S
C517 H526 0.929 . S
C518 N515 1.346 . S
C518 C517 1.369 . S
C518 H521 0.928 . S
C519 N515 1.345 . S
C519 C520 1.371 . S
C519 H522 0.931 . S
C520 C516 1.391 . S
C520 C519 1.371 . S
C520 H527 0.930 . S
H521 C518 0.928 . S
H522 C519 0.931 . S
H523 C499 0.930 . S
H524 C496 0.930 . S
H525 C505 0.930 . S
H526 C517 0.929 . S
H527 C520 0.930 . S
C528 C529 1.351 . S
C528 N531 1.368 . S
C528 H533 0.931 . S
C529 C528 1.351 . S
C529 N530 1.373 . S
C529 H557 0.930 . S
N530 C529 1.373 . S
N530 C532 1.340 . S
N531 C528 1.368 . S
N531 C532 1.321 . S
N531 Co534 2.135 . S
C532 N530 1.340 . S
C532 N531 1.321 . S
C532 H556 0.930 . S
H533 C528 0.931 . S
Co534 N531 2.135 . S
Co534 N537 2.121 . S
Co534 O542 2.055 . S
Co534 O545 2.039 . S
Co534 N548 2.140 . S
C535 O536 1.227 . S
C535 O545 1.265 . S
O536 C535 1.227 . S
N537 Co534 2.121 . S
N537 C539 1.375 . S
N537 C540 1.313 . S
C538 C539 1.338 . S
C538 N541 1.377 . S
C538 H558 0.930 . S
C539 N537 1.375 . S
C539 C538 1.338 . S
C539 H543 0.931 . S
C540 N537 1.313 . S
C540 N541 1.344 . S
C540 H544 0.930 . S
N541 C538 1.377 . S
N541 C540 1.344 . S
O542 Co534 2.055 . S
O542 C546 1.253 . S
H543 C539 0.931 . S
H544 C540 0.930 . S
O545 Co534 2.039 . S
O545 C535 1.265 . S
C546 O542 1.253 . S
C546 O547 1.227 . S
O547 C546 1.227 . S
N548 Co534 2.140 . S
N548 C551 1.346 . S
N548 C552 1.345 . S
C549 C550 1.387 . S
C549 C553 1.391 . S
C550 C549 1.387 . S
C550 C551 1.369 . S
C550 H559 0.929 . S
C551 N548 1.346 . S
C551 C550 1.369 . S
C551 H554 0.928 . S
C552 N548 1.345 . S
C552 C553 1.371 . S
C552 H555 0.931 . S
C553 C549 1.391 . S
C553 C552 1.371 . S
C553 H560 0.930 . S
H554 C551 0.928 . S
H555 C552 0.931 . S
H556 C532 0.930 . S
H557 C529 0.930 . S
H558 C538 0.930 . S
H559 C550 0.929 . S
H560 C553 0.930 . S
C561 C562 1.351 . S
C561 N564 1.368 . S
C561 H566 0.931 . S
C562 C561 1.351 . S
C562 N563 1.373 . S
C562 H590 0.930 . S
N563 C562 1.373 . S
N563 C565 1.340 . S
N564 C561 1.368 . S
N564 C565 1.321 . S
N564 Co567 2.135 . S
C565 N563 1.340 . S
C565 N564 1.321 . S
C565 H589 0.930 . S
H566 C561 0.931 . S
Co567 N564 2.135 . S
Co567 N570 2.121 . S
Co567 O575 2.055 . S
Co567 O578 2.039 . S
Co567 N581 2.140 . S
C568 O569 1.227 . S
C568 O578 1.265 . S
O569 C568 1.227 . S
N570 Co567 2.121 . S
N570 C572 1.375 . S
N570 C573 1.313 . S
C571 C572 1.338 . S
C571 N574 1.377 . S
C571 H591 0.930 . S
C572 N570 1.375 . S
C572 C571 1.338 . S
C572 H576 0.931 . S
C573 N570 1.313 . S
C573 N574 1.344 . S
C573 H577 0.930 . S
N574 C571 1.377 . S
N574 C573 1.344 . S
O575 Co567 2.055 . S
O575 C579 1.253 . S
H576 C572 0.931 . S
H577 C573 0.930 . S
O578 Co567 2.039 . S
O578 C568 1.265 . S
C579 O575 1.253 . S
C579 O580 1.227 . S
O580 C579 1.227 . S
N581 Co567 2.140 . S
N581 C584 1.346 . S
N581 C585 1.345 . S
C582 C583 1.387 . S
C582 C586 1.391 . S
C583 C582 1.387 . S
C583 C584 1.369 . S
C583 H592 0.929 . S
C584 N581 1.346 . S
C584 C583 1.369 . S
C584 H587 0.928 . S
C585 N581 1.345 . S
C585 C586 1.371 . S
C585 H588 0.931 . S
C586 C582 1.391 . S
C586 C585 1.371 . S
C586 H593 0.930 . S
H587 C584 0.928 . S
H588 C585 0.931 . S
H589 C565 0.930 . S
H590 C562 0.930 . S
H591 C571 0.930 . S
H592 C583 0.929 . S
H593 C586 0.930 . S
C594 C595 1.351 . S
C594 N597 1.368 . S
C594 H599 0.931 . S
C595 C594 1.351 . S
C595 N596 1.373 . S
C595 H623 0.930 . S
N596 C595 1.373 . S
N596 C598 1.340 . S
N597 C594 1.368 . S
N597 C598 1.321 . S
N597 Co600 2.135 . S
C598 N596 1.340 . S
C598 N597 1.321 . S
C598 H622 0.930 . S
H599 C594 0.931 . S
Co600 N597 2.135 . S
Co600 N603 2.121 . S
Co600 O608 2.055 . S
Co600 O611 2.039 . S
Co600 N614 2.140 . S
C601 O602 1.227 . S
C601 O611 1.265 . S
O602 C601 1.227 . S
N603 Co600 2.121 . S
N603 C605 1.375 . S
N603 C606 1.313 . S
C604 C605 1.338 . S
C604 N607 1.377 . S
C604 H624 0.930 . S
C605 N603 1.375 . S
C605 C604 1.338 . S
C605 H609 0.931 . S
C606 N603 1.313 . S
C606 N607 1.344 . S
C606 H610 0.930 . S
N607 C604 1.377 . S
N607 C606 1.344 . S
O608 Co600 2.055 . S
O608 C612 1.253 . S
H609 C605 0.931 . S
H610 C606 0.930 . S
O611 Co600 2.039 . S
O611 C601 1.265 . S
C612 O608 1.253 . S
C612 O613 1.227 . S
O613 C612 1.227 . S
N614 Co600 2.140 . S
N614 C617 1.346 . S
N614 C618 1.345 . S
C615 C616 1.387 . S
C615 C619 1.391 . S
C616 C615 1.387 . S
C616 C617 1.369 . S
C616 H625 0.929 . S
C617 N614 1.346 . S
C617 C616 1.369 . S
C617 H620 0.928 . S
C618 N614 1.345 . S
C618 C619 1.371 . S
C618 H621 0.931 . S
C619 C615 1.391 . S
C619 C618 1.371 . S
C619 H626 0.930 . S
H620 C617 0.928 . S
H621 C618 0.931 . S
H622 C598 0.930 . S
H623 C595 0.930 . S
H624 C604 0.930 . S
H625 C616 0.929 . S
H626 C619 0.930 . S
C627 C628 1.351 . S
C627 N630 1.368 . S
C627 H632 0.931 . S
C628 C627 1.351 . S
C628 N629 1.373 . S
C628 H656 0.930 . S
N629 C628 1.373 . S
N629 C631 1.340 . S
N630 C627 1.368 . S
N630 C631 1.321 . S
N630 Co633 2.135 . S
C631 N629 1.340 . S
C631 N630 1.321 . S
C631 H655 0.930 . S
H632 C627 0.931 . S
Co633 N630 2.135 . S
Co633 N636 2.121 . S
Co633 O641 2.055 . S
Co633 O644 2.039 . S
Co633 N647 2.140 . S
C634 O635 1.227 . S
C634 O644 1.265 . S
O635 C634 1.227 . S
N636 Co633 2.121 . S
N636 C638 1.375 . S
N636 C639 1.313 . S
C637 C638 1.338 . S
C637 N640 1.377 . S
C637 H657 0.930 . S
C638 N636 1.375 . S
C638 C637 1.338 . S
C638 H642 0.931 . S
C639 N636 1.313 . S
C639 N640 1.344 . S
C639 H643 0.930 . S
N640 C637 1.377 . S
N640 C639 1.344 . S
O641 Co633 2.055 . S
O641 C645 1.253 . S
H642 C638 0.931 . S
H643 C639 0.930 . S
O644 Co633 2.039 . S
O644 C634 1.265 . S
C645 O641 1.253 . S
C645 O646 1.227 . S
O646 C645 1.227 . S
N647 Co633 2.140 . S
N647 C650 1.346 . S
N647 C651 1.345 . S
C648 C649 1.387 . S
C648 C652 1.391 . S
C649 C648 1.387 . S
C649 C650 1.369 . S
C649 H658 0.929 . S
C650 N647 1.346 . S
C650 C649 1.369 . S
C650 H653 0.928 . S
C651 N647 1.345 . S
C651 C652 1.371 . S
C651 H654 0.931 . S
C652 C648 1.391 . S
C652 C651 1.371 . S
C652 H659 0.930 . S
H653 C650 0.928 . S
H654 C651 0.931 . S
H655 C631 0.930 . S
H656 C628 0.930 . S
H657 C637 0.930 . S
H658 C649 0.929 . S
H659 C652 0.930 . S
C660 C661 1.351 . S
C660 N663 1.368 . S
C660 H665 0.931 . S
C661 C660 1.351 . S
C661 N662 1.373 . S
C661 H689 0.930 . S
N662 C661 1.373 . S
N662 C664 1.340 . S
N663 C660 1.368 . S
N663 C664 1.321 . S
N663 Co666 2.135 . S
C664 N662 1.340 . S
C664 N663 1.321 . S
C664 H688 0.930 . S
H665 C660 0.931 . S
Co666 N663 2.135 . S
Co666 N669 2.121 . S
Co666 O674 2.055 . S
Co666 O677 2.039 . S
Co666 N680 2.140 . S
C667 O668 1.227 . S
C667 O677 1.265 . S
O668 C667 1.227 . S
N669 Co666 2.121 . S
N669 C671 1.375 . S
N669 C672 1.313 . S
C670 C671 1.338 . S
C670 N673 1.377 . S
C670 H690 0.930 . S
C671 N669 1.375 . S
C671 C670 1.338 . S
C671 H675 0.931 . S
C672 N669 1.313 . S
C672 N673 1.344 . S
C672 H676 0.930 . S
N673 C670 1.377 . S
N673 C672 1.344 . S
O674 Co666 2.055 . S
O674 C678 1.253 . S
H675 C671 0.931 . S
H676 C672 0.930 . S
O677 Co666 2.039 . S
O677 C667 1.265 . S
C678 O674 1.253 . S
C678 O679 1.227 . S
O679 C678 1.227 . S
N680 Co666 2.140 . S
N680 C683 1.346 . S
N680 C684 1.345 . S
C681 C682 1.387 . S
C681 C685 1.391 . S
C682 C681 1.387 . S
C682 C683 1.369 . S
C682 H691 0.929 . S
C683 N680 1.346 . S
C683 C682 1.369 . S
C683 H686 0.928 . S
C684 N680 1.345 . S
C684 C685 1.371 . S
C684 H687 0.931 . S
C685 C681 1.391 . S
C685 C684 1.371 . S
C685 H692 0.930 . S
H686 C683 0.928 . S
H687 C684 0.931 . S
H688 C664 0.930 . S
H689 C661 0.930 . S
H690 C670 0.930 . S
H691 C682 0.929 . S
H692 C685 0.930 . S
C693 C694 1.351 . S
C693 N696 1.368 . S
C693 H698 0.931 . S
C694 C693 1.351 . S
C694 N695 1.373 . S
C694 H722 0.930 . S
N695 C694 1.373 . S
N695 C697 1.340 . S
N696 C693 1.368 . S
N696 C697 1.321 . S
N696 Co699 2.135 . S
C697 N695 1.340 . S
C697 N696 1.321 . S
C697 H721 0.930 . S
H698 C693 0.931 . S
Co699 N696 2.135 . S
Co699 N702 2.121 . S
Co699 O707 2.055 . S
Co699 O710 2.039 . S
Co699 N713 2.140 . S
C700 O701 1.227 . S
C700 O710 1.265 . S
O701 C700 1.227 . S
N702 Co699 2.121 . S
N702 C704 1.375 . S
N702 C705 1.313 . S
C703 C704 1.338 . S
C703 N706 1.377 . S
C703 H723 0.930 . S
C704 N702 1.375 . S
C704 C703 1.338 . S
C704 H708 0.931 . S
C705 N702 1.313 . S
C705 N706 1.344 . S
C705 H709 0.930 . S
N706 C703 1.377 . S
N706 C705 1.344 . S
O707 Co699 2.055 . S
O707 C711 1.253 . S
H708 C704 0.931 . S
H709 C705 0.930 . S
O710 Co699 2.039 . S
O710 C700 1.265 . S
C711 O707 1.253 . S
C711 O712 1.227 . S
O712 C711 1.227 . S
N713 Co699 2.140 . S
N713 C716 1.346 . S
N713 C717 1.345 . S
C714 C715 1.387 . S
C714 C718 1.391 . S
C715 C714 1.387 . S
C715 C716 1.369 . S
C715 H724 0.929 . S
C716 N713 1.346 . S
C716 C715 1.369 . S
C716 H719 0.928 . S
C717 N713 1.345 . S
C717 C718 1.371 . S
C717 H720 0.931 . S
C718 C714 1.391 . S
C718 C717 1.371 . S
C718 H725 0.930 . S
H719 C716 0.928 . S
H720 C717 0.931 . S
H721 C697 0.930 . S
H722 C694 0.930 . S
H723 C703 0.930 . S
H724 C715 0.929 . S
H725 C718 0.930 . S
C726 C727 1.351 . S
C726 N729 1.368 . S
C726 H731 0.931 . S
C727 C726 1.351 . S
C727 N728 1.373 . S
C727 H755 0.930 . S
N728 C727 1.373 . S
N728 C730 1.340 . S
N729 C726 1.368 . S
N729 C730 1.321 . S
N729 Co732 2.135 . S
C730 N728 1.340 . S
C730 N729 1.321 . S
C730 H754 0.930 . S
H731 C726 0.931 . S
Co732 N729 2.135 . S
Co732 N735 2.121 . S
Co732 O740 2.055 . S
Co732 O743 2.039 . S
Co732 N746 2.140 . S
C733 O734 1.227 . S
C733 O743 1.265 . S
O734 C733 1.227 . S
N735 Co732 2.121 . S
N735 C737 1.375 . S
N735 C738 1.313 . S
C736 C737 1.338 . S
C736 N739 1.377 . S
C736 H756 0.930 . S
C737 N735 1.375 . S
C737 C736 1.338 . S
C737 H741 0.931 . S
C738 N735 1.313 . S
C738 N739 1.344 . S
C738 H742 0.930 . S
N739 C736 1.377 . S
N739 C738 1.344 . S
O740 Co732 2.055 . S
O740 C744 1.253 . S
H741 C737 0.931 . S
H742 C738 0.930 . S
O743 Co732 2.039 . S
O743 C733 1.265 . S
C744 O740 1.253 . S
C744 O745 1.227 . S
O745 C744 1.227 . S
N746 Co732 2.140 . S
N746 C749 1.346 . S
N746 C750 1.345 . S
C747 C748 1.387 . S
C747 C751 1.391 . S
C748 C747 1.387 . S
C748 C749 1.369 . S
C748 H757 0.929 . S
C749 N746 1.346 . S
C749 C748 1.369 . S
C749 H752 0.928 . S
C750 N746 1.345 . S
C750 C751 1.371 . S
C750 H753 0.931 . S
C751 C747 1.391 . S
C751 C750 1.371 . S
C751 H758 0.930 . S
H752 C749 0.928 . S
H753 C750 0.931 . S
H754 C730 0.930 . S
H755 C727 0.930 . S
H756 C736 0.930 . S
H757 C748 0.929 . S
H758 C751 0.930 . S
C759 C760 1.351 . S
C759 N762 1.368 . S
C759 H764 0.931 . S
C760 C759 1.351 . S
C760 N761 1.373 . S
C760 H788 0.930 . S
N761 C760 1.373 . S
N761 C763 1.340 . S
N762 C759 1.368 . S
N762 C763 1.321 . S
N762 Co765 2.135 . S
C763 N761 1.340 . S
C763 N762 1.321 . S
C763 H787 0.930 . S
H764 C759 0.931 . S
Co765 N762 2.135 . S
Co765 N768 2.121 . S
Co765 O773 2.055 . S
Co765 O776 2.039 . S
Co765 N779 2.140 . S
C766 O767 1.227 . S
C766 O776 1.265 . S
O767 C766 1.227 . S
N768 Co765 2.121 . S
N768 C770 1.375 . S
N768 C771 1.313 . S
C769 C770 1.338 . S
C769 N772 1.377 . S
C769 H789 0.930 . S
C770 N768 1.375 . S
C770 C769 1.338 . S
C770 H774 0.931 . S
C771 N768 1.313 . S
C771 N772 1.344 . S
C771 H775 0.930 . S
N772 C769 1.377 . S
N772 C771 1.344 . S
O773 Co765 2.055 . S
O773 C777 1.253 . S
H774 C770 0.931 . S
H775 C771 0.930 . S
O776 Co765 2.039 . S
O776 C766 1.265 . S
C777 O773 1.253 . S
C777 O778 1.227 . S
O778 C777 1.227 . S
N779 Co765 2.140 . S
N779 C782 1.346 . S
N779 C783 1.345 . S
C780 C781 1.387 . S
C780 C784 1.391 . S
C781 C780 1.387 . S
C781 C782 1.369 . S
C781 H790 0.929 . S
C782 N779 1.346 . S
C782 C781 1.369 . S
C782 H785 0.928 . S
C783 N779 1.345 . S
C783 C784 1.371 . S
C783 H786 0.931 . S
C784 C780 1.391 . S
C784 C783 1.371 . S
C784 H791 0.930 . S
H785 C782 0.928 . S
H786 C783 0.931 . S
H787 C763 0.930 . S
H788 C760 0.930 . S
H789 C769 0.930 . S
H790 C781 0.929 . S
H791 C784 0.930 . S
C792 C793 1.351 . S
C792 N795 1.368 . S
C792 H797 0.931 . S
C793 C792 1.351 . S
C793 N794 1.373 . S
C793 H821 0.930 . S
N794 C793 1.373 . S
N794 C796 1.340 . S
N795 C792 1.368 . S
N795 C796 1.321 . S
N795 Co798 2.135 . S
C796 N794 1.340 . S
C796 N795 1.321 . S
C796 H820 0.930 . S
H797 C792 0.931 . S
Co798 N795 2.135 . S
Co798 N801 2.121 . S
Co798 O806 2.055 . S
Co798 O809 2.039 . S
Co798 N812 2.140 . S
C799 O800 1.227 . S
C799 O809 1.265 . S
O800 C799 1.227 . S
N801 Co798 2.121 . S
N801 C803 1.375 . S
N801 C804 1.313 . S
C802 C803 1.338 . S
C802 N805 1.377 . S
C802 H822 0.930 . S
C803 N801 1.375 . S
C803 C802 1.338 . S
C803 H807 0.931 . S
C804 N801 1.313 . S
C804 N805 1.344 . S
C804 H808 0.930 . S
N805 C802 1.377 . S
N805 C804 1.344 . S
O806 Co798 2.055 . S
O806 C810 1.253 . S
H807 C803 0.931 . S
H808 C804 0.930 . S
O809 Co798 2.039 . S
O809 C799 1.265 . S
C810 O806 1.253 . S
C810 O811 1.227 . S
O811 C810 1.227 . S
N812 Co798 2.140 . S
N812 C815 1.346 . S
N812 C816 1.345 . S
C813 C814 1.387 . S
C813 C817 1.391 . S
C814 C813 1.387 . S
C814 C815 1.369 . S
C814 H823 0.929 . S
C815 N812 1.346 . S
C815 C814 1.369 . S
C815 H818 0.928 . S
C816 N812 1.345 . S
C816 C817 1.371 . S
C816 H819 0.931 . S
C817 C813 1.391 . S
C817 C816 1.371 . S
C817 H824 0.930 . S
H818 C815 0.928 . S
H819 C816 0.931 . S
H820 C796 0.930 . S
H821 C793 0.930 . S
H822 C802 0.930 . S
H823 C814 0.929 . S
H824 C817 0.930 . S
C825 C826 1.351 . S
C825 N828 1.368 . S
C825 H830 0.931 . S
C826 C825 1.351 . S
C826 N827 1.373 . S
C826 H854 0.930 . S
N827 C826 1.373 . S
N827 C829 1.340 . S
N828 C825 1.368 . S
N828 C829 1.321 . S
N828 Co831 2.135 . S
C829 N827 1.340 . S
C829 N828 1.321 . S
C829 H853 0.930 . S
H830 C825 0.931 . S
Co831 N828 2.135 . S
Co831 N834 2.121 . S
Co831 O839 2.055 . S
Co831 O842 2.039 . S
Co831 N845 2.140 . S
C832 O833 1.227 . S
C832 O842 1.265 . S
O833 C832 1.227 . S
N834 Co831 2.121 . S
N834 C836 1.375 . S
N834 C837 1.313 . S
C835 C836 1.338 . S
C835 N838 1.377 . S
C835 H855 0.930 . S
C836 N834 1.375 . S
C836 C835 1.338 . S
C836 H840 0.931 . S
C837 N834 1.313 . S
C837 N838 1.344 . S
C837 H841 0.930 . S
N838 C835 1.377 . S
N838 C837 1.344 . S
O839 Co831 2.055 . S
O839 C843 1.253 . S
H840 C836 0.931 . S
H841 C837 0.930 . S
O842 Co831 2.039 . S
O842 C832 1.265 . S
C843 O839 1.253 . S
C843 O844 1.227 . S
O844 C843 1.227 . S
N845 Co831 2.140 . S
N845 C848 1.346 . S
N845 C849 1.345 . S
C846 C847 1.387 . S
C846 C850 1.391 . S
C847 C846 1.387 . S
C847 C848 1.369 . S
C847 H856 0.929 . S
C848 N845 1.346 . S
C848 C847 1.369 . S
C848 H851 0.928 . S
C849 N845 1.345 . S
C849 C850 1.371 . S
C849 H852 0.931 . S
C850 C846 1.391 . S
C850 C849 1.371 . S
C850 H857 0.930 . S
H851 C848 0.928 . S
H852 C849 0.931 . S
H853 C829 0.930 . S
H854 C826 0.930 . S
H855 C835 0.930 . S
H856 C847 0.929 . S
H857 C850 0.930 . S
C858 C859 1.351 . S
C858 N861 1.368 . S
C858 H863 0.931 . S
C859 C858 1.351 . S
C859 N860 1.373 . S
C859 H887 0.930 . S
N860 C859 1.373 . S
N860 C862 1.340 . S
N861 C858 1.368 . S
N861 C862 1.321 . S
N861 Co864 2.135 . S
C862 N860 1.340 . S
C862 N861 1.321 . S
C862 H886 0.930 . S
H863 C858 0.931 . S
Co864 N861 2.135 . S
Co864 N867 2.121 . S
Co864 O872 2.055 . S
Co864 O875 2.039 . S
Co864 N878 2.140 . S
C865 O866 1.227 . S
C865 O875 1.265 . S
O866 C865 1.227 . S
N867 Co864 2.121 . S
N867 C869 1.375 . S
N867 C870 1.313 . S
C868 C869 1.338 . S
C868 N871 1.377 . S
C868 H888 0.930 . S
C869 N867 1.375 . S
C869 C868 1.338 . S
C869 H873 0.931 . S
C870 N867 1.313 . S
C870 N871 1.344 . S
C870 H874 0.930 . S
N871 C868 1.377 . S
N871 C870 1.344 . S
O872 Co864 2.055 . S
O872 C876 1.253 . S
H873 C869 0.931 . S
H874 C870 0.930 . S
O875 Co864 2.039 . S
O875 C865 1.265 . S
C876 O872 1.253 . S
C876 O877 1.227 . S
O877 C876 1.227 . S
N878 Co864 2.140 . S
N878 C881 1.346 . S
N878 C882 1.345 . S
C879 C880 1.387 . S
C879 C883 1.391 . S
C880 C879 1.387 . S
C880 C881 1.369 . S
C880 H889 0.929 . S
C881 N878 1.346 . S
C881 C880 1.369 . S
C881 H884 0.928 . S
C882 N878 1.345 . S
C882 C883 1.371 . S
C882 H885 0.931 . S
C883 C879 1.391 . S
C883 C882 1.371 . S
C883 H890 0.930 . S
H884 C881 0.928 . S
H885 C882 0.931 . S
H886 C862 0.930 . S
H887 C859 0.930 . S
H888 C868 0.930 . S
H889 C880 0.929 . S
H890 C883 0.930 . S
C891 C892 1.351 . S
C891 N894 1.368 . S
C891 H896 0.931 . S
C892 C891 1.351 . S
C892 N893 1.373 . S
C892 H920 0.930 . S
N893 C892 1.373 . S
N893 C895 1.340 . S
N894 C891 1.368 . S
N894 C895 1.321 . S
N894 Co897 2.135 . S
C895 N893 1.340 . S
C895 N894 1.321 . S
C895 H919 0.930 . S
H896 C891 0.931 . S
Co897 N894 2.135 . S
Co897 N900 2.121 . S
Co897 O905 2.055 . S
Co897 O908 2.039 . S
Co897 N911 2.140 . S
C898 O899 1.227 . S
C898 O908 1.265 . S
O899 C898 1.227 . S
N900 Co897 2.121 . S
N900 C902 1.375 . S
N900 C903 1.313 . S
C901 C902 1.338 . S
C901 N904 1.377 . S
C901 H921 0.930 . S
C902 N900 1.375 . S
C902 C901 1.338 . S
C902 H906 0.931 . S
C903 N900 1.313 . S
C903 N904 1.344 . S
C903 H907 0.930 . S
N904 C901 1.377 . S
N904 C903 1.344 . S
O905 Co897 2.055 . S
O905 C909 1.253 . S
H906 C902 0.931 . S
H907 C903 0.930 . S
O908 Co897 2.039 . S
O908 C898 1.265 . S
C909 O905 1.253 . S
C909 O910 1.227 . S
O910 C909 1.227 . S
N911 Co897 2.140 . S
N911 C914 1.346 . S
N911 C915 1.345 . S
C912 C913 1.387 . S
C912 C916 1.391 . S
C913 C912 1.387 . S
C913 C914 1.369 . S
C913 H922 0.929 . S
C914 N911 1.346 . S
C914 C913 1.369 . S
C914 H917 0.928 . S
C915 N911 1.345 . S
C915 C916 1.371 . S
C915 H918 0.931 . S
C916 C912 1.391 . S
C916 C915 1.371 . S
C916 H923 0.930 . S
H917 C914 0.928 . S
H918 C915 0.931 . S
H919 C895 0.930 . S
H920 C892 0.930 . S
H921 C901 0.930 . S
H922 C913 0.929 . S
H923 C916 0.930 . S
C924 C925 1.351 . S
C924 N927 1.368 . S
C924 H929 0.931 . S
C925 C924 1.351 . S
C925 N926 1.373 . S
C925 H953 0.930 . S
N926 C925 1.373 . S
N926 C928 1.340 . S
N927 C924 1.368 . S
N927 C928 1.321 . S
N927 Co930 2.135 . S
C928 N926 1.340 . S
C928 N927 1.321 . S
C928 H952 0.930 . S
H929 C924 0.931 . S
Co930 N927 2.135 . S
Co930 N933 2.121 . S
Co930 O938 2.055 . S
Co930 O941 2.039 . S
Co930 N944 2.140 . S
C931 O932 1.227 . S
C931 O941 1.265 . S
O932 C931 1.227 . S
N933 Co930 2.121 . S
N933 C935 1.375 . S
N933 C936 1.313 . S
C934 C935 1.338 . S
C934 N937 1.377 . S
C934 H954 0.930 . S
C935 N933 1.375 . S
C935 C934 1.338 . S
C935 H939 0.931 . S
C936 N933 1.313 . S
C936 N937 1.344 . S
C936 H940 0.930 . S
N937 C934 1.377 . S
N937 C936 1.344 . S
O938 Co930 2.055 . S
O938 C942 1.253 . S
H939 C935 0.931 . S
H940 C936 0.930 . S
O941 Co930 2.039 . S
O941 C931 1.265 . S
C942 O938 1.253 . S
C942 O943 1.227 . S
O943 C942 1.227 . S
N944 Co930 2.140 . S
N944 C947 1.346 . S
N944 C948 1.345 . S
C945 C946 1.387 . S
C945 C949 1.391 . S
C946 C945 1.387 . S
C946 C947 1.369 . S
C946 H955 0.929 . S
C947 N944 1.346 . S
C947 C946 1.369 . S
C947 H950 0.928 . S
C948 N944 1.345 . S
C948 C949 1.371 . S
C948 H951 0.931 . S
C949 C945 1.391 . S
C949 C948 1.371 . S
C949 H956 0.930 . S
H950 C947 0.928 . S
H951 C948 0.931 . S
H952 C928 0.930 . S
H953 C925 0.930 . S
H954 C934 0.930 . S
H955 C946 0.929 . S
H956 C949 0.930 . S
C957 C958 1.351 . S
C957 N960 1.368 . S
C957 H962 0.931 . S
C958 C957 1.351 . S
C958 N959 1.373 . S
C958 H986 0.930 . S
N959 C958 1.373 . S
N959 C961 1.340 . S
N960 C957 1.368 . S
N960 C961 1.321 . S
N960 Co963 2.135 . S
C961 N959 1.340 . S
C961 N960 1.321 . S
C961 H985 0.930 . S
H962 C957 0.931 . S
Co963 N960 2.135 . S
Co963 N966 2.121 . S
Co963 O971 2.055 . S
Co963 O974 2.039 . S
Co963 N977 2.140 . S
C964 O965 1.227 . S
C964 O974 1.265 . S
O965 C964 1.227 . S
N966 Co963 2.121 . S
N966 C968 1.375 . S
N966 C969 1.313 . S
C967 C968 1.338 . S
C967 N970 1.377 . S
C967 H987 0.930 . S
C968 N966 1.375 . S
C968 C967 1.338 . S
C968 H972 0.931 . S
C969 N966 1.313 . S
C969 N970 1.344 . S
C969 H973 0.930 . S
N970 C967 1.377 . S
N970 C969 1.344 . S
O971 Co963 2.055 . S
O971 C975 1.253 . S
H972 C968 0.931 . S
H973 C969 0.930 . S
O974 Co963 2.039 . S
O974 C964 1.265 . S
C975 O971 1.253 . S
C975 O976 1.227 . S
O976 C975 1.227 . S
N977 Co963 2.140 . S
N977 C980 1.346 . S
N977 C981 1.345 . S
C978 C979 1.387 . S
C978 C982 1.391 . S
C979 C978 1.387 . S
C979 C980 1.369 . S
C979 H988 0.929 . S
C980 N977 1.346 . S
C980 C979 1.369 . S
C980 H983 0.928 . S
C981 N977 1.345 . S
C981 C982 1.371 . S
C981 H984 0.931 . S
C982 C978 1.391 . S
C982 C981 1.371 . S
C982 H989 0.930 . S
H983 C980 0.928 . S
H984 C981 0.931 . S
H985 C961 0.930 . S
H986 C958 0.930 . S
H987 C967 0.930 . S
H988 C979 0.929 . S
H989 C982 0.930 . S
C990 C991 1.351 . S
C990 N993 1.368 . S
C990 H995 0.931 . S
C991 C990 1.351 . S
C991 N992 1.373 . S
C991 H1019 0.930 . S
N992 C991 1.373 . S
N992 C994 1.340 . S
N993 C990 1.368 . S
N993 C994 1.321 . S
N993 Co996 2.135 . S
C994 N992 1.340 . S
C994 N993 1.321 . S
C994 H1018 0.930 . S
H995 C990 0.931 . S
Co996 N993 2.135 . S
Co996 N999 2.121 . S
Co996 O1004 2.055 . S
Co996 O1007 2.039 . S
Co996 N1010 2.140 . S
C997 O998 1.227 . S
C997 O1007 1.265 . S
O998 C997 1.227 . S
N999 Co996 2.121 . S
N999 C1001 1.375 . S
N999 C1002 1.313 . S
C1000 C1001 1.338 . S
C1000 N1003 1.377 . S
C1000 H1020 0.930 . S
C1001 N999 1.375 . S
C1001 C1000 1.338 . S
C1001 H1005 0.931 . S
C1002 N999 1.313 . S
C1002 N1003 1.344 . S
C1002 H1006 0.930 . S
N1003 C1000 1.377 . S
N1003 C1002 1.344 . S
O1004 Co996 2.055 . S
O1004 C1008 1.253 . S
H1005 C1001 0.931 . S
H1006 C1002 0.930 . S
O1007 Co996 2.039 . S
O1007 C997 1.265 . S
C1008 O1004 1.253 . S
C1008 O1009 1.227 . S
O1009 C1008 1.227 . S
N1010 Co996 2.140 . S
N1010 C1013 1.346 . S
N1010 C1014 1.345 . S
C1011 C1012 1.387 . S
C1011 C1015 1.391 . S
C1012 C1011 1.387 . S
C1012 C1013 1.369 . S
C1012 H1021 0.929 . S
C1013 N1010 1.346 . S
C1013 C1012 1.369 . S
C1013 H1016 0.928 . S
C1014 N1010 1.345 . S
C1014 C1015 1.371 . S
C1014 H1017 0.931 . S
C1015 C1011 1.391 . S
C1015 C1014 1.371 . S
C1015 H1022 0.930 . S
H1016 C1013 0.928 . S
H1017 C1014 0.931 . S
H1018 C994 0.930 . S
H1019 C991 0.930 . S
H1020 C1000 0.930 . S
H1021 C1012 0.929 . S
H1022 C1015 0.930 . S
C1023 C1024 1.351 . S
C1023 N1026 1.368 . S
C1023 H1028 0.931 . S
C1024 C1023 1.351 . S
C1024 N1025 1.373 . S
C1024 H1052 0.930 . S
N1025 C1024 1.373 . S
N1025 C1027 1.340 . S
N1026 C1023 1.368 . S
N1026 C1027 1.321 . S
N1026 Co1029 2.135 . S
C1027 N1025 1.340 . S
C1027 N1026 1.321 . S
C1027 H1051 0.930 . S
H1028 C1023 0.931 . S
Co1029 N1026 2.135 . S
Co1029 N1032 2.121 . S
Co1029 O1037 2.055 . S
Co1029 O1040 2.039 . S
Co1029 N1043 2.140 . S
C1030 O1031 1.227 . S
C1030 O1040 1.265 . S
O1031 C1030 1.227 . S
N1032 Co1029 2.121 . S
N1032 C1034 1.375 . S
N1032 C1035 1.313 . S
C1033 C1034 1.338 . S
C1033 N1036 1.377 . S
C1033 H1053 0.930 . S
C1034 N1032 1.375 . S
C1034 C1033 1.338 . S
C1034 H1038 0.931 . S
C1035 N1032 1.313 . S
C1035 N1036 1.344 . S
C1035 H1039 0.930 . S
N1036 C1033 1.377 . S
N1036 C1035 1.344 . S
O1037 Co1029 2.055 . S
O1037 C1041 1.253 . S
H1038 C1034 0.931 . S
H1039 C1035 0.930 . S
O1040 Co1029 2.039 . S
O1040 C1030 1.265 . S
C1041 O1037 1.253 . S
C1041 O1042 1.227 . S
O1042 C1041 1.227 . S
N1043 Co1029 2.140 . S
N1043 C1046 1.346 . S
N1043 C1047 1.345 . S
C1044 C1045 1.387 . S
C1044 C1048 1.391 . S
C1045 C1044 1.387 . S
C1045 C1046 1.369 . S
C1045 H1054 0.929 . S
C1046 N1043 1.346 . S
C1046 C1045 1.369 . S
C1046 H1049 0.928 . S
C1047 N1043 1.345 . S
C1047 C1048 1.371 . S
C1047 H1050 0.931 . S
C1048 C1044 1.391 . S
C1048 C1047 1.371 . S
C1048 H1055 0.930 . S
H1049 C1046 0.928 . S
H1050 C1047 0.931 . S
H1051 C1027 0.930 . S
H1052 C1024 0.930 . S
H1053 C1033 0.930 . S
H1054 C1045 0.929 . S
H1055 C1048 0.930 . S
C1056 C1057 1.351 . S
C1056 N1059 1.368 . S
C1056 H1061 0.931 . S
C1057 C1056 1.351 . S
C1057 N1058 1.373 . S
C1057 H1085 0.930 . S
N1058 C1057 1.373 . S
N1058 C1060 1.340 . S
N1059 C1056 1.368 . S
N1059 C1060 1.321 . S
N1059 Co1062 2.135 . S
C1060 N1058 1.340 . S
C1060 N1059 1.321 . S
C1060 H1084 0.930 . S
H1061 C1056 0.931 . S
Co1062 N1059 2.135 . S
Co1062 N1065 2.121 . S
Co1062 O1070 2.055 . S
Co1062 O1073 2.039 . S
Co1062 N1076 2.140 . S
C1063 O1064 1.227 . S
C1063 O1073 1.265 . S
O1064 C1063 1.227 . S
N1065 Co1062 2.121 . S
N1065 C1067 1.375 . S
N1065 C1068 1.313 . S
C1066 C1067 1.338 . S
C1066 N1069 1.377 . S
C1066 H1086 0.930 . S
C1067 N1065 1.375 . S
C1067 C1066 1.338 . S
C1067 H1071 0.931 . S
C1068 N1065 1.313 . S
C1068 N1069 1.344 . S
C1068 H1072 0.930 . S
N1069 C1066 1.377 . S
N1069 C1068 1.344 . S
O1070 Co1062 2.055 . S
O1070 C1074 1.253 . S
H1071 C1067 0.931 . S
H1072 C1068 0.930 . S
O1073 Co1062 2.039 . S
O1073 C1063 1.265 . S
C1074 O1070 1.253 . S
C1074 O1075 1.227 . S
O1075 C1074 1.227 . S
N1076 Co1062 2.140 . S
N1076 C1079 1.346 . S
N1076 C1080 1.345 . S
C1077 C1078 1.387 . S
C1077 C1081 1.391 . S
C1078 C1077 1.387 . S
C1078 C1079 1.369 . S
C1078 H1087 0.929 . S
C1079 N1076 1.346 . S
C1079 C1078 1.369 . S
C1079 H1082 0.928 . S
C1080 N1076 1.345 . S
C1080 C1081 1.371 . S
C1080 H1083 0.931 . S
C1081 C1077 1.391 . S
C1081 C1080 1.371 . S
C1081 H1088 0.930 . S
H1082 C1079 0.928 . S
H1083 C1080 0.931 . S
H1084 C1060 0.930 . S
H1085 C1057 0.930 . S
H1086 C1066 0.930 . S
H1087 C1078 0.929 . S
H1088 C1081 0.930 . S
C1089 C1090 1.351 . S
C1089 N1092 1.368 . S
C1089 H1094 0.931 . S
C1090 C1089 1.351 . S
C1090 N1091 1.373 . S
C1090 H1118 0.930 . S
N1091 C1090 1.373 . S
N1091 C1093 1.340 . S
N1092 C1089 1.368 . S
N1092 C1093 1.321 . S
N1092 Co1095 2.135 . S
C1093 N1091 1.340 . S
C1093 N1092 1.321 . S
C1093 H1117 0.930 . S
H1094 C1089 0.931 . S
Co1095 N1092 2.135 . S
Co1095 N1098 2.121 . S
Co1095 O1103 2.055 . S
Co1095 O1106 2.039 . S
Co1095 N1109 2.140 . S
C1096 O1097 1.227 . S
C1096 O1106 1.265 . S
O1097 C1096 1.227 . S
N1098 Co1095 2.121 . S
N1098 C1100 1.375 . S
N1098 C1101 1.313 . S
C1099 C1100 1.338 . S
C1099 N1102 1.377 . S
C1099 H1119 0.930 . S
C1100 N1098 1.375 . S
C1100 C1099 1.338 . S
C1100 H1104 0.931 . S
C1101 N1098 1.313 . S
C1101 N1102 1.344 . S
C1101 H1105 0.930 . S
N1102 C1099 1.377 . S
N1102 C1101 1.344 . S
O1103 Co1095 2.055 . S
O1103 C1107 1.253 . S
H1104 C1100 0.931 . S
H1105 C1101 0.930 . S
O1106 Co1095 2.039 . S
O1106 C1096 1.265 . S
C1107 O1103 1.253 . S
C1107 O1108 1.227 . S
O1108 C1107 1.227 . S
N1109 Co1095 2.140 . S
N1109 C1112 1.346 . S
N1109 C1113 1.345 . S
C1110 C1111 1.387 . S
C1110 C1114 1.391 . S
C1111 C1110 1.387 . S
C1111 C1112 1.369 . S
C1111 H1120 0.929 . S
C1112 N1109 1.346 . S
C1112 C1111 1.369 . S
C1112 H1115 0.928 . S
C1113 N1109 1.345 . S
C1113 C1114 1.371 . S
C1113 H1116 0.931 . S
C1114 C1110 1.391 . S
C1114 C1113 1.371 . S
C1114 H1121 0.930 . S
H1115 C1112 0.928 . S
H1116 C1113 0.931 . S
H1117 C1093 0.930 . S
H1118 C1090 0.930 . S
H1119 C1099 0.930 . S
H1120 C1111 0.929 . S
H1121 C1114 0.930 . S
C1122 C1123 1.351 . S
C1122 N1125 1.368 . S
C1122 H1127 0.931 . S
C1123 C1122 1.351 . S
C1123 N1124 1.373 . S
C1123 H1151 0.930 . S
N1124 C1123 1.373 . S
N1124 C1126 1.340 . S
N1125 C1122 1.368 . S
N1125 C1126 1.321 . S
N1125 Co1128 2.135 . S
C1126 N1124 1.340 . S
C1126 N1125 1.321 . S
C1126 H1150 0.930 . S
H1127 C1122 0.931 . S
Co1128 N1125 2.135 . S
Co1128 N1131 2.121 . S
Co1128 O1136 2.055 . S
Co1128 O1139 2.039 . S
Co1128 N1142 2.140 . S
C1129 O1130 1.227 . S
C1129 O1139 1.265 . S
O1130 C1129 1.227 . S
N1131 Co1128 2.121 . S
N1131 C1133 1.375 . S
N1131 C1134 1.313 . S
C1132 C1133 1.338 . S
C1132 N1135 1.377 . S
C1132 H1152 0.930 . S
C1133 N1131 1.375 . S
C1133 C1132 1.338 . S
C1133 H1137 0.931 . S
C1134 N1131 1.313 . S
C1134 N1135 1.344 . S
C1134 H1138 0.930 . S
N1135 C1132 1.377 . S
N1135 C1134 1.344 . S
O1136 Co1128 2.055 . S
O1136 C1140 1.253 . S
H1137 C1133 0.931 . S
H1138 C1134 0.930 . S
O1139 Co1128 2.039 . S
O1139 C1129 1.265 . S
C1140 O1136 1.253 . S
C1140 O1141 1.227 . S
O1141 C1140 1.227 . S
N1142 Co1128 2.140 . S
N1142 C1145 1.346 . S
N1142 C1146 1.345 . S
C1143 C1144 1.387 . S
C1143 C1147 1.391 . S
C1144 C1143 1.387 . S
C1144 C1145 1.369 . S
C1144 H1153 0.929 . S
C1145 N1142 1.346 . S
C1145 C1144 1.369 . S
C1145 H1148 0.928 . S
C1146 N1142 1.345 . S
C1146 C1147 1.371 . S
C1146 H1149 0.931 . S
C1147 C1143 1.391 . S
C1147 C1146 1.371 . S
C1147 H1154 0.930 . S
H1148 C1145 0.928 . S
H1149 C1146 0.931 . S
H1150 C1126 0.930 . S
H1151 C1123 0.930 . S
H1152 C1132 0.930 . S
H1153 C1144 0.929 . S
H1154 C1147 0.930 . S
C1155 C1156 1.351 . S
C1155 N1158 1.368 . S
C1155 H1160 0.931 . S
C1156 C1155 1.351 . S
C1156 N1157 1.373 . S
C1156 H1184 0.930 . S
N1157 C1156 1.373 . S
N1157 C1159 1.340 . S
N1158 C1155 1.368 . S
N1158 C1159 1.321 . S
N1158 Co1161 2.135 . S
C1159 N1157 1.340 . S
C1159 N1158 1.321 . S
C1159 H1183 0.930 . S
H1160 C1155 0.931 . S
Co1161 N1158 2.135 . S
Co1161 N1164 2.121 . S
Co1161 O1169 2.055 . S
Co1161 O1172 2.039 . S
Co1161 N1175 2.140 . S
C1162 O1163 1.227 . S
C1162 O1172 1.265 . S
O1163 C1162 1.227 . S
N1164 Co1161 2.121 . S
N1164 C1166 1.375 . S
N1164 C1167 1.313 . S
C1165 C1166 1.338 . S
C1165 N1168 1.377 . S
C1165 H1185 0.930 . S
C1166 N1164 1.375 . S
C1166 C1165 1.338 . S
C1166 H1170 0.931 . S
C1167 N1164 1.313 . S
C1167 N1168 1.344 . S
C1167 H1171 0.930 . S
N1168 C1165 1.377 . S
N1168 C1167 1.344 . S
O1169 Co1161 2.055 . S
O1169 C1173 1.253 . S
H1170 C1166 0.931 . S
H1171 C1167 0.930 . S
O1172 Co1161 2.039 . S
O1172 C1162 1.265 . S
C1173 O1169 1.253 . S
C1173 O1174 1.227 . S
O1174 C1173 1.227 . S
N1175 Co1161 2.140 . S
N1175 C1178 1.346 . S
N1175 C1179 1.345 . S
C1176 C1177 1.387 . S
C1176 C1180 1.391 . S
C1177 C1176 1.387 . S
C1177 C1178 1.369 . S
C1177 H1186 0.929 . S
C1178 N1175 1.346 . S
C1178 C1177 1.369 . S
C1178 H1181 0.928 . S
C1179 N1175 1.345 . S
C1179 C1180 1.371 . S
C1179 H1182 0.931 . S
C1180 C1176 1.391 . S
C1180 C1179 1.371 . S
C1180 H1187 0.930 . S
H1181 C1178 0.928 . S
H1182 C1179 0.931 . S
H1183 C1159 0.930 . S
H1184 C1156 0.930 . S
H1185 C1165 0.930 . S
H1186 C1177 0.929 . S
H1187 C1180 0.930 . S
C1188 C1189 1.351 . S
C1188 N1191 1.368 . S
C1188 H1193 0.931 . S
C1189 C1188 1.351 . S
C1189 N1190 1.373 . S
C1189 H1217 0.930 . S
N1190 C1189 1.373 . S
N1190 C1192 1.340 . S
N1191 C1188 1.368 . S
N1191 C1192 1.321 . S
N1191 Co1194 2.135 . S
C1192 N1190 1.340 . S
C1192 N1191 1.321 . S
C1192 H1216 0.930 . S
H1193 C1188 0.931 . S
Co1194 N1191 2.135 . S
Co1194 N1197 2.121 . S
Co1194 O1202 2.055 . S
Co1194 O1205 2.039 . S
Co1194 N1208 2.140 . S
C1195 O1196 1.227 . S
C1195 O1205 1.265 . S
O1196 C1195 1.227 . S
N1197 Co1194 2.121 . S
N1197 C1199 1.375 . S
N1197 C1200 1.313 . S
C1198 C1199 1.338 . S
C1198 N1201 1.377 . S
C1198 H1218 0.930 . S
C1199 N1197 1.375 . S
C1199 C1198 1.338 . S
C1199 H1203 0.931 . S
C1200 N1197 1.313 . S
C1200 N1201 1.344 . S
C1200 H1204 0.930 . S
N1201 C1198 1.377 . S
N1201 C1200 1.344 . S
O1202 Co1194 2.055 . S
O1202 C1206 1.253 . S
H1203 C1199 0.931 . S
H1204 C1200 0.930 . S
O1205 Co1194 2.039 . S
O1205 C1195 1.265 . S
C1206 O1202 1.253 . S
C1206 O1207 1.227 . S
O1207 C1206 1.227 . S
N1208 Co1194 2.140 . S
N1208 C1211 1.346 . S
N1208 C1212 1.345 . S
C1209 C1210 1.387 . S
C1209 C1213 1.391 . S
C1210 C1209 1.387 . S
C1210 C1211 1.369 . S
C1210 H1219 0.929 . S
C1211 N1208 1.346 . S
C1211 C1210 1.369 . S
C1211 H1214 0.928 . S
C1212 N1208 1.345 . S
C1212 C1213 1.371 . S
C1212 H1215 0.931 . S
C1213 C1209 1.391 . S
C1213 C1212 1.371 . S
C1213 H1220 0.930 . S
H1214 C1211 0.928 . S
H1215 C1212 0.931 . S
H1216 C1192 0.930 . S
H1217 C1189 0.930 . S
H1218 C1198 0.930 . S
H1219 C1210 0.929 . S
H1220 C1213 0.930 . S
C1221 C1222 1.351 . S
C1221 N1224 1.368 . S
C1221 H1226 0.931 . S
C1222 C1221 1.351 . S
C1222 N1223 1.373 . S
C1222 H1250 0.930 . S
N1223 C1222 1.373 . S
N1223 C1225 1.340 . S
N1224 C1221 1.368 . S
N1224 C1225 1.321 . S
N1224 Co1227 2.135 . S
C1225 N1223 1.340 . S
C1225 N1224 1.321 . S
C1225 H1249 0.930 . S
H1226 C1221 0.931 . S
Co1227 N1224 2.135 . S
Co1227 N1230 2.121 . S
Co1227 O1235 2.055 . S
Co1227 O1238 2.039 . S
Co1227 N1241 2.140 . S
C1228 O1229 1.227 . S
C1228 O1238 1.265 . S
O1229 C1228 1.227 . S
N1230 Co1227 2.121 . S
N1230 C1232 1.375 . S
N1230 C1233 1.313 . S
C1231 C1232 1.338 . S
C1231 N1234 1.377 . S
C1231 H1251 0.930 . S
C1232 N1230 1.375 . S
C1232 C1231 1.338 . S
C1232 H1236 0.931 . S
C1233 N1230 1.313 . S
C1233 N1234 1.344 . S
C1233 H1237 0.930 . S
N1234 C1231 1.377 . S
N1234 C1233 1.344 . S
O1235 Co1227 2.055 . S
O1235 C1239 1.253 . S
H1236 C1232 0.931 . S
H1237 C1233 0.930 . S
O1238 Co1227 2.039 . S
O1238 C1228 1.265 . S
C1239 O1235 1.253 . S
C1239 O1240 1.227 . S
O1240 C1239 1.227 . S
N1241 Co1227 2.140 . S
N1241 C1244 1.346 . S
N1241 C1245 1.345 . S
C1242 C1243 1.387 . S
C1242 C1246 1.391 . S
C1243 C1242 1.387 . S
C1243 C1244 1.369 . S
C1243 H1252 0.929 . S
C1244 N1241 1.346 . S
C1244 C1243 1.369 . S
C1244 H1247 0.928 . S
C1245 N1241 1.345 . S
C1245 C1246 1.371 . S
C1245 H1248 0.931 . S
C1246 C1242 1.391 . S
C1246 C1245 1.371 . S
C1246 H1253 0.930 . S
H1247 C1244 0.928 . S
H1248 C1245 0.931 . S
H1249 C1225 0.930 . S
H1250 C1222 0.930 . S
H1251 C1231 0.930 . S
H1252 C1243 0.929 . S
H1253 C1246 0.930 . S
C1254 C1255 1.351 . S
C1254 N1257 1.368 . S
C1254 H1259 0.931 . S
C1255 C1254 1.351 . S
C1255 N1256 1.373 . S
C1255 H1283 0.930 . S
N1256 C1255 1.373 . S
N1256 C1258 1.340 . S
N1257 C1254 1.368 . S
N1257 C1258 1.321 . S
N1257 Co1260 2.135 . S
C1258 N1256 1.340 . S
C1258 N1257 1.321 . S
C1258 H1282 0.930 . S
H1259 C1254 0.931 . S
Co1260 N1257 2.135 . S
Co1260 N1263 2.121 . S
Co1260 O1268 2.055 . S
Co1260 O1271 2.039 . S
Co1260 N1274 2.140 . S
C1261 O1262 1.227 . S
C1261 O1271 1.265 . S
O1262 C1261 1.227 . S
N1263 Co1260 2.121 . S
N1263 C1265 1.375 . S
N1263 C1266 1.313 . S
C1264 C1265 1.338 . S
C1264 N1267 1.377 . S
C1264 H1284 0.930 . S
C1265 N1263 1.375 . S
C1265 C1264 1.338 . S
C1265 H1269 0.931 . S
C1266 N1263 1.313 . S
C1266 N1267 1.344 . S
C1266 H1270 0.930 . S
N1267 C1264 1.377 . S
N1267 C1266 1.344 . S
O1268 Co1260 2.055 . S
O1268 C1272 1.253 . S
H1269 C1265 0.931 . S
H1270 C1266 0.930 . S
O1271 Co1260 2.039 . S
O1271 C1261 1.265 . S
C1272 O1268 1.253 . S
C1272 O1273 1.227 . S
O1273 C1272 1.227 . S
N1274 Co1260 2.140 . S
N1274 C1277 1.346 . S
N1274 C1278 1.345 . S
C1275 C1276 1.387 . S
C1275 C1279 1.391 . S
C1276 C1275 1.387 . S
C1276 C1277 1.369 . S
C1276 H1285 0.929 . S
C1277 N1274 1.346 . S
C1277 C1276 1.369 . S
C1277 H1280 0.928 . S
C1278 N1274 1.345 . S
C1278 C1279 1.371 . S
C1278 H1281 0.931 . S
C1279 C1275 1.391 . S
C1279 C1278 1.371 . S
C1279 H1286 0.930 . S
H1280 C1277 0.928 . S
H1281 C1278 0.931 . S
H1282 C1258 0.930 . S
H1283 C1255 0.930 . S
H1284 C1264 0.930 . S
H1285 C1276 0.929 . S
H1286 C1279 0.930 . S
C1287 C1288 1.351 . S
C1287 N1290 1.368 . S
C1287 H1292 0.931 . S
C1288 C1287 1.351 . S
C1288 N1289 1.373 . S
C1288 H1316 0.930 . S
N1289 C1288 1.373 . S
N1289 C1291 1.340 . S
N1290 C1287 1.368 . S
N1290 C1291 1.321 . S
N1290 Co1293 2.135 . S
C1291 N1289 1.340 . S
C1291 N1290 1.321 . S
C1291 H1315 0.930 . S
H1292 C1287 0.931 . S
Co1293 N1290 2.135 . S
Co1293 N1296 2.121 . S
Co1293 O1301 2.055 . S
Co1293 O1304 2.039 . S
Co1293 N1307 2.140 . S
C1294 O1295 1.227 . S
C1294 O1304 1.265 . S
O1295 C1294 1.227 . S
N1296 Co1293 2.121 . S
N1296 C1298 1.375 . S
N1296 C1299 1.313 . S
C1297 C1298 1.338 . S
C1297 N1300 1.377 . S
C1297 H1317 0.930 . S
C1298 N1296 1.375 . S
C1298 C1297 1.338 . S
C1298 H1302 0.931 . S
C1299 N1296 1.313 . S
C1299 N1300 1.344 . S
C1299 H1303 0.930 . S
N1300 C1297 1.377 . S
N1300 C1299 1.344 . S
O1301 Co1293 2.055 . S
O1301 C1305 1.253 . S
H1302 C1298 0.931 . S
H1303 C1299 0.930 . S
O1304 Co1293 2.039 . S
O1304 C1294 1.265 . S
C1305 O1301 1.253 . S
C1305 O1306 1.227 . S
O1306 C1305 1.227 . S
N1307 Co1293 2.140 . S
N1307 C1310 1.346 . S
N1307 C1311 1.345 . S
C1308 C1309 1.387 . S
C1308 C1312 1.391 . S
C1309 C1308 1.387 . S
C1309 C1310 1.369 . S
C1309 H1318 0.929 . S
C1310 N1307 1.346 . S
C1310 C1309 1.369 . S
C1310 H1313 0.928 . S
C1311 N1307 1.345 . S
C1311 C1312 1.371 . S
C1311 H1314 0.931 . S
C1312 C1308 1.391 . S
C1312 C1311 1.371 . S
C1312 H1319 0.930 . S
H1313 C1310 0.928 . S
H1314 C1311 0.931 . S
H1315 C1291 0.930 . S
H1316 C1288 0.930 . S
H1317 C1297 0.930 . S
H1318 C1309 0.929 . S
H1319 C1312 0.930 . S
C1320 C1321 1.351 . S
C1320 N1323 1.368 . S
C1320 H1325 0.931 . S
C1321 C1320 1.351 . S
C1321 N1322 1.373 . S
C1321 H1349 0.930 . S
N1322 C1321 1.373 . S
N1322 C1324 1.340 . S
N1323 C1320 1.368 . S
N1323 C1324 1.321 . S
N1323 Co1326 2.135 . S
C1324 N1322 1.340 . S
C1324 N1323 1.321 . S
C1324 H1348 0.930 . S
H1325 C1320 0.931 . S
Co1326 N1323 2.135 . S
Co1326 N1329 2.121 . S
Co1326 O1334 2.055 . S
Co1326 O1337 2.039 . S
Co1326 N1340 2.140 . S
C1327 O1328 1.227 . S
C1327 O1337 1.265 . S
O1328 C1327 1.227 . S
N1329 Co1326 2.121 . S
N1329 C1331 1.375 . S
N1329 C1332 1.313 . S
C1330 C1331 1.338 . S
C1330 N1333 1.377 . S
C1330 H1350 0.930 . S
C1331 N1329 1.375 . S
C1331 C1330 1.338 . S
C1331 H1335 0.931 . S
C1332 N1329 1.313 . S
C1332 N1333 1.344 . S
C1332 H1336 0.930 . S
N1333 C1330 1.377 . S
N1333 C1332 1.344 . S
O1334 Co1326 2.055 . S
O1334 C1338 1.253 . S
H1335 C1331 0.931 . S
H1336 C1332 0.930 . S
O1337 Co1326 2.039 . S
O1337 C1327 1.265 . S
C1338 O1334 1.253 . S
C1338 O1339 1.227 . S
O1339 C1338 1.227 . S
N1340 Co1326 2.140 . S
N1340 C1343 1.346 . S
N1340 C1344 1.345 . S
C1341 C1342 1.387 . S
C1341 C1345 1.391 . S
C1342 C1341 1.387 . S
C1342 C1343 1.369 . S
C1342 H1351 0.929 . S
C1343 N1340 1.346 . S
C1343 C1342 1.369 . S
C1343 H1346 0.928 . S
C1344 N1340 1.345 . S
C1344 C1345 1.371 . S
C1344 H1347 0.931 . S
C1345 C1341 1.391 . S
C1345 C1344 1.371 . S
C1345 H1352 0.930 . S
H1346 C1343 0.928 . S
H1347 C1344 0.931 . S
H1348 C1324 0.930 . S
H1349 C1321 0.930 . S
H1350 C1330 0.930 . S
H1351 C1342 0.929 . S
H1352 C1345 0.930 . S
C1353 C1354 1.351 . S
C1353 N1356 1.368 . S
C1353 H1358 0.931 . S
C1354 C1353 1.351 . S
C1354 N1355 1.373 . S
C1354 H1382 0.930 . S
N1355 C1354 1.373 . S
N1355 C1357 1.340 . S
N1356 C1353 1.368 . S
N1356 C1357 1.321 . S
N1356 Co1359 2.135 . S
C1357 N1355 1.340 . S
C1357 N1356 1.321 . S
C1357 H1381 0.930 . S
H1358 C1353 0.931 . S
Co1359 N1356 2.135 . S
Co1359 N1362 2.121 . S
Co1359 O1367 2.055 . S
Co1359 O1370 2.039 . S
Co1359 N1373 2.140 . S
C1360 O1361 1.227 . S
C1360 O1370 1.265 . S
O1361 C1360 1.227 . S
N1362 Co1359 2.121 . S
N1362 C1364 1.375 . S
N1362 C1365 1.313 . S
C1363 C1364 1.338 . S
C1363 N1366 1.377 . S
C1363 H1383 0.930 . S
C1364 N1362 1.375 . S
C1364 C1363 1.338 . S
C1364 H1368 0.931 . S
C1365 N1362 1.313 . S
C1365 N1366 1.344 . S
C1365 H1369 0.930 . S
N1366 C1363 1.377 . S
N1366 C1365 1.344 . S
O1367 Co1359 2.055 . S
O1367 C1371 1.253 . S
H1368 C1364 0.931 . S
H1369 C1365 0.930 . S
O1370 Co1359 2.039 . S
O1370 C1360 1.265 . S
C1371 O1367 1.253 . S
C1371 O1372 1.227 . S
O1372 C1371 1.227 . S
N1373 Co1359 2.140 . S
N1373 C1376 1.346 . S
N1373 C1377 1.345 . S
C1374 C1375 1.387 . S
C1374 C1378 1.391 . S
C1375 C1374 1.387 . S
C1375 C1376 1.369 . S
C1375 H1384 0.929 . S
C1376 N1373 1.346 . S
C1376 C1375 1.369 . S
C1376 H1379 0.928 . S
C1377 N1373 1.345 . S
C1377 C1378 1.371 . S
C1377 H1380 0.931 . S
C1378 C1374 1.391 . S
C1378 C1377 1.371 . S
C1378 H1385 0.930 . S
H1379 C1376 0.928 . S
H1380 C1377 0.931 . S
H1381 C1357 0.930 . S
H1382 C1354 0.930 . S
H1383 C1363 0.930 . S
H1384 C1375 0.929 . S
H1385 C1378 0.930 . S
C1386 C1387 1.351 . S
C1386 N1389 1.368 . S
C1386 H1391 0.931 . S
C1387 C1386 1.351 . S
C1387 N1388 1.373 . S
C1387 H1415 0.930 . S
N1388 C1387 1.373 . S
N1388 C1390 1.340 . S
N1389 C1386 1.368 . S
N1389 C1390 1.321 . S
N1389 Co1392 2.135 . S
C1390 N1388 1.340 . S
C1390 N1389 1.321 . S
C1390 H1414 0.930 . S
H1391 C1386 0.931 . S
Co1392 N1389 2.135 . S
Co1392 N1395 2.121 . S
Co1392 O1400 2.055 . S
Co1392 O1403 2.039 . S
Co1392 N1406 2.140 . S
C1393 O1394 1.227 . S
C1393 O1403 1.265 . S
O1394 C1393 1.227 . S
N1395 Co1392 2.121 . S
N1395 C1397 1.375 . S
N1395 C1398 1.313 . S
C1396 C1397 1.338 . S
C1396 N1399 1.377 . S
C1396 H1416 0.930 . S
C1397 N1395 1.375 . S
C1397 C1396 1.338 . S
C1397 H1401 0.931 . S
C1398 N1395 1.313 . S
C1398 N1399 1.344 . S
C1398 H1402 0.930 . S
N1399 C1396 1.377 . S
N1399 C1398 1.344 . S
O1400 Co1392 2.055 . S
O1400 C1404 1.253 . S
H1401 C1397 0.931 . S
H1402 C1398 0.930 . S
O1403 Co1392 2.039 . S
O1403 C1393 1.265 . S
C1404 O1400 1.253 . S
C1404 O1405 1.227 . S
O1405 C1404 1.227 . S
N1406 Co1392 2.140 . S
N1406 C1409 1.346 . S
N1406 C1410 1.345 . S
C1407 C1408 1.387 . S
C1407 C1411 1.391 . S
C1408 C1407 1.387 . S
C1408 C1409 1.369 . S
C1408 H1417 0.929 . S
C1409 N1406 1.346 . S
C1409 C1408 1.369 . S
C1409 H1412 0.928 . S
C1410 N1406 1.345 . S
C1410 C1411 1.371 . S
C1410 H1413 0.931 . S
C1411 C1407 1.391 . S
C1411 C1410 1.371 . S
C1411 H1418 0.930 . S
H1412 C1409 0.928 . S
H1413 C1410 0.931 . S
H1414 C1390 0.930 . S
H1415 C1387 0.930 . S
H1416 C1396 0.930 . S
H1417 C1408 0.929 . S
H1418 C1411 0.930 . S
C1419 C1420 1.351 . S
C1419 N1422 1.368 . S
C1419 H1424 0.931 . S
C1420 C1419 1.351 . S
C1420 N1421 1.373 . S
C1420 H1448 0.930 . S
N1421 C1420 1.373 . S
N1421 C1423 1.340 . S
N1422 C1419 1.368 . S
N1422 C1423 1.321 . S
N1422 Co1425 2.135 . S
C1423 N1421 1.340 . S
C1423 N1422 1.321 . S
C1423 H1447 0.930 . S
H1424 C1419 0.931 . S
Co1425 N1422 2.135 . S
Co1425 N1428 2.121 . S
Co1425 O1433 2.055 . S
Co1425 O1436 2.039 . S
Co1425 N1439 2.140 . S
C1426 O1427 1.227 . S
C1426 O1436 1.265 . S
O1427 C1426 1.227 . S
N1428 Co1425 2.121 . S
N1428 C1430 1.375 . S
N1428 C1431 1.313 . S
C1429 C1430 1.338 . S
C1429 N1432 1.377 . S
C1429 H1449 0.930 . S
C1430 N1428 1.375 . S
C1430 C1429 1.338 . S
C1430 H1434 0.931 . S
C1431 N1428 1.313 . S
C1431 N1432 1.344 . S
C1431 H1435 0.930 . S
N1432 C1429 1.377 . S
N1432 C1431 1.344 . S
O1433 Co1425 2.055 . S
O1433 C1437 1.253 . S
H1434 C1430 0.931 . S
H1435 C1431 0.930 . S
O1436 Co1425 2.039 . S
O1436 C1426 1.265 . S
C1437 O1433 1.253 . S
C1437 O1438 1.227 . S
O1438 C1437 1.227 . S
N1439 Co1425 2.140 . S
N1439 C1442 1.346 . S
N1439 C1443 1.345 . S
C1440 C1441 1.387 . S
C1440 C1444 1.391 . S
C1441 C1440 1.387 . S
C1441 C1442 1.369 . S
C1441 H1450 0.929 . S
C1442 N1439 1.346 . S
C1442 C1441 1.369 . S
C1442 H1445 0.928 . S
C1443 N1439 1.345 . S
C1443 C1444 1.371 . S
C1443 H1446 0.931 . S
C1444 C1440 1.391 . S
C1444 C1443 1.371 . S
C1444 H1451 0.930 . S
H1445 C1442 0.928 . S
H1446 C1443 0.931 . S
H1447 C1423 0.930 . S
H1448 C1420 0.930 . S
H1449 C1429 0.930 . S
H1450 C1441 0.929 . S
H1451 C1444 0.930 . S
C1452 C1453 1.351 . S
C1452 N1455 1.368 . S
C1452 H1457 0.931 . S
C1453 C1452 1.351 . S
C1453 N1454 1.373 . S
C1453 H1481 0.930 . S
N1454 C1453 1.373 . S
N1454 C1456 1.340 . S
N1455 C1452 1.368 . S
N1455 C1456 1.321 . S
N1455 Co1458 2.135 . S
C1456 N1454 1.340 . S
C1456 N1455 1.321 . S
C1456 H1480 0.930 . S
H1457 C1452 0.931 . S
Co1458 N1455 2.135 . S
Co1458 N1461 2.121 . S
Co1458 O1466 2.055 . S
Co1458 O1469 2.039 . S
Co1458 N1472 2.140 . S
C1459 O1460 1.227 . S
C1459 O1469 1.265 . S
O1460 C1459 1.227 . S
N1461 Co1458 2.121 . S
N1461 C1463 1.375 . S
N1461 C1464 1.313 . S
C1462 C1463 1.338 . S
C1462 N1465 1.377 . S
C1462 H1482 0.930 . S
C1463 N1461 1.375 . S
C1463 C1462 1.338 . S
C1463 H1467 0.931 . S
C1464 N1461 1.313 . S
C1464 N1465 1.344 . S
C1464 H1468 0.930 . S
N1465 C1462 1.377 . S
N1465 C1464 1.344 . S
O1466 Co1458 2.055 . S
O1466 C1470 1.253 . S
H1467 C1463 0.931 . S
H1468 C1464 0.930 . S
O1469 Co1458 2.039 . S
O1469 C1459 1.265 . S
C1470 O1466 1.253 . S
C1470 O1471 1.227 . S
O1471 C1470 1.227 . S
N1472 Co1458 2.140 . S
N1472 C1475 1.346 . S
N1472 C1476 1.345 . S
C1473 C1474 1.387 . S
C1473 C1477 1.391 . S
C1474 C1473 1.387 . S
C1474 C1475 1.369 . S
C1474 H1483 0.929 . S
C1475 N1472 1.346 . S
C1475 C1474 1.369 . S
C1475 H1478 0.928 . S
C1476 N1472 1.345 . S
C1476 C1477 1.371 . S
C1476 H1479 0.931 . S
C1477 C1473 1.391 . S
C1477 C1476 1.371 . S
C1477 H1484 0.930 . S
H1478 C1475 0.928 . S
H1479 C1476 0.931 . S
H1480 C1456 0.930 . S
H1481 C1453 0.930 . S
H1482 C1462 0.930 . S
H1483 C1474 0.929 . S
H1484 C1477 0.930 . S
C1485 C1486 1.351 . S
C1485 N1488 1.368 . S
C1485 H1490 0.931 . S
C1486 C1485 1.351 . S
C1486 N1487 1.373 . S
C1486 H1514 0.930 . S
N1487 C1486 1.373 . S
N1487 C1489 1.340 . S
N1488 C1485 1.368 . S
N1488 C1489 1.321 . S
N1488 Co1491 2.135 . S
C1489 N1487 1.340 . S
C1489 N1488 1.321 . S
C1489 H1513 0.930 . S
H1490 C1485 0.931 . S
Co1491 N1488 2.135 . S
Co1491 N1494 2.121 . S
Co1491 O1499 2.055 . S
Co1491 O1502 2.039 . S
Co1491 N1505 2.140 . S
C1492 O1493 1.227 . S
C1492 O1502 1.265 . S
O1493 C1492 1.227 . S
N1494 Co1491 2.121 . S
N1494 C1496 1.375 . S
N1494 C1497 1.313 . S
C1495 C1496 1.338 . S
C1495 N1498 1.377 . S
C1495 H1515 0.930 . S
C1496 N1494 1.375 . S
C1496 C1495 1.338 . S
C1496 H1500 0.931 . S
C1497 N1494 1.313 . S
C1497 N1498 1.344 . S
C1497 H1501 0.930 . S
N1498 C1495 1.377 . S
N1498 C1497 1.344 . S
O1499 Co1491 2.055 . S
O1499 C1503 1.253 . S
H1500 C1496 0.931 . S
H1501 C1497 0.930 . S
O1502 Co1491 2.039 . S
O1502 C1492 1.265 . S
C1503 O1499 1.253 . S
C1503 O1504 1.227 . S
O1504 C1503 1.227 . S
N1505 Co1491 2.140 . S
N1505 C1508 1.346 . S
N1505 C1509 1.345 . S
C1506 C1507 1.387 . S
C1506 C1510 1.391 . S
C1507 C1506 1.387 . S
C1507 C1508 1.369 . S
C1507 H1516 0.929 . S
C1508 N1505 1.346 . S
C1508 C1507 1.369 . S
C1508 H1511 0.928 . S
C1509 N1505 1.345 . S
C1509 C1510 1.371 . S
C1509 H1512 0.931 . S
C1510 C1506 1.391 . S
C1510 C1509 1.371 . S
C1510 H1517 0.930 . S
H1511 C1508 0.928 . S
H1512 C1509 0.931 . S
H1513 C1489 0.930 . S
H1514 C1486 0.930 . S
H1515 C1495 0.930 . S
H1516 C1507 0.929 . S
H1517 C1510 0.930 . S
C1518 C1519 1.351 . S
C1518 N1521 1.368 . S
C1518 H1523 0.931 . S
C1519 C1518 1.351 . S
C1519 N1520 1.373 . S
C1519 H1547 0.930 . S
N1520 C1519 1.373 . S
N1520 C1522 1.340 . S
N1521 C1518 1.368 . S
N1521 C1522 1.321 . S
N1521 Co1524 2.135 . S
C1522 N1520 1.340 . S
C1522 N1521 1.321 . S
C1522 H1546 0.930 . S
H1523 C1518 0.931 . S
Co1524 N1521 2.135 . S
Co1524 N1527 2.121 . S
Co1524 O1532 2.055 . S
Co1524 O1535 2.039 . S
Co1524 N1538 2.140 . S
C1525 O1526 1.227 . S
C1525 O1535 1.265 . S
O1526 C1525 1.227 . S
N1527 Co1524 2.121 . S
N1527 C1529 1.375 . S
N1527 C1530 1.313 . S
C1528 C1529 1.338 . S
C1528 N1531 1.377 . S
C1528 H1548 0.930 . S
C1529 N1527 1.375 . S
C1529 C1528 1.338 . S
C1529 H1533 0.931 . S
C1530 N1527 1.313 . S
C1530 N1531 1.344 . S
C1530 H1534 0.930 . S
N1531 C1528 1.377 . S
N1531 C1530 1.344 . S
O1532 Co1524 2.055 . S
O1532 C1536 1.253 . S
H1533 C1529 0.931 . S
H1534 C1530 0.930 . S
O1535 Co1524 2.039 . S
O1535 C1525 1.265 . S
C1536 O1532 1.253 . S
C1536 O1537 1.227 . S
O1537 C1536 1.227 . S
N1538 Co1524 2.140 . S
N1538 C1541 1.346 . S
N1538 C1542 1.345 . S
C1539 C1540 1.387 . S
C1539 C1543 1.391 . S
C1540 C1539 1.387 . S
C1540 C1541 1.369 . S
C1540 H1549 0.929 . S
C1541 N1538 1.346 . S
C1541 C1540 1.369 . S
C1541 H1544 0.928 . S
C1542 N1538 1.345 . S
C1542 C1543 1.371 . S
C1542 H1545 0.931 . S
C1543 C1539 1.391 . S
C1543 C1542 1.371 . S
C1543 H1550 0.930 . S
H1544 C1541 0.928 . S
H1545 C1542 0.931 . S
H1546 C1522 0.930 . S
H1547 C1519 0.930 . S
H1548 C1528 0.930 . S
H1549 C1540 0.929 . S
H1550 C1543 0.930 . S
C1551 C1552 1.351 . S
C1551 N1554 1.368 . S
C1551 H1556 0.931 . S
C1552 C1551 1.351 . S
C1552 N1553 1.373 . S
C1552 H1580 0.930 . S
N1553 C1552 1.373 . S
N1553 C1555 1.340 . S
N1554 C1551 1.368 . S
N1554 C1555 1.321 . S
N1554 Co1557 2.135 . S
C1555 N1553 1.340 . S
C1555 N1554 1.321 . S
C1555 H1579 0.930 . S
H1556 C1551 0.931 . S
Co1557 N1554 2.135 . S
Co1557 N1560 2.121 . S
Co1557 O1565 2.055 . S
Co1557 O1568 2.039 . S
Co1557 N1571 2.140 . S
C1558 O1559 1.227 . S
C1558 O1568 1.265 . S
O1559 C1558 1.227 . S
N1560 Co1557 2.121 . S
N1560 C1562 1.375 . S
N1560 C1563 1.313 . S
C1561 C1562 1.338 . S
C1561 N1564 1.377 . S
C1561 H1581 0.930 . S
C1562 N1560 1.375 . S
C1562 C1561 1.338 . S
C1562 H1566 0.931 . S
C1563 N1560 1.313 . S
C1563 N1564 1.344 . S
C1563 H1567 0.930 . S
N1564 C1561 1.377 . S
N1564 C1563 1.344 . S
O1565 Co1557 2.055 . S
O1565 C1569 1.253 . S
H1566 C1562 0.931 . S
H1567 C1563 0.930 . S
O1568 Co1557 2.039 . S
O1568 C1558 1.265 . S
C1569 O1565 1.253 . S
C1569 O1570 1.227 . S
O1570 C1569 1.227 . S
N1571 Co1557 2.140 . S
N1571 C1574 1.346 . S
N1571 C1575 1.345 . S
C1572 C1573 1.387 . S
C1572 C1576 1.391 . S
C1573 C1572 1.387 . S
C1573 C1574 1.369 . S
C1573 H1582 0.929 . S
C1574 N1571 1.346 . S
C1574 C1573 1.369 . S
C1574 H1577 0.928 . S
C1575 N1571 1.345 . S
C1575 C1576 1.371 . S
C1575 H1578 0.931 . S
C1576 C1572 1.391 . S
C1576 C1575 1.371 . S
C1576 H1583 0.930 . S
H1577 C1574 0.928 . S
H1578 C1575 0.931 . S
H1579 C1555 0.930 . S
H1580 C1552 0.930 . S
H1581 C1561 0.930 . S
H1582 C1573 0.929 . S
H1583 C1576 0.930 . S
C1584 C1585 1.363 . S
C1584 C1590 1.379 . S
C1584 N1592 1.356 . S
C1585 C1584 1.363 . S
C1585 C1591 1.363 . S
C1586 C1587 1.363 . S
C1586 C1591 1.379 . S
C1586 N1593 1.356 . S
C1587 C1586 1.363 . S
C1587 C1590 1.363 . S
N1588 C1590 1.356 . S
N1588 H1600 0.984 . S
N1588 H1601 0.985 . S
N1589 C1591 1.356 . S
N1589 H1594 0.984 . S
N1589 H1595 0.985 . S
C1590 C1584 1.379 . S
C1590 C1587 1.363 . S
C1590 N1588 1.356 . S
C1591 C1585 1.363 . S
C1591 C1586 1.379 . S
C1591 N1589 1.356 . S
N1592 C1584 1.356 . S
N1592 H1598 0.984 . S
N1592 H1599 0.984 . S
N1593 C1586 1.356 . S
N1593 H1596 0.984 . S
N1593 H1597 0.985 . S
H1594 N1589 0.984 . S
H1595 N1589 0.985 . S
H1596 N1593 0.984 . S
H1597 N1593 0.985 . S
H1598 N1592 0.984 . S
H1599 N1592 0.984 . S
H1600 N1588 0.984 . S
H1601 N1588 0.985 . S
C1602 C1603 1.363 . S
C1602 C1608 1.379 . S
C1602 N1610 1.356 . S
C1603 C1602 1.363 . S
C1603 C1609 1.363 . S
C1604 C1605 1.363 . S
C1604 C1609 1.379 . S
C1604 N1611 1.356 . S
C1605 C1604 1.363 . S
C1605 C1608 1.363 . S
N1606 C1608 1.356 . S
N1606 H1618 0.984 . S
N1606 H1619 0.985 . S
N1607 C1609 1.356 . S
N1607 H1612 0.984 . S
N1607 H1613 0.985 . S
C1608 C1602 1.379 . S
C1608 C1605 1.363 . S
C1608 N1606 1.356 . S
C1609 C1603 1.363 . S
C1609 C1604 1.379 . S
C1609 N1607 1.356 . S
N1610 C1602 1.356 . S
N1610 H1616 0.984 . S
N1610 H1617 0.984 . S
N1611 C1604 1.356 . S
N1611 H1614 0.984 . S
N1611 H1615 0.985 . S
H1612 N1607 0.984 . S
H1613 N1607 0.985 . S
H1614 N1611 0.984 . S
H1615 N1611 0.985 . S
H1616 N1610 0.984 . S
H1617 N1610 0.984 . S
H1618 N1606 0.984 . S
H1619 N1606 0.985 . S
C1620 C1621 1.363 . S
C1620 C1626 1.379 . S
C1620 N1628 1.356 . S
C1621 C1620 1.363 . S
C1621 C1627 1.363 . S
C1622 C1623 1.363 . S
C1622 C1627 1.379 . S
C1622 N1629 1.356 . S
C1623 C1622 1.363 . S
C1623 C1626 1.363 . S
N1624 C1626 1.356 . S
N1624 H1636 0.984 . S
N1624 H1637 0.985 . S
N1625 C1627 1.356 . S
N1625 H1630 0.984 . S
N1625 H1631 0.985 . S
C1626 C1620 1.379 . S
C1626 C1623 1.363 . S
C1626 N1624 1.356 . S
C1627 C1621 1.363 . S
C1627 C1622 1.379 . S
C1627 N1625 1.356 . S
N1628 C1620 1.356 . S
N1628 H1634 0.984 . S
N1628 H1635 0.984 . S
N1629 C1622 1.356 . S
N1629 H1632 0.984 . S
N1629 H1633 0.985 . S
H1630 N1625 0.984 . S
H1631 N1625 0.985 . S
H1632 N1629 0.984 . S
H1633 N1629 0.985 . S
H1634 N1628 0.984 . S
H1635 N1628 0.984 . S
H1636 N1624 0.984 . S
H1637 N1624 0.985 . S
C1638 C1639 1.363 . S
C1638 C1644 1.379 . S
C1638 N1646 1.356 . S
C1639 C1638 1.363 . S
C1639 C1645 1.363 . S
C1640 C1641 1.363 . S
C1640 C1645 1.379 . S
C1640 N1647 1.356 . S
C1641 C1640 1.363 . S
C1641 C1644 1.363 . S
N1642 C1644 1.356 . S
N1642 H1654 0.984 . S
N1642 H1655 0.985 . S
N1643 C1645 1.356 . S
N1643 H1648 0.984 . S
N1643 H1649 0.985 . S
C1644 C1638 1.379 . S
C1644 C1641 1.363 . S
C1644 N1642 1.356 . S
C1645 C1639 1.363 . S
C1645 C1640 1.379 . S
C1645 N1643 1.356 . S
N1646 C1638 1.356 . S
N1646 H1652 0.984 . S
N1646 H1653 0.984 . S
N1647 C1640 1.356 . S
N1647 H1650 0.984 . S
N1647 H1651 0.985 . S
H1648 N1643 0.984 . S
H1649 N1643 0.985 . S
H1650 N1647 0.984 . S
H1651 N1647 0.985 . S
H1652 N1646 0.984 . S
H1653 N1646 0.984 . S
H1654 N1642 0.984 . S
H1655 N1642 0.985 . S
C1656 C1657 1.363 . S
C1656 C1662 1.379 . S
C1656 N1664 1.356 . S
C1657 C1656 1.363 . S
C1657 C1663 1.363 . S
C1658 C1659 1.363 . S
C1658 C1663 1.379 . S
C1658 N1665 1.356 . S
C1659 C1658 1.363 . S
C1659 C1662 1.363 . S
N1660 C1662 1.356 . S
N1660 H1672 0.984 . S
N1660 H1673 0.985 . S
N1661 C1663 1.356 . S
N1661 H1666 0.984 . S
N1661 H1667 0.985 . S
C1662 C1656 1.379 . S
C1662 C1659 1.363 . S
C1662 N1660 1.356 . S
C1663 C1657 1.363 . S
C1663 C1658 1.379 . S
C1663 N1661 1.356 . S
N1664 C1656 1.356 . S
N1664 H1670 0.984 . S
N1664 H1671 0.984 . S
N1665 C1658 1.356 . S
N1665 H1668 0.984 . S
N1665 H1669 0.985 . S
H1666 N1661 0.984 . S
H1667 N1661 0.985 . S
H1668 N1665 0.984 . S
H1669 N1665 0.985 . S
H1670 N1664 0.984 . S
H1671 N1664 0.984 . S
H1672 N1660 0.984 . S
H1673 N1660 0.985 . S
C1674 C1675 1.363 . S
C1674 C1680 1.379 . S
C1674 N1682 1.356 . S
C1675 C1674 1.363 . S
C1675 C1681 1.363 . S
C1676 C1677 1.363 . S
C1676 C1681 1.379 . S
C1676 N1683 1.356 . S
C1677 C1676 1.363 . S
C1677 C1680 1.363 . S
N1678 C1680 1.356 . S
N1678 H1690 0.984 . S
N1678 H1691 0.985 . S
N1679 C1681 1.356 . S
N1679 H1684 0.984 . S
N1679 H1685 0.985 . S
C1680 C1674 1.379 . S
C1680 C1677 1.363 . S
C1680 N1678 1.356 . S
C1681 C1675 1.363 . S
C1681 C1676 1.379 . S
C1681 N1679 1.356 . S
N1682 C1674 1.356 . S
N1682 H1688 0.984 . S
N1682 H1689 0.984 . S
N1683 C1676 1.356 . S
N1683 H1686 0.984 . S
N1683 H1687 0.985 . S
H1684 N1679 0.984 . S
H1685 N1679 0.985 . S
H1686 N1683 0.984 . S
H1687 N1683 0.985 . S
H1688 N1682 0.984 . S
H1689 N1682 0.984 . S
H1690 N1678 0.984 . S
H1691 N1678 0.985 . S
C1692 C1693 1.363 . S
C1692 C1698 1.379 . S
C1692 N1700 1.356 . S
C1693 C1692 1.363 . S
C1693 C1699 1.363 . S
C1694 C1695 1.363 . S
C1694 C1699 1.379 . S
C1694 N1701 1.356 . S
C1695 C1694 1.363 . S
C1695 C1698 1.363 . S
N1696 C1698 1.356 . S
N1696 H1708 0.984 . S
N1696 H1709 0.985 . S
N1697 C1699 1.356 . S
N1697 H1702 0.984 . S
N1697 H1703 0.985 . S
C1698 C1692 1.379 . S
C1698 C1695 1.363 . S
C1698 N1696 1.356 . S
C1699 C1693 1.363 . S
C1699 C1694 1.379 . S
C1699 N1697 1.356 . S
N1700 C1692 1.356 . S
N1700 H1706 0.984 . S
N1700 H1707 0.984 . S
N1701 C1694 1.356 . S
N1701 H1704 0.984 . S
N1701 H1705 0.985 . S
H1702 N1697 0.984 . S
H1703 N1697 0.985 . S
H1704 N1701 0.984 . S
H1705 N1701 0.985 . S
H1706 N1700 0.984 . S
H1707 N1700 0.984 . S
H1708 N1696 0.984 . S
H1709 N1696 0.985 . S
C1710 C1711 1.363 . S
C1710 C1716 1.379 . S
C1710 N1718 1.356 . S
C1711 C1710 1.363 . S
C1711 C1717 1.363 . S
C1712 C1713 1.363 . S
C1712 C1717 1.379 . S
C1712 N1719 1.356 . S
C1713 C1712 1.363 . S
C1713 C1716 1.363 . S
N1714 C1716 1.356 . S
N1714 H1726 0.984 . S
N1714 H1727 0.985 . S
N1715 C1717 1.356 . S
N1715 H1720 0.984 . S
N1715 H1721 0.985 . S
C1716 C1710 1.379 . S
C1716 C1713 1.363 . S
C1716 N1714 1.356 . S
C1717 C1711 1.363 . S
C1717 C1712 1.379 . S
C1717 N1715 1.356 . S
N1718 C1710 1.356 . S
N1718 H1724 0.984 . S
N1718 H1725 0.984 . S
N1719 C1712 1.356 . S
N1719 H1722 0.984 . S
N1719 H1723 0.985 . S
H1720 N1715 0.984 . S
H1721 N1715 0.985 . S
H1722 N1719 0.984 . S
H1723 N1719 0.985 . S
H1724 N1718 0.984 . S
H1725 N1718 0.984 . S
H1726 N1714 0.984 . S
H1727 N1714 0.985 . S
C1728 C1729 1.363 . S
C1728 C1734 1.379 . S
C1728 N1736 1.356 . S
C1729 C1728 1.363 . S
C1729 C1735 1.363 . S
C1730 C1731 1.363 . S
C1730 C1735 1.379 . S
C1730 N1737 1.356 . S
C1731 C1730 1.363 . S
C1731 C1734 1.363 . S
N1732 C1734 1.356 . S
N1732 H1744 0.984 . S
N1732 H1745 0.985 . S
N1733 C1735 1.356 . S
N1733 H1738 0.984 . S
N1733 H1739 0.985 . S
C1734 C1728 1.379 . S
C1734 C1731 1.363 . S
C1734 N1732 1.356 . S
C1735 C1729 1.363 . S
C1735 C1730 1.379 . S
C1735 N1733 1.356 . S
N1736 C1728 1.356 . S
N1736 H1742 0.984 . S
N1736 H1743 0.984 . S
N1737 C1730 1.356 . S
N1737 H1740 0.984 . S
N1737 H1741 0.985 . S
H1738 N1733 0.984 . S
H1739 N1733 0.985 . S
H1740 N1737 0.984 . S
H1741 N1737 0.985 . S
H1742 N1736 0.984 . S
H1743 N1736 0.984 . S
H1744 N1732 0.984 . S
H1745 N1732 0.985 . S
C1746 C1747 1.363 . S
C1746 C1752 1.379 . S
C1746 N1754 1.356 . S
C1747 C1746 1.363 . S
C1747 C1753 1.363 . S
C1748 C1749 1.363 . S
C1748 C1753 1.379 . S
C1748 N1755 1.356 . S
C1749 C1748 1.363 . S
C1749 C1752 1.363 . S
N1750 C1752 1.356 . S
N1750 H1762 0.984 . S
N1750 H1763 0.985 . S
N1751 C1753 1.356 . S
N1751 H1756 0.984 . S
N1751 H1757 0.985 . S
C1752 C1746 1.379 . S
C1752 C1749 1.363 . S
C1752 N1750 1.356 . S
C1753 C1747 1.363 . S
C1753 C1748 1.379 . S
C1753 N1751 1.356 . S
N1754 C1746 1.356 . S
N1754 H1760 0.984 . S
N1754 H1761 0.984 . S
N1755 C1748 1.356 . S
N1755 H1758 0.984 . S
N1755 H1759 0.985 . S
H1756 N1751 0.984 . S
H1757 N1751 0.985 . S
H1758 N1755 0.984 . S
H1759 N1755 0.985 . S
H1760 N1754 0.984 . S
H1761 N1754 0.984 . S
H1762 N1750 0.984 . S
H1763 N1750 0.985 . S
C1764 C1765 1.363 . S
C1764 C1770 1.379 . S
C1764 N1772 1.356 . S
C1765 C1764 1.363 . S
C1765 C1771 1.363 . S
C1766 C1767 1.363 . S
C1766 C1771 1.379 . S
C1766 N1773 1.356 . S
C1767 C1766 1.363 . S
C1767 C1770 1.363 . S
N1768 C1770 1.356 . S
N1768 H1780 0.984 . S
N1768 H1781 0.985 . S
N1769 C1771 1.356 . S
N1769 H1774 0.984 . S
N1769 H1775 0.985 . S
C1770 C1764 1.379 . S
C1770 C1767 1.363 . S
C1770 N1768 1.356 . S
C1771 C1765 1.363 . S
C1771 C1766 1.379 . S
C1771 N1769 1.356 . S
N1772 C1764 1.356 . S
N1772 H1778 0.984 . S
N1772 H1779 0.984 . S
N1773 C1766 1.356 . S
N1773 H1776 0.984 . S
N1773 H1777 0.985 . S
H1774 N1769 0.984 . S
H1775 N1769 0.985 . S
H1776 N1773 0.984 . S
H1777 N1773 0.985 . S
H1778 N1772 0.984 . S
H1779 N1772 0.984 . S
H1780 N1768 0.984 . S
H1781 N1768 0.985 . S
C1782 C1783 1.363 . S
C1782 C1788 1.379 . S
C1782 N1790 1.356 . S
C1783 C1782 1.363 . S
C1783 C1789 1.363 . S
C1784 C1785 1.363 . S
C1784 C1789 1.379 . S
C1784 N1791 1.356 . S
C1785 C1784 1.363 . S
C1785 C1788 1.363 . S
N1786 C1788 1.356 . S
N1786 H1798 0.984 . S
N1786 H1799 0.985 . S
N1787 C1789 1.356 . S
N1787 H1792 0.984 . S
N1787 H1793 0.985 . S
C1788 C1782 1.379 . S
C1788 C1785 1.363 . S
C1788 N1786 1.356 . S
C1789 C1783 1.363 . S
C1789 C1784 1.379 . S
C1789 N1787 1.356 . S
N1790 C1782 1.356 . S
N1790 H1796 0.984 . S
N1790 H1797 0.984 . S
N1791 C1784 1.356 . S
N1791 H1794 0.984 . S
N1791 H1795 0.985 . S
H1792 N1787 0.984 . S
H1793 N1787 0.985 . S
H1794 N1791 0.984 . S
H1795 N1791 0.985 . S
H1796 N1790 0.984 . S
H1797 N1790 0.984 . S
H1798 N1786 0.984 . S
H1799 N1786 0.985 . S
C1800 C1801 1.363 . S
C1800 C1806 1.379 . S
C1800 N1808 1.356 . S
C1801 C1800 1.363 . S
C1801 C1807 1.363 . S
C1802 C1803 1.363 . S
C1802 C1807 1.379 . S
C1802 N1809 1.356 . S
C1803 C1802 1.363 . S
C1803 C1806 1.363 . S
N1804 C1806 1.356 . S
N1804 H1816 0.984 . S
N1804 H1817 0.985 . S
N1805 C1807 1.356 . S
N1805 H1810 0.984 . S
N1805 H1811 0.985 . S
C1806 C1800 1.379 . S
C1806 C1803 1.363 . S
C1806 N1804 1.356 . S
C1807 C1801 1.363 . S
C1807 C1802 1.379 . S
C1807 N1805 1.356 . S
N1808 C1800 1.356 . S
N1808 H1814 0.984 . S
N1808 H1815 0.984 . S
N1809 C1802 1.356 . S
N1809 H1812 0.984 . S
N1809 H1813 0.985 . S
H1810 N1805 0.984 . S
H1811 N1805 0.985 . S
H1812 N1809 0.984 . S
H1813 N1809 0.985 . S
H1814 N1808 0.984 . S
H1815 N1808 0.984 . S
H1816 N1804 0.984 . S
H1817 N1804 0.985 . S
C1818 C1819 1.363 . S
C1818 C1824 1.379 . S
C1818 N1826 1.356 . S
C1819 C1818 1.363 . S
C1819 C1825 1.363 . S
C1820 C1821 1.363 . S
C1820 C1825 1.379 . S
C1820 N1827 1.356 . S
C1821 C1820 1.363 . S
C1821 C1824 1.363 . S
N1822 C1824 1.356 . S
N1822 H1834 0.984 . S
N1822 H1835 0.985 . S
N1823 C1825 1.356 . S
N1823 H1828 0.984 . S
N1823 H1829 0.985 . S
C1824 C1818 1.379 . S
C1824 C1821 1.363 . S
C1824 N1822 1.356 . S
C1825 C1819 1.363 . S
C1825 C1820 1.379 . S
C1825 N1823 1.356 . S
N1826 C1818 1.356 . S
N1826 H1832 0.984 . S
N1826 H1833 0.984 . S
N1827 C1820 1.356 . S
N1827 H1830 0.984 . S
N1827 H1831 0.985 . S
H1828 N1823 0.984 . S
H1829 N1823 0.985 . S
H1830 N1827 0.984 . S
H1831 N1827 0.985 . S
H1832 N1826 0.984 . S
H1833 N1826 0.984 . S
H1834 N1822 0.984 . S
H1835 N1822 0.985 . S
C1836 C1837 1.363 . S
C1836 C1842 1.379 . S
C1836 N1844 1.356 . S
C1837 C1836 1.363 . S
C1837 C1843 1.363 . S
C1838 C1839 1.363 . S
C1838 C1843 1.379 . S
C1838 N1845 1.356 . S
C1839 C1838 1.363 . S
C1839 C1842 1.363 . S
N1840 C1842 1.356 . S
N1840 H1852 0.984 . S
N1840 H1853 0.985 . S
N1841 C1843 1.356 . S
N1841 H1846 0.984 . S
N1841 H1847 0.985 . S
C1842 C1836 1.379 . S
C1842 C1839 1.363 . S
C1842 N1840 1.356 . S
C1843 C1837 1.363 . S
C1843 C1838 1.379 . S
C1843 N1841 1.356 . S
N1844 C1836 1.356 . S
N1844 H1850 0.984 . S
N1844 H1851 0.984 . S
N1845 C1838 1.356 . S
N1845 H1848 0.984 . S
N1845 H1849 0.985 . S
H1846 N1841 0.984 . S
H1847 N1841 0.985 . S
H1848 N1845 0.984 . S
H1849 N1845 0.985 . S
H1850 N1844 0.984 . S
H1851 N1844 0.984 . S
H1852 N1840 0.984 . S
H1853 N1840 0.985 . S
C1854 C1855 1.363 . S
C1854 C1860 1.379 . S
C1854 N1862 1.356 . S
C1855 C1854 1.363 . S
C1855 C1861 1.363 . S
C1856 C1857 1.363 . S
C1856 C1861 1.379 . S
C1856 N1863 1.356 . S
C1857 C1856 1.363 . S
C1857 C1860 1.363 . S
N1858 C1860 1.356 . S
N1858 H1870 0.984 . S
N1858 H1871 0.985 . S
N1859 C1861 1.356 . S
N1859 H1864 0.984 . S
N1859 H1865 0.985 . S
C1860 C1854 1.379 . S
C1860 C1857 1.363 . S
C1860 N1858 1.356 . S
C1861 C1855 1.363 . S
C1861 C1856 1.379 . S
C1861 N1859 1.356 . S
N1862 C1854 1.356 . S
N1862 H1868 0.984 . S
N1862 H1869 0.984 . S
N1863 C1856 1.356 . S
N1863 H1866 0.984 . S
N1863 H1867 0.985 . S
H1864 N1859 0.984 . S
H1865 N1859 0.985 . S
H1866 N1863 0.984 . S
H1867 N1863 0.985 . S
H1868 N1862 0.984 . S
H1869 N1862 0.984 . S
H1870 N1858 0.984 . S
H1871 N1858 0.985 . S
C1872 C1873 1.363 . S
C1872 C1878 1.379 . S
C1872 N1880 1.356 . S
C1873 C1872 1.363 . S
C1873 C1879 1.363 . S
C1874 C1875 1.363 . S
C1874 C1879 1.379 . S
C1874 N1881 1.356 . S
C1875 C1874 1.363 . S
C1875 C1878 1.363 . S
N1876 C1878 1.356 . S
N1876 H1888 0.984 . S
N1876 H1889 0.985 . S
N1877 C1879 1.356 . S
N1877 H1882 0.984 . S
N1877 H1883 0.985 . S
C1878 C1872 1.379 . S
C1878 C1875 1.363 . S
C1878 N1876 1.356 . S
C1879 C1873 1.363 . S
C1879 C1874 1.379 . S
C1879 N1877 1.356 . S
N1880 C1872 1.356 . S
N1880 H1886 0.984 . S
N1880 H1887 0.984 . S
N1881 C1874 1.356 . S
N1881 H1884 0.984 . S
N1881 H1885 0.985 . S
H1882 N1877 0.984 . S
H1883 N1877 0.985 . S
H1884 N1881 0.984 . S
H1885 N1881 0.985 . S
H1886 N1880 0.984 . S
H1887 N1880 0.984 . S
H1888 N1876 0.984 . S
H1889 N1876 0.985 . S
C1890 C1891 1.363 . S
C1890 C1896 1.379 . S
C1890 N1898 1.356 . S
C1891 C1890 1.363 . S
C1891 C1897 1.363 . S
C1892 C1893 1.363 . S
C1892 C1897 1.379 . S
C1892 N1899 1.356 . S
C1893 C1892 1.363 . S
C1893 C1896 1.363 . S
N1894 C1896 1.356 . S
N1894 H1906 0.984 . S
N1894 H1907 0.985 . S
N1895 C1897 1.356 . S
N1895 H1900 0.984 . S
N1895 H1901 0.985 . S
C1896 C1890 1.379 . S
C1896 C1893 1.363 . S
C1896 N1894 1.356 . S
C1897 C1891 1.363 . S
C1897 C1892 1.379 . S
C1897 N1895 1.356 . S
N1898 C1890 1.356 . S
N1898 H1904 0.984 . S
N1898 H1905 0.984 . S
N1899 C1892 1.356 . S
N1899 H1902 0.984 . S
N1899 H1903 0.985 . S
H1900 N1895 0.984 . S
H1901 N1895 0.985 . S
H1902 N1899 0.984 . S
H1903 N1899 0.985 . S
H1904 N1898 0.984 . S
H1905 N1898 0.984 . S
H1906 N1894 0.984 . S
H1907 N1894 0.985 . S
C1908 C1909 1.363 . S
C1908 C1914 1.379 . S
C1908 N1916 1.356 . S
C1909 C1908 1.363 . S
C1909 C1915 1.363 . S
C1910 C1911 1.363 . S
C1910 C1915 1.379 . S
C1910 N1917 1.356 . S
C1911 C1910 1.363 . S
C1911 C1914 1.363 . S
N1912 C1914 1.356 . S
N1912 H1924 0.984 . S
N1912 H1925 0.985 . S
N1913 C1915 1.356 . S
N1913 H1918 0.984 . S
N1913 H1919 0.985 . S
C1914 C1908 1.379 . S
C1914 C1911 1.363 . S
C1914 N1912 1.356 . S
C1915 C1909 1.363 . S
C1915 C1910 1.379 . S
C1915 N1913 1.356 . S
N1916 C1908 1.356 . S
N1916 H1922 0.984 . S
N1916 H1923 0.984 . S
N1917 C1910 1.356 . S
N1917 H1920 0.984 . S
N1917 H1921 0.985 . S
H1918 N1913 0.984 . S
H1919 N1913 0.985 . S
H1920 N1917 0.984 . S
H1921 N1917 0.985 . S
H1922 N1916 0.984 . S
H1923 N1916 0.984 . S
H1924 N1912 0.984 . S
H1925 N1912 0.985 . S
C1926 C1927 1.363 . S
C1926 C1932 1.379 . S
C1926 N1934 1.356 . S
C1927 C1926 1.363 . S
C1927 C1933 1.363 . S
C1928 C1929 1.363 . S
C1928 C1933 1.379 . S
C1928 N1935 1.356 . S
C1929 C1928 1.363 . S
C1929 C1932 1.363 . S
N1930 C1932 1.356 . S
N1930 H1942 0.984 . S
N1930 H1943 0.985 . S
N1931 C1933 1.356 . S
N1931 H1936 0.984 . S
N1931 H1937 0.985 . S
C1932 C1926 1.379 . S
C1932 C1929 1.363 . S
C1932 N1930 1.356 . S
C1933 C1927 1.363 . S
C1933 C1928 1.379 . S
C1933 N1931 1.356 . S
N1934 C1926 1.356 . S
N1934 H1940 0.984 . S
N1934 H1941 0.984 . S
N1935 C1928 1.356 . S
N1935 H1938 0.984 . S
N1935 H1939 0.985 . S
H1936 N1931 0.984 . S
H1937 N1931 0.985 . S
H1938 N1935 0.984 . S
H1939 N1935 0.985 . S
H1940 N1934 0.984 . S
H1941 N1934 0.984 . S
H1942 N1930 0.984 . S
H1943 N1930 0.985 . S
C1944 C1945 1.363 . S
C1944 C1950 1.379 . S
C1944 N1952 1.356 . S
C1945 C1944 1.363 . S
C1945 C1951 1.363 . S
C1946 C1947 1.363 . S
C1946 C1951 1.379 . S
C1946 N1953 1.356 . S
C1947 C1946 1.363 . S
C1947 C1950 1.363 . S
N1948 C1950 1.356 . S
N1948 H1960 0.984 . S
N1948 H1961 0.985 . S
N1949 C1951 1.356 . S
N1949 H1954 0.984 . S
N1949 H1955 0.985 . S
C1950 C1944 1.379 . S
C1950 C1947 1.363 . S
C1950 N1948 1.356 . S
C1951 C1945 1.363 . S
C1951 C1946 1.379 . S
C1951 N1949 1.356 . S
N1952 C1944 1.356 . S
N1952 H1958 0.984 . S
N1952 H1959 0.984 . S
N1953 C1946 1.356 . S
N1953 H1956 0.984 . S
N1953 H1957 0.985 . S
H1954 N1949 0.984 . S
H1955 N1949 0.985 . S
H1956 N1953 0.984 . S
H1957 N1953 0.985 . S
H1958 N1952 0.984 . S
H1959 N1952 0.984 . S
H1960 N1948 0.984 . S
H1961 N1948 0.985 . S
C1962 C1963 1.363 . S
C1962 C1968 1.379 . S
C1962 N1970 1.356 . S
C1963 C1962 1.363 . S
C1963 C1969 1.363 . S
C1964 C1965 1.363 . S
C1964 C1969 1.379 . S
C1964 N1971 1.356 . S
C1965 C1964 1.363 . S
C1965 C1968 1.363 . S
N1966 C1968 1.356 . S
N1966 H1978 0.984 . S
N1966 H1979 0.985 . S
N1967 C1969 1.356 . S
N1967 H1972 0.984 . S
N1967 H1973 0.985 . S
C1968 C1962 1.379 . S
C1968 C1965 1.363 . S
C1968 N1966 1.356 . S
C1969 C1963 1.363 . S
C1969 C1964 1.379 . S
C1969 N1967 1.356 . S
N1970 C1962 1.356 . S
N1970 H1976 0.984 . S
N1970 H1977 0.984 . S
N1971 C1964 1.356 . S
N1971 H1974 0.984 . S
N1971 H1975 0.985 . S
H1972 N1967 0.984 . S
H1973 N1967 0.985 . S
H1974 N1971 0.984 . S
H1975 N1971 0.985 . S
H1976 N1970 0.984 . S
H1977 N1970 0.984 . S
H1978 N1966 0.984 . S
H1979 N1966 0.985 . S
C1980 C1981 1.363 . S
C1980 C1986 1.379 . S
C1980 N1988 1.356 . S
C1981 C1980 1.363 . S
C1981 C1987 1.363 . S
C1982 C1983 1.363 . S
C1982 C1987 1.379 . S
C1982 N1989 1.356 . S
C1983 C1982 1.363 . S
C1983 C1986 1.363 . S
N1984 C1986 1.356 . S
N1984 H1996 0.984 . S
N1984 H1997 0.985 . S
N1985 C1987 1.356 . S
N1985 H1990 0.984 . S
N1985 H1991 0.985 . S
C1986 C1980 1.379 . S
C1986 C1983 1.363 . S
C1986 N1984 1.356 . S
C1987 C1981 1.363 . S
C1987 C1982 1.379 . S
C1987 N1985 1.356 . S
N1988 C1980 1.356 . S
N1988 H1994 0.984 . S
N1988 H1995 0.984 . S
N1989 C1982 1.356 . S
N1989 H1992 0.984 . S
N1989 H1993 0.985 . S
H1990 N1985 0.984 . S
H1991 N1985 0.985 . S
H1992 N1989 0.984 . S
H1993 N1989 0.985 . S
H1994 N1988 0.984 . S
H1995 N1988 0.984 . S
H1996 N1984 0.984 . S
H1997 N1984 0.985 . S
C1998 C1999 1.363 . S
C1998 C2004 1.379 . S
C1998 N2006 1.356 . S
C1999 C1998 1.363 . S
C1999 C2005 1.363 . S
C2000 C2001 1.363 . S
C2000 C2005 1.379 . S
C2000 N2007 1.356 . S
C2001 C2000 1.363 . S
C2001 C2004 1.363 . S
N2002 C2004 1.356 . S
N2002 H2014 0.984 . S
N2002 H2015 0.985 . S
N2003 C2005 1.356 . S
N2003 H2008 0.984 . S
N2003 H2009 0.985 . S
C2004 C1998 1.379 . S
C2004 C2001 1.363 . S
C2004 N2002 1.356 . S
C2005 C1999 1.363 . S
C2005 C2000 1.379 . S
C2005 N2003 1.356 . S
N2006 C1998 1.356 . S
N2006 H2012 0.984 . S
N2006 H2013 0.984 . S
N2007 C2000 1.356 . S
N2007 H2010 0.984 . S
N2007 H2011 0.985 . S
H2008 N2003 0.984 . S
H2009 N2003 0.985 . S
H2010 N2007 0.984 . S
H2011 N2007 0.985 . S
H2012 N2006 0.984 . S
H2013 N2006 0.984 . S
H2014 N2002 0.984 . S
H2015 N2002 0.985 . S
C2016 C2017 1.363 . S
C2016 C2022 1.379 . S
C2016 N2024 1.356 . S
C2017 C2016 1.363 . S
C2017 C2023 1.363 . S
C2018 C2019 1.363 . S
C2018 C2023 1.379 . S
C2018 N2025 1.356 . S
C2019 C2018 1.363 . S
C2019 C2022 1.363 . S
N2020 C2022 1.356 . S
N2020 H2032 0.984 . S
N2020 H2033 0.985 . S
N2021 C2023 1.356 . S
N2021 H2026 0.984 . S
N2021 H2027 0.985 . S
C2022 C2016 1.379 . S
C2022 C2019 1.363 . S
C2022 N2020 1.356 . S
C2023 C2017 1.363 . S
C2023 C2018 1.379 . S
C2023 N2021 1.356 . S
N2024 C2016 1.356 . S
N2024 H2030 0.984 . S
N2024 H2031 0.984 . S
N2025 C2018 1.356 . S
N2025 H2028 0.984 . S
N2025 H2029 0.985 . S
H2026 N2021 0.984 . S
H2027 N2021 0.985 . S
H2028 N2025 0.984 . S
H2029 N2025 0.985 . S
H2030 N2024 0.984 . S
H2031 N2024 0.984 . S
H2032 N2020 0.984 . S
H2033 N2020 0.985 . S
C2034 C2035 1.363 . S
C2034 C2040 1.379 . S
C2034 N2042 1.356 . S
C2035 C2034 1.363 . S
C2035 C2041 1.363 . S
C2036 C2037 1.363 . S
C2036 C2041 1.379 . S
C2036 N2043 1.356 . S
C2037 C2036 1.363 . S
C2037 C2040 1.363 . S
N2038 C2040 1.356 . S
N2038 H2050 0.984 . S
N2038 H2051 0.985 . S
N2039 C2041 1.356 . S
N2039 H2044 0.984 . S
N2039 H2045 0.985 . S
C2040 C2034 1.379 . S
C2040 C2037 1.363 . S
C2040 N2038 1.356 . S
C2041 C2035 1.363 . S
C2041 C2036 1.379 . S
C2041 N2039 1.356 . S
N2042 C2034 1.356 . S
N2042 H2048 0.984 . S
N2042 H2049 0.984 . S
N2043 C2036 1.356 . S
N2043 H2046 0.984 . S
N2043 H2047 0.985 . S
H2044 N2039 0.984 . S
H2045 N2039 0.985 . S
H2046 N2043 0.984 . S
H2047 N2043 0.985 . S
H2048 N2042 0.984 . S
H2049 N2042 0.984 . S
H2050 N2038 0.984 . S
H2051 N2038 0.985 . S
C2052 C2053 1.363 . S
C2052 C2058 1.379 . S
C2052 N2060 1.356 . S
C2053 C2052 1.363 . S
C2053 C2059 1.363 . S
C2054 C2055 1.363 . S
C2054 C2059 1.379 . S
C2054 N2061 1.356 . S
C2055 C2054 1.363 . S
C2055 C2058 1.363 . S
N2056 C2058 1.356 . S
N2056 H2068 0.984 . S
N2056 H2069 0.985 . S
N2057 C2059 1.356 . S
N2057 H2062 0.984 . S
N2057 H2063 0.985 . S
C2058 C2052 1.379 . S
C2058 C2055 1.363 . S
C2058 N2056 1.356 . S
C2059 C2053 1.363 . S
C2059 C2054 1.379 . S
C2059 N2057 1.356 . S
N2060 C2052 1.356 . S
N2060 H2066 0.984 . S
N2060 H2067 0.984 . S
N2061 C2054 1.356 . S
N2061 H2064 0.984 . S
N2061 H2065 0.985 . S
H2062 N2057 0.984 . S
H2063 N2057 0.985 . S
H2064 N2061 0.984 . S
H2065 N2061 0.985 . S
H2066 N2060 0.984 . S
H2067 N2060 0.984 . S
H2068 N2056 0.984 . S
H2069 N2056 0.985 . S
C2070 C2071 1.363 . S
C2070 C2076 1.379 . S
C2070 N2078 1.356 . S
C2071 C2070 1.363 . S
C2071 C2077 1.363 . S
C2072 C2073 1.363 . S
C2072 C2077 1.379 . S
C2072 N2079 1.356 . S
C2073 C2072 1.363 . S
C2073 C2076 1.363 . S
N2074 C2076 1.356 . S
N2074 H2086 0.984 . S
N2074 H2087 0.985 . S
N2075 C2077 1.356 . S
N2075 H2080 0.984 . S
N2075 H2081 0.985 . S
C2076 C2070 1.379 . S
C2076 C2073 1.363 . S
C2076 N2074 1.356 . S
C2077 C2071 1.363 . S
C2077 C2072 1.379 . S
C2077 N2075 1.356 . S
N2078 C2070 1.356 . S
N2078 H2084 0.984 . S
N2078 H2085 0.984 . S
N2079 C2072 1.356 . S
N2079 H2082 0.984 . S
N2079 H2083 0.985 . S
H2080 N2075 0.984 . S
H2081 N2075 0.985 . S
H2082 N2079 0.984 . S
H2083 N2079 0.985 . S
H2084 N2078 0.984 . S
H2085 N2078 0.984 . S
H2086 N2074 0.984 . S
H2087 N2074 0.985 . S
C2088 C2089 1.363 . S
C2088 C2094 1.379 . S
C2088 N2096 1.356 . S
C2089 C2088 1.363 . S
C2089 C2095 1.363 . S
C2090 C2091 1.363 . S
C2090 C2095 1.379 . S
C2090 N2097 1.356 . S
C2091 C2090 1.363 . S
C2091 C2094 1.363 . S
N2092 C2094 1.356 . S
N2092 H2104 0.984 . S
N2092 H2105 0.985 . S
N2093 C2095 1.356 . S
N2093 H2098 0.984 . S
N2093 H2099 0.985 . S
C2094 C2088 1.379 . S
C2094 C2091 1.363 . S
C2094 N2092 1.356 . S
C2095 C2089 1.363 . S
C2095 C2090 1.379 . S
C2095 N2093 1.356 . S
N2096 C2088 1.356 . S
N2096 H2102 0.984 . S
N2096 H2103 0.984 . S
N2097 C2090 1.356 . S
N2097 H2100 0.984 . S
N2097 H2101 0.985 . S
H2098 N2093 0.984 . S
H2099 N2093 0.985 . S
H2100 N2097 0.984 . S
H2101 N2097 0.985 . S
H2102 N2096 0.984 . S
H2103 N2096 0.984 . S
H2104 N2092 0.984 . S
H2105 N2092 0.985 . S
C2106 C2107 1.363 . S
C2106 C2112 1.379 . S
C2106 N2114 1.356 . S
C2107 C2106 1.363 . S
C2107 C2113 1.363 . S
C2108 C2109 1.363 . S
C2108 C2113 1.379 . S
C2108 N2115 1.356 . S
C2109 C2108 1.363 . S
C2109 C2112 1.363 . S
N2110 C2112 1.356 . S
N2110 H2122 0.984 . S
N2110 H2123 0.985 . S
N2111 C2113 1.356 . S
N2111 H2116 0.984 . S
N2111 H2117 0.985 . S
C2112 C2106 1.379 . S
C2112 C2109 1.363 . S
C2112 N2110 1.356 . S
C2113 C2107 1.363 . S
C2113 C2108 1.379 . S
C2113 N2111 1.356 . S
N2114 C2106 1.356 . S
N2114 H2120 0.984 . S
N2114 H2121 0.984 . S
N2115 C2108 1.356 . S
N2115 H2118 0.984 . S
N2115 H2119 0.985 . S
H2116 N2111 0.984 . S
H2117 N2111 0.985 . S
H2118 N2115 0.984 . S
H2119 N2115 0.985 . S
H2120 N2114 0.984 . S
H2121 N2114 0.984 . S
H2122 N2110 0.984 . S
H2123 N2110 0.985 . S
C2124 C2125 1.363 . S
C2124 C2130 1.379 . S
C2124 N2132 1.356 . S
C2125 C2124 1.363 . S
C2125 C2131 1.363 . S
C2126 C2127 1.363 . S
C2126 C2131 1.379 . S
C2126 N2133 1.356 . S
C2127 C2126 1.363 . S
C2127 C2130 1.363 . S
N2128 C2130 1.356 . S
N2128 H2140 0.984 . S
N2128 H2141 0.985 . S
N2129 C2131 1.356 . S
N2129 H2134 0.984 . S
N2129 H2135 0.985 . S
C2130 C2124 1.379 . S
C2130 C2127 1.363 . S
C2130 N2128 1.356 . S
C2131 C2125 1.363 . S
C2131 C2126 1.379 . S
C2131 N2129 1.356 . S
N2132 C2124 1.356 . S
N2132 H2138 0.984 . S
N2132 H2139 0.984 . S
N2133 C2126 1.356 . S
N2133 H2136 0.984 . S
N2133 H2137 0.985 . S
H2134 N2129 0.984 . S
H2135 N2129 0.985 . S
H2136 N2133 0.984 . S
H2137 N2133 0.985 . S
H2138 N2132 0.984 . S
H2139 N2132 0.984 . S
H2140 N2128 0.984 . S
H2141 N2128 0.985 . S
C2142 C2143 1.363 . S
C2142 C2148 1.379 . S
C2142 N2150 1.356 . S
C2143 C2142 1.363 . S
C2143 C2149 1.363 . S
C2144 C2145 1.363 . S
C2144 C2149 1.379 . S
C2144 N2151 1.356 . S
C2145 C2144 1.363 . S
C2145 C2148 1.363 . S
N2146 C2148 1.356 . S
N2146 H2158 0.984 . S
N2146 H2159 0.985 . S
N2147 C2149 1.356 . S
N2147 H2152 0.984 . S
N2147 H2153 0.985 . S
C2148 C2142 1.379 . S
C2148 C2145 1.363 . S
C2148 N2146 1.356 . S
C2149 C2143 1.363 . S
C2149 C2144 1.379 . S
C2149 N2147 1.356 . S
N2150 C2142 1.356 . S
N2150 H2156 0.984 . S
N2150 H2157 0.984 . S
N2151 C2144 1.356 . S
N2151 H2154 0.984 . S
N2151 H2155 0.985 . S
H2152 N2147 0.984 . S
H2153 N2147 0.985 . S
H2154 N2151 0.984 . S
H2155 N2151 0.985 . S
H2156 N2150 0.984 . S
H2157 N2150 0.984 . S
H2158 N2146 0.984 . S
H2159 N2146 0.985 . S
C2160 C2161 1.363 . S
C2160 C2166 1.379 . S
C2160 N2168 1.356 . S
C2161 C2160 1.363 . S
C2161 C2167 1.363 . S
C2162 C2163 1.363 . S
C2162 C2167 1.379 . S
C2162 N2169 1.356 . S
C2163 C2162 1.363 . S
C2163 C2166 1.363 . S
N2164 C2166 1.356 . S
N2164 H2176 0.984 . S
N2164 H2177 0.985 . S
N2165 C2167 1.356 . S
N2165 H2170 0.984 . S
N2165 H2171 0.985 . S
C2166 C2160 1.379 . S
C2166 C2163 1.363 . S
C2166 N2164 1.356 . S
C2167 C2161 1.363 . S
C2167 C2162 1.379 . S
C2167 N2165 1.356 . S
N2168 C2160 1.356 . S
N2168 H2174 0.984 . S
N2168 H2175 0.984 . S
N2169 C2162 1.356 . S
N2169 H2172 0.984 . S
N2169 H2173 0.985 . S
H2170 N2165 0.984 . S
H2171 N2165 0.985 . S
H2172 N2169 0.984 . S
H2173 N2169 0.985 . S
H2174 N2168 0.984 . S
H2175 N2168 0.984 . S
H2176 N2164 0.984 . S
H2177 N2164 0.985 . S
C2178 C2179 1.363 . S
C2178 C2184 1.379 . S
C2178 N2186 1.356 . S
C2179 C2178 1.363 . S
C2179 C2185 1.363 . S
C2180 C2181 1.363 . S
C2180 C2185 1.379 . S
C2180 N2187 1.356 . S
C2181 C2180 1.363 . S
C2181 C2184 1.363 . S
N2182 C2184 1.356 . S
N2182 H2194 0.984 . S
N2182 H2195 0.985 . S
N2183 C2185 1.356 . S
N2183 H2188 0.984 . S
N2183 H2189 0.985 . S
C2184 C2178 1.379 . S
C2184 C2181 1.363 . S
C2184 N2182 1.356 . S
C2185 C2179 1.363 . S
C2185 C2180 1.379 . S
C2185 N2183 1.356 . S
N2186 C2178 1.356 . S
N2186 H2192 0.984 . S
N2186 H2193 0.984 . S
N2187 C2180 1.356 . S
N2187 H2190 0.984 . S
N2187 H2191 0.985 . S
H2188 N2183 0.984 . S
H2189 N2183 0.985 . S
H2190 N2187 0.984 . S
H2191 N2187 0.985 . S
H2192 N2186 0.984 . S
H2193 N2186 0.984 . S
H2194 N2182 0.984 . S
H2195 N2182 0.985 . S
C2196 C2197 1.363 . S
C2196 C2202 1.379 . S
C2196 N2204 1.356 . S
C2197 C2196 1.363 . S
C2197 C2203 1.363 . S
C2198 C2199 1.363 . S
C2198 C2203 1.379 . S
C2198 N2205 1.356 . S
C2199 C2198 1.363 . S
C2199 C2202 1.363 . S
N2200 C2202 1.356 . S
N2200 H2212 0.984 . S
N2200 H2213 0.985 . S
N2201 C2203 1.356 . S
N2201 H2206 0.984 . S
N2201 H2207 0.985 . S
C2202 C2196 1.379 . S
C2202 C2199 1.363 . S
C2202 N2200 1.356 . S
C2203 C2197 1.363 . S
C2203 C2198 1.379 . S
C2203 N2201 1.356 . S
N2204 C2196 1.356 . S
N2204 H2210 0.984 . S
N2204 H2211 0.984 . S
N2205 C2198 1.356 . S
N2205 H2208 0.984 . S
N2205 H2209 0.985 . S
H2206 N2201 0.984 . S
H2207 N2201 0.985 . S
H2208 N2205 0.984 . S
H2209 N2205 0.985 . S
H2210 N2204 0.984 . S
H2211 N2204 0.984 . S
H2212 N2200 0.984 . S
H2213 N2200 0.985 . S
C2214 C2215 1.363 . S
C2214 C2220 1.379 . S
C2214 N2222 1.356 . S
C2215 C2214 1.363 . S
C2215 C2221 1.363 . S
C2216 C2217 1.363 . S
C2216 C2221 1.379 . S
C2216 N2223 1.356 . S
C2217 C2216 1.363 . S
C2217 C2220 1.363 . S
N2218 C2220 1.356 . S
N2218 H2230 0.984 . S
N2218 H2231 0.985 . S
N2219 C2221 1.356 . S
N2219 H2224 0.984 . S
N2219 H2225 0.985 . S
C2220 C2214 1.379 . S
C2220 C2217 1.363 . S
C2220 N2218 1.356 . S
C2221 C2215 1.363 . S
C2221 C2216 1.379 . S
C2221 N2219 1.356 . S
N2222 C2214 1.356 . S
N2222 H2228 0.984 . S
N2222 H2229 0.984 . S
N2223 C2216 1.356 . S
N2223 H2226 0.984 . S
N2223 H2227 0.985 . S
H2224 N2219 0.984 . S
H2225 N2219 0.985 . S
H2226 N2223 0.984 . S
H2227 N2223 0.985 . S
H2228 N2222 0.984 . S
H2229 N2222 0.984 . S
H2230 N2218 0.984 . S
H2231 N2218 0.985 . S
C2232 C2233 1.363 . S
C2232 C2238 1.379 . S
C2232 N2240 1.356 . S
C2233 C2232 1.363 . S
C2233 C2239 1.363 . S
C2234 C2235 1.363 . S
C2234 C2239 1.379 . S
C2234 N2241 1.356 . S
C2235 C2234 1.363 . S
C2235 C2238 1.363 . S
N2236 C2238 1.356 . S
N2236 H2248 0.984 . S
N2236 H2249 0.985 . S
N2237 C2239 1.356 . S
N2237 H2242 0.984 . S
N2237 H2243 0.985 . S
C2238 C2232 1.379 . S
C2238 C2235 1.363 . S
C2238 N2236 1.356 . S
C2239 C2233 1.363 . S
C2239 C2234 1.379 . S
C2239 N2237 1.356 . S
N2240 C2232 1.356 . S
N2240 H2246 0.984 . S
N2240 H2247 0.984 . S
N2241 C2234 1.356 . S
N2241 H2244 0.984 . S
N2241 H2245 0.985 . S
H2242 N2237 0.984 . S
H2243 N2237 0.985 . S
H2244 N2241 0.984 . S
H2245 N2241 0.985 . S
H2246 N2240 0.984 . S
H2247 N2240 0.984 . S
H2248 N2236 0.984 . S
H2249 N2236 0.985 . S
C2250 C2251 1.363 . S
C2250 C2256 1.379 . S
C2250 N2258 1.356 . S
C2251 C2250 1.363 . S
C2251 C2257 1.363 . S
C2252 C2253 1.363 . S
C2252 C2257 1.379 . S
C2252 N2259 1.356 . S
C2253 C2252 1.363 . S
C2253 C2256 1.363 . S
N2254 C2256 1.356 . S
N2254 H2266 0.984 . S
N2254 H2267 0.985 . S
N2255 C2257 1.356 . S
N2255 H2260 0.984 . S
N2255 H2261 0.985 . S
C2256 C2250 1.379 . S
C2256 C2253 1.363 . S
C2256 N2254 1.356 . S
C2257 C2251 1.363 . S
C2257 C2252 1.379 . S
C2257 N2255 1.356 . S
N2258 C2250 1.356 . S
N2258 H2264 0.984 . S
N2258 H2265 0.984 . S
N2259 C2252 1.356 . S
N2259 H2262 0.984 . S
N2259 H2263 0.985 . S
H2260 N2255 0.984 . S
H2261 N2255 0.985 . S
H2262 N2259 0.984 . S
H2263 N2259 0.985 . S
H2264 N2258 0.984 . S
H2265 N2258 0.984 . S
H2266 N2254 0.984 . S
H2267 N2254 0.985 . S
C2268 C2269 1.363 . S
C2268 C2274 1.379 . S
C2268 N2276 1.356 . S
C2269 C2268 1.363 . S
C2269 C2275 1.363 . S
C2270 C2271 1.363 . S
C2270 C2275 1.379 . S
C2270 N2277 1.356 . S
C2271 C2270 1.363 . S
C2271 C2274 1.363 . S
N2272 C2274 1.356 . S
N2272 H2284 0.984 . S
N2272 H2285 0.985 . S
N2273 C2275 1.356 . S
N2273 H2278 0.984 . S
N2273 H2279 0.985 . S
C2274 C2268 1.379 . S
C2274 C2271 1.363 . S
C2274 N2272 1.356 . S
C2275 C2269 1.363 . S
C2275 C2270 1.379 . S
C2275 N2273 1.356 . S
N2276 C2268 1.356 . S
N2276 H2282 0.984 . S
N2276 H2283 0.984 . S
N2277 C2270 1.356 . S
N2277 H2280 0.984 . S
N2277 H2281 0.985 . S
H2278 N2273 0.984 . S
H2279 N2273 0.985 . S
H2280 N2277 0.984 . S
H2281 N2277 0.985 . S
H2282 N2276 0.984 . S
H2283 N2276 0.984 . S
H2284 N2272 0.984 . S
H2285 N2272 0.985 . S
C2286 C2287 1.363 . S
C2286 C2292 1.379 . S
C2286 N2294 1.356 . S
C2287 C2286 1.363 . S
C2287 C2293 1.363 . S
C2288 C2289 1.363 . S
C2288 C2293 1.379 . S
C2288 N2295 1.356 . S
C2289 C2288 1.363 . S
C2289 C2292 1.363 . S
N2290 C2292 1.356 . S
N2290 H2302 0.984 . S
N2290 H2303 0.985 . S
N2291 C2293 1.356 . S
N2291 H2296 0.984 . S
N2291 H2297 0.985 . S
C2292 C2286 1.379 . S
C2292 C2289 1.363 . S
C2292 N2290 1.356 . S
C2293 C2287 1.363 . S
C2293 C2288 1.379 . S
C2293 N2291 1.356 . S
N2294 C2286 1.356 . S
N2294 H2300 0.984 . S
N2294 H2301 0.984 . S
N2295 C2288 1.356 . S
N2295 H2298 0.984 . S
N2295 H2299 0.985 . S
H2296 N2291 0.984 . S
H2297 N2291 0.985 . S
H2298 N2295 0.984 . S
H2299 N2295 0.985 . S
H2300 N2294 0.984 . S
H2301 N2294 0.984 . S
H2302 N2290 0.984 . S
H2303 N2290 0.985 . S
C2304 C2305 1.363 . S
C2304 C2310 1.379 . S
C2304 N2312 1.356 . S
C2305 C2304 1.363 . S
C2305 C2311 1.363 . S
C2306 C2307 1.363 . S
C2306 C2311 1.379 . S
C2306 N2313 1.356 . S
C2307 C2306 1.363 . S
C2307 C2310 1.363 . S
N2308 C2310 1.356 . S
N2308 H2320 0.984 . S
N2308 H2321 0.985 . S
N2309 C2311 1.356 . S
N2309 H2314 0.984 . S
N2309 H2315 0.985 . S
C2310 C2304 1.379 . S
C2310 C2307 1.363 . S
C2310 N2308 1.356 . S
C2311 C2305 1.363 . S
C2311 C2306 1.379 . S
C2311 N2309 1.356 . S
N2312 C2304 1.356 . S
N2312 H2318 0.984 . S
N2312 H2319 0.984 . S
N2313 C2306 1.356 . S
N2313 H2316 0.984 . S
N2313 H2317 0.985 . S
H2314 N2309 0.984 . S
H2315 N2309 0.985 . S
H2316 N2313 0.984 . S
H2317 N2313 0.985 . S
H2318 N2312 0.984 . S
H2319 N2312 0.984 . S
H2320 N2308 0.984 . S
H2321 N2308 0.985 . S
C2322 C2323 1.363 . S
C2322 C2328 1.379 . S
C2322 N2330 1.356 . S
C2323 C2322 1.363 . S
C2323 C2329 1.363 . S
C2324 C2325 1.363 . S
C2324 C2329 1.379 . S
C2324 N2331 1.356 . S
C2325 C2324 1.363 . S
C2325 C2328 1.363 . S
N2326 C2328 1.356 . S
N2326 H2338 0.984 . S
N2326 H2339 0.985 . S
N2327 C2329 1.356 . S
N2327 H2332 0.984 . S
N2327 H2333 0.985 . S
C2328 C2322 1.379 . S
C2328 C2325 1.363 . S
C2328 N2326 1.356 . S
C2329 C2323 1.363 . S
C2329 C2324 1.379 . S
C2329 N2327 1.356 . S
N2330 C2322 1.356 . S
N2330 H2336 0.984 . S
N2330 H2337 0.984 . S
N2331 C2324 1.356 . S
N2331 H2334 0.984 . S
N2331 H2335 0.985 . S
H2332 N2327 0.984 . S
H2333 N2327 0.985 . S
H2334 N2331 0.984 . S
H2335 N2331 0.985 . S
H2336 N2330 0.984 . S
H2337 N2330 0.984 . S
H2338 N2326 0.984 . S
H2339 N2326 0.985 . S
C2340 C2341 1.363 . S
C2340 C2346 1.379 . S
C2340 N2348 1.356 . S
C2341 C2340 1.363 . S
C2341 C2347 1.363 . S
C2342 C2343 1.363 . S
C2342 C2347 1.379 . S
C2342 N2349 1.356 . S
C2343 C2342 1.363 . S
C2343 C2346 1.363 . S
N2344 C2346 1.356 . S
N2344 H2356 0.984 . S
N2344 H2357 0.985 . S
N2345 C2347 1.356 . S
N2345 H2350 0.984 . S
N2345 H2351 0.985 . S
C2346 C2340 1.379 . S
C2346 C2343 1.363 . S
C2346 N2344 1.356 . S
C2347 C2341 1.363 . S
C2347 C2342 1.379 . S
C2347 N2345 1.356 . S
N2348 C2340 1.356 . S
N2348 H2354 0.984 . S
N2348 H2355 0.984 . S
N2349 C2342 1.356 . S
N2349 H2352 0.984 . S
N2349 H2353 0.985 . S
H2350 N2345 0.984 . S
H2351 N2345 0.985 . S
H2352 N2349 0.984 . S
H2353 N2349 0.985 . S
H2354 N2348 0.984 . S
H2355 N2348 0.984 . S
H2356 N2344 0.984 . S
H2357 N2344 0.985 . S
C2358 C2359 1.363 . S
C2358 C2364 1.379 . S
C2358 N2366 1.356 . S
C2359 C2358 1.363 . S
C2359 C2365 1.363 . S
C2360 C2361 1.363 . S
C2360 C2365 1.379 . S
C2360 N2367 1.356 . S
C2361 C2360 1.363 . S
C2361 C2364 1.363 . S
N2362 C2364 1.356 . S
N2362 H2374 0.984 . S
N2362 H2375 0.985 . S
N2363 C2365 1.356 . S
N2363 H2368 0.984 . S
N2363 H2369 0.985 . S
C2364 C2358 1.379 . S
C2364 C2361 1.363 . S
C2364 N2362 1.356 . S
C2365 C2359 1.363 . S
C2365 C2360 1.379 . S
C2365 N2363 1.356 . S
N2366 C2358 1.356 . S
N2366 H2372 0.984 . S
N2366 H2373 0.984 . S
N2367 C2360 1.356 . S
N2367 H2370 0.984 . S
N2367 H2371 0.985 . S
H2368 N2363 0.984 . S
H2369 N2363 0.985 . S
H2370 N2367 0.984 . S
H2371 N2367 0.985 . S
H2372 N2366 0.984 . S
H2373 N2366 0.984 . S
H2374 N2362 0.984 . S
H2375 N2362 0.985 . S
C2376 C2377 1.363 . S
C2376 C2382 1.379 . S
C2376 N2384 1.356 . S
C2377 C2376 1.363 . S
C2377 C2383 1.363 . S
C2378 C2379 1.363 . S
C2378 C2383 1.379 . S
C2378 N2385 1.356 . S
C2379 C2378 1.363 . S
C2379 C2382 1.363 . S
N2380 C2382 1.356 . S
N2380 H2392 0.984 . S
N2380 H2393 0.985 . S
N2381 C2383 1.356 . S
N2381 H2386 0.984 . S
N2381 H2387 0.985 . S
C2382 C2376 1.379 . S
C2382 C2379 1.363 . S
C2382 N2380 1.356 . S
C2383 C2377 1.363 . S
C2383 C2378 1.379 . S
C2383 N2381 1.356 . S
N2384 C2376 1.356 . S
N2384 H2390 0.984 . S
N2384 H2391 0.984 . S
N2385 C2378 1.356 . S
N2385 H2388 0.984 . S
N2385 H2389 0.985 . S
H2386 N2381 0.984 . S
H2387 N2381 0.985 . S
H2388 N2385 0.984 . S
H2389 N2385 0.985 . S
H2390 N2384 0.984 . S
H2391 N2384 0.984 . S
H2392 N2380 0.984 . S
H2393 N2380 0.985 . S
C2394 C2395 1.363 . S
C2394 C2400 1.379 . S
C2394 N2402 1.356 . S
C2395 C2394 1.363 . S
C2395 C2401 1.363 . S
C2396 C2397 1.363 . S
C2396 C2401 1.379 . S
C2396 N2403 1.356 . S
C2397 C2396 1.363 . S
C2397 C2400 1.363 . S
N2398 C2400 1.356 . S
N2398 H2410 0.984 . S
N2398 H2411 0.985 . S
N2399 C2401 1.356 . S
N2399 H2404 0.984 . S
N2399 H2405 0.985 . S
C2400 C2394 1.379 . S
C2400 C2397 1.363 . S
C2400 N2398 1.356 . S
C2401 C2395 1.363 . S
C2401 C2396 1.379 . S
C2401 N2399 1.356 . S
N2402 C2394 1.356 . S
N2402 H2408 0.984 . S
N2402 H2409 0.984 . S
N2403 C2396 1.356 . S
N2403 H2406 0.984 . S
N2403 H2407 0.985 . S
H2404 N2399 0.984 . S
H2405 N2399 0.985 . S
H2406 N2403 0.984 . S
H2407 N2403 0.985 . S
H2408 N2402 0.984 . S
H2409 N2402 0.984 . S
H2410 N2398 0.984 . S
H2411 N2398 0.985 . S
C2412 C2413 1.363 . S
C2412 C2418 1.379 . S
C2412 N2420 1.356 . S
C2413 C2412 1.363 . S
C2413 C2419 1.363 . S
C2414 C2415 1.363 . S
C2414 C2419 1.379 . S
C2414 N2421 1.356 . S
C2415 C2414 1.363 . S
C2415 C2418 1.363 . S
N2416 C2418 1.356 . S
N2416 H2428 0.984 . S
N2416 H2429 0.985 . S
N2417 C2419 1.356 . S
N2417 H2422 0.984 . S
N2417 H2423 0.985 . S
C2418 C2412 1.379 . S
C2418 C2415 1.363 . S
C2418 N2416 1.356 . S
C2419 C2413 1.363 . S
C2419 C2414 1.379 . S
C2419 N2417 1.356 . S
N2420 C2412 1.356 . S
N2420 H2426 0.984 . S
N2420 H2427 0.984 . S
N2421 C2414 1.356 . S
N2421 H2424 0.984 . S
N2421 H2425 0.985 . S
H2422 N2417 0.984 . S
H2423 N2417 0.985 . S
H2424 N2421 0.984 . S
H2425 N2421 0.985 . S
H2426 N2420 0.984 . S
H2427 N2420 0.984 . S
H2428 N2416 0.984 . S
H2429 N2416 0.985 . S
C2430 C2431 1.363 . S
C2430 C2436 1.379 . S
C2430 N2438 1.356 . S
C2431 C2430 1.363 . S
C2431 C2437 1.363 . S
C2432 C2433 1.363 . S
C2432 C2437 1.379 . S
C2432 N2439 1.356 . S
C2433 C2432 1.363 . S
C2433 C2436 1.363 . S
N2434 C2436 1.356 . S
N2434 H2446 0.984 . S
N2434 H2447 0.985 . S
N2435 C2437 1.356 . S
N2435 H2440 0.984 . S
N2435 H2441 0.985 . S
C2436 C2430 1.379 . S
C2436 C2433 1.363 . S
C2436 N2434 1.356 . S
C2437 C2431 1.363 . S
C2437 C2432 1.379 . S
C2437 N2435 1.356 . S
N2438 C2430 1.356 . S
N2438 H2444 0.984 . S
N2438 H2445 0.984 . S
N2439 C2432 1.356 . S
N2439 H2442 0.984 . S
N2439 H2443 0.985 . S
H2440 N2435 0.984 . S
H2441 N2435 0.985 . S
H2442 N2439 0.984 . S
H2443 N2439 0.985 . S
H2444 N2438 0.984 . S
H2445 N2438 0.984 . S
H2446 N2434 0.984 . S
H2447 N2434 0.985 . S
C2448 C2449 1.363 . S
C2448 C2454 1.379 1_455 S
C2448 N2456 1.356 . S
C2449 C2448 1.363 . S
C2449 C2455 1.363 . S
C2450 C2451 1.363 . S
C2450 C2455 1.379 1_655 S
C2450 N2457 1.356 . S
C2451 C2450 1.363 . S
C2451 C2454 1.363 . S
N2452 C2454 1.356 . S
N2452 H2464 0.984 . S
N2452 H2465 0.985 . S
N2453 C2455 1.356 . S
N2453 H2458 0.984 . S
N2453 H2459 0.985 . S
C2454 C2448 1.379 1_655 S
C2454 C2451 1.363 . S
C2454 N2452 1.356 . S
C2455 C2449 1.363 . S
C2455 C2450 1.379 1_455 S
C2455 N2453 1.356 . S
N2456 C2448 1.356 . S
N2456 H2462 0.984 . S
N2456 H2463 0.984 . S
N2457 C2450 1.356 . S
N2457 H2460 0.984 . S
N2457 H2461 0.985 . S
H2458 N2453 0.984 . S
H2459 N2453 0.985 . S
H2460 N2457 0.984 . S
H2461 N2457 0.985 . S
H2462 N2456 0.984 . S
H2463 N2456 0.984 . S
H2464 N2452 0.984 . S
H2465 N2452 0.985 . S
C2466 C2467 1.363 . S
C2466 C2472 1.379 1_655 S
C2466 N2474 1.356 . S
C2467 C2466 1.363 . S
C2467 C2473 1.363 . S
C2468 C2469 1.363 . S
C2468 C2473 1.379 1_455 S
C2468 N2475 1.356 . S
C2469 C2468 1.363 . S
C2469 C2472 1.363 . S
N2470 C2472 1.356 . S
N2470 H2482 0.984 . S
N2470 H2483 0.985 . S
N2471 C2473 1.356 . S
N2471 H2476 0.984 . S
N2471 H2477 0.985 . S
C2472 C2466 1.379 1_455 S
C2472 C2469 1.363 . S
C2472 N2470 1.356 . S
C2473 C2467 1.363 . S
C2473 C2468 1.379 1_655 S
C2473 N2471 1.356 . S
N2474 C2466 1.356 . S
N2474 H2480 0.984 . S
N2474 H2481 0.984 . S
N2475 C2468 1.356 . S
N2475 H2478 0.984 . S
N2475 H2479 0.985 . S
H2476 N2471 0.984 . S
H2477 N2471 0.985 . S
H2478 N2475 0.984 . S
H2479 N2475 0.985 . S
H2480 N2474 0.984 . S
H2481 N2474 0.984 . S
H2482 N2470 0.984 . S
H2483 N2470 0.985 . S
C2484 C2485 1.363 . S
C2484 C2490 1.379 1_545 S
C2484 N2492 1.356 . S
C2485 C2484 1.363 . S
C2485 C2491 1.363 . S
C2486 C2487 1.363 . S
C2486 C2491 1.379 1_565 S
C2486 N2493 1.356 . S
C2487 C2486 1.363 . S
C2487 C2490 1.363 . S
N2488 C2490 1.356 . S
N2488 H2500 0.984 . S
N2488 H2501 0.985 . S
N2489 C2491 1.356 . S
N2489 H2494 0.984 . S
N2489 H2495 0.985 . S
C2490 C2484 1.379 1_565 S
C2490 C2487 1.363 . S
C2490 N2488 1.356 . S
C2491 C2485 1.363 . S
C2491 C2486 1.379 1_545 S
C2491 N2489 1.356 . S
N2492 C2484 1.356 . S
N2492 H2498 0.976 1_545 S
N2492 H2499 0.984 . S
N2493 C2486 1.356 . S
N2493 H2496 0.984 . S
N2493 H2497 0.976 1_565 S
H2494 N2489 0.984 . S
H2495 N2489 0.985 . S
H2496 N2493 0.984 . S
H2497 N2493 0.976 1_545 S
H2498 N2492 0.976 1_565 S
H2499 N2492 0.984 . S
H2500 N2488 0.984 . S
H2501 N2488 0.985 . S
C2502 C2503 1.363 . S
C2502 C2508 1.379 . S
C2502 N2510 1.356 . S
C2503 C2502 1.363 . S
C2503 C2509 1.363 . S
C2504 C2505 1.363 . S
C2504 C2509 1.379 . S
C2504 N2511 1.356 . S
C2505 C2504 1.363 . S
C2505 C2508 1.363 . S
N2506 C2508 1.356 . S
N2506 H2518 0.984 . S
N2506 H2519 0.985 . S
N2507 C2509 1.356 . S
N2507 H2512 0.984 . S
N2507 H2513 0.985 . S
C2508 C2502 1.379 . S
C2508 C2505 1.363 . S
C2508 N2506 1.356 . S
C2509 C2503 1.363 . S
C2509 C2504 1.379 . S
C2509 N2507 1.356 . S
N2510 C2502 1.356 . S
N2510 H2516 0.984 . S
N2510 H2517 0.984 . S
N2511 C2504 1.356 . S
N2511 H2514 0.984 . S
N2511 H2515 0.985 . S
H2512 N2507 0.984 . S
H2513 N2507 0.985 . S
H2514 N2511 0.984 . S
H2515 N2511 0.985 . S
H2516 N2510 0.984 . S
H2517 N2510 0.984 . S
H2518 N2506 0.984 . S
H2519 N2506 0.985 . S
C2520 C2521 1.363 . S
C2520 C2526 1.379 1_556 S
C2520 N2528 1.356 . S
C2521 C2520 1.363 . S
C2521 C2527 1.363 . S
C2522 C2523 1.363 . S
C2522 C2527 1.379 1_554 S
C2522 N2529 1.356 . S
C2523 C2522 1.363 . S
C2523 C2526 1.363 . S
N2524 C2526 1.356 . S
N2524 H2536 0.984 . S
N2524 H2537 0.985 . S
N2525 C2527 1.356 . S
N2525 H2530 0.984 . S
N2525 H2531 0.985 . S
C2526 C2520 1.379 1_554 S
C2526 C2523 1.363 . S
C2526 N2524 1.356 . S
C2527 C2521 1.363 . S
C2527 C2522 1.379 1_556 S
C2527 N2525 1.356 . S
N2528 C2520 1.356 . S
N2528 H2534 0.984 . S
N2528 H2535 0.984 . S
N2529 C2522 1.356 . S
N2529 H2532 0.984 . S
N2529 H2533 0.985 . S
H2530 N2525 0.984 . S
H2531 N2525 0.985 . S
H2532 N2529 0.984 . S
H2533 N2529 0.985 . S
H2534 N2528 0.984 . S
H2535 N2528 0.984 . S
H2536 N2524 0.984 . S
H2537 N2524 0.985 . S
C2538 C2539 1.363 . S
C2538 C2544 1.379 . S
C2538 N2546 1.356 . S
C2539 C2538 1.363 . S
C2539 C2545 1.363 . S
C2540 C2541 1.363 . S
C2540 C2545 1.379 . S
C2540 N2547 1.356 . S
C2541 C2540 1.363 . S
C2541 C2544 1.363 . S
N2542 C2544 1.356 . S
N2542 H2554 0.984 . S
N2542 H2555 0.985 . S
N2543 C2545 1.356 . S
N2543 H2548 0.984 . S
N2543 H2549 0.985 . S
C2544 C2538 1.379 . S
C2544 C2541 1.363 . S
C2544 N2542 1.356 . S
C2545 C2539 1.363 . S
C2545 C2540 1.379 . S
C2545 N2543 1.356 . S
N2546 C2538 1.356 . S
N2546 H2552 0.984 . S
N2546 H2553 0.984 . S
N2547 C2540 1.356 . S
N2547 H2550 0.984 . S
N2547 H2551 0.985 . S
H2548 N2543 0.984 . S
H2549 N2543 0.985 . S
H2550 N2547 0.984 . S
H2551 N2547 0.985 . S
H2552 N2546 0.984 . S
H2553 N2546 0.984 . S
H2554 N2542 0.984 . S
H2555 N2542 0.985 . S
C2556 C2557 1.363 . S
C2556 C2562 1.379 . S
C2556 N2564 1.356 . S
C2557 C2556 1.363 . S
C2557 C2563 1.363 . S
C2558 C2559 1.363 . S
C2558 C2563 1.379 . S
C2558 N2565 1.356 . S
C2559 C2558 1.363 . S
C2559 C2562 1.363 . S
N2560 C2562 1.356 . S
N2560 H2572 0.984 . S
N2560 H2573 0.985 . S
N2561 C2563 1.356 . S
N2561 H2566 0.984 . S
N2561 H2567 0.985 . S
C2562 C2556 1.379 . S
C2562 C2559 1.363 . S
C2562 N2560 1.356 . S
C2563 C2557 1.363 . S
C2563 C2558 1.379 . S
C2563 N2561 1.356 . S
N2564 C2556 1.356 . S
N2564 H2570 0.984 . S
N2564 H2571 0.984 . S
N2565 C2558 1.356 . S
N2565 H2568 0.984 . S
N2565 H2569 0.985 . S
H2566 N2561 0.984 . S
H2567 N2561 0.985 . S
H2568 N2565 0.984 . S
H2569 N2565 0.985 . S
H2570 N2564 0.984 . S
H2571 N2564 0.984 . S
H2572 N2560 0.984 . S
H2573 N2560 0.985 . S
C2574 C2575 1.363 . S
C2574 C2580 1.379 1_655 S
C2574 N2582 1.356 . S
C2575 C2574 1.363 . S
C2575 C2581 1.363 . S
C2576 C2577 1.363 . S
C2576 C2581 1.379 1_455 S
C2576 N2583 1.356 . S
C2577 C2576 1.363 . S
C2577 C2580 1.363 . S
N2578 C2580 1.356 . S
N2578 H2590 0.984 . S
N2578 H2591 0.985 . S
N2579 C2581 1.356 . S
N2579 H2584 0.984 . S
N2579 H2585 0.985 . S
C2580 C2574 1.379 1_455 S
C2580 C2577 1.363 . S
C2580 N2578 1.356 . S
C2581 C2575 1.363 . S
C2581 C2576 1.379 1_655 S
C2581 N2579 1.356 . S
N2582 C2574 1.356 . S
N2582 H2588 0.984 . S
N2582 H2589 0.984 . S
N2583 C2576 1.356 . S
N2583 H2586 0.984 . S
N2583 H2587 0.985 . S
H2584 N2579 0.984 . S
H2585 N2579 0.985 . S
H2586 N2583 0.984 . S
H2587 N2583 0.985 . S
H2588 N2582 0.984 . S
H2589 N2582 0.984 . S
H2590 N2578 0.984 . S
H2591 N2578 0.985 . S
C2592 C2593 1.363 . S
C2592 C2598 1.379 1_655 S
C2592 N2600 1.356 . S
C2593 C2592 1.363 . S
C2593 C2599 1.363 . S
C2594 C2595 1.363 . S
C2594 C2599 1.379 1_455 S
C2594 N2601 1.356 . S
C2595 C2594 1.363 . S
C2595 C2598 1.363 . S
N2596 C2598 1.356 . S
N2596 H2608 0.984 . S
N2596 H2609 0.985 . S
N2597 C2599 1.356 . S
N2597 H2602 0.984 . S
N2597 H2603 0.985 . S
C2598 C2592 1.379 1_455 S
C2598 C2595 1.363 . S
C2598 N2596 1.356 . S
C2599 C2593 1.363 . S
C2599 C2594 1.379 1_655 S
C2599 N2597 1.356 . S
N2600 C2592 1.356 . S
N2600 H2606 0.984 . S
N2600 H2607 0.984 . S
N2601 C2594 1.356 . S
N2601 H2604 0.984 . S
N2601 H2605 0.985 . S
H2602 N2597 0.984 . S
H2603 N2597 0.985 . S
H2604 N2601 0.984 . S
H2605 N2601 0.985 . S
H2606 N2600 0.984 . S
H2607 N2600 0.984 . S
H2608 N2596 0.984 . S
H2609 N2596 0.985 . S
C2610 C2611 1.363 . S
C2610 C2616 1.379 1_545 S
C2610 N2618 1.356 . S
C2611 C2610 1.363 . S
C2611 C2617 1.363 . S
C2612 C2613 1.363 . S
C2612 C2617 1.379 1_565 S
C2612 N2619 1.356 . S
C2613 C2612 1.363 . S
C2613 C2616 1.363 . S
N2614 C2616 1.356 . S
N2614 H2626 0.984 . S
N2614 H2627 0.985 . S
N2615 C2617 1.356 . S
N2615 H2620 0.984 . S
N2615 H2621 0.985 . S
C2616 C2610 1.379 1_565 S
C2616 C2613 1.363 . S
C2616 N2614 1.356 . S
C2617 C2611 1.363 . S
C2617 C2612 1.379 1_545 S
C2617 N2615 1.356 . S
N2618 C2610 1.356 . S
N2618 H2624 0.984 . S
N2618 H2625 0.984 . S
N2619 C2612 1.356 . S
N2619 H2622 0.984 . S
N2619 H2623 0.985 . S
H2620 N2615 0.984 . S
H2621 N2615 0.985 . S
H2622 N2619 0.984 . S
H2623 N2619 0.985 . S
H2624 N2618 0.984 . S
H2625 N2618 0.984 . S
H2626 N2614 0.984 . S
H2627 N2614 0.985 . S
C2628 C2629 1.363 . S
C2628 C2634 1.379 . S
C2628 N2636 1.356 . S
C2629 C2628 1.363 . S
C2629 C2635 1.363 . S
C2630 C2631 1.363 . S
C2630 C2635 1.379 . S
C2630 N2637 1.356 . S
C2631 C2630 1.363 . S
C2631 C2634 1.363 . S
N2632 C2634 1.356 . S
N2632 H2644 0.984 . S
N2632 H2645 0.985 . S
N2633 C2635 1.356 . S
N2633 H2638 0.984 . S
N2633 H2639 0.985 . S
C2634 C2628 1.379 . S
C2634 C2631 1.363 . S
C2634 N2632 1.356 . S
C2635 C2629 1.363 . S
C2635 C2630 1.379 . S
C2635 N2633 1.356 . S
N2636 C2628 1.356 . S
N2636 H2642 0.984 . S
N2636 H2643 0.984 . S
N2637 C2630 1.356 . S
N2637 H2640 0.984 . S
N2637 H2641 0.985 . S
H2638 N2633 0.984 . S
H2639 N2633 0.985 . S
H2640 N2637 0.984 . S
H2641 N2637 0.985 . S
H2642 N2636 0.984 . S
H2643 N2636 0.984 . S
H2644 N2632 0.984 . S
H2645 N2632 0.985 . S
C2646 C2647 1.363 . S
C2646 C2652 1.379 1_556 S
C2646 N2654 1.356 . S
C2647 C2646 1.363 . S
C2647 C2653 1.363 . S
C2648 C2649 1.363 . S
C2648 C2653 1.379 1_554 S
C2648 N2655 1.356 . S
C2649 C2648 1.363 . S
C2649 C2652 1.363 . S
N2650 C2652 1.356 . S
N2650 H2662 0.984 . S
N2650 H2663 0.985 . S
N2651 C2653 1.356 . S
N2651 H2656 0.984 . S
N2651 H2657 0.985 . S
C2652 C2646 1.379 1_554 S
C2652 C2649 1.363 . S
C2652 N2650 1.356 . S
C2653 C2647 1.363 . S
C2653 C2648 1.379 1_556 S
C2653 N2651 1.356 . S
N2654 C2646 1.356 . S
N2654 H2660 0.984 . S
N2654 H2661 0.984 . S
N2655 C2648 1.356 . S
N2655 H2658 0.984 . S
N2655 H2659 0.985 . S
H2656 N2651 0.984 . S
H2657 N2651 0.985 . S
H2658 N2655 0.984 . S
H2659 N2655 0.985 . S
H2660 N2654 0.984 . S
H2661 N2654 0.984 . S
H2662 N2650 0.984 . S
H2663 N2650 0.985 . S
C2664 C2665 1.363 . S
C2664 C2670 1.379 . S
C2664 N2672 1.356 . S
C2665 C2664 1.363 . S
C2665 C2671 1.363 . S
C2666 C2667 1.363 . S
C2666 C2671 1.379 . S
C2666 N2673 1.356 . S
C2667 C2666 1.363 . S
C2667 C2670 1.363 . S
N2668 C2670 1.356 . S
N2668 H2680 0.984 . S
N2668 H2681 0.985 . S
N2669 C2671 1.356 . S
N2669 H2674 0.984 . S
N2669 H2675 0.985 . S
C2670 C2664 1.379 . S
C2670 C2667 1.363 . S
C2670 N2668 1.356 . S
C2671 C2665 1.363 . S
C2671 C2666 1.379 . S
C2671 N2669 1.356 . S
N2672 C2664 1.356 . S
N2672 H2678 0.984 . S
N2672 H2679 0.984 . S
N2673 C2666 1.356 . S
N2673 H2676 0.984 . S
N2673 H2677 0.985 . S
H2674 N2669 0.984 . S
H2675 N2669 0.985 . S
H2676 N2673 0.984 . S
H2677 N2673 0.985 . S
H2678 N2672 0.984 . S
H2679 N2672 0.984 . S
H2680 N2668 0.984 . S
H2681 N2668 0.985 . S
C2682 C2683 1.363 . S
C2682 C2688 1.379 . S
C2682 N2690 1.356 . S
C2683 C2682 1.363 . S
C2683 C2689 1.363 . S
C2684 C2685 1.363 . S
C2684 C2689 1.379 . S
C2684 N2691 1.356 . S
C2685 C2684 1.363 . S
C2685 C2688 1.363 . S
N2686 C2688 1.356 . S
N2686 H2698 0.984 . S
N2686 H2699 0.985 . S
N2687 C2689 1.356 . S
N2687 H2692 0.984 . S
N2687 H2693 0.985 . S
C2688 C2682 1.379 . S
C2688 C2685 1.363 . S
C2688 N2686 1.356 . S
C2689 C2683 1.363 . S
C2689 C2684 1.379 . S
C2689 N2687 1.356 . S
N2690 C2682 1.356 . S
N2690 H2696 0.984 . S
N2690 H2697 0.984 . S
N2691 C2684 1.356 . S
N2691 H2694 0.984 . S
N2691 H2695 0.985 . S
H2692 N2687 0.984 . S
H2693 N2687 0.985 . S
H2694 N2691 0.984 . S
H2695 N2691 0.985 . S
H2696 N2690 0.984 . S
H2697 N2690 0.984 . S
H2698 N2686 0.984 . S
H2699 N2686 0.985 . S
C2700 C2701 1.363 . S
C2700 C2706 1.379 . S
C2700 N2708 1.356 . S
C2701 C2700 1.363 . S
C2701 C2707 1.363 . S
C2702 C2703 1.363 . S
C2702 C2707 1.379 . S
C2702 N2709 1.356 . S
C2703 C2702 1.363 . S
C2703 C2706 1.363 . S
N2704 C2706 1.356 . S
N2704 H2716 0.984 . S
N2704 H2717 0.985 . S
N2705 C2707 1.356 . S
N2705 H2710 0.984 . S
N2705 H2711 0.985 . S
C2706 C2700 1.379 . S
C2706 C2703 1.363 . S
C2706 N2704 1.356 . S
C2707 C2701 1.363 . S
C2707 C2702 1.379 . S
C2707 N2705 1.356 . S
N2708 C2700 1.356 . S
N2708 H2714 0.984 . S
N2708 H2715 0.984 . S
N2709 C2702 1.356 . S
N2709 H2712 0.984 . S
N2709 H2713 0.985 . S
H2710 N2705 0.984 . S
H2711 N2705 0.985 . S
H2712 N2709 0.984 . S
H2713 N2709 0.985 . S
H2714 N2708 0.984 . S
H2715 N2708 0.984 . S
H2716 N2704 0.984 . S
H2717 N2704 0.985 . S
C2718 C2719 1.363 . S
C2718 C2724 1.379 . S
C2718 N2726 1.356 . S
C2719 C2718 1.363 . S
C2719 C2725 1.363 . S
C2720 C2721 1.363 . S
C2720 C2725 1.379 . S
C2720 N2727 1.356 . S
C2721 C2720 1.363 . S
C2721 C2724 1.363 . S
N2722 C2724 1.356 . S
N2722 H2734 0.984 . S
N2722 H2735 0.985 . S
N2723 C2725 1.356 . S
N2723 H2728 0.984 . S
N2723 H2729 0.985 . S
C2724 C2718 1.379 . S
C2724 C2721 1.363 . S
C2724 N2722 1.356 . S
C2725 C2719 1.363 . S
C2725 C2720 1.379 . S
C2725 N2723 1.356 . S
N2726 C2718 1.356 . S
N2726 H2732 0.984 . S
N2726 H2733 0.984 . S
N2727 C2720 1.356 . S
N2727 H2730 0.984 . S
N2727 H2731 0.985 . S
H2728 N2723 0.984 . S
H2729 N2723 0.985 . S
H2730 N2727 0.984 . S
H2731 N2727 0.985 . S
H2732 N2726 0.984 . S
H2733 N2726 0.984 . S
H2734 N2722 0.984 . S
H2735 N2722 0.985 . S
C2736 C2737 1.363 . S
C2736 C2742 1.379 . S
C2736 N2744 1.356 . S
C2737 C2736 1.363 . S
C2737 C2743 1.363 . S
C2738 C2739 1.363 . S
C2738 C2743 1.379 . S
C2738 N2745 1.356 . S
C2739 C2738 1.363 . S
C2739 C2742 1.363 . S
N2740 C2742 1.356 . S
N2740 H2752 0.984 . S
N2740 H2753 0.985 . S
N2741 C2743 1.356 . S
N2741 H2746 0.984 . S
N2741 H2747 0.985 . S
C2742 C2736 1.379 . S
C2742 C2739 1.363 . S
C2742 N2740 1.356 . S
C2743 C2737 1.363 . S
C2743 C2738 1.379 . S
C2743 N2741 1.356 . S
N2744 C2736 1.356 . S
N2744 H2750 0.984 . S
N2744 H2751 0.984 . S
N2745 C2738 1.356 . S
N2745 H2748 0.984 . S
N2745 H2749 0.985 . S
H2746 N2741 0.984 . S
H2747 N2741 0.985 . S
H2748 N2745 0.984 . S
H2749 N2745 0.985 . S
H2750 N2744 0.984 . S
H2751 N2744 0.984 . S
H2752 N2740 0.984 . S
H2753 N2740 0.985 . S
C2754 C2755 1.363 . S
C2754 C2760 1.379 1_545 S
C2754 N2762 1.356 . S
C2755 C2754 1.363 . S
C2755 C2761 1.363 . S
C2756 C2757 1.363 . S
C2756 C2761 1.379 1_565 S
C2756 N2763 1.356 . S
C2757 C2756 1.363 . S
C2757 C2760 1.363 . S
N2758 C2760 1.356 . S
N2758 H2770 0.984 . S
N2758 H2771 0.985 . S
N2759 C2761 1.356 . S
N2759 H2764 0.984 . S
N2759 H2765 0.985 . S
C2760 C2754 1.379 1_565 S
C2760 C2757 1.363 . S
C2760 N2758 1.356 . S
C2761 C2755 1.363 . S
C2761 C2756 1.379 1_545 S
C2761 N2759 1.356 . S
N2762 C2754 1.356 . S
N2762 H2768 0.984 . S
N2762 H2769 0.984 . S
N2763 C2756 1.356 . S
N2763 H2766 0.984 . S
N2763 H2767 0.985 . S
H2764 N2759 0.984 . S
H2765 N2759 0.985 . S
H2766 N2763 0.984 . S
H2767 N2763 0.985 . S
H2768 N2762 0.984 . S
H2769 N2762 0.984 . S
H2770 N2758 0.984 . S
H2771 N2758 0.985 . S
C2772 C2773 1.363 . S
C2772 C2778 1.379 1_554 S
C2772 N2780 1.356 . S
C2773 C2772 1.363 . S
C2773 C2779 1.363 . S
C2774 C2775 1.363 . S
C2774 C2779 1.379 1_556 S
C2774 N2781 1.356 . S
C2775 C2774 1.363 . S
C2775 C2778 1.363 . S
N2776 C2778 1.356 . S
N2776 H2788 0.984 . S
N2776 H2789 0.985 . S
N2777 C2779 1.356 . S
N2777 H2782 0.984 . S
N2777 H2783 0.985 . S
C2778 C2772 1.379 1_556 S
C2778 C2775 1.363 . S
C2778 N2776 1.356 . S
C2779 C2773 1.363 . S
C2779 C2774 1.379 1_554 S
C2779 N2777 1.356 . S
N2780 C2772 1.356 . S
N2780 H2786 0.984 . S
N2780 H2787 0.984 . S
N2781 C2774 1.356 . S
N2781 H2784 0.984 . S
N2781 H2785 0.985 . S
H2782 N2777 0.984 . S
H2783 N2777 0.985 . S
H2784 N2781 0.984 . S
H2785 N2781 0.985 . S
H2786 N2780 0.984 . S
H2787 N2780 0.984 . S
H2788 N2776 0.984 . S
H2789 N2776 0.985 . S
C2790 C2791 1.363 . S
C2790 C2796 1.379 . S
C2790 N2798 1.356 . S
C2791 C2790 1.363 . S
C2791 C2797 1.363 . S
C2792 C2793 1.363 . S
C2792 C2797 1.379 . S
C2792 N2799 1.356 . S
C2793 C2792 1.363 . S
C2793 C2796 1.363 . S
N2794 C2796 1.356 . S
N2794 H2806 0.984 . S
N2794 H2807 0.985 . S
N2795 C2797 1.356 . S
N2795 H2800 0.984 . S
N2795 H2801 0.985 . S
C2796 C2790 1.379 . S
C2796 C2793 1.363 . S
C2796 N2794 1.356 . S
C2797 C2791 1.363 . S
C2797 C2792 1.379 . S
C2797 N2795 1.356 . S
N2798 C2790 1.356 . S
N2798 H2804 0.984 . S
N2798 H2805 0.984 . S
N2799 C2792 1.356 . S
N2799 H2802 0.984 . S
N2799 H2803 0.985 . S
H2800 N2795 0.984 . S
H2801 N2795 0.985 . S
H2802 N2799 0.984 . S
H2803 N2799 0.985 . S
H2804 N2798 0.984 . S
H2805 N2798 0.984 . S
H2806 N2794 0.984 . S
H2807 N2794 0.985 . S
C2808 C2809 1.363 . S
C2808 C2814 1.379 . S
C2808 N2816 1.356 . S
C2809 C2808 1.363 . S
C2809 C2815 1.363 . S
C2810 C2811 1.363 . S
C2810 C2815 1.379 . S
C2810 N2817 1.356 . S
C2811 C2810 1.363 . S
C2811 C2814 1.363 . S
N2812 C2814 1.356 . S
N2812 H2824 0.984 . S
N2812 H2825 0.985 . S
N2813 C2815 1.356 . S
N2813 H2818 0.984 . S
N2813 H2819 0.985 . S
C2814 C2808 1.379 . S
C2814 C2811 1.363 . S
C2814 N2812 1.356 . S
C2815 C2809 1.363 . S
C2815 C2810 1.379 . S
C2815 N2813 1.356 . S
N2816 C2808 1.356 . S
N2816 H2822 0.984 . S
N2816 H2823 0.984 . S
N2817 C2810 1.356 . S
N2817 H2820 0.984 . S
N2817 H2821 0.985 . S
H2818 N2813 0.984 . S
H2819 N2813 0.985 . S
H2820 N2817 0.984 . S
H2821 N2817 0.985 . S
H2822 N2816 0.984 . S
H2823 N2816 0.984 . S
H2824 N2812 0.984 . S
H2825 N2812 0.985 . S
C2826 C2827 1.363 . S
C2826 C2832 1.379 . S
C2826 N2834 1.356 . S
C2827 C2826 1.363 . S
C2827 C2833 1.363 . S
C2828 C2829 1.363 . S
C2828 C2833 1.379 . S
C2828 N2835 1.356 . S
C2829 C2828 1.363 . S
C2829 C2832 1.363 . S
N2830 C2832 1.356 . S
N2830 H2842 0.984 . S
N2830 H2843 0.985 . S
N2831 C2833 1.356 . S
N2831 H2836 0.984 . S
N2831 H2837 0.985 . S
C2832 C2826 1.379 . S
C2832 C2829 1.363 . S
C2832 N2830 1.356 . S
C2833 C2827 1.363 . S
C2833 C2828 1.379 . S
C2833 N2831 1.356 . S
N2834 C2826 1.356 . S
N2834 H2840 0.984 . S
N2834 H2841 0.984 . S
N2835 C2828 1.356 . S
N2835 H2838 0.984 . S
N2835 H2839 0.985 . S
H2836 N2831 0.984 . S
H2837 N2831 0.985 . S
H2838 N2835 0.984 . S
H2839 N2835 0.985 . S
H2840 N2834 0.984 . S
H2841 N2834 0.984 . S
H2842 N2830 0.984 . S
H2843 N2830 0.985 . S
C2844 C2845 1.363 1_545 S
C2844 C2850 1.379 . S
C2844 N2852 1.356 1_545 S
C2845 C2844 1.363 1_565 S
C2845 C2851 1.363 . S
C2846 C2847 1.363 1_565 S
C2846 C2851 1.379 . S
C2846 N2853 1.356 1_565 S
C2847 C2846 1.363 1_545 S
C2847 C2850 1.363 . S
N2848 C2850 1.356 . S
N2848 H2860 0.984 . S
N2848 H2861 0.985 . S
N2849 C2851 1.356 . S
N2849 H2854 0.984 . S
N2849 H2855 0.985 . S
C2850 C2844 1.379 . S
C2850 C2847 1.363 . S
C2850 N2848 1.356 . S
C2851 C2845 1.363 . S
C2851 C2846 1.379 . S
C2851 N2849 1.356 . S
N2852 C2844 1.356 1_565 S
N2852 H2858 0.984 1_565 S
N2852 H2859 0.984 . S
N2853 C2846 1.356 1_545 S
N2853 H2856 0.984 . S
N2853 H2857 0.985 1_545 S
H2854 N2849 0.984 . S
H2855 N2849 0.985 . S
H2856 N2853 0.984 . S
H2857 N2853 0.985 1_565 S
H2858 N2852 0.984 1_545 S
H2859 N2852 0.984 . S
H2860 N2848 0.984 . S
H2861 N2848 0.985 . S
C2862 C2863 1.363 . S
C2862 C2868 1.379 1_556 S
C2862 N2870 1.356 . S
C2863 C2862 1.363 . S
C2863 C2869 1.363 . S
C2864 C2865 1.363 . S
C2864 C2869 1.379 1_554 S
C2864 N2871 1.356 . S
C2865 C2864 1.363 . S
C2865 C2868 1.363 . S
N2866 C2868 1.356 . S
N2866 H2878 0.984 . S
N2866 H2879 0.985 . S
N2867 C2869 1.356 . S
N2867 H2872 0.984 . S
N2867 H2873 0.985 . S
C2868 C2862 1.379 1_554 S
C2868 C2865 1.363 . S
C2868 N2866 1.356 . S
C2869 C2863 1.363 . S
C2869 C2864 1.379 1_556 S
C2869 N2867 1.356 . S
N2870 C2862 1.356 . S
N2870 H2876 0.984 . S
N2870 H2877 0.984 . S
N2871 C2864 1.356 . S
N2871 H2874 0.984 . S
N2871 H2875 0.985 . S
H2872 N2867 0.984 . S
H2873 N2867 0.985 . S
H2874 N2871 0.984 . S
H2875 N2871 0.985 . S
H2876 N2870 0.984 . S
H2877 N2870 0.984 . S
H2878 N2866 0.984 . S
H2879 N2866 0.985 . S
C2880 C2881 1.363 . S
C2880 C2886 1.379 . S
C2880 N2888 1.356 . S
C2881 C2880 1.363 . S
C2881 C2887 1.363 . S
C2882 C2883 1.363 . S
C2882 C2887 1.379 . S
C2882 N2889 1.356 . S
C2883 C2882 1.363 . S
C2883 C2886 1.363 . S
N2884 C2886 1.356 . S
N2884 H2896 0.984 . S
N2884 H2897 0.985 . S
N2885 C2887 1.356 . S
N2885 H2890 0.984 . S
N2885 H2891 0.985 . S
C2886 C2880 1.379 . S
C2886 C2883 1.363 . S
C2886 N2884 1.356 . S
C2887 C2881 1.363 . S
C2887 C2882 1.379 . S
C2887 N2885 1.356 . S
N2888 C2880 1.356 . S
N2888 H2894 0.984 . S
N2888 H2895 0.984 . S
N2889 C2882 1.356 . S
N2889 H2892 0.984 . S
N2889 H2893 0.985 . S
H2890 N2885 0.984 . S
H2891 N2885 0.985 . S
H2892 N2889 0.984 . S
H2893 N2889 0.985 . S
H2894 N2888 0.984 . S
H2895 N2888 0.984 . S
H2896 N2884 0.984 . S
H2897 N2884 0.985 . S
C2898 C2899 1.363 . S
C2898 C2904 1.379 . S
C2898 N2906 1.356 . S
C2899 C2898 1.363 . S
C2899 C2905 1.363 . S
C2900 C2901 1.363 . S
C2900 C2905 1.379 . S
C2900 N2907 1.356 . S
C2901 C2900 1.363 . S
C2901 C2904 1.363 . S
N2902 C2904 1.356 . S
N2902 H2914 0.984 . S
N2902 H2915 0.985 . S
N2903 C2905 1.356 . S
N2903 H2908 0.984 . S
N2903 H2909 0.985 . S
C2904 C2898 1.379 . S
C2904 C2901 1.363 . S
C2904 N2902 1.356 . S
C2905 C2899 1.363 . S
C2905 C2900 1.379 . S
C2905 N2903 1.356 . S
N2906 C2898 1.356 . S
N2906 H2912 0.984 . S
N2906 H2913 0.984 . S
N2907 C2900 1.356 . S
N2907 H2910 0.984 . S
N2907 H2911 0.985 . S
H2908 N2903 0.984 . S
H2909 N2903 0.985 . S
H2910 N2907 0.984 . S
H2911 N2907 0.985 . S
H2912 N2906 0.984 . S
H2913 N2906 0.984 . S
H2914 N2902 0.984 . S
H2915 N2902 0.985 . S
C2916 C2917 1.363 . S
C2916 C2922 1.379 1_556 S
C2916 N2924 1.356 . S
C2917 C2916 1.363 . S
C2917 C2923 1.363 . S
C2918 C2919 1.363 . S
C2918 C2923 1.379 1_554 S
C2918 N2925 1.356 . S
C2919 C2918 1.363 . S
C2919 C2922 1.363 . S
N2920 C2922 1.356 . S
N2920 H2932 0.984 . S
N2920 H2933 0.985 . S
N2921 C2923 1.356 . S
N2921 H2926 0.984 . S
N2921 H2927 0.985 . S
C2922 C2916 1.379 1_554 S
C2922 C2919 1.363 . S
C2922 N2920 1.356 . S
C2923 C2917 1.363 . S
C2923 C2918 1.379 1_556 S
C2923 N2921 1.356 . S
N2924 C2916 1.356 . S
N2924 H2930 0.984 . S
N2924 H2931 0.984 . S
N2925 C2918 1.356 . S
N2925 H2928 0.984 . S
N2925 H2929 0.985 . S
H2926 N2921 0.984 . S
H2927 N2921 0.985 . S
H2928 N2925 0.984 . S
H2929 N2925 0.985 . S
H2930 N2924 0.984 . S
H2931 N2924 0.984 . S
H2932 N2920 0.984 . S
H2933 N2920 0.985 . S
C2934 C2935 1.363 . S
C2934 C2940 1.379 1_556 S
C2934 N2942 1.356 . S
C2935 C2934 1.363 . S
C2935 C2941 1.363 . S
C2936 C2937 1.363 . S
C2936 C2941 1.379 1_554 S
C2936 N2943 1.356 . S
C2937 C2936 1.363 . S
C2937 C2940 1.363 . S
N2938 C2940 1.356 . S
N2938 H2950 0.984 . S
N2938 H2951 0.985 . S
N2939 C2941 1.356 . S
N2939 H2944 0.984 . S
N2939 H2945 0.985 . S
C2940 C2934 1.379 1_554 S
C2940 C2937 1.363 . S
C2940 N2938 1.356 . S
C2941 C2935 1.363 . S
C2941 C2936 1.379 1_556 S
C2941 N2939 1.356 . S
N2942 C2934 1.356 . S
N2942 H2948 0.984 . S
N2942 H2949 0.984 . S
N2943 C2936 1.356 . S
N2943 H2946 0.984 . S
N2943 H2947 0.985 . S
H2944 N2939 0.984 . S
H2945 N2939 0.985 . S
H2946 N2943 0.984 . S
H2947 N2943 0.985 . S
H2948 N2942 0.984 . S
H2949 N2942 0.984 . S
H2950 N2938 0.984 . S
H2951 N2938 0.985 . S
C2952 C2953 1.363 . S
C2952 C2958 1.379 . S
C2952 N2960 1.356 . S
C2953 C2952 1.363 . S
C2953 C2959 1.363 . S
C2954 C2955 1.363 . S
C2954 C2959 1.379 . S
C2954 N2961 1.356 . S
C2955 C2954 1.363 . S
C2955 C2958 1.363 . S
N2956 C2958 1.356 . S
N2956 H2968 0.984 . S
N2956 H2969 0.985 . S
N2957 C2959 1.356 . S
N2957 H2962 0.984 . S
N2957 H2963 0.985 . S
C2958 C2952 1.379 . S
C2958 C2955 1.363 . S
C2958 N2956 1.356 . S
C2959 C2953 1.363 . S
C2959 C2954 1.379 . S
C2959 N2957 1.356 . S
N2960 C2952 1.356 . S
N2960 H2966 0.984 . S
N2960 H2967 0.984 . S
N2961 C2954 1.356 . S
N2961 H2964 0.984 . S
N2961 H2965 0.985 . S
H2962 N2957 0.984 . S
H2963 N2957 0.985 . S
H2964 N2961 0.984 . S
H2965 N2961 0.985 . S
H2966 N2960 0.984 . S
H2967 N2960 0.984 . S
H2968 N2956 0.984 . S
H2969 N2956 0.985 . S
C2970 C2971 1.363 . S
C2970 C2976 1.379 . S
C2970 N2978 1.356 . S
C2971 C2970 1.363 . S
C2971 C2977 1.363 . S
C2972 C2973 1.363 . S
C2972 C2977 1.379 . S
C2972 N2979 1.356 . S
C2973 C2972 1.363 . S
C2973 C2976 1.363 . S
N2974 C2976 1.356 . S
N2974 H2986 0.984 . S
N2974 H2987 0.985 . S
N2975 C2977 1.356 . S
N2975 H2980 0.984 . S
N2975 H2981 0.985 . S
C2976 C2970 1.379 . S
C2976 C2973 1.363 . S
C2976 N2974 1.356 . S
C2977 C2971 1.363 . S
C2977 C2972 1.379 . S
C2977 N2975 1.356 . S
N2978 C2970 1.356 . S
N2978 H2984 0.984 . S
N2978 H2985 0.984 . S
N2979 C2972 1.356 . S
N2979 H2982 0.984 . S
N2979 H2983 0.985 . S
H2980 N2975 0.984 . S
H2981 N2975 0.985 . S
H2982 N2979 0.984 . S
H2983 N2979 0.985 . S
H2984 N2978 0.984 . S
H2985 N2978 0.984 . S
H2986 N2974 0.984 . S
H2987 N2974 0.985 . S
C2988 C2989 1.363 . S
C2988 C2994 1.379 . S
C2988 N2996 1.356 . S
C2989 C2988 1.363 . S
C2989 C2995 1.363 . S
C2990 C2991 1.363 . S
C2990 C2995 1.379 . S
C2990 N2997 1.356 . S
C2991 C2990 1.363 . S
C2991 C2994 1.363 . S
N2992 C2994 1.356 . S
N2992 H3004 0.984 . S
N2992 H3005 0.985 . S
N2993 C2995 1.356 . S
N2993 H2998 0.984 . S
N2993 H2999 0.985 . S
C2994 C2988 1.379 . S
C2994 C2991 1.363 . S
C2994 N2992 1.356 . S
C2995 C2989 1.363 . S
C2995 C2990 1.379 . S
C2995 N2993 1.356 . S
N2996 C2988 1.356 . S
N2996 H3002 0.984 . S
N2996 H3003 0.984 . S
N2997 C2990 1.356 . S
N2997 H3000 0.984 . S
N2997 H3001 0.985 . S
H2998 N2993 0.984 . S
H2999 N2993 0.985 . S
H3000 N2997 0.984 . S
H3001 N2997 0.985 . S
H3002 N2996 0.984 . S
H3003 N2996 0.984 . S
H3004 N2992 0.984 . S
H3005 N2992 0.985 . S
C3006 C3007 1.363 . S
C3006 C3012 1.379 . S
C3006 N3014 1.356 . S
C3007 C3006 1.363 . S
C3007 C3013 1.363 . S
C3008 C3009 1.363 . S
C3008 C3013 1.379 . S
C3008 N3015 1.356 . S
C3009 C3008 1.363 . S
C3009 C3012 1.363 . S
N3010 C3012 1.356 . S
N3010 H3022 0.984 . S
N3010 H3023 0.985 . S
N3011 C3013 1.356 . S
N3011 H3016 0.984 . S
N3011 H3017 0.985 . S
C3012 C3006 1.379 . S
C3012 C3009 1.363 . S
C3012 N3010 1.356 . S
C3013 C3007 1.363 . S
C3013 C3008 1.379 . S
C3013 N3011 1.356 . S
N3014 C3006 1.356 . S
N3014 H3020 0.984 . S
N3014 H3021 0.984 . S
N3015 C3008 1.356 . S
N3015 H3018 0.984 . S
N3015 H3019 0.985 . S
H3016 N3011 0.984 . S
H3017 N3011 0.985 . S
H3018 N3015 0.984 . S
H3019 N3015 0.985 . S
H3020 N3014 0.984 . S
H3021 N3014 0.984 . S
H3022 N3010 0.984 . S
H3023 N3010 0.985 . S
C3024 C3025 1.363 . S
C3024 C3030 1.379 . S
C3024 N3032 1.356 . S
C3025 C3024 1.363 . S
C3025 C3031 1.363 . S
C3026 C3027 1.363 . S
C3026 C3031 1.379 . S
C3026 N3033 1.356 . S
C3027 C3026 1.363 . S
C3027 C3030 1.363 . S
N3028 C3030 1.356 . S
N3028 H3040 0.984 . S
N3028 H3041 0.985 . S
N3029 C3031 1.356 . S
N3029 H3034 0.984 . S
N3029 H3035 0.985 . S
C3030 C3024 1.379 . S
C3030 C3027 1.363 . S
C3030 N3028 1.356 . S
C3031 C3025 1.363 . S
C3031 C3026 1.379 . S
C3031 N3029 1.356 . S
N3032 C3024 1.356 . S
N3032 H3038 0.984 . S
N3032 H3039 0.984 . S
N3033 C3026 1.356 . S
N3033 H3036 0.984 . S
N3033 H3037 0.985 . S
H3034 N3029 0.984 . S
H3035 N3029 0.985 . S
H3036 N3033 0.984 . S
H3037 N3033 0.985 . S
H3038 N3032 0.984 . S
H3039 N3032 0.984 . S
H3040 N3028 0.984 . S
H3041 N3028 0.985 . S
C3042 C3043 1.363 . S
C3042 C3048 1.379 . S
C3042 N3050 1.356 . S
C3043 C3042 1.363 . S
C3043 C3049 1.363 . S
C3044 C3045 1.363 . S
C3044 C3049 1.379 . S
C3044 N3051 1.356 . S
C3045 C3044 1.363 . S
C3045 C3048 1.363 . S
N3046 C3048 1.356 . S
N3046 H3058 0.984 . S
N3046 H3059 0.985 . S
N3047 C3049 1.356 . S
N3047 H3052 0.984 . S
N3047 H3053 0.985 . S
C3048 C3042 1.379 . S
C3048 C3045 1.363 . S
C3048 N3046 1.356 . S
C3049 C3043 1.363 . S
C3049 C3044 1.379 . S
C3049 N3047 1.356 . S
N3050 C3042 1.356 . S
N3050 H3056 0.984 . S
N3050 H3057 0.984 . S
N3051 C3044 1.356 . S
N3051 H3054 0.984 . S
N3051 H3055 0.985 . S
H3052 N3047 0.984 . S
H3053 N3047 0.985 . S
H3054 N3051 0.984 . S
H3055 N3051 0.985 . S
H3056 N3050 0.984 . S
H3057 N3050 0.984 . S
H3058 N3046 0.984 . S
H3059 N3046 0.985 . S
C3060 C3061 1.363 . S
C3060 C3066 1.379 1_565 S
C3060 N3068 1.356 . S
C3061 C3060 1.363 . S
C3061 C3067 1.363 . S
C3062 C3063 1.363 . S
C3062 C3067 1.379 1_545 S
C3062 N3069 1.356 . S
C3063 C3062 1.363 . S
C3063 C3066 1.363 . S
N3064 C3066 1.356 . S
N3064 H3076 0.984 . S
N3064 H3077 0.985 . S
N3065 C3067 1.356 . S
N3065 H3070 0.984 . S
N3065 H3071 0.985 . S
C3066 C3060 1.379 1_545 S
C3066 C3063 1.363 . S
C3066 N3064 1.356 . S
C3067 C3061 1.363 . S
C3067 C3062 1.379 1_565 S
C3067 N3065 1.356 . S
N3068 C3060 1.356 . S
N3068 H3074 0.984 . S
N3068 H3075 0.984 . S
N3069 C3062 1.356 . S
N3069 H3072 0.984 . S
N3069 H3073 0.985 . S
H3070 N3065 0.984 . S
H3071 N3065 0.985 . S
H3072 N3069 0.984 . S
H3073 N3069 0.985 . S
H3074 N3068 0.984 . S
H3075 N3068 0.984 . S
H3076 N3064 0.984 . S
H3077 N3064 0.985 . S
C3078 C3079 1.363 . S
C3078 C3084 1.379 . S
C3078 N3086 1.356 . S
C3079 C3078 1.363 . S
C3079 C3085 1.363 . S
C3080 C3081 1.363 . S
C3080 C3085 1.379 . S
C3080 N3087 1.356 . S
C3081 C3080 1.363 . S
C3081 C3084 1.363 . S
N3082 C3084 1.356 . S
N3082 H3094 0.984 . S
N3082 H3095 0.985 . S
N3083 C3085 1.356 . S
N3083 H3088 0.984 . S
N3083 H3089 0.985 . S
C3084 C3078 1.379 . S
C3084 C3081 1.363 . S
C3084 N3082 1.356 . S
C3085 C3079 1.363 . S
C3085 C3080 1.379 . S
C3085 N3083 1.356 . S
N3086 C3078 1.356 . S
N3086 H3092 0.984 . S
N3086 H3093 0.984 . S
N3087 C3080 1.356 . S
N3087 H3090 0.984 . S
N3087 H3091 0.985 . S
H3088 N3083 0.984 . S
H3089 N3083 0.985 . S
H3090 N3087 0.984 . S
H3091 N3087 0.985 . S
H3092 N3086 0.984 . S
H3093 N3086 0.984 . S
H3094 N3082 0.984 . S
H3095 N3082 0.985 . S
C3096 C3097 1.363 . S
C3096 C3102 1.379 . S
C3096 N3104 1.356 . S
C3097 C3096 1.363 . S
C3097 C3103 1.363 . S
C3098 C3099 1.363 . S
C3098 C3103 1.379 . S
C3098 N3105 1.356 . S
C3099 C3098 1.363 . S
C3099 C3102 1.363 . S
N3100 C3102 1.356 . S
N3100 H3112 0.984 . S
N3100 H3113 0.985 . S
N3101 C3103 1.356 . S
N3101 H3106 0.984 . S
N3101 H3107 0.985 . S
C3102 C3096 1.379 . S
C3102 C3099 1.363 . S
C3102 N3100 1.356 . S
C3103 C3097 1.363 . S
C3103 C3098 1.379 . S
C3103 N3101 1.356 . S
N3104 C3096 1.356 . S
N3104 H3110 0.984 . S
N3104 H3111 0.984 . S
N3105 C3098 1.356 . S
N3105 H3108 0.984 . S
N3105 H3109 0.985 . S
H3106 N3101 0.984 . S
H3107 N3101 0.985 . S
H3108 N3105 0.984 . S
H3109 N3105 0.985 . S
H3110 N3104 0.984 . S
H3111 N3104 0.984 . S
H3112 N3100 0.984 . S
H3113 N3100 0.985 . S
C3114 C3115 1.363 . S
C3114 C3120 1.379 . S
C3114 N3122 1.356 . S
C3115 C3114 1.363 . S
C3115 C3121 1.363 . S
C3116 C3117 1.363 . S
C3116 C3121 1.379 . S
C3116 N3123 1.356 . S
C3117 C3116 1.363 . S
C3117 C3120 1.363 . S
N3118 C3120 1.356 . S
N3118 H3130 0.984 . S
N3118 H3131 0.985 . S
N3119 C3121 1.356 . S
N3119 H3124 0.984 . S
N3119 H3125 0.985 . S
C3120 C3114 1.379 . S
C3120 C3117 1.363 . S
C3120 N3118 1.356 . S
C3121 C3115 1.363 . S
C3121 C3116 1.379 . S
C3121 N3119 1.356 . S
N3122 C3114 1.356 . S
N3122 H3128 0.984 . S
N3122 H3129 0.984 . S
N3123 C3116 1.356 . S
N3123 H3126 0.984 . S
N3123 H3127 0.985 . S
H3124 N3119 0.984 . S
H3125 N3119 0.985 . S
H3126 N3123 0.984 . S
H3127 N3123 0.985 . S
H3128 N3122 0.984 . S
H3129 N3122 0.984 . S
H3130 N3118 0.984 . S
H3131 N3118 0.985 . S
C3132 C3133 1.363 . S
C3132 C3138 1.379 1_556 S
C3132 N3140 1.356 . S
C3133 C3132 1.363 . S
C3133 C3139 1.363 . S
C3134 C3135 1.363 . S
C3134 C3139 1.379 1_554 S
C3134 N3141 1.356 . S
C3135 C3134 1.363 . S
C3135 C3138 1.363 . S
N3136 C3138 1.356 . S
N3136 H3148 0.984 . S
N3136 H3149 0.985 . S
N3137 C3139 1.356 . S
N3137 H3142 0.984 . S
N3137 H3143 0.985 . S
C3138 C3132 1.379 1_554 S
C3138 C3135 1.363 . S
C3138 N3136 1.356 . S
C3139 C3133 1.363 . S
C3139 C3134 1.379 1_556 S
C3139 N3137 1.356 . S
N3140 C3132 1.356 . S
N3140 H3146 0.984 . S
N3140 H3147 0.984 . S
N3141 C3134 1.356 . S
N3141 H3144 0.984 . S
N3141 H3145 0.985 . S
H3142 N3137 0.984 . S
H3143 N3137 0.985 . S
H3144 N3141 0.984 . S
H3145 N3141 0.985 . S
H3146 N3140 0.984 . S
H3147 N3140 0.984 . S
H3148 N3136 0.984 . S
H3149 N3136 0.985 . S
C3150 C3151 1.363 . S
C3150 C3156 1.379 1_556 S
C3150 N3158 1.356 . S
C3151 C3150 1.363 . S
C3151 C3157 1.363 . S
C3152 C3153 1.363 . S
C3152 C3157 1.379 1_554 S
C3152 N3159 1.356 . S
C3153 C3152 1.363 . S
C3153 C3156 1.363 . S
N3154 C3156 1.356 . S
N3154 H3166 0.984 . S
N3154 H3167 0.985 . S
N3155 C3157 1.356 . S
N3155 H3160 0.984 . S
N3155 H3161 0.985 . S
C3156 C3150 1.379 1_554 S
C3156 C3153 1.363 . S
C3156 N3154 1.356 . S
C3157 C3151 1.363 . S
C3157 C3152 1.379 1_556 S
C3157 N3155 1.356 . S
N3158 C3150 1.356 . S
N3158 H3164 0.984 . S
N3158 H3165 0.984 . S
N3159 C3152 1.356 . S
N3159 H3162 0.984 . S
N3159 H3163 0.985 . S
H3160 N3155 0.984 . S
H3161 N3155 0.985 . S
H3162 N3159 0.984 . S
H3163 N3159 0.985 . S
H3164 N3158 0.984 . S
H3165 N3158 0.984 . S
H3166 N3154 0.984 . S
H3167 N3154 0.985 . S
C3168 C3169 1.363 . S
C3168 C3174 1.379 . S
C3168 N3176 1.356 . S
C3169 C3168 1.363 . S
C3169 C3175 1.363 . S
C3170 C3171 1.363 . S
C3170 C3175 1.379 . S
C3170 N3177 1.356 . S
C3171 C3170 1.363 . S
C3171 C3174 1.363 . S
N3172 C3174 1.356 . S
N3172 H3184 0.984 . S
N3172 H3185 0.985 . S
N3173 C3175 1.356 . S
N3173 H3178 0.984 . S
N3173 H3179 0.985 . S
C3174 C3168 1.379 . S
C3174 C3171 1.363 . S
C3174 N3172 1.356 . S
C3175 C3169 1.363 . S
C3175 C3170 1.379 . S
C3175 N3173 1.356 . S
N3176 C3168 1.356 . S
N3176 H3182 0.984 . S
N3176 H3183 0.984 . S
N3177 C3170 1.356 . S
N3177 H3180 0.984 . S
N3177 H3181 0.985 . S
H3178 N3173 0.984 . S
H3179 N3173 0.985 . S
H3180 N3177 0.984 . S
H3181 N3177 0.985 . S
H3182 N3176 0.984 . S
H3183 N3176 0.984 . S
H3184 N3172 0.984 . S
H3185 N3172 0.985 . S
C3186 C3187 1.363 . S
C3186 C3192 1.379 . S
C3186 N3194 1.356 . S
C3187 C3186 1.363 . S
C3187 C3193 1.363 . S
C3188 C3189 1.363 . S
C3188 C3193 1.379 . S
C3188 N3195 1.356 . S
C3189 C3188 1.363 . S
C3189 C3192 1.363 . S
N3190 C3192 1.356 . S
N3190 H3202 0.984 . S
N3190 H3203 0.985 . S
N3191 C3193 1.356 . S
N3191 H3196 0.984 . S
N3191 H3197 0.985 . S
C3192 C3186 1.379 . S
C3192 C3189 1.363 . S
C3192 N3190 1.356 . S
C3193 C3187 1.363 . S
C3193 C3188 1.379 . S
C3193 N3191 1.356 . S
N3194 C3186 1.356 . S
N3194 H3200 0.984 . S
N3194 H3201 0.984 . S
N3195 C3188 1.356 . S
N3195 H3198 0.984 . S
N3195 H3199 0.985 . S
H3196 N3191 0.984 . S
H3197 N3191 0.985 . S
H3198 N3195 0.984 . S
H3199 N3195 0.985 . S
H3200 N3194 0.984 . S
H3201 N3194 0.984 . S
H3202 N3190 0.984 . S
H3203 N3190 0.985 . S
C3204 C3205 1.363 . S
C3204 C3210 1.379 . S
C3204 N3212 1.356 . S
C3205 C3204 1.363 . S
C3205 C3211 1.363 . S
C3206 C3207 1.363 . S
C3206 C3211 1.379 . S
C3206 N3213 1.356 . S
C3207 C3206 1.363 . S
C3207 C3210 1.363 . S
N3208 C3210 1.356 . S
N3208 H3220 0.984 . S
N3208 H3221 0.985 . S
N3209 C3211 1.356 . S
N3209 H3214 0.984 . S
N3209 H3215 0.985 . S
C3210 C3204 1.379 . S
C3210 C3207 1.363 . S
C3210 N3208 1.356 . S
C3211 C3205 1.363 . S
C3211 C3206 1.379 . S
C3211 N3209 1.356 . S
N3212 C3204 1.356 . S
N3212 H3218 0.984 . S
N3212 H3219 0.984 . S
N3213 C3206 1.356 . S
N3213 H3216 0.984 . S
N3213 H3217 0.985 . S
H3214 N3209 0.984 . S
H3215 N3209 0.985 . S
H3216 N3213 0.984 . S
H3217 N3213 0.985 . S
H3218 N3212 0.984 . S
H3219 N3212 0.984 . S
H3220 N3208 0.984 . S
H3221 N3208 0.985 . S
C3222 C3223 1.363 . S
C3222 C3228 1.379 . S
C3222 N3230 1.356 . S
C3223 C3222 1.363 . S
C3223 C3229 1.363 . S
C3224 C3225 1.363 . S
C3224 C3229 1.379 . S
C3224 N3231 1.356 . S
C3225 C3224 1.363 . S
C3225 C3228 1.363 . S
N3226 C3228 1.356 . S
N3226 H3238 0.984 . S
N3226 H3239 0.985 . S
N3227 C3229 1.356 . S
N3227 H3232 0.984 . S
N3227 H3233 0.985 . S
C3228 C3222 1.379 . S
C3228 C3225 1.363 . S
C3228 N3226 1.356 . S
C3229 C3223 1.363 . S
C3229 C3224 1.379 . S
C3229 N3227 1.356 . S
N3230 C3222 1.356 . S
N3230 H3236 0.984 . S
N3230 H3237 0.984 . S
N3231 C3224 1.356 . S
N3231 H3234 0.984 . S
N3231 H3235 0.985 . S
H3232 N3227 0.984 . S
H3233 N3227 0.985 . S
H3234 N3231 0.984 . S
H3235 N3231 0.985 . S
H3236 N3230 0.984 . S
H3237 N3230 0.984 . S
H3238 N3226 0.984 . S
H3239 N3226 0.985 . S
C3240 C3241 1.363 . S
C3240 C3246 1.379 . S
C3240 N3248 1.356 . S
C3241 C3240 1.363 . S
C3241 C3247 1.363 . S
C3242 C3243 1.363 . S
C3242 C3247 1.379 . S
C3242 N3249 1.356 . S
C3243 C3242 1.363 . S
C3243 C3246 1.363 . S
N3244 C3246 1.356 . S
N3244 H3256 0.984 . S
N3244 H3257 0.985 . S
N3245 C3247 1.356 . S
N3245 H3250 0.984 . S
N3245 H3251 0.985 . S
C3246 C3240 1.379 . S
C3246 C3243 1.363 . S
C3246 N3244 1.356 . S
C3247 C3241 1.363 . S
C3247 C3242 1.379 . S
C3247 N3245 1.356 . S
N3248 C3240 1.356 . S
N3248 H3254 0.984 . S
N3248 H3255 0.984 . S
N3249 C3242 1.356 . S
N3249 H3252 0.984 . S
N3249 H3253 0.985 . S
H3250 N3245 0.984 . S
H3251 N3245 0.985 . S
H3252 N3249 0.984 . S
H3253 N3249 0.985 . S
H3254 N3248 0.984 . S
H3255 N3248 0.984 . S
H3256 N3244 0.984 . S
H3257 N3244 0.985 . S
C3258 C3259 1.363 . S
C3258 C3264 1.379 . S
C3258 N3266 1.356 . S
C3259 C3258 1.363 . S
C3259 C3265 1.363 . S
C3260 C3261 1.363 . S
C3260 C3265 1.379 . S
C3260 N3267 1.356 . S
C3261 C3260 1.363 . S
C3261 C3264 1.363 . S
N3262 C3264 1.356 . S
N3262 H3274 0.984 . S
N3262 H3275 0.985 . S
N3263 C3265 1.356 . S
N3263 H3268 0.984 . S
N3263 H3269 0.985 . S
C3264 C3258 1.379 . S
C3264 C3261 1.363 . S
C3264 N3262 1.356 . S
C3265 C3259 1.363 . S
C3265 C3260 1.379 . S
C3265 N3263 1.356 . S
N3266 C3258 1.356 . S
N3266 H3272 0.984 . S
N3266 H3273 0.984 . S
N3267 C3260 1.356 . S
N3267 H3270 0.984 . S
N3267 H3271 0.985 . S
H3268 N3263 0.984 . S
H3269 N3263 0.985 . S
H3270 N3267 0.984 . S
H3271 N3267 0.985 . S
H3272 N3266 0.984 . S
H3273 N3266 0.984 . S
H3274 N3262 0.984 . S
H3275 N3262 0.985 . S
C3276 C3277 1.363 . S
C3276 C3282 1.379 1_565 S
C3276 N3284 1.356 . S
C3277 C3276 1.363 . S
C3277 C3283 1.363 . S
C3278 C3279 1.363 . S
C3278 C3283 1.379 1_545 S
C3278 N3285 1.356 . S
C3279 C3278 1.363 . S
C3279 C3282 1.363 . S
N3280 C3282 1.356 . S
N3280 H3292 0.984 . S
N3280 H3293 0.985 . S
N3281 C3283 1.356 . S
N3281 H3286 0.984 . S
N3281 H3287 0.985 . S
C3282 C3276 1.379 1_545 S
C3282 C3279 1.363 . S
C3282 N3280 1.356 . S
C3283 C3277 1.363 . S
C3283 C3278 1.379 1_565 S
C3283 N3281 1.356 . S
N3284 C3276 1.356 . S
N3284 H3290 0.984 . S
N3284 H3291 0.984 . S
N3285 C3278 1.356 . S
N3285 H3288 0.984 . S
N3285 H3289 0.985 . S
H3286 N3281 0.984 . S
H3287 N3281 0.985 . S
H3288 N3285 0.984 . S
H3289 N3285 0.985 . S
H3290 N3284 0.984 . S
H3291 N3284 0.984 . S
H3292 N3280 0.984 . S
H3293 N3280 0.985 . S
C3294 C3295 1.363 . S
C3294 C3300 1.379 . S
C3294 N3302 1.356 . S
C3295 C3294 1.363 . S
C3295 C3301 1.363 . S
C3296 C3297 1.363 . S
C3296 C3301 1.379 . S
C3296 N3303 1.356 . S
C3297 C3296 1.363 . S
C3297 C3300 1.363 . S
N3298 C3300 1.356 . S
N3298 H3310 0.984 . S
N3298 H3311 0.985 . S
N3299 C3301 1.356 . S
N3299 H3304 0.984 . S
N3299 H3305 0.985 . S
C3300 C3294 1.379 . S
C3300 C3297 1.363 . S
C3300 N3298 1.356 . S
C3301 C3295 1.363 . S
C3301 C3296 1.379 . S
C3301 N3299 1.356 . S
N3302 C3294 1.356 . S
N3302 H3308 0.984 . S
N3302 H3309 0.984 . S
N3303 C3296 1.356 . S
N3303 H3306 0.984 . S
N3303 H3307 0.985 . S
H3304 N3299 0.984 . S
H3305 N3299 0.985 . S
H3306 N3303 0.984 . S
H3307 N3303 0.985 . S
H3308 N3302 0.984 . S
H3309 N3302 0.984 . S
H3310 N3298 0.984 . S
H3311 N3298 0.985 . S
C3312 C3313 1.363 . S
C3312 C3318 1.379 1_556 S
C3312 N3320 1.356 . S
C3313 C3312 1.363 . S
C3313 C3319 1.363 . S
C3314 C3315 1.363 . S
C3314 C3319 1.379 1_554 S
C3314 N3321 1.356 . S
C3315 C3314 1.363 . S
C3315 C3318 1.363 . S
N3316 C3318 1.356 . S
N3316 H3328 0.984 . S
N3316 H3329 0.985 . S
N3317 C3319 1.356 . S
N3317 H3322 0.984 . S
N3317 H3323 0.985 . S
C3318 C3312 1.379 1_554 S
C3318 C3315 1.363 . S
C3318 N3316 1.356 . S
C3319 C3313 1.363 . S
C3319 C3314 1.379 1_556 S
C3319 N3317 1.356 . S
N3320 C3312 1.356 . S
N3320 H3326 0.984 . S
N3320 H3327 0.984 . S
N3321 C3314 1.356 . S
N3321 H3324 0.984 . S
N3321 H3325 0.985 . S
H3322 N3317 0.984 . S
H3323 N3317 0.985 . S
H3324 N3321 0.984 . S
H3325 N3321 0.985 . S
H3326 N3320 0.984 . S
H3327 N3320 0.984 . S
H3328 N3316 0.984 . S
H3329 N3316 0.985 . S
C3330 C3331 1.363 . S
C3330 C3336 1.379 1_554 S
C3330 N3338 1.356 . S
C3331 C3330 1.363 . S
C3331 C3337 1.363 . S
C3332 C3333 1.363 . S
C3332 C3337 1.379 1_556 S
C3332 N3339 1.356 . S
C3333 C3332 1.363 . S
C3333 C3336 1.363 . S
N3334 C3336 1.356 . S
N3334 H3346 0.984 . S
N3334 H3347 0.985 . S
N3335 C3337 1.356 . S
N3335 H3340 0.984 . S
N3335 H3341 0.985 . S
C3336 C3330 1.379 1_556 S
C3336 C3333 1.363 . S
C3336 N3334 1.356 . S
C3337 C3331 1.363 . S
C3337 C3332 1.379 1_554 S
C3337 N3335 1.356 . S
N3338 C3330 1.356 . S
N3338 H3344 0.984 . S
N3338 H3345 0.984 . S
N3339 C3332 1.356 . S
N3339 H3342 0.984 . S
N3339 H3343 0.985 . S
H3340 N3335 0.984 . S
H3341 N3335 0.985 . S
H3342 N3339 0.984 . S
H3343 N3339 0.985 . S
H3344 N3338 0.984 . S
H3345 N3338 0.984 . S
H3346 N3334 0.984 . S
H3347 N3334 0.985 . S
C3348 C3349 1.363 . S
C3348 C3354 1.379 . S
C3348 N3356 1.356 . S
C3349 C3348 1.363 . S
C3349 C3355 1.363 . S
C3350 C3351 1.363 . S
C3350 C3355 1.379 . S
C3350 N3357 1.356 . S
C3351 C3350 1.363 . S
C3351 C3354 1.363 . S
N3352 C3354 1.356 . S
N3352 H3364 0.984 . S
N3352 H3365 0.985 . S
N3353 C3355 1.356 . S
N3353 H3358 0.984 . S
N3353 H3359 0.985 . S
C3354 C3348 1.379 . S
C3354 C3351 1.363 . S
C3354 N3352 1.356 . S
C3355 C3349 1.363 . S
C3355 C3350 1.379 . S
C3355 N3353 1.356 . S
N3356 C3348 1.356 . S
N3356 H3362 0.984 . S
N3356 H3363 0.984 . S
N3357 C3350 1.356 . S
N3357 H3360 0.984 . S
N3357 H3361 0.985 . S
H3358 N3353 0.984 . S
H3359 N3353 0.985 . S
H3360 N3357 0.984 . S
H3361 N3357 0.985 . S
H3362 N3356 0.984 . S
H3363 N3356 0.984 . S
H3364 N3352 0.984 . S
H3365 N3352 0.985 . S
C3366 C3367 1.363 . S
C3366 C3372 1.379 . S
C3366 N3374 1.356 . S
C3367 C3366 1.363 . S
C3367 C3373 1.363 . S
C3368 C3369 1.363 . S
C3368 C3373 1.379 . S
C3368 N3375 1.356 . S
C3369 C3368 1.363 . S
C3369 C3372 1.363 . S
N3370 C3372 1.356 . S
N3370 H3382 0.984 . S
N3370 H3383 0.985 . S
N3371 C3373 1.356 . S
N3371 H3376 0.984 . S
N3371 H3377 0.985 . S
C3372 C3366 1.379 . S
C3372 C3369 1.363 . S
C3372 N3370 1.356 . S
C3373 C3367 1.363 . S
C3373 C3368 1.379 . S
C3373 N3371 1.356 . S
N3374 C3366 1.356 . S
N3374 H3380 0.984 . S
N3374 H3381 0.984 . S
N3375 C3368 1.356 . S
N3375 H3378 0.984 . S
N3375 H3379 0.985 . S
H3376 N3371 0.984 . S
H3377 N3371 0.985 . S
H3378 N3375 0.984 . S
H3379 N3375 0.985 . S
H3380 N3374 0.984 . S
H3381 N3374 0.984 . S
H3382 N3370 0.984 . S
H3383 N3370 0.985 . S
C3384 C3385 1.363 . S
C3384 C3390 1.379 1_655 S
C3384 N3392 1.356 . S
C3385 C3384 1.363 . S
C3385 C3391 1.363 . S
C3386 C3387 1.363 . S
C3386 C3391 1.379 1_455 S
C3386 N3393 1.356 . S
C3387 C3386 1.363 . S
C3387 C3390 1.363 . S
N3388 C3390 1.356 . S
N3388 H3400 0.984 . S
N3388 H3401 0.985 . S
N3389 C3391 1.356 . S
N3389 H3394 0.984 . S
N3389 H3395 0.985 . S
C3390 C3384 1.379 1_455 S
C3390 C3387 1.363 . S
C3390 N3388 1.356 . S
C3391 C3385 1.363 . S
C3391 C3386 1.379 1_655 S
C3391 N3389 1.356 . S
N3392 C3384 1.356 . S
N3392 H3398 0.984 . S
N3392 H3399 0.984 . S
N3393 C3386 1.356 . S
N3393 H3396 0.984 . S
N3393 H3397 0.985 . S
H3394 N3389 0.984 . S
H3395 N3389 0.985 . S
H3396 N3393 0.984 . S
H3397 N3393 0.985 . S
H3398 N3392 0.984 . S
H3399 N3392 0.984 . S
H3400 N3388 0.984 . S
H3401 N3388 0.985 . S
C3402 C3403 1.363 . S
C3402 C3408 1.379 1_655 S
C3402 N3410 1.356 . S
C3403 C3402 1.363 . S
C3403 C3409 1.363 . S
C3404 C3405 1.363 . S
C3404 C3409 1.379 1_455 S
C3404 N3411 1.356 . S
C3405 C3404 1.363 . S
C3405 C3408 1.363 . S
N3406 C3408 1.356 . S
N3406 H3418 0.984 . S
N3406 H3419 0.985 . S
N3407 C3409 1.356 . S
N3407 H3412 0.984 . S
N3407 H3413 0.985 . S
C3408 C3402 1.379 1_455 S
C3408 C3405 1.363 . S
C3408 N3406 1.356 . S
C3409 C3403 1.363 . S
C3409 C3404 1.379 1_655 S
C3409 N3407 1.356 . S
N3410 C3402 1.356 . S
N3410 H3416 0.984 . S
N3410 H3417 0.984 . S
N3411 C3404 1.356 . S
N3411 H3414 0.984 . S
N3411 H3415 0.985 . S
H3412 N3407 0.984 . S
H3413 N3407 0.985 . S
H3414 N3411 0.984 . S
H3415 N3411 0.985 . S
H3416 N3410 0.984 . S
H3417 N3410 0.984 . S
H3418 N3406 0.984 . S
H3419 N3406 0.985 . S
C3420 C3421 1.363 . S
C3420 C3426 1.379 1_655 S
C3420 N3428 1.356 . S
C3421 C3420 1.363 . S
C3421 C3427 1.363 . S
C3422 C3423 1.363 . S
C3422 C3427 1.379 1_455 S
C3422 N3429 1.356 . S
C3423 C3422 1.363 . S
C3423 C3426 1.363 . S
N3424 C3426 1.356 . S
N3424 H3436 0.984 . S
N3424 H3437 0.985 . S
N3425 C3427 1.356 . S
N3425 H3430 0.984 . S
N3425 H3431 0.985 . S
C3426 C3420 1.379 1_455 S
C3426 C3423 1.363 . S
C3426 N3424 1.356 . S
C3427 C3421 1.363 . S
C3427 C3422 1.379 1_655 S
C3427 N3425 1.356 . S
N3428 C3420 1.356 . S
N3428 H3434 0.984 . S
N3428 H3435 0.984 . S
N3429 C3422 1.356 . S
N3429 H3432 0.984 . S
N3429 H3433 0.985 . S
H3430 N3425 0.984 . S
H3431 N3425 0.985 . S
H3432 N3429 0.984 . S
H3433 N3429 0.985 . S
H3434 N3428 0.984 . S
H3435 N3428 0.984 . S
H3436 N3424 0.984 . S
H3437 N3424 0.985 . S
C3438 C3439 1.363 . S
C3438 C3444 1.379 1_455 S
C3438 N3446 1.356 . S
C3439 C3438 1.363 . S
C3439 C3445 1.363 . S
C3440 C3441 1.363 . S
C3440 C3445 1.379 1_655 S
C3440 N3447 1.356 . S
C3441 C3440 1.363 . S
C3441 C3444 1.363 . S
N3442 C3444 1.356 . S
N3442 H3454 0.984 . S
N3442 H3455 0.985 . S
N3443 C3445 1.356 . S
N3443 H3448 0.984 . S
N3443 H3449 0.985 . S
C3444 C3438 1.379 1_655 S
C3444 C3441 1.363 . S
C3444 N3442 1.356 . S
C3445 C3439 1.363 . S
C3445 C3440 1.379 1_455 S
C3445 N3443 1.356 . S
N3446 C3438 1.356 . S
N3446 H3452 0.984 . S
N3446 H3453 0.984 . S
N3447 C3440 1.356 . S
N3447 H3450 0.984 . S
N3447 H3451 0.985 . S
H3448 N3443 0.984 . S
H3449 N3443 0.985 . S
H3450 N3447 0.984 . S
H3451 N3447 0.985 . S
H3452 N3446 0.984 . S
H3453 N3446 0.984 . S
H3454 N3442 0.984 . S
H3455 N3442 0.985 . S
C3456 C3457 1.363 . S
C3456 C3462 1.379 1_545 S
C3456 N3464 1.356 . S
C3457 C3456 1.363 . S
C3457 C3463 1.363 . S
C3458 C3459 1.363 . S
C3458 C3463 1.379 1_565 S
C3458 N3465 1.356 . S
C3459 C3458 1.363 . S
C3459 C3462 1.363 . S
N3460 C3462 1.356 . S
N3460 H3472 0.984 . S
N3460 H3473 0.985 . S
N3461 C3463 1.356 . S
N3461 H3466 0.984 . S
N3461 H3467 0.985 . S
C3462 C3456 1.379 1_565 S
C3462 C3459 1.363 . S
C3462 N3460 1.356 . S
C3463 C3457 1.363 . S
C3463 C3458 1.379 1_545 S
C3463 N3461 1.356 . S
N3464 C3456 1.356 . S
N3464 H3470 0.984 . S
N3464 H3471 0.984 . S
N3465 C3458 1.356 . S
N3465 H3468 0.984 . S
N3465 H3469 0.985 . S
H3466 N3461 0.984 . S
H3467 N3461 0.985 . S
H3468 N3465 0.984 . S
H3469 N3465 0.985 . S
H3470 N3464 0.984 . S
H3471 N3464 0.984 . S
H3472 N3460 0.984 . S
H3473 N3460 0.985 . S
C3474 C3475 1.363 . S
C3474 C3480 1.379 1_545 S
C3474 N3482 1.356 . S
C3475 C3474 1.363 . S
C3475 C3481 1.363 . S
C3476 C3477 1.363 . S
C3476 C3481 1.379 1_565 S
C3476 N3483 1.356 . S
C3477 C3476 1.363 . S
C3477 C3480 1.363 . S
N3478 C3480 1.356 . S
N3478 H3490 0.984 . S
N3478 H3491 0.985 . S
N3479 C3481 1.356 . S
N3479 H3484 0.984 . S
N3479 H3485 0.985 . S
C3480 C3474 1.379 1_565 S
C3480 C3477 1.363 . S
C3480 N3478 1.356 . S
C3481 C3475 1.363 . S
C3481 C3476 1.379 1_545 S
C3481 N3479 1.356 . S
N3482 C3474 1.356 . S
N3482 H3488 0.984 . S
N3482 H3489 0.984 . S
N3483 C3476 1.356 . S
N3483 H3486 0.984 . S
N3483 H3487 0.985 . S
H3484 N3479 0.984 . S
H3485 N3479 0.985 . S
H3486 N3483 0.984 . S
H3487 N3483 0.985 . S
H3488 N3482 0.984 . S
H3489 N3482 0.984 . S
H3490 N3478 0.984 . S
H3491 N3478 0.985 . S
C3492 C3493 1.363 . S
C3492 C3498 1.379 . S
C3492 N3500 1.356 . S
C3493 C3492 1.363 . S
C3493 C3499 1.363 . S
C3494 C3495 1.363 . S
C3494 C3499 1.379 . S
C3494 N3501 1.356 . S
C3495 C3494 1.363 . S
C3495 C3498 1.363 . S
N3496 C3498 1.356 . S
N3496 H3508 0.984 . S
N3496 H3509 0.985 . S
N3497 C3499 1.356 . S
N3497 H3502 0.984 . S
N3497 H3503 0.985 . S
C3498 C3492 1.379 . S
C3498 C3495 1.363 . S
C3498 N3496 1.356 . S
C3499 C3493 1.363 . S
C3499 C3494 1.379 . S
C3499 N3497 1.356 . S
N3500 C3492 1.356 . S
N3500 H3506 0.984 . S
N3500 H3507 0.984 . S
N3501 C3494 1.356 . S
N3501 H3504 0.984 . S
N3501 H3505 0.985 . S
H3502 N3497 0.984 . S
H3503 N3497 0.985 . S
H3504 N3501 0.984 . S
H3505 N3501 0.985 . S
H3506 N3500 0.984 . S
H3507 N3500 0.984 . S
H3508 N3496 0.984 . S
H3509 N3496 0.985 . S
C3510 C3511 1.363 . S
C3510 C3516 1.379 1_545 S
C3510 N3518 1.356 . S
C3511 C3510 1.363 . S
C3511 C3517 1.363 . S
C3512 C3513 1.363 . S
C3512 C3517 1.379 1_565 S
C3512 N3519 1.356 . S
C3513 C3512 1.363 . S
C3513 C3516 1.363 . S
N3514 C3516 1.356 . S
N3514 H3526 0.984 . S
N3514 H3527 0.985 . S
N3515 C3517 1.356 . S
N3515 H3520 0.984 . S
N3515 H3521 0.985 . S
C3516 C3510 1.379 1_565 S
C3516 C3513 1.363 . S
C3516 N3514 1.356 . S
C3517 C3511 1.363 . S
C3517 C3512 1.379 1_545 S
C3517 N3515 1.356 . S
N3518 C3510 1.356 . S
N3518 H3524 0.984 . S
N3518 H3525 0.984 . S
N3519 C3512 1.356 . S
N3519 H3522 0.984 . S
N3519 H3523 0.985 . S
H3520 N3515 0.984 . S
H3521 N3515 0.985 . S
H3522 N3519 0.984 . S
H3523 N3519 0.985 . S
H3524 N3518 0.984 . S
H3525 N3518 0.984 . S
H3526 N3514 0.984 . S
H3527 N3514 0.985 . S
C3528 C3529 1.363 . S
C3528 C3534 1.379 1_556 S
C3528 N3536 1.356 . S
C3529 C3528 1.363 . S
C3529 C3535 1.363 . S
C3530 C3531 1.363 . S
C3530 C3535 1.379 1_554 S
C3530 N3537 1.356 . S
C3531 C3530 1.363 . S
C3531 C3534 1.363 . S
N3532 C3534 1.356 . S
N3532 H3544 0.984 . S
N3532 H3545 0.985 . S
N3533 C3535 1.356 . S
N3533 H3538 0.984 . S
N3533 H3539 0.985 . S
C3534 C3528 1.379 1_554 S
C3534 C3531 1.363 . S
C3534 N3532 1.356 . S
C3535 C3529 1.363 . S
C3535 C3530 1.379 1_556 S
C3535 N3533 1.356 . S
N3536 C3528 1.356 . S
N3536 H3542 0.984 . S
N3536 H3543 0.984 . S
N3537 C3530 1.356 . S
N3537 H3540 0.984 . S
N3537 H3541 0.985 . S
H3538 N3533 0.984 . S
H3539 N3533 0.985 . S
H3540 N3537 0.984 . S
H3541 N3537 0.985 . S
H3542 N3536 0.984 . S
H3543 N3536 0.984 . S
H3544 N3532 0.984 . S
H3545 N3532 0.985 . S
C3546 C3547 1.363 . S
C3546 C3552 1.379 1_554 S
C3546 N3554 1.356 . S
C3547 C3546 1.363 . S
C3547 C3553 1.363 . S
C3548 C3549 1.363 . S
C3548 C3553 1.379 1_556 S
C3548 N3555 1.356 . S
C3549 C3548 1.363 . S
C3549 C3552 1.363 . S
N3550 C3552 1.356 . S
N3550 H3562 0.984 . S
N3550 H3563 0.985 . S
N3551 C3553 1.356 . S
N3551 H3556 0.984 . S
N3551 H3557 0.985 . S
C3552 C3546 1.379 1_556 S
C3552 C3549 1.363 . S
C3552 N3550 1.356 . S
C3553 C3547 1.363 . S
C3553 C3548 1.379 1_554 S
C3553 N3551 1.356 . S
N3554 C3546 1.356 . S
N3554 H3560 0.984 . S
N3554 H3561 0.984 . S
N3555 C3548 1.356 . S
N3555 H3558 0.984 . S
N3555 H3559 0.985 . S
H3556 N3551 0.984 . S
H3557 N3551 0.985 . S
H3558 N3555 0.984 . S
H3559 N3555 0.985 . S
H3560 N3554 0.984 . S
H3561 N3554 0.984 . S
H3562 N3550 0.984 . S
H3563 N3550 0.985 . S
C3564 C3565 1.363 . S
C3564 C3570 1.379 . S
C3564 N3572 1.356 . S
C3565 C3564 1.363 . S
C3565 C3571 1.363 . S
C3566 C3567 1.363 . S
C3566 C3571 1.379 . S
C3566 N3573 1.356 . S
C3567 C3566 1.363 . S
C3567 C3570 1.363 . S
N3568 C3570 1.356 . S
N3568 H3580 0.984 . S
N3568 H3581 0.985 . S
N3569 C3571 1.356 . S
N3569 H3574 0.984 . S
N3569 H3575 0.985 . S
C3570 C3564 1.379 . S
C3570 C3567 1.363 . S
C3570 N3568 1.356 . S
C3571 C3565 1.363 . S
C3571 C3566 1.379 . S
C3571 N3569 1.356 . S
N3572 C3564 1.356 . S
N3572 H3578 0.984 . S
N3572 H3579 0.984 . S
N3573 C3566 1.356 . S
N3573 H3576 0.984 . S
N3573 H3577 0.985 . S
H3574 N3569 0.984 . S
H3575 N3569 0.985 . S
H3576 N3573 0.984 . S
H3577 N3573 0.985 . S
H3578 N3572 0.984 . S
H3579 N3572 0.984 . S
H3580 N3568 0.984 . S
H3581 N3568 0.985 . S
C3582 C3583 1.363 . S
C3582 C3588 1.379 . S
C3582 N3590 1.356 . S
C3583 C3582 1.363 . S
C3583 C3589 1.363 . S
C3584 C3585 1.363 . S
C3584 C3589 1.379 . S
C3584 N3591 1.356 . S
C3585 C3584 1.363 . S
C3585 C3588 1.363 . S
N3586 C3588 1.356 . S
N3586 H3598 0.984 . S
N3586 H3599 0.985 . S
N3587 C3589 1.356 . S
N3587 H3592 0.984 . S
N3587 H3593 0.985 . S
C3588 C3582 1.379 . S
C3588 C3585 1.363 . S
C3588 N3586 1.356 . S
C3589 C3583 1.363 . S
C3589 C3584 1.379 . S
C3589 N3587 1.356 . S
N3590 C3582 1.356 . S
N3590 H3596 0.984 . S
N3590 H3597 0.984 . S
N3591 C3584 1.356 . S
N3591 H3594 0.984 . S
N3591 H3595 0.985 . S
H3592 N3587 0.984 . S
H3593 N3587 0.985 . S
H3594 N3591 0.984 . S
H3595 N3591 0.985 . S
H3596 N3590 0.984 . S
H3597 N3590 0.984 . S
H3598 N3586 0.984 . S
H3599 N3586 0.985 . S
C3600 C3601 1.363 . S
C3600 C3606 1.379 1_455 S
C3600 N3608 1.356 . S
C3601 C3600 1.363 . S
C3601 C3607 1.363 . S
C3602 C3603 1.363 . S
C3602 C3607 1.379 1_655 S
C3602 N3609 1.356 . S
C3603 C3602 1.363 . S
C3603 C3606 1.363 . S
N3604 C3606 1.356 . S
N3604 H3616 0.984 . S
N3604 H3617 0.985 . S
N3605 C3607 1.356 . S
N3605 H3610 0.984 . S
N3605 H3611 0.985 . S
C3606 C3600 1.379 1_655 S
C3606 C3603 1.363 . S
C3606 N3604 1.356 . S
C3607 C3601 1.363 . S
C3607 C3602 1.379 1_455 S
C3607 N3605 1.356 . S
N3608 C3600 1.356 . S
N3608 H3614 0.984 . S
N3608 H3615 0.984 . S
N3609 C3602 1.356 . S
N3609 H3612 0.984 . S
N3609 H3613 0.985 . S
H3610 N3605 0.984 . S
H3611 N3605 0.985 . S
H3612 N3609 0.984 . S
H3613 N3609 0.985 . S
H3614 N3608 0.984 . S
H3615 N3608 0.984 . S
H3616 N3604 0.984 . S
H3617 N3604 0.985 . S
C3618 C3619 1.363 . S
C3618 C3624 1.379 1_455 S
C3618 N3626 1.356 . S
C3619 C3618 1.363 . S
C3619 C3625 1.363 . S
C3620 C3621 1.363 . S
C3620 C3625 1.379 1_655 S
C3620 N3627 1.356 . S
C3621 C3620 1.363 . S
C3621 C3624 1.363 . S
N3622 C3624 1.356 . S
N3622 H3634 0.984 . S
N3622 H3635 0.985 . S
N3623 C3625 1.356 . S
N3623 H3628 0.984 . S
N3623 H3629 0.985 . S
C3624 C3618 1.379 1_655 S
C3624 C3621 1.363 . S
C3624 N3622 1.356 . S
C3625 C3619 1.363 . S
C3625 C3620 1.379 1_455 S
C3625 N3623 1.356 . S
N3626 C3618 1.356 . S
N3626 H3632 0.984 . S
N3626 H3633 0.984 . S
N3627 C3620 1.356 . S
N3627 H3630 0.984 . S
N3627 H3631 0.985 . S
H3628 N3623 0.984 . S
H3629 N3623 0.985 . S
H3630 N3627 0.984 . S
H3631 N3627 0.985 . S
H3632 N3626 0.984 . S
H3633 N3626 0.984 . S
H3634 N3622 0.984 . S
H3635 N3622 0.985 . S
C3636 C3637 1.363 . S
C3636 C3642 1.379 1_655 S
C3636 N3644 1.356 . S
C3637 C3636 1.363 . S
C3637 C3643 1.363 . S
C3638 C3639 1.363 . S
C3638 C3643 1.379 1_455 S
C3638 N3645 1.356 . S
C3639 C3638 1.363 . S
C3639 C3642 1.363 . S
N3640 C3642 1.356 . S
N3640 H3652 0.984 . S
N3640 H3653 0.985 . S
N3641 C3643 1.356 . S
N3641 H3646 0.984 . S
N3641 H3647 0.985 . S
C3642 C3636 1.379 1_455 S
C3642 C3639 1.363 . S
C3642 N3640 1.356 . S
C3643 C3637 1.363 . S
C3643 C3638 1.379 1_655 S
C3643 N3641 1.356 . S
N3644 C3636 1.356 . S
N3644 H3650 0.984 . S
N3644 H3651 0.984 . S
N3645 C3638 1.356 . S
N3645 H3648 0.984 . S
N3645 H3649 0.985 . S
H3646 N3641 0.984 . S
H3647 N3641 0.985 . S
H3648 N3645 0.984 . S
H3649 N3645 0.985 . S
H3650 N3644 0.984 . S
H3651 N3644 0.984 . S
H3652 N3640 0.984 . S
H3653 N3640 0.985 . S
C3654 C3655 1.363 . S
C3654 C3660 1.379 1_455 S
C3654 N3662 1.356 . S
C3655 C3654 1.363 . S
C3655 C3661 1.363 . S
C3656 C3657 1.363 . S
C3656 C3661 1.379 1_655 S
C3656 N3663 1.356 . S
C3657 C3656 1.363 . S
C3657 C3660 1.363 . S
N3658 C3660 1.356 . S
N3658 H3670 0.984 . S
N3658 H3671 0.985 . S
N3659 C3661 1.356 . S
N3659 H3664 0.984 . S
N3659 H3665 0.985 . S
C3660 C3654 1.379 1_655 S
C3660 C3657 1.363 . S
C3660 N3658 1.356 . S
C3661 C3655 1.363 . S
C3661 C3656 1.379 1_455 S
C3661 N3659 1.356 . S
N3662 C3654 1.356 . S
N3662 H3668 0.984 . S
N3662 H3669 0.984 . S
N3663 C3656 1.356 . S
N3663 H3666 0.984 . S
N3663 H3667 0.985 . S
H3664 N3659 0.984 . S
H3665 N3659 0.985 . S
H3666 N3663 0.984 . S
H3667 N3663 0.985 . S
H3668 N3662 0.984 . S
H3669 N3662 0.984 . S
H3670 N3658 0.984 . S
H3671 N3658 0.985 . S
C3672 C3673 1.363 . S
C3672 C3678 1.379 1_545 S
C3672 N3680 1.356 . S
C3673 C3672 1.363 . S
C3673 C3679 1.363 . S
C3674 C3675 1.363 . S
C3674 C3679 1.379 1_565 S
C3674 N3681 1.356 . S
C3675 C3674 1.363 . S
C3675 C3678 1.363 . S
N3676 C3678 1.356 . S
N3676 H3688 0.984 . S
N3676 H3689 0.985 . S
N3677 C3679 1.356 . S
N3677 H3682 0.984 . S
N3677 H3683 0.985 . S
C3678 C3672 1.379 1_565 S
C3678 C3675 1.363 . S
C3678 N3676 1.356 . S
C3679 C3673 1.363 . S
C3679 C3674 1.379 1_545 S
C3679 N3677 1.356 . S
N3680 C3672 1.356 . S
N3680 H3686 0.984 . S
N3680 H3687 0.984 . S
N3681 C3674 1.356 . S
N3681 H3684 0.984 . S
N3681 H3685 0.985 . S
H3682 N3677 0.984 . S
H3683 N3677 0.985 . S
H3684 N3681 0.984 . S
H3685 N3681 0.985 . S
H3686 N3680 0.984 . S
H3687 N3680 0.984 . S
H3688 N3676 0.984 . S
H3689 N3676 0.985 . S
C3690 C3691 1.363 . S
C3690 C3696 1.379 1_545 S
C3690 N3698 1.356 . S
C3691 C3690 1.363 . S
C3691 C3697 1.363 . S
C3692 C3693 1.363 . S
C3692 C3697 1.379 1_565 S
C3692 N3699 1.356 . S
C3693 C3692 1.363 . S
C3693 C3696 1.363 . S
N3694 C3696 1.356 . S
N3694 H3706 0.984 . S
N3694 H3707 0.985 . S
N3695 C3697 1.356 . S
N3695 H3700 0.984 . S
N3695 H3701 0.985 . S
C3696 C3690 1.379 1_565 S
C3696 C3693 1.363 . S
C3696 N3694 1.356 . S
C3697 C3691 1.363 . S
C3697 C3692 1.379 1_545 S
C3697 N3695 1.356 . S
N3698 C3690 1.356 . S
N3698 H3704 0.984 . S
N3698 H3705 0.984 . S
N3699 C3692 1.356 . S
N3699 H3702 0.984 . S
N3699 H3703 0.985 . S
H3700 N3695 0.984 . S
H3701 N3695 0.985 . S
H3702 N3699 0.984 . S
H3703 N3699 0.985 . S
H3704 N3698 0.984 . S
H3705 N3698 0.984 . S
H3706 N3694 0.984 . S
H3707 N3694 0.985 . S
C3708 C3709 1.363 . S
C3708 C3714 1.379 . S
C3708 N3716 1.356 . S
C3709 C3708 1.363 . S
C3709 C3715 1.363 . S
C3710 C3711 1.363 . S
C3710 C3715 1.379 . S
C3710 N3717 1.356 . S
C3711 C3710 1.363 . S
C3711 C3714 1.363 . S
N3712 C3714 1.356 . S
N3712 H3724 0.984 . S
N3712 H3725 0.985 . S
N3713 C3715 1.356 . S
N3713 H3718 0.984 . S
N3713 H3719 0.985 . S
C3714 C3708 1.379 . S
C3714 C3711 1.363 . S
C3714 N3712 1.356 . S
C3715 C3709 1.363 . S
C3715 C3710 1.379 . S
C3715 N3713 1.356 . S
N3716 C3708 1.356 . S
N3716 H3722 0.984 . S
N3716 H3723 0.984 . S
N3717 C3710 1.356 . S
N3717 H3720 0.984 . S
N3717 H3721 0.985 . S
H3718 N3713 0.984 . S
H3719 N3713 0.985 . S
H3720 N3717 0.984 . S
H3721 N3717 0.985 . S
H3722 N3716 0.984 . S
H3723 N3716 0.984 . S
H3724 N3712 0.984 . S
H3725 N3712 0.985 . S
C3726 C3727 1.363 . S
C3726 C3732 1.379 1_565 S
C3726 N3734 1.356 . S
C3727 C3726 1.363 . S
C3727 C3733 1.363 . S
C3728 C3729 1.363 . S
C3728 C3733 1.379 1_545 S
C3728 N3735 1.356 . S
C3729 C3728 1.363 . S
C3729 C3732 1.363 . S
N3730 C3732 1.356 . S
N3730 H3742 0.984 . S
N3730 H3743 0.985 . S
N3731 C3733 1.356 . S
N3731 H3736 0.984 . S
N3731 H3737 0.985 . S
C3732 C3726 1.379 1_545 S
C3732 C3729 1.363 . S
C3732 N3730 1.356 . S
C3733 C3727 1.363 . S
C3733 C3728 1.379 1_565 S
C3733 N3731 1.356 . S
N3734 C3726 1.356 . S
N3734 H3740 0.984 . S
N3734 H3741 0.984 . S
N3735 C3728 1.356 . S
N3735 H3738 0.984 . S
N3735 H3739 0.985 . S
H3736 N3731 0.984 . S
H3737 N3731 0.985 . S
H3738 N3735 0.984 . S
H3739 N3735 0.985 . S
H3740 N3734 0.984 . S
H3741 N3734 0.984 . S
H3742 N3730 0.984 . S
H3743 N3730 0.985 . S
C1585 N1333 1.452 . S
C1587 C7 1.474 . S
C1603 N1366 1.452 . S
C1605 C40 1.474 . S
C1621 N1399 1.452 . S
C1623 C73 1.474 . S
C1639 C106 1.474 . S
C1641 N1432 1.452 . S
C1657 C139 1.474 . S
C1659 N1465 1.452 . S
C1675 C172 1.474 . S
C1677 N772 1.452 . S
C1693 C205 1.474 . S
C1695 N1498 1.452 . S
C1711 C238 1.474 . S
C1713 N1531 1.452 . S
C1729 C271 1.474 . S
C1731 N1201 1.452 . S
C1747 C304 1.474 . S
C1749 N1267 1.452 . S
C1765 C337 1.474 . S
C1767 N1300 1.452 . S
C1783 N442 1.452 . S
C1785 C370 1.474 . S
C1801 C403 1.474 . S
C1803 N937 1.452 . S
C1819 C436 1.474 . S
C1821 N970 1.452 . S
C1837 N1003 1.452 . S
C1839 C469 1.474 . S
C1855 N1036 1.452 . S
C1857 C502 1.474 . S
C1873 C535 1.474 . S
C1875 N1069 1.452 . S
C1891 N376 1.452 . S
C1893 C568 1.474 . S
C1909 N1102 1.452 . S
C1911 C601 1.474 . S
C1927 N1135 1.452 . S
C1929 C634 1.474 . S
C1945 C667 1.474 . S
C1947 N805 1.452 . S
C1963 C700 1.474 . S
C1965 N871 1.452 . S
C1981 N904 1.452 . S
C1983 C733 1.474 . S
C1999 C766 1.474 . S
C2001 N46 1.452 . S
C2017 C799 1.474 . S
C2019 N541 1.452 . S
C2035 N574 1.452 . S
C2037 C832 1.474 . S
C2053 N607 1.452 . S
C2055 C865 1.474 . S
C2071 C898 1.474 . S
C2073 N640 1.452 . S
C2089 C931 1.474 . S
C2091 N673 1.452 . S
C2107 N1564 1.452 . S
C2109 C964 1.474 . S
C2125 C997 1.474 . S
C2127 N706 1.452 . S
C2143 C1030 1.474 . S
C2145 N739 1.452 . S
C2161 C1063 1.474 . S
C2163 N409 1.452 . S
C2179 N475 1.452 . S
C2181 C1096 1.474 . S
C2197 C1129 1.474 . S
C2199 N508 1.452 . S
C2215 C1162 1.474 . S
C2217 N1234 1.452 . S
C2233 C1195 1.474 . S
C2235 N145 1.452 . S
C2251 C1228 1.474 . S
C2253 N178 1.452 . S
C2269 C1261 1.474 . S
C2271 N211 1.452 . S
C2287 C1294 1.474 . S
C2289 N244 1.452 . S
C2305 N277 1.452 . S
C2307 C1327 1.474 . S
C2323 C1360 1.474 . S
C2325 N1168 1.452 . S
C2341 C1393 1.474 . S
C2343 N310 1.452 . S
C2359 N343 1.452 . S
C2361 C1426 1.474 . S
C2377 N13 1.452 . S
C2379 C1459 1.474 . S
C2395 C1492 1.474 . S
C2397 N79 1.452 . S
C2413 C1525 1.474 . S
C2415 N112 1.452 . S
C2431 N838 1.452 . S
C2433 C1558 1.474 . S
C2449 N2 0.588 . S
C2451 N35 0.588 . S
C2467 N101 0.588 . S
C2469 N68 0.588 . S
C2485 N134 0.588 . S
C2487 N200 0.588 . S
C2503 N233 0.588 . S
C2505 N167 0.588 . S
C2521 N1124 0.588 . S
C2523 N266 0.588 . S
C2539 N299 0.588 . S
C2541 N365 0.588 . S
C2557 N332 0.588 . S
C2559 N1058 0.588 . S
C2575 N398 0.588 . S
C2577 N431 0.588 . S
C2593 N464 0.588 . S
C2595 N497 0.588 . S
C2611 N596 0.588 . S
C2613 N530 0.588 . S
C2629 N563 0.588 . S
C2631 N629 0.588 . S
C2647 N662 0.588 . S
C2649 N1520 0.588 . S
C2665 N761 0.588 . S
C2667 N695 0.588 . S
C2683 N1454 0.588 . S
C2685 N728 0.588 . S
C2701 N827 0.588 . S
C2703 N794 0.588 . S
C2719 N893 0.588 . S
C2721 N860 0.588 . S
C2737 N992 0.588 . S
C2739 N926 0.588 . S
C2755 N1025 0.588 . S
C2757 N959 0.588 . S
C2773 N1157 0.588 . S
C2775 N1091 0.588 . S
C2791 N1223 0.588 . S
C2793 N1190 0.588 . S
C2809 N1289 0.588 . S
C2811 N1256 0.588 . S
C2827 N1388 0.588 . S
C2829 N1322 0.588 . S
C2845 N1421 0.588 . S
C2847 N1355 0.588 . S
C2863 N1553 0.588 . S
C2865 N1487 0.588 . S
C2881 C18 1.325 . S
C2883 C747 1.238 . S
C2899 C51 1.325 . S
C2901 C714 1.238 . S
C2917 C1572 1.238 . S
C2919 C84 1.325 . S
C2935 C681 1.238 . S
C2937 C117 1.325 . S
C2953 C150 1.325 . S
C2955 C1242 1.238 . S
C2971 C1209 1.238 . S
C2973 C183 1.325 . S
C2989 C1308 1.238 . S
C2991 C216 1.325 . S
C3007 C249 1.325 . S
C3009 C1275 1.238 . S
C3025 C1407 1.238 . S
C3027 C282 1.325 . S
C3043 C1341 1.238 . S
C3045 C315 1.325 . S
C3061 C348 1.325 . S
C3063 C1374 1.238 . S
C3079 C648 1.238 . S
C3081 C381 1.325 . S
C3097 C351 1.238 . S
C3099 C414 1.325 . S
C3115 C318 1.238 . S
C3117 C447 1.325 . S
C3133 C480 1.325 . S
C3135 C1176 1.238 . S
C3151 C513 1.325 . S
C3153 C285 1.238 . S
C3169 C846 1.238 . S
C3171 C546 1.325 . S
C3187 C813 1.238 . S
C3189 C579 1.325 . S
C3205 C612 1.325 . S
C3207 C912 1.238 . S
C3223 C645 1.325 . S
C3225 C879 1.238 . S
C3241 C1011 1.238 . S
C3243 C678 1.325 . S
C3259 C711 1.325 . S
C3261 C945 1.238 . S
C3277 C978 1.238 . S
C3279 C744 1.325 . S
C3295 C252 1.238 . S
C3297 C777 1.325 . S
C3313 C810 1.325 . S
C3315 C1539 1.238 . S
C3331 C1506 1.238 . S
C3333 C843 1.325 . S
C3349 C876 1.325 . S
C3351 C780 1.238 . S
C3367 C909 1.325 . S
C3369 C1473 1.238 . S
C3385 C942 1.325 . S
C3387 C450 1.238 . S
C3403 C417 1.238 . S
C3405 C975 1.325 . S
C3421 C1008 1.325 . S
C3423 C516 1.238 . S
C3439 C1041 1.325 . S
C3441 C483 1.238 . S
C3457 C615 1.238 . S
C3459 C1074 1.325 . S
C3475 C1107 1.325 . S
C3477 C549 1.238 . S
C3493 C1140 1.325 . S
C3495 C582 1.238 . S
C3511 C1173 1.325 . S
C3513 C1440 1.238 . S
C3529 C1143 1.238 . S
C3531 C1206 1.325 . S
C3547 C1239 1.325 . S
C3549 C1110 1.238 . S
C3565 C1272 1.325 . S
C3567 C384 1.238 . S
C3583 C1305 1.325 . S
C3585 C1077 1.238 . S
C3601 C1338 1.325 . S
C3603 C54 1.238 . S
C3619 C21 1.238 . S
C3621 C1371 1.325 . S
C3637 C120 1.238 . S
C3639 C1404 1.325 . S
C3655 C87 1.238 . S
C3657 C1437 1.325 . S
C3673 C1470 1.325 . S
C3675 C219 1.238 . S
C3691 C153 1.238 . S
C3693 C1503 1.325 . S
C3709 C186 1.238 . S
C3711 C1536 1.325 . S
C3727 C1569 1.325 . S
C3729 C1044 1.238 . S
