# Generated by pormake.
# Topology fnr, (5)-cn, num edge types: 1
# Building blocks:
#     Node 0, Type 0, BuildingBlock: XOMCOT_clean_sbu_1, # of connection points: 5
#     Node 1, Type 0, BuildingBlock: XOMCOT_clean_sbu_1, # of connection points: 5
#     Node 2, Type 0, BuildingBlock: XOMCOT_clean_sbu_1, # of connection points: 5
#     Node 3, Type 0, BuildingBlock: XOMCOT_clean_sbu_1, # of connection points: 5
#     Node 4, Type 0, BuildingBlock: XOMCOT_clean_sbu_1, # of connection points: 5
#     Node 5, Type 0, BuildingBlock: XOMCOT_clean_sbu_1, # of connection points: 5
#     Node 6, Type 0, BuildingBlock: XOMCOT_clean_sbu_1, # of connection points: 5
#     Node 7, Type 0, BuildingBlock: XOMCOT_clean_sbu_1, # of connection points: 5
#     Node 8, Type 0, BuildingBlock: XOMCOT_clean_sbu_1, # of connection points: 5
#     Node 9, Type 0, BuildingBlock: XOMCOT_clean_sbu_1, # of connection points: 5
#     Node 10, Type 0, BuildingBlock: XOMCOT_clean_sbu_1, # of connection points: 5
#     Node 11, Type 0, BuildingBlock: XOMCOT_clean_sbu_1, # of connection points: 5
#     Edge 12, Type (0, 0), BuildingBlock: XUDNAN_clean_linker_2, # of connection points: 2
#     Edge 13, Type (0, 0), BuildingBlock: XUDNAN_clean_linker_2, # of connection points: 2
#     Edge 14, Type (0, 0), BuildingBlock: XUDNAN_clean_linker_2, # of connection points: 2
#     Edge 15, Type (0, 0), BuildingBlock: XUDNAN_clean_linker_2, # of connection points: 2
#     Edge 16, Type (0, 0), BuildingBlock: XUDNAN_clean_linker_2, # of connection points: 2
#     Edge 17, Type (0, 0), BuildingBlock: XUDNAN_clean_linker_2, # of connection points: 2
#     Edge 18, Type (0, 0), BuildingBlock: XUDNAN_clean_linker_2, # of connection points: 2
#     Edge 19, Type (0, 0), BuildingBlock: XUDNAN_clean_linker_2, # of connection points: 2
#     Edge 20, Type (0, 0), BuildingBlock: XUDNAN_clean_linker_2, # of connection points: 2
#     Edge 21, Type (0, 0), BuildingBlock: XUDNAN_clean_linker_2, # of connection points: 2
#     Edge 22, Type (0, 0), BuildingBlock: XUDNAN_clean_linker_2, # of connection points: 2
#     Edge 23, Type (0, 0), BuildingBlock: XUDNAN_clean_linker_2, # of connection points: 2
#     Edge 24, Type (0, 0), BuildingBlock: XUDNAN_clean_linker_2, # of connection points: 2
#     Edge 25, Type (0, 0), BuildingBlock: XUDNAN_clean_linker_2, # of connection points: 2
#     Edge 26, Type (0, 0), BuildingBlock: XUDNAN_clean_linker_2, # of connection points: 2
#     Edge 27, Type (0, 0), BuildingBlock: XUDNAN_clean_linker_2, # of connection points: 2
#     Edge 28, Type (0, 0), BuildingBlock: XUDNAN_clean_linker_2, # of connection points: 2
#     Edge 29, Type (0, 0), BuildingBlock: XUDNAN_clean_linker_2, # of connection points: 2
#     Edge 30, Type (0, 0), BuildingBlock: XUDNAN_clean_linker_2, # of connection points: 2
#     Edge 31, Type (0, 0), BuildingBlock: XUDNAN_clean_linker_2, # of connection points: 2
#     Edge 32, Type (0, 0), BuildingBlock: XUDNAN_clean_linker_2, # of connection points: 2
#     Edge 33, Type (0, 0), BuildingBlock: XUDNAN_clean_linker_2, # of connection points: 2
#     Edge 34, Type (0, 0), BuildingBlock: XUDNAN_clean_linker_2, # of connection points: 2
#     Edge 35, Type (0, 0), BuildingBlock: XUDNAN_clean_linker_2, # of connection points: 2
#     Edge 36, Type (0, 0), BuildingBlock: XUDNAN_clean_linker_2, # of connection points: 2
#     Edge 37, Type (0, 0), BuildingBlock: XUDNAN_clean_linker_2, # of connection points: 2
#     Edge 38, Type (0, 0), BuildingBlock: XUDNAN_clean_linker_2, # of connection points: 2
#     Edge 39, Type (0, 0), BuildingBlock: XUDNAN_clean_linker_2, # of connection points: 2
#     Edge 40, Type (0, 0), BuildingBlock: XUDNAN_clean_linker_2, # of connection points: 2
#     Edge 41, Type (0, 0), BuildingBlock: XUDNAN_clean_linker_2, # of connection points: 2
# Relax obj value: 0.273
# Max RMSD: 0.193
# Mean RMSD: 0.190
data_MOF--net-fnr--node1-XOMCOT_clean_sbu_1--edge1-XUDNAN_clean_linker_2
_symmetry_space_group_name_H-M    P1
_symmetry_Int_Tables_number       1
_symmetry_cell_setting            triclinic
loop_
_symmetry_equiv_pos_as_xyz
'x, y, z'
_cell_length_a     40.671792
_cell_length_b     40.660626
_cell_length_c     50.924804
_cell_angle_alpha  90.057751
_cell_angle_beta   90.033339
_cell_angle_gamma 120.04602
loop_
_atom_site_label
_atom_site_type_symbol
_atom_site_fract_x
_atom_site_fract_y
_atom_site_fract_z
_atom_type_partial_charge
C0 C 0.39105 0.2353 0.09378 0.0
C1 C 0.37247 0.25315 0.08366 0.0
N2 N 0.37123 0.24949 0.05734 0.0
N3 N 0.4011 0.22016 0.07388 0.0
C4 C 0.38829 0.22905 0.05205 0.0
H5 H 0.39862 0.2353 0.11414 0.0
Co6 Co 0.43263 0.19845 0.07367 0.0
C7 C 0.39764 0.1435 0.03124 0.0
O8 O 0.42897 0.16352 0.0177 0.0
N9 N 0.46368 0.17593 0.07239 0.0
C10 C 0.48071 0.1317 0.07141 0.0
C11 C 0.45251 0.1394 0.07821 0.0
C12 C 0.49894 0.18979 0.0622 0.0
N13 N 0.50988 0.16344 0.06117 0.0
O14 O 0.45861 0.22893 0.04349 0.0
H15 H 0.42492 0.11912 0.08597 0.0
H16 H 0.51566 0.21805 0.05435 0.0
O17 O 0.39436 0.15532 0.05376 0.0
C18 C 0.48226 0.26002 0.05478 0.0
O19 O 0.4811 0.26201 0.08051 0.0
N20 N 0.41204 0.17425 0.10547 0.0
C21 C 0.3919 0.15803 0.15818 0.0
C22 C 0.36405 0.14249 0.13829 0.0
C23 C 0.3748 0.15089 0.11181 0.0
C24 C 0.4393 0.18851 0.12444 0.0
C25 C 0.42999 0.18045 0.15077 0.0
H26 H 0.35323 0.14072 0.09668 0.0
H27 H 0.46851 0.208 0.11915 0.0
H28 H 0.39334 0.22247 0.03238 0.0
H29 H 0.36324 0.26993 0.09459 0.0
H30 H 0.47955 0.10467 0.07358 0.0
H31 H 0.33427 0.12524 0.14322 0.0
H32 H 0.45236 0.19393 0.16528 0.0
C33 C 0.18297 0.37562 0.60807 0.0
C34 C 0.14627 0.35041 0.6008 0.0
N35 N 0.14465 0.34873 0.57445 0.0
N36 N 0.20506 0.38911 0.58645 0.0
C37 C 0.18042 0.37292 0.56616 0.0
H38 H 0.19255 0.38419 0.62801 0.0
Co39 Co 0.25747 0.42683 0.58615 0.0
C40 C 0.2597 0.36217 0.55575 0.0
O41 O 0.2239 0.33607 0.55876 0.0
N42 N 0.30947 0.46419 0.58539 0.0
C43 C 0.37212 0.48852 0.58353 0.0
C44 C 0.33827 0.45793 0.59131 0.0
C45 C 0.32681 0.49933 0.57456 0.0
N46 N 0.3648 0.5144 0.57282 0.0
O47 O 0.24858 0.45047 0.55617 0.0
H48 H 0.33475 0.43176 0.59938 0.0
H49 H 0.31191 0.51282 0.56664 0.0
O50 O 0.27195 0.39554 0.56504 0.0
C51 C 0.23389 0.46854 0.56704 0.0
O52 O 0.22866 0.46545 0.5926 0.0
N53 N 0.26478 0.40754 0.61772 0.0
C54 C 0.25291 0.38363 0.6698 0.0
C55 C 0.24872 0.35826 0.64957 0.0
C56 C 0.25489 0.37087 0.6234 0.0
C57 C 0.27249 0.43316 0.63735 0.0
C58 C 0.26715 0.42193 0.66349 0.0
H59 H 0.24787 0.35034 0.60792 0.0
H60 H 0.27962 0.46191 0.63259 0.0
H61 H 0.18857 0.37862 0.54571 0.0
H62 H 0.12227 0.33537 0.61386 0.0
H63 H 0.39987 0.49107 0.58494 0.0
H64 H 0.23777 0.32843 0.65367 0.0
H65 H 0.27163 0.44264 0.67853 0.0
C66 C 0.79443 0.16518 0.093 0.0
C67 C 0.78398 0.12964 0.08325 0.0
N68 N 0.79503 0.13329 0.05794 0.0
N69 N 0.8123 0.19122 0.07401 0.0
C70 C 0.81231 0.17098 0.05297 0.0
H71 H 0.7879 0.17139 0.11232 0.0
Co72 Co 0.82602 0.24246 0.07426 0.0
C73 C 0.9068 0.28246 0.05775 0.0
O74 O 0.91417 0.30654 0.07705 0.0
N75 N 0.83916 0.29511 0.07378 0.0
C76 C 0.86044 0.35628 0.08313 0.0
C77 C 0.85846 0.32327 0.09153 0.0
C78 C 0.82968 0.31241 0.05479 0.0
N79 N 0.84214 0.3493 0.06007 0.0
O80 O 0.79624 0.2333 0.04309 0.0
H81 H 0.87131 0.32083 0.10942 0.0
H82 H 0.81403 0.29862 0.03717 0.0
O83 O 0.8727 0.25513 0.05422 0.0
C84 C 0.76379 0.22426 0.0527 0.0
O85 O 0.76026 0.22456 0.07832 0.0
N86 N 0.84942 0.24799 0.10693 0.0
C87 C 0.86475 0.24202 0.15956 0.0
C88 C 0.88534 0.23664 0.13949 0.0
C89 C 0.87696 0.2394 0.11313 0.0
C90 C 0.82865 0.25221 0.12625 0.0
C91 C 0.83641 0.2503 0.15258 0.0
H92 H 0.89095 0.23247 0.09788 0.0
H93 H 0.80512 0.25625 0.12107 0.0
H94 H 0.82256 0.18353 0.03385 0.0
H95 H 0.76846 0.10313 0.09383 0.0
H96 H 0.87353 0.38313 0.09353 0.0
H97 H 0.90674 0.22912 0.14412 0.0
H98 H 0.8188 0.25315 0.16733 0.0
C99 C 0.6464 0.79452 0.59889 0.0
C100 C 0.66847 0.781 0.58811 0.0
N101 N 0.67211 0.78886 0.56227 0.0
N102 N 0.63652 0.8112 0.57995 0.0
C103 C 0.65208 0.80656 0.5578 0.0
H104 H 0.63708 0.79116 0.61909 0.0
Co105 Co 0.6005 0.82732 0.58228 0.0
C106 C 0.66687 0.8966 0.55557 0.0
O107 O 0.69196 0.88551 0.55817 0.0
N108 N 0.56355 0.84282 0.58389 0.0
C109 C 0.53511 0.87711 0.58904 0.0
C110 C 0.56687 0.87457 0.59488 0.0
C111 C 0.52965 0.82697 0.57132 0.0
N112 N 0.51159 0.84705 0.57399 0.0
O113 O 0.57745 0.7994 0.55063 0.0
H114 H 0.59139 0.89532 0.60578 0.0
H115 H 0.51902 0.802 0.55933 0.0
O116 O 0.63286 0.8755 0.56377 0.0
C117 C 0.55625 0.76594 0.55976 0.0
O118 O 0.55581 0.76078 0.58526 0.0
N119 N 0.62007 0.8494 0.61522 0.0
C120 C 0.64395 0.85912 0.66751 0.0
C121 C 0.66969 0.87972 0.64739 0.0
C122 C 0.65712 0.87455 0.62126 0.0
C123 C 0.59448 0.83049 0.63467 0.0
C124 C 0.60568 0.83521 0.6609 0.0
H125 H 0.67781 0.88855 0.60604 0.0
H126 H 0.56555 0.80961 0.62963 0.0
H127 H 0.64785 0.81505 0.53853 0.0
H128 H 0.68074 0.76643 0.59842 0.0
H129 H 0.53036 0.89986 0.59514 0.0
H130 H 0.69951 0.89843 0.65168 0.0
H131 H 0.58493 0.81817 0.67565 0.0
C132 C 0.85039 0.6799 0.0579 0.0
C133 C 0.88766 0.69992 0.04973 0.0
N134 N 0.90238 0.67667 0.0507 0.0
N135 N 0.8415 0.64405 0.0638 0.0
C136 C 0.8739 0.64333 0.05985 0.0
H137 H 0.83072 0.69046 0.05844 0.0
Co138 Co 0.79448 0.60206 0.07198 0.0
C139 C 0.73698 0.62338 0.0555 0.0
O140 O 0.71244 0.60072 0.07306 0.0
N141 N 0.74734 0.55893 0.07995 0.0
C142 C 0.70245 0.50656 0.09922 0.0
C143 C 0.73513 0.54071 0.10316 0.0
C144 C 0.72128 0.53524 0.06226 0.0
N145 N 0.69393 0.5032 0.07348 0.0
O146 O 0.79634 0.57708 0.04042 0.0
H147 H 0.74983 0.5502 0.12167 0.0
H148 H 0.72356 0.5403 0.0413 0.0
O149 O 0.76946 0.62582 0.05361 0.0
C150 C 0.8087 0.55542 0.04814 0.0
O151 O 0.81688 0.55568 0.07312 0.0
N152 N 0.79541 0.62428 0.10433 0.0
C153 C 0.79516 0.6375 0.15814 0.0
C154 C 0.77906 0.65178 0.14014 0.0
C155 C 0.7796 0.64497 0.11313 0.0
C156 C 0.81468 0.61404 0.12114 0.0
C157 C 0.81418 0.61946 0.14799 0.0
H158 H 0.76672 0.65572 0.09977 0.0
H159 H 0.82797 0.59859 0.11378 0.0
H160 H 0.87617 0.61834 0.06302 0.0
H161 H 0.90194 0.72871 0.04233 0.0
H162 H 0.68701 0.48508 0.11395 0.0
H163 H 0.76542 0.66731 0.14679 0.0
H164 H 0.82675 0.60726 0.16053 0.0
C165 C 0.23357 0.85869 0.60012 0.0
C166 C 0.24522 0.8952 0.59209 0.0
N167 N 0.23543 0.89418 0.56669 0.0
N168 N 0.21623 0.83453 0.57996 0.0
C169 C 0.21776 0.857 0.55987 0.0
H170 H 0.23868 0.85043 0.6192 0.0
Co171 Co 0.20074 0.78238 0.57927 0.0
C172 C 0.14256 0.76553 0.53738 0.0
O173 O 0.16592 0.77033 0.51807 0.0
N174 N 0.18517 0.73025 0.57799 0.0
C175 C 0.1484 0.66744 0.57648 0.0
C176 C 0.14944 0.7012 0.58139 0.0
C177 C 0.20541 0.71331 0.57127 0.0
N178 N 0.18364 0.67497 0.56996 0.0
O179 O 0.23062 0.7905 0.54815 0.0
H180 H 0.12539 0.7044 0.58649 0.0
H181 H 0.23551 0.72882 0.56728 0.0
O182 O 0.15442 0.77097 0.561 0.0
C183 C 0.26418 0.8055 0.55769 0.0
O184 O 0.26849 0.81045 0.58324 0.0
N185 N 0.17632 0.77594 0.61139 0.0
C186 C 0.16492 0.78789 0.66355 0.0
C187 C 0.14587 0.79513 0.64335 0.0
C188 C 0.15196 0.78888 0.61716 0.0
C189 C 0.19238 0.76577 0.63086 0.0
C190 C 0.1866 0.77097 0.65706 0.0
H191 H 0.1402 0.79795 0.60161 0.0
H192 H 0.21229 0.75643 0.62598 0.0
H193 H 0.20808 0.8465 0.54021 0.0
H194 H 0.26045 0.9206 0.60393 0.0
H195 H 0.12321 0.6396 0.57689 0.0
H196 H 0.12897 0.80829 0.64753 0.0
H197 H 0.2011 0.7641 0.67206 0.0
C198 C 0.87566 0.57882 0.43701 0.0
C199 C 0.87539 0.54499 0.4382 0.0
N200 N 0.83911 0.51655 0.43693 0.0
N201 N 0.83967 0.57203 0.43545 0.0
C202 C 0.81803 0.53365 0.43463 0.0
H203 H 0.90074 0.60665 0.43749 0.0
Co204 Co 0.82715 0.61064 0.43573 0.0
C205 C 0.76178 0.55138 0.46859 0.0
O206 O 0.78236 0.54252 0.48371 0.0
N207 N 0.81531 0.64971 0.43577 0.0
C208 C 0.81213 0.70017 0.42307 0.0
C209 C 0.82372 0.67499 0.41623 0.0
C210 C 0.79896 0.66044 0.45452 0.0
N211 N 0.79673 0.69137 0.44731 0.0
O212 O 0.85283 0.62823 0.46915 0.0
H213 H 0.8379 0.67553 0.39817 0.0
H214 H 0.78977 0.64628 0.47328 0.0
O215 O 0.77768 0.57695 0.45105 0.0
C216 C 0.88551 0.65617 0.46308 0.0
O217 O 0.8911 0.66763 0.43851 0.0
N218 N 0.80702 0.59673 0.40207 0.0
C219 C 0.79045 0.59717 0.34885 0.0
C220 C 0.76118 0.58115 0.36771 0.0
C221 C 0.77011 0.58177 0.39436 0.0
C222 C 0.83541 0.60973 0.38405 0.0
C223 C 0.82795 0.61087 0.35754 0.0
H224 H 0.74758 0.57195 0.40867 0.0
H225 H 0.86454 0.62225 0.39063 0.0
H226 H 0.78738 0.51845 0.43314 0.0
H227 H 0.90006 0.54158 0.4399 0.0
H228 H 0.81496 0.72317 0.41085 0.0
H229 H 0.7317 0.56931 0.3622 0.0
H230 H 0.85199 0.62455 0.34444 0.0
C231 C 0.166 0.77044 0.91354 0.0
C232 C 0.12978 0.75239 0.92343 0.0
N233 N 0.13121 0.76447 0.94822 0.0
N234 N 0.19017 0.79384 0.93203 0.0
C235 C 0.16809 0.78962 0.95303 0.0
H236 H 0.17449 0.76451 0.89484 0.0
Co237 Co 0.2424 0.81506 0.93043 0.0
C238 C 0.27584 0.89442 0.94586 0.0
O239 O 0.2957 0.90123 0.92421 0.0
N240 N 0.29645 0.83566 0.92942 0.0
C241 C 0.35748 0.85966 0.91876 0.0
C242 C 0.3222 0.85093 0.90973 0.0
C243 C 0.31751 0.83617 0.95027 0.0
N244 N 0.35436 0.85002 0.94423 0.0
O245 O 0.23888 0.78588 0.96095 0.0
H246 H 0.31659 0.856 0.88993 0.0
H247 H 0.30613 0.82612 0.96966 0.0
O248 O 0.25097 0.85998 0.9516 0.0
C249 C 0.2405 0.75705 0.95273 0.0
O250 O 0.24822 0.75564 0.92785 0.0
N251 N 0.24186 0.83772 0.89838 0.0
C252 C 0.22271 0.84819 0.84767 0.0
C253 C 0.21629 0.86583 0.86917 0.0
C254 C 0.22576 0.85992 0.89453 0.0
C255 C 0.24704 0.81958 0.87767 0.0
C256 C 0.23877 0.82525 0.85218 0.0
H257 H 0.21767 0.87094 0.91109 0.0
H258 H 0.25602 0.79901 0.88117 0.0
H259 H 0.17921 0.80168 0.97218 0.0
H260 H 0.10469 0.73005 0.91389 0.0
H261 H 0.38312 0.87071 0.90714 0.0
H262 H 0.20277 0.88276 0.86651 0.0
H263 H 0.24261 0.80974 0.83629 0.0
C264 C 0.45497 0.30442 0.40938 0.0
C265 C 0.48211 0.34234 0.41123 0.0
N266 N 0.50282 0.34754 0.43312 0.0
N267 N 0.45871 0.28553 0.42985 0.0
C268 C 0.48741 0.31284 0.44435 0.0
H269 H 0.43419 0.29142 0.39386 0.0
Co270 Co 0.4295 0.23323 0.43734 0.0
C271 C 0.5109 0.24601 0.43916 0.0
O272 O 0.52757 0.27911 0.42732 0.0
N273 N 0.40081 0.18047 0.44533 0.0
C274 C 0.38321 0.11899 0.44345 0.0
C275 C 0.4075 0.15444 0.43369 0.0
C276 C 0.37226 0.15979 0.46252 0.0
N277 N 0.36119 0.12243 0.46154 0.0
O278 O 0.42629 0.24653 0.47323 0.0
H279 H 0.42907 0.16084 0.41901 0.0
H280 H 0.35983 0.17158 0.47556 0.0
O281 O 0.4751 0.22881 0.44357 0.0
C282 C 0.39609 0.24902 0.47292 0.0
O283 O 0.37539 0.23875 0.45143 0.0
N284 N 0.42738 0.22106 0.40137 0.0
C285 C 0.40966 0.20255 0.34825 0.0
C286 C 0.44739 0.21888 0.35727 0.0
C287 C 0.45571 0.22799 0.384 0.0
C288 C 0.39079 0.20528 0.39288 0.0
C289 C 0.38125 0.19522 0.36672 0.0
H290 H 0.48481 0.24136 0.39032 0.0
H291 H 0.36861 0.20041 0.40667 0.0
H292 H 0.49746 0.30716 0.46252 0.0
H293 H 0.487 0.36417 0.39708 0.0
H294 H 0.38202 0.09268 0.43797 0.0
H295 H 0.47044 0.22561 0.34376 0.0
H296 H 0.35163 0.18189 0.36111 0.0
C297 C 0.25733 0.40249 0.91283 0.0
C298 C 0.27847 0.38602 0.91922 0.0
N299 N 0.2732 0.37652 0.94486 0.0
N300 N 0.23757 0.40263 0.93401 0.0
C301 C 0.24796 0.38675 0.95339 0.0
H302 H 0.25729 0.41468 0.89399 0.0
Co303 Co 0.20963 0.42799 0.93435 0.0
C304 C 0.13424 0.37064 0.95375 0.0
O305 O 0.12024 0.37457 0.93158 0.0
N306 N 0.18215 0.45551 0.93516 0.0
C307 C 0.14416 0.4796 0.9272 0.0
C308 C 0.15365 0.45284 0.91976 0.0
C309 C 0.18889 0.48428 0.95191 0.0
N310 N 0.16667 0.4995 0.94732 0.0
O311 O 0.24059 0.45755 0.9632 0.0
H312 H 0.14058 0.43325 0.90364 0.0
H313 H 0.21004 0.49479 0.96726 0.0
O314 O 0.17023 0.38932 0.95795 0.0
C315 C 0.26738 0.48675 0.95189 0.0
O316 O 0.26554 0.49002 0.92633 0.0
N317 N 0.18505 0.40193 0.90322 0.0
C318 C 0.17839 0.3735 0.85224 0.0
C319 C 0.16653 0.34895 0.87397 0.0
C320 C 0.17044 0.36377 0.89938 0.0
C321 C 0.19564 0.42587 0.88223 0.0
C322 C 0.19193 0.41225 0.85667 0.0
H323 H 0.16505 0.34517 0.91596 0.0
H324 H 0.21001 0.45624 0.88542 0.0
H325 H 0.23885 0.38473 0.97358 0.0
H326 H 0.29696 0.38215 0.9059 0.0
H327 H 0.12369 0.48527 0.9177 0.0
H328 H 0.15639 0.31892 0.87148 0.0
H329 H 0.20268 0.43255 0.84072 0.0
C330 C 0.73264 0.13655 0.41739 0.0
C331 C 0.69523 0.12837 0.41667 0.0
N332 N 0.69269 0.15517 0.43064 0.0
N333 N 0.75327 0.16827 0.4318 0.0
C334 C 0.72793 0.17842 0.43986 0.0
H335 H 0.74417 0.12091 0.40763 0.0
Co336 Co 0.80533 0.19512 0.43938 0.0
C337 C 0.81396 0.26675 0.46079 0.0
O338 O 0.83267 0.26526 0.48137 0.0
N339 N 0.85822 0.22398 0.44735 0.0
C340 C 0.91805 0.27149 0.44549 0.0
C341 C 0.88254 0.25634 0.43471 0.0
C342 C 0.87996 0.22042 0.4661 0.0
N343 N 0.91668 0.24912 0.46546 0.0
O344 O 0.79266 0.17983 0.47533 0.0
H345 H 0.87485 0.26879 0.4188 0.0
H346 H 0.86883 0.19782 0.4804 0.0
O347 O 0.8023 0.24083 0.44338 0.0
C348 C 0.79276 0.14843 0.47614 0.0
O349 O 0.8062 0.13914 0.45572 0.0
N350 N 0.81616 0.2046 0.40367 0.0
C351 C 0.83222 0.208 0.35011 0.0
C352 C 0.81144 0.22442 0.36015 0.0
C353 C 0.80363 0.22238 0.38713 0.0
C354 C 0.83594 0.18827 0.39428 0.0
C355 C 0.84494 0.19031 0.36779 0.0
H356 H 0.78675 0.23408 0.39457 0.0
H357 H 0.84488 0.17353 0.40759 0.0
H358 H 0.73496 0.20253 0.4524 0.0
H359 H 0.6721 0.10538 0.40601 0.0
H360 H 0.94278 0.29731 0.43898 0.0
H361 H 0.80036 0.23775 0.34727 0.0
H362 H 0.86169 0.1779 0.36131 0.0
C363 C 0.64402 0.87166 0.91221 0.0
C364 C 0.66953 0.909 0.91802 0.0
N365 N 0.67925 0.91119 0.94351 0.0
N366 N 0.6382 0.85025 0.93382 0.0
C367 C 0.65976 0.87524 0.95269 0.0
H368 H 0.63021 0.86081 0.89348 0.0
Co369 Co 0.60475 0.79782 0.93687 0.0
C370 C 0.63623 0.7774 0.98076 0.0
O371 O 0.60452 0.76802 0.99331 0.0
N372 N 0.57142 0.74517 0.94038 0.0
C373 C 0.55135 0.68365 0.94549 0.0
C374 C 0.58131 0.71814 0.93802 0.0
C375 C 0.53495 0.72619 0.94873 0.0
N376 N 0.52228 0.6888 0.95232 0.0
O377 O 0.58177 0.80728 0.96659 0.0
H378 H 0.60914 0.72347 0.93223 0.0
H379 H 0.51846 0.73967 0.95318 0.0
O380 O 0.6417 0.79244 0.95801 0.0
C381 C 0.56119 0.81977 0.95702 0.0
O382 O 0.55983 0.82259 0.93138 0.0
N383 N 0.62417 0.78984 0.90576 0.0
C384 C 0.64612 0.80027 0.85325 0.0
C385 C 0.6735 0.81169 0.87333 0.0
C386 C 0.66183 0.80596 0.89972 0.0
C387 C 0.59731 0.77543 0.88654 0.0
C388 C 0.60763 0.77967 0.86023 0.0
H389 H 0.683 0.81823 0.91507 0.0
H390 H 0.56766 0.76361 0.89151 0.0
H391 H 0.66091 0.86725 0.97279 0.0
H392 H 0.6793 0.93287 0.90476 0.0
H393 H 0.55104 0.65688 0.94607 0.0
H394 H 0.70353 0.82766 0.86884 0.0
H395 H 0.58549 0.76933 0.84545 0.0
H396 H 0.73109 0.26688 0.04809 0.0
H397 H 0.71874 0.15854 0.02641 0.0
H398 H 0.65009 0.13297 0.01859 0.0
H399 H 0.65901 0.23569 0.08546 0.0
H400 H 0.64093 0.26688 0.07791 0.0
H401 H 0.69019 0.28253 0.07254 0.0
H402 H 0.68589 0.29685 0.0245 0.0
H403 H 0.63592 0.28135 0.02704 0.0
H404 H 0.65203 0.26038 1.00294 0.0
H405 H 0.58191 0.11517 0.02492 0.0
H406 H 0.52117 0.1083 0.04006 0.0
H407 H 0.57818 0.2286 0.05835 0.0
C408 C 0.71435 0.23874 0.03974 0.0
C409 C 0.73018 0.21504 0.03683 0.0
C410 C 0.70727 0.17748 0.02762 0.0
C411 C 0.66817 0.16268 0.02344 0.0
C412 C 0.65277 0.18607 0.02828 0.0
C413 C 0.67545 0.22375 0.0355 0.0
C414 C 0.65173 0.24139 0.0433 0.0
C415 C 0.66103 0.25757 0.07144 0.0
C416 C 0.65674 0.27184 0.02329 0.0
C417 C 0.61227 0.20708 0.04156 0.0
C418 C 0.61331 0.17565 0.03227 0.0
C419 C 0.58073 0.13985 0.03155 0.0
C420 C 0.54638 0.13612 0.04056 0.0
C421 C 0.54478 0.16792 0.05044 0.0
C422 C 0.5782 0.2039 0.05044 0.0
H423 H 0.36649 0.58174 0.57448 0.0
H424 H 0.42461 0.52574 0.54301 0.0
H425 H 0.4746 0.58671 0.52482 0.0
H426 H 0.39634 0.65771 0.5214 0.0
H427 H 0.40247 0.69294 0.54541 0.0
H428 H 0.36657 0.64387 0.55015 0.0
H429 H 0.39528 0.64385 0.59568 0.0
H430 H 0.43039 0.69283 0.59117 0.0
H431 H 0.44501 0.65852 0.59798 0.0
H432 H 0.52362 0.65435 0.51732 0.0
H433 H 0.56964 0.72208 0.52608 0.0
H434 H 0.48072 0.73465 0.56268 0.0
C435 C 0.3891 0.58227 0.56294 0.0
C436 C 0.3917 0.54916 0.56002 0.0
C437 C 0.42226 0.55092 0.54556 0.0
C438 C 0.4505 0.58533 0.53485 0.0
C439 C 0.44779 0.61785 0.53867 0.0
C440 C 0.41782 0.6166 0.55245 0.0
C441 C 0.42467 0.65621 0.55768 0.0
C442 C 0.39579 0.66308 0.54276 0.0
C443 C 0.42384 0.66325 0.58737 0.0
C444 C 0.4642 0.67989 0.54628 0.0
C445 C 0.47652 0.65734 0.53449 0.0
C446 C 0.51392 0.67246 0.5257 0.0
C447 C 0.53986 0.71107 0.53045 0.0
C448 C 0.52825 0.73377 0.54407 0.0
C449 C 0.4897 0.71835 0.55096 0.0
H450 H 0.88976 0.42439 0.05396 0.0
H451 H 0.77711 0.33306 0.03458 0.0
H452 H 0.76073 0.37964 0.01679 0.0
H453 H 0.86426 0.4836 0.07903 0.0
H454 H 0.90378 0.52712 0.06691 0.0
H455 H 0.90882 0.48622 0.07147 0.0
H456 H 0.92917 0.49037 0.02274 0.0
H457 H 0.92349 0.53122 0.01803 0.0
H458 H 0.89853 0.49021 0.99708 0.0
H459 H 0.75211 0.43631 0.01166 0.0
H460 H 0.75204 0.49597 0.02116 0.0
H461 H 0.87106 0.55063 0.04148 0.0
C462 C 0.86211 0.41425 0.04515 0.0
C463 C 0.83473 0.37528 0.04557 0.0
C464 C 0.79865 0.36281 0.03411 0.0
C465 C 0.78919 0.38911 0.0239 0.0
C466 C 0.81648 0.42769 0.02467 0.0
C467 C 0.8525 0.44011 0.03466 0.0
C468 C 0.87501 0.48293 0.0368 0.0
C469 C 0.8887 0.49567 0.06522 0.0
C470 C 0.90853 0.49966 0.0175 0.0
C471 C 0.84511 0.49261 0.02856 0.0
C472 C 0.81179 0.46058 0.02086 0.0
C473 C 0.77843 0.4618 0.01659 0.0
C474 C 0.77864 0.49592 0.02173 0.0
C475 C 0.8119 0.52796 0.03123 0.0
C476 C 0.84583 0.5268 0.03317 0.0
H477 H 0.47833 0.8914 0.5743 0.0
H478 H 0.46085 0.78224 0.54737 0.0
H479 H 0.39913 0.76698 0.52941 0.0
H480 H 0.38849 0.85704 0.59789 0.0
H481 H 0.38476 0.89795 0.58896 0.0
H482 H 0.43058 0.90309 0.59484 0.0
H483 H 0.45211 0.93288 0.54854 0.0
H484 H 0.40572 0.92682 0.54239 0.0
H485 H 0.42544 0.90685 0.52004 0.0
H486 H 0.33494 0.75898 0.51984 0.0
H487 H 0.27329 0.75639 0.52585 0.0
H488 H 0.33163 0.86941 0.55918 0.0
C489 C 0.46215 0.86455 0.56426 0.0
C490 C 0.47556 0.83853 0.56227 0.0
C491 C 0.45242 0.80343 0.54907 0.0
C492 C 0.41696 0.79436 0.53854 0.0
C493 C 0.40467 0.82058 0.54107 0.0
C494 C 0.42657 0.85491 0.55376 0.0
C495 C 0.40491 0.87593 0.55718 0.0
C496 C 0.40199 0.88392 0.58644 0.0
C497 C 0.42314 0.91281 0.54107 0.0
C498 C 0.36671 0.84708 0.54583 0.0
C499 C 0.36739 0.81582 0.5358 0.0
C500 C 0.33426 0.78367 0.52706 0.0
C501 C 0.29932 0.7825 0.53026 0.0
C502 C 0.29801 0.81294 0.5426 0.0
C503 C 0.33222 0.84632 0.54896 0.0
H504 H 0.67717 0.43171 0.08326 0.0
H505 H 0.64655 0.49922 0.03448 0.0
H506 H 0.59316 0.44013 0.01547 0.0
H507 H 0.65009 0.3516 0.03571 0.0
H508 H 0.63333 0.31804 0.06245 0.0
H509 H 0.67219 0.36555 0.0676 0.0
H510 H 0.63476 0.37296 0.1064 0.0
H511 H 0.59644 0.32559 0.10079 0.0
H512 H 0.58749 0.36476 0.10062 0.0
H513 H 0.536 0.3733 0.00904 0.0
H514 H 0.48254 0.30779 0.01647 0.0
H515 H 0.55453 0.28523 0.06685 0.0
C516 C 0.65958 0.43394 0.06821 0.0
C517 C 0.66549 0.46965 0.06038 0.0
C518 C 0.64228 0.47184 0.04057 0.0
C519 C 0.6121 0.4385 0.02966 0.0
C520 C 0.60637 0.40342 0.03835 0.0
C521 C 0.62997 0.40119 0.05698 0.0
C522 C 0.61621 0.36078 0.06521 0.0
C523 C 0.6447 0.3483 0.05721 0.0
C524 C 0.60823 0.35575 0.09499 0.0
C525 C 0.58007 0.34042 0.04928 0.0
C526 C 0.57481 0.3652 0.0336 0.0
C527 C 0.54043 0.35341 0.02046 0.0
C528 C 0.51028 0.31607 0.02452 0.0
C529 C 0.51501 0.29134 0.04154 0.0
C530 C 0.55082 0.30319 0.05287 0.0
H531 H 0.17254 0.47563 0.5741 0.0
H532 H 0.27924 0.52535 0.53212 0.0
H533 H 0.27536 0.58358 0.52442 0.0
H534 H 0.12746 0.52221 0.53498 0.0
H535 H 0.10563 0.52733 0.56432 0.0
H536 H 0.11315 0.48746 0.56083 0.0
H537 H 0.14999 0.50582 0.60489 0.0
H538 H 0.14368 0.54629 0.6082 0.0
H539 H 0.19083 0.55262 0.60871 0.0
H540 H 0.26496 0.64079 0.52919 0.0
H541 H 0.24613 0.68787 0.54145 0.0
H542 H 0.14708 0.59947 0.58145 0.0
C543 C 0.19411 0.49804 0.5621 0.0
C544 C 0.22596 0.49592 0.55346 0.0
C545 C 0.25425 0.52611 0.53849 0.0
C546 C 0.25236 0.55943 0.53424 0.0
C547 C 0.22168 0.5616 0.54471 0.0
C548 C 0.19256 0.53114 0.55776 0.0
C549 C 0.1647 0.54138 0.56956 0.0
C550 C 0.12541 0.51823 0.55664 0.0
C551 C 0.1622 0.53623 0.5996 0.0
C552 C 0.18333 0.58285 0.56212 0.0
C553 C 0.21594 0.5941 0.54758 0.0
C554 C 0.23907 0.63196 0.54014 0.0
C555 C 0.22833 0.65868 0.54749 0.0
C556 C 0.19485 0.64761 0.56235 0.0
C557 C 0.17229 0.60902 0.56961 0.0
H558 H 0.87145 0.48464 0.46608 0.0
H559 H 0.77735 0.45794 0.41363 0.0
H560 H 0.75767 0.38959 0.41616 0.0
H561 H 0.89598 0.41948 0.44044 0.0
H562 H 0.90755 0.40732 0.47179 0.0
H563 H 0.91238 0.45338 0.46701 0.0
H564 H 0.86811 0.44194 0.50674 0.0
H565 H 0.86314 0.39579 0.51165 0.0
H566 H 0.82153 0.40021 0.50737 0.0
H567 H 0.7528 0.32511 0.42103 0.0
H568 H 0.76042 0.26959 0.42999 0.0
H569 H 0.85575 0.3385 0.48129 0.0
C570 C 0.84668 0.46443 0.45513 0.0
C571 C 0.82611 0.47657 0.43942 0.0
C572 C 0.7934 0.44918 0.42581 0.0
C573 C 0.78213 0.41038 0.4271 0.0
C574 C 0.80355 0.3995 0.44244 0.0
C575 C 0.83486 0.42575 0.45648 0.0
C576 C 0.85352 0.40704 0.47117 0.0
C577 C 0.89479 0.42274 0.46204 0.0
C578 C 0.85143 0.41151 0.501 0.0
C579 C 0.82844 0.36617 0.46271 0.0
C580 C 0.79978 0.36236 0.44612 0.0
C581 C 0.77472 0.32771 0.43435 0.0
C582 C 0.77926 0.29632 0.43956 0.0
C583 C 0.80825 0.29958 0.45668 0.0
C584 C 0.83282 0.33493 0.46858 0.0
H585 H 0.42953 0.89959 0.94301 0.0
H586 H 0.34392 0.79592 0.97973 0.0
H587 H 0.39411 0.78638 0.99918 0.0
H588 H 0.48258 0.86636 0.92081 0.0
H589 H 0.5284 0.90814 0.92581 0.0
H590 H 0.48718 0.91281 0.92216 0.0
H591 H 0.5019 0.9482 0.96681 0.0
H592 H 0.5433 0.94323 0.97066 0.0
H593 H 0.50745 0.92618 0.99589 0.0
H594 H 0.45122 0.7792 1.00438 0.0
H595 H 0.50783 0.77437 0.99303 0.0
H596 H 0.5568 0.88287 0.95367 0.0
C597 C 0.42158 0.87573 0.956 0.0
C598 C 0.38304 0.84867 0.95999 0.0
C599 C 0.37336 0.81742 0.97682 0.0
C600 C 0.40175 0.81181 0.98798 0.0
C601 C 0.43967 0.83812 0.98257 0.0
C602 C 0.44959 0.86989 0.96727 0.0
C603 C 0.4914 0.89046 0.96057 0.0
C604 C 0.49771 0.89461 0.93059 0.0
C605 C 0.51224 0.92932 0.97432 0.0
C606 C 0.50274 0.86339 0.97226 0.0
C607 C 0.473 0.83409 0.9858 0.0
C608 C 0.47513 0.80267 0.99471 0.0
C609 C 0.50747 0.80018 0.98836 0.0
C610 C 0.53663 0.82866 0.97294 0.0
C611 C 0.53513 0.86142 0.96616 0.0
H612 H 0.71837 0.47475 0.47919 0.0
H613 H 0.71068 0.57263 0.45422 0.0
H614 H 0.64199 0.53124 0.44609 0.0
H615 H 0.6579 0.41299 0.43072 0.0
H616 H 0.63587 0.37115 0.45107 0.0
H617 H 0.68328 0.40876 0.45834 0.0
H618 H 0.66254 0.41398 0.50551 0.0
H619 H 0.61503 0.37619 0.49841 0.0
H620 H 0.62276 0.42134 0.51019 0.0
H621 H 0.57585 0.47898 0.43649 0.0
H622 H 0.51647 0.41933 0.42653 0.0
H623 H 0.56613 0.35446 0.45708 0.0
C624 C 0.70193 0.48757 0.47284 0.0
C625 C 0.71977 0.52706 0.46774 0.0
C626 C 0.69754 0.54256 0.4585 0.0
C627 C 0.65849 0.51925 0.45382 0.0
C628 C 0.64191 0.48035 0.45838 0.0
C629 C 0.66282 0.46455 0.46779 0.0
C630 C 0.63857 0.42149 0.46902 0.0
C631 C 0.65488 0.4025 0.45123 0.0
C632 C 0.63448 0.40743 0.49748 0.0
C633 C 0.60102 0.41559 0.45845 0.0
C634 C 0.60359 0.44998 0.4526 0.0
C635 C 0.57338 0.45191 0.44128 0.0
C636 C 0.53981 0.41788 0.43556 0.0
C637 C 0.53646 0.38221 0.44115 0.0
C638 C 0.56747 0.38124 0.45308 0.0
H639 H 0.2784 0.71968 0.96166 0.0
H640 H 0.17075 0.71428 0.97449 0.0
H641 H 0.14032 0.64513 0.9824 0.0
H642 H 0.24815 0.64542 0.92501 0.0
H643 H 0.27659 0.62592 0.93674 0.0
H644 H 0.29342 0.67574 0.94049 0.0
H645 H 0.30042 0.67206 0.99029 0.0
H646 H 0.28426 0.62195 0.98788 0.0
H647 H 0.26061 0.63837 0.00963 0.0
H648 H 0.11911 0.57604 0.97547 0.0
H649 H 0.11087 0.51387 0.96145 0.0
H650 H 0.23281 0.56409 0.95593 0.0
C651 C 0.24902 0.70423 0.96794 0.0
C652 C 0.22702 0.72217 0.96818 0.0
C653 C 0.18824 0.70112 0.97515 0.0
C654 C 0.1707 0.66175 0.97939 0.0
C655 C 0.19267 0.64425 0.97723 0.0
C656 C 0.23139 0.66511 0.97261 0.0
C657 C 0.24781 0.63938 0.96788 0.0
C658 C 0.26763 0.64709 0.94095 0.0
C659 C 0.27489 0.64318 0.99025 0.0
C660 C 0.21199 0.60093 0.96852 0.0
C661 C 0.18045 0.60415 0.9742 0.0
C662 C 0.14372 0.57302 0.97205 0.0
C663 C 0.13922 0.53793 0.96389 0.0
C664 C 0.17124 0.53422 0.9582 0.0
C665 C 0.20798 0.56598 0.96109 0.0
H666 H 0.58805 0.27562 0.43617 0.0
H667 H 0.4827 0.17028 0.4501 0.0
H668 H 0.51779 0.13529 0.45009 0.0
H669 H 0.62931 0.23957 0.39285 0.0
H670 H 0.67696 0.26782 0.40537 0.0
H671 H 0.64398 0.28495 0.40801 0.0
H672 H 0.65461 0.29234 0.45829 0.0
H673 H 0.68789 0.2755 0.45576 0.0
H674 H 0.64776 0.2522 0.47755 0.0
H675 H 0.56412 0.11086 0.44403 0.0
H676 H 0.61893 0.10065 0.43765 0.0
H677 H 0.69354 0.22209 0.42989 0.0
C678 C 0.57236 0.24526 0.4396 0.0
C679 C 0.53246 0.22571 0.44288 0.0
C680 C 0.51317 0.18597 0.44741 0.0
C681 C 0.53289 0.16578 0.4474 0.0
C682 C 0.57204 0.18579 0.4433 0.0
C683 C 0.59166 0.22478 0.44001 0.0
C684 C 0.63366 0.2396 0.4358 0.0
C685 C 0.64671 0.25912 0.4089 0.0
C686 C 0.65737 0.26649 0.45819 0.0
C687 C 0.63447 0.20278 0.43668 0.0
C688 C 0.59869 0.17197 0.44088 0.0
C689 C 0.59234 0.13487 0.44111 0.0
C690 C 0.62347 0.12925 0.4373 0.0
C691 C 0.66045 0.16058 0.43363 0.0
C692 C 0.66574 0.19769 0.43324 0.0
H693 H 0.30104 0.56205 0.94333 0.0
H694 H 0.31069 0.47774 0.98924 0.0
H695 H 0.37701 0.52575 1.00066 0.0
H696 H 0.38413 0.59865 0.9137 0.0
H697 H 0.39622 0.64779 0.91339 0.0
H698 H 0.34731 0.61101 0.91479 0.0
H699 H 0.33793 0.64036 0.95687 0.0
H700 H 0.38687 0.67766 0.95615 0.0
H701 H 0.36793 0.64849 0.98502 0.0
H702 H 0.44537 0.5775 0.99777 0.0
H703 H 0.50829 0.63047 0.98471 0.0
H704 H 0.45395 0.68163 0.94114 0.0
C705 C 0.31661 0.55433 0.95688 0.0
C706 C 0.30088 0.51653 0.96576 0.0
C707 C 0.32207 0.50685 0.98284 0.0
C708 C 0.35981 0.53391 0.98923 0.0
C709 C 0.37537 0.57051 0.97878 0.0
C710 C 0.35403 0.58102 0.96351 0.0
C711 C 0.37835 0.62032 0.95191 0.0
C712 C 0.37638 0.61933 0.92167 0.0
C713 C 0.36711 0.64837 0.96319 0.0
C714 C 0.41715 0.62941 0.96161 0.0
C715 C 0.41484 0.60061 0.97738 0.0
C716 C 0.44736 0.60065 0.98609 0.0
C717 C 0.48295 0.63063 0.97837 0.0
C718 C 0.48583 0.66019 0.96209 0.0
C719 C 0.45247 0.65987 0.95413 0.0
H720 H 0.44169 0.1776 0.31069 0.0
H721 H 0.35517 0.20942 0.32091 0.0
H722 H 0.33593 0.19308 0.27487 0.0
H723 H 0.46989 0.21886 0.24693 0.0
H724 H 0.47913 0.18268 0.23465 0.0
H725 H 0.48388 0.1936 0.26918 0.0
H726 H 0.43657 0.12282 0.27947 0.0
H727 H 0.43128 0.11181 0.24489 0.0
H728 H 0.39004 0.09991 0.26464 0.0
H729 H 0.32719 0.17575 0.22724 0.0
H730 H 0.335 0.166 0.18032 0.0
H731 H 0.42802 0.14708 0.20014 0.0
C732 C 0.41873 0.18121 0.30331 0.0
C733 C 0.39948 0.19404 0.31986 0.0
C734 C 0.36967 0.19844 0.30911 0.0
C735 C 0.35853 0.18938 0.28284 0.0
C736 C 0.37763 0.17623 0.26727 0.0
C737 C 0.40743 0.17264 0.27696 0.0
C738 C 0.42496 0.16054 0.25546 0.0
C739 C 0.46694 0.19072 0.25131 0.0
C740 C 0.42043 0.12144 0.26148 0.0
C741 C 0.40071 0.15851 0.23218 0.0
C742 C 0.37318 0.16709 0.23952 0.0
C743 C 0.34842 0.16866 0.22127 0.0
C744 C 0.35281 0.16269 0.19465 0.0
C745 C 0.38197 0.15559 0.18651 0.0
C746 C 0.4054 0.15238 0.20574 0.0
H747 H 0.20949 0.40305 0.69924 0.0
H748 H 0.26332 0.33413 0.70119 0.0
H749 H 0.24211 0.31645 0.74736 0.0
H750 H 0.23711 0.44183 0.7615 0.0
H751 H 0.1939 0.44221 0.76864 0.0
H752 H 0.20911 0.44494 0.73519 0.0
H753 H 0.14435 0.38588 0.72344 0.0
H754 H 0.12896 0.38287 0.75698 0.0
H755 H 0.1281 0.34245 0.74166 0.0
H756 H 0.22098 0.31277 0.79503 0.0
H757 H 0.2038 0.32443 0.8392 0.0
H758 H 0.16299 0.395 0.80491 0.0
C759 C 0.2167 0.38404 0.70929 0.0
C760 C 0.23843 0.37027 0.69676 0.0
C761 C 0.24665 0.34494 0.71044 0.0
C762 C 0.23468 0.33477 0.73662 0.0
C763 C 0.21406 0.34972 0.74857 0.0
C764 C 0.20497 0.37364 0.73519 0.0
C765 C 0.18497 0.38819 0.75268 0.0
C766 C 0.20764 0.43186 0.75462 0.0
C767 C 0.14417 0.37398 0.74312 0.0
C768 C 0.18527 0.36982 0.77839 0.0
C769 C 0.20166 0.34729 0.77565 0.0
C770 C 0.20749 0.32977 0.79725 0.0
C771 C 0.19736 0.33634 0.82229 0.0
C772 C 0.18179 0.36047 0.82556 0.0
C773 C 0.17472 0.37636 0.8031 0.0
H774 H 0.84613 0.26364 0.31331 0.0
H775 H 0.83466 0.15195 0.32143 0.0
H776 H 0.84972 0.15258 0.27469 0.0
H777 H 0.79933 0.24404 0.25118 0.0
H778 H 0.82889 0.29146 0.2387 0.0
H779 H 0.82075 0.28386 0.27347 0.0
H780 H 0.89347 0.31834 0.28138 0.0
H781 H 0.90179 0.3256 0.24656 0.0
H782 H 0.92163 0.30172 0.26487 0.0
H783 H 0.86397 0.1639 0.22673 0.0
H784 H 0.86887 0.18207 0.18 0.0
H785 H 0.8681 0.2847 0.20228 0.0
C786 C 0.84667 0.23923 0.30534 0.0
C787 C 0.83997 0.20814 0.32144 0.0
C788 C 0.84093 0.17679 0.30993 0.0
C789 C 0.8493 0.17673 0.28327 0.0
C790 C 0.85628 0.208 0.26813 0.0
C791 C 0.85452 0.23844 0.27862 0.0
C792 C 0.86038 0.26719 0.25757 0.0
C793 C 0.82525 0.27189 0.25508 0.0
C794 C 0.89647 0.30548 0.26292 0.0
C795 C 0.86513 0.24781 0.23361 0.0
C796 C 0.86332 0.21401 0.24021 0.0
C797 C 0.86571 0.19045 0.22131 0.0
C798 C 0.86882 0.20115 0.19484 0.0
C799 C 0.86907 0.23486 0.18755 0.0
C800 C 0.8681 0.25883 0.20732 0.0
H801 H 0.61103 0.82628 0.82058 0.0
H802 H 0.7052 0.80469 0.82345 0.0
H803 H 0.71991 0.82476 0.77688 0.0
H804 H 0.57879 0.78815 0.75788 0.0
H805 H 0.56485 0.82232 0.74895 0.0
H806 H 0.56492 0.8102 0.7829 0.0
H807 H 0.60958 0.88135 0.79407 0.0
H808 H 0.60985 0.89367 0.76006 0.0
H809 H 0.65401 0.90783 0.77683 0.0
H810 H 0.72057 0.84277 0.72854 0.0
H811 H 0.70561 0.85378 0.6834 0.0
H812 H 0.61029 0.86224 0.71325 0.0
C813 C 0.63473 0.82554 0.8115 0.0
C814 C 0.65668 0.81339 0.82563 0.0
C815 C 0.68801 0.81393 0.81306 0.0
C816 C 0.69654 0.82529 0.78663 0.0
C817 C 0.67369 0.83636 0.7732 0.0
C818 C 0.64343 0.83656 0.78534 0.0
C819 C 0.62164 0.84734 0.7665 0.0
C820 C 0.58011 0.81508 0.76391 0.0
C821 C 0.62393 0.88478 0.77487 0.0
C822 C 0.64367 0.8523 0.74153 0.0
C823 C 0.67395 0.84645 0.74575 0.0
C824 C 0.69721 0.84784 0.72515 0.0
C825 C 0.68865 0.85438 0.69959 0.0
C826 C 0.65688 0.85905 0.69483 0.0
C827 C 0.63479 0.85884 0.71626 0.0
H828 H 0.84283 0.63968 0.19764 0.0
H829 H 0.73524 0.63597 0.18514 0.0
H830 H 0.723 0.62779 0.23276 0.0
H831 H 0.80415 0.56231 0.24142 0.0
H832 H 0.84661 0.5805 0.26108 0.0
H833 H 0.84999 0.59276 0.22686 0.0
H834 H 0.88673 0.6644 0.23886 0.0
H835 H 0.88369 0.65236 0.27314 0.0
H836 H 0.8662 0.68278 0.26185 0.0
H837 H 0.72198 0.61757 0.28249 0.0
H838 H 0.73137 0.60501 0.32834 0.0
H839 H 0.83254 0.60169 0.30485 0.0
C840 C 0.81648 0.63702 0.20459 0.0
C841 C 0.79001 0.63834 0.18718 0.0
C842 C 0.75654 0.63584 0.1978 0.0
C843 C 0.74906 0.63075 0.22491 0.0
C844 C 0.77497 0.62758 0.24113 0.0
C845 C 0.80787 0.63041 0.23123 0.0
C846 C 0.8295 0.62252 0.25205 0.0
C847 C 0.83273 0.58744 0.24492 0.0
C848 C 0.86885 0.65761 0.25675 0.0
C849 C 0.80365 0.61478 0.27533 0.0
C850 C 0.77272 0.61851 0.26888 0.0
C851 C 0.74592 0.61416 0.28764 0.0
C852 C 0.7513 0.60644 0.31371 0.0
C853 C 0.78281 0.60217 0.32076 0.0
C854 C 0.80862 0.6056 0.30084 0.0
H855 H 0.26208 0.86184 0.80203 0.0
H856 H 0.15233 0.83518 0.83306 0.0
H857 H 0.12612 0.82351 0.7879 0.0
H858 H 0.25552 0.90571 0.73866 0.0
H859 H 0.2794 0.88519 0.72112 0.0
H860 H 0.29061 0.89842 0.75513 0.0
H861 H 0.27549 0.82994 0.76587 0.0
H862 H 0.26357 0.81627 0.7321 0.0
H863 H 0.22947 0.79042 0.75753 0.0
H864 H 0.10983 0.80458 0.73978 0.0
H865 H 0.10627 0.78376 0.6935 0.0
H866 H 0.22716 0.8238 0.69502 0.0
C867 C 0.23285 0.85477 0.7992 0.0
C868 C 0.20926 0.84966 0.8209 0.0
C869 C 0.17102 0.8399 0.81659 0.0
C870 C 0.15588 0.83301 0.79104 0.0
C871 C 0.17954 0.83656 0.77009 0.0
C872 C 0.21745 0.84792 0.77394 0.0
C873 C 0.23619 0.84633 0.74875 0.0
C874 C 0.26726 0.88629 0.74042 0.0
C875 C 0.25208 0.81912 0.75123 0.0
C876 C 0.20261 0.83073 0.7303 0.0
C877 C 0.17021 0.82565 0.74272 0.0
C878 C 0.13522 0.80909 0.72976 0.0
C879 C 0.1334 0.7973 0.70353 0.0
C880 C 0.16631 0.80174 0.69076 0.0
C881 C 0.20132 0.8194 0.70433 0.0
H882 H 0.32345 0.96861 0.9345 0.0
H883 H 0.24702 0.89565 0.99526 0.0
H884 H 0.26563 0.95269 0.02313 0.0
H885 H 0.39732 0.02895 0.97606 0.0
H886 H 0.41101 0.0708 0.95655 0.0
H887 H 0.38863 0.0248 0.94116 0.0
H888 H 0.33632 0.03672 0.92218 0.0
H889 H 0.35855 0.08284 0.93754 0.0
H890 H 0.30935 0.04909 0.94405 0.0
H891 H 0.2972 0.01938 0.04516 0.0
H892 H 0.3386 0.08624 0.05916 0.0
H893 H 0.39365 0.11249 0.98302 0.0
C894 C 0.31005 0.96427 0.95354 0.0
C895 C 0.28363 0.92748 0.96266 0.0
C896 C 0.26718 0.92353 0.98779 0.0
C897 C 0.2776 0.9558 1.00371 0.0
C898 C 0.30432 0.99165 0.99409 0.0
C899 C 0.32014 0.99577 0.96948 0.0
C900 C 0.34976 0.03654 0.96383 0.0
C901 C 0.38898 0.04048 0.95914 0.0
C902 C 0.33775 0.05221 0.94052 0.0
C903 C 0.34883 0.05508 0.98928 0.0
C904 C 0.32229 0.02904 0.00651 0.0
C905 C 0.31775 0.0399 0.03165 0.0
C906 C 0.34133 0.07801 0.03941 0.0
C907 C 0.36933 0.10473 0.02215 0.0
C908 C 0.37245 0.09295 0.99666 0.0
H909 H 0.2445 0.29387 0.53398 0.0
H910 H 0.3378 0.40546 0.5545 0.0
H911 H 0.38359 0.38556 0.54125 0.0
H912 H 0.28799 0.23904 0.55419 0.0
H913 H 0.26914 0.20666 0.52681 0.0
H914 H 0.24359 0.22888 0.5394 0.0
H915 H 0.24365 0.25574 0.49323 0.0
H916 H 0.2684 0.2329 0.48046 0.0
H917 H 0.28806 0.28331 0.47616 0.0
H918 H 0.41983 0.35305 0.52475 0.0
H919 H 0.44185 0.31449 0.50061 0.0
H920 H 0.32495 0.22557 0.49003 0.0
C921 C 0.27454 0.31418 0.53578 0.0
C922 C 0.28734 0.35116 0.5457 0.0
C923 C 0.32704 0.37685 0.5473 0.0
C924 C 0.35339 0.36572 0.53991 0.0
C925 C 0.33978 0.32881 0.53072 0.0
C926 C 0.30123 0.30367 0.52824 0.0
C927 C 0.29381 0.26654 0.51609 0.0
C928 C 0.27236 0.23332 0.53527 0.0
C929 C 0.27222 0.25922 0.48993 0.0
C930 C 0.33414 0.27481 0.51184 0.0
C931 C 0.3604 0.31059 0.5208 0.0
C932 C 0.39946 0.32484 0.5179 0.0
C933 C 0.41182 0.3026 0.50449 0.0
C934 C 0.38514 0.26682 0.49393 0.0
C935 C 0.34598 0.25252 0.4984 0.0
H936 H 0.97882 0.34328 0.05602 0.0
H937 H 0.9081 0.2305 0.0234 0.0
H938 H 0.9634 0.23745 0.9982 0.0
H939 H 0.02915 0.38564 0.99792 0.0
H940 H 0.07329 0.41649 0.01447 0.0
H941 H 0.02896 0.40073 0.03119 0.0
H942 H 0.05185 0.37411 0.06884 0.0
H943 H 0.09603 0.38918 0.05189 0.0
H944 H 0.06675 0.34018 0.06139 0.0
H945 H 0.02545 0.2589 0.97429 0.0
H946 H 0.08616 0.29508 0.95036 0.0
H947 H 0.11643 0.39333 0.99917 0.0
C948 C 0.97491 0.31977 0.0438 0.0
C949 C 0.93908 0.28618 0.04181 0.0
C950 C 0.93521 0.25648 0.02523 0.0
C951 C 0.96656 0.26008 0.01104 0.0
C952 C 1.00157 0.29352 0.01369 0.0
C953 C 1.00574 0.32297 0.0295 0.0
C954 C 0.04542 0.35713 0.02748 0.0
C955 C 0.04411 0.39204 0.01714 0.0
C956 C 0.06623 0.36563 0.05398 0.0
C957 C 0.06296 0.34272 0.0076 0.0
C958 C 0.03736 0.30573 1.00017 0.0
C959 C 0.04592 0.2875 0.98039 0.0
C960 C 0.08064 0.30809 0.96709 0.0
C961 C 0.10651 0.34638 0.9737 0.0
C962 C 0.098 0.3635 0.9947 0.0
H963 H 0.73574 0.94749 0.53428 0.0
H964 H 0.62733 0.93538 0.55676 0.0
H965 H 0.65059 1.00219 0.54399 0.0
H966 H 0.79519 0.04477 0.55589 0.0
H967 H 0.82724 0.05707 0.52848 0.0
H968 H 0.80259 1.009 0.54059 0.0
H969 H 0.77481 0.98401 0.49423 0.0
H970 H 0.79997 0.03186 0.48193 0.0
H971 H 0.74926 1.0035 0.47758 0.0
H972 H 0.6862 0.07115 0.52705 0.0
H973 H 0.72748 0.1314 0.50327 0.0
H974 H 0.81161 0.09697 0.49264 0.0
C975 C 0.71683 0.95881 0.53664 0.0
C976 C 0.67971 0.93606 0.54663 0.0
C977 C 0.65588 0.95211 0.54912 0.0
C978 C 0.66896 0.99019 0.5421 0.0
C979 C 0.70596 1.01195 0.53261 0.0
C980 C 0.72934 0.99657 0.52968 0.0
C981 C 0.76708 0.02491 0.51769 0.0
C982 C 0.79996 0.0345 0.53681 0.0
C983 C 0.77311 1.0102 0.4913 0.0
C984 C 0.76124 0.05856 0.51394 0.0
C985 C 0.72608 0.05095 0.52295 0.0
C986 C 0.71395 0.07748 0.52021 0.0
C987 C 0.73772 0.11185 0.50698 0.0
C988 C 0.77293 0.11905 0.49649 0.0
C989 C 0.78509 0.09249 0.50084 0.0
H990 H 0.6767 0.63482 0.06185 0.0
H991 H 0.77945 0.67266 0.01608 0.0
H992 H 0.76688 0.71883 0.993 0.0
H993 H 0.61994 0.6414 0.01062 0.0
H994 H 0.59613 0.65777 0.03233 0.0
H995 H 0.61351 0.62788 0.04476 0.0
H996 H 0.65238 0.67851 0.08021 0.0
H997 H 0.63541 0.70874 0.0677 0.0
H998 H 0.68574 0.72645 0.07028 0.0
H999 H 0.74146 0.76005 0.97416 0.0
H1000 H 0.70528 0.79161 0.96118 0.0
H1001 H 0.6214 0.7278 0.02109 0.0
C1002 C 0.69655 0.65263 0.04689 0.0
C1003 C 0.729 0.64999 0.04071 0.0
C1004 C 0.75433 0.6741 0.02112 0.0
C1005 C 0.74748 0.70047 0.00795 0.0
C1006 C 0.71535 0.70255 0.01475 0.0
C1007 C 0.69035 0.67921 0.03378 0.0
C1008 C 0.6579 0.68684 0.03758 0.0
C1009 C 0.61962 0.65137 0.03091 0.0
C1010 C 0.65788 0.70099 0.06561 0.0
C1011 C 0.66834 0.71801 0.01762 0.0
C1012 C 0.70149 0.72674 1.00455 0.0
C1013 C 0.71565 0.75363 0.98444 0.0
C1014 C 0.69499 0.77151 0.97726 0.0
C1015 C 0.66071 0.76254 0.99028 0.0
C1016 C 0.64778 0.73585 0.01098 0.0
H1017 H 0.9591 0.70027 0.44869 0.0
H1018 H 0.88876 0.64639 0.51699 0.0
H1019 H 0.9472 0.67149 0.5444 0.0
H1020 H 0.03027 0.67819 0.46409 0.0
H1021 H 0.06833 0.72189 0.45097 0.0
H1022 H 0.0211 0.7022 0.43781 0.0
H1023 H 0.0223 0.76541 0.44742 0.0
H1024 H 0.06959 0.78536 0.46062 0.0
H1025 H 0.03238 0.78467 0.48025 0.0
H1026 H 1.01508 0.70319 0.5638 0.0
H1027 H 0.08389 0.73326 0.57278 0.0
H1028 H 0.10781 0.76216 0.49035 0.0
C1029 C 0.95559 0.69398 0.4695 0.0
C1030 C 0.91913 0.67168 0.48076 0.0
C1031 C 0.91631 0.66365 0.50797 0.0
C1032 C 0.94936 0.67784 0.52363 0.0
C1033 C 0.98488 0.69961 0.51167 0.0
C1034 C 0.98796 0.70729 0.48512 0.0
C1035 C 0.02901 0.72931 0.47635 0.0
C1036 C 0.03767 0.70653 0.45612 0.0
C1037 C 0.03889 0.76851 0.46553 0.0
C1038 C 0.04899 0.73291 0.5021 0.0
C1039 C 0.0232 0.7161 0.52237 0.0
C1040 C 0.03532 0.71626 0.548 0.0
C1041 C 0.07457 0.73353 0.5529 0.0
C1042 C 0.10138 0.74996 0.53223 0.0
C1043 C 0.08816 0.74975 0.50656 0.0
H1044 H 0.73708 0.05959 0.06034 0.0
H1045 H 0.83263 0.13855 0.0126 0.0
H1046 H 0.81491 0.08882 0.97893 0.0
H1047 H 0.74345 0.9749 0.0442 0.0
H1048 H 0.69261 0.94419 0.04388 0.0
H1049 H 0.71393 0.98545 0.06488 0.0
H1050 H 0.67154 1.00911 0.04377 0.0
H1051 H 0.6502 0.96805 0.02267 0.0
H1052 H 0.6723 0.01502 0.00865 0.0
H1053 H 0.78416 0.03214 0.94901 0.0
H1054 H 0.74371 0.97156 0.9257 0.0
H1055 H 0.66982 0.92849 0.99348 0.0
C1056 C 0.75483 0.06634 0.04311 0.0
C1057 C 0.78629 0.10325 0.0392 0.0
C1058 C 0.80814 0.11079 0.01598 0.0
C1059 C 0.79845 0.08261 0.99679 0.0
C1060 C 0.76698 0.04682 1.00113 0.0
C1061 C 0.74566 0.03847 0.0238 0.0
C1062 C 0.71243 0.99808 0.02324 0.0
C1063 C 0.71582 0.97425 0.04536 0.0
C1064 C 0.67438 0.99756 0.02466 0.0
C1065 C 0.7181 0.98519 0.99653 0.0
C1066 C 0.74974 0.01377 0.98411 0.0
C1067 C 0.75961 1.00941 0.95868 0.0
C1068 C 0.73644 0.97504 0.94555 0.0
C1069 C 0.70393 0.94535 0.95789 0.0
C1070 C 0.69496 0.95044 0.98383 0.0
H1071 H 0.75146 0.66751 0.49133 0.0
H1072 H 0.80943 0.76282 0.43767 0.0
H1073 H 0.78314 0.79684 0.46115 0.0
H1074 H 0.66704 0.67317 0.4995 0.0
H1075 H 0.66219 0.66225 0.53407 0.0
H1076 H 0.68516 0.64433 0.51291 0.0
H1077 H 0.74496 0.67556 0.54257 0.0
H1078 H 0.72214 0.69349 0.56387 0.0
H1079 H 0.76765 0.72571 0.54955 0.0
H1080 H 0.74917 0.82037 0.48895 0.0
H1081 H 0.71253 0.83345 0.52182 0.0
H1082 H 0.67932 0.72577 0.55963 0.0
C1083 C 0.75896 0.69561 0.48457 0.0
C1084 C 0.78225 0.71186 0.46215 0.0
C1085 C 0.79103 0.74887 0.45419 0.0
C1086 C 0.7764 0.76879 0.46757 0.0
C1087 C 0.75331 0.75179 0.48923 0.0
C1088 C 0.7449 0.71626 0.49794 0.0
C1089 C 0.71972 0.70498 0.52213 0.0
C1090 C 0.68125 0.66905 0.51682 0.0
C1091 C 0.73983 0.69963 0.54594 0.0
C1092 C 0.71527 0.73968 0.52544 0.0
C1093 C 0.7347 0.76615 0.50607 0.0
C1094 C 0.73402 0.8 0.50434 0.0
C1095 C 0.71301 0.8071 0.52297 0.0
C1096 C 0.69328 0.78073 0.54325 0.0
C1097 C 0.69457 0.74662 0.54452 0.0
H1098 H 0.96458 0.74544 0.03865 0.0
H1099 H 0.92238 0.62375 0.03776 0.0
H1100 H 0.98063 0.63486 0.01619 0.0
H1101 H 1.00234 0.76261 0.9757 0.0
H1102 H 0.04358 0.80796 0.98292 0.0
H1103 H 1.00105 0.79155 1.00207 0.0
H1104 H 0.03912 0.79919 0.04467 0.0
H1105 H 0.08189 0.81577 0.02561 0.0
H1106 H 0.06669 0.7758 0.04736 0.0
H1107 H 0.03873 0.65718 0.98972 0.0
H1108 H 0.09442 0.69052 0.96048 0.0
H1109 H 0.10041 0.79763 0.97769 0.0
C1110 C 0.96764 0.72108 0.03429 0.0
C1111 C 0.93843 0.68368 0.04027 0.0
C1112 C 0.94408 0.65279 0.03407 0.0
C1113 C 0.97726 0.65875 0.02162 0.0
C1114 C 1.00487 0.69576 0.01551 0.0
C1115 C 1.00065 0.7265 0.02174 0.0
C1116 C 0.03345 0.76309 0.01105 0.0
C1117 C 1.01924 0.78242 0.99179 0.0
C1118 C 0.05667 0.79005 0.03352 0.0
C1119 C 0.05591 0.7478 0.99702 0.0
C1120 C 0.03903 0.70889 1.00015 0.0
C1121 C 0.05262 0.68771 0.98749 0.0
C1122 C 0.08401 0.70671 0.97089 0.0
C1123 C 0.10145 0.7464 0.96719 0.0
C1124 C 0.08774 0.76734 0.98075 0.0
H1125 H 0.29638 0.96563 0.57126 0.0
H1126 H 0.19712 0.89567 0.52338 0.0
H1127 H 0.21523 0.94998 0.49348 0.0
H1128 H 0.29596 0.05543 0.56345 0.0
H1129 H 0.34704 0.08337 0.56201 0.0
H1130 H 0.32452 0.04003 0.58081 0.0
H1131 H 0.3617 0.01454 0.55459 0.0
H1132 H 0.38446 0.0578 0.53585 0.0
H1133 H 0.35869 1.01269 0.51924 0.0
H1134 H 0.24688 1.0105 0.46699 0.0
H1135 H 0.29124 0.07141 0.44513 0.0
H1136 H 0.36902 0.10216 0.51047 0.0
C1137 C 0.27793 0.96189 0.55485 0.0
C1138 C 0.24509 0.92633 0.54981 0.0
C1139 C 0.22245 0.9225 0.52759 0.0
C1140 C 0.23236 0.9533 0.51062 0.0
C1141 C 0.265 0.98787 0.51613 0.0
C1142 C 0.28748 0.99229 0.5377 0.0
C1143 C 0.32252 0.03153 0.53824 0.0
C1144 C 0.32249 0.05391 0.56258 0.0
C1145 C 0.35899 0.02896 0.53689 0.0
C1146 C 0.31669 0.04833 0.51332 0.0
C1147 C 0.28309 0.02283 0.50099 0.0
C1148 C 0.27283 0.03093 0.47674 0.0
C1149 C 0.29793 0.06553 0.46453 0.0
C1150 C 0.33265 0.09159 0.47662 0.0
C1151 C 0.34188 0.08313 0.50145 0.0
H1152 H 0.25214 0.33639 0.9913 0.0
H1153 H 0.34178 0.38444 0.93275 0.0
H1154 H 0.37514 0.35672 0.95533 0.0
H1155 H 0.31631 0.35281 0.04697 0.0
H1156 H 0.28359 0.3093 0.06341 0.0
H1157 H 0.26585 0.33299 0.04279 0.0
H1158 H 0.22769 0.27136 0.0156 0.0
H1159 H 0.24546 0.24754 0.03603 0.0
H1160 H 0.2521 0.24918 1.00097 0.0
H1161 H 0.39782 0.32171 0.98196 0.0
H1162 H 0.41142 0.28491 0.01413 0.0
H1163 H 0.3108 0.26158 0.05817 0.0
C1164 C 0.27893 0.34136 0.9834 0.0
C1165 C 0.29364 0.36203 0.95974 0.0
C1166 C 0.32896 0.36783 0.95021 0.0
C1167 C 0.3485 0.35243 0.96307 0.0
C1168 C 0.3329 0.33159 0.98582 0.0
C1169 C 0.29926 0.32636 0.99624 0.0
C1170 C 0.28939 0.30283 0.02127 0.0
C1171 C 0.28875 0.32586 0.04502 0.0
C1172 C 0.2514 0.26551 0.01827 0.0
C1173 C 0.32255 0.29547 0.02293 0.0
C1174 C 0.34705 0.31225 1.00209 0.0
C1175 C 0.37902 0.30863 0.9985 0.0
C1176 C 0.38638 0.28743 0.01676 0.0
C1177 C 0.36216 0.27031 0.03856 0.0
C1178 C 0.32988 0.2746 0.04175 0.0
H1179 H 0.12166 0.37107 0.53125 0.0
H1180 H 0.09078 0.27619 0.58362 0.0
H1181 H 0.02979 0.23875 0.56003 0.0
H1182 H 0.02999 0.36091 0.52881 0.0
H1183 H 0.0328 0.37438 0.49482 0.0
H1184 H 0.07548 0.39225 0.5141 0.0
H1185 H 0.10337 0.36532 0.48016 0.0
H1186 H 0.06078 0.34749 0.4607 0.0
H1187 H 0.07683 0.31567 0.47149 0.0
H1188 H 0.97097 0.21259 0.5317 0.0
H1189 H 0.91855 0.20017 0.50166 0.0
H1190 H 0.98665 0.31382 0.46943 0.0
C1191 C 0.10234 0.34211 0.53728 0.0
C1192 C 0.11094 0.32624 0.55903 0.0
C1193 C 0.08459 0.28868 0.56693 0.0
C1194 C 0.04999 0.26724 0.55363 0.0
C1195 C 0.04194 0.28389 0.53256 0.0
C1196 C 0.06732 0.32051 0.52445 0.0
C1197 C 0.05064 0.33256 0.50237 0.0
C1198 C 0.04701 0.36706 0.51052 0.0
C1199 C 0.07431 0.34073 0.47719 0.0
C1200 C 1.01197 0.29711 0.49945 0.0
C1201 C 1.0076 0.26926 0.51686 0.0
C1202 C 0.97409 0.23424 0.51795 0.0
C1203 C 0.94424 0.22753 0.50081 0.0
C1204 C 0.94778 0.25582 0.48286 0.0
C1205 C 0.98244 0.29106 0.4824 0.0
loop_
_geom_bond_atom_site_label_1
_geom_bond_atom_site_label_2
_geom_bond_distance
_geom_bond_site_symmetry_2
_ccdc_geom_bond_type
C0 C1 1.351 . S
C0 N3 1.368 . S
C0 H5 0.931 . S
C1 C0 1.351 . S
C1 N2 1.373 . S
C1 H29 0.930 . S
N2 C1 1.373 . S
N2 C4 1.340 . S
N3 C0 1.368 . S
N3 C4 1.321 . S
N3 Co6 2.135 . S
C4 N2 1.340 . S
C4 N3 1.321 . S
C4 H28 0.930 . S
H5 C0 0.931 . S
Co6 N3 2.135 . S
Co6 N9 2.121 . S
Co6 O14 2.055 . S
Co6 O17 2.039 . S
Co6 N20 2.140 . S
C7 O8 1.227 . S
C7 O17 1.265 . S
O8 C7 1.227 . S
N9 Co6 2.121 . S
N9 C11 1.375 . S
N9 C12 1.313 . S
C10 C11 1.338 . S
C10 N13 1.377 . S
C10 H30 0.930 . S
C11 N9 1.375 . S
C11 C10 1.338 . S
C11 H15 0.931 . S
C12 N9 1.313 . S
C12 N13 1.344 . S
C12 H16 0.930 . S
N13 C10 1.377 . S
N13 C12 1.344 . S
O14 Co6 2.055 . S
O14 C18 1.253 . S
H15 C11 0.931 . S
H16 C12 0.930 . S
O17 Co6 2.039 . S
O17 C7 1.265 . S
C18 O14 1.253 . S
C18 O19 1.227 . S
O19 C18 1.227 . S
N20 Co6 2.140 . S
N20 C23 1.346 . S
N20 C24 1.345 . S
C21 C22 1.387 . S
C21 C25 1.391 . S
C22 C21 1.387 . S
C22 C23 1.369 . S
C22 H31 0.929 . S
C23 N20 1.346 . S
C23 C22 1.369 . S
C23 H26 0.928 . S
C24 N20 1.345 . S
C24 C25 1.371 . S
C24 H27 0.931 . S
C25 C21 1.391 . S
C25 C24 1.371 . S
C25 H32 0.930 . S
H26 C23 0.928 . S
H27 C24 0.931 . S
H28 C4 0.930 . S
H29 C1 0.930 . S
H30 C10 0.930 . S
H31 C22 0.929 . S
H32 C25 0.930 . S
C33 C34 1.351 . S
C33 N36 1.368 . S
C33 H38 0.931 . S
C34 C33 1.351 . S
C34 N35 1.373 . S
C34 H62 0.930 . S
N35 C34 1.373 . S
N35 C37 1.340 . S
N36 C33 1.368 . S
N36 C37 1.321 . S
N36 Co39 2.135 . S
C37 N35 1.340 . S
C37 N36 1.321 . S
C37 H61 0.930 . S
H38 C33 0.931 . S
Co39 N36 2.135 . S
Co39 N42 2.121 . S
Co39 O47 2.055 . S
Co39 O50 2.039 . S
Co39 N53 2.140 . S
C40 O41 1.227 . S
C40 O50 1.265 . S
O41 C40 1.227 . S
N42 Co39 2.121 . S
N42 C44 1.375 . S
N42 C45 1.313 . S
C43 C44 1.338 . S
C43 N46 1.377 . S
C43 H63 0.930 . S
C44 N42 1.375 . S
C44 C43 1.338 . S
C44 H48 0.931 . S
C45 N42 1.313 . S
C45 N46 1.344 . S
C45 H49 0.930 . S
N46 C43 1.377 . S
N46 C45 1.344 . S
O47 Co39 2.055 . S
O47 C51 1.253 . S
H48 C44 0.931 . S
H49 C45 0.930 . S
O50 Co39 2.039 . S
O50 C40 1.265 . S
C51 O47 1.253 . S
C51 O52 1.227 . S
O52 C51 1.227 . S
N53 Co39 2.140 . S
N53 C56 1.346 . S
N53 C57 1.345 . S
C54 C55 1.387 . S
C54 C58 1.391 . S
C55 C54 1.387 . S
C55 C56 1.369 . S
C55 H64 0.929 . S
C56 N53 1.346 . S
C56 C55 1.369 . S
C56 H59 0.928 . S
C57 N53 1.345 . S
C57 C58 1.371 . S
C57 H60 0.931 . S
C58 C54 1.391 . S
C58 C57 1.371 . S
C58 H65 0.930 . S
H59 C56 0.928 . S
H60 C57 0.931 . S
H61 C37 0.930 . S
H62 C34 0.930 . S
H63 C43 0.930 . S
H64 C55 0.929 . S
H65 C58 0.930 . S
C66 C67 1.351 . S
C66 N69 1.368 . S
C66 H71 0.931 . S
C67 C66 1.351 . S
C67 N68 1.373 . S
C67 H95 0.930 . S
N68 C67 1.373 . S
N68 C70 1.340 . S
N69 C66 1.368 . S
N69 C70 1.321 . S
N69 Co72 2.135 . S
C70 N68 1.340 . S
C70 N69 1.321 . S
C70 H94 0.930 . S
H71 C66 0.931 . S
Co72 N69 2.135 . S
Co72 N75 2.121 . S
Co72 O80 2.055 . S
Co72 O83 2.039 . S
Co72 N86 2.140 . S
C73 O74 1.227 . S
C73 O83 1.265 . S
O74 C73 1.227 . S
N75 Co72 2.121 . S
N75 C77 1.375 . S
N75 C78 1.313 . S
C76 C77 1.338 . S
C76 N79 1.377 . S
C76 H96 0.930 . S
C77 N75 1.375 . S
C77 C76 1.338 . S
C77 H81 0.931 . S
C78 N75 1.313 . S
C78 N79 1.344 . S
C78 H82 0.930 . S
N79 C76 1.377 . S
N79 C78 1.344 . S
O80 Co72 2.055 . S
O80 C84 1.253 . S
H81 C77 0.931 . S
H82 C78 0.930 . S
O83 Co72 2.039 . S
O83 C73 1.265 . S
C84 O80 1.253 . S
C84 O85 1.227 . S
O85 C84 1.227 . S
N86 Co72 2.140 . S
N86 C89 1.346 . S
N86 C90 1.345 . S
C87 C88 1.387 . S
C87 C91 1.391 . S
C88 C87 1.387 . S
C88 C89 1.369 . S
C88 H97 0.929 . S
C89 N86 1.346 . S
C89 C88 1.369 . S
C89 H92 0.928 . S
C90 N86 1.345 . S
C90 C91 1.371 . S
C90 H93 0.931 . S
C91 C87 1.391 . S
C91 C90 1.371 . S
C91 H98 0.930 . S
H92 C89 0.928 . S
H93 C90 0.931 . S
H94 C70 0.930 . S
H95 C67 0.930 . S
H96 C76 0.930 . S
H97 C88 0.929 . S
H98 C91 0.930 . S
C99 C100 1.351 . S
C99 N102 1.368 . S
C99 H104 0.931 . S
C100 C99 1.351 . S
C100 N101 1.373 . S
C100 H128 0.930 . S
N101 C100 1.373 . S
N101 C103 1.340 . S
N102 C99 1.368 . S
N102 C103 1.321 . S
N102 Co105 2.135 . S
C103 N101 1.340 . S
C103 N102 1.321 . S
C103 H127 0.930 . S
H104 C99 0.931 . S
Co105 N102 2.135 . S
Co105 N108 2.121 . S
Co105 O113 2.055 . S
Co105 O116 2.039 . S
Co105 N119 2.140 . S
C106 O107 1.227 . S
C106 O116 1.265 . S
O107 C106 1.227 . S
N108 Co105 2.121 . S
N108 C110 1.375 . S
N108 C111 1.313 . S
C109 C110 1.338 . S
C109 N112 1.377 . S
C109 H129 0.930 . S
C110 N108 1.375 . S
C110 C109 1.338 . S
C110 H114 0.931 . S
C111 N108 1.313 . S
C111 N112 1.344 . S
C111 H115 0.930 . S
N112 C109 1.377 . S
N112 C111 1.344 . S
O113 Co105 2.055 . S
O113 C117 1.253 . S
H114 C110 0.931 . S
H115 C111 0.930 . S
O116 Co105 2.039 . S
O116 C106 1.265 . S
C117 O113 1.253 . S
C117 O118 1.227 . S
O118 C117 1.227 . S
N119 Co105 2.140 . S
N119 C122 1.346 . S
N119 C123 1.345 . S
C120 C121 1.387 . S
C120 C124 1.391 . S
C121 C120 1.387 . S
C121 C122 1.369 . S
C121 H130 0.929 . S
C122 N119 1.346 . S
C122 C121 1.369 . S
C122 H125 0.928 . S
C123 N119 1.345 . S
C123 C124 1.371 . S
C123 H126 0.931 . S
C124 C120 1.391 . S
C124 C123 1.371 . S
C124 H131 0.930 . S
H125 C122 0.928 . S
H126 C123 0.931 . S
H127 C103 0.930 . S
H128 C100 0.930 . S
H129 C109 0.930 . S
H130 C121 0.929 . S
H131 C124 0.930 . S
C132 C133 1.351 . S
C132 N135 1.368 . S
C132 H137 0.931 . S
C133 C132 1.351 . S
C133 N134 1.373 . S
C133 H161 0.930 . S
N134 C133 1.373 . S
N134 C136 1.340 . S
N135 C132 1.368 . S
N135 C136 1.321 . S
N135 Co138 2.135 . S
C136 N134 1.340 . S
C136 N135 1.321 . S
C136 H160 0.930 . S
H137 C132 0.931 . S
Co138 N135 2.135 . S
Co138 N141 2.121 . S
Co138 O146 2.055 . S
Co138 O149 2.039 . S
Co138 N152 2.140 . S
C139 O140 1.227 . S
C139 O149 1.265 . S
O140 C139 1.227 . S
N141 Co138 2.121 . S
N141 C143 1.375 . S
N141 C144 1.313 . S
C142 C143 1.338 . S
C142 N145 1.377 . S
C142 H162 0.930 . S
C143 N141 1.375 . S
C143 C142 1.338 . S
C143 H147 0.931 . S
C144 N141 1.313 . S
C144 N145 1.344 . S
C144 H148 0.930 . S
N145 C142 1.377 . S
N145 C144 1.344 . S
O146 Co138 2.055 . S
O146 C150 1.253 . S
H147 C143 0.931 . S
H148 C144 0.930 . S
O149 Co138 2.039 . S
O149 C139 1.265 . S
C150 O146 1.253 . S
C150 O151 1.227 . S
O151 C150 1.227 . S
N152 Co138 2.140 . S
N152 C155 1.346 . S
N152 C156 1.345 . S
C153 C154 1.387 . S
C153 C157 1.391 . S
C154 C153 1.387 . S
C154 C155 1.369 . S
C154 H163 0.929 . S
C155 N152 1.346 . S
C155 C154 1.369 . S
C155 H158 0.928 . S
C156 N152 1.345 . S
C156 C157 1.371 . S
C156 H159 0.931 . S
C157 C153 1.391 . S
C157 C156 1.371 . S
C157 H164 0.930 . S
H158 C155 0.928 . S
H159 C156 0.931 . S
H160 C136 0.930 . S
H161 C133 0.930 . S
H162 C142 0.930 . S
H163 C154 0.929 . S
H164 C157 0.930 . S
C165 C166 1.351 . S
C165 N168 1.368 . S
C165 H170 0.931 . S
C166 C165 1.351 . S
C166 N167 1.373 . S
C166 H194 0.930 . S
N167 C166 1.373 . S
N167 C169 1.340 . S
N168 C165 1.368 . S
N168 C169 1.321 . S
N168 Co171 2.135 . S
C169 N167 1.340 . S
C169 N168 1.321 . S
C169 H193 0.930 . S
H170 C165 0.931 . S
Co171 N168 2.135 . S
Co171 N174 2.121 . S
Co171 O179 2.055 . S
Co171 O182 2.039 . S
Co171 N185 2.140 . S
C172 O173 1.227 . S
C172 O182 1.265 . S
O173 C172 1.227 . S
N174 Co171 2.121 . S
N174 C176 1.375 . S
N174 C177 1.313 . S
C175 C176 1.338 . S
C175 N178 1.377 . S
C175 H195 0.930 . S
C176 N174 1.375 . S
C176 C175 1.338 . S
C176 H180 0.931 . S
C177 N174 1.313 . S
C177 N178 1.344 . S
C177 H181 0.930 . S
N178 C175 1.377 . S
N178 C177 1.344 . S
O179 Co171 2.055 . S
O179 C183 1.253 . S
H180 C176 0.931 . S
H181 C177 0.930 . S
O182 Co171 2.039 . S
O182 C172 1.265 . S
C183 O179 1.253 . S
C183 O184 1.227 . S
O184 C183 1.227 . S
N185 Co171 2.140 . S
N185 C188 1.346 . S
N185 C189 1.345 . S
C186 C187 1.387 . S
C186 C190 1.391 . S
C187 C186 1.387 . S
C187 C188 1.369 . S
C187 H196 0.929 . S
C188 N185 1.346 . S
C188 C187 1.369 . S
C188 H191 0.928 . S
C189 N185 1.345 . S
C189 C190 1.371 . S
C189 H192 0.931 . S
C190 C186 1.391 . S
C190 C189 1.371 . S
C190 H197 0.930 . S
H191 C188 0.928 . S
H192 C189 0.931 . S
H193 C169 0.930 . S
H194 C166 0.930 . S
H195 C175 0.930 . S
H196 C187 0.929 . S
H197 C190 0.930 . S
C198 C199 1.351 . S
C198 N201 1.368 . S
C198 H203 0.931 . S
C199 C198 1.351 . S
C199 N200 1.373 . S
C199 H227 0.930 . S
N200 C199 1.373 . S
N200 C202 1.340 . S
N201 C198 1.368 . S
N201 C202 1.321 . S
N201 Co204 2.135 . S
C202 N200 1.340 . S
C202 N201 1.321 . S
C202 H226 0.930 . S
H203 C198 0.931 . S
Co204 N201 2.135 . S
Co204 N207 2.121 . S
Co204 O212 2.055 . S
Co204 O215 2.039 . S
Co204 N218 2.140 . S
C205 O206 1.227 . S
C205 O215 1.265 . S
O206 C205 1.227 . S
N207 Co204 2.121 . S
N207 C209 1.375 . S
N207 C210 1.313 . S
C208 C209 1.338 . S
C208 N211 1.377 . S
C208 H228 0.930 . S
C209 N207 1.375 . S
C209 C208 1.338 . S
C209 H213 0.931 . S
C210 N207 1.313 . S
C210 N211 1.344 . S
C210 H214 0.930 . S
N211 C208 1.377 . S
N211 C210 1.344 . S
O212 Co204 2.055 . S
O212 C216 1.253 . S
H213 C209 0.931 . S
H214 C210 0.930 . S
O215 Co204 2.039 . S
O215 C205 1.265 . S
C216 O212 1.253 . S
C216 O217 1.227 . S
O217 C216 1.227 . S
N218 Co204 2.140 . S
N218 C221 1.346 . S
N218 C222 1.345 . S
C219 C220 1.387 . S
C219 C223 1.391 . S
C220 C219 1.387 . S
C220 C221 1.369 . S
C220 H229 0.929 . S
C221 N218 1.346 . S
C221 C220 1.369 . S
C221 H224 0.928 . S
C222 N218 1.345 . S
C222 C223 1.371 . S
C222 H225 0.931 . S
C223 C219 1.391 . S
C223 C222 1.371 . S
C223 H230 0.930 . S
H224 C221 0.928 . S
H225 C222 0.931 . S
H226 C202 0.930 . S
H227 C199 0.930 . S
H228 C208 0.930 . S
H229 C220 0.929 . S
H230 C223 0.930 . S
C231 C232 1.351 . S
C231 N234 1.368 . S
C231 H236 0.931 . S
C232 C231 1.351 . S
C232 N233 1.373 . S
C232 H260 0.930 . S
N233 C232 1.373 . S
N233 C235 1.340 . S
N234 C231 1.368 . S
N234 C235 1.321 . S
N234 Co237 2.135 . S
C235 N233 1.340 . S
C235 N234 1.321 . S
C235 H259 0.930 . S
H236 C231 0.931 . S
Co237 N234 2.135 . S
Co237 N240 2.121 . S
Co237 O245 2.055 . S
Co237 O248 2.039 . S
Co237 N251 2.140 . S
C238 O239 1.227 . S
C238 O248 1.265 . S
O239 C238 1.227 . S
N240 Co237 2.121 . S
N240 C242 1.375 . S
N240 C243 1.313 . S
C241 C242 1.338 . S
C241 N244 1.377 . S
C241 H261 0.930 . S
C242 N240 1.375 . S
C242 C241 1.338 . S
C242 H246 0.931 . S
C243 N240 1.313 . S
C243 N244 1.344 . S
C243 H247 0.930 . S
N244 C241 1.377 . S
N244 C243 1.344 . S
O245 Co237 2.055 . S
O245 C249 1.253 . S
H246 C242 0.931 . S
H247 C243 0.930 . S
O248 Co237 2.039 . S
O248 C238 1.265 . S
C249 O245 1.253 . S
C249 O250 1.227 . S
O250 C249 1.227 . S
N251 Co237 2.140 . S
N251 C254 1.346 . S
N251 C255 1.345 . S
C252 C253 1.387 . S
C252 C256 1.391 . S
C253 C252 1.387 . S
C253 C254 1.369 . S
C253 H262 0.929 . S
C254 N251 1.346 . S
C254 C253 1.369 . S
C254 H257 0.928 . S
C255 N251 1.345 . S
C255 C256 1.371 . S
C255 H258 0.931 . S
C256 C252 1.391 . S
C256 C255 1.371 . S
C256 H263 0.930 . S
H257 C254 0.928 . S
H258 C255 0.931 . S
H259 C235 0.930 . S
H260 C232 0.930 . S
H261 C241 0.930 . S
H262 C253 0.929 . S
H263 C256 0.930 . S
C264 C265 1.351 . S
C264 N267 1.368 . S
C264 H269 0.931 . S
C265 C264 1.351 . S
C265 N266 1.373 . S
C265 H293 0.930 . S
N266 C265 1.373 . S
N266 C268 1.340 . S
N267 C264 1.368 . S
N267 C268 1.321 . S
N267 Co270 2.135 . S
C268 N266 1.340 . S
C268 N267 1.321 . S
C268 H292 0.930 . S
H269 C264 0.931 . S
Co270 N267 2.135 . S
Co270 N273 2.121 . S
Co270 O278 2.055 . S
Co270 O281 2.039 . S
Co270 N284 2.140 . S
C271 O272 1.227 . S
C271 O281 1.265 . S
O272 C271 1.227 . S
N273 Co270 2.121 . S
N273 C275 1.375 . S
N273 C276 1.313 . S
C274 C275 1.338 . S
C274 N277 1.377 . S
C274 H294 0.930 . S
C275 N273 1.375 . S
C275 C274 1.338 . S
C275 H279 0.931 . S
C276 N273 1.313 . S
C276 N277 1.344 . S
C276 H280 0.930 . S
N277 C274 1.377 . S
N277 C276 1.344 . S
O278 Co270 2.055 . S
O278 C282 1.253 . S
H279 C275 0.931 . S
H280 C276 0.930 . S
O281 Co270 2.039 . S
O281 C271 1.265 . S
C282 O278 1.253 . S
C282 O283 1.227 . S
O283 C282 1.227 . S
N284 Co270 2.140 . S
N284 C287 1.346 . S
N284 C288 1.345 . S
C285 C286 1.387 . S
C285 C289 1.391 . S
C286 C285 1.387 . S
C286 C287 1.369 . S
C286 H295 0.929 . S
C287 N284 1.346 . S
C287 C286 1.369 . S
C287 H290 0.928 . S
C288 N284 1.345 . S
C288 C289 1.371 . S
C288 H291 0.931 . S
C289 C285 1.391 . S
C289 C288 1.371 . S
C289 H296 0.930 . S
H290 C287 0.928 . S
H291 C288 0.931 . S
H292 C268 0.930 . S
H293 C265 0.930 . S
H294 C274 0.930 . S
H295 C286 0.929 . S
H296 C289 0.930 . S
C297 C298 1.351 . S
C297 N300 1.368 . S
C297 H302 0.931 . S
C298 C297 1.351 . S
C298 N299 1.373 . S
C298 H326 0.930 . S
N299 C298 1.373 . S
N299 C301 1.340 . S
N300 C297 1.368 . S
N300 C301 1.321 . S
N300 Co303 2.135 . S
C301 N299 1.340 . S
C301 N300 1.321 . S
C301 H325 0.930 . S
H302 C297 0.931 . S
Co303 N300 2.135 . S
Co303 N306 2.121 . S
Co303 O311 2.055 . S
Co303 O314 2.039 . S
Co303 N317 2.140 . S
C304 O305 1.227 . S
C304 O314 1.265 . S
O305 C304 1.227 . S
N306 Co303 2.121 . S
N306 C308 1.375 . S
N306 C309 1.313 . S
C307 C308 1.338 . S
C307 N310 1.377 . S
C307 H327 0.930 . S
C308 N306 1.375 . S
C308 C307 1.338 . S
C308 H312 0.931 . S
C309 N306 1.313 . S
C309 N310 1.344 . S
C309 H313 0.930 . S
N310 C307 1.377 . S
N310 C309 1.344 . S
O311 Co303 2.055 . S
O311 C315 1.253 . S
H312 C308 0.931 . S
H313 C309 0.930 . S
O314 Co303 2.039 . S
O314 C304 1.265 . S
C315 O311 1.253 . S
C315 O316 1.227 . S
O316 C315 1.227 . S
N317 Co303 2.140 . S
N317 C320 1.346 . S
N317 C321 1.345 . S
C318 C319 1.387 . S
C318 C322 1.391 . S
C319 C318 1.387 . S
C319 C320 1.369 . S
C319 H328 0.929 . S
C320 N317 1.346 . S
C320 C319 1.369 . S
C320 H323 0.928 . S
C321 N317 1.345 . S
C321 C322 1.371 . S
C321 H324 0.931 . S
C322 C318 1.391 . S
C322 C321 1.371 . S
C322 H329 0.930 . S
H323 C320 0.928 . S
H324 C321 0.931 . S
H325 C301 0.930 . S
H326 C298 0.930 . S
H327 C307 0.930 . S
H328 C319 0.929 . S
H329 C322 0.930 . S
C330 C331 1.351 . S
C330 N333 1.368 . S
C330 H335 0.931 . S
C331 C330 1.351 . S
C331 N332 1.373 . S
C331 H359 0.930 . S
N332 C331 1.373 . S
N332 C334 1.340 . S
N333 C330 1.368 . S
N333 C334 1.321 . S
N333 Co336 2.135 . S
C334 N332 1.340 . S
C334 N333 1.321 . S
C334 H358 0.930 . S
H335 C330 0.931 . S
Co336 N333 2.135 . S
Co336 N339 2.121 . S
Co336 O344 2.055 . S
Co336 O347 2.039 . S
Co336 N350 2.140 . S
C337 O338 1.227 . S
C337 O347 1.265 . S
O338 C337 1.227 . S
N339 Co336 2.121 . S
N339 C341 1.375 . S
N339 C342 1.313 . S
C340 C341 1.338 . S
C340 N343 1.377 . S
C340 H360 0.930 . S
C341 N339 1.375 . S
C341 C340 1.338 . S
C341 H345 0.931 . S
C342 N339 1.313 . S
C342 N343 1.344 . S
C342 H346 0.930 . S
N343 C340 1.377 . S
N343 C342 1.344 . S
O344 Co336 2.055 . S
O344 C348 1.253 . S
H345 C341 0.931 . S
H346 C342 0.930 . S
O347 Co336 2.039 . S
O347 C337 1.265 . S
C348 O344 1.253 . S
C348 O349 1.227 . S
O349 C348 1.227 . S
N350 Co336 2.140 . S
N350 C353 1.346 . S
N350 C354 1.345 . S
C351 C352 1.387 . S
C351 C355 1.391 . S
C352 C351 1.387 . S
C352 C353 1.369 . S
C352 H361 0.929 . S
C353 N350 1.346 . S
C353 C352 1.369 . S
C353 H356 0.928 . S
C354 N350 1.345 . S
C354 C355 1.371 . S
C354 H357 0.931 . S
C355 C351 1.391 . S
C355 C354 1.371 . S
C355 H362 0.930 . S
H356 C353 0.928 . S
H357 C354 0.931 . S
H358 C334 0.930 . S
H359 C331 0.930 . S
H360 C340 0.930 . S
H361 C352 0.929 . S
H362 C355 0.930 . S
C363 C364 1.351 . S
C363 N366 1.368 . S
C363 H368 0.931 . S
C364 C363 1.351 . S
C364 N365 1.373 . S
C364 H392 0.930 . S
N365 C364 1.373 . S
N365 C367 1.340 . S
N366 C363 1.368 . S
N366 C367 1.321 . S
N366 Co369 2.135 . S
C367 N365 1.340 . S
C367 N366 1.321 . S
C367 H391 0.930 . S
H368 C363 0.931 . S
Co369 N366 2.135 . S
Co369 N372 2.121 . S
Co369 O377 2.055 . S
Co369 O380 2.039 . S
Co369 N383 2.140 . S
C370 O371 1.227 . S
C370 O380 1.265 . S
O371 C370 1.227 . S
N372 Co369 2.121 . S
N372 C374 1.375 . S
N372 C375 1.313 . S
C373 C374 1.338 . S
C373 N376 1.377 . S
C373 H393 0.930 . S
C374 N372 1.375 . S
C374 C373 1.338 . S
C374 H378 0.931 . S
C375 N372 1.313 . S
C375 N376 1.344 . S
C375 H379 0.930 . S
N376 C373 1.377 . S
N376 C375 1.344 . S
O377 Co369 2.055 . S
O377 C381 1.253 . S
H378 C374 0.931 . S
H379 C375 0.930 . S
O380 Co369 2.039 . S
O380 C370 1.265 . S
C381 O377 1.253 . S
C381 O382 1.227 . S
O382 C381 1.227 . S
N383 Co369 2.140 . S
N383 C386 1.346 . S
N383 C387 1.345 . S
C384 C385 1.387 . S
C384 C388 1.391 . S
C385 C384 1.387 . S
C385 C386 1.369 . S
C385 H394 0.929 . S
C386 N383 1.346 . S
C386 C385 1.369 . S
C386 H389 0.928 . S
C387 N383 1.345 . S
C387 C388 1.371 . S
C387 H390 0.931 . S
C388 C384 1.391 . S
C388 C387 1.371 . S
C388 H395 0.930 . S
H389 C386 0.928 . S
H390 C387 0.931 . S
H391 C367 0.930 . S
H392 C364 0.930 . S
H393 C373 0.930 . S
H394 C385 0.929 . S
H395 C388 0.930 . S
H396 C408 0.930 . S
H397 C410 0.930 . S
H398 C411 0.930 . S
H399 C415 0.959 . S
H400 C415 0.959 . S
H401 C415 0.961 . S
H402 C416 0.960 . S
H403 C416 0.961 . S
H404 C416 0.959 . S
H405 C419 0.929 . S
H406 C420 0.931 . S
H407 C422 0.930 . S
C408 H396 0.930 . S
C408 C409 1.399 . S
C408 C413 1.399 . S
C409 C408 1.399 . S
C409 C410 1.376 . S
C410 H397 0.930 . S
C410 C409 1.376 . S
C410 C411 1.388 . S
C411 H398 0.930 . S
C411 C410 1.388 . S
C411 C412 1.390 . S
C412 C411 1.390 . S
C412 C413 1.394 . S
C412 C418 1.465 . S
C413 C408 1.399 . S
C413 C412 1.394 . S
C413 C414 1.516 . S
C414 C413 1.516 . S
C414 C415 1.502 . S
C414 C416 1.561 . S
C414 C417 1.526 . S
C415 H399 0.959 . S
C415 H400 0.959 . S
C415 H401 0.961 . S
C415 C414 1.502 . S
C416 H402 0.960 . S
C416 H403 0.961 . S
C416 H404 0.959 . S
C416 C414 1.561 . S
C417 C414 1.526 . S
C417 C418 1.396 . S
C417 C422 1.390 . S
C418 C412 1.465 . S
C418 C417 1.396 . S
C418 C419 1.399 . S
C419 H405 0.929 . S
C419 C418 1.399 . S
C419 C420 1.385 . S
C420 H406 0.931 . S
C420 C419 1.385 . S
C420 C421 1.389 . S
C421 C420 1.389 . S
C421 C422 1.387 . S
C422 H407 0.930 . S
C422 C417 1.390 . S
C422 C421 1.387 . S
H423 C435 0.930 . S
H424 C437 0.930 . S
H425 C438 0.930 . S
H426 C442 0.959 . S
H427 C442 0.959 . S
H428 C442 0.961 . S
H429 C443 0.960 . S
H430 C443 0.961 . S
H431 C443 0.959 . S
H432 C446 0.929 . S
H433 C447 0.931 . S
H434 C449 0.930 . S
C435 H423 0.930 . S
C435 C436 1.399 . S
C435 C440 1.399 . S
C436 C435 1.399 . S
C436 C437 1.376 . S
C437 H424 0.930 . S
C437 C436 1.376 . S
C437 C438 1.388 . S
C438 H425 0.930 . S
C438 C437 1.388 . S
C438 C439 1.390 . S
C439 C438 1.390 . S
C439 C440 1.394 . S
C439 C445 1.465 . S
C440 C435 1.399 . S
C440 C439 1.394 . S
C440 C441 1.516 . S
C441 C440 1.516 . S
C441 C442 1.502 . S
C441 C443 1.561 . S
C441 C444 1.526 . S
C442 H426 0.959 . S
C442 H427 0.959 . S
C442 H428 0.961 . S
C442 C441 1.502 . S
C443 H429 0.960 . S
C443 H430 0.961 . S
C443 H431 0.959 . S
C443 C441 1.561 . S
C444 C441 1.526 . S
C444 C445 1.396 . S
C444 C449 1.390 . S
C445 C439 1.465 . S
C445 C444 1.396 . S
C445 C446 1.399 . S
C446 H432 0.929 . S
C446 C445 1.399 . S
C446 C447 1.385 . S
C447 H433 0.931 . S
C447 C446 1.385 . S
C447 C448 1.389 . S
C448 C447 1.389 . S
C448 C449 1.387 . S
C449 H434 0.930 . S
C449 C444 1.390 . S
C449 C448 1.387 . S
H450 C462 0.930 . S
H451 C464 0.930 . S
H452 C465 0.930 . S
H453 C469 0.959 . S
H454 C469 0.959 . S
H455 C469 0.961 . S
H456 C470 0.960 . S
H457 C470 0.961 . S
H458 C470 0.959 . S
H459 C473 0.929 . S
H460 C474 0.931 . S
H461 C476 0.930 . S
C462 H450 0.930 . S
C462 C463 1.399 . S
C462 C467 1.399 . S
C463 C462 1.399 . S
C463 C464 1.376 . S
C464 H451 0.930 . S
C464 C463 1.376 . S
C464 C465 1.388 . S
C465 H452 0.930 . S
C465 C464 1.388 . S
C465 C466 1.390 . S
C466 C465 1.390 . S
C466 C467 1.394 . S
C466 C472 1.465 . S
C467 C462 1.399 . S
C467 C466 1.394 . S
C467 C468 1.516 . S
C468 C467 1.516 . S
C468 C469 1.502 . S
C468 C470 1.561 . S
C468 C471 1.526 . S
C469 H453 0.959 . S
C469 H454 0.959 . S
C469 H455 0.961 . S
C469 C468 1.502 . S
C470 H456 0.960 . S
C470 H457 0.961 . S
C470 H458 0.959 . S
C470 C468 1.561 . S
C471 C468 1.526 . S
C471 C472 1.396 . S
C471 C476 1.390 . S
C472 C466 1.465 . S
C472 C471 1.396 . S
C472 C473 1.399 . S
C473 H459 0.929 . S
C473 C472 1.399 . S
C473 C474 1.385 . S
C474 H460 0.931 . S
C474 C473 1.385 . S
C474 C475 1.389 . S
C475 C474 1.389 . S
C475 C476 1.387 . S
C476 H461 0.930 . S
C476 C471 1.390 . S
C476 C475 1.387 . S
H477 C489 0.930 . S
H478 C491 0.930 . S
H479 C492 0.930 . S
H480 C496 0.959 . S
H481 C496 0.959 . S
H482 C496 0.961 . S
H483 C497 0.960 . S
H484 C497 0.961 . S
H485 C497 0.959 . S
H486 C500 0.929 . S
H487 C501 0.931 . S
H488 C503 0.930 . S
C489 H477 0.930 . S
C489 C490 1.399 . S
C489 C494 1.399 . S
C490 C489 1.399 . S
C490 C491 1.376 . S
C491 H478 0.930 . S
C491 C490 1.376 . S
C491 C492 1.388 . S
C492 H479 0.930 . S
C492 C491 1.388 . S
C492 C493 1.390 . S
C493 C492 1.390 . S
C493 C494 1.394 . S
C493 C499 1.465 . S
C494 C489 1.399 . S
C494 C493 1.394 . S
C494 C495 1.516 . S
C495 C494 1.516 . S
C495 C496 1.502 . S
C495 C497 1.561 . S
C495 C498 1.526 . S
C496 H480 0.959 . S
C496 H481 0.959 . S
C496 H482 0.961 . S
C496 C495 1.502 . S
C497 H483 0.960 . S
C497 H484 0.961 . S
C497 H485 0.959 . S
C497 C495 1.561 . S
C498 C495 1.526 . S
C498 C499 1.396 . S
C498 C503 1.390 . S
C499 C493 1.465 . S
C499 C498 1.396 . S
C499 C500 1.399 . S
C500 H486 0.929 . S
C500 C499 1.399 . S
C500 C501 1.385 . S
C501 H487 0.931 . S
C501 C500 1.385 . S
C501 C502 1.389 . S
C502 C501 1.389 . S
C502 C503 1.387 . S
C503 H488 0.930 . S
C503 C498 1.390 . S
C503 C502 1.387 . S
H504 C516 0.930 . S
H505 C518 0.930 . S
H506 C519 0.930 . S
H507 C523 0.959 . S
H508 C523 0.959 . S
H509 C523 0.961 . S
H510 C524 0.960 . S
H511 C524 0.961 . S
H512 C524 0.959 . S
H513 C527 0.929 . S
H514 C528 0.931 . S
H515 C530 0.930 . S
C516 H504 0.930 . S
C516 C517 1.399 . S
C516 C521 1.399 . S
C517 C516 1.399 . S
C517 C518 1.376 . S
C518 H505 0.930 . S
C518 C517 1.376 . S
C518 C519 1.388 . S
C519 H506 0.930 . S
C519 C518 1.388 . S
C519 C520 1.390 . S
C520 C519 1.390 . S
C520 C521 1.394 . S
C520 C526 1.465 . S
C521 C516 1.399 . S
C521 C520 1.394 . S
C521 C522 1.516 . S
C522 C521 1.516 . S
C522 C523 1.502 . S
C522 C524 1.561 . S
C522 C525 1.526 . S
C523 H507 0.959 . S
C523 H508 0.959 . S
C523 H509 0.961 . S
C523 C522 1.502 . S
C524 H510 0.960 . S
C524 H511 0.961 . S
C524 H512 0.959 . S
C524 C522 1.561 . S
C525 C522 1.526 . S
C525 C526 1.396 . S
C525 C530 1.390 . S
C526 C520 1.465 . S
C526 C525 1.396 . S
C526 C527 1.399 . S
C527 H513 0.929 . S
C527 C526 1.399 . S
C527 C528 1.385 . S
C528 H514 0.931 . S
C528 C527 1.385 . S
C528 C529 1.389 . S
C529 C528 1.389 . S
C529 C530 1.387 . S
C530 H515 0.930 . S
C530 C525 1.390 . S
C530 C529 1.387 . S
H531 C543 0.930 . S
H532 C545 0.930 . S
H533 C546 0.930 . S
H534 C550 0.959 . S
H535 C550 0.959 . S
H536 C550 0.961 . S
H537 C551 0.960 . S
H538 C551 0.961 . S
H539 C551 0.959 . S
H540 C554 0.929 . S
H541 C555 0.931 . S
H542 C557 0.930 . S
C543 H531 0.930 . S
C543 C544 1.399 . S
C543 C548 1.399 . S
C544 C543 1.399 . S
C544 C545 1.376 . S
C545 H532 0.930 . S
C545 C544 1.376 . S
C545 C546 1.388 . S
C546 H533 0.930 . S
C546 C545 1.388 . S
C546 C547 1.390 . S
C547 C546 1.390 . S
C547 C548 1.394 . S
C547 C553 1.465 . S
C548 C543 1.399 . S
C548 C547 1.394 . S
C548 C549 1.516 . S
C549 C548 1.516 . S
C549 C550 1.502 . S
C549 C551 1.561 . S
C549 C552 1.526 . S
C550 H534 0.959 . S
C550 H535 0.959 . S
C550 H536 0.961 . S
C550 C549 1.502 . S
C551 H537 0.960 . S
C551 H538 0.961 . S
C551 H539 0.959 . S
C551 C549 1.561 . S
C552 C549 1.526 . S
C552 C553 1.396 . S
C552 C557 1.390 . S
C553 C547 1.465 . S
C553 C552 1.396 . S
C553 C554 1.399 . S
C554 H540 0.929 . S
C554 C553 1.399 . S
C554 C555 1.385 . S
C555 H541 0.931 . S
C555 C554 1.385 . S
C555 C556 1.389 . S
C556 C555 1.389 . S
C556 C557 1.387 . S
C557 H542 0.930 . S
C557 C552 1.390 . S
C557 C556 1.387 . S
H558 C570 0.930 . S
H559 C572 0.930 . S
H560 C573 0.930 . S
H561 C577 0.959 . S
H562 C577 0.959 . S
H563 C577 0.961 . S
H564 C578 0.960 . S
H565 C578 0.961 . S
H566 C578 0.959 . S
H567 C581 0.929 . S
H568 C582 0.931 . S
H569 C584 0.930 . S
C570 H558 0.930 . S
C570 C571 1.399 . S
C570 C575 1.399 . S
C571 C570 1.399 . S
C571 C572 1.376 . S
C572 H559 0.930 . S
C572 C571 1.376 . S
C572 C573 1.388 . S
C573 H560 0.930 . S
C573 C572 1.388 . S
C573 C574 1.390 . S
C574 C573 1.390 . S
C574 C575 1.394 . S
C574 C580 1.465 . S
C575 C570 1.399 . S
C575 C574 1.394 . S
C575 C576 1.516 . S
C576 C575 1.516 . S
C576 C577 1.502 . S
C576 C578 1.561 . S
C576 C579 1.526 . S
C577 H561 0.959 . S
C577 H562 0.959 . S
C577 H563 0.961 . S
C577 C576 1.502 . S
C578 H564 0.960 . S
C578 H565 0.961 . S
C578 H566 0.959 . S
C578 C576 1.561 . S
C579 C576 1.526 . S
C579 C580 1.396 . S
C579 C584 1.390 . S
C580 C574 1.465 . S
C580 C579 1.396 . S
C580 C581 1.399 . S
C581 H567 0.929 . S
C581 C580 1.399 . S
C581 C582 1.385 . S
C582 H568 0.931 . S
C582 C581 1.385 . S
C582 C583 1.389 . S
C583 C582 1.389 . S
C583 C584 1.387 . S
C584 H569 0.930 . S
C584 C579 1.390 . S
C584 C583 1.387 . S
H585 C597 0.930 . S
H586 C599 0.930 . S
H587 C600 0.930 . S
H588 C604 0.959 . S
H589 C604 0.959 . S
H590 C604 0.961 . S
H591 C605 0.960 . S
H592 C605 0.961 . S
H593 C605 0.959 . S
H594 C608 0.929 . S
H595 C609 0.931 . S
H596 C611 0.930 . S
C597 H585 0.930 . S
C597 C598 1.399 . S
C597 C602 1.399 . S
C598 C597 1.399 . S
C598 C599 1.376 . S
C599 H586 0.930 . S
C599 C598 1.376 . S
C599 C600 1.388 . S
C600 H587 0.930 . S
C600 C599 1.388 . S
C600 C601 1.390 . S
C601 C600 1.390 . S
C601 C602 1.394 . S
C601 C607 1.465 . S
C602 C597 1.399 . S
C602 C601 1.394 . S
C602 C603 1.516 . S
C603 C602 1.516 . S
C603 C604 1.502 . S
C603 C605 1.561 . S
C603 C606 1.526 . S
C604 H588 0.959 . S
C604 H589 0.959 . S
C604 H590 0.961 . S
C604 C603 1.502 . S
C605 H591 0.960 . S
C605 H592 0.961 . S
C605 H593 0.959 . S
C605 C603 1.561 . S
C606 C603 1.526 . S
C606 C607 1.396 . S
C606 C611 1.390 . S
C607 C601 1.465 . S
C607 C606 1.396 . S
C607 C608 1.399 . S
C608 H594 0.929 . S
C608 C607 1.399 . S
C608 C609 1.385 . S
C609 H595 0.931 . S
C609 C608 1.385 . S
C609 C610 1.389 . S
C610 C609 1.389 . S
C610 C611 1.387 . S
C611 H596 0.930 . S
C611 C606 1.390 . S
C611 C610 1.387 . S
H612 C624 0.930 . S
H613 C626 0.930 . S
H614 C627 0.930 . S
H615 C631 0.959 . S
H616 C631 0.959 . S
H617 C631 0.961 . S
H618 C632 0.960 . S
H619 C632 0.961 . S
H620 C632 0.959 . S
H621 C635 0.929 . S
H622 C636 0.931 . S
H623 C638 0.930 . S
C624 H612 0.930 . S
C624 C625 1.399 . S
C624 C629 1.399 . S
C625 C624 1.399 . S
C625 C626 1.376 . S
C626 H613 0.930 . S
C626 C625 1.376 . S
C626 C627 1.388 . S
C627 H614 0.930 . S
C627 C626 1.388 . S
C627 C628 1.390 . S
C628 C627 1.390 . S
C628 C629 1.394 . S
C628 C634 1.465 . S
C629 C624 1.399 . S
C629 C628 1.394 . S
C629 C630 1.516 . S
C630 C629 1.516 . S
C630 C631 1.502 . S
C630 C632 1.561 . S
C630 C633 1.526 . S
C631 H615 0.959 . S
C631 H616 0.959 . S
C631 H617 0.961 . S
C631 C630 1.502 . S
C632 H618 0.960 . S
C632 H619 0.961 . S
C632 H620 0.959 . S
C632 C630 1.561 . S
C633 C630 1.526 . S
C633 C634 1.396 . S
C633 C638 1.390 . S
C634 C628 1.465 . S
C634 C633 1.396 . S
C634 C635 1.399 . S
C635 H621 0.929 . S
C635 C634 1.399 . S
C635 C636 1.385 . S
C636 H622 0.931 . S
C636 C635 1.385 . S
C636 C637 1.389 . S
C637 C636 1.389 . S
C637 C638 1.387 . S
C638 H623 0.930 . S
C638 C633 1.390 . S
C638 C637 1.387 . S
H639 C651 0.930 . S
H640 C653 0.930 . S
H641 C654 0.930 . S
H642 C658 0.959 . S
H643 C658 0.959 . S
H644 C658 0.961 . S
H645 C659 0.960 . S
H646 C659 0.961 . S
H647 C659 0.959 . S
H648 C662 0.929 . S
H649 C663 0.931 . S
H650 C665 0.930 . S
C651 H639 0.930 . S
C651 C652 1.399 . S
C651 C656 1.399 . S
C652 C651 1.399 . S
C652 C653 1.376 . S
C653 H640 0.930 . S
C653 C652 1.376 . S
C653 C654 1.388 . S
C654 H641 0.930 . S
C654 C653 1.388 . S
C654 C655 1.390 . S
C655 C654 1.390 . S
C655 C656 1.394 . S
C655 C661 1.465 . S
C656 C651 1.399 . S
C656 C655 1.394 . S
C656 C657 1.516 . S
C657 C656 1.516 . S
C657 C658 1.502 . S
C657 C659 1.561 . S
C657 C660 1.526 . S
C658 H642 0.959 . S
C658 H643 0.959 . S
C658 H644 0.961 . S
C658 C657 1.502 . S
C659 H645 0.960 . S
C659 H646 0.961 . S
C659 H647 0.959 . S
C659 C657 1.561 . S
C660 C657 1.526 . S
C660 C661 1.396 . S
C660 C665 1.390 . S
C661 C655 1.465 . S
C661 C660 1.396 . S
C661 C662 1.399 . S
C662 H648 0.929 . S
C662 C661 1.399 . S
C662 C663 1.385 . S
C663 H649 0.931 . S
C663 C662 1.385 . S
C663 C664 1.389 . S
C664 C663 1.389 . S
C664 C665 1.387 . S
C665 H650 0.930 . S
C665 C660 1.390 . S
C665 C664 1.387 . S
H666 C678 0.930 . S
H667 C680 0.930 . S
H668 C681 0.930 . S
H669 C685 0.959 . S
H670 C685 0.959 . S
H671 C685 0.961 . S
H672 C686 0.960 . S
H673 C686 0.961 . S
H674 C686 0.959 . S
H675 C689 0.929 . S
H676 C690 0.931 . S
H677 C692 0.930 . S
C678 H666 0.930 . S
C678 C679 1.399 . S
C678 C683 1.399 . S
C679 C678 1.399 . S
C679 C680 1.376 . S
C680 H667 0.930 . S
C680 C679 1.376 . S
C680 C681 1.388 . S
C681 H668 0.930 . S
C681 C680 1.388 . S
C681 C682 1.390 . S
C682 C681 1.390 . S
C682 C683 1.394 . S
C682 C688 1.465 . S
C683 C678 1.399 . S
C683 C682 1.394 . S
C683 C684 1.516 . S
C684 C683 1.516 . S
C684 C685 1.502 . S
C684 C686 1.561 . S
C684 C687 1.526 . S
C685 H669 0.959 . S
C685 H670 0.959 . S
C685 H671 0.961 . S
C685 C684 1.502 . S
C686 H672 0.960 . S
C686 H673 0.961 . S
C686 H674 0.959 . S
C686 C684 1.561 . S
C687 C684 1.526 . S
C687 C688 1.396 . S
C687 C692 1.390 . S
C688 C682 1.465 . S
C688 C687 1.396 . S
C688 C689 1.399 . S
C689 H675 0.929 . S
C689 C688 1.399 . S
C689 C690 1.385 . S
C690 H676 0.931 . S
C690 C689 1.385 . S
C690 C691 1.389 . S
C691 C690 1.389 . S
C691 C692 1.387 . S
C692 H677 0.930 . S
C692 C687 1.390 . S
C692 C691 1.387 . S
H693 C705 0.930 . S
H694 C707 0.930 . S
H695 C708 0.930 . S
H696 C712 0.959 . S
H697 C712 0.959 . S
H698 C712 0.961 . S
H699 C713 0.960 . S
H700 C713 0.961 . S
H701 C713 0.959 . S
H702 C716 0.929 . S
H703 C717 0.931 . S
H704 C719 0.930 . S
C705 H693 0.930 . S
C705 C706 1.399 . S
C705 C710 1.399 . S
C706 C705 1.399 . S
C706 C707 1.376 . S
C707 H694 0.930 . S
C707 C706 1.376 . S
C707 C708 1.388 . S
C708 H695 0.930 . S
C708 C707 1.388 . S
C708 C709 1.390 . S
C709 C708 1.390 . S
C709 C710 1.394 . S
C709 C715 1.465 . S
C710 C705 1.399 . S
C710 C709 1.394 . S
C710 C711 1.516 . S
C711 C710 1.516 . S
C711 C712 1.502 . S
C711 C713 1.561 . S
C711 C714 1.526 . S
C712 H696 0.959 . S
C712 H697 0.959 . S
C712 H698 0.961 . S
C712 C711 1.502 . S
C713 H699 0.960 . S
C713 H700 0.961 . S
C713 H701 0.959 . S
C713 C711 1.561 . S
C714 C711 1.526 . S
C714 C715 1.396 . S
C714 C719 1.390 . S
C715 C709 1.465 . S
C715 C714 1.396 . S
C715 C716 1.399 . S
C716 H702 0.929 . S
C716 C715 1.399 . S
C716 C717 1.385 . S
C717 H703 0.931 . S
C717 C716 1.385 . S
C717 C718 1.389 . S
C718 C717 1.389 . S
C718 C719 1.387 . S
C719 H704 0.930 . S
C719 C714 1.390 . S
C719 C718 1.387 . S
H720 C732 0.930 . S
H721 C734 0.930 . S
H722 C735 0.930 . S
H723 C739 0.959 . S
H724 C739 0.959 . S
H725 C739 0.961 . S
H726 C740 0.960 . S
H727 C740 0.961 . S
H728 C740 0.959 . S
H729 C743 0.929 . S
H730 C744 0.931 . S
H731 C746 0.930 . S
C732 H720 0.930 . S
C732 C733 1.399 . S
C732 C737 1.399 . S
C733 C732 1.399 . S
C733 C734 1.376 . S
C734 H721 0.930 . S
C734 C733 1.376 . S
C734 C735 1.388 . S
C735 H722 0.930 . S
C735 C734 1.388 . S
C735 C736 1.390 . S
C736 C735 1.390 . S
C736 C737 1.394 . S
C736 C742 1.465 . S
C737 C732 1.399 . S
C737 C736 1.394 . S
C737 C738 1.516 . S
C738 C737 1.516 . S
C738 C739 1.502 . S
C738 C740 1.561 . S
C738 C741 1.526 . S
C739 H723 0.959 . S
C739 H724 0.959 . S
C739 H725 0.961 . S
C739 C738 1.502 . S
C740 H726 0.960 . S
C740 H727 0.961 . S
C740 H728 0.959 . S
C740 C738 1.561 . S
C741 C738 1.526 . S
C741 C742 1.396 . S
C741 C746 1.390 . S
C742 C736 1.465 . S
C742 C741 1.396 . S
C742 C743 1.399 . S
C743 H729 0.929 . S
C743 C742 1.399 . S
C743 C744 1.385 . S
C744 H730 0.931 . S
C744 C743 1.385 . S
C744 C745 1.389 . S
C745 C744 1.389 . S
C745 C746 1.387 . S
C746 H731 0.930 . S
C746 C741 1.390 . S
C746 C745 1.387 . S
H747 C759 0.930 . S
H748 C761 0.930 . S
H749 C762 0.930 . S
H750 C766 0.959 . S
H751 C766 0.959 . S
H752 C766 0.961 . S
H753 C767 0.960 . S
H754 C767 0.961 . S
H755 C767 0.959 . S
H756 C770 0.929 . S
H757 C771 0.931 . S
H758 C773 0.930 . S
C759 H747 0.930 . S
C759 C760 1.399 . S
C759 C764 1.399 . S
C760 C759 1.399 . S
C760 C761 1.376 . S
C761 H748 0.930 . S
C761 C760 1.376 . S
C761 C762 1.388 . S
C762 H749 0.930 . S
C762 C761 1.388 . S
C762 C763 1.390 . S
C763 C762 1.390 . S
C763 C764 1.394 . S
C763 C769 1.465 . S
C764 C759 1.399 . S
C764 C763 1.394 . S
C764 C765 1.516 . S
C765 C764 1.516 . S
C765 C766 1.502 . S
C765 C767 1.561 . S
C765 C768 1.526 . S
C766 H750 0.959 . S
C766 H751 0.959 . S
C766 H752 0.961 . S
C766 C765 1.502 . S
C767 H753 0.960 . S
C767 H754 0.961 . S
C767 H755 0.959 . S
C767 C765 1.561 . S
C768 C765 1.526 . S
C768 C769 1.396 . S
C768 C773 1.390 . S
C769 C763 1.465 . S
C769 C768 1.396 . S
C769 C770 1.399 . S
C770 H756 0.929 . S
C770 C769 1.399 . S
C770 C771 1.385 . S
C771 H757 0.931 . S
C771 C770 1.385 . S
C771 C772 1.389 . S
C772 C771 1.389 . S
C772 C773 1.387 . S
C773 H758 0.930 . S
C773 C768 1.390 . S
C773 C772 1.387 . S
H774 C786 0.930 . S
H775 C788 0.930 . S
H776 C789 0.930 . S
H777 C793 0.959 . S
H778 C793 0.959 . S
H779 C793 0.961 . S
H780 C794 0.960 . S
H781 C794 0.961 . S
H782 C794 0.959 . S
H783 C797 0.929 . S
H784 C798 0.931 . S
H785 C800 0.930 . S
C786 H774 0.930 . S
C786 C787 1.399 . S
C786 C791 1.399 . S
C787 C786 1.399 . S
C787 C788 1.376 . S
C788 H775 0.930 . S
C788 C787 1.376 . S
C788 C789 1.388 . S
C789 H776 0.930 . S
C789 C788 1.388 . S
C789 C790 1.390 . S
C790 C789 1.390 . S
C790 C791 1.394 . S
C790 C796 1.465 . S
C791 C786 1.399 . S
C791 C790 1.394 . S
C791 C792 1.516 . S
C792 C791 1.516 . S
C792 C793 1.502 . S
C792 C794 1.561 . S
C792 C795 1.526 . S
C793 H777 0.959 . S
C793 H778 0.959 . S
C793 H779 0.961 . S
C793 C792 1.502 . S
C794 H780 0.960 . S
C794 H781 0.961 . S
C794 H782 0.959 . S
C794 C792 1.561 . S
C795 C792 1.526 . S
C795 C796 1.396 . S
C795 C800 1.390 . S
C796 C790 1.465 . S
C796 C795 1.396 . S
C796 C797 1.399 . S
C797 H783 0.929 . S
C797 C796 1.399 . S
C797 C798 1.385 . S
C798 H784 0.931 . S
C798 C797 1.385 . S
C798 C799 1.389 . S
C799 C798 1.389 . S
C799 C800 1.387 . S
C800 H785 0.930 . S
C800 C795 1.390 . S
C800 C799 1.387 . S
H801 C813 0.930 . S
H802 C815 0.930 . S
H803 C816 0.930 . S
H804 C820 0.959 . S
H805 C820 0.959 . S
H806 C820 0.961 . S
H807 C821 0.960 . S
H808 C821 0.961 . S
H809 C821 0.959 . S
H810 C824 0.929 . S
H811 C825 0.931 . S
H812 C827 0.930 . S
C813 H801 0.930 . S
C813 C814 1.399 . S
C813 C818 1.399 . S
C814 C813 1.399 . S
C814 C815 1.376 . S
C815 H802 0.930 . S
C815 C814 1.376 . S
C815 C816 1.388 . S
C816 H803 0.930 . S
C816 C815 1.388 . S
C816 C817 1.390 . S
C817 C816 1.390 . S
C817 C818 1.394 . S
C817 C823 1.465 . S
C818 C813 1.399 . S
C818 C817 1.394 . S
C818 C819 1.516 . S
C819 C818 1.516 . S
C819 C820 1.502 . S
C819 C821 1.561 . S
C819 C822 1.526 . S
C820 H804 0.959 . S
C820 H805 0.959 . S
C820 H806 0.961 . S
C820 C819 1.502 . S
C821 H807 0.960 . S
C821 H808 0.961 . S
C821 H809 0.959 . S
C821 C819 1.561 . S
C822 C819 1.526 . S
C822 C823 1.396 . S
C822 C827 1.390 . S
C823 C817 1.465 . S
C823 C822 1.396 . S
C823 C824 1.399 . S
C824 H810 0.929 . S
C824 C823 1.399 . S
C824 C825 1.385 . S
C825 H811 0.931 . S
C825 C824 1.385 . S
C825 C826 1.389 . S
C826 C825 1.389 . S
C826 C827 1.387 . S
C827 H812 0.930 . S
C827 C822 1.390 . S
C827 C826 1.387 . S
H828 C840 0.930 . S
H829 C842 0.930 . S
H830 C843 0.930 . S
H831 C847 0.959 . S
H832 C847 0.959 . S
H833 C847 0.961 . S
H834 C848 0.960 . S
H835 C848 0.961 . S
H836 C848 0.959 . S
H837 C851 0.929 . S
H838 C852 0.931 . S
H839 C854 0.930 . S
C840 H828 0.930 . S
C840 C841 1.399 . S
C840 C845 1.399 . S
C841 C840 1.399 . S
C841 C842 1.376 . S
C842 H829 0.930 . S
C842 C841 1.376 . S
C842 C843 1.388 . S
C843 H830 0.930 . S
C843 C842 1.388 . S
C843 C844 1.390 . S
C844 C843 1.390 . S
C844 C845 1.394 . S
C844 C850 1.465 . S
C845 C840 1.399 . S
C845 C844 1.394 . S
C845 C846 1.516 . S
C846 C845 1.516 . S
C846 C847 1.502 . S
C846 C848 1.561 . S
C846 C849 1.526 . S
C847 H831 0.959 . S
C847 H832 0.959 . S
C847 H833 0.961 . S
C847 C846 1.502 . S
C848 H834 0.960 . S
C848 H835 0.961 . S
C848 H836 0.959 . S
C848 C846 1.561 . S
C849 C846 1.526 . S
C849 C850 1.396 . S
C849 C854 1.390 . S
C850 C844 1.465 . S
C850 C849 1.396 . S
C850 C851 1.399 . S
C851 H837 0.929 . S
C851 C850 1.399 . S
C851 C852 1.385 . S
C852 H838 0.931 . S
C852 C851 1.385 . S
C852 C853 1.389 . S
C853 C852 1.389 . S
C853 C854 1.387 . S
C854 H839 0.930 . S
C854 C849 1.390 . S
C854 C853 1.387 . S
H855 C867 0.930 . S
H856 C869 0.930 . S
H857 C870 0.930 . S
H858 C874 0.959 . S
H859 C874 0.959 . S
H860 C874 0.961 . S
H861 C875 0.960 . S
H862 C875 0.961 . S
H863 C875 0.959 . S
H864 C878 0.929 . S
H865 C879 0.931 . S
H866 C881 0.930 . S
C867 H855 0.930 . S
C867 C868 1.399 . S
C867 C872 1.399 . S
C868 C867 1.399 . S
C868 C869 1.376 . S
C869 H856 0.930 . S
C869 C868 1.376 . S
C869 C870 1.388 . S
C870 H857 0.930 . S
C870 C869 1.388 . S
C870 C871 1.390 . S
C871 C870 1.390 . S
C871 C872 1.394 . S
C871 C877 1.465 . S
C872 C867 1.399 . S
C872 C871 1.394 . S
C872 C873 1.516 . S
C873 C872 1.516 . S
C873 C874 1.502 . S
C873 C875 1.561 . S
C873 C876 1.526 . S
C874 H858 0.959 . S
C874 H859 0.959 . S
C874 H860 0.961 . S
C874 C873 1.502 . S
C875 H861 0.960 . S
C875 H862 0.961 . S
C875 H863 0.959 . S
C875 C873 1.561 . S
C876 C873 1.526 . S
C876 C877 1.396 . S
C876 C881 1.390 . S
C877 C871 1.465 . S
C877 C876 1.396 . S
C877 C878 1.399 . S
C878 H864 0.929 . S
C878 C877 1.399 . S
C878 C879 1.385 . S
C879 H865 0.931 . S
C879 C878 1.385 . S
C879 C880 1.389 . S
C880 C879 1.389 . S
C880 C881 1.387 . S
C881 H866 0.930 . S
C881 C876 1.390 . S
C881 C880 1.387 . S
H882 C894 0.930 . S
H883 C896 0.918 1_554 S
H884 C897 0.930 . S
H885 C901 0.959 . S
H886 C901 0.959 . S
H887 C901 0.961 . S
H888 C902 0.960 . S
H889 C902 0.961 . S
H890 C902 0.959 . S
H891 C905 0.929 . S
H892 C906 0.931 . S
H893 C908 0.930 1_556 S
C894 H882 0.930 . S
C894 C895 1.399 . S
C894 C899 1.399 . S
C895 C894 1.399 . S
C895 C896 1.408 . S
C896 H883 0.918 1_556 S
C896 C895 1.408 . S
C896 C897 1.369 1_556 S
C897 H884 0.930 . S
C897 C896 1.369 1_554 S
C897 C898 1.390 . S
C898 C897 1.390 . S
C898 C899 1.394 1_554 S
C898 C904 1.465 1_565 S
C899 C894 1.399 . S
C899 C898 1.394 1_556 S
C899 C900 1.516 1_565 S
C900 C899 1.516 1_545 S
C900 C901 1.502 . S
C900 C902 1.561 . S
C900 C903 1.526 . S
C901 H885 0.959 . S
C901 H886 0.959 . S
C901 H887 0.961 . S
C901 C900 1.502 . S
C902 H888 0.960 . S
C902 H889 0.961 . S
C902 H890 0.959 . S
C902 C900 1.561 . S
C903 C900 1.526 . S
C903 C904 1.396 1_556 S
C903 C908 1.390 1_556 S
C904 C898 1.465 1_545 S
C904 C903 1.396 1_554 S
C904 C905 1.399 . S
C905 H891 0.929 . S
C905 C904 1.399 . S
C905 C906 1.385 . S
C906 H892 0.931 . S
C906 C905 1.385 . S
C906 C907 1.389 . S
C907 C906 1.389 . S
C907 C908 1.387 . S
C908 H893 0.930 1_554 S
C908 C903 1.390 1_554 S
C908 C907 1.387 . S
H909 C921 0.930 . S
H910 C923 0.930 . S
H911 C924 0.930 . S
H912 C928 0.959 . S
H913 C928 0.959 . S
H914 C928 0.961 . S
H915 C929 0.960 . S
H916 C929 0.961 . S
H917 C929 0.959 . S
H918 C932 0.929 . S
H919 C933 0.931 . S
H920 C935 0.930 . S
C921 H909 0.930 . S
C921 C922 1.399 . S
C921 C926 1.399 . S
C922 C921 1.399 . S
C922 C923 1.376 . S
C923 H910 0.930 . S
C923 C922 1.376 . S
C923 C924 1.388 . S
C924 H911 0.930 . S
C924 C923 1.388 . S
C924 C925 1.390 . S
C925 C924 1.390 . S
C925 C926 1.394 . S
C925 C931 1.465 . S
C926 C921 1.399 . S
C926 C925 1.394 . S
C926 C927 1.516 . S
C927 C926 1.516 . S
C927 C928 1.502 . S
C927 C929 1.561 . S
C927 C930 1.526 . S
C928 H912 0.959 . S
C928 H913 0.959 . S
C928 H914 0.961 . S
C928 C927 1.502 . S
C929 H915 0.960 . S
C929 H916 0.961 . S
C929 H917 0.959 . S
C929 C927 1.561 . S
C930 C927 1.526 . S
C930 C931 1.396 . S
C930 C935 1.390 . S
C931 C925 1.465 . S
C931 C930 1.396 . S
C931 C932 1.399 . S
C932 H918 0.929 . S
C932 C931 1.399 . S
C932 C933 1.385 . S
C933 H919 0.931 . S
C933 C932 1.385 . S
C933 C934 1.389 . S
C934 C933 1.389 . S
C934 C935 1.387 . S
C935 H920 0.930 . S
C935 C930 1.390 . S
C935 C934 1.387 . S
H936 C948 0.930 . S
H937 C950 0.930 . S
H938 C951 0.930 . S
H939 C955 0.959 . S
H940 C955 0.959 1_455 S
H941 C955 0.961 . S
H942 C956 0.960 1_655 S
H943 C956 0.961 . S
H944 C956 0.959 . S
H945 C959 0.929 . S
H946 C960 0.931 . S
H947 C962 0.930 . S
C948 H936 0.930 . S
C948 C949 1.399 . S
C948 C953 1.399 . S
C949 C948 1.399 . S
C949 C950 1.376 . S
C950 H937 0.930 . S
C950 C949 1.376 . S
C950 C951 1.388 . S
C951 H938 0.930 . S
C951 C950 1.388 . S
C951 C952 1.390 . S
C952 C951 1.390 . S
C952 C953 1.394 . S
C952 C958 1.465 1_654 S
C953 C948 1.399 . S
C953 C952 1.394 . S
C953 C954 1.523 1_655 S
C954 C953 1.523 1_455 S
C954 C955 1.489 1_454 S
C954 C956 1.576 . S
C954 C957 1.520 1_554 S
C955 H939 0.959 . S
C955 H940 0.959 1_655 S
C955 H941 0.961 . S
C955 C954 1.489 1_656 S
C956 H942 0.960 1_455 S
C956 H943 0.961 . S
C956 H944 0.959 . S
C956 C954 1.576 . S
C957 C954 1.520 1_556 S
C957 C958 1.396 . S
C957 C962 1.390 . S
C958 C952 1.465 1_456 S
C958 C957 1.396 . S
C958 C959 1.399 . S
C959 H945 0.929 . S
C959 C958 1.399 . S
C959 C960 1.385 . S
C960 H946 0.931 . S
C960 C959 1.385 . S
C960 C961 1.389 . S
C961 C960 1.389 . S
C961 C962 1.387 . S
C962 H947 0.930 . S
C962 C957 1.390 . S
C962 C961 1.387 . S
H963 C975 0.930 . S
H964 C977 0.930 . S
H965 C978 0.930 . S
H966 C982 0.959 . S
H967 C982 0.959 . S
H968 C982 0.961 1_565 S
H969 C983 0.960 . S
H970 C983 0.961 . S
H971 C983 0.959 . S
H972 C986 0.929 . S
H973 C987 0.931 . S
H974 C989 0.930 . S
C975 H963 0.930 . S
C975 C976 1.399 . S
C975 C980 1.399 . S
C976 C975 1.399 . S
C976 C977 1.376 . S
C977 H964 0.930 . S
C977 C976 1.376 . S
C977 C978 1.388 . S
C978 H965 0.930 . S
C978 C977 1.388 . S
C978 C979 1.390 . S
C979 C978 1.390 . S
C979 C980 1.394 . S
C979 C985 1.465 1_565 S
C980 C975 1.399 . S
C980 C979 1.394 . S
C980 C981 1.516 . S
C981 C980 1.516 . S
C981 C982 1.502 1_565 S
C981 C983 1.561 . S
C981 C984 1.526 1_565 S
C982 H966 0.959 . S
C982 H967 0.959 . S
C982 H968 0.961 1_545 S
C982 C981 1.502 1_545 S
C983 H969 0.960 . S
C983 H970 0.961 . S
C983 H971 0.959 . S
C983 C981 1.561 . S
C984 C981 1.526 1_545 S
C984 C985 1.396 . S
C984 C989 1.390 . S
C985 C979 1.465 1_545 S
C985 C984 1.396 . S
C985 C986 1.399 . S
C986 H972 0.929 . S
C986 C985 1.399 . S
C986 C987 1.385 . S
C987 H973 0.931 . S
C987 C986 1.385 . S
C987 C988 1.389 . S
C988 C987 1.389 . S
C988 C989 1.387 . S
C989 H974 0.930 . S
C989 C984 1.390 . S
C989 C988 1.387 . S
H990 C1002 0.930 . S
H991 C1004 0.929 1_556 S
H992 C1005 0.930 . S
H993 C1009 0.959 . S
H994 C1009 0.959 . S
H995 C1009 0.961 . S
H996 C1010 0.960 . S
H997 C1010 0.961 . S
H998 C1010 0.959 . S
H999 C1013 0.929 . S
H1000 C1014 0.931 . S
H1001 C1016 0.930 1_554 S
C1002 H990 0.930 . S
C1002 C1003 1.399 . S
C1002 C1007 1.399 . S
C1003 C1002 1.399 . S
C1003 C1004 1.381 . S
C1004 H991 0.929 1_554 S
C1004 C1003 1.381 . S
C1004 C1005 1.386 1_554 S
C1005 H992 0.930 . S
C1005 C1004 1.386 1_556 S
C1005 C1006 1.390 . S
C1006 C1005 1.390 . S
C1006 C1007 1.394 1_556 S
C1006 C1012 1.465 . S
C1007 C1002 1.399 . S
C1007 C1006 1.394 1_554 S
C1007 C1008 1.516 . S
C1008 C1007 1.516 . S
C1008 C1009 1.502 . S
C1008 C1010 1.561 . S
C1008 C1011 1.526 1_554 S
C1009 H993 0.959 . S
C1009 H994 0.959 . S
C1009 H995 0.961 . S
C1009 C1008 1.502 . S
C1010 H996 0.960 . S
C1010 H997 0.961 . S
C1010 H998 0.959 . S
C1010 C1008 1.561 . S
C1011 C1008 1.526 1_556 S
C1011 C1012 1.396 . S
C1011 C1016 1.390 . S
C1012 C1006 1.465 . S
C1012 C1011 1.396 . S
C1012 C1013 1.399 . S
C1013 H999 0.929 . S
C1013 C1012 1.399 . S
C1013 C1014 1.385 . S
C1014 H1000 0.931 . S
C1014 C1013 1.385 . S
C1014 C1015 1.389 . S
C1015 C1014 1.389 . S
C1015 C1016 1.387 . S
C1016 H1001 0.930 1_556 S
C1016 C1011 1.390 . S
C1016 C1015 1.387 . S
H1017 C1029 0.930 . S
H1018 C1031 0.930 . S
H1019 C1032 0.930 . S
H1020 C1036 0.959 . S
H1021 C1036 0.959 . S
H1022 C1036 0.961 . S
H1023 C1037 0.960 . S
H1024 C1037 0.961 . S
H1025 C1037 0.959 . S
H1026 C1040 0.945 . S
H1027 C1041 0.931 . S
H1028 C1043 0.930 . S
C1029 H1017 0.930 . S
C1029 C1030 1.399 . S
C1029 C1034 1.399 . S
C1030 C1029 1.399 . S
C1030 C1031 1.376 . S
C1031 H1018 0.930 . S
C1031 C1030 1.376 . S
C1031 C1032 1.388 . S
C1032 H1019 0.930 . S
C1032 C1031 1.388 . S
C1032 C1033 1.390 . S
C1033 C1032 1.390 . S
C1033 C1034 1.394 . S
C1033 C1039 1.465 1_655 S
C1034 C1029 1.399 . S
C1034 C1033 1.394 . S
C1034 C1035 1.516 1_655 S
C1035 C1034 1.516 1_455 S
C1035 C1036 1.502 . S
C1035 C1037 1.561 . S
C1035 C1038 1.526 . S
C1036 H1020 0.959 . S
C1036 H1021 0.959 . S
C1036 H1022 0.961 . S
C1036 C1035 1.502 . S
C1037 H1023 0.960 . S
C1037 H1024 0.961 . S
C1037 H1025 0.959 . S
C1037 C1035 1.561 . S
C1038 C1035 1.526 . S
C1038 C1039 1.396 . S
C1038 C1043 1.390 . S
C1039 C1033 1.465 1_455 S
C1039 C1038 1.396 . S
C1039 C1040 1.399 . S
C1040 H1026 0.945 . S
C1040 C1039 1.399 . S
C1040 C1041 1.385 . S
C1041 H1027 0.931 . S
C1041 C1040 1.385 . S
C1041 C1042 1.389 . S
C1042 C1041 1.389 . S
C1042 C1043 1.387 . S
C1043 H1028 0.930 . S
C1043 C1038 1.390 . S
C1043 C1042 1.387 . S
H1044 C1056 0.930 . S
H1045 C1058 0.930 . S
H1046 C1059 0.930 . S
H1047 C1063 0.959 . S
H1048 C1063 0.959 . S
H1049 C1063 0.961 . S
H1050 C1064 0.960 . S
H1051 C1064 0.961 . S
H1052 C1064 0.959 . S
H1053 C1067 0.929 1_545 S
H1054 C1068 0.931 . S
H1055 C1070 0.930 . S
C1056 H1044 0.930 . S
C1056 C1057 1.399 . S
C1056 C1061 1.399 . S
C1057 C1056 1.399 . S
C1057 C1058 1.376 . S
C1058 H1045 0.930 . S
C1058 C1057 1.376 . S
C1058 C1059 1.388 1_554 S
C1059 H1046 0.930 . S
C1059 C1058 1.388 1_556 S
C1059 C1060 1.390 . S
C1060 C1059 1.390 . S
C1060 C1061 1.394 1_556 S
C1060 C1066 1.465 1_545 S
C1061 C1056 1.399 . S
C1061 C1060 1.394 1_554 S
C1061 C1062 1.516 1_545 S
C1062 C1061 1.516 1_565 S
C1062 C1063 1.502 . S
C1062 C1064 1.561 . S
C1062 C1065 1.526 1_554 S
C1063 H1047 0.959 . S
C1063 H1048 0.959 . S
C1063 H1049 0.961 . S
C1063 C1062 1.502 . S
C1064 H1050 0.960 . S
C1064 H1051 0.961 . S
C1064 H1052 0.959 . S
C1064 C1062 1.561 . S
C1065 C1062 1.526 1_556 S
C1065 C1066 1.396 . S
C1065 C1070 1.390 . S
C1066 C1060 1.465 1_565 S
C1066 C1065 1.396 . S
C1066 C1067 1.399 . S
C1067 H1053 0.929 1_565 S
C1067 C1066 1.399 . S
C1067 C1068 1.385 . S
C1068 H1054 0.931 . S
C1068 C1067 1.385 . S
C1068 C1069 1.389 . S
C1069 C1068 1.389 . S
C1069 C1070 1.387 . S
C1070 H1055 0.930 . S
C1070 C1065 1.390 . S
C1070 C1069 1.387 . S
H1071 C1083 0.930 . S
H1072 C1085 0.930 . S
H1073 C1086 0.930 . S
H1074 C1090 0.959 . S
H1075 C1090 0.959 . S
H1076 C1090 0.961 . S
H1077 C1091 0.960 . S
H1078 C1091 0.961 . S
H1079 C1091 0.959 . S
H1080 C1094 0.929 . S
H1081 C1095 0.931 . S
H1082 C1097 0.930 . S
C1083 H1071 0.930 . S
C1083 C1084 1.399 . S
C1083 C1088 1.399 . S
C1084 C1083 1.399 . S
C1084 C1085 1.376 . S
C1085 H1072 0.930 . S
C1085 C1084 1.376 . S
C1085 C1086 1.388 . S
C1086 H1073 0.930 . S
C1086 C1085 1.388 . S
C1086 C1087 1.390 . S
C1087 C1086 1.390 . S
C1087 C1088 1.394 . S
C1087 C1093 1.465 . S
C1088 C1083 1.399 . S
C1088 C1087 1.394 . S
C1088 C1089 1.516 . S
C1089 C1088 1.516 . S
C1089 C1090 1.502 . S
C1089 C1091 1.561 . S
C1089 C1092 1.526 . S
C1090 H1074 0.959 . S
C1090 H1075 0.959 . S
C1090 H1076 0.961 . S
C1090 C1089 1.502 . S
C1091 H1077 0.960 . S
C1091 H1078 0.961 . S
C1091 H1079 0.959 . S
C1091 C1089 1.561 . S
C1092 C1089 1.526 . S
C1092 C1093 1.396 . S
C1092 C1097 1.390 . S
C1093 C1087 1.465 . S
C1093 C1092 1.396 . S
C1093 C1094 1.399 . S
C1094 H1080 0.929 . S
C1094 C1093 1.399 . S
C1094 C1095 1.385 . S
C1095 H1081 0.931 . S
C1095 C1094 1.385 . S
C1095 C1096 1.389 . S
C1096 C1095 1.389 . S
C1096 C1097 1.387 . S
C1097 H1082 0.930 . S
C1097 C1092 1.390 . S
C1097 C1096 1.387 . S
H1098 C1110 0.930 . S
H1099 C1112 0.930 . S
H1100 C1113 0.930 1_556 S
H1101 C1117 0.959 1_656 S
H1102 C1117 0.959 . S
H1103 C1117 0.961 1_655 S
H1104 C1118 0.960 . S
H1105 C1118 0.961 . S
H1106 C1118 0.959 . S
H1107 C1121 0.929 . S
H1108 C1122 0.931 . S
H1109 C1124 0.930 . S
C1110 H1098 0.930 . S
C1110 C1111 1.399 . S
C1110 C1115 1.399 . S
C1111 C1110 1.399 . S
C1111 C1112 1.376 . S
C1112 H1099 0.930 . S
C1112 C1111 1.376 . S
C1112 C1113 1.388 . S
C1113 H1100 0.930 1_554 S
C1113 C1112 1.388 . S
C1113 C1114 1.390 . S
C1114 C1113 1.390 . S
C1114 C1115 1.394 . S
C1114 C1120 1.465 1_654 S
C1115 C1110 1.399 . S
C1115 C1114 1.394 . S
C1115 C1116 1.516 1_655 S
C1116 C1115 1.516 1_455 S
C1116 C1117 1.502 . S
C1116 C1118 1.561 . S
C1116 C1119 1.526 1_554 S
C1117 H1101 0.959 1_454 S
C1117 H1102 0.959 . S
C1117 H1103 0.961 1_455 S
C1117 C1116 1.502 . S
C1118 H1104 0.960 . S
C1118 H1105 0.961 . S
C1118 H1106 0.959 . S
C1118 C1116 1.561 . S
C1119 C1116 1.526 1_556 S
C1119 C1120 1.396 . S
C1119 C1124 1.390 . S
C1120 C1114 1.465 1_456 S
C1120 C1119 1.396 . S
C1120 C1121 1.399 . S
C1121 H1107 0.929 . S
C1121 C1120 1.399 . S
C1121 C1122 1.385 . S
C1122 H1108 0.931 . S
C1122 C1121 1.385 . S
C1122 C1123 1.389 . S
C1123 C1122 1.389 . S
C1123 C1124 1.387 . S
C1124 H1109 0.930 . S
C1124 C1119 1.390 . S
C1124 C1123 1.387 . S
H1125 C1137 0.930 . S
H1126 C1139 0.930 . S
H1127 C1140 0.930 . S
H1128 C1144 0.959 . S
H1129 C1144 0.959 . S
H1130 C1144 0.961 . S
H1131 C1145 0.960 . S
H1132 C1145 0.961 . S
H1133 C1145 0.959 . S
H1134 C1148 0.929 1_565 S
H1135 C1149 0.931 . S
H1136 C1151 0.930 . S
C1137 H1125 0.930 . S
C1137 C1138 1.399 . S
C1137 C1142 1.399 . S
C1138 C1137 1.399 . S
C1138 C1139 1.376 . S
C1139 H1126 0.930 . S
C1139 C1138 1.376 . S
C1139 C1140 1.388 . S
C1140 H1127 0.930 . S
C1140 C1139 1.388 . S
C1140 C1141 1.390 . S
C1141 C1140 1.390 . S
C1141 C1142 1.394 . S
C1141 C1147 1.465 1_565 S
C1142 C1137 1.399 . S
C1142 C1141 1.394 . S
C1142 C1143 1.516 1_565 S
C1143 C1142 1.516 1_545 S
C1143 C1144 1.502 . S
C1143 C1145 1.561 . S
C1143 C1146 1.526 . S
C1144 H1128 0.959 . S
C1144 H1129 0.959 . S
C1144 H1130 0.961 . S
C1144 C1143 1.502 . S
C1145 H1131 0.960 . S
C1145 H1132 0.961 . S
C1145 H1133 0.959 . S
C1145 C1143 1.561 . S
C1146 C1143 1.526 . S
C1146 C1147 1.396 . S
C1146 C1151 1.390 . S
C1147 C1141 1.465 1_545 S
C1147 C1146 1.396 . S
C1147 C1148 1.399 . S
C1148 H1134 0.929 1_545 S
C1148 C1147 1.399 . S
C1148 C1149 1.385 . S
C1149 H1135 0.931 . S
C1149 C1148 1.385 . S
C1149 C1150 1.389 . S
C1150 C1149 1.389 . S
C1150 C1151 1.387 . S
C1151 H1136 0.930 . S
C1151 C1146 1.390 . S
C1151 C1150 1.387 . S
H1152 C1164 0.930 . S
H1153 C1166 0.930 . S
H1154 C1167 0.930 . S
H1155 C1171 0.959 . S
H1156 C1171 0.959 . S
H1157 C1171 0.961 . S
H1158 C1172 0.960 . S
H1159 C1172 0.961 . S
H1160 C1172 0.959 . S
H1161 C1175 0.929 . S
H1162 C1176 0.931 . S
H1163 C1178 0.930 . S
C1164 H1152 0.930 . S
C1164 C1165 1.399 . S
C1164 C1169 1.399 . S
C1165 C1164 1.399 . S
C1165 C1166 1.376 . S
C1166 H1153 0.930 . S
C1166 C1165 1.376 . S
C1166 C1167 1.388 . S
C1167 H1154 0.930 . S
C1167 C1166 1.388 . S
C1167 C1168 1.390 . S
C1168 C1167 1.390 . S
C1168 C1169 1.394 . S
C1168 C1174 1.465 1_556 S
C1169 C1164 1.399 . S
C1169 C1168 1.394 . S
C1169 C1170 1.516 1_556 S
C1170 C1169 1.516 1_554 S
C1170 C1171 1.502 . S
C1170 C1172 1.561 1_554 S
C1170 C1173 1.526 . S
C1171 H1155 0.959 . S
C1171 H1156 0.959 . S
C1171 H1157 0.961 . S
C1171 C1170 1.502 . S
C1172 H1158 0.960 . S
C1172 H1159 0.961 . S
C1172 H1160 0.959 . S
C1172 C1170 1.561 1_556 S
C1173 C1170 1.526 . S
C1173 C1174 1.396 . S
C1173 C1178 1.390 . S
C1174 C1168 1.465 1_554 S
C1174 C1173 1.396 . S
C1174 C1175 1.399 . S
C1175 H1161 0.929 . S
C1175 C1174 1.399 . S
C1175 C1176 1.385 . S
C1176 H1162 0.931 . S
C1176 C1175 1.385 . S
C1176 C1177 1.389 . S
C1177 C1176 1.389 . S
C1177 C1178 1.387 . S
C1178 H1163 0.930 . S
C1178 C1173 1.390 . S
C1178 C1177 1.387 . S
H1179 C1191 0.930 . S
H1180 C1193 0.930 . S
H1181 C1194 0.930 . S
H1182 C1198 0.959 . S
H1183 C1198 0.959 . S
H1184 C1198 0.961 1_455 S
H1185 C1199 0.960 . S
H1186 C1199 0.961 . S
H1187 C1199 0.959 . S
H1188 C1202 0.929 . S
H1189 C1203 0.931 . S
H1190 C1205 0.930 . S
C1191 H1179 0.930 . S
C1191 C1192 1.399 . S
C1191 C1196 1.399 . S
C1192 C1191 1.399 . S
C1192 C1193 1.376 . S
C1193 H1180 0.930 . S
C1193 C1192 1.376 . S
C1193 C1194 1.388 . S
C1194 H1181 0.930 . S
C1194 C1193 1.388 . S
C1194 C1195 1.390 . S
C1195 C1194 1.390 . S
C1195 C1196 1.394 . S
C1195 C1201 1.465 1_455 S
C1196 C1191 1.399 . S
C1196 C1195 1.394 . S
C1196 C1197 1.516 . S
C1197 C1196 1.516 . S
C1197 C1198 1.502 1_455 S
C1197 C1199 1.561 . S
C1197 C1200 1.526 1_455 S
C1198 H1182 0.959 . S
C1198 H1183 0.959 . S
C1198 H1184 0.961 1_655 S
C1198 C1197 1.502 1_655 S
C1199 H1185 0.960 . S
C1199 H1186 0.961 . S
C1199 H1187 0.959 . S
C1199 C1197 1.561 . S
C1200 C1197 1.526 1_655 S
C1200 C1201 1.396 . S
C1200 C1205 1.390 . S
C1201 C1195 1.465 1_655 S
C1201 C1200 1.396 . S
C1201 C1202 1.399 . S
C1202 H1188 0.929 . S
C1202 C1201 1.399 . S
C1202 C1203 1.385 . S
C1203 H1189 0.931 . S
C1203 C1202 1.385 . S
C1203 C1204 1.389 . S
C1204 C1203 1.389 . S
C1204 C1205 1.387 . S
C1205 H1190 0.930 . S
C1205 C1200 1.390 . S
C1205 C1204 1.387 . S
C409 C84 1.484 . S
C421 N13 1.448 . S
C436 N46 1.565 . S
C448 C117 1.582 . S
C463 N79 1.499 . S
C475 C150 1.418 . S
C490 N112 1.589 . S
C502 C183 1.550 . S
C517 N145 1.447 . S
C529 C18 1.484 . S
C544 C51 1.574 . S
C556 N178 1.569 . S
C571 N200 1.579 . S
C583 C337 1.531 . S
C598 N244 1.545 . S
C610 C381 1.532 . S
C625 C205 1.541 . S
C637 N266 1.586 . S
C652 C249 1.506 . S
C664 N310 1.568 . S
C679 C271 1.594 . S
C691 N332 1.530 . S
C706 C315 1.500 . S
C718 N376 1.572 . S
C733 C285 1.392 . S
C745 C21 1.349 . S
C760 C54 1.373 . S
C772 C318 1.353 . S
C787 C351 1.397 . S
C799 C87 1.380 . S
C814 C384 1.367 . S
C826 C120 1.329 . S
C841 C153 1.354 . S
C853 C219 1.353 . S
C868 C252 1.321 . S
C880 C186 1.349 . S
C895 C238 1.379 . S
C907 C7 1.341 . S
C922 C40 1.466 . S
C934 C282 1.463 . S
C949 C73 1.349 . S
C961 C304 1.365 . S
C976 C106 1.471 . S
C988 C348 1.457 . S
C1003 C139 1.384 . S
C1015 C370 1.343 . S
C1030 C216 1.481 . S
C1042 C172 1.447 . S
C1057 N68 1.281 . S
C1069 N365 1.326 . S
C1084 N211 1.495 . S
C1096 N101 1.472 . S
C1111 N134 1.269 . S
C1123 N233 1.277 . S
C1138 N167 1.377 . S
C1150 N277 1.442 . S
C1165 N299 1.290 . S
C1177 N2 1.268 . S
C1192 N35 1.473 . S
C1204 N343 1.494 . S
