# Generated by pormake.
# Topology umq, (4)-cn, num edge types: 1
# Building blocks:
#     Node 0, Type 0, BuildingBlock: TATPOV_clean_sbu_0, # of connection points: 4
#     Node 1, Type 0, BuildingBlock: TATPOV_clean_sbu_0, # of connection points: 4
#     Node 2, Type 0, BuildingBlock: TATPOV_clean_sbu_0, # of connection points: 4
#     Node 3, Type 0, BuildingBlock: TATPOV_clean_sbu_0, # of connection points: 4
#     Node 4, Type 0, BuildingBlock: TATPOV_clean_sbu_0, # of connection points: 4
#     Node 5, Type 0, BuildingBlock: TATPOV_clean_sbu_0, # of connection points: 4
#     Node 6, Type 0, BuildingBlock: TATPOV_clean_sbu_0, # of connection points: 4
#     Node 7, Type 0, BuildingBlock: TATPOV_clean_sbu_0, # of connection points: 4
#     Node 8, Type 0, BuildingBlock: TATPOV_clean_sbu_0, # of connection points: 4
#     Node 9, Type 0, BuildingBlock: TATPOV_clean_sbu_0, # of connection points: 4
#     Node 10, Type 0, BuildingBlock: TATPOV_clean_sbu_0, # of connection points: 4
#     Node 11, Type 0, BuildingBlock: TATPOV_clean_sbu_0, # of connection points: 4
#     Node 12, Type 0, BuildingBlock: TATPOV_clean_sbu_0, # of connection points: 4
#     Node 13, Type 0, BuildingBlock: TATPOV_clean_sbu_0, # of connection points: 4
#     Node 14, Type 0, BuildingBlock: TATPOV_clean_sbu_0, # of connection points: 4
#     Node 15, Type 0, BuildingBlock: TATPOV_clean_sbu_0, # of connection points: 4
#     Node 16, Type 0, BuildingBlock: TATPOV_clean_sbu_0, # of connection points: 4
#     Node 17, Type 0, BuildingBlock: TATPOV_clean_sbu_0, # of connection points: 4
#     Node 18, Type 0, BuildingBlock: TATPOV_clean_sbu_0, # of connection points: 4
#     Node 19, Type 0, BuildingBlock: TATPOV_clean_sbu_0, # of connection points: 4
#     Node 20, Type 0, BuildingBlock: TATPOV_clean_sbu_0, # of connection points: 4
#     Node 21, Type 0, BuildingBlock: TATPOV_clean_sbu_0, # of connection points: 4
#     Node 22, Type 0, BuildingBlock: TATPOV_clean_sbu_0, # of connection points: 4
#     Node 23, Type 0, BuildingBlock: TATPOV_clean_sbu_0, # of connection points: 4
#     Node 24, Type 0, BuildingBlock: TATPOV_clean_sbu_0, # of connection points: 4
#     Node 25, Type 0, BuildingBlock: TATPOV_clean_sbu_0, # of connection points: 4
#     Node 26, Type 0, BuildingBlock: TATPOV_clean_sbu_0, # of connection points: 4
#     Node 27, Type 0, BuildingBlock: TATPOV_clean_sbu_0, # of connection points: 4
#     Node 28, Type 0, BuildingBlock: TATPOV_clean_sbu_0, # of connection points: 4
#     Node 29, Type 0, BuildingBlock: TATPOV_clean_sbu_0, # of connection points: 4
#     Node 30, Type 0, BuildingBlock: TATPOV_clean_sbu_0, # of connection points: 4
#     Node 31, Type 0, BuildingBlock: TATPOV_clean_sbu_0, # of connection points: 4
#     Edge 32, Type (0, 0), BuildingBlock: ZUJKAS_clean_linker_0, # of connection points: 2
#     Edge 33, Type (0, 0), BuildingBlock: ZUJKAS_clean_linker_0, # of connection points: 2
#     Edge 34, Type (0, 0), BuildingBlock: ZUJKAS_clean_linker_0, # of connection points: 2
#     Edge 35, Type (0, 0), BuildingBlock: ZUJKAS_clean_linker_0, # of connection points: 2
#     Edge 36, Type (0, 0), BuildingBlock: ZUJKAS_clean_linker_0, # of connection points: 2
#     Edge 37, Type (0, 0), BuildingBlock: ZUJKAS_clean_linker_0, # of connection points: 2
#     Edge 38, Type (0, 0), BuildingBlock: ZUJKAS_clean_linker_0, # of connection points: 2
#     Edge 39, Type (0, 0), BuildingBlock: ZUJKAS_clean_linker_0, # of connection points: 2
#     Edge 40, Type (0, 0), BuildingBlock: ZUJKAS_clean_linker_0, # of connection points: 2
#     Edge 41, Type (0, 0), BuildingBlock: ZUJKAS_clean_linker_0, # of connection points: 2
#     Edge 42, Type (0, 0), BuildingBlock: ZUJKAS_clean_linker_0, # of connection points: 2
#     Edge 43, Type (0, 0), BuildingBlock: ZUJKAS_clean_linker_0, # of connection points: 2
#     Edge 44, Type (0, 0), BuildingBlock: ZUJKAS_clean_linker_0, # of connection points: 2
#     Edge 45, Type (0, 0), BuildingBlock: ZUJKAS_clean_linker_0, # of connection points: 2
#     Edge 46, Type (0, 0), BuildingBlock: ZUJKAS_clean_linker_0, # of connection points: 2
#     Edge 47, Type (0, 0), BuildingBlock: ZUJKAS_clean_linker_0, # of connection points: 2
#     Edge 48, Type (0, 0), BuildingBlock: ZUJKAS_clean_linker_0, # of connection points: 2
#     Edge 49, Type (0, 0), BuildingBlock: ZUJKAS_clean_linker_0, # of connection points: 2
#     Edge 50, Type (0, 0), BuildingBlock: ZUJKAS_clean_linker_0, # of connection points: 2
#     Edge 51, Type (0, 0), BuildingBlock: ZUJKAS_clean_linker_0, # of connection points: 2
#     Edge 52, Type (0, 0), BuildingBlock: ZUJKAS_clean_linker_0, # of connection points: 2
#     Edge 53, Type (0, 0), BuildingBlock: ZUJKAS_clean_linker_0, # of connection points: 2
#     Edge 54, Type (0, 0), BuildingBlock: ZUJKAS_clean_linker_0, # of connection points: 2
#     Edge 55, Type (0, 0), BuildingBlock: ZUJKAS_clean_linker_0, # of connection points: 2
#     Edge 56, Type (0, 0), BuildingBlock: ZUJKAS_clean_linker_0, # of connection points: 2
#     Edge 57, Type (0, 0), BuildingBlock: ZUJKAS_clean_linker_0, # of connection points: 2
#     Edge 58, Type (0, 0), BuildingBlock: ZUJKAS_clean_linker_0, # of connection points: 2
#     Edge 59, Type (0, 0), BuildingBlock: ZUJKAS_clean_linker_0, # of connection points: 2
#     Edge 60, Type (0, 0), BuildingBlock: ZUJKAS_clean_linker_0, # of connection points: 2
#     Edge 61, Type (0, 0), BuildingBlock: ZUJKAS_clean_linker_0, # of connection points: 2
#     Edge 62, Type (0, 0), BuildingBlock: ZUJKAS_clean_linker_0, # of connection points: 2
#     Edge 63, Type (0, 0), BuildingBlock: ZUJKAS_clean_linker_0, # of connection points: 2
#     Edge 64, Type (0, 0), BuildingBlock: ZUJKAS_clean_linker_0, # of connection points: 2
#     Edge 65, Type (0, 0), BuildingBlock: ZUJKAS_clean_linker_0, # of connection points: 2
#     Edge 66, Type (0, 0), BuildingBlock: ZUJKAS_clean_linker_0, # of connection points: 2
#     Edge 67, Type (0, 0), BuildingBlock: ZUJKAS_clean_linker_0, # of connection points: 2
#     Edge 68, Type (0, 0), BuildingBlock: ZUJKAS_clean_linker_0, # of connection points: 2
#     Edge 69, Type (0, 0), BuildingBlock: ZUJKAS_clean_linker_0, # of connection points: 2
#     Edge 70, Type (0, 0), BuildingBlock: ZUJKAS_clean_linker_0, # of connection points: 2
#     Edge 71, Type (0, 0), BuildingBlock: ZUJKAS_clean_linker_0, # of connection points: 2
#     Edge 72, Type (0, 0), BuildingBlock: ZUJKAS_clean_linker_0, # of connection points: 2
#     Edge 73, Type (0, 0), BuildingBlock: ZUJKAS_clean_linker_0, # of connection points: 2
#     Edge 74, Type (0, 0), BuildingBlock: ZUJKAS_clean_linker_0, # of connection points: 2
#     Edge 75, Type (0, 0), BuildingBlock: ZUJKAS_clean_linker_0, # of connection points: 2
#     Edge 76, Type (0, 0), BuildingBlock: ZUJKAS_clean_linker_0, # of connection points: 2
#     Edge 77, Type (0, 0), BuildingBlock: ZUJKAS_clean_linker_0, # of connection points: 2
#     Edge 78, Type (0, 0), BuildingBlock: ZUJKAS_clean_linker_0, # of connection points: 2
#     Edge 79, Type (0, 0), BuildingBlock: ZUJKAS_clean_linker_0, # of connection points: 2
#     Edge 80, Type (0, 0), BuildingBlock: ZUJKAS_clean_linker_0, # of connection points: 2
#     Edge 81, Type (0, 0), BuildingBlock: ZUJKAS_clean_linker_0, # of connection points: 2
#     Edge 82, Type (0, 0), BuildingBlock: ZUJKAS_clean_linker_0, # of connection points: 2
#     Edge 83, Type (0, 0), BuildingBlock: ZUJKAS_clean_linker_0, # of connection points: 2
#     Edge 84, Type (0, 0), BuildingBlock: ZUJKAS_clean_linker_0, # of connection points: 2
#     Edge 85, Type (0, 0), BuildingBlock: ZUJKAS_clean_linker_0, # of connection points: 2
#     Edge 86, Type (0, 0), BuildingBlock: ZUJKAS_clean_linker_0, # of connection points: 2
#     Edge 87, Type (0, 0), BuildingBlock: ZUJKAS_clean_linker_0, # of connection points: 2
#     Edge 88, Type (0, 0), BuildingBlock: ZUJKAS_clean_linker_0, # of connection points: 2
#     Edge 89, Type (0, 0), BuildingBlock: ZUJKAS_clean_linker_0, # of connection points: 2
#     Edge 90, Type (0, 0), BuildingBlock: ZUJKAS_clean_linker_0, # of connection points: 2
#     Edge 91, Type (0, 0), BuildingBlock: ZUJKAS_clean_linker_0, # of connection points: 2
#     Edge 92, Type (0, 0), BuildingBlock: ZUJKAS_clean_linker_0, # of connection points: 2
#     Edge 93, Type (0, 0), BuildingBlock: ZUJKAS_clean_linker_0, # of connection points: 2
#     Edge 94, Type (0, 0), BuildingBlock: ZUJKAS_clean_linker_0, # of connection points: 2
#     Edge 95, Type (0, 0), BuildingBlock: ZUJKAS_clean_linker_0, # of connection points: 2
# Relax obj value: 0.063
# Max RMSD: 0.082
# Mean RMSD: 0.082
data_MOF--net-umq--node1-TATPOV_clean_sbu_0--edge1-ZUJKAS_clean_linker_0
_symmetry_space_group_name_H-M    P1
_symmetry_Int_Tables_number       1
_symmetry_cell_setting            triclinic
loop_
_symmetry_equiv_pos_as_xyz
'x, y, z'
_cell_length_a     85.640022
_cell_length_b     85.647363
_cell_length_c     57.238261
_cell_angle_alpha  89.975554
_cell_angle_beta   90.030134
_cell_angle_gamma 90.003795
loop_
_atom_site_label
_atom_site_type_symbol
_atom_site_fract_x
_atom_site_fract_y
_atom_site_fract_z
_atom_type_partial_charge
Zn0 Zn 0.23604 0.12281 0.13784 0.0
Zn1 Zn 0.23949 0.0985 0.16567 0.0
O2 O 0.23533 0.08851 0.13326 0.0
O3 O 0.22959 0.10887 0.11142 0.0
O4 O 0.24171 0.07982 0.18685 0.0
O5 O 0.21986 0.13201 0.15906 0.0
O6 O 0.22102 0.11067 0.18045 0.0
C7 C 0.23102 0.09424 0.11374 0.0
C8 C 0.26679 0.12101 0.15752 0.0
O9 O 0.26087 0.10956 0.16867 0.0
O10 O 0.25872 0.12825 0.14246 0.0
C11 C 0.24996 0.06815 0.18086 0.0
O12 O 0.25719 0.06841 0.16063 0.0
C13 C 0.21502 0.12401 0.17618 0.0
Zn14 Zn 0.87795 0.23634 0.1371 0.0
Zn15 Zn 0.90238 0.24166 0.16339 0.0
O16 O 0.91162 0.24208 0.12986 0.0
O17 O 0.89042 0.24048 0.10826 0.0
O18 O 0.92137 0.24452 0.18374 0.0
O19 O 0.87544 0.21453 0.14936 0.0
O20 O 0.8937 0.2204 0.17493 0.0
C21 C 0.90506 0.24213 0.10986 0.0
C22 C 0.87403 0.26326 0.16623 0.0
O23 O 0.88825 0.26057 0.17147 0.0
O24 O 0.86678 0.25409 0.15269 0.0
C25 C 0.93011 0.25647 0.18214 0.0
O26 O 0.92654 0.26745 0.16701 0.0
C27 C 0.88346 0.21092 0.16712 0.0
Zn28 Zn 0.76555 0.87558 0.13793 0.0
Zn29 Zn 0.76056 0.9006 0.16449 0.0
O30 O 0.76249 0.90995 0.13122 0.0
O31 O 0.76668 0.88917 0.10953 0.0
O32 O 0.75761 0.91965 0.1845 0.0
O33 O 0.78496 0.87021 0.15615 0.0
O34 O 0.7804 0.89058 0.17854 0.0
C35 C 0.76479 0.90378 0.11125 0.0
C36 C 0.7359 0.8748 0.16177 0.0
O37 O 0.74046 0.88784 0.17004 0.0
O38 O 0.74453 0.86728 0.14777 0.0
C39 C 0.74547 0.9281 0.18261 0.0
O40 O 0.73464 0.92417 0.16745 0.0
C41 C 0.78869 0.87871 0.17337 0.0
Zn42 Zn 0.12286 0.76973 0.13559 0.0
Zn43 Zn 0.09844 0.76485 0.16335 0.0
O44 O 0.08865 0.76926 0.13088 0.0
O45 O 0.10882 0.775 0.10871 0.0
O46 O 0.07935 0.7618 0.18333 0.0
O47 O 0.13049 0.78683 0.15675 0.0
O48 O 0.11003 0.78318 0.17935 0.0
C49 C 0.09422 0.77343 0.11121 0.0
C50 C 0.12221 0.73874 0.15562 0.0
O51 O 0.11011 0.74389 0.16603 0.0
O52 O 0.12948 0.74737 0.14128 0.0
C53 C 0.06918 0.75177 0.17728 0.0
O54 O 0.07165 0.74332 0.15848 0.0
C55 C 0.12265 0.79046 0.17468 0.0
Zn56 Zn 0.23629 0.87787 0.37234 0.0
Zn57 Zn 0.24139 0.90151 0.34322 0.0
O58 O 0.23761 0.91231 0.37521 0.0
O59 O 0.23162 0.89269 0.39838 0.0
O60 O 0.24424 0.91975 0.32136 0.0
O61 O 0.2187 0.87001 0.35238 0.0
O62 O 0.22249 0.88991 0.32873 0.0
C63 C 0.23347 0.90719 0.39519 0.0
C64 C 0.26705 0.87732 0.35174 0.0
O65 O 0.26208 0.88927 0.34071 0.0
O66 O 0.2584 0.87063 0.36665 0.0
C67 C 0.25251 0.93147 0.32707 0.0
O68 O 0.25969 0.93146 0.34736 0.0
C69 C 0.21495 0.8776 0.33426 0.0
Zn70 Zn 0.12218 0.23762 0.36638 0.0
Zn71 Zn 0.09867 0.24259 0.33789 0.0
O72 O 0.08795 0.23851 0.36984 0.0
O73 O 0.10763 0.23108 0.39193 0.0
O74 O 0.08028 0.24565 0.31637 0.0
O75 O 0.13123 0.22155 0.34485 0.0
O76 O 0.11022 0.22377 0.32295 0.0
C77 C 0.09315 0.23339 0.38926 0.0
C78 C 0.12224 0.26868 0.34784 0.0
O79 O 0.11087 0.26344 0.33575 0.0
O80 O 0.1286 0.26012 0.36317 0.0
C81 C 0.07052 0.2566 0.31978 0.0
O82 O 0.07274 0.26624 0.33732 0.0
C83 C 0.12328 0.21723 0.32737 0.0
Zn84 Zn 0.77105 0.12481 0.35118 0.0
Zn85 Zn 0.76404 0.09943 0.32633 0.0
O86 O 0.76664 0.0907 0.35976 0.0
O87 O 0.77254 0.11165 0.38019 0.0
O88 O 0.75985 0.08013 0.3074 0.0
O89 O 0.79028 0.12866 0.33204 0.0
O90 O 0.78388 0.10836 0.31052 0.0
C91 C 0.77008 0.09709 0.3792 0.0
C92 C 0.7409 0.12654 0.3284 0.0
O93 O 0.74429 0.11279 0.32158 0.0
O94 O 0.75043 0.13413 0.34097 0.0
C95 C 0.74832 0.07126 0.31176 0.0
O96 O 0.73876 0.07491 0.32887 0.0
C97 C 0.793 0.11978 0.31486 0.0
Zn98 Zn 0.87464 0.76485 0.35723 0.0
Zn99 Zn 0.89982 0.7588 0.3325 0.0
O100 O 0.90804 0.75998 0.36648 0.0
O101 O 0.88656 0.76246 0.38718 0.0
O102 O 0.91983 0.75583 0.31449 0.0
O103 O 0.87216 0.78594 0.34238 0.0
O104 O 0.89092 0.77919 0.31816 0.0
C105 C 0.90124 0.76088 0.38623 0.0
C106 C 0.8721 0.73652 0.33031 0.0
O107 O 0.88641 0.73924 0.32562 0.0
O108 O 0.86436 0.7461 0.34253 0.0
C109 C 0.92147 0.74754 0.29624 0.0
O110 O 0.90939 0.73993 0.28782 0.0
C111 C 0.88038 0.78882 0.32454 0.0
Zn112 Zn 0.76807 0.88053 0.8669 0.0
Zn113 Zn 0.7608 0.90393 0.83824 0.0
O114 O 0.76478 0.91486 0.87005 0.0
O115 O 0.77268 0.89562 0.89266 0.0
O116 O 0.75689 0.92221 0.81681 0.0
O117 O 0.78555 0.87361 0.846 0.0
O118 O 0.77972 0.89314 0.82256 0.0
C119 C 0.76986 0.90998 0.88968 0.0
C120 C 0.73669 0.87848 0.84805 0.0
O121 O 0.74065 0.89073 0.83685 0.0
O122 O 0.74615 0.87221 0.86228 0.0
C123 C 0.74414 0.92982 0.81641 0.0
O124 O 0.73262 0.92546 0.83008 0.0
C125 C 0.78817 0.88133 0.82757 0.0
Zn126 Zn 0.12502 0.75992 0.86399 0.0
Zn127 Zn 0.1002 0.7554 0.83691 0.0
O128 O 0.09055 0.75809 0.86997 0.0
O129 O 0.11133 0.76129 0.89212 0.0
O130 O 0.08138 0.75301 0.816 0.0
O131 O 0.13111 0.77919 0.8461 0.0
O132 O 0.11101 0.77492 0.82303 0.0
C133 C 0.09667 0.76007 0.89007 0.0
C134 C 0.12538 0.73009 0.84093 0.0
O135 O 0.11248 0.73477 0.83226 0.0
O136 O 0.13299 0.73879 0.8547 0.0
C137 C 0.06931 0.74541 0.82216 0.0
O138 O 0.06912 0.73854 0.84269 0.0
C139 C 0.12295 0.78302 0.82857 0.0
Zn140 Zn 0.23493 0.12467 0.85924 0.0
Zn141 Zn 0.24133 0.09931 0.83471 0.0
O142 O 0.24037 0.09085 0.86852 0.0
O143 O 0.23725 0.11239 0.88894 0.0
O144 O 0.24471 0.07989 0.81562 0.0
O145 O 0.21394 0.12714 0.84397 0.0
O146 O 0.22066 0.10775 0.8209 0.0
C147 C 0.23917 0.09775 0.88816 0.0
C148 C 0.26332 0.12737 0.83257 0.0
O149 O 0.26062 0.11309 0.82774 0.0
O150 O 0.25375 0.13504 0.84491 0.0
C151 C 0.25691 0.07149 0.81715 0.0
O152 O 0.26811 0.07566 0.83154 0.0
C153 C 0.21102 0.11842 0.82668 0.0
Zn154 Zn 0.87375 0.23104 0.85963 0.0
Zn155 Zn 0.89853 0.23589 0.83278 0.0
O156 O 0.90814 0.23349 0.86573 0.0
O157 O 0.88765 0.22846 0.88765 0.0
O158 O 0.91753 0.23879 0.81258 0.0
O159 O 0.86745 0.21246 0.84079 0.0
O160 O 0.88813 0.2161 0.81861 0.0
C161 C 0.90225 0.23034 0.88562 0.0
C162 C 0.87294 0.26079 0.83624 0.0
O163 O 0.88601 0.2563 0.82798 0.0
O164 O 0.86548 0.25213 0.85028 0.0
C165 C 0.92671 0.25026 0.81577 0.0
O166 O 0.92349 0.26045 0.83222 0.0
C167 C 0.87582 0.2084 0.82363 0.0
Zn168 Zn 0.76411 0.12113 0.63127 0.0
Zn169 Zn 0.75803 0.09683 0.65773 0.0
O170 O 0.762 0.08712 0.62506 0.0
O171 O 0.77026 0.10729 0.60468 0.0
O172 O 0.75472 0.0777 0.67779 0.0
O173 O 0.78035 0.12893 0.65344 0.0
O174 O 0.77722 0.10727 0.67361 0.0
C175 C 0.76744 0.09282 0.60616 0.0
C176 C 0.73286 0.12166 0.64914 0.0
O177 O 0.73747 0.10962 0.66032 0.0
O178 O 0.74192 0.12829 0.63475 0.0
C179 C 0.74152 0.07155 0.68215 0.0
O180 O 0.7288 0.07797 0.67363 0.0
C181 C 0.78428 0.1202 0.67027 0.0
Zn182 Zn 0.87763 0.76789 0.63474 0.0
Zn183 Zn 0.90177 0.76279 0.66309 0.0
O184 O 0.912 0.7663 0.63059 0.0
O185 O 0.892 0.77197 0.60795 0.0
O186 O 0.92038 0.75982 0.68422 0.0
O187 O 0.87055 0.78597 0.65426 0.0
O188 O 0.89039 0.78172 0.67791 0.0
C189 C 0.90655 0.77017 0.61068 0.0
C190 C 0.87729 0.73725 0.65609 0.0
O191 O 0.88961 0.74214 0.66621 0.0
O192 O 0.87019 0.74593 0.64164 0.0
C193 C 0.93158 0.75091 0.6783 0.0
O194 O 0.93075 0.74338 0.65834 0.0
C195 C 0.87827 0.78955 0.67232 0.0
Zn196 Zn 0.22915 0.87881 0.63891 0.0
Zn197 Zn 0.23713 0.90196 0.66754 0.0
O198 O 0.23356 0.9131 0.63583 0.0
O199 O 0.22649 0.89393 0.61249 0.0
O200 O 0.24184 0.92 0.68893 0.0
O201 O 0.21055 0.87346 0.65846 0.0
O202 O 0.21784 0.89168 0.68331 0.0
C203 C 0.22923 0.90828 0.61579 0.0
C204 C 0.26007 0.87532 0.65902 0.0
O205 O 0.25696 0.88838 0.66862 0.0
O206 O 0.2501 0.86885 0.64581 0.0
C207 C 0.25335 0.92903 0.68516 0.0
O208 O 0.2626 0.92619 0.66737 0.0
C209 C 0.20849 0.88077 0.67741 0.0
Zn210 Zn 0.12278 0.22971 0.64166 0.0
Zn211 Zn 0.09766 0.23555 0.66732 0.0
O212 O 0.08873 0.23373 0.63375 0.0
O213 O 0.10974 0.22939 0.61262 0.0
O214 O 0.07835 0.23866 0.68674 0.0
O215 O 0.12673 0.20958 0.65847 0.0
O216 O 0.10715 0.21546 0.68179 0.0
C217 C 0.09511 0.23127 0.61397 0.0
C218 C 0.12452 0.25895 0.66687 0.0
O219 O 0.11073 0.25536 0.67328 0.0
O220 O 0.13217 0.24981 0.65377 0.0
C221 C 0.06977 0.2507 0.68479 0.0
O222 O 0.07372 0.26167 0.66987 0.0
C223 C 0.11832 0.2064 0.67599 0.0
Zn224 Zn 0.73632 0.62487 0.64183 0.0
Zn225 Zn 0.74172 0.59932 0.66638 0.0
O226 O 0.74105 0.5911 0.63243 0.0
O227 O 0.73881 0.61277 0.61205 0.0
O228 O 0.74437 0.57956 0.68511 0.0
O229 O 0.71518 0.6278 0.65627 0.0
O230 O 0.72102 0.60823 0.67957 0.0
C231 C 0.74035 0.59809 0.61279 0.0
C232 C 0.76434 0.62687 0.66939 0.0
O233 O 0.76125 0.61264 0.67406 0.0
O234 O 0.75511 0.6348 0.65681 0.0
C235 C 0.75729 0.57236 0.68697 0.0
O236 O 0.76975 0.57807 0.67666 0.0
C237 C 0.71175 0.61915 0.67343 0.0
Zn238 Zn 0.38049 0.73644 0.62932 0.0
Zn239 Zn 0.40397 0.74259 0.65808 0.0
O240 O 0.41488 0.73845 0.62631 0.0
O241 O 0.39543 0.73091 0.60381 0.0
O242 O 0.42224 0.74604 0.67967 0.0
O243 O 0.37253 0.71951 0.65039 0.0
O244 O 0.39266 0.7238 0.67341 0.0
C245 C 0.40986 0.73337 0.60677 0.0
C246 C 0.37954 0.76773 0.64803 0.0
O247 O 0.39139 0.76313 0.65965 0.0
O248 O 0.37314 0.75869 0.63336 0.0
C249 C 0.43164 0.75738 0.67695 0.0
O250 O 0.42913 0.76742 0.66 0.0
C251 C 0.3803 0.71614 0.66851 0.0
Zn252 Zn 0.25899 0.3768 0.63134 0.0
Zn253 Zn 0.25514 0.40112 0.65953 0.0
O254 O 0.25675 0.41121 0.62651 0.0
O255 O 0.25891 0.39075 0.60346 0.0
O256 O 0.25327 0.4197 0.68104 0.0
O257 O 0.27913 0.37096 0.64724 0.0
O258 O 0.27507 0.39023 0.67191 0.0
C259 C 0.25783 0.40537 0.60608 0.0
C260 C 0.23008 0.37563 0.65688 0.0
O261 O 0.23482 0.38857 0.66535 0.0
O262 O 0.23844 0.36826 0.64235 0.0
C263 C 0.24567 0.4319 0.67546 0.0
O264 O 0.23843 0.43237 0.65523 0.0
C265 C 0.28325 0.37867 0.66506 0.0
Zn266 Zn 0.62231 0.26993 0.63601 0.0
Zn267 Zn 0.59882 0.26322 0.66479 0.0
O268 O 0.58789 0.26768 0.63315 0.0
O269 O 0.60724 0.27483 0.61024 0.0
O270 O 0.58054 0.25934 0.68611 0.0
O271 O 0.62963 0.28722 0.65705 0.0
O272 O 0.61015 0.28173 0.68074 0.0
C273 C 0.5928 0.27247 0.61338 0.0
C274 C 0.62338 0.23836 0.65439 0.0
O275 O 0.61125 0.24262 0.66558 0.0
O276 O 0.63005 0.24777 0.64049 0.0
C277 C 0.57127 0.248 0.6825 0.0
O278 O 0.57401 0.23849 0.66498 0.0
C279 C 0.62211 0.28994 0.67563 0.0
Zn280 Zn 0.73741 0.3781 0.86789 0.0
Zn281 Zn 0.74231 0.40253 0.84022 0.0
O282 O 0.73885 0.41236 0.87306 0.0
O283 O 0.73325 0.39202 0.89506 0.0
O284 O 0.74481 0.42161 0.8198 0.0
O285 O 0.71936 0.37104 0.84828 0.0
O286 O 0.72335 0.39123 0.8252 0.0
C287 C 0.73501 0.40661 0.8928 0.0
C288 C 0.76798 0.37806 0.84661 0.0
O289 O 0.763 0.39038 0.83656 0.0
O290 O 0.75937 0.37088 0.86106 0.0
C291 C 0.7578 0.42847 0.81661 0.0
O292 O 0.77043 0.42286 0.8266 0.0
C293 C 0.71563 0.37898 0.83049 0.0
Zn294 Zn 0.62302 0.7297 0.8597 0.0
Zn295 Zn 0.59926 0.73792 0.83258 0.0
O296 O 0.58903 0.73549 0.86522 0.0
O297 O 0.60885 0.72855 0.88742 0.0
O298 O 0.58078 0.74245 0.81185 0.0
O299 O 0.62693 0.71025 0.84141 0.0
O300 O 0.60841 0.71787 0.81728 0.0
C301 C 0.59448 0.73161 0.88513 0.0
C302 C 0.62701 0.75998 0.83782 0.0
O303 O 0.61342 0.75732 0.82963 0.0
O304 O 0.63365 0.74992 0.85069 0.0
C305 C 0.57203 0.7543 0.81458 0.0
O306 O 0.5753 0.76437 0.83118 0.0
C307 C 0.61899 0.70812 0.82306 0.0
Zn308 Zn 0.27036 0.62327 0.86281 0.0
Zn309 Zn 0.26611 0.59899 0.83479 0.0
O310 O 0.26948 0.58903 0.86754 0.0
O311 O 0.27452 0.60925 0.89002 0.0
O312 O 0.26358 0.58018 0.81396 0.0
O313 O 0.28829 0.63085 0.84349 0.0
O314 O 0.28497 0.6107 0.82016 0.0
C315 C 0.27299 0.59466 0.88749 0.0
C316 C 0.23994 0.6229 0.84101 0.0
O317 O 0.24517 0.61065 0.83111 0.0
O318 O 0.24836 0.63023 0.85553 0.0
C319 C 0.25458 0.56908 0.81996 0.0
O320 O 0.24684 0.57016 0.83972 0.0
C321 C 0.29233 0.62313 0.82565 0.0
Zn322 Zn 0.37653 0.27139 0.8573 0.0
Zn323 Zn 0.40096 0.26471 0.8304 0.0
O324 O 0.4107 0.26857 0.86307 0.0
O325 O 0.39063 0.27586 0.88443 0.0
O326 O 0.41989 0.26089 0.81038 0.0
O327 O 0.37008 0.28888 0.83599 0.0
O328 O 0.39037 0.28345 0.81387 0.0
C329 C 0.40511 0.27323 0.8825 0.0
C330 C 0.37578 0.24006 0.83806 0.0
O331 O 0.38834 0.24432 0.82797 0.0
O332 O 0.36875 0.24936 0.8517 0.0
C333 C 0.42875 0.2492 0.81375 0.0
O334 O 0.42527 0.23922 0.83039 0.0
C335 C 0.37827 0.29167 0.81808 0.0
Zn336 Zn 0.273 0.37741 0.36106 0.0
Zn337 Zn 0.26556 0.40141 0.33357 0.0
O338 O 0.26901 0.41173 0.36592 0.0
O339 O 0.27501 0.39182 0.3885 0.0
O340 O 0.26093 0.41975 0.3126 0.0
O341 O 0.292 0.37273 0.34192 0.0
O342 O 0.28505 0.39155 0.31785 0.0
C343 C 0.27273 0.40631 0.38591 0.0
C344 C 0.24244 0.3745 0.33987 0.0
O345 O 0.2457 0.38786 0.33136 0.0
O346 O 0.25224 0.36754 0.35281 0.0
C347 C 0.25238 0.43104 0.31927 0.0
O348 O 0.24612 0.4306 0.34021 0.0
C349 C 0.29435 0.38053 0.32348 0.0
Zn350 Zn 0.62261 0.26131 0.3664 0.0
Zn351 Zn 0.59777 0.2567 0.33944 0.0
O352 O 0.58817 0.25863 0.37265 0.0
O353 O 0.60897 0.26218 0.39464 0.0
O354 O 0.57886 0.25428 0.31881 0.0
O355 O 0.62834 0.28086 0.34883 0.0
O356 O 0.60817 0.27653 0.32593 0.0
C357 C 0.59434 0.26058 0.39273 0.0
C358 C 0.62341 0.23182 0.34231 0.0
O359 O 0.61043 0.23644 0.33386 0.0
O360 O 0.63088 0.2404 0.35646 0.0
C361 C 0.56926 0.24309 0.32134 0.0
O362 O 0.5718 0.23265 0.33773 0.0
C363 C 0.62003 0.28474 0.33148 0.0
Zn364 Zn 0.72832 0.62311 0.36043 0.0
Zn365 Zn 0.73542 0.59824 0.33429 0.0
O366 O 0.73227 0.58904 0.36737 0.0
O367 O 0.72485 0.60929 0.38824 0.0
O368 O 0.73936 0.57897 0.31509 0.0
O369 O 0.71018 0.62832 0.33951 0.0
O370 O 0.71606 0.60781 0.31811 0.0
C371 C 0.72778 0.59485 0.38674 0.0
C372 C 0.75933 0.62438 0.33996 0.0
O373 O 0.75534 0.61146 0.33069 0.0
O374 O 0.75 0.63146 0.3535 0.0
C375 C 0.75261 0.57239 0.31346 0.0
O376 O 0.76467 0.57848 0.32435 0.0
C377 C 0.7074 0.61962 0.32213 0.0
Zn378 Zn 0.37743 0.72847 0.35783 0.0
Zn379 Zn 0.40177 0.73659 0.33133 0.0
O380 O 0.41162 0.73365 0.36399 0.0
O381 O 0.3916 0.72664 0.38569 0.0
O382 O 0.42054 0.74095 0.31124 0.0
O383 O 0.37318 0.70955 0.33822 0.0
O384 O 0.39247 0.71696 0.3154 0.0
C385 C 0.40602 0.7296 0.38371 0.0
C386 C 0.37444 0.75915 0.33659 0.0
O387 O 0.38798 0.7562 0.32845 0.0
O388 O 0.36752 0.74918 0.34927 0.0
C389 C 0.42704 0.75423 0.30937 0.0
O390 O 0.42123 0.76621 0.32077 0.0
C391 C 0.38144 0.70747 0.32018 0.0
Zn392 Zn 0.26224 0.62535 0.13851 0.0
Zn393 Zn 0.25733 0.60054 0.16452 0.0
O394 O 0.2581 0.59141 0.13099 0.0
O395 O 0.25921 0.61266 0.10945 0.0
O396 O 0.25472 0.58146 0.18479 0.0
O397 O 0.28371 0.62847 0.15182 0.0
O398 O 0.27799 0.60997 0.17707 0.0
C399 C 0.25821 0.59795 0.11098 0.0
C400 C 0.2346 0.62801 0.16655 0.0
O401 O 0.23772 0.61384 0.17159 0.0
O402 O 0.24377 0.63576 0.15364 0.0
C403 C 0.24577 0.57023 0.17917 0.0
O404 O 0.23763 0.57116 0.15976 0.0
C405 C 0.28726 0.62053 0.16968 0.0
Zn406 Zn 0.37589 0.26246 0.13816 0.0
Zn407 Zn 0.40174 0.25769 0.16236 0.0
O408 O 0.40994 0.25882 0.12837 0.0
O409 O 0.38809 0.26079 0.10834 0.0
O410 O 0.42136 0.25537 0.18149 0.0
O411 O 0.37217 0.28327 0.15329 0.0
O412 O 0.39228 0.27803 0.17588 0.0
C413 C 0.40281 0.25959 0.10884 0.0
C414 C 0.37493 0.23415 0.16516 0.0
O415 O 0.38903 0.23775 0.16989 0.0
O416 O 0.36668 0.24313 0.15264 0.0
C417 C 0.43004 0.24336 0.18053 0.0
O418 O 0.42616 0.23182 0.16657 0.0
C419 C 0.38091 0.28691 0.17026 0.0
Zn420 Zn 0.72947 0.37618 0.14286 0.0
Zn421 Zn 0.73635 0.40046 0.17004 0.0
O422 O 0.73396 0.41017 0.13707 0.0
O423 O 0.72783 0.39012 0.11483 0.0
O424 O 0.74004 0.41952 0.18979 0.0
O425 O 0.71015 0.3716 0.16137 0.0
O426 O 0.71658 0.39075 0.18516 0.0
C427 C 0.73042 0.40458 0.11713 0.0
C428 C 0.75951 0.37361 0.16627 0.0
O429 O 0.75605 0.38701 0.17441 0.0
O430 O 0.75014 0.36667 0.15262 0.0
C431 C 0.75312 0.42653 0.19061 0.0
O432 O 0.76498 0.42092 0.17874 0.0
C433 C 0.70745 0.37959 0.1795 0.0
Zn434 Zn 0.6242 0.73589 0.13948 0.0
Zn435 Zn 0.5987 0.7407 0.16421 0.0
O436 O 0.59063 0.74097 0.13011 0.0
O437 O 0.61234 0.73943 0.10972 0.0
O438 O 0.57887 0.74331 0.18264 0.0
O439 O 0.6267 0.71424 0.15252 0.0
O440 O 0.60753 0.71979 0.17673 0.0
C441 C 0.59765 0.74092 0.11048 0.0
C442 C 0.62629 0.76299 0.16906 0.0
O443 O 0.61203 0.75984 0.17326 0.0
O444 O 0.63426 0.75412 0.15596 0.0
C445 C 0.57201 0.75642 0.18436 0.0
O446 O 0.57817 0.76872 0.17419 0.0
C447 C 0.61825 0.71055 0.16979 0.0
H448 H 0.34414 0.22761 0.1697 0.0
H449 H 0.33212 0.20268 0.17896 0.0
H450 H 0.3776 0.182 0.18848 0.0
H451 H 0.38988 0.20724 0.17912 0.0
H452 H 0.35848 0.16558 0.15757 0.0
H453 H 0.32606 0.17751 0.23867 0.0
H454 H 0.32294 0.19294 0.21801 0.0
H455 H 0.3423 0.18943 0.22923 0.0
C456 C 0.35164 0.21786 0.17413 0.0
C457 C 0.36797 0.21937 0.17357 0.0
C458 C 0.34473 0.20363 0.17968 0.0
C459 C 0.35394 0.19054 0.18482 0.0
C460 C 0.37028 0.19203 0.18487 0.0
H461 H 0.28482 0.11521 0.19638 0.0
H462 H 0.30985 0.12758 0.20641 0.0
C463 C 0.37727 0.20643 0.17953 0.0
C464 C 0.3462 0.17514 0.18714 0.0
H465 H 0.31356 0.15915 0.2114 0.0
C466 C 0.34898 0.16388 0.16985 0.0
C467 C 0.33404 0.17269 0.20345 0.0
C468 C 0.33129 0.18374 0.22354 0.0
C469 C 0.33876 0.15123 0.16674 0.0
C470 C 0.32535 0.15004 0.18106 0.0
C471 C 0.32368 0.16021 0.20011 0.0
C472 C 0.31167 0.14051 0.17404 0.0
C473 C 0.3419 0.13983 0.14725 0.0
C474 C 0.30446 0.14361 0.15252 0.0
C475 C 0.29022 0.13673 0.14688 0.0
C476 C 0.28279 0.12658 0.16265 0.0
C477 C 0.2903 0.12293 0.18383 0.0
C478 C 0.30458 0.12998 0.18959 0.0
H479 H 0.35466 0.13841 0.1444 0.0
H480 H 0.3367 0.12821 0.15097 0.0
H481 H 0.33678 0.14439 0.1308 0.0
H482 H 0.30947 0.152 0.14049 0.0
H483 H 0.28479 0.13976 0.13039 0.0
H484 H 0.84277 0.26807 0.16686 0.0
H485 H 0.82879 0.29168 0.17751 0.0
H486 H 0.87217 0.31392 0.19643 0.0
H487 H 0.88647 0.29004 0.18557 0.0
H488 H 0.8282 0.30925 0.22091 0.0
H489 H 0.85202 0.34258 0.14504 0.0
H490 H 0.85332 0.32156 0.14614 0.0
H491 H 0.86522 0.33319 0.16514 0.0
C492 C 0.8494 0.2779 0.17344 0.0
C493 C 0.86576 0.27723 0.17513 0.0
C494 C 0.84136 0.29138 0.17964 0.0
C495 C 0.84944 0.30457 0.18758 0.0
C496 C 0.86574 0.30387 0.19016 0.0
H497 H 0.78533 0.38623 0.18802 0.0
H498 H 0.80968 0.3726 0.19856 0.0
C499 C 0.87387 0.29023 0.18405 0.0
C500 C 0.84045 0.31909 0.19154 0.0
H501 H 0.82888 0.35177 0.16206 0.0
C502 C 0.82868 0.31886 0.20859 0.0
C503 C 0.84111 0.33162 0.17545 0.0
C504 C 0.85354 0.33238 0.15682 0.0
C505 C 0.81672 0.33005 0.20857 0.0
C506 C 0.81653 0.34163 0.19103 0.0
C507 C 0.82912 0.34283 0.17547 0.0
C508 C 0.80202 0.35018 0.18551 0.0
C509 C 0.80367 0.32869 0.22612 0.0
C510 C 0.78986 0.34208 0.17451 0.0
C511 C 0.77616 0.34977 0.16828 0.0
C512 C 0.77425 0.36575 0.17303 0.0
C513 C 0.78644 0.3739 0.18419 0.0
C514 C 0.80033 0.36617 0.19021 0.0
H515 H 0.80735 0.32195 0.24177 0.0
H516 H 0.79961 0.34042 0.23169 0.0
H517 H 0.79366 0.32253 0.21793 0.0
H518 H 0.79104 0.32976 0.17058 0.0
H519 H 0.76701 0.34311 0.15981 0.0
H520 H 0.65726 0.76829 0.17476 0.0
H521 H 0.67 0.79262 0.18545 0.0
H522 H 0.62511 0.81451 0.19511 0.0
H523 H 0.61212 0.78991 0.18437 0.0
H524 H 0.64466 0.83042 0.16441 0.0
H525 H 0.6768 0.81732 0.24548 0.0
H526 H 0.67943 0.80191 0.22466 0.0
H527 H 0.6602 0.80591 0.23597 0.0
C528 C 0.65005 0.77817 0.17958 0.0
C529 C 0.63369 0.77722 0.17858 0.0
C530 C 0.65736 0.79204 0.18596 0.0
C531 C 0.64851 0.80532 0.19147 0.0
C532 C 0.63214 0.80433 0.19123 0.0
H533 H 0.71759 0.8817 0.19994 0.0
H534 H 0.69292 0.86895 0.21119 0.0
C535 C 0.62476 0.7903 0.18509 0.0
C536 C 0.65665 0.82048 0.19401 0.0
H537 H 0.68974 0.83553 0.21834 0.0
C538 C 0.65417 0.83185 0.17675 0.0
C539 C 0.66888 0.82253 0.21034 0.0
C540 C 0.67136 0.81132 0.23031 0.0
C541 C 0.66477 0.84416 0.17365 0.0
C542 C 0.67816 0.84497 0.18804 0.0
C543 C 0.67958 0.83475 0.20707 0.0
C544 C 0.69209 0.85397 0.1808 0.0
C545 C 0.66218 0.85554 0.15392 0.0
C546 C 0.69976 0.84965 0.16017 0.0
C547 C 0.71382 0.85666 0.15394 0.0
C548 C 0.72052 0.86822 0.16817 0.0
C549 C 0.71266 0.87286 0.18861 0.0
C550 C 0.6986 0.86562 0.19504 0.0
H551 H 0.64954 0.85684 0.14999 0.0
H552 H 0.66714 0.86719 0.15811 0.0
H553 H 0.668 0.85108 0.13795 0.0
H554 H 0.6951 0.84046 0.14918 0.0
H555 H 0.71953 0.85286 0.13804 0.0
H556 H 0.22939 0.65902 0.17148 0.0
H557 H 0.20481 0.67205 0.17984 0.0
H558 H 0.18211 0.62743 0.18808 0.0
H559 H 0.20698 0.61415 0.1797 0.0
H560 H 0.16747 0.64727 0.15593 0.0
H561 H 0.17824 0.67899 0.23813 0.0
H562 H 0.19429 0.68149 0.21837 0.0
H563 H 0.18975 0.66229 0.22936 0.0
C564 C 0.21927 0.65193 0.1755 0.0
C565 C 0.2201 0.63556 0.17481 0.0
C566 C 0.20523 0.65942 0.18052 0.0
C567 C 0.19167 0.65073 0.18494 0.0
C568 C 0.1925 0.63434 0.185 0.0
H569 H 0.11574 0.71987 0.19328 0.0
H570 H 0.1285 0.69505 0.20336 0.0
C571 C 0.20669 0.62679 0.18023 0.0
C572 C 0.17653 0.65904 0.18632 0.0
H573 H 0.1607 0.69188 0.21024 0.0
C574 C 0.16569 0.65671 0.16827 0.0
C575 C 0.17401 0.67117 0.20264 0.0
C576 C 0.18463 0.67352 0.22337 0.0
C577 C 0.15339 0.66727 0.16461 0.0
C578 C 0.15209 0.68053 0.1792 0.0
C579 C 0.16185 0.68185 0.1988 0.0
C580 C 0.14275 0.69431 0.17218 0.0
C581 C 0.14247 0.66463 0.14433 0.0
C582 C 0.14653 0.70208 0.15136 0.0
C583 C 0.13944 0.71623 0.14571 0.0
C584 C 0.12838 0.72296 0.16076 0.0
C585 C 0.12417 0.71493 0.18128 0.0
C586 C 0.13144 0.70078 0.18707 0.0
H587 H 0.1412 0.65197 0.14051 0.0
H588 H 0.13074 0.66965 0.14781 0.0
H589 H 0.14735 0.67032 0.12851 0.0
H590 H 0.15549 0.69751 0.13987 0.0
H591 H 0.14293 0.72208 0.12976 0.0
H592 H 0.28399 0.85796 0.37947 0.0
H593 H 0.30773 0.84387 0.36951 0.0
H594 H 0.309 0.86675 0.3024 0.0
H595 H 0.28501 0.88107 0.31235 0.0
H596 H 0.30999 0.83412 0.30003 0.0
H597 H 0.3539 0.85532 0.36306 0.0
H598 H 0.33578 0.85094 0.37731 0.0
H599 H 0.33653 0.86633 0.35587 0.0
C600 C 0.28944 0.86026 0.36275 0.0
C601 C 0.28258 0.87057 0.34664 0.0
C602 C 0.30313 0.85229 0.35717 0.0
C603 C 0.31027 0.85443 0.33536 0.0
C604 C 0.30376 0.86509 0.31944 0.0
H605 H 0.38744 0.7864 0.32008 0.0
H606 H 0.37415 0.81157 0.31409 0.0
C607 C 0.29008 0.87325 0.32515 0.0
C608 C 0.32321 0.84391 0.32851 0.0
H609 H 0.35686 0.82825 0.35025 0.0
C610 C 0.32049 0.83312 0.31052 0.0
C611 C 0.33703 0.84272 0.34195 0.0
C612 C 0.34107 0.85457 0.36047 0.0
C613 C 0.33042 0.82028 0.30722 0.0
C614 C 0.34326 0.81817 0.32241 0.0
C615 C 0.34688 0.82979 0.33881 0.0
C616 C 0.35138 0.80295 0.32415 0.0
C617 C 0.32658 0.80859 0.28839 0.0
C618 C 0.34298 0.78991 0.33194 0.0
C619 C 0.3505 0.77569 0.33561 0.0
C620 C 0.36661 0.77418 0.33151 0.0
C621 C 0.37501 0.7872 0.32329 0.0
C622 C 0.36746 0.80155 0.31987 0.0
H623 H 0.31984 0.81408 0.27397 0.0
H624 H 0.33735 0.80326 0.28109 0.0
H625 H 0.3193 0.79913 0.29596 0.0
H626 H 0.33062 0.79082 0.33575 0.0
H627 H 0.34366 0.76591 0.34188 0.0
H628 H 0.23471 0.34412 0.34738 0.0
H629 H 0.20976 0.33136 0.3403 0.0
H630 H 0.19067 0.37451 0.31403 0.0
H631 H 0.21588 0.38752 0.32096 0.0
H632 H 0.17214 0.35814 0.34971 0.0
H633 H 0.18923 0.31961 0.27649 0.0
H634 H 0.20312 0.31943 0.3 0.0
H635 H 0.19985 0.33718 0.28389 0.0
C636 C 0.22528 0.35094 0.33996 0.0
C637 C 0.2273 0.36685 0.33474 0.0
C638 C 0.21105 0.34358 0.33577 0.0
C639 C 0.19847 0.35193 0.32634 0.0
C640 C 0.20033 0.36784 0.32111 0.0
H641 H 0.12045 0.28629 0.30776 0.0
H642 H 0.13533 0.31014 0.29897 0.0
C643 C 0.21471 0.37523 0.32507 0.0
C644 C 0.18325 0.34396 0.32347 0.0
H645 H 0.16773 0.31068 0.30045 0.0
C646 C 0.17096 0.34801 0.33847 0.0
C647 C 0.18161 0.33093 0.30851 0.0
C648 C 0.1941 0.32661 0.29113 0.0
C649 C 0.15769 0.33847 0.34049 0.0
C650 C 0.15684 0.3245 0.32736 0.0
C651 C 0.16843 0.32131 0.3107 0.0
C652 C 0.14571 0.31186 0.33335 0.0
C653 C 0.14505 0.34302 0.3575 0.0
C654 C 0.1465 0.30505 0.3556 0.0
C655 C 0.13821 0.29145 0.36055 0.0
C656 C 0.12891 0.28433 0.34335 0.0
C657 C 0.12746 0.29157 0.32139 0.0
C658 C 0.13595 0.30516 0.31634 0.0
H659 H 0.14439 0.35591 0.35946 0.0
H660 H 0.13346 0.33858 0.35186 0.0
H661 H 0.14778 0.33801 0.37491 0.0
H662 H 0.15421 0.30978 0.36884 0.0
H663 H 0.13954 0.28619 0.37765 0.0
H664 H 0.71428 0.11235 0.31174 0.0
H665 H 0.68897 0.12484 0.3036 0.0
H666 H 0.70842 0.16955 0.32238 0.0
H667 H 0.73346 0.15732 0.33059 0.0
H668 H 0.67136 0.14212 0.33719 0.0
H669 H 0.68539 0.17865 0.26057 0.0
H670 H 0.69686 0.16177 0.26868 0.0
H671 H 0.7001 0.18029 0.28276 0.0
C672 C 0.71318 0.12487 0.31381 0.0
C673 C 0.72585 0.13385 0.32188 0.0
C674 C 0.69874 0.13197 0.30914 0.0
C675 C 0.69693 0.14815 0.31199 0.0
C676 C 0.70966 0.1571 0.31956 0.0
H677 H 0.64371 0.21463 0.3678 0.0
H678 H 0.6572 0.19087 0.35635 0.0
C679 C 0.72394 0.15005 0.32447 0.0
C680 C 0.68151 0.1558 0.30949 0.0
H681 H 0.66543 0.18895 0.28692 0.0
C682 C 0.66979 0.15205 0.32565 0.0
C683 C 0.67932 0.16856 0.29415 0.0
C684 C 0.69104 0.17245 0.27538 0.0
C685 C 0.65679 0.16182 0.32867 0.0
C686 C 0.65565 0.17569 0.31536 0.0
C687 C 0.66641 0.17842 0.29735 0.0
C688 C 0.64559 0.1888 0.3229 0.0
C689 C 0.64493 0.15777 0.34717 0.0
C690 C 0.63457 0.19561 0.30782 0.0
C691 C 0.62671 0.2093 0.31443 0.0
C692 C 0.63011 0.21651 0.33592 0.0
C693 C 0.64089 0.20941 0.35108 0.0
C694 C 0.6485 0.19572 0.34466 0.0
H695 H 0.6441 0.14493 0.3496 0.0
H696 H 0.64862 0.16295 0.36406 0.0
H697 H 0.6332 0.16242 0.34265 0.0
H698 H 0.63233 0.19055 0.29081 0.0
H699 H 0.6185 0.21457 0.30238 0.0
H700 H 0.77985 0.61707 0.30463 0.0
H701 H 0.80465 0.63022 0.29549 0.0
H702 H 0.79829 0.66057 0.3548 0.0
H703 H 0.77369 0.64772 0.36393 0.0
H704 H 0.80764 0.6631 0.28597 0.0
H705 H 0.84399 0.64542 0.36124 0.0
H706 H 0.82692 0.63458 0.35212 0.0
H707 H 0.82489 0.65169 0.37013 0.0
C708 C 0.78386 0.62643 0.31586 0.0
C709 C 0.77478 0.63139 0.33497 0.0
C710 C 0.79801 0.6339 0.31062 0.0
C711 C 0.8034 0.64618 0.3247 0.0
C712 C 0.7945 0.65091 0.34399 0.0
H713 H 0.84111 0.73212 0.32373 0.0
H714 H 0.82755 0.70773 0.31586 0.0
C715 C 0.78035 0.64362 0.34906 0.0
C716 C 0.81754 0.65522 0.31851 0.0
H717 H 0.85014 0.67061 0.34383 0.0
C718 C 0.81721 0.66442 0.29823 0.0
C719 C 0.83017 0.65673 0.33426 0.0
C720 C 0.83162 0.64644 0.35554 0.0
C721 C 0.8283 0.67624 0.29461 0.0
C722 C 0.83986 0.67895 0.3118 0.0
C723 C 0.84117 0.66865 0.33077 0.0
C724 C 0.84859 0.69386 0.31285 0.0
C725 C 0.82702 0.68633 0.2731 0.0
C726 C 0.86498 0.69421 0.31376 0.0
C727 C 0.87284 0.70828 0.31819 0.0
C728 C 0.86434 0.72206 0.32235 0.0
C729 C 0.84798 0.72169 0.3207 0.0
C730 C 0.84021 0.70777 0.31597 0.0
H731 H 0.82175 0.67974 0.25835 0.0
H732 H 0.81932 0.69643 0.27693 0.0
H733 H 0.83862 0.69083 0.26764 0.0
H734 H 0.87164 0.68355 0.31168 0.0
H735 H 0.88546 0.70822 0.31948 0.0
H736 H 0.71694 0.88198 0.81051 0.0
H737 H 0.69305 0.86697 0.80242 0.0
H738 H 0.69821 0.84299 0.86823 0.0
H739 H 0.72191 0.85773 0.87634 0.0
H740 H 0.69269 0.83377 0.79952 0.0
H741 H 0.6515 0.85458 0.86699 0.0
H742 H 0.66832 0.86579 0.85787 0.0
H743 H 0.67042 0.85029 0.87889 0.0
C744 C 0.71279 0.87371 0.82342 0.0
C745 C 0.72134 0.87098 0.84402 0.0
C746 C 0.69917 0.86516 0.81877 0.0
C747 C 0.69375 0.85403 0.83488 0.0
C748 C 0.70199 0.85174 0.85577 0.0
H749 H 0.65807 0.76569 0.8422 0.0
H750 H 0.67184 0.79024 0.83622 0.0
C751 C 0.71563 0.86009 0.86029 0.0
C752 C 0.6806 0.84346 0.82916 0.0
H753 H 0.64749 0.82807 0.85305 0.0
C754 C 0.68256 0.83279 0.81079 0.0
C755 C 0.6673 0.84229 0.84369 0.0
C756 C 0.66416 0.85397 0.86282 0.0
C757 C 0.67231 0.82014 0.80795 0.0
C758 C 0.6599 0.81812 0.82393 0.0
C759 C 0.65711 0.82957 0.84094 0.0
C760 C 0.65133 0.80315 0.82558 0.0
C761 C 0.67532 0.80856 0.78863 0.0
C762 C 0.63516 0.8023 0.8217 0.0
C763 C 0.62719 0.78815 0.82498 0.0
C764 C 0.63527 0.77478 0.83268 0.0
C765 C 0.65147 0.77575 0.83634 0.0
C766 C 0.6594 0.78976 0.83278 0.0
H767 H 0.682 0.81395 0.77408 0.0
H768 H 0.6823 0.7987 0.79564 0.0
H769 H 0.66419 0.80379 0.78165 0.0
H770 H 0.62872 0.81258 0.81635 0.0
H771 H 0.61469 0.78777 0.82212 0.0
H772 H 0.12053 0.71188 0.80184 0.0
H773 H 0.13334 0.68681 0.79269 0.0
H774 H 0.15701 0.6882 0.85919 0.0
H775 H 0.14459 0.71297 0.8682 0.0
H776 H 0.16736 0.68307 0.79183 0.0
H777 H 0.1399 0.64298 0.85512 0.0
H778 H 0.13049 0.66067 0.84508 0.0
H779 H 0.14468 0.66137 0.86831 0.0
C780 C 0.12829 0.70665 0.81457 0.0
C781 C 0.13164 0.7144 0.83566 0.0
C782 C 0.13557 0.69238 0.80935 0.0
C783 C 0.14591 0.68555 0.82544 0.0
C784 C 0.14883 0.6931 0.84672 0.0
H785 H 0.22377 0.64497 0.86496 0.0
H786 H 0.19848 0.65622 0.85546 0.0
C787 C 0.14183 0.70735 0.85175 0.0
C788 C 0.15516 0.67147 0.81975 0.0
H789 H 0.16753 0.6381 0.84646 0.0
C790 C 0.16706 0.67286 0.80302 0.0
C791 C 0.15468 0.65814 0.83429 0.0
C792 C 0.14163 0.65561 0.85155 0.0
C793 C 0.17954 0.66221 0.80249 0.0
C794 C 0.17998 0.64996 0.81903 0.0
C795 C 0.16719 0.64759 0.8339 0.0
C796 C 0.19481 0.64201 0.82473 0.0
C797 C 0.19297 0.66502 0.786 0.0
C798 C 0.20104 0.63014 0.81065 0.0
C799 C 0.21561 0.62357 0.81612 0.0
C800 C 0.22413 0.62892 0.83559 0.0
C801 C 0.21761 0.64063 0.84976 0.0
C802 C 0.20311 0.64704 0.84442 0.0
H803 H 0.19051 0.67462 0.77347 0.0
H804 H 0.2036 0.66804 0.79615 0.0
H805 H 0.19551 0.65421 0.77601 0.0
H806 H 0.19474 0.62612 0.79538 0.0
H807 H 0.22033 0.61457 0.80486 0.0
H808 H 0.35384 0.22512 0.86405 0.0
H809 H 0.34091 0.20045 0.85563 0.0
H810 H 0.36898 0.19488 0.79367 0.0
H811 H 0.38218 0.21976 0.80209 0.0
H812 H 0.33617 0.19191 0.78651 0.0
H813 H 0.35571 0.15475 0.85976 0.0
H814 H 0.34969 0.1737 0.86964 0.0
H815 H 0.3663 0.17195 0.85055 0.0
C816 C 0.35745 0.21859 0.84877 0.0
C817 C 0.36901 0.22443 0.83369 0.0
C818 C 0.35013 0.2044 0.8441 0.0
C819 C 0.35416 0.19572 0.82424 0.0
C820 C 0.36585 0.20134 0.80925 0.0
H821 H 0.29141 0.11407 0.82045 0.0
H822 H 0.31601 0.12786 0.81205 0.0
C823 C 0.37336 0.21553 0.81408 0.0
C824 C 0.34486 0.18168 0.81835 0.0
H825 H 0.32989 0.149 0.84398 0.0
C826 C 0.33511 0.18225 0.79866 0.0
C827 C 0.34367 0.16893 0.83395 0.0
C828 C 0.35453 0.16719 0.85453 0.0
C829 C 0.32311 0.17129 0.79556 0.0
C830 C 0.32077 0.15962 0.81269 0.0
C831 C 0.33157 0.15806 0.83099 0.0
C832 C 0.30585 0.15094 0.8144 0.0
C833 C 0.31246 0.17283 0.7747 0.0
C834 C 0.29207 0.15935 0.81843 0.0
C835 C 0.27819 0.15158 0.82348 0.0
C836 C 0.27775 0.1352 0.82456 0.0
C837 C 0.29141 0.1267 0.81961 0.0
C838 C 0.30543 0.13455 0.81483 0.0
H839 H 0.31868 0.17821 0.75968 0.0
H840 H 0.30775 0.16131 0.76926 0.0
H841 H 0.30251 0.18054 0.77929 0.0
H842 H 0.29218 0.172 0.81869 0.0
H843 H 0.26786 0.15846 0.82713 0.0
H844 H 0.84244 0.269 0.83838 0.0
H845 H 0.8308 0.29426 0.82988 0.0
H846 H 0.87593 0.31254 0.81073 0.0
H847 H 0.88782 0.28691 0.81904 0.0
H848 H 0.85815 0.33046 0.84537 0.0
H849 H 0.82305 0.31729 0.76681 0.0
H850 H 0.82137 0.30229 0.78859 0.0
H851 H 0.84 0.30597 0.77512 0.0
C852 C 0.84993 0.2783 0.83213 0.0
C853 C 0.86607 0.27598 0.82946 0.0
C854 C 0.84321 0.29271 0.82707 0.0
C855 C 0.85246 0.30518 0.81935 0.0
C856 C 0.86859 0.30296 0.81641 0.0
H857 H 0.7861 0.38318 0.80768 0.0
H858 H 0.8105 0.36967 0.79733 0.0
C859 C 0.87534 0.28836 0.82116 0.0
C860 C 0.8451 0.32071 0.8167 0.0
H861 H 0.81242 0.33705 0.79303 0.0
C862 C 0.84848 0.3322 0.8334 0.0
C863 C 0.83267 0.3231 0.80083 0.0
C864 C 0.82915 0.31156 0.78165 0.0
C865 C 0.83862 0.34514 0.83636 0.0
C866 C 0.82504 0.34645 0.82243 0.0
C867 C 0.82273 0.33595 0.80394 0.0
C868 C 0.81176 0.35647 0.82951 0.0
C869 C 0.84227 0.35676 0.85538 0.0
C870 C 0.80444 0.35353 0.85098 0.0
C871 C 0.79053 0.361 0.85675 0.0
C872 C 0.78359 0.37163 0.84119 0.0
C873 C 0.79122 0.37508 0.82004 0.0
C874 C 0.80513 0.3674 0.81412 0.0
H875 H 0.85507 0.35764 0.85831 0.0
H876 H 0.83762 0.36852 0.85109 0.0
H877 H 0.83686 0.35278 0.87196 0.0
H878 H 0.80913 0.34488 0.86289 0.0
H879 H 0.78499 0.35812 0.87321 0.0
H880 H 0.64366 0.22343 0.62558 0.0
H881 H 0.65583 0.198 0.63109 0.0
H882 H 0.63064 0.19185 0.69564 0.0
H883 H 0.61814 0.21748 0.69012 0.0
H884 H 0.66492 0.18719 0.69701 0.0
H885 H 0.63638 0.15326 0.62676 0.0
H886 H 0.64248 0.17232 0.61739 0.0
H887 H 0.62768 0.17051 0.63952 0.0
C888 C 0.64055 0.21666 0.64087 0.0
C889 C 0.62995 0.22249 0.65744 0.0
C890 C 0.64744 0.20206 0.6439 0.0
C891 C 0.64397 0.19297 0.6636 0.0
C892 C 0.63333 0.19864 0.68019 0.0
H893 H 0.71247 0.11635 0.68563 0.0
H894 H 0.68781 0.13024 0.69337 0.0
C895 C 0.62622 0.21325 0.67701 0.0
C896 C 0.65257 0.17817 0.6672 0.0
H897 H 0.66246 0.14503 0.63773 0.0
C898 C 0.66409 0.17766 0.6846 0.0
C899 C 0.65137 0.16576 0.65105 0.0
C900 C 0.6387 0.16538 0.63275 0.0
C901 C 0.67549 0.16585 0.68473 0.0
C902 C 0.67515 0.15424 0.66715 0.0
C903 C 0.66273 0.15397 0.65114 0.0
C904 C 0.68901 0.14444 0.66214 0.0
C905 C 0.68861 0.16666 0.70229 0.0
C906 C 0.69753 0.14752 0.64176 0.0
C907 C 0.71147 0.13971 0.63735 0.0
C908 C 0.71723 0.12854 0.65318 0.0
C909 C 0.70835 0.12492 0.67315 0.0
C910 C 0.69433 0.13288 0.67765 0.0
H911 H 0.68771 0.17707 0.71379 0.0
H912 H 0.68843 0.15605 0.71342 0.0
H913 H 0.70004 0.167 0.69315 0.0
H914 H 0.69364 0.15638 0.62956 0.0
H915 H 0.71791 0.14269 0.62169 0.0
H916 H 0.79218 0.61286 0.68112 0.0
H917 H 0.81717 0.62608 0.68895 0.0
H918 H 0.79421 0.67075 0.6833 0.0
H919 H 0.76951 0.65778 0.67552 0.0
H920 H 0.83108 0.64628 0.65689 0.0
H921 H 0.82205 0.67711 0.74027 0.0
H922 H 0.8103 0.66055 0.73159 0.0
H923 H 0.80561 0.67989 0.72132 0.0
C924 C 0.79245 0.62548 0.68215 0.0
C925 C 0.77893 0.6343 0.67759 0.0
C926 C 0.80671 0.633 0.68659 0.0
C927 C 0.8075 0.64939 0.68706 0.0
C928 C 0.79384 0.6581 0.68357 0.0
H929 H 0.85556 0.72119 0.63118 0.0
H930 H 0.84283 0.69676 0.64149 0.0
C931 C 0.77973 0.65066 0.67888 0.0
C932 C 0.82265 0.65773 0.68794 0.0
H933 H 0.83898 0.69034 0.71187 0.0
C934 C 0.83312 0.65559 0.66936 0.0
C935 C 0.82551 0.6697 0.70441 0.0
C936 C 0.81533 0.67183 0.72566 0.0
C937 C 0.84533 0.6662 0.66538 0.0
C938 C 0.84694 0.6793 0.68021 0.0
C939 C 0.83759 0.68043 0.70026 0.0
C940 C 0.8562 0.69313 0.67314 0.0
C941 C 0.85583 0.66377 0.64456 0.0
C942 C 0.86789 0.69933 0.68763 0.0
C943 C 0.87525 0.71342 0.68174 0.0
C944 C 0.87078 0.72164 0.66151 0.0
C945 C 0.85927 0.7152 0.6469 0.0
C946 C 0.85208 0.70112 0.65265 0.0
H947 H 0.85698 0.65116 0.64035 0.0
H948 H 0.85065 0.66966 0.62912 0.0
H949 H 0.86764 0.66871 0.64766 0.0
H950 H 0.8711 0.69343 0.70367 0.0
H951 H 0.88403 0.71813 0.6934 0.0
H952 H 0.2673 0.84504 0.64989 0.0
H953 H 0.29218 0.83182 0.65576 0.0
H954 H 0.31216 0.8742 0.68324 0.0
H955 H 0.28703 0.88766 0.67763 0.0
H956 H 0.32965 0.85725 0.64496 0.0
H957 H 0.31344 0.81979 0.72009 0.0
H958 H 0.29894 0.82039 0.69739 0.0
H959 H 0.30348 0.83787 0.71338 0.0
C960 C 0.27692 0.8516 0.6573 0.0
C961 C 0.27518 0.86742 0.66328 0.0
C962 C 0.29111 0.84398 0.66076 0.0
C963 C 0.30391 0.852 0.67017 0.0
C964 C 0.30233 0.86781 0.67614 0.0
H965 H 0.38225 0.78635 0.6869 0.0
H966 H 0.36739 0.81025 0.69536 0.0
C967 C 0.288 0.87545 0.67294 0.0
C968 C 0.319 0.84375 0.67241 0.0
H969 H 0.33445 0.81053 0.69576 0.0
C970 C 0.33094 0.84729 0.65651 0.0
C971 C 0.32073 0.8309 0.68769 0.0
C972 C 0.30853 0.82706 0.70578 0.0
C973 C 0.34395 0.83744 0.65408 0.0
C974 C 0.34489 0.82371 0.66776 0.0
C975 C 0.33367 0.821 0.68515 0.0
C976 C 0.35575 0.81085 0.66181 0.0
C977 C 0.35619 0.8414 0.6361 0.0
C978 C 0.35419 0.80338 0.64015 0.0
C979 C 0.36246 0.78973 0.63541 0.0
C980 C 0.37252 0.78325 0.65223 0.0
C981 C 0.37464 0.79112 0.67357 0.0
C982 C 0.36617 0.80474 0.67843 0.0
H983 H 0.35683 0.8542 0.63311 0.0
H984 H 0.36789 0.8371 0.6415 0.0
H985 H 0.35306 0.83579 0.61926 0.0
H986 H 0.34597 0.80768 0.62726 0.0
H987 H 0.3606 0.78398 0.61878 0.0
H988 H 0.15535 0.26628 0.66577 0.0
H989 H 0.16761 0.29104 0.67548 0.0
H990 H 0.12284 0.31021 0.69456 0.0
H991 H 0.11031 0.28516 0.68487 0.0
H992 H 0.14007 0.32852 0.66232 0.0
H993 H 0.17683 0.31283 0.73792 0.0
H994 H 0.17856 0.29859 0.71509 0.0
H995 H 0.16 0.30144 0.72927 0.0
C996 C 0.14807 0.27566 0.67229 0.0
C997 C 0.13184 0.27377 0.67447 0.0
C998 C 0.15514 0.28978 0.67807 0.0
C999 C 0.14618 0.30237 0.68615 0.0
C1000 C 0.12997 0.30054 0.68865 0.0
H1001 H 0.21335 0.3801 0.69746 0.0
H1002 H 0.18931 0.36633 0.7092 0.0
C1003 C 0.12285 0.28626 0.68309 0.0
C1004 C 0.15386 0.31772 0.68936 0.0
H1005 H 0.18729 0.33312 0.71209 0.0
C1006 C 0.15008 0.32979 0.67378 0.0
C1007 C 0.16673 0.31954 0.70461 0.0
C1008 C 0.17066 0.30745 0.72285 0.0
C1009 C 0.15993 0.34277 0.67116 0.0
C1010 C 0.17391 0.34354 0.68426 0.0
C1011 C 0.17668 0.33243 0.7018 0.0
C1012 C 0.18709 0.35354 0.67678 0.0
C1013 C 0.15585 0.35501 0.65323 0.0
C1014 C 0.19376 0.35085 0.65478 0.0
C1015 C 0.20745 0.35842 0.64826 0.0
C1016 C 0.21481 0.36893 0.66355 0.0
C1017 C 0.20787 0.3721 0.68531 0.0
C1018 C 0.19418 0.36428 0.69202 0.0
H1019 H 0.14299 0.35602 0.65109 0.0
H1020 H 0.16066 0.3666 0.65812 0.0
H1021 H 0.16083 0.35158 0.63609 0.0
H1022 H 0.1887 0.34237 0.64296 0.0
H1023 H 0.21245 0.35579 0.63133 0.0
H1024 H 0.21322 0.1005 0.0758 0.0
H1025 H 0.214 0.08748 0.03818 0.0
H1026 H 0.24512 0.05258 0.06632 0.0
H1027 H 0.24443 0.0658 0.10442 0.0
H1028 H 0.25752 0.06695 0.02929 0.0
H1029 H 0.19813 0.04961 0.00459 0.0
H1030 H 0.19727 0.06889 0.01659 0.0
H1031 H 0.20363 0.05284 0.03472 0.0
C1032 C 0.21987 0.08979 0.07422 0.0
C1033 C 0.22889 0.08425 0.09295 0.0
C1034 C 0.22015 0.08221 0.05272 0.0
C1035 C 0.22945 0.06889 0.04942 0.0
C1036 C 0.23772 0.06272 0.06854 0.0
H1037 H 0.23388 0.06641 0.89575 0.0
H1038 H 0.2336 0.05283 0.93374 0.0
C1039 C 0.23732 0.07028 0.09027 0.0
C1040 C 0.23269 0.06372 0.02518 0.0
H1041 H 0.21398 0.06182 0.97266 0.0
C1042 C 0.24807 0.06515 0.01697 0.0
C1043 C 0.2205 0.06098 0.00899 0.0
C1044 C 0.204 0.05782 0.0168 0.0
C1045 C 0.25119 0.06623 0.99299 0.0
C1046 C 0.23862 0.06605 0.977 0.0
C1047 C 0.22359 0.06232 0.98499 0.0
C1048 C 0.24017 0.07327 0.95363 0.0
C1049 C 0.26776 0.06897 0.98507 0.0
C1050 C 0.24382 0.08921 0.95238 0.0
C1051 C 0.24376 0.09695 0.93103 0.0
C1052 C 0.24009 0.08894 0.91034 0.0
C1053 C 0.23681 0.07285 0.91143 0.0
C1054 C 0.23665 0.06509 0.93304 0.0
H1055 H 0.2762 0.06329 0.99713 0.0
H1056 H 0.26967 0.06446 0.9671 0.0
H1057 H 0.2702 0.0817 0.98514 0.0
H1058 H 0.24624 0.09581 0.96811 0.0
H1059 H 0.24641 0.10932 0.9308 0.0
H1060 H 0.93152 0.24274 0.89256 0.0
H1061 H 0.94573 0.24439 0.92984 0.0
H1062 H 0.90906 0.21817 0.96347 0.0
H1063 H 0.89503 0.21641 0.92673 0.0
H1064 H 0.93433 0.25934 0.96772 0.0
H1065 H 0.94688 0.19899 0.99374 0.0
H1066 H 0.94299 0.20428 0.9637 0.0
H1067 H 0.92716 0.19987 0.98345 0.0
C1068 C 0.92674 0.23699 0.90782 0.0
C1069 C 0.91211 0.22954 0.90679 0.0
C1070 C 0.93487 0.23793 0.92906 0.0
C1071 C 0.92862 0.23115 0.94937 0.0
C1072 C 0.91438 0.2231 0.94796 0.0
H1073 H 0.89488 0.25423 0.06908 0.0
H1074 H 0.90795 0.25393 0.0315 0.0
C1075 C 0.90624 0.22228 0.92695 0.0
C1076 C 0.93524 0.2344 0.97281 0.0
H1077 H 0.93782 0.21653 0.02585 0.0
C1078 C 0.93575 0.24999 0.98033 0.0
C1079 C 0.93762 0.22231 0.98927 0.0
C1080 C 0.93882 0.20544 0.98199 0.0
C1081 C 0.93616 0.25364 0.00421 0.0
C1082 C 0.93577 0.2414 0.02078 0.0
C1083 C 0.93772 0.22595 0.01317 0.0
C1084 C 0.92949 0.24394 0.04459 0.0
C1085 C 0.93565 0.27054 0.01148 0.0
C1086 C 0.93721 0.23838 0.06461 0.0
C1087 C 0.92967 0.23855 0.08638 0.0
C1088 C 0.91419 0.24391 0.08816 0.0
C1089 C 0.90678 0.24995 0.06824 0.0
C1090 C 0.91433 0.24997 0.04675 0.0
H1091 H 0.94237 0.2779 0.99904 0.0
H1092 H 0.92337 0.27468 0.01119 0.0
H1093 H 0.94043 0.27222 0.02935 0.0
H1094 H 0.94883 0.23345 0.06324 0.0
H1095 H 0.9356 0.23377 0.10149 0.0
H1096 H 0.7542 0.93735 0.89866 0.0
H1097 H 0.7536 0.95141 0.93611 0.0
H1098 H 0.7886 0.92006 0.96341 0.0
H1099 H 0.78931 0.90628 0.92647 0.0
H1100 H 0.74359 0.93714 0.97423 0.0
H1101 H 0.80187 0.9593 0.99524 0.0
H1102 H 0.79603 0.95523 0.96549 0.0
H1103 H 0.80426 0.94005 0.98365 0.0
C1104 C 0.76214 0.93388 0.91244 0.0
C1105 C 0.77167 0.92063 0.9098 0.0
C1106 C 0.76181 0.94191 0.93379 0.0
C1107 C 0.77122 0.93697 0.95254 0.0
C1108 C 0.78155 0.92445 0.94914 0.0
H1109 H 0.76265 0.89312 0.06683 0.0
H1110 H 0.76208 0.90809 0.03087 0.0
C1111 C 0.78178 0.91639 0.92804 0.0
C1112 C 0.7682 0.94225 0.97681 0.0
H1113 H 0.78824 0.94505 0.02814 0.0
C1114 C 0.75322 0.93964 0.98596 0.0
C1115 C 0.78058 0.94589 0.99229 0.0
C1116 C 0.79653 0.95045 0.98351 0.0
C1117 C 0.75093 0.93803 0.01009 0.0
C1118 C 0.76392 0.93894 0.02521 0.0
C1119 C 0.77833 0.94402 0.01643 0.0
C1120 C 0.76376 0.9306 0.0478 0.0
C1121 C 0.73497 0.93362 0.01902 0.0
C1122 C 0.76514 0.93835 0.0693 0.0
C1123 C 0.76538 0.92973 0.0902 0.0
C1124 C 0.76458 0.9133 0.08966 0.0
C1125 C 0.76336 0.90573 0.06796 0.0
C1126 C 0.76293 0.91427 0.04734 0.0
H1127 H 0.72564 0.93826 0.00743 0.0
H1128 H 0.73392 0.9207 0.01934 0.0
H1129 H 0.7331 0.93806 0.03703 0.0
H1130 H 0.76596 0.95096 0.0699 0.0
H1131 H 0.76635 0.93588 0.10666 0.0
H1132 H 0.10614 0.75264 0.93362 0.0
H1133 H 0.09157 0.75451 0.96981 0.0
H1134 H 0.05092 0.77019 0.93198 0.0
H1135 H 0.06562 0.76813 0.89499 0.0
H1136 H 0.06054 0.78965 0.97097 0.0
H1137 H 0.05583 0.72816 0.99794 0.0
H1138 H 0.07489 0.73195 0.98627 0.0
H1139 H 0.058 0.73395 0.96769 0.0
C1140 C 0.09405 0.75633 0.93283 0.0
C1141 C 0.08705 0.76034 0.91147 0.0
C1142 C 0.08567 0.75723 0.95356 0.0
C1143 C 0.07009 0.76221 0.95354 0.0
C1144 C 0.06288 0.76609 0.93226 0.0
H1145 H 0.06476 0.76162 0.10391 0.0
H1146 H 0.05046 0.76111 0.06667 0.0
C1147 C 0.07127 0.76494 0.91123 0.0
C1148 C 0.06245 0.76482 0.97638 0.0
H1149 H 0.06198 0.74694 0.02946 0.0
C1150 C 0.06016 0.78027 0.9837 0.0
C1151 C 0.06143 0.75261 0.99291 0.0
C1152 C 0.0625 0.73572 0.98571 0.0
C1153 C 0.05936 0.78395 0.00757 0.0
C1154 C 0.06123 0.77189 0.02427 0.0
C1155 C 0.06094 0.75629 0.01676 0.0
C1156 C 0.06742 0.77511 0.04801 0.0
C1157 C 0.05783 0.80082 0.01467 0.0
C1158 C 0.08152 0.78336 0.05002 0.0
C1159 C 0.08969 0.78355 0.07104 0.0
C1160 C 0.08401 0.77544 0.09058 0.0
C1161 C 0.0694 0.76801 0.08912 0.0
C1162 C 0.06121 0.76772 0.06789 0.0
H1163 H 0.04979 0.80707 0.00263 0.0
H1164 H 0.05344 0.80202 0.03283 0.0
H1165 H 0.06941 0.80659 0.01338 0.0
H1166 H 0.08684 0.78876 0.03487 0.0
H1167 H 0.10088 0.78945 0.07162 0.0
H1168 H 0.24697 0.93593 0.40284 0.0
H1169 H 0.24646 0.9509 0.43961 0.0
H1170 H 0.21488 0.91703 0.46925 0.0
H1171 H 0.21533 0.90221 0.43306 0.0
H1172 H 0.20846 0.94971 0.48151 0.0
H1173 H 0.27017 0.93119 0.49641 0.0
H1174 H 0.26487 0.94175 0.47035 0.0
H1175 H 0.25865 0.92189 0.47399 0.0
C1176 C 0.23966 0.93193 0.41708 0.0
C1177 C 0.23137 0.9178 0.41527 0.0
C1178 C 0.23942 0.94045 0.43803 0.0
C1179 C 0.23073 0.93498 0.45717 0.0
C1180 C 0.22163 0.92148 0.45468 0.0
H1181 H 0.20968 0.90545 0.579 0.0
H1182 H 0.21016 0.92012 0.54269 0.0
C1183 C 0.22199 0.91295 0.43402 0.0
C1184 C 0.23229 0.94169 0.48088 0.0
H1185 H 0.25454 0.93531 0.52931 0.0
C1186 C 0.21874 0.94721 0.49192 0.0
C1187 C 0.24579 0.93869 0.49441 0.0
C1188 C 0.26075 0.93306 0.48335 0.0
C1189 C 0.21772 0.9478 0.51636 0.0
C1190 C 0.23046 0.94248 0.52992 0.0
C1191 C 0.24471 0.93919 0.51887 0.0
C1192 C 0.22813 0.9363 0.55385 0.0
C1193 C 0.20256 0.95279 0.52743 0.0
C1194 C 0.23801 0.94053 0.57242 0.0
C1195 C 0.23771 0.93208 0.59343 0.0
C1196 C 0.22781 0.91908 0.5958 0.0
C1197 C 0.21747 0.91538 0.57761 0.0
C1198 C 0.21761 0.92391 0.55692 0.0
H1199 H 0.19693 0.96215 0.51697 0.0
H1200 H 0.19442 0.94271 0.52787 0.0
H1201 H 0.20435 0.95704 0.54556 0.0
H1202 H 0.2464 0.94989 0.57027 0.0
H1203 H 0.24586 0.93511 0.60718 0.0
H1204 H 0.10353 0.21793 0.57303 0.0
H1205 H 0.08963 0.21845 0.53601 0.0
H1206 H 0.05168 0.24363 0.56807 0.0
H1207 H 0.06563 0.24308 0.60578 0.0
H1208 H 0.05582 0.20842 0.52472 0.0
H1209 H 0.07044 0.27128 0.51161 0.0
H1210 H 0.08183 0.25983 0.53188 0.0
H1211 H 0.0619 0.2644 0.53854 0.0
C1212 C 0.09217 0.22348 0.57239 0.0
C1213 C 0.08574 0.2306 0.59228 0.0
C1214 C 0.08419 0.22367 0.55122 0.0
C1215 C 0.06967 0.23108 0.54935 0.0
C1216 C 0.06289 0.23783 0.56926 0.0
H1217 H 0.066 0.24886 0.40007 0.0
H1218 H 0.05218 0.24806 0.43776 0.0
C1219 C 0.07086 0.2375 0.59071 0.0
C1220 C 0.06274 0.23259 0.52582 0.0
H1221 H 0.06733 0.25579 0.47798 0.0
C1222 C 0.05769 0.21895 0.51455 0.0
C1223 C 0.06494 0.24637 0.51267 0.0
C1224 C 0.07004 0.26138 0.52415 0.0
C1225 C 0.05663 0.21827 0.49011 0.0
C1226 C 0.06111 0.23143 0.47677 0.0
C1227 C 0.06406 0.24564 0.4882 0.0
C1228 C 0.06665 0.22978 0.45236 0.0
C1229 C 0.05197 0.20309 0.47876 0.0
C1230 C 0.07917 0.21963 0.44797 0.0
C1231 C 0.08712 0.22021 0.42679 0.0
C1232 C 0.08273 0.23093 0.40945 0.0
C1233 C 0.06955 0.24041 0.41313 0.0
C1234 C 0.06166 0.23997 0.43461 0.0
H1235 H 0.043 0.197 0.48941 0.0
H1236 H 0.04732 0.20496 0.46086 0.0
H1237 H 0.06232 0.19532 0.4777 0.0
H1238 H 0.08354 0.21196 0.46154 0.0
H1239 H 0.09721 0.21274 0.42441 0.0
H1240 H 0.7517 0.06619 0.59341 0.0
H1241 H 0.75261 0.05336 0.55495 0.0
H1242 H 0.78906 0.08505 0.5335 0.0
H1243 H 0.7882 0.09774 0.5714 0.0
H1244 H 0.74533 0.06954 0.51534 0.0
H1245 H 0.80407 0.04496 0.50414 0.0
H1246 H 0.79586 0.04879 0.53268 0.0
H1247 H 0.80571 0.06405 0.51668 0.0
C1248 C 0.76023 0.07004 0.58067 0.0
C1249 C 0.7698 0.08302 0.58526 0.0
C1250 C 0.76074 0.06272 0.55876 0.0
C1251 C 0.77108 0.06807 0.54146 0.0
C1252 C 0.78128 0.08041 0.5467 0.0
H1253 H 0.78439 0.10528 0.41962 0.0
H1254 H 0.78386 0.0916 0.45686 0.0
C1255 C 0.78064 0.0878 0.56832 0.0
C1256 C 0.76962 0.06306 0.51677 0.0
H1257 H 0.79291 0.05814 0.46907 0.0
C1258 C 0.75553 0.06633 0.5052 0.0
C1259 C 0.78285 0.0587 0.50354 0.0
C1260 C 0.79791 0.05376 0.51502 0.0
C1261 C 0.75497 0.0675 0.48075 0.0
C1262 C 0.76881 0.06527 0.46775 0.0
C1263 C 0.78235 0.06003 0.47913 0.0
C1264 C 0.77041 0.072 0.4441 0.0
C1265 C 0.74007 0.07286 0.46917 0.0
C1266 C 0.76324 0.06533 0.42444 0.0
C1267 C 0.76357 0.07315 0.4029 0.0
C1268 C 0.77091 0.08781 0.40095 0.0
C1269 C 0.77851 0.0941 0.42056 0.0
C1270 C 0.77831 0.08625 0.44185 0.0
H1271 H 0.73023 0.07378 0.48173 0.0
H1272 H 0.74192 0.08446 0.46094 0.0
H1273 H 0.73675 0.06455 0.45516 0.0
H1274 H 0.7571 0.05432 0.42591 0.0
H1275 H 0.75762 0.06803 0.38806 0.0
H1276 H 0.93423 0.75509 0.60171 0.0
H1277 H 0.94751 0.75356 0.56369 0.0
H1278 H 0.91455 0.78661 0.53521 0.0
H1279 H 0.9015 0.78821 0.57271 0.0
H1280 H 0.93269 0.7419 0.52673 0.0
H1281 H 0.9531 0.80011 0.50139 0.0
H1282 H 0.9496 0.79498 0.53159 0.0
H1283 H 0.93393 0.80221 0.51342 0.0
C1284 C 0.93023 0.76243 0.5875 0.0
C1285 C 0.91675 0.77165 0.59003 0.0
C1286 C 0.93781 0.76155 0.56582 0.0
C1287 C 0.93219 0.77014 0.54662 0.0
C1288 C 0.91943 0.7802 0.5498 0.0
H1289 H 0.88988 0.75438 0.42931 0.0
H1290 H 0.90382 0.75417 0.46626 0.0
C1291 C 0.91181 0.78095 0.57124 0.0
C1292 C 0.93717 0.76653 0.52239 0.0
H1293 H 0.93951 0.78498 0.46973 0.0
C1294 C 0.93487 0.75122 0.51432 0.0
C1295 C 0.94042 0.7785 0.50606 0.0
C1296 C 0.94458 0.79482 0.51369 0.0
C1297 C 0.93336 0.74811 0.49038 0.0
C1298 C 0.93398 0.76063 0.47432 0.0
C1299 C 0.93864 0.77544 0.48212 0.0
C1300 C 0.92639 0.75941 0.45117 0.0
C1301 C 0.92973 0.73168 0.48264 0.0
C1302 C 0.93443 0.76265 0.43035 0.0
C1303 C 0.92641 0.76275 0.40895 0.0
C1304 C 0.91021 0.75996 0.40827 0.0
C1305 C 0.90232 0.75663 0.42919 0.0
C1306 C 0.91032 0.75635 0.45034 0.0
H1307 H 0.93524 0.72301 0.4945 0.0
H1308 H 0.91691 0.72981 0.48326 0.0
H1309 H 0.93381 0.72953 0.46451 0.0
H1310 H 0.9468 0.76527 0.43071 0.0
H1311 H 0.93278 0.76541 0.3931 0.0
H1312 H 0.73463 0.56686 0.60496 0.0
H1313 H 0.73429 0.55343 0.56689 0.0
H1314 H 0.74785 0.59631 0.53296 0.0
H1315 H 0.74814 0.60965 0.57036 0.0
H1316 H 0.71498 0.56223 0.52889 0.0
H1317 H 0.7767 0.5641 0.50242 0.0
H1318 H 0.77067 0.56549 0.53263 0.0
H1319 H 0.77099 0.58261 0.51428 0.0
C1320 C 0.73778 0.5733 0.58936 0.0
C1321 C 0.74134 0.58932 0.5906 0.0
C1322 C 0.7376 0.56562 0.56771 0.0
C1323 C 0.74134 0.57381 0.54719 0.0
C1324 C 0.74529 0.58966 0.54861 0.0
H1325 H 0.71138 0.60116 0.42608 0.0
H1326 H 0.71356 0.58836 0.46375 0.0
C1327 C 0.74529 0.59733 0.57002 0.0
C1328 C 0.73949 0.56676 0.52376 0.0
H1329 H 0.7575 0.56826 0.47081 0.0
C1330 C 0.72438 0.56292 0.51625 0.0
C1331 C 0.7518 0.56717 0.50732 0.0
C1332 C 0.76848 0.56989 0.51467 0.0
C1333 C 0.7209 0.56174 0.49235 0.0
C1334 C 0.73277 0.56477 0.47578 0.0
C1335 C 0.74828 0.56628 0.48344 0.0
C1336 C 0.72905 0.57004 0.45173 0.0
C1337 C 0.7043 0.55843 0.48508 0.0
C1338 C 0.73697 0.56401 0.43222 0.0
C1339 C 0.7358 0.57146 0.41046 0.0
C1340 C 0.72692 0.58519 0.4081 0.0
C1341 C 0.71837 0.59065 0.42736 0.0
C1342 C 0.71945 0.58319 0.4489 0.0
H1343 H 0.69874 0.55008 0.49738 0.0
H1344 H 0.69745 0.56942 0.48569 0.0
H1345 H 0.7037 0.55358 0.46712 0.0
H1346 H 0.7446 0.554 0.43408 0.0
H1347 H 0.74255 0.56701 0.39592 0.0
H1348 H 0.39989 0.714 0.42387 0.0
H1349 H 0.4144 0.71493 0.46037 0.0
H1350 H 0.44926 0.74424 0.42824 0.0
H1351 H 0.43466 0.74336 0.39118 0.0
H1352 H 0.4478 0.70796 0.4721 0.0
H1353 H 0.42976 0.77007 0.48404 0.0
H1354 H 0.41977 0.75792 0.46307 0.0
H1355 H 0.4395 0.76392 0.4577 0.0
C1356 C 0.41074 0.7205 0.42438 0.0
C1357 C 0.41603 0.72876 0.40472 0.0
C1358 C 0.41908 0.72093 0.44524 0.0
C1359 C 0.43284 0.7297 0.447 0.0
C1360 C 0.43862 0.73744 0.42718 0.0
H1361 H 0.43645 0.74967 0.59555 0.0
H1362 H 0.45034 0.74881 0.55792 0.0
C1363 C 0.4303 0.7369 0.40608 0.0
C1364 C 0.43978 0.73177 0.47045 0.0
H1365 H 0.4347 0.75537 0.51773 0.0
C1366 C 0.44555 0.71852 0.48201 0.0
C1367 C 0.43711 0.74562 0.48327 0.0
C1368 C 0.43121 0.76026 0.47154 0.0
C1369 C 0.44687 0.7182 0.50643 0.0
C1370 C 0.44197 0.73133 0.51948 0.0
C1371 C 0.4383 0.74524 0.50772 0.0
C1372 C 0.43661 0.72974 0.54399 0.0
C1373 C 0.45229 0.70339 0.51812 0.0
C1374 C 0.42452 0.71915 0.54876 0.0
C1375 C 0.41652 0.71977 0.56989 0.0
C1376 C 0.42045 0.73096 0.58679 0.0
C1377 C 0.43326 0.74087 0.58282 0.0
C1378 C 0.44119 0.74039 0.56138 0.0
H1379 H 0.46144 0.69757 0.50749 0.0
H1380 H 0.45697 0.70568 0.53589 0.0
H1381 H 0.44231 0.69517 0.51957 0.0
H1382 H 0.42046 0.71111 0.53547 0.0
H1383 H 0.40672 0.71197 0.57253 0.0
H1384 H 0.26016 0.43562 0.39214 0.0
H1385 H 0.25876 0.45031 0.42899 0.0
H1386 H 0.28579 0.41439 0.46307 0.0
H1387 H 0.28739 0.39998 0.42676 0.0
H1388 H 0.24412 0.43981 0.4665 0.0
H1389 H 0.3041 0.45187 0.49401 0.0
H1390 H 0.29929 0.44772 0.46388 0.0
H1391 H 0.3036 0.43207 0.48406 0.0
C1392 C 0.26617 0.43114 0.40738 0.0
C1393 C 0.27376 0.41658 0.40663 0.0
C1394 C 0.26538 0.43955 0.42839 0.0
C1395 C 0.27242 0.43364 0.44876 0.0
C1396 C 0.28068 0.4195 0.44754 0.0
H1397 H 0.24778 0.39684 0.56335 0.0
H1398 H 0.24926 0.41145 0.52718 0.0
C1399 C 0.28138 0.41112 0.42676 0.0
C1400 C 0.26903 0.44029 0.47216 0.0
H1401 H 0.28638 0.44156 0.52571 0.0
C1402 C 0.25338 0.4409 0.47934 0.0
C1403 C 0.28097 0.44233 0.489 0.0
C1404 C 0.29791 0.44365 0.48218 0.0
C1405 C 0.2495 0.44082 0.50314 0.0
C1406 C 0.26156 0.4398 0.51994 0.0
C1407 C 0.27709 0.44188 0.51282 0.0
C1408 C 0.25873 0.4324 0.54295 0.0
C1409 C 0.23252 0.44028 0.51003 0.0
C1410 C 0.2637 0.43925 0.56401 0.0
C1411 C 0.26283 0.43079 0.58502 0.0
C1412 C 0.25739 0.41529 0.58497 0.0
C1413 C 0.25212 0.40871 0.56394 0.0
C1414 C 0.25277 0.41716 0.54324 0.0
H1415 H 0.22535 0.44743 0.49788 0.0
H1416 H 0.22826 0.42806 0.50888 0.0
H1417 H 0.23074 0.44455 0.52815 0.0
H1418 H 0.26857 0.45092 0.56407 0.0
H1419 H 0.267 0.4361 0.60101 0.0
H1420 H 0.59768 0.2897 0.57437 0.0
H1421 H 0.58325 0.28858 0.53802 0.0
H1422 H 0.54926 0.25805 0.56985 0.0
H1423 H 0.56401 0.25896 0.60667 0.0
H1424 H 0.56107 0.24511 0.53228 0.0
H1425 H 0.545 0.30447 0.50653 0.0
H1426 H 0.56472 0.30526 0.51677 0.0
H1427 H 0.54931 0.29955 0.53658 0.0
C1428 C 0.58691 0.28307 0.5739 0.0
C1429 C 0.58209 0.27426 0.5933 0.0
C1430 C 0.57849 0.28262 0.55311 0.0
C1431 C 0.56497 0.27343 0.55118 0.0
C1432 C 0.55954 0.26538 0.571 0.0
H1433 H 0.56296 0.2672 0.39806 0.0
H1434 H 0.54834 0.26838 0.43521 0.0
C1435 C 0.56798 0.2659 0.592 0.0
C1436 C 0.55882 0.27001 0.52747 0.0
H1437 H 0.55686 0.28802 0.47443 0.0
C1438 C 0.55942 0.25446 0.51974 0.0
C1439 C 0.55614 0.28203 0.51096 0.0
C1440 C 0.55358 0.29873 0.5183 0.0
C1441 C 0.56003 0.25096 0.49583 0.0
C1442 C 0.56029 0.26332 0.47946 0.0
C1443 C 0.55709 0.27856 0.48703 0.0
C1444 C 0.56797 0.26128 0.45652 0.0
C1445 C 0.56203 0.2342 0.48838 0.0
C1446 C 0.58379 0.2571 0.45634 0.0
C1447 C 0.59211 0.25668 0.43553 0.0
C1448 C 0.58482 0.26039 0.41426 0.0
C1449 C 0.56884 0.26424 0.41423 0.0
C1450 C 0.56049 0.26489 0.43535 0.0
H1451 H 0.55581 0.22621 0.50052 0.0
H1452 H 0.55762 0.2323 0.47036 0.0
H1453 H 0.57461 0.23113 0.48888 0.0
H1454 H 0.58989 0.25461 0.47252 0.0
H1455 H 0.60436 0.25357 0.43617 0.0
H1456 H 0.74861 0.43504 0.90258 0.0
H1457 H 0.74815 0.44876 0.94044 0.0
H1458 H 0.71659 0.41395 0.96757 0.0
H1459 H 0.71695 0.4004 0.93031 0.0
H1460 H 0.70994 0.44578 0.98215 0.0
H1461 H 0.77193 0.42776 0.99587 0.0
H1462 H 0.76658 0.43913 0.97062 0.0
H1463 H 0.76053 0.41912 0.97273 0.0
C1464 C 0.74132 0.43058 0.91652 0.0
C1465 C 0.73299 0.41655 0.91366 0.0
C1466 C 0.74112 0.43837 0.93811 0.0
C1467 C 0.73245 0.43226 0.95684 0.0
C1468 C 0.72334 0.41888 0.95335 0.0
H1469 H 0.71259 0.3999 0.07878 0.0
H1470 H 0.71327 0.41419 0.04209 0.0
C1471 C 0.72364 0.41108 0.93207 0.0
C1472 C 0.73392 0.43825 0.981 0.0
H1473 H 0.75637 0.43112 0.02905 0.0
C1474 C 0.72029 0.44321 0.99239 0.0
C1475 C 0.74748 0.4351 0.99433 0.0
C1476 C 0.76251 0.42997 0.98292 0.0
C1477 C 0.71929 0.44317 0.01685 0.0
C1478 C 0.73218 0.43786 0.03007 0.0
C1479 C 0.74645 0.43503 0.01882 0.0
C1480 C 0.73006 0.43138 0.05385 0.0
C1481 C 0.70403 0.44748 0.02825 0.0
C1482 C 0.73928 0.4363 0.07277 0.0
C1483 C 0.73884 0.42812 0.09401 0.0
C1484 C 0.7295 0.41469 0.09627 0.0
C1485 C 0.71996 0.41016 0.07752 0.0
C1486 C 0.7202 0.41843 0.0566 0.0
H1487 H 0.69782 0.45654 0.01792 0.0
H1488 H 0.69641 0.43701 0.02899 0.0
H1489 H 0.70584 0.45183 0.04632 0.0
H1490 H 0.74715 0.44612 0.07085 0.0
H1491 H 0.74637 0.4318 0.10819 0.0
H1492 H 0.60947 0.74887 0.06823 0.0
H1493 H 0.59603 0.74997 0.03094 0.0
H1494 H 0.55263 0.73783 0.06456 0.0
H1495 H 0.56617 0.73671 0.10251 0.0
H1496 H 0.55982 0.71913 0.02583 0.0
H1497 H 0.56562 0.78098 0.00166 0.0
H1498 H 0.58386 0.77399 0.0129 0.0
H1499 H 0.56692 0.77436 0.03161 0.0
C1500 C 0.59703 0.74661 0.06787 0.0
C1501 C 0.5889 0.74263 0.08833 0.0
C1502 C 0.58931 0.74743 0.04652 0.0
C1503 C 0.57326 0.74431 0.04503 0.0
C1504 C 0.56498 0.74051 0.06542 0.0
H1505 H 0.56753 0.74812 0.89375 0.0
H1506 H 0.55417 0.75061 0.93163 0.0
C1507 C 0.57272 0.73985 0.08702 0.0
C1508 C 0.56604 0.74335 0.02156 0.0
H1509 H 0.56876 0.76208 0.96926 0.0
C1510 C 0.56116 0.72867 0.01352 0.0
C1511 C 0.56725 0.75587 0.00556 0.0
C1512 C 0.57102 0.77222 0.01349 0.0
C1513 C 0.55974 0.72567 0.98951 0.0
C1514 C 0.56362 0.73757 0.97336 0.0
C1515 C 0.56614 0.75281 0.98156 0.0
C1516 C 0.56891 0.73382 0.94934 0.0
C1517 C 0.5553 0.70947 0.98166 0.0
C1518 C 0.58144 0.72342 0.94664 0.0
C1519 C 0.58911 0.72213 0.92531 0.0
C1520 C 0.58446 0.73122 0.90612 0.0
C1521 C 0.57131 0.74094 0.90827 0.0
C1522 C 0.56367 0.74236 0.92986 0.0
H1523 H 0.54648 0.70436 0.99365 0.0
H1524 H 0.55054 0.70948 0.96361 0.0
H1525 H 0.56577 0.70184 0.98222 0.0
H1526 H 0.58603 0.71704 0.96147 0.0
H1527 H 0.59916 0.71448 0.92416 0.0
H1528 H 0.24913 0.60816 0.06836 0.0
H1529 H 0.25015 0.59428 0.03146 0.0
H1530 H 0.26657 0.55292 0.06679 0.0
H1531 H 0.26554 0.56693 0.10435 0.0
H1532 H 0.28524 0.56179 0.02926 0.0
H1533 H 0.22402 0.56044 0.00064 0.0
H1534 H 0.22847 0.57948 0.01177 0.0
H1535 H 0.22945 0.5628 0.03098 0.0
C1536 C 0.25273 0.59603 0.06845 0.0
C1537 C 0.25734 0.58867 0.08925 0.0
C1538 C 0.25313 0.58804 0.04732 0.0
C1539 C 0.25814 0.57246 0.0464 0.0
C1540 C 0.26245 0.56487 0.06719 0.0
H1541 H 0.25936 0.56606 0.89532 0.0
H1542 H 0.25736 0.55254 0.93312 0.0
C1543 C 0.26187 0.57287 0.08857 0.0
C1544 C 0.26064 0.56528 0.02316 0.0
H1545 H 0.24347 0.56576 0.96952 0.0
C1546 C 0.27602 0.56202 0.01626 0.0
C1547 C 0.24861 0.56503 0.00625 0.0
C1548 C 0.23169 0.56695 0.0129 0.0
C1549 C 0.27995 0.56088 0.99252 0.0
C1550 C 0.26824 0.56338 0.97545 0.0
C1551 C 0.25257 0.56422 0.98251 0.0
C1552 C 0.27217 0.56891 0.95158 0.0
C1553 C 0.29677 0.5582 0.98595 0.0
C1554 C 0.28138 0.58238 0.94929 0.0
C1555 C 0.28242 0.5901 0.92796 0.0
C1556 C 0.27423 0.58459 0.90837 0.0
C1557 C 0.26584 0.57053 0.91014 0.0
C1558 C 0.26469 0.56281 0.9317 0.0
H1559 H 0.30237 0.54995 0.99838 0.0
H1560 H 0.2979 0.55349 0.96795 0.0
H1561 H 0.30324 0.56941 0.98706 0.0
H1562 H 0.2869 0.58762 0.9644 0.0
H1563 H 0.28903 0.60088 0.92712 0.0
H1564 H 0.39918 0.29018 0.92145 0.0
H1565 H 0.41204 0.28814 0.95907 0.0
H1566 H 0.44616 0.25675 0.92962 0.0
H1567 H 0.43306 0.25863 0.89151 0.0
H1568 H 0.43202 0.24398 0.96613 0.0
H1569 H 0.45008 0.30264 0.99319 0.0
H1570 H 0.4307 0.30401 0.98166 0.0
H1571 H 0.44649 0.29785 0.96289 0.0
C1572 C 0.40967 0.28317 0.92275 0.0
C1573 C 0.41501 0.27444 0.90359 0.0
C1574 C 0.41717 0.28217 0.94428 0.0
C1575 C 0.43024 0.27247 0.94719 0.0
C1576 C 0.43621 0.26445 0.92772 0.0
H1577 H 0.43393 0.26583 0.1006 0.0
H1578 H 0.44706 0.26677 0.06231 0.0
C1579 C 0.42872 0.26553 0.90598 0.0
C1580 C 0.43543 0.2687 0.97129 0.0
H1581 H 0.43791 0.28629 0.02459 0.0
C1582 C 0.43396 0.25317 0.97884 0.0
C1583 C 0.43839 0.28052 0.98798 0.0
C1584 C 0.44168 0.29715 0.98088 0.0
C1585 C 0.43311 0.24954 0.00269 0.0
C1586 C 0.43349 0.26178 0.01925 0.0
C1587 C 0.43723 0.27694 0.01186 0.0
C1588 C 0.4266 0.25975 0.04277 0.0
C1589 C 0.43049 0.23281 0.00988 0.0
C1590 C 0.41079 0.25563 0.04436 0.0
C1591 C 0.4033 0.25529 0.0659 0.0
C1592 C 0.41143 0.25905 0.08646 0.0
C1593 C 0.4274 0.26282 0.08504 0.0
C1594 C 0.4349 0.26334 0.06324 0.0
H1595 H 0.43628 0.22467 0.99749 0.0
H1596 H 0.43497 0.23055 0.02778 0.0
H1597 H 0.41779 0.23025 0.00957 0.0
H1598 H 0.40406 0.25317 0.02876 0.0
H1599 H 0.39102 0.25228 0.06636 0.0
H1600 H 0.2383 0.06467 0.22505 0.0
H1601 H 0.23995 0.04166 0.25022 0.0
H1602 H 0.26546 0.01718 0.1966 0.0
H1603 H 0.26415 0.04024 0.1715 0.0
H1604 H 0.22843 0.01255 0.24255 0.0
H1605 H 0.2927 0.00984 0.25357 0.0
H1606 H 0.2829 0.02674 0.24174 0.0
H1607 H 0.28661 0.01003 0.22356 0.0
C1608 C 0.24436 0.05443 0.21866 0.0
C1609 C 0.25115 0.05432 0.19629 0.0
C1610 C 0.24529 0.04129 0.23307 0.0
C1611 C 0.25303 0.02778 0.22543 0.0
C1612 C 0.25975 0.02759 0.20307 0.0
H1613 H 0.24025 0.93479 0.28318 0.0
H1614 H 0.24069 0.95805 0.25842 0.0
C1615 C 0.2589 0.04076 0.18869 0.0
C1616 C 0.25351 0.01371 0.24053 0.0
H1617 H 0.27824 0.98779 0.2668 0.0
C1618 C 0.23932 0.00717 0.24793 0.0
C1619 C 0.26774 0.00681 0.24776 0.0
C1620 C 0.28336 0.01379 0.24146 0.0
C1621 C 0.23895 0.9938 0.2621 0.0
C1622 C 0.25316 0.98657 0.26862 0.0
C1623 C 0.26736 0.99324 0.26154 0.0
C1624 C 0.2535 0.97224 0.28315 0.0
C1625 C 0.22334 0.98772 0.2703 0.0
C1626 C 0.26107 0.97231 0.3049 0.0
C1627 C 0.26098 0.95898 0.31901 0.0
C1628 C 0.25334 0.94531 0.31159 0.0
C1629 C 0.24612 0.94516 0.28951 0.0
C1630 C 0.24627 0.95848 0.27538 0.0
H1631 H 0.21412 0.99681 0.26916 0.0
H1632 H 0.21975 0.9778 0.25906 0.0
H1633 H 0.22401 0.9835 0.28862 0.0
H1634 H 0.2668 0.98278 0.31116 0.0
H1635 H 0.26668 0.95949 0.33589 0.0
H1636 H 0.94135 0.23529 0.21371 0.0
H1637 H 0.96516 0.23712 0.23706 0.0
H1638 H 0.97492 0.28231 0.2072 0.0
H1639 H 0.95121 0.28049 0.18345 0.0
H1640 H 0.00062 0.26285 0.20737 0.0
H1641 H 0.9728 0.26392 0.29476 0.0
H1642 H 0.9668 0.24761 0.27724 0.0
H1643 H 0.96195 0.26713 0.26814 0.0
C1644 C 0.9485 0.24567 0.21218 0.0
C1645 C 0.94434 0.25777 0.19676 0.0
C1646 C 0.96206 0.24673 0.22566 0.0
C1647 C 0.97168 0.25996 0.22415 0.0
C1648 C 0.96761 0.27204 0.20872 0.0
H1649 H 0.04761 0.27883 0.32194 0.0
H1650 H 0.02405 0.28071 0.2979 0.0
C1651 C 0.95404 0.27098 0.19519 0.0
C1652 C 0.98625 0.26092 0.2381 0.0
H1653 H 0.00029 0.25943 0.29389 0.0
C1654 C 0.00056 0.26223 0.2263 0.0
C1655 C 0.98613 0.26033 0.2628 0.0
C1656 C 0.97109 0.25983 0.27652 0.0
C1657 C 0.01478 0.26248 0.23851 0.0
C1658 C 0.01469 0.26113 0.26315 0.0
C1659 C 0.00036 0.2603 0.27498 0.0
C1660 C 0.02931 0.26033 0.277 0.0
C1661 C 0.02976 0.26431 0.22492 0.0
C1662 C 0.04005 0.2482 0.27332 0.0
C1663 C 0.05355 0.24712 0.28696 0.0
C1664 C 0.0565 0.25808 0.30473 0.0
C1665 C 0.04572 0.27022 0.30838 0.0
C1666 C 0.03224 0.27131 0.29468 0.0
H1667 H 0.02766 0.26969 0.20752 0.0
H1668 H 0.03831 0.27161 0.2346 0.0
H1669 H 0.03503 0.25263 0.22205 0.0
H1670 H 0.03787 0.2394 0.26014 0.0
H1671 H 0.06155 0.23757 0.28378 0.0
H1672 H 0.76645 0.06005 0.27626 0.0
H1673 H 0.76312 0.03575 0.25458 0.0
H1674 H 0.7217 0.0253 0.29443 0.0
H1675 H 0.72504 0.04955 0.31653 0.0
H1676 H 0.74201 0.00034 0.29143 0.0
H1677 H 0.73133 0.0256 0.20377 0.0
H1678 H 0.74884 0.03287 0.21714 0.0
H1679 H 0.7302 0.03705 0.2302 0.0
C1680 C 0.75655 0.05266 0.28035 0.0
C1681 C 0.74598 0.05677 0.2981 0.0
C1682 C 0.75462 0.03881 0.26781 0.0
C1683 C 0.74202 0.02886 0.27263 0.0
C1684 C 0.73144 0.03289 0.29035 0.0
H1685 H 0.72107 0.94875 0.18306 0.0
H1686 H 0.71874 0.97274 0.20604 0.0
C1687 C 0.73337 0.04675 0.30293 0.0
C1688 C 0.74035 0.01392 0.25984 0.0
H1689 H 0.73796 0.99846 0.20501 0.0
C1690 C 0.74095 0.99991 0.27256 0.0
C1691 C 0.73873 0.01339 0.23526 0.0
C1692 C 0.73708 0.02803 0.2208 0.0
C1693 C 0.74061 0.98538 0.26124 0.0
C1694 C 0.73992 0.98488 0.23656 0.0
C1695 C 0.73867 0.99887 0.22392 0.0
C1696 C 0.74101 0.97001 0.22345 0.0
C1697 C 0.74101 0.97071 0.27583 0.0
C1698 C 0.75435 0.9606 0.2255 0.0
C1699 C 0.75571 0.94689 0.21245 0.0
C1700 C 0.7438 0.9424 0.19692 0.0
C1701 C 0.73044 0.95186 0.19489 0.0
C1702 C 0.72909 0.96557 0.20799 0.0
H1703 H 0.73681 0.97291 0.2939 0.0
H1704 H 0.73374 0.96136 0.26791 0.0
H1705 H 0.75321 0.96643 0.27698 0.0
H1706 H 0.76385 0.96399 0.23692 0.0
H1707 H 0.76619 0.93993 0.21435 0.0
H1708 H 0.04451 0.73255 0.16761 0.0
H1709 H 0.0195 0.73107 0.18812 0.0
H1710 H 0.03538 0.76572 0.23733 0.0
H1711 H 0.06035 0.76745 0.21678 0.0
H1712 H 0.01258 0.72371 0.23475 0.0
H1713 H 0.99442 0.78417 0.21275 0.0
H1714 H 0.01046 0.7745 0.19832 0.0
H1715 H 0.01312 0.78291 0.22683 0.0
C1716 C 0.04271 0.73984 0.18282 0.0
C1717 C 0.05438 0.75022 0.19044 0.0
C1718 C 0.02841 0.73897 0.19452 0.0
C1719 C 0.0255 0.74849 0.21397 0.0
C1720 C 0.03728 0.75852 0.22204 0.0
H1721 H 0.94808 0.76335 0.30776 0.0
H1722 H 0.97327 0.76272 0.28779 0.0
C1723 C 0.05157 0.75943 0.21034 0.0
C1724 C 0.0101 0.74799 0.22574 0.0
H1725 H 0.97864 0.77053 0.24003 0.0
C1726 C 0.00511 0.73391 0.23582 0.0
C1727 C 0.00037 0.76132 0.227 0.0
C1728 C 0.00476 0.77655 0.21547 0.0
C1729 C 0.99078 0.7329 0.24766 0.0
C1730 C 0.98116 0.74627 0.24915 0.0
C1731 C 0.9861 0.76031 0.23891 0.0
C1732 C 0.96599 0.74607 0.26155 0.0
C1733 C 0.9862 0.71766 0.25897 0.0
C1734 C 0.95353 0.73696 0.25331 0.0
C1735 C 0.93907 0.73732 0.26465 0.0
C1736 C 0.93683 0.74683 0.28441 0.0
C1737 C 0.94939 0.75588 0.29263 0.0
C1738 C 0.9638 0.75555 0.28124 0.0
H1739 H 0.99629 0.70956 0.26059 0.0
H1740 H 0.98121 0.71969 0.27661 0.0
H1741 H 0.97714 0.71187 0.24815 0.0
H1742 H 0.95493 0.72976 0.2379 0.0
H1743 H 0.92963 0.73024 0.25784 0.0
H1744 H 0.71804 0.94761 0.80875 0.0
H1745 H 0.71584 0.97112 0.78459 0.0
H1746 H 0.76463 0.96753 0.76675 0.0
H1747 H 0.76685 0.94389 0.79031 0.0
H1748 H 0.73083 0.99887 0.78908 0.0
H1749 H 0.74514 0.97295 0.70314 0.0
H1750 H 0.74054 0.96118 0.72837 0.0
H1751 H 0.75988 0.96904 0.72463 0.0
C1752 C 0.72827 0.95174 0.7995 0.0
C1753 C 0.7426 0.94381 0.80135 0.0
C1754 C 0.72699 0.96519 0.78573 0.0
C1755 C 0.74 0.97093 0.77352 0.0
C1756 C 0.75433 0.96309 0.77548 0.0
H1757 H 0.76571 0.05352 0.69777 0.0
H1758 H 0.76423 0.02921 0.72007 0.0
C1759 C 0.7556 0.94961 0.7891 0.0
C1760 C 0.73882 0.98549 0.75955 0.0
H1761 H 0.74625 0.00085 0.70559 0.0
C1762 C 0.73401 0.99927 0.77075 0.0
C1763 C 0.74293 0.98599 0.7356 0.0
C1764 C 0.74725 0.97146 0.72216 0.0
C1765 C 0.73375 0.01362 0.75886 0.0
C1766 C 0.73834 0.01416 0.73517 0.0
C1767 C 0.74284 0.00037 0.72382 0.0
C1768 C 0.73902 0.02902 0.72203 0.0
C1769 C 0.72904 0.0282 0.77184 0.0
C1770 C 0.7253 0.0369 0.71569 0.0
C1771 C 0.72608 0.05078 0.70282 0.0
C1772 C 0.74061 0.05702 0.69615 0.0
C1773 C 0.75433 0.04908 0.70266 0.0
C1774 C 0.75352 0.03517 0.71537 0.0
H1775 H 0.72805 0.02619 0.79095 0.0
H1776 H 0.73764 0.03767 0.76871 0.0
H1777 H 0.71755 0.03227 0.76525 0.0
H1778 H 0.714 0.03223 0.7205 0.0
H1779 H 0.7153 0.05658 0.69806 0.0
H1780 H 0.93635 0.7635 0.72167 0.0
H1781 H 0.95985 0.76172 0.74581 0.0
H1782 H 0.98213 0.73362 0.69296 0.0
H1783 H 0.95857 0.73506 0.66888 0.0
H1784 H 0.98674 0.72206 0.73725 0.0
H1785 H 0.00031 0.78535 0.7341 0.0
H1786 H 0.98104 0.78115 0.74468 0.0
H1787 H 0.98612 0.77638 0.71504 0.0
C1788 C 0.94624 0.75693 0.71517 0.0
C1789 C 0.94562 0.7495 0.69327 0.0
C1790 C 0.9597 0.756 0.72894 0.0
C1791 C 0.97284 0.74779 0.72098 0.0
C1792 C 0.97214 0.74009 0.69937 0.0
H1793 H 0.0665 0.75677 0.77768 0.0
H1794 H 0.04334 0.75646 0.7527 0.0
C1795 C 0.95867 0.74095 0.68562 0.0
C1796 C 0.9873 0.74716 0.73522 0.0
H1797 H 0.01517 0.77004 0.76065 0.0
C1798 C 0.993 0.73254 0.74232 0.0
C1799 C 0.99557 0.76083 0.74149 0.0
C1800 C 0.99056 0.77681 0.73326 0.0
C1801 C 0.00661 0.73124 0.75588 0.0
C1802 C 0.01455 0.74495 0.76288 0.0
C1803 C 0.00899 0.75955 0.75545 0.0
C1804 C 0.02873 0.74447 0.77779 0.0
C1805 C 0.0125 0.71518 0.76222 0.0
C1806 C 0.02819 0.73788 0.80023 0.0
C1807 C 0.04145 0.73795 0.81452 0.0
C1808 C 0.05544 0.74479 0.80672 0.0
C1809 C 0.05592 0.75139 0.78423 0.0
C1810 C 0.04269 0.75124 0.76993 0.0
H1811 H 0.00782 0.70611 0.75024 0.0
H1812 H 0.02546 0.71471 0.76174 0.0
H1813 H 0.00863 0.71225 0.78019 0.0
H1814 H 0.01745 0.73291 0.80688 0.0
H1815 H 0.04064 0.73287 0.8318 0.0
H1816 H 0.23531 0.93913 0.72156 0.0
H1817 H 0.23818 0.96323 0.74397 0.0
H1818 H 0.27952 0.97484 0.70466 0.0
H1819 H 0.27662 0.95085 0.68184 0.0
H1820 H 0.26252 0.9742 0.77178 0.0
H1821 H 0.25177 0.01336 0.69599 0.0
H1822 H 0.24778 0.99268 0.69506 0.0
H1823 H 0.26746 0.99968 0.69216 0.0
C1824 C 0.24505 0.94677 0.7177 0.0
C1825 C 0.25566 0.94313 0.69976 0.0
C1826 C 0.24668 0.96053 0.73056 0.0
C1827 C 0.25891 0.97093 0.72573 0.0
C1828 C 0.26981 0.96712 0.70835 0.0
H1829 H 0.28141 0.05091 0.8155 0.0
H1830 H 0.28302 0.02655 0.79322 0.0
C1831 C 0.26818 0.95336 0.69541 0.0
C1832 C 0.26001 0.98588 0.73868 0.0
H1833 H 0.25805 0.02544 0.73186 0.0
C1834 C 0.26162 0.98542 0.76308 0.0
C1835 C 0.25864 0.00047 0.72726 0.0
C1836 C 0.25618 0.00166 0.7012 0.0
C1837 C 0.2618 0.99918 0.77641 0.0
C1838 C 0.2606 0.01378 0.76496 0.0
C1839 C 0.2591 0.01423 0.74055 0.0
C1840 C 0.25996 0.02869 0.77806 0.0
C1841 C 0.26276 0.99795 0.80267 0.0
C1842 C 0.24665 0.03817 0.77642 0.0
C1843 C 0.24574 0.05212 0.78894 0.0
C1844 C 0.25816 0.05691 0.80336 0.0
C1845 C 0.2716 0.04751 0.80468 0.0
C1846 C 0.27251 0.03355 0.79207 0.0
H1847 H 0.26002 0.98598 0.80892 0.0
H1848 H 0.27479 0.00087 0.80841 0.0
H1849 H 0.25461 0.00629 0.81114 0.0
H1850 H 0.23686 0.03466 0.76564 0.0
H1851 H 0.23522 0.05908 0.78747 0.0
H1852 H 0.93721 0.23066 0.7815 0.0
H1853 H 0.96157 0.23254 0.75947 0.0
H1854 H 0.97314 0.27512 0.79576 0.0
H1855 H 0.94888 0.27324 0.81815 0.0
H1856 H 0.97255 0.25613 0.73002 0.0
H1857 H 0.01167 0.24755 0.80645 0.0
H1858 H 0.991 0.24353 0.80758 0.0
H1859 H 0.99794 0.26329 0.80931 0.0
C1860 C 0.94491 0.24045 0.78481 0.0
C1861 C 0.94115 0.25175 0.80172 0.0
C1862 C 0.95882 0.24151 0.77217 0.0
C1863 C 0.96926 0.25384 0.77623 0.0
C1864 C 0.96538 0.26534 0.79268 0.0
H1865 H 0.04891 0.27496 0.68553 0.0
H1866 H 0.02458 0.27669 0.70783 0.0
C1867 C 0.95147 0.26428 0.80538 0.0
C1868 C 0.98421 0.25453 0.76326 0.0
H1869 H 0.02378 0.25302 0.77026 0.0
C1870 C 0.98376 0.25551 0.73879 0.0
C1871 C 0.99879 0.25354 0.77478 0.0
C1872 C 0.99996 0.25178 0.80096 0.0
C1873 C 0.99753 0.25546 0.72548 0.0
C1874 C 0.01212 0.25467 0.73702 0.0
C1875 C 0.01257 0.25375 0.7615 0.0
C1876 C 0.02705 0.25397 0.72398 0.0
C1877 C 0.99632 0.25578 0.69918 0.0
C1878 C 0.0367 0.24083 0.72618 0.0
C1879 C 0.05065 0.23985 0.71363 0.0
C1880 C 0.05523 0.25203 0.69865 0.0
C1881 C 0.04567 0.26533 0.69679 0.0
C1882 C 0.03172 0.26631 0.70942 0.0
H1883 H 0.98439 0.25272 0.69307 0.0
H1884 H 0.99907 0.26771 0.69282 0.0
H1885 H 0.00478 0.24755 0.69116 0.0
H1886 H 0.03334 0.23121 0.7374 0.0
H1887 H 0.05774 0.22945 0.71553 0.0
H1888 H 0.78327 0.55499 0.69729 0.0
H1889 H 0.78438 0.53012 0.71845 0.0
H1890 H 0.73443 0.53122 0.72751 0.0
H1891 H 0.73315 0.55602 0.70645 0.0
H1892 H 0.7726 0.52379 0.76583 0.0
H1893 H 0.74409 0.48778 0.69723 0.0
H1894 H 0.75279 0.50657 0.69114 0.0
H1895 H 0.73401 0.50545 0.70499 0.0
C1896 C 0.77251 0.54994 0.70376 0.0
C1897 C 0.75811 0.55747 0.7001 0.0
C1898 C 0.77318 0.53575 0.71585 0.0
C1899 C 0.75946 0.52878 0.72425 0.0
C1900 C 0.74511 0.53632 0.72084 0.0
H1901 H 0.73346 0.4452 0.79845 0.0
H1902 H 0.7347 0.46949 0.77613 0.0
C1903 C 0.74443 0.55053 0.7089 0.0
C1904 C 0.76011 0.51372 0.73691 0.0
H1905 H 0.74807 0.47578 0.73407 0.0
C1906 C 0.76736 0.51324 0.75887 0.0
C1907 C 0.7532 0.50005 0.72774 0.0
C1908 C 0.74568 0.49986 0.7039 0.0
C1909 C 0.76747 0.4995 0.77229 0.0
C1910 C 0.76047 0.48581 0.76318 0.0
C1911 C 0.75342 0.48628 0.74104 0.0
C1912 C 0.75992 0.47098 0.77659 0.0
C1913 C 0.77458 0.49995 0.79641 0.0
C1914 C 0.77371 0.4636 0.78397 0.0
C1915 C 0.77304 0.44975 0.79691 0.0
C1916 C 0.75857 0.44292 0.80243 0.0
C1917 C 0.7448 0.45016 0.79453 0.0
C1918 C 0.74548 0.46404 0.78176 0.0
H1919 H 0.77559 0.51208 0.8031 0.0
H1920 H 0.76754 0.49302 0.80898 0.0
H1921 H 0.78649 0.49488 0.79574 0.0
H1922 H 0.785 0.46852 0.77967 0.0
H1923 H 0.78387 0.4444 0.80253 0.0
H1924 H 0.55108 0.7785 0.81486 0.0
H1925 H 0.52725 0.78105 0.79151 0.0
H1926 H 0.53702 0.73699 0.75816 0.0
H1927 H 0.56096 0.73446 0.78104 0.0
H1928 H 0.52773 0.75958 0.72695 0.0
H1929 H 0.48702 0.75662 0.80235 0.0
H1930 H 0.50146 0.77176 0.80431 0.0
H1931 H 0.50743 0.75164 0.8048 0.0
C1932 C 0.54818 0.76936 0.80253 0.0
C1933 C 0.55789 0.75623 0.79992 0.0
C1934 C 0.5345 0.7708 0.78929 0.0
C1935 C 0.53023 0.75908 0.77339 0.0
C1936 C 0.54007 0.74614 0.77041 0.0
H1937 H 0.4413 0.7374 0.71133 0.0
H1938 H 0.4652 0.73888 0.73454 0.0
C1939 C 0.55375 0.74471 0.78354 0.0
C1940 C 0.51552 0.76019 0.75979 0.0
H1941 H 0.47582 0.76134 0.76525 0.0
C1942 C 0.51638 0.76002 0.7353 0.0
C1943 C 0.50071 0.76057 0.77076 0.0
C1944 C 0.49901 0.76002 0.79699 0.0
C1945 C 0.50284 0.76016 0.72146 0.0
C1946 C 0.48804 0.76078 0.73242 0.0
C1947 C 0.48718 0.76101 0.7569 0.0
C1948 C 0.4733 0.76038 0.71881 0.0
C1949 C 0.5045 0.75913 0.69525 0.0
C1950 C 0.46977 0.77214 0.70255 0.0
C1951 C 0.45613 0.7713 0.68915 0.0
C1952 C 0.44571 0.75874 0.69191 0.0
C1953 C 0.44908 0.74721 0.70869 0.0
C1954 C 0.46273 0.74805 0.72201 0.0
H1955 H 0.51627 0.75495 0.69002 0.0
H1956 H 0.4956 0.75115 0.68771 0.0
H1957 H 0.50274 0.77089 0.68753 0.0
H1958 H 0.4776 0.78194 0.70016 0.0
H1959 H 0.45383 0.78043 0.67651 0.0
H1960 H 0.25771 0.43412 0.71963 0.0
H1961 H 0.25815 0.45707 0.74501 0.0
H1962 H 0.23429 0.48381 0.69204 0.0
H1963 H 0.23349 0.46085 0.66674 0.0
H1964 H 0.27206 0.48504 0.73736 0.0
H1965 H 0.20841 0.49344 0.74948 0.0
H1966 H 0.21655 0.47578 0.73736 0.0
H1967 H 0.21413 0.49282 0.71934 0.0
C1968 C 0.25243 0.44485 0.71344 0.0
C1969 C 0.24551 0.44563 0.69118 0.0
C1970 C 0.25271 0.45796 0.72797 0.0
C1971 C 0.24606 0.4721 0.72057 0.0
C1972 C 0.23916 0.47293 0.69835 0.0
H1973 H 0.26725 0.56391 0.77674 0.0
H1974 H 0.2651 0.54038 0.7528 0.0
C1975 C 0.2388 0.4598 0.68385 0.0
C1976 C 0.24696 0.48614 0.7357 0.0
H1977 H 0.22486 0.51426 0.76205 0.0
C1978 C 0.26174 0.49139 0.74285 0.0
C1979 C 0.23347 0.49429 0.7431 0.0
C1980 C 0.21724 0.48872 0.73713 0.0
C1981 C 0.26342 0.50472 0.75689 0.0
C1982 C 0.24997 0.51323 0.76351 0.0
C1983 C 0.23517 0.50782 0.75672 0.0
C1984 C 0.251 0.52766 0.77776 0.0
C1985 C 0.27957 0.50939 0.76481 0.0
C1986 C 0.24336 0.52853 0.7994 0.0
C1987 C 0.24442 0.54203 0.81303 0.0
C1988 C 0.25313 0.55494 0.80523 0.0
C1989 C 0.26056 0.55413 0.78335 0.0
C1990 C 0.25942 0.54065 0.7697 0.0
H1991 H 0.28788 0.49945 0.76385 0.0
H1992 H 0.28402 0.5188 0.75327 0.0
H1993 H 0.2794 0.51385 0.78302 0.0
H1994 H 0.23673 0.51867 0.8059 0.0
H1995 H 0.23853 0.54227 0.82976 0.0
H1996 H 0.44023 0.26875 0.78013 0.0
H1997 H 0.46437 0.26593 0.75787 0.0
H1998 H 0.47389 0.22234 0.79285 0.0
H1999 H 0.44985 0.2252 0.81557 0.0
H2000 H 0.49934 0.24159 0.79188 0.0
H2001 H 0.47358 0.23704 0.7034 0.0
H2002 H 0.4671 0.25407 0.71882 0.0
H2003 H 0.46209 0.23499 0.72965 0.0
C2004 C 0.44738 0.25849 0.78299 0.0
C2005 C 0.44308 0.24717 0.7996 0.0
C2006 C 0.46114 0.25685 0.77013 0.0
C2007 C 0.47079 0.24379 0.7734 0.0
C2008 C 0.46655 0.23246 0.78995 0.0
H2009 H 0.54936 0.22479 0.68008 0.0
H2010 H 0.52545 0.22228 0.70317 0.0
C2011 C 0.4528 0.23411 0.80289 0.0
C2012 C 0.48566 0.24237 0.76031 0.0
H2013 H 0.50097 0.24251 0.70526 0.0
C2014 C 0.4997 0.24163 0.77294 0.0
C2015 C 0.48611 0.24217 0.7356 0.0
C2016 C 0.4714 0.24195 0.72106 0.0
C2017 C 0.5142 0.24128 0.76152 0.0
C2018 C 0.51466 0.24199 0.73683 0.0
C2019 C 0.50061 0.24214 0.7242 0.0
C2020 C 0.52957 0.24306 0.72376 0.0
C2021 C 0.52887 0.2401 0.77602 0.0
C2022 C 0.53979 0.2556 0.72761 0.0
C2023 C 0.55349 0.25704 0.71453 0.0
C2024 C 0.55715 0.24604 0.69713 0.0
C2025 C 0.54691 0.23345 0.69336 0.0
C2026 C 0.53323 0.232 0.70652 0.0
H2027 H 0.52648 0.23488 0.79343 0.0
H2028 H 0.53789 0.23296 0.76708 0.0
H2029 H 0.53368 0.25197 0.77887 0.0
H2030 H 0.53703 0.26448 0.74043 0.0
H2031 H 0.56105 0.26694 0.71779 0.0
H2032 H 0.25973 0.56526 0.22152 0.0
H2033 H 0.25961 0.54133 0.24478 0.0
H2034 H 0.23059 0.5189 0.19315 0.0
H2035 H 0.23039 0.5429 0.16993 0.0
H2036 H 0.22094 0.51283 0.23821 0.0
H2037 H 0.28453 0.50229 0.22898 0.0
H2038 H 0.27996 0.52115 0.24079 0.0
H2039 H 0.27419 0.51641 0.21141 0.0
C2040 C 0.25329 0.55526 0.2151 0.0
C2041 C 0.24516 0.55596 0.19376 0.0
C2042 C 0.25331 0.54156 0.22837 0.0
C2043 C 0.24535 0.52825 0.22046 0.0
C2044 C 0.23689 0.52902 0.19949 0.0
H2045 H 0.26164 0.43465 0.27386 0.0
H2046 H 0.25882 0.4578 0.24924 0.0
C2047 C 0.2368 0.54274 0.18624 0.0
C2048 C 0.24592 0.5135 0.23402 0.0
H2049 H 0.27104 0.48643 0.25645 0.0
C2050 C 0.23188 0.50701 0.24213 0.0
C2051 C 0.26018 0.50579 0.23878 0.0
C2052 C 0.27556 0.51166 0.22935 0.0
C2053 C 0.23175 0.49316 0.2553 0.0
C2054 C 0.24608 0.48581 0.26087 0.0
C2055 C 0.26008 0.49215 0.25236 0.0
C2056 C 0.2469 0.47152 0.27548 0.0
C2057 C 0.21626 0.48643 0.2628 0.0
C2058 C 0.24114 0.47154 0.29844 0.0
C2059 C 0.24263 0.45828 0.31252 0.0
C2060 C 0.25011 0.44481 0.304 0.0
C2061 C 0.25582 0.44482 0.28097 0.0
C2062 C 0.25423 0.45805 0.26687 0.0
H2063 H 0.20655 0.49071 0.25162 0.0
H2064 H 0.21642 0.47347 0.26218 0.0
H2065 H 0.21379 0.49007 0.28103 0.0
H2066 H 0.23577 0.48192 0.30565 0.0
H2067 H 0.23821 0.4587 0.33023 0.0
H2068 H 0.5604 0.26304 0.28644 0.0
H2069 H 0.53674 0.26189 0.26261 0.0
H2070 H 0.52265 0.21978 0.29813 0.0
H2071 H 0.54621 0.22092 0.3223 0.0
H2072 H 0.52618 0.23845 0.23242 0.0
H2073 H 0.48457 0.24851 0.30532 0.0
H2074 H 0.50527 0.25201 0.30811 0.0
H2075 H 0.49776 0.23245 0.3096 0.0
C2076 C 0.55228 0.25352 0.28922 0.0
C2077 C 0.55516 0.24212 0.3064 0.0
C2078 C 0.53878 0.25288 0.27555 0.0
C2079 C 0.52785 0.24088 0.27883 0.0
C2080 C 0.5308 0.22931 0.29562 0.0
H2081 H 0.45111 0.21934 0.18323 0.0
H2082 H 0.47488 0.21814 0.20694 0.0
C2083 C 0.54431 0.22994 0.30934 0.0
C2084 C 0.51338 0.24054 0.26462 0.0
H2085 H 0.47365 0.24283 0.26831 0.0
C2086 C 0.51468 0.23937 0.24024 0.0
C2087 C 0.49842 0.24194 0.27488 0.0
C2088 C 0.49634 0.24394 0.30089 0.0
C2089 C 0.50141 0.23951 0.22582 0.0
C2090 C 0.48644 0.24063 0.23612 0.0
C2091 C 0.48514 0.24184 0.26049 0.0
C2092 C 0.47199 0.24117 0.22187 0.0
C2093 C 0.50355 0.23888 0.19967 0.0
C2094 C 0.46229 0.25435 0.22282 0.0
C2095 C 0.44867 0.25504 0.20943 0.0
C2096 C 0.44442 0.24251 0.19487 0.0
C2097 C 0.45408 0.22923 0.19415 0.0
C2098 C 0.46771 0.22855 0.20759 0.0
H2099 H 0.5157 0.24178 0.19445 0.0
H2100 H 0.50093 0.2269 0.19341 0.0
H2101 H 0.49545 0.24708 0.19075 0.0
H2102 H 0.46535 0.26419 0.2338 0.0
H2103 H 0.44149 0.26543 0.21046 0.0
H2104 H 0.72939 0.55499 0.29373 0.0
H2105 H 0.73187 0.53035 0.27271 0.0
H2106 H 0.78189 0.53199 0.28121 0.0
H2107 H 0.77949 0.55653 0.30284 0.0
H2108 H 0.74723 0.52371 0.23231 0.0
H2109 H 0.7717 0.48866 0.30544 0.0
H2110 H 0.76325 0.50774 0.30977 0.0
H2111 H 0.78269 0.50586 0.29827 0.0
C2112 C 0.74093 0.55012 0.29119 0.0
C2113 C 0.75424 0.55769 0.30009 0.0
C2114 C 0.74233 0.53603 0.27915 0.0
C2115 C 0.75704 0.5292 0.27572 0.0
C2116 C 0.77039 0.53686 0.28415 0.0
H2117 H 0.77969 0.44347 0.19902 0.0
H2118 H 0.78176 0.4686 0.21937 0.0
C2119 C 0.769 0.55094 0.29637 0.0
C2120 C 0.75825 0.51417 0.26301 0.0
H2121 H 0.76932 0.47602 0.26887 0.0
C2122 C 0.7521 0.5133 0.24029 0.0
C2123 C 0.76464 0.5006 0.27345 0.0
C2124 C 0.77083 0.50065 0.29814 0.0
C2125 C 0.752 0.4992 0.22786 0.0
C2126 C 0.75814 0.48563 0.23844 0.0
C2127 C 0.76466 0.48652 0.26087 0.0
C2128 C 0.75708 0.47026 0.22688 0.0
C2129 C 0.74522 0.49883 0.20353 0.0
C2130 C 0.74256 0.46285 0.22481 0.0
C2131 C 0.74133 0.44851 0.21339 0.0
C2132 C 0.75463 0.44134 0.20373 0.0
C2133 C 0.76923 0.44871 0.20619 0.0
C2134 C 0.77045 0.46303 0.2178 0.0
H2135 H 0.7437 0.51075 0.19619 0.0
H2136 H 0.75282 0.49196 0.19165 0.0
H2137 H 0.73361 0.49307 0.20406 0.0
H2138 H 0.73214 0.46823 0.23191 0.0
H2139 H 0.72992 0.44316 0.21183 0.0
H2140 H 0.44302 0.78111 0.29901 0.0
H2141 H 0.46695 0.78363 0.27587 0.0
H2142 H 0.46754 0.7338 0.26503 0.0
H2143 H 0.44355 0.73121 0.28758 0.0
H2144 H 0.49567 0.77099 0.28399 0.0
H2145 H 0.47305 0.74977 0.19917 0.0
H2146 H 0.46035 0.75511 0.22301 0.0
H2147 H 0.46946 0.73616 0.22237 0.0
C2148 C 0.44818 0.77071 0.29153 0.0
C2149 C 0.44132 0.75597 0.29503 0.0
C2150 C 0.46185 0.77217 0.27832 0.0
C2151 C 0.46887 0.75894 0.26836 0.0
C2152 C 0.46211 0.74422 0.27201 0.0
H2153 H 0.5546 0.73273 0.20289 0.0
H2154 H 0.52955 0.73472 0.22312 0.0
C2155 C 0.44843 0.74275 0.28506 0.0
C2156 C 0.48365 0.76033 0.25503 0.0
H2157 H 0.50094 0.75027 0.20343 0.0
C2158 C 0.49678 0.76667 0.26626 0.0
C2159 C 0.48505 0.75474 0.23185 0.0
C2160 C 0.47118 0.74871 0.21831 0.0
C2161 C 0.51143 0.76696 0.25526 0.0
C2162 C 0.51291 0.76081 0.23248 0.0
C2163 C 0.49973 0.75487 0.221 0.0
C2164 C 0.52819 0.75987 0.22057 0.0
C2165 C 0.52536 0.77332 0.2683 0.0
C2166 C 0.53565 0.77338 0.21239 0.0
C2167 C 0.54995 0.7723 0.20072 0.0
C2168 C 0.55703 0.75767 0.1971 0.0
C2169 C 0.54951 0.74418 0.20544 0.0
C2170 C 0.53518 0.74527 0.21696 0.0
H2171 H 0.52267 0.7757 0.28695 0.0
H2172 H 0.53525 0.76496 0.26738 0.0
H2173 H 0.52919 0.78439 0.26 0.0
H2174 H 0.53032 0.78474 0.21486 0.0
H2175 H 0.55543 0.78291 0.19448 0.0
H2176 H 0.20698 0.15451 0.18036 0.0
H2177 H 0.18753 0.166 0.20602 0.0
H2178 H 0.17523 0.12019 0.23151 0.0
H2179 H 0.19539 0.10859 0.20644 0.0
H2180 H 0.15708 0.16332 0.20841 0.0
H2181 H 0.18283 0.14219 0.29187 0.0
H2182 H 0.19282 0.1402 0.26433 0.0
H2183 H 0.17715 0.12713 0.27181 0.0
C2184 C 0.20017 0.14683 0.19143 0.0
C2185 C 0.2028 0.13064 0.1915 0.0
C2186 C 0.18899 0.15343 0.20607 0.0
C2187 C 0.18 0.14401 0.22095 0.0
C2188 C 0.18227 0.12775 0.22063 0.0
H2189 H 0.10752 0.19858 0.29611 0.0
H2190 H 0.11869 0.17834 0.27074 0.0
C2191 C 0.19373 0.12113 0.20622 0.0
C2192 C 0.16858 0.15158 0.23688 0.0
H2193 H 0.16084 0.15834 0.29448 0.0
C2194 C 0.15779 0.16214 0.22725 0.0
C2195 C 0.16952 0.15001 0.26147 0.0
C2196 C 0.18127 0.13938 0.27306 0.0
C2197 C 0.14866 0.1719 0.24144 0.0
C2198 C 0.14988 0.17061 0.26602 0.0
C2199 C 0.15992 0.15932 0.27564 0.0
C2200 C 0.14254 0.1821 0.28208 0.0
C2201 C 0.13861 0.18416 0.22989 0.0
C2202 C 0.1521 0.19055 0.29747 0.0
C2203 C 0.14573 0.20176 0.31226 0.0
C2204 C 0.12964 0.20498 0.31185 0.0
C2205 C 0.11999 0.19647 0.2966 0.0
C2206 C 0.12637 0.18496 0.28203 0.0
H2207 H 0.14171 0.18585 0.21121 0.0
H2208 H 0.1262 0.18048 0.23069 0.0
H2209 H 0.13974 0.19556 0.23896 0.0
H2210 H 0.1646 0.18862 0.29781 0.0
H2211 H 0.15351 0.20814 0.32374 0.0
H2212 H 0.88889 0.20425 0.21315 0.0
H2213 H 0.8777 0.18274 0.23564 0.0
H2214 H 0.85821 0.16328 0.17251 0.0
H2215 H 0.86889 0.18505 0.15009 0.0
H2216 H 0.83644 0.16771 0.20382 0.0
H2217 H 0.88535 0.13729 0.24728 0.0
H2218 H 0.88608 0.1579 0.25253 0.0
H2219 H 0.88833 0.15059 0.22321 0.0
C2220 C 0.8826 0.19515 0.20398 0.0
C2221 C 0.87964 0.19641 0.1799 0.0
C2222 C 0.87628 0.18278 0.21684 0.0
C2223 C 0.8672 0.17128 0.20576 0.0
C2224 C 0.86518 0.17199 0.18145 0.0
H2225 H 0.79901 0.10791 0.27121 0.0
H2226 H 0.81858 0.11731 0.24324 0.0
C2227 C 0.87128 0.18445 0.16866 0.0
C2228 C 0.85791 0.16004 0.21979 0.0
H2229 H 0.85989 0.13431 0.26533 0.0
C2230 C 0.84162 0.16013 0.21689 0.0
C2231 C 0.86464 0.1502 0.23692 0.0
C2232 C 0.88208 0.14886 0.24 0.0
C2233 C 0.83184 0.15131 0.23139 0.0
C2234 C 0.83852 0.14201 0.24918 0.0
C2235 C 0.85482 0.14144 0.25161 0.0
C2236 C 0.8286 0.13429 0.26688 0.0
C2237 C 0.81437 0.15268 0.22843 0.0
C2238 C 0.82822 0.1403 0.28962 0.0
C2239 C 0.81709 0.13502 0.30554 0.0
C2240 C 0.80615 0.12355 0.29905 0.0
C2241 C 0.80721 0.11681 0.27671 0.0
C2242 C 0.81835 0.12217 0.2607 0.0
H2243 H 0.81107 0.16211 0.21605 0.0
H2244 H 0.80967 0.14149 0.22162 0.0
H2245 H 0.80868 0.15501 0.24551 0.0
H2246 H 0.83604 0.14966 0.29469 0.0
H2247 H 0.8167 0.14036 0.32269 0.0
H2248 H 0.88539 0.7929 0.27775 0.0
H2249 H 0.87397 0.81314 0.25289 0.0
H2250 H 0.85515 0.83603 0.31383 0.0
H2251 H 0.86603 0.81553 0.33862 0.0
H2252 H 0.83305 0.82997 0.28356 0.0
H2253 H 0.88176 0.85783 0.23578 0.0
H2254 H 0.8821 0.83699 0.23294 0.0
H2255 H 0.88488 0.84576 0.26123 0.0
C2256 C 0.8792 0.80249 0.28588 0.0
C2257 C 0.87648 0.80258 0.31008 0.0
C2258 C 0.87274 0.81413 0.27165 0.0
C2259 C 0.86378 0.8262 0.28148 0.0
C2260 C 0.86201 0.82684 0.30584 0.0
H2261 H 0.79702 0.89053 0.21614 0.0
H2262 H 0.81681 0.88013 0.24291 0.0
C2263 C 0.86823 0.81511 0.31999 0.0
C2264 C 0.8544 0.83675 0.26639 0.0
H2265 H 0.85606 0.86094 0.21894 0.0
C2266 C 0.83815 0.83697 0.26974 0.0
C2267 C 0.86101 0.84581 0.24822 0.0
C2268 C 0.87841 0.84672 0.24447 0.0
C2269 C 0.8283 0.84553 0.25497 0.0
C2270 C 0.83486 0.8542 0.23642 0.0
C2271 C 0.85111 0.85429 0.23326 0.0
C2272 C 0.82477 0.86218 0.21918 0.0
C2273 C 0.81086 0.84471 0.25871 0.0
C2274 C 0.82312 0.85584 0.19676 0.0
C2275 C 0.81182 0.86168 0.18149 0.0
C2276 C 0.802 0.87403 0.18836 0.0
C2277 C 0.80433 0.88097 0.21036 0.0
C2278 C 0.81562 0.87505 0.22568 0.0
H2279 H 0.80757 0.83562 0.27167 0.0
H2280 H 0.80661 0.85615 0.26518 0.0
H2281 H 0.80479 0.84218 0.24199 0.0
H2282 H 0.83008 0.84589 0.19147 0.0
H2283 H 0.81043 0.85615 0.16461 0.0
H2284 H 0.20666 0.88735 0.29021 0.0
H2285 H 0.18752 0.87518 0.26407 0.0
H2286 H 0.17546 0.84218 0.31804 0.0
H2287 H 0.1946 0.85404 0.34406 0.0
H2288 H 0.18366 0.8283 0.27658 0.0
H2289 H 0.13955 0.87476 0.26155 0.0
H2290 H 0.15941 0.8807 0.25666 0.0
H2291 H 0.15324 0.87533 0.28557 0.0
C2292 C 0.19974 0.87767 0.29663 0.0
C2293 C 0.20225 0.87159 0.31915 0.0
C2294 C 0.18874 0.8708 0.28172 0.0
C2295 C 0.17998 0.85786 0.2892 0.0
C2296 C 0.18207 0.85217 0.31195 0.0
H2297 H 0.11162 0.79884 0.21802 0.0
H2298 H 0.12417 0.81649 0.24615 0.0
C2299 C 0.19306 0.85896 0.32678 0.0
C2300 C 0.16986 0.84917 0.27271 0.0
H2301 H 0.13808 0.85232 0.23685 0.0
C2302 C 0.17363 0.83353 0.26806 0.0
C2303 C 0.15675 0.85602 0.26167 0.0
C2304 C 0.15187 0.87259 0.26672 0.0
C2305 C 0.16482 0.82463 0.25234 0.0
C2306 C 0.15198 0.83156 0.24087 0.0
C2307 C 0.14799 0.8471 0.24572 0.0
C2308 C 0.14312 0.8228 0.22306 0.0
C2309 C 0.16938 0.80788 0.24779 0.0
C2310 C 0.14951 0.82086 0.20075 0.0
C2311 C 0.14245 0.81082 0.18475 0.0
C2312 C 0.12887 0.80249 0.19079 0.0
C2313 C 0.12207 0.80505 0.21284 0.0
C2314 C 0.12919 0.81514 0.22889 0.0
H2315 H 0.17842 0.80367 0.26022 0.0
H2316 H 0.15899 0.80017 0.24908 0.0
H2317 H 0.17406 0.80683 0.22978 0.0
H2318 H 0.16029 0.82669 0.19603 0.0
H2319 H 0.14795 0.80922 0.16788 0.0
H2320 H 0.88355 0.79407 0.71908 0.0
H2321 H 0.87065 0.8132 0.74451 0.0
H2322 H 0.84758 0.83328 0.6846 0.0
H2323 H 0.85993 0.81395 0.65933 0.0
H2324 H 0.86895 0.84539 0.74701 0.0
H2325 H 0.81106 0.82029 0.72482 0.0
H2326 H 0.82912 0.81095 0.71673 0.0
H2327 H 0.82168 0.82701 0.69976 0.0
C2328 C 0.87587 0.80269 0.71134 0.0
C2329 C 0.87252 0.80236 0.68731 0.0
C2330 C 0.86851 0.8136 0.72586 0.0
C2331 C 0.85784 0.82438 0.7165 0.0
C2332 C 0.85541 0.82477 0.69228 0.0
H2333 H 0.79214 0.88902 0.78145 0.0
H2334 H 0.81063 0.87729 0.75384 0.0
C2335 C 0.86253 0.81375 0.67785 0.0
C2336 C 0.84853 0.83459 0.73209 0.0
H2337 H 0.81105 0.84316 0.74787 0.0
C2338 C 0.85629 0.84492 0.7472 0.0
C2339 C 0.832 0.83389 0.73241 0.0
C2340 C 0.82297 0.82233 0.71774 0.0
C2341 C 0.84793 0.85465 0.7625 0.0
C2342 C 0.83145 0.85397 0.76265 0.0
C2343 C 0.8237 0.84378 0.74742 0.0
C2344 C 0.82193 0.86274 0.77971 0.0
C2345 C 0.85672 0.86559 0.7784 0.0
C2346 C 0.82231 0.85852 0.80335 0.0
C2347 C 0.81169 0.86503 0.81905 0.0
C2348 C 0.80052 0.87595 0.8114 0.0
C2349 C 0.80062 0.88069 0.78788 0.0
C2350 C 0.81116 0.87401 0.7721 0.0
H2351 H 0.86899 0.86728 0.77261 0.0
H2352 H 0.85085 0.87714 0.77921 0.0
H2353 H 0.8569 0.86065 0.79633 0.0
H2354 H 0.83037 0.84966 0.80946 0.0
H2355 H 0.81196 0.86118 0.83708 0.0
H2356 H 0.18164 0.86601 0.66522 0.0
H2357 H 0.16277 0.85358 0.69114 0.0
H2358 H 0.18827 0.87053 0.75102 0.0
H2359 H 0.20694 0.88349 0.72504 0.0
H2360 H 0.17078 0.83046 0.71915 0.0
H2361 H 0.14407 0.87718 0.7727 0.0
H2362 H 0.15489 0.88125 0.74631 0.0
H2363 H 0.16501 0.87768 0.77336 0.0
C2364 C 0.18301 0.86742 0.68392 0.0
C2365 C 0.19581 0.87564 0.69314 0.0
C2366 C 0.17221 0.86032 0.69871 0.0
C2367 C 0.17403 0.86116 0.72304 0.0
C2368 C 0.1864 0.87 0.73233 0.0
H2369 H 0.14591 0.80421 0.83802 0.0
H2370 H 0.15623 0.82436 0.81209 0.0
C2371 C 0.19712 0.87733 0.71747 0.0
C2372 C 0.16428 0.85111 0.73833 0.0
H2373 H 0.14123 0.85093 0.78705 0.0
C2374 C 0.16412 0.835 0.73376 0.0
C2375 C 0.15567 0.85701 0.75749 0.0
C2376 C 0.15477 0.87425 0.76264 0.0
C2377 C 0.15598 0.82457 0.74816 0.0
C2378 C 0.14765 0.83042 0.76757 0.0
C2379 C 0.1476 0.84653 0.77206 0.0
C2380 C 0.13987 0.81972 0.78418 0.0
C2381 C 0.15682 0.8073 0.74301 0.0
C2382 C 0.12697 0.81074 0.77724 0.0
C2383 C 0.12102 0.79916 0.79202 0.0
C2384 C 0.12793 0.79638 0.81392 0.0
C2385 C 0.14039 0.80595 0.82119 0.0
C2386 C 0.14627 0.81753 0.80646 0.0
H2387 H 0.16584 0.80452 0.7297 0.0
H2388 H 0.15944 0.80062 0.75917 0.0
H2389 H 0.14535 0.80327 0.7363 0.0
H2390 H 0.12183 0.81237 0.76012 0.0
H2391 H 0.11138 0.79206 0.78594 0.0
H2392 H 0.11401 0.20263 0.72302 0.0
H2393 H 0.12595 0.18252 0.7478 0.0
H2394 H 0.14372 0.15929 0.68649 0.0
H2395 H 0.13239 0.17962 0.66179 0.0
H2396 H 0.12564 0.15013 0.75222 0.0
H2397 H 0.1833 0.1712 0.72083 0.0
H2398 H 0.16538 0.18143 0.71464 0.0
H2399 H 0.1707 0.16446 0.69791 0.0
C2400 C 0.1202 0.19306 0.71484 0.0
C2401 C 0.12254 0.19281 0.69055 0.0
C2402 C 0.12701 0.18159 0.72899 0.0
C2403 C 0.13607 0.16966 0.71899 0.0
C2404 C 0.13715 0.16863 0.69459 0.0
H2405 H 0.20472 0.10771 0.78258 0.0
H2406 H 0.18434 0.11715 0.75608 0.0
C2407 C 0.13062 0.18022 0.68051 0.0
C2408 C 0.14565 0.15931 0.73401 0.0
H2409 H 0.18344 0.1497 0.74634 0.0
C2410 C 0.13827 0.14996 0.75088 0.0
C2411 C 0.16215 0.1592 0.73233 0.0
C2412 C 0.17088 0.16971 0.71563 0.0
C2413 C 0.14701 0.1405 0.76615 0.0
C2414 C 0.16347 0.14049 0.76447 0.0
C2415 C 0.17079 0.14959 0.74733 0.0
C2416 C 0.17358 0.13237 0.78156 0.0
C2417 C 0.13861 0.13066 0.78401 0.0
C2418 C 0.17406 0.13759 0.80476 0.0
C2419 C 0.18574 0.13233 0.81986 0.0
C2420 C 0.19718 0.12178 0.812 0.0
C2421 C 0.19608 0.11583 0.78917 0.0
C2422 C 0.18444 0.12119 0.77401 0.0
H2423 H 0.12621 0.12871 0.77909 0.0
H2424 H 0.14444 0.11918 0.78622 0.0
H2425 H 0.13882 0.13676 0.80111 0.0
H2426 H 0.16597 0.14642 0.81082 0.0
H2427 H 0.18622 0.1371 0.83737 0.0
H2428 H 0.89279 0.19087 0.79225 0.0
H2429 H 0.88291 0.17002 0.76673 0.0
H2430 H 0.8367 0.17647 0.79525 0.0
H2431 H 0.84657 0.19647 0.82133 0.0
H2432 H 0.84206 0.14675 0.78959 0.0
H2433 H 0.85923 0.17792 0.70815 0.0
H2434 H 0.87496 0.17251 0.72721 0.0
H2435 H 0.86094 0.18685 0.73651 0.0
C2436 C 0.88056 0.18771 0.79312 0.0
C2437 C 0.87045 0.19537 0.8087 0.0
C2438 C 0.8749 0.17586 0.77845 0.0
C2439 C 0.85898 0.17184 0.77873 0.0
C2440 C 0.84903 0.17928 0.7947 0.0
H2441 H 0.793 0.15003 0.67861 0.0
H2442 H 0.81338 0.1594 0.7046 0.0
C2443 C 0.8547 0.1908 0.80959 0.0
C2444 C 0.85211 0.16051 0.76195 0.0
H2445 H 0.84367 0.15575 0.70412 0.0
C2446 C 0.84254 0.14857 0.77084 0.0
C2447 C 0.85284 0.16286 0.73748 0.0
C2448 C 0.86244 0.17578 0.72669 0.0
C2449 C 0.83265 0.13987 0.75625 0.0
C2450 C 0.83285 0.14272 0.73189 0.0
C2451 C 0.84346 0.15367 0.72281 0.0
C2452 C 0.82069 0.1364 0.71596 0.0
C2453 C 0.82126 0.12862 0.76731 0.0
C2454 C 0.81789 0.12029 0.71365 0.0
C2455 C 0.80585 0.11488 0.69911 0.0
C2456 C 0.79678 0.1255 0.6862 0.0
C2457 C 0.79984 0.14155 0.68823 0.0
C2458 C 0.81155 0.14692 0.70305 0.0
H2459 H 0.82045 0.13023 0.78653 0.0
H2460 H 0.80941 0.13005 0.75974 0.0
H2461 H 0.82518 0.11648 0.76397 0.0
H2462 H 0.825 0.1119 0.72298 0.0
H2463 H 0.80384 0.10244 0.69764 0.0
H2464 H 0.70428 0.60848 0.71718 0.0
H2465 H 0.68368 0.61846 0.74282 0.0
H2466 H 0.66732 0.64848 0.6875 0.0
H2467 H 0.68774 0.63859 0.6618 0.0
H2468 H 0.68354 0.65061 0.75323 0.0
H2469 H 0.6264 0.63227 0.71677 0.0
H2470 H 0.64445 0.62229 0.71006 0.0
H2471 H 0.63966 0.6403 0.69561 0.0
C2472 C 0.69603 0.61688 0.71027 0.0
C2473 C 0.69775 0.62286 0.68753 0.0
C2474 C 0.68427 0.62256 0.72493 0.0
C2475 C 0.6739 0.6341 0.71698 0.0
C2476 C 0.675 0.63937 0.69385 0.0
H2477 H 0.61596 0.70603 0.77552 0.0
H2478 H 0.6277 0.68611 0.75016 0.0
C2479 C 0.68679 0.63379 0.67925 0.0
C2480 C 0.66369 0.64245 0.73368 0.0
H2481 H 0.626 0.6535 0.74405 0.0
C2482 C 0.67093 0.65103 0.75149 0.0
C2483 C 0.64729 0.64318 0.73104 0.0
C2484 C 0.63894 0.63392 0.71246 0.0
C2485 C 0.6623 0.66076 0.7663 0.0
C2486 C 0.64588 0.66157 0.76369 0.0
C2487 C 0.63857 0.6528 0.74608 0.0
C2488 C 0.63634 0.67194 0.7787 0.0
C2489 C 0.67099 0.67062 0.78392 0.0
C2490 C 0.63666 0.67014 0.80305 0.0
C2491 C 0.63024 0.68158 0.81747 0.0
C2492 C 0.62304 0.69484 0.80779 0.0
C2493 C 0.62146 0.69593 0.78341 0.0
C2494 C 0.62816 0.68457 0.76894 0.0
H2495 H 0.68358 0.67169 0.77952 0.0
H2496 H 0.66593 0.68254 0.78503 0.0
H2497 H 0.67012 0.66509 0.8014 0.0
H2498 H 0.64257 0.66027 0.81092 0.0
H2499 H 0.6314 0.68032 0.83622 0.0
H2500 H 0.30018 0.61438 0.78095 0.0
H2501 H 0.3188 0.62744 0.7549 0.0
H2502 H 0.3316 0.6589 0.81052 0.0
H2503 H 0.31302 0.64613 0.83645 0.0
H2504 H 0.32178 0.67382 0.77031 0.0
H2505 H 0.36685 0.62917 0.75013 0.0
H2506 H 0.34701 0.62286 0.74616 0.0
H2507 H 0.3539 0.6276 0.77494 0.0
C2508 C 0.3072 0.62387 0.78775 0.0
C2509 C 0.30501 0.62931 0.81069 0.0
C2510 C 0.31789 0.63127 0.77289 0.0
C2511 C 0.32664 0.64408 0.78085 0.0
C2512 C 0.32498 0.64902 0.80405 0.0
H2513 H 0.39176 0.70747 0.71149 0.0
H2514 H 0.38008 0.68877 0.73895 0.0
C2515 C 0.31431 0.64172 0.81882 0.0
C2516 C 0.33613 0.65354 0.7645 0.0
H2517 H 0.36733 0.6525 0.7273 0.0
C2518 C 0.33181 0.66918 0.76106 0.0
C2519 C 0.34922 0.64745 0.75249 0.0
C2520 C 0.35465 0.63089 0.7562 0.0
C2521 C 0.34005 0.67883 0.74565 0.0
C2522 C 0.3529 0.67267 0.73329 0.0
C2523 C 0.35743 0.65712 0.73688 0.0
C2524 C 0.3612 0.68226 0.71585 0.0
C2525 C 0.3349 0.69554 0.74241 0.0
C2526 C 0.35453 0.68449 0.69377 0.0
C2527 C 0.36108 0.69513 0.67816 0.0
C2528 C 0.37443 0.70378 0.68436 0.0
C2529 C 0.38147 0.70103 0.7062 0.0
C2530 C 0.37487 0.69033 0.72186 0.0
H2531 H 0.32583 0.69903 0.75524 0.0
H2532 H 0.34505 0.70354 0.74414 0.0
H2533 H 0.33007 0.69704 0.72455 0.0
H2534 H 0.34394 0.67837 0.68893 0.0
H2535 H 0.3554 0.69687 0.66145 0.0
H2536 H 0.35657 0.31439 0.82555 0.0
H2537 H 0.34525 0.33216 0.7968 0.0
H2538 H 0.37639 0.31423 0.74412 0.0
H2539 H 0.38791 0.29634 0.77287 0.0
H2540 H 0.3602 0.35547 0.76307 0.0
H2541 H 0.32955 0.30469 0.72289 0.0
H2542 H 0.33737 0.30394 0.75216 0.0
H2543 H 0.35029 0.30322 0.72755 0.0
C2544 C 0.3612 0.31435 0.80794 0.0
C2545 C 0.37302 0.30382 0.80142 0.0
C2546 C 0.35476 0.32458 0.79159 0.0
C2547 C 0.35992 0.32439 0.76838 0.0
C2548 C 0.37224 0.31447 0.76199 0.0
H2549 H 0.30708 0.3601 0.65014 0.0
H2550 H 0.32808 0.34884 0.67356 0.0
C2551 C 0.3788 0.30428 0.77843 0.0
C2552 C 0.35131 0.3335 0.75062 0.0
H2553 H 0.32364 0.32948 0.70824 0.0
C2554 C 0.35233 0.34984 0.75084 0.0
C2555 C 0.34108 0.32606 0.73479 0.0
C2556 C 0.33935 0.30852 0.73425 0.0
C2557 C 0.34321 0.359 0.73568 0.0
C2558 C 0.33251 0.35157 0.72043 0.0
C2559 C 0.33184 0.33519 0.71988 0.0
C2560 C 0.3213 0.36038 0.70563 0.0
C2561 C 0.3452 0.37649 0.73611 0.0
C2562 C 0.31065 0.37089 0.71572 0.0
C2563 C 0.29873 0.37752 0.70225 0.0
C2564 C 0.29704 0.37348 0.67859 0.0
C2565 C 0.30801 0.36337 0.66837 0.0
C2566 C 0.32004 0.35693 0.68173 0.0
H2567 H 0.35706 0.37981 0.74223 0.0
H2568 H 0.34322 0.38169 0.71859 0.0
H2569 H 0.33663 0.38161 0.74847 0.0
H2570 H 0.3111 0.37342 0.73423 0.0
H2571 H 0.29038 0.38518 0.71066 0.0
H2572 H 0.61478 0.29401 0.72186 0.0
H2573 H 0.62697 0.31232 0.74934 0.0
H2574 H 0.65467 0.33154 0.69343 0.0
H2575 H 0.6427 0.31331 0.66595 0.0
H2576 H 0.66118 0.31228 0.75503 0.0
H2577 H 0.63771 0.37048 0.73026 0.0
H2578 H 0.62757 0.35247 0.72384 0.0
H2579 H 0.64406 0.35825 0.70655 0.0
C2580 C 0.62324 0.30234 0.71535 0.0
C2581 C 0.62786 0.30215 0.69177 0.0
C2582 C 0.63018 0.31278 0.73105 0.0
C2583 C 0.64159 0.32336 0.72332 0.0
C2584 C 0.64572 0.32363 0.69964 0.0
H2585 H 0.71104 0.38441 0.78377 0.0
H2586 H 0.69176 0.3717 0.75833 0.0
C2587 C 0.63894 0.31312 0.68402 0.0
C2588 C 0.65056 0.33279 0.74027 0.0
H2589 H 0.65963 0.3702 0.7558 0.0
C2590 C 0.66071 0.32494 0.75546 0.0
C2591 C 0.65008 0.34928 0.74039 0.0
C2592 C 0.6392 0.35818 0.72452 0.0
C2593 C 0.67075 0.33314 0.7704 0.0
C2594 C 0.67024 0.34968 0.7707 0.0
C2595 C 0.65995 0.35755 0.75563 0.0
C2596 C 0.68056 0.35889 0.78631 0.0
C2597 C 0.68225 0.32398 0.78501 0.0
C2598 C 0.68022 0.3564 0.81052 0.0
C2599 C 0.69132 0.36342 0.82494 0.0
C2600 C 0.70276 0.37336 0.8155 0.0
C2601 C 0.70238 0.37677 0.79149 0.0
C2602 C 0.69139 0.36952 0.77697 0.0
H2603 H 0.68418 0.31208 0.77787 0.0
H2604 H 0.69369 0.33004 0.78603 0.0
H2605 H 0.67758 0.3227 0.80298 0.0
H2606 H 0.67167 0.34862 0.81819 0.0
H2607 H 0.69115 0.36078 0.84345 0.0
H2608 H 0.39306 0.29528 0.21281 0.0
H2609 H 0.38307 0.31544 0.23925 0.0
H2610 H 0.34954 0.32954 0.18716 0.0
H2611 H 0.35942 0.30956 0.16061 0.0
H2612 H 0.36424 0.35512 0.21503 0.0
H2613 H 0.33846 0.30655 0.26707 0.0
H2614 H 0.35907 0.30552 0.2613 0.0
H2615 H 0.34544 0.30382 0.23761 0.0
C2616 C 0.38379 0.30289 0.20678 0.0
C2617 C 0.37688 0.30066 0.18474 0.0
C2618 C 0.3781 0.31438 0.22192 0.0
C2619 C 0.36547 0.32381 0.2152 0.0
C2620 C 0.35929 0.32235 0.19264 0.0
H2621 H 0.29698 0.38501 0.27624 0.0
H2622 H 0.31636 0.37317 0.25024 0.0
C2623 C 0.36491 0.31086 0.17755 0.0
C2624 C 0.35745 0.33388 0.2324 0.0
H2625 H 0.33326 0.33202 0.27956 0.0
C2626 C 0.35757 0.35014 0.22932 0.0
C2627 C 0.3487 0.32729 0.25085 0.0
C2628 C 0.34774 0.30984 0.25444 0.0
C2629 C 0.34916 0.36003 0.24436 0.0
C2630 C 0.34014 0.35338 0.26254 0.0
C2631 C 0.34024 0.33712 0.26571 0.0
C2632 C 0.32997 0.36279 0.27812 0.0
C2633 C 0.35011 0.37744 0.24074 0.0
C2634 C 0.3312 0.36098 0.30242 0.0
C2635 C 0.31999 0.36743 0.3172 0.0
C2636 C 0.30737 0.37595 0.30801 0.0
C2637 C 0.30664 0.37859 0.28381 0.0
C2638 C 0.31778 0.37191 0.26894 0.0
H2639 H 0.36103 0.38078 0.23153 0.0
H2640 H 0.34012 0.38126 0.22979 0.0
H2641 H 0.34958 0.3838 0.25763 0.0
H2642 H 0.34049 0.354 0.3099 0.0
H2643 H 0.32092 0.36531 0.33581 0.0
H2644 H 0.60853 0.29347 0.28868 0.0
H2645 H 0.61912 0.3135 0.26251 0.0
H2646 H 0.65312 0.32618 0.3147 0.0
H2647 H 0.64268 0.30628 0.34097 0.0
H2648 H 0.63798 0.35248 0.28765 0.0
H2649 H 0.66394 0.30474 0.23416 0.0
H2650 H 0.64339 0.30347 0.24044 0.0
H2651 H 0.6573 0.30164 0.26373 0.0
C2652 C 0.61808 0.30069 0.29476 0.0
C2653 C 0.62489 0.29814 0.3168 0.0
C2654 C 0.62411 0.31212 0.27978 0.0
C2655 C 0.63696 0.32118 0.28666 0.0
C2656 C 0.64319 0.31929 0.30912 0.0
H2657 H 0.7046 0.38393 0.2267 0.0
H2658 H 0.6854 0.37163 0.25252 0.0
C2659 C 0.63724 0.30784 0.32404 0.0
C2660 C 0.64496 0.33151 0.26978 0.0
H2661 H 0.66902 0.33041 0.22242 0.0
C2662 C 0.64467 0.34773 0.27323 0.0
C2663 C 0.65371 0.32521 0.25111 0.0
C2664 C 0.65477 0.30782 0.24709 0.0
C2665 C 0.65292 0.35787 0.25834 0.0
C2666 C 0.66195 0.35152 0.23995 0.0
C2667 C 0.66203 0.33529 0.23642 0.0
C2668 C 0.67195 0.36122 0.22449 0.0
C2669 C 0.65174 0.37523 0.26234 0.0
C2670 C 0.67075 0.35958 0.20016 0.0
C2671 C 0.68188 0.3663 0.18548 0.0
C2672 C 0.69436 0.37493 0.1948 0.0
C2673 C 0.69502 0.37744 0.21904 0.0
C2674 C 0.68399 0.37048 0.2338 0.0
H2675 H 0.64078 0.37832 0.27161 0.0
H2676 H 0.66167 0.37907 0.2734 0.0
H2677 H 0.6522 0.38177 0.2456 0.0
H2678 H 0.66157 0.35251 0.19257 0.0
H2679 H 0.68101 0.36426 0.16684 0.0
H2680 H 0.68336 0.63975 0.33018 0.0
H2681 H 0.66429 0.64947 0.30204 0.0
H2682 H 0.68353 0.61929 0.24911 0.0
H2683 H 0.70272 0.60938 0.27729 0.0
H2684 H 0.68278 0.65219 0.23854 0.0
H2685 H 0.62518 0.63073 0.26907 0.0
H2686 H 0.63739 0.63882 0.29157 0.0
H2687 H 0.64336 0.62131 0.27678 0.0
C2688 C 0.68337 0.63494 0.31268 0.0
C2689 C 0.69463 0.62387 0.30591 0.0
C2690 C 0.67236 0.64041 0.29668 0.0
C2691 C 0.67239 0.63496 0.2736 0.0
C2692 C 0.68323 0.6235 0.26695 0.0
H2693 H 0.63259 0.68425 0.15385 0.0
H2694 H 0.64378 0.66319 0.17736 0.0
C2695 C 0.69418 0.61787 0.28305 0.0
C2696 C 0.66258 0.64284 0.2559 0.0
H2697 H 0.6249 0.65229 0.24243 0.0
C2698 C 0.67012 0.652 0.23904 0.0
C2699 C 0.6461 0.6427 0.25692 0.0
C2700 C 0.63748 0.63276 0.27444 0.0
C2701 C 0.66165 0.66165 0.22385 0.0
C2702 C 0.64511 0.66172 0.22502 0.0
C2703 C 0.63755 0.65217 0.24146 0.0
C2704 C 0.63567 0.67245 0.21037 0.0
C2705 C 0.67058 0.67233 0.20763 0.0
C2706 C 0.62635 0.68394 0.22095 0.0
C2707 C 0.61961 0.69579 0.20747 0.0
C2708 C 0.62225 0.69639 0.18326 0.0
C2709 C 0.63056 0.6842 0.17253 0.0
C2710 C 0.63704 0.67222 0.18595 0.0
H2711 H 0.68295 0.6737 0.21312 0.0
H2712 H 0.67053 0.66732 0.18976 0.0
H2713 H 0.66514 0.68409 0.20689 0.0
H2714 H 0.62504 0.68427 0.23977 0.0
H2715 H 0.61324 0.70503 0.2162 0.0
H2716 H 0.29328 0.61548 0.21603 0.0
H2717 H 0.31455 0.62687 0.23904 0.0
H2718 H 0.33476 0.64599 0.17624 0.0
H2719 H 0.31328 0.63515 0.15328 0.0
H2720 H 0.34692 0.62605 0.23972 0.0
H2721 H 0.3254 0.68482 0.21392 0.0
H2722 H 0.31459 0.66724 0.20784 0.0
H2723 H 0.33092 0.67266 0.1898 0.0
C2724 C 0.30241 0.62187 0.20709 0.0
C2725 C 0.30148 0.62468 0.18294 0.0
C2726 C 0.31456 0.62837 0.22025 0.0
C2727 C 0.326 0.63762 0.20941 0.0
C2728 C 0.32581 0.63927 0.18503 0.0
H2729 H 0.39047 0.70384 0.27455 0.0
H2730 H 0.38012 0.68495 0.24633 0.0
C2731 C 0.31356 0.63301 0.17194 0.0
C2732 C 0.33721 0.64667 0.22378 0.0
H2733 H 0.34756 0.68397 0.23802 0.0
C2734 C 0.34716 0.63871 0.23924 0.0
C2735 C 0.33745 0.66321 0.2232 0.0
C2736 C 0.32643 0.67252 0.20798 0.0
C2737 C 0.35722 0.64687 0.25432 0.0
C2738 C 0.35723 0.66337 0.25395 0.0
C2739 C 0.34764 0.6713 0.23804 0.0
C2740 C 0.36571 0.67281 0.27151 0.0
C2741 C 0.36763 0.63782 0.27069 0.0
C2742 C 0.3612 0.67207 0.29502 0.0
C2743 C 0.36695 0.68289 0.31107 0.0
C2744 C 0.37734 0.69468 0.30391 0.0
C2745 C 0.38251 0.69488 0.2806 0.0
C2746 C 0.37663 0.6841 0.26448 0.0
H2747 H 0.36964 0.62573 0.26432 0.0
H2748 H 0.37908 0.64372 0.27291 0.0
H2749 H 0.36195 0.63707 0.28808 0.0
H2750 H 0.35256 0.66365 0.30072 0.0
H2751 H 0.36278 0.68237 0.32892 0.0
loop_
_geom_bond_atom_site_label_1
_geom_bond_atom_site_label_2
_geom_bond_distance
_geom_bond_site_symmetry_2
_ccdc_geom_bond_type
Zn0 O3 2.031 . S
Zn0 O5 2.049 . S
Zn0 O10 2.067 . S
Zn1 O2 1.962 . S
Zn1 O4 1.986 . S
Zn1 O6 1.996 . S
Zn1 O9 1.943 . S
O2 Zn1 1.962 . S
O2 C7 1.254 . S
O3 Zn0 2.031 . S
O3 C7 1.269 . S
O4 Zn1 1.986 . S
O4 C11 1.262 . S
O5 Zn0 2.049 . S
O5 C13 1.260 . S
O6 Zn1 1.996 . S
O6 C13 1.257 . S
C7 O2 1.254 . S
C7 O3 1.269 . S
C8 O9 1.249 . S
C8 O10 1.270 . S
O9 Zn1 1.943 . S
O9 C8 1.249 . S
O10 Zn0 2.067 . S
O10 C8 1.270 . S
C11 O4 1.262 . S
C11 O12 1.232 . S
O12 C11 1.232 . S
C13 O5 1.260 . S
C13 O6 1.257 . S
Zn14 O17 2.031 . S
Zn14 O19 2.049 . S
Zn14 O24 2.067 . S
Zn15 O16 1.962 . S
Zn15 O18 1.986 . S
Zn15 O20 1.996 . S
Zn15 O23 1.943 . S
O16 Zn15 1.962 . S
O16 C21 1.254 . S
O17 Zn14 2.031 . S
O17 C21 1.269 . S
O18 Zn15 1.986 . S
O18 C25 1.262 . S
O19 Zn14 2.049 . S
O19 C27 1.260 . S
O20 Zn15 1.996 . S
O20 C27 1.257 . S
C21 O16 1.254 . S
C21 O17 1.269 . S
C22 O23 1.249 . S
C22 O24 1.270 . S
O23 Zn15 1.943 . S
O23 C22 1.249 . S
O24 Zn14 2.067 . S
O24 C22 1.270 . S
C25 O18 1.262 . S
C25 O26 1.232 . S
O26 C25 1.232 . S
C27 O19 1.260 . S
C27 O20 1.257 . S
Zn28 O31 2.031 . S
Zn28 O33 2.049 . S
Zn28 O38 2.067 . S
Zn29 O30 1.962 . S
Zn29 O32 1.986 . S
Zn29 O34 1.996 . S
Zn29 O37 1.943 . S
O30 Zn29 1.962 . S
O30 C35 1.254 . S
O31 Zn28 2.031 . S
O31 C35 1.269 . S
O32 Zn29 1.986 . S
O32 C39 1.262 . S
O33 Zn28 2.049 . S
O33 C41 1.260 . S
O34 Zn29 1.996 . S
O34 C41 1.257 . S
C35 O30 1.254 . S
C35 O31 1.269 . S
C36 O37 1.249 . S
C36 O38 1.270 . S
O37 Zn29 1.943 . S
O37 C36 1.249 . S
O38 Zn28 2.067 . S
O38 C36 1.270 . S
C39 O32 1.262 . S
C39 O40 1.232 . S
O40 C39 1.232 . S
C41 O33 1.260 . S
C41 O34 1.257 . S
Zn42 O45 2.031 . S
Zn42 O47 2.049 . S
Zn42 O52 2.067 . S
Zn43 O44 1.962 . S
Zn43 O46 1.986 . S
Zn43 O48 1.996 . S
Zn43 O51 1.943 . S
O44 Zn43 1.962 . S
O44 C49 1.254 . S
O45 Zn42 2.031 . S
O45 C49 1.269 . S
O46 Zn43 1.986 . S
O46 C53 1.262 . S
O47 Zn42 2.049 . S
O47 C55 1.260 . S
O48 Zn43 1.996 . S
O48 C55 1.257 . S
C49 O44 1.254 . S
C49 O45 1.269 . S
C50 O51 1.249 . S
C50 O52 1.270 . S
O51 Zn43 1.943 . S
O51 C50 1.249 . S
O52 Zn42 2.067 . S
O52 C50 1.270 . S
C53 O46 1.262 . S
C53 O54 1.232 . S
O54 C53 1.232 . S
C55 O47 1.260 . S
C55 O48 1.257 . S
Zn56 O59 2.031 . S
Zn56 O61 2.049 . S
Zn56 O66 2.067 . S
Zn57 O58 1.962 . S
Zn57 O60 1.986 . S
Zn57 O62 1.996 . S
Zn57 O65 1.943 . S
O58 Zn57 1.962 . S
O58 C63 1.254 . S
O59 Zn56 2.031 . S
O59 C63 1.269 . S
O60 Zn57 1.986 . S
O60 C67 1.262 . S
O61 Zn56 2.049 . S
O61 C69 1.260 . S
O62 Zn57 1.996 . S
O62 C69 1.257 . S
C63 O58 1.254 . S
C63 O59 1.269 . S
C64 O65 1.249 . S
C64 O66 1.270 . S
O65 Zn57 1.943 . S
O65 C64 1.249 . S
O66 Zn56 2.067 . S
O66 C64 1.270 . S
C67 O60 1.262 . S
C67 O68 1.232 . S
O68 C67 1.232 . S
C69 O61 1.260 . S
C69 O62 1.257 . S
Zn70 O73 2.031 . S
Zn70 O75 2.049 . S
Zn70 O80 2.067 . S
Zn71 O72 1.962 . S
Zn71 O74 1.986 . S
Zn71 O76 1.996 . S
Zn71 O79 1.943 . S
O72 Zn71 1.962 . S
O72 C77 1.254 . S
O73 Zn70 2.031 . S
O73 C77 1.269 . S
O74 Zn71 1.986 . S
O74 C81 1.262 . S
O75 Zn70 2.049 . S
O75 C83 1.260 . S
O76 Zn71 1.996 . S
O76 C83 1.257 . S
C77 O72 1.254 . S
C77 O73 1.269 . S
C78 O79 1.249 . S
C78 O80 1.270 . S
O79 Zn71 1.943 . S
O79 C78 1.249 . S
O80 Zn70 2.067 . S
O80 C78 1.270 . S
C81 O74 1.262 . S
C81 O82 1.232 . S
O82 C81 1.232 . S
C83 O75 1.260 . S
C83 O76 1.257 . S
Zn84 O87 2.031 . S
Zn84 O89 2.049 . S
Zn84 O94 2.067 . S
Zn85 O86 1.962 . S
Zn85 O88 1.986 . S
Zn85 O90 1.996 . S
Zn85 O93 1.943 . S
O86 Zn85 1.962 . S
O86 C91 1.254 . S
O87 Zn84 2.031 . S
O87 C91 1.269 . S
O88 Zn85 1.986 . S
O88 C95 1.262 . S
O89 Zn84 2.049 . S
O89 C97 1.260 . S
O90 Zn85 1.996 . S
O90 C97 1.257 . S
C91 O86 1.254 . S
C91 O87 1.269 . S
C92 O93 1.249 . S
C92 O94 1.270 . S
O93 Zn85 1.943 . S
O93 C92 1.249 . S
O94 Zn84 2.067 . S
O94 C92 1.270 . S
C95 O88 1.262 . S
C95 O96 1.232 . S
O96 C95 1.232 . S
C97 O89 1.260 . S
C97 O90 1.257 . S
Zn98 O101 2.031 . S
Zn98 O103 2.049 . S
Zn98 O108 2.067 . S
Zn99 O100 1.962 . S
Zn99 O102 1.986 . S
Zn99 O104 1.996 . S
Zn99 O107 1.943 . S
O100 Zn99 1.962 . S
O100 C105 1.254 . S
O101 Zn98 2.031 . S
O101 C105 1.269 . S
O102 Zn99 1.986 . S
O102 C109 1.262 . S
O103 Zn98 2.049 . S
O103 C111 1.260 . S
O104 Zn99 1.996 . S
O104 C111 1.257 . S
C105 O100 1.254 . S
C105 O101 1.269 . S
C106 O107 1.249 . S
C106 O108 1.270 . S
O107 Zn99 1.943 . S
O107 C106 1.249 . S
O108 Zn98 2.067 . S
O108 C106 1.270 . S
C109 O102 1.262 . S
C109 O110 1.232 . S
O110 C109 1.232 . S
C111 O103 1.260 . S
C111 O104 1.257 . S
Zn112 O115 2.031 . S
Zn112 O117 2.049 . S
Zn112 O122 2.067 . S
Zn113 O114 1.962 . S
Zn113 O116 1.986 . S
Zn113 O118 1.996 . S
Zn113 O121 1.943 . S
O114 Zn113 1.962 . S
O114 C119 1.254 . S
O115 Zn112 2.031 . S
O115 C119 1.269 . S
O116 Zn113 1.986 . S
O116 C123 1.262 . S
O117 Zn112 2.049 . S
O117 C125 1.260 . S
O118 Zn113 1.996 . S
O118 C125 1.257 . S
C119 O114 1.254 . S
C119 O115 1.269 . S
C120 O121 1.249 . S
C120 O122 1.270 . S
O121 Zn113 1.943 . S
O121 C120 1.249 . S
O122 Zn112 2.067 . S
O122 C120 1.270 . S
C123 O116 1.262 . S
C123 O124 1.232 . S
O124 C123 1.232 . S
C125 O117 1.260 . S
C125 O118 1.257 . S
Zn126 O129 2.031 . S
Zn126 O131 2.049 . S
Zn126 O136 2.067 . S
Zn127 O128 1.962 . S
Zn127 O130 1.986 . S
Zn127 O132 1.996 . S
Zn127 O135 1.943 . S
O128 Zn127 1.962 . S
O128 C133 1.254 . S
O129 Zn126 2.031 . S
O129 C133 1.269 . S
O130 Zn127 1.986 . S
O130 C137 1.262 . S
O131 Zn126 2.049 . S
O131 C139 1.260 . S
O132 Zn127 1.996 . S
O132 C139 1.257 . S
C133 O128 1.254 . S
C133 O129 1.269 . S
C134 O135 1.249 . S
C134 O136 1.270 . S
O135 Zn127 1.943 . S
O135 C134 1.249 . S
O136 Zn126 2.067 . S
O136 C134 1.270 . S
C137 O130 1.262 . S
C137 O138 1.232 . S
O138 C137 1.232 . S
C139 O131 1.260 . S
C139 O132 1.257 . S
Zn140 O143 2.031 . S
Zn140 O145 2.049 . S
Zn140 O150 2.067 . S
Zn141 O142 1.962 . S
Zn141 O144 1.986 . S
Zn141 O146 1.996 . S
Zn141 O149 1.943 . S
O142 Zn141 1.962 . S
O142 C147 1.254 . S
O143 Zn140 2.031 . S
O143 C147 1.269 . S
O144 Zn141 1.986 . S
O144 C151 1.262 . S
O145 Zn140 2.049 . S
O145 C153 1.260 . S
O146 Zn141 1.996 . S
O146 C153 1.257 . S
C147 O142 1.254 . S
C147 O143 1.269 . S
C148 O149 1.249 . S
C148 O150 1.270 . S
O149 Zn141 1.943 . S
O149 C148 1.249 . S
O150 Zn140 2.067 . S
O150 C148 1.270 . S
C151 O144 1.262 . S
C151 O152 1.232 . S
O152 C151 1.232 . S
C153 O145 1.260 . S
C153 O146 1.257 . S
Zn154 O157 2.031 . S
Zn154 O159 2.049 . S
Zn154 O164 2.067 . S
Zn155 O156 1.962 . S
Zn155 O158 1.986 . S
Zn155 O160 1.996 . S
Zn155 O163 1.943 . S
O156 Zn155 1.962 . S
O156 C161 1.254 . S
O157 Zn154 2.031 . S
O157 C161 1.269 . S
O158 Zn155 1.986 . S
O158 C165 1.262 . S
O159 Zn154 2.049 . S
O159 C167 1.260 . S
O160 Zn155 1.996 . S
O160 C167 1.257 . S
C161 O156 1.254 . S
C161 O157 1.269 . S
C162 O163 1.249 . S
C162 O164 1.270 . S
O163 Zn155 1.943 . S
O163 C162 1.249 . S
O164 Zn154 2.067 . S
O164 C162 1.270 . S
C165 O158 1.262 . S
C165 O166 1.232 . S
O166 C165 1.232 . S
C167 O159 1.260 . S
C167 O160 1.257 . S
Zn168 O171 2.031 . S
Zn168 O173 2.049 . S
Zn168 O178 2.067 . S
Zn169 O170 1.962 . S
Zn169 O172 1.986 . S
Zn169 O174 1.996 . S
Zn169 O177 1.943 . S
O170 Zn169 1.962 . S
O170 C175 1.254 . S
O171 Zn168 2.031 . S
O171 C175 1.269 . S
O172 Zn169 1.986 . S
O172 C179 1.262 . S
O173 Zn168 2.049 . S
O173 C181 1.260 . S
O174 Zn169 1.996 . S
O174 C181 1.257 . S
C175 O170 1.254 . S
C175 O171 1.269 . S
C176 O177 1.249 . S
C176 O178 1.270 . S
O177 Zn169 1.943 . S
O177 C176 1.249 . S
O178 Zn168 2.067 . S
O178 C176 1.270 . S
C179 O172 1.262 . S
C179 O180 1.232 . S
O180 C179 1.232 . S
C181 O173 1.260 . S
C181 O174 1.257 . S
Zn182 O185 2.031 . S
Zn182 O187 2.049 . S
Zn182 O192 2.067 . S
Zn183 O184 1.962 . S
Zn183 O186 1.986 . S
Zn183 O188 1.996 . S
Zn183 O191 1.943 . S
O184 Zn183 1.962 . S
O184 C189 1.254 . S
O185 Zn182 2.031 . S
O185 C189 1.269 . S
O186 Zn183 1.986 . S
O186 C193 1.262 . S
O187 Zn182 2.049 . S
O187 C195 1.260 . S
O188 Zn183 1.996 . S
O188 C195 1.257 . S
C189 O184 1.254 . S
C189 O185 1.269 . S
C190 O191 1.249 . S
C190 O192 1.270 . S
O191 Zn183 1.943 . S
O191 C190 1.249 . S
O192 Zn182 2.067 . S
O192 C190 1.270 . S
C193 O186 1.262 . S
C193 O194 1.232 . S
O194 C193 1.232 . S
C195 O187 1.260 . S
C195 O188 1.257 . S
Zn196 O199 2.031 . S
Zn196 O201 2.049 . S
Zn196 O206 2.067 . S
Zn197 O198 1.962 . S
Zn197 O200 1.986 . S
Zn197 O202 1.996 . S
Zn197 O205 1.943 . S
O198 Zn197 1.962 . S
O198 C203 1.254 . S
O199 Zn196 2.031 . S
O199 C203 1.269 . S
O200 Zn197 1.986 . S
O200 C207 1.262 . S
O201 Zn196 2.049 . S
O201 C209 1.260 . S
O202 Zn197 1.996 . S
O202 C209 1.257 . S
C203 O198 1.254 . S
C203 O199 1.269 . S
C204 O205 1.249 . S
C204 O206 1.270 . S
O205 Zn197 1.943 . S
O205 C204 1.249 . S
O206 Zn196 2.067 . S
O206 C204 1.270 . S
C207 O200 1.262 . S
C207 O208 1.232 . S
O208 C207 1.232 . S
C209 O201 1.260 . S
C209 O202 1.257 . S
Zn210 O213 2.031 . S
Zn210 O215 2.049 . S
Zn210 O220 2.067 . S
Zn211 O212 1.962 . S
Zn211 O214 1.986 . S
Zn211 O216 1.996 . S
Zn211 O219 1.943 . S
O212 Zn211 1.962 . S
O212 C217 1.254 . S
O213 Zn210 2.031 . S
O213 C217 1.269 . S
O214 Zn211 1.986 . S
O214 C221 1.262 . S
O215 Zn210 2.049 . S
O215 C223 1.260 . S
O216 Zn211 1.996 . S
O216 C223 1.257 . S
C217 O212 1.254 . S
C217 O213 1.269 . S
C218 O219 1.249 . S
C218 O220 1.270 . S
O219 Zn211 1.943 . S
O219 C218 1.249 . S
O220 Zn210 2.067 . S
O220 C218 1.270 . S
C221 O214 1.262 . S
C221 O222 1.232 . S
O222 C221 1.232 . S
C223 O215 1.260 . S
C223 O216 1.257 . S
Zn224 O227 2.031 . S
Zn224 O229 2.049 . S
Zn224 O234 2.067 . S
Zn225 O226 1.962 . S
Zn225 O228 1.986 . S
Zn225 O230 1.996 . S
Zn225 O233 1.943 . S
O226 Zn225 1.962 . S
O226 C231 1.254 . S
O227 Zn224 2.031 . S
O227 C231 1.269 . S
O228 Zn225 1.986 . S
O228 C235 1.262 . S
O229 Zn224 2.049 . S
O229 C237 1.260 . S
O230 Zn225 1.996 . S
O230 C237 1.257 . S
C231 O226 1.254 . S
C231 O227 1.269 . S
C232 O233 1.249 . S
C232 O234 1.270 . S
O233 Zn225 1.943 . S
O233 C232 1.249 . S
O234 Zn224 2.067 . S
O234 C232 1.270 . S
C235 O228 1.262 . S
C235 O236 1.232 . S
O236 C235 1.232 . S
C237 O229 1.260 . S
C237 O230 1.257 . S
Zn238 O241 2.031 . S
Zn238 O243 2.049 . S
Zn238 O248 2.067 . S
Zn239 O240 1.962 . S
Zn239 O242 1.986 . S
Zn239 O244 1.996 . S
Zn239 O247 1.943 . S
O240 Zn239 1.962 . S
O240 C245 1.254 . S
O241 Zn238 2.031 . S
O241 C245 1.269 . S
O242 Zn239 1.986 . S
O242 C249 1.262 . S
O243 Zn238 2.049 . S
O243 C251 1.260 . S
O244 Zn239 1.996 . S
O244 C251 1.257 . S
C245 O240 1.254 . S
C245 O241 1.269 . S
C246 O247 1.249 . S
C246 O248 1.270 . S
O247 Zn239 1.943 . S
O247 C246 1.249 . S
O248 Zn238 2.067 . S
O248 C246 1.270 . S
C249 O242 1.262 . S
C249 O250 1.232 . S
O250 C249 1.232 . S
C251 O243 1.260 . S
C251 O244 1.257 . S
Zn252 O255 2.031 . S
Zn252 O257 2.049 . S
Zn252 O262 2.067 . S
Zn253 O254 1.962 . S
Zn253 O256 1.986 . S
Zn253 O258 1.996 . S
Zn253 O261 1.943 . S
O254 Zn253 1.962 . S
O254 C259 1.254 . S
O255 Zn252 2.031 . S
O255 C259 1.269 . S
O256 Zn253 1.986 . S
O256 C263 1.262 . S
O257 Zn252 2.049 . S
O257 C265 1.260 . S
O258 Zn253 1.996 . S
O258 C265 1.257 . S
C259 O254 1.254 . S
C259 O255 1.269 . S
C260 O261 1.249 . S
C260 O262 1.270 . S
O261 Zn253 1.943 . S
O261 C260 1.249 . S
O262 Zn252 2.067 . S
O262 C260 1.270 . S
C263 O256 1.262 . S
C263 O264 1.232 . S
O264 C263 1.232 . S
C265 O257 1.260 . S
C265 O258 1.257 . S
Zn266 O269 2.031 . S
Zn266 O271 2.049 . S
Zn266 O276 2.067 . S
Zn267 O268 1.962 . S
Zn267 O270 1.986 . S
Zn267 O272 1.996 . S
Zn267 O275 1.943 . S
O268 Zn267 1.962 . S
O268 C273 1.254 . S
O269 Zn266 2.031 . S
O269 C273 1.269 . S
O270 Zn267 1.986 . S
O270 C277 1.262 . S
O271 Zn266 2.049 . S
O271 C279 1.260 . S
O272 Zn267 1.996 . S
O272 C279 1.257 . S
C273 O268 1.254 . S
C273 O269 1.269 . S
C274 O275 1.249 . S
C274 O276 1.270 . S
O275 Zn267 1.943 . S
O275 C274 1.249 . S
O276 Zn266 2.067 . S
O276 C274 1.270 . S
C277 O270 1.262 . S
C277 O278 1.232 . S
O278 C277 1.232 . S
C279 O271 1.260 . S
C279 O272 1.257 . S
Zn280 O283 2.031 . S
Zn280 O285 2.049 . S
Zn280 O290 2.067 . S
Zn281 O282 1.962 . S
Zn281 O284 1.986 . S
Zn281 O286 1.996 . S
Zn281 O289 1.943 . S
O282 Zn281 1.962 . S
O282 C287 1.254 . S
O283 Zn280 2.031 . S
O283 C287 1.269 . S
O284 Zn281 1.986 . S
O284 C291 1.262 . S
O285 Zn280 2.049 . S
O285 C293 1.260 . S
O286 Zn281 1.996 . S
O286 C293 1.257 . S
C287 O282 1.254 . S
C287 O283 1.269 . S
C288 O289 1.249 . S
C288 O290 1.270 . S
O289 Zn281 1.943 . S
O289 C288 1.249 . S
O290 Zn280 2.067 . S
O290 C288 1.270 . S
C291 O284 1.262 . S
C291 O292 1.232 . S
O292 C291 1.232 . S
C293 O285 1.260 . S
C293 O286 1.257 . S
Zn294 O297 2.031 . S
Zn294 O299 2.049 . S
Zn294 O304 2.067 . S
Zn295 O296 1.962 . S
Zn295 O298 1.986 . S
Zn295 O300 1.996 . S
Zn295 O303 1.943 . S
O296 Zn295 1.962 . S
O296 C301 1.254 . S
O297 Zn294 2.031 . S
O297 C301 1.269 . S
O298 Zn295 1.986 . S
O298 C305 1.262 . S
O299 Zn294 2.049 . S
O299 C307 1.260 . S
O300 Zn295 1.996 . S
O300 C307 1.257 . S
C301 O296 1.254 . S
C301 O297 1.269 . S
C302 O303 1.249 . S
C302 O304 1.270 . S
O303 Zn295 1.943 . S
O303 C302 1.249 . S
O304 Zn294 2.067 . S
O304 C302 1.270 . S
C305 O298 1.262 . S
C305 O306 1.232 . S
O306 C305 1.232 . S
C307 O299 1.260 . S
C307 O300 1.257 . S
Zn308 O311 2.031 . S
Zn308 O313 2.049 . S
Zn308 O318 2.067 . S
Zn309 O310 1.962 . S
Zn309 O312 1.986 . S
Zn309 O314 1.996 . S
Zn309 O317 1.943 . S
O310 Zn309 1.962 . S
O310 C315 1.254 . S
O311 Zn308 2.031 . S
O311 C315 1.269 . S
O312 Zn309 1.986 . S
O312 C319 1.262 . S
O313 Zn308 2.049 . S
O313 C321 1.260 . S
O314 Zn309 1.996 . S
O314 C321 1.257 . S
C315 O310 1.254 . S
C315 O311 1.269 . S
C316 O317 1.249 . S
C316 O318 1.270 . S
O317 Zn309 1.943 . S
O317 C316 1.249 . S
O318 Zn308 2.067 . S
O318 C316 1.270 . S
C319 O312 1.262 . S
C319 O320 1.232 . S
O320 C319 1.232 . S
C321 O313 1.260 . S
C321 O314 1.257 . S
Zn322 O325 2.031 . S
Zn322 O327 2.049 . S
Zn322 O332 2.067 . S
Zn323 O324 1.962 . S
Zn323 O326 1.986 . S
Zn323 O328 1.996 . S
Zn323 O331 1.943 . S
O324 Zn323 1.962 . S
O324 C329 1.254 . S
O325 Zn322 2.031 . S
O325 C329 1.269 . S
O326 Zn323 1.986 . S
O326 C333 1.262 . S
O327 Zn322 2.049 . S
O327 C335 1.260 . S
O328 Zn323 1.996 . S
O328 C335 1.257 . S
C329 O324 1.254 . S
C329 O325 1.269 . S
C330 O331 1.249 . S
C330 O332 1.270 . S
O331 Zn323 1.943 . S
O331 C330 1.249 . S
O332 Zn322 2.067 . S
O332 C330 1.270 . S
C333 O326 1.262 . S
C333 O334 1.232 . S
O334 C333 1.232 . S
C335 O327 1.260 . S
C335 O328 1.257 . S
Zn336 O339 2.031 . S
Zn336 O341 2.049 . S
Zn336 O346 2.067 . S
Zn337 O338 1.962 . S
Zn337 O340 1.986 . S
Zn337 O342 1.996 . S
Zn337 O345 1.943 . S
O338 Zn337 1.962 . S
O338 C343 1.254 . S
O339 Zn336 2.031 . S
O339 C343 1.269 . S
O340 Zn337 1.986 . S
O340 C347 1.262 . S
O341 Zn336 2.049 . S
O341 C349 1.260 . S
O342 Zn337 1.996 . S
O342 C349 1.257 . S
C343 O338 1.254 . S
C343 O339 1.269 . S
C344 O345 1.249 . S
C344 O346 1.270 . S
O345 Zn337 1.943 . S
O345 C344 1.249 . S
O346 Zn336 2.067 . S
O346 C344 1.270 . S
C347 O340 1.262 . S
C347 O348 1.232 . S
O348 C347 1.232 . S
C349 O341 1.260 . S
C349 O342 1.257 . S
Zn350 O353 2.031 . S
Zn350 O355 2.049 . S
Zn350 O360 2.067 . S
Zn351 O352 1.962 . S
Zn351 O354 1.986 . S
Zn351 O356 1.996 . S
Zn351 O359 1.943 . S
O352 Zn351 1.962 . S
O352 C357 1.254 . S
O353 Zn350 2.031 . S
O353 C357 1.269 . S
O354 Zn351 1.986 . S
O354 C361 1.262 . S
O355 Zn350 2.049 . S
O355 C363 1.260 . S
O356 Zn351 1.996 . S
O356 C363 1.257 . S
C357 O352 1.254 . S
C357 O353 1.269 . S
C358 O359 1.249 . S
C358 O360 1.270 . S
O359 Zn351 1.943 . S
O359 C358 1.249 . S
O360 Zn350 2.067 . S
O360 C358 1.270 . S
C361 O354 1.262 . S
C361 O362 1.232 . S
O362 C361 1.232 . S
C363 O355 1.260 . S
C363 O356 1.257 . S
Zn364 O367 2.031 . S
Zn364 O369 2.049 . S
Zn364 O374 2.067 . S
Zn365 O366 1.962 . S
Zn365 O368 1.986 . S
Zn365 O370 1.996 . S
Zn365 O373 1.943 . S
O366 Zn365 1.962 . S
O366 C371 1.254 . S
O367 Zn364 2.031 . S
O367 C371 1.269 . S
O368 Zn365 1.986 . S
O368 C375 1.262 . S
O369 Zn364 2.049 . S
O369 C377 1.260 . S
O370 Zn365 1.996 . S
O370 C377 1.257 . S
C371 O366 1.254 . S
C371 O367 1.269 . S
C372 O373 1.249 . S
C372 O374 1.270 . S
O373 Zn365 1.943 . S
O373 C372 1.249 . S
O374 Zn364 2.067 . S
O374 C372 1.270 . S
C375 O368 1.262 . S
C375 O376 1.232 . S
O376 C375 1.232 . S
C377 O369 1.260 . S
C377 O370 1.257 . S
Zn378 O381 2.031 . S
Zn378 O383 2.049 . S
Zn378 O388 2.067 . S
Zn379 O380 1.962 . S
Zn379 O382 1.986 . S
Zn379 O384 1.996 . S
Zn379 O387 1.943 . S
O380 Zn379 1.962 . S
O380 C385 1.254 . S
O381 Zn378 2.031 . S
O381 C385 1.269 . S
O382 Zn379 1.986 . S
O382 C389 1.262 . S
O383 Zn378 2.049 . S
O383 C391 1.260 . S
O384 Zn379 1.996 . S
O384 C391 1.257 . S
C385 O380 1.254 . S
C385 O381 1.269 . S
C386 O387 1.249 . S
C386 O388 1.270 . S
O387 Zn379 1.943 . S
O387 C386 1.249 . S
O388 Zn378 2.067 . S
O388 C386 1.270 . S
C389 O382 1.262 . S
C389 O390 1.232 . S
O390 C389 1.232 . S
C391 O383 1.260 . S
C391 O384 1.257 . S
Zn392 O395 2.031 . S
Zn392 O397 2.049 . S
Zn392 O402 2.067 . S
Zn393 O394 1.962 . S
Zn393 O396 1.986 . S
Zn393 O398 1.996 . S
Zn393 O401 1.943 . S
O394 Zn393 1.962 . S
O394 C399 1.254 . S
O395 Zn392 2.031 . S
O395 C399 1.269 . S
O396 Zn393 1.986 . S
O396 C403 1.262 . S
O397 Zn392 2.049 . S
O397 C405 1.260 . S
O398 Zn393 1.996 . S
O398 C405 1.257 . S
C399 O394 1.254 . S
C399 O395 1.269 . S
C400 O401 1.249 . S
C400 O402 1.270 . S
O401 Zn393 1.943 . S
O401 C400 1.249 . S
O402 Zn392 2.067 . S
O402 C400 1.270 . S
C403 O396 1.262 . S
C403 O404 1.232 . S
O404 C403 1.232 . S
C405 O397 1.260 . S
C405 O398 1.257 . S
Zn406 O409 2.031 . S
Zn406 O411 2.049 . S
Zn406 O416 2.067 . S
Zn407 O408 1.962 . S
Zn407 O410 1.986 . S
Zn407 O412 1.996 . S
Zn407 O415 1.943 . S
O408 Zn407 1.962 . S
O408 C413 1.254 . S
O409 Zn406 2.031 . S
O409 C413 1.269 . S
O410 Zn407 1.986 . S
O410 C417 1.262 . S
O411 Zn406 2.049 . S
O411 C419 1.260 . S
O412 Zn407 1.996 . S
O412 C419 1.257 . S
C413 O408 1.254 . S
C413 O409 1.269 . S
C414 O415 1.249 . S
C414 O416 1.270 . S
O415 Zn407 1.943 . S
O415 C414 1.249 . S
O416 Zn406 2.067 . S
O416 C414 1.270 . S
C417 O410 1.262 . S
C417 O418 1.232 . S
O418 C417 1.232 . S
C419 O411 1.260 . S
C419 O412 1.257 . S
Zn420 O423 2.031 . S
Zn420 O425 2.049 . S
Zn420 O430 2.067 . S
Zn421 O422 1.962 . S
Zn421 O424 1.986 . S
Zn421 O426 1.996 . S
Zn421 O429 1.943 . S
O422 Zn421 1.962 . S
O422 C427 1.254 . S
O423 Zn420 2.031 . S
O423 C427 1.269 . S
O424 Zn421 1.986 . S
O424 C431 1.262 . S
O425 Zn420 2.049 . S
O425 C433 1.260 . S
O426 Zn421 1.996 . S
O426 C433 1.257 . S
C427 O422 1.254 . S
C427 O423 1.269 . S
C428 O429 1.249 . S
C428 O430 1.270 . S
O429 Zn421 1.943 . S
O429 C428 1.249 . S
O430 Zn420 2.067 . S
O430 C428 1.270 . S
C431 O424 1.262 . S
C431 O432 1.232 . S
O432 C431 1.232 . S
C433 O425 1.260 . S
C433 O426 1.257 . S
Zn434 O437 2.031 . S
Zn434 O439 2.049 . S
Zn434 O444 2.067 . S
Zn435 O436 1.962 . S
Zn435 O438 1.986 . S
Zn435 O440 1.996 . S
Zn435 O443 1.943 . S
O436 Zn435 1.962 . S
O436 C441 1.254 . S
O437 Zn434 2.031 . S
O437 C441 1.269 . S
O438 Zn435 1.986 . S
O438 C445 1.262 . S
O439 Zn434 2.049 . S
O439 C447 1.260 . S
O440 Zn435 1.996 . S
O440 C447 1.257 . S
C441 O436 1.254 . S
C441 O437 1.269 . S
C442 O443 1.249 . S
C442 O444 1.270 . S
O443 Zn435 1.943 . S
O443 C442 1.249 . S
O444 Zn434 2.067 . S
O444 C442 1.270 . S
C445 O438 1.262 . S
C445 O446 1.232 . S
O446 C445 1.232 . S
C447 O439 1.260 . S
C447 O440 1.257 . S
H448 C456 0.929 . S
H449 C458 0.930 . S
H450 C460 0.930 . S
H451 C463 0.929 . S
H452 C466 0.930 . S
H453 C468 0.960 . S
H454 C468 0.960 . S
H455 C468 0.960 . S
C456 H448 0.929 . S
C456 C457 1.377 . S
C456 C458 1.384 . S
C457 C456 1.377 . S
C457 C463 1.390 . S
C458 H449 0.930 . S
C458 C456 1.384 . S
C458 C459 1.372 . S
C459 C458 1.372 . S
C459 C460 1.400 . S
C459 C464 1.490 . S
C460 H450 0.930 . S
C460 C459 1.400 . S
C460 C463 1.386 . S
H461 C477 0.930 . S
H462 C478 0.931 . S
C463 H451 0.929 . S
C463 C457 1.390 . S
C463 C460 1.386 . S
C464 C459 1.490 . S
C464 C466 1.395 . S
C464 C467 1.403 . S
H465 C471 0.930 . S
C466 H452 0.930 . S
C466 C464 1.395 . S
C466 C469 1.403 . S
C467 C464 1.403 . S
C467 C468 1.524 . S
C467 C471 1.400 . S
C468 H453 0.960 . S
C468 H454 0.960 . S
C468 H455 0.960 . S
C468 C467 1.524 . S
C469 C466 1.403 . S
C469 C470 1.392 . S
C469 C473 1.495 . S
C470 C469 1.392 . S
C470 C471 1.385 . S
C470 C472 1.478 . S
C471 H465 0.930 . S
C471 C467 1.400 . S
C471 C470 1.385 . S
C472 C470 1.478 . S
C472 C474 1.381 . S
C472 C478 1.383 . S
C473 C469 1.495 . S
C473 H479 0.959 . S
C473 H480 0.961 . S
C473 H481 0.960 . S
C474 C472 1.381 . S
C474 C475 1.394 . S
C474 H482 0.930 . S
C475 C474 1.394 . S
C475 C476 1.383 . S
C475 H483 0.929 . S
C476 C475 1.383 . S
C476 C477 1.377 . S
C477 H461 0.930 . S
C477 C476 1.377 . S
C477 C478 1.379 . S
C478 H462 0.931 . S
C478 C472 1.383 . S
C478 C477 1.379 . S
H479 C473 0.959 . S
H480 C473 0.961 . S
H481 C473 0.960 . S
H482 C474 0.930 . S
H483 C475 0.929 . S
H484 C492 0.929 . S
H485 C494 0.930 . S
H486 C496 0.930 . S
H487 C499 0.929 . S
H488 C502 0.930 . S
H489 C504 0.960 . S
H490 C504 0.960 . S
H491 C504 0.960 . S
C492 H484 0.929 . S
C492 C493 1.377 . S
C492 C494 1.384 . S
C493 C492 1.377 . S
C493 C499 1.390 . S
C494 H485 0.930 . S
C494 C492 1.384 . S
C494 C495 1.372 . S
C495 C494 1.372 . S
C495 C496 1.400 . S
C495 C500 1.490 . S
C496 H486 0.930 . S
C496 C495 1.400 . S
C496 C499 1.386 . S
H497 C513 0.930 . S
H498 C514 0.931 . S
C499 H487 0.929 . S
C499 C493 1.390 . S
C499 C496 1.386 . S
C500 C495 1.490 . S
C500 C502 1.395 . S
C500 C503 1.403 . S
H501 C507 0.930 . S
C502 H488 0.930 . S
C502 C500 1.395 . S
C502 C505 1.403 . S
C503 C500 1.403 . S
C503 C504 1.524 . S
C503 C507 1.400 . S
C504 H489 0.960 . S
C504 H490 0.960 . S
C504 H491 0.960 . S
C504 C503 1.524 . S
C505 C502 1.403 . S
C505 C506 1.392 . S
C505 C509 1.495 . S
C506 C505 1.392 . S
C506 C507 1.385 . S
C506 C508 1.478 . S
C507 H501 0.930 . S
C507 C503 1.400 . S
C507 C506 1.385 . S
C508 C506 1.478 . S
C508 C510 1.381 . S
C508 C514 1.383 . S
C509 C505 1.495 . S
C509 H515 0.959 . S
C509 H516 0.961 . S
C509 H517 0.960 . S
C510 C508 1.381 . S
C510 C511 1.394 . S
C510 H518 0.930 . S
C511 C510 1.394 . S
C511 C512 1.383 . S
C511 H519 0.929 . S
C512 C511 1.383 . S
C512 C513 1.377 . S
C513 H497 0.930 . S
C513 C512 1.377 . S
C513 C514 1.379 . S
C514 H498 0.931 . S
C514 C508 1.383 . S
C514 C513 1.379 . S
H515 C509 0.959 . S
H516 C509 0.961 . S
H517 C509 0.960 . S
H518 C510 0.930 . S
H519 C511 0.929 . S
H520 C528 0.929 . S
H521 C530 0.930 . S
H522 C532 0.930 . S
H523 C535 0.929 . S
H524 C538 0.930 . S
H525 C540 0.960 . S
H526 C540 0.960 . S
H527 C540 0.960 . S
C528 H520 0.929 . S
C528 C529 1.377 . S
C528 C530 1.384 . S
C529 C528 1.377 . S
C529 C535 1.390 . S
C530 H521 0.930 . S
C530 C528 1.384 . S
C530 C531 1.372 . S
C531 C530 1.372 . S
C531 C532 1.400 . S
C531 C536 1.490 . S
C532 H522 0.930 . S
C532 C531 1.400 . S
C532 C535 1.386 . S
H533 C549 0.930 . S
H534 C550 0.931 . S
C535 H523 0.929 . S
C535 C529 1.390 . S
C535 C532 1.386 . S
C536 C531 1.490 . S
C536 C538 1.395 . S
C536 C539 1.403 . S
H537 C543 0.930 . S
C538 H524 0.930 . S
C538 C536 1.395 . S
C538 C541 1.403 . S
C539 C536 1.403 . S
C539 C540 1.524 . S
C539 C543 1.400 . S
C540 H525 0.960 . S
C540 H526 0.960 . S
C540 H527 0.960 . S
C540 C539 1.524 . S
C541 C538 1.403 . S
C541 C542 1.392 . S
C541 C545 1.495 . S
C542 C541 1.392 . S
C542 C543 1.385 . S
C542 C544 1.478 . S
C543 H537 0.930 . S
C543 C539 1.400 . S
C543 C542 1.385 . S
C544 C542 1.478 . S
C544 C546 1.381 . S
C544 C550 1.383 . S
C545 C541 1.495 . S
C545 H551 0.959 . S
C545 H552 0.961 . S
C545 H553 0.960 . S
C546 C544 1.381 . S
C546 C547 1.394 . S
C546 H554 0.930 . S
C547 C546 1.394 . S
C547 C548 1.383 . S
C547 H555 0.929 . S
C548 C547 1.383 . S
C548 C549 1.377 . S
C549 H533 0.930 . S
C549 C548 1.377 . S
C549 C550 1.379 . S
C550 H534 0.931 . S
C550 C544 1.383 . S
C550 C549 1.379 . S
H551 C545 0.959 . S
H552 C545 0.961 . S
H553 C545 0.960 . S
H554 C546 0.930 . S
H555 C547 0.929 . S
H556 C564 0.929 . S
H557 C566 0.930 . S
H558 C568 0.930 . S
H559 C571 0.929 . S
H560 C574 0.930 . S
H561 C576 0.960 . S
H562 C576 0.960 . S
H563 C576 0.960 . S
C564 H556 0.929 . S
C564 C565 1.377 . S
C564 C566 1.384 . S
C565 C564 1.377 . S
C565 C571 1.390 . S
C566 H557 0.930 . S
C566 C564 1.384 . S
C566 C567 1.372 . S
C567 C566 1.372 . S
C567 C568 1.400 . S
C567 C572 1.490 . S
C568 H558 0.930 . S
C568 C567 1.400 . S
C568 C571 1.386 . S
H569 C585 0.930 . S
H570 C586 0.931 . S
C571 H559 0.929 . S
C571 C565 1.390 . S
C571 C568 1.386 . S
C572 C567 1.490 . S
C572 C574 1.395 . S
C572 C575 1.403 . S
H573 C579 0.930 . S
C574 H560 0.930 . S
C574 C572 1.395 . S
C574 C577 1.403 . S
C575 C572 1.403 . S
C575 C576 1.524 . S
C575 C579 1.400 . S
C576 H561 0.960 . S
C576 H562 0.960 . S
C576 H563 0.960 . S
C576 C575 1.524 . S
C577 C574 1.403 . S
C577 C578 1.392 . S
C577 C581 1.495 . S
C578 C577 1.392 . S
C578 C579 1.385 . S
C578 C580 1.478 . S
C579 H573 0.930 . S
C579 C575 1.400 . S
C579 C578 1.385 . S
C580 C578 1.478 . S
C580 C582 1.381 . S
C580 C586 1.383 . S
C581 C577 1.495 . S
C581 H587 0.959 . S
C581 H588 0.961 . S
C581 H589 0.960 . S
C582 C580 1.381 . S
C582 C583 1.394 . S
C582 H590 0.930 . S
C583 C582 1.394 . S
C583 C584 1.383 . S
C583 H591 0.929 . S
C584 C583 1.383 . S
C584 C585 1.377 . S
C585 H569 0.930 . S
C585 C584 1.377 . S
C585 C586 1.379 . S
C586 H570 0.931 . S
C586 C580 1.383 . S
C586 C585 1.379 . S
H587 C581 0.959 . S
H588 C581 0.961 . S
H589 C581 0.960 . S
H590 C582 0.930 . S
H591 C583 0.929 . S
H592 C600 0.929 . S
H593 C602 0.930 . S
H594 C604 0.930 . S
H595 C607 0.929 . S
H596 C610 0.930 . S
H597 C612 0.960 . S
H598 C612 0.960 . S
H599 C612 0.960 . S
C600 H592 0.929 . S
C600 C601 1.377 . S
C600 C602 1.384 . S
C601 C600 1.377 . S
C601 C607 1.390 . S
C602 H593 0.930 . S
C602 C600 1.384 . S
C602 C603 1.372 . S
C603 C602 1.372 . S
C603 C604 1.400 . S
C603 C608 1.490 . S
C604 H594 0.930 . S
C604 C603 1.400 . S
C604 C607 1.386 . S
H605 C621 0.930 . S
H606 C622 0.931 . S
C607 H595 0.929 . S
C607 C601 1.390 . S
C607 C604 1.386 . S
C608 C603 1.490 . S
C608 C610 1.395 . S
C608 C611 1.403 . S
H609 C615 0.930 . S
C610 H596 0.930 . S
C610 C608 1.395 . S
C610 C613 1.403 . S
C611 C608 1.403 . S
C611 C612 1.524 . S
C611 C615 1.400 . S
C612 H597 0.960 . S
C612 H598 0.960 . S
C612 H599 0.960 . S
C612 C611 1.524 . S
C613 C610 1.403 . S
C613 C614 1.392 . S
C613 C617 1.495 . S
C614 C613 1.392 . S
C614 C615 1.385 . S
C614 C616 1.478 . S
C615 H609 0.930 . S
C615 C611 1.400 . S
C615 C614 1.385 . S
C616 C614 1.478 . S
C616 C618 1.381 . S
C616 C622 1.383 . S
C617 C613 1.495 . S
C617 H623 0.959 . S
C617 H624 0.961 . S
C617 H625 0.960 . S
C618 C616 1.381 . S
C618 C619 1.394 . S
C618 H626 0.930 . S
C619 C618 1.394 . S
C619 C620 1.383 . S
C619 H627 0.929 . S
C620 C619 1.383 . S
C620 C621 1.377 . S
C621 H605 0.930 . S
C621 C620 1.377 . S
C621 C622 1.379 . S
C622 H606 0.931 . S
C622 C616 1.383 . S
C622 C621 1.379 . S
H623 C617 0.959 . S
H624 C617 0.961 . S
H625 C617 0.960 . S
H626 C618 0.930 . S
H627 C619 0.929 . S
H628 C636 0.929 . S
H629 C638 0.930 . S
H630 C640 0.930 . S
H631 C643 0.929 . S
H632 C646 0.930 . S
H633 C648 0.960 . S
H634 C648 0.960 . S
H635 C648 0.960 . S
C636 H628 0.929 . S
C636 C637 1.377 . S
C636 C638 1.384 . S
C637 C636 1.377 . S
C637 C643 1.390 . S
C638 H629 0.930 . S
C638 C636 1.384 . S
C638 C639 1.372 . S
C639 C638 1.372 . S
C639 C640 1.400 . S
C639 C644 1.490 . S
C640 H630 0.930 . S
C640 C639 1.400 . S
C640 C643 1.386 . S
H641 C657 0.930 . S
H642 C658 0.931 . S
C643 H631 0.929 . S
C643 C637 1.390 . S
C643 C640 1.386 . S
C644 C639 1.490 . S
C644 C646 1.395 . S
C644 C647 1.403 . S
H645 C651 0.930 . S
C646 H632 0.930 . S
C646 C644 1.395 . S
C646 C649 1.403 . S
C647 C644 1.403 . S
C647 C648 1.524 . S
C647 C651 1.400 . S
C648 H633 0.960 . S
C648 H634 0.960 . S
C648 H635 0.960 . S
C648 C647 1.524 . S
C649 C646 1.403 . S
C649 C650 1.392 . S
C649 C653 1.495 . S
C650 C649 1.392 . S
C650 C651 1.385 . S
C650 C652 1.478 . S
C651 H645 0.930 . S
C651 C647 1.400 . S
C651 C650 1.385 . S
C652 C650 1.478 . S
C652 C654 1.381 . S
C652 C658 1.383 . S
C653 C649 1.495 . S
C653 H659 0.959 . S
C653 H660 0.961 . S
C653 H661 0.960 . S
C654 C652 1.381 . S
C654 C655 1.394 . S
C654 H662 0.930 . S
C655 C654 1.394 . S
C655 C656 1.383 . S
C655 H663 0.929 . S
C656 C655 1.383 . S
C656 C657 1.377 . S
C657 H641 0.930 . S
C657 C656 1.377 . S
C657 C658 1.379 . S
C658 H642 0.931 . S
C658 C652 1.383 . S
C658 C657 1.379 . S
H659 C653 0.959 . S
H660 C653 0.961 . S
H661 C653 0.960 . S
H662 C654 0.930 . S
H663 C655 0.929 . S
H664 C672 0.929 . S
H665 C674 0.930 . S
H666 C676 0.930 . S
H667 C679 0.929 . S
H668 C682 0.930 . S
H669 C684 0.960 . S
H670 C684 0.960 . S
H671 C684 0.960 . S
C672 H664 0.929 . S
C672 C673 1.377 . S
C672 C674 1.384 . S
C673 C672 1.377 . S
C673 C679 1.390 . S
C674 H665 0.930 . S
C674 C672 1.384 . S
C674 C675 1.372 . S
C675 C674 1.372 . S
C675 C676 1.400 . S
C675 C680 1.490 . S
C676 H666 0.930 . S
C676 C675 1.400 . S
C676 C679 1.386 . S
H677 C693 0.930 . S
H678 C694 0.931 . S
C679 H667 0.929 . S
C679 C673 1.390 . S
C679 C676 1.386 . S
C680 C675 1.490 . S
C680 C682 1.395 . S
C680 C683 1.403 . S
H681 C687 0.930 . S
C682 H668 0.930 . S
C682 C680 1.395 . S
C682 C685 1.403 . S
C683 C680 1.403 . S
C683 C684 1.524 . S
C683 C687 1.400 . S
C684 H669 0.960 . S
C684 H670 0.960 . S
C684 H671 0.960 . S
C684 C683 1.524 . S
C685 C682 1.403 . S
C685 C686 1.392 . S
C685 C689 1.495 . S
C686 C685 1.392 . S
C686 C687 1.385 . S
C686 C688 1.478 . S
C687 H681 0.930 . S
C687 C683 1.400 . S
C687 C686 1.385 . S
C688 C686 1.478 . S
C688 C690 1.381 . S
C688 C694 1.383 . S
C689 C685 1.495 . S
C689 H695 0.959 . S
C689 H696 0.961 . S
C689 H697 0.960 . S
C690 C688 1.381 . S
C690 C691 1.394 . S
C690 H698 0.930 . S
C691 C690 1.394 . S
C691 C692 1.383 . S
C691 H699 0.929 . S
C692 C691 1.383 . S
C692 C693 1.377 . S
C693 H677 0.930 . S
C693 C692 1.377 . S
C693 C694 1.379 . S
C694 H678 0.931 . S
C694 C688 1.383 . S
C694 C693 1.379 . S
H695 C689 0.959 . S
H696 C689 0.961 . S
H697 C689 0.960 . S
H698 C690 0.930 . S
H699 C691 0.929 . S
H700 C708 0.929 . S
H701 C710 0.930 . S
H702 C712 0.930 . S
H703 C715 0.929 . S
H704 C718 0.930 . S
H705 C720 0.960 . S
H706 C720 0.960 . S
H707 C720 0.960 . S
C708 H700 0.929 . S
C708 C709 1.377 . S
C708 C710 1.384 . S
C709 C708 1.377 . S
C709 C715 1.390 . S
C710 H701 0.930 . S
C710 C708 1.384 . S
C710 C711 1.372 . S
C711 C710 1.372 . S
C711 C712 1.400 . S
C711 C716 1.490 . S
C712 H702 0.930 . S
C712 C711 1.400 . S
C712 C715 1.386 . S
H713 C729 0.930 . S
H714 C730 0.931 . S
C715 H703 0.929 . S
C715 C709 1.390 . S
C715 C712 1.386 . S
C716 C711 1.490 . S
C716 C718 1.395 . S
C716 C719 1.403 . S
H717 C723 0.930 . S
C718 H704 0.930 . S
C718 C716 1.395 . S
C718 C721 1.403 . S
C719 C716 1.403 . S
C719 C720 1.524 . S
C719 C723 1.400 . S
C720 H705 0.960 . S
C720 H706 0.960 . S
C720 H707 0.960 . S
C720 C719 1.524 . S
C721 C718 1.403 . S
C721 C722 1.392 . S
C721 C725 1.495 . S
C722 C721 1.392 . S
C722 C723 1.385 . S
C722 C724 1.478 . S
C723 H717 0.930 . S
C723 C719 1.400 . S
C723 C722 1.385 . S
C724 C722 1.478 . S
C724 C726 1.381 . S
C724 C730 1.383 . S
C725 C721 1.495 . S
C725 H731 0.959 . S
C725 H732 0.961 . S
C725 H733 0.960 . S
C726 C724 1.381 . S
C726 C727 1.394 . S
C726 H734 0.930 . S
C727 C726 1.394 . S
C727 C728 1.383 . S
C727 H735 0.929 . S
C728 C727 1.383 . S
C728 C729 1.377 . S
C729 H713 0.930 . S
C729 C728 1.377 . S
C729 C730 1.379 . S
C730 H714 0.931 . S
C730 C724 1.383 . S
C730 C729 1.379 . S
H731 C725 0.959 . S
H732 C725 0.961 . S
H733 C725 0.960 . S
H734 C726 0.930 . S
H735 C727 0.929 . S
H736 C744 0.929 . S
H737 C746 0.930 . S
H738 C748 0.930 . S
H739 C751 0.929 . S
H740 C754 0.930 . S
H741 C756 0.960 . S
H742 C756 0.960 . S
H743 C756 0.960 . S
C744 H736 0.929 . S
C744 C745 1.377 . S
C744 C746 1.384 . S
C745 C744 1.377 . S
C745 C751 1.390 . S
C746 H737 0.930 . S
C746 C744 1.384 . S
C746 C747 1.372 . S
C747 C746 1.372 . S
C747 C748 1.400 . S
C747 C752 1.490 . S
C748 H738 0.930 . S
C748 C747 1.400 . S
C748 C751 1.386 . S
H749 C765 0.930 . S
H750 C766 0.931 . S
C751 H739 0.929 . S
C751 C745 1.390 . S
C751 C748 1.386 . S
C752 C747 1.490 . S
C752 C754 1.395 . S
C752 C755 1.403 . S
H753 C759 0.930 . S
C754 H740 0.930 . S
C754 C752 1.395 . S
C754 C757 1.403 . S
C755 C752 1.403 . S
C755 C756 1.524 . S
C755 C759 1.400 . S
C756 H741 0.960 . S
C756 H742 0.960 . S
C756 H743 0.960 . S
C756 C755 1.524 . S
C757 C754 1.403 . S
C757 C758 1.392 . S
C757 C761 1.495 . S
C758 C757 1.392 . S
C758 C759 1.385 . S
C758 C760 1.478 . S
C759 H753 0.930 . S
C759 C755 1.400 . S
C759 C758 1.385 . S
C760 C758 1.478 . S
C760 C762 1.381 . S
C760 C766 1.383 . S
C761 C757 1.495 . S
C761 H767 0.959 . S
C761 H768 0.961 . S
C761 H769 0.960 . S
C762 C760 1.381 . S
C762 C763 1.394 . S
C762 H770 0.930 . S
C763 C762 1.394 . S
C763 C764 1.383 . S
C763 H771 0.929 . S
C764 C763 1.383 . S
C764 C765 1.377 . S
C765 H749 0.930 . S
C765 C764 1.377 . S
C765 C766 1.379 . S
C766 H750 0.931 . S
C766 C760 1.383 . S
C766 C765 1.379 . S
H767 C761 0.959 . S
H768 C761 0.961 . S
H769 C761 0.960 . S
H770 C762 0.930 . S
H771 C763 0.929 . S
H772 C780 0.929 . S
H773 C782 0.930 . S
H774 C784 0.930 . S
H775 C787 0.929 . S
H776 C790 0.930 . S
H777 C792 0.960 . S
H778 C792 0.960 . S
H779 C792 0.960 . S
C780 H772 0.929 . S
C780 C781 1.377 . S
C780 C782 1.384 . S
C781 C780 1.377 . S
C781 C787 1.390 . S
C782 H773 0.930 . S
C782 C780 1.384 . S
C782 C783 1.372 . S
C783 C782 1.372 . S
C783 C784 1.400 . S
C783 C788 1.490 . S
C784 H774 0.930 . S
C784 C783 1.400 . S
C784 C787 1.386 . S
H785 C801 0.930 . S
H786 C802 0.931 . S
C787 H775 0.929 . S
C787 C781 1.390 . S
C787 C784 1.386 . S
C788 C783 1.490 . S
C788 C790 1.395 . S
C788 C791 1.403 . S
H789 C795 0.930 . S
C790 H776 0.930 . S
C790 C788 1.395 . S
C790 C793 1.403 . S
C791 C788 1.403 . S
C791 C792 1.524 . S
C791 C795 1.400 . S
C792 H777 0.960 . S
C792 H778 0.960 . S
C792 H779 0.960 . S
C792 C791 1.524 . S
C793 C790 1.403 . S
C793 C794 1.392 . S
C793 C797 1.495 . S
C794 C793 1.392 . S
C794 C795 1.385 . S
C794 C796 1.478 . S
C795 H789 0.930 . S
C795 C791 1.400 . S
C795 C794 1.385 . S
C796 C794 1.478 . S
C796 C798 1.381 . S
C796 C802 1.383 . S
C797 C793 1.495 . S
C797 H803 0.959 . S
C797 H804 0.961 . S
C797 H805 0.960 . S
C798 C796 1.381 . S
C798 C799 1.394 . S
C798 H806 0.930 . S
C799 C798 1.394 . S
C799 C800 1.383 . S
C799 H807 0.929 . S
C800 C799 1.383 . S
C800 C801 1.377 . S
C801 H785 0.930 . S
C801 C800 1.377 . S
C801 C802 1.379 . S
C802 H786 0.931 . S
C802 C796 1.383 . S
C802 C801 1.379 . S
H803 C797 0.959 . S
H804 C797 0.961 . S
H805 C797 0.960 . S
H806 C798 0.930 . S
H807 C799 0.929 . S
H808 C816 0.929 . S
H809 C818 0.930 . S
H810 C820 0.930 . S
H811 C823 0.929 . S
H812 C826 0.930 . S
H813 C828 0.960 . S
H814 C828 0.960 . S
H815 C828 0.960 . S
C816 H808 0.929 . S
C816 C817 1.377 . S
C816 C818 1.384 . S
C817 C816 1.377 . S
C817 C823 1.390 . S
C818 H809 0.930 . S
C818 C816 1.384 . S
C818 C819 1.372 . S
C819 C818 1.372 . S
C819 C820 1.400 . S
C819 C824 1.490 . S
C820 H810 0.930 . S
C820 C819 1.400 . S
C820 C823 1.386 . S
H821 C837 0.930 . S
H822 C838 0.931 . S
C823 H811 0.929 . S
C823 C817 1.390 . S
C823 C820 1.386 . S
C824 C819 1.490 . S
C824 C826 1.395 . S
C824 C827 1.403 . S
H825 C831 0.930 . S
C826 H812 0.930 . S
C826 C824 1.395 . S
C826 C829 1.403 . S
C827 C824 1.403 . S
C827 C828 1.524 . S
C827 C831 1.400 . S
C828 H813 0.960 . S
C828 H814 0.960 . S
C828 H815 0.960 . S
C828 C827 1.524 . S
C829 C826 1.403 . S
C829 C830 1.392 . S
C829 C833 1.495 . S
C830 C829 1.392 . S
C830 C831 1.385 . S
C830 C832 1.478 . S
C831 H825 0.930 . S
C831 C827 1.400 . S
C831 C830 1.385 . S
C832 C830 1.478 . S
C832 C834 1.381 . S
C832 C838 1.383 . S
C833 C829 1.495 . S
C833 H839 0.959 . S
C833 H840 0.961 . S
C833 H841 0.960 . S
C834 C832 1.381 . S
C834 C835 1.394 . S
C834 H842 0.930 . S
C835 C834 1.394 . S
C835 C836 1.383 . S
C835 H843 0.929 . S
C836 C835 1.383 . S
C836 C837 1.377 . S
C837 H821 0.930 . S
C837 C836 1.377 . S
C837 C838 1.379 . S
C838 H822 0.931 . S
C838 C832 1.383 . S
C838 C837 1.379 . S
H839 C833 0.959 . S
H840 C833 0.961 . S
H841 C833 0.960 . S
H842 C834 0.930 . S
H843 C835 0.929 . S
H844 C852 0.929 . S
H845 C854 0.930 . S
H846 C856 0.930 . S
H847 C859 0.929 . S
H848 C862 0.930 . S
H849 C864 0.960 . S
H850 C864 0.960 . S
H851 C864 0.960 . S
C852 H844 0.929 . S
C852 C853 1.377 . S
C852 C854 1.384 . S
C853 C852 1.377 . S
C853 C859 1.390 . S
C854 H845 0.930 . S
C854 C852 1.384 . S
C854 C855 1.372 . S
C855 C854 1.372 . S
C855 C856 1.400 . S
C855 C860 1.490 . S
C856 H846 0.930 . S
C856 C855 1.400 . S
C856 C859 1.386 . S
H857 C873 0.930 . S
H858 C874 0.931 . S
C859 H847 0.929 . S
C859 C853 1.390 . S
C859 C856 1.386 . S
C860 C855 1.490 . S
C860 C862 1.395 . S
C860 C863 1.403 . S
H861 C867 0.930 . S
C862 H848 0.930 . S
C862 C860 1.395 . S
C862 C865 1.403 . S
C863 C860 1.403 . S
C863 C864 1.524 . S
C863 C867 1.400 . S
C864 H849 0.960 . S
C864 H850 0.960 . S
C864 H851 0.960 . S
C864 C863 1.524 . S
C865 C862 1.403 . S
C865 C866 1.392 . S
C865 C869 1.495 . S
C866 C865 1.392 . S
C866 C867 1.385 . S
C866 C868 1.478 . S
C867 H861 0.930 . S
C867 C863 1.400 . S
C867 C866 1.385 . S
C868 C866 1.478 . S
C868 C870 1.381 . S
C868 C874 1.383 . S
C869 C865 1.495 . S
C869 H875 0.959 . S
C869 H876 0.961 . S
C869 H877 0.960 . S
C870 C868 1.381 . S
C870 C871 1.394 . S
C870 H878 0.930 . S
C871 C870 1.394 . S
C871 C872 1.383 . S
C871 H879 0.929 . S
C872 C871 1.383 . S
C872 C873 1.377 . S
C873 H857 0.930 . S
C873 C872 1.377 . S
C873 C874 1.379 . S
C874 H858 0.931 . S
C874 C868 1.383 . S
C874 C873 1.379 . S
H875 C869 0.959 . S
H876 C869 0.961 . S
H877 C869 0.960 . S
H878 C870 0.930 . S
H879 C871 0.929 . S
H880 C888 0.929 . S
H881 C890 0.930 . S
H882 C892 0.930 . S
H883 C895 0.929 . S
H884 C898 0.930 . S
H885 C900 0.960 . S
H886 C900 0.960 . S
H887 C900 0.960 . S
C888 H880 0.929 . S
C888 C889 1.377 . S
C888 C890 1.384 . S
C889 C888 1.377 . S
C889 C895 1.390 . S
C890 H881 0.930 . S
C890 C888 1.384 . S
C890 C891 1.372 . S
C891 C890 1.372 . S
C891 C892 1.400 . S
C891 C896 1.490 . S
C892 H882 0.930 . S
C892 C891 1.400 . S
C892 C895 1.386 . S
H893 C909 0.930 . S
H894 C910 0.931 . S
C895 H883 0.929 . S
C895 C889 1.390 . S
C895 C892 1.386 . S
C896 C891 1.490 . S
C896 C898 1.395 . S
C896 C899 1.403 . S
H897 C903 0.930 . S
C898 H884 0.930 . S
C898 C896 1.395 . S
C898 C901 1.403 . S
C899 C896 1.403 . S
C899 C900 1.524 . S
C899 C903 1.400 . S
C900 H885 0.960 . S
C900 H886 0.960 . S
C900 H887 0.960 . S
C900 C899 1.524 . S
C901 C898 1.403 . S
C901 C902 1.392 . S
C901 C905 1.495 . S
C902 C901 1.392 . S
C902 C903 1.385 . S
C902 C904 1.478 . S
C903 H897 0.930 . S
C903 C899 1.400 . S
C903 C902 1.385 . S
C904 C902 1.478 . S
C904 C906 1.381 . S
C904 C910 1.383 . S
C905 C901 1.495 . S
C905 H911 0.959 . S
C905 H912 0.961 . S
C905 H913 0.960 . S
C906 C904 1.381 . S
C906 C907 1.394 . S
C906 H914 0.930 . S
C907 C906 1.394 . S
C907 C908 1.383 . S
C907 H915 0.929 . S
C908 C907 1.383 . S
C908 C909 1.377 . S
C909 H893 0.930 . S
C909 C908 1.377 . S
C909 C910 1.379 . S
C910 H894 0.931 . S
C910 C904 1.383 . S
C910 C909 1.379 . S
H911 C905 0.959 . S
H912 C905 0.961 . S
H913 C905 0.960 . S
H914 C906 0.930 . S
H915 C907 0.929 . S
H916 C924 0.929 . S
H917 C926 0.930 . S
H918 C928 0.930 . S
H919 C931 0.929 . S
H920 C934 0.930 . S
H921 C936 0.960 . S
H922 C936 0.960 . S
H923 C936 0.960 . S
C924 H916 0.929 . S
C924 C925 1.377 . S
C924 C926 1.384 . S
C925 C924 1.377 . S
C925 C931 1.390 . S
C926 H917 0.930 . S
C926 C924 1.384 . S
C926 C927 1.372 . S
C927 C926 1.372 . S
C927 C928 1.400 . S
C927 C932 1.490 . S
C928 H918 0.930 . S
C928 C927 1.400 . S
C928 C931 1.386 . S
H929 C945 0.930 . S
H930 C946 0.931 . S
C931 H919 0.929 . S
C931 C925 1.390 . S
C931 C928 1.386 . S
C932 C927 1.490 . S
C932 C934 1.395 . S
C932 C935 1.403 . S
H933 C939 0.930 . S
C934 H920 0.930 . S
C934 C932 1.395 . S
C934 C937 1.403 . S
C935 C932 1.403 . S
C935 C936 1.524 . S
C935 C939 1.400 . S
C936 H921 0.960 . S
C936 H922 0.960 . S
C936 H923 0.960 . S
C936 C935 1.524 . S
C937 C934 1.403 . S
C937 C938 1.392 . S
C937 C941 1.495 . S
C938 C937 1.392 . S
C938 C939 1.385 . S
C938 C940 1.478 . S
C939 H933 0.930 . S
C939 C935 1.400 . S
C939 C938 1.385 . S
C940 C938 1.478 . S
C940 C942 1.381 . S
C940 C946 1.383 . S
C941 C937 1.495 . S
C941 H947 0.959 . S
C941 H948 0.961 . S
C941 H949 0.960 . S
C942 C940 1.381 . S
C942 C943 1.394 . S
C942 H950 0.930 . S
C943 C942 1.394 . S
C943 C944 1.383 . S
C943 H951 0.929 . S
C944 C943 1.383 . S
C944 C945 1.377 . S
C945 H929 0.930 . S
C945 C944 1.377 . S
C945 C946 1.379 . S
C946 H930 0.931 . S
C946 C940 1.383 . S
C946 C945 1.379 . S
H947 C941 0.959 . S
H948 C941 0.961 . S
H949 C941 0.960 . S
H950 C942 0.930 . S
H951 C943 0.929 . S
H952 C960 0.929 . S
H953 C962 0.930 . S
H954 C964 0.930 . S
H955 C967 0.929 . S
H956 C970 0.930 . S
H957 C972 0.960 . S
H958 C972 0.960 . S
H959 C972 0.960 . S
C960 H952 0.929 . S
C960 C961 1.377 . S
C960 C962 1.384 . S
C961 C960 1.377 . S
C961 C967 1.390 . S
C962 H953 0.930 . S
C962 C960 1.384 . S
C962 C963 1.372 . S
C963 C962 1.372 . S
C963 C964 1.400 . S
C963 C968 1.490 . S
C964 H954 0.930 . S
C964 C963 1.400 . S
C964 C967 1.386 . S
H965 C981 0.930 . S
H966 C982 0.931 . S
C967 H955 0.929 . S
C967 C961 1.390 . S
C967 C964 1.386 . S
C968 C963 1.490 . S
C968 C970 1.395 . S
C968 C971 1.403 . S
H969 C975 0.930 . S
C970 H956 0.930 . S
C970 C968 1.395 . S
C970 C973 1.403 . S
C971 C968 1.403 . S
C971 C972 1.524 . S
C971 C975 1.400 . S
C972 H957 0.960 . S
C972 H958 0.960 . S
C972 H959 0.960 . S
C972 C971 1.524 . S
C973 C970 1.403 . S
C973 C974 1.392 . S
C973 C977 1.495 . S
C974 C973 1.392 . S
C974 C975 1.385 . S
C974 C976 1.478 . S
C975 H969 0.930 . S
C975 C971 1.400 . S
C975 C974 1.385 . S
C976 C974 1.478 . S
C976 C978 1.381 . S
C976 C982 1.383 . S
C977 C973 1.495 . S
C977 H983 0.959 . S
C977 H984 0.961 . S
C977 H985 0.960 . S
C978 C976 1.381 . S
C978 C979 1.394 . S
C978 H986 0.930 . S
C979 C978 1.394 . S
C979 C980 1.383 . S
C979 H987 0.929 . S
C980 C979 1.383 . S
C980 C981 1.377 . S
C981 H965 0.930 . S
C981 C980 1.377 . S
C981 C982 1.379 . S
C982 H966 0.931 . S
C982 C976 1.383 . S
C982 C981 1.379 . S
H983 C977 0.959 . S
H984 C977 0.961 . S
H985 C977 0.960 . S
H986 C978 0.930 . S
H987 C979 0.929 . S
H988 C996 0.929 . S
H989 C998 0.930 . S
H990 C1000 0.930 . S
H991 C1003 0.929 . S
H992 C1006 0.930 . S
H993 C1008 0.960 . S
H994 C1008 0.960 . S
H995 C1008 0.960 . S
C996 H988 0.929 . S
C996 C997 1.377 . S
C996 C998 1.384 . S
C997 C996 1.377 . S
C997 C1003 1.390 . S
C998 H989 0.930 . S
C998 C996 1.384 . S
C998 C999 1.372 . S
C999 C998 1.372 . S
C999 C1000 1.400 . S
C999 C1004 1.490 . S
C1000 H990 0.930 . S
C1000 C999 1.400 . S
C1000 C1003 1.386 . S
H1001 C1017 0.930 . S
H1002 C1018 0.931 . S
C1003 H991 0.929 . S
C1003 C997 1.390 . S
C1003 C1000 1.386 . S
C1004 C999 1.490 . S
C1004 C1006 1.395 . S
C1004 C1007 1.403 . S
H1005 C1011 0.930 . S
C1006 H992 0.930 . S
C1006 C1004 1.395 . S
C1006 C1009 1.403 . S
C1007 C1004 1.403 . S
C1007 C1008 1.524 . S
C1007 C1011 1.400 . S
C1008 H993 0.960 . S
C1008 H994 0.960 . S
C1008 H995 0.960 . S
C1008 C1007 1.524 . S
C1009 C1006 1.403 . S
C1009 C1010 1.392 . S
C1009 C1013 1.495 . S
C1010 C1009 1.392 . S
C1010 C1011 1.385 . S
C1010 C1012 1.478 . S
C1011 H1005 0.930 . S
C1011 C1007 1.400 . S
C1011 C1010 1.385 . S
C1012 C1010 1.478 . S
C1012 C1014 1.381 . S
C1012 C1018 1.383 . S
C1013 C1009 1.495 . S
C1013 H1019 0.959 . S
C1013 H1020 0.961 . S
C1013 H1021 0.960 . S
C1014 C1012 1.381 . S
C1014 C1015 1.394 . S
C1014 H1022 0.930 . S
C1015 C1014 1.394 . S
C1015 C1016 1.383 . S
C1015 H1023 0.929 . S
C1016 C1015 1.383 . S
C1016 C1017 1.377 . S
C1017 H1001 0.930 . S
C1017 C1016 1.377 . S
C1017 C1018 1.379 . S
C1018 H1002 0.931 . S
C1018 C1012 1.383 . S
C1018 C1017 1.379 . S
H1019 C1013 0.959 . S
H1020 C1013 0.961 . S
H1021 C1013 0.960 . S
H1022 C1014 0.930 . S
H1023 C1015 0.929 . S
H1024 C1032 0.929 . S
H1025 C1034 0.930 . S
H1026 C1036 0.930 . S
H1027 C1039 0.929 . S
H1028 C1042 0.930 . S
H1029 C1044 0.960 . S
H1030 C1044 0.960 . S
H1031 C1044 0.960 . S
C1032 H1024 0.929 . S
C1032 C1033 1.377 . S
C1032 C1034 1.384 . S
C1033 C1032 1.377 . S
C1033 C1039 1.390 . S
C1034 H1025 0.930 . S
C1034 C1032 1.384 . S
C1034 C1035 1.372 . S
C1035 C1034 1.372 . S
C1035 C1036 1.400 . S
C1035 C1040 1.490 . S
C1036 H1026 0.930 . S
C1036 C1035 1.400 . S
C1036 C1039 1.386 . S
H1037 C1053 0.930 . S
H1038 C1054 0.931 . S
C1039 H1027 0.929 . S
C1039 C1033 1.390 . S
C1039 C1036 1.386 . S
C1040 C1035 1.490 . S
C1040 C1042 1.395 . S
C1040 C1043 1.403 . S
H1041 C1047 0.930 . S
C1042 H1028 0.930 . S
C1042 C1040 1.395 . S
C1042 C1045 1.403 1_554 S
C1043 C1040 1.403 . S
C1043 C1044 1.524 . S
C1043 C1047 1.400 1_554 S
C1044 H1029 0.960 . S
C1044 H1030 0.960 . S
C1044 H1031 0.960 . S
C1044 C1043 1.524 . S
C1045 C1042 1.403 1_556 S
C1045 C1046 1.392 . S
C1045 C1049 1.495 . S
C1046 C1045 1.392 . S
C1046 C1047 1.385 . S
C1046 C1048 1.478 . S
C1047 H1041 0.930 . S
C1047 C1043 1.400 1_556 S
C1047 C1046 1.385 . S
C1048 C1046 1.478 . S
C1048 C1050 1.381 . S
C1048 C1054 1.383 . S
C1049 C1045 1.495 . S
C1049 H1055 0.959 . S
C1049 H1056 0.961 . S
C1049 H1057 0.960 . S
C1050 C1048 1.381 . S
C1050 C1051 1.394 . S
C1050 H1058 0.930 . S
C1051 C1050 1.394 . S
C1051 C1052 1.383 . S
C1051 H1059 0.929 . S
C1052 C1051 1.383 . S
C1052 C1053 1.377 . S
C1053 H1037 0.930 . S
C1053 C1052 1.377 . S
C1053 C1054 1.379 . S
C1054 H1038 0.931 . S
C1054 C1048 1.383 . S
C1054 C1053 1.379 . S
H1055 C1049 0.959 . S
H1056 C1049 0.961 . S
H1057 C1049 0.960 . S
H1058 C1050 0.930 . S
H1059 C1051 0.929 . S
H1060 C1068 0.929 . S
H1061 C1070 0.930 . S
H1062 C1072 0.930 . S
H1063 C1075 0.929 . S
H1064 C1078 0.930 . S
H1065 C1080 0.960 . S
H1066 C1080 0.960 . S
H1067 C1080 0.960 . S
C1068 H1060 0.929 . S
C1068 C1069 1.377 . S
C1068 C1070 1.384 . S
C1069 C1068 1.377 . S
C1069 C1075 1.390 . S
C1070 H1061 0.930 . S
C1070 C1068 1.384 . S
C1070 C1071 1.372 . S
C1071 C1070 1.372 . S
C1071 C1072 1.400 . S
C1071 C1076 1.490 . S
C1072 H1062 0.930 . S
C1072 C1071 1.400 . S
C1072 C1075 1.386 . S
H1073 C1089 0.930 . S
H1074 C1090 0.931 . S
C1075 H1063 0.929 . S
C1075 C1069 1.390 . S
C1075 C1072 1.386 . S
C1076 C1071 1.490 . S
C1076 C1078 1.395 . S
C1076 C1079 1.403 . S
H1077 C1083 0.930 . S
C1078 H1064 0.930 . S
C1078 C1076 1.395 . S
C1078 C1081 1.403 1_556 S
C1079 C1076 1.403 . S
C1079 C1080 1.524 . S
C1079 C1083 1.400 1_556 S
C1080 H1065 0.960 . S
C1080 H1066 0.960 . S
C1080 H1067 0.960 . S
C1080 C1079 1.524 . S
C1081 C1078 1.403 1_554 S
C1081 C1082 1.392 . S
C1081 C1085 1.495 . S
C1082 C1081 1.392 . S
C1082 C1083 1.385 . S
C1082 C1084 1.478 . S
C1083 H1077 0.930 . S
C1083 C1079 1.400 1_554 S
C1083 C1082 1.385 . S
C1084 C1082 1.478 . S
C1084 C1086 1.381 . S
C1084 C1090 1.383 . S
C1085 C1081 1.495 . S
C1085 H1091 0.959 . S
C1085 H1092 0.961 . S
C1085 H1093 0.960 . S
C1086 C1084 1.381 . S
C1086 C1087 1.394 . S
C1086 H1094 0.930 . S
C1087 C1086 1.394 . S
C1087 C1088 1.383 . S
C1087 H1095 0.929 . S
C1088 C1087 1.383 . S
C1088 C1089 1.377 . S
C1089 H1073 0.930 . S
C1089 C1088 1.377 . S
C1089 C1090 1.379 . S
C1090 H1074 0.931 . S
C1090 C1084 1.383 . S
C1090 C1089 1.379 . S
H1091 C1085 0.959 . S
H1092 C1085 0.961 . S
H1093 C1085 0.960 . S
H1094 C1086 0.930 . S
H1095 C1087 0.929 . S
H1096 C1104 0.929 . S
H1097 C1106 0.930 . S
H1098 C1108 0.930 . S
H1099 C1111 0.929 . S
H1100 C1114 0.930 . S
H1101 C1116 0.960 . S
H1102 C1116 0.960 . S
H1103 C1116 0.960 . S
C1104 H1096 0.929 . S
C1104 C1105 1.377 . S
C1104 C1106 1.384 . S
C1105 C1104 1.377 . S
C1105 C1111 1.390 . S
C1106 H1097 0.930 . S
C1106 C1104 1.384 . S
C1106 C1107 1.372 . S
C1107 C1106 1.372 . S
C1107 C1108 1.400 . S
C1107 C1112 1.490 . S
C1108 H1098 0.930 . S
C1108 C1107 1.400 . S
C1108 C1111 1.386 . S
H1109 C1125 0.930 . S
H1110 C1126 0.931 . S
C1111 H1099 0.929 . S
C1111 C1105 1.390 . S
C1111 C1108 1.386 . S
C1112 C1107 1.490 . S
C1112 C1114 1.395 . S
C1112 C1115 1.403 . S
H1113 C1119 0.930 . S
C1114 H1100 0.930 . S
C1114 C1112 1.395 . S
C1114 C1117 1.403 1_556 S
C1115 C1112 1.403 . S
C1115 C1116 1.524 . S
C1115 C1119 1.400 1_556 S
C1116 H1101 0.960 . S
C1116 H1102 0.960 . S
C1116 H1103 0.960 . S
C1116 C1115 1.524 . S
C1117 C1114 1.403 1_554 S
C1117 C1118 1.392 . S
C1117 C1121 1.495 . S
C1118 C1117 1.392 . S
C1118 C1119 1.385 . S
C1118 C1120 1.478 . S
C1119 H1113 0.930 . S
C1119 C1115 1.400 1_554 S
C1119 C1118 1.385 . S
C1120 C1118 1.478 . S
C1120 C1122 1.381 . S
C1120 C1126 1.383 . S
C1121 C1117 1.495 . S
C1121 H1127 0.959 . S
C1121 H1128 0.961 . S
C1121 H1129 0.960 . S
C1122 C1120 1.381 . S
C1122 C1123 1.394 . S
C1122 H1130 0.930 . S
C1123 C1122 1.394 . S
C1123 C1124 1.383 . S
C1123 H1131 0.929 . S
C1124 C1123 1.383 . S
C1124 C1125 1.377 . S
C1125 H1109 0.930 . S
C1125 C1124 1.377 . S
C1125 C1126 1.379 . S
C1126 H1110 0.931 . S
C1126 C1120 1.383 . S
C1126 C1125 1.379 . S
H1127 C1121 0.959 . S
H1128 C1121 0.961 . S
H1129 C1121 0.960 . S
H1130 C1122 0.930 . S
H1131 C1123 0.929 . S
H1132 C1140 0.929 . S
H1133 C1142 0.930 . S
H1134 C1144 0.930 . S
H1135 C1147 0.929 . S
H1136 C1150 0.930 . S
H1137 C1152 0.960 . S
H1138 C1152 0.960 . S
H1139 C1152 0.960 . S
C1140 H1132 0.929 . S
C1140 C1141 1.377 . S
C1140 C1142 1.384 . S
C1141 C1140 1.377 . S
C1141 C1147 1.390 . S
C1142 H1133 0.930 . S
C1142 C1140 1.384 . S
C1142 C1143 1.372 . S
C1143 C1142 1.372 . S
C1143 C1144 1.400 . S
C1143 C1148 1.490 . S
C1144 H1134 0.930 . S
C1144 C1143 1.400 . S
C1144 C1147 1.386 . S
H1145 C1161 0.930 . S
H1146 C1162 0.931 . S
C1147 H1135 0.929 . S
C1147 C1141 1.390 . S
C1147 C1144 1.386 . S
C1148 C1143 1.490 . S
C1148 C1150 1.395 . S
C1148 C1151 1.403 . S
H1149 C1155 0.930 . S
C1150 H1136 0.930 . S
C1150 C1148 1.395 . S
C1150 C1153 1.403 1_556 S
C1151 C1148 1.403 . S
C1151 C1152 1.524 . S
C1151 C1155 1.400 1_556 S
C1152 H1137 0.960 . S
C1152 H1138 0.960 . S
C1152 H1139 0.960 . S
C1152 C1151 1.524 . S
C1153 C1150 1.403 1_554 S
C1153 C1154 1.392 . S
C1153 C1157 1.495 . S
C1154 C1153 1.392 . S
C1154 C1155 1.385 . S
C1154 C1156 1.478 . S
C1155 H1149 0.930 . S
C1155 C1151 1.400 1_554 S
C1155 C1154 1.385 . S
C1156 C1154 1.478 . S
C1156 C1158 1.381 . S
C1156 C1162 1.383 . S
C1157 C1153 1.495 . S
C1157 H1163 0.959 . S
C1157 H1164 0.961 . S
C1157 H1165 0.960 . S
C1158 C1156 1.381 . S
C1158 C1159 1.394 . S
C1158 H1166 0.930 . S
C1159 C1158 1.394 . S
C1159 C1160 1.383 . S
C1159 H1167 0.929 . S
C1160 C1159 1.383 . S
C1160 C1161 1.377 . S
C1161 H1145 0.930 . S
C1161 C1160 1.377 . S
C1161 C1162 1.379 . S
C1162 H1146 0.931 . S
C1162 C1156 1.383 . S
C1162 C1161 1.379 . S
H1163 C1157 0.959 . S
H1164 C1157 0.961 . S
H1165 C1157 0.960 . S
H1166 C1158 0.930 . S
H1167 C1159 0.929 . S
H1168 C1176 0.929 . S
H1169 C1178 0.930 . S
H1170 C1180 0.930 . S
H1171 C1183 0.929 . S
H1172 C1186 0.930 . S
H1173 C1188 0.960 . S
H1174 C1188 0.960 . S
H1175 C1188 0.960 . S
C1176 H1168 0.929 . S
C1176 C1177 1.377 . S
C1176 C1178 1.384 . S
C1177 C1176 1.377 . S
C1177 C1183 1.390 . S
C1178 H1169 0.930 . S
C1178 C1176 1.384 . S
C1178 C1179 1.372 . S
C1179 C1178 1.372 . S
C1179 C1180 1.400 . S
C1179 C1184 1.490 . S
C1180 H1170 0.930 . S
C1180 C1179 1.400 . S
C1180 C1183 1.386 . S
H1181 C1197 0.930 . S
H1182 C1198 0.931 . S
C1183 H1171 0.929 . S
C1183 C1177 1.390 . S
C1183 C1180 1.386 . S
C1184 C1179 1.490 . S
C1184 C1186 1.395 . S
C1184 C1187 1.403 . S
H1185 C1191 0.930 . S
C1186 H1172 0.930 . S
C1186 C1184 1.395 . S
C1186 C1189 1.403 . S
C1187 C1184 1.403 . S
C1187 C1188 1.524 . S
C1187 C1191 1.400 . S
C1188 H1173 0.960 . S
C1188 H1174 0.960 . S
C1188 H1175 0.960 . S
C1188 C1187 1.524 . S
C1189 C1186 1.403 . S
C1189 C1190 1.392 . S
C1189 C1193 1.495 . S
C1190 C1189 1.392 . S
C1190 C1191 1.385 . S
C1190 C1192 1.478 . S
C1191 H1185 0.930 . S
C1191 C1187 1.400 . S
C1191 C1190 1.385 . S
C1192 C1190 1.478 . S
C1192 C1194 1.381 . S
C1192 C1198 1.383 . S
C1193 C1189 1.495 . S
C1193 H1199 0.959 . S
C1193 H1200 0.961 . S
C1193 H1201 0.960 . S
C1194 C1192 1.381 . S
C1194 C1195 1.394 . S
C1194 H1202 0.930 . S
C1195 C1194 1.394 . S
C1195 C1196 1.383 . S
C1195 H1203 0.929 . S
C1196 C1195 1.383 . S
C1196 C1197 1.377 . S
C1197 H1181 0.930 . S
C1197 C1196 1.377 . S
C1197 C1198 1.379 . S
C1198 H1182 0.931 . S
C1198 C1192 1.383 . S
C1198 C1197 1.379 . S
H1199 C1193 0.959 . S
H1200 C1193 0.961 . S
H1201 C1193 0.960 . S
H1202 C1194 0.930 . S
H1203 C1195 0.929 . S
H1204 C1212 0.929 . S
H1205 C1214 0.930 . S
H1206 C1216 0.930 . S
H1207 C1219 0.929 . S
H1208 C1222 0.930 . S
H1209 C1224 0.960 . S
H1210 C1224 0.960 . S
H1211 C1224 0.960 . S
C1212 H1204 0.929 . S
C1212 C1213 1.377 . S
C1212 C1214 1.384 . S
C1213 C1212 1.377 . S
C1213 C1219 1.390 . S
C1214 H1205 0.930 . S
C1214 C1212 1.384 . S
C1214 C1215 1.372 . S
C1215 C1214 1.372 . S
C1215 C1216 1.400 . S
C1215 C1220 1.490 . S
C1216 H1206 0.930 . S
C1216 C1215 1.400 . S
C1216 C1219 1.386 . S
H1217 C1233 0.930 . S
H1218 C1234 0.931 . S
C1219 H1207 0.929 . S
C1219 C1213 1.390 . S
C1219 C1216 1.386 . S
C1220 C1215 1.490 . S
C1220 C1222 1.395 . S
C1220 C1223 1.403 . S
H1221 C1227 0.930 . S
C1222 H1208 0.930 . S
C1222 C1220 1.395 . S
C1222 C1225 1.403 . S
C1223 C1220 1.403 . S
C1223 C1224 1.524 . S
C1223 C1227 1.400 . S
C1224 H1209 0.960 . S
C1224 H1210 0.960 . S
C1224 H1211 0.960 . S
C1224 C1223 1.524 . S
C1225 C1222 1.403 . S
C1225 C1226 1.392 . S
C1225 C1229 1.495 . S
C1226 C1225 1.392 . S
C1226 C1227 1.385 . S
C1226 C1228 1.478 . S
C1227 H1221 0.930 . S
C1227 C1223 1.400 . S
C1227 C1226 1.385 . S
C1228 C1226 1.478 . S
C1228 C1230 1.381 . S
C1228 C1234 1.383 . S
C1229 C1225 1.495 . S
C1229 H1235 0.959 . S
C1229 H1236 0.961 . S
C1229 H1237 0.960 . S
C1230 C1228 1.381 . S
C1230 C1231 1.394 . S
C1230 H1238 0.930 . S
C1231 C1230 1.394 . S
C1231 C1232 1.383 . S
C1231 H1239 0.929 . S
C1232 C1231 1.383 . S
C1232 C1233 1.377 . S
C1233 H1217 0.930 . S
C1233 C1232 1.377 . S
C1233 C1234 1.379 . S
C1234 H1218 0.931 . S
C1234 C1228 1.383 . S
C1234 C1233 1.379 . S
H1235 C1229 0.959 . S
H1236 C1229 0.961 . S
H1237 C1229 0.960 . S
H1238 C1230 0.930 . S
H1239 C1231 0.929 . S
H1240 C1248 0.929 . S
H1241 C1250 0.930 . S
H1242 C1252 0.930 . S
H1243 C1255 0.929 . S
H1244 C1258 0.930 . S
H1245 C1260 0.960 . S
H1246 C1260 0.960 . S
H1247 C1260 0.960 . S
C1248 H1240 0.929 . S
C1248 C1249 1.377 . S
C1248 C1250 1.384 . S
C1249 C1248 1.377 . S
C1249 C1255 1.390 . S
C1250 H1241 0.930 . S
C1250 C1248 1.384 . S
C1250 C1251 1.372 . S
C1251 C1250 1.372 . S
C1251 C1252 1.400 . S
C1251 C1256 1.490 . S
C1252 H1242 0.930 . S
C1252 C1251 1.400 . S
C1252 C1255 1.386 . S
H1253 C1269 0.930 . S
H1254 C1270 0.931 . S
C1255 H1243 0.929 . S
C1255 C1249 1.390 . S
C1255 C1252 1.386 . S
C1256 C1251 1.490 . S
C1256 C1258 1.395 . S
C1256 C1259 1.403 . S
H1257 C1263 0.930 . S
C1258 H1244 0.930 . S
C1258 C1256 1.395 . S
C1258 C1261 1.403 . S
C1259 C1256 1.403 . S
C1259 C1260 1.524 . S
C1259 C1263 1.400 . S
C1260 H1245 0.960 . S
C1260 H1246 0.960 . S
C1260 H1247 0.960 . S
C1260 C1259 1.524 . S
C1261 C1258 1.403 . S
C1261 C1262 1.392 . S
C1261 C1265 1.495 . S
C1262 C1261 1.392 . S
C1262 C1263 1.385 . S
C1262 C1264 1.478 . S
C1263 H1257 0.930 . S
C1263 C1259 1.400 . S
C1263 C1262 1.385 . S
C1264 C1262 1.478 . S
C1264 C1266 1.381 . S
C1264 C1270 1.383 . S
C1265 C1261 1.495 . S
C1265 H1271 0.959 . S
C1265 H1272 0.961 . S
C1265 H1273 0.960 . S
C1266 C1264 1.381 . S
C1266 C1267 1.394 . S
C1266 H1274 0.930 . S
C1267 C1266 1.394 . S
C1267 C1268 1.383 . S
C1267 H1275 0.929 . S
C1268 C1267 1.383 . S
C1268 C1269 1.377 . S
C1269 H1253 0.930 . S
C1269 C1268 1.377 . S
C1269 C1270 1.379 . S
C1270 H1254 0.931 . S
C1270 C1264 1.383 . S
C1270 C1269 1.379 . S
H1271 C1265 0.959 . S
H1272 C1265 0.961 . S
H1273 C1265 0.960 . S
H1274 C1266 0.930 . S
H1275 C1267 0.929 . S
H1276 C1284 0.929 . S
H1277 C1286 0.930 . S
H1278 C1288 0.930 . S
H1279 C1291 0.929 . S
H1280 C1294 0.930 . S
H1281 C1296 0.960 . S
H1282 C1296 0.960 . S
H1283 C1296 0.960 . S
C1284 H1276 0.929 . S
C1284 C1285 1.377 . S
C1284 C1286 1.384 . S
C1285 C1284 1.377 . S
C1285 C1291 1.390 . S
C1286 H1277 0.930 . S
C1286 C1284 1.384 . S
C1286 C1287 1.372 . S
C1287 C1286 1.372 . S
C1287 C1288 1.400 . S
C1287 C1292 1.490 . S
C1288 H1278 0.930 . S
C1288 C1287 1.400 . S
C1288 C1291 1.386 . S
H1289 C1305 0.930 . S
H1290 C1306 0.931 . S
C1291 H1279 0.929 . S
C1291 C1285 1.390 . S
C1291 C1288 1.386 . S
C1292 C1287 1.490 . S
C1292 C1294 1.395 . S
C1292 C1295 1.403 . S
H1293 C1299 0.930 . S
C1294 H1280 0.930 . S
C1294 C1292 1.395 . S
C1294 C1297 1.403 . S
C1295 C1292 1.403 . S
C1295 C1296 1.524 . S
C1295 C1299 1.400 . S
C1296 H1281 0.960 . S
C1296 H1282 0.960 . S
C1296 H1283 0.960 . S
C1296 C1295 1.524 . S
C1297 C1294 1.403 . S
C1297 C1298 1.392 . S
C1297 C1301 1.495 . S
C1298 C1297 1.392 . S
C1298 C1299 1.385 . S
C1298 C1300 1.478 . S
C1299 H1293 0.930 . S
C1299 C1295 1.400 . S
C1299 C1298 1.385 . S
C1300 C1298 1.478 . S
C1300 C1302 1.381 . S
C1300 C1306 1.383 . S
C1301 C1297 1.495 . S
C1301 H1307 0.959 . S
C1301 H1308 0.961 . S
C1301 H1309 0.960 . S
C1302 C1300 1.381 . S
C1302 C1303 1.394 . S
C1302 H1310 0.930 . S
C1303 C1302 1.394 . S
C1303 C1304 1.383 . S
C1303 H1311 0.929 . S
C1304 C1303 1.383 . S
C1304 C1305 1.377 . S
C1305 H1289 0.930 . S
C1305 C1304 1.377 . S
C1305 C1306 1.379 . S
C1306 H1290 0.931 . S
C1306 C1300 1.383 . S
C1306 C1305 1.379 . S
H1307 C1301 0.959 . S
H1308 C1301 0.961 . S
H1309 C1301 0.960 . S
H1310 C1302 0.930 . S
H1311 C1303 0.929 . S
H1312 C1320 0.929 . S
H1313 C1322 0.930 . S
H1314 C1324 0.930 . S
H1315 C1327 0.929 . S
H1316 C1330 0.930 . S
H1317 C1332 0.960 . S
H1318 C1332 0.960 . S
H1319 C1332 0.960 . S
C1320 H1312 0.929 . S
C1320 C1321 1.377 . S
C1320 C1322 1.384 . S
C1321 C1320 1.377 . S
C1321 C1327 1.390 . S
C1322 H1313 0.930 . S
C1322 C1320 1.384 . S
C1322 C1323 1.372 . S
C1323 C1322 1.372 . S
C1323 C1324 1.400 . S
C1323 C1328 1.490 . S
C1324 H1314 0.930 . S
C1324 C1323 1.400 . S
C1324 C1327 1.386 . S
H1325 C1341 0.930 . S
H1326 C1342 0.931 . S
C1327 H1315 0.929 . S
C1327 C1321 1.390 . S
C1327 C1324 1.386 . S
C1328 C1323 1.490 . S
C1328 C1330 1.395 . S
C1328 C1331 1.403 . S
H1329 C1335 0.930 . S
C1330 H1316 0.930 . S
C1330 C1328 1.395 . S
C1330 C1333 1.403 . S
C1331 C1328 1.403 . S
C1331 C1332 1.524 . S
C1331 C1335 1.400 . S
C1332 H1317 0.960 . S
C1332 H1318 0.960 . S
C1332 H1319 0.960 . S
C1332 C1331 1.524 . S
C1333 C1330 1.403 . S
C1333 C1334 1.392 . S
C1333 C1337 1.495 . S
C1334 C1333 1.392 . S
C1334 C1335 1.385 . S
C1334 C1336 1.478 . S
C1335 H1329 0.930 . S
C1335 C1331 1.400 . S
C1335 C1334 1.385 . S
C1336 C1334 1.478 . S
C1336 C1338 1.381 . S
C1336 C1342 1.383 . S
C1337 C1333 1.495 . S
C1337 H1343 0.959 . S
C1337 H1344 0.961 . S
C1337 H1345 0.960 . S
C1338 C1336 1.381 . S
C1338 C1339 1.394 . S
C1338 H1346 0.930 . S
C1339 C1338 1.394 . S
C1339 C1340 1.383 . S
C1339 H1347 0.929 . S
C1340 C1339 1.383 . S
C1340 C1341 1.377 . S
C1341 H1325 0.930 . S
C1341 C1340 1.377 . S
C1341 C1342 1.379 . S
C1342 H1326 0.931 . S
C1342 C1336 1.383 . S
C1342 C1341 1.379 . S
H1343 C1337 0.959 . S
H1344 C1337 0.961 . S
H1345 C1337 0.960 . S
H1346 C1338 0.930 . S
H1347 C1339 0.929 . S
H1348 C1356 0.929 . S
H1349 C1358 0.930 . S
H1350 C1360 0.930 . S
H1351 C1363 0.929 . S
H1352 C1366 0.930 . S
H1353 C1368 0.960 . S
H1354 C1368 0.960 . S
H1355 C1368 0.960 . S
C1356 H1348 0.929 . S
C1356 C1357 1.377 . S
C1356 C1358 1.384 . S
C1357 C1356 1.377 . S
C1357 C1363 1.390 . S
C1358 H1349 0.930 . S
C1358 C1356 1.384 . S
C1358 C1359 1.372 . S
C1359 C1358 1.372 . S
C1359 C1360 1.400 . S
C1359 C1364 1.490 . S
C1360 H1350 0.930 . S
C1360 C1359 1.400 . S
C1360 C1363 1.386 . S
H1361 C1377 0.930 . S
H1362 C1378 0.931 . S
C1363 H1351 0.929 . S
C1363 C1357 1.390 . S
C1363 C1360 1.386 . S
C1364 C1359 1.490 . S
C1364 C1366 1.395 . S
C1364 C1367 1.403 . S
H1365 C1371 0.930 . S
C1366 H1352 0.930 . S
C1366 C1364 1.395 . S
C1366 C1369 1.403 . S
C1367 C1364 1.403 . S
C1367 C1368 1.524 . S
C1367 C1371 1.400 . S
C1368 H1353 0.960 . S
C1368 H1354 0.960 . S
C1368 H1355 0.960 . S
C1368 C1367 1.524 . S
C1369 C1366 1.403 . S
C1369 C1370 1.392 . S
C1369 C1373 1.495 . S
C1370 C1369 1.392 . S
C1370 C1371 1.385 . S
C1370 C1372 1.478 . S
C1371 H1365 0.930 . S
C1371 C1367 1.400 . S
C1371 C1370 1.385 . S
C1372 C1370 1.478 . S
C1372 C1374 1.381 . S
C1372 C1378 1.383 . S
C1373 C1369 1.495 . S
C1373 H1379 0.959 . S
C1373 H1380 0.961 . S
C1373 H1381 0.960 . S
C1374 C1372 1.381 . S
C1374 C1375 1.394 . S
C1374 H1382 0.930 . S
C1375 C1374 1.394 . S
C1375 C1376 1.383 . S
C1375 H1383 0.929 . S
C1376 C1375 1.383 . S
C1376 C1377 1.377 . S
C1377 H1361 0.930 . S
C1377 C1376 1.377 . S
C1377 C1378 1.379 . S
C1378 H1362 0.931 . S
C1378 C1372 1.383 . S
C1378 C1377 1.379 . S
H1379 C1373 0.959 . S
H1380 C1373 0.961 . S
H1381 C1373 0.960 . S
H1382 C1374 0.930 . S
H1383 C1375 0.929 . S
H1384 C1392 0.929 . S
H1385 C1394 0.930 . S
H1386 C1396 0.930 . S
H1387 C1399 0.929 . S
H1388 C1402 0.930 . S
H1389 C1404 0.960 . S
H1390 C1404 0.960 . S
H1391 C1404 0.960 . S
C1392 H1384 0.929 . S
C1392 C1393 1.377 . S
C1392 C1394 1.384 . S
C1393 C1392 1.377 . S
C1393 C1399 1.390 . S
C1394 H1385 0.930 . S
C1394 C1392 1.384 . S
C1394 C1395 1.372 . S
C1395 C1394 1.372 . S
C1395 C1396 1.400 . S
C1395 C1400 1.490 . S
C1396 H1386 0.930 . S
C1396 C1395 1.400 . S
C1396 C1399 1.386 . S
H1397 C1413 0.930 . S
H1398 C1414 0.931 . S
C1399 H1387 0.929 . S
C1399 C1393 1.390 . S
C1399 C1396 1.386 . S
C1400 C1395 1.490 . S
C1400 C1402 1.395 . S
C1400 C1403 1.403 . S
H1401 C1407 0.930 . S
C1402 H1388 0.930 . S
C1402 C1400 1.395 . S
C1402 C1405 1.403 . S
C1403 C1400 1.403 . S
C1403 C1404 1.524 . S
C1403 C1407 1.400 . S
C1404 H1389 0.960 . S
C1404 H1390 0.960 . S
C1404 H1391 0.960 . S
C1404 C1403 1.524 . S
C1405 C1402 1.403 . S
C1405 C1406 1.392 . S
C1405 C1409 1.495 . S
C1406 C1405 1.392 . S
C1406 C1407 1.385 . S
C1406 C1408 1.478 . S
C1407 H1401 0.930 . S
C1407 C1403 1.400 . S
C1407 C1406 1.385 . S
C1408 C1406 1.478 . S
C1408 C1410 1.381 . S
C1408 C1414 1.383 . S
C1409 C1405 1.495 . S
C1409 H1415 0.959 . S
C1409 H1416 0.961 . S
C1409 H1417 0.960 . S
C1410 C1408 1.381 . S
C1410 C1411 1.394 . S
C1410 H1418 0.930 . S
C1411 C1410 1.394 . S
C1411 C1412 1.383 . S
C1411 H1419 0.929 . S
C1412 C1411 1.383 . S
C1412 C1413 1.377 . S
C1413 H1397 0.930 . S
C1413 C1412 1.377 . S
C1413 C1414 1.379 . S
C1414 H1398 0.931 . S
C1414 C1408 1.383 . S
C1414 C1413 1.379 . S
H1415 C1409 0.959 . S
H1416 C1409 0.961 . S
H1417 C1409 0.960 . S
H1418 C1410 0.930 . S
H1419 C1411 0.929 . S
H1420 C1428 0.929 . S
H1421 C1430 0.930 . S
H1422 C1432 0.930 . S
H1423 C1435 0.929 . S
H1424 C1438 0.930 . S
H1425 C1440 0.960 . S
H1426 C1440 0.960 . S
H1427 C1440 0.960 . S
C1428 H1420 0.929 . S
C1428 C1429 1.377 . S
C1428 C1430 1.384 . S
C1429 C1428 1.377 . S
C1429 C1435 1.390 . S
C1430 H1421 0.930 . S
C1430 C1428 1.384 . S
C1430 C1431 1.372 . S
C1431 C1430 1.372 . S
C1431 C1432 1.400 . S
C1431 C1436 1.490 . S
C1432 H1422 0.930 . S
C1432 C1431 1.400 . S
C1432 C1435 1.386 . S
H1433 C1449 0.930 . S
H1434 C1450 0.931 . S
C1435 H1423 0.929 . S
C1435 C1429 1.390 . S
C1435 C1432 1.386 . S
C1436 C1431 1.490 . S
C1436 C1438 1.395 . S
C1436 C1439 1.403 . S
H1437 C1443 0.930 . S
C1438 H1424 0.930 . S
C1438 C1436 1.395 . S
C1438 C1441 1.403 . S
C1439 C1436 1.403 . S
C1439 C1440 1.524 . S
C1439 C1443 1.400 . S
C1440 H1425 0.960 . S
C1440 H1426 0.960 . S
C1440 H1427 0.960 . S
C1440 C1439 1.524 . S
C1441 C1438 1.403 . S
C1441 C1442 1.392 . S
C1441 C1445 1.495 . S
C1442 C1441 1.392 . S
C1442 C1443 1.385 . S
C1442 C1444 1.478 . S
C1443 H1437 0.930 . S
C1443 C1439 1.400 . S
C1443 C1442 1.385 . S
C1444 C1442 1.478 . S
C1444 C1446 1.381 . S
C1444 C1450 1.383 . S
C1445 C1441 1.495 . S
C1445 H1451 0.959 . S
C1445 H1452 0.961 . S
C1445 H1453 0.960 . S
C1446 C1444 1.381 . S
C1446 C1447 1.394 . S
C1446 H1454 0.930 . S
C1447 C1446 1.394 . S
C1447 C1448 1.383 . S
C1447 H1455 0.929 . S
C1448 C1447 1.383 . S
C1448 C1449 1.377 . S
C1449 H1433 0.930 . S
C1449 C1448 1.377 . S
C1449 C1450 1.379 . S
C1450 H1434 0.931 . S
C1450 C1444 1.383 . S
C1450 C1449 1.379 . S
H1451 C1445 0.959 . S
H1452 C1445 0.961 . S
H1453 C1445 0.960 . S
H1454 C1446 0.930 . S
H1455 C1447 0.929 . S
H1456 C1464 0.929 . S
H1457 C1466 0.930 . S
H1458 C1468 0.930 . S
H1459 C1471 0.929 . S
H1460 C1474 0.930 . S
H1461 C1476 0.960 . S
H1462 C1476 0.960 . S
H1463 C1476 0.960 . S
C1464 H1456 0.929 . S
C1464 C1465 1.377 . S
C1464 C1466 1.384 . S
C1465 C1464 1.377 . S
C1465 C1471 1.390 . S
C1466 H1457 0.930 . S
C1466 C1464 1.384 . S
C1466 C1467 1.372 . S
C1467 C1466 1.372 . S
C1467 C1468 1.400 . S
C1467 C1472 1.490 . S
C1468 H1458 0.930 . S
C1468 C1467 1.400 . S
C1468 C1471 1.386 . S
H1469 C1485 0.930 . S
H1470 C1486 0.931 . S
C1471 H1459 0.929 . S
C1471 C1465 1.390 . S
C1471 C1468 1.386 . S
C1472 C1467 1.490 . S
C1472 C1474 1.395 . S
C1472 C1475 1.403 . S
H1473 C1479 0.930 . S
C1474 H1460 0.930 . S
C1474 C1472 1.395 . S
C1474 C1477 1.403 1_556 S
C1475 C1472 1.403 . S
C1475 C1476 1.524 . S
C1475 C1479 1.400 1_556 S
C1476 H1461 0.960 . S
C1476 H1462 0.960 . S
C1476 H1463 0.960 . S
C1476 C1475 1.524 . S
C1477 C1474 1.403 1_554 S
C1477 C1478 1.392 . S
C1477 C1481 1.495 . S
C1478 C1477 1.392 . S
C1478 C1479 1.385 . S
C1478 C1480 1.478 . S
C1479 H1473 0.930 . S
C1479 C1475 1.400 1_554 S
C1479 C1478 1.385 . S
C1480 C1478 1.478 . S
C1480 C1482 1.381 . S
C1480 C1486 1.383 . S
C1481 C1477 1.495 . S
C1481 H1487 0.959 . S
C1481 H1488 0.961 . S
C1481 H1489 0.960 . S
C1482 C1480 1.381 . S
C1482 C1483 1.394 . S
C1482 H1490 0.930 . S
C1483 C1482 1.394 . S
C1483 C1484 1.383 . S
C1483 H1491 0.929 . S
C1484 C1483 1.383 . S
C1484 C1485 1.377 . S
C1485 H1469 0.930 . S
C1485 C1484 1.377 . S
C1485 C1486 1.379 . S
C1486 H1470 0.931 . S
C1486 C1480 1.383 . S
C1486 C1485 1.379 . S
H1487 C1481 0.959 . S
H1488 C1481 0.961 . S
H1489 C1481 0.960 . S
H1490 C1482 0.930 . S
H1491 C1483 0.929 . S
H1492 C1500 0.929 . S
H1493 C1502 0.930 . S
H1494 C1504 0.930 . S
H1495 C1507 0.929 . S
H1496 C1510 0.930 . S
H1497 C1512 0.960 . S
H1498 C1512 0.960 . S
H1499 C1512 0.960 . S
C1500 H1492 0.929 . S
C1500 C1501 1.377 . S
C1500 C1502 1.384 . S
C1501 C1500 1.377 . S
C1501 C1507 1.390 . S
C1502 H1493 0.930 . S
C1502 C1500 1.384 . S
C1502 C1503 1.372 . S
C1503 C1502 1.372 . S
C1503 C1504 1.400 . S
C1503 C1508 1.490 . S
C1504 H1494 0.930 . S
C1504 C1503 1.400 . S
C1504 C1507 1.386 . S
H1505 C1521 0.930 . S
H1506 C1522 0.931 . S
C1507 H1495 0.929 . S
C1507 C1501 1.390 . S
C1507 C1504 1.386 . S
C1508 C1503 1.490 . S
C1508 C1510 1.395 . S
C1508 C1511 1.403 . S
H1509 C1515 0.930 . S
C1510 H1496 0.930 . S
C1510 C1508 1.395 . S
C1510 C1513 1.403 1_554 S
C1511 C1508 1.403 . S
C1511 C1512 1.524 . S
C1511 C1515 1.400 1_554 S
C1512 H1497 0.960 . S
C1512 H1498 0.960 . S
C1512 H1499 0.960 . S
C1512 C1511 1.524 . S
C1513 C1510 1.403 1_556 S
C1513 C1514 1.392 . S
C1513 C1517 1.495 . S
C1514 C1513 1.392 . S
C1514 C1515 1.385 . S
C1514 C1516 1.478 . S
C1515 H1509 0.930 . S
C1515 C1511 1.400 1_556 S
C1515 C1514 1.385 . S
C1516 C1514 1.478 . S
C1516 C1518 1.381 . S
C1516 C1522 1.383 . S
C1517 C1513 1.495 . S
C1517 H1523 0.959 . S
C1517 H1524 0.961 . S
C1517 H1525 0.960 . S
C1518 C1516 1.381 . S
C1518 C1519 1.394 . S
C1518 H1526 0.930 . S
C1519 C1518 1.394 . S
C1519 C1520 1.383 . S
C1519 H1527 0.929 . S
C1520 C1519 1.383 . S
C1520 C1521 1.377 . S
C1521 H1505 0.930 . S
C1521 C1520 1.377 . S
C1521 C1522 1.379 . S
C1522 H1506 0.931 . S
C1522 C1516 1.383 . S
C1522 C1521 1.379 . S
H1523 C1517 0.959 . S
H1524 C1517 0.961 . S
H1525 C1517 0.960 . S
H1526 C1518 0.930 . S
H1527 C1519 0.929 . S
H1528 C1536 0.929 . S
H1529 C1538 0.930 . S
H1530 C1540 0.930 . S
H1531 C1543 0.929 . S
H1532 C1546 0.930 . S
H1533 C1548 0.960 . S
H1534 C1548 0.960 . S
H1535 C1548 0.960 . S
C1536 H1528 0.929 . S
C1536 C1537 1.377 . S
C1536 C1538 1.384 . S
C1537 C1536 1.377 . S
C1537 C1543 1.390 . S
C1538 H1529 0.930 . S
C1538 C1536 1.384 . S
C1538 C1539 1.372 . S
C1539 C1538 1.372 . S
C1539 C1540 1.400 . S
C1539 C1544 1.490 . S
C1540 H1530 0.930 . S
C1540 C1539 1.400 . S
C1540 C1543 1.386 . S
H1541 C1557 0.930 . S
H1542 C1558 0.931 . S
C1543 H1531 0.929 . S
C1543 C1537 1.390 . S
C1543 C1540 1.386 . S
C1544 C1539 1.490 . S
C1544 C1546 1.395 . S
C1544 C1547 1.403 . S
H1545 C1551 0.930 . S
C1546 H1532 0.930 . S
C1546 C1544 1.395 . S
C1546 C1549 1.403 1_554 S
C1547 C1544 1.403 . S
C1547 C1548 1.524 . S
C1547 C1551 1.400 1_554 S
C1548 H1533 0.960 . S
C1548 H1534 0.960 . S
C1548 H1535 0.960 . S
C1548 C1547 1.524 . S
C1549 C1546 1.403 1_556 S
C1549 C1550 1.392 . S
C1549 C1553 1.495 . S
C1550 C1549 1.392 . S
C1550 C1551 1.385 . S
C1550 C1552 1.478 . S
C1551 H1545 0.930 . S
C1551 C1547 1.400 1_556 S
C1551 C1550 1.385 . S
C1552 C1550 1.478 . S
C1552 C1554 1.381 . S
C1552 C1558 1.383 . S
C1553 C1549 1.495 . S
C1553 H1559 0.959 . S
C1553 H1560 0.961 . S
C1553 H1561 0.960 . S
C1554 C1552 1.381 . S
C1554 C1555 1.394 . S
C1554 H1562 0.930 . S
C1555 C1554 1.394 . S
C1555 C1556 1.383 . S
C1555 H1563 0.929 . S
C1556 C1555 1.383 . S
C1556 C1557 1.377 . S
C1557 H1541 0.930 . S
C1557 C1556 1.377 . S
C1557 C1558 1.379 . S
C1558 H1542 0.931 . S
C1558 C1552 1.383 . S
C1558 C1557 1.379 . S
H1559 C1553 0.959 . S
H1560 C1553 0.961 . S
H1561 C1553 0.960 . S
H1562 C1554 0.930 . S
H1563 C1555 0.929 . S
H1564 C1572 0.929 . S
H1565 C1574 0.930 . S
H1566 C1576 0.930 . S
H1567 C1579 0.929 . S
H1568 C1582 0.930 . S
H1569 C1584 0.960 . S
H1570 C1584 0.960 . S
H1571 C1584 0.960 . S
C1572 H1564 0.929 . S
C1572 C1573 1.377 . S
C1572 C1574 1.384 . S
C1573 C1572 1.377 . S
C1573 C1579 1.390 . S
C1574 H1565 0.930 . S
C1574 C1572 1.384 . S
C1574 C1575 1.372 . S
C1575 C1574 1.372 . S
C1575 C1576 1.400 . S
C1575 C1580 1.490 . S
C1576 H1566 0.930 . S
C1576 C1575 1.400 . S
C1576 C1579 1.386 . S
H1577 C1593 0.930 . S
H1578 C1594 0.931 . S
C1579 H1567 0.929 . S
C1579 C1573 1.390 . S
C1579 C1576 1.386 . S
C1580 C1575 1.490 . S
C1580 C1582 1.395 . S
C1580 C1583 1.403 . S
H1581 C1587 0.930 . S
C1582 H1568 0.930 . S
C1582 C1580 1.395 . S
C1582 C1585 1.403 1_556 S
C1583 C1580 1.403 . S
C1583 C1584 1.524 . S
C1583 C1587 1.400 1_556 S
C1584 H1569 0.960 . S
C1584 H1570 0.960 . S
C1584 H1571 0.960 . S
C1584 C1583 1.524 . S
C1585 C1582 1.403 1_554 S
C1585 C1586 1.392 . S
C1585 C1589 1.495 . S
C1586 C1585 1.392 . S
C1586 C1587 1.385 . S
C1586 C1588 1.478 . S
C1587 H1581 0.930 . S
C1587 C1583 1.400 1_554 S
C1587 C1586 1.385 . S
C1588 C1586 1.478 . S
C1588 C1590 1.381 . S
C1588 C1594 1.383 . S
C1589 C1585 1.495 . S
C1589 H1595 0.959 . S
C1589 H1596 0.961 . S
C1589 H1597 0.960 . S
C1590 C1588 1.381 . S
C1590 C1591 1.394 . S
C1590 H1598 0.930 . S
C1591 C1590 1.394 . S
C1591 C1592 1.383 . S
C1591 H1599 0.929 . S
C1592 C1591 1.383 . S
C1592 C1593 1.377 . S
C1593 H1577 0.930 . S
C1593 C1592 1.377 . S
C1593 C1594 1.379 . S
C1594 H1578 0.931 . S
C1594 C1588 1.383 . S
C1594 C1593 1.379 . S
H1595 C1589 0.959 . S
H1596 C1589 0.961 . S
H1597 C1589 0.960 . S
H1598 C1590 0.930 . S
H1599 C1591 0.929 . S
H1600 C1608 0.929 . S
H1601 C1610 0.930 . S
H1602 C1612 0.930 . S
H1603 C1615 0.929 . S
H1604 C1618 0.930 . S
H1605 C1620 0.960 1_565 S
H1606 C1620 0.960 . S
H1607 C1620 0.960 . S
C1608 H1600 0.929 . S
C1608 C1609 1.377 . S
C1608 C1610 1.384 . S
C1609 C1608 1.377 . S
C1609 C1615 1.390 . S
C1610 H1601 0.930 . S
C1610 C1608 1.384 . S
C1610 C1611 1.372 . S
C1611 C1610 1.372 . S
C1611 C1612 1.400 . S
C1611 C1616 1.490 . S
C1612 H1602 0.930 . S
C1612 C1611 1.400 . S
C1612 C1615 1.386 . S
H1613 C1629 0.930 . S
H1614 C1630 0.931 . S
C1615 H1603 0.929 . S
C1615 C1609 1.390 . S
C1615 C1612 1.386 . S
C1616 C1611 1.490 . S
C1616 C1618 1.395 . S
C1616 C1619 1.403 . S
H1617 C1623 0.930 . S
C1618 H1604 0.930 . S
C1618 C1616 1.395 . S
C1618 C1621 1.403 1_545 S
C1619 C1616 1.403 . S
C1619 C1620 1.524 . S
C1619 C1623 1.400 1_545 S
C1620 H1605 0.960 1_545 S
C1620 H1606 0.960 . S
C1620 H1607 0.960 . S
C1620 C1619 1.524 . S
C1621 C1618 1.403 1_565 S
C1621 C1622 1.392 . S
C1621 C1625 1.495 . S
C1622 C1621 1.392 . S
C1622 C1623 1.385 . S
C1622 C1624 1.478 . S
C1623 H1617 0.930 . S
C1623 C1619 1.400 1_565 S
C1623 C1622 1.385 . S
C1624 C1622 1.478 . S
C1624 C1626 1.381 . S
C1624 C1630 1.383 . S
C1625 C1621 1.495 . S
C1625 H1631 0.959 1_565 S
C1625 H1632 0.961 . S
C1625 H1633 0.960 . S
C1626 C1624 1.381 . S
C1626 C1627 1.394 . S
C1626 H1634 0.930 . S
C1627 C1626 1.394 . S
C1627 C1628 1.383 . S
C1627 H1635 0.929 . S
C1628 C1627 1.383 . S
C1628 C1629 1.377 . S
C1629 H1613 0.930 . S
C1629 C1628 1.377 . S
C1629 C1630 1.379 . S
C1630 H1614 0.931 . S
C1630 C1624 1.383 . S
C1630 C1629 1.379 . S
H1631 C1625 0.959 1_545 S
H1632 C1625 0.961 . S
H1633 C1625 0.960 . S
H1634 C1626 0.930 . S
H1635 C1627 0.929 . S
H1636 C1644 0.929 . S
H1637 C1646 0.930 . S
H1638 C1648 0.930 . S
H1639 C1651 0.929 . S
H1640 C1654 0.933 . S
H1641 C1656 0.960 . S
H1642 C1656 0.960 . S
H1643 C1656 0.960 . S
C1644 H1636 0.929 . S
C1644 C1645 1.377 . S
C1644 C1646 1.384 . S
C1645 C1644 1.377 . S
C1645 C1651 1.390 . S
C1646 H1637 0.930 . S
C1646 C1644 1.384 . S
C1646 C1647 1.372 . S
C1647 C1646 1.372 . S
C1647 C1648 1.400 . S
C1647 C1652 1.490 . S
C1648 H1638 0.930 . S
C1648 C1647 1.400 . S
C1648 C1651 1.386 . S
H1649 C1665 0.930 . S
H1650 C1666 0.931 . S
C1651 H1639 0.929 . S
C1651 C1645 1.390 . S
C1651 C1648 1.386 . S
C1652 C1647 1.490 . S
C1652 C1654 1.418 . S
C1652 C1655 1.403 . S
H1653 C1659 0.930 . S
C1654 H1640 0.933 . S
C1654 C1652 1.418 . S
C1654 C1657 1.377 1_655 S
C1655 C1652 1.403 . S
C1655 C1656 1.524 . S
C1655 C1659 1.400 1_655 S
C1656 H1641 0.960 . S
C1656 H1642 0.960 . S
C1656 H1643 0.960 . S
C1656 C1655 1.524 . S
C1657 C1654 1.377 1_455 S
C1657 C1658 1.392 . S
C1657 C1661 1.495 . S
C1658 C1657 1.392 . S
C1658 C1659 1.385 . S
C1658 C1660 1.478 . S
C1659 H1653 0.930 . S
C1659 C1655 1.400 1_455 S
C1659 C1658 1.385 . S
C1660 C1658 1.478 . S
C1660 C1662 1.381 . S
C1660 C1666 1.383 . S
C1661 C1657 1.495 . S
C1661 H1667 0.959 . S
C1661 H1668 0.961 . S
C1661 H1669 0.960 . S
C1662 C1660 1.381 . S
C1662 C1663 1.394 . S
C1662 H1670 0.930 . S
C1663 C1662 1.394 . S
C1663 C1664 1.383 . S
C1663 H1671 0.929 . S
C1664 C1663 1.383 . S
C1664 C1665 1.377 . S
C1665 H1649 0.930 . S
C1665 C1664 1.377 . S
C1665 C1666 1.379 . S
C1666 H1650 0.931 . S
C1666 C1660 1.383 . S
C1666 C1665 1.379 . S
H1667 C1661 0.959 . S
H1668 C1661 0.961 . S
H1669 C1661 0.960 . S
H1670 C1662 0.930 . S
H1671 C1663 0.929 . S
H1672 C1680 0.929 . S
H1673 C1682 0.930 . S
H1674 C1684 0.930 . S
H1675 C1687 0.929 . S
H1676 C1690 0.936 . S
H1677 C1692 0.960 . S
H1678 C1692 0.960 . S
H1679 C1692 0.960 . S
C1680 H1672 0.929 . S
C1680 C1681 1.377 . S
C1680 C1682 1.384 . S
C1681 C1680 1.377 . S
C1681 C1687 1.390 . S
C1682 H1673 0.930 . S
C1682 C1680 1.384 . S
C1682 C1683 1.372 . S
C1683 C1682 1.372 . S
C1683 C1684 1.400 . S
C1683 C1688 1.490 . S
C1684 H1674 0.930 . S
C1684 C1683 1.400 . S
C1684 C1687 1.386 . S
H1685 C1701 0.930 . S
H1686 C1702 0.931 . S
C1687 H1675 0.929 . S
C1687 C1681 1.390 . S
C1687 C1684 1.386 . S
C1688 C1683 1.490 . S
C1688 C1690 1.432 . S
C1688 C1691 1.403 . S
H1689 C1695 0.930 . S
C1690 H1676 0.936 . S
C1690 C1688 1.432 . S
C1690 C1693 1.362 1_545 S
C1691 C1688 1.403 . S
C1691 C1692 1.524 . S
C1691 C1695 1.400 1_545 S
C1692 H1677 0.960 . S
C1692 H1678 0.960 . S
C1692 H1679 0.960 . S
C1692 C1691 1.524 . S
C1693 C1690 1.362 1_565 S
C1693 C1694 1.392 . S
C1693 C1697 1.495 . S
C1694 C1693 1.392 . S
C1694 C1695 1.385 . S
C1694 C1696 1.478 . S
C1695 H1689 0.930 . S
C1695 C1691 1.400 1_565 S
C1695 C1694 1.385 . S
C1696 C1694 1.478 . S
C1696 C1698 1.381 . S
C1696 C1702 1.383 . S
C1697 C1693 1.495 . S
C1697 H1703 0.959 . S
C1697 H1704 0.961 . S
C1697 H1705 0.960 . S
C1698 C1696 1.381 . S
C1698 C1699 1.394 . S
C1698 H1706 0.930 . S
C1699 C1698 1.394 . S
C1699 C1700 1.383 . S
C1699 H1707 0.929 . S
C1700 C1699 1.383 . S
C1700 C1701 1.377 . S
C1701 H1685 0.930 . S
C1701 C1700 1.377 . S
C1701 C1702 1.379 . S
C1702 H1686 0.931 . S
C1702 C1696 1.383 . S
C1702 C1701 1.379 . S
H1703 C1697 0.959 . S
H1704 C1697 0.961 . S
H1705 C1697 0.960 . S
H1706 C1698 0.930 . S
H1707 C1699 0.929 . S
H1708 C1716 0.929 . S
H1709 C1718 0.930 . S
H1710 C1720 0.930 . S
H1711 C1723 0.929 . S
H1712 C1726 0.930 . S
H1713 C1728 0.960 . S
H1714 C1728 0.960 . S
H1715 C1728 0.960 . S
C1716 H1708 0.929 . S
C1716 C1717 1.377 . S
C1716 C1718 1.384 . S
C1717 C1716 1.377 . S
C1717 C1723 1.390 . S
C1718 H1709 0.930 . S
C1718 C1716 1.384 . S
C1718 C1719 1.372 . S
C1719 C1718 1.372 . S
C1719 C1720 1.400 . S
C1719 C1724 1.490 . S
C1720 H1710 0.930 . S
C1720 C1719 1.400 . S
C1720 C1723 1.386 . S
H1721 C1737 0.930 . S
H1722 C1738 0.931 . S
C1723 H1711 0.929 . S
C1723 C1717 1.390 . S
C1723 C1720 1.386 . S
C1724 C1719 1.490 . S
C1724 C1726 1.395 . S
C1724 C1727 1.403 . S
H1725 C1731 0.930 . S
C1726 H1712 0.930 . S
C1726 C1724 1.395 . S
C1726 C1729 1.403 1_455 S
C1727 C1724 1.403 . S
C1727 C1728 1.524 . S
C1727 C1731 1.400 1_455 S
C1728 H1713 0.960 . S
C1728 H1714 0.960 . S
C1728 H1715 0.960 . S
C1728 C1727 1.524 . S
C1729 C1726 1.403 1_655 S
C1729 C1730 1.392 . S
C1729 C1733 1.495 . S
C1730 C1729 1.392 . S
C1730 C1731 1.385 . S
C1730 C1732 1.478 . S
C1731 H1725 0.930 . S
C1731 C1727 1.400 1_655 S
C1731 C1730 1.385 . S
C1732 C1730 1.478 . S
C1732 C1734 1.381 . S
C1732 C1738 1.383 . S
C1733 C1729 1.495 . S
C1733 H1739 0.959 . S
C1733 H1740 0.961 . S
C1733 H1741 0.960 . S
C1734 C1732 1.381 . S
C1734 C1735 1.394 . S
C1734 H1742 0.930 . S
C1735 C1734 1.394 . S
C1735 C1736 1.383 . S
C1735 H1743 0.929 . S
C1736 C1735 1.383 . S
C1736 C1737 1.377 . S
C1737 H1721 0.930 . S
C1737 C1736 1.377 . S
C1737 C1738 1.379 . S
C1738 H1722 0.931 . S
C1738 C1732 1.383 . S
C1738 C1737 1.379 . S
H1739 C1733 0.959 . S
H1740 C1733 0.961 . S
H1741 C1733 0.960 . S
H1742 C1734 0.930 . S
H1743 C1735 0.929 . S
H1744 C1752 0.929 . S
H1745 C1754 0.930 . S
H1746 C1756 0.930 . S
H1747 C1759 0.929 . S
H1748 C1762 0.930 . S
H1749 C1764 0.960 . S
H1750 C1764 0.960 . S
H1751 C1764 0.960 . S
C1752 H1744 0.929 . S
C1752 C1753 1.377 . S
C1752 C1754 1.384 . S
C1753 C1752 1.377 . S
C1753 C1759 1.390 . S
C1754 H1745 0.930 . S
C1754 C1752 1.384 . S
C1754 C1755 1.372 . S
C1755 C1754 1.372 . S
C1755 C1756 1.400 . S
C1755 C1760 1.490 . S
C1756 H1746 0.930 . S
C1756 C1755 1.400 . S
C1756 C1759 1.386 . S
H1757 C1773 0.930 . S
H1758 C1774 0.931 . S
C1759 H1747 0.929 . S
C1759 C1753 1.390 . S
C1759 C1756 1.386 . S
C1760 C1755 1.490 . S
C1760 C1762 1.395 . S
C1760 C1763 1.403 . S
H1761 C1767 0.930 . S
C1762 H1748 0.930 . S
C1762 C1760 1.395 . S
C1762 C1765 1.403 1_565 S
C1763 C1760 1.403 . S
C1763 C1764 1.524 . S
C1763 C1767 1.400 1_565 S
C1764 H1749 0.960 . S
C1764 H1750 0.960 . S
C1764 H1751 0.960 . S
C1764 C1763 1.524 . S
C1765 C1762 1.403 1_545 S
C1765 C1766 1.392 . S
C1765 C1769 1.495 . S
C1766 C1765 1.392 . S
C1766 C1767 1.385 . S
C1766 C1768 1.478 . S
C1767 H1761 0.930 . S
C1767 C1763 1.400 1_545 S
C1767 C1766 1.385 . S
C1768 C1766 1.478 . S
C1768 C1770 1.381 . S
C1768 C1774 1.383 . S
C1769 C1765 1.495 . S
C1769 H1775 0.959 . S
C1769 H1776 0.961 . S
C1769 H1777 0.960 . S
C1770 C1768 1.381 . S
C1770 C1771 1.394 . S
C1770 H1778 0.930 . S
C1771 C1770 1.394 . S
C1771 C1772 1.383 . S
C1771 H1779 0.929 . S
C1772 C1771 1.383 . S
C1772 C1773 1.377 . S
C1773 H1757 0.930 . S
C1773 C1772 1.377 . S
C1773 C1774 1.379 . S
C1774 H1758 0.931 . S
C1774 C1768 1.383 . S
C1774 C1773 1.379 . S
H1775 C1769 0.959 . S
H1776 C1769 0.961 . S
H1777 C1769 0.960 . S
H1778 C1770 0.930 . S
H1779 C1771 0.929 . S
H1780 C1788 0.929 . S
H1781 C1790 0.930 . S
H1782 C1792 0.930 . S
H1783 C1795 0.929 . S
H1784 C1798 0.930 . S
H1785 C1800 0.960 1_455 S
H1786 C1800 0.960 . S
H1787 C1800 0.960 . S
C1788 H1780 0.929 . S
C1788 C1789 1.377 . S
C1788 C1790 1.384 . S
C1789 C1788 1.377 . S
C1789 C1795 1.390 . S
C1790 H1781 0.930 . S
C1790 C1788 1.384 . S
C1790 C1791 1.372 . S
C1791 C1790 1.372 . S
C1791 C1792 1.400 . S
C1791 C1796 1.490 . S
C1792 H1782 0.930 . S
C1792 C1791 1.400 . S
C1792 C1795 1.386 . S
H1793 C1809 0.930 . S
H1794 C1810 0.931 . S
C1795 H1783 0.929 . S
C1795 C1789 1.390 . S
C1795 C1792 1.386 . S
C1796 C1791 1.490 . S
C1796 C1798 1.395 . S
C1796 C1799 1.403 . S
H1797 C1803 0.930 . S
C1798 H1784 0.930 . S
C1798 C1796 1.395 . S
C1798 C1801 1.403 1_655 S
C1799 C1796 1.403 . S
C1799 C1800 1.524 . S
C1799 C1803 1.400 1_655 S
C1800 H1785 0.960 1_655 S
C1800 H1786 0.960 . S
C1800 H1787 0.960 . S
C1800 C1799 1.524 . S
C1801 C1798 1.403 1_455 S
C1801 C1802 1.392 . S
C1801 C1805 1.495 . S
C1802 C1801 1.392 . S
C1802 C1803 1.385 . S
C1802 C1804 1.478 . S
C1803 H1797 0.930 . S
C1803 C1799 1.400 1_455 S
C1803 C1802 1.385 . S
C1804 C1802 1.478 . S
C1804 C1806 1.381 . S
C1804 C1810 1.383 . S
C1805 C1801 1.495 . S
C1805 H1811 0.959 1_455 S
C1805 H1812 0.961 . S
C1805 H1813 0.960 . S
C1806 C1804 1.381 . S
C1806 C1807 1.394 . S
C1806 H1814 0.930 . S
C1807 C1806 1.394 . S
C1807 C1808 1.383 . S
C1807 H1815 0.929 . S
C1808 C1807 1.383 . S
C1808 C1809 1.377 . S
C1809 H1793 0.930 . S
C1809 C1808 1.377 . S
C1809 C1810 1.379 . S
C1810 H1794 0.931 . S
C1810 C1804 1.383 . S
C1810 C1809 1.379 . S
H1811 C1805 0.959 1_655 S
H1812 C1805 0.961 . S
H1813 C1805 0.960 . S
H1814 C1806 0.930 . S
H1815 C1807 0.929 . S
H1816 C1824 0.929 . S
H1817 C1826 0.930 . S
H1818 C1828 0.930 . S
H1819 C1831 0.929 . S
H1820 C1834 0.930 . S
H1821 C1836 0.997 . S
H1822 C1836 0.941 1_565 S
H1823 C1836 0.946 1_565 S
C1824 H1816 0.929 . S
C1824 C1825 1.377 . S
C1824 C1826 1.384 . S
C1825 C1824 1.377 . S
C1825 C1831 1.390 . S
C1826 H1817 0.930 . S
C1826 C1824 1.384 . S
C1826 C1827 1.372 . S
C1827 C1826 1.372 . S
C1827 C1828 1.400 . S
C1827 C1832 1.490 . S
C1828 H1818 0.930 . S
C1828 C1827 1.400 . S
C1828 C1831 1.386 . S
H1829 C1845 0.930 . S
H1830 C1846 0.931 . S
C1831 H1819 0.929 . S
C1831 C1825 1.390 . S
C1831 C1828 1.386 . S
C1832 C1827 1.490 . S
C1832 C1834 1.395 . S
C1832 C1835 1.435 . S
H1833 C1839 0.930 . S
C1834 H1820 0.930 . S
C1834 C1832 1.395 . S
C1834 C1837 1.403 . S
C1835 C1832 1.435 . S
C1835 C1836 1.521 1_565 S
C1835 C1839 1.369 1_565 S
C1836 H1821 0.997 . S
C1836 H1822 0.941 1_545 S
C1836 H1823 0.946 1_545 S
C1836 C1835 1.521 1_545 S
C1837 C1834 1.403 . S
C1837 C1838 1.392 1_565 S
C1837 C1841 1.495 . S
C1838 C1837 1.392 1_545 S
C1838 C1839 1.385 . S
C1838 C1840 1.478 . S
C1839 H1833 0.930 . S
C1839 C1835 1.369 1_545 S
C1839 C1838 1.385 . S
C1840 C1838 1.478 . S
C1840 C1842 1.381 . S
C1840 C1846 1.383 . S
C1841 C1837 1.495 . S
C1841 H1847 0.959 . S
C1841 H1848 0.961 1_565 S
C1841 H1849 0.960 1_565 S
C1842 C1840 1.381 . S
C1842 C1843 1.394 . S
C1842 H1850 0.930 . S
C1843 C1842 1.394 . S
C1843 C1844 1.383 . S
C1843 H1851 0.929 . S
C1844 C1843 1.383 . S
C1844 C1845 1.377 . S
C1845 H1829 0.930 . S
C1845 C1844 1.377 . S
C1845 C1846 1.379 . S
C1846 H1830 0.931 . S
C1846 C1840 1.383 . S
C1846 C1845 1.379 . S
H1847 C1841 0.959 . S
H1848 C1841 0.961 1_545 S
H1849 C1841 0.960 1_545 S
H1850 C1842 0.930 . S
H1851 C1843 0.929 . S
H1852 C1860 0.929 . S
H1853 C1862 0.930 . S
H1854 C1864 0.930 . S
H1855 C1867 0.929 . S
H1856 C1870 0.930 . S
H1857 C1872 0.960 1_455 S
H1858 C1872 0.960 . S
H1859 C1872 0.960 . S
C1860 H1852 0.929 . S
C1860 C1861 1.377 . S
C1860 C1862 1.384 . S
C1861 C1860 1.377 . S
C1861 C1867 1.390 . S
C1862 H1853 0.930 . S
C1862 C1860 1.384 . S
C1862 C1863 1.372 . S
C1863 C1862 1.372 . S
C1863 C1864 1.400 . S
C1863 C1868 1.490 . S
C1864 H1854 0.930 . S
C1864 C1863 1.400 . S
C1864 C1867 1.386 . S
H1865 C1881 0.930 . S
H1866 C1882 0.931 . S
C1867 H1855 0.929 . S
C1867 C1861 1.390 . S
C1867 C1864 1.386 . S
C1868 C1863 1.490 . S
C1868 C1870 1.395 . S
C1868 C1871 1.403 . S
H1869 C1875 0.930 . S
C1870 H1856 0.930 . S
C1870 C1868 1.395 . S
C1870 C1873 1.419 . S
C1871 C1868 1.403 . S
C1871 C1872 1.524 . S
C1871 C1875 1.400 1_655 S
C1872 H1857 0.960 1_655 S
C1872 H1858 0.960 . S
C1872 H1859 0.960 . S
C1872 C1871 1.524 . S
C1873 C1870 1.419 . S
C1873 C1874 1.378 1_655 S
C1873 C1877 1.495 . S
C1874 C1873 1.378 1_455 S
C1874 C1875 1.385 . S
C1874 C1876 1.478 . S
C1875 H1869 0.930 . S
C1875 C1871 1.400 1_455 S
C1875 C1874 1.385 . S
C1876 C1874 1.478 . S
C1876 C1878 1.381 . S
C1876 C1882 1.383 . S
C1877 C1873 1.495 . S
C1877 H1883 0.980 . S
C1877 H1884 0.947 1_655 S
C1877 H1885 0.953 1_655 S
C1878 C1876 1.381 . S
C1878 C1879 1.394 . S
C1878 H1886 0.930 . S
C1879 C1878 1.394 . S
C1879 C1880 1.383 . S
C1879 H1887 0.929 . S
C1880 C1879 1.383 . S
C1880 C1881 1.377 . S
C1881 H1865 0.930 . S
C1881 C1880 1.377 . S
C1881 C1882 1.379 . S
C1882 H1866 0.931 . S
C1882 C1876 1.383 . S
C1882 C1881 1.379 . S
H1883 C1877 0.980 . S
H1884 C1877 0.947 1_455 S
H1885 C1877 0.953 1_455 S
H1886 C1878 0.930 . S
H1887 C1879 0.929 . S
H1888 C1896 0.929 . S
H1889 C1898 0.930 . S
H1890 C1900 0.930 . S
H1891 C1903 0.929 . S
H1892 C1906 0.930 . S
H1893 C1908 0.960 . S
H1894 C1908 0.960 . S
H1895 C1908 0.960 . S
C1896 H1888 0.929 . S
C1896 C1897 1.377 . S
C1896 C1898 1.384 . S
C1897 C1896 1.377 . S
C1897 C1903 1.390 . S
C1898 H1889 0.930 . S
C1898 C1896 1.384 . S
C1898 C1899 1.372 . S
C1899 C1898 1.372 . S
C1899 C1900 1.400 . S
C1899 C1904 1.490 . S
C1900 H1890 0.930 . S
C1900 C1899 1.400 . S
C1900 C1903 1.386 . S
H1901 C1917 0.930 . S
H1902 C1918 0.931 . S
C1903 H1891 0.929 . S
C1903 C1897 1.390 . S
C1903 C1900 1.386 . S
C1904 C1899 1.490 . S
C1904 C1906 1.395 . S
C1904 C1907 1.403 . S
H1905 C1911 0.930 . S
C1906 H1892 0.930 . S
C1906 C1904 1.395 . S
C1906 C1909 1.403 . S
C1907 C1904 1.403 . S
C1907 C1908 1.524 . S
C1907 C1911 1.400 . S
C1908 H1893 0.960 . S
C1908 H1894 0.960 . S
C1908 H1895 0.960 . S
C1908 C1907 1.524 . S
C1909 C1906 1.403 . S
C1909 C1910 1.392 . S
C1909 C1913 1.495 . S
C1910 C1909 1.392 . S
C1910 C1911 1.385 . S
C1910 C1912 1.478 . S
C1911 H1905 0.930 . S
C1911 C1907 1.400 . S
C1911 C1910 1.385 . S
C1912 C1910 1.478 . S
C1912 C1914 1.381 . S
C1912 C1918 1.383 . S
C1913 C1909 1.495 . S
C1913 H1919 0.959 . S
C1913 H1920 0.961 . S
C1913 H1921 0.960 . S
C1914 C1912 1.381 . S
C1914 C1915 1.394 . S
C1914 H1922 0.930 . S
C1915 C1914 1.394 . S
C1915 C1916 1.383 . S
C1915 H1923 0.929 . S
C1916 C1915 1.383 . S
C1916 C1917 1.377 . S
C1917 H1901 0.930 . S
C1917 C1916 1.377 . S
C1917 C1918 1.379 . S
C1918 H1902 0.931 . S
C1918 C1912 1.383 . S
C1918 C1917 1.379 . S
H1919 C1913 0.959 . S
H1920 C1913 0.961 . S
H1921 C1913 0.960 . S
H1922 C1914 0.930 . S
H1923 C1915 0.929 . S
H1924 C1932 0.929 . S
H1925 C1934 0.930 . S
H1926 C1936 0.930 . S
H1927 C1939 0.929 . S
H1928 C1942 0.930 . S
H1929 C1944 0.960 . S
H1930 C1944 0.960 . S
H1931 C1944 0.960 . S
C1932 H1924 0.929 . S
C1932 C1933 1.377 . S
C1932 C1934 1.384 . S
C1933 C1932 1.377 . S
C1933 C1939 1.390 . S
C1934 H1925 0.930 . S
C1934 C1932 1.384 . S
C1934 C1935 1.372 . S
C1935 C1934 1.372 . S
C1935 C1936 1.400 . S
C1935 C1940 1.490 . S
C1936 H1926 0.930 . S
C1936 C1935 1.400 . S
C1936 C1939 1.386 . S
H1937 C1953 0.930 . S
H1938 C1954 0.931 . S
C1939 H1927 0.929 . S
C1939 C1933 1.390 . S
C1939 C1936 1.386 . S
C1940 C1935 1.490 . S
C1940 C1942 1.395 . S
C1940 C1943 1.403 . S
H1941 C1947 0.930 . S
C1942 H1928 0.930 . S
C1942 C1940 1.395 . S
C1942 C1945 1.403 . S
C1943 C1940 1.403 . S
C1943 C1944 1.524 . S
C1943 C1947 1.400 . S
C1944 H1929 0.960 . S
C1944 H1930 0.960 . S
C1944 H1931 0.960 . S
C1944 C1943 1.524 . S
C1945 C1942 1.403 . S
C1945 C1946 1.392 . S
C1945 C1949 1.495 . S
C1946 C1945 1.392 . S
C1946 C1947 1.385 . S
C1946 C1948 1.478 . S
C1947 H1941 0.930 . S
C1947 C1943 1.400 . S
C1947 C1946 1.385 . S
C1948 C1946 1.478 . S
C1948 C1950 1.381 . S
C1948 C1954 1.383 . S
C1949 C1945 1.495 . S
C1949 H1955 0.959 . S
C1949 H1956 0.961 . S
C1949 H1957 0.960 . S
C1950 C1948 1.381 . S
C1950 C1951 1.394 . S
C1950 H1958 0.930 . S
C1951 C1950 1.394 . S
C1951 C1952 1.383 . S
C1951 H1959 0.929 . S
C1952 C1951 1.383 . S
C1952 C1953 1.377 . S
C1953 H1937 0.930 . S
C1953 C1952 1.377 . S
C1953 C1954 1.379 . S
C1954 H1938 0.931 . S
C1954 C1948 1.383 . S
C1954 C1953 1.379 . S
H1955 C1949 0.959 . S
H1956 C1949 0.961 . S
H1957 C1949 0.960 . S
H1958 C1950 0.930 . S
H1959 C1951 0.929 . S
H1960 C1968 0.929 . S
H1961 C1970 0.930 . S
H1962 C1972 0.930 . S
H1963 C1975 0.929 . S
H1964 C1978 0.930 . S
H1965 C1980 0.960 . S
H1966 C1980 0.960 . S
H1967 C1980 0.960 . S
C1968 H1960 0.929 . S
C1968 C1969 1.377 . S
C1968 C1970 1.384 . S
C1969 C1968 1.377 . S
C1969 C1975 1.390 . S
C1970 H1961 0.930 . S
C1970 C1968 1.384 . S
C1970 C1971 1.372 . S
C1971 C1970 1.372 . S
C1971 C1972 1.400 . S
C1971 C1976 1.490 . S
C1972 H1962 0.930 . S
C1972 C1971 1.400 . S
C1972 C1975 1.386 . S
H1973 C1989 0.930 . S
H1974 C1990 0.931 . S
C1975 H1963 0.929 . S
C1975 C1969 1.390 . S
C1975 C1972 1.386 . S
C1976 C1971 1.490 . S
C1976 C1978 1.395 . S
C1976 C1979 1.403 . S
H1977 C1983 0.930 . S
C1978 H1964 0.930 . S
C1978 C1976 1.395 . S
C1978 C1981 1.403 . S
C1979 C1976 1.403 . S
C1979 C1980 1.524 . S
C1979 C1983 1.400 . S
C1980 H1965 0.960 . S
C1980 H1966 0.960 . S
C1980 H1967 0.960 . S
C1980 C1979 1.524 . S
C1981 C1978 1.403 . S
C1981 C1982 1.392 . S
C1981 C1985 1.495 . S
C1982 C1981 1.392 . S
C1982 C1983 1.385 . S
C1982 C1984 1.478 . S
C1983 H1977 0.930 . S
C1983 C1979 1.400 . S
C1983 C1982 1.385 . S
C1984 C1982 1.478 . S
C1984 C1986 1.381 . S
C1984 C1990 1.383 . S
C1985 C1981 1.495 . S
C1985 H1991 0.959 . S
C1985 H1992 0.961 . S
C1985 H1993 0.960 . S
C1986 C1984 1.381 . S
C1986 C1987 1.394 . S
C1986 H1994 0.930 . S
C1987 C1986 1.394 . S
C1987 C1988 1.383 . S
C1987 H1995 0.929 . S
C1988 C1987 1.383 . S
C1988 C1989 1.377 . S
C1989 H1973 0.930 . S
C1989 C1988 1.377 . S
C1989 C1990 1.379 . S
C1990 H1974 0.931 . S
C1990 C1984 1.383 . S
C1990 C1989 1.379 . S
H1991 C1985 0.959 . S
H1992 C1985 0.961 . S
H1993 C1985 0.960 . S
H1994 C1986 0.930 . S
H1995 C1987 0.929 . S
H1996 C2004 0.929 . S
H1997 C2006 0.930 . S
H1998 C2008 0.930 . S
H1999 C2011 0.929 . S
H2000 C2014 0.930 . S
H2001 C2016 0.960 . S
H2002 C2016 0.960 . S
H2003 C2016 0.960 . S
C2004 H1996 0.929 . S
C2004 C2005 1.377 . S
C2004 C2006 1.384 . S
C2005 C2004 1.377 . S
C2005 C2011 1.390 . S
C2006 H1997 0.930 . S
C2006 C2004 1.384 . S
C2006 C2007 1.372 . S
C2007 C2006 1.372 . S
C2007 C2008 1.400 . S
C2007 C2012 1.490 . S
C2008 H1998 0.930 . S
C2008 C2007 1.400 . S
C2008 C2011 1.386 . S
H2009 C2025 0.930 . S
H2010 C2026 0.931 . S
C2011 H1999 0.929 . S
C2011 C2005 1.390 . S
C2011 C2008 1.386 . S
C2012 C2007 1.490 . S
C2012 C2014 1.395 . S
C2012 C2015 1.403 . S
H2013 C2019 0.930 . S
C2014 H2000 0.930 . S
C2014 C2012 1.395 . S
C2014 C2017 1.403 . S
C2015 C2012 1.403 . S
C2015 C2016 1.524 . S
C2015 C2019 1.400 . S
C2016 H2001 0.960 . S
C2016 H2002 0.960 . S
C2016 H2003 0.960 . S
C2016 C2015 1.524 . S
C2017 C2014 1.403 . S
C2017 C2018 1.392 . S
C2017 C2021 1.495 . S
C2018 C2017 1.392 . S
C2018 C2019 1.385 . S
C2018 C2020 1.478 . S
C2019 H2013 0.930 . S
C2019 C2015 1.400 . S
C2019 C2018 1.385 . S
C2020 C2018 1.478 . S
C2020 C2022 1.381 . S
C2020 C2026 1.383 . S
C2021 C2017 1.495 . S
C2021 H2027 0.959 . S
C2021 H2028 0.961 . S
C2021 H2029 0.960 . S
C2022 C2020 1.381 . S
C2022 C2023 1.394 . S
C2022 H2030 0.930 . S
C2023 C2022 1.394 . S
C2023 C2024 1.383 . S
C2023 H2031 0.929 . S
C2024 C2023 1.383 . S
C2024 C2025 1.377 . S
C2025 H2009 0.930 . S
C2025 C2024 1.377 . S
C2025 C2026 1.379 . S
C2026 H2010 0.931 . S
C2026 C2020 1.383 . S
C2026 C2025 1.379 . S
H2027 C2021 0.959 . S
H2028 C2021 0.961 . S
H2029 C2021 0.960 . S
H2030 C2022 0.930 . S
H2031 C2023 0.929 . S
H2032 C2040 0.929 . S
H2033 C2042 0.930 . S
H2034 C2044 0.930 . S
H2035 C2047 0.929 . S
H2036 C2050 0.930 . S
H2037 C2052 0.960 . S
H2038 C2052 0.960 . S
H2039 C2052 0.960 . S
C2040 H2032 0.929 . S
C2040 C2041 1.377 . S
C2040 C2042 1.384 . S
C2041 C2040 1.377 . S
C2041 C2047 1.390 . S
C2042 H2033 0.930 . S
C2042 C2040 1.384 . S
C2042 C2043 1.372 . S
C2043 C2042 1.372 . S
C2043 C2044 1.400 . S
C2043 C2048 1.490 . S
C2044 H2034 0.930 . S
C2044 C2043 1.400 . S
C2044 C2047 1.386 . S
H2045 C2061 0.930 . S
H2046 C2062 0.931 . S
C2047 H2035 0.929 . S
C2047 C2041 1.390 . S
C2047 C2044 1.386 . S
C2048 C2043 1.490 . S
C2048 C2050 1.395 . S
C2048 C2051 1.403 . S
H2049 C2055 0.930 . S
C2050 H2036 0.930 . S
C2050 C2048 1.395 . S
C2050 C2053 1.403 . S
C2051 C2048 1.403 . S
C2051 C2052 1.524 . S
C2051 C2055 1.400 . S
C2052 H2037 0.960 . S
C2052 H2038 0.960 . S
C2052 H2039 0.960 . S
C2052 C2051 1.524 . S
C2053 C2050 1.403 . S
C2053 C2054 1.392 . S
C2053 C2057 1.495 . S
C2054 C2053 1.392 . S
C2054 C2055 1.385 . S
C2054 C2056 1.478 . S
C2055 H2049 0.930 . S
C2055 C2051 1.400 . S
C2055 C2054 1.385 . S
C2056 C2054 1.478 . S
C2056 C2058 1.381 . S
C2056 C2062 1.383 . S
C2057 C2053 1.495 . S
C2057 H2063 0.959 . S
C2057 H2064 0.961 . S
C2057 H2065 0.960 . S
C2058 C2056 1.381 . S
C2058 C2059 1.394 . S
C2058 H2066 0.930 . S
C2059 C2058 1.394 . S
C2059 C2060 1.383 . S
C2059 H2067 0.929 . S
C2060 C2059 1.383 . S
C2060 C2061 1.377 . S
C2061 H2045 0.930 . S
C2061 C2060 1.377 . S
C2061 C2062 1.379 . S
C2062 H2046 0.931 . S
C2062 C2056 1.383 . S
C2062 C2061 1.379 . S
H2063 C2057 0.959 . S
H2064 C2057 0.961 . S
H2065 C2057 0.960 . S
H2066 C2058 0.930 . S
H2067 C2059 0.929 . S
H2068 C2076 0.929 . S
H2069 C2078 0.930 . S
H2070 C2080 0.930 . S
H2071 C2083 0.929 . S
H2072 C2086 0.930 . S
H2073 C2088 0.960 . S
H2074 C2088 0.960 . S
H2075 C2088 0.960 . S
C2076 H2068 0.929 . S
C2076 C2077 1.377 . S
C2076 C2078 1.384 . S
C2077 C2076 1.377 . S
C2077 C2083 1.390 . S
C2078 H2069 0.930 . S
C2078 C2076 1.384 . S
C2078 C2079 1.372 . S
C2079 C2078 1.372 . S
C2079 C2080 1.400 . S
C2079 C2084 1.490 . S
C2080 H2070 0.930 . S
C2080 C2079 1.400 . S
C2080 C2083 1.386 . S
H2081 C2097 0.930 . S
H2082 C2098 0.931 . S
C2083 H2071 0.929 . S
C2083 C2077 1.390 . S
C2083 C2080 1.386 . S
C2084 C2079 1.490 . S
C2084 C2086 1.395 . S
C2084 C2087 1.403 . S
H2085 C2091 0.930 . S
C2086 H2072 0.930 . S
C2086 C2084 1.395 . S
C2086 C2089 1.403 . S
C2087 C2084 1.403 . S
C2087 C2088 1.524 . S
C2087 C2091 1.400 . S
C2088 H2073 0.960 . S
C2088 H2074 0.960 . S
C2088 H2075 0.960 . S
C2088 C2087 1.524 . S
C2089 C2086 1.403 . S
C2089 C2090 1.392 . S
C2089 C2093 1.495 . S
C2090 C2089 1.392 . S
C2090 C2091 1.385 . S
C2090 C2092 1.478 . S
C2091 H2085 0.930 . S
C2091 C2087 1.400 . S
C2091 C2090 1.385 . S
C2092 C2090 1.478 . S
C2092 C2094 1.381 . S
C2092 C2098 1.383 . S
C2093 C2089 1.495 . S
C2093 H2099 0.959 . S
C2093 H2100 0.961 . S
C2093 H2101 0.960 . S
C2094 C2092 1.381 . S
C2094 C2095 1.394 . S
C2094 H2102 0.930 . S
C2095 C2094 1.394 . S
C2095 C2096 1.383 . S
C2095 H2103 0.929 . S
C2096 C2095 1.383 . S
C2096 C2097 1.377 . S
C2097 H2081 0.930 . S
C2097 C2096 1.377 . S
C2097 C2098 1.379 . S
C2098 H2082 0.931 . S
C2098 C2092 1.383 . S
C2098 C2097 1.379 . S
H2099 C2093 0.959 . S
H2100 C2093 0.961 . S
H2101 C2093 0.960 . S
H2102 C2094 0.930 . S
H2103 C2095 0.929 . S
H2104 C2112 0.929 . S
H2105 C2114 0.930 . S
H2106 C2116 0.930 . S
H2107 C2119 0.929 . S
H2108 C2122 0.930 . S
H2109 C2124 0.960 . S
H2110 C2124 0.960 . S
H2111 C2124 0.960 . S
C2112 H2104 0.929 . S
C2112 C2113 1.377 . S
C2112 C2114 1.384 . S
C2113 C2112 1.377 . S
C2113 C2119 1.390 . S
C2114 H2105 0.930 . S
C2114 C2112 1.384 . S
C2114 C2115 1.372 . S
C2115 C2114 1.372 . S
C2115 C2116 1.400 . S
C2115 C2120 1.490 . S
C2116 H2106 0.930 . S
C2116 C2115 1.400 . S
C2116 C2119 1.386 . S
H2117 C2133 0.930 . S
H2118 C2134 0.931 . S
C2119 H2107 0.929 . S
C2119 C2113 1.390 . S
C2119 C2116 1.386 . S
C2120 C2115 1.490 . S
C2120 C2122 1.395 . S
C2120 C2123 1.403 . S
H2121 C2127 0.930 . S
C2122 H2108 0.930 . S
C2122 C2120 1.395 . S
C2122 C2125 1.403 . S
C2123 C2120 1.403 . S
C2123 C2124 1.524 . S
C2123 C2127 1.400 . S
C2124 H2109 0.960 . S
C2124 H2110 0.960 . S
C2124 H2111 0.960 . S
C2124 C2123 1.524 . S
C2125 C2122 1.403 . S
C2125 C2126 1.392 . S
C2125 C2129 1.495 . S
C2126 C2125 1.392 . S
C2126 C2127 1.385 . S
C2126 C2128 1.478 . S
C2127 H2121 0.930 . S
C2127 C2123 1.400 . S
C2127 C2126 1.385 . S
C2128 C2126 1.478 . S
C2128 C2130 1.381 . S
C2128 C2134 1.383 . S
C2129 C2125 1.495 . S
C2129 H2135 0.959 . S
C2129 H2136 0.961 . S
C2129 H2137 0.960 . S
C2130 C2128 1.381 . S
C2130 C2131 1.394 . S
C2130 H2138 0.930 . S
C2131 C2130 1.394 . S
C2131 C2132 1.383 . S
C2131 H2139 0.929 . S
C2132 C2131 1.383 . S
C2132 C2133 1.377 . S
C2133 H2117 0.930 . S
C2133 C2132 1.377 . S
C2133 C2134 1.379 . S
C2134 H2118 0.931 . S
C2134 C2128 1.383 . S
C2134 C2133 1.379 . S
H2135 C2129 0.959 . S
H2136 C2129 0.961 . S
H2137 C2129 0.960 . S
H2138 C2130 0.930 . S
H2139 C2131 0.929 . S
H2140 C2148 0.929 . S
H2141 C2150 0.930 . S
H2142 C2152 0.930 . S
H2143 C2155 0.929 . S
H2144 C2158 0.930 . S
H2145 C2160 0.960 . S
H2146 C2160 0.960 . S
H2147 C2160 0.960 . S
C2148 H2140 0.929 . S
C2148 C2149 1.377 . S
C2148 C2150 1.384 . S
C2149 C2148 1.377 . S
C2149 C2155 1.390 . S
C2150 H2141 0.930 . S
C2150 C2148 1.384 . S
C2150 C2151 1.372 . S
C2151 C2150 1.372 . S
C2151 C2152 1.400 . S
C2151 C2156 1.490 . S
C2152 H2142 0.930 . S
C2152 C2151 1.400 . S
C2152 C2155 1.386 . S
H2153 C2169 0.930 . S
H2154 C2170 0.931 . S
C2155 H2143 0.929 . S
C2155 C2149 1.390 . S
C2155 C2152 1.386 . S
C2156 C2151 1.490 . S
C2156 C2158 1.395 . S
C2156 C2159 1.403 . S
H2157 C2163 0.930 . S
C2158 H2144 0.930 . S
C2158 C2156 1.395 . S
C2158 C2161 1.403 . S
C2159 C2156 1.403 . S
C2159 C2160 1.524 . S
C2159 C2163 1.400 . S
C2160 H2145 0.960 . S
C2160 H2146 0.960 . S
C2160 H2147 0.960 . S
C2160 C2159 1.524 . S
C2161 C2158 1.403 . S
C2161 C2162 1.392 . S
C2161 C2165 1.495 . S
C2162 C2161 1.392 . S
C2162 C2163 1.385 . S
C2162 C2164 1.478 . S
C2163 H2157 0.930 . S
C2163 C2159 1.400 . S
C2163 C2162 1.385 . S
C2164 C2162 1.478 . S
C2164 C2166 1.381 . S
C2164 C2170 1.383 . S
C2165 C2161 1.495 . S
C2165 H2171 0.959 . S
C2165 H2172 0.961 . S
C2165 H2173 0.960 . S
C2166 C2164 1.381 . S
C2166 C2167 1.394 . S
C2166 H2174 0.930 . S
C2167 C2166 1.394 . S
C2167 C2168 1.383 . S
C2167 H2175 0.929 . S
C2168 C2167 1.383 . S
C2168 C2169 1.377 . S
C2169 H2153 0.930 . S
C2169 C2168 1.377 . S
C2169 C2170 1.379 . S
C2170 H2154 0.931 . S
C2170 C2164 1.383 . S
C2170 C2169 1.379 . S
H2171 C2165 0.959 . S
H2172 C2165 0.961 . S
H2173 C2165 0.960 . S
H2174 C2166 0.930 . S
H2175 C2167 0.929 . S
H2176 C2184 0.929 . S
H2177 C2186 0.930 . S
H2178 C2188 0.930 . S
H2179 C2191 0.929 . S
H2180 C2194 0.930 . S
H2181 C2196 0.960 . S
H2182 C2196 0.960 . S
H2183 C2196 0.960 . S
C2184 H2176 0.929 . S
C2184 C2185 1.377 . S
C2184 C2186 1.384 . S
C2185 C2184 1.377 . S
C2185 C2191 1.390 . S
C2186 H2177 0.930 . S
C2186 C2184 1.384 . S
C2186 C2187 1.372 . S
C2187 C2186 1.372 . S
C2187 C2188 1.400 . S
C2187 C2192 1.490 . S
C2188 H2178 0.930 . S
C2188 C2187 1.400 . S
C2188 C2191 1.386 . S
H2189 C2205 0.930 . S
H2190 C2206 0.931 . S
C2191 H2179 0.929 . S
C2191 C2185 1.390 . S
C2191 C2188 1.386 . S
C2192 C2187 1.490 . S
C2192 C2194 1.395 . S
C2192 C2195 1.403 . S
H2193 C2199 0.930 . S
C2194 H2180 0.930 . S
C2194 C2192 1.395 . S
C2194 C2197 1.403 . S
C2195 C2192 1.403 . S
C2195 C2196 1.524 . S
C2195 C2199 1.400 . S
C2196 H2181 0.960 . S
C2196 H2182 0.960 . S
C2196 H2183 0.960 . S
C2196 C2195 1.524 . S
C2197 C2194 1.403 . S
C2197 C2198 1.392 . S
C2197 C2201 1.495 . S
C2198 C2197 1.392 . S
C2198 C2199 1.385 . S
C2198 C2200 1.478 . S
C2199 H2193 0.930 . S
C2199 C2195 1.400 . S
C2199 C2198 1.385 . S
C2200 C2198 1.478 . S
C2200 C2202 1.381 . S
C2200 C2206 1.383 . S
C2201 C2197 1.495 . S
C2201 H2207 0.959 . S
C2201 H2208 0.961 . S
C2201 H2209 0.960 . S
C2202 C2200 1.381 . S
C2202 C2203 1.394 . S
C2202 H2210 0.930 . S
C2203 C2202 1.394 . S
C2203 C2204 1.383 . S
C2203 H2211 0.929 . S
C2204 C2203 1.383 . S
C2204 C2205 1.377 . S
C2205 H2189 0.930 . S
C2205 C2204 1.377 . S
C2205 C2206 1.379 . S
C2206 H2190 0.931 . S
C2206 C2200 1.383 . S
C2206 C2205 1.379 . S
H2207 C2201 0.959 . S
H2208 C2201 0.961 . S
H2209 C2201 0.960 . S
H2210 C2202 0.930 . S
H2211 C2203 0.929 . S
H2212 C2220 0.929 . S
H2213 C2222 0.930 . S
H2214 C2224 0.930 . S
H2215 C2227 0.929 . S
H2216 C2230 0.930 . S
H2217 C2232 0.960 . S
H2218 C2232 0.960 . S
H2219 C2232 0.960 . S
C2220 H2212 0.929 . S
C2220 C2221 1.377 . S
C2220 C2222 1.384 . S
C2221 C2220 1.377 . S
C2221 C2227 1.390 . S
C2222 H2213 0.930 . S
C2222 C2220 1.384 . S
C2222 C2223 1.372 . S
C2223 C2222 1.372 . S
C2223 C2224 1.400 . S
C2223 C2228 1.490 . S
C2224 H2214 0.930 . S
C2224 C2223 1.400 . S
C2224 C2227 1.386 . S
H2225 C2241 0.930 . S
H2226 C2242 0.931 . S
C2227 H2215 0.929 . S
C2227 C2221 1.390 . S
C2227 C2224 1.386 . S
C2228 C2223 1.490 . S
C2228 C2230 1.395 . S
C2228 C2231 1.403 . S
H2229 C2235 0.930 . S
C2230 H2216 0.930 . S
C2230 C2228 1.395 . S
C2230 C2233 1.403 . S
C2231 C2228 1.403 . S
C2231 C2232 1.524 . S
C2231 C2235 1.400 . S
C2232 H2217 0.960 . S
C2232 H2218 0.960 . S
C2232 H2219 0.960 . S
C2232 C2231 1.524 . S
C2233 C2230 1.403 . S
C2233 C2234 1.392 . S
C2233 C2237 1.495 . S
C2234 C2233 1.392 . S
C2234 C2235 1.385 . S
C2234 C2236 1.478 . S
C2235 H2229 0.930 . S
C2235 C2231 1.400 . S
C2235 C2234 1.385 . S
C2236 C2234 1.478 . S
C2236 C2238 1.381 . S
C2236 C2242 1.383 . S
C2237 C2233 1.495 . S
C2237 H2243 0.959 . S
C2237 H2244 0.961 . S
C2237 H2245 0.960 . S
C2238 C2236 1.381 . S
C2238 C2239 1.394 . S
C2238 H2246 0.930 . S
C2239 C2238 1.394 . S
C2239 C2240 1.383 . S
C2239 H2247 0.929 . S
C2240 C2239 1.383 . S
C2240 C2241 1.377 . S
C2241 H2225 0.930 . S
C2241 C2240 1.377 . S
C2241 C2242 1.379 . S
C2242 H2226 0.931 . S
C2242 C2236 1.383 . S
C2242 C2241 1.379 . S
H2243 C2237 0.959 . S
H2244 C2237 0.961 . S
H2245 C2237 0.960 . S
H2246 C2238 0.930 . S
H2247 C2239 0.929 . S
H2248 C2256 0.929 . S
H2249 C2258 0.930 . S
H2250 C2260 0.930 . S
H2251 C2263 0.929 . S
H2252 C2266 0.930 . S
H2253 C2268 0.960 . S
H2254 C2268 0.960 . S
H2255 C2268 0.960 . S
C2256 H2248 0.929 . S
C2256 C2257 1.377 . S
C2256 C2258 1.384 . S
C2257 C2256 1.377 . S
C2257 C2263 1.390 . S
C2258 H2249 0.930 . S
C2258 C2256 1.384 . S
C2258 C2259 1.372 . S
C2259 C2258 1.372 . S
C2259 C2260 1.400 . S
C2259 C2264 1.490 . S
C2260 H2250 0.930 . S
C2260 C2259 1.400 . S
C2260 C2263 1.386 . S
H2261 C2277 0.930 . S
H2262 C2278 0.931 . S
C2263 H2251 0.929 . S
C2263 C2257 1.390 . S
C2263 C2260 1.386 . S
C2264 C2259 1.490 . S
C2264 C2266 1.395 . S
C2264 C2267 1.403 . S
H2265 C2271 0.930 . S
C2266 H2252 0.930 . S
C2266 C2264 1.395 . S
C2266 C2269 1.403 . S
C2267 C2264 1.403 . S
C2267 C2268 1.524 . S
C2267 C2271 1.400 . S
C2268 H2253 0.960 . S
C2268 H2254 0.960 . S
C2268 H2255 0.960 . S
C2268 C2267 1.524 . S
C2269 C2266 1.403 . S
C2269 C2270 1.392 . S
C2269 C2273 1.495 . S
C2270 C2269 1.392 . S
C2270 C2271 1.385 . S
C2270 C2272 1.478 . S
C2271 H2265 0.930 . S
C2271 C2267 1.400 . S
C2271 C2270 1.385 . S
C2272 C2270 1.478 . S
C2272 C2274 1.381 . S
C2272 C2278 1.383 . S
C2273 C2269 1.495 . S
C2273 H2279 0.959 . S
C2273 H2280 0.961 . S
C2273 H2281 0.960 . S
C2274 C2272 1.381 . S
C2274 C2275 1.394 . S
C2274 H2282 0.930 . S
C2275 C2274 1.394 . S
C2275 C2276 1.383 . S
C2275 H2283 0.929 . S
C2276 C2275 1.383 . S
C2276 C2277 1.377 . S
C2277 H2261 0.930 . S
C2277 C2276 1.377 . S
C2277 C2278 1.379 . S
C2278 H2262 0.931 . S
C2278 C2272 1.383 . S
C2278 C2277 1.379 . S
H2279 C2273 0.959 . S
H2280 C2273 0.961 . S
H2281 C2273 0.960 . S
H2282 C2274 0.930 . S
H2283 C2275 0.929 . S
H2284 C2292 0.929 . S
H2285 C2294 0.930 . S
H2286 C2296 0.930 . S
H2287 C2299 0.929 . S
H2288 C2302 0.930 . S
H2289 C2304 0.960 . S
H2290 C2304 0.960 . S
H2291 C2304 0.960 . S
C2292 H2284 0.929 . S
C2292 C2293 1.377 . S
C2292 C2294 1.384 . S
C2293 C2292 1.377 . S
C2293 C2299 1.390 . S
C2294 H2285 0.930 . S
C2294 C2292 1.384 . S
C2294 C2295 1.372 . S
C2295 C2294 1.372 . S
C2295 C2296 1.400 . S
C2295 C2300 1.490 . S
C2296 H2286 0.930 . S
C2296 C2295 1.400 . S
C2296 C2299 1.386 . S
H2297 C2313 0.930 . S
H2298 C2314 0.931 . S
C2299 H2287 0.929 . S
C2299 C2293 1.390 . S
C2299 C2296 1.386 . S
C2300 C2295 1.490 . S
C2300 C2302 1.395 . S
C2300 C2303 1.403 . S
H2301 C2307 0.930 . S
C2302 H2288 0.930 . S
C2302 C2300 1.395 . S
C2302 C2305 1.403 . S
C2303 C2300 1.403 . S
C2303 C2304 1.524 . S
C2303 C2307 1.400 . S
C2304 H2289 0.960 . S
C2304 H2290 0.960 . S
C2304 H2291 0.960 . S
C2304 C2303 1.524 . S
C2305 C2302 1.403 . S
C2305 C2306 1.392 . S
C2305 C2309 1.495 . S
C2306 C2305 1.392 . S
C2306 C2307 1.385 . S
C2306 C2308 1.478 . S
C2307 H2301 0.930 . S
C2307 C2303 1.400 . S
C2307 C2306 1.385 . S
C2308 C2306 1.478 . S
C2308 C2310 1.381 . S
C2308 C2314 1.383 . S
C2309 C2305 1.495 . S
C2309 H2315 0.959 . S
C2309 H2316 0.961 . S
C2309 H2317 0.960 . S
C2310 C2308 1.381 . S
C2310 C2311 1.394 . S
C2310 H2318 0.930 . S
C2311 C2310 1.394 . S
C2311 C2312 1.383 . S
C2311 H2319 0.929 . S
C2312 C2311 1.383 . S
C2312 C2313 1.377 . S
C2313 H2297 0.930 . S
C2313 C2312 1.377 . S
C2313 C2314 1.379 . S
C2314 H2298 0.931 . S
C2314 C2308 1.383 . S
C2314 C2313 1.379 . S
H2315 C2309 0.959 . S
H2316 C2309 0.961 . S
H2317 C2309 0.960 . S
H2318 C2310 0.930 . S
H2319 C2311 0.929 . S
H2320 C2328 0.929 . S
H2321 C2330 0.930 . S
H2322 C2332 0.930 . S
H2323 C2335 0.929 . S
H2324 C2338 0.930 . S
H2325 C2340 0.960 . S
H2326 C2340 0.960 . S
H2327 C2340 0.960 . S
C2328 H2320 0.929 . S
C2328 C2329 1.377 . S
C2328 C2330 1.384 . S
C2329 C2328 1.377 . S
C2329 C2335 1.390 . S
C2330 H2321 0.930 . S
C2330 C2328 1.384 . S
C2330 C2331 1.372 . S
C2331 C2330 1.372 . S
C2331 C2332 1.400 . S
C2331 C2336 1.490 . S
C2332 H2322 0.930 . S
C2332 C2331 1.400 . S
C2332 C2335 1.386 . S
H2333 C2349 0.930 . S
H2334 C2350 0.931 . S
C2335 H2323 0.929 . S
C2335 C2329 1.390 . S
C2335 C2332 1.386 . S
C2336 C2331 1.490 . S
C2336 C2338 1.395 . S
C2336 C2339 1.403 . S
H2337 C2343 0.930 . S
C2338 H2324 0.930 . S
C2338 C2336 1.395 . S
C2338 C2341 1.403 . S
C2339 C2336 1.403 . S
C2339 C2340 1.524 . S
C2339 C2343 1.400 . S
C2340 H2325 0.960 . S
C2340 H2326 0.960 . S
C2340 H2327 0.960 . S
C2340 C2339 1.524 . S
C2341 C2338 1.403 . S
C2341 C2342 1.392 . S
C2341 C2345 1.495 . S
C2342 C2341 1.392 . S
C2342 C2343 1.385 . S
C2342 C2344 1.478 . S
C2343 H2337 0.930 . S
C2343 C2339 1.400 . S
C2343 C2342 1.385 . S
C2344 C2342 1.478 . S
C2344 C2346 1.381 . S
C2344 C2350 1.383 . S
C2345 C2341 1.495 . S
C2345 H2351 0.959 . S
C2345 H2352 0.961 . S
C2345 H2353 0.960 . S
C2346 C2344 1.381 . S
C2346 C2347 1.394 . S
C2346 H2354 0.930 . S
C2347 C2346 1.394 . S
C2347 C2348 1.383 . S
C2347 H2355 0.929 . S
C2348 C2347 1.383 . S
C2348 C2349 1.377 . S
C2349 H2333 0.930 . S
C2349 C2348 1.377 . S
C2349 C2350 1.379 . S
C2350 H2334 0.931 . S
C2350 C2344 1.383 . S
C2350 C2349 1.379 . S
H2351 C2345 0.959 . S
H2352 C2345 0.961 . S
H2353 C2345 0.960 . S
H2354 C2346 0.930 . S
H2355 C2347 0.929 . S
H2356 C2364 0.929 . S
H2357 C2366 0.930 . S
H2358 C2368 0.930 . S
H2359 C2371 0.929 . S
H2360 C2374 0.930 . S
H2361 C2376 0.960 . S
H2362 C2376 0.960 . S
H2363 C2376 0.960 . S
C2364 H2356 0.929 . S
C2364 C2365 1.377 . S
C2364 C2366 1.384 . S
C2365 C2364 1.377 . S
C2365 C2371 1.390 . S
C2366 H2357 0.930 . S
C2366 C2364 1.384 . S
C2366 C2367 1.372 . S
C2367 C2366 1.372 . S
C2367 C2368 1.400 . S
C2367 C2372 1.490 . S
C2368 H2358 0.930 . S
C2368 C2367 1.400 . S
C2368 C2371 1.386 . S
H2369 C2385 0.930 . S
H2370 C2386 0.931 . S
C2371 H2359 0.929 . S
C2371 C2365 1.390 . S
C2371 C2368 1.386 . S
C2372 C2367 1.490 . S
C2372 C2374 1.395 . S
C2372 C2375 1.403 . S
H2373 C2379 0.930 . S
C2374 H2360 0.930 . S
C2374 C2372 1.395 . S
C2374 C2377 1.403 . S
C2375 C2372 1.403 . S
C2375 C2376 1.524 . S
C2375 C2379 1.400 . S
C2376 H2361 0.960 . S
C2376 H2362 0.960 . S
C2376 H2363 0.960 . S
C2376 C2375 1.524 . S
C2377 C2374 1.403 . S
C2377 C2378 1.392 . S
C2377 C2381 1.495 . S
C2378 C2377 1.392 . S
C2378 C2379 1.385 . S
C2378 C2380 1.478 . S
C2379 H2373 0.930 . S
C2379 C2375 1.400 . S
C2379 C2378 1.385 . S
C2380 C2378 1.478 . S
C2380 C2382 1.381 . S
C2380 C2386 1.383 . S
C2381 C2377 1.495 . S
C2381 H2387 0.959 . S
C2381 H2388 0.961 . S
C2381 H2389 0.960 . S
C2382 C2380 1.381 . S
C2382 C2383 1.394 . S
C2382 H2390 0.930 . S
C2383 C2382 1.394 . S
C2383 C2384 1.383 . S
C2383 H2391 0.929 . S
C2384 C2383 1.383 . S
C2384 C2385 1.377 . S
C2385 H2369 0.930 . S
C2385 C2384 1.377 . S
C2385 C2386 1.379 . S
C2386 H2370 0.931 . S
C2386 C2380 1.383 . S
C2386 C2385 1.379 . S
H2387 C2381 0.959 . S
H2388 C2381 0.961 . S
H2389 C2381 0.960 . S
H2390 C2382 0.930 . S
H2391 C2383 0.929 . S
H2392 C2400 0.929 . S
H2393 C2402 0.930 . S
H2394 C2404 0.930 . S
H2395 C2407 0.929 . S
H2396 C2410 0.930 . S
H2397 C2412 0.960 . S
H2398 C2412 0.960 . S
H2399 C2412 0.960 . S
C2400 H2392 0.929 . S
C2400 C2401 1.377 . S
C2400 C2402 1.384 . S
C2401 C2400 1.377 . S
C2401 C2407 1.390 . S
C2402 H2393 0.930 . S
C2402 C2400 1.384 . S
C2402 C2403 1.372 . S
C2403 C2402 1.372 . S
C2403 C2404 1.400 . S
C2403 C2408 1.490 . S
C2404 H2394 0.930 . S
C2404 C2403 1.400 . S
C2404 C2407 1.386 . S
H2405 C2421 0.930 . S
H2406 C2422 0.931 . S
C2407 H2395 0.929 . S
C2407 C2401 1.390 . S
C2407 C2404 1.386 . S
C2408 C2403 1.490 . S
C2408 C2410 1.395 . S
C2408 C2411 1.403 . S
H2409 C2415 0.930 . S
C2410 H2396 0.930 . S
C2410 C2408 1.395 . S
C2410 C2413 1.403 . S
C2411 C2408 1.403 . S
C2411 C2412 1.524 . S
C2411 C2415 1.400 . S
C2412 H2397 0.960 . S
C2412 H2398 0.960 . S
C2412 H2399 0.960 . S
C2412 C2411 1.524 . S
C2413 C2410 1.403 . S
C2413 C2414 1.392 . S
C2413 C2417 1.495 . S
C2414 C2413 1.392 . S
C2414 C2415 1.385 . S
C2414 C2416 1.478 . S
C2415 H2409 0.930 . S
C2415 C2411 1.400 . S
C2415 C2414 1.385 . S
C2416 C2414 1.478 . S
C2416 C2418 1.381 . S
C2416 C2422 1.383 . S
C2417 C2413 1.495 . S
C2417 H2423 0.959 . S
C2417 H2424 0.961 . S
C2417 H2425 0.960 . S
C2418 C2416 1.381 . S
C2418 C2419 1.394 . S
C2418 H2426 0.930 . S
C2419 C2418 1.394 . S
C2419 C2420 1.383 . S
C2419 H2427 0.929 . S
C2420 C2419 1.383 . S
C2420 C2421 1.377 . S
C2421 H2405 0.930 . S
C2421 C2420 1.377 . S
C2421 C2422 1.379 . S
C2422 H2406 0.931 . S
C2422 C2416 1.383 . S
C2422 C2421 1.379 . S
H2423 C2417 0.959 . S
H2424 C2417 0.961 . S
H2425 C2417 0.960 . S
H2426 C2418 0.930 . S
H2427 C2419 0.929 . S
H2428 C2436 0.929 . S
H2429 C2438 0.930 . S
H2430 C2440 0.930 . S
H2431 C2443 0.929 . S
H2432 C2446 0.930 . S
H2433 C2448 0.960 . S
H2434 C2448 0.960 . S
H2435 C2448 0.960 . S
C2436 H2428 0.929 . S
C2436 C2437 1.377 . S
C2436 C2438 1.384 . S
C2437 C2436 1.377 . S
C2437 C2443 1.390 . S
C2438 H2429 0.930 . S
C2438 C2436 1.384 . S
C2438 C2439 1.372 . S
C2439 C2438 1.372 . S
C2439 C2440 1.400 . S
C2439 C2444 1.490 . S
C2440 H2430 0.930 . S
C2440 C2439 1.400 . S
C2440 C2443 1.386 . S
H2441 C2457 0.930 . S
H2442 C2458 0.931 . S
C2443 H2431 0.929 . S
C2443 C2437 1.390 . S
C2443 C2440 1.386 . S
C2444 C2439 1.490 . S
C2444 C2446 1.395 . S
C2444 C2447 1.403 . S
H2445 C2451 0.930 . S
C2446 H2432 0.930 . S
C2446 C2444 1.395 . S
C2446 C2449 1.403 . S
C2447 C2444 1.403 . S
C2447 C2448 1.524 . S
C2447 C2451 1.400 . S
C2448 H2433 0.960 . S
C2448 H2434 0.960 . S
C2448 H2435 0.960 . S
C2448 C2447 1.524 . S
C2449 C2446 1.403 . S
C2449 C2450 1.392 . S
C2449 C2453 1.495 . S
C2450 C2449 1.392 . S
C2450 C2451 1.385 . S
C2450 C2452 1.478 . S
C2451 H2445 0.930 . S
C2451 C2447 1.400 . S
C2451 C2450 1.385 . S
C2452 C2450 1.478 . S
C2452 C2454 1.381 . S
C2452 C2458 1.383 . S
C2453 C2449 1.495 . S
C2453 H2459 0.959 . S
C2453 H2460 0.961 . S
C2453 H2461 0.960 . S
C2454 C2452 1.381 . S
C2454 C2455 1.394 . S
C2454 H2462 0.930 . S
C2455 C2454 1.394 . S
C2455 C2456 1.383 . S
C2455 H2463 0.929 . S
C2456 C2455 1.383 . S
C2456 C2457 1.377 . S
C2457 H2441 0.930 . S
C2457 C2456 1.377 . S
C2457 C2458 1.379 . S
C2458 H2442 0.931 . S
C2458 C2452 1.383 . S
C2458 C2457 1.379 . S
H2459 C2453 0.959 . S
H2460 C2453 0.961 . S
H2461 C2453 0.960 . S
H2462 C2454 0.930 . S
H2463 C2455 0.929 . S
H2464 C2472 0.929 . S
H2465 C2474 0.930 . S
H2466 C2476 0.930 . S
H2467 C2479 0.929 . S
H2468 C2482 0.930 . S
H2469 C2484 0.960 . S
H2470 C2484 0.960 . S
H2471 C2484 0.960 . S
C2472 H2464 0.929 . S
C2472 C2473 1.377 . S
C2472 C2474 1.384 . S
C2473 C2472 1.377 . S
C2473 C2479 1.390 . S
C2474 H2465 0.930 . S
C2474 C2472 1.384 . S
C2474 C2475 1.372 . S
C2475 C2474 1.372 . S
C2475 C2476 1.400 . S
C2475 C2480 1.490 . S
C2476 H2466 0.930 . S
C2476 C2475 1.400 . S
C2476 C2479 1.386 . S
H2477 C2493 0.930 . S
H2478 C2494 0.931 . S
C2479 H2467 0.929 . S
C2479 C2473 1.390 . S
C2479 C2476 1.386 . S
C2480 C2475 1.490 . S
C2480 C2482 1.395 . S
C2480 C2483 1.403 . S
H2481 C2487 0.930 . S
C2482 H2468 0.930 . S
C2482 C2480 1.395 . S
C2482 C2485 1.403 . S
C2483 C2480 1.403 . S
C2483 C2484 1.524 . S
C2483 C2487 1.400 . S
C2484 H2469 0.960 . S
C2484 H2470 0.960 . S
C2484 H2471 0.960 . S
C2484 C2483 1.524 . S
C2485 C2482 1.403 . S
C2485 C2486 1.392 . S
C2485 C2489 1.495 . S
C2486 C2485 1.392 . S
C2486 C2487 1.385 . S
C2486 C2488 1.478 . S
C2487 H2481 0.930 . S
C2487 C2483 1.400 . S
C2487 C2486 1.385 . S
C2488 C2486 1.478 . S
C2488 C2490 1.381 . S
C2488 C2494 1.383 . S
C2489 C2485 1.495 . S
C2489 H2495 0.959 . S
C2489 H2496 0.961 . S
C2489 H2497 0.960 . S
C2490 C2488 1.381 . S
C2490 C2491 1.394 . S
C2490 H2498 0.930 . S
C2491 C2490 1.394 . S
C2491 C2492 1.383 . S
C2491 H2499 0.929 . S
C2492 C2491 1.383 . S
C2492 C2493 1.377 . S
C2493 H2477 0.930 . S
C2493 C2492 1.377 . S
C2493 C2494 1.379 . S
C2494 H2478 0.931 . S
C2494 C2488 1.383 . S
C2494 C2493 1.379 . S
H2495 C2489 0.959 . S
H2496 C2489 0.961 . S
H2497 C2489 0.960 . S
H2498 C2490 0.930 . S
H2499 C2491 0.929 . S
H2500 C2508 0.929 . S
H2501 C2510 0.930 . S
H2502 C2512 0.930 . S
H2503 C2515 0.929 . S
H2504 C2518 0.930 . S
H2505 C2520 0.960 . S
H2506 C2520 0.960 . S
H2507 C2520 0.960 . S
C2508 H2500 0.929 . S
C2508 C2509 1.377 . S
C2508 C2510 1.384 . S
C2509 C2508 1.377 . S
C2509 C2515 1.390 . S
C2510 H2501 0.930 . S
C2510 C2508 1.384 . S
C2510 C2511 1.372 . S
C2511 C2510 1.372 . S
C2511 C2512 1.400 . S
C2511 C2516 1.490 . S
C2512 H2502 0.930 . S
C2512 C2511 1.400 . S
C2512 C2515 1.386 . S
H2513 C2529 0.930 . S
H2514 C2530 0.931 . S
C2515 H2503 0.929 . S
C2515 C2509 1.390 . S
C2515 C2512 1.386 . S
C2516 C2511 1.490 . S
C2516 C2518 1.395 . S
C2516 C2519 1.403 . S
H2517 C2523 0.930 . S
C2518 H2504 0.930 . S
C2518 C2516 1.395 . S
C2518 C2521 1.403 . S
C2519 C2516 1.403 . S
C2519 C2520 1.524 . S
C2519 C2523 1.400 . S
C2520 H2505 0.960 . S
C2520 H2506 0.960 . S
C2520 H2507 0.960 . S
C2520 C2519 1.524 . S
C2521 C2518 1.403 . S
C2521 C2522 1.392 . S
C2521 C2525 1.495 . S
C2522 C2521 1.392 . S
C2522 C2523 1.385 . S
C2522 C2524 1.478 . S
C2523 H2517 0.930 . S
C2523 C2519 1.400 . S
C2523 C2522 1.385 . S
C2524 C2522 1.478 . S
C2524 C2526 1.381 . S
C2524 C2530 1.383 . S
C2525 C2521 1.495 . S
C2525 H2531 0.959 . S
C2525 H2532 0.961 . S
C2525 H2533 0.960 . S
C2526 C2524 1.381 . S
C2526 C2527 1.394 . S
C2526 H2534 0.930 . S
C2527 C2526 1.394 . S
C2527 C2528 1.383 . S
C2527 H2535 0.929 . S
C2528 C2527 1.383 . S
C2528 C2529 1.377 . S
C2529 H2513 0.930 . S
C2529 C2528 1.377 . S
C2529 C2530 1.379 . S
C2530 H2514 0.931 . S
C2530 C2524 1.383 . S
C2530 C2529 1.379 . S
H2531 C2525 0.959 . S
H2532 C2525 0.961 . S
H2533 C2525 0.960 . S
H2534 C2526 0.930 . S
H2535 C2527 0.929 . S
H2536 C2544 0.929 . S
H2537 C2546 0.930 . S
H2538 C2548 0.930 . S
H2539 C2551 0.929 . S
H2540 C2554 0.930 . S
H2541 C2556 0.960 . S
H2542 C2556 0.960 . S
H2543 C2556 0.960 . S
C2544 H2536 0.929 . S
C2544 C2545 1.377 . S
C2544 C2546 1.384 . S
C2545 C2544 1.377 . S
C2545 C2551 1.390 . S
C2546 H2537 0.930 . S
C2546 C2544 1.384 . S
C2546 C2547 1.372 . S
C2547 C2546 1.372 . S
C2547 C2548 1.400 . S
C2547 C2552 1.490 . S
C2548 H2538 0.930 . S
C2548 C2547 1.400 . S
C2548 C2551 1.386 . S
H2549 C2565 0.930 . S
H2550 C2566 0.931 . S
C2551 H2539 0.929 . S
C2551 C2545 1.390 . S
C2551 C2548 1.386 . S
C2552 C2547 1.490 . S
C2552 C2554 1.395 . S
C2552 C2555 1.403 . S
H2553 C2559 0.930 . S
C2554 H2540 0.930 . S
C2554 C2552 1.395 . S
C2554 C2557 1.403 . S
C2555 C2552 1.403 . S
C2555 C2556 1.524 . S
C2555 C2559 1.400 . S
C2556 H2541 0.960 . S
C2556 H2542 0.960 . S
C2556 H2543 0.960 . S
C2556 C2555 1.524 . S
C2557 C2554 1.403 . S
C2557 C2558 1.392 . S
C2557 C2561 1.495 . S
C2558 C2557 1.392 . S
C2558 C2559 1.385 . S
C2558 C2560 1.478 . S
C2559 H2553 0.930 . S
C2559 C2555 1.400 . S
C2559 C2558 1.385 . S
C2560 C2558 1.478 . S
C2560 C2562 1.381 . S
C2560 C2566 1.383 . S
C2561 C2557 1.495 . S
C2561 H2567 0.959 . S
C2561 H2568 0.961 . S
C2561 H2569 0.960 . S
C2562 C2560 1.381 . S
C2562 C2563 1.394 . S
C2562 H2570 0.930 . S
C2563 C2562 1.394 . S
C2563 C2564 1.383 . S
C2563 H2571 0.929 . S
C2564 C2563 1.383 . S
C2564 C2565 1.377 . S
C2565 H2549 0.930 . S
C2565 C2564 1.377 . S
C2565 C2566 1.379 . S
C2566 H2550 0.931 . S
C2566 C2560 1.383 . S
C2566 C2565 1.379 . S
H2567 C2561 0.959 . S
H2568 C2561 0.961 . S
H2569 C2561 0.960 . S
H2570 C2562 0.930 . S
H2571 C2563 0.929 . S
H2572 C2580 0.929 . S
H2573 C2582 0.930 . S
H2574 C2584 0.930 . S
H2575 C2587 0.929 . S
H2576 C2590 0.930 . S
H2577 C2592 0.960 . S
H2578 C2592 0.960 . S
H2579 C2592 0.960 . S
C2580 H2572 0.929 . S
C2580 C2581 1.377 . S
C2580 C2582 1.384 . S
C2581 C2580 1.377 . S
C2581 C2587 1.390 . S
C2582 H2573 0.930 . S
C2582 C2580 1.384 . S
C2582 C2583 1.372 . S
C2583 C2582 1.372 . S
C2583 C2584 1.400 . S
C2583 C2588 1.490 . S
C2584 H2574 0.930 . S
C2584 C2583 1.400 . S
C2584 C2587 1.386 . S
H2585 C2601 0.930 . S
H2586 C2602 0.931 . S
C2587 H2575 0.929 . S
C2587 C2581 1.390 . S
C2587 C2584 1.386 . S
C2588 C2583 1.490 . S
C2588 C2590 1.395 . S
C2588 C2591 1.403 . S
H2589 C2595 0.930 . S
C2590 H2576 0.930 . S
C2590 C2588 1.395 . S
C2590 C2593 1.403 . S
C2591 C2588 1.403 . S
C2591 C2592 1.524 . S
C2591 C2595 1.400 . S
C2592 H2577 0.960 . S
C2592 H2578 0.960 . S
C2592 H2579 0.960 . S
C2592 C2591 1.524 . S
C2593 C2590 1.403 . S
C2593 C2594 1.392 . S
C2593 C2597 1.495 . S
C2594 C2593 1.392 . S
C2594 C2595 1.385 . S
C2594 C2596 1.478 . S
C2595 H2589 0.930 . S
C2595 C2591 1.400 . S
C2595 C2594 1.385 . S
C2596 C2594 1.478 . S
C2596 C2598 1.381 . S
C2596 C2602 1.383 . S
C2597 C2593 1.495 . S
C2597 H2603 0.959 . S
C2597 H2604 0.961 . S
C2597 H2605 0.960 . S
C2598 C2596 1.381 . S
C2598 C2599 1.394 . S
C2598 H2606 0.930 . S
C2599 C2598 1.394 . S
C2599 C2600 1.383 . S
C2599 H2607 0.929 . S
C2600 C2599 1.383 . S
C2600 C2601 1.377 . S
C2601 H2585 0.930 . S
C2601 C2600 1.377 . S
C2601 C2602 1.379 . S
C2602 H2586 0.931 . S
C2602 C2596 1.383 . S
C2602 C2601 1.379 . S
H2603 C2597 0.959 . S
H2604 C2597 0.961 . S
H2605 C2597 0.960 . S
H2606 C2598 0.930 . S
H2607 C2599 0.929 . S
H2608 C2616 0.929 . S
H2609 C2618 0.930 . S
H2610 C2620 0.930 . S
H2611 C2623 0.929 . S
H2612 C2626 0.930 . S
H2613 C2628 0.960 . S
H2614 C2628 0.960 . S
H2615 C2628 0.960 . S
C2616 H2608 0.929 . S
C2616 C2617 1.377 . S
C2616 C2618 1.384 . S
C2617 C2616 1.377 . S
C2617 C2623 1.390 . S
C2618 H2609 0.930 . S
C2618 C2616 1.384 . S
C2618 C2619 1.372 . S
C2619 C2618 1.372 . S
C2619 C2620 1.400 . S
C2619 C2624 1.490 . S
C2620 H2610 0.930 . S
C2620 C2619 1.400 . S
C2620 C2623 1.386 . S
H2621 C2637 0.930 . S
H2622 C2638 0.931 . S
C2623 H2611 0.929 . S
C2623 C2617 1.390 . S
C2623 C2620 1.386 . S
C2624 C2619 1.490 . S
C2624 C2626 1.395 . S
C2624 C2627 1.403 . S
H2625 C2631 0.930 . S
C2626 H2612 0.930 . S
C2626 C2624 1.395 . S
C2626 C2629 1.403 . S
C2627 C2624 1.403 . S
C2627 C2628 1.524 . S
C2627 C2631 1.400 . S
C2628 H2613 0.960 . S
C2628 H2614 0.960 . S
C2628 H2615 0.960 . S
C2628 C2627 1.524 . S
C2629 C2626 1.403 . S
C2629 C2630 1.392 . S
C2629 C2633 1.495 . S
C2630 C2629 1.392 . S
C2630 C2631 1.385 . S
C2630 C2632 1.478 . S
C2631 H2625 0.930 . S
C2631 C2627 1.400 . S
C2631 C2630 1.385 . S
C2632 C2630 1.478 . S
C2632 C2634 1.381 . S
C2632 C2638 1.383 . S
C2633 C2629 1.495 . S
C2633 H2639 0.959 . S
C2633 H2640 0.961 . S
C2633 H2641 0.960 . S
C2634 C2632 1.381 . S
C2634 C2635 1.394 . S
C2634 H2642 0.930 . S
C2635 C2634 1.394 . S
C2635 C2636 1.383 . S
C2635 H2643 0.929 . S
C2636 C2635 1.383 . S
C2636 C2637 1.377 . S
C2637 H2621 0.930 . S
C2637 C2636 1.377 . S
C2637 C2638 1.379 . S
C2638 H2622 0.931 . S
C2638 C2632 1.383 . S
C2638 C2637 1.379 . S
H2639 C2633 0.959 . S
H2640 C2633 0.961 . S
H2641 C2633 0.960 . S
H2642 C2634 0.930 . S
H2643 C2635 0.929 . S
H2644 C2652 0.929 . S
H2645 C2654 0.930 . S
H2646 C2656 0.930 . S
H2647 C2659 0.929 . S
H2648 C2662 0.930 . S
H2649 C2664 0.960 . S
H2650 C2664 0.960 . S
H2651 C2664 0.960 . S
C2652 H2644 0.929 . S
C2652 C2653 1.377 . S
C2652 C2654 1.384 . S
C2653 C2652 1.377 . S
C2653 C2659 1.390 . S
C2654 H2645 0.930 . S
C2654 C2652 1.384 . S
C2654 C2655 1.372 . S
C2655 C2654 1.372 . S
C2655 C2656 1.400 . S
C2655 C2660 1.490 . S
C2656 H2646 0.930 . S
C2656 C2655 1.400 . S
C2656 C2659 1.386 . S
H2657 C2673 0.930 . S
H2658 C2674 0.931 . S
C2659 H2647 0.929 . S
C2659 C2653 1.390 . S
C2659 C2656 1.386 . S
C2660 C2655 1.490 . S
C2660 C2662 1.395 . S
C2660 C2663 1.403 . S
H2661 C2667 0.930 . S
C2662 H2648 0.930 . S
C2662 C2660 1.395 . S
C2662 C2665 1.403 . S
C2663 C2660 1.403 . S
C2663 C2664 1.524 . S
C2663 C2667 1.400 . S
C2664 H2649 0.960 . S
C2664 H2650 0.960 . S
C2664 H2651 0.960 . S
C2664 C2663 1.524 . S
C2665 C2662 1.403 . S
C2665 C2666 1.392 . S
C2665 C2669 1.495 . S
C2666 C2665 1.392 . S
C2666 C2667 1.385 . S
C2666 C2668 1.478 . S
C2667 H2661 0.930 . S
C2667 C2663 1.400 . S
C2667 C2666 1.385 . S
C2668 C2666 1.478 . S
C2668 C2670 1.381 . S
C2668 C2674 1.383 . S
C2669 C2665 1.495 . S
C2669 H2675 0.959 . S
C2669 H2676 0.961 . S
C2669 H2677 0.960 . S
C2670 C2668 1.381 . S
C2670 C2671 1.394 . S
C2670 H2678 0.930 . S
C2671 C2670 1.394 . S
C2671 C2672 1.383 . S
C2671 H2679 0.929 . S
C2672 C2671 1.383 . S
C2672 C2673 1.377 . S
C2673 H2657 0.930 . S
C2673 C2672 1.377 . S
C2673 C2674 1.379 . S
C2674 H2658 0.931 . S
C2674 C2668 1.383 . S
C2674 C2673 1.379 . S
H2675 C2669 0.959 . S
H2676 C2669 0.961 . S
H2677 C2669 0.960 . S
H2678 C2670 0.930 . S
H2679 C2671 0.929 . S
H2680 C2688 0.929 . S
H2681 C2690 0.930 . S
H2682 C2692 0.930 . S
H2683 C2695 0.929 . S
H2684 C2698 0.930 . S
H2685 C2700 0.960 . S
H2686 C2700 0.960 . S
H2687 C2700 0.960 . S
C2688 H2680 0.929 . S
C2688 C2689 1.377 . S
C2688 C2690 1.384 . S
C2689 C2688 1.377 . S
C2689 C2695 1.390 . S
C2690 H2681 0.930 . S
C2690 C2688 1.384 . S
C2690 C2691 1.372 . S
C2691 C2690 1.372 . S
C2691 C2692 1.400 . S
C2691 C2696 1.490 . S
C2692 H2682 0.930 . S
C2692 C2691 1.400 . S
C2692 C2695 1.386 . S
H2693 C2709 0.930 . S
H2694 C2710 0.931 . S
C2695 H2683 0.929 . S
C2695 C2689 1.390 . S
C2695 C2692 1.386 . S
C2696 C2691 1.490 . S
C2696 C2698 1.395 . S
C2696 C2699 1.403 . S
H2697 C2703 0.930 . S
C2698 H2684 0.930 . S
C2698 C2696 1.395 . S
C2698 C2701 1.403 . S
C2699 C2696 1.403 . S
C2699 C2700 1.524 . S
C2699 C2703 1.400 . S
C2700 H2685 0.960 . S
C2700 H2686 0.960 . S
C2700 H2687 0.960 . S
C2700 C2699 1.524 . S
C2701 C2698 1.403 . S
C2701 C2702 1.392 . S
C2701 C2705 1.495 . S
C2702 C2701 1.392 . S
C2702 C2703 1.385 . S
C2702 C2704 1.478 . S
C2703 H2697 0.930 . S
C2703 C2699 1.400 . S
C2703 C2702 1.385 . S
C2704 C2702 1.478 . S
C2704 C2706 1.381 . S
C2704 C2710 1.383 . S
C2705 C2701 1.495 . S
C2705 H2711 0.959 . S
C2705 H2712 0.961 . S
C2705 H2713 0.960 . S
C2706 C2704 1.381 . S
C2706 C2707 1.394 . S
C2706 H2714 0.930 . S
C2707 C2706 1.394 . S
C2707 C2708 1.383 . S
C2707 H2715 0.929 . S
C2708 C2707 1.383 . S
C2708 C2709 1.377 . S
C2709 H2693 0.930 . S
C2709 C2708 1.377 . S
C2709 C2710 1.379 . S
C2710 H2694 0.931 . S
C2710 C2704 1.383 . S
C2710 C2709 1.379 . S
H2711 C2705 0.959 . S
H2712 C2705 0.961 . S
H2713 C2705 0.960 . S
H2714 C2706 0.930 . S
H2715 C2707 0.929 . S
H2716 C2724 0.929 . S
H2717 C2726 0.930 . S
H2718 C2728 0.930 . S
H2719 C2731 0.929 . S
H2720 C2734 0.930 . S
H2721 C2736 0.960 . S
H2722 C2736 0.960 . S
H2723 C2736 0.960 . S
C2724 H2716 0.929 . S
C2724 C2725 1.377 . S
C2724 C2726 1.384 . S
C2725 C2724 1.377 . S
C2725 C2731 1.390 . S
C2726 H2717 0.930 . S
C2726 C2724 1.384 . S
C2726 C2727 1.372 . S
C2727 C2726 1.372 . S
C2727 C2728 1.400 . S
C2727 C2732 1.490 . S
C2728 H2718 0.930 . S
C2728 C2727 1.400 . S
C2728 C2731 1.386 . S
H2729 C2745 0.930 . S
H2730 C2746 0.931 . S
C2731 H2719 0.929 . S
C2731 C2725 1.390 . S
C2731 C2728 1.386 . S
C2732 C2727 1.490 . S
C2732 C2734 1.395 . S
C2732 C2735 1.403 . S
H2733 C2739 0.930 . S
C2734 H2720 0.930 . S
C2734 C2732 1.395 . S
C2734 C2737 1.403 . S
C2735 C2732 1.403 . S
C2735 C2736 1.524 . S
C2735 C2739 1.400 . S
C2736 H2721 0.960 . S
C2736 H2722 0.960 . S
C2736 H2723 0.960 . S
C2736 C2735 1.524 . S
C2737 C2734 1.403 . S
C2737 C2738 1.392 . S
C2737 C2741 1.495 . S
C2738 C2737 1.392 . S
C2738 C2739 1.385 . S
C2738 C2740 1.478 . S
C2739 H2733 0.930 . S
C2739 C2735 1.400 . S
C2739 C2738 1.385 . S
C2740 C2738 1.478 . S
C2740 C2742 1.381 . S
C2740 C2746 1.383 . S
C2741 C2737 1.495 . S
C2741 H2747 0.959 . S
C2741 H2748 0.961 . S
C2741 H2749 0.960 . S
C2742 C2740 1.381 . S
C2742 C2743 1.394 . S
C2742 H2750 0.930 . S
C2743 C2742 1.394 . S
C2743 C2744 1.383 . S
C2743 H2751 0.929 . S
C2744 C2743 1.383 . S
C2744 C2745 1.377 . S
C2745 H2729 0.930 . S
C2745 C2744 1.377 . S
C2745 C2746 1.379 . S
C2746 H2730 0.931 . S
C2746 C2740 1.383 . S
C2746 C2745 1.379 . S
H2747 C2741 0.959 . S
H2748 C2741 0.961 . S
H2749 C2741 0.960 . S
H2750 C2742 0.930 . S
H2751 C2743 0.929 . S
C457 C414 1.224 . S
C476 C8 1.217 . S
C493 C22 1.222 . S
C512 C428 1.242 . S
C529 C442 1.227 . S
C548 C36 1.262 . S
C565 C400 1.226 . S
C584 C50 1.206 . S
C601 C64 1.231 . S
C620 C386 1.192 . S
C637 C344 1.223 . S
C656 C78 1.258 . S
C673 C92 1.228 . S
C692 C358 1.261 . S
C709 C372 1.229 . S
C728 C106 1.259 . S
C745 C120 1.232 . S
C764 C302 1.191 . S
C781 C134 1.234 . S
C800 C316 1.191 . S
C817 C330 1.230 . S
C836 C148 1.193 . S
C853 C162 1.230 . S
C872 C288 1.194 . S
C889 C274 1.234 . S
C908 C176 1.192 . S
C925 C232 1.227 . S
C944 C190 1.261 . S
C961 C204 1.224 . S
C980 C246 1.262 . S
C997 C218 1.225 . S
C1016 C260 1.262 . S
C1033 C7 1.406 . S
C1052 C147 1.393 . S
C1069 C161 1.406 . S
C1088 C21 1.419 . S
C1105 C119 1.408 . S
C1124 C35 1.414 . S
C1141 C133 1.408 . S
C1160 C49 1.389 . S
C1177 C63 1.408 . S
C1196 C203 1.413 . S
C1213 C217 1.404 . S
C1232 C77 1.416 . S
C1249 C175 1.410 . S
C1268 C91 1.395 . S
C1285 C189 1.410 . S
C1304 C105 1.398 . S
C1321 C231 1.410 . S
C1340 C371 1.395 . S
C1357 C385 1.404 . S
C1376 C245 1.417 . S
C1393 C343 1.405 . S
C1412 C259 1.419 . S
C1429 C273 1.404 . S
C1448 C357 1.417 . S
C1465 C287 1.405 . S
C1484 C427 1.419 . S
C1501 C441 1.404 . S
C1520 C301 1.410 . S
C1537 C399 1.407 . S
C1556 C315 1.389 . S
C1573 C329 1.404 . S
C1592 C413 1.401 . S
C1609 C11 1.196 . S
C1628 C67 1.183 . S
C1645 C25 1.194 . S
C1664 C81 1.202 . S
C1681 C95 1.195 . S
C1700 C39 1.201 . S
C1717 C53 1.192 . S
C1736 C109 1.193 . S
C1753 C123 1.196 . S
C1772 C179 1.202 . S
C1789 C193 1.194 . S
C1808 C137 1.189 . S
C1825 C207 1.193 . S
C1844 C151 1.184 . S
C1861 C165 1.194 . S
C1880 C221 1.186 . S
C1897 C235 1.192 . S
C1916 C291 1.188 . S
C1933 C305 1.195 . S
C1952 C249 1.182 . S
C1969 C263 1.196 . S
C1988 C319 1.183 . S
C2005 C333 1.194 . S
C2024 C277 1.202 . S
C2041 C403 1.194 . S
C2060 C347 1.189 . S
C2077 C361 1.194 . S
C2096 C417 1.185 . S
C2113 C375 1.192 . S
C2132 C431 1.183 . S
C2149 C389 1.196 . S
C2168 C445 1.201 . S
C2185 C13 1.388 . S
C2204 C83 1.418 . S
C2221 C27 1.398 . S
C2240 C97 1.357 . S
C2257 C111 1.397 . S
C2276 C41 1.369 . S
C2293 C69 1.398 . S
C2312 C55 1.360 . S
C2329 C195 1.387 . S
C2348 C125 1.383 . S
C2365 C209 1.393 . S
C2384 C139 1.395 . S
C2401 C223 1.387 . S
C2420 C153 1.385 . S
C2437 C167 1.397 . S
C2456 C181 1.420 . S
C2473 C237 1.397 . S
C2492 C307 1.351 . S
C2509 C321 1.398 . S
C2528 C251 1.356 . S
C2545 C335 1.383 . S
C2564 C265 1.425 . S
C2581 C279 1.393 . S
C2600 C293 1.352 . S
C2617 C419 1.393 . S
C2636 C349 1.412 . S
C2653 C363 1.396 . S
C2672 C433 1.423 . S
C2689 C377 1.382 . S
C2708 C447 1.348 . S
C2725 C405 1.386 . S
C2744 C391 1.377 . S
