# Generated by pormake.
# Topology xff, (7)-cn, num edge types: 1
# Building blocks:
#     Node 0, Type 0, BuildingBlock: NUHQUE_clean_sbu_2, # of connection points: 7
#     Node 1, Type 0, BuildingBlock: NUHQUE_clean_sbu_2, # of connection points: 7
#     Node 2, Type 0, BuildingBlock: NUHQUE_clean_sbu_2, # of connection points: 7
#     Node 3, Type 0, BuildingBlock: NUHQUE_clean_sbu_2, # of connection points: 7
#     Node 4, Type 0, BuildingBlock: NUHQUE_clean_sbu_2, # of connection points: 7
#     Node 5, Type 0, BuildingBlock: NUHQUE_clean_sbu_2, # of connection points: 7
#     Node 6, Type 0, BuildingBlock: NUHQUE_clean_sbu_2, # of connection points: 7
#     Node 7, Type 0, BuildingBlock: NUHQUE_clean_sbu_2, # of connection points: 7
#     Node 8, Type 0, BuildingBlock: NUHQUE_clean_sbu_2, # of connection points: 7
#     Node 9, Type 0, BuildingBlock: NUHQUE_clean_sbu_2, # of connection points: 7
#     Node 10, Type 0, BuildingBlock: NUHQUE_clean_sbu_2, # of connection points: 7
#     Node 11, Type 0, BuildingBlock: NUHQUE_clean_sbu_2, # of connection points: 7
#     Node 12, Type 0, BuildingBlock: NUHQUE_clean_sbu_2, # of connection points: 7
#     Node 13, Type 0, BuildingBlock: NUHQUE_clean_sbu_2, # of connection points: 7
#     Node 14, Type 0, BuildingBlock: NUHQUE_clean_sbu_2, # of connection points: 7
#     Node 15, Type 0, BuildingBlock: NUHQUE_clean_sbu_2, # of connection points: 7
#     Edge 16, Type (0, 0), BuildingBlock: AJUNOK_clean_linker_0, # of connection points: 2
#     Edge 17, Type (0, 0), BuildingBlock: AJUNOK_clean_linker_0, # of connection points: 2
#     Edge 18, Type (0, 0), BuildingBlock: AJUNOK_clean_linker_0, # of connection points: 2
#     Edge 19, Type (0, 0), BuildingBlock: AJUNOK_clean_linker_0, # of connection points: 2
#     Edge 20, Type (0, 0), BuildingBlock: AJUNOK_clean_linker_0, # of connection points: 2
#     Edge 21, Type (0, 0), BuildingBlock: AJUNOK_clean_linker_0, # of connection points: 2
#     Edge 22, Type (0, 0), BuildingBlock: AJUNOK_clean_linker_0, # of connection points: 2
#     Edge 23, Type (0, 0), BuildingBlock: AJUNOK_clean_linker_0, # of connection points: 2
#     Edge 24, Type (0, 0), BuildingBlock: AJUNOK_clean_linker_0, # of connection points: 2
#     Edge 25, Type (0, 0), BuildingBlock: AJUNOK_clean_linker_0, # of connection points: 2
#     Edge 26, Type (0, 0), BuildingBlock: AJUNOK_clean_linker_0, # of connection points: 2
#     Edge 27, Type (0, 0), BuildingBlock: AJUNOK_clean_linker_0, # of connection points: 2
#     Edge 28, Type (0, 0), BuildingBlock: AJUNOK_clean_linker_0, # of connection points: 2
#     Edge 29, Type (0, 0), BuildingBlock: AJUNOK_clean_linker_0, # of connection points: 2
#     Edge 30, Type (0, 0), BuildingBlock: AJUNOK_clean_linker_0, # of connection points: 2
#     Edge 31, Type (0, 0), BuildingBlock: AJUNOK_clean_linker_0, # of connection points: 2
#     Edge 32, Type (0, 0), BuildingBlock: AJUNOK_clean_linker_0, # of connection points: 2
#     Edge 33, Type (0, 0), BuildingBlock: AJUNOK_clean_linker_0, # of connection points: 2
#     Edge 34, Type (0, 0), BuildingBlock: AJUNOK_clean_linker_0, # of connection points: 2
#     Edge 35, Type (0, 0), BuildingBlock: AJUNOK_clean_linker_0, # of connection points: 2
#     Edge 36, Type (0, 0), BuildingBlock: AJUNOK_clean_linker_0, # of connection points: 2
#     Edge 37, Type (0, 0), BuildingBlock: AJUNOK_clean_linker_0, # of connection points: 2
#     Edge 38, Type (0, 0), BuildingBlock: AJUNOK_clean_linker_0, # of connection points: 2
#     Edge 39, Type (0, 0), BuildingBlock: AJUNOK_clean_linker_0, # of connection points: 2
#     Edge 40, Type (0, 0), BuildingBlock: AJUNOK_clean_linker_0, # of connection points: 2
#     Edge 41, Type (0, 0), BuildingBlock: AJUNOK_clean_linker_0, # of connection points: 2
#     Edge 42, Type (0, 0), BuildingBlock: AJUNOK_clean_linker_0, # of connection points: 2
#     Edge 43, Type (0, 0), BuildingBlock: AJUNOK_clean_linker_0, # of connection points: 2
#     Edge 44, Type (0, 0), BuildingBlock: AJUNOK_clean_linker_0, # of connection points: 2
#     Edge 45, Type (0, 0), BuildingBlock: AJUNOK_clean_linker_0, # of connection points: 2
#     Edge 46, Type (0, 0), BuildingBlock: AJUNOK_clean_linker_0, # of connection points: 2
#     Edge 47, Type (0, 0), BuildingBlock: AJUNOK_clean_linker_0, # of connection points: 2
#     Edge 48, Type (0, 0), BuildingBlock: AJUNOK_clean_linker_0, # of connection points: 2
#     Edge 49, Type (0, 0), BuildingBlock: AJUNOK_clean_linker_0, # of connection points: 2
#     Edge 50, Type (0, 0), BuildingBlock: AJUNOK_clean_linker_0, # of connection points: 2
#     Edge 51, Type (0, 0), BuildingBlock: AJUNOK_clean_linker_0, # of connection points: 2
#     Edge 52, Type (0, 0), BuildingBlock: AJUNOK_clean_linker_0, # of connection points: 2
#     Edge 53, Type (0, 0), BuildingBlock: AJUNOK_clean_linker_0, # of connection points: 2
#     Edge 54, Type (0, 0), BuildingBlock: AJUNOK_clean_linker_0, # of connection points: 2
#     Edge 55, Type (0, 0), BuildingBlock: AJUNOK_clean_linker_0, # of connection points: 2
#     Edge 56, Type (0, 0), BuildingBlock: AJUNOK_clean_linker_0, # of connection points: 2
#     Edge 57, Type (0, 0), BuildingBlock: AJUNOK_clean_linker_0, # of connection points: 2
#     Edge 58, Type (0, 0), BuildingBlock: AJUNOK_clean_linker_0, # of connection points: 2
#     Edge 59, Type (0, 0), BuildingBlock: AJUNOK_clean_linker_0, # of connection points: 2
#     Edge 60, Type (0, 0), BuildingBlock: AJUNOK_clean_linker_0, # of connection points: 2
#     Edge 61, Type (0, 0), BuildingBlock: AJUNOK_clean_linker_0, # of connection points: 2
#     Edge 62, Type (0, 0), BuildingBlock: AJUNOK_clean_linker_0, # of connection points: 2
#     Edge 63, Type (0, 0), BuildingBlock: AJUNOK_clean_linker_0, # of connection points: 2
#     Edge 64, Type (0, 0), BuildingBlock: AJUNOK_clean_linker_0, # of connection points: 2
#     Edge 65, Type (0, 0), BuildingBlock: AJUNOK_clean_linker_0, # of connection points: 2
#     Edge 66, Type (0, 0), BuildingBlock: AJUNOK_clean_linker_0, # of connection points: 2
#     Edge 67, Type (0, 0), BuildingBlock: AJUNOK_clean_linker_0, # of connection points: 2
#     Edge 68, Type (0, 0), BuildingBlock: AJUNOK_clean_linker_0, # of connection points: 2
#     Edge 69, Type (0, 0), BuildingBlock: AJUNOK_clean_linker_0, # of connection points: 2
#     Edge 70, Type (0, 0), BuildingBlock: AJUNOK_clean_linker_0, # of connection points: 2
#     Edge 71, Type (0, 0), BuildingBlock: AJUNOK_clean_linker_0, # of connection points: 2
# Relax obj value: 0.144
# Max RMSD: 0.241
# Mean RMSD: 0.241
data_MOF--net-xff--node1-NUHQUE_clean_sbu_2--edge1-AJUNOK_clean_linker_0
_symmetry_space_group_name_H-M    P1
_symmetry_Int_Tables_number       1
_symmetry_cell_setting            triclinic
loop_
_symmetry_equiv_pos_as_xyz
'x, y, z'
_cell_length_a     27.197308
_cell_length_b     27.136924
_cell_length_c     54.217714
_cell_angle_alpha  90.089632
_cell_angle_beta   90.717492
_cell_angle_gamma 89.843026
loop_
_atom_site_label
_atom_site_type_symbol
_atom_site_fract_x
_atom_site_fract_y
_atom_site_fract_z
_atom_type_partial_charge
O0 O 0.29162 0.2743 0.07698 0.0
Tb1 Tb 0.30069 0.25533 0.11592 0.0
Eu2 Eu 0.35395 0.1337 0.10386 0.0
C3 C 0.32751 0.29617 0.06512 0.0
O4 O 0.37204 0.2941 0.07462 0.0
C5 C 0.41972 0.23292 0.11599 0.0
O6 O 0.36584 0.08791 0.13884 0.0
C7 C 0.35251 0.09714 0.05971 0.0
C8 C 0.35475 0.1114 0.15947 0.0
O9 O 0.34169 0.15784 0.15731 0.0
C10 C 0.24137 0.15184 0.12291 0.0
C11 C 0.3253 0.06625 0.0414 0.0
C12 C 0.30149 0.08869 1.02079 0.0
C13 C 0.28003 0.05949 1.00205 0.0
C14 C 0.28287 1.0084 1.00392 0.0
C15 C 0.30567 0.98552 0.02409 0.0
C16 C 0.32721 1.01436 0.04278 0.0
O17 O 0.38162 0.26076 0.1227 0.0
O18 O 0.4154 0.18783 0.10739 0.0
O19 O 0.26549 0.32764 0.1136 0.0
O20 O 0.27407 0.29526 0.14877 0.0
C21 C 0.25593 0.33293 0.13683 0.0
O22 O 0.2782 0.12451 0.11631 0.0
O23 O 0.24297 0.20047 0.12367 0.0
O24 O 0.37553 0.07547 0.07848 0.0
O25 O 0.33297 0.14029 0.06531 0.0
H26 H 0.30013 0.12847 1.01919 0.0
H27 H 0.26826 0.98599 0.98893 0.0
H28 H 0.34637 0.9963 0.05791 0.0
O29 O 0.51273 0.54094 0.3241 0.0
Tb30 Tb 0.53615 0.54903 0.36233 0.0
Eu31 Eu 0.65556 0.60129 0.35957 0.0
C32 C 0.49761 0.57927 0.31142 0.0
O33 O 0.5122 0.62297 0.31864 0.0
C34 C 0.55757 0.66768 0.36416 0.0
O35 O 0.70507 0.61983 0.39183 0.0
C36 C 0.6979 0.5791 0.31896 0.0
C37 C 0.68344 0.62176 0.41341 0.0
O38 O 0.63521 0.61908 0.41379 0.0
C39 C 0.63351 0.49366 0.3742 0.0
C40 C 0.72232 0.56636 0.29565 0.0
C41 C 0.6944 0.5528 0.27457 0.0
C42 C 0.71801 0.54214 0.25225 0.0
C43 C 0.76921 0.544 0.2515 0.0
C44 C 0.79747 0.55471 0.27247 0.0
C45 C 0.77401 0.56731 0.29444 0.0
O46 O 0.53255 0.62907 0.3725 0.0
O47 O 0.60201 0.66367 0.3551 0.0
O48 O 0.4603 0.52468 0.3646 0.0
O49 O 0.50903 0.50578 0.39392 0.0
C50 C 0.46434 0.50102 0.3853 0.0
O51 O 0.6486 0.53511 0.3835 0.0
O52 O 0.59421 0.49294 0.35998 0.0
O53 O 0.71788 0.60971 0.33515 0.0
O54 O 0.65478 0.56057 0.32488 0.0
H55 H 0.65464 0.55119 0.27542 0.0
H56 H 0.78762 0.53625 0.23442 0.0
H57 H 0.79591 0.57683 0.31059 0.0
O58 O 0.24408 0.76061 0.57663 0.0
Tb59 Tb 0.23858 0.78695 0.61425 0.0
Eu60 Eu 0.18912 0.90891 0.60731 0.0
C61 C 0.20448 0.74513 0.56501 0.0
O62 O 0.16159 0.7589 0.57339 0.0
C63 C 0.1207 0.81141 0.61604 0.0
O64 O 0.17502 0.95671 0.64072 0.0
C65 C 0.19765 0.9473 0.56391 0.0
C66 C 0.17796 0.93223 0.66169 0.0
O67 O 0.18085 0.88396 0.66039 0.0
C68 C 0.2999 0.88503 0.62225 0.0
C69 C 0.22121 0.97768 0.54461 0.0
C70 C 0.2387 0.95389 0.52319 0.0
C71 C 0.25606 0.98132 0.50309 0.0
C72 C 0.25702 0.03264 0.50495 0.0
C73 C 0.23857 0.05715 0.52558 0.0
C74 C 0.22029 0.02969 0.54543 0.0
O75 O 0.15887 0.78447 0.62385 0.0
O76 O 0.126 0.85603 0.60709 0.0
O77 O 0.2608 0.71002 0.61751 0.0
O78 O 0.28179 0.75963 0.64607 0.0
C79 C 0.28537 0.71453 0.63803 0.0
O80 O 0.26032 0.90919 0.62796 0.0
O81 O 0.29798 0.84162 0.61144 0.0
O82 O 0.17246 0.96867 0.58171 0.0
O83 O 0.21863 0.90513 0.5703 0.0
H84 H 0.23656 0.91411 0.52176 0.0
H85 H 0.2703 0.05418 0.48958 0.0
H86 H 0.20435 0.04875 0.56099 0.0
O87 O 0.02739 0.50146 0.82516 0.0
Tb88 Tb 1.00489 0.48916 0.86312 0.0
Eu89 Eu 0.87924 0.4351 0.85609 0.0
C90 C 0.04037 0.46352 0.81163 0.0
O91 O 0.02328 0.42009 0.81757 0.0
C92 C 0.9803 0.36961 0.86629 0.0
O93 O 0.83382 0.42328 0.89044 0.0
C94 C 0.83962 0.43057 0.81239 0.0
C95 C 0.85509 0.43864 0.91108 0.0
O96 O 0.89949 0.45724 0.9095 0.0
C97 C 0.90296 0.55064 0.87005 0.0
C98 C 0.8135 0.46156 0.79369 0.0
C99 C 0.8412 0.48432 0.77497 0.0
C100 C 0.81769 0.51248 0.75674 0.0
C101 C 0.76741 0.52105 0.75828 0.0
C102 C 0.73803 0.49151 0.77328 0.0
C103 C 0.76141 0.46308 0.7919 0.0
O104 O 1.01017 0.40818 0.86871 0.0
O105 O 0.93254 0.3726 0.86209 0.0
O106 O 0.08026 0.51609 0.86374 0.0
O107 O 0.03913 0.52162 0.8965 0.0
C108 C 0.08079 0.53236 0.88623 0.0
O109 O 0.87339 0.51359 0.86635 0.0
O110 O 0.95125 0.54836 0.86899 0.0
O111 O 0.81607 0.41662 0.83238 0.0
O112 O 0.8861 0.44196 0.81669 0.0
H113 H 0.88052 0.47828 0.77382 0.0
H114 H 0.75034 0.54516 0.74468 0.0
H115 H 0.73979 0.43996 0.80383 0.0
O116 O 0.74392 0.76067 0.9692 0.0
Tb117 Tb 0.73768 0.78397 0.93069 0.0
Eu118 Eu 0.68628 0.90689 0.94196 0.0
C119 C 0.70509 0.74493 0.98113 0.0
O120 O 0.66157 0.76061 0.97408 0.0
C121 C 0.61954 0.80722 0.92829 0.0
O122 O 0.67975 0.96191 0.91034 0.0
C123 C 0.68178 0.93898 0.98681 0.0
C124 C 0.67716 0.94478 0.88755 0.0
O125 O 0.67563 0.89688 0.88416 0.0
C126 C 0.79534 0.88619 0.92202 0.0
C127 C 0.70952 0.96786 1.00566 0.0
C128 C 0.72928 0.94348 0.02662 0.0
C129 C 0.74924 0.9707 0.04636 0.0
C130 C 0.75079 0.02179 0.04489 0.0
C131 C 0.73359 0.04669 0.02392 0.0
C132 C 0.71234 1.01975 1.00438 0.0
O133 O 0.65731 0.77657 0.92544 0.0
O134 O 0.62375 0.85453 0.93364 0.0
O135 O 0.79431 0.72684 0.93195 0.0
O136 O 0.74875 0.73202 0.90008 0.0
C137 C 0.78612 0.70903 0.91011 0.0
O138 O 0.76594 0.91263 0.93542 0.0
O139 O 0.78566 0.84061 0.91539 0.0
O140 O 0.66138 0.96257 0.96796 0.0
O141 O 0.70001 0.89544 0.98096 0.0
H142 H 0.7277 0.90367 0.02797 0.0
H143 H 0.76494 0.04243 0.0606 0.0
H144 H 0.697 0.0393 0.98865 0.0
O145 O 0.52442 0.49996 0.71798 0.0
Tb146 Tb 0.50618 0.48884 0.67893 0.0
Eu147 Eu 0.38349 0.43609 0.69215 0.0
C148 C 0.5406 0.46404 0.73233 0.0
O149 O 0.52895 0.4186 0.72659 0.0
C150 C 0.48373 0.37035 0.68123 0.0
O151 O 0.33758 0.42378 0.65734 0.0
C152 C 0.34438 0.43785 0.73539 0.0
C153 C 0.36093 0.43376 0.63675 0.0
O154 O 0.40806 0.44361 0.63873 0.0
C155 C 0.4028 0.54845 0.67194 0.0
C156 C 0.31393 0.46497 0.75356 0.0
C157 C 0.33788 0.48872 0.77357 0.0
C158 C 0.31072 0.50805 0.79314 0.0
C159 C 0.25966 0.50527 0.79253 0.0
C160 C 0.23507 0.48188 0.77306 0.0
C161 C 0.26205 0.46141 0.75354 0.0
O162 O 0.50976 0.40767 0.67216 0.0
O163 O 0.43962 0.37544 0.69066 0.0
O164 O 0.57956 0.52118 0.6802 0.0
O165 O 0.54273 0.51941 0.64589 0.0
C166 C 0.58251 0.53416 0.65731 0.0
O167 O 0.37498 0.51215 0.67882 0.0
O168 O 0.45122 0.54673 0.67163 0.0
O169 O 0.32321 0.41541 0.71636 0.0
O170 O 0.38789 0.45674 0.73051 0.0
H171 H 0.37769 0.4901 0.77459 0.0
H172 H 0.2389 0.51921 0.80806 0.0
H173 H 0.24293 0.44116 0.73912 0.0
O174 O 0.78758 0.27804 0.47022 0.0
Tb175 Tb 0.79624 0.25388 0.43196 0.0
Eu176 Eu 0.85238 0.13142 0.44212 0.0
C177 C 0.82509 0.2933 0.48375 0.0
O178 O 0.86918 0.27748 0.47823 0.0
C179 C 0.9166 0.23232 0.43115 0.0
O180 O 0.86559 0.0815 0.40915 0.0
C181 C 0.85501 0.09533 0.48619 0.0
C182 C 0.85988 0.10208 0.38725 0.0
O183 O 0.84924 0.1493 0.38648 0.0
C184 C 0.74091 0.14909 0.42119 0.0
C185 C 0.82526 0.06529 0.50334 0.0
C186 C 0.80637 0.08781 0.52474 0.0
C187 C 0.78026 0.06028 0.54224 0.0
C188 C 0.77268 1.00999 0.53764 0.0
C189 C 0.79544 0.9859 0.51798 0.0
C190 C 0.82028 1.01395 0.5003 0.0
O191 O 0.87751 0.26173 0.42809 0.0
O192 O 0.91379 0.18496 0.43615 0.0
O193 O 0.73911 0.31059 0.43097 0.0
O194 O 0.78856 0.30674 0.40118 0.0
C195 C 0.75005 0.32935 0.40982 0.0
O196 O 0.77466 0.12178 0.43155 0.0
O197 O 0.74454 0.1972 0.41838 0.0
O198 O 0.87591 0.07321 0.46725 0.0
O199 O 0.83767 0.13968 0.48103 0.0
H200 H 0.81444 0.12624 0.52819 0.0
H201 H 0.75244 0.98822 0.55078 0.0
H202 H 0.83777 0.9954 0.48501 0.0
O203 O 1.01285 0.541 0.22259 0.0
Tb204 Tb 0.03565 0.54797 0.18459 0.0
Eu205 Eu 0.15734 0.59753 0.18759 0.0
C206 C 0.98776 0.57679 0.23285 0.0
O207 O 0.98906 0.6207 0.22277 0.0
C208 C 0.0596 0.66639 0.18289 0.0
O209 O 0.21089 0.61221 0.15694 0.0
C210 C 0.19803 0.57259 0.22901 0.0
C211 C 0.19181 0.61788 0.13466 0.0
O212 O 0.14373 0.6214 0.13255 0.0
C213 C 0.13023 0.49286 0.17054 0.0
C214 C 0.22218 0.55846 0.25273 0.0
C215 C 0.19469 0.53818 0.2723 0.0
C216 C 0.21825 0.52562 0.29473 0.0
C217 C 0.26896 0.53117 0.29698 0.0
C218 C 0.29659 0.55311 0.27841 0.0
C219 C 0.27311 0.56654 0.25617 0.0
O220 O 0.03184 0.62831 0.17595 0.0
O221 O 0.10521 0.6612 0.19098 0.0
O222 O 0.96051 0.52172 0.18395 0.0
O223 O 1.00254 0.5107 0.15192 0.0
C224 C 0.9599 0.50296 0.16197 0.0
O225 O 0.14338 0.53511 0.1617 0.0
O226 O 0.09396 0.49155 0.1862 0.0
O227 O 0.21842 0.6041 0.2137 0.0
O228 O 0.15534 0.55429 0.22165 0.0
H229 H 0.15537 0.53297 0.27027 0.0
H230 H 0.28705 0.51917 0.31391 0.0
H231 H 0.29418 0.58403 0.24181 0.0
O232 O 0.78696 0.78253 0.57471 0.0
Tb233 Tb 0.79753 0.75644 0.6122 0.0
Eu234 Eu 0.84972 0.63268 0.61148 0.0
C235 C 0.8247 0.7987 0.56226 0.0
O236 O 0.86897 0.78839 0.57061 0.0
C237 C 0.91765 0.73054 0.61516 0.0
O238 O 0.86319 0.57915 0.64242 0.0
C239 C 0.82483 0.59057 0.57052 0.0
C240 C 0.87202 0.59819 0.66434 0.0
O241 O 0.87883 0.646 0.66603 0.0
C242 C 0.74447 0.66055 0.6261 0.0
C243 C 0.81052 0.56631 0.54695 0.0
C244 C 0.78951 0.59454 0.52761 0.0
C245 C 0.77428 0.57141 0.50569 0.0
C246 C 0.77735 0.52047 0.50367 0.0
C247 C 0.80276 0.49236 0.52121 0.0
C248 C 0.81846 0.51511 0.54331 0.0
O249 O 0.87868 0.75896 0.62009 0.0
O250 O 0.91433 0.68355 0.60917 0.0
O251 O 0.77505 0.83328 0.61744 0.0
O252 O 0.75681 0.78158 0.64501 0.0
C253 C 0.75273 0.82747 0.63824 0.0
O254 O 0.78679 0.64978 0.63613 0.0
O255 O 0.74285 0.69654 0.60995 0.0
O256 O 0.85593 0.57014 0.58634 0.0
O257 O 0.80756 0.63424 0.57694 0.0
H258 H 0.78581 0.63416 0.52937 0.0
H259 H 0.76292 0.5029 0.48709 0.0
H260 H 0.83727 0.49341 0.5573 0.0
O261 O 1.01585 0.04619 0.82748 0.0
Tb262 Tb 0.03359 0.05035 0.86696 0.0
Eu263 Eu 0.15309 0.09364 0.85219 0.0
C264 C 0.98654 0.07978 0.81754 0.0
O265 O 0.97994 0.12124 0.82954 0.0
C266 C 0.05613 0.1657 0.86602 0.0
O267 O 0.20064 0.09959 0.88726 0.0
C268 C 0.19628 0.10663 0.81039 0.0
C269 C 0.1786 0.09641 0.90878 0.0
O270 O 0.13051 0.09252 0.90867 0.0
C271 C 0.12992 0.99069 0.8736 0.0
C272 C 0.22491 0.08025 0.79129 0.0
C273 C 0.20117 0.05311 0.77218 0.0
C274 C 0.22879 0.03282 0.75286 0.0
C275 C 0.27945 0.04025 0.75251 0.0
C276 C 0.30312 0.06777 0.77081 0.0
C277 C 0.27622 0.08708 0.79042 0.0
O278 O 0.02706 0.12974 0.87339 0.0
O279 O 0.10091 0.15814 0.85752 0.0
O280 O 0.98428 0.98764 0.86494 0.0
O281 O 0.97365 0.04087 0.89313 0.0
C282 C 0.95803 0.99935 0.88383 0.0
O283 O 0.14504 1.01152 0.85347 0.0
O284 O 0.09339 1.01073 0.88554 0.0
O285 O 0.21796 0.11578 0.83181 0.0
O286 O 0.14947 0.09526 0.81229 0.0
H287 H 0.16164 0.04826 0.77208 0.0
H288 H 0.30066 0.02578 0.73726 0.0
H289 H 0.29487 0.10946 0.80419 0.0
O290 O 0.74519 0.26321 0.07244 0.0
Tb291 Tb 0.74272 0.28895 0.11018 0.0
Eu292 Eu 0.68939 0.40932 0.10967 0.0
C293 C 0.7091 0.23731 0.06286 0.0
O294 O 0.66607 0.2383 0.07351 0.0
C295 C 0.62272 0.31104 0.11266 0.0
O296 O 0.67224 0.46342 0.14009 0.0
C297 C 0.71419 0.45049 0.06883 0.0
C298 C 0.6634 0.44453 0.16195 0.0
O299 O 0.66034 0.39635 0.16369 0.0
C300 C 0.79421 0.38345 0.12748 0.0
C301 C 0.72787 0.47604 0.0457 0.0
C302 C 0.74799 0.45017 0.02545 0.0
C303 C 0.75911 0.47555 1.00351 0.0
C304 C 0.75182 0.52636 1.00229 0.0
C305 C 0.73287 0.55237 1.0222 0.0
C306 C 0.7201 0.52731 0.04374 0.0
O307 O 0.66213 0.28312 0.11774 0.0
O308 O 0.62579 0.35769 0.10623 0.0
O309 O 0.79177 0.22516 0.11017 0.0
O310 O 0.76228 0.24838 0.14423 0.0
C311 C 0.79131 0.21666 0.13363 0.0
O312 O 0.75113 0.39445 0.13597 0.0
O313 O 0.79697 0.34872 0.11086 0.0
O314 O 0.68267 0.47049 0.08423 0.0
O315 O 0.7326 0.40744 0.07565 0.0
H316 H 0.75457 0.41085 0.02663 0.0
H317 H 0.76092 0.546 0.98552 0.0
H318 H 0.7043 0.54783 0.05888 0.0
O319 O 0.52485 1.00117 0.32236 0.0
Tb320 Tb 0.50164 0.99011 0.36002 0.0
Eu321 Eu 0.38193 0.93928 0.35922 0.0
C322 C 0.54667 0.96493 0.31078 0.0
O323 O 0.54353 0.92056 0.32012 0.0
C324 C 0.4785 0.87044 0.36321 0.0
O325 O 0.32695 0.92827 0.38952 0.0
C326 C 0.34192 0.96652 0.3181 0.0
C327 C 0.34468 0.91852 0.41168 0.0
O328 O 0.39203 0.90972 0.41408 0.0
C329 C 0.40873 0.04382 0.37587 0.0
C330 C 0.31677 0.98159 0.29486 0.0
C331 C 0.34283 1.00283 0.27501 0.0
C332 C 0.31725 1.01778 0.25348 0.0
C333 C 0.26632 1.01331 0.25246 0.0
C334 C 0.24046 0.99021 0.27126 0.0
C335 C 0.26551 0.97464 0.29253 0.0
O336 O 0.5063 0.90946 0.36883 0.0
O337 O 0.43204 0.87381 0.35634 0.0
O338 O 0.57794 1.01314 0.36362 0.0
O339 O 0.52898 0.03243 0.39223 0.0
C340 C 0.57382 0.03655 0.38435 0.0
O341 O 0.39782 1.00121 0.38512 0.0
O342 O 0.44234 0.04537 0.35883 0.0
O343 O 0.32136 0.93459 0.33312 0.0
O344 O 0.38528 0.98347 0.32528 0.0
H345 H 0.38229 1.00777 0.27631 0.0
H346 H 0.2466 0.02562 0.23602 0.0
H347 H 0.24521 0.95633 0.30694 0.0
O348 O 0.24411 0.26518 0.46876 0.0
Tb349 Tb 0.23896 0.28379 0.42953 0.0
Eu350 Eu 0.18902 0.40582 0.44263 0.0
C351 C 0.20774 0.24118 0.47921 0.0
O352 O 0.16468 0.24136 0.46807 0.0
C353 C 0.12133 0.30758 0.42995 0.0
O354 O 0.17205 0.45268 0.40862 0.0
C355 C 0.18836 0.44302 0.48662 0.0
C356 C 0.17771 0.43063 0.38706 0.0
O357 O 0.19036 0.38388 0.38728 0.0
C358 C 0.29959 0.3865 0.42162 0.0
C359 C 0.21458 0.47364 0.5053 0.0
C360 C 0.23881 0.45061 0.52552 0.0
C361 C 0.25884 0.47909 0.54482 0.0
C362 C 0.25503 0.53026 0.54384 0.0
C363 C 0.23103 0.55364 0.52422 0.0
C364 C 0.21063 0.52548 0.50493 0.0
O365 O 0.15837 0.28027 0.42152 0.0
O366 O 0.12774 0.35122 0.43997 0.0
O367 O 0.27631 0.213 0.43364 0.0
O368 O 0.26445 0.23998 0.39762 0.0
C369 C 0.28444 0.20454 0.41051 0.0
O370 O 0.26532 0.415 0.43036 0.0
O371 O 0.29629 0.33802 0.42018 0.0
O372 O 0.1668 0.46476 0.4675 0.0
O373 O 0.20782 0.39969 0.4814 0.0
H374 H 0.2415 0.4108 0.52646 0.0
H375 H 0.26949 0.55213 0.55907 0.0
H376 H 0.19036 0.54391 0.49027 0.0
O377 O 0.02688 0.9984 0.22117 0.0
Tb378 Tb 1.00296 0.99127 0.18265 0.0
Eu379 Eu 0.88152 0.93779 0.19282 0.0
C380 C 0.04383 0.96017 0.23353 0.0
O381 O 0.02954 0.91605 0.22674 0.0
C382 C 0.98157 0.87125 0.18131 0.0
O383 O 0.83171 0.92508 0.1595 0.0
C384 C 0.84612 0.93493 0.23682 0.0
C385 C 0.85164 0.93299 0.1378 0.0
O386 O 0.89815 0.94584 0.13733 0.0
C387 C 0.89999 0.04928 0.17306 0.0
C388 C 0.81744 0.96287 0.25543 0.0
C389 C 0.84218 0.98155 0.27652 0.0
C390 C 0.81561 1.00094 0.2963 0.0
C391 C 0.7645 1.00255 0.29489 0.0
C392 C 0.73884 0.98627 0.27383 0.0
C393 C 0.7656 0.96645 0.25398 0.0
O394 O 1.01055 0.91006 0.17738 0.0
O395 O 0.93478 0.87507 0.18716 0.0
O396 O 0.05758 0.05029 0.18273 0.0
O397 O 0.05654 0.99983 0.15288 0.0
C398 C 0.07721 0.03947 0.16179 0.0
O399 O 0.87254 1.01637 0.1835 0.0
O400 O 0.94686 0.04241 0.16835 0.0
O401 O 0.823 0.91551 0.21755 0.0
O402 O 0.89041 0.95175 0.23188 0.0
H403 H 0.88193 0.9796 0.27794 0.0
H404 H 0.74457 1.01628 0.31071 0.0
H405 H 0.74621 0.95293 0.23779 0.0
O406 O 0.2988 0.77341 0.97265 0.0
Tb407 Tb 0.29793 0.75323 0.93395 0.0
Eu408 Eu 0.35138 0.63179 0.93861 0.0
C409 C 0.33558 0.79889 0.98192 0.0
O410 O 0.37697 0.80006 0.96977 0.0
C411 C 0.41667 0.73058 0.9312 0.0
O412 O 0.36611 0.58095 0.90651 0.0
C413 C 0.33635 0.59321 0.98135 0.0
C414 C 0.36651 0.60258 0.88473 0.0
O415 O 0.36537 0.65102 0.8842 0.0
C416 C 0.24317 0.65514 0.92046 0.0
C417 C 0.3158 0.56377 1.00181 0.0
C418 C 0.2997 0.58907 1.023 0.0
C419 C 0.28587 0.56299 0.04407 0.0
C420 C 0.28666 0.5117 0.04374 0.0
C421 C 0.30115 0.48535 1.02282 0.0
C422 C 0.31651 0.5116 1.00181 0.0
O423 O 0.37748 0.75698 0.92411 0.0
O424 O 0.41339 0.68556 0.93996 0.0
O425 O 0.25932 0.82363 0.93713 0.0
O426 O 0.26917 0.79389 0.90149 0.0
C427 C 0.24993 0.83028 0.91388 0.0
O428 O 0.28548 0.63738 0.91411 0.0
O429 O 0.24081 0.6957 0.9336 0.0
O430 O 0.36503 0.57242 0.96478 0.0
O431 O 0.31457 0.63443 0.97409 0.0
H432 H 0.29947 0.62903 0.02342 0.0
H433 H 0.27621 0.49203 0.06028 0.0
H434 H 0.32915 0.4917 0.98574 0.0
O435 O 0.50143 0.03987 0.72173 0.0
Tb436 Tb 0.53608 0.04351 0.68604 0.0
Eu437 Eu 0.65903 0.10038 0.68734 0.0
C438 C 0.49965 0.07715 0.73702 0.0
O439 O 0.52818 0.11518 0.73349 0.0
C440 C 0.55765 0.16536 0.68267 0.0
O441 O 0.71487 0.1102 0.65738 0.0
C442 C 0.6939 0.08678 0.73172 0.0
C443 C 0.69874 0.125 0.63558 0.0
O444 O 0.65292 0.1399 0.63333 0.0
C445 C 0.63605 0.99231 0.67347 0.0
C446 C 0.72479 0.06407 0.75167 0.0
C447 C 0.70211 0.04994 0.77398 0.0
C448 C 0.73031 0.03243 0.79427 0.0
C449 C 0.78124 0.02808 0.79143 0.0
C450 C 0.80498 0.04444 0.77022 0.0
C451 C 0.77668 0.06255 0.75026 0.0
O452 O 0.52819 0.12581 0.68238 0.0
O453 O 0.60598 0.16351 0.68453 0.0
O454 O 0.47742 0.98888 0.68349 0.0
O455 O 0.49584 0.02778 0.65109 0.0
C456 C 0.46745 0.99371 0.66022 0.0
O457 O 0.64852 0.034 0.66369 0.0
O458 O 0.59794 0.99081 0.68807 0.0
O459 O 0.71471 0.11586 0.71538 0.0
O460 O 0.6541 0.06405 0.72337 0.0
H461 H 0.66281 0.05489 0.77576 0.0
H462 H 0.80347 1.01396 0.80658 0.0
H463 H 0.79506 0.07644 0.73409 0.0
C464 C 0.17549 0.44704 0.13839 0.0
C465 C 0.15816 0.44869 0.1627 0.0
C466 C 0.20715 0.40964 0.13051 0.0
C467 C 0.22362 0.37245 0.14668 0.0
H468 H 0.16484 0.47537 0.12528 0.0
H469 H 0.21908 0.41021 0.11151 0.0
S470 S 0.19013 0.36054 0.21257 0.0
N471 N 0.16009 0.41022 0.20312 0.0
N472 N 0.22013 0.3396 0.18836 0.0
C473 C 0.20649 0.37337 0.17111 0.0
C474 C 0.17357 0.41148 0.1791 0.0
C475 C 0.39142 0.39731 0.41548 0.0
C476 C 0.34259 0.41326 0.41158 0.0
C477 C 0.43151 0.4266 0.40795 0.0
C478 C 0.4237 0.47215 0.39598 0.0
H479 H 0.39864 0.36274 0.42482 0.0
H480 H 0.46859 0.41311 0.41101 0.0
S481 S 0.30362 0.53003 0.38113 0.0
N482 N 0.28948 0.47756 0.39459 0.0
N483 N 0.36413 0.53153 0.38076 0.0
C484 C 0.3753 0.48798 0.39191 0.0
C485 C 0.33494 0.4588 0.39957 0.0
C486 C 0.2968 0.62702 0.64873 0.0
C487 C 0.31593 0.67478 0.64859 0.0
C488 C 0.32564 0.58704 0.65615 0.0
C489 C 0.37538 0.59281 0.66341 0.0
H490 H 0.25911 0.62039 0.64291 0.0
H491 H 0.30854 0.55102 0.65582 0.0
S492 S 0.4443 0.71051 0.6638 0.0
N493 N 0.38806 0.72618 0.65485 0.0
N494 N 0.44316 0.65037 0.66855 0.0
C495 C 0.39548 0.64047 0.66275 0.0
C496 C 0.3655 0.68163 0.6555 0.0
C497 C 0.20501 0.59246 0.89284 0.0
C498 C 0.19903 0.62737 0.9119 0.0
C499 C 0.16671 0.56165 0.88525 0.0
C500 C 0.12056 0.5638 0.89643 0.0
H501 H 0.23988 0.58847 0.88358 0.0
H502 H 0.17353 0.53572 0.87045 0.0
S503 S 0.08355 0.65097 0.94567 0.0
N504 N 0.14198 0.66408 0.94087 0.0
N505 N 0.06947 0.60558 0.9265 0.0
C506 C 0.11322 0.59907 0.91513 0.0
C507 C 0.15249 0.63111 0.92281 0.0
C508 C 0.89408 0.6233 0.89811 0.0
C509 C 0.87822 0.59687 0.87721 0.0
C510 C 0.86411 0.65998 0.90848 0.0
C511 C 0.81764 0.67169 0.89814 0.0
H512 H 0.92842 0.61374 0.90729 0.0
H513 H 0.87705 0.67863 0.925 0.0
S514 S 0.76145 0.6153 0.84229 0.0
N515 N 0.81463 0.58654 0.84577 0.0
N516 N 0.75886 0.65575 0.86503 0.0
C517 C 0.80265 0.6471 0.87658 0.0
C518 C 0.83284 0.60963 0.86618 0.0
C519 C 0.66601 0.57048 0.6619 0.0
C520 C 0.62286 0.56545 0.6476 0.0
C521 C 0.70415 0.6017 0.65475 0.0
C522 C 0.70103 0.63012 0.63303 0.0
H523 H 0.67052 0.55006 0.67895 0.0
H524 H 0.73649 0.60358 0.66659 0.0
S525 S 0.59538 0.63121 0.58903 0.0
N526 N 0.57876 0.59189 0.61062 0.0
N527 N 0.65064 0.65115 0.59718 0.0
C528 C 0.65788 0.62588 0.61852 0.0
C529 C 0.61889 0.59337 0.62575 0.0
C530 C 0.66918 0.36751 0.39852 0.0
C531 C 0.72096 0.36857 0.39756 0.0
C532 C 0.64046 0.40669 0.38927 0.0
C533 C 0.66278 0.44885 0.37951 0.0
H534 H 0.65078 0.3365 0.4069 0.0
H535 H 0.60085 0.40515 0.391 0.0
S536 S 0.79671 0.46929 0.37239 0.0
N537 N 0.79301 0.41412 0.38507 0.0
N538 N 0.73947 0.48877 0.36874 0.0
C539 C 0.71442 0.44979 0.37796 0.0
C540 C 0.74345 0.40934 0.3867 0.0
C541 C 0.88238 0.41298 0.12322 0.0
C542 C 0.8376 0.41248 0.13611 0.0
C543 C 0.92198 0.44315 0.13106 0.0
C544 C 0.91795 0.47366 0.15202 0.0
H545 H 0.88671 0.39036 0.10691 0.0
H546 H 0.95596 0.44214 0.12086 0.0
S547 S 0.80957 0.48432 0.19244 0.0
N548 N 0.79296 0.44394 0.17134 0.0
N549 N 0.86573 0.50103 0.18535 0.0
C550 C 0.87347 0.47319 0.1649 0.0
C551 C 0.8338 0.44249 0.15716 0.0
C552 C 0.64669 0.90072 0.66592 0.0
C553 C 0.66706 0.94822 0.66824 0.0
C554 C 0.67526 0.86062 0.65747 0.0
C555 C 0.72478 0.86704 0.65081 0.0
H556 H 0.60809 0.89494 0.66963 0.0
H557 H 0.65787 0.82507 0.65499 0.0
S558 S 0.79799 0.98088 0.65839 0.0
N559 N 0.74219 0.99664 0.66724 0.0
N560 N 0.79415 0.92264 0.6498 0.0
C561 C 0.74595 0.91354 0.65425 0.0
C562 C 0.71756 0.95374 0.66341 0.0
C563 C 0.89123 0.98562 0.91383 0.0
C564 C 0.9183 0.96872 0.89371 0.0
C565 C 0.85279 0.95766 0.92327 0.0
C566 C 0.83978 0.91161 0.91295 0.0
H567 H 0.89936 0.021 0.92221 0.0
H568 H 0.83269 0.97288 0.93865 0.0
S569 S 0.90188 0.8497 0.86077 0.0
N570 N 0.93154 0.90228 0.8643 0.0
N571 N 0.85906 0.84952 0.88209 0.0
C572 C 0.86775 0.89356 0.89326 0.0
C573 C 0.90695 0.92225 0.88358 0.0
C574 C 0.89387 0.12461 0.14614 0.0
C575 C 0.87462 0.09527 0.16505 0.0
C576 C 0.86691 0.16454 0.13645 0.0
C577 C 0.82041 0.1773 0.14573 0.0
H578 H 0.92902 0.11559 0.13808 0.0
H579 H 0.88233 0.18527 0.12135 0.0
S580 S 0.75465 0.11446 0.19605 0.0
N581 N 0.80665 0.08357 0.19343 0.0
N582 N 0.75697 0.15879 0.17527 0.0
C583 C 0.80168 0.14979 0.16527 0.0
C584 C 0.82858 0.10876 0.17492 0.0
C585 C 0.64956 0.14141 0.41212 0.0
C586 C 0.6975 0.12162 0.41153 0.0
C587 C 0.60857 0.11298 0.40458 0.0
C588 C 0.61462 0.06439 0.39588 0.0
H589 H 0.64367 0.17863 0.41873 0.0
H590 H 0.57229 0.12954 0.40482 0.0
S591 S 0.73145 0.99528 0.39088 0.0
N592 N 0.74774 0.04984 0.40159 0.0
N593 N 0.6712 0.99768 0.38754 0.0
C594 C 0.662 0.04444 0.39532 0.0
C595 C 0.70332 0.07273 0.40308 0.0
C596 C 0.36452 0.12481 0.36845 0.0
C597 C 0.38142 0.08777 0.38467 0.0
C598 C 0.3325 0.16239 0.37667 0.0
C599 C 0.31676 0.16422 0.40137 0.0
H600 H 0.37468 0.1238 0.3492 0.0
H601 H 0.31995 0.19001 0.36362 0.0
S602 S 0.35406 0.07781 0.45134 0.0
N603 N 0.38222 0.05691 0.42666 0.0
N604 N 0.32297 0.12679 0.44204 0.0
C605 C 0.33479 0.12808 0.41775 0.0
C606 C 0.36687 0.09009 0.40942 0.0
C607 C 0.1185 0.11992 0.15255 0.0
C608 C 0.11685 0.06817 0.15025 0.0
C609 C 0.15765 0.14742 0.14283 0.0
C610 C 0.19695 0.1239 0.13087 0.0
H611 H 0.08942 0.13927 0.16205 0.0
H612 H 0.15774 0.18702 0.14533 0.0
S613 S 0.20917 0.98818 0.12062 0.0
N614 N 0.15678 0.99456 0.13526 0.0
N615 N 0.23036 0.04455 0.11718 0.0
C616 C 0.19475 0.07181 0.12821 0.0
C617 C 0.15473 0.04438 0.13785 0.0
C618 C 0.21857 0.8819 0.8785 0.0
C619 C 0.21865 0.87074 0.9038 0.0
C620 C 0.18945 0.92045 0.8689 0.0
C621 C 0.15848 0.94868 0.88413 0.0
H622 H 0.24169 0.86118 0.86606 0.0
H623 H 0.19123 0.92814 0.84933 0.0
S624 S 0.14399 0.93312 0.95163 0.0
N625 N 0.18457 0.89063 0.9439 0.0
N626 N 0.12917 0.96191 0.9258 0.0
C627 C 0.1575 0.93717 0.9094 0.0
C628 C 0.18778 0.89858 0.91923 0.0
C629 C 0.3828 0.88717 0.64314 0.0
C630 C 0.34719 0.90979 0.62793 0.0
C631 C 0.42261 0.91443 0.65286 0.0
C632 C 0.42891 0.96474 0.64714 0.0
H633 H 0.37832 0.84913 0.64871 0.0
H634 H 0.44807 0.89629 0.66543 0.0
S635 S 0.34586 0.04051 0.60796 0.0
N636 N 0.32067 0.9852 0.60762 0.0
N637 N 0.39629 0.03557 0.62511 0.0
C638 C 0.39455 0.98709 0.63123 0.0
C639 C 0.35348 0.9598 0.62185 0.0
C640 C 0.35907 0.91185 1.02053 0.0
C641 C 0.31164 0.93151 1.02293 0.0
C642 C 0.36621 0.86571 1.00953 0.0
C643 C 0.3262 0.83789 1.00047 0.0
H644 H 0.39099 0.93427 0.02478 0.0
H645 H 0.4036 0.85381 1.00621 0.0
S646 S 0.19401 0.8699 1.00725 0.0
N647 N 0.22386 0.91706 1.01944 0.0
N648 N 0.23676 0.83062 0.99832 0.0
C649 C 0.27825 0.85486 1.00546 0.0
C650 C 0.27115 0.90166 1.01686 0.0
C651 C 0.92447 0.60389 0.26278 0.0
C652 C 0.94675 0.56522 0.24961 0.0
C653 C 0.87762 0.59855 0.27291 0.0
C654 C 0.85151 0.5544 0.27006 0.0
H655 H 0.94176 0.63977 0.2637 0.0
H656 H 0.86003 0.6305 0.28098 0.0
S657 S 0.89599 0.43914 0.24098 0.0
N658 N 0.94113 0.4789 0.23714 0.0
N659 N 0.85333 0.46914 0.25641 0.0
C660 C 0.87525 0.51383 0.25924 0.0
C661 C 0.92289 0.51914 0.24892 0.0
C662 C 0.1774 0.17496 0.5072 0.0
C663 C 0.21734 0.2028 0.4984 0.0
C664 C 0.1847 0.12992 0.51939 0.0
C665 C 0.23222 0.11115 0.5234 0.0
H666 H 0.13994 0.18591 0.50291 0.0
H667 H 0.15292 0.10744 0.52342 0.0
S668 S 0.34942 0.17273 0.5085 0.0
N669 N 0.30657 0.21077 0.49793 0.0
N670 N 0.31978 0.12628 0.52107 0.0
C671 C 0.27245 0.14088 0.51728 0.0
C672 C 0.26518 0.18665 0.5047 0.0
C673 C 0.67651 0.48247 0.73911 0.0
C674 C 0.68593 0.48361 0.76478 0.0
C675 C 0.62952 0.47675 0.72936 0.0
C676 C 0.58881 0.47169 0.74454 0.0
H677 H 0.7058 0.48512 0.72596 0.0
H678 H 0.62565 0.4742 0.70959 0.0
S679 S 0.59176 0.46442 0.81275 0.0
N680 N 0.6497 0.47433 0.80535 0.0
N681 N 0.5602 0.4626 0.78649 0.0
C682 C 0.59686 0.4701 0.77019 0.0
C683 C 0.64557 0.4762 0.78041 0.0
C684 C 0.68085 0.17238 0.03364 0.0
C685 C 0.72012 0.19659 0.04562 0.0
C686 C 0.68691 0.12538 0.02343 0.0
C687 C 0.73247 0.10112 0.02492 0.0
H688 H 0.64418 0.18806 0.03394 0.0
H689 H 0.65462 0.10607 1.01667 0.0
S690 S 0.84917 0.15146 0.05028 0.0
N691 N 0.80803 0.19506 0.05536 0.0
N692 N 0.81927 0.10727 0.03554 0.0
C693 C 0.77338 0.12724 0.0341 0.0
C694 C 0.76726 0.17488 0.0447 0.0
C695 C 0.12262 0.42936 0.80154 0.0
C696 C 0.08679 0.46606 0.79758 0.0
C697 C 0.16926 0.43221 0.79114 0.0
C698 C 0.18227 0.47242 0.77647 0.0
H699 H 0.11595 0.39995 0.81424 0.0
H700 H 0.19656 0.40468 0.79616 0.0
S701 S 0.10296 0.57887 0.76024 0.0
N702 N 0.06775 0.54395 0.77764 0.0
N703 N 0.15629 0.54988 0.75822 0.0
C704 C 0.1469 0.50915 0.77186 0.0
C705 C 0.09905 0.50605 0.78248 0.0
C706 C 0.76214 0.90213 0.52708 0.0
C707 C 0.80215 0.93172 0.52021 0.0
C708 C 0.76958 0.85669 0.53884 0.0
C709 C 0.81734 0.8389 0.54397 0.0
H710 H 0.72495 0.91629 0.52541 0.0
H711 H 0.73767 0.83729 0.54556 0.0
S712 S 0.93418 0.89853 0.52581 0.0
N713 N 0.89088 0.93723 0.51659 0.0
N714 N 0.905 0.8514 0.53797 0.0
C715 C 0.8574 0.86564 0.5347 0.0
C716 C 0.84977 0.91206 0.5229 0.0
C717 C 0.36021 0.5838 0.30773 0.0
C718 C 0.34885 0.56476 0.28416 0.0
C719 C 0.4086 0.5886 0.31595 0.0
C720 C 0.44791 0.57576 0.30078 0.0
H721 H 0.33126 0.59395 0.32034 0.0
H722 H 0.41533 0.60172 0.33459 0.0
S723 S 0.43954 0.52903 0.23671 0.0
N724 N 0.38163 0.53588 0.24506 0.0
N725 N 0.47358 0.54606 0.26071 0.0
C726 C 0.43786 0.55862 0.27683 0.0
C727 C 0.38805 0.55333 0.26837 0.0
C728 C 0.8017 0.40007 0.52835 0.0
C729 C 0.81567 0.44094 0.51407 0.0
C730 C 0.80489 0.35165 0.51878 0.0
C731 C 0.82149 0.34315 0.49463 0.0
H732 H 0.78642 0.40569 0.5465 0.0
H733 H 0.79345 0.32097 0.53008 0.0
S734 S 0.8605 0.4376 0.44969 0.0
N735 N 0.84891 0.46883 0.47505 0.0
N736 N 0.84946 0.37945 0.45649 0.0
C737 C 0.83552 0.38365 0.4804 0.0
C738 C 0.83431 0.43208 0.49033 0.0
C739 C 0.36691 0.10754 0.74592 0.0
C740 C 0.35505 0.08008 0.76696 0.0
C741 C 0.41516 0.10943 0.7375 0.0
C742 C 0.45305 0.08391 0.74985 0.0
H743 H 0.33808 0.12496 0.73501 0.0
H744 H 0.42227 0.12826 0.72029 0.0
S745 S 0.44162 1.00949 0.80659 0.0
N746 N 0.38511 0.02932 0.80079 0.0
N747 N 0.47638 0.03234 0.78459 0.0
C748 C 0.44219 0.0582 0.7715 0.0
C749 C 0.39295 0.05663 0.78025 0.0
C750 C 0.75526 0.68534 1.00656 0.0
C751 C 0.70924 0.69998 0.99678 0.0
C752 C 0.76188 0.63863 1.01727 0.0
C753 C 0.72268 0.60516 1.01863 0.0
H754 H 0.78697 0.70908 1.00481 0.0
H755 H 0.79849 0.6274 1.02307 0.0
S756 S 0.59555 0.62384 0.99566 0.0
N757 N 0.62378 0.6761 0.98954 0.0
N758 N 0.63697 0.58889 1.00968 0.0
C759 C 0.67627 0.61977 1.01002 0.0
C760 C 0.66935 0.66706 0.99908 0.0
C761 C 0.10089 0.9919 0.26718 0.0
C762 C 0.09288 0.96454 0.24539 0.0
C763 C 0.14879 0.99742 0.27718 0.0
C764 C 0.18939 0.97542 0.26561 0.0
H765 H 0.07035 1.01 0.2761 0.0
H766 H 0.15439 0.02079 0.29317 0.0
S767 S 0.18899 0.90649 0.20707 0.0
N768 N 0.13064 0.92039 0.21156 0.0
N769 N 0.2189 0.92675 0.23152 0.0
C770 C 0.18134 0.94709 0.2444 0.0
C771 C 0.13357 0.94299 0.23387 0.0
C772 C 0.25442 0.68633 0.53985 0.0
C773 C 0.20819 0.70148 0.54862 0.0
C774 C 0.26085 0.63963 0.52923 0.0
C775 C 0.22124 0.60673 0.52689 0.0
H776 H 0.2865 0.70938 0.54259 0.0
H777 H 0.29763 0.62778 0.52448 0.0
S778 S 0.09312 0.62792 0.54643 0.0
N779 N 0.12197 0.67958 0.55342 0.0
N780 N 0.13464 0.59218 0.53347 0.0
C781 C 0.17452 0.62227 0.53417 0.0
C782 C 0.16785 0.66959 0.54505 0.0
C783 C 0.6598 0.02616 0.28614 0.0
C784 C 0.6841 0.98627 0.27477 0.0
C785 C 0.6125 0.02088 0.29571 0.0
C786 C 0.5874 0.97576 0.29378 0.0
H787 H 0.67922 0.06032 0.2897 0.0
H788 H 0.59762 0.0509 0.30652 0.0
S789 S 0.62848 0.86518 0.25954 0.0
N790 N 0.67531 0.90359 0.25795 0.0
N791 N 0.58557 0.89451 0.27509 0.0
C792 C 0.60833 0.93822 0.27944 0.0
C793 C 0.65682 0.94332 0.26998 0.0
C794 C 0.27025 0.35977 0.04746 0.0
C795 C 0.31612 0.3357 0.0469 0.0
C796 C 0.26372 0.40619 0.03655 0.0
C797 C 0.3029 0.43066 0.02497 0.0
H798 H 0.24045 0.34494 0.05822 0.0
H799 H 0.22904 0.42512 0.03923 0.0
S800 S 0.42629 0.37807 1.01337 0.0
N801 N 0.39812 0.33537 0.02959 0.0
N802 N 0.3862 0.42339 1.00981 0.0
C803 C 0.34687 0.40443 1.02169 0.0
C804 C 0.35343 0.35687 0.0326 0.0
C805 C 0.92408 0.10573 0.78591 0.0
C806 C 0.9504 0.06719 0.79757 0.0
C807 C 0.87941 0.09709 0.77337 0.0
C808 C 0.85937 0.04951 0.77199 0.0
H809 H 0.93579 0.14358 0.78834 0.0
H810 H 0.85793 0.12852 0.76718 0.0
S811 S 0.91743 0.93452 0.79502 0.0
N812 N 0.95598 0.97842 0.80366 0.0
N813 N 0.87268 0.96243 0.7796 0.0
C814 C 0.88825 1.00995 0.78073 0.0
C815 C 0.93353 1.01869 0.79373 0.0
C816 C 0.20482 0.06434 0.97587 0.0
C817 C 0.25357 0.07948 0.98005 0.0
C818 C 0.18148 0.07087 0.95297 0.0
C819 C 0.20577 0.09253 0.9329 0.0
H820 H 0.18521 0.04504 0.9902 0.0
H821 H 0.14431 0.05718 0.95084 0.0
S822 S 0.3334 0.141 0.93465 0.0
N823 N 0.32519 0.11892 0.96269 0.0
N824 N 0.28135 0.13135 0.9193 0.0
C825 C 0.25433 0.10918 0.93698 0.0
C826 C 0.27809 0.10282 0.96062 0.0
C827 C 0.68938 0.52128 0.18459 0.0
C828 C 0.66648 0.47482 0.18482 0.0
C829 C 0.70183 0.54555 0.20671 0.0
C830 C 0.69154 0.52446 0.22983 0.0
H831 H 0.701 0.53741 0.16737 0.0
H832 H 0.72275 0.57942 0.20576 0.0
S833 S 0.62629 0.40706 0.24051 0.0
N834 N 0.62925 0.41148 0.2102 0.0
N835 N 0.65313 0.45706 0.25154 0.0
C836 C 0.66523 0.48018 0.23026 0.0
C837 C 0.65272 0.45532 0.20781 0.0
C838 C 0.27937 0.96458 0.43447 0.0
C839 C 0.31527 0.92724 0.43411 0.0
C840 C 0.25808 0.9796 0.45672 0.0
C841 C 0.27208 0.95814 0.4795 0.0
H842 H 0.26965 0.98426 0.41772 0.0
H843 H 0.23187 1.00974 0.45618 0.0
S844 S 0.36012 0.85482 0.48781 0.0
N845 N 0.36024 0.86587 0.45788 0.0
N846 N 0.32094 0.89459 0.49971 0.0
C847 C 0.30555 0.91868 0.47907 0.0
C848 C 0.32714 0.90336 0.4564 0.0
C849 C 0.88608 0.58687 0.70957 0.0
C850 C 0.86587 0.56912 0.68718 0.0
C851 C 0.87406 0.56559 0.73229 0.0
C852 C 0.8416 0.52572 0.73331 0.0
H853 H 0.90959 0.61902 0.70966 0.0
H854 H 0.8877 0.58234 0.74918 0.0
S855 S 0.78059 0.46321 0.6803 0.0
N856 N 0.81264 0.50798 0.66768 0.0
N857 N 0.79251 0.46643 0.71019 0.0
C858 C 0.82378 0.50542 0.71101 0.0
C859 C 0.8352 0.52753 0.68796 0.0
C860 C 0.74692 0.95301 0.09152 0.0
C861 C 0.77071 0.94776 0.06874 0.0
C862 C 0.77228 0.94493 0.11397 0.0
C863 C 0.82261 0.9325 0.11432 0.0
H864 H 0.70933 0.96629 0.09199 0.0
H865 H 0.75322 0.9516 0.13108 0.0
S866 S 0.9008 0.91355 0.05936 0.0
N867 N 0.84628 0.92813 0.04778 0.0
N868 N 0.89435 0.91335 0.08961 0.0
C869 C 0.84602 0.92545 0.09151 0.0
C870 C 0.81999 0.93298 0.0688 0.0
C871 C 0.3461 0.5786 0.81637 0.0
C872 C 0.3344 0.52846 0.81549 0.0
C873 C 0.35845 0.60142 0.83878 0.0
C874 C 0.35932 0.575 0.86122 0.0
H875 H 0.34339 0.60081 0.79982 0.0
H876 H 0.36564 0.64064 0.83853 0.0
S877 S 0.33084 0.44202 0.86822 0.0
N878 N 0.32452 0.45247 0.83834 0.0
N879 N 0.34725 0.49518 0.88071 0.0
C880 C 0.34857 0.52428 0.86037 0.0
C881 C 0.3362 0.50109 0.83744 0.0
C882 C 0.74678 0.06621 0.61021 0.0
C883 C 0.7263 0.11319 0.61299 0.0
C884 C 0.76653 0.05087 0.5878 0.0
C885 C 0.76467 0.08116 0.5666 0.0
H886 H 0.74522 0.04012 0.62506 0.0
H887 H 0.78228 1.01421 0.58711 0.0
S888 S 0.71848 0.21017 0.5652 0.0
N889 N 0.70909 0.19193 0.59379 0.0
N890 N 0.74342 0.16269 0.55088 0.0
C891 C 0.74588 0.12931 0.56948 0.0
C892 C 0.72684 0.14517 0.59271 0.0
C893 C 0.18506 0.50858 0.36172 0.0
C894 C 0.17627 0.45752 0.36294 0.0
C895 C 0.19384 0.53192 0.33898 0.0
C896 C 0.19263 0.50545 0.31654 0.0
H897 H 0.18876 0.52996 0.37852 0.0
H898 H 0.20493 0.57025 0.33907 0.0
S899 S 0.1655 0.37286 0.30913 0.0
N900 N 0.16267 0.38245 0.33916 0.0
N901 N 0.17833 0.4268 0.29679 0.0
C902 C 0.18021 0.45554 0.31732 0.0
C903 C 0.17218 0.43152 0.3404 0.0
C904 C 0.68621 0.62537 0.45941 0.0
C905 C 0.71143 0.61868 0.43704 0.0
C906 C 0.70868 0.6152 0.48224 0.0
C907 C 0.75728 0.59826 0.48354 0.0
H908 H 0.64786 0.63623 0.45929 0.0
H909 H 0.68681 0.6171 0.49879 0.0
S910 S 0.84046 0.57563 0.43102 0.0
N911 N 0.78858 0.5947 0.418 0.0
N912 N 0.83105 0.57713 0.46104 0.0
C913 C 0.78394 0.59395 0.46155 0.0
C914 C 0.76097 0.60367 0.43825 0.0
C915 C 0.17065 1.00544 0.69039 0.0
C916 C 0.18691 0.95697 0.68586 0.0
C917 C 0.18042 0.02885 0.71318 0.0
C918 C 0.20699 1.0046 0.73205 0.0
H919 H 0.15093 0.02562 0.67615 0.0
H920 H 0.16935 0.06691 0.7156 0.0
S921 S 0.26159 0.87964 0.72892 0.0
N922 N 0.23365 0.887 0.70198 0.0
N923 N 0.25081 0.93071 0.74449 0.0
C924 C 0.22314 0.95628 0.72778 0.0
C925 C 0.21356 0.9326 0.70475 0.0
C926 C 0.75501 0.44481 0.95996 0.0
C927 C 0.78242 0.45218 0.98189 0.0
C928 C 0.77845 0.43761 0.93716 0.0
C929 C 0.83011 0.43873 0.93547 0.0
H930 H 0.71527 0.44754 0.96024 0.0
H931 H 0.75595 0.43403 0.92063 0.0
S932 S 0.91787 0.45757 0.9878 0.0
N933 N 0.86319 0.45987 1.00059 0.0
N934 N 0.90753 0.44696 0.95821 0.0
C935 C 0.85761 0.44478 0.95753 0.0
C936 C 0.83372 0.45135 0.9806 0.0
C937 C 0.35186 1.01336 0.21072 0.0
C938 C 0.34037 0.04138 0.23183 0.0
C939 C 0.35852 0.03595 0.18748 0.0
C940 C 0.35286 0.08733 0.18443 0.0
H941 H 0.35294 0.97351 0.21189 0.0
H942 H 0.36591 1.01279 0.17167 0.0
S943 S 0.31918 0.17586 0.23414 0.0
N944 N 0.32213 0.12206 0.24815 0.0
N945 N 0.33362 0.16483 0.20519 0.0
C946 C 0.34172 0.11539 0.20571 0.0
C947 C 0.33576 0.0924 0.22917 0.0
C948 C 0.26042 0.43815 0.58641 0.0
C949 C 0.28572 0.4577 0.56617 0.0
C950 C 0.2849 0.42918 0.60911 0.0
C951 C 0.33539 0.43974 0.61229 0.0
H952 H 0.22113 0.43205 0.58505 0.0
H953 H 0.26384 0.41527 0.62441 0.0
S954 S 0.41657 0.49396 0.56461 0.0
N955 N 0.36275 0.48812 0.55062 0.0
N956 N 0.40887 0.47236 0.59273 0.0
C957 C 0.36074 0.45896 0.59182 0.0
C958 C 0.3359 0.46759 0.56893 0.0
C959 C 0.84617 0.02281 0.36372 0.0
C960 C 0.85906 0.07306 0.36384 0.0
C961 C 0.83569 0.99795 0.34144 0.0
C962 C 0.83957 0.02198 0.31856 0.0
H963 H 0.84108 1.00345 0.38094 0.0
H964 H 0.82199 0.96052 0.34216 0.0
S965 S 0.8769 0.15117 0.30842 0.0
N966 N 0.87853 0.14452 0.33869 0.0
N967 N 0.86014 0.09715 0.29716 0.0
C968 C 0.85565 0.07086 0.31832 0.0
C969 C 0.86521 0.09652 0.34088 0.0
C970 C 0.2225 0.61056 0.06667 0.0
C971 C 0.26872 0.58765 0.06673 0.0
C972 C 0.1993 0.62249 0.08884 0.0
C973 C 0.22146 0.61209 0.11194 0.0
H974 H 0.20276 0.61635 0.04942 0.0
H975 H 0.16263 0.63808 0.08779 0.0
S976 S 0.34433 0.5546 0.12159 0.0
N977 N 0.33742 0.55722 0.09132 0.0
N978 N 0.29395 0.57923 0.13315 0.0
C979 C 0.26898 0.59127 0.11214 0.0
C980 C 0.29254 0.57918 0.08949 0.0
C981 C 0.72435 1.00742 0.86361 0.0
C982 C 0.68296 0.97703 0.86564 0.0
C983 C 0.73679 0.02861 0.84087 0.0
C984 C 0.70911 1.01934 0.819 0.0
H985 H 0.74898 1.01243 0.87928 0.0
H986 H 0.76989 0.05064 0.84029 0.0
S987 S 0.59115 0.95085 0.81632 0.0
N988 N 0.60972 0.94551 0.84531 0.0
N989 N 0.63357 0.98378 0.80241 0.0
C990 C 0.66507 0.99273 0.82151 0.0
C991 C 0.65222 0.97162 0.84479 0.0
C992 C 0.52969 0.32124 0.11207 0.0
C993 C 0.57139 0.29001 0.11452 0.0
C994 C 0.48107 0.3032 0.11342 0.0
C995 C 0.47144 0.25285 0.11708 0.0
H996 H 0.53438 0.36033 0.10893 0.0
H997 H 0.45082 0.32883 0.1109 0.0
S998 S 0.56648 0.1547 0.12439 0.0
N999 N 0.59867 0.20559 0.12078 0.0
N1000 N 0.50823 0.17177 0.12309 0.0
C1001 C 0.51266 0.22112 0.1195 0.0
C1002 C 0.56215 0.23956 0.11832 0.0
C1003 C 0.51756 0.74119 0.3856 0.0
C1004 C 0.53529 0.71852 0.364 0.0
C1005 C 0.50071 0.79081 0.38554 0.0
C1006 C 0.50042 0.81954 0.36383 0.0
H1007 H 0.51766 0.72083 0.40276 0.0
H1008 H 0.48737 0.80663 0.40255 0.0
S1009 S 0.53934 0.77654 0.30206 0.0
N1010 N 0.55009 0.72884 0.32024 0.0
N1011 N 0.51633 0.81997 0.31993 0.0
C1012 C 0.51678 0.79674 0.3421 0.0
C1013 C 0.53484 0.74696 0.34225 0.0
C1014 C 0.05873 0.74176 0.62274 0.0
C1015 C 0.06858 0.79129 0.6166 0.0
C1016 C 1.0102 0.72269 0.6224 0.0
C1017 C 0.9688 0.75227 0.61635 0.0
H1018 H 0.08877 0.71718 0.62754 0.0
H1019 H 1.0051 0.68426 0.62706 0.0
S1020 S 0.97362 0.88312 0.59675 0.0
N1021 N 0.03151 0.86852 0.60256 0.0
N1022 N 0.94174 0.83308 0.60282 0.0
C1023 C 0.97808 0.80156 0.61 0.0
C1024 C 0.02735 0.82082 0.60986 0.0
C1025 C 0.99547 0.23154 0.87994 0.0
C1026 C 0.03736 0.21796 0.86637 0.0
C1027 C 0.97781 0.28061 0.88017 0.0
C1028 C 1.00166 0.31854 0.86721 0.0
H1029 H 0.97603 0.20408 0.89048 0.0
H1030 H 0.9452 0.28897 0.89067 0.0
S1031 S 0.10719 0.30102 0.82531 0.0
N1032 N 0.09794 0.24592 0.83696 0.0
N1033 N 0.0662 0.33738 0.83832 0.0
C1034 C 0.04259 0.30511 0.85306 0.0
C1035 C 0.05999 0.25518 0.8524 0.0
C1036 C 0.55698 0.74217 0.93876 0.0
C1037 C 0.56825 0.78704 0.92721 0.0
C1038 C 0.50822 0.72496 0.94005 0.0
C1039 C 0.46808 0.75125 0.92947 0.0
H1040 H 0.58591 0.72062 0.94741 0.0
H1041 H 0.50218 0.69058 0.94966 0.0
S1042 S 0.47854 0.87004 0.89603 0.0
N1043 N 0.53557 0.85719 0.90467 0.0
N1044 N 0.4444 0.82443 0.90637 0.0
C1045 C 0.47914 0.796 0.91762 0.0
C1046 C 0.52888 0.81387 0.91667 0.0
C1047 C 0.54832 0.24925 0.6625 0.0
C1048 C 0.53593 0.21641 0.68166 0.0
C1049 C 0.53253 0.29914 0.66243 0.0
C1050 C 0.50417 0.3186 0.68175 0.0
H1051 H 0.57051 0.23619 0.64736 0.0
H1052 H 0.54204 0.32237 0.647 0.0
S1053 S 0.46906 0.25068 0.73844 0.0
N1054 N 0.49793 0.20913 0.72168 0.0
N1055 N 0.46908 0.30175 0.72194 0.0
C1056 C 0.49329 0.28652 0.70148 0.0
C1057 C 0.50895 0.2359 0.70137 0.0
C1058 C 0.0576 0.23923 0.42446 0.0
C1059 C 0.06878 0.28906 0.42916 0.0
C1060 C 1.00863 0.22166 0.42485 0.0
C1061 C 0.96806 0.25301 0.42967 0.0
H1062 H 0.08695 0.21327 0.42085 0.0
H1063 H 1.00262 0.18283 0.42134 0.0
S1064 S 0.97696 0.38578 0.44536 0.0
N1065 N 0.03419 0.36903 0.44029 0.0
N1066 N 0.94354 0.33589 0.44079 0.0
C1067 C 0.97878 0.30265 0.43473 0.0
C1068 C 0.02852 0.32056 0.43458 0.0
C1069 C 0.98885 0.72873 0.18064 0.0
C1070 C 0.03968 0.71847 0.18132 0.0
C1071 C 0.97071 0.77777 0.18032 0.0
C1072 C 1.00237 0.81927 0.18023 0.0
H1073 H 0.96271 0.6987 0.18084 0.0
H1074 H 0.93123 0.78302 0.1802 0.0
S1075 S 0.1386 0.81209 0.18013 0.0
N1076 N 0.12125 0.75422 0.1811 0.0
N1077 N 0.08762 0.8452 0.17991 0.0
C1078 C 0.0532 0.80919 0.18042 0.0
C1079 C 0.07159 0.7594 0.18112 0.0
loop_
_geom_bond_atom_site_label_1
_geom_bond_atom_site_label_2
_geom_bond_distance
_geom_bond_site_symmetry_2
_ccdc_geom_bond_type
O0 Tb1 2.292 . S
O0 C3 1.255 . S
Tb1 O0 2.292 . S
Tb1 O17 2.326 . S
Tb1 O19 2.500 . S
Tb1 O20 2.473 . S
Tb1 O23 2.324 . S
Eu2 O6 2.292 . S
Eu2 C7 2.852 . S
Eu2 O18 2.324 . S
Eu2 O22 2.326 . S
Eu2 O24 2.500 . S
Eu2 O25 2.473 . S
C3 O0 1.255 . S
C3 O4 1.247 . S
O4 C3 1.247 . S
C5 O17 1.242 . S
C5 O18 1.258 . S
O6 Eu2 2.292 . S
O6 C8 1.255 . S
C7 Eu2 2.852 . S
C7 C11 1.503 . S
C7 O24 1.273 . S
C7 O25 1.257 . S
C8 O6 1.255 . S
C8 O9 1.247 . S
O9 C8 1.247 . S
C10 O22 1.242 . S
C10 O23 1.258 . S
C11 C7 1.503 . S
C11 C12 1.379 . S
C11 C16 1.392 1_545 S
C12 C11 1.379 . S
C12 C13 1.404 1_554 S
C12 H26 0.929 . S
C13 C12 1.404 1_556 S
C13 C14 1.389 1_545 S
C14 C13 1.389 1_565 S
C14 C15 1.399 1_556 S
C14 H27 0.931 . S
C15 C14 1.399 1_554 S
C15 C16 1.390 . S
C16 C11 1.392 1_565 S
C16 C15 1.390 . S
C16 H28 0.929 . S
O17 Tb1 2.326 . S
O17 C5 1.242 . S
O18 Eu2 2.324 . S
O18 C5 1.258 . S
O19 Tb1 2.500 . S
O19 C21 1.273 . S
O20 Tb1 2.473 . S
O20 C21 1.257 . S
C21 O19 1.273 . S
C21 O20 1.257 . S
O22 Eu2 2.326 . S
O22 C10 1.242 . S
O23 Tb1 2.324 . S
O23 C10 1.258 . S
O24 Eu2 2.500 . S
O24 C7 1.273 . S
O25 Eu2 2.473 . S
O25 C7 1.257 . S
H26 C12 0.929 . S
H27 C14 0.931 . S
H28 C16 0.929 . S
O29 Tb30 2.292 . S
O29 C32 1.255 . S
Tb30 O29 2.292 . S
Tb30 O46 2.326 . S
Tb30 O48 2.500 . S
Tb30 O49 2.473 . S
Tb30 O52 2.324 . S
Eu31 O35 2.292 . S
Eu31 C36 2.852 . S
Eu31 O47 2.324 . S
Eu31 O51 2.326 . S
Eu31 O53 2.500 . S
Eu31 O54 2.473 . S
C32 O29 1.255 . S
C32 O33 1.247 . S
O33 C32 1.247 . S
C34 O46 1.242 . S
C34 O47 1.258 . S
O35 Eu31 2.292 . S
O35 C37 1.255 . S
C36 Eu31 2.852 . S
C36 C40 1.503 . S
C36 O53 1.273 . S
C36 O54 1.257 . S
C37 O35 1.255 . S
C37 O38 1.247 . S
O38 C37 1.247 . S
C39 O51 1.242 . S
C39 O52 1.258 . S
C40 C36 1.503 . S
C40 C41 1.379 . S
C40 C45 1.392 . S
C41 C40 1.379 . S
C41 C42 1.404 . S
C41 H55 0.929 . S
C42 C41 1.404 . S
C42 C43 1.389 . S
C43 C42 1.389 . S
C43 C44 1.399 . S
C43 H56 0.931 . S
C44 C43 1.399 . S
C44 C45 1.390 . S
C45 C40 1.392 . S
C45 C44 1.390 . S
C45 H57 0.929 . S
O46 Tb30 2.326 . S
O46 C34 1.242 . S
O47 Eu31 2.324 . S
O47 C34 1.258 . S
O48 Tb30 2.500 . S
O48 C50 1.273 . S
O49 Tb30 2.473 . S
O49 C50 1.257 . S
C50 O48 1.273 . S
C50 O49 1.257 . S
O51 Eu31 2.326 . S
O51 C39 1.242 . S
O52 Tb30 2.324 . S
O52 C39 1.258 . S
O53 Eu31 2.500 . S
O53 C36 1.273 . S
O54 Eu31 2.473 . S
O54 C36 1.257 . S
H55 C41 0.929 . S
H56 C43 0.931 . S
H57 C45 0.929 . S
O58 Tb59 2.292 . S
O58 C61 1.255 . S
Tb59 O58 2.292 . S
Tb59 O75 2.326 . S
Tb59 O77 2.500 . S
Tb59 O78 2.473 . S
Tb59 O81 2.324 . S
Eu60 O64 2.292 . S
Eu60 C65 2.852 . S
Eu60 O76 2.324 . S
Eu60 O80 2.326 . S
Eu60 O82 2.500 . S
Eu60 O83 2.473 . S
C61 O58 1.255 . S
C61 O62 1.247 . S
O62 C61 1.247 . S
C63 O75 1.242 . S
C63 O76 1.258 . S
O64 Eu60 2.292 . S
O64 C66 1.255 . S
C65 Eu60 2.852 . S
C65 C69 1.503 . S
C65 O82 1.273 . S
C65 O83 1.257 . S
C66 O64 1.255 . S
C66 O67 1.247 . S
O67 C66 1.247 . S
C68 O80 1.242 . S
C68 O81 1.258 . S
C69 C65 1.503 . S
C69 C70 1.379 . S
C69 C74 1.392 1_565 S
C70 C69 1.379 . S
C70 C71 1.404 . S
C70 H84 0.929 . S
C71 C70 1.404 . S
C71 C72 1.389 1_565 S
C72 C71 1.389 1_545 S
C72 C73 1.399 . S
C72 H85 0.931 . S
C73 C72 1.399 . S
C73 C74 1.390 . S
C74 C69 1.392 1_545 S
C74 C73 1.390 . S
C74 H86 0.929 . S
O75 Tb59 2.326 . S
O75 C63 1.242 . S
O76 Eu60 2.324 . S
O76 C63 1.258 . S
O77 Tb59 2.500 . S
O77 C79 1.273 . S
O78 Tb59 2.473 . S
O78 C79 1.257 . S
C79 O77 1.273 . S
C79 O78 1.257 . S
O80 Eu60 2.326 . S
O80 C68 1.242 . S
O81 Tb59 2.324 . S
O81 C68 1.258 . S
O82 Eu60 2.500 . S
O82 C65 1.273 . S
O83 Eu60 2.473 . S
O83 C65 1.257 . S
H84 C70 0.929 . S
H85 C72 0.931 . S
H86 C74 0.929 . S
O87 Tb88 2.292 1_455 S
O87 C90 1.255 . S
Tb88 O87 2.292 1_655 S
Tb88 O104 2.326 . S
Tb88 O106 2.500 1_655 S
Tb88 O107 2.473 . S
Tb88 O110 2.324 . S
Eu89 O93 2.292 . S
Eu89 C94 2.852 . S
Eu89 O105 2.324 . S
Eu89 O109 2.326 . S
Eu89 O111 2.500 . S
Eu89 O112 2.473 . S
C90 O87 1.255 . S
C90 O91 1.247 . S
O91 C90 1.247 . S
C92 O104 1.242 . S
C92 O105 1.258 . S
O93 Eu89 2.292 . S
O93 C95 1.255 . S
C94 Eu89 2.852 . S
C94 C98 1.503 . S
C94 O111 1.273 . S
C94 O112 1.257 . S
C95 O93 1.255 . S
C95 O96 1.247 . S
O96 C95 1.247 . S
C97 O109 1.242 . S
C97 O110 1.258 . S
C98 C94 1.503 . S
C98 C99 1.379 . S
C98 C103 1.392 . S
C99 C98 1.379 . S
C99 C100 1.404 . S
C99 H113 0.929 . S
C100 C99 1.404 . S
C100 C101 1.389 . S
C101 C100 1.389 . S
C101 C102 1.399 . S
C101 H114 0.931 . S
C102 C101 1.399 . S
C102 C103 1.390 . S
C103 C98 1.392 . S
C103 C102 1.390 . S
C103 H115 0.929 . S
O104 Tb88 2.326 . S
O104 C92 1.242 . S
O105 Eu89 2.324 . S
O105 C92 1.258 . S
O106 Tb88 2.500 1_455 S
O106 C108 1.273 . S
O107 Tb88 2.473 . S
O107 C108 1.257 1_655 S
C108 O106 1.273 . S
C108 O107 1.257 1_455 S
O109 Eu89 2.326 . S
O109 C97 1.242 . S
O110 Tb88 2.324 . S
O110 C97 1.258 . S
O111 Eu89 2.500 . S
O111 C94 1.273 . S
O112 Eu89 2.473 . S
O112 C94 1.257 . S
H113 C99 0.929 . S
H114 C101 0.931 . S
H115 C103 0.929 . S
O116 Tb117 2.292 . S
O116 C119 1.255 . S
Tb117 O116 2.292 . S
Tb117 O133 2.326 . S
Tb117 O135 2.500 . S
Tb117 O136 2.473 . S
Tb117 O139 2.324 . S
Eu118 O122 2.292 . S
Eu118 C123 2.852 . S
Eu118 O134 2.324 . S
Eu118 O138 2.326 . S
Eu118 O140 2.500 . S
Eu118 O141 2.473 . S
C119 O116 1.255 . S
C119 O120 1.247 . S
O120 C119 1.247 . S
C121 O133 1.242 . S
C121 O134 1.258 . S
O122 Eu118 2.292 . S
O122 C124 1.255 . S
C123 Eu118 2.852 . S
C123 C127 1.503 . S
C123 O140 1.273 . S
C123 O141 1.257 . S
C124 O122 1.255 . S
C124 O125 1.247 . S
O125 C124 1.247 . S
C126 O138 1.242 . S
C126 O139 1.258 . S
C127 C123 1.503 . S
C127 C128 1.379 . S
C127 C132 1.392 1_565 S
C128 C127 1.379 . S
C128 C129 1.404 1_556 S
C128 H142 0.929 . S
C129 C128 1.404 1_554 S
C129 C130 1.389 1_565 S
C130 C129 1.389 1_545 S
C130 C131 1.399 1_554 S
C130 H143 0.931 . S
C131 C130 1.399 1_556 S
C131 C132 1.390 . S
C132 C127 1.392 1_545 S
C132 C131 1.390 . S
C132 H144 0.929 . S
O133 Tb117 2.326 . S
O133 C121 1.242 . S
O134 Eu118 2.324 . S
O134 C121 1.258 . S
O135 Tb117 2.500 . S
O135 C137 1.273 . S
O136 Tb117 2.473 . S
O136 C137 1.257 . S
C137 O135 1.273 . S
C137 O136 1.257 . S
O138 Eu118 2.326 . S
O138 C126 1.242 . S
O139 Tb117 2.324 . S
O139 C126 1.258 . S
O140 Eu118 2.500 . S
O140 C123 1.273 . S
O141 Eu118 2.473 . S
O141 C123 1.257 . S
H142 C128 0.929 . S
H143 C130 0.931 . S
H144 C132 0.929 . S
O145 Tb146 2.292 . S
O145 C148 1.255 . S
Tb146 O145 2.292 . S
Tb146 O162 2.326 . S
Tb146 O164 2.500 . S
Tb146 O165 2.473 . S
Tb146 O168 2.324 . S
Eu147 O151 2.292 . S
Eu147 C152 2.852 . S
Eu147 O163 2.324 . S
Eu147 O167 2.326 . S
Eu147 O169 2.500 . S
Eu147 O170 2.473 . S
C148 O145 1.255 . S
C148 O149 1.247 . S
O149 C148 1.247 . S
C150 O162 1.242 . S
C150 O163 1.258 . S
O151 Eu147 2.292 . S
O151 C153 1.255 . S
C152 Eu147 2.852 . S
C152 C156 1.503 . S
C152 O169 1.273 . S
C152 O170 1.257 . S
C153 O151 1.255 . S
C153 O154 1.247 . S
O154 C153 1.247 . S
C155 O167 1.242 . S
C155 O168 1.258 . S
C156 C152 1.503 . S
C156 C157 1.379 . S
C156 C161 1.392 . S
C157 C156 1.379 . S
C157 C158 1.404 . S
C157 H171 0.929 . S
C158 C157 1.404 . S
C158 C159 1.389 . S
C159 C158 1.389 . S
C159 C160 1.399 . S
C159 H172 0.931 . S
C160 C159 1.399 . S
C160 C161 1.390 . S
C161 C156 1.392 . S
C161 C160 1.390 . S
C161 H173 0.929 . S
O162 Tb146 2.326 . S
O162 C150 1.242 . S
O163 Eu147 2.324 . S
O163 C150 1.258 . S
O164 Tb146 2.500 . S
O164 C166 1.273 . S
O165 Tb146 2.473 . S
O165 C166 1.257 . S
C166 O164 1.273 . S
C166 O165 1.257 . S
O167 Eu147 2.326 . S
O167 C155 1.242 . S
O168 Tb146 2.324 . S
O168 C155 1.258 . S
O169 Eu147 2.500 . S
O169 C152 1.273 . S
O170 Eu147 2.473 . S
O170 C152 1.257 . S
H171 C157 0.929 . S
H172 C159 0.931 . S
H173 C161 0.929 . S
O174 Tb175 2.292 . S
O174 C177 1.255 . S
Tb175 O174 2.292 . S
Tb175 O191 2.326 . S
Tb175 O193 2.500 . S
Tb175 O194 2.473 . S
Tb175 O197 2.324 . S
Eu176 O180 2.292 . S
Eu176 C181 2.852 . S
Eu176 O192 2.324 . S
Eu176 O196 2.326 . S
Eu176 O198 2.500 . S
Eu176 O199 2.473 . S
C177 O174 1.255 . S
C177 O178 1.247 . S
O178 C177 1.247 . S
C179 O191 1.242 . S
C179 O192 1.258 . S
O180 Eu176 2.292 . S
O180 C182 1.255 . S
C181 Eu176 2.852 . S
C181 C185 1.503 . S
C181 O198 1.273 . S
C181 O199 1.257 . S
C182 O180 1.255 . S
C182 O183 1.247 . S
O183 C182 1.247 . S
C184 O196 1.242 . S
C184 O197 1.258 . S
C185 C181 1.503 . S
C185 C186 1.379 . S
C185 C190 1.392 1_545 S
C186 C185 1.379 . S
C186 C187 1.404 . S
C186 H200 0.929 . S
C187 C186 1.404 . S
C187 C188 1.389 1_545 S
C188 C187 1.389 1_565 S
C188 C189 1.399 . S
C188 H201 0.931 . S
C189 C188 1.399 . S
C189 C190 1.390 . S
C190 C185 1.392 1_565 S
C190 C189 1.390 . S
C190 H202 0.929 . S
O191 Tb175 2.326 . S
O191 C179 1.242 . S
O192 Eu176 2.324 . S
O192 C179 1.258 . S
O193 Tb175 2.500 . S
O193 C195 1.273 . S
O194 Tb175 2.473 . S
O194 C195 1.257 . S
C195 O193 1.273 . S
C195 O194 1.257 . S
O196 Eu176 2.326 . S
O196 C184 1.242 . S
O197 Tb175 2.324 . S
O197 C184 1.258 . S
O198 Eu176 2.500 . S
O198 C181 1.273 . S
O199 Eu176 2.473 . S
O199 C181 1.257 . S
H200 C186 0.929 . S
H201 C188 0.931 . S
H202 C190 0.929 . S
O203 Tb204 2.292 1_655 S
O203 C206 1.255 . S
Tb204 O203 2.292 1_455 S
Tb204 O220 2.326 . S
Tb204 O222 2.500 1_455 S
Tb204 O223 2.473 . S
Tb204 O226 2.324 . S
Eu205 O209 2.292 . S
Eu205 C210 2.852 . S
Eu205 O221 2.324 . S
Eu205 O225 2.326 . S
Eu205 O227 2.500 . S
Eu205 O228 2.473 . S
C206 O203 1.255 . S
C206 O207 1.247 . S
O207 C206 1.247 . S
C208 O220 1.242 . S
C208 O221 1.258 . S
O209 Eu205 2.292 . S
O209 C211 1.255 . S
C210 Eu205 2.852 . S
C210 C214 1.503 . S
C210 O227 1.273 . S
C210 O228 1.257 . S
C211 O209 1.255 . S
C211 O212 1.247 . S
O212 C211 1.247 . S
C213 O225 1.242 . S
C213 O226 1.258 . S
C214 C210 1.503 . S
C214 C215 1.379 . S
C214 C219 1.392 . S
C215 C214 1.379 . S
C215 C216 1.404 . S
C215 H229 0.929 . S
C216 C215 1.404 . S
C216 C217 1.389 . S
C217 C216 1.389 . S
C217 C218 1.399 . S
C217 H230 0.931 . S
C218 C217 1.399 . S
C218 C219 1.390 . S
C219 C214 1.392 . S
C219 C218 1.390 . S
C219 H231 0.929 . S
O220 Tb204 2.326 . S
O220 C208 1.242 . S
O221 Eu205 2.324 . S
O221 C208 1.258 . S
O222 Tb204 2.500 1_655 S
O222 C224 1.273 . S
O223 Tb204 2.473 . S
O223 C224 1.257 1_455 S
C224 O222 1.273 . S
C224 O223 1.257 1_655 S
O225 Eu205 2.326 . S
O225 C213 1.242 . S
O226 Tb204 2.324 . S
O226 C213 1.258 . S
O227 Eu205 2.500 . S
O227 C210 1.273 . S
O228 Eu205 2.473 . S
O228 C210 1.257 . S
H229 C215 0.929 . S
H230 C217 0.931 . S
H231 C219 0.929 . S
O232 Tb233 2.292 . S
O232 C235 1.255 . S
Tb233 O232 2.292 . S
Tb233 O249 2.326 . S
Tb233 O251 2.500 . S
Tb233 O252 2.473 . S
Tb233 O255 2.324 . S
Eu234 O238 2.292 . S
Eu234 C239 2.852 . S
Eu234 O250 2.324 . S
Eu234 O254 2.326 . S
Eu234 O256 2.500 . S
Eu234 O257 2.473 . S
C235 O232 1.255 . S
C235 O236 1.247 . S
O236 C235 1.247 . S
C237 O249 1.242 . S
C237 O250 1.258 . S
O238 Eu234 2.292 . S
O238 C240 1.255 . S
C239 Eu234 2.852 . S
C239 C243 1.503 . S
C239 O256 1.273 . S
C239 O257 1.257 . S
C240 O238 1.255 . S
C240 O241 1.247 . S
O241 C240 1.247 . S
C242 O254 1.242 . S
C242 O255 1.258 . S
C243 C239 1.503 . S
C243 C244 1.379 . S
C243 C248 1.392 . S
C244 C243 1.379 . S
C244 C245 1.404 . S
C244 H258 0.929 . S
C245 C244 1.404 . S
C245 C246 1.389 . S
C246 C245 1.389 . S
C246 C247 1.399 . S
C246 H259 0.931 . S
C247 C246 1.399 . S
C247 C248 1.390 . S
C248 C243 1.392 . S
C248 C247 1.390 . S
C248 H260 0.929 . S
O249 Tb233 2.326 . S
O249 C237 1.242 . S
O250 Eu234 2.324 . S
O250 C237 1.258 . S
O251 Tb233 2.500 . S
O251 C253 1.273 . S
O252 Tb233 2.473 . S
O252 C253 1.257 . S
C253 O251 1.273 . S
C253 O252 1.257 . S
O254 Eu234 2.326 . S
O254 C242 1.242 . S
O255 Tb233 2.324 . S
O255 C242 1.258 . S
O256 Eu234 2.500 . S
O256 C239 1.273 . S
O257 Eu234 2.473 . S
O257 C239 1.257 . S
H258 C244 0.929 . S
H259 C246 0.931 . S
H260 C248 0.929 . S
O261 Tb262 2.292 1_645 S
O261 C264 1.255 . S
Tb262 O261 2.292 1_465 S
Tb262 O278 2.326 1_565 S
Tb262 O280 2.500 1_465 S
Tb262 O281 2.473 1_565 S
Tb262 O284 2.324 . S
Eu263 O267 2.292 . S
Eu263 C268 2.852 . S
Eu263 O279 2.324 . S
Eu263 O283 2.326 . S
Eu263 O285 2.500 . S
Eu263 O286 2.473 . S
C264 O261 1.255 . S
C264 O265 1.247 . S
O265 C264 1.247 . S
C266 O278 1.242 . S
C266 O279 1.258 . S
O267 Eu263 2.292 . S
O267 C269 1.255 . S
C268 Eu263 2.852 . S
C268 C272 1.503 . S
C268 O285 1.273 . S
C268 O286 1.257 . S
C269 O267 1.255 . S
C269 O270 1.247 . S
O270 C269 1.247 . S
C271 O283 1.242 1_565 S
C271 O284 1.258 . S
C272 C268 1.503 . S
C272 C273 1.379 . S
C272 C277 1.392 . S
C273 C272 1.379 . S
C273 C274 1.404 . S
C273 H287 0.929 . S
C274 C273 1.404 . S
C274 C275 1.389 . S
C275 C274 1.389 . S
C275 C276 1.399 . S
C275 H288 0.931 . S
C276 C275 1.399 . S
C276 C277 1.390 . S
C277 C272 1.392 . S
C277 C276 1.390 . S
C277 H289 0.929 . S
O278 Tb262 2.326 1_545 S
O278 C266 1.242 . S
O279 Eu263 2.324 . S
O279 C266 1.258 . S
O280 Tb262 2.500 1_645 S
O280 C282 1.273 . S
O281 Tb262 2.473 1_545 S
O281 C282 1.257 1_455 S
C282 O280 1.273 . S
C282 O281 1.257 1_655 S
O283 Eu263 2.326 . S
O283 C271 1.242 1_545 S
O284 Tb262 2.324 . S
O284 C271 1.258 . S
O285 Eu263 2.500 . S
O285 C268 1.273 . S
O286 Eu263 2.473 . S
O286 C268 1.257 . S
H287 C273 0.929 . S
H288 C275 0.931 . S
H289 C277 0.929 . S
O290 Tb291 2.292 . S
O290 C293 1.255 . S
Tb291 O290 2.292 . S
Tb291 O307 2.326 . S
Tb291 O309 2.500 . S
Tb291 O310 2.473 . S
Tb291 O313 2.324 . S
Eu292 O296 2.292 . S
Eu292 C297 2.852 . S
Eu292 O308 2.324 . S
Eu292 O312 2.326 . S
Eu292 O314 2.500 . S
Eu292 O315 2.473 . S
C293 O290 1.255 . S
C293 O294 1.247 . S
O294 C293 1.247 . S
C295 O307 1.242 . S
C295 O308 1.258 . S
O296 Eu292 2.292 . S
O296 C298 1.255 . S
C297 Eu292 2.852 . S
C297 C301 1.503 . S
C297 O314 1.273 . S
C297 O315 1.257 . S
C298 O296 1.255 . S
C298 O299 1.247 . S
O299 C298 1.247 . S
C300 O312 1.242 . S
C300 O313 1.258 . S
C301 C297 1.503 . S
C301 C302 1.379 . S
C301 C306 1.392 . S
C302 C301 1.379 . S
C302 C303 1.404 1_554 S
C302 H316 0.929 . S
C303 C302 1.404 1_556 S
C303 C304 1.389 . S
C304 C303 1.389 . S
C304 C305 1.399 1_556 S
C304 H317 0.931 . S
C305 C304 1.399 1_554 S
C305 C306 1.390 . S
C306 C301 1.392 . S
C306 C305 1.390 . S
C306 H318 0.929 . S
O307 Tb291 2.326 . S
O307 C295 1.242 . S
O308 Eu292 2.324 . S
O308 C295 1.258 . S
O309 Tb291 2.500 . S
O309 C311 1.273 . S
O310 Tb291 2.473 . S
O310 C311 1.257 . S
C311 O309 1.273 . S
C311 O310 1.257 . S
O312 Eu292 2.326 . S
O312 C300 1.242 . S
O313 Tb291 2.324 . S
O313 C300 1.258 . S
O314 Eu292 2.500 . S
O314 C297 1.273 . S
O315 Eu292 2.473 . S
O315 C297 1.257 . S
H316 C302 0.929 . S
H317 C304 0.931 . S
H318 C306 0.929 . S
O319 Tb320 2.292 1_565 S
O319 C322 1.255 . S
Tb320 O319 2.292 1_545 S
Tb320 O336 2.326 1_545 S
Tb320 O338 2.500 1_545 S
Tb320 O339 2.473 1_545 S
Tb320 O342 2.324 . S
Eu321 O325 2.292 . S
Eu321 C326 2.852 . S
Eu321 O337 2.324 . S
Eu321 O341 2.326 . S
Eu321 O343 2.500 . S
Eu321 O344 2.473 . S
C322 O319 1.255 . S
C322 O323 1.247 . S
O323 C322 1.247 . S
C324 O336 1.242 . S
C324 O337 1.258 . S
O325 Eu321 2.292 . S
O325 C327 1.255 . S
C326 Eu321 2.852 . S
C326 C330 1.503 . S
C326 O343 1.273 . S
C326 O344 1.257 . S
C327 O325 1.255 . S
C327 O328 1.247 . S
O328 C327 1.247 . S
C329 O341 1.242 1_545 S
C329 O342 1.258 . S
C330 C326 1.503 . S
C330 C331 1.379 . S
C330 C335 1.392 . S
C331 C330 1.379 . S
C331 C332 1.404 . S
C331 H345 0.929 . S
C332 C331 1.404 . S
C332 C333 1.389 . S
C333 C332 1.389 . S
C333 C334 1.399 . S
C333 H346 0.931 . S
C334 C333 1.399 . S
C334 C335 1.390 . S
C335 C330 1.392 . S
C335 C334 1.390 . S
C335 H347 0.929 . S
O336 Tb320 2.326 1_565 S
O336 C324 1.242 . S
O337 Eu321 2.324 . S
O337 C324 1.258 . S
O338 Tb320 2.500 1_565 S
O338 C340 1.273 . S
O339 Tb320 2.473 1_565 S
O339 C340 1.257 . S
C340 O338 1.273 . S
C340 O339 1.257 . S
O341 Eu321 2.326 . S
O341 C329 1.242 1_565 S
O342 Tb320 2.324 . S
O342 C329 1.258 . S
O343 Eu321 2.500 . S
O343 C326 1.273 . S
O344 Eu321 2.473 . S
O344 C326 1.257 . S
H345 C331 0.929 . S
H346 C333 0.931 . S
H347 C335 0.929 . S
O348 Tb349 2.292 . S
O348 C351 1.255 . S
Tb349 O348 2.292 . S
Tb349 O365 2.326 . S
Tb349 O367 2.500 . S
Tb349 O368 2.473 . S
Tb349 O371 2.324 . S
Eu350 O354 2.292 . S
Eu350 C355 2.852 . S
Eu350 O366 2.324 . S
Eu350 O370 2.326 . S
Eu350 O372 2.500 . S
Eu350 O373 2.473 . S
C351 O348 1.255 . S
C351 O352 1.247 . S
O352 C351 1.247 . S
C353 O365 1.242 . S
C353 O366 1.258 . S
O354 Eu350 2.292 . S
O354 C356 1.255 . S
C355 Eu350 2.852 . S
C355 C359 1.503 . S
C355 O372 1.273 . S
C355 O373 1.257 . S
C356 O354 1.255 . S
C356 O357 1.247 . S
O357 C356 1.247 . S
C358 O370 1.242 . S
C358 O371 1.258 . S
C359 C355 1.503 . S
C359 C360 1.379 . S
C359 C364 1.392 . S
C360 C359 1.379 . S
C360 C361 1.404 . S
C360 H374 0.929 . S
C361 C360 1.404 . S
C361 C362 1.389 . S
C362 C361 1.389 . S
C362 C363 1.399 . S
C362 H375 0.931 . S
C363 C362 1.399 . S
C363 C364 1.390 . S
C364 C359 1.392 . S
C364 C363 1.390 . S
C364 H376 0.929 . S
O365 Tb349 2.326 . S
O365 C353 1.242 . S
O366 Eu350 2.324 . S
O366 C353 1.258 . S
O367 Tb349 2.500 . S
O367 C369 1.273 . S
O368 Tb349 2.473 . S
O368 C369 1.257 . S
C369 O367 1.273 . S
C369 O368 1.257 . S
O370 Eu350 2.326 . S
O370 C358 1.242 . S
O371 Tb349 2.324 . S
O371 C358 1.258 . S
O372 Eu350 2.500 . S
O372 C355 1.273 . S
O373 Eu350 2.473 . S
O373 C355 1.257 . S
H374 C360 0.929 . S
H375 C362 0.931 . S
H376 C364 0.929 . S
O377 Tb378 2.292 1_465 S
O377 C380 1.255 . S
Tb378 O377 2.292 1_645 S
Tb378 O394 2.326 1_545 S
Tb378 O396 2.500 1_645 S
Tb378 O397 2.473 1_545 S
Tb378 O400 2.324 . S
Eu379 O383 2.292 . S
Eu379 C384 2.852 . S
Eu379 O395 2.324 . S
Eu379 O399 2.326 . S
Eu379 O401 2.500 . S
Eu379 O402 2.473 . S
C380 O377 1.255 . S
C380 O381 1.247 . S
O381 C380 1.247 . S
C382 O394 1.242 . S
C382 O395 1.258 . S
O383 Eu379 2.292 . S
O383 C385 1.255 . S
C384 Eu379 2.852 . S
C384 C388 1.503 . S
C384 O401 1.273 . S
C384 O402 1.257 . S
C385 O383 1.255 . S
C385 O386 1.247 . S
O386 C385 1.247 . S
C387 O399 1.242 1_545 S
C387 O400 1.258 . S
C388 C384 1.503 . S
C388 C389 1.379 . S
C388 C393 1.392 . S
C389 C388 1.379 . S
C389 C390 1.404 . S
C389 H403 0.929 . S
C390 C389 1.404 . S
C390 C391 1.389 . S
C391 C390 1.389 . S
C391 C392 1.399 . S
C391 H404 0.931 . S
C392 C391 1.399 . S
C392 C393 1.390 . S
C393 C388 1.392 . S
C393 C392 1.390 . S
C393 H405 0.929 . S
O394 Tb378 2.326 1_565 S
O394 C382 1.242 . S
O395 Eu379 2.324 . S
O395 C382 1.258 . S
O396 Tb378 2.500 1_465 S
O396 C398 1.273 . S
O397 Tb378 2.473 1_565 S
O397 C398 1.257 1_655 S
C398 O396 1.273 . S
C398 O397 1.257 1_455 S
O399 Eu379 2.326 . S
O399 C387 1.242 1_565 S
O400 Tb378 2.324 . S
O400 C387 1.258 . S
O401 Eu379 2.500 . S
O401 C384 1.273 . S
O402 Eu379 2.473 . S
O402 C384 1.257 . S
H403 C389 0.929 . S
H404 C391 0.931 . S
H405 C393 0.929 . S
O406 Tb407 2.292 . S
O406 C409 1.255 . S
Tb407 O406 2.292 . S
Tb407 O423 2.326 . S
Tb407 O425 2.500 . S
Tb407 O426 2.473 . S
Tb407 O429 2.324 . S
Eu408 O412 2.292 . S
Eu408 C413 2.852 . S
Eu408 O424 2.324 . S
Eu408 O428 2.326 . S
Eu408 O430 2.500 . S
Eu408 O431 2.473 . S
C409 O406 1.255 . S
C409 O410 1.247 . S
O410 C409 1.247 . S
C411 O423 1.242 . S
C411 O424 1.258 . S
O412 Eu408 2.292 . S
O412 C414 1.255 . S
C413 Eu408 2.852 . S
C413 C417 1.503 . S
C413 O430 1.273 . S
C413 O431 1.257 . S
C414 O412 1.255 . S
C414 O415 1.247 . S
O415 C414 1.247 . S
C416 O428 1.242 . S
C416 O429 1.258 . S
C417 C413 1.503 . S
C417 C418 1.379 . S
C417 C422 1.392 . S
C418 C417 1.379 . S
C418 C419 1.404 1_556 S
C418 H432 0.929 . S
C419 C418 1.404 1_554 S
C419 C420 1.389 . S
C420 C419 1.389 . S
C420 C421 1.399 1_554 S
C420 H433 0.931 . S
C421 C420 1.399 1_556 S
C421 C422 1.390 . S
C422 C417 1.392 . S
C422 C421 1.390 . S
C422 H434 0.929 . S
O423 Tb407 2.326 . S
O423 C411 1.242 . S
O424 Eu408 2.324 . S
O424 C411 1.258 . S
O425 Tb407 2.500 . S
O425 C427 1.273 . S
O426 Tb407 2.473 . S
O426 C427 1.257 . S
C427 O425 1.273 . S
C427 O426 1.257 . S
O428 Eu408 2.326 . S
O428 C416 1.242 . S
O429 Tb407 2.324 . S
O429 C416 1.258 . S
O430 Eu408 2.500 . S
O430 C413 1.273 . S
O431 Eu408 2.473 . S
O431 C413 1.257 . S
H432 C418 0.929 . S
H433 C420 0.931 . S
H434 C422 0.929 . S
O435 Tb436 2.292 1_545 S
O435 C438 1.255 . S
Tb436 O435 2.292 1_565 S
Tb436 O452 2.326 1_565 S
Tb436 O454 2.500 1_565 S
Tb436 O455 2.473 1_565 S
Tb436 O458 2.324 . S
Eu437 O441 2.292 . S
Eu437 C442 2.852 . S
Eu437 O453 2.324 . S
Eu437 O457 2.326 . S
Eu437 O459 2.500 . S
Eu437 O460 2.473 . S
C438 O435 1.255 . S
C438 O439 1.247 . S
O439 C438 1.247 . S
C440 O452 1.242 . S
C440 O453 1.258 . S
O441 Eu437 2.292 . S
O441 C443 1.255 . S
C442 Eu437 2.852 . S
C442 C446 1.503 . S
C442 O459 1.273 . S
C442 O460 1.257 . S
C443 O441 1.255 . S
C443 O444 1.247 . S
O444 C443 1.247 . S
C445 O457 1.242 1_565 S
C445 O458 1.258 . S
C446 C442 1.503 . S
C446 C447 1.379 . S
C446 C451 1.392 . S
C447 C446 1.379 . S
C447 C448 1.404 . S
C447 H461 0.929 . S
C448 C447 1.404 . S
C448 C449 1.389 . S
C449 C448 1.389 . S
C449 C450 1.399 . S
C449 H462 0.931 . S
C450 C449 1.399 . S
C450 C451 1.390 . S
C451 C446 1.392 . S
C451 C450 1.390 . S
C451 H463 0.929 . S
O452 Tb436 2.326 1_545 S
O452 C440 1.242 . S
O453 Eu437 2.324 . S
O453 C440 1.258 . S
O454 Tb436 2.500 1_545 S
O454 C456 1.273 . S
O455 Tb436 2.473 1_545 S
O455 C456 1.257 . S
C456 O454 1.273 . S
C456 O455 1.257 . S
O457 Eu437 2.326 . S
O457 C445 1.242 1_545 S
O458 Tb436 2.324 . S
O458 C445 1.258 . S
O459 Eu437 2.500 . S
O459 C442 1.273 . S
O460 Eu437 2.473 . S
O460 C442 1.257 . S
H461 C447 0.929 . S
H462 C449 0.931 . S
H463 C451 0.929 . S
C464 C465 1.369 . S
C464 C466 1.419 . S
C464 H468 0.930 . S
C465 C464 1.369 . S
C465 C474 1.429 . S
C466 C464 1.419 . S
C466 C467 1.363 . S
C466 H469 0.929 . S
C467 C466 1.363 . S
C467 C473 1.428 . S
H468 C464 0.930 . S
H469 C466 0.929 . S
S470 N471 1.613 . S
S470 N472 1.610 . S
N471 S470 1.613 . S
N471 C474 1.350 . S
N472 S470 1.610 . S
N472 C473 1.351 . S
C473 C467 1.428 . S
C473 N472 1.351 . S
C473 C474 1.434 . S
C474 C465 1.429 . S
C474 N471 1.350 . S
C474 C473 1.434 . S
C475 C476 1.369 . S
C475 C477 1.419 . S
C475 H479 0.930 . S
C476 C475 1.369 . S
C476 C485 1.429 . S
C477 C475 1.419 . S
C477 C478 1.363 . S
C477 H480 0.929 . S
C478 C477 1.363 . S
C478 C484 1.428 . S
H479 C475 0.930 . S
H480 C477 0.929 . S
S481 N482 1.613 . S
S481 N483 1.610 . S
N482 S481 1.613 . S
N482 C485 1.350 . S
N483 S481 1.610 . S
N483 C484 1.351 . S
C484 C478 1.428 . S
C484 N483 1.351 . S
C484 C485 1.434 . S
C485 C476 1.429 . S
C485 N482 1.350 . S
C485 C484 1.434 . S
C486 C487 1.369 . S
C486 C488 1.419 . S
C486 H490 0.930 . S
C487 C486 1.369 . S
C487 C496 1.429 . S
C488 C486 1.419 . S
C488 C489 1.363 . S
C488 H491 0.929 . S
C489 C488 1.363 . S
C489 C495 1.428 . S
H490 C486 0.930 . S
H491 C488 0.929 . S
S492 N493 1.613 . S
S492 N494 1.610 . S
N493 S492 1.613 . S
N493 C496 1.350 . S
N494 S492 1.610 . S
N494 C495 1.351 . S
C495 C489 1.428 . S
C495 N494 1.351 . S
C495 C496 1.434 . S
C496 C487 1.429 . S
C496 N493 1.350 . S
C496 C495 1.434 . S
C497 C498 1.369 . S
C497 C499 1.419 . S
C497 H501 0.930 . S
C498 C497 1.369 . S
C498 C507 1.429 . S
C499 C497 1.419 . S
C499 C500 1.363 . S
C499 H502 0.929 . S
C500 C499 1.363 . S
C500 C506 1.428 . S
H501 C497 0.930 . S
H502 C499 0.929 . S
S503 N504 1.613 . S
S503 N505 1.610 . S
N504 S503 1.613 . S
N504 C507 1.350 . S
N505 S503 1.610 . S
N505 C506 1.351 . S
C506 C500 1.428 . S
C506 N505 1.351 . S
C506 C507 1.434 . S
C507 C498 1.429 . S
C507 N504 1.350 . S
C507 C506 1.434 . S
C508 C509 1.369 . S
C508 C510 1.419 . S
C508 H512 0.930 . S
C509 C508 1.369 . S
C509 C518 1.429 . S
C510 C508 1.419 . S
C510 C511 1.363 . S
C510 H513 0.929 . S
C511 C510 1.363 . S
C511 C517 1.428 . S
H512 C508 0.930 . S
H513 C510 0.929 . S
S514 N515 1.613 . S
S514 N516 1.610 . S
N515 S514 1.613 . S
N515 C518 1.350 . S
N516 S514 1.610 . S
N516 C517 1.351 . S
C517 C511 1.428 . S
C517 N516 1.351 . S
C517 C518 1.434 . S
C518 C509 1.429 . S
C518 N515 1.350 . S
C518 C517 1.434 . S
C519 C520 1.369 . S
C519 C521 1.419 . S
C519 H523 0.930 . S
C520 C519 1.369 . S
C520 C529 1.429 . S
C521 C519 1.419 . S
C521 C522 1.363 . S
C521 H524 0.929 . S
C522 C521 1.363 . S
C522 C528 1.428 . S
H523 C519 0.930 . S
H524 C521 0.929 . S
S525 N526 1.613 . S
S525 N527 1.610 . S
N526 S525 1.613 . S
N526 C529 1.350 . S
N527 S525 1.610 . S
N527 C528 1.351 . S
C528 C522 1.428 . S
C528 N527 1.351 . S
C528 C529 1.434 . S
C529 C520 1.429 . S
C529 N526 1.350 . S
C529 C528 1.434 . S
C530 C531 1.369 . S
C530 C532 1.419 . S
C530 H534 0.930 . S
C531 C530 1.369 . S
C531 C540 1.429 . S
C532 C530 1.419 . S
C532 C533 1.363 . S
C532 H535 0.929 . S
C533 C532 1.363 . S
C533 C539 1.428 . S
H534 C530 0.930 . S
H535 C532 0.929 . S
S536 N537 1.613 . S
S536 N538 1.610 . S
N537 S536 1.613 . S
N537 C540 1.350 . S
N538 S536 1.610 . S
N538 C539 1.351 . S
C539 C533 1.428 . S
C539 N538 1.351 . S
C539 C540 1.434 . S
C540 C531 1.429 . S
C540 N537 1.350 . S
C540 C539 1.434 . S
C541 C542 1.369 . S
C541 C543 1.419 . S
C541 H545 0.930 . S
C542 C541 1.369 . S
C542 C551 1.429 . S
C543 C541 1.419 . S
C543 C544 1.363 . S
C543 H546 0.929 . S
C544 C543 1.363 . S
C544 C550 1.428 . S
H545 C541 0.930 . S
H546 C543 0.929 . S
S547 N548 1.613 . S
S547 N549 1.610 . S
N548 S547 1.613 . S
N548 C551 1.350 . S
N549 S547 1.610 . S
N549 C550 1.351 . S
C550 C544 1.428 . S
C550 N549 1.351 . S
C550 C551 1.434 . S
C551 C542 1.429 . S
C551 N548 1.350 . S
C551 C550 1.434 . S
C552 C553 1.369 . S
C552 C554 1.419 . S
C552 H556 0.930 . S
C553 C552 1.369 . S
C553 C562 1.429 . S
C554 C552 1.419 . S
C554 C555 1.363 . S
C554 H557 0.929 . S
C555 C554 1.363 . S
C555 C561 1.428 . S
H556 C552 0.930 . S
H557 C554 0.929 . S
S558 N559 1.613 . S
S558 N560 1.610 . S
N559 S558 1.613 . S
N559 C562 1.350 . S
N560 S558 1.610 . S
N560 C561 1.351 . S
C561 C555 1.428 . S
C561 N560 1.351 . S
C561 C562 1.434 . S
C562 C553 1.429 . S
C562 N559 1.350 . S
C562 C561 1.434 . S
C563 C564 1.369 1_545 S
C563 C565 1.419 1_545 S
C563 H567 0.930 . S
C564 C563 1.369 1_565 S
C564 C573 1.429 . S
C565 C563 1.419 1_565 S
C565 C566 1.363 . S
C565 H568 0.929 . S
C566 C565 1.363 . S
C566 C572 1.428 . S
H567 C563 0.930 . S
H568 C565 0.929 . S
S569 N570 1.613 . S
S569 N571 1.610 . S
N570 S569 1.613 . S
N570 C573 1.350 . S
N571 S569 1.610 . S
N571 C572 1.351 . S
C572 C566 1.428 . S
C572 N571 1.351 . S
C572 C573 1.434 . S
C573 C564 1.429 . S
C573 N570 1.350 . S
C573 C572 1.434 . S
C574 C575 1.369 . S
C574 C576 1.419 . S
C574 H578 0.930 . S
C575 C574 1.369 . S
C575 C584 1.429 . S
C576 C574 1.419 . S
C576 C577 1.363 . S
C576 H579 0.929 . S
C577 C576 1.363 . S
C577 C583 1.428 . S
H578 C574 0.930 . S
H579 C576 0.929 . S
S580 N581 1.613 . S
S580 N582 1.610 . S
N581 S580 1.613 . S
N581 C584 1.350 . S
N582 S580 1.610 . S
N582 C583 1.351 . S
C583 C577 1.428 . S
C583 N582 1.351 . S
C583 C584 1.434 . S
C584 C575 1.429 . S
C584 N581 1.350 . S
C584 C583 1.434 . S
C585 C586 1.369 . S
C585 C587 1.419 . S
C585 H589 0.930 . S
C586 C585 1.369 . S
C586 C595 1.429 . S
C587 C585 1.419 . S
C587 C588 1.363 . S
C587 H590 0.929 . S
C588 C587 1.363 . S
C588 C594 1.428 1_545 S
H589 C585 0.930 . S
H590 C587 0.929 . S
S591 N592 1.613 1_565 S
S591 N593 1.610 . S
N592 S591 1.613 1_545 S
N592 C595 1.350 . S
N593 S591 1.610 . S
N593 C594 1.351 . S
C594 C588 1.428 1_565 S
C594 N593 1.351 . S
C594 C595 1.434 1_565 S
C595 C586 1.429 . S
C595 N592 1.350 . S
C595 C594 1.434 1_545 S
C596 C597 1.369 . S
C596 C598 1.419 . S
C596 H600 0.930 . S
C597 C596 1.369 . S
C597 C606 1.429 . S
C598 C596 1.419 . S
C598 C599 1.363 . S
C598 H601 0.929 . S
C599 C598 1.363 . S
C599 C605 1.428 . S
H600 C596 0.930 . S
H601 C598 0.929 . S
S602 N603 1.613 . S
S602 N604 1.610 . S
N603 S602 1.613 . S
N603 C606 1.350 . S
N604 S602 1.610 . S
N604 C605 1.351 . S
C605 C599 1.428 . S
C605 N604 1.351 . S
C605 C606 1.434 . S
C606 C597 1.429 . S
C606 N603 1.350 . S
C606 C605 1.434 . S
C607 C608 1.369 . S
C607 C609 1.419 . S
C607 H611 0.930 . S
C608 C607 1.369 . S
C608 C617 1.429 1_545 S
C609 C607 1.419 . S
C609 C610 1.363 . S
C609 H612 0.929 . S
C610 C609 1.363 . S
C610 C616 1.428 . S
H611 C607 0.930 . S
H612 C609 0.929 . S
S613 N614 1.613 . S
S613 N615 1.610 . S
N614 S613 1.613 . S
N614 C617 1.350 . S
N615 S613 1.610 . S
N615 C616 1.351 1_565 S
C616 C610 1.428 . S
C616 N615 1.351 1_545 S
C616 C617 1.434 1_545 S
C617 C608 1.429 1_565 S
C617 N614 1.350 . S
C617 C616 1.434 1_565 S
C618 C619 1.369 . S
C618 C620 1.419 . S
C618 H622 0.930 . S
C619 C618 1.369 . S
C619 C628 1.429 . S
C620 C618 1.419 . S
C620 C621 1.363 . S
C620 H623 0.929 . S
C621 C620 1.363 . S
C621 C627 1.428 . S
H622 C618 0.930 . S
H623 C620 0.929 . S
S624 N625 1.613 . S
S624 N626 1.610 . S
N625 S624 1.613 . S
N625 C628 1.350 . S
N626 S624 1.610 . S
N626 C627 1.351 . S
C627 C621 1.428 . S
C627 N626 1.351 . S
C627 C628 1.434 . S
C628 C619 1.429 . S
C628 N625 1.350 . S
C628 C627 1.434 . S
C629 C630 1.369 . S
C629 C631 1.419 . S
C629 H633 0.930 . S
C630 C629 1.369 . S
C630 C639 1.429 . S
C631 C629 1.419 . S
C631 C632 1.363 . S
C631 H634 0.929 . S
C632 C631 1.363 . S
C632 C638 1.428 1_565 S
H633 C629 0.930 . S
H634 C631 0.929 . S
S635 N636 1.630 . S
S635 N637 1.610 . S
N636 S635 1.630 . S
N636 C639 1.342 1_545 S
N637 S635 1.610 . S
N637 C638 1.351 . S
C638 C632 1.428 1_545 S
C638 N637 1.351 . S
C638 C639 1.434 1_545 S
C639 C630 1.429 . S
C639 N636 1.342 1_565 S
C639 C638 1.434 1_565 S
C640 C641 1.369 . S
C640 C642 1.419 1_554 S
C640 H644 0.930 . S
C641 C640 1.369 . S
C641 C650 1.429 . S
C642 C640 1.419 1_556 S
C642 C643 1.363 . S
C642 H645 0.929 . S
C643 C642 1.363 . S
C643 C649 1.428 . S
H644 C640 0.930 . S
H645 C642 0.929 . S
S646 N647 1.613 . S
S646 N648 1.610 1_554 S
N647 S646 1.613 . S
N647 C650 1.350 . S
N648 S646 1.610 1_556 S
N648 C649 1.351 . S
C649 C643 1.428 . S
C649 N648 1.351 . S
C649 C650 1.434 1_556 S
C650 C641 1.429 . S
C650 N647 1.350 . S
C650 C649 1.434 1_554 S
C651 C652 1.369 . S
C651 C653 1.419 . S
C651 H655 0.930 . S
C652 C651 1.369 . S
C652 C661 1.429 . S
C653 C651 1.419 . S
C653 C654 1.363 . S
C653 H656 0.929 . S
C654 C653 1.363 . S
C654 C660 1.428 . S
H655 C651 0.930 . S
H656 C653 0.929 . S
S657 N658 1.613 . S
S657 N659 1.610 . S
N658 S657 1.613 . S
N658 C661 1.350 . S
N659 S657 1.610 . S
N659 C660 1.351 . S
C660 C654 1.428 . S
C660 N659 1.351 . S
C660 C661 1.434 . S
C661 C652 1.429 . S
C661 N658 1.350 . S
C661 C660 1.434 . S
C662 C663 1.369 . S
C662 C664 1.419 . S
C662 H666 0.930 . S
C663 C662 1.369 . S
C663 C672 1.429 . S
C664 C662 1.419 . S
C664 C665 1.363 . S
C664 H667 0.929 . S
C665 C664 1.363 . S
C665 C671 1.428 . S
H666 C662 0.930 . S
H667 C664 0.929 . S
S668 N669 1.613 . S
S668 N670 1.610 . S
N669 S668 1.613 . S
N669 C672 1.350 . S
N670 S668 1.610 . S
N670 C671 1.351 . S
C671 C665 1.428 . S
C671 N670 1.351 . S
C671 C672 1.434 . S
C672 C663 1.429 . S
C672 N669 1.350 . S
C672 C671 1.434 . S
C673 C674 1.369 . S
C673 C675 1.419 . S
C673 H677 0.930 . S
C674 C673 1.369 . S
C674 C683 1.429 . S
C675 C673 1.419 . S
C675 C676 1.363 . S
C675 H678 0.929 . S
C676 C675 1.363 . S
C676 C682 1.428 . S
H677 C673 0.930 . S
H678 C675 0.929 . S
S679 N680 1.613 . S
S679 N681 1.610 . S
N680 S679 1.613 . S
N680 C683 1.350 . S
N681 S679 1.610 . S
N681 C682 1.351 . S
C682 C676 1.428 . S
C682 N681 1.351 . S
C682 C683 1.434 . S
C683 C674 1.429 . S
C683 N680 1.350 . S
C683 C682 1.434 . S
C684 C685 1.369 1_556 S
C684 C686 1.419 . S
C684 H688 0.930 . S
C685 C684 1.369 1_554 S
C685 C694 1.429 . S
C686 C684 1.419 . S
C686 C687 1.363 . S
C686 H689 0.929 . S
C687 C686 1.363 . S
C687 C693 1.428 1_556 S
H688 C684 0.930 . S
H689 C686 0.929 . S
S690 N691 1.613 . S
S690 N692 1.610 . S
N691 S690 1.613 . S
N691 C694 1.350 . S
N692 S690 1.610 . S
N692 C693 1.351 . S
C693 C687 1.428 1_554 S
C693 N692 1.351 . S
C693 C694 1.434 . S
C694 C685 1.429 . S
C694 N691 1.350 . S
C694 C693 1.434 . S
C695 C696 1.369 . S
C695 C697 1.419 . S
C695 H699 0.930 . S
C696 C695 1.369 . S
C696 C705 1.429 . S
C697 C695 1.419 . S
C697 C698 1.363 . S
C697 H700 0.929 . S
C698 C697 1.363 . S
C698 C704 1.428 . S
H699 C695 0.930 . S
H700 C697 0.929 . S
S701 N702 1.613 . S
S701 N703 1.610 . S
N702 S701 1.613 . S
N702 C705 1.350 . S
N703 S701 1.610 . S
N703 C704 1.351 . S
C704 C698 1.428 . S
C704 N703 1.351 . S
C704 C705 1.434 . S
C705 C696 1.429 . S
C705 N702 1.350 . S
C705 C704 1.434 . S
C706 C707 1.369 . S
C706 C708 1.419 . S
C706 H710 0.930 . S
C707 C706 1.369 . S
C707 C716 1.429 . S
C708 C706 1.419 . S
C708 C709 1.363 . S
C708 H711 0.929 . S
C709 C708 1.363 . S
C709 C715 1.428 . S
H710 C706 0.930 . S
H711 C708 0.929 . S
S712 N713 1.613 . S
S712 N714 1.610 . S
N713 S712 1.613 . S
N713 C716 1.350 . S
N714 S712 1.610 . S
N714 C715 1.351 . S
C715 C709 1.428 . S
C715 N714 1.351 . S
C715 C716 1.434 . S
C716 C707 1.429 . S
C716 N713 1.350 . S
C716 C715 1.434 . S
C717 C718 1.369 . S
C717 C719 1.419 . S
C717 H721 0.930 . S
C718 C717 1.369 . S
C718 C727 1.429 . S
C719 C717 1.419 . S
C719 C720 1.363 . S
C719 H722 0.929 . S
C720 C719 1.363 . S
C720 C726 1.428 . S
H721 C717 0.930 . S
H722 C719 0.929 . S
S723 N724 1.613 . S
S723 N725 1.610 . S
N724 S723 1.613 . S
N724 C727 1.350 . S
N725 S723 1.610 . S
N725 C726 1.351 . S
C726 C720 1.428 . S
C726 N725 1.351 . S
C726 C727 1.434 . S
C727 C718 1.429 . S
C727 N724 1.350 . S
C727 C726 1.434 . S
C728 C729 1.369 . S
C728 C730 1.419 . S
C728 H732 0.930 . S
C729 C728 1.369 . S
C729 C738 1.429 . S
C730 C728 1.419 . S
C730 C731 1.363 . S
C730 H733 0.929 . S
C731 C730 1.363 . S
C731 C737 1.428 . S
H732 C728 0.930 . S
H733 C730 0.929 . S
S734 N735 1.613 . S
S734 N736 1.610 . S
N735 S734 1.613 . S
N735 C738 1.350 . S
N736 S734 1.610 . S
N736 C737 1.351 . S
C737 C731 1.428 . S
C737 N736 1.351 . S
C737 C738 1.434 . S
C738 C729 1.429 . S
C738 N735 1.350 . S
C738 C737 1.434 . S
C739 C740 1.369 . S
C739 C741 1.419 . S
C739 H743 0.930 . S
C740 C739 1.369 . S
C740 C749 1.429 . S
C741 C739 1.419 . S
C741 C742 1.363 . S
C741 H744 0.929 . S
C742 C741 1.363 . S
C742 C748 1.428 . S
H743 C739 0.930 . S
H744 C741 0.929 . S
S745 N746 1.613 . S
S745 N747 1.610 . S
N746 S745 1.613 . S
N746 C749 1.350 . S
N747 S745 1.610 . S
N747 C748 1.351 . S
C748 C742 1.428 . S
C748 N747 1.351 . S
C748 C749 1.434 . S
C749 C740 1.429 . S
C749 N746 1.350 . S
C749 C748 1.434 . S
C750 C751 1.369 1_554 S
C750 C752 1.419 . S
C750 H754 0.930 . S
C751 C750 1.369 1_556 S
C751 C760 1.429 . S
C752 C750 1.419 . S
C752 C753 1.363 . S
C752 H755 0.929 . S
C753 C752 1.363 . S
C753 C759 1.428 1_554 S
H754 C750 0.930 . S
H755 C752 0.929 . S
S756 N757 1.613 . S
S756 N758 1.610 . S
N757 S756 1.613 . S
N757 C760 1.350 . S
N758 S756 1.610 . S
N758 C759 1.351 . S
C759 C753 1.428 1_556 S
C759 N758 1.351 . S
C759 C760 1.434 . S
C760 C751 1.429 . S
C760 N757 1.350 . S
C760 C759 1.434 . S
C761 C762 1.369 . S
C761 C763 1.419 . S
C761 H765 0.930 . S
C762 C761 1.369 . S
C762 C771 1.429 . S
C763 C761 1.419 . S
C763 C764 1.363 . S
C763 H766 0.929 1_565 S
C764 C763 1.363 . S
C764 C770 1.428 . S
H765 C761 0.930 . S
H766 C763 0.929 1_545 S
S767 N768 1.613 . S
S767 N769 1.610 . S
N768 S767 1.613 . S
N768 C771 1.350 . S
N769 S767 1.610 . S
N769 C770 1.351 . S
C770 C764 1.428 . S
C770 N769 1.351 . S
C770 C771 1.434 . S
C771 C762 1.429 . S
C771 N768 1.350 . S
C771 C770 1.434 . S
C772 C773 1.369 . S
C772 C774 1.419 . S
C772 H776 0.930 . S
C773 C772 1.369 . S
C773 C782 1.429 . S
C774 C772 1.419 . S
C774 C775 1.363 . S
C774 H777 0.929 . S
C775 C774 1.363 . S
C775 C781 1.428 . S
H776 C772 0.930 . S
H777 C774 0.929 . S
S778 N779 1.613 . S
S778 N780 1.610 . S
N779 S778 1.613 . S
N779 C782 1.350 . S
N780 S778 1.610 . S
N780 C781 1.351 . S
C781 C775 1.428 . S
C781 N780 1.351 . S
C781 C782 1.434 . S
C782 C773 1.429 . S
C782 N779 1.350 . S
C782 C781 1.434 . S
C783 C784 1.369 1_545 S
C783 C785 1.419 . S
C783 H787 0.930 . S
C784 C783 1.369 1_565 S
C784 C793 1.429 . S
C785 C783 1.419 . S
C785 C786 1.363 1_545 S
C785 H788 0.929 . S
C786 C785 1.363 1_565 S
C786 C792 1.428 . S
H787 C783 0.930 . S
H788 C785 0.929 . S
S789 N790 1.613 . S
S789 N791 1.610 . S
N790 S789 1.613 . S
N790 C793 1.350 . S
N791 S789 1.610 . S
N791 C792 1.351 . S
C792 C786 1.428 . S
C792 N791 1.351 . S
C792 C793 1.434 . S
C793 C784 1.429 . S
C793 N790 1.350 . S
C793 C792 1.434 . S
C794 C795 1.369 . S
C794 C796 1.419 . S
C794 H798 0.930 . S
C795 C794 1.369 . S
C795 C804 1.429 1_554 S
C796 C794 1.419 . S
C796 C797 1.363 1_554 S
C796 H799 0.929 . S
C797 C796 1.363 1_556 S
C797 C803 1.428 . S
H798 C794 0.930 . S
H799 C796 0.929 . S
S800 N801 1.613 . S
S800 N802 1.610 . S
N801 S800 1.613 . S
N801 C804 1.350 . S
N802 S800 1.610 . S
N802 C803 1.351 . S
C803 C797 1.428 . S
C803 N802 1.351 . S
C803 C804 1.434 . S
C804 C795 1.429 1_556 S
C804 N801 1.350 . S
C804 C803 1.434 . S
C805 C806 1.369 . S
C805 C807 1.419 . S
C805 H809 0.930 . S
C806 C805 1.369 . S
C806 C815 1.429 1_545 S
C807 C805 1.419 . S
C807 C808 1.363 . S
C807 H810 0.929 . S
C808 C807 1.363 . S
C808 C814 1.428 1_545 S
H809 C805 0.930 . S
H810 C807 0.929 . S
S811 N812 1.613 . S
S811 N813 1.610 . S
N812 S811 1.613 . S
N812 C815 1.350 . S
N813 S811 1.610 . S
N813 C814 1.351 . S
C814 C808 1.428 1_565 S
C814 N813 1.351 . S
C814 C815 1.434 . S
C815 C806 1.429 1_565 S
C815 N812 1.350 . S
C815 C814 1.434 . S
C816 C817 1.369 . S
C816 C818 1.419 . S
C816 H820 0.930 . S
C817 C816 1.369 . S
C817 C826 1.429 . S
C818 C816 1.419 . S
C818 C819 1.363 . S
C818 H821 0.929 . S
C819 C818 1.363 . S
C819 C825 1.428 . S
H820 C816 0.930 . S
H821 C818 0.929 . S
S822 N823 1.613 . S
S822 N824 1.610 . S
N823 S822 1.613 . S
N823 C826 1.350 . S
N824 S822 1.610 . S
N824 C825 1.351 . S
C825 C819 1.428 . S
C825 N824 1.351 . S
C825 C826 1.434 . S
C826 C817 1.429 . S
C826 N823 1.350 . S
C826 C825 1.434 . S
C827 C828 1.369 . S
C827 C829 1.419 . S
C827 H831 0.930 . S
C828 C827 1.369 . S
C828 C837 1.429 . S
C829 C827 1.419 . S
C829 C830 1.363 . S
C829 H832 0.929 . S
C830 C829 1.363 . S
C830 C836 1.428 . S
H831 C827 0.930 . S
H832 C829 0.929 . S
S833 N834 1.613 . S
S833 N835 1.610 . S
N834 S833 1.613 . S
N834 C837 1.350 . S
N835 S833 1.610 . S
N835 C836 1.351 . S
C836 C830 1.428 . S
C836 N835 1.351 . S
C836 C837 1.434 . S
C837 C828 1.429 . S
C837 N834 1.350 . S
C837 C836 1.434 . S
C838 C839 1.369 . S
C838 C840 1.419 . S
C838 H842 0.930 1_565 S
C839 C838 1.369 . S
C839 C848 1.429 . S
C840 C838 1.419 . S
C840 C841 1.363 . S
C840 H843 0.929 1_565 S
C841 C840 1.363 . S
C841 C847 1.428 . S
H842 C838 0.930 1_545 S
H843 C840 0.929 1_545 S
S844 N845 1.613 . S
S844 N846 1.610 . S
N845 S844 1.613 . S
N845 C848 1.350 . S
N846 S844 1.610 . S
N846 C847 1.351 . S
C847 C841 1.428 . S
C847 N846 1.351 . S
C847 C848 1.434 . S
C848 C839 1.429 . S
C848 N845 1.350 . S
C848 C847 1.434 . S
C849 C850 1.369 . S
C849 C851 1.419 . S
C849 H853 0.930 . S
C850 C849 1.369 . S
C850 C859 1.429 . S
C851 C849 1.419 . S
C851 C852 1.363 . S
C851 H854 0.929 . S
C852 C851 1.363 . S
C852 C858 1.428 . S
H853 C849 0.930 . S
H854 C851 0.929 . S
S855 N856 1.613 . S
S855 N857 1.610 . S
N856 S855 1.613 . S
N856 C859 1.350 . S
N857 S855 1.610 . S
N857 C858 1.351 . S
C858 C852 1.428 . S
C858 N857 1.351 . S
C858 C859 1.434 . S
C859 C850 1.429 . S
C859 N856 1.350 . S
C859 C858 1.434 . S
C860 C861 1.369 . S
C860 C862 1.419 . S
C860 H864 0.930 . S
C861 C860 1.369 . S
C861 C870 1.429 . S
C862 C860 1.419 . S
C862 C863 1.363 . S
C862 H865 0.929 . S
C863 C862 1.363 . S
C863 C869 1.428 . S
H864 C860 0.930 . S
H865 C862 0.929 . S
S866 N867 1.613 . S
S866 N868 1.610 . S
N867 S866 1.613 . S
N867 C870 1.350 . S
N868 S866 1.610 . S
N868 C869 1.351 . S
C869 C863 1.428 . S
C869 N868 1.351 . S
C869 C870 1.434 . S
C870 C861 1.429 . S
C870 N867 1.350 . S
C870 C869 1.434 . S
C871 C872 1.369 . S
C871 C873 1.419 . S
C871 H875 0.930 . S
C872 C871 1.369 . S
C872 C881 1.429 . S
C873 C871 1.419 . S
C873 C874 1.363 . S
C873 H876 0.929 . S
C874 C873 1.363 . S
C874 C880 1.428 . S
H875 C871 0.930 . S
H876 C873 0.929 . S
S877 N878 1.613 . S
S877 N879 1.610 . S
N878 S877 1.613 . S
N878 C881 1.350 . S
N879 S877 1.610 . S
N879 C880 1.351 . S
C880 C874 1.428 . S
C880 N879 1.351 . S
C880 C881 1.434 . S
C881 C872 1.429 . S
C881 N878 1.350 . S
C881 C880 1.434 . S
C882 C883 1.369 . S
C882 C884 1.419 . S
C882 H886 0.930 1_545 S
C883 C882 1.369 . S
C883 C892 1.429 . S
C884 C882 1.419 . S
C884 C885 1.363 . S
C884 H887 0.929 1_545 S
C885 C884 1.363 . S
C885 C891 1.428 . S
H886 C882 0.930 1_565 S
H887 C884 0.929 1_565 S
S888 N889 1.613 . S
S888 N890 1.610 . S
N889 S888 1.613 . S
N889 C892 1.350 . S
N890 S888 1.610 . S
N890 C891 1.351 . S
C891 C885 1.428 . S
C891 N890 1.351 . S
C891 C892 1.434 . S
C892 C883 1.429 . S
C892 N889 1.350 . S
C892 C891 1.434 . S
C893 C894 1.369 . S
C893 C895 1.419 . S
C893 H897 0.930 . S
C894 C893 1.369 . S
C894 C903 1.429 . S
C895 C893 1.419 . S
C895 C896 1.363 . S
C895 H898 0.929 . S
C896 C895 1.363 . S
C896 C902 1.428 . S
H897 C893 0.930 . S
H898 C895 0.929 . S
S899 N900 1.613 . S
S899 N901 1.610 . S
N900 S899 1.613 . S
N900 C903 1.350 . S
N901 S899 1.610 . S
N901 C902 1.351 . S
C902 C896 1.428 . S
C902 N901 1.351 . S
C902 C903 1.434 . S
C903 C894 1.429 . S
C903 N900 1.350 . S
C903 C902 1.434 . S
C904 C905 1.369 . S
C904 C906 1.419 . S
C904 H908 0.930 . S
C905 C904 1.369 . S
C905 C914 1.429 . S
C906 C904 1.419 . S
C906 C907 1.363 . S
C906 H909 0.929 . S
C907 C906 1.363 . S
C907 C913 1.428 . S
H908 C904 0.930 . S
H909 C906 0.929 . S
S910 N911 1.613 . S
S910 N912 1.610 . S
N911 S910 1.613 . S
N911 C914 1.350 . S
N912 S910 1.610 . S
N912 C913 1.351 . S
C913 C907 1.428 . S
C913 N912 1.351 . S
C913 C914 1.434 . S
C914 C905 1.429 . S
C914 N911 1.350 . S
C914 C913 1.434 . S
C915 C916 1.369 1_545 S
C915 C917 1.419 . S
C915 H919 0.930 . S
C916 C915 1.369 1_565 S
C916 C925 1.429 . S
C917 C915 1.419 . S
C917 C918 1.363 . S
C917 H920 0.929 . S
C918 C917 1.363 . S
C918 C924 1.428 1_545 S
H919 C915 0.930 . S
H920 C917 0.929 . S
S921 N922 1.613 . S
S921 N923 1.610 . S
N922 S921 1.613 . S
N922 C925 1.350 . S
N923 S921 1.610 . S
N923 C924 1.351 . S
C924 C918 1.428 1_565 S
C924 N923 1.351 . S
C924 C925 1.434 . S
C925 C916 1.429 . S
C925 N922 1.350 . S
C925 C924 1.434 . S
C926 C927 1.369 . S
C926 C928 1.419 . S
C926 H930 0.930 . S
C927 C926 1.369 . S
C927 C936 1.429 . S
C928 C926 1.419 . S
C928 C929 1.363 . S
C928 H931 0.929 . S
C929 C928 1.363 . S
C929 C935 1.428 . S
H930 C926 0.930 . S
H931 C928 0.929 . S
S932 N933 1.613 . S
S932 N934 1.610 . S
N933 S932 1.613 . S
N933 C936 1.350 . S
N934 S932 1.610 . S
N934 C935 1.351 . S
C935 C929 1.428 . S
C935 N934 1.351 . S
C935 C936 1.434 . S
C936 C927 1.429 . S
C936 N933 1.350 . S
C936 C935 1.434 . S
C937 C938 1.369 . S
C937 C939 1.419 . S
C937 H941 0.930 . S
C938 C937 1.369 . S
C938 C947 1.429 1_565 S
C939 C937 1.419 . S
C939 C940 1.363 1_565 S
C939 H942 0.929 . S
C940 C939 1.363 1_545 S
C940 C946 1.428 . S
H941 C937 0.930 . S
H942 C939 0.929 . S
S943 N944 1.613 . S
S943 N945 1.610 . S
N944 S943 1.613 . S
N944 C947 1.350 . S
N945 S943 1.610 . S
N945 C946 1.351 . S
C946 C940 1.428 . S
C946 N945 1.351 . S
C946 C947 1.434 . S
C947 C938 1.429 1_545 S
C947 N944 1.350 . S
C947 C946 1.434 . S
C948 C949 1.369 . S
C948 C950 1.419 . S
C948 H952 0.930 . S
C949 C948 1.369 . S
C949 C958 1.429 . S
C950 C948 1.419 . S
C950 C951 1.363 . S
C950 H953 0.929 . S
C951 C950 1.363 . S
C951 C957 1.428 . S
H952 C948 0.930 . S
H953 C950 0.929 . S
S954 N955 1.613 . S
S954 N956 1.610 . S
N955 S954 1.613 . S
N955 C958 1.350 . S
N956 S954 1.610 . S
N956 C957 1.351 . S
C957 C951 1.428 . S
C957 N956 1.351 . S
C957 C958 1.434 . S
C958 C949 1.429 . S
C958 N955 1.350 . S
C958 C957 1.434 . S
C959 C960 1.369 1_565 S
C959 C961 1.419 . S
C959 H963 0.930 . S
C960 C959 1.369 1_545 S
C960 C969 1.429 . S
C961 C959 1.419 . S
C961 C962 1.363 . S
C961 H964 0.929 . S
C962 C961 1.363 . S
C962 C968 1.428 1_565 S
H963 C959 0.930 . S
H964 C961 0.929 . S
S965 N966 1.613 . S
S965 N967 1.610 . S
N966 S965 1.613 . S
N966 C969 1.350 . S
N967 S965 1.610 . S
N967 C968 1.351 . S
C968 C962 1.428 1_545 S
C968 N967 1.351 . S
C968 C969 1.434 . S
C969 C960 1.429 . S
C969 N966 1.350 . S
C969 C968 1.434 . S
C970 C971 1.369 . S
C970 C972 1.419 . S
C970 H974 0.930 . S
C971 C970 1.369 . S
C971 C980 1.429 . S
C972 C970 1.419 . S
C972 C973 1.363 . S
C972 H975 0.929 . S
C973 C972 1.363 . S
C973 C979 1.428 . S
H974 C970 0.930 . S
H975 C972 0.929 . S
S976 N977 1.613 . S
S976 N978 1.610 . S
N977 S976 1.613 . S
N977 C980 1.350 . S
N978 S976 1.610 . S
N978 C979 1.351 . S
C979 C973 1.428 . S
C979 N978 1.351 . S
C979 C980 1.434 . S
C980 C971 1.429 . S
C980 N977 1.350 . S
C980 C979 1.434 . S
C981 C982 1.369 . S
C981 C983 1.422 . S
C981 H985 0.930 . S
C982 C981 1.369 . S
C982 C991 1.429 . S
C983 C981 1.422 . S
C983 C984 1.361 1_565 S
C983 H986 0.928 1_565 S
C984 C983 1.361 1_545 S
C984 C990 1.428 . S
H985 C981 0.930 . S
H986 C983 0.928 1_545 S
S987 N988 1.613 . S
S987 N989 1.610 1_565 S
N988 S987 1.613 . S
N988 C991 1.350 . S
N989 S987 1.610 1_545 S
N989 C990 1.351 . S
C990 C984 1.428 . S
C990 N989 1.351 . S
C990 C991 1.434 1_545 S
C991 C982 1.429 . S
C991 N988 1.350 . S
C991 C990 1.434 1_565 S
C992 C993 1.369 . S
C992 C994 1.419 . S
C992 H996 0.930 . S
C993 C992 1.369 . S
C993 C1002 1.429 . S
C994 C992 1.419 . S
C994 C995 1.363 . S
C994 H997 0.929 . S
C995 C994 1.363 . S
C995 C1001 1.428 . S
H996 C992 0.930 . S
H997 C994 0.929 . S
S998 N999 1.613 . S
S998 N1000 1.610 . S
N999 S998 1.613 . S
N999 C1002 1.350 . S
N1000 S998 1.610 . S
N1000 C1001 1.351 . S
C1001 C995 1.428 . S
C1001 N1000 1.351 . S
C1001 C1002 1.434 . S
C1002 C993 1.429 . S
C1002 N999 1.350 . S
C1002 C1001 1.434 . S
C1003 C1004 1.369 . S
C1003 C1005 1.419 . S
C1003 H1007 0.930 . S
C1004 C1003 1.369 . S
C1004 C1013 1.429 . S
C1005 C1003 1.419 . S
C1005 C1006 1.363 . S
C1005 H1008 0.929 . S
C1006 C1005 1.363 . S
C1006 C1012 1.428 . S
H1007 C1003 0.930 . S
H1008 C1005 0.929 . S
S1009 N1010 1.613 . S
S1009 N1011 1.610 . S
N1010 S1009 1.613 . S
N1010 C1013 1.350 . S
N1011 S1009 1.610 . S
N1011 C1012 1.351 . S
C1012 C1006 1.428 . S
C1012 N1011 1.351 . S
C1012 C1013 1.434 . S
C1013 C1004 1.429 . S
C1013 N1010 1.350 . S
C1013 C1012 1.434 . S
C1014 C1015 1.369 . S
C1014 C1016 1.419 1_455 S
C1014 H1018 0.930 . S
C1015 C1014 1.369 . S
C1015 C1024 1.429 . S
C1016 C1014 1.419 1_655 S
C1016 C1017 1.363 . S
C1016 H1019 0.929 . S
C1017 C1016 1.363 . S
C1017 C1023 1.428 . S
H1018 C1014 0.930 . S
H1019 C1016 0.929 . S
S1020 N1021 1.613 1_655 S
S1020 N1022 1.610 . S
N1021 S1020 1.613 1_455 S
N1021 C1024 1.350 . S
N1022 S1020 1.610 . S
N1022 C1023 1.351 . S
C1023 C1017 1.428 . S
C1023 N1022 1.351 . S
C1023 C1024 1.434 1_655 S
C1024 C1015 1.429 . S
C1024 N1021 1.350 . S
C1024 C1023 1.434 1_455 S
C1025 C1026 1.369 1_655 S
C1025 C1027 1.419 . S
C1025 H1029 0.930 . S
C1026 C1025 1.369 1_455 S
C1026 C1035 1.429 . S
C1027 C1025 1.419 . S
C1027 C1028 1.363 . S
C1027 H1030 0.929 . S
C1028 C1027 1.363 . S
C1028 C1034 1.428 1_655 S
H1029 C1025 0.930 . S
H1030 C1027 0.929 . S
S1031 N1032 1.613 . S
S1031 N1033 1.610 . S
N1032 S1031 1.613 . S
N1032 C1035 1.350 . S
N1033 S1031 1.610 . S
N1033 C1034 1.351 . S
C1034 C1028 1.428 1_455 S
C1034 N1033 1.351 . S
C1034 C1035 1.434 . S
C1035 C1026 1.429 . S
C1035 N1032 1.350 . S
C1035 C1034 1.434 . S
C1036 C1037 1.369 . S
C1036 C1038 1.419 . S
C1036 H1040 0.930 . S
C1037 C1036 1.369 . S
C1037 C1046 1.429 . S
C1038 C1036 1.419 . S
C1038 C1039 1.363 . S
C1038 H1041 0.929 . S
C1039 C1038 1.363 . S
C1039 C1045 1.428 . S
H1040 C1036 0.930 . S
H1041 C1038 0.929 . S
S1042 N1043 1.613 . S
S1042 N1044 1.610 . S
N1043 S1042 1.613 . S
N1043 C1046 1.350 . S
N1044 S1042 1.610 . S
N1044 C1045 1.351 . S
C1045 C1039 1.428 . S
C1045 N1044 1.351 . S
C1045 C1046 1.434 . S
C1046 C1037 1.429 . S
C1046 N1043 1.350 . S
C1046 C1045 1.434 . S
C1047 C1048 1.369 . S
C1047 C1049 1.419 . S
C1047 H1051 0.930 . S
C1048 C1047 1.369 . S
C1048 C1057 1.429 . S
C1049 C1047 1.419 . S
C1049 C1050 1.363 . S
C1049 H1052 0.929 . S
C1050 C1049 1.363 . S
C1050 C1056 1.428 . S
H1051 C1047 0.930 . S
H1052 C1049 0.929 . S
S1053 N1054 1.613 . S
S1053 N1055 1.610 . S
N1054 S1053 1.613 . S
N1054 C1057 1.350 . S
N1055 S1053 1.610 . S
N1055 C1056 1.351 . S
C1056 C1050 1.428 . S
C1056 N1055 1.351 . S
C1056 C1057 1.434 . S
C1057 C1048 1.429 . S
C1057 N1054 1.350 . S
C1057 C1056 1.434 . S
C1058 C1059 1.369 . S
C1058 C1060 1.419 1_455 S
C1058 H1062 0.930 . S
C1059 C1058 1.369 . S
C1059 C1068 1.429 . S
C1060 C1058 1.419 1_655 S
C1060 C1061 1.363 . S
C1060 H1063 0.929 . S
C1061 C1060 1.363 . S
C1061 C1067 1.428 . S
H1062 C1058 0.930 . S
H1063 C1060 0.929 . S
S1064 N1065 1.613 1_655 S
S1064 N1066 1.610 . S
N1065 S1064 1.613 1_455 S
N1065 C1068 1.350 . S
N1066 S1064 1.610 . S
N1066 C1067 1.351 . S
C1067 C1061 1.428 . S
C1067 N1066 1.351 . S
C1067 C1068 1.434 1_655 S
C1068 C1059 1.429 . S
C1068 N1065 1.350 . S
C1068 C1067 1.434 1_455 S
C1069 C1070 1.369 1_655 S
C1069 C1071 1.419 . S
C1069 H1073 0.930 . S
C1070 C1069 1.369 1_455 S
C1070 C1079 1.429 . S
C1071 C1069 1.419 . S
C1071 C1072 1.363 . S
C1071 H1074 0.929 . S
C1072 C1071 1.363 . S
C1072 C1078 1.428 1_655 S
H1073 C1069 0.930 . S
H1074 C1071 0.929 . S
S1075 N1076 1.613 . S
S1075 N1077 1.610 . S
N1076 S1075 1.613 . S
N1076 C1079 1.350 . S
N1077 S1075 1.610 . S
N1077 C1078 1.351 . S
C1078 C1072 1.428 1_455 S
C1078 N1077 1.351 . S
C1078 C1079 1.434 . S
C1079 C1070 1.429 . S
C1079 N1076 1.350 . S
C1079 C1078 1.434 . S
C465 C213 2.400 . S
C467 C21 2.038 . S
C476 C358 2.401 . S
C478 C50 2.034 . S
C487 C79 2.029 . S
C489 C155 2.400 . S
C498 C416 2.399 . S
C500 C108 2.036 . S
C509 C97 2.400 . S
C511 C137 2.039 . S
C520 C166 2.038 . S
C522 C242 2.400 . S
C531 C195 2.037 . S
C533 C39 2.401 . S
C542 C300 2.401 . S
C544 C224 2.035 . S
C553 C445 2.401 . S
C555 C253 2.032 . S
C564 C282 2.028 1_565 S
C566 C126 2.400 . S
C575 C387 2.401 . S
C577 C311 2.038 . S
C586 C184 2.401 . S
C588 C340 2.035 1_545 S
C597 C329 2.401 . S
C599 C369 2.032 . S
C608 C398 2.037 1_545 S
C610 C10 2.401 . S
C619 C427 2.028 . S
C621 C271 2.400 . S
C630 C68 2.400 . S
C632 C456 2.039 1_565 S
C641 C15 1.154 . S
C643 C409 1.193 . S
C652 C206 1.193 . S
C654 C44 1.146 . S
C663 C351 1.192 . S
C665 C73 1.151 . S
C674 C102 1.148 . S
C676 C148 1.196 . S
C685 C293 1.192 . S
C687 C131 1.149 . S
C696 C90 1.194 . S
C698 C160 1.152 . S
C707 C189 1.143 . S
C709 C235 1.197 . S
C718 C218 1.153 . S
C720 C32 1.194 . S
C729 C247 1.144 . S
C731 C177 1.194 . S
C740 C276 1.151 . S
C742 C438 1.195 . S
C751 C119 1.197 . S
C753 C305 1.143 . S
C762 C380 1.197 . S
C764 C334 1.142 . S
C773 C61 1.196 . S
C775 C363 1.142 . S
C784 C392 1.150 . S
C786 C322 1.196 . S
C795 C3 1.197 . S
C797 C421 1.145 . S
C806 C264 1.192 . S
C808 C450 1.151 . S
C817 C13 1.632 . S
C819 C269 1.529 . S
C828 C298 1.524 . S
C830 C42 1.631 . S
C839 C327 1.525 . S
C841 C71 1.631 . S
C850 C240 1.530 . S
C852 C100 1.626 . S
C861 C129 1.631 . S
C863 C385 1.523 . S
C872 C158 1.627 . S
C874 C414 1.532 . S
C883 C443 1.524 . S
C885 C187 1.631 . S
C894 C356 1.521 . S
C896 C216 1.628 . S
C905 C37 1.533 . S
C907 C245 1.627 . S
C916 C66 1.521 . S
C918 C274 1.627 . S
C927 C303 1.626 . S
C929 C95 1.523 . S
C938 C332 1.626 . S
C940 C8 1.524 . S
C949 C361 1.628 . S
C951 C153 1.522 . S
C960 C182 1.521 . S
C962 C390 1.628 . S
C971 C419 1.626 . S
C973 C211 1.532 . S
C982 C124 1.524 . S
C984 C448 1.631 . S
C993 C295 2.517 . S
C995 C5 2.511 . S
C1004 C34 2.514 . S
C1006 C324 2.516 . S
C1015 C63 2.511 . S
C1017 C237 2.517 . S
C1026 C266 2.512 . S
C1028 C92 2.517 . S
C1037 C121 2.510 . S
C1039 C411 2.515 . S
C1048 C440 2.517 . S
C1050 C150 2.514 . S
C1059 C353 2.512 . S
C1061 C179 2.517 . S
C1070 C208 2.512 . S
C1072 C382 2.517 . S
