# Generated by pormake.
# Topology gsi, (4)-cn, num edge types: 1
# Building blocks:
#     Node 0, Type 0, BuildingBlock: NAHDIM_clean_sbu_0, # of connection points: 4
#     Node 1, Type 0, BuildingBlock: NAHDIM_clean_sbu_0, # of connection points: 4
#     Node 2, Type 0, BuildingBlock: NAHDIM_clean_sbu_0, # of connection points: 4
#     Node 3, Type 0, BuildingBlock: NAHDIM_clean_sbu_0, # of connection points: 4
#     Node 4, Type 0, BuildingBlock: NAHDIM_clean_sbu_0, # of connection points: 4
#     Node 5, Type 0, BuildingBlock: NAHDIM_clean_sbu_0, # of connection points: 4
#     Node 6, Type 0, BuildingBlock: NAHDIM_clean_sbu_0, # of connection points: 4
#     Node 7, Type 0, BuildingBlock: NAHDIM_clean_sbu_0, # of connection points: 4
#     Node 8, Type 0, BuildingBlock: NAHDIM_clean_sbu_0, # of connection points: 4
#     Node 9, Type 0, BuildingBlock: NAHDIM_clean_sbu_0, # of connection points: 4
#     Node 10, Type 0, BuildingBlock: NAHDIM_clean_sbu_0, # of connection points: 4
#     Node 11, Type 0, BuildingBlock: NAHDIM_clean_sbu_0, # of connection points: 4
#     Node 12, Type 0, BuildingBlock: NAHDIM_clean_sbu_0, # of connection points: 4
#     Node 13, Type 0, BuildingBlock: NAHDIM_clean_sbu_0, # of connection points: 4
#     Node 14, Type 0, BuildingBlock: NAHDIM_clean_sbu_0, # of connection points: 4
#     Node 15, Type 0, BuildingBlock: NAHDIM_clean_sbu_0, # of connection points: 4
#     Edge 16, Type (0, 0), BuildingBlock: TEMPAE_clean_linker_10, # of connection points: 2
#     Edge 17, Type (0, 0), BuildingBlock: TEMPAE_clean_linker_10, # of connection points: 2
#     Edge 18, Type (0, 0), BuildingBlock: TEMPAE_clean_linker_10, # of connection points: 2
#     Edge 19, Type (0, 0), BuildingBlock: TEMPAE_clean_linker_10, # of connection points: 2
#     Edge 20, Type (0, 0), BuildingBlock: TEMPAE_clean_linker_10, # of connection points: 2
#     Edge 21, Type (0, 0), BuildingBlock: TEMPAE_clean_linker_10, # of connection points: 2
#     Edge 22, Type (0, 0), BuildingBlock: TEMPAE_clean_linker_10, # of connection points: 2
#     Edge 23, Type (0, 0), BuildingBlock: TEMPAE_clean_linker_10, # of connection points: 2
#     Edge 24, Type (0, 0), BuildingBlock: TEMPAE_clean_linker_10, # of connection points: 2
#     Edge 25, Type (0, 0), BuildingBlock: TEMPAE_clean_linker_10, # of connection points: 2
#     Edge 26, Type (0, 0), BuildingBlock: TEMPAE_clean_linker_10, # of connection points: 2
#     Edge 27, Type (0, 0), BuildingBlock: TEMPAE_clean_linker_10, # of connection points: 2
#     Edge 28, Type (0, 0), BuildingBlock: TEMPAE_clean_linker_10, # of connection points: 2
#     Edge 29, Type (0, 0), BuildingBlock: TEMPAE_clean_linker_10, # of connection points: 2
#     Edge 30, Type (0, 0), BuildingBlock: TEMPAE_clean_linker_10, # of connection points: 2
#     Edge 31, Type (0, 0), BuildingBlock: TEMPAE_clean_linker_10, # of connection points: 2
#     Edge 32, Type (0, 0), BuildingBlock: TEMPAE_clean_linker_10, # of connection points: 2
#     Edge 33, Type (0, 0), BuildingBlock: TEMPAE_clean_linker_10, # of connection points: 2
#     Edge 34, Type (0, 0), BuildingBlock: TEMPAE_clean_linker_10, # of connection points: 2
#     Edge 35, Type (0, 0), BuildingBlock: TEMPAE_clean_linker_10, # of connection points: 2
#     Edge 36, Type (0, 0), BuildingBlock: TEMPAE_clean_linker_10, # of connection points: 2
#     Edge 37, Type (0, 0), BuildingBlock: TEMPAE_clean_linker_10, # of connection points: 2
#     Edge 38, Type (0, 0), BuildingBlock: TEMPAE_clean_linker_10, # of connection points: 2
#     Edge 39, Type (0, 0), BuildingBlock: TEMPAE_clean_linker_10, # of connection points: 2
#     Edge 40, Type (0, 0), BuildingBlock: TEMPAE_clean_linker_10, # of connection points: 2
#     Edge 41, Type (0, 0), BuildingBlock: TEMPAE_clean_linker_10, # of connection points: 2
#     Edge 42, Type (0, 0), BuildingBlock: TEMPAE_clean_linker_10, # of connection points: 2
#     Edge 43, Type (0, 0), BuildingBlock: TEMPAE_clean_linker_10, # of connection points: 2
#     Edge 44, Type (0, 0), BuildingBlock: TEMPAE_clean_linker_10, # of connection points: 2
#     Edge 45, Type (0, 0), BuildingBlock: TEMPAE_clean_linker_10, # of connection points: 2
#     Edge 46, Type (0, 0), BuildingBlock: TEMPAE_clean_linker_10, # of connection points: 2
#     Edge 47, Type (0, 0), BuildingBlock: TEMPAE_clean_linker_10, # of connection points: 2
# Relax obj value: 0.051
# Max RMSD: 0.059
# Mean RMSD: 0.054
data_MOF--net-gsi--node1-NAHDIM_clean_sbu_0--edge1-TEMPAE_clean_linker_10
_symmetry_space_group_name_H-M    P1
_symmetry_Int_Tables_number       1
_symmetry_cell_setting            triclinic
loop_
_symmetry_equiv_pos_as_xyz
'x, y, z'
_cell_length_a     42.215044
_cell_length_b     43.309179
_cell_length_c     43.53813
_cell_angle_alpha  89.995631
_cell_angle_beta   90.011227
_cell_angle_gamma 95.379423
loop_
_atom_site_label
_atom_site_type_symbol
_atom_site_fract_x
_atom_site_fract_y
_atom_site_fract_z
_atom_type_partial_charge
C0 C 0.09736 0.19053 0.11918 0.0
O1 O 0.12229 0.20082 0.10284 0.0
O2 O 0.16441 0.14142 0.10646 0.0
Zn3 Zn 0.14217 0.15163 0.1459 0.0
O4 O 0.1706 0.18348 0.16875 0.0
C5 C 0.13647 0.08638 0.16371 0.0
O6 O 0.13796 0.08127 0.13403 0.0
O7 O 0.09997 0.16881 0.13841 0.0
C8 C 0.19731 0.1758 0.17799 0.0
O9 O 0.20493 0.14762 0.17233 0.0
C10 C 0.18409 0.16178 0.09413 0.0
O11 O 0.18841 0.1895 0.10652 0.0
O12 O 0.13678 0.11409 0.17336 0.0
C13 C 0.90018 0.30527 0.12212 0.0
O14 O 0.8735 0.29382 0.10917 0.0
O15 O 0.83628 0.35409 0.10551 0.0
Zn16 Zn 0.85863 0.34785 0.14578 0.0
O17 O 0.83102 0.31756 0.17152 0.0
C18 C 0.87177 0.4146 0.16074 0.0
O19 O 0.87542 0.41942 0.1311 0.0
O20 O 0.90005 0.32947 0.13863 0.0
C21 C 0.80896 0.32713 0.18782 0.0
O22 O 0.80414 0.35664 0.18702 0.0
C23 C 0.81275 0.37029 0.1035 0.0
O24 O 0.80366 0.38481 0.12799 0.0
O25 O 0.86555 0.3871 0.1706 0.0
C26 C 0.16617 0.91082 0.31 0.0
O27 O 0.19503 0.90225 0.31312 0.0
O28 O 0.10806 0.83055 0.35237 0.0
Zn29 Zn 0.15049 0.85518 0.34481 0.0
O30 O 0.17553 0.8295 0.31693 0.0
C31 C 0.18215 0.84039 0.39994 0.0
O32 O 0.17371 0.81236 0.38956 0.0
O33 O 0.14306 0.89467 0.32263 0.0
C34 C 0.20514 0.82675 0.31901 0.0
O35 O 0.22213 0.84285 0.33979 0.0
C36 C 0.10572 0.80115 0.34973 0.0
O37 O 0.13129 0.78729 0.34334 0.0
O38 O 0.17437 0.86356 0.38468 0.0
C39 C 0.86423 0.59163 0.31068 0.0
O40 O 0.88968 0.60324 0.32556 0.0
O41 O 0.87786 0.66334 0.34962 0.0
Zn42 Zn 0.83455 0.64223 0.33981 0.0
O43 O 0.81244 0.6725 0.31434 0.0
C44 C 0.80999 0.65365 0.399 0.0
O45 O 0.82578 0.68067 0.3934 0.0
O46 O 0.83824 0.6039 0.31413 0.0
C47 C 0.7853 0.68174 0.31972 0.0
O48 O 0.76874 0.67054 0.34342 0.0
C49 C 0.89306 0.67738 0.32775 0.0
O50 O 0.88041 0.67629 0.30015 0.0
O51 O 0.81027 0.63231 0.37899 0.0
C52 C 0.40059 0.80628 0.61866 0.0
O53 O 0.3744 0.79487 0.60482 0.0
O54 O 0.33763 0.85587 0.59836 0.0
Zn55 Zn 0.35874 0.85018 0.63957 0.0
O56 O 0.32944 0.82092 0.66466 0.0
C57 C 0.34187 0.90312 0.67302 0.0
O58 O 0.3134 0.88873 0.66894 0.0
O59 O 0.40004 0.83086 0.63454 0.0
C60 C 0.33094 0.81952 0.69375 0.0
O61 O 0.35315 0.83712 0.70829 0.0
C62 C 0.30737 0.85355 0.59715 0.0
O63 O 0.29108 0.84784 0.62253 0.0
O64 O 0.36583 0.89117 0.66205 0.0
C65 C 0.86975 0.92368 0.83272 0.0
O66 O 0.85602 0.92471 0.85972 0.0
O67 O 0.84472 0.86252 0.88467 0.0
Zn68 Zn 0.86679 0.85703 0.84421 0.0
O69 O 0.8363 0.8314 0.81686 0.0
C70 C 0.90937 0.81704 0.87293 0.0
O71 O 0.88674 0.81391 0.89371 0.0
O72 O 0.87729 0.89785 0.82257 0.0
C73 C 0.82888 0.80262 0.82114 0.0
O74 O 0.84225 0.7885 0.84374 0.0
C75 C 0.81498 0.86523 0.88466 0.0
O76 O 0.79995 0.86576 0.85826 0.0
O77 O 0.90629 0.83481 0.85007 0.0
C78 C 0.14514 0.58086 0.82875 0.0
O79 O 0.17231 0.58819 0.84283 0.0
O80 O 0.15554 0.63589 0.89154 0.0
Zn81 Zn 0.13379 0.64104 0.85065 0.0
O82 O 0.164 0.66732 0.82334 0.0
C83 C 0.09463 0.68583 0.87462 0.0
O84 O 0.12129 0.69496 0.88892 0.0
O85 O 0.12387 0.59977 0.8296 0.0
C86 C 0.15839 0.69268 0.81071 0.0
O87 O 0.13047 0.70321 0.81443 0.0
C88 C 0.18574 0.63987 0.89322 0.0
O89 O 0.20225 0.6464 0.8681 0.0
O90 O 0.09386 0.66234 0.85701 0.0
C91 C 0.80539 0.15845 0.59377 0.0
O92 O 0.81553 0.18711 0.60117 0.0
O93 O 0.87793 0.17168 0.63904 0.0
Zn94 Zn 0.83608 0.14793 0.6502 0.0
O95 O 0.81088 0.17585 0.67567 0.0
C96 C 0.86762 0.10758 0.69128 0.0
O97 O 0.88951 0.13118 0.69239 0.0
O98 O 0.81153 0.13659 0.61164 0.0
C99 C 0.79948 0.16835 0.70193 0.0
O100 O 0.8031 0.14069 0.71301 0.0
C101 C 0.89021 0.19227 0.65741 0.0
O102 O 0.87544 0.1973 0.68324 0.0
O103 O 0.84331 0.1093 0.67431 0.0
C104 C 0.19877 0.34053 0.5982 0.0
O105 O 0.19864 0.31474 0.61409 0.0
O106 O 0.11162 0.33303 0.63488 0.0
Zn107 Zn 0.15486 0.35398 0.64527 0.0
O108 O 0.17587 0.32595 0.67403 0.0
C109 C 0.13485 0.39207 0.69283 0.0
O110 O 0.12253 0.36476 0.70239 0.0
O111 O 0.18151 0.36135 0.60709 0.0
C112 C 0.2012 0.33449 0.68866 0.0
O113 O 0.21452 0.36292 0.6851 0.0
C114 C 0.10822 0.30363 0.63284 0.0
O115 O 0.13331 0.2881 0.63588 0.0
O116 O 0.15 0.39384 0.66757 0.0
C117 C 0.64793 0.08489 0.31443 0.0
O118 O 0.67519 0.10212 0.31303 0.0
O119 O 0.65561 0.13038 0.39328 0.0
Zn120 Zn 0.6337 0.13528 0.35245 0.0
O121 O 0.66117 0.16408 0.32509 0.0
C122 C 0.59257 0.17716 0.37819 0.0
O123 O 0.61824 0.18503 0.39452 0.0
O124 O 0.6255 0.09413 0.33052 0.0
C125 C 0.68038 0.18617 0.33499 0.0
O126 O 0.68302 0.19097 0.36471 0.0
C127 C 0.68476 0.12534 0.39491 0.0
O128 O 0.70072 0.12204 0.36943 0.0
O129 O 0.59294 0.15514 0.3589 0.0
C130 C 0.59604 0.68835 0.61998 0.0
O131 O 0.62187 0.69895 0.60507 0.0
O132 O 0.65742 0.63915 0.59873 0.0
Zn133 Zn 0.63829 0.64497 0.64062 0.0
O134 O 0.66881 0.67432 0.66428 0.0
C135 C 0.65456 0.59634 0.68093 0.0
O136 O 0.6809 0.6149 0.68309 0.0
O137 O 0.59687 0.66438 0.63673 0.0
C138 C 0.6616 0.68407 0.69063 0.0
O139 O 0.63326 0.67559 0.70195 0.0
C140 C 0.68628 0.63311 0.59706 0.0
O141 O 0.70214 0.62968 0.6226 0.0
O142 O 0.63225 0.60411 0.66371 0.0
C143 C 0.64615 0.39714 0.80193 0.0
O144 O 0.65184 0.3713 0.78807 0.0
O145 O 0.60445 0.33764 0.86711 0.0
Zn146 Zn 0.64754 0.3584 0.85592 0.0
O147 O 0.66942 0.32771 0.83083 0.0
C148 C 0.67415 0.34769 0.91472 0.0
O149 O 0.65754 0.32081 0.91059 0.0
O150 O 0.64322 0.39726 0.83102 0.0
C151 C 0.6994 0.3268 0.83066 0.0
O152 O 0.71728 0.34672 0.84745 0.0
C153 C 0.58553 0.32888 0.84545 0.0
O154 O 0.59419 0.33518 0.81698 0.0
O155 O 0.67328 0.36848 0.89421 0.0
C156 C 0.35388 0.09994 0.79778 0.0
O157 O 0.3587 0.12717 0.7844 0.0
O158 O 0.38276 0.1616 0.85779 0.0
Zn159 Zn 0.34025 0.1387 0.84797 0.0
O160 O 0.31767 0.16633 0.81968 0.0
C161 C 0.32417 0.12729 0.9128 0.0
O162 O 0.35494 0.12655 0.91683 0.0
O163 O 0.346 0.0987 0.82597 0.0
C164 C 0.29668 0.18312 0.82946 0.0
O165 O 0.28869 0.18181 0.85862 0.0
C166 C 0.38338 0.18862 0.8693 0.0
O167 O 0.35636 0.19964 0.8764 0.0
O168 O 0.3135 0.13109 0.88593 0.0
C169 C 0.35501 0.41244 0.33009 0.0
O170 O 0.32745 0.40265 0.34235 0.0
O171 O 0.34789 0.36009 0.39568 0.0
Zn172 Zn 0.37025 0.35509 0.35509 0.0
O173 O 0.34238 0.32643 0.32825 0.0
C174 C 0.40871 0.30993 0.37721 0.0
O175 O 0.38112 0.29972 0.38918 0.0
O176 O 0.37826 0.39607 0.33321 0.0
C177 C 0.34608 0.32519 0.29935 0.0
O178 O 0.36909 0.34313 0.28635 0.0
C179 C 0.31805 0.35282 0.39764 0.0
O180 O 0.30225 0.34298 0.37299 0.0
O181 O 0.41068 0.33491 0.36169 0.0
C182 C 0.30507 0.65368 0.09382 0.0
O183 O 0.31207 0.6815 0.10543 0.0
O184 O 0.38254 0.66194 0.13576 0.0
Zn185 Zn 0.33977 0.63967 0.14633 0.0
O186 O 0.31603 0.66861 0.17179 0.0
C187 C 0.36029 0.60215 0.19542 0.0
O188 O 0.37237 0.62938 0.20531 0.0
O189 O 0.31489 0.63049 0.10753 0.0
C190 C 0.29864 0.66106 0.19488 0.0
O191 O 0.29437 0.63184 0.2033 0.0
C192 C 0.39441 0.68343 0.15336 0.0
O193 O 0.37878 0.69024 0.17816 0.0
O194 O 0.34527 0.6005 0.17006 0.0
C195 C 0.68981 0.84354 0.08165 0.0
O196 O 0.68607 0.81579 0.09403 0.0
O197 O 0.61015 0.83208 0.12456 0.0
Zn198 Zn 0.65239 0.85616 0.13359 0.0
O199 O 0.67696 0.8295 0.16083 0.0
C200 C 0.63471 0.89237 0.18399 0.0
O201 O 0.62847 0.86444 0.19558 0.0
O202 O 0.67713 0.86563 0.0946 0.0
C203 C 0.69813 0.83921 0.18015 0.0
O204 O 0.70608 0.86915 0.18281 0.0
C205 C 0.60808 0.8026 0.12552 0.0
O206 O 0.63383 0.78863 0.13085 0.0
O207 O 0.64506 0.89515 0.15661 0.0
C208 C 0.21209 0.22875 0.19953 0.0
C209 C 0.2196 0.19825 0.19467 0.0
C210 C 0.23286 0.25012 0.21567 0.0
C211 C 0.26177 0.24073 0.22727 0.0
C212 C 0.26965 0.2101 0.22218 0.0
C213 C 0.24847 0.18923 0.20591 0.0
C214 C 0.22371 0.28264 0.22062 0.0
C215 C 0.30026 0.19926 0.23428 0.0
C216 C 0.32812 0.30226 0.24876 0.0
C217 C 0.32453 0.30375 0.28073 0.0
C218 C 0.30777 0.28191 0.23099 0.0
C219 C 0.28333 0.26265 0.2456 0.0
C220 C 0.27954 0.26411 0.27783 0.0
C221 C 0.30017 0.28464 0.29501 0.0
C222 C 0.31245 0.28097 0.19663 0.0
C223 C 0.25374 0.2439 0.29421 0.0
H224 H 0.18987 0.23594 0.19081 0.0
H225 H 0.25448 0.16572 0.20222 0.0
H226 H 0.22152 0.28721 0.24557 0.0
H227 H 0.24257 0.29978 0.21153 0.0
H228 H 0.20083 0.28653 0.20931 0.0
H229 H 0.30323 0.17492 0.22765 0.0
H230 H 0.32091 0.21443 0.22548 0.0
H231 H 0.30076 0.20094 0.25971 0.0
H232 H 0.34685 0.31697 0.23757 0.0
H233 H 0.29718 0.28566 0.3197 0.0
H234 H 0.29039 0.2864 0.18476 0.0
H235 H 0.31731 0.25729 0.18945 0.0
H236 H 0.33242 0.29764 0.1888 0.0
H237 H 0.23007 0.24837 0.28505 0.0
H238 H 0.25389 0.24798 0.3194 0.0
H239 H 0.25677 0.21908 0.28998 0.0
C240 C 0.76262 0.31524 0.22287 0.0
C241 C 0.78972 0.30567 0.20841 0.0
C242 C 0.74458 0.29555 0.24315 0.0
C243 C 0.75408 0.2657 0.24935 0.0
C244 C 0.78133 0.25582 0.23474 0.0
C245 C 0.79875 0.27588 0.21429 0.0
C246 C 0.71542 0.30673 0.25803 0.0
C247 C 0.79229 0.22422 0.24101 0.0
C248 C 0.72459 0.22711 0.3236 0.0
C249 C 0.69949 0.20628 0.31311 0.0
C250 C 0.74283 0.24633 0.30303 0.0
C251 C 0.73554 0.24489 0.27129 0.0
C252 C 0.71024 0.22393 0.26056 0.0
C253 C 0.69263 0.20474 0.28158 0.0
C254 C 0.76987 0.26821 0.31525 0.0
C255 C 0.70157 0.22199 0.22691 0.0
H256 H 0.75542 0.33818 0.21833 0.0
H257 H 0.81974 0.26838 0.20328 0.0
H258 H 0.6942 0.29051 0.25274 0.0
H259 H 0.71829 0.30712 0.28336 0.0
H260 H 0.71085 0.33033 0.25021 0.0
H261 H 0.81394 0.22004 0.22772 0.0
H262 H 0.7975 0.22186 0.26584 0.0
H263 H 0.77313 0.20587 0.23514 0.0
H264 H 0.73013 0.22829 0.34791 0.0
H265 H 0.6732 0.18876 0.27331 0.0
H266 H 0.76551 0.29252 0.31001 0.0
H267 H 0.79244 0.26368 0.30376 0.0
H268 H 0.77296 0.26593 0.34046 0.0
H269 H 0.69515 0.24486 0.21874 0.0
H270 H 0.68129 0.20435 0.2223 0.0
H271 H 0.72231 0.21612 0.21319 0.0
C272 C 0.26823 0.67819 0.24019 0.0
C273 C 0.28448 0.68542 0.21266 0.0
C274 C 0.25555 0.70139 0.25758 0.0
C275 C 0.25911 0.73246 0.24707 0.0
C276 C 0.2753 0.73987 0.21922 0.0
C277 C 0.28784 0.71627 0.20238 0.0
C278 C 0.23846 0.69269 0.28725 0.0
C279 C 0.27939 0.77272 0.2072 0.0
C280 C 0.20139 0.78734 0.27697 0.0
C281 C 0.21958 0.80372 0.2997 0.0
C282 C 0.21405 0.76422 0.25955 0.0
C283 C 0.24562 0.75724 0.26506 0.0
C284 C 0.26425 0.77389 0.2877 0.0
C285 C 0.25102 0.79701 0.30473 0.0
C286 C 0.19354 0.7471 0.23543 0.0
C287 C 0.29802 0.767 0.2942 0.0
H288 H 0.26562 0.65444 0.24832 0.0
H289 H 0.30034 0.72208 0.1811 0.0
H290 H 0.25029 0.70582 0.30662 0.0
H291 H 0.21363 0.69905 0.28613 0.0
H292 H 0.2379 0.6675 0.29231 0.0
H293 H 0.29256 0.77458 0.18509 0.0
H294 H 0.25576 0.78146 0.20378 0.0
H295 H 0.29244 0.78813 0.22424 0.0
H296 H 0.17707 0.79239 0.27291 0.0
H297 H 0.26519 0.80949 0.3223 0.0
H298 H 0.19053 0.72197 0.2409 0.0
H299 H 0.20531 0.7496 0.21267 0.0
H300 H 0.16961 0.75567 0.23368 0.0
H301 H 0.29835 0.74249 0.30151 0.0
H302 H 0.30941 0.78222 0.3124 0.0
H303 H 0.31254 0.77004 0.27299 0.0
C304 C 0.79006 0.71599 0.27342 0.0
C305 C 0.77295 0.70543 0.29962 0.0
C306 C 0.7788 0.73844 0.25411 0.0
C307 C 0.74979 0.75072 0.26121 0.0
C308 C 0.73253 0.74041 0.28775 0.0
C309 C 0.74429 0.71782 0.30662 0.0
C310 C 0.79778 0.74875 0.2259 0.0
C311 C 0.70153 0.75309 0.29606 0.0
C312 C 0.73272 0.82701 0.22447 0.0
C313 C 0.71223 0.81677 0.20046 0.0
C314 C 0.74516 0.80577 0.24449 0.0
C315 C 0.73697 0.77359 0.24026 0.0
C316 C 0.71656 0.76312 0.21589 0.0
C317 C 0.70442 0.78482 0.19632 0.0
C318 C 0.76686 0.81773 0.27029 0.0
C319 C 0.70742 0.72898 0.21055 0.0
H320 H 0.81226 0.70658 0.26784 0.0
H321 H 0.731 0.70989 0.32689 0.0
H322 H 0.78336 0.74323 0.20497 0.0
H323 H 0.80367 0.77425 0.22636 0.0
H324 H 0.82025 0.73743 0.22403 0.0
H325 H 0.6915 0.74334 0.31798 0.0
H326 H 0.7051 0.77871 0.29818 0.0
H327 H 0.68381 0.7477 0.27755 0.0
H328 H 0.7388 0.85165 0.22786 0.0
H329 H 0.68864 0.77667 0.17778 0.0
H330 H 0.79016 0.808 0.26827 0.0
H331 H 0.75643 0.80999 0.29271 0.0
H332 H 0.77099 0.84344 0.27039 0.0
H333 H 0.72908 0.71681 0.20681 0.0
H334 H 0.69145 0.72467 0.19042 0.0
H335 H 0.69522 0.71853 0.23115 0.0
C336 C 0.30563 0.80074 0.74314 0.0
C337 C 0.30664 0.79965 0.71097 0.0
C338 C 0.28175 0.78306 0.75957 0.0
C339 C 0.25848 0.76375 0.74343 0.0
C340 C 0.25966 0.76218 0.711 0.0
C341 C 0.28369 0.7802 0.69515 0.0
C342 C 0.28118 0.78535 0.79418 0.0
C343 C 0.23536 0.74169 0.69302 0.0
C344 C 0.21251 0.69811 0.78688 0.0
C345 C 0.18367 0.71065 0.79291 0.0
C346 C 0.23702 0.71509 0.77068 0.0
C347 C 0.23266 0.7454 0.76044 0.0
C348 C 0.20361 0.75818 0.76637 0.0
C349 C 0.1794 0.7406 0.78245 0.0
C350 C 0.26759 0.70061 0.76458 0.0
C351 C 0.19819 0.79051 0.75589 0.0
H352 H 0.32323 0.81575 0.75552 0.0
H353 H 0.28432 0.77916 0.67029 0.0
H354 H 0.2585 0.79394 0.80177 0.0
H355 H 0.28232 0.76206 0.80451 0.0
H356 H 0.30124 0.80114 0.80328 0.0
H357 H 0.24005 0.74258 0.66792 0.0
H358 H 0.23527 0.71729 0.70084 0.0
H359 H 0.21122 0.74892 0.69724 0.0
H360 H 0.21599 0.67495 0.79483 0.0
H361 H 0.15724 0.75049 0.78711 0.0
H362 H 0.28791 0.71496 0.77508 0.0
H363 H 0.2721 0.69987 0.73949 0.0
H364 H 0.26708 0.67668 0.77386 0.0
H365 H 0.21648 0.80757 0.76607 0.0
H366 H 0.17428 0.79708 0.76242 0.0
H367 H 0.20067 0.79225 0.73057 0.0
C368 C 0.67803 0.71347 0.73841 0.0
C369 C 0.68568 0.70285 0.70916 0.0
C370 C 0.70108 0.73016 0.75669 0.0
C371 C 0.73251 0.73626 0.74545 0.0
C372 C 0.7403 0.72589 0.71582 0.0
C373 C 0.71678 0.70936 0.69801 0.0
C374 C 0.69188 0.74101 0.78814 0.0
C375 C 0.77358 0.73194 0.70309 0.0
C376 C 0.78629 0.8017 0.78115 0.0
C377 C 0.80456 0.78555 0.8015 0.0
C378 C 0.76265 0.78595 0.76287 0.0
C379 C 0.75735 0.75327 0.7648 0.0
C380 C 0.77584 0.7368 0.78512 0.0
C381 C 0.79915 0.75317 0.80334 0.0
C382 C 0.74325 0.8043 0.74161 0.0
C383 C 0.77101 0.70189 0.78758 0.0
H384 H 0.65407 0.70856 0.74718 0.0
H385 H 0.72293 0.70121 0.67544 0.0
H386 H 0.7062 0.73041 0.80597 0.0
H387 H 0.69712 0.76653 0.78997 0.0
H388 H 0.66626 0.73494 0.79322 0.0
H389 H 0.77566 0.72259 0.67948 0.0
H390 H 0.7808 0.75723 0.70262 0.0
H391 H 0.79064 0.72118 0.7182 0.0
H392 H 0.79021 0.82675 0.77971 0.0
H393 H 0.81323 0.74054 0.81895 0.0
H394 H 0.71762 0.79998 0.74739 0.0
H395 H 0.74612 0.79664 0.71754 0.0
H396 H 0.75024 0.82964 0.74295 0.0
H397 H 0.74622 0.69458 0.79475 0.0
H398 H 0.78754 0.69256 0.80432 0.0
H399 H 0.77464 0.69127 0.76481 0.0
C400 C 0.74665 0.30065 0.81316 0.0
C401 C 0.71386 0.30346 0.81171 0.0
C402 C 0.76055 0.27849 0.79538 0.0
C403 C 0.7412 0.2588 0.77561 0.0
C404 C 0.70812 0.26155 0.774 0.0
C405 C 0.69483 0.28381 0.7921 0.0
C406 C 0.79594 0.27615 0.79774 0.0
C407 C 0.68675 0.24102 0.75309 0.0
C408 C 0.78102 0.22112 0.70905 0.0
C409 C 0.78371 0.19116 0.72044 0.0
C410 C 0.76711 0.24332 0.72672 0.0
C411 C 0.75562 0.23538 0.75649 0.0
C412 C 0.75799 0.20512 0.76803 0.0
C413 C 0.77201 0.18336 0.74986 0.0
C414 C 0.76492 0.27534 0.71362 0.0
C415 C 0.74594 0.19582 0.79968 0.0
H416 H 0.76151 0.31568 0.82829 0.0
H417 H 0.66947 0.28586 0.79078 0.0
H418 H 0.80051 0.25243 0.80505 0.0
H419 H 0.80722 0.28026 0.77491 0.0
H420 H 0.80762 0.29307 0.81433 0.0
H421 H 0.66148 0.2461 0.75455 0.0
H422 H 0.6948 0.24412 0.72894 0.0
H423 H 0.68822 0.21631 0.75911 0.0
H424 H 0.79001 0.22736 0.68635 0.0
H425 H 0.77399 0.16029 0.75884 0.0
H426 H 0.7782 0.29292 0.72846 0.0
H427 H 0.73975 0.28075 0.71322 0.0
H428 H 0.77465 0.27769 0.68994 0.0
H429 H 0.75856 0.21094 0.81723 0.0
H430 H 0.74932 0.17129 0.80515 0.0
H431 H 0.72025 0.19905 0.80153 0.0
C432 C 0.20123 0.28193 0.71232 0.0
C433 C 0.21546 0.31239 0.70924 0.0
C434 C 0.21433 0.26062 0.73169 0.0
C435 C 0.24233 0.26997 0.74841 0.0
C436 C 0.25686 0.30064 0.74541 0.0
C437 C 0.24324 0.32151 0.72584 0.0
C438 C 0.19817 0.2281 0.7343 0.0
C439 C 0.28675 0.3114 0.76293 0.0
C440 C 0.25978 0.22392 0.81959 0.0
C441 C 0.28242 0.20494 0.80856 0.0
C442 C 0.24659 0.24525 0.80026 0.0
C443 C 0.25629 0.24765 0.76918 0.0
C444 C 0.27905 0.2285 0.75785 0.0
C445 C 0.29184 0.20736 0.77768 0.0
C446 C 0.22231 0.26526 0.81312 0.0
C447 C 0.28991 0.23039 0.7248 0.0
H448 H 0.17977 0.27466 0.69956 0.0
H449 H 0.25437 0.34498 0.72359 0.0
H450 H 0.21491 0.21102 0.72757 0.0
H451 H 0.19117 0.22314 0.75849 0.0
H452 H 0.1766 0.22448 0.71963 0.0
H453 H 0.29517 0.33597 0.75794 0.0
H454 H 0.28239 0.30894 0.78798 0.0
H455 H 0.30599 0.29667 0.75702 0.0
H456 H 0.25238 0.22223 0.84341 0.0
H457 H 0.30936 0.1928 0.76898 0.0
H458 H 0.19966 0.26114 0.80019 0.0
H459 H 0.23082 0.29012 0.81034 0.0
H460 H 0.2174 0.26061 0.83784 0.0
H461 H 0.26925 0.22528 0.70927 0.0
H462 H 0.30786 0.21394 0.71963 0.0
H463 H 0.30037 0.25426 0.71951 0.0
C464 C 0.12929 0.94507 0.28452 0.0
C465 C 0.16039 0.93761 0.29025 0.0
C466 C 0.12347 0.96934 0.26449 0.0
C467 C 0.14938 0.98659 0.24993 0.0
C468 C 0.18084 0.97952 0.25602 0.0
C469 C 0.18596 0.95511 0.27607 0.0
C470 C 0.08959 0.97622 0.25858 0.0
C471 C 0.20911 0.9975 0.24104 0.0
C472 C 0.13707 0.02982 0.17558 0.0
C473 C 0.13729 0.06051 0.18592 0.0
C474 C 0.14016 0.00541 0.19627 0.0
C475 C 0.1437 0.01187 0.22803 0.0
C476 C 0.14314 0.04267 0.2387 0.0
C477 C 0.13987 0.06661 0.21754 0.0
C478 C 0.14044 0.97281 0.18405 0.0
C479 C 0.14689 0.05049 0.27239 0.0
H480 H 0.10937 0.93167 0.29534 0.0
H481 H 0.21007 0.94956 0.28038 0.0
H482 H 0.08669 0.00076 0.26426 0.0
H483 H 0.08389 0.97297 0.23384 0.0
H484 H 0.07215 0.96107 0.2722 0.0
H485 H 0.23208 0.98951 0.24869 0.0
H486 H 0.20741 0.99506 0.21571 0.0
H487 H 0.20917 0.02255 0.24642 0.0
H488 H 0.13497 0.02488 0.15122 0.0
H489 H 0.14007 0.09024 0.22578 0.0
H490 H 0.12222 0.95704 0.19602 0.0
H491 H 0.16391 0.96416 0.18865 0.0
H492 H 0.13578 0.97144 0.15895 0.0
H493 H 0.12887 0.03617 0.2861 0.0
H494 H 0.14442 0.07535 0.27712 0.0
H495 H 0.17066 0.045 0.28046 0.0
C496 C 0.86698 0.43526 0.21399 0.0
C497 C 0.87287 0.44089 0.18264 0.0
C498 C 0.86641 0.45974 0.23498 0.0
C499 C 0.87192 0.49068 0.22445 0.0
C500 C 0.87841 0.49658 0.19296 0.0
C501 C 0.87877 0.47159 0.1724 0.0
C502 C 0.85938 0.45249 0.26837 0.0
C503 C 0.8845 0.52929 0.18094 0.0
C504 C 0.83903 0.55331 0.27281 0.0
C505 C 0.86613 0.56551 0.28895 0.0
C506 C 0.84065 0.52911 0.25159 0.0
C507 C 0.87009 0.51681 0.24636 0.0
C508 C 0.89753 0.52899 0.26256 0.0
C509 C 0.89522 0.55317 0.28369 0.0
C510 C 0.81083 0.51664 0.23484 0.0
C511 C 0.92933 0.51644 0.25761 0.0
H512 H 0.86238 0.41163 0.22217 0.0
H513 H 0.88337 0.47616 0.14826 0.0
H514 H 0.87891 0.46318 0.28304 0.0
H515 H 0.83728 0.46259 0.27537 0.0
H516 H 0.85639 0.42715 0.27297 0.0
H517 H 0.89018 0.52994 0.15602 0.0
H518 H 0.86323 0.54201 0.18481 0.0
H519 H 0.90455 0.54186 0.19362 0.0
H520 H 0.81646 0.56271 0.27668 0.0
H521 H 0.91631 0.56249 0.29598 0.0
H522 H 0.80541 0.49161 0.24 0.0
H523 H 0.81449 0.5188 0.20967 0.0
H524 H 0.78988 0.52898 0.24126 0.0
H525 H 0.92763 0.49142 0.26351 0.0
H526 H 0.9485 0.52876 0.27168 0.0
H527 H 0.93616 0.51854 0.23304 0.0
C528 C 0.2701 0.13148 0.93497 0.0
C529 C 0.30231 0.12707 0.93945 0.0
C530 C 0.24969 0.13454 0.95997 0.0
C531 C 0.26171 0.13302 0.99021 0.0
C532 C 0.29381 0.1272 0.99493 0.0
C533 C 0.31377 0.12437 0.96947 0.0
C534 C 0.21564 0.1408 0.95398 0.0
C535 C 0.30741 0.12521 0.02687 0.0
C536 C 0.22231 0.17774 0.05207 0.0
C537 C 0.20309 0.1542 0.06703 0.0
C538 C 0.24139 0.17109 0.02703 0.0
C539 C 0.24143 0.14009 0.01675 0.0
C540 C 0.222 0.11619 0.03163 0.0
C541 C 0.20294 0.12355 0.05656 0.0
C542 C 0.26158 0.19729 0.01161 0.0
C543 C 0.22155 0.08286 0.02136 0.0
H544 H 0.26096 0.13349 0.91186 0.0
H545 H 0.33856 0.1208 0.97315 0.0
H546 H 0.1991 0.12431 0.9671 0.0
H547 H 0.21182 0.1645 0.96195 0.0
H548 H 0.20934 0.13891 0.92923 0.0
H549 H 0.33191 0.11782 0.02667 0.0
H550 H 0.30804 0.14821 0.03819 0.0
H551 H 0.29204 0.10862 0.04105 0.0
H552 H 0.22252 0.2015 0.05995 0.0
H553 H 0.18826 0.10521 0.0681 0.0
H554 H 0.2552 0.19841 0.98694 0.0
H555 H 0.28705 0.19303 0.01286 0.0
H556 H 0.25865 0.22014 0.02229 0.0
H557 H 0.21416 0.08073 0.99694 0.0
H558 H 0.20514 0.067 0.03536 0.0
H559 H 0.24584 0.07516 0.02295 0.0
C560 C 0.76528 0.38427 0.07393 0.0
C561 C 0.79409 0.37054 0.07467 0.0
C562 C 0.746 0.38243 0.0476 0.0
C563 C 0.75586 0.36667 0.0213 0.0
C564 C 0.78542 0.3537 0.02153 0.0
C565 C 0.80414 0.3557 0.04824 0.0
C566 C 0.71459 0.39648 0.04828 0.0
C567 C 0.79687 0.33694 0.99383 0.0
C568 C 0.69278 0.33137 0.96621 0.0
C569 C 0.69449 0.35314 0.94229 0.0
C570 C 0.71242 0.33568 0.99215 0.0
C571 C 0.73449 0.36231 0.99415 0.0
C572 C 0.73625 0.38448 0.97017 0.0
C573 C 0.71614 0.37969 0.94456 0.0
C574 C 0.70966 0.31161 0.01737 0.0
C575 C 0.75962 0.41306 0.97141 0.0
H576 H 0.75732 0.3958 0.09422 0.0
H577 H 0.82643 0.34515 0.04854 0.0
H578 H 0.71295 0.41254 0.02861 0.0
H579 H 0.69478 0.37789 0.04592 0.0
H580 H 0.71116 0.40938 0.0699 0.0
H581 H 0.82129 0.32988 0.99703 0.0
H582 H 0.78052 0.31586 0.98924 0.0
H583 H 0.79667 0.35193 0.97319 0.0
H584 H 0.67607 0.31084 0.9647 0.0
H585 H 0.71769 0.39658 0.92612 0.0
H586 H 0.70416 0.3226 0.03952 0.0
H587 H 0.73267 0.30151 0.02024 0.0
H588 H 0.69086 0.29252 0.01257 0.0
H589 H 0.7555 0.42668 0.99237 0.0
H590 H 0.75781 0.42822 0.95103 0.0
H591 H 0.78426 0.4062 0.9728 0.0
C592 C 0.30682 0.85675 0.53958 0.0
C593 C 0.29035 0.85572 0.56759 0.0
C594 C 0.29037 0.85657 0.5115 0.0
C595 C 0.25672 0.85544 0.51151 0.0
C596 C 0.2401 0.8555 0.53972 0.0
C597 C 0.2571 0.85558 0.56738 0.0
C598 C 0.30889 0.85651 0.48184 0.0
C599 C 0.20425 0.85443 0.54072 0.0
C600 C 0.2116 0.87437 0.4393 0.0
C601 C 0.20154 0.84462 0.42825 0.0
C602 C 0.23007 0.87834 0.46613 0.0
C603 C 0.23862 0.85195 0.48222 0.0
C604 C 0.22877 0.8219 0.471 0.0
C605 C 0.21036 0.81862 0.4442 0.0
C606 C 0.24013 0.91073 0.47745 0.0
C607 C 0.23735 0.79316 0.48753 0.0
H608 H 0.33251 0.85692 0.53955 0.0
H609 H 0.24417 0.85504 0.58891 0.0
H610 H 0.30306 0.83416 0.46973 0.0
H611 H 0.30206 0.87518 0.46642 0.0
H612 H 0.335 0.85975 0.4857 0.0
H613 H 0.1951 0.85669 0.56446 0.0
H614 H 0.19593 0.8733 0.52645 0.0
H615 H 0.19365 0.83214 0.53098 0.0
H616 H 0.20498 0.89459 0.42706 0.0
H617 H 0.2028 0.79554 0.43582 0.0
H618 H 0.26638 0.91406 0.47993 0.0
H619 H 0.22978 0.91413 0.50049 0.0
H620 H 0.23249 0.92883 0.46173 0.0
H621 H 0.26355 0.79379 0.4901 0.0
H622 H 0.22864 0.77151 0.47528 0.0
H623 H 0.22699 0.79238 0.51097 0.0
C624 C 0.68764 0.64072 0.53996 0.0
C625 C 0.70269 0.63234 0.56704 0.0
C626 C 0.70401 0.64248 0.51184 0.0
C627 C 0.73613 0.63558 0.51078 0.0
C628 C 0.75108 0.62607 0.53782 0.0
C629 C 0.73421 0.62461 0.56562 0.0
C630 C 0.68728 0.65272 0.48346 0.0
C631 C 0.78524 0.61836 0.53761 0.0
C632 C 0.77411 0.62002 0.43378 0.0
C633 C 0.79114 0.64875 0.42758 0.0
C634 C 0.75593 0.61538 0.4607 0.0
C635 C 0.75473 0.64007 0.48185 0.0
C636 C 0.7718 0.66912 0.47568 0.0
C637 C 0.7898 0.67308 0.44866 0.0
C638 C 0.73811 0.58407 0.46658 0.0
C639 C 0.77111 0.69603 0.49767 0.0
H640 H 0.66329 0.6467 0.54085 0.0
H641 H 0.74598 0.61793 0.58638 0.0
H642 H 0.69898 0.67527 0.47539 0.0
H643 H 0.68912 0.63572 0.46464 0.0
H644 H 0.66173 0.65537 0.48772 0.0
H645 H 0.79273 0.60945 0.56014 0.0
H646 H 0.78867 0.60071 0.51975 0.0
H647 H 0.80114 0.6394 0.53177 0.0
H648 H 0.77497 0.6011 0.41761 0.0
H649 H 0.80281 0.69538 0.44406 0.0
H650 H 0.71234 0.58655 0.4693 0.0
H651 H 0.74646 0.57423 0.48834 0.0
H652 H 0.74125 0.56736 0.44771 0.0
H653 H 0.74623 0.70152 0.50125 0.0
H654 H 0.78535 0.71722 0.48928 0.0
H655 H 0.78055 0.68969 0.52037 0.0
C656 C 0.92979 0.26298 0.10002 0.0
C657 C 0.92941 0.28902 0.11916 0.0
C658 C 0.95675 0.24638 0.0982 0.0
C659 C 0.98391 0.25595 0.11608 0.0
C660 C 0.98387 0.28248 0.13507 0.0
C661 C 0.95666 0.29875 0.13631 0.0
C662 C 0.956 0.21834 0.07751 0.0
C663 C 0.01237 0.29337 0.15453 0.0
C664 C 0.04209 0.19753 0.13709 0.0
C665 C 0.06743 0.20576 0.11695 0.0
C666 C 0.01453 0.21333 0.13668 0.0
C667 C 0.01218 0.23785 0.11553 0.0
C668 C 0.03728 0.24572 0.09458 0.0
C669 C 0.06463 0.22962 0.09559 0.0
C670 C 0.98826 0.20428 0.15939 0.0
C671 C 0.03555 0.27158 0.07155 0.0
H672 H 0.90888 0.25534 0.0866 0.0
H673 H 0.95659 0.31881 0.15118 0.0
H674 H 0.97622 0.22096 0.06115 0.0
H675 H 0.95873 0.1973 0.09143 0.0
H676 H 0.93349 0.21463 0.06423 0.0
H677 H 0.00877 0.31481 0.16758 0.0
H678 H 0.01734 0.27495 0.17109 0.0
H679 H 0.03376 0.29792 0.13984 0.0
H680 H 0.04402 0.17913 0.15367 0.0
H681 H 0.08402 0.23608 0.07986 0.0
H682 H 0.96542 0.19861 0.14712 0.0
H683 H 0.98504 0.22409 0.17488 0.0
H684 H 0.99328 0.18401 0.17361 0.0
H685 H 0.01357 0.26752 0.05758 0.0
H686 H 0.05639 0.27381 0.05586 0.0
H687 H 0.03439 0.29392 0.08377 0.0
C688 C 0.9369 0.69833 0.36298 0.0
C689 C 0.92416 0.69526 0.33324 0.0
C690 C 0.96617 0.7157 0.36833 0.0
C691 C 0.98306 0.73021 0.34335 0.0
C692 C 0.97032 0.72718 0.31331 0.0
C693 C 0.94102 0.70978 0.30863 0.0
C694 C 0.97905 0.71847 0.40067 0.0
C695 C 0.98771 0.74221 0.28605 0.0
C696 C 0.04633 0.79748 0.35488 0.0
C697 C 0.07434 0.78283 0.35118 0.0
C698 C 0.01637 0.78045 0.3535 0.0
C699 C 0.01445 0.74805 0.34827 0.0
C700 C 0.04265 0.73299 0.34569 0.0
C701 C 0.07224 0.75055 0.3472 0.0
C702 C 0.98678 0.79727 0.3565 0.0
C703 C 0.04158 0.69847 0.34015 0.0
H704 H 0.92395 0.68725 0.38213 0.0
H705 H 0.93137 0.70754 0.28559 0.0
H706 H 0.0024 0.70871 0.40188 0.0
H707 H 0.98305 0.74325 0.40732 0.0
H708 H 0.96273 0.7062 0.41764 0.0
H709 H 0.97438 0.73789 0.26423 0.0
H710 H 0.99187 0.76763 0.28965 0.0
H711 H 0.01136 0.73323 0.28364 0.0
H712 H 0.04774 0.82239 0.35808 0.0
H713 H 0.09374 0.73897 0.34449 0.0
H714 H 0.97065 0.78589 0.3741 0.0
H715 H 0.97366 0.79615 0.33438 0.0
H716 H 0.99231 0.82203 0.36287 0.0
H717 H 0.02643 0.68568 0.35766 0.0
H718 H 0.06561 0.68999 0.34076 0.0
H719 H 0.03076 0.69278 0.31738 0.0
C720 C 0.56538 0.72989 0.59795 0.0
C721 C 0.56693 0.70497 0.61832 0.0
C722 C 0.53844 0.74657 0.5968 0.0
C723 C 0.51248 0.73827 0.61666 0.0
C724 C 0.51377 0.71297 0.6371 0.0
C725 C 0.54092 0.69656 0.63761 0.0
C726 C 0.53786 0.77324 0.57453 0.0
C727 C 0.48662 0.70351 0.65873 0.0
C728 C 0.45604 0.79894 0.63585 0.0
C729 C 0.42975 0.78971 0.61719 0.0
C730 C 0.48318 0.78249 0.63578 0.0
C731 C 0.48416 0.75634 0.61641 0.0
C732 C 0.45794 0.74723 0.59713 0.0
C733 C 0.43101 0.76396 0.59783 0.0
C734 C 0.51062 0.79284 0.65679 0.0
C735 C 0.45821 0.71964 0.57595 0.0
H736 H 0.58531 0.7365 0.58289 0.0
H737 H 0.54194 0.67739 0.65347 0.0
H738 H 0.51678 0.76949 0.55929 0.0
H739 H 0.53571 0.79511 0.58731 0.0
H740 H 0.5596 0.7762 0.56006 0.0
H741 H 0.49117 0.68309 0.67296 0.0
H742 H 0.4826 0.72309 0.67424 0.0
H743 H 0.46436 0.69787 0.64553 0.0
H744 H 0.45526 0.81875 0.65095 0.0
H745 H 0.41085 0.75671 0.58326 0.0
H746 H 0.53271 0.79788 0.64319 0.0
H747 H 0.51482 0.77394 0.67307 0.0
H748 H 0.50628 0.81386 0.67019 0.0
H749 H 0.47909 0.72271 0.56041 0.0
H750 H 0.43629 0.71611 0.56177 0.0
H751 H 0.46049 0.69833 0.58959 0.0
C752 C 0.84562 0.05609 0.71203 0.0
C753 C 0.87027 0.08015 0.7111 0.0
C754 C 0.84712 0.03072 0.73185 0.0
C755 C 0.87395 0.02934 0.75114 0.0
C756 C 0.89916 0.05326 0.74996 0.0
C757 C 0.89701 0.0784 0.72996 0.0
C758 C 0.81976 0.00562 0.73247 0.0
C759 C 0.92819 0.0525 0.77011 0.0
C760 C 0.86157 0.97924 0.82246 0.0
C761 C 0.87341 0.9516 0.81291 0.0
C762 C 0.86229 0.00499 0.80282 0.0
C763 C 0.87524 0.00308 0.77296 0.0
C764 C 0.88819 0.97563 0.76354 0.0
C765 C 0.8871 0.95021 0.78362 0.0
C766 C 0.84831 0.03392 0.81369 0.0
C767 C 0.90237 0.97281 0.73194 0.0
H768 H 0.82487 0.05724 0.69756 0.0
H769 H 0.9162 0.09686 0.72937 0.0
H770 H 0.82849 0.98278 0.72745 0.0
H771 H 0.809 0.00415 0.75573 0.0
H772 H 0.80092 0.00984 0.71557 0.0
H773 H 0.94616 0.07245 0.76575 0.0
H774 H 0.92112 0.05286 0.79464 0.0
H775 H 0.93945 0.0307 0.76623 0.0
H776 H 0.851 0.98056 0.84505 0.0
H777 H 0.89642 0.92899 0.77607 0.0
H778 H 0.82748 0.03816 0.79926 0.0
H779 H 0.86601 0.05437 0.81118 0.0
H780 H 0.84054 0.03221 0.83806 0.0
H781 H 0.88365 0.97438 0.71427 0.0
H782 H 0.91309 0.95056 0.72879 0.0
H783 H 0.92094 0.99221 0.72776 0.0
C784 C 0.11386 0.54632 0.79115 0.0
C785 C 0.14051 0.55207 0.81029 0.0
C786 C 0.11054 0.52014 0.77197 0.0
C787 C 0.13437 0.49921 0.77206 0.0
C788 C 0.16087 0.50447 0.79192 0.0
C789 C 0.16364 0.53084 0.81074 0.0
C790 C 0.08195 0.51526 0.75108 0.0
C791 C 0.18667 0.48255 0.79284 0.0
C792 C 0.11774 0.41743 0.74092 0.0
C793 C 0.13278 0.41995 0.71216 0.0
C794 C 0.11732 0.44323 0.76035 0.0
C795 C 0.13225 0.47225 0.75078 0.0
C796 C 0.14669 0.47516 0.72144 0.0
C797 C 0.1468 0.44896 0.70249 0.0
C798 C 0.10168 0.43924 0.79148 0.0
C799 C 0.16277 0.50577 0.7104 0.0
H800 H 0.09589 0.56262 0.79065 0.0
H801 H 0.18423 0.53501 0.82556 0.0
H802 H 0.08981 0.5163 0.72676 0.0
H803 H 0.06939 0.49191 0.75491 0.0
H804 H 0.06487 0.53293 0.75472 0.0
H805 H 0.20512 0.48934 0.81039 0.0
H806 H 0.17618 0.45864 0.79789 0.0
H807 H 0.19837 0.48201 0.77006 0.0
H808 H 0.10677 0.39512 0.74856 0.0
H809 H 0.15837 0.45115 0.68027 0.0
H810 H 0.08403 0.45641 0.79456 0.0
H811 H 0.11986 0.4436 0.80977 0.0
H812 H 0.0895 0.4156 0.79473 0.0
H813 H 0.14609 0.52404 0.71185 0.0
H814 H 0.17137 0.50453 0.68636 0.0
H815 H 0.18337 0.51303 0.72542 0.0
C816 C 0.71872 0.82343 0.03698 0.0
C817 C 0.70854 0.84876 0.05307 0.0
C818 C 0.73638 0.82772 0.0098 0.0
C819 C 0.74431 0.85811 0.99853 0.0
C820 C 0.73435 0.88383 0.01475 0.0
C821 C 0.71644 0.87884 0.04179 0.0
C822 C 0.74634 0.79967 0.99302 0.0
C823 C 0.7426 0.91658 0.00352 0.0
C824 C 0.81316 0.86678 0.94214 0.0
C825 C 0.79714 0.86588 0.91388 0.0
C826 C 0.79628 0.86535 0.96996 0.0
C827 C 0.7626 0.86272 0.96946 0.0
C828 C 0.74633 0.86263 0.94103 0.0
C829 C 0.7638 0.86432 0.91359 0.0
C830 C 0.81445 0.86579 -0.00014 0.0
C831 C 0.71042 0.85967 0.93956 0.0
H832 H 0.71266 0.8001 0.04548 0.0
H833 H 0.70878 0.89854 0.05417 0.0
H834 H 0.73637 0.79886 0.96942 0.0
H835 H 0.77263 0.80132 0.99084 0.0
H836 H 0.73829 0.77761 0.00488 0.0
H837 H 0.73361 0.93409 0.01911 0.0
H838 H 0.76879 0.9214 0.00142 0.0
H839 H 0.73236 0.91941 0.98033 0.0
H840 H 0.83893 0.86814 0.94256 0.0
H841 H 0.75121 0.86364 0.89187 0.0
H842 H 0.80947 0.8432 0.01174 0.0
H843 H 0.80653 0.88393 0.01531 0.0
H844 H 0.84055 0.87019 0.99638 0.0
H845 H 0.70091 0.8369 0.94908 0.0
H846 H 0.70144 0.86159 0.91572 0.0
H847 H 0.70084 0.87787 0.95381 0.0
C848 C 0.18497 0.63461 0.95058 0.0
C849 C 0.20226 0.63847 0.92311 0.0
C850 C 0.20059 0.63513 0.97909 0.0
C851 C 0.23423 0.63958 0.98008 0.0
C852 C 0.2518 0.64263 0.9524 0.0
C853 C 0.23561 0.64206 0.92428 0.0
C854 C 0.18109 0.63177 0.00817 0.0
C855 C 0.28772 0.64735 0.95251 0.0
C856 C 0.27515 0.67557 0.05074 0.0
C857 C 0.28617 0.64969 0.06521 0.0
C858 C 0.25772 0.67247 0.02333 0.0
C859 C 0.25114 0.64275 0.01002 0.0
C860 C 0.26178 0.61644 0.02468 0.0
C861 C 0.27919 0.62022 0.05214 0.0
C862 C 0.24676 0.7011 0.00836 0.0
C863 C 0.25519 0.5844 0.01112 0.0
H864 H 0.1592 0.63177 0.94987 0.0
H865 H 0.24918 0.6449 0.90317 0.0
H866 H 0.18914 0.61294 0.02265 0.0
H867 H 0.18457 0.65352 0.02172 0.0
H868 H 0.15527 0.62664 0.00342 0.0
H869 H 0.29788 0.64774 0.92896 0.0
H870 H 0.29568 0.6696 0.96399 0.0
H871 H 0.29763 0.6286 0.96576 0.0
H872 H 0.28032 0.69842 0.06071 0.0
H873 H 0.28754 0.60009 0.06322 0.0
H874 H 0.22061 0.69821 0.00493 0.0
H875 H 0.25788 0.70446 0.98537 0.0
H876 H 0.25291 0.72236 0.02221 0.0
H877 H 0.22925 0.57894 0.00754 0.0
H878 H 0.26402 0.56619 0.02598 0.0
H879 H 0.26677 0.58352 0.9883 0.0
C880 C 0.73419 0.12344 0.42624 0.0
C881 C 0.7014 0.12638 0.42491 0.0
C882 C 0.75087 0.1269 0.45409 0.0
C883 C 0.73436 0.13336 0.48128 0.0
C884 C 0.70109 0.13537 0.48029 0.0
C885 C 0.685 0.13188 0.4521 0.0
C886 C 0.78635 0.12459 0.45422 0.0
C887 C 0.68265 0.14209 0.50886 0.0
C888 C 0.77471 0.12153 0.55789 0.0
C889 C 0.78705 0.15188 0.56513 0.0
C890 C 0.75729 0.11514 0.53078 0.0
C891 C 0.75221 0.13966 0.5104 0.0
C892 C 0.76455 0.17032 0.5176 0.0
C893 C 0.78177 0.17606 0.54488 0.0
C894 C 0.7444 0.08216 0.52388 0.0
C895 C 0.75972 0.19708 0.49639 0.0
H896 H 0.74705 0.11911 0.40538 0.0
H897 H 0.65965 0.13411 0.4513 0.0
H898 H 0.7989 0.14729 0.46079 0.0
H899 H 0.79257 0.10737 0.47154 0.0
H900 H 0.79534 0.1178 0.43145 0.0
H901 H 0.65663 0.14101 0.50457 0.0
H902 H 0.6871 0.12528 0.52723 0.0
H903 H 0.69084 0.16556 0.51758 0.0
H904 H 0.77861 0.10271 0.57344 0.0
H905 H 0.79122 0.19957 0.55026 0.0
H906 H 0.75447 0.07449 0.50193 0.0
H907 H 0.71819 0.08081 0.52101 0.0
H908 H 0.75004 0.0658 0.5423 0.0
H909 H 0.7702 0.19297 0.47355 0.0
H910 H 0.77069 0.21958 0.50543 0.0
H911 H 0.73392 0.19887 0.49288 0.0
C912 C 0.21835 0.3721 0.55257 0.0
C913 C 0.21816 0.34477 0.56991 0.0
C914 C 0.23573 0.37572 0.5251 0.0
C915 C 0.25322 0.3514 0.51474 0.0
C916 C 0.25369 0.32407 0.53248 0.0
C917 C 0.23619 0.32111 0.55986 0.0
C918 C 0.2348 0.40525 0.50682 0.0
C919 C 0.27202 0.2976 0.52216 0.0
C920 C 0.26906 0.34312 0.42961 0.0
C921 C 0.30132 0.35411 0.42743 0.0
C922 C 0.25303 0.34267 0.4578 0.0
C923 C 0.26958 0.35365 0.48449 0.0
C924 C 0.30193 0.36547 0.48239 0.0
C925 C 0.31747 0.36547 0.45386 0.0
C926 C 0.21854 0.32976 0.45913 0.0
C927 C 0.32025 0.37755 0.51036 0.0
H928 H 0.20461 0.39056 0.56025 0.0
H929 H 0.2363 0.29996 0.57316 0.0
H930 H 0.25934 0.41559 0.50196 0.0
H931 H 0.22308 0.39999 0.48437 0.0
H932 H 0.22172 0.4227 0.51897 0.0
H933 H 0.27111 0.27852 0.53928 0.0
H934 H 0.26211 0.28808 0.50014 0.0
H935 H 0.29728 0.306 0.51798 0.0
H936 H 0.25636 0.33431 0.40932 0.0
H937 H 0.34236 0.37412 0.45234 0.0
H938 H 0.20387 0.34711 0.46926 0.0
H939 H 0.21604 0.309 0.47419 0.0
H940 H 0.20883 0.32309 0.43611 0.0
H941 H 0.30758 0.39566 0.52187 0.0
H942 H 0.34474 0.38751 0.50457 0.0
H943 H 0.32186 0.35848 0.52713 0.0
C944 C 0.06893 0.73193 0.89377 0.0
C945 C 0.06685 0.70423 0.87687 0.0
C946 C 0.04349 0.75059 0.8946 0.0
C947 C 0.01525 0.74127 0.87821 0.0
C948 C 0.01271 0.71301 0.86167 0.0
C949 C 0.03855 0.69484 0.86116 0.0
C950 C 0.04708 0.78059 0.91249 0.0
C951 C 0.9829 0.70222 0.84403 0.0
C952 C 0.93888 0.77659 0.89852 0.0
C953 C 0.93716 0.79863 0.87509 0.0
C954 C 0.96431 0.75794 0.90001 0.0
C955 C 0.98866 0.76151 0.8776 0.0
C956 C 0.98736 0.78407 0.85421 0.0
C957 C 0.96161 0.80231 0.8532 0.0
C958 C 0.96487 0.7341 0.92527 0.0
C959 C 0.01299 0.78866 0.83 0.0
H960 H 0.09069 0.73938 0.90599 0.0
H961 H 0.03669 0.67345 0.84809 0.0
H962 H 0.04537 0.80044 0.89666 0.0
H963 H 0.02752 0.78106 0.92944 0.0
H964 H 0.07016 0.78399 0.92486 0.0
H965 H 0.98428 0.67913 0.83327 0.0
H966 H 0.96196 0.70093 0.85953 0.0
H967 H 0.97877 0.71921 0.82572 0.0
H968 H 0.92009 0.77355 0.91552 0.0
H969 H 0.96053 0.81932 0.83506 0.0
H970 H 0.98732 0.73799 0.93854 0.0
H971 H 0.96414 0.71054 0.91514 0.0
H972 H 0.94451 0.73475 0.94135 0.0
H973 H 0.03657 0.79394 0.84103 0.0
H974 H 0.0089 0.80775 0.81385 0.0
H975 H 0.014 0.76698 0.81662 0.0
C976 C 0.04942 0.30305 0.62488 0.0
C977 C 0.07608 0.28692 0.63075 0.0
C978 C 0.01857 0.28786 0.62594 0.0
C979 C 0.01434 0.25594 0.63347 0.0
C980 C 0.04121 0.2393 0.63824 0.0
C981 C 0.07178 0.25496 0.63661 0.0
C982 C 0.99047 0.30624 0.62021 0.0
C983 C 0.03767 0.2053 0.6466 0.0
C984 C 0.93831 0.22583 0.67417 0.0
C985 C 0.92148 0.20924 0.65074 0.0
C986 C 0.96844 0.24128 0.66872 0.0
C987 C 0.9819 0.24052 0.63898 0.0
C988 C 0.9648 0.22434 0.61504 0.0
C989 C 0.93484 0.20866 0.62127 0.0
C990 C 0.98612 0.25796 0.69496 0.0
C991 C 0.97824 0.22343 0.58296 0.0
H992 H 0.0526 0.3277 0.62008 0.0
H993 H 0.09225 0.24231 0.64116 0.0
H994 H 0.97395 0.29405 0.60341 0.0
H995 H 0.97706 0.30837 0.6419 0.0
H996 H 0.99784 0.32991 0.61144 0.0
H997 H 0.06093 0.19527 0.6475 0.0
H998 H 0.02608 0.20223 0.66941 0.0
H999 H 0.02215 0.19196 0.62975 0.0
H1000 H 0.92819 0.22628 0.69703 0.0
H1001 H 0.92183 0.19604 0.60302 0.0
H1002 H 0.99189 0.28277 0.68909 0.0
H1003 H 0.00898 0.24787 0.69896 0.0
H1004 H 0.97222 0.25649 0.71666 0.0
H1005 H 0.98443 0.24737 0.5744 0.0
H1006 H 0.96131 0.21103 0.5666 0.0
H1007 H 0.0005 0.21171 0.58321 0.0
C1008 C 0.5644 0.21951 0.40198 0.0
C1009 C 0.56466 0.19538 0.38049 0.0
C1010 C 0.5391 0.23831 0.40315 0.0
C1011 C 0.51349 0.23293 0.38226 0.0
C1012 C 0.51329 0.20824 0.36091 0.0
C1013 C 0.53885 0.18972 0.36034 0.0
C1014 C 0.54003 0.26428 0.42638 0.0
C1015 C 0.4864 0.20181 0.33825 0.0
C1016 C 0.43452 0.26497 0.39875 0.0
C1017 C 0.4363 0.29136 0.37991 0.0
C1018 C 0.4597 0.24604 0.40019 0.0
C1019 C 0.48725 0.25356 0.38218 0.0
C1020 C 0.48944 0.28045 0.36351 0.0
C1021 C 0.46399 0.2991 0.36268 0.0
C1022 C 0.45662 0.21771 0.42058 0.0
C1023 C 0.51841 0.28918 0.3439 0.0
H1024 H 0.5842 0.22402 0.41771 0.0
H1025 H 0.53885 0.17115 0.34365 0.0
H1026 H 0.54076 0.28691 0.41434 0.0
H1027 H 0.51812 0.26199 0.44059 0.0
H1028 H 0.561 0.2646 0.44183 0.0
H1029 H 0.48943 0.18124 0.32366 0.0
H1030 H 0.4634 0.19789 0.3506 0.0
H1031 H 0.48493 0.22223 0.32311 0.0
H1032 H 0.41327 0.25888 0.41224 0.0
H1033 H 0.46554 0.31941 0.34801 0.0
H1034 H 0.477 0.21839 0.43674 0.0
H1035 H 0.45724 0.1965 0.4064 0.0
H1036 H 0.43419 0.21578 0.43408 0.0
H1037 H 0.54009 0.29165 0.35843 0.0
H1038 H 0.51672 0.31122 0.33121 0.0
H1039 H 0.52145 0.27048 0.32703 0.0
C1040 C 0.67744 0.55748 0.71469 0.0
C1041 C 0.65128 0.56689 0.69846 0.0
C1042 C 0.67511 0.52975 0.73148 0.0
C1043 C 0.64584 0.51097 0.73227 0.0
C1044 C 0.61924 0.52035 0.71612 0.0
C1045 C 0.6223 0.54818 0.69929 0.0
C1046 C 0.7041 0.52046 0.74822 0.0
C1047 C 0.58759 0.50098 0.7166 0.0
C1048 C 0.65102 0.42631 0.75232 0.0
C1049 C 0.64422 0.42592 0.78387 0.0
C1050 C 0.65082 0.45366 0.73508 0.0
C1051 C 0.64345 0.48129 0.74969 0.0
C1052 C 0.6357 0.48089 0.78134 0.0
C1053 C 0.63628 0.45322 0.79809 0.0
C1054 C 0.6594 0.45319 0.70142 0.0
C1055 C 0.62752 0.50985 0.79767 0.0
H1056 H 0.69996 0.57173 0.71416 0.0
H1057 H 0.60195 0.55534 0.6869 0.0
H1058 H 0.6989 0.51774 0.7731 0.0
H1059 H 0.71038 0.4977 0.73961 0.0
H1060 H 0.72508 0.53772 0.74536 0.0
H1061 H 0.56907 0.51178 0.7033 0.0
H1062 H 0.59025 0.47769 0.70689 0.0
H1063 H 0.57925 0.49755 0.74063 0.0
H1064 H 0.65714 0.40533 0.7411 0.0
H1065 H 0.63081 0.45309 0.82241 0.0
H1066 H 0.68162 0.46845 0.69737 0.0
H1067 H 0.64043 0.4624 0.68743 0.0
H1068 H 0.66299 0.4295 0.69316 0.0
H1069 H 0.6485 0.52732 0.7977 0.0
H1070 H 0.62002 0.50522 0.82182 0.0
H1071 H 0.6081 0.52025 0.78537 0.0
C1072 C 0.35362 0.04215 0.79433 0.0
C1073 C 0.35574 0.07116 0.77975 0.0
C1074 C 0.35358 0.01466 0.77724 0.0
C1075 C 0.35539 0.0162 0.7448 0.0
C1076 C 0.35828 0.04543 0.73 0.0
C1077 C 0.35857 0.07255 0.74766 0.0
C1078 C 0.35079 0.98391 0.79386 0.0
C1079 C 0.36001 0.04802 0.69543 0.0
C1080 C 0.37599 0.94556 0.69964 0.0
C1081 C 0.34572 0.93231 0.69093 0.0
C1082 C 0.37957 0.97283 0.71731 0.0
C1083 C 0.35225 0.98724 0.72623 0.0
C1084 C 0.32169 0.97408 0.71729 0.0
C1085 C 0.3188 0.94675 0.69987 0.0
C1086 C 0.41252 0.98611 0.7266 0.0
C1087 C 0.29199 0.98889 0.72613 0.0
H1088 H 0.35163 0.04089 0.81913 0.0
H1089 H 0.36021 0.09485 0.73618 0.0
H1090 H 0.32791 0.9706 0.78782 0.0
H1091 H 0.37014 0.96988 0.78656 0.0
H1092 H 0.35187 0.98676 0.81921 0.0
H1093 H 0.36383 0.07249 0.68756 0.0
H1094 H 0.3796 0.03521 0.68648 0.0
H1095 H 0.33755 0.03728 0.68517 0.0
H1096 H 0.3969 0.93447 0.69292 0.0
H1097 H 0.29532 0.93673 0.69319 0.0
H1098 H 0.41424 0.98742 0.75201 0.0
H1099 H 0.41725 0.01009 0.71768 0.0
H1100 H 0.43131 0.97203 0.71794 0.0
H1101 H 0.29011 0.99016 0.7515 0.0
H1102 H 0.27002 0.97589 0.71708 0.0
H1103 H 0.29328 0.013 0.71726 0.0
C1104 C 0.41338 0.2404 0.87824 0.0
C1105 C 0.41364 0.20881 0.87116 0.0
C1106 C 0.44131 0.26064 0.87667 0.0
C1107 C 0.47022 0.24895 0.86805 0.0
C1108 C 0.47093 0.21685 0.86228 0.0
C1109 C 0.4426 0.19717 0.86381 0.0
C1110 C 0.43958 0.29474 0.88291 0.0
C1111 C 0.50138 0.20348 0.85333 0.0
C1112 C 0.53337 0.3027 0.82811 0.0
C1113 C 0.55524 0.3099 0.85188 0.0
C1114 C 0.50539 0.28329 0.83326 0.0
C1115 C 0.4992 0.27059 0.86285 0.0
C1116 C 0.5209 0.27813 0.88709 0.0
C1117 C 0.54864 0.29781 0.88134 0.0
C1118 C 0.48266 0.27603 0.80687 0.0
C1119 C 0.51514 0.26491 0.9189 0.0
H1120 H 0.39113 0.24961 0.88399 0.0
H1121 H 0.44304 0.17276 0.8585 0.0
H1122 H 0.45793 0.30324 0.89992 0.0
H1123 H 0.44457 0.30811 0.86143 0.0
H1124 H 0.41587 0.29973 0.89164 0.0
H1125 H 0.49846 0.17774 0.85211 0.0
H1126 H 0.50939 0.21264 0.83055 0.0
H1127 H 0.5205 0.21062 0.87006 0.0
H1128 H 0.53822 0.31204 0.80532 0.0
H1129 H 0.56548 0.3032 0.89982 0.0
H1130 H 0.4586 0.28235 0.81303 0.0
H1131 H 0.48054 0.25075 0.8021 0.0
H1132 H 0.49049 0.28855 0.78552 0.0
H1133 H 0.49171 0.27066 0.92762 0.0
H1134 H 0.53385 0.27378 0.93546 0.0
H1135 H 0.51443 0.23925 0.91806 0.0
C1136 C 0.3498 0.54492 0.20406 0.0
C1137 C 0.36242 0.57414 0.21455 0.0
C1138 C 0.35028 0.5185 0.22267 0.0
C1139 C 0.36357 0.5214 0.25251 0.0
C1140 C 0.37693 0.5507 0.26299 0.0
C1141 C 0.37625 0.5767 0.24386 0.0
C1142 C 0.33595 0.48758 0.21064 0.0
C1143 C 0.39122 0.55472 0.29471 0.0
C1144 C 0.3335 0.46068 0.31102 0.0
C1145 C 0.35814 0.4411 0.31138 0.0
C1146 C 0.33522 0.48713 0.29229 0.0
C1147 C 0.36213 0.49405 0.27327 0.0
C1148 C 0.38729 0.47461 0.27378 0.0
C1149 C 0.38506 0.44841 0.29294 0.0
C1150 C 0.30804 0.50746 0.29261 0.0
C1151 C 0.41628 0.48121 0.25369 0.0
H1152 H 0.33917 0.54271 0.18141 0.0
H1153 H 0.3861 0.59918 0.25216 0.0
H1154 H 0.3535 0.47013 0.21228 0.0
H1155 H 0.31516 0.47911 0.22492 0.0
H1156 H 0.32804 0.48895 0.18638 0.0
H1157 H 0.40189 0.57879 0.29887 0.0
H1158 H 0.37258 0.54887 0.31228 0.0
H1159 H 0.40986 0.53861 0.29801 0.0
H1160 H 0.31268 0.45527 0.32529 0.0
H1161 H 0.40414 0.43331 0.29301 0.0
H1162 H 0.29716 0.50787 0.26943 0.0
H1163 H 0.317 0.53166 0.29841 0.0
H1164 H 0.28925 0.49935 0.30938 0.0
H1165 H 0.4091 0.48057 0.22916 0.0
H1166 H 0.43409 0.46422 0.25728 0.0
H1167 H 0.42777 0.50482 0.2584 0.0
C1168 C 0.61303 0.04169 0.28995 0.0
C1169 C 0.64355 0.05564 0.29677 0.0
C1170 C 0.60895 0.01478 0.27178 0.0
C1171 C 0.63604 0.00133 0.26068 0.0
C1172 C 0.66687 0.01495 0.26812 0.0
C1173 C 0.67024 0.04206 0.28585 0.0
C1174 C 0.57572 0.00109 0.26397 0.0
C1175 C 0.69637 0.00101 0.25717 0.0
C1176 C 0.63067 0.91712 0.23548 0.0
C1177 C 0.63232 0.92007 0.20342 0.0
C1178 C 0.63097 0.94336 0.25443 0.0
C1179 C 0.63245 0.9732 0.24095 0.0
C1180 C 0.63281 0.97623 0.20856 0.0
C1181 C 0.63303 0.94963 0.19018 0.0
C1182 C 0.63103 0.9392 0.28887 0.0
C1183 C 0.6339 0.00764 0.19335 0.0
H1184 H 0.59233 0.0522 0.29821 0.0
H1185 H 0.69389 0.0526 0.29123 0.0
H1186 H 0.57234 0.00112 0.23869 0.0
H1187 H 0.5722 0.9766 0.27168 0.0
H1188 H 0.55716 0.01412 0.27471 0.0
H1189 H 0.71858 0.01383 0.26592 0.0
H1190 H 0.69576 0.9765 0.26475 0.0
H1191 H 0.69715 0.00108 0.23171 0.0
H1192 H 0.63022 0.89435 0.24588 0.0
H1193 H 0.63405 0.95202 0.1654 0.0
H1194 H 0.61177 0.95133 0.29947 0.0
H1195 H 0.65389 0.94974 0.29845 0.0
H1196 H 0.62788 0.91439 0.2957 0.0
H1197 H 0.61472 0.02089 0.20251 0.0
H1198 H 0.6313 0.00586 0.168 0.0
H1199 H 0.6569 0.02117 0.19859 0.0
C1200 C 0.54923 0.79843 0.11648 0.0
C1201 C 0.57674 0.78428 0.12406 0.0
C1202 C 0.51909 0.78178 0.11796 0.0
C1203 C 0.51646 0.75043 0.12762 0.0
C1204 C 0.54424 0.73573 0.13416 0.0
C1205 C 0.57405 0.75278 0.13211 0.0
C1206 C 0.48998 0.79809 0.11036 0.0
C1207 C 0.5424 0.70241 0.14482 0.0
C1208 C 0.44115 0.71944 0.1689 0.0
C1209 C 0.42545 0.70065 0.14633 0.0
C1210 C 0.47067 0.73588 0.16296 0.0
C1211 C 0.48469 0.73379 0.1336 0.0
C1212 C 0.46882 0.7152 0.11054 0.0
C1213 C 0.43942 0.69863 0.11726 0.0
C1214 C 0.48707 0.75516 0.18829 0.0
C1215 C 0.48292 0.71277 0.07887 0.0
H1216 H 0.55116 0.8227 0.11 0.0
H1217 H 0.59519 0.74163 0.13797 0.0
H1218 H 0.4744 0.78396 0.09413 0.0
H1219 H 0.476 0.80097 0.13157 0.0
H1220 H 0.49624 0.82134 0.10009 0.0
H1221 H 0.56627 0.69376 0.14687 0.0
H1222 H 0.53055 0.70033 0.16758 0.0
H1223 H 0.52785 0.6872 0.12867 0.0
H1224 H 0.43054 0.72103 0.19145 0.0
H1225 H 0.42728 0.6843 0.09967 0.0
H1226 H 0.49152 0.77967 0.18082 0.0
H1227 H 0.51052 0.74671 0.19337 0.0
H1228 H 0.47287 0.75441 0.2098 0.0
H1229 H 0.48773 0.73621 0.06866 0.0
H1230 H 0.46701 0.69824 0.06319 0.0
H1231 H 0.50602 0.70259 0.08041 0.0
loop_
_geom_bond_atom_site_label_1
_geom_bond_atom_site_label_2
_geom_bond_distance
_geom_bond_site_symmetry_2
_ccdc_geom_bond_type
C0 O1 1.160 . S
C0 O7 1.185 . S
O1 C0 1.160 . S
O2 Zn3 1.899 . S
O2 C10 1.284 . S
Zn3 O2 1.899 . S
Zn3 O4 2.032 . S
Zn3 O7 2.086 . S
Zn3 O12 1.977 . S
O4 Zn3 2.032 . S
O4 C8 1.278 . S
C5 O6 1.203 . S
C5 O12 1.267 . S
O6 C5 1.203 . S
O7 C0 1.185 . S
O7 Zn3 2.086 . S
C8 O4 1.278 . S
C8 O9 1.211 . S
O9 C8 1.211 . S
C10 O2 1.284 . S
C10 O11 1.273 . S
O11 C10 1.273 . S
O12 Zn3 1.977 . S
O12 C5 1.267 . S
C13 O14 1.160 . S
C13 O20 1.185 . S
O14 C13 1.160 . S
O15 Zn16 1.899 . S
O15 C23 1.284 . S
Zn16 O15 1.899 . S
Zn16 O17 2.032 . S
Zn16 O20 2.086 . S
Zn16 O25 1.977 . S
O17 Zn16 2.032 . S
O17 C21 1.278 . S
C18 O19 1.203 . S
C18 O25 1.267 . S
O19 C18 1.203 . S
O20 C13 1.185 . S
O20 Zn16 2.086 . S
C21 O17 1.278 . S
C21 O22 1.211 . S
O22 C21 1.211 . S
C23 O15 1.284 . S
C23 O24 1.273 . S
O24 C23 1.273 . S
O25 Zn16 1.977 . S
O25 C18 1.267 . S
C26 O27 1.160 . S
C26 O33 1.185 . S
O27 C26 1.160 . S
O28 Zn29 1.899 . S
O28 C36 1.284 . S
Zn29 O28 1.899 . S
Zn29 O30 2.032 . S
Zn29 O33 2.086 . S
Zn29 O38 1.977 . S
O30 Zn29 2.032 . S
O30 C34 1.278 . S
C31 O32 1.203 . S
C31 O38 1.267 . S
O32 C31 1.203 . S
O33 C26 1.185 . S
O33 Zn29 2.086 . S
C34 O30 1.278 . S
C34 O35 1.211 . S
O35 C34 1.211 . S
C36 O28 1.284 . S
C36 O37 1.273 . S
O37 C36 1.273 . S
O38 Zn29 1.977 . S
O38 C31 1.267 . S
C39 O40 1.160 . S
C39 O46 1.185 . S
O40 C39 1.160 . S
O41 Zn42 1.899 . S
O41 C49 1.284 . S
Zn42 O41 1.899 . S
Zn42 O43 2.032 . S
Zn42 O46 2.086 . S
Zn42 O51 1.977 . S
O43 Zn42 2.032 . S
O43 C47 1.278 . S
C44 O45 1.203 . S
C44 O51 1.267 . S
O45 C44 1.203 . S
O46 C39 1.185 . S
O46 Zn42 2.086 . S
C47 O43 1.278 . S
C47 O48 1.211 . S
O48 C47 1.211 . S
C49 O41 1.284 . S
C49 O50 1.273 . S
O50 C49 1.273 . S
O51 Zn42 1.977 . S
O51 C44 1.267 . S
C52 O53 1.160 . S
C52 O59 1.185 . S
O53 C52 1.160 . S
O54 Zn55 1.899 . S
O54 C62 1.284 . S
Zn55 O54 1.899 . S
Zn55 O56 2.032 . S
Zn55 O59 2.086 . S
Zn55 O64 1.977 . S
O56 Zn55 2.032 . S
O56 C60 1.278 . S
C57 O58 1.203 . S
C57 O64 1.267 . S
O58 C57 1.203 . S
O59 C52 1.185 . S
O59 Zn55 2.086 . S
C60 O56 1.278 . S
C60 O61 1.211 . S
O61 C60 1.211 . S
C62 O54 1.284 . S
C62 O63 1.273 . S
O63 C62 1.273 . S
O64 Zn55 1.977 . S
O64 C57 1.267 . S
C65 O66 1.160 . S
C65 O72 1.185 . S
O66 C65 1.160 . S
O67 Zn68 1.899 . S
O67 C75 1.284 . S
Zn68 O67 1.899 . S
Zn68 O69 2.032 . S
Zn68 O72 2.086 . S
Zn68 O77 1.977 . S
O69 Zn68 2.032 . S
O69 C73 1.278 . S
C70 O71 1.203 . S
C70 O77 1.267 . S
O71 C70 1.203 . S
O72 C65 1.185 . S
O72 Zn68 2.086 . S
C73 O69 1.278 . S
C73 O74 1.211 . S
O74 C73 1.211 . S
C75 O67 1.284 . S
C75 O76 1.273 . S
O76 C75 1.273 . S
O77 Zn68 1.977 . S
O77 C70 1.267 . S
C78 O79 1.160 . S
C78 O85 1.185 . S
O79 C78 1.160 . S
O80 Zn81 1.899 . S
O80 C88 1.284 . S
Zn81 O80 1.899 . S
Zn81 O82 2.032 . S
Zn81 O85 2.086 . S
Zn81 O90 1.977 . S
O82 Zn81 2.032 . S
O82 C86 1.278 . S
C83 O84 1.203 . S
C83 O90 1.267 . S
O84 C83 1.203 . S
O85 C78 1.185 . S
O85 Zn81 2.086 . S
C86 O82 1.278 . S
C86 O87 1.211 . S
O87 C86 1.211 . S
C88 O80 1.284 . S
C88 O89 1.273 . S
O89 C88 1.273 . S
O90 Zn81 1.977 . S
O90 C83 1.267 . S
C91 O92 1.160 . S
C91 O98 1.185 . S
O92 C91 1.160 . S
O93 Zn94 1.899 . S
O93 C101 1.284 . S
Zn94 O93 1.899 . S
Zn94 O95 2.032 . S
Zn94 O98 2.086 . S
Zn94 O103 1.977 . S
O95 Zn94 2.032 . S
O95 C99 1.278 . S
C96 O97 1.203 . S
C96 O103 1.267 . S
O97 C96 1.203 . S
O98 C91 1.185 . S
O98 Zn94 2.086 . S
C99 O95 1.278 . S
C99 O100 1.211 . S
O100 C99 1.211 . S
C101 O93 1.284 . S
C101 O102 1.273 . S
O102 C101 1.273 . S
O103 Zn94 1.977 . S
O103 C96 1.267 . S
C104 O105 1.160 . S
C104 O111 1.185 . S
O105 C104 1.160 . S
O106 Zn107 1.899 . S
O106 C114 1.284 . S
Zn107 O106 1.899 . S
Zn107 O108 2.032 . S
Zn107 O111 2.086 . S
Zn107 O116 1.977 . S
O108 Zn107 2.032 . S
O108 C112 1.278 . S
C109 O110 1.203 . S
C109 O116 1.267 . S
O110 C109 1.203 . S
O111 C104 1.185 . S
O111 Zn107 2.086 . S
C112 O108 1.278 . S
C112 O113 1.211 . S
O113 C112 1.211 . S
C114 O106 1.284 . S
C114 O115 1.273 . S
O115 C114 1.273 . S
O116 Zn107 1.977 . S
O116 C109 1.267 . S
C117 O118 1.160 . S
C117 O124 1.185 . S
O118 C117 1.160 . S
O119 Zn120 1.899 . S
O119 C127 1.284 . S
Zn120 O119 1.899 . S
Zn120 O121 2.032 . S
Zn120 O124 2.086 . S
Zn120 O129 1.977 . S
O121 Zn120 2.032 . S
O121 C125 1.278 . S
C122 O123 1.203 . S
C122 O129 1.267 . S
O123 C122 1.203 . S
O124 C117 1.185 . S
O124 Zn120 2.086 . S
C125 O121 1.278 . S
C125 O126 1.211 . S
O126 C125 1.211 . S
C127 O119 1.284 . S
C127 O128 1.273 . S
O128 C127 1.273 . S
O129 Zn120 1.977 . S
O129 C122 1.267 . S
C130 O131 1.160 . S
C130 O137 1.185 . S
O131 C130 1.160 . S
O132 Zn133 1.899 . S
O132 C140 1.284 . S
Zn133 O132 1.899 . S
Zn133 O134 2.032 . S
Zn133 O137 2.086 . S
Zn133 O142 1.977 . S
O134 Zn133 2.032 . S
O134 C138 1.278 . S
C135 O136 1.203 . S
C135 O142 1.267 . S
O136 C135 1.203 . S
O137 C130 1.185 . S
O137 Zn133 2.086 . S
C138 O134 1.278 . S
C138 O139 1.211 . S
O139 C138 1.211 . S
C140 O132 1.284 . S
C140 O141 1.273 . S
O141 C140 1.273 . S
O142 Zn133 1.977 . S
O142 C135 1.267 . S
C143 O144 1.160 . S
C143 O150 1.185 . S
O144 C143 1.160 . S
O145 Zn146 1.899 . S
O145 C153 1.284 . S
Zn146 O145 1.899 . S
Zn146 O147 2.032 . S
Zn146 O150 2.086 . S
Zn146 O155 1.977 . S
O147 Zn146 2.032 . S
O147 C151 1.278 . S
C148 O149 1.203 . S
C148 O155 1.267 . S
O149 C148 1.203 . S
O150 C143 1.185 . S
O150 Zn146 2.086 . S
C151 O147 1.278 . S
C151 O152 1.211 . S
O152 C151 1.211 . S
C153 O145 1.284 . S
C153 O154 1.273 . S
O154 C153 1.273 . S
O155 Zn146 1.977 . S
O155 C148 1.267 . S
C156 O157 1.160 . S
C156 O163 1.185 . S
O157 C156 1.160 . S
O158 Zn159 1.899 . S
O158 C166 1.284 . S
Zn159 O158 1.899 . S
Zn159 O160 2.032 . S
Zn159 O163 2.086 . S
Zn159 O168 1.977 . S
O160 Zn159 2.032 . S
O160 C164 1.278 . S
C161 O162 1.203 . S
C161 O168 1.267 . S
O162 C161 1.203 . S
O163 C156 1.185 . S
O163 Zn159 2.086 . S
C164 O160 1.278 . S
C164 O165 1.211 . S
O165 C164 1.211 . S
C166 O158 1.284 . S
C166 O167 1.273 . S
O167 C166 1.273 . S
O168 Zn159 1.977 . S
O168 C161 1.267 . S
C169 O170 1.160 . S
C169 O176 1.185 . S
O170 C169 1.160 . S
O171 Zn172 1.899 . S
O171 C179 1.284 . S
Zn172 O171 1.899 . S
Zn172 O173 2.032 . S
Zn172 O176 2.086 . S
Zn172 O181 1.977 . S
O173 Zn172 2.032 . S
O173 C177 1.278 . S
C174 O175 1.203 . S
C174 O181 1.267 . S
O175 C174 1.203 . S
O176 C169 1.185 . S
O176 Zn172 2.086 . S
C177 O173 1.278 . S
C177 O178 1.211 . S
O178 C177 1.211 . S
C179 O171 1.284 . S
C179 O180 1.273 . S
O180 C179 1.273 . S
O181 Zn172 1.977 . S
O181 C174 1.267 . S
C182 O183 1.160 . S
C182 O189 1.185 . S
O183 C182 1.160 . S
O184 Zn185 1.899 . S
O184 C192 1.284 . S
Zn185 O184 1.899 . S
Zn185 O186 2.032 . S
Zn185 O189 2.086 . S
Zn185 O194 1.977 . S
O186 Zn185 2.032 . S
O186 C190 1.278 . S
C187 O188 1.203 . S
C187 O194 1.267 . S
O188 C187 1.203 . S
O189 C182 1.185 . S
O189 Zn185 2.086 . S
C190 O186 1.278 . S
C190 O191 1.211 . S
O191 C190 1.211 . S
C192 O184 1.284 . S
C192 O193 1.273 . S
O193 C192 1.273 . S
O194 Zn185 1.977 . S
O194 C187 1.267 . S
C195 O196 1.160 . S
C195 O202 1.185 . S
O196 C195 1.160 . S
O197 Zn198 1.899 . S
O197 C205 1.284 . S
Zn198 O197 1.899 . S
Zn198 O199 2.032 . S
Zn198 O202 2.086 . S
Zn198 O207 1.977 . S
O199 Zn198 2.032 . S
O199 C203 1.278 . S
C200 O201 1.203 . S
C200 O207 1.267 . S
O201 C200 1.203 . S
O202 C195 1.185 . S
O202 Zn198 2.086 . S
C203 O199 1.278 . S
C203 O204 1.211 . S
O204 C203 1.211 . S
C205 O197 1.284 . S
C205 O206 1.273 . S
O206 C205 1.273 . S
O207 Zn198 1.977 . S
O207 C200 1.267 . S
C208 C209 1.391 . S
C208 C210 1.394 . S
C208 H224 0.931 . S
C209 C208 1.391 . S
C209 C213 1.376 . S
C210 C208 1.394 . S
C210 C211 1.369 . S
C210 C214 1.531 . S
C211 C210 1.369 . S
C211 C212 1.410 . S
C211 C219 1.503 . S
C212 C211 1.410 . S
C212 C213 1.392 . S
C212 C215 1.511 . S
C213 C209 1.376 . S
C213 C212 1.392 . S
C213 H225 0.929 . S
C214 C210 1.531 . S
C214 H226 0.960 . S
C214 H227 0.962 . S
C214 H228 0.960 . S
C215 C212 1.511 . S
C215 H229 0.961 . S
C215 H230 0.961 . S
C215 H231 0.961 . S
C216 C217 1.370 . S
C216 C218 1.363 . S
C216 H232 0.931 . S
C217 C216 1.370 . S
C217 C221 1.408 . S
C218 C216 1.363 . S
C218 C219 1.370 . S
C218 C222 1.524 . S
C219 C211 1.503 . S
C219 C218 1.370 . S
C219 C220 1.403 . S
C220 C219 1.403 . S
C220 C221 1.404 . S
C220 C223 1.539 . S
C221 C217 1.408 . S
C221 C220 1.404 . S
C221 H233 0.930 . S
C222 C218 1.524 . S
C222 H234 0.956 . S
C222 H235 0.961 . S
C222 H236 0.961 . S
C223 C220 1.539 . S
C223 H237 0.958 . S
C223 H238 0.961 . S
C223 H239 0.960 . S
H224 C208 0.931 . S
H225 C213 0.929 . S
H226 C214 0.960 . S
H227 C214 0.962 . S
H228 C214 0.960 . S
H229 C215 0.961 . S
H230 C215 0.961 . S
H231 C215 0.961 . S
H232 C216 0.931 . S
H233 C221 0.930 . S
H234 C222 0.956 . S
H235 C222 0.961 . S
H236 C222 0.961 . S
H237 C223 0.958 . S
H238 C223 0.961 . S
H239 C223 0.960 . S
C240 C241 1.391 . S
C240 C242 1.394 . S
C240 H256 0.931 . S
C241 C240 1.391 . S
C241 C245 1.376 . S
C242 C240 1.394 . S
C242 C243 1.369 . S
C242 C246 1.531 . S
C243 C242 1.369 . S
C243 C244 1.410 . S
C243 C251 1.503 . S
C244 C243 1.410 . S
C244 C245 1.392 . S
C244 C247 1.511 . S
C245 C241 1.376 . S
C245 C244 1.392 . S
C245 H257 0.929 . S
C246 C242 1.531 . S
C246 H258 0.960 . S
C246 H259 0.962 . S
C246 H260 0.960 . S
C247 C244 1.511 . S
C247 H261 0.961 . S
C247 H262 0.961 . S
C247 H263 0.961 . S
C248 C249 1.370 . S
C248 C250 1.363 . S
C248 H264 0.931 . S
C249 C248 1.370 . S
C249 C253 1.408 . S
C250 C248 1.363 . S
C250 C251 1.370 . S
C250 C254 1.524 . S
C251 C243 1.503 . S
C251 C250 1.370 . S
C251 C252 1.403 . S
C252 C251 1.403 . S
C252 C253 1.404 . S
C252 C255 1.539 . S
C253 C249 1.408 . S
C253 C252 1.404 . S
C253 H265 0.930 . S
C254 C250 1.524 . S
C254 H266 0.956 . S
C254 H267 0.961 . S
C254 H268 0.961 . S
C255 C252 1.539 . S
C255 H269 0.958 . S
C255 H270 0.961 . S
C255 H271 0.960 . S
H256 C240 0.931 . S
H257 C245 0.929 . S
H258 C246 0.960 . S
H259 C246 0.962 . S
H260 C246 0.960 . S
H261 C247 0.961 . S
H262 C247 0.961 . S
H263 C247 0.961 . S
H264 C248 0.931 . S
H265 C253 0.930 . S
H266 C254 0.956 . S
H267 C254 0.961 . S
H268 C254 0.961 . S
H269 C255 0.958 . S
H270 C255 0.961 . S
H271 C255 0.960 . S
C272 C273 1.391 . S
C272 C274 1.394 . S
C272 H288 0.931 . S
C273 C272 1.391 . S
C273 C277 1.376 . S
C274 C272 1.394 . S
C274 C275 1.369 . S
C274 C278 1.531 . S
C275 C274 1.369 . S
C275 C276 1.410 . S
C275 C283 1.503 . S
C276 C275 1.410 . S
C276 C277 1.392 . S
C276 C279 1.511 . S
C277 C273 1.376 . S
C277 C276 1.392 . S
C277 H289 0.929 . S
C278 C274 1.531 . S
C278 H290 0.960 . S
C278 H291 0.962 . S
C278 H292 0.960 . S
C279 C276 1.511 . S
C279 H293 0.961 . S
C279 H294 0.961 . S
C279 H295 0.961 . S
C280 C281 1.370 . S
C280 C282 1.363 . S
C280 H296 0.931 . S
C281 C280 1.370 . S
C281 C285 1.408 . S
C282 C280 1.363 . S
C282 C283 1.370 . S
C282 C286 1.524 . S
C283 C275 1.503 . S
C283 C282 1.370 . S
C283 C284 1.403 . S
C284 C283 1.403 . S
C284 C285 1.404 . S
C284 C287 1.539 . S
C285 C281 1.408 . S
C285 C284 1.404 . S
C285 H297 0.930 . S
C286 C282 1.524 . S
C286 H298 0.956 . S
C286 H299 0.961 . S
C286 H300 0.961 . S
C287 C284 1.539 . S
C287 H301 0.958 . S
C287 H302 0.961 . S
C287 H303 0.960 . S
H288 C272 0.931 . S
H289 C277 0.929 . S
H290 C278 0.960 . S
H291 C278 0.962 . S
H292 C278 0.960 . S
H293 C279 0.961 . S
H294 C279 0.961 . S
H295 C279 0.961 . S
H296 C280 0.931 . S
H297 C285 0.930 . S
H298 C286 0.956 . S
H299 C286 0.961 . S
H300 C286 0.961 . S
H301 C287 0.958 . S
H302 C287 0.961 . S
H303 C287 0.960 . S
C304 C305 1.391 . S
C304 C306 1.394 . S
C304 H320 0.931 . S
C305 C304 1.391 . S
C305 C309 1.376 . S
C306 C304 1.394 . S
C306 C307 1.369 . S
C306 C310 1.531 . S
C307 C306 1.369 . S
C307 C308 1.410 . S
C307 C315 1.503 . S
C308 C307 1.410 . S
C308 C309 1.392 . S
C308 C311 1.511 . S
C309 C305 1.376 . S
C309 C308 1.392 . S
C309 H321 0.929 . S
C310 C306 1.531 . S
C310 H322 0.960 . S
C310 H323 0.962 . S
C310 H324 0.960 . S
C311 C308 1.511 . S
C311 H325 0.961 . S
C311 H326 0.961 . S
C311 H327 0.961 . S
C312 C313 1.370 . S
C312 C314 1.363 . S
C312 H328 0.931 . S
C313 C312 1.370 . S
C313 C317 1.408 . S
C314 C312 1.363 . S
C314 C315 1.370 . S
C314 C318 1.524 . S
C315 C307 1.503 . S
C315 C314 1.370 . S
C315 C316 1.403 . S
C316 C315 1.403 . S
C316 C317 1.404 . S
C316 C319 1.539 . S
C317 C313 1.408 . S
C317 C316 1.404 . S
C317 H329 0.930 . S
C318 C314 1.524 . S
C318 H330 0.956 . S
C318 H331 0.961 . S
C318 H332 0.961 . S
C319 C316 1.539 . S
C319 H333 0.958 . S
C319 H334 0.961 . S
C319 H335 0.960 . S
H320 C304 0.931 . S
H321 C309 0.929 . S
H322 C310 0.960 . S
H323 C310 0.962 . S
H324 C310 0.960 . S
H325 C311 0.961 . S
H326 C311 0.961 . S
H327 C311 0.961 . S
H328 C312 0.931 . S
H329 C317 0.930 . S
H330 C318 0.956 . S
H331 C318 0.961 . S
H332 C318 0.961 . S
H333 C319 0.958 . S
H334 C319 0.961 . S
H335 C319 0.960 . S
C336 C337 1.391 . S
C336 C338 1.394 . S
C336 H352 0.931 . S
C337 C336 1.391 . S
C337 C341 1.376 . S
C338 C336 1.394 . S
C338 C339 1.369 . S
C338 C342 1.531 . S
C339 C338 1.369 . S
C339 C340 1.410 . S
C339 C347 1.503 . S
C340 C339 1.410 . S
C340 C341 1.392 . S
C340 C343 1.511 . S
C341 C337 1.376 . S
C341 C340 1.392 . S
C341 H353 0.929 . S
C342 C338 1.531 . S
C342 H354 0.960 . S
C342 H355 0.962 . S
C342 H356 0.960 . S
C343 C340 1.511 . S
C343 H357 0.961 . S
C343 H358 0.961 . S
C343 H359 0.961 . S
C344 C345 1.370 . S
C344 C346 1.363 . S
C344 H360 0.931 . S
C345 C344 1.370 . S
C345 C349 1.408 . S
C346 C344 1.363 . S
C346 C347 1.370 . S
C346 C350 1.524 . S
C347 C339 1.503 . S
C347 C346 1.370 . S
C347 C348 1.403 . S
C348 C347 1.403 . S
C348 C349 1.404 . S
C348 C351 1.539 . S
C349 C345 1.408 . S
C349 C348 1.404 . S
C349 H361 0.930 . S
C350 C346 1.524 . S
C350 H362 0.956 . S
C350 H363 0.961 . S
C350 H364 0.961 . S
C351 C348 1.539 . S
C351 H365 0.958 . S
C351 H366 0.961 . S
C351 H367 0.960 . S
H352 C336 0.931 . S
H353 C341 0.929 . S
H354 C342 0.960 . S
H355 C342 0.962 . S
H356 C342 0.960 . S
H357 C343 0.961 . S
H358 C343 0.961 . S
H359 C343 0.961 . S
H360 C344 0.931 . S
H361 C349 0.930 . S
H362 C350 0.956 . S
H363 C350 0.961 . S
H364 C350 0.961 . S
H365 C351 0.958 . S
H366 C351 0.961 . S
H367 C351 0.960 . S
C368 C369 1.391 . S
C368 C370 1.394 . S
C368 H384 0.931 . S
C369 C368 1.391 . S
C369 C373 1.376 . S
C370 C368 1.394 . S
C370 C371 1.369 . S
C370 C374 1.531 . S
C371 C370 1.369 . S
C371 C372 1.410 . S
C371 C379 1.503 . S
C372 C371 1.410 . S
C372 C373 1.392 . S
C372 C375 1.511 . S
C373 C369 1.376 . S
C373 C372 1.392 . S
C373 H385 0.929 . S
C374 C370 1.531 . S
C374 H386 0.960 . S
C374 H387 0.962 . S
C374 H388 0.960 . S
C375 C372 1.511 . S
C375 H389 0.961 . S
C375 H390 0.961 . S
C375 H391 0.961 . S
C376 C377 1.370 . S
C376 C378 1.363 . S
C376 H392 0.931 . S
C377 C376 1.370 . S
C377 C381 1.408 . S
C378 C376 1.363 . S
C378 C379 1.370 . S
C378 C382 1.524 . S
C379 C371 1.503 . S
C379 C378 1.370 . S
C379 C380 1.403 . S
C380 C379 1.403 . S
C380 C381 1.404 . S
C380 C383 1.539 . S
C381 C377 1.408 . S
C381 C380 1.404 . S
C381 H393 0.930 . S
C382 C378 1.524 . S
C382 H394 0.956 . S
C382 H395 0.961 . S
C382 H396 0.961 . S
C383 C380 1.539 . S
C383 H397 0.958 . S
C383 H398 0.961 . S
C383 H399 0.960 . S
H384 C368 0.931 . S
H385 C373 0.929 . S
H386 C374 0.960 . S
H387 C374 0.962 . S
H388 C374 0.960 . S
H389 C375 0.961 . S
H390 C375 0.961 . S
H391 C375 0.961 . S
H392 C376 0.931 . S
H393 C381 0.930 . S
H394 C382 0.956 . S
H395 C382 0.961 . S
H396 C382 0.961 . S
H397 C383 0.958 . S
H398 C383 0.961 . S
H399 C383 0.960 . S
C400 C401 1.391 . S
C400 C402 1.394 . S
C400 H416 0.931 . S
C401 C400 1.391 . S
C401 C405 1.376 . S
C402 C400 1.394 . S
C402 C403 1.369 . S
C402 C406 1.531 . S
C403 C402 1.369 . S
C403 C404 1.410 . S
C403 C411 1.503 . S
C404 C403 1.410 . S
C404 C405 1.392 . S
C404 C407 1.511 . S
C405 C401 1.376 . S
C405 C404 1.392 . S
C405 H417 0.929 . S
C406 C402 1.531 . S
C406 H418 0.960 . S
C406 H419 0.962 . S
C406 H420 0.960 . S
C407 C404 1.511 . S
C407 H421 0.961 . S
C407 H422 0.961 . S
C407 H423 0.961 . S
C408 C409 1.370 . S
C408 C410 1.363 . S
C408 H424 0.931 . S
C409 C408 1.370 . S
C409 C413 1.408 . S
C410 C408 1.363 . S
C410 C411 1.370 . S
C410 C414 1.524 . S
C411 C403 1.503 . S
C411 C410 1.370 . S
C411 C412 1.403 . S
C412 C411 1.403 . S
C412 C413 1.404 . S
C412 C415 1.539 . S
C413 C409 1.408 . S
C413 C412 1.404 . S
C413 H425 0.930 . S
C414 C410 1.524 . S
C414 H426 0.956 . S
C414 H427 0.961 . S
C414 H428 0.961 . S
C415 C412 1.539 . S
C415 H429 0.958 . S
C415 H430 0.961 . S
C415 H431 0.960 . S
H416 C400 0.931 . S
H417 C405 0.929 . S
H418 C406 0.960 . S
H419 C406 0.962 . S
H420 C406 0.960 . S
H421 C407 0.961 . S
H422 C407 0.961 . S
H423 C407 0.961 . S
H424 C408 0.931 . S
H425 C413 0.930 . S
H426 C414 0.956 . S
H427 C414 0.961 . S
H428 C414 0.961 . S
H429 C415 0.958 . S
H430 C415 0.961 . S
H431 C415 0.960 . S
C432 C433 1.391 . S
C432 C434 1.394 . S
C432 H448 0.931 . S
C433 C432 1.391 . S
C433 C437 1.376 . S
C434 C432 1.394 . S
C434 C435 1.369 . S
C434 C438 1.531 . S
C435 C434 1.369 . S
C435 C436 1.410 . S
C435 C443 1.503 . S
C436 C435 1.410 . S
C436 C437 1.392 . S
C436 C439 1.511 . S
C437 C433 1.376 . S
C437 C436 1.392 . S
C437 H449 0.929 . S
C438 C434 1.531 . S
C438 H450 0.960 . S
C438 H451 0.962 . S
C438 H452 0.960 . S
C439 C436 1.511 . S
C439 H453 0.961 . S
C439 H454 0.961 . S
C439 H455 0.961 . S
C440 C441 1.370 . S
C440 C442 1.363 . S
C440 H456 0.931 . S
C441 C440 1.370 . S
C441 C445 1.408 . S
C442 C440 1.363 . S
C442 C443 1.370 . S
C442 C446 1.524 . S
C443 C435 1.503 . S
C443 C442 1.370 . S
C443 C444 1.403 . S
C444 C443 1.403 . S
C444 C445 1.404 . S
C444 C447 1.539 . S
C445 C441 1.408 . S
C445 C444 1.404 . S
C445 H457 0.930 . S
C446 C442 1.524 . S
C446 H458 0.956 . S
C446 H459 0.961 . S
C446 H460 0.961 . S
C447 C444 1.539 . S
C447 H461 0.958 . S
C447 H462 0.961 . S
C447 H463 0.960 . S
H448 C432 0.931 . S
H449 C437 0.929 . S
H450 C438 0.960 . S
H451 C438 0.962 . S
H452 C438 0.960 . S
H453 C439 0.961 . S
H454 C439 0.961 . S
H455 C439 0.961 . S
H456 C440 0.931 . S
H457 C445 0.930 . S
H458 C446 0.956 . S
H459 C446 0.961 . S
H460 C446 0.961 . S
H461 C447 0.958 . S
H462 C447 0.961 . S
H463 C447 0.960 . S
C464 C465 1.391 . S
C464 C466 1.394 . S
C464 H480 0.931 . S
C465 C464 1.391 . S
C465 C469 1.376 . S
C466 C464 1.394 . S
C466 C467 1.369 . S
C466 C470 1.531 1_565 S
C467 C466 1.369 . S
C467 C468 1.410 . S
C467 C475 1.503 1_565 S
C468 C467 1.410 . S
C468 C469 1.392 . S
C468 C471 1.511 . S
C469 C465 1.376 . S
C469 C468 1.392 . S
C469 H481 0.929 . S
C470 C466 1.531 1_545 S
C470 H482 0.960 . S
C470 H483 0.962 . S
C470 H484 0.960 . S
C471 C468 1.511 . S
C471 H485 0.961 . S
C471 H486 0.961 . S
C471 H487 0.961 . S
C472 C473 1.370 . S
C472 C474 1.363 . S
C472 H488 0.931 . S
C473 C472 1.370 . S
C473 C477 1.408 . S
C474 C472 1.363 . S
C474 C475 1.370 . S
C474 C478 1.524 1_545 S
C475 C467 1.503 1_545 S
C475 C474 1.370 . S
C475 C476 1.403 . S
C476 C475 1.403 . S
C476 C477 1.404 . S
C476 C479 1.539 . S
C477 C473 1.408 . S
C477 C476 1.404 . S
C477 H489 0.930 . S
C478 C474 1.524 1_565 S
C478 H490 0.956 . S
C478 H491 0.961 . S
C478 H492 0.961 . S
C479 C476 1.539 . S
C479 H493 0.958 . S
C479 H494 0.961 . S
C479 H495 0.960 . S
H480 C464 0.931 . S
H481 C469 0.929 . S
H482 C470 0.960 . S
H483 C470 0.962 . S
H484 C470 0.960 . S
H485 C471 0.961 . S
H486 C471 0.961 . S
H487 C471 0.961 . S
H488 C472 0.931 . S
H489 C477 0.930 . S
H490 C478 0.956 . S
H491 C478 0.961 . S
H492 C478 0.961 . S
H493 C479 0.958 . S
H494 C479 0.961 . S
H495 C479 0.960 . S
C496 C497 1.391 . S
C496 C498 1.394 . S
C496 H512 0.931 . S
C497 C496 1.391 . S
C497 C501 1.376 . S
C498 C496 1.394 . S
C498 C499 1.369 . S
C498 C502 1.531 . S
C499 C498 1.369 . S
C499 C500 1.410 . S
C499 C507 1.503 . S
C500 C499 1.410 . S
C500 C501 1.392 . S
C500 C503 1.511 . S
C501 C497 1.376 . S
C501 C500 1.392 . S
C501 H513 0.929 . S
C502 C498 1.531 . S
C502 H514 0.960 . S
C502 H515 0.962 . S
C502 H516 0.960 . S
C503 C500 1.511 . S
C503 H517 0.961 . S
C503 H518 0.961 . S
C503 H519 0.961 . S
C504 C505 1.370 . S
C504 C506 1.363 . S
C504 H520 0.931 . S
C505 C504 1.370 . S
C505 C509 1.408 . S
C506 C504 1.363 . S
C506 C507 1.370 . S
C506 C510 1.524 . S
C507 C499 1.503 . S
C507 C506 1.370 . S
C507 C508 1.403 . S
C508 C507 1.403 . S
C508 C509 1.404 . S
C508 C511 1.539 . S
C509 C505 1.408 . S
C509 C508 1.404 . S
C509 H521 0.930 . S
C510 C506 1.524 . S
C510 H522 0.956 . S
C510 H523 0.961 . S
C510 H524 0.961 . S
C511 C508 1.539 . S
C511 H525 0.958 . S
C511 H526 0.961 . S
C511 H527 0.960 . S
H512 C496 0.931 . S
H513 C501 0.929 . S
H514 C502 0.960 . S
H515 C502 0.962 . S
H516 C502 0.960 . S
H517 C503 0.961 . S
H518 C503 0.961 . S
H519 C503 0.961 . S
H520 C504 0.931 . S
H521 C509 0.930 . S
H522 C510 0.956 . S
H523 C510 0.961 . S
H524 C510 0.961 . S
H525 C511 0.958 . S
H526 C511 0.961 . S
H527 C511 0.960 . S
C528 C529 1.391 . S
C528 C530 1.394 . S
C528 H544 0.931 . S
C529 C528 1.391 . S
C529 C533 1.376 . S
C530 C528 1.394 . S
C530 C531 1.369 . S
C530 C534 1.531 . S
C531 C530 1.369 . S
C531 C532 1.410 . S
C531 C539 1.503 1_556 S
C532 C531 1.410 . S
C532 C533 1.392 . S
C532 C535 1.511 1_556 S
C533 C529 1.376 . S
C533 C532 1.392 . S
C533 H545 0.929 . S
C534 C530 1.531 . S
C534 H546 0.960 . S
C534 H547 0.962 . S
C534 H548 0.960 . S
C535 C532 1.511 1_554 S
C535 H549 0.961 . S
C535 H550 0.961 . S
C535 H551 0.961 . S
C536 C537 1.370 . S
C536 C538 1.363 . S
C536 H552 0.931 . S
C537 C536 1.370 . S
C537 C541 1.408 . S
C538 C536 1.363 . S
C538 C539 1.370 . S
C538 C542 1.524 . S
C539 C531 1.503 1_554 S
C539 C538 1.370 . S
C539 C540 1.403 . S
C540 C539 1.403 . S
C540 C541 1.404 . S
C540 C543 1.539 . S
C541 C537 1.408 . S
C541 C540 1.404 . S
C541 H553 0.930 . S
C542 C538 1.524 . S
C542 H554 0.956 1_554 S
C542 H555 0.957 1_554 S
C542 H556 0.961 . S
C543 C540 1.539 . S
C543 H557 0.958 . S
C543 H558 0.961 . S
C543 H559 0.960 . S
H544 C528 0.931 . S
H545 C533 0.929 . S
H546 C534 0.960 . S
H547 C534 0.962 . S
H548 C534 0.960 . S
H549 C535 0.961 . S
H550 C535 0.961 . S
H551 C535 0.961 . S
H552 C536 0.931 . S
H553 C541 0.930 . S
H554 C542 0.956 1_556 S
H555 C542 0.957 1_556 S
H556 C542 0.961 . S
H557 C543 0.958 . S
H558 C543 0.961 . S
H559 C543 0.960 . S
C560 C561 1.391 . S
C560 C562 1.394 . S
C560 H576 0.931 . S
C561 C560 1.391 . S
C561 C565 1.376 . S
C562 C560 1.394 . S
C562 C563 1.369 . S
C562 C566 1.531 . S
C563 C562 1.369 . S
C563 C564 1.410 . S
C563 C571 1.503 1_554 S
C564 C563 1.410 . S
C564 C565 1.392 . S
C564 C567 1.511 1_554 S
C565 C561 1.376 . S
C565 C564 1.392 . S
C565 H577 0.929 . S
C566 C562 1.531 . S
C566 H578 0.960 . S
C566 H579 0.962 . S
C566 H580 0.960 . S
C567 C564 1.511 1_556 S
C567 H581 0.961 . S
C567 H582 0.961 . S
C567 H583 0.961 . S
C568 C569 1.370 . S
C568 C570 1.363 . S
C568 H584 0.931 . S
C569 C568 1.370 . S
C569 C573 1.408 . S
C570 C568 1.363 . S
C570 C571 1.370 . S
C570 C574 1.527 . S
C571 C563 1.503 1_556 S
C571 C570 1.370 . S
C571 C572 1.403 . S
C572 C571 1.403 . S
C572 C573 1.404 . S
C572 C575 1.539 . S
C573 C569 1.408 . S
C573 C572 1.404 . S
C573 H585 0.930 . S
C574 C570 1.527 . S
C574 H586 0.951 1_556 S
C574 H587 0.960 1_556 S
C574 H588 0.963 . S
C575 C572 1.539 . S
C575 H589 0.958 . S
C575 H590 0.961 . S
C575 H591 0.960 . S
H576 C560 0.931 . S
H577 C565 0.929 . S
H578 C566 0.960 . S
H579 C566 0.962 . S
H580 C566 0.960 . S
H581 C567 0.961 . S
H582 C567 0.961 . S
H583 C567 0.961 . S
H584 C568 0.931 . S
H585 C573 0.930 . S
H586 C574 0.951 1_554 S
H587 C574 0.960 1_554 S
H588 C574 0.963 . S
H589 C575 0.958 . S
H590 C575 0.961 . S
H591 C575 0.960 . S
C592 C593 1.391 . S
C592 C594 1.394 . S
C592 H608 0.931 . S
C593 C592 1.391 . S
C593 C597 1.376 . S
C594 C592 1.394 . S
C594 C595 1.369 . S
C594 C598 1.531 . S
C595 C594 1.369 . S
C595 C596 1.410 . S
C595 C603 1.503 . S
C596 C595 1.410 . S
C596 C597 1.392 . S
C596 C599 1.511 . S
C597 C593 1.376 . S
C597 C596 1.392 . S
C597 H609 0.929 . S
C598 C594 1.531 . S
C598 H610 0.960 . S
C598 H611 0.962 . S
C598 H612 0.960 . S
C599 C596 1.511 . S
C599 H613 0.961 . S
C599 H614 0.961 . S
C599 H615 0.961 . S
C600 C601 1.370 . S
C600 C602 1.363 . S
C600 H616 0.931 . S
C601 C600 1.370 . S
C601 C605 1.408 . S
C602 C600 1.363 . S
C602 C603 1.370 . S
C602 C606 1.524 . S
C603 C595 1.503 . S
C603 C602 1.370 . S
C603 C604 1.403 . S
C604 C603 1.403 . S
C604 C605 1.404 . S
C604 C607 1.539 . S
C605 C601 1.408 . S
C605 C604 1.404 . S
C605 H617 0.930 . S
C606 C602 1.524 . S
C606 H618 0.956 . S
C606 H619 0.961 . S
C606 H620 0.961 . S
C607 C604 1.539 . S
C607 H621 0.958 . S
C607 H622 0.961 . S
C607 H623 0.960 . S
H608 C592 0.931 . S
H609 C597 0.929 . S
H610 C598 0.960 . S
H611 C598 0.962 . S
H612 C598 0.960 . S
H613 C599 0.961 . S
H614 C599 0.961 . S
H615 C599 0.961 . S
H616 C600 0.931 . S
H617 C605 0.930 . S
H618 C606 0.956 . S
H619 C606 0.961 . S
H620 C606 0.961 . S
H621 C607 0.958 . S
H622 C607 0.961 . S
H623 C607 0.960 . S
C624 C625 1.391 . S
C624 C626 1.394 . S
C624 H640 0.931 . S
C625 C624 1.391 . S
C625 C629 1.376 . S
C626 C624 1.394 . S
C626 C627 1.369 . S
C626 C630 1.531 . S
C627 C626 1.369 . S
C627 C628 1.410 . S
C627 C635 1.503 . S
C628 C627 1.410 . S
C628 C629 1.392 . S
C628 C631 1.511 . S
C629 C625 1.376 . S
C629 C628 1.392 . S
C629 H641 0.929 . S
C630 C626 1.531 . S
C630 H642 0.960 . S
C630 H643 0.962 . S
C630 H644 0.960 . S
C631 C628 1.511 . S
C631 H645 0.961 . S
C631 H646 0.961 . S
C631 H647 0.961 . S
C632 C633 1.370 . S
C632 C634 1.363 . S
C632 H648 0.931 . S
C633 C632 1.370 . S
C633 C637 1.408 . S
C634 C632 1.363 . S
C634 C635 1.370 . S
C634 C638 1.524 . S
C635 C627 1.503 . S
C635 C634 1.370 . S
C635 C636 1.403 . S
C636 C635 1.403 . S
C636 C637 1.404 . S
C636 C639 1.539 . S
C637 C633 1.408 . S
C637 C636 1.404 . S
C637 H649 0.930 . S
C638 C634 1.524 . S
C638 H650 0.956 . S
C638 H651 0.961 . S
C638 H652 0.961 . S
C639 C636 1.539 . S
C639 H653 0.958 . S
C639 H654 0.961 . S
C639 H655 0.960 . S
H640 C624 0.931 . S
H641 C629 0.929 . S
H642 C630 0.960 . S
H643 C630 0.962 . S
H644 C630 0.960 . S
H645 C631 0.961 . S
H646 C631 0.961 . S
H647 C631 0.961 . S
H648 C632 0.931 . S
H649 C637 0.930 . S
H650 C638 0.956 . S
H651 C638 0.961 . S
H652 C638 0.961 . S
H653 C639 0.958 . S
H654 C639 0.961 . S
H655 C639 0.960 . S
C656 C657 1.391 . S
C656 C658 1.394 . S
C656 H672 0.931 . S
C657 C656 1.391 . S
C657 C661 1.376 . S
C658 C656 1.394 . S
C658 C659 1.369 . S
C658 C662 1.531 . S
C659 C658 1.369 . S
C659 C660 1.410 . S
C659 C667 1.503 1_655 S
C660 C659 1.410 . S
C660 C661 1.392 . S
C660 C663 1.511 1_655 S
C661 C657 1.376 . S
C661 C660 1.392 . S
C661 H673 0.929 . S
C662 C658 1.531 . S
C662 H674 0.960 . S
C662 H675 0.962 . S
C662 H676 0.960 . S
C663 C660 1.511 1_455 S
C663 H677 0.961 . S
C663 H678 0.961 . S
C663 H679 0.961 . S
C664 C665 1.370 . S
C664 C666 1.363 . S
C664 H680 0.931 . S
C665 C664 1.370 . S
C665 C669 1.408 . S
C666 C664 1.363 . S
C666 C667 1.370 . S
C666 C670 1.524 1_455 S
C667 C659 1.503 1_455 S
C667 C666 1.370 . S
C667 C668 1.403 . S
C668 C667 1.403 . S
C668 C669 1.404 . S
C668 C671 1.539 . S
C669 C665 1.408 . S
C669 C668 1.404 . S
C669 H681 0.930 . S
C670 C666 1.524 1_655 S
C670 H682 0.956 . S
C670 H683 0.961 . S
C670 H684 0.961 . S
C671 C668 1.539 . S
C671 H685 0.958 . S
C671 H686 0.961 . S
C671 H687 0.960 . S
H672 C656 0.931 . S
H673 C661 0.929 . S
H674 C662 0.960 . S
H675 C662 0.962 . S
H676 C662 0.960 . S
H677 C663 0.961 . S
H678 C663 0.961 . S
H679 C663 0.961 . S
H680 C664 0.931 . S
H681 C669 0.930 . S
H682 C670 0.956 . S
H683 C670 0.961 . S
H684 C670 0.961 . S
H685 C671 0.958 . S
H686 C671 0.961 . S
H687 C671 0.960 . S
C688 C689 1.391 . S
C688 C690 1.394 . S
C688 H704 0.931 . S
C689 C688 1.391 . S
C689 C693 1.376 . S
C690 C688 1.394 . S
C690 C691 1.369 . S
C690 C694 1.531 . S
C691 C690 1.369 . S
C691 C692 1.410 . S
C691 C699 1.503 1_655 S
C692 C691 1.410 . S
C692 C693 1.392 . S
C692 C695 1.511 . S
C693 C689 1.376 . S
C693 C692 1.392 . S
C693 H705 0.929 . S
C694 C690 1.531 . S
C694 H706 0.960 1_655 S
C694 H707 0.962 . S
C694 H708 0.960 . S
C695 C692 1.511 . S
C695 H709 0.961 . S
C695 H710 0.961 1_655 S
C695 H711 0.961 1_655 S
C696 C697 1.370 . S
C696 C698 1.363 . S
C696 H712 0.931 . S
C697 C696 1.370 . S
C697 C701 1.408 . S
C698 C696 1.363 . S
C698 C699 1.370 . S
C698 C702 1.524 1_455 S
C699 C691 1.503 1_455 S
C699 C698 1.370 . S
C699 C700 1.403 . S
C700 C699 1.403 . S
C700 C701 1.404 . S
C700 C703 1.539 . S
C701 C697 1.408 . S
C701 C700 1.404 . S
C701 H713 0.930 . S
C702 C698 1.524 1_655 S
C702 H714 0.956 . S
C702 H715 0.961 . S
C702 H716 0.961 . S
C703 C700 1.539 . S
C703 H717 0.958 . S
C703 H718 0.961 . S
C703 H719 0.960 . S
H704 C688 0.931 . S
H705 C693 0.929 . S
H706 C694 0.960 1_455 S
H707 C694 0.962 . S
H708 C694 0.960 . S
H709 C695 0.961 . S
H710 C695 0.961 1_455 S
H711 C695 0.961 1_455 S
H712 C696 0.931 . S
H713 C701 0.930 . S
H714 C702 0.956 . S
H715 C702 0.961 . S
H716 C702 0.961 . S
H717 C703 0.958 . S
H718 C703 0.961 . S
H719 C703 0.960 . S
C720 C721 1.391 . S
C720 C722 1.394 . S
C720 H736 0.931 . S
C721 C720 1.391 . S
C721 C725 1.376 . S
C722 C720 1.394 . S
C722 C723 1.369 . S
C722 C726 1.531 . S
C723 C722 1.369 . S
C723 C724 1.410 . S
C723 C731 1.503 . S
C724 C723 1.410 . S
C724 C725 1.392 . S
C724 C727 1.511 . S
C725 C721 1.376 . S
C725 C724 1.392 . S
C725 H737 0.929 . S
C726 C722 1.531 . S
C726 H738 0.960 . S
C726 H739 0.962 . S
C726 H740 0.960 . S
C727 C724 1.511 . S
C727 H741 0.961 . S
C727 H742 0.961 . S
C727 H743 0.961 . S
C728 C729 1.370 . S
C728 C730 1.363 . S
C728 H744 0.931 . S
C729 C728 1.370 . S
C729 C733 1.408 . S
C730 C728 1.363 . S
C730 C731 1.370 . S
C730 C734 1.524 . S
C731 C723 1.503 . S
C731 C730 1.370 . S
C731 C732 1.403 . S
C732 C731 1.403 . S
C732 C733 1.404 . S
C732 C735 1.539 . S
C733 C729 1.408 . S
C733 C732 1.404 . S
C733 H745 0.930 . S
C734 C730 1.524 . S
C734 H746 0.956 . S
C734 H747 0.961 . S
C734 H748 0.961 . S
C735 C732 1.539 . S
C735 H749 0.958 . S
C735 H750 0.961 . S
C735 H751 0.960 . S
H736 C720 0.931 . S
H737 C725 0.929 . S
H738 C726 0.960 . S
H739 C726 0.962 . S
H740 C726 0.960 . S
H741 C727 0.961 . S
H742 C727 0.961 . S
H743 C727 0.961 . S
H744 C728 0.931 . S
H745 C733 0.930 . S
H746 C734 0.956 . S
H747 C734 0.961 . S
H748 C734 0.961 . S
H749 C735 0.958 . S
H750 C735 0.961 . S
H751 C735 0.960 . S
C752 C753 1.391 . S
C752 C754 1.394 . S
C752 H768 0.931 . S
C753 C752 1.391 . S
C753 C757 1.376 . S
C754 C752 1.394 . S
C754 C755 1.369 . S
C754 C758 1.531 1_545 S
C755 C754 1.369 . S
C755 C756 1.410 . S
C755 C763 1.503 1_545 S
C756 C755 1.410 . S
C756 C757 1.392 . S
C756 C759 1.511 . S
C757 C753 1.376 . S
C757 C756 1.392 . S
C757 H769 0.929 . S
C758 C754 1.531 1_565 S
C758 H770 0.960 . S
C758 H771 0.958 1_565 S
C758 H772 0.960 . S
C759 C756 1.511 . S
C759 H773 0.961 . S
C759 H774 0.961 . S
C759 H775 0.961 . S
C760 C761 1.370 . S
C760 C762 1.363 . S
C760 H776 0.931 . S
C761 C760 1.370 . S
C761 C765 1.408 . S
C762 C760 1.363 . S
C762 C763 1.370 . S
C762 C766 1.524 1_565 S
C763 C755 1.503 1_565 S
C763 C762 1.370 . S
C763 C764 1.403 . S
C764 C763 1.403 . S
C764 C765 1.404 . S
C764 C767 1.539 . S
C765 C761 1.408 . S
C765 C764 1.404 . S
C765 H777 0.930 . S
C766 C762 1.524 1_545 S
C766 H778 0.956 . S
C766 H779 0.961 . S
C766 H780 0.961 . S
C767 C764 1.539 . S
C767 H781 0.958 . S
C767 H782 0.961 . S
C767 H783 0.960 . S
H768 C752 0.931 . S
H769 C757 0.929 . S
H770 C758 0.960 . S
H771 C758 0.958 1_545 S
H772 C758 0.960 . S
H773 C759 0.961 . S
H774 C759 0.961 . S
H775 C759 0.961 . S
H776 C760 0.931 . S
H777 C765 0.930 . S
H778 C766 0.956 . S
H779 C766 0.961 . S
H780 C766 0.961 . S
H781 C767 0.958 . S
H782 C767 0.961 . S
H783 C767 0.960 . S
C784 C785 1.391 . S
C784 C786 1.394 . S
C784 H800 0.931 . S
C785 C784 1.391 . S
C785 C789 1.376 . S
C786 C784 1.394 . S
C786 C787 1.369 . S
C786 C790 1.531 . S
C787 C786 1.369 . S
C787 C788 1.410 . S
C787 C795 1.503 . S
C788 C787 1.410 . S
C788 C789 1.392 . S
C788 C791 1.511 . S
C789 C785 1.376 . S
C789 C788 1.392 . S
C789 H801 0.929 . S
C790 C786 1.531 . S
C790 H802 0.960 . S
C790 H803 0.962 . S
C790 H804 0.960 . S
C791 C788 1.511 . S
C791 H805 0.961 . S
C791 H806 0.961 . S
C791 H807 0.961 . S
C792 C793 1.370 . S
C792 C794 1.363 . S
C792 H808 0.931 . S
C793 C792 1.370 . S
C793 C797 1.408 . S
C794 C792 1.363 . S
C794 C795 1.370 . S
C794 C798 1.524 . S
C795 C787 1.503 . S
C795 C794 1.370 . S
C795 C796 1.403 . S
C796 C795 1.403 . S
C796 C797 1.404 . S
C796 C799 1.539 . S
C797 C793 1.408 . S
C797 C796 1.404 . S
C797 H809 0.930 . S
C798 C794 1.524 . S
C798 H810 0.956 . S
C798 H811 0.961 . S
C798 H812 0.961 . S
C799 C796 1.539 . S
C799 H813 0.958 . S
C799 H814 0.961 . S
C799 H815 0.960 . S
H800 C784 0.931 . S
H801 C789 0.929 . S
H802 C790 0.960 . S
H803 C790 0.962 . S
H804 C790 0.960 . S
H805 C791 0.961 . S
H806 C791 0.961 . S
H807 C791 0.961 . S
H808 C792 0.931 . S
H809 C797 0.930 . S
H810 C798 0.956 . S
H811 C798 0.961 . S
H812 C798 0.961 . S
H813 C799 0.958 . S
H814 C799 0.961 . S
H815 C799 0.960 . S
C816 C817 1.391 . S
C816 C818 1.394 . S
C816 H832 0.931 . S
C817 C816 1.391 . S
C817 C821 1.376 . S
C818 C816 1.394 . S
C818 C819 1.369 . S
C818 C822 1.531 1_554 S
C819 C818 1.369 . S
C819 C820 1.410 . S
C819 C827 1.503 1_554 S
C820 C819 1.410 . S
C820 C821 1.392 . S
C820 C823 1.511 . S
C821 C817 1.376 . S
C821 C820 1.392 . S
C821 H833 0.929 . S
C822 C818 1.531 1_556 S
C822 H834 0.960 . S
C822 H835 0.953 1_556 S
C822 H836 0.960 . S
C823 C820 1.511 . S
C823 H837 0.961 . S
C823 H838 0.961 . S
C823 H839 0.961 . S
C824 C825 1.370 . S
C824 C826 1.363 . S
C824 H840 0.931 . S
C825 C824 1.370 . S
C825 C829 1.408 . S
C826 C824 1.363 . S
C826 C827 1.370 . S
C826 C830 1.524 1_556 S
C827 C819 1.503 1_556 S
C827 C826 1.370 . S
C827 C828 1.403 . S
C828 C827 1.403 . S
C828 C829 1.404 . S
C828 C831 1.539 . S
C829 C825 1.408 . S
C829 C828 1.404 . S
C829 H841 0.930 . S
C830 C826 1.524 1_554 S
C830 H842 0.956 . S
C830 H843 0.961 . S
C830 H844 0.961 . S
C831 C828 1.539 . S
C831 H845 0.958 . S
C831 H846 0.961 . S
C831 H847 0.960 . S
H832 C816 0.931 . S
H833 C821 0.929 . S
H834 C822 0.960 . S
H835 C822 0.953 1_554 S
H836 C822 0.960 . S
H837 C823 0.961 . S
H838 C823 0.961 . S
H839 C823 0.961 . S
H840 C824 0.931 . S
H841 C829 0.930 . S
H842 C830 0.956 . S
H843 C830 0.961 . S
H844 C830 0.961 . S
H845 C831 0.958 . S
H846 C831 0.961 . S
H847 C831 0.960 . S
C848 C849 1.391 . S
C848 C850 1.394 . S
C848 H864 0.931 . S
C849 C848 1.391 . S
C849 C853 1.376 . S
C850 C848 1.394 . S
C850 C851 1.369 . S
C850 C854 1.531 1_556 S
C851 C850 1.369 . S
C851 C852 1.410 . S
C851 C859 1.503 1_556 S
C852 C851 1.410 . S
C852 C853 1.392 . S
C852 C855 1.511 . S
C853 C849 1.376 . S
C853 C852 1.392 . S
C853 H865 0.929 . S
C854 C850 1.531 1_554 S
C854 H866 0.960 . S
C854 H867 0.962 . S
C854 H868 0.960 . S
C855 C852 1.511 . S
C855 H869 0.961 . S
C855 H870 0.961 . S
C855 H871 0.961 . S
C856 C857 1.370 . S
C856 C858 1.363 . S
C856 H872 0.931 . S
C857 C856 1.370 . S
C857 C861 1.408 . S
C858 C856 1.363 . S
C858 C859 1.370 . S
C858 C862 1.524 . S
C859 C851 1.503 1_554 S
C859 C858 1.370 . S
C859 C860 1.403 . S
C860 C859 1.403 . S
C860 C861 1.404 . S
C860 C863 1.539 . S
C861 C857 1.408 . S
C861 C860 1.404 . S
C861 H873 0.930 . S
C862 C858 1.524 . S
C862 H874 0.956 . S
C862 H875 0.961 1_554 S
C862 H876 0.961 . S
C863 C860 1.539 . S
C863 H877 0.958 . S
C863 H878 0.961 . S
C863 H879 0.960 1_554 S
H864 C848 0.931 . S
H865 C853 0.929 . S
H866 C854 0.960 . S
H867 C854 0.962 . S
H868 C854 0.960 . S
H869 C855 0.961 . S
H870 C855 0.961 . S
H871 C855 0.961 . S
H872 C856 0.931 . S
H873 C861 0.930 . S
H874 C862 0.956 . S
H875 C862 0.961 1_556 S
H876 C862 0.961 . S
H877 C863 0.958 . S
H878 C863 0.961 . S
H879 C863 0.960 1_556 S
C880 C881 1.391 . S
C880 C882 1.394 . S
C880 H896 0.931 . S
C881 C880 1.391 . S
C881 C885 1.376 . S
C882 C880 1.394 . S
C882 C883 1.369 . S
C882 C886 1.531 . S
C883 C882 1.369 . S
C883 C884 1.410 . S
C883 C891 1.503 . S
C884 C883 1.410 . S
C884 C885 1.392 . S
C884 C887 1.511 . S
C885 C881 1.376 . S
C885 C884 1.392 . S
C885 H897 0.929 . S
C886 C882 1.531 . S
C886 H898 0.960 . S
C886 H899 0.962 . S
C886 H900 0.960 . S
C887 C884 1.511 . S
C887 H901 0.961 . S
C887 H902 0.961 . S
C887 H903 0.961 . S
C888 C889 1.370 . S
C888 C890 1.363 . S
C888 H904 0.931 . S
C889 C888 1.370 . S
C889 C893 1.408 . S
C890 C888 1.363 . S
C890 C891 1.370 . S
C890 C894 1.524 . S
C891 C883 1.503 . S
C891 C890 1.370 . S
C891 C892 1.403 . S
C892 C891 1.403 . S
C892 C893 1.404 . S
C892 C895 1.539 . S
C893 C889 1.408 . S
C893 C892 1.404 . S
C893 H905 0.930 . S
C894 C890 1.524 . S
C894 H906 0.956 . S
C894 H907 0.961 . S
C894 H908 0.961 . S
C895 C892 1.539 . S
C895 H909 0.958 . S
C895 H910 0.961 . S
C895 H911 0.960 . S
H896 C880 0.931 . S
H897 C885 0.929 . S
H898 C886 0.960 . S
H899 C886 0.962 . S
H900 C886 0.960 . S
H901 C887 0.961 . S
H902 C887 0.961 . S
H903 C887 0.961 . S
H904 C888 0.931 . S
H905 C893 0.930 . S
H906 C894 0.956 . S
H907 C894 0.961 . S
H908 C894 0.961 . S
H909 C895 0.958 . S
H910 C895 0.961 . S
H911 C895 0.960 . S
C912 C913 1.391 . S
C912 C914 1.394 . S
C912 H928 0.931 . S
C913 C912 1.391 . S
C913 C917 1.376 . S
C914 C912 1.394 . S
C914 C915 1.369 . S
C914 C918 1.531 . S
C915 C914 1.369 . S
C915 C916 1.410 . S
C915 C923 1.503 . S
C916 C915 1.410 . S
C916 C917 1.392 . S
C916 C919 1.511 . S
C917 C913 1.376 . S
C917 C916 1.392 . S
C917 H929 0.929 . S
C918 C914 1.531 . S
C918 H930 0.960 . S
C918 H931 0.962 . S
C918 H932 0.960 . S
C919 C916 1.511 . S
C919 H933 0.961 . S
C919 H934 0.961 . S
C919 H935 0.961 . S
C920 C921 1.370 . S
C920 C922 1.363 . S
C920 H936 0.931 . S
C921 C920 1.370 . S
C921 C925 1.408 . S
C922 C920 1.363 . S
C922 C923 1.370 . S
C922 C926 1.524 . S
C923 C915 1.503 . S
C923 C922 1.370 . S
C923 C924 1.403 . S
C924 C923 1.403 . S
C924 C925 1.404 . S
C924 C927 1.539 . S
C925 C921 1.408 . S
C925 C924 1.404 . S
C925 H937 0.930 . S
C926 C922 1.524 . S
C926 H938 0.956 . S
C926 H939 0.961 . S
C926 H940 0.961 . S
C927 C924 1.539 . S
C927 H941 0.958 . S
C927 H942 0.961 . S
C927 H943 0.960 . S
H928 C912 0.931 . S
H929 C917 0.929 . S
H930 C918 0.960 . S
H931 C918 0.962 . S
H932 C918 0.960 . S
H933 C919 0.961 . S
H934 C919 0.961 . S
H935 C919 0.961 . S
H936 C920 0.931 . S
H937 C925 0.930 . S
H938 C926 0.956 . S
H939 C926 0.961 . S
H940 C926 0.961 . S
H941 C927 0.958 . S
H942 C927 0.961 . S
H943 C927 0.960 . S
C944 C945 1.391 . S
C944 C946 1.394 . S
C944 H960 0.931 . S
C945 C944 1.391 . S
C945 C949 1.376 . S
C946 C944 1.394 . S
C946 C947 1.369 . S
C946 C950 1.531 . S
C947 C946 1.369 . S
C947 C948 1.410 . S
C947 C955 1.503 1_455 S
C948 C947 1.410 . S
C948 C949 1.392 . S
C948 C951 1.511 1_455 S
C949 C945 1.376 . S
C949 C948 1.392 . S
C949 H961 0.929 . S
C950 C946 1.531 . S
C950 H962 0.960 . S
C950 H963 0.962 . S
C950 H964 0.960 . S
C951 C948 1.511 1_655 S
C951 H965 0.961 . S
C951 H966 0.961 . S
C951 H967 0.961 . S
C952 C953 1.370 . S
C952 C954 1.363 . S
C952 H968 0.931 . S
C953 C952 1.370 . S
C953 C957 1.408 . S
C954 C952 1.363 . S
C954 C955 1.370 . S
C954 C958 1.524 . S
C955 C947 1.503 1_655 S
C955 C954 1.370 . S
C955 C956 1.403 . S
C956 C955 1.403 . S
C956 C957 1.404 . S
C956 C959 1.539 . S
C957 C953 1.408 . S
C957 C956 1.404 . S
C957 H969 0.930 . S
C958 C954 1.524 . S
C958 H970 0.956 1_655 S
C958 H971 0.961 . S
C958 H972 0.961 . S
C959 C956 1.539 . S
C959 H973 0.958 1_655 S
C959 H974 0.961 . S
C959 H975 0.960 . S
H960 C944 0.931 . S
H961 C949 0.929 . S
H962 C950 0.960 . S
H963 C950 0.962 . S
H964 C950 0.960 . S
H965 C951 0.961 . S
H966 C951 0.961 . S
H967 C951 0.961 . S
H968 C952 0.931 . S
H969 C957 0.930 . S
H970 C958 0.956 1_455 S
H971 C958 0.961 . S
H972 C958 0.961 . S
H973 C959 0.958 1_455 S
H974 C959 0.961 . S
H975 C959 0.960 . S
C976 C977 1.391 . S
C976 C978 1.394 . S
C976 H992 0.931 . S
C977 C976 1.391 . S
C977 C981 1.376 . S
C978 C976 1.394 . S
C978 C979 1.369 . S
C978 C982 1.531 1_455 S
C979 C978 1.369 . S
C979 C980 1.410 . S
C979 C987 1.503 1_455 S
C980 C979 1.410 . S
C980 C981 1.392 . S
C980 C983 1.511 . S
C981 C977 1.376 . S
C981 C980 1.392 . S
C981 H993 0.929 . S
C982 C978 1.531 1_655 S
C982 H994 0.960 . S
C982 H995 0.962 . S
C982 H996 0.960 . S
C983 C980 1.511 . S
C983 H997 0.961 . S
C983 H998 0.961 . S
C983 H999 0.961 . S
C984 C985 1.370 . S
C984 C986 1.363 . S
C984 H1000 0.931 . S
C985 C984 1.370 . S
C985 C989 1.408 . S
C986 C984 1.363 . S
C986 C987 1.370 . S
C986 C990 1.524 . S
C987 C979 1.503 1_655 S
C987 C986 1.370 . S
C987 C988 1.403 . S
C988 C987 1.403 . S
C988 C989 1.404 . S
C988 C991 1.539 . S
C989 C985 1.408 . S
C989 C988 1.404 . S
C989 H1001 0.930 . S
C990 C986 1.524 . S
C990 H1002 0.956 . S
C990 H1003 0.961 1_655 S
C990 H1004 0.961 . S
C991 C988 1.539 . S
C991 H1005 0.958 . S
C991 H1006 0.961 . S
C991 H1007 0.960 . S
H992 C976 0.931 . S
H993 C981 0.929 . S
H994 C982 0.960 . S
H995 C982 0.962 . S
H996 C982 0.960 . S
H997 C983 0.961 . S
H998 C983 0.961 . S
H999 C983 0.961 . S
H1000 C984 0.931 . S
H1001 C989 0.930 . S
H1002 C990 0.956 . S
H1003 C990 0.961 1_455 S
H1004 C990 0.961 . S
H1005 C991 0.958 . S
H1006 C991 0.961 . S
H1007 C991 0.960 . S
C1008 C1009 1.391 . S
C1008 C1010 1.394 . S
C1008 H1024 0.931 . S
C1009 C1008 1.391 . S
C1009 C1013 1.376 . S
C1010 C1008 1.394 . S
C1010 C1011 1.369 . S
C1010 C1014 1.531 . S
C1011 C1010 1.369 . S
C1011 C1012 1.410 . S
C1011 C1019 1.503 . S
C1012 C1011 1.410 . S
C1012 C1013 1.392 . S
C1012 C1015 1.511 . S
C1013 C1009 1.376 . S
C1013 C1012 1.392 . S
C1013 H1025 0.929 . S
C1014 C1010 1.531 . S
C1014 H1026 0.960 . S
C1014 H1027 0.962 . S
C1014 H1028 0.960 . S
C1015 C1012 1.511 . S
C1015 H1029 0.961 . S
C1015 H1030 0.961 . S
C1015 H1031 0.961 . S
C1016 C1017 1.370 . S
C1016 C1018 1.363 . S
C1016 H1032 0.931 . S
C1017 C1016 1.370 . S
C1017 C1021 1.408 . S
C1018 C1016 1.363 . S
C1018 C1019 1.370 . S
C1018 C1022 1.524 . S
C1019 C1011 1.503 . S
C1019 C1018 1.370 . S
C1019 C1020 1.403 . S
C1020 C1019 1.403 . S
C1020 C1021 1.404 . S
C1020 C1023 1.539 . S
C1021 C1017 1.408 . S
C1021 C1020 1.404 . S
C1021 H1033 0.930 . S
C1022 C1018 1.524 . S
C1022 H1034 0.956 . S
C1022 H1035 0.961 . S
C1022 H1036 0.961 . S
C1023 C1020 1.539 . S
C1023 H1037 0.958 . S
C1023 H1038 0.961 . S
C1023 H1039 0.960 . S
H1024 C1008 0.931 . S
H1025 C1013 0.929 . S
H1026 C1014 0.960 . S
H1027 C1014 0.962 . S
H1028 C1014 0.960 . S
H1029 C1015 0.961 . S
H1030 C1015 0.961 . S
H1031 C1015 0.961 . S
H1032 C1016 0.931 . S
H1033 C1021 0.930 . S
H1034 C1022 0.956 . S
H1035 C1022 0.961 . S
H1036 C1022 0.961 . S
H1037 C1023 0.958 . S
H1038 C1023 0.961 . S
H1039 C1023 0.960 . S
C1040 C1041 1.391 . S
C1040 C1042 1.394 . S
C1040 H1056 0.931 . S
C1041 C1040 1.391 . S
C1041 C1045 1.376 . S
C1042 C1040 1.394 . S
C1042 C1043 1.369 . S
C1042 C1046 1.531 . S
C1043 C1042 1.369 . S
C1043 C1044 1.410 . S
C1043 C1051 1.503 . S
C1044 C1043 1.410 . S
C1044 C1045 1.392 . S
C1044 C1047 1.511 . S
C1045 C1041 1.376 . S
C1045 C1044 1.392 . S
C1045 H1057 0.929 . S
C1046 C1042 1.531 . S
C1046 H1058 0.960 . S
C1046 H1059 0.962 . S
C1046 H1060 0.960 . S
C1047 C1044 1.511 . S
C1047 H1061 0.961 . S
C1047 H1062 0.961 . S
C1047 H1063 0.961 . S
C1048 C1049 1.370 . S
C1048 C1050 1.363 . S
C1048 H1064 0.931 . S
C1049 C1048 1.370 . S
C1049 C1053 1.408 . S
C1050 C1048 1.363 . S
C1050 C1051 1.370 . S
C1050 C1054 1.524 . S
C1051 C1043 1.503 . S
C1051 C1050 1.370 . S
C1051 C1052 1.403 . S
C1052 C1051 1.403 . S
C1052 C1053 1.404 . S
C1052 C1055 1.539 . S
C1053 C1049 1.408 . S
C1053 C1052 1.404 . S
C1053 H1065 0.930 . S
C1054 C1050 1.524 . S
C1054 H1066 0.956 . S
C1054 H1067 0.961 . S
C1054 H1068 0.961 . S
C1055 C1052 1.539 . S
C1055 H1069 0.958 . S
C1055 H1070 0.961 . S
C1055 H1071 0.960 . S
H1056 C1040 0.931 . S
H1057 C1045 0.929 . S
H1058 C1046 0.960 . S
H1059 C1046 0.962 . S
H1060 C1046 0.960 . S
H1061 C1047 0.961 . S
H1062 C1047 0.961 . S
H1063 C1047 0.961 . S
H1064 C1048 0.931 . S
H1065 C1053 0.930 . S
H1066 C1054 0.956 . S
H1067 C1054 0.961 . S
H1068 C1054 0.961 . S
H1069 C1055 0.958 . S
H1070 C1055 0.961 . S
H1071 C1055 0.960 . S
C1072 C1073 1.391 . S
C1072 C1074 1.394 . S
C1072 H1088 0.931 . S
C1073 C1072 1.391 . S
C1073 C1077 1.376 . S
C1074 C1072 1.394 . S
C1074 C1075 1.369 . S
C1074 C1078 1.531 1_545 S
C1075 C1074 1.369 . S
C1075 C1076 1.410 . S
C1075 C1083 1.503 1_545 S
C1076 C1075 1.410 . S
C1076 C1077 1.392 . S
C1076 C1079 1.511 . S
C1077 C1073 1.376 . S
C1077 C1076 1.392 . S
C1077 H1089 0.929 . S
C1078 C1074 1.531 1_565 S
C1078 H1090 0.960 . S
C1078 H1091 0.962 . S
C1078 H1092 0.960 . S
C1079 C1076 1.511 . S
C1079 H1093 0.961 . S
C1079 H1094 0.961 . S
C1079 H1095 0.961 . S
C1080 C1081 1.370 . S
C1080 C1082 1.363 . S
C1080 H1096 0.931 . S
C1081 C1080 1.370 . S
C1081 C1085 1.408 . S
C1082 C1080 1.363 . S
C1082 C1083 1.370 . S
C1082 C1086 1.544 . S
C1083 C1075 1.503 1_565 S
C1083 C1082 1.370 . S
C1083 C1084 1.403 . S
C1084 C1083 1.403 . S
C1084 C1085 1.404 . S
C1084 C1087 1.539 . S
C1085 C1081 1.408 . S
C1085 C1084 1.404 . S
C1085 H1097 0.930 . S
C1086 C1082 1.544 . S
C1086 H1098 0.960 . S
C1086 H1099 0.928 1_565 S
C1086 H1100 0.972 . S
C1087 C1084 1.539 . S
C1087 H1101 0.958 . S
C1087 H1102 0.961 . S
C1087 H1103 0.960 . S
H1088 C1072 0.931 . S
H1089 C1077 0.929 . S
H1090 C1078 0.960 . S
H1091 C1078 0.962 . S
H1092 C1078 0.960 . S
H1093 C1079 0.961 . S
H1094 C1079 0.961 . S
H1095 C1079 0.961 . S
H1096 C1080 0.931 . S
H1097 C1085 0.930 . S
H1098 C1086 0.960 . S
H1099 C1086 0.928 1_545 S
H1100 C1086 0.972 . S
H1101 C1087 0.958 . S
H1102 C1087 0.961 . S
H1103 C1087 0.960 . S
C1104 C1105 1.391 . S
C1104 C1106 1.394 . S
C1104 H1120 0.931 . S
C1105 C1104 1.391 . S
C1105 C1109 1.376 . S
C1106 C1104 1.394 . S
C1106 C1107 1.369 . S
C1106 C1110 1.531 . S
C1107 C1106 1.369 . S
C1107 C1108 1.410 . S
C1107 C1115 1.503 . S
C1108 C1107 1.410 . S
C1108 C1109 1.392 . S
C1108 C1111 1.511 . S
C1109 C1105 1.376 . S
C1109 C1108 1.392 . S
C1109 H1121 0.929 . S
C1110 C1106 1.531 . S
C1110 H1122 0.960 . S
C1110 H1123 0.962 . S
C1110 H1124 0.960 . S
C1111 C1108 1.511 . S
C1111 H1125 0.961 . S
C1111 H1126 0.961 . S
C1111 H1127 0.961 . S
C1112 C1113 1.370 . S
C1112 C1114 1.363 . S
C1112 H1128 0.931 . S
C1113 C1112 1.370 . S
C1113 C1117 1.408 . S
C1114 C1112 1.363 . S
C1114 C1115 1.370 . S
C1114 C1118 1.524 . S
C1115 C1107 1.503 . S
C1115 C1114 1.370 . S
C1115 C1116 1.403 . S
C1116 C1115 1.403 . S
C1116 C1117 1.404 . S
C1116 C1119 1.539 . S
C1117 C1113 1.408 . S
C1117 C1116 1.404 . S
C1117 H1129 0.930 . S
C1118 C1114 1.524 . S
C1118 H1130 0.956 . S
C1118 H1131 0.961 . S
C1118 H1132 0.961 . S
C1119 C1116 1.539 . S
C1119 H1133 0.958 . S
C1119 H1134 0.961 . S
C1119 H1135 0.960 . S
H1120 C1104 0.931 . S
H1121 C1109 0.929 . S
H1122 C1110 0.960 . S
H1123 C1110 0.962 . S
H1124 C1110 0.960 . S
H1125 C1111 0.961 . S
H1126 C1111 0.961 . S
H1127 C1111 0.961 . S
H1128 C1112 0.931 . S
H1129 C1117 0.930 . S
H1130 C1118 0.956 . S
H1131 C1118 0.961 . S
H1132 C1118 0.961 . S
H1133 C1119 0.958 . S
H1134 C1119 0.961 . S
H1135 C1119 0.960 . S
C1136 C1137 1.391 . S
C1136 C1138 1.394 . S
C1136 H1152 0.931 . S
C1137 C1136 1.391 . S
C1137 C1141 1.376 . S
C1138 C1136 1.394 . S
C1138 C1139 1.369 . S
C1138 C1142 1.531 . S
C1139 C1138 1.369 . S
C1139 C1140 1.410 . S
C1139 C1147 1.503 . S
C1140 C1139 1.410 . S
C1140 C1141 1.392 . S
C1140 C1143 1.511 . S
C1141 C1137 1.376 . S
C1141 C1140 1.392 . S
C1141 H1153 0.929 . S
C1142 C1138 1.531 . S
C1142 H1154 0.960 . S
C1142 H1155 0.962 . S
C1142 H1156 0.960 . S
C1143 C1140 1.511 . S
C1143 H1157 0.961 . S
C1143 H1158 0.961 . S
C1143 H1159 0.961 . S
C1144 C1145 1.370 . S
C1144 C1146 1.363 . S
C1144 H1160 0.931 . S
C1145 C1144 1.370 . S
C1145 C1149 1.408 . S
C1146 C1144 1.363 . S
C1146 C1147 1.370 . S
C1146 C1150 1.524 . S
C1147 C1139 1.503 . S
C1147 C1146 1.370 . S
C1147 C1148 1.403 . S
C1148 C1147 1.403 . S
C1148 C1149 1.404 . S
C1148 C1151 1.539 . S
C1149 C1145 1.408 . S
C1149 C1148 1.404 . S
C1149 H1161 0.930 . S
C1150 C1146 1.524 . S
C1150 H1162 0.956 . S
C1150 H1163 0.961 . S
C1150 H1164 0.961 . S
C1151 C1148 1.539 . S
C1151 H1165 0.958 . S
C1151 H1166 0.961 . S
C1151 H1167 0.960 . S
H1152 C1136 0.931 . S
H1153 C1141 0.929 . S
H1154 C1142 0.960 . S
H1155 C1142 0.962 . S
H1156 C1142 0.960 . S
H1157 C1143 0.961 . S
H1158 C1143 0.961 . S
H1159 C1143 0.961 . S
H1160 C1144 0.931 . S
H1161 C1149 0.930 . S
H1162 C1150 0.956 . S
H1163 C1150 0.961 . S
H1164 C1150 0.961 . S
H1165 C1151 0.958 . S
H1166 C1151 0.961 . S
H1167 C1151 0.960 . S
C1168 C1169 1.391 . S
C1168 C1170 1.394 . S
C1168 H1184 0.931 . S
C1169 C1168 1.391 . S
C1169 C1173 1.376 . S
C1170 C1168 1.394 . S
C1170 C1171 1.369 . S
C1170 C1174 1.531 1_545 S
C1171 C1170 1.369 . S
C1171 C1172 1.410 . S
C1171 C1179 1.503 1_545 S
C1172 C1171 1.410 . S
C1172 C1173 1.392 . S
C1172 C1175 1.511 . S
C1173 C1169 1.376 . S
C1173 C1172 1.392 . S
C1173 H1185 0.929 . S
C1174 C1170 1.531 1_565 S
C1174 H1186 0.960 . S
C1174 H1187 0.962 . S
C1174 H1188 0.960 1_565 S
C1175 C1172 1.511 . S
C1175 H1189 0.961 . S
C1175 H1190 0.961 1_545 S
C1175 H1191 0.961 . S
C1176 C1177 1.370 . S
C1176 C1178 1.363 . S
C1176 H1192 0.931 . S
C1177 C1176 1.370 . S
C1177 C1181 1.408 . S
C1178 C1176 1.363 . S
C1178 C1179 1.370 . S
C1178 C1182 1.524 . S
C1179 C1171 1.503 1_565 S
C1179 C1178 1.370 . S
C1179 C1180 1.403 . S
C1180 C1179 1.403 . S
C1180 C1181 1.404 . S
C1180 C1183 1.539 1_565 S
C1181 C1177 1.408 . S
C1181 C1180 1.404 . S
C1181 H1193 0.930 . S
C1182 C1178 1.524 . S
C1182 H1194 0.956 . S
C1182 H1195 0.961 . S
C1182 H1196 0.961 . S
C1183 C1180 1.539 1_545 S
C1183 H1197 0.958 . S
C1183 H1198 0.961 . S
C1183 H1199 0.960 . S
H1184 C1168 0.931 . S
H1185 C1173 0.929 . S
H1186 C1174 0.960 . S
H1187 C1174 0.962 . S
H1188 C1174 0.960 1_545 S
H1189 C1175 0.961 . S
H1190 C1175 0.961 1_565 S
H1191 C1175 0.961 . S
H1192 C1176 0.931 . S
H1193 C1181 0.930 . S
H1194 C1182 0.956 . S
H1195 C1182 0.961 . S
H1196 C1182 0.961 . S
H1197 C1183 0.958 . S
H1198 C1183 0.961 . S
H1199 C1183 0.960 . S
C1200 C1201 1.391 . S
C1200 C1202 1.394 . S
C1200 H1216 0.931 . S
C1201 C1200 1.391 . S
C1201 C1205 1.376 . S
C1202 C1200 1.394 . S
C1202 C1203 1.369 . S
C1202 C1206 1.531 . S
C1203 C1202 1.369 . S
C1203 C1204 1.410 . S
C1203 C1211 1.503 . S
C1204 C1203 1.410 . S
C1204 C1205 1.392 . S
C1204 C1207 1.511 . S
C1205 C1201 1.376 . S
C1205 C1204 1.392 . S
C1205 H1217 0.929 . S
C1206 C1202 1.531 . S
C1206 H1218 0.960 . S
C1206 H1219 0.962 . S
C1206 H1220 0.960 . S
C1207 C1204 1.511 . S
C1207 H1221 0.961 . S
C1207 H1222 0.961 . S
C1207 H1223 0.961 . S
C1208 C1209 1.370 . S
C1208 C1210 1.363 . S
C1208 H1224 0.931 . S
C1209 C1208 1.370 . S
C1209 C1213 1.408 . S
C1210 C1208 1.363 . S
C1210 C1211 1.370 . S
C1210 C1214 1.524 . S
C1211 C1203 1.503 . S
C1211 C1210 1.370 . S
C1211 C1212 1.403 . S
C1212 C1211 1.403 . S
C1212 C1213 1.404 . S
C1212 C1215 1.539 . S
C1213 C1209 1.408 . S
C1213 C1212 1.404 . S
C1213 H1225 0.930 . S
C1214 C1210 1.524 . S
C1214 H1226 0.956 . S
C1214 H1227 0.961 . S
C1214 H1228 0.961 . S
C1215 C1212 1.539 . S
C1215 H1229 0.958 . S
C1215 H1230 0.961 . S
C1215 H1231 0.960 . S
H1216 C1200 0.931 . S
H1217 C1205 0.929 . S
H1218 C1206 0.960 . S
H1219 C1206 0.962 . S
H1220 C1206 0.960 . S
H1221 C1207 0.961 . S
H1222 C1207 0.961 . S
H1223 C1207 0.961 . S
H1224 C1208 0.931 . S
H1225 C1213 0.930 . S
H1226 C1214 0.956 . S
H1227 C1214 0.961 . S
H1228 C1214 0.961 . S
H1229 C1215 0.958 . S
H1230 C1215 0.961 . S
H1231 C1215 0.960 . S
C209 C8 1.001 . S
C217 C177 1.022 . S
C241 C21 1.040 . S
C249 C125 1.025 . S
C273 C190 1.038 . S
C281 C34 1.054 . S
C305 C47 1.071 . S
C313 C203 1.068 . S
C337 C60 0.980 . S
C345 C86 1.007 . S
C369 C138 0.988 . S
C377 C73 1.008 . S
C401 C151 1.042 . S
C409 C99 1.055 . S
C433 C112 1.092 . S
C441 C164 1.077 . S
C465 C26 1.563 . S
C473 C5 1.549 . S
C497 C18 1.568 . S
C505 C39 1.542 . S
C529 C161 1.590 . S
C537 C10 1.556 . S
C561 C23 1.571 . S
C569 C148 1.585 . S
C593 C62 1.531 . S
C601 C31 1.572 . S
C625 C140 1.528 . S
C633 C44 1.573 . S
C657 C13 1.524 . S
C665 C0 1.527 . S
C689 C49 1.531 . S
C697 C36 1.502 . S
C721 C130 1.520 . S
C729 C52 1.526 . S
C753 C96 1.602 . S
C761 C65 1.618 . S
C785 C78 1.603 . S
C793 C109 1.606 . S
C817 C195 1.542 . S
C825 C75 1.511 . S
C849 C88 1.524 . S
C857 C182 1.556 . S
C881 C127 1.506 . S
C889 C91 1.553 . S
C913 C104 1.564 . S
C921 C179 1.529 . S
C945 C83 1.593 . S
C953 C70 1.593 . S
C977 C114 1.463 . S
C985 C101 1.452 . S
C1009 C122 1.605 . S
C1017 C174 1.588 . S
C1041 C135 1.556 . S
C1049 C143 1.548 . S
C1073 C156 1.565 . S
C1081 C57 1.547 . S
C1105 C166 1.526 . S
C1113 C153 1.514 . S
C1137 C187 1.606 . S
C1145 C169 1.618 . S
C1169 C117 1.619 . S
C1177 C200 1.604 . S
C1201 C205 1.449 . S
C1209 C192 1.457 . S
