# Generated by pormake.
# Topology ure, (4)-cn, num edge types: 1
# Building blocks:
#     Node 0, Type 0, BuildingBlock: KUFVIS_clean_sbu_0, # of connection points: 4
#     Node 1, Type 0, BuildingBlock: KUFVIS_clean_sbu_0, # of connection points: 4
#     Node 2, Type 0, BuildingBlock: KUFVIS_clean_sbu_0, # of connection points: 4
#     Node 3, Type 0, BuildingBlock: KUFVIS_clean_sbu_0, # of connection points: 4
#     Node 4, Type 0, BuildingBlock: KUFVIS_clean_sbu_0, # of connection points: 4
#     Node 5, Type 0, BuildingBlock: KUFVIS_clean_sbu_0, # of connection points: 4
#     Node 6, Type 0, BuildingBlock: KUFVIS_clean_sbu_0, # of connection points: 4
#     Node 7, Type 0, BuildingBlock: KUFVIS_clean_sbu_0, # of connection points: 4
#     Node 8, Type 0, BuildingBlock: KUFVIS_clean_sbu_0, # of connection points: 4
#     Node 9, Type 0, BuildingBlock: KUFVIS_clean_sbu_0, # of connection points: 4
#     Node 10, Type 0, BuildingBlock: KUFVIS_clean_sbu_0, # of connection points: 4
#     Node 11, Type 0, BuildingBlock: KUFVIS_clean_sbu_0, # of connection points: 4
#     Node 12, Type 0, BuildingBlock: KUFVIS_clean_sbu_0, # of connection points: 4
#     Node 13, Type 0, BuildingBlock: KUFVIS_clean_sbu_0, # of connection points: 4
#     Node 14, Type 0, BuildingBlock: KUFVIS_clean_sbu_0, # of connection points: 4
#     Node 15, Type 0, BuildingBlock: KUFVIS_clean_sbu_0, # of connection points: 4
#     Edge 16, Type (0, 0), BuildingBlock: XUDNAN_clean_linker_2, # of connection points: 2
#     Edge 17, Type (0, 0), BuildingBlock: XUDNAN_clean_linker_2, # of connection points: 2
#     Edge 18, Type (0, 0), BuildingBlock: XUDNAN_clean_linker_2, # of connection points: 2
#     Edge 19, Type (0, 0), BuildingBlock: XUDNAN_clean_linker_2, # of connection points: 2
#     Edge 20, Type (0, 0), BuildingBlock: XUDNAN_clean_linker_2, # of connection points: 2
#     Edge 21, Type (0, 0), BuildingBlock: XUDNAN_clean_linker_2, # of connection points: 2
#     Edge 22, Type (0, 0), BuildingBlock: XUDNAN_clean_linker_2, # of connection points: 2
#     Edge 23, Type (0, 0), BuildingBlock: XUDNAN_clean_linker_2, # of connection points: 2
#     Edge 24, Type (0, 0), BuildingBlock: XUDNAN_clean_linker_2, # of connection points: 2
#     Edge 25, Type (0, 0), BuildingBlock: XUDNAN_clean_linker_2, # of connection points: 2
#     Edge 26, Type (0, 0), BuildingBlock: XUDNAN_clean_linker_2, # of connection points: 2
#     Edge 27, Type (0, 0), BuildingBlock: XUDNAN_clean_linker_2, # of connection points: 2
#     Edge 28, Type (0, 0), BuildingBlock: XUDNAN_clean_linker_2, # of connection points: 2
#     Edge 29, Type (0, 0), BuildingBlock: XUDNAN_clean_linker_2, # of connection points: 2
#     Edge 30, Type (0, 0), BuildingBlock: XUDNAN_clean_linker_2, # of connection points: 2
#     Edge 31, Type (0, 0), BuildingBlock: XUDNAN_clean_linker_2, # of connection points: 2
#     Edge 32, Type (0, 0), BuildingBlock: XUDNAN_clean_linker_2, # of connection points: 2
#     Edge 33, Type (0, 0), BuildingBlock: XUDNAN_clean_linker_2, # of connection points: 2
#     Edge 34, Type (0, 0), BuildingBlock: XUDNAN_clean_linker_2, # of connection points: 2
#     Edge 35, Type (0, 0), BuildingBlock: XUDNAN_clean_linker_2, # of connection points: 2
#     Edge 36, Type (0, 0), BuildingBlock: XUDNAN_clean_linker_2, # of connection points: 2
#     Edge 37, Type (0, 0), BuildingBlock: XUDNAN_clean_linker_2, # of connection points: 2
#     Edge 38, Type (0, 0), BuildingBlock: XUDNAN_clean_linker_2, # of connection points: 2
#     Edge 39, Type (0, 0), BuildingBlock: XUDNAN_clean_linker_2, # of connection points: 2
#     Edge 40, Type (0, 0), BuildingBlock: XUDNAN_clean_linker_2, # of connection points: 2
#     Edge 41, Type (0, 0), BuildingBlock: XUDNAN_clean_linker_2, # of connection points: 2
#     Edge 42, Type (0, 0), BuildingBlock: XUDNAN_clean_linker_2, # of connection points: 2
#     Edge 43, Type (0, 0), BuildingBlock: XUDNAN_clean_linker_2, # of connection points: 2
#     Edge 44, Type (0, 0), BuildingBlock: XUDNAN_clean_linker_2, # of connection points: 2
#     Edge 45, Type (0, 0), BuildingBlock: XUDNAN_clean_linker_2, # of connection points: 2
#     Edge 46, Type (0, 0), BuildingBlock: XUDNAN_clean_linker_2, # of connection points: 2
#     Edge 47, Type (0, 0), BuildingBlock: XUDNAN_clean_linker_2, # of connection points: 2
# Relax obj value: 0.170
# Max RMSD: 0.110
# Mean RMSD: 0.107
data_MOF--net-ure--node1-KUFVIS_clean_sbu_0--edge1-XUDNAN_clean_linker_2
_symmetry_space_group_name_H-M    P1
_symmetry_Int_Tables_number       1
_symmetry_cell_setting            triclinic
loop_
_symmetry_equiv_pos_as_xyz
'x, y, z'
_cell_length_a     27.297756
_cell_length_b     32.326606
_cell_length_c     32.475524
_cell_angle_alpha  90.083296
_cell_angle_beta   89.615417
_cell_angle_gamma 89.751633
loop_
_atom_site_label
_atom_site_type_symbol
_atom_site_fract_x
_atom_site_fract_y
_atom_site_fract_z
_atom_type_partial_charge
Mn0 Mn 0.25799 0.2798 0.28984 0.0
Mn1 Mn 0.28439 0.31903 0.19598 0.0
C2 C 0.33049 0.258 0.25685 0.0
C3 C 0.25917 0.28447 0.36198 0.0
C4 C 0.20696 0.25367 0.21061 0.0
O5 O 0.21347 0.33118 0.28532 0.0
O6 O 0.24728 0.35989 0.22908 0.0
C7 C 0.35691 0.37717 0.22955 0.0
N8 N 0.34275 0.35105 0.19901 0.0
C9 C 0.42123 0.35601 0.16535 0.0
C10 C 0.43635 0.38367 0.19586 0.0
C11 C 0.4045 0.39354 0.2287 0.0
C12 C 0.37439 0.33905 0.16909 0.0
H13 H 0.33235 0.38447 0.2548 0.0
C14 C 0.21893 0.3615 0.26046 0.0
O15 O 0.22656 0.26299 0.34268 0.0
O16 O 0.29063 0.30446 0.33951 0.0
N17 N 0.31997 0.28527 0.15763 0.0
C18 C 0.30475 0.25086 0.13709 0.0
C19 C 0.33339 0.23486 0.10468 0.0
C20 C 0.37706 0.25467 0.09316 0.0
C21 C 0.39173 0.29032 0.11427 0.0
C22 C 0.36105 0.30544 0.14572 0.0
H23 H 0.2711 0.23559 0.14523 0.0
O24 O 0.31133 0.23683 0.28672 0.0
O25 O 0.30599 0.29113 0.247 0.0
O26 O 0.21712 0.24737 0.24839 0.0
O27 O 0.22499 0.28376 0.18987 0.0
C28 C 0.43677 0.31023 0.10681 0.0
C29 C 0.45197 0.34257 0.13292 0.0
H30 H 0.47273 0.39669 0.19468 0.0
H31 H 0.41633 0.41416 0.25291 0.0
H32 H 0.32181 0.20721 0.08873 0.0
H33 H 0.3995 0.24175 0.06867 0.0
H34 H 0.46121 0.29931 0.08269 0.0
H35 H 0.48802 0.35586 0.1287 0.0
Mn36 Mn 0.99309 0.03101 0.53034 0.0
Mn37 Mn 0.96006 0.93924 0.56964 0.0
C38 C 0.92032 1.00048 0.50899 0.0
C39 C 0.99102 0.10378 0.53251 0.0
C40 C 0.04243 0.94873 0.50682 0.0
O41 O 0.03361 0.0268 0.58325 0.0
O42 O 1.00177 0.96856 0.61045 0.0
C43 C 0.89538 0.97192 0.63517 0.0
N44 N 0.90388 0.94468 0.60396 0.0
C45 C 0.82532 0.91301 0.61326 0.0
C46 C 0.81701 0.93882 0.64733 0.0
C47 C 0.8507 0.97017 0.65664 0.0
C48 C 0.86907 0.91803 0.59146 0.0
H49 H 0.92236 0.99486 0.64325 0.0
C50 C 0.02901 1.00071 0.61273 0.0
O51 O 0.0252 0.08386 0.51268 0.0
O52 O 0.95921 0.08169 0.55227 0.0
N53 N 0.91883 0.90767 0.5341 0.0
C54 C 0.92874 0.89153 0.49616 0.0
C55 C 0.89457 0.86508 0.47765 0.0
C56 C 0.85097 0.85508 0.49858 0.0
C57 C 0.84164 0.87209 0.53762 0.0
C58 C 0.87685 0.8985 0.55429 0.0
H59 H 0.96255 0.89856 0.48027 0.0
O60 O 0.943 0.0272 0.48606 0.0
O61 O 0.94198 0.99155 0.54337 0.0
O62 O 0.0365 0.98737 0.50014 0.0
O63 O 0.01792 0.92904 0.53394 0.0
C64 C 0.79862 0.86428 0.56051 0.0
C65 C 0.79059 0.88455 0.59851 0.0
H66 H 0.78348 0.93624 0.66507 0.0
H67 H 0.84308 0.99183 0.68132 0.0
H68 H 0.90201 0.8521 0.44749 0.0
H69 H 0.82481 0.83455 0.48427 0.0
H70 H 0.77095 0.84355 0.54873 0.0
H71 H 0.7566 0.87955 0.61514 0.0
Mn72 Mn 0.24354 0.73001 0.79069 0.0
Mn73 Mn 0.21893 0.6989 0.6944 0.0
C74 C 0.17324 0.75389 0.75875 0.0
C75 C 0.23618 0.7178 0.86184 0.0
C76 C 0.29486 0.76478 0.71363 0.0
O77 O 0.28794 0.67963 0.78297 0.0
O78 O 0.26237 0.65692 0.72129 0.0
C79 C 0.15753 0.62863 0.72037 0.0
N80 N 0.1649 0.6619 0.69551 0.0
C81 C 0.08599 0.6539 0.66435 0.0
C82 C 0.07833 0.61849 0.68838 0.0
C83 C 0.11322 0.60698 0.71788 0.0
C84 C 0.1294 0.67577 0.6702 0.0
H85 H 0.18485 0.61935 0.74247 0.0
C86 C 0.28743 0.65253 0.7543 0.0
O87 O 0.27052 0.74144 0.84712 0.0
O88 O 0.2074 0.70079 0.83533 0.0
N89 N 0.17646 0.73527 0.66462 0.0
C90 C 0.18455 0.77471 0.65156 0.0
C91 C 0.14961 0.79439 0.62669 0.0
C92 C 0.10703 0.77318 0.61512 0.0
C93 C 0.09954 0.7326 0.62889 0.0
C94 C 0.1356 0.71463 0.65367 0.0
H95 H 0.21742 0.79103 0.65994 0.0
O96 O 0.19184 0.77352 0.78976 0.0
O97 O 0.19652 0.72053 0.74752 0.0
O98 O 0.28708 0.76589 0.75259 0.0
O99 O 0.27399 0.73871 0.68988 0.0
C100 C 0.05737 0.70949 0.6196 0.0
C101 C 0.05068 0.67001 0.6372 0.0
H102 H 0.04481 0.60101 0.68563 0.0
H103 H 0.10643 0.58094 0.73798 0.0
H104 H 0.15561 0.82576 0.61626 0.0
H105 H 0.08013 0.7885 0.59601 0.0
H106 H 0.02915 0.7223 0.60004 0.0
H107 H 0.01711 0.6533 0.63138 0.0
Mn108 Mn 0.49859 0.99083 0.06635 0.0
Mn109 Mn 0.53127 0.08749 0.09294 0.0
C110 C 0.57515 0.01554 0.04836 0.0
C111 C 0.50066 0.91987 0.08152 0.0
C112 C 0.46015 0.06944 0.02352 0.0
O113 O 0.45032 1.00483 0.11282 0.0
O114 O 0.47828 0.06809 0.1304 0.0
C115 C 0.5764 0.06278 0.1716 0.0
N116 N 0.5793 0.0838 0.13535 0.0
C117 C 0.66443 0.09922 0.14643 0.0
C118 C 0.66226 0.07779 0.18389 0.0
C119 C 0.61818 0.0592 0.19634 0.0
C120 C 0.62192 0.10086 0.12251 0.0
H121 H 0.54284 0.04783 0.18096 0.0
C122 C 0.44952 0.03722 0.13555 0.0
O123 O 0.46858 0.93479 0.05599 0.0
O124 O 0.52827 0.9463 0.09994 0.0
N125 N 0.58297 0.10947 0.05955 0.0
C126 C 0.58203 0.12029 0.01904 0.0
C127 C 0.62425 0.13676 1.00052 0.0
C128 C 0.66697 0.14181 0.02379 0.0
C129 C 0.66717 0.1303 0.06538 0.0
C130 C 0.62367 0.11486 0.08243 0.0
H131 H 0.54938 0.11623 1.00092 0.0
O132 O 0.55571 0.98574 0.02742 0.0
O133 O 0.5479 0.03094 0.07744 0.0
O134 O 0.46248 0.02985 0.02589 0.0
O135 O 0.48299 0.09358 0.04799 0.0
C136 C 0.70935 0.13199 0.09007 0.0
C137 C 0.70809 0.11616 0.1305 0.0
H138 H 0.69451 0.07467 0.20293 0.0
H139 H 0.61644 0.04209 0.22494 0.0
H140 H 0.62399 0.14528 0.9683 0.0
H141 H 0.69962 0.15387 1.0092 0.0
H142 H 0.74348 0.14378 0.07769 0.0
H143 H 0.7414 0.11561 0.14843 0.0
Mn144 Mn 0.23968 0.72821 0.23239 0.0
Mn145 Mn 0.3022 0.6888 0.31237 0.0
C146 C 0.32271 0.7427 0.24009 0.0
C147 C 0.21565 0.72128 0.1636 0.0
C148 C 0.22962 0.76043 0.32183 0.0
O149 O 0.19675 0.67923 0.25038 0.0
O150 O 0.24361 0.65489 0.30192 0.0
C151 C 0.33333 0.61253 0.26889 0.0
N152 N 0.34451 0.64596 0.29256 0.0
C153 C 0.42964 0.62677 0.29399 0.0
C154 C 0.41894 0.59151 0.2705 0.0
C155 C 0.37067 0.58479 0.25728 0.0
C156 C 0.39107 0.65376 0.30386 0.0
H157 H 0.29625 0.60723 0.25882 0.0
C158 C 0.20617 0.65286 0.27865 0.0
O159 O 0.19195 0.74573 0.18862 0.0
O160 O 0.25186 0.70051 0.17857 0.0
N161 N 0.36093 0.71754 0.32607 0.0
C162 C 0.36627 0.75631 0.34182 0.0
C163 C 0.41304 0.76985 0.35334 0.0
C164 C 0.45359 0.74325 0.34889 0.0
C165 C 0.44715 0.70346 0.33275 0.0
C166 C 0.39972 0.69163 0.32194 0.0
H167 H 0.33507 0.77665 0.34561 0.0
O168 O 0.29505 0.76759 0.21918 0.0
O169 O 0.30032 0.71185 0.25709 0.0
O170 O 0.21774 0.76317 0.2837 0.0
O171 O 0.26025 0.73347 0.33497 0.0
C172 C 0.48614 0.67553 0.3258 0.0
C173 C 0.47741 0.63736 0.30607 0.0
H174 H 0.44764 0.56995 0.26163 0.0
H175 H 0.36207 0.55816 0.23855 0.0
H176 H 0.41786 0.80071 0.36559 0.0
H177 H 0.48964 0.75388 0.35728 0.0
H178 H 0.52324 0.68377 0.33403 0.0
H179 H 0.50786 0.61711 0.29884 0.0
Mn180 Mn 0.48296 0.05147 0.49078 0.0
Mn181 Mn 0.5205 0.96014 0.45154 0.0
C182 C 0.56328 0.02999 0.50012 0.0
C183 C 0.47139 0.1227 0.48218 0.0
C184 C 0.45359 0.96691 0.52669 0.0
O185 O 0.43218 0.03893 0.44648 0.0
O186 O 0.46555 0.98173 0.41794 0.0
C187 C 0.56094 0.9945 0.37432 0.0
N188 N 0.56614 0.96966 0.40787 0.0
C189 C 0.64958 0.95359 0.38952 0.0
C190 C 0.64487 0.97854 0.35448 0.0
C191 C 0.60074 0.99978 0.34728 0.0
C192 C 0.60924 0.95082 0.4162 0.0
H193 H 0.52702 1.0108 0.36873 0.0
C194 C 0.43408 1.01126 0.41829 0.0
O195 O 0.44558 0.10191 0.50871 0.0
O196 O 0.50326 0.10228 0.46048 0.0
N197 N 0.57476 0.93634 0.48027 0.0
C198 C 0.5766 0.92142 0.51944 0.0
C199 C 0.61974 0.90236 0.53338 0.0
C200 C 0.66043 0.89874 0.50689 0.0
C201 C 0.65786 0.91471 0.46686 0.0
C202 C 0.61369 0.93288 0.45449 0.0
H203 H 0.54536 0.92389 0.53986 0.0
O204 O 0.54372 0.05671 0.5253 0.0
O205 O 0.53442 0.01577 0.472 0.0
O206 O 0.45474 1.00643 0.52933 0.0
O207 O 0.47455 0.94687 0.49744 0.0
C208 C 0.69779 0.91426 0.43914 0.0
C209 C 0.69369 0.93381 0.40051 0.0
H210 H 0.67488 0.98175 0.33289 0.0
H211 H 0.59713 0.01946 0.32053 0.0
H212 H 0.62163 0.89045 0.56446 0.0
H213 H 0.69369 0.88418 0.51781 0.0
H214 H 0.73236 0.90028 0.4478 0.0
H215 H 0.72524 0.93474 0.38018 0.0
Mn216 Mn 0.26853 0.28717 0.73667 0.0
Mn217 Mn 0.22285 0.3218 0.82719 0.0
C218 C 0.19082 0.26679 0.75847 0.0
C219 C 0.28093 0.29069 0.6651 0.0
C220 C 0.29847 0.25318 0.82186 0.0
O221 O 0.31141 0.33779 0.74793 0.0
O222 O 0.27647 0.35814 0.80764 0.0
C223 C 0.17723 0.39636 0.79085 0.0
N224 N 0.1751 0.36351 0.81692 0.0
C225 C 0.09474 0.38278 0.8406 0.0
C226 C 0.09605 0.41726 0.81443 0.0
C227 C 0.13685 0.42332 0.78846 0.0
C228 C 0.13431 0.35532 0.83902 0.0
H229 H 0.20929 0.40161 0.7719 0.0
C230 C 0.30769 0.36263 0.77846 0.0
O231 O 0.30959 0.26955 0.68889 0.0
O232 O 0.24618 0.31175 0.68297 0.0
N233 N 0.17004 0.29111 0.85086 0.0
C234 C 0.17009 0.25202 0.86643 0.0
C235 C 0.12943 0.23833 0.88935 0.0
C236 C 0.08988 0.26535 0.89696 0.0
C237 C 0.09083 0.30552 0.88074 0.0
C238 C 0.13181 0.31705 0.85744 0.0
H239 H 0.20115 0.23168 0.86181 0.0
O240 O 0.21613 0.24467 0.73256 0.0
O241 O 0.21183 0.30038 0.77133 0.0
O242 O 0.30178 0.25329 0.78261 0.0
O243 O 0.27077 0.27813 0.84177 0.0
C244 C 0.05281 0.33465 0.88665 0.0
C245 C 0.05455 0.37317 0.86626 0.0
H246 H 0.06542 0.43865 0.81327 0.0
H247 H 0.13782 0.44944 0.76769 0.0
H248 H 0.12896 0.20728 0.90178 0.0
H249 H 0.05887 0.25485 0.91506 0.0
H250 H 0.02131 0.3273 0.90566 0.0
H251 H 0.0238 0.39425 0.86898 0.0
Mn252 Mn 0.99977 0.98542 0.97984 0.0
Mn253 Mn 0.96624 0.08327 0.95654 0.0
C254 C 0.93008 0.0148 1.00968 0.0
C255 C 0.99517 0.91347 0.96784 0.0
C256 C 0.04831 0.06348 0.01563 0.0
O257 O 0.03822 0.99644 0.92634 0.0
O258 O 0.0103 0.06074 0.91313 0.0
C259 C 0.90457 0.05997 0.88584 0.0
N260 N 0.91136 0.08238 0.92078 0.0
C261 C 0.83269 0.11517 0.91445 0.0
C262 C 0.82532 0.09345 0.87761 0.0
C263 C 0.86041 0.06429 0.86435 0.0
C264 C 0.8757 0.10712 0.93612 0.0
H265 H 0.93229 0.03853 0.87503 0.0
C266 C 0.03622 0.02891 0.90387 0.0
O267 O 0.03172 0.92955 0.98756 0.0
O268 O 0.96315 0.93923 0.95341 0.0
N269 N 0.9231 0.10968 0.9952 0.0
C270 C 0.9317 0.12123 0.03486 0.0
C271 C 0.89687 0.14564 0.05585 0.0
C272 C 0.8542 0.15867 0.03555 0.0
C273 C 0.84636 0.14656 0.99465 0.0
C274 C 0.88196 0.12172 0.97558 0.0
H275 H 0.96499 0.1121 0.05024 0.0
O276 O 0.95223 0.98385 0.02697 0.0
O277 O 0.94935 0.02772 0.97547 0.0
O278 O 0.04498 0.024 0.01354 0.0
O279 O 0.02183 0.08793 0.99444 0.0
C280 C 0.80461 0.15805 0.97201 0.0
C281 C 0.79774 0.14235 0.93187 0.0
H282 H 0.79171 0.09733 0.86045 0.0
H283 H 0.85372 0.04557 0.83736 0.0
H284 H 0.90319 0.15487 0.08742 0.0
H285 H 0.82764 0.17779 0.05171 0.0
H286 H 0.7771 0.17821 0.98552 0.0
H287 H 0.76447 0.14989 0.91544 0.0
Mn288 Mn 0.75327 0.23763 0.72394 0.0
Mn289 Mn 0.79538 0.20271 0.81481 0.0
C290 C 0.83269 0.25212 0.74427 0.0
C291 C 0.74715 0.23215 0.65197 0.0
C292 C 0.72333 0.27447 0.80885 0.0
O293 O 0.70694 0.18888 0.73641 0.0
O294 O 0.73936 0.16835 0.797 0.0
C295 C 0.83463 0.12454 0.78009 0.0
N296 N 0.84102 0.15897 0.80371 0.0
C297 C 0.92625 0.14261 0.81358 0.0
C298 C 0.92033 0.10657 0.79006 0.0
C299 C 0.87451 0.09789 0.77266 0.0
C300 C 0.88545 0.16855 0.81913 0.0
H301 H 0.7996 0.1179 0.76639 0.0
C302 C 0.70863 0.16452 0.76759 0.0
O303 O 0.71749 0.25561 0.67312 0.0
O304 O 0.77758 0.20978 0.67272 0.0
N305 N 0.85064 0.23257 0.83499 0.0
C306 C 0.85282 0.27238 0.84867 0.0
C307 C 0.89731 0.28782 0.86361 0.0
C308 C 0.93896 0.26219 0.86431 0.0
C309 C 0.93594 0.22147 0.84982 0.0
C310 C 0.89045 0.20752 0.83592 0.0
H311 H 0.82091 0.29221 0.84803 0.0
O312 O 0.81038 0.27668 0.719 0.0
O313 O 0.80649 0.22204 0.75866 0.0
O314 O 0.72099 0.27415 0.76941 0.0
O315 O 0.74949 0.24869 0.82908 0.0
C316 C 0.97672 0.19472 0.84718 0.0
C317 C 0.97191 0.15541 0.82886 0.0
H318 H 0.95101 0.08594 0.78427 0.0
H319 H 0.86985 0.07054 0.75384 0.0
H320 H 0.89958 0.31945 0.87438 0.0
H321 H 0.97332 0.27424 0.87536 0.0
H322 H 0.0124 0.20474 0.85755 0.0
H323 H 0.00402 0.13608 0.82494 0.0
Mn324 Mn 0.00886 0.53598 0.98097 0.0
Mn325 Mn 0.06428 0.45127 0.94145 0.0
C326 C 0.08597 0.51599 1.00442 0.0
C327 C 0.99348 0.60776 0.9777 0.0
C328 C 0.98145 0.44613 1.00412 0.0
O329 O 0.97061 0.52612 0.92772 0.0
O330 O 0.01211 0.47061 0.90413 0.0
C331 C 0.11246 0.49592 0.87277 0.0
N332 N 0.11434 0.46801 0.90405 0.0
C333 C 0.19638 0.44786 0.88612 0.0
C334 C 0.19538 0.47581 0.85307 0.0
C335 C 0.1537 0.50084 0.8471 0.0
C336 C 0.15563 0.44668 0.91226 0.0
H337 H 0.07959 0.5138 0.86734 0.0
C338 C 0.97821 0.49772 0.90103 0.0
O339 O 0.96362 0.58278 0.99649 0.0
O340 O 0.03172 0.59113 0.96055 0.0
N341 N 0.11609 0.42742 0.97283 0.0
C342 C 0.11379 0.40757 1.00974 0.0
C343 C 0.15441 0.38447 0.02309 0.0
C344 C 0.19615 0.38086 0.99769 0.0
C345 C 0.19741 0.4013 0.95963 0.0
C346 C 0.15646 0.42482 0.94861 0.0
H347 H 0.08093 0.40887 0.02843 0.0
O348 O 0.05754 0.53938 0.02674 0.0
O349 O 0.06838 0.5049 0.96908 0.0
O350 O 0.9749 0.48521 1.00874 0.0
O351 O 0.01382 0.43079 0.97989 0.0
C352 C 0.23729 0.39893 0.93188 0.0
C353 C 0.23682 0.42233 0.89518 0.0
H354 H 0.2266 0.47871 0.83251 0.0
H355 H 0.15277 0.52275 0.82194 0.0
H356 H 0.1531 0.36863 0.05241 0.0
H357 H 0.22689 0.36221 1.00768 0.0
H358 H 0.26896 0.37999 0.93878 0.0
H359 H 0.26844 0.42173 0.87501 0.0
Mn360 Mn 0.75554 0.78847 0.2399 0.0
Mn361 Mn 0.70558 0.83032 0.32489 0.0
C362 C 0.67815 0.76686 0.26129 0.0
C363 C 0.76686 0.78936 0.16857 0.0
C364 C 0.78788 0.76643 0.32717 0.0
O365 O 0.79538 0.84141 0.24753 0.0
O366 O 0.75363 0.8696 0.30062 0.0
C367 C 0.65109 0.89861 0.28559 0.0
N368 N 0.65257 0.8662 0.31222 0.0
C369 C 0.57116 0.88023 0.33677 0.0
C370 C 0.56906 0.91443 0.31037 0.0
C371 C 0.60838 0.92276 0.2835 0.0
C372 C 0.61337 0.85583 0.33544 0.0
H373 H 0.68228 0.9059 0.26632 0.0
C374 C 0.78647 0.87132 0.27231 0.0
O375 O 0.79695 0.76963 0.19244 0.0
O376 O 0.73146 0.80967 0.18608 0.0
N377 N 0.65769 0.79671 0.35181 0.0
C378 C 0.66314 0.75911 0.37012 0.0
C379 C 0.62468 0.7432 0.39423 0.0
C380 C 0.5816 0.76656 0.4 0.0
C381 C 0.57691 0.8052 0.38079 0.0
C382 C 0.61602 0.81895 0.35645 0.0
H383 H 0.69678 0.74169 0.36679 0.0
O384 O 0.70598 0.74371 0.23828 0.0
O385 O 0.69701 0.80223 0.27189 0.0
O386 O 0.7903 0.75924 0.28854 0.0
O387 O 0.75916 0.79356 0.34268 0.0
C388 C 0.53509 0.83071 0.38483 0.0
C389 C 0.53225 0.86831 0.36287 0.0
H390 H 0.53722 0.93422 0.31021 0.0
H391 H 0.60654 0.94877 0.26262 0.0
H392 H 0.62855 0.71335 0.40893 0.0
H393 H 0.55231 0.75444 0.41908 0.0
H394 H 0.5045 0.82127 0.40397 0.0
H395 H 0.4993 0.88701 0.36504 0.0
Mn396 Mn 0.98009 0.47918 0.53508 0.0
Mn397 Mn 0.03108 0.56146 0.58197 0.0
C398 C 0.06199 0.49623 0.52258 0.0
C399 C 0.96328 0.40773 0.53385 0.0
C400 C 0.95588 0.56951 0.51359 0.0
O401 O 0.93491 0.48911 0.5854 0.0
O402 O 0.97788 0.53961 0.61672 0.0
C403 C 0.07477 0.5196 0.65384 0.0
N404 N 0.07955 0.54476 0.62047 0.0
C405 C 0.16367 0.55903 0.63629 0.0
C406 C 0.15945 0.53375 0.6712 0.0
C407 C 0.11515 0.51336 0.67961 0.0
C408 C 0.12256 0.56316 0.61119 0.0
H409 H 0.04036 0.50471 0.66081 0.0
C410 C 0.94295 0.51337 0.61596 0.0
O411 O 0.93793 0.43401 0.51244 0.0
O412 O 0.9972 0.423 0.55698 0.0
N413 N 0.08405 0.5852 0.55145 0.0
C414 C 0.08323 0.60467 0.51429 0.0
C415 C 0.12564 0.62453 0.49987 0.0
C416 C 0.16808 0.62465 0.52409 0.0
C417 C 0.16812 0.60417 0.56205 0.0
C418 C 0.12489 0.58474 0.5747 0.0
H419 H 0.05038 0.60537 0.49598 0.0
O420 O 0.03795 0.47474 0.4957 0.0
O421 O 0.03682 0.50817 0.55428 0.0
O422 O 0.95236 0.53104 0.50462 0.0
O423 O 0.98265 0.58264 0.5428 0.0
C424 C 0.20933 0.60222 0.58783 0.0
C425 C 0.20702 0.57985 0.62504 0.0
H426 H 0.18939 0.53066 0.69241 0.0
H427 H 0.11172 0.49393 0.70656 0.0
H428 H 0.12549 0.6401 0.4704 0.0
H429 H 0.20053 0.64033 0.51315 0.0
H430 H 0.24316 0.61737 0.5791 0.0
H431 H 0.23899 0.57863 0.64441 0.0
Mn432 Mn 0.52299 0.54701 0.04625 0.0
Mn433 Mn 0.48488 0.4536 0.07887 0.0
C434 C 0.44365 0.52621 0.03226 0.0
C435 C 0.53237 0.6179 0.05827 0.0
C436 C 0.55645 0.46448 1.00712 0.0
O437 O 0.57044 0.53308 0.09262 0.0
O438 O 0.5373 0.47381 0.11595 0.0
C439 C 0.44122 0.47965 0.15852 0.0
N440 N 0.437 0.45982 0.12165 0.0
C441 C 0.35269 0.44319 0.13568 0.0
C442 C 0.35624 0.46333 0.17381 0.0
C443 C 0.40063 0.48183 0.18515 0.0
C444 C 0.39427 0.44243 0.11015 0.0
H445 H 0.47509 0.49412 0.1674 0.0
C446 C 0.56697 0.50425 0.1194 0.0
O447 O 0.56051 0.59828 0.03232 0.0
O448 O 0.49953 0.59645 0.07754 0.0
N449 N 0.43247 0.43176 0.04666 0.0
C450 C 0.43278 0.41969 1.00645 0.0
C451 C 0.39022 0.40273 0.98933 0.0
C452 C 0.34789 0.39835 0.01372 0.0
C453 C 0.34828 0.41126 0.05491 0.0
C454 C 0.39189 0.42751 0.07042 0.0
H455 H 0.46523 0.42296 0.98757 0.0
O456 O 0.46504 0.55345 1.00899 0.0
O457 O 0.47069 0.51046 0.06108 0.0
O458 O 0.55498 0.50406 1.00701 0.0
O459 O 0.53359 0.44282 0.03394 0.0
C460 C 0.30674 0.40958 0.08086 0.0
C461 C 0.30891 0.42562 0.12121 0.0
H462 H 0.32522 0.4647 0.19468 0.0
H463 H 0.40382 0.49711 0.21464 0.0
H464 H 0.39002 0.39307 0.95741 0.0
H465 H 0.31515 0.38539 1.00045 0.0
H466 H 0.27255 0.39705 0.06974 0.0
H467 H 0.27633 0.42533 0.14043 0.0
Mn468 Mn 0.73856 0.79529 0.79684 0.0
Mn469 Mn 0.77997 0.83166 0.70608 0.0
C470 C 0.81771 0.78004 0.77461 0.0
C471 C 0.72913 0.79804 0.86828 0.0
C472 C 0.7064 0.7619 0.71251 0.0
O473 O 0.69296 0.8452 0.78587 0.0
O474 O 0.72829 0.86927 0.72761 0.0
C475 C 0.82717 0.90641 0.73977 0.0
N476 N 0.82942 0.87188 0.71571 0.0
C477 C 0.91332 0.88514 0.69735 0.0
C478 C 0.91105 0.92195 0.72014 0.0
C479 C 0.86844 0.93195 0.74262 0.0
C480 C 0.8714 0.86048 0.69643 0.0
H481 H 0.79408 0.91446 0.75639 0.0
C482 C 0.69761 0.87265 0.75749 0.0
O483 O 0.70057 0.77591 0.84542 0.0
O484 O 0.76104 0.82108 0.84952 0.0
N485 N 0.83147 0.79871 0.6825 0.0
C486 C 0.82982 0.75926 0.66775 0.0
C487 C 0.87148 0.74217 0.64851 0.0
C488 C 0.91421 0.76589 0.64434 0.0
C489 C 0.91513 0.80632 0.65996 0.0
C490 C 0.87246 0.82174 0.67871 0.0
H491 H 0.79695 0.74101 0.67052 0.0
O492 O 0.79574 0.75555 0.80033 0.0
O493 O 0.79175 0.81086 0.7616 0.0
O494 O 0.70679 0.76003 0.75172 0.0
O495 O 0.73018 0.78918 0.69228 0.0
C496 C 0.95698 0.83164 0.65838 0.0
C497 C 0.95602 0.87111 0.67697 0.0
H498 H 0.94129 0.94327 0.71978 0.0
H499 H 0.86683 0.96004 0.76076 0.0
H500 H 0.87062 0.71083 0.63677 0.0
H501 H 0.94627 0.7526 0.62951 0.0
H502 H 0.99045 0.82065 0.64389 0.0
H503 H 0.98881 0.88976 0.67655 0.0
Mn504 Mn 0.76261 0.24606 0.27791 0.0
Mn505 Mn 0.70796 0.19727 0.19871 0.0
C506 C 0.6863 0.26987 0.25521 0.0
C507 C 0.77561 0.24661 0.34959 0.0
C508 C 0.79063 0.25964 0.18664 0.0
O509 O 0.80277 0.19224 0.2723 0.0
O510 O 0.75767 0.1616 0.22383 0.0
C511 C 0.65712 0.14307 0.25826 0.0
N512 N 0.65588 0.16682 0.22365 0.0
C513 C 0.56896 0.15769 0.2173 0.0
C514 C 0.56932 0.13227 0.25227 0.0
C515 C 0.61353 0.12545 0.27323 0.0
C516 C 0.61311 0.17601 0.20522 0.0
H517 H 0.69114 0.13784 0.27429 0.0
C518 C 0.79297 0.16161 0.24908 0.0
O519 O 0.80567 0.2649 0.32432 0.0
O520 O 0.73872 0.22797 0.33322 0.0
N521 N 0.658 0.22414 0.16754 0.0
C522 C 0.66449 0.24858 0.13374 0.0
C523 C 0.62462 0.25702 0.10787 0.0
C524 C 0.57894 0.23874 0.11581 0.0
C525 C 0.57368 0.21189 0.14938 0.0
C526 C 0.61473 0.20472 0.17406 0.0
H527 H 0.70001 0.26123 0.12633 0.0
O528 O 0.71309 0.29261 0.27884 0.0
O529 O 0.7046 0.23375 0.24662 0.0
O530 O 0.79532 0.26949 0.22486 0.0
O531 O 0.76086 0.23165 0.17377 0.0
C532 C 0.52955 0.19144 0.159 0.0
C533 C 0.52675 0.1654 0.19377 0.0
H534 H 0.53597 0.11781 0.26323 0.0
H535 H 0.61413 0.10619 0.30046 0.0
H536 H 0.62933 0.27698 0.08142 0.0
H537 H 0.54834 0.24518 0.09571 0.0
H538 H 0.49733 0.19602 0.14023 0.0
H539 H 0.49224 0.15091 0.20167 0.0
Mn540 Mn 0.49027 0.49736 0.48141 0.0
Mn541 Mn 0.45765 0.59441 0.45639 0.0
C542 C 0.41805 0.52506 0.50774 0.0
C543 C 0.48617 0.42608 0.4674 0.0
C544 C 0.53625 0.57545 0.51933 0.0
O545 O 0.532 0.50847 0.43051 0.0
O546 O 0.5054 0.57256 0.41481 0.0
C547 C 0.40183 0.56929 0.38314 0.0
N548 N 0.40543 0.59241 0.41798 0.0
C549 C 0.32461 0.62048 0.40907 0.0
C550 C 0.32048 0.59789 0.37238 0.0
C551 C 0.35839 0.57081 0.3604 0.0
C552 C 0.36732 0.6153 0.43199 0.0
H553 H 0.43133 0.54899 0.37358 0.0
C554 C 0.53177 0.54043 0.40752 0.0
O555 O 0.52132 0.44122 0.48961 0.0
O556 O 0.45542 0.45237 0.45222 0.0
N557 N 0.41116 0.61989 0.4929 0.0
C558 C 0.41669 0.63156 0.53291 0.0
C559 C 0.37922 0.65427 0.55254 0.0
C560 C 0.33685 0.66521 0.53065 0.0
C561 C 0.33206 0.65284 0.48947 0.0
C562 C 0.37045 0.63007 0.47167 0.0
H563 H 0.44955 0.62383 0.54962 0.0
O564 O 0.44042 0.49489 0.52612 0.0
O565 O 0.43953 0.53884 0.47465 0.0
O566 O 0.53316 0.53594 0.5172 0.0
O567 O 0.51063 0.59974 0.49711 0.0
C568 C 0.29054 0.66183 0.46545 0.0
C569 C 0.28667 0.64545 0.42529 0.0
H570 H 0.28724 0.59933 0.35441 0.0
H571 H 0.35413 0.55114 0.33375 0.0
H572 H 0.38316 0.66365 0.58435 0.0
H573 H 0.30809 0.6828 0.54587 0.0
H574 H 0.26084 0.68039 0.47792 0.0
H575 H 0.25354 0.65079 0.40786 0.0
H576 H 0.17217 0.25506 0.13055 0.0
H577 H 0.17924 0.17759 0.23957 0.0
H578 H 0.14489 0.11951 0.20028 0.0
H579 H 0.05684 0.21361 0.09229 0.0
H580 H 0.07579 0.21697 0.03913 0.0
H581 H 0.09993 0.25267 0.07637 0.0
H582 H 0.18806 0.23093 0.05516 0.0
H583 H 0.16413 0.19451 0.01847 0.0
H584 H 0.20571 0.17722 0.05782 0.0
H585 H 0.11422 0.06794 0.14796 0.0
H586 H 0.07713 0.03053 0.0895 0.0
H587 H 0.08736 0.14166 0.01518 0.0
C588 C 0.16576 0.22614 0.14642 0.0
C589 C 0.17858 0.22124 0.18838 0.0
C590 C 0.16965 0.18256 0.20765 0.0
C591 C 0.1505 0.14909 0.18545 0.0
C592 C 0.1399 0.15458 0.14392 0.0
C593 C 0.14628 0.19237 0.12477 0.0
C594 C 0.13106 0.19018 0.07995 0.0
C595 C 0.08836 0.22013 0.07146 0.0
C596 C 0.17485 0.19871 0.05116 0.0
C597 C 0.11491 0.14537 0.07704 0.0
C598 C 0.12107 0.12517 0.11409 0.0
C599 C 0.10902 0.0835 0.11883 0.0
C600 C 0.08843 0.06233 0.0853 0.0
C601 C 0.07943 0.08298 0.04765 0.0
C602 C 0.09387 0.12487 0.04347 0.0
H603 H 0.05084 0.9362 0.42225 0.0
H604 H 0.11627 0.90391 0.53918 0.0
H605 H 0.17279 0.85567 0.5037 0.0
H606 H 0.05264 0.83382 0.38174 0.0
H607 H 0.06653 0.84819 0.32935 0.0
H608 H 0.03437 0.88386 0.36266 0.0
H609 H 0.10037 0.93946 0.34896 0.0
H610 H 0.13258 0.90406 0.31533 0.0
H611 H 0.1639 0.92735 0.35814 0.0
H612 H 0.21899 0.80863 0.45742 0.0
H613 H 0.25279 0.76411 0.40332 0.0
H614 H 0.15742 0.82264 0.3136 0.0
C615 C 0.07813 0.91982 0.44004 0.0
C616 C 0.08009 0.92462 0.48349 0.0
C617 C 0.11481 0.90132 0.50594 0.0
C618 C 0.14697 0.87375 0.48601 0.0
C619 C 0.14377 0.86915 0.4434 0.0
C620 C 0.11033 0.8914 0.42049 0.0
C621 C 0.11286 0.87806 0.37536 0.0
C622 C 0.06367 0.85991 0.36146 0.0
C623 C 0.12835 0.9144 0.34782 0.0
C624 C 0.15268 0.84478 0.37668 0.0
C625 C 0.16994 0.84061 0.41638 0.0
C626 C 0.2059 0.81175 0.42619 0.0
C627 C 0.22487 0.78638 0.39488 0.0
C628 C 0.2081 0.78938 0.3536 0.0
C629 C 0.17138 0.81937 0.34455 0.0
H630 H 0.42137 0.88578 0.52479 0.0
H631 H 0.43169 0.99254 0.60541 0.0
H632 H 0.39707 0.95141 0.66261 0.0
H633 H 0.30518 0.84954 0.56538 0.0
H634 H 0.32104 0.79562 0.55993 0.0
H635 H 0.34765 0.83327 0.52574 0.0
H636 H 0.43439 0.80808 0.54617 0.0
H637 H 0.40788 0.77068 0.58074 0.0
H638 H 0.45148 0.80773 0.59969 0.0
H639 H 0.36318 0.89766 0.71212 0.0
H640 H 0.32411 0.83866 0.74745 0.0
H641 H 0.33199 0.76751 0.63408 0.0
C642 C 0.41627 0.9006 0.55444 0.0
C643 C 0.42949 0.94263 0.5604 0.0
C644 C 0.42174 0.96065 0.59977 0.0
C645 C 0.40235 0.93738 0.63262 0.0
C646 C 0.39022 0.89604 0.62579 0.0
C647 C 0.39621 0.87796 0.58748 0.0
C648 C 0.37839 0.83343 0.58792 0.0
C649 C 0.33552 0.82765 0.55797 0.0
C650 C 0.42055 0.80321 0.57805 0.0
C651 C 0.36155 0.82927 0.63245 0.0
C652 C 0.36929 0.86557 0.6539 0.0
C653 C 0.35687 0.86915 0.69553 0.0
C654 C 0.33493 0.83523 0.71548 0.0
C655 C 0.32491 0.79809 0.69385 0.0
C656 C 0.33915 0.79522 0.65178 0.0
H657 H 0.41963 0.14763 0.02078 0.0
H658 H 0.43963 0.0363 0.94769 0.0
H659 H 0.40228 0.07155 0.88795 0.0
H660 H 0.30057 0.17599 0.97705 0.0
H661 H 0.3133 0.2306 0.97989 0.0
H662 H 0.34076 0.19558 0.0162 0.0
H663 H 0.42674 0.22314 0.9953 0.0
H664 H 0.39888 0.25742 0.9585 0.0
H665 H 0.44534 0.22111 0.94199 0.0
H666 H 0.36797 0.12104 0.83449 0.0
H667 H 0.32977 0.1773 0.79428 0.0
H668 H 0.32704 0.25506 0.90332 0.0
C669 C 0.41575 0.13049 0.99232 0.0
C670 C 0.43268 0.08905 0.98902 0.0
C671 C 0.42665 0.06782 0.9512 0.0
C672 C 0.40577 0.08774 0.91697 0.0
C673 C 0.39031 0.12878 0.92109 0.0
C674 C 0.39416 0.14965 0.95807 0.0
C675 C 0.37366 0.19329 0.95466 0.0
C676 C 0.32941 0.19922 0.98365 0.0
C677 C 0.41353 0.22564 0.96311 0.0
C678 C 0.3582 0.19393 0.90984 0.0
C679 C 0.36866 0.15658 0.89089 0.0
C680 C 0.35921 0.15024 0.84919 0.0
C681 C 0.33778 0.18255 0.82648 0.0
C682 C 0.32523 0.2207 0.8455 0.0
C683 C 0.33589 0.22627 0.88781 0.0
H684 H 0.69175 0.27395 0.89046 0.0
H685 H 0.6944 0.35073 0.78098 0.0
H686 H 0.6546 0.4074 0.82003 0.0
H687 H 0.57152 0.30883 0.92635 0.0
H688 H 0.58766 0.30691 0.98005 0.0
H689 H 0.61722 0.27256 0.9438 0.0
H690 H 0.70187 0.2995 0.96684 0.0
H691 H 0.67249 0.33408 1.00298 0.0
H692 H 0.71433 0.35419 0.96485 0.0
H693 H 0.61798 0.45749 0.87201 0.0
H694 H 0.57911 0.49431 0.9304 0.0
H695 H 0.59392 0.38422 1.0057 0.0
C696 C 0.68384 0.30265 0.87464 0.0
C697 C 0.69652 0.30769 0.83239 0.0
C698 C 0.68501 0.34578 0.81305 0.0
C699 C 0.66257 0.37834 0.83512 0.0
C700 C 0.65092 0.37247 0.87663 0.0
C701 C 0.66042 0.33533 0.89609 0.0
C702 C 0.6425 0.33673 0.94065 0.0
C703 C 0.60234 0.30434 0.94813 0.0
C704 C 0.68536 0.33078 0.97059 0.0
C705 C 0.62183 0.38054 0.94325 0.0
C706 C 0.62769 0.40073 0.90607 0.0
C707 C 0.6129 0.4418 0.90113 0.0
C708 C 0.59102 0.46261 0.93468 0.0
C709 C 0.58318 0.44243 0.9729 0.0
C710 C 0.59904 0.40067 0.97699 0.0
H711 H 0.94241 0.44862 0.08412 0.0
H712 H 0.94877 0.37384 0.97307 0.0
H713 H 0.90156 0.31919 1.00763 0.0
H714 H 0.958 0.36353 0.15436 0.0
H715 H 0.91662 0.38342 0.19315 0.0
H716 H 0.9486 0.41854 0.15947 0.0
H717 H 0.86606 0.45079 0.13695 0.0
H718 H 0.83386 0.41598 0.17083 0.0
H719 H 0.81875 0.41778 0.11691 0.0
H720 H 0.85495 0.27179 0.05339 0.0
H721 H 0.81109 0.23431 0.10813 0.0
H722 H 0.83586 0.33662 0.19221 0.0
C723 C 0.93312 0.42101 0.06701 0.0
C724 C 0.94917 0.41576 0.02566 0.0
C725 C 0.93705 0.3787 1.00467 0.0
C726 C 0.91015 0.34738 0.02405 0.0
C727 C 0.89568 0.35301 0.06484 0.0
C728 C 0.90661 0.38878 0.08626 0.0
C729 C 0.88775 0.38578 0.13046 0.0
C730 C 0.93028 0.38795 0.16117 0.0
C731 C 0.84932 0.41959 0.1393 0.0
C732 C 0.86459 0.34293 0.13027 0.0
C733 C 0.86955 0.32482 0.09192 0.0
C734 C 0.85085 0.28567 0.08357 0.0
C735 C 0.82592 0.26454 0.11501 0.0
C736 C 0.81999 0.28219 0.15477 0.0
C737 C 0.8401 0.32194 0.16241 0.0
H738 H 0.91525 0.56671 0.43395 0.0
H739 H 0.93545 0.64725 0.53983 0.0
H740 H 0.89892 0.70481 0.50215 0.0
H741 H 0.94189 0.64373 0.35644 0.0
H742 H 0.89543 0.62721 0.32091 0.0
H743 H 0.92258 0.59047 0.35577 0.0
H744 H 0.83669 0.57144 0.38398 0.0
H745 H 0.80927 0.60778 0.34888 0.0
H746 H 0.79691 0.61178 0.40333 0.0
H747 H 0.86278 0.75466 0.45475 0.0
H748 H 0.82173 0.79391 0.40028 0.0
H749 H 0.82167 0.68458 0.32231 0.0
C750 C 0.91143 0.59633 0.44925 0.0
C751 C 0.92882 0.60209 0.49003 0.0
C752 C 0.92318 0.64165 0.50867 0.0
C753 C 0.90236 0.67484 0.48748 0.0
C754 C 0.88682 0.66855 0.44735 0.0
C755 C 0.8904 0.6304 0.42829 0.0
C756 C 0.86994 0.63298 0.38471 0.0
C757 C 0.90985 0.623 0.35256 0.0
C758 C 0.82556 0.60429 0.37995 0.0
C759 C 0.85462 0.67843 0.38263 0.0
C760 C 0.86509 0.69806 0.41931 0.0
C761 C 0.85423 0.73965 0.42588 0.0
C762 C 0.8309 0.76174 0.3946 0.0
C763 C 0.81844 0.74255 0.35683 0.0
C764 C 0.83128 0.70033 0.35055 0.0
H765 H 0.57299 0.65467 0.52024 0.0
H766 H 0.56922 0.54126 0.59154 0.0
H767 H 0.61174 0.57678 0.64849 0.0
H768 H 0.69462 0.68782 0.55442 0.0
H769 H 0.67783 0.74181 0.555 0.0
H770 H 0.64878 0.70695 0.51947 0.0
H771 H 0.56382 0.72914 0.54791 0.0
H772 H 0.59256 0.76369 0.58387 0.0
H773 H 0.55111 0.72447 0.60225 0.0
H774 H 0.64815 0.62655 0.70009 0.0
H775 H 0.6852 0.68381 0.73917 0.0
H776 H 0.67002 0.76419 0.63304 0.0
C777 C 0.58169 0.63706 0.5476 0.0
C778 C 0.56769 0.59498 0.55129 0.0
C779 C 0.57986 0.57326 0.5877 0.0
C780 C 0.60374 0.59332 0.62036 0.0
C781 C 0.61593 0.63501 0.61604 0.0
C782 C 0.60617 0.65643 0.58024 0.0
C783 C 0.62338 0.701 0.58333 0.0
C784 C 0.66355 0.7099 0.55115 0.0
C785 C 0.58014 0.73135 0.5791 0.0
C786 C 0.64381 0.7015 0.62671 0.0
C787 C 0.63864 0.66322 0.64516 0.0
C788 C 0.65285 0.65648 0.68575 0.0
C789 C 0.67358 0.68938 0.70784 0.0
C790 C 0.68066 0.72864 0.68932 0.0
C791 C 0.66541 0.73458 0.6481 0.0
H792 H 0.25931 0.34538 0.42277 0.0
H793 H 0.27082 0.21306 0.4024 0.0
H794 H 0.28145 0.20198 0.47689 0.0
H795 H 0.34421 0.35386 0.5106 0.0
H796 H 0.30591 0.39095 0.53698 0.0
H797 H 0.30504 0.38797 0.48157 0.0
H798 H 0.21037 0.37808 0.48641 0.0
H799 H 0.21303 0.37921 0.54178 0.0
H800 H 0.18621 0.3355 0.51595 0.0
H801 H 0.2971 0.20481 0.5513 0.0
H802 H 0.29961 0.21918 0.62568 0.0
H803 H 0.26643 0.34846 0.6025 0.0
C804 C 0.26458 0.31424 0.43422 0.0
C805 C 0.26504 0.27995 0.40696 0.0
C806 C 0.27061 0.23957 0.42286 0.0
C807 C 0.27681 0.23302 0.46506 0.0
C808 C 0.27676 0.26719 0.4912 0.0
C809 C 0.26955 0.30698 0.47683 0.0
C810 C 0.26645 0.33744 0.51271 0.0
C811 C 0.30787 0.36945 0.51027 0.0
C812 C 0.216 0.35879 0.5143 0.0
C813 C 0.27351 0.30836 0.54914 0.0
C814 C 0.28076 0.26825 0.53554 0.0
C815 C 0.29076 0.23593 0.56249 0.0
C816 C 0.29242 0.24447 0.60468 0.0
C817 C 0.28292 0.28477 0.61986 0.0
C818 C 0.27336 0.31727 0.59169 0.0
H819 H 0.05496 0.96355 0.8516 0.0
H820 H 0.06892 0.09652 0.86238 0.0
H821 H 0.0856 0.10149 0.78804 0.0
H822 H 0.14855 0.95322 0.75814 0.0
H823 H 0.11149 0.91267 0.73664 0.0
H824 H 0.11707 0.91767 0.79172 0.0
H825 H 0.02447 0.91963 0.79781 0.0
H826 H 0.01596 0.91815 0.74327 0.0
H827 H 0.99022 0.96034 0.77348 0.0
H828 H 0.08258 0.09441 0.71209 0.0
H829 H 0.06052 0.0759 0.64097 0.0
H830 H 0.04553 0.94754 0.67775 0.0
C831 C 0.06432 0.99333 0.83863 0.0
C832 C 0.06048 0.02961 0.86277 0.0
C833 C 0.07138 0.06829 0.84446 0.0
C834 C 0.0813 0.07142 0.80219 0.0
C835 C 0.08138 0.03544 0.77854 0.0
C836 C 0.07467 0.9969 0.79624 0.0
C837 C 0.06929 0.96395 0.76324 0.0
C838 C 0.11429 0.93519 0.7624 0.0
C839 C 0.02207 0.93911 0.76974 0.0
C840 C 0.06785 0.99065 0.72468 0.0
C841 C 0.07761 0.03147 0.73408 0.0
C842 C 0.07606 0.06238 0.70415 0.0
C843 C 0.06347 0.05154 0.66369 0.0
C844 C 0.05132 1.01023 0.65349 0.0
C845 C 0.05473 0.97935 0.68442 0.0
H846 H 0.26972 0.76523 0.92642 0.0
H847 H 0.18308 0.65665 0.89852 0.0
H848 H 0.16431 0.64791 0.97244 0.0
H849 H 0.32046 0.72746 0.02207 0.0
H850 H 0.31754 0.77727 0.04696 0.0
H851 H 0.32472 0.77408 0.99188 0.0
H852 H 0.24793 0.82043 0.98327 0.0
H853 H 0.23957 0.82292 0.0383 0.0
H854 H 0.19062 0.80474 1.00608 0.0
H855 H 0.15629 0.65007 0.0499 0.0
H856 H 0.16158 0.66249 0.12519 0.0
H857 H 0.25025 0.77094 0.10271 0.0
C858 C 0.24717 0.73943 0.93593 0.0
C859 C 0.22804 0.71154 0.90665 0.0
C860 C 0.19818 0.67843 0.92035 0.0
C861 C 0.1872 0.67324 0.9623 0.0
C862 C 0.20595 0.70164 0.99032 0.0
C863 C 0.23536 0.73405 0.97775 0.0
C864 C 0.25067 0.76028 0.01418 0.0
C865 C 0.30666 0.75972 0.01905 0.0
C866 C 0.23101 0.80472 1.01022 0.0
C867 C 0.22559 0.73746 0.04916 0.0
C868 C 0.19999 0.70365 0.03475 0.0
C869 C 0.1757 0.67674 0.06148 0.0
C870 C 0.1785 0.68415 0.10407 0.0
C871 C 0.20489 0.71836 0.11933 0.0
C872 C 0.22839 0.74543 0.09154 0.0
H873 H 0.41765 0.95559 0.35619 0.0
H874 H 0.39072 0.08302 0.39197 0.0
H875 H 0.36987 0.09995 0.32041 0.0
H876 H 0.47968 0.97238 0.27254 0.0
H877 H 0.45568 0.9315 0.2408 0.0
H878 H 0.45271 0.92682 0.29566 0.0
H879 H 0.35906 0.91654 0.29163 0.0
H880 H 0.36201 0.92184 0.2364 0.0
H881 H 0.32177 0.95479 0.26619 0.0
H882 H 0.3786 0.10787 0.24527 0.0
H883 H 0.40902 0.10446 0.17378 0.0
H884 H 0.42573 0.97163 0.18435 0.0
C885 C 0.40482 0.98655 0.34935 0.0
C886 C 0.40582 0.01791 0.37985 0.0
C887 C 0.38972 0.05826 0.36948 0.0
C888 C 0.37781 0.06822 0.32871 0.0
C889 C 0.38071 0.03728 0.29876 0.0
C890 C 0.39229 0.99684 0.30879 0.0
C891 C 0.39962 0.97075 0.27027 0.0
C892 C 0.44996 0.94915 0.26983 0.0
C893 C 0.35812 0.93912 0.26586 0.0
C894 C 0.39631 1.00378 0.23732 0.0
C895 C 0.38376 0.04174 0.2543 0.0
C896 C 0.38648 0.07812 0.23135 0.0
C897 C 0.40405 0.07593 0.19074 0.0
C898 C 0.41886 0.03764 0.17333 0.0
C899 C 0.41287 1.00101 0.1964 0.0
H900 H 0.40205 0.26205 0.31562 0.0
H901 H 0.3828 0.23765 0.18668 0.0
H902 H 0.46822 0.25941 0.17247 0.0
H903 H 0.49824 0.33463 0.31856 0.0
H904 H 0.53791 0.30864 0.35415 0.0
H905 H 0.47254 0.30116 0.3574 0.0
H906 H 0.47943 0.22255 0.34955 0.0
H907 H 0.54517 0.22665 0.3493 0.0
H908 H 0.51473 0.20075 0.30761 0.0
H909 H 0.55081 0.30213 0.17553 0.0
H910 H 0.64038 0.30516 0.1892 0.0
H911 H 0.61481 0.26304 0.31362 0.0
C912 C 0.41584 0.26166 0.28426 0.0
C913 C 0.38404 0.25577 0.25052 0.0
C914 C 0.40443 0.25031 0.21111 0.0
C915 C 0.45318 0.26121 0.20324 0.0
C916 C 0.48226 0.27248 0.23632 0.0
C917 C 0.46585 0.26784 0.27632 0.0
C918 C 0.50836 0.26839 0.30617 0.0
C919 C 0.50394 0.30535 0.33586 0.0
C920 C 0.51214 0.22714 0.32953 0.0
C921 C 0.55084 0.27409 0.27631 0.0
C922 C 0.53417 0.28023 0.23683 0.0
C923 C 0.56512 0.29352 0.20532 0.0
C924 C 0.61559 0.29465 0.21302 0.0
C925 C 0.63395 0.27933 0.25047 0.0
C926 C 0.60131 0.27181 0.28357 0.0
H927 H 0.98491 0.34587 0.58961 0.0
H928 H 0.93002 0.36694 0.46632 0.0
H929 H 0.93014 0.29163 0.45361 0.0
H930 H 0.06376 0.26151 0.56699 0.0
H931 H 0.04987 0.23353 0.61359 0.0
H932 H 0.04411 0.28902 0.61245 0.0
H933 H 0.95285 0.28183 0.6372 0.0
H934 H 0.96012 0.22642 0.63763 0.0
H935 H 0.91187 0.24988 0.60794 0.0
H936 H 0.94413 0.21527 0.45144 0.0
H937 H 0.9625 0.14112 0.46262 0.0
H938 H 1.00099 0.16712 0.58925 0.0
C939 C 0.97208 0.33449 0.56022 0.0
C940 C 0.95748 0.36232 0.52886 0.0
C941 C 0.94099 0.34629 0.49085 0.0
C942 C 0.9411 0.30353 0.4833 0.0
C943 C 0.95633 0.27696 0.51452 0.0
C944 C 0.9705 0.29164 0.55259 0.0
C945 C 0.98527 0.25613 0.5807 0.0
C946 C 0.03892 0.2603 0.59424 0.0
C947 C 0.95047 0.2534 0.61807 0.0
C948 C 0.97879 0.21941 0.55194 0.0
C949 C 0.96229 0.23232 0.51386 0.0
C950 C 0.95639 0.20471 0.48127 0.0
C951 C 0.96724 0.16278 0.48777 0.0
C952 C 0.98315 0.14865 0.52663 0.0
C953 C 0.98869 0.17726 0.55926 0.0
H954 H 0.8841 0.71582 0.76433 0.0
H955 H 0.87335 0.84722 0.78792 0.0
H956 H 0.96217 0.85474 0.77616 0.0
H957 H 1.00131 0.71017 0.82312 0.0
H958 H 0.02456 0.66809 0.79213 0.0
H959 H 0.95956 0.67366 0.80051 0.0
H960 H 0.94333 0.67702 0.72093 0.0
H961 H 0.00739 0.66712 0.71568 0.0
H962 H 0.98063 0.71125 0.69024 0.0
H963 H 0.04864 0.84948 0.75245 0.0
H964 H 0.13569 0.82981 0.74685 0.0
H965 H 0.09533 0.7003 0.751 0.0
C966 C 0.90064 0.74611 0.76655 0.0
C967 C 0.8716 0.78175 0.77281 0.0
C968 C 0.89465 0.8203 0.77917 0.0
C969 C 0.94506 0.82479 0.773 0.0
C970 C 0.97219 0.78986 0.76254 0.0
C971 C 0.95157 0.75094 0.76226 0.0
C972 C 0.99062 0.71804 0.75665 0.0
C973 C 0.99421 0.6909 0.79542 0.0
C974 C 0.97982 0.69192 0.71846 0.0
C975 C 0.03609 0.74474 0.75114 0.0
C976 C 0.02398 0.78618 0.75401 0.0
C977 C 0.05889 0.81722 0.7506 0.0
C978 C 0.10816 0.80575 0.74696 0.0
C979 C 0.12222 0.76363 0.74741 0.0
C980 C 0.08559 0.73266 0.74853 0.0
H981 H 0.4586 0.67511 0.06043 0.0
H982 H 0.61599 0.66157 0.07134 0.0
H983 H 0.62326 0.73686 0.08449 0.0
H984 H 0.46515 0.76897 1.0032 0.0
H985 H 0.41067 0.79161 0.02541 0.0
H986 H 0.4166 0.73616 0.02172 0.0
H987 H 0.40143 0.7294 0.10023 0.0
H988 H 0.3952 0.78474 0.10451 0.0
H989 H 0.4395 0.75771 0.1355 0.0
H990 H 0.61302 0.81277 0.09745 0.0
H991 H 0.58894 0.88617 0.09859 0.0
H992 H 0.43892 0.85258 0.07093 0.0
C993 C 0.49445 0.6881 0.06607 0.0
C994 C 0.53679 0.66277 0.06545 0.0
C995 C 0.58327 0.68065 0.07185 0.0
C996 C 0.58761 0.72322 0.07962 0.0
C997 C 0.54515 0.74746 0.07999 0.0
C998 C 0.49955 0.73074 0.0726 0.0
C999 C 0.46051 0.76429 0.07049 0.0
C1000 C 0.43681 0.76529 0.02767 0.0
C1001 C 0.42189 0.75869 0.10472 0.0
C1002 C 0.49124 0.80253 0.07782 0.0
C1003 C 0.53976 0.79187 0.08419 0.0
C1004 C 0.57522 0.82148 0.09227 0.0
C1005 C 0.56103 0.86313 0.09303 0.0
C1006 C 0.51203 0.87512 0.08472 0.0
C1007 C 0.4766 0.84432 0.07725 0.0
H1008 H 0.59921 0.82158 0.25597 0.0
H1009 H 0.63731 0.69129 0.26253 0.0
H1010 H 0.55269 0.67295 0.24457 0.0
H1011 H 0.48658 0.81668 0.30436 0.0
H1012 H 0.44933 0.84918 0.27197 0.0
H1013 H 0.5134 0.85858 0.27519 0.0
H1014 H 0.53251 0.85168 0.20024 0.0
H1015 H 0.46746 0.84752 0.19184 0.0
H1016 H 0.50851 0.80849 0.17183 0.0
H1017 H 0.46647 0.66875 0.21909 0.0
H1018 H 0.37643 0.67602 0.21762 0.0
H1019 H 0.38883 0.80732 0.24051 0.0
C1020 C 0.58926 0.78928 0.25548 0.0
C1021 C 0.6249 0.75781 0.26161 0.0
C1022 C 0.61066 0.71586 0.25841 0.0
C1023 C 0.56288 0.70513 0.24751 0.0
C1024 C 0.52917 0.73668 0.24043 0.0
C1025 C 0.54098 0.77788 0.24559 0.0
C1026 C 0.49603 0.80507 0.23854 0.0
C1027 C 0.48566 0.83395 0.27491 0.0
C1028 C 0.50145 0.82966 0.19823 0.0
C1029 C 0.45666 0.77253 0.23429 0.0
C1030 C 0.47748 0.73364 0.23154 0.0
C1031 C 0.44955 0.69876 0.22357 0.0
C1032 C 0.39855 0.7031 0.22332 0.0
C1033 C 0.37618 0.74144 0.23307 0.0
C1034 C 0.40541 0.77722 0.23562 0.0
H1035 H 0.54174 0.18245 0.48553 0.0
H1036 H 0.38652 0.16374 0.4659 0.0
H1037 H 0.37611 0.23898 0.45346 0.0
H1038 H 0.52809 0.2759 0.5437 0.0
H1039 H 0.5828 0.29934 0.52308 0.0
H1040 H 0.57821 0.24388 0.5261 0.0
H1041 H 0.5953 0.23837 0.44621 0.0
H1042 H 0.60162 0.29393 0.44553 0.0
H1043 H 0.55868 0.26868 0.41205 0.0
H1044 H 0.38189 0.31515 0.44345 0.0
H1045 H 0.40104 0.38941 0.44541 0.0
H1046 H 0.55108 0.36077 0.47908 0.0
C1047 C 0.50559 0.19435 0.47852 0.0
C1048 C 0.46486 0.16759 0.47641 0.0
C1049 C 0.41799 0.18395 0.46776 0.0
C1050 C 0.41177 0.22644 0.4605 0.0
C1051 C 0.4525 0.25215 0.46306 0.0
C1052 C 0.49837 0.23693 0.47256 0.0
C1053 C 0.5352 0.27177 0.47653 0.0
C1054 C 0.55738 0.27278 0.51993 0.0
C1055 C 0.57514 0.26803 0.44316 0.0
C1056 C 0.50253 0.30907 0.46886 0.0
C1057 C 0.45533 0.29676 0.45987 0.0
C1058 C 0.41862 0.32518 0.45071 0.0
C1059 C 0.43 0.36737 0.45179 0.0
C1060 C 0.4775 0.38101 0.46273 0.0
C1061 C 0.51438 0.35132 0.47094 0.0
H1062 H 0.1137 0.32268 0.75807 0.0
H1063 H 0.14866 0.19182 0.76466 0.0
H1064 H 0.06131 0.17498 0.75557 0.0
H1065 H 0.9999 0.32052 0.81354 0.0
H1066 H 0.965 0.35463 0.78104 0.0
H1067 H 0.02968 0.36123 0.78437 0.0
H1068 H 0.04499 0.35427 0.70859 0.0
H1069 H 0.97975 0.35052 0.7011 0.0
H1070 H 0.02006 0.31095 0.68104 0.0
H1071 H 0.97383 0.17222 0.73461 0.0
H1072 H 0.88447 0.18237 0.72963 0.0
H1073 H 0.90205 0.31408 0.74702 0.0
C1074 C 0.10262 0.29062 0.75941 0.0
C1075 C 0.13783 0.25844 0.76302 0.0
C1076 C 0.12221 0.2168 0.76244 0.0
C1077 C 0.07284 0.20695 0.7568 0.0
C1078 C 0.03943 0.23915 0.75175 0.0
C1079 C 0.05305 0.2802 0.75426 0.0
C1080 C 0.0088 0.30837 0.74785 0.0
C1081 C 1.00037 0.33784 0.78408 0.0
C1082 C 0.01368 0.33246 0.70723 0.0
C1083 C 0.96823 0.27676 0.74518 0.0
C1084 C 0.98735 0.23717 0.74462 0.0
C1085 C 0.95813 0.20287 0.73765 0.0
C1086 C 0.90747 0.20886 0.73549 0.0
C1087 C 0.88649 0.24836 0.74234 0.0
C1088 C 0.91728 0.28319 0.74463 0.0
H1089 H 0.06301 0.84935 0.97326 0.0
H1090 H 0.90792 0.87468 0.95806 0.0
H1091 H 0.89079 0.79989 0.95929 0.0
H1092 H 0.06496 0.75831 0.90667 0.0
H1093 H 0.10841 0.73016 0.93741 0.0
H1094 H 0.10991 0.78581 0.93647 0.0
H1095 H 0.1016 0.7885 0.01562 0.0
H1096 H 0.10066 0.73282 0.01737 0.0
H1097 H 0.0515 0.76217 0.04056 0.0
H1098 H 0.88932 0.72254 0.96798 0.0
H1099 H 0.90504 0.64731 0.97406 0.0
H1100 H 0.06136 0.67046 0.97653 0.0
C1101 C 0.02555 0.83907 0.96992 0.0
C1102 C 0.9868 0.86802 0.96564 0.0
C1103 C 0.93828 0.85324 0.96113 0.0
C1104 C 0.9281 0.81073 0.962 0.0
C1105 C 0.96691 0.78302 0.9666 0.0
C1106 C 0.0148 0.79645 0.96969 0.0
C1107 C 0.04974 0.75985 0.97308 0.0
C1108 C 0.08535 0.75848 0.9362 0.0
C1109 C 0.07753 0.76093 0.0141 0.0
C1110 C 0.01394 0.72395 0.97191 0.0
C1111 C 0.96627 0.73811 0.96883 0.0
C1112 C 0.92655 0.71105 0.96974 0.0
C1113 C 0.93576 0.6684 0.97342 0.0
C1114 C 0.9843 0.65303 0.97532 0.0
C1115 C 0.02385 0.6813 0.97446 0.0
H1116 H 0.20498 0.42515 0.20648 0.0
H1117 H 0.18233 0.39102 0.33434 0.0
H1118 H 0.15802 0.46319 0.35018 0.0
H1119 H 0.26193 0.51593 0.22389 0.0
H1120 H 0.23558 0.54401 0.18149 0.0
H1121 H 0.24079 0.48881 0.17877 0.0
H1122 H 0.14785 0.48289 0.16556 0.0
H1123 H 0.14232 0.53842 0.16808 0.0
H1124 H 0.105 0.50646 0.20107 0.0
H1125 H 0.15408 0.54063 0.35464 0.0
H1126 H 0.16984 0.61543 0.34717 0.0
H1127 H 0.19044 0.59939 0.21593 0.0
C1128 C 0.19338 0.43244 0.23762 0.0
C1129 C 0.19529 0.4022 0.26915 0.0
C1130 C 0.1805 0.41334 0.30955 0.0
C1131 C 0.16668 0.45435 0.31881 0.0
C1132 C 0.1669 0.48367 0.2872 0.0
C1133 C 0.17924 0.47301 0.24723 0.0
C1134 C 0.18191 0.51084 0.21968 0.0
C1135 C 0.2331 0.51513 0.19987 0.0
C1136 C 0.14186 0.50957 0.18666 0.0
C1137 C 0.17193 0.54485 0.25084 0.0
C1138 C 0.16258 0.52852 0.28952 0.0
C1139 C 0.15948 0.55376 0.32432 0.0
C1140 C 0.16809 0.59631 0.31978 0.0
C1141 C 0.17929 0.61338 0.28071 0.0
C1142 C 0.17924 0.58749 0.24569 0.0
H1143 H 0.69604 0.10935 0.70494 0.0
H1144 H 0.66214 0.13046 0.8336 0.0
H1145 H 0.63783 0.05742 0.8412 0.0
H1146 H 0.60141 0.02396 0.68567 0.0
H1147 H 0.64422 0.99586 0.65369 0.0
H1148 H 0.64564 0.05162 0.65494 0.0
H1149 H 0.73779 0.05052 0.67634 0.0
H1150 H 0.73557 0.99539 0.67227 0.0
H1151 H 0.75583 0.019 0.71945 0.0
H1152 H 0.63388 0.97981 0.83859 0.0
H1153 H 0.65291 0.906 0.82646 0.0
H1154 H 0.69148 0.93441 0.69979 0.0
C1155 C 0.68059 0.09909 0.73396 0.0
C1156 C 0.67952 0.12588 0.76833 0.0
C1157 C 0.66197 0.11074 0.80659 0.0
C1158 C 0.64819 0.06918 0.81121 0.0
C1159 C 0.65215 0.04285 0.77728 0.0
C1160 C 0.66748 0.05737 0.73921 0.0
C1161 C 0.67634 0.02181 0.70955 0.0
C1162 C 0.63973 0.02343 0.67384 0.0
C1163 C 0.72957 0.02171 0.69356 0.0
C1164 C 0.66637 0.98504 0.7374 0.0
C1165 C 0.65118 0.99776 0.77605 0.0
C1166 C 0.64458 0.96946 0.80811 0.0
C1167 C 0.65532 0.92739 0.80091 0.0
C1168 C 0.6733 0.91394 0.76209 0.0
C1169 C 0.67704 0.94325 0.72969 0.0
H1170 H 0.37602 0.53456 0.97026 0.0
H1171 H 0.38926 0.52828 0.10244 0.0
H1172 H 0.29959 0.5211 0.10966 0.0
H1173 H 0.25993 0.60246 0.98627 0.0
H1174 H 0.23567 0.58577 0.93756 0.0
H1175 H 0.30089 0.59093 0.944 0.0
H1176 H 0.31342 0.51554 0.92081 0.0
H1177 H 0.2487 0.51082 0.91464 0.0
H1178 H 0.2817 0.47494 0.94767 0.0
H1179 H 0.2103 0.50442 0.10092 0.0
H1180 H 0.1236 0.4997 0.07968 0.0
H1181 H 0.16589 0.52803 0.95395 0.0
C1182 C 0.35985 0.53108 1.00058 0.0
C1183 C 0.3896 0.52628 0.03561 0.0
C1184 C 0.36724 0.52634 0.07502 0.0
C1185 C 0.31631 0.52346 0.07945 0.0
C1186 C 0.28807 0.52404 0.04405 0.0
C1187 C 0.30871 0.53098 1.00576 0.0
C1188 C 0.26937 0.53612 0.97359 0.0
C1189 C 0.2663 0.58151 0.95955 0.0
C1190 C 0.27879 0.50741 0.93697 0.0
C1191 C 0.22408 0.52438 0.9985 0.0
C1192 C 0.23575 0.51893 0.03948 0.0
C1193 C 0.20045 0.50905 0.06903 0.0
C1194 C 0.15148 0.50602 0.05667 0.0
C1195 C 0.13835 0.51218 0.01508 0.0
C1196 C 0.17521 0.52138 0.98561 0.0
H1197 H 0.80336 0.11009 0.31479 0.0
H1198 H 0.8385 0.1235 0.1855 0.0
H1199 H 0.85759 0.04902 0.18078 0.0
H1200 H 0.89403 0.02059 0.33448 0.0
H1201 H 0.85214 0.99275 0.36688 0.0
H1202 H 0.85273 0.0487 0.368 0.0
H1203 H 0.76241 0.05486 0.35076 0.0
H1204 H 0.75667 0.99971 0.35186 0.0
H1205 H 0.73824 0.02801 0.30667 0.0
H1206 H 0.85483 0.97176 0.18628 0.0
H1207 H 0.83061 0.89981 0.20155 0.0
H1208 H 0.79395 0.93586 0.32675 0.0
C1209 C 0.81835 0.0977 0.28636 0.0
C1210 C 0.8211 0.12263 0.25089 0.0
C1211 C 0.83773 0.10502 0.21332 0.0
C1212 C 0.84844 0.06266 0.21032 0.0
C1213 C 0.84256 0.03818 0.24527 0.0
C1214 C 0.82883 0.05521 0.28284 0.0
C1215 C 0.81768 0.02156 0.31386 0.0
C1216 C 0.85643 0.021 0.34788 0.0
C1217 C 0.76565 0.02634 0.33179 0.0
C1218 C 0.82256 0.98335 0.28703 0.0
C1219 C 0.83897 0.99335 0.24802 0.0
C1220 C 0.84315 0.96346 0.21708 0.0
C1221 C 0.82936 0.92255 0.22606 0.0
C1222 C 0.81055 0.91199 0.26543 0.0
C1223 C 0.80847 0.94278 0.29645 0.0
H1224 H 0.84913 0.02035 0.96094 0.0
H1225 H 0.89734 0.02768 0.08761 0.0
H1226 H 0.81095 0.02967 0.11115 0.0
H1227 H 0.73846 0.08519 0.96873 0.0
H1228 H 0.70113 0.05198 0.93752 0.0
H1229 H 0.76566 0.0538 0.9281 0.0
H1230 H 0.77555 0.97606 0.93709 0.0
H1231 H 0.71036 0.9722 0.94522 0.0
H1232 H 0.75198 0.95201 0.9831 0.0
H1233 H 0.72115 0.01841 0.12104 0.0
H1234 H 0.63128 1.01152 0.11644 0.0
H1235 H 0.63997 0.01797 0.9837 0.0
C1236 C 0.84136 0.02436 0.99344 0.0
C1237 C 0.87967 0.0252 0.02256 0.0
C1238 C 0.86834 0.02787 0.06499 0.0
C1239 C 0.81951 0.02876 0.07857 0.0
C1240 C 0.78258 0.02652 0.04924 0.0
C1241 C 0.79269 0.02516 1.00749 0.0
C1242 C 0.74596 0.01956 0.98289 0.0
C1243 C 0.7374 0.05494 0.95254 0.0
C1244 C 0.74597 0.97746 0.96074 0.0
C1245 C 0.70822 0.02059 0.017 0.0
C1246 C 0.73026 0.02287 0.05509 0.0
C1247 C 0.70337 0.01913 0.09137 0.0
C1248 C 0.65239 0.01594 0.08851 0.0
C1249 C 0.62879 0.01854 0.04997 0.0
C1250 C 0.65714 0.01894 0.01365 0.0
H1251 H 0.30227 0.5877 0.6997 0.0
H1252 H 0.32651 0.6243 0.8266 0.0
H1253 H 0.3542 0.55372 0.84269 0.0
H1254 H 0.25301 0.49236 0.7176 0.0
H1255 H 0.28236 0.4667 0.67471 0.0
H1256 H 0.27288 0.52133 0.67285 0.0
H1257 H 0.36619 0.53088 0.6597 0.0
H1258 H 0.37453 0.47559 0.66296 0.0
H1259 H 0.4091 0.50944 0.69589 0.0
H1260 H 0.36175 0.47752 0.84884 0.0
H1261 H 0.34727 0.40247 0.84406 0.0
H1262 H 0.32285 0.41387 0.71309 0.0
C1263 C 0.31491 0.58124 0.73054 0.0
C1264 C 0.31232 0.61198 0.76174 0.0
C1265 C 0.32858 0.6018 0.80189 0.0
C1266 C 0.34458 0.56164 0.81138 0.0
C1267 C 0.34546 0.53189 0.78026 0.0
C1268 C 0.33175 0.54128 0.74044 0.0
C1269 C 0.33192 0.50259 0.71372 0.0
C1270 C 0.28197 0.49538 0.69359 0.0
C1271 C 0.3729 0.50473 0.68114 0.0
C1272 C 0.34273 0.46962 0.74559 0.0
C1273 C 0.35201 0.48734 0.78357 0.0
C1274 C 0.35595 0.46336 0.81906 0.0
C1275 C 0.34752 0.4207 0.81609 0.0
C1276 C 0.33434 0.40243 0.77812 0.0
C1277 C 0.33457 0.42685 0.74214 0.0
H1278 H 0.13027 0.51056 0.46055 0.0
H1279 H 0.11555 0.47237 0.58764 0.0
H1280 H 0.20431 0.48139 0.5978 0.0
H1281 H 0.25223 0.4514 0.45266 0.0
H1282 H 0.27569 0.48659 0.41441 0.0
H1283 H 0.21103 0.47578 0.41686 0.0
H1284 H 0.18911 0.55525 0.42733 0.0
H1285 H 0.25297 0.56173 0.41799 0.0
H1286 H 0.22547 0.58383 0.46364 0.0
H1287 H 0.28901 0.5093 0.59807 0.0
H1288 H 0.3756 0.52437 0.58253 0.0
H1289 H 0.34145 0.53206 0.45253 0.0
C1290 C 0.14605 0.50413 0.49037 0.0
C1291 C 0.11593 0.49455 0.52449 0.0
C1292 C 0.13783 0.48312 0.56216 0.0
C1293 C 0.18815 0.48779 0.56813 0.0
C1294 C 0.21627 0.50198 0.53535 0.0
C1295 C 0.19692 0.50697 0.49649 0.0
C1296 C 0.23708 0.51691 0.46565 0.0
C1297 C 0.24444 0.4805 0.43563 0.0
C1298 C 0.22541 0.55693 0.44244 0.0
C1299 C 0.28089 0.52147 0.49419 0.0
C1300 C 0.26752 0.51271 0.53431 0.0
C1301 C 0.30042 0.51537 0.56672 0.0
C1302 C 0.34932 0.52457 0.55768 0.0
C1303 C 0.36518 0.53036 0.51656 0.0
C1304 C 0.33021 0.52965 0.48442 0.0
H1305 H 0.74094 0.85477 0.9314 0.0
H1306 H 0.72496 0.72386 0.90555 0.0
H1307 H 0.73853 0.70782 0.97882 0.0
H1308 H 0.8324 0.84692 0.01163 0.0
H1309 H 0.80513 0.88763 0.04218 0.0
H1310 H 0.79784 0.88734 0.98705 0.0
H1311 H 0.70201 0.88972 0.99837 0.0
H1312 H 0.71182 0.88976 0.05316 0.0
H1313 H 0.67396 0.85064 0.03007 0.0
H1314 H 0.76007 0.70522 0.05307 0.0
H1315 H 0.77137 0.71677 0.12768 0.0
H1316 H 0.7622 0.84929 0.10868 0.0
C1317 C 0.73996 0.82285 0.94143 0.0
C1318 C 0.73199 0.79046 0.91298 0.0
C1319 C 0.7306 0.74906 0.92701 0.0
C1320 C 0.73873 0.73962 0.96845 0.0
C1321 C 0.74701 0.77203 0.99573 0.0
C1322 C 0.74627 0.81289 0.9832 0.0
C1323 C 0.75283 0.84176 0.01969 0.0
C1324 C 0.79981 0.86745 0.01485 0.0
C1325 C 0.70748 0.86962 0.02568 0.0
C1326 C 0.75762 0.81062 0.05445 0.0
C1327 C 0.75549 0.77059 0.0396 0.0
C1328 C 0.76126 0.73639 0.06521 0.0
C1329 C 0.76809 0.74321 0.10739 0.0
C1330 C 0.76776 0.78379 0.1236 0.0
C1331 C 0.76263 0.81796 0.09682 0.0
H1332 H 0.54322 0.47402 0.3568 0.0
H1333 H 0.57785 0.60416 0.36777 0.0
H1334 H 0.61019 0.60398 0.29644 0.0
H1335 H 0.64477 0.4432 0.2822 0.0
H1336 H 0.60381 0.4097 0.25455 0.0
H1337 H 0.59585 0.41726 0.3092 0.0
H1338 H 0.5058 0.44072 0.29773 0.0
H1339 H 0.51424 0.43235 0.24367 0.0
H1340 H 0.49348 0.4821 0.26194 0.0
H1341 H 0.62437 0.59287 0.22091 0.0
H1342 H 0.61324 0.57394 0.14811 0.0
H1343 H 0.56667 0.45125 0.18538 0.0
C1344 C 0.55967 0.50197 0.34474 0.0
C1345 C 0.55903 0.53888 0.36799 0.0
C1346 C 0.57875 0.57539 0.35063 0.0
C1347 C 0.59745 0.57547 0.3102 0.0
C1348 C 0.59573 0.53888 0.28738 0.0
C1349 C 0.5774 0.50273 0.30415 0.0
C1350 C 0.57178 0.46957 0.27155 0.0
C1351 C 0.60612 0.43276 0.27988 0.0
C1352 C 0.51811 0.45547 0.26859 0.0
C1353 C 0.5877 0.49315 0.23345 0.0
C1354 C 0.6026 0.53274 0.24334 0.0
C1355 C 0.61386 0.56165 0.21289 0.0
C1356 C 0.6076 0.55048 0.17142 0.0
C1357 C 0.58926 0.51094 0.16065 0.0
C1358 C 0.58157 0.48146 0.19226 0.0
H1359 H 0.73048 0.19765 0.40759 0.0
H1360 H 0.83281 0.29923 0.39459 0.0
H1361 H 0.83666 0.30549 0.47041 0.0
H1362 H 0.66463 0.23708 0.49307 0.0
H1363 H 0.65657 0.1879 0.51822 0.0
H1364 H 0.66336 0.18998 0.46309 0.0
H1365 H 0.73726 0.13938 0.46656 0.0
H1366 H 0.72956 0.13694 0.5216 0.0
H1367 H 0.78793 0.15141 0.49979 0.0
H1368 H 0.82737 0.30266 0.54721 0.0
H1369 H 0.80561 0.29055 0.62025 0.0
H1370 H 0.71141 0.18929 0.58458 0.0
C1371 C 0.75432 0.22082 0.4207 0.0
C1372 C 0.78144 0.248 0.39507 0.0
C1373 C 0.81205 0.27791 0.41348 0.0
C1374 C 0.81457 0.28161 0.45654 0.0
C1375 C 0.78717 0.25457 0.48086 0.0
C1376 C 0.75802 0.2244 0.46368 0.0
C1377 C 0.73147 0.19985 0.49688 0.0
C1378 C 0.67567 0.20395 0.49252 0.0
C1379 C 0.74757 0.15419 0.49615 0.0
C1380 C 0.74924 0.22164 0.5354 0.0
C1381 C 0.78152 0.25302 0.52534 0.0
C1382 C 0.8021 0.27825 0.55537 0.0
C1383 C 0.78932 0.27133 0.59669 0.0
C1384 C 0.75634 0.23953 0.60773 0.0
C1385 C 0.73627 0.21412 0.57676 0.0
H1386 H 0.92992 0.57029 0.67665 0.0
H1387 H 0.90442 0.44145 0.64706 0.0
H1388 H 0.89219 0.42649 0.72096 0.0
H1389 H 0.00473 0.55235 0.75234 0.0
H1390 H 0.98735 0.59401 0.78646 0.0
H1391 H 0.97689 0.59872 0.73227 0.0
H1392 H 0.88515 0.61251 0.74361 0.0
H1393 H 0.89442 0.60954 0.79844 0.0
H1394 H 0.84937 0.57712 0.77422 0.0
H1395 H 0.90598 0.42202 0.79652 0.0
H1396 H 0.93865 0.42915 0.86682 0.0
H1397 H 0.95564 0.56094 0.84855 0.0
C1398 C 0.919 0.53936 0.68551 0.0
C1399 C 0.91756 0.50711 0.65598 0.0
C1400 C 0.90459 0.46682 0.66888 0.0
C1401 C 0.89792 0.45804 0.71096 0.0
C1402 C 0.9035 0.49002 0.73958 0.0
C1403 C 0.91271 0.53017 0.72728 0.0
C1404 C 0.92545 0.55752 0.76369 0.0
C1405 C 0.97668 0.5767 0.75839 0.0
C1406 C 0.88623 0.59115 0.77039 0.0
C1407 C 0.92468 0.52613 0.7982 0.0
C1408 C 0.91117 0.48747 0.78377 0.0
C1409 C 0.9148 0.45235 0.80843 0.0
C1410 C 0.93357 0.45667 0.84829 0.0
C1411 C 0.94846 0.49578 0.86328 0.0
C1412 C 0.94255 0.53107 0.83835 0.0
H1413 H 0.84352 1.0 0.5657 0.0
H1414 H 0.87727 0.99195 0.43553 0.0
H1415 H 0.78968 1.00332 0.41965 0.0
H1416 H 0.7289 0.94316 0.55825 0.0
H1417 H 0.68905 0.97316 0.59128 0.0
H1418 H 0.75184 0.96898 0.60329 0.0
H1419 H 0.7764 0.04254 0.60221 0.0
H1420 H 0.71204 0.05459 0.59862 0.0
H1421 H 0.7547 0.07582 0.5618 0.0
H1422 H 0.7033 0.02996 0.41787 0.0
H1423 H 0.61474 0.04184 0.42965 0.0
H1424 H 0.63314 0.02067 0.5599 0.0
C1425 C 0.83222 0.99793 0.534 0.0
C1426 C 0.86727 0.99407 0.50169 0.0
C1427 C 0.85097 0.9944 0.4605 0.0
C1428 C 0.80157 1.00128 0.4512 0.0
C1429 C 0.76852 1.00697 0.48347 0.0
C1430 C 0.78243 1.0033 0.52411 0.0
C1431 C 0.73843 1.01011 0.55255 0.0
C1432 C 0.72637 0.9714 0.57762 0.0
C1433 C 0.74582 0.04803 0.58045 0.0
C1434 C 0.69843 0.01778 0.52166 0.0
C1435 C 0.71697 0.01743 0.48206 0.0
C1436 C 0.68789 0.02748 0.44854 0.0
C1437 C 0.63766 0.03361 0.45541 0.0
C1438 C 0.61689 0.02789 0.495 0.0
C1439 C 0.64796 0.02245 0.52894 0.0
loop_
_geom_bond_atom_site_label_1
_geom_bond_atom_site_label_2
_geom_bond_distance
_geom_bond_site_symmetry_2
_ccdc_geom_bond_type
Mn0 O5 2.095 . S
Mn0 O15 2.162 . S
Mn0 O16 2.297 . S
Mn0 O24 2.385 . S
Mn0 O25 2.209 . S
Mn0 O26 2.094 . S
Mn1 O6 2.121 . S
Mn1 N8 2.257 . S
Mn1 N17 2.282 . S
Mn1 O25 2.215 . S
Mn1 O27 2.117 . S
C2 O24 1.234 . S
C2 O25 1.283 . S
C3 O15 1.281 . S
C3 O16 1.236 . S
C4 O26 1.240 . S
C4 O27 1.264 . S
O5 Mn0 2.095 . S
O5 C14 1.250 . S
O6 Mn1 2.121 . S
O6 C14 1.258 . S
C7 N8 1.326 . S
C7 C11 1.460 . S
C7 H13 0.929 . S
N8 Mn1 2.257 . S
N8 C7 1.326 . S
N8 C12 1.362 . S
C9 C10 1.258 . S
C9 C12 1.431 . S
C9 C29 1.449 . S
C10 C9 1.258 . S
C10 C11 1.477 . S
C10 H30 0.931 . S
C11 C7 1.460 . S
C11 C10 1.477 . S
C11 H31 0.930 . S
C12 N8 1.362 . S
C12 C9 1.431 . S
C12 C22 1.476 . S
H13 C7 0.929 . S
C14 O5 1.250 . S
C14 O6 1.258 . S
O15 Mn0 2.162 . S
O15 C3 1.281 . S
O16 Mn0 2.297 . S
O16 C3 1.236 . S
N17 Mn1 2.282 . S
N17 C18 1.328 . S
N17 C22 1.318 . S
C18 N17 1.328 . S
C18 C19 1.457 . S
C18 H23 0.929 . S
C19 C18 1.457 . S
C19 C20 1.291 . S
C19 H32 0.931 . S
C20 C19 1.291 . S
C20 C21 1.373 . S
C20 H33 0.929 . S
C21 C20 1.373 . S
C21 C22 1.396 . S
C21 C28 1.403 . S
C22 C12 1.476 . S
C22 N17 1.318 . S
C22 C21 1.396 . S
H23 C18 0.929 . S
O24 Mn0 2.385 . S
O24 C2 1.234 . S
O25 Mn0 2.209 . S
O25 Mn1 2.215 . S
O25 C2 1.283 . S
O26 Mn0 2.094 . S
O26 C4 1.240 . S
O27 Mn1 2.117 . S
O27 C4 1.264 . S
C28 C21 1.403 . S
C28 C29 1.399 . S
C28 H34 0.929 . S
C29 C9 1.449 . S
C29 C28 1.399 . S
C29 H35 0.930 . S
H30 C10 0.931 . S
H31 C11 0.930 . S
H32 C19 0.931 . S
H33 C20 0.929 . S
H34 C28 0.929 . S
H35 C29 0.930 . S
Mn36 O41 2.095 . S
Mn36 O51 2.162 . S
Mn36 O52 2.297 1_455 S
Mn36 O60 2.385 1_455 S
Mn36 O61 2.209 1_455 S
Mn36 O62 2.094 1_545 S
Mn37 O42 2.121 . S
Mn37 N44 2.257 . S
Mn37 N53 2.282 . S
Mn37 O61 2.215 1_565 S
Mn37 O63 2.117 1_655 S
C38 O60 1.234 . S
C38 O61 1.283 . S
C39 O51 1.281 . S
C39 O52 1.236 1_455 S
C40 O62 1.240 . S
C40 O63 1.264 . S
O41 Mn36 2.095 . S
O41 C50 1.250 1_545 S
O42 Mn37 2.121 . S
O42 C50 1.258 1_655 S
C43 N44 1.326 . S
C43 C47 1.460 . S
C43 H49 0.929 . S
N44 Mn37 2.257 . S
N44 C43 1.326 . S
N44 C48 1.362 . S
C45 C46 1.258 . S
C45 C48 1.431 . S
C45 C65 1.449 . S
C46 C45 1.258 . S
C46 C47 1.477 . S
C46 H66 0.931 . S
C47 C43 1.460 . S
C47 C46 1.477 . S
C47 H67 0.930 . S
C48 N44 1.362 . S
C48 C45 1.431 . S
C48 C58 1.476 . S
H49 C43 0.929 . S
C50 O41 1.250 1_565 S
C50 O42 1.258 1_455 S
O51 Mn36 2.162 . S
O51 C39 1.281 . S
O52 Mn36 2.297 1_655 S
O52 C39 1.236 1_655 S
N53 Mn37 2.282 . S
N53 C54 1.328 . S
N53 C58 1.318 . S
C54 N53 1.328 . S
C54 C55 1.457 . S
C54 H59 0.929 . S
C55 C54 1.457 . S
C55 C56 1.291 . S
C55 H68 0.931 . S
C56 C55 1.291 . S
C56 C57 1.373 . S
C56 H69 0.929 . S
C57 C56 1.373 . S
C57 C58 1.396 . S
C57 C64 1.403 . S
C58 C48 1.476 . S
C58 N53 1.318 . S
C58 C57 1.396 . S
H59 C54 0.929 . S
O60 Mn36 2.385 1_655 S
O60 C38 1.234 . S
O61 Mn36 2.209 1_655 S
O61 Mn37 2.215 1_545 S
O61 C38 1.283 . S
O62 Mn36 2.094 1_565 S
O62 C40 1.240 . S
O63 Mn37 2.117 1_455 S
O63 C40 1.264 . S
C64 C57 1.403 . S
C64 C65 1.399 . S
C64 H70 0.929 . S
C65 C45 1.449 . S
C65 C64 1.399 . S
C65 H71 0.930 . S
H66 C46 0.931 . S
H67 C47 0.930 . S
H68 C55 0.931 . S
H69 C56 0.929 . S
H70 C64 0.929 . S
H71 C65 0.930 . S
Mn72 O77 2.095 . S
Mn72 O87 2.162 . S
Mn72 O88 2.297 . S
Mn72 O96 2.385 . S
Mn72 O97 2.209 . S
Mn72 O98 2.094 . S
Mn73 O78 2.121 . S
Mn73 N80 2.257 . S
Mn73 N89 2.282 . S
Mn73 O97 2.215 . S
Mn73 O99 2.117 . S
C74 O96 1.234 . S
C74 O97 1.283 . S
C75 O87 1.281 . S
C75 O88 1.236 . S
C76 O98 1.240 . S
C76 O99 1.264 . S
O77 Mn72 2.095 . S
O77 C86 1.250 . S
O78 Mn73 2.121 . S
O78 C86 1.258 . S
C79 N80 1.326 . S
C79 C83 1.460 . S
C79 H85 0.929 . S
N80 Mn73 2.257 . S
N80 C79 1.326 . S
N80 C84 1.362 . S
C81 C82 1.258 . S
C81 C84 1.431 . S
C81 C101 1.449 . S
C82 C81 1.258 . S
C82 C83 1.477 . S
C82 H102 0.931 . S
C83 C79 1.460 . S
C83 C82 1.477 . S
C83 H103 0.930 . S
C84 N80 1.362 . S
C84 C81 1.431 . S
C84 C94 1.476 . S
H85 C79 0.929 . S
C86 O77 1.250 . S
C86 O78 1.258 . S
O87 Mn72 2.162 . S
O87 C75 1.281 . S
O88 Mn72 2.297 . S
O88 C75 1.236 . S
N89 Mn73 2.282 . S
N89 C90 1.328 . S
N89 C94 1.318 . S
C90 N89 1.328 . S
C90 C91 1.457 . S
C90 H95 0.929 . S
C91 C90 1.457 . S
C91 C92 1.291 . S
C91 H104 0.931 . S
C92 C91 1.291 . S
C92 C93 1.373 . S
C92 H105 0.929 . S
C93 C92 1.373 . S
C93 C94 1.396 . S
C93 C100 1.403 . S
C94 C84 1.476 . S
C94 N89 1.318 . S
C94 C93 1.396 . S
H95 C90 0.929 . S
O96 Mn72 2.385 . S
O96 C74 1.234 . S
O97 Mn72 2.209 . S
O97 Mn73 2.215 . S
O97 C74 1.283 . S
O98 Mn72 2.094 . S
O98 C76 1.240 . S
O99 Mn73 2.117 . S
O99 C76 1.264 . S
C100 C93 1.403 . S
C100 C101 1.399 . S
C100 H106 0.929 . S
C101 C81 1.449 . S
C101 C100 1.399 . S
C101 H107 0.930 1_455 S
H102 C82 0.931 . S
H103 C83 0.930 . S
H104 C91 0.931 . S
H105 C92 0.929 . S
H106 C100 0.929 . S
H107 C101 0.930 1_655 S
Mn108 O113 2.095 . S
Mn108 O123 2.162 . S
Mn108 O124 2.297 . S
Mn108 O132 2.385 1_554 S
Mn108 O133 2.209 . S
Mn108 O134 2.094 1_564 S
Mn109 O114 2.121 . S
Mn109 N116 2.257 . S
Mn109 N125 2.282 . S
Mn109 O133 2.215 1_545 S
Mn109 O135 2.117 . S
C110 O132 1.234 1_554 S
C110 O133 1.283 . S
C111 O123 1.281 . S
C111 O124 1.236 . S
C112 O134 1.240 . S
C112 O135 1.264 1_556 S
O113 Mn108 2.095 . S
O113 C122 1.250 1_565 S
O114 Mn109 2.121 . S
O114 C122 1.258 . S
C115 N116 1.326 . S
C115 C119 1.460 . S
C115 H121 0.929 . S
N116 Mn109 2.257 . S
N116 C115 1.326 . S
N116 C120 1.362 . S
C117 C118 1.258 . S
C117 C120 1.431 . S
C117 C137 1.449 . S
C118 C117 1.258 . S
C118 C119 1.477 . S
C118 H138 0.931 . S
C119 C115 1.460 . S
C119 C118 1.477 . S
C119 H139 0.930 . S
C120 N116 1.362 . S
C120 C117 1.431 . S
C120 C130 1.476 . S
H121 C115 0.929 . S
C122 O113 1.250 1_545 S
C122 O114 1.258 . S
O123 Mn108 2.162 . S
O123 C111 1.281 . S
O124 Mn108 2.297 . S
O124 C111 1.236 . S
N125 Mn109 2.282 . S
N125 C126 1.328 1_554 S
N125 C130 1.318 . S
C126 N125 1.328 1_556 S
C126 C127 1.457 . S
C126 H131 0.929 . S
C127 C126 1.457 . S
C127 C128 1.291 . S
C127 H140 0.931 . S
C128 C127 1.291 . S
C128 C129 1.373 1_556 S
C128 H141 0.929 . S
C129 C128 1.373 1_554 S
C129 C130 1.396 . S
C129 C136 1.403 . S
C130 C120 1.476 . S
C130 N125 1.318 . S
C130 C129 1.396 . S
H131 C126 0.929 . S
O132 Mn108 2.385 1_556 S
O132 C110 1.234 1_556 S
O133 Mn108 2.209 . S
O133 Mn109 2.215 1_565 S
O133 C110 1.283 . S
O134 Mn108 2.094 1_546 S
O134 C112 1.240 . S
O135 Mn109 2.117 . S
O135 C112 1.264 1_554 S
C136 C129 1.403 . S
C136 C137 1.399 . S
C136 H142 0.929 . S
C137 C117 1.449 . S
C137 C136 1.399 . S
C137 H143 0.930 . S
H138 C118 0.931 . S
H139 C119 0.930 . S
H140 C127 0.931 . S
H141 C128 0.929 . S
H142 C136 0.929 . S
H143 C137 0.930 . S
Mn144 O149 2.095 . S
Mn144 O159 2.162 . S
Mn144 O160 2.297 . S
Mn144 O168 2.385 . S
Mn144 O169 2.209 . S
Mn144 O170 2.094 . S
Mn145 O150 2.121 . S
Mn145 N152 2.257 . S
Mn145 N161 2.282 . S
Mn145 O169 2.215 . S
Mn145 O171 2.117 . S
C146 O168 1.234 . S
C146 O169 1.283 . S
C147 O159 1.281 . S
C147 O160 1.236 . S
C148 O170 1.240 . S
C148 O171 1.264 . S
O149 Mn144 2.095 . S
O149 C158 1.250 . S
O150 Mn145 2.121 . S
O150 C158 1.258 . S
C151 N152 1.326 . S
C151 C155 1.460 . S
C151 H157 0.929 . S
N152 Mn145 2.257 . S
N152 C151 1.326 . S
N152 C156 1.362 . S
C153 C154 1.258 . S
C153 C156 1.431 . S
C153 C173 1.449 . S
C154 C153 1.258 . S
C154 C155 1.477 . S
C154 H174 0.931 . S
C155 C151 1.460 . S
C155 C154 1.477 . S
C155 H175 0.930 . S
C156 N152 1.362 . S
C156 C153 1.431 . S
C156 C166 1.476 . S
H157 C151 0.929 . S
C158 O149 1.250 . S
C158 O150 1.258 . S
O159 Mn144 2.162 . S
O159 C147 1.281 . S
O160 Mn144 2.297 . S
O160 C147 1.236 . S
N161 Mn145 2.282 . S
N161 C162 1.328 . S
N161 C166 1.318 . S
C162 N161 1.328 . S
C162 C163 1.457 . S
C162 H167 0.929 . S
C163 C162 1.457 . S
C163 C164 1.291 . S
C163 H176 0.931 . S
C164 C163 1.291 . S
C164 C165 1.373 . S
C164 H177 0.929 . S
C165 C164 1.373 . S
C165 C166 1.396 . S
C165 C172 1.403 . S
C166 C156 1.476 . S
C166 N161 1.318 . S
C166 C165 1.396 . S
H167 C162 0.929 . S
O168 Mn144 2.385 . S
O168 C146 1.234 . S
O169 Mn144 2.209 . S
O169 Mn145 2.215 . S
O169 C146 1.283 . S
O170 Mn144 2.094 . S
O170 C148 1.240 . S
O171 Mn145 2.117 . S
O171 C148 1.264 . S
C172 C165 1.403 . S
C172 C173 1.399 . S
C172 H178 0.929 . S
C173 C153 1.449 . S
C173 C172 1.399 . S
C173 H179 0.930 . S
H174 C154 0.931 . S
H175 C155 0.930 . S
H176 C163 0.931 . S
H177 C164 0.929 . S
H178 C172 0.929 . S
H179 C173 0.930 . S
Mn180 O185 2.095 . S
Mn180 O195 2.162 . S
Mn180 O196 2.297 . S
Mn180 O204 2.385 . S
Mn180 O205 2.209 . S
Mn180 O206 2.094 1_545 S
Mn181 O186 2.121 . S
Mn181 N188 2.257 . S
Mn181 N197 2.282 . S
Mn181 O205 2.215 1_565 S
Mn181 O207 2.117 . S
C182 O204 1.234 . S
C182 O205 1.283 . S
C183 O195 1.281 . S
C183 O196 1.236 . S
C184 O206 1.240 . S
C184 O207 1.264 . S
O185 Mn180 2.095 . S
O185 C194 1.250 1_545 S
O186 Mn181 2.121 . S
O186 C194 1.258 . S
C187 N188 1.326 . S
C187 C191 1.460 . S
C187 H193 0.929 . S
N188 Mn181 2.257 . S
N188 C187 1.326 . S
N188 C192 1.362 . S
C189 C190 1.258 . S
C189 C192 1.431 . S
C189 C209 1.449 . S
C190 C189 1.258 . S
C190 C191 1.477 . S
C190 H210 0.931 . S
C191 C187 1.460 . S
C191 C190 1.477 . S
C191 H211 0.930 . S
C192 N188 1.362 . S
C192 C189 1.431 . S
C192 C202 1.476 . S
H193 C187 0.929 . S
C194 O185 1.250 1_565 S
C194 O186 1.258 . S
O195 Mn180 2.162 . S
O195 C183 1.281 . S
O196 Mn180 2.297 . S
O196 C183 1.236 . S
N197 Mn181 2.282 . S
N197 C198 1.328 . S
N197 C202 1.318 . S
C198 N197 1.328 . S
C198 C199 1.457 . S
C198 H203 0.929 . S
C199 C198 1.457 . S
C199 C200 1.291 . S
C199 H212 0.931 . S
C200 C199 1.291 . S
C200 C201 1.373 . S
C200 H213 0.929 . S
C201 C200 1.373 . S
C201 C202 1.396 . S
C201 C208 1.403 . S
C202 C192 1.476 . S
C202 N197 1.318 . S
C202 C201 1.396 . S
H203 C198 0.929 . S
O204 Mn180 2.385 . S
O204 C182 1.234 . S
O205 Mn180 2.209 . S
O205 Mn181 2.215 1_545 S
O205 C182 1.283 . S
O206 Mn180 2.094 1_565 S
O206 C184 1.240 . S
O207 Mn181 2.117 . S
O207 C184 1.264 . S
C208 C201 1.403 . S
C208 C209 1.399 . S
C208 H214 0.929 . S
C209 C189 1.449 . S
C209 C208 1.399 . S
C209 H215 0.930 . S
H210 C190 0.931 . S
H211 C191 0.930 . S
H212 C199 0.931 . S
H213 C200 0.929 . S
H214 C208 0.929 . S
H215 C209 0.930 . S
Mn216 O221 2.095 . S
Mn216 O231 2.162 . S
Mn216 O232 2.297 . S
Mn216 O240 2.385 . S
Mn216 O241 2.209 . S
Mn216 O242 2.094 . S
Mn217 O222 2.121 . S
Mn217 N224 2.257 . S
Mn217 N233 2.282 . S
Mn217 O241 2.215 . S
Mn217 O243 2.117 . S
C218 O240 1.234 . S
C218 O241 1.283 . S
C219 O231 1.281 . S
C219 O232 1.236 . S
C220 O242 1.240 . S
C220 O243 1.264 . S
O221 Mn216 2.095 . S
O221 C230 1.250 . S
O222 Mn217 2.121 . S
O222 C230 1.258 . S
C223 N224 1.326 . S
C223 C227 1.460 . S
C223 H229 0.929 . S
N224 Mn217 2.257 . S
N224 C223 1.326 . S
N224 C228 1.362 . S
C225 C226 1.258 . S
C225 C228 1.431 . S
C225 C245 1.449 . S
C226 C225 1.258 . S
C226 C227 1.477 . S
C226 H246 0.931 . S
C227 C223 1.460 . S
C227 C226 1.477 . S
C227 H247 0.930 . S
C228 N224 1.362 . S
C228 C225 1.431 . S
C228 C238 1.476 . S
H229 C223 0.929 . S
C230 O221 1.250 . S
C230 O222 1.258 . S
O231 Mn216 2.162 . S
O231 C219 1.281 . S
O232 Mn216 2.297 . S
O232 C219 1.236 . S
N233 Mn217 2.282 . S
N233 C234 1.328 . S
N233 C238 1.318 . S
C234 N233 1.328 . S
C234 C235 1.457 . S
C234 H239 0.929 . S
C235 C234 1.457 . S
C235 C236 1.291 . S
C235 H248 0.931 . S
C236 C235 1.291 . S
C236 C237 1.373 . S
C236 H249 0.929 . S
C237 C236 1.373 . S
C237 C238 1.396 . S
C237 C244 1.403 . S
C238 C228 1.476 . S
C238 N233 1.318 . S
C238 C237 1.396 . S
H239 C234 0.929 . S
O240 Mn216 2.385 . S
O240 C218 1.234 . S
O241 Mn216 2.209 . S
O241 Mn217 2.215 . S
O241 C218 1.283 . S
O242 Mn216 2.094 . S
O242 C220 1.240 . S
O243 Mn217 2.117 . S
O243 C220 1.264 . S
C244 C237 1.403 . S
C244 C245 1.399 . S
C244 H250 0.929 . S
C245 C225 1.449 . S
C245 C244 1.399 . S
C245 H251 0.930 1_455 S
H246 C226 0.931 . S
H247 C227 0.930 . S
H248 C235 0.931 . S
H249 C236 0.929 . S
H250 C244 0.929 . S
H251 C245 0.930 1_655 S
Mn252 O257 2.095 . S
Mn252 O267 2.162 . S
Mn252 O268 2.297 1_455 S
Mn252 O276 2.385 1_456 S
Mn252 O277 2.209 1_455 S
Mn252 O278 2.094 1_566 S
Mn253 O258 2.121 . S
Mn253 N260 2.257 . S
Mn253 N269 2.282 . S
Mn253 O277 2.215 1_545 S
Mn253 O279 2.117 1_655 S
C254 O276 1.234 1_556 S
C254 O277 1.283 . S
C255 O267 1.281 . S
C255 O268 1.236 1_455 S
C256 O278 1.240 . S
C256 O279 1.264 1_554 S
O257 Mn252 2.095 . S
O257 C266 1.250 1_565 S
O258 Mn253 2.121 . S
O258 C266 1.258 1_655 S
C259 N260 1.326 . S
C259 C263 1.460 . S
C259 H265 0.929 . S
N260 Mn253 2.257 . S
N260 C259 1.326 . S
N260 C264 1.362 . S
C261 C262 1.258 . S
C261 C264 1.431 . S
C261 C281 1.449 . S
C262 C261 1.258 . S
C262 C263 1.477 . S
C262 H282 0.931 . S
C263 C259 1.460 . S
C263 C262 1.477 . S
C263 H283 0.930 . S
C264 N260 1.362 . S
C264 C261 1.431 . S
C264 C274 1.476 . S
H265 C259 0.929 . S
C266 O257 1.250 1_545 S
C266 O258 1.258 1_455 S
O267 Mn252 2.162 . S
O267 C255 1.281 . S
O268 Mn252 2.297 1_655 S
O268 C255 1.236 1_655 S
N269 Mn253 2.282 . S
N269 C270 1.328 1_556 S
N269 C274 1.318 . S
C270 N269 1.328 1_554 S
C270 C271 1.457 . S
C270 H275 0.929 . S
C271 C270 1.457 . S
C271 C272 1.291 . S
C271 H284 0.931 . S
C272 C271 1.291 . S
C272 C273 1.373 1_554 S
C272 H285 0.929 . S
C273 C272 1.373 1_556 S
C273 C274 1.396 . S
C273 C280 1.403 . S
C274 C264 1.476 . S
C274 N269 1.318 . S
C274 C273 1.396 . S
H275 C270 0.929 . S
O276 Mn252 2.385 1_654 S
O276 C254 1.234 1_554 S
O277 Mn252 2.209 1_655 S
O277 Mn253 2.215 1_565 S
O277 C254 1.283 . S
O278 Mn252 2.094 1_544 S
O278 C256 1.240 . S
O279 Mn253 2.117 1_455 S
O279 C256 1.264 1_556 S
C280 C273 1.403 . S
C280 C281 1.399 . S
C280 H286 0.929 . S
C281 C261 1.449 . S
C281 C280 1.399 . S
C281 H287 0.930 . S
H282 C262 0.931 . S
H283 C263 0.930 . S
H284 C271 0.931 . S
H285 C272 0.929 . S
H286 C280 0.929 . S
H287 C281 0.930 . S
Mn288 O293 2.095 . S
Mn288 O303 2.162 . S
Mn288 O304 2.297 . S
Mn288 O312 2.385 . S
Mn288 O313 2.209 . S
Mn288 O314 2.094 . S
Mn289 O294 2.121 . S
Mn289 N296 2.257 . S
Mn289 N305 2.282 . S
Mn289 O313 2.215 . S
Mn289 O315 2.117 . S
C290 O312 1.234 . S
C290 O313 1.283 . S
C291 O303 1.281 . S
C291 O304 1.236 . S
C292 O314 1.240 . S
C292 O315 1.264 . S
O293 Mn288 2.095 . S
O293 C302 1.250 . S
O294 Mn289 2.121 . S
O294 C302 1.258 . S
C295 N296 1.326 . S
C295 C299 1.460 . S
C295 H301 0.929 . S
N296 Mn289 2.257 . S
N296 C295 1.326 . S
N296 C300 1.362 . S
C297 C298 1.258 . S
C297 C300 1.431 . S
C297 C317 1.449 . S
C298 C297 1.258 . S
C298 C299 1.477 . S
C298 H318 0.931 . S
C299 C295 1.460 . S
C299 C298 1.477 . S
C299 H319 0.930 . S
C300 N296 1.362 . S
C300 C297 1.431 . S
C300 C310 1.476 . S
H301 C295 0.929 . S
C302 O293 1.250 . S
C302 O294 1.258 . S
O303 Mn288 2.162 . S
O303 C291 1.281 . S
O304 Mn288 2.297 . S
O304 C291 1.236 . S
N305 Mn289 2.282 . S
N305 C306 1.328 . S
N305 C310 1.318 . S
C306 N305 1.328 . S
C306 C307 1.457 . S
C306 H311 0.929 . S
C307 C306 1.457 . S
C307 C308 1.291 . S
C307 H320 0.931 . S
C308 C307 1.291 . S
C308 C309 1.373 . S
C308 H321 0.929 . S
C309 C308 1.373 . S
C309 C310 1.396 . S
C309 C316 1.403 . S
C310 C300 1.476 . S
C310 N305 1.318 . S
C310 C309 1.396 . S
H311 C306 0.929 . S
O312 Mn288 2.385 . S
O312 C290 1.234 . S
O313 Mn288 2.209 . S
O313 Mn289 2.215 . S
O313 C290 1.283 . S
O314 Mn288 2.094 . S
O314 C292 1.240 . S
O315 Mn289 2.117 . S
O315 C292 1.264 . S
C316 C309 1.403 . S
C316 C317 1.399 . S
C316 H322 0.929 . S
C317 C297 1.449 . S
C317 C316 1.399 . S
C317 H323 0.930 1_655 S
H318 C298 0.931 . S
H319 C299 0.930 . S
H320 C307 0.931 . S
H321 C308 0.929 . S
H322 C316 0.929 . S
H323 C317 0.930 1_455 S
Mn324 O329 2.095 . S
Mn324 O339 2.162 . S
Mn324 O340 2.297 1_655 S
Mn324 O348 2.385 1_656 S
Mn324 O349 2.209 1_655 S
Mn324 O350 2.094 1_556 S
Mn325 O330 2.121 . S
Mn325 N332 2.257 . S
Mn325 N341 2.282 . S
Mn325 O349 2.215 . S
Mn325 O351 2.117 1_455 S
C326 O348 1.234 1_556 S
C326 O349 1.283 . S
C327 O339 1.281 . S
C327 O340 1.236 1_655 S
C328 O350 1.240 . S
C328 O351 1.264 1_554 S
O329 Mn324 2.095 . S
O329 C338 1.250 . S
O330 Mn325 2.121 . S
O330 C338 1.258 1_455 S
C331 N332 1.326 . S
C331 C335 1.460 . S
C331 H337 0.929 . S
N332 Mn325 2.257 . S
N332 C331 1.326 . S
N332 C336 1.362 . S
C333 C334 1.258 . S
C333 C336 1.431 . S
C333 C353 1.449 . S
C334 C333 1.258 . S
C334 C335 1.477 . S
C334 H354 0.931 . S
C335 C331 1.460 . S
C335 C334 1.477 . S
C335 H355 0.930 . S
C336 N332 1.362 . S
C336 C333 1.431 . S
C336 C346 1.476 . S
H337 C331 0.929 . S
C338 O329 1.250 . S
C338 O330 1.258 1_655 S
O339 Mn324 2.162 . S
O339 C327 1.281 . S
O340 Mn324 2.297 1_455 S
O340 C327 1.236 1_455 S
N341 Mn325 2.282 . S
N341 C342 1.328 1_556 S
N341 C346 1.318 . S
C342 N341 1.328 1_554 S
C342 C343 1.457 . S
C342 H347 0.929 . S
C343 C342 1.457 . S
C343 C344 1.291 . S
C343 H356 0.931 . S
C344 C343 1.291 . S
C344 C345 1.373 1_554 S
C344 H357 0.929 . S
C345 C344 1.373 1_556 S
C345 C346 1.396 . S
C345 C352 1.403 . S
C346 C336 1.476 . S
C346 N341 1.318 . S
C346 C345 1.396 . S
H347 C342 0.929 . S
O348 Mn324 2.385 1_454 S
O348 C326 1.234 1_554 S
O349 Mn324 2.209 1_455 S
O349 Mn325 2.215 . S
O349 C326 1.283 . S
O350 Mn324 2.094 1_554 S
O350 C328 1.240 . S
O351 Mn325 2.117 1_655 S
O351 C328 1.264 1_556 S
C352 C345 1.403 . S
C352 C353 1.399 . S
C352 H358 0.929 . S
C353 C333 1.449 . S
C353 C352 1.399 . S
C353 H359 0.930 . S
H354 C334 0.931 . S
H355 C335 0.930 . S
H356 C343 0.931 . S
H357 C344 0.929 . S
H358 C352 0.929 . S
H359 C353 0.930 . S
Mn360 O365 2.095 . S
Mn360 O375 2.162 . S
Mn360 O376 2.297 . S
Mn360 O384 2.385 . S
Mn360 O385 2.209 . S
Mn360 O386 2.094 . S
Mn361 O366 2.121 . S
Mn361 N368 2.257 . S
Mn361 N377 2.282 . S
Mn361 O385 2.215 . S
Mn361 O387 2.117 . S
C362 O384 1.234 . S
C362 O385 1.283 . S
C363 O375 1.281 . S
C363 O376 1.236 . S
C364 O386 1.240 . S
C364 O387 1.264 . S
O365 Mn360 2.095 . S
O365 C374 1.250 . S
O366 Mn361 2.121 . S
O366 C374 1.258 . S
C367 N368 1.326 . S
C367 C371 1.460 . S
C367 H373 0.929 . S
N368 Mn361 2.257 . S
N368 C367 1.326 . S
N368 C372 1.362 . S
C369 C370 1.258 . S
C369 C372 1.431 . S
C369 C389 1.449 . S
C370 C369 1.258 . S
C370 C371 1.477 . S
C370 H390 0.931 . S
C371 C367 1.460 . S
C371 C370 1.477 . S
C371 H391 0.930 . S
C372 N368 1.362 . S
C372 C369 1.431 . S
C372 C382 1.476 . S
H373 C367 0.929 . S
C374 O365 1.250 . S
C374 O366 1.258 . S
O375 Mn360 2.162 . S
O375 C363 1.281 . S
O376 Mn360 2.297 . S
O376 C363 1.236 . S
N377 Mn361 2.282 . S
N377 C378 1.328 . S
N377 C382 1.318 . S
C378 N377 1.328 . S
C378 C379 1.457 . S
C378 H383 0.929 . S
C379 C378 1.457 . S
C379 C380 1.291 . S
C379 H392 0.931 . S
C380 C379 1.291 . S
C380 C381 1.373 . S
C380 H393 0.929 . S
C381 C380 1.373 . S
C381 C382 1.396 . S
C381 C388 1.403 . S
C382 C372 1.476 . S
C382 N377 1.318 . S
C382 C381 1.396 . S
H383 C378 0.929 . S
O384 Mn360 2.385 . S
O384 C362 1.234 . S
O385 Mn360 2.209 . S
O385 Mn361 2.215 . S
O385 C362 1.283 . S
O386 Mn360 2.094 . S
O386 C364 1.240 . S
O387 Mn361 2.117 . S
O387 C364 1.264 . S
C388 C381 1.403 . S
C388 C389 1.399 . S
C388 H394 0.929 . S
C389 C369 1.449 . S
C389 C388 1.399 . S
C389 H395 0.930 . S
H390 C370 0.931 . S
H391 C371 0.930 . S
H392 C379 0.931 . S
H393 C380 0.929 . S
H394 C388 0.929 . S
H395 C389 0.930 . S
Mn396 O401 2.095 . S
Mn396 O411 2.162 . S
Mn396 O412 2.297 1_655 S
Mn396 O420 2.385 1_655 S
Mn396 O421 2.209 1_655 S
Mn396 O422 2.094 . S
Mn397 O402 2.121 . S
Mn397 N404 2.257 . S
Mn397 N413 2.282 . S
Mn397 O421 2.215 . S
Mn397 O423 2.117 1_455 S
C398 O420 1.234 . S
C398 O421 1.283 . S
C399 O411 1.281 . S
C399 O412 1.236 1_655 S
C400 O422 1.240 . S
C400 O423 1.264 . S
O401 Mn396 2.095 . S
O401 C410 1.250 . S
O402 Mn397 2.121 . S
O402 C410 1.258 1_455 S
C403 N404 1.326 . S
C403 C407 1.460 . S
C403 H409 0.929 . S
N404 Mn397 2.257 . S
N404 C403 1.326 . S
N404 C408 1.362 . S
C405 C406 1.258 . S
C405 C408 1.431 . S
C405 C425 1.449 . S
C406 C405 1.258 . S
C406 C407 1.477 . S
C406 H426 0.931 . S
C407 C403 1.460 . S
C407 C406 1.477 . S
C407 H427 0.930 . S
C408 N404 1.362 . S
C408 C405 1.431 . S
C408 C418 1.476 . S
H409 C403 0.929 . S
C410 O401 1.250 . S
C410 O402 1.258 1_655 S
O411 Mn396 2.162 . S
O411 C399 1.281 . S
O412 Mn396 2.297 1_455 S
O412 C399 1.236 1_455 S
N413 Mn397 2.282 . S
N413 C414 1.328 . S
N413 C418 1.318 . S
C414 N413 1.328 . S
C414 C415 1.457 . S
C414 H419 0.929 . S
C415 C414 1.457 . S
C415 C416 1.291 . S
C415 H428 0.931 . S
C416 C415 1.291 . S
C416 C417 1.373 . S
C416 H429 0.929 . S
C417 C416 1.373 . S
C417 C418 1.396 . S
C417 C424 1.403 . S
C418 C408 1.476 . S
C418 N413 1.318 . S
C418 C417 1.396 . S
H419 C414 0.929 . S
O420 Mn396 2.385 1_455 S
O420 C398 1.234 . S
O421 Mn396 2.209 1_455 S
O421 Mn397 2.215 . S
O421 C398 1.283 . S
O422 Mn396 2.094 . S
O422 C400 1.240 . S
O423 Mn397 2.117 1_655 S
O423 C400 1.264 . S
C424 C417 1.403 . S
C424 C425 1.399 . S
C424 H430 0.929 . S
C425 C405 1.449 . S
C425 C424 1.399 . S
C425 H431 0.930 . S
H426 C406 0.931 . S
H427 C407 0.930 . S
H428 C415 0.931 . S
H429 C416 0.929 . S
H430 C424 0.929 . S
H431 C425 0.930 . S
Mn432 O437 2.095 . S
Mn432 O447 2.162 . S
Mn432 O448 2.297 . S
Mn432 O456 2.385 1_554 S
Mn432 O457 2.209 . S
Mn432 O458 2.094 1_554 S
Mn433 O438 2.121 . S
Mn433 N440 2.257 . S
Mn433 N449 2.282 . S
Mn433 O457 2.215 . S
Mn433 O459 2.117 . S
C434 O456 1.234 1_554 S
C434 O457 1.283 . S
C435 O447 1.281 . S
C435 O448 1.236 . S
C436 O458 1.240 . S
C436 O459 1.264 1_556 S
O437 Mn432 2.095 . S
O437 C446 1.250 . S
O438 Mn433 2.121 . S
O438 C446 1.258 . S
C439 N440 1.326 . S
C439 C443 1.460 . S
C439 H445 0.929 . S
N440 Mn433 2.257 . S
N440 C439 1.326 . S
N440 C444 1.362 . S
C441 C442 1.258 . S
C441 C444 1.431 . S
C441 C461 1.449 . S
C442 C441 1.258 . S
C442 C443 1.477 . S
C442 H462 0.931 . S
C443 C439 1.460 . S
C443 C442 1.477 . S
C443 H463 0.930 . S
C444 N440 1.362 . S
C444 C441 1.431 . S
C444 C454 1.476 . S
H445 C439 0.929 . S
C446 O437 1.250 . S
C446 O438 1.258 . S
O447 Mn432 2.162 . S
O447 C435 1.281 . S
O448 Mn432 2.297 . S
O448 C435 1.236 . S
N449 Mn433 2.282 . S
N449 C450 1.328 1_554 S
N449 C454 1.318 . S
C450 N449 1.328 1_556 S
C450 C451 1.457 . S
C450 H455 0.929 . S
C451 C450 1.457 . S
C451 C452 1.291 . S
C451 H464 0.931 . S
C452 C451 1.291 . S
C452 C453 1.373 1_556 S
C452 H465 0.929 . S
C453 C452 1.373 1_554 S
C453 C454 1.396 . S
C453 C460 1.403 . S
C454 C444 1.476 . S
C454 N449 1.318 . S
C454 C453 1.396 . S
H455 C450 0.929 . S
O456 Mn432 2.385 1_556 S
O456 C434 1.234 1_556 S
O457 Mn432 2.209 . S
O457 Mn433 2.215 . S
O457 C434 1.283 . S
O458 Mn432 2.094 1_556 S
O458 C436 1.240 . S
O459 Mn433 2.117 . S
O459 C436 1.264 1_554 S
C460 C453 1.403 . S
C460 C461 1.399 . S
C460 H466 0.929 . S
C461 C441 1.449 . S
C461 C460 1.399 . S
C461 H467 0.930 . S
H462 C442 0.931 . S
H463 C443 0.930 . S
H464 C451 0.931 . S
H465 C452 0.929 . S
H466 C460 0.929 . S
H467 C461 0.930 . S
Mn468 O473 2.095 . S
Mn468 O483 2.162 . S
Mn468 O484 2.297 . S
Mn468 O492 2.385 . S
Mn468 O493 2.209 . S
Mn468 O494 2.094 . S
Mn469 O474 2.121 . S
Mn469 N476 2.257 . S
Mn469 N485 2.282 . S
Mn469 O493 2.215 . S
Mn469 O495 2.117 . S
C470 O492 1.234 . S
C470 O493 1.283 . S
C471 O483 1.281 . S
C471 O484 1.236 . S
C472 O494 1.240 . S
C472 O495 1.264 . S
O473 Mn468 2.095 . S
O473 C482 1.250 . S
O474 Mn469 2.121 . S
O474 C482 1.258 . S
C475 N476 1.326 . S
C475 C479 1.460 . S
C475 H481 0.929 . S
N476 Mn469 2.257 . S
N476 C475 1.326 . S
N476 C480 1.362 . S
C477 C478 1.258 . S
C477 C480 1.431 . S
C477 C497 1.449 . S
C478 C477 1.258 . S
C478 C479 1.477 . S
C478 H498 0.931 . S
C479 C475 1.460 . S
C479 C478 1.477 . S
C479 H499 0.930 . S
C480 N476 1.362 . S
C480 C477 1.431 . S
C480 C490 1.476 . S
H481 C475 0.929 . S
C482 O473 1.250 . S
C482 O474 1.258 . S
O483 Mn468 2.162 . S
O483 C471 1.281 . S
O484 Mn468 2.297 . S
O484 C471 1.236 . S
N485 Mn469 2.282 . S
N485 C486 1.328 . S
N485 C490 1.318 . S
C486 N485 1.328 . S
C486 C487 1.457 . S
C486 H491 0.929 . S
C487 C486 1.457 . S
C487 C488 1.291 . S
C487 H500 0.931 . S
C488 C487 1.291 . S
C488 C489 1.373 . S
C488 H501 0.929 . S
C489 C488 1.373 . S
C489 C490 1.396 . S
C489 C496 1.403 . S
C490 C480 1.476 . S
C490 N485 1.318 . S
C490 C489 1.396 . S
H491 C486 0.929 . S
O492 Mn468 2.385 . S
O492 C470 1.234 . S
O493 Mn468 2.209 . S
O493 Mn469 2.215 . S
O493 C470 1.283 . S
O494 Mn468 2.094 . S
O494 C472 1.240 . S
O495 Mn469 2.117 . S
O495 C472 1.264 . S
C496 C489 1.403 . S
C496 C497 1.399 . S
C496 H502 0.929 . S
C497 C477 1.449 . S
C497 C496 1.399 . S
C497 H503 0.930 1_655 S
H498 C478 0.931 . S
H499 C479 0.930 . S
H500 C487 0.931 . S
H501 C488 0.929 . S
H502 C496 0.929 . S
H503 C497 0.930 1_455 S
Mn504 O509 2.095 . S
Mn504 O519 2.162 . S
Mn504 O520 2.297 . S
Mn504 O528 2.385 . S
Mn504 O529 2.209 . S
Mn504 O530 2.094 . S
Mn505 O510 2.121 . S
Mn505 N512 2.257 . S
Mn505 N521 2.282 . S
Mn505 O529 2.215 . S
Mn505 O531 2.117 . S
C506 O528 1.234 . S
C506 O529 1.283 . S
C507 O519 1.281 . S
C507 O520 1.236 . S
C508 O530 1.240 . S
C508 O531 1.264 . S
O509 Mn504 2.095 . S
O509 C518 1.250 . S
O510 Mn505 2.121 . S
O510 C518 1.258 . S
C511 N512 1.326 . S
C511 C515 1.460 . S
C511 H517 0.929 . S
N512 Mn505 2.257 . S
N512 C511 1.326 . S
N512 C516 1.362 . S
C513 C514 1.258 . S
C513 C516 1.431 . S
C513 C533 1.449 . S
C514 C513 1.258 . S
C514 C515 1.477 . S
C514 H534 0.931 . S
C515 C511 1.460 . S
C515 C514 1.477 . S
C515 H535 0.930 . S
C516 N512 1.362 . S
C516 C513 1.431 . S
C516 C526 1.476 . S
H517 C511 0.929 . S
C518 O509 1.250 . S
C518 O510 1.258 . S
O519 Mn504 2.162 . S
O519 C507 1.281 . S
O520 Mn504 2.297 . S
O520 C507 1.236 . S
N521 Mn505 2.282 . S
N521 C522 1.328 . S
N521 C526 1.318 . S
C522 N521 1.328 . S
C522 C523 1.457 . S
C522 H527 0.929 . S
C523 C522 1.457 . S
C523 C524 1.291 . S
C523 H536 0.931 . S
C524 C523 1.291 . S
C524 C525 1.373 . S
C524 H537 0.929 . S
C525 C524 1.373 . S
C525 C526 1.396 . S
C525 C532 1.403 . S
C526 C516 1.476 . S
C526 N521 1.318 . S
C526 C525 1.396 . S
H527 C522 0.929 . S
O528 Mn504 2.385 . S
O528 C506 1.234 . S
O529 Mn504 2.209 . S
O529 Mn505 2.215 . S
O529 C506 1.283 . S
O530 Mn504 2.094 . S
O530 C508 1.240 . S
O531 Mn505 2.117 . S
O531 C508 1.264 . S
C532 C525 1.403 . S
C532 C533 1.399 . S
C532 H538 0.929 . S
C533 C513 1.449 . S
C533 C532 1.399 . S
C533 H539 0.930 . S
H534 C514 0.931 . S
H535 C515 0.930 . S
H536 C523 0.931 . S
H537 C524 0.929 . S
H538 C532 0.929 . S
H539 C533 0.930 . S
Mn540 O545 2.095 . S
Mn540 O555 2.162 . S
Mn540 O556 2.297 . S
Mn540 O564 2.385 . S
Mn540 O565 2.209 . S
Mn540 O566 2.094 . S
Mn541 O546 2.121 . S
Mn541 N548 2.257 . S
Mn541 N557 2.282 . S
Mn541 O565 2.215 . S
Mn541 O567 2.117 . S
C542 O564 1.234 . S
C542 O565 1.283 . S
C543 O555 1.281 . S
C543 O556 1.236 . S
C544 O566 1.240 . S
C544 O567 1.264 . S
O545 Mn540 2.095 . S
O545 C554 1.250 . S
O546 Mn541 2.121 . S
O546 C554 1.258 . S
C547 N548 1.326 . S
C547 C551 1.460 . S
C547 H553 0.929 . S
N548 Mn541 2.257 . S
N548 C547 1.326 . S
N548 C552 1.362 . S
C549 C550 1.258 . S
C549 C552 1.431 . S
C549 C569 1.449 . S
C550 C549 1.258 . S
C550 C551 1.477 . S
C550 H570 0.931 . S
C551 C547 1.460 . S
C551 C550 1.477 . S
C551 H571 0.930 . S
C552 N548 1.362 . S
C552 C549 1.431 . S
C552 C562 1.476 . S
H553 C547 0.929 . S
C554 O545 1.250 . S
C554 O546 1.258 . S
O555 Mn540 2.162 . S
O555 C543 1.281 . S
O556 Mn540 2.297 . S
O556 C543 1.236 . S
N557 Mn541 2.282 . S
N557 C558 1.328 . S
N557 C562 1.318 . S
C558 N557 1.328 . S
C558 C559 1.457 . S
C558 H563 0.929 . S
C559 C558 1.457 . S
C559 C560 1.291 . S
C559 H572 0.931 . S
C560 C559 1.291 . S
C560 C561 1.373 . S
C560 H573 0.929 . S
C561 C560 1.373 . S
C561 C562 1.396 . S
C561 C568 1.403 . S
C562 C552 1.476 . S
C562 N557 1.318 . S
C562 C561 1.396 . S
H563 C558 0.929 . S
O564 Mn540 2.385 . S
O564 C542 1.234 . S
O565 Mn540 2.209 . S
O565 Mn541 2.215 . S
O565 C542 1.283 . S
O566 Mn540 2.094 . S
O566 C544 1.240 . S
O567 Mn541 2.117 . S
O567 C544 1.264 . S
C568 C561 1.403 . S
C568 C569 1.399 . S
C568 H574 0.929 . S
C569 C549 1.449 . S
C569 C568 1.399 . S
C569 H575 0.930 . S
H570 C550 0.931 . S
H571 C551 0.930 . S
H572 C559 0.931 . S
H573 C560 0.929 . S
H574 C568 0.929 . S
H575 C569 0.930 . S
H576 C588 0.930 . S
H577 C590 0.930 . S
H578 C591 0.930 . S
H579 C595 0.959 . S
H580 C595 0.959 . S
H581 C595 0.961 . S
H582 C596 0.960 . S
H583 C596 0.961 . S
H584 C596 0.959 . S
H585 C599 0.929 . S
H586 C600 0.931 . S
H587 C602 0.930 . S
C588 H576 0.930 . S
C588 C589 1.399 . S
C588 C593 1.399 . S
C589 C588 1.399 . S
C589 C590 1.376 . S
C590 H577 0.930 . S
C590 C589 1.376 . S
C590 C591 1.388 . S
C591 H578 0.930 . S
C591 C590 1.388 . S
C591 C592 1.390 . S
C592 C591 1.390 . S
C592 C593 1.394 . S
C592 C598 1.465 . S
C593 C588 1.399 . S
C593 C592 1.394 . S
C593 C594 1.516 . S
C594 C593 1.516 . S
C594 C595 1.502 . S
C594 C596 1.561 . S
C594 C597 1.526 . S
C595 H579 0.959 . S
C595 H580 0.959 . S
C595 H581 0.961 . S
C595 C594 1.502 . S
C596 H582 0.960 . S
C596 H583 0.961 . S
C596 H584 0.959 . S
C596 C594 1.561 . S
C597 C594 1.526 . S
C597 C598 1.396 . S
C597 C602 1.390 . S
C598 C592 1.465 . S
C598 C597 1.396 . S
C598 C599 1.399 . S
C599 H585 0.929 . S
C599 C598 1.399 . S
C599 C600 1.385 . S
C600 H586 0.931 . S
C600 C599 1.385 . S
C600 C601 1.389 . S
C601 C600 1.389 . S
C601 C602 1.387 . S
C602 H587 0.930 . S
C602 C597 1.390 . S
C602 C601 1.387 . S
H603 C615 0.930 . S
H604 C617 0.930 . S
H605 C618 0.930 . S
H606 C622 0.959 . S
H607 C622 0.959 . S
H608 C622 0.951 1_655 S
H609 C623 0.960 . S
H610 C623 0.961 . S
H611 C623 0.959 . S
H612 C626 0.929 . S
H613 C627 0.931 . S
H614 C629 0.930 . S
C615 H603 0.930 . S
C615 C616 1.399 . S
C615 C620 1.399 . S
C616 C615 1.399 . S
C616 C617 1.376 . S
C617 H604 0.930 . S
C617 C616 1.376 . S
C617 C618 1.388 . S
C618 H605 0.930 . S
C618 C617 1.388 . S
C618 C619 1.390 . S
C619 C618 1.390 . S
C619 C620 1.394 . S
C619 C625 1.465 . S
C620 C615 1.399 . S
C620 C619 1.394 . S
C620 C621 1.516 . S
C621 C620 1.516 . S
C621 C622 1.502 . S
C621 C623 1.561 . S
C621 C624 1.526 . S
C622 H606 0.959 . S
C622 H607 0.959 . S
C622 H608 0.951 1_455 S
C622 C621 1.502 . S
C623 H609 0.960 . S
C623 H610 0.961 . S
C623 H611 0.959 . S
C623 C621 1.561 . S
C624 C621 1.526 . S
C624 C625 1.396 . S
C624 C629 1.390 . S
C625 C619 1.465 . S
C625 C624 1.396 . S
C625 C626 1.399 . S
C626 H612 0.929 . S
C626 C625 1.399 . S
C626 C627 1.385 . S
C627 H613 0.931 . S
C627 C626 1.385 . S
C627 C628 1.389 . S
C628 C627 1.389 . S
C628 C629 1.387 . S
C629 H614 0.930 . S
C629 C624 1.390 . S
C629 C628 1.387 . S
H630 C642 0.930 . S
H631 C644 0.930 . S
H632 C645 0.930 . S
H633 C649 0.959 . S
H634 C649 0.959 . S
H635 C649 0.961 . S
H636 C650 0.960 . S
H637 C650 0.961 . S
H638 C650 0.959 . S
H639 C653 0.929 . S
H640 C654 0.931 . S
H641 C656 0.930 . S
C642 H630 0.930 . S
C642 C643 1.399 . S
C642 C647 1.399 . S
C643 C642 1.399 . S
C643 C644 1.376 . S
C644 H631 0.930 . S
C644 C643 1.376 . S
C644 C645 1.388 . S
C645 H632 0.930 . S
C645 C644 1.388 . S
C645 C646 1.390 . S
C646 C645 1.390 . S
C646 C647 1.394 . S
C646 C652 1.465 . S
C647 C642 1.399 . S
C647 C646 1.394 . S
C647 C648 1.516 . S
C648 C647 1.516 . S
C648 C649 1.502 . S
C648 C650 1.561 . S
C648 C651 1.526 . S
C649 H633 0.959 . S
C649 H634 0.959 . S
C649 H635 0.961 . S
C649 C648 1.502 . S
C650 H636 0.960 . S
C650 H637 0.961 . S
C650 H638 0.959 . S
C650 C648 1.561 . S
C651 C648 1.526 . S
C651 C652 1.396 . S
C651 C656 1.390 . S
C652 C646 1.465 . S
C652 C651 1.396 . S
C652 C653 1.399 . S
C653 H639 0.929 . S
C653 C652 1.399 . S
C653 C654 1.385 . S
C654 H640 0.931 . S
C654 C653 1.385 . S
C654 C655 1.389 . S
C655 C654 1.389 . S
C655 C656 1.387 . S
C656 H641 0.930 . S
C656 C651 1.390 . S
C656 C655 1.387 . S
H657 C669 0.930 . S
H658 C671 0.930 . S
H659 C672 0.930 . S
H660 C676 0.959 . S
H661 C676 0.959 . S
H662 C676 0.961 . S
H663 C677 0.960 . S
H664 C677 0.961 . S
H665 C677 0.959 . S
H666 C680 0.929 . S
H667 C681 0.931 . S
H668 C683 0.930 . S
C669 H657 0.930 . S
C669 C670 1.399 . S
C669 C674 1.399 . S
C670 C669 1.399 . S
C670 C671 1.376 . S
C671 H658 0.930 . S
C671 C670 1.376 . S
C671 C672 1.388 . S
C672 H659 0.930 . S
C672 C671 1.388 . S
C672 C673 1.390 . S
C673 C672 1.390 . S
C673 C674 1.394 . S
C673 C679 1.465 . S
C674 C669 1.399 . S
C674 C673 1.394 . S
C674 C675 1.516 . S
C675 C674 1.516 . S
C675 C676 1.502 . S
C675 C677 1.561 . S
C675 C678 1.526 . S
C676 H660 0.959 . S
C676 H661 0.959 . S
C676 H662 0.961 . S
C676 C675 1.502 . S
C677 H663 0.960 . S
C677 H664 0.961 . S
C677 H665 0.959 . S
C677 C675 1.561 . S
C678 C675 1.526 . S
C678 C679 1.396 . S
C678 C683 1.390 . S
C679 C673 1.465 . S
C679 C678 1.396 . S
C679 C680 1.399 . S
C680 H666 0.929 . S
C680 C679 1.399 . S
C680 C681 1.385 . S
C681 H667 0.931 . S
C681 C680 1.385 . S
C681 C682 1.389 . S
C682 C681 1.389 . S
C682 C683 1.387 . S
C683 H668 0.930 . S
C683 C678 1.390 . S
C683 C682 1.387 . S
H684 C696 0.930 . S
H685 C698 0.930 . S
H686 C699 0.930 . S
H687 C703 0.959 . S
H688 C703 0.959 . S
H689 C703 0.961 . S
H690 C704 0.960 . S
H691 C704 0.961 . S
H692 C704 0.959 . S
H693 C707 0.929 . S
H694 C708 0.931 . S
H695 C710 0.930 . S
C696 H684 0.930 . S
C696 C697 1.399 . S
C696 C701 1.399 . S
C697 C696 1.399 . S
C697 C698 1.376 . S
C698 H685 0.930 . S
C698 C697 1.376 . S
C698 C699 1.388 . S
C699 H686 0.930 . S
C699 C698 1.388 . S
C699 C700 1.390 . S
C700 C699 1.390 . S
C700 C701 1.394 . S
C700 C706 1.465 . S
C701 C696 1.399 . S
C701 C700 1.394 . S
C701 C702 1.516 . S
C702 C701 1.516 . S
C702 C703 1.502 . S
C702 C704 1.561 . S
C702 C705 1.526 . S
C703 H687 0.959 . S
C703 H688 0.959 . S
C703 H689 0.961 . S
C703 C702 1.502 . S
C704 H690 0.960 . S
C704 H691 0.961 . S
C704 H692 0.959 . S
C704 C702 1.561 . S
C705 C702 1.526 . S
C705 C706 1.396 . S
C705 C710 1.390 . S
C706 C700 1.465 . S
C706 C705 1.396 . S
C706 C707 1.399 . S
C707 H693 0.929 . S
C707 C706 1.399 . S
C707 C708 1.385 . S
C708 H694 0.931 . S
C708 C707 1.385 . S
C708 C709 1.389 . S
C709 C708 1.389 . S
C709 C710 1.387 . S
C710 H695 0.930 . S
C710 C705 1.390 . S
C710 C709 1.387 . S
H711 C723 0.930 . S
H712 C725 0.930 1_556 S
H713 C726 0.930 . S
H714 C730 0.959 . S
H715 C730 0.959 . S
H716 C730 0.961 . S
H717 C731 0.960 . S
H718 C731 0.961 . S
H719 C731 0.959 . S
H720 C734 0.929 . S
H721 C735 0.931 . S
H722 C737 0.930 . S
C723 H711 0.930 . S
C723 C724 1.399 . S
C723 C728 1.399 . S
C724 C723 1.399 . S
C724 C725 1.376 . S
C725 H712 0.930 1_554 S
C725 C724 1.376 . S
C725 C726 1.388 . S
C726 H713 0.930 . S
C726 C725 1.388 . S
C726 C727 1.390 . S
C727 C726 1.390 . S
C727 C728 1.394 . S
C727 C733 1.465 . S
C728 C723 1.399 . S
C728 C727 1.394 . S
C728 C729 1.516 . S
C729 C728 1.516 . S
C729 C730 1.502 . S
C729 C731 1.561 . S
C729 C732 1.526 . S
C730 H714 0.959 . S
C730 H715 0.959 . S
C730 H716 0.961 . S
C730 C729 1.502 . S
C731 H717 0.960 . S
C731 H718 0.961 . S
C731 H719 0.959 . S
C731 C729 1.561 . S
C732 C729 1.526 . S
C732 C733 1.396 . S
C732 C737 1.390 . S
C733 C727 1.465 . S
C733 C732 1.396 . S
C733 C734 1.399 . S
C734 H720 0.929 . S
C734 C733 1.399 . S
C734 C735 1.385 . S
C735 H721 0.931 . S
C735 C734 1.385 . S
C735 C736 1.389 . S
C736 C735 1.389 . S
C736 C737 1.387 . S
C737 H722 0.930 . S
C737 C732 1.390 . S
C737 C736 1.387 . S
H738 C750 0.930 . S
H739 C752 0.930 . S
H740 C753 0.930 . S
H741 C757 0.959 . S
H742 C757 0.959 . S
H743 C757 0.961 . S
H744 C758 0.960 . S
H745 C758 0.961 . S
H746 C758 0.959 . S
H747 C761 0.929 . S
H748 C762 0.931 . S
H749 C764 0.930 . S
C750 H738 0.930 . S
C750 C751 1.399 . S
C750 C755 1.399 . S
C751 C750 1.399 . S
C751 C752 1.376 . S
C752 H739 0.930 . S
C752 C751 1.376 . S
C752 C753 1.388 . S
C753 H740 0.930 . S
C753 C752 1.388 . S
C753 C754 1.390 . S
C754 C753 1.390 . S
C754 C755 1.394 . S
C754 C760 1.465 . S
C755 C750 1.399 . S
C755 C754 1.394 . S
C755 C756 1.516 . S
C756 C755 1.516 . S
C756 C757 1.502 . S
C756 C758 1.561 . S
C756 C759 1.526 . S
C757 H741 0.959 . S
C757 H742 0.959 . S
C757 H743 0.961 . S
C757 C756 1.502 . S
C758 H744 0.960 . S
C758 H745 0.961 . S
C758 H746 0.959 . S
C758 C756 1.561 . S
C759 C756 1.526 . S
C759 C760 1.396 . S
C759 C764 1.390 . S
C760 C754 1.465 . S
C760 C759 1.396 . S
C760 C761 1.399 . S
C761 H747 0.929 . S
C761 C760 1.399 . S
C761 C762 1.385 . S
C762 H748 0.931 . S
C762 C761 1.385 . S
C762 C763 1.389 . S
C763 C762 1.389 . S
C763 C764 1.387 . S
C764 H749 0.930 . S
C764 C759 1.390 . S
C764 C763 1.387 . S
H765 C777 0.930 . S
H766 C779 0.930 . S
H767 C780 0.930 . S
H768 C784 0.959 . S
H769 C784 0.959 . S
H770 C784 0.961 . S
H771 C785 0.960 . S
H772 C785 0.961 . S
H773 C785 0.959 . S
H774 C788 0.929 . S
H775 C789 0.931 . S
H776 C791 0.930 . S
C777 H765 0.930 . S
C777 C778 1.399 . S
C777 C782 1.399 . S
C778 C777 1.399 . S
C778 C779 1.376 . S
C779 H766 0.930 . S
C779 C778 1.376 . S
C779 C780 1.388 . S
C780 H767 0.930 . S
C780 C779 1.388 . S
C780 C781 1.390 . S
C781 C780 1.390 . S
C781 C782 1.394 . S
C781 C787 1.465 . S
C782 C777 1.399 . S
C782 C781 1.394 . S
C782 C783 1.516 . S
C783 C782 1.516 . S
C783 C784 1.502 . S
C783 C785 1.561 . S
C783 C786 1.526 . S
C784 H768 0.959 . S
C784 H769 0.959 . S
C784 H770 0.961 . S
C784 C783 1.502 . S
C785 H771 0.960 . S
C785 H772 0.961 . S
C785 H773 0.959 . S
C785 C783 1.561 . S
C786 C783 1.526 . S
C786 C787 1.396 . S
C786 C791 1.390 . S
C787 C781 1.465 . S
C787 C786 1.396 . S
C787 C788 1.399 . S
C788 H774 0.929 . S
C788 C787 1.399 . S
C788 C789 1.385 . S
C789 H775 0.931 . S
C789 C788 1.385 . S
C789 C790 1.389 . S
C790 C789 1.389 . S
C790 C791 1.387 . S
C791 H776 0.930 . S
C791 C786 1.390 . S
C791 C790 1.387 . S
H792 C804 0.930 . S
H793 C806 0.930 . S
H794 C807 0.930 . S
H795 C811 0.959 . S
H796 C811 0.959 . S
H797 C811 0.961 . S
H798 C812 0.960 . S
H799 C812 0.961 . S
H800 C812 0.959 . S
H801 C815 0.929 . S
H802 C816 0.931 . S
H803 C818 0.930 . S
C804 H792 0.930 . S
C804 C805 1.399 . S
C804 C809 1.399 . S
C805 C804 1.399 . S
C805 C806 1.376 . S
C806 H793 0.930 . S
C806 C805 1.376 . S
C806 C807 1.388 . S
C807 H794 0.930 . S
C807 C806 1.388 . S
C807 C808 1.390 . S
C808 C807 1.390 . S
C808 C809 1.394 . S
C808 C814 1.465 . S
C809 C804 1.399 . S
C809 C808 1.394 . S
C809 C810 1.516 . S
C810 C809 1.516 . S
C810 C811 1.502 . S
C810 C812 1.561 . S
C810 C813 1.526 . S
C811 H795 0.959 . S
C811 H796 0.959 . S
C811 H797 0.961 . S
C811 C810 1.502 . S
C812 H798 0.960 . S
C812 H799 0.961 . S
C812 H800 0.959 . S
C812 C810 1.561 . S
C813 C810 1.526 . S
C813 C814 1.396 . S
C813 C818 1.390 . S
C814 C808 1.465 . S
C814 C813 1.396 . S
C814 C815 1.399 . S
C815 H801 0.929 . S
C815 C814 1.399 . S
C815 C816 1.385 . S
C816 H802 0.931 . S
C816 C815 1.385 . S
C816 C817 1.389 . S
C817 C816 1.389 . S
C817 C818 1.387 . S
C818 H803 0.930 . S
C818 C813 1.390 . S
C818 C817 1.387 . S
H819 C831 0.930 . S
H820 C833 0.930 1_655 S
H821 C834 0.930 . S
H822 C838 0.959 . S
H823 C838 0.959 . S
H824 C838 0.961 . S
H825 C839 0.960 . S
H826 C839 0.961 . S
H827 C839 0.959 1_655 S
H828 C842 0.929 1_655 S
H829 C843 0.931 1_655 S
H830 C845 0.930 . S
C831 H819 0.930 . S
C831 C832 1.399 1_565 S
C831 C836 1.399 . S
C832 C831 1.399 1_545 S
C832 C833 1.376 . S
C833 H820 0.930 1_455 S
C833 C832 1.376 . S
C833 C834 1.388 1_455 S
C834 H821 0.930 . S
C834 C833 1.388 1_655 S
C834 C835 1.390 1_655 S
C835 C834 1.390 1_455 S
C835 C836 1.394 1_545 S
C835 C841 1.465 . S
C836 C831 1.399 . S
C836 C835 1.394 1_565 S
C836 C837 1.516 . S
C837 C836 1.516 . S
C837 C838 1.502 . S
C837 C839 1.561 . S
C837 C840 1.526 . S
C838 H822 0.959 . S
C838 H823 0.959 . S
C838 H824 0.961 . S
C838 C837 1.502 . S
C839 H825 0.960 . S
C839 H826 0.961 . S
C839 H827 0.959 1_455 S
C839 C837 1.561 . S
C840 C837 1.526 . S
C840 C841 1.396 1_565 S
C840 C845 1.390 . S
C841 C835 1.465 . S
C841 C840 1.396 1_545 S
C841 C842 1.399 . S
C842 H828 0.929 1_455 S
C842 C841 1.399 . S
C842 C843 1.385 . S
C843 H829 0.931 1_455 S
C843 C842 1.385 . S
C843 C844 1.389 . S
C844 C843 1.389 . S
C844 C845 1.387 1_545 S
C845 H830 0.930 . S
C845 C840 1.390 . S
C845 C844 1.387 1_565 S
H846 C858 0.930 . S
H847 C860 0.930 . S
H848 C861 0.930 . S
H849 C865 0.959 . S
H850 C865 0.959 . S
H851 C865 0.961 1_556 S
H852 C866 0.960 . S
H853 C866 0.961 1_554 S
H854 C866 0.959 . S
H855 C869 0.929 . S
H856 C870 0.931 . S
H857 C872 0.930 . S
C858 H846 0.930 . S
C858 C859 1.399 . S
C858 C863 1.399 . S
C859 C858 1.399 . S
C859 C860 1.376 . S
C860 H847 0.930 . S
C860 C859 1.376 . S
C860 C861 1.388 . S
C861 H848 0.930 . S
C861 C860 1.388 . S
C861 C862 1.390 . S
C862 C861 1.390 . S
C862 C863 1.394 . S
C862 C868 1.465 1_556 S
C863 C858 1.399 . S
C863 C862 1.394 . S
C863 C864 1.516 1_556 S
C864 C863 1.516 1_554 S
C864 C865 1.502 . S
C864 C866 1.561 1_554 S
C864 C867 1.526 . S
C865 H849 0.959 . S
C865 H850 0.959 . S
C865 H851 0.961 1_554 S
C865 C864 1.502 . S
C866 H852 0.960 . S
C866 H853 0.961 1_556 S
C866 H854 0.959 . S
C866 C864 1.561 1_556 S
C867 C864 1.526 . S
C867 C868 1.396 . S
C867 C872 1.390 . S
C868 C862 1.465 1_554 S
C868 C867 1.396 . S
C868 C869 1.399 . S
C869 H855 0.929 . S
C869 C868 1.399 . S
C869 C870 1.385 . S
C870 H856 0.931 . S
C870 C869 1.385 . S
C870 C871 1.389 . S
C871 C870 1.389 . S
C871 C872 1.387 . S
C872 H857 0.930 . S
C872 C867 1.390 . S
C872 C871 1.387 . S
H873 C885 0.930 . S
H874 C887 0.930 . S
H875 C888 0.930 . S
H876 C892 0.959 . S
H877 C892 0.959 . S
H878 C892 0.961 . S
H879 C893 0.960 . S
H880 C893 0.961 . S
H881 C893 0.959 . S
H882 C896 0.929 . S
H883 C897 0.931 . S
H884 C899 0.930 . S
C885 H873 0.930 . S
C885 C886 1.399 1_565 S
C885 C890 1.399 . S
C886 C885 1.399 1_545 S
C886 C887 1.376 . S
C887 H874 0.930 . S
C887 C886 1.376 . S
C887 C888 1.388 . S
C888 H875 0.930 . S
C888 C887 1.388 . S
C888 C889 1.390 . S
C889 C888 1.390 . S
C889 C890 1.394 1_545 S
C889 C895 1.465 . S
C890 C885 1.399 . S
C890 C889 1.394 1_565 S
C890 C891 1.516 . S
C891 C890 1.516 . S
C891 C892 1.502 . S
C891 C893 1.561 . S
C891 C894 1.526 . S
C892 H876 0.959 . S
C892 H877 0.959 . S
C892 H878 0.961 . S
C892 C891 1.502 . S
C893 H879 0.960 . S
C893 H880 0.961 . S
C893 H881 0.959 . S
C893 C891 1.561 . S
C894 C891 1.526 . S
C894 C895 1.396 1_565 S
C894 C899 1.390 . S
C895 C889 1.465 . S
C895 C894 1.396 1_545 S
C895 C896 1.399 . S
C896 H882 0.929 . S
C896 C895 1.399 . S
C896 C897 1.385 . S
C897 H883 0.931 . S
C897 C896 1.385 . S
C897 C898 1.389 . S
C898 C897 1.389 . S
C898 C899 1.387 1_545 S
C899 H884 0.930 . S
C899 C894 1.390 . S
C899 C898 1.387 1_565 S
H900 C912 0.930 . S
H901 C914 0.930 . S
H902 C915 0.930 . S
H903 C919 0.959 . S
H904 C919 0.959 . S
H905 C919 0.961 . S
H906 C920 0.960 . S
H907 C920 0.961 . S
H908 C920 0.959 . S
H909 C923 0.929 . S
H910 C924 0.931 . S
H911 C926 0.930 . S
C912 H900 0.930 . S
C912 C913 1.399 . S
C912 C917 1.399 . S
C913 C912 1.399 . S
C913 C914 1.376 . S
C914 H901 0.930 . S
C914 C913 1.376 . S
C914 C915 1.388 . S
C915 H902 0.930 . S
C915 C914 1.388 . S
C915 C916 1.390 . S
C916 C915 1.390 . S
C916 C917 1.394 . S
C916 C922 1.465 . S
C917 C912 1.399 . S
C917 C916 1.394 . S
C917 C918 1.516 . S
C918 C917 1.516 . S
C918 C919 1.502 . S
C918 C920 1.561 . S
C918 C921 1.526 . S
C919 H903 0.959 . S
C919 H904 0.959 . S
C919 H905 0.961 . S
C919 C918 1.502 . S
C920 H906 0.960 . S
C920 H907 0.961 . S
C920 H908 0.959 . S
C920 C918 1.561 . S
C921 C918 1.526 . S
C921 C922 1.396 . S
C921 C926 1.390 . S
C922 C916 1.465 . S
C922 C921 1.396 . S
C922 C923 1.399 . S
C923 H909 0.929 . S
C923 C922 1.399 . S
C923 C924 1.385 . S
C924 H910 0.931 . S
C924 C923 1.385 . S
C924 C925 1.389 . S
C925 C924 1.389 . S
C925 C926 1.387 . S
C926 H911 0.930 . S
C926 C921 1.390 . S
C926 C925 1.387 . S
H927 C939 0.930 . S
H928 C941 0.930 . S
H929 C942 0.930 . S
H930 C946 0.959 . S
H931 C946 0.959 . S
H932 C946 0.961 . S
H933 C947 0.960 . S
H934 C947 0.956 1_455 S
H935 C947 0.959 . S
H936 C950 0.929 . S
H937 C951 0.931 . S
H938 C953 0.930 . S
C939 H927 0.930 . S
C939 C940 1.399 1_455 S
C939 C944 1.399 . S
C940 C939 1.399 1_655 S
C940 C941 1.376 . S
C941 H928 0.930 . S
C941 C940 1.376 . S
C941 C942 1.388 . S
C942 H929 0.930 . S
C942 C941 1.388 . S
C942 C943 1.390 . S
C943 C942 1.390 . S
C943 C944 1.394 1_655 S
C943 C949 1.465 . S
C944 C939 1.399 . S
C944 C943 1.394 1_455 S
C944 C945 1.516 . S
C945 C944 1.516 . S
C945 C946 1.502 . S
C945 C947 1.561 1_455 S
C945 C948 1.526 . S
C946 H930 0.959 . S
C946 H931 0.959 . S
C946 H932 0.961 . S
C946 C945 1.502 . S
C947 H933 0.960 . S
C947 H934 0.956 1_655 S
C947 H935 0.959 . S
C947 C945 1.561 1_655 S
C948 C945 1.526 . S
C948 C949 1.396 1_455 S
C948 C953 1.390 . S
C949 C943 1.465 . S
C949 C948 1.396 1_655 S
C949 C950 1.399 . S
C950 H936 0.929 . S
C950 C949 1.399 . S
C950 C951 1.385 . S
C951 H937 0.931 . S
C951 C950 1.385 . S
C951 C952 1.389 1_655 S
C952 C951 1.389 1_455 S
C952 C953 1.387 . S
C953 H938 0.930 . S
C953 C948 1.390 . S
C953 C952 1.387 . S
H954 C966 0.930 . S
H955 C968 0.930 . S
H956 C969 0.930 . S
H957 C973 0.960 1_455 S
H958 C973 0.959 1_455 S
H959 C973 0.961 . S
H960 C974 0.960 . S
H961 C974 0.961 1_455 S
H962 C974 0.959 . S
H963 C977 0.929 . S
H964 C978 0.931 . S
H965 C980 0.930 . S
C966 H954 0.930 . S
C966 C967 1.399 . S
C966 C971 1.399 . S
C967 C966 1.399 . S
C967 C968 1.376 . S
C968 H955 0.930 . S
C968 C967 1.376 . S
C968 C969 1.388 . S
C969 H956 0.930 . S
C969 C968 1.388 . S
C969 C970 1.390 . S
C970 C969 1.390 . S
C970 C971 1.394 . S
C970 C976 1.465 1_655 S
C971 C966 1.399 . S
C971 C970 1.394 . S
C971 C972 1.516 . S
C972 C971 1.516 . S
C972 C973 1.502 . S
C972 C974 1.561 . S
C972 C975 1.526 1_655 S
C973 H957 0.960 1_655 S
C973 H958 0.959 1_655 S
C973 H959 0.961 . S
C973 C972 1.502 . S
C974 H960 0.960 . S
C974 H961 0.961 1_655 S
C974 H962 0.959 . S
C974 C972 1.561 . S
C975 C972 1.526 1_455 S
C975 C976 1.396 . S
C975 C980 1.390 . S
C976 C970 1.465 1_455 S
C976 C975 1.396 . S
C976 C977 1.399 . S
C977 H963 0.929 . S
C977 C976 1.399 . S
C977 C978 1.385 . S
C978 H964 0.931 . S
C978 C977 1.385 . S
C978 C979 1.389 . S
C979 C978 1.389 . S
C979 C980 1.387 . S
C980 H965 0.930 . S
C980 C975 1.390 . S
C980 C979 1.387 . S
H981 C993 0.930 1_556 S
H982 C995 0.930 . S
H983 C996 0.930 . S
H984 C1000 0.959 . S
H985 C1000 0.959 . S
H986 C1000 0.961 . S
H987 C1001 0.960 . S
H988 C1001 0.961 . S
H989 C1001 0.959 1_554 S
H990 C1004 0.929 . S
H991 C1005 0.931 . S
H992 C1007 0.930 1_556 S
C993 H981 0.930 1_554 S
C993 C994 1.399 . S
C993 C998 1.399 . S
C994 C993 1.399 . S
C994 C995 1.376 . S
C995 H982 0.930 . S
C995 C994 1.376 . S
C995 C996 1.388 . S
C996 H983 0.930 . S
C996 C995 1.388 . S
C996 C997 1.390 . S
C997 C996 1.390 . S
C997 C998 1.394 . S
C997 C1003 1.465 . S
C998 C993 1.399 . S
C998 C997 1.394 . S
C998 C999 1.516 1_554 S
C999 C998 1.516 1_556 S
C999 C1000 1.502 . S
C999 C1001 1.561 . S
C999 C1002 1.526 1_556 S
C1000 H984 0.959 . S
C1000 H985 0.959 . S
C1000 H986 0.961 . S
C1000 C999 1.502 . S
C1001 H987 0.960 . S
C1001 H988 0.961 . S
C1001 H989 0.959 1_556 S
C1001 C999 1.561 . S
C1002 C999 1.526 1_554 S
C1002 C1003 1.396 . S
C1002 C1007 1.390 . S
C1003 C997 1.465 . S
C1003 C1002 1.396 . S
C1003 C1004 1.399 . S
C1004 H990 0.929 . S
C1004 C1003 1.399 . S
C1004 C1005 1.385 . S
C1005 H991 0.931 . S
C1005 C1004 1.385 . S
C1005 C1006 1.389 . S
C1006 C1005 1.389 . S
C1006 C1007 1.387 . S
C1007 H992 0.930 1_554 S
C1007 C1002 1.390 . S
C1007 C1006 1.387 . S
H1008 C1020 0.930 . S
H1009 C1022 0.930 . S
H1010 C1023 0.930 . S
H1011 C1027 0.959 . S
H1012 C1027 0.959 . S
H1013 C1027 0.961 . S
H1014 C1028 0.960 . S
H1015 C1028 0.961 . S
H1016 C1028 0.959 . S
H1017 C1031 0.929 . S
H1018 C1032 0.931 . S
H1019 C1034 0.930 . S
C1020 H1008 0.930 . S
C1020 C1021 1.399 . S
C1020 C1025 1.399 . S
C1021 C1020 1.399 . S
C1021 C1022 1.376 . S
C1022 H1009 0.930 . S
C1022 C1021 1.376 . S
C1022 C1023 1.388 . S
C1023 H1010 0.930 . S
C1023 C1022 1.388 . S
C1023 C1024 1.390 . S
C1024 C1023 1.390 . S
C1024 C1025 1.394 . S
C1024 C1030 1.465 . S
C1025 C1020 1.399 . S
C1025 C1024 1.394 . S
C1025 C1026 1.516 . S
C1026 C1025 1.516 . S
C1026 C1027 1.502 . S
C1026 C1028 1.561 . S
C1026 C1029 1.526 . S
C1027 H1011 0.959 . S
C1027 H1012 0.959 . S
C1027 H1013 0.961 . S
C1027 C1026 1.502 . S
C1028 H1014 0.960 . S
C1028 H1015 0.961 . S
C1028 H1016 0.959 . S
C1028 C1026 1.561 . S
C1029 C1026 1.526 . S
C1029 C1030 1.396 . S
C1029 C1034 1.390 . S
C1030 C1024 1.465 . S
C1030 C1029 1.396 . S
C1030 C1031 1.399 . S
C1031 H1017 0.929 . S
C1031 C1030 1.399 . S
C1031 C1032 1.385 . S
C1032 H1018 0.931 . S
C1032 C1031 1.385 . S
C1032 C1033 1.389 . S
C1033 C1032 1.389 . S
C1033 C1034 1.387 . S
C1034 H1019 0.930 . S
C1034 C1029 1.390 . S
C1034 C1033 1.387 . S
H1035 C1047 0.930 . S
H1036 C1049 0.930 . S
H1037 C1050 0.930 . S
H1038 C1054 0.959 . S
H1039 C1054 0.959 . S
H1040 C1054 0.961 . S
H1041 C1055 0.960 . S
H1042 C1055 0.961 . S
H1043 C1055 0.959 . S
H1044 C1058 0.929 . S
H1045 C1059 0.931 . S
H1046 C1061 0.930 . S
C1047 H1035 0.930 . S
C1047 C1048 1.399 . S
C1047 C1052 1.399 . S
C1048 C1047 1.399 . S
C1048 C1049 1.376 . S
C1049 H1036 0.930 . S
C1049 C1048 1.376 . S
C1049 C1050 1.388 . S
C1050 H1037 0.930 . S
C1050 C1049 1.388 . S
C1050 C1051 1.390 . S
C1051 C1050 1.390 . S
C1051 C1052 1.394 . S
C1051 C1057 1.465 . S
C1052 C1047 1.399 . S
C1052 C1051 1.394 . S
C1052 C1053 1.516 . S
C1053 C1052 1.516 . S
C1053 C1054 1.502 . S
C1053 C1055 1.561 . S
C1053 C1056 1.526 . S
C1054 H1038 0.959 . S
C1054 H1039 0.959 . S
C1054 H1040 0.961 . S
C1054 C1053 1.502 . S
C1055 H1041 0.960 . S
C1055 H1042 0.961 . S
C1055 H1043 0.959 . S
C1055 C1053 1.561 . S
C1056 C1053 1.526 . S
C1056 C1057 1.396 . S
C1056 C1061 1.390 . S
C1057 C1051 1.465 . S
C1057 C1056 1.396 . S
C1057 C1058 1.399 . S
C1058 H1044 0.929 . S
C1058 C1057 1.399 . S
C1058 C1059 1.385 . S
C1059 H1045 0.931 . S
C1059 C1058 1.385 . S
C1059 C1060 1.389 . S
C1060 C1059 1.389 . S
C1060 C1061 1.387 . S
C1061 H1046 0.930 . S
C1061 C1056 1.390 . S
C1061 C1060 1.387 . S
H1062 C1074 0.930 . S
H1063 C1076 0.930 . S
H1064 C1077 0.930 . S
H1065 C1081 0.959 . S
H1066 C1081 0.959 . S
H1067 C1081 0.961 1_455 S
H1068 C1082 0.960 1_455 S
H1069 C1082 0.961 . S
H1070 C1082 0.959 . S
H1071 C1085 0.929 . S
H1072 C1086 0.931 . S
H1073 C1088 0.930 . S
C1074 H1062 0.930 . S
C1074 C1075 1.399 . S
C1074 C1079 1.399 . S
C1075 C1074 1.399 . S
C1075 C1076 1.376 . S
C1076 H1063 0.930 . S
C1076 C1075 1.376 . S
C1076 C1077 1.388 . S
C1077 H1064 0.930 . S
C1077 C1076 1.388 . S
C1077 C1078 1.390 . S
C1078 C1077 1.390 . S
C1078 C1079 1.394 . S
C1078 C1084 1.465 1_455 S
C1079 C1074 1.399 . S
C1079 C1078 1.394 . S
C1079 C1080 1.516 1_455 S
C1080 C1079 1.516 1_655 S
C1080 C1081 1.502 . S
C1080 C1082 1.561 . S
C1080 C1083 1.526 . S
C1081 H1065 0.959 . S
C1081 H1066 0.959 . S
C1081 H1067 0.961 1_655 S
C1081 C1080 1.502 . S
C1082 H1068 0.960 1_655 S
C1082 H1069 0.961 . S
C1082 H1070 0.959 . S
C1082 C1080 1.561 . S
C1083 C1080 1.526 . S
C1083 C1084 1.396 . S
C1083 C1088 1.390 . S
C1084 C1078 1.465 1_655 S
C1084 C1083 1.396 . S
C1084 C1085 1.399 . S
C1085 H1071 0.929 . S
C1085 C1084 1.399 . S
C1085 C1086 1.385 . S
C1086 H1072 0.931 . S
C1086 C1085 1.385 . S
C1086 C1087 1.389 . S
C1087 C1086 1.389 . S
C1087 C1088 1.387 . S
C1088 H1073 0.930 . S
C1088 C1083 1.390 . S
C1088 C1087 1.387 . S
H1089 C1101 0.930 1_554 S
H1090 C1103 0.930 . S
H1091 C1104 0.930 . S
H1092 C1108 0.959 . S
H1093 C1108 0.959 . S
H1094 C1108 0.961 . S
H1095 C1109 0.960 . S
H1096 C1109 0.961 . S
H1097 C1109 0.959 . S
H1098 C1112 0.929 . S
H1099 C1113 0.931 . S
H1100 C1115 0.930 1_454 S
C1101 H1089 0.930 1_556 S
C1101 C1102 1.399 . S
C1101 C1106 1.399 . S
C1102 C1101 1.399 . S
C1102 C1103 1.376 1_455 S
C1103 H1090 0.930 . S
C1103 C1102 1.376 1_655 S
C1103 C1104 1.388 . S
C1104 H1091 0.930 . S
C1104 C1103 1.388 . S
C1104 C1105 1.390 . S
C1105 C1104 1.390 . S
C1105 C1106 1.394 1_655 S
C1105 C1111 1.465 . S
C1106 C1101 1.399 . S
C1106 C1105 1.394 1_455 S
C1106 C1107 1.516 1_556 S
C1107 C1106 1.516 1_554 S
C1107 C1108 1.502 . S
C1107 C1109 1.561 1_455 S
C1107 C1110 1.526 1_454 S
C1108 H1092 0.959 . S
C1108 H1093 0.959 . S
C1108 H1094 0.961 . S
C1108 C1107 1.502 . S
C1109 H1095 0.960 . S
C1109 H1096 0.961 . S
C1109 H1097 0.959 . S
C1109 C1107 1.561 1_655 S
C1110 C1107 1.526 1_656 S
C1110 C1111 1.396 . S
C1110 C1115 1.390 . S
C1111 C1105 1.465 . S
C1111 C1110 1.396 . S
C1111 C1112 1.399 . S
C1112 H1098 0.929 . S
C1112 C1111 1.399 . S
C1112 C1113 1.385 . S
C1113 H1099 0.931 . S
C1113 C1112 1.385 . S
C1113 C1114 1.389 . S
C1114 C1113 1.389 . S
C1114 C1115 1.387 . S
C1115 H1100 0.930 1_656 S
C1115 C1110 1.390 . S
C1115 C1114 1.387 . S
H1116 C1128 0.930 . S
H1117 C1130 0.930 . S
H1118 C1131 0.930 . S
H1119 C1135 0.959 . S
H1120 C1135 0.959 . S
H1121 C1135 0.961 . S
H1122 C1136 0.960 . S
H1123 C1136 0.961 . S
H1124 C1136 0.959 . S
H1125 C1139 0.929 . S
H1126 C1140 0.931 . S
H1127 C1142 0.930 . S
C1128 H1116 0.930 . S
C1128 C1129 1.399 . S
C1128 C1133 1.399 . S
C1129 C1128 1.399 . S
C1129 C1130 1.376 . S
C1130 H1117 0.930 . S
C1130 C1129 1.376 . S
C1130 C1131 1.388 . S
C1131 H1118 0.930 . S
C1131 C1130 1.388 . S
C1131 C1132 1.390 . S
C1132 C1131 1.390 . S
C1132 C1133 1.394 . S
C1132 C1138 1.465 . S
C1133 C1128 1.399 . S
C1133 C1132 1.394 . S
C1133 C1134 1.516 . S
C1134 C1133 1.516 . S
C1134 C1135 1.502 . S
C1134 C1136 1.561 . S
C1134 C1137 1.526 . S
C1135 H1119 0.959 . S
C1135 H1120 0.959 . S
C1135 H1121 0.961 . S
C1135 C1134 1.502 . S
C1136 H1122 0.960 . S
C1136 H1123 0.961 . S
C1136 H1124 0.959 . S
C1136 C1134 1.561 . S
C1137 C1134 1.526 . S
C1137 C1138 1.396 . S
C1137 C1142 1.390 . S
C1138 C1132 1.465 . S
C1138 C1137 1.396 . S
C1138 C1139 1.399 . S
C1139 H1125 0.929 . S
C1139 C1138 1.399 . S
C1139 C1140 1.385 . S
C1140 H1126 0.931 . S
C1140 C1139 1.385 . S
C1140 C1141 1.389 . S
C1141 C1140 1.389 . S
C1141 C1142 1.387 . S
C1142 H1127 0.930 . S
C1142 C1137 1.390 . S
C1142 C1141 1.387 . S
H1143 C1155 0.930 . S
H1144 C1157 0.930 . S
H1145 C1158 0.930 . S
H1146 C1162 0.960 . S
H1147 C1162 0.960 . S
H1148 C1162 0.960 1_545 S
H1149 C1163 0.977 . S
H1150 C1163 0.946 1_565 S
H1151 C1163 0.957 1_565 S
H1152 C1166 0.929 . S
H1153 C1167 0.931 . S
H1154 C1169 0.930 . S
C1155 H1143 0.930 . S
C1155 C1156 1.399 . S
C1155 C1160 1.399 . S
C1156 C1155 1.399 . S
C1156 C1157 1.376 . S
C1157 H1144 0.930 . S
C1157 C1156 1.376 . S
C1157 C1158 1.388 . S
C1158 H1145 0.930 . S
C1158 C1157 1.388 . S
C1158 C1159 1.390 . S
C1159 C1158 1.390 . S
C1159 C1160 1.394 . S
C1159 C1165 1.465 1_545 S
C1160 C1155 1.399 . S
C1160 C1159 1.394 . S
C1160 C1161 1.524 . S
C1161 C1160 1.524 . S
C1161 C1162 1.502 1_545 S
C1161 C1163 1.561 . S
C1161 C1164 1.518 1_545 S
C1162 H1146 0.960 . S
C1162 H1147 0.960 . S
C1162 H1148 0.960 1_565 S
C1162 C1161 1.502 1_565 S
C1163 H1149 0.977 . S
C1163 H1150 0.946 1_545 S
C1163 H1151 0.957 1_545 S
C1163 C1161 1.561 . S
C1164 C1161 1.518 1_565 S
C1164 C1165 1.396 . S
C1164 C1169 1.390 . S
C1165 C1159 1.465 1_565 S
C1165 C1164 1.396 . S
C1165 C1166 1.399 . S
C1166 H1152 0.929 . S
C1166 C1165 1.399 . S
C1166 C1167 1.385 . S
C1167 H1153 0.931 . S
C1167 C1166 1.385 . S
C1167 C1168 1.389 . S
C1168 C1167 1.389 . S
C1168 C1169 1.387 . S
C1169 H1154 0.930 . S
C1169 C1164 1.390 . S
C1169 C1168 1.387 . S
H1170 C1182 0.930 . S
H1171 C1184 0.930 . S
H1172 C1185 0.930 . S
H1173 C1189 0.959 . S
H1174 C1189 0.959 . S
H1175 C1189 0.961 . S
H1176 C1190 0.960 . S
H1177 C1190 0.961 . S
H1178 C1190 0.959 . S
H1179 C1193 0.929 . S
H1180 C1194 0.931 . S
H1181 C1196 0.930 . S
C1182 H1170 0.930 . S
C1182 C1183 1.399 1_556 S
C1182 C1187 1.399 . S
C1183 C1182 1.399 1_554 S
C1183 C1184 1.376 . S
C1184 H1171 0.930 . S
C1184 C1183 1.376 . S
C1184 C1185 1.388 . S
C1185 H1172 0.930 . S
C1185 C1184 1.388 . S
C1185 C1186 1.390 . S
C1186 C1185 1.390 . S
C1186 C1187 1.391 1_554 S
C1186 C1192 1.465 . S
C1187 C1182 1.399 . S
C1187 C1186 1.391 1_556 S
C1187 C1188 1.518 . S
C1188 C1187 1.518 . S
C1188 C1189 1.502 . S
C1188 C1190 1.561 1_556 S
C1188 C1191 1.526 . S
C1189 H1173 0.959 . S
C1189 H1174 0.959 . S
C1189 H1175 0.961 . S
C1189 C1188 1.502 . S
C1190 H1176 0.960 . S
C1190 H1177 0.961 . S
C1190 H1178 0.959 . S
C1190 C1188 1.561 1_554 S
C1191 C1188 1.526 . S
C1191 C1192 1.396 1_556 S
C1191 C1196 1.390 . S
C1192 C1186 1.465 . S
C1192 C1191 1.396 1_554 S
C1192 C1193 1.399 . S
C1193 H1179 0.929 . S
C1193 C1192 1.399 . S
C1193 C1194 1.385 . S
C1194 H1180 0.931 . S
C1194 C1193 1.385 . S
C1194 C1195 1.389 1_554 S
C1195 C1194 1.389 1_556 S
C1195 C1196 1.387 . S
C1196 H1181 0.930 . S
C1196 C1191 1.390 . S
C1196 C1195 1.387 . S
H1197 C1209 0.930 . S
H1198 C1211 0.930 . S
H1199 C1212 0.930 . S
H1200 C1216 0.958 1_565 S
H1201 C1216 0.948 1_565 S
H1202 C1216 0.974 . S
H1203 C1217 0.960 . S
H1204 C1217 0.961 1_565 S
H1205 C1217 0.959 1_565 S
H1206 C1220 0.929 . S
H1207 C1221 0.931 . S
H1208 C1223 0.930 . S
C1209 H1197 0.930 . S
C1209 C1210 1.399 . S
C1209 C1214 1.399 . S
C1210 C1209 1.399 . S
C1210 C1211 1.376 . S
C1211 H1198 0.930 . S
C1211 C1210 1.376 . S
C1211 C1212 1.388 . S
C1212 H1199 0.930 . S
C1212 C1211 1.388 . S
C1212 C1213 1.390 . S
C1213 C1212 1.390 . S
C1213 C1214 1.394 . S
C1213 C1219 1.465 1_545 S
C1214 C1209 1.399 . S
C1214 C1213 1.394 . S
C1214 C1215 1.537 . S
C1215 C1214 1.537 . S
C1215 C1216 1.502 . S
C1215 C1217 1.562 . S
C1215 C1218 1.504 1_545 S
C1216 H1200 0.958 1_545 S
C1216 H1201 0.948 1_545 S
C1216 H1202 0.974 . S
C1216 C1215 1.502 . S
C1217 H1203 0.960 . S
C1217 H1204 0.961 1_545 S
C1217 H1205 0.959 1_545 S
C1217 C1215 1.562 . S
C1218 C1215 1.504 1_565 S
C1218 C1219 1.396 . S
C1218 C1223 1.390 . S
C1219 C1213 1.465 1_565 S
C1219 C1218 1.396 . S
C1219 C1220 1.399 . S
C1220 H1206 0.929 . S
C1220 C1219 1.399 . S
C1220 C1221 1.385 . S
C1221 H1207 0.931 . S
C1221 C1220 1.385 . S
C1221 C1222 1.389 . S
C1222 C1221 1.389 . S
C1222 C1223 1.387 . S
C1223 H1208 0.930 . S
C1223 C1218 1.390 . S
C1223 C1222 1.387 . S
H1224 C1236 0.930 . S
H1225 C1238 0.930 . S
H1226 C1239 0.930 . S
H1227 C1243 0.959 . S
H1228 C1243 0.959 . S
H1229 C1243 0.961 . S
H1230 C1244 0.960 . S
H1231 C1244 0.961 . S
H1232 C1244 0.959 . S
H1233 C1247 0.929 . S
H1234 C1248 0.931 . S
H1235 C1250 0.930 1_556 S
C1236 H1224 0.930 . S
C1236 C1237 1.399 . S
C1236 C1241 1.399 . S
C1237 C1236 1.399 . S
C1237 C1238 1.376 1_566 S
C1238 H1225 0.930 . S
C1238 C1237 1.376 1_544 S
C1238 C1239 1.388 . S
C1239 H1226 0.930 . S
C1239 C1238 1.388 . S
C1239 C1240 1.390 . S
C1240 C1239 1.390 . S
C1240 C1241 1.394 1_544 S
C1240 C1246 1.465 . S
C1241 C1236 1.399 . S
C1241 C1240 1.394 1_566 S
C1241 C1242 1.516 . S
C1242 C1241 1.516 . S
C1242 C1243 1.502 . S
C1242 C1244 1.561 1_556 S
C1242 C1245 1.526 1_556 S
C1243 H1227 0.959 . S
C1243 H1228 0.959 . S
C1243 H1229 0.961 . S
C1243 C1242 1.502 . S
C1244 H1230 0.960 . S
C1244 H1231 0.961 . S
C1244 H1232 0.959 . S
C1244 C1242 1.561 1_554 S
C1245 C1242 1.526 1_554 S
C1245 C1246 1.396 1_565 S
C1245 C1250 1.390 . S
C1246 C1240 1.465 . S
C1246 C1245 1.396 1_545 S
C1246 C1247 1.399 . S
C1247 H1233 0.929 . S
C1247 C1246 1.399 . S
C1247 C1248 1.385 . S
C1248 H1234 0.931 . S
C1248 C1247 1.385 . S
C1248 C1249 1.389 1_545 S
C1249 C1248 1.389 1_565 S
C1249 C1250 1.387 . S
C1250 H1235 0.930 1_554 S
C1250 C1245 1.390 . S
C1250 C1249 1.387 . S
H1251 C1263 0.930 . S
H1252 C1265 0.930 . S
H1253 C1266 0.930 . S
H1254 C1270 0.959 . S
H1255 C1270 0.959 . S
H1256 C1270 0.961 . S
H1257 C1271 0.960 . S
H1258 C1271 0.961 . S
H1259 C1271 0.959 . S
H1260 C1274 0.929 . S
H1261 C1275 0.931 . S
H1262 C1277 0.930 . S
C1263 H1251 0.930 . S
C1263 C1264 1.399 . S
C1263 C1268 1.399 . S
C1264 C1263 1.399 . S
C1264 C1265 1.376 . S
C1265 H1252 0.930 . S
C1265 C1264 1.376 . S
C1265 C1266 1.388 . S
C1266 H1253 0.930 . S
C1266 C1265 1.388 . S
C1266 C1267 1.390 . S
C1267 C1266 1.390 . S
C1267 C1268 1.394 . S
C1267 C1273 1.465 . S
C1268 C1263 1.399 . S
C1268 C1267 1.394 . S
C1268 C1269 1.516 . S
C1269 C1268 1.516 . S
C1269 C1270 1.502 . S
C1269 C1271 1.561 . S
C1269 C1272 1.526 . S
C1270 H1254 0.959 . S
C1270 H1255 0.959 . S
C1270 H1256 0.961 . S
C1270 C1269 1.502 . S
C1271 H1257 0.960 . S
C1271 H1258 0.961 . S
C1271 H1259 0.959 . S
C1271 C1269 1.561 . S
C1272 C1269 1.526 . S
C1272 C1273 1.396 . S
C1272 C1277 1.390 . S
C1273 C1267 1.465 . S
C1273 C1272 1.396 . S
C1273 C1274 1.399 . S
C1274 H1260 0.929 . S
C1274 C1273 1.399 . S
C1274 C1275 1.385 . S
C1275 H1261 0.931 . S
C1275 C1274 1.385 . S
C1275 C1276 1.389 . S
C1276 C1275 1.389 . S
C1276 C1277 1.387 . S
C1277 H1262 0.930 . S
C1277 C1272 1.390 . S
C1277 C1276 1.387 . S
H1278 C1290 0.930 . S
H1279 C1292 0.930 . S
H1280 C1293 0.930 . S
H1281 C1297 0.959 . S
H1282 C1297 0.959 . S
H1283 C1297 0.961 . S
H1284 C1298 0.960 . S
H1285 C1298 0.961 . S
H1286 C1298 0.959 . S
H1287 C1301 0.929 . S
H1288 C1302 0.931 . S
H1289 C1304 0.930 . S
C1290 H1278 0.930 . S
C1290 C1291 1.399 . S
C1290 C1295 1.399 . S
C1291 C1290 1.399 . S
C1291 C1292 1.376 . S
C1292 H1279 0.930 . S
C1292 C1291 1.376 . S
C1292 C1293 1.388 . S
C1293 H1280 0.930 . S
C1293 C1292 1.388 . S
C1293 C1294 1.390 . S
C1294 C1293 1.390 . S
C1294 C1295 1.394 . S
C1294 C1300 1.465 . S
C1295 C1290 1.399 . S
C1295 C1294 1.394 . S
C1295 C1296 1.516 . S
C1296 C1295 1.516 . S
C1296 C1297 1.502 . S
C1296 C1298 1.561 . S
C1296 C1299 1.526 . S
C1297 H1281 0.959 . S
C1297 H1282 0.959 . S
C1297 H1283 0.961 . S
C1297 C1296 1.502 . S
C1298 H1284 0.960 . S
C1298 H1285 0.961 . S
C1298 H1286 0.959 . S
C1298 C1296 1.561 . S
C1299 C1296 1.526 . S
C1299 C1300 1.396 . S
C1299 C1304 1.390 . S
C1300 C1294 1.465 . S
C1300 C1299 1.396 . S
C1300 C1301 1.399 . S
C1301 H1287 0.929 . S
C1301 C1300 1.399 . S
C1301 C1302 1.385 . S
C1302 H1288 0.931 . S
C1302 C1301 1.385 . S
C1302 C1303 1.389 . S
C1303 C1302 1.389 . S
C1303 C1304 1.387 . S
C1304 H1289 0.930 . S
C1304 C1299 1.390 . S
C1304 C1303 1.387 . S
H1305 C1317 0.930 . S
H1306 C1319 0.930 . S
H1307 C1320 0.930 . S
H1308 C1324 0.959 . S
H1309 C1324 0.959 1_554 S
H1310 C1324 0.961 . S
H1311 C1325 0.960 1_556 S
H1312 C1325 0.961 . S
H1313 C1325 0.959 . S
H1314 C1328 0.929 . S
H1315 C1329 0.931 . S
H1316 C1331 0.930 . S
C1317 H1305 0.930 . S
C1317 C1318 1.399 . S
C1317 C1322 1.399 . S
C1318 C1317 1.399 . S
C1318 C1319 1.376 . S
C1319 H1306 0.930 . S
C1319 C1318 1.376 . S
C1319 C1320 1.388 . S
C1320 H1307 0.930 . S
C1320 C1319 1.388 . S
C1320 C1321 1.390 . S
C1321 C1320 1.390 . S
C1321 C1322 1.394 . S
C1321 C1327 1.465 1_556 S
C1322 C1317 1.399 . S
C1322 C1321 1.394 . S
C1322 C1323 1.532 . S
C1323 C1322 1.532 . S
C1323 C1324 1.504 . S
C1323 C1325 1.559 1_556 S
C1323 C1326 1.509 1_556 S
C1324 H1308 0.959 . S
C1324 H1309 0.959 1_556 S
C1324 H1310 0.961 . S
C1324 C1323 1.504 . S
C1325 H1311 0.960 1_554 S
C1325 H1312 0.961 . S
C1325 H1313 0.959 . S
C1325 C1323 1.559 1_554 S
C1326 C1323 1.509 1_554 S
C1326 C1327 1.396 . S
C1326 C1331 1.390 . S
C1327 C1321 1.465 1_554 S
C1327 C1326 1.396 . S
C1327 C1328 1.399 . S
C1328 H1314 0.929 . S
C1328 C1327 1.399 . S
C1328 C1329 1.385 . S
C1329 H1315 0.931 . S
C1329 C1328 1.385 . S
C1329 C1330 1.389 . S
C1330 C1329 1.389 . S
C1330 C1331 1.387 . S
C1331 H1316 0.930 . S
C1331 C1326 1.390 . S
C1331 C1330 1.387 . S
H1332 C1344 0.930 . S
H1333 C1346 0.930 . S
H1334 C1347 0.930 . S
H1335 C1351 0.959 . S
H1336 C1351 0.959 . S
H1337 C1351 0.961 . S
H1338 C1352 0.960 . S
H1339 C1352 0.961 . S
H1340 C1352 0.959 . S
H1341 C1355 0.929 . S
H1342 C1356 0.931 . S
H1343 C1358 0.930 . S
C1344 H1332 0.930 . S
C1344 C1345 1.399 . S
C1344 C1349 1.399 . S
C1345 C1344 1.399 . S
C1345 C1346 1.376 . S
C1346 H1333 0.930 . S
C1346 C1345 1.376 . S
C1346 C1347 1.388 . S
C1347 H1334 0.930 . S
C1347 C1346 1.388 . S
C1347 C1348 1.390 . S
C1348 C1347 1.390 . S
C1348 C1349 1.394 . S
C1348 C1354 1.465 . S
C1349 C1344 1.399 . S
C1349 C1348 1.394 . S
C1349 C1350 1.516 . S
C1350 C1349 1.516 . S
C1350 C1351 1.502 . S
C1350 C1352 1.561 . S
C1350 C1353 1.526 . S
C1351 H1335 0.959 . S
C1351 H1336 0.959 . S
C1351 H1337 0.961 . S
C1351 C1350 1.502 . S
C1352 H1338 0.960 . S
C1352 H1339 0.961 . S
C1352 H1340 0.959 . S
C1352 C1350 1.561 . S
C1353 C1350 1.526 . S
C1353 C1354 1.396 . S
C1353 C1358 1.390 . S
C1354 C1348 1.465 . S
C1354 C1353 1.396 . S
C1354 C1355 1.399 . S
C1355 H1341 0.929 . S
C1355 C1354 1.399 . S
C1355 C1356 1.385 . S
C1356 H1342 0.931 . S
C1356 C1355 1.385 . S
C1356 C1357 1.389 . S
C1357 C1356 1.389 . S
C1357 C1358 1.387 . S
C1358 H1343 0.930 . S
C1358 C1353 1.390 . S
C1358 C1357 1.387 . S
H1359 C1371 0.930 . S
H1360 C1373 0.930 . S
H1361 C1374 0.930 . S
H1362 C1378 0.959 . S
H1363 C1378 0.959 . S
H1364 C1378 0.961 . S
H1365 C1379 0.960 . S
H1366 C1379 0.961 . S
H1367 C1379 0.959 . S
H1368 C1382 0.929 . S
H1369 C1383 0.931 . S
H1370 C1385 0.930 . S
C1371 H1359 0.930 . S
C1371 C1372 1.399 . S
C1371 C1376 1.399 . S
C1372 C1371 1.399 . S
C1372 C1373 1.376 . S
C1373 H1360 0.930 . S
C1373 C1372 1.376 . S
C1373 C1374 1.388 . S
C1374 H1361 0.930 . S
C1374 C1373 1.388 . S
C1374 C1375 1.390 . S
C1375 C1374 1.390 . S
C1375 C1376 1.394 . S
C1375 C1381 1.465 . S
C1376 C1371 1.399 . S
C1376 C1375 1.394 . S
C1376 C1377 1.516 . S
C1377 C1376 1.516 . S
C1377 C1378 1.502 . S
C1377 C1379 1.561 . S
C1377 C1380 1.526 . S
C1378 H1362 0.959 . S
C1378 H1363 0.959 . S
C1378 H1364 0.961 . S
C1378 C1377 1.502 . S
C1379 H1365 0.960 . S
C1379 H1366 0.961 . S
C1379 H1367 0.959 . S
C1379 C1377 1.561 . S
C1380 C1377 1.526 . S
C1380 C1381 1.396 . S
C1380 C1385 1.390 . S
C1381 C1375 1.465 . S
C1381 C1380 1.396 . S
C1381 C1382 1.399 . S
C1382 H1368 0.929 . S
C1382 C1381 1.399 . S
C1382 C1383 1.385 . S
C1383 H1369 0.931 . S
C1383 C1382 1.385 . S
C1383 C1384 1.389 . S
C1384 C1383 1.389 . S
C1384 C1385 1.387 . S
C1385 H1370 0.930 . S
C1385 C1380 1.390 . S
C1385 C1384 1.387 . S
H1386 C1398 0.930 1_455 S
H1387 C1400 0.930 . S
H1388 C1401 0.930 . S
H1389 C1405 0.959 . S
H1390 C1405 0.959 . S
H1391 C1405 0.961 . S
H1392 C1406 0.960 . S
H1393 C1406 0.961 . S
H1394 C1406 0.959 . S
H1395 C1409 0.929 . S
H1396 C1410 0.931 . S
H1397 C1412 0.930 1_455 S
C1398 H1386 0.930 1_655 S
C1398 C1399 1.399 . S
C1398 C1403 1.399 . S
C1399 C1398 1.399 . S
C1399 C1400 1.376 . S
C1400 H1387 0.930 . S
C1400 C1399 1.376 . S
C1400 C1401 1.388 . S
C1401 H1388 0.930 . S
C1401 C1400 1.388 . S
C1401 C1402 1.390 . S
C1402 C1401 1.390 . S
C1402 C1403 1.394 . S
C1402 C1408 1.465 . S
C1403 C1398 1.399 . S
C1403 C1402 1.394 . S
C1403 C1404 1.516 . S
C1404 C1403 1.516 . S
C1404 C1405 1.502 1_655 S
C1404 C1406 1.561 . S
C1404 C1407 1.526 . S
C1405 H1389 0.959 . S
C1405 H1390 0.959 . S
C1405 H1391 0.961 . S
C1405 C1404 1.502 1_455 S
C1406 H1392 0.960 . S
C1406 H1393 0.961 . S
C1406 H1394 0.959 . S
C1406 C1404 1.561 . S
C1407 C1404 1.526 . S
C1407 C1408 1.396 . S
C1407 C1412 1.390 . S
C1408 C1402 1.465 . S
C1408 C1407 1.396 . S
C1408 C1409 1.399 . S
C1409 H1395 0.929 . S
C1409 C1408 1.399 . S
C1409 C1410 1.385 . S
C1410 H1396 0.931 . S
C1410 C1409 1.385 . S
C1410 C1411 1.389 . S
C1411 C1410 1.389 . S
C1411 C1412 1.387 . S
C1412 H1397 0.930 1_655 S
C1412 C1407 1.390 . S
C1412 C1411 1.387 . S
H1413 C1425 0.930 . S
H1414 C1427 0.930 . S
H1415 C1428 0.930 . S
H1416 C1432 0.959 . S
H1417 C1432 0.959 . S
H1418 C1432 0.961 . S
H1419 C1433 0.960 . S
H1420 C1433 0.961 . S
H1421 C1433 0.959 . S
H1422 C1436 0.929 . S
H1423 C1437 0.931 . S
H1424 C1439 0.930 . S
C1425 H1413 0.930 . S
C1425 C1426 1.399 . S
C1425 C1430 1.399 . S
C1426 C1425 1.399 . S
C1426 C1427 1.376 1_545 S
C1427 H1414 0.930 . S
C1427 C1426 1.376 1_565 S
C1427 C1428 1.388 . S
C1428 H1415 0.930 . S
C1428 C1427 1.388 . S
C1428 C1429 1.390 . S
C1429 C1428 1.390 . S
C1429 C1430 1.394 1_565 S
C1429 C1435 1.465 . S
C1430 C1425 1.399 . S
C1430 C1429 1.394 1_545 S
C1430 C1431 1.516 . S
C1431 C1430 1.516 . S
C1431 C1432 1.502 . S
C1431 C1433 1.561 . S
C1431 C1434 1.526 . S
C1432 H1416 0.959 . S
C1432 H1417 0.959 . S
C1432 H1418 0.961 . S
C1432 C1431 1.502 . S
C1433 H1419 0.960 . S
C1433 H1420 0.961 . S
C1433 H1421 0.959 . S
C1433 C1431 1.561 . S
C1434 C1431 1.526 . S
C1434 C1435 1.396 1_545 S
C1434 C1439 1.390 . S
C1435 C1429 1.465 . S
C1435 C1434 1.396 1_565 S
C1435 C1436 1.399 . S
C1436 H1422 0.929 . S
C1436 C1435 1.399 . S
C1436 C1437 1.385 . S
C1437 H1423 0.931 . S
C1437 C1436 1.385 . S
C1437 C1438 1.389 1_565 S
C1438 C1437 1.389 1_545 S
C1438 C1439 1.387 . S
C1439 H1424 0.930 . S
C1439 C1434 1.390 . S
C1439 C1438 1.387 . S
C589 C4 1.824 . S
C601 C256 1.844 . S
C616 C40 1.853 . S
C628 C148 1.820 . S
C643 C184 1.817 . S
C655 C76 1.818 . S
C670 C112 1.804 . S
C682 C220 1.838 . S
C697 C292 1.821 . S
C709 C436 1.813 . S
C724 C328 1.843 . S
C736 C508 1.836 . S
C751 C400 1.829 . S
C763 C364 1.849 . S
C778 C544 1.808 . S
C790 C472 1.827 . S
C805 C3 1.263 . S
C817 C219 1.250 . S
C832 C266 0.987 . S
C844 C50 1.032 1_545 S
C859 C75 1.239 . S
C871 C147 1.257 . S
C886 C194 1.066 1_545 S
C898 C122 1.021 . S
C913 C2 1.412 . S
C925 C506 1.412 . S
C940 C399 1.270 . S
C952 C39 1.254 . S
C967 C470 1.375 . S
C979 C74 1.375 . S
C994 C435 1.240 . S
C1006 C111 1.240 . S
C1021 C362 1.412 . S
C1033 C146 1.411 . S
C1048 C183 1.259 . S
C1060 C543 1.228 . S
C1075 C218 1.356 . S
C1087 C290 1.356 . S
C1102 C255 1.250 . S
C1114 C327 1.261 . S
C1129 C14 1.063 . S
C1141 C158 1.009 . S
C1156 C302 0.992 . S
C1168 C482 1.044 . S
C1183 C434 1.334 . S
C1195 C326 1.333 . S
C1210 C518 0.977 . S
C1222 C374 1.026 . S
C1237 C254 1.354 . S
C1249 C110 1.351 . S
C1264 C86 1.079 . S
C1276 C230 1.029 . S
C1291 C398 1.334 . S
C1303 C542 1.332 . S
C1318 C471 1.264 . S
C1330 C363 1.248 . S
C1345 C554 0.975 . S
C1357 C446 1.026 . S
C1372 C507 1.267 . S
C1384 C291 1.241 . S
C1399 C410 1.075 . S
C1411 C338 1.038 . S
C1426 C38 1.354 . S
C1438 C182 1.351 . S
