# Generated by pormake.
# Topology nbo, (4)-cn, num edge types: 1
# Building blocks:
#     Node 0, Type 0, BuildingBlock: ESEHIV_clean_sbu_0, # of connection points: 4
#     Node 1, Type 0, BuildingBlock: ESEHIV_clean_sbu_0, # of connection points: 4
#     Node 2, Type 0, BuildingBlock: ESEHIV_clean_sbu_0, # of connection points: 4
#     Node 3, Type 0, BuildingBlock: ESEHIV_clean_sbu_0, # of connection points: 4
#     Node 4, Type 0, BuildingBlock: ESEHIV_clean_sbu_0, # of connection points: 4
#     Node 5, Type 0, BuildingBlock: ESEHIV_clean_sbu_0, # of connection points: 4
#     Edge 6, Type (0, 0), BuildingBlock: TEMPAE_clean_linker_10, # of connection points: 2
#     Edge 7, Type (0, 0), BuildingBlock: TEMPAE_clean_linker_10, # of connection points: 2
#     Edge 8, Type (0, 0), BuildingBlock: TEMPAE_clean_linker_10, # of connection points: 2
#     Edge 9, Type (0, 0), BuildingBlock: TEMPAE_clean_linker_10, # of connection points: 2
#     Edge 10, Type (0, 0), BuildingBlock: TEMPAE_clean_linker_10, # of connection points: 2
#     Edge 11, Type (0, 0), BuildingBlock: TEMPAE_clean_linker_10, # of connection points: 2
#     Edge 12, Type (0, 0), BuildingBlock: TEMPAE_clean_linker_10, # of connection points: 2
#     Edge 13, Type (0, 0), BuildingBlock: TEMPAE_clean_linker_10, # of connection points: 2
#     Edge 14, Type (0, 0), BuildingBlock: TEMPAE_clean_linker_10, # of connection points: 2
#     Edge 15, Type (0, 0), BuildingBlock: TEMPAE_clean_linker_10, # of connection points: 2
#     Edge 16, Type (0, 0), BuildingBlock: TEMPAE_clean_linker_10, # of connection points: 2
#     Edge 17, Type (0, 0), BuildingBlock: TEMPAE_clean_linker_10, # of connection points: 2
# Relax obj value: 0.000
# Max RMSD: 0.094
# Mean RMSD: 0.094
data_MOF--net-nbo--node1-ESEHIV_clean_sbu_0--edge1-TEMPAE_clean_linker_10
_symmetry_space_group_name_H-M    P1
_symmetry_Int_Tables_number       1
_symmetry_cell_setting            triclinic
loop_
_symmetry_equiv_pos_as_xyz
'x, y, z'
_cell_length_a     29.712436
_cell_length_b     34.390386
_cell_length_c     32.021661
_cell_angle_alpha  103.69816
_cell_angle_beta   103.55573
_cell_angle_gamma 103.53164
loop_
_atom_site_label
_atom_site_type_symbol
_atom_site_fract_x
_atom_site_fract_y
_atom_site_fract_z
_atom_type_partial_charge
Cu0 Cu 0.07046 0.07574 0.54485 0.0
N1 N 0.079 0.13018 0.58021 0.0
N2 N 0.06742 0.19357 0.59178 0.0
C3 C 0.06192 0.15683 0.56124 0.0
C4 C 0.08981 0.18989 0.63201 0.0
C5 C 0.0969 0.15072 0.62476 0.0
O6 O 1.00806 0.06467 0.49951 0.0
C7 C 0.1674 0.08774 0.55305 0.0
O8 O 0.16809 0.0978 0.59547 0.0
H9 H 0.04472 0.14847 0.52537 0.0
H10 H 0.11334 0.13813 0.65019 0.0
N11 N 0.06592 0.03606 0.57629 0.0
N12 N 0.05701 0.9735 0.58823 0.0
C13 C 0.06289 0.99543 0.559 0.0
C14 C 0.06215 0.0401 0.61807 0.0
C15 C 0.05689 1.0016 0.62561 0.0
C16 C 0.96851 0.04072 0.50015 0.0
O17 O 0.97044 1.01188 0.52041 0.0
H18 H 0.06396 0.98208 0.52518 0.0
H19 H 0.06172 0.06859 0.64095 0.0
O20 O 0.12651 0.07678 0.52249 0.0
H21 H 0.10035 0.21354 0.6645 0.0
H22 H 0.05143 0.99446 0.65555 0.0
Cu23 Cu 0.53632 0.071 0.01477 0.0
N24 N 0.49633 1.01631 1.00344 0.0
N25 N 0.4824 0.9504 1.00667 0.0
C26 C 0.50899 0.991 0.02731 0.0
C27 C 0.45131 0.94993 0.9682 0.0
C28 C 0.45983 0.99071 0.96637 0.0
O29 O 0.58074 0.0824 0.07515 0.0
C30 C 0.53637 0.06694 0.92771 0.0
O31 O 0.49217 0.06816 0.92614 0.0
H32 H 0.54032 1.00144 0.05703 0.0
H33 H 0.44308 1.00032 0.9384 0.0
N34 N 0.50285 0.11125 0.016 0.0
N35 N 0.49015 0.17409 0.02504 0.0
C36 C 0.52332 0.15298 0.02542 0.0
C37 C 0.45504 0.10557 1.00915 0.0
C38 C 0.4471 0.14422 0.01475 0.0
C39 C 0.5651 0.0943 0.10839 0.0
O40 O 0.52573 0.10603 0.10108 0.0
H41 H 0.56203 0.16756 0.03344 0.0
H42 H 0.42795 0.07548 1.00094 0.0
O43 O 0.56515 0.06922 0.96537 0.0
H44 H 0.42617 0.92191 0.94218 0.0
H45 H 0.4122 0.14974 1.01111 0.0
Cu46 Cu 0.03466 0.524 0.99207 0.0
N47 N 0.03403 0.48924 0.93711 0.0
N48 N 0.04875 0.48119 0.87058 0.0
C49 C 0.02874 0.50108 0.89942 0.0
C50 C 0.0672 0.45562 0.89072 0.0
C51 C 0.05804 0.46061 0.93171 0.0
O52 O 0.09918 0.56403 1.01163 0.0
C53 C 0.93963 0.52207 0.95951 0.0
O54 O 0.93592 0.4822 0.94327 0.0
H55 H 1.01604 0.52753 0.89581 0.0
H56 H 0.07282 0.44798 0.95781 0.0
N57 N 0.02776 0.49691 0.03595 0.0
N58 N 0.02833 0.48895 0.10375 0.0
C59 C 0.03449 0.51638 0.07985 0.0
C60 C 1.01665 0.45567 0.03164 0.0
C61 C 1.01701 0.45066 0.07326 0.0
C62 C 0.13373 0.55134 0.02942 0.0
O63 O 0.1232 0.51703 0.04113 0.0
H64 H 0.04349 0.55012 0.09375 0.0
H65 H 1.00924 0.43101 1.00054 0.0
O66 O 0.98166 0.54807 0.98159 0.0
H67 H 0.08895 0.43716 0.87829 0.0
H68 H 1.01018 0.421 0.08044 0.0
Cu69 Cu 0.56034 0.58567 0.03708 0.0
N70 N 0.5798 0.64299 0.07036 0.0
N71 N 0.58003 0.70999 0.08385 0.0
C72 C 0.55794 0.67006 0.05689 0.0
C73 C 0.61788 0.70835 0.11556 0.0
C74 C 0.61752 0.66682 0.10729 0.0
O75 O 0.49311 0.57404 1.00167 0.0
C76 C 0.64751 0.5795 0.029 0.0
O77 O 0.65434 0.58727 0.07258 0.0
H78 H 0.52717 0.66083 0.0268 0.0
H79 H 0.64341 0.6551 0.12637 0.0
N80 N 0.55944 0.54816 0.07125 0.0
N81 N 0.5507 0.48603 0.0845 0.0
C82 C 0.54866 0.50628 0.05303 0.0
C83 C 0.56875 0.55498 0.11599 0.0
C84 C 0.56344 0.51671 0.12427 0.0
C85 C 0.46769 0.58246 0.02759 0.0
O86 O 0.48819 0.59411 0.0715 0.0
H87 H 0.54029 0.49119 0.01721 0.0
H88 H 0.57862 0.58552 0.14074 0.0
O89 O 0.60634 0.57759 1.00382 0.0
H90 H 0.64387 0.73516 0.14261 0.0
H91 H 0.56803 0.51195 0.15703 0.0
Cu92 Cu 0.02997 0.55585 0.515 0.0
N93 N 0.99029 0.50203 0.50663 0.0
N94 N 0.97734 0.43752 0.51431 0.0
C95 C 1.01047 0.47422 0.52003 0.0
C96 C 0.93399 0.44243 0.49565 0.0
C97 C 0.94212 0.48229 0.49083 0.0
O98 O 0.07975 0.56454 0.57187 0.0
C99 C 1.01833 0.54983 0.42528 0.0
O100 O 0.97491 0.54968 0.4282 0.0
H101 H 0.04923 0.48162 0.53445 0.0
H102 H 0.91488 0.49575 0.47707 0.0
N103 N 0.99886 0.59757 0.52209 0.0
N104 N 0.98889 0.66158 0.53247 0.0
C105 C 1.01933 0.63835 0.52675 0.0
C106 C 0.95378 0.59454 0.52475 0.0
C107 C 0.94745 0.63376 0.53097 0.0
C108 C 0.0778 0.58535 0.60982 0.0
O109 O 0.05257 0.612 0.61055 0.0
H110 H 0.05645 0.65059 0.5271 0.0
H111 H 0.92749 0.56604 0.52288 0.0
O112 O 0.0511 0.55293 0.46089 0.0
H113 H 0.89884 0.41909 0.48599 0.0
H114 H 0.91459 0.64083 0.53411 0.0
Cu115 Cu 0.57527 0.05658 0.51083 0.0
N116 N 0.5648 1.02155 0.45272 0.0
N117 N 0.5679 1.00625 0.3817 0.0
C118 C 0.58189 0.03601 0.42211 0.0
C119 C 0.54056 0.97145 0.38692 0.0
C120 C 0.53901 0.98091 0.43101 0.0
O121 O 0.63685 0.09881 0.52075 0.0
C122 C 0.47949 0.04794 0.50501 0.0
O123 O 0.48092 1.00916 0.49904 0.0
H124 H 0.60246 0.06845 0.42881 0.0
H125 H 0.51966 0.95992 0.44576 0.0
N126 N 0.58222 0.02918 0.55504 0.0
N127 N 0.58758 1.01899 0.62238 0.0
C128 C 0.57928 0.04425 0.59686 0.0
C129 C 0.59236 0.99286 0.55375 0.0
C130 C 0.5955 0.9864 0.59523 0.0
C131 C 0.6758 0.10371 0.5513 0.0
O132 O 0.67257 0.09161 0.5867 0.0
H133 H 0.57126 0.07336 0.60826 0.0
H134 H 0.59769 0.97282 0.52493 0.0
O135 O 0.51859 0.07652 0.51067 0.0
H136 H 0.52255 0.94156 0.36069 0.0
H137 H 0.60397 0.96022 0.60489 0.0
C138 C 0.03627 0.22954 0.53788 0.0
C139 C 0.05114 0.22819 0.58248 0.0
C140 C 1.02021 0.26247 0.52791 0.0
C141 C 1.01979 0.29576 0.56335 0.0
C142 C 0.03416 0.29474 0.60839 0.0
C143 C 0.04937 0.26091 0.6174 0.0
C144 C 1.00506 0.26218 0.47933 0.0
C145 C 0.03461 0.32995 0.64715 0.0
C146 C 0.03517 0.39945 0.53802 0.0
C147 C 0.98739 0.4019 0.52708 0.0
C148 C 0.04622 0.36604 0.55154 0.0
C149 C 1.00854 0.33323 0.55325 0.0
C150 C 0.96021 0.33508 0.54231 0.0
C151 C 0.95024 0.36949 0.52966 0.0
C152 C 0.09836 0.36548 0.56313 0.0
C153 C 0.91897 0.30037 0.54329 0.0
H154 H 0.03782 0.20531 0.5103 0.0
H155 H 0.06 0.26036 0.6519 0.0
H156 H 0.96883 0.26704 0.47039 0.0
H157 H 0.03132 0.28844 0.4748 0.0
H158 H 1.00338 0.23228 0.45535 0.0
H159 H 0.044 0.3234 0.67993 0.0
H160 H 0.0615 0.35961 0.64982 0.0
H161 H 0.99852 0.33524 0.64094 0.0
H162 H 0.06444 0.42334 0.53557 0.0
H163 H 0.91331 0.37086 0.52186 0.0
H164 H 0.10159 0.3385 0.53829 0.0
H165 H 0.1098 0.3613 0.59691 0.0
H166 H 0.12391 0.39481 0.56318 0.0
H167 H 0.91557 0.27028 0.51862 0.0
H168 H 0.88362 0.30698 0.53513 0.0
H169 H 0.92669 0.29589 0.57714 0.0
C170 C 0.87934 1.02534 0.48873 0.0
C171 C 0.92356 0.05352 0.49209 0.0
C172 C 0.83925 0.0392 0.49281 0.0
C173 C 0.84361 0.08249 0.50127 0.0
C174 C 0.88678 0.11053 0.50099 0.0
C175 C 0.9261 0.09561 0.49596 0.0
C176 C 0.79325 1.00787 0.49112 0.0
C177 C 0.89281 0.15679 0.50918 0.0
C178 C 0.72326 0.1049 0.49585 0.0
C179 C 0.72253 0.1096 0.54047 0.0
C180 C 0.764 0.09923 0.48292 0.0
C181 C 0.80504 0.09838 0.51539 0.0
C182 C 0.80627 0.10732 0.56126 0.0
C183 C 0.76504 0.11271 0.5732 0.0
C184 C 0.76096 0.09079 0.43378 0.0
C185 C 0.84976 0.10791 0.59731 0.0
H186 H 0.87683 0.99269 0.48521 0.0
H187 H 0.95983 0.11765 0.4982 0.0
H188 H 0.78846 1.01429 0.52518 0.0
H189 H 0.76118 1.01107 0.46782 0.0
H190 H 0.79391 0.97492 0.47986 0.0
H191 H 0.92486 0.173 0.50072 0.0
H192 H 0.85982 0.16151 0.48902 0.0
H193 H 0.89776 0.17192 0.54533 0.0
H194 H 0.6909 0.10279 0.4702 0.0
H195 H 0.7652 0.11691 0.60788 0.0
H196 H 0.74363 0.05664 0.41598 0.0
H197 H 0.79729 0.10018 0.42903 0.0
H198 H 0.73814 0.10784 0.41773 0.0
H199 H 0.85199 0.07545 0.59252 0.0
H200 H 0.84758 0.12042 0.63186 0.0
H201 H 0.88386 0.12732 0.59463 0.0
C202 C 0.96757 0.72772 0.55458 0.0
C203 C 0.99903 0.70659 0.54003 0.0
C204 C 0.97703 0.77126 0.5622 0.0
C205 C 1.01942 0.79477 0.55586 0.0
C206 C 0.05151 0.77397 0.54145 0.0
C207 C 0.04079 0.73028 0.53338 0.0
C208 C 0.94154 0.79213 0.57709 0.0
C209 C 0.09734 0.79794 0.53462 0.0
C210 C 0.02303 0.90054 0.53666 0.0
C211 C 0.04863 0.92885 0.57996 0.0
C212 C 1.01325 0.85691 0.52836 0.0
C213 C 0.03002 0.84111 0.56409 0.0
C214 C 0.05644 0.86959 0.60778 0.0
C215 C 0.06509 0.91305 0.61524 0.0
C216 C 0.9843 0.82769 0.48146 0.0
C217 C 0.07561 0.85414 0.64666 0.0
H218 H 0.9355 0.7105 0.56048 0.0
H219 H 0.06531 0.71489 0.52162 0.0
H220 H 0.96001 0.81636 0.61054 0.0
H221 H 0.92832 0.80838 0.55291 0.0
H222 H 0.90967 0.76934 0.57953 0.0
H223 H 0.11921 0.77738 0.5244 0.0
H224 H 0.08798 0.81312 0.50824 0.0
H225 H 0.12016 0.82334 0.56626 0.0
H226 H 1.00956 0.91248 0.50941 0.0
H227 H 0.08526 0.9348 0.64864 0.0
H228 H 0.95065 0.80615 0.48255 0.0
H229 H 1.00566 0.80792 0.46845 0.0
H230 H 0.974 0.84495 0.45734 0.0
H231 H 0.04498 0.83335 0.65298 0.0
H232 H 0.09647 0.88035 0.67828 0.0
H233 H 0.09955 0.83517 0.63805 0.0
C234 C 0.42811 0.09714 0.51035 0.0
C235 C 0.43335 0.05712 0.50719 0.0
C236 C 0.38451 0.10532 0.51392 0.0
C237 C 0.34556 0.0729 0.51495 0.0
C238 C 0.35048 0.03235 0.5109 0.0
C239 C 0.39397 1.02497 0.50686 0.0
C240 C 0.3805 0.14884 0.5176 0.0
C241 C 0.31035 0.99692 0.51244 0.0
C242 C 0.25658 0.09694 0.57763 0.0
C243 C 0.21349 0.08732 0.54229 0.0
C244 C 0.30012 0.09411 0.56912 0.0
C245 C 0.30115 0.08165 0.52404 0.0
C246 C 0.25835 0.07353 0.48811 0.0
C247 C 0.21494 0.07626 0.49763 0.0
C248 C 0.34455 0.10262 0.60853 0.0
C249 C 0.25802 0.0606 0.43959 0.0
H250 H 0.45813 0.12212 0.51037 0.0
H251 H 0.39736 0.99387 0.50442 0.0
H252 H 0.34653 0.14708 0.49263 0.0
H253 H 0.37855 0.16364 0.55163 0.0
H254 H 0.41193 0.16943 0.51202 0.0
H255 H 0.31902 0.96674 0.50686 0.0
H256 H 0.30405 1.00507 0.54581 0.0
H257 H 0.27585 0.99225 0.48643 0.0
H258 H 0.25616 0.10574 0.61232 0.0
H259 H 0.18201 0.06901 0.47009 0.0
H260 H 0.37613 0.12581 0.60631 0.0
H261 H 0.35415 0.07317 0.60749 0.0
H262 H 0.33874 0.11474 0.64158 0.0
H263 H 0.28924 0.08232 0.43501 0.0
H264 H 0.22381 0.06016 0.41592 0.0
H265 H 0.26207 0.02869 0.43044 0.0
C266 C 0.53976 0.99426 0.29939 0.0
C267 C 0.57651 1.01279 0.34099 0.0
C268 C 0.54499 1.00573 0.26102 0.0
C269 C 0.58826 0.03611 0.26422 0.0
C270 C 0.62693 0.05237 0.30528 0.0
C271 C 0.62036 0.04087 0.34324 0.0
C272 C 0.50264 0.98765 0.21807 0.0
C273 C 0.67418 0.08407 0.31045 0.0
C274 C 0.60201 0.05239 0.15338 0.0
C275 C 0.58172 0.08516 0.15144 0.0
C276 C 0.60604 0.03682 0.19061 0.0
C277 C 0.59007 0.05487 0.22683 0.0
C278 C 0.57301 0.08994 0.22636 0.0
C279 C 0.569 0.10455 0.18875 0.0
C280 C 0.62546 1.00001 0.19045 0.0
C281 C 0.55654 0.11075 0.26462 0.0
H282 H 0.50575 0.97272 0.2975 0.0
H283 H 0.64918 0.05477 0.37517 0.0
H284 H 0.48342 1.01136 0.2148 0.0
H285 H 0.51524 0.98012 0.18802 0.0
H286 H 0.47624 0.95878 0.21798 0.0
H287 H 0.70495 0.08057 0.33512 0.0
H288 H 0.6824 0.08105 0.278 0.0
H289 H 0.67185 0.11622 0.32343 0.0
H290 H 0.61205 0.03728 0.12476 0.0
H291 H 0.55367 0.13011 0.18766 0.0
H292 H 0.59761 0.97337 0.1926 0.0
H293 H 0.65766 1.00888 0.22061 0.0
H294 H 0.63598 0.98919 0.15965 0.0
H295 H 0.52487 0.08796 0.2673 0.0
H296 H 0.54595 0.13871 0.25989 0.0
H297 H 0.58604 0.12071 0.2971 0.0
C298 C 1.00956 0.46768 0.16827 0.0
C299 C 0.03251 0.49843 0.15147 0.0
C300 C 1.01195 0.47673 0.21413 0.0
C301 C 0.0377 0.51768 0.24435 0.0
C302 C 0.06186 0.54865 0.22798 0.0
C303 C 0.05908 0.53868 0.18195 0.0
C304 C 0.98557 0.44269 0.22997 0.0
C305 C 0.08964 0.59272 0.25887 0.0
C306 C 0.9929 0.55043 0.34537 0.0
C307 C 0.02675 0.5448 0.38044 0.0
C308 C 0.99694 0.54283 0.30154 0.0
C309 C 0.03567 0.52886 0.29196 0.0
C310 C 0.07079 0.5241 0.32741 0.0
C311 C 0.06606 0.53231 0.37129 0.0
C312 C 0.95891 0.54885 0.26516 0.0
C313 C 0.11255 0.50916 0.31865 0.0
H314 H 0.98852 0.43663 0.14537 0.0
H315 H 0.07779 0.5626 0.16991 0.0
H316 H 1.01052 0.43957 0.25986 0.0
H317 H 0.95527 0.45131 0.24046 0.0
H318 H 0.9704 0.41168 0.20326 0.0
H319 H 0.10916 0.6124 0.24179 0.0
H320 H 0.06416 0.60804 0.27106 0.0
H321 H 0.11644 0.59185 0.28901 0.0
H322 H 0.96259 0.56043 0.35201 0.0
H323 H 0.0923 0.52775 0.39806 0.0
H324 H 0.9387 0.5183 0.23857 0.0
H325 H 0.97654 0.57047 0.24884 0.0
H326 H 0.93239 0.56179 0.27854 0.0
H327 H 0.09829 0.47666 0.29493 0.0
H328 H 0.13835 0.50942 0.35013 0.0
H329 H 0.1327 0.52926 0.30238 0.0
C330 C 0.60117 0.06684 0.69837 0.0
C331 C 0.588 1.02585 0.66885 0.0
C332 C 0.59875 0.07413 0.74277 0.0
C333 C 0.58242 0.03962 0.75815 0.0
C334 C 0.5709 0.99814 0.72912 0.0
C335 C 0.57398 0.99177 0.68493 0.0
C336 C 0.61177 0.11885 0.77259 0.0
C337 C 0.55298 0.96043 0.74395 0.0
C338 C 0.59605 0.05816 0.88389 0.0
C339 C 0.54998 0.06089 0.88523 0.0
C340 C 0.60742 0.05129 0.84285 0.0
C341 C 0.57183 0.04687 0.8023 0.0
C342 C 0.52544 0.04971 0.80365 0.0
C343 C 0.51521 0.05675 0.84488 0.0
C344 C 0.65738 0.04869 0.8428 0.0
C345 C 0.48628 0.04514 0.76139 0.0
H346 H 0.61307 0.09336 0.68662 0.0
H347 H 0.56357 0.96003 0.66236 0.0
H348 H 0.57849 0.12539 0.77829 0.0
H349 H 0.63724 0.12351 0.8061 0.0
H350 H 0.6287 0.14207 0.75747 0.0
H351 H 0.55034 0.93053 0.71933 0.0
H352 H 0.57755 0.96351 0.77732 0.0
H353 H 0.51646 0.95866 0.74779 0.0
H354 H 0.62311 0.06124 0.91479 0.0
H355 H 0.47943 0.05872 0.84525 0.0
H356 H 0.67513 0.073 0.82939 0.0
H357 H 0.65437 1.01766 0.82017 0.0
H358 H 0.68112 0.05311 0.8771 0.0
H359 H 0.49899 0.06977 0.74615 0.0
H360 H 0.45188 0.04769 0.76809 0.0
H361 H 0.47845 1.01422 0.73602 0.0
C362 C 0.08677 0.52868 0.64541 0.0
C363 C 0.09007 0.57102 0.65025 0.0
C364 C 0.08489 0.51215 0.68146 0.0
C365 C 0.08781 0.53889 0.72384 0.0
C366 C 0.09568 0.58242 0.72997 0.0
C367 C 0.09607 0.5978 0.69304 0.0
C368 C 0.07582 0.46546 0.67294 0.0
C369 C 0.10059 0.6124 0.77486 0.0
C370 C 1.02068 0.49702 0.79965 0.0
C371 C 0.05811 0.4926 0.8322 0.0
C372 C 0.02961 0.51045 0.76333 0.0
C373 C 0.07757 0.52104 0.76022 0.0
C374 C 0.11556 0.51647 0.79306 0.0
C375 C 0.10525 0.50182 0.82836 0.0
C376 C 0.98778 0.51399 0.72867 0.0
C377 C 0.16732 0.52836 0.79179 0.0
H378 H 0.08212 0.50766 0.61265 0.0
H379 H 0.0989 0.63059 0.6972 0.0
H380 H 0.09916 0.45903 0.70137 0.0
H381 H 0.03741 0.4505 0.67019 0.0
H382 H 0.08249 0.45034 0.64121 0.0
H383 H 0.11321 0.64578 0.77589 0.0
H384 H 0.06484 0.60638 0.78122 0.0
H385 H 0.12653 0.6074 0.8027 0.0
H386 H 0.98432 0.48988 0.80274 0.0
H387 H 0.13439 0.4991 0.85402 0.0
H388 H 0.98611 0.49634 0.69421 0.0
H389 H 0.99346 0.54739 0.7301 0.0
H390 H 0.95226 0.50178 0.73412 0.0
H391 H 0.16926 0.51113 0.7586 0.0
H392 H 0.19238 0.52158 0.81886 0.0
H393 H 0.18024 0.56243 0.7958 0.0
C394 C 0.22164 0.55979 0.05501 0.0
C395 C 0.1832 0.56735 0.02673 0.0
C396 C 0.26692 0.56588 0.04753 0.0
C397 C 0.27414 0.58007 1.01081 0.0
C398 C 0.23614 0.58965 0.98324 0.0
C399 C 0.1909 0.58311 0.99152 0.0
C400 C 0.30659 0.55577 0.07823 0.0
C401 C 0.2423 0.60477 0.94377 0.0
C402 C 0.40862 0.62153 0.03237 0.0
C403 C 0.41851 0.58538 1.01107 0.0
C404 C 0.3608 0.62196 0.02798 0.0
C405 C 0.32205 0.58489 1.00254 0.0
C406 C 0.3317 0.54961 0.97725 0.0
C407 C 0.38019 0.55033 0.98169 0.0
C408 C 0.35205 0.66055 0.05448 0.0
C409 C 0.29123 0.50962 0.94944 0.0
H410 H 0.21569 0.54753 0.08217 0.0
H411 H 0.16092 0.58818 0.96899 0.0
H412 H 0.31774 0.53077 0.05821 0.0
H413 H 0.3391 0.58396 0.09449 0.0
H414 H 0.29492 0.54498 0.10518 0.0
H415 H 0.21359 0.61876 0.93168 0.0
H416 H 0.27843 0.62838 0.95277 0.0
H417 H 0.23997 0.57778 0.91544 0.0
H418 H 0.43849 0.64859 0.05513 0.0
H419 H 0.38802 0.52233 0.96548 0.0
H420 H 0.33898 0.65392 0.08257 0.0
H421 H 0.32343 0.66896 0.03256 0.0
H422 H 0.38557 0.68798 0.06908 0.0
H423 H 0.27799 0.49332 0.97232 0.0
H424 H 0.30352 0.48791 0.92626 0.0
H425 H 0.26008 0.51667 0.92931 0.0
C426 C 0.5618 0.42566 0.11115 0.0
C427 C 0.54145 0.44118 0.07685 0.0
C428 C 0.5537 0.38221 0.10377 0.0
C429 C 0.52458 0.35334 0.061 0.0
C430 C 0.5037 0.36872 0.02633 0.0
C431 C 0.51225 0.41226 0.03468 0.0
C432 C 0.57664 0.3672 0.14168 0.0
C433 C 0.4723 0.33913 0.98028 0.0
C434 C 0.53916 0.24394 0.0268 0.0
C435 C 0.49896 0.21902 0.03433 0.0
C436 C 0.54805 0.28759 0.03553 0.0
C437 C 0.51607 0.30706 0.05234 0.0
C438 C 0.47556 0.28217 0.06021 0.0
C439 C 0.46749 0.23859 0.05109 0.0
C440 C 0.59149 0.31282 0.02637 0.0
C441 C 0.44065 0.30161 0.07828 0.0
H442 H 0.5848 0.44752 0.14367 0.0
H443 H 0.49556 0.42358 1.00811 0.0
H444 H 0.54813 0.34496 0.14896 0.0
H445 H 0.60145 0.34991 0.13142 0.0
H446 H 0.5976 0.39352 0.17318 0.0
H447 H 0.45882 0.35603 0.95688 0.0
H448 H 0.49324 0.32019 0.96505 0.0
H449 H 0.44055 0.31685 0.98345 0.0
H450 H 0.56336 0.22922 0.01332 0.0
H451 H 0.43676 0.21989 0.05768 0.0
H452 H 0.61531 0.33827 0.0576 0.0
H453 H 0.57922 0.32802 1.00075 0.0
H454 H 0.61332 0.29315 0.014 0.0
H455 H 0.46055 0.32629 0.11121 0.0
H456 H 0.41112 0.27805 0.08293 0.0
H457 H 0.42399 0.31706 0.0548 0.0
C458 C 0.84912 0.50405 0.9368 0.0
C459 C 0.89486 0.53461 0.9577 0.0
C460 C 0.80649 0.51302 0.94125 0.0
C461 C 0.80951 0.55369 0.9669 0.0
C462 C 0.85504 0.58567 0.9848 0.0
C463 C 0.89728 0.57571 0.98018 0.0
C464 C 0.75885 0.47789 0.92178 0.0
C465 C 0.8597 0.62963 1.01174 0.0
C466 C 0.69133 0.57851 0.97034 0.0
C467 C 0.68726 0.57181 1.011 0.0
C468 C 0.7313 0.57335 0.95552 0.0
C469 C 0.7672 0.56047 0.98164 0.0
C470 C 0.76249 0.55292 0.0222 0.0
C471 C 0.72291 0.55897 0.03645 0.0
C472 C 0.73554 0.58222 0.91244 0.0
C473 C 0.79929 0.53833 0.05072 0.0
H474 H 0.84669 0.4723 0.91883 0.0
H475 H 0.93237 0.59966 0.996 0.0
H476 H 0.74838 0.46786 0.94957 0.0
H477 H 0.72939 0.48869 0.90463 0.0
H478 H 0.76126 0.45013 0.89732 0.0
H479 H 0.8953 0.65234 0.01647 0.0
H480 H 0.83014 0.64055 0.99491 0.0
H481 H 0.85631 0.62968 0.04553 0.0
H482 H 0.66401 0.58873 0.95075 0.0
H483 H 0.71977 0.55334 0.06772 0.0
H484 H 0.73765 0.55404 0.88849 0.0
H485 H 0.76964 0.60787 0.91982 0.0
H486 H 0.70435 0.59152 0.89574 0.0
H487 H 0.80195 0.50846 0.03037 0.0
H488 H 0.78981 0.53322 0.08098 0.0
H489 H 0.83578 0.56195 0.06213 0.0
C490 C 0.51689 0.74365 0.0642 0.0
C491 C 0.5662 0.74628 0.07786 0.0
C492 C 0.50216 0.7774 0.05477 0.0
C493 C 0.53761 0.81456 0.05818 0.0
C494 C 0.58762 0.81769 0.0727 0.0
C495 C 0.60134 0.78365 0.08287 0.0
C496 C 0.44861 0.77317 0.04085 0.0
C497 C 0.62651 0.85639 0.0759 0.0
C498 C 0.49566 0.88109 0.98664 0.0
C499 C 0.493 0.91513 0.0191 0.0
C500 C 0.51075 0.84851 0.99903 0.0
C501 C 0.52211 0.84935 0.04485 0.0
C502 C 0.51812 0.88313 0.07758 0.0
C503 C 0.50451 0.91601 0.06442 0.0
C504 C 0.51548 0.81359 0.96319 0.0
C505 C 0.52862 0.8848 0.12654 0.0
H506 H 0.48979 0.71499 0.06086 0.0
H507 H 0.63944 0.78555 0.09301 0.0
H508 H 0.44146 0.7981 0.06515 0.0
H509 H 0.43731 0.77755 1.00716 0.0
H510 H 0.42565 0.74206 0.0394 0.0
H511 H 0.66372 0.8541 0.08811 0.0
H512 H 0.62124 0.86118 0.04221 0.0
H513 H 0.62362 0.88463 0.09911 0.0
H514 H 0.4877 0.88083 0.95176 0.0
H515 H 0.50266 0.94246 0.08953 0.0
H516 H 0.49091 0.78293 0.96099 0.0
H517 H 0.55318 0.81179 0.97241 0.0
H518 H 0.50659 0.81816 0.92935 0.0
H519 H 0.50978 0.85413 0.12952 0.0
H520 H 0.51709 0.90968 0.14629 0.0
H521 H 0.56821 0.89121 0.14187 0.0
loop_
_geom_bond_atom_site_label_1
_geom_bond_atom_site_label_2
_geom_bond_distance
_geom_bond_site_symmetry_2
_ccdc_geom_bond_type
Cu0 N1 1.999 . S
Cu0 O6 1.974 1_455 S
Cu0 N11 1.985 1_545 S
Cu0 O20 1.959 . S
N1 Cu0 1.999 . S
N1 C3 1.263 . S
N1 C5 1.389 . S
N2 C3 1.358 . S
N2 C4 1.400 . S
C3 N1 1.263 . S
C3 N2 1.358 . S
C3 H9 0.930 1_455 S
C4 N2 1.400 . S
C4 C5 1.351 . S
C4 H21 0.930 . S
C5 N1 1.389 . S
C5 C4 1.351 . S
C5 H10 0.930 . S
O6 Cu0 1.974 1_655 S
O6 C16 1.282 . S
C7 O8 1.261 . S
C7 O20 1.251 . S
O8 C7 1.261 . S
H9 C3 0.930 1_655 S
H10 C5 0.930 . S
N11 Cu0 1.985 1_565 S
N11 C13 1.335 . S
N11 C14 1.390 1_455 S
N12 C13 1.345 . S
N12 C15 1.336 1_455 S
C13 N11 1.335 . S
C13 N12 1.345 . S
C13 H18 0.930 . S
C14 N11 1.390 1_655 S
C14 C15 1.346 . S
C14 H19 0.930 . S
C15 N12 1.336 1_655 S
C15 C14 1.346 . S
C15 H22 0.929 . S
C16 O6 1.282 . S
C16 O17 1.216 . S
O17 C16 1.216 . S
H18 C13 0.930 . S
H19 C14 0.930 . S
O20 Cu0 1.959 . S
O20 C7 1.251 . S
H21 C4 0.930 . S
H22 C15 0.929 . S
Cu23 N24 1.999 1_545 S
Cu23 O29 1.974 . S
Cu23 N34 1.985 . S
Cu23 O43 1.959 1_554 S
N24 Cu23 1.999 1_565 S
N24 C26 1.263 . S
N24 C28 1.389 1_554 S
N25 C26 1.358 . S
N25 C27 1.400 1_554 S
C26 N24 1.263 . S
C26 N25 1.358 . S
C26 H32 0.930 . S
C27 N25 1.400 1_556 S
C27 C28 1.351 . S
C27 H44 0.930 . S
C28 N24 1.389 1_556 S
C28 C27 1.351 . S
C28 H33 0.930 . S
O29 Cu23 1.974 . S
O29 C39 1.282 . S
C30 O31 1.261 . S
C30 O43 1.251 . S
O31 C30 1.261 . S
H32 C26 0.930 . S
H33 C28 0.930 . S
N34 Cu23 1.985 . S
N34 C36 1.335 . S
N34 C37 1.390 . S
N35 C36 1.345 . S
N35 C38 1.336 . S
C36 N34 1.335 . S
C36 N35 1.345 . S
C36 H41 0.930 1_554 S
C37 N34 1.390 . S
C37 C38 1.346 . S
C37 H42 0.930 . S
C38 N35 1.336 . S
C38 C37 1.346 . S
C38 H45 0.929 . S
C39 O29 1.282 . S
C39 O40 1.216 . S
O40 C39 1.216 . S
H41 C36 0.930 1_556 S
H42 C37 0.930 . S
O43 Cu23 1.959 1_556 S
O43 C30 1.251 . S
H44 C27 0.930 . S
H45 C38 0.929 . S
Cu46 N47 1.999 1_554 S
Cu46 O52 1.974 . S
Cu46 N57 1.985 . S
Cu46 O66 1.959 1_455 S
N47 Cu46 1.999 1_556 S
N47 C49 1.263 . S
N47 C51 1.389 1_455 S
N48 C49 1.358 . S
N48 C50 1.400 1_455 S
C49 N47 1.263 . S
C49 N48 1.358 . S
C49 H55 0.930 . S
C50 N48 1.400 1_655 S
C50 C51 1.351 . S
C50 H67 0.930 . S
C51 N47 1.389 1_655 S
C51 C50 1.351 . S
C51 H56 0.930 . S
O52 Cu46 1.974 . S
O52 C62 1.282 . S
C53 O54 1.261 1_554 S
C53 O66 1.251 . S
O54 C53 1.261 1_556 S
H55 C49 0.930 . S
H56 C51 0.930 . S
N57 Cu46 1.985 . S
N57 C59 1.335 . S
N57 C60 1.390 . S
N58 C59 1.345 . S
N58 C61 1.336 . S
C59 N57 1.335 . S
C59 N58 1.345 . S
C59 H64 0.930 1_455 S
C60 N57 1.390 . S
C60 C61 1.346 . S
C60 H65 0.930 . S
C61 N58 1.336 . S
C61 C60 1.346 . S
C61 H68 0.929 . S
C62 O52 1.282 . S
C62 O63 1.216 1_554 S
O63 C62 1.216 1_556 S
H64 C59 0.930 1_655 S
H65 C60 0.930 . S
O66 Cu46 1.959 1_655 S
O66 C53 1.251 . S
H67 C50 0.930 . S
H68 C61 0.929 . S
Cu69 N70 1.999 . S
Cu69 O75 1.974 . S
Cu69 N80 1.985 . S
Cu69 O89 1.959 . S
N70 Cu69 1.999 . S
N70 C72 1.269 . S
N70 C74 1.389 . S
N71 C72 1.368 . S
N71 C73 1.400 . S
C72 N70 1.269 . S
C72 N71 1.368 . S
C72 H78 0.916 1_556 S
C73 N71 1.400 . S
C73 C74 1.351 . S
C73 H90 0.930 . S
C74 N70 1.389 . S
C74 C73 1.351 . S
C74 H79 0.930 . S
O75 Cu69 1.974 . S
O75 C85 1.282 1_556 S
C76 O77 1.261 . S
C76 O89 1.251 1_554 S
O77 C76 1.261 . S
H78 C72 0.916 1_554 S
H79 C74 0.930 . S
N80 Cu69 1.985 . S
N80 C82 1.335 . S
N80 C83 1.390 1_556 S
N81 C82 1.357 . S
N81 C84 1.325 1_556 S
C82 N80 1.335 . S
C82 N81 1.357 . S
C82 H87 0.930 . S
C83 N80 1.390 1_554 S
C83 C84 1.346 . S
C83 H88 0.930 . S
C84 N81 1.325 1_554 S
C84 C83 1.346 . S
C84 H91 0.929 . S
C85 O75 1.282 1_554 S
C85 O86 1.216 . S
O86 C85 1.216 . S
H87 C82 0.930 . S
H88 C83 0.930 . S
O89 Cu69 1.959 . S
O89 C76 1.251 1_556 S
H90 C73 0.930 . S
H91 C84 0.929 . S
Cu92 N93 1.999 . S
Cu92 O98 1.974 . S
Cu92 N103 1.985 . S
Cu92 O112 1.959 . S
N93 Cu92 1.999 . S
N93 C95 1.263 . S
N93 C97 1.389 . S
N94 C95 1.358 . S
N94 C96 1.400 . S
C95 N93 1.263 . S
C95 N94 1.358 . S
C95 H101 0.930 . S
C96 N94 1.400 . S
C96 C97 1.351 . S
C96 H113 0.930 . S
C97 N93 1.389 . S
C97 C96 1.351 . S
C97 H102 0.930 . S
O98 Cu92 1.974 . S
O98 C108 1.282 . S
C99 O100 1.261 1_455 S
C99 O112 1.251 . S
O100 C99 1.261 1_655 S
H101 C95 0.930 . S
H102 C97 0.930 . S
N103 Cu92 1.985 . S
N103 C105 1.335 . S
N103 C106 1.390 . S
N104 C105 1.345 . S
N104 C107 1.336 . S
C105 N103 1.335 . S
C105 N104 1.345 . S
C105 H110 0.930 . S
C106 N103 1.390 . S
C106 C107 1.346 . S
C106 H111 0.930 . S
C107 N104 1.336 . S
C107 C106 1.346 . S
C107 H114 0.929 . S
C108 O98 1.282 . S
C108 O109 1.216 1_455 S
O109 C108 1.216 1_655 S
H110 C105 0.930 . S
H111 C106 0.930 . S
O112 Cu92 1.959 . S
O112 C99 1.251 . S
H113 C96 0.930 . S
H114 C107 0.929 . S
Cu115 N116 1.999 . S
Cu115 O121 1.974 . S
Cu115 N126 1.985 . S
Cu115 O135 1.959 . S
N116 Cu115 1.999 . S
N116 C118 1.263 . S
N116 C120 1.389 . S
N117 C118 1.358 . S
N117 C119 1.400 . S
C118 N116 1.263 . S
C118 N117 1.358 . S
C118 H124 0.930 . S
C119 N117 1.400 . S
C119 C120 1.351 . S
C119 H136 0.930 . S
C120 N116 1.389 . S
C120 C119 1.351 . S
C120 H125 0.930 . S
O121 Cu115 1.974 . S
O121 C131 1.282 . S
C122 O123 1.261 1_545 S
C122 O135 1.251 . S
O123 C122 1.261 1_565 S
H124 C118 0.930 . S
H125 C120 0.930 . S
N126 Cu115 1.985 . S
N126 C128 1.335 . S
N126 C129 1.390 . S
N127 C128 1.345 . S
N127 C130 1.336 . S
C128 N126 1.335 . S
C128 N127 1.345 . S
C128 H133 0.930 . S
C129 N126 1.390 . S
C129 C130 1.346 . S
C129 H134 0.930 . S
C130 N127 1.336 . S
C130 C129 1.346 . S
C130 H137 0.929 . S
C131 O121 1.282 . S
C131 O132 1.216 1_545 S
O132 C131 1.216 1_565 S
H133 C128 0.930 . S
H134 C129 0.930 . S
O135 Cu115 1.959 . S
O135 C122 1.251 . S
H136 C119 0.930 . S
H137 C130 0.929 . S
C138 C139 1.391 . S
C138 C140 1.394 . S
C138 H154 0.931 . S
C139 C138 1.391 . S
C139 C143 1.376 . S
C140 C138 1.394 . S
C140 C141 1.369 . S
C140 C144 1.531 . S
C141 C140 1.369 . S
C141 C142 1.410 . S
C141 C149 1.503 . S
C142 C141 1.410 . S
C142 C143 1.392 . S
C142 C145 1.511 1_455 S
C143 C139 1.376 . S
C143 C142 1.392 . S
C143 H155 0.929 1_455 S
C144 C140 1.531 . S
C144 H156 0.960 . S
C144 H157 0.962 . S
C144 H158 0.960 . S
C145 C142 1.511 1_655 S
C145 H159 0.962 . S
C145 H160 0.961 1_655 S
C145 H161 0.961 . S
C146 C147 1.370 . S
C146 C148 1.363 . S
C146 H162 0.931 . S
C147 C146 1.370 . S
C147 C151 1.408 1_455 S
C148 C146 1.363 . S
C148 C149 1.370 . S
C148 C152 1.524 . S
C149 C141 1.503 . S
C149 C148 1.370 . S
C149 C150 1.403 1_455 S
C150 C149 1.403 1_655 S
C150 C151 1.404 . S
C150 C153 1.539 . S
C151 C147 1.408 1_655 S
C151 C150 1.404 . S
C151 H163 0.930 . S
C152 C148 1.524 . S
C152 H164 0.956 . S
C152 H165 0.961 . S
C152 H166 0.961 . S
C153 C150 1.539 . S
C153 H167 0.958 . S
C153 H168 0.961 . S
C153 H169 0.960 . S
H154 C138 0.931 . S
H155 C143 0.929 1_655 S
H156 C144 0.960 . S
H157 C144 0.962 . S
H158 C144 0.960 . S
H159 C145 0.962 . S
H160 C145 0.961 1_455 S
H161 C145 0.961 . S
H162 C146 0.931 . S
H163 C151 0.930 . S
H164 C152 0.956 . S
H165 C152 0.961 . S
H166 C152 0.961 . S
H167 C153 0.958 . S
H168 C153 0.961 . S
H169 C153 0.960 . S
C170 C171 1.391 1_565 S
C170 C172 1.394 . S
C170 H186 0.931 . S
C171 C170 1.391 1_545 S
C171 C175 1.376 . S
C172 C170 1.394 . S
C172 C173 1.369 1_565 S
C172 C176 1.531 . S
C173 C172 1.369 1_545 S
C173 C174 1.410 . S
C173 C181 1.503 . S
C174 C173 1.410 . S
C174 C175 1.392 . S
C174 C177 1.511 . S
C175 C171 1.376 . S
C175 C174 1.392 . S
C175 H187 0.929 . S
C176 C172 1.531 . S
C176 H188 0.960 . S
C176 H189 0.962 . S
C176 H190 0.960 . S
C177 C174 1.511 . S
C177 H191 0.961 . S
C177 H192 0.961 . S
C177 H193 0.961 . S
C178 C179 1.370 . S
C178 C180 1.363 . S
C178 H194 0.931 . S
C179 C178 1.370 . S
C179 C183 1.408 . S
C180 C178 1.363 . S
C180 C181 1.370 . S
C180 C184 1.524 . S
C181 C173 1.503 . S
C181 C180 1.370 . S
C181 C182 1.403 . S
C182 C181 1.403 . S
C182 C183 1.404 . S
C182 C185 1.539 . S
C183 C179 1.408 . S
C183 C182 1.404 . S
C183 H195 0.930 . S
C184 C180 1.524 . S
C184 H196 0.956 1_545 S
C184 H197 0.961 . S
C184 H198 0.961 . S
C185 C182 1.539 . S
C185 H199 0.958 . S
C185 H200 0.961 . S
C185 H201 0.960 . S
H186 C170 0.931 . S
H187 C175 0.929 . S
H188 C176 0.960 . S
H189 C176 0.962 . S
H190 C176 0.960 . S
H191 C177 0.961 . S
H192 C177 0.961 . S
H193 C177 0.961 . S
H194 C178 0.931 . S
H195 C183 0.930 . S
H196 C184 0.956 1_565 S
H197 C184 0.961 . S
H198 C184 0.961 . S
H199 C185 0.958 . S
H200 C185 0.961 . S
H201 C185 0.960 . S
C202 C203 1.391 . S
C202 C204 1.394 . S
C202 H218 0.931 . S
C203 C202 1.391 . S
C203 C207 1.376 . S
C204 C202 1.394 . S
C204 C205 1.369 . S
C204 C208 1.531 . S
C205 C204 1.369 . S
C205 C206 1.410 . S
C205 C213 1.503 . S
C206 C205 1.410 . S
C206 C207 1.392 . S
C206 C209 1.511 . S
C207 C203 1.376 . S
C207 C206 1.392 . S
C207 H219 0.929 . S
C208 C204 1.531 . S
C208 H220 0.960 . S
C208 H221 0.962 1_455 S
C208 H222 0.960 . S
C209 C206 1.511 . S
C209 H223 0.961 . S
C209 H224 0.961 . S
C209 H225 0.961 . S
C210 C211 1.370 1_655 S
C210 C212 1.363 . S
C210 H226 0.931 . S
C211 C210 1.370 1_455 S
C211 C215 1.408 . S
C212 C210 1.363 . S
C212 C213 1.370 1_655 S
C212 C216 1.524 . S
C213 C205 1.503 . S
C213 C212 1.370 1_455 S
C213 C214 1.403 . S
C214 C213 1.403 . S
C214 C215 1.404 . S
C214 C217 1.539 . S
C215 C211 1.408 . S
C215 C214 1.404 . S
C215 H227 0.930 . S
C216 C212 1.524 . S
C216 H228 0.956 . S
C216 H229 0.961 . S
C216 H230 0.961 . S
C217 C214 1.539 . S
C217 H231 0.958 . S
C217 H232 0.961 . S
C217 H233 0.960 . S
H218 C202 0.931 . S
H219 C207 0.929 . S
H220 C208 0.960 . S
H221 C208 0.962 1_655 S
H222 C208 0.960 . S
H223 C209 0.961 . S
H224 C209 0.961 . S
H225 C209 0.961 . S
H226 C210 0.931 . S
H227 C215 0.930 . S
H228 C216 0.956 . S
H229 C216 0.961 . S
H230 C216 0.961 . S
H231 C217 0.958 . S
H232 C217 0.961 . S
H233 C217 0.960 . S
C234 C235 1.391 . S
C234 C236 1.394 . S
C234 H250 0.931 . S
C235 C234 1.391 . S
C235 C239 1.376 . S
C236 C234 1.394 . S
C236 C237 1.369 . S
C236 C240 1.531 . S
C237 C236 1.369 . S
C237 C238 1.410 . S
C237 C245 1.503 . S
C238 C237 1.410 . S
C238 C239 1.392 . S
C238 C241 1.501 1_545 S
C239 C235 1.376 . S
C239 C238 1.392 . S
C239 H251 0.929 . S
C240 C236 1.531 . S
C240 H252 0.960 . S
C240 H253 0.962 . S
C240 H254 0.960 . S
C241 C238 1.501 1_565 S
C241 H255 0.966 1_565 S
C241 H256 0.943 1_565 S
C241 H257 0.984 . S
C242 C243 1.370 . S
C242 C244 1.363 . S
C242 H258 0.931 . S
C243 C242 1.370 . S
C243 C247 1.408 1_545 S
C244 C242 1.363 . S
C244 C245 1.370 . S
C244 C248 1.524 . S
C245 C237 1.503 . S
C245 C244 1.370 . S
C245 C246 1.403 1_545 S
C246 C245 1.403 1_565 S
C246 C247 1.404 . S
C246 C249 1.539 . S
C247 C243 1.408 1_565 S
C247 C246 1.404 . S
C247 H259 0.930 . S
C248 C244 1.524 . S
C248 H260 0.956 . S
C248 H261 0.961 . S
C248 H262 0.961 . S
C249 C246 1.539 . S
C249 H263 0.958 . S
C249 H264 0.961 . S
C249 H265 0.960 . S
H250 C234 0.931 . S
H251 C239 0.929 . S
H252 C240 0.960 . S
H253 C240 0.962 . S
H254 C240 0.960 . S
H255 C241 0.966 1_545 S
H256 C241 0.943 1_545 S
H257 C241 0.984 . S
H258 C242 0.931 . S
H259 C247 0.930 . S
H260 C248 0.956 . S
H261 C248 0.961 . S
H262 C248 0.961 . S
H263 C249 0.958 . S
H264 C249 0.961 . S
H265 C249 0.960 . S
C266 C267 1.391 . S
C266 C268 1.394 . S
C266 H282 0.931 1_545 S
C267 C266 1.391 . S
C267 C271 1.376 . S
C268 C266 1.394 . S
C268 C269 1.369 . S
C268 C272 1.531 1_545 S
C269 C268 1.369 . S
C269 C270 1.410 . S
C269 C277 1.503 . S
C270 C269 1.410 . S
C270 C271 1.392 . S
C270 C273 1.511 . S
C271 C267 1.376 . S
C271 C270 1.392 . S
C271 H283 0.929 . S
C272 C268 1.531 1_565 S
C272 H284 0.960 . S
C272 H285 0.962 . S
C272 H286 0.960 . S
C273 C270 1.511 . S
C273 H287 0.961 . S
C273 H288 0.961 . S
C273 H289 0.961 . S
C274 C275 1.370 . S
C274 C276 1.363 . S
C274 H290 0.931 . S
C275 C274 1.370 . S
C275 C279 1.408 . S
C276 C274 1.363 . S
C276 C277 1.370 . S
C276 C280 1.524 . S
C277 C269 1.503 . S
C277 C276 1.370 . S
C277 C278 1.403 . S
C278 C277 1.403 . S
C278 C279 1.404 . S
C278 C281 1.539 . S
C279 C275 1.408 . S
C279 C278 1.404 . S
C279 H291 0.930 . S
C280 C276 1.524 . S
C280 H292 0.956 . S
C280 H293 0.961 . S
C280 H294 0.961 . S
C281 C278 1.539 . S
C281 H295 0.958 . S
C281 H296 0.961 . S
C281 H297 0.960 . S
H282 C266 0.931 1_565 S
H283 C271 0.929 . S
H284 C272 0.960 . S
H285 C272 0.962 . S
H286 C272 0.960 . S
H287 C273 0.961 . S
H288 C273 0.961 . S
H289 C273 0.961 . S
H290 C274 0.931 . S
H291 C279 0.930 . S
H292 C280 0.956 . S
H293 C280 0.961 . S
H294 C280 0.961 . S
H295 C281 0.958 . S
H296 C281 0.961 . S
H297 C281 0.960 . S
C298 C299 1.391 1_655 S
C298 C300 1.394 . S
C298 H314 0.931 . S
C299 C298 1.391 1_455 S
C299 C303 1.376 . S
C300 C298 1.394 . S
C300 C301 1.369 1_655 S
C300 C304 1.531 . S
C301 C300 1.369 1_455 S
C301 C302 1.410 . S
C301 C309 1.503 . S
C302 C301 1.410 . S
C302 C303 1.392 . S
C302 C305 1.511 . S
C303 C299 1.376 . S
C303 C302 1.392 . S
C303 H315 0.929 . S
C304 C300 1.531 . S
C304 H316 0.960 . S
C304 H317 0.962 . S
C304 H318 0.960 . S
C305 C302 1.511 . S
C305 H319 0.961 . S
C305 H320 0.961 . S
C305 H321 0.961 . S
C306 C307 1.370 . S
C306 C308 1.363 . S
C306 H322 0.931 1_455 S
C307 C306 1.370 . S
C307 C311 1.408 . S
C308 C306 1.363 . S
C308 C309 1.370 . S
C308 C312 1.524 1_455 S
C309 C301 1.503 . S
C309 C308 1.370 . S
C309 C310 1.403 . S
C310 C309 1.403 . S
C310 C311 1.404 . S
C310 C313 1.539 . S
C311 C307 1.408 . S
C311 C310 1.404 . S
C311 H323 0.930 . S
C312 C308 1.524 1_655 S
C312 H324 0.956 . S
C312 H325 0.961 1_655 S
C312 H326 0.961 . S
C313 C310 1.539 . S
C313 H327 0.958 . S
C313 H328 0.961 . S
C313 H329 0.960 . S
H314 C298 0.931 . S
H315 C303 0.929 . S
H316 C304 0.960 . S
H317 C304 0.962 . S
H318 C304 0.960 . S
H319 C305 0.961 . S
H320 C305 0.961 . S
H321 C305 0.961 . S
H322 C306 0.931 1_655 S
H323 C311 0.930 . S
H324 C312 0.956 . S
H325 C312 0.961 1_455 S
H326 C312 0.961 . S
H327 C313 0.958 . S
H328 C313 0.961 . S
H329 C313 0.960 . S
C330 C331 1.391 . S
C330 C332 1.394 . S
C330 H346 0.931 . S
C331 C330 1.391 . S
C331 C335 1.376 . S
C332 C330 1.394 . S
C332 C333 1.369 . S
C332 C336 1.531 . S
C333 C332 1.369 . S
C333 C334 1.410 . S
C333 C341 1.503 . S
C334 C333 1.410 . S
C334 C335 1.392 . S
C334 C337 1.511 1_545 S
C335 C331 1.376 . S
C335 C334 1.392 . S
C335 H347 0.929 1_545 S
C336 C332 1.531 . S
C336 H348 0.960 . S
C336 H349 0.962 . S
C336 H350 0.960 . S
C337 C334 1.511 1_565 S
C337 H351 0.961 . S
C337 H352 0.961 . S
C337 H353 0.961 . S
C338 C339 1.370 . S
C338 C340 1.363 . S
C338 H354 0.931 . S
C339 C338 1.370 . S
C339 C343 1.408 . S
C340 C338 1.363 . S
C340 C341 1.370 . S
C340 C344 1.524 . S
C341 C333 1.503 . S
C341 C340 1.370 . S
C341 C342 1.403 . S
C342 C341 1.403 . S
C342 C343 1.404 . S
C342 C345 1.539 . S
C343 C339 1.408 . S
C343 C342 1.404 . S
C343 H355 0.930 . S
C344 C340 1.524 . S
C344 H356 0.956 . S
C344 H357 0.961 1_545 S
C344 H358 0.961 1_545 S
C345 C342 1.539 . S
C345 H359 0.958 . S
C345 H360 0.961 . S
C345 H361 0.960 . S
H346 C330 0.931 . S
H347 C335 0.929 1_565 S
H348 C336 0.960 . S
H349 C336 0.962 . S
H350 C336 0.960 . S
H351 C337 0.961 . S
H352 C337 0.961 . S
H353 C337 0.961 . S
H354 C338 0.931 . S
H355 C343 0.930 . S
H356 C344 0.956 . S
H357 C344 0.961 1_565 S
H358 C344 0.961 1_565 S
H359 C345 0.958 . S
H360 C345 0.961 . S
H361 C345 0.960 . S
C362 C363 1.391 1_655 S
C362 C364 1.394 . S
C362 H378 0.931 . S
C363 C362 1.391 1_455 S
C363 C367 1.376 . S
C364 C362 1.394 . S
C364 C365 1.369 1_655 S
C364 C368 1.531 . S
C365 C364 1.369 1_455 S
C365 C366 1.410 . S
C365 C373 1.503 . S
C366 C365 1.410 . S
C366 C367 1.392 . S
C366 C369 1.511 . S
C367 C363 1.376 . S
C367 C366 1.392 . S
C367 H379 0.929 . S
C368 C364 1.531 . S
C368 H380 0.960 . S
C368 H381 0.962 . S
C368 H382 0.960 . S
C369 C366 1.511 . S
C369 H383 0.961 . S
C369 H384 0.961 . S
C369 H385 0.961 . S
C370 C371 1.377 . S
C370 C372 1.365 . S
C370 H386 0.920 1_455 S
C371 C370 1.377 . S
C371 C375 1.408 . S
C372 C370 1.365 . S
C372 C373 1.374 . S
C372 C376 1.522 1_455 S
C373 C365 1.503 . S
C373 C372 1.374 . S
C373 C374 1.403 . S
C374 C373 1.403 . S
C374 C375 1.404 . S
C374 C377 1.539 . S
C375 C371 1.408 . S
C375 C374 1.404 . S
C375 H387 0.930 . S
C376 C372 1.522 1_655 S
C376 H388 0.956 . S
C376 H389 0.961 . S
C376 H390 0.961 . S
C377 C374 1.539 . S
C377 H391 0.958 . S
C377 H392 0.961 . S
C377 H393 0.960 . S
H378 C362 0.931 . S
H379 C367 0.929 . S
H380 C368 0.960 . S
H381 C368 0.962 . S
H382 C368 0.960 . S
H383 C369 0.961 . S
H384 C369 0.961 . S
H385 C369 0.961 . S
H386 C370 0.920 1_655 S
H387 C375 0.930 . S
H388 C376 0.956 . S
H389 C376 0.961 . S
H390 C376 0.961 . S
H391 C377 0.958 . S
H392 C377 0.961 . S
H393 C377 0.960 . S
C394 C395 1.391 . S
C394 C396 1.394 . S
C394 H410 0.931 . S
C395 C394 1.391 . S
C395 C399 1.376 1_554 S
C396 C394 1.394 . S
C396 C397 1.369 . S
C396 C400 1.531 . S
C397 C396 1.369 . S
C397 C398 1.410 1_554 S
C397 C405 1.503 . S
C398 C397 1.410 1_556 S
C398 C399 1.392 . S
C398 C401 1.511 . S
C399 C395 1.376 1_556 S
C399 C398 1.392 . S
C399 H411 0.929 . S
C400 C396 1.531 . S
C400 H412 0.960 . S
C400 H413 0.962 . S
C400 H414 0.960 . S
C401 C398 1.511 . S
C401 H415 0.961 . S
C401 H416 0.961 . S
C401 H417 0.961 . S
C402 C403 1.370 . S
C402 C404 1.363 . S
C402 H418 0.931 . S
C403 C402 1.370 . S
C403 C407 1.408 1_554 S
C404 C402 1.363 . S
C404 C405 1.370 . S
C404 C408 1.524 . S
C405 C397 1.503 . S
C405 C404 1.370 . S
C405 C406 1.403 1_554 S
C406 C405 1.403 1_556 S
C406 C407 1.404 . S
C406 C409 1.539 . S
C407 C403 1.408 1_556 S
C407 C406 1.404 . S
C407 H419 0.930 . S
C408 C404 1.524 . S
C408 H420 0.956 . S
C408 H421 0.961 . S
C408 H422 0.961 . S
C409 C406 1.539 . S
C409 H423 0.958 . S
C409 H424 0.961 . S
C409 H425 0.960 . S
H410 C394 0.931 . S
H411 C399 0.929 . S
H412 C400 0.960 . S
H413 C400 0.962 . S
H414 C400 0.960 . S
H415 C401 0.961 . S
H416 C401 0.961 . S
H417 C401 0.961 . S
H418 C402 0.931 . S
H419 C407 0.930 . S
H420 C408 0.956 . S
H421 C408 0.961 . S
H422 C408 0.961 . S
H423 C409 0.958 . S
H424 C409 0.961 . S
H425 C409 0.960 . S
C426 C427 1.389 1_554 S
C426 C428 1.394 . S
C426 H442 0.931 . S
C427 C426 1.389 1_556 S
C427 C431 1.377 . S
C428 C426 1.394 . S
C428 C429 1.369 . S
C428 C432 1.531 . S
C429 C428 1.369 . S
C429 C430 1.410 1_554 S
C429 C437 1.503 . S
C430 C429 1.410 1_556 S
C430 C431 1.392 . S
C430 C433 1.511 . S
C431 C427 1.377 . S
C431 C430 1.392 . S
C431 H443 0.929 . S
C432 C428 1.531 . S
C432 H444 0.960 . S
C432 H445 0.962 . S
C432 H446 0.960 . S
C433 C430 1.511 . S
C433 H447 0.961 . S
C433 H448 0.961 . S
C433 H449 0.961 . S
C434 C435 1.370 1_556 S
C434 C436 1.363 . S
C434 H450 0.931 . S
C435 C434 1.370 1_554 S
C435 C439 1.408 . S
C436 C434 1.363 . S
C436 C437 1.370 1_556 S
C436 C440 1.524 . S
C437 C429 1.503 . S
C437 C436 1.370 1_554 S
C437 C438 1.403 . S
C438 C437 1.403 . S
C438 C439 1.404 . S
C438 C441 1.539 . S
C439 C435 1.408 . S
C439 C438 1.404 . S
C439 H451 0.930 . S
C440 C436 1.524 . S
C440 H452 0.956 . S
C440 H453 0.961 . S
C440 H454 0.961 . S
C441 C438 1.539 . S
C441 H455 0.958 . S
C441 H456 0.961 . S
C441 H457 0.960 . S
H442 C426 0.931 . S
H443 C431 0.929 . S
H444 C432 0.960 . S
H445 C432 0.962 . S
H446 C432 0.960 . S
H447 C433 0.961 . S
H448 C433 0.961 . S
H449 C433 0.961 . S
H450 C434 0.931 . S
H451 C439 0.930 . S
H452 C440 0.956 . S
H453 C440 0.961 . S
H454 C440 0.961 . S
H455 C441 0.958 . S
H456 C441 0.961 . S
H457 C441 0.960 . S
C458 C459 1.391 1_556 S
C458 C460 1.394 . S
C458 H474 0.931 . S
C459 C458 1.391 1_554 S
C459 C463 1.376 . S
C460 C458 1.394 . S
C460 C461 1.369 1_556 S
C460 C464 1.531 . S
C461 C460 1.369 1_554 S
C461 C462 1.410 . S
C461 C469 1.503 . S
C462 C461 1.410 . S
C462 C463 1.392 . S
C462 C465 1.511 . S
C463 C459 1.376 . S
C463 C462 1.392 . S
C463 H475 0.929 . S
C464 C460 1.531 . S
C464 H476 0.960 . S
C464 H477 0.962 . S
C464 H478 0.960 . S
C465 C462 1.511 . S
C465 H479 0.961 . S
C465 H480 0.961 . S
C465 H481 0.961 . S
C466 C467 1.370 1_556 S
C466 C468 1.363 . S
C466 H482 0.931 . S
C467 C466 1.370 1_554 S
C467 C471 1.408 . S
C468 C466 1.363 . S
C468 C469 1.370 1_556 S
C468 C472 1.524 . S
C469 C461 1.503 . S
C469 C468 1.370 1_554 S
C469 C470 1.403 . S
C470 C469 1.403 . S
C470 C471 1.404 . S
C470 C473 1.539 . S
C471 C467 1.408 . S
C471 C470 1.404 . S
C471 H483 0.930 . S
C472 C468 1.524 . S
C472 H484 0.956 . S
C472 H485 0.961 . S
C472 H486 0.961 . S
C473 C470 1.539 . S
C473 H487 0.958 . S
C473 H488 0.961 . S
C473 H489 0.960 . S
H474 C458 0.931 . S
H475 C463 0.929 . S
H476 C464 0.960 . S
H477 C464 0.962 . S
H478 C464 0.960 . S
H479 C465 0.961 . S
H480 C465 0.961 . S
H481 C465 0.961 . S
H482 C466 0.931 . S
H483 C471 0.930 . S
H484 C472 0.956 . S
H485 C472 0.961 . S
H486 C472 0.961 . S
H487 C473 0.958 . S
H488 C473 0.961 . S
H489 C473 0.960 . S
C490 C491 1.391 . S
C490 C492 1.394 . S
C490 H506 0.931 . S
C491 C490 1.391 . S
C491 C495 1.376 1_554 S
C492 C490 1.394 . S
C492 C493 1.369 . S
C492 C496 1.531 . S
C493 C492 1.369 . S
C493 C494 1.410 1_554 S
C493 C501 1.503 . S
C494 C493 1.410 1_556 S
C494 C495 1.392 . S
C494 C497 1.511 . S
C495 C491 1.376 1_556 S
C495 C494 1.392 . S
C495 H507 0.929 . S
C496 C492 1.531 . S
C496 H508 0.960 . S
C496 H509 0.962 . S
C496 H510 0.960 . S
C497 C494 1.511 . S
C497 H511 0.961 . S
C497 H512 0.961 . S
C497 H513 0.961 1_556 S
C498 C499 1.370 1_556 S
C498 C500 1.363 . S
C498 H514 0.931 . S
C499 C498 1.370 1_554 S
C499 C503 1.408 . S
C500 C498 1.363 . S
C500 C501 1.370 1_556 S
C500 C504 1.524 . S
C501 C493 1.503 . S
C501 C500 1.370 1_554 S
C501 C502 1.403 . S
C502 C501 1.403 . S
C502 C503 1.404 . S
C502 C505 1.539 . S
C503 C499 1.408 . S
C503 C502 1.404 . S
C503 H515 0.930 . S
C504 C500 1.524 . S
C504 H516 0.956 . S
C504 H517 0.961 . S
C504 H518 0.961 . S
C505 C502 1.539 . S
C505 H519 0.958 . S
C505 H520 0.961 . S
C505 H521 0.960 . S
H506 C490 0.931 . S
H507 C495 0.929 . S
H508 C496 0.960 . S
H509 C496 0.962 . S
H510 C496 0.960 . S
H511 C497 0.961 . S
H512 C497 0.961 . S
H513 C497 0.961 1_554 S
H514 C498 0.931 . S
H515 C503 0.930 . S
H516 C504 0.956 . S
H517 C504 0.961 . S
H518 C504 0.961 . S
H519 C505 0.958 . S
H520 C505 0.961 . S
H521 C505 0.960 . S
C139 N2 1.498 . S
C147 N94 1.495 . S
C171 C16 1.452 . S
C179 C131 1.466 . S
C203 N104 1.457 . S
C211 N12 1.459 . S
C235 C122 1.518 . S
C243 C7 1.520 . S
C267 N117 1.441 . S
C275 C39 1.487 . S
C299 N58 1.442 . S
C307 C99 1.502 . S
C331 N127 1.491 . S
C339 C30 1.505 . S
C363 C108 1.500 . S
C371 N48 1.476 . S
C395 C62 1.459 . S
C403 C85 1.465 . S
C427 N81 1.422 . S
C435 N35 1.449 . S
C459 C53 1.520 . S
C467 C76 1.521 . S
C491 N71 1.496 1_554 S
C499 N25 1.490 . S
