# Generated by pormake.
# Topology wjh, (4)-cn, num edge types: 1
# Building blocks:
#     Node 0, Type 0, BuildingBlock: QUQFOY_clean_sbu_1, # of connection points: 4
#     Node 1, Type 0, BuildingBlock: QUQFOY_clean_sbu_1, # of connection points: 4
#     Node 2, Type 0, BuildingBlock: QUQFOY_clean_sbu_1, # of connection points: 4
#     Node 3, Type 0, BuildingBlock: QUQFOY_clean_sbu_1, # of connection points: 4
#     Node 4, Type 0, BuildingBlock: QUQFOY_clean_sbu_1, # of connection points: 4
#     Node 5, Type 0, BuildingBlock: QUQFOY_clean_sbu_1, # of connection points: 4
#     Node 6, Type 0, BuildingBlock: QUQFOY_clean_sbu_1, # of connection points: 4
#     Node 7, Type 0, BuildingBlock: QUQFOY_clean_sbu_1, # of connection points: 4
#     Node 8, Type 0, BuildingBlock: QUQFOY_clean_sbu_1, # of connection points: 4
#     Node 9, Type 0, BuildingBlock: QUQFOY_clean_sbu_1, # of connection points: 4
#     Node 10, Type 0, BuildingBlock: QUQFOY_clean_sbu_1, # of connection points: 4
#     Node 11, Type 0, BuildingBlock: QUQFOY_clean_sbu_1, # of connection points: 4
#     Edge 12, Type (0, 0), BuildingBlock: MIFKUJ_clean_linker_0, # of connection points: 2
#     Edge 13, Type (0, 0), BuildingBlock: MIFKUJ_clean_linker_0, # of connection points: 2
#     Edge 14, Type (0, 0), BuildingBlock: MIFKUJ_clean_linker_0, # of connection points: 2
#     Edge 15, Type (0, 0), BuildingBlock: MIFKUJ_clean_linker_0, # of connection points: 2
#     Edge 16, Type (0, 0), BuildingBlock: MIFKUJ_clean_linker_0, # of connection points: 2
#     Edge 17, Type (0, 0), BuildingBlock: MIFKUJ_clean_linker_0, # of connection points: 2
#     Edge 18, Type (0, 0), BuildingBlock: MIFKUJ_clean_linker_0, # of connection points: 2
#     Edge 19, Type (0, 0), BuildingBlock: MIFKUJ_clean_linker_0, # of connection points: 2
#     Edge 20, Type (0, 0), BuildingBlock: MIFKUJ_clean_linker_0, # of connection points: 2
#     Edge 21, Type (0, 0), BuildingBlock: MIFKUJ_clean_linker_0, # of connection points: 2
#     Edge 22, Type (0, 0), BuildingBlock: MIFKUJ_clean_linker_0, # of connection points: 2
#     Edge 23, Type (0, 0), BuildingBlock: MIFKUJ_clean_linker_0, # of connection points: 2
#     Edge 24, Type (0, 0), BuildingBlock: MIFKUJ_clean_linker_0, # of connection points: 2
#     Edge 25, Type (0, 0), BuildingBlock: MIFKUJ_clean_linker_0, # of connection points: 2
#     Edge 26, Type (0, 0), BuildingBlock: MIFKUJ_clean_linker_0, # of connection points: 2
#     Edge 27, Type (0, 0), BuildingBlock: MIFKUJ_clean_linker_0, # of connection points: 2
#     Edge 28, Type (0, 0), BuildingBlock: MIFKUJ_clean_linker_0, # of connection points: 2
#     Edge 29, Type (0, 0), BuildingBlock: MIFKUJ_clean_linker_0, # of connection points: 2
#     Edge 30, Type (0, 0), BuildingBlock: MIFKUJ_clean_linker_0, # of connection points: 2
#     Edge 31, Type (0, 0), BuildingBlock: MIFKUJ_clean_linker_0, # of connection points: 2
#     Edge 32, Type (0, 0), BuildingBlock: MIFKUJ_clean_linker_0, # of connection points: 2
#     Edge 33, Type (0, 0), BuildingBlock: MIFKUJ_clean_linker_0, # of connection points: 2
#     Edge 34, Type (0, 0), BuildingBlock: MIFKUJ_clean_linker_0, # of connection points: 2
#     Edge 35, Type (0, 0), BuildingBlock: MIFKUJ_clean_linker_0, # of connection points: 2
# Relax obj value: 0.023
# Max RMSD: 0.078
# Mean RMSD: 0.078
data_MOF--net-wjh--node1-QUQFOY_clean_sbu_1--edge1-MIFKUJ_clean_linker_0
_symmetry_space_group_name_H-M    P1
_symmetry_Int_Tables_number       1
_symmetry_cell_setting            triclinic
loop_
_symmetry_equiv_pos_as_xyz
'x, y, z'
_cell_length_a     81.095024
_cell_length_b     81.101814
_cell_length_c     36.726717
_cell_angle_alpha  89.958825
_cell_angle_beta   89.993867
_cell_angle_gamma 120.01873
loop_
_atom_site_label
_atom_site_type_symbol
_atom_site_fract_x
_atom_site_fract_y
_atom_site_fract_z
_atom_type_partial_charge
O0 O 0.51393 0.10996 0.04905 0.0
Cd1 Cd 0.53469 0.13836 0.0506 0.0
Cd2 Cd 0.50591 0.14085 0.07994 0.0
O3 O 0.48924 0.11386 0.05837 0.0
O4 O 0.55497 0.14127 0.01584 0.0
O5 O 0.53678 0.15405 0.00636 0.0
C6 C 0.54992 0.15074 0.99486 0.0
C7 C 0.49942 0.16568 0.07547 0.0
C8 C 0.49599 0.10311 0.05062 0.0
C9 C 0.538 0.14757 0.12934 0.0
O10 O 0.52053 0.14274 0.12692 0.0
O11 O 0.54745 0.14882 0.10078 0.0
O12 O 0.48864 0.1506 0.09423 0.0
O13 O 0.51308 0.16601 0.05673 0.0
O14 O 0.40585 0.5127 0.21036 0.0
Cd15 Cd 0.40008 0.53475 0.20701 0.0
Cd16 Cd 0.36739 0.50757 0.24285 0.0
O17 O 0.37763 0.48967 0.2283 0.0
O18 O 0.41833 0.55285 0.17017 0.0
O19 O 0.38718 0.53689 0.16159 0.0
C20 C 0.40399 0.54864 0.14927 0.0
C21 C 0.33474 0.49709 0.24431 0.0
C22 C 0.39461 0.49526 0.21804 0.0
C23 C 0.39542 0.5434 0.28365 0.0
O24 O 0.38133 0.52655 0.28433 0.0
O25 O 0.40445 0.55044 0.25414 0.0
O26 O 0.3424 0.49066 0.26668 0.0
O27 O 0.34543 0.50859 0.21909 0.0
O28 O 0.89151 0.40262 0.38991 0.0
Cd29 Cd 0.86353 0.39642 0.39255 0.0
Cd30 Cd 0.86013 0.36436 0.41935 0.0
O31 O 0.88658 0.37351 0.39642 0.0
O32 O 0.8626 0.41539 0.35909 0.0
O33 O 0.8471 0.38445 0.34819 0.0
C34 C 0.85215 0.40151 0.33744 0.0
C35 C 0.83437 0.3335 0.41563 0.0
C36 C 0.89779 0.39106 0.38976 0.0
C37 C 0.85547 0.39019 0.47136 0.0
O38 O 0.85987 0.37731 0.46724 0.0
O39 O 0.85379 0.39869 0.44365 0.0
O40 O 0.84958 0.33717 0.43323 0.0
O41 O 0.83433 0.34717 0.39758 0.0
O42 O 0.4908 0.89229 0.5544 0.0
Cd43 Cd 0.4687 0.86441 0.55758 0.0
Cd44 Cd 0.49681 0.86032 0.58942 0.0
O45 O 0.51438 0.88788 0.57185 0.0
O46 O 0.44906 0.86269 0.52235 0.0
O47 O 0.4653 0.84774 0.51419 0.0
C48 C 0.45308 0.85221 0.50202 0.0
C49 C 0.50392 0.83591 0.58393 0.0
C50 C 0.50845 0.89875 0.56014 0.0
C51 C 0.46401 0.85413 0.6368 0.0
O52 O 0.48096 0.85722 0.63498 0.0
O53 O 0.45551 0.85477 0.60811 0.0
O54 O 0.51367 0.8503 0.60497 0.0
O55 O 0.49092 0.83605 0.56378 0.0
O56 O 0.59921 0.49099 0.70897 0.0
Cd57 Cd 0.60366 0.46802 0.70932 0.0
Cd58 Cd 0.63678 0.49608 0.74494 0.0
O59 O 0.62711 0.51408 0.728 0.0
O60 O 0.58408 0.44984 0.6744 0.0
O61 O 0.61497 0.46304 0.66436 0.0
C62 C 0.59772 0.45225 0.65304 0.0
C63 C 0.66927 0.50589 0.74761 0.0
C64 C 0.61042 0.5085 0.71601 0.0
C65 C 0.60794 0.46113 0.78749 0.0
O66 O 0.62224 0.47787 0.78703 0.0
O67 O 0.59887 0.45349 0.7583 0.0
O68 O 0.66176 0.51297 0.76883 0.0
O69 O 0.65855 0.4941 0.72282 0.0
O70 O 0.10899 0.60168 0.86587 0.0
Cd71 Cd 0.13513 0.60298 0.86458 0.0
Cd72 Cd 0.1437 0.63733 0.90711 0.0
O73 O 0.11538 0.62795 0.8957 0.0
O74 O 0.13148 0.58364 0.82679 0.0
O75 O 0.15228 0.61426 0.82055 0.0
C76 C 0.14412 0.59726 0.80708 0.0
C77 C 0.16506 0.6698 0.91731 0.0
C78 C 0.10366 0.61274 0.8792 0.0
C79 C 0.14889 0.6054 0.94113 0.0
O80 O 0.14934 0.62125 0.94256 0.0
O81 O 0.14385 0.59552 0.9121 0.0
O82 O 0.15136 0.65977 0.93946 0.0
O83 O 0.16597 0.66178 0.88762 0.0
O84 O 0.89457 0.49454 0.90847 0.0
Cd85 Cd 0.8677 0.47063 0.90709 0.0
Cd86 Cd 0.86153 0.49752 0.86689 0.0
O87 O 0.88934 0.51606 0.8822 0.0
O88 O 0.86954 0.45308 0.9431 0.0
O89 O 0.85054 0.46494 0.95104 0.0
C90 C 0.8575 0.45477 0.96338 0.0
C91 C 0.83896 0.5074 0.86182 0.0
C92 C 0.90052 0.51154 0.89786 0.0
C93 C 0.85633 0.46189 0.82849 0.0
O94 O 0.8575 0.47808 0.82726 0.0
O95 O 0.85901 0.45555 0.85831 0.0
O96 O 0.85346 0.51379 0.84044 0.0
O97 O 0.8379 0.49627 0.88804 0.0
O98 O 0.40438 0.89288 0.07059 0.0
Cd99 Cd 0.39819 0.86487 0.07238 0.0
Cd100 Cd 0.36544 0.86071 0.03789 0.0
O101 O 0.37629 0.88864 0.05428 0.0
O102 O 0.41641 0.86428 0.10839 0.0
O103 O 0.38531 0.84956 0.11759 0.0
C104 C 0.4021 0.85422 0.12945 0.0
C105 C 0.33262 0.83941 0.03326 0.0
C106 C 0.39344 0.89958 0.0642 0.0
C107 C 0.39312 0.853 0.995 0.0
O108 O 0.37937 0.85627 0.99569 0.0
O109 O 0.40209 0.85399 0.02408 0.0
O110 O 0.34118 0.85411 0.01251 0.0
O111 O 0.34243 0.83752 0.05896 0.0
O112 O 0.51049 0.40155 0.22549 0.0
Cd113 Cd 0.53218 0.39526 0.22341 0.0
Cd114 Cd 0.50352 0.36359 0.19273 0.0
O115 O 0.48613 0.37301 0.21435 0.0
O116 O 0.55168 0.41416 0.25747 0.0
O117 O 0.53641 0.38317 0.26792 0.0
C118 C 0.54825 0.40022 0.27897 0.0
C119 C 0.49744 0.33235 0.19543 0.0
C120 C 0.49262 0.39033 0.22324 0.0
C121 C 0.53592 0.39015 0.14448 0.0
O122 O 0.51857 0.37715 0.1466 0.0
O123 O 0.54518 0.39837 0.1732 0.0
O124 O 0.4868 0.33678 0.17659 0.0
O125 O 0.51068 0.34544 0.21527 0.0
O126 O 0.10784 0.50849 0.38134 0.0
Cd127 Cd 0.13581 0.53043 0.37894 0.0
Cd128 Cd 0.13838 0.50099 0.34847 0.0
O129 O 0.11171 0.4839 0.37055 0.0
O130 O 0.13594 0.54979 0.41289 0.0
O131 O 0.15247 0.53538 0.42332 0.0
C132 C 0.14683 0.54689 0.43432 0.0
C133 C 0.16211 0.49266 0.34756 0.0
C134 C 0.10104 0.49058 0.37935 0.0
C135 C 0.14402 0.53355 0.29996 0.0
O136 O 0.13956 0.5162 0.30282 0.0
O137 O 0.14561 0.54325 0.32834 0.0
O138 O 0.14676 0.48351 0.32865 0.0
O139 O 0.16341 0.50577 0.36935 0.0
O140 O 0.59797 0.1086 0.57003 0.0
Cd141 Cd 0.60297 0.13623 0.56689 0.0
Cd142 Cd 0.63531 0.1412 0.53433 0.0
O143 O 0.62624 0.11389 0.55229 0.0
O144 O 0.58511 0.13757 0.60276 0.0
O145 O 0.6164 0.15342 0.60956 0.0
C146 C 0.59973 0.14861 0.62234 0.0
C147 C 0.66671 0.16609 0.53738 0.0
C148 C 0.60955 0.10263 0.56409 0.0
C149 C 0.60765 0.14611 0.48771 0.0
O150 O 0.62177 0.14344 0.48924 0.0
O151 O 0.59863 0.14541 0.5166 0.0
O152 O 0.66198 0.15141 0.51716 0.0
O153 O 0.65382 0.16602 0.55819 0.0
O154 O 0.48895 0.59655 0.7192 0.0
Cd155 Cd 0.46803 0.60399 0.71924 0.0
Cd156 Cd 0.49667 0.63578 0.6935 0.0
O157 O 0.51342 0.62571 0.71564 0.0
O158 O 0.44797 0.58642 0.75419 0.0
O159 O 0.46626 0.61734 0.76399 0.0
C160 C 0.45322 0.60084 0.77552 0.0
C161 C 0.50206 0.66667 0.69889 0.0
C162 C 0.50684 0.60794 0.72013 0.0
C163 C 0.4657 0.61137 0.64145 0.0
O164 O 0.48323 0.6236 0.64526 0.0
O165 O 0.4556 0.60293 0.66926 0.0
O166 O 0.51368 0.66316 0.68113 0.0
O167 O 0.48817 0.65281 0.71627 0.0
H168 H 0.57282 0.15193 0.14735 0.0
H169 H 0.58594 0.1546 0.20855 0.0
H170 H 0.53639 0.15315 0.25498 0.0
H171 H 0.52322 0.15059 0.19413 0.0
H172 H 0.56939 0.17931 0.28937 0.0
H173 H 0.53867 0.11354 0.25329 0.0
H174 H 0.53232 0.08667 0.21307 0.0
H175 H 0.59052 0.10019 0.22323 0.0
H176 H 0.59728 0.12734 0.26312 0.0
H177 H 0.5765 0.14977 0.47088 0.0
H178 H 0.5659 0.15298 0.41003 0.0
H179 H 0.61453 0.15303 0.36232 0.0
H180 H 0.62513 0.14977 0.42246 0.0
H181 H 0.58203 0.12811 0.32863 0.0
H182 H 0.61264 0.19345 0.36624 0.0
H183 H 0.6189 0.22023 0.40665 0.0
H184 H 0.56105 0.2075 0.39423 0.0
H185 H 0.55436 0.18046 0.35411 0.0
C186 C 0.56481 0.1524 0.17055 0.0
C187 C 0.54689 0.15087 0.16585 0.0
C188 C 0.5723 0.15387 0.2055 0.0
C189 C 0.56202 0.15386 0.23631 0.0
C190 C 0.54454 0.15316 0.2316 0.0
C191 C 0.537 0.1516 0.19675 0.0
C192 C 0.56895 0.15352 0.27353 0.0
C193 C 0.572 0.16803 0.29812 0.0
C194 C 0.57257 0.13894 0.28474 0.0
C195 C 0.56853 0.1226 0.26086 0.0
C196 C 0.55015 0.11088 0.2467 0.0
C197 C 0.54647 0.09559 0.224 0.0
C198 C 0.56102 0.09176 0.21551 0.0
C199 C 0.57927 0.1032 0.22978 0.0
C200 C 0.58304 0.11853 0.25245 0.0
C201 C 0.58501 0.15064 0.44744 0.0
C202 C 0.6016 0.14939 0.45159 0.0
C203 C 0.57897 0.15252 0.41271 0.0
C204 C 0.58945 0.15325 0.38165 0.0
C205 C 0.60618 0.15241 0.38587 0.0
C206 C 0.61222 0.15056 0.42039 0.0
C207 C 0.58265 0.15399 0.3445 0.0
C208 C 0.57953 0.13947 0.31992 0.0
C209 C 0.57897 0.16855 0.3334 0.0
C210 C 0.58294 0.1848 0.35749 0.0
C211 C 0.6012 0.19625 0.37238 0.0
C212 C 0.60484 0.2115 0.39518 0.0
C213 C 0.59036 0.21553 0.40309 0.0
C214 C 0.57223 0.20434 0.38813 0.0
C215 C 0.56852 0.18906 0.36533 0.0
H216 H 0.59321 0.22734 0.42074 0.0
H217 H 0.55814 0.0799 0.19795 0.0
H218 H 0.37603 0.53502 0.34786 0.0
H219 H 0.38774 0.55016 0.40679 0.0
H220 H 0.44101 0.59109 0.35749 0.0
H221 H 0.4294 0.57586 0.29807 0.0
H222 H 0.44609 0.57419 0.41703 0.0
H223 H 0.41067 0.60503 0.38859 0.0
H224 H 0.38269 0.60713 0.36907 0.0
H225 H 0.3507 0.57259 0.45997 0.0
H226 H 0.37841 0.57004 0.47977 0.0
H227 H 0.48355 0.62753 0.57742 0.0
H228 H 0.47097 0.61874 0.51588 0.0
H229 H 0.41684 0.57584 0.55903 0.0
H230 H 0.42929 0.58467 0.62115 0.0
H231 H 0.41287 0.59568 0.50151 0.0
H232 H 0.447 0.56287 0.52734 0.0
H233 H 0.47449 0.55993 0.54697 0.0
H234 H 0.50833 0.59735 0.46067 0.0
H235 H 0.4811 0.60073 0.44084 0.0
C236 C 0.39016 0.5474 0.34934 0.0
C237 C 0.40183 0.55418 0.31824 0.0
C238 C 0.39679 0.55611 0.3831 0.0
C239 C 0.41521 0.57182 0.38653 0.0
C240 C 0.42672 0.579 0.35539 0.0
C241 C 0.42005 0.57034 0.32145 0.0
C242 C 0.42284 0.57965 0.42314 0.0
C243 C 0.43905 0.57927 0.43522 0.0
C244 C 0.41328 0.58569 0.44726 0.0
C245 C 0.39659 0.58722 0.43549 0.0
C246 C 0.39762 0.59775 0.40426 0.0
C247 C 0.38182 0.59904 0.39318 0.0
C248 C 0.36492 0.58996 0.41322 0.0
C249 C 0.3638 0.5796 0.44445 0.0
C250 C 0.37956 0.57825 0.45564 0.0
C251 C 0.46892 0.61628 0.57399 0.0
C252 C 0.45747 0.60667 0.60429 0.0
C253 C 0.46177 0.61127 0.53871 0.0
C254 C 0.44307 0.59648 0.53287 0.0
C255 C 0.43134 0.58728 0.56298 0.0
C256 C 0.4385 0.59229 0.59843 0.0
C257 C 0.43608 0.5902 0.49526 0.0
C258 C 0.41998 0.59079 0.48311 0.0
C259 C 0.44567 0.58425 0.47104 0.0
C260 C 0.46207 0.58222 0.48286 0.0
C261 C 0.46035 0.5706 0.51274 0.0
C262 C 0.47588 0.56883 0.52387 0.0
C263 C 0.49317 0.57849 0.50515 0.0
C264 C 0.49494 0.5899 0.47519 0.0
C265 C 0.47946 0.59174 0.46398 0.0
H266 H 0.50517 0.5771 0.51379 0.0
H267 H 0.3527 0.59099 0.40459 0.0
H268 H 0.85997 0.43047 0.81479 0.0
H269 H 0.85687 0.41505 0.75571 0.0
H270 H 0.84165 0.45368 0.70547 0.0
H271 H 0.84443 0.46889 0.764 0.0
H272 H 0.8204 0.41851 0.67846 0.0
H273 H 0.88694 0.46201 0.70126 0.0
H274 H 0.91695 0.47537 0.73594 0.0
H275 H 0.91547 0.42178 0.72957 0.0
H276 H 0.88529 0.40802 0.69526 0.0
H277 H 0.84569 0.41676 0.4924 0.0
H278 H 0.843 0.426 0.55471 0.0
H279 H 0.85687 0.3848 0.59708 0.0
H280 H 0.85966 0.37556 0.53531 0.0
H281 H 0.87769 0.41907 0.62945 0.0
H282 H 0.81191 0.37644 0.60191 0.0
H283 H 0.78234 0.36395 0.56609 0.0
H284 H 0.78274 0.41671 0.58007 0.0
H285 H 0.81248 0.42962 0.61556 0.0
C286 C 0.85571 0.43549 0.79124 0.0
C287 C 0.85265 0.45104 0.79408 0.0
C288 C 0.85403 0.42673 0.75748 0.0
C289 C 0.84927 0.43339 0.72607 0.0
C290 C 0.84536 0.44831 0.72926 0.0
C291 C 0.84707 0.45707 0.76281 0.0
C292 C 0.84932 0.42565 0.68945 0.0
C293 C 0.83296 0.41873 0.66764 0.0
C294 C 0.86561 0.42569 0.6755 0.0
C295 C 0.88375 0.43392 0.6961 0.0
C296 C 0.89293 0.45303 0.70753 0.0
C297 C 0.90998 0.46068 0.72707 0.0
C298 C 0.91808 0.44941 0.73505 0.0
C299 C 0.90916 0.43048 0.72343 0.0
C300 C 0.89209 0.42275 0.70393 0.0
C301 C 0.84805 0.40959 0.51498 0.0
C302 C 0.85292 0.39545 0.50878 0.0
C303 C 0.84644 0.41483 0.55057 0.0
C304 C 0.84965 0.40601 0.58055 0.0
C305 C 0.85436 0.39181 0.57439 0.0
C306 C 0.8559 0.38653 0.53896 0.0
C307 C 0.84879 0.41199 0.61837 0.0
C308 C 0.86504 0.41865 0.64037 0.0
C309 C 0.83244 0.4118 0.63236 0.0
C310 C 0.81453 0.40406 0.61111 0.0
C311 C 0.80578 0.38544 0.5971 0.0
C312 C 0.78897 0.37827 0.5769 0.0
C313 C 0.78069 0.38954 0.57073 0.0
C314 C 0.78919 0.408 0.58483 0.0
C315 C 0.80601 0.41524 0.60502 0.0
H316 H 0.76768 0.38396 0.55509 0.0
H317 H 0.93129 0.45536 0.75017 0.0
H318 H 0.478 0.85025 0.70177 0.0
H319 H 0.46434 0.84693 0.7621 0.0
H320 H 0.41531 0.84638 0.71512 0.0
H321 H 0.42916 0.85012 0.6542 0.0
H322 H 0.42884 0.87044 0.77102 0.0
H323 H 0.41204 0.80521 0.75276 0.0
H324 H 0.41725 0.77852 0.73791 0.0
H325 H 0.45836 0.79528 0.82403 0.0
H326 H 0.4534 0.8221 0.83938 0.0
H327 H 0.37431 0.84605 0.93045 0.0
H328 H 0.38545 0.84354 0.87033 0.0
H329 H 0.43667 0.84913 0.91757 0.0
H330 H 0.42554 0.85159 0.97845 0.0
H331 H 0.42176 0.82201 0.86196 0.0
H332 H 0.43858 0.887 0.88044 0.0
H333 H 0.43277 0.91313 0.89693 0.0
H334 H 0.39202 0.89703 0.81032 0.0
H335 H 0.39736 0.8706 0.79366 0.0
C336 C 0.46422 0.84927 0.70406 0.0
C337 C 0.45471 0.85053 0.67303 0.0
C338 C 0.45635 0.84722 0.7387 0.0
C339 C 0.43869 0.84619 0.74321 0.0
C340 C 0.42895 0.8471 0.71228 0.0
C341 C 0.43685 0.84918 0.67747 0.0
C342 C 0.43107 0.84539 0.78039 0.0
C343 C 0.42696 0.85962 0.79065 0.0
C344 C 0.42924 0.83169 0.80649 0.0
C345 C 0.43245 0.81574 0.79702 0.0
C346 C 0.42229 0.80329 0.76836 0.0
C347 C 0.42515 0.78809 0.75994 0.0
C348 C 0.43815 0.78522 0.77998 0.0
C349 C 0.44829 0.79752 0.80854 0.0
C350 C 0.44541 0.81268 0.81718 0.0
C351 C 0.38789 0.8466 0.92828 0.0
C352 C 0.39914 0.84924 0.95932 0.0
C353 C 0.39424 0.84519 0.89379 0.0
C354 C 0.41203 0.8465 0.88942 0.0
C355 C 0.42293 0.84818 0.9204 0.0
C356 C 0.41656 0.84959 0.95513 0.0
C357 C 0.41942 0.84692 0.85229 0.0
C358 C 0.42357 0.83273 0.84217 0.0
C359 C 0.42135 0.86069 0.82631 0.0
C360 C 0.41824 0.8767 0.83601 0.0
C361 C 0.42827 0.88894 0.86507 0.0
C362 C 0.42508 0.90382 0.87443 0.0
C363 C 0.41201 0.90672 0.85474 0.0
C364 C 0.40213 0.89476 0.82558 0.0
C365 C 0.40524 0.87983 0.81614 0.0
H366 H 0.40956 0.91824 0.86204 0.0
H367 H 0.44035 0.77346 0.77341 0.0
H368 H 0.52119 0.37283 0.07938 0.0
H369 H 0.53489 0.38317 0.01891 0.0
H370 H 0.58471 0.43069 0.06606 0.0
H371 H 0.57098 0.4205 0.12702 0.0
H372 H 0.57045 0.44154 0.01013 0.0
H373 H 0.58705 0.39336 0.03058 0.0
H374 H 0.58129 0.3614 0.04682 0.0
H375 H 0.54217 0.33715 0.95761 0.0
H376 H 0.54748 0.36895 0.94113 0.0
H377 H 0.62619 0.47264 0.85267 0.0
H378 H 0.61467 0.4585 0.91233 0.0
H379 H 0.5638 0.41316 0.8635 0.0
H380 H 0.57531 0.42725 0.80304 0.0
H381 H 0.57863 0.40067 0.91982 0.0
H382 H 0.5612 0.4484 0.90056 0.0
H383 H 0.5666 0.48023 0.88425 0.0
H384 H 0.60684 0.50505 0.97164 0.0
H385 H 0.60188 0.47338 0.98813 0.0
C386 C 0.53514 0.38542 0.07704 0.0
C387 C 0.54497 0.39588 0.10811 0.0
C388 C 0.54299 0.39124 0.04238 0.0
C389 C 0.56088 0.4076 0.03797 0.0
C390 C 0.57089 0.41797 0.0689 0.0
C391 C 0.56305 0.41211 0.1037 0.0
C392 C 0.56858 0.41444 1.00091 0.0
C393 C 0.57255 0.43272 0.99062 0.0
C394 C 0.57072 0.40267 0.97507 0.0
C395 C 0.56753 0.38353 0.98483 0.0
C396 C 0.57709 0.3812 0.0146 0.0
C397 C 0.57393 0.36311 0.02381 0.0
C398 C 0.56133 0.34725 1.00332 0.0
C399 C 0.55191 0.34945 0.97349 0.0
C400 C 0.555 0.3675 0.96418 0.0
C401 C 0.6126 0.45956 0.85437 0.0
C402 C 0.60156 0.4512 0.82301 0.0
C403 C 0.60604 0.45152 0.8886 0.0
C404 C 0.58826 0.43497 0.89239 0.0
C405 C 0.57755 0.426 0.86111 0.0
C406 C 0.58412 0.43407 0.82663 0.0
C407 C 0.5806 0.42779 0.92929 0.0
C408 C 0.57658 0.40947 0.93946 0.0
C409 C 0.57834 0.43948 0.95509 0.0
C410 C 0.5813 0.45854 0.94535 0.0
C411 C 0.57132 0.46066 0.91611 0.0
C412 C 0.57428 0.47867 0.90686 0.0
C413 C 0.58709 0.49466 0.92684 0.0
C414 C 0.59694 0.49266 0.95616 0.0
C415 C 0.59404 0.47468 0.96549 0.0
H416 H 0.58936 0.50859 0.91964 0.0
H417 H 0.5589 0.33326 0.01049 0.0
H418 H 0.15964 0.5713 0.28079 0.0
H419 H 0.16382 0.58447 0.21914 0.0
H420 H 0.13831 0.52777 0.17433 0.0
H421 H 0.13472 0.51469 0.23527 0.0
H422 H 0.16699 0.55022 0.13412 0.0
H423 H 0.11347 0.55286 0.18424 0.0
H424 H 0.09662 0.56182 0.22894 0.0
H425 H 0.13651 0.62101 0.21028 0.0
H426 H 0.15374 0.61239 0.16578 0.0
H427 H 0.13856 0.5685 0.9594 0.0
H428 H 0.14103 0.55687 0.01976 0.0
H429 H 0.17079 0.61459 0.05985 0.0
H430 H 0.16823 0.62621 1.0002 0.0
H431 H 0.14127 0.59245 0.10243 0.0
H432 H 0.19351 0.58896 0.04856 0.0
H433 H 0.20914 0.57909 1.00286 0.0
H434 H 0.17009 0.52032 0.02724 0.0
H435 H 0.15405 0.52984 0.07276 0.0
C436 C 0.15497 0.56168 0.25776 0.0
C437 C 0.1468 0.54195 0.26302 0.0
C438 C 0.1573 0.5692 0.22253 0.0
C439 C 0.15117 0.55709 0.19199 0.0
C440 C 0.14322 0.53744 0.19731 0.0
C441 C 0.14111 0.52997 0.23232 0.0
C442 C 0.15263 0.56466 0.15446 0.0
C443 C 0.1612 0.55932 0.12714 0.0
C444 C 0.14537 0.57677 0.1453 0.0
C445 C 0.13501 0.58198 0.17199 0.0
C446 C 0.11872 0.56778 0.18987 0.0
C447 C 0.10909 0.5728 0.21514 0.0
C448 C 0.11552 0.59197 0.22252 0.0
C449 C 0.13157 0.60617 0.20458 0.0
C450 C 0.14126 0.60123 0.17932 0.0
C451 C 0.14598 0.57871 0.98089 0.0
C452 C 0.15304 0.59825 0.97508 0.0
C453 C 0.14738 0.57206 0.01538 0.0
C454 C 0.15602 0.58487 0.04441 0.0
C455 C 0.16392 0.60443 0.03801 0.0
C456 C 0.16247 0.61104 1.0038 0.0
C457 C 0.15561 0.57801 0.08212 0.0
C458 C 0.14716 0.58345 0.10945 0.0
C459 C 0.16282 0.56585 0.09113 0.0
C460 C 0.17247 0.56012 0.06382 0.0
C461 C 0.18815 0.57393 0.04397 0.0
C462 C 0.19711 0.5684 0.01814 0.0
C463 C 0.19058 0.54909 0.01209 0.0
C464 C 0.17511 0.53527 0.03192 0.0
C465 C 0.1661 0.54073 0.05777 0.0
H466 H 0.19753 0.54484 0.99208 0.0
H467 H 0.10805 0.59582 0.24209 0.0
H468 H 0.46651 0.29925 0.17295 0.0
H469 H 0.46594 0.27004 0.15353 0.0
H470 H 0.52497 0.29446 0.1836 0.0
H471 H 0.5255 0.3235 0.20416 0.0
H472 H 0.51155 0.27963 0.10431 0.0
H473 H 0.50106 0.26293 0.23264 0.0
H474 H 0.4841 0.25776 0.29098 0.0
H475 H 0.43214 0.21546 0.24102 0.0
H476 H 0.44875 0.2206 0.18221 0.0
H477 H 0.52763 0.20269 0.07069 0.0
H478 H 0.52621 0.23066 0.09044 0.0
H479 H 0.46577 0.19553 0.10952 0.0
H480 H 0.46749 0.16733 0.09202 0.0
H481 H 0.47921 0.21624 0.16389 0.0
H482 H 0.48734 0.23081 0.03724 0.0
H483 H 0.50166 0.236 0.97608 0.0
H484 H 0.55421 0.2819 0.0172 0.0
H485 H 0.5403 0.27681 0.07874 0.0
C486 C 0.47922 0.2982 0.17628 0.0
C487 C 0.49603 0.31362 0.1902 0.0
C488 C 0.47889 0.28156 0.16506 0.0
C489 C 0.49544 0.28021 0.16696 0.0
C490 C 0.51206 0.29529 0.18195 0.0
C491 C 0.51229 0.31178 0.19395 0.0
C492 C 0.49569 0.26357 0.15107 0.0
C493 C 0.50473 0.26578 0.11742 0.0
C494 C 0.48607 0.24544 0.16759 0.0
C495 C 0.4761 0.24231 0.20294 0.0
C496 C 0.48598 0.25268 0.234 0.0
C497 C 0.47644 0.24972 0.26717 0.0
C498 C 0.45704 0.23634 0.26968 0.0
C499 C 0.44715 0.22585 0.23903 0.0
C500 C 0.45663 0.22877 0.20578 0.0
C501 C 0.51396 0.20102 0.07825 0.0
C502 C 0.49766 0.18286 0.07968 0.0
C503 C 0.51313 0.21706 0.08951 0.0
C504 C 0.49584 0.21537 0.10129 0.0
C505 C 0.47933 0.19729 0.10084 0.0
C506 C 0.48027 0.18118 0.09052 0.0
C507 C 0.49522 0.2321 0.1167 0.0
C508 C 0.48605 0.22998 0.15036 0.0
C509 C 0.50436 0.25024 0.09967 0.0
C510 C 0.51282 0.25329 0.06271 0.0
C511 C 0.502 0.2419 0.03332 0.0
C512 C 0.51004 0.24485 0.99857 0.0
C513 C 0.52885 0.25924 0.99278 0.0
C514 C 0.53965 0.27074 0.02173 0.0
C515 C 0.53169 0.26784 0.05655 0.0
H516 H 0.53504 0.2615 0.96585 0.0
H517 H 0.44968 0.23406 0.29539 0.0
H518 H 0.31066 0.4762 0.29912 0.0
H519 H 0.28004 0.47309 0.31447 0.0
H520 H 0.28311 0.50539 0.21874 0.0
H521 H 0.31424 0.5091 0.20376 0.0
H522 H 0.27339 0.51848 0.274 0.0
H523 H 0.25106 0.45636 0.22615 0.0
H524 H 0.2493 0.42531 0.21855 0.0
H525 H 0.23308 0.4118 0.33067 0.0
H526 H 0.235 0.44289 0.33908 0.0
H527 H 0.16394 0.46801 0.29953 0.0
H528 H 0.19207 0.46664 0.28103 0.0
H529 H 0.22546 0.50882 0.36195 0.0
H530 H 0.19736 0.5107 0.37995 0.0
H531 H 0.21595 0.45792 0.30945 0.0
H532 H 0.26979 0.53825 0.32911 0.0
H533 H 0.27015 0.56886 0.32938 0.0
H534 H 0.2209 0.54508 0.26012 0.0
H535 H 0.22042 0.51443 0.25904 0.0
C536 C 0.30473 0.4824 0.28093 0.0
C537 C 0.31492 0.4929 0.25016 0.0
C538 C 0.28713 0.48055 0.28972 0.0
C539 C 0.27913 0.48887 0.26766 0.0
C540 C 0.28899 0.49886 0.23624 0.0
C541 C 0.30673 0.50086 0.22756 0.0
C542 C 0.26107 0.48807 0.2787 0.0
C543 C 0.26083 0.50521 0.28162 0.0
C544 C 0.24453 0.47077 0.28824 0.0
C545 C 0.24333 0.45203 0.28331 0.0
C546 C 0.24726 0.44683 0.24926 0.0
C547 C 0.2462 0.42921 0.24479 0.0
C548 C 0.24112 0.41661 0.27413 0.0
C549 C 0.23703 0.42158 0.30798 0.0
C550 C 0.23807 0.43919 0.3126 0.0
C551 C 0.17719 0.47684 0.31379 0.0
C552 C 0.17843 0.48961 0.34102 0.0
C553 C 0.1933 0.47601 0.30316 0.0
C554 C 0.211 0.48788 0.31956 0.0
C555 C 0.21204 0.49981 0.34832 0.0
C556 C 0.19593 0.50076 0.35881 0.0
C557 C 0.22841 0.48835 0.30528 0.0
C558 C 0.22853 0.47117 0.30181 0.0
C559 C 0.24465 0.50556 0.29423 0.0
C560 C 0.24496 0.524 0.29434 0.0
C561 C 0.25908 0.53959 0.31384 0.0
C562 C 0.2593 0.55694 0.31415 0.0
C563 C 0.24552 0.55889 0.29488 0.0
C564 C 0.23153 0.54353 0.27514 0.0
C565 C 0.23127 0.52616 0.2747 0.0
H566 H 0.2457 0.57233 0.29519 0.0
H567 H 0.24031 0.40298 0.27062 0.0
H568 H 0.67604 0.20304 0.54766 0.0
H569 H 0.70525 0.2315 0.52737 0.0
H570 H 0.72899 0.19653 0.49561 0.0
H571 H 0.69961 0.16796 0.51473 0.0
H572 H 0.7544 0.2353 0.5367 0.0
H573 H 0.71267 0.20484 0.43173 0.0
H574 H 0.68154 0.19131 0.40098 0.0
H575 H 0.68264 0.24453 0.41259 0.0
H576 H 0.71365 0.25827 0.444 0.0
H577 H 0.83161 0.29929 0.43066 0.0
H578 H 0.80318 0.27009 0.45022 0.0
H579 H 0.76942 0.29715 0.43484 0.0
H580 H 0.79765 0.32596 0.41316 0.0
H581 H 0.7484 0.26232 0.4194 0.0
H582 H 0.78831 0.29414 0.52089 0.0
H583 H 0.81787 0.3095 0.55709 0.0
H584 H 0.81892 0.2571 0.55925 0.0
H585 H 0.78948 0.24148 0.52262 0.0
C586 C 0.68767 0.20147 0.53723 0.0
C587 C 0.68558 0.1833 0.53276 0.0
C588 C 0.70428 0.2177 0.52547 0.0
C589 C 0.71915 0.21602 0.50982 0.0
C590 C 0.71763 0.19806 0.50763 0.0
C591 C 0.70087 0.18179 0.51859 0.0
C592 C 0.73562 0.23275 0.49308 0.0
C593 C 0.75324 0.24112 0.51086 0.0
C594 C 0.7338 0.24066 0.46005 0.0
C595 C 0.71536 0.23251 0.44057 0.0
C596 C 0.70619 0.2136 0.42802 0.0
C597 C 0.68858 0.2059 0.41042 0.0
C598 C 0.68008 0.21703 0.40493 0.0
C599 C 0.68922 0.23591 0.41691 0.0
C600 C 0.70681 0.24367 0.43459 0.0
C601 C 0.81802 0.29882 0.43062 0.0
C602 C 0.81684 0.3149 0.42053 0.0
C603 C 0.8018 0.2822 0.44223 0.0
C604 C 0.78421 0.28157 0.44528 0.0
C605 C 0.78281 0.29726 0.43305 0.0
C606 C 0.79896 0.31373 0.42053 0.0
C607 C 0.76756 0.26497 0.46273 0.0
C608 C 0.74978 0.2566 0.4452 0.0
C609 C 0.76913 0.25739 0.49659 0.0
C610 C 0.7868 0.2667 0.5187 0.0
C611 C 0.79492 0.28593 0.52888 0.0
C612 C 0.81164 0.29468 0.5495 0.0
C613 C 0.82029 0.2843 0.56038 0.0
C614 C 0.81221 0.26513 0.55075 0.0
C615 C 0.7955 0.25632 0.53008 0.0
H616 H 0.83324 0.29109 0.57635 0.0
H617 H 0.66645 0.21104 0.39133 0.0
H618 H 0.47781 0.79926 0.56601 0.0
H619 H 0.4786 0.77049 0.58351 0.0
H620 H 0.53517 0.80512 0.62679 0.0
H621 H 0.53437 0.83395 0.61007 0.0
H622 H 0.52667 0.7692 0.58523 0.0
H623 H 0.50373 0.79295 0.68486 0.0
H624 H 0.48201 0.80394 0.70636 0.0
H625 H 0.43375 0.75018 0.67688 0.0
H626 H 0.4552 0.73897 0.65471 0.0
H627 H 0.53388 0.70162 0.69191 0.0
H628 H 0.53525 0.73123 0.67318 0.0
H629 H 0.47378 0.70248 0.67257 0.0
H630 H 0.47251 0.67337 0.69411 0.0
H631 H 0.48454 0.73574 0.69035 0.0
H632 H 0.50343 0.71022 0.59241 0.0
H633 H 0.52188 0.69784 0.56095 0.0
H634 H 0.57325 0.75139 0.57644 0.0
H635 H 0.55514 0.764 0.60842 0.0
C636 C 0.49062 0.80075 0.57833 0.0
C637 C 0.506 0.81885 0.58684 0.0
C638 C 0.49101 0.78431 0.58843 0.0
C639 C 0.50689 0.78574 0.60667 0.0
C640 C 0.52281 0.80376 0.61271 0.0
C641 C 0.52231 0.8202 0.60319 0.0
C642 C 0.50613 0.76865 0.62289 0.0
C643 C 0.51765 0.76194 0.60845 0.0
C644 C 0.49387 0.75891 0.65237 0.0
C645 C 0.48105 0.7652 0.66787 0.0
C646 C 0.48849 0.78349 0.68294 0.0
C647 C 0.47623 0.78976 0.6952 0.0
C648 C 0.45653 0.7778 0.69276 0.0
C649 C 0.44902 0.75944 0.67862 0.0
C650 C 0.46122 0.75311 0.66626 0.0
C651 C 0.52071 0.70183 0.6887 0.0
C652 C 0.5031 0.68525 0.69446 0.0
C653 C 0.52146 0.71868 0.67746 0.0
C654 C 0.50461 0.71902 0.67005 0.0
C655 C 0.48702 0.70268 0.67778 0.0
C656 C 0.48629 0.68602 0.69023 0.0
C657 C 0.50524 0.73604 0.65292 0.0
C658 C 0.49365 0.74284 0.66717 0.0
C659 C 0.51702 0.74549 0.62242 0.0
C660 C 0.52796 0.73798 0.60313 0.0
C661 C 0.51868 0.71931 0.58931 0.0
C662 C 0.52908 0.71226 0.57137 0.0
C663 C 0.54873 0.72381 0.56679 0.0
C664 C 0.55803 0.74245 0.58006 0.0
C665 C 0.54771 0.74956 0.59808 0.0
H666 H 0.55676 0.71832 0.55289 0.0
H667 H 0.44708 0.78278 0.70172 0.0
H668 H 0.69362 0.52795 0.8011 0.0
H669 H 0.72387 0.53066 0.81822 0.0
H670 H 0.71984 0.49522 0.72721 0.0
H671 H 0.68911 0.49199 0.71043 0.0
H672 H 0.72882 0.48322 0.78557 0.0
H673 H 0.7528 0.54398 0.7295 0.0
H674 H 0.75552 0.57516 0.71742 0.0
H675 H 0.77227 0.59186 0.82832 0.0
H676 H 0.7694 0.56067 0.8412 0.0
H677 H 0.83786 0.53033 0.8087 0.0
H678 H 0.81033 0.53241 0.78841 0.0
H679 H 0.77675 0.495 0.87566 0.0
H680 H 0.80423 0.49252 0.89578 0.0
H681 H 0.78758 0.54387 0.81489 0.0
H682 H 0.73194 0.46505 0.84433 0.0
H683 H 0.73046 0.43401 0.84981 0.0
H684 H 0.7792 0.45377 0.77988 0.0
H685 H 0.7808 0.48481 0.77359 0.0
C686 C 0.69927 0.52096 0.7843 0.0
C687 C 0.68891 0.50974 0.75435 0.0
C688 C 0.71666 0.52258 0.79411 0.0
C689 C 0.72426 0.51326 0.77391 0.0
C690 C 0.71426 0.50253 0.74327 0.0
C691 C 0.69675 0.50079 0.73355 0.0
C692 C 0.74204 0.51381 0.78616 0.0
C693 C 0.74167 0.4965 0.79187 0.0
C694 C 0.75894 0.53112 0.79403 0.0
C695 C 0.76073 0.54992 0.78638 0.0
C696 C 0.75693 0.55425 0.75138 0.0
C697 C 0.75852 0.57194 0.74438 0.0
C698 C 0.76403 0.58547 0.7721 0.0
C699 C 0.76799 0.58136 0.80687 0.0
C700 C 0.76641 0.56369 0.81403 0.0
C701 C 0.8247 0.52274 0.82396 0.0
C702 C 0.82321 0.51111 0.8537 0.0
C703 C 0.80896 0.52398 0.81231 0.0
C704 C 0.79136 0.5136 0.83007 0.0
C705 C 0.7901 0.50286 0.8611 0.0
C706 C 0.80586 0.50157 0.87275 0.0
C707 C 0.77421 0.51329 0.81484 0.0
C708 C 0.7747 0.53061 0.80861 0.0
C709 C 0.75758 0.49602 0.8056 0.0
C710 C 0.7566 0.47731 0.80884 0.0
C711 C 0.74229 0.46274 0.83004 0.0
C712 C 0.74144 0.44515 0.83329 0.0
C713 C 0.75477 0.44194 0.81531 0.0
C714 C 0.76893 0.45629 0.79391 0.0
C715 C 0.76982 0.47389 0.79052 0.0
H716 H 0.75409 0.42832 0.8179 0.0
H717 H 0.76525 0.59915 0.76662 0.0
H718 H 0.19033 0.69894 0.87318 0.0
H719 H 0.21687 0.72981 0.89245 0.0
H720 H 0.20137 0.71413 1.00493 0.0
H721 H 0.17426 0.68408 0.98569 0.0
H722 H 0.21271 0.74866 1.00117 0.0
H723 H 0.23918 0.71123 0.95696 0.0
H724 H 0.24521 0.69191 0.91289 0.0
H725 H 0.26993 0.73905 0.83837 0.0
H726 H 0.26384 0.75858 0.88185 0.0
H727 H 0.30874 0.80789 0.07405 0.0
H728 H 0.27812 0.78077 0.05474 0.0
H729 H 0.28216 0.80893 0.95284 0.0
H730 H 0.31232 0.83616 0.97207 0.0
H731 H 0.2769 0.76946 0.95063 0.0
H732 H 0.2512 0.80693 1.00252 0.0
H733 H 0.24657 0.82474 0.05204 0.0
H734 H 0.22205 0.77471 0.11935 0.0
H735 H 0.22679 0.75667 0.07038 0.0
C736 C 0.19249 0.70226 0.90195 0.0
C737 C 0.18024 0.6891 0.92789 0.0
C738 C 0.20777 0.71983 0.91303 0.0
C739 C 0.21151 0.72423 0.9503 0.0
C740 C 0.19891 0.71123 0.97605 0.0
C741 C 0.18337 0.69397 0.96498 0.0
C742 C 0.22874 0.74203 0.96281 0.0
C743 C 0.22673 0.75302 0.99024 0.0
C744 C 0.24717 0.74799 0.94867 0.0
C745 C 0.25085 0.73629 0.92248 0.0
C746 C 0.24578 0.71743 0.93107 0.0
C747 C 0.24923 0.70645 0.90622 0.0
C748 C 0.25789 0.71423 0.87281 0.0
C749 C 0.26319 0.73303 0.86423 0.0
C750 C 0.25975 0.74407 0.88897 0.0
C751 C 0.3029 0.80846 0.04787 0.0
C752 C 0.31297 0.82419 0.02463 0.0
C753 C 0.28545 0.79297 0.03687 0.0
C754 C 0.27799 0.79288 1.00231 0.0
C755 C 0.28772 0.80876 0.97957 0.0
C756 C 0.30492 0.82434 0.99075 0.0
C757 C 0.2607 0.77577 0.98878 0.0
C758 C 0.26278 0.76498 0.96127 0.0
C759 C 0.24249 0.7697 1.0036 0.0
C760 C 0.23954 0.78051 0.03293 0.0
C761 C 0.24499 0.79978 0.028 0.0
C762 C 0.24231 0.8099 0.05595 0.0
C763 C 0.23407 0.80088 0.08886 0.0
C764 C 0.22845 0.78169 0.09386 0.0
C765 C 0.23112 0.77151 0.06601 0.0
H766 H 0.23201 0.80874 0.11046 0.0
H767 H 0.26055 0.70571 0.85361 0.0
H768 H 0.56771 0.14654 0.65133 0.0
H769 H 0.56226 0.15197 0.71461 0.0
H770 H 0.62015 0.16797 0.7412 0.0
H771 H 0.62581 0.1628 0.67772 0.0
H772 H 0.59223 0.13917 0.78641 0.0
H773 H 0.60854 0.20128 0.74155 0.0
H774 H 0.60594 0.22379 0.70007 0.0
H775 H 0.5474 0.20098 0.73068 0.0
H776 H 0.54957 0.17814 0.77198 0.0
H777 H 0.58439 0.15702 0.97058 0.0
H778 H 0.59581 0.16176 0.90774 0.0
H779 H 0.54413 0.15965 0.87165 0.0
H780 H 0.53323 0.15607 0.93482 0.0
H781 H 0.57088 0.18321 0.83081 0.0
H782 H 0.55189 0.11969 0.86903 0.0
H783 H 0.55153 0.09471 0.90793 0.0
H784 H 0.61101 0.11672 0.88685 0.0
H785 H 0.61179 0.14199 0.84817 0.0
C786 C 0.5794 0.15153 0.67048 0.0
C787 C 0.5972 0.15423 0.65948 0.0
C788 C 0.57626 0.15467 0.70665 0.0
C789 C 0.59081 0.16041 0.73263 0.0
C790 C 0.60874 0.16358 0.72156 0.0
C791 C 0.61198 0.1607 0.68525 0.0
C792 C 0.58682 0.16171 0.77173 0.0
C793 C 0.58792 0.14906 0.79631 0.0
C794 C 0.58048 0.17409 0.7843 0.0
C795 C 0.57918 0.18789 0.75964 0.0
C796 C 0.59507 0.20096 0.73922 0.0
C797 C 0.59368 0.2138 0.71579 0.0
C798 C 0.57651 0.21379 0.71269 0.0
C799 C 0.56069 0.20097 0.73309 0.0
C800 C 0.562 0.18809 0.75655 0.0
C801 C 0.57562 0.15789 0.94928 0.0
C802 C 0.55787 0.15606 0.95759 0.0
C803 C 0.58208 0.16044 0.91326 0.0
C804 C 0.57061 0.16048 0.88457 0.0
C805 C 0.55325 0.15956 0.8931 0.0
C806 C 0.54701 0.15751 0.92927 0.0
C807 C 0.57626 0.16062 0.84577 0.0
C808 C 0.57538 0.17345 0.82114 0.0
C809 C 0.58236 0.14804 0.83284 0.0
C810 C 0.58194 0.13285 0.85604 0.0
C811 C 0.56492 0.11928 0.8729 0.0
C812 C 0.56464 0.10506 0.89488 0.0
C813 C 0.58125 0.10416 0.89995 0.0
C814 C 0.59817 0.11746 0.88296 0.0
C815 C 0.59854 0.13172 0.86099 0.0
H816 H 0.581 0.09314 0.91697 0.0
H817 H 0.57546 0.22374 0.69452 0.0
H818 H 0.42103 0.57033 0.80288 0.0
H819 H 0.41086 0.56401 0.86664 0.0
H820 H 0.45857 0.61826 0.89744 0.0
H821 H 0.46864 0.62487 0.8336 0.0
H822 H 0.45502 0.58564 0.93615 0.0
H823 H 0.41719 0.61398 0.90339 0.0
H824 H 0.39381 0.61758 0.8664 0.0
H825 H 0.35091 0.56022 0.89211 0.0
H826 H 0.37412 0.55618 0.92884 0.0
H827 H 0.43511 0.58031 0.12273 0.0
H828 H 0.44165 0.59141 0.05977 0.0
H829 H 0.38685 0.54493 0.02731 0.0
H830 H 0.37989 0.5343 0.0908 0.0
H831 H 0.39385 0.57432 0.98871 0.0
H832 H 0.42978 0.544 0.01678 0.0
H833 H 0.45213 0.53764 0.05115 0.0
H834 H 0.49726 0.59478 0.03103 0.0
H835 H 0.4751 0.60157 0.99693 0.0
C836 C 0.42917 0.58107 0.82312 0.0
C837 C 0.44565 0.5981 0.81318 0.0
C838 C 0.42332 0.57744 0.85954 0.0
C839 C 0.43396 0.59066 0.88677 0.0
C840 C 0.45014 0.60789 0.87682 0.0
C841 C 0.45582 0.61167 0.84032 0.0
C842 C 0.42903 0.58586 0.92579 0.0
C843 C 0.4418 0.5835 0.94787 0.0
C844 C 0.41144 0.5823 0.94058 0.0
C845 C 0.39745 0.58472 0.91859 0.0
C846 C 0.40282 0.60208 0.90089 0.0
C847 C 0.38959 0.60421 0.88003 0.0
C848 C 0.3709 0.58912 0.87683 0.0
C849 C 0.36539 0.57188 0.89457 0.0
C850 C 0.37858 0.56967 0.91545 0.0
C851 C 0.42436 0.57257 0.10225 0.0
C852 C 0.40704 0.55634 0.11169 0.0
C853 C 0.42816 0.57886 0.06615 0.0
C854 C 0.41499 0.56873 0.03842 0.0
C855 C 0.39733 0.55296 0.04805 0.0
C856 C 0.39335 0.54687 0.08438 0.0
C857 C 0.41994 0.57422 0.99941 0.0
C858 C 0.40714 0.57659 0.9772 0.0
C859 C 0.43736 0.57737 0.98415 0.0
C860 C 0.45073 0.57335 1.00463 0.0
C861 C 0.44444 0.55525 0.01992 0.0
C862 C 0.45708 0.55156 0.03932 0.0
C863 C 0.47609 0.56581 0.04336 0.0
C864 C 0.48252 0.58377 0.02793 0.0
C865 C 0.46993 0.58754 0.00854 0.0
H866 H 0.48586 0.56292 0.05838 0.0
H867 H 0.36067 0.5908 0.86067 0.0
H868 H 0.86981 0.43243 0.99505 0.0
H869 H 0.86506 0.42091 0.05768 0.0
H870 H 0.83064 0.44665 0.07904 0.0
H871 H 0.83519 0.45812 0.016 0.0
H872 H 0.87665 0.4414 0.1178 0.0
H873 H 0.79868 0.42112 0.14803 0.0
H874 H 0.76807 0.4086 0.11564 0.0
H875 H 0.7861 0.38166 0.03709 0.0
H876 H 0.8167 0.3938 0.06927 0.0
H877 H 0.86273 0.43609 0.30677 0.0
H878 H 0.85985 0.44295 0.24312 0.0
H879 H 0.82927 0.38285 0.21936 0.0
H880 H 0.83209 0.3758 0.28329 0.0
H881 H 0.81481 0.40329 0.18135 0.0
H882 H 0.87461 0.40602 0.20224 0.0
H883 H 0.90515 0.41645 0.2336 0.0
H884 H 0.92343 0.47464 0.20668 0.0
H885 H 0.89285 0.46457 0.17561 0.0
C886 C 0.86102 0.43547 0.01286 0.0
C887 C 0.85292 0.44626 1.00045 0.0
C888 C 0.85837 0.42891 0.04878 0.0
C889 C 0.84749 0.43288 0.07319 0.0
C890 C 0.83893 0.44321 0.06067 0.0
C891 C 0.84158 0.4498 0.02461 0.0
C892 C 0.84612 0.42711 0.11214 0.0
C893 C 0.86309 0.43308 0.13159 0.0
C894 C 0.82847 0.41607 0.13025 0.0
C895 C 0.81006 0.40855 0.11087 0.0
C896 C 0.79608 0.41247 0.12391 0.0
C897 C 0.77874 0.40545 0.10558 0.0
C898 C 0.77517 0.39439 0.07426 0.0
C899 C 0.78891 0.39029 0.06127 0.0
C900 C 0.80627 0.39726 0.07951 0.0
C901 C 0.8551 0.42427 0.28824 0.0
C902 C 0.84778 0.40538 0.30015 0.0
C903 C 0.8535 0.42824 0.25178 0.0
C904 C 0.84456 0.41343 0.22636 0.0
C905 C 0.83625 0.39451 0.2385 0.0
C906 C 0.83791 0.3905 0.27505 0.0
C907 C 0.84532 0.41785 0.18684 0.0
C908 C 0.82831 0.41166 0.16742 0.0
C909 C 0.86293 0.42847 0.16847 0.0
C910 C 0.88137 0.43456 0.18691 0.0
C911 C 0.88508 0.42106 0.20325 0.0
C912 C 0.9024 0.4269 0.22094 0.0
C913 C 0.9162 0.4462 0.22221 0.0
C914 C 0.91272 0.4597 0.20571 0.0
C915 C 0.8954 0.45393 0.18804 0.0
H916 H 0.9296 0.4507 0.23591 0.0
H917 H 0.76174 0.38898 0.0601 0.0
H918 H 0.4217 0.85211 0.47463 0.0
H919 H 0.41116 0.84781 0.41109 0.0
H920 H 0.45651 0.83738 0.38093 0.0
H921 H 0.46692 0.84128 0.44461 0.0
H922 H 0.45469 0.86712 0.34054 0.0
H923 H 0.4142 0.8018 0.37655 0.0
H924 H 0.3902 0.77597 0.41491 0.0
H925 H 0.34942 0.79323 0.38886 0.0
H926 H 0.37328 0.81935 0.35074 0.0
H927 H 0.4326 0.8521 0.15465 0.0
H928 H 0.43939 0.84737 0.21735 0.0
H929 H 0.386 0.84187 0.252 0.0
H930 H 0.37873 0.84561 0.18881 0.0
H931 H 0.39192 0.81904 0.29074 0.0
H932 H 0.43063 0.88482 0.26021 0.0
H933 H 0.45374 0.91266 0.22459 0.0
H934 H 0.49671 0.89748 0.24364 0.0
H935 H 0.47377 0.8694 0.279 0.0
C936 C 0.42921 0.84854 0.45459 0.0
C937 C 0.44515 0.84703 0.46467 0.0
C938 C 0.42315 0.84606 0.4183 0.0
C939 C 0.43305 0.84228 0.39129 0.0
C940 C 0.44865 0.84026 0.40138 0.0
C941 C 0.45452 0.8424 0.4378 0.0
C942 C 0.42799 0.84189 0.35226 0.0
C943 C 0.44111 0.8564 0.32942 0.0
C944 C 0.40997 0.82838 0.33823 0.0
C945 C 0.39559 0.81265 0.36105 0.0
C946 C 0.40017 0.8002 0.37926 0.0
C947 C 0.38658 0.78548 0.4009 0.0
C948 C 0.36831 0.78298 0.40439 0.0
C949 C 0.36359 0.79518 0.38616 0.0
C950 C 0.37713 0.80994 0.3645 0.0
C951 C 0.4222 0.84964 0.17557 0.0
C952 C 0.40519 0.84937 0.16683 0.0
C953 C 0.42615 0.84708 0.21153 0.0
C954 C 0.41348 0.8448 0.23981 0.0
C955 C 0.39609 0.84371 0.23086 0.0
C956 C 0.39194 0.84586 0.19469 0.0
C957 C 0.41869 0.84427 0.27867 0.0
C958 C 0.40558 0.82969 0.30162 0.0
C959 C 0.43659 0.85802 0.29315 0.0
C960 C 0.45043 0.8749 0.27192 0.0
C961 C 0.44497 0.88734 0.25658 0.0
C962 C 0.45804 0.90317 0.23647 0.0
C963 C 0.47666 0.9068 0.23176 0.0
C964 C 0.48227 0.89463 0.24725 0.0
C965 C 0.46924 0.87876 0.26735 0.0
H966 H 0.48676 0.91907 0.21619 0.0
H967 H 0.3578 0.77158 0.42116 0.0
H968 H 0.56282 0.42996 0.62226 0.0
H969 H 0.55559 0.41878 0.5595 0.0
H970 H 0.61561 0.44475 0.53619 0.0
H971 H 0.623 0.45596 0.5993 0.0
H972 H 0.56445 0.43991 0.49927 0.0
H973 H 0.62123 0.41873 0.467 0.0
H974 H 0.6392 0.40585 0.49865 0.0
H975 H 0.59454 0.37914 0.57798 0.0
H976 H 0.5762 0.39164 0.54655 0.0
H977 H 0.57223 0.43471 0.30981 0.0
H978 H 0.58197 0.44142 0.37345 0.0
H979 H 0.55217 0.38127 0.39701 0.0
H980 H 0.54232 0.37437 0.33307 0.0
H981 H 0.58705 0.40125 0.43437 0.0
H982 H 0.53046 0.40517 0.41468 0.0
H983 H 0.51077 0.41629 0.38383 0.0
H984 H 0.55158 0.47411 0.41124 0.0
H985 H 0.57165 0.46336 0.44182 0.0
C986 C 0.57453 0.43312 0.60399 0.0
C987 C 0.59352 0.4439 0.61587 0.0
C988 C 0.57034 0.42676 0.568 0.0
C989 C 0.58502 0.43089 0.54304 0.0
C990 C 0.60402 0.44121 0.55501 0.0
C991 C 0.60823 0.44764 0.5911 0.0
C992 C 0.58034 0.42524 0.50416 0.0
C993 C 0.56944 0.43148 0.48516 0.0
C994 C 0.58663 0.41405 0.48569 0.0
C995 C 0.59745 0.4063 0.50462 0.0
C996 C 0.61522 0.41006 0.49113 0.0
C997 C 0.62548 0.40283 0.50904 0.0
C998 C 0.61805 0.39174 0.54038 0.0
C999 C 0.60032 0.3878 0.5538 0.0
C1000 C 0.59 0.39498 0.53598 0.0
C1001 C 0.56796 0.42285 0.32831 0.0
C1002 C 0.55635 0.40399 0.31633 0.0
C1003 C 0.57353 0.42674 0.36476 0.0
C1004 C 0.56759 0.41187 0.3901 0.0
C1005 C 0.55689 0.39297 0.37792 0.0
C1006 C 0.55124 0.38905 0.34137 0.0
C1007 C 0.57144 0.41619 0.42958 0.0
C1008 C 0.58216 0.40974 0.44859 0.0
C1009 C 0.56478 0.42699 0.4483 0.0
C1010 C 0.55264 0.43347 0.43024 0.0
C1011 C 0.5353 0.42027 0.4139 0.0
C1012 C 0.52406 0.4265 0.3965 0.0
C1013 C 0.52995 0.4459 0.39548 0.0
C1014 C 0.54705 0.45909 0.412 0.0
C1015 C 0.55835 0.45294 0.4294 0.0
H1016 H 0.52125 0.4507 0.38195 0.0
H1017 H 0.62601 0.38616 0.55421 0.0
H1018 H 0.13071 0.56495 0.46933 0.0
H1019 H 0.13525 0.57584 0.53217 0.0
H1020 H 0.17771 0.55915 0.54662 0.0
H1021 H 0.17253 0.54737 0.48381 0.0
H1022 H 0.15654 0.54821 0.60226 0.0
H1023 H 0.18881 0.60781 0.54228 0.0
H1024 H 0.194 0.63268 0.49763 0.0
H1025 H 0.14666 0.63585 0.54191 0.0
H1026 H 0.14101 0.61081 0.58653 0.0
H1027 H 0.17336 0.62118 0.7616 0.0
H1028 H 0.17922 0.61482 0.69905 0.0
H1029 H 0.12943 0.55882 0.70478 0.0
H1030 H 0.12404 0.56479 0.76739 0.0
H1031 H 0.16108 0.6091 0.63969 0.0
H1032 H 0.1319 0.52732 0.65139 0.0
H1033 H 0.13108 0.50436 0.69648 0.0
H1034 H 0.18046 0.54904 0.74939 0.0
H1035 H 0.18174 0.57222 0.70435 0.0
C1036 C 0.14122 0.56381 0.48566 0.0
C1037 C 0.15131 0.55534 0.47141 0.0
C1038 C 0.14389 0.57017 0.5217 0.0
C1039 C 0.15707 0.56866 0.5443 0.0
C1040 C 0.16746 0.56053 0.52989 0.0
C1041 C 0.16457 0.55388 0.49388 0.0
C1042 C 0.15906 0.57454 0.5834 0.0
C1043 C 0.15767 0.5616 0.61035 0.0
C1044 C 0.16107 0.59222 0.59435 0.0
C1045 C 0.16442 0.60733 0.56761 0.0
C1046 C 0.17942 0.61372 0.54235 0.0
C1047 C 0.18246 0.62786 0.51706 0.0
C1048 C 0.17065 0.63582 0.5169 0.0
C1049 C 0.1558 0.62967 0.54207 0.0
C1050 C 0.15269 0.61552 0.5674 0.0
C1051 C 0.16382 0.60743 0.74962 0.0
C1052 C 0.14833 0.59345 0.76964 0.0
C1053 C 0.16714 0.60382 0.71378 0.0
C1054 C 0.15496 0.5862 0.69711 0.0
C1055 C 0.1394 0.57233 0.7171 0.0
C1056 C 0.13625 0.57581 0.75299 0.0
C1057 C 0.15792 0.58249 0.65844 0.0
C1058 C 0.1602 0.59583 0.63158 0.0
C1059 C 0.15737 0.56544 0.64762 0.0
C1060 C 0.15682 0.55154 0.67462 0.0
C1061 C 0.14264 0.53223 0.67253 0.0
C1062 C 0.14208 0.51918 0.69811 0.0
C1063 C 0.15567 0.52525 0.72583 0.0
C1064 C 0.1699 0.54437 0.72797 0.0
C1065 C 0.17053 0.55748 0.70245 0.0
H1066 H 0.1552 0.51513 0.74562 0.0
H1067 H 0.17302 0.64676 0.49729 0.0
H1068 H 0.45683 0.08308 0.04889 0.0
H1069 H 0.43604 0.04844 0.04702 0.0
H1070 H 0.4854 0.04149 0.04229 0.0
H1071 H 0.50612 0.07589 0.04295 0.0
H1072 H 0.45943 0.01692 0.99909 0.0
H1073 H 0.46013 0.03704 0.12341 0.0
H1074 H 0.4554 0.05521 0.1721 0.0
H1075 H 0.3962 0.02942 0.14409 0.0
H1076 H 0.40064 0.01126 0.09492 0.0
H1077 H 0.43057 0.92711 0.0736 0.0
H1078 H 0.44436 0.96147 0.06797 0.0
H1079 H 0.38851 0.95415 0.05078 0.0
H1080 H 0.37443 0.91951 0.05602 0.0
H1081 H 0.41334 0.98516 0.0998 0.0
H1082 H 0.41295 0.96182 0.97973 0.0
H1083 H 0.4187 0.94304 0.9339 0.0
H1084 H 0.47864 0.97468 0.95659 0.0
H1085 H 0.47323 0.99345 1.00299 0.0
C1086 C 0.46323 0.07416 0.04704 0.0
C1087 C 0.48316 0.08229 0.04628 0.0
C1088 C 0.45133 0.05435 0.04619 0.0
C1089 C 0.45914 0.0423 0.04514 0.0
C1090 C 0.479 0.05044 0.04312 0.0
C1091 C 0.49086 0.07018 0.04359 0.0
C1092 C 0.4469 0.02123 0.04731 0.0
C1093 C 0.44942 0.01002 0.02122 0.0
C1094 C 0.43346 0.01212 0.07567 0.0
C1095 C 0.43077 0.02298 0.10524 0.0
C1096 C 0.44614 0.03536 0.12747 0.0
C1097 C 0.44351 0.04563 0.15518 0.0
C1098 C 0.42553 0.04351 0.16111 0.0
C1099 C 0.41013 0.03107 0.13941 0.0
C1100 C 0.41269 0.02078 0.11164 0.0
C1101 C 0.42112 0.93273 0.06904 0.0
C1102 C 0.40137 0.9205 0.06504 0.0
C1103 C 0.42906 0.9524 0.06569 0.0
C1104 C 0.41747 0.96029 0.05851 0.0
C1105 C 0.39768 0.94828 0.05618 0.0
C1106 C 0.38969 0.92851 0.05916 0.0
C1107 C 0.42632 0.98105 0.05218 0.0
C1108 C 0.42314 0.99213 0.07739 0.0
C1109 C 0.43931 0.99007 0.02326 0.0
C1110 C 0.44266 0.97896 0.99504 0.0
C1111 C 0.42735 0.96468 0.97515 0.0
C1112 C 0.43054 0.95405 0.94903 0.0
C1113 C 0.44902 0.95764 0.94239 0.0
C1114 C 0.46434 0.97191 0.96178 0.0
C1115 C 0.46121 0.98257 0.98796 0.0
H1116 H 0.45147 0.9494 0.92216 0.0
H1117 H 0.42351 0.05148 0.18258 0.0
H1118 H 0.50246 0.42713 0.23696 0.0
H1119 H 0.48179 0.4407 0.2404 0.0
H1120 H 0.43256 0.38498 0.22534 0.0
H1121 H 0.45341 0.37121 0.2207 0.0
H1122 H 0.42977 0.40978 0.18347 0.0
H1123 H 0.44218 0.40802 0.30879 0.0
H1124 H 0.4613 0.41231 0.36385 0.0
H1125 H 0.49192 0.47279 0.34681 0.0
H1126 H 0.47319 0.46888 0.29131 0.0
H1127 H 0.37432 0.45616 0.22236 0.0
H1128 H 0.38717 0.43448 0.22657 0.0
H1129 H 0.44424 0.4823 0.21887 0.0
H1130 H 0.43166 0.50395 0.21407 0.0
H1131 H 0.43763 0.45656 0.27863 0.0
H1132 H 0.4271 0.4563 0.14804 0.0
H1133 H 0.40724 0.45108 0.09366 0.0
H1134 H 0.37119 0.39253 0.12401 0.0
H1135 H 0.39071 0.39749 0.17888 0.0
C1136 C 0.48723 0.41764 0.23475 0.0
C1137 C 0.47962 0.39804 0.2286 0.0
C1138 C 0.47538 0.42545 0.23694 0.0
C1139 C 0.45556 0.41385 0.23373 0.0
C1140 C 0.44781 0.39421 0.22806 0.0
C1141 C 0.45974 0.38635 0.22556 0.0
C1142 C 0.44327 0.42264 0.23444 0.0
C1143 C 0.43115 0.41966 0.20476 0.0
C1144 C 0.4451 0.43563 0.26209 0.0
C1145 C 0.45631 0.43813 0.29573 0.0
C1146 C 0.45306 0.42224 0.31664 0.0
C1147 C 0.46383 0.4246 0.34795 0.0
C1148 C 0.47783 0.44281 0.3588 0.0
C1149 C 0.48106 0.4587 0.33838 0.0
C1150 C 0.47035 0.45642 0.30702 0.0
C1151 C 0.3896 0.46203 0.22122 0.0
C1152 C 0.40196 0.4818 0.21785 0.0
C1153 C 0.39689 0.44963 0.22366 0.0
C1154 C 0.41664 0.45684 0.2232 0.0
C1155 C 0.42896 0.47649 0.21945 0.0
C1156 C 0.42171 0.48883 0.21648 0.0
C1157 C 0.42473 0.44411 0.2272 0.0
C1158 C 0.436 0.44636 0.25783 0.0
C1159 C 0.4219 0.43028 0.20075 0.0
C1160 C 0.4102 0.42733 0.16779 0.0
C1161 C 0.41482 0.44236 0.14331 0.0
C1162 C 0.40366 0.43944 0.11236 0.0
C1163 C 0.38792 0.4215 0.10545 0.0
C1164 C 0.38336 0.40643 0.12944 0.0
C1165 C 0.39447 0.40928 0.16046 0.0
H1166 H 0.3793 0.41927 0.08146 0.0
H1167 H 0.48613 0.4446 0.38306 0.0
H1168 H 0.07406 0.50068 0.39049 0.0
H1169 H 0.0398 0.48003 0.39475 0.0
H1170 H 0.04635 0.43059 0.3852 0.0
H1171 H 0.08095 0.45137 0.37974 0.0
H1172 H 0.0182 0.42664 0.34306 0.0
H1173 H 0.03391 0.44245 0.46738 0.0
H1174 H 0.04921 0.4631 0.52051 0.0
H1175 H 0.01878 0.49282 0.49971 0.0
H1176 H 0.00349 0.47254 0.44613 0.0
H1177 H 0.9171 0.37116 0.38904 0.0
H1178 H 0.95175 0.38449 0.3886 0.0
H1179 H 0.95989 0.44114 0.38095 0.0
H1180 H 0.92554 0.4281 0.38108 0.0
H1181 H 0.98035 0.43643 0.43782 0.0
H1182 H 0.96776 0.42212 0.30893 0.0
H1183 H 0.95247 0.40078 0.25662 0.0
H1184 H 0.97685 0.36667 0.28897 0.0
H1185 H 0.99208 0.38769 0.34178 0.0
C1186 C 0.06833 0.48542 0.38965 0.0
C1187 C 0.08032 0.4777 0.3849 0.0
C1188 C 0.04866 0.47359 0.39227 0.0
C1189 C 0.04046 0.45372 0.39091 0.0
C1190 C 0.05236 0.44589 0.38647 0.0
C1191 C 0.07213 0.45777 0.38352 0.0
C1192 C 0.01941 0.4414 0.39269 0.0
C1193 C 0.00994 0.42848 0.36424 0.0
C1194 C 0.00856 0.44383 0.42019 0.0
C1195 C 0.01762 0.45601 0.45259 0.0
C1196 C 0.03056 0.45346 0.47399 0.0
C1197 C 0.03922 0.4651 0.50422 0.0
C1198 C 0.03499 0.47928 0.51345 0.0
C1199 C 0.02204 0.48183 0.49253 0.0
C1200 C 0.01335 0.47024 0.46226 0.0
C1201 C 0.92627 0.38643 0.38675 0.0
C1202 C 0.91852 0.39856 0.38528 0.0
C1203 C 0.94605 0.39401 0.38652 0.0
C1204 C 0.95834 0.41379 0.38497 0.0
C1205 C 0.95063 0.42583 0.38241 0.0
C1206 C 0.93096 0.41831 0.38234 0.0
C1207 C 0.97927 0.42227 0.38762 0.0
C1208 C 0.98867 0.43439 0.41704 0.0
C1209 C 0.98999 0.41892 0.36129 0.0
C1210 C 0.98085 0.40633 0.32955 0.0
C1211 C 0.96971 0.40996 0.30509 0.0
C1212 C 0.96109 0.39795 0.2753 0.0
C1213 C 0.96364 0.38234 0.26955 0.0
C1214 C 0.97486 0.37875 0.2935 0.0
C1215 C 0.98349 0.39071 0.32335 0.0
H1216 H 0.95696 0.37306 0.24647 0.0
H1217 H 0.04171 0.48828 0.53685 0.0
H1218 H 0.50583 0.92327 0.51295 0.0
H1219 H 0.52615 0.95786 0.51026 0.0
H1220 H 0.5605 0.95548 0.59774 0.0
H1221 H 0.54092 0.9208 0.59873 0.0
H1222 H 0.53034 0.98252 0.55437 0.0
H1223 H 0.60408 0.99393 0.60104 0.0
H1224 H 0.62361 0.97865 0.59346 0.0
H1225 H 0.59445 0.95289 0.49375 0.0
H1226 H 0.57492 0.96821 0.50047 0.0
H1227 H 0.58247 0.07704 0.61028 0.0
H1228 H 0.56832 0.04242 0.60988 0.0
H1229 H 0.60609 0.04706 0.52258 0.0
H1230 H 0.62105 0.08175 0.52458 0.0
H1231 H 0.60085 0.01919 0.56133 0.0
H1232 H 0.55839 0.0369 0.5081 0.0
H1233 H 0.53914 0.05264 0.5043 0.0
H1234 H 0.50612 0.02049 0.59652 0.0
H1235 H 0.52535 0.00473 0.60116 0.0
C1236 C 0.51797 0.93014 0.53105 0.0
C1237 C 0.52185 0.91937 0.55593 0.0
C1238 C 0.52954 0.94993 0.52966 0.0
C1239 C 0.545 0.95944 0.55368 0.0
C1240 C 0.54902 0.94859 0.57824 0.0
C1241 C 0.53775 0.92874 0.57893 0.0
C1242 C 0.55596 0.98067 0.55475 0.0
C1243 C 0.54577 0.99047 0.55571 0.0
C1244 C 0.57614 0.99125 0.55587 0.0
C1245 C 0.58791 0.98207 0.55148 0.0
C1246 C 0.60188 0.98506 0.57743 0.0
C1247 C 0.61294 0.97638 0.57329 0.0
C1248 C 0.61023 0.96476 0.5432 0.0
C1249 C 0.59649 0.96184 0.51712 0.0
C1250 C 0.5854 0.97049 0.52111 0.0
C1251 C 0.58796 0.07066 0.59149 0.0
C1252 C 0.60275 0.08205 0.5673 0.0
C1253 C 0.57978 0.05086 0.59104 0.0
C1254 C 0.58571 0.04201 0.56541 0.0
C1255 C 0.60115 0.05347 0.54249 0.0
C1256 C 0.6097 0.07331 0.54364 0.0
C1257 C 0.57518 0.0209 0.56118 0.0
C1258 C 0.58543 0.01116 0.55981 0.0
C1259 C 0.55508 0.01038 0.55794 0.0
C1260 C 0.54342 0.01977 0.55518 0.0
C1261 C 0.5471 0.03327 0.5277 0.0
C1262 C 0.53618 0.04219 0.52539 0.0
C1263 C 0.52144 0.0376 0.55021 0.0
C1264 C 0.51756 0.02405 0.57734 0.0
C1265 C 0.52845 0.01511 0.57981 0.0
H1266 H 0.51301 0.04453 0.54837 0.0
H1267 H 0.6188 0.95805 0.54006 0.0
H1268 H 0.57572 0.50108 0.69093 0.0
H1269 H 0.56262 0.52225 0.69014 0.0
H1270 H 0.6155 0.56795 0.73215 0.0
H1271 H 0.62871 0.54657 0.73378 0.0
H1272 H 0.58613 0.56601 0.76833 0.0
H1273 H 0.60233 0.56887 0.6438 0.0
H1274 H 0.60455 0.55694 0.58334 0.0
H1275 H 0.54358 0.52631 0.57463 0.0
H1276 H 0.54096 0.53783 0.63529 0.0
H1277 H 0.54545 0.62731 0.73293 0.0
H1278 H 0.56704 0.61426 0.73204 0.0
H1279 H 0.51943 0.55825 0.71126 0.0
H1280 H 0.49782 0.57095 0.71276 0.0
H1281 H 0.55147 0.57116 0.66159 0.0
H1282 H 0.53649 0.56586 0.79078 0.0
H1283 H 0.53513 0.57867 0.85087 0.0
H1284 H 0.59575 0.61597 0.84882 0.0
H1285 H 0.59742 0.60354 0.78842 0.0
C1286 C 0.58471 0.51567 0.69967 0.0
C1287 C 0.60331 0.5221 0.7124 0.0
C1288 C 0.5772 0.52783 0.69902 0.0
C1289 C 0.58814 0.54679 0.71065 0.0
C1290 C 0.60682 0.55339 0.72293 0.0
C1291 C 0.61437 0.54117 0.72368 0.0
C1292 C 0.57951 0.55921 0.71152 0.0
C1293 C 0.57894 0.5675 0.74473 0.0
C1294 C 0.56999 0.5611 0.68084 0.0
C1295 C 0.57145 0.55414 0.64425 0.0
C1296 C 0.58938 0.55948 0.62912 0.0
C1297 C 0.59071 0.55281 0.59479 0.0
C1298 C 0.57421 0.54085 0.57518 0.0
C1299 C 0.55635 0.53557 0.58985 0.0
C1300 C 0.55493 0.5422 0.62419 0.0
C1301 C 0.53958 0.61218 0.72859 0.0
C1302 C 0.51991 0.60018 0.72291 0.0
C1303 C 0.55192 0.60477 0.72807 0.0
C1304 C 0.5448 0.58533 0.7214 0.0
C1305 C 0.52519 0.57331 0.71631 0.0
C1306 C 0.51285 0.58061 0.71738 0.0
C1307 C 0.55766 0.57735 0.71854 0.0
C1308 C 0.55902 0.56994 0.6849 0.0
C1309 C 0.56806 0.5765 0.74865 0.0
C1310 C 0.56704 0.58397 0.78489 0.0
C1311 C 0.5495 0.57694 0.80296 0.0
C1312 C 0.54868 0.5841 0.83712 0.0
C1313 C 0.56533 0.59818 0.85359 0.0
C1314 C 0.58285 0.60509 0.83599 0.0
C1315 C 0.58374 0.59799 0.80181 0.0
H1316 H 0.56467 0.60369 0.88005 0.0
H1317 H 0.57528 0.5357 0.5486 0.0
H1318 H 0.08427 0.62421 0.92396 0.0
H1319 H 0.04968 0.6101 0.92887 0.0
H1320 H 0.04214 0.57386 0.83699 0.0
H1321 H 0.07657 0.58737 0.83282 0.0
H1322 H 0.02051 0.60575 0.88997 0.0
H1323 H 0.0055 0.53021 0.85038 0.0
H1324 H 0.0216 0.51124 0.85269 0.0
H1325 H 0.05579 0.54485 0.94245 0.0
H1326 H 0.03971 0.56384 0.941 0.0
H1327 H 0.92154 0.54344 0.85654 0.0
H1328 H 0.95616 0.56388 0.85613 0.0
H1329 H 0.96049 0.53224 0.94662 0.0
H1330 H 0.92599 0.51125 0.94594 0.0
H1331 H 0.98426 0.5353 0.89959 0.0
H1332 H 0.97011 0.58028 0.95293 0.0
H1333 H 0.95451 0.59957 0.95904 0.0
H1334 H 0.979 0.62743 0.85756 0.0
H1335 H 0.99455 0.60812 0.85058 0.0
C1336 C 0.07524 0.61344 0.90445 0.0
C1337 C 0.08314 0.60671 0.87833 0.0
C1338 C 0.05546 0.60539 0.90727 0.0
C1339 C 0.04327 0.59059 0.88385 0.0
C1340 C 0.05122 0.5849 0.856 0.0
C1341 C 0.07093 0.5927 0.85353 0.0
C1342 C 0.02232 0.58015 0.89003 0.0
C1343 C 0.01255 0.59035 0.89205 0.0
C1344 C 0.01196 0.56008 0.89389 0.0
C1345 C 0.02153 0.54855 0.89532 0.0
C1346 C 0.0164 0.53349 0.8707 0.0
C1347 C 0.02553 0.52275 0.87185 0.0
C1348 C 0.03975 0.52688 0.89762 0.0
C1349 C 0.04482 0.54171 0.92242 0.0
C1350 C 0.03571 0.55248 0.92142 0.0
C1351 C 0.92986 0.54107 0.87675 0.0
C1352 C 0.92105 0.52569 0.90117 0.0
C1353 C 0.94969 0.55282 0.8766 0.0
C1354 C 0.96105 0.54972 0.90146 0.0
C1355 C 0.95212 0.53489 0.92697 0.0
C1356 C 0.93237 0.52292 0.92666 0.0
C1357 C 0.98224 0.56082 0.89906 0.0
C1358 C 0.99211 0.55071 0.89764 0.0
C1359 C 0.99268 0.58097 0.897 0.0
C1360 C 0.98336 0.59263 0.90109 0.0
C1361 C 0.97205 0.59042 0.93178 0.0
C1362 C 0.96324 0.60138 0.93542 0.0
C1363 C 0.96572 0.61469 0.90867 0.0
C1364 C 0.97707 0.6171 0.87825 0.0
C1365 C 0.98591 0.60617 0.87445 0.0
H1366 H 0.95889 0.62315 0.91154 0.0
H1367 H 0.04682 0.51856 0.89844 0.0
loop_
_geom_bond_atom_site_label_1
_geom_bond_atom_site_label_2
_geom_bond_distance
_geom_bond_site_symmetry_2
_ccdc_geom_bond_type
O0 Cd1 2.223 . S
O0 C8 1.315 . S
Cd1 O0 2.223 . S
Cd1 O4 2.297 1_554 S
Cd1 O5 2.439 1_554 S
Cd1 O11 2.240 . S
Cd2 O3 2.240 . S
Cd2 O10 2.223 . S
Cd2 O12 2.297 . S
Cd2 O13 2.439 . S
O3 Cd2 2.240 . S
O3 C8 1.279 . S
O4 Cd1 2.297 1_556 S
O4 C6 1.247 . S
O5 Cd1 2.439 1_556 S
O5 C6 1.208 . S
C6 O4 1.247 . S
C6 O5 1.208 . S
C7 O12 1.247 . S
C7 O13 1.208 . S
C8 O0 1.315 . S
C8 O3 1.279 . S
C9 O10 1.315 . S
C9 O11 1.279 . S
O10 Cd2 2.223 . S
O10 C9 1.315 . S
O11 Cd1 2.240 . S
O11 C9 1.279 . S
O12 Cd2 2.297 . S
O12 C7 1.247 . S
O13 Cd2 2.439 . S
O13 C7 1.208 . S
O14 Cd15 2.223 . S
O14 C22 1.315 . S
Cd15 O14 2.223 . S
Cd15 O18 2.297 . S
Cd15 O19 2.439 . S
Cd15 O25 2.240 . S
Cd16 O17 2.240 . S
Cd16 O24 2.223 . S
Cd16 O26 2.297 . S
Cd16 O27 2.439 . S
O17 Cd16 2.240 . S
O17 C22 1.279 . S
O18 Cd15 2.297 . S
O18 C20 1.247 . S
O19 Cd15 2.439 . S
O19 C20 1.208 . S
C20 O18 1.247 . S
C20 O19 1.208 . S
C21 O26 1.247 . S
C21 O27 1.208 . S
C22 O14 1.315 . S
C22 O17 1.279 . S
C23 O24 1.315 . S
C23 O25 1.279 . S
O24 Cd16 2.223 . S
O24 C23 1.315 . S
O25 Cd15 2.240 . S
O25 C23 1.279 . S
O26 Cd16 2.297 . S
O26 C21 1.247 . S
O27 Cd16 2.439 . S
O27 C21 1.208 . S
O28 Cd29 2.223 . S
O28 C36 1.315 . S
Cd29 O28 2.223 . S
Cd29 O32 2.297 . S
Cd29 O33 2.439 . S
Cd29 O39 2.240 . S
Cd30 O31 2.240 . S
Cd30 O38 2.223 . S
Cd30 O40 2.297 . S
Cd30 O41 2.439 . S
O31 Cd30 2.240 . S
O31 C36 1.279 . S
O32 Cd29 2.297 . S
O32 C34 1.247 . S
O33 Cd29 2.439 . S
O33 C34 1.208 . S
C34 O32 1.247 . S
C34 O33 1.208 . S
C35 O40 1.247 . S
C35 O41 1.208 . S
C36 O28 1.315 . S
C36 O31 1.279 . S
C37 O38 1.315 . S
C37 O39 1.279 . S
O38 Cd30 2.223 . S
O38 C37 1.315 . S
O39 Cd29 2.240 . S
O39 C37 1.279 . S
O40 Cd30 2.297 . S
O40 C35 1.247 . S
O41 Cd30 2.439 . S
O41 C35 1.208 . S
O42 Cd43 2.223 . S
O42 C50 1.315 . S
Cd43 O42 2.223 . S
Cd43 O46 2.297 . S
Cd43 O47 2.439 . S
Cd43 O53 2.240 . S
Cd44 O45 2.240 . S
Cd44 O52 2.223 . S
Cd44 O54 2.297 . S
Cd44 O55 2.439 . S
O45 Cd44 2.240 . S
O45 C50 1.279 . S
O46 Cd43 2.297 . S
O46 C48 1.247 . S
O47 Cd43 2.439 . S
O47 C48 1.208 . S
C48 O46 1.247 . S
C48 O47 1.208 . S
C49 O54 1.247 . S
C49 O55 1.208 . S
C50 O42 1.315 . S
C50 O45 1.279 . S
C51 O52 1.315 . S
C51 O53 1.279 . S
O52 Cd44 2.223 . S
O52 C51 1.315 . S
O53 Cd43 2.240 . S
O53 C51 1.279 . S
O54 Cd44 2.297 . S
O54 C49 1.247 . S
O55 Cd44 2.439 . S
O55 C49 1.208 . S
O56 Cd57 2.223 . S
O56 C64 1.315 . S
Cd57 O56 2.223 . S
Cd57 O60 2.297 . S
Cd57 O61 2.439 . S
Cd57 O67 2.240 . S
Cd58 O59 2.240 . S
Cd58 O66 2.223 . S
Cd58 O68 2.297 . S
Cd58 O69 2.439 . S
O59 Cd58 2.240 . S
O59 C64 1.279 . S
O60 Cd57 2.297 . S
O60 C62 1.247 . S
O61 Cd57 2.439 . S
O61 C62 1.208 . S
C62 O60 1.247 . S
C62 O61 1.208 . S
C63 O68 1.247 . S
C63 O69 1.208 . S
C64 O56 1.315 . S
C64 O59 1.279 . S
C65 O66 1.315 . S
C65 O67 1.279 . S
O66 Cd58 2.223 . S
O66 C65 1.315 . S
O67 Cd57 2.240 . S
O67 C65 1.279 . S
O68 Cd58 2.297 . S
O68 C63 1.247 . S
O69 Cd58 2.439 . S
O69 C63 1.208 . S
O70 Cd71 2.223 . S
O70 C78 1.315 . S
Cd71 O70 2.223 . S
Cd71 O74 2.297 . S
Cd71 O75 2.439 . S
Cd71 O81 2.240 . S
Cd72 O73 2.240 . S
Cd72 O80 2.223 . S
Cd72 O82 2.297 . S
Cd72 O83 2.439 . S
O73 Cd72 2.240 . S
O73 C78 1.279 . S
O74 Cd71 2.297 . S
O74 C76 1.247 . S
O75 Cd71 2.439 . S
O75 C76 1.208 . S
C76 O74 1.247 . S
C76 O75 1.208 . S
C77 O82 1.247 . S
C77 O83 1.208 . S
C78 O70 1.315 . S
C78 O73 1.279 . S
C79 O80 1.315 . S
C79 O81 1.279 . S
O80 Cd72 2.223 . S
O80 C79 1.315 . S
O81 Cd71 2.240 . S
O81 C79 1.279 . S
O82 Cd72 2.297 . S
O82 C77 1.247 . S
O83 Cd72 2.439 . S
O83 C77 1.208 . S
O84 Cd85 2.223 . S
O84 C92 1.315 . S
Cd85 O84 2.223 . S
Cd85 O88 2.297 . S
Cd85 O89 2.439 . S
Cd85 O95 2.240 . S
Cd86 O87 2.240 . S
Cd86 O94 2.223 . S
Cd86 O96 2.297 . S
Cd86 O97 2.439 . S
O87 Cd86 2.240 . S
O87 C92 1.279 . S
O88 Cd85 2.297 . S
O88 C90 1.247 . S
O89 Cd85 2.439 . S
O89 C90 1.208 . S
C90 O88 1.247 . S
C90 O89 1.208 . S
C91 O96 1.247 . S
C91 O97 1.208 . S
C92 O84 1.315 . S
C92 O87 1.279 . S
C93 O94 1.315 . S
C93 O95 1.279 . S
O94 Cd86 2.223 . S
O94 C93 1.315 . S
O95 Cd85 2.240 . S
O95 C93 1.279 . S
O96 Cd86 2.297 . S
O96 C91 1.247 . S
O97 Cd86 2.439 . S
O97 C91 1.208 . S
O98 Cd99 2.223 . S
O98 C106 1.315 . S
Cd99 O98 2.223 . S
Cd99 O102 2.297 . S
Cd99 O103 2.439 . S
Cd99 O109 2.240 . S
Cd100 O101 2.240 . S
Cd100 O108 2.223 1_554 S
Cd100 O110 2.297 1_554 S
Cd100 O111 2.439 . S
O101 Cd100 2.240 . S
O101 C106 1.279 . S
O102 Cd99 2.297 . S
O102 C104 1.247 . S
O103 Cd99 2.439 . S
O103 C104 1.208 . S
C104 O102 1.247 . S
C104 O103 1.208 . S
C105 O110 1.247 1_554 S
C105 O111 1.208 . S
C106 O98 1.315 . S
C106 O101 1.279 . S
C107 O108 1.315 . S
C107 O109 1.279 1_556 S
O108 Cd100 2.223 1_556 S
O108 C107 1.315 . S
O109 Cd99 2.240 . S
O109 C107 1.279 1_554 S
O110 Cd100 2.297 1_556 S
O110 C105 1.247 1_556 S
O111 Cd100 2.439 . S
O111 C105 1.208 . S
O112 Cd113 2.223 . S
O112 C120 1.315 . S
Cd113 O112 2.223 . S
Cd113 O116 2.297 . S
Cd113 O117 2.439 . S
Cd113 O123 2.240 . S
Cd114 O115 2.240 . S
Cd114 O122 2.223 . S
Cd114 O124 2.297 . S
Cd114 O125 2.439 . S
O115 Cd114 2.240 . S
O115 C120 1.279 . S
O116 Cd113 2.297 . S
O116 C118 1.247 . S
O117 Cd113 2.439 . S
O117 C118 1.208 . S
C118 O116 1.247 . S
C118 O117 1.208 . S
C119 O124 1.247 . S
C119 O125 1.208 . S
C120 O112 1.315 . S
C120 O115 1.279 . S
C121 O122 1.315 . S
C121 O123 1.279 . S
O122 Cd114 2.223 . S
O122 C121 1.315 . S
O123 Cd113 2.240 . S
O123 C121 1.279 . S
O124 Cd114 2.297 . S
O124 C119 1.247 . S
O125 Cd114 2.439 . S
O125 C119 1.208 . S
O126 Cd127 2.223 . S
O126 C134 1.315 . S
Cd127 O126 2.223 . S
Cd127 O130 2.297 . S
Cd127 O131 2.439 . S
Cd127 O137 2.240 . S
Cd128 O129 2.240 . S
Cd128 O136 2.223 . S
Cd128 O138 2.297 . S
Cd128 O139 2.439 . S
O129 Cd128 2.240 . S
O129 C134 1.279 . S
O130 Cd127 2.297 . S
O130 C132 1.247 . S
O131 Cd127 2.439 . S
O131 C132 1.208 . S
C132 O130 1.247 . S
C132 O131 1.208 . S
C133 O138 1.247 . S
C133 O139 1.208 . S
C134 O126 1.315 . S
C134 O129 1.279 . S
C135 O136 1.315 . S
C135 O137 1.279 . S
O136 Cd128 2.223 . S
O136 C135 1.315 . S
O137 Cd127 2.240 . S
O137 C135 1.279 . S
O138 Cd128 2.297 . S
O138 C133 1.247 . S
O139 Cd128 2.439 . S
O139 C133 1.208 . S
O140 Cd141 2.223 . S
O140 C148 1.315 . S
Cd141 O140 2.223 . S
Cd141 O144 2.297 . S
Cd141 O145 2.439 . S
Cd141 O151 2.240 . S
Cd142 O143 2.240 . S
Cd142 O150 2.223 . S
Cd142 O152 2.297 . S
Cd142 O153 2.439 . S
O143 Cd142 2.240 . S
O143 C148 1.279 . S
O144 Cd141 2.297 . S
O144 C146 1.247 . S
O145 Cd141 2.439 . S
O145 C146 1.208 . S
C146 O144 1.247 . S
C146 O145 1.208 . S
C147 O152 1.247 . S
C147 O153 1.208 . S
C148 O140 1.315 . S
C148 O143 1.279 . S
C149 O150 1.315 . S
C149 O151 1.279 . S
O150 Cd142 2.223 . S
O150 C149 1.315 . S
O151 Cd141 2.240 . S
O151 C149 1.279 . S
O152 Cd142 2.297 . S
O152 C147 1.247 . S
O153 Cd142 2.439 . S
O153 C147 1.208 . S
O154 Cd155 2.223 . S
O154 C162 1.315 . S
Cd155 O154 2.223 . S
Cd155 O158 2.297 . S
Cd155 O159 2.439 . S
Cd155 O165 2.240 . S
Cd156 O157 2.240 . S
Cd156 O164 2.223 . S
Cd156 O166 2.297 . S
Cd156 O167 2.439 . S
O157 Cd156 2.240 . S
O157 C162 1.279 . S
O158 Cd155 2.297 . S
O158 C160 1.247 . S
O159 Cd155 2.439 . S
O159 C160 1.208 . S
C160 O158 1.247 . S
C160 O159 1.208 . S
C161 O166 1.247 . S
C161 O167 1.208 . S
C162 O154 1.315 . S
C162 O157 1.279 . S
C163 O164 1.315 . S
C163 O165 1.279 . S
O164 Cd156 2.223 . S
O164 C163 1.315 . S
O165 Cd155 2.240 . S
O165 C163 1.279 . S
O166 Cd156 2.297 . S
O166 C161 1.247 . S
O167 Cd156 2.439 . S
O167 C161 1.208 . S
H168 C186 0.951 . S
H169 C188 0.951 . S
H170 C190 0.950 . S
H171 C191 0.950 . S
H172 C193 0.950 . S
H173 C196 0.950 . S
H174 C197 0.950 . S
H175 C199 0.950 . S
H176 C200 0.950 . S
H177 C201 0.951 . S
H178 C203 0.951 . S
H179 C205 0.950 . S
H180 C206 0.950 . S
H181 C208 0.950 . S
H182 C211 0.950 . S
H183 C212 0.950 . S
H184 C214 0.950 . S
H185 C215 0.950 . S
C186 H168 0.951 . S
C186 C187 1.366 . S
C186 C188 1.388 . S
C187 C186 1.366 . S
C187 C191 1.385 . S
C188 H169 0.951 . S
C188 C186 1.388 . S
C188 C189 1.366 . S
C189 C188 1.366 . S
C189 C190 1.414 . S
C189 C192 1.499 . S
C190 H170 0.950 . S
C190 C189 1.414 . S
C190 C191 1.374 . S
C191 H171 0.950 . S
C191 C187 1.385 . S
C191 C190 1.374 . S
C192 C189 1.499 . S
C192 C193 1.373 . S
C192 C194 1.389 . S
C193 H172 0.950 . S
C193 C192 1.373 . S
C193 C209 1.377 . S
C194 C192 1.389 . S
C194 C195 1.524 . S
C194 C208 1.377 . S
C195 C194 1.524 . S
C195 C196 1.397 . S
C195 C200 1.363 . S
C196 H173 0.950 . S
C196 C195 1.397 . S
C196 C197 1.334 . S
C197 H174 0.950 . S
C197 C196 1.334 . S
C197 C198 1.287 . S
C198 C197 1.287 . S
C198 C199 1.524 . S
C198 H217 0.913 . S
C199 H175 0.950 . S
C199 C198 1.524 . S
C199 C200 1.415 . S
C200 H176 0.950 . S
C200 C195 1.363 . S
C200 C199 1.415 . S
C201 H177 0.951 . S
C201 C202 1.366 . S
C201 C203 1.388 . S
C202 C201 1.366 . S
C202 C206 1.385 . S
C203 H178 0.951 . S
C203 C201 1.388 . S
C203 C204 1.366 . S
C204 C203 1.366 . S
C204 C205 1.414 . S
C204 C207 1.499 . S
C205 H179 0.950 . S
C205 C204 1.414 . S
C205 C206 1.374 . S
C206 H180 0.950 . S
C206 C202 1.385 . S
C206 C205 1.374 . S
C207 C204 1.499 . S
C207 C208 1.373 . S
C207 C209 1.389 . S
C208 H181 0.950 . S
C208 C194 1.377 . S
C208 C207 1.373 . S
C209 C193 1.377 . S
C209 C207 1.389 . S
C209 C210 1.524 . S
C210 C209 1.524 . S
C210 C211 1.397 . S
C210 C215 1.363 . S
C211 H182 0.950 . S
C211 C210 1.397 . S
C211 C212 1.334 . S
C212 H183 0.950 . S
C212 C211 1.334 . S
C212 C213 1.287 . S
C213 C212 1.287 . S
C213 C214 1.524 . S
C213 H216 0.999 . S
C214 H184 0.950 . S
C214 C213 1.524 . S
C214 C215 1.415 . S
C215 H185 0.950 . S
C215 C210 1.363 . S
C215 C214 1.415 . S
H216 C213 0.999 . S
H217 C198 0.913 . S
H218 C236 0.951 . S
H219 C238 0.951 . S
H220 C240 0.950 . S
H221 C241 0.950 . S
H222 C243 0.950 . S
H223 C246 0.950 . S
H224 C247 0.950 . S
H225 C249 0.950 . S
H226 C250 0.950 . S
H227 C251 0.951 . S
H228 C253 0.951 . S
H229 C255 0.950 . S
H230 C256 0.950 . S
H231 C258 0.950 . S
H232 C261 0.950 . S
H233 C262 0.950 . S
H234 C264 0.950 . S
H235 C265 0.950 . S
C236 H218 0.951 . S
C236 C237 1.366 . S
C236 C238 1.388 . S
C237 C236 1.366 . S
C237 C241 1.385 . S
C238 H219 0.951 . S
C238 C236 1.388 . S
C238 C239 1.366 . S
C239 C238 1.366 . S
C239 C240 1.414 . S
C239 C242 1.499 . S
C240 H220 0.950 . S
C240 C239 1.414 . S
C240 C241 1.374 . S
C241 H221 0.950 . S
C241 C237 1.385 . S
C241 C240 1.374 . S
C242 C239 1.499 . S
C242 C243 1.373 . S
C242 C244 1.389 . S
C243 H222 0.950 . S
C243 C242 1.373 . S
C243 C259 1.377 . S
C244 C242 1.389 . S
C244 C245 1.524 . S
C244 C258 1.377 . S
C245 C244 1.524 . S
C245 C246 1.397 . S
C245 C250 1.363 . S
C246 H223 0.950 . S
C246 C245 1.397 . S
C246 C247 1.334 . S
C247 H224 0.950 . S
C247 C246 1.334 . S
C247 C248 1.287 . S
C248 C247 1.287 . S
C248 C249 1.524 . S
C248 H267 0.913 . S
C249 H225 0.950 . S
C249 C248 1.524 . S
C249 C250 1.415 . S
C250 H226 0.950 . S
C250 C245 1.363 . S
C250 C249 1.415 . S
C251 H227 0.951 . S
C251 C252 1.366 . S
C251 C253 1.388 . S
C252 C251 1.366 . S
C252 C256 1.385 . S
C253 H228 0.951 . S
C253 C251 1.388 . S
C253 C254 1.366 . S
C254 C253 1.366 . S
C254 C255 1.414 . S
C254 C257 1.499 . S
C255 H229 0.950 . S
C255 C254 1.414 . S
C255 C256 1.374 . S
C256 H230 0.950 . S
C256 C252 1.385 . S
C256 C255 1.374 . S
C257 C254 1.499 . S
C257 C258 1.373 . S
C257 C259 1.389 . S
C258 H231 0.950 . S
C258 C244 1.377 . S
C258 C257 1.373 . S
C259 C243 1.377 . S
C259 C257 1.389 . S
C259 C260 1.524 . S
C260 C259 1.524 . S
C260 C261 1.397 . S
C260 C265 1.363 . S
C261 H232 0.950 . S
C261 C260 1.397 . S
C261 C262 1.334 . S
C262 H233 0.950 . S
C262 C261 1.334 . S
C262 C263 1.287 . S
C263 C262 1.287 . S
C263 C264 1.524 . S
C263 H266 0.999 . S
C264 H234 0.950 . S
C264 C263 1.524 . S
C264 C265 1.415 . S
C265 H235 0.950 . S
C265 C260 1.363 . S
C265 C264 1.415 . S
H266 C263 0.999 . S
H267 C248 0.913 . S
H268 C286 0.951 . S
H269 C288 0.951 . S
H270 C290 0.950 . S
H271 C291 0.950 . S
H272 C293 0.950 . S
H273 C296 0.950 . S
H274 C297 0.950 . S
H275 C299 0.950 . S
H276 C300 0.950 . S
H277 C301 0.951 . S
H278 C303 0.951 . S
H279 C305 0.950 . S
H280 C306 0.950 . S
H281 C308 0.950 . S
H282 C311 0.950 . S
H283 C312 0.950 . S
H284 C314 0.950 . S
H285 C315 0.950 . S
C286 H268 0.951 . S
C286 C287 1.366 . S
C286 C288 1.388 . S
C287 C286 1.366 . S
C287 C291 1.385 . S
C288 H269 0.951 . S
C288 C286 1.388 . S
C288 C289 1.366 . S
C289 C288 1.366 . S
C289 C290 1.414 . S
C289 C292 1.499 . S
C290 H270 0.950 . S
C290 C289 1.414 . S
C290 C291 1.374 . S
C291 H271 0.950 . S
C291 C287 1.385 . S
C291 C290 1.374 . S
C292 C289 1.499 . S
C292 C293 1.373 . S
C292 C294 1.389 . S
C293 H272 0.950 . S
C293 C292 1.373 . S
C293 C309 1.377 . S
C294 C292 1.389 . S
C294 C295 1.524 . S
C294 C308 1.377 . S
C295 C294 1.524 . S
C295 C296 1.397 . S
C295 C300 1.363 . S
C296 H273 0.950 . S
C296 C295 1.397 . S
C296 C297 1.334 . S
C297 H274 0.950 . S
C297 C296 1.334 . S
C297 C298 1.287 . S
C298 C297 1.287 . S
C298 C299 1.524 . S
C298 H317 0.913 . S
C299 H275 0.950 . S
C299 C298 1.524 . S
C299 C300 1.415 . S
C300 H276 0.950 . S
C300 C295 1.363 . S
C300 C299 1.415 . S
C301 H277 0.951 . S
C301 C302 1.366 . S
C301 C303 1.388 . S
C302 C301 1.366 . S
C302 C306 1.385 . S
C303 H278 0.951 . S
C303 C301 1.388 . S
C303 C304 1.366 . S
C304 C303 1.366 . S
C304 C305 1.414 . S
C304 C307 1.499 . S
C305 H279 0.950 . S
C305 C304 1.414 . S
C305 C306 1.374 . S
C306 H280 0.950 . S
C306 C302 1.385 . S
C306 C305 1.374 . S
C307 C304 1.499 . S
C307 C308 1.373 . S
C307 C309 1.389 . S
C308 H281 0.950 . S
C308 C294 1.377 . S
C308 C307 1.373 . S
C309 C293 1.377 . S
C309 C307 1.389 . S
C309 C310 1.524 . S
C310 C309 1.524 . S
C310 C311 1.397 . S
C310 C315 1.363 . S
C311 H282 0.950 . S
C311 C310 1.397 . S
C311 C312 1.334 . S
C312 H283 0.950 . S
C312 C311 1.334 . S
C312 C313 1.287 . S
C313 C312 1.287 . S
C313 C314 1.524 . S
C313 H316 0.999 . S
C314 H284 0.950 . S
C314 C313 1.524 . S
C314 C315 1.415 . S
C315 H285 0.950 . S
C315 C310 1.363 . S
C315 C314 1.415 . S
H316 C313 0.999 . S
H317 C298 0.913 . S
H318 C336 0.951 . S
H319 C338 0.951 . S
H320 C340 0.950 . S
H321 C341 0.950 . S
H322 C343 0.950 . S
H323 C346 0.950 . S
H324 C347 0.950 . S
H325 C349 0.950 . S
H326 C350 0.950 . S
H327 C351 0.951 . S
H328 C353 0.951 . S
H329 C355 0.950 . S
H330 C356 0.950 . S
H331 C358 0.950 . S
H332 C361 0.950 . S
H333 C362 0.950 . S
H334 C364 0.950 . S
H335 C365 0.950 . S
C336 H318 0.951 . S
C336 C337 1.366 . S
C336 C338 1.388 . S
C337 C336 1.366 . S
C337 C341 1.385 . S
C338 H319 0.951 . S
C338 C336 1.388 . S
C338 C339 1.366 . S
C339 C338 1.366 . S
C339 C340 1.414 . S
C339 C342 1.499 . S
C340 H320 0.950 . S
C340 C339 1.414 . S
C340 C341 1.374 . S
C341 H321 0.950 . S
C341 C337 1.385 . S
C341 C340 1.374 . S
C342 C339 1.499 . S
C342 C343 1.373 . S
C342 C344 1.389 . S
C343 H322 0.950 . S
C343 C342 1.373 . S
C343 C359 1.377 . S
C344 C342 1.389 . S
C344 C345 1.524 . S
C344 C358 1.377 . S
C345 C344 1.524 . S
C345 C346 1.397 . S
C345 C350 1.363 . S
C346 H323 0.950 . S
C346 C345 1.397 . S
C346 C347 1.334 . S
C347 H324 0.950 . S
C347 C346 1.334 . S
C347 C348 1.287 . S
C348 C347 1.287 . S
C348 C349 1.524 . S
C348 H367 0.913 . S
C349 H325 0.950 . S
C349 C348 1.524 . S
C349 C350 1.415 . S
C350 H326 0.950 . S
C350 C345 1.363 . S
C350 C349 1.415 . S
C351 H327 0.951 . S
C351 C352 1.366 . S
C351 C353 1.388 . S
C352 C351 1.366 . S
C352 C356 1.385 . S
C353 H328 0.951 . S
C353 C351 1.388 . S
C353 C354 1.366 . S
C354 C353 1.366 . S
C354 C355 1.414 . S
C354 C357 1.499 . S
C355 H329 0.950 . S
C355 C354 1.414 . S
C355 C356 1.374 . S
C356 H330 0.950 . S
C356 C352 1.385 . S
C356 C355 1.374 . S
C357 C354 1.499 . S
C357 C358 1.373 . S
C357 C359 1.389 . S
C358 H331 0.950 . S
C358 C344 1.377 . S
C358 C357 1.373 . S
C359 C343 1.377 . S
C359 C357 1.389 . S
C359 C360 1.524 . S
C360 C359 1.524 . S
C360 C361 1.397 . S
C360 C365 1.363 . S
C361 H332 0.950 . S
C361 C360 1.397 . S
C361 C362 1.334 . S
C362 H333 0.950 . S
C362 C361 1.334 . S
C362 C363 1.287 . S
C363 C362 1.287 . S
C363 C364 1.524 . S
C363 H366 0.999 . S
C364 H334 0.950 . S
C364 C363 1.524 . S
C364 C365 1.415 . S
C365 H335 0.950 . S
C365 C360 1.363 . S
C365 C364 1.415 . S
H366 C363 0.999 . S
H367 C348 0.913 . S
H368 C386 0.951 . S
H369 C388 0.951 . S
H370 C390 0.950 . S
H371 C391 0.950 . S
H372 C393 0.950 . S
H373 C396 0.950 . S
H374 C397 0.950 . S
H375 C399 0.950 . S
H376 C400 0.950 . S
H377 C401 0.951 . S
H378 C403 0.951 . S
H379 C405 0.950 . S
H380 C406 0.950 . S
H381 C408 0.950 . S
H382 C411 0.950 . S
H383 C412 0.950 . S
H384 C414 0.950 . S
H385 C415 0.950 . S
C386 H368 0.951 . S
C386 C387 1.366 . S
C386 C388 1.388 . S
C387 C386 1.366 . S
C387 C391 1.385 . S
C388 H369 0.951 . S
C388 C386 1.388 . S
C388 C389 1.366 . S
C389 C388 1.366 . S
C389 C390 1.414 . S
C389 C392 1.488 1_554 S
C390 H370 0.950 . S
C390 C389 1.414 . S
C390 C391 1.374 . S
C391 H371 0.950 . S
C391 C387 1.385 . S
C391 C390 1.374 . S
C392 C389 1.488 1_556 S
C392 C393 1.379 . S
C392 C394 1.395 . S
C393 H372 0.950 . S
C393 C392 1.379 . S
C393 C409 1.377 . S
C394 C392 1.395 . S
C394 C395 1.531 . S
C394 C408 1.377 . S
C395 C394 1.531 . S
C395 C396 1.384 1_556 S
C395 C400 1.370 . S
C396 H373 0.950 . S
C396 C395 1.384 1_554 S
C396 C397 1.334 . S
C397 H374 0.950 . S
C397 C396 1.334 . S
C397 C398 1.287 . S
C398 C397 1.287 . S
C398 C399 1.524 1_554 S
C398 H417 0.913 . S
C399 H375 0.950 . S
C399 C398 1.524 1_556 S
C399 C400 1.415 . S
C400 H376 0.950 . S
C400 C395 1.370 . S
C400 C399 1.415 . S
C401 H377 0.951 . S
C401 C402 1.366 . S
C401 C403 1.388 . S
C402 C401 1.366 . S
C402 C406 1.385 . S
C403 H378 0.951 . S
C403 C401 1.388 . S
C403 C404 1.366 . S
C404 C403 1.366 . S
C404 C405 1.414 . S
C404 C407 1.499 . S
C405 H379 0.950 . S
C405 C404 1.414 . S
C405 C406 1.374 . S
C406 H380 0.950 . S
C406 C402 1.385 . S
C406 C405 1.374 . S
C407 C404 1.499 . S
C407 C408 1.373 . S
C407 C409 1.389 . S
C408 H381 0.950 . S
C408 C394 1.377 . S
C408 C407 1.373 . S
C409 C393 1.377 . S
C409 C407 1.389 . S
C409 C410 1.524 . S
C410 C409 1.524 . S
C410 C411 1.397 . S
C410 C415 1.363 . S
C411 H382 0.950 . S
C411 C410 1.397 . S
C411 C412 1.334 . S
C412 H383 0.950 . S
C412 C411 1.334 . S
C412 C413 1.287 . S
C413 C412 1.287 . S
C413 C414 1.524 . S
C413 H416 0.999 . S
C414 H384 0.950 . S
C414 C413 1.524 . S
C414 C415 1.415 . S
C415 H385 0.950 . S
C415 C410 1.363 . S
C415 C414 1.415 . S
H416 C413 0.999 . S
H417 C398 0.913 . S
H418 C436 0.951 . S
H419 C438 0.951 . S
H420 C440 0.950 . S
H421 C441 0.950 . S
H422 C443 0.950 . S
H423 C446 0.950 . S
H424 C447 0.950 . S
H425 C449 0.950 . S
H426 C450 0.950 . S
H427 C451 0.951 1_556 S
H428 C453 0.951 . S
H429 C455 0.950 . S
H430 C456 0.950 . S
H431 C458 0.950 . S
H432 C461 0.950 . S
H433 C462 0.950 1_556 S
H434 C464 0.950 . S
H435 C465 0.950 . S
C436 H418 0.951 . S
C436 C437 1.366 . S
C436 C438 1.388 . S
C437 C436 1.366 . S
C437 C441 1.385 . S
C438 H419 0.951 . S
C438 C436 1.388 . S
C438 C439 1.366 . S
C439 C438 1.366 . S
C439 C440 1.414 . S
C439 C442 1.499 . S
C440 H420 0.950 . S
C440 C439 1.414 . S
C440 C441 1.374 . S
C441 H421 0.950 . S
C441 C437 1.385 . S
C441 C440 1.374 . S
C442 C439 1.499 . S
C442 C443 1.373 . S
C442 C444 1.389 . S
C443 H422 0.950 . S
C443 C442 1.373 . S
C443 C459 1.377 . S
C444 C442 1.389 . S
C444 C445 1.524 . S
C444 C458 1.377 . S
C445 C444 1.524 . S
C445 C446 1.397 . S
C445 C450 1.363 . S
C446 H423 0.950 . S
C446 C445 1.397 . S
C446 C447 1.334 . S
C447 H424 0.950 . S
C447 C446 1.334 . S
C447 C448 1.287 . S
C448 C447 1.287 . S
C448 C449 1.524 . S
C448 H467 0.913 . S
C449 H425 0.950 . S
C449 C448 1.524 . S
C449 C450 1.415 . S
C450 H426 0.950 . S
C450 C445 1.363 . S
C450 C449 1.415 . S
C451 H427 0.951 1_554 S
C451 C452 1.366 1_554 S
C451 C453 1.388 . S
C452 C451 1.366 1_556 S
C452 C456 1.385 1_556 S
C453 H428 0.951 . S
C453 C451 1.388 . S
C453 C454 1.366 . S
C454 C453 1.366 . S
C454 C455 1.414 . S
C454 C457 1.499 . S
C455 H429 0.950 . S
C455 C454 1.414 . S
C455 C456 1.374 . S
C456 H430 0.950 . S
C456 C452 1.385 1_554 S
C456 C455 1.374 . S
C457 C454 1.499 . S
C457 C458 1.373 . S
C457 C459 1.389 . S
C458 H431 0.950 . S
C458 C444 1.377 . S
C458 C457 1.373 . S
C459 C443 1.377 . S
C459 C457 1.389 . S
C459 C460 1.524 . S
C460 C459 1.524 . S
C460 C461 1.397 . S
C460 C465 1.363 . S
C461 H432 0.950 . S
C461 C460 1.397 . S
C461 C462 1.334 . S
C462 H433 0.950 1_554 S
C462 C461 1.334 . S
C462 C463 1.287 . S
C463 C462 1.287 . S
C463 C464 1.524 . S
C463 H466 0.999 . S
C464 H434 0.950 . S
C464 C463 1.524 . S
C464 C465 1.415 . S
C465 H435 0.950 . S
C465 C460 1.363 . S
C465 C464 1.415 . S
H466 C463 0.999 . S
H467 C448 0.913 . S
H468 C486 0.951 . S
H469 C488 0.951 . S
H470 C490 0.950 . S
H471 C491 0.950 . S
H472 C493 0.950 . S
H473 C496 0.950 . S
H474 C497 0.950 . S
H475 C499 0.950 . S
H476 C500 0.950 . S
H477 C501 0.951 . S
H478 C503 0.951 . S
H479 C505 0.950 . S
H480 C506 0.950 . S
H481 C508 0.950 . S
H482 C511 0.950 . S
H483 C512 0.976 . S
H484 C514 0.950 . S
H485 C515 0.950 . S
C486 H468 0.951 . S
C486 C487 1.366 . S
C486 C488 1.388 . S
C487 C486 1.366 . S
C487 C491 1.385 . S
C488 H469 0.951 . S
C488 C486 1.388 . S
C488 C489 1.366 . S
C489 C488 1.366 . S
C489 C490 1.414 . S
C489 C492 1.499 . S
C490 H470 0.950 . S
C490 C489 1.414 . S
C490 C491 1.374 . S
C491 H471 0.950 . S
C491 C487 1.385 . S
C491 C490 1.374 . S
C492 C489 1.499 . S
C492 C493 1.373 . S
C492 C494 1.389 . S
C493 H472 0.950 . S
C493 C492 1.373 . S
C493 C509 1.377 . S
C494 C492 1.389 . S
C494 C495 1.524 . S
C494 C508 1.377 . S
C495 C494 1.524 . S
C495 C496 1.397 . S
C495 C500 1.363 . S
C496 H473 0.950 . S
C496 C495 1.397 . S
C496 C497 1.334 . S
C497 H474 0.950 . S
C497 C496 1.334 . S
C497 C498 1.287 . S
C498 C497 1.287 . S
C498 C499 1.524 . S
C498 H517 0.913 . S
C499 H475 0.950 . S
C499 C498 1.524 . S
C499 C500 1.415 . S
C500 H476 0.950 . S
C500 C495 1.363 . S
C500 C499 1.415 . S
C501 H477 0.951 . S
C501 C502 1.366 . S
C501 C503 1.388 . S
C502 C501 1.366 . S
C502 C506 1.385 . S
C503 H478 0.951 . S
C503 C501 1.388 . S
C503 C504 1.366 . S
C504 C503 1.366 . S
C504 C505 1.414 . S
C504 C507 1.499 . S
C505 H479 0.950 . S
C505 C504 1.414 . S
C505 C506 1.374 . S
C506 H480 0.950 . S
C506 C502 1.385 . S
C506 C505 1.374 . S
C507 C504 1.499 . S
C507 C508 1.373 . S
C507 C509 1.389 . S
C508 H481 0.950 . S
C508 C494 1.377 . S
C508 C507 1.373 . S
C509 C493 1.377 . S
C509 C507 1.389 . S
C509 C510 1.524 . S
C510 C509 1.524 . S
C510 C511 1.397 . S
C510 C515 1.363 . S
C511 H482 0.950 . S
C511 C510 1.397 . S
C511 C512 1.334 . S
C512 H483 0.976 . S
C512 C511 1.334 . S
C512 C513 1.287 . S
C513 C512 1.287 . S
C513 C514 1.524 . S
C513 H516 0.999 . S
C514 H484 0.950 . S
C514 C513 1.524 . S
C514 C515 1.415 . S
C515 H485 0.950 . S
C515 C510 1.363 . S
C515 C514 1.415 . S
H516 C513 0.999 . S
H517 C498 0.913 . S
H518 C536 0.951 . S
H519 C538 0.951 . S
H520 C540 0.950 . S
H521 C541 0.950 . S
H522 C543 0.950 . S
H523 C546 0.950 . S
H524 C547 0.950 . S
H525 C549 0.950 . S
H526 C550 0.950 . S
H527 C551 0.951 . S
H528 C553 0.951 . S
H529 C555 0.950 . S
H530 C556 0.950 . S
H531 C558 0.950 . S
H532 C561 0.950 . S
H533 C562 0.950 . S
H534 C564 0.950 . S
H535 C565 0.950 . S
C536 H518 0.951 . S
C536 C537 1.366 . S
C536 C538 1.388 . S
C537 C536 1.366 . S
C537 C541 1.385 . S
C538 H519 0.951 . S
C538 C536 1.388 . S
C538 C539 1.366 . S
C539 C538 1.366 . S
C539 C540 1.414 . S
C539 C542 1.499 . S
C540 H520 0.950 . S
C540 C539 1.414 . S
C540 C541 1.374 . S
C541 H521 0.950 . S
C541 C537 1.385 . S
C541 C540 1.374 . S
C542 C539 1.499 . S
C542 C543 1.373 . S
C542 C544 1.389 . S
C543 H522 0.950 . S
C543 C542 1.373 . S
C543 C559 1.377 . S
C544 C542 1.389 . S
C544 C545 1.524 . S
C544 C558 1.377 . S
C545 C544 1.524 . S
C545 C546 1.397 . S
C545 C550 1.363 . S
C546 H523 0.950 . S
C546 C545 1.397 . S
C546 C547 1.334 . S
C547 H524 0.950 . S
C547 C546 1.334 . S
C547 C548 1.287 . S
C548 C547 1.287 . S
C548 C549 1.524 . S
C548 H567 0.913 . S
C549 H525 0.950 . S
C549 C548 1.524 . S
C549 C550 1.415 . S
C550 H526 0.950 . S
C550 C545 1.363 . S
C550 C549 1.415 . S
C551 H527 0.951 . S
C551 C552 1.366 . S
C551 C553 1.388 . S
C552 C551 1.366 . S
C552 C556 1.385 . S
C553 H528 0.951 . S
C553 C551 1.388 . S
C553 C554 1.366 . S
C554 C553 1.366 . S
C554 C555 1.414 . S
C554 C557 1.499 . S
C555 H529 0.950 . S
C555 C554 1.414 . S
C555 C556 1.374 . S
C556 H530 0.950 . S
C556 C552 1.385 . S
C556 C555 1.374 . S
C557 C554 1.499 . S
C557 C558 1.373 . S
C557 C559 1.389 . S
C558 H531 0.950 . S
C558 C544 1.377 . S
C558 C557 1.373 . S
C559 C543 1.377 . S
C559 C557 1.389 . S
C559 C560 1.524 . S
C560 C559 1.524 . S
C560 C561 1.397 . S
C560 C565 1.363 . S
C561 H532 0.950 . S
C561 C560 1.397 . S
C561 C562 1.334 . S
C562 H533 0.950 . S
C562 C561 1.334 . S
C562 C563 1.287 . S
C563 C562 1.287 . S
C563 C564 1.524 . S
C563 H566 0.999 . S
C564 H534 0.950 . S
C564 C563 1.524 . S
C564 C565 1.415 . S
C565 H535 0.950 . S
C565 C560 1.363 . S
C565 C564 1.415 . S
H566 C563 0.999 . S
H567 C548 0.913 . S
H568 C586 0.951 . S
H569 C588 0.951 . S
H570 C590 0.950 . S
H571 C591 0.950 . S
H572 C593 0.950 . S
H573 C596 0.950 . S
H574 C597 0.950 . S
H575 C599 0.950 . S
H576 C600 0.950 . S
H577 C601 0.951 . S
H578 C603 0.951 . S
H579 C605 0.950 . S
H580 C606 0.950 . S
H581 C608 0.950 . S
H582 C611 0.950 . S
H583 C612 0.950 . S
H584 C614 0.950 . S
H585 C615 0.950 . S
C586 H568 0.951 . S
C586 C587 1.366 . S
C586 C588 1.388 . S
C587 C586 1.366 . S
C587 C591 1.385 . S
C588 H569 0.951 . S
C588 C586 1.388 . S
C588 C589 1.366 . S
C589 C588 1.366 . S
C589 C590 1.414 . S
C589 C592 1.499 . S
C590 H570 0.950 . S
C590 C589 1.414 . S
C590 C591 1.374 . S
C591 H571 0.950 . S
C591 C587 1.385 . S
C591 C590 1.374 . S
C592 C589 1.499 . S
C592 C593 1.373 . S
C592 C594 1.389 . S
C593 H572 0.950 . S
C593 C592 1.373 . S
C593 C609 1.377 . S
C594 C592 1.389 . S
C594 C595 1.524 . S
C594 C608 1.377 . S
C595 C594 1.524 . S
C595 C596 1.397 . S
C595 C600 1.363 . S
C596 H573 0.950 . S
C596 C595 1.397 . S
C596 C597 1.334 . S
C597 H574 0.950 . S
C597 C596 1.334 . S
C597 C598 1.287 . S
C598 C597 1.287 . S
C598 C599 1.524 . S
C598 H617 0.913 . S
C599 H575 0.950 . S
C599 C598 1.524 . S
C599 C600 1.415 . S
C600 H576 0.950 . S
C600 C595 1.363 . S
C600 C599 1.415 . S
C601 H577 0.951 . S
C601 C602 1.366 . S
C601 C603 1.388 . S
C602 C601 1.366 . S
C602 C606 1.385 . S
C603 H578 0.951 . S
C603 C601 1.388 . S
C603 C604 1.366 . S
C604 C603 1.366 . S
C604 C605 1.414 . S
C604 C607 1.499 . S
C605 H579 0.950 . S
C605 C604 1.414 . S
C605 C606 1.374 . S
C606 H580 0.950 . S
C606 C602 1.385 . S
C606 C605 1.374 . S
C607 C604 1.499 . S
C607 C608 1.373 . S
C607 C609 1.389 . S
C608 H581 0.950 . S
C608 C594 1.377 . S
C608 C607 1.373 . S
C609 C593 1.377 . S
C609 C607 1.389 . S
C609 C610 1.524 . S
C610 C609 1.524 . S
C610 C611 1.397 . S
C610 C615 1.363 . S
C611 H582 0.950 . S
C611 C610 1.397 . S
C611 C612 1.334 . S
C612 H583 0.950 . S
C612 C611 1.334 . S
C612 C613 1.287 . S
C613 C612 1.287 . S
C613 C614 1.524 . S
C613 H616 0.999 . S
C614 H584 0.950 . S
C614 C613 1.524 . S
C614 C615 1.415 . S
C615 H585 0.950 . S
C615 C610 1.363 . S
C615 C614 1.415 . S
H616 C613 0.999 . S
H617 C598 0.913 . S
H618 C636 0.951 . S
H619 C638 0.951 . S
H620 C640 0.950 . S
H621 C641 0.950 . S
H622 C643 0.950 . S
H623 C646 0.950 . S
H624 C647 0.950 . S
H625 C649 0.950 . S
H626 C650 0.950 . S
H627 C651 0.951 . S
H628 C653 0.951 . S
H629 C655 0.950 . S
H630 C656 0.950 . S
H631 C658 0.950 . S
H632 C661 0.950 . S
H633 C662 0.950 . S
H634 C664 0.950 . S
H635 C665 0.950 . S
C636 H618 0.951 . S
C636 C637 1.366 . S
C636 C638 1.388 . S
C637 C636 1.366 . S
C637 C641 1.385 . S
C638 H619 0.951 . S
C638 C636 1.388 . S
C638 C639 1.366 . S
C639 C638 1.366 . S
C639 C640 1.414 . S
C639 C642 1.499 . S
C640 H620 0.950 . S
C640 C639 1.414 . S
C640 C641 1.374 . S
C641 H621 0.950 . S
C641 C637 1.385 . S
C641 C640 1.374 . S
C642 C639 1.499 . S
C642 C643 1.373 . S
C642 C644 1.389 . S
C643 H622 0.950 . S
C643 C642 1.373 . S
C643 C659 1.377 . S
C644 C642 1.389 . S
C644 C645 1.524 . S
C644 C658 1.377 . S
C645 C644 1.524 . S
C645 C646 1.397 . S
C645 C650 1.363 . S
C646 H623 0.950 . S
C646 C645 1.397 . S
C646 C647 1.334 . S
C647 H624 0.950 . S
C647 C646 1.334 . S
C647 C648 1.287 . S
C648 C647 1.287 . S
C648 C649 1.524 . S
C648 H667 0.913 . S
C649 H625 0.950 . S
C649 C648 1.524 . S
C649 C650 1.415 . S
C650 H626 0.950 . S
C650 C645 1.363 . S
C650 C649 1.415 . S
C651 H627 0.951 . S
C651 C652 1.366 . S
C651 C653 1.388 . S
C652 C651 1.366 . S
C652 C656 1.385 . S
C653 H628 0.951 . S
C653 C651 1.388 . S
C653 C654 1.366 . S
C654 C653 1.366 . S
C654 C655 1.414 . S
C654 C657 1.499 . S
C655 H629 0.950 . S
C655 C654 1.414 . S
C655 C656 1.374 . S
C656 H630 0.950 . S
C656 C652 1.385 . S
C656 C655 1.374 . S
C657 C654 1.499 . S
C657 C658 1.373 . S
C657 C659 1.389 . S
C658 H631 0.950 . S
C658 C644 1.377 . S
C658 C657 1.373 . S
C659 C643 1.377 . S
C659 C657 1.389 . S
C659 C660 1.524 . S
C660 C659 1.524 . S
C660 C661 1.397 . S
C660 C665 1.363 . S
C661 H632 0.950 . S
C661 C660 1.397 . S
C661 C662 1.334 . S
C662 H633 0.950 . S
C662 C661 1.334 . S
C662 C663 1.287 . S
C663 C662 1.287 . S
C663 C664 1.524 . S
C663 H666 0.999 . S
C664 H634 0.950 . S
C664 C663 1.524 . S
C664 C665 1.415 . S
C665 H635 0.950 . S
C665 C660 1.363 . S
C665 C664 1.415 . S
H666 C663 0.999 . S
H667 C648 0.913 . S
H668 C686 0.951 . S
H669 C688 0.951 . S
H670 C690 0.950 . S
H671 C691 0.950 . S
H672 C693 0.950 . S
H673 C696 0.950 . S
H674 C697 0.950 . S
H675 C699 0.950 . S
H676 C700 0.950 . S
H677 C701 0.951 . S
H678 C703 0.951 . S
H679 C705 0.950 . S
H680 C706 0.950 . S
H681 C708 0.950 . S
H682 C711 0.950 . S
H683 C712 0.950 . S
H684 C714 0.950 . S
H685 C715 0.950 . S
C686 H668 0.951 . S
C686 C687 1.366 . S
C686 C688 1.388 . S
C687 C686 1.366 . S
C687 C691 1.385 . S
C688 H669 0.951 . S
C688 C686 1.388 . S
C688 C689 1.366 . S
C689 C688 1.366 . S
C689 C690 1.414 . S
C689 C692 1.499 . S
C690 H670 0.950 . S
C690 C689 1.414 . S
C690 C691 1.374 . S
C691 H671 0.950 . S
C691 C687 1.385 . S
C691 C690 1.374 . S
C692 C689 1.499 . S
C692 C693 1.373 . S
C692 C694 1.389 . S
C693 H672 0.950 . S
C693 C692 1.373 . S
C693 C709 1.377 . S
C694 C692 1.389 . S
C694 C695 1.524 . S
C694 C708 1.377 . S
C695 C694 1.524 . S
C695 C696 1.397 . S
C695 C700 1.363 . S
C696 H673 0.950 . S
C696 C695 1.397 . S
C696 C697 1.334 . S
C697 H674 0.950 . S
C697 C696 1.334 . S
C697 C698 1.287 . S
C698 C697 1.287 . S
C698 C699 1.524 . S
C698 H717 0.913 . S
C699 H675 0.950 . S
C699 C698 1.524 . S
C699 C700 1.415 . S
C700 H676 0.950 . S
C700 C695 1.363 . S
C700 C699 1.415 . S
C701 H677 0.951 . S
C701 C702 1.366 . S
C701 C703 1.388 . S
C702 C701 1.366 . S
C702 C706 1.385 . S
C703 H678 0.951 . S
C703 C701 1.388 . S
C703 C704 1.366 . S
C704 C703 1.366 . S
C704 C705 1.414 . S
C704 C707 1.499 . S
C705 H679 0.950 . S
C705 C704 1.414 . S
C705 C706 1.374 . S
C706 H680 0.950 . S
C706 C702 1.385 . S
C706 C705 1.374 . S
C707 C704 1.499 . S
C707 C708 1.373 . S
C707 C709 1.389 . S
C708 H681 0.950 . S
C708 C694 1.377 . S
C708 C707 1.373 . S
C709 C693 1.377 . S
C709 C707 1.389 . S
C709 C710 1.524 . S
C710 C709 1.524 . S
C710 C711 1.397 . S
C710 C715 1.363 . S
C711 H682 0.950 . S
C711 C710 1.397 . S
C711 C712 1.334 . S
C712 H683 0.950 . S
C712 C711 1.334 . S
C712 C713 1.287 . S
C713 C712 1.287 . S
C713 C714 1.524 . S
C713 H716 0.999 . S
C714 H684 0.950 . S
C714 C713 1.524 . S
C714 C715 1.415 . S
C715 H685 0.950 . S
C715 C710 1.363 . S
C715 C714 1.415 . S
H716 C713 0.999 . S
H717 C698 0.913 . S
H718 C736 0.951 . S
H719 C738 0.951 . S
H720 C740 0.950 . S
H721 C741 0.950 . S
H722 C743 0.950 1_554 S
H723 C746 0.950 . S
H724 C747 0.950 . S
H725 C749 0.950 . S
H726 C750 0.950 . S
H727 C751 0.951 . S
H728 C753 0.951 . S
H729 C755 0.950 . S
H730 C756 0.950 . S
H731 C758 0.950 . S
H732 C761 0.950 . S
H733 C762 0.950 . S
H734 C764 0.950 . S
H735 C765 0.950 . S
C736 H718 0.951 . S
C736 C737 1.366 . S
C736 C738 1.388 . S
C737 C736 1.366 . S
C737 C741 1.385 . S
C738 H719 0.951 . S
C738 C736 1.388 . S
C738 C739 1.366 . S
C739 C738 1.366 . S
C739 C740 1.414 . S
C739 C742 1.499 . S
C740 H720 0.950 . S
C740 C739 1.414 . S
C740 C741 1.374 . S
C741 H721 0.950 . S
C741 C737 1.385 . S
C741 C740 1.374 . S
C742 C739 1.499 . S
C742 C743 1.373 . S
C742 C744 1.389 . S
C743 H722 0.950 1_556 S
C743 C742 1.373 . S
C743 C759 1.375 1_556 S
C744 C742 1.389 . S
C744 C745 1.524 . S
C744 C758 1.377 . S
C745 C744 1.524 . S
C745 C746 1.397 . S
C745 C750 1.363 . S
C746 H723 0.950 . S
C746 C745 1.397 . S
C746 C747 1.334 . S
C747 H724 0.950 . S
C747 C746 1.334 . S
C747 C748 1.287 . S
C748 C747 1.287 . S
C748 C749 1.524 . S
C748 H767 0.913 . S
C749 H725 0.950 . S
C749 C748 1.524 . S
C749 C750 1.415 . S
C750 H726 0.950 . S
C750 C745 1.363 . S
C750 C749 1.415 . S
C751 H727 0.951 . S
C751 C752 1.366 . S
C751 C753 1.388 . S
C752 C751 1.366 . S
C752 C756 1.385 1_554 S
C753 H728 0.951 . S
C753 C751 1.388 . S
C753 C754 1.366 1_554 S
C754 C753 1.366 1_556 S
C754 C755 1.414 . S
C754 C757 1.499 . S
C755 H729 0.950 . S
C755 C754 1.414 . S
C755 C756 1.374 . S
C756 H730 0.950 . S
C756 C752 1.385 1_556 S
C756 C755 1.374 . S
C757 C754 1.499 . S
C757 C758 1.373 . S
C757 C759 1.385 1_556 S
C758 H731 0.950 . S
C758 C744 1.377 . S
C758 C757 1.373 . S
C759 C743 1.375 1_554 S
C759 C757 1.385 1_554 S
C759 C760 1.531 . S
C760 C759 1.531 . S
C760 C761 1.397 . S
C760 C765 1.363 . S
C761 H732 0.950 . S
C761 C760 1.397 . S
C761 C762 1.334 . S
C762 H733 0.950 . S
C762 C761 1.334 . S
C762 C763 1.287 . S
C763 C762 1.287 . S
C763 C764 1.524 . S
C763 H766 0.999 . S
C764 H734 0.950 . S
C764 C763 1.524 . S
C764 C765 1.415 . S
C765 H735 0.950 . S
C765 C760 1.363 . S
C765 C764 1.415 . S
H766 C763 0.999 . S
H767 C748 0.913 . S
H768 C786 0.951 . S
H769 C788 0.951 . S
H770 C790 0.950 . S
H771 C791 0.950 . S
H772 C793 0.950 . S
H773 C796 0.950 . S
H774 C797 0.950 . S
H775 C799 0.950 . S
H776 C800 0.950 . S
H777 C801 0.951 . S
H778 C803 0.951 . S
H779 C805 0.950 . S
H780 C806 0.950 . S
H781 C808 0.950 . S
H782 C811 0.950 . S
H783 C812 0.950 . S
H784 C814 0.950 . S
H785 C815 0.950 . S
C786 H768 0.951 . S
C786 C787 1.366 . S
C786 C788 1.388 . S
C787 C786 1.366 . S
C787 C791 1.385 . S
C788 H769 0.951 . S
C788 C786 1.388 . S
C788 C789 1.366 . S
C789 C788 1.366 . S
C789 C790 1.414 . S
C789 C792 1.499 . S
C790 H770 0.950 . S
C790 C789 1.414 . S
C790 C791 1.374 . S
C791 H771 0.950 . S
C791 C787 1.385 . S
C791 C790 1.374 . S
C792 C789 1.499 . S
C792 C793 1.373 . S
C792 C794 1.389 . S
C793 H772 0.950 . S
C793 C792 1.373 . S
C793 C809 1.377 . S
C794 C792 1.389 . S
C794 C795 1.524 . S
C794 C808 1.377 . S
C795 C794 1.524 . S
C795 C796 1.397 . S
C795 C800 1.363 . S
C796 H773 0.950 . S
C796 C795 1.397 . S
C796 C797 1.334 . S
C797 H774 0.950 . S
C797 C796 1.334 . S
C797 C798 1.287 . S
C798 C797 1.287 . S
C798 C799 1.524 . S
C798 H817 0.913 . S
C799 H775 0.950 . S
C799 C798 1.524 . S
C799 C800 1.415 . S
C800 H776 0.950 . S
C800 C795 1.363 . S
C800 C799 1.415 . S
C801 H777 0.951 . S
C801 C802 1.366 . S
C801 C803 1.388 . S
C802 C801 1.366 . S
C802 C806 1.385 . S
C803 H778 0.951 . S
C803 C801 1.388 . S
C803 C804 1.366 . S
C804 C803 1.366 . S
C804 C805 1.414 . S
C804 C807 1.499 . S
C805 H779 0.950 . S
C805 C804 1.414 . S
C805 C806 1.374 . S
C806 H780 0.950 . S
C806 C802 1.385 . S
C806 C805 1.374 . S
C807 C804 1.499 . S
C807 C808 1.373 . S
C807 C809 1.389 . S
C808 H781 0.950 . S
C808 C794 1.377 . S
C808 C807 1.373 . S
C809 C793 1.377 . S
C809 C807 1.389 . S
C809 C810 1.524 . S
C810 C809 1.524 . S
C810 C811 1.397 . S
C810 C815 1.363 . S
C811 H782 0.950 . S
C811 C810 1.397 . S
C811 C812 1.334 . S
C812 H783 0.950 . S
C812 C811 1.334 . S
C812 C813 1.287 . S
C813 C812 1.287 . S
C813 C814 1.524 . S
C813 H816 0.999 . S
C814 H784 0.950 . S
C814 C813 1.524 . S
C814 C815 1.415 . S
C815 H785 0.950 . S
C815 C810 1.363 . S
C815 C814 1.415 . S
H816 C813 0.999 . S
H817 C798 0.913 . S
H818 C836 0.951 . S
H819 C838 0.951 . S
H820 C840 0.950 . S
H821 C841 0.950 . S
H822 C843 0.950 . S
H823 C846 0.950 . S
H824 C847 0.950 . S
H825 C849 0.950 . S
H826 C850 0.950 . S
H827 C851 0.951 . S
H828 C853 0.951 . S
H829 C855 0.950 . S
H830 C856 0.950 . S
H831 C858 0.950 . S
H832 C861 0.950 . S
H833 C862 0.950 . S
H834 C864 0.950 . S
H835 C865 0.950 . S
C836 H818 0.951 . S
C836 C837 1.366 . S
C836 C838 1.388 . S
C837 C836 1.366 . S
C837 C841 1.385 . S
C838 H819 0.951 . S
C838 C836 1.388 . S
C838 C839 1.366 . S
C839 C838 1.366 . S
C839 C840 1.414 . S
C839 C842 1.499 . S
C840 H820 0.950 . S
C840 C839 1.414 . S
C840 C841 1.374 . S
C841 H821 0.950 . S
C841 C837 1.385 . S
C841 C840 1.374 . S
C842 C839 1.499 . S
C842 C843 1.373 . S
C842 C844 1.389 . S
C843 H822 0.950 . S
C843 C842 1.373 . S
C843 C859 1.377 . S
C844 C842 1.389 . S
C844 C845 1.524 . S
C844 C858 1.377 . S
C845 C844 1.524 . S
C845 C846 1.397 . S
C845 C850 1.363 . S
C846 H823 0.950 . S
C846 C845 1.397 . S
C846 C847 1.334 . S
C847 H824 0.950 . S
C847 C846 1.334 . S
C847 C848 1.287 . S
C848 C847 1.287 . S
C848 C849 1.524 . S
C848 H867 0.913 . S
C849 H825 0.950 . S
C849 C848 1.524 . S
C849 C850 1.415 . S
C850 H826 0.950 . S
C850 C845 1.363 . S
C850 C849 1.415 . S
C851 H827 0.951 . S
C851 C852 1.366 . S
C851 C853 1.388 . S
C852 C851 1.366 . S
C852 C856 1.385 . S
C853 H828 0.951 . S
C853 C851 1.388 . S
C853 C854 1.366 . S
C854 C853 1.366 . S
C854 C855 1.414 . S
C854 C857 1.499 1_554 S
C855 H829 0.950 . S
C855 C854 1.414 . S
C855 C856 1.374 . S
C856 H830 0.950 . S
C856 C852 1.385 . S
C856 C855 1.374 . S
C857 C854 1.499 1_556 S
C857 C858 1.373 . S
C857 C859 1.389 . S
C858 H831 0.950 . S
C858 C844 1.377 . S
C858 C857 1.373 . S
C859 C843 1.377 . S
C859 C857 1.389 . S
C859 C860 1.524 1_556 S
C860 C859 1.524 1_554 S
C860 C861 1.397 . S
C860 C865 1.363 . S
C861 H832 0.950 . S
C861 C860 1.397 . S
C861 C862 1.334 . S
C862 H833 0.950 . S
C862 C861 1.334 . S
C862 C863 1.287 . S
C863 C862 1.287 . S
C863 C864 1.524 . S
C863 H866 0.999 . S
C864 H834 0.950 . S
C864 C863 1.524 . S
C864 C865 1.415 . S
C865 H835 0.950 . S
C865 C860 1.363 . S
C865 C864 1.415 . S
H866 C863 0.999 . S
H867 C848 0.913 . S
H868 C886 0.952 1_556 S
H869 C888 0.951 . S
H870 C890 0.950 . S
H871 C891 0.950 . S
H872 C893 0.950 . S
H873 C896 0.950 . S
H874 C897 0.950 . S
H875 C899 0.950 . S
H876 C900 0.950 . S
H877 C901 0.951 . S
H878 C903 0.951 . S
H879 C905 0.950 . S
H880 C906 0.950 . S
H881 C908 0.950 . S
H882 C911 0.950 . S
H883 C912 0.950 . S
H884 C914 0.950 . S
H885 C915 0.950 . S
C886 H868 0.952 1_554 S
C886 C887 1.366 1_554 S
C886 C888 1.386 . S
C887 C886 1.366 1_556 S
C887 C891 1.385 1_556 S
C888 H869 0.951 . S
C888 C886 1.386 . S
C888 C889 1.366 . S
C889 C888 1.366 . S
C889 C890 1.414 . S
C889 C892 1.499 . S
C890 H870 0.950 . S
C890 C889 1.414 . S
C890 C891 1.374 . S
C891 H871 0.950 . S
C891 C887 1.385 1_554 S
C891 C890 1.374 . S
C892 C889 1.499 . S
C892 C893 1.373 . S
C892 C894 1.389 . S
C893 H872 0.950 . S
C893 C892 1.373 . S
C893 C909 1.377 . S
C894 C892 1.389 . S
C894 C895 1.524 . S
C894 C908 1.377 . S
C895 C894 1.524 . S
C895 C896 1.397 . S
C895 C900 1.363 . S
C896 H873 0.950 . S
C896 C895 1.397 . S
C896 C897 1.334 . S
C897 H874 0.950 . S
C897 C896 1.334 . S
C897 C898 1.287 . S
C898 C897 1.287 . S
C898 C899 1.524 . S
C898 H917 0.913 . S
C899 H875 0.950 . S
C899 C898 1.524 . S
C899 C900 1.415 . S
C900 H876 0.950 . S
C900 C895 1.363 . S
C900 C899 1.415 . S
C901 H877 0.951 . S
C901 C902 1.366 . S
C901 C903 1.388 . S
C902 C901 1.366 . S
C902 C906 1.385 . S
C903 H878 0.951 . S
C903 C901 1.388 . S
C903 C904 1.366 . S
C904 C903 1.366 . S
C904 C905 1.414 . S
C904 C907 1.499 . S
C905 H879 0.950 . S
C905 C904 1.414 . S
C905 C906 1.374 . S
C906 H880 0.950 . S
C906 C902 1.385 . S
C906 C905 1.374 . S
C907 C904 1.499 . S
C907 C908 1.373 . S
C907 C909 1.389 . S
C908 H881 0.950 . S
C908 C894 1.377 . S
C908 C907 1.373 . S
C909 C893 1.377 . S
C909 C907 1.389 . S
C909 C910 1.524 . S
C910 C909 1.524 . S
C910 C911 1.397 . S
C910 C915 1.363 . S
C911 H882 0.950 . S
C911 C910 1.397 . S
C911 C912 1.334 . S
C912 H883 0.950 . S
C912 C911 1.334 . S
C912 C913 1.287 . S
C913 C912 1.287 . S
C913 C914 1.524 . S
C913 H916 0.999 . S
C914 H884 0.950 . S
C914 C913 1.524 . S
C914 C915 1.415 . S
C915 H885 0.950 . S
C915 C910 1.363 . S
C915 C914 1.415 . S
H916 C913 0.999 . S
H917 C898 0.913 . S
H918 C936 0.951 . S
H919 C938 0.951 . S
H920 C940 0.950 . S
H921 C941 0.950 . S
H922 C943 0.950 . S
H923 C946 0.950 . S
H924 C947 0.950 . S
H925 C949 0.950 . S
H926 C950 0.950 . S
H927 C951 0.951 . S
H928 C953 0.951 . S
H929 C955 0.950 . S
H930 C956 0.950 . S
H931 C958 0.950 . S
H932 C961 0.950 . S
H933 C962 0.950 . S
H934 C964 0.950 . S
H935 C965 0.950 . S
C936 H918 0.951 . S
C936 C937 1.366 . S
C936 C938 1.388 . S
C937 C936 1.366 . S
C937 C941 1.385 . S
C938 H919 0.951 . S
C938 C936 1.388 . S
C938 C939 1.366 . S
C939 C938 1.366 . S
C939 C940 1.414 . S
C939 C942 1.499 . S
C940 H920 0.950 . S
C940 C939 1.414 . S
C940 C941 1.374 . S
C941 H921 0.950 . S
C941 C937 1.385 . S
C941 C940 1.374 . S
C942 C939 1.499 . S
C942 C943 1.373 . S
C942 C944 1.389 . S
C943 H922 0.950 . S
C943 C942 1.373 . S
C943 C959 1.377 . S
C944 C942 1.389 . S
C944 C945 1.524 . S
C944 C958 1.377 . S
C945 C944 1.524 . S
C945 C946 1.397 . S
C945 C950 1.363 . S
C946 H923 0.950 . S
C946 C945 1.397 . S
C946 C947 1.334 . S
C947 H924 0.950 . S
C947 C946 1.334 . S
C947 C948 1.287 . S
C948 C947 1.287 . S
C948 C949 1.524 . S
C948 H967 0.913 . S
C949 H925 0.950 . S
C949 C948 1.524 . S
C949 C950 1.415 . S
C950 H926 0.950 . S
C950 C945 1.363 . S
C950 C949 1.415 . S
C951 H927 0.951 . S
C951 C952 1.366 . S
C951 C953 1.388 . S
C952 C951 1.366 . S
C952 C956 1.385 . S
C953 H928 0.951 . S
C953 C951 1.388 . S
C953 C954 1.366 . S
C954 C953 1.366 . S
C954 C955 1.414 . S
C954 C957 1.499 . S
C955 H929 0.950 . S
C955 C954 1.414 . S
C955 C956 1.374 . S
C956 H930 0.950 . S
C956 C952 1.385 . S
C956 C955 1.374 . S
C957 C954 1.499 . S
C957 C958 1.373 . S
C957 C959 1.389 . S
C958 H931 0.950 . S
C958 C944 1.377 . S
C958 C957 1.373 . S
C959 C943 1.377 . S
C959 C957 1.389 . S
C959 C960 1.524 . S
C960 C959 1.524 . S
C960 C961 1.397 . S
C960 C965 1.363 . S
C961 H932 0.950 . S
C961 C960 1.397 . S
C961 C962 1.334 . S
C962 H933 0.950 . S
C962 C961 1.334 . S
C962 C963 1.287 . S
C963 C962 1.287 . S
C963 C964 1.524 . S
C963 H966 0.999 . S
C964 H934 0.950 . S
C964 C963 1.524 . S
C964 C965 1.415 . S
C965 H935 0.950 . S
C965 C960 1.363 . S
C965 C964 1.415 . S
H966 C963 0.999 . S
H967 C948 0.913 . S
H968 C986 0.951 . S
H969 C988 0.951 . S
H970 C990 0.950 . S
H971 C991 0.950 . S
H972 C993 0.950 . S
H973 C996 0.950 . S
H974 C997 0.950 . S
H975 C999 0.950 . S
H976 C1000 0.950 . S
H977 C1001 0.951 . S
H978 C1003 0.951 . S
H979 C1005 0.950 . S
H980 C1006 0.950 . S
H981 C1008 0.950 . S
H982 C1011 0.950 . S
H983 C1012 0.950 . S
H984 C1014 0.950 . S
H985 C1015 0.950 . S
C986 H968 0.951 . S
C986 C987 1.366 . S
C986 C988 1.388 . S
C987 C986 1.366 . S
C987 C991 1.385 . S
C988 H969 0.951 . S
C988 C986 1.388 . S
C988 C989 1.366 . S
C989 C988 1.366 . S
C989 C990 1.414 . S
C989 C992 1.499 . S
C990 H970 0.950 . S
C990 C989 1.414 . S
C990 C991 1.374 . S
C991 H971 0.950 . S
C991 C987 1.385 . S
C991 C990 1.374 . S
C992 C989 1.499 . S
C992 C993 1.373 . S
C992 C994 1.389 . S
C993 H972 0.950 . S
C993 C992 1.373 . S
C993 C1009 1.377 . S
C994 C992 1.389 . S
C994 C995 1.524 . S
C994 C1008 1.377 . S
C995 C994 1.524 . S
C995 C996 1.397 . S
C995 C1000 1.363 . S
C996 H973 0.950 . S
C996 C995 1.397 . S
C996 C997 1.334 . S
C997 H974 0.950 . S
C997 C996 1.334 . S
C997 C998 1.287 . S
C998 C997 1.287 . S
C998 C999 1.524 . S
C998 H1017 0.913 . S
C999 H975 0.950 . S
C999 C998 1.524 . S
C999 C1000 1.415 . S
C1000 H976 0.950 . S
C1000 C995 1.363 . S
C1000 C999 1.415 . S
C1001 H977 0.951 . S
C1001 C1002 1.366 . S
C1001 C1003 1.388 . S
C1002 C1001 1.366 . S
C1002 C1006 1.385 . S
C1003 H978 0.951 . S
C1003 C1001 1.388 . S
C1003 C1004 1.366 . S
C1004 C1003 1.366 . S
C1004 C1005 1.414 . S
C1004 C1007 1.499 . S
C1005 H979 0.950 . S
C1005 C1004 1.414 . S
C1005 C1006 1.374 . S
C1006 H980 0.950 . S
C1006 C1002 1.385 . S
C1006 C1005 1.374 . S
C1007 C1004 1.499 . S
C1007 C1008 1.373 . S
C1007 C1009 1.389 . S
C1008 H981 0.950 . S
C1008 C994 1.377 . S
C1008 C1007 1.373 . S
C1009 C993 1.377 . S
C1009 C1007 1.389 . S
C1009 C1010 1.524 . S
C1010 C1009 1.524 . S
C1010 C1011 1.397 . S
C1010 C1015 1.363 . S
C1011 H982 0.950 . S
C1011 C1010 1.397 . S
C1011 C1012 1.334 . S
C1012 H983 0.950 . S
C1012 C1011 1.334 . S
C1012 C1013 1.287 . S
C1013 C1012 1.287 . S
C1013 C1014 1.524 . S
C1013 H1016 0.999 . S
C1014 H984 0.950 . S
C1014 C1013 1.524 . S
C1014 C1015 1.415 . S
C1015 H985 0.950 . S
C1015 C1010 1.363 . S
C1015 C1014 1.415 . S
H1016 C1013 0.999 . S
H1017 C998 0.913 . S
H1018 C1036 0.951 . S
H1019 C1038 0.951 . S
H1020 C1040 0.950 . S
H1021 C1041 0.950 . S
H1022 C1043 0.950 . S
H1023 C1046 0.950 . S
H1024 C1047 0.950 . S
H1025 C1049 0.950 . S
H1026 C1050 0.950 . S
H1027 C1051 0.951 . S
H1028 C1053 0.951 . S
H1029 C1055 0.950 . S
H1030 C1056 0.950 . S
H1031 C1058 0.950 . S
H1032 C1061 0.950 . S
H1033 C1062 0.950 . S
H1034 C1064 0.950 . S
H1035 C1065 0.950 . S
C1036 H1018 0.951 . S
C1036 C1037 1.366 . S
C1036 C1038 1.388 . S
C1037 C1036 1.366 . S
C1037 C1041 1.385 . S
C1038 H1019 0.951 . S
C1038 C1036 1.388 . S
C1038 C1039 1.366 . S
C1039 C1038 1.366 . S
C1039 C1040 1.414 . S
C1039 C1042 1.499 . S
C1040 H1020 0.950 . S
C1040 C1039 1.414 . S
C1040 C1041 1.374 . S
C1041 H1021 0.950 . S
C1041 C1037 1.385 . S
C1041 C1040 1.374 . S
C1042 C1039 1.499 . S
C1042 C1043 1.373 . S
C1042 C1044 1.389 . S
C1043 H1022 0.950 . S
C1043 C1042 1.373 . S
C1043 C1059 1.377 . S
C1044 C1042 1.389 . S
C1044 C1045 1.524 . S
C1044 C1058 1.377 . S
C1045 C1044 1.524 . S
C1045 C1046 1.397 . S
C1045 C1050 1.363 . S
C1046 H1023 0.950 . S
C1046 C1045 1.397 . S
C1046 C1047 1.334 . S
C1047 H1024 0.950 . S
C1047 C1046 1.334 . S
C1047 C1048 1.287 . S
C1048 C1047 1.287 . S
C1048 C1049 1.524 . S
C1048 H1067 0.913 . S
C1049 H1025 0.950 . S
C1049 C1048 1.524 . S
C1049 C1050 1.415 . S
C1050 H1026 0.950 . S
C1050 C1045 1.363 . S
C1050 C1049 1.415 . S
C1051 H1027 0.951 . S
C1051 C1052 1.366 . S
C1051 C1053 1.388 . S
C1052 C1051 1.366 . S
C1052 C1056 1.385 . S
C1053 H1028 0.951 . S
C1053 C1051 1.388 . S
C1053 C1054 1.366 . S
C1054 C1053 1.366 . S
C1054 C1055 1.414 . S
C1054 C1057 1.499 . S
C1055 H1029 0.950 . S
C1055 C1054 1.414 . S
C1055 C1056 1.374 . S
C1056 H1030 0.950 . S
C1056 C1052 1.385 . S
C1056 C1055 1.374 . S
C1057 C1054 1.499 . S
C1057 C1058 1.373 . S
C1057 C1059 1.389 . S
C1058 H1031 0.950 . S
C1058 C1044 1.377 . S
C1058 C1057 1.373 . S
C1059 C1043 1.377 . S
C1059 C1057 1.389 . S
C1059 C1060 1.524 . S
C1060 C1059 1.524 . S
C1060 C1061 1.397 . S
C1060 C1065 1.363 . S
C1061 H1032 0.950 . S
C1061 C1060 1.397 . S
C1061 C1062 1.334 . S
C1062 H1033 0.950 . S
C1062 C1061 1.334 . S
C1062 C1063 1.287 . S
C1063 C1062 1.287 . S
C1063 C1064 1.524 . S
C1063 H1066 0.999 . S
C1064 H1034 0.950 . S
C1064 C1063 1.524 . S
C1064 C1065 1.415 . S
C1065 H1035 0.950 . S
C1065 C1060 1.363 . S
C1065 C1064 1.415 . S
H1066 C1063 0.999 . S
H1067 C1048 0.913 . S
H1068 C1086 0.951 . S
H1069 C1088 0.951 . S
H1070 C1090 0.950 . S
H1071 C1091 0.950 . S
H1072 C1093 0.950 . S
H1073 C1096 0.950 . S
H1074 C1097 0.950 . S
H1075 C1099 0.950 . S
H1076 C1100 0.950 . S
H1077 C1101 0.951 . S
H1078 C1103 0.951 . S
H1079 C1105 0.950 1_556 S
H1080 C1106 0.950 1_556 S
H1081 C1108 0.950 . S
H1082 C1111 0.950 1_556 S
H1083 C1112 0.950 1_556 S
H1084 C1114 0.950 . S
H1085 C1115 0.950 . S
C1086 H1068 0.951 . S
C1086 C1087 1.366 . S
C1086 C1088 1.388 . S
C1087 C1086 1.366 . S
C1087 C1091 1.385 . S
C1088 H1069 0.951 . S
C1088 C1086 1.388 . S
C1088 C1089 1.366 . S
C1089 C1088 1.366 . S
C1089 C1090 1.414 . S
C1089 C1092 1.499 . S
C1090 H1070 0.950 . S
C1090 C1089 1.414 . S
C1090 C1091 1.374 . S
C1091 H1071 0.950 . S
C1091 C1087 1.385 . S
C1091 C1090 1.374 . S
C1092 C1089 1.499 . S
C1092 C1093 1.373 . S
C1092 C1094 1.389 . S
C1093 H1072 0.950 . S
C1093 C1092 1.373 . S
C1093 C1109 1.377 1_545 S
C1094 C1092 1.389 . S
C1094 C1095 1.524 . S
C1094 C1108 1.377 1_545 S
C1095 C1094 1.524 . S
C1095 C1096 1.397 . S
C1095 C1100 1.363 . S
C1096 H1073 0.950 . S
C1096 C1095 1.397 . S
C1096 C1097 1.334 . S
C1097 H1074 0.950 . S
C1097 C1096 1.334 . S
C1097 C1098 1.287 . S
C1098 C1097 1.287 . S
C1098 C1099 1.524 . S
C1098 H1117 0.913 . S
C1099 H1075 0.950 . S
C1099 C1098 1.524 . S
C1099 C1100 1.415 . S
C1100 H1076 0.950 . S
C1100 C1095 1.363 . S
C1100 C1099 1.415 . S
C1101 H1077 0.951 . S
C1101 C1102 1.366 . S
C1101 C1103 1.388 . S
C1102 C1101 1.366 . S
C1102 C1106 1.385 . S
C1103 H1078 0.951 . S
C1103 C1101 1.388 . S
C1103 C1104 1.366 . S
C1104 C1103 1.366 . S
C1104 C1105 1.414 . S
C1104 C1107 1.499 . S
C1105 H1079 0.950 1_554 S
C1105 C1104 1.414 . S
C1105 C1106 1.374 . S
C1106 H1080 0.950 1_554 S
C1106 C1102 1.385 . S
C1106 C1105 1.374 . S
C1107 C1104 1.499 . S
C1107 C1108 1.373 . S
C1107 C1109 1.389 . S
C1108 H1081 0.950 . S
C1108 C1094 1.377 1_565 S
C1108 C1107 1.373 . S
C1109 C1093 1.377 1_565 S
C1109 C1107 1.389 . S
C1109 C1110 1.524 . S
C1110 C1109 1.524 . S
C1110 C1111 1.397 . S
C1110 C1115 1.363 . S
C1111 H1082 0.950 1_554 S
C1111 C1110 1.397 . S
C1111 C1112 1.334 . S
C1112 H1083 0.950 1_554 S
C1112 C1111 1.334 . S
C1112 C1113 1.287 . S
C1113 C1112 1.287 . S
C1113 C1114 1.524 . S
C1113 H1116 0.999 . S
C1114 H1084 0.950 . S
C1114 C1113 1.524 . S
C1114 C1115 1.415 . S
C1115 H1085 0.950 . S
C1115 C1110 1.363 . S
C1115 C1114 1.415 . S
H1116 C1113 0.999 . S
H1117 C1098 0.913 . S
H1118 C1136 0.951 . S
H1119 C1138 0.951 . S
H1120 C1140 0.950 . S
H1121 C1141 0.950 . S
H1122 C1143 0.950 . S
H1123 C1146 0.950 . S
H1124 C1147 0.950 . S
H1125 C1149 0.950 . S
H1126 C1150 0.950 . S
H1127 C1151 0.951 . S
H1128 C1153 0.951 . S
H1129 C1155 0.950 . S
H1130 C1156 0.950 . S
H1131 C1158 0.950 . S
H1132 C1161 0.950 . S
H1133 C1162 0.950 . S
H1134 C1164 0.950 . S
H1135 C1165 0.950 . S
C1136 H1118 0.951 . S
C1136 C1137 1.366 . S
C1136 C1138 1.388 . S
C1137 C1136 1.366 . S
C1137 C1141 1.385 . S
C1138 H1119 0.951 . S
C1138 C1136 1.388 . S
C1138 C1139 1.366 . S
C1139 C1138 1.366 . S
C1139 C1140 1.414 . S
C1139 C1142 1.499 . S
C1140 H1120 0.950 . S
C1140 C1139 1.414 . S
C1140 C1141 1.374 . S
C1141 H1121 0.950 . S
C1141 C1137 1.385 . S
C1141 C1140 1.374 . S
C1142 C1139 1.499 . S
C1142 C1143 1.373 . S
C1142 C1144 1.389 . S
C1143 H1122 0.950 . S
C1143 C1142 1.373 . S
C1143 C1159 1.377 . S
C1144 C1142 1.389 . S
C1144 C1145 1.524 . S
C1144 C1158 1.377 . S
C1145 C1144 1.524 . S
C1145 C1146 1.397 . S
C1145 C1150 1.363 . S
C1146 H1123 0.950 . S
C1146 C1145 1.397 . S
C1146 C1147 1.334 . S
C1147 H1124 0.950 . S
C1147 C1146 1.334 . S
C1147 C1148 1.287 . S
C1148 C1147 1.287 . S
C1148 C1149 1.524 . S
C1148 H1167 0.913 . S
C1149 H1125 0.950 . S
C1149 C1148 1.524 . S
C1149 C1150 1.415 . S
C1150 H1126 0.950 . S
C1150 C1145 1.363 . S
C1150 C1149 1.415 . S
C1151 H1127 0.951 . S
C1151 C1152 1.366 . S
C1151 C1153 1.388 . S
C1152 C1151 1.366 . S
C1152 C1156 1.385 . S
C1153 H1128 0.951 . S
C1153 C1151 1.388 . S
C1153 C1154 1.366 . S
C1154 C1153 1.366 . S
C1154 C1155 1.414 . S
C1154 C1157 1.499 . S
C1155 H1129 0.950 . S
C1155 C1154 1.414 . S
C1155 C1156 1.374 . S
C1156 H1130 0.950 . S
C1156 C1152 1.385 . S
C1156 C1155 1.374 . S
C1157 C1154 1.499 . S
C1157 C1158 1.373 . S
C1157 C1159 1.389 . S
C1158 H1131 0.950 . S
C1158 C1144 1.377 . S
C1158 C1157 1.373 . S
C1159 C1143 1.377 . S
C1159 C1157 1.389 . S
C1159 C1160 1.524 . S
C1160 C1159 1.524 . S
C1160 C1161 1.397 . S
C1160 C1165 1.363 . S
C1161 H1132 0.950 . S
C1161 C1160 1.397 . S
C1161 C1162 1.334 . S
C1162 H1133 0.950 . S
C1162 C1161 1.334 . S
C1162 C1163 1.287 . S
C1163 C1162 1.287 . S
C1163 C1164 1.524 . S
C1163 H1166 0.999 . S
C1164 H1134 0.950 . S
C1164 C1163 1.524 . S
C1164 C1165 1.415 . S
C1165 H1135 0.950 . S
C1165 C1160 1.363 . S
C1165 C1164 1.415 . S
H1166 C1163 0.999 . S
H1167 C1148 0.913 . S
H1168 C1186 0.951 . S
H1169 C1188 0.951 . S
H1170 C1190 0.950 . S
H1171 C1191 0.950 . S
H1172 C1193 0.950 . S
H1173 C1196 0.950 . S
H1174 C1197 0.950 . S
H1175 C1199 0.950 . S
H1176 C1200 0.950 . S
H1177 C1201 0.951 . S
H1178 C1203 0.951 . S
H1179 C1205 0.950 . S
H1180 C1206 0.950 . S
H1181 C1208 0.950 . S
H1182 C1211 0.950 . S
H1183 C1212 0.950 . S
H1184 C1214 0.950 . S
H1185 C1215 0.950 . S
C1186 H1168 0.951 . S
C1186 C1187 1.366 . S
C1186 C1188 1.388 . S
C1187 C1186 1.366 . S
C1187 C1191 1.385 . S
C1188 H1169 0.951 . S
C1188 C1186 1.388 . S
C1188 C1189 1.366 . S
C1189 C1188 1.366 . S
C1189 C1190 1.414 . S
C1189 C1192 1.499 . S
C1190 H1170 0.950 . S
C1190 C1189 1.414 . S
C1190 C1191 1.374 . S
C1191 H1171 0.950 . S
C1191 C1187 1.385 . S
C1191 C1190 1.374 . S
C1192 C1189 1.499 . S
C1192 C1193 1.373 . S
C1192 C1194 1.389 . S
C1193 H1172 0.950 . S
C1193 C1192 1.373 . S
C1193 C1209 1.377 1_455 S
C1194 C1192 1.389 . S
C1194 C1195 1.524 . S
C1194 C1208 1.377 1_455 S
C1195 C1194 1.524 . S
C1195 C1196 1.397 . S
C1195 C1200 1.363 . S
C1196 H1173 0.950 . S
C1196 C1195 1.397 . S
C1196 C1197 1.334 . S
C1197 H1174 0.950 . S
C1197 C1196 1.334 . S
C1197 C1198 1.287 . S
C1198 C1197 1.287 . S
C1198 C1199 1.524 . S
C1198 H1217 0.913 . S
C1199 H1175 0.950 . S
C1199 C1198 1.524 . S
C1199 C1200 1.415 . S
C1200 H1176 0.950 . S
C1200 C1195 1.363 . S
C1200 C1199 1.415 . S
C1201 H1177 0.951 . S
C1201 C1202 1.366 . S
C1201 C1203 1.388 . S
C1202 C1201 1.366 . S
C1202 C1206 1.385 . S
C1203 H1178 0.951 . S
C1203 C1201 1.388 . S
C1203 C1204 1.366 . S
C1204 C1203 1.366 . S
C1204 C1205 1.414 . S
C1204 C1207 1.499 . S
C1205 H1179 0.950 . S
C1205 C1204 1.414 . S
C1205 C1206 1.374 . S
C1206 H1180 0.950 . S
C1206 C1202 1.385 . S
C1206 C1205 1.374 . S
C1207 C1204 1.499 . S
C1207 C1208 1.373 . S
C1207 C1209 1.389 . S
C1208 H1181 0.950 . S
C1208 C1194 1.377 1_655 S
C1208 C1207 1.373 . S
C1209 C1193 1.377 1_655 S
C1209 C1207 1.389 . S
C1209 C1210 1.524 . S
C1210 C1209 1.524 . S
C1210 C1211 1.397 . S
C1210 C1215 1.363 . S
C1211 H1182 0.950 . S
C1211 C1210 1.397 . S
C1211 C1212 1.334 . S
C1212 H1183 0.950 . S
C1212 C1211 1.334 . S
C1212 C1213 1.287 . S
C1213 C1212 1.287 . S
C1213 C1214 1.524 . S
C1213 H1216 0.999 . S
C1214 H1184 0.950 . S
C1214 C1213 1.524 . S
C1214 C1215 1.415 . S
C1215 H1185 0.950 . S
C1215 C1210 1.363 . S
C1215 C1214 1.415 . S
H1216 C1213 0.999 . S
H1217 C1198 0.913 . S
H1218 C1236 0.951 . S
H1219 C1238 0.951 . S
H1220 C1240 0.950 . S
H1221 C1241 0.950 . S
H1222 C1243 0.950 . S
H1223 C1246 0.950 . S
H1224 C1247 0.950 . S
H1225 C1249 0.950 . S
H1226 C1250 0.950 . S
H1227 C1251 0.951 . S
H1228 C1253 0.951 . S
H1229 C1255 0.950 . S
H1230 C1256 0.950 . S
H1231 C1258 0.950 . S
H1232 C1261 0.950 . S
H1233 C1262 0.950 . S
H1234 C1264 0.950 . S
H1235 C1265 0.950 . S
C1236 H1218 0.951 . S
C1236 C1237 1.366 . S
C1236 C1238 1.388 . S
C1237 C1236 1.366 . S
C1237 C1241 1.385 . S
C1238 H1219 0.951 . S
C1238 C1236 1.388 . S
C1238 C1239 1.366 . S
C1239 C1238 1.366 . S
C1239 C1240 1.414 . S
C1239 C1242 1.499 . S
C1240 H1220 0.950 . S
C1240 C1239 1.414 . S
C1240 C1241 1.374 . S
C1241 H1221 0.950 . S
C1241 C1237 1.385 . S
C1241 C1240 1.374 . S
C1242 C1239 1.499 . S
C1242 C1243 1.373 . S
C1242 C1244 1.389 . S
C1243 H1222 0.950 . S
C1243 C1242 1.373 . S
C1243 C1259 1.377 1_565 S
C1244 C1242 1.389 . S
C1244 C1245 1.524 . S
C1244 C1258 1.377 1_565 S
C1245 C1244 1.524 . S
C1245 C1246 1.397 . S
C1245 C1250 1.363 . S
C1246 H1223 0.950 . S
C1246 C1245 1.397 . S
C1246 C1247 1.334 . S
C1247 H1224 0.950 . S
C1247 C1246 1.334 . S
C1247 C1248 1.287 . S
C1248 C1247 1.287 . S
C1248 C1249 1.524 . S
C1248 H1267 0.913 . S
C1249 H1225 0.950 . S
C1249 C1248 1.524 . S
C1249 C1250 1.415 . S
C1250 H1226 0.950 . S
C1250 C1245 1.363 . S
C1250 C1249 1.415 . S
C1251 H1227 0.951 . S
C1251 C1252 1.366 . S
C1251 C1253 1.388 . S
C1252 C1251 1.366 . S
C1252 C1256 1.385 . S
C1253 H1228 0.951 . S
C1253 C1251 1.388 . S
C1253 C1254 1.366 . S
C1254 C1253 1.366 . S
C1254 C1255 1.414 . S
C1254 C1257 1.499 . S
C1255 H1229 0.950 . S
C1255 C1254 1.414 . S
C1255 C1256 1.374 . S
C1256 H1230 0.950 . S
C1256 C1252 1.385 . S
C1256 C1255 1.374 . S
C1257 C1254 1.499 . S
C1257 C1258 1.373 . S
C1257 C1259 1.389 . S
C1258 H1231 0.950 . S
C1258 C1244 1.377 1_545 S
C1258 C1257 1.373 . S
C1259 C1243 1.377 1_545 S
C1259 C1257 1.389 . S
C1259 C1260 1.524 . S
C1260 C1259 1.524 . S
C1260 C1261 1.397 . S
C1260 C1265 1.363 . S
C1261 H1232 0.950 . S
C1261 C1260 1.397 . S
C1261 C1262 1.334 . S
C1262 H1233 0.950 . S
C1262 C1261 1.334 . S
C1262 C1263 1.287 . S
C1263 C1262 1.287 . S
C1263 C1264 1.524 . S
C1263 H1266 0.999 . S
C1264 H1234 0.950 . S
C1264 C1263 1.524 . S
C1264 C1265 1.415 . S
C1265 H1235 0.950 . S
C1265 C1260 1.363 . S
C1265 C1264 1.415 . S
H1266 C1263 0.999 . S
H1267 C1248 0.913 . S
H1268 C1286 0.951 . S
H1269 C1288 0.951 . S
H1270 C1290 0.950 . S
H1271 C1291 0.950 . S
H1272 C1293 0.950 . S
H1273 C1296 0.950 . S
H1274 C1297 0.950 . S
H1275 C1299 0.950 . S
H1276 C1300 0.950 . S
H1277 C1301 0.951 . S
H1278 C1303 0.951 . S
H1279 C1305 0.950 . S
H1280 C1306 0.950 . S
H1281 C1308 0.950 . S
H1282 C1311 0.950 . S
H1283 C1312 0.950 . S
H1284 C1314 0.950 . S
H1285 C1315 0.950 . S
C1286 H1268 0.951 . S
C1286 C1287 1.366 . S
C1286 C1288 1.388 . S
C1287 C1286 1.366 . S
C1287 C1291 1.385 . S
C1288 H1269 0.951 . S
C1288 C1286 1.388 . S
C1288 C1289 1.366 . S
C1289 C1288 1.366 . S
C1289 C1290 1.414 . S
C1289 C1292 1.499 . S
C1290 H1270 0.950 . S
C1290 C1289 1.414 . S
C1290 C1291 1.374 . S
C1291 H1271 0.950 . S
C1291 C1287 1.385 . S
C1291 C1290 1.374 . S
C1292 C1289 1.499 . S
C1292 C1293 1.373 . S
C1292 C1294 1.389 . S
C1293 H1272 0.950 . S
C1293 C1292 1.373 . S
C1293 C1309 1.377 . S
C1294 C1292 1.389 . S
C1294 C1295 1.524 . S
C1294 C1308 1.377 . S
C1295 C1294 1.524 . S
C1295 C1296 1.397 . S
C1295 C1300 1.363 . S
C1296 H1273 0.950 . S
C1296 C1295 1.397 . S
C1296 C1297 1.334 . S
C1297 H1274 0.950 . S
C1297 C1296 1.334 . S
C1297 C1298 1.287 . S
C1298 C1297 1.287 . S
C1298 C1299 1.524 . S
C1298 H1317 0.913 . S
C1299 H1275 0.950 . S
C1299 C1298 1.524 . S
C1299 C1300 1.415 . S
C1300 H1276 0.950 . S
C1300 C1295 1.363 . S
C1300 C1299 1.415 . S
C1301 H1277 0.951 . S
C1301 C1302 1.366 . S
C1301 C1303 1.388 . S
C1302 C1301 1.366 . S
C1302 C1306 1.385 . S
C1303 H1278 0.951 . S
C1303 C1301 1.388 . S
C1303 C1304 1.366 . S
C1304 C1303 1.366 . S
C1304 C1305 1.414 . S
C1304 C1307 1.499 . S
C1305 H1279 0.950 . S
C1305 C1304 1.414 . S
C1305 C1306 1.374 . S
C1306 H1280 0.950 . S
C1306 C1302 1.385 . S
C1306 C1305 1.374 . S
C1307 C1304 1.499 . S
C1307 C1308 1.373 . S
C1307 C1309 1.389 . S
C1308 H1281 0.950 . S
C1308 C1294 1.377 . S
C1308 C1307 1.373 . S
C1309 C1293 1.377 . S
C1309 C1307 1.389 . S
C1309 C1310 1.524 . S
C1310 C1309 1.524 . S
C1310 C1311 1.397 . S
C1310 C1315 1.363 . S
C1311 H1282 0.950 . S
C1311 C1310 1.397 . S
C1311 C1312 1.334 . S
C1312 H1283 0.950 . S
C1312 C1311 1.334 . S
C1312 C1313 1.287 . S
C1313 C1312 1.287 . S
C1313 C1314 1.524 . S
C1313 H1316 0.999 . S
C1314 H1284 0.950 . S
C1314 C1313 1.524 . S
C1314 C1315 1.415 . S
C1315 H1285 0.950 . S
C1315 C1310 1.363 . S
C1315 C1314 1.415 . S
H1316 C1313 0.999 . S
H1317 C1298 0.913 . S
H1318 C1336 0.951 . S
H1319 C1338 0.951 . S
H1320 C1340 0.950 . S
H1321 C1341 0.950 . S
H1322 C1343 0.950 . S
H1323 C1346 0.950 . S
H1324 C1347 0.950 . S
H1325 C1349 0.950 . S
H1326 C1350 0.950 . S
H1327 C1351 0.951 . S
H1328 C1353 0.951 . S
H1329 C1355 0.950 . S
H1330 C1356 0.950 . S
H1331 C1358 0.950 . S
H1332 C1361 0.950 . S
H1333 C1362 0.950 . S
H1334 C1364 0.950 . S
H1335 C1365 0.950 . S
C1336 H1318 0.951 . S
C1336 C1337 1.366 . S
C1336 C1338 1.388 . S
C1337 C1336 1.366 . S
C1337 C1341 1.385 . S
C1338 H1319 0.951 . S
C1338 C1336 1.388 . S
C1338 C1339 1.366 . S
C1339 C1338 1.366 . S
C1339 C1340 1.414 . S
C1339 C1342 1.499 . S
C1340 H1320 0.950 . S
C1340 C1339 1.414 . S
C1340 C1341 1.374 . S
C1341 H1321 0.950 . S
C1341 C1337 1.385 . S
C1341 C1340 1.374 . S
C1342 C1339 1.499 . S
C1342 C1343 1.373 . S
C1342 C1344 1.389 . S
C1343 H1322 0.950 . S
C1343 C1342 1.373 . S
C1343 C1359 1.377 1_455 S
C1344 C1342 1.389 . S
C1344 C1345 1.524 . S
C1344 C1358 1.377 1_455 S
C1345 C1344 1.524 . S
C1345 C1346 1.397 . S
C1345 C1350 1.363 . S
C1346 H1323 0.950 . S
C1346 C1345 1.397 . S
C1346 C1347 1.334 . S
C1347 H1324 0.950 . S
C1347 C1346 1.334 . S
C1347 C1348 1.287 . S
C1348 C1347 1.287 . S
C1348 C1349 1.524 . S
C1348 H1367 0.913 . S
C1349 H1325 0.950 . S
C1349 C1348 1.524 . S
C1349 C1350 1.415 . S
C1350 H1326 0.950 . S
C1350 C1345 1.363 . S
C1350 C1349 1.415 . S
C1351 H1327 0.951 . S
C1351 C1352 1.366 . S
C1351 C1353 1.388 . S
C1352 C1351 1.366 . S
C1352 C1356 1.385 . S
C1353 H1328 0.951 . S
C1353 C1351 1.388 . S
C1353 C1354 1.366 . S
C1354 C1353 1.366 . S
C1354 C1355 1.414 . S
C1354 C1357 1.499 . S
C1355 H1329 0.950 . S
C1355 C1354 1.414 . S
C1355 C1356 1.374 . S
C1356 H1330 0.950 . S
C1356 C1352 1.385 . S
C1356 C1355 1.374 . S
C1357 C1354 1.499 . S
C1357 C1358 1.373 . S
C1357 C1359 1.389 . S
C1358 H1331 0.950 . S
C1358 C1344 1.377 1_655 S
C1358 C1357 1.373 . S
C1359 C1343 1.377 1_655 S
C1359 C1357 1.389 . S
C1359 C1360 1.524 . S
C1360 C1359 1.524 . S
C1360 C1361 1.397 . S
C1360 C1365 1.363 . S
C1361 H1332 0.950 . S
C1361 C1360 1.397 . S
C1361 C1362 1.334 . S
C1362 H1333 0.950 . S
C1362 C1361 1.334 . S
C1362 C1363 1.287 . S
C1363 C1362 1.287 . S
C1363 C1364 1.524 . S
C1363 H1366 0.999 . S
C1364 H1334 0.950 . S
C1364 C1363 1.524 . S
C1364 C1365 1.415 . S
C1365 H1335 0.950 . S
C1365 C1360 1.363 . S
C1365 C1364 1.415 . S
H1366 C1363 0.999 . S
H1367 C1348 0.913 . S
C187 C9 1.606 . S
C202 C149 1.606 . S
C237 C23 1.606 . S
C252 C163 1.606 . S
C287 C93 1.606 . S
C302 C37 1.607 . S
C337 C51 1.607 . S
C352 C107 1.606 . S
C387 C121 1.606 . S
C402 C65 1.606 . S
C437 C135 1.606 . S
C452 C79 1.606 . S
C487 C119 1.370 . S
C502 C7 1.370 . S
C537 C21 1.370 . S
C552 C133 1.369 . S
C587 C147 1.370 . S
C602 C35 1.370 . S
C637 C49 1.371 . S
C652 C161 1.371 . S
C687 C63 1.370 . S
C702 C91 1.370 . S
C737 C77 1.370 . S
C752 C105 1.370 . S
C787 C146 1.371 . S
C802 C6 1.371 . S
C837 C160 1.370 . S
C852 C20 1.371 . S
C887 C90 1.370 . S
C902 C34 1.370 . S
C937 C48 1.370 . S
C952 C104 1.371 . S
C987 C62 1.370 . S
C1002 C118 1.371 . S
C1037 C132 1.371 . S
C1052 C76 1.371 . S
C1087 C8 1.266 . S
C1102 C106 1.267 . S
C1137 C120 1.267 . S
C1152 C22 1.267 . S
C1187 C134 1.267 . S
C1202 C36 1.266 . S
C1237 C50 1.266 . S
C1252 C148 1.267 . S
C1287 C64 1.267 . S
C1302 C162 1.267 . S
C1337 C78 1.267 . S
C1352 C92 1.266 . S
