# Generated by pormake.
# Topology mon, (4)-cn, num edge types: 1
# Building blocks:
#     Node 0, Type 0, BuildingBlock: KUFVIS_clean_sbu_0, # of connection points: 4
#     Node 1, Type 0, BuildingBlock: KUFVIS_clean_sbu_0, # of connection points: 4
#     Node 2, Type 0, BuildingBlock: KUFVIS_clean_sbu_0, # of connection points: 4
#     Node 3, Type 0, BuildingBlock: KUFVIS_clean_sbu_0, # of connection points: 4
#     Node 4, Type 0, BuildingBlock: KUFVIS_clean_sbu_0, # of connection points: 4
#     Node 5, Type 0, BuildingBlock: KUFVIS_clean_sbu_0, # of connection points: 4
#     Node 6, Type 0, BuildingBlock: KUFVIS_clean_sbu_0, # of connection points: 4
#     Node 7, Type 0, BuildingBlock: KUFVIS_clean_sbu_0, # of connection points: 4
#     Node 8, Type 0, BuildingBlock: KUFVIS_clean_sbu_0, # of connection points: 4
#     Node 9, Type 0, BuildingBlock: KUFVIS_clean_sbu_0, # of connection points: 4
#     Node 10, Type 0, BuildingBlock: KUFVIS_clean_sbu_0, # of connection points: 4
#     Node 11, Type 0, BuildingBlock: KUFVIS_clean_sbu_0, # of connection points: 4
#     Node 12, Type 0, BuildingBlock: KUFVIS_clean_sbu_0, # of connection points: 4
#     Node 13, Type 0, BuildingBlock: KUFVIS_clean_sbu_0, # of connection points: 4
#     Node 14, Type 0, BuildingBlock: KUFVIS_clean_sbu_0, # of connection points: 4
#     Node 15, Type 0, BuildingBlock: KUFVIS_clean_sbu_0, # of connection points: 4
#     Edge 16, Type (0, 0), BuildingBlock: AJUNOK_clean_linker_0, # of connection points: 2
#     Edge 17, Type (0, 0), BuildingBlock: AJUNOK_clean_linker_0, # of connection points: 2
#     Edge 18, Type (0, 0), BuildingBlock: AJUNOK_clean_linker_0, # of connection points: 2
#     Edge 19, Type (0, 0), BuildingBlock: AJUNOK_clean_linker_0, # of connection points: 2
#     Edge 20, Type (0, 0), BuildingBlock: AJUNOK_clean_linker_0, # of connection points: 2
#     Edge 21, Type (0, 0), BuildingBlock: AJUNOK_clean_linker_0, # of connection points: 2
#     Edge 22, Type (0, 0), BuildingBlock: AJUNOK_clean_linker_0, # of connection points: 2
#     Edge 23, Type (0, 0), BuildingBlock: AJUNOK_clean_linker_0, # of connection points: 2
#     Edge 24, Type (0, 0), BuildingBlock: AJUNOK_clean_linker_0, # of connection points: 2
#     Edge 25, Type (0, 0), BuildingBlock: AJUNOK_clean_linker_0, # of connection points: 2
#     Edge 26, Type (0, 0), BuildingBlock: AJUNOK_clean_linker_0, # of connection points: 2
#     Edge 27, Type (0, 0), BuildingBlock: AJUNOK_clean_linker_0, # of connection points: 2
#     Edge 28, Type (0, 0), BuildingBlock: AJUNOK_clean_linker_0, # of connection points: 2
#     Edge 29, Type (0, 0), BuildingBlock: AJUNOK_clean_linker_0, # of connection points: 2
#     Edge 30, Type (0, 0), BuildingBlock: AJUNOK_clean_linker_0, # of connection points: 2
#     Edge 31, Type (0, 0), BuildingBlock: AJUNOK_clean_linker_0, # of connection points: 2
#     Edge 32, Type (0, 0), BuildingBlock: AJUNOK_clean_linker_0, # of connection points: 2
#     Edge 33, Type (0, 0), BuildingBlock: AJUNOK_clean_linker_0, # of connection points: 2
#     Edge 34, Type (0, 0), BuildingBlock: AJUNOK_clean_linker_0, # of connection points: 2
#     Edge 35, Type (0, 0), BuildingBlock: AJUNOK_clean_linker_0, # of connection points: 2
#     Edge 36, Type (0, 0), BuildingBlock: AJUNOK_clean_linker_0, # of connection points: 2
#     Edge 37, Type (0, 0), BuildingBlock: AJUNOK_clean_linker_0, # of connection points: 2
#     Edge 38, Type (0, 0), BuildingBlock: AJUNOK_clean_linker_0, # of connection points: 2
#     Edge 39, Type (0, 0), BuildingBlock: AJUNOK_clean_linker_0, # of connection points: 2
#     Edge 40, Type (0, 0), BuildingBlock: AJUNOK_clean_linker_0, # of connection points: 2
#     Edge 41, Type (0, 0), BuildingBlock: AJUNOK_clean_linker_0, # of connection points: 2
#     Edge 42, Type (0, 0), BuildingBlock: AJUNOK_clean_linker_0, # of connection points: 2
#     Edge 43, Type (0, 0), BuildingBlock: AJUNOK_clean_linker_0, # of connection points: 2
#     Edge 44, Type (0, 0), BuildingBlock: AJUNOK_clean_linker_0, # of connection points: 2
#     Edge 45, Type (0, 0), BuildingBlock: AJUNOK_clean_linker_0, # of connection points: 2
#     Edge 46, Type (0, 0), BuildingBlock: AJUNOK_clean_linker_0, # of connection points: 2
#     Edge 47, Type (0, 0), BuildingBlock: AJUNOK_clean_linker_0, # of connection points: 2
# Relax obj value: 0.171
# Max RMSD: 0.161
# Mean RMSD: 0.161
data_MOF--net-mon--node1-KUFVIS_clean_sbu_0--edge1-AJUNOK_clean_linker_0
_symmetry_space_group_name_H-M    P1
_symmetry_Int_Tables_number       1
_symmetry_cell_setting            triclinic
loop_
_symmetry_equiv_pos_as_xyz
'x, y, z'
_cell_length_a     24.428766
_cell_length_b     24.481641
_cell_length_c     61.160501
_cell_angle_alpha  90.07569
_cell_angle_beta   89.981564
_cell_angle_gamma 89.98344
loop_
_atom_site_label
_atom_site_type_symbol
_atom_site_fract_x
_atom_site_fract_y
_atom_site_fract_z
_atom_type_partial_charge
Mn0 Mn 0.03405 0.02696 0.6014 0.0
Mn1 Mn 0.92411 0.07626 0.57473 0.0
C2 C 0.94845 0.02308 0.61803 0.0
C3 C 0.09702 0.96143 0.61345 0.0
C4 C 1.00916 0.14923 0.59498 0.0
O5 O 0.05891 0.02117 0.56986 0.0
O6 O 0.98595 0.06197 0.55411 0.0
C7 C 0.89625 0.98155 0.54658 0.0
N8 N 0.88133 0.01928 0.56185 0.0
C9 C 0.78748 0.98948 0.56057 0.0
C10 C 0.80187 0.95038 0.5448 0.0
C11 C 0.8565 0.94638 0.53781 0.0
C12 C 0.82871 0.02392 0.5685 0.0
H13 H 0.93805 0.97844 0.54103 0.0
C14 C 0.03341 0.03954 0.55323 0.0
O15 O 0.10857 0.01292 0.61252 0.0
O16 O 0.04868 0.94707 0.60662 0.0
N17 N 0.86118 0.09046 0.59242 0.0
C18 C 0.85534 0.1265 0.60924 0.0
C19 C 0.8035 0.13407 0.6187 0.0
C20 C 0.75839 0.10449 0.61076 0.0
C21 C 0.76573 0.06662 0.59382 0.0
C22 C 0.81816 0.06132 0.58486 0.0
H23 H 0.88996 0.1494 0.61529 0.0
O24 O 0.99314 0.02955 0.62926 0.0
O25 O 0.95455 0.02475 0.59678 0.0
O26 O 0.04064 0.11037 0.60045 0.0
O27 O 0.96246 0.14089 0.58648 0.0
C28 C 0.72325 0.03342 0.58568 0.0
C29 C 0.73414 0.99481 0.56909 0.0
H30 H 0.77142 0.92289 0.53812 0.0
H31 H 0.86794 0.91629 0.52565 0.0
H32 H 0.79823 0.16287 0.63198 0.0
H33 H 0.71828 0.11095 0.61783 0.0
H34 H 0.68224 0.03666 0.5923 0.0
H35 H 0.70136 0.96886 0.56322 0.0
Mn36 Mn 0.2871 0.75257 0.85029 0.0
Mn37 Mn 0.23672 0.64817 0.82043 0.0
C38 C 0.29549 0.66363 0.86291 0.0
C39 C 0.35264 0.81467 0.86299 0.0
C40 C 0.16442 0.72763 0.84463 0.0
O41 O 0.28745 0.78443 0.81966 0.0
O42 O 0.24932 0.71331 0.80148 0.0
C43 C 0.32537 0.62419 0.78876 0.0
N44 N 0.29288 0.60797 0.80568 0.0
C45 C 0.32488 0.51527 0.80245 0.0
C46 C 0.35882 0.53113 0.78509 0.0
C47 C 0.35911 0.58585 0.77825 0.0
C48 C 0.29176 0.55521 0.81218 0.0
H49 H 0.32505 0.66584 0.78306 0.0
C50 C 0.27037 0.7614 0.80219 0.0
O51 O 0.30067 0.82434 0.86387 0.0
O52 O 0.36738 0.76871 0.85402 0.0
N53 N 0.22544 0.58316 0.83713 0.0
C54 C 0.19074 0.57466 0.85423 0.0
C55 C 0.18686 0.5223 0.86345 0.0
C56 C 0.21837 0.4793 0.85487 0.0
C57 C 0.2544 0.48927 0.83751 0.0
C58 C 0.2568 0.54232 0.82909 0.0
H59 H 0.16617 0.6076 0.86073 0.0
O60 O 0.29064 0.70443 0.87643 0.0
O61 O 0.29018 0.67558 0.84225 0.0
O62 O 0.20361 0.75679 0.85155 0.0
O63 O 0.17231 0.68402 0.83379 0.0
C64 C 0.28783 0.44854 0.82816 0.0
C65 C 0.32285 0.46148 0.81057 0.0
H66 H 0.38496 0.50169 0.77695 0.0
H67 H 0.38491 0.59838 0.76477 0.0
H68 H 0.15929 0.51494 0.87698 0.0
H69 H 0.2144 0.43867 0.86159 0.0
H70 H 0.28683 0.40711 0.83435 0.0
H71 H 0.34823 0.4298 0.80347 0.0
Mn72 Mn 0.57024 1.0058 0.10007 0.0
Mn73 Mn 0.67646 0.95037 0.07255 0.0
C74 C 0.65856 1.01261 0.114 0.0
C75 C 0.50991 0.0743 0.11176 0.0
C76 C 0.59085 0.88238 0.0953 0.0
O77 O 0.54191 1.00555 0.06872 0.0
O78 O 0.61472 0.9654 0.05215 0.0
C79 C 0.71041 0.03512 0.04085 0.0
N80 N 0.7218 1.00374 0.05869 0.0
C81 C 0.81639 0.0314 0.05812 0.0
C82 C 0.80543 0.06458 0.03996 0.0
C83 C 0.75223 0.06633 0.03127 0.0
C84 C 0.77317 1.00084 0.06686 0.0
H85 H 0.66994 0.03584 0.0338 0.0
C86 C 0.56684 0.98716 0.05183 0.0
O87 O 0.49743 0.02301 0.11246 0.0
O88 O 0.55703 0.08663 0.10316 0.0
N89 N 0.73797 0.93644 0.09099 0.0
C90 C 0.74199 0.90122 0.10814 0.0
C91 C 0.79264 0.89439 0.11861 0.0
C92 C 0.83849 0.92364 0.11124 0.0
C93 C 0.83304 0.9606 0.0939 0.0
C94 C 0.7815 0.96582 0.08416 0.0
H95 H 0.70691 0.87823 0.11367 0.0
O96 O 0.61643 1.00938 0.12696 0.0
O97 O 0.64814 1.00576 0.09331 0.0
O98 O 0.5626 0.92263 0.10186 0.0
O99 O 0.63558 0.88848 0.08505 0.0
C100 C 0.87688 0.99183 0.08569 0.0
C101 C 0.8686 0.02709 0.06776 0.0
H102 H 0.83755 0.08874 0.03252 0.0
H103 H 0.74356 0.09138 0.01712 0.0
H104 H 0.79654 0.8661 0.1321 0.0
H105 H 0.87786 0.91679 0.11877 0.0
H106 H 0.91722 0.98872 0.09294 0.0
H107 H 0.90273 0.0505 0.06145 0.0
Mn108 Mn 0.3216 0.27158 0.35248 0.0
Mn109 Mn 0.37315 0.37949 0.32512 0.0
C110 C 0.31764 0.35798 0.36849 0.0
C111 C 0.25493 0.20939 0.36425 0.0
C112 C 0.44434 0.29298 0.34568 0.0
O113 O 0.31717 0.24543 0.32102 0.0
O114 O 0.35463 0.31906 0.3045 0.0
C115 C 0.27938 0.41337 0.29753 0.0
N116 N 0.31794 0.42553 0.31286 0.0
C117 C 0.29399 0.52091 0.31199 0.0
C118 C 0.25389 0.50935 0.29625 0.0
C119 C 0.24655 0.45535 0.289 0.0
C120 C 0.32581 0.4775 0.31974 0.0
H121 H 0.27398 0.37209 0.29171 0.0
C122 C 0.333 0.27129 0.30407 0.0
O123 O 0.30651 0.19773 0.3639 0.0
O124 O 0.24112 0.25754 0.35713 0.0
N125 N 0.39144 0.44074 0.34303 0.0
C126 C 0.42942 0.44419 0.35927 0.0
C127 C 0.44137 0.49531 0.36852 0.0
C128 C 0.41419 0.54216 0.36094 0.0
C129 C 0.37405 0.53731 0.34467 0.0
C130 C 0.36441 0.48543 0.33588 0.0
H131 H 0.45097 0.40832 0.36488 0.0
O132 O 0.323 0.31375 0.38004 0.0
O133 O 0.32054 0.35087 0.34731 0.0
O134 O 0.40491 0.26401 0.35246 0.0
O135 O 0.43685 0.33811 0.33597 0.0
C136 C 0.34331 0.58185 0.33681 0.0
C137 C 0.30316 0.57362 0.32054 0.0
H138 H 0.22834 0.54156 0.28969 0.0
H139 H 0.21583 0.44614 0.27679 0.0
H140 H 0.472 0.49873 0.38123 0.0
H141 H 0.42479 0.5817 0.3676 0.0
H142 H 0.34981 0.6225 0.34333 0.0
H143 H 0.2793 0.60806 0.31483 0.0
Mn144 Mn 0.03765 0.99117 0.41632 0.0
Mn145 Mn 0.92674 0.94334 0.44281 0.0
C146 C 0.95249 0.9956 0.39948 0.0
C147 C 0.10116 0.05621 0.40415 0.0
C148 C 1.0108 0.86925 0.42255 0.0
O149 O 0.06206 0.99701 0.44788 0.0
O150 O 0.98867 0.95668 0.46349 0.0
C151 C 0.90042 0.03865 0.47093 0.0
N152 N 0.88486 1.00104 0.45571 0.0
C153 C 0.7915 0.03237 0.45705 0.0
C154 C 0.80655 0.0713 0.47278 0.0
C155 C 0.86127 0.07449 0.47972 0.0
C156 C 0.83215 0.99721 0.44912 0.0
H157 H 0.94226 0.04117 0.47643 0.0
C158 C 0.03613 0.97907 0.46448 0.0
O159 O 0.11245 1.00466 0.40526 0.0
O160 O 0.05298 0.07089 0.41106 0.0
N161 N 0.86356 0.93023 0.42514 0.0
C162 C 0.85715 0.89445 0.40827 0.0
C163 C 0.80521 0.88781 0.39881 0.0
C164 C 0.76056 0.91809 0.40678 0.0
C165 C 0.76849 0.95564 0.42379 0.0
C166 C 0.82098 0.95997 0.43277 0.0
H167 H 0.89142 0.87113 0.40215 0.0
O168 O 0.99733 0.98866 0.38838 0.0
O169 O 0.9581 0.99426 0.42075 0.0
O170 O 0.04315 0.90767 0.41737 0.0
O171 O 0.96406 0.87817 0.43094 0.0
C172 C 0.72655 0.98954 0.43196 0.0
C173 C 0.73807 0.02793 0.44856 0.0
H174 H 0.77656 0.09933 0.47947 0.0
H175 H 0.87324 0.10447 0.49182 0.0
H176 H 0.79952 0.85927 0.38547 0.0
H177 H 0.72042 0.91256 0.39962 0.0
H178 H 0.68551 0.98706 0.42533 0.0
H179 H 0.70573 0.05444 0.45443 0.0
Mn180 Mn 0.31645 0.74842 0.66737 0.0
Mn181 Mn 0.36644 0.64399 0.69714 0.0
C182 C 0.30754 0.65934 0.65482 0.0
C183 C 0.25104 0.81042 0.6544 0.0
C184 C 0.43906 0.72143 0.67242 0.0
O185 O 0.31606 0.78068 0.69794 0.0
O186 O 0.35692 0.71056 0.7157 0.0
C187 C 0.27895 0.62444 0.72979 0.0
N188 N 0.31033 0.60617 0.71285 0.0
C189 C 0.27723 0.51431 0.71763 0.0
C190 C 0.24444 0.53228 0.73504 0.0
C191 C 0.24523 0.58761 0.7411 0.0
C192 C 0.31037 0.55282 0.70708 0.0
H193 H 0.28012 0.66659 0.73489 0.0
C194 C 0.33546 0.7585 0.71517 0.0
O195 O 0.30304 0.82004 0.65363 0.0
O196 O 0.2362 0.76469 0.66345 0.0
N197 N 0.37506 0.5776 0.68098 0.0
C198 C 0.40788 0.56723 0.66345 0.0
C199 C 0.41004 0.51414 0.65476 0.0
C200 C 0.37872 0.47235 0.6643 0.0
C201 C 0.34458 0.48424 0.68209 0.0
C202 C 0.34384 0.53794 0.68993 0.0
H203 H 0.43206 0.59931 0.65614 0.0
O204 O 0.31295 0.69991 0.64128 0.0
O205 O 0.31272 0.67145 0.67549 0.0
O206 O 0.4003 0.7524 0.66635 0.0
O207 O 0.43058 0.67726 0.68274 0.0
C208 C 0.31129 0.44487 0.69234 0.0
C209 C 0.27786 0.45984 0.71018 0.0
H210 H 0.21832 0.50402 0.74379 0.0
H211 H 0.22031 0.60177 0.7546 0.0
H212 H 0.43606 0.50534 0.64087 0.0
H213 H 0.3812 0.4312 0.65791 0.0
H214 H 0.31108 0.40297 0.68663 0.0
H215 H 0.25246 0.42922 0.71794 0.0
Mn216 Mn 0.56987 0.0323 0.91508 0.0
Mn217 Mn 0.67858 0.08343 0.94195 0.0
C218 C 0.65552 0.02886 0.8986 0.0
C219 C 0.50731 0.96643 0.90306 0.0
C220 C 0.59269 0.15493 0.92166 0.0
O221 O 0.54457 0.02672 0.94653 0.0
O222 O 0.61658 0.06869 0.96248 0.0
C223 C 0.7073 0.98989 0.9705 0.0
N224 N 0.72187 0.02716 0.95503 0.0
C225 C 0.81598 0.99819 0.95646 0.0
C226 C 0.80194 0.95957 0.97242 0.0
C227 C 0.74736 0.95541 0.97945 0.0
C228 C 0.77446 0.03208 0.9484 0.0
H229 H 0.66555 0.98666 0.97609 0.0
C230 C 0.56947 0.04548 0.96324 0.0
O231 O 0.49557 0.01788 0.90391 0.0
O232 O 0.55574 0.95229 0.90986 0.0
N233 N 0.74155 0.09801 0.92435 0.0
C234 C 0.74717 0.1339 0.90751 0.0
C235 C 0.79889 0.14135 0.89794 0.0
C236 C 0.84415 0.11194 0.90583 0.0
C237 C 0.8371 0.0745 0.92291 0.0
C238 C 0.78475 0.06919 0.93194 0.0
H239 H 0.71247 0.15682 0.90154 0.0
O240 O 0.61087 0.03515 0.88733 0.0
O241 O 0.64933 0.03087 0.91987 0.0
O242 O 0.56249 0.11532 0.91601 0.0
O243 O 0.63964 0.14772 0.93011 0.0
C244 C 0.87981 0.04174 0.93113 0.0
C245 C 0.86925 1.00359 0.94789 0.0
H246 H 0.83263 0.93257 0.97923 0.0
H247 H 0.7362 0.92573 0.99178 0.0
H248 H 0.80396 0.16991 0.8846 0.0
H249 H 0.88412 0.1182 0.89862 0.0
H250 H 0.92077 0.04499 0.92446 0.0
H251 H 0.90223 0.97804 0.95384 0.0
Mn252 Mn 0.29237 0.28454 0.16838 0.0
Mn253 Mn 0.24071 0.38964 0.19741 0.0
C254 C 0.29994 0.37305 0.15534 0.0
C255 C 0.35943 0.22434 0.1553 0.0
C256 C 0.16948 0.31091 0.17286 0.0
O257 O 0.29321 0.25362 0.19914 0.0
O258 O 0.24957 0.3234 0.21614 0.0
C259 C 0.32686 0.40995 0.23056 0.0
N260 N 0.29618 0.42783 0.21338 0.0
C261 C 0.32904 0.51982 0.21816 0.0
C262 C 0.36122 0.50221 0.23577 0.0
C263 C 0.36011 0.44703 0.24199 0.0
C264 C 0.29629 0.48108 0.20751 0.0
H265 H 0.32553 0.36792 0.23575 0.0
C266 C 0.2721 0.27592 0.21606 0.0
O267 O 0.30778 0.21257 0.15483 0.0
O268 O 0.3728 0.27039 0.16446 0.0
N269 N 0.23256 0.45576 0.1811 0.0
C270 C 0.20021 0.46583 0.16342 0.0
C271 C 0.19813 0.51881 0.15469 0.0
C272 C 0.22909 0.5608 0.16431 0.0
C273 C 0.26279 0.54921 0.18224 0.0
C274 C 0.2634 0.49562 0.19016 0.0
H275 H 0.17633 0.43361 0.15605 0.0
O276 O 0.29482 0.33187 0.14204 0.0
O277 O 0.29499 0.36187 0.17608 0.0
O278 O 0.20848 0.2793 0.16751 0.0
O279 O 0.1775 0.35601 0.18262 0.0
C280 C 0.29572 0.58879 0.19258 0.0
C281 C 0.32862 0.57416 0.2106 0.0
H282 H 0.38706 0.53065 0.24459 0.0
H283 H 0.38451 0.43317 0.25567 0.0
H284 H 0.17243 0.52736 0.1407 0.0
H285 H 0.22667 0.60187 0.15788 0.0
H286 H 0.29604 0.6306 0.18681 0.0
H287 H 0.35375 0.60494 0.21843 0.0
Mn288 Mn 0.82101 0.25506 0.16479 0.0
Mn289 Mn 0.87216 0.14679 0.19209 0.0
C290 C 0.81693 0.16868 0.14876 0.0
C291 C 0.75452 0.31752 0.15301 0.0
C292 C 0.94371 0.23315 0.17161 0.0
O293 O 0.81668 0.2811 0.19629 0.0
O294 O 0.85384 0.2072 0.21275 0.0
C295 C 0.77798 0.11332 0.21955 0.0
N296 N 0.8166 0.10101 0.20424 0.0
C297 C 0.79171 1.00588 0.20483 0.0
C298 C 0.75155 0.01759 0.22054 0.0
C299 C 0.74464 0.07155 0.22791 0.0
C300 C 0.82402 0.04909 0.19723 0.0
H301 H 0.7729 0.15456 0.22546 0.0
C302 C 0.83242 0.25506 0.21322 0.0
O303 O 0.80614 0.32899 0.15339 0.0
O304 O 0.74057 0.26945 0.16016 0.0
N305 N 0.89021 0.08555 0.17412 0.0
C306 C 0.92836 0.08194 0.15793 0.0
C307 C 0.93996 0.03082 0.1486 0.0
C308 C 0.91226 0.98414 0.15603 0.0
C309 C 0.87197 0.98917 0.17224 0.0
C310 C 0.8627 0.04103 0.18112 0.0
H311 H 0.95031 0.11767 0.15244 0.0
O312 O 0.8222 0.2129 0.1372 0.0
O313 O 0.81979 0.17581 0.16993 0.0
O314 O 0.90436 0.26224 0.16482 0.0
O315 O 0.93609 0.18799 0.1813 0.0
C316 C 0.84074 0.94481 0.17995 0.0
C317 C 0.80048 0.9532 0.19618 0.0
H318 H 0.72561 0.98554 0.22698 0.0
H319 H 0.71386 0.08088 0.24009 0.0
H320 H 0.97072 0.02727 0.13594 0.0
H321 H 0.92257 0.94458 0.14932 0.0
H322 H 0.84696 0.90419 0.17336 0.0
H323 H 0.77624 0.91892 0.20177 0.0
Mn324 Mn 0.78807 0.77597 0.66728 0.0
Mn325 Mn 0.73523 0.8805 0.69635 0.0
C326 C 0.79553 0.86463 0.65428 0.0
C327 C 0.85445 0.7143 0.6548 0.0
C328 C 0.66478 0.79972 0.67226 0.0
O329 O 0.78851 0.74503 0.69806 0.0
O330 O 0.74687 0.81544 0.71546 0.0
C331 C 0.82202 0.9049 0.72876 0.0
N332 N 0.79028 0.921 0.71161 0.0
C333 C 0.82112 0.01398 0.71526 0.0
C334 C 0.8543 0.99825 0.73287 0.0
C335 C 0.85481 0.94344 0.73961 0.0
C336 C 0.78897 0.97382 0.70518 0.0
H337 H 0.82182 0.86316 0.73438 0.0
C338 C 0.76901 0.7678 0.71519 0.0
O339 O 0.8026 0.70406 0.65402 0.0
O340 O 0.86869 0.76066 0.66356 0.0
N341 N 0.72454 0.94545 0.67956 0.0
C342 C 0.69079 0.95377 0.66215 0.0
C343 C 0.68692 1.00618 0.65297 0.0
C344 C 0.71743 0.04941 0.66192 0.0
C345 C 0.7525 0.03964 0.6796 0.0
C346 C 0.75494 0.98653 0.68796 0.0
H347 H 0.66696 0.92065 0.65539 0.0
O348 O 0.7911 0.82341 0.64094 0.0
O349 O 0.79001 0.85327 0.67499 0.0
O350 O 0.70456 0.77033 0.66603 0.0
O351 O 0.67182 0.8444 0.68245 0.0
C352 C 0.7849 0.0806 0.68932 0.0
C353 C 0.819 0.06783 0.70721 0.0
H354 H 0.87968 0.02785 0.74128 0.0
H355 H 0.88003 0.93103 0.75328 0.0
H356 H 0.6601 0.01339 0.63919 0.0
H357 H 0.71344 0.09008 0.65522 0.0
H358 H 0.78383 0.12208 0.68319 0.0
H359 H 0.84363 0.09968 0.71459 0.0
Mn360 Mn 0.79285 0.24187 0.34909 0.0
Mn361 Mn 0.74164 0.13617 0.32031 0.0
C362 C 0.80075 0.15356 0.36233 0.0
C363 C 0.85977 0.3024 0.36197 0.0
C364 C 0.67008 0.21513 0.34466 0.0
O365 O 0.79343 0.27239 0.31826 0.0
O366 O 0.75047 0.20204 0.30137 0.0
C367 C 0.82816 0.11533 0.28735 0.0
N368 N 0.79737 0.09776 0.30455 0.0
C369 C 0.83083 1.00583 0.30025 0.0
C370 C 0.86313 0.02311 0.28261 0.0
C371 C 0.86177 0.07811 0.27614 0.0
C372 C 0.79772 0.04468 0.31067 0.0
H373 H 0.82667 0.15723 0.28198 0.0
C374 C 0.77259 0.24969 0.30137 0.0
O375 O 0.80808 0.31406 0.36247 0.0
O376 O 0.87324 0.25627 0.35289 0.0
N377 N 0.73353 0.07041 0.33685 0.0
C378 C 0.70101 0.06066 0.35451 0.0
C379 C 0.6991 1.00792 0.36347 0.0
C380 C 0.73041 0.96582 0.35409 0.0
C381 C 0.76428 0.97709 0.33617 0.0
C382 C 0.7647 0.03045 0.32802 0.0
H383 H 0.67687 0.09297 0.36171 0.0
O384 O 0.79561 0.19491 0.37555 0.0
O385 O 0.79569 0.16448 0.34158 0.0
O386 O 0.70898 0.2468 0.35004 0.0
O387 O 0.67824 0.17003 0.33491 0.0
C388 C 0.79759 0.9374 0.32607 0.0
C389 C 0.83065 0.95171 0.30806 0.0
H390 H 0.88925 0.99457 0.27397 0.0
H391 H 0.88628 0.09172 0.26245 0.0
H392 H 0.67327 0.99963 0.37746 0.0
H393 H 0.72813 0.92492 0.3607 0.0
H394 H 0.79808 0.89576 0.33204 0.0
H395 H 0.85606 0.92084 0.30041 0.0
Mn396 Mn 0.8154 0.7788 0.8504 0.0
Mn397 Mn 0.86593 0.88273 0.82048 0.0
C398 C 0.80746 0.86802 0.86294 0.0
C399 C 0.74795 0.71904 0.86321 0.0
C400 C 0.93813 0.80409 0.84503 0.0
O401 O 0.81471 0.74651 0.81985 0.0
O402 O 0.85448 0.81674 0.80175 0.0
C403 C 0.77783 0.90466 0.78835 0.0
N404 N 0.80994 0.92191 0.80524 0.0
C405 C 0.77764 0.01429 0.80123 0.0
C406 C 0.74414 0.99739 0.78387 0.0
C407 C 0.74417 0.9423 0.77746 0.0
C408 C 0.81074 0.97502 0.81134 0.0
H409 H 0.77837 0.86271 0.78299 0.0
C410 C 0.83285 0.7689 0.80245 0.0
O411 O 0.7996 0.70735 0.86421 0.0
O412 O 0.73499 0.76499 0.85393 0.0
N413 N 0.87609 0.94852 0.83689 0.0
C414 C 0.90928 0.95775 0.8544 0.0
C415 C 0.91221 1.01044 0.86344 0.0
C416 C 0.88113 0.05298 0.85431 0.0
C417 C 0.84643 0.04221 0.83659 0.0
C418 C 0.84498 0.98887 0.82837 0.0
H419 H 0.93304 0.92506 0.86147 0.0
O420 O 0.81235 0.82743 0.8765 0.0
O421 O 0.81267 0.85571 0.8423 0.0
O422 O 0.8993 0.77366 0.85149 0.0
O423 O 0.9298 0.84791 0.83443 0.0
C424 C 0.81316 0.08232 0.8268 0.0
C425 C 0.77902 0.06844 0.80904 0.0
H426 H 0.71803 0.02628 0.77545 0.0
H427 H 0.71866 0.92895 0.764 0.0
H428 H 0.93855 0.01833 0.87731 0.0
H429 H 0.88417 0.0938 0.86098 0.0
H430 H 0.81349 0.12396 0.83281 0.0
H431 H 0.75365 0.09963 0.80163 0.0
Mn432 Mn 0.53663 0.53592 0.10138 0.0
Mn433 Mn 0.42535 0.58404 0.07518 0.0
C434 C 0.45158 0.53128 0.11835 0.0
C435 C 0.60038 0.47071 0.11324 0.0
C436 C 0.5098 0.65793 0.09531 0.0
O437 O 0.56067 0.53054 0.06973 0.0
O438 O 0.48684 0.57056 0.0543 0.0
C439 C 0.39824 0.48888 0.04712 0.0
N440 N 0.38308 0.52648 0.06241 0.0
C441 C 0.28968 0.49526 0.06146 0.0
C442 C 0.30431 0.45632 0.04566 0.0
C443 C 0.35886 0.45308 0.0385 0.0
C444 C 0.33054 0.53036 0.06923 0.0
H445 H 0.43994 0.48632 0.04144 0.0
C446 C 0.53438 0.54837 0.0532 0.0
O447 O 0.61158 0.52228 0.11225 0.0
O448 O 0.55211 0.45612 0.10642 0.0
N449 N 0.36258 0.59729 0.09308 0.0
C450 C 0.35658 0.63312 0.10996 0.0
C451 C 0.30486 0.63986 0.11962 0.0
C452 C 0.26001 0.60962 0.11183 0.0
C453 C 0.26752 0.572 0.09481 0.0
C454 C 0.3198 0.56758 0.08563 0.0
H455 H 0.391 0.65645 0.11592 0.0
O456 O 0.49651 0.53793 0.12941 0.0
O457 O 0.45707 0.53296 0.09708 0.0
O458 O 0.54205 0.61943 0.10051 0.0
O459 O 0.46308 0.6491 0.0869 0.0
C460 C 0.22537 0.53816 0.08682 0.0
C461 C 0.23646 0.49975 0.07017 0.0
H462 H 0.27415 0.42833 0.0391 0.0
H463 H 0.37051 0.4231 0.02633 0.0
H464 H 0.29949 0.66845 0.13296 0.0
H465 H 0.22003 0.61527 0.11913 0.0
H466 H 0.18448 0.54072 0.09361 0.0
H467 H 0.20396 0.47328 0.06444 0.0
Mn468 Mn 0.07061 0.49612 0.60201 0.0
Mn469 Mn 0.17971 0.44371 0.57581 0.0
C470 C 0.15587 0.49903 0.6188 0.0
C471 C 1.00824 0.56236 0.61403 0.0
C472 C 0.09303 0.37313 0.59586 0.0
O473 O 0.04619 0.50164 0.57043 0.0
O474 O 0.11785 0.45751 0.55512 0.0
C475 C 0.20854 0.53629 0.54678 0.0
N476 N 0.223 0.49966 0.56251 0.0
C477 C 0.31694 0.52916 0.56124 0.0
C478 C 0.30301 0.56717 0.54503 0.0
C479 C 0.24858 0.57073 0.53778 0.0
C480 C 0.27546 0.49531 0.56935 0.0
H481 H 0.1669 0.53905 0.54102 0.0
C482 C 0.07098 0.48115 0.554 0.0
O483 O 0.99622 0.51101 0.61297 0.0
O484 O 0.05677 0.57628 0.60726 0.0
N485 N 0.2425 0.42986 0.59359 0.0
C486 C 0.24805 0.39436 0.61057 0.0
C487 C 0.29965 0.3874 0.6203 0.0
C488 C 0.34487 0.41689 0.61241 0.0
C489 C 0.33789 0.4539 0.59518 0.0
C490 C 0.28566 0.45872 0.586 0.0
H491 H 0.21339 0.37138 0.61654 0.0
O492 O 0.11094 0.49309 0.62993 0.0
O493 O 0.15015 0.49693 0.59753 0.0
O494 O 0.06264 0.41306 0.60101 0.0
O495 O 0.14066 0.37988 0.58797 0.0
C496 C 0.38055 0.48668 0.58694 0.0
C497 C 0.37008 0.52431 0.56999 0.0
H498 H 0.33368 0.59413 0.53818 0.0
H499 H 0.23751 0.59991 0.52526 0.0
H500 H 0.30467 0.35917 0.63375 0.0
H501 H 0.38476 0.41102 0.61974 0.0
H502 H 0.4214 0.48382 0.59372 0.0
H503 H 0.40302 0.54986 0.56401 0.0
Mn504 Mn 0.53286 0.50157 0.91616 0.0
Mn505 Mn 0.42305 0.45072 0.94236 0.0
C506 C 0.44767 0.50439 0.89918 0.0
C507 C 0.59385 0.56891 0.90424 0.0
C508 C 0.5094 0.379 0.92226 0.0
O509 O 0.5569 0.50774 0.94776 0.0
O510 O 0.48446 0.46528 0.96317 0.0
C511 C 0.39384 0.54478 0.97067 0.0
N512 N 0.37948 0.50705 0.95532 0.0
C513 C 0.28527 0.53574 0.95658 0.0
C514 C 0.29907 0.5748 0.97244 0.0
C515 C 0.3536 0.57937 0.97948 0.0
C516 C 0.32697 0.50186 0.94862 0.0
H517 H 0.43557 0.54833 0.97625 0.0
C518 C 0.53147 0.48856 0.96426 0.0
O519 O 0.60743 0.51784 0.90521 0.0
O520 O 0.54516 0.58158 0.91116 0.0
N521 N 0.36048 0.43619 0.92453 0.0
C522 C 0.3553 0.40064 0.90751 0.0
C523 C 0.30367 0.39273 0.89793 0.0
C524 C 0.25809 0.42153 0.90593 0.0
C525 C 0.26477 0.459 0.92306 0.0
C526 C 0.31702 0.46463 0.93215 0.0
H527 H 0.3903 0.37845 0.90138 0.0
O528 O 0.49274 0.49825 0.88815 0.0
O529 O 0.45319 0.50268 0.92046 0.0
O530 O 0.54091 0.41816 0.91714 0.0
O531 O 0.46226 0.38685 0.93046 0.0
C532 C 0.22182 0.49157 0.93125 0.0
C533 C 0.23208 0.52998 0.94797 0.0
H534 H 0.26824 0.60188 0.97914 0.0
H535 H 0.36459 0.60945 0.9917 0.0
H536 H 0.29893 0.36432 0.88449 0.0
H537 H 0.21817 0.41486 0.89875 0.0
H538 H 0.18093 0.48806 0.92453 0.0
H539 H 0.19895 0.55548 0.95385 0.0
Mn540 Mn 0.07036 0.52137 0.41688 0.0
Mn541 Mn 0.17677 0.57567 0.4446 0.0
C542 C 0.15871 0.51416 0.40298 0.0
C543 C 1.00997 0.45297 0.40525 0.0
C544 C 0.09106 0.64449 0.42214 0.0
O545 O 0.04198 0.52175 0.44824 0.0
O546 O 0.11565 0.55943 0.46513 0.0
C547 C 0.21211 0.48984 0.47557 0.0
N548 N 0.22272 0.5218 0.45782 0.0
C549 C 0.31716 0.49359 0.45739 0.0
C550 C 0.30699 0.45979 0.47544 0.0
C551 C 0.25426 0.45805 0.4846 0.0
C552 C 0.27367 0.52477 0.44923 0.0
H553 H 0.17199 0.48904 0.48295 0.0
C554 C 0.06744 0.53843 0.46529 0.0
O555 O 0.99755 0.50429 0.40447 0.0
O556 O 0.05702 0.44061 0.41389 0.0
N557 N 0.23761 0.59055 0.42591 0.0
C558 C 0.24095 0.62652 0.40898 0.0
C559 C 0.29107 0.63353 0.39814 0.0
C560 C 0.3371 0.60364 0.40488 0.0
C561 C 0.33236 0.56593 0.42199 0.0
C562 C 0.28132 0.56058 0.43214 0.0
H563 H 0.20571 0.64993 0.40391 0.0
O564 O 0.11669 0.51747 0.38998 0.0
O565 O 0.1481 0.52106 0.42365 0.0
O566 O 0.06318 0.60457 0.41505 0.0
O567 O 0.13522 0.63793 0.43274 0.0
C568 C 0.37642 0.53403 0.42958 0.0
C569 C 0.36887 0.498 0.44732 0.0
H570 H 0.33936 0.43514 0.48243 0.0
H571 H 0.2462 0.43249 0.49866 0.0
H572 H 0.29441 0.6624 0.38482 0.0
H573 H 0.37606 0.61059 0.39703 0.0
H574 H 0.41638 0.53721 0.422 0.0
H575 H 0.40318 0.47411 0.45317 0.0
C576 C 0.08593 0.21741 0.59776 0.0
C577 C 0.02924 0.20655 0.59728 0.0
C578 C 0.10619 0.27117 0.59781 0.0
C579 C 0.0707 0.31653 0.59775 0.0
H580 H 0.11512 0.18411 0.59736 0.0
H581 H 0.15013 0.27716 0.59761 0.0
S582 S 0.91856 0.31057 0.59793 0.0
N583 N 0.9379 0.24599 0.59768 0.0
N584 N 0.97564 0.34661 0.59809 0.0
C585 C 0.01386 0.30623 0.59807 0.0
C586 C 0.99327 0.25148 0.59773 0.0
C587 C 1.00831 0.72922 0.84754 0.0
C588 C 0.99574 0.78541 0.84805 0.0
C589 C 0.06285 0.71071 0.84711 0.0
C590 C 0.10714 0.74754 0.84767 0.0
H591 H 0.97578 0.69928 0.84643 0.0
H592 H 0.07033 0.66719 0.8459 0.0
S593 S 0.09634 0.8988 0.85091 0.0
N594 N 0.03225 0.87755 0.85026 0.0
N595 N 0.1343 0.84305 0.85 0.0
C596 C 0.09505 0.80374 0.84928 0.0
C597 C 0.03957 0.82257 0.8493 0.0
C598 C 0.58564 0.72698 0.0978 0.0
C599 C 0.5291 0.71546 0.09776 0.0
C600 C 0.60521 0.78094 0.09775 0.0
C601 C 0.56918 0.82586 0.09808 0.0
H602 H 0.61522 0.69407 0.09702 0.0
H603 H 0.64903 0.78746 0.09704 0.0
S604 S 0.41733 0.81824 0.09974 0.0
N605 N 0.43732 0.75385 0.09916 0.0
N606 N 0.47398 0.85498 0.09946 0.0
C607 C 0.51256 0.81498 0.09902 0.0
C608 C 0.4926 0.75997 0.09873 0.0
C609 C 0.60028 0.29005 0.34759 0.0
C610 C 0.61256 0.23382 0.34786 0.0
C611 C 0.54591 0.30882 0.34748 0.0
C612 C 0.50143 0.27223 0.34805 0.0
H613 H 0.63287 0.31992 0.34648 0.0
H614 H 0.53874 0.35243 0.34655 0.0
S615 S 0.51137 0.12092 0.35076 0.0
N616 N 0.57558 0.14179 0.34993 0.0
N617 N 0.47369 0.17688 0.35015 0.0
C618 C 0.51317 0.21594 0.34938 0.0
C619 C 0.56855 0.19682 0.34914 0.0
C620 C 0.08645 0.79994 0.42024 0.0
C621 C 0.02996 0.81168 0.42006 0.0
C622 C 0.10583 0.74591 0.4202 0.0
C623 C 0.06965 0.70115 0.41952 0.0
H624 H 0.11611 0.83273 0.42127 0.0
H625 H 0.14961 0.73919 0.42109 0.0
S626 S 0.91791 0.70942 0.41718 0.0
N627 N 0.9381 0.77372 0.4181 0.0
N628 N 0.97442 0.67243 0.41758 0.0
C629 C 1.01312 0.71228 0.41835 0.0
C630 C 0.99333 0.76735 0.41877 0.0
C631 C 0.5088 0.79646 0.66918 0.0
C632 C 0.49666 0.74016 0.6693 0.0
C633 C 0.56314 0.81544 0.66939 0.0
C634 C 0.60777 0.77898 0.66927 0.0
H635 H 0.47607 0.82627 0.66994 0.0
H636 H 0.5702 0.85909 0.67012 0.0
S637 S 0.59828 0.62746 0.66769 0.0
N638 N 0.53398 0.6482 0.66808 0.0
N639 N 0.63576 0.68356 0.66801 0.0
C640 C 0.59616 0.72257 0.66829 0.0
C641 C 0.54082 0.70328 0.66845 0.0
C642 C 0.58634 0.31077 0.92034 0.0
C643 C 0.5297 0.32179 0.91992 0.0
C644 C 0.60643 0.25692 0.92039 0.0
C645 C 0.57081 0.21169 0.91966 0.0
H646 H 0.61551 0.34398 0.9214 0.0
H647 H 0.65029 0.25075 0.92131 0.0
S648 S 0.41885 0.21826 0.91685 0.0
N649 N 0.43837 0.28273 0.91775 0.0
N650 N 0.47578 0.182 0.91752 0.0
C651 C 0.5141 0.22222 0.91839 0.0
C652 C 0.49367 0.27702 0.91864 0.0
C653 C 0.09971 0.23596 0.16994 0.0
C654 C 0.112 0.29219 0.16961 0.0
C655 C 0.04534 0.21722 0.16999 0.0
C656 C 1.00086 0.25383 0.1693 0.0
H657 H 0.13231 0.2061 0.17113 0.0
H658 H 0.03816 0.17363 0.17097 0.0
S659 S 1.01084 0.40512 0.16638 0.0
N660 N 0.07503 0.38421 0.16734 0.0
N661 N 0.97315 0.34918 0.16701 0.0
C662 C 1.01262 0.31009 0.16791 0.0
C663 C 0.068 0.32919 0.1682 0.0
C664 C 0.05627 0.95475 0.50314 0.0
C665 C 0.05529 0.99422 0.48648 0.0
C666 C 0.05647 0.97026 0.52523 0.0
C667 C 0.05365 0.02565 0.53126 0.0
H668 H 0.05289 0.91179 0.49907 0.0
H669 H 0.05309 0.93871 0.53757 0.0
S670 S 0.05502 0.14447 0.49392 0.0
N671 N 0.05714 0.09086 0.47751 0.0
N672 N 0.05433 0.11984 0.51906 0.0
C673 C 0.05648 0.06538 0.51482 0.0
C674 C 0.05817 0.04965 0.49238 0.0
C675 C 0.24903 0.78813 0.76393 0.0
C676 C 0.2873 0.78413 0.78098 0.0
C677 C 0.26611 0.78843 0.74202 0.0
C678 C 0.32179 0.78247 0.73658 0.0
H679 H 0.20562 0.78617 0.76748 0.0
H680 H 0.23514 0.78657 0.72936 0.0
S681 S 0.43814 0.77685 0.77524 0.0
N682 N 0.38346 0.78119 0.79104 0.0
N683 N 0.41521 0.77839 0.74984 0.0
C684 C 0.36055 0.78337 0.75346 0.0
C685 C 0.34333 0.78506 0.77573 0.0
C686 C 0.54547 0.0563 0.0238 0.0
C687 C 0.54587 1.001 0.03 0.0
C688 C 0.54789 0.07123 1.00168 0.0
C689 C 0.54888 0.03133 0.98515 0.0
H690 H 0.5494 0.08801 0.03608 0.0
H691 H 0.55303 0.11395 0.99755 0.0
S692 S 0.54316 0.88137 0.99296 0.0
N693 N 0.5427 0.90661 0.01803 0.0
N694 N 0.54424 0.9346 0.97639 0.0
C695 C 0.54344 0.9762 0.99113 0.0
C696 C 0.5427 0.961 0.01363 0.0
C697 C 0.33963 0.24606 0.24364 0.0
C698 C 0.28437 0.2528 0.23772 0.0
C699 C 0.3555 0.24635 0.26569 0.0
C700 C 0.31637 0.25117 0.28241 0.0
H701 H 0.3713 0.24698 0.23124 0.0
H702 H 0.39874 0.24713 0.26962 0.0
S703 S 0.16611 0.26123 0.27544 0.0
N704 N 0.19032 0.25887 0.25023 0.0
N705 N 0.21987 0.25631 0.2917 0.0
C706 C 0.26069 0.25161 0.27671 0.0
C707 C 0.24469 0.25312 0.25431 0.0
C708 C 0.85524 0.27996 0.25156 0.0
C709 C 0.81593 0.27509 0.23492 0.0
C710 C 0.83965 0.27991 0.27364 0.0
C711 C 0.78451 0.27281 0.27967 0.0
H712 H 0.89843 0.27944 0.24753 0.0
H713 H 0.87148 0.27907 0.28597 0.0
S714 S 0.66584 0.26401 0.24221 0.0
N715 N 0.71936 0.26943 0.22583 0.0
N716 N 0.69035 0.26627 0.26737 0.0
C717 C 0.74463 0.27239 0.26318 0.0
C718 C 0.76033 0.27424 0.24074 0.0
C719 C 0.83885 0.74105 0.74229 0.0
C720 C 0.78311 0.74499 0.7367 0.0
C721 C 0.85553 0.74243 0.76424 0.0
C722 C 0.81686 0.74561 0.78119 0.0
H723 H 0.86994 0.74356 0.72969 0.0
H724 H 0.8988 0.74578 0.76788 0.0
S725 S 0.66595 0.74785 0.77505 0.0
N726 N 0.68937 0.74641 0.74972 0.0
N727 N 0.72046 0.74572 0.79101 0.0
C728 C 0.76097 0.74278 0.77581 0.0
C729 C 0.7441 0.74332 0.7535 0.0
C730 C 0.55431 0.55757 0.99243 0.0
C731 C 0.55123 0.50224 0.98632 0.0
C732 C 0.55429 0.5729 0.01454 0.0
C733 C 0.55325 0.5333 0.03114 0.0
H734 H 0.5511 0.58925 0.98013 0.0
H735 H 0.55115 0.61585 0.01867 0.0
S736 S 0.55219 0.38312 0.02352 0.0
N737 N 0.5515 0.40795 0.99841 0.0
N738 N 0.55462 0.43659 0.03999 0.0
C739 C 0.55577 0.4779 0.02518 0.0
C740 C 0.55389 0.46236 1.00271 0.0
C741 C 0.04302 0.54778 0.52562 0.0
C742 C 0.05034 0.49299 0.53189 0.0
C743 C 0.04228 0.56256 0.50346 0.0
C744 C 0.04682 0.52278 0.48698 0.0
H745 H 0.04368 0.5799 0.53783 0.0
H746 H 0.04258 0.60552 0.49922 0.0
S747 S 0.05903 0.37332 0.49497 0.0
N748 N 0.05712 0.39863 0.52001 0.0
N749 N 0.05304 0.42614 0.47836 0.0
C750 C 0.04829 0.46752 0.49308 0.0
C751 C 0.05077 0.45264 0.51558 0.0
C752 C 0.1567 0.83416 0.64053 0.0
C753 C 0.21153 0.84926 0.64436 0.0
C754 C 0.11999 0.86993 0.63001 0.0
C755 C 0.13672 0.92219 0.62308 0.0
H756 H 0.14211 0.7943 0.6455 0.0
H757 H 0.07808 0.85681 0.6276 0.0
S758 S 0.27599 0.98142 0.62911 0.0
N759 N 0.28048 0.92036 0.6403 0.0
N760 N 0.21219 0.98676 0.6206 0.0
C761 C 0.19148 0.93757 0.62678 0.0
C762 C 0.22865 0.90137 0.6374 0.0
C763 C 0.44738 0.83915 0.87606 0.0
C764 C 0.39223 0.85376 0.87281 0.0
C765 C 0.48436 0.87505 0.88637 0.0
C766 C 0.46751 0.927 0.89365 0.0
H767 H 0.46193 0.79958 0.87072 0.0
H768 H 0.52654 0.86238 0.88833 0.0
S769 S 0.32737 0.98506 0.88915 0.0
N770 N 0.32282 0.92414 0.87778 0.0
N771 N 0.3916 0.99085 0.89708 0.0
C772 C 0.41241 0.94195 0.89052 0.0
C773 C 0.37499 0.90559 0.88011 0.0
C774 C 0.41885 0.09965 0.1271 0.0
C775 C 0.4727 0.11527 0.12184 0.0
C776 C 0.38325 0.13501 0.13812 0.0
C777 C 0.39987 0.18761 0.14459 0.0
H778 H 0.40384 0.05944 0.12275 0.0
H779 H 0.34223 0.12068 0.14163 0.0
S780 S 0.53653 0.24892 0.13474 0.0
N781 N 0.541 0.1873 0.12386 0.0
N782 N 0.4739 0.254 0.1447 0.0
C783 C 0.45359 0.20406 0.13943 0.0
C784 C 0.48994 0.16795 0.12799 0.0
C785 C 0.12629 0.1503 0.39065 0.0
C786 C 0.1407 0.09527 0.39421 0.0
C787 C 0.16273 0.18689 0.38044 0.0
C788 C 0.21495 0.16984 0.37348 0.0
H789 H 0.08656 0.16521 0.39575 0.0
H790 H 0.15035 0.229 0.37833 0.0
S791 S 0.27228 0.02975 0.37837 0.0
N792 N 0.21098 0.02562 0.38954 0.0
N793 N 0.2786 0.09375 0.37041 0.0
C794 C 0.22959 0.11484 0.37678 0.0
C795 C 0.19274 0.07777 0.38712 0.0
C796 C 0.8685 0.05532 0.40157 0.0
C797 C 0.90682 0.0267 0.38878 0.0
C798 C 0.83026 0.09139 0.39242 0.0
C799 C 0.83213 0.10519 0.37016 0.0
H800 H 0.87126 0.05426 0.419 0.0
H801 H 0.80216 0.11233 0.40329 0.0
S802 S 0.93659 0.05634 0.33051 0.0
N803 N 0.94741 0.01935 0.35257 0.0
N804 N 0.88469 0.09666 0.33662 0.0
C805 C 0.87303 0.08034 0.3573 0.0
C806 C 0.90836 0.03932 0.36626 0.0
C807 C 0.7212 0.04535 0.14368 0.0
C808 C 0.70675 0.04525 0.12146 0.0
C809 C 0.75757 0.08442 0.15221 0.0
C810 C 0.78556 0.12194 0.13884 0.0
H811 H 0.70072 0.01804 0.15495 0.0
H812 H 0.75928 0.08841 0.1696 0.0
S813 S 0.75329 0.14714 0.08045 0.0
N814 N 0.71369 0.09542 0.08733 0.0
N815 N 0.79108 0.15981 0.10217 0.0
C816 C 0.77197 0.12167 0.1164 0.0
C817 C 0.73088 0.08539 0.10805 0.0
C818 C 0.7783 0.93286 0.89235 0.0
C819 C 0.77597 0.91694 0.8703 0.0
C820 C 0.74016 0.96975 0.90116 0.0
C821 C 0.70123 0.99689 0.88818 0.0
H822 H 0.80679 0.91307 0.90337 0.0
H823 H 0.73803 0.97261 0.91857 0.0
S824 S 0.6702 0.96142 0.83047 0.0
N825 N 0.72251 0.92205 0.83691 0.0
N826 N 0.65973 1.00043 0.85203 0.0
C827 C 0.69924 0.98205 0.86585 0.0
C828 C 0.7346 0.94039 0.8573 0.0
C829 C 0.82575 0.92742 0.62446 0.0
C830 C 0.82702 0.91328 0.6467 0.0
C831 C 0.86426 0.9636 0.61552 0.0
C832 C 0.90237 0.99196 0.6285 0.0
H833 H 0.79794 0.90665 0.61344 0.0
H834 H 0.8674 0.96491 0.5981 0.0
S835 S 0.93048 0.96166 0.68684 0.0
N836 N 0.8787 0.92148 0.68046 0.0
N837 N 0.94196 0.99883 0.66488 0.0
C838 C 0.90325 0.97906 0.65099 0.0
C839 C 0.86761 0.93801 0.65976 0.0
C840 C 0.66174 0.34049 0.13745 0.0
C841 C 0.71467 0.3571 0.14366 0.0
C842 C 0.62516 0.377 0.12727 0.0
C843 C 0.64013 0.43154 0.12299 0.0
H844 H 0.64881 0.29879 0.1402 0.0
H845 H 0.58481 0.36248 0.12283 0.0
S846 S 0.7739 0.49577 0.13645 0.0
N847 N 0.77976 0.43227 0.14508 0.0
N848 N 0.71187 0.50019 0.12598 0.0
C849 C 0.69295 0.44859 0.12924 0.0
C850 C 0.72995 0.41161 0.13956 0.0
C851 C 0.88352 0.39206 0.37886 0.0
C852 C 0.90015 0.33931 0.37258 0.0
C853 C 0.91905 0.42758 0.38981 0.0
C854 C 0.97282 0.41194 0.3952 0.0
H855 H 0.84256 0.40639 0.37524 0.0
H856 H 0.90406 0.4679 0.39402 0.0
S857 S 0.03661 0.2779 0.38283 0.0
N858 N 0.97408 0.27276 0.37279 0.0
N859 N 0.04104 0.33973 0.39352 0.0
C860 C 0.99006 0.35911 0.38925 0.0
C861 C 0.95379 0.32286 0.37786 0.0
C862 C 0.98513 0.65483 0.62993 0.0
C863 C 0.96877 0.60177 0.62379 0.0
C864 C 0.94855 0.6909 0.64042 0.0
C865 C 0.89427 0.67525 0.64505 0.0
H866 H 0.0266 0.66843 0.62683 0.0
H867 H 0.96272 0.73145 0.64469 0.0
S868 S 0.83111 0.54067 0.63242 0.0
N869 N 0.89426 0.53574 0.62313 0.0
N870 N 0.82643 0.6026 0.64287 0.0
C871 C 0.87763 0.62225 0.63902 0.0
C872 C 0.91458 0.58581 0.62838 0.0
C873 C 0.72327 0.63002 0.88037 0.0
C874 C 0.70678 0.6821 0.87323 0.0
C875 C 0.68659 0.59445 0.89065 0.0
C876 C 0.63181 0.60944 0.89445 0.0
H877 H 0.765 0.61628 0.87797 0.0
H878 H 0.70154 0.55471 0.89564 0.0
S879 S 0.56774 0.74134 0.8791 0.0
N880 N 0.63176 0.74712 0.87076 0.0
N881 N 0.56267 0.68013 0.89021 0.0
C882 C 0.61464 0.66152 0.88753 0.0
C883 C 0.65208 0.69779 0.87686 0.0
C884 C 0.36267 0.56293 0.90138 0.0
C885 C 0.40198 0.53581 0.88854 0.0
C886 C 0.3244 0.59933 0.89241 0.0
C887 C 0.32696 0.61485 0.87035 0.0
H888 H 0.36461 0.5605 0.91879 0.0
H889 H 0.29564 0.61915 0.90334 0.0
S890 S 0.43365 0.5703 0.83083 0.0
N891 N 0.44413 0.53185 0.85251 0.0
N892 N 0.38091 0.6094 0.83706 0.0
C893 C 0.36868 0.59142 0.85747 0.0
C894 C 0.40424 0.55021 0.86619 0.0
C895 C 0.24037 0.55821 0.61635 0.0
C896 C 0.20161 0.5307 0.6293 0.0
C897 C 0.27841 0.59503 0.62524 0.0
C898 C 0.27615 0.61047 0.64735 0.0
H899 H 0.2382 0.55564 0.59892 0.0
H900 H 0.30676 0.61512 0.61425 0.0
S901 S 0.17116 0.56429 0.68723 0.0
N902 N 0.16056 0.52591 0.6655 0.0
N903 N 0.22317 0.60413 0.68085 0.0
C904 C 0.23505 0.58648 0.66034 0.0
C905 C 0.19978 0.54492 0.65169 0.0
C906 C 0.22238 0.48185 0.37354 0.0
C907 C 0.20682 0.48126 0.39564 0.0
C908 C 0.25892 0.44282 0.36508 0.0
C909 C 0.2859 0.40452 0.37843 0.0
H910 H 0.20271 0.50979 0.36229 0.0
H911 H 0.26159 0.43952 0.3477 0.0
S912 S 0.24999 0.37722 0.43636 0.0
N913 N 0.21135 0.42968 0.42948 0.0
N914 N 0.28888 0.36506 0.4149 0.0
C915 C 0.27101 0.40399 0.40075 0.0
C916 C 0.22981 0.44034 0.40899 0.0
C917 C 0.36786 0.47132 0.11617 0.0
C918 C 0.40587 0.50017 0.129 0.0
C919 C 0.3296 0.43522 0.12528 0.0
C920 C 0.33121 0.42156 0.14756 0.0
H921 H 0.37092 0.47219 0.09874 0.0
H922 H 0.30176 0.41413 0.11437 0.0
S923 S 0.43485 0.47117 0.18738 0.0
N924 N 0.44586 0.508 0.16529 0.0
N925 N 0.38324 0.43058 0.18121 0.0
C926 C 0.37182 0.44667 0.16048 0.0
C927 C 0.40711 0.48775 0.15154 0.0
loop_
_geom_bond_atom_site_label_1
_geom_bond_atom_site_label_2
_geom_bond_distance
_geom_bond_site_symmetry_2
_ccdc_geom_bond_type
Mn0 O5 2.095 . S
Mn0 O15 2.162 . S
Mn0 O16 2.297 1_545 S
Mn0 O24 2.385 1_455 S
Mn0 O25 2.209 1_455 S
Mn0 O26 2.094 . S
Mn1 O6 2.121 . S
Mn1 N8 2.257 . S
Mn1 N17 2.282 . S
Mn1 O25 2.215 . S
Mn1 O27 2.117 . S
C2 O24 1.234 1_565 S
C2 O25 1.283 1_565 S
C3 O15 1.281 1_565 S
C3 O16 1.236 . S
C4 O26 1.240 . S
C4 O27 1.264 1_455 S
O5 Mn0 2.095 . S
O5 C14 1.250 . S
O6 Mn1 2.121 . S
O6 C14 1.258 1_655 S
C7 N8 1.326 1_565 S
C7 C11 1.460 . S
C7 H13 0.929 . S
N8 Mn1 2.257 . S
N8 C7 1.326 1_545 S
N8 C12 1.362 . S
C9 C10 1.258 . S
C9 C12 1.431 1_565 S
C9 C29 1.449 . S
C10 C9 1.258 . S
C10 C11 1.477 . S
C10 H30 0.931 . S
C11 C7 1.460 . S
C11 C10 1.477 . S
C11 H31 0.930 . S
C12 N8 1.362 . S
C12 C9 1.431 1_545 S
C12 C22 1.476 . S
H13 C7 0.929 . S
C14 O5 1.250 . S
C14 O6 1.258 1_455 S
O15 Mn0 2.162 . S
O15 C3 1.281 1_545 S
O16 Mn0 2.297 1_565 S
O16 C3 1.236 . S
N17 Mn1 2.282 . S
N17 C18 1.328 . S
N17 C22 1.318 . S
C18 N17 1.328 . S
C18 C19 1.457 . S
C18 H23 0.929 . S
C19 C18 1.457 . S
C19 C20 1.291 . S
C19 H32 0.931 . S
C20 C19 1.291 . S
C20 C21 1.373 . S
C20 H33 0.929 . S
C21 C20 1.373 . S
C21 C22 1.396 . S
C21 C28 1.403 . S
C22 C12 1.476 . S
C22 N17 1.318 . S
C22 C21 1.396 . S
H23 C18 0.929 . S
O24 Mn0 2.385 1_655 S
O24 C2 1.234 1_545 S
O25 Mn0 2.209 1_655 S
O25 Mn1 2.215 . S
O25 C2 1.283 1_545 S
O26 Mn0 2.094 . S
O26 C4 1.240 . S
O27 Mn1 2.117 . S
O27 C4 1.264 1_655 S
C28 C21 1.403 . S
C28 C29 1.399 1_545 S
C28 H34 0.929 . S
C29 C9 1.449 . S
C29 C28 1.399 1_565 S
C29 H35 0.930 . S
H30 C10 0.931 . S
H31 C11 0.930 . S
H32 C19 0.931 . S
H33 C20 0.929 . S
H34 C28 0.929 . S
H35 C29 0.930 . S
Mn36 O41 2.095 . S
Mn36 O51 2.162 . S
Mn36 O52 2.297 . S
Mn36 O60 2.385 . S
Mn36 O61 2.209 . S
Mn36 O62 2.094 . S
Mn37 O42 2.121 . S
Mn37 N44 2.257 . S
Mn37 N53 2.282 . S
Mn37 O61 2.215 . S
Mn37 O63 2.117 . S
C38 O60 1.234 . S
C38 O61 1.283 . S
C39 O51 1.281 . S
C39 O52 1.236 . S
C40 O62 1.240 . S
C40 O63 1.264 . S
O41 Mn36 2.095 . S
O41 C50 1.250 . S
O42 Mn37 2.121 . S
O42 C50 1.258 . S
C43 N44 1.326 . S
C43 C47 1.460 . S
C43 H49 0.929 . S
N44 Mn37 2.257 . S
N44 C43 1.326 . S
N44 C48 1.362 . S
C45 C46 1.258 . S
C45 C48 1.431 . S
C45 C65 1.449 . S
C46 C45 1.258 . S
C46 C47 1.477 . S
C46 H66 0.931 . S
C47 C43 1.460 . S
C47 C46 1.477 . S
C47 H67 0.930 . S
C48 N44 1.362 . S
C48 C45 1.431 . S
C48 C58 1.476 . S
H49 C43 0.929 . S
C50 O41 1.250 . S
C50 O42 1.258 . S
O51 Mn36 2.162 . S
O51 C39 1.281 . S
O52 Mn36 2.297 . S
O52 C39 1.236 . S
N53 Mn37 2.282 . S
N53 C54 1.328 . S
N53 C58 1.318 . S
C54 N53 1.328 . S
C54 C55 1.457 . S
C54 H59 0.929 . S
C55 C54 1.457 . S
C55 C56 1.291 . S
C55 H68 0.931 . S
C56 C55 1.291 . S
C56 C57 1.373 . S
C56 H69 0.929 . S
C57 C56 1.373 . S
C57 C58 1.396 . S
C57 C64 1.403 . S
C58 C48 1.476 . S
C58 N53 1.318 . S
C58 C57 1.396 . S
H59 C54 0.929 . S
O60 Mn36 2.385 . S
O60 C38 1.234 . S
O61 Mn36 2.209 . S
O61 Mn37 2.215 . S
O61 C38 1.283 . S
O62 Mn36 2.094 . S
O62 C40 1.240 . S
O63 Mn37 2.117 . S
O63 C40 1.264 . S
C64 C57 1.403 . S
C64 C65 1.399 . S
C64 H70 0.929 . S
C65 C45 1.449 . S
C65 C64 1.399 . S
C65 H71 0.930 . S
H66 C46 0.931 . S
H67 C47 0.930 . S
H68 C55 0.931 . S
H69 C56 0.929 . S
H70 C64 0.929 . S
H71 C65 0.930 . S
Mn72 O77 2.095 . S
Mn72 O87 2.162 . S
Mn72 O88 2.297 1_565 S
Mn72 O96 2.385 . S
Mn72 O97 2.209 . S
Mn72 O98 2.094 . S
Mn73 O78 2.121 . S
Mn73 N80 2.257 . S
Mn73 N89 2.282 . S
Mn73 O97 2.215 . S
Mn73 O99 2.117 . S
C74 O96 1.234 1_545 S
C74 O97 1.283 1_545 S
C75 O87 1.281 1_545 S
C75 O88 1.236 . S
C76 O98 1.240 . S
C76 O99 1.264 . S
O77 Mn72 2.095 . S
O77 C86 1.250 . S
O78 Mn73 2.121 . S
O78 C86 1.258 . S
C79 N80 1.326 1_545 S
C79 C83 1.460 . S
C79 H85 0.929 . S
N80 Mn73 2.257 . S
N80 C79 1.326 1_565 S
N80 C84 1.362 . S
C81 C82 1.258 . S
C81 C84 1.431 1_545 S
C81 C101 1.449 . S
C82 C81 1.258 . S
C82 C83 1.477 . S
C82 H102 0.931 . S
C83 C79 1.460 . S
C83 C82 1.477 . S
C83 H103 0.930 . S
C84 N80 1.362 . S
C84 C81 1.431 1_565 S
C84 C94 1.476 . S
H85 C79 0.929 . S
C86 O77 1.250 . S
C86 O78 1.258 . S
O87 Mn72 2.162 . S
O87 C75 1.281 1_565 S
O88 Mn72 2.297 1_545 S
O88 C75 1.236 . S
N89 Mn73 2.282 . S
N89 C90 1.328 . S
N89 C94 1.318 . S
C90 N89 1.328 . S
C90 C91 1.457 . S
C90 H95 0.929 . S
C91 C90 1.457 . S
C91 C92 1.291 . S
C91 H104 0.931 . S
C92 C91 1.291 . S
C92 C93 1.373 . S
C92 H105 0.929 . S
C93 C92 1.373 . S
C93 C94 1.396 . S
C93 C100 1.403 . S
C94 C84 1.476 . S
C94 N89 1.318 . S
C94 C93 1.396 . S
H95 C90 0.929 . S
O96 Mn72 2.385 . S
O96 C74 1.234 1_565 S
O97 Mn72 2.209 . S
O97 Mn73 2.215 . S
O97 C74 1.283 1_565 S
O98 Mn72 2.094 . S
O98 C76 1.240 . S
O99 Mn73 2.117 . S
O99 C76 1.264 . S
C100 C93 1.403 . S
C100 C101 1.399 1_565 S
C100 H106 0.929 . S
C101 C81 1.449 . S
C101 C100 1.399 1_545 S
C101 H107 0.930 . S
H102 C82 0.931 . S
H103 C83 0.930 . S
H104 C91 0.931 . S
H105 C92 0.929 . S
H106 C100 0.929 . S
H107 C101 0.930 . S
Mn108 O113 2.095 . S
Mn108 O123 2.162 . S
Mn108 O124 2.297 . S
Mn108 O132 2.385 . S
Mn108 O133 2.209 . S
Mn108 O134 2.094 . S
Mn109 O114 2.121 . S
Mn109 N116 2.257 . S
Mn109 N125 2.282 . S
Mn109 O133 2.215 . S
Mn109 O135 2.117 . S
C110 O132 1.234 . S
C110 O133 1.283 . S
C111 O123 1.281 . S
C111 O124 1.236 . S
C112 O134 1.240 . S
C112 O135 1.264 . S
O113 Mn108 2.095 . S
O113 C122 1.250 . S
O114 Mn109 2.121 . S
O114 C122 1.258 . S
C115 N116 1.326 . S
C115 C119 1.460 . S
C115 H121 0.929 . S
N116 Mn109 2.257 . S
N116 C115 1.326 . S
N116 C120 1.362 . S
C117 C118 1.258 . S
C117 C120 1.431 . S
C117 C137 1.449 . S
C118 C117 1.258 . S
C118 C119 1.477 . S
C118 H138 0.931 . S
C119 C115 1.460 . S
C119 C118 1.477 . S
C119 H139 0.930 . S
C120 N116 1.362 . S
C120 C117 1.431 . S
C120 C130 1.476 . S
H121 C115 0.929 . S
C122 O113 1.250 . S
C122 O114 1.258 . S
O123 Mn108 2.162 . S
O123 C111 1.281 . S
O124 Mn108 2.297 . S
O124 C111 1.236 . S
N125 Mn109 2.282 . S
N125 C126 1.328 . S
N125 C130 1.318 . S
C126 N125 1.328 . S
C126 C127 1.457 . S
C126 H131 0.929 . S
C127 C126 1.457 . S
C127 C128 1.291 . S
C127 H140 0.931 . S
C128 C127 1.291 . S
C128 C129 1.373 . S
C128 H141 0.929 . S
C129 C128 1.373 . S
C129 C130 1.396 . S
C129 C136 1.403 . S
C130 C120 1.476 . S
C130 N125 1.318 . S
C130 C129 1.396 . S
H131 C126 0.929 . S
O132 Mn108 2.385 . S
O132 C110 1.234 . S
O133 Mn108 2.209 . S
O133 Mn109 2.215 . S
O133 C110 1.283 . S
O134 Mn108 2.094 . S
O134 C112 1.240 . S
O135 Mn109 2.117 . S
O135 C112 1.264 . S
C136 C129 1.403 . S
C136 C137 1.399 . S
C136 H142 0.929 . S
C137 C117 1.449 . S
C137 C136 1.399 . S
C137 H143 0.930 . S
H138 C118 0.931 . S
H139 C119 0.930 . S
H140 C127 0.931 . S
H141 C128 0.929 . S
H142 C136 0.929 . S
H143 C137 0.930 . S
Mn144 O149 2.095 . S
Mn144 O159 2.162 . S
Mn144 O160 2.297 1_565 S
Mn144 O168 2.385 1_455 S
Mn144 O169 2.209 1_455 S
Mn144 O170 2.094 . S
Mn145 O150 2.121 . S
Mn145 N152 2.257 . S
Mn145 N161 2.282 . S
Mn145 O169 2.215 . S
Mn145 O171 2.117 . S
C146 O168 1.234 1_545 S
C146 O169 1.283 1_545 S
C147 O159 1.281 1_545 S
C147 O160 1.236 . S
C148 O170 1.240 . S
C148 O171 1.264 1_455 S
O149 Mn144 2.095 . S
O149 C158 1.250 . S
O150 Mn145 2.121 . S
O150 C158 1.258 1_655 S
C151 N152 1.326 1_545 S
C151 C155 1.460 . S
C151 H157 0.929 . S
N152 Mn145 2.257 . S
N152 C151 1.326 1_565 S
N152 C156 1.362 . S
C153 C154 1.258 . S
C153 C156 1.431 1_545 S
C153 C173 1.449 . S
C154 C153 1.258 . S
C154 C155 1.477 . S
C154 H174 0.931 . S
C155 C151 1.460 . S
C155 C154 1.477 . S
C155 H175 0.930 . S
C156 N152 1.362 . S
C156 C153 1.431 1_565 S
C156 C166 1.476 . S
H157 C151 0.929 . S
C158 O149 1.250 . S
C158 O150 1.258 1_455 S
O159 Mn144 2.162 . S
O159 C147 1.281 1_565 S
O160 Mn144 2.297 1_545 S
O160 C147 1.236 . S
N161 Mn145 2.282 . S
N161 C162 1.328 . S
N161 C166 1.318 . S
C162 N161 1.328 . S
C162 C163 1.457 . S
C162 H167 0.929 . S
C163 C162 1.457 . S
C163 C164 1.291 . S
C163 H176 0.931 . S
C164 C163 1.291 . S
C164 C165 1.373 . S
C164 H177 0.929 . S
C165 C164 1.373 . S
C165 C166 1.396 . S
C165 C172 1.403 . S
C166 C156 1.476 . S
C166 N161 1.318 . S
C166 C165 1.396 . S
H167 C162 0.929 . S
O168 Mn144 2.385 1_655 S
O168 C146 1.234 1_565 S
O169 Mn144 2.209 1_655 S
O169 Mn145 2.215 . S
O169 C146 1.283 1_565 S
O170 Mn144 2.094 . S
O170 C148 1.240 . S
O171 Mn145 2.117 . S
O171 C148 1.264 1_655 S
C172 C165 1.403 . S
C172 C173 1.399 1_565 S
C172 H178 0.929 . S
C173 C153 1.449 . S
C173 C172 1.399 1_545 S
C173 H179 0.930 . S
H174 C154 0.931 . S
H175 C155 0.930 . S
H176 C163 0.931 . S
H177 C164 0.929 . S
H178 C172 0.929 . S
H179 C173 0.930 . S
Mn180 O185 2.095 . S
Mn180 O195 2.162 . S
Mn180 O196 2.297 . S
Mn180 O204 2.385 . S
Mn180 O205 2.209 . S
Mn180 O206 2.094 . S
Mn181 O186 2.121 . S
Mn181 N188 2.257 . S
Mn181 N197 2.282 . S
Mn181 O205 2.215 . S
Mn181 O207 2.117 . S
C182 O204 1.234 . S
C182 O205 1.283 . S
C183 O195 1.281 . S
C183 O196 1.236 . S
C184 O206 1.240 . S
C184 O207 1.264 . S
O185 Mn180 2.095 . S
O185 C194 1.250 . S
O186 Mn181 2.121 . S
O186 C194 1.258 . S
C187 N188 1.326 . S
C187 C191 1.460 . S
C187 H193 0.929 . S
N188 Mn181 2.257 . S
N188 C187 1.326 . S
N188 C192 1.362 . S
C189 C190 1.258 . S
C189 C192 1.431 . S
C189 C209 1.449 . S
C190 C189 1.258 . S
C190 C191 1.477 . S
C190 H210 0.931 . S
C191 C187 1.460 . S
C191 C190 1.477 . S
C191 H211 0.930 . S
C192 N188 1.362 . S
C192 C189 1.431 . S
C192 C202 1.476 . S
H193 C187 0.929 . S
C194 O185 1.250 . S
C194 O186 1.258 . S
O195 Mn180 2.162 . S
O195 C183 1.281 . S
O196 Mn180 2.297 . S
O196 C183 1.236 . S
N197 Mn181 2.282 . S
N197 C198 1.328 . S
N197 C202 1.318 . S
C198 N197 1.328 . S
C198 C199 1.457 . S
C198 H203 0.929 . S
C199 C198 1.457 . S
C199 C200 1.291 . S
C199 H212 0.931 . S
C200 C199 1.291 . S
C200 C201 1.373 . S
C200 H213 0.929 . S
C201 C200 1.373 . S
C201 C202 1.396 . S
C201 C208 1.403 . S
C202 C192 1.476 . S
C202 N197 1.318 . S
C202 C201 1.396 . S
H203 C198 0.929 . S
O204 Mn180 2.385 . S
O204 C182 1.234 . S
O205 Mn180 2.209 . S
O205 Mn181 2.215 . S
O205 C182 1.283 . S
O206 Mn180 2.094 . S
O206 C184 1.240 . S
O207 Mn181 2.117 . S
O207 C184 1.264 . S
C208 C201 1.403 . S
C208 C209 1.399 . S
C208 H214 0.929 . S
C209 C189 1.449 . S
C209 C208 1.399 . S
C209 H215 0.930 . S
H210 C190 0.931 . S
H211 C191 0.930 . S
H212 C199 0.931 . S
H213 C200 0.929 . S
H214 C208 0.929 . S
H215 C209 0.930 . S
Mn216 O221 2.095 . S
Mn216 O231 2.162 . S
Mn216 O232 2.297 1_545 S
Mn216 O240 2.385 . S
Mn216 O241 2.209 . S
Mn216 O242 2.094 . S
Mn217 O222 2.121 . S
Mn217 N224 2.257 . S
Mn217 N233 2.282 . S
Mn217 O241 2.215 . S
Mn217 O243 2.117 . S
C218 O240 1.234 1_565 S
C218 O241 1.283 1_565 S
C219 O231 1.281 1_565 S
C219 O232 1.236 . S
C220 O242 1.240 . S
C220 O243 1.264 . S
O221 Mn216 2.095 . S
O221 C230 1.250 . S
O222 Mn217 2.121 . S
O222 C230 1.258 . S
C223 N224 1.326 1_565 S
C223 C227 1.460 . S
C223 H229 0.929 . S
N224 Mn217 2.257 . S
N224 C223 1.326 1_545 S
N224 C228 1.362 . S
C225 C226 1.258 . S
C225 C228 1.431 1_565 S
C225 C245 1.449 . S
C226 C225 1.258 . S
C226 C227 1.477 . S
C226 H246 0.931 . S
C227 C223 1.460 . S
C227 C226 1.477 . S
C227 H247 0.930 . S
C228 N224 1.362 . S
C228 C225 1.431 1_545 S
C228 C238 1.476 . S
H229 C223 0.929 . S
C230 O221 1.250 . S
C230 O222 1.258 . S
O231 Mn216 2.162 . S
O231 C219 1.281 1_545 S
O232 Mn216 2.297 1_565 S
O232 C219 1.236 . S
N233 Mn217 2.282 . S
N233 C234 1.328 . S
N233 C238 1.318 . S
C234 N233 1.328 . S
C234 C235 1.457 . S
C234 H239 0.929 . S
C235 C234 1.457 . S
C235 C236 1.291 . S
C235 H248 0.931 . S
C236 C235 1.291 . S
C236 C237 1.373 . S
C236 H249 0.929 . S
C237 C236 1.373 . S
C237 C238 1.396 . S
C237 C244 1.403 . S
C238 C228 1.476 . S
C238 N233 1.318 . S
C238 C237 1.396 . S
H239 C234 0.929 . S
O240 Mn216 2.385 . S
O240 C218 1.234 1_545 S
O241 Mn216 2.209 . S
O241 Mn217 2.215 . S
O241 C218 1.283 1_545 S
O242 Mn216 2.094 . S
O242 C220 1.240 . S
O243 Mn217 2.117 . S
O243 C220 1.264 . S
C244 C237 1.403 . S
C244 C245 1.399 1_545 S
C244 H250 0.929 . S
C245 C225 1.449 . S
C245 C244 1.399 1_565 S
C245 H251 0.930 . S
H246 C226 0.931 . S
H247 C227 0.930 . S
H248 C235 0.931 . S
H249 C236 0.929 . S
H250 C244 0.929 . S
H251 C245 0.930 . S
Mn252 O257 2.095 . S
Mn252 O267 2.162 . S
Mn252 O268 2.297 . S
Mn252 O276 2.385 . S
Mn252 O277 2.209 . S
Mn252 O278 2.094 . S
Mn253 O258 2.121 . S
Mn253 N260 2.257 . S
Mn253 N269 2.282 . S
Mn253 O277 2.215 . S
Mn253 O279 2.117 . S
C254 O276 1.234 . S
C254 O277 1.283 . S
C255 O267 1.281 . S
C255 O268 1.236 . S
C256 O278 1.240 . S
C256 O279 1.264 . S
O257 Mn252 2.095 . S
O257 C266 1.250 . S
O258 Mn253 2.121 . S
O258 C266 1.258 . S
C259 N260 1.326 . S
C259 C263 1.460 . S
C259 H265 0.929 . S
N260 Mn253 2.257 . S
N260 C259 1.326 . S
N260 C264 1.362 . S
C261 C262 1.258 . S
C261 C264 1.431 . S
C261 C281 1.449 . S
C262 C261 1.258 . S
C262 C263 1.477 . S
C262 H282 0.931 . S
C263 C259 1.460 . S
C263 C262 1.477 . S
C263 H283 0.930 . S
C264 N260 1.362 . S
C264 C261 1.431 . S
C264 C274 1.476 . S
H265 C259 0.929 . S
C266 O257 1.250 . S
C266 O258 1.258 . S
O267 Mn252 2.162 . S
O267 C255 1.281 . S
O268 Mn252 2.297 . S
O268 C255 1.236 . S
N269 Mn253 2.282 . S
N269 C270 1.328 . S
N269 C274 1.318 . S
C270 N269 1.328 . S
C270 C271 1.457 . S
C270 H275 0.929 . S
C271 C270 1.457 . S
C271 C272 1.291 . S
C271 H284 0.931 . S
C272 C271 1.291 . S
C272 C273 1.373 . S
C272 H285 0.929 . S
C273 C272 1.373 . S
C273 C274 1.396 . S
C273 C280 1.403 . S
C274 C264 1.476 . S
C274 N269 1.318 . S
C274 C273 1.396 . S
H275 C270 0.929 . S
O276 Mn252 2.385 . S
O276 C254 1.234 . S
O277 Mn252 2.209 . S
O277 Mn253 2.215 . S
O277 C254 1.283 . S
O278 Mn252 2.094 . S
O278 C256 1.240 . S
O279 Mn253 2.117 . S
O279 C256 1.264 . S
C280 C273 1.403 . S
C280 C281 1.399 . S
C280 H286 0.929 . S
C281 C261 1.449 . S
C281 C280 1.399 . S
C281 H287 0.930 . S
H282 C262 0.931 . S
H283 C263 0.930 . S
H284 C271 0.931 . S
H285 C272 0.929 . S
H286 C280 0.929 . S
H287 C281 0.930 . S
Mn288 O293 2.095 . S
Mn288 O303 2.162 . S
Mn288 O304 2.297 . S
Mn288 O312 2.385 . S
Mn288 O313 2.209 . S
Mn288 O314 2.094 . S
Mn289 O294 2.121 . S
Mn289 N296 2.257 . S
Mn289 N305 2.282 . S
Mn289 O313 2.215 . S
Mn289 O315 2.117 . S
C290 O312 1.234 . S
C290 O313 1.283 . S
C291 O303 1.281 . S
C291 O304 1.236 . S
C292 O314 1.240 . S
C292 O315 1.264 . S
O293 Mn288 2.095 . S
O293 C302 1.250 . S
O294 Mn289 2.121 . S
O294 C302 1.258 . S
C295 N296 1.326 . S
C295 C299 1.460 . S
C295 H301 0.929 . S
N296 Mn289 2.257 . S
N296 C295 1.326 . S
N296 C300 1.362 . S
C297 C298 1.258 . S
C297 C300 1.431 1_565 S
C297 C317 1.449 . S
C298 C297 1.258 . S
C298 C299 1.477 1_565 S
C298 H318 0.931 . S
C299 C295 1.460 . S
C299 C298 1.477 1_545 S
C299 H319 0.930 . S
C300 N296 1.362 . S
C300 C297 1.431 1_545 S
C300 C310 1.476 . S
H301 C295 0.929 . S
C302 O293 1.250 . S
C302 O294 1.258 . S
O303 Mn288 2.162 . S
O303 C291 1.281 . S
O304 Mn288 2.297 . S
O304 C291 1.236 . S
N305 Mn289 2.282 . S
N305 C306 1.328 . S
N305 C310 1.318 . S
C306 N305 1.328 . S
C306 C307 1.457 . S
C306 H311 0.929 . S
C307 C306 1.457 . S
C307 C308 1.291 1_545 S
C307 H320 0.931 . S
C308 C307 1.291 1_565 S
C308 C309 1.373 . S
C308 H321 0.929 . S
C309 C308 1.373 . S
C309 C310 1.396 1_565 S
C309 C316 1.403 . S
C310 C300 1.476 . S
C310 N305 1.318 . S
C310 C309 1.396 1_545 S
H311 C306 0.929 . S
O312 Mn288 2.385 . S
O312 C290 1.234 . S
O313 Mn288 2.209 . S
O313 Mn289 2.215 . S
O313 C290 1.283 . S
O314 Mn288 2.094 . S
O314 C292 1.240 . S
O315 Mn289 2.117 . S
O315 C292 1.264 . S
C316 C309 1.403 . S
C316 C317 1.399 . S
C316 H322 0.929 . S
C317 C297 1.449 . S
C317 C316 1.399 . S
C317 H323 0.930 . S
H318 C298 0.931 . S
H319 C299 0.930 . S
H320 C307 0.931 . S
H321 C308 0.929 . S
H322 C316 0.929 . S
H323 C317 0.930 . S
Mn324 O329 2.095 . S
Mn324 O339 2.162 . S
Mn324 O340 2.297 . S
Mn324 O348 2.385 . S
Mn324 O349 2.209 . S
Mn324 O350 2.094 . S
Mn325 O330 2.121 . S
Mn325 N332 2.257 . S
Mn325 N341 2.282 . S
Mn325 O349 2.215 . S
Mn325 O351 2.117 . S
C326 O348 1.234 . S
C326 O349 1.283 . S
C327 O339 1.281 . S
C327 O340 1.236 . S
C328 O350 1.240 . S
C328 O351 1.264 . S
O329 Mn324 2.095 . S
O329 C338 1.250 . S
O330 Mn325 2.121 . S
O330 C338 1.258 . S
C331 N332 1.326 . S
C331 C335 1.460 . S
C331 H337 0.929 . S
N332 Mn325 2.257 . S
N332 C331 1.326 . S
N332 C336 1.362 . S
C333 C334 1.258 . S
C333 C336 1.431 1_545 S
C333 C353 1.449 . S
C334 C333 1.258 . S
C334 C335 1.477 1_545 S
C334 H354 0.931 . S
C335 C331 1.460 . S
C335 C334 1.477 1_565 S
C335 H355 0.930 . S
C336 N332 1.362 . S
C336 C333 1.431 1_565 S
C336 C346 1.476 . S
H337 C331 0.929 . S
C338 O329 1.250 . S
C338 O330 1.258 . S
O339 Mn324 2.162 . S
O339 C327 1.281 . S
O340 Mn324 2.297 . S
O340 C327 1.236 . S
N341 Mn325 2.282 . S
N341 C342 1.328 . S
N341 C346 1.318 . S
C342 N341 1.328 . S
C342 C343 1.457 . S
C342 H347 0.929 . S
C343 C342 1.457 . S
C343 C344 1.291 1_565 S
C343 H356 0.931 . S
C344 C343 1.291 1_545 S
C344 C345 1.373 . S
C344 H357 0.929 . S
C345 C344 1.373 . S
C345 C346 1.396 1_545 S
C345 C352 1.403 . S
C346 C336 1.476 . S
C346 N341 1.318 . S
C346 C345 1.396 1_565 S
H347 C342 0.929 . S
O348 Mn324 2.385 . S
O348 C326 1.234 . S
O349 Mn324 2.209 . S
O349 Mn325 2.215 . S
O349 C326 1.283 . S
O350 Mn324 2.094 . S
O350 C328 1.240 . S
O351 Mn325 2.117 . S
O351 C328 1.264 . S
C352 C345 1.403 . S
C352 C353 1.399 . S
C352 H358 0.929 . S
C353 C333 1.449 . S
C353 C352 1.399 . S
C353 H359 0.930 . S
H354 C334 0.931 . S
H355 C335 0.930 . S
H356 C343 0.931 . S
H357 C344 0.929 . S
H358 C352 0.929 . S
H359 C353 0.930 . S
Mn360 O365 2.095 . S
Mn360 O375 2.162 . S
Mn360 O376 2.297 . S
Mn360 O384 2.385 . S
Mn360 O385 2.209 . S
Mn360 O386 2.094 . S
Mn361 O366 2.121 . S
Mn361 N368 2.257 . S
Mn361 N377 2.282 . S
Mn361 O385 2.215 . S
Mn361 O387 2.117 . S
C362 O384 1.234 . S
C362 O385 1.283 . S
C363 O375 1.281 . S
C363 O376 1.236 . S
C364 O386 1.240 . S
C364 O387 1.264 . S
O365 Mn360 2.095 . S
O365 C374 1.250 . S
O366 Mn361 2.121 . S
O366 C374 1.258 . S
C367 N368 1.326 . S
C367 C371 1.460 . S
C367 H373 0.929 . S
N368 Mn361 2.257 . S
N368 C367 1.326 . S
N368 C372 1.362 . S
C369 C370 1.258 . S
C369 C372 1.431 1_565 S
C369 C389 1.449 . S
C370 C369 1.258 . S
C370 C371 1.477 1_565 S
C370 H390 0.931 . S
C371 C367 1.460 . S
C371 C370 1.477 1_545 S
C371 H391 0.930 . S
C372 N368 1.362 . S
C372 C369 1.431 1_545 S
C372 C382 1.476 . S
H373 C367 0.929 . S
C374 O365 1.250 . S
C374 O366 1.258 . S
O375 Mn360 2.162 . S
O375 C363 1.281 . S
O376 Mn360 2.297 . S
O376 C363 1.236 . S
N377 Mn361 2.282 . S
N377 C378 1.328 . S
N377 C382 1.318 . S
C378 N377 1.328 . S
C378 C379 1.457 . S
C378 H383 0.929 . S
C379 C378 1.457 . S
C379 C380 1.291 1_545 S
C379 H392 0.931 . S
C380 C379 1.291 1_565 S
C380 C381 1.373 . S
C380 H393 0.929 . S
C381 C380 1.373 . S
C381 C382 1.396 1_565 S
C381 C388 1.403 . S
C382 C372 1.476 . S
C382 N377 1.318 . S
C382 C381 1.396 1_545 S
H383 C378 0.929 . S
O384 Mn360 2.385 . S
O384 C362 1.234 . S
O385 Mn360 2.209 . S
O385 Mn361 2.215 . S
O385 C362 1.283 . S
O386 Mn360 2.094 . S
O386 C364 1.240 . S
O387 Mn361 2.117 . S
O387 C364 1.264 . S
C388 C381 1.403 . S
C388 C389 1.399 . S
C388 H394 0.929 . S
C389 C369 1.449 . S
C389 C388 1.399 . S
C389 H395 0.930 . S
H390 C370 0.931 . S
H391 C371 0.930 . S
H392 C379 0.931 . S
H393 C380 0.929 . S
H394 C388 0.929 . S
H395 C389 0.930 . S
Mn396 O401 2.095 . S
Mn396 O411 2.162 . S
Mn396 O412 2.297 . S
Mn396 O420 2.385 . S
Mn396 O421 2.209 . S
Mn396 O422 2.094 . S
Mn397 O402 2.121 . S
Mn397 N404 2.257 . S
Mn397 N413 2.282 . S
Mn397 O421 2.215 . S
Mn397 O423 2.117 . S
C398 O420 1.234 . S
C398 O421 1.283 . S
C399 O411 1.281 . S
C399 O412 1.236 . S
C400 O422 1.240 . S
C400 O423 1.264 . S
O401 Mn396 2.095 . S
O401 C410 1.250 . S
O402 Mn397 2.121 . S
O402 C410 1.258 . S
C403 N404 1.326 . S
C403 C407 1.460 . S
C403 H409 0.929 . S
N404 Mn397 2.257 . S
N404 C403 1.326 . S
N404 C408 1.362 . S
C405 C406 1.258 . S
C405 C408 1.431 1_545 S
C405 C425 1.449 . S
C406 C405 1.258 . S
C406 C407 1.477 1_545 S
C406 H426 0.931 . S
C407 C403 1.460 . S
C407 C406 1.477 1_565 S
C407 H427 0.930 . S
C408 N404 1.362 . S
C408 C405 1.431 1_565 S
C408 C418 1.476 . S
H409 C403 0.929 . S
C410 O401 1.250 . S
C410 O402 1.258 . S
O411 Mn396 2.162 . S
O411 C399 1.281 . S
O412 Mn396 2.297 . S
O412 C399 1.236 . S
N413 Mn397 2.282 . S
N413 C414 1.328 . S
N413 C418 1.318 . S
C414 N413 1.328 . S
C414 C415 1.457 . S
C414 H419 0.929 . S
C415 C414 1.457 . S
C415 C416 1.291 1_565 S
C415 H428 0.931 . S
C416 C415 1.291 1_545 S
C416 C417 1.373 . S
C416 H429 0.929 . S
C417 C416 1.373 . S
C417 C418 1.396 1_545 S
C417 C424 1.403 . S
C418 C408 1.476 . S
C418 N413 1.318 . S
C418 C417 1.396 1_565 S
H419 C414 0.929 . S
O420 Mn396 2.385 . S
O420 C398 1.234 . S
O421 Mn396 2.209 . S
O421 Mn397 2.215 . S
O421 C398 1.283 . S
O422 Mn396 2.094 . S
O422 C400 1.240 . S
O423 Mn397 2.117 . S
O423 C400 1.264 . S
C424 C417 1.403 . S
C424 C425 1.399 . S
C424 H430 0.929 . S
C425 C405 1.449 . S
C425 C424 1.399 . S
C425 H431 0.930 . S
H426 C406 0.931 . S
H427 C407 0.930 . S
H428 C415 0.931 . S
H429 C416 0.929 . S
H430 C424 0.929 . S
H431 C425 0.930 . S
Mn432 O437 2.095 . S
Mn432 O447 2.162 . S
Mn432 O448 2.297 . S
Mn432 O456 2.385 . S
Mn432 O457 2.209 . S
Mn432 O458 2.094 . S
Mn433 O438 2.121 . S
Mn433 N440 2.257 . S
Mn433 N449 2.282 . S
Mn433 O457 2.215 . S
Mn433 O459 2.117 . S
C434 O456 1.234 . S
C434 O457 1.283 . S
C435 O447 1.281 . S
C435 O448 1.236 . S
C436 O458 1.240 . S
C436 O459 1.264 . S
O437 Mn432 2.095 . S
O437 C446 1.250 . S
O438 Mn433 2.121 . S
O438 C446 1.258 . S
C439 N440 1.326 . S
C439 C443 1.460 . S
C439 H445 0.929 . S
N440 Mn433 2.257 . S
N440 C439 1.326 . S
N440 C444 1.362 . S
C441 C442 1.258 . S
C441 C444 1.431 . S
C441 C461 1.449 . S
C442 C441 1.258 . S
C442 C443 1.477 . S
C442 H462 0.931 . S
C443 C439 1.460 . S
C443 C442 1.477 . S
C443 H463 0.930 . S
C444 N440 1.362 . S
C444 C441 1.431 . S
C444 C454 1.476 . S
H445 C439 0.929 . S
C446 O437 1.250 . S
C446 O438 1.258 . S
O447 Mn432 2.162 . S
O447 C435 1.281 . S
O448 Mn432 2.297 . S
O448 C435 1.236 . S
N449 Mn433 2.282 . S
N449 C450 1.328 . S
N449 C454 1.318 . S
C450 N449 1.328 . S
C450 C451 1.457 . S
C450 H455 0.929 . S
C451 C450 1.457 . S
C451 C452 1.291 . S
C451 H464 0.931 . S
C452 C451 1.291 . S
C452 C453 1.373 . S
C452 H465 0.929 . S
C453 C452 1.373 . S
C453 C454 1.396 . S
C453 C460 1.403 . S
C454 C444 1.476 . S
C454 N449 1.318 . S
C454 C453 1.396 . S
H455 C450 0.929 . S
O456 Mn432 2.385 . S
O456 C434 1.234 . S
O457 Mn432 2.209 . S
O457 Mn433 2.215 . S
O457 C434 1.283 . S
O458 Mn432 2.094 . S
O458 C436 1.240 . S
O459 Mn433 2.117 . S
O459 C436 1.264 . S
C460 C453 1.403 . S
C460 C461 1.399 . S
C460 H466 0.929 . S
C461 C441 1.449 . S
C461 C460 1.399 . S
C461 H467 0.930 . S
H462 C442 0.931 . S
H463 C443 0.930 . S
H464 C451 0.931 . S
H465 C452 0.929 . S
H466 C460 0.929 . S
H467 C461 0.930 . S
Mn468 O473 2.095 . S
Mn468 O483 2.162 1_455 S
Mn468 O484 2.297 . S
Mn468 O492 2.385 . S
Mn468 O493 2.209 . S
Mn468 O494 2.094 . S
Mn469 O474 2.121 . S
Mn469 N476 2.257 . S
Mn469 N485 2.282 . S
Mn469 O493 2.215 . S
Mn469 O495 2.117 . S
C470 O492 1.234 . S
C470 O493 1.283 . S
C471 O483 1.281 . S
C471 O484 1.236 1_655 S
C472 O494 1.240 . S
C472 O495 1.264 . S
O473 Mn468 2.095 . S
O473 C482 1.250 . S
O474 Mn469 2.121 . S
O474 C482 1.258 . S
C475 N476 1.326 . S
C475 C479 1.460 . S
C475 H481 0.929 . S
N476 Mn469 2.257 . S
N476 C475 1.326 . S
N476 C480 1.362 . S
C477 C478 1.258 . S
C477 C480 1.431 . S
C477 C497 1.449 . S
C478 C477 1.258 . S
C478 C479 1.477 . S
C478 H498 0.931 . S
C479 C475 1.460 . S
C479 C478 1.477 . S
C479 H499 0.930 . S
C480 N476 1.362 . S
C480 C477 1.431 . S
C480 C490 1.476 . S
H481 C475 0.929 . S
C482 O473 1.250 . S
C482 O474 1.258 . S
O483 Mn468 2.162 1_655 S
O483 C471 1.281 . S
O484 Mn468 2.297 . S
O484 C471 1.236 1_455 S
N485 Mn469 2.282 . S
N485 C486 1.328 . S
N485 C490 1.318 . S
C486 N485 1.328 . S
C486 C487 1.457 . S
C486 H491 0.929 . S
C487 C486 1.457 . S
C487 C488 1.291 . S
C487 H500 0.931 . S
C488 C487 1.291 . S
C488 C489 1.373 . S
C488 H501 0.929 . S
C489 C488 1.373 . S
C489 C490 1.396 . S
C489 C496 1.403 . S
C490 C480 1.476 . S
C490 N485 1.318 . S
C490 C489 1.396 . S
H491 C486 0.929 . S
O492 Mn468 2.385 . S
O492 C470 1.234 . S
O493 Mn468 2.209 . S
O493 Mn469 2.215 . S
O493 C470 1.283 . S
O494 Mn468 2.094 . S
O494 C472 1.240 . S
O495 Mn469 2.117 . S
O495 C472 1.264 . S
C496 C489 1.403 . S
C496 C497 1.399 . S
C496 H502 0.929 . S
C497 C477 1.449 . S
C497 C496 1.399 . S
C497 H503 0.930 . S
H498 C478 0.931 . S
H499 C479 0.930 . S
H500 C487 0.931 . S
H501 C488 0.929 . S
H502 C496 0.929 . S
H503 C497 0.930 . S
Mn504 O509 2.095 . S
Mn504 O519 2.162 . S
Mn504 O520 2.297 . S
Mn504 O528 2.385 . S
Mn504 O529 2.209 . S
Mn504 O530 2.094 . S
Mn505 O510 2.121 . S
Mn505 N512 2.257 . S
Mn505 N521 2.282 . S
Mn505 O529 2.215 . S
Mn505 O531 2.117 . S
C506 O528 1.234 . S
C506 O529 1.283 . S
C507 O519 1.281 . S
C507 O520 1.236 . S
C508 O530 1.240 . S
C508 O531 1.264 . S
O509 Mn504 2.095 . S
O509 C518 1.250 . S
O510 Mn505 2.121 . S
O510 C518 1.258 . S
C511 N512 1.326 . S
C511 C515 1.460 . S
C511 H517 0.929 . S
N512 Mn505 2.257 . S
N512 C511 1.326 . S
N512 C516 1.362 . S
C513 C514 1.258 . S
C513 C516 1.431 . S
C513 C533 1.449 . S
C514 C513 1.258 . S
C514 C515 1.477 . S
C514 H534 0.931 . S
C515 C511 1.460 . S
C515 C514 1.477 . S
C515 H535 0.930 . S
C516 N512 1.362 . S
C516 C513 1.431 . S
C516 C526 1.476 . S
H517 C511 0.929 . S
C518 O509 1.250 . S
C518 O510 1.258 . S
O519 Mn504 2.162 . S
O519 C507 1.281 . S
O520 Mn504 2.297 . S
O520 C507 1.236 . S
N521 Mn505 2.282 . S
N521 C522 1.328 . S
N521 C526 1.318 . S
C522 N521 1.328 . S
C522 C523 1.457 . S
C522 H527 0.929 . S
C523 C522 1.457 . S
C523 C524 1.291 . S
C523 H536 0.931 . S
C524 C523 1.291 . S
C524 C525 1.373 . S
C524 H537 0.929 . S
C525 C524 1.373 . S
C525 C526 1.396 . S
C525 C532 1.403 . S
C526 C516 1.476 . S
C526 N521 1.318 . S
C526 C525 1.396 . S
H527 C522 0.929 . S
O528 Mn504 2.385 . S
O528 C506 1.234 . S
O529 Mn504 2.209 . S
O529 Mn505 2.215 . S
O529 C506 1.283 . S
O530 Mn504 2.094 . S
O530 C508 1.240 . S
O531 Mn505 2.117 . S
O531 C508 1.264 . S
C532 C525 1.403 . S
C532 C533 1.399 . S
C532 H538 0.929 . S
C533 C513 1.449 . S
C533 C532 1.399 . S
C533 H539 0.930 . S
H534 C514 0.931 . S
H535 C515 0.930 . S
H536 C523 0.931 . S
H537 C524 0.929 . S
H538 C532 0.929 . S
H539 C533 0.930 . S
Mn540 O545 2.095 . S
Mn540 O555 2.162 1_455 S
Mn540 O556 2.297 . S
Mn540 O564 2.385 . S
Mn540 O565 2.209 . S
Mn540 O566 2.094 . S
Mn541 O546 2.121 . S
Mn541 N548 2.257 . S
Mn541 N557 2.282 . S
Mn541 O565 2.215 . S
Mn541 O567 2.117 . S
C542 O564 1.234 . S
C542 O565 1.283 . S
C543 O555 1.281 . S
C543 O556 1.236 1_655 S
C544 O566 1.240 . S
C544 O567 1.264 . S
O545 Mn540 2.095 . S
O545 C554 1.250 . S
O546 Mn541 2.121 . S
O546 C554 1.258 . S
C547 N548 1.326 . S
C547 C551 1.460 . S
C547 H553 0.929 . S
N548 Mn541 2.257 . S
N548 C547 1.326 . S
N548 C552 1.362 . S
C549 C550 1.258 . S
C549 C552 1.431 . S
C549 C569 1.449 . S
C550 C549 1.258 . S
C550 C551 1.477 . S
C550 H570 0.931 . S
C551 C547 1.460 . S
C551 C550 1.477 . S
C551 H571 0.930 . S
C552 N548 1.362 . S
C552 C549 1.431 . S
C552 C562 1.476 . S
H553 C547 0.929 . S
C554 O545 1.250 . S
C554 O546 1.258 . S
O555 Mn540 2.162 1_655 S
O555 C543 1.281 . S
O556 Mn540 2.297 . S
O556 C543 1.236 1_455 S
N557 Mn541 2.282 . S
N557 C558 1.328 . S
N557 C562 1.318 . S
C558 N557 1.328 . S
C558 C559 1.457 . S
C558 H563 0.929 . S
C559 C558 1.457 . S
C559 C560 1.291 . S
C559 H572 0.931 . S
C560 C559 1.291 . S
C560 C561 1.373 . S
C560 H573 0.929 . S
C561 C560 1.373 . S
C561 C562 1.396 . S
C561 C568 1.403 . S
C562 C552 1.476 . S
C562 N557 1.318 . S
C562 C561 1.396 . S
H563 C558 0.929 . S
O564 Mn540 2.385 . S
O564 C542 1.234 . S
O565 Mn540 2.209 . S
O565 Mn541 2.215 . S
O565 C542 1.283 . S
O566 Mn540 2.094 . S
O566 C544 1.240 . S
O567 Mn541 2.117 . S
O567 C544 1.264 . S
C568 C561 1.403 . S
C568 C569 1.399 . S
C568 H574 0.929 . S
C569 C549 1.449 . S
C569 C568 1.399 . S
C569 H575 0.930 . S
H570 C550 0.931 . S
H571 C551 0.930 . S
H572 C559 0.931 . S
H573 C560 0.929 . S
H574 C568 0.929 . S
H575 C569 0.930 . S
C576 C577 1.369 . S
C576 C578 1.419 . S
C576 H580 0.930 . S
C577 C576 1.369 . S
C577 C586 1.429 1_455 S
C578 C576 1.419 . S
C578 C579 1.363 . S
C578 H581 0.929 . S
C579 C578 1.363 . S
C579 C585 1.428 . S
H580 C576 0.930 . S
H581 C578 0.929 . S
S582 N583 1.613 . S
S582 N584 1.610 . S
N583 S582 1.613 . S
N583 C586 1.350 . S
N584 S582 1.610 . S
N584 C585 1.351 1_655 S
C585 C579 1.428 . S
C585 N584 1.351 1_455 S
C585 C586 1.434 1_455 S
C586 C577 1.429 1_655 S
C586 N583 1.350 . S
C586 C585 1.434 1_655 S
C587 C588 1.369 . S
C587 C589 1.419 1_655 S
C587 H591 0.930 . S
C588 C587 1.369 . S
C588 C597 1.429 1_655 S
C589 C587 1.419 1_455 S
C589 C590 1.363 . S
C589 H592 0.929 . S
C590 C589 1.363 . S
C590 C596 1.428 . S
H591 C587 0.930 . S
H592 C589 0.929 . S
S593 N594 1.613 . S
S593 N595 1.610 . S
N594 S593 1.613 . S
N594 C597 1.350 . S
N595 S593 1.610 . S
N595 C596 1.351 . S
C596 C590 1.428 . S
C596 N595 1.351 . S
C596 C597 1.434 . S
C597 C588 1.429 1_455 S
C597 N594 1.350 . S
C597 C596 1.434 . S
C598 C599 1.369 . S
C598 C600 1.419 . S
C598 H602 0.930 . S
C599 C598 1.369 . S
C599 C608 1.429 . S
C600 C598 1.419 . S
C600 C601 1.363 . S
C600 H603 0.929 . S
C601 C600 1.363 . S
C601 C607 1.428 . S
H602 C598 0.930 . S
H603 C600 0.929 . S
S604 N605 1.613 . S
S604 N606 1.610 . S
N605 S604 1.613 . S
N605 C608 1.350 . S
N606 S604 1.610 . S
N606 C607 1.351 . S
C607 C601 1.428 . S
C607 N606 1.351 . S
C607 C608 1.434 . S
C608 C599 1.429 . S
C608 N605 1.350 . S
C608 C607 1.434 . S
C609 C610 1.369 . S
C609 C611 1.419 . S
C609 H613 0.930 . S
C610 C609 1.369 . S
C610 C619 1.429 . S
C611 C609 1.419 . S
C611 C612 1.363 . S
C611 H614 0.929 . S
C612 C611 1.363 . S
C612 C618 1.428 . S
H613 C609 0.930 . S
H614 C611 0.929 . S
S615 N616 1.613 . S
S615 N617 1.610 . S
N616 S615 1.613 . S
N616 C619 1.350 . S
N617 S615 1.610 . S
N617 C618 1.351 . S
C618 C612 1.428 . S
C618 N617 1.351 . S
C618 C619 1.434 . S
C619 C610 1.429 . S
C619 N616 1.350 . S
C619 C618 1.434 . S
C620 C621 1.369 . S
C620 C622 1.419 . S
C620 H624 0.930 . S
C621 C620 1.369 . S
C621 C630 1.429 . S
C622 C620 1.419 . S
C622 C623 1.363 . S
C622 H625 0.929 . S
C623 C622 1.363 . S
C623 C629 1.428 . S
H624 C620 0.930 . S
H625 C622 0.929 . S
S626 N627 1.613 . S
S626 N628 1.610 1_655 S
N627 S626 1.613 . S
N627 C630 1.350 1_655 S
N628 S626 1.610 1_455 S
N628 C629 1.351 . S
C629 C623 1.428 . S
C629 N628 1.351 . S
C629 C630 1.434 . S
C630 C621 1.429 . S
C630 N627 1.350 1_455 S
C630 C629 1.434 . S
C631 C632 1.369 . S
C631 C633 1.419 . S
C631 H635 0.930 . S
C632 C631 1.369 . S
C632 C641 1.429 . S
C633 C631 1.419 . S
C633 C634 1.363 . S
C633 H636 0.929 . S
C634 C633 1.363 . S
C634 C640 1.428 . S
H635 C631 0.930 . S
H636 C633 0.929 . S
S637 N638 1.613 . S
S637 N639 1.610 . S
N638 S637 1.613 . S
N638 C641 1.350 . S
N639 S637 1.610 . S
N639 C640 1.351 . S
C640 C634 1.428 . S
C640 N639 1.351 . S
C640 C641 1.434 . S
C641 C632 1.429 . S
C641 N638 1.350 . S
C641 C640 1.434 . S
C642 C643 1.369 . S
C642 C644 1.419 . S
C642 H646 0.930 . S
C643 C642 1.369 . S
C643 C652 1.429 . S
C644 C642 1.419 . S
C644 C645 1.363 . S
C644 H647 0.929 . S
C645 C644 1.363 . S
C645 C651 1.428 . S
H646 C642 0.930 . S
H647 C644 0.929 . S
S648 N649 1.613 . S
S648 N650 1.610 . S
N649 S648 1.613 . S
N649 C652 1.350 . S
N650 S648 1.610 . S
N650 C651 1.351 . S
C651 C645 1.428 . S
C651 N650 1.351 . S
C651 C652 1.434 . S
C652 C643 1.429 . S
C652 N649 1.350 . S
C652 C651 1.434 . S
C653 C654 1.369 . S
C653 C655 1.419 . S
C653 H657 0.930 . S
C654 C653 1.369 . S
C654 C663 1.429 . S
C655 C653 1.419 . S
C655 C656 1.363 1_455 S
C655 H658 0.929 . S
C656 C655 1.363 1_655 S
C656 C662 1.428 1_655 S
H657 C653 0.930 . S
H658 C655 0.929 . S
S659 N660 1.613 . S
S659 N661 1.610 1_455 S
N660 S659 1.613 . S
N660 C663 1.350 . S
N661 S659 1.610 1_655 S
N661 C662 1.351 1_655 S
C662 C656 1.428 1_455 S
C662 N661 1.351 1_455 S
C662 C663 1.434 . S
C663 C654 1.429 . S
C663 N660 1.350 . S
C663 C662 1.434 . S
C664 C665 1.369 . S
C664 C666 1.419 . S
C664 H668 0.930 . S
C665 C664 1.369 . S
C665 C674 1.429 1_465 S
C666 C664 1.419 . S
C666 C667 1.363 1_565 S
C666 H669 0.929 . S
C667 C666 1.363 1_545 S
C667 C673 1.428 1_455 S
H668 C664 0.930 . S
H669 C666 0.929 . S
S670 N671 1.613 . S
S670 N672 1.610 . S
N671 S670 1.613 . S
N671 C674 1.350 . S
N672 S670 1.610 . S
N672 C673 1.351 . S
C673 C667 1.428 1_655 S
C673 N672 1.351 . S
C673 C674 1.434 . S
C674 C665 1.429 1_645 S
C674 N671 1.350 . S
C674 C673 1.434 . S
C675 C676 1.369 . S
C675 C677 1.419 . S
C675 H679 0.930 . S
C676 C675 1.369 . S
C676 C685 1.429 . S
C677 C675 1.419 . S
C677 C678 1.363 . S
C677 H680 0.929 . S
C678 C677 1.363 . S
C678 C684 1.428 . S
H679 C675 0.930 . S
H680 C677 0.929 . S
S681 N682 1.613 . S
S681 N683 1.610 . S
N682 S681 1.613 . S
N682 C685 1.350 . S
N683 S681 1.610 . S
N683 C684 1.351 . S
C684 C678 1.428 . S
C684 N683 1.351 . S
C684 C685 1.434 . S
C685 C676 1.429 . S
C685 N682 1.350 . S
C685 C684 1.434 . S
C686 C687 1.369 1_545 S
C686 C688 1.419 1_554 S
C686 H690 0.930 . S
C687 C686 1.369 1_565 S
C687 C696 1.429 . S
C688 C686 1.419 1_556 S
C688 C689 1.363 . S
C688 H691 0.929 . S
C689 C688 1.363 . S
C689 C695 1.428 1_545 S
H690 C686 0.930 . S
H691 C688 0.929 . S
S692 N693 1.613 1_556 S
S692 N694 1.610 . S
N693 S692 1.613 1_554 S
N693 C696 1.350 . S
N694 S692 1.610 . S
N694 C695 1.351 . S
C695 C689 1.428 1_565 S
C695 N694 1.351 . S
C695 C696 1.434 1_556 S
C696 C687 1.429 . S
C696 N693 1.350 . S
C696 C695 1.434 1_554 S
C697 C698 1.369 . S
C697 C699 1.419 . S
C697 H701 0.930 . S
C698 C697 1.369 . S
C698 C707 1.429 . S
C699 C697 1.419 . S
C699 C700 1.363 . S
C699 H702 0.929 . S
C700 C699 1.363 . S
C700 C706 1.428 . S
H701 C697 0.930 . S
H702 C699 0.929 . S
S703 N704 1.613 . S
S703 N705 1.610 . S
N704 S703 1.613 . S
N704 C707 1.350 . S
N705 S703 1.610 . S
N705 C706 1.351 . S
C706 C700 1.428 . S
C706 N705 1.351 . S
C706 C707 1.434 . S
C707 C698 1.429 . S
C707 N704 1.350 . S
C707 C706 1.434 . S
C708 C709 1.369 . S
C708 C710 1.419 . S
C708 H712 0.930 . S
C709 C708 1.369 . S
C709 C718 1.429 . S
C710 C708 1.419 . S
C710 C711 1.363 . S
C710 H713 0.929 . S
C711 C710 1.363 . S
C711 C717 1.428 . S
H712 C708 0.930 . S
H713 C710 0.929 . S
S714 N715 1.613 . S
S714 N716 1.610 . S
N715 S714 1.613 . S
N715 C718 1.350 . S
N716 S714 1.610 . S
N716 C717 1.351 . S
C717 C711 1.428 . S
C717 N716 1.351 . S
C717 C718 1.434 . S
C718 C709 1.429 . S
C718 N715 1.350 . S
C718 C717 1.434 . S
C719 C720 1.369 . S
C719 C721 1.419 . S
C719 H723 0.930 . S
C720 C719 1.369 . S
C720 C729 1.429 . S
C721 C719 1.419 . S
C721 C722 1.363 . S
C721 H724 0.929 . S
C722 C721 1.363 . S
C722 C728 1.428 . S
H723 C719 0.930 . S
H724 C721 0.929 . S
S725 N726 1.613 . S
S725 N727 1.610 . S
N726 S725 1.613 . S
N726 C729 1.350 . S
N727 S725 1.610 . S
N727 C728 1.351 . S
C728 C722 1.428 . S
C728 N727 1.351 . S
C728 C729 1.434 . S
C729 C720 1.429 . S
C729 N726 1.350 . S
C729 C728 1.434 . S
C730 C731 1.369 . S
C730 C732 1.419 1_556 S
C730 H734 0.930 . S
C731 C730 1.369 . S
C731 C740 1.429 . S
C732 C730 1.419 1_554 S
C732 C733 1.363 . S
C732 H735 0.929 . S
C733 C732 1.363 . S
C733 C739 1.428 . S
H734 C730 0.930 . S
H735 C732 0.929 . S
S736 N737 1.613 1_554 S
S736 N738 1.610 . S
N737 S736 1.613 1_556 S
N737 C740 1.350 . S
N738 S736 1.610 . S
N738 C739 1.351 . S
C739 C733 1.428 . S
C739 N738 1.351 . S
C739 C740 1.434 1_554 S
C740 C731 1.429 . S
C740 N737 1.350 . S
C740 C739 1.434 1_556 S
C741 C742 1.369 . S
C741 C743 1.419 . S
C741 H745 0.930 . S
C742 C741 1.369 . S
C742 C751 1.429 . S
C743 C741 1.419 . S
C743 C744 1.363 . S
C743 H746 0.929 . S
C744 C743 1.363 . S
C744 C750 1.428 . S
H745 C741 0.930 . S
H746 C743 0.929 . S
S747 N748 1.613 . S
S747 N749 1.610 . S
N748 S747 1.613 . S
N748 C751 1.350 . S
N749 S747 1.610 . S
N749 C750 1.351 . S
C750 C744 1.428 . S
C750 N749 1.351 . S
C750 C751 1.434 . S
C751 C742 1.429 . S
C751 N748 1.350 . S
C751 C750 1.434 . S
C752 C753 1.369 . S
C752 C754 1.419 . S
C752 H756 0.930 . S
C753 C752 1.369 . S
C753 C762 1.429 . S
C754 C752 1.419 . S
C754 C755 1.363 . S
C754 H757 0.929 . S
C755 C754 1.363 . S
C755 C761 1.428 . S
H756 C752 0.930 . S
H757 C754 0.929 . S
S758 N759 1.613 . S
S758 N760 1.610 . S
N759 S758 1.613 . S
N759 C762 1.350 . S
N760 S758 1.610 . S
N760 C761 1.351 . S
C761 C755 1.428 . S
C761 N760 1.351 . S
C761 C762 1.434 . S
C762 C753 1.429 . S
C762 N759 1.350 . S
C762 C761 1.434 . S
C763 C764 1.369 . S
C763 C765 1.419 . S
C763 H767 0.930 . S
C764 C763 1.369 . S
C764 C773 1.429 . S
C765 C763 1.419 . S
C765 C766 1.363 . S
C765 H768 0.929 . S
C766 C765 1.363 . S
C766 C772 1.428 . S
H767 C763 0.930 . S
H768 C765 0.929 . S
S769 N770 1.613 . S
S769 N771 1.610 . S
N770 S769 1.613 . S
N770 C773 1.350 . S
N771 S769 1.610 . S
N771 C772 1.351 . S
C772 C766 1.428 . S
C772 N771 1.351 . S
C772 C773 1.434 . S
C773 C764 1.429 . S
C773 N770 1.350 . S
C773 C772 1.434 . S
C774 C775 1.369 . S
C774 C776 1.419 . S
C774 H778 0.930 . S
C775 C774 1.369 . S
C775 C784 1.429 . S
C776 C774 1.419 . S
C776 C777 1.363 . S
C776 H779 0.929 . S
C777 C776 1.363 . S
C777 C783 1.428 . S
H778 C774 0.930 . S
H779 C776 0.929 . S
S780 N781 1.613 . S
S780 N782 1.610 . S
N781 S780 1.613 . S
N781 C784 1.350 . S
N782 S780 1.610 . S
N782 C783 1.351 . S
C783 C777 1.428 . S
C783 N782 1.351 . S
C783 C784 1.434 . S
C784 C775 1.429 . S
C784 N781 1.350 . S
C784 C783 1.434 . S
C785 C786 1.369 . S
C785 C787 1.419 . S
C785 H789 0.930 . S
C786 C785 1.369 . S
C786 C795 1.429 . S
C787 C785 1.419 . S
C787 C788 1.363 . S
C787 H790 0.929 . S
C788 C787 1.363 . S
C788 C794 1.428 . S
H789 C785 0.930 . S
H790 C787 0.929 . S
S791 N792 1.613 . S
S791 N793 1.610 . S
N792 S791 1.613 . S
N792 C795 1.350 . S
N793 S791 1.610 . S
N793 C794 1.351 . S
C794 C788 1.428 . S
C794 N793 1.351 . S
C794 C795 1.434 . S
C795 C786 1.429 . S
C795 N792 1.350 . S
C795 C794 1.434 . S
C796 C797 1.369 . S
C796 C798 1.419 . S
C796 H800 0.930 . S
C797 C796 1.369 . S
C797 C806 1.429 . S
C798 C796 1.419 . S
C798 C799 1.363 . S
C798 H801 0.929 . S
C799 C798 1.363 . S
C799 C805 1.428 . S
H800 C796 0.930 . S
H801 C798 0.929 . S
S802 N803 1.613 . S
S802 N804 1.610 . S
N803 S802 1.613 . S
N803 C806 1.350 . S
N804 S802 1.610 . S
N804 C805 1.351 . S
C805 C799 1.428 . S
C805 N804 1.351 . S
C805 C806 1.434 . S
C806 C797 1.429 . S
C806 N803 1.350 . S
C806 C805 1.434 . S
C807 C808 1.369 . S
C807 C809 1.419 . S
C807 H811 0.930 . S
C808 C807 1.369 . S
C808 C817 1.429 . S
C809 C807 1.419 . S
C809 C810 1.363 . S
C809 H812 0.929 . S
C810 C809 1.363 . S
C810 C816 1.428 . S
H811 C807 0.930 . S
H812 C809 0.929 . S
S813 N814 1.613 . S
S813 N815 1.610 . S
N814 S813 1.613 . S
N814 C817 1.350 . S
N815 S813 1.610 . S
N815 C816 1.351 . S
C816 C810 1.428 . S
C816 N815 1.351 . S
C816 C817 1.434 . S
C817 C808 1.429 . S
C817 N814 1.350 . S
C817 C816 1.434 . S
C818 C819 1.369 . S
C818 C820 1.419 . S
C818 H822 0.930 . S
C819 C818 1.369 . S
C819 C828 1.429 . S
C820 C818 1.419 . S
C820 C821 1.363 . S
C820 H823 0.929 1_565 S
C821 C820 1.363 . S
C821 C827 1.428 . S
H822 C818 0.930 . S
H823 C820 0.929 1_545 S
S824 N825 1.613 . S
S824 N826 1.610 . S
N825 S824 1.613 . S
N825 C828 1.350 . S
N826 S824 1.610 . S
N826 C827 1.351 . S
C827 C821 1.428 . S
C827 N826 1.351 . S
C827 C828 1.434 . S
C828 C819 1.429 . S
C828 N825 1.350 . S
C828 C827 1.434 . S
C829 C830 1.369 . S
C829 C831 1.419 . S
C829 H833 0.930 . S
C830 C829 1.369 . S
C830 C839 1.429 . S
C831 C829 1.419 . S
C831 C832 1.363 . S
C831 H834 0.929 . S
C832 C831 1.363 . S
C832 C838 1.428 . S
H833 C829 0.930 . S
H834 C831 0.929 . S
S835 N836 1.613 . S
S835 N837 1.610 1_565 S
N836 S835 1.613 . S
N836 C839 1.350 . S
N837 S835 1.610 1_545 S
N837 C838 1.351 1_545 S
C838 C832 1.428 . S
C838 N837 1.351 1_565 S
C838 C839 1.434 . S
C839 C830 1.429 . S
C839 N836 1.350 . S
C839 C838 1.434 . S
C840 C841 1.369 . S
C840 C842 1.419 . S
C840 H844 0.930 . S
C841 C840 1.369 . S
C841 C850 1.429 . S
C842 C840 1.419 . S
C842 C843 1.363 . S
C842 H845 0.929 . S
C843 C842 1.363 . S
C843 C849 1.428 . S
H844 C840 0.930 . S
H845 C842 0.929 . S
S846 N847 1.613 . S
S846 N848 1.610 . S
N847 S846 1.613 . S
N847 C850 1.350 . S
N848 S846 1.610 . S
N848 C849 1.351 . S
C849 C843 1.428 . S
C849 N848 1.351 . S
C849 C850 1.434 . S
C850 C841 1.429 . S
C850 N847 1.350 . S
C850 C849 1.434 . S
C851 C852 1.369 . S
C851 C853 1.419 . S
C851 H855 0.930 . S
C852 C851 1.369 . S
C852 C861 1.429 . S
C853 C851 1.419 . S
C853 C854 1.363 . S
C853 H856 0.929 . S
C854 C853 1.363 . S
C854 C860 1.428 . S
H855 C851 0.930 . S
H856 C853 0.929 . S
S857 N858 1.613 . S
S857 N859 1.610 . S
N858 S857 1.613 . S
N858 C861 1.350 . S
N859 S857 1.610 . S
N859 C860 1.351 . S
C860 C854 1.428 . S
C860 N859 1.351 . S
C860 C861 1.434 . S
C861 C852 1.429 . S
C861 N858 1.350 . S
C861 C860 1.434 . S
C862 C863 1.369 . S
C862 C864 1.419 . S
C862 H866 0.930 . S
C863 C862 1.369 . S
C863 C872 1.429 . S
C864 C862 1.419 . S
C864 C865 1.363 . S
C864 H867 0.929 . S
C865 C864 1.363 . S
C865 C871 1.428 . S
H866 C862 0.930 . S
H867 C864 0.929 . S
S868 N869 1.613 . S
S868 N870 1.610 . S
N869 S868 1.613 . S
N869 C872 1.350 . S
N870 S868 1.610 . S
N870 C871 1.351 . S
C871 C865 1.428 . S
C871 N870 1.351 . S
C871 C872 1.434 . S
C872 C863 1.429 . S
C872 N869 1.350 . S
C872 C871 1.434 . S
C873 C874 1.369 . S
C873 C875 1.419 . S
C873 H877 0.930 . S
C874 C873 1.369 . S
C874 C883 1.429 . S
C875 C873 1.419 . S
C875 C876 1.363 . S
C875 H878 0.929 . S
C876 C875 1.363 . S
C876 C882 1.428 . S
H877 C873 0.930 . S
H878 C875 0.929 . S
S879 N880 1.613 . S
S879 N881 1.610 . S
N880 S879 1.613 . S
N880 C883 1.350 . S
N881 S879 1.610 . S
N881 C882 1.351 . S
C882 C876 1.428 . S
C882 N881 1.351 . S
C882 C883 1.434 . S
C883 C874 1.429 . S
C883 N880 1.350 . S
C883 C882 1.434 . S
C884 C885 1.369 . S
C884 C886 1.419 . S
C884 H888 0.930 . S
C885 C884 1.369 . S
C885 C894 1.429 . S
C886 C884 1.419 . S
C886 C887 1.363 . S
C886 H889 0.929 . S
C887 C886 1.363 . S
C887 C893 1.428 . S
H888 C884 0.930 . S
H889 C886 0.929 . S
S890 N891 1.613 . S
S890 N892 1.610 . S
N891 S890 1.613 . S
N891 C894 1.350 . S
N892 S890 1.610 . S
N892 C893 1.351 . S
C893 C887 1.428 . S
C893 N892 1.351 . S
C893 C894 1.434 . S
C894 C885 1.429 . S
C894 N891 1.350 . S
C894 C893 1.434 . S
C895 C896 1.369 . S
C895 C897 1.419 . S
C895 H899 0.930 . S
C896 C895 1.369 . S
C896 C905 1.429 . S
C897 C895 1.419 . S
C897 C898 1.363 . S
C897 H900 0.929 . S
C898 C897 1.363 . S
C898 C904 1.428 . S
H899 C895 0.930 . S
H900 C897 0.929 . S
S901 N902 1.613 . S
S901 N903 1.610 . S
N902 S901 1.613 . S
N902 C905 1.350 . S
N903 S901 1.610 . S
N903 C904 1.351 . S
C904 C898 1.428 . S
C904 N903 1.351 . S
C904 C905 1.434 . S
C905 C896 1.429 . S
C905 N902 1.350 . S
C905 C904 1.434 . S
C906 C907 1.369 . S
C906 C908 1.419 . S
C906 H910 0.930 . S
C907 C906 1.369 . S
C907 C916 1.429 . S
C908 C906 1.419 . S
C908 C909 1.363 . S
C908 H911 0.929 . S
C909 C908 1.363 . S
C909 C915 1.428 . S
H910 C906 0.930 . S
H911 C908 0.929 . S
S912 N913 1.613 . S
S912 N914 1.610 . S
N913 S912 1.613 . S
N913 C916 1.350 . S
N914 S912 1.610 . S
N914 C915 1.351 . S
C915 C909 1.428 . S
C915 N914 1.351 . S
C915 C916 1.434 . S
C916 C907 1.429 . S
C916 N913 1.350 . S
C916 C915 1.434 . S
C917 C918 1.369 . S
C917 C919 1.419 . S
C917 H921 0.930 . S
C918 C917 1.369 . S
C918 C927 1.429 . S
C919 C917 1.419 . S
C919 C920 1.363 . S
C919 H922 0.929 . S
C920 C919 1.363 . S
C920 C926 1.428 . S
H921 C917 0.930 . S
H922 C919 0.929 . S
S923 N924 1.613 . S
S923 N925 1.610 . S
N924 S923 1.613 . S
N924 C927 1.350 . S
N925 S923 1.610 . S
N925 C926 1.351 . S
C926 C920 1.428 . S
C926 N925 1.351 . S
C926 C927 1.434 . S
C927 C918 1.429 . S
C927 N924 1.350 . S
C927 C926 1.434 . S
C577 C4 1.420 . S
C579 C472 1.415 . S
C588 C400 1.418 . S
C590 C40 1.415 . S
C599 C436 1.416 . S
C601 C76 1.415 . S
C610 C364 1.418 . S
C612 C112 1.415 . S
C621 C148 1.416 . S
C623 C544 1.416 . S
C632 C184 1.416 . S
C634 C328 1.415 . S
C643 C508 1.416 . S
C645 C220 1.416 . S
C654 C256 1.416 . S
C656 C292 1.415 . S
C665 C158 1.536 . S
C667 C14 1.535 . S
C676 C50 1.542 . S
C678 C194 1.540 . S
C687 C86 1.538 . S
C689 C230 1.541 . S
C698 C266 1.534 . S
C700 C122 1.537 . S
C709 C302 1.542 . S
C711 C374 1.540 . S
C720 C338 1.534 . S
C722 C410 1.536 . S
C731 C518 1.541 . S
C733 C446 1.541 . S
C742 C482 1.534 . S
C744 C554 1.537 . S
C753 C183 1.320 . S
C755 C3 1.320 . S
C764 C39 1.319 . S
C766 C219 1.320 . S
C775 C75 1.318 . S
C777 C255 1.321 . S
C786 C147 1.321 . S
C788 C111 1.319 . S
C797 C146 1.465 . S
C799 C362 1.466 . S
C808 C74 1.468 . S
C810 C290 1.469 . S
C819 C398 1.465 . S
C821 C218 1.466 . S
C830 C326 1.469 . S
C832 C2 1.470 . S
C841 C291 1.321 . S
C843 C435 1.319 . S
C852 C363 1.318 . S
C854 C543 1.321 . S
C863 C471 1.321 . S
C865 C327 1.319 . S
C874 C399 1.318 . S
C876 C507 1.320 . S
C885 C506 1.465 . S
C887 C38 1.466 . S
C896 C470 1.470 . S
C898 C182 1.469 . S
C907 C542 1.470 . S
C909 C110 1.470 . S
C918 C434 1.468 . S
C920 C254 1.467 . S
