# Generated by pormake.
# Topology unb, (4)-cn, num edge types: 1
# Building blocks:
#     Node 0, Type 0, BuildingBlock: AZAVOO_clean_sbu_0, # of connection points: 4
#     Node 1, Type 0, BuildingBlock: AZAVOO_clean_sbu_0, # of connection points: 4
#     Node 2, Type 0, BuildingBlock: AZAVOO_clean_sbu_0, # of connection points: 4
#     Node 3, Type 0, BuildingBlock: AZAVOO_clean_sbu_0, # of connection points: 4
#     Node 4, Type 0, BuildingBlock: AZAVOO_clean_sbu_0, # of connection points: 4
#     Node 5, Type 0, BuildingBlock: AZAVOO_clean_sbu_0, # of connection points: 4
#     Node 6, Type 0, BuildingBlock: AZAVOO_clean_sbu_0, # of connection points: 4
#     Node 7, Type 0, BuildingBlock: AZAVOO_clean_sbu_0, # of connection points: 4
#     Node 8, Type 0, BuildingBlock: AZAVOO_clean_sbu_0, # of connection points: 4
#     Node 9, Type 0, BuildingBlock: AZAVOO_clean_sbu_0, # of connection points: 4
#     Node 10, Type 0, BuildingBlock: AZAVOO_clean_sbu_0, # of connection points: 4
#     Node 11, Type 0, BuildingBlock: AZAVOO_clean_sbu_0, # of connection points: 4
#     Node 12, Type 0, BuildingBlock: AZAVOO_clean_sbu_0, # of connection points: 4
#     Node 13, Type 0, BuildingBlock: AZAVOO_clean_sbu_0, # of connection points: 4
#     Node 14, Type 0, BuildingBlock: AZAVOO_clean_sbu_0, # of connection points: 4
#     Node 15, Type 0, BuildingBlock: AZAVOO_clean_sbu_0, # of connection points: 4
#     Node 16, Type 0, BuildingBlock: AZAVOO_clean_sbu_0, # of connection points: 4
#     Node 17, Type 0, BuildingBlock: AZAVOO_clean_sbu_0, # of connection points: 4
#     Edge 18, Type (0, 0), BuildingBlock: AJUNOK_clean_linker_0, # of connection points: 2
#     Edge 19, Type (0, 0), BuildingBlock: AJUNOK_clean_linker_0, # of connection points: 2
#     Edge 20, Type (0, 0), BuildingBlock: AJUNOK_clean_linker_0, # of connection points: 2
#     Edge 21, Type (0, 0), BuildingBlock: AJUNOK_clean_linker_0, # of connection points: 2
#     Edge 22, Type (0, 0), BuildingBlock: AJUNOK_clean_linker_0, # of connection points: 2
#     Edge 23, Type (0, 0), BuildingBlock: AJUNOK_clean_linker_0, # of connection points: 2
#     Edge 24, Type (0, 0), BuildingBlock: AJUNOK_clean_linker_0, # of connection points: 2
#     Edge 25, Type (0, 0), BuildingBlock: AJUNOK_clean_linker_0, # of connection points: 2
#     Edge 26, Type (0, 0), BuildingBlock: AJUNOK_clean_linker_0, # of connection points: 2
#     Edge 27, Type (0, 0), BuildingBlock: AJUNOK_clean_linker_0, # of connection points: 2
#     Edge 28, Type (0, 0), BuildingBlock: AJUNOK_clean_linker_0, # of connection points: 2
#     Edge 29, Type (0, 0), BuildingBlock: AJUNOK_clean_linker_0, # of connection points: 2
#     Edge 30, Type (0, 0), BuildingBlock: AJUNOK_clean_linker_0, # of connection points: 2
#     Edge 31, Type (0, 0), BuildingBlock: AJUNOK_clean_linker_0, # of connection points: 2
#     Edge 32, Type (0, 0), BuildingBlock: AJUNOK_clean_linker_0, # of connection points: 2
#     Edge 33, Type (0, 0), BuildingBlock: AJUNOK_clean_linker_0, # of connection points: 2
#     Edge 34, Type (0, 0), BuildingBlock: AJUNOK_clean_linker_0, # of connection points: 2
#     Edge 35, Type (0, 0), BuildingBlock: AJUNOK_clean_linker_0, # of connection points: 2
#     Edge 36, Type (0, 0), BuildingBlock: AJUNOK_clean_linker_0, # of connection points: 2
#     Edge 37, Type (0, 0), BuildingBlock: AJUNOK_clean_linker_0, # of connection points: 2
#     Edge 38, Type (0, 0), BuildingBlock: AJUNOK_clean_linker_0, # of connection points: 2
#     Edge 39, Type (0, 0), BuildingBlock: AJUNOK_clean_linker_0, # of connection points: 2
#     Edge 40, Type (0, 0), BuildingBlock: AJUNOK_clean_linker_0, # of connection points: 2
#     Edge 41, Type (0, 0), BuildingBlock: AJUNOK_clean_linker_0, # of connection points: 2
#     Edge 42, Type (0, 0), BuildingBlock: AJUNOK_clean_linker_0, # of connection points: 2
#     Edge 43, Type (0, 0), BuildingBlock: AJUNOK_clean_linker_0, # of connection points: 2
#     Edge 44, Type (0, 0), BuildingBlock: AJUNOK_clean_linker_0, # of connection points: 2
#     Edge 45, Type (0, 0), BuildingBlock: AJUNOK_clean_linker_0, # of connection points: 2
#     Edge 46, Type (0, 0), BuildingBlock: AJUNOK_clean_linker_0, # of connection points: 2
#     Edge 47, Type (0, 0), BuildingBlock: AJUNOK_clean_linker_0, # of connection points: 2
#     Edge 48, Type (0, 0), BuildingBlock: AJUNOK_clean_linker_0, # of connection points: 2
#     Edge 49, Type (0, 0), BuildingBlock: AJUNOK_clean_linker_0, # of connection points: 2
#     Edge 50, Type (0, 0), BuildingBlock: AJUNOK_clean_linker_0, # of connection points: 2
#     Edge 51, Type (0, 0), BuildingBlock: AJUNOK_clean_linker_0, # of connection points: 2
#     Edge 52, Type (0, 0), BuildingBlock: AJUNOK_clean_linker_0, # of connection points: 2
#     Edge 53, Type (0, 0), BuildingBlock: AJUNOK_clean_linker_0, # of connection points: 2
# Relax obj value: 0.011
# Max RMSD: 0.021
# Mean RMSD: 0.021
data_MOF--net-unb--node1-AZAVOO_clean_sbu_0--edge1-AJUNOK_clean_linker_0
_symmetry_space_group_name_H-M    P1
_symmetry_Int_Tables_number       1
_symmetry_cell_setting            triclinic
loop_
_symmetry_equiv_pos_as_xyz
'x, y, z'
_cell_length_a     50.755019
_cell_length_b     50.705862
_cell_length_c     17.343851
_cell_angle_alpha  89.999473
_cell_angle_beta   89.97596
_cell_angle_gamma 119.96428
loop_
_atom_site_label
_atom_site_type_symbol
_atom_site_fract_x
_atom_site_fract_y
_atom_site_fract_z
_atom_type_partial_charge
Mg0 Mg 0.1197 0.24944 0.08209 0.0
O1 O 0.12881 0.28719 0.99466 0.0
O2 O 0.09768 0.30507 0.02249 0.0
Mg3 Mg 0.06757 0.27796 0.12504 0.0
C4 C 0.11876 0.30537 0.98151 0.0
C5 C 0.17302 0.23528 0.07963 0.0
O6 O 0.16151 0.22463 0.14809 0.0
O7 O 0.14498 0.28488 0.17799 0.0
O8 O 0.10842 0.29585 0.20531 0.0
O9 O 0.08321 0.21382 0.00693 0.0
O10 O 0.07449 0.23988 0.09487 0.0
C11 C 0.13406 0.29796 0.21963 0.0
C12 C 0.0642 0.22004 0.04036 0.0
O13 O 0.16228 0.24906 0.04105 0.0
Mg14 Mg 0.76422 0.88134 0.08054 0.0
O15 O 0.72632 0.85302 0.99264 0.0
O16 O 0.71095 0.80423 0.01716 0.0
Mg17 Mg 0.73841 0.8009 0.11809 0.0
C18 C 0.70922 0.8247 0.97817 0.0
C19 C 0.77257 0.9454 0.09872 0.0
O20 O 0.77748 0.93895 0.16877 0.0
O21 O 0.72906 0.86939 0.17727 0.0
O22 O 0.71882 0.82175 0.20139 0.0
O23 O 0.79935 0.88076 0.00223 0.0
O24 O 0.77512 0.84689 0.09346 0.0
C25 C 0.71617 0.84493 0.21713 0.0
C26 C 0.79454 0.8564 0.03829 0.0
O27 O 0.76404 0.92487 0.04731 0.0
Mg28 Mg 0.11996 0.878 0.05595 0.0
O29 O 0.14775 0.87352 0.95538 0.0
O30 O 0.19571 0.91118 0.97056 0.0
Mg31 Mg 0.1997 0.93705 0.08168 0.0
C32 C 0.17544 0.88846 0.93286 0.0
C33 C 0.05777 0.82038 0.07571 0.0
O34 O 0.06486 0.83098 0.14638 0.0
O35 O 0.13752 0.85512 0.13943 0.0
O36 O 0.18541 0.89349 0.15076 0.0
O37 O 0.11483 0.9131 0.98899 0.0
O38 O 0.15196 0.92396 0.07171 0.0
C39 C 0.16425 0.86664 0.1679 0.0
C40 C 0.13961 0.9332 0.02222 0.0
O41 O 0.07759 0.83339 0.02309 0.0
Mg42 Mg 0.23958 0.11853 0.92601 0.0
O43 O 0.27199 0.12227 0.02395 0.0
O44 O 0.28572 0.08725 0.00613 0.0
Mg45 Mg 0.26382 0.0623 0.89348 0.0
C46 C 0.28668 0.1091 0.04493 0.0
C47 C 0.23219 0.17656 0.93061 0.0
O48 O 0.2258 0.16933 0.85758 0.0
O49 O 0.2801 0.14403 0.84315 0.0
O50 O 0.29152 0.10703 0.82757 0.0
O51 O 0.19977 0.0812 0.98908 0.0
O52 O 0.22734 0.07316 0.90435 0.0
C53 C 0.29612 0.1337 0.8128 0.0
C54 C 0.20522 0.06217 0.95268 0.0
O55 O 0.24089 0.16148 0.97136 0.0
Mg56 Mg 0.88082 0.12694 0.91654 0.0
O57 O 0.86954 0.15411 0.00499 0.0
O58 O 0.90045 0.20324 0.97705 0.0
Mg59 Mg 0.932 0.20809 0.8767 0.0
C60 C 0.8793 0.18236 0.01773 0.0
C61 C 0.8336 0.07329 0.0175 0.0
O62 O 0.85137 0.09231 0.07072 0.0
O63 O 0.85615 0.13728 0.82013 0.0
O64 O 0.89195 0.18527 0.7939 0.0
O65 O 0.91711 0.12801 0.99349 0.0
O66 O 0.92545 0.16349 0.9081 0.0
C67 C 0.86667 0.16138 0.77917 0.0
C68 C 0.9358 0.15389 0.96226 0.0
O69 O 0.83836 0.08187 0.94751 0.0
Mg70 Mg 0.87836 0.75864 0.90161 0.0
O71 O 0.85004 0.72074 0.98948 0.0
O72 O 0.80142 0.70721 0.97121 0.0
Mg73 Mg 0.79823 0.73591 0.8731 0.0
C74 C 0.82192 0.70441 0.00681 0.0
C75 C 0.92996 0.75908 0.99945 0.0
O76 O 0.91205 0.75932 0.05385 0.0
O77 O 0.86393 0.72351 0.80373 0.0
O78 O 0.81656 0.71496 0.78659 0.0
O79 O 0.88033 0.79416 0.98311 0.0
O80 O 0.8451 0.77141 0.89396 0.0
C81 C 0.83876 0.71126 0.76682 0.0
C82 C 0.85586 0.79041 0.94993 0.0
O83 O 0.92118 0.75637 0.9298 0.0
Mg84 Mg 0.79128 0.57514 0.39394 0.0
O85 O 0.79679 0.60799 0.29407 0.0
O86 O 0.75924 0.61859 0.30637 0.0
Mg87 Mg 0.73168 0.59545 0.41467 0.0
C88 C 0.78253 0.62137 0.27079 0.0
C89 C 0.84943 0.57167 0.41917 0.0
O90 O 0.8383 0.56843 0.48916 0.0
O91 O 0.8129 0.61525 0.47888 0.0
O92 O 0.77416 0.62435 0.48722 0.0
O93 O 0.75704 0.5352 0.3244 0.0
O94 O 0.74519 0.56103 0.4062 0.0
C95 C 0.80084 0.63015 0.50642 0.0
C96 C 0.73653 0.53965 0.35628 0.0
O97 O 0.83645 0.57772 0.36481 0.0
Mg98 Mg 0.4215 0.20945 0.41166 0.0
O99 O 0.3838 0.17874 0.32699 0.0
O100 O 0.3708 0.13056 0.35087 0.0
Mg101 Mg 0.39994 0.13027 0.45213 0.0
C102 C 0.36779 0.15036 0.31233 0.0
C103 C 0.43143 0.27483 0.40939 0.0
O104 O 0.44269 0.27414 0.4771 0.0
O105 O 0.38676 0.19697 0.51034 0.0
O106 O 0.37918 0.15027 0.53439 0.0
O107 O 0.45656 0.21002 0.33167 0.0
O108 O 0.43515 0.17697 0.42643 0.0
C109 C 0.37516 0.1726 0.55073 0.0
C110 C 0.45351 0.18656 0.36895 0.0
O111 O 0.41798 0.25032 0.3707 0.0
Mg112 Mg 0.78632 0.21749 0.41048 0.0
O113 O 0.81229 0.20985 0.31077 0.0
O114 O 0.86148 0.24429 0.32546 0.0
Mg115 Mg 0.86762 0.27092 0.43653 0.0
C116 C 0.83997 0.22237 0.28834 0.0
C117 C 0.72245 0.16194 0.43086 0.0
O118 O 0.72994 0.17247 0.50149 0.0
O119 O 0.8005 0.19192 0.49413 0.0
O120 O 0.84998 0.22647 0.50487 0.0
O121 O 0.78496 0.25427 0.34229 0.0
O122 O 0.8212 0.26258 0.42568 0.0
C123 C 0.82695 0.20065 0.52146 0.0
C124 C 0.81043 0.27314 0.37506 0.0
O125 O 0.74219 0.17452 0.37787 0.0
Mg126 Mg 0.91279 0.45566 0.24744 0.0
O127 O 0.95046 0.46315 0.33461 0.0
O128 O 0.96231 0.42719 0.30942 0.0
Mg129 Mg 0.93298 0.39675 0.21029 0.0
C130 C 0.96601 0.45014 0.34853 0.0
C131 C 0.91292 0.50676 0.34845 0.0
O132 O 0.91229 0.48828 0.40244 0.0
O133 O 0.94788 0.4766 0.14907 0.0
O134 O 0.95442 0.43677 0.12624 0.0
O135 O 0.8765 0.42145 0.32702 0.0
O136 O 0.89894 0.40955 0.23594 0.0
C137 C 0.95902 0.46326 0.10922 0.0
C138 C 0.8796 0.40079 0.29115 0.0
O139 O 0.91581 0.50094 0.27865 0.0
Mg140 Mg 0.5523 0.45593 0.25409 0.0
O141 O 0.54948 0.48558 0.35084 0.0
O142 O 0.58546 0.53391 0.33269 0.0
Mg143 Mg 0.60988 0.53568 0.21988 0.0
C144 C 0.56328 0.51348 0.37155 0.0
C145 C 0.49199 0.39211 0.25924 0.0
O146 O 0.49819 0.39272 0.1855 0.0
O147 O 0.52777 0.47163 0.17035 0.0
O148 O 0.56525 0.51982 0.15423 0.0
O149 O 0.58871 0.4525 0.31867 0.0
O150 O 0.59794 0.48797 0.23209 0.0
C151 C 0.53841 0.49802 0.14007 0.0
C152 C 0.60823 0.47657 0.2817 0.0
O153 O 0.50864 0.41543 0.30003 0.0
Mg154 Mg 0.54071 0.09002 0.25407 0.0
O155 O 0.51435 0.05659 0.35372 0.0
O156 O 0.46527 0.04219 0.33961 0.0
Mg157 Mg 0.45952 0.06349 0.22931 0.0
C158 C 0.48671 0.0415 0.37637 0.0
C159 C 0.59422 0.09705 0.35567 0.0
O160 O 0.57645 0.09901 0.40768 0.0
O161 O 0.52565 0.04999 0.17048 0.0
O162 O 0.47646 0.03637 0.16012 0.0
O163 O 0.54291 0.12891 0.3212 0.0
O164 O 0.50632 0.1008 0.23904 0.0
C165 C 0.49903 0.03287 0.14308 0.0
C166 C 0.51761 0.12267 0.2881 0.0
O167 O 0.58475 0.09084 0.28658 0.0
Mg168 Mg 0.45128 0.90617 0.74706 0.0
O169 O 0.46043 0.94418 0.65943 0.0
O170 O 0.42544 0.95764 0.68208 0.0
Mg171 Mg 0.3944 0.92925 0.78159 0.0
C172 C 0.4483 0.96044 0.6442 0.0
C173 C 0.50674 0.89821 0.76886 0.0
O174 O 0.49392 0.89217 0.83733 0.0
O175 O 0.47275 0.94109 0.84504 0.0
O176 O 0.43411 0.94964 0.86679 0.0
O177 O 0.41714 0.87096 0.66631 0.0
O178 O 0.40546 0.89375 0.7573 0.0
C179 C 0.46012 0.95312 0.88416 0.0
C180 C 0.39679 0.87495 0.70083 0.0
O181 O 0.49585 0.90767 0.71676 0.0
Mg182 Mg 0.09446 0.54852 0.73328 0.0
O183 O 0.06153 0.51978 0.63488 0.0
O184 O 0.05088 0.47182 0.6526 0.0
Mg185 Mg 0.0737 0.4688 0.76316 0.0
C186 C 0.04834 0.49186 0.61397 0.0
C187 C 0.09797 0.59997 0.62887 0.0
O188 O 0.10107 0.5825 0.57801 0.0
O189 O 0.05448 0.53164 0.81849 0.0
O190 O 0.045 0.48377 0.83207 0.0
O191 O 0.13443 0.55284 0.66602 0.0
O192 O 0.10835 0.51648 0.75045 0.0
C193 C 0.03944 0.5051 0.8484 0.0
C194 C 0.12997 0.52839 0.70091 0.0
O195 O 0.09214 0.59086 0.69836 0.0
Mg196 Mg 0.46556 0.55071 0.74034 0.0
O197 O 0.49564 0.54336 0.65436 0.0
O198 O 0.54409 0.57724 0.67915 0.0
Mg199 Mg 0.54506 0.60674 0.78132 0.0
C200 C 0.52394 0.55498 0.63986 0.0
C201 C 0.40046 0.49427 0.74017 0.0
O202 O 0.40174 0.50471 0.81024 0.0
O203 O 0.47749 0.52752 0.83754 0.0
O204 O 0.52443 0.56582 0.86338 0.0
O205 O 0.46547 0.58622 0.66306 0.0
O206 O 0.49861 0.59643 0.75657 0.0
C207 C 0.50166 0.53966 0.87858 0.0
C208 C 0.48896 0.60611 0.70111 0.0
O209 O 0.42432 0.50683 0.6989 0.0
Mg210 Mg 0.58018 0.79 0.58864 0.0
O211 O 0.61397 0.79696 0.68725 0.0
O212 O 0.62819 0.76212 0.67182 0.0
Mg213 Mg 0.60706 0.73562 0.56095 0.0
C214 C 0.62896 0.78418 0.70923 0.0
C215 C 0.57286 0.83611 0.69179 0.0
O216 O 0.57105 0.81625 0.74327 0.0
O217 O 0.6198 0.81524 0.50402 0.0
O218 O 0.63382 0.77995 0.49267 0.0
O219 O 0.542 0.75323 0.65702 0.0
O220 O 0.56963 0.74486 0.57271 0.0
C221 C 0.63704 0.80596 0.4761 0.0
C222 C 0.54841 0.73432 0.62352 0.0
O223 O 0.57911 0.83309 0.6225 0.0
Mg224 Mg 0.21494 0.79097 0.56754 0.0
O225 O 0.20622 0.8205 0.65427 0.0
O226 O 0.2412 0.86862 0.62896 0.0
Mg227 Mg 0.27251 0.87053 0.53099 0.0
C228 C 0.21837 0.84903 0.66774 0.0
C229 C 0.15931 0.72758 0.54743 0.0
O230 O 0.17171 0.73421 0.47847 0.0
O231 O 0.19361 0.80441 0.46876 0.0
O232 O 0.23282 0.85114 0.44613 0.0
O233 O 0.24931 0.78972 0.64768 0.0
O234 O 0.26077 0.82394 0.55642 0.0
C235 C 0.20663 0.82888 0.42881 0.0
C236 C 0.26971 0.81365 0.61191 0.0
O237 O 0.17036 0.74813 0.599 0.0
Mg238 Mg 0.21829 0.43241 0.59546 0.0
O239 O 0.18874 0.39924 0.69124 0.0
O240 O 0.14054 0.38742 0.67353 0.0
Mg241 Mg 0.13864 0.41017 0.56122 0.0
C242 C 0.16087 0.38532 0.71195 0.0
C243 C 0.28191 0.43598 0.59743 0.0
O244 O 0.28052 0.44132 0.52385 0.0
O245 O 0.20316 0.39274 0.51011 0.0
O246 O 0.15494 0.38185 0.49486 0.0
O247 O 0.22115 0.47132 0.66324 0.0
O248 O 0.18609 0.44604 0.57489 0.0
C249 C 0.17682 0.377 0.47979 0.0
C250 C 0.19703 0.46686 0.62684 0.0
O251 O 0.25897 0.4293 0.63977 0.0
C252 C 0.14159 0.32717 0.42145 0.0
C253 C 0.17066 0.35316 0.42209 0.0
C254 C 0.13112 0.30802 0.35738 0.0
C255 C 0.14927 0.31403 0.29128 0.0
H256 H 0.12603 0.32264 0.46902 0.0
H257 H 0.10785 0.28931 0.35781 0.0
S258 S 0.22857 0.37684 0.26737 0.0
N259 N 0.21876 0.38224 0.35436 0.0
N260 N 0.19883 0.34584 0.233 0.0
C261 C 0.17936 0.33831 0.29344 0.0
C262 C 0.19015 0.35801 0.35926 0.0
C263 C 0.65338 0.83518 0.35214 0.0
C264 C 0.66067 0.82437 0.41897 0.0
C265 C 0.67281 0.84459 0.28751 0.0
C266 C 0.69991 0.84343 0.2887 0.0
H267 H 0.63152 0.83398 0.34745 0.0
H268 H 0.66553 0.85052 0.23482 0.0
S269 S 0.73166 0.82244 0.45463 0.0
N270 N 0.69866 0.81722 0.4859 0.0
N271 N 0.73498 0.83483 0.36512 0.0
C272 C 0.70859 0.83539 0.35758 0.0
C273 C 0.689 0.82589 0.42272 0.0
C274 C 0.21217 0.84752 0.29499 0.0
C275 C 0.19274 0.83194 0.35702 0.0
C276 C 0.20183 0.85632 0.23096 0.0
C277 C 0.17161 0.85003 0.22622 0.0
H278 H 0.23605 0.85418 0.29735 0.0
H279 H 0.21814 0.86959 0.18653 0.0
S280 S 0.11057 0.80646 0.36893 0.0
N281 N 0.14109 0.80773 0.40664 0.0
N282 N 0.12144 0.82459 0.28556 0.0
C283 C 0.1512 0.8323 0.28484 0.0
C284 C 0.16184 0.82317 0.35054 0.0
C285 C 0.36413 0.15642 0.68672 0.0
C286 C 0.35853 0.16998 0.62287 0.0
C287 C 0.34524 0.14743 0.75131 0.0
C288 C 0.31983 0.15147 0.75479 0.0
H289 H 0.38247 0.15132 0.68522 0.0
H290 H 0.34956 0.13552 0.79708 0.0
S291 S 0.2974 0.18936 0.60688 0.0
N292 N 0.32778 0.19005 0.57 0.0
N293 N 0.29174 0.17277 0.69211 0.0
C294 C 0.31537 0.16734 0.69426 0.0
C295 C 0.33486 0.17668 0.62797 0.0
C296 C 0.81386 0.17169 0.64565 0.0
C297 C 0.83168 0.1818 0.57822 0.0
C298 C 0.82367 0.16193 0.71 0.0
C299 C 0.85133 0.16188 0.70778 0.0
H300 H 0.79375 0.17383 0.65109 0.0
H301 H 0.81092 0.15684 0.76333 0.0
S302 S 0.90293 0.1807 0.54011 0.0
N303 N 0.87577 0.18705 0.50971 0.0
N304 N 0.894 0.16862 0.6299 0.0
C305 C 0.86759 0.16908 0.63823 0.0
C306 C 0.85779 0.17906 0.57345 0.0
C307 C 0.81759 0.69619 0.63564 0.0
C308 C 0.83483 0.69369 0.69557 0.0
C309 C 0.80881 0.67692 0.57192 0.0
C310 C 0.81669 0.65408 0.5654 0.0
H311 H 0.80984 0.71258 0.63919 0.0
H312 H 0.7945 0.67909 0.52897 0.0
S313 S 0.86461 0.64026 0.70247 0.0
N314 N 0.86206 0.66866 0.74139 0.0
N315 N 0.84516 0.63181 0.62101 0.0
C316 C 0.83583 0.65268 0.62205 0.0
C317 C 0.84498 0.67263 0.68739 0.0
C318 C 0.97221 0.45766 0.97546 0.0
C319 C 0.97629 0.4771 0.03768 0.0
C320 C 0.99138 0.46789 0.91146 0.0
C321 C 0.01559 0.49801 0.90688 0.0
H322 H 0.95474 0.43386 0.97757 0.0
H323 H 0.98812 0.45156 0.86685 0.0
S324 S 0.03393 0.55904 0.05035 0.0
N325 N 0.00439 0.52867 0.08781 0.0
N326 N 0.04096 0.54808 0.96678 0.0
C327 C 0.01858 0.51844 0.96579 0.0
C328 C 0.99879 0.50792 0.03148 0.0
C329 C 0.50871 0.48555 0.01687 0.0
C330 C 0.52069 0.50411 0.08265 0.0
C331 C 0.50002 0.49597 0.95157 0.0
C332 C 0.50319 0.52516 0.95087 0.0
H333 H 0.50836 0.46405 0.01351 0.0
H334 H 0.493 0.48216 0.89984 0.0
S335 S 0.52777 0.57967 0.11384 0.0
N336 N 0.53106 0.55089 0.14671 0.0
N337 N 0.51482 0.57036 0.02489 0.0
C338 C 0.51245 0.54252 0.01881 0.0
C339 C 0.52117 0.532 0.08461 0.0
C340 C 0.5124 0.0157 0.02099 0.0
C341 C 0.49349 0.00906 0.08609 0.0
C342 C 0.50274 0.99616 0.95656 0.0
C343 C 0.47401 0.96961 0.95615 0.0
H344 H 0.53357 0.03714 0.0174 0.0
H345 H 0.51672 0.00294 0.90514 0.0
S346 S 0.41903 0.93937 0.11798 0.0
N347 N 0.44702 0.97206 0.15021 0.0
N348 N 0.42895 0.93557 0.02979 0.0
C349 C 0.45636 0.96151 0.02354 0.0
C350 C 0.4661 0.9812 0.0885 0.0
C351 C 0.11408 0.33953 0.88462 0.0
C352 C 0.13089 0.32664 0.91469 0.0
C353 C 0.12407 0.35852 0.81963 0.0
C354 C 0.15152 0.36584 0.78224 0.0
H355 H 0.09264 0.33449 0.91055 0.0
H356 H 0.11006 0.36755 0.79859 0.0
S357 S 0.20467 0.33886 0.83894 0.0
N358 N 0.17682 0.32311 0.90259 0.0
N359 N 0.19569 0.359 0.78101 0.0
C360 C 0.16891 0.3536 0.81244 0.0
C361 C 0.15856 0.33395 0.87829 0.0
C362 C 0.65708 0.77591 0.81634 0.0
C363 C 0.64816 0.79504 0.77994 0.0
C364 C 0.6762 0.78556 0.8809 0.0
C365 C 0.68767 0.81497 0.91182 0.0
H366 H 0.6493 0.75315 0.79471 0.0
H367 H 0.68251 0.76989 0.90573 0.0
S368 S 0.67052 0.87381 0.83994 0.0
N369 N 0.6516 0.84465 0.78123 0.0
N370 N 0.68785 0.86296 0.90222 0.0
C371 C 0.67863 0.83429 0.8768 0.0
C372 C 0.65879 0.82429 0.81122 0.0
C373 C 0.17072 0.84822 0.83976 0.0
C374 C 0.18492 0.87903 0.86169 0.0
C375 C 0.18133 0.83877 0.77648 0.0
C376 C 0.20636 0.85979 0.73195 0.0
H377 H 0.15187 0.83113 0.87316 0.0
H378 H 0.17003 0.81469 0.76324 0.0
S379 S 0.24923 0.94375 0.76085 0.0
N380 N 0.22376 0.93082 0.8307 0.0
N381 N 0.24354 0.91342 0.71199 0.0
C382 C 0.2199 0.89089 0.75171 0.0
C383 C 0.20925 0.90039 0.81641 0.0
C384 C 0.33503 0.11086 0.21496 0.0
C385 C 0.34594 0.14008 0.2466 0.0
C386 C 0.31573 0.10104 0.15056 0.0
C387 C 0.30611 0.11983 0.11532 0.0
H388 H 0.34192 0.09553 0.23906 0.0
H389 H 0.30838 0.07848 0.12814 0.0
S390 S 0.32715 0.1981 0.17722 0.0
N391 N 0.34497 0.18753 0.23863 0.0
N392 N 0.30856 0.16901 0.1182 0.0
C393 C 0.31629 0.1489 0.14731 0.0
C394 C 0.33623 0.15904 0.21257 0.0
C395 C 0.88413 0.22185 0.11216 0.0
C396 C 0.86734 0.19177 0.08448 0.0
C397 C 0.87478 0.23141 0.17714 0.0
C398 C 0.84797 0.21149 0.21719 0.0
H399 H 0.90518 0.2382 0.08448 0.0
H400 H 0.88885 0.25472 0.19625 0.0
S401 S 0.79495 0.1306 0.16744 0.0
N402 N 0.822 0.14218 0.10158 0.0
N403 N 0.80423 0.16034 0.22342 0.0
C404 C 0.83046 0.18152 0.18934 0.0
C405 C 0.84021 0.17161 0.12333 0.0
C406 C 0.78261 0.66863 0.10041 0.0
C407 C 0.81257 0.68222 0.07189 0.0
C408 C 0.77321 0.64877 0.16358 0.0
C409 C 0.79318 0.64125 0.20113 0.0
H410 H 0.76622 0.67372 0.07466 0.0
H411 H 0.74996 0.63932 0.18331 0.0
S412 S 0.87385 0.66959 0.14804 0.0
N413 N 0.8621 0.68597 0.08527 0.0
N414 N 0.84431 0.6485 0.20387 0.0
C415 C 0.82305 0.65407 0.17236 0.0
C416 C 0.83276 0.67457 0.10804 0.0
C417 C 0.99491 0.48808 0.45397 0.0
C418 C 0.98834 0.46131 0.41359 0.0
C419 C 0.01492 0.49831 0.51728 0.0
C420 C 0.02892 0.482 0.54358 0.0
H421 H 0.98433 0.50119 0.43707 0.0
H422 H 0.01883 0.51874 0.547 0.0
S423 S 0.02116 0.41163 0.45585 0.0
N424 N 0.99894 0.41955 0.40319 0.0
N425 N 0.03611 0.43865 0.52173 0.0
C426 C 0.02312 0.45562 0.50283 0.0
C427 C 0.003 0.44534 0.4381 0.0
C428 C 0.56297 0.56078 0.54195 0.0
C429 C 0.53369 0.54307 0.57366 0.0
C430 C 0.57232 0.55092 0.47728 0.0
C431 C 0.55297 0.52271 0.44186 0.0
H432 H 0.57874 0.5828 0.56629 0.0
H433 H 0.59498 0.56565 0.45485 0.0
S434 S 0.47425 0.46705 0.50373 0.0
N435 N 0.48554 0.49546 0.56543 0.0
N436 N 0.50316 0.47687 0.44456 0.0
C437 C 0.5238 0.50445 0.47384 0.0
C438 C 0.51415 0.51464 0.53935 0.0
C439 C 0.4412 0.99284 0.54685 0.0
C440 C 0.45978 0.9822 0.57813 0.0
C441 C 0.45035 0.01217 0.48262 0.0
C442 C 0.47869 0.02211 0.44682 0.0
H443 H 0.41898 0.98575 0.57117 0.0
H444 H 0.43486 0.01926 0.46076 0.0
S445 S 0.53669 0.0021 0.50778 0.0
N446 N 0.50845 0.98385 0.56942 0.0
N447 N 0.52578 0.02044 0.449 0.0
C448 C 0.49791 0.01227 0.47839 0.0
C449 C 0.48842 0.99224 0.54369 0.0
C450 C 0.20382 0.2092 0.08519 0.0
C451 C 0.19363 0.22602 0.04257 0.0
C452 C 0.21827 0.19508 0.04918 0.0
C453 C 0.22294 0.19695 0.96884 0.0
H454 H 0.19936 0.20564 0.14649 0.0
H455 H 0.22421 0.18114 0.08429 0.0
S456 S 0.20564 0.24277 0.83275 0.0
N457 N 0.19314 0.24724 0.91688 0.0
N458 N 0.21998 0.22039 0.8493 0.0
C459 C 0.21511 0.2157 0.92641 0.0
C460 C 0.20058 0.23032 0.96321 0.0
C461 C 0.81082 0.0313 0.11473 0.0
C462 C 0.81264 0.0408 0.03769 0.0
C463 C 0.79607 1.00038 0.13434 0.0
C464 C 0.78248 0.97752 0.07781 0.0
H465 H 0.82211 0.04782 0.16022 0.0
H466 H 0.79668 0.99447 0.19408 0.0
S467 S 0.77605 0.99014 0.86936 0.0
N468 N 0.79599 0.02473 0.90572 0.0
N469 N 0.76829 0.9666 0.94264 0.0
C470 C 0.78191 0.98664 0.00139 0.0
C471 C 0.79697 0.01824 0.98134 0.0
C472 C 0.97204 0.7747 0.09504 0.0
C473 C 0.96206 0.76833 0.01804 0.0
C474 C 0.00304 0.78952 0.11353 0.0
C475 C 0.02546 0.7987 0.05584 0.0
H476 H 0.95592 0.76968 0.14144 0.0
H477 H 0.0094 0.7953 0.17337 0.0
S478 S 0.01121 0.78195 0.84666 0.0
N479 N 0.977 0.76824 0.88462 0.0
N480 N 0.03526 0.79618 0.91942 0.0
C481 C 0.01573 0.78994 0.9793 0.0
C482 C 0.98406 0.77475 0.96041 0.0
C483 C 0.83026 0.82 0.9181 0.0
C484 C 0.84052 0.8072 0.97432 0.0
C485 C 0.81584 0.83642 0.93906 0.0
C486 C 0.81025 0.8396 0.01683 0.0
H487 H 0.83384 0.81771 0.85745 0.0
H488 H 0.80854 0.84619 0.89412 0.0
S489 S 0.83186 0.80955 0.18573 0.0
N490 N 0.84421 0.79878 0.11062 0.0
N491 N 0.81582 0.82839 0.15027 0.0
C492 C 0.81998 0.82647 0.0735 0.0
C493 C 0.8355 0.81059 0.0522 0.0
C494 C 0.15771 0.98707 0.05696 0.0
C495 C 0.15465 0.96556 0.00142 0.0
C496 C 0.17362 0.01833 0.04034 0.0
C497 C 0.18777 0.02907 0.96838 0.0
H498 H 0.14777 0.97966 0.1137 0.0
H499 H 0.17544 0.03418 0.08474 0.0
S500 S 0.18674 0.98145 0.80425 0.0
N501 N 0.16675 0.95665 0.87232 0.0
N502 N 0.19749 0.0154 0.84106 0.0
C503 C 0.18491 0.00759 0.91251 0.0
C504 C 0.16812 0.97578 0.92905 0.0
C505 C 0.98479 0.15603 0.99345 0.0
C506 C 0.96808 0.17117 0.98568 0.0
C507 C 0.01612 0.17221 0.00912 0.0
C508 C 0.03167 0.204 0.01884 0.0
H509 H 0.97371 0.13159 0.98572 0.0
H510 H 0.02816 0.1597 0.01485 0.0
S511 S 0.99812 0.25416 0.00537 0.0
N512 N 0.96917 0.21953 0.99151 0.0
N513 N 0.02808 0.24998 0.01749 0.0
C514 C 0.01517 0.21932 0.01137 0.0
C515 C 0.98333 0.20287 0.99561 0.0
C516 C 0.8762 0.5556 0.32478 0.0
C517 C 0.87172 0.56155 0.40155 0.0
C518 C 0.89167 0.53984 0.30761 0.0
C519 C 0.90323 0.52933 0.36652 0.0
H520 H 0.86613 0.56149 0.27757 0.0
H521 H 0.89282 0.53424 0.2479 0.0
S522 S 0.90347 0.54487 0.57573 0.0
N523 N 0.88453 0.56004 0.53612 0.0
N524 N 0.91339 0.53033 0.5038 0.0
C525 C 0.90142 0.53765 0.44291 0.0
C526 C 0.88575 0.55378 0.46042 0.0
C527 C 0.47234 0.36013 0.37824 0.0
C528 C 0.47075 0.36282 0.29777 0.0
C529 C 0.45763 0.33166 0.41465 0.0
C530 C 0.44053 0.30465 0.3723 0.0
H531 H 0.48655 0.37995 0.41318 0.0
H532 H 0.46111 0.33079 0.476 0.0
S533 S 0.42388 0.2998 0.1625 0.0
N534 N 0.4469 0.33644 0.17852 0.0
N535 N 0.41901 0.28293 0.24692 0.0
C536 C 0.43629 0.30727 0.29292 0.0
C537 C 0.45148 0.33633 0.25569 0.0
C538 C 0.63671 0.11617 0.45113 0.0
C539 C 0.62663 0.10786 0.37471 0.0
C540 C 0.66774 0.1319 0.46931 0.0
C541 C 0.69011 0.14013 0.41184 0.0
H542 H 0.62058 0.11178 0.49713 0.0
H543 H 0.67413 0.13896 0.52854 0.0
S544 S 0.67578 0.1191 0.20477 0.0
N545 N 0.64155 0.10553 0.24251 0.0
N546 N 0.69989 0.13518 0.27675 0.0
C547 C 0.68036 0.1298 0.33616 0.0
C548 C 0.64865 0.11364 0.3176 0.0
C549 C 0.50015 0.14738 0.38414 0.0
C550 C 0.50144 0.13919 0.30747 0.0
C551 C 0.48418 0.16242 0.40348 0.0
C552 C 0.46997 0.17072 0.34643 0.0
H553 H 0.51101 0.14159 0.42959 0.0
H554 H 0.4833 0.16798 0.46339 0.0
S555 S 0.46723 0.155 0.13726 0.0
N556 N 0.487 0.14024 0.17428 0.0
N557 N 0.45824 0.16983 0.21052 0.0
C558 C 0.47152 0.16313 0.26953 0.0
C559 C 0.48693 0.14698 0.25009 0.0
C560 C 0.83838 0.32824 0.40943 0.0
C561 C 0.82764 0.30543 0.35253 0.0
C562 C 0.85476 0.35921 0.38938 0.0
C563 C 0.86183 0.36823 0.312 0.0
H564 H 0.83371 0.32209 0.46975 0.0
H565 H 0.86241 0.37615 0.43471 0.0
S566 S 0.83975 0.31704 0.14196 0.0
N567 N 0.8252 0.29375 0.21624 0.0
N568 N 0.85709 0.35179 0.17837 0.0
C569 C 0.8516 0.34551 0.2548 0.0
C570 C 0.83419 0.31411 0.27511 0.0
C571 C 0.65116 0.49119 0.3739 0.0
C572 C 0.64111 0.49169 0.29871 0.0
C573 C 0.68227 0.5066 0.39173 0.0
C574 C 0.7043 0.52207 0.33447 0.0
H575 H 0.63488 0.47955 0.41968 0.0
H576 H 0.68916 0.50645 0.45079 0.0
S577 S 0.69005 0.52959 0.12867 0.0
N578 N 0.65578 0.50897 0.16649 0.0
N579 N 0.7143 0.53687 0.20001 0.0
C580 C 0.6947 0.52218 0.25888 0.0
C581 C 0.66304 0.50724 0.24101 0.0
C582 C 0.55291 0.85853 0.78796 0.0
C583 C 0.56181 0.85751 0.71166 0.0
C584 C 0.53693 0.87357 0.80658 0.0
C585 C 0.52903 0.88823 0.74973 0.0
H586 H 0.55701 0.84639 0.83346 0.0
H587 H 0.52942 0.87231 0.86562 0.0
S588 S 0.55162 0.89696 0.54349 0.0
N589 N 0.56506 0.87603 0.58046 0.0
N590 N 0.53494 0.90424 0.61552 0.0
C591 C 0.53999 0.88961 0.67433 0.0
C592 C 0.55639 0.87428 0.65531 0.0
C593 C 0.12989 0.67252 0.51153 0.0
C594 C 0.13776 0.69525 0.56787 0.0
C595 C 0.11508 0.64161 0.53125 0.0
C596 C 0.10736 0.63198 0.60818 0.0
H597 H 0.13663 0.67861 0.45198 0.0
H598 H 0.11105 0.62527 0.48605 0.0
S599 S 0.1177 0.68194 0.77571 0.0
N600 N 0.13288 0.70567 0.70252 0.0
N601 N 0.10494 0.64754 0.73962 0.0
C602 C 0.11258 0.65424 0.66416 0.0
C603 C 0.1278 0.68585 0.64401 0.0
C604 C 0.34378 0.46298 0.74891 0.0
C605 C 0.37042 0.47327 0.70474 0.0
C606 C 0.315 0.4488 0.71431 0.0
C607 C 0.31161 0.44444 0.63393 0.0
H608 H 0.34514 0.46735 0.81033 0.0
H609 H 0.29546 0.44292 0.75061 0.0
S610 S 0.37355 0.46132 0.49429 0.0
N611 N 0.39113 0.47365 0.57773 0.0
N612 N 0.33702 0.44722 0.51273 0.0
C613 C 0.33778 0.45202 0.59 0.0
C614 C 0.36717 0.46634 0.62537 0.0
C615 C 0.17195 0.49642 0.58889 0.0
C616 C 0.18106 0.48342 0.64728 0.0
C617 C 0.15613 0.5118 0.60663 0.0
C618 C 0.148 0.51364 0.68304 0.0
H619 H 0.17729 0.49488 0.52915 0.0
H620 H 0.14954 0.52158 0.56015 0.0
S621 S 0.16593 0.4826 0.85633 0.0
N622 N 0.18106 0.47347 0.7841 0.0
N623 N 0.15014 0.5011 0.81742 0.0
C624 C 0.15676 0.50045 0.74176 0.0
C625 C 0.17364 0.48565 0.7239 0.0
C626 C 0.50704 0.64848 0.6052 0.0
C627 C 0.50434 0.63885 0.6822 0.0
C628 C 0.52172 0.67957 0.58673 0.0
C629 C 0.53312 0.70191 0.64481 0.0
H630 H 0.49821 0.63192 0.55895 0.0
H631 H 0.52378 0.68619 0.52665 0.0
S632 S 0.53151 0.6886 0.85502 0.0
N633 N 0.51461 0.65415 0.81682 0.0
N634 N 0.54094 0.71251 0.78185 0.0
C635 C 0.53025 0.69262 0.72189 0.0
C636 C 0.51618 0.66107 0.74064 0.0
C637 C 0.31076 0.83155 0.71141 0.0
C638 C 0.30215 0.82907 0.63365 0.0
C639 C 0.34157 0.84681 0.73251 0.0
C640 C 0.36471 0.85909 0.67641 0.0
H641 H 0.29362 0.82219 0.75623 0.0
H642 H 0.34735 0.84867 0.79316 0.0
S643 S 0.35409 0.85814 0.46507 0.0
N644 N 0.31918 0.84031 0.50036 0.0
N645 N 0.37704 0.86775 0.54025 0.0
C646 C 0.35642 0.85634 0.59854 0.0
C647 C 0.32511 0.84164 0.57712 0.0
loop_
_geom_bond_atom_site_label_1
_geom_bond_atom_site_label_2
_geom_bond_distance
_geom_bond_site_symmetry_2
_ccdc_geom_bond_type
Mg0 O1 2.028 1_554 S
Mg0 O7 1.986 . S
Mg0 O9 2.114 . S
Mg0 O10 2.251 . S
Mg0 O13 2.010 . S
O1 Mg0 2.028 1_556 S
O1 C4 1.250 . S
O2 Mg3 2.028 1_556 S
O2 C4 1.248 . S
Mg3 O2 2.028 1_554 S
Mg3 O8 2.032 . S
Mg3 O10 2.079 . S
C4 O1 1.250 . S
C4 O2 1.248 . S
C5 O6 1.264 . S
C5 O13 1.249 . S
O6 C5 1.264 . S
O7 Mg0 1.986 . S
O7 C11 1.246 . S
O8 Mg3 2.032 . S
O8 C11 1.259 . S
O9 Mg0 2.114 . S
O9 C12 1.252 . S
O10 Mg0 2.251 . S
O10 Mg3 2.079 . S
O10 C12 1.273 . S
C11 O7 1.246 . S
C11 O8 1.259 . S
C12 O9 1.252 . S
C12 O10 1.273 . S
O13 Mg0 2.010 . S
O13 C5 1.249 . S
Mg14 O15 2.028 1_554 S
Mg14 O21 1.986 . S
Mg14 O23 2.114 . S
Mg14 O24 2.251 . S
Mg14 O27 2.010 . S
O15 Mg14 2.028 1_556 S
O15 C18 1.250 . S
O16 Mg17 2.028 1_556 S
O16 C18 1.248 . S
Mg17 O16 2.028 1_554 S
Mg17 O22 2.032 . S
Mg17 O24 2.079 . S
C18 O15 1.250 . S
C18 O16 1.248 . S
C19 O20 1.264 . S
C19 O27 1.249 . S
O20 C19 1.264 . S
O21 Mg14 1.986 . S
O21 C25 1.246 . S
O22 Mg17 2.032 . S
O22 C25 1.259 . S
O23 Mg14 2.114 . S
O23 C26 1.252 . S
O24 Mg14 2.251 . S
O24 Mg17 2.079 . S
O24 C26 1.273 . S
C25 O21 1.246 . S
C25 O22 1.259 . S
C26 O23 1.252 . S
C26 O24 1.273 . S
O27 Mg14 2.010 . S
O27 C19 1.249 . S
Mg28 O29 2.028 1_554 S
Mg28 O35 1.986 . S
Mg28 O37 2.114 . S
Mg28 O38 2.251 . S
Mg28 O41 2.010 . S
O29 Mg28 2.028 1_556 S
O29 C32 1.250 . S
O30 Mg31 2.028 1_556 S
O30 C32 1.248 . S
Mg31 O30 2.028 1_554 S
Mg31 O36 2.032 . S
Mg31 O38 2.079 . S
C32 O29 1.250 . S
C32 O30 1.248 . S
C33 O34 1.264 . S
C33 O41 1.249 . S
O34 C33 1.264 . S
O35 Mg28 1.986 . S
O35 C39 1.246 . S
O36 Mg31 2.032 . S
O36 C39 1.259 . S
O37 Mg28 2.114 . S
O37 C40 1.252 . S
O38 Mg28 2.251 . S
O38 Mg31 2.079 . S
O38 C40 1.273 . S
C39 O35 1.246 . S
C39 O36 1.259 . S
C40 O37 1.252 . S
C40 O38 1.273 . S
O41 Mg28 2.010 . S
O41 C33 1.249 . S
Mg42 O43 2.028 1_556 S
Mg42 O49 1.986 . S
Mg42 O51 2.114 . S
Mg42 O52 2.251 . S
Mg42 O55 2.010 . S
O43 Mg42 2.028 1_554 S
O43 C46 1.250 . S
O44 Mg45 2.028 1_554 S
O44 C46 1.248 . S
Mg45 O44 2.028 1_556 S
Mg45 O50 2.032 . S
Mg45 O52 2.079 . S
C46 O43 1.250 . S
C46 O44 1.248 . S
C47 O48 1.264 . S
C47 O55 1.249 . S
O48 C47 1.264 . S
O49 Mg42 1.986 . S
O49 C53 1.246 . S
O50 Mg45 2.032 . S
O50 C53 1.259 . S
O51 Mg42 2.114 . S
O51 C54 1.252 . S
O52 Mg42 2.251 . S
O52 Mg45 2.079 . S
O52 C54 1.273 . S
C53 O49 1.246 . S
C53 O50 1.259 . S
C54 O51 1.252 . S
C54 O52 1.273 . S
O55 Mg42 2.010 . S
O55 C47 1.249 . S
Mg56 O57 2.028 1_556 S
Mg56 O63 1.986 . S
Mg56 O65 2.114 . S
Mg56 O66 2.251 . S
Mg56 O69 2.010 . S
O57 Mg56 2.028 1_554 S
O57 C60 1.250 . S
O58 Mg59 2.028 1_554 S
O58 C60 1.248 . S
Mg59 O58 2.028 1_556 S
Mg59 O64 2.032 . S
Mg59 O66 2.079 . S
C60 O57 1.250 . S
C60 O58 1.248 . S
C61 O62 1.264 . S
C61 O69 1.249 . S
O62 C61 1.264 . S
O63 Mg56 1.986 . S
O63 C67 1.246 . S
O64 Mg59 2.032 . S
O64 C67 1.259 . S
O65 Mg56 2.114 . S
O65 C68 1.252 . S
O66 Mg56 2.251 . S
O66 Mg59 2.079 . S
O66 C68 1.273 . S
C67 O63 1.246 . S
C67 O64 1.259 . S
C68 O65 1.252 . S
C68 O66 1.273 . S
O69 Mg56 2.010 . S
O69 C61 1.249 . S
Mg70 O71 2.028 1_556 S
Mg70 O77 1.986 . S
Mg70 O79 2.114 . S
Mg70 O80 2.251 . S
Mg70 O83 2.010 . S
O71 Mg70 2.028 1_554 S
O71 C74 1.250 . S
O72 Mg73 2.028 1_554 S
O72 C74 1.248 . S
Mg73 O72 2.028 1_556 S
Mg73 O78 2.032 . S
Mg73 O80 2.079 . S
C74 O71 1.250 . S
C74 O72 1.248 . S
C75 O76 1.264 . S
C75 O83 1.249 . S
O76 C75 1.264 . S
O77 Mg70 1.986 . S
O77 C81 1.246 . S
O78 Mg73 2.032 . S
O78 C81 1.259 . S
O79 Mg70 2.114 . S
O79 C82 1.252 . S
O80 Mg70 2.251 . S
O80 Mg73 2.079 . S
O80 C82 1.273 . S
C81 O77 1.246 . S
C81 O78 1.259 . S
C82 O79 1.252 . S
C82 O80 1.273 . S
O83 Mg70 2.010 . S
O83 C75 1.249 . S
Mg84 O85 2.028 . S
Mg84 O91 1.986 . S
Mg84 O93 2.114 . S
Mg84 O94 2.251 . S
Mg84 O97 2.010 . S
O85 Mg84 2.028 . S
O85 C88 1.250 . S
O86 Mg87 2.028 . S
O86 C88 1.248 . S
Mg87 O86 2.028 . S
Mg87 O92 2.032 . S
Mg87 O94 2.079 . S
C88 O85 1.250 . S
C88 O86 1.248 . S
C89 O90 1.264 . S
C89 O97 1.249 . S
O90 C89 1.264 . S
O91 Mg84 1.986 . S
O91 C95 1.246 . S
O92 Mg87 2.032 . S
O92 C95 1.259 . S
O93 Mg84 2.114 . S
O93 C96 1.252 . S
O94 Mg84 2.251 . S
O94 Mg87 2.079 . S
O94 C96 1.273 . S
C95 O91 1.246 . S
C95 O92 1.259 . S
C96 O93 1.252 . S
C96 O94 1.273 . S
O97 Mg84 2.010 . S
O97 C89 1.249 . S
Mg98 O99 2.028 . S
Mg98 O105 1.986 . S
Mg98 O107 2.114 . S
Mg98 O108 2.251 . S
Mg98 O111 2.010 . S
O99 Mg98 2.028 . S
O99 C102 1.250 . S
O100 Mg101 2.028 . S
O100 C102 1.248 . S
Mg101 O100 2.028 . S
Mg101 O106 2.032 . S
Mg101 O108 2.079 . S
C102 O99 1.250 . S
C102 O100 1.248 . S
C103 O104 1.264 . S
C103 O111 1.249 . S
O104 C103 1.264 . S
O105 Mg98 1.986 . S
O105 C109 1.246 . S
O106 Mg101 2.032 . S
O106 C109 1.259 . S
O107 Mg98 2.114 . S
O107 C110 1.252 . S
O108 Mg98 2.251 . S
O108 Mg101 2.079 . S
O108 C110 1.273 . S
C109 O105 1.246 . S
C109 O106 1.259 . S
C110 O107 1.252 . S
C110 O108 1.273 . S
O111 Mg98 2.010 . S
O111 C103 1.249 . S
Mg112 O113 2.028 . S
Mg112 O119 1.986 . S
Mg112 O121 2.114 . S
Mg112 O122 2.251 . S
Mg112 O125 2.010 . S
O113 Mg112 2.028 . S
O113 C116 1.250 . S
O114 Mg115 2.028 . S
O114 C116 1.248 . S
Mg115 O114 2.028 . S
Mg115 O120 2.032 . S
Mg115 O122 2.079 . S
C116 O113 1.250 . S
C116 O114 1.248 . S
C117 O118 1.264 . S
C117 O125 1.249 . S
O118 C117 1.264 . S
O119 Mg112 1.986 . S
O119 C123 1.246 . S
O120 Mg115 2.032 . S
O120 C123 1.259 . S
O121 Mg112 2.114 . S
O121 C124 1.252 . S
O122 Mg112 2.251 . S
O122 Mg115 2.079 . S
O122 C124 1.273 . S
C123 O119 1.246 . S
C123 O120 1.259 . S
C124 O121 1.252 . S
C124 O122 1.273 . S
O125 Mg112 2.010 . S
O125 C117 1.249 . S
Mg126 O127 2.028 . S
Mg126 O133 1.986 . S
Mg126 O135 2.114 . S
Mg126 O136 2.251 . S
Mg126 O139 2.010 . S
O127 Mg126 2.028 . S
O127 C130 1.250 . S
O128 Mg129 2.028 . S
O128 C130 1.248 . S
Mg129 O128 2.028 . S
Mg129 O134 2.032 . S
Mg129 O136 2.079 . S
C130 O127 1.250 . S
C130 O128 1.248 . S
C131 O132 1.264 . S
C131 O139 1.249 . S
O132 C131 1.264 . S
O133 Mg126 1.986 . S
O133 C137 1.246 . S
O134 Mg129 2.032 . S
O134 C137 1.259 . S
O135 Mg126 2.114 . S
O135 C138 1.252 . S
O136 Mg126 2.251 . S
O136 Mg129 2.079 . S
O136 C138 1.273 . S
C137 O133 1.246 . S
C137 O134 1.259 . S
C138 O135 1.252 . S
C138 O136 1.273 . S
O139 Mg126 2.010 . S
O139 C131 1.249 . S
Mg140 O141 2.028 . S
Mg140 O147 1.986 . S
Mg140 O149 2.114 . S
Mg140 O150 2.251 . S
Mg140 O153 2.010 . S
O141 Mg140 2.028 . S
O141 C144 1.250 . S
O142 Mg143 2.028 . S
O142 C144 1.248 . S
Mg143 O142 2.028 . S
Mg143 O148 2.032 . S
Mg143 O150 2.079 . S
C144 O141 1.250 . S
C144 O142 1.248 . S
C145 O146 1.264 . S
C145 O153 1.249 . S
O146 C145 1.264 . S
O147 Mg140 1.986 . S
O147 C151 1.246 . S
O148 Mg143 2.032 . S
O148 C151 1.259 . S
O149 Mg140 2.114 . S
O149 C152 1.252 . S
O150 Mg140 2.251 . S
O150 Mg143 2.079 . S
O150 C152 1.273 . S
C151 O147 1.246 . S
C151 O148 1.259 . S
C152 O149 1.252 . S
C152 O150 1.273 . S
O153 Mg140 2.010 . S
O153 C145 1.249 . S
Mg154 O155 2.028 . S
Mg154 O161 1.986 . S
Mg154 O163 2.114 . S
Mg154 O164 2.251 . S
Mg154 O167 2.010 . S
O155 Mg154 2.028 . S
O155 C158 1.250 . S
O156 Mg157 2.028 . S
O156 C158 1.248 . S
Mg157 O156 2.028 . S
Mg157 O162 2.032 . S
Mg157 O164 2.079 . S
C158 O155 1.250 . S
C158 O156 1.248 . S
C159 O160 1.264 . S
C159 O167 1.249 . S
O160 C159 1.264 . S
O161 Mg154 1.986 . S
O161 C165 1.246 . S
O162 Mg157 2.032 . S
O162 C165 1.259 . S
O163 Mg154 2.114 . S
O163 C166 1.252 . S
O164 Mg154 2.251 . S
O164 Mg157 2.079 . S
O164 C166 1.273 . S
C165 O161 1.246 . S
C165 O162 1.259 . S
C166 O163 1.252 . S
C166 O164 1.273 . S
O167 Mg154 2.010 . S
O167 C159 1.249 . S
Mg168 O169 2.028 . S
Mg168 O175 1.986 . S
Mg168 O177 2.114 . S
Mg168 O178 2.251 . S
Mg168 O181 2.010 . S
O169 Mg168 2.028 . S
O169 C172 1.250 . S
O170 Mg171 2.028 . S
O170 C172 1.248 . S
Mg171 O170 2.028 . S
Mg171 O176 2.032 . S
Mg171 O178 2.079 . S
C172 O169 1.250 . S
C172 O170 1.248 . S
C173 O174 1.264 . S
C173 O181 1.249 . S
O174 C173 1.264 . S
O175 Mg168 1.986 . S
O175 C179 1.246 . S
O176 Mg171 2.032 . S
O176 C179 1.259 . S
O177 Mg168 2.114 . S
O177 C180 1.252 . S
O178 Mg168 2.251 . S
O178 Mg171 2.079 . S
O178 C180 1.273 . S
C179 O175 1.246 . S
C179 O176 1.259 . S
C180 O177 1.252 . S
C180 O178 1.273 . S
O181 Mg168 2.010 . S
O181 C173 1.249 . S
Mg182 O183 2.028 . S
Mg182 O189 1.986 . S
Mg182 O191 2.114 . S
Mg182 O192 2.251 . S
Mg182 O195 2.010 . S
O183 Mg182 2.028 . S
O183 C186 1.250 . S
O184 Mg185 2.028 . S
O184 C186 1.248 . S
Mg185 O184 2.028 . S
Mg185 O190 2.032 . S
Mg185 O192 2.079 . S
C186 O183 1.250 . S
C186 O184 1.248 . S
C187 O188 1.264 . S
C187 O195 1.249 . S
O188 C187 1.264 . S
O189 Mg182 1.986 . S
O189 C193 1.246 . S
O190 Mg185 2.032 . S
O190 C193 1.259 . S
O191 Mg182 2.114 . S
O191 C194 1.252 . S
O192 Mg182 2.251 . S
O192 Mg185 2.079 . S
O192 C194 1.273 . S
C193 O189 1.246 . S
C193 O190 1.259 . S
C194 O191 1.252 . S
C194 O192 1.273 . S
O195 Mg182 2.010 . S
O195 C187 1.249 . S
Mg196 O197 2.028 . S
Mg196 O203 1.986 . S
Mg196 O205 2.114 . S
Mg196 O206 2.251 . S
Mg196 O209 2.010 . S
O197 Mg196 2.028 . S
O197 C200 1.250 . S
O198 Mg199 2.028 . S
O198 C200 1.248 . S
Mg199 O198 2.028 . S
Mg199 O204 2.032 . S
Mg199 O206 2.079 . S
C200 O197 1.250 . S
C200 O198 1.248 . S
C201 O202 1.264 . S
C201 O209 1.249 . S
O202 C201 1.264 . S
O203 Mg196 1.986 . S
O203 C207 1.246 . S
O204 Mg199 2.032 . S
O204 C207 1.259 . S
O205 Mg196 2.114 . S
O205 C208 1.252 . S
O206 Mg196 2.251 . S
O206 Mg199 2.079 . S
O206 C208 1.273 . S
C207 O203 1.246 . S
C207 O204 1.259 . S
C208 O205 1.252 . S
C208 O206 1.273 . S
O209 Mg196 2.010 . S
O209 C201 1.249 . S
Mg210 O211 2.028 . S
Mg210 O217 1.986 . S
Mg210 O219 2.114 . S
Mg210 O220 2.251 . S
Mg210 O223 2.010 . S
O211 Mg210 2.028 . S
O211 C214 1.250 . S
O212 Mg213 2.028 . S
O212 C214 1.248 . S
Mg213 O212 2.028 . S
Mg213 O218 2.032 . S
Mg213 O220 2.079 . S
C214 O211 1.250 . S
C214 O212 1.248 . S
C215 O216 1.264 . S
C215 O223 1.249 . S
O216 C215 1.264 . S
O217 Mg210 1.986 . S
O217 C221 1.246 . S
O218 Mg213 2.032 . S
O218 C221 1.259 . S
O219 Mg210 2.114 . S
O219 C222 1.252 . S
O220 Mg210 2.251 . S
O220 Mg213 2.079 . S
O220 C222 1.273 . S
C221 O217 1.246 . S
C221 O218 1.259 . S
C222 O219 1.252 . S
C222 O220 1.273 . S
O223 Mg210 2.010 . S
O223 C215 1.249 . S
Mg224 O225 2.028 . S
Mg224 O231 1.986 . S
Mg224 O233 2.114 . S
Mg224 O234 2.251 . S
Mg224 O237 2.010 . S
O225 Mg224 2.028 . S
O225 C228 1.250 . S
O226 Mg227 2.028 . S
O226 C228 1.248 . S
Mg227 O226 2.028 . S
Mg227 O232 2.032 . S
Mg227 O234 2.079 . S
C228 O225 1.250 . S
C228 O226 1.248 . S
C229 O230 1.264 . S
C229 O237 1.249 . S
O230 C229 1.264 . S
O231 Mg224 1.986 . S
O231 C235 1.246 . S
O232 Mg227 2.032 . S
O232 C235 1.259 . S
O233 Mg224 2.114 . S
O233 C236 1.252 . S
O234 Mg224 2.251 . S
O234 Mg227 2.079 . S
O234 C236 1.273 . S
C235 O231 1.246 . S
C235 O232 1.259 . S
C236 O233 1.252 . S
C236 O234 1.273 . S
O237 Mg224 2.010 . S
O237 C229 1.249 . S
Mg238 O239 2.028 . S
Mg238 O245 1.986 . S
Mg238 O247 2.114 . S
Mg238 O248 2.251 . S
Mg238 O251 2.010 . S
O239 Mg238 2.028 . S
O239 C242 1.250 . S
O240 Mg241 2.028 . S
O240 C242 1.248 . S
Mg241 O240 2.028 . S
Mg241 O246 2.032 . S
Mg241 O248 2.079 . S
C242 O239 1.250 . S
C242 O240 1.248 . S
C243 O244 1.264 . S
C243 O251 1.249 . S
O244 C243 1.264 . S
O245 Mg238 1.986 . S
O245 C249 1.246 . S
O246 Mg241 2.032 . S
O246 C249 1.259 . S
O247 Mg238 2.114 . S
O247 C250 1.252 . S
O248 Mg238 2.251 . S
O248 Mg241 2.079 . S
O248 C250 1.273 . S
C249 O245 1.246 . S
C249 O246 1.259 . S
C250 O247 1.252 . S
C250 O248 1.273 . S
O251 Mg238 2.010 . S
O251 C243 1.249 . S
C252 C253 1.369 . S
C252 C254 1.419 . S
C252 H256 0.930 . S
C253 C252 1.369 . S
C253 C262 1.429 . S
C254 C252 1.419 . S
C254 C255 1.363 . S
C254 H257 0.929 . S
C255 C254 1.363 . S
C255 C261 1.428 . S
H256 C252 0.930 . S
H257 C254 0.929 . S
S258 N259 1.613 . S
S258 N260 1.610 . S
N259 S258 1.613 . S
N259 C262 1.350 . S
N260 S258 1.610 . S
N260 C261 1.351 . S
C261 C255 1.428 . S
C261 N260 1.351 . S
C261 C262 1.434 . S
C262 C253 1.429 . S
C262 N259 1.350 . S
C262 C261 1.434 . S
C263 C264 1.369 . S
C263 C265 1.419 . S
C263 H267 0.930 . S
C264 C263 1.369 . S
C264 C273 1.429 . S
C265 C263 1.419 . S
C265 C266 1.363 . S
C265 H268 0.929 . S
C266 C265 1.363 . S
C266 C272 1.428 . S
H267 C263 0.930 . S
H268 C265 0.929 . S
S269 N270 1.613 . S
S269 N271 1.610 . S
N270 S269 1.613 . S
N270 C273 1.350 . S
N271 S269 1.610 . S
N271 C272 1.351 . S
C272 C266 1.428 . S
C272 N271 1.351 . S
C272 C273 1.434 . S
C273 C264 1.429 . S
C273 N270 1.350 . S
C273 C272 1.434 . S
C274 C275 1.369 . S
C274 C276 1.419 . S
C274 H278 0.930 . S
C275 C274 1.369 . S
C275 C284 1.429 . S
C276 C274 1.419 . S
C276 C277 1.363 . S
C276 H279 0.929 . S
C277 C276 1.363 . S
C277 C283 1.428 . S
H278 C274 0.930 . S
H279 C276 0.929 . S
S280 N281 1.613 . S
S280 N282 1.610 . S
N281 S280 1.613 . S
N281 C284 1.350 . S
N282 S280 1.610 . S
N282 C283 1.351 . S
C283 C277 1.428 . S
C283 N282 1.351 . S
C283 C284 1.434 . S
C284 C275 1.429 . S
C284 N281 1.350 . S
C284 C283 1.434 . S
C285 C286 1.369 . S
C285 C287 1.419 . S
C285 H289 0.930 . S
C286 C285 1.369 . S
C286 C295 1.429 . S
C287 C285 1.419 . S
C287 C288 1.363 . S
C287 H290 0.929 . S
C288 C287 1.363 . S
C288 C294 1.428 . S
H289 C285 0.930 . S
H290 C287 0.929 . S
S291 N292 1.613 . S
S291 N293 1.610 . S
N292 S291 1.613 . S
N292 C295 1.350 . S
N293 S291 1.610 . S
N293 C294 1.351 . S
C294 C288 1.428 . S
C294 N293 1.351 . S
C294 C295 1.434 . S
C295 C286 1.429 . S
C295 N292 1.350 . S
C295 C294 1.434 . S
C296 C297 1.369 . S
C296 C298 1.419 . S
C296 H300 0.930 . S
C297 C296 1.369 . S
C297 C306 1.429 . S
C298 C296 1.419 . S
C298 C299 1.363 . S
C298 H301 0.929 . S
C299 C298 1.363 . S
C299 C305 1.428 . S
H300 C296 0.930 . S
H301 C298 0.929 . S
S302 N303 1.613 . S
S302 N304 1.610 . S
N303 S302 1.613 . S
N303 C306 1.350 . S
N304 S302 1.610 . S
N304 C305 1.351 . S
C305 C299 1.428 . S
C305 N304 1.351 . S
C305 C306 1.434 . S
C306 C297 1.429 . S
C306 N303 1.350 . S
C306 C305 1.434 . S
C307 C308 1.369 . S
C307 C309 1.419 . S
C307 H311 0.930 . S
C308 C307 1.369 . S
C308 C317 1.429 . S
C309 C307 1.419 . S
C309 C310 1.363 . S
C309 H312 0.929 . S
C310 C309 1.363 . S
C310 C316 1.428 . S
H311 C307 0.930 . S
H312 C309 0.929 . S
S313 N314 1.613 . S
S313 N315 1.610 . S
N314 S313 1.613 . S
N314 C317 1.350 . S
N315 S313 1.610 . S
N315 C316 1.351 . S
C316 C310 1.428 . S
C316 N315 1.351 . S
C316 C317 1.434 . S
C317 C308 1.429 . S
C317 N314 1.350 . S
C317 C316 1.434 . S
C318 C319 1.369 . S
C318 C320 1.419 1_654 S
C318 H322 0.930 . S
C319 C318 1.369 . S
C319 C328 1.429 . S
C320 C318 1.419 1_456 S
C320 C321 1.363 . S
C320 H323 0.929 . S
C321 C320 1.363 . S
C321 C327 1.428 . S
H322 C318 0.930 . S
H323 C320 0.929 . S
S324 N325 1.613 1_455 S
S324 N326 1.610 1_554 S
N325 S324 1.613 1_655 S
N325 C328 1.350 . S
N326 S324 1.610 1_556 S
N326 C327 1.351 . S
C327 C321 1.428 . S
C327 N326 1.351 . S
C327 C328 1.434 1_456 S
C328 C319 1.429 . S
C328 N325 1.350 . S
C328 C327 1.434 1_654 S
C329 C330 1.369 . S
C329 C331 1.419 1_554 S
C329 H333 0.930 . S
C330 C329 1.369 . S
C330 C339 1.429 . S
C331 C329 1.419 1_556 S
C331 C332 1.363 . S
C331 H334 0.929 . S
C332 C331 1.363 . S
C332 C338 1.428 . S
H333 C329 0.930 . S
H334 C331 0.929 . S
S335 N336 1.613 . S
S335 N337 1.610 1_554 S
N336 S335 1.613 . S
N336 C339 1.350 . S
N337 S335 1.610 1_556 S
N337 C338 1.351 . S
C338 C332 1.428 . S
C338 N337 1.351 . S
C338 C339 1.434 1_556 S
C339 C330 1.429 . S
C339 N336 1.350 . S
C339 C338 1.434 1_554 S
C340 C341 1.369 1_556 S
C340 C342 1.419 . S
C340 H344 0.930 . S
C341 C340 1.369 1_554 S
C341 C350 1.429 1_545 S
C342 C340 1.419 . S
C342 C343 1.363 1_545 S
C342 H345 0.929 . S
C343 C342 1.363 1_565 S
C343 C349 1.428 1_556 S
H344 C340 0.930 . S
H345 C342 0.929 . S
S346 N347 1.613 . S
S346 N348 1.610 . S
N347 S346 1.613 . S
N347 C350 1.350 . S
N348 S346 1.610 . S
N348 C349 1.351 . S
C349 C343 1.428 1_554 S
C349 N348 1.351 . S
C349 C350 1.434 . S
C350 C341 1.429 1_565 S
C350 N347 1.350 . S
C350 C349 1.434 . S
C351 C352 1.369 . S
C351 C353 1.419 . S
C351 H355 0.930 . S
C352 C351 1.369 . S
C352 C361 1.429 . S
C353 C351 1.419 . S
C353 C354 1.363 . S
C353 H356 0.929 . S
C354 C353 1.363 . S
C354 C360 1.428 . S
H355 C351 0.930 . S
H356 C353 0.929 . S
S357 N358 1.613 . S
S357 N359 1.610 . S
N358 S357 1.613 . S
N358 C361 1.350 . S
N359 S357 1.610 . S
N359 C360 1.351 . S
C360 C354 1.428 . S
C360 N359 1.351 . S
C360 C361 1.434 . S
C361 C352 1.429 . S
C361 N358 1.350 . S
C361 C360 1.434 . S
C362 C363 1.369 . S
C362 C364 1.419 . S
C362 H366 0.930 . S
C363 C362 1.369 . S
C363 C372 1.429 . S
C364 C362 1.419 . S
C364 C365 1.363 . S
C364 H367 0.929 . S
C365 C364 1.363 . S
C365 C371 1.428 . S
H366 C362 0.930 . S
H367 C364 0.929 . S
S368 N369 1.613 . S
S368 N370 1.610 . S
N369 S368 1.613 . S
N369 C372 1.350 . S
N370 S368 1.610 . S
N370 C371 1.351 . S
C371 C365 1.428 . S
C371 N370 1.351 . S
C371 C372 1.434 . S
C372 C363 1.429 . S
C372 N369 1.350 . S
C372 C371 1.434 . S
C373 C374 1.369 . S
C373 C375 1.419 . S
C373 H377 0.930 . S
C374 C373 1.369 . S
C374 C383 1.429 . S
C375 C373 1.419 . S
C375 C376 1.363 . S
C375 H378 0.929 . S
C376 C375 1.363 . S
C376 C382 1.428 . S
H377 C373 0.930 . S
H378 C375 0.929 . S
S379 N380 1.613 . S
S379 N381 1.610 . S
N380 S379 1.613 . S
N380 C383 1.350 . S
N381 S379 1.610 . S
N381 C382 1.351 . S
C382 C376 1.428 . S
C382 N381 1.351 . S
C382 C383 1.434 . S
C383 C374 1.429 . S
C383 N380 1.350 . S
C383 C382 1.434 . S
C384 C385 1.369 . S
C384 C386 1.419 . S
C384 H388 0.930 . S
C385 C384 1.369 . S
C385 C394 1.429 . S
C386 C384 1.419 . S
C386 C387 1.363 . S
C386 H389 0.929 . S
C387 C386 1.363 . S
C387 C393 1.428 . S
H388 C384 0.930 . S
H389 C386 0.929 . S
S390 N391 1.613 . S
S390 N392 1.610 . S
N391 S390 1.613 . S
N391 C394 1.350 . S
N392 S390 1.610 . S
N392 C393 1.351 . S
C393 C387 1.428 . S
C393 N392 1.351 . S
C393 C394 1.434 . S
C394 C385 1.429 . S
C394 N391 1.350 . S
C394 C393 1.434 . S
C395 C396 1.369 . S
C395 C397 1.419 . S
C395 H399 0.930 . S
C396 C395 1.369 . S
C396 C405 1.429 . S
C397 C395 1.419 . S
C397 C398 1.363 . S
C397 H400 0.929 . S
C398 C397 1.363 . S
C398 C404 1.428 . S
H399 C395 0.930 . S
H400 C397 0.929 . S
S401 N402 1.613 . S
S401 N403 1.610 . S
N402 S401 1.613 . S
N402 C405 1.350 . S
N403 S401 1.610 . S
N403 C404 1.351 . S
C404 C398 1.428 . S
C404 N403 1.351 . S
C404 C405 1.434 . S
C405 C396 1.429 . S
C405 N402 1.350 . S
C405 C404 1.434 . S
C406 C407 1.369 . S
C406 C408 1.419 . S
C406 H410 0.930 . S
C407 C406 1.369 . S
C407 C416 1.429 . S
C408 C406 1.419 . S
C408 C409 1.363 . S
C408 H411 0.929 . S
C409 C408 1.363 . S
C409 C415 1.428 . S
H410 C406 0.930 . S
H411 C408 0.929 . S
S412 N413 1.613 . S
S412 N414 1.610 . S
N413 S412 1.613 . S
N413 C416 1.350 . S
N414 S412 1.610 . S
N414 C415 1.351 . S
C415 C409 1.428 . S
C415 N414 1.351 . S
C415 C416 1.434 . S
C416 C407 1.429 . S
C416 N413 1.350 . S
C416 C415 1.434 . S
C417 C418 1.369 . S
C417 C419 1.413 1_655 S
C417 H421 0.930 . S
C418 C417 1.369 . S
C418 C427 1.424 . S
C419 C417 1.413 1_455 S
C419 C420 1.373 . S
C419 H422 0.915 1_455 S
C420 C419 1.373 . S
C420 C426 1.428 . S
H421 C417 0.930 . S
H422 C419 0.915 1_655 S
S423 N424 1.613 . S
S423 N425 1.610 . S
N424 S423 1.613 . S
N424 C427 1.352 1_455 S
N425 S423 1.610 . S
N425 C426 1.351 . S
C426 C420 1.428 . S
C426 N425 1.351 . S
C426 C427 1.437 1_455 S
C427 C418 1.424 . S
C427 N424 1.352 1_655 S
C427 C426 1.437 1_655 S
C428 C429 1.369 . S
C428 C430 1.419 . S
C428 H432 0.930 . S
C429 C428 1.369 . S
C429 C438 1.429 . S
C430 C428 1.419 . S
C430 C431 1.363 . S
C430 H433 0.929 . S
C431 C430 1.363 . S
C431 C437 1.428 . S
H432 C428 0.930 . S
H433 C430 0.929 . S
S434 N435 1.613 . S
S434 N436 1.610 . S
N435 S434 1.613 . S
N435 C438 1.350 . S
N436 S434 1.610 . S
N436 C437 1.351 . S
C437 C431 1.428 . S
C437 N436 1.351 . S
C437 C438 1.434 . S
C438 C429 1.429 . S
C438 N435 1.350 . S
C438 C437 1.434 . S
C439 C440 1.369 . S
C439 C441 1.419 . S
C439 H443 0.930 . S
C440 C439 1.369 . S
C440 C449 1.429 1_565 S
C441 C439 1.419 . S
C441 C442 1.363 1_565 S
C441 H444 0.929 . S
C442 C441 1.363 1_545 S
C442 C448 1.428 . S
H443 C439 0.930 . S
H444 C441 0.929 . S
S445 N446 1.613 . S
S445 N447 1.610 . S
N446 S445 1.613 . S
N446 C449 1.350 . S
N447 S445 1.610 . S
N447 C448 1.351 . S
C448 C442 1.428 . S
C448 N447 1.351 . S
C448 C449 1.434 . S
C449 C440 1.429 1_545 S
C449 N446 1.350 . S
C449 C448 1.434 . S
C450 C451 1.369 . S
C450 C452 1.419 . S
C450 H454 0.930 . S
C451 C450 1.369 . S
C451 C460 1.429 1_554 S
C452 C450 1.419 . S
C452 C453 1.363 1_554 S
C452 H455 0.929 . S
C453 C452 1.363 1_556 S
C453 C459 1.428 . S
H454 C450 0.930 . S
H455 C452 0.929 . S
S456 N457 1.613 . S
S456 N458 1.610 . S
N457 S456 1.613 . S
N457 C460 1.350 . S
N458 S456 1.610 . S
N458 C459 1.351 . S
C459 C453 1.428 . S
C459 N458 1.351 . S
C459 C460 1.434 . S
C460 C451 1.429 1_556 S
C460 N457 1.350 . S
C460 C459 1.434 . S
C461 C462 1.369 1_554 S
C461 C463 1.419 1_545 S
C461 H465 0.930 . S
C462 C461 1.369 1_556 S
C462 C471 1.429 . S
C463 C461 1.419 1_565 S
C463 C464 1.363 . S
C463 H466 0.929 . S
C464 C463 1.363 . S
C464 C470 1.428 1_554 S
H465 C461 0.930 . S
H466 C463 0.929 . S
S467 N468 1.613 1_565 S
S467 N469 1.610 . S
N468 S467 1.613 1_545 S
N468 C471 1.350 . S
N469 S467 1.610 . S
N469 C470 1.351 . S
C470 C464 1.428 1_556 S
C470 N469 1.351 . S
C470 C471 1.434 1_565 S
C471 C462 1.429 . S
C471 N468 1.350 . S
C471 C470 1.434 1_545 S
C472 C473 1.369 1_554 S
C472 C474 1.419 1_655 S
C472 H476 0.930 . S
C473 C472 1.369 1_556 S
C473 C482 1.429 . S
C474 C472 1.419 1_455 S
C474 C475 1.363 . S
C474 H477 0.929 . S
C475 C474 1.363 . S
C475 C481 1.428 1_554 S
H476 C472 0.930 . S
H477 C474 0.929 . S
S478 N479 1.613 1_455 S
S478 N480 1.610 . S
N479 S478 1.613 1_655 S
N479 C482 1.350 . S
N480 S478 1.610 . S
N480 C481 1.351 . S
C481 C475 1.428 1_556 S
C481 N480 1.351 . S
C481 C482 1.434 1_455 S
C482 C473 1.429 . S
C482 N479 1.350 . S
C482 C481 1.434 1_655 S
C483 C484 1.369 . S
C483 C485 1.419 . S
C483 H487 0.930 . S
C484 C483 1.369 . S
C484 C493 1.429 1_556 S
C485 C483 1.419 . S
C485 C486 1.363 1_556 S
C485 H488 0.929 . S
C486 C485 1.363 1_554 S
C486 C492 1.428 . S
H487 C483 0.930 . S
H488 C485 0.929 . S
S489 N490 1.613 . S
S489 N491 1.610 . S
N490 S489 1.613 . S
N490 C493 1.350 . S
N491 S489 1.610 . S
N491 C492 1.351 . S
C492 C486 1.428 . S
C492 N491 1.351 . S
C492 C493 1.434 . S
C493 C484 1.429 1_554 S
C493 N490 1.350 . S
C493 C492 1.434 . S
C494 C495 1.369 . S
C494 C496 1.419 1_565 S
C494 H498 0.930 . S
C495 C494 1.369 . S
C495 C504 1.429 1_554 S
C496 C494 1.419 1_545 S
C496 C497 1.363 1_554 S
C496 H499 0.929 . S
C497 C496 1.363 1_556 S
C497 C503 1.428 . S
H498 C494 0.930 . S
H499 C496 0.929 . S
S500 N501 1.613 . S
S500 N502 1.610 1_565 S
N501 S500 1.613 . S
N501 C504 1.350 . S
N502 S500 1.610 1_545 S
N502 C503 1.351 . S
C503 C497 1.428 . S
C503 N502 1.351 . S
C503 C504 1.434 1_545 S
C504 C495 1.429 1_556 S
C504 N501 1.350 . S
C504 C503 1.434 1_565 S
C505 C506 1.369 . S
C505 C507 1.419 1_656 S
C505 H509 0.930 . S
C506 C505 1.369 . S
C506 C515 1.429 . S
C507 C505 1.419 1_454 S
C507 C508 1.363 . S
C507 H510 0.929 . S
C508 C507 1.363 . S
C508 C514 1.428 . S
H509 C505 0.930 . S
H510 C507 0.929 . S
S511 N512 1.620 1_554 S
S511 N513 1.591 1_655 S
N512 S511 1.620 1_556 S
N512 C515 1.350 . S
N513 S511 1.591 1_455 S
N513 C514 1.351 . S
C514 C508 1.428 . S
C514 N513 1.351 . S
C514 C515 1.434 1_454 S
C515 C506 1.429 . S
C515 N512 1.350 . S
C515 C514 1.434 1_656 S
C516 C517 1.369 . S
C516 C518 1.419 . S
C516 H520 0.930 . S
C517 C516 1.369 . S
C517 C526 1.429 . S
C518 C516 1.419 . S
C518 C519 1.363 . S
C518 H521 0.929 . S
C519 C518 1.363 . S
C519 C525 1.428 . S
H520 C516 0.930 . S
H521 C518 0.929 . S
S522 N523 1.613 . S
S522 N524 1.610 . S
N523 S522 1.613 . S
N523 C526 1.350 . S
N524 S522 1.610 . S
N524 C525 1.351 . S
C525 C519 1.428 . S
C525 N524 1.351 . S
C525 C526 1.434 . S
C526 C517 1.429 . S
C526 N523 1.350 . S
C526 C525 1.434 . S
C527 C528 1.369 . S
C527 C529 1.419 . S
C527 H531 0.930 . S
C528 C527 1.369 . S
C528 C537 1.429 . S
C529 C527 1.419 . S
C529 C530 1.363 . S
C529 H532 0.929 . S
C530 C529 1.363 . S
C530 C536 1.428 . S
H531 C527 0.930 . S
H532 C529 0.929 . S
S533 N534 1.613 . S
S533 N535 1.610 . S
N534 S533 1.613 . S
N534 C537 1.350 . S
N535 S533 1.610 . S
N535 C536 1.351 . S
C536 C530 1.428 . S
C536 N535 1.351 . S
C536 C537 1.434 . S
C537 C528 1.429 . S
C537 N534 1.350 . S
C537 C536 1.434 . S
C538 C539 1.369 . S
C538 C540 1.419 . S
C538 H542 0.930 . S
C539 C538 1.369 . S
C539 C548 1.429 . S
C540 C538 1.419 . S
C540 C541 1.363 . S
C540 H543 0.929 . S
C541 C540 1.363 . S
C541 C547 1.428 . S
H542 C538 0.930 . S
H543 C540 0.929 . S
S544 N545 1.613 . S
S544 N546 1.610 . S
N545 S544 1.613 . S
N545 C548 1.350 . S
N546 S544 1.610 . S
N546 C547 1.351 . S
C547 C541 1.428 . S
C547 N546 1.351 . S
C547 C548 1.434 . S
C548 C539 1.429 . S
C548 N545 1.350 . S
C548 C547 1.434 . S
C549 C550 1.369 . S
C549 C551 1.419 . S
C549 H553 0.930 . S
C550 C549 1.369 . S
C550 C559 1.429 . S
C551 C549 1.419 . S
C551 C552 1.363 . S
C551 H554 0.929 . S
C552 C551 1.363 . S
C552 C558 1.428 . S
H553 C549 0.930 . S
H554 C551 0.929 . S
S555 N556 1.613 . S
S555 N557 1.610 . S
N556 S555 1.613 . S
N556 C559 1.350 . S
N557 S555 1.610 . S
N557 C558 1.351 . S
C558 C552 1.428 . S
C558 N557 1.351 . S
C558 C559 1.434 . S
C559 C550 1.429 . S
C559 N556 1.350 . S
C559 C558 1.434 . S
C560 C561 1.369 . S
C560 C562 1.419 . S
C560 H564 0.930 . S
C561 C560 1.369 . S
C561 C570 1.429 . S
C562 C560 1.419 . S
C562 C563 1.363 . S
C562 H565 0.929 . S
C563 C562 1.363 . S
C563 C569 1.428 . S
H564 C560 0.930 . S
H565 C562 0.929 . S
S566 N567 1.613 . S
S566 N568 1.610 . S
N567 S566 1.613 . S
N567 C570 1.350 . S
N568 S566 1.610 . S
N568 C569 1.351 . S
C569 C563 1.428 . S
C569 N568 1.351 . S
C569 C570 1.434 . S
C570 C561 1.429 . S
C570 N567 1.350 . S
C570 C569 1.434 . S
C571 C572 1.369 . S
C571 C573 1.419 . S
C571 H575 0.930 . S
C572 C571 1.369 . S
C572 C581 1.429 . S
C573 C571 1.419 . S
C573 C574 1.363 . S
C573 H576 0.929 . S
C574 C573 1.363 . S
C574 C580 1.428 . S
H575 C571 0.930 . S
H576 C573 0.929 . S
S577 N578 1.613 . S
S577 N579 1.610 . S
N578 S577 1.613 . S
N578 C581 1.350 . S
N579 S577 1.610 . S
N579 C580 1.351 . S
C580 C574 1.428 . S
C580 N579 1.351 . S
C580 C581 1.434 . S
C581 C572 1.429 . S
C581 N578 1.350 . S
C581 C580 1.434 . S
C582 C583 1.369 . S
C582 C584 1.419 . S
C582 H586 0.930 . S
C583 C582 1.369 . S
C583 C592 1.429 . S
C584 C582 1.419 . S
C584 C585 1.363 . S
C584 H587 0.929 . S
C585 C584 1.363 . S
C585 C591 1.428 . S
H586 C582 0.930 . S
H587 C584 0.929 . S
S588 N589 1.613 . S
S588 N590 1.610 . S
N589 S588 1.613 . S
N589 C592 1.350 . S
N590 S588 1.610 . S
N590 C591 1.351 . S
C591 C585 1.428 . S
C591 N590 1.351 . S
C591 C592 1.434 . S
C592 C583 1.429 . S
C592 N589 1.350 . S
C592 C591 1.434 . S
C593 C594 1.369 . S
C593 C595 1.419 . S
C593 H597 0.930 . S
C594 C593 1.369 . S
C594 C603 1.429 . S
C595 C593 1.419 . S
C595 C596 1.363 . S
C595 H598 0.929 . S
C596 C595 1.363 . S
C596 C602 1.428 . S
H597 C593 0.930 . S
H598 C595 0.929 . S
S599 N600 1.613 . S
S599 N601 1.610 . S
N600 S599 1.613 . S
N600 C603 1.350 . S
N601 S599 1.610 . S
N601 C602 1.351 . S
C602 C596 1.428 . S
C602 N601 1.351 . S
C602 C603 1.434 . S
C603 C594 1.429 . S
C603 N600 1.350 . S
C603 C602 1.434 . S
C604 C605 1.369 . S
C604 C606 1.419 . S
C604 H608 0.930 . S
C605 C604 1.369 . S
C605 C614 1.429 . S
C606 C604 1.419 . S
C606 C607 1.363 . S
C606 H609 0.929 . S
C607 C606 1.363 . S
C607 C613 1.428 . S
H608 C604 0.930 . S
H609 C606 0.929 . S
S610 N611 1.613 . S
S610 N612 1.610 . S
N611 S610 1.613 . S
N611 C614 1.350 . S
N612 S610 1.610 . S
N612 C613 1.351 . S
C613 C607 1.428 . S
C613 N612 1.351 . S
C613 C614 1.434 . S
C614 C605 1.429 . S
C614 N611 1.350 . S
C614 C613 1.434 . S
C615 C616 1.369 . S
C615 C617 1.419 . S
C615 H619 0.930 . S
C616 C615 1.369 . S
C616 C625 1.429 . S
C617 C615 1.419 . S
C617 C618 1.363 . S
C617 H620 0.929 . S
C618 C617 1.363 . S
C618 C624 1.428 . S
H619 C615 0.930 . S
H620 C617 0.929 . S
S621 N622 1.613 . S
S621 N623 1.610 . S
N622 S621 1.613 . S
N622 C625 1.350 . S
N623 S621 1.610 . S
N623 C624 1.351 . S
C624 C618 1.428 . S
C624 N623 1.351 . S
C624 C625 1.434 . S
C625 C616 1.429 . S
C625 N622 1.350 . S
C625 C624 1.434 . S
C626 C627 1.369 . S
C626 C628 1.419 . S
C626 H630 0.930 . S
C627 C626 1.369 . S
C627 C636 1.429 . S
C628 C626 1.419 . S
C628 C629 1.363 . S
C628 H631 0.929 . S
C629 C628 1.363 . S
C629 C635 1.428 . S
H630 C626 0.930 . S
H631 C628 0.929 . S
S632 N633 1.613 . S
S632 N634 1.610 . S
N633 S632 1.613 . S
N633 C636 1.350 . S
N634 S632 1.610 . S
N634 C635 1.351 . S
C635 C629 1.428 . S
C635 N634 1.351 . S
C635 C636 1.434 . S
C636 C627 1.429 . S
C636 N633 1.350 . S
C636 C635 1.434 . S
C637 C638 1.369 . S
C637 C639 1.419 . S
C637 H641 0.930 . S
C638 C637 1.369 . S
C638 C647 1.429 . S
C639 C637 1.419 . S
C639 C640 1.363 . S
C639 H642 0.929 . S
C640 C639 1.363 . S
C640 C646 1.428 . S
H641 C637 0.930 . S
H642 C639 0.929 . S
S643 N644 1.613 . S
S643 N645 1.610 . S
N644 S643 1.613 . S
N644 C647 1.350 . S
N645 S643 1.610 . S
N645 C646 1.351 . S
C646 C640 1.428 . S
C646 N645 1.351 . S
C646 C647 1.434 . S
C647 C638 1.429 . S
C647 N644 1.350 . S
C647 C646 1.434 . S
C253 C249 1.565 . S
C255 C11 1.561 . S
C264 C221 1.560 . S
C266 C25 1.564 . S
C275 C235 1.562 . S
C277 C39 1.565 . S
C286 C109 1.562 . S
C288 C53 1.565 . S
C297 C123 1.561 . S
C299 C67 1.564 . S
C308 C81 1.564 . S
C310 C95 1.564 . S
C319 C137 1.565 . S
C321 C193 1.564 . S
C330 C151 1.559 . S
C332 C207 1.563 . S
C341 C165 1.560 . S
C343 C179 1.564 . S
C352 C4 1.322 . S
C354 C242 1.319 . S
C363 C214 1.322 . S
C365 C18 1.319 . S
C374 C32 1.314 . S
C376 C228 1.315 . S
C385 C102 1.322 . S
C387 C46 1.318 . S
C396 C60 1.317 . S
C398 C116 1.320 . S
C407 C74 1.316 . S
C409 C88 1.320 . S
C418 C130 1.314 . S
C420 C186 1.315 . S
C429 C200 1.321 . S
C431 C144 1.321 . S
C440 C172 1.315 . S
C442 C158 1.318 . S
C451 C5 1.298 . S
C453 C47 1.296 . S
C462 C61 1.304 . S
C464 C19 1.308 . S
C473 C75 1.308 . S
C475 C33 1.306 . S
C484 C82 1.460 . S
C486 C26 1.462 . S
C495 C40 1.460 . S
C497 C54 1.462 . S
C506 C68 1.462 . S
C508 C12 1.461 . S
C517 C89 1.293 . S
C519 C131 1.304 . S
C528 C145 1.299 . S
C530 C103 1.309 . S
C539 C159 1.305 . S
C541 C117 1.308 . S
C550 C166 1.462 . S
C552 C110 1.460 . S
C561 C124 1.461 . S
C563 C138 1.462 . S
C572 C152 1.462 . S
C574 C96 1.461 . S
C583 C215 1.308 . S
C585 C173 1.306 . S
C594 C229 1.310 . S
C596 C187 1.299 . S
C605 C201 1.306 . S
C607 C243 1.296 . S
C616 C250 1.460 . S
C618 C194 1.462 . S
C627 C208 1.462 . S
C629 C222 1.460 . S
C638 C236 1.462 . S
C640 C180 1.460 . S
