# Generated by pormake.
# Topology qtz-g, (3)-cn, num edge types: 1
# Building blocks:
#     Node 0, Type 0, BuildingBlock: WUSLED_clean_sbu_0, # of connection points: 3
#     Node 1, Type 0, BuildingBlock: WUSLED_clean_sbu_0, # of connection points: 3
#     Node 2, Type 0, BuildingBlock: WUSLED_clean_sbu_0, # of connection points: 3
#     Node 3, Type 0, BuildingBlock: WUSLED_clean_sbu_0, # of connection points: 3
#     Node 4, Type 0, BuildingBlock: WUSLED_clean_sbu_0, # of connection points: 3
#     Node 5, Type 0, BuildingBlock: WUSLED_clean_sbu_0, # of connection points: 3
#     Node 6, Type 0, BuildingBlock: WUSLED_clean_sbu_0, # of connection points: 3
#     Node 7, Type 0, BuildingBlock: WUSLED_clean_sbu_0, # of connection points: 3
#     Node 8, Type 0, BuildingBlock: WUSLED_clean_sbu_0, # of connection points: 3
#     Node 9, Type 0, BuildingBlock: WUSLED_clean_sbu_0, # of connection points: 3
#     Node 10, Type 0, BuildingBlock: WUSLED_clean_sbu_0, # of connection points: 3
#     Node 11, Type 0, BuildingBlock: WUSLED_clean_sbu_0, # of connection points: 3
#     Edge 12, Type (0, 0), BuildingBlock: XUDNAN_clean_linker_2, # of connection points: 2
#     Edge 13, Type (0, 0), BuildingBlock: XUDNAN_clean_linker_2, # of connection points: 2
#     Edge 14, Type (0, 0), BuildingBlock: XUDNAN_clean_linker_2, # of connection points: 2
#     Edge 15, Type (0, 0), BuildingBlock: XUDNAN_clean_linker_2, # of connection points: 2
#     Edge 16, Type (0, 0), BuildingBlock: XUDNAN_clean_linker_2, # of connection points: 2
#     Edge 17, Type (0, 0), BuildingBlock: XUDNAN_clean_linker_2, # of connection points: 2
#     Edge 18, Type (0, 0), BuildingBlock: XUDNAN_clean_linker_2, # of connection points: 2
#     Edge 19, Type (0, 0), BuildingBlock: XUDNAN_clean_linker_2, # of connection points: 2
#     Edge 20, Type (0, 0), BuildingBlock: XUDNAN_clean_linker_2, # of connection points: 2
#     Edge 21, Type (0, 0), BuildingBlock: XUDNAN_clean_linker_2, # of connection points: 2
#     Edge 22, Type (0, 0), BuildingBlock: XUDNAN_clean_linker_2, # of connection points: 2
#     Edge 23, Type (0, 0), BuildingBlock: XUDNAN_clean_linker_2, # of connection points: 2
#     Edge 24, Type (0, 0), BuildingBlock: XUDNAN_clean_linker_2, # of connection points: 2
#     Edge 25, Type (0, 0), BuildingBlock: XUDNAN_clean_linker_2, # of connection points: 2
#     Edge 26, Type (0, 0), BuildingBlock: XUDNAN_clean_linker_2, # of connection points: 2
#     Edge 27, Type (0, 0), BuildingBlock: XUDNAN_clean_linker_2, # of connection points: 2
#     Edge 28, Type (0, 0), BuildingBlock: XUDNAN_clean_linker_2, # of connection points: 2
#     Edge 29, Type (0, 0), BuildingBlock: XUDNAN_clean_linker_2, # of connection points: 2
# Relax obj value: 0.110
# Max RMSD: 0.087
# Mean RMSD: 0.086
data_MOF--net-qtz-g--node1-WUSLED_clean_sbu_0--edge1-XUDNAN_clean_linker_2
_symmetry_space_group_name_H-M    P1
_symmetry_Int_Tables_number       1
_symmetry_cell_setting            triclinic
loop_
_symmetry_equiv_pos_as_xyz
'x, y, z'
_cell_length_a     66.917976
_cell_length_b     67.671107
_cell_length_c     106.26779
_cell_angle_alpha  90.216694
_cell_angle_beta   90.028371
_cell_angle_gamma 119.56957
loop_
_atom_site_label
_atom_site_type_symbol
_atom_site_fract_x
_atom_site_fract_y
_atom_site_fract_z
_atom_type_partial_charge
C0 C 0.03303 0.32849 0.09921 0.0
C1 C 0.03433 0.34743 0.10545 0.0
C2 C 0.02409 0.32674 0.12524 0.0
C3 C 0.02998 0.34658 0.11835 0.0
C4 C 0.0215 0.3074 0.11884 0.0
C5 C 0.02605 0.30832 0.10592 0.0
U6 U 0.04275 0.35475 0.06652 0.0
O7 O 0.0734 0.36896 0.0546 0.0
O8 O 0.04126 0.34008 0.04769 0.0
C9 C 0.06325 0.35384 0.04561 0.0
C10 C 0.04064 0.33016 0.08605 0.0
C11 C 0.07667 0.34374 0.0405 0.0
C12 C 0.10407 0.33042 0.04341 0.0
C13 C 0.08821 0.3361 0.04842 0.0
C14 C 0.09607 0.33869 0.02245 0.0
C15 C 0.10883 0.33245 0.0304 0.0
C16 C 0.08016 0.34428 0.02747 0.0
C17 C 0.0246 0.40084 0.0622 0.0
C18 C 0.04337 0.43752 0.05179 0.0
C19 C 0.00517 0.42304 0.06038 0.0
C20 C 0.00519 0.40327 0.06414 0.0
C21 C 0.02466 0.44081 0.05464 0.0
C22 C 0.04337 0.41773 0.05555 0.0
C23 C 0.02613 0.38254 0.06885 0.0
O24 O 0.02451 0.32292 0.07737 0.0
O25 O 0.05896 0.34944 0.08312 0.0
O26 O 0.04672 0.3874 0.0727 0.0
O27 O 0.01392 0.36174 0.06442 0.0
H28 H 0.03945 0.36312 0.10044 0.0
H29 H 0.03172 0.36162 0.123 0.0
H30 H 0.01704 0.29192 0.12391 0.0
H31 H 0.02489 0.29353 0.10126 0.0
H32 H 0.11322 0.32521 0.04978 0.0
H33 H 0.08569 0.33547 0.05852 0.0
H34 H 0.09933 0.34061 0.01243 0.0
H35 H 0.07143 0.35018 0.02122 0.0
H36 H 0.05848 0.45071 0.04717 0.0
H37 H 0.99054 0.42503 0.06279 0.0
H38 H 0.99056 0.39046 0.06927 0.0
H39 H 0.05852 0.4162 0.05386 0.0
C40 C 0.71543 0.03724 0.43284 0.0
C41 C 0.69607 0.03345 0.43989 0.0
C42 C 0.71236 0.0258 0.45855 0.0
C43 C 0.69452 0.0277 0.45268 0.0
C44 C 0.73103 0.02848 0.45123 0.0
C45 C 0.73253 0.03414 0.43853 0.0
U46 U 0.69421 0.04696 0.40106 0.0
O47 O 0.70914 0.07729 0.38903 0.0
O48 O 0.70535 0.04512 0.38179 0.0
C49 C 0.71239 0.06667 0.37956 0.0
C50 C 0.71911 0.04583 0.41983 0.0
C51 C 0.7337 0.07943 0.37225 0.0
C52 C 0.77534 0.09981 0.36973 0.0
C53 C 0.75579 0.08725 0.37728 0.0
C54 C 0.75071 0.09677 0.35227 0.0
C55 C 0.77297 0.10457 0.35707 0.0
C56 C 0.73141 0.08432 0.35974 0.0
C57 C 0.62801 0.02293 0.39779 0.0
C58 C 0.60446 0.03488 0.38614 0.0
C59 C 0.58664 0.99836 0.39654 0.0
C60 C 0.60821 1.00236 0.40053 0.0
C61 C 0.58441 0.01479 0.38957 0.0
C62 C 0.62613 0.03901 0.39029 0.0
C63 C 0.64957 0.02773 0.40413 0.0
O64 O 0.7111 0.03043 0.41083 0.0
O65 O 0.71551 0.06297 0.41778 0.0
O66 O 0.66391 0.04897 0.4072 0.0
O67 O 0.6598 0.01665 0.40001 0.0
H68 H 0.68258 0.03565 0.43564 0.0
H69 H 0.67996 0.02579 0.45809 0.0
H70 H 0.74485 0.02676 0.45543 0.0
H71 H 0.74748 0.03681 0.43322 0.0
H72 H 0.79222 0.10553 0.37373 0.0
H73 H 0.7579 0.0837 0.38697 0.0
H74 H 0.74809 0.10055 0.34272 0.0
H75 H 0.71453 0.07864 0.35572 0.0
H76 H 0.60331 0.04786 0.38078 0.0
H77 H 0.57161 0.98257 0.39917 0.0
H78 H 0.60932 0.98969 0.40624 0.0
H79 H 0.64121 0.05503 0.38804 0.0
C80 C 0.67823 0.71393 0.7673 0.0
C81 C 0.67058 0.69119 0.77047 0.0
C82 C 0.68116 0.70202 0.79242 0.0
C83 C 0.67216 0.68532 0.78289 0.0
C84 C 0.68929 0.72485 0.78911 0.0
C85 C 0.68781 0.73072 0.77666 0.0
U86 U 0.65049 0.69651 0.73509 0.0
O87 O 0.63595 0.712 0.72261 0.0
O88 O 0.66474 0.70772 0.71607 0.0
C89 C 0.65093 0.71587 0.71362 0.0
C90 C 0.67545 0.72012 0.7544 0.0
C91 C 0.66129 0.73847 0.7077 0.0
C92 C 0.67647 0.77937 0.70871 0.0
C93 C 0.66911 0.75853 0.71479 0.0
C94 C 0.66908 0.7604 0.68849 0.0
C95 C 0.6761 0.78048 0.69548 0.0
C96 C 0.66175 0.73967 0.69455 0.0
C97 C 0.60811 0.62979 0.7341 0.0
C98 C 0.58038 0.6029 0.71908 0.0
C99 C 0.58831 0.58947 0.73853 0.0
C100 C 0.6039 0.61168 0.74199 0.0
C101 C 0.57658 0.58467 0.72698 0.0
C102 C 0.59617 0.62543 0.72262 0.0
C103 C 0.62482 0.65264 0.73864 0.0
O104 O 0.68332 0.71242 0.74541 0.0
O105 O 0.65511 0.71761 0.75185 0.0
O106 O 0.61757 0.66719 0.74076 0.0
O107 O 0.64593 0.66198 0.73431 0.0
H108 H 0.66312 0.67795 0.76337 0.0
H109 H 0.66613 0.66763 0.78502 0.0
H110 H 0.69609 0.73813 0.7962 0.0
H111 H 0.69373 0.74834 0.77438 0.0
H112 H 0.68161 0.79444 0.7144 0.0
H113 H 0.66889 0.75798 0.72497 0.0
H114 H 0.66898 0.76064 0.6783 0.0
H115 H 0.65585 0.72439 0.68892 0.0
H116 H 0.57156 0.59971 0.71012 0.0
H117 H 0.58543 0.57596 0.74499 0.0
H118 H 0.61275 0.61473 0.75095 0.0
H119 H 0.59913 0.63929 0.71643 0.0
C120 C 0.97068 0.6749 0.10085 0.0
C121 C 0.97739 0.66085 0.10711 0.0
C122 C 0.98593 0.68411 0.12609 0.0
C123 C 0.98493 0.6654 0.11964 0.0
C124 C 0.97931 0.69814 0.11968 0.0
C125 C 0.97183 0.69359 0.10719 0.0
U126 U 0.96158 0.64429 0.06926 0.0
O127 O 0.93131 0.62878 0.05684 0.0
O128 O 0.96371 0.65712 0.05 0.0
C129 C 0.94181 0.64323 0.04769 0.0
C130 C 0.96205 0.67023 0.08782 0.0
C131 C 0.92885 0.65329 0.04194 0.0
C132 C 0.91238 0.67828 0.04265 0.0
C133 C 0.92611 0.67022 0.04805 0.0
C134 C 0.90433 0.65283 0.02492 0.0
C135 C 0.90094 0.66938 0.03109 0.0
C136 C 0.91816 0.64494 0.03029 0.0
C137 C 0.98691 0.60243 0.06891 0.0
C138 C 0.98928 0.57781 0.0529 0.0
C139 C 0.00487 0.57983 0.07376 0.0
C140 C 0.99793 0.59526 0.07743 0.0
C141 C 1.00093 0.57115 0.06144 0.0
C142 C 0.98238 0.59354 0.05661 0.0
C143 C 0.98092 0.61935 0.0735 0.0
O144 O 0.97781 0.67741 0.07899 0.0
O145 O 0.94483 0.64972 0.08566 0.0
O146 O 0.95917 0.61237 0.07583 0.0
O147 O 0.99206 0.6399 0.06874 0.0
H148 H 0.97672 0.64637 0.10232 0.0
H149 H 0.99017 0.65441 0.12422 0.0
H150 H 0.97947 0.71244 0.12437 0.0
H151 H 0.96668 0.70457 0.10252 0.0
H152 H 0.91054 0.6913 0.0476 0.0
H153 H 0.93428 0.67693 0.05707 0.0
H154 H 0.89562 0.64522 0.01616 0.0
H155 H 0.92003 0.63183 0.02545 0.0
H156 H 0.98607 0.57133 0.04335 0.0
H157 H 0.01349 0.57475 0.08059 0.0
H158 H 1.00141 0.60181 0.08698 0.0
H159 H 0.97382 0.5989 0.04991 0.0
C160 C 0.29781 0.96559 0.43356 0.0
C161 C 0.32093 0.97782 0.43728 0.0
C162 C 0.30967 0.98448 0.45801 0.0
C163 C 0.3268 0.98712 0.44939 0.0
C164 C 0.2865 0.97208 0.45423 0.0
C165 C 0.28066 0.96273 0.44211 0.0
U166 U 0.3155 0.95442 0.40161 0.0
O167 O 0.30102 0.92349 0.38993 0.0
O168 O 0.30258 0.95449 0.38253 0.0
C169 C 0.29597 0.93292 0.38057 0.0
C170 C 0.29151 0.95559 0.42086 0.0
C171 C 0.27338 0.91894 0.37453 0.0
C172 C 0.23153 0.89889 0.37459 0.0
C173 C 0.25257 0.91317 0.3806 0.0
C174 C 0.252 0.89644 0.3564 0.0
C175 C 0.23101 0.89011 0.36245 0.0
C176 C 0.27288 0.91064 0.36239 0.0
C177 C 0.38263 0.98058 0.399 0.0
C178 C 0.40655 0.97567 0.38342 0.0
C179 C 0.42392 0.99884 0.40197 0.0
C180 C 0.40237 0.99463 0.40601 0.0
C181 C 0.42628 0.98912 0.39076 0.0
C182 C 0.38477 0.97129 0.38757 0.0
C183 C 0.36034 0.97511 0.40454 0.0
O184 O 0.29808 0.97024 0.41157 0.0
O185 O 0.29541 0.93867 0.41868 0.0
O186 O 0.34661 0.95383 0.40764 0.0
O187 O 0.34949 0.98518 0.39986 0.0
H188 H 0.33443 0.98009 0.43082 0.0
H189 H 0.34478 0.99618 0.45202 0.0
H190 H 0.27288 0.96992 0.46054 0.0
H191 H 0.26272 0.95331 0.43939 0.0
H192 H 0.21571 0.89428 0.37955 0.0
H193 H 0.25261 0.91942 0.39001 0.0
H194 H 0.25237 0.89047 0.34698 0.0
H195 H 0.28875 0.91499 0.35753 0.0
H196 H 0.40788 0.96793 0.37476 0.0
H197 H 0.43879 0.00955 0.40773 0.0
H198 H 0.40106 1.00198 0.41484 0.0
H199 H 0.36966 0.96033 0.38204 0.0
C200 C 0.4124 0.38411 0.71443 0.0
C201 C 0.42213 0.39345 0.72619 0.0
C202 C 0.44843 0.42942 0.71629 0.0
C203 C 0.4401 0.41586 0.72709 0.0
C204 C 0.43766 0.4206 0.70466 0.0
C205 C 0.41981 0.39802 0.70374 0.0
U206 U 0.36737 0.32804 0.72849 0.0
O207 O 0.33645 0.2989 0.72037 0.0
O208 O 0.3644 0.29424 0.72789 0.0
C209 C 0.34445 0.28482 0.72208 0.0
C210 C 0.39606 0.35955 0.71311 0.0
C211 C 0.3418 0.26944 0.71155 0.0
C212 C 0.35388 0.26147 0.69148 0.0
C213 C 0.35593 0.27698 0.70088 0.0
C214 C 0.3234 0.23087 0.70324 0.0
C215 C 0.3377 0.23814 0.6926 0.0
C216 C 0.32546 0.24636 0.7126 0.0
C217 C 0.35238 0.33323 0.76354 0.0
C218 C 0.34318 0.30886 0.78186 0.0
C219 C 0.3381 0.34189 0.7826 0.0
C220 C 0.34563 0.3469 0.77017 0.0
C221 C 0.33724 0.32308 0.7887 0.0
C222 C 0.35069 0.31388 0.76938 0.0
C223 C 0.36347 0.34121 0.7512 0.0
O224 O 0.40131 0.34628 0.71964 0.0
O225 O 0.37411 0.35335 0.71365 0.0
O226 O 0.35028 0.34012 0.74174 0.0
O227 O 0.37929 0.33597 0.74806 0.0
H228 H 0.41656 0.38312 0.7346 0.0
H229 H 0.44817 0.42234 0.73616 0.0
H230 H 0.44394 0.43069 0.6962 0.0
H231 H 0.41247 0.39114 0.69459 0.0
H232 H 0.36539 0.26767 0.6835 0.0
H233 H 0.36876 0.29473 0.69994 0.0
H234 H 0.31053 0.21317 0.70436 0.0
H235 H 0.31442 0.24022 0.72078 0.0
H236 H 0.3429 0.29434 0.78628 0.0
H237 H 0.33323 0.35295 0.78747 0.0
H238 H 0.34686 0.36194 0.76584 0.0
H239 H 0.35588 0.3031 0.76446 0.0
C240 C 0.68104 0.97172 0.57384 0.0
C241 C 0.66472 0.97351 0.56631 0.0
C242 C 0.692 0.98803 0.54892 0.0
C243 C 0.67014 0.98153 0.55392 0.0
C244 C 0.70813 0.98606 0.55654 0.0
C245 C 0.70272 0.97808 0.56884 0.0
U246 U 0.65087 0.96219 0.60596 0.0
O247 O 0.63655 0.93226 0.61824 0.0
O248 O 0.66518 0.96463 0.62498 0.0
C249 C 0.65161 0.94291 0.62725 0.0
C250 C 0.67607 0.96299 0.58682 0.0
C251 C 0.66225 0.93063 0.63325 0.0
C252 C 0.66979 0.89894 0.63414 0.0
C253 C 0.66235 0.91196 0.62746 0.0
C254 C 0.67796 0.92355 0.65226 0.0
C255 C 0.67729 0.90432 0.64672 0.0
C256 C 0.67053 0.93652 0.6456 0.0
C257 C 0.6083 0.98571 0.61006 0.0
C258 C 0.5723 0.97299 0.6213 0.0
C259 C 0.59214 0.01074 0.61236 0.0
C260 C 0.60957 0.00677 0.60809 0.0
C261 C 0.57297 0.9937 0.61871 0.0
C262 C 0.58981 0.96899 0.61698 0.0
C263 C 0.625 0.98111 0.60345 0.0
O264 O 0.68382 0.9784 0.59581 0.0
O265 O 0.65529 0.94606 0.58898 0.0
O266 O 0.6182 0.95989 0.60036 0.0
O267 O 0.64648 0.99238 0.60729 0.0
H268 H 0.64786 0.96875 0.57 0.0
H269 H 0.65739 0.98303 0.54835 0.0
H270 H 0.72497 0.99049 0.55296 0.0
H271 H 0.71551 0.97674 0.57447 0.0
H272 H 0.66936 0.88445 0.62951 0.0
H273 H 0.65613 0.90707 0.61792 0.0
H274 H 0.68331 0.92808 0.66196 0.0
H275 H 0.67048 0.95074 0.65029 0.0
H276 H 0.55772 0.95948 0.62612 0.0
H277 H 0.5934 0.02701 0.6104 0.0
H278 H 0.62366 0.0199 0.60278 0.0
H279 H 0.58842 0.95257 0.61862 0.0
C280 C 0.71506 0.68178 0.90785 0.0
C281 C 0.69213 0.67491 0.90479 0.0
C282 C 0.70245 0.68381 0.8827 0.0
C283 C 0.68593 0.67607 0.89237 0.0
C284 C 0.72549 0.69113 0.88589 0.0
C285 C 0.7317 0.6901 0.89835 0.0
U286 U 0.69827 0.65234 0.93942 0.0
O287 O 0.71501 0.63782 0.95104 0.0
O288 O 0.70888 0.66452 0.95887 0.0
C289 C 0.71717 0.65075 0.96079 0.0
C290 C 0.72151 0.67893 0.9207 0.0
C291 C 0.73827 0.65932 0.96839 0.0
C292 C 0.77983 0.67932 0.97128 0.0
C293 C 0.76048 0.67274 0.9635 0.0
C294 C 0.75476 0.65913 0.98868 0.0
C295 C 0.77715 0.67259 0.984 0.0
C296 C 0.73566 0.65272 0.981 0.0
C297 C 0.63364 0.60646 0.94228 0.0
C298 C 0.61415 0.56851 0.9512 0.0
C299 C 0.59195 0.58567 0.94391 0.0
C300 C 0.61229 0.60536 0.94071 0.0
C301 C 0.59264 0.56667 0.94867 0.0
C302 C 0.63448 0.58824 0.94804 0.0
C303 C 0.654 0.62502 0.93612 0.0
O304 O 0.71289 0.68544 0.92991 0.0
O305 O 0.72026 0.65923 0.92279 0.0
O306 O 0.66987 0.62025 0.9324 0.0
O307 O 0.66245 0.64554 0.94092 0.0
H308 H 0.67896 0.66829 0.91198 0.0
H309 H 0.6681 0.67069 0.89033 0.0
H310 H 0.73863 0.69691 0.8787 0.0
H311 H 0.74944 0.69529 0.90052 0.0
H312 H 0.79681 0.68974 0.96736 0.0
H313 H 0.76284 0.67793 0.95374 0.0
H314 H 0.75188 0.65304 0.99828 0.0
H315 H 0.71868 0.64218 0.98491 0.0
H316 H 0.61522 0.55426 0.95505 0.0
H317 H 0.57568 0.58477 0.94179 0.0
H318 H 0.61125 0.61922 0.93628 0.0
H319 H 0.65075 0.58871 0.94945 0.0
C320 C 0.03665 0.62632 0.29265 0.0
C321 C 0.02205 0.61129 0.28336 0.0
C322 C 0.02209 0.57943 0.29409 0.0
C323 C 0.01481 0.58801 0.28408 0.0
C324 C 0.03687 0.59472 0.30326 0.0
C325 C 0.044 0.61786 0.30254 0.0
U326 U 0.04594 0.68084 0.27622 0.0
O327 O 0.04352 0.70989 0.28401 0.0
O328 O 0.0763 0.71495 0.27653 0.0
C329 C 0.06551 0.72415 0.28233 0.0
C330 C 0.04478 0.65089 0.29228 0.0
C331 C 0.07793 0.7399 0.29281 0.0
C332 C 0.10493 0.75242 0.31036 0.0
C333 C 0.09164 0.73594 0.30132 0.0
C334 C 0.0905 0.77667 0.3027 0.0
C335 C 0.10478 0.77318 0.31106 0.0
C336 C 0.07724 0.76021 0.29372 0.0
C337 C 0.02426 0.67508 0.24159 0.0
C338 C 0.03887 0.69927 0.22316 0.0
C339 C 1.00003 0.66747 0.22312 0.0
C340 C 1.00319 0.66216 0.23539 0.0
C341 C 0.01799 0.68581 0.21674 0.0
C342 C 0.04197 0.69398 0.23548 0.0
C343 C 0.02787 0.66687 0.25377 0.0
O344 O 0.06228 0.66283 0.28481 0.0
O345 O 0.02885 0.65687 0.29172 0.0
O346 O 0.01604 0.66773 0.26342 0.0
O347 O 0.0491 0.67236 0.25664 0.0
H348 H 0.01623 0.61755 0.27561 0.0
H349 H 1.0033 0.57671 0.2769 0.0
H350 H 0.04326 0.5889 0.31094 0.0
H351 H 0.0554 0.62923 0.30974 0.0
H352 H 0.11539 0.74894 0.31676 0.0
H353 H 0.0924 0.72033 0.30082 0.0
H354 H 0.09012 0.79248 0.30278 0.0
H355 H 0.06687 0.76366 0.28721 0.0
H356 H 0.05315 0.71339 0.21853 0.0
H357 H 0.98358 0.65701 0.2186 0.0
H358 H 0.98931 0.64748 0.23992 0.0
H359 H 0.05844 0.70422 0.24005 0.0
C360 C 0.33508 0.04 0.5734 0.0
C361 C 0.3542 0.04117 0.56723 0.0
C362 C 0.33238 0.02821 0.5477 0.0
C363 C 0.35289 0.03546 0.55449 0.0
C364 C 0.31286 0.02572 0.55407 0.0
C365 C 0.31426 0.03168 0.56682 0.0
U366 U 0.36187 0.05056 0.60601 0.0
O367 O 0.37748 0.08136 0.61773 0.0
O368 O 0.34793 0.05027 0.62488 0.0
C369 C 0.36253 0.07193 0.62686 0.0
C370 C 0.33714 0.04867 0.58639 0.0
C371 C 0.35332 0.08593 0.63223 0.0
C372 C 0.33469 0.10884 0.63009 0.0
C373 C 0.34084 0.09343 0.62498 0.0
C374 C 0.3529 0.10887 0.64979 0.0
C375 C 0.34111 0.11719 0.64249 0.0
C376 C 0.35888 0.09342 0.64471 0.0
C377 C 0.40506 0.0268 0.60858 0.0
C378 C 0.43194 0.02964 0.62488 0.0
C379 C 0.43085 0.01185 0.60486 0.0
C380 C 0.4133 0.0157 0.60079 0.0
C381 C 0.44066 0.01906 0.61686 0.0
C382 C 0.41427 0.03362 0.62073 0.0
C383 C 0.3876 0.03152 0.60323 0.0
O384 O 0.32922 0.03335 0.59536 0.0
O385 O 0.35706 0.06646 0.5892 0.0
O386 O 0.39434 0.05265 0.60011 0.0
O387 O 0.36677 0.02078 0.60797 0.0
H388 H 0.37039 0.04721 0.57214 0.0
H389 H 0.36809 0.0372 0.54987 0.0
H390 H 0.29686 0.02021 0.54906 0.0
H391 H 0.29928 0.0305 0.57144 0.0
H392 H 0.32526 0.11451 0.62424 0.0
H393 H 0.33637 0.08783 0.61532 0.0
H394 H 0.35849 0.11504 0.65927 0.0
H395 H 0.36862 0.08791 0.65043 0.0
H396 H 0.43921 0.03538 0.63417 0.0
H397 H 0.43683 0.00328 0.59855 0.0
H398 H 0.40633 0.01025 0.59141 0.0
H399 H 0.4081 0.04225 0.62687 0.0
C400 C 0.30585 0.33531 0.90512 0.0
C401 C 0.32697 0.34893 0.89913 0.0
C402 C 0.31207 0.3264 0.87986 0.0
C403 C 0.33006 0.34449 0.88656 0.0
C404 C 0.29104 0.31301 0.88601 0.0
C405 C 0.28804 0.31737 0.89849 0.0
U406 U 0.31938 0.36245 0.93891 0.0
O407 O 0.29761 0.37181 0.95003 0.0
O408 O 0.304 0.34464 0.95665 0.0
C409 C 0.29351 0.35643 0.95868 0.0
C410 C 0.30112 0.33935 0.91812 0.0
C411 C 0.27045 0.34468 0.9645 0.0
C412 C 0.23364 0.34272 0.96853 0.0
C413 C 0.25275 0.34895 0.96074 0.0
C414 C 0.24889 0.32652 0.98342 0.0
C415 C 0.23212 0.3324 0.98022 0.0
C416 C 0.26782 0.33259 0.97564 0.0
C417 C 0.38771 0.40779 0.94167 0.0
C418 C 0.42039 0.43563 0.95377 0.0
C419 C 0.42578 0.42621 0.93248 0.0
C420 C 0.40225 0.41085 0.93152 0.0
C421 C 0.43517 0.43869 0.94365 0.0
C422 C 0.39684 0.42026 0.95279 0.0
C423 C 0.36309 0.39146 0.94069 0.0
O424 O 0.30908 0.33198 0.92719 0.0
O425 O 0.30274 0.35915 0.92056 0.0
O426 O 0.34824 0.39744 0.93671 0.0
O427 O 0.35468 0.36983 0.94332 0.0
H428 H 0.34093 0.36291 0.90412 0.0
H429 H 0.34654 0.35505 0.88214 0.0
H430 H 0.27662 0.2993 0.88113 0.0
H431 H 0.27158 0.3068 0.90294 0.0
H432 H 0.22101 0.34754 0.96587 0.0
H433 H 0.25434 0.35837 0.95224 0.0
H434 H 0.24805 0.3184 0.99232 0.0
H435 H 0.28125 0.32926 0.97882 0.0
H436 H 0.42709 0.44478 0.96253 0.0
H437 H 0.43662 0.4284 0.92444 0.0
H438 H 0.39539 0.40137 0.92285 0.0
H439 H 0.38578 0.418 0.96073 0.0
C440 C 0.97009 0.29563 0.24041 0.0
C441 C 0.98093 0.31826 0.23635 0.0
C442 C 0.98773 0.30675 0.21573 0.0
C443 C 0.9896 0.32376 0.22412 0.0
C444 C 0.97677 0.28407 0.21987 0.0
C445 C 0.96803 0.27859 0.23211 0.0
U446 U 0.95898 0.31318 0.27248 0.0
O447 O 0.92831 0.29782 0.28452 0.0
O448 O 0.96074 0.3012 0.2915 0.0
C449 C 0.93879 0.29348 0.29368 0.0
C450 C 0.96073 0.28964 0.25323 0.0
C451 C 0.92584 0.27074 0.29937 0.0
C452 C 0.90915 0.22964 0.29868 0.0
C453 C 0.92289 0.25107 0.29325 0.0
C454 C 0.90156 0.24744 0.31645 0.0
C455 C 0.89791 0.22748 0.31027 0.0
C456 C 0.91538 0.26876 0.31106 0.0
C457 C 0.9818 0.37876 0.27544 0.0
C458 C 0.97133 0.40058 0.28953 0.0
C459 C 1.00244 0.42 0.27469 0.0
C460 C 0.99917 0.3991 0.27039 0.0
C461 C 0.98836 0.42104 0.28417 0.0
C462 C 0.96802 0.37956 0.28516 0.0
C463 C 0.97753 0.35732 0.2695 0.0
O464 O 0.97605 0.2972 0.26234 0.0
O465 O 0.94304 0.29251 0.25555 0.0
O466 O 0.95613 0.34274 0.26654 0.0
O467 O 0.989 0.34768 0.27388 0.0
H468 H 0.98258 0.33165 0.24262 0.0
H469 H 0.99755 0.34134 0.22121 0.0
H470 H 0.97524 0.27057 0.21374 0.0
H471 H 0.95972 0.26103 0.23511 0.0
H472 H 0.90714 0.21477 0.29372 0.0
H473 H 0.9309 0.25224 0.28422 0.0
H474 H 0.89301 0.24666 0.32523 0.0
H475 H 0.91743 0.28376 0.31592 0.0
H476 H 0.96011 0.40078 0.29681 0.0
H477 H 0.016 0.43537 0.27052 0.0
H478 H 0.00995 0.39881 0.26286 0.0
H479 H 0.95442 0.36401 0.28915 0.0
H480 H 0.97771 0.52862 0.05041 0.0
H481 H 0.04438 0.57907 0.06477 0.0
H482 H 0.05878 0.55215 0.06202 0.0
H483 H 0.9744 0.48242 0.06536 0.0
H484 H 0.96153 0.46219 0.05269 0.0
H485 H 0.95726 0.48638 0.0536 0.0
H486 H 0.97338 0.49826 0.03105 0.0
H487 H 0.97754 0.47391 0.03003 0.0
H488 H 1.00131 0.50201 0.02732 0.0
H489 H 0.06476 0.51927 0.06037 0.0
H490 H 0.06202 0.48173 0.06009 0.0
H491 H 0.99159 0.45142 0.04672 0.0
C492 C 0.99552 0.53414 0.05256 0.0
C493 C 0.01 0.55593 0.05775 0.0
C494 C 0.03305 0.56245 0.06078 0.0
C495 C 0.04142 0.54733 0.0592 0.0
C496 C 0.02659 0.52576 0.05446 0.0
C497 C 0.0042 0.51914 0.05105 0.0
C498 C 0.99151 0.49428 0.04714 0.0
C499 C 0.96991 0.48052 0.05519 0.0
C500 C 0.98558 0.49198 0.03305 0.0
C501 C 0.00976 0.4877 0.04977 0.0
C502 C 0.03005 0.50635 0.05361 0.0
C503 C 0.04913 0.50459 0.05712 0.0
C504 C 0.04743 0.48315 0.05686 0.0
C505 C 0.02671 0.4636 0.05322 0.0
C506 C 0.00771 0.46604 0.04948 0.0
H507 H 0.54777 0.99983 0.40548 0.0
H508 H 0.56863 0.02277 0.36724 0.0
H509 H 0.52986 0.01746 0.36278 0.0
H510 H 0.4894 0.95689 0.39852 0.0
H511 H 0.47812 0.96274 0.41258 0.0
H512 H 0.50716 0.9677 0.41239 0.0
H513 H 0.52218 0.00962 0.41923 0.0
H514 H 0.49319 0.00473 0.41942 0.0
H515 H 0.51465 0.02729 0.40998 0.0
H516 H 0.48762 0.00896 0.36277 0.0
H517 H 0.44804 1.00104 0.36772 0.0
H518 H 0.45643 0.98459 0.40603 0.0
C519 C 0.54413 0.00345 0.3961 0.0
C520 C 0.56116 0.01146 0.38665 0.0
C521 C 0.55583 0.0166 0.37461 0.0
C522 C 0.53383 0.01352 0.37199 0.0
C523 C 0.51739 0.00547 0.38154 0.0
C524 C 0.52245 1.00069 0.39338 0.0
C525 C 0.50231 0.99311 0.40221 0.0
C526 C 0.49375 0.96866 0.40669 0.0
C527 C 0.50846 0.00968 0.41337 0.0
C528 C 0.48504 0.99435 0.39357 0.0
C529 C 0.49382 1.0013 0.38163 0.0
C530 C 0.48067 0.00356 0.37211 0.0
C531 C 0.45819 0.99892 0.37497 0.0
C532 C 0.44925 0.99238 0.38728 0.0
C533 C 0.46288 0.98985 0.39658 0.0
H534 H 0.45682 0.47277 0.71039 0.0
H535 H 0.48923 0.43496 0.72388 0.0
H536 H 0.5262 0.47051 0.72578 0.0
H537 H 0.50737 0.51657 0.69296 0.0
H538 H 0.50215 0.53935 0.69741 0.0
H539 H 0.47842 0.5108 0.69577 0.0
H540 H 0.46552 0.5124 0.71854 0.0
H541 H 0.48907 0.54096 0.72022 0.0
H542 H 0.48572 0.51943 0.7313 0.0
H543 H 0.55887 0.50907 0.7269 0.0
H544 H 0.58556 0.54991 0.72941 0.0
H545 H 0.53267 0.56462 0.71657 0.0
C546 C 0.47184 0.4721 0.71358 0.0
C547 C 0.47032 0.45119 0.71697 0.0
C548 C 0.49013 0.45085 0.72129 0.0
C549 C 0.5112 0.4709 0.72231 0.0
C550 C 0.5122 0.49125 0.71902 0.0
C551 C 0.49312 0.49217 0.71484 0.0
C552 C 0.4989 0.51669 0.71287 0.0
C553 C 0.49657 0.52111 0.69892 0.0
C554 C 0.48391 0.52272 0.72124 0.0
C555 C 0.52393 0.52928 0.71702 0.0
C556 C 0.53124 0.51408 0.7202 0.0
C557 C 0.55339 0.52118 0.72448 0.0
C558 C 0.56838 0.54445 0.72594 0.0
C559 C 0.56115 0.56049 0.72338 0.0
C560 C 0.53875 0.55279 0.71853 0.0
H561 H 0.55376 0.01224 0.60352 0.0
H562 H 0.54679 0.98211 0.64034 0.0
H563 H 0.51305 0.98702 0.64462 0.0
H564 H 0.53769 0.05422 0.61257 0.0
H565 H 0.52252 0.05118 0.59804 0.0
H566 H 0.54658 0.04617 0.59835 0.0
H567 H 0.52092 0.00589 0.58892 0.0
H568 H 0.49679 0.01073 0.58861 0.0
H569 H 0.49461 0.98645 0.59678 0.0
H570 H 0.47916 0.99498 0.64445 0.0
H571 H 0.44769 0.00308 0.63933 0.0
H572 H 0.47801 0.02778 0.60267 0.0
C573 C 0.54545 0.00704 0.6126 0.0
C574 C 0.55309 0.99703 0.62166 0.0
C575 C 0.54122 0.98981 0.63325 0.0
C576 C 0.52213 0.99265 0.63578 0.0
C577 C 0.51511 0.00264 0.6266 0.0
C578 C 0.52644 0.00963 0.61523 0.0
C579 C 0.51508 0.01892 0.60665 0.0
C580 C 0.53145 0.04412 0.60373 0.0
C581 C 0.50633 0.00464 0.59453 0.0
C582 C 0.49543 0.01598 0.61488 0.0
C583 C 0.49572 0.00675 0.62641 0.0
C584 C 0.47886 1.00227 0.63545 0.0
C585 C 0.46114 0.00702 0.6325 0.0
C586 C 0.46034 0.01593 0.62059 0.0
C587 C 0.47798 0.02073 0.61181 0.0
H588 H 0.45748 0.48147 0.95441 0.0
H589 H 0.46978 0.43156 0.93541 0.0
H590 H 0.51148 0.45791 0.93646 0.0
H591 H 0.50003 0.52962 0.93941 0.0
H592 H 0.50878 0.5479 0.95306 0.0
H593 H 0.47993 0.5244 0.95197 0.0
H594 H 0.48518 0.50892 0.97324 0.0
H595 H 0.51409 0.53245 0.97442 0.0
H596 H 0.50893 0.50371 0.97527 0.0
H597 H 0.55128 0.48973 0.93853 0.0
H598 H 0.58708 0.52632 0.94021 0.0
H599 H 0.54978 0.55641 0.95777 0.0
C600 C 0.46897 0.47594 0.95067 0.0
C601 C 0.46032 0.45443 0.94479 0.0
C602 C 0.47594 0.44803 0.93981 0.0
C603 C 0.49968 0.46278 0.94048 0.0
C604 C 0.50761 0.48387 0.94622 0.0
C605 C 0.49279 0.49051 0.95124 0.0
C606 C 0.50591 0.51465 0.95629 0.0
C607 C 0.4982 0.53004 0.94979 0.0
C608 C 0.50337 0.51495 0.97066 0.0
C609 C 0.53027 0.52089 0.95271 0.0
C610 C 0.53082 0.50261 0.94724 0.0
C611 C 0.55114 0.50412 0.94292 0.0
C612 C 0.57144 0.52497 0.94399 0.0
C613 C 0.57132 0.5442 0.94923 0.0
C614 C 0.55043 0.542 0.95376 0.0
H615 H 0.01658 0.54943 0.27493 0.0
H616 H 0.01066 0.55339 0.31544 0.0
H617 H 1.00073 0.51328 0.31732 0.0
H618 H 0.96854 0.4913 0.27159 0.0
H619 H 0.98257 0.48422 0.25933 0.0
H620 H 0.98846 0.51309 0.26117 0.0
H621 H 0.03201 0.52666 0.26308 0.0
H622 H 0.02625 0.49784 0.26137 0.0
H623 H 0.04179 0.51437 0.27493 0.0
H624 H 0.99258 0.4729 0.31488 0.0
H625 H 0.98674 0.43537 0.3082 0.0
H626 H 0.99679 0.45749 0.26929 0.0
C627 C 0.01283 0.54181 0.28419 0.0
C628 C 0.01459 0.55474 0.29504 0.0
C629 C 0.00985 0.54406 0.30699 0.0
C630 C 0.00402 0.52119 0.30815 0.0
C631 C 1.00277 0.50908 0.29729 0.0
C632 C 0.00688 0.51896 0.28553 0.0
C633 C 0.00476 0.50227 0.27537 0.0
C634 C 0.9849 0.49744 0.26633 0.0
C635 C 0.02756 0.5108 0.26827 0.0
C636 C 0.99927 0.48164 0.28328 0.0
C637 C 0.99802 0.48583 0.29589 0.0
C638 C 0.99337 0.46936 0.30501 0.0
C639 C 0.98996 0.44806 0.30112 0.0
C640 C 0.99132 0.44342 0.28823 0.0
C641 C 0.99592 0.46052 0.27924 0.0
H642 H 0.96964 0.28301 0.19354 0.0
H643 H 0.02791 0.34409 0.20858 0.0
H644 H 0.04332 0.35527 0.18717 0.0
H645 H 1.00225 0.27232 0.16944 0.0
H646 H 0.97922 0.26205 0.15808 0.0
H647 H 0.97282 0.25853 0.17466 0.0
H648 H 0.94921 0.27926 0.17227 0.0
H649 H 0.95565 0.28296 0.15571 0.0
H650 H 0.9626 0.30731 0.16553 0.0
H651 H 0.05186 0.36074 0.16436 0.0
H652 H 0.05386 0.35954 0.14125 0.0
H653 H 0.99092 0.29441 0.14069 0.0
C654 C 0.98581 0.29858 0.19237 0.0
C655 C 0.99741 0.31278 0.2028 0.0
C656 C 0.0184 0.33315 0.20077 0.0
C657 C 0.02741 0.33958 0.18865 0.0
C658 C 0.01541 0.32538 0.17861 0.0
C659 C 0.99518 0.30522 0.18031 0.0
C660 C 0.98568 0.29322 0.16784 0.0
C661 C 0.98496 0.27016 0.16749 0.0
C662 C 0.96187 0.29054 0.16519 0.0
C663 C 0.00362 0.30997 0.15887 0.0
C664 C 0.02058 0.32838 0.16533 0.0
C665 C 0.03873 0.3464 0.15918 0.0
C666 C 0.03962 0.34563 0.14605 0.0
C667 C 0.02248 0.32698 0.13917 0.0
C668 C 0.00432 0.30883 0.14571 0.0
H669 H 0.67737 0.99593 0.47423 0.0
H670 H 0.7485 0.04997 0.47421 0.0
H671 H 0.75046 0.04637 0.49714 0.0
H672 H 0.66133 0.01093 0.50377 0.0
H673 H 0.64341 0.98199 0.50879 0.0
H674 H 0.64713 0.98861 0.49225 0.0
H675 H 0.66121 0.95954 0.4888 0.0
H676 H 0.65742 0.95275 0.50531 0.0
H677 H 0.68492 0.96191 0.49802 0.0
H678 H 0.74507 0.03778 0.51981 0.0
H679 H 0.73305 0.02338 0.54127 0.0
H680 H 0.6656 0.97385 0.52716 0.0
C681 C 0.69328 0.00705 0.47909 0.0
C682 C 0.71284 0.02317 0.47241 0.0
C683 C 0.73342 0.03729 0.47909 0.0
C684 C 0.73467 0.03549 0.49213 0.0
C685 C 0.71521 0.01944 0.49842 0.0
C686 C 0.69492 0.00535 0.49219 0.0
C687 C 0.67681 0.98919 0.50133 0.0
C688 C 0.65593 0.99291 0.50154 0.0
C689 C 0.66967 0.96438 0.49817 0.0
C690 C 0.69009 0.99664 0.51363 0.0
C691 C 0.71219 0.01414 0.51167 0.0
C692 C 0.72786 0.02397 0.52148 0.0
C693 C 0.72088 0.01555 0.53364 0.0
C694 C 0.69845 0.9973 0.53595 0.0
C695 C 0.6828 0.98791 0.52576 0.0
H696 H 0.71393 0.7246 0.81094 0.0
H697 H 0.64745 0.6647 0.80437 0.0
H698 H 0.64618 0.65366 0.82649 0.0
H699 H 0.73555 0.69864 0.83269 0.0
H700 H 0.74986 0.72346 0.84262 0.0
H701 H 0.74605 0.72654 0.8261 0.0
H702 H 0.72549 0.7494 0.83155 0.0
H703 H 0.72917 0.74633 0.84809 0.0
H704 H 0.70087 0.73707 0.84181 0.0
H705 H 0.65149 0.6491 0.84918 0.0
H706 H 0.66338 0.65099 0.87124 0.0
H707 H 0.72573 0.71461 0.86369 0.0
C708 C 0.69905 0.7092 0.81415 0.0
C709 C 0.68087 0.69542 0.80581 0.0
C710 C 0.66183 0.67532 0.81044 0.0
C711 C 0.66084 0.66897 0.82304 0.0
C712 C 0.67896 0.68291 0.83097 0.0
C713 C 0.69773 0.70259 0.82675 0.0
C714 C 0.71476 0.71454 0.83734 0.0
C715 C 0.73793 0.71587 0.83452 0.0
C716 C 0.71774 0.73824 0.83984 0.0
C717 C 0.70253 0.69851 0.84815 0.0
C718 C 0.68193 0.68039 0.84422 0.0
C719 C 0.66754 0.66327 0.85241 0.0
C720 C 0.67438 0.66462 0.86498 0.0
C721 C 0.69541 0.68305 0.86932 0.0
C722 C 0.70964 0.7002 0.86071 0.0
H723 H 0.99531 0.65463 0.19786 0.0
H724 H 0.03443 0.72724 0.20516 0.0
H725 H 0.03109 0.73463 0.18275 0.0
H726 H 0.01846 0.65525 0.1677 0.0
H727 H 0.99168 0.63364 0.16109 0.0
H728 H 0.99697 0.63391 0.17772 0.0
H729 H 0.95966 0.63525 0.18255 0.0
H730 H 0.9541 0.6347 0.16593 0.0
H731 H 0.95552 0.65726 0.17564 0.0
H732 H 0.02397 0.7341 0.1595 0.0
H733 H 0.01266 0.72579 0.13719 0.0
H734 H 0.97664 0.65353 0.14532 0.0
C735 C 1.00292 0.67212 0.19483 0.0
C736 C 0.01521 0.69036 0.20333 0.0
C737 C 0.02524 0.71296 0.19884 0.0
C738 C 0.02332 0.71734 0.18613 0.0
C739 C 0.01122 0.69896 0.17803 0.0
C740 C 1.00106 0.67682 0.18221 0.0
C741 C 0.98899 0.66012 0.17158 0.0
C742 C 0.99967 0.64483 0.1694 0.0
C743 C 0.96303 0.646 0.17408 0.0
C744 C 0.99402 0.67634 0.16074 0.0
C745 C 0.00689 0.69866 0.16466 0.0
C746 C 0.01375 0.71668 0.15634 0.0
C747 C 0.00711 0.71177 0.14369 0.0
C748 C 0.99361 0.68899 0.13945 0.0
C749 C 0.98715 0.67111 0.14816 0.0
H750 H 0.28763 0.96702 0.48067 0.0
H751 H 0.34615 0.02591 0.46434 0.0
H752 H 0.35791 0.04297 0.48542 0.0
H753 H 0.27492 0.99854 0.50417 0.0
H754 H 0.2668 0.97693 0.51601 0.0
H755 H 0.26283 0.96915 0.49959 0.0
H756 H 0.28697 0.94906 0.50241 0.0
H757 H 0.2911 0.95688 0.51882 0.0
H758 H 0.31562 0.96479 0.50881 0.0
H759 H 0.36415 0.05336 0.50801 0.0
H760 H 0.36373 0.05732 0.53105 0.0
H761 H 0.30044 0.99269 0.53308 0.0
C762 C 0.30276 0.98363 0.48148 0.0
C763 C 0.31609 0.99498 0.47079 0.0
C764 C 0.33592 0.01659 0.47236 0.0
C765 C 0.34266 0.02654 0.4843 0.0
C766 C 0.32932 0.01481 0.49461 0.0
C767 C 0.3097 0.99393 0.49336 0.0
C768 C 0.29855 0.98501 0.50606 0.0
C769 C 0.27433 0.98225 0.50648 0.0
C770 C 0.29804 0.96261 0.5092 0.0
C771 C 0.31503 0.00416 0.51461 0.0
C772 C 0.33269 0.02109 0.50776 0.0
C773 C 0.35039 0.04027 0.51349 0.0
C774 C 0.35007 0.04229 0.52658 0.0
C775 C 0.33214 0.02528 0.53384 0.0
C776 C 0.31429 0.00601 0.52774 0.0
H777 H 0.33506 0.35676 0.86072 0.0
H778 H 0.29516 0.28456 0.86866 0.0
H779 H 0.29677 0.27595 0.84628 0.0
H780 H 0.31019 0.35536 0.83103 0.0
H781 H 0.33666 0.37612 0.82383 0.0
H782 H 0.33283 0.37686 0.84057 0.0
H783 H 0.36987 0.37454 0.84459 0.0
H784 H 0.37396 0.37409 0.82785 0.0
H785 H 0.37266 0.35172 0.83758 0.0
H786 H 0.30167 0.27503 0.82295 0.0
H787 H 0.31104 0.28201 0.80036 0.0
H788 H 0.34931 0.35462 0.80777 0.0
C789 C 0.32697 0.33913 0.85782 0.0
C790 C 0.31479 0.32137 0.8665 0.0
C791 C 0.3042 0.29852 0.86219 0.0
C792 C 0.30512 0.29341 0.84949 0.0
C793 C 0.3169 0.3113 0.84118 0.0
C794 C 0.32784 0.33368 0.84517 0.0
C795 C 0.33933 0.34968 0.83427 0.0
C796 C 0.32914 0.36543 0.83231 0.0
C797 C 0.36551 0.36331 0.83619 0.0
C798 C 0.33296 0.3328 0.82355 0.0
C799 C 0.32002 0.31075 0.82774 0.0
C800 C 0.31197 0.29223 0.81956 0.0
C801 C 0.31748 0.29636 0.80675 0.0
C802 C 0.33096 0.31884 0.80224 0.0
C803 C 0.33871 0.33723 0.81083 0.0
H804 H 0.18508 0.31505 0.97786 0.0
H805 H 0.24184 0.34742 0.00428 0.0
H806 H 0.21568 0.34802 0.02033 0.0
H807 H 0.15651 0.34479 0.98595 0.0
H808 H 0.12775 0.32094 0.98498 0.0
H809 H 0.15036 0.3211 0.97574 0.0
H810 H 0.14177 0.28267 0.98551 0.0
H811 H 0.11906 0.28238 0.99477 0.0
H812 H 0.14188 0.28005 1.00238 0.0
H813 H 0.18494 0.34831 0.03287 0.0
H814 H 0.15073 0.34789 0.04151 0.0
H815 H 0.11247 0.31402 0.00766 0.0
C816 C 0.19184 0.32199 0.98708 0.0
C817 C 0.21545 0.33098 0.98988 0.0
C818 C 0.22376 0.34005 1.00201 0.0
C819 C 0.20905 0.34054 0.01119 0.0
C820 C 0.18596 0.33165 0.00817 0.0
C821 C 0.17725 0.3223 0.99649 0.0
C822 C 0.1517 0.31433 0.99578 0.0
C823 C 0.14628 0.326 0.98497 0.0
C824 C 0.13778 0.28831 0.99453 0.0
C825 C 0.14789 0.32203 0.00856 0.0
C826 C 0.16784 0.33153 0.01561 0.0
C827 C 0.16906 0.34055 0.02754 0.0
C828 C 0.14941 0.34007 0.03242 0.0
C829 C 0.12869 0.33065 0.02539 0.0
C830 C 0.12797 0.32133 0.01331 0.0
H831 H 0.88853 0.2142 0.33527 0.0
H832 H 0.86833 0.18903 0.29706 0.0
H833 H 0.83785 0.15278 0.30534 0.0
H834 H 0.87343 0.15768 0.34943 0.0
H835 H 0.86315 0.16399 0.36372 0.0
H836 H 0.8861 0.18659 0.35498 0.0
H837 H 0.86271 0.20769 0.35374 0.0
H838 H 0.83973 0.18523 0.36243 0.0
H839 H 0.83406 0.1932 0.34723 0.0
H840 H 0.80704 0.121 0.31737 0.0
H841 H 0.77692 0.09643 0.33223 0.0
H842 H 0.8148 0.14268 0.3628 0.0
C843 C 0.8779 0.20102 0.32861 0.0
C844 C 0.88114 0.20466 0.31544 0.0
C845 C 0.86678 0.18672 0.30715 0.0
C846 C 0.84925 0.166 0.31178 0.0
C847 C 0.8462 0.16327 0.32474 0.0
C848 C 0.86017 0.18021 0.33307 0.0
C849 C 0.85201 0.17349 0.34652 0.0
C850 C 0.86973 0.17025 0.35412 0.0
C851 C 0.84681 0.19094 0.35285 0.0
C852 C 0.83031 0.1509 0.34435 0.0
C853 C 0.8278 0.14504 0.33175 0.0
C854 C 0.80886 0.12538 0.32726 0.0
C855 C 0.79171 0.11162 0.3358 0.0
C856 C 0.7932 0.11773 0.3487 0.0
C857 C 0.81316 0.13738 0.35305 0.0
H858 H 0.65443 0.78617 0.67502 0.0
H859 H 0.71045 0.8239 0.70126 0.0
H860 H 0.71847 0.85976 0.69091 0.0
H861 H 0.68241 0.82172 0.64756 0.0
H862 H 0.65588 0.81896 0.64166 0.0
H863 H 0.65556 0.79635 0.65073 0.0
H864 H 0.62675 0.7982 0.66637 0.0
H865 H 0.627 0.8208 0.65738 0.0
H866 H 0.63405 0.82485 0.67391 0.0
H867 H 0.71908 0.89173 0.67809 0.0
H868 H 0.71188 0.91685 0.66426 0.0
H869 H 0.65538 0.85766 0.64662 0.0
C870 C 0.66871 0.80188 0.67846 0.0
C871 C 0.68186 0.80213 0.68895 0.0
C872 C 0.69999 0.82323 0.69332 0.0
C873 C 0.70479 0.84368 0.68744 0.0
C874 C 0.69136 0.84277 0.67717 0.0
C875 C 0.67374 0.82237 0.67271 0.0
C876 C 0.66122 0.82596 0.66188 0.0
C877 C 0.66393 0.8151 0.64974 0.0
C878 C 0.63575 0.81692 0.66508 0.0
C879 C 0.67418 0.8516 0.66107 0.0
C880 C 0.69165 0.86103 0.66988 0.0
C881 C 0.70549 0.88449 0.67113 0.0
C882 C 0.70117 0.89862 0.66327 0.0
C883 C 0.68307 0.8893 0.6543 0.0
C884 C 0.66963 0.86542 0.65317 0.0
H885 H 0.89163 0.67374 0.00612 0.0
H886 H 0.87157 0.67912 0.04432 0.0
H887 H 0.84137 0.68612 0.03601 0.0
H888 H 0.87733 0.7161 0.99207 0.0
H889 H 0.86689 0.69989 0.97772 0.0
H890 H 0.88963 0.69926 0.9865 0.0
H891 H 0.86569 0.65534 0.98758 0.0
H892 H 0.84293 0.65581 0.97884 0.0
H893 H 0.83704 0.64218 0.99399 0.0
H894 H 0.81088 0.68852 0.02391 0.0
H895 H 0.78107 0.68441 0.00893 0.0
H896 H 0.81864 0.67465 0.97847 0.0
C897 C 0.88108 0.67662 0.01277 0.0
C898 C 0.88427 0.676 0.02594 0.0
C899 C 0.87003 0.68002 0.03422 0.0
C900 C 0.85267 0.68392 0.02959 0.0
C901 C 0.84969 0.68387 0.01662 0.0
C902 C 0.86353 0.68042 0.00831 0.0
C903 C 0.85547 0.67941 0.99484 0.0
C904 C 0.8734 0.69988 0.98734 0.0
C905 C 0.84995 0.65684 0.98844 0.0
C906 C 0.83399 0.68118 0.99697 0.0
C907 C 0.83147 0.6845 0.00958 0.0
C908 C 0.8127 0.68598 0.01401 0.0
C909 C 0.79572 0.6834 0.00541 0.0
C910 C 0.79721 0.67882 0.9925 0.0
C911 C 0.817 0.67832 0.98822 0.0
H912 H 0.22146 0.85248 0.34821 0.0
H913 H 0.19037 0.89132 0.36225 0.0
H914 H 0.15417 0.86503 0.35125 0.0
H915 H 0.19606 0.84156 0.31758 0.0
H916 H 0.19247 0.81339 0.31658 0.0
H917 H 0.21539 0.83485 0.32594 0.0
H918 H 0.20057 0.80845 0.3454 0.0
H919 H 0.17749 0.78695 0.33612 0.0
H920 H 0.17121 0.79733 0.35037 0.0
H921 H 0.12143 0.8345 0.33813 0.0
H922 H 0.09538 0.80288 0.32422 0.0
H923 H 0.14895 0.78533 0.3183 0.0
C924 C 0.20714 0.85564 0.34893 0.0
C925 C 0.20887 0.87408 0.35611 0.0
C926 C 0.18946 0.87721 0.35695 0.0
C927 C 0.16884 0.86242 0.35067 0.0
C928 C 0.16787 0.84453 0.34362 0.0
C929 C 0.18654 0.84113 0.34274 0.0
C930 C 0.18128 0.82087 0.33447 0.0
C931 C 0.19725 0.82811 0.32296 0.0
C932 C 0.18273 0.8023 0.34205 0.0
C933 C 0.15677 0.81343 0.33069 0.0
C934 C 0.14926 0.8272 0.33609 0.0
C935 C 0.1272 0.82366 0.33386 0.0
C936 C 0.11256 0.80569 0.32586 0.0
C937 C 0.12 0.79148 0.32009 0.0
C938 C 0.14245 0.7955 0.32267 0.0
H939 H 0.33043 0.19467 0.6961 0.0
H940 H 0.3412 0.24371 0.66694 0.0
H941 H 0.34031 0.2169 0.65086 0.0
H942 H 0.3651 0.17445 0.68343 0.0
H943 H 0.34656 0.14516 0.68766 0.0
H944 H 0.34627 0.16745 0.69681 0.0
H945 H 0.30237 0.14937 0.69316 0.0
H946 H 0.30253 0.12696 0.68401 0.0
H947 H 0.29123 0.14387 0.67731 0.0
H948 H 0.34072 0.18584 0.63808 0.0
H949 H 0.3434 0.15336 0.62959 0.0
H950 H 0.33073 0.1236 0.6669 0.0
C951 C 0.33215 0.19965 0.68631 0.0
C952 C 0.33598 0.22144 0.68283 0.0
C953 C 0.3386 0.22733 0.66991 0.0
C954 C 0.3379 0.2121 0.66068 0.0
C955 C 0.33436 0.19093 0.66446 0.0
C956 C 0.33141 0.18463 0.67696 0.0
C957 C 0.32883 0.16121 0.67856 0.0
C958 C 0.34782 0.16214 0.68712 0.0
C959 C 0.30481 0.14435 0.68356 0.0
C960 C 0.33168 0.15571 0.66506 0.0
C961 C 0.33448 0.17293 0.65706 0.0
C962 C 0.33825 0.17211 0.64423 0.0
C963 C 0.33957 0.15343 0.63947 0.0
C964 C 0.33719 0.13569 0.6475 0.0
C965 C 0.33281 0.13684 0.66046 0.0
loop_
_geom_bond_atom_site_label_1
_geom_bond_atom_site_label_2
_geom_bond_distance
_geom_bond_site_symmetry_2
_ccdc_geom_bond_type
C0 C1 1.264 1_455 S
C0 C5 1.479 . S
C0 C10 1.465 . S
C1 C0 1.264 1_655 S
C1 C3 1.339 . S
C1 H28 0.931 . S
C2 C3 1.395 . S
C2 C4 1.320 . S
C3 C1 1.339 . S
C3 C2 1.395 . S
C3 H29 0.929 . S
C4 C2 1.320 . S
C4 C5 1.405 1_655 S
C4 H30 0.930 . S
C5 C0 1.479 . S
C5 C4 1.405 1_455 S
C5 H31 0.931 . S
U6 O7 2.454 . S
U6 O8 2.458 . S
U6 C9 2.984 . S
U6 C10 2.847 . S
U6 C23 2.882 . S
U6 O24 2.441 . S
U6 O25 2.420 . S
U6 O26 2.455 . S
U6 O27 2.449 . S
O7 U6 2.454 . S
O7 C9 1.353 . S
O8 U6 2.458 . S
O8 C9 1.286 . S
C9 U6 2.984 . S
C9 O7 1.353 . S
C9 O8 1.286 . S
C9 C11 1.363 . S
C10 C0 1.465 . S
C10 U6 2.847 . S
C10 O24 1.249 . S
C10 O25 1.202 . S
C11 C9 1.363 . S
C11 C13 1.408 . S
C11 C16 1.342 . S
C12 C13 1.310 . S
C12 C15 1.461 . S
C12 H32 0.932 . S
C13 C11 1.408 . S
C13 C12 1.310 . S
C13 H33 0.930 . S
C14 C15 1.474 . S
C14 C16 1.285 . S
C14 H34 0.929 . S
C15 C12 1.461 . S
C15 C14 1.474 . S
C16 C11 1.342 . S
C16 C14 1.285 . S
C16 H35 0.930 . S
C17 C20 1.424 1_455 S
C17 C22 1.245 . S
C17 C23 1.428 . S
C18 C21 1.260 . S
C18 C22 1.477 1_655 S
C18 H36 0.932 1_655 S
C19 C20 1.384 . S
C19 C21 1.479 . S
C19 H37 0.929 . S
C20 C17 1.424 1_655 S
C20 C19 1.384 . S
C20 H38 0.928 . S
C21 C18 1.260 . S
C21 C19 1.479 . S
C22 C17 1.245 . S
C22 C18 1.477 1_455 S
C22 H39 0.932 . S
C23 U6 2.882 . S
C23 C17 1.428 . S
C23 O26 1.301 . S
C23 O27 1.282 . S
O24 U6 2.441 . S
O24 C10 1.249 . S
O25 U6 2.420 . S
O25 C10 1.202 . S
O26 U6 2.455 . S
O26 C23 1.301 . S
O27 U6 2.449 . S
O27 C23 1.282 . S
H28 C1 0.931 . S
H29 C3 0.929 . S
H30 C4 0.930 . S
H31 C5 0.931 . S
H32 C12 0.932 . S
H33 C13 0.930 . S
H34 C14 0.929 . S
H35 C16 0.930 . S
H36 C18 0.932 1_455 S
H37 C19 0.929 . S
H38 C20 0.928 . S
H39 C22 0.932 . S
C40 C41 1.271 . S
C40 C45 1.500 1_565 S
C40 C50 1.436 1_565 S
C41 C40 1.271 . S
C41 C43 1.339 . S
C41 H68 0.931 . S
C42 C43 1.395 . S
C42 C44 1.320 . S
C43 C41 1.339 . S
C43 C42 1.395 . S
C43 H69 0.929 . S
C44 C42 1.320 . S
C44 C45 1.405 1_565 S
C44 H70 0.930 . S
C45 C40 1.500 1_545 S
C45 C44 1.405 1_545 S
C45 H71 0.931 . S
U46 O47 2.454 . S
U46 O48 2.458 . S
U46 C49 2.984 . S
U46 C50 2.847 . S
U46 C63 2.882 . S
U46 O64 2.441 . S
U46 O65 2.420 . S
U46 O66 2.455 . S
U46 O67 2.449 . S
O47 U46 2.454 . S
O47 C49 1.353 . S
O48 U46 2.458 . S
O48 C49 1.286 . S
C49 U46 2.984 . S
C49 O47 1.353 . S
C49 O48 1.286 . S
C49 C51 1.363 . S
C50 C40 1.436 1_545 S
C50 U46 2.847 . S
C50 O64 1.249 . S
C50 O65 1.202 . S
C51 C49 1.363 . S
C51 C53 1.408 . S
C51 C56 1.342 . S
C52 C53 1.310 . S
C52 C55 1.461 . S
C52 H72 0.932 . S
C53 C51 1.408 . S
C53 C52 1.310 . S
C53 H73 0.930 . S
C54 C55 1.474 . S
C54 C56 1.285 . S
C54 H74 0.929 . S
C55 C52 1.461 . S
C55 C54 1.474 . S
C56 C51 1.342 . S
C56 C54 1.285 . S
C56 H75 0.930 . S
C57 C60 1.426 . S
C57 C62 1.244 1_565 S
C57 C63 1.428 1_565 S
C58 C61 1.260 . S
C58 C62 1.477 1_565 S
C58 H76 0.932 . S
C59 C60 1.384 . S
C59 C61 1.479 . S
C59 H77 0.929 . S
C60 C57 1.426 . S
C60 C59 1.384 . S
C60 H78 0.928 . S
C61 C58 1.260 . S
C61 C59 1.479 . S
C62 C57 1.244 1_545 S
C62 C58 1.477 1_545 S
C62 H79 0.932 . S
C63 U46 2.882 . S
C63 C57 1.428 1_545 S
C63 O66 1.301 . S
C63 O67 1.282 . S
O64 U46 2.441 . S
O64 C50 1.249 . S
O65 U46 2.420 . S
O65 C50 1.202 . S
O66 U46 2.455 . S
O66 C63 1.301 . S
O67 U46 2.449 . S
O67 C63 1.282 . S
H68 C41 0.931 . S
H69 C43 0.929 . S
H70 C44 0.930 . S
H71 C45 0.931 . S
H72 C52 0.932 . S
H73 C53 0.930 . S
H74 C54 0.929 . S
H75 C56 0.930 . S
H76 C58 0.932 . S
H77 C59 0.929 . S
H78 C60 0.928 . S
H79 C62 0.932 . S
C80 C81 1.264 . S
C80 C85 1.479 . S
C80 C90 1.465 . S
C81 C80 1.264 . S
C81 C83 1.339 . S
C81 H108 0.931 . S
C82 C83 1.395 . S
C82 C84 1.320 . S
C83 C81 1.339 . S
C83 C82 1.395 . S
C83 H109 0.929 . S
C84 C82 1.320 . S
C84 C85 1.405 . S
C84 H110 0.930 . S
C85 C80 1.479 . S
C85 C84 1.405 . S
C85 H111 0.931 . S
U86 O87 2.454 . S
U86 O88 2.458 . S
U86 C89 2.984 . S
U86 C90 2.847 . S
U86 C103 2.882 . S
U86 O104 2.441 . S
U86 O105 2.420 . S
U86 O106 2.455 . S
U86 O107 2.449 . S
O87 U86 2.454 . S
O87 C89 1.353 . S
O88 U86 2.458 . S
O88 C89 1.286 . S
C89 U86 2.984 . S
C89 O87 1.353 . S
C89 O88 1.286 . S
C89 C91 1.363 . S
C90 C80 1.465 . S
C90 U86 2.847 . S
C90 O104 1.249 . S
C90 O105 1.202 . S
C91 C89 1.363 . S
C91 C93 1.408 . S
C91 C96 1.342 . S
C92 C93 1.310 . S
C92 C95 1.461 . S
C92 H112 0.932 . S
C93 C91 1.408 . S
C93 C92 1.310 . S
C93 H113 0.930 . S
C94 C95 1.474 . S
C94 C96 1.285 . S
C94 H114 0.929 . S
C95 C92 1.461 . S
C95 C94 1.474 . S
C96 C91 1.342 . S
C96 C94 1.285 . S
C96 H115 0.930 . S
C97 C100 1.424 . S
C97 C102 1.245 . S
C97 C103 1.428 . S
C98 C101 1.260 . S
C98 C102 1.477 . S
C98 H116 0.932 . S
C99 C100 1.384 . S
C99 C101 1.479 . S
C99 H117 0.929 . S
C100 C97 1.424 . S
C100 C99 1.384 . S
C100 H118 0.928 . S
C101 C98 1.260 . S
C101 C99 1.479 . S
C102 C97 1.245 . S
C102 C98 1.477 . S
C102 H119 0.932 . S
C103 U86 2.882 . S
C103 C97 1.428 . S
C103 O106 1.301 . S
C103 O107 1.282 . S
O104 U86 2.441 . S
O104 C90 1.249 . S
O105 U86 2.420 . S
O105 C90 1.202 . S
O106 U86 2.455 . S
O106 C103 1.301 . S
O107 U86 2.449 . S
O107 C103 1.282 . S
H108 C81 0.931 . S
H109 C83 0.929 . S
H110 C84 0.930 . S
H111 C85 0.931 . S
H112 C92 0.932 . S
H113 C93 0.930 . S
H114 C94 0.929 . S
H115 C96 0.930 . S
H116 C98 0.932 . S
H117 C99 0.929 . S
H118 C100 0.928 . S
H119 C102 0.932 . S
C120 C121 1.264 . S
C120 C125 1.479 . S
C120 C130 1.465 1_455 S
C121 C120 1.264 . S
C121 C123 1.339 . S
C121 H148 0.931 . S
C122 C123 1.395 . S
C122 C124 1.320 . S
C123 C121 1.339 . S
C123 C122 1.395 . S
C123 H149 0.929 . S
C124 C122 1.320 . S
C124 C125 1.405 . S
C124 H150 0.930 . S
C125 C120 1.479 . S
C125 C124 1.405 . S
C125 H151 0.931 1_455 S
U126 O127 2.454 . S
U126 O128 2.458 . S
U126 C129 2.984 . S
U126 C130 2.847 . S
U126 C143 2.882 . S
U126 O144 2.441 . S
U126 O145 2.420 . S
U126 O146 2.455 . S
U126 O147 2.449 . S
O127 U126 2.454 . S
O127 C129 1.353 . S
O128 U126 2.458 . S
O128 C129 1.286 . S
C129 U126 2.984 . S
C129 O127 1.353 . S
C129 O128 1.286 . S
C129 C131 1.363 . S
C130 C120 1.465 1_655 S
C130 U126 2.847 . S
C130 O144 1.249 . S
C130 O145 1.202 . S
C131 C129 1.363 . S
C131 C133 1.408 . S
C131 C136 1.342 . S
C132 C133 1.310 . S
C132 C135 1.461 . S
C132 H152 0.932 . S
C133 C131 1.408 . S
C133 C132 1.310 . S
C133 H153 0.930 . S
C134 C135 1.474 . S
C134 C136 1.285 . S
C134 H154 0.929 . S
C135 C132 1.461 . S
C135 C134 1.474 . S
C136 C131 1.342 . S
C136 C134 1.285 . S
C136 H155 0.930 . S
C137 C140 1.424 . S
C137 C142 1.245 . S
C137 C143 1.428 1_455 S
C138 C141 1.260 . S
C138 C142 1.477 . S
C138 H156 0.932 . S
C139 C140 1.384 . S
C139 C141 1.479 . S
C139 H157 0.929 . S
C140 C137 1.424 . S
C140 C139 1.384 . S
C140 H158 0.928 . S
C141 C138 1.260 . S
C141 C139 1.479 . S
C142 C137 1.245 . S
C142 C138 1.477 . S
C142 H159 0.932 1_455 S
C143 U126 2.882 . S
C143 C137 1.428 1_655 S
C143 O146 1.301 . S
C143 O147 1.282 . S
O144 U126 2.441 . S
O144 C130 1.249 . S
O145 U126 2.420 . S
O145 C130 1.202 . S
O146 U126 2.455 . S
O146 C143 1.301 . S
O147 U126 2.449 . S
O147 C143 1.282 . S
H148 C121 0.931 . S
H149 C123 0.929 . S
H150 C124 0.930 . S
H151 C125 0.931 1_655 S
H152 C132 0.932 . S
H153 C133 0.930 . S
H154 C134 0.929 . S
H155 C136 0.930 . S
H156 C138 0.932 . S
H157 C139 0.929 . S
H158 C140 0.928 . S
H159 C142 0.932 1_655 S
C160 C161 1.264 . S
C160 C165 1.479 1_545 S
C160 C170 1.465 1_545 S
C161 C160 1.264 . S
C161 C163 1.339 . S
C161 H188 0.931 . S
C162 C163 1.395 . S
C162 C164 1.320 . S
C163 C161 1.339 . S
C163 C162 1.395 . S
C163 H189 0.929 . S
C164 C162 1.320 . S
C164 C165 1.405 1_545 S
C164 H190 0.930 . S
C165 C160 1.479 1_565 S
C165 C164 1.405 1_565 S
C165 H191 0.931 . S
U166 O167 2.454 . S
U166 O168 2.458 . S
U166 C169 2.984 . S
U166 C170 2.847 . S
U166 C183 2.882 . S
U166 O184 2.441 . S
U166 O185 2.420 . S
U166 O186 2.455 . S
U166 O187 2.449 . S
O167 U166 2.454 . S
O167 C169 1.353 . S
O168 U166 2.458 . S
O168 C169 1.286 . S
C169 U166 2.984 . S
C169 O167 1.353 . S
C169 O168 1.286 . S
C169 C171 1.363 . S
C170 C160 1.465 1_565 S
C170 U166 2.847 . S
C170 O184 1.249 . S
C170 O185 1.202 . S
C171 C169 1.363 . S
C171 C173 1.408 . S
C171 C176 1.342 . S
C172 C173 1.310 . S
C172 C175 1.461 . S
C172 H192 0.932 . S
C173 C171 1.408 . S
C173 C172 1.310 . S
C173 H193 0.930 . S
C174 C175 1.474 . S
C174 C176 1.285 . S
C174 H194 0.929 . S
C175 C172 1.461 . S
C175 C174 1.474 . S
C176 C171 1.342 . S
C176 C174 1.285 . S
C176 H195 0.930 . S
C177 C180 1.424 1_565 S
C177 C182 1.245 . S
C177 C183 1.428 . S
C178 C181 1.260 . S
C178 C182 1.477 1_545 S
C178 H196 0.952 . S
C179 C180 1.384 . S
C179 C181 1.479 . S
C179 H197 0.929 . S
C180 C177 1.424 1_545 S
C180 C179 1.384 . S
C180 H198 0.928 . S
C181 C178 1.260 . S
C181 C179 1.479 . S
C182 C177 1.245 . S
C182 C178 1.477 1_565 S
C182 H199 0.932 . S
C183 U166 2.882 . S
C183 C177 1.428 . S
C183 O186 1.301 . S
C183 O187 1.282 . S
O184 U166 2.441 . S
O184 C170 1.249 . S
O185 U166 2.420 . S
O185 C170 1.202 . S
O186 U166 2.455 . S
O186 C183 1.301 . S
O187 U166 2.449 . S
O187 C183 1.282 . S
H188 C161 0.931 . S
H189 C163 0.929 . S
H190 C164 0.930 . S
H191 C165 0.931 . S
H192 C172 0.932 . S
H193 C173 0.930 . S
H194 C174 0.929 . S
H195 C176 0.930 . S
H196 C178 0.952 . S
H197 C179 0.929 . S
H198 C180 0.928 . S
H199 C182 0.932 . S
C200 C201 1.264 . S
C200 C205 1.479 . S
C200 C210 1.465 . S
C201 C200 1.264 . S
C201 C203 1.339 . S
C201 H228 0.931 . S
C202 C203 1.395 . S
C202 C204 1.320 . S
C203 C201 1.339 . S
C203 C202 1.395 . S
C203 H229 0.929 . S
C204 C202 1.320 . S
C204 C205 1.405 . S
C204 H230 0.930 . S
C205 C200 1.479 . S
C205 C204 1.405 . S
C205 H231 0.931 . S
U206 O207 2.454 . S
U206 O208 2.458 . S
U206 C209 2.984 . S
U206 C210 2.847 . S
U206 C223 2.882 . S
U206 O224 2.441 . S
U206 O225 2.420 . S
U206 O226 2.455 . S
U206 O227 2.449 . S
O207 U206 2.454 . S
O207 C209 1.353 . S
O208 U206 2.458 . S
O208 C209 1.286 . S
C209 U206 2.984 . S
C209 O207 1.353 . S
C209 O208 1.286 . S
C209 C211 1.363 . S
C210 C200 1.465 . S
C210 U206 2.847 . S
C210 O224 1.249 . S
C210 O225 1.202 . S
C211 C209 1.363 . S
C211 C213 1.408 . S
C211 C216 1.342 . S
C212 C213 1.310 . S
C212 C215 1.461 . S
C212 H232 0.932 . S
C213 C211 1.408 . S
C213 C212 1.310 . S
C213 H233 0.930 . S
C214 C215 1.474 . S
C214 C216 1.285 . S
C214 H234 0.929 . S
C215 C212 1.461 . S
C215 C214 1.474 . S
C216 C211 1.342 . S
C216 C214 1.285 . S
C216 H235 0.930 . S
C217 C220 1.424 . S
C217 C222 1.245 . S
C217 C223 1.428 . S
C218 C221 1.260 . S
C218 C222 1.477 . S
C218 H236 0.932 . S
C219 C220 1.384 . S
C219 C221 1.479 . S
C219 H237 0.929 . S
C220 C217 1.424 . S
C220 C219 1.384 . S
C220 H238 0.928 . S
C221 C218 1.260 . S
C221 C219 1.479 . S
C222 C217 1.245 . S
C222 C218 1.477 . S
C222 H239 0.932 . S
C223 U206 2.882 . S
C223 C217 1.428 . S
C223 O226 1.301 . S
C223 O227 1.282 . S
O224 U206 2.441 . S
O224 C210 1.249 . S
O225 U206 2.420 . S
O225 C210 1.202 . S
O226 U206 2.455 . S
O226 C223 1.301 . S
O227 U206 2.449 . S
O227 C223 1.282 . S
H228 C201 0.931 . S
H229 C203 0.929 . S
H230 C204 0.930 . S
H231 C205 0.931 . S
H232 C212 0.932 . S
H233 C213 0.930 . S
H234 C214 0.929 . S
H235 C216 0.930 . S
H236 C218 0.932 . S
H237 C219 0.929 . S
H238 C220 0.928 . S
H239 C222 0.932 . S
C240 C241 1.264 . S
C240 C245 1.496 . S
C240 C250 1.465 1_545 S
C241 C240 1.264 . S
C241 C243 1.339 . S
C241 H268 0.931 . S
C242 C243 1.395 . S
C242 C244 1.320 . S
C243 C241 1.339 . S
C243 C242 1.395 . S
C243 H269 0.929 . S
C244 C242 1.320 . S
C244 C245 1.413 . S
C244 H270 0.930 . S
C245 C240 1.496 . S
C245 C244 1.413 . S
C245 H271 0.908 1_545 S
U246 O247 2.454 . S
U246 O248 2.458 . S
U246 C249 2.984 . S
U246 C250 2.847 . S
U246 C263 2.882 . S
U246 O264 2.441 . S
U246 O265 2.420 . S
U246 O266 2.455 . S
U246 O267 2.449 . S
O247 U246 2.454 . S
O247 C249 1.353 . S
O248 U246 2.458 . S
O248 C249 1.286 . S
C249 U246 2.984 . S
C249 O247 1.353 . S
C249 O248 1.286 . S
C249 C251 1.363 . S
C250 C240 1.465 1_565 S
C250 U246 2.847 . S
C250 O264 1.249 . S
C250 O265 1.202 . S
C251 C249 1.363 . S
C251 C253 1.408 . S
C251 C256 1.342 . S
C252 C253 1.310 . S
C252 C255 1.461 . S
C252 H272 0.932 . S
C253 C251 1.408 . S
C253 C252 1.310 . S
C253 H273 0.930 . S
C254 C255 1.474 . S
C254 C256 1.285 . S
C254 H274 0.929 . S
C255 C252 1.461 . S
C255 C254 1.474 . S
C256 C251 1.342 . S
C256 C254 1.285 . S
C256 H275 0.930 . S
C257 C260 1.424 . S
C257 C262 1.245 . S
C257 C263 1.428 1_545 S
C258 C261 1.260 . S
C258 C262 1.477 . S
C258 H276 0.932 . S
C259 C260 1.384 . S
C259 C261 1.479 . S
C259 H277 0.929 . S
C260 C257 1.424 . S
C260 C259 1.384 . S
C260 H278 0.928 . S
C261 C258 1.260 . S
C261 C259 1.479 . S
C262 C257 1.245 . S
C262 C258 1.477 . S
C262 H279 0.932 1_545 S
C263 U246 2.882 . S
C263 C257 1.428 1_565 S
C263 O266 1.301 . S
C263 O267 1.282 . S
O264 U246 2.441 . S
O264 C250 1.249 . S
O265 U246 2.420 . S
O265 C250 1.202 . S
O266 U246 2.455 . S
O266 C263 1.301 . S
O267 U246 2.449 . S
O267 C263 1.282 . S
H268 C241 0.931 . S
H269 C243 0.929 . S
H270 C244 0.930 . S
H271 C245 0.908 1_565 S
H272 C252 0.932 . S
H273 C253 0.930 . S
H274 C254 0.929 . S
H275 C256 0.930 . S
H276 C258 0.932 . S
H277 C259 0.929 . S
H278 C260 0.928 . S
H279 C262 0.932 1_565 S
C280 C281 1.264 . S
C280 C285 1.479 . S
C280 C290 1.465 . S
C281 C280 1.264 . S
C281 C283 1.339 . S
C281 H308 0.931 . S
C282 C283 1.395 . S
C282 C284 1.320 . S
C283 C281 1.339 . S
C283 C282 1.395 . S
C283 H309 0.929 . S
C284 C282 1.320 . S
C284 C285 1.405 . S
C284 H310 0.930 . S
C285 C280 1.479 . S
C285 C284 1.405 . S
C285 H311 0.931 . S
U286 O287 2.454 . S
U286 O288 2.458 . S
U286 C289 2.984 . S
U286 C290 2.847 . S
U286 C303 2.882 . S
U286 O304 2.441 . S
U286 O305 2.420 . S
U286 O306 2.455 . S
U286 O307 2.449 . S
O287 U286 2.454 . S
O287 C289 1.353 . S
O288 U286 2.458 . S
O288 C289 1.286 . S
C289 U286 2.984 . S
C289 O287 1.353 . S
C289 O288 1.286 . S
C289 C291 1.363 . S
C290 C280 1.465 . S
C290 U286 2.847 . S
C290 O304 1.249 . S
C290 O305 1.202 . S
C291 C289 1.363 . S
C291 C293 1.408 . S
C291 C296 1.342 . S
C292 C293 1.310 . S
C292 C295 1.461 . S
C292 H312 0.932 . S
C293 C291 1.408 . S
C293 C292 1.310 . S
C293 H313 0.930 . S
C294 C295 1.474 . S
C294 C296 1.285 . S
C294 H314 0.929 . S
C295 C292 1.461 . S
C295 C294 1.474 . S
C296 C291 1.342 . S
C296 C294 1.285 . S
C296 H315 0.930 . S
C297 C300 1.424 . S
C297 C302 1.245 . S
C297 C303 1.428 . S
C298 C301 1.260 . S
C298 C302 1.477 . S
C298 H316 0.932 . S
C299 C300 1.384 . S
C299 C301 1.479 . S
C299 H317 0.929 . S
C300 C297 1.424 . S
C300 C299 1.384 . S
C300 H318 0.928 . S
C301 C298 1.260 . S
C301 C299 1.479 . S
C302 C297 1.245 . S
C302 C298 1.477 . S
C302 H319 0.932 . S
C303 U286 2.882 . S
C303 C297 1.428 . S
C303 O306 1.301 . S
C303 O307 1.282 . S
O304 U286 2.441 . S
O304 C290 1.249 . S
O305 U286 2.420 . S
O305 C290 1.202 . S
O306 U286 2.455 . S
O306 C303 1.301 . S
O307 U286 2.449 . S
O307 C303 1.282 . S
H308 C281 0.931 . S
H309 C283 0.929 . S
H310 C284 0.930 . S
H311 C285 0.931 . S
H312 C292 0.932 . S
H313 C293 0.930 . S
H314 C294 0.929 . S
H315 C296 0.930 . S
H316 C298 0.932 . S
H317 C299 0.929 . S
H318 C300 0.928 . S
H319 C302 0.932 . S
C320 C321 1.264 . S
C320 C325 1.479 . S
C320 C330 1.465 . S
C321 C320 1.264 . S
C321 C323 1.339 . S
C321 H348 0.931 . S
C322 C323 1.395 . S
C322 C324 1.320 . S
C323 C321 1.339 . S
C323 C322 1.395 . S
C323 H349 0.929 . S
C324 C322 1.320 . S
C324 C325 1.405 . S
C324 H350 0.930 . S
C325 C320 1.479 . S
C325 C324 1.405 . S
C325 H351 0.931 . S
U326 O327 2.454 1_655 S
U326 O328 2.458 1_655 S
U326 C329 2.984 1_655 S
U326 C330 2.847 . S
U326 C343 2.882 . S
U326 O344 2.441 . S
U326 O345 2.420 . S
U326 O346 2.455 . S
U326 O347 2.449 . S
O327 U326 2.454 1_455 S
O327 C329 1.353 . S
O328 U326 2.458 1_455 S
O328 C329 1.286 . S
C329 U326 2.984 1_455 S
C329 O327 1.353 . S
C329 O328 1.286 . S
C329 C331 1.363 . S
C330 C320 1.465 . S
C330 U326 2.847 . S
C330 O344 1.249 . S
C330 O345 1.202 . S
C331 C329 1.363 . S
C331 C333 1.408 . S
C331 C336 1.342 . S
C332 C333 1.310 . S
C332 C335 1.461 . S
C332 H352 0.932 . S
C333 C331 1.408 . S
C333 C332 1.310 . S
C333 H353 0.930 . S
C334 C335 1.474 . S
C334 C336 1.285 . S
C334 H354 0.929 . S
C335 C332 1.461 . S
C335 C334 1.474 . S
C336 C331 1.342 . S
C336 C334 1.285 . S
C336 H355 0.930 . S
C337 C340 1.424 . S
C337 C342 1.245 . S
C337 C343 1.428 . S
C338 C341 1.260 . S
C338 C342 1.477 . S
C338 H356 0.932 . S
C339 C340 1.384 . S
C339 C341 1.479 . S
C339 H357 0.929 . S
C340 C337 1.424 . S
C340 C339 1.384 . S
C340 H358 0.928 . S
C341 C338 1.260 . S
C341 C339 1.479 . S
C342 C337 1.245 . S
C342 C338 1.477 . S
C342 H359 0.932 . S
C343 U326 2.882 . S
C343 C337 1.428 . S
C343 O346 1.301 . S
C343 O347 1.282 . S
O344 U326 2.441 . S
O344 C330 1.249 . S
O345 U326 2.420 . S
O345 C330 1.202 . S
O346 U326 2.455 . S
O346 C343 1.301 . S
O347 U326 2.449 . S
O347 C343 1.282 . S
H348 C321 0.931 . S
H349 C323 0.929 . S
H350 C324 0.930 . S
H351 C325 0.931 . S
H352 C332 0.932 . S
H353 C333 0.930 . S
H354 C334 0.929 . S
H355 C336 0.930 . S
H356 C338 0.932 . S
H357 C339 0.929 . S
H358 C340 0.928 . S
H359 C342 0.932 . S
C360 C361 1.264 1_545 S
C360 C365 1.479 . S
C360 C370 1.465 . S
C361 C360 1.264 1_565 S
C361 C363 1.339 . S
C361 H388 0.931 . S
C362 C363 1.395 . S
C362 C364 1.320 . S
C363 C361 1.339 . S
C363 C362 1.395 . S
C363 H389 0.929 . S
C364 C362 1.320 . S
C364 C365 1.405 1_565 S
C364 H390 0.930 . S
C365 C360 1.479 . S
C365 C364 1.405 1_545 S
C365 H391 0.931 . S
U366 O367 2.454 . S
U366 O368 2.458 . S
U366 C369 2.984 . S
U366 C370 2.847 . S
U366 C383 2.882 . S
U366 O384 2.441 . S
U366 O385 2.420 . S
U366 O386 2.455 . S
U366 O387 2.449 . S
O367 U366 2.454 . S
O367 C369 1.353 . S
O368 U366 2.458 . S
O368 C369 1.286 . S
C369 U366 2.984 . S
C369 O367 1.353 . S
C369 O368 1.286 . S
C369 C371 1.363 . S
C370 C360 1.465 . S
C370 U366 2.847 . S
C370 O384 1.249 . S
C370 O385 1.202 . S
C371 C369 1.363 . S
C371 C373 1.408 . S
C371 C376 1.342 . S
C372 C373 1.310 . S
C372 C375 1.461 . S
C372 H392 0.932 . S
C373 C371 1.408 . S
C373 C372 1.310 . S
C373 H393 0.930 . S
C374 C375 1.474 . S
C374 C376 1.285 . S
C374 H394 0.929 . S
C375 C372 1.461 . S
C375 C374 1.474 . S
C376 C371 1.342 . S
C376 C374 1.285 . S
C376 H395 0.930 . S
C377 C380 1.424 1_545 S
C377 C382 1.245 . S
C377 C383 1.428 . S
C378 C381 1.260 . S
C378 C382 1.477 1_565 S
C378 H396 0.932 1_565 S
C379 C380 1.384 . S
C379 C381 1.479 . S
C379 H397 0.929 . S
C380 C377 1.424 1_565 S
C380 C379 1.384 . S
C380 H398 0.928 . S
C381 C378 1.260 . S
C381 C379 1.479 . S
C382 C377 1.245 . S
C382 C378 1.477 1_545 S
C382 H399 0.932 . S
C383 U366 2.882 . S
C383 C377 1.428 . S
C383 O386 1.301 . S
C383 O387 1.282 . S
O384 U366 2.441 . S
O384 C370 1.249 . S
O385 U366 2.420 . S
O385 C370 1.202 . S
O386 U366 2.455 . S
O386 C383 1.301 . S
O387 U366 2.449 . S
O387 C383 1.282 . S
H388 C361 0.931 . S
H389 C363 0.929 . S
H390 C364 0.930 . S
H391 C365 0.931 . S
H392 C372 0.932 . S
H393 C373 0.930 . S
H394 C374 0.929 . S
H395 C376 0.930 . S
H396 C378 0.932 1_545 S
H397 C379 0.929 . S
H398 C380 0.928 . S
H399 C382 0.932 . S
C400 C401 1.264 . S
C400 C405 1.479 . S
C400 C410 1.465 . S
C401 C400 1.264 . S
C401 C403 1.339 . S
C401 H428 0.931 . S
C402 C403 1.395 . S
C402 C404 1.320 . S
C403 C401 1.339 . S
C403 C402 1.395 . S
C403 H429 0.929 . S
C404 C402 1.320 . S
C404 C405 1.405 . S
C404 H430 0.930 . S
C405 C400 1.479 . S
C405 C404 1.405 . S
C405 H431 0.931 . S
U406 O407 2.454 . S
U406 O408 2.458 . S
U406 C409 2.984 . S
U406 C410 2.847 . S
U406 C423 2.882 . S
U406 O424 2.441 . S
U406 O425 2.420 . S
U406 O426 2.455 . S
U406 O427 2.449 . S
O407 U406 2.454 . S
O407 C409 1.353 . S
O408 U406 2.458 . S
O408 C409 1.286 . S
C409 U406 2.984 . S
C409 O407 1.353 . S
C409 O408 1.286 . S
C409 C411 1.363 . S
C410 C400 1.465 . S
C410 U406 2.847 . S
C410 O424 1.249 . S
C410 O425 1.202 . S
C411 C409 1.363 . S
C411 C413 1.408 . S
C411 C416 1.342 . S
C412 C413 1.310 . S
C412 C415 1.461 . S
C412 H432 0.932 . S
C413 C411 1.408 . S
C413 C412 1.310 . S
C413 H433 0.930 . S
C414 C415 1.474 . S
C414 C416 1.285 . S
C414 H434 0.929 . S
C415 C412 1.461 . S
C415 C414 1.474 . S
C416 C411 1.342 . S
C416 C414 1.285 . S
C416 H435 0.930 . S
C417 C420 1.424 . S
C417 C422 1.245 . S
C417 C423 1.428 . S
C418 C421 1.260 . S
C418 C422 1.477 . S
C418 H436 0.932 . S
C419 C420 1.384 . S
C419 C421 1.479 . S
C419 H437 0.929 . S
C420 C417 1.424 . S
C420 C419 1.384 . S
C420 H438 0.928 . S
C421 C418 1.260 . S
C421 C419 1.479 . S
C422 C417 1.245 . S
C422 C418 1.477 . S
C422 H439 0.932 . S
C423 U406 2.882 . S
C423 C417 1.428 . S
C423 O426 1.301 . S
C423 O427 1.282 . S
O424 U406 2.441 . S
O424 C410 1.249 . S
O425 U406 2.420 . S
O425 C410 1.202 . S
O426 U406 2.455 . S
O426 C423 1.301 . S
O427 U406 2.449 . S
O427 C423 1.282 . S
H428 C401 0.931 . S
H429 C403 0.929 . S
H430 C404 0.930 . S
H431 C405 0.931 . S
H432 C412 0.932 . S
H433 C413 0.930 . S
H434 C414 0.929 . S
H435 C416 0.930 . S
H436 C418 0.932 . S
H437 C419 0.929 . S
H438 C420 0.928 . S
H439 C422 0.932 . S
C440 C441 1.264 . S
C440 C445 1.469 . S
C440 C450 1.465 1_455 S
C441 C440 1.264 . S
C441 C443 1.339 . S
C441 H468 0.931 . S
C442 C443 1.395 . S
C442 C444 1.320 . S
C443 C441 1.339 . S
C443 C442 1.395 . S
C443 H469 0.929 . S
C444 C442 1.320 . S
C444 C445 1.421 . S
C444 H470 0.930 . S
C445 C440 1.469 . S
C445 C444 1.421 . S
C445 H471 0.926 1_455 S
U446 O447 2.454 . S
U446 O448 2.458 . S
U446 C449 2.984 . S
U446 C450 2.847 . S
U446 C463 2.882 . S
U446 O464 2.441 . S
U446 O465 2.420 . S
U446 O466 2.455 . S
U446 O467 2.449 . S
O447 U446 2.454 . S
O447 C449 1.353 . S
O448 U446 2.458 . S
O448 C449 1.286 . S
C449 U446 2.984 . S
C449 O447 1.353 . S
C449 O448 1.286 . S
C449 C451 1.363 . S
C450 C440 1.465 1_655 S
C450 U446 2.847 . S
C450 O464 1.249 . S
C450 O465 1.202 . S
C451 C449 1.363 . S
C451 C453 1.408 . S
C451 C456 1.342 . S
C452 C453 1.310 . S
C452 C455 1.461 . S
C452 H472 0.932 . S
C453 C451 1.408 . S
C453 C452 1.310 . S
C453 H473 0.930 . S
C454 C455 1.474 . S
C454 C456 1.285 . S
C454 H474 0.929 . S
C455 C452 1.461 . S
C455 C454 1.474 . S
C456 C451 1.342 . S
C456 C454 1.285 . S
C456 H475 0.930 . S
C457 C460 1.424 . S
C457 C462 1.236 1_455 S
C457 C463 1.428 1_455 S
C458 C461 1.260 . S
C458 C462 1.481 1_455 S
C458 H476 0.932 . S
C459 C460 1.384 . S
C459 C461 1.479 . S
C459 H477 0.929 . S
C460 C457 1.424 . S
C460 C459 1.384 . S
C460 H478 0.928 . S
C461 C458 1.260 . S
C461 C459 1.479 . S
C462 C457 1.236 1_655 S
C462 C458 1.481 1_655 S
C462 H479 0.938 . S
C463 U446 2.882 . S
C463 C457 1.428 1_655 S
C463 O466 1.301 . S
C463 O467 1.282 . S
O464 U446 2.441 . S
O464 C450 1.249 . S
O465 U446 2.420 . S
O465 C450 1.202 . S
O466 U446 2.455 . S
O466 C463 1.301 . S
O467 U446 2.449 . S
O467 C463 1.282 . S
H468 C441 0.931 . S
H469 C443 0.929 . S
H470 C444 0.930 . S
H471 C445 0.926 1_655 S
H472 C452 0.932 . S
H473 C453 0.930 . S
H474 C454 0.929 . S
H475 C456 0.930 . S
H476 C458 0.932 . S
H477 C459 0.929 . S
H478 C460 0.928 . S
H479 C462 0.938 . S
H480 C492 0.930 . S
H481 C494 0.930 . S
H482 C495 0.930 . S
H483 C499 0.959 . S
H484 C499 0.959 . S
H485 C499 0.961 . S
H486 C500 0.960 . S
H487 C500 0.961 1_655 S
H488 C500 0.959 . S
H489 C503 0.929 . S
H490 C504 0.931 . S
H491 C506 0.930 . S
C492 H480 0.930 . S
C492 C493 1.399 . S
C492 C497 1.399 . S
C493 C492 1.399 . S
C493 C494 1.376 . S
C494 H481 0.930 . S
C494 C493 1.376 . S
C494 C495 1.388 . S
C495 H482 0.930 . S
C495 C494 1.388 . S
C495 C496 1.390 . S
C496 C495 1.390 . S
C496 C497 1.394 . S
C496 C502 1.465 . S
C497 C492 1.399 . S
C497 C496 1.394 . S
C497 C498 1.516 1_455 S
C498 C497 1.516 1_655 S
C498 C499 1.502 . S
C498 C500 1.561 1_655 S
C498 C501 1.526 . S
C499 H483 0.959 . S
C499 H484 0.959 . S
C499 H485 0.961 . S
C499 C498 1.502 . S
C500 H486 0.960 . S
C500 H487 0.961 1_455 S
C500 H488 0.959 . S
C500 C498 1.561 1_455 S
C501 C498 1.526 . S
C501 C502 1.396 1_655 S
C501 C506 1.390 . S
C502 C496 1.465 . S
C502 C501 1.396 1_455 S
C502 C503 1.399 . S
C503 H489 0.929 . S
C503 C502 1.399 . S
C503 C504 1.385 . S
C504 H490 0.931 . S
C504 C503 1.385 . S
C504 C505 1.389 1_455 S
C505 C504 1.389 1_655 S
C505 C506 1.387 . S
C506 H491 0.930 . S
C506 C501 1.390 . S
C506 C505 1.387 . S
H507 C519 0.930 . S
H508 C521 0.930 . S
H509 C522 0.930 . S
H510 C526 0.959 . S
H511 C526 0.959 . S
H512 C526 0.961 . S
H513 C527 0.960 . S
H514 C527 0.961 . S
H515 C527 0.959 . S
H516 C530 0.929 . S
H517 C531 0.931 . S
H518 C533 0.930 . S
C519 H507 0.930 . S
C519 C520 1.399 . S
C519 C524 1.399 . S
C520 C519 1.399 . S
C520 C521 1.376 . S
C521 H508 0.930 . S
C521 C520 1.376 . S
C521 C522 1.388 1_565 S
C522 H509 0.930 . S
C522 C521 1.388 1_545 S
C522 C523 1.390 . S
C523 C522 1.390 . S
C523 C524 1.394 1_545 S
C523 C529 1.465 . S
C524 C519 1.399 . S
C524 C523 1.394 1_565 S
C524 C525 1.516 . S
C525 C524 1.516 . S
C525 C526 1.502 . S
C525 C527 1.561 1_565 S
C525 C528 1.526 1_565 S
C526 H510 0.959 . S
C526 H511 0.959 . S
C526 H512 0.961 . S
C526 C525 1.502 . S
C527 H513 0.960 . S
C527 H514 0.961 . S
C527 H515 0.959 . S
C527 C525 1.561 1_545 S
C528 C525 1.526 1_545 S
C528 C529 1.396 . S
C528 C533 1.390 . S
C529 C523 1.465 . S
C529 C528 1.396 . S
C529 C530 1.399 . S
C530 H516 0.929 . S
C530 C529 1.399 . S
C530 C531 1.385 . S
C531 H517 0.931 . S
C531 C530 1.385 . S
C531 C532 1.389 . S
C532 C531 1.389 . S
C532 C533 1.387 . S
C533 H518 0.930 . S
C533 C528 1.390 . S
C533 C532 1.387 . S
H534 C546 0.930 . S
H535 C548 0.930 . S
H536 C549 0.930 . S
H537 C553 0.959 . S
H538 C553 0.959 . S
H539 C553 0.961 . S
H540 C554 0.960 . S
H541 C554 0.961 . S
H542 C554 0.959 . S
H543 C557 0.929 . S
H544 C558 0.931 . S
H545 C560 0.930 . S
C546 H534 0.930 . S
C546 C547 1.399 . S
C546 C551 1.399 . S
C547 C546 1.399 . S
C547 C548 1.376 . S
C548 H535 0.930 . S
C548 C547 1.376 . S
C548 C549 1.388 . S
C549 H536 0.930 . S
C549 C548 1.388 . S
C549 C550 1.390 . S
C550 C549 1.390 . S
C550 C551 1.394 . S
C550 C556 1.465 . S
C551 C546 1.399 . S
C551 C550 1.394 . S
C551 C552 1.516 . S
C552 C551 1.516 . S
C552 C553 1.502 . S
C552 C554 1.561 . S
C552 C555 1.526 . S
C553 H537 0.959 . S
C553 H538 0.959 . S
C553 H539 0.961 . S
C553 C552 1.502 . S
C554 H540 0.960 . S
C554 H541 0.961 . S
C554 H542 0.959 . S
C554 C552 1.561 . S
C555 C552 1.526 . S
C555 C556 1.396 . S
C555 C560 1.390 . S
C556 C550 1.465 . S
C556 C555 1.396 . S
C556 C557 1.399 . S
C557 H543 0.929 . S
C557 C556 1.399 . S
C557 C558 1.385 . S
C558 H544 0.931 . S
C558 C557 1.385 . S
C558 C559 1.389 . S
C559 C558 1.389 . S
C559 C560 1.387 . S
C560 H545 0.930 . S
C560 C555 1.390 . S
C560 C559 1.387 . S
H561 C573 0.930 . S
H562 C575 0.930 . S
H563 C576 0.930 . S
H564 C580 0.959 . S
H565 C580 0.959 . S
H566 C580 0.961 . S
H567 C581 0.960 . S
H568 C581 0.952 . S
H569 C581 0.923 1_565 S
H570 C584 0.929 . S
H571 C585 0.931 . S
H572 C587 0.930 1_545 S
C573 H561 0.930 . S
C573 C574 1.399 . S
C573 C578 1.399 . S
C574 C573 1.399 . S
C574 C575 1.376 . S
C575 H562 0.930 . S
C575 C574 1.376 . S
C575 C576 1.388 1_545 S
C576 H563 0.930 . S
C576 C575 1.388 1_565 S
C576 C577 1.366 1_565 S
C577 C576 1.366 1_545 S
C577 C578 1.414 . S
C577 C583 1.476 1_545 S
C578 C573 1.399 . S
C578 C577 1.414 . S
C578 C579 1.516 . S
C579 C578 1.516 . S
C579 C580 1.502 . S
C579 C581 1.582 . S
C579 C582 1.526 . S
C580 H564 0.959 . S
C580 H565 0.959 . S
C580 H566 0.961 . S
C580 C579 1.502 . S
C581 H567 0.960 . S
C581 H568 0.952 . S
C581 H569 0.923 1_545 S
C581 C579 1.582 . S
C582 C579 1.526 . S
C582 C583 1.396 1_545 S
C582 C587 1.390 1_545 S
C583 C577 1.476 1_565 S
C583 C582 1.396 1_565 S
C583 C584 1.399 . S
C584 H570 0.929 . S
C584 C583 1.399 . S
C584 C585 1.385 . S
C585 H571 0.931 . S
C585 C584 1.385 . S
C585 C586 1.389 . S
C586 C585 1.389 . S
C586 C587 1.387 . S
C587 H572 0.930 1_565 S
C587 C582 1.390 1_565 S
C587 C586 1.387 . S
H588 C600 0.930 . S
H589 C602 0.930 . S
H590 C603 0.930 . S
H591 C607 0.959 . S
H592 C607 0.959 . S
H593 C607 0.961 . S
H594 C608 0.960 . S
H595 C608 0.961 . S
H596 C608 0.959 . S
H597 C611 0.929 . S
H598 C612 0.931 . S
H599 C614 0.930 . S
C600 H588 0.930 . S
C600 C601 1.399 . S
C600 C605 1.399 . S
C601 C600 1.399 . S
C601 C602 1.376 . S
C602 H589 0.930 . S
C602 C601 1.376 . S
C602 C603 1.388 . S
C603 H590 0.930 . S
C603 C602 1.388 . S
C603 C604 1.390 . S
C604 C603 1.390 . S
C604 C605 1.394 . S
C604 C610 1.465 . S
C605 C600 1.399 . S
C605 C604 1.394 . S
C605 C606 1.516 . S
C606 C605 1.516 . S
C606 C607 1.502 . S
C606 C608 1.561 . S
C606 C609 1.526 . S
C607 H591 0.959 . S
C607 H592 0.959 . S
C607 H593 0.961 . S
C607 C606 1.502 . S
C608 H594 0.960 . S
C608 H595 0.961 . S
C608 H596 0.959 . S
C608 C606 1.561 . S
C609 C606 1.526 . S
C609 C610 1.396 . S
C609 C614 1.390 . S
C610 C604 1.465 . S
C610 C609 1.396 . S
C610 C611 1.399 . S
C611 H597 0.929 . S
C611 C610 1.399 . S
C611 C612 1.385 . S
C612 H598 0.931 . S
C612 C611 1.385 . S
C612 C613 1.389 . S
C613 C612 1.389 . S
C613 C614 1.387 . S
C614 H599 0.930 . S
C614 C609 1.390 . S
C614 C613 1.387 . S
H615 C627 0.930 . S
H616 C629 0.930 . S
H617 C630 0.941 . S
H618 C634 0.959 . S
H619 C634 0.959 . S
H620 C634 0.961 . S
H621 C635 0.960 . S
H622 C635 0.961 . S
H623 C635 0.959 . S
H624 C638 0.929 . S
H625 C639 0.931 . S
H626 C641 0.930 . S
C627 H615 0.930 . S
C627 C628 1.399 . S
C627 C632 1.399 . S
C628 C627 1.399 . S
C628 C629 1.376 . S
C629 H616 0.930 . S
C629 C628 1.376 . S
C629 C630 1.366 1_655 S
C630 H617 0.941 . S
C630 C629 1.366 1_455 S
C630 C631 1.401 . S
C631 C630 1.401 . S
C631 C632 1.394 1_455 S
C631 C637 1.465 . S
C632 C627 1.399 . S
C632 C631 1.394 1_655 S
C632 C633 1.532 . S
C633 C632 1.532 . S
C633 C634 1.519 . S
C633 C635 1.546 1_655 S
C633 C636 1.507 1_655 S
C634 H618 0.959 . S
C634 H619 0.959 . S
C634 H620 0.961 . S
C634 C633 1.519 . S
C635 H621 0.960 . S
C635 H622 0.961 . S
C635 H623 0.959 . S
C635 C633 1.546 1_455 S
C636 C633 1.507 1_455 S
C636 C637 1.396 . S
C636 C641 1.390 . S
C637 C631 1.465 . S
C637 C636 1.396 . S
C637 C638 1.399 . S
C638 H624 0.929 . S
C638 C637 1.399 . S
C638 C639 1.385 . S
C639 H625 0.931 . S
C639 C638 1.385 . S
C639 C640 1.389 . S
C640 C639 1.389 . S
C640 C641 1.387 . S
C641 H626 0.930 . S
C641 C636 1.390 . S
C641 C640 1.387 . S
H642 C654 0.930 1_655 S
H643 C656 0.930 . S
H644 C657 0.930 . S
H645 C661 0.959 . S
H646 C661 0.959 . S
H647 C661 0.961 . S
H648 C662 0.960 . S
H649 C662 0.961 . S
H650 C662 0.959 . S
H651 C665 0.929 . S
H652 C666 0.931 . S
H653 C668 0.930 . S
C654 H642 0.930 1_455 S
C654 C655 1.399 . S
C654 C659 1.399 1_455 S
C655 C654 1.399 . S
C655 C656 1.376 . S
C656 H643 0.930 . S
C656 C655 1.376 . S
C656 C657 1.388 . S
C657 H644 0.930 . S
C657 C656 1.388 . S
C657 C658 1.390 . S
C658 C657 1.390 . S
C658 C659 1.394 1_455 S
C658 C664 1.465 . S
C659 C654 1.399 1_655 S
C659 C658 1.394 1_655 S
C659 C660 1.516 . S
C660 C659 1.516 . S
C660 C661 1.502 . S
C660 C662 1.561 . S
C660 C663 1.526 . S
C661 H645 0.959 . S
C661 H646 0.959 . S
C661 H647 0.961 . S
C661 C660 1.502 . S
C662 H648 0.960 . S
C662 H649 0.961 . S
C662 H650 0.959 . S
C662 C660 1.561 . S
C663 C660 1.526 . S
C663 C664 1.396 1_655 S
C663 C668 1.390 . S
C664 C658 1.465 . S
C664 C663 1.396 1_455 S
C664 C665 1.399 . S
C665 H651 0.929 . S
C665 C664 1.399 . S
C665 C666 1.385 . S
C666 H652 0.931 . S
C666 C665 1.385 . S
C666 C667 1.389 1_455 S
C667 C666 1.389 1_655 S
C667 C668 1.387 . S
C668 H653 0.930 . S
C668 C663 1.390 . S
C668 C667 1.387 . S
H669 C681 0.930 . S
H670 C683 0.931 . S
H671 C684 0.930 . S
H672 C688 0.959 . S
H673 C688 0.959 . S
H674 C688 0.961 . S
H675 C689 0.960 . S
H676 C689 0.961 . S
H677 C689 0.959 . S
H678 C692 0.929 . S
H679 C693 0.931 . S
H680 C695 0.930 1_565 S
C681 H669 0.930 . S
C681 C682 1.399 . S
C681 C686 1.399 . S
C682 C681 1.399 . S
C682 C683 1.363 1_565 S
C683 H670 0.931 . S
C683 C682 1.363 1_545 S
C683 C684 1.405 . S
C684 H671 0.930 . S
C684 C683 1.405 . S
C684 C685 1.390 . S
C685 C684 1.390 . S
C685 C686 1.394 1_545 S
C685 C691 1.465 . S
C686 C681 1.399 . S
C686 C685 1.394 1_565 S
C686 C687 1.516 . S
C687 C686 1.516 . S
C687 C688 1.502 . S
C687 C689 1.561 . S
C687 C690 1.539 . S
C688 H672 0.959 . S
C688 H673 0.959 . S
C688 H674 0.961 . S
C688 C687 1.502 . S
C689 H675 0.960 . S
C689 H676 0.961 . S
C689 H677 0.959 . S
C689 C687 1.561 . S
C690 C687 1.539 . S
C690 C691 1.392 1_565 S
C690 C695 1.382 1_565 S
C691 C685 1.465 . S
C691 C690 1.392 1_545 S
C691 C692 1.399 . S
C692 H678 0.929 . S
C692 C691 1.399 . S
C692 C693 1.385 . S
C693 H679 0.931 . S
C693 C692 1.385 . S
C693 C694 1.389 . S
C694 C693 1.389 . S
C694 C695 1.387 . S
C695 H680 0.930 1_545 S
C695 C690 1.382 1_545 S
C695 C694 1.387 . S
H696 C708 0.930 . S
H697 C710 0.930 . S
H698 C711 0.930 . S
H699 C715 0.959 . S
H700 C715 0.959 . S
H701 C715 0.961 . S
H702 C716 0.960 . S
H703 C716 0.961 . S
H704 C716 0.959 . S
H705 C719 0.929 . S
H706 C720 0.931 . S
H707 C722 0.930 . S
C708 H696 0.930 . S
C708 C709 1.399 . S
C708 C713 1.399 . S
C709 C708 1.399 . S
C709 C710 1.376 . S
C710 H697 0.930 . S
C710 C709 1.376 . S
C710 C711 1.388 . S
C711 H698 0.930 . S
C711 C710 1.388 . S
C711 C712 1.390 . S
C712 C711 1.390 . S
C712 C713 1.394 . S
C712 C718 1.465 . S
C713 C708 1.399 . S
C713 C712 1.394 . S
C713 C714 1.516 . S
C714 C713 1.516 . S
C714 C715 1.502 . S
C714 C716 1.561 . S
C714 C717 1.526 . S
C715 H699 0.959 . S
C715 H700 0.959 . S
C715 H701 0.961 . S
C715 C714 1.502 . S
C716 H702 0.960 . S
C716 H703 0.961 . S
C716 H704 0.959 . S
C716 C714 1.561 . S
C717 C714 1.526 . S
C717 C718 1.396 . S
C717 C722 1.390 . S
C718 C712 1.465 . S
C718 C717 1.396 . S
C718 C719 1.399 . S
C719 H705 0.929 . S
C719 C718 1.399 . S
C719 C720 1.385 . S
C720 H706 0.931 . S
C720 C719 1.385 . S
C720 C721 1.389 . S
C721 C720 1.389 . S
C721 C722 1.387 . S
C722 H707 0.930 . S
C722 C717 1.390 . S
C722 C721 1.387 . S
H723 C735 0.930 . S
H724 C737 0.930 . S
H725 C738 0.930 . S
H726 C742 0.959 1_455 S
H727 C742 0.959 . S
H728 C742 0.961 . S
H729 C743 0.960 . S
H730 C743 0.961 . S
H731 C743 0.959 . S
H732 C746 0.929 . S
H733 C747 0.931 . S
H734 C749 0.930 . S
C735 H723 0.930 . S
C735 C736 1.399 . S
C735 C740 1.399 . S
C736 C735 1.399 . S
C736 C737 1.376 . S
C737 H724 0.930 . S
C737 C736 1.376 . S
C737 C738 1.388 1_655 S
C738 H725 0.930 . S
C738 C737 1.388 1_455 S
C738 C739 1.390 . S
C739 C738 1.390 . S
C739 C740 1.394 1_455 S
C739 C745 1.465 . S
C740 C735 1.399 . S
C740 C739 1.394 1_655 S
C740 C741 1.516 . S
C741 C740 1.516 . S
C741 C742 1.502 . S
C741 C743 1.561 . S
C741 C744 1.526 1_655 S
C742 H726 0.959 1_655 S
C742 H727 0.959 . S
C742 H728 0.961 . S
C742 C741 1.502 . S
C743 H729 0.960 . S
C743 H730 0.961 . S
C743 H731 0.959 . S
C743 C741 1.561 . S
C744 C741 1.526 1_455 S
C744 C745 1.396 . S
C744 C749 1.390 . S
C745 C739 1.465 . S
C745 C744 1.396 . S
C745 C746 1.399 . S
C746 H732 0.929 . S
C746 C745 1.399 . S
C746 C747 1.385 . S
C747 H733 0.931 . S
C747 C746 1.385 . S
C747 C748 1.389 . S
C748 C747 1.389 . S
C748 C749 1.387 . S
C749 H734 0.930 . S
C749 C744 1.390 . S
C749 C748 1.387 . S
H750 C762 0.933 . S
H751 C764 0.930 . S
H752 C765 0.930 . S
H753 C769 0.959 . S
H754 C769 0.959 . S
H755 C769 0.961 . S
H756 C770 0.960 . S
H757 C770 0.961 . S
H758 C770 0.959 . S
H759 C773 0.929 . S
H760 C774 0.931 . S
H761 C776 0.930 . S
C762 H750 0.933 . S
C762 C763 1.395 1_565 S
C762 C767 1.400 . S
C763 C762 1.395 1_545 S
C763 C764 1.376 . S
C764 H751 0.930 . S
C764 C763 1.376 . S
C764 C765 1.388 . S
C765 H752 0.930 . S
C765 C764 1.388 . S
C765 C766 1.390 . S
C766 C765 1.390 . S
C766 C767 1.394 1_545 S
C766 C772 1.465 . S
C767 C762 1.400 . S
C767 C766 1.394 1_565 S
C767 C768 1.516 . S
C768 C767 1.516 . S
C768 C769 1.502 . S
C768 C770 1.561 . S
C768 C771 1.526 . S
C769 H753 0.959 . S
C769 H754 0.959 . S
C769 H755 0.961 . S
C769 C768 1.502 . S
C770 H756 0.960 . S
C770 H757 0.961 . S
C770 H758 0.959 . S
C770 C768 1.561 . S
C771 C768 1.526 . S
C771 C772 1.396 1_565 S
C771 C776 1.390 . S
C772 C766 1.465 . S
C772 C771 1.396 1_545 S
C772 C773 1.399 . S
C773 H759 0.929 . S
C773 C772 1.399 . S
C773 C774 1.385 . S
C774 H760 0.931 . S
C774 C773 1.385 . S
C774 C775 1.389 1_545 S
C775 C774 1.389 1_565 S
C775 C776 1.387 . S
C776 H761 0.930 . S
C776 C771 1.390 . S
C776 C775 1.387 . S
H777 C789 0.930 . S
H778 C791 0.930 . S
H779 C792 0.930 . S
H780 C796 0.959 . S
H781 C796 0.959 . S
H782 C796 0.961 . S
H783 C797 0.960 . S
H784 C797 0.961 . S
H785 C797 0.959 . S
H786 C800 0.929 . S
H787 C801 0.931 . S
H788 C803 0.930 . S
C789 H777 0.930 . S
C789 C790 1.399 . S
C789 C794 1.399 . S
C790 C789 1.399 . S
C790 C791 1.376 . S
C791 H778 0.930 . S
C791 C790 1.376 . S
C791 C792 1.388 . S
C792 H779 0.930 . S
C792 C791 1.388 . S
C792 C793 1.390 . S
C793 C792 1.390 . S
C793 C794 1.394 . S
C793 C799 1.465 . S
C794 C789 1.399 . S
C794 C793 1.394 . S
C794 C795 1.516 . S
C795 C794 1.516 . S
C795 C796 1.502 . S
C795 C797 1.561 . S
C795 C798 1.526 . S
C796 H780 0.959 . S
C796 H781 0.959 . S
C796 H782 0.961 . S
C796 C795 1.502 . S
C797 H783 0.960 . S
C797 H784 0.961 . S
C797 H785 0.959 . S
C797 C795 1.561 . S
C798 C795 1.526 . S
C798 C799 1.396 . S
C798 C803 1.390 . S
C799 C793 1.465 . S
C799 C798 1.396 . S
C799 C800 1.399 . S
C800 H786 0.929 . S
C800 C799 1.399 . S
C800 C801 1.385 . S
C801 H787 0.931 . S
C801 C800 1.385 . S
C801 C802 1.389 . S
C802 C801 1.389 . S
C802 C803 1.387 . S
C803 H788 0.930 . S
C803 C798 1.390 . S
C803 C802 1.387 . S
H804 C816 0.930 . S
H805 C818 0.930 . S
H806 C819 0.930 . S
H807 C823 0.959 . S
H808 C823 0.959 . S
H809 C823 0.961 . S
H810 C824 0.960 . S
H811 C824 0.961 . S
H812 C824 0.959 1_554 S
H813 C827 0.929 . S
H814 C828 0.931 . S
H815 C830 0.930 . S
C816 H804 0.930 . S
C816 C817 1.399 . S
C816 C821 1.399 . S
C817 C816 1.399 . S
C817 C818 1.376 1_556 S
C818 H805 0.930 . S
C818 C817 1.376 1_554 S
C818 C819 1.388 . S
C819 H806 0.930 . S
C819 C818 1.388 . S
C819 C820 1.390 . S
C820 C819 1.390 . S
C820 C821 1.394 1_554 S
C820 C826 1.465 . S
C821 C816 1.399 . S
C821 C820 1.394 1_556 S
C821 C822 1.516 . S
C822 C821 1.516 . S
C822 C823 1.502 . S
C822 C824 1.561 . S
C822 C825 1.526 . S
C823 H807 0.959 . S
C823 H808 0.959 . S
C823 H809 0.961 . S
C823 C822 1.502 . S
C824 H810 0.960 . S
C824 H811 0.961 . S
C824 H812 0.959 1_556 S
C824 C822 1.561 . S
C825 C822 1.526 . S
C825 C826 1.396 1_556 S
C825 C830 1.390 . S
C826 C820 1.465 . S
C826 C825 1.396 1_554 S
C826 C827 1.399 . S
C827 H813 0.929 . S
C827 C826 1.399 . S
C827 C828 1.385 . S
C828 H814 0.931 . S
C828 C827 1.385 . S
C828 C829 1.389 . S
C829 C828 1.389 . S
C829 C830 1.387 1_554 S
C830 H815 0.930 . S
C830 C825 1.390 . S
C830 C829 1.387 1_556 S
H831 C843 0.930 . S
H832 C845 0.930 . S
H833 C846 0.930 . S
H834 C850 0.959 . S
H835 C850 0.959 . S
H836 C850 0.961 . S
H837 C851 0.960 . S
H838 C851 0.961 . S
H839 C851 0.959 . S
H840 C854 0.929 . S
H841 C855 0.931 . S
H842 C857 0.930 . S
C843 H831 0.930 . S
C843 C844 1.399 . S
C843 C848 1.399 . S
C844 C843 1.399 . S
C844 C845 1.376 . S
C845 H832 0.930 . S
C845 C844 1.376 . S
C845 C846 1.388 . S
C846 H833 0.930 . S
C846 C845 1.388 . S
C846 C847 1.390 . S
C847 C846 1.390 . S
C847 C848 1.394 . S
C847 C853 1.465 . S
C848 C843 1.399 . S
C848 C847 1.394 . S
C848 C849 1.516 . S
C849 C848 1.516 . S
C849 C850 1.502 . S
C849 C851 1.561 . S
C849 C852 1.526 . S
C850 H834 0.959 . S
C850 H835 0.959 . S
C850 H836 0.961 . S
C850 C849 1.502 . S
C851 H837 0.960 . S
C851 H838 0.961 . S
C851 H839 0.959 . S
C851 C849 1.561 . S
C852 C849 1.526 . S
C852 C853 1.396 . S
C852 C857 1.390 . S
C853 C847 1.465 . S
C853 C852 1.396 . S
C853 C854 1.399 . S
C854 H840 0.929 . S
C854 C853 1.399 . S
C854 C855 1.385 . S
C855 H841 0.931 . S
C855 C854 1.385 . S
C855 C856 1.389 . S
C856 C855 1.389 . S
C856 C857 1.387 . S
C857 H842 0.930 . S
C857 C852 1.390 . S
C857 C856 1.387 . S
H858 C870 0.930 . S
H859 C872 0.930 . S
H860 C873 0.930 . S
H861 C877 0.959 . S
H862 C877 0.959 . S
H863 C877 0.961 . S
H864 C878 0.960 . S
H865 C878 0.961 . S
H866 C878 0.959 . S
H867 C881 0.929 . S
H868 C882 0.931 . S
H869 C884 0.930 . S
C870 H858 0.930 . S
C870 C871 1.399 . S
C870 C875 1.399 . S
C871 C870 1.399 . S
C871 C872 1.376 . S
C872 H859 0.930 . S
C872 C871 1.376 . S
C872 C873 1.388 . S
C873 H860 0.930 . S
C873 C872 1.388 . S
C873 C874 1.390 . S
C874 C873 1.390 . S
C874 C875 1.394 . S
C874 C880 1.465 . S
C875 C870 1.399 . S
C875 C874 1.394 . S
C875 C876 1.516 . S
C876 C875 1.516 . S
C876 C877 1.502 . S
C876 C878 1.561 . S
C876 C879 1.526 . S
C877 H861 0.959 . S
C877 H862 0.959 . S
C877 H863 0.961 . S
C877 C876 1.502 . S
C878 H864 0.960 . S
C878 H865 0.961 . S
C878 H866 0.959 . S
C878 C876 1.561 . S
C879 C876 1.526 . S
C879 C880 1.396 . S
C879 C884 1.390 . S
C880 C874 1.465 . S
C880 C879 1.396 . S
C880 C881 1.399 . S
C881 H867 0.929 . S
C881 C880 1.399 . S
C881 C882 1.385 . S
C882 H868 0.931 . S
C882 C881 1.385 . S
C882 C883 1.389 . S
C883 C882 1.389 . S
C883 C884 1.387 . S
C884 H869 0.930 . S
C884 C879 1.390 . S
C884 C883 1.387 . S
H885 C897 0.930 . S
H886 C899 0.930 . S
H887 C900 0.930 . S
H888 C904 0.959 . S
H889 C904 0.959 . S
H890 C904 0.961 . S
H891 C905 0.960 . S
H892 C905 0.961 . S
H893 C905 0.959 . S
H894 C908 0.929 . S
H895 C909 0.931 . S
H896 C911 0.930 . S
C897 H885 0.930 . S
C897 C898 1.399 1_556 S
C897 C902 1.399 . S
C898 C897 1.399 1_554 S
C898 C899 1.376 . S
C899 H886 0.930 . S
C899 C898 1.376 . S
C899 C900 1.388 . S
C900 H887 0.930 . S
C900 C899 1.388 . S
C900 C901 1.390 . S
C901 C900 1.390 . S
C901 C902 1.394 1_554 S
C901 C907 1.465 . S
C902 C897 1.399 . S
C902 C901 1.394 1_556 S
C902 C903 1.516 . S
C903 C902 1.516 . S
C903 C904 1.502 . S
C903 C905 1.561 . S
C903 C906 1.526 . S
C904 H888 0.959 . S
C904 H889 0.959 . S
C904 H890 0.961 . S
C904 C903 1.502 . S
C905 H891 0.960 . S
C905 H892 0.961 . S
C905 H893 0.959 . S
C905 C903 1.561 . S
C906 C903 1.526 . S
C906 C907 1.396 1_556 S
C906 C911 1.390 . S
C907 C901 1.465 . S
C907 C906 1.396 1_554 S
C907 C908 1.399 . S
C908 H894 0.929 . S
C908 C907 1.399 . S
C908 C909 1.385 . S
C909 H895 0.931 . S
C909 C908 1.385 . S
C909 C910 1.389 1_554 S
C910 C909 1.389 1_556 S
C910 C911 1.387 . S
C911 H896 0.930 . S
C911 C906 1.390 . S
C911 C910 1.387 . S
H912 C924 0.930 . S
H913 C926 0.930 . S
H914 C927 0.930 . S
H915 C931 0.959 . S
H916 C931 0.959 . S
H917 C931 0.961 . S
H918 C932 0.960 . S
H919 C932 0.961 . S
H920 C932 0.959 . S
H921 C935 0.929 . S
H922 C936 0.931 . S
H923 C938 0.930 . S
C924 H912 0.930 . S
C924 C925 1.399 . S
C924 C929 1.399 . S
C925 C924 1.399 . S
C925 C926 1.376 . S
C926 H913 0.930 . S
C926 C925 1.376 . S
C926 C927 1.388 . S
C927 H914 0.930 . S
C927 C926 1.388 . S
C927 C928 1.390 . S
C928 C927 1.390 . S
C928 C929 1.394 . S
C928 C934 1.465 . S
C929 C924 1.399 . S
C929 C928 1.394 . S
C929 C930 1.516 . S
C930 C929 1.516 . S
C930 C931 1.502 . S
C930 C932 1.561 . S
C930 C933 1.526 . S
C931 H915 0.959 . S
C931 H916 0.959 . S
C931 H917 0.961 . S
C931 C930 1.502 . S
C932 H918 0.960 . S
C932 H919 0.961 . S
C932 H920 0.959 . S
C932 C930 1.561 . S
C933 C930 1.526 . S
C933 C934 1.396 . S
C933 C938 1.390 . S
C934 C928 1.465 . S
C934 C933 1.396 . S
C934 C935 1.399 . S
C935 H921 0.929 . S
C935 C934 1.399 . S
C935 C936 1.385 . S
C936 H922 0.931 . S
C936 C935 1.385 . S
C936 C937 1.389 . S
C937 C936 1.389 . S
C937 C938 1.387 . S
C938 H923 0.930 . S
C938 C933 1.390 . S
C938 C937 1.387 . S
H939 C951 0.930 . S
H940 C953 0.930 . S
H941 C954 0.930 . S
H942 C958 0.959 . S
H943 C958 0.959 . S
H944 C958 0.961 . S
H945 C959 0.960 . S
H946 C959 0.961 . S
H947 C959 0.959 . S
H948 C962 0.929 . S
H949 C963 0.931 . S
H950 C965 0.930 . S
C951 H939 0.930 . S
C951 C952 1.399 . S
C951 C956 1.399 . S
C952 C951 1.399 . S
C952 C953 1.376 . S
C953 H940 0.930 . S
C953 C952 1.376 . S
C953 C954 1.388 . S
C954 H941 0.930 . S
C954 C953 1.388 . S
C954 C955 1.390 . S
C955 C954 1.390 . S
C955 C956 1.394 . S
C955 C961 1.465 . S
C956 C951 1.399 . S
C956 C955 1.394 . S
C956 C957 1.516 . S
C957 C956 1.516 . S
C957 C958 1.502 . S
C957 C959 1.561 . S
C957 C960 1.526 . S
C958 H942 0.959 . S
C958 H943 0.959 . S
C958 H944 0.961 . S
C958 C957 1.502 . S
C959 H945 0.960 . S
C959 H946 0.961 . S
C959 H947 0.959 . S
C959 C957 1.561 . S
C960 C957 1.526 . S
C960 C961 1.396 . S
C960 C965 1.390 . S
C961 C955 1.465 . S
C961 C960 1.396 . S
C961 C962 1.399 . S
C962 H948 0.929 . S
C962 C961 1.399 . S
C962 C963 1.385 . S
C963 H949 0.931 . S
C963 C962 1.385 . S
C963 C964 1.389 . S
C964 C963 1.389 . S
C964 C965 1.387 . S
C965 H950 0.930 . S
C965 C960 1.390 . S
C965 C964 1.387 . S
C493 C141 2.228 . S
C505 C21 2.169 . S
C520 C61 2.183 . S
C532 C181 2.228 . S
C547 C202 2.310 . S
C559 C101 2.186 . S
C574 C261 2.179 . S
C586 C381 2.230 . S
C601 C421 2.230 . S
C613 C301 2.169 . S
C628 C322 2.315 . S
C640 C461 2.201 . S
C655 C442 2.173 . S
C667 C2 2.120 . S
C682 C42 2.178 . S
C694 C242 2.213 . S
C709 C82 2.130 . S
C721 C282 2.154 . S
C736 C341 2.350 . S
C748 C122 2.209 . S
C763 C162 2.211 . S
C775 C362 2.156 . S
C790 C402 2.222 . S
C802 C221 2.341 . S
C817 C415 2.139 . S
C829 C15 2.093 . S
C844 C455 2.081 . S
C856 C55 2.124 . S
C871 C95 2.096 . S
C883 C255 2.134 . S
C898 C135 2.093 . S
C910 C295 2.138 . S
C925 C175 2.125 . S
C937 C335 2.162 . S
C952 C215 2.168 . S
C964 C375 2.105 . S
