# Generated by pormake.
# Topology wip, (6)-cn, num edge types: 1
# Building blocks:
#     Node 0, Type 0, BuildingBlock: BETDEL_clean_sbu_0, # of connection points: 6
#     Node 1, Type 0, BuildingBlock: BETDEL_clean_sbu_0, # of connection points: 6
#     Node 2, Type 0, BuildingBlock: BETDEL_clean_sbu_0, # of connection points: 6
#     Node 3, Type 0, BuildingBlock: BETDEL_clean_sbu_0, # of connection points: 6
#     Node 4, Type 0, BuildingBlock: BETDEL_clean_sbu_0, # of connection points: 6
#     Node 5, Type 0, BuildingBlock: BETDEL_clean_sbu_0, # of connection points: 6
#     Node 6, Type 0, BuildingBlock: BETDEL_clean_sbu_0, # of connection points: 6
#     Node 7, Type 0, BuildingBlock: BETDEL_clean_sbu_0, # of connection points: 6
#     Node 8, Type 0, BuildingBlock: BETDEL_clean_sbu_0, # of connection points: 6
#     Node 9, Type 0, BuildingBlock: BETDEL_clean_sbu_0, # of connection points: 6
#     Node 10, Type 0, BuildingBlock: BETDEL_clean_sbu_0, # of connection points: 6
#     Node 11, Type 0, BuildingBlock: BETDEL_clean_sbu_0, # of connection points: 6
#     Node 12, Type 0, BuildingBlock: BETDEL_clean_sbu_0, # of connection points: 6
#     Node 13, Type 0, BuildingBlock: BETDEL_clean_sbu_0, # of connection points: 6
#     Node 14, Type 0, BuildingBlock: BETDEL_clean_sbu_0, # of connection points: 6
#     Node 15, Type 0, BuildingBlock: BETDEL_clean_sbu_0, # of connection points: 6
#     Node 16, Type 0, BuildingBlock: BETDEL_clean_sbu_0, # of connection points: 6
#     Node 17, Type 0, BuildingBlock: BETDEL_clean_sbu_0, # of connection points: 6
#     Node 18, Type 0, BuildingBlock: BETDEL_clean_sbu_0, # of connection points: 6
#     Node 19, Type 0, BuildingBlock: BETDEL_clean_sbu_0, # of connection points: 6
#     Node 20, Type 0, BuildingBlock: BETDEL_clean_sbu_0, # of connection points: 6
#     Node 21, Type 0, BuildingBlock: BETDEL_clean_sbu_0, # of connection points: 6
#     Node 22, Type 0, BuildingBlock: BETDEL_clean_sbu_0, # of connection points: 6
#     Node 23, Type 0, BuildingBlock: BETDEL_clean_sbu_0, # of connection points: 6
#     Node 24, Type 0, BuildingBlock: BETDEL_clean_sbu_0, # of connection points: 6
#     Node 25, Type 0, BuildingBlock: BETDEL_clean_sbu_0, # of connection points: 6
#     Node 26, Type 0, BuildingBlock: BETDEL_clean_sbu_0, # of connection points: 6
#     Node 27, Type 0, BuildingBlock: BETDEL_clean_sbu_0, # of connection points: 6
#     Node 28, Type 0, BuildingBlock: BETDEL_clean_sbu_0, # of connection points: 6
#     Node 29, Type 0, BuildingBlock: BETDEL_clean_sbu_0, # of connection points: 6
#     Node 30, Type 0, BuildingBlock: BETDEL_clean_sbu_0, # of connection points: 6
#     Node 31, Type 0, BuildingBlock: BETDEL_clean_sbu_0, # of connection points: 6
#     Edge 32, Type (0, 0), BuildingBlock: AJUNOK_clean_linker_0, # of connection points: 2
#     Edge 33, Type (0, 0), BuildingBlock: AJUNOK_clean_linker_0, # of connection points: 2
#     Edge 34, Type (0, 0), BuildingBlock: AJUNOK_clean_linker_0, # of connection points: 2
#     Edge 35, Type (0, 0), BuildingBlock: AJUNOK_clean_linker_0, # of connection points: 2
#     Edge 36, Type (0, 0), BuildingBlock: AJUNOK_clean_linker_0, # of connection points: 2
#     Edge 37, Type (0, 0), BuildingBlock: AJUNOK_clean_linker_0, # of connection points: 2
#     Edge 38, Type (0, 0), BuildingBlock: AJUNOK_clean_linker_0, # of connection points: 2
#     Edge 39, Type (0, 0), BuildingBlock: AJUNOK_clean_linker_0, # of connection points: 2
#     Edge 40, Type (0, 0), BuildingBlock: AJUNOK_clean_linker_0, # of connection points: 2
#     Edge 41, Type (0, 0), BuildingBlock: AJUNOK_clean_linker_0, # of connection points: 2
#     Edge 42, Type (0, 0), BuildingBlock: AJUNOK_clean_linker_0, # of connection points: 2
#     Edge 43, Type (0, 0), BuildingBlock: AJUNOK_clean_linker_0, # of connection points: 2
#     Edge 44, Type (0, 0), BuildingBlock: AJUNOK_clean_linker_0, # of connection points: 2
#     Edge 45, Type (0, 0), BuildingBlock: AJUNOK_clean_linker_0, # of connection points: 2
#     Edge 46, Type (0, 0), BuildingBlock: AJUNOK_clean_linker_0, # of connection points: 2
#     Edge 47, Type (0, 0), BuildingBlock: AJUNOK_clean_linker_0, # of connection points: 2
#     Edge 48, Type (0, 0), BuildingBlock: AJUNOK_clean_linker_0, # of connection points: 2
#     Edge 49, Type (0, 0), BuildingBlock: AJUNOK_clean_linker_0, # of connection points: 2
#     Edge 50, Type (0, 0), BuildingBlock: AJUNOK_clean_linker_0, # of connection points: 2
#     Edge 51, Type (0, 0), BuildingBlock: AJUNOK_clean_linker_0, # of connection points: 2
#     Edge 52, Type (0, 0), BuildingBlock: AJUNOK_clean_linker_0, # of connection points: 2
#     Edge 53, Type (0, 0), BuildingBlock: AJUNOK_clean_linker_0, # of connection points: 2
#     Edge 54, Type (0, 0), BuildingBlock: AJUNOK_clean_linker_0, # of connection points: 2
#     Edge 55, Type (0, 0), BuildingBlock: AJUNOK_clean_linker_0, # of connection points: 2
#     Edge 56, Type (0, 0), BuildingBlock: AJUNOK_clean_linker_0, # of connection points: 2
#     Edge 57, Type (0, 0), BuildingBlock: AJUNOK_clean_linker_0, # of connection points: 2
#     Edge 58, Type (0, 0), BuildingBlock: AJUNOK_clean_linker_0, # of connection points: 2
#     Edge 59, Type (0, 0), BuildingBlock: AJUNOK_clean_linker_0, # of connection points: 2
#     Edge 60, Type (0, 0), BuildingBlock: AJUNOK_clean_linker_0, # of connection points: 2
#     Edge 61, Type (0, 0), BuildingBlock: AJUNOK_clean_linker_0, # of connection points: 2
#     Edge 62, Type (0, 0), BuildingBlock: AJUNOK_clean_linker_0, # of connection points: 2
#     Edge 63, Type (0, 0), BuildingBlock: AJUNOK_clean_linker_0, # of connection points: 2
#     Edge 64, Type (0, 0), BuildingBlock: AJUNOK_clean_linker_0, # of connection points: 2
#     Edge 65, Type (0, 0), BuildingBlock: AJUNOK_clean_linker_0, # of connection points: 2
#     Edge 66, Type (0, 0), BuildingBlock: AJUNOK_clean_linker_0, # of connection points: 2
#     Edge 67, Type (0, 0), BuildingBlock: AJUNOK_clean_linker_0, # of connection points: 2
#     Edge 68, Type (0, 0), BuildingBlock: AJUNOK_clean_linker_0, # of connection points: 2
#     Edge 69, Type (0, 0), BuildingBlock: AJUNOK_clean_linker_0, # of connection points: 2
#     Edge 70, Type (0, 0), BuildingBlock: AJUNOK_clean_linker_0, # of connection points: 2
#     Edge 71, Type (0, 0), BuildingBlock: AJUNOK_clean_linker_0, # of connection points: 2
#     Edge 72, Type (0, 0), BuildingBlock: AJUNOK_clean_linker_0, # of connection points: 2
#     Edge 73, Type (0, 0), BuildingBlock: AJUNOK_clean_linker_0, # of connection points: 2
#     Edge 74, Type (0, 0), BuildingBlock: AJUNOK_clean_linker_0, # of connection points: 2
#     Edge 75, Type (0, 0), BuildingBlock: AJUNOK_clean_linker_0, # of connection points: 2
#     Edge 76, Type (0, 0), BuildingBlock: AJUNOK_clean_linker_0, # of connection points: 2
#     Edge 77, Type (0, 0), BuildingBlock: AJUNOK_clean_linker_0, # of connection points: 2
#     Edge 78, Type (0, 0), BuildingBlock: AJUNOK_clean_linker_0, # of connection points: 2
#     Edge 79, Type (0, 0), BuildingBlock: AJUNOK_clean_linker_0, # of connection points: 2
#     Edge 80, Type (0, 0), BuildingBlock: AJUNOK_clean_linker_0, # of connection points: 2
#     Edge 81, Type (0, 0), BuildingBlock: AJUNOK_clean_linker_0, # of connection points: 2
#     Edge 82, Type (0, 0), BuildingBlock: AJUNOK_clean_linker_0, # of connection points: 2
#     Edge 83, Type (0, 0), BuildingBlock: AJUNOK_clean_linker_0, # of connection points: 2
#     Edge 84, Type (0, 0), BuildingBlock: AJUNOK_clean_linker_0, # of connection points: 2
#     Edge 85, Type (0, 0), BuildingBlock: AJUNOK_clean_linker_0, # of connection points: 2
#     Edge 86, Type (0, 0), BuildingBlock: AJUNOK_clean_linker_0, # of connection points: 2
#     Edge 87, Type (0, 0), BuildingBlock: AJUNOK_clean_linker_0, # of connection points: 2
#     Edge 88, Type (0, 0), BuildingBlock: AJUNOK_clean_linker_0, # of connection points: 2
#     Edge 89, Type (0, 0), BuildingBlock: AJUNOK_clean_linker_0, # of connection points: 2
#     Edge 90, Type (0, 0), BuildingBlock: AJUNOK_clean_linker_0, # of connection points: 2
#     Edge 91, Type (0, 0), BuildingBlock: AJUNOK_clean_linker_0, # of connection points: 2
#     Edge 92, Type (0, 0), BuildingBlock: AJUNOK_clean_linker_0, # of connection points: 2
#     Edge 93, Type (0, 0), BuildingBlock: AJUNOK_clean_linker_0, # of connection points: 2
#     Edge 94, Type (0, 0), BuildingBlock: AJUNOK_clean_linker_0, # of connection points: 2
#     Edge 95, Type (0, 0), BuildingBlock: AJUNOK_clean_linker_0, # of connection points: 2
#     Edge 96, Type (0, 0), BuildingBlock: AJUNOK_clean_linker_0, # of connection points: 2
#     Edge 97, Type (0, 0), BuildingBlock: AJUNOK_clean_linker_0, # of connection points: 2
#     Edge 98, Type (0, 0), BuildingBlock: AJUNOK_clean_linker_0, # of connection points: 2
#     Edge 99, Type (0, 0), BuildingBlock: AJUNOK_clean_linker_0, # of connection points: 2
#     Edge 100, Type (0, 0), BuildingBlock: AJUNOK_clean_linker_0, # of connection points: 2
#     Edge 101, Type (0, 0), BuildingBlock: AJUNOK_clean_linker_0, # of connection points: 2
#     Edge 102, Type (0, 0), BuildingBlock: AJUNOK_clean_linker_0, # of connection points: 2
#     Edge 103, Type (0, 0), BuildingBlock: AJUNOK_clean_linker_0, # of connection points: 2
#     Edge 104, Type (0, 0), BuildingBlock: AJUNOK_clean_linker_0, # of connection points: 2
#     Edge 105, Type (0, 0), BuildingBlock: AJUNOK_clean_linker_0, # of connection points: 2
#     Edge 106, Type (0, 0), BuildingBlock: AJUNOK_clean_linker_0, # of connection points: 2
#     Edge 107, Type (0, 0), BuildingBlock: AJUNOK_clean_linker_0, # of connection points: 2
#     Edge 108, Type (0, 0), BuildingBlock: AJUNOK_clean_linker_0, # of connection points: 2
#     Edge 109, Type (0, 0), BuildingBlock: AJUNOK_clean_linker_0, # of connection points: 2
#     Edge 110, Type (0, 0), BuildingBlock: AJUNOK_clean_linker_0, # of connection points: 2
#     Edge 111, Type (0, 0), BuildingBlock: AJUNOK_clean_linker_0, # of connection points: 2
#     Edge 112, Type (0, 0), BuildingBlock: AJUNOK_clean_linker_0, # of connection points: 2
#     Edge 113, Type (0, 0), BuildingBlock: AJUNOK_clean_linker_0, # of connection points: 2
#     Edge 114, Type (0, 0), BuildingBlock: AJUNOK_clean_linker_0, # of connection points: 2
#     Edge 115, Type (0, 0), BuildingBlock: AJUNOK_clean_linker_0, # of connection points: 2
#     Edge 116, Type (0, 0), BuildingBlock: AJUNOK_clean_linker_0, # of connection points: 2
#     Edge 117, Type (0, 0), BuildingBlock: AJUNOK_clean_linker_0, # of connection points: 2
#     Edge 118, Type (0, 0), BuildingBlock: AJUNOK_clean_linker_0, # of connection points: 2
#     Edge 119, Type (0, 0), BuildingBlock: AJUNOK_clean_linker_0, # of connection points: 2
#     Edge 120, Type (0, 0), BuildingBlock: AJUNOK_clean_linker_0, # of connection points: 2
#     Edge 121, Type (0, 0), BuildingBlock: AJUNOK_clean_linker_0, # of connection points: 2
#     Edge 122, Type (0, 0), BuildingBlock: AJUNOK_clean_linker_0, # of connection points: 2
#     Edge 123, Type (0, 0), BuildingBlock: AJUNOK_clean_linker_0, # of connection points: 2
#     Edge 124, Type (0, 0), BuildingBlock: AJUNOK_clean_linker_0, # of connection points: 2
#     Edge 125, Type (0, 0), BuildingBlock: AJUNOK_clean_linker_0, # of connection points: 2
#     Edge 126, Type (0, 0), BuildingBlock: AJUNOK_clean_linker_0, # of connection points: 2
#     Edge 127, Type (0, 0), BuildingBlock: AJUNOK_clean_linker_0, # of connection points: 2
# Relax obj value: 0.369
# Max RMSD: 0.228
# Mean RMSD: 0.203
data_MOF--net-wip--node1-BETDEL_clean_sbu_0--edge1-AJUNOK_clean_linker_0
_symmetry_space_group_name_H-M    P1
_symmetry_Int_Tables_number       1
_symmetry_cell_setting            triclinic
loop_
_symmetry_equiv_pos_as_xyz
'x, y, z'
_cell_length_a     48.353125
_cell_length_b     48.463623
_cell_length_c     20.241319
_cell_angle_alpha  93.51026
_cell_angle_beta   90.0295
_cell_angle_gamma 89.952093
loop_
_atom_site_label
_atom_site_type_symbol
_atom_site_fract_x
_atom_site_fract_y
_atom_site_fract_z
_atom_type_partial_charge
Dy0 Dy 0.04686 0.40086 0.09633 0.0
C1 C 0.09099 0.47069 0.89582 0.0
C2 C 0.02523 0.37655 0.20504 0.0
Dy3 Dy 0.08262 0.43634 0.99915 0.0
O4 O 0.01126 0.38458 0.1549 0.0
O5 O 0.05143 0.38001 0.19332 0.0
O6 O 0.00942 0.42368 0.06682 0.0
O7 O 0.04774 0.44278 0.06633 0.0
C8 C 0.02259 0.44596 0.05362 0.0
C9 C 0.10767 0.3937 0.05207 0.0
O10 O 0.09358 0.46011 0.09557 0.0
O11 O 0.07162 0.43012 0.16548 0.0
O12 O 0.10347 0.44706 0.90192 0.0
O13 O 0.07564 0.47569 0.94787 0.0
O14 O 0.12103 0.41515 1.03223 0.0
O15 O 0.08283 0.39462 1.03328 0.0
O16 O 0.03507 0.37842 1.00026 0.0
O17 O 0.05128 0.4131 0.93495 0.0
C18 C 0.08713 0.45228 0.1558 0.0
C19 C 0.03633 0.39058 0.94308 0.0
Dy20 Dy 0.83674 0.79406 0.36815 0.0
C21 C 0.77303 0.84487 0.16016 0.0
C22 C 0.85121 0.77191 0.48524 0.0
Dy23 Dy 0.80417 0.82946 0.26782 0.0
O24 O 0.82644 0.77606 0.46397 0.0
O25 O 0.86919 0.77988 0.44172 0.0
O26 O 0.81847 0.75624 0.32185 0.0
O27 O 0.79596 0.79315 0.32428 0.0
C28 C 0.79534 0.76771 0.30639 0.0
C29 C 0.84494 0.85499 0.34068 0.0
O30 O 0.77681 0.8373 0.35636 0.0
O31 O 0.81021 0.82428 0.43107 0.0
O32 O 0.79974 0.84769 0.16673 0.0
O33 O 0.7635 0.83471 0.21372 0.0
O34 O 0.82337 0.86777 0.31862 0.0
O35 O 0.8449 0.83062 0.31555 0.0
O36 O 0.85635 0.7761 0.27317 0.0
O37 O 0.82504 0.79655 0.20272 0.0
C38 C 0.78587 0.83569 0.41797 0.0
C39 C 0.84535 0.77893 0.21327 0.0
Dy40 Dy 0.435 0.56414 0.53483 0.0
C41 C 0.35256 0.51697 0.7135 0.0
C42 C 0.47057 0.57351 0.43146 0.0
Dy43 Dy 0.39107 0.53487 0.62676 0.0
O44 O 0.44497 0.5818 0.4365 0.0
O45 O 0.47716 0.56131 0.48502 0.0
O46 O 0.42404 0.60573 0.58237 0.0
O47 O 0.39473 0.57414 0.58067 0.0
C48 C 0.40034 0.59804 0.60565 0.0
C49 C 0.43745 0.50728 0.59981 0.0
O50 O 0.37278 0.52277 0.52592 0.0
O51 O 0.407 0.54201 0.46078 0.0
O52 O 0.36334 0.50213 0.66434 0.0
O53 O 0.36136 0.54223 0.71144 0.0
O54 O 0.42352 0.50459 0.65369 0.0
O55 O 0.42486 0.52284 0.56276 0.0
O56 O 0.45841 0.5639 0.63207 0.0
O57 O 0.42003 0.55741 0.69923 0.0
C58 C 0.38409 0.52736 0.46738 0.0
C59 C 0.44663 0.56369 0.69179 0.0
Dy60 Dy 0.66526 0.18864 0.75399 0.0
C61 C 0.71599 0.11644 0.94549 0.0
C62 C 0.65573 0.22508 0.65641 0.0
Dy63 Dy 0.69755 0.14787 0.84603 0.0
O64 O 0.64855 0.19913 0.65344 0.0
O65 O 0.66698 0.23118 0.71394 0.0
O66 O 0.62443 0.17242 0.78476 0.0
O67 O 0.6594 0.14705 0.7888 0.0
C68 C 0.63461 0.15007 0.80837 0.0
C69 C 0.72563 0.1919 0.80813 0.0
O70 O 0.70676 0.12686 0.7463 0.0
O71 O 0.69536 0.16499 0.6866 0.0
O72 O 0.73067 0.12427 0.89641 0.0
O73 O 0.69057 0.12447 0.93782 0.0
O74 O 0.73756 0.16947 0.82538 0.0
O75 O 0.70042 0.18955 0.81869 0.0
O76 O 0.65989 0.21235 0.85429 0.0
O77 O 0.67636 0.17789 0.92041 0.0
C78 C 0.70728 0.14047 0.6911 0.0
C79 C 0.6643 0.20237 0.9138 0.0
Dy80 Dy 0.04826 0.59243 0.61799 0.0
C81 C 0.09861 0.51962 0.40392 0.0
C82 C 0.01867 0.61104 0.72864 0.0
Dy83 Dy 0.07549 0.55254 0.50644 0.0
O84 O 0.04538 0.61289 0.72145 0.0
O85 O 0.00809 0.59996 0.67405 0.0
O86 O 0.07083 0.62862 0.58167 0.0
O87 O 0.08838 0.58913 0.56632 0.0
C88 C 0.09034 0.61408 0.5519 0.0
C89 C 0.0232 0.54135 0.53876 0.0
O90 O 0.08983 0.53141 0.60028 0.0
O91 O 0.06973 0.56242 0.67908 0.0
O92 O 0.08522 0.5112 0.45457 0.0
O93 O 0.10108 0.5464 0.41219 0.0
O94 O 0.03287 0.53863 0.47913 0.0
O95 O 0.04211 0.5506 0.57628 0.0
O96 O 0.02197 0.60058 0.52963 0.0
O97 O 0.05377 0.5851 0.44957 0.0
C98 C 0.08307 0.53908 0.66327 0.0
C99 C 0.03033 0.59807 0.46697 0.0
Dy100 Dy 0.65632 0.79958 0.85839 0.0
C101 C 0.71937 0.85556 0.65562 0.0
C102 C 0.63822 0.76887 0.96132 0.0
Dy103 Dy 0.69469 0.83254 0.76214 0.0
O104 O 0.65089 0.75908 0.90812 0.0
O105 O 0.63462 0.79535 0.95683 0.0
O106 O 0.61957 0.82178 0.81922 0.0
O107 O 0.65812 0.84118 0.82117 0.0
C108 C 0.63379 0.84256 0.79925 0.0
C109 C 0.71728 0.7889 0.80995 0.0
O110 O 0.7075 0.85275 0.86248 0.0
O111 O 0.68914 0.81834 0.9253 0.0
O112 O 0.73105 0.85137 0.71184 0.0
O113 O 0.69327 0.84943 0.66001 0.0
O114 O 0.73177 0.80916 0.78983 0.0
O115 O 0.69227 0.79145 0.79536 0.0
O116 O 0.64652 0.77472 0.76394 0.0
O117 O 0.6692 0.80333 0.69246 0.0
C118 C 0.70534 0.8401 0.91936 0.0
C119 C 0.65295 0.78168 0.70314 0.0
Dy120 Dy 0.4378 0.42589 0.1514 0.0
C121 C 0.35788 0.47291 0.96564 0.0
C122 C 0.47406 0.41848 0.25469 0.0
Dy123 Dy 0.39321 0.45854 0.06385 0.0
O124 O 0.4486 0.40973 0.25091 0.0
O125 O 0.48022 0.42979 0.19972 0.0
O126 O 0.42254 0.38527 0.10731 0.0
O127 O 0.39577 0.41964 0.11317 0.0
C128 C 0.39899 0.39528 0.0877 0.0
C129 C 0.43779 0.48702 0.10881 0.0
O130 O 0.37369 0.46558 0.16395 0.0
O131 O 0.41299 0.45354 0.22335 0.0
O132 O 0.36518 0.48893 1.01653 0.0
O133 O 0.36906 0.44876 0.97044 0.0
O134 O 0.41613 0.49913 0.08579 0.0
O135 O 0.4343 0.46189 0.09725 0.0
O136 O 0.46018 0.42437 0.05186 0.0
O137 O 0.42311 0.43922 0.98806 0.0
C138 C 0.38795 0.46475 0.22005 0.0
C139 C 0.44874 0.42924 0.99315 0.0
Dy140 Dy 0.82335 0.18371 0.41726 0.0
C141 C 0.76575 0.11935 0.20312 0.0
C142 C 0.82685 0.21898 0.52978 0.0
Dy143 Dy 0.78725 0.14778 0.3131 0.0
O144 O 0.84814 0.20736 0.49924 0.0
O145 O 0.80455 0.21152 0.49793 0.0
O146 O 0.86223 0.16201 0.38503 0.0
O147 O 0.82415 0.14153 0.3719 0.0
C148 C 0.84943 0.14104 0.35484 0.0
C149 C 0.76487 0.19526 0.36301 0.0
O150 O 0.77509 0.12648 0.40448 0.0
O151 O 0.79667 0.15767 0.48029 0.0
O152 O 0.75188 0.12764 0.25549 0.0
O153 O 0.79162 0.12567 0.21225 0.0
O154 O 0.75041 0.17385 0.34281 0.0
O155 O 0.78963 0.19009 0.35063 0.0
O156 O 0.83104 0.20739 0.32448 0.0
O157 O 0.81306 0.17411 0.2478 0.0
C158 C 0.77955 0.13676 0.46604 0.0
C159 C 0.82678 0.19762 0.26179 0.0
Dy160 Dy 0.90965 0.55337 0.19346 0.0
C161 C 0.9637 0.61502 0.98614 0.0
C162 C 0.89894 0.51952 0.29659 0.0
Dy163 Dy 0.94286 0.59062 0.09581 0.0
O164 O 0.89272 0.54569 0.29621 0.0
O165 O 0.90995 0.51193 0.23959 0.0
O166 O 0.86983 0.57206 0.16101 0.0
O167 O 0.90645 0.59502 0.1584 0.0
C168 C 0.88152 0.59414 0.13985 0.0
C169 C 0.96977 0.547 0.13866 0.0
O170 O 0.95391 0.6132 0.19257 0.0
O171 O 0.94178 0.57624 0.25566 0.0
O172 O 0.97782 0.60825 1.03724 0.0
O173 O 0.93768 0.61043 0.99756 0.0
O174 O 0.98158 0.56982 0.12431 0.0
O175 O 0.94448 0.54871 0.12601 0.0
O176 O 0.90059 0.52891 0.09693 0.0
O177 O 0.91788 0.56146 1.02704 0.0
C178 C 0.95452 0.60015 0.24868 0.0
C179 C 0.90449 0.53799 1.03661 0.0
Dy180 Dy 0.18462 0.15485 0.90948 0.0
C181 C 0.12092 0.21437 0.71004 0.0
C182 C 0.21789 0.14359 1.01791 0.0
Dy183 Dy 0.14927 0.18864 0.80732 0.0
O184 O 0.19128 0.13932 1.01308 0.0
O185 O 0.22629 0.15261 0.9618 0.0
O186 O 0.16439 0.11565 0.86691 0.0
O187 O 0.14301 0.15291 0.86507 0.0
C188 C 0.14265 0.12789 0.84396 0.0
C189 C 0.20118 0.20408 0.82606 0.0
O190 O 0.13475 0.21026 0.90463 0.0
O191 O 0.1622 0.18586 0.97667 0.0
O192 O 0.1322 0.22659 0.76238 0.0
O193 O 0.12268 0.18769 0.71482 0.0
O194 O 0.18818 0.20572 0.77075 0.0
O195 O 0.18531 0.19571 0.86958 0.0
O196 O 0.20865 0.146 0.81406 0.0
O197 O 0.17248 0.15655 0.74368 0.0
C198 C 0.14409 0.20562 0.9653 0.0
C199 C 0.19745 0.14598 0.75365 0.0
Dy200 Dy 0.59965 0.46044 0.55765 0.0
C201 C 0.51846 0.42495 0.75336 0.0
C202 C 0.63855 0.4766 0.46953 0.0
Dy203 Dy 0.5554 0.43295 0.65207 0.0
O204 O 0.62821 0.49212 0.51814 0.0
O205 O 0.62915 0.45161 0.47319 0.0
O206 O 0.56828 0.49122 0.52867 0.0
O207 O 0.56575 0.47376 0.62055 0.0
C208 C 0.55363 0.48897 0.58161 0.0
C209 C 0.5892 0.39785 0.58224 0.0
O210 O 0.53188 0.4326 0.55533 0.0
O211 O 0.56979 0.43824 0.486 0.0
O212 O 0.54365 0.41536 0.74966 0.0
O213 O 0.51325 0.43794 0.70017 0.0
O214 O 0.56542 0.39082 0.60629 0.0
O215 O 0.59528 0.42181 0.60605 0.0
O216 O 0.61785 0.47346 0.65829 0.0
O217 O 0.58379 0.45494 0.72522 0.0
C218 C 0.54314 0.43239 0.49505 0.0
C219 C 0.60667 0.46949 0.71739 0.0
Dy220 Dy 0.2919 0.8445 0.33769 0.0
C221 C 0.32912 0.76809 0.5363 0.0
C222 C 0.27571 0.88168 0.2486 0.0
Dy223 Dy 0.31954 0.80229 0.43453 0.0
O224 O 0.26021 0.87221 0.29463 0.0
O225 O 0.30081 0.87255 0.25565 0.0
O226 O 0.26284 0.8125 0.29607 0.0
O227 O 0.27916 0.80924 0.39087 0.0
C228 C 0.26565 0.79673 0.34492 0.0
C229 C 0.3541 0.83748 0.37807 0.0
O230 O 0.32282 0.77806 0.33611 0.0
O231 O 0.31688 0.8152 0.26913 0.0
O232 O 0.33548 0.79419 0.53671 0.0
O233 O 0.31843 0.76042 0.47892 0.0
O234 O 0.36181 0.81425 0.40138 0.0
O235 O 0.32949 0.84245 0.39614 0.0
O236 O 0.2765 0.86314 0.4364 0.0
O237 O 0.29387 0.82957 0.50405 0.0
C238 C 0.32336 0.78882 0.27701 0.0
C239 C 0.27923 0.85221 0.49507 0.0
Dy240 Dy 0.91572 0.43985 0.68401 0.0
C241 C 0.97124 0.37864 0.46313 0.0
C242 C 0.89258 0.47086 0.78878 0.0
Dy243 Dy 0.9429 0.3988 0.57411 0.0
O244 O 0.8938 0.444 0.7829 0.0
O245 O 0.90193 0.48052 0.73447 0.0
O246 O 0.95805 0.45587 0.70752 0.0
O247 O 0.94852 0.44117 0.61253 0.0
C248 C 0.96748 0.45162 0.64792 0.0
C249 C 0.9006 0.37829 0.64283 0.0
O250 O 0.96974 0.39216 0.66242 0.0
O251 O 0.93735 0.40751 0.7411 0.0
O252 O 0.94445 0.37854 0.47042 0.0
O253 O 0.98252 0.38865 0.51796 0.0
O254 O 0.91989 0.36321 0.61374 0.0
O255 O 0.90301 0.40282 0.62612 0.0
O256 O 0.89852 0.45821 0.5895 0.0
O257 O 0.92274 0.4296 0.51251 0.0
C258 C 0.96086 0.39462 0.72466 0.0
C259 C 0.90606 0.45083 0.52683 0.0
Dy260 Dy 0.29647 0.15945 0.42485 0.0
C261 C 0.35952 0.21641 0.22485 0.0
C262 C 0.26477 0.13312 0.51504 0.0
Dy263 Dy 0.33731 0.18912 0.32894 0.0
O264 O 0.25567 0.14442 0.46254 0.0
O265 O 0.29171 0.13405 0.51476 0.0
O266 O 0.27945 0.20033 0.45881 0.0
O267 O 0.29477 0.19413 0.36291 0.0
C268 C 0.28455 0.21173 0.404 0.0
C269 C 0.35833 0.1473 0.39556 0.0
O270 O 0.3428 0.21532 0.42456 0.0
O271 O 0.32652 0.18256 0.49458 0.0
O272 O 0.35879 0.18971 0.22939 0.0
O273 O 0.3492 0.22818 0.279 0.0
O274 O 0.37306 0.16733 0.37409 0.0
O275 O 0.33429 0.14874 0.37199 0.0
O276 O 0.27809 0.14437 0.32349 0.0
O277 O 0.30654 0.16981 0.25656 0.0
C278 C 0.33918 0.20644 0.48513 0.0
C279 C 0.28533 0.15284 0.26382 0.0
Dy280 Dy 0.5951 0.53683 0.12171 0.0
C281 C 0.51591 0.57947 0.93108 0.0
C282 C 0.63051 0.52055 0.21799 0.0
Dy283 Dy 0.55259 0.571 1.03288 0.0
O284 O 0.62236 0.50518 0.1668 0.0
O285 O 0.61989 0.54507 0.21504 0.0
O286 O 0.57201 0.49685 0.09536 0.0
O287 O 0.55403 0.5345 0.08622 0.0
C288 C 0.55073 0.50946 0.07201 0.0
C289 C 0.59192 0.60023 0.0987 0.0
O290 O 0.52947 0.57277 0.13103 0.0
O291 O 0.56477 0.55604 0.19757 0.0
O292 O 0.54208 0.58582 0.93159 0.0
O293 O 0.50956 0.56994 0.98799 0.0
O294 O 0.56894 0.6111 0.07806 0.0
O295 O 0.59435 0.57586 0.07296 0.0
O296 O 0.61532 0.52997 1.02189 0.0
O297 O 0.57689 0.5431 0.961 0.0
C298 C 0.53969 0.56723 0.19046 0.0
C299 C 0.6017 0.53151 0.96503 0.0
Dy300 Dy 0.20827 0.84547 0.88234 0.0
C301 C 0.16391 0.76928 0.67227 0.0
C302 C 0.22756 0.87662 0.99086 0.0
Dy303 Dy 0.17362 0.80503 0.78162 0.0
O304 O 0.24085 0.87195 0.93555 0.0
O305 O 0.20336 0.86515 0.98547 0.0
O306 O 0.24777 0.82304 0.85232 0.0
O307 O 0.21027 0.8041 0.84078 0.0
C308 C 0.23525 0.80108 0.82771 0.0
C309 C 0.14381 0.84308 0.85199 0.0
O310 O 0.17084 0.78098 0.87415 0.0
O311 O 0.1882 0.81542 0.94913 0.0
O312 O 0.15613 0.79505 0.6788 0.0
O313 O 0.17555 0.76276 0.72725 0.0
O314 O 0.13343 0.82058 0.82286 0.0
O315 O 0.16838 0.84638 0.83128 0.0
O316 O 0.21506 0.86692 0.78798 0.0
O317 O 0.20161 0.82921 0.71817 0.0
C318 C 0.17644 0.79078 0.93601 0.0
C319 C 0.21357 0.85369 0.72842 0.0
Dy320 Dy 0.55386 0.90567 0.59886 0.0
C321 C 0.60124 0.96959 0.392 0.0
C322 C 0.53108 0.88457 0.71103 0.0
Dy323 Dy 0.58936 0.93793 0.49842 0.0
O324 O 0.51759 0.89233 0.65999 0.0
O325 O 0.5574 0.88642 0.69859 0.0
O326 O 0.51698 0.92791 0.56701 0.0
O327 O 0.55525 0.9477 0.56755 0.0
C328 C 0.52993 0.95031 0.55472 0.0
C329 C 0.61291 0.89426 0.55258 0.0
O330 O 0.60179 0.96326 0.58986 0.0
O331 O 0.58248 0.93353 0.66377 0.0
O332 O 0.61159 0.94522 0.40097 0.0
O333 O 0.58553 0.97658 0.44243 0.0
O334 O 0.62686 0.91555 0.53419 0.0
O335 O 0.58824 0.89624 0.53357 0.0
O336 O 0.53917 0.88348 0.50378 0.0
O337 O 0.556 0.9171 0.43659 0.0
C338 C 0.5979 0.95549 0.65107 0.0
C339 C 0.54013 0.89542 0.44608 0.0
Dy340 Dy 0.33818 0.29815 0.88096 0.0
C341 C 0.26977 0.3423 0.66895 0.0
C342 C 0.36716 0.27282 0.97805 0.0
Dy343 Dy 0.30197 0.33083 0.77869 0.0
O344 O 0.365 0.2995 0.97327 0.0
O345 O 0.35598 0.26047 0.92574 0.0
O346 O 0.29999 0.28114 0.92081 0.0
O347 O 0.30144 0.29033 0.82092 0.0
C348 C 0.28622 0.28254 0.86656 0.0
C349 C 0.34403 0.35849 0.84153 0.0
O350 O 0.2783 0.34032 0.87396 0.0
O351 O 0.31498 0.33068 0.94388 0.0
O352 O 0.29624 0.34692 0.6757 0.0
O353 O 0.26077 0.3328 0.72403 0.0
O354 O 0.32175 0.3703 0.82033 0.0
O355 O 0.34382 0.33339 0.8212 0.0
O356 O 0.35256 0.27623 0.78372 0.0
O357 O 0.32411 0.2996 0.71193 0.0
C358 C 0.28983 0.34096 0.93403 0.0
C359 C 0.34276 0.28036 0.72318 0.0
Dy360 Dy 0.92874 0.07454 1.02286 0.0
C361 C 0.87946 0.01049 0.22349 0.0
C362 C 0.96274 0.08615 0.91768 0.0
Dy363 Dy 0.89453 0.03767 0.11538 0.0
O364 O 0.93611 0.09016 0.92054 0.0
O365 O 0.97083 0.07752 0.97416 0.0
O366 O 0.90984 0.1136 0.06751 0.0
O367 O 0.88771 0.07652 0.06913 0.0
C368 C 0.88858 0.10134 0.09284 0.0
C369 C 0.9387 0.01392 0.05632 0.0
O370 O 0.87289 0.02403 1.02135 0.0
O371 O 0.90607 0.04318 0.95418 0.0
O372 O 0.90428 0.01445 0.20276 0.0
O373 O 0.86172 0.02153 0.18409 0.0
O374 O 0.91577 0.00101 0.06611 0.0
O375 O 0.93587 0.03854 0.07735 0.0
O376 O 0.95349 0.08031 0.11914 0.0
O377 O 0.91749 0.06722 0.18612 0.0
C378 C 0.8843 0.02692 0.96241 0.0
C379 C 0.94268 0.07759 0.17933 0.0
Dy380 Dy 0.17865 0.6871 0.2651 0.0
C381 C 0.22064 0.609 0.45495 0.0
C382 C 0.17061 0.72191 0.16433 0.0
Dy383 Dy 0.20655 0.64329 0.35725 0.0
O384 O 0.16277 0.69625 0.1639 0.0
O385 O 0.18196 0.72895 0.22137 0.0
O386 O 0.13634 0.67424 0.29241 0.0
O387 O 0.16895 0.64601 0.29864 0.0
C388 C 0.14421 0.65113 0.31631 0.0
C389 C 0.23916 0.68366 0.31935 0.0
O390 O 0.21459 0.62251 0.25596 0.0
O391 O 0.2073 0.66216 0.19838 0.0
O392 O 0.23626 0.61525 0.40599 0.0
O393 O 0.19645 0.62026 0.44793 0.0
O394 O 0.24901 0.66111 0.34136 0.0
O395 O 0.21375 0.68435 0.32974 0.0
O396 O 0.17415 0.71083 0.36471 0.0
O397 O 0.18735 0.67506 0.43102 0.0
C398 C 0.21649 0.63656 0.20149 0.0
C399 C 0.1773 0.70045 0.42409 0.0
Dy400 Dy 0.55045 0.08463 0.11308 0.0
C401 C 0.6114 0.02686 0.88988 0.0
C402 C 0.52201 0.10146 0.22766 0.0
Dy403 Dy 0.58501 0.04951 1.00172 0.0
O404 O 0.54867 0.09851 0.22195 0.0
O405 O 0.51084 0.09603 0.16966 0.0
O406 O 0.57181 0.12315 0.08534 0.0
O407 O 0.59223 0.08554 0.06851 0.0
C408 C 0.59273 0.11075 0.05596 0.0
C409 C 0.54172 0.02341 0.04417 0.0
O410 O 0.60231 0.033 0.09835 0.0
O411 O 0.56637 0.04943 0.16621 0.0
O412 O 0.61206 0.01722 0.94831 0.0
O413 O 0.59829 0.05032 0.89437 0.0
O414 O 0.5616 0.01089 1.0119 0.0
O415 O 0.54407 0.04919 0.04241 0.0
O416 O 0.52431 0.09296 1.02517 0.0
O417 O 0.5554 0.07599 0.94383 0.0
C418 C 0.58777 0.03295 0.15495 0.0
C419 C 0.53209 0.08933 0.96209 0.0
Dy420 Dy 0.15088 0.29743 0.35851 0.0
C421 C 0.22262 0.35381 0.17229 0.0
C422 C 0.12927 0.2699 0.46249 0.0
Dy423 Dy 0.19111 0.32735 0.26233 0.0
O424 O 0.1283 0.29649 0.4563 0.0
O425 O 0.14109 0.25822 0.41 0.0
O426 O 0.11525 0.31925 0.3125 0.0
O427 O 0.15396 0.33817 0.31764 0.0
C428 C 0.12997 0.33995 0.29434 0.0
C429 C 0.20367 0.27532 0.28418 0.0
O430 O 0.20986 0.34228 0.36303 0.0
O431 O 0.18146 0.31717 0.43091 0.0
O432 O 0.23183 0.34253 0.2247 0.0
O433 O 0.19568 0.35273 0.17252 0.0
O434 O 0.20777 0.28624 0.22832 0.0
O435 O 0.19337 0.29304 0.32463 0.0
O436 O 0.14524 0.27127 0.26301 0.0
O437 O 0.16081 0.30432 0.19308 0.0
C438 C 0.20285 0.33386 0.42286 0.0
C439 C 0.14852 0.28025 0.20247 0.0
Dy440 Dy 0.93226 0.90928 0.66934 0.0
C441 C 0.86256 0.96028 0.47243 0.0
C442 C 0.96731 0.9005 0.77396 0.0
Dy443 Dy 0.893 0.94215 0.57695 0.0
O444 O 0.94637 0.88476 0.75632 0.0
O445 O 0.96949 0.91982 0.73259 0.0
O446 O 0.91613 0.86951 0.62173 0.0
O447 O 0.89045 0.90441 0.62841 0.0
C448 C 0.89295 0.88018 0.60198 0.0
C449 C 0.93608 0.97055 0.62823 0.0
O450 O 0.87138 0.95238 0.67368 0.0
O451 O 0.90719 0.93715 0.73963 0.0
O452 O 0.87037 0.97509 0.52462 0.0
O453 O 0.87024 0.93506 0.48046 0.0
O454 O 0.9131 0.98195 0.61136 0.0
O455 O 0.9348 0.94529 0.6114 0.0
O456 O 0.95786 0.90465 0.5756 0.0
O457 O 0.92415 0.92094 0.50483 0.0
C458 C 0.8839 0.9511 0.732 0.0
C459 C 0.94876 0.90921 0.5148 0.0
Dy460 Dy 0.3244 0.68459 0.91938 0.0
C461 C 0.26981 0.61272 0.7109 0.0
C462 C 0.33503 0.71845 1.03143 0.0
Dy463 Dy 0.29021 0.64495 0.81635 0.0
O464 O 0.33648 0.69161 1.02697 0.0
O465 O 0.32918 0.72694 0.97315 0.0
O466 O 0.36479 0.66737 0.88366 0.0
O467 O 0.32909 0.64284 0.87185 0.0
C468 C 0.35422 0.64505 0.85447 0.0
C469 C 0.26354 0.69009 0.86861 0.0
O470 O 0.2821 0.62381 0.91034 0.0
O471 O 0.29368 0.66212 0.98003 0.0
O472 O 0.25626 0.62011 0.76442 0.0
O473 O 0.29486 0.62222 0.71621 0.0
O474 O 0.25086 0.66858 0.84218 0.0
O475 O 0.28861 0.68647 0.85759 0.0
O476 O 0.32805 0.70863 0.82663 0.0
O477 O 0.31227 0.67395 0.75018 0.0
C478 C 0.28214 0.63743 0.96945 0.0
C479 C 0.32364 0.69872 0.76421 0.0
Dy480 Dy 0.40514 0.05236 0.69477 0.0
C481 C 0.46588 0.1069 0.48533 0.0
C482 C 0.39202 0.02098 0.80164 0.0
Dy483 Dy 0.44145 0.08611 0.59604 0.0
O484 O 0.40056 0.0115 0.7435 0.0
O485 O 0.3895 0.04772 0.80023 0.0
O486 O 0.3673 0.07465 0.66078 0.0
O487 O 0.40593 0.09408 0.65974 0.0
C488 C 0.38114 0.09584 0.64135 0.0
C489 C 0.46469 0.04146 0.64247 0.0
O490 O 0.45421 0.10838 0.6919 0.0
O491 O 0.43938 0.07258 0.75556 0.0
O492 O 0.47861 0.09745 0.53562 0.0
O493 O 0.43943 0.10696 0.49784 0.0
O494 O 0.47804 0.0636 0.62972 0.0
O495 O 0.43974 0.04414 0.62733 0.0
O496 O 0.39426 0.02797 0.59957 0.0
O497 O 0.41351 0.05923 0.52908 0.0
C498 C 0.45393 0.09542 0.74819 0.0
C499 C 0.39832 0.03694 0.53929 0.0
Dy500 Dy 0.68544 0.65456 0.42104 0.0
C501 C 0.63051 0.71273 0.2095 0.0
C502 C 0.71714 0.63859 0.52765 0.0
Dy503 Dy 0.65201 0.6903 0.32173 0.0
O504 O 0.69025 0.63738 0.52348 0.0
O505 O 0.72641 0.6477 0.47268 0.0
O506 O 0.66448 0.61656 0.37524 0.0
O507 O 0.64387 0.65445 0.37729 0.0
C508 C 0.64313 0.62981 0.35368 0.0
C509 C 0.69606 0.71492 0.37774 0.0
O510 O 0.63049 0.70413 0.41708 0.0
O511 O 0.66593 0.68898 0.48461 0.0
O512 O 0.63828 0.72635 0.26348 0.0
O513 O 0.6324 0.68644 0.21896 0.0
O514 O 0.6736 0.72759 0.36255 0.0
O515 O 0.69374 0.68962 0.36053 0.0
O516 O 0.71093 0.64379 0.33 0.0
O517 O 0.68091 0.66356 0.25586 0.0
C518 C 0.64351 0.70409 0.47534 0.0
C519 C 0.70304 0.64825 0.26854 0.0
Dy520 Dy 0.08718 0.94582 0.07397 0.0
C521 C 0.02044 0.89784 0.27842 0.0
C522 C 0.11407 0.96601 0.96741 0.0
Dy523 Dy 0.05223 0.90996 0.169 0.0
O524 O 0.10974 0.97957 1.02377 0.0
O525 O 0.10487 0.94098 0.97074 0.0
O526 O 0.06522 0.98406 0.1116 0.0
O527 O 0.04557 0.94618 0.11253 0.0
C528 C 0.04308 0.9714 0.1294 0.0
C529 C 0.09426 0.88373 0.10314 0.0
O530 O 0.02587 0.90386 0.07636 0.0
O531 O 0.05698 0.92316 1.0039 0.0
O532 O 0.04705 0.90165 0.27776 0.0
O533 O 0.0115 0.89888 0.21795 0.0
O534 O 0.07284 0.87111 0.12643 0.0
O535 O 0.09389 0.90856 0.12575 0.0
O536 O 0.10972 0.95616 0.16943 0.0
O537 O 0.07303 0.94289 0.23477 0.0
C538 C 0.03388 0.90928 1.01537 0.0
C539 C 0.09677 0.95604 0.2274 0.0
Dy540 Dy 0.78845 0.34402 0.84314 0.0
C541 C 0.83196 0.26848 1.037 0.0
C542 C 0.77057 0.37402 0.73997 0.0
Dy543 Dy 0.82052 0.30346 0.93702 0.0
O544 O 0.75622 0.36898 0.7921 0.0
O545 O 0.79531 0.36404 0.74652 0.0
O546 O 0.74815 0.32277 0.86238 0.0
O547 O 0.78505 0.30249 0.87266 0.0
C548 C 0.7597 0.30066 0.88257 0.0
C549 C 0.85148 0.3426 0.88526 0.0
O550 O 0.82501 0.27909 0.8371 0.0
O551 O 0.81014 0.31408 0.77058 0.0
O552 O 0.83326 0.29533 0.04212 0.0
O553 O 0.82514 0.26075 0.97636 0.0
O554 O 0.86148 0.32023 0.90894 0.0
O555 O 0.82633 0.34505 0.90209 0.0
O556 O 0.7793 0.36527 0.9426 0.0
O557 O 0.78925 0.32662 1.00205 0.0
C558 C 0.82076 0.28906 0.77756 0.0
C559 C 0.77802 0.35147 0.99747 0.0
Dy560 Dy 0.41141 0.94234 0.19177 0.0
C561 C 0.47475 0.89045 0.96789 0.0
C562 C 0.38353 0.97062 0.2935 0.0
Dy563 Dy 0.44413 0.9068 0.07894 0.0
O564 O 0.39218 0.98093 0.2394 0.0
O565 O 0.38787 0.94403 0.28884 0.0
O566 O 0.45028 0.96375 0.22336 0.0
O567 O 0.44525 0.94846 0.12529 0.0
C568 C 0.46207 0.95902 0.16661 0.0
C569 C 0.40452 0.87994 0.14343 0.0
O570 O 0.47076 0.90068 0.16791 0.0
O571 O 0.43737 0.91222 0.24787 0.0
O572 O 0.44817 0.88724 0.97482 0.0
O573 O 0.48473 0.90192 1.02283 0.0
O574 O 0.42554 0.86789 0.11365 0.0
O575 O 0.40388 0.90497 0.12943 0.0
O576 O 0.39371 0.96065 0.09779 0.0
O577 O 0.42092 0.93613 1.01855 0.0
C578 C 0.46205 0.90176 0.23042 0.0
C579 C 0.4021 0.95524 1.03494 0.0
Dy580 Dy 0.79487 0.64838 0.92603 0.0
C581 C 0.84925 0.71535 0.73063 0.0
C582 C 0.76923 0.62512 1.03112 0.0
Dy583 Dy 0.83216 0.68277 0.83034 0.0
O584 O 0.7582 0.62928 0.97419 0.0
O585 O 0.7954 0.63128 1.02824 0.0
O586 O 0.75702 0.67009 0.89779 0.0
O587 O 0.79578 0.6895 0.8925 0.0
C588 C 0.77071 0.69072 0.87708 0.0
C589 C 0.85609 0.64077 0.8899 0.0
O590 O 0.84015 0.7083 0.92437 0.0
O591 O 0.81917 0.67864 0.99623 0.0
O592 O 0.85755 0.69015 0.73842 0.0
O593 O 0.83235 0.72276 0.77854 0.0
O594 O 0.86953 0.66227 0.8711 0.0
O595 O 0.8318 0.64118 0.86732 0.0
O596 O 0.78254 0.62816 0.82486 0.0
O597 O 0.80113 0.66235 0.76158 0.0
C598 C 0.83425 0.7011 0.98521 0.0
C599 C 0.78506 0.64054 0.76759 0.0
Dy600 Dy 0.08512 0.03666 0.61346 0.0
C601 C 0.01214 0.08453 0.42009 0.0
C602 C 0.11369 0.01594 0.71697 0.0
Dy603 Dy 0.04768 0.0727 0.52261 0.0
O604 O 0.10575 0.0018 0.66379 0.0
O605 O 0.10709 0.04169 0.71186 0.0
O606 O 0.06342 -0.00143 0.57328 0.0
O607 O 0.04333 0.03615 0.57762 0.0
C608 C 0.04083 0.01126 0.55856 0.0
C609 C 0.08879 0.09889 0.59086 0.0
O610 O 0.02313 0.07849 0.61801 0.0
O611 O 0.05545 0.05862 0.68672 0.0
O612 O 0.03814 0.09159 0.42441 0.0
O613 O 0.00555 0.07229 0.47336 0.0
O614 O 0.06631 0.11128 0.57213 0.0
O615 O 0.08946 0.07474 0.5638 0.0
O616 O 0.10763 0.02853 0.51745 0.0
O617 O 0.07086 0.04264 0.4529 0.0
C618 C 0.0319 0.07239 0.67808 0.0
C619 C 0.09474 0.02947 0.45952 0.0
Dy620 Dy 0.69699 0.34811 0.37375 0.0
C621 C 0.6527 0.27247 0.16102 0.0
C622 C 0.71885 0.37701 0.4834 0.0
Dy623 Dy 0.6629 0.30744 0.27252 0.0
O624 O 0.73185 0.37059 0.42852 0.0
O625 O 0.69327 0.3692 0.47644 0.0
O626 O 0.73614 0.32571 0.34366 0.0
O627 O 0.69862 0.30592 0.33557 0.0
C628 C 0.72369 0.30324 0.32251 0.0
C629 C 0.6334 0.34813 0.33445 0.0
O630 O 0.65822 0.28439 0.36713 0.0
O631 O 0.6744 0.31989 0.44029 0.0
O632 O 0.65114 0.29931 0.16416 0.0
O633 O 0.65851 0.26473 0.21999 0.0
O634 O 0.62257 0.32559 0.30688 0.0
O635 O 0.65853 0.34968 0.31699 0.0
O636 O 0.7055 0.36863 0.2793 0.0
O637 O 0.6942 0.32942 0.21203 0.0
C638 C 0.66282 0.29513 0.42883 0.0
C639 C 0.70587 0.35416 0.2212 0.0
C640 C 0.11734 0.48013 0.2391 0.0
C641 C 0.09109 0.47178 0.21492 0.0
C642 C 0.12012 0.49621 0.29978 0.0
C643 C 0.0967 0.50447 0.33764 0.0
H644 H 0.13577 0.47352 0.21217 0.0
H645 H 0.14061 0.50159 0.31787 0.0
S646 S 0.02349 0.49161 0.2902 0.0
N647 N 0.04145 0.47539 0.23041 0.0
N648 N 0.04655 0.50557 0.3423 0.0
C649 C 0.07049 0.49737 0.31183 0.0
C650 C 0.06772 0.48106 0.25106 0.0
C651 C 0.76434 0.85686 0.59495 0.0
C652 C 0.73523 0.85653 0.59254 0.0
C653 C 0.7804 0.85129 0.53786 0.0
C654 C 0.76817 0.8455 0.47534 0.0
H655 H 0.77492 0.85996 0.64199 0.0
H656 H 0.80265 0.85056 0.54343 0.0
S657 S 0.69267 0.84413 0.44097 0.0
N658 N 0.69476 0.85145 0.52159 0.0
N659 N 0.72488 0.84141 0.41414 0.0
C660 C 0.73906 0.84672 0.47147 0.0
C661 C 0.72264 0.85216 0.53 0.0
C662 C 0.34205 0.52246 0.83415 0.0
C663 C 0.34357 0.50515 0.77579 0.0
C664 C 0.34378 0.51154 0.89669 0.0
C665 C 0.34706 0.48297 0.90294 0.0
H666 H 0.34207 0.54473 0.83162 0.0
H667 H 0.34492 0.52581 0.93996 0.0
S668 S 0.34602 0.42853 0.76588 0.0
N669 N 0.34368 0.45781 0.72865 0.0
N670 N 0.34707 0.43733 0.84593 0.0
C671 C 0.34525 0.46529 0.84534 0.0
C672 C 0.34341 0.47639 0.78172 0.0
C673 C 0.72416 0.11244 0.1304 0.0
C674 C 0.75309 0.11133 0.13795 0.0
C675 C 0.7119 0.11145 0.06733 0.0
C676 C 0.72814 0.10927 1.00958 0.0
H677 H 0.71096 0.11594 0.17332 0.0
H678 H 0.68973 0.11439 0.06399 0.0
S679 S 0.80444 0.10082 1.00259 0.0
N680 N 0.79732 0.10442 0.0824 0.0
N681 N 0.77437 0.10225 0.96418 0.0
C682 C 0.75686 0.10557 1.01659 0.0
C683 C 0.76932 0.10671 0.08074 0.0
C684 C 0.89531 0.53271 0.91401 0.0
C685 C 0.89631 0.52063 0.97574 0.0
C686 C 0.89218 0.51663 0.85417 0.0
C687 C 0.88978 0.48767 0.853 0.0
H688 H 0.89798 0.55482 0.91143 0.0
H689 H 0.8929 0.52695 0.80823 0.0
S690 S 0.8888 0.44569 1.00051 0.0
N691 N 0.89278 0.47775 1.0316 0.0
N692 N 0.8867 0.44767 0.9195 0.0
C693 C 0.88907 0.4754 0.91441 0.0
C694 C 0.89234 0.4918 0.97557 0.0
C695 C 0.243 0.13375 0.69655 0.0
C696 C 0.21402 0.13692 0.69322 0.0
C697 C 0.2593 0.13023 0.63865 0.0
C698 C 0.24731 0.12964 0.575 0.0
H699 H 0.2534 0.13555 0.744 0.0
H700 H 0.28159 0.12965 0.64388 0.0
S701 S 0.17223 0.13292 0.53828 0.0
N702 N 0.17401 0.13626 0.61975 0.0
N703 N 0.20448 0.12941 0.5125 0.0
C704 C 0.21831 0.13072 0.57111 0.0
C705 C 0.20175 0.13443 0.62968 0.0
C706 C 0.64336 0.52736 0.33719 0.0
C707 C 0.64218 0.50984 0.27919 0.0
C708 C 0.64589 0.51653 0.39964 0.0
C709 C 0.64725 0.48781 0.40622 0.0
H710 H 0.63997 0.54939 0.33494 0.0
H711 H 0.64413 0.53063 0.44308 0.0
S712 S 0.65226 0.43377 0.26876 0.0
N713 N 0.64803 0.46289 0.23154 0.0
N714 N 0.65281 0.44258 0.34887 0.0
C715 C 0.64979 0.47045 0.34823 0.0
C716 C 0.64719 0.48147 0.2846 0.0
C717 C 0.23539 0.89022 0.17567 0.0
C718 C 0.26428 0.88978 0.18442 0.0
C719 C 0.22357 0.88841 0.1122 0.0
C720 C 0.24017 0.88632 0.05505 0.0
H721 H 0.22174 0.88965 0.21798 0.0
H722 H 0.20129 0.8867 0.10808 0.0
S723 S 0.31683 0.88994 0.05088 0.0
N724 N 0.30914 0.89135 0.1305 0.0
N725 N 0.28694 0.88815 1.01129 0.0
C726 C 0.269 0.88894 0.06302 0.0
C727 C 0.28106 0.89067 0.12777 0.0
C728 C 0.61481 0.98033 0.82887 0.0
C729 C 0.6146 0.00936 0.82701 0.0
C730 C 0.61099 0.96301 0.77117 0.0
C731 C 0.60738 0.97391 0.70878 0.0
H732 H 0.61611 0.97084 0.87586 0.0
H733 H 0.60976 0.94089 0.77596 0.0
S734 S 0.60799 0.04853 0.67602 0.0
N735 N 0.61235 0.04817 0.75689 0.0
N736 N 0.60607 0.01581 0.64838 0.0
C737 C 0.60924 0.00286 0.70558 0.0
C738 C 0.61257 0.02052 0.76465 0.0
C739 C 0.24422 0.35256 0.99093 0.0
C740 C 0.27327 0.35017 0.99425 0.0
C741 C 0.22792 0.35607 0.04875 0.0
C742 C 0.23998 0.35733 0.11232 0.0
H743 H 0.23378 0.35013 0.94359 0.0
H744 H 0.20562 0.35606 0.04357 0.0
S745 S 0.31517 0.35628 0.14882 0.0
N746 N 0.31339 0.35254 0.06737 0.0
N747 N 0.28287 0.35894 0.17474 0.0
C748 C 0.26901 0.35698 0.11619 0.0
C749 C 0.28559 0.35345 0.0576 0.0
C750 C 0.84722 -0.00505 0.31234 0.0
C751 C 0.87392 -0.00362 0.28485 0.0
C752 C 0.84296 0.98277 0.37315 0.0
C753 C 0.8653 0.97161 0.40714 0.0
H754 H 0.82972 0.00369 0.28749 0.0
H755 H 0.82233 0.98235 0.39387 0.0
S756 S 0.93906 0.97055 0.35744 0.0
N757 N 0.92288 0.98553 0.29751 0.0
N758 N 0.91467 0.96311 0.41033 0.0
C759 C 0.89184 0.9728 0.37992 0.0
C760 C 0.89622 0.98505 0.31901 0.0
C761 C 0.21566 0.60455 0.57667 0.0
C762 C 0.23186 0.60077 0.51908 0.0
C763 C 0.22787 0.60567 0.63977 0.0
C764 C 0.2567 0.60321 0.64735 0.0
H765 H 0.19375 0.60891 0.573 0.0
H766 H 0.21488 0.61076 0.68238 0.0
S767 S 0.30738 0.58678 0.51325 0.0
N768 N 0.27755 0.58968 0.47444 0.0
N769 N 0.30041 0.59217 0.59285 0.0
C770 C 0.27265 0.59641 0.59069 0.0
C771 C 0.26022 0.59506 0.52652 0.0
C772 C 0.38667 0.9913 0.4782 0.0
C773 C 0.3884 0.02036 0.47911 0.0
C774 C 0.38273 0.97518 0.41838 0.0
C775 C 0.38014 0.98751 0.35728 0.0
H776 H 0.39017 0.98082 0.5232 0.0
H777 H 0.38346 0.95288 0.41962 0.0
S778 S 0.37842 0.06288 0.3343 0.0
N779 N 0.38388 0.06074 0.4143 0.0
N780 N 0.37608 0.03069 0.30313 0.0
C781 C 0.37955 0.01656 0.35851 0.0
C782 C 0.38382 0.03289 0.41901 0.0
C783 C 0.72378 0.62915 0.0899 0.0
C784 C 0.75257 0.6249 0.09324 0.0
C785 C 0.70795 0.63548 0.14702 0.0
C786 C 0.72002 0.63747 0.21053 0.0
H787 H 0.71348 0.62914 0.04236 0.0
H788 H 0.68612 0.63969 0.14089 0.0
S789 S 0.79398 0.62415 0.24737 0.0
N790 N 0.79212 0.62057 0.16582 0.0
N791 N 0.76227 0.63145 0.27347 0.0
C792 C 0.74844 0.63113 0.21507 0.0
C793 C 0.76471 0.62513 0.15646 0.0
C794 C 0.12028 0.96245 0.84466 0.0
C795 C 0.12109 0.97872 0.90465 0.0
C796 C 0.12023 0.97463 0.78346 0.0
C797 C 0.12097 0.00354 0.77996 0.0
H798 H 0.11796 0.94022 0.84492 0.0
H799 H 0.11782 0.96133 0.73883 0.0
S800 S 0.12783 0.05511 0.92219 0.0
N801 N 0.1262 0.02507 0.95639 0.0
N802 N 0.12604 0.0479 0.84152 0.0
C803 C 0.12421 0.01988 0.8393 0.0
C804 C 0.1243 0.00748 0.90166 0.0
C805 C 0.71674 0.38408 0.607 0.0
C806 C 0.73256 0.38323 0.54854 0.0
C807 C 0.72935 0.38336 0.66952 0.0
C808 C 0.7583 0.38163 0.67608 0.0
H809 H 0.69436 0.38364 0.60434 0.0
H810 H 0.71619 0.38239 0.7126 0.0
S811 S 0.80929 0.38269 0.53935 0.0
N812 N 0.77894 0.38366 0.50204 0.0
N813 N 0.80251 0.38209 0.61919 0.0
C814 C 0.77442 0.38288 0.61851 0.0
C815 C 0.76159 0.38375 0.55484 0.0
C816 C 0.10527 0.34316 0.18683 0.0
C817 C 0.12406 0.35451 0.23401 0.0
C818 C 0.10124 0.35525 0.12643 0.0
C819 C 0.11568 0.37922 0.11128 0.0
H820 H 0.09381 0.3246 0.19616 0.0
H821 H 0.08621 0.34611 0.09192 0.0
S822 S 0.16726 0.41691 0.21849 0.0
N823 N 0.15733 0.39088 0.26179 0.0
N824 N 0.14976 0.41374 0.14835 0.0
C825 C 0.13481 0.39057 0.15774 0.0
C826 C 0.13887 0.37826 0.21927 0.0
C827 C 0.85435 0.88254 0.51967 0.0
C828 C 0.88016 0.87166 0.53694 0.0
C829 C 0.84365 0.87827 0.45515 0.0
C830 C 0.85798 0.8622 0.40596 0.0
H831 H 0.84268 0.89521 0.55576 0.0
H832 H 0.82373 0.88716 0.44424 0.0
S833 S 0.9258 0.82799 0.42593 0.0
N834 N 0.91956 0.84361 0.4992 0.0
N835 N 0.89891 0.83479 0.37929 0.0
C836 C 0.8834 0.85054 0.42306 0.0
C837 C 0.89452 0.85525 0.48829 0.0
C838 C 0.35288 0.61108 0.75501 0.0
C839 C 0.36711 0.63135 0.79418 0.0
C840 C 0.36295 0.6015 0.69241 0.0
C841 C 0.38861 0.61034 0.66882 0.0
H842 H 0.33374 0.60274 0.77275 0.0
H843 H 0.35066 0.58693 0.66239 0.0
S844 S 0.43637 0.6599 0.75752 0.0
N845 N 0.40942 0.65831 0.80708 0.0
N846 N 0.42919 0.63889 0.6926 0.0
C847 C 0.4038 0.6295 0.70932 0.0
C848 C 0.39309 0.64 0.77165 0.0
C849 C 0.63203 0.11406 0.89306 0.0
C850 C 0.62417 0.14003 0.87171 0.0
C851 C 0.62298 0.10508 0.9544 0.0
C852 C 0.60561 0.12168 0.9962 0.0
H853 H 0.64516 0.10056 0.86207 0.0
H854 H 0.62928 0.08485 0.96872 0.0
S855 S 0.58174 0.19275 0.96677 0.0
N856 N 0.59954 0.18301 0.89992 0.0
N857 N 0.58308 0.16637 1.01436 0.0
C858 C 0.59859 0.14811 0.97647 0.0
C859 C 0.60754 0.15713 0.91424 0.0
C860 C 0.12389 0.60647 0.45726 0.0
C861 C 0.10628 0.62416 0.49569 0.0
C862 C 0.13621 0.61511 0.39892 0.0
C863 C 0.13145 0.64178 0.37766 0.0
H864 H 0.12795 0.58578 0.47201 0.0
H865 H 0.14927 0.60077 0.37003 0.0
S866 S 0.09053 0.69746 0.46678 0.0
N867 N 0.08728 0.67055 0.51217 0.0
N868 N 0.11011 0.68674 0.40371 0.0
C869 C 0.11493 0.66005 0.41765 0.0
C870 C 0.10257 0.65131 0.47662 0.0
C871 C 0.63872 0.89099 0.65924 0.0
C872 C 0.61994 0.87946 0.61217 0.0
C873 C 0.64242 0.87937 0.72052 0.0
C874 C 0.6275 0.85583 0.73694 0.0
H875 H 0.6501 0.90956 0.64954 0.0
H876 H 0.65716 0.88884 0.75529 0.0
S877 S 0.57696 0.81697 0.62897 0.0
N878 N 0.58713 0.84263 0.5848 0.0
N879 N 0.59392 0.82084 0.69974 0.0
C880 C 0.60895 0.8439 0.6898 0.0
C881 C 0.60533 0.85563 0.62738 0.0
C882 C 0.35853 0.39456 1.01021 0.0
C883 C 0.38483 0.38458 1.02617 0.0
C884 C 0.346 0.38708 0.94904 0.0
C885 C 0.35897 0.36865 0.90227 0.0
H886 H 0.34769 0.40864 0.04488 0.0
H887 H 0.32565 0.39525 0.93917 0.0
S888 S 0.42757 0.33586 0.92031 0.0
N889 N 0.42339 0.35504 0.98986 0.0
N890 N 0.39929 0.34025 0.87639 0.0
C891 C 0.38499 0.35807 0.9181 0.0
C892 C 0.39798 0.36603 0.97982 0.0
C893 C 0.88023 0.14322 0.25631 0.0
C894 C 0.8594 0.12925 0.28952 0.0
C895 C 0.88853 0.13456 0.19206 0.0
C896 C 0.87663 0.11133 0.15797 0.0
H897 H 0.88998 0.16145 0.27955 0.0
H898 H 0.90481 0.14607 0.16943 0.0
S899 S 0.82097 0.06764 0.22259 0.0
N900 N 0.82722 0.09082 0.28401 0.0
N901 N 0.84222 0.07492 0.16204 0.0
C902 C 0.85566 0.09717 0.1904 0.0
C903 C 0.84732 0.10595 0.25645 0.0
C904 C 0.88525 0.63128 0.0608 0.0
C905 C 0.87247 0.60683 0.07885 0.0
C906 C 0.88052 0.64167 0.99868 0.0
C907 C 0.86267 0.62805 0.95246 0.0
H908 H 0.89958 0.64213 0.09435 0.0
H909 H 0.89075 0.66066 0.9872 0.0
S910 S 0.82367 0.56359 0.97559 0.0
N911 N 0.84076 0.56948 0.04567 0.0
N912 N 0.8319 0.58914 0.92898 0.0
C913 C 0.84941 0.60385 0.97017 0.0
C914 C 0.85416 0.59328 1.0335 0.0
C915 C 0.09135 0.12558 0.70111 0.0
C916 C 0.10344 0.10672 0.6539 0.0
C917 C 0.10363 0.13139 0.76344 0.0
C918 C 0.12836 0.11846 0.78136 0.0
H919 H 0.07207 0.13575 0.69024 0.0
H920 H 0.09381 0.14641 0.79768 0.0
S921 S 0.1689 0.06818 0.67457 0.0
N922 N 0.14213 0.07591 0.62843 0.0
N923 N 0.16472 0.08611 0.74592 0.0
C924 C 0.1406 0.09944 0.73466 0.0
C925 C 0.12835 0.09392 0.67078 0.0
C926 C 0.63614 0.38225 0.43315 0.0
C927 C 0.62103 0.3625 0.39441 0.0
C928 C 0.62646 0.39255 0.4955 0.0
C929 C 0.60043 0.38488 0.51933 0.0
H930 H 0.65573 0.38954 0.41537 0.0
H931 H 0.63938 0.40671 0.52516 0.0
S932 S 0.55079 0.33676 0.43223 0.0
N933 N 0.57776 0.33711 0.3824 0.0
N934 N 0.55878 0.35778 0.49657 0.0
C935 C 0.5845 0.36612 0.47943 0.0
C936 C 0.59477 0.35495 0.41728 0.0
C937 C 0.36005 0.87453 0.29744 0.0
C938 C 0.3673 0.84842 0.31885 0.0
C939 C 0.37112 0.88416 0.2388 0.0
C940 C 0.39038 0.86836 0.20061 0.0
H941 H 0.34564 0.88753 0.32604 0.0
H942 H 0.36466 0.90416 0.22342 0.0
S943 S 0.41455 0.79762 0.23229 0.0
N944 N 0.39368 0.80619 0.29464 0.0
N945 N 0.4148 0.82452 0.18616 0.0
C946 C 0.39732 0.84197 0.22081 0.0
C947 C 0.38591 0.83208 0.27983 0.0
C948 C 0.89554 0.34594 0.73213 0.0
C949 C 0.88644 0.36996 0.7033 0.0
C950 C 0.88458 0.33804 0.7918 0.0
C951 C 0.86377 0.35364 0.82531 0.0
H952 H 0.91165 0.33317 0.70896 0.0
H953 H 0.89232 0.31916 0.81111 0.0
S954 S 0.83274 0.41852 0.7713 0.0
N955 N 0.85502 0.40924 0.71205 0.0
N956 N 0.83503 0.39483 0.82649 0.0
C957 C 0.85453 0.3779 0.79761 0.0
C958 C 0.86563 0.38589 0.73597 0.0
C959 C 0.3489 0.11163 0.47691 0.0
C960 C 0.36452 0.13434 0.45831 0.0
C961 C 0.3533 0.10001 0.53796 0.0
C962 C 0.37342 0.11083 0.58259 0.0
H963 H 0.33336 0.10256 0.4437 0.0
H964 H 0.34148 0.0819 0.54916 0.0
S965 S 0.41793 0.17184 0.56062 0.0
N966 N 0.39979 0.16826 0.49152 0.0
N967 N 0.40768 0.14668 0.60625 0.0
C968 C 0.38846 0.13413 0.56562 0.0
C969 C 0.38422 0.14575 0.50336 0.0
C970 C 0.63179 0.59974 0.17771 0.0
C971 C 0.60545 0.60974 0.16193 0.0
C972 C 0.64347 0.60548 0.24068 0.0
C973 C 0.62952 0.62202 0.28964 0.0
H974 H 0.64316 0.58677 0.14167 0.0
H975 H 0.66376 0.59719 0.25064 0.0
S976 S 0.56072 0.6545 0.27261 0.0
N977 N 0.56605 0.63764 0.20037 0.0
N978 N 0.58851 0.64912 0.31748 0.0
C979 C 0.6036 0.63287 0.27385 0.0
C980 C 0.59151 0.62672 0.21019 0.0
C981 C 0.11022 0.84069 0.94488 0.0
C982 C 0.13197 0.85498 0.91562 0.0
C983 C 0.09898 0.84974 1.00617 0.0
C984 C 0.10894 0.87352 0.04162 0.0
H985 H 0.10171 0.82209 0.92041 0.0
H986 H 0.08196 0.83811 1.02535 0.0
S987 S 0.16588 0.91845 0.98815 0.0
N988 N 0.16245 0.89483 0.92619 0.0
N989 N 0.14292 0.91058 0.04451 0.0
C990 C 0.1311 0.88779 1.01396 0.0
C991 C 0.14212 0.87893 0.95018 0.0
C992 C 0.9686 0.49694 0.111 0.0
C993 C 0.98423 0.52097 0.12524 0.0
C994 C 0.98092 0.47323 0.08246 0.0
C995 C 0.00934 0.47265 0.06846 0.0
H996 H 0.94652 0.49664 0.12001 0.0
H997 H 0.96815 0.45504 0.07295 0.0
S998 S 0.05938 0.53017 0.09822 0.0
N999 N 0.02956 0.54276 0.12568 0.0
N1000 N 0.05269 0.49825 0.06993 0.0
C1001 C 0.02517 0.49661 0.08237 0.0
C1002 C 0.01269 0.52065 0.1123 0.0
C1003 C 0.7451 0.76707 0.31862 0.0
C1004 C 0.77007 0.75238 0.31639 0.0
C1005 C 0.72155 0.75566 0.34471 0.0
C1006 C 0.72209 0.72888 0.36777 0.0
H1007 H 0.74397 0.78793 0.30223 0.0
H1008 H 0.70263 0.76766 0.34466 0.0
S1009 S 0.7826 0.68246 0.37649 0.0
N1010 N 0.79427 0.70987 0.34098 0.0
N1011 N 0.74953 0.68864 0.39073 0.0
C1012 C 0.74692 0.71409 0.36672 0.0
C1013 C 0.77096 0.72559 0.33982 0.0
C1014 C 0.51114 0.49622 0.64662 0.0
C1015 C 0.52426 0.49492 0.58485 0.0
C1016 C 0.4826 0.4992 0.65099 0.0
C1017 C 0.46663 0.50109 0.59358 0.0
H1018 H 0.52301 0.49483 0.69176 0.0
H1019 H 0.47312 0.50071 0.69958 0.0
S1020 S 0.49097 0.49698 0.4199 0.0
N1021 N 0.51932 0.49495 0.46489 0.0
N1022 N 0.46524 0.49998 0.47345 0.0
C1023 C 0.47938 0.49942 0.53147 0.0
C1024 C 0.50845 0.49666 0.52697 0.0
C1025 C 0.73147 0.24022 0.7838 0.0
C1026 C 0.73764 0.21869 0.82444 0.0
C1027 C 0.73634 0.26755 0.80585 0.0
C1028 C 0.74726 0.27388 0.86928 0.0
H1029 H 0.72252 0.23588 0.73519 0.0
H1030 H 0.73258 0.2837 0.77218 0.0
S1031 S 0.76405 0.2251 0.99673 0.0
N1032 N 0.75314 0.20538 0.93254 0.0
N1033 N 0.76279 0.25715 0.97344 0.0
C1034 C 0.75295 0.25265 0.91081 0.0
C1035 C 0.74807 0.22484 0.88843 0.0
C1036 C 0.99136 0.49649 0.65987 0.0
C1037 C 0.98472 0.47261 0.6203 0.0
C1038 C 0.00115 0.51992 0.6314 0.0
C1039 C 0.00536 0.51999 0.56282 0.0
H1040 H 0.98808 0.49752 0.71292 0.0
H1041 H 0.00639 0.53785 0.66358 0.0
S1042 S 0.99091 0.46247 0.43783 0.0
N1043 N 0.98292 0.45018 0.50955 0.0
N1044 N 0.00135 0.49449 0.45554 0.0
C1045 C -0.00148 0.49634 0.5225 0.0
C1046 C 0.98865 0.47241 0.55159 0.0
C1047 C 0.77106 0.74048 0.86368 0.0
C1048 C 0.75732 0.7151 0.85623 0.0
C1049 C 0.75739 0.76457 0.84996 0.0
C1050 C 0.72985 0.76363 0.82828 0.0
H1051 H 0.79217 0.74185 0.88161 0.0
H1052 H 0.76842 0.78402 0.85644 0.0
S1053 S 0.68579 0.70166 0.7974 0.0
N1054 N 0.71554 0.68979 0.82369 0.0
N1055 N 0.68962 0.73549 0.7974 0.0
C1056 C 0.71602 0.7383 0.81985 0.0
C1057 C 0.72995 0.71378 0.83375 0.0
C1058 C 0.4844 0.49388 0.15249 0.0
C1059 C 0.46558 0.49716 0.101 0.0
C1060 C 0.51276 0.49504 0.1408 0.0
C1061 C 0.5229 0.49909 0.0771 0.0
H1062 H 0.47713 0.48974 0.20157 0.0
H1063 H 0.52682 0.49387 0.18229 0.0
S1064 S 0.48208 0.50586 0.9246 0.0
N1065 N 0.45878 0.50255 0.98329 0.0
N1066 N 0.51248 0.50522 0.96178 0.0
C1067 C 0.50436 0.5019 1.02506 0.0
C1068 C 0.4755 0.50088 1.03693 0.0
C1069 C 0.72812 0.22684 0.33038 0.0
C1070 C 0.75442 0.22325 0.35759 0.0
C1071 C 0.71936 0.25281 0.31388 0.0
C1072 C 0.73635 0.27611 0.325 0.0
H1073 H 0.71435 0.20945 0.32042 0.0
H1074 H 0.6987 0.25476 0.29444 0.0
S1075 S 0.80696 0.2778 0.39614 0.0
N1076 N 0.79748 0.2451 0.39512 0.0
N1077 N 0.78067 0.2942 0.36445 0.0
C1078 C 0.76281 0.27288 0.35152 0.0
C1079 C 0.77181 0.24637 0.36835 0.0
C1080 C 0.26024 0.24975 0.79461 0.0
C1081 C 0.26263 0.26501 0.85526 0.0
C1082 C 0.24123 0.22845 0.78739 0.0
C1083 C 0.22412 0.22224 0.84034 0.0
H1084 H 0.27374 0.25358 0.75341 0.0
H1085 H 0.23954 0.21705 0.73974 0.0
S1086 S 0.22177 0.2576 1.0079 0.0
N1087 N 0.24625 0.27364 0.96831 0.0
N1088 N 0.20998 0.23328 0.95452 0.0
C1089 C 0.22618 0.23751 0.90118 0.0
C1090 C 0.2455 0.25926 0.90845 0.0
C1091 C 0.26002 0.72218 0.3841 0.0
C1092 C 0.25421 0.7093 0.32168 0.0
C1093 C 0.26395 0.7507 0.39138 0.0
C1094 C 0.26232 0.7668 0.33635 0.0
H1095 H 0.25919 0.71052 0.42809 0.0
H1096 H 0.26689 0.76035 0.44055 0.0
S1097 S 0.25035 0.74154 0.16157 0.0
N1098 N 0.24885 0.71359 0.20398 0.0
N1099 N 0.25681 0.76737 0.21638 0.0
C1100 C 0.25807 0.75371 0.27303 0.0
C1101 C 0.25402 0.72477 0.26599 0.0
C1102 C 0.23676 0.2267 0.39325 0.0
C1103 C 0.26492 0.23095 0.38023 0.0
C1104 C 0.21666 0.23996 0.35803 0.0
C1105 C 0.22436 0.25743 0.30888 0.0
H1106 H 0.23018 0.21226 0.42893 0.0
H1107 H 0.19505 0.23684 0.3697 0.0
S1108 S 0.29552 0.27739 0.26225 0.0
N1109 N 0.29967 0.25493 0.31958 0.0
N1110 N 0.26178 0.28029 0.25239 0.0
C1111 C 0.25249 0.26237 0.29655 0.0
C1112 C 0.27287 0.24901 0.33285 0.0
C1113 C 0.2431 0.72498 0.8007 0.0
C1114 C 0.2529 0.71776 0.86271 0.0
C1115 C 0.23975 0.75266 0.78715 0.0
C1116 C 0.24651 0.77373 0.83485 0.0
H1117 H 0.23891 0.70918 0.76176 0.0
H1118 H 0.23137 0.75765 0.73967 0.0
S1119 S 0.2712 0.76527 1.00572 0.0
N1120 N 0.26833 0.73339 0.97261 0.0
N1121 N 0.26192 0.78574 0.94736 0.0
C1122 C 0.25618 0.76672 0.89708 0.0
C1123 C 0.25934 0.73858 0.91099 0.0
C1124 C 0.47295 0.00139 0.56631 0.0
C1125 C 0.47893 0.01599 0.62669 0.0
C1126 C 0.49098 0.98116 0.54054 0.0
C1127 C 0.51531 0.97536 0.57443 0.0
H1128 H 0.45489 0.00637 0.5376 0.0
H1129 H 0.48574 0.96973 0.49452 0.0
S1130 S 0.53799 0.00623 0.73806 0.0
N1131 N 0.50928 0.02285 0.72129 0.0
N1132 N 0.54301 0.98379 0.67444 0.0
C1133 C 0.52096 0.98936 0.6359 0.0
C1134 C 0.50267 0.00999 0.66177 0.0
C1135 C 0.01443 0.00778 0.08418 0.0
C1136 C 0.01623 0.9843 0.12127 0.0
C1137 C 0.98916 0.01596 0.05915 0.0
C1138 C 0.96498 0.00101 0.07043 0.0
H1139 H 0.03273 0.01924 0.07173 0.0
H1140 H 0.98848 0.03428 1.03123 0.0
S1141 S 0.95856 0.9401 0.17193 0.0
N1142 N 0.9918 0.94781 0.17348 0.0
N1143 N 0.94395 0.96292 0.12572 0.0
C1144 C 0.96636 0.978 0.10931 0.0
C1145 C 0.99209 0.96989 0.13539 0.0
C1146 C 0.50808 0.9647 0.12238 0.0
C1147 C 0.48348 0.97665 0.14551 0.0
C1148 C 0.52717 0.98058 0.0908 0.0
C1149 C 0.52176 0.00859 0.08114 0.0
H1150 H 0.51219 0.94291 0.12712 0.0
H1151 H 0.54606 0.97067 0.07293 0.0
S1152 S 0.45926 0.0485 0.13164 0.0
N1153 N 0.45398 0.0173 0.15768 0.0
N1154 N 0.49002 0.04739 0.09608 0.0
C1155 C 0.49728 0.02081 0.10507 0.0
C1156 C 0.47796 0.00465 0.13798 0.0
C1157 C 0.96624 0.99269 0.55051 0.0
C1158 C 0.96169 0.98434 0.61498 0.0
C1159 C 0.99261 0.00013 0.53045 0.0
C1160 C 0.01488 -0.00134 0.57404 0.0
H1161 H 0.94948 0.99266 0.51493 0.0
H1162 H -0.00441 0.00718 0.48115 0.0
S1163 S 0.01287 0.9812 0.74962 0.0
N1164 N 0.98067 0.97727 0.72338 0.0
N1165 N 0.03072 0.99079 0.6855 0.0
C1166 C 0.01043 0.99099 0.63898 0.0
C1167 C 0.98359 0.98389 0.65955 0.0
C1168 C 0.02671 0.38361 0.82217 0.0
C1169 C 0.01722 0.38249 0.88772 0.0
C1170 C 0.00823 0.38513 0.76887 0.0
C1171 C 0.97943 0.38628 0.77905 0.0
H1172 H 0.04868 0.38514 0.81247 0.0
H1173 H 0.01675 0.38753 0.72007 0.0
S1174 S 0.94382 0.38084 0.94037 0.0
N1175 N 0.97706 0.37992 0.95903 0.0
N1176 N 0.94228 0.38314 0.85937 0.0
C1177 C 0.96962 0.38313 0.84382 0.0
C1178 C 0.98851 0.38112 0.89798 0.0
C1179 C 0.84273 0.71136 0.10819 0.0
C1180 C 0.84247 0.72035 0.04306 0.0
C1181 C 0.84701 0.73002 0.16377 0.0
C1182 C 0.85095 0.7585 0.1566 0.0
H1183 H 0.83856 0.68989 0.11658 0.0
H1184 H 0.84509 0.72241 0.21277 0.0
S1185 S 0.85391 0.79271 0.99777 0.0
N1186 N 0.84843 0.75983 0.97554 0.0
N1187 N 0.85585 0.79445 0.07932 0.0
C1188 C 0.85218 0.76746 0.09187 0.0
C1189 C 0.84813 0.74856 1.0354 0.0
C1190 C 0.53292 0.56624 0.31459 0.0
C1191 C 0.52187 0.57118 0.25164 0.0
C1192 C 0.51645 0.56759 0.37231 0.0
C1193 C 0.48813 0.57427 0.37033 0.0
H1194 H 0.55451 0.56077 0.31956 0.0
H1195 H 0.52598 0.56302 0.41883 0.0
S1196 S 0.44842 0.58867 0.21903 0.0
N1197 N 0.4802 0.58279 0.19184 0.0
N1198 N 0.44963 0.58569 0.2998 0.0
C1199 C 0.47682 0.57967 0.30817 0.0
C1200 C 0.49352 0.57807 0.24917 0.0
C1201 C 0.64698 0.2339 0.53579 0.0
C1202 C 0.65491 0.24381 0.60006 0.0
C1203 C 0.64868 0.25067 0.48106 0.0
C1204 C 0.65827 0.27822 0.48817 0.0
H1205 H 0.64008 0.21271 0.52724 0.0
H1206 H 0.64305 0.24173 0.43262 0.0
S1207 S 0.68061 0.31444 0.64734 0.0
N1208 N 0.67203 0.28316 0.66781 0.0
N1209 N 0.67488 0.31468 0.56706 0.0
C1210 C 0.66547 0.28851 0.55301 0.0
C1211 C 0.66391 0.27139 0.60826 0.0
C1212 C 0.00512 0.62229 0.9142 0.0
C1213 C 0.97628 0.61897 0.9198 0.0
C1214 C 0.0184 0.6211 0.85212 0.0
C1215 C 0.00349 0.61621 0.79273 0.0
H1216 H 0.01777 0.6248 0.95835 0.0
H1217 H 0.04072 0.62284 0.85096 0.0
S1218 S 0.92728 0.60799 0.77938 0.0
N1219 N 0.93301 0.61229 0.8598 0.0
N1220 N 0.95789 0.60963 0.7436 0.0
C1221 C 0.97449 0.61399 0.7974 0.0
C1222 C 0.96092 0.61551 0.86069 0.0
C1223 C 0.62402 0.75429 0.14207 0.0
C1224 C 0.62793 0.72551 0.14401 0.0
C1225 C 0.62606 0.76783 0.08245 0.0
C1226 C 0.63262 0.75332 1.02196 0.0
H1227 H 0.62017 0.76669 0.1875 0.0
H1228 H 0.62358 0.79008 0.08439 0.0
S1229 S 0.64384 0.67749 0.99897 0.0
N1230 N 0.63747 0.68277 0.07893 0.0
N1231 N 0.64192 0.70814 0.96768 0.0
C1232 C 0.63575 0.72439 1.02277 0.0
C1233 C 0.63323 0.71053 0.08342 0.0
C1234 C 0.53659 0.42837 0.3704 0.0
C1235 C 0.52526 0.4268 0.43449 0.0
C1236 C 0.52014 0.42514 0.31277 0.0
C1237 C 0.49159 0.4197 0.31611 0.0
H1238 H 0.55839 0.4327 0.36437 0.0
H1239 H 0.52987 0.42719 0.26514 0.0
S1240 S 0.45111 0.4141 0.47066 0.0
N1241 N 0.48307 0.4198 0.49676 0.0
N1242 N 0.45256 0.41327 0.38908 0.0
C1243 C 0.47999 0.41766 0.37953 0.0
C1244 C 0.49665 0.42129 0.43835 0.0
C1245 C 0.84565 0.25296 0.70139 0.0
C1246 C 0.82299 0.27075 0.71525 0.0
C1247 C 0.84757 0.23685 0.64049 0.0
C1248 C 0.82658 0.2375 0.59199 0.0
H1249 H 0.86216 0.25179 0.7373 0.0
H1250 H 0.86527 0.2234 0.63198 0.0
S1251 S 0.76253 0.27996 0.60499 0.0
N1252 N 0.77903 0.28754 0.67509 0.0
N1253 N 0.78236 0.25739 0.56308 0.0
C1254 C 0.80381 0.25504 0.6059 0.0
C1255 C 0.80208 0.27158 0.66677 0.0
C1256 C 0.02063 0.60684 0.34729 0.0
C1257 C 0.01109 0.60602 0.41313 0.0
C1258 C 0.00212 0.60847 0.29375 0.0
C1259 C 0.97334 0.60914 0.30384 0.0
H1260 H 0.04249 0.60464 0.33651 0.0
H1261 H 0.01031 0.60678 0.24385 0.0
S1262 S 0.93747 0.61062 0.46577 0.0
N1263 N 0.9706 0.60891 0.48487 0.0
N1264 N 0.93623 0.6112 0.38436 0.0
C1265 C 0.96363 0.6103 0.36935 0.0
C1266 C 0.98237 0.60901 0.42392 0.0
C1267 C 0.14224 0.27166 0.07812 0.0
C1268 C 0.14153 0.26159 0.14232 0.0
C1269 C 0.14025 0.25377 1.02033 0.0
C1270 C 0.13768 0.22496 1.02405 0.0
H1271 H 0.14557 0.29347 0.07221 0.0
H1272 H 0.14275 0.2624 0.97258 0.0
S1273 S 0.1322 0.18791 0.17877 0.0
N1274 N 0.13574 0.22066 0.20481 0.0
N1275 N 0.13242 0.18746 0.09717 0.0
C1276 C 0.13535 0.21483 0.08764 0.0
C1277 C 0.13712 0.23296 0.14634 0.0
C1278 C 0.49292 0.41582 0.93049 0.0
C1279 C 0.46564 0.42623 0.93033 0.0
C1280 C 0.50954 0.41469 0.87285 0.0
C1281 C 0.4998 0.42413 0.81248 0.0
H1282 H 0.50172 0.40882 0.97571 0.0
H1283 H 0.53048 0.40692 0.87615 0.0
S1284 S 0.42999 0.45301 0.78369 0.0
N1285 N 0.42968 0.44571 0.86222 0.0
N1286 N 0.46094 0.44387 0.75591 0.0
C1287 C 0.47254 0.43424 0.8112 0.0
C1288 C 0.45552 0.43518 0.86943 0.0
C1289 C 0.32572 0.72203 0.5868 0.0
C1290 C 0.33059 0.75065 0.59476 0.0
C1291 C 0.32471 0.70545 0.64151 0.0
C1292 C 0.32823 0.71667 0.70712 0.0
H1293 H 0.3222 0.71236 0.53787 0.0
H1294 H 0.32047 0.68362 0.63199 0.0
S1295 S 0.34163 0.79072 0.75498 0.0
N1296 N 0.33944 0.78956 0.67344 0.0
N1297 N 0.33714 0.75864 0.77601 0.0
C1298 C 0.33367 0.74527 0.71562 0.0
C1299 C 0.33492 0.76213 0.65964 0.0
C1300 C 0.98371 0.36988 0.27694 0.0
C1301 C 0.01267 0.37194 0.27098 0.0
C1302 C 0.97068 0.3705 0.33925 0.0
C1303 C 0.98597 0.37354 0.3985 0.0
H1304 H 0.97084 0.36884 0.23304 0.0
H1305 H 0.9483 0.36985 0.34081 0.0
S1306 S 0.06252 0.37764 0.41069 0.0
N1307 N 0.05638 0.37522 0.33026 0.0
N1308 N 0.03195 0.37685 0.44697 0.0
C1309 C 0.01503 0.37438 0.39335 0.0
C1310 C 0.02834 0.37344 0.32979 0.0
C1311 C 0.36678 0.27363 0.10304 0.0
C1312 C 0.37117 0.25891 0.04161 0.0
C1313 C 0.36427 0.25991 0.16244 0.0
C1314 C 0.36631 0.23087 0.16324 0.0
H1315 H 0.36365 0.2958 0.10488 0.0
H1316 H 0.35967 0.27211 0.20771 0.0
S1317 S 0.38084 0.18298 1.01697 0.0
N1318 N 0.37951 0.21379 0.98643 0.0
N1319 N 0.37538 0.18821 0.09731 0.0
C1320 C 0.37232 0.21613 0.10272 0.0
C1321 C 0.37459 0.23006 0.04226 0.0
C1322 C 0.50898 0.57857 0.80702 0.0
C1323 C 0.49757 0.57827 0.87111 0.0
C1324 C 0.49247 0.57438 0.74959 0.0
C1325 C 0.46368 0.56985 0.75348 0.0
H1326 H 0.53107 0.58121 0.80101 0.0
H1327 H 0.50253 0.57414 0.7018 0.0
S1328 S 0.42332 0.56893 0.91016 0.0
N1329 N 0.4555 0.57424 0.93498 0.0
N1330 N 0.42448 0.56676 0.82853 0.0
C1331 C 0.45196 0.57038 0.81766 0.0
C1332 C 0.46882 0.57448 0.87592 0.0
C1333 C 0.17406 0.72419 0.60836 0.0
C1334 C 0.1642 0.75154 0.60884 0.0
C1335 C 0.1774 0.70786 0.54889 0.0
C1336 C 0.17133 0.71806 0.48653 0.0
H1337 H 0.17983 0.71543 0.65434 0.0
H1338 H 0.18549 0.68713 0.55217 0.0
S1339 S 0.14367 0.78817 0.46052 0.0
N1340 N 0.14736 0.78785 0.54158 0.0
N1341 N 0.15376 0.7574 0.43014 0.0
C1342 C 0.16073 0.74523 0.48648 0.0
C1343 C 0.15717 0.76183 0.54736 0.0
C1344 C 0.47269 0.89258 0.3501 0.0
C1345 C 0.48171 0.89384 0.28387 0.0
C1346 C 0.49157 0.88972 0.40266 0.0
C1347 C 0.52028 0.88814 0.39129 0.0
H1348 H 0.45098 0.89516 0.36203 0.0
H1349 H 0.48379 0.89099 0.45294 0.0
S1350 S 0.55484 0.88771 0.22768 0.0
N1351 N 0.52165 0.89075 0.21042 0.0
N1352 N 0.55662 0.88594 0.30874 0.0
C1353 C 0.52939 0.8876 0.32524 0.0
C1354 C 0.5103 0.89027 0.27176 0.0
C1355 C 0.34629 0.21468 0.60929 0.0
C1356 C 0.34624 0.22501 0.54533 0.0
C1357 C 0.34806 0.23243 0.66739 0.0
C1358 C 0.34965 0.26134 0.66416 0.0
H1359 H 0.34372 0.19274 0.61477 0.0
H1360 H 0.34613 0.22357 0.71501 0.0
S1361 S 0.35319 0.29905 0.51001 0.0
N1362 N 0.35045 0.26628 0.48348 0.0
N1363 N 0.35346 0.29923 0.59158 0.0
C1364 C 0.35141 0.27174 0.60069 0.0
C1365 C 0.34983 0.25375 0.54172 0.0
C1366 C 0.00862 0.07935 0.85968 0.0
C1367 C 0.9803 0.08601 0.85639 0.0
C1368 C 0.02508 0.0759 0.80226 0.0
C1369 C 0.01413 0.07886 0.73833 0.0
H1370 H 0.0181 0.0761 0.90706 0.0
H1371 H 0.04661 0.07033 0.80828 0.0
S1372 S 0.94107 0.09659 0.70213 0.0
N1373 N 0.94207 0.09592 0.78358 0.0
N1374 N 0.97278 0.08941 0.67609 0.0
C1375 C 0.98592 0.08618 0.73445 0.0
C1376 C 0.96913 0.08972 0.79316 0.0
C1377 C 0.17817 0.78388 0.05842 0.0
C1378 C 0.17236 0.77301 0.99347 0.0
C1379 C 0.17701 0.76744 0.11325 0.0
C1380 C 0.16972 0.73935 0.10603 0.0
H1381 H 0.18423 0.80531 0.06733 0.0
H1382 H 0.18225 0.77676 0.16161 0.0
S1383 S 0.15248 0.70029 0.94774 0.0
N1384 N 0.15894 0.73193 0.92598 0.0
N1385 N 0.15645 0.70124 1.02887 0.0
C1386 C 0.16335 0.72821 0.04186 0.0
C1387 C 0.16471 0.74493 0.98574 0.0
C1388 C 0.52184 0.1063 0.35218 0.0
C1389 C 0.50698 0.10642 0.29229 0.0
C1390 C 0.50839 0.10792 0.41405 0.0
C1391 C 0.47937 0.10997 0.41935 0.0
H1392 H 0.54413 0.10398 0.3514 0.0
H1393 H 0.52089 0.10666 0.45818 0.0
S1394 S 0.43075 0.11352 0.27807 0.0
N1395 N 0.46148 0.11042 0.24266 0.0
N1396 N 0.43628 0.11371 0.35868 0.0
C1397 C 0.46426 0.11137 0.36003 0.0
C1398 C 0.47801 0.10951 0.29674 0.0
C1399 C 0.12365 0.22671 0.52552 0.0
C1400 C 0.12244 0.25577 0.52441 0.0
C1401 C 0.12087 0.21324 0.58515 0.0
C1402 C 0.11716 0.22826 0.64647 0.0
H1403 H 0.12773 0.21428 0.48027 0.0
H1404 H 0.12326 0.19098 0.58355 0.0
S1405 S 0.11064 0.30452 0.67057 0.0
N1406 N 0.11537 0.29889 0.59007 0.0
N1407 N 0.11083 0.27375 0.70142 0.0
C1408 C 0.11474 0.25718 0.64559 0.0
C1409 C 0.1172 0.27087 0.58488 0.0
C1410 C 0.00984 0.87991 0.92405 0.0
C1411 C 0.01412 0.90566 0.95897 0.0
C1412 C 0.99385 0.8778 0.86514 0.0
C1413 C 0.98195 0.90142 0.8391 0.0
H1414 H 0.01963 0.86154 0.94108 0.0
H1415 H 0.99166 0.85782 0.83864 0.0
S1416 S 0.98436 0.97276 0.91628 0.0
N1417 N 0.00349 0.95462 0.96548 0.0
N1418 N 0.97321 0.95059 0.85715 0.0
C1419 C 0.98514 0.92685 0.87554 0.0
C1420 C 0.00131 0.92899 0.93474 0.0
C1421 C 0.33247 0.78184 0.1539 0.0
C1422 C 0.32925 0.77042 0.21603 0.0
C1423 C 0.33524 0.76502 0.09485 0.0
C1424 C 0.33502 0.73598 0.09505 0.0
H1425 H 0.33231 0.80406 0.15041 0.0
H1426 H 0.33701 0.7749 0.04848 0.0
S1427 S 0.32724 0.69528 0.24362 0.0
N1428 N 0.32634 0.72777 0.27321 0.0
N1429 N 0.33149 0.69648 0.16296 0.0
C1430 C 0.33247 0.72424 0.15676 0.0
C1431 C 0.32962 0.74131 0.21692 0.0
C1432 C 0.50237 0.10096 0.79061 0.0
C1433 C 0.47373 0.10275 0.80255 0.0
C1434 C 0.52132 0.09814 0.84282 0.0
C1435 C 0.51241 0.09724 0.90912 0.0
H1436 H 0.51 0.09946 0.7402 0.0
H1437 H 0.543 0.09535 0.83065 0.0
S1438 S 0.43948 0.10381 0.96648 0.0
N1439 N 0.43751 0.1053 0.88536 0.0
N1440 N 0.47271 0.10074 0.98335 0.0
C1441 C 0.4839 0.10104 0.9218 0.0
C1442 C 0.4647 0.10355 0.8686 0.0
C1443 C 0.64414 0.7529 0.5235 0.0
C1444 C 0.63709 0.72502 0.53017 0.0
C1445 C 0.64774 0.77147 0.5794 0.0
C1446 C 0.64428 0.76301 0.64449 0.0
H1447 H 0.64903 0.75991 0.47507 0.0
H1448 H 0.65455 0.79229 0.57143 0.0
S1449 S 0.6224 0.69277 0.68769 0.0
N1450 N 0.62476 0.69038 0.60617 0.0
N1451 N 0.63024 0.7251 0.71074 0.0
C1452 C 0.63509 0.73565 0.65118 0.0
C1453 C 0.63193 0.71672 0.59429 0.0
C1454 C 0.97354 0.89717 0.33461 0.0
C1455 C 0.00265 0.89776 0.33959 0.0
C1456 C 0.9564 0.9001 0.39126 0.0
C1457 C 0.96748 0.90363 0.45583 0.0
H1458 H 0.96383 0.89511 0.28636 0.0
H1459 H 0.93419 0.89998 0.38417 0.0
S1460 S 0.0424 0.90672 0.49663 0.0
N1461 N 0.0417 0.90205 0.41515 0.0
N1462 N 0.00977 0.90744 0.52067 0.0
C1463 C -0.00343 0.90365 0.46155 0.0
C1464 C 0.01401 0.90079 0.40387 0.0
C1465 C 0.83526 0.26119 0.15955 0.0
C1466 C 0.83437 0.24996 0.09355 0.0
C1467 C 0.83451 0.24419 0.21388 0.0
C1468 C 0.8328 0.21516 0.20466 0.0
H1469 H 0.83554 0.2834 0.16952 0.0
H1470 H 0.83399 0.254 0.26335 0.0
S1471 S 0.83327 0.17515 0.04178 0.0
N1472 N 0.83408 0.20775 1.02247 0.0
N1473 N 0.83283 0.17596 0.12342 0.0
C1474 C 0.83336 0.20367 0.13877 0.0
C1475 C 0.83408 0.22096 0.08365 0.0
C1476 C 0.48918 0.87879 0.78253 0.0
C1477 C 0.51811 0.88161 0.7775 0.0
C1478 C 0.47561 0.88045 0.8443 0.0
C1479 C 0.49027 0.88545 0.90405 0.0
H1480 H 0.47673 0.87612 0.7381 0.0
H1481 H 0.45327 0.87887 0.84491 0.0
S1482 S 0.56649 0.89302 0.919 0.0
N1483 N 0.56113 0.88826 0.8385 0.0
N1484 N 0.53569 0.89195 0.9541 0.0
C1485 C 0.51931 0.88743 0.89999 0.0
C1486 C 0.53319 0.88534 0.83698 0.0
C1487 C 0.83897 0.76929 0.6039 0.0
C1488 C 0.85621 0.76036 0.55076 0.0
C1489 C 0.83817 0.75549 0.66293 0.0
C1490 C 0.85413 0.73163 0.67117 0.0
H1491 H 0.82511 0.78663 0.5989 0.0
H1492 H 0.82386 0.76289 0.70121 0.0
S1493 S 0.90367 0.70023 0.54804 0.0
N1494 N 0.8907 0.72692 0.51131 0.0
N1495 N 0.88884 0.70043 0.62165 0.0
C1496 C 0.8723 0.72301 0.61934 0.0
C1497 C 0.87346 0.73749 0.55936 0.0
C1498 C 0.00468 0.09139 0.29746 0.0
C1499 C 0.99378 0.0862 0.36025 0.0
C1500 C 0.98803 0.08975 0.23957 0.0
C1501 C 0.9596 0.08311 0.24184 0.0
H1502 H 0.02652 0.09577 0.29249 0.0
H1503 H -0.00224 0.09288 0.19247 0.0
S1504 S 0.92045 0.06978 0.39542 0.0
N1505 N 0.95241 0.07546 0.42131 0.0
N1506 N 0.9212 0.07306 0.31482 0.0
C1507 C 0.94832 0.07908 0.30518 0.0
C1508 C 0.96531 0.08043 0.36358 0.0
C1509 C 0.65545 0.24878 0.97623 0.0
C1510 C 0.65805 0.21978 0.97647 0.0
C1511 C 0.65274 0.26552 1.03571 0.0
C1512 C 0.65244 0.25409 0.09826 0.0
H1513 H 0.6565 0.25879 0.92992 0.0
H1514 H 0.65173 0.28774 1.03264 0.0
S1515 S 0.6557 0.17919 0.1267 0.0
N1516 N 0.65793 0.18036 0.04556 0.0
N1517 N 0.65313 0.21165 0.15598 0.0
C1518 C 0.65392 0.2251 0.09905 0.0
C1519 C 0.65663 0.20806 1.0387 0.0
C1520 C 0.10718 0.50071 0.7262 0.0
C1521 C 0.08564 0.52012 0.71989 0.0
C1522 C 0.10919 0.48463 0.7828 0.0
C1523 C 0.08982 0.4874 0.83533 0.0
H1524 H 0.12279 0.49827 0.68797 0.0
H1525 H 0.12616 0.47016 0.78571 0.0
S1526 S 0.02735 0.53222 0.83932 0.0
N1527 N 0.04289 0.53851 0.76945 0.0
N1528 N 0.04718 0.50945 0.87365 0.0
C1529 C 0.06785 0.50601 0.82822 0.0
C1530 C 0.06562 0.52196 0.77124 0.0
C1531 C 0.71094 0.8451 0.04282 0.0
C1532 C 0.72255 0.84805 0.97961 0.0
C1533 C 0.72726 0.84549 0.10062 0.0
C1534 C 0.75619 0.8487 0.09858 0.0
H1535 H 0.68899 0.84119 0.04745 0.0
H1536 H 0.71712 0.84215 0.14716 0.0
S1537 S 0.79722 0.85802 0.9463 0.0
N1538 N 0.76504 0.85512 0.91916 0.0
N1539 N 0.79572 0.85596 1.02744 0.0
C1540 C 0.76807 0.85288 1.03615 0.0
C1541 C 0.75131 0.85256 0.97696 0.0
C1542 C 0.37644 0.48246 0.40312 0.0
C1543 C 0.37487 0.51151 0.4061 0.0
C1544 C 0.37833 0.46701 0.34196 0.0
C1545 C 0.37786 0.47994 0.28147 0.0
H1546 H 0.379 0.47178 0.44823 0.0
H1547 H 0.38195 0.44494 0.34211 0.0
S1548 S 0.37169 0.55523 0.26216 0.0
N1549 N 0.37146 0.55241 0.34309 0.0
N1550 N 0.37377 0.52335 0.22859 0.0
C1551 C 0.37402 0.50872 0.28375 0.0
C1552 C 0.37283 0.5245 0.34594 0.0
C1553 C 0.73255 0.12918 0.51373 0.0
C1554 C 0.7615 0.12854 0.52139 0.0
C1555 C 0.71475 0.13072 0.56909 0.0
C1556 C 0.7251 0.13072 0.63421 0.0
H1557 H 0.72365 0.1311 0.46509 0.0
H1558 H 0.69281 0.13358 0.56102 0.0
S1559 S 0.79905 0.12656 0.68098 0.0
N1560 N 0.79951 0.12627 0.59931 0.0
N1561 N 0.7661 0.12788 0.70259 0.0
C1562 C 0.75382 0.1278 0.64219 0.0
C1563 C 0.77199 0.12703 0.58604 0.0
C1564 C 0.89261 0.49615 0.47539 0.0
C1565 C 0.89905 0.46768 0.46833 0.0
C1566 C 0.89145 0.51271 0.41977 0.0
C1567 C 0.89691 0.5016 0.35475 0.0
H1568 H 0.88968 0.506 0.52435 0.0
H1569 H 0.88731 0.53461 0.42815 0.0
S1570 S 0.9126 0.42805 0.30754 0.0
N1571 N 0.90873 0.42901 0.38857 0.0
N1572 N 0.9075 0.46003 0.28681 0.0
C1573 C 0.9023 0.4731 0.34689 0.0
C1574 C 0.90309 0.45625 0.40274 0.0
C1575 C 0.22343 0.13976 0.14341 0.0
C1576 C 0.23539 0.14218 0.08009 0.0
C1577 C 0.23957 0.14149 0.20255 0.0
C1578 C 0.2685 0.14571 0.20135 0.0
H1579 H 0.20123 0.13752 0.14765 0.0
H1580 H 0.22907 0.14079 0.24966 0.0
S1581 S 0.31045 0.15043 0.04807 0.0
N1582 N 0.27843 0.14702 1.02057 0.0
N1583 N 0.3084 0.14989 0.12935 0.0
C1584 C 0.28071 0.14683 0.1379 0.0
C1585 C 0.26434 0.14518 0.07821 0.0
C1586 C 0.61851 0.47324 0.83818 0.0
C1587 C 0.6159 0.48606 0.77773 0.0
C1588 C 0.6172 0.48863 0.8996 0.0
C1589 C 0.61239 0.51732 0.90283 0.0
H1590 H 0.6195 0.4509 0.83808 0.0
H1591 H 0.61732 0.47763 0.94461 0.0
S1592 S 0.60588 0.56103 0.75948 0.0
N1593 N 0.61048 0.52949 0.72556 0.0
N1594 N 0.60696 0.55815 0.84034 0.0
C1595 C 0.6115 0.53056 0.84287 0.0
C1596 C 0.61356 0.51501 0.78051 0.0
C1597 C 0.25805 0.86596 0.67437 0.0
C1598 C 0.22908 0.86359 0.6709 0.0
C1599 C 0.27433 0.86507 0.61645 0.0
C1600 C 0.26226 0.86255 0.55287 0.0
H1601 H 0.26837 0.86572 0.72186 0.0
H1602 H 0.29663 0.86437 0.62148 0.0
S1603 S 0.18716 0.85839 0.51707 0.0
N1604 N 0.18895 0.86048 0.59874 0.0
N1605 N 0.21939 0.85991 0.49049 0.0
C1606 C 0.23324 0.86264 0.54894 0.0
C1607 C 0.21671 0.86286 0.60778 0.0
C1608 C 0.62196 0.98921 0.28737 0.0
C1609 C 0.599 0.98286 0.32708 0.0
C1610 C 0.61873 0.00417 0.22923 0.0
C1611 C 0.59239 0.01296 0.20855 0.0
H1612 H 0.64256 0.9836 0.30268 0.0
H1613 H 0.63697 0.00984 0.2022 0.0
S1614 S 0.52546 -0.00275 0.29031 0.0
N1615 N 0.54915 0.98385 0.33735 0.0
N1616 N 0.54278 0.01086 0.23023 0.0
C1617 C 0.56935 0.00489 0.24628 0.0
C1618 C 0.57272 0.9902 0.30483 0.0
C1619 C 0.20839 0.33762 0.54769 0.0
C1620 C 0.2202 0.34058 0.48445 0.0
C1621 C 0.22431 0.33918 0.60642 0.0
C1622 C 0.25306 0.34385 0.60579 0.0
H1623 H 0.18652 0.33326 0.55202 0.0
H1624 H 0.21397 0.33599 0.65279 0.0
S1625 S 0.29474 0.35345 0.45449 0.0
N1626 N 0.26294 0.34888 0.42594 0.0
N1627 N 0.29269 0.352 0.53571 0.0
C1628 C 0.26516 0.3477 0.54334 0.0
C1629 C 0.24886 0.34608 0.48315 0.0
C1630 C 0.87616 0.01717 0.84023 0.0
C1631 C 0.87632 0.00777 0.90481 0.0
C1632 C 0.87522 -0.00144 0.78383 0.0
C1633 C 0.87527 0.96974 0.78968 0.0
H1634 H 0.8782 0.03906 0.83316 0.0
H1635 H 0.87691 0.00676 0.73539 0.0
S1636 S 0.87446 0.93434 0.94699 0.0
N1637 N 0.87465 0.96756 0.97074 0.0
N1638 N 0.87433 0.93279 0.86523 0.0
C1639 C 0.87419 0.96013 0.85383 0.0
C1640 C 0.87431 0.97906 0.91119 0.0
C1641 C 0.2616 0.62586 0.14622 0.0
C1642 C 0.23254 0.62589 0.14278 0.0
C1643 C 0.27788 0.62691 0.08863 0.0
C1644 C 0.26575 0.62737 1.02533 0.0
H1645 H 0.27177 0.62784 0.19399 0.0
H1646 H 0.30005 0.62935 0.09408 0.0
S1647 S 0.19064 0.6262 0.98932 0.0
N1648 N 0.19241 0.62542 0.07071 0.0
N1649 N 0.22294 0.62626 0.96277 0.0
C1650 C 0.23683 0.62527 1.02094 0.0
C1651 C 0.22026 0.62483 0.07959 0.0
C1652 C 0.39142 0.0011 0.98391 0.0
C1653 C 0.39277 0.97194 0.9783 0.0
C1654 C 0.38978 0.0169 0.92702 0.0
C1655 C 0.38959 0.00425 0.86204 0.0
H1656 H 0.39339 0.01187 1.03217 0.0
H1657 H 0.39006 0.03923 0.93398 0.0
S1658 S 0.38955 0.92859 0.82032 0.0
N1659 N 0.39117 0.93127 0.90192 0.0
N1660 N 0.38854 0.96059 0.79679 0.0
C1661 C 0.38942 0.97517 0.85628 0.0
C1662 C 0.39087 0.95919 0.91372 0.0
C1663 C 0.73908 0.63045 0.70926 0.0
C1664 C 0.7682 0.63245 0.7068 0.0
C1665 C 0.72264 0.63108 0.65106 0.0
C1666 C 0.73458 0.63387 0.58796 0.0
H1667 H 0.72882 0.63029 0.75678 0.0
H1668 H 0.70035 0.63076 0.65607 0.0
S1669 S 0.80993 0.63725 0.55377 0.0
N1670 N 0.8081 0.63524 0.63477 0.0
N1671 N 0.77766 0.63645 0.52708 0.0
C1672 C 0.76367 0.63436 0.5848 0.0
C1673 C 0.78028 0.63365 0.64356 0.0
C1674 C 0.10384 0.00349 0.28001 0.0
C1675 C 0.10561 0.97468 0.28455 0.0
C1676 C 0.10271 0.02155 0.33728 0.0
C1677 C 0.10408 0.01159 0.40121 0.0
H1678 H 0.10078 0.01194 0.2322 0.0
H1679 H 0.09905 0.04334 0.33154 0.0
S1680 S 0.11118 0.93808 0.43957 0.0
N1681 N 0.11011 0.93718 0.35788 0.0
N1682 N 0.10929 0.97107 0.46502 0.0
C1683 C 0.10804 0.98303 0.4061 0.0
C1684 C 0.10843 0.9646 0.34792 0.0
C1685 C 0.75226 0.36442 0.17373 0.0
C1686 C 0.72337 0.36287 0.16573 0.0
C1687 C 0.77012 0.36319 0.11848 0.0
C1688 C 0.75975 0.36125 0.05326 0.0
H1689 H 0.7612 0.36398 0.22275 0.0
H1690 H 0.79221 0.36201 0.12685 0.0
S1691 S 0.68574 0.35847 1.00575 0.0
N1692 N 0.68528 0.36044 0.08752 0.0
N1693 N 0.71867 0.35943 0.9843 0.0
C1694 C 0.73091 0.36178 0.04482 0.0
C1695 C 0.71278 0.36226 0.10088 0.0
loop_
_geom_bond_atom_site_label_1
_geom_bond_atom_site_label_2
_geom_bond_distance
_geom_bond_site_symmetry_2
_ccdc_geom_bond_type
Dy0 O4 2.398 . S
Dy0 O5 2.491 . S
Dy0 O6 2.403 . S
Dy0 O7 2.664 . S
Dy0 O11 2.326 . S
Dy0 O15 2.310 . S
Dy0 O16 2.351 1_554 S
C1 O12 1.185 . S
C1 O13 1.355 . S
C2 O4 1.185 . S
C2 O5 1.355 . S
Dy3 O7 2.310 1_556 S
Dy3 O10 2.351 1_556 S
Dy3 O12 2.398 . S
Dy3 O13 2.491 . S
Dy3 O14 2.403 1_556 S
Dy3 O15 2.664 1_556 S
Dy3 O17 2.326 . S
O4 Dy0 2.398 . S
O4 C2 1.185 . S
O5 Dy0 2.491 . S
O5 C2 1.355 . S
O6 Dy0 2.403 . S
O6 C8 1.254 . S
O7 Dy0 2.664 . S
O7 Dy3 2.310 1_554 S
O7 C8 1.268 . S
C8 O6 1.254 . S
C8 O7 1.268 . S
C9 O14 1.254 . S
C9 O15 1.268 . S
O10 Dy3 2.351 1_554 S
O10 C18 1.249 . S
O11 Dy0 2.326 . S
O11 C18 1.267 . S
O12 C1 1.185 . S
O12 Dy3 2.398 . S
O13 C1 1.355 . S
O13 Dy3 2.491 . S
O14 Dy3 2.403 1_554 S
O14 C9 1.254 . S
O15 Dy0 2.310 . S
O15 Dy3 2.664 1_554 S
O15 C9 1.268 . S
O16 Dy0 2.351 1_556 S
O16 C19 1.249 . S
O17 Dy3 2.326 . S
O17 C19 1.267 . S
C18 O10 1.249 . S
C18 O11 1.267 . S
C19 O16 1.249 . S
C19 O17 1.267 . S
Dy20 O24 2.398 . S
Dy20 O25 2.491 . S
Dy20 O26 2.403 . S
Dy20 O27 2.664 . S
Dy20 O31 2.326 . S
Dy20 O35 2.310 . S
Dy20 O36 2.351 . S
C21 O32 1.185 . S
C21 O33 1.355 . S
C22 O24 1.185 . S
C22 O25 1.355 . S
Dy23 O27 2.310 . S
Dy23 O30 2.351 . S
Dy23 O32 2.398 . S
Dy23 O33 2.491 . S
Dy23 O34 2.403 . S
Dy23 O35 2.664 . S
Dy23 O37 2.326 . S
O24 Dy20 2.398 . S
O24 C22 1.185 . S
O25 Dy20 2.491 . S
O25 C22 1.355 . S
O26 Dy20 2.403 . S
O26 C28 1.254 . S
O27 Dy20 2.664 . S
O27 Dy23 2.310 . S
O27 C28 1.268 . S
C28 O26 1.254 . S
C28 O27 1.268 . S
C29 O34 1.254 . S
C29 O35 1.268 . S
O30 Dy23 2.351 . S
O30 C38 1.249 . S
O31 Dy20 2.326 . S
O31 C38 1.267 . S
O32 C21 1.185 . S
O32 Dy23 2.398 . S
O33 C21 1.355 . S
O33 Dy23 2.491 . S
O34 Dy23 2.403 . S
O34 C29 1.254 . S
O35 Dy20 2.310 . S
O35 Dy23 2.664 . S
O35 C29 1.268 . S
O36 Dy20 2.351 . S
O36 C39 1.249 . S
O37 Dy23 2.326 . S
O37 C39 1.267 . S
C38 O30 1.249 . S
C38 O31 1.267 . S
C39 O36 1.249 . S
C39 O37 1.267 . S
Dy40 O44 2.398 . S
Dy40 O45 2.491 . S
Dy40 O46 2.403 . S
Dy40 O47 2.664 . S
Dy40 O51 2.326 . S
Dy40 O55 2.310 . S
Dy40 O56 2.351 . S
C41 O52 1.185 . S
C41 O53 1.355 . S
C42 O44 1.185 . S
C42 O45 1.355 . S
Dy43 O47 2.310 . S
Dy43 O50 2.351 . S
Dy43 O52 2.398 . S
Dy43 O53 2.491 . S
Dy43 O54 2.403 . S
Dy43 O55 2.664 . S
Dy43 O57 2.326 . S
O44 Dy40 2.398 . S
O44 C42 1.185 . S
O45 Dy40 2.491 . S
O45 C42 1.355 . S
O46 Dy40 2.403 . S
O46 C48 1.254 . S
O47 Dy40 2.664 . S
O47 Dy43 2.310 . S
O47 C48 1.268 . S
C48 O46 1.254 . S
C48 O47 1.268 . S
C49 O54 1.254 . S
C49 O55 1.268 . S
O50 Dy43 2.351 . S
O50 C58 1.249 . S
O51 Dy40 2.326 . S
O51 C58 1.267 . S
O52 C41 1.185 . S
O52 Dy43 2.398 . S
O53 C41 1.355 . S
O53 Dy43 2.491 . S
O54 Dy43 2.403 . S
O54 C49 1.254 . S
O55 Dy40 2.310 . S
O55 Dy43 2.664 . S
O55 C49 1.268 . S
O56 Dy40 2.351 . S
O56 C59 1.249 . S
O57 Dy43 2.326 . S
O57 C59 1.267 . S
C58 O50 1.249 . S
C58 O51 1.267 . S
C59 O56 1.249 . S
C59 O57 1.267 . S
Dy60 O64 2.398 . S
Dy60 O65 2.491 . S
Dy60 O66 2.403 . S
Dy60 O67 2.664 . S
Dy60 O71 2.326 . S
Dy60 O75 2.310 . S
Dy60 O76 2.351 . S
C61 O72 1.185 . S
C61 O73 1.355 . S
C62 O64 1.185 . S
C62 O65 1.355 . S
Dy63 O67 2.310 . S
Dy63 O70 2.351 . S
Dy63 O72 2.398 . S
Dy63 O73 2.491 . S
Dy63 O74 2.403 . S
Dy63 O75 2.664 . S
Dy63 O77 2.326 . S
O64 Dy60 2.398 . S
O64 C62 1.185 . S
O65 Dy60 2.491 . S
O65 C62 1.355 . S
O66 Dy60 2.403 . S
O66 C68 1.254 . S
O67 Dy60 2.664 . S
O67 Dy63 2.310 . S
O67 C68 1.268 . S
C68 O66 1.254 . S
C68 O67 1.268 . S
C69 O74 1.254 . S
C69 O75 1.268 . S
O70 Dy63 2.351 . S
O70 C78 1.249 . S
O71 Dy60 2.326 . S
O71 C78 1.267 . S
O72 C61 1.185 . S
O72 Dy63 2.398 . S
O73 C61 1.355 . S
O73 Dy63 2.491 . S
O74 Dy63 2.403 . S
O74 C69 1.254 . S
O75 Dy60 2.310 . S
O75 Dy63 2.664 . S
O75 C69 1.268 . S
O76 Dy60 2.351 . S
O76 C79 1.249 . S
O77 Dy63 2.326 . S
O77 C79 1.267 . S
C78 O70 1.249 . S
C78 O71 1.267 . S
C79 O76 1.249 . S
C79 O77 1.267 . S
Dy80 O84 2.398 . S
Dy80 O85 2.491 . S
Dy80 O86 2.403 . S
Dy80 O87 2.664 . S
Dy80 O91 2.326 . S
Dy80 O95 2.310 . S
Dy80 O96 2.351 . S
C81 O92 1.185 . S
C81 O93 1.355 . S
C82 O84 1.185 . S
C82 O85 1.355 . S
Dy83 O87 2.310 . S
Dy83 O90 2.351 . S
Dy83 O92 2.398 . S
Dy83 O93 2.491 . S
Dy83 O94 2.403 . S
Dy83 O95 2.664 . S
Dy83 O97 2.326 . S
O84 Dy80 2.398 . S
O84 C82 1.185 . S
O85 Dy80 2.491 . S
O85 C82 1.355 . S
O86 Dy80 2.403 . S
O86 C88 1.254 . S
O87 Dy80 2.664 . S
O87 Dy83 2.310 . S
O87 C88 1.268 . S
C88 O86 1.254 . S
C88 O87 1.268 . S
C89 O94 1.254 . S
C89 O95 1.268 . S
O90 Dy83 2.351 . S
O90 C98 1.249 . S
O91 Dy80 2.326 . S
O91 C98 1.267 . S
O92 C81 1.185 . S
O92 Dy83 2.398 . S
O93 C81 1.355 . S
O93 Dy83 2.491 . S
O94 Dy83 2.403 . S
O94 C89 1.254 . S
O95 Dy80 2.310 . S
O95 Dy83 2.664 . S
O95 C89 1.268 . S
O96 Dy80 2.351 . S
O96 C99 1.249 . S
O97 Dy83 2.326 . S
O97 C99 1.267 . S
C98 O90 1.249 . S
C98 O91 1.267 . S
C99 O96 1.249 . S
C99 O97 1.267 . S
Dy100 O104 2.398 . S
Dy100 O105 2.491 . S
Dy100 O106 2.403 . S
Dy100 O107 2.664 . S
Dy100 O111 2.326 . S
Dy100 O115 2.310 . S
Dy100 O116 2.351 . S
C101 O112 1.185 . S
C101 O113 1.355 . S
C102 O104 1.185 . S
C102 O105 1.355 . S
Dy103 O107 2.310 . S
Dy103 O110 2.351 . S
Dy103 O112 2.398 . S
Dy103 O113 2.491 . S
Dy103 O114 2.403 . S
Dy103 O115 2.664 . S
Dy103 O117 2.326 . S
O104 Dy100 2.398 . S
O104 C102 1.185 . S
O105 Dy100 2.491 . S
O105 C102 1.355 . S
O106 Dy100 2.403 . S
O106 C108 1.254 . S
O107 Dy100 2.664 . S
O107 Dy103 2.310 . S
O107 C108 1.268 . S
C108 O106 1.254 . S
C108 O107 1.268 . S
C109 O114 1.254 . S
C109 O115 1.268 . S
O110 Dy103 2.351 . S
O110 C118 1.249 . S
O111 Dy100 2.326 . S
O111 C118 1.267 . S
O112 C101 1.185 . S
O112 Dy103 2.398 . S
O113 C101 1.355 . S
O113 Dy103 2.491 . S
O114 Dy103 2.403 . S
O114 C109 1.254 . S
O115 Dy100 2.310 . S
O115 Dy103 2.664 . S
O115 C109 1.268 . S
O116 Dy100 2.351 . S
O116 C119 1.249 . S
O117 Dy103 2.326 . S
O117 C119 1.267 . S
C118 O110 1.249 . S
C118 O111 1.267 . S
C119 O116 1.249 . S
C119 O117 1.267 . S
Dy120 O124 2.398 . S
Dy120 O125 2.491 . S
Dy120 O126 2.403 . S
Dy120 O127 2.664 . S
Dy120 O131 2.326 . S
Dy120 O135 2.310 . S
Dy120 O136 2.351 1_554 S
C121 O132 1.185 . S
C121 O133 1.355 . S
C122 O124 1.185 . S
C122 O125 1.355 . S
Dy123 O127 2.310 . S
Dy123 O130 2.351 . S
Dy123 O132 2.398 1_554 S
Dy123 O133 2.491 1_554 S
Dy123 O134 2.403 . S
Dy123 O135 2.664 . S
Dy123 O137 2.326 1_554 S
O124 Dy120 2.398 . S
O124 C122 1.185 . S
O125 Dy120 2.491 . S
O125 C122 1.355 . S
O126 Dy120 2.403 . S
O126 C128 1.254 . S
O127 Dy120 2.664 . S
O127 Dy123 2.310 . S
O127 C128 1.268 . S
C128 O126 1.254 . S
C128 O127 1.268 . S
C129 O134 1.254 . S
C129 O135 1.268 . S
O130 Dy123 2.351 . S
O130 C138 1.249 . S
O131 Dy120 2.326 . S
O131 C138 1.267 . S
O132 C121 1.185 . S
O132 Dy123 2.398 1_556 S
O133 C121 1.355 . S
O133 Dy123 2.491 1_556 S
O134 Dy123 2.403 . S
O134 C129 1.254 . S
O135 Dy120 2.310 . S
O135 Dy123 2.664 . S
O135 C129 1.268 . S
O136 Dy120 2.351 1_556 S
O136 C139 1.249 . S
O137 Dy123 2.326 1_556 S
O137 C139 1.267 . S
C138 O130 1.249 . S
C138 O131 1.267 . S
C139 O136 1.249 . S
C139 O137 1.267 . S
Dy140 O144 2.398 . S
Dy140 O145 2.491 . S
Dy140 O146 2.403 . S
Dy140 O147 2.664 . S
Dy140 O151 2.326 . S
Dy140 O155 2.310 . S
Dy140 O156 2.351 . S
C141 O152 1.185 . S
C141 O153 1.355 . S
C142 O144 1.185 . S
C142 O145 1.355 . S
Dy143 O147 2.310 . S
Dy143 O150 2.351 . S
Dy143 O152 2.398 . S
Dy143 O153 2.491 . S
Dy143 O154 2.403 . S
Dy143 O155 2.664 . S
Dy143 O157 2.326 . S
O144 Dy140 2.398 . S
O144 C142 1.185 . S
O145 Dy140 2.491 . S
O145 C142 1.355 . S
O146 Dy140 2.403 . S
O146 C148 1.254 . S
O147 Dy140 2.664 . S
O147 Dy143 2.310 . S
O147 C148 1.268 . S
C148 O146 1.254 . S
C148 O147 1.268 . S
C149 O154 1.254 . S
C149 O155 1.268 . S
O150 Dy143 2.351 . S
O150 C158 1.249 . S
O151 Dy140 2.326 . S
O151 C158 1.267 . S
O152 C141 1.185 . S
O152 Dy143 2.398 . S
O153 C141 1.355 . S
O153 Dy143 2.491 . S
O154 Dy143 2.403 . S
O154 C149 1.254 . S
O155 Dy140 2.310 . S
O155 Dy143 2.664 . S
O155 C149 1.268 . S
O156 Dy140 2.351 . S
O156 C159 1.249 . S
O157 Dy143 2.326 . S
O157 C159 1.267 . S
C158 O150 1.249 . S
C158 O151 1.267 . S
C159 O156 1.249 . S
C159 O157 1.267 . S
Dy160 O164 2.398 . S
Dy160 O165 2.491 . S
Dy160 O166 2.403 . S
Dy160 O167 2.664 . S
Dy160 O171 2.326 . S
Dy160 O175 2.310 . S
Dy160 O176 2.351 . S
C161 O172 1.185 . S
C161 O173 1.355 . S
C162 O164 1.185 . S
C162 O165 1.355 . S
Dy163 O167 2.310 . S
Dy163 O170 2.351 . S
Dy163 O172 2.398 1_554 S
Dy163 O173 2.491 1_554 S
Dy163 O174 2.403 . S
Dy163 O175 2.664 . S
Dy163 O177 2.326 1_554 S
O164 Dy160 2.398 . S
O164 C162 1.185 . S
O165 Dy160 2.491 . S
O165 C162 1.355 . S
O166 Dy160 2.403 . S
O166 C168 1.254 . S
O167 Dy160 2.664 . S
O167 Dy163 2.310 . S
O167 C168 1.268 . S
C168 O166 1.254 . S
C168 O167 1.268 . S
C169 O174 1.254 . S
C169 O175 1.268 . S
O170 Dy163 2.351 . S
O170 C178 1.249 . S
O171 Dy160 2.326 . S
O171 C178 1.267 . S
O172 C161 1.185 . S
O172 Dy163 2.398 1_556 S
O173 C161 1.355 . S
O173 Dy163 2.491 1_556 S
O174 Dy163 2.403 . S
O174 C169 1.254 . S
O175 Dy160 2.310 . S
O175 Dy163 2.664 . S
O175 C169 1.268 . S
O176 Dy160 2.351 . S
O176 C179 1.249 1_554 S
O177 Dy163 2.326 1_556 S
O177 C179 1.267 . S
C178 O170 1.249 . S
C178 O171 1.267 . S
C179 O176 1.249 1_556 S
C179 O177 1.267 . S
Dy180 O184 2.398 . S
Dy180 O185 2.491 . S
Dy180 O186 2.403 . S
Dy180 O187 2.664 . S
Dy180 O191 2.326 . S
Dy180 O195 2.310 . S
Dy180 O196 2.351 . S
C181 O192 1.185 . S
C181 O193 1.355 . S
C182 O184 1.185 . S
C182 O185 1.355 . S
Dy183 O187 2.310 . S
Dy183 O190 2.351 . S
Dy183 O192 2.398 . S
Dy183 O193 2.491 . S
Dy183 O194 2.403 . S
Dy183 O195 2.664 . S
Dy183 O197 2.326 . S
O184 Dy180 2.398 . S
O184 C182 1.185 . S
O185 Dy180 2.491 . S
O185 C182 1.355 . S
O186 Dy180 2.403 . S
O186 C188 1.254 . S
O187 Dy180 2.664 . S
O187 Dy183 2.310 . S
O187 C188 1.268 . S
C188 O186 1.254 . S
C188 O187 1.268 . S
C189 O194 1.254 . S
C189 O195 1.268 . S
O190 Dy183 2.351 . S
O190 C198 1.249 . S
O191 Dy180 2.326 . S
O191 C198 1.267 . S
O192 C181 1.185 . S
O192 Dy183 2.398 . S
O193 C181 1.355 . S
O193 Dy183 2.491 . S
O194 Dy183 2.403 . S
O194 C189 1.254 . S
O195 Dy180 2.310 . S
O195 Dy183 2.664 . S
O195 C189 1.268 . S
O196 Dy180 2.351 . S
O196 C199 1.249 . S
O197 Dy183 2.326 . S
O197 C199 1.267 . S
C198 O190 1.249 . S
C198 O191 1.267 . S
C199 O196 1.249 . S
C199 O197 1.267 . S
Dy200 O204 2.398 . S
Dy200 O205 2.491 . S
Dy200 O206 2.403 . S
Dy200 O207 2.664 . S
Dy200 O211 2.326 . S
Dy200 O215 2.310 . S
Dy200 O216 2.351 . S
C201 O212 1.185 . S
C201 O213 1.355 . S
C202 O204 1.185 . S
C202 O205 1.355 . S
Dy203 O207 2.310 . S
Dy203 O210 2.351 . S
Dy203 O212 2.398 . S
Dy203 O213 2.491 . S
Dy203 O214 2.403 . S
Dy203 O215 2.664 . S
Dy203 O217 2.326 . S
O204 Dy200 2.398 . S
O204 C202 1.185 . S
O205 Dy200 2.491 . S
O205 C202 1.355 . S
O206 Dy200 2.403 . S
O206 C208 1.254 . S
O207 Dy200 2.664 . S
O207 Dy203 2.310 . S
O207 C208 1.268 . S
C208 O206 1.254 . S
C208 O207 1.268 . S
C209 O214 1.254 . S
C209 O215 1.268 . S
O210 Dy203 2.351 . S
O210 C218 1.249 . S
O211 Dy200 2.326 . S
O211 C218 1.267 . S
O212 C201 1.185 . S
O212 Dy203 2.398 . S
O213 C201 1.355 . S
O213 Dy203 2.491 . S
O214 Dy203 2.403 . S
O214 C209 1.254 . S
O215 Dy200 2.310 . S
O215 Dy203 2.664 . S
O215 C209 1.268 . S
O216 Dy200 2.351 . S
O216 C219 1.249 . S
O217 Dy203 2.326 . S
O217 C219 1.267 . S
C218 O210 1.249 . S
C218 O211 1.267 . S
C219 O216 1.249 . S
C219 O217 1.267 . S
Dy220 O224 2.398 . S
Dy220 O225 2.491 . S
Dy220 O226 2.403 . S
Dy220 O227 2.664 . S
Dy220 O231 2.326 . S
Dy220 O235 2.310 . S
Dy220 O236 2.351 . S
C221 O232 1.185 . S
C221 O233 1.355 . S
C222 O224 1.185 . S
C222 O225 1.355 . S
Dy223 O227 2.310 . S
Dy223 O230 2.351 . S
Dy223 O232 2.398 . S
Dy223 O233 2.491 . S
Dy223 O234 2.403 . S
Dy223 O235 2.664 . S
Dy223 O237 2.326 . S
O224 Dy220 2.398 . S
O224 C222 1.185 . S
O225 Dy220 2.491 . S
O225 C222 1.355 . S
O226 Dy220 2.403 . S
O226 C228 1.254 . S
O227 Dy220 2.664 . S
O227 Dy223 2.310 . S
O227 C228 1.268 . S
C228 O226 1.254 . S
C228 O227 1.268 . S
C229 O234 1.254 . S
C229 O235 1.268 . S
O230 Dy223 2.351 . S
O230 C238 1.249 . S
O231 Dy220 2.326 . S
O231 C238 1.267 . S
O232 C221 1.185 . S
O232 Dy223 2.398 . S
O233 C221 1.355 . S
O233 Dy223 2.491 . S
O234 Dy223 2.403 . S
O234 C229 1.254 . S
O235 Dy220 2.310 . S
O235 Dy223 2.664 . S
O235 C229 1.268 . S
O236 Dy220 2.351 . S
O236 C239 1.249 . S
O237 Dy223 2.326 . S
O237 C239 1.267 . S
C238 O230 1.249 . S
C238 O231 1.267 . S
C239 O236 1.249 . S
C239 O237 1.267 . S
Dy240 O244 2.398 . S
Dy240 O245 2.491 . S
Dy240 O246 2.403 . S
Dy240 O247 2.664 . S
Dy240 O251 2.326 . S
Dy240 O255 2.310 . S
Dy240 O256 2.351 . S
C241 O252 1.185 . S
C241 O253 1.355 . S
C242 O244 1.185 . S
C242 O245 1.355 . S
Dy243 O247 2.310 . S
Dy243 O250 2.351 . S
Dy243 O252 2.398 . S
Dy243 O253 2.491 . S
Dy243 O254 2.403 . S
Dy243 O255 2.664 . S
Dy243 O257 2.326 . S
O244 Dy240 2.398 . S
O244 C242 1.185 . S
O245 Dy240 2.491 . S
O245 C242 1.355 . S
O246 Dy240 2.403 . S
O246 C248 1.254 . S
O247 Dy240 2.664 . S
O247 Dy243 2.310 . S
O247 C248 1.268 . S
C248 O246 1.254 . S
C248 O247 1.268 . S
C249 O254 1.254 . S
C249 O255 1.268 . S
O250 Dy243 2.351 . S
O250 C258 1.249 . S
O251 Dy240 2.326 . S
O251 C258 1.267 . S
O252 C241 1.185 . S
O252 Dy243 2.398 . S
O253 C241 1.355 . S
O253 Dy243 2.491 . S
O254 Dy243 2.403 . S
O254 C249 1.254 . S
O255 Dy240 2.310 . S
O255 Dy243 2.664 . S
O255 C249 1.268 . S
O256 Dy240 2.351 . S
O256 C259 1.249 . S
O257 Dy243 2.326 . S
O257 C259 1.267 . S
C258 O250 1.249 . S
C258 O251 1.267 . S
C259 O256 1.249 . S
C259 O257 1.267 . S
Dy260 O264 2.398 . S
Dy260 O265 2.491 . S
Dy260 O266 2.403 . S
Dy260 O267 2.664 . S
Dy260 O271 2.326 . S
Dy260 O275 2.310 . S
Dy260 O276 2.351 . S
C261 O272 1.185 . S
C261 O273 1.355 . S
C262 O264 1.185 . S
C262 O265 1.355 . S
Dy263 O267 2.310 . S
Dy263 O270 2.351 . S
Dy263 O272 2.398 . S
Dy263 O273 2.491 . S
Dy263 O274 2.403 . S
Dy263 O275 2.664 . S
Dy263 O277 2.326 . S
O264 Dy260 2.398 . S
O264 C262 1.185 . S
O265 Dy260 2.491 . S
O265 C262 1.355 . S
O266 Dy260 2.403 . S
O266 C268 1.254 . S
O267 Dy260 2.664 . S
O267 Dy263 2.310 . S
O267 C268 1.268 . S
C268 O266 1.254 . S
C268 O267 1.268 . S
C269 O274 1.254 . S
C269 O275 1.268 . S
O270 Dy263 2.351 . S
O270 C278 1.249 . S
O271 Dy260 2.326 . S
O271 C278 1.267 . S
O272 C261 1.185 . S
O272 Dy263 2.398 . S
O273 C261 1.355 . S
O273 Dy263 2.491 . S
O274 Dy263 2.403 . S
O274 C269 1.254 . S
O275 Dy260 2.310 . S
O275 Dy263 2.664 . S
O275 C269 1.268 . S
O276 Dy260 2.351 . S
O276 C279 1.249 . S
O277 Dy263 2.326 . S
O277 C279 1.267 . S
C278 O270 1.249 . S
C278 O271 1.267 . S
C279 O276 1.249 . S
C279 O277 1.267 . S
Dy280 O284 2.398 . S
Dy280 O285 2.491 . S
Dy280 O286 2.403 . S
Dy280 O287 2.664 . S
Dy280 O291 2.326 . S
Dy280 O295 2.310 . S
Dy280 O296 2.351 1_554 S
C281 O292 1.185 . S
C281 O293 1.355 . S
C282 O284 1.185 . S
C282 O285 1.355 . S
Dy283 O287 2.310 . S
Dy283 O290 2.351 . S
Dy283 O292 2.398 1_554 S
Dy283 O293 2.491 1_554 S
Dy283 O294 2.403 . S
Dy283 O295 2.664 . S
Dy283 O297 2.326 1_554 S
O284 Dy280 2.398 . S
O284 C282 1.185 . S
O285 Dy280 2.491 . S
O285 C282 1.355 . S
O286 Dy280 2.403 . S
O286 C288 1.254 . S
O287 Dy280 2.664 . S
O287 Dy283 2.310 . S
O287 C288 1.268 . S
C288 O286 1.254 . S
C288 O287 1.268 . S
C289 O294 1.254 . S
C289 O295 1.268 . S
O290 Dy283 2.351 . S
O290 C298 1.249 . S
O291 Dy280 2.326 . S
O291 C298 1.267 . S
O292 C281 1.185 . S
O292 Dy283 2.398 1_556 S
O293 C281 1.355 . S
O293 Dy283 2.491 1_556 S
O294 Dy283 2.403 . S
O294 C289 1.254 . S
O295 Dy280 2.310 . S
O295 Dy283 2.664 . S
O295 C289 1.268 . S
O296 Dy280 2.351 1_556 S
O296 C299 1.249 . S
O297 Dy283 2.326 1_556 S
O297 C299 1.267 . S
C298 O290 1.249 . S
C298 O291 1.267 . S
C299 O296 1.249 . S
C299 O297 1.267 . S
Dy300 O304 2.398 . S
Dy300 O305 2.491 . S
Dy300 O306 2.403 . S
Dy300 O307 2.664 . S
Dy300 O311 2.326 . S
Dy300 O315 2.310 . S
Dy300 O316 2.351 . S
C301 O312 1.185 . S
C301 O313 1.355 . S
C302 O304 1.185 . S
C302 O305 1.355 . S
Dy303 O307 2.310 . S
Dy303 O310 2.351 . S
Dy303 O312 2.398 . S
Dy303 O313 2.491 . S
Dy303 O314 2.403 . S
Dy303 O315 2.664 . S
Dy303 O317 2.326 . S
O304 Dy300 2.398 . S
O304 C302 1.185 . S
O305 Dy300 2.491 . S
O305 C302 1.355 . S
O306 Dy300 2.403 . S
O306 C308 1.254 . S
O307 Dy300 2.664 . S
O307 Dy303 2.310 . S
O307 C308 1.268 . S
C308 O306 1.254 . S
C308 O307 1.268 . S
C309 O314 1.254 . S
C309 O315 1.268 . S
O310 Dy303 2.351 . S
O310 C318 1.249 . S
O311 Dy300 2.326 . S
O311 C318 1.267 . S
O312 C301 1.185 . S
O312 Dy303 2.398 . S
O313 C301 1.355 . S
O313 Dy303 2.491 . S
O314 Dy303 2.403 . S
O314 C309 1.254 . S
O315 Dy300 2.310 . S
O315 Dy303 2.664 . S
O315 C309 1.268 . S
O316 Dy300 2.351 . S
O316 C319 1.249 . S
O317 Dy303 2.326 . S
O317 C319 1.267 . S
C318 O310 1.249 . S
C318 O311 1.267 . S
C319 O316 1.249 . S
C319 O317 1.267 . S
Dy320 O324 2.398 . S
Dy320 O325 2.491 . S
Dy320 O326 2.403 . S
Dy320 O327 2.664 . S
Dy320 O331 2.326 . S
Dy320 O335 2.310 . S
Dy320 O336 2.351 . S
C321 O332 1.185 . S
C321 O333 1.355 . S
C322 O324 1.185 . S
C322 O325 1.355 . S
Dy323 O327 2.310 . S
Dy323 O330 2.351 . S
Dy323 O332 2.398 . S
Dy323 O333 2.491 . S
Dy323 O334 2.403 . S
Dy323 O335 2.664 . S
Dy323 O337 2.326 . S
O324 Dy320 2.398 . S
O324 C322 1.185 . S
O325 Dy320 2.491 . S
O325 C322 1.355 . S
O326 Dy320 2.403 . S
O326 C328 1.254 . S
O327 Dy320 2.664 . S
O327 Dy323 2.310 . S
O327 C328 1.268 . S
C328 O326 1.254 . S
C328 O327 1.268 . S
C329 O334 1.254 . S
C329 O335 1.268 . S
O330 Dy323 2.351 . S
O330 C338 1.249 . S
O331 Dy320 2.326 . S
O331 C338 1.267 . S
O332 C321 1.185 . S
O332 Dy323 2.398 . S
O333 C321 1.355 . S
O333 Dy323 2.491 . S
O334 Dy323 2.403 . S
O334 C329 1.254 . S
O335 Dy320 2.310 . S
O335 Dy323 2.664 . S
O335 C329 1.268 . S
O336 Dy320 2.351 . S
O336 C339 1.249 . S
O337 Dy323 2.326 . S
O337 C339 1.267 . S
C338 O330 1.249 . S
C338 O331 1.267 . S
C339 O336 1.249 . S
C339 O337 1.267 . S
Dy340 O344 2.398 . S
Dy340 O345 2.491 . S
Dy340 O346 2.403 . S
Dy340 O347 2.664 . S
Dy340 O351 2.326 . S
Dy340 O355 2.310 . S
Dy340 O356 2.351 . S
C341 O352 1.185 . S
C341 O353 1.355 . S
C342 O344 1.185 . S
C342 O345 1.355 . S
Dy343 O347 2.310 . S
Dy343 O350 2.351 . S
Dy343 O352 2.398 . S
Dy343 O353 2.491 . S
Dy343 O354 2.403 . S
Dy343 O355 2.664 . S
Dy343 O357 2.326 . S
O344 Dy340 2.398 . S
O344 C342 1.185 . S
O345 Dy340 2.491 . S
O345 C342 1.355 . S
O346 Dy340 2.403 . S
O346 C348 1.254 . S
O347 Dy340 2.664 . S
O347 Dy343 2.310 . S
O347 C348 1.268 . S
C348 O346 1.254 . S
C348 O347 1.268 . S
C349 O354 1.254 . S
C349 O355 1.268 . S
O350 Dy343 2.351 . S
O350 C358 1.249 . S
O351 Dy340 2.326 . S
O351 C358 1.267 . S
O352 C341 1.185 . S
O352 Dy343 2.398 . S
O353 C341 1.355 . S
O353 Dy343 2.491 . S
O354 Dy343 2.403 . S
O354 C349 1.254 . S
O355 Dy340 2.310 . S
O355 Dy343 2.664 . S
O355 C349 1.268 . S
O356 Dy340 2.351 . S
O356 C359 1.249 . S
O357 Dy343 2.326 . S
O357 C359 1.267 . S
C358 O350 1.249 . S
C358 O351 1.267 . S
C359 O356 1.249 . S
C359 O357 1.267 . S
Dy360 O364 2.398 1_554 S
Dy360 O365 2.491 1_554 S
Dy360 O366 2.403 . S
Dy360 O367 2.664 . S
Dy360 O371 2.326 1_554 S
Dy360 O375 2.310 . S
Dy360 O376 2.351 . S
C361 O372 1.185 . S
C361 O373 1.355 . S
C362 O364 1.185 . S
C362 O365 1.355 . S
Dy363 O367 2.310 . S
Dy363 O370 2.351 1_554 S
Dy363 O372 2.398 . S
Dy363 O373 2.491 . S
Dy363 O374 2.403 . S
Dy363 O375 2.664 . S
Dy363 O377 2.326 . S
O364 Dy360 2.398 1_556 S
O364 C362 1.185 . S
O365 Dy360 2.491 1_556 S
O365 C362 1.355 . S
O366 Dy360 2.403 . S
O366 C368 1.254 . S
O367 Dy360 2.664 . S
O367 Dy363 2.310 . S
O367 C368 1.268 . S
C368 O366 1.254 . S
C368 O367 1.268 . S
C369 O374 1.254 . S
C369 O375 1.268 . S
O370 Dy363 2.351 1_556 S
O370 C378 1.249 . S
O371 Dy360 2.326 1_556 S
O371 C378 1.267 . S
O372 C361 1.185 . S
O372 Dy363 2.398 . S
O373 C361 1.355 . S
O373 Dy363 2.491 . S
O374 Dy363 2.403 . S
O374 C369 1.254 . S
O375 Dy360 2.310 . S
O375 Dy363 2.664 . S
O375 C369 1.268 . S
O376 Dy360 2.351 . S
O376 C379 1.249 . S
O377 Dy363 2.326 . S
O377 C379 1.267 . S
C378 O370 1.249 . S
C378 O371 1.267 . S
C379 O376 1.249 . S
C379 O377 1.267 . S
Dy380 O384 2.398 . S
Dy380 O385 2.491 . S
Dy380 O386 2.403 . S
Dy380 O387 2.664 . S
Dy380 O391 2.326 . S
Dy380 O395 2.310 . S
Dy380 O396 2.351 . S
C381 O392 1.185 . S
C381 O393 1.355 . S
C382 O384 1.185 . S
C382 O385 1.355 . S
Dy383 O387 2.310 . S
Dy383 O390 2.351 . S
Dy383 O392 2.398 . S
Dy383 O393 2.491 . S
Dy383 O394 2.403 . S
Dy383 O395 2.664 . S
Dy383 O397 2.326 . S
O384 Dy380 2.398 . S
O384 C382 1.185 . S
O385 Dy380 2.491 . S
O385 C382 1.355 . S
O386 Dy380 2.403 . S
O386 C388 1.254 . S
O387 Dy380 2.664 . S
O387 Dy383 2.310 . S
O387 C388 1.268 . S
C388 O386 1.254 . S
C388 O387 1.268 . S
C389 O394 1.254 . S
C389 O395 1.268 . S
O390 Dy383 2.351 . S
O390 C398 1.249 . S
O391 Dy380 2.326 . S
O391 C398 1.267 . S
O392 C381 1.185 . S
O392 Dy383 2.398 . S
O393 C381 1.355 . S
O393 Dy383 2.491 . S
O394 Dy383 2.403 . S
O394 C389 1.254 . S
O395 Dy380 2.310 . S
O395 Dy383 2.664 . S
O395 C389 1.268 . S
O396 Dy380 2.351 . S
O396 C399 1.249 . S
O397 Dy383 2.326 . S
O397 C399 1.267 . S
C398 O390 1.249 . S
C398 O391 1.267 . S
C399 O396 1.249 . S
C399 O397 1.267 . S
Dy400 O404 2.398 . S
Dy400 O405 2.491 . S
Dy400 O406 2.403 . S
Dy400 O407 2.664 1_554 S
Dy400 O411 2.326 . S
Dy400 O415 2.310 . S
Dy400 O416 2.351 1_554 S
C401 O412 1.185 1_545 S
C401 O413 1.355 . S
C402 O404 1.185 . S
C402 O405 1.355 . S
Dy403 O407 2.310 . S
Dy403 O410 2.351 1_556 S
Dy403 O412 2.398 1_545 S
Dy403 O413 2.491 . S
Dy403 O414 2.403 1_545 S
Dy403 O415 2.664 1_556 S
Dy403 O417 2.326 . S
O404 Dy400 2.398 . S
O404 C402 1.185 . S
O405 Dy400 2.491 . S
O405 C402 1.355 . S
O406 Dy400 2.403 . S
O406 C408 1.254 1_554 S
O407 Dy400 2.664 1_556 S
O407 Dy403 2.310 . S
O407 C408 1.268 . S
C408 O406 1.254 1_556 S
C408 O407 1.268 . S
C409 O414 1.254 1_544 S
C409 O415 1.268 . S
O410 Dy403 2.351 1_554 S
O410 C418 1.249 . S
O411 Dy400 2.326 . S
O411 C418 1.267 . S
O412 C401 1.185 1_565 S
O412 Dy403 2.398 1_565 S
O413 C401 1.355 . S
O413 Dy403 2.491 . S
O414 Dy403 2.403 1_565 S
O414 C409 1.254 1_566 S
O415 Dy400 2.310 . S
O415 Dy403 2.664 1_554 S
O415 C409 1.268 . S
O416 Dy400 2.351 1_556 S
O416 C419 1.249 . S
O417 Dy403 2.326 . S
O417 C419 1.267 . S
C418 O410 1.249 . S
C418 O411 1.267 . S
C419 O416 1.249 . S
C419 O417 1.267 . S
Dy420 O424 2.398 . S
Dy420 O425 2.491 . S
Dy420 O426 2.403 . S
Dy420 O427 2.664 . S
Dy420 O431 2.326 . S
Dy420 O435 2.310 . S
Dy420 O436 2.351 . S
C421 O432 1.185 . S
C421 O433 1.355 . S
C422 O424 1.185 . S
C422 O425 1.355 . S
Dy423 O427 2.310 . S
Dy423 O430 2.351 . S
Dy423 O432 2.398 . S
Dy423 O433 2.491 . S
Dy423 O434 2.403 . S
Dy423 O435 2.664 . S
Dy423 O437 2.326 . S
O424 Dy420 2.398 . S
O424 C422 1.185 . S
O425 Dy420 2.491 . S
O425 C422 1.355 . S
O426 Dy420 2.403 . S
O426 C428 1.254 . S
O427 Dy420 2.664 . S
O427 Dy423 2.310 . S
O427 C428 1.268 . S
C428 O426 1.254 . S
C428 O427 1.268 . S
C429 O434 1.254 . S
C429 O435 1.268 . S
O430 Dy423 2.351 . S
O430 C438 1.249 . S
O431 Dy420 2.326 . S
O431 C438 1.267 . S
O432 C421 1.185 . S
O432 Dy423 2.398 . S
O433 C421 1.355 . S
O433 Dy423 2.491 . S
O434 Dy423 2.403 . S
O434 C429 1.254 . S
O435 Dy420 2.310 . S
O435 Dy423 2.664 . S
O435 C429 1.268 . S
O436 Dy420 2.351 . S
O436 C439 1.249 . S
O437 Dy423 2.326 . S
O437 C439 1.267 . S
C438 O430 1.249 . S
C438 O431 1.267 . S
C439 O436 1.249 . S
C439 O437 1.267 . S
Dy440 O444 2.398 . S
Dy440 O445 2.491 . S
Dy440 O446 2.403 . S
Dy440 O447 2.664 . S
Dy440 O451 2.326 . S
Dy440 O455 2.310 . S
Dy440 O456 2.351 . S
C441 O452 1.185 . S
C441 O453 1.355 . S
C442 O444 1.185 . S
C442 O445 1.355 . S
Dy443 O447 2.310 . S
Dy443 O450 2.351 . S
Dy443 O452 2.398 . S
Dy443 O453 2.491 . S
Dy443 O454 2.403 . S
Dy443 O455 2.664 . S
Dy443 O457 2.326 . S
O444 Dy440 2.398 . S
O444 C442 1.185 . S
O445 Dy440 2.491 . S
O445 C442 1.355 . S
O446 Dy440 2.403 . S
O446 C448 1.254 . S
O447 Dy440 2.664 . S
O447 Dy443 2.310 . S
O447 C448 1.268 . S
C448 O446 1.254 . S
C448 O447 1.268 . S
C449 O454 1.254 . S
C449 O455 1.268 . S
O450 Dy443 2.351 . S
O450 C458 1.249 . S
O451 Dy440 2.326 . S
O451 C458 1.267 . S
O452 C441 1.185 . S
O452 Dy443 2.398 . S
O453 C441 1.355 . S
O453 Dy443 2.491 . S
O454 Dy443 2.403 . S
O454 C449 1.254 . S
O455 Dy440 2.310 . S
O455 Dy443 2.664 . S
O455 C449 1.268 . S
O456 Dy440 2.351 . S
O456 C459 1.249 . S
O457 Dy443 2.326 . S
O457 C459 1.267 . S
C458 O450 1.249 . S
C458 O451 1.267 . S
C459 O456 1.249 . S
C459 O457 1.267 . S
Dy460 O464 2.398 . S
Dy460 O465 2.491 . S
Dy460 O466 2.403 . S
Dy460 O467 2.664 . S
Dy460 O471 2.326 . S
Dy460 O475 2.310 . S
Dy460 O476 2.351 . S
C461 O472 1.185 . S
C461 O473 1.355 . S
C462 O464 1.185 . S
C462 O465 1.355 . S
Dy463 O467 2.310 . S
Dy463 O470 2.351 . S
Dy463 O472 2.398 . S
Dy463 O473 2.491 . S
Dy463 O474 2.403 . S
Dy463 O475 2.664 . S
Dy463 O477 2.326 . S
O464 Dy460 2.398 . S
O464 C462 1.185 . S
O465 Dy460 2.491 . S
O465 C462 1.355 . S
O466 Dy460 2.403 . S
O466 C468 1.254 . S
O467 Dy460 2.664 . S
O467 Dy463 2.310 . S
O467 C468 1.268 . S
C468 O466 1.254 . S
C468 O467 1.268 . S
C469 O474 1.254 . S
C469 O475 1.268 . S
O470 Dy463 2.351 . S
O470 C478 1.249 . S
O471 Dy460 2.326 . S
O471 C478 1.267 . S
O472 C461 1.185 . S
O472 Dy463 2.398 . S
O473 C461 1.355 . S
O473 Dy463 2.491 . S
O474 Dy463 2.403 . S
O474 C469 1.254 . S
O475 Dy460 2.310 . S
O475 Dy463 2.664 . S
O475 C469 1.268 . S
O476 Dy460 2.351 . S
O476 C479 1.249 . S
O477 Dy463 2.326 . S
O477 C479 1.267 . S
C478 O470 1.249 . S
C478 O471 1.267 . S
C479 O476 1.249 . S
C479 O477 1.267 . S
Dy480 O484 2.398 . S
Dy480 O485 2.491 . S
Dy480 O486 2.403 . S
Dy480 O487 2.664 . S
Dy480 O491 2.326 . S
Dy480 O495 2.310 . S
Dy480 O496 2.351 . S
C481 O492 1.185 . S
C481 O493 1.355 . S
C482 O484 1.185 . S
C482 O485 1.355 . S
Dy483 O487 2.310 . S
Dy483 O490 2.351 . S
Dy483 O492 2.398 . S
Dy483 O493 2.491 . S
Dy483 O494 2.403 . S
Dy483 O495 2.664 . S
Dy483 O497 2.326 . S
O484 Dy480 2.398 . S
O484 C482 1.185 . S
O485 Dy480 2.491 . S
O485 C482 1.355 . S
O486 Dy480 2.403 . S
O486 C488 1.254 . S
O487 Dy480 2.664 . S
O487 Dy483 2.310 . S
O487 C488 1.268 . S
C488 O486 1.254 . S
C488 O487 1.268 . S
C489 O494 1.254 . S
C489 O495 1.268 . S
O490 Dy483 2.351 . S
O490 C498 1.249 . S
O491 Dy480 2.326 . S
O491 C498 1.267 . S
O492 C481 1.185 . S
O492 Dy483 2.398 . S
O493 C481 1.355 . S
O493 Dy483 2.491 . S
O494 Dy483 2.403 . S
O494 C489 1.254 . S
O495 Dy480 2.310 . S
O495 Dy483 2.664 . S
O495 C489 1.268 . S
O496 Dy480 2.351 . S
O496 C499 1.249 . S
O497 Dy483 2.326 . S
O497 C499 1.267 . S
C498 O490 1.249 . S
C498 O491 1.267 . S
C499 O496 1.249 . S
C499 O497 1.267 . S
Dy500 O504 2.398 . S
Dy500 O505 2.491 . S
Dy500 O506 2.403 . S
Dy500 O507 2.664 . S
Dy500 O511 2.326 . S
Dy500 O515 2.310 . S
Dy500 O516 2.351 . S
C501 O512 1.185 . S
C501 O513 1.355 . S
C502 O504 1.185 . S
C502 O505 1.355 . S
Dy503 O507 2.310 . S
Dy503 O510 2.351 . S
Dy503 O512 2.398 . S
Dy503 O513 2.491 . S
Dy503 O514 2.403 . S
Dy503 O515 2.664 . S
Dy503 O517 2.326 . S
O504 Dy500 2.398 . S
O504 C502 1.185 . S
O505 Dy500 2.491 . S
O505 C502 1.355 . S
O506 Dy500 2.403 . S
O506 C508 1.254 . S
O507 Dy500 2.664 . S
O507 Dy503 2.310 . S
O507 C508 1.268 . S
C508 O506 1.254 . S
C508 O507 1.268 . S
C509 O514 1.254 . S
C509 O515 1.268 . S
O510 Dy503 2.351 . S
O510 C518 1.249 . S
O511 Dy500 2.326 . S
O511 C518 1.267 . S
O512 C501 1.185 . S
O512 Dy503 2.398 . S
O513 C501 1.355 . S
O513 Dy503 2.491 . S
O514 Dy503 2.403 . S
O514 C509 1.254 . S
O515 Dy500 2.310 . S
O515 Dy503 2.664 . S
O515 C509 1.268 . S
O516 Dy500 2.351 . S
O516 C519 1.249 . S
O517 Dy503 2.326 . S
O517 C519 1.267 . S
C518 O510 1.249 . S
C518 O511 1.267 . S
C519 O516 1.249 . S
C519 O517 1.267 . S
Dy520 O524 2.398 1_554 S
Dy520 O525 2.491 1_554 S
Dy520 O526 2.403 . S
Dy520 O527 2.664 . S
Dy520 O531 2.326 1_554 S
Dy520 O535 2.310 . S
Dy520 O536 2.351 . S
C521 O532 1.185 . S
C521 O533 1.355 . S
C522 O524 1.185 . S
C522 O525 1.355 . S
Dy523 O527 2.310 . S
Dy523 O530 2.351 1_554 S
Dy523 O532 2.398 . S
Dy523 O533 2.491 . S
Dy523 O534 2.403 . S
Dy523 O535 2.664 . S
Dy523 O537 2.326 . S
O524 Dy520 2.398 1_556 S
O524 C522 1.185 . S
O525 Dy520 2.491 1_556 S
O525 C522 1.355 . S
O526 Dy520 2.403 . S
O526 C528 1.254 . S
O527 Dy520 2.664 . S
O527 Dy523 2.310 . S
O527 C528 1.268 . S
C528 O526 1.254 . S
C528 O527 1.268 . S
C529 O534 1.254 . S
C529 O535 1.268 . S
O530 Dy523 2.351 1_556 S
O530 C538 1.249 . S
O531 Dy520 2.326 1_556 S
O531 C538 1.267 . S
O532 C521 1.185 . S
O532 Dy523 2.398 . S
O533 C521 1.355 . S
O533 Dy523 2.491 . S
O534 Dy523 2.403 . S
O534 C529 1.254 . S
O535 Dy520 2.310 . S
O535 Dy523 2.664 . S
O535 C529 1.268 . S
O536 Dy520 2.351 . S
O536 C539 1.249 . S
O537 Dy523 2.326 . S
O537 C539 1.267 . S
C538 O530 1.249 . S
C538 O531 1.267 . S
C539 O536 1.249 . S
C539 O537 1.267 . S
Dy540 O544 2.398 . S
Dy540 O545 2.491 . S
Dy540 O546 2.403 . S
Dy540 O547 2.664 . S
Dy540 O551 2.326 . S
Dy540 O555 2.310 . S
Dy540 O556 2.351 . S
C541 O552 1.185 . S
C541 O553 1.355 . S
C542 O544 1.185 . S
C542 O545 1.355 . S
Dy543 O547 2.310 . S
Dy543 O550 2.351 . S
Dy543 O552 2.398 . S
Dy543 O553 2.491 . S
Dy543 O554 2.403 . S
Dy543 O555 2.664 . S
Dy543 O557 2.326 . S
O544 Dy540 2.398 . S
O544 C542 1.185 . S
O545 Dy540 2.491 . S
O545 C542 1.355 . S
O546 Dy540 2.403 . S
O546 C548 1.254 . S
O547 Dy540 2.664 . S
O547 Dy543 2.310 . S
O547 C548 1.268 . S
C548 O546 1.254 . S
C548 O547 1.268 . S
C549 O554 1.254 . S
C549 O555 1.268 . S
O550 Dy543 2.351 . S
O550 C558 1.249 . S
O551 Dy540 2.326 . S
O551 C558 1.267 . S
O552 C541 1.185 . S
O552 Dy543 2.398 . S
O553 C541 1.355 . S
O553 Dy543 2.491 . S
O554 Dy543 2.403 . S
O554 C549 1.254 . S
O555 Dy540 2.310 . S
O555 Dy543 2.664 . S
O555 C549 1.268 . S
O556 Dy540 2.351 . S
O556 C559 1.249 . S
O557 Dy543 2.326 . S
O557 C559 1.267 . S
C558 O550 1.249 . S
C558 O551 1.267 . S
C559 O556 1.249 . S
C559 O557 1.267 . S
Dy560 O564 2.398 1_565 S
Dy560 O565 2.491 . S
Dy560 O566 2.403 1_565 S
Dy560 O567 2.664 . S
Dy560 O571 2.326 . S
Dy560 O575 2.310 . S
Dy560 O576 2.351 . S
C561 O572 1.185 . S
C561 O573 1.355 . S
C562 O564 1.185 1_565 S
C562 O565 1.355 . S
Dy563 O567 2.310 . S
Dy563 O570 2.351 . S
Dy563 O572 2.398 1_554 S
Dy563 O573 2.491 1_554 S
Dy563 O574 2.403 . S
Dy563 O575 2.664 . S
Dy563 O577 2.326 . S
O564 Dy560 2.398 1_545 S
O564 C562 1.185 1_545 S
O565 Dy560 2.491 . S
O565 C562 1.355 . S
O566 Dy560 2.403 1_545 S
O566 C568 1.254 1_545 S
O567 Dy560 2.664 . S
O567 Dy563 2.310 . S
O567 C568 1.268 . S
C568 O566 1.254 1_565 S
C568 O567 1.268 . S
C569 O574 1.254 . S
C569 O575 1.268 . S
O570 Dy563 2.351 . S
O570 C578 1.249 . S
O571 Dy560 2.326 . S
O571 C578 1.267 . S
O572 C561 1.185 . S
O572 Dy563 2.398 1_556 S
O573 C561 1.355 . S
O573 Dy563 2.491 1_556 S
O574 Dy563 2.403 . S
O574 C569 1.254 . S
O575 Dy560 2.310 . S
O575 Dy563 2.664 . S
O575 C569 1.268 . S
O576 Dy560 2.351 . S
O576 C579 1.249 . S
O577 Dy563 2.326 . S
O577 C579 1.267 . S
C578 O570 1.249 . S
C578 O571 1.267 . S
C579 O576 1.249 . S
C579 O577 1.267 . S
Dy580 O584 2.398 . S
Dy580 O585 2.490 1_556 S
Dy580 O586 2.403 . S
Dy580 O587 2.664 . S
Dy580 O591 2.326 . S
Dy580 O595 2.310 . S
Dy580 O596 2.351 . S
C581 O592 1.185 . S
C581 O593 1.355 . S
C582 O584 1.185 1_554 S
C582 O585 1.356 . S
Dy583 O587 2.310 . S
Dy583 O590 2.351 . S
Dy583 O592 2.398 . S
Dy583 O593 2.491 . S
Dy583 O594 2.403 . S
Dy583 O595 2.664 . S
Dy583 O597 2.326 . S
O584 Dy580 2.398 . S
O584 C582 1.185 1_556 S
O585 Dy580 2.490 1_554 S
O585 C582 1.356 . S
O586 Dy580 2.403 . S
O586 C588 1.254 . S
O587 Dy580 2.664 . S
O587 Dy583 2.310 . S
O587 C588 1.268 . S
C588 O586 1.254 . S
C588 O587 1.268 . S
C589 O594 1.254 . S
C589 O595 1.268 . S
O590 Dy583 2.351 . S
O590 C598 1.249 . S
O591 Dy580 2.326 . S
O591 C598 1.267 . S
O592 C581 1.185 . S
O592 Dy583 2.398 . S
O593 C581 1.355 . S
O593 Dy583 2.491 . S
O594 Dy583 2.403 . S
O594 C589 1.254 . S
O595 Dy580 2.310 . S
O595 Dy583 2.664 . S
O595 C589 1.268 . S
O596 Dy580 2.351 . S
O596 C599 1.249 . S
O597 Dy583 2.326 . S
O597 C599 1.267 . S
C598 O590 1.249 . S
C598 O591 1.267 . S
C599 O596 1.249 . S
C599 O597 1.267 . S
Dy600 O604 2.398 . S
Dy600 O605 2.491 . S
Dy600 O606 2.403 . S
Dy600 O607 2.664 . S
Dy600 O611 2.326 . S
Dy600 O615 2.310 . S
Dy600 O616 2.351 . S
C601 O612 1.185 . S
C601 O613 1.355 . S
C602 O604 1.185 . S
C602 O605 1.355 . S
Dy603 O607 2.310 . S
Dy603 O610 2.351 . S
Dy603 O612 2.398 . S
Dy603 O613 2.491 . S
Dy603 O614 2.403 . S
Dy603 O615 2.664 . S
Dy603 O617 2.326 . S
O604 Dy600 2.398 . S
O604 C602 1.185 . S
O605 Dy600 2.491 . S
O605 C602 1.355 . S
O606 Dy600 2.403 . S
O606 C608 1.254 . S
O607 Dy600 2.664 . S
O607 Dy603 2.310 . S
O607 C608 1.268 . S
C608 O606 1.254 . S
C608 O607 1.268 . S
C609 O614 1.254 . S
C609 O615 1.268 . S
O610 Dy603 2.351 . S
O610 C618 1.249 . S
O611 Dy600 2.326 . S
O611 C618 1.267 . S
O612 C601 1.185 . S
O612 Dy603 2.398 . S
O613 C601 1.355 . S
O613 Dy603 2.491 . S
O614 Dy603 2.403 . S
O614 C609 1.254 . S
O615 Dy600 2.310 . S
O615 Dy603 2.664 . S
O615 C609 1.268 . S
O616 Dy600 2.351 . S
O616 C619 1.249 . S
O617 Dy603 2.326 . S
O617 C619 1.267 . S
C618 O610 1.249 . S
C618 O611 1.267 . S
C619 O616 1.249 . S
C619 O617 1.267 . S
Dy620 O624 2.398 . S
Dy620 O625 2.491 . S
Dy620 O626 2.403 . S
Dy620 O627 2.664 . S
Dy620 O631 2.326 . S
Dy620 O635 2.310 . S
Dy620 O636 2.351 . S
C621 O632 1.185 . S
C621 O633 1.355 . S
C622 O624 1.185 . S
C622 O625 1.355 . S
Dy623 O627 2.310 . S
Dy623 O630 2.351 . S
Dy623 O632 2.398 . S
Dy623 O633 2.491 . S
Dy623 O634 2.403 . S
Dy623 O635 2.664 . S
Dy623 O637 2.326 . S
O624 Dy620 2.398 . S
O624 C622 1.185 . S
O625 Dy620 2.491 . S
O625 C622 1.355 . S
O626 Dy620 2.403 . S
O626 C628 1.254 . S
O627 Dy620 2.664 . S
O627 Dy623 2.310 . S
O627 C628 1.268 . S
C628 O626 1.254 . S
C628 O627 1.268 . S
C629 O634 1.254 . S
C629 O635 1.268 . S
O630 Dy623 2.351 . S
O630 C638 1.249 . S
O631 Dy620 2.326 . S
O631 C638 1.267 . S
O632 C621 1.185 . S
O632 Dy623 2.398 . S
O633 C621 1.355 . S
O633 Dy623 2.491 . S
O634 Dy623 2.403 . S
O634 C629 1.254 . S
O635 Dy620 2.310 . S
O635 Dy623 2.664 . S
O635 C629 1.268 . S
O636 Dy620 2.351 . S
O636 C639 1.249 . S
O637 Dy623 2.326 . S
O637 C639 1.267 . S
C638 O630 1.249 . S
C638 O631 1.267 . S
C639 O636 1.249 . S
C639 O637 1.267 . S
C640 C641 1.369 . S
C640 C642 1.419 . S
C640 H644 0.930 . S
C641 C640 1.369 . S
C641 C650 1.429 . S
C642 C640 1.419 . S
C642 C643 1.363 . S
C642 H645 0.929 . S
C643 C642 1.363 . S
C643 C649 1.428 . S
H644 C640 0.930 . S
H645 C642 0.929 . S
S646 N647 1.613 . S
S646 N648 1.610 . S
N647 S646 1.613 . S
N647 C650 1.350 . S
N648 S646 1.610 . S
N648 C649 1.351 . S
C649 C643 1.428 . S
C649 N648 1.351 . S
C649 C650 1.434 . S
C650 C641 1.429 . S
C650 N647 1.350 . S
C650 C649 1.434 . S
C651 C652 1.369 . S
C651 C653 1.419 . S
C651 H655 0.930 . S
C652 C651 1.369 . S
C652 C661 1.429 . S
C653 C651 1.419 . S
C653 C654 1.363 . S
C653 H656 0.929 . S
C654 C653 1.363 . S
C654 C660 1.428 . S
H655 C651 0.930 . S
H656 C653 0.929 . S
S657 N658 1.613 . S
S657 N659 1.610 . S
N658 S657 1.613 . S
N658 C661 1.350 . S
N659 S657 1.610 . S
N659 C660 1.351 . S
C660 C654 1.428 . S
C660 N659 1.351 . S
C660 C661 1.434 . S
C661 C652 1.429 . S
C661 N658 1.350 . S
C661 C660 1.434 . S
C662 C663 1.369 . S
C662 C664 1.419 . S
C662 H666 0.930 . S
C663 C662 1.369 . S
C663 C672 1.429 . S
C664 C662 1.419 . S
C664 C665 1.363 . S
C664 H667 0.929 . S
C665 C664 1.363 . S
C665 C671 1.428 . S
H666 C662 0.930 . S
H667 C664 0.929 . S
S668 N669 1.613 . S
S668 N670 1.610 . S
N669 S668 1.613 . S
N669 C672 1.350 . S
N670 S668 1.610 . S
N670 C671 1.351 . S
C671 C665 1.428 . S
C671 N670 1.351 . S
C671 C672 1.434 . S
C672 C663 1.429 . S
C672 N669 1.350 . S
C672 C671 1.434 . S
C673 C674 1.369 . S
C673 C675 1.419 . S
C673 H677 0.930 . S
C674 C673 1.369 . S
C674 C683 1.429 . S
C675 C673 1.419 . S
C675 C676 1.363 1_554 S
C675 H678 0.929 . S
C676 C675 1.363 1_556 S
C676 C682 1.428 . S
H677 C673 0.930 . S
H678 C675 0.929 . S
S679 N680 1.613 1_556 S
S679 N681 1.610 . S
N680 S679 1.613 1_554 S
N680 C683 1.350 . S
N681 S679 1.610 . S
N681 C682 1.351 . S
C682 C676 1.428 . S
C682 N681 1.351 . S
C682 C683 1.434 1_556 S
C683 C674 1.429 . S
C683 N680 1.350 . S
C683 C682 1.434 1_554 S
C684 C685 1.369 . S
C684 C686 1.419 . S
C684 H688 0.930 . S
C685 C684 1.369 . S
C685 C694 1.429 . S
C686 C684 1.419 . S
C686 C687 1.363 . S
C686 H689 0.929 . S
C687 C686 1.363 . S
C687 C693 1.428 . S
H688 C684 0.930 . S
H689 C686 0.929 . S
S690 N691 1.613 . S
S690 N692 1.610 . S
N691 S690 1.613 . S
N691 C694 1.350 . S
N692 S690 1.610 . S
N692 C693 1.351 . S
C693 C687 1.428 . S
C693 N692 1.351 . S
C693 C694 1.434 . S
C694 C685 1.429 . S
C694 N691 1.350 . S
C694 C693 1.434 . S
C695 C696 1.369 . S
C695 C697 1.419 . S
C695 H699 0.930 . S
C696 C695 1.369 . S
C696 C705 1.429 . S
C697 C695 1.419 . S
C697 C698 1.363 . S
C697 H700 0.929 . S
C698 C697 1.363 . S
C698 C704 1.428 . S
H699 C695 0.930 . S
H700 C697 0.929 . S
S701 N702 1.613 . S
S701 N703 1.610 . S
N702 S701 1.613 . S
N702 C705 1.350 . S
N703 S701 1.610 . S
N703 C704 1.351 . S
C704 C698 1.428 . S
C704 N703 1.351 . S
C704 C705 1.434 . S
C705 C696 1.429 . S
C705 N702 1.350 . S
C705 C704 1.434 . S
C706 C707 1.369 . S
C706 C708 1.419 . S
C706 H710 0.930 . S
C707 C706 1.369 . S
C707 C716 1.429 . S
C708 C706 1.419 . S
C708 C709 1.363 . S
C708 H711 0.929 . S
C709 C708 1.363 . S
C709 C715 1.428 . S
H710 C706 0.930 . S
H711 C708 0.929 . S
S712 N713 1.613 . S
S712 N714 1.610 . S
N713 S712 1.613 . S
N713 C716 1.350 . S
N714 S712 1.610 . S
N714 C715 1.351 . S
C715 C709 1.428 . S
C715 N714 1.351 . S
C715 C716 1.434 . S
C716 C707 1.429 . S
C716 N713 1.350 . S
C716 C715 1.434 . S
C717 C718 1.369 . S
C717 C719 1.419 . S
C717 H721 0.930 . S
C718 C717 1.369 . S
C718 C727 1.429 . S
C719 C717 1.419 . S
C719 C720 1.363 . S
C719 H722 0.929 . S
C720 C719 1.363 . S
C720 C726 1.428 . S
H721 C717 0.930 . S
H722 C719 0.929 . S
S723 N724 1.613 1_556 S
S723 N725 1.610 . S
N724 S723 1.613 1_554 S
N724 C727 1.350 . S
N725 S723 1.610 . S
N725 C726 1.351 1_556 S
C726 C720 1.428 . S
C726 N725 1.351 1_554 S
C726 C727 1.434 . S
C727 C718 1.429 . S
C727 N724 1.350 . S
C727 C726 1.434 . S
C728 C729 1.369 1_565 S
C728 C730 1.419 . S
C728 H732 0.930 . S
C729 C728 1.369 1_545 S
C729 C738 1.429 . S
C730 C728 1.419 . S
C730 C731 1.363 . S
C730 H733 0.929 . S
C731 C730 1.363 . S
C731 C737 1.428 . S
H732 C728 0.930 . S
H733 C730 0.929 . S
S734 N735 1.613 . S
S734 N736 1.610 . S
N735 S734 1.613 . S
N735 C738 1.350 . S
N736 S734 1.610 . S
N736 C737 1.351 1_545 S
C737 C731 1.428 . S
C737 N736 1.351 1_565 S
C737 C738 1.434 1_565 S
C738 C729 1.429 . S
C738 N735 1.350 . S
C738 C737 1.434 1_545 S
C739 C740 1.369 . S
C739 C741 1.419 . S
C739 H743 0.930 . S
C740 C739 1.369 . S
C740 C749 1.411 1_556 S
C741 C739 1.419 . S
C741 C742 1.363 1_556 S
C741 H744 0.929 . S
C742 C741 1.363 1_554 S
C742 C748 1.428 . S
H743 C739 0.930 . S
H744 C741 0.929 . S
S745 N746 1.613 . S
S745 N747 1.610 . S
N746 S745 1.613 . S
N746 C749 1.355 . S
N747 S745 1.610 . S
N747 C748 1.351 . S
C748 C742 1.428 . S
C748 N747 1.351 . S
C748 C749 1.449 . S
C749 C740 1.411 1_554 S
C749 N746 1.355 . S
C749 C748 1.449 . S
C750 C751 1.369 . S
C750 C752 1.419 1_545 S
C750 H754 0.930 . S
C751 C750 1.369 . S
C751 C760 1.429 . S
C752 C750 1.419 1_565 S
C752 C753 1.363 . S
C752 H755 0.929 . S
C753 C752 1.363 . S
C753 C759 1.428 . S
H754 C750 0.930 . S
H755 C752 0.929 . S
S756 N757 1.613 . S
S756 N758 1.610 1_545 S
N757 S756 1.613 . S
N757 C760 1.350 . S
N758 S756 1.610 1_565 S
N758 C759 1.351 . S
C759 C753 1.428 . S
C759 N758 1.351 . S
C759 C760 1.434 1_565 S
C760 C751 1.429 . S
C760 N757 1.350 . S
C760 C759 1.434 1_545 S
C761 C762 1.369 . S
C761 C763 1.419 . S
C761 H765 0.930 . S
C762 C761 1.369 . S
C762 C771 1.429 . S
C763 C761 1.419 . S
C763 C764 1.363 . S
C763 H766 0.929 . S
C764 C763 1.363 . S
C764 C770 1.428 . S
H765 C761 0.930 . S
H766 C763 0.929 . S
S767 N768 1.613 . S
S767 N769 1.610 . S
N768 S767 1.613 . S
N768 C771 1.350 . S
N769 S767 1.610 . S
N769 C770 1.351 . S
C770 C764 1.428 . S
C770 N769 1.351 . S
C770 C771 1.434 . S
C771 C762 1.429 . S
C771 N768 1.350 . S
C771 C770 1.434 . S
C772 C773 1.369 . S
C772 C774 1.419 . S
C772 H776 0.930 . S
C773 C772 1.369 . S
C773 C782 1.429 . S
C774 C772 1.419 . S
C774 C775 1.363 1_545 S
C774 H777 0.929 1_545 S
C775 C774 1.363 1_565 S
C775 C781 1.428 1_565 S
H776 C772 0.930 . S
H777 C774 0.929 1_565 S
S778 N779 1.613 . S
S778 N780 1.610 . S
N779 S778 1.613 . S
N779 C782 1.350 . S
N780 S778 1.610 . S
N780 C781 1.351 . S
C781 C775 1.428 1_545 S
C781 N780 1.351 . S
C781 C782 1.434 . S
C782 C773 1.429 . S
C782 N779 1.350 . S
C782 C781 1.434 . S
C783 C784 1.369 . S
C783 C785 1.419 . S
C783 H787 0.930 . S
C784 C783 1.369 . S
C784 C793 1.429 . S
C785 C783 1.419 . S
C785 C786 1.363 . S
C785 H788 0.929 . S
C786 C785 1.363 . S
C786 C792 1.428 . S
H787 C783 0.930 . S
H788 C785 0.929 . S
S789 N790 1.613 . S
S789 N791 1.610 . S
N790 S789 1.613 . S
N790 C793 1.350 . S
N791 S789 1.610 . S
N791 C792 1.351 . S
C792 C786 1.428 . S
C792 N791 1.351 . S
C792 C793 1.434 . S
C793 C784 1.429 . S
C793 N790 1.350 . S
C793 C792 1.434 . S
C794 C795 1.369 . S
C794 C796 1.419 1_565 S
C794 H798 0.930 . S
C795 C794 1.369 . S
C795 C804 1.429 . S
C796 C794 1.419 1_545 S
C796 C797 1.363 . S
C796 H799 0.929 . S
C797 C796 1.363 . S
C797 C803 1.428 . S
H798 C794 0.930 . S
H799 C796 0.929 . S
S800 N801 1.613 1_545 S
S800 N802 1.610 . S
N801 S800 1.613 1_565 S
N801 C804 1.350 . S
N802 S800 1.610 . S
N802 C803 1.351 . S
C803 C797 1.428 . S
C803 N802 1.351 . S
C803 C804 1.434 1_545 S
C804 C795 1.429 . S
C804 N801 1.350 . S
C804 C803 1.434 1_565 S
C805 C806 1.369 . S
C805 C807 1.419 . S
C805 H809 0.930 . S
C806 C805 1.369 . S
C806 C815 1.429 . S
C807 C805 1.419 . S
C807 C808 1.363 . S
C807 H810 0.929 . S
C808 C807 1.363 . S
C808 C814 1.428 . S
H809 C805 0.930 . S
H810 C807 0.929 . S
S811 N812 1.613 . S
S811 N813 1.610 . S
N812 S811 1.613 . S
N812 C815 1.350 . S
N813 S811 1.610 . S
N813 C814 1.351 . S
C814 C808 1.428 . S
C814 N813 1.351 . S
C814 C815 1.434 . S
C815 C806 1.429 . S
C815 N812 1.350 . S
C815 C814 1.434 . S
C816 C817 1.369 . S
C816 C818 1.419 . S
C816 H820 0.930 . S
C817 C816 1.369 . S
C817 C826 1.429 . S
C818 C816 1.419 . S
C818 C819 1.363 . S
C818 H821 0.929 . S
C819 C818 1.363 . S
C819 C825 1.428 . S
H820 C816 0.930 . S
H821 C818 0.929 . S
S822 N823 1.613 . S
S822 N824 1.610 . S
N823 S822 1.613 . S
N823 C826 1.350 . S
N824 S822 1.610 . S
N824 C825 1.351 . S
C825 C819 1.428 . S
C825 N824 1.351 . S
C825 C826 1.434 . S
C826 C817 1.429 . S
C826 N823 1.350 . S
C826 C825 1.434 . S
C827 C828 1.369 . S
C827 C829 1.419 . S
C827 H831 0.930 . S
C828 C827 1.369 . S
C828 C837 1.429 . S
C829 C827 1.419 . S
C829 C830 1.363 . S
C829 H832 0.929 . S
C830 C829 1.363 . S
C830 C836 1.428 . S
H831 C827 0.930 . S
H832 C829 0.929 . S
S833 N834 1.613 . S
S833 N835 1.610 . S
N834 S833 1.613 . S
N834 C837 1.350 . S
N835 S833 1.610 . S
N835 C836 1.351 . S
C836 C830 1.428 . S
C836 N835 1.351 . S
C836 C837 1.434 . S
C837 C828 1.429 . S
C837 N834 1.350 . S
C837 C836 1.434 . S
C838 C839 1.369 . S
C838 C840 1.419 . S
C838 H842 0.930 . S
C839 C838 1.369 . S
C839 C848 1.429 . S
C840 C838 1.419 . S
C840 C841 1.363 . S
C840 H843 0.929 . S
C841 C840 1.363 . S
C841 C847 1.428 . S
H842 C838 0.930 . S
H843 C840 0.929 . S
S844 N845 1.613 . S
S844 N846 1.610 . S
N845 S844 1.613 . S
N845 C848 1.350 . S
N846 S844 1.610 . S
N846 C847 1.351 . S
C847 C841 1.428 . S
C847 N846 1.351 . S
C847 C848 1.434 . S
C848 C839 1.429 . S
C848 N845 1.350 . S
C848 C847 1.434 . S
C849 C850 1.369 . S
C849 C851 1.419 . S
C849 H853 0.930 . S
C850 C849 1.369 . S
C850 C859 1.429 . S
C851 C849 1.419 . S
C851 C852 1.363 . S
C851 H854 0.929 . S
C852 C851 1.363 . S
C852 C858 1.428 . S
H853 C849 0.930 . S
H854 C851 0.929 . S
S855 N856 1.613 . S
S855 N857 1.610 . S
N856 S855 1.613 . S
N856 C859 1.350 . S
N857 S855 1.610 . S
N857 C858 1.351 . S
C858 C852 1.428 . S
C858 N857 1.351 . S
C858 C859 1.434 . S
C859 C850 1.429 . S
C859 N856 1.350 . S
C859 C858 1.434 . S
C860 C861 1.369 . S
C860 C862 1.419 . S
C860 H864 0.930 . S
C861 C860 1.369 . S
C861 C870 1.429 . S
C862 C860 1.419 . S
C862 C863 1.363 . S
C862 H865 0.929 . S
C863 C862 1.363 . S
C863 C869 1.428 . S
H864 C860 0.930 . S
H865 C862 0.929 . S
S866 N867 1.613 . S
S866 N868 1.610 . S
N867 S866 1.613 . S
N867 C870 1.350 . S
N868 S866 1.610 . S
N868 C869 1.351 . S
C869 C863 1.428 . S
C869 N868 1.351 . S
C869 C870 1.434 . S
C870 C861 1.429 . S
C870 N867 1.350 . S
C870 C869 1.434 . S
C871 C872 1.369 . S
C871 C873 1.419 . S
C871 H875 0.930 . S
C872 C871 1.369 . S
C872 C881 1.429 . S
C873 C871 1.419 . S
C873 C874 1.363 . S
C873 H876 0.929 . S
C874 C873 1.363 . S
C874 C880 1.428 . S
H875 C871 0.930 . S
H876 C873 0.929 . S
S877 N878 1.613 . S
S877 N879 1.610 . S
N878 S877 1.613 . S
N878 C881 1.350 . S
N879 S877 1.610 . S
N879 C880 1.351 . S
C880 C874 1.428 . S
C880 N879 1.351 . S
C880 C881 1.434 . S
C881 C872 1.429 . S
C881 N878 1.350 . S
C881 C880 1.434 . S
C882 C883 1.369 . S
C882 C884 1.419 . S
C882 H886 0.930 . S
C883 C882 1.369 . S
C883 C892 1.429 . S
C884 C882 1.419 . S
C884 C885 1.363 . S
C884 H887 0.929 . S
C885 C884 1.363 . S
C885 C891 1.428 . S
H886 C882 0.930 . S
H887 C884 0.929 . S
S888 N889 1.613 1_556 S
S888 N890 1.610 . S
N889 S888 1.613 1_554 S
N889 C892 1.350 1_554 S
N890 S888 1.610 . S
N890 C891 1.351 . S
C891 C885 1.428 . S
C891 N890 1.351 . S
C891 C892 1.434 . S
C892 C883 1.429 . S
C892 N889 1.350 1_556 S
C892 C891 1.434 . S
C893 C894 1.369 . S
C893 C895 1.419 . S
C893 H897 0.930 . S
C894 C893 1.369 . S
C894 C903 1.429 . S
C895 C893 1.419 . S
C895 C896 1.363 . S
C895 H898 0.929 . S
C896 C895 1.363 . S
C896 C902 1.428 . S
H897 C893 0.930 . S
H898 C895 0.929 . S
S899 N900 1.613 . S
S899 N901 1.610 . S
N900 S899 1.613 . S
N900 C903 1.350 . S
N901 S899 1.610 . S
N901 C902 1.351 . S
C902 C896 1.428 . S
C902 N901 1.351 . S
C902 C903 1.434 . S
C903 C894 1.429 . S
C903 N900 1.350 . S
C903 C902 1.434 . S
C904 C905 1.369 1_556 S
C904 C906 1.419 . S
C904 H908 0.930 . S
C905 C904 1.369 1_554 S
C905 C914 1.429 . S
C906 C904 1.419 . S
C906 C907 1.363 . S
C906 H909 0.929 . S
C907 C906 1.363 . S
C907 C913 1.428 . S
H908 C904 0.930 . S
H909 C906 0.929 . S
S910 N911 1.613 . S
S910 N912 1.610 1_554 S
N911 S910 1.613 . S
N911 C914 1.350 . S
N912 S910 1.610 1_556 S
N912 C913 1.351 . S
C913 C907 1.428 . S
C913 N912 1.351 . S
C913 C914 1.434 1_556 S
C914 C905 1.429 . S
C914 N911 1.350 . S
C914 C913 1.434 1_554 S
C915 C916 1.369 . S
C915 C917 1.419 . S
C915 H919 0.930 . S
C916 C915 1.369 . S
C916 C925 1.429 . S
C917 C915 1.419 . S
C917 C918 1.363 . S
C917 H920 0.929 . S
C918 C917 1.363 . S
C918 C924 1.428 . S
H919 C915 0.930 . S
H920 C917 0.929 . S
S921 N922 1.613 . S
S921 N923 1.610 . S
N922 S921 1.613 . S
N922 C925 1.350 . S
N923 S921 1.610 . S
N923 C924 1.351 . S
C924 C918 1.428 . S
C924 N923 1.351 . S
C924 C925 1.434 . S
C925 C916 1.429 . S
C925 N922 1.350 . S
C925 C924 1.434 . S
C926 C927 1.369 . S
C926 C928 1.419 . S
C926 H930 0.930 . S
C927 C926 1.369 . S
C927 C936 1.429 . S
C928 C926 1.419 . S
C928 C929 1.363 . S
C928 H931 0.929 . S
C929 C928 1.363 . S
C929 C935 1.428 . S
H930 C926 0.930 . S
H931 C928 0.929 . S
S932 N933 1.613 . S
S932 N934 1.610 . S
N933 S932 1.613 . S
N933 C936 1.350 . S
N934 S932 1.610 . S
N934 C935 1.351 . S
C935 C929 1.428 . S
C935 N934 1.351 . S
C935 C936 1.434 . S
C936 C927 1.429 . S
C936 N933 1.350 . S
C936 C935 1.434 . S
C937 C938 1.369 . S
C937 C939 1.419 . S
C937 H941 0.930 . S
C938 C937 1.369 . S
C938 C947 1.429 . S
C939 C937 1.419 . S
C939 C940 1.363 . S
C939 H942 0.929 . S
C940 C939 1.363 . S
C940 C946 1.428 . S
H941 C937 0.930 . S
H942 C939 0.929 . S
S943 N944 1.613 . S
S943 N945 1.610 . S
N944 S943 1.613 . S
N944 C947 1.350 . S
N945 S943 1.610 . S
N945 C946 1.351 . S
C946 C940 1.428 . S
C946 N945 1.351 . S
C946 C947 1.434 . S
C947 C938 1.429 . S
C947 N944 1.350 . S
C947 C946 1.434 . S
C948 C949 1.369 . S
C948 C950 1.419 . S
C948 H952 0.930 . S
C949 C948 1.369 . S
C949 C958 1.429 . S
C950 C948 1.419 . S
C950 C951 1.363 . S
C950 H953 0.929 . S
C951 C950 1.363 . S
C951 C957 1.428 . S
H952 C948 0.930 . S
H953 C950 0.929 . S
S954 N955 1.613 . S
S954 N956 1.610 . S
N955 S954 1.613 . S
N955 C958 1.350 . S
N956 S954 1.610 . S
N956 C957 1.351 . S
C957 C951 1.428 . S
C957 N956 1.351 . S
C957 C958 1.434 . S
C958 C949 1.429 . S
C958 N955 1.350 . S
C958 C957 1.434 . S
C959 C960 1.369 . S
C959 C961 1.419 . S
C959 H963 0.930 . S
C960 C959 1.369 . S
C960 C969 1.429 . S
C961 C959 1.419 . S
C961 C962 1.363 . S
C961 H964 0.929 . S
C962 C961 1.363 . S
C962 C968 1.428 . S
H963 C959 0.930 . S
H964 C961 0.929 . S
S965 N966 1.613 . S
S965 N967 1.610 . S
N966 S965 1.613 . S
N966 C969 1.350 . S
N967 S965 1.610 . S
N967 C968 1.351 . S
C968 C962 1.428 . S
C968 N967 1.351 . S
C968 C969 1.434 . S
C969 C960 1.429 . S
C969 N966 1.350 . S
C969 C968 1.434 . S
C970 C971 1.369 . S
C970 C972 1.419 . S
C970 H974 0.930 . S
C971 C970 1.369 . S
C971 C980 1.429 . S
C972 C970 1.419 . S
C972 C973 1.363 . S
C972 H975 0.929 . S
C973 C972 1.363 . S
C973 C979 1.428 . S
H974 C970 0.930 . S
H975 C972 0.929 . S
S976 N977 1.613 . S
S976 N978 1.610 . S
N977 S976 1.613 . S
N977 C980 1.350 . S
N978 S976 1.610 . S
N978 C979 1.351 . S
C979 C973 1.428 . S
C979 N978 1.351 . S
C979 C980 1.434 . S
C980 C971 1.429 . S
C980 N977 1.350 . S
C980 C979 1.434 . S
C981 C982 1.369 . S
C981 C983 1.419 . S
C981 H985 0.930 . S
C982 C981 1.369 . S
C982 C991 1.429 . S
C983 C981 1.419 . S
C983 C984 1.363 . S
C983 H986 0.929 . S
C984 C983 1.363 . S
C984 C990 1.428 . S
H985 C981 0.930 . S
H986 C983 0.929 . S
S987 N988 1.616 . S
S987 N989 1.609 1_556 S
N988 S987 1.616 . S
N988 C991 1.350 . S
N989 S987 1.609 1_554 S
N989 C990 1.351 1_554 S
C990 C984 1.428 . S
C990 N989 1.351 1_556 S
C990 C991 1.434 . S
C991 C982 1.429 . S
C991 N988 1.350 . S
C991 C990 1.434 . S
C992 C993 1.369 . S
C992 C994 1.419 . S
C992 H996 0.930 . S
C993 C992 1.369 . S
C993 C1002 1.429 1_655 S
C994 C992 1.419 . S
C994 C995 1.363 1_655 S
C994 H997 0.929 1_554 S
C995 C994 1.363 1_455 S
C995 C1001 1.428 . S
H996 C992 0.930 . S
H997 C994 0.929 1_556 S
S998 N999 1.613 . S
S998 N1000 1.610 . S
N999 S998 1.613 . S
N999 C1002 1.350 . S
N1000 S998 1.610 . S
N1000 C1001 1.351 . S
C1001 C995 1.428 . S
C1001 N1000 1.351 . S
C1001 C1002 1.434 . S
C1002 C993 1.429 1_455 S
C1002 N999 1.350 . S
C1002 C1001 1.434 . S
C1003 C1004 1.369 . S
C1003 C1005 1.419 . S
C1003 H1007 0.930 . S
C1004 C1003 1.369 . S
C1004 C1013 1.429 . S
C1005 C1003 1.419 . S
C1005 C1006 1.363 . S
C1005 H1008 0.929 . S
C1006 C1005 1.363 . S
C1006 C1012 1.428 . S
H1007 C1003 0.930 . S
H1008 C1005 0.929 . S
S1009 N1010 1.613 . S
S1009 N1011 1.610 . S
N1010 S1009 1.613 . S
N1010 C1013 1.350 . S
N1011 S1009 1.610 . S
N1011 C1012 1.351 . S
C1012 C1006 1.428 . S
C1012 N1011 1.351 . S
C1012 C1013 1.434 . S
C1013 C1004 1.429 . S
C1013 N1010 1.350 . S
C1013 C1012 1.434 . S
C1014 C1015 1.369 . S
C1014 C1016 1.419 . S
C1014 H1018 0.930 . S
C1015 C1014 1.369 . S
C1015 C1024 1.429 . S
C1016 C1014 1.419 . S
C1016 C1017 1.363 . S
C1016 H1019 0.929 . S
C1017 C1016 1.363 . S
C1017 C1023 1.428 . S
H1018 C1014 0.930 . S
H1019 C1016 0.929 . S
S1020 N1021 1.613 . S
S1020 N1022 1.610 . S
N1021 S1020 1.613 . S
N1021 C1024 1.350 . S
N1022 S1020 1.610 . S
N1022 C1023 1.351 . S
C1023 C1017 1.428 . S
C1023 N1022 1.351 . S
C1023 C1024 1.434 . S
C1024 C1015 1.429 . S
C1024 N1021 1.350 . S
C1024 C1023 1.434 . S
C1025 C1026 1.369 . S
C1025 C1027 1.419 . S
C1025 H1029 0.930 . S
C1026 C1025 1.369 . S
C1026 C1035 1.429 . S
C1027 C1025 1.419 . S
C1027 C1028 1.363 . S
C1027 H1030 0.929 . S
C1028 C1027 1.363 . S
C1028 C1034 1.428 . S
H1029 C1025 0.930 . S
H1030 C1027 0.929 . S
S1031 N1032 1.613 . S
S1031 N1033 1.610 . S
N1032 S1031 1.613 . S
N1032 C1035 1.350 . S
N1033 S1031 1.610 . S
N1033 C1034 1.351 . S
C1034 C1028 1.428 . S
C1034 N1033 1.351 . S
C1034 C1035 1.434 . S
C1035 C1026 1.429 . S
C1035 N1032 1.350 . S
C1035 C1034 1.434 . S
C1036 C1037 1.369 . S
C1036 C1038 1.419 . S
C1036 H1040 0.930 . S
C1037 C1036 1.369 . S
C1037 C1046 1.429 1_655 S
C1038 C1036 1.419 . S
C1038 C1039 1.363 1_655 S
C1038 H1041 0.929 . S
C1039 C1038 1.363 1_455 S
C1039 C1045 1.428 . S
H1040 C1036 0.930 . S
H1041 C1038 0.929 . S
S1042 N1043 1.613 . S
S1042 N1044 1.610 . S
N1043 S1042 1.613 . S
N1043 C1046 1.350 . S
N1044 S1042 1.610 . S
N1044 C1045 1.351 . S
C1045 C1039 1.428 . S
C1045 N1044 1.351 . S
C1045 C1046 1.434 . S
C1046 C1037 1.429 1_455 S
C1046 N1043 1.350 . S
C1046 C1045 1.434 . S
C1047 C1048 1.369 . S
C1047 C1049 1.419 . S
C1047 H1051 0.930 . S
C1048 C1047 1.369 . S
C1048 C1057 1.429 . S
C1049 C1047 1.419 . S
C1049 C1050 1.363 . S
C1049 H1052 0.929 . S
C1050 C1049 1.363 . S
C1050 C1056 1.428 . S
H1051 C1047 0.930 . S
H1052 C1049 0.929 . S
S1053 N1054 1.613 . S
S1053 N1055 1.610 . S
N1054 S1053 1.613 . S
N1054 C1057 1.350 . S
N1055 S1053 1.610 . S
N1055 C1056 1.351 . S
C1056 C1050 1.428 . S
C1056 N1055 1.351 . S
C1056 C1057 1.434 . S
C1057 C1048 1.429 . S
C1057 N1054 1.350 . S
C1057 C1056 1.434 . S
C1058 C1059 1.369 . S
C1058 C1060 1.419 . S
C1058 H1062 0.930 . S
C1059 C1058 1.369 . S
C1059 C1068 1.429 . S
C1060 C1058 1.419 . S
C1060 C1061 1.363 . S
C1060 H1063 0.929 . S
C1061 C1060 1.363 . S
C1061 C1067 1.428 . S
H1062 C1058 0.930 . S
H1063 C1060 0.929 . S
S1064 N1065 1.613 . S
S1064 N1066 1.610 . S
N1065 S1064 1.613 . S
N1065 C1068 1.350 . S
N1066 S1064 1.610 . S
N1066 C1067 1.351 . S
C1067 C1061 1.428 . S
C1067 N1066 1.351 . S
C1067 C1068 1.434 . S
C1068 C1059 1.429 . S
C1068 N1065 1.350 . S
C1068 C1067 1.434 . S
C1069 C1070 1.369 . S
C1069 C1071 1.419 . S
C1069 H1073 0.930 . S
C1070 C1069 1.369 . S
C1070 C1079 1.429 . S
C1071 C1069 1.419 . S
C1071 C1072 1.363 . S
C1071 H1074 0.929 . S
C1072 C1071 1.363 . S
C1072 C1078 1.428 . S
H1073 C1069 0.930 . S
H1074 C1071 0.929 . S
S1075 N1076 1.613 . S
S1075 N1077 1.610 . S
N1076 S1075 1.613 . S
N1076 C1079 1.350 . S
N1077 S1075 1.610 . S
N1077 C1078 1.351 . S
C1078 C1072 1.428 . S
C1078 N1077 1.351 . S
C1078 C1079 1.434 . S
C1079 C1070 1.429 . S
C1079 N1076 1.350 . S
C1079 C1078 1.434 . S
C1080 C1081 1.369 . S
C1080 C1082 1.419 . S
C1080 H1084 0.930 . S
C1081 C1080 1.369 . S
C1081 C1090 1.429 . S
C1082 C1080 1.419 . S
C1082 C1083 1.363 . S
C1082 H1085 0.929 . S
C1083 C1082 1.363 . S
C1083 C1089 1.428 . S
H1084 C1080 0.930 . S
H1085 C1082 0.929 . S
S1086 N1087 1.613 . S
S1086 N1088 1.610 . S
N1087 S1086 1.613 . S
N1087 C1090 1.350 . S
N1088 S1086 1.610 . S
N1088 C1089 1.351 . S
C1089 C1083 1.428 . S
C1089 N1088 1.351 . S
C1089 C1090 1.434 . S
C1090 C1081 1.429 . S
C1090 N1087 1.350 . S
C1090 C1089 1.434 . S
C1091 C1092 1.369 . S
C1091 C1093 1.419 . S
C1091 H1095 0.930 . S
C1092 C1091 1.369 . S
C1092 C1101 1.429 . S
C1093 C1091 1.419 . S
C1093 C1094 1.363 . S
C1093 H1096 0.929 . S
C1094 C1093 1.363 . S
C1094 C1100 1.428 . S
H1095 C1091 0.930 . S
H1096 C1093 0.929 . S
S1097 N1098 1.613 . S
S1097 N1099 1.610 . S
N1098 S1097 1.613 . S
N1098 C1101 1.350 . S
N1099 S1097 1.610 . S
N1099 C1100 1.351 . S
C1100 C1094 1.428 . S
C1100 N1099 1.351 . S
C1100 C1101 1.434 . S
C1101 C1092 1.429 . S
C1101 N1098 1.350 . S
C1101 C1100 1.434 . S
C1102 C1103 1.369 . S
C1102 C1104 1.419 . S
C1102 H1106 0.930 . S
C1103 C1102 1.369 . S
C1103 C1112 1.429 . S
C1104 C1102 1.419 . S
C1104 C1105 1.363 . S
C1104 H1107 0.929 . S
C1105 C1104 1.363 . S
C1105 C1111 1.428 . S
H1106 C1102 0.930 . S
H1107 C1104 0.929 . S
S1108 N1109 1.613 . S
S1108 N1110 1.610 . S
N1109 S1108 1.613 . S
N1109 C1112 1.350 . S
N1110 S1108 1.610 . S
N1110 C1111 1.351 . S
C1111 C1105 1.428 . S
C1111 N1110 1.351 . S
C1111 C1112 1.434 . S
C1112 C1103 1.429 . S
C1112 N1109 1.350 . S
C1112 C1111 1.434 . S
C1113 C1114 1.369 . S
C1113 C1115 1.419 . S
C1113 H1117 0.930 . S
C1114 C1113 1.369 . S
C1114 C1123 1.429 . S
C1115 C1113 1.419 . S
C1115 C1116 1.363 . S
C1115 H1118 0.929 . S
C1116 C1115 1.363 . S
C1116 C1122 1.428 . S
H1117 C1113 0.930 . S
H1118 C1115 0.929 . S
S1119 N1120 1.613 . S
S1119 N1121 1.610 . S
N1120 S1119 1.613 . S
N1120 C1123 1.350 . S
N1121 S1119 1.610 . S
N1121 C1122 1.351 . S
C1122 C1116 1.428 . S
C1122 N1121 1.351 . S
C1122 C1123 1.434 . S
C1123 C1114 1.429 . S
C1123 N1120 1.350 . S
C1123 C1122 1.434 . S
C1124 C1125 1.369 . S
C1124 C1126 1.419 . S
C1124 H1128 0.930 . S
C1125 C1124 1.369 . S
C1125 C1134 1.429 1_545 S
C1126 C1124 1.419 . S
C1126 C1127 1.363 1_545 S
C1126 H1129 0.929 . S
C1127 C1126 1.363 1_565 S
C1127 C1133 1.428 . S
H1128 C1124 0.930 . S
H1129 C1126 0.929 . S
S1130 N1131 1.613 . S
S1130 N1132 1.610 . S
N1131 S1130 1.613 . S
N1131 C1134 1.350 . S
N1132 S1130 1.610 . S
N1132 C1133 1.351 . S
C1133 C1127 1.428 . S
C1133 N1132 1.351 . S
C1133 C1134 1.434 . S
C1134 C1125 1.429 1_565 S
C1134 N1131 1.350 . S
C1134 C1133 1.434 . S
C1135 C1136 1.369 1_545 S
C1135 C1137 1.419 . S
C1135 H1139 0.930 . S
C1136 C1135 1.369 1_565 S
C1136 C1145 1.429 1_455 S
C1137 C1135 1.419 . S
C1137 C1138 1.363 1_455 S
C1137 H1140 0.929 . S
C1138 C1137 1.363 1_655 S
C1138 C1144 1.428 1_545 S
H1139 C1135 0.930 . S
H1140 C1137 0.929 . S
S1141 N1142 1.613 . S
S1141 N1143 1.610 1_554 S
N1142 S1141 1.613 . S
N1142 C1145 1.350 . S
N1143 S1141 1.610 1_556 S
N1143 C1144 1.351 1_556 S
C1144 C1138 1.428 1_565 S
C1144 N1143 1.351 1_554 S
C1144 C1145 1.434 . S
C1145 C1136 1.429 1_655 S
C1145 N1142 1.350 . S
C1145 C1144 1.434 . S
C1146 C1147 1.369 . S
C1146 C1148 1.419 . S
C1146 H1150 0.930 . S
C1147 C1146 1.369 . S
C1147 C1156 1.429 1_565 S
C1148 C1146 1.419 . S
C1148 C1149 1.363 1_565 S
C1148 H1151 0.929 1_554 S
C1149 C1148 1.363 1_545 S
C1149 C1155 1.428 . S
H1150 C1146 0.930 . S
H1151 C1148 0.929 1_556 S
S1152 N1153 1.613 . S
S1152 N1154 1.610 . S
N1153 S1152 1.613 . S
N1153 C1156 1.350 . S
N1154 S1152 1.610 . S
N1154 C1155 1.351 . S
C1155 C1149 1.428 . S
C1155 N1154 1.351 . S
C1155 C1156 1.434 . S
C1156 C1147 1.429 1_545 S
C1156 N1153 1.350 . S
C1156 C1155 1.434 . S
C1157 C1158 1.369 . S
C1157 C1159 1.419 1_565 S
C1157 H1161 0.930 . S
C1158 C1157 1.369 . S
C1158 C1167 1.429 1_655 S
C1159 C1157 1.419 1_545 S
C1159 C1160 1.363 1_655 S
C1159 H1162 0.929 . S
C1160 C1159 1.363 1_455 S
C1160 C1166 1.428 . S
H1161 C1157 0.930 . S
H1162 C1159 0.929 . S
S1163 N1164 1.613 . S
S1163 N1165 1.610 . S
N1164 S1163 1.613 . S
N1164 C1167 1.350 1_545 S
N1165 S1163 1.610 . S
N1165 C1166 1.351 . S
C1166 C1160 1.428 . S
C1166 N1165 1.351 . S
C1166 C1167 1.433 1_545 S
C1167 C1158 1.429 1_455 S
C1167 N1164 1.350 1_565 S
C1167 C1166 1.433 1_565 S
C1168 C1169 1.369 . S
C1168 C1170 1.419 . S
C1168 H1172 0.930 . S
C1169 C1168 1.369 . S
C1169 C1178 1.429 1_455 S
C1170 C1168 1.419 . S
C1170 C1171 1.363 1_455 S
C1170 H1173 0.929 . S
C1171 C1170 1.363 1_655 S
C1171 C1177 1.428 . S
H1172 C1168 0.930 . S
H1173 C1170 0.929 . S
S1174 N1175 1.613 . S
S1174 N1176 1.610 . S
N1175 S1174 1.613 . S
N1175 C1178 1.350 . S
N1176 S1174 1.610 . S
N1176 C1177 1.351 . S
C1177 C1171 1.428 . S
C1177 N1176 1.351 . S
C1177 C1178 1.434 . S
C1178 C1169 1.429 1_655 S
C1178 N1175 1.350 . S
C1178 C1177 1.434 . S
C1179 C1180 1.369 . S
C1179 C1181 1.419 . S
C1179 H1183 0.930 . S
C1180 C1179 1.369 . S
C1180 C1189 1.429 . S
C1181 C1179 1.419 . S
C1181 C1182 1.363 . S
C1181 H1184 0.929 . S
C1182 C1181 1.363 . S
C1182 C1188 1.428 . S
H1183 C1179 0.930 . S
H1184 C1181 0.929 . S
S1185 N1186 1.613 . S
S1185 N1187 1.610 1_556 S
N1186 S1185 1.613 . S
N1186 C1189 1.350 1_556 S
N1187 S1185 1.610 1_554 S
N1187 C1188 1.351 . S
C1188 C1182 1.428 . S
C1188 N1187 1.351 . S
C1188 C1189 1.434 . S
C1189 C1180 1.429 . S
C1189 N1186 1.350 1_554 S
C1189 C1188 1.434 . S
C1190 C1191 1.369 . S
C1190 C1192 1.419 . S
C1190 H1194 0.930 . S
C1191 C1190 1.369 . S
C1191 C1200 1.429 . S
C1192 C1190 1.419 . S
C1192 C1193 1.363 . S
C1192 H1195 0.929 . S
C1193 C1192 1.363 . S
C1193 C1199 1.428 . S
H1194 C1190 0.930 . S
H1195 C1192 0.929 . S
S1196 N1197 1.613 . S
S1196 N1198 1.610 . S
N1197 S1196 1.613 . S
N1197 C1200 1.350 . S
N1198 S1196 1.610 . S
N1198 C1199 1.351 . S
C1199 C1193 1.428 . S
C1199 N1198 1.351 . S
C1199 C1200 1.434 . S
C1200 C1191 1.429 . S
C1200 N1197 1.350 . S
C1200 C1199 1.434 . S
C1201 C1202 1.369 . S
C1201 C1203 1.419 . S
C1201 H1205 0.930 . S
C1202 C1201 1.369 . S
C1202 C1211 1.429 . S
C1203 C1201 1.419 . S
C1203 C1204 1.363 . S
C1203 H1206 0.929 . S
C1204 C1203 1.363 . S
C1204 C1210 1.428 . S
H1205 C1201 0.930 . S
H1206 C1203 0.929 . S
S1207 N1208 1.613 . S
S1207 N1209 1.610 . S
N1208 S1207 1.613 . S
N1208 C1211 1.350 . S
N1209 S1207 1.610 . S
N1209 C1210 1.351 . S
C1210 C1204 1.428 . S
C1210 N1209 1.351 . S
C1210 C1211 1.434 . S
C1211 C1202 1.429 . S
C1211 N1208 1.350 . S
C1211 C1210 1.434 . S
C1212 C1213 1.369 1_455 S
C1212 C1214 1.419 . S
C1212 H1216 0.930 . S
C1213 C1212 1.369 1_655 S
C1213 C1222 1.429 . S
C1214 C1212 1.419 . S
C1214 C1215 1.363 . S
C1214 H1217 0.929 . S
C1215 C1214 1.363 . S
C1215 C1221 1.428 1_455 S
H1216 C1212 0.930 . S
H1217 C1214 0.929 . S
S1218 N1219 1.613 . S
S1218 N1220 1.610 . S
N1219 S1218 1.613 . S
N1219 C1222 1.350 . S
N1220 S1218 1.610 . S
N1220 C1221 1.351 . S
C1221 C1215 1.428 1_655 S
C1221 N1220 1.351 . S
C1221 C1222 1.434 . S
C1222 C1213 1.429 . S
C1222 N1219 1.350 . S
C1222 C1221 1.434 . S
C1223 C1224 1.369 . S
C1223 C1225 1.419 . S
C1223 H1227 0.930 . S
C1224 C1223 1.369 . S
C1224 C1233 1.429 . S
C1225 C1223 1.419 . S
C1225 C1226 1.363 1_554 S
C1225 H1228 0.929 . S
C1226 C1225 1.363 1_556 S
C1226 C1232 1.428 . S
H1227 C1223 0.930 . S
H1228 C1225 0.929 . S
S1229 N1230 1.613 1_556 S
S1229 N1231 1.610 . S
N1230 S1229 1.613 1_554 S
N1230 C1233 1.350 . S
N1231 S1229 1.610 . S
N1231 C1232 1.351 . S
C1232 C1226 1.428 . S
C1232 N1231 1.351 . S
C1232 C1233 1.434 1_556 S
C1233 C1224 1.429 . S
C1233 N1230 1.350 . S
C1233 C1232 1.434 1_554 S
C1234 C1235 1.369 . S
C1234 C1236 1.419 . S
C1234 H1238 0.930 . S
C1235 C1234 1.369 . S
C1235 C1244 1.429 . S
C1236 C1234 1.419 . S
C1236 C1237 1.363 . S
C1236 H1239 0.929 . S
C1237 C1236 1.363 . S
C1237 C1243 1.428 . S
H1238 C1234 0.930 . S
H1239 C1236 0.929 . S
S1240 N1241 1.613 . S
S1240 N1242 1.610 . S
N1241 S1240 1.613 . S
N1241 C1244 1.350 . S
N1242 S1240 1.610 . S
N1242 C1243 1.351 . S
C1243 C1237 1.428 . S
C1243 N1242 1.351 . S
C1243 C1244 1.434 . S
C1244 C1235 1.429 . S
C1244 N1241 1.350 . S
C1244 C1243 1.434 . S
C1245 C1246 1.369 . S
C1245 C1247 1.419 . S
C1245 H1249 0.930 . S
C1246 C1245 1.369 . S
C1246 C1255 1.429 . S
C1247 C1245 1.419 . S
C1247 C1248 1.363 . S
C1247 H1250 0.929 . S
C1248 C1247 1.363 . S
C1248 C1254 1.428 . S
H1249 C1245 0.930 . S
H1250 C1247 0.929 . S
S1251 N1252 1.613 . S
S1251 N1253 1.610 . S
N1252 S1251 1.613 . S
N1252 C1255 1.350 . S
N1253 S1251 1.610 . S
N1253 C1254 1.351 . S
C1254 C1248 1.428 . S
C1254 N1253 1.351 . S
C1254 C1255 1.434 . S
C1255 C1246 1.429 . S
C1255 N1252 1.350 . S
C1255 C1254 1.434 . S
C1256 C1257 1.369 . S
C1256 C1258 1.419 . S
C1256 H1260 0.930 . S
C1257 C1256 1.369 . S
C1257 C1266 1.429 1_455 S
C1258 C1256 1.419 . S
C1258 C1259 1.363 1_455 S
C1258 H1261 0.929 . S
C1259 C1258 1.363 1_655 S
C1259 C1265 1.428 . S
H1260 C1256 0.930 . S
H1261 C1258 0.929 . S
S1262 N1263 1.613 . S
S1262 N1264 1.610 . S
N1263 S1262 1.613 . S
N1263 C1266 1.350 . S
N1264 S1262 1.610 . S
N1264 C1265 1.351 . S
C1265 C1259 1.428 . S
C1265 N1264 1.351 . S
C1265 C1266 1.434 . S
C1266 C1257 1.429 1_655 S
C1266 N1263 1.350 . S
C1266 C1265 1.434 . S
C1267 C1268 1.369 . S
C1267 C1269 1.419 . S
C1267 H1271 0.930 . S
C1268 C1267 1.369 . S
C1268 C1277 1.429 . S
C1269 C1267 1.419 . S
C1269 C1270 1.363 1_554 S
C1269 H1272 0.929 . S
C1270 C1269 1.363 1_556 S
C1270 C1276 1.428 . S
H1271 C1267 0.930 . S
H1272 C1269 0.929 . S
S1273 N1274 1.613 1_556 S
S1273 N1275 1.610 . S
N1274 S1273 1.613 1_554 S
N1274 C1277 1.350 . S
N1275 S1273 1.610 . S
N1275 C1276 1.351 . S
C1276 C1270 1.428 . S
C1276 N1275 1.351 . S
C1276 C1277 1.434 1_556 S
C1277 C1268 1.429 . S
C1277 N1274 1.350 . S
C1277 C1276 1.434 1_554 S
C1278 C1279 1.369 . S
C1278 C1280 1.419 . S
C1278 H1282 0.930 . S
C1279 C1278 1.369 . S
C1279 C1288 1.429 . S
C1280 C1278 1.419 . S
C1280 C1281 1.363 . S
C1280 H1283 0.929 . S
C1281 C1280 1.363 . S
C1281 C1287 1.428 . S
H1282 C1278 0.930 . S
H1283 C1280 0.929 . S
S1284 N1285 1.613 . S
S1284 N1286 1.610 . S
N1285 S1284 1.613 . S
N1285 C1288 1.350 . S
N1286 S1284 1.610 . S
N1286 C1287 1.351 . S
C1287 C1281 1.428 . S
C1287 N1286 1.351 . S
C1287 C1288 1.434 . S
C1288 C1279 1.429 . S
C1288 N1285 1.350 . S
C1288 C1287 1.434 . S
C1289 C1290 1.369 . S
C1289 C1291 1.419 . S
C1289 H1293 0.930 . S
C1290 C1289 1.369 . S
C1290 C1299 1.429 . S
C1291 C1289 1.419 . S
C1291 C1292 1.363 . S
C1291 H1294 0.929 . S
C1292 C1291 1.363 . S
C1292 C1298 1.428 . S
H1293 C1289 0.930 . S
H1294 C1291 0.929 . S
S1295 N1296 1.613 . S
S1295 N1297 1.610 . S
N1296 S1295 1.613 . S
N1296 C1299 1.350 . S
N1297 S1295 1.610 . S
N1297 C1298 1.351 . S
C1298 C1292 1.428 . S
C1298 N1297 1.351 . S
C1298 C1299 1.434 . S
C1299 C1290 1.429 . S
C1299 N1296 1.350 . S
C1299 C1298 1.434 . S
C1300 C1301 1.369 1_655 S
C1300 C1302 1.419 . S
C1300 H1304 0.930 . S
C1301 C1300 1.369 1_455 S
C1301 C1310 1.429 . S
C1302 C1300 1.419 . S
C1302 C1303 1.363 . S
C1302 H1305 0.929 . S
C1303 C1302 1.363 . S
C1303 C1309 1.428 1_655 S
H1304 C1300 0.930 . S
H1305 C1302 0.929 . S
S1306 N1307 1.613 . S
S1306 N1308 1.610 . S
N1307 S1306 1.613 . S
N1307 C1310 1.350 . S
N1308 S1306 1.610 . S
N1308 C1309 1.351 . S
C1309 C1303 1.428 1_455 S
C1309 N1308 1.351 . S
C1309 C1310 1.434 . S
C1310 C1301 1.429 . S
C1310 N1307 1.350 . S
C1310 C1309 1.434 . S
C1311 C1312 1.369 . S
C1311 C1313 1.419 . S
C1311 H1315 0.930 . S
C1312 C1311 1.369 . S
C1312 C1321 1.429 . S
C1313 C1311 1.419 . S
C1313 C1314 1.363 . S
C1313 H1316 0.929 . S
C1314 C1313 1.363 . S
C1314 C1320 1.428 . S
H1315 C1311 0.930 . S
H1316 C1313 0.929 . S
S1317 N1318 1.613 1_554 S
S1317 N1319 1.610 . S
N1318 S1317 1.613 1_556 S
N1318 C1321 1.350 1_556 S
N1319 S1317 1.610 . S
N1319 C1320 1.351 . S
C1320 C1314 1.428 . S
C1320 N1319 1.351 . S
C1320 C1321 1.434 . S
C1321 C1312 1.429 . S
C1321 N1318 1.350 1_554 S
C1321 C1320 1.434 . S
C1322 C1323 1.369 . S
C1322 C1324 1.419 . S
C1322 H1326 0.930 . S
C1323 C1322 1.369 . S
C1323 C1332 1.429 . S
C1324 C1322 1.419 . S
C1324 C1325 1.363 . S
C1324 H1327 0.929 . S
C1325 C1324 1.363 . S
C1325 C1331 1.428 . S
H1326 C1322 0.930 . S
H1327 C1324 0.929 . S
S1328 N1329 1.613 . S
S1328 N1330 1.610 . S
N1329 S1328 1.613 . S
N1329 C1332 1.350 . S
N1330 S1328 1.610 . S
N1330 C1331 1.351 . S
C1331 C1325 1.428 . S
C1331 N1330 1.351 . S
C1331 C1332 1.434 . S
C1332 C1323 1.429 . S
C1332 N1329 1.350 . S
C1332 C1331 1.434 . S
C1333 C1334 1.369 . S
C1333 C1335 1.419 . S
C1333 H1337 0.930 . S
C1334 C1333 1.369 . S
C1334 C1343 1.429 . S
C1335 C1333 1.419 . S
C1335 C1336 1.363 . S
C1335 H1338 0.929 . S
C1336 C1335 1.363 . S
C1336 C1342 1.428 . S
H1337 C1333 0.930 . S
H1338 C1335 0.929 . S
S1339 N1340 1.613 . S
S1339 N1341 1.610 . S
N1340 S1339 1.613 . S
N1340 C1343 1.350 . S
N1341 S1339 1.610 . S
N1341 C1342 1.351 . S
C1342 C1336 1.428 . S
C1342 N1341 1.351 . S
C1342 C1343 1.434 . S
C1343 C1334 1.429 . S
C1343 N1340 1.350 . S
C1343 C1342 1.434 . S
C1344 C1345 1.369 . S
C1344 C1346 1.419 . S
C1344 H1348 0.930 . S
C1345 C1344 1.369 . S
C1345 C1354 1.429 . S
C1346 C1344 1.419 . S
C1346 C1347 1.363 . S
C1346 H1349 0.929 . S
C1347 C1346 1.363 . S
C1347 C1353 1.428 . S
H1348 C1344 0.930 . S
H1349 C1346 0.929 . S
S1350 N1351 1.613 . S
S1350 N1352 1.610 . S
N1351 S1350 1.613 . S
N1351 C1354 1.350 . S
N1352 S1350 1.610 . S
N1352 C1353 1.351 . S
C1353 C1347 1.428 . S
C1353 N1352 1.351 . S
C1353 C1354 1.434 . S
C1354 C1345 1.429 . S
C1354 N1351 1.350 . S
C1354 C1353 1.434 . S
C1355 C1356 1.369 . S
C1355 C1357 1.419 . S
C1355 H1359 0.930 . S
C1356 C1355 1.369 . S
C1356 C1365 1.429 . S
C1357 C1355 1.419 . S
C1357 C1358 1.363 . S
C1357 H1360 0.929 . S
C1358 C1357 1.363 . S
C1358 C1364 1.428 . S
H1359 C1355 0.930 . S
H1360 C1357 0.929 . S
S1361 N1362 1.613 . S
S1361 N1363 1.610 . S
N1362 S1361 1.613 . S
N1362 C1365 1.350 . S
N1363 S1361 1.610 . S
N1363 C1364 1.351 . S
C1364 C1358 1.428 . S
C1364 N1363 1.351 . S
C1364 C1365 1.434 . S
C1365 C1356 1.429 . S
C1365 N1362 1.350 . S
C1365 C1364 1.434 . S
C1366 C1367 1.369 1_455 S
C1366 C1368 1.419 . S
C1366 H1370 0.930 . S
C1367 C1366 1.369 1_655 S
C1367 C1376 1.429 . S
C1368 C1366 1.419 . S
C1368 C1369 1.363 . S
C1368 H1371 0.929 . S
C1369 C1368 1.363 . S
C1369 C1375 1.428 1_455 S
H1370 C1366 0.930 . S
H1371 C1368 0.929 . S
S1372 N1373 1.613 . S
S1372 N1374 1.610 . S
N1373 S1372 1.613 . S
N1373 C1376 1.350 . S
N1374 S1372 1.610 . S
N1374 C1375 1.351 . S
C1375 C1369 1.428 1_655 S
C1375 N1374 1.351 . S
C1375 C1376 1.434 . S
C1376 C1367 1.429 . S
C1376 N1373 1.350 . S
C1376 C1375 1.434 . S
C1377 C1378 1.369 . S
C1377 C1379 1.419 1_556 S
C1377 H1381 0.930 . S
C1378 C1377 1.369 . S
C1378 C1387 1.429 1_556 S
C1379 C1377 1.419 1_554 S
C1379 C1380 1.363 . S
C1379 H1382 0.929 . S
C1380 C1379 1.363 . S
C1380 C1386 1.428 . S
H1381 C1377 0.930 . S
H1382 C1379 0.929 . S
S1383 N1384 1.613 . S
S1383 N1385 1.610 . S
N1384 S1383 1.613 . S
N1384 C1387 1.350 . S
N1385 S1383 1.610 . S
N1385 C1386 1.351 . S
C1386 C1380 1.428 . S
C1386 N1385 1.351 . S
C1386 C1387 1.434 . S
C1387 C1378 1.429 1_554 S
C1387 N1384 1.350 . S
C1387 C1386 1.434 . S
C1388 C1389 1.369 . S
C1388 C1390 1.419 . S
C1388 H1392 0.930 . S
C1389 C1388 1.369 . S
C1389 C1398 1.429 . S
C1390 C1388 1.419 . S
C1390 C1391 1.363 . S
C1390 H1393 0.929 . S
C1391 C1390 1.363 . S
C1391 C1397 1.428 . S
H1392 C1388 0.930 . S
H1393 C1390 0.929 . S
S1394 N1395 1.613 . S
S1394 N1396 1.610 . S
N1395 S1394 1.613 . S
N1395 C1398 1.350 . S
N1396 S1394 1.610 . S
N1396 C1397 1.351 . S
C1397 C1391 1.428 . S
C1397 N1396 1.351 . S
C1397 C1398 1.434 . S
C1398 C1389 1.429 . S
C1398 N1395 1.350 . S
C1398 C1397 1.434 . S
C1399 C1400 1.369 . S
C1399 C1401 1.419 . S
C1399 H1403 0.930 . S
C1400 C1399 1.369 . S
C1400 C1409 1.429 . S
C1401 C1399 1.419 . S
C1401 C1402 1.363 . S
C1401 H1404 0.929 . S
C1402 C1401 1.363 . S
C1402 C1408 1.428 . S
H1403 C1399 0.930 . S
H1404 C1401 0.929 . S
S1405 N1406 1.613 . S
S1405 N1407 1.610 . S
N1406 S1405 1.613 . S
N1406 C1409 1.350 . S
N1407 S1405 1.610 . S
N1407 C1408 1.351 . S
C1408 C1402 1.428 . S
C1408 N1407 1.351 . S
C1408 C1409 1.434 . S
C1409 C1400 1.429 . S
C1409 N1406 1.350 . S
C1409 C1408 1.434 . S
C1410 C1411 1.369 . S
C1410 C1412 1.419 1_455 S
C1410 H1414 0.930 . S
C1411 C1410 1.369 . S
C1411 C1420 1.429 . S
C1412 C1410 1.419 1_655 S
C1412 C1413 1.363 . S
C1412 H1415 0.929 . S
C1413 C1412 1.363 . S
C1413 C1419 1.428 . S
H1414 C1410 0.930 . S
H1415 C1412 0.929 . S
S1416 N1417 1.613 1_655 S
S1416 N1418 1.610 . S
N1417 S1416 1.613 1_455 S
N1417 C1420 1.350 . S
N1418 S1416 1.610 . S
N1418 C1419 1.351 . S
C1419 C1413 1.428 . S
C1419 N1418 1.351 . S
C1419 C1420 1.434 1_655 S
C1420 C1411 1.429 . S
C1420 N1417 1.350 . S
C1420 C1419 1.434 1_455 S
C1421 C1422 1.369 . S
C1421 C1423 1.419 . S
C1421 H1425 0.930 . S
C1422 C1421 1.369 . S
C1422 C1431 1.429 . S
C1423 C1421 1.419 . S
C1423 C1424 1.363 . S
C1423 H1426 0.942 . S
C1424 C1423 1.363 . S
C1424 C1430 1.428 . S
H1425 C1421 0.930 . S
H1426 C1423 0.942 . S
S1427 N1428 1.613 . S
S1427 N1429 1.610 . S
N1428 S1427 1.613 . S
N1428 C1431 1.350 . S
N1429 S1427 1.610 . S
N1429 C1430 1.351 . S
C1430 C1424 1.428 . S
C1430 N1429 1.351 . S
C1430 C1431 1.434 . S
C1431 C1422 1.429 . S
C1431 N1428 1.350 . S
C1431 C1430 1.434 . S
C1432 C1433 1.369 . S
C1432 C1434 1.419 . S
C1432 H1436 0.930 . S
C1433 C1432 1.369 . S
C1433 C1442 1.429 . S
C1434 C1432 1.419 . S
C1434 C1435 1.363 . S
C1434 H1437 0.929 . S
C1435 C1434 1.363 . S
C1435 C1441 1.428 . S
H1436 C1432 0.930 . S
H1437 C1434 0.929 . S
S1438 N1439 1.613 . S
S1438 N1440 1.610 . S
N1439 S1438 1.613 . S
N1439 C1442 1.350 . S
N1440 S1438 1.610 . S
N1440 C1441 1.351 . S
C1441 C1435 1.428 . S
C1441 N1440 1.351 . S
C1441 C1442 1.434 . S
C1442 C1433 1.429 . S
C1442 N1439 1.350 . S
C1442 C1441 1.434 . S
C1443 C1444 1.369 . S
C1443 C1445 1.419 . S
C1443 H1447 0.930 . S
C1444 C1443 1.369 . S
C1444 C1453 1.429 . S
C1445 C1443 1.419 . S
C1445 C1446 1.363 . S
C1445 H1448 0.929 . S
C1446 C1445 1.363 . S
C1446 C1452 1.428 . S
H1447 C1443 0.930 . S
H1448 C1445 0.929 . S
S1449 N1450 1.613 . S
S1449 N1451 1.610 . S
N1450 S1449 1.613 . S
N1450 C1453 1.350 . S
N1451 S1449 1.610 . S
N1451 C1452 1.351 . S
C1452 C1446 1.428 . S
C1452 N1451 1.351 . S
C1452 C1453 1.434 . S
C1453 C1444 1.429 . S
C1453 N1450 1.350 . S
C1453 C1452 1.434 . S
C1454 C1455 1.369 1_655 S
C1454 C1456 1.419 . S
C1454 H1458 0.930 . S
C1455 C1454 1.369 1_455 S
C1455 C1464 1.429 . S
C1456 C1454 1.419 . S
C1456 C1457 1.363 . S
C1456 H1459 0.929 . S
C1457 C1456 1.363 . S
C1457 C1463 1.428 1_655 S
H1458 C1454 0.930 . S
H1459 C1456 0.929 . S
S1460 N1461 1.613 . S
S1460 N1462 1.610 . S
N1461 S1460 1.613 . S
N1461 C1464 1.350 . S
N1462 S1460 1.610 . S
N1462 C1463 1.351 . S
C1463 C1457 1.428 1_455 S
C1463 N1462 1.351 . S
C1463 C1464 1.434 . S
C1464 C1455 1.429 . S
C1464 N1461 1.350 . S
C1464 C1463 1.434 . S
C1465 C1466 1.369 . S
C1465 C1467 1.419 . S
C1465 H1469 0.930 . S
C1466 C1465 1.369 . S
C1466 C1475 1.429 . S
C1467 C1465 1.419 . S
C1467 C1468 1.363 . S
C1467 H1470 0.929 . S
C1468 C1467 1.363 . S
C1468 C1474 1.428 . S
H1469 C1465 0.930 . S
H1470 C1467 0.929 . S
S1471 N1472 1.613 1_554 S
S1471 N1473 1.610 . S
N1472 S1471 1.613 1_556 S
N1472 C1475 1.350 1_556 S
N1473 S1471 1.610 . S
N1473 C1474 1.351 . S
C1474 C1468 1.428 . S
C1474 N1473 1.351 . S
C1474 C1475 1.434 . S
C1475 C1466 1.429 . S
C1475 N1472 1.350 1_554 S
C1475 C1474 1.434 . S
C1476 C1477 1.369 . S
C1476 C1478 1.419 . S
C1476 H1480 0.930 . S
C1477 C1476 1.369 . S
C1477 C1486 1.429 . S
C1478 C1476 1.419 . S
C1478 C1479 1.363 . S
C1478 H1481 0.929 . S
C1479 C1478 1.363 . S
C1479 C1485 1.428 . S
H1480 C1476 0.930 . S
H1481 C1478 0.929 . S
S1482 N1483 1.613 . S
S1482 N1484 1.610 . S
N1483 S1482 1.613 . S
N1483 C1486 1.350 . S
N1484 S1482 1.610 . S
N1484 C1485 1.351 . S
C1485 C1479 1.428 . S
C1485 N1484 1.351 . S
C1485 C1486 1.434 . S
C1486 C1477 1.429 . S
C1486 N1483 1.350 . S
C1486 C1485 1.434 . S
C1487 C1488 1.369 . S
C1487 C1489 1.419 . S
C1487 H1491 0.930 . S
C1488 C1487 1.369 . S
C1488 C1497 1.429 . S
C1489 C1487 1.419 . S
C1489 C1490 1.363 . S
C1489 H1492 0.929 . S
C1490 C1489 1.363 . S
C1490 C1496 1.428 . S
H1491 C1487 0.930 . S
H1492 C1489 0.929 . S
S1493 N1494 1.613 . S
S1493 N1495 1.610 . S
N1494 S1493 1.613 . S
N1494 C1497 1.350 . S
N1495 S1493 1.610 . S
N1495 C1496 1.351 . S
C1496 C1490 1.428 . S
C1496 N1495 1.351 . S
C1496 C1497 1.434 . S
C1497 C1488 1.429 . S
C1497 N1494 1.350 . S
C1497 C1496 1.434 . S
C1498 C1499 1.369 . S
C1498 C1500 1.419 1_455 S
C1498 H1502 0.930 . S
C1499 C1498 1.369 . S
C1499 C1508 1.429 1_455 S
C1500 C1498 1.419 1_655 S
C1500 C1501 1.363 . S
C1500 H1503 0.928 1_655 S
C1501 C1500 1.363 . S
C1501 C1507 1.428 . S
H1502 C1498 0.930 . S
H1503 C1500 0.928 1_455 S
S1504 N1505 1.613 . S
S1504 N1506 1.610 . S
N1505 S1504 1.613 . S
N1505 C1508 1.350 . S
N1506 S1504 1.610 . S
N1506 C1507 1.351 . S
C1507 C1501 1.428 . S
C1507 N1506 1.351 . S
C1507 C1508 1.434 . S
C1508 C1499 1.429 1_655 S
C1508 N1505 1.350 . S
C1508 C1507 1.434 . S
C1509 C1510 1.369 . S
C1509 C1511 1.419 1_556 S
C1509 H1513 0.930 . S
C1510 C1509 1.369 . S
C1510 C1519 1.429 1_556 S
C1511 C1509 1.419 1_554 S
C1511 C1512 1.363 . S
C1511 H1514 0.929 1_554 S
C1512 C1511 1.363 . S
C1512 C1518 1.428 . S
H1513 C1509 0.930 . S
H1514 C1511 0.929 1_556 S
S1515 N1516 1.613 . S
S1515 N1517 1.610 . S
N1516 S1515 1.613 . S
N1516 C1519 1.350 . S
N1517 S1515 1.610 . S
N1517 C1518 1.351 . S
C1518 C1512 1.428 . S
C1518 N1517 1.351 . S
C1518 C1519 1.434 . S
C1519 C1510 1.429 1_554 S
C1519 N1516 1.350 . S
C1519 C1518 1.434 . S
C1520 C1521 1.369 . S
C1520 C1522 1.419 . S
C1520 H1524 0.930 . S
C1521 C1520 1.369 . S
C1521 C1530 1.429 . S
C1522 C1520 1.419 . S
C1522 C1523 1.363 . S
C1522 H1525 0.929 . S
C1523 C1522 1.363 . S
C1523 C1529 1.428 . S
H1524 C1520 0.930 . S
H1525 C1522 0.929 . S
S1526 N1527 1.613 . S
S1526 N1528 1.610 . S
N1527 S1526 1.613 . S
N1527 C1530 1.350 . S
N1528 S1526 1.610 . S
N1528 C1529 1.351 . S
C1529 C1523 1.428 . S
C1529 N1528 1.351 . S
C1529 C1530 1.434 . S
C1530 C1521 1.429 . S
C1530 N1527 1.350 . S
C1530 C1529 1.434 . S
C1531 C1532 1.369 . S
C1531 C1533 1.419 1_556 S
C1531 H1535 0.930 . S
C1532 C1531 1.369 . S
C1532 C1541 1.429 . S
C1533 C1531 1.419 1_554 S
C1533 C1534 1.363 . S
C1533 H1536 0.929 . S
C1534 C1533 1.363 . S
C1534 C1540 1.428 . S
H1535 C1531 0.930 . S
H1536 C1533 0.929 . S
S1537 N1538 1.613 1_554 S
S1537 N1539 1.610 . S
N1538 S1537 1.613 1_556 S
N1538 C1541 1.350 . S
N1539 S1537 1.610 . S
N1539 C1540 1.351 . S
C1540 C1534 1.428 . S
C1540 N1539 1.351 . S
C1540 C1541 1.434 1_554 S
C1541 C1532 1.429 . S
C1541 N1538 1.350 . S
C1541 C1540 1.434 1_556 S
C1542 C1543 1.369 . S
C1542 C1544 1.419 . S
C1542 H1546 0.930 . S
C1543 C1542 1.369 . S
C1543 C1552 1.429 . S
C1544 C1542 1.419 . S
C1544 C1545 1.363 . S
C1544 H1547 0.929 . S
C1545 C1544 1.363 . S
C1545 C1551 1.428 . S
H1546 C1542 0.930 . S
H1547 C1544 0.929 . S
S1548 N1549 1.613 . S
S1548 N1550 1.610 . S
N1549 S1548 1.613 . S
N1549 C1552 1.350 . S
N1550 S1548 1.610 . S
N1550 C1551 1.351 . S
C1551 C1545 1.428 . S
C1551 N1550 1.351 . S
C1551 C1552 1.434 . S
C1552 C1543 1.429 . S
C1552 N1549 1.350 . S
C1552 C1551 1.434 . S
C1553 C1554 1.369 . S
C1553 C1555 1.419 . S
C1553 H1557 0.930 . S
C1554 C1553 1.369 . S
C1554 C1563 1.429 . S
C1555 C1553 1.419 . S
C1555 C1556 1.363 . S
C1555 H1558 0.929 . S
C1556 C1555 1.363 . S
C1556 C1562 1.428 . S
H1557 C1553 0.930 . S
H1558 C1555 0.929 . S
S1559 N1560 1.613 . S
S1559 N1561 1.610 . S
N1560 S1559 1.613 . S
N1560 C1563 1.350 . S
N1561 S1559 1.610 . S
N1561 C1562 1.351 . S
C1562 C1556 1.428 . S
C1562 N1561 1.351 . S
C1562 C1563 1.434 . S
C1563 C1554 1.429 . S
C1563 N1560 1.350 . S
C1563 C1562 1.434 . S
C1564 C1565 1.369 . S
C1564 C1566 1.419 . S
C1564 H1568 0.930 . S
C1565 C1564 1.369 . S
C1565 C1574 1.429 . S
C1566 C1564 1.419 . S
C1566 C1567 1.363 . S
C1566 H1569 0.929 . S
C1567 C1566 1.363 . S
C1567 C1573 1.428 . S
H1568 C1564 0.930 . S
H1569 C1566 0.929 . S
S1570 N1571 1.613 . S
S1570 N1572 1.610 . S
N1571 S1570 1.613 . S
N1571 C1574 1.350 . S
N1572 S1570 1.610 . S
N1572 C1573 1.351 . S
C1573 C1567 1.428 . S
C1573 N1572 1.351 . S
C1573 C1574 1.434 . S
C1574 C1565 1.429 . S
C1574 N1571 1.350 . S
C1574 C1573 1.434 . S
C1575 C1576 1.369 . S
C1575 C1577 1.419 . S
C1575 H1579 0.930 . S
C1576 C1575 1.369 . S
C1576 C1585 1.429 . S
C1577 C1575 1.419 . S
C1577 C1578 1.363 . S
C1577 H1580 0.929 . S
C1578 C1577 1.363 . S
C1578 C1584 1.428 . S
H1579 C1575 0.930 . S
H1580 C1577 0.929 . S
S1581 N1582 1.613 . S
S1581 N1583 1.610 . S
N1582 S1581 1.613 . S
N1582 C1585 1.350 . S
N1583 S1581 1.610 . S
N1583 C1584 1.351 . S
C1584 C1578 1.428 . S
C1584 N1583 1.351 . S
C1584 C1585 1.434 . S
C1585 C1576 1.429 . S
C1585 N1582 1.350 . S
C1585 C1584 1.434 . S
C1586 C1587 1.369 . S
C1586 C1588 1.419 . S
C1586 H1590 0.930 . S
C1587 C1586 1.369 . S
C1587 C1596 1.429 . S
C1588 C1586 1.419 . S
C1588 C1589 1.363 . S
C1588 H1591 0.929 . S
C1589 C1588 1.363 . S
C1589 C1595 1.428 . S
H1590 C1586 0.930 . S
H1591 C1588 0.929 . S
S1592 N1593 1.613 . S
S1592 N1594 1.610 . S
N1593 S1592 1.613 . S
N1593 C1596 1.350 . S
N1594 S1592 1.610 . S
N1594 C1595 1.351 . S
C1595 C1589 1.428 . S
C1595 N1594 1.351 . S
C1595 C1596 1.434 . S
C1596 C1587 1.429 . S
C1596 N1593 1.350 . S
C1596 C1595 1.434 . S
C1597 C1598 1.369 . S
C1597 C1599 1.419 . S
C1597 H1601 0.930 . S
C1598 C1597 1.369 . S
C1598 C1607 1.429 . S
C1599 C1597 1.419 . S
C1599 C1600 1.363 . S
C1599 H1602 0.929 . S
C1600 C1599 1.363 . S
C1600 C1606 1.428 . S
H1601 C1597 0.930 . S
H1602 C1599 0.929 . S
S1603 N1604 1.613 . S
S1603 N1605 1.610 . S
N1604 S1603 1.613 . S
N1604 C1607 1.350 . S
N1605 S1603 1.610 . S
N1605 C1606 1.351 . S
C1606 C1600 1.428 . S
C1606 N1605 1.351 . S
C1606 C1607 1.434 . S
C1607 C1598 1.429 . S
C1607 N1604 1.350 . S
C1607 C1606 1.434 . S
C1608 C1609 1.369 . S
C1608 C1610 1.419 . S
C1608 H1612 0.930 . S
C1609 C1608 1.369 . S
C1609 C1618 1.429 1_565 S
C1610 C1608 1.419 . S
C1610 C1611 1.363 1_565 S
C1610 H1613 0.929 . S
C1611 C1610 1.363 1_545 S
C1611 C1617 1.428 . S
H1612 C1608 0.930 . S
H1613 C1610 0.929 . S
S1614 N1615 1.613 . S
S1614 N1616 1.610 . S
N1615 S1614 1.613 . S
N1615 C1618 1.350 . S
N1616 S1614 1.610 . S
N1616 C1617 1.351 . S
C1617 C1611 1.428 . S
C1617 N1616 1.351 . S
C1617 C1618 1.434 . S
C1618 C1609 1.429 1_545 S
C1618 N1615 1.350 . S
C1618 C1617 1.434 . S
C1619 C1620 1.369 . S
C1619 C1621 1.419 . S
C1619 H1623 0.930 . S
C1620 C1619 1.369 . S
C1620 C1629 1.429 . S
C1621 C1619 1.419 . S
C1621 C1622 1.363 . S
C1621 H1624 0.929 . S
C1622 C1621 1.363 . S
C1622 C1628 1.428 . S
H1623 C1619 0.930 . S
H1624 C1621 0.929 . S
S1625 N1626 1.613 . S
S1625 N1627 1.610 . S
N1626 S1625 1.613 . S
N1626 C1629 1.350 . S
N1627 S1625 1.610 . S
N1627 C1628 1.351 . S
C1628 C1622 1.428 . S
C1628 N1627 1.351 . S
C1628 C1629 1.434 . S
C1629 C1620 1.429 . S
C1629 N1626 1.350 . S
C1629 C1628 1.434 . S
C1630 C1631 1.369 . S
C1630 C1632 1.419 . S
C1630 H1634 0.930 . S
C1631 C1630 1.369 . S
C1631 C1640 1.429 1_545 S
C1632 C1630 1.419 . S
C1632 C1633 1.363 1_545 S
C1632 H1635 0.929 . S
C1633 C1632 1.363 1_565 S
C1633 C1639 1.428 . S
H1634 C1630 0.930 . S
H1635 C1632 0.929 . S
S1636 N1637 1.613 . S
S1636 N1638 1.610 . S
N1637 S1636 1.613 . S
N1637 C1640 1.350 . S
N1638 S1636 1.610 . S
N1638 C1639 1.351 . S
C1639 C1633 1.428 . S
C1639 N1638 1.351 . S
C1639 C1640 1.434 . S
C1640 C1631 1.429 1_565 S
C1640 N1637 1.350 . S
C1640 C1639 1.434 . S
C1641 C1642 1.369 . S
C1641 C1643 1.419 . S
C1641 H1645 0.930 . S
C1642 C1641 1.369 . S
C1642 C1651 1.429 . S
C1643 C1641 1.419 . S
C1643 C1644 1.363 1_554 S
C1643 H1646 0.929 . S
C1644 C1643 1.363 1_556 S
C1644 C1650 1.428 . S
H1645 C1641 0.930 . S
H1646 C1643 0.929 . S
S1647 N1648 1.613 1_556 S
S1647 N1649 1.610 . S
N1648 S1647 1.613 1_554 S
N1648 C1651 1.350 . S
N1649 S1647 1.610 . S
N1649 C1650 1.351 . S
C1650 C1644 1.428 . S
C1650 N1649 1.351 . S
C1650 C1651 1.434 1_556 S
C1651 C1642 1.429 . S
C1651 N1648 1.350 . S
C1651 C1650 1.434 1_554 S
C1652 C1653 1.369 1_545 S
C1652 C1654 1.419 . S
C1652 H1656 0.930 . S
C1653 C1652 1.369 1_565 S
C1653 C1662 1.429 . S
C1654 C1652 1.419 . S
C1654 C1655 1.363 . S
C1654 H1657 0.929 . S
C1655 C1654 1.363 . S
C1655 C1661 1.428 1_545 S
H1656 C1652 0.930 . S
H1657 C1654 0.929 . S
S1658 N1659 1.613 . S
S1658 N1660 1.610 . S
N1659 S1658 1.613 . S
N1659 C1662 1.350 . S
N1660 S1658 1.610 . S
N1660 C1661 1.351 . S
C1661 C1655 1.428 1_565 S
C1661 N1660 1.351 . S
C1661 C1662 1.434 . S
C1662 C1653 1.429 . S
C1662 N1659 1.350 . S
C1662 C1661 1.434 . S
C1663 C1664 1.369 . S
C1663 C1665 1.419 . S
C1663 H1667 0.930 . S
C1664 C1663 1.369 . S
C1664 C1673 1.429 . S
C1665 C1663 1.419 . S
C1665 C1666 1.363 . S
C1665 H1668 0.929 . S
C1666 C1665 1.363 . S
C1666 C1672 1.428 . S
H1667 C1663 0.930 . S
H1668 C1665 0.929 . S
S1669 N1670 1.613 . S
S1669 N1671 1.610 . S
N1670 S1669 1.613 . S
N1670 C1673 1.350 . S
N1671 S1669 1.610 . S
N1671 C1672 1.351 . S
C1672 C1666 1.428 . S
C1672 N1671 1.351 . S
C1672 C1673 1.434 . S
C1673 C1664 1.429 . S
C1673 N1670 1.350 . S
C1673 C1672 1.434 . S
C1674 C1675 1.369 1_545 S
C1674 C1676 1.419 . S
C1674 H1678 0.930 . S
C1675 C1674 1.369 1_565 S
C1675 C1684 1.429 . S
C1676 C1674 1.419 . S
C1676 C1677 1.363 . S
C1676 H1679 0.929 . S
C1677 C1676 1.363 . S
C1677 C1683 1.428 1_545 S
H1678 C1674 0.930 . S
H1679 C1676 0.929 . S
S1680 N1681 1.613 . S
S1680 N1682 1.610 . S
N1681 S1680 1.613 . S
N1681 C1684 1.350 . S
N1682 S1680 1.610 . S
N1682 C1683 1.351 . S
C1683 C1677 1.428 1_565 S
C1683 N1682 1.351 . S
C1683 C1684 1.434 . S
C1684 C1675 1.429 . S
C1684 N1681 1.350 . S
C1684 C1683 1.434 . S
C1685 C1686 1.369 . S
C1685 C1687 1.419 . S
C1685 H1689 0.930 . S
C1686 C1685 1.369 . S
C1686 C1695 1.429 . S
C1687 C1685 1.419 . S
C1687 C1688 1.363 . S
C1687 H1690 0.929 . S
C1688 C1687 1.363 . S
C1688 C1694 1.428 . S
H1689 C1685 0.930 . S
H1690 C1687 0.929 . S
S1691 N1692 1.613 1_556 S
S1691 N1693 1.610 . S
N1692 S1691 1.613 1_554 S
N1692 C1695 1.350 . S
N1693 S1691 1.610 . S
N1693 C1694 1.351 1_556 S
C1694 C1688 1.428 . S
C1694 N1693 1.351 1_554 S
C1694 C1695 1.434 . S
C1695 C1686 1.429 . S
C1695 N1692 1.350 . S
C1695 C1694 1.434 . S
C641 C18 0.848 . S
C643 C81 0.860 . S
C652 C101 0.856 . S
C654 C38 0.845 . S
C663 C41 0.733 . S
C665 C121 0.747 . S
C674 C141 0.755 . S
C676 C61 0.743 . S
C685 C179 0.849 . S
C687 C242 0.863 . S
C696 C199 0.845 . S
C698 C262 0.845 . S
C707 C282 0.730 . S
C709 C202 0.745 . S
C718 C222 0.759 . S
C720 C302 0.744 1_554 S
C729 C401 0.866 . S
C731 C338 0.855 . S
C740 C358 0.850 . S
C742 C421 0.843 . S
C751 C361 0.734 . S
C753 C441 0.739 . S
C762 C381 0.744 . S
C764 C461 0.757 . S
C773 C499 0.854 . S
C775 C562 0.854 . S
C784 C582 0.855 . S
C786 C519 0.849 . S
C795 C522 0.740 . S
C797 C602 0.736 . S
C806 C622 0.748 . S
C808 C542 0.748 . S
C817 C428 1.528 . S
C819 C9 1.510 . S
C828 C448 1.590 . S
C830 C29 1.584 . S
C839 C468 1.590 . S
C841 C48 1.593 . S
C850 C68 1.522 . S
C852 C408 1.533 . S
C861 C88 1.526 . S
C863 C388 1.523 . S
C872 C329 1.520 . S
C874 C108 1.518 . S
C883 C128 1.585 1_556 S
C885 C349 1.588 . S
C894 C148 1.600 . S
C896 C368 1.594 . S
C905 C168 1.510 . S
C907 C589 1.525 . S
C916 C609 1.587 . S
C918 C188 1.586 . S
C927 C629 1.591 . S
C929 C209 1.592 . S
C938 C229 1.530 . S
C940 C569 1.525 . S
C949 C249 1.525 . S
C951 C549 1.531 . S
C960 C269 1.523 . S
C962 C488 1.513 . S
C971 C289 1.580 . S
C973 C508 1.592 . S
C982 C309 1.590 . S
C984 C529 1.595 1_556 S
C993 C169 0.630 . S
C995 C8 0.633 . S
C1004 C28 0.622 . S
C1006 C509 0.653 . S
C1015 C208 0.645 . S
C1017 C49 0.632 . S
C1026 C69 0.627 . S
C1028 C548 0.643 . S
C1037 C248 0.387 . S
C1039 C89 0.362 . S
C1048 C588 0.352 . S
C1050 C109 0.357 . S
C1059 C129 0.624 . S
C1061 C288 0.643 . S
C1070 C149 0.645 . S
C1072 C628 0.642 . S
C1081 C348 0.652 . S
C1083 C189 0.629 . S
C1092 C389 0.648 . S
C1094 C228 0.627 . S
C1103 C268 0.363 . S
C1105 C429 0.351 . S
C1114 C469 0.646 . S
C1116 C308 0.641 . S
C1125 C489 0.645 . S
C1127 C328 0.622 . S
C1136 C528 0.636 . S
C1138 C369 0.639 . S
C1147 C568 0.364 . S
C1149 C409 0.379 . S
C1158 C449 0.647 . S
C1160 C608 0.625 . S
C1169 C19 1.699 . S
C1171 C258 1.705 . S
C1180 C598 1.703 1_554 S
C1182 C39 1.702 . S
C1191 C298 1.568 . S
C1193 C42 1.532 . S
C1202 C62 1.536 . S
C1204 C638 1.571 . S
C1213 C161 1.345 . S
C1215 C82 1.326 . S
C1224 C501 1.334 . S
C1226 C102 1.315 . S
C1235 C218 1.564 . S
C1237 C122 1.533 . S
C1246 C558 1.567 . S
C1248 C142 1.542 . S
C1257 C99 1.700 . S
C1259 C178 1.702 . S
C1268 C439 1.704 . S
C1270 C198 1.696 . S
C1279 C139 1.563 . S
C1281 C201 1.530 . S
C1290 C221 1.541 . S
C1292 C479 1.565 . S
C1301 C2 1.345 . S
C1303 C241 1.330 . S
C1312 C342 1.327 1_554 S
C1314 C261 1.322 . S
C1323 C281 1.527 . S
C1325 C59 1.564 . S
C1334 C301 1.543 . S
C1336 C399 1.573 . S
C1345 C578 1.701 . S
C1347 C339 1.702 . S
C1356 C278 1.701 . S
C1358 C359 1.700 . S
C1367 C362 1.534 . S
C1369 C618 1.561 . S
C1378 C318 1.571 . S
C1380 C382 1.535 . S
C1389 C402 1.325 . S
C1391 C481 1.343 . S
C1400 C422 1.322 . S
C1402 C181 1.328 . S
C1411 C538 1.559 . S
C1413 C442 1.530 . S
C1422 C238 1.569 . S
C1424 C462 1.546 1_554 S
C1433 C498 1.703 . S
C1435 C419 1.705 . S
C1444 C518 1.702 . S
C1446 C119 1.703 . S
C1455 C521 1.537 . S
C1457 C459 1.562 . S
C1466 C541 1.533 1_554 S
C1468 C159 1.570 . S
C1477 C322 1.343 . S
C1479 C561 1.331 . S
C1488 C22 1.328 . S
C1490 C581 1.321 . S
C1499 C601 1.528 . S
C1501 C379 1.561 . S
C1510 C79 1.574 . S
C1512 C621 1.539 . S
C1521 C98 2.067 . S
C1523 C1 2.025 . S
C1532 C118 2.060 . S
C1534 C21 2.023 . S
C1543 C58 2.278 . S
C1545 C138 2.275 . S
C1554 C158 2.284 . S
C1556 C78 2.281 . S
C1565 C259 2.066 . S
C1567 C162 2.025 . S
C1576 C182 2.022 1_554 S
C1578 C279 2.061 . S
C1587 C219 2.277 . S
C1589 C299 2.277 . S
C1598 C319 2.280 . S
C1600 C239 2.282 . S
C1609 C321 2.025 . S
C1611 C418 2.064 . S
C1620 C438 2.060 . S
C1622 C341 2.023 . S
C1631 C378 2.275 . S
C1633 C458 2.277 . S
C1642 C398 2.284 . S
C1644 C478 2.282 . S
C1653 C579 2.068 1_556 S
C1655 C482 2.025 . S
C1664 C599 2.060 . S
C1666 C502 2.020 . S
C1675 C539 2.277 . S
C1677 C619 2.275 . S
C1686 C639 2.283 . S
C1688 C559 2.281 1_554 S
