# Generated by pormake.
# Topology nfa, (4)-cn, num edge types: 1
# Building blocks:
#     Node 0, Type 0, BuildingBlock: NAWXER_clean_sbu_0, # of connection points: 4
#     Node 1, Type 0, BuildingBlock: NAWXER_clean_sbu_0, # of connection points: 4
#     Node 2, Type 0, BuildingBlock: NAWXER_clean_sbu_0, # of connection points: 4
#     Node 3, Type 0, BuildingBlock: NAWXER_clean_sbu_0, # of connection points: 4
#     Node 4, Type 0, BuildingBlock: NAWXER_clean_sbu_0, # of connection points: 4
#     Node 5, Type 0, BuildingBlock: NAWXER_clean_sbu_0, # of connection points: 4
#     Node 6, Type 0, BuildingBlock: NAWXER_clean_sbu_0, # of connection points: 4
#     Node 7, Type 0, BuildingBlock: NAWXER_clean_sbu_0, # of connection points: 4
#     Node 8, Type 0, BuildingBlock: NAWXER_clean_sbu_0, # of connection points: 4
#     Node 9, Type 0, BuildingBlock: NAWXER_clean_sbu_0, # of connection points: 4
#     Node 10, Type 0, BuildingBlock: NAWXER_clean_sbu_0, # of connection points: 4
#     Node 11, Type 0, BuildingBlock: NAWXER_clean_sbu_0, # of connection points: 4
#     Node 12, Type 0, BuildingBlock: NAWXER_clean_sbu_0, # of connection points: 4
#     Node 13, Type 0, BuildingBlock: NAWXER_clean_sbu_0, # of connection points: 4
#     Node 14, Type 0, BuildingBlock: NAWXER_clean_sbu_0, # of connection points: 4
#     Node 15, Type 0, BuildingBlock: NAWXER_clean_sbu_0, # of connection points: 4
#     Node 16, Type 0, BuildingBlock: NAWXER_clean_sbu_0, # of connection points: 4
#     Node 17, Type 0, BuildingBlock: NAWXER_clean_sbu_0, # of connection points: 4
#     Node 18, Type 0, BuildingBlock: NAWXER_clean_sbu_0, # of connection points: 4
#     Node 19, Type 0, BuildingBlock: NAWXER_clean_sbu_0, # of connection points: 4
#     Node 20, Type 0, BuildingBlock: NAWXER_clean_sbu_0, # of connection points: 4
#     Node 21, Type 0, BuildingBlock: NAWXER_clean_sbu_0, # of connection points: 4
#     Node 22, Type 0, BuildingBlock: NAWXER_clean_sbu_0, # of connection points: 4
#     Node 23, Type 0, BuildingBlock: NAWXER_clean_sbu_0, # of connection points: 4
#     Edge 24, Type (0, 0), None
#     Edge 25, Type (0, 0), None
#     Edge 26, Type (0, 0), None
#     Edge 27, Type (0, 0), None
#     Edge 28, Type (0, 0), None
#     Edge 29, Type (0, 0), None
#     Edge 30, Type (0, 0), None
#     Edge 31, Type (0, 0), None
#     Edge 32, Type (0, 0), None
#     Edge 33, Type (0, 0), None
#     Edge 34, Type (0, 0), None
#     Edge 35, Type (0, 0), None
#     Edge 36, Type (0, 0), None
#     Edge 37, Type (0, 0), None
#     Edge 38, Type (0, 0), None
#     Edge 39, Type (0, 0), None
#     Edge 40, Type (0, 0), None
#     Edge 41, Type (0, 0), None
#     Edge 42, Type (0, 0), None
#     Edge 43, Type (0, 0), None
#     Edge 44, Type (0, 0), None
#     Edge 45, Type (0, 0), None
#     Edge 46, Type (0, 0), None
#     Edge 47, Type (0, 0), None
#     Edge 48, Type (0, 0), None
#     Edge 49, Type (0, 0), None
#     Edge 50, Type (0, 0), None
#     Edge 51, Type (0, 0), None
#     Edge 52, Type (0, 0), None
#     Edge 53, Type (0, 0), None
#     Edge 54, Type (0, 0), None
#     Edge 55, Type (0, 0), None
#     Edge 56, Type (0, 0), None
#     Edge 57, Type (0, 0), None
#     Edge 58, Type (0, 0), None
#     Edge 59, Type (0, 0), None
#     Edge 60, Type (0, 0), None
#     Edge 61, Type (0, 0), None
#     Edge 62, Type (0, 0), None
#     Edge 63, Type (0, 0), None
#     Edge 64, Type (0, 0), None
#     Edge 65, Type (0, 0), None
#     Edge 66, Type (0, 0), None
#     Edge 67, Type (0, 0), None
#     Edge 68, Type (0, 0), None
#     Edge 69, Type (0, 0), None
#     Edge 70, Type (0, 0), None
#     Edge 71, Type (0, 0), None
# Relax obj value: 0.171
# Max RMSD: 0.184
# Mean RMSD: 0.184
data_MOF--net-nfa--node1-NAWXER_clean_sbu_0--edge1-none
_symmetry_space_group_name_H-M    P1
_symmetry_Int_Tables_number       1
_symmetry_cell_setting            triclinic
loop_
_symmetry_equiv_pos_as_xyz
'x, y, z'
_cell_length_a     17.854022
_cell_length_b     17.852999
_cell_length_c     17.852427
_cell_angle_alpha  90.000526
_cell_angle_beta   89.999503
_cell_angle_gamma 89.999789
loop_
_atom_site_label
_atom_site_type_symbol
_atom_site_fract_x
_atom_site_fract_y
_atom_site_fract_z
_atom_type_partial_charge
C0 C 0.12003 0.31272 0.50421 0.0
C1 C 0.05488 0.47163 0.27896 0.0
O2 O 0.07436 0.36753 0.50738 0.0
Zn3 Zn 0.0814 0.40931 0.40345 0.0
O4 O 0.15052 0.2972 0.44167 0.0
Zn5 Zn 0.15337 0.33526 0.33141 0.0
O6 O 0.25729 0.37702 0.32431 0.0
O7 O 0.19167 0.44734 0.40056 0.0
O8 O 0.10081 0.41807 0.27209 0.0
O9 O 0.03288 0.49092 0.34458 0.0
O10 O 0.02204 0.32653 0.3509 0.0
O11 O 0.09445 0.25367 0.28289 0.0
C12 C 0.25417 0.43181 0.37002 0.0
C13 C 0.02885 0.27298 0.30494 0.0
C14 C 0.9716 0.77899 0.55499 0.0
C15 C 0.81269 0.00425 0.62014 0.0
O16 O 0.99087 0.8446 0.53293 0.0
Zn17 Zn 0.90926 0.90348 0.58148 0.0
O18 O 0.91803 0.77213 0.60091 0.0
Zn19 Zn 0.83523 0.83144 0.65348 0.0
O20 O 0.75364 0.78291 0.59458 0.0
O21 O 0.82648 0.85092 0.52213 0.0
O22 O 0.79717 0.94171 0.65064 0.0
O23 O 0.86747 0.00739 0.57443 0.0
O24 O 0.94731 0.90061 0.69175 0.0
O25 O 0.87701 0.82435 0.75739 0.0
C26 C 0.77291 0.80499 0.52897 0.0
C27 C 0.93178 0.87008 0.75427 0.0
C28 C 0.37451 0.68182 0.00424 0.0
C29 C 0.4396 0.52295 0.77894 0.0
O30 O 0.4202 0.62702 0.00737 0.0
Zn31 Zn 0.4131 0.58526 0.90344 0.0
O32 O 0.34398 0.69734 0.94172 0.0
Zn33 Zn 0.34109 0.6593 0.83144 0.0
O34 O 0.23717 0.61753 0.82438 0.0
O35 O 0.30284 0.5472 0.90058 0.0
O36 O 0.39365 0.5765 0.7721 0.0
O37 O 0.46164 0.50366 0.84455 0.0
O38 O 0.47243 0.66806 0.85087 0.0
O39 O 0.39996 0.7409 0.7829 0.0
C40 C 0.24031 0.56273 0.87007 0.0
C41 C 0.46558 0.72162 0.80493 0.0
C42 C 0.56272 0.12455 0.25419 0.0
C43 C 0.72158 0.18964 0.02888 0.0
O44 O 0.61753 0.17024 0.25734 0.0
Zn45 Zn 0.65929 0.16316 0.15341 0.0
O46 O 0.54719 0.09404 0.19167 0.0
Zn47 Zn 0.58523 0.09116 0.0814 0.0
O48 O 0.62699 0.98723 0.07432 0.0
O49 O 0.69732 0.05289 0.15053 0.0
O50 O 0.66802 0.14371 0.02205 0.0
O51 O 0.74089 0.21167 0.09449 0.0
O52 O 0.5765 0.22251 0.10086 0.0
O53 O 0.50363 0.15008 0.03289 0.0
C54 C 0.68179 0.99037 0.12001 0.0
C55 C 0.52294 0.21569 0.05493 0.0
C56 C 0.25416 0.56275 0.12459 0.0
C57 C 0.02886 0.72162 0.18966 0.0
O58 O 0.25729 0.61756 0.17027 0.0
Zn59 Zn 0.15337 0.65932 0.16319 0.0
O60 O 0.19165 0.54721 0.09406 0.0
Zn61 Zn 0.08138 0.58526 0.09118 0.0
O62 O 0.07431 0.62702 0.98725 0.0
O63 O 0.1505 0.69736 0.05291 0.0
O64 O 0.02204 0.66805 0.14372 0.0
O65 O 0.09446 0.74093 0.2117 0.0
O66 O 0.10081 0.57654 0.22254 0.0
O67 O 0.03285 0.50365 0.15007 0.0
C68 C 0.11999 0.68183 0.99039 0.0
C69 C 0.05488 0.52298 0.21568 0.0
C70 C 0.56274 0.87001 0.24039 0.0
C71 C 0.72156 0.80493 0.46569 0.0
O72 O 0.61754 0.82433 0.23725 0.0
Zn73 Zn 0.6593 0.83141 0.34118 0.0
O74 O 0.5472 0.90054 0.30291 0.0
Zn75 Zn 0.58523 0.90341 0.41318 0.0
O76 O 0.62699 0.00734 0.42026 0.0
O77 O 0.69733 0.94168 0.34406 0.0
O78 O 0.668 0.85086 0.47254 0.0
O79 O 0.7409 0.78289 0.4001 0.0
O80 O 0.57651 0.77206 0.39373 0.0
O81 O 0.50362 0.84449 0.46168 0.0
C82 C 0.6818 0.0042 0.37458 0.0
C83 C 0.52293 0.77889 0.43965 0.0
C84 C 0.24032 0.43187 0.62451 0.0
C85 C 0.46556 0.27295 0.68968 0.0
O86 O 0.23716 0.37707 0.6702 0.0
Zn87 Zn 0.34107 0.33529 0.66316 0.0
O88 O 0.30286 0.44739 0.59401 0.0
Zn89 Zn 0.41311 0.40932 0.59116 0.0
O90 O 0.42021 0.36754 0.48724 0.0
O91 O 0.34396 0.29724 0.5529 0.0
O92 O 0.47242 0.32651 0.64374 0.0
O93 O 0.39994 0.25367 0.7117 0.0
O94 O 0.39364 0.41806 0.72252 0.0
O95 O 0.46165 0.49092 0.65006 0.0
C96 C 0.3745 0.31275 0.49038 0.0
C97 C 0.4396 0.4716 0.71566 0.0
C98 C 0.77293 0.18958 0.9656 0.0
C99 C 0.9318 0.12446 0.74033 0.0
O100 O 0.75363 0.21165 0.90001 0.0
Zn101 Zn 0.83522 0.16311 0.84111 0.0
O102 O 0.8265 0.14366 0.97247 0.0
Zn103 Zn 0.90927 0.09109 0.91313 0.0
O104 O 0.99088 0.15 0.96165 0.0
O105 O 0.91801 0.22244 0.89366 0.0
O106 O 0.94732 0.09395 0.80286 0.0
O107 O 0.87703 0.17018 0.73719 0.0
O108 O 0.79718 0.05284 0.84397 0.0
O109 O 0.86747 0.98718 0.9202 0.0
C110 C 0.97159 0.2156 0.93957 0.0
C111 C 0.8127 0.99031 0.87447 0.0
C112 C 0.50418 0.12005 0.31274 0.0
C113 C 0.27895 0.05492 0.47165 0.0
O114 O 0.50735 0.07437 0.36755 0.0
Zn115 Zn 0.40344 0.08143 0.40933 0.0
O116 O 0.44166 0.15057 0.29722 0.0
Zn117 Zn 0.33141 0.15343 0.33528 0.0
O118 O 0.32431 0.25735 0.37704 0.0
O119 O 0.40055 0.1917 0.44737 0.0
O120 O 0.27209 0.10086 0.41809 0.0
O121 O 0.34456 0.0329 0.49094 0.0
O122 O 0.35088 0.02209 0.32654 0.0
O123 O 0.28288 0.09451 0.25369 0.0
C124 C 0.37001 0.25421 0.43184 0.0
C125 C 0.30493 0.02891 0.27299 0.0
C126 C 0.12454 0.25417 0.56274 0.0
C127 C 0.18963 0.0289 0.72163 0.0
O128 O 0.17021 0.25734 0.61756 0.0
Zn129 Zn 0.16314 0.15341 0.65932 0.0
O130 O 0.09403 0.19164 0.5472 0.0
Zn131 Zn 0.09116 0.08138 0.58525 0.0
O132 O 0.98724 0.07428 0.627 0.0
O133 O 0.05287 0.15052 0.69735 0.0
O134 O 0.14371 0.02206 0.66806 0.0
O135 O 0.21165 0.09451 0.74094 0.0
O136 O 0.22251 0.10085 0.57654 0.0
O137 O 0.15008 0.03285 0.50366 0.0
C138 C 0.99037 0.11997 0.68181 0.0
C139 C 0.21566 0.0549 0.52299 0.0
C140 C 0.18958 0.96563 0.77298 0.0
C141 C 0.12448 0.74036 0.93183 0.0
O142 O 0.21163 0.90003 0.75366 0.0
Zn143 Zn 0.16311 0.84114 0.83527 0.0
O144 O 0.14368 0.9725 0.82657 0.0
Zn145 Zn 0.09113 0.91316 0.90936 0.0
O146 O 0.15006 0.96166 0.99095 0.0
O147 O 0.22247 0.89366 0.91806 0.0
O148 O 0.09398 0.80289 0.94738 0.0
O149 O 0.17017 0.73721 0.87703 0.0
O150 O 0.05284 0.84402 0.79725 0.0
O151 O 0.98722 0.92027 0.8676 0.0
C152 C 0.21565 0.93958 0.97165 0.0
C153 C 0.99034 0.87456 0.81281 0.0
C154 C 0.30497 0.96563 0.22164 0.0
C155 C 0.37003 0.74035 0.06279 0.0
O156 O 0.28291 0.90004 0.24097 0.0
Zn157 Zn 0.33142 0.84113 0.15936 0.0
O158 O 0.35089 0.97249 0.16806 0.0
Zn159 Zn 0.40342 0.91314 0.08527 0.0
O160 O 0.34451 0.96165 0.00366 0.0
O161 O 0.27208 0.89367 0.07658 0.0
O162 O 0.40055 0.80287 0.04725 0.0
O163 O 0.32433 0.73722 0.11759 0.0
O164 O 0.44169 0.844 0.19738 0.0
O165 O 0.50735 0.92021 0.12704 0.0
C166 C 0.27893 0.93958 0.02299 0.0
C167 C 0.50421 0.87451 0.18183 0.0
C168 C 0.47159 0.27896 0.05499 0.0
C169 C 0.31272 0.50422 0.12009 0.0
O170 O 0.4909 0.34456 0.03292 0.0
Zn171 Zn 0.40929 0.40345 0.08145 0.0
O172 O 0.41802 0.27209 0.10091 0.0
Zn173 Zn 0.33524 0.33144 0.15347 0.0
O174 O 0.25364 0.28292 0.09456 0.0
O175 O 0.3265 0.3509 0.02212 0.0
O176 O 0.29719 0.4417 0.15061 0.0
O177 O 0.36751 0.50737 0.07438 0.0
O178 O 0.44733 0.40059 0.19172 0.0
O179 O 0.37703 0.32437 0.25739 0.0
C180 C 0.27293 0.30499 0.02896 0.0
C181 C 0.4318 0.37009 0.25426 0.0
C182 C 0.93953 0.97163 0.21566 0.0
C183 C 0.87447 0.81276 0.99035 0.0
O184 O 0.9616 0.99093 0.15006 0.0
Zn185 Zn 0.9131 0.90932 0.09114 0.0
O186 O 0.89362 0.91805 0.22249 0.0
Zn187 Zn 0.84109 0.83525 0.16315 0.0
O188 O 0.9 0.75365 0.21167 0.0
O189 O 0.97245 0.82654 0.14369 0.0
O190 O 0.84396 0.79723 0.05288 0.0
O191 O 0.92018 0.86754 0.98722 0.0
O192 O 0.80284 0.94735 0.094 0.0
O193 O 0.73717 0.87702 0.17022 0.0
C194 C 0.96558 0.77297 0.18961 0.0
C195 C 0.74032 0.93181 0.12451 0.0
C196 C 0.06271 0.62458 0.75417 0.0
C197 C 0.22159 0.68967 0.52887 0.0
O198 O 0.11752 0.67026 0.75733 0.0
Zn199 Zn 0.15929 0.66321 0.6534 0.0
O200 O 0.04718 0.59407 0.69164 0.0
Zn201 Zn 0.08522 0.5912 0.58138 0.0
O202 O 0.12698 0.48727 0.57431 0.0
O203 O 0.19732 0.55295 0.65052 0.0
O204 O 0.16802 0.64374 0.52204 0.0
O205 O 0.24089 0.7117 0.59448 0.0
O206 O 0.07651 0.72256 0.60085 0.0
O207 O 0.00362 0.65012 0.53287 0.0
C208 C 0.18179 0.49043 0.61999 0.0
C209 C 0.02295 0.71572 0.55491 0.0
C210 C 0.62001 0.81269 0.00419 0.0
C211 C 0.55485 0.97161 0.77895 0.0
O212 O 0.57434 0.8675 0.00737 0.0
Zn213 Zn 0.58137 0.90928 0.90344 0.0
O214 O 0.6505 0.79717 0.94165 0.0
Zn215 Zn 0.65335 0.83524 0.83138 0.0
O216 O 0.75727 0.877 0.82428 0.0
O217 O 0.69163 0.94733 0.90054 0.0
O218 O 0.60078 0.91805 0.77208 0.0
O219 O 0.53284 0.9909 0.84457 0.0
O220 O 0.52201 0.82651 0.85088 0.0
O221 O 0.59444 0.75365 0.78285 0.0
C222 C 0.75413 0.9318 0.86998 0.0
C223 C 0.52885 0.77297 0.80491 0.0
C224 C 0.93954 0.02298 0.27893 0.0
C225 C 0.87448 0.18181 0.50425 0.0
O226 O 0.96161 0.00365 0.34452 0.0
Zn227 Zn 0.91311 0.08525 0.40344 0.0
O228 O 0.89362 0.07656 0.27209 0.0
Zn229 Zn 0.84109 0.15934 0.33144 0.0
O230 O 0.89999 0.24095 0.28293 0.0
O231 O 0.97244 0.16805 0.3509 0.0
O232 O 0.84397 0.19735 0.44172 0.0
O233 O 0.92019 0.12702 0.50737 0.0
O234 O 0.80284 0.04722 0.40058 0.0
O235 O 0.73717 0.11756 0.32438 0.0
C236 C 0.96558 0.22163 0.30499 0.0
C237 C 0.74032 0.06276 0.37008 0.0
C238 C 0.75411 0.06276 0.62464 0.0
C239 C 0.52883 0.2216 0.6897 0.0
O240 O 0.75725 0.11758 0.67032 0.0
Zn241 Zn 0.65333 0.15933 0.66323 0.0
O242 O 0.69161 0.04722 0.59409 0.0
Zn243 Zn 0.58135 0.08527 0.59119 0.0
O244 O 0.57431 0.12704 0.48726 0.0
O245 O 0.65047 0.19738 0.55296 0.0
O246 O 0.52198 0.16805 0.64374 0.0
O247 O 0.59442 0.24093 0.71175 0.0
O248 O 0.60077 0.07653 0.72255 0.0
O249 O 0.53282 0.00365 0.65006 0.0
C250 C 0.61999 0.18185 0.49042 0.0
C251 C 0.55484 0.02297 0.71567 0.0
C252 C 0.22158 0.30497 0.96568 0.0
C253 C 0.06274 0.37004 0.74037 0.0
O254 O 0.24091 0.2829 0.90009 0.0
Zn255 Zn 0.15931 0.3314 0.84117 0.0
O256 O 0.16799 0.35087 0.97253 0.0
Zn257 Zn 0.0852 0.4034 0.91318 0.0
O258 O 0.0036 0.34446 0.96167 0.0
O259 O 0.07653 0.27203 0.89369 0.0
O260 O 0.0472 0.40054 0.80291 0.0
O261 O 0.11753 0.32434 0.73724 0.0
O262 O 0.19732 0.44167 0.84405 0.0
O263 O 0.12697 0.50733 0.92026 0.0
C264 C 0.02294 0.27888 0.9396 0.0
C265 C 0.18177 0.50419 0.87456 0.0
C266 C 0.27294 0.6896 0.46559 0.0
C267 C 0.43182 0.62445 0.24034 0.0
O268 O 0.25364 0.71166 0.39999 0.0
Zn269 Zn 0.33524 0.66312 0.34111 0.0
O270 O 0.32651 0.64368 0.47248 0.0
Zn271 Zn 0.4093 0.59111 0.41315 0.0
O272 O 0.4909 0.65002 0.46167 0.0
O273 O 0.41802 0.72247 0.39366 0.0
O274 O 0.44734 0.59396 0.30287 0.0
O275 O 0.37704 0.67017 0.23719 0.0
O276 O 0.2972 0.55286 0.34398 0.0
O277 O 0.36751 0.4872 0.42023 0.0
C278 C 0.47159 0.71561 0.43959 0.0
C279 C 0.31273 0.49034 0.37451 0.0
C280 C 0.86998 0.7542 0.93182 0.0
C281 C 0.80491 0.52891 0.77297 0.0
O282 O 0.82428 0.75734 0.87703 0.0
Zn283 Zn 0.83139 0.65342 0.83527 0.0
O284 O 0.90053 0.6917 0.94735 0.0
Zn285 Zn 0.90343 0.58143 0.90931 0.0
O286 O 0.00735 0.57438 0.86753 0.0
O287 O 0.94164 0.65057 0.7972 0.0
O288 O 0.85087 0.52208 0.82652 0.0
O289 O 0.78285 0.59451 0.75369 0.0
O290 O 0.77209 0.60084 0.91809 0.0
O291 O 0.84457 0.53289 0.99093 0.0
C292 C 0.00417 0.62006 0.81272 0.0
C293 C 0.77895 0.5549 0.97164 0.0
C294 C 0.62453 0.75414 0.06273 0.0
C295 C 0.68966 0.5289 0.22165 0.0
O296 O 0.6702 0.75733 0.11755 0.0
Zn297 Zn 0.66315 0.6534 0.15932 0.0
O298 O 0.59404 0.69161 0.0472 0.0
Zn299 Zn 0.59118 0.58135 0.08526 0.0
O300 O 0.48725 0.57426 0.12701 0.0
O301 O 0.55289 0.6505 0.19736 0.0
O302 O 0.64373 0.52205 0.16808 0.0
O303 O 0.71167 0.59452 0.24094 0.0
O304 O 0.72252 0.60084 0.07654 0.0
O305 O 0.65009 0.53282 0.00367 0.0
C306 C 0.49039 0.61995 0.18182 0.0
C307 C 0.71568 0.55488 0.023 0.0
C308 C 0.6245 0.2404 0.43188 0.0
C309 C 0.68965 0.46563 0.27301 0.0
O310 O 0.67017 0.23722 0.37706 0.0
Zn311 Zn 0.66313 0.34115 0.3353 0.0
O312 O 0.59399 0.30292 0.44741 0.0
Zn313 Zn 0.59114 0.41318 0.40935 0.0
O314 O 0.48722 0.42027 0.36758 0.0
O315 O 0.55287 0.34404 0.29724 0.0
O316 O 0.64371 0.47251 0.32656 0.0
O317 O 0.71167 0.40002 0.25369 0.0
O318 O 0.72247 0.3937 0.4181 0.0
O319 O 0.65004 0.46171 0.49095 0.0
C320 C 0.49037 0.37459 0.31278 0.0
C321 C 0.71564 0.43965 0.47165 0.0
C322 C 0.00418 0.37454 0.68184 0.0
C323 C 0.77892 0.43965 0.523 0.0
O324 O 0.00733 0.42022 0.62703 0.0
Zn325 Zn 0.90341 0.41315 0.58528 0.0
O326 O 0.94167 0.34402 0.69738 0.0
Zn327 Zn 0.8314 0.34114 0.65934 0.0
O328 O 0.82431 0.23722 0.61758 0.0
O329 O 0.90052 0.30288 0.54724 0.0
O330 O 0.77206 0.3937 0.57655 0.0
O331 O 0.84452 0.46168 0.50367 0.0
O332 O 0.85085 0.47249 0.66807 0.0
O333 O 0.78287 0.40003 0.74095 0.0
C334 C 0.86999 0.24037 0.56278 0.0
C335 C 0.80491 0.46563 0.72163 0.0
loop_
_geom_bond_atom_site_label_1
_geom_bond_atom_site_label_2
_geom_bond_distance
_geom_bond_site_symmetry_2
_ccdc_geom_bond_type
C0 O2 1.247 . S
C0 O4 1.258 . S
C1 O8 1.247 . S
C1 O9 1.258 . S
O2 C0 1.247 . S
O2 Zn3 2.028 . S
Zn3 O2 2.028 . S
Zn3 O7 2.035 . S
Zn3 O9 2.035 . S
Zn3 O10 2.028 1_455 S
O4 C0 1.258 . S
O4 Zn5 2.035 . S
Zn5 O4 2.035 . S
Zn5 O6 2.028 . S
Zn5 O8 2.028 . S
Zn5 O11 2.035 . S
O6 Zn5 2.028 . S
O6 C12 1.247 . S
O7 Zn3 2.035 . S
O7 C12 1.258 . S
O8 C1 1.247 . S
O8 Zn5 2.028 . S
O9 C1 1.258 . S
O9 Zn3 2.035 . S
O10 Zn3 2.028 1_655 S
O10 C13 1.247 1_655 S
O11 Zn5 2.035 . S
O11 C13 1.258 . S
C12 O6 1.247 . S
C12 O7 1.258 . S
C13 O10 1.247 1_455 S
C13 O11 1.258 . S
C14 O16 1.247 . S
C14 O18 1.258 . S
C15 O22 1.247 . S
C15 O23 1.258 . S
O16 C14 1.247 . S
O16 Zn17 2.028 . S
Zn17 O16 2.028 . S
Zn17 O21 2.035 . S
Zn17 O23 2.035 . S
Zn17 O24 2.028 . S
O18 C14 1.258 . S
O18 Zn19 2.035 . S
Zn19 O18 2.035 . S
Zn19 O20 2.028 . S
Zn19 O22 2.028 . S
Zn19 O25 2.035 . S
O20 Zn19 2.028 . S
O20 C26 1.247 . S
O21 Zn17 2.035 . S
O21 C26 1.258 . S
O22 C15 1.247 . S
O22 Zn19 2.028 . S
O23 C15 1.258 . S
O23 Zn17 2.035 . S
O24 Zn17 2.028 . S
O24 C27 1.247 . S
O25 Zn19 2.035 . S
O25 C27 1.258 . S
C26 O20 1.247 . S
C26 O21 1.258 . S
C27 O24 1.247 . S
C27 O25 1.258 . S
C28 O30 1.247 . S
C28 O32 1.258 . S
C29 O36 1.247 . S
C29 O37 1.258 . S
O30 C28 1.247 . S
O30 Zn31 2.028 . S
Zn31 O30 2.028 . S
Zn31 O35 2.035 . S
Zn31 O37 2.035 . S
Zn31 O38 2.028 . S
O32 C28 1.258 . S
O32 Zn33 2.035 . S
Zn33 O32 2.035 . S
Zn33 O34 2.028 . S
Zn33 O36 2.028 . S
Zn33 O39 2.035 . S
O34 Zn33 2.028 . S
O34 C40 1.247 . S
O35 Zn31 2.035 . S
O35 C40 1.258 . S
O36 C29 1.247 . S
O36 Zn33 2.028 . S
O37 C29 1.258 . S
O37 Zn31 2.035 . S
O38 Zn31 2.028 . S
O38 C41 1.247 . S
O39 Zn33 2.035 . S
O39 C41 1.258 . S
C40 O34 1.247 . S
C40 O35 1.258 . S
C41 O38 1.247 . S
C41 O39 1.258 . S
C42 O44 1.247 . S
C42 O46 1.258 . S
C43 O50 1.247 1_554 S
C43 O51 1.258 . S
O44 C42 1.247 . S
O44 Zn45 2.028 . S
Zn45 O44 2.028 . S
Zn45 O49 2.035 . S
Zn45 O51 2.035 . S
Zn45 O52 2.028 . S
O46 C42 1.258 . S
O46 Zn47 2.035 . S
Zn47 O46 2.035 . S
Zn47 O48 2.028 . S
Zn47 O50 2.028 1_554 S
Zn47 O53 2.035 . S
O48 Zn47 2.028 . S
O48 C54 1.247 . S
O49 Zn45 2.035 . S
O49 C54 1.258 . S
O50 C43 1.247 1_556 S
O50 Zn47 2.028 1_556 S
O51 C43 1.258 . S
O51 Zn45 2.035 . S
O52 Zn45 2.028 . S
O52 C55 1.247 . S
O53 Zn47 2.035 . S
O53 C55 1.258 . S
C54 O48 1.247 . S
C54 O49 1.258 . S
C55 O52 1.247 . S
C55 O53 1.258 . S
C56 O58 1.247 . S
C56 O60 1.258 . S
C57 O64 1.247 1_455 S
C57 O65 1.258 . S
O58 C56 1.247 . S
O58 Zn59 2.028 . S
Zn59 O58 2.028 . S
Zn59 O63 2.035 . S
Zn59 O65 2.035 . S
Zn59 O66 2.028 . S
O60 C56 1.258 . S
O60 Zn61 2.035 . S
Zn61 O60 2.035 . S
Zn61 O62 2.028 . S
Zn61 O64 2.028 1_455 S
Zn61 O67 2.035 . S
O62 Zn61 2.028 . S
O62 C68 1.247 . S
O63 Zn59 2.035 . S
O63 C68 1.258 . S
O64 C57 1.247 1_655 S
O64 Zn61 2.028 1_655 S
O65 C57 1.258 . S
O65 Zn59 2.035 . S
O66 Zn59 2.028 . S
O66 C69 1.247 . S
O67 Zn61 2.035 . S
O67 C69 1.258 . S
C68 O62 1.247 . S
C68 O63 1.258 . S
C69 O66 1.247 . S
C69 O67 1.258 . S
C70 O72 1.247 . S
C70 O74 1.258 . S
C71 O78 1.247 . S
C71 O79 1.258 . S
O72 C70 1.247 . S
O72 Zn73 2.028 . S
Zn73 O72 2.028 . S
Zn73 O77 2.035 . S
Zn73 O79 2.035 . S
Zn73 O80 2.028 . S
O74 C70 1.258 . S
O74 Zn75 2.035 . S
Zn75 O74 2.035 . S
Zn75 O76 2.028 . S
Zn75 O78 2.028 . S
Zn75 O81 2.035 . S
O76 Zn75 2.028 . S
O76 C82 1.247 . S
O77 Zn73 2.035 . S
O77 C82 1.258 . S
O78 C71 1.247 . S
O78 Zn75 2.028 . S
O79 C71 1.258 . S
O79 Zn73 2.035 . S
O80 Zn73 2.028 . S
O80 C83 1.247 . S
O81 Zn75 2.035 . S
O81 C83 1.258 . S
C82 O76 1.247 . S
C82 O77 1.258 . S
C83 O80 1.247 . S
C83 O81 1.258 . S
C84 O86 1.247 . S
C84 O88 1.258 . S
C85 O92 1.247 . S
C85 O93 1.258 . S
O86 C84 1.247 . S
O86 Zn87 2.028 . S
Zn87 O86 2.028 . S
Zn87 O91 2.035 . S
Zn87 O93 2.035 . S
Zn87 O94 2.028 . S
O88 C84 1.258 . S
O88 Zn89 2.035 . S
Zn89 O88 2.035 . S
Zn89 O90 2.028 . S
Zn89 O92 2.028 . S
Zn89 O95 2.035 . S
O90 Zn89 2.028 . S
O90 C96 1.247 . S
O91 Zn87 2.035 . S
O91 C96 1.258 . S
O92 C85 1.247 . S
O92 Zn89 2.028 . S
O93 C85 1.258 . S
O93 Zn87 2.035 . S
O94 Zn87 2.028 . S
O94 C97 1.247 . S
O95 Zn89 2.035 . S
O95 C97 1.258 . S
C96 O90 1.247 . S
C96 O91 1.258 . S
C97 O94 1.247 . S
C97 O95 1.258 . S
C98 O100 1.247 . S
C98 O102 1.258 1_556 S
C99 O106 1.247 . S
C99 O107 1.258 . S
O100 C98 1.247 . S
O100 Zn101 2.028 . S
Zn101 O100 2.028 . S
Zn101 O105 2.035 . S
Zn101 O107 2.035 . S
Zn101 O108 2.028 . S
O102 C98 1.258 1_554 S
O102 Zn103 2.035 1_554 S
Zn103 O102 2.035 1_556 S
Zn103 O104 2.028 . S
Zn103 O106 2.028 . S
Zn103 O109 2.035 . S
O104 Zn103 2.028 . S
O104 C110 1.247 . S
O105 Zn101 2.035 . S
O105 C110 1.258 . S
O106 C99 1.247 . S
O106 Zn103 2.028 . S
O107 C99 1.258 . S
O107 Zn101 2.035 . S
O108 Zn101 2.028 . S
O108 C111 1.247 . S
O109 Zn103 2.035 . S
O109 C111 1.258 . S
C110 O104 1.247 . S
C110 O105 1.258 . S
C111 O108 1.247 . S
C111 O109 1.258 . S
C112 O114 1.247 . S
C112 O116 1.258 . S
C113 O120 1.247 . S
C113 O121 1.258 . S
O114 C112 1.247 . S
O114 Zn115 2.028 . S
Zn115 O114 2.028 . S
Zn115 O119 2.035 . S
Zn115 O121 2.035 . S
Zn115 O122 2.028 1_545 S
O116 C112 1.258 . S
O116 Zn117 2.035 . S
Zn117 O116 2.035 . S
Zn117 O118 2.028 . S
Zn117 O120 2.028 . S
Zn117 O123 2.035 . S
O118 Zn117 2.028 . S
O118 C124 1.247 . S
O119 Zn115 2.035 . S
O119 C124 1.258 . S
O120 C113 1.247 . S
O120 Zn117 2.028 . S
O121 C113 1.258 . S
O121 Zn115 2.035 . S
O122 Zn115 2.028 1_565 S
O122 C125 1.247 1_565 S
O123 Zn117 2.035 . S
O123 C125 1.258 . S
C124 O118 1.247 . S
C124 O119 1.258 . S
C125 O122 1.247 1_545 S
C125 O123 1.258 . S
C126 O128 1.247 . S
C126 O130 1.258 . S
C127 O134 1.247 1_545 S
C127 O135 1.258 . S
O128 C126 1.247 . S
O128 Zn129 2.028 . S
Zn129 O128 2.028 . S
Zn129 O133 2.035 . S
Zn129 O135 2.035 . S
Zn129 O136 2.028 . S
O130 C126 1.258 . S
O130 Zn131 2.035 . S
Zn131 O130 2.035 . S
Zn131 O132 2.028 . S
Zn131 O134 2.028 1_545 S
Zn131 O137 2.035 . S
O132 Zn131 2.028 . S
O132 C138 1.247 . S
O133 Zn129 2.035 . S
O133 C138 1.258 . S
O134 C127 1.247 1_565 S
O134 Zn131 2.028 1_565 S
O135 C127 1.258 . S
O135 Zn129 2.035 . S
O136 Zn129 2.028 . S
O136 C139 1.247 . S
O137 Zn131 2.035 . S
O137 C139 1.258 . S
C138 O132 1.247 . S
C138 O133 1.258 . S
C139 O136 1.247 . S
C139 O137 1.258 . S
C140 O142 1.247 . S
C140 O144 1.258 1_565 S
C141 O148 1.247 . S
C141 O149 1.258 . S
O142 C140 1.247 . S
O142 Zn143 2.028 . S
Zn143 O142 2.028 . S
Zn143 O147 2.035 . S
Zn143 O149 2.035 . S
Zn143 O150 2.028 . S
O144 C140 1.258 1_545 S
O144 Zn145 2.035 1_545 S
Zn145 O144 2.035 1_565 S
Zn145 O146 2.028 . S
Zn145 O148 2.028 . S
Zn145 O151 2.035 . S
O146 Zn145 2.028 . S
O146 C152 1.247 . S
O147 Zn143 2.035 . S
O147 C152 1.258 . S
O148 C141 1.247 . S
O148 Zn145 2.028 . S
O149 C141 1.258 . S
O149 Zn143 2.035 . S
O150 Zn143 2.028 . S
O150 C153 1.247 . S
O151 Zn145 2.035 . S
O151 C153 1.258 . S
C152 O146 1.247 . S
C152 O147 1.258 . S
C153 O150 1.247 . S
C153 O151 1.258 . S
C154 O156 1.247 . S
C154 O158 1.258 1_565 S
C155 O162 1.247 . S
C155 O163 1.258 . S
O156 C154 1.247 . S
O156 Zn157 2.028 . S
Zn157 O156 2.028 . S
Zn157 O161 2.035 . S
Zn157 O163 2.035 . S
Zn157 O164 2.028 . S
O158 C154 1.258 1_545 S
O158 Zn159 2.035 1_545 S
Zn159 O158 2.035 1_565 S
Zn159 O160 2.028 . S
Zn159 O162 2.028 . S
Zn159 O165 2.035 . S
O160 Zn159 2.028 . S
O160 C166 1.247 . S
O161 Zn157 2.035 . S
O161 C166 1.258 . S
O162 C155 1.247 . S
O162 Zn159 2.028 . S
O163 C155 1.258 . S
O163 Zn157 2.035 . S
O164 Zn157 2.028 . S
O164 C167 1.247 . S
O165 Zn159 2.035 . S
O165 C167 1.258 . S
C166 O160 1.247 . S
C166 O161 1.258 . S
C167 O164 1.247 . S
C167 O165 1.258 . S
C168 O170 1.247 . S
C168 O172 1.258 . S
C169 O176 1.247 . S
C169 O177 1.258 . S
O170 C168 1.247 . S
O170 Zn171 2.028 . S
Zn171 O170 2.028 . S
Zn171 O175 2.035 1_554 S
Zn171 O177 2.035 . S
Zn171 O178 2.028 . S
O172 C168 1.258 . S
O172 Zn173 2.035 . S
Zn173 O172 2.035 . S
Zn173 O174 2.028 . S
Zn173 O176 2.028 . S
Zn173 O179 2.035 . S
O174 Zn173 2.028 . S
O174 C180 1.247 . S
O175 Zn171 2.035 1_556 S
O175 C180 1.258 1_556 S
O176 C169 1.247 . S
O176 Zn173 2.028 . S
O177 C169 1.258 . S
O177 Zn171 2.035 . S
O178 Zn171 2.028 . S
O178 C181 1.247 . S
O179 Zn173 2.035 . S
O179 C181 1.258 . S
C180 O174 1.247 . S
C180 O175 1.258 1_554 S
C181 O178 1.247 . S
C181 O179 1.258 . S
C182 O184 1.247 . S
C182 O186 1.258 . S
C183 O190 1.247 . S
C183 O191 1.258 . S
O184 C182 1.247 . S
O184 Zn185 2.028 . S
Zn185 O184 2.028 . S
Zn185 O189 2.035 1_655 S
Zn185 O191 2.035 . S
Zn185 O192 2.028 . S
O186 C182 1.258 . S
O186 Zn187 2.035 . S
Zn187 O186 2.035 . S
Zn187 O188 2.028 . S
Zn187 O190 2.028 . S
Zn187 O193 2.035 . S
O188 Zn187 2.028 . S
O188 C194 1.247 . S
O189 Zn185 2.035 1_455 S
O189 C194 1.258 1_455 S
O190 C183 1.247 . S
O190 Zn187 2.028 . S
O191 C183 1.258 . S
O191 Zn185 2.035 . S
O192 Zn185 2.028 . S
O192 C195 1.247 . S
O193 Zn187 2.035 . S
O193 C195 1.258 . S
C194 O188 1.247 . S
C194 O189 1.258 1_655 S
C195 O192 1.247 . S
C195 O193 1.258 . S
C196 O198 1.247 . S
C196 O200 1.258 . S
C197 O204 1.247 . S
C197 O205 1.258 . S
O198 C196 1.247 . S
O198 Zn199 2.028 . S
Zn199 O198 2.028 . S
Zn199 O203 2.035 . S
Zn199 O205 2.035 . S
Zn199 O206 2.028 . S
O200 C196 1.258 . S
O200 Zn201 2.035 . S
Zn201 O200 2.035 . S
Zn201 O202 2.028 . S
Zn201 O204 2.028 . S
Zn201 O207 2.035 . S
O202 Zn201 2.028 . S
O202 C208 1.247 . S
O203 Zn199 2.035 . S
O203 C208 1.258 . S
O204 C197 1.247 . S
O204 Zn201 2.028 . S
O205 C197 1.258 . S
O205 Zn199 2.035 . S
O206 Zn199 2.028 . S
O206 C209 1.247 . S
O207 Zn201 2.035 . S
O207 C209 1.258 . S
C208 O202 1.247 . S
C208 O203 1.258 . S
C209 O206 1.247 . S
C209 O207 1.258 . S
C210 O212 1.247 . S
C210 O214 1.258 . S
C211 O218 1.247 . S
C211 O219 1.258 . S
O212 C210 1.247 . S
O212 Zn213 2.028 . S
Zn213 O212 2.028 . S
Zn213 O217 2.035 . S
Zn213 O219 2.035 . S
Zn213 O220 2.028 . S
O214 C210 1.258 . S
O214 Zn215 2.035 . S
Zn215 O214 2.035 . S
Zn215 O216 2.028 . S
Zn215 O218 2.028 . S
Zn215 O221 2.035 . S
O216 Zn215 2.028 . S
O216 C222 1.247 . S
O217 Zn213 2.035 . S
O217 C222 1.258 . S
O218 C211 1.247 . S
O218 Zn215 2.028 . S
O219 C211 1.258 . S
O219 Zn213 2.035 . S
O220 Zn213 2.028 . S
O220 C223 1.247 . S
O221 Zn215 2.035 . S
O221 C223 1.258 . S
C222 O216 1.247 . S
C222 O217 1.258 . S
C223 O220 1.247 . S
C223 O221 1.258 . S
C224 O226 1.247 . S
C224 O228 1.258 . S
C225 O232 1.247 . S
C225 O233 1.258 . S
O226 C224 1.247 . S
O226 Zn227 2.028 . S
Zn227 O226 2.028 . S
Zn227 O231 2.035 1_655 S
Zn227 O233 2.035 . S
Zn227 O234 2.028 . S
O228 C224 1.258 . S
O228 Zn229 2.035 . S
Zn229 O228 2.035 . S
Zn229 O230 2.028 . S
Zn229 O232 2.028 . S
Zn229 O235 2.035 . S
O230 Zn229 2.028 . S
O230 C236 1.247 . S
O231 Zn227 2.035 1_455 S
O231 C236 1.258 1_455 S
O232 C225 1.247 . S
O232 Zn229 2.028 . S
O233 C225 1.258 . S
O233 Zn227 2.035 . S
O234 Zn227 2.028 . S
O234 C237 1.247 . S
O235 Zn229 2.035 . S
O235 C237 1.258 . S
C236 O230 1.247 . S
C236 O231 1.258 1_655 S
C237 O234 1.247 . S
C237 O235 1.258 . S
C238 O240 1.247 . S
C238 O242 1.258 . S
C239 O246 1.247 . S
C239 O247 1.258 . S
O240 C238 1.247 . S
O240 Zn241 2.028 . S
Zn241 O240 2.028 . S
Zn241 O245 2.035 . S
Zn241 O247 2.035 . S
Zn241 O248 2.028 . S
O242 C238 1.258 . S
O242 Zn243 2.035 . S
Zn243 O242 2.035 . S
Zn243 O244 2.028 . S
Zn243 O246 2.028 . S
Zn243 O249 2.035 . S
O244 Zn243 2.028 . S
O244 C250 1.247 . S
O245 Zn241 2.035 . S
O245 C250 1.258 . S
O246 C239 1.247 . S
O246 Zn243 2.028 . S
O247 C239 1.258 . S
O247 Zn241 2.035 . S
O248 Zn241 2.028 . S
O248 C251 1.247 . S
O249 Zn243 2.035 . S
O249 C251 1.258 . S
C250 O244 1.247 . S
C250 O245 1.258 . S
C251 O248 1.247 . S
C251 O249 1.258 . S
C252 O254 1.247 . S
C252 O256 1.258 1_556 S
C253 O260 1.247 . S
C253 O261 1.258 . S
O254 C252 1.247 . S
O254 Zn255 2.028 . S
Zn255 O254 2.028 . S
Zn255 O259 2.035 . S
Zn255 O261 2.035 . S
Zn255 O262 2.028 . S
O256 C252 1.258 1_554 S
O256 Zn257 2.035 1_554 S
Zn257 O256 2.035 1_556 S
Zn257 O258 2.028 . S
Zn257 O260 2.028 . S
Zn257 O263 2.035 . S
O258 Zn257 2.028 . S
O258 C264 1.247 . S
O259 Zn255 2.035 . S
O259 C264 1.258 . S
O260 C253 1.247 . S
O260 Zn257 2.028 . S
O261 C253 1.258 . S
O261 Zn255 2.035 . S
O262 Zn255 2.028 . S
O262 C265 1.247 . S
O263 Zn257 2.035 . S
O263 C265 1.258 . S
C264 O258 1.247 . S
C264 O259 1.258 . S
C265 O262 1.247 . S
C265 O263 1.258 . S
C266 O268 1.247 . S
C266 O270 1.258 . S
C267 O274 1.247 . S
C267 O275 1.258 . S
O268 C266 1.247 . S
O268 Zn269 2.028 . S
Zn269 O268 2.028 . S
Zn269 O273 2.035 . S
Zn269 O275 2.035 . S
Zn269 O276 2.028 . S
O270 C266 1.258 . S
O270 Zn271 2.035 . S
Zn271 O270 2.035 . S
Zn271 O272 2.028 . S
Zn271 O274 2.028 . S
Zn271 O277 2.035 . S
O272 Zn271 2.028 . S
O272 C278 1.247 . S
O273 Zn269 2.035 . S
O273 C278 1.258 . S
O274 C267 1.247 . S
O274 Zn271 2.028 . S
O275 C267 1.258 . S
O275 Zn269 2.035 . S
O276 Zn269 2.028 . S
O276 C279 1.247 . S
O277 Zn271 2.035 . S
O277 C279 1.258 . S
C278 O272 1.247 . S
C278 O273 1.258 . S
C279 O276 1.247 . S
C279 O277 1.258 . S
C280 O282 1.247 . S
C280 O284 1.258 . S
C281 O288 1.247 . S
C281 O289 1.258 . S
O282 C280 1.247 . S
O282 Zn283 2.028 . S
Zn283 O282 2.028 . S
Zn283 O287 2.035 . S
Zn283 O289 2.035 . S
Zn283 O290 2.028 . S
O284 C280 1.258 . S
O284 Zn285 2.035 . S
Zn285 O284 2.035 . S
Zn285 O286 2.028 . S
Zn285 O288 2.028 . S
Zn285 O291 2.035 . S
O286 Zn285 2.028 . S
O286 C292 1.247 . S
O287 Zn283 2.035 . S
O287 C292 1.258 . S
O288 C281 1.247 . S
O288 Zn285 2.028 . S
O289 C281 1.258 . S
O289 Zn283 2.035 . S
O290 Zn283 2.028 . S
O290 C293 1.247 . S
O291 Zn285 2.035 . S
O291 C293 1.258 . S
C292 O286 1.247 . S
C292 O287 1.258 . S
C293 O290 1.247 . S
C293 O291 1.258 . S
C294 O296 1.247 . S
C294 O298 1.258 . S
C295 O302 1.247 . S
C295 O303 1.258 . S
O296 C294 1.247 . S
O296 Zn297 2.028 . S
Zn297 O296 2.028 . S
Zn297 O301 2.035 . S
Zn297 O303 2.035 . S
Zn297 O304 2.028 . S
O298 C294 1.258 . S
O298 Zn299 2.035 . S
Zn299 O298 2.035 . S
Zn299 O300 2.028 . S
Zn299 O302 2.028 . S
Zn299 O305 2.035 . S
O300 Zn299 2.028 . S
O300 C306 1.247 . S
O301 Zn297 2.035 . S
O301 C306 1.258 . S
O302 C295 1.247 . S
O302 Zn299 2.028 . S
O303 C295 1.258 . S
O303 Zn297 2.035 . S
O304 Zn297 2.028 . S
O304 C307 1.247 . S
O305 Zn299 2.035 . S
O305 C307 1.258 . S
C306 O300 1.247 . S
C306 O301 1.258 . S
C307 O304 1.247 . S
C307 O305 1.258 . S
C308 O310 1.247 . S
C308 O312 1.258 . S
C309 O316 1.247 . S
C309 O317 1.258 . S
O310 C308 1.247 . S
O310 Zn311 2.028 . S
Zn311 O310 2.028 . S
Zn311 O315 2.035 . S
Zn311 O317 2.035 . S
Zn311 O318 2.028 . S
O312 C308 1.258 . S
O312 Zn313 2.035 . S
Zn313 O312 2.035 . S
Zn313 O314 2.028 . S
Zn313 O316 2.028 . S
Zn313 O319 2.035 . S
O314 Zn313 2.028 . S
O314 C320 1.247 . S
O315 Zn311 2.035 . S
O315 C320 1.258 . S
O316 C309 1.247 . S
O316 Zn313 2.028 . S
O317 C309 1.258 . S
O317 Zn311 2.035 . S
O318 Zn311 2.028 . S
O318 C321 1.247 . S
O319 Zn313 2.035 . S
O319 C321 1.258 . S
C320 O314 1.247 . S
C320 O315 1.258 . S
C321 O318 1.247 . S
C321 O319 1.258 . S
C322 O324 1.247 . S
C322 O326 1.258 . S
C323 O330 1.247 . S
C323 O331 1.258 . S
O324 C322 1.247 . S
O324 Zn325 2.028 . S
Zn325 O324 2.028 . S
Zn325 O329 2.035 . S
Zn325 O331 2.035 . S
Zn325 O332 2.028 . S
O326 C322 1.258 . S
O326 Zn327 2.035 . S
Zn327 O326 2.035 . S
Zn327 O328 2.028 . S
Zn327 O330 2.028 . S
Zn327 O333 2.035 . S
O328 Zn327 2.028 . S
O328 C334 1.247 . S
O329 Zn325 2.035 . S
O329 C334 1.258 . S
O330 C323 1.247 . S
O330 Zn327 2.028 . S
O331 C323 1.258 . S
O331 Zn325 2.035 . S
O332 Zn325 2.028 . S
O332 C335 1.247 . S
O333 Zn327 2.035 . S
O333 C335 1.258 . S
C334 O328 1.247 . S
C334 O329 1.258 . S
C335 O332 1.247 . S
C335 O333 1.258 . S
C0 C126 1.652 . S
C27 C153 1.658 1_655 S
C155 C28 1.655 1_554 S
C112 C42 1.652 . S
C141 C68 1.655 1_556 S
C70 C167 1.655 . S
C96 C124 1.652 . S
C138 C99 1.655 1_455 S
C56 C169 1.655 . S
C111 C222 1.655 1_545 S
C237 C82 1.655 1_545 S
C54 C195 1.655 1_545 S
C208 C84 1.652 . S
C12 C279 1.655 . S
C40 C265 1.655 . S
C210 C294 1.652 1_556 S
C320 C181 1.655 . S
C334 C225 1.655 . S
C292 C196 1.652 1_655 S
C308 C250 1.652 . S
C253 C322 1.655 1_455 S
C280 C183 1.655 1_556 S
C267 C306 1.655 . S
C15 C238 1.655 1_565 S
C69 C1 1.297 . S
C26 C71 1.293 . S
C29 C97 1.297 . S
C98 C43 1.293 1_556 S
C113 C139 1.297 . S
C127 C140 1.293 1_545 S
C166 C152 1.288 1_554 S
C125 C154 1.293 1_545 S
C55 C168 1.293 . S
C110 C264 1.288 1_655 S
C57 C194 1.293 1_455 S
C278 C83 1.293 . S
C209 C14 1.293 1_455 S
C13 C236 1.293 1_455 S
C41 C223 1.297 . S
C211 C251 1.297 1_565 S
C252 C180 1.288 1_556 S
C224 C182 1.288 1_545 S
C197 C266 1.293 . S
C307 C293 1.297 1_554 S
C309 C295 1.297 . S
C323 C321 1.297 . S
C281 C335 1.297 . S
C239 C85 1.297 . S
