# Generated by pormake.
# Topology wmi, (6)-cn, num edge types: 1
# Building blocks:
#     Node 0, Type 0, BuildingBlock: GEDQOX_clean_sbu_0, # of connection points: 6
#     Node 1, Type 0, BuildingBlock: GEDQOX_clean_sbu_0, # of connection points: 6
#     Node 2, Type 0, BuildingBlock: GEDQOX_clean_sbu_0, # of connection points: 6
#     Node 3, Type 0, BuildingBlock: GEDQOX_clean_sbu_0, # of connection points: 6
#     Node 4, Type 0, BuildingBlock: GEDQOX_clean_sbu_0, # of connection points: 6
#     Node 5, Type 0, BuildingBlock: GEDQOX_clean_sbu_0, # of connection points: 6
#     Node 6, Type 0, BuildingBlock: GEDQOX_clean_sbu_0, # of connection points: 6
#     Node 7, Type 0, BuildingBlock: GEDQOX_clean_sbu_0, # of connection points: 6
#     Node 8, Type 0, BuildingBlock: GEDQOX_clean_sbu_0, # of connection points: 6
#     Node 9, Type 0, BuildingBlock: GEDQOX_clean_sbu_0, # of connection points: 6
#     Node 10, Type 0, BuildingBlock: GEDQOX_clean_sbu_0, # of connection points: 6
#     Node 11, Type 0, BuildingBlock: GEDQOX_clean_sbu_0, # of connection points: 6
#     Node 12, Type 0, BuildingBlock: GEDQOX_clean_sbu_0, # of connection points: 6
#     Node 13, Type 0, BuildingBlock: GEDQOX_clean_sbu_0, # of connection points: 6
#     Node 14, Type 0, BuildingBlock: GEDQOX_clean_sbu_0, # of connection points: 6
#     Node 15, Type 0, BuildingBlock: GEDQOX_clean_sbu_0, # of connection points: 6
#     Node 16, Type 0, BuildingBlock: GEDQOX_clean_sbu_0, # of connection points: 6
#     Node 17, Type 0, BuildingBlock: GEDQOX_clean_sbu_0, # of connection points: 6
#     Edge 18, Type (0, 0), BuildingBlock: ZUJKAS_clean_linker_0, # of connection points: 2
#     Edge 19, Type (0, 0), BuildingBlock: ZUJKAS_clean_linker_0, # of connection points: 2
#     Edge 20, Type (0, 0), BuildingBlock: ZUJKAS_clean_linker_0, # of connection points: 2
#     Edge 21, Type (0, 0), BuildingBlock: ZUJKAS_clean_linker_0, # of connection points: 2
#     Edge 22, Type (0, 0), BuildingBlock: ZUJKAS_clean_linker_0, # of connection points: 2
#     Edge 23, Type (0, 0), BuildingBlock: ZUJKAS_clean_linker_0, # of connection points: 2
#     Edge 24, Type (0, 0), BuildingBlock: ZUJKAS_clean_linker_0, # of connection points: 2
#     Edge 25, Type (0, 0), BuildingBlock: ZUJKAS_clean_linker_0, # of connection points: 2
#     Edge 26, Type (0, 0), BuildingBlock: ZUJKAS_clean_linker_0, # of connection points: 2
#     Edge 27, Type (0, 0), BuildingBlock: ZUJKAS_clean_linker_0, # of connection points: 2
#     Edge 28, Type (0, 0), BuildingBlock: ZUJKAS_clean_linker_0, # of connection points: 2
#     Edge 29, Type (0, 0), BuildingBlock: ZUJKAS_clean_linker_0, # of connection points: 2
#     Edge 30, Type (0, 0), BuildingBlock: ZUJKAS_clean_linker_0, # of connection points: 2
#     Edge 31, Type (0, 0), BuildingBlock: ZUJKAS_clean_linker_0, # of connection points: 2
#     Edge 32, Type (0, 0), BuildingBlock: ZUJKAS_clean_linker_0, # of connection points: 2
#     Edge 33, Type (0, 0), BuildingBlock: ZUJKAS_clean_linker_0, # of connection points: 2
#     Edge 34, Type (0, 0), BuildingBlock: ZUJKAS_clean_linker_0, # of connection points: 2
#     Edge 35, Type (0, 0), BuildingBlock: ZUJKAS_clean_linker_0, # of connection points: 2
#     Edge 36, Type (0, 0), BuildingBlock: ZUJKAS_clean_linker_0, # of connection points: 2
#     Edge 37, Type (0, 0), BuildingBlock: ZUJKAS_clean_linker_0, # of connection points: 2
#     Edge 38, Type (0, 0), BuildingBlock: ZUJKAS_clean_linker_0, # of connection points: 2
#     Edge 39, Type (0, 0), BuildingBlock: ZUJKAS_clean_linker_0, # of connection points: 2
#     Edge 40, Type (0, 0), BuildingBlock: ZUJKAS_clean_linker_0, # of connection points: 2
#     Edge 41, Type (0, 0), BuildingBlock: ZUJKAS_clean_linker_0, # of connection points: 2
#     Edge 42, Type (0, 0), BuildingBlock: ZUJKAS_clean_linker_0, # of connection points: 2
#     Edge 43, Type (0, 0), BuildingBlock: ZUJKAS_clean_linker_0, # of connection points: 2
#     Edge 44, Type (0, 0), BuildingBlock: ZUJKAS_clean_linker_0, # of connection points: 2
#     Edge 45, Type (0, 0), BuildingBlock: ZUJKAS_clean_linker_0, # of connection points: 2
#     Edge 46, Type (0, 0), BuildingBlock: ZUJKAS_clean_linker_0, # of connection points: 2
#     Edge 47, Type (0, 0), BuildingBlock: ZUJKAS_clean_linker_0, # of connection points: 2
#     Edge 48, Type (0, 0), BuildingBlock: ZUJKAS_clean_linker_0, # of connection points: 2
#     Edge 49, Type (0, 0), BuildingBlock: ZUJKAS_clean_linker_0, # of connection points: 2
#     Edge 50, Type (0, 0), BuildingBlock: ZUJKAS_clean_linker_0, # of connection points: 2
#     Edge 51, Type (0, 0), BuildingBlock: ZUJKAS_clean_linker_0, # of connection points: 2
#     Edge 52, Type (0, 0), BuildingBlock: ZUJKAS_clean_linker_0, # of connection points: 2
#     Edge 53, Type (0, 0), BuildingBlock: ZUJKAS_clean_linker_0, # of connection points: 2
#     Edge 54, Type (0, 0), BuildingBlock: ZUJKAS_clean_linker_0, # of connection points: 2
#     Edge 55, Type (0, 0), BuildingBlock: ZUJKAS_clean_linker_0, # of connection points: 2
#     Edge 56, Type (0, 0), BuildingBlock: ZUJKAS_clean_linker_0, # of connection points: 2
#     Edge 57, Type (0, 0), BuildingBlock: ZUJKAS_clean_linker_0, # of connection points: 2
#     Edge 58, Type (0, 0), BuildingBlock: ZUJKAS_clean_linker_0, # of connection points: 2
#     Edge 59, Type (0, 0), BuildingBlock: ZUJKAS_clean_linker_0, # of connection points: 2
#     Edge 60, Type (0, 0), BuildingBlock: ZUJKAS_clean_linker_0, # of connection points: 2
#     Edge 61, Type (0, 0), BuildingBlock: ZUJKAS_clean_linker_0, # of connection points: 2
#     Edge 62, Type (0, 0), BuildingBlock: ZUJKAS_clean_linker_0, # of connection points: 2
#     Edge 63, Type (0, 0), BuildingBlock: ZUJKAS_clean_linker_0, # of connection points: 2
#     Edge 64, Type (0, 0), BuildingBlock: ZUJKAS_clean_linker_0, # of connection points: 2
#     Edge 65, Type (0, 0), BuildingBlock: ZUJKAS_clean_linker_0, # of connection points: 2
#     Edge 66, Type (0, 0), BuildingBlock: ZUJKAS_clean_linker_0, # of connection points: 2
#     Edge 67, Type (0, 0), BuildingBlock: ZUJKAS_clean_linker_0, # of connection points: 2
#     Edge 68, Type (0, 0), BuildingBlock: ZUJKAS_clean_linker_0, # of connection points: 2
#     Edge 69, Type (0, 0), BuildingBlock: ZUJKAS_clean_linker_0, # of connection points: 2
#     Edge 70, Type (0, 0), BuildingBlock: ZUJKAS_clean_linker_0, # of connection points: 2
#     Edge 71, Type (0, 0), BuildingBlock: ZUJKAS_clean_linker_0, # of connection points: 2
# Relax obj value: 0.090
# Max RMSD: 0.203
# Mean RMSD: 0.203
data_MOF--net-wmi--node1-GEDQOX_clean_sbu_0--edge1-ZUJKAS_clean_linker_0
_symmetry_space_group_name_H-M    P1
_symmetry_Int_Tables_number       1
_symmetry_cell_setting            triclinic
loop_
_symmetry_equiv_pos_as_xyz
'x, y, z'
_cell_length_a     49.254393
_cell_length_b     49.179257
_cell_length_c     104.80203
_cell_angle_alpha  89.913796
_cell_angle_beta   90.087523
_cell_angle_gamma 120.00161
loop_
_atom_site_label
_atom_site_type_symbol
_atom_site_fract_x
_atom_site_fract_y
_atom_site_fract_z
_atom_type_partial_charge
Nd0 Nd 0.48246 0.05801 0.10136 0.0
Nd1 Nd 0.50712 1.01175 0.11083 0.0
C2 C 0.47549 0.10296 0.09055 0.0
C3 C 0.48618 0.13646 0.09314 0.0
C4 C 0.49423 0.1577 0.08297 0.0
C5 C 0.50397 0.18938 0.08525 0.0
C6 C 0.50574 0.2005 0.09778 0.0
C7 C 0.49791 0.17915 0.10796 0.0
C8 C 0.48839 0.14754 0.10568 0.0
C9 C 0.4652 0.03561 0.1257 0.0
C10 C 0.55625 0.08792 0.11108 0.0
C11 C 0.52179 0.97385 0.12317 0.0
C12 C 0.52868 0.94868 0.11984 0.0
C13 C 0.51096 0.92573 0.11066 0.0
C14 C 0.51858 0.90271 0.1074 0.0
C15 C 0.54425 0.90231 0.11315 0.0
C16 C 0.56192 0.92538 0.12231 0.0
C17 C 0.55417 0.94824 0.12563 0.0
C18 C 0.50926 1.01693 0.08432 0.0
C19 C 0.43506 0.98333 0.10106 0.0
O20 O 0.49694 0.09626 0.08701 0.0
O21 O 0.45531 0.08237 0.09856 0.0
O22 O 0.44959 0.04403 0.11829 0.0
O23 O 0.49163 0.04282 0.12079 0.0
O24 O 0.53393 0.09268 0.1065 0.0
O25 O 0.55125 0.05969 0.11417 0.0
O26 O 0.49287 0.9679 0.12172 0.0
O27 O 0.54262 1.00223 0.11953 0.0
O28 O 0.51757 0.99941 0.09049 0.0
O29 O 0.50068 0.02992 0.09232 0.0
O30 O 0.45378 0.98146 0.10966 0.0
O31 O 0.44366 1.00927 0.09426 0.0
H32 H 0.49277 0.14973 0.07323 0.0
H33 H 0.50953 0.20504 0.07717 0.0
H34 H 0.49943 0.18695 0.11773 0.0
H35 H 0.48267 0.13175 0.11372 0.0
H36 H 0.49139 0.92572 0.10592 0.0
H37 H 0.50469 0.88554 0.1002 0.0
H38 H 0.58159 0.92559 0.12704 0.0
H39 H 0.56823 0.96576 0.1327 0.0
Nd40 Nd 1.02243 0.45467 0.10346 0.0
Nd41 Nd 0.06381 0.52724 0.11041 0.0
C42 C 0.97899 0.39721 0.0966 0.0
C43 C 0.94439 0.37744 0.09643 0.0
C44 C 0.92988 0.35262 0.08771 0.0
C45 C 0.89763 0.33122 0.08848 0.0
C46 C 0.87912 0.33398 0.09809 0.0
C47 C 0.89367 0.35967 0.10653 0.0
C48 C 0.92587 0.38118 0.10568 0.0
C49 C 0.05323 0.46764 0.12633 0.0
C50 C 0.98799 0.49573 0.11173 0.0
C51 C 0.1012 0.58203 0.12133 0.0
C52 C 0.126 0.61378 0.11743 0.0
C53 C 0.15232 0.63065 0.12525 0.0
C54 C 0.17538 0.66127 0.12202 0.0
C55 C 0.17257 0.67582 0.1109 0.0
C56 C 0.14636 0.65854 0.10295 0.0
C57 C 0.12339 0.62785 0.10616 0.0
C58 C 0.05278 0.5201 0.08426 0.0
C59 C 0.09738 0.48831 0.09939 0.0
O60 O 0.99222 0.42056 0.08846 0.0
O61 O 0.99193 0.40448 0.1079 0.0
O62 O 0.04926 0.44521 0.11873 0.0
O63 O 0.03975 0.48226 0.12216 0.0
O64 O 0.98535 0.46973 0.10682 0.0
O65 O 1.01527 0.51958 0.11526 0.0
O66 O 0.10794 0.55944 0.12072 0.0
O67 O 0.07262 0.57322 0.11754 0.0
O68 O 0.06895 0.54717 0.08977 0.0
O69 O 0.04338 0.49925 0.0927 0.0
O70 O 0.0995 0.51125 0.1067 0.0
O71 O 0.0701 0.46527 0.09509 0.0
H72 H 0.94366 0.34928 0.08049 0.0
H73 H 0.8873 0.31226 0.08162 0.0
H74 H 0.88048 0.36259 0.11412 0.0
H75 H 0.9365 0.40014 0.11255 0.0
H76 H 0.15493 0.62022 0.13395 0.0
H77 H 0.19548 0.67351 0.12826 0.0
H78 H 0.14316 0.66895 0.09438 0.0
H79 H 0.10336 0.6153 0.09991 0.0
Nd80 Nd 0.62367 0.59822 0.10439 0.0
Nd81 Nd 0.55168 0.5685 0.11242 0.0
C82 C 0.68078 0.61135 0.09747 0.0
C83 C 0.70018 0.59626 0.09623 0.0
C84 C 0.73031 0.61339 0.09099 0.0
C85 C 0.75119 0.60188 0.09163 0.0
C86 C 0.74242 0.57291 0.09756 0.0
C87 C 0.71164 0.55514 0.10232 0.0
C88 C 0.69079 0.56677 0.10172 0.0
C89 C 0.61278 0.61843 0.12713 0.0
C90 C 0.58188 0.52312 0.11309 0.0
C91 C 0.49806 0.55216 0.12409 0.0
C92 C 0.46633 0.54586 0.1206 0.0
C93 C 0.44923 0.55316 0.12925 0.0
C94 C 0.4187 0.5463 0.12632 0.0
C95 C 0.40454 0.53184 0.11468 0.0
C96 C 0.42191 0.52483 0.10597 0.0
C97 C 0.45253 0.53187 0.10888 0.0
C98 C 0.55673 0.56262 0.08626 0.0
C99 C 0.59028 0.63999 0.10018 0.0
O100 O 0.65811 0.60417 0.08921 0.0
O101 O 0.67288 0.61378 0.10914 0.0
O102 O 0.63464 0.63598 0.11914 0.0
O103 O 0.59767 0.59 0.1234 0.0
O104 O 0.60681 0.54548 0.10718 0.0
O105 O 0.55962 0.52785 0.11766 0.0
O106 O 0.52096 0.58133 0.12332 0.0
O107 O 0.50599 0.53193 0.11998 0.0
O108 O 0.53022 0.55312 0.09203 0.0
O109 O 0.57807 0.57402 0.09446 0.0
O110 O 0.5678 0.61997 0.10789 0.0
O111 O 0.61293 0.63518 0.09583 0.0
H112 H 0.73814 0.63629 0.0868 0.0
H113 H 0.77446 0.61599 0.08767 0.0
H114 H 0.70409 0.53288 0.10703 0.0
H115 H 0.6678 0.55332 0.10599 0.0
H116 H 0.45939 0.56389 0.13835 0.0
H117 H 0.40592 0.55173 0.1333 0.0
H118 H 0.41193 0.5141 0.09686 0.0
H119 H 0.46532 0.52618 0.10201 0.0
Nd120 Nd 0.0635 0.46781 0.92961 0.0
Nd121 Nd 1.022 0.49811 0.92118 0.0
C122 C 0.10661 0.45464 0.93782 0.0
C123 C 0.14112 0.46899 0.93772 0.0
C124 C 0.15575 0.45926 0.94664 0.0
C125 C 0.18789 0.46977 0.94575 0.0
C126 C 0.20615 0.49013 0.93585 0.0
C127 C 0.19149 0.50069 0.92718 0.0
C128 C 0.15937 0.49028 0.92812 0.0
C129 C 0.03296 0.44747 0.90676 0.0
C130 C 0.09795 0.54185 0.91934 0.0
C131 C 0.98491 0.51444 0.90927 0.0
C132 C 0.96044 0.52219 0.91272 0.0
C133 C 0.93294 0.51011 0.90542 0.0
C134 C 0.90985 0.51781 0.90834 0.0
C135 C 0.9139 0.53795 0.9186 0.0
C136 C 0.94143 0.54988 0.92595 0.0
C137 C 0.96439 0.54198 0.92309 0.0
C138 C 0.03291 0.50474 0.94734 0.0
C139 C 0.98853 0.42706 0.93369 0.0
O140 O 0.09438 0.46731 0.94514 0.0
O141 O 0.09289 0.44618 0.92669 0.0
O142 O 0.03741 0.43005 0.91481 0.0
O143 O 0.04619 0.47595 0.91045 0.0
O144 O 0.10067 0.51912 0.92488 0.0
O145 O 0.0706 0.53818 0.91578 0.0
O146 O 0.97786 0.48513 0.91066 0.0
O147 O 1.01366 0.53453 0.91278 0.0
O148 O 1.01678 0.51506 0.94138 0.0
O149 O 0.04236 0.49257 0.93929 0.0
O150 O 0.98644 0.44671 0.92562 0.0
O151 O 1.01577 0.4321 0.93838 0.0
H152 H 0.14214 0.44287 0.95413 0.0
H153 H 0.19836 0.46163 0.95278 0.0
H154 H 0.20454 0.51611 0.91936 0.0
H155 H 0.14859 0.4981 0.9211 0.0
H156 H 0.9294 0.49486 0.89737 0.0
H157 H 0.88907 0.50843 0.90242 0.0
H158 H 0.94508 0.56509 0.93402 0.0
H159 H 0.98526 0.55146 0.92896 0.0
Nd160 Nd 0.60282 0.60887 0.92953 0.0
Nd161 Nd 0.5745 0.53592 0.92349 0.0
C162 C 0.62407 0.66696 0.93784 0.0
C163 C 0.6147 0.69095 0.9359 0.0
C164 C 0.58533 0.68279 0.93065 0.0
C165 C 0.57651 0.7056 0.92892 0.0
C166 C 0.59691 0.73714 0.93234 0.0
C167 C 0.6264 0.74516 0.93753 0.0
C168 C 0.63516 0.7223 0.9393 0.0
C169 C 0.6016 0.59363 0.90391 0.0
C170 C 0.52882 0.56643 0.92313 0.0
C171 C 0.55551 0.48082 0.91239 0.0
C172 C 0.54461 0.44795 0.91602 0.0
C173 C 0.54493 0.42731 0.90691 0.0
C174 C 0.5352 0.39614 0.91014 0.0
C175 C 0.5249 0.38488 0.92258 0.0
C176 C 0.52465 0.40577 0.93172 0.0
C177 C 0.53443 0.43702 0.92846 0.0
C178 C 0.57016 0.54412 0.94941 0.0
C179 C 0.64826 0.5773 0.93209 0.0
O180 O 0.60439 0.64192 0.94426 0.0
O181 O 0.63573 0.66026 0.92791 0.0
O182 O 0.5954 0.61479 0.90813 0.0
O183 O 0.60729 0.58115 0.91326 0.0
O184 O 0.55006 0.5904 0.92982 0.0
O185 O 0.53544 0.54638 0.91747 0.0
O186 O 0.58494 0.50108 0.91474 0.0
O187 O 0.5368 0.49183 0.91495 0.0
O188 O 0.561 0.51697 0.94421 0.0
O189 O 0.58071 0.56467 0.94082 0.0
O190 O 0.62578 0.55113 0.92694 0.0
O191 O 0.64469 0.60175 0.93482 0.0
H192 H 0.56922 0.65875 0.92788 0.0
H193 H 0.55382 0.69857 0.92474 0.0
H194 H 0.6426 0.76906 0.94043 0.0
H195 H 0.65791 0.7291 0.94338 0.0
H196 H 0.55292 0.43536 0.89728 0.0
H197 H 0.53632 0.38102 0.90291 0.0
H198 H 0.51663 0.39792 0.94135 0.0
H199 H 0.53408 0.45263 0.93566 0.0
Nd200 Nd 0.46458 1.0061 0.92876 0.0
Nd201 Nd 0.53593 0.05434 0.9209 0.0
C202 C 0.41188 0.96088 0.93894 0.0
C203 C 0.3894 0.92727 0.93662 0.0
C204 C 0.35831 0.91435 0.94077 0.0
C205 C 0.33648 0.88269 0.93851 0.0
C206 C 0.3453 0.86319 0.93207 0.0
C207 C 0.37659 0.87626 0.92795 0.0
C208 C 0.39838 0.90802 0.93016 0.0
C209 C 0.4722 0.02784 0.90419 0.0
C210 C 0.51203 0.97877 0.92096 0.0
C211 C 0.58908 0.09386 0.90937 0.0
C212 C 0.62105 0.1179 0.91328 0.0
C213 C 0.63803 0.14489 0.90579 0.0
C214 C 0.66843 0.16783 0.90931 0.0
C215 C 0.68252 0.16417 0.92038 0.0
C216 C 0.66538 0.13707 0.92788 0.0
C217 C 0.6349 0.11424 0.9244 0.0
C218 C 0.52999 0.04853 0.9473 0.0
C219 C 0.48919 0.08028 0.92905 0.0
O220 O 0.43983 0.96808 0.943 0.0
O221 O 0.41264 0.98059 0.93038 0.0
O222 O 0.44679 0.01821 0.91079 0.0
O223 O 0.49152 0.02203 0.90993 0.0
O224 O 0.48383 0.97271 0.92466 0.0
O225 O 0.53494 1.00752 0.91839 0.0
O226 O 0.56671 0.1003 0.9115 0.0
O227 O 0.5807 0.06463 0.91193 0.0
O228 O 0.55634 0.06661 0.9416 0.0
O229 O 0.50933 0.03514 0.93894 0.0
O230 O 0.51083 0.0828 0.92092 0.0
O231 O 0.47168 0.05402 0.93559 0.0
H232 H 0.35087 0.92879 0.94576 0.0
H233 H 0.31274 0.87339 0.94195 0.0
H234 H 0.38414 0.86208 0.92284 0.0
H235 H 0.42217 0.91757 0.92675 0.0
H236 H 0.6278 0.14818 0.89718 0.0
H237 H 0.68107 0.18825 0.90325 0.0
H238 H 0.67537 0.13372 0.93654 0.0
H239 H 0.62216 0.09373 0.9304 0.0
Nd240 Nd 0.14934 0.39009 0.43716 0.0
Nd241 Nd 0.17951 0.34775 0.44483 0.0
C242 C 0.13781 0.43389 0.42835 0.0
C243 C 0.15039 0.46799 0.43037 0.0
C244 C 0.15586 0.48783 0.41987 0.0
C245 C 0.16648 0.51987 0.42167 0.0
C246 C 0.17164 0.53272 0.43403 0.0
C247 C 0.16661 0.51285 0.44452 0.0
C248 C 0.15627 0.48092 0.44272 0.0
C249 C 0.13455 0.36413 0.46102 0.0
C250 C 0.22445 0.4241 0.44588 0.0
C251 C 0.19683 0.31123 0.45663 0.0
C252 C 0.20223 0.28525 0.45325 0.0
C253 C 0.20761 0.26877 0.4629 0.0
C254 C 0.21449 0.24518 0.45981 0.0
C255 C 0.21621 0.23766 0.44698 0.0
C256 C 0.21032 0.25402 0.43734 0.0
C257 C 0.20339 0.27758 0.44044 0.0
C258 C 0.18069 0.35537 0.41851 0.0
C259 C 0.10679 0.31475 0.43449 0.0
O260 O 0.15582 0.42554 0.42238 0.0
O261 O 0.12274 0.41534 0.43792 0.0
O262 O 0.11583 0.3689 0.45388 0.0
O263 O 0.16152 0.37514 0.45597 0.0
O264 O 0.20078 0.42723 0.44167 0.0
O265 O 0.22139 0.39651 0.44865 0.0
O266 O 0.16775 0.30529 0.45637 0.0
O267 O 0.21663 0.33864 0.45175 0.0
O268 O 0.19166 0.33944 0.42418 0.0
O269 O 0.1706 0.36623 0.42687 0.0
O270 O 0.12724 0.31295 0.44215 0.0
O271 O 0.11195 0.34171 0.42939 0.0
H272 H 0.15152 0.47845 0.41027 0.0
H273 H 0.16989 0.53442 0.41338 0.0
H274 H 0.17078 0.52204 0.45415 0.0
H275 H 0.1526 0.46631 0.45101 0.0
H276 H 0.20677 0.27434 0.47284 0.0
H277 H 0.2183 0.23273 0.4675 0.0
H278 H 0.21172 0.24911 0.42736 0.0
H279 H 0.19939 0.29012 0.43285 0.0
Nd280 Nd 0.68825 0.78943 0.43887 0.0
Nd281 Nd 0.72805 0.86257 0.44571 0.0
C282 C 0.64643 0.73142 0.43196 0.0
C283 C 0.61203 0.71016 0.43206 0.0
C284 C 0.59093 0.72035 0.42864 0.0
C285 C 0.55844 0.69992 0.42969 0.0
C286 C 0.5465 0.6691 0.43432 0.0
C287 C 0.56778 0.65901 0.43757 0.0
C288 C 0.60009 0.67927 0.43642 0.0
C289 C 0.71687 0.80388 0.46222 0.0
C290 C 0.65193 0.82894 0.44648 0.0
C291 C 0.76311 0.91721 0.45716 0.0
C292 C 0.78871 0.94892 0.45394 0.0
C293 C 0.80102 0.97208 0.46341 0.0
C294 C 0.82428 1.00275 0.46042 0.0
C295 C 0.83568 1.01092 0.44787 0.0
C296 C 0.82345 0.98742 0.43841 0.0
C297 C 0.80014 0.9567 0.44142 0.0
C298 C 0.71819 0.85449 0.41955 0.0
C299 C 0.76347 0.82485 0.43533 0.0
O300 O 0.6584 0.75515 0.42397 0.0
O301 O 0.65979 0.73872 0.44318 0.0
O302 O 0.71406 0.78119 0.45505 0.0
O303 O 0.70335 0.81773 0.45739 0.0
O304 O 0.6501 0.80323 0.44164 0.0
O305 O 0.67876 0.85318 0.45019 0.0
O306 O 0.76985 0.89458 0.45724 0.0
O307 O 0.73589 0.9089 0.45194 0.0
O308 O 0.73363 0.88185 0.42493 0.0
O309 O 0.70901 0.83397 0.4281 0.0
O310 O 0.76479 0.84763 0.44252 0.0
O311 O 0.7366 0.80147 0.43088 0.0
H312 H 0.59952 0.74417 0.42536 0.0
H313 H 0.5427 0.70848 0.42718 0.0
H314 H 0.55943 0.63534 0.44098 0.0
H315 H 0.61589 0.67091 0.43914 0.0
H316 H 0.79247 0.96649 0.47313 0.0
H317 H 0.83349 0.02003 0.468 0.0
H318 H 0.83146 0.99289 0.42863 0.0
H319 H 0.79077 0.93912 0.43396 0.0
Nd320 Nd 0.28873 0.93034 0.43637 0.0
Nd321 Nd 0.21688 0.90016 0.4444 0.0
C322 C 0.34586 0.94361 0.42953 0.0
C323 C 0.36491 0.92822 0.4283 0.0
C324 C 0.35539 0.8989 0.43397 0.0
C325 C 0.37594 0.88694 0.43452 0.0
C326 C 0.4065 0.90423 0.42952 0.0
C327 C 0.41534 0.93296 0.42337 0.0
C328 C 0.39476 0.94481 0.42279 0.0
C329 C 0.27785 0.9515 0.45889 0.0
C330 C 0.24792 0.8558 0.44581 0.0
C331 C 0.16336 0.88444 0.456 0.0
C332 C 0.13174 0.87834 0.45246 0.0
C333 C 0.11567 0.88804 0.46061 0.0
C334 C 0.08535 0.88171 0.45759 0.0
C335 C 0.07041 0.86539 0.44635 0.0
C336 C 0.0867 0.85589 0.43814 0.0
C337 C 0.1171 0.86242 0.44113 0.0
C338 C 0.2219 0.8927 0.41834 0.0
C339 C 0.25466 0.971 0.43144 0.0
O340 O 0.32331 0.93658 0.42124 0.0
O341 O 0.3379 0.94597 0.4412 0.0
O342 O 0.29945 0.96868 0.45074 0.0
O343 O 0.26294 0.92283 0.45542 0.0
O344 O 0.27234 0.87782 0.43953 0.0
O345 O 0.22575 0.8606 0.4504 0.0
O346 O 0.18639 0.91354 0.45515 0.0
O347 O 0.17112 0.86397 0.45205 0.0
O348 O 0.19528 0.88259 0.42411 0.0
O349 O 0.2432 0.90507 0.42652 0.0
O350 O 0.23213 0.95107 0.43914 0.0
O351 O 0.27768 0.96651 0.42736 0.0
H352 H 0.33258 0.88586 0.43843 0.0
H353 H 0.36839 0.86487 0.4394 0.0
H354 H 0.43846 0.94665 0.41922 0.0
H355 H 0.40263 0.96754 0.41843 0.0
H356 H 0.12648 0.9003 0.4694 0.0
H357 H 0.07338 0.88911 0.46418 0.0
H358 H 0.07605 0.84367 0.42934 0.0
H359 H 0.12908 0.85488 0.43461 0.0
Nd360 Nd 0.73264 0.80801 0.26564 0.0
Nd361 Nd 0.68524 0.83148 0.25645 0.0
C362 C 0.77819 0.80228 0.27651 0.0
C363 C 0.81179 0.8135 0.27394 0.0
C364 C 0.83343 0.82435 0.28404 0.0
C365 C 0.86518 0.83448 0.28183 0.0
C366 C 0.87599 0.83384 0.26946 0.0
C367 C 0.85426 0.82323 0.25934 0.0
C368 C 0.82258 0.81331 0.26154 0.0
C369 C 0.71031 0.79076 0.24132 0.0
C370 C 0.761 0.8819 0.25608 0.0
C371 C 0.64604 0.84448 0.24419 0.0
C372 C 0.62141 0.85204 0.24756 0.0
C373 C 0.59596 0.84329 0.23929 0.0
C374 C 0.57261 0.85062 0.24222 0.0
C375 C 0.57424 0.86694 0.2535 0.0
C376 C 0.59978 0.87556 0.26179 0.0
C377 C 0.62306 0.86809 0.25888 0.0
C378 C 0.69081 0.83333 0.28295 0.0
C379 C 0.65853 0.75917 0.2657 0.0
O380 O 0.77094 0.82339 0.28002 0.0
O381 O 0.75781 0.7817 0.26854 0.0
O382 O 0.71955 0.77558 0.24859 0.0
O383 O 0.71688 0.81698 0.2463 0.0
O384 O 0.7665 0.85967 0.26024 0.0
O385 O 0.73247 0.87656 0.25343 0.0
O386 O 0.63986 0.81576 0.2465 0.0
O387 O 0.67493 0.86562 0.24704 0.0
O388 O 0.67325 0.84179 0.27691 0.0
O389 O 0.70384 0.82513 0.27483 0.0
O390 O 0.65637 0.77789 0.25718 0.0
O391 O 0.68434 0.76818 0.2726 0.0
H392 H 0.82572 0.82475 0.29368 0.0
H393 H 0.88114 0.84223 0.28987 0.0
H394 H 0.8618 0.82283 0.24968 0.0
H395 H 0.80651 0.8054 0.25353 0.0
H396 H 0.59423 0.83093 0.23051 0.0
H397 H 0.55352 0.84393 0.23554 0.0
H398 H 0.60161 0.88778 0.27062 0.0
H399 H 0.64238 0.87491 0.26546 0.0
Nd400 Nd 0.27286 0.9499 0.26303 0.0
Nd401 Nd 0.24138 0.87773 0.25532 0.0
C402 C 0.28815 1.00802 0.26952 0.0
C403 C 0.27452 0.02876 0.27062 0.0
C404 C 0.242 1.01684 0.27051 0.0
C405 C 0.22984 0.03729 0.26992 0.0
C406 C 0.25002 0.07011 0.26939 0.0
C407 C 0.2826 0.08179 0.26978 0.0
C408 C 0.29464 0.06136 0.27037 0.0
C409 C 0.29275 0.9378 0.24046 0.0
C410 C 0.19786 0.90979 0.25412 0.0
C411 C 0.22401 0.82355 0.24384 0.0
C412 C 0.21812 0.79194 0.24733 0.0
C413 C 0.23427 0.78743 0.25742 0.0
C414 C 0.22763 0.75709 0.26077 0.0
C415 C 0.20452 0.73066 0.25416 0.0
C416 C 0.18842 0.7354 0.24408 0.0
C417 C 0.19518 0.7657 0.2407 0.0
C418 C 0.23509 0.88336 0.28141 0.0
C419 C 0.31274 0.91467 0.26769 0.0
O420 O 0.28008 0.98538 0.27791 0.0
O421 O 0.28995 0.99941 0.25791 0.0
O422 O 0.31053 0.95931 0.24853 0.0
O423 O 0.26419 0.92353 0.24405 0.0
O424 O 0.2205 0.93446 0.26008 0.0
O425 O 0.20196 0.88705 0.24964 0.0
O426 O 0.25314 0.84666 0.2442 0.0
O427 O 0.20409 0.83137 0.24836 0.0
O428 O 0.22449 0.85661 0.27567 0.0
O429 O 0.24757 0.90469 0.27322 0.0
O430 O 0.29216 0.89204 0.26019 0.0
O431 O 0.3089 0.93814 0.27179 0.0
H432 H 0.22609 0.99175 0.27062 0.0
H433 H 0.20465 0.02736 0.26979 0.0
H434 H 0.29895 0.10677 0.26917 0.0
H435 H 0.31982 0.07108 0.27024 0.0
H436 H 0.25185 0.80733 0.26277 0.0
H437 H 0.24024 0.7543 0.26866 0.0
H438 H 0.17079 0.71568 0.23868 0.0
H439 H 0.18238 0.76866 0.23292 0.0
Nd440 Nd 0.12962 0.34901 0.26236 0.0
Nd441 Nd 0.20227 0.38958 0.25579 0.0
C442 C 0.07113 0.30671 0.26843 0.0
C443 C 0.0488 0.27237 0.2681 0.0
C444 C 0.05423 0.25048 0.27459 0.0
C445 C 0.03224 0.21819 0.27393 0.0
C446 C 1.00441 0.20712 0.26676 0.0
C447 C 0.99941 0.22924 0.2602 0.0
C448 C 1.02117 0.26132 0.26093 0.0
C449 C 0.14396 0.38085 0.23968 0.0
C450 C 0.16969 0.31348 0.25436 0.0
C451 C 0.25711 0.42583 0.24469 0.0
C452 C 0.28893 0.45097 0.24811 0.0
C453 C 0.31373 0.45835 0.2397 0.0
C454 C 0.34434 0.48133 0.24287 0.0
C455 C 0.35086 0.49754 0.25455 0.0
C456 C 0.32581 0.49 0.263 0.0
C457 C 0.29512 0.46689 0.25981 0.0
C458 C 0.19429 0.37793 0.28187 0.0
C459 C 0.16452 0.42393 0.26723 0.0
O460 O 0.09412 0.31815 0.27677 0.0
O461 O 0.0795 0.32055 0.25732 0.0
O462 O 0.12187 0.37754 0.24731 0.0
O463 O 0.15773 0.36646 0.24378 0.0
O464 O 0.1438 0.31119 0.25919 0.0
O465 O 0.19375 0.34066 0.25086 0.0
O466 O 0.2346 0.43269 0.24502 0.0
O467 O 0.24861 0.39795 0.2493 0.0
O468 O 0.22153 0.394 0.2765 0.0
O469 O 0.17371 0.369 0.27335 0.0
O470 O 0.18754 0.42617 0.25995 0.0
O471 O 0.1411 0.3965 0.27124 0.0
H472 H 0.07536 0.25824 0.28018 0.0
H473 H 0.03686 0.20198 0.2792 0.0
H474 H 0.97876 0.22182 0.25435 0.0
H475 H 1.01642 0.27763 0.25579 0.0
H476 H 0.30947 0.44608 0.23068 0.0
H477 H 0.36299 0.48601 0.23622 0.0
H478 H 0.32985 0.50215 0.27202 0.0
H479 H 0.27626 0.46138 0.26647 0.0
Nd480 Nd 0.81473 0.72108 0.77149 0.0
Nd481 Nd 0.84606 0.6797 0.77804 0.0
C482 C 0.80002 0.76425 0.76488 0.0
C483 C 0.81301 0.79876 0.76549 0.0
C484 C 0.84099 0.8203 0.75932 0.0
C485 C 0.85237 0.85276 0.76024 0.0
C486 C 0.83607 0.86441 0.76737 0.0
C487 C 0.80822 0.84263 0.77357 0.0
C488 C 0.79681 0.81036 0.77257 0.0
C489 C 0.79849 0.69099 0.79454 0.0
C490 C 0.89036 0.75574 0.77944 0.0
C491 C 0.86408 0.64236 0.78859 0.0
C492 C 0.87082 0.61749 0.7845 0.0
C493 C 0.85859 0.58945 0.79149 0.0
C494 C 0.86548 0.56606 0.788 0.0
C495 C 0.88495 0.57028 0.77748 0.0
C496 C 0.89701 0.59834 0.77043 0.0
C497 C 0.88993 0.62162 0.77386 0.0
C498 C 0.84843 0.69025 0.75188 0.0
C499 C 0.77325 0.64604 0.76749 0.0
O500 O 0.81228 0.75285 0.75689 0.0
O501 O 0.79264 0.74959 0.77583 0.0
O502 O 0.77952 0.69468 0.78714 0.0
O503 O 0.82626 0.70431 0.79008 0.0
O504 O 0.86675 0.75845 0.77487 0.0
O505 O 0.8872 0.72836 0.78267 0.0
O506 O 0.83474 0.63557 0.7883 0.0
O507 O 0.8836 0.67103 0.78477 0.0
O508 O 0.85967 0.67424 0.75727 0.0
O509 O 0.83749 0.69983 0.76042 0.0
O510 O 0.79413 0.64393 0.77477 0.0
O511 O 0.77758 0.67335 0.76314 0.0
H512 H 0.85408 0.81213 0.7538 0.0
H513 H 0.87371 0.86867 0.75523 0.0
H514 H 0.79528 0.85046 0.77937 0.0
H515 H 0.77525 0.79434 0.77746 0.0
H516 H 0.84389 0.58574 0.79973 0.0
H517 H 0.85603 0.54489 0.79371 0.0
H518 H 0.91172 0.60218 0.76218 0.0
H519 H 0.89953 0.6429 0.76821 0.0
Nd520 Nd 0.35616 0.11985 0.77108 0.0
Nd521 Nd 0.39811 0.19172 0.77952 0.0
C522 C 0.31207 0.06273 0.76412 0.0
C523 C 0.2776 0.04353 0.76284 0.0
C524 C 0.26437 1.0134 0.75754 0.0
C525 C 0.23196 0.99268 0.75816 0.0
C526 C 0.212 1.00162 0.76411 0.0
C527 C 0.22524 0.03241 0.76892 0.0
C528 C 0.25773 0.05311 0.76834 0.0
C529 C 0.38767 0.12991 0.79371 0.0
C530 C 0.32268 0.16111 0.78014 0.0
C531 C 0.43538 0.245 0.79156 0.0
C532 C 0.46105 0.27672 0.78831 0.0
C533 C 0.47453 0.29955 0.79788 0.0
C534 C 0.49805 0.33014 0.79489 0.0
C535 C 0.50856 0.33859 0.78224 0.0
C536 C 0.49501 0.31547 0.77267 0.0
C537 C 0.47149 0.28482 0.77568 0.0
C538 C 0.3867 0.18728 0.75337 0.0
C539 C 0.43116 0.1539 0.76669 0.0
O540 O 0.32766 0.08542 0.75587 0.0
O541 O 0.32238 0.07059 0.7758 0.0
O542 O 0.38307 0.10837 0.7855 0.0
O543 O 0.37424 0.14519 0.79028 0.0
O544 O 0.32037 0.13668 0.7739 0.0
O545 O 0.34947 0.18305 0.78501 0.0
O546 O 0.44139 0.22194 0.79062 0.0
O547 O 0.40764 0.23761 0.78716 0.0
O548 O 0.40331 0.21379 0.75923 0.0
O549 O 0.37723 0.16582 0.76151 0.0
O550 O 0.43349 0.17598 0.77462 0.0
O551 O 0.40372 0.13137 0.76223 0.0
H552 H 0.27925 1.00543 0.75333 0.0
H553 H 0.2226 0.96939 0.75416 0.0
H554 H 0.21071 0.04008 0.77366 0.0
H555 H 0.26745 0.07611 0.77266 0.0
H556 H 0.46662 0.29379 0.80766 0.0
H557 H 0.50758 0.34735 0.80248 0.0
H558 H 0.50275 0.32097 0.76286 0.0
H559 H 0.46134 0.2675 0.76815 0.0
Nd560 Nd 0.95753 0.26226 0.76764 0.0
Nd561 Nd 0.88525 0.23328 0.77526 0.0
C562 C 1.01288 0.27275 0.75942 0.0
C563 C 0.03349 0.25911 0.76139 0.0
C564 C 0.04998 0.25621 0.75106 0.0
C565 C 0.07117 0.24535 0.75295 0.0
C566 C 0.07653 0.23741 0.76525 0.0
C567 C 0.05943 0.23968 0.77553 0.0
C568 C 0.03805 0.25023 0.77362 0.0
C569 C 0.94691 0.28144 0.79062 0.0
C570 C 0.91617 0.18819 0.77783 0.0
C571 C 0.83124 0.21755 0.78647 0.0
C572 C 0.79926 0.21004 0.78267 0.0
C573 C 0.78344 0.22185 0.78984 0.0
C574 C 0.75273 0.21408 0.78669 0.0
C575 C 0.73701 0.19409 0.77631 0.0
C576 C 0.75318 0.18262 0.76904 0.0
C577 C 0.78396 0.19058 0.77215 0.0
C578 C 0.89136 0.22802 0.74913 0.0
C579 C 0.9252 0.30491 0.7636 0.0
O580 O 0.9869 0.25611 0.75297 0.0
O581 O 1.00917 0.287 0.76922 0.0
O582 O 0.96998 0.2988 0.78305 0.0
O583 O 0.9309 0.25338 0.7865 0.0
O584 O 0.94282 0.2112 0.77321 0.0
O585 O 0.89193 0.19181 0.78039 0.0
O586 O 0.85373 0.24675 0.78515 0.0
O587 O 0.83984 0.19723 0.78326 0.0
O588 O 0.86451 0.21784 0.75471 0.0
O589 O 0.91227 0.23939 0.75749 0.0
O590 O 0.90303 0.28537 0.77151 0.0
O591 O 0.94687 0.29911 0.75888 0.0
H592 H 0.04691 0.26291 0.74155 0.0
H593 H 0.08406 0.24406 0.74483 0.0
H594 H 0.06261 0.23332 0.78509 0.0
H595 H 1.02545 0.2519 0.78177 0.0
H596 H 0.7948 0.23702 0.79794 0.0
H597 H 0.74141 0.22392 0.79237 0.0
H598 H 0.74187 0.16694 0.76108 0.0
H599 H 0.79563 0.18119 0.76641 0.0
Nd600 Nd 0.39556 0.13812 0.59812 0.0
Nd601 Nd 0.35388 0.16844 0.59031 0.0
C602 C 0.4387 0.12372 0.605 0.0
C603 C 0.47312 0.138 0.60578 0.0
C604 C 0.48589 0.12131 0.61167 0.0
C605 C 0.51801 0.1318 0.61074 0.0
C606 C 0.53808 0.15925 0.60385 0.0
C607 C 0.52536 0.17667 0.59842 0.0
C608 C 0.49317 0.16607 0.59933 0.0
C609 C 0.36341 0.11751 0.5756 0.0
C610 C 0.42951 0.21305 0.58903 0.0
C611 C 0.31634 0.18453 0.57864 0.0
C612 C 0.29134 0.19161 0.58198 0.0
C613 C 0.26319 0.17752 0.57506 0.0
C614 C 0.23979 0.18494 0.57768 0.0
C615 C 0.24407 0.20684 0.58725 0.0
C616 C 0.27217 0.22055 0.59432 0.0
C617 C 0.29548 0.21296 0.59174 0.0
C618 C 0.36599 0.17531 0.61637 0.0
C619 C 0.32074 0.09721 0.60282 0.0
O620 O 0.4246 0.13262 0.61321 0.0
O621 O 0.42742 0.12032 0.59344 0.0
O622 O 0.36777 0.10004 0.58364 0.0
O623 O 0.37726 0.1461 0.57916 0.0
O624 O 0.43218 0.19047 0.59474 0.0
O625 O 0.40233 0.20871 0.58486 0.0
O626 O 0.30972 0.15529 0.57979 0.0
O627 O 0.34489 0.20479 0.58231 0.0
O628 O 0.34953 0.18551 0.61058 0.0
O629 O 0.37508 0.16297 0.60824 0.0
O630 O 0.31821 0.1173 0.59517 0.0
O631 O 0.34823 0.10183 0.60702 0.0
H632 H 0.47082 0.09949 0.61662 0.0
H633 H 0.52703 0.11806 0.61522 0.0
H634 H 0.53999 0.19775 0.59297 0.0
H635 H 0.48374 0.17909 0.59456 0.0
H636 H 0.25939 0.1609 0.56753 0.0
H637 H 0.21828 0.17343 0.5722 0.0
H638 H 0.27653 0.23774 0.60165 0.0
H639 H 0.31692 0.22416 0.59729 0.0
Nd640 Nd 0.93471 0.28179 0.59539 0.0
Nd641 Nd 0.91054 0.2108 0.58592 0.0
C642 C 0.94149 0.33252 0.60709 0.0
C643 C 0.93127 0.35575 0.60477 0.0
C644 C 0.92218 0.36756 0.61508 0.0
C645 C 0.91232 0.38947 0.61305 0.0
C646 C 0.9115 0.40016 0.60066 0.0
C647 C 0.92052 0.38814 0.59035 0.0
C648 C 0.93015 0.36606 0.59237 0.0
C649 C 0.94783 0.2771 0.5704 0.0
C650 C 0.85993 0.23593 0.58723 0.0
C651 C 0.89639 0.15884 0.57315 0.0
C652 C 0.88714 0.12603 0.57618 0.0
C653 C 0.88101 0.1046 0.56628 0.0
C654 C 0.87218 0.07336 0.569 0.0
C655 C 0.86927 0.06291 0.58172 0.0
C656 C 0.87536 0.08457 0.59162 0.0
C657 C 0.88422 0.11581 0.58887 0.0
C658 C 0.91078 0.2145 0.61245 0.0
C659 C 0.98335 0.25656 0.59403 0.0
O660 O 0.91948 0.30405 0.61004 0.0
O661 O 0.96226 0.33289 0.5992 0.0
O662 O 0.96347 0.30204 0.57733 0.0
O663 O 0.92307 0.25688 0.57609 0.0
O664 O 0.88249 0.26366 0.59122 0.0
O665 O 0.86504 0.21277 0.58414 0.0
O666 O 0.92511 0.18018 0.57612 0.0
O667 O 0.87589 0.16749 0.5759 0.0
O668 O 0.90154 0.18836 0.60639 0.0
O669 O 0.91863 0.23572 0.60433 0.0
O670 O 0.96417 0.23623 0.58549 0.0
O671 O 0.97477 0.27292 0.6014 0.0
H672 H 0.92277 0.35987 0.62472 0.0
H673 H 0.90582 0.39843 0.62122 0.0
H674 H 0.91976 0.39552 0.58067 0.0
H675 H 0.93668 0.35703 0.58423 0.0
H676 H 0.88302 0.11202 0.55642 0.0
H677 H 0.8673 0.05731 0.56113 0.0
H678 H 0.87377 0.07752 0.60151 0.0
H679 H 0.8889 0.13201 0.59666 0.0
Nd680 Nd 0.79396 0.68069 0.59574 0.0
Nd681 Nd 0.86714 0.72277 0.58924 0.0
C682 C 0.73629 0.63728 0.60241 0.0
C683 C 0.71633 0.60277 0.60333 0.0
C684 C 0.7256 0.58259 0.59789 0.0
C685 C 0.70458 0.55013 0.59725 0.0
C686 C 0.67374 0.53726 0.60191 0.0
C687 C 0.66502 0.55755 0.60774 0.0
C688 C 0.68608 0.58991 0.60843 0.0
C689 C 0.80814 0.7098 0.57248 0.0
C690 C 0.83581 0.64689 0.58819 0.0
C691 C 0.92201 0.75927 0.57821 0.0
C692 C 0.95351 0.78484 0.58171 0.0
C693 C 0.97687 0.79807 0.57235 0.0
C694 C 1.00743 0.8211 0.5756 0.0
C695 C 1.0153 0.83137 0.5883 0.0
C696 C 0.99159 0.81831 0.59764 0.0
C697 C 0.96098 0.79522 0.59438 0.0
C698 C 0.85867 0.7123 0.61537 0.0
C699 C 0.82674 0.75606 0.59891 0.0
O700 O 0.75906 0.65174 0.61071 0.0
O701 O 0.74441 0.64838 0.59085 0.0
O702 O 0.78443 0.70516 0.57939 0.0
O703 O 0.82278 0.69717 0.57738 0.0
O704 O 0.81011 0.64422 0.59338 0.0
O705 O 0.85917 0.67409 0.58428 0.0
O706 O 0.89919 0.76572 0.57827 0.0
O707 O 0.91379 0.73166 0.58306 0.0
O708 O 0.88596 0.72849 0.61006 0.0
O709 O 0.83823 0.70253 0.60676 0.0
O710 O 0.85052 0.75834 0.59216 0.0
O711 O 0.80352 0.72881 0.60316 0.0
H712 H 0.74869 0.59205 0.59373 0.0
H713 H 0.71207 0.53531 0.59262 0.0
H714 H 0.64168 0.54846 0.61161 0.0
H715 H 0.67836 0.60504 0.6126 0.0
H716 H 0.97154 0.79035 0.56253 0.0
H717 H 1.02487 0.83097 0.56811 0.0
H718 H 0.99682 0.82542 0.60753 0.0
H719 H 0.94327 0.78515 0.60176 0.0
H720 H 0.60277 0.90986 0.10919 0.0
H721 H 0.61619 0.86953 0.10385 0.0
H722 H 0.51811 0.79922 0.10406 0.0
H723 H 0.50452 0.83935 0.10933 0.0
H724 H 0.60547 0.8177 0.11716 0.0
H725 H 0.54567 0.78093 0.07045 0.0
H726 H 0.55251 0.81639 0.07836 0.0
H727 H 0.51971 0.77898 0.08284 0.0
C728 C 0.58404 0.8858 0.1081 0.0
C729 C 0.55252 0.8779 0.10965 0.0
C730 C 0.59176 0.86278 0.10499 0.0
C731 C 0.56817 0.83137 0.1033 0.0
C732 C 0.53672 0.8234 0.10493 0.0
H733 H 0.53983 0.64807 0.09967 0.0
H734 H 0.53911 0.69714 0.09876 0.0
C735 C 0.52897 0.8464 0.10798 0.0
C736 C 0.57637 0.80663 0.10045 0.0
H737 H 0.55922 0.74527 0.08043 0.0
C738 C 0.59582 0.80219 0.10901 0.0
C739 C 0.56398 0.7865 0.08976 0.0
C740 C 0.54458 0.79112 0.07976 0.0
C741 C 0.60164 0.7771 0.10759 0.0
C742 C 0.58802 0.75611 0.09723 0.0
C743 C 0.56969 0.76135 0.08837 0.0
C744 C 0.5892 0.7265 0.09632 0.0
C745 C 0.6209 0.77223 0.11758 0.0
C746 C 0.61758 0.72645 0.09481 0.0
C747 C 0.61808 0.69811 0.09528 0.0
C748 C 0.59021 0.66952 0.09734 0.0
C749 C 0.56178 0.66969 0.09818 0.0
C750 C 0.56128 0.69777 0.09764 0.0
H751 H 0.62561 0.78761 0.12602 0.0
H752 H 0.60878 0.74739 0.12083 0.0
H753 H 0.64375 0.77761 0.1134 0.0
H754 H 0.63938 0.74834 0.09358 0.0
H755 H 0.64034 0.69875 0.09465 0.0
H756 H 0.4032 0.93932 0.11906 0.0
H757 H 0.35396 0.89019 0.1169 0.0
H758 H 0.34572 0.91324 0.07793 0.0
H759 H 0.39558 0.96342 0.08006 0.0
H760 H 0.28905 0.88158 0.10586 0.0
H761 H 0.34588 0.82279 0.08106 0.0
H762 H 0.3683 0.85517 0.09178 0.0
H763 H 0.35531 0.86215 0.0768 0.0
C764 C 0.39092 0.93426 0.11003 0.0
C765 C 0.40345 0.95526 0.09969 0.0
C766 C 0.36268 0.90612 0.10884 0.0
C767 C 0.34633 0.89803 0.09726 0.0
C768 C 0.35811 0.91916 0.08696 0.0
H769 H 0.19589 0.70185 0.0873 0.0
H770 H 0.23471 0.75641 0.08234 0.0
C771 C 0.38645 0.94778 0.08819 0.0
C772 C 0.31781 0.86667 0.09615 0.0
H773 H 0.29518 0.7904 0.08924 0.0
C774 C 0.29008 0.86168 0.10199 0.0
C775 C 0.31927 0.84082 0.0911 0.0
C776 C 0.3487 0.84519 0.0848 0.0
C777 C 0.2641 0.83129 0.10332 0.0
C778 C 0.26629 0.80511 0.09905 0.0
C779 C 0.2935 0.81035 0.0926 0.0
C780 C 0.24164 0.77217 0.10196 0.0
C781 C 0.23473 0.82758 0.10944 0.0
C782 C 0.2328 0.76263 0.11465 0.0
C783 C 0.21039 0.73156 0.11751 0.0
C784 C 0.1965 0.70902 0.10776 0.0
C785 C 0.20565 0.71857 0.09505 0.0
C786 C 0.22802 0.74976 0.09219 0.0
H787 H 0.23271 0.84888 0.10799 0.0
H788 H 0.2134 0.80697 0.10554 0.0
H789 H 0.23569 0.82425 0.11987 0.0
H790 H 0.24352 0.77918 0.1224 0.0
H791 H 0.20379 0.72531 0.12739 0.0
H792 H 0.15611 0.53855 0.09943 0.0
H793 H 0.20558 0.53864 0.09998 0.0
H794 H 0.15617 0.43814 0.0953 0.0
H795 H 0.1059 0.43775 0.0948 0.0
H796 H 0.21215 0.49496 0.12019 0.0
H797 H 0.23823 0.48237 0.06951 0.0
H798 H 0.21587 0.5012 0.07348 0.0
H799 H 0.19884 0.45972 0.07568 0.0
C800 C 0.15564 0.51643 0.09828 0.0
C801 C 0.127 0.48808 0.09714 0.0
C802 C 0.18401 0.51658 0.09859 0.0
C803 C 0.18453 0.48845 0.09772 0.0
C804 C 0.15621 0.46014 0.09591 0.0
H805 H 0.35763 0.47816 0.10361 0.0
H806 H 0.3033 0.46466 0.09947 0.0
C807 C 0.12756 0.45996 0.09557 0.0
C808 C 0.21459 0.48909 0.09997 0.0
H809 H 0.27779 0.49324 0.0847 0.0
C810 C 0.22637 0.49418 0.11246 0.0
C811 C 0.23293 0.4879 0.08988 0.0
C812 C 0.22107 0.48252 0.07634 0.0
C813 C 0.25642 0.49899 0.11511 0.0
C814 C 0.27558 0.49955 0.10494 0.0
C815 C 0.26325 0.49311 0.09248 0.0
C816 C 0.30883 0.50805 0.10703 0.0
C817 C 0.26735 0.50356 0.1288 0.0
C818 C 0.33025 0.53722 0.11239 0.0
C819 C 0.36126 0.54498 0.11478 0.0
C820 C 0.37173 0.5239 0.11173 0.0
C821 C 0.35044 0.49504 0.10601 0.0
C822 C 0.31933 0.48723 0.10367 0.0
H823 H 0.24723 0.49291 0.13553 0.0
H824 H 0.28245 0.49314 0.13061 0.0
H825 H 0.28114 0.52907 0.1309 0.0
H826 H 0.32297 0.55406 0.11475 0.0
H827 H 0.37714 0.56765 0.11894 0.0
H828 H 0.85021 0.49928 0.91925 0.0
H829 H 0.81012 0.51341 0.92391 0.0
H830 H 0.88207 0.60977 0.92956 0.0
H831 H 0.9224 0.59591 0.92478 0.0
H832 H 0.80577 0.5452 0.94741 0.0
H833 H 0.81941 0.61175 0.90252 0.0
H834 H 0.83257 0.58354 0.90385 0.0
H835 H 0.85423 0.62106 0.91148 0.0
C836 C 0.85753 0.52353 0.92139 0.0
C837 C 0.88952 0.54648 0.92159 0.0
C838 C 0.8346 0.53152 0.92413 0.0
C839 C 0.84312 0.56267 0.92699 0.0
C840 C 0.87499 0.58565 0.92728 0.0
H841 H 0.7072 0.62965 0.93434 0.0
H842 H 0.75764 0.63054 0.93509 0.0
C843 C 0.898 0.57763 0.92463 0.0
C844 C 0.81844 0.57078 0.92969 0.0
H845 H 0.77981 0.60567 0.91667 0.0
C846 C 0.80028 0.5587 0.94076 0.0
C847 C 0.81159 0.58875 0.92109 0.0
C848 C 0.83027 0.60199 0.90901 0.0
C849 C 0.77484 0.56329 0.94327 0.0
C850 C 0.76685 0.57975 0.93432 0.0
C851 C 0.78593 0.59309 0.92354 0.0
C852 C 0.73681 0.57997 0.93514 0.0
C853 C 0.75651 0.55009 0.95543 0.0
C854 C 0.70846 0.55137 0.93498 0.0
C855 C 0.6799 0.55081 0.93455 0.0
C856 C 0.67885 0.57888 0.93419 0.0
C857 C 0.70721 0.60765 0.93472 0.0
C858 C 0.736 0.60817 0.93508 0.0
H859 H 0.7714 0.54852 0.96304 0.0
H860 H 0.74664 0.56463 0.95896 0.0
H861 H 0.73686 0.52598 0.95361 0.0
H862 H 0.70838 0.52931 0.93473 0.0
H863 H 0.65857 0.5282 0.93418 0.0
H864 H 0.51037 0.12985 0.91289 0.0
H865 H 0.51025 0.17874 0.91575 0.0
H866 H 0.45985 0.14447 0.95112 0.0
H867 H 0.45995 0.09465 0.94837 0.0
H868 H 0.43901 0.17894 0.93246 0.0
H869 H 0.56562 0.24341 0.94446 0.0
H870 H 0.55606 0.21872 0.93063 0.0
H871 H 0.54158 0.20129 0.94601 0.0
C872 C 0.49911 0.13241 0.92131 0.0
C873 C 0.48553 0.10835 0.93051 0.0
C874 C 0.49909 0.1605 0.9229 0.0
C875 C 0.48554 0.16546 0.93373 0.0
C876 C 0.47063 0.14113 0.94272 0.0
H877 H 0.53667 0.36248 0.94474 0.0
H878 H 0.52312 0.30849 0.94969 0.0
C879 C 0.47065 0.1127 0.94113 0.0
C880 C 0.48825 0.19668 0.93553 0.0
H881 H 0.54341 0.27443 0.93752 0.0
C882 C 0.4617 0.19983 0.93382 0.0
C883 C 0.5178 0.22388 0.93744 0.0
C884 C 0.5469 0.22177 0.93986 0.0
C885 C 0.46427 0.22966 0.93324 0.0
C886 C 0.49425 0.25697 0.93418 0.0
C887 C 0.52045 0.25362 0.93667 0.0
C888 C 0.49948 0.28914 0.93176 0.0
C889 C 0.43489 0.23157 0.93146 0.0
C890 C 0.4907 0.29639 0.92005 0.0
C891 C 0.49821 0.3272 0.91723 0.0
C892 C 0.51504 0.35168 0.92599 0.0
C893 C 0.52337 0.34426 0.93782 0.0
C894 C 0.51578 0.31338 0.94064 0.0
H895 H 0.41404 0.21033 0.93531 0.0
H896 H 0.43684 0.25263 0.93622 0.0
H897 H 0.4309 0.23298 0.92112 0.0
H898 H 0.4788 0.27837 0.91289 0.0
H899 H 0.49107 0.33188 0.90809 0.0
H900 H 0.73028 0.15561 0.92915 0.0
H901 H 0.78374 0.19603 0.93499 0.0
H902 H 0.76165 0.26817 0.9256 0.0
H903 H 0.7082 0.22804 0.91993 0.0
H904 H 0.82875 0.2454 0.91893 0.0
H905 H 0.80033 0.29223 0.96178 0.0
H906 H 0.77341 0.2543 0.95504 0.0
H907 H 0.77737 0.28948 0.948 0.0
C908 C 0.73671 0.18008 0.92848 0.0
C909 C 0.71493 0.18858 0.92409 0.0
C910 C 0.7673 0.20313 0.93176 0.0
C911 C 0.77655 0.23509 0.93089 0.0
C912 C 0.75488 0.24364 0.92653 0.0
H913 H 0.9297 0.41807 0.93225 0.0
H914 H 0.8803 0.36887 0.9335 0.0
C915 C 0.72442 0.22066 0.92317 0.0
C916 C 0.80915 0.25973 0.93405 0.0
H917 H 0.85114 0.32458 0.95266 0.0
C918 C 0.83383 0.26242 0.92645 0.0
C919 C 0.81569 0.28178 0.9439 0.0
C920 C 0.79036 0.27922 0.95274 0.0
C921 C 0.86456 0.28777 0.92791 0.0
C922 C 0.87083 0.31065 0.9374 0.0
C923 C 0.84637 0.30703 0.9454 0.0
C924 C 0.90133 0.34055 0.93804 0.0
C925 C 0.88963 0.2909 0.91878 0.0
C926 C 0.92976 0.34129 0.94059 0.0
C927 C 0.9584 0.36971 0.93988 0.0
C928 C 0.95891 0.39769 0.93658 0.0
C929 C 0.93024 0.39693 0.93469 0.0
C930 C 0.90187 0.36877 0.93544 0.0
H931 H 0.87978 0.27403 0.91072 0.0
H932 H 0.90267 0.31508 0.91483 0.0
H933 H 0.90661 0.28632 0.92396 0.0
H934 H 0.92985 0.31984 0.94283 0.0
H935 H 0.98008 0.36954 0.94137 0.0
H936 H 0.20387 0.97797 0.42896 0.0
H937 H 0.20252 0.02683 0.42905 0.0
H938 H 0.30354 0.07977 0.42814 0.0
H939 H 0.30505 0.03046 0.42796 0.0
H940 H 0.23144 0.06967 0.44967 0.0
H941 H 0.27492 0.12607 0.40228 0.0
H942 H 0.25886 0.08443 0.40479 0.0
H943 H 0.29742 0.11171 0.41049 0.0
C944 C 0.22584 0.99998 0.42845 0.0
C945 C 0.25459 1.0004 0.42849 0.0
C946 C 0.225 0.0279 0.42852 0.0
C947 C 0.25288 0.05694 0.42863 0.0
C948 C 0.28172 0.05759 0.4279 0.0
H949 H 0.25956 0.22617 0.4585 0.0
H950 H 0.27095 0.18419 0.45381 0.0
C951 C 0.28257 0.02945 0.42776 0.0
C952 C 0.25127 0.08586 0.43101 0.0
H953 H 0.26263 0.15397 0.41738 0.0
C954 C 0.23845 0.0882 0.44264 0.0
C955 C 0.26024 0.10987 0.4218 0.0
C956 C 0.27348 0.10804 0.40908 0.0
C957 C 0.23397 0.11366 0.44525 0.0
C958 C 0.24291 0.13772 0.43605 0.0
C959 C 0.25596 0.13556 0.42444 0.0
C960 C 0.23777 0.16464 0.43826 0.0
C961 C 0.21882 0.11413 0.4577 0.0
C962 C 0.21582 0.16801 0.43089 0.0
C963 C 0.20905 0.19187 0.43361 0.0
C964 C 0.22422 0.21295 0.44373 0.0
C965 C 0.24691 0.20999 0.45083 0.0
C966 C 0.25361 0.18611 0.44812 0.0
H967 H 0.20746 0.09089 0.46252 0.0
H968 H 0.23698 0.1315 0.46421 0.0
H969 H 0.20093 0.12125 0.45613 0.0
H970 H 0.20327 0.15162 0.42326 0.0
H971 H 0.19129 0.19324 0.428 0.0
H972 H 0.0964 0.25551 0.43704 0.0
H973 H 0.04647 0.20668 0.43718 0.0
H974 H 0.99846 0.25722 0.42788 0.0
H975 H 0.04899 0.30688 0.42771 0.0
H976 H 0.99687 0.1977 0.45442 0.0
H977 H 0.96011 0.17805 0.40341 0.0
H978 H 1.00056 0.20277 0.4081 0.0
H979 H 0.97316 0.21632 0.41016 0.0
C980 C 0.07535 0.25638 0.43483 0.0
C981 C 0.07669 0.2852 0.43244 0.0
C982 C 0.04679 0.22835 0.43492 0.0
C983 C 1.01876 0.22828 0.43257 0.0
C984 C 1.0199 0.25675 0.4296 0.0
H985 H 0.84052 0.06579 0.45654 0.0
H986 H 0.8825 0.11955 0.45242 0.0
C987 C 0.04875 0.28507 0.42949 0.0
C988 C 0.98862 0.19852 0.4343 0.0
H989 H 0.92732 0.13917 0.41815 0.0
C990 C 0.98143 0.18505 0.44653 0.0
C991 C 0.96875 0.18199 0.42395 0.0
C992 C 0.9759 0.19527 0.41062 0.0
C993 C 0.95534 0.15519 0.44866 0.0
C994 C 0.93558 0.13843 0.4383 0.0
C995 C 0.94242 0.15212 0.42609 0.0
C996 C 0.9087 0.10605 0.43994 0.0
C997 C 0.94987 0.14129 0.4619 0.0
C998 C 0.90899 0.08062 0.43402 0.0
C999 C 0.88507 0.04979 0.4364 0.0
C1000 C 0.86028 0.04378 0.44474 0.0
C1001 C 0.85957 0.06946 0.4503 0.0
C1002 C 0.88348 0.10025 0.44791 0.0
H1003 H 0.97073 0.15429 0.46814 0.0
H1004 H 0.92997 0.14229 0.46636 0.0
H1005 H 0.94378 0.1163 0.46151 0.0
H1006 H 0.92826 0.08456 0.42785 0.0
H1007 H 0.88653 0.03064 0.43202 0.0
H1008 H 1.02156 0.81036 0.43715 0.0
H1009 H 0.96804 0.79865 0.43227 0.0
H1010 H 0.99212 0.89211 0.4439 0.0
H1011 H 0.04566 0.90414 0.44862 0.0
H1012 H 0.92419 0.80189 0.44946 0.0
H1013 H 0.95209 0.88209 0.40815 0.0
H1014 H 0.97879 0.86979 0.41402 0.0
H1015 H 0.97568 0.90043 0.42202 0.0
C1016 C 1.01555 0.82854 0.43853 0.0
C1017 C 0.03794 0.85824 0.44324 0.0
C1018 C 0.98492 0.82174 0.4358 0.0
C1019 C 0.97621 0.84462 0.43756 0.0
C1020 C 0.99846 0.87425 0.44228 0.0
H1021 H 0.82225 0.87445 0.43844 0.0
H1022 H 0.87182 0.87508 0.43741 0.0
C1023 C 0.02898 0.88099 0.44509 0.0
C1024 C 0.94364 0.83746 0.43489 0.0
H1025 H 0.90154 0.86257 0.41757 0.0
C1026 C 0.91906 0.81475 0.44235 0.0
C1027 C 0.93703 0.85417 0.42557 0.0
C1028 C 0.96222 0.87779 0.41689 0.0
C1029 C 0.88837 0.80963 0.44125 0.0
C1030 C 0.88202 0.82729 0.43227 0.0
C1031 C 0.90638 0.84901 0.42444 0.0
C1032 C 0.85138 0.82637 0.4319 0.0
C1033 C 0.86339 0.78669 0.45019 0.0
C1034 C 0.82322 0.79888 0.42882 0.0
C1035 C 0.79447 0.79839 0.42941 0.0
C1036 C 0.79351 0.82539 0.4331 0.0
C1037 C 0.82195 0.85309 0.43567 0.0
C1038 C 0.85045 0.85357 0.43506 0.0
H1039 H 0.87334 0.77894 0.45797 0.0
H1040 H 0.85031 0.79732 0.45453 0.0
H1041 H 0.84642 0.76563 0.44476 0.0
H1042 H 0.82344 0.77773 0.42615 0.0
H1043 H 0.77302 0.77669 0.42736 0.0
H1044 H 0.31962 0.86342 0.26848 0.0
H1045 H 0.36829 0.86187 0.26827 0.0
H1046 H 0.42137 0.96253 0.27217 0.0
H1047 H 0.37224 0.96438 0.27232 0.0
H1048 H 0.41754 0.90191 0.24791 0.0
H1049 H 0.45962 0.92043 0.29827 0.0
H1050 H 0.41834 0.90251 0.29458 0.0
H1051 H 0.44381 0.94352 0.29163 0.0
C1052 C 0.34157 0.88527 0.26956 0.0
C1053 C 0.34205 0.91408 0.27035 0.0
C1054 C 0.36938 0.88429 0.26944 0.0
C1055 C 0.3984 0.91204 0.27017 0.0
C1056 C 0.39914 0.94081 0.27169 0.0
H1057 H 0.58146 0.92191 0.26347 0.0
H1058 H 0.54064 0.93543 0.26762 0.0
C1059 C 0.37109 0.94183 0.27183 0.0
C1060 C 0.4274 0.91052 0.26797 0.0
H1061 H 0.4877 0.90844 0.28324 0.0
C1062 C 0.4331 0.90367 0.25561 0.0
C1063 C 0.44771 0.91302 0.278 0.0
C1064 C 0.44229 0.92023 0.29141 0.0
C1065 C 0.45814 0.8985 0.25304 0.0
C1066 C 0.47761 0.8994 0.26319 0.0
C1067 C 0.47264 0.90747 0.27549 0.0
C1068 C 0.50237 0.89084 0.26122 0.0
C1069 C 0.46344 0.89209 0.23946 0.0
C1070 C 0.49444 0.86102 0.25652 0.0
C1071 C 0.51766 0.85323 0.25413 0.0
C1072 C 0.54943 0.87497 0.25651 0.0
C1073 C 0.55724 0.90452 0.26159 0.0
C1074 C 0.53394 0.91234 0.26393 0.0
H1075 H 0.45323 0.90162 0.23252 0.0
H1076 H 0.48882 0.90246 0.23738 0.0
H1077 H 0.45184 0.86634 0.23796 0.0
H1078 H 0.47017 0.84371 0.25466 0.0
H1079 H 0.51069 0.83005 0.25049 0.0
H1080 H 0.14683 0.67727 0.25585 0.0
H1081 H 0.13515 0.62391 0.26099 0.0
H1082 H 0.23392 0.65717 0.26538 0.0
H1083 H 0.24576 0.71055 0.26032 0.0
H1084 H 0.15211 0.58685 0.24853 0.0
H1085 H 0.19976 0.60635 0.29758 0.0
H1086 H 0.19331 0.63484 0.2893 0.0
H1087 H 0.22818 0.63266 0.28632 0.0
C1088 C 0.16609 0.67325 0.25793 0.0
C1089 C 0.19727 0.69828 0.2577 0.0
C1090 C 0.15934 0.64272 0.26093 0.0
C1091 C 0.18357 0.6365 0.26381 0.0
C1092 C 0.21472 0.66143 0.26356 0.0
H1093 H 0.21514 0.48255 0.26835 0.0
H1094 H 0.21578 0.53244 0.26902 0.0
C1095 C 0.22148 0.69198 0.26063 0.0
C1096 C 0.17649 0.60376 0.26639 0.0
H1097 H 0.19076 0.55889 0.2873 0.0
C1098 C 0.1601 0.58061 0.25711 0.0
C1099 C 0.18675 0.59549 0.27761 0.0
C1100 C 0.20269 0.61858 0.28833 0.0
C1101 C 0.15511 0.54998 0.25844 0.0
C1102 C 0.16651 0.54213 0.26942 0.0
C1103 C 0.18199 0.56493 0.2789 0.0
C1104 C 0.16549 0.51149 0.27056 0.0
C1105 C 0.13902 0.52663 0.24782 0.0
C1106 C 0.13698 0.483 0.27165 0.0
C1107 C 0.13653 0.45421 0.27136 0.0
C1108 C 0.16457 0.45357 0.26988 0.0
C1109 C 0.19309 0.48221 0.26942 0.0
C1110 C 0.19354 0.51079 0.26982 0.0
H1111 H 0.1356 0.53771 0.23918 0.0
H1112 H 0.15285 0.51529 0.24514 0.0
H1113 H 0.11568 0.50793 0.25114 0.0
H1114 H 0.11507 0.48304 0.27236 0.0
H1115 H 0.1142 0.43256 0.27167 0.0
H1116 H 0.61759 0.72608 0.24699 0.0
H1117 H 0.56835 0.67683 0.24869 0.0
H1118 H 0.5869 0.66988 0.28843 0.0
H1119 H 0.63688 0.72005 0.2868 0.0
H1120 H 0.55479 0.61601 0.25625 0.0
H1121 H 0.50029 0.66556 0.28838 0.0
H1122 H 0.53581 0.69038 0.27962 0.0
H1123 H 0.53686 0.66883 0.29326 0.0
C1124 C 0.61142 0.71407 0.25611 0.0
C1125 C 0.63099 0.72715 0.26681 0.0
C1126 C 0.58323 0.6858 0.25704 0.0
C1127 C 0.57364 0.66986 0.26872 0.0
C1128 C 0.59365 0.68205 0.27937 0.0
H1129 H 0.38077 0.50967 0.27786 0.0
H1130 H 0.43522 0.54906 0.28283 0.0
C1131 C 0.62227 0.71051 0.27841 0.0
C1132 C 0.5421 0.64123 0.26947 0.0
H1133 H 0.46727 0.61554 0.2798 0.0
C1134 C 0.53576 0.61567 0.26158 0.0
C1135 C 0.51724 0.64076 0.27643 0.0
C1136 C 0.52261 0.66783 0.28487 0.0
C1137 C 0.50514 0.59032 0.26005 0.0
C1138 C 0.48001 0.59073 0.2664 0.0
C1139 C 0.48653 0.61537 0.27487 0.0
C1140 C 0.44676 0.56712 0.26358 0.0
C1141 C 0.49987 0.5636 0.25141 0.0
C1142 C 0.43491 0.56469 0.25119 0.0
C1143 C 0.40382 0.54246 0.24834 0.0
C1144 C 0.38369 0.52208 0.25782 0.0
C1145 C 0.39545 0.52506 0.27033 0.0
C1146 C 0.42665 0.54744 0.27318 0.0
H1147 H 0.52147 0.56197 0.25043 0.0
H1148 H 0.48068 0.54083 0.25504 0.0
H1149 H 0.49323 0.56765 0.24177 0.0
H1150 H 0.44973 0.58016 0.24369 0.0
H1151 H 0.39548 0.54145 0.23868 0.0
H1152 H 0.94205 0.57803 0.77038 0.0
H1153 H 0.95476 0.53724 0.76478 0.0
H1154 H 0.85854 0.46602 0.77118 0.0
H1155 H 0.84557 0.50657 0.77661 0.0
H1156 H 0.94661 0.48571 0.78033 0.0
H1157 H 0.87839 0.44489 0.73543 0.0
H1158 H 0.88893 0.48222 0.74266 0.0
H1159 H 0.85628 0.44665 0.74869 0.0
C1160 C 0.92351 0.5537 0.77045 0.0
C1161 C 0.89274 0.54559 0.77391 0.0
C1162 C 0.93086 0.53042 0.76731 0.0
C1163 C 0.90753 0.49861 0.76739 0.0
C1164 C 0.87684 0.49044 0.77085 0.0
H1165 H 0.8757 0.31446 0.76386 0.0
H1166 H 0.87616 0.3641 0.76305 0.0
C1167 C 0.86951 0.51365 0.77408 0.0
C1168 C 0.91527 0.47371 0.76433 0.0
H1169 H 0.89468 0.4109 0.74473 0.0
C1170 C 0.93572 0.46963 0.77242 0.0
C1171 C 0.90116 0.45288 0.75397 0.0
C1172 C 0.88019 0.45698 0.7446 0.0
C1173 C 0.94091 0.44414 0.77089 0.0
C1174 C 0.92571 0.4225 0.76084 0.0
C1175 C 0.9064 0.42748 0.75241 0.0
C1176 C 0.92613 0.39249 0.75994 0.0
C1177 C 0.96111 0.43952 0.7805 0.0
C1178 C 0.954 0.39166 0.75803 0.0
C1179 C 0.95382 0.36296 0.75846 0.0
C1180 C 0.92575 0.33479 0.76086 0.0
C1181 C 0.89779 0.33573 0.76211 0.0
C1182 C 0.89798 0.36415 0.76162 0.0
H1183 H 0.96691 0.45537 0.78885 0.0
H1184 H 0.94916 0.41486 0.78395 0.0
H1185 H 0.98339 0.44447 0.77589 0.0
H1186 H 0.97596 0.41321 0.7565 0.0
H1187 H 0.97573 0.363 0.7575 0.0
H1188 H 0.7142 0.63749 0.76306 0.0
H1189 H 0.66448 0.58707 0.76278 0.0
H1190 H 0.71566 0.53756 0.76683 0.0
H1191 H 0.76488 0.58728 0.76702 0.0
H1192 H 0.6654 0.50935 0.74925 0.0
H1193 H 0.62959 0.53489 0.79606 0.0
H1194 H 0.6385 0.5631 0.7835 0.0
H1195 H 0.66909 0.55759 0.79006 0.0
C1196 C 0.71478 0.6158 0.76362 0.0
C1197 C 0.74344 0.61638 0.76515 0.0
C1198 C 0.68639 0.58704 0.76358 0.0
C1199 C 0.68634 0.55854 0.76499 0.0
C1200 C 0.71506 0.55918 0.76579 0.0
H1201 H 0.56164 0.37727 0.7959 0.0
H1202 H 0.60216 0.43102 0.79086 0.0
C1203 C 0.74321 0.5877 0.76592 0.0
C1204 C 0.65678 0.52792 0.76637 0.0
H1205 H 0.59742 0.48478 0.78735 0.0
C1206 C 0.65021 0.50406 0.75747 0.0
C1207 C 0.63732 0.52094 0.77723 0.0
C1208 C 0.64392 0.5453 0.78734 0.0
C1209 C 0.62521 0.47328 0.75928 0.0
C1210 C 0.60597 0.4662 0.77022 0.0
C1211 C 0.61209 0.49025 0.77895 0.0
C1212 C 0.58073 0.4336 0.77321 0.0
C1213 C 0.62053 0.44827 0.74978 0.0
C1214 C 0.55497 0.41715 0.76503 0.0
C1215 C 0.53165 0.38632 0.7679 0.0
C1216 C 0.53348 0.37135 0.77908 0.0
C1217 C 0.55921 0.38809 0.7873 0.0
C1218 C 0.58249 0.41884 0.78441 0.0
H1219 H 0.64122 0.45601 0.74347 0.0
H1220 H 0.61586 0.42637 0.75473 0.0
H1221 H 0.59997 0.44272 0.74368 0.0
H1222 H 0.55275 0.42822 0.75646 0.0
H1223 H 0.51193 0.3744 0.76146 0.0
H1224 H 0.49033 0.20229 0.77026 0.0
H1225 H 0.53933 0.20243 0.76812 0.0
H1226 H 0.48971 0.10721 0.7542 0.0
H1227 H 0.43961 0.10653 0.75667 0.0
H1228 H 0.53185 0.11489 0.77269 0.0
H1229 H 0.59138 0.21009 0.73753 0.0
H1230 H 0.57699 0.22302 0.75049 0.0
H1231 H 0.54973 0.19138 0.74041 0.0
C1232 C 0.48959 0.18134 0.76658 0.0
C1233 C 0.46085 0.15432 0.76365 0.0
C1234 C 0.51786 0.18163 0.76525 0.0
C1235 C 0.51844 0.15509 0.76077 0.0
C1236 C 0.48989 0.12812 0.75757 0.0
H1237 H 0.70958 0.18569 0.75262 0.0
H1238 H 0.65546 0.17107 0.74764 0.0
C1239 C 0.4613 0.12779 0.75892 0.0
C1240 C 0.54885 0.1554 0.76046 0.0
H1241 H 0.62547 0.20159 0.75174 0.0
C1242 C 0.55221 0.13347 0.76789 0.0
C1243 C 0.57542 0.17924 0.75403 0.0
C1244 C 0.5731 0.20201 0.74506 0.0
C1245 C 0.5817 0.13599 0.76973 0.0
C1246 C 0.60873 0.16163 0.76428 0.0
C1247 C 0.60499 0.18228 0.75616 0.0
C1248 C 0.64114 0.16843 0.76733 0.0
C1249 C 0.58352 0.11124 0.7776 0.0
C1250 C 0.6514 0.17209 0.78006 0.0
C1251 C 0.68225 0.18003 0.78295 0.0
C1252 C 0.70389 0.18506 0.77318 0.0
C1253 C 0.69358 0.18154 0.76043 0.0
C1254 C 0.66261 0.17336 0.75755 0.0
H1255 H 0.56123 0.08843 0.77707 0.0
H1256 H 0.60298 0.10765 0.77439 0.0
H1257 H 0.58749 0.11865 0.78774 0.0
H1258 H 0.63568 0.16931 0.7878 0.0
H1259 H 0.68907 0.18212 0.79289 0.0
H1260 H 1.02197 0.27214 0.61507 0.0
H1261 H 0.07162 0.27145 0.61657 0.0
H1262 H 0.06511 0.24839 0.57659 0.0
H1263 H 1.01602 0.24888 0.57505 0.0
H1264 H 0.07707 0.21633 0.60984 0.0
H1265 H 0.15675 0.32103 0.58123 0.0
H1266 H 0.12119 0.31605 0.5884 0.0
H1267 H 0.1195 0.29628 0.57375 0.0
C1268 C 0.03156 0.26756 0.60658 0.0
C1269 C 1.01511 0.26049 0.59496 0.0
C1270 C 0.05977 0.26703 0.60745 0.0
C1271 C 0.07217 0.26014 0.59666 0.0
C1272 C 0.05625 0.2542 0.58499 0.0
H1273 H 0.20744 0.21506 0.56968 0.0
H1274 H 0.16719 0.22915 0.57352 0.0
C1275 C 0.02806 0.25431 0.58416 0.0
C1276 C 0.10033 0.25657 0.59752 0.0
H1277 H 0.17205 0.28214 0.58392 0.0
C1278 C 0.09817 0.23106 0.6044 0.0
C1279 C 0.12765 0.27568 0.59033 0.0
C1280 C 0.13163 0.30398 0.58309 0.0
C1281 C 0.12184 0.22304 0.60369 0.0
C1282 C 0.14872 0.24152 0.5961 0.0
C1283 C 0.15142 0.26787 0.58968 0.0
C1284 C 0.17334 0.23286 0.59401 0.0
C1285 C 0.11698 0.19385 0.61047 0.0
C1286 C 0.19045 0.23041 0.60424 0.0
C1287 C 0.21324 0.22182 0.60209 0.0
C1288 C 0.21966 0.21581 0.58964 0.0
C1289 C 0.20277 0.21881 0.57941 0.0
C1290 C 0.17992 0.22722 0.58158 0.0
H1291 H 0.09213 0.17838 0.6133 0.0
H1292 H 0.12424 0.18019 0.60434 0.0
H1293 H 0.1315 0.2007 0.61926 0.0
H1294 H 0.18628 0.23524 0.61389 0.0
H1295 H 0.22558 0.21958 0.61022 0.0
H1296 H 0.77529 0.76386 0.6011 0.0
H1297 H 0.77531 0.81395 0.60036 0.0
H1298 H 0.87637 0.86447 0.59964 0.0
H1299 H 0.87654 0.81501 0.60037 0.0
H1300 H 0.84842 0.89101 0.6161 0.0
H1301 H 0.80084 0.86732 0.56657 0.0
H1302 H 0.77932 0.83795 0.5785 0.0
H1303 H 0.81749 0.84558 0.57378 0.0
C1304 C 0.79746 0.7857 0.60107 0.0
C1305 C 0.8259 0.78551 0.60074 0.0
C1306 C 0.79745 0.81425 0.60053 0.0
C1307 C 0.82587 0.84291 0.59978 0.0
C1308 C 0.85419 0.84268 0.60017 0.0
H1309 H 0.88851 0.02612 0.56953 0.0
H1310 H 0.87452 0.97207 0.57445 0.0
C1311 C 0.85422 0.81434 0.60058 0.0
C1312 C 0.82672 0.87327 0.59785 0.0
H1313 H 0.81563 0.91689 0.57521 0.0
C1314 C 0.8408 0.89658 0.60725 0.0
C1315 C 0.81727 0.88058 0.5862 0.0
C1316 C 0.80304 0.85673 0.5756 0.0
C1317 C 0.84628 0.9272 0.60521 0.0
C1318 C 0.83715 0.93464 0.5935 0.0
C1319 C 0.82246 0.91112 0.5842 0.0
C1320 C 0.84451 0.96716 0.59038 0.0
C1321 C 0.86311 0.9517 0.61538 0.0
C1322 C 0.83198 0.98234 0.59759 0.0
C1323 C 0.83988 1.01331 0.59477 0.0
C1324 C 0.86034 0.02971 0.58462 0.0
C1325 C 0.87242 1.01418 0.57731 0.0
C1326 C 0.86453 0.98327 0.58014 0.0
H1327 H 0.8743 0.94391 0.62262 0.0
H1328 H 0.88142 0.97407 0.61109 0.0
H1329 H 0.84603 0.95643 0.62036 0.0
H1330 H 0.81601 0.9702 0.60538 0.0
H1331 H 0.82968 0.02428 0.60046 0.0
H1332 H 0.31269 0.03849 0.60775 0.0
H1333 H 0.26253 0.98844 0.60767 0.0
H1334 H 0.21256 0.03901 0.60332 0.0
H1335 H 0.26201 0.08863 0.60343 0.0
H1336 H 0.19718 0.96871 0.6232 0.0
H1337 H 0.19791 0.97793 0.57026 0.0
H1338 H 0.23346 0.99626 0.57966 0.0
H1339 H 0.20856 1.01316 0.57917 0.0
C1340 C 0.29095 0.0389 0.60715 0.0
C1341 C 0.29132 0.06748 0.60551 0.0
C1342 C 0.26236 1.01034 0.60705 0.0
C1343 C 0.23393 1.01013 0.60537 0.0
C1344 C 0.23425 0.0387 0.60456 0.0
H1345 H 0.03511 0.88091 0.60494 0.0
H1346 H 0.08898 0.92142 0.60984 0.0
C1347 C 0.26258 0.06703 0.60462 0.0
C1348 C 0.204 0.98048 0.60325 0.0
H1349 H 0.15053 0.93989 0.57988 0.0
C1350 C 0.18707 0.96208 0.61373 0.0
C1351 C 0.19101 0.97188 0.59088 0.0
C1352 C 0.20864 0.99063 0.57929 0.0
C1353 C 0.15692 0.93575 0.61218 0.0
C1354 C 0.14327 0.92802 0.59985 0.0
C1355 C 0.16083 0.94585 0.58934 0.0
C1356 C 0.11055 0.90216 0.5976 0.0
C1357 C 0.13997 0.91647 0.62375 0.0
C1358 C 0.10458 0.87805 0.58893 0.0
C1359 C 0.07378 0.85492 0.58607 0.0
C1360 C 0.04815 0.85544 0.59175 0.0
C1361 C 0.05422 0.87947 0.60053 0.0
C1362 C 0.08506 0.90263 0.60338 0.0
H1363 H 0.1566 0.91949 0.63153 0.0
H1364 H 0.12386 0.92429 0.62741 0.0
H1365 H 0.12589 0.89114 0.62135 0.0
H1366 H 0.12382 0.87723 0.58431 0.0
H1367 H 0.07007 0.83656 0.57941 0.0
H1368 H 0.51716 0.98104 0.06672 0.0
H1369 H 0.51809 0.98595 0.04349 0.0
H1370 H 0.50289 0.06476 0.04692 0.0
H1371 H 0.50049 0.05887 0.07021 0.0
H1372 H 0.46925 0.02832 0.02781 0.0
H1373 H 0.59012 0.0495 0.02305 0.0
H1374 H 0.56489 1.01272 0.0307 0.0
H1375 H 0.57307 0.04887 0.03832 0.0
C1376 C 0.51399 0.9994 0.06251 0.0
C1377 C 0.5091 0.01983 0.07027 0.0
C1378 C 0.51476 1.00235 0.04923 0.0
C1379 C 0.51144 0.02629 0.04341 0.0
C1380 C 0.50579 0.04626 0.05116 0.0
H1381 H 0.57082 0.08618 0.96539 0.0
H1382 H 0.56468 0.08161 0.98855 0.0
C1383 C 0.50451 0.04298 0.06447 0.0
C1384 C 0.51388 0.03042 0.02928 0.0
H1385 H 0.56068 0.03876 1.00382 0.0
C1386 C 0.48934 0.0308 0.02257 0.0
C1387 C 0.54032 0.03423 0.02241 0.0
C1388 C 0.56872 0.03666 0.02901 0.0
C1389 C 0.49028 0.0344 1.00922 0.0
C1390 C 0.51605 0.03667 1.0023 0.0
C1391 C 0.54072 0.03666 1.00905 0.0
C1392 C 0.5186 0.04004 0.98813 0.0
C1393 C 0.46402 0.03655 1.00275 0.0
C1394 C 0.49477 0.01827 0.98006 0.0
C1395 C 0.49806 0.02125 0.96676 0.0
C1396 C 0.52553 0.04557 0.96129 0.0
C1397 C 0.54939 0.06714 0.96934 0.0
C1398 C 0.5459 0.06452 0.98259 0.0
H1399 H 0.45188 0.04433 1.0095 0.0
H1400 H 0.4728 0.05313 0.99458 0.0
H1401 H 0.44644 1.01301 0.99914 0.0
H1402 H 0.47387 0.99863 0.98403 0.0
H1403 H 0.47944 1.00417 0.96078 0.0
H1404 H 0.05985 0.47743 0.9615 0.0
H1405 H 0.06263 0.47545 0.98487 0.0
H1406 H 1.01555 0.52914 0.98815 0.0
H1407 H 1.01266 0.53106 0.9649 0.0
H1408 H 0.09052 0.52448 1.00266 0.0
H1409 H 0.96256 0.45282 1.01093 0.0
H1410 H 0.98001 0.45658 0.99541 0.0
H1411 H 0.97336 0.48706 1.00136 0.0
C1412 C 0.05029 0.48893 0.96722 0.0
C1413 C 0.03608 0.50441 0.96138 0.0
C1414 C 0.05177 0.48769 0.98056 0.0
C1415 C 0.03878 0.50165 0.98828 0.0
C1416 C 1.02509 0.51758 0.98242 0.0
H1417 H 0.07388 0.56505 0.06595 0.0
H1418 H 0.07057 0.55813 0.0428 0.0
C1419 C 1.02367 0.51886 0.96912 0.0
C1420 C 0.04008 0.50032 1.00244 0.0
H1421 H 0.99423 0.47872 0.02918 0.0
C1422 C 0.06947 0.51421 1.00846 0.0
C1423 C 1.01259 0.48647 1.01001 0.0
C1424 C 0.98033 0.4696 1.00411 0.0
C1425 C 0.07213 0.51579 0.02183 0.0
C1426 C 0.04468 0.50354 0.0294 0.0
C1427 C 1.01527 0.48844 0.02339 0.0
C1428 C 0.04612 0.50737 0.0435 0.0
C1429 C 0.10435 0.53068 0.02775 0.0
C1430 C 0.03261 0.48111 0.05164 0.0
C1431 C 0.03435 0.48503 0.06493 0.0
C1432 C 0.04936 0.51527 0.07029 0.0
C1433 C 0.06226 0.54144 0.06211 0.0
C1434 C 0.06059 0.53753 0.04887 0.0
H1435 H 0.12179 0.53053 0.02109 0.0
H1436 H 0.11215 0.55549 0.03015 0.0
H1437 H 0.10416 0.51836 0.03667 0.0
H1438 H 1.02112 0.4576 0.0477 0.0
H1439 H 1.02431 0.46448 0.071 0.0
H1440 H 0.56502 0.50367 0.96798 0.0
H1441 H 0.5655 0.51054 0.99102 0.0
H1442 H 0.57705 0.60272 0.98555 0.0
H1443 H 0.57785 0.5963 0.96228 0.0
H1444 H 0.61274 0.60292 1.00505 0.0
H1445 H 0.49308 0.50207 1.01122 0.0
H1446 H 0.51816 0.49032 1.00363 0.0
H1447 H 0.50927 0.51751 0.99571 0.0
C1448 C 0.56767 0.52544 0.97167 0.0
C1449 C 0.57113 0.54937 0.96334 0.0
C1450 C 0.56775 0.52927 0.98486 0.0
C1451 C 0.57044 0.55679 0.99007 0.0
C1452 C 0.57469 0.58115 0.98177 0.0
H1453 H 0.51446 0.55739 0.06853 0.0
H1454 H 0.51964 0.55929 0.04537 0.0
C1455 C 0.57512 0.57749 0.96849 0.0
C1456 C 0.56854 0.55972 1.00416 0.0
H1457 H 0.52391 0.52143 0.03014 0.0
C1458 C 0.59319 0.58527 1.01055 0.0
C1459 C 0.54279 0.53702 1.01135 0.0
C1460 C 0.51419 0.51041 1.0051 0.0
C1461 C 0.59312 0.58831 0.02391 0.0
C1462 C 0.56817 0.56463 0.03115 0.0
C1463 C 0.5433 0.53944 0.02469 0.0
C1464 C 0.56648 0.56571 0.04536 0.0
C1465 C 0.61944 0.61724 0.03006 0.0
C1466 C 0.5911 0.5688 0.05322 0.0
C1467 C 0.58836 0.56835 0.06656 0.0
C1468 C 0.56066 0.56397 0.07225 0.0
C1469 C 0.53605 0.56065 0.06441 0.0
C1470 C 0.53901 0.56174 0.05114 0.0
H1471 H 0.63068 0.63704 0.02318 0.0
H1472 H 0.61098 0.62493 0.03836 0.0
H1473 H 0.63767 0.61195 0.03342 0.0
H1474 H 0.61217 0.57093 0.04906 0.0
H1475 H 0.60755 0.57066 0.07241 0.0
H1476 H 0.15377 0.38383 0.40506 0.0
H1477 H 0.15024 0.38682 0.38173 0.0
H1478 H 0.19986 0.33589 0.37719 0.0
H1479 H 0.20327 0.33275 0.40036 0.0
H1480 H 0.19804 0.41349 0.36365 0.0
H1481 H 0.1227 0.28615 0.3547 0.0
H1482 H 0.12777 0.30315 0.37039 0.0
H1483 H 0.15687 0.29511 0.36394 0.0
C1484 C 0.16395 0.37337 0.39906 0.0
C1485 C 0.17882 0.35809 0.40451 0.0
C1486 C 0.16184 0.37499 0.38575 0.0
C1487 C 0.17428 0.36107 0.3777 0.0
C1488 C 0.18943 0.34615 0.38318 0.0
H1489 H 0.23857 0.39796 0.30041 0.0
H1490 H 0.23092 0.39407 0.32351 0.0
C1491 C 0.19158 0.34458 0.39643 0.0
C1492 C 0.17254 0.36294 0.36357 0.0
H1493 H 0.14984 0.31798 0.33656 0.0
C1494 C 0.18718 0.39261 0.35773 0.0
C1495 C 0.15792 0.33572 0.35583 0.0
C1496 C 0.14014 0.30323 0.36153 0.0
C1497 C 0.18889 0.39576 0.34438 0.0
C1498 C 0.17604 0.36852 0.33664 0.0
C1499 C 0.16006 0.33887 0.34247 0.0
C1500 C 0.18028 0.37036 0.32255 0.0
C1501 C 0.20462 0.42829 0.33867 0.0
C1502 C 0.15432 0.35739 0.31428 0.0
C1503 C 0.15866 0.35942 0.301 0.0
C1504 C 0.18902 0.3742 0.29582 0.0
C1505 C 0.21488 0.38656 0.30412 0.0
C1506 C 0.21056 0.38456 0.31734 0.0
H1507 H 0.20457 0.44568 0.34541 0.0
H1508 H 0.22939 0.4357 0.33646 0.0
H1509 H 0.19289 0.42879 0.32968 0.0
H1510 H 0.13072 0.34609 0.31809 0.0
H1511 H 0.13833 0.34977 0.29482 0.0
H1512 H 0.69237 0.79847 0.40669 0.0
H1513 H 0.6881 0.79056 0.38346 0.0
H1514 H 0.73138 0.8906 0.37787 0.0
H1515 H 0.7359 0.89854 0.40096 0.0
H1516 H 0.65737 0.80659 0.36536 0.0
H1517 H 0.78477 0.86821 0.3554 0.0
H1518 H 0.76903 0.85647 0.37129 0.0
H1519 H 0.77318 0.89183 0.36433 0.0
C1520 C 0.70084 0.81868 0.40048 0.0
C1521 C 0.71446 0.84909 0.40562 0.0
C1522 C 0.6985 0.81418 0.38723 0.0
C1523 C 0.70996 0.84004 0.3789 0.0
C1524 C 0.72306 0.87035 0.38407 0.0
H1525 H 0.66492 0.85353 0.30073 0.0
H1526 H 0.66921 0.85244 0.32395 0.0
C1527 C 0.72542 0.87483 0.39728 0.0
C1528 C 0.70763 0.83553 0.36483 0.0
H1529 H 0.75106 0.85869 0.33744 0.0
C1530 C 0.67787 0.81772 0.35926 0.0
C1531 C 0.73443 0.84958 0.35686 0.0
C1532 C 0.76718 0.86732 0.36227 0.0
C1533 C 0.67409 0.8147 0.34594 0.0
C1534 C 0.70073 0.83035 0.33796 0.0
C1535 C 0.7306 0.84703 0.34354 0.0
C1536 C 0.69803 0.83065 0.32382 0.0
C1537 C 0.64155 0.79472 0.34056 0.0
C1538 C 0.71355 0.8196 0.31596 0.0
C1539 C 0.71133 0.82045 0.30264 0.0
C1540 C 0.69375 0.8326 0.29697 0.0
C1541 C 0.67851 0.8439 0.30484 0.0
C1542 C 0.68075 0.84307 0.31812 0.0
H1543 H 0.62561 0.77706 0.34761 0.0
H1544 H 0.63168 0.80999 0.33808 0.0
H1545 H 0.64196 0.7823 0.33178 0.0
H1546 H 0.7272 0.81011 0.32014 0.0
H1547 H 0.7232 0.81147 0.2968 0.0
H1548 H 0.26127 0.93819 0.2952 0.0
H1549 H 0.26326 0.94366 0.31856 0.0
H1550 H 0.21139 0.84287 0.32245 0.0
H1551 H 0.20957 0.83734 0.29925 0.0
H1552 H 0.21445 0.9222 0.33646 0.0
H1553 H 0.28804 0.86809 0.34515 0.0
H1554 H 0.28378 0.88114 0.32955 0.0
H1555 H 0.25393 0.84389 0.33569 0.0
C1556 C 0.25026 0.91728 0.30106 0.0
C1557 C 0.23537 0.88736 0.29541 0.0
C1558 C 0.25145 0.9204 0.31439 0.0
C1559 C 0.238 0.89365 0.32227 0.0
C1560 C 0.22257 0.86382 0.31659 0.0
H1561 H 0.17612 0.86775 0.40036 0.0
H1562 H 0.18209 0.87024 0.37715 0.0
C1563 C 0.22135 0.86071 0.30332 0.0
C1564 C 0.23938 0.89663 0.33642 0.0
H1565 H 0.26178 0.87352 0.36332 0.0
C1566 C 0.22506 0.91183 0.34233 0.0
C1567 C 0.25366 0.88353 0.34409 0.0
C1568 C 0.27101 0.86852 0.33831 0.0
C1569 C 0.2235 0.91313 0.3557 0.0
C1570 C 0.2362 0.89845 0.36337 0.0
C1571 C 0.25168 0.88442 0.35746 0.0
C1572 C 0.23281 0.89659 0.3775 0.0
C1573 C 0.20825 0.93024 0.3615 0.0
C1574 C 0.25934 0.90964 0.38547 0.0
C1575 C 0.25595 0.90804 0.39878 0.0
C1576 C 0.22599 0.89314 0.40434 0.0
C1577 C 0.19952 0.87951 0.39635 0.0
C1578 C 0.2029 0.88113 0.38308 0.0
H1579 H 0.20807 0.94757 0.35473 0.0
H1580 H 0.18356 0.91301 0.36393 0.0
H1581 H 0.22049 0.94267 0.37037 0.0
H1582 H 0.28266 0.92147 0.38139 0.0
H1583 H 0.27672 0.91879 0.40471 0.0
H1584 H 0.82041 0.71829 0.73888 0.0
H1585 H 0.81592 0.72142 0.7156 0.0
H1586 H 0.86744 0.67266 0.71028 0.0
H1587 H 0.8718 0.66935 0.73338 0.0
H1588 H 0.8628 0.74892 0.69708 0.0
H1589 H 0.78927 0.62123 0.68845 0.0
H1590 H 0.79472 0.63832 0.70415 0.0
H1591 H 0.82404 0.63099 0.69742 0.0
C1592 C 0.83082 0.70835 0.73272 0.0
C1593 C 0.84641 0.69356 0.73793 0.0
C1594 C 0.82816 0.71005 0.71944 0.0
C1595 C 0.8408 0.6967 0.71119 0.0
C1596 C 0.85684 0.68244 0.71643 0.0
H1597 H 0.90293 0.73347 0.63389 0.0
H1598 H 0.89539 0.72992 0.65698 0.0
C1599 C 0.85952 0.68079 0.72964 0.0
C1600 C 0.83825 0.69838 0.69709 0.0
H1601 H 0.81534 0.6531 0.67016 0.0
C1602 C 0.85206 0.72797 0.6912 0.0
C1603 C 0.82378 0.67105 0.68941 0.0
C1604 C 0.80682 0.63859 0.69518 0.0
C1605 C 0.85322 0.73096 0.67784 0.0
C1606 C 0.84062 0.70364 0.67015 0.0
C1607 C 0.82535 0.67404 0.67604 0.0
C1608 C 0.84472 0.7054 0.65606 0.0
C1609 C 0.86817 0.76339 0.67207 0.0
C1610 C 0.81871 0.69187 0.6478 0.0
C1611 C 0.823 0.69372 0.63452 0.0
C1612 C 0.85334 0.70884 0.62932 0.0
C1613 C 0.87924 0.72179 0.63761 0.0
C1614 C 0.87498 0.71999 0.65082 0.0
H1615 H 0.86777 0.78061 0.67881 0.0
H1616 H 0.89304 0.77135 0.6698 0.0
H1617 H 0.85612 0.76348 0.66312 0.0
H1618 H 0.79514 0.68026 0.65163 0.0
H1619 H 0.80266 0.68364 0.62835 0.0
H1620 H 0.39444 0.14908 0.63026 0.0
H1621 H 0.39786 0.14714 0.65362 0.0
H1622 H 0.34949 0.19949 0.65733 0.0
H1623 H 0.34584 0.20126 0.63412 0.0
H1624 H 0.42526 0.1958 0.67159 0.0
H1625 H 0.29747 0.12261 0.67988 0.0
H1626 H 0.31492 0.12696 0.66433 0.0
H1627 H 0.30773 0.15693 0.67047 0.0
C1628 C 0.38468 0.16024 0.63608 0.0
C1629 C 0.36981 0.17523 0.63038 0.0
C1630 C 0.38657 0.15907 0.64941 0.0
C1631 C 0.37339 0.17265 0.65724 0.0
C1632 C 0.35918 0.18822 0.65151 0.0
H1633 H 0.40869 0.23343 0.7355 0.0
H1634 H 0.40575 0.22783 0.71227 0.0
C1635 C 0.35731 0.18941 0.63823 0.0
C1636 C 0.3748 0.17112 0.67139 0.0
H1637 H 0.32901 0.14851 0.69815 0.0
C1638 C 0.40422 0.18521 0.6774 0.0
C1639 C 0.34735 0.15684 0.67898 0.0
C1640 C 0.31507 0.13969 0.6731 0.0
C1641 C 0.40692 0.18654 0.69077 0.0
C1642 C 0.37947 0.17384 0.69836 0.0
C1643 C 0.35005 0.1586 0.69235 0.0
C1644 C 0.38083 0.17701 0.7125 0.0
C1645 C 0.43918 0.20151 0.69667 0.0
C1646 C 0.36688 0.15032 0.72039 0.0
C1647 C 0.36835 0.1535 0.73371 0.0
C1648 C 0.38355 0.18342 0.73935 0.0
C1649 C 0.39692 0.21006 0.73143 0.0
C1650 C 0.39548 0.20689 0.71815 0.0
H1651 H 0.45664 0.20157 0.68995 0.0
H1652 H 0.44685 0.22626 0.69912 0.0
H1653 H 0.43913 0.18912 0.70554 0.0
H1654 H 0.35524 0.12703 0.71625 0.0
H1655 H 0.35793 0.13261 0.73958 0.0
H1656 H 0.88937 0.1682 0.63027 0.0
H1657 H 0.88918 0.1735 0.65348 0.0
H1658 H 0.93381 0.27412 0.64955 0.0
H1659 H 0.93367 0.26884 0.62625 0.0
H1660 H 0.93811 0.20485 0.67039 0.0
H1661 H 0.85788 0.25361 0.67172 0.0
H1662 H 0.86321 0.23591 0.65758 0.0
H1663 H 0.89211 0.27527 0.66197 0.0
C1664 C 0.89906 0.19145 0.63435 0.0
C1665 C 0.91122 0.2181 0.62647 0.0
C1666 C 0.89901 0.19445 0.64762 0.0
C1667 C 0.91106 0.22416 0.65327 0.0
C1668 C 0.92377 0.25091 0.64541 0.0
H1669 H 0.94662 0.2562 0.73579 0.0
H1670 H 0.95339 0.25662 0.71257 0.0
C1671 C 0.92375 0.24789 0.63211 0.0
C1672 C 0.91026 0.22686 0.66739 0.0
H1673 H 0.87951 0.25015 0.69138 0.0
C1674 C 0.9254 0.21486 0.67499 0.0
C1675 C 0.89339 0.23963 0.67339 0.0
C1676 C 0.87547 0.2516 0.66578 0.0
C1677 C 0.924 0.21512 0.68839 0.0
C1678 C 0.90739 0.22818 0.69438 0.0
C1679 C 0.89242 0.24035 0.68678 0.0
C1680 C 0.90381 0.22797 0.70848 0.0
C1681 C 0.93944 0.20048 0.696 0.0
C1682 C 0.87374 0.21226 0.71391 0.0
C1683 C 0.86988 0.21212 0.72713 0.0
C1684 C 0.89601 0.2277 0.7352 0.0
C1685 C 0.92613 0.24356 0.7298 0.0
C1686 C 0.93 0.24377 0.71654 0.0
H1687 H 0.9447 0.18506 0.69001 0.0
H1688 H 0.96188 0.21933 0.69999 0.0
H1689 H 0.92433 0.18645 0.70407 0.0
H1690 H 0.85319 0.19999 0.7079 0.0
H1691 H 0.84637 0.19982 0.73102 0.0
H1692 H 0.3518 0.95062 0.23664 0.0
H1693 H 0.37872 0.95743 0.21643 0.0
H1694 H 0.2913 0.92429 0.19631 0.0
H1695 H 0.26409 0.91808 0.21679 0.0
H1696 H 0.37608 0.92262 0.19605 0.0
H1697 H 0.34411 1.01192 0.18179 0.0
H1698 H 0.33702 0.99542 0.19763 0.0
H1699 H 0.31133 0.97347 0.1847 0.0
C1700 C 0.33811 0.94425 0.22793 0.0
C1701 C 0.30589 0.93424 0.22828 0.0
C1702 C 0.35359 0.94811 0.21635 0.0
C1703 C 0.33733 0.94218 0.20478 0.0
C1704 C 0.30456 0.92977 0.20511 0.0
H1705 H 0.40423 0.99279 0.12759 0.0
H1706 H 0.3745 0.96665 0.14665 0.0
C1707 C 0.2889 0.92584 0.2168 0.0
C1708 C 0.35552 0.95167 0.19259 0.0
H1709 H 0.37501 1.00242 0.16745 0.0
C1710 C 0.3757 0.93993 0.18975 0.0
C1711 C 0.35557 0.97474 0.18446 0.0
C1712 C 0.33611 0.9899 0.18731 0.0
C1713 C 0.39549 0.95031 0.17897 0.0
C1714 C 0.39536 0.97324 0.17086 0.0
C1715 C 0.37512 0.98483 0.17367 0.0
C1716 C 0.41489 0.98491 0.15909 0.0
C1717 C 0.4161 0.93644 0.17623 0.0
C1718 C 0.4479 1.0031 0.15955 0.0
C1719 C 0.46527 0.01804 0.14848 0.0
C1720 C 0.44969 1.01522 0.13689 0.0
C1721 C 0.41694 0.99558 0.13639 0.0
C1722 C 0.39982 0.98059 0.14731 0.0
H1723 H 0.40921 0.91491 0.18194 0.0
H1724 H 0.41511 0.93062 0.16594 0.0
H1725 H 0.44075 0.95395 0.17859 0.0
H1726 H 0.46006 1.0071 0.16857 0.0
H1727 H 0.49042 0.0333 0.14915 0.0
H1728 H 0.0365 0.47437 0.15069 0.0
H1729 H 0.05968 0.46791 0.17054 0.0
H1730 H 0.13177 0.46419 0.14863 0.0
H1731 H 0.10868 0.47032 0.12898 0.0
H1732 H 0.06475 0.41311 0.17459 0.0
H1733 H 0.18114 0.52078 0.17894 0.0
H1734 H 0.14976 0.51925 0.16943 0.0
H1735 H 0.17289 0.50317 0.16337 0.0
C1736 C 0.05801 0.47349 0.15021 0.0
C1737 C 0.07106 0.47326 0.13834 0.0
C1738 C 0.07107 0.46946 0.16152 0.0
C1739 C 0.09764 0.46574 0.16111 0.0
C1740 C 0.11167 0.46752 0.14927 0.0
H1741 H 0.14725 0.36145 0.21539 0.0
H1742 H 0.13932 0.38356 0.19552 0.0
C1743 C 0.09845 0.47107 0.13803 0.0
C1744 C 0.10863 0.45628 0.17268 0.0
H1745 H 0.1727 0.47692 0.19166 0.0
C1746 C 0.08829 0.42717 0.17837 0.0
C1747 C 0.13942 0.4745 0.17759 0.0
C1748 C 0.16204 0.5063 0.1721 0.0
C1749 C 0.09797 0.41564 0.18867 0.0
C1750 C 0.12896 0.43353 0.1934 0.0
C1751 C 0.14916 0.46292 0.18788 0.0
C1752 C 0.13962 0.42307 0.20476 0.0
C1753 C 0.0748 0.38455 0.19456 0.0
C1754 C 0.14403 0.43875 0.2164 0.0
C1755 C 0.14851 0.42619 0.22766 0.0
C1756 C 0.14928 0.39798 0.2275 0.0
C1757 C 0.14741 0.38353 0.21574 0.0
C1758 C 0.14247 0.39595 0.20443 0.0
H1759 H 0.05047 0.37613 0.1912 0.0
H1760 H 0.08133 0.36669 0.19199 0.0
H1761 H 0.07528 0.3864 0.20513 0.0
H1762 H 0.14197 0.45965 0.21692 0.0
H1763 H 0.1495 0.43757 0.23663 0.0
H1764 H 0.67884 0.72899 0.23634 0.0
H1765 H 0.653 0.70231 0.21678 0.0
H1766 H 0.67171 0.79046 0.20032 0.0
H1767 H 0.69851 0.81785 0.22019 0.0
H1768 H 0.60303 0.69538 0.20293 0.0
H1769 H 0.71352 0.75979 0.17503 0.0
H1770 H 0.71292 0.76164 0.1922 0.0
H1771 H 0.70009 0.78355 0.18271 0.0
C1772 C 0.67745 0.74289 0.22861 0.0
C1773 C 0.69131 0.7757 0.22973 0.0
C1774 C 0.66239 0.72745 0.21741 0.0
C1775 C 0.66081 0.74429 0.20694 0.0
C1776 C 0.67316 0.77698 0.20819 0.0
H1777 H 0.61615 0.6744 0.12905 0.0
H1778 H 0.62211 0.70428 0.14843 0.0
C1779 C 0.68827 0.79262 0.21956 0.0
C1780 C 0.64798 0.72723 0.19465 0.0
H1781 H 0.67 0.71951 0.16458 0.0
C1782 C 0.61754 0.7009 0.19448 0.0
C1783 C 0.66695 0.73412 0.18364 0.0
C1784 C 0.70027 0.76112 0.18334 0.0
C1785 C 0.60578 0.68119 0.18372 0.0
C1786 C 0.62508 0.68764 0.17285 0.0
C1787 C 0.65515 0.71446 0.1729 0.0
C1788 C 0.61518 0.66698 0.16133 0.0
C1789 C 0.57282 0.65364 0.18408 0.0
C1790 C 0.60792 0.63539 0.16205 0.0
C1791 C 0.604 0.61794 0.15086 0.0
C1792 C 0.60775 0.63205 0.13885 0.0
C1793 C 0.61309 0.66291 0.1382 0.0
C1794 C 0.61665 0.6801 0.14929 0.0
H1795 H 0.55832 0.657 0.19133 0.0
H1796 H 0.56124 0.64982 0.17463 0.0
H1797 H 0.57359 0.63214 0.18664 0.0
H1798 H 0.6072 0.62483 0.1712 0.0
H1799 H 0.60048 0.59442 0.15162 0.0
H1800 H 0.0372 0.47652 0.88353 0.0
H1801 H 1.01321 0.44978 0.86322 0.0
H1802 H 0.966 0.36093 0.88296 0.0
H1803 H 0.98916 0.38723 0.90297 0.0
H1804 H 1.02361 0.40568 0.85217 0.0
H1805 H 0.89629 0.35215 0.86036 0.0
H1806 H 0.92497 0.38296 0.87041 0.0
H1807 H 0.91477 0.34272 0.87299 0.0
C1808 C 1.02097 0.45145 0.88352 0.0
C1809 C 1.01514 0.43396 0.89481 0.0
C1810 C 1.00739 0.43614 0.87194 0.0
C1811 C 0.9874 0.40327 0.87154 0.0
C1812 C 0.98062 0.38626 0.88297 0.0
H1813 H 0.93008 0.25527 0.81473 0.0
H1814 H 0.93635 0.28469 0.83465 0.0
C1815 C 0.99419 0.40139 0.89442 0.0
C1816 C 0.97644 0.38596 0.8592 0.0
H1817 H 0.91169 0.32836 0.84384 0.0
C1818 C 0.99908 0.38918 0.85028 0.0
C1819 C 0.94443 0.36405 0.85674 0.0
C1820 C 0.91872 0.36049 0.86559 0.0
C1821 C 0.9908 0.37052 0.83923 0.0
C1822 C 0.95892 0.34816 0.83691 0.0
C1823 C 0.93614 0.34523 0.84569 0.0
C1824 C 0.94923 0.32862 0.82514 0.0
C1825 C 1.01637 0.37431 0.83023 0.0
C1826 C 0.95284 0.34311 0.81326 0.0
C1827 C 0.94932 0.32649 0.80202 0.0
C1828 C 0.94178 0.29489 0.80237 0.0
C1829 C 0.93556 0.27949 0.8142 0.0
C1830 C 0.93934 0.29634 0.82556 0.0
H1831 H 0.03999 0.38763 0.83465 0.0
H1832 H 1.01247 0.35105 0.82711 0.0
H1833 H 1.01606 0.38729 0.82161 0.0
H1834 H 0.96006 0.36782 0.81269 0.0
H1835 H 0.95416 0.33892 0.79301 0.0
H1836 H 0.61251 0.63646 0.88495 0.0
H1837 H 0.64721 0.6487 0.86652 0.0
H1838 H 0.66254 0.57228 0.87641 0.0
H1839 H 0.62826 0.56026 0.89499 0.0
H1840 H 0.71772 0.62622 0.87194 0.0
H1841 H 0.63503 0.60598 0.83239 0.0
H1842 H 0.6357 0.63278 0.84415 0.0
H1843 H 0.62194 0.59251 0.84844 0.0
C1844 C 0.62267 0.62179 0.88304 0.0
C1845 C 0.61749 0.59731 0.89144 0.0
C1846 C 0.64257 0.62882 0.87248 0.0
C1847 C 0.65748 0.61133 0.86998 0.0
C1848 C 0.65142 0.58617 0.87811 0.0
H1849 H 0.75381 0.63102 0.79824 0.0
H1850 H 0.72206 0.60935 0.81745 0.0
C1851 C 0.63159 0.57916 0.88868 0.0
C1852 C 0.68056 0.62026 0.85932 0.0
H1853 H 0.68936 0.63354 0.82718 0.0
C1854 C 0.71145 0.6276 0.86213 0.0
C1855 C 0.67246 0.62179 0.84648 0.0
C1856 C 0.63941 0.61255 0.84264 0.0
C1857 C 0.73448 0.63697 0.85254 0.0
C1858 C 0.72664 0.63961 0.83977 0.0
C1859 C 0.6956 0.63173 0.83695 0.0
C1860 C 0.7499 0.65046 0.82909 0.0
C1861 C 0.76683 0.64349 0.85616 0.0
C1862 C 0.77718 0.6803 0.8293 0.0
C1863 C 0.79589 0.69244 0.81833 0.0
C1864 C 0.78745 0.67503 0.80695 0.0
C1865 C 0.76131 0.64458 0.80698 0.0
C1866 C 0.74289 0.63235 0.81793 0.0
H1867 H 0.76649 0.6315 0.86521 0.0
H1868 H 0.77715 0.63579 0.84855 0.0
H1869 H 0.78229 0.66911 0.8576 0.0
H1870 H 0.78283 0.69512 0.83764 0.0
H1871 H 0.81523 0.7164 0.81842 0.0
H1872 H 0.3847 0.15397 0.81741 0.0
H1873 H 0.40873 0.14926 0.83739 0.0
H1874 H 0.45323 0.1067 0.81645 0.0
H1875 H 0.43069 0.11239 0.79682 0.0
H1876 H 0.39781 0.0978 0.8488 0.0
H1877 H 0.52402 0.16064 0.83887 0.0
H1878 H 0.49673 0.16528 0.82888 0.0
H1879 H 0.50469 0.1337 0.82607 0.0
C1880 C 0.40049 0.14465 0.81709 0.0
C1881 C 0.40573 0.1335 0.80556 0.0
C1882 C 0.41408 0.14174 0.82851 0.0
C1883 C 0.43335 0.12802 0.8285 0.0
C1884 C 0.43943 0.11824 0.81682 0.0
H1885 H 0.43461 1.00154 0.8839 0.0
H1886 H 0.42832 0.02907 0.86572 0.0
C1887 C 0.42609 0.12119 0.80555 0.0
C1888 C 0.44407 0.12001 0.84059 0.0
H1889 H 0.50573 0.11545 0.85336 0.0
C1890 C 0.4216 0.10229 0.84989 0.0
C1891 C 0.47527 0.12626 0.84233 0.0
C1892 C 0.50155 0.14785 0.83355 0.0
C1893 C 0.42884 0.08893 0.86031 0.0
C1894 C 0.45911 0.09224 0.86124 0.0
C1895 C 0.48223 0.1119 0.85248 0.0
C1896 C 0.46668 0.0748 0.87102 0.0
C1897 C 0.40376 0.07132 0.87018 0.0
C1898 C 0.49229 0.09057 0.8794 0.0
C1899 C 0.49674 0.07442 0.88954 0.0
C1900 C 0.47555 0.04231 0.89149 0.0
C1901 C 0.45149 0.02622 0.88255 0.0
C1902 C 0.44747 0.04212 0.8723 0.0
H1903 H 0.38709 0.0803 0.87069 0.0
H1904 H 0.39012 0.04616 0.86749 0.0
H1905 H 0.41401 0.07321 0.8798 0.0
H1906 H 0.50779 0.11569 0.87855 0.0
H1907 H 0.51524 0.08757 0.89635 0.0
H1908 H 0.96982 0.32259 0.5527 0.0
H1909 H 1.00004 0.32662 0.53362 0.0
H1910 H 0.98409 0.23326 0.54032 0.0
H1911 H 0.95286 0.22884 0.55942 0.0
H1912 H 0.05264 0.28913 0.53733 0.0
H1913 H 0.97117 0.27691 0.49818 0.0
H1914 H 0.97294 0.30105 0.51141 0.0
H1915 H 0.95765 0.25976 0.51379 0.0
C1916 C 0.97183 0.30248 0.54987 0.0
C1917 C 0.95858 0.27522 0.55743 0.0
C1918 C 0.9893 0.30491 0.53901 0.0
C1919 C 0.99442 0.28032 0.53555 0.0
C1920 C 0.98034 0.2525 0.54281 0.0
H1921 H 0.09016 0.30328 0.4632 0.0
H1922 H 0.05841 0.27786 0.48206 0.0
C1923 C 0.96221 0.24982 0.55362 0.0
C1924 C 1.01613 0.28512 0.52482 0.0
H1925 H 1.02508 0.30001 0.49283 0.0
C1926 C 0.04652 0.29095 0.52754 0.0
C1927 C 1.00815 0.28754 0.51208 0.0
C1928 C 0.97564 0.28078 0.5086 0.0
C1929 C 0.06949 0.30032 0.51792 0.0
C1930 C 0.06196 0.3043 0.50526 0.0
C1931 C 0.03109 0.29715 0.5025 0.0
C1932 C 0.0856 0.31697 0.49473 0.0
C1933 C 0.10163 0.30606 0.52145 0.0
C1934 C 0.11251 0.34697 0.4956 0.0
C1935 C 0.13124 0.36128 0.48481 0.0
C1936 C 0.1232 0.34593 0.47296 0.0
C1937 C 0.09743 0.31531 0.47228 0.0
C1938 C 0.07901 0.30089 0.48305 0.0
H1939 H 0.10078 0.29263 0.53012 0.0
H1940 H 0.11219 0.29951 0.51353 0.0
H1941 H 0.11713 0.33138 0.52354 0.0
H1942 H 0.11778 0.36029 0.50437 0.0
H1943 H 0.15029 0.38533 0.48548 0.0
H1944 H 0.77912 0.83067 0.46634 0.0
H1945 H 0.80399 0.82415 0.48545 0.0
H1946 H 0.71469 0.77989 0.50472 0.0
H1947 H 0.69006 0.78748 0.48569 0.0
H1948 H 0.76351 0.81426 0.52135 0.0
H1949 H 0.78937 0.73666 0.49158 0.0
H1950 H 0.80715 0.77638 0.48594 0.0
H1951 H 0.76513 0.7521 0.48599 0.0
C1952 C 0.76515 0.82092 0.47487 0.0
C1953 C 0.73283 0.81017 0.47466 0.0
C1954 C 0.77925 0.81667 0.48572 0.0
C1955 C 0.76109 0.8007 0.49643 0.0
C1956 C 0.72922 0.79215 0.49657 0.0
H1957 H 0.77716 0.68013 0.55106 0.0
H1958 H 0.7702 0.7052 0.5321 0.0
C1959 C 0.71518 0.79678 0.48575 0.0
C1960 C 0.77437 0.7902 0.50689 0.0
H1961 H 0.80602 0.74339 0.51298 0.0
C1962 C 0.77304 0.79898 0.51952 0.0
C1963 C 0.7864 0.7698 0.50453 0.0
C1964 C 0.78689 0.7579 0.49131 0.0
C1965 C 0.78307 0.78775 0.52983 0.0
C1966 C 0.79536 0.76758 0.52745 0.0
C1967 C 0.79702 0.75913 0.51481 0.0
C1968 C 0.80371 0.75258 0.53798 0.0
C1969 C 0.77912 0.79653 0.54322 0.0
C1970 C 0.82612 0.77063 0.5473 0.0
C1971 C 0.83027 0.75619 0.5581 0.0
C1972 C 0.81255 0.72346 0.55963 0.0
C1973 C 0.79179 0.70531 0.5499 0.0
C1974 C 0.78756 0.7197 0.53914 0.0
H1975 H 0.76288 0.80606 0.54355 0.0
H1976 H 0.77002 0.77592 0.54969 0.0
H1977 H 0.8022 0.81489 0.54691 0.0
H1978 H 0.83936 0.79597 0.54652 0.0
H1979 H 0.84574 0.77076 0.56565 0.0
H1980 H 0.29937 1.01261 0.46349 0.0
H1981 H 0.3041 0.03831 0.48379 0.0
H1982 H 0.25427 0.94804 0.50236 0.0
H1983 H 0.25027 0.92185 0.48179 0.0
H1984 H 0.2657 0.03921 0.50145 0.0
H1985 H 0.33531 0.98931 0.52226 0.0
H1986 H 0.325 0.98533 0.50559 0.0
H1987 H 0.29646 0.96072 0.51726 0.0
C1988 C 0.28914 0.99805 0.47186 0.0
C1989 C 0.27492 0.96516 0.47107 0.0
C1990 C 0.29177 1.01288 0.48349 0.0
C1991 C 0.28025 0.99531 0.49472 0.0
C1992 C 0.2641 0.96222 0.49388 0.0
H1993 H 0.31413 0.05938 0.57325 0.0
H1994 H 0.29018 0.03064 0.55366 0.0
C1995 C 0.2615 0.94721 0.48212 0.0
C1996 C 0.28724 1.01226 0.50719 0.0
H1997 H 0.32749 0.0238 0.53514 0.0
C1998 C 0.27902 0.03566 0.50886 0.0
C1999 C 0.30502 1.00805 0.51682 0.0
C2000 C 0.31626 0.98473 0.51541 0.0
C2001 C 0.28811 0.05484 0.51981 0.0
C2002 C 0.30604 0.05071 0.52935 0.0
C2003 C 0.31375 0.02699 0.52781 0.0
C2004 C 0.31688 0.07021 0.54115 0.0
C2005 C 0.27835 0.07927 0.52115 0.0
C2006 C 0.33916 0.10254 0.54074 0.0
C2007 C 0.3529 0.11929 0.55205 0.0
C2008 C 0.34471 0.10373 0.56387 0.0
C2009 C 0.32105 0.07197 0.56426 0.0
C2010 C 0.30734 0.05544 0.55306 0.0
H2011 H 0.25928 0.07518 0.51439 0.0
H2012 H 0.27034 0.0795 0.53103 0.0
H2013 H 0.29879 0.1028 0.51915 0.0
H2014 H 0.34718 0.11439 0.53165 0.0
H2015 H 0.37131 0.14363 0.55148 0.0
H2016 H 0.61649 0.50089 0.10113 0.0
H2017 H 0.60476 0.44647 0.09962 0.0
H2018 H 0.5253 0.41734 0.1245 0.0
H2019 H 0.5364 0.47158 0.12585 0.0
H2020 H 0.60011 0.40258 0.11668 0.0
H2021 H 0.4844 0.3619 0.09392 0.0
H2022 H 0.51262 0.40295 0.09607 0.0
H2023 H 0.48821 0.38008 0.10915 0.0
C2024 C 0.59668 0.48302 0.10641 0.0
C2025 C 0.57725 0.49075 0.11353 0.0
C2026 C 0.58996 0.45181 0.1055 0.0
C2027 C 0.56366 0.42756 0.11168 0.0
C2028 C 0.54518 0.43542 0.11933 0.0
H2029 H 0.47994 0.22389 0.11463 0.0
H2030 H 0.49509 0.27885 0.11837 0.0
C2031 C 0.55175 0.46658 0.12018 0.0
C2032 C 0.55526 0.39411 0.10989 0.0
H2033 H 0.49638 0.32248 0.09981 0.0
C2034 C 0.57746 0.38512 0.11295 0.0
C2035 C 0.52574 0.37121 0.10495 0.0
C2036 C 0.50148 0.37951 0.10071 0.0
C2037 C 0.57077 0.35389 0.11145 0.0
C2038 C 0.54118 0.33103 0.10663 0.0
C2039 C 0.51899 0.33997 0.10357 0.0
C2040 C 0.5328 0.29772 0.10459 0.0
C2041 C 0.59521 0.34547 0.11523 0.0
C2042 C 0.54878 0.28994 0.09552 0.0
C2043 C 0.54013 0.25849 0.09334 0.0
C2044 C 0.51531 0.23409 0.1002 0.0
C2045 C 0.49941 0.24203 0.10929 0.0
C2046 C 0.50794 0.27346 0.1114 0.0
H2047 H 0.61364 0.36371 0.12141 0.0
H2048 H 0.5843 0.32262 0.12034 0.0
H2049 H 0.60667 0.34319 0.10651 0.0
H2050 H 0.56773 0.30819 0.09001 0.0
H2051 H 0.55303 0.2533 0.08633 0.0
H2052 H 0.57774 0.1481 0.10261 0.0
H2053 H 0.63206 0.19088 0.10128 0.0
H2054 H 0.66331 0.13279 0.11952 0.0
H2055 H 0.60898 0.0896 0.12086 0.0
H2056 H 0.69239 0.20037 0.12838 0.0
H2057 H 0.69624 0.18497 0.07594 0.0
H2058 H 0.66341 0.18758 0.08195 0.0
H2059 H 0.66758 0.15447 0.08613 0.0
C2060 C 0.59602 0.1444 0.10651 0.0
C2061 C 0.58882 0.11518 0.1118 0.0
C2062 C 0.62714 0.16893 0.10568 0.0
C2063 C 0.65176 0.16491 0.11016 0.0
C2064 C 0.64466 0.13635 0.11596 0.0
H2065 H 0.85131 0.27018 0.09435 0.0
H2066 H 0.79638 0.23018 0.09731 0.0
C2067 C 0.61354 0.11167 0.11672 0.0
C2068 C 0.68494 0.19003 0.10832 0.0
H2069 H 0.74095 0.22726 0.08537 0.0
C2070 C 0.70302 0.20633 0.11898 0.0
C2071 C 0.69884 0.19755 0.09606 0.0
C2072 C 0.68071 0.18017 0.08433 0.0
C2073 C 0.73454 0.23022 0.11769 0.0
C2074 C 0.74831 0.238 0.10541 0.0
C2075 C 0.73031 0.22143 0.09477 0.0
C2076 C 0.78162 0.26273 0.10343 0.0
C2077 C 0.75311 0.24665 0.12947 0.0
C2078 C 0.79157 0.29449 0.10568 0.0
C2079 C 0.82299 0.31763 0.10379 0.0
C2080 C 0.84525 0.30953 0.09965 0.0
C2081 C 0.83496 0.27759 0.09732 0.0
C2082 C 0.80353 0.25454 0.09912 0.0
H2083 H 0.74096 0.23416 0.13835 0.0
H2084 H 0.77661 0.24871 0.12918 0.0
H2085 H 0.7566 0.27074 0.12982 0.0
H2086 H 0.77496 0.30142 0.10882 0.0
H2087 H 0.82973 0.34192 0.10549 0.0
H2088 H 0.73375 0.51327 0.09496 0.0
H2089 H 0.77228 0.4962 0.09845 0.0
H2090 H 0.84255 0.59122 0.10761 0.0
H2091 H 0.80426 0.60836 0.10437 0.0
H2092 H 0.83169 0.51796 0.08602 0.0
H2093 H 0.84589 0.53979 0.13816 0.0
H2094 H 0.81308 0.53708 0.12935 0.0
H2095 H 0.85051 0.57257 0.12887 0.0
C2096 C 0.75734 0.53051 0.0978 0.0
C2097 C 0.76581 0.56224 0.09936 0.0
C2098 C 0.77939 0.52072 0.09974 0.0
C2099 C 0.81024 0.54233 0.10346 0.0
C2100 C 0.8188 0.574 0.10494 0.0
H2101 H 0.98503 0.54796 0.11864 0.0
H2102 H 0.94042 0.55646 0.11689 0.0
C2103 C 0.7969 0.58383 0.10293 0.0
C2104 C 0.83378 0.5321 0.10557 0.0
H2105 H 0.88324 0.52994 0.12798 0.0
C2106 C 0.84275 0.52024 0.09522 0.0
C2107 C 0.84827 0.53514 0.11757 0.0
C2108 C 0.83881 0.54657 0.12917 0.0
C2109 C 0.86661 0.51252 0.09642 0.0
C2110 C 0.88145 0.51598 0.10839 0.0
C2111 C 0.87197 0.52724 0.1188 0.0
C2112 C 0.90791 0.50961 0.11018 0.0
C2113 C 0.87657 0.50201 0.08468 0.0
C2114 C 0.90447 0.48008 0.10737 0.0
C2115 C 0.93011 0.47512 0.10832 0.0
C2116 C 0.95975 0.4995 0.11223 0.0
C2117 C 0.96268 0.52858 0.11559 0.0
C2118 C 0.93712 0.53354 0.11458 0.0
H2119 H 0.86876 0.50832 0.07577 0.0
H2120 H 0.90245 0.51261 0.08435 0.0
H2121 H 0.8659 0.47609 0.0849 0.0
H2122 H 0.88202 0.46092 0.1043 0.0
H2123 H 0.92681 0.45235 0.10572 0.0
H2124 H 0.477 0.51853 0.9113 0.0
H2125 H 0.42268 0.50736 0.91247 0.0
H2126 H 0.45221 0.59024 0.93536 0.0
H2127 H 0.50641 0.60162 0.93428 0.0
H2128 H 0.40156 0.53523 0.94582 0.0
H2129 H 0.37964 0.55178 0.89517 0.0
H2130 H 0.39541 0.52621 0.89773 0.0
H2131 H 0.41865 0.56715 0.90161 0.0
C2132 C 0.47205 0.53466 0.91644 0.0
C2133 C 0.49623 0.561 0.92269 0.0
C2134 C 0.44094 0.52827 0.91706 0.0
C2135 C 0.43335 0.54808 0.92394 0.0
C2136 C 0.45748 0.57465 0.92999 0.0
H2137 H 0.2556 0.54699 0.92798 0.0
H2138 H 0.31042 0.56111 0.92499 0.0
C2139 C 0.48854 0.58113 0.92933 0.0
C2140 C 0.40014 0.54028 0.92547 0.0
H2141 H 0.33568 0.5303 0.90906 0.0
C2142 C 0.38718 0.53421 0.93778 0.0
C2143 C 0.38146 0.53923 0.915 0.0
C2144 C 0.39446 0.54668 0.90163 0.0
C2145 C 0.35598 0.52663 0.93989 0.0
C2146 C 0.33706 0.52486 0.92939 0.0
C2147 C 0.35014 0.53146 0.91709 0.0
C2148 C 0.30362 0.51607 0.93103 0.0
C2149 C 0.34355 0.52092 0.95336 0.0
C2150 C 0.28146 0.48594 0.93529 0.0
C2151 C 0.25002 0.47765 0.9369 0.0
C2152 C 0.23992 0.49933 0.9343 0.0
C2153 C 0.26227 0.52951 0.92996 0.0
C2154 C 0.29371 0.53771 0.92829 0.0
H2155 H 0.36275 0.52998 0.96053 0.0
H2156 H 0.32915 0.53219 0.955 0.0
H2157 H 0.32839 0.49529 0.95492 0.0
H2158 H 0.28843 0.46867 0.93726 0.0
H2159 H 0.23353 0.45398 0.93996 0.0
H2160 H 0.56699 0.98133 0.91397 0.0
H2161 H 0.57973 0.9393 0.91487 0.0
H2162 H 0.48616 0.87472 0.92795 0.0
H2163 H 0.47303 0.9165 0.92697 0.0
H2164 H 0.57901 0.9061 0.9363 0.0
H2165 H 0.49769 0.82438 0.89975 0.0
H2166 H 0.5066 0.86463 0.90099 0.0
H2167 H 0.47905 0.83539 0.91176 0.0
C2168 C 0.54889 0.95811 0.91687 0.0
C2169 C 0.51887 0.95243 0.92035 0.0
C2170 C 0.55629 0.93407 0.91741 0.0
C2171 C 0.53386 0.90368 0.92135 0.0
C2172 C 0.50372 0.89776 0.92463 0.0
H2173 H 0.53925 0.73171 0.93652 0.0
H2174 H 0.52423 0.7719 0.93382 0.0
C2175 C 0.49628 0.9218 0.9241 0.0
C2176 C 0.54264 0.8788 0.92272 0.0
H2177 H 0.5244 0.80543 0.91264 0.0
C2178 C 0.56717 0.88417 0.93107 0.0
C2179 C 0.52709 0.85004 0.91597 0.0
C2180 C 0.50132 0.84326 0.90652 0.0
C2181 C 0.57627 0.86151 0.93299 0.0
C2182 C 0.56088 0.83281 0.92618 0.0
C2183 C 0.53625 0.82738 0.91786 0.0
C2184 C 0.57003 0.8082 0.92756 0.0
C2185 C 0.60178 0.86825 0.94258 0.0
C2186 C 0.60066 0.81491 0.92475 0.0
C2187 C 0.60933 0.79195 0.92627 0.0
C2188 C 0.5875 0.76154 0.93054 0.0
C2189 C 0.55665 0.75472 0.93311 0.0
C2190 C 0.54803 0.77775 0.93162 0.0
H2191 H 0.60484 0.88673 0.94946 0.0
H2192 H 0.59663 0.84676 0.94799 0.0
H2193 H 0.62432 0.87672 0.93747 0.0
H2194 H 0.61789 0.83794 0.92128 0.0
H2195 H 0.6331 0.79794 0.92394 0.0
H2196 H 0.28408 0.83779 0.9244 0.0
H2197 H 0.24528 0.78237 0.92107 0.0
H2198 H 0.31459 0.75661 0.93065 0.0
H2199 H 0.35344 0.81199 0.93423 0.0
H2200 H 0.24791 0.73777 0.90392 0.0
H2201 H 0.23999 0.7023 0.9548 0.0
H2202 H 0.25687 0.74281 0.94996 0.0
H2203 H 0.27878 0.72287 0.94813 0.0
C2204 C 0.29105 0.82035 0.9259 0.0
C2205 C 0.32189 0.82942 0.92968 0.0
C2206 C 0.26888 0.78867 0.92391 0.0
C2207 C 0.27689 0.76527 0.92575 0.0
C2208 C 0.30773 0.77421 0.92933 0.0
H2209 H 0.15902 0.56014 0.92561 0.0
H2210 H 0.20404 0.61355 0.92597 0.0
C2211 C 0.33 0.80593 0.93126 0.0
C2212 C 0.25287 0.73159 0.92395 0.0
H2213 H 0.21032 0.66227 0.93999 0.0
C2214 C 0.23972 0.72122 0.9118 0.0
C2215 C 0.24232 0.70995 0.93421 0.0
C2216 C 0.25497 0.71994 0.94755 0.0
C2217 C 0.21637 0.68983 0.90961 0.0
C2218 C 0.20524 0.66833 0.91994 0.0
C2219 C 0.2188 0.67864 0.93205 0.0
C2220 C 0.17859 0.6355 0.91857 0.0
C2221 C 0.20421 0.67998 0.89621 0.0
C2222 C 0.14925 0.62982 0.91418 0.0
C2223 C 0.1235 0.59928 0.91387 0.0
C2224 C 0.1263 0.57359 0.9181 0.0
C2225 C 0.15591 0.57923 0.92224 0.0
C2226 C 0.18171 0.60984 0.92249 0.0
H2227 H 0.2217 0.69546 0.88901 0.0
H2228 H 0.19809 0.65535 0.89432 0.0
H2229 H 0.18283 0.68183 0.8949 0.0
H2230 H 0.14591 0.64917 0.9114 0.0
H2231 H 0.10111 0.59603 0.91074 0.0
H2232 H 0.28174 0.83297 0.43365 0.0
H2233 H 0.27025 0.77858 0.4327 0.0
H2234 H 0.19325 0.75113 0.4588 0.0
H2235 H 0.20407 0.80533 0.45958 0.0
H2236 H 0.26758 0.7362 0.44999 0.0
H2237 H 0.14949 0.6933 0.42918 0.0
H2238 H 0.17773 0.73453 0.43071 0.0
H2239 H 0.15471 0.71257 0.44425 0.0
C2240 C 0.26254 0.81549 0.43931 0.0
C2241 C 0.24366 0.82363 0.44661 0.0
C2242 C 0.25595 0.78429 0.43873 0.0
C2243 C 0.23036 0.7605 0.44541 0.0
C2244 C 0.21254 0.76883 0.45324 0.0
H2245 H 0.14925 0.55782 0.4516 0.0
H2246 H 0.16471 0.61309 0.45464 0.0
C2247 C 0.21895 0.79997 0.45376 0.0
C2248 C 0.22194 0.72698 0.44394 0.0
H2249 H 0.16226 0.65448 0.43518 0.0
C2250 C 0.24458 0.71838 0.44671 0.0
C2251 C 0.19197 0.70363 0.43957 0.0
C2252 C 0.16717 0.71146 0.43563 0.0
C2253 C 0.23789 0.68711 0.44546 0.0
C2254 C 0.20784 0.66381 0.44125 0.0
C2255 C 0.18522 0.67235 0.43848 0.0
C2256 C 0.19937 0.63041 0.4396 0.0
C2257 C 0.26281 0.67906 0.44885 0.0
C2258 C 0.21356 0.62171 0.43007 0.0
C2259 C 0.20467 0.59008 0.42826 0.0
C2260 C 0.18151 0.56649 0.43601 0.0
C2261 C 0.16745 0.57537 0.44558 0.0
C2262 C 0.17614 0.60695 0.4473 0.0
H2263 H 0.28235 0.69814 0.45434 0.0
H2264 H 0.25267 0.65707 0.45454 0.0
H2265 H 0.27261 0.67519 0.43996 0.0
H2266 H 0.23125 0.63936 0.42391 0.0
H2267 H 0.21609 0.5841 0.42085 0.0
H2268 H 0.49888 0.65828 0.41772 0.0
H2269 H 0.44266 0.62057 0.42012 0.0
H2270 H 0.46028 0.593 0.45687 0.0
H2271 H 0.51627 0.63066 0.45459 0.0
H2272 H 0.41549 0.55387 0.42385 0.0
H2273 H 0.38666 0.6097 0.46354 0.0
H2274 H 0.42127 0.63096 0.45378 0.0
H2275 H 0.42041 0.60548 0.46626 0.0
C2276 C 0.4907 0.64449 0.42638 0.0
C2277 C 0.5121 0.64745 0.43595 0.0
C2278 C 0.4586 0.62287 0.42772 0.0
C2279 C 0.44719 0.60418 0.43873 0.0
C2280 C 0.46843 0.60744 0.44837 0.0
H2281 H 0.27974 0.42651 0.45197 0.0
H2282 H 0.33277 0.47135 0.45029 0.0
C2283 C 0.5005 0.6288 0.44699 0.0
C2284 C 0.41341 0.58001 0.4399 0.0
H2285 H 0.34822 0.55702 0.45836 0.0
C2286 C 0.40072 0.5547 0.43133 0.0
C2287 C 0.39407 0.58119 0.44961 0.0
C2288 C 0.40612 0.60841 0.45877 0.0
C2289 C 0.36956 0.53007 0.43246 0.0
C2290 C 0.35056 0.53066 0.44246 0.0
C2291 C 0.36289 0.55646 0.45078 0.0
C2292 C 0.31809 0.50423 0.4445 0.0
C2293 C 0.35714 0.50348 0.42297 0.0
C2294 C 0.29208 0.50803 0.44222 0.0
C2295 C 0.26152 0.48233 0.44316 0.0
C2296 C 0.25639 0.45235 0.44651 0.0
C2297 C 0.2826 0.4491 0.44934 0.0
C2298 C 0.31305 0.47472 0.44833 0.0
H2299 H 0.37221 0.50969 0.41435 0.0
H2300 H 0.35637 0.4827 0.42751 0.0
H2301 H 0.33294 0.49673 0.41998 0.0
H2302 H 0.29545 0.53066 0.43931 0.0
H2303 H 0.24199 0.4858 0.44091 0.0
H2304 H 0.59192 0.78587 0.43885 0.0
H2305 H 0.54728 0.79454 0.43638 0.0
H2306 H 0.60258 0.88783 0.45171 0.0
H2307 H 0.64718 0.87956 0.45425 0.0
H2308 H 0.51579 0.81639 0.45531 0.0
H2309 H 0.57423 0.89808 0.4148 0.0
H2310 H 0.5856 0.87025 0.42014 0.0
H2311 H 0.59764 0.90578 0.42895 0.0
C2312 C 0.5945 0.80809 0.44188 0.0
C2313 C 0.62337 0.83209 0.44666 0.0
C2314 C 0.56893 0.81298 0.44045 0.0
C2315 C 0.57178 0.842 0.44368 0.0
C2316 C 0.6 0.8654 0.449 0.0
H2317 H 0.4684 0.93955 0.43605 0.0
H2318 H 0.50645 0.92221 0.43935 0.0
C2319 C 0.62548 0.86053 0.45049 0.0
C2320 C 0.546 0.84862 0.44097 0.0
H2321 H 0.52799 0.89521 0.42282 0.0
C2322 C 0.51826 0.83341 0.44814 0.0
C2323 C 0.5493 0.87081 0.43161 0.0
C2324 C 0.57816 0.88706 0.42333 0.0
C2325 C 0.49419 0.84071 0.44651 0.0
C2326 C 0.49772 0.86333 0.43727 0.0
C2327 C 0.52524 0.87796 0.42992 0.0
C2328 C 0.4739 0.87326 0.43536 0.0
C2329 C 0.46579 0.82502 0.45506 0.0
C2330 C 0.44284 0.85162 0.43188 0.0
C2331 C 0.4209 0.86153 0.42997 0.0
C2332 C 0.42968 0.89337 0.43134 0.0
C2333 C 0.46088 0.91495 0.43471 0.0
C2334 C 0.48267 0.90503 0.43668 0.0
H2335 H 0.47025 0.81463 0.46367 0.0
H2336 H 0.45841 0.84193 0.45815 0.0
H2337 H 0.44609 0.8058 0.44972 0.0
H2338 H 0.43562 0.82711 0.43049 0.0
H2339 H 0.3972 0.84433 0.42724 0.0
H2340 H 0.90003 0.80573 0.25415 0.0
H2341 H 0.95509 0.8213 0.25078 0.0
H2342 H 0.98338 0.90027 0.27595 0.0
H2343 H 0.92836 0.88462 0.27948 0.0
H2344 H 1.00424 0.8741 0.241 0.0
H2345 H 0.02981 0.86015 0.29136 0.0
H2346 H 0.99043 0.84585 0.28561 0.0
H2347 H 1.01515 0.88675 0.28942 0.0
C2348 C 0.91796 0.82651 0.25893 0.0
C2349 C 0.90967 0.84377 0.26717 0.0
C2350 C 0.94948 0.83535 0.25702 0.0
C2351 C 0.97352 0.86165 0.26328 0.0
C2352 C 0.96535 0.87937 0.27127 0.0
H2353 H 0.17726 0.94699 0.26503 0.0
H2354 H 0.12353 0.93705 0.26631 0.0
C2355 C 0.93382 0.87043 0.27327 0.0
C2356 C 1.00703 0.87052 0.26139 0.0
H2357 H 0.07321 0.8835 0.27727 0.0
C2358 C 1.01927 0.87606 0.24894 0.0
C2359 C 0.02678 0.8731 0.27172 0.0
C2360 C 1.01485 0.86586 0.28527 0.0
C2361 C 0.05066 0.88443 0.24657 0.0
C2362 C 0.07035 0.88704 0.2569 0.0
C2363 C 0.05819 0.88168 0.26935 0.0
C2364 C 0.10343 0.89454 0.25506 0.0
C2365 C 0.06263 0.89092 0.23303 0.0
C2366 C 0.11023 0.87416 0.24819 0.0
C2367 C 0.14106 0.87982 0.24742 0.0
C2368 C 0.16584 0.90597 0.25354 0.0
C2369 C 0.159 0.92678 0.26011 0.0
C2370 C 0.12817 0.92105 0.26091 0.0
H2371 H 0.04753 0.89601 0.22674 0.0
H2372 H 0.08697 0.91106 0.23263 0.0
H2373 H 0.06272 0.86995 0.2292 0.0
H2374 H 0.09154 0.85325 0.24377 0.0
H2375 H 0.14526 0.86313 0.24233 0.0
H2376 H 0.19959 0.06249 0.25512 0.0
H2377 H 0.18113 0.09993 0.25205 0.0
H2378 H 0.25409 0.16571 0.27698 0.0
H2379 H 0.27195 0.12805 0.2805 0.0
H2380 H 0.19783 0.1625 0.28166 0.0
H2381 H 0.22385 0.17814 0.22978 0.0
H2382 H 0.19812 0.13825 0.23462 0.0
H2383 H 0.23805 0.15859 0.24012 0.0
C2384 C 0.2115 0.08474 0.2601 0.0
C2385 C 0.23749 0.0922 0.268 0.0
C2386 C 0.20113 0.10634 0.25819 0.0
C2387 C 0.21658 0.136 0.26406 0.0
C2388 C 0.24191 0.14315 0.27223 0.0
H2389 H 0.22016 0.3091 0.24602 0.0
H2390 H 0.22873 0.26449 0.24802 0.0
C2391 C 0.25226 0.12159 0.27416 0.0
C2392 C 0.2066 0.15973 0.26173 0.0
H2393 H 0.19902 0.20444 0.23847 0.0
C2394 C 0.19795 0.17156 0.2722 0.0
C2395 C 0.20708 0.17189 0.24941 0.0
C2396 C 0.21753 0.16134 0.23784 0.0
C2397 C 0.18996 0.19517 0.27073 0.0
C2398 C 0.19005 0.20706 0.25839 0.0
C2399 C 0.19859 0.19516 0.2479 0.0
C2400 C 0.18334 0.23321 0.25628 0.0
C2401 C 0.18255 0.20795 0.28248 0.0
C2402 C 0.15452 0.23035 0.25987 0.0
C2403 C 0.1495 0.25596 0.25876 0.0
C2404 C 0.17313 0.28499 0.25395 0.0
C2405 C 0.20139 0.28724 0.2498 0.0
C2406 C 0.20638 0.26168 0.25094 0.0
H2407 H 0.19073 0.20181 0.29134 0.0
H2408 H 0.19353 0.23389 0.28194 0.0
H2409 H 0.15679 0.19778 0.2832 0.0
H2410 H 0.13606 0.20844 0.26375 0.0
H2411 H 0.12739 0.25319 0.26201 0.0
H2412 H 0.759 0.93591 0.25169 0.0
H2413 H 0.80223 0.99011 0.25298 0.0
H2414 H 0.86693 0.95704 0.26032 0.0
H2415 H 0.82388 0.90267 0.25909 0.0
H2416 H 0.84214 1.01607 0.2755 0.0
H2417 H 0.90999 0.02508 0.23176 0.0
H2418 H 0.86916 0.99564 0.2336 0.0
H2419 H 0.89885 0.99141 0.2418 0.0
C2420 C 0.78246 0.94003 0.25337 0.0
C2421 C 0.78782 0.91473 0.25527 0.0
C2422 C 0.80717 0.97111 0.25415 0.0
C2423 C 0.83786 0.97768 0.25668 0.0
C2424 C 0.84352 0.95257 0.25821 0.0
H2425 H 1.01398 0.15639 0.26571 0.0
H2426 H 0.97444 0.10062 0.26408 0.0
C2427 C 0.81879 0.92144 0.25752 0.0
C2428 C 0.86347 1.01074 0.25851 0.0
H2429 H 0.93194 0.06867 0.24568 0.0
C2430 C 0.86176 0.0276 0.26897 0.0
C2431 C 0.88928 0.02562 0.25009 0.0
C2432 C 0.89204 1.00871 0.23862 0.0
C2433 C 0.88513 0.05889 0.27127 0.0
C2434 C 0.91056 0.07419 0.26265 0.0
C2435 C 0.91249 0.0571 0.25228 0.0
C2436 C 0.93473 0.10811 0.26399 0.0
C2437 C 0.88257 0.07496 0.28309 0.0
C2438 C 0.92577 0.13108 0.26442 0.0
C2439 C 0.94825 0.16291 0.26556 0.0
C2440 C 0.98049 0.17284 0.26606 0.0
C2441 C 0.98945 0.14977 0.26555 0.0
C2442 C 0.96684 0.11781 0.2645 0.0
H2443 H 0.8685 0.05766 0.29061 0.0
H2444 H 0.90603 0.09157 0.28708 0.0
H2445 H 0.87057 0.08827 0.28064 0.0
H2446 H 0.90128 0.12444 0.26375 0.0
H2447 H 0.94024 0.17975 0.26609 0.0
H2448 H 0.80154 0.89431 0.76814 0.0
H2449 H 0.82021 0.95014 0.77108 0.0
H2450 H 0.91567 0.96941 0.7715 0.0
H2451 H 0.89724 0.91325 0.76902 0.0
H2452 H 0.86323 0.99025 0.79278 0.0
H2453 H 0.90956 0.03037 0.74373 0.0
H2454 H 0.87972 0.99031 0.74705 0.0
H2455 H 0.91947 1.00413 0.75182 0.0
C2456 C 0.82653 0.91022 0.76899 0.0
C2457 C 0.84779 0.89895 0.76843 0.0
C2458 C 0.83715 0.94225 0.77059 0.0
C2459 C 0.8693 0.96395 0.77148 0.0
C2460 C 0.89073 0.95307 0.77073 0.0
H2461 H 0.95989 0.16983 0.77367 0.0
H2462 H 0.95118 0.11624 0.77337 0.0
C2463 C 0.88012 0.92092 0.76924 0.0
C2464 C 0.8801 0.99783 0.77346 0.0
H2465 H 0.91311 0.06863 0.75813 0.0
C2466 C 0.87431 1.00746 0.78524 0.0
C2467 C 0.89481 0.02027 0.76365 0.0
C2468 C 0.90125 1.01098 0.75079 0.0
C2469 C 0.88256 0.0389 0.78746 0.0
C2470 C 0.89615 0.06121 0.77748 0.0
C2471 C 0.90267 0.05165 0.76578 0.0
C2472 C 0.90225 0.09408 0.77871 0.0
C2473 C 0.8769 0.04786 0.80053 0.0
C2474 C 0.8778 0.09972 0.7819 0.0
C2475 C 0.88277 0.13034 0.7822 0.0
C2476 C 0.91226 0.15621 0.77914 0.0
C2477 C 0.93691 0.15059 0.77615 0.0
C2478 C 0.93193 0.11989 0.77592 0.0
H2479 H 0.87699 0.0318 0.80798 0.0
H2480 H 0.89489 0.0723 0.80302 0.0
H2481 H 0.85352 0.04603 0.80071 0.0
H2482 H 0.85447 0.08032 0.78376 0.0
H2483 H 0.86307 0.13354 0.7844 0.0
H2484 H 0.18524 0.93965 0.77089 0.0
H2485 H 0.12975 0.90156 0.77413 0.0
H2486 H 0.10583 0.9726 0.76521 0.0
H2487 H 0.16143 1.01087 0.7617 0.0
H2488 H 0.08744 0.90545 0.79184 0.0
H2489 H 0.04798 0.89824 0.74157 0.0
H2490 H 0.08874 0.91434 0.7458 0.0
H2491 H 0.06978 0.93699 0.74828 0.0
C2492 C 0.16821 0.94716 0.76942 0.0
C2493 C 0.17791 0.97836 0.7659 0.0
C2494 C 0.13645 0.92536 0.77139 0.0
C2495 C 0.11352 0.93406 0.76979 0.0
C2496 C 0.12303 0.96519 0.76633 0.0
H2497 H 0.90815 0.81672 0.77293 0.0
H2498 H 0.96147 0.86173 0.77164 0.0
C2499 C 0.15487 0.98712 0.76443 0.0
C2500 C 0.07982 0.91054 0.77197 0.0
H2501 H 1.00922 0.86841 0.75681 0.0
C2502 C 0.07031 0.89741 0.78419 0.0
C2503 C 0.05737 0.90021 0.76202 0.0
C2504 C 0.06635 0.91292 0.74864 0.0
C2505 C 0.03909 0.87421 0.78672 0.0
C2506 C 1.0168 0.86313 0.77668 0.0
C2507 C 0.02619 0.87679 0.76452 0.0
C2508 C 0.98412 0.8364 0.77841 0.0
C2509 C 0.03028 0.8621 0.80019 0.0
C2510 C 0.97886 0.80707 0.7827 0.0
C2511 C 0.94839 0.78135 0.78355 0.0
C2512 C 0.9223 0.78412 0.77997 0.0
C2513 C 0.92756 0.81365 0.77585 0.0
C2514 C 0.95811 0.83944 0.77505 0.0
H2515 H 0.0463 0.87966 0.80725 0.0
H2516 H 1.00586 0.85601 0.80244 0.0
H2517 H 0.03221 0.84069 0.80131 0.0
H2518 H 0.99842 0.80375 0.78505 0.0
H2519 H 0.94546 0.75902 0.78664 0.0
H2520 H 0.26698 0.12799 0.76724 0.0
H2521 H 0.22448 0.13982 0.76564 0.0
H2522 H 0.27235 0.21597 0.79233 0.0
H2523 H 0.31546 0.2049 0.79371 0.0
H2524 H 0.18356 0.14151 0.78197 0.0
H2525 H 0.26031 0.26143 0.763 0.0
H2526 H 0.27345 0.23335 0.7647 0.0
H2527 H 0.27285 0.25539 0.77829 0.0
C2528 C 0.26844 0.1471 0.77288 0.0
C2529 C 0.29493 0.16565 0.78053 0.0
C2530 C 0.24405 0.15389 0.77193 0.0
C2531 C 0.24547 0.17934 0.77859 0.0
C2532 C 0.27108 0.19684 0.78676 0.0
H2533 H 0.1206 0.25663 0.78423 0.0
H2534 H 0.16052 0.24151 0.78764 0.0
C2535 C 0.29563 0.19026 0.78764 0.0
C2536 C 0.22046 0.1878 0.7768 0.0
H2537 H 0.20818 0.24802 0.76823 0.0
C2538 C 0.18899 0.16478 0.77892 0.0
C2539 C 0.22736 0.21812 0.77272 0.0
C2540 C 0.26027 0.2434 0.76941 0.0
C2541 C 0.16447 0.17139 0.77729 0.0
C2542 C 0.1715 0.20177 0.77341 0.0
C2543 C 0.20286 0.22479 0.77129 0.0
C2544 C 0.14662 0.21016 0.77145 0.0
C2545 C 0.1312 0.14601 0.77991 0.0
C2546 C 0.12564 0.19774 0.76115 0.0
C2547 C 0.10287 0.20648 0.75913 0.0
C2548 C 0.10047 0.22768 0.76742 0.0
C2549 C 0.12149 0.23995 0.77776 0.0
C2550 C 0.14444 0.23146 0.77969 0.0
H2551 H 0.13011 0.12553 0.78489 0.0
H2552 H 0.11895 0.15534 0.78579 0.0
H2553 H 0.11835 0.13777 0.77073 0.0
H2554 H 0.12709 0.18151 0.7546 0.0
H2555 H 0.08698 0.19647 0.75112 0.0
H2556 H 0.58997 0.21854 0.60449 0.0
H2557 H 0.6448 0.23353 0.6005 0.0
H2558 H 0.61716 0.13632 0.59471 0.0
H2559 H 0.56242 0.12121 0.59841 0.0
H2560 H 0.68245 0.21362 0.61374 0.0
H2561 H 0.66929 0.17985 0.56266 0.0
H2562 H 0.64031 0.18494 0.57119 0.0
H2563 H 0.64202 0.14951 0.57311 0.0
C2564 C 0.59553 0.20037 0.60227 0.0
C2565 C 0.57169 0.16864 0.60178 0.0
C2566 C 0.6269 0.20897 0.60004 0.0
C2567 C 0.63508 0.18611 0.59712 0.0
C2568 C 0.61141 0.15444 0.59674 0.0
H2569 H 0.80547 0.1803 0.58283 0.0
H2570 H 0.75159 0.16973 0.58491 0.0
C2571 C 0.58011 0.14581 0.59902 0.0
C2572 C 0.66839 0.19515 0.59478 0.0
H2573 H 0.71757 0.19214 0.57254 0.0
C2574 C 0.69022 0.20918 0.6047 0.0
C2575 C 0.67849 0.18923 0.583 0.0
C2576 C 0.65641 0.17531 0.57182 0.0
C2577 C 0.72161 0.21661 0.6033 0.0
C2578 C 0.73172 0.21055 0.59153 0.0
C2579 C 0.70991 0.1968 0.58156 0.0
C2580 C 0.76461 0.21763 0.58949 0.0
C2581 C 0.74337 0.22988 0.61461 0.0
C2582 C 0.78998 0.24828 0.59095 0.0
C2583 C 0.82088 0.25441 0.58981 0.0
C2584 C 0.82717 0.23007 0.58703 0.0
C2585 C 0.80164 0.19965 0.58499 0.0
C2586 C 0.77074 0.19353 0.5862 0.0
H2587 H 0.73023 0.2252 0.62371 0.0
H2588 H 0.75914 0.21988 0.61529 0.0
H2589 H 0.75807 0.25571 0.6135 0.0
H2590 H 0.78591 0.26746 0.59315 0.0
H2591 H 0.83984 0.27818 0.59135 0.0
H2592 H 0.86228 0.40267 0.61167 0.0
H2593 H 0.84639 0.44204 0.60835 0.0
H2594 H 0.92248 0.49106 0.58176 0.0
H2595 H 0.93824 0.4516 0.58493 0.0
H2596 H 0.87783 0.50401 0.61305 0.0
H2597 H 0.85071 0.48586 0.56141 0.0
H2598 H 0.85667 0.45869 0.57093 0.0
H2599 H 0.88973 0.49419 0.56502 0.0
C2600 C 0.87562 0.42182 0.6051 0.0
C2601 C 0.90147 0.42387 0.59852 0.0
C2602 C 0.86643 0.44427 0.60317 0.0
C2603 C 0.88283 0.46928 0.59462 0.0
C2604 C 0.90883 0.47153 0.58812 0.0
H2605 H 0.88314 0.64154 0.57686 0.0
H2606 H 0.8926 0.59728 0.5781 0.0
C2607 C 0.9179 0.44898 0.58998 0.0
C2608 C 0.87361 0.49372 0.59294 0.0
H2609 H 0.85412 0.5319 0.57059 0.0
C2610 C 0.87236 0.50986 0.60377 0.0
C2611 C 0.86646 0.50146 0.58084 0.0
C2612 C 0.86563 0.48393 0.56891 0.0
C2613 C 0.86496 0.53395 0.60281 0.0
C2614 C 0.85827 0.54197 0.5907 0.0
C2615 C 0.85929 0.52575 0.57987 0.0
C2616 C 0.85093 0.56769 0.5891 0.0
C2617 C 0.86518 0.55124 0.61473 0.0
C2618 C 0.82386 0.56543 0.59456 0.0
C2619 C 0.81827 0.59067 0.59383 0.0
C2620 C 0.83968 0.61875 0.58763 0.0
C2621 C 0.86617 0.6204 0.58175 0.0
C2622 C 0.87164 0.59509 0.58244 0.0
H2623 H 0.8771 0.54679 0.6228 0.0
H2624 H 0.87706 0.57693 0.61295 0.0
H2625 H 0.84067 0.54329 0.61763 0.0
H2626 H 0.8073 0.54432 0.59958 0.0
H2627 H 0.79765 0.58846 0.59848 0.0
H2628 H 0.48986 0.23317 0.59718 0.0
H2629 H 0.53337 0.28735 0.59866 0.0
H2630 H 0.47588 0.32053 0.58137 0.0
H2631 H 0.43234 0.26664 0.57979 0.0
H2632 H 0.56405 0.33753 0.57887 0.0
H2633 H 0.50359 0.36569 0.61692 0.0
H2634 H 0.49264 0.32587 0.61277 0.0
H2635 H 0.48081 0.34785 0.6028 0.0
C2636 C 0.48654 0.25188 0.5935 0.0
C2637 C 0.45738 0.24534 0.58841 0.0
C2638 C 0.51149 0.28291 0.59438 0.0
C2639 C 0.50775 0.30805 0.59031 0.0
C2640 C 0.47918 0.30154 0.58474 0.0
H2641 H 0.61216 0.51091 0.5948 0.0
H2642 H 0.57363 0.45541 0.5919 0.0
C2643 C 0.45431 0.2706 0.58379 0.0
C2644 C 0.5331 0.34116 0.59232 0.0
H2645 H 0.55029 0.40799 0.60867 0.0
C2646 C 0.56118 0.35294 0.58543 0.0
C2647 C 0.52932 0.36124 0.60089 0.0
C2648 C 0.5001 0.34959 0.60887 0.0
C2649 C 0.58519 0.38454 0.58658 0.0
C2650 C 0.58133 0.40474 0.59511 0.0
C2651 C 0.55335 0.39268 0.60212 0.0
C2652 C 0.60547 0.43863 0.59669 0.0
C2653 C 0.61394 0.39621 0.57831 0.0
C2654 C 0.63634 0.44796 0.60046 0.0
C2655 C 0.65856 0.47986 0.60211 0.0
C2656 C 0.6503 0.50317 0.60021 0.0
C2657 C 0.6193 0.49367 0.59653 0.0
C2658 C 0.59723 0.46187 0.59481 0.0
H2659 H 0.60954 0.38069 0.56994 0.0
H2660 H 0.62199 0.4204 0.57483 0.0
H2661 H 0.63314 0.39656 0.58399 0.0
H2662 H 0.64318 0.43056 0.60232 0.0
H2663 H 0.68206 0.48625 0.6051 0.0
loop_
_geom_bond_atom_site_label_1
_geom_bond_atom_site_label_2
_geom_bond_distance
_geom_bond_site_symmetry_2
_ccdc_geom_bond_type
Nd0 C2 2.836 . S
Nd0 O20 2.500 . S
Nd0 O21 2.492 . S
Nd0 O22 2.487 . S
Nd0 O23 2.682 1_545 S
Nd0 O24 2.410 . S
Nd0 O29 2.414 . S
Nd0 O31 2.424 1_545 S
Nd1 C11 2.836 . S
Nd1 O23 2.414 . S
Nd1 O25 2.424 1_565 S
Nd1 O26 2.500 . S
Nd1 O27 2.492 . S
Nd1 O28 2.487 . S
Nd1 O29 2.682 1_565 S
Nd1 O30 2.410 . S
C2 Nd0 2.836 . S
C2 C3 1.498 . S
C2 O20 1.258 . S
C2 O21 1.239 . S
C3 C2 1.498 . S
C3 C4 1.366 . S
C3 C8 1.407 . S
C4 C3 1.366 . S
C4 C5 1.392 . S
C4 H32 0.930 . S
C5 C4 1.392 . S
C5 C6 1.398 . S
C5 H33 0.929 . S
C6 C5 1.398 . S
C6 C7 1.352 . S
C7 C6 1.352 . S
C7 C8 1.384 . S
C7 H34 0.930 . S
C8 C3 1.407 . S
C8 C7 1.384 . S
C8 H35 0.929 . S
C9 O22 1.241 . S
C9 O23 1.273 1_545 S
C10 O24 1.251 . S
C10 O25 1.268 . S
C11 Nd1 2.836 . S
C11 C12 1.498 . S
C11 O26 1.258 . S
C11 O27 1.239 . S
C12 C11 1.498 . S
C12 C13 1.366 . S
C12 C17 1.407 . S
C13 C12 1.366 . S
C13 C14 1.392 . S
C13 H36 0.930 . S
C14 C13 1.392 . S
C14 C15 1.398 . S
C14 H37 0.929 . S
C15 C14 1.398 . S
C15 C16 1.352 . S
C16 C15 1.352 . S
C16 C17 1.384 . S
C16 H38 0.930 . S
C17 C12 1.407 . S
C17 C16 1.384 . S
C17 H39 0.929 . S
C18 O28 1.241 1_545 S
C18 O29 1.273 . S
C19 O30 1.251 . S
C19 O31 1.268 . S
O20 Nd0 2.500 . S
O20 C2 1.258 . S
O21 Nd0 2.492 . S
O21 C2 1.239 . S
O22 Nd0 2.487 . S
O22 C9 1.241 . S
O23 Nd0 2.682 1_565 S
O23 Nd1 2.414 . S
O23 C9 1.273 1_565 S
O24 Nd0 2.410 . S
O24 C10 1.251 . S
O25 Nd1 2.424 1_545 S
O25 C10 1.268 . S
O26 Nd1 2.500 . S
O26 C11 1.258 . S
O27 Nd1 2.492 . S
O27 C11 1.239 . S
O28 Nd1 2.487 . S
O28 C18 1.241 1_565 S
O29 Nd0 2.414 . S
O29 Nd1 2.682 1_545 S
O29 C18 1.273 . S
O30 Nd1 2.410 . S
O30 C19 1.251 . S
O31 Nd0 2.424 1_565 S
O31 C19 1.268 . S
H32 C4 0.930 . S
H33 C5 0.929 . S
H34 C7 0.930 . S
H35 C8 0.929 . S
H36 C13 0.930 . S
H37 C14 0.929 . S
H38 C16 0.930 . S
H39 C17 0.929 . S
Nd40 C42 2.836 1_455 S
Nd40 O60 2.500 1_455 S
Nd40 O61 2.492 1_455 S
Nd40 O62 2.487 . S
Nd40 O63 2.682 . S
Nd40 O64 2.410 1_455 S
Nd40 O69 2.414 . S
Nd40 O71 2.424 . S
Nd41 C51 2.836 . S
Nd41 O63 2.414 . S
Nd41 O65 2.424 1_455 S
Nd41 O66 2.500 . S
Nd41 O67 2.492 . S
Nd41 O68 2.487 . S
Nd41 O69 2.682 . S
Nd41 O70 2.410 . S
C42 Nd40 2.836 1_655 S
C42 C43 1.498 . S
C42 O60 1.258 . S
C42 O61 1.239 . S
C43 C42 1.498 . S
C43 C44 1.366 . S
C43 C48 1.407 . S
C44 C43 1.366 . S
C44 C45 1.392 . S
C44 H72 0.930 . S
C45 C44 1.392 . S
C45 C46 1.398 . S
C45 H73 0.929 . S
C46 C45 1.398 . S
C46 C47 1.352 . S
C47 C46 1.352 . S
C47 C48 1.384 . S
C47 H74 0.930 . S
C48 C43 1.407 . S
C48 C47 1.384 . S
C48 H75 0.929 . S
C49 O62 1.241 . S
C49 O63 1.273 . S
C50 O64 1.251 . S
C50 O65 1.268 . S
C51 Nd41 2.836 . S
C51 C52 1.498 . S
C51 O66 1.258 . S
C51 O67 1.239 . S
C52 C51 1.498 . S
C52 C53 1.366 . S
C52 C57 1.407 . S
C53 C52 1.366 . S
C53 C54 1.392 . S
C53 H76 0.930 . S
C54 C53 1.392 . S
C54 C55 1.398 . S
C54 H77 0.929 . S
C55 C54 1.398 . S
C55 C56 1.352 . S
C56 C55 1.352 . S
C56 C57 1.384 . S
C56 H78 0.930 . S
C57 C52 1.407 . S
C57 C56 1.384 . S
C57 H79 0.929 . S
C58 O68 1.241 . S
C58 O69 1.273 . S
C59 O70 1.251 . S
C59 O71 1.268 . S
O60 Nd40 2.500 1_655 S
O60 C42 1.258 . S
O61 Nd40 2.492 1_655 S
O61 C42 1.239 . S
O62 Nd40 2.487 . S
O62 C49 1.241 . S
O63 Nd40 2.682 . S
O63 Nd41 2.414 . S
O63 C49 1.273 . S
O64 Nd40 2.410 1_655 S
O64 C50 1.251 . S
O65 Nd41 2.424 1_655 S
O65 C50 1.268 . S
O66 Nd41 2.500 . S
O66 C51 1.258 . S
O67 Nd41 2.492 . S
O67 C51 1.239 . S
O68 Nd41 2.487 . S
O68 C58 1.241 . S
O69 Nd40 2.414 . S
O69 Nd41 2.682 . S
O69 C58 1.273 . S
O70 Nd41 2.410 . S
O70 C59 1.251 . S
O71 Nd40 2.424 . S
O71 C59 1.268 . S
H72 C44 0.930 . S
H73 C45 0.929 . S
H74 C47 0.930 . S
H75 C48 0.929 . S
H76 C53 0.930 . S
H77 C54 0.929 . S
H78 C56 0.930 . S
H79 C57 0.929 . S
Nd80 C82 2.836 . S
Nd80 O100 2.500 . S
Nd80 O101 2.492 . S
Nd80 O102 2.487 . S
Nd80 O103 2.682 . S
Nd80 O104 2.410 . S
Nd80 O109 2.414 . S
Nd80 O111 2.424 . S
Nd81 C91 2.836 . S
Nd81 O103 2.414 . S
Nd81 O105 2.424 . S
Nd81 O106 2.500 . S
Nd81 O107 2.492 . S
Nd81 O108 2.487 . S
Nd81 O109 2.682 . S
Nd81 O110 2.410 . S
C82 Nd80 2.836 . S
C82 C83 1.498 . S
C82 O100 1.258 . S
C82 O101 1.239 . S
C83 C82 1.498 . S
C83 C84 1.366 . S
C83 C88 1.407 . S
C84 C83 1.366 . S
C84 C85 1.392 . S
C84 H112 0.930 . S
C85 C84 1.392 . S
C85 C86 1.398 . S
C85 H113 0.929 . S
C86 C85 1.398 . S
C86 C87 1.352 . S
C87 C86 1.352 . S
C87 C88 1.384 . S
C87 H114 0.930 . S
C88 C83 1.407 . S
C88 C87 1.384 . S
C88 H115 0.929 . S
C89 O102 1.241 . S
C89 O103 1.273 . S
C90 O104 1.251 . S
C90 O105 1.268 . S
C91 Nd81 2.836 . S
C91 C92 1.498 . S
C91 O106 1.258 . S
C91 O107 1.239 . S
C92 C91 1.498 . S
C92 C93 1.366 . S
C92 C97 1.407 . S
C93 C92 1.366 . S
C93 C94 1.392 . S
C93 H116 0.930 . S
C94 C93 1.392 . S
C94 C95 1.398 . S
C94 H117 0.929 . S
C95 C94 1.398 . S
C95 C96 1.352 . S
C96 C95 1.352 . S
C96 C97 1.384 . S
C96 H118 0.930 . S
C97 C92 1.407 . S
C97 C96 1.384 . S
C97 H119 0.929 . S
C98 O108 1.241 . S
C98 O109 1.273 . S
C99 O110 1.251 . S
C99 O111 1.268 . S
O100 Nd80 2.500 . S
O100 C82 1.258 . S
O101 Nd80 2.492 . S
O101 C82 1.239 . S
O102 Nd80 2.487 . S
O102 C89 1.241 . S
O103 Nd80 2.682 . S
O103 Nd81 2.414 . S
O103 C89 1.273 . S
O104 Nd80 2.410 . S
O104 C90 1.251 . S
O105 Nd81 2.424 . S
O105 C90 1.268 . S
O106 Nd81 2.500 . S
O106 C91 1.258 . S
O107 Nd81 2.492 . S
O107 C91 1.239 . S
O108 Nd81 2.487 . S
O108 C98 1.241 . S
O109 Nd80 2.414 . S
O109 Nd81 2.682 . S
O109 C98 1.273 . S
O110 Nd81 2.410 . S
O110 C99 1.251 . S
O111 Nd80 2.424 . S
O111 C99 1.268 . S
H112 C84 0.930 . S
H113 C85 0.929 . S
H114 C87 0.930 . S
H115 C88 0.929 . S
H116 C93 0.930 . S
H117 C94 0.929 . S
H118 C96 0.930 . S
H119 C97 0.929 . S
Nd120 C122 2.836 . S
Nd120 O140 2.500 . S
Nd120 O141 2.492 . S
Nd120 O142 2.487 . S
Nd120 O143 2.682 1_455 S
Nd120 O144 2.410 . S
Nd120 O149 2.414 . S
Nd120 O151 2.424 1_455 S
Nd121 C131 2.836 . S
Nd121 O143 2.414 . S
Nd121 O145 2.424 1_655 S
Nd121 O146 2.500 . S
Nd121 O147 2.492 . S
Nd121 O148 2.487 . S
Nd121 O149 2.682 1_655 S
Nd121 O150 2.410 . S
C122 Nd120 2.836 . S
C122 C123 1.498 . S
C122 O140 1.258 . S
C122 O141 1.239 . S
C123 C122 1.498 . S
C123 C124 1.366 . S
C123 C128 1.407 . S
C124 C123 1.366 . S
C124 C125 1.392 . S
C124 H152 0.930 . S
C125 C124 1.392 . S
C125 C126 1.398 . S
C125 H153 0.929 . S
C126 C125 1.398 . S
C126 C127 1.352 . S
C127 C126 1.352 . S
C127 C128 1.384 . S
C127 H154 0.930 . S
C128 C123 1.407 . S
C128 C127 1.384 . S
C128 H155 0.929 . S
C129 O142 1.241 . S
C129 O143 1.273 1_455 S
C130 O144 1.251 . S
C130 O145 1.268 . S
C131 Nd121 2.836 . S
C131 C132 1.498 . S
C131 O146 1.258 . S
C131 O147 1.239 . S
C132 C131 1.498 . S
C132 C133 1.366 . S
C132 C137 1.407 . S
C133 C132 1.366 . S
C133 C134 1.392 . S
C133 H156 0.930 . S
C134 C133 1.392 . S
C134 C135 1.398 . S
C134 H157 0.929 . S
C135 C134 1.398 . S
C135 C136 1.352 . S
C136 C135 1.352 . S
C136 C137 1.384 . S
C136 H158 0.930 . S
C137 C132 1.407 . S
C137 C136 1.384 . S
C137 H159 0.929 . S
C138 O148 1.241 1_455 S
C138 O149 1.273 . S
C139 O150 1.251 . S
C139 O151 1.268 . S
O140 Nd120 2.500 . S
O140 C122 1.258 . S
O141 Nd120 2.492 . S
O141 C122 1.239 . S
O142 Nd120 2.487 . S
O142 C129 1.241 . S
O143 Nd120 2.682 1_655 S
O143 Nd121 2.414 . S
O143 C129 1.273 1_655 S
O144 Nd120 2.410 . S
O144 C130 1.251 . S
O145 Nd121 2.424 1_455 S
O145 C130 1.268 . S
O146 Nd121 2.500 . S
O146 C131 1.258 . S
O147 Nd121 2.492 . S
O147 C131 1.239 . S
O148 Nd121 2.487 . S
O148 C138 1.241 1_655 S
O149 Nd120 2.414 . S
O149 Nd121 2.682 1_455 S
O149 C138 1.273 . S
O150 Nd121 2.410 . S
O150 C139 1.251 . S
O151 Nd120 2.424 1_655 S
O151 C139 1.268 . S
H152 C124 0.930 . S
H153 C125 0.929 . S
H154 C127 0.930 . S
H155 C128 0.929 . S
H156 C133 0.930 . S
H157 C134 0.929 . S
H158 C136 0.930 . S
H159 C137 0.929 . S
Nd160 C162 2.836 . S
Nd160 O180 2.500 . S
Nd160 O181 2.492 . S
Nd160 O182 2.487 . S
Nd160 O183 2.682 . S
Nd160 O184 2.410 . S
Nd160 O189 2.414 . S
Nd160 O191 2.424 . S
Nd161 C171 2.836 . S
Nd161 O183 2.414 . S
Nd161 O185 2.424 . S
Nd161 O186 2.500 . S
Nd161 O187 2.492 . S
Nd161 O188 2.487 . S
Nd161 O189 2.682 . S
Nd161 O190 2.410 . S
C162 Nd160 2.836 . S
C162 C163 1.498 . S
C162 O180 1.258 . S
C162 O181 1.239 . S
C163 C162 1.498 . S
C163 C164 1.366 . S
C163 C168 1.407 . S
C164 C163 1.366 . S
C164 C165 1.392 . S
C164 H192 0.930 . S
C165 C164 1.392 . S
C165 C166 1.398 . S
C165 H193 0.929 . S
C166 C165 1.398 . S
C166 C167 1.352 . S
C167 C166 1.352 . S
C167 C168 1.384 . S
C167 H194 0.930 . S
C168 C163 1.407 . S
C168 C167 1.384 . S
C168 H195 0.929 . S
C169 O182 1.241 . S
C169 O183 1.273 . S
C170 O184 1.251 . S
C170 O185 1.268 . S
C171 Nd161 2.836 . S
C171 C172 1.498 . S
C171 O186 1.258 . S
C171 O187 1.239 . S
C172 C171 1.498 . S
C172 C173 1.366 . S
C172 C177 1.407 . S
C173 C172 1.366 . S
C173 C174 1.392 . S
C173 H196 0.930 . S
C174 C173 1.392 . S
C174 C175 1.398 . S
C174 H197 0.929 . S
C175 C174 1.398 . S
C175 C176 1.352 . S
C176 C175 1.352 . S
C176 C177 1.384 . S
C176 H198 0.930 . S
C177 C172 1.407 . S
C177 C176 1.384 . S
C177 H199 0.929 . S
C178 O188 1.241 . S
C178 O189 1.273 . S
C179 O190 1.251 . S
C179 O191 1.268 . S
O180 Nd160 2.500 . S
O180 C162 1.258 . S
O181 Nd160 2.492 . S
O181 C162 1.239 . S
O182 Nd160 2.487 . S
O182 C169 1.241 . S
O183 Nd160 2.682 . S
O183 Nd161 2.414 . S
O183 C169 1.273 . S
O184 Nd160 2.410 . S
O184 C170 1.251 . S
O185 Nd161 2.424 . S
O185 C170 1.268 . S
O186 Nd161 2.500 . S
O186 C171 1.258 . S
O187 Nd161 2.492 . S
O187 C171 1.239 . S
O188 Nd161 2.487 . S
O188 C178 1.241 . S
O189 Nd160 2.414 . S
O189 Nd161 2.682 . S
O189 C178 1.273 . S
O190 Nd161 2.410 . S
O190 C179 1.251 . S
O191 Nd160 2.424 . S
O191 C179 1.268 . S
H192 C164 0.930 . S
H193 C165 0.929 . S
H194 C167 0.930 . S
H195 C168 0.929 . S
H196 C173 0.930 . S
H197 C174 0.929 . S
H198 C176 0.930 . S
H199 C177 0.929 . S
Nd200 C202 2.836 1_545 S
Nd200 O220 2.500 1_545 S
Nd200 O221 2.492 1_545 S
Nd200 O222 2.487 . S
Nd200 O223 2.682 . S
Nd200 O224 2.410 1_545 S
Nd200 O229 2.414 . S
Nd200 O231 2.424 . S
Nd201 C211 2.836 . S
Nd201 O223 2.414 . S
Nd201 O225 2.424 1_545 S
Nd201 O226 2.500 . S
Nd201 O227 2.492 . S
Nd201 O228 2.487 . S
Nd201 O229 2.682 . S
Nd201 O230 2.410 . S
C202 Nd200 2.836 1_565 S
C202 C203 1.498 . S
C202 O220 1.258 . S
C202 O221 1.239 . S
C203 C202 1.498 . S
C203 C204 1.366 . S
C203 C208 1.407 . S
C204 C203 1.366 . S
C204 C205 1.392 . S
C204 H232 0.930 . S
C205 C204 1.392 . S
C205 C206 1.398 . S
C205 H233 0.929 . S
C206 C205 1.398 . S
C206 C207 1.352 . S
C207 C206 1.352 . S
C207 C208 1.384 . S
C207 H234 0.930 . S
C208 C203 1.407 . S
C208 C207 1.384 . S
C208 H235 0.929 . S
C209 O222 1.241 . S
C209 O223 1.273 . S
C210 O224 1.251 . S
C210 O225 1.268 . S
C211 Nd201 2.836 . S
C211 C212 1.498 . S
C211 O226 1.258 . S
C211 O227 1.239 . S
C212 C211 1.498 . S
C212 C213 1.366 . S
C212 C217 1.407 . S
C213 C212 1.366 . S
C213 C214 1.392 . S
C213 H236 0.930 . S
C214 C213 1.392 . S
C214 C215 1.398 . S
C214 H237 0.929 . S
C215 C214 1.398 . S
C215 C216 1.352 . S
C216 C215 1.352 . S
C216 C217 1.384 . S
C216 H238 0.930 . S
C217 C212 1.407 . S
C217 C216 1.384 . S
C217 H239 0.929 . S
C218 O228 1.241 . S
C218 O229 1.273 . S
C219 O230 1.251 . S
C219 O231 1.268 . S
O220 Nd200 2.500 1_565 S
O220 C202 1.258 . S
O221 Nd200 2.492 1_565 S
O221 C202 1.239 . S
O222 Nd200 2.487 . S
O222 C209 1.241 . S
O223 Nd200 2.682 . S
O223 Nd201 2.414 . S
O223 C209 1.273 . S
O224 Nd200 2.410 1_565 S
O224 C210 1.251 . S
O225 Nd201 2.424 1_565 S
O225 C210 1.268 . S
O226 Nd201 2.500 . S
O226 C211 1.258 . S
O227 Nd201 2.492 . S
O227 C211 1.239 . S
O228 Nd201 2.487 . S
O228 C218 1.241 . S
O229 Nd200 2.414 . S
O229 Nd201 2.682 . S
O229 C218 1.273 . S
O230 Nd201 2.410 . S
O230 C219 1.251 . S
O231 Nd200 2.424 . S
O231 C219 1.268 . S
H232 C204 0.930 . S
H233 C205 0.929 . S
H234 C207 0.930 . S
H235 C208 0.929 . S
H236 C213 0.930 . S
H237 C214 0.929 . S
H238 C216 0.930 . S
H239 C217 0.929 . S
Nd240 C242 2.836 . S
Nd240 O260 2.500 . S
Nd240 O261 2.492 . S
Nd240 O262 2.487 . S
Nd240 O263 2.682 . S
Nd240 O264 2.410 . S
Nd240 O269 2.414 . S
Nd240 O271 2.424 . S
Nd241 C251 2.836 . S
Nd241 O263 2.414 . S
Nd241 O265 2.424 . S
Nd241 O266 2.500 . S
Nd241 O267 2.492 . S
Nd241 O268 2.487 . S
Nd241 O269 2.682 . S
Nd241 O270 2.410 . S
C242 Nd240 2.836 . S
C242 C243 1.498 . S
C242 O260 1.258 . S
C242 O261 1.239 . S
C243 C242 1.498 . S
C243 C244 1.366 . S
C243 C248 1.407 . S
C244 C243 1.366 . S
C244 C245 1.392 . S
C244 H272 0.930 . S
C245 C244 1.392 . S
C245 C246 1.398 . S
C245 H273 0.929 . S
C246 C245 1.398 . S
C246 C247 1.352 . S
C247 C246 1.352 . S
C247 C248 1.384 . S
C247 H274 0.930 . S
C248 C243 1.407 . S
C248 C247 1.384 . S
C248 H275 0.929 . S
C249 O262 1.241 . S
C249 O263 1.273 . S
C250 O264 1.251 . S
C250 O265 1.268 . S
C251 Nd241 2.836 . S
C251 C252 1.498 . S
C251 O266 1.258 . S
C251 O267 1.239 . S
C252 C251 1.498 . S
C252 C253 1.366 . S
C252 C257 1.407 . S
C253 C252 1.366 . S
C253 C254 1.392 . S
C253 H276 0.930 . S
C254 C253 1.392 . S
C254 C255 1.398 . S
C254 H277 0.929 . S
C255 C254 1.398 . S
C255 C256 1.352 . S
C256 C255 1.352 . S
C256 C257 1.384 . S
C256 H278 0.930 . S
C257 C252 1.407 . S
C257 C256 1.384 . S
C257 H279 0.929 . S
C258 O268 1.241 . S
C258 O269 1.273 . S
C259 O270 1.251 . S
C259 O271 1.268 . S
O260 Nd240 2.500 . S
O260 C242 1.258 . S
O261 Nd240 2.492 . S
O261 C242 1.239 . S
O262 Nd240 2.487 . S
O262 C249 1.241 . S
O263 Nd240 2.682 . S
O263 Nd241 2.414 . S
O263 C249 1.273 . S
O264 Nd240 2.410 . S
O264 C250 1.251 . S
O265 Nd241 2.424 . S
O265 C250 1.268 . S
O266 Nd241 2.500 . S
O266 C251 1.258 . S
O267 Nd241 2.492 . S
O267 C251 1.239 . S
O268 Nd241 2.487 . S
O268 C258 1.241 . S
O269 Nd240 2.414 . S
O269 Nd241 2.682 . S
O269 C258 1.273 . S
O270 Nd241 2.410 . S
O270 C259 1.251 . S
O271 Nd240 2.424 . S
O271 C259 1.268 . S
H272 C244 0.930 . S
H273 C245 0.929 . S
H274 C247 0.930 . S
H275 C248 0.929 . S
H276 C253 0.930 . S
H277 C254 0.929 . S
H278 C256 0.930 . S
H279 C257 0.929 . S
Nd280 C282 2.836 . S
Nd280 O300 2.500 . S
Nd280 O301 2.492 . S
Nd280 O302 2.487 . S
Nd280 O303 2.682 . S
Nd280 O304 2.410 . S
Nd280 O309 2.414 . S
Nd280 O311 2.424 . S
Nd281 C291 2.836 . S
Nd281 O303 2.414 . S
Nd281 O305 2.424 . S
Nd281 O306 2.500 . S
Nd281 O307 2.492 . S
Nd281 O308 2.487 . S
Nd281 O309 2.682 . S
Nd281 O310 2.410 . S
C282 Nd280 2.836 . S
C282 C283 1.498 . S
C282 O300 1.258 . S
C282 O301 1.239 . S
C283 C282 1.498 . S
C283 C284 1.366 . S
C283 C288 1.407 . S
C284 C283 1.366 . S
C284 C285 1.392 . S
C284 H312 0.930 . S
C285 C284 1.392 . S
C285 C286 1.398 . S
C285 H313 0.929 . S
C286 C285 1.398 . S
C286 C287 1.352 . S
C287 C286 1.352 . S
C287 C288 1.384 . S
C287 H314 0.930 . S
C288 C283 1.407 . S
C288 C287 1.384 . S
C288 H315 0.929 . S
C289 O302 1.241 . S
C289 O303 1.273 . S
C290 O304 1.251 . S
C290 O305 1.268 . S
C291 Nd281 2.836 . S
C291 C292 1.498 . S
C291 O306 1.258 . S
C291 O307 1.239 . S
C292 C291 1.498 . S
C292 C293 1.366 . S
C292 C297 1.407 . S
C293 C292 1.366 . S
C293 C294 1.392 . S
C293 H316 0.930 . S
C294 C293 1.392 . S
C294 C295 1.398 . S
C294 H317 0.929 . S
C295 C294 1.398 . S
C295 C296 1.352 . S
C296 C295 1.352 . S
C296 C297 1.384 . S
C296 H318 0.930 1_565 S
C297 C292 1.407 . S
C297 C296 1.384 . S
C297 H319 0.929 . S
C298 O308 1.241 . S
C298 O309 1.273 . S
C299 O310 1.251 . S
C299 O311 1.268 . S
O300 Nd280 2.500 . S
O300 C282 1.258 . S
O301 Nd280 2.492 . S
O301 C282 1.239 . S
O302 Nd280 2.487 . S
O302 C289 1.241 . S
O303 Nd280 2.682 . S
O303 Nd281 2.414 . S
O303 C289 1.273 . S
O304 Nd280 2.410 . S
O304 C290 1.251 . S
O305 Nd281 2.424 . S
O305 C290 1.268 . S
O306 Nd281 2.500 . S
O306 C291 1.258 . S
O307 Nd281 2.492 . S
O307 C291 1.239 . S
O308 Nd281 2.487 . S
O308 C298 1.241 . S
O309 Nd280 2.414 . S
O309 Nd281 2.682 . S
O309 C298 1.273 . S
O310 Nd281 2.410 . S
O310 C299 1.251 . S
O311 Nd280 2.424 . S
O311 C299 1.268 . S
H312 C284 0.930 . S
H313 C285 0.929 . S
H314 C287 0.930 . S
H315 C288 0.929 . S
H316 C293 0.930 . S
H317 C294 0.929 . S
H318 C296 0.930 1_545 S
H319 C297 0.929 . S
Nd320 C322 2.836 . S
Nd320 O340 2.500 . S
Nd320 O341 2.492 . S
Nd320 O342 2.487 . S
Nd320 O343 2.682 . S
Nd320 O344 2.410 . S
Nd320 O349 2.414 . S
Nd320 O351 2.424 . S
Nd321 C331 2.836 . S
Nd321 O343 2.414 . S
Nd321 O345 2.424 . S
Nd321 O346 2.500 . S
Nd321 O347 2.492 . S
Nd321 O348 2.487 . S
Nd321 O349 2.682 . S
Nd321 O350 2.410 . S
C322 Nd320 2.836 . S
C322 C323 1.498 . S
C322 O340 1.258 . S
C322 O341 1.239 . S
C323 C322 1.498 . S
C323 C324 1.366 . S
C323 C328 1.407 . S
C324 C323 1.366 . S
C324 C325 1.392 . S
C324 H352 0.930 . S
C325 C324 1.392 . S
C325 C326 1.398 . S
C325 H353 0.929 . S
C326 C325 1.398 . S
C326 C327 1.352 . S
C327 C326 1.352 . S
C327 C328 1.384 . S
C327 H354 0.930 . S
C328 C323 1.407 . S
C328 C327 1.384 . S
C328 H355 0.929 . S
C329 O342 1.241 . S
C329 O343 1.273 . S
C330 O344 1.251 . S
C330 O345 1.268 . S
C331 Nd321 2.836 . S
C331 C332 1.498 . S
C331 O346 1.258 . S
C331 O347 1.239 . S
C332 C331 1.498 . S
C332 C333 1.366 . S
C332 C337 1.407 . S
C333 C332 1.366 . S
C333 C334 1.392 . S
C333 H356 0.930 . S
C334 C333 1.392 . S
C334 C335 1.398 . S
C334 H357 0.929 . S
C335 C334 1.398 . S
C335 C336 1.352 . S
C336 C335 1.352 . S
C336 C337 1.384 . S
C336 H358 0.930 . S
C337 C332 1.407 . S
C337 C336 1.384 . S
C337 H359 0.929 . S
C338 O348 1.241 . S
C338 O349 1.273 . S
C339 O350 1.251 . S
C339 O351 1.268 . S
O340 Nd320 2.500 . S
O340 C322 1.258 . S
O341 Nd320 2.492 . S
O341 C322 1.239 . S
O342 Nd320 2.487 . S
O342 C329 1.241 . S
O343 Nd320 2.682 . S
O343 Nd321 2.414 . S
O343 C329 1.273 . S
O344 Nd320 2.410 . S
O344 C330 1.251 . S
O345 Nd321 2.424 . S
O345 C330 1.268 . S
O346 Nd321 2.500 . S
O346 C331 1.258 . S
O347 Nd321 2.492 . S
O347 C331 1.239 . S
O348 Nd321 2.487 . S
O348 C338 1.241 . S
O349 Nd320 2.414 . S
O349 Nd321 2.682 . S
O349 C338 1.273 . S
O350 Nd321 2.410 . S
O350 C339 1.251 . S
O351 Nd320 2.424 . S
O351 C339 1.268 . S
H352 C324 0.930 . S
H353 C325 0.929 . S
H354 C327 0.930 . S
H355 C328 0.929 . S
H356 C333 0.930 . S
H357 C334 0.929 . S
H358 C336 0.930 . S
H359 C337 0.929 . S
Nd360 C362 2.836 . S
Nd360 O380 2.500 . S
Nd360 O381 2.492 . S
Nd360 O382 2.487 . S
Nd360 O383 2.682 . S
Nd360 O384 2.410 . S
Nd360 O389 2.414 . S
Nd360 O391 2.424 . S
Nd361 C371 2.836 . S
Nd361 O383 2.414 . S
Nd361 O385 2.424 . S
Nd361 O386 2.500 . S
Nd361 O387 2.492 . S
Nd361 O388 2.487 . S
Nd361 O389 2.682 . S
Nd361 O390 2.410 . S
C362 Nd360 2.836 . S
C362 C363 1.498 . S
C362 O380 1.258 . S
C362 O381 1.239 . S
C363 C362 1.498 . S
C363 C364 1.366 . S
C363 C368 1.407 . S
C364 C363 1.366 . S
C364 C365 1.392 . S
C364 H392 0.930 . S
C365 C364 1.392 . S
C365 C366 1.398 . S
C365 H393 0.929 . S
C366 C365 1.398 . S
C366 C367 1.352 . S
C367 C366 1.352 . S
C367 C368 1.384 . S
C367 H394 0.930 . S
C368 C363 1.407 . S
C368 C367 1.384 . S
C368 H395 0.929 . S
C369 O382 1.241 . S
C369 O383 1.273 . S
C370 O384 1.251 . S
C370 O385 1.268 . S
C371 Nd361 2.836 . S
C371 C372 1.498 . S
C371 O386 1.258 . S
C371 O387 1.239 . S
C372 C371 1.498 . S
C372 C373 1.366 . S
C372 C377 1.407 . S
C373 C372 1.366 . S
C373 C374 1.392 . S
C373 H396 0.930 . S
C374 C373 1.392 . S
C374 C375 1.398 . S
C374 H397 0.929 . S
C375 C374 1.398 . S
C375 C376 1.352 . S
C376 C375 1.352 . S
C376 C377 1.384 . S
C376 H398 0.930 . S
C377 C372 1.407 . S
C377 C376 1.384 . S
C377 H399 0.929 . S
C378 O388 1.241 . S
C378 O389 1.273 . S
C379 O390 1.251 . S
C379 O391 1.268 . S
O380 Nd360 2.500 . S
O380 C362 1.258 . S
O381 Nd360 2.492 . S
O381 C362 1.239 . S
O382 Nd360 2.487 . S
O382 C369 1.241 . S
O383 Nd360 2.682 . S
O383 Nd361 2.414 . S
O383 C369 1.273 . S
O384 Nd360 2.410 . S
O384 C370 1.251 . S
O385 Nd361 2.424 . S
O385 C370 1.268 . S
O386 Nd361 2.500 . S
O386 C371 1.258 . S
O387 Nd361 2.492 . S
O387 C371 1.239 . S
O388 Nd361 2.487 . S
O388 C378 1.241 . S
O389 Nd360 2.414 . S
O389 Nd361 2.682 . S
O389 C378 1.273 . S
O390 Nd361 2.410 . S
O390 C379 1.251 . S
O391 Nd360 2.424 . S
O391 C379 1.268 . S
H392 C364 0.930 . S
H393 C365 0.929 . S
H394 C367 0.930 . S
H395 C368 0.929 . S
H396 C373 0.930 . S
H397 C374 0.929 . S
H398 C376 0.930 . S
H399 C377 0.929 . S
Nd400 C402 2.836 . S
Nd400 O420 2.500 . S
Nd400 O421 2.492 . S
Nd400 O422 2.487 . S
Nd400 O423 2.682 . S
Nd400 O424 2.410 . S
Nd400 O429 2.414 . S
Nd400 O431 2.424 . S
Nd401 C411 2.836 . S
Nd401 O423 2.414 . S
Nd401 O425 2.424 . S
Nd401 O426 2.500 . S
Nd401 O427 2.492 . S
Nd401 O428 2.487 . S
Nd401 O429 2.682 . S
Nd401 O430 2.410 . S
C402 Nd400 2.836 . S
C402 C403 1.498 . S
C402 O420 1.258 . S
C402 O421 1.239 . S
C403 C402 1.498 . S
C403 C404 1.366 . S
C403 C408 1.407 1_565 S
C404 C403 1.366 . S
C404 C405 1.392 1_565 S
C404 H432 0.930 . S
C405 C404 1.392 1_545 S
C405 C406 1.398 . S
C405 H433 0.929 . S
C406 C405 1.398 . S
C406 C407 1.352 . S
C407 C406 1.352 . S
C407 C408 1.384 . S
C407 H434 0.930 . S
C408 C403 1.407 1_545 S
C408 C407 1.384 . S
C408 H435 0.929 . S
C409 O422 1.241 . S
C409 O423 1.273 . S
C410 O424 1.251 . S
C410 O425 1.268 . S
C411 Nd401 2.836 . S
C411 C412 1.498 . S
C411 O426 1.258 . S
C411 O427 1.239 . S
C412 C411 1.498 . S
C412 C413 1.366 . S
C412 C417 1.407 . S
C413 C412 1.366 . S
C413 C414 1.392 . S
C413 H436 0.930 . S
C414 C413 1.392 . S
C414 C415 1.398 . S
C414 H437 0.929 . S
C415 C414 1.398 . S
C415 C416 1.352 . S
C416 C415 1.352 . S
C416 C417 1.384 . S
C416 H438 0.930 . S
C417 C412 1.407 . S
C417 C416 1.384 . S
C417 H439 0.929 . S
C418 O428 1.241 . S
C418 O429 1.273 . S
C419 O430 1.251 . S
C419 O431 1.268 . S
O420 Nd400 2.500 . S
O420 C402 1.258 . S
O421 Nd400 2.492 . S
O421 C402 1.239 . S
O422 Nd400 2.487 . S
O422 C409 1.241 . S
O423 Nd400 2.682 . S
O423 Nd401 2.414 . S
O423 C409 1.273 . S
O424 Nd400 2.410 . S
O424 C410 1.251 . S
O425 Nd401 2.424 . S
O425 C410 1.268 . S
O426 Nd401 2.500 . S
O426 C411 1.258 . S
O427 Nd401 2.492 . S
O427 C411 1.239 . S
O428 Nd401 2.487 . S
O428 C418 1.241 . S
O429 Nd400 2.414 . S
O429 Nd401 2.682 . S
O429 C418 1.273 . S
O430 Nd401 2.410 . S
O430 C419 1.251 . S
O431 Nd400 2.424 . S
O431 C419 1.268 . S
H432 C404 0.930 . S
H433 C405 0.929 . S
H434 C407 0.930 . S
H435 C408 0.929 . S
H436 C413 0.930 . S
H437 C414 0.929 . S
H438 C416 0.930 . S
H439 C417 0.929 . S
Nd440 C442 2.836 . S
Nd440 O460 2.500 . S
Nd440 O461 2.492 . S
Nd440 O462 2.487 . S
Nd440 O463 2.682 . S
Nd440 O464 2.410 . S
Nd440 O469 2.414 . S
Nd440 O471 2.424 . S
Nd441 C451 2.836 . S
Nd441 O463 2.414 . S
Nd441 O465 2.424 . S
Nd441 O466 2.500 . S
Nd441 O467 2.492 . S
Nd441 O468 2.487 . S
Nd441 O469 2.682 . S
Nd441 O470 2.410 . S
C442 Nd440 2.836 . S
C442 C443 1.498 . S
C442 O460 1.258 . S
C442 O461 1.239 . S
C443 C442 1.498 . S
C443 C444 1.366 . S
C443 C448 1.407 . S
C444 C443 1.366 . S
C444 C445 1.392 . S
C444 H472 0.930 . S
C445 C444 1.392 . S
C445 C446 1.398 1_455 S
C445 H473 0.929 . S
C446 C445 1.398 1_655 S
C446 C447 1.342 . S
C447 C446 1.342 . S
C447 C448 1.374 1_655 S
C447 H474 0.952 . S
C448 C443 1.407 . S
C448 C447 1.374 1_455 S
C448 H475 0.929 . S
C449 O462 1.241 . S
C449 O463 1.273 . S
C450 O464 1.251 . S
C450 O465 1.268 . S
C451 Nd441 2.836 . S
C451 C452 1.498 . S
C451 O466 1.258 . S
C451 O467 1.239 . S
C452 C451 1.498 . S
C452 C453 1.366 . S
C452 C457 1.407 . S
C453 C452 1.366 . S
C453 C454 1.392 . S
C453 H476 0.930 . S
C454 C453 1.392 . S
C454 C455 1.398 . S
C454 H477 0.929 . S
C455 C454 1.398 . S
C455 C456 1.352 . S
C456 C455 1.352 . S
C456 C457 1.384 . S
C456 H478 0.930 . S
C457 C452 1.407 . S
C457 C456 1.384 . S
C457 H479 0.929 . S
C458 O468 1.241 . S
C458 O469 1.273 . S
C459 O470 1.251 . S
C459 O471 1.268 . S
O460 Nd440 2.500 . S
O460 C442 1.258 . S
O461 Nd440 2.492 . S
O461 C442 1.239 . S
O462 Nd440 2.487 . S
O462 C449 1.241 . S
O463 Nd440 2.682 . S
O463 Nd441 2.414 . S
O463 C449 1.273 . S
O464 Nd440 2.410 . S
O464 C450 1.251 . S
O465 Nd441 2.424 . S
O465 C450 1.268 . S
O466 Nd441 2.500 . S
O466 C451 1.258 . S
O467 Nd441 2.492 . S
O467 C451 1.239 . S
O468 Nd441 2.487 . S
O468 C458 1.241 . S
O469 Nd440 2.414 . S
O469 Nd441 2.682 . S
O469 C458 1.273 . S
O470 Nd441 2.410 . S
O470 C459 1.251 . S
O471 Nd440 2.424 . S
O471 C459 1.268 . S
H472 C444 0.930 . S
H473 C445 0.929 . S
H474 C447 0.952 . S
H475 C448 0.929 . S
H476 C453 0.930 . S
H477 C454 0.929 . S
H478 C456 0.930 . S
H479 C457 0.929 . S
Nd480 C482 2.836 . S
Nd480 O500 2.500 . S
Nd480 O501 2.492 . S
Nd480 O502 2.487 . S
Nd480 O503 2.682 . S
Nd480 O504 2.410 . S
Nd480 O509 2.414 . S
Nd480 O511 2.424 . S
Nd481 C491 2.836 . S
Nd481 O503 2.414 . S
Nd481 O505 2.424 . S
Nd481 O506 2.500 . S
Nd481 O507 2.492 . S
Nd481 O508 2.487 . S
Nd481 O509 2.682 . S
Nd481 O510 2.410 . S
C482 Nd480 2.836 . S
C482 C483 1.498 . S
C482 O500 1.258 . S
C482 O501 1.239 . S
C483 C482 1.498 . S
C483 C484 1.366 . S
C483 C488 1.407 . S
C484 C483 1.366 . S
C484 C485 1.392 . S
C484 H512 0.930 . S
C485 C484 1.392 . S
C485 C486 1.398 . S
C485 H513 0.929 . S
C486 C485 1.398 . S
C486 C487 1.352 . S
C487 C486 1.352 . S
C487 C488 1.384 . S
C487 H514 0.930 . S
C488 C483 1.407 . S
C488 C487 1.384 . S
C488 H515 0.929 . S
C489 O502 1.241 . S
C489 O503 1.273 . S
C490 O504 1.251 . S
C490 O505 1.268 . S
C491 Nd481 2.836 . S
C491 C492 1.498 . S
C491 O506 1.258 . S
C491 O507 1.239 . S
C492 C491 1.498 . S
C492 C493 1.366 . S
C492 C497 1.407 . S
C493 C492 1.366 . S
C493 C494 1.392 . S
C493 H516 0.930 . S
C494 C493 1.392 . S
C494 C495 1.398 . S
C494 H517 0.929 . S
C495 C494 1.398 . S
C495 C496 1.352 . S
C496 C495 1.352 . S
C496 C497 1.384 . S
C496 H518 0.930 . S
C497 C492 1.407 . S
C497 C496 1.384 . S
C497 H519 0.929 . S
C498 O508 1.241 . S
C498 O509 1.273 . S
C499 O510 1.251 . S
C499 O511 1.268 . S
O500 Nd480 2.500 . S
O500 C482 1.258 . S
O501 Nd480 2.492 . S
O501 C482 1.239 . S
O502 Nd480 2.487 . S
O502 C489 1.241 . S
O503 Nd480 2.682 . S
O503 Nd481 2.414 . S
O503 C489 1.273 . S
O504 Nd480 2.410 . S
O504 C490 1.251 . S
O505 Nd481 2.424 . S
O505 C490 1.268 . S
O506 Nd481 2.500 . S
O506 C491 1.258 . S
O507 Nd481 2.492 . S
O507 C491 1.239 . S
O508 Nd481 2.487 . S
O508 C498 1.241 . S
O509 Nd480 2.414 . S
O509 Nd481 2.682 . S
O509 C498 1.273 . S
O510 Nd481 2.410 . S
O510 C499 1.251 . S
O511 Nd480 2.424 . S
O511 C499 1.268 . S
H512 C484 0.930 . S
H513 C485 0.929 . S
H514 C487 0.930 . S
H515 C488 0.929 . S
H516 C493 0.930 . S
H517 C494 0.929 . S
H518 C496 0.930 . S
H519 C497 0.929 . S
Nd520 C522 2.836 . S
Nd520 O540 2.500 . S
Nd520 O541 2.492 . S
Nd520 O542 2.487 . S
Nd520 O543 2.682 . S
Nd520 O544 2.410 . S
Nd520 O549 2.414 . S
Nd520 O551 2.424 . S
Nd521 C531 2.836 . S
Nd521 O543 2.414 . S
Nd521 O545 2.424 . S
Nd521 O546 2.500 . S
Nd521 O547 2.492 . S
Nd521 O548 2.487 . S
Nd521 O549 2.682 . S
Nd521 O550 2.410 . S
C522 Nd520 2.836 . S
C522 C523 1.498 . S
C522 O540 1.258 . S
C522 O541 1.239 . S
C523 C522 1.498 . S
C523 C524 1.366 . S
C523 C528 1.407 . S
C524 C523 1.366 . S
C524 C525 1.392 . S
C524 H552 0.930 . S
C525 C524 1.392 . S
C525 C526 1.398 1_545 S
C525 H553 0.929 . S
C526 C525 1.398 1_565 S
C526 C527 1.342 . S
C527 C526 1.342 . S
C527 C528 1.374 1_565 S
C527 H554 0.952 . S
C528 C523 1.407 . S
C528 C527 1.374 1_545 S
C528 H555 0.929 . S
C529 O542 1.241 . S
C529 O543 1.273 . S
C530 O544 1.251 . S
C530 O545 1.268 . S
C531 Nd521 2.836 . S
C531 C532 1.498 . S
C531 O546 1.258 . S
C531 O547 1.239 . S
C532 C531 1.498 . S
C532 C533 1.366 . S
C532 C537 1.407 . S
C533 C532 1.366 . S
C533 C534 1.392 . S
C533 H556 0.930 . S
C534 C533 1.392 . S
C534 C535 1.398 . S
C534 H557 0.929 . S
C535 C534 1.398 . S
C535 C536 1.352 . S
C536 C535 1.352 . S
C536 C537 1.384 . S
C536 H558 0.930 . S
C537 C532 1.407 . S
C537 C536 1.384 . S
C537 H559 0.929 . S
C538 O548 1.241 . S
C538 O549 1.273 . S
C539 O550 1.251 . S
C539 O551 1.268 . S
O540 Nd520 2.500 . S
O540 C522 1.258 . S
O541 Nd520 2.492 . S
O541 C522 1.239 . S
O542 Nd520 2.487 . S
O542 C529 1.241 . S
O543 Nd520 2.682 . S
O543 Nd521 2.414 . S
O543 C529 1.273 . S
O544 Nd520 2.410 . S
O544 C530 1.251 . S
O545 Nd521 2.424 . S
O545 C530 1.268 . S
O546 Nd521 2.500 . S
O546 C531 1.258 . S
O547 Nd521 2.492 . S
O547 C531 1.239 . S
O548 Nd521 2.487 . S
O548 C538 1.241 . S
O549 Nd520 2.414 . S
O549 Nd521 2.682 . S
O549 C538 1.273 . S
O550 Nd521 2.410 . S
O550 C539 1.251 . S
O551 Nd520 2.424 . S
O551 C539 1.268 . S
H552 C524 0.930 . S
H553 C525 0.929 . S
H554 C527 0.952 . S
H555 C528 0.929 . S
H556 C533 0.930 . S
H557 C534 0.929 . S
H558 C536 0.930 . S
H559 C537 0.929 . S
Nd560 C562 2.836 . S
Nd560 O580 2.500 . S
Nd560 O581 2.492 . S
Nd560 O582 2.487 . S
Nd560 O583 2.682 . S
Nd560 O584 2.410 . S
Nd560 O589 2.414 . S
Nd560 O591 2.424 . S
Nd561 C571 2.836 . S
Nd561 O583 2.414 . S
Nd561 O585 2.424 . S
Nd561 O586 2.500 . S
Nd561 O587 2.492 . S
Nd561 O588 2.487 . S
Nd561 O589 2.682 . S
Nd561 O590 2.410 . S
C562 Nd560 2.836 . S
C562 C563 1.498 . S
C562 O580 1.258 . S
C562 O581 1.239 . S
C563 C562 1.498 . S
C563 C564 1.366 . S
C563 C568 1.407 1_655 S
C564 C563 1.366 . S
C564 C565 1.392 1_655 S
C564 H592 0.930 . S
C565 C564 1.392 1_455 S
C565 C566 1.398 . S
C565 H593 0.929 . S
C566 C565 1.398 . S
C566 C567 1.352 . S
C567 C566 1.352 . S
C567 C568 1.384 . S
C567 H594 0.930 . S
C568 C563 1.407 1_455 S
C568 C567 1.384 . S
C568 H595 0.929 . S
C569 O582 1.241 . S
C569 O583 1.273 . S
C570 O584 1.251 . S
C570 O585 1.268 . S
C571 Nd561 2.836 . S
C571 C572 1.498 . S
C571 O586 1.258 . S
C571 O587 1.239 . S
C572 C571 1.498 . S
C572 C573 1.366 . S
C572 C577 1.407 . S
C573 C572 1.366 . S
C573 C574 1.392 . S
C573 H596 0.930 . S
C574 C573 1.392 . S
C574 C575 1.398 . S
C574 H597 0.929 . S
C575 C574 1.398 . S
C575 C576 1.352 . S
C576 C575 1.352 . S
C576 C577 1.384 . S
C576 H598 0.930 . S
C577 C572 1.407 . S
C577 C576 1.384 . S
C577 H599 0.929 . S
C578 O588 1.241 . S
C578 O589 1.273 . S
C579 O590 1.251 . S
C579 O591 1.268 . S
O580 Nd560 2.500 . S
O580 C562 1.258 . S
O581 Nd560 2.492 . S
O581 C562 1.239 . S
O582 Nd560 2.487 . S
O582 C569 1.241 . S
O583 Nd560 2.682 . S
O583 Nd561 2.414 . S
O583 C569 1.273 . S
O584 Nd560 2.410 . S
O584 C570 1.251 . S
O585 Nd561 2.424 . S
O585 C570 1.268 . S
O586 Nd561 2.500 . S
O586 C571 1.258 . S
O587 Nd561 2.492 . S
O587 C571 1.239 . S
O588 Nd561 2.487 . S
O588 C578 1.241 . S
O589 Nd560 2.414 . S
O589 Nd561 2.682 . S
O589 C578 1.273 . S
O590 Nd561 2.410 . S
O590 C579 1.251 . S
O591 Nd560 2.424 . S
O591 C579 1.268 . S
H592 C564 0.930 . S
H593 C565 0.929 . S
H594 C567 0.930 . S
H595 C568 0.929 . S
H596 C573 0.930 . S
H597 C574 0.929 . S
H598 C576 0.930 . S
H599 C577 0.929 . S
Nd600 C602 2.836 . S
Nd600 O620 2.500 . S
Nd600 O621 2.492 . S
Nd600 O622 2.487 . S
Nd600 O623 2.682 . S
Nd600 O624 2.410 . S
Nd600 O629 2.414 . S
Nd600 O631 2.424 . S
Nd601 C611 2.836 . S
Nd601 O623 2.414 . S
Nd601 O625 2.424 . S
Nd601 O626 2.500 . S
Nd601 O627 2.492 . S
Nd601 O628 2.487 . S
Nd601 O629 2.682 . S
Nd601 O630 2.410 . S
C602 Nd600 2.836 . S
C602 C603 1.498 . S
C602 O620 1.258 . S
C602 O621 1.239 . S
C603 C602 1.498 . S
C603 C604 1.366 . S
C603 C608 1.407 . S
C604 C603 1.366 . S
C604 C605 1.392 . S
C604 H632 0.930 . S
C605 C604 1.392 . S
C605 C606 1.398 . S
C605 H633 0.929 . S
C606 C605 1.398 . S
C606 C607 1.352 . S
C607 C606 1.352 . S
C607 C608 1.384 . S
C607 H634 0.930 . S
C608 C603 1.407 . S
C608 C607 1.384 . S
C608 H635 0.929 . S
C609 O622 1.241 . S
C609 O623 1.273 . S
C610 O624 1.251 . S
C610 O625 1.268 . S
C611 Nd601 2.836 . S
C611 C612 1.498 . S
C611 O626 1.258 . S
C611 O627 1.239 . S
C612 C611 1.498 . S
C612 C613 1.366 . S
C612 C617 1.407 . S
C613 C612 1.366 . S
C613 C614 1.392 . S
C613 H636 0.930 . S
C614 C613 1.392 . S
C614 C615 1.398 . S
C614 H637 0.929 . S
C615 C614 1.398 . S
C615 C616 1.352 . S
C616 C615 1.352 . S
C616 C617 1.384 . S
C616 H638 0.930 . S
C617 C612 1.407 . S
C617 C616 1.384 . S
C617 H639 0.929 . S
C618 O628 1.241 . S
C618 O629 1.273 . S
C619 O630 1.251 . S
C619 O631 1.268 . S
O620 Nd600 2.500 . S
O620 C602 1.258 . S
O621 Nd600 2.492 . S
O621 C602 1.239 . S
O622 Nd600 2.487 . S
O622 C609 1.241 . S
O623 Nd600 2.682 . S
O623 Nd601 2.414 . S
O623 C609 1.273 . S
O624 Nd600 2.410 . S
O624 C610 1.251 . S
O625 Nd601 2.424 . S
O625 C610 1.268 . S
O626 Nd601 2.500 . S
O626 C611 1.258 . S
O627 Nd601 2.492 . S
O627 C611 1.239 . S
O628 Nd601 2.487 . S
O628 C618 1.241 . S
O629 Nd600 2.414 . S
O629 Nd601 2.682 . S
O629 C618 1.273 . S
O630 Nd601 2.410 . S
O630 C619 1.251 . S
O631 Nd600 2.424 . S
O631 C619 1.268 . S
H632 C604 0.930 . S
H633 C605 0.929 . S
H634 C607 0.930 . S
H635 C608 0.929 . S
H636 C613 0.930 . S
H637 C614 0.929 . S
H638 C616 0.930 . S
H639 C617 0.929 . S
Nd640 C642 2.836 . S
Nd640 O660 2.500 . S
Nd640 O661 2.492 . S
Nd640 O662 2.487 . S
Nd640 O663 2.682 . S
Nd640 O664 2.410 . S
Nd640 O669 2.414 . S
Nd640 O671 2.424 . S
Nd641 C651 2.836 . S
Nd641 O663 2.414 . S
Nd641 O665 2.424 . S
Nd641 O666 2.500 . S
Nd641 O667 2.492 . S
Nd641 O668 2.487 . S
Nd641 O669 2.682 . S
Nd641 O670 2.410 . S
C642 Nd640 2.836 . S
C642 C643 1.498 . S
C642 O660 1.258 . S
C642 O661 1.239 . S
C643 C642 1.498 . S
C643 C644 1.366 . S
C643 C648 1.407 . S
C644 C643 1.366 . S
C644 C645 1.392 . S
C644 H672 0.930 . S
C645 C644 1.392 . S
C645 C646 1.398 . S
C645 H673 0.929 . S
C646 C645 1.398 . S
C646 C647 1.352 . S
C647 C646 1.352 . S
C647 C648 1.384 . S
C647 H674 0.930 . S
C648 C643 1.407 . S
C648 C647 1.384 . S
C648 H675 0.929 . S
C649 O662 1.241 . S
C649 O663 1.273 . S
C650 O664 1.251 . S
C650 O665 1.268 . S
C651 Nd641 2.836 . S
C651 C652 1.498 . S
C651 O666 1.258 . S
C651 O667 1.239 . S
C652 C651 1.498 . S
C652 C653 1.366 . S
C652 C657 1.407 . S
C653 C652 1.366 . S
C653 C654 1.392 . S
C653 H676 0.930 . S
C654 C653 1.392 . S
C654 C655 1.398 . S
C654 H677 0.929 . S
C655 C654 1.398 . S
C655 C656 1.352 . S
C656 C655 1.352 . S
C656 C657 1.384 . S
C656 H678 0.930 . S
C657 C652 1.407 . S
C657 C656 1.384 . S
C657 H679 0.929 . S
C658 O668 1.241 . S
C658 O669 1.273 . S
C659 O670 1.251 . S
C659 O671 1.268 . S
O660 Nd640 2.500 . S
O660 C642 1.258 . S
O661 Nd640 2.492 . S
O661 C642 1.239 . S
O662 Nd640 2.487 . S
O662 C649 1.241 . S
O663 Nd640 2.682 . S
O663 Nd641 2.414 . S
O663 C649 1.273 . S
O664 Nd640 2.410 . S
O664 C650 1.251 . S
O665 Nd641 2.424 . S
O665 C650 1.268 . S
O666 Nd641 2.500 . S
O666 C651 1.258 . S
O667 Nd641 2.492 . S
O667 C651 1.239 . S
O668 Nd641 2.487 . S
O668 C658 1.241 . S
O669 Nd640 2.414 . S
O669 Nd641 2.682 . S
O669 C658 1.273 . S
O670 Nd641 2.410 . S
O670 C659 1.251 . S
O671 Nd640 2.424 . S
O671 C659 1.268 . S
H672 C644 0.930 . S
H673 C645 0.929 . S
H674 C647 0.930 . S
H675 C648 0.929 . S
H676 C653 0.930 . S
H677 C654 0.929 . S
H678 C656 0.930 . S
H679 C657 0.929 . S
Nd680 C682 2.836 . S
Nd680 O700 2.500 . S
Nd680 O701 2.492 . S
Nd680 O702 2.487 . S
Nd680 O703 2.682 . S
Nd680 O704 2.410 . S
Nd680 O709 2.414 . S
Nd680 O711 2.424 . S
Nd681 C691 2.836 . S
Nd681 O703 2.414 . S
Nd681 O705 2.424 . S
Nd681 O706 2.500 . S
Nd681 O707 2.492 . S
Nd681 O708 2.487 . S
Nd681 O709 2.682 . S
Nd681 O710 2.410 . S
C682 Nd680 2.836 . S
C682 C683 1.498 . S
C682 O700 1.258 . S
C682 O701 1.239 . S
C683 C682 1.498 . S
C683 C684 1.366 . S
C683 C688 1.407 . S
C684 C683 1.366 . S
C684 C685 1.392 . S
C684 H712 0.930 . S
C685 C684 1.392 . S
C685 C686 1.398 . S
C685 H713 0.929 . S
C686 C685 1.398 . S
C686 C687 1.352 . S
C687 C686 1.352 . S
C687 C688 1.384 . S
C687 H714 0.930 . S
C688 C683 1.407 . S
C688 C687 1.384 . S
C688 H715 0.929 . S
C689 O702 1.241 . S
C689 O703 1.273 . S
C690 O704 1.251 . S
C690 O705 1.268 . S
C691 Nd681 2.836 . S
C691 C692 1.498 . S
C691 O706 1.258 . S
C691 O707 1.239 . S
C692 C691 1.498 . S
C692 C693 1.366 . S
C692 C697 1.407 . S
C693 C692 1.366 . S
C693 C694 1.392 . S
C693 H716 0.930 . S
C694 C693 1.392 . S
C694 C695 1.398 . S
C694 H717 0.929 . S
C695 C694 1.398 . S
C695 C696 1.352 . S
C696 C695 1.352 . S
C696 C697 1.384 . S
C696 H718 0.930 1_655 S
C697 C692 1.407 . S
C697 C696 1.384 . S
C697 H719 0.929 . S
C698 O708 1.241 . S
C698 O709 1.273 . S
C699 O710 1.251 . S
C699 O711 1.268 . S
O700 Nd680 2.500 . S
O700 C682 1.258 . S
O701 Nd680 2.492 . S
O701 C682 1.239 . S
O702 Nd680 2.487 . S
O702 C689 1.241 . S
O703 Nd680 2.682 . S
O703 Nd681 2.414 . S
O703 C689 1.273 . S
O704 Nd680 2.410 . S
O704 C690 1.251 . S
O705 Nd681 2.424 . S
O705 C690 1.268 . S
O706 Nd681 2.500 . S
O706 C691 1.258 . S
O707 Nd681 2.492 . S
O707 C691 1.239 . S
O708 Nd681 2.487 . S
O708 C698 1.241 . S
O709 Nd680 2.414 . S
O709 Nd681 2.682 . S
O709 C698 1.273 . S
O710 Nd681 2.410 . S
O710 C699 1.251 . S
O711 Nd680 2.424 . S
O711 C699 1.268 . S
H712 C684 0.930 . S
H713 C685 0.929 . S
H714 C687 0.930 . S
H715 C688 0.929 . S
H716 C693 0.930 . S
H717 C694 0.929 . S
H718 C696 0.930 1_455 S
H719 C697 0.929 . S
H720 C728 0.929 . S
H721 C730 0.930 . S
H722 C732 0.930 . S
H723 C735 0.929 . S
H724 C738 0.930 . S
H725 C740 0.960 . S
H726 C740 0.960 . S
H727 C740 0.960 . S
C728 H720 0.929 . S
C728 C729 1.377 . S
C728 C730 1.384 . S
C729 C728 1.377 . S
C729 C735 1.390 . S
C730 H721 0.930 . S
C730 C728 1.384 . S
C730 C731 1.372 . S
C731 C730 1.372 . S
C731 C732 1.400 . S
C731 C736 1.490 . S
C732 H722 0.930 . S
C732 C731 1.400 . S
C732 C735 1.386 . S
H733 C749 0.930 . S
H734 C750 0.931 . S
C735 H723 0.929 . S
C735 C729 1.390 . S
C735 C732 1.386 . S
C736 C731 1.490 . S
C736 C738 1.395 . S
C736 C739 1.403 . S
H737 C743 0.930 . S
C738 H724 0.930 . S
C738 C736 1.395 . S
C738 C741 1.403 . S
C739 C736 1.403 . S
C739 C740 1.524 . S
C739 C743 1.400 . S
C740 H725 0.960 . S
C740 H726 0.960 . S
C740 H727 0.960 . S
C740 C739 1.524 . S
C741 C738 1.403 . S
C741 C742 1.392 . S
C741 C745 1.495 . S
C742 C741 1.392 . S
C742 C743 1.385 . S
C742 C744 1.478 . S
C743 H737 0.930 . S
C743 C739 1.400 . S
C743 C742 1.385 . S
C744 C742 1.478 . S
C744 C746 1.381 . S
C744 C750 1.383 . S
C745 C741 1.495 . S
C745 H751 0.959 . S
C745 H752 0.961 . S
C745 H753 0.960 . S
C746 C744 1.381 . S
C746 C747 1.394 . S
C746 H754 0.930 . S
C747 C746 1.394 . S
C747 C748 1.383 . S
C747 H755 0.929 . S
C748 C747 1.383 . S
C748 C749 1.377 . S
C749 H733 0.930 . S
C749 C748 1.377 . S
C749 C750 1.379 . S
C750 H734 0.931 . S
C750 C744 1.383 . S
C750 C749 1.379 . S
H751 C745 0.959 . S
H752 C745 0.961 . S
H753 C745 0.960 . S
H754 C746 0.930 . S
H755 C747 0.929 . S
H756 C764 0.929 . S
H757 C766 0.930 . S
H758 C768 0.930 . S
H759 C771 0.929 . S
H760 C774 0.930 . S
H761 C776 0.960 . S
H762 C776 0.960 . S
H763 C776 0.960 . S
C764 H756 0.929 . S
C764 C765 1.377 . S
C764 C766 1.384 . S
C765 C764 1.377 . S
C765 C771 1.390 . S
C766 H757 0.930 . S
C766 C764 1.384 . S
C766 C767 1.372 . S
C767 C766 1.372 . S
C767 C768 1.400 . S
C767 C772 1.490 . S
C768 H758 0.930 . S
C768 C767 1.400 . S
C768 C771 1.386 . S
H769 C785 0.930 . S
H770 C786 0.931 . S
C771 H759 0.929 . S
C771 C765 1.390 . S
C771 C768 1.386 . S
C772 C767 1.490 . S
C772 C774 1.395 . S
C772 C775 1.403 . S
H773 C779 0.930 . S
C774 H760 0.930 . S
C774 C772 1.395 . S
C774 C777 1.403 . S
C775 C772 1.403 . S
C775 C776 1.524 . S
C775 C779 1.400 . S
C776 H761 0.960 . S
C776 H762 0.960 . S
C776 H763 0.960 . S
C776 C775 1.524 . S
C777 C774 1.403 . S
C777 C778 1.392 . S
C777 C781 1.495 . S
C778 C777 1.392 . S
C778 C779 1.385 . S
C778 C780 1.478 . S
C779 H773 0.930 . S
C779 C775 1.400 . S
C779 C778 1.385 . S
C780 C778 1.478 . S
C780 C782 1.381 . S
C780 C786 1.383 . S
C781 C777 1.495 . S
C781 H787 0.959 . S
C781 H788 0.961 . S
C781 H789 0.960 . S
C782 C780 1.381 . S
C782 C783 1.394 . S
C782 H790 0.930 . S
C783 C782 1.394 . S
C783 C784 1.383 . S
C783 H791 0.929 . S
C784 C783 1.383 . S
C784 C785 1.377 . S
C785 H769 0.930 . S
C785 C784 1.377 . S
C785 C786 1.379 . S
C786 H770 0.931 . S
C786 C780 1.383 . S
C786 C785 1.379 . S
H787 C781 0.959 . S
H788 C781 0.961 . S
H789 C781 0.960 . S
H790 C782 0.930 . S
H791 C783 0.929 . S
H792 C800 0.929 . S
H793 C802 0.930 . S
H794 C804 0.930 . S
H795 C807 0.929 . S
H796 C810 0.930 . S
H797 C812 0.960 . S
H798 C812 0.960 . S
H799 C812 0.960 . S
C800 H792 0.929 . S
C800 C801 1.377 . S
C800 C802 1.384 . S
C801 C800 1.377 . S
C801 C807 1.390 . S
C802 H793 0.930 . S
C802 C800 1.384 . S
C802 C803 1.372 . S
C803 C802 1.372 . S
C803 C804 1.400 . S
C803 C808 1.490 . S
C804 H794 0.930 . S
C804 C803 1.400 . S
C804 C807 1.386 . S
H805 C821 0.930 . S
H806 C822 0.931 . S
C807 H795 0.929 . S
C807 C801 1.390 . S
C807 C804 1.386 . S
C808 C803 1.490 . S
C808 C810 1.395 . S
C808 C811 1.403 . S
H809 C815 0.930 . S
C810 H796 0.930 . S
C810 C808 1.395 . S
C810 C813 1.403 . S
C811 C808 1.403 . S
C811 C812 1.524 . S
C811 C815 1.400 . S
C812 H797 0.960 . S
C812 H798 0.960 . S
C812 H799 0.960 . S
C812 C811 1.524 . S
C813 C810 1.403 . S
C813 C814 1.392 . S
C813 C817 1.495 . S
C814 C813 1.392 . S
C814 C815 1.385 . S
C814 C816 1.478 . S
C815 H809 0.930 . S
C815 C811 1.400 . S
C815 C814 1.385 . S
C816 C814 1.478 . S
C816 C818 1.381 . S
C816 C822 1.383 . S
C817 C813 1.495 . S
C817 H823 0.959 . S
C817 H824 0.961 . S
C817 H825 0.960 . S
C818 C816 1.381 . S
C818 C819 1.394 . S
C818 H826 0.930 . S
C819 C818 1.394 . S
C819 C820 1.383 . S
C819 H827 0.929 . S
C820 C819 1.383 . S
C820 C821 1.377 . S
C821 H805 0.930 . S
C821 C820 1.377 . S
C821 C822 1.379 . S
C822 H806 0.931 . S
C822 C816 1.383 . S
C822 C821 1.379 . S
H823 C817 0.959 . S
H824 C817 0.961 . S
H825 C817 0.960 . S
H826 C818 0.930 . S
H827 C819 0.929 . S
H828 C836 0.929 . S
H829 C838 0.930 . S
H830 C840 0.930 . S
H831 C843 0.929 . S
H832 C846 0.930 . S
H833 C848 0.960 . S
H834 C848 0.960 . S
H835 C848 0.960 . S
C836 H828 0.929 . S
C836 C837 1.377 . S
C836 C838 1.384 . S
C837 C836 1.377 . S
C837 C843 1.390 . S
C838 H829 0.930 . S
C838 C836 1.384 . S
C838 C839 1.372 . S
C839 C838 1.372 . S
C839 C840 1.400 . S
C839 C844 1.490 . S
C840 H830 0.930 . S
C840 C839 1.400 . S
C840 C843 1.386 . S
H841 C857 0.930 . S
H842 C858 0.931 . S
C843 H831 0.929 . S
C843 C837 1.390 . S
C843 C840 1.386 . S
C844 C839 1.490 . S
C844 C846 1.395 . S
C844 C847 1.403 . S
H845 C851 0.930 . S
C846 H832 0.930 . S
C846 C844 1.395 . S
C846 C849 1.403 . S
C847 C844 1.403 . S
C847 C848 1.524 . S
C847 C851 1.400 . S
C848 H833 0.960 . S
C848 H834 0.960 . S
C848 H835 0.960 . S
C848 C847 1.524 . S
C849 C846 1.403 . S
C849 C850 1.392 . S
C849 C853 1.495 . S
C850 C849 1.392 . S
C850 C851 1.385 . S
C850 C852 1.478 . S
C851 H845 0.930 . S
C851 C847 1.400 . S
C851 C850 1.385 . S
C852 C850 1.478 . S
C852 C854 1.381 . S
C852 C858 1.383 . S
C853 C849 1.495 . S
C853 H859 0.959 . S
C853 H860 0.961 . S
C853 H861 0.960 . S
C854 C852 1.381 . S
C854 C855 1.394 . S
C854 H862 0.930 . S
C855 C854 1.394 . S
C855 C856 1.383 . S
C855 H863 0.929 . S
C856 C855 1.383 . S
C856 C857 1.377 . S
C857 H841 0.930 . S
C857 C856 1.377 . S
C857 C858 1.379 . S
C858 H842 0.931 . S
C858 C852 1.383 . S
C858 C857 1.379 . S
H859 C853 0.959 . S
H860 C853 0.961 . S
H861 C853 0.960 . S
H862 C854 0.930 . S
H863 C855 0.929 . S
H864 C872 0.929 . S
H865 C874 0.930 . S
H866 C876 0.930 . S
H867 C879 0.929 . S
H868 C882 0.930 . S
H869 C884 0.960 . S
H870 C884 0.960 . S
H871 C884 0.960 . S
C872 H864 0.929 . S
C872 C873 1.377 . S
C872 C874 1.384 . S
C873 C872 1.377 . S
C873 C879 1.390 . S
C874 H865 0.930 . S
C874 C872 1.384 . S
C874 C875 1.372 . S
C875 C874 1.372 . S
C875 C876 1.400 . S
C875 C880 1.490 . S
C876 H866 0.930 . S
C876 C875 1.400 . S
C876 C879 1.386 . S
H877 C893 0.930 . S
H878 C894 0.931 . S
C879 H867 0.929 . S
C879 C873 1.390 . S
C879 C876 1.386 . S
C880 C875 1.490 . S
C880 C882 1.395 . S
C880 C883 1.403 . S
H881 C887 0.930 . S
C882 H868 0.930 . S
C882 C880 1.395 . S
C882 C885 1.403 . S
C883 C880 1.403 . S
C883 C884 1.524 . S
C883 C887 1.400 . S
C884 H869 0.960 . S
C884 H870 0.960 . S
C884 H871 0.960 . S
C884 C883 1.524 . S
C885 C882 1.403 . S
C885 C886 1.392 . S
C885 C889 1.495 . S
C886 C885 1.392 . S
C886 C887 1.385 . S
C886 C888 1.478 . S
C887 H881 0.930 . S
C887 C883 1.400 . S
C887 C886 1.385 . S
C888 C886 1.478 . S
C888 C890 1.381 . S
C888 C894 1.383 . S
C889 C885 1.495 . S
C889 H895 0.959 . S
C889 H896 0.961 . S
C889 H897 0.960 . S
C890 C888 1.381 . S
C890 C891 1.394 . S
C890 H898 0.930 . S
C891 C890 1.394 . S
C891 C892 1.383 . S
C891 H899 0.929 . S
C892 C891 1.383 . S
C892 C893 1.377 . S
C893 H877 0.930 . S
C893 C892 1.377 . S
C893 C894 1.379 . S
C894 H878 0.931 . S
C894 C888 1.383 . S
C894 C893 1.379 . S
H895 C889 0.959 . S
H896 C889 0.961 . S
H897 C889 0.960 . S
H898 C890 0.930 . S
H899 C891 0.929 . S
H900 C908 0.929 . S
H901 C910 0.930 . S
H902 C912 0.930 . S
H903 C915 0.929 . S
H904 C918 0.930 . S
H905 C920 0.960 . S
H906 C920 0.960 . S
H907 C920 0.960 . S
C908 H900 0.929 . S
C908 C909 1.377 . S
C908 C910 1.384 . S
C909 C908 1.377 . S
C909 C915 1.390 . S
C910 H901 0.930 . S
C910 C908 1.384 . S
C910 C911 1.372 . S
C911 C910 1.372 . S
C911 C912 1.400 . S
C911 C916 1.490 . S
C912 H902 0.930 . S
C912 C911 1.400 . S
C912 C915 1.386 . S
H913 C929 0.930 . S
H914 C930 0.931 . S
C915 H903 0.929 . S
C915 C909 1.390 . S
C915 C912 1.386 . S
C916 C911 1.490 . S
C916 C918 1.395 . S
C916 C919 1.403 . S
H917 C923 0.930 . S
C918 H904 0.930 . S
C918 C916 1.395 . S
C918 C921 1.403 . S
C919 C916 1.403 . S
C919 C920 1.524 . S
C919 C923 1.400 . S
C920 H905 0.960 . S
C920 H906 0.960 . S
C920 H907 0.960 . S
C920 C919 1.524 . S
C921 C918 1.403 . S
C921 C922 1.392 . S
C921 C925 1.495 . S
C922 C921 1.392 . S
C922 C923 1.385 . S
C922 C924 1.478 . S
C923 H917 0.930 . S
C923 C919 1.400 . S
C923 C922 1.385 . S
C924 C922 1.478 . S
C924 C926 1.381 . S
C924 C930 1.383 . S
C925 C921 1.495 . S
C925 H931 0.959 . S
C925 H932 0.961 . S
C925 H933 0.960 . S
C926 C924 1.381 . S
C926 C927 1.394 . S
C926 H934 0.930 . S
C927 C926 1.394 . S
C927 C928 1.383 . S
C927 H935 0.929 . S
C928 C927 1.383 . S
C928 C929 1.377 . S
C929 H913 0.930 . S
C929 C928 1.377 . S
C929 C930 1.379 . S
C930 H914 0.931 . S
C930 C924 1.383 . S
C930 C929 1.379 . S
H931 C925 0.959 . S
H932 C925 0.961 . S
H933 C925 0.960 . S
H934 C926 0.930 . S
H935 C927 0.929 . S
H936 C944 0.929 . S
H937 C946 0.930 . S
H938 C948 0.925 1_545 S
H939 C951 0.929 . S
H940 C954 0.930 1_565 S
H941 C956 0.960 . S
H942 C956 0.960 . S
H943 C956 0.960 . S
C944 H936 0.929 . S
C944 C945 1.377 . S
C944 C946 1.384 . S
C945 C944 1.377 . S
C945 C951 1.390 . S
C946 H937 0.930 . S
C946 C944 1.384 . S
C946 C947 1.381 . S
C947 C946 1.381 . S
C947 C948 1.402 . S
C947 C952 1.476 1_565 S
C948 H938 0.925 1_565 S
C948 C947 1.402 . S
C948 C951 1.394 . S
H949 C965 0.930 . S
H950 C966 0.931 . S
C951 H939 0.929 . S
C951 C945 1.390 . S
C951 C948 1.394 . S
C952 C947 1.476 1_545 S
C952 C954 1.395 . S
C952 C955 1.403 . S
H953 C959 0.930 . S
C954 H940 0.930 1_545 S
C954 C952 1.395 . S
C954 C957 1.403 . S
C955 C952 1.403 . S
C955 C956 1.524 . S
C955 C959 1.400 . S
C956 H941 0.960 . S
C956 H942 0.960 . S
C956 H943 0.960 . S
C956 C955 1.524 . S
C957 C954 1.403 . S
C957 C958 1.392 . S
C957 C961 1.495 . S
C958 C957 1.392 . S
C958 C959 1.385 . S
C958 C960 1.478 . S
C959 H953 0.930 . S
C959 C955 1.400 . S
C959 C958 1.385 . S
C960 C958 1.478 . S
C960 C962 1.381 . S
C960 C966 1.383 . S
C961 C957 1.495 . S
C961 H967 0.959 . S
C961 H968 0.961 . S
C961 H969 0.960 . S
C962 C960 1.381 . S
C962 C963 1.394 . S
C962 H970 0.930 . S
C963 C962 1.394 . S
C963 C964 1.383 . S
C963 H971 0.929 . S
C964 C963 1.383 . S
C964 C965 1.377 . S
C965 H949 0.930 . S
C965 C964 1.377 . S
C965 C966 1.379 . S
C966 H950 0.931 . S
C966 C960 1.383 . S
C966 C965 1.379 . S
H967 C961 0.959 . S
H968 C961 0.961 . S
H969 C961 0.960 . S
H970 C962 0.930 . S
H971 C963 0.929 . S
H972 C980 0.929 . S
H973 C982 0.930 . S
H974 C984 0.930 . S
H975 C987 0.929 . S
H976 C990 0.930 . S
H977 C992 0.960 . S
H978 C992 0.960 . S
H979 C992 0.960 . S
C980 H972 0.929 . S
C980 C981 1.377 . S
C980 C982 1.384 . S
C981 C980 1.377 . S
C981 C987 1.390 . S
C982 H973 0.930 . S
C982 C980 1.384 . S
C982 C983 1.372 . S
C983 C982 1.372 . S
C983 C984 1.400 . S
C983 C988 1.490 . S
C984 H974 0.930 . S
C984 C983 1.400 . S
C984 C987 1.386 . S
H985 C1001 0.930 . S
H986 C1002 0.931 . S
C987 H975 0.929 . S
C987 C981 1.390 . S
C987 C984 1.386 . S
C988 C983 1.490 . S
C988 C990 1.395 . S
C988 C991 1.403 1_455 S
H989 C995 0.930 . S
C990 H976 0.930 . S
C990 C988 1.395 . S
C990 C993 1.403 1_455 S
C991 C988 1.403 1_655 S
C991 C992 1.524 . S
C991 C995 1.400 . S
C992 H977 0.960 . S
C992 H978 0.960 . S
C992 H979 0.960 . S
C992 C991 1.524 . S
C993 C990 1.403 1_655 S
C993 C994 1.392 . S
C993 C997 1.495 1_655 S
C994 C993 1.392 . S
C994 C995 1.385 . S
C994 C996 1.478 . S
C995 H989 0.930 . S
C995 C991 1.400 . S
C995 C994 1.385 . S
C996 C994 1.478 . S
C996 C998 1.381 . S
C996 C1002 1.383 . S
C997 C993 1.495 1_455 S
C997 H1003 0.959 . S
C997 H1004 0.961 1_455 S
C997 H1005 0.960 . S
C998 C996 1.381 . S
C998 C999 1.394 . S
C998 H1006 0.930 . S
C999 C998 1.394 . S
C999 C1000 1.383 . S
C999 H1007 0.929 . S
C1000 C999 1.383 . S
C1000 C1001 1.377 . S
C1001 H985 0.930 . S
C1001 C1000 1.377 . S
C1001 C1002 1.379 . S
C1002 H986 0.931 . S
C1002 C996 1.383 . S
C1002 C1001 1.379 . S
H1003 C997 0.959 . S
H1004 C997 0.961 1_655 S
H1005 C997 0.960 . S
H1006 C998 0.930 . S
H1007 C999 0.929 . S
H1008 C1016 0.928 . S
H1009 C1018 0.930 . S
H1010 C1020 0.930 . S
H1011 C1023 0.929 . S
H1012 C1026 0.930 . S
H1013 C1028 0.960 . S
H1014 C1028 0.960 . S
H1015 C1028 0.960 . S
C1016 H1008 0.928 . S
C1016 C1017 1.377 1_655 S
C1016 C1018 1.384 . S
C1017 C1016 1.377 1_455 S
C1017 C1023 1.390 . S
C1018 H1009 0.930 . S
C1018 C1016 1.384 . S
C1018 C1019 1.372 . S
C1019 C1018 1.372 . S
C1019 C1020 1.400 . S
C1019 C1024 1.490 . S
C1020 H1010 0.930 . S
C1020 C1019 1.400 . S
C1020 C1023 1.386 1_655 S
H1021 C1037 0.930 . S
H1022 C1038 0.931 . S
C1023 H1011 0.929 . S
C1023 C1017 1.390 . S
C1023 C1020 1.386 1_455 S
C1024 C1019 1.490 . S
C1024 C1026 1.395 . S
C1024 C1027 1.403 . S
H1025 C1031 0.930 . S
C1026 H1012 0.930 . S
C1026 C1024 1.395 . S
C1026 C1029 1.403 . S
C1027 C1024 1.403 . S
C1027 C1028 1.524 . S
C1027 C1031 1.400 . S
C1028 H1013 0.960 . S
C1028 H1014 0.960 . S
C1028 H1015 0.960 . S
C1028 C1027 1.524 . S
C1029 C1026 1.403 . S
C1029 C1030 1.392 . S
C1029 C1033 1.495 . S
C1030 C1029 1.392 . S
C1030 C1031 1.385 . S
C1030 C1032 1.478 . S
C1031 H1025 0.930 . S
C1031 C1027 1.400 . S
C1031 C1030 1.385 . S
C1032 C1030 1.478 . S
C1032 C1034 1.381 . S
C1032 C1038 1.383 . S
C1033 C1029 1.495 . S
C1033 H1039 0.959 . S
C1033 H1040 0.961 . S
C1033 H1041 0.960 . S
C1034 C1032 1.381 . S
C1034 C1035 1.394 . S
C1034 H1042 0.930 . S
C1035 C1034 1.394 . S
C1035 C1036 1.383 . S
C1035 H1043 0.929 . S
C1036 C1035 1.383 . S
C1036 C1037 1.377 . S
C1037 H1021 0.930 . S
C1037 C1036 1.377 . S
C1037 C1038 1.379 . S
C1038 H1022 0.931 . S
C1038 C1032 1.383 . S
C1038 C1037 1.379 . S
H1039 C1033 0.959 . S
H1040 C1033 0.961 . S
H1041 C1033 0.960 . S
H1042 C1034 0.930 . S
H1043 C1035 0.929 . S
H1044 C1052 0.929 . S
H1045 C1054 0.930 . S
H1046 C1056 0.930 . S
H1047 C1059 0.929 . S
H1048 C1062 0.930 . S
H1049 C1064 0.960 . S
H1050 C1064 0.960 . S
H1051 C1064 0.960 . S
C1052 H1044 0.929 . S
C1052 C1053 1.377 . S
C1052 C1054 1.384 . S
C1053 C1052 1.377 . S
C1053 C1059 1.390 . S
C1054 H1045 0.930 . S
C1054 C1052 1.384 . S
C1054 C1055 1.372 . S
C1055 C1054 1.372 . S
C1055 C1056 1.400 . S
C1055 C1060 1.490 . S
C1056 H1046 0.930 . S
C1056 C1055 1.400 . S
C1056 C1059 1.386 . S
H1057 C1073 0.930 . S
H1058 C1074 0.931 . S
C1059 H1047 0.929 . S
C1059 C1053 1.390 . S
C1059 C1056 1.386 . S
C1060 C1055 1.490 . S
C1060 C1062 1.395 . S
C1060 C1063 1.403 . S
H1061 C1067 0.930 . S
C1062 H1048 0.930 . S
C1062 C1060 1.395 . S
C1062 C1065 1.403 . S
C1063 C1060 1.403 . S
C1063 C1064 1.524 . S
C1063 C1067 1.400 . S
C1064 H1049 0.960 . S
C1064 H1050 0.960 . S
C1064 H1051 0.960 . S
C1064 C1063 1.524 . S
C1065 C1062 1.403 . S
C1065 C1066 1.392 . S
C1065 C1069 1.495 . S
C1066 C1065 1.392 . S
C1066 C1067 1.385 . S
C1066 C1068 1.478 . S
C1067 H1061 0.930 . S
C1067 C1063 1.400 . S
C1067 C1066 1.385 . S
C1068 C1066 1.478 . S
C1068 C1070 1.381 . S
C1068 C1074 1.383 . S
C1069 C1065 1.495 . S
C1069 H1075 0.959 . S
C1069 H1076 0.961 . S
C1069 H1077 0.960 . S
C1070 C1068 1.381 . S
C1070 C1071 1.394 . S
C1070 H1078 0.930 . S
C1071 C1070 1.394 . S
C1071 C1072 1.383 . S
C1071 H1079 0.929 . S
C1072 C1071 1.383 . S
C1072 C1073 1.377 . S
C1073 H1057 0.930 . S
C1073 C1072 1.377 . S
C1073 C1074 1.379 . S
C1074 H1058 0.931 . S
C1074 C1068 1.383 . S
C1074 C1073 1.379 . S
H1075 C1069 0.959 . S
H1076 C1069 0.961 . S
H1077 C1069 0.960 . S
H1078 C1070 0.930 . S
H1079 C1071 0.929 . S
H1080 C1088 0.929 . S
H1081 C1090 0.930 . S
H1082 C1092 0.930 . S
H1083 C1095 0.929 . S
H1084 C1098 0.930 . S
H1085 C1100 0.960 . S
H1086 C1100 0.960 . S
H1087 C1100 0.960 . S
C1088 H1080 0.929 . S
C1088 C1089 1.377 . S
C1088 C1090 1.384 . S
C1089 C1088 1.377 . S
C1089 C1095 1.390 . S
C1090 H1081 0.930 . S
C1090 C1088 1.384 . S
C1090 C1091 1.372 . S
C1091 C1090 1.372 . S
C1091 C1092 1.400 . S
C1091 C1096 1.490 . S
C1092 H1082 0.930 . S
C1092 C1091 1.400 . S
C1092 C1095 1.386 . S
H1093 C1109 0.930 . S
H1094 C1110 0.931 . S
C1095 H1083 0.929 . S
C1095 C1089 1.390 . S
C1095 C1092 1.386 . S
C1096 C1091 1.490 . S
C1096 C1098 1.395 . S
C1096 C1099 1.403 . S
H1097 C1103 0.930 . S
C1098 H1084 0.930 . S
C1098 C1096 1.395 . S
C1098 C1101 1.403 . S
C1099 C1096 1.403 . S
C1099 C1100 1.524 . S
C1099 C1103 1.400 . S
C1100 H1085 0.960 . S
C1100 H1086 0.960 . S
C1100 H1087 0.960 . S
C1100 C1099 1.524 . S
C1101 C1098 1.403 . S
C1101 C1102 1.392 . S
C1101 C1105 1.495 . S
C1102 C1101 1.392 . S
C1102 C1103 1.385 . S
C1102 C1104 1.478 . S
C1103 H1097 0.930 . S
C1103 C1099 1.400 . S
C1103 C1102 1.385 . S
C1104 C1102 1.478 . S
C1104 C1106 1.381 . S
C1104 C1110 1.383 . S
C1105 C1101 1.495 . S
C1105 H1111 0.959 . S
C1105 H1112 0.961 . S
C1105 H1113 0.960 . S
C1106 C1104 1.381 . S
C1106 C1107 1.394 . S
C1106 H1114 0.930 . S
C1107 C1106 1.394 . S
C1107 C1108 1.383 . S
C1107 H1115 0.929 . S
C1108 C1107 1.383 . S
C1108 C1109 1.377 . S
C1109 H1093 0.930 . S
C1109 C1108 1.377 . S
C1109 C1110 1.379 . S
C1110 H1094 0.931 . S
C1110 C1104 1.383 . S
C1110 C1109 1.379 . S
H1111 C1105 0.959 . S
H1112 C1105 0.961 . S
H1113 C1105 0.960 . S
H1114 C1106 0.930 . S
H1115 C1107 0.929 . S
H1116 C1124 0.929 . S
H1117 C1126 0.930 . S
H1118 C1128 0.930 . S
H1119 C1131 0.929 . S
H1120 C1134 0.930 . S
H1121 C1136 0.960 . S
H1122 C1136 0.960 . S
H1123 C1136 0.960 . S
C1124 H1116 0.929 . S
C1124 C1125 1.377 . S
C1124 C1126 1.384 . S
C1125 C1124 1.377 . S
C1125 C1131 1.390 . S
C1126 H1117 0.930 . S
C1126 C1124 1.384 . S
C1126 C1127 1.372 . S
C1127 C1126 1.372 . S
C1127 C1128 1.400 . S
C1127 C1132 1.490 . S
C1128 H1118 0.930 . S
C1128 C1127 1.400 . S
C1128 C1131 1.386 . S
H1129 C1145 0.930 . S
H1130 C1146 0.931 . S
C1131 H1119 0.929 . S
C1131 C1125 1.390 . S
C1131 C1128 1.386 . S
C1132 C1127 1.490 . S
C1132 C1134 1.395 . S
C1132 C1135 1.403 . S
H1133 C1139 0.930 . S
C1134 H1120 0.930 . S
C1134 C1132 1.395 . S
C1134 C1137 1.403 . S
C1135 C1132 1.403 . S
C1135 C1136 1.524 . S
C1135 C1139 1.400 . S
C1136 H1121 0.960 . S
C1136 H1122 0.960 . S
C1136 H1123 0.960 . S
C1136 C1135 1.524 . S
C1137 C1134 1.403 . S
C1137 C1138 1.392 . S
C1137 C1141 1.495 . S
C1138 C1137 1.392 . S
C1138 C1139 1.385 . S
C1138 C1140 1.478 . S
C1139 H1133 0.930 . S
C1139 C1135 1.400 . S
C1139 C1138 1.385 . S
C1140 C1138 1.478 . S
C1140 C1142 1.381 . S
C1140 C1146 1.383 . S
C1141 C1137 1.495 . S
C1141 H1147 0.959 . S
C1141 H1148 0.961 . S
C1141 H1149 0.960 . S
C1142 C1140 1.381 . S
C1142 C1143 1.394 . S
C1142 H1150 0.930 . S
C1143 C1142 1.394 . S
C1143 C1144 1.383 . S
C1143 H1151 0.929 . S
C1144 C1143 1.383 . S
C1144 C1145 1.377 . S
C1145 H1129 0.930 . S
C1145 C1144 1.377 . S
C1145 C1146 1.379 . S
C1146 H1130 0.931 . S
C1146 C1140 1.383 . S
C1146 C1145 1.379 . S
H1147 C1141 0.959 . S
H1148 C1141 0.961 . S
H1149 C1141 0.960 . S
H1150 C1142 0.930 . S
H1151 C1143 0.929 . S
H1152 C1160 0.929 . S
H1153 C1162 0.930 . S
H1154 C1164 0.930 . S
H1155 C1167 0.929 . S
H1156 C1170 0.930 . S
H1157 C1172 0.960 . S
H1158 C1172 0.960 . S
H1159 C1172 0.960 . S
C1160 H1152 0.929 . S
C1160 C1161 1.377 . S
C1160 C1162 1.384 . S
C1161 C1160 1.377 . S
C1161 C1167 1.390 . S
C1162 H1153 0.930 . S
C1162 C1160 1.384 . S
C1162 C1163 1.372 . S
C1163 C1162 1.372 . S
C1163 C1164 1.400 . S
C1163 C1168 1.490 . S
C1164 H1154 0.930 . S
C1164 C1163 1.400 . S
C1164 C1167 1.386 . S
H1165 C1181 0.930 . S
H1166 C1182 0.931 . S
C1167 H1155 0.929 . S
C1167 C1161 1.390 . S
C1167 C1164 1.386 . S
C1168 C1163 1.490 . S
C1168 C1170 1.395 . S
C1168 C1171 1.403 . S
H1169 C1175 0.930 . S
C1170 H1156 0.930 . S
C1170 C1168 1.395 . S
C1170 C1173 1.403 . S
C1171 C1168 1.403 . S
C1171 C1172 1.524 . S
C1171 C1175 1.400 . S
C1172 H1157 0.960 . S
C1172 H1158 0.960 . S
C1172 H1159 0.960 . S
C1172 C1171 1.524 . S
C1173 C1170 1.403 . S
C1173 C1174 1.392 . S
C1173 C1177 1.495 . S
C1174 C1173 1.392 . S
C1174 C1175 1.385 . S
C1174 C1176 1.478 . S
C1175 H1169 0.930 . S
C1175 C1171 1.400 . S
C1175 C1174 1.385 . S
C1176 C1174 1.478 . S
C1176 C1178 1.381 . S
C1176 C1182 1.383 . S
C1177 C1173 1.495 . S
C1177 H1183 0.959 . S
C1177 H1184 0.961 . S
C1177 H1185 0.960 . S
C1178 C1176 1.381 . S
C1178 C1179 1.394 . S
C1178 H1186 0.930 . S
C1179 C1178 1.394 . S
C1179 C1180 1.383 . S
C1179 H1187 0.929 . S
C1180 C1179 1.383 . S
C1180 C1181 1.377 . S
C1181 H1165 0.930 . S
C1181 C1180 1.377 . S
C1181 C1182 1.379 . S
C1182 H1166 0.931 . S
C1182 C1176 1.383 . S
C1182 C1181 1.379 . S
H1183 C1177 0.959 . S
H1184 C1177 0.961 . S
H1185 C1177 0.960 . S
H1186 C1178 0.930 . S
H1187 C1179 0.929 . S
H1188 C1196 0.929 . S
H1189 C1198 0.930 . S
H1190 C1200 0.930 . S
H1191 C1203 0.929 . S
H1192 C1206 0.930 . S
H1193 C1208 0.960 . S
H1194 C1208 0.960 . S
H1195 C1208 0.960 . S
C1196 H1188 0.929 . S
C1196 C1197 1.377 . S
C1196 C1198 1.384 . S
C1197 C1196 1.377 . S
C1197 C1203 1.390 . S
C1198 H1189 0.930 . S
C1198 C1196 1.384 . S
C1198 C1199 1.372 . S
C1199 C1198 1.372 . S
C1199 C1200 1.400 . S
C1199 C1204 1.490 . S
C1200 H1190 0.930 . S
C1200 C1199 1.400 . S
C1200 C1203 1.386 . S
H1201 C1217 0.930 . S
H1202 C1218 0.931 . S
C1203 H1191 0.929 . S
C1203 C1197 1.390 . S
C1203 C1200 1.386 . S
C1204 C1199 1.490 . S
C1204 C1206 1.395 . S
C1204 C1207 1.403 . S
H1205 C1211 0.930 . S
C1206 H1192 0.930 . S
C1206 C1204 1.395 . S
C1206 C1209 1.403 . S
C1207 C1204 1.403 . S
C1207 C1208 1.524 . S
C1207 C1211 1.400 . S
C1208 H1193 0.960 . S
C1208 H1194 0.960 . S
C1208 H1195 0.960 . S
C1208 C1207 1.524 . S
C1209 C1206 1.403 . S
C1209 C1210 1.392 . S
C1209 C1213 1.495 . S
C1210 C1209 1.392 . S
C1210 C1211 1.385 . S
C1210 C1212 1.478 . S
C1211 H1205 0.930 . S
C1211 C1207 1.400 . S
C1211 C1210 1.385 . S
C1212 C1210 1.478 . S
C1212 C1214 1.381 . S
C1212 C1218 1.383 . S
C1213 C1209 1.495 . S
C1213 H1219 0.959 . S
C1213 H1220 0.961 . S
C1213 H1221 0.960 . S
C1214 C1212 1.381 . S
C1214 C1215 1.394 . S
C1214 H1222 0.930 . S
C1215 C1214 1.394 . S
C1215 C1216 1.383 . S
C1215 H1223 0.929 . S
C1216 C1215 1.383 . S
C1216 C1217 1.377 . S
C1217 H1201 0.930 . S
C1217 C1216 1.377 . S
C1217 C1218 1.379 . S
C1218 H1202 0.931 . S
C1218 C1212 1.383 . S
C1218 C1217 1.379 . S
H1219 C1213 0.959 . S
H1220 C1213 0.961 . S
H1221 C1213 0.960 . S
H1222 C1214 0.930 . S
H1223 C1215 0.929 . S
H1224 C1232 0.929 . S
H1225 C1234 0.930 . S
H1226 C1236 0.930 . S
H1227 C1239 0.929 . S
H1228 C1242 0.930 . S
H1229 C1244 0.960 . S
H1230 C1244 0.960 . S
H1231 C1244 0.960 . S
C1232 H1224 0.929 . S
C1232 C1233 1.377 . S
C1232 C1234 1.384 . S
C1233 C1232 1.377 . S
C1233 C1239 1.390 . S
C1234 H1225 0.930 . S
C1234 C1232 1.384 . S
C1234 C1235 1.372 . S
C1235 C1234 1.372 . S
C1235 C1236 1.400 . S
C1235 C1240 1.490 . S
C1236 H1226 0.930 . S
C1236 C1235 1.400 . S
C1236 C1239 1.386 . S
H1237 C1253 0.930 . S
H1238 C1254 0.931 . S
C1239 H1227 0.929 . S
C1239 C1233 1.390 . S
C1239 C1236 1.386 . S
C1240 C1235 1.490 . S
C1240 C1242 1.395 . S
C1240 C1243 1.403 . S
H1241 C1247 0.930 . S
C1242 H1228 0.930 . S
C1242 C1240 1.395 . S
C1242 C1245 1.403 . S
C1243 C1240 1.403 . S
C1243 C1244 1.524 . S
C1243 C1247 1.400 . S
C1244 H1229 0.960 . S
C1244 H1230 0.960 . S
C1244 H1231 0.960 . S
C1244 C1243 1.524 . S
C1245 C1242 1.403 . S
C1245 C1246 1.392 . S
C1245 C1249 1.495 . S
C1246 C1245 1.392 . S
C1246 C1247 1.385 . S
C1246 C1248 1.478 . S
C1247 H1241 0.930 . S
C1247 C1243 1.400 . S
C1247 C1246 1.385 . S
C1248 C1246 1.478 . S
C1248 C1250 1.381 . S
C1248 C1254 1.383 . S
C1249 C1245 1.495 . S
C1249 H1255 0.959 . S
C1249 H1256 0.961 . S
C1249 H1257 0.960 . S
C1250 C1248 1.381 . S
C1250 C1251 1.394 . S
C1250 H1258 0.930 . S
C1251 C1250 1.394 . S
C1251 C1252 1.383 . S
C1251 H1259 0.929 . S
C1252 C1251 1.383 . S
C1252 C1253 1.377 . S
C1253 H1237 0.930 . S
C1253 C1252 1.377 . S
C1253 C1254 1.379 . S
C1254 H1238 0.931 . S
C1254 C1248 1.383 . S
C1254 C1253 1.379 . S
H1255 C1249 0.959 . S
H1256 C1249 0.961 . S
H1257 C1249 0.960 . S
H1258 C1250 0.930 . S
H1259 C1251 0.929 . S
H1260 C1268 0.929 . S
H1261 C1270 0.930 . S
H1262 C1272 0.930 1_455 S
H1263 C1275 0.929 . S
H1264 C1278 0.930 1_655 S
H1265 C1280 0.960 . S
H1266 C1280 0.960 . S
H1267 C1280 0.960 . S
C1268 H1260 0.929 . S
C1268 C1269 1.377 . S
C1268 C1270 1.384 . S
C1269 C1268 1.377 . S
C1269 C1275 1.390 . S
C1270 H1261 0.930 . S
C1270 C1268 1.384 . S
C1270 C1271 1.379 . S
C1271 C1270 1.379 . S
C1271 C1272 1.404 . S
C1271 C1276 1.479 1_655 S
C1272 H1262 0.930 1_655 S
C1272 C1271 1.404 . S
C1272 C1275 1.386 . S
H1273 C1289 0.930 . S
H1274 C1290 0.931 . S
C1275 H1263 0.929 . S
C1275 C1269 1.390 . S
C1275 C1272 1.386 . S
C1276 C1271 1.479 1_455 S
C1276 C1278 1.395 . S
C1276 C1279 1.403 . S
H1277 C1283 0.930 . S
C1278 H1264 0.930 1_455 S
C1278 C1276 1.395 . S
C1278 C1281 1.403 . S
C1279 C1276 1.403 . S
C1279 C1280 1.524 . S
C1279 C1283 1.400 . S
C1280 H1265 0.960 . S
C1280 H1266 0.960 . S
C1280 H1267 0.960 . S
C1280 C1279 1.524 . S
C1281 C1278 1.403 . S
C1281 C1282 1.392 . S
C1281 C1285 1.495 . S
C1282 C1281 1.392 . S
C1282 C1283 1.385 . S
C1282 C1284 1.478 . S
C1283 H1277 0.930 . S
C1283 C1279 1.400 . S
C1283 C1282 1.385 . S
C1284 C1282 1.478 . S
C1284 C1286 1.381 . S
C1284 C1290 1.383 . S
C1285 C1281 1.495 . S
C1285 H1291 0.959 . S
C1285 H1292 0.961 . S
C1285 H1293 0.960 . S
C1286 C1284 1.381 . S
C1286 C1287 1.394 . S
C1286 H1294 0.930 . S
C1287 C1286 1.394 . S
C1287 C1288 1.383 . S
C1287 H1295 0.929 . S
C1288 C1287 1.383 . S
C1288 C1289 1.377 . S
C1289 H1273 0.930 . S
C1289 C1288 1.377 . S
C1289 C1290 1.379 . S
C1290 H1274 0.931 . S
C1290 C1284 1.383 . S
C1290 C1289 1.379 . S
H1291 C1285 0.959 . S
H1292 C1285 0.961 . S
H1293 C1285 0.960 . S
H1294 C1286 0.930 . S
H1295 C1287 0.929 . S
H1296 C1304 0.929 . S
H1297 C1306 0.930 . S
H1298 C1308 0.930 . S
H1299 C1311 0.929 . S
H1300 C1314 0.930 . S
H1301 C1316 0.960 . S
H1302 C1316 0.960 . S
H1303 C1316 0.960 . S
C1304 H1296 0.929 . S
C1304 C1305 1.377 . S
C1304 C1306 1.384 . S
C1305 C1304 1.377 . S
C1305 C1311 1.390 . S
C1306 H1297 0.930 . S
C1306 C1304 1.384 . S
C1306 C1307 1.372 . S
C1307 C1306 1.372 . S
C1307 C1308 1.400 . S
C1307 C1312 1.490 . S
C1308 H1298 0.930 . S
C1308 C1307 1.400 . S
C1308 C1311 1.386 . S
H1309 C1325 0.930 . S
H1310 C1326 0.931 . S
C1311 H1299 0.929 . S
C1311 C1305 1.390 . S
C1311 C1308 1.386 . S
C1312 C1307 1.490 . S
C1312 C1314 1.395 . S
C1312 C1315 1.403 . S
H1313 C1319 0.930 . S
C1314 H1300 0.930 . S
C1314 C1312 1.395 . S
C1314 C1317 1.403 . S
C1315 C1312 1.403 . S
C1315 C1316 1.524 . S
C1315 C1319 1.400 . S
C1316 H1301 0.960 . S
C1316 H1302 0.960 . S
C1316 H1303 0.960 . S
C1316 C1315 1.524 . S
C1317 C1314 1.403 . S
C1317 C1318 1.392 . S
C1317 C1321 1.495 . S
C1318 C1317 1.392 . S
C1318 C1319 1.385 . S
C1318 C1320 1.478 . S
C1319 H1313 0.930 . S
C1319 C1315 1.400 . S
C1319 C1318 1.385 . S
C1320 C1318 1.478 . S
C1320 C1322 1.381 . S
C1320 C1326 1.383 . S
C1321 C1317 1.495 . S
C1321 H1327 0.959 . S
C1321 H1328 0.961 . S
C1321 H1329 0.960 . S
C1322 C1320 1.381 . S
C1322 C1323 1.394 . S
C1322 H1330 0.930 . S
C1323 C1322 1.394 . S
C1323 C1324 1.383 1_565 S
C1323 H1331 0.927 . S
C1324 C1323 1.383 1_545 S
C1324 C1325 1.377 . S
C1325 H1309 0.930 . S
C1325 C1324 1.377 . S
C1325 C1326 1.379 1_545 S
C1326 H1310 0.931 . S
C1326 C1320 1.383 . S
C1326 C1325 1.379 1_565 S
H1327 C1321 0.959 . S
H1328 C1321 0.961 . S
H1329 C1321 0.960 . S
H1330 C1322 0.930 . S
H1331 C1323 0.927 . S
H1332 C1340 0.929 . S
H1333 C1342 0.930 . S
H1334 C1344 0.930 . S
H1335 C1347 0.929 . S
H1336 C1350 0.930 . S
H1337 C1352 0.960 . S
H1338 C1352 0.960 . S
H1339 C1352 0.960 . S
C1340 H1332 0.929 . S
C1340 C1341 1.377 . S
C1340 C1342 1.384 . S
C1341 C1340 1.377 . S
C1341 C1347 1.390 . S
C1342 H1333 0.930 . S
C1342 C1340 1.384 . S
C1342 C1343 1.372 . S
C1343 C1342 1.372 . S
C1343 C1344 1.400 . S
C1343 C1348 1.490 . S
C1344 H1334 0.930 . S
C1344 C1343 1.400 . S
C1344 C1347 1.386 . S
H1345 C1361 0.930 . S
H1346 C1362 0.931 . S
C1347 H1335 0.929 . S
C1347 C1341 1.390 . S
C1347 C1344 1.386 . S
C1348 C1343 1.490 . S
C1348 C1350 1.395 1_545 S
C1348 C1351 1.403 . S
H1349 C1355 0.930 . S
C1350 H1336 0.930 . S
C1350 C1348 1.395 1_565 S
C1350 C1353 1.403 . S
C1351 C1348 1.403 . S
C1351 C1352 1.524 . S
C1351 C1355 1.400 1_545 S
C1352 H1337 0.960 . S
C1352 H1338 0.960 . S
C1352 H1339 0.960 . S
C1352 C1351 1.524 . S
C1353 C1350 1.403 . S
C1353 C1354 1.392 . S
C1353 C1357 1.495 . S
C1354 C1353 1.392 . S
C1354 C1355 1.385 . S
C1354 C1356 1.478 . S
C1355 H1349 0.930 . S
C1355 C1351 1.400 1_565 S
C1355 C1354 1.385 . S
C1356 C1354 1.478 . S
C1356 C1358 1.381 . S
C1356 C1362 1.383 . S
C1357 C1353 1.495 . S
C1357 H1363 0.959 . S
C1357 H1364 0.961 . S
C1357 H1365 0.960 . S
C1358 C1356 1.381 . S
C1358 C1359 1.394 . S
C1358 H1366 0.930 . S
C1359 C1358 1.394 . S
C1359 C1360 1.383 . S
C1359 H1367 0.929 . S
C1360 C1359 1.383 . S
C1360 C1361 1.377 . S
C1361 H1345 0.930 . S
C1361 C1360 1.377 . S
C1361 C1362 1.379 . S
C1362 H1346 0.931 . S
C1362 C1356 1.383 . S
C1362 C1361 1.379 . S
H1363 C1357 0.959 . S
H1364 C1357 0.961 . S
H1365 C1357 0.960 . S
H1366 C1358 0.930 . S
H1367 C1359 0.929 . S
H1368 C1376 0.929 . S
H1369 C1378 0.930 . S
H1370 C1380 0.930 . S
H1371 C1383 0.929 . S
H1372 C1386 0.930 . S
H1373 C1388 0.960 . S
H1374 C1388 0.960 1_565 S
H1375 C1388 0.960 . S
C1376 H1368 0.929 . S
C1376 C1377 1.377 1_565 S
C1376 C1378 1.384 . S
C1377 C1376 1.377 1_545 S
C1377 C1383 1.390 . S
C1378 H1369 0.930 . S
C1378 C1376 1.384 . S
C1378 C1379 1.372 1_565 S
C1379 C1378 1.372 1_545 S
C1379 C1380 1.400 . S
C1379 C1384 1.490 . S
C1380 H1370 0.930 . S
C1380 C1379 1.400 . S
C1380 C1383 1.386 . S
H1381 C1397 0.930 . S
H1382 C1398 0.931 . S
C1383 H1371 0.929 . S
C1383 C1377 1.390 . S
C1383 C1380 1.386 . S
C1384 C1379 1.490 . S
C1384 C1386 1.395 . S
C1384 C1387 1.403 . S
H1385 C1391 0.930 . S
C1386 H1372 0.930 . S
C1386 C1384 1.395 . S
C1386 C1389 1.403 1_554 S
C1387 C1384 1.403 . S
C1387 C1388 1.524 . S
C1387 C1391 1.400 1_554 S
C1388 H1373 0.960 . S
C1388 H1374 0.960 1_545 S
C1388 H1375 0.960 . S
C1388 C1387 1.524 . S
C1389 C1386 1.403 1_556 S
C1389 C1390 1.392 . S
C1389 C1393 1.495 . S
C1390 C1389 1.392 . S
C1390 C1391 1.385 . S
C1390 C1392 1.478 . S
C1391 H1385 0.930 . S
C1391 C1387 1.400 1_556 S
C1391 C1390 1.385 . S
C1392 C1390 1.478 . S
C1392 C1394 1.381 1_545 S
C1392 C1398 1.383 . S
C1393 C1389 1.495 . S
C1393 H1399 0.959 . S
C1393 H1400 0.961 . S
C1393 H1401 0.960 1_545 S
C1394 C1392 1.381 1_565 S
C1394 C1395 1.394 . S
C1394 H1402 0.930 . S
C1395 C1394 1.394 . S
C1395 C1396 1.383 1_565 S
C1395 H1403 0.929 . S
C1396 C1395 1.383 1_545 S
C1396 C1397 1.377 . S
C1397 H1381 0.930 . S
C1397 C1396 1.377 . S
C1397 C1398 1.379 . S
C1398 H1382 0.931 . S
C1398 C1392 1.383 . S
C1398 C1397 1.379 . S
H1399 C1393 0.959 . S
H1400 C1393 0.961 . S
H1401 C1393 0.960 1_565 S
H1402 C1394 0.930 . S
H1403 C1395 0.929 . S
H1404 C1412 0.929 . S
H1405 C1414 0.930 . S
H1406 C1416 0.930 . S
H1407 C1419 0.929 . S
H1408 C1422 0.930 . S
H1409 C1424 0.960 . S
H1410 C1424 0.960 . S
H1411 C1424 0.960 . S
C1412 H1404 0.929 . S
C1412 C1413 1.377 . S
C1412 C1414 1.384 . S
C1413 C1412 1.377 . S
C1413 C1419 1.390 . S
C1414 H1405 0.930 . S
C1414 C1412 1.384 . S
C1414 C1415 1.372 . S
C1415 C1414 1.372 . S
C1415 C1416 1.400 . S
C1415 C1420 1.490 . S
C1416 H1406 0.930 . S
C1416 C1415 1.400 . S
C1416 C1419 1.386 . S
H1417 C1433 0.930 . S
H1418 C1434 0.931 . S
C1419 H1407 0.929 . S
C1419 C1413 1.390 . S
C1419 C1416 1.386 . S
C1420 C1415 1.490 . S
C1420 C1422 1.395 . S
C1420 C1423 1.403 1_455 S
H1421 C1427 0.950 . S
C1422 H1408 0.930 . S
C1422 C1420 1.395 . S
C1422 C1425 1.403 1_556 S
C1423 C1420 1.403 1_655 S
C1423 C1424 1.524 . S
C1423 C1427 1.402 1_556 S
C1424 H1409 0.960 . S
C1424 H1410 0.960 . S
C1424 H1411 0.960 . S
C1424 C1423 1.524 . S
C1425 C1422 1.403 1_554 S
C1425 C1426 1.392 . S
C1425 C1429 1.495 . S
C1426 C1425 1.392 . S
C1426 C1427 1.364 1_455 S
C1426 C1428 1.478 . S
C1427 H1421 0.950 . S
C1427 C1423 1.402 1_554 S
C1427 C1426 1.364 1_655 S
C1428 C1426 1.478 . S
C1428 C1430 1.381 . S
C1428 C1434 1.383 . S
C1429 C1425 1.495 . S
C1429 H1435 0.959 . S
C1429 H1436 0.961 . S
C1429 H1437 0.960 . S
C1430 C1428 1.381 . S
C1430 C1431 1.394 . S
C1430 H1438 0.930 . S
C1431 C1430 1.394 . S
C1431 C1432 1.383 . S
C1431 H1439 0.929 . S
C1432 C1431 1.383 . S
C1432 C1433 1.377 . S
C1433 H1417 0.930 . S
C1433 C1432 1.377 . S
C1433 C1434 1.379 . S
C1434 H1418 0.931 . S
C1434 C1428 1.383 . S
C1434 C1433 1.379 . S
H1435 C1429 0.959 . S
H1436 C1429 0.961 . S
H1437 C1429 0.960 . S
H1438 C1430 0.930 . S
H1439 C1431 0.929 . S
H1440 C1448 0.929 . S
H1441 C1450 0.930 . S
H1442 C1452 0.930 . S
H1443 C1455 0.929 . S
H1444 C1458 0.930 . S
H1445 C1460 0.960 . S
H1446 C1460 0.960 . S
H1447 C1460 0.960 . S
C1448 H1440 0.929 . S
C1448 C1449 1.377 . S
C1448 C1450 1.384 . S
C1449 C1448 1.377 . S
C1449 C1455 1.390 . S
C1450 H1441 0.930 . S
C1450 C1448 1.384 . S
C1450 C1451 1.372 . S
C1451 C1450 1.372 . S
C1451 C1452 1.400 . S
C1451 C1456 1.490 . S
C1452 H1442 0.930 . S
C1452 C1451 1.400 . S
C1452 C1455 1.386 . S
H1453 C1469 0.930 . S
H1454 C1470 0.931 . S
C1455 H1443 0.929 . S
C1455 C1449 1.390 . S
C1455 C1452 1.386 . S
C1456 C1451 1.490 . S
C1456 C1458 1.395 . S
C1456 C1459 1.403 . S
H1457 C1463 0.930 . S
C1458 H1444 0.930 . S
C1458 C1456 1.395 . S
C1458 C1461 1.403 1_556 S
C1459 C1456 1.403 . S
C1459 C1460 1.524 . S
C1459 C1463 1.400 1_556 S
C1460 H1445 0.960 . S
C1460 H1446 0.960 . S
C1460 H1447 0.960 . S
C1460 C1459 1.524 . S
C1461 C1458 1.403 1_554 S
C1461 C1462 1.392 . S
C1461 C1465 1.495 . S
C1462 C1461 1.392 . S
C1462 C1463 1.385 . S
C1462 C1464 1.478 . S
C1463 H1457 0.930 . S
C1463 C1459 1.400 1_554 S
C1463 C1462 1.385 . S
C1464 C1462 1.478 . S
C1464 C1466 1.381 . S
C1464 C1470 1.383 . S
C1465 C1461 1.495 . S
C1465 H1471 0.959 . S
C1465 H1472 0.961 . S
C1465 H1473 0.960 . S
C1466 C1464 1.381 . S
C1466 C1467 1.394 . S
C1466 H1474 0.930 . S
C1467 C1466 1.394 . S
C1467 C1468 1.383 . S
C1467 H1475 0.929 . S
C1468 C1467 1.383 . S
C1468 C1469 1.377 . S
C1469 H1453 0.930 . S
C1469 C1468 1.377 . S
C1469 C1470 1.379 . S
C1470 H1454 0.931 . S
C1470 C1464 1.383 . S
C1470 C1469 1.379 . S
H1471 C1465 0.959 . S
H1472 C1465 0.961 . S
H1473 C1465 0.960 . S
H1474 C1466 0.930 . S
H1475 C1467 0.929 . S
H1476 C1484 0.929 . S
H1477 C1486 0.930 . S
H1478 C1488 0.930 . S
H1479 C1491 0.929 . S
H1480 C1494 0.930 . S
H1481 C1496 0.960 . S
H1482 C1496 0.960 . S
H1483 C1496 0.960 . S
C1484 H1476 0.929 . S
C1484 C1485 1.377 . S
C1484 C1486 1.384 . S
C1485 C1484 1.377 . S
C1485 C1491 1.390 . S
C1486 H1477 0.930 . S
C1486 C1484 1.384 . S
C1486 C1487 1.372 . S
C1487 C1486 1.372 . S
C1487 C1488 1.400 . S
C1487 C1492 1.490 . S
C1488 H1478 0.930 . S
C1488 C1487 1.400 . S
C1488 C1491 1.386 . S
H1489 C1505 0.930 . S
H1490 C1506 0.931 . S
C1491 H1479 0.929 . S
C1491 C1485 1.390 . S
C1491 C1488 1.386 . S
C1492 C1487 1.490 . S
C1492 C1494 1.395 . S
C1492 C1495 1.403 . S
H1493 C1499 0.930 . S
C1494 H1480 0.930 . S
C1494 C1492 1.395 . S
C1494 C1497 1.403 . S
C1495 C1492 1.403 . S
C1495 C1496 1.524 . S
C1495 C1499 1.400 . S
C1496 H1481 0.960 . S
C1496 H1482 0.960 . S
C1496 H1483 0.960 . S
C1496 C1495 1.524 . S
C1497 C1494 1.403 . S
C1497 C1498 1.392 . S
C1497 C1501 1.495 . S
C1498 C1497 1.392 . S
C1498 C1499 1.385 . S
C1498 C1500 1.478 . S
C1499 H1493 0.930 . S
C1499 C1495 1.400 . S
C1499 C1498 1.385 . S
C1500 C1498 1.478 . S
C1500 C1502 1.381 . S
C1500 C1506 1.383 . S
C1501 C1497 1.495 . S
C1501 H1507 0.959 . S
C1501 H1508 0.961 . S
C1501 H1509 0.960 . S
C1502 C1500 1.381 . S
C1502 C1503 1.394 . S
C1502 H1510 0.930 . S
C1503 C1502 1.394 . S
C1503 C1504 1.383 . S
C1503 H1511 0.929 . S
C1504 C1503 1.383 . S
C1504 C1505 1.377 . S
C1505 H1489 0.930 . S
C1505 C1504 1.377 . S
C1505 C1506 1.379 . S
C1506 H1490 0.931 . S
C1506 C1500 1.383 . S
C1506 C1505 1.379 . S
H1507 C1501 0.959 . S
H1508 C1501 0.961 . S
H1509 C1501 0.960 . S
H1510 C1502 0.930 . S
H1511 C1503 0.929 . S
H1512 C1520 0.929 . S
H1513 C1522 0.930 . S
H1514 C1524 0.930 . S
H1515 C1527 0.929 . S
H1516 C1530 0.930 . S
H1517 C1532 0.960 . S
H1518 C1532 0.960 . S
H1519 C1532 0.960 . S
C1520 H1512 0.929 . S
C1520 C1521 1.377 . S
C1520 C1522 1.384 . S
C1521 C1520 1.377 . S
C1521 C1527 1.390 . S
C1522 H1513 0.930 . S
C1522 C1520 1.384 . S
C1522 C1523 1.372 . S
C1523 C1522 1.372 . S
C1523 C1524 1.400 . S
C1523 C1528 1.490 . S
C1524 H1514 0.930 . S
C1524 C1523 1.400 . S
C1524 C1527 1.386 . S
H1525 C1541 0.930 . S
H1526 C1542 0.931 . S
C1527 H1515 0.929 . S
C1527 C1521 1.390 . S
C1527 C1524 1.386 . S
C1528 C1523 1.490 . S
C1528 C1530 1.395 . S
C1528 C1531 1.403 . S
H1529 C1535 0.930 . S
C1530 H1516 0.930 . S
C1530 C1528 1.395 . S
C1530 C1533 1.403 . S
C1531 C1528 1.403 . S
C1531 C1532 1.524 . S
C1531 C1535 1.400 . S
C1532 H1517 0.960 . S
C1532 H1518 0.960 . S
C1532 H1519 0.960 . S
C1532 C1531 1.524 . S
C1533 C1530 1.403 . S
C1533 C1534 1.392 . S
C1533 C1537 1.495 . S
C1534 C1533 1.392 . S
C1534 C1535 1.385 . S
C1534 C1536 1.478 . S
C1535 H1529 0.930 . S
C1535 C1531 1.400 . S
C1535 C1534 1.385 . S
C1536 C1534 1.478 . S
C1536 C1538 1.381 . S
C1536 C1542 1.383 . S
C1537 C1533 1.495 . S
C1537 H1543 0.959 . S
C1537 H1544 0.961 . S
C1537 H1545 0.960 . S
C1538 C1536 1.381 . S
C1538 C1539 1.394 . S
C1538 H1546 0.930 . S
C1539 C1538 1.394 . S
C1539 C1540 1.383 . S
C1539 H1547 0.929 . S
C1540 C1539 1.383 . S
C1540 C1541 1.377 . S
C1541 H1525 0.930 . S
C1541 C1540 1.377 . S
C1541 C1542 1.379 . S
C1542 H1526 0.931 . S
C1542 C1536 1.383 . S
C1542 C1541 1.379 . S
H1543 C1537 0.959 . S
H1544 C1537 0.961 . S
H1545 C1537 0.960 . S
H1546 C1538 0.930 . S
H1547 C1539 0.929 . S
H1548 C1556 0.929 . S
H1549 C1558 0.930 . S
H1550 C1560 0.930 . S
H1551 C1563 0.929 . S
H1552 C1566 0.930 . S
H1553 C1568 0.960 . S
H1554 C1568 0.960 . S
H1555 C1568 0.960 . S
C1556 H1548 0.929 . S
C1556 C1557 1.377 . S
C1556 C1558 1.384 . S
C1557 C1556 1.377 . S
C1557 C1563 1.390 . S
C1558 H1549 0.930 . S
C1558 C1556 1.384 . S
C1558 C1559 1.372 . S
C1559 C1558 1.372 . S
C1559 C1560 1.400 . S
C1559 C1564 1.490 . S
C1560 H1550 0.930 . S
C1560 C1559 1.400 . S
C1560 C1563 1.386 . S
H1561 C1577 0.930 . S
H1562 C1578 0.931 . S
C1563 H1551 0.929 . S
C1563 C1557 1.390 . S
C1563 C1560 1.386 . S
C1564 C1559 1.490 . S
C1564 C1566 1.395 . S
C1564 C1567 1.403 . S
H1565 C1571 0.930 . S
C1566 H1552 0.930 . S
C1566 C1564 1.395 . S
C1566 C1569 1.403 . S
C1567 C1564 1.403 . S
C1567 C1568 1.524 . S
C1567 C1571 1.400 . S
C1568 H1553 0.960 . S
C1568 H1554 0.960 . S
C1568 H1555 0.960 . S
C1568 C1567 1.524 . S
C1569 C1566 1.403 . S
C1569 C1570 1.392 . S
C1569 C1573 1.495 . S
C1570 C1569 1.392 . S
C1570 C1571 1.385 . S
C1570 C1572 1.478 . S
C1571 H1565 0.930 . S
C1571 C1567 1.400 . S
C1571 C1570 1.385 . S
C1572 C1570 1.478 . S
C1572 C1574 1.381 . S
C1572 C1578 1.383 . S
C1573 C1569 1.495 . S
C1573 H1579 0.959 . S
C1573 H1580 0.961 . S
C1573 H1581 0.960 . S
C1574 C1572 1.381 . S
C1574 C1575 1.394 . S
C1574 H1582 0.930 . S
C1575 C1574 1.394 . S
C1575 C1576 1.383 . S
C1575 H1583 0.929 . S
C1576 C1575 1.383 . S
C1576 C1577 1.377 . S
C1577 H1561 0.930 . S
C1577 C1576 1.377 . S
C1577 C1578 1.379 . S
C1578 H1562 0.931 . S
C1578 C1572 1.383 . S
C1578 C1577 1.379 . S
H1579 C1573 0.959 . S
H1580 C1573 0.961 . S
H1581 C1573 0.960 . S
H1582 C1574 0.930 . S
H1583 C1575 0.929 . S
H1584 C1592 0.929 . S
H1585 C1594 0.930 . S
H1586 C1596 0.930 . S
H1587 C1599 0.929 . S
H1588 C1602 0.930 . S
H1589 C1604 0.960 . S
H1590 C1604 0.960 . S
H1591 C1604 0.960 . S
C1592 H1584 0.929 . S
C1592 C1593 1.377 . S
C1592 C1594 1.384 . S
C1593 C1592 1.377 . S
C1593 C1599 1.390 . S
C1594 H1585 0.930 . S
C1594 C1592 1.384 . S
C1594 C1595 1.372 . S
C1595 C1594 1.372 . S
C1595 C1596 1.400 . S
C1595 C1600 1.490 . S
C1596 H1586 0.930 . S
C1596 C1595 1.400 . S
C1596 C1599 1.386 . S
H1597 C1613 0.930 . S
H1598 C1614 0.931 . S
C1599 H1587 0.929 . S
C1599 C1593 1.390 . S
C1599 C1596 1.386 . S
C1600 C1595 1.490 . S
C1600 C1602 1.395 . S
C1600 C1603 1.403 . S
H1601 C1607 0.930 . S
C1602 H1588 0.930 . S
C1602 C1600 1.395 . S
C1602 C1605 1.403 . S
C1603 C1600 1.403 . S
C1603 C1604 1.524 . S
C1603 C1607 1.400 . S
C1604 H1589 0.960 . S
C1604 H1590 0.960 . S
C1604 H1591 0.960 . S
C1604 C1603 1.524 . S
C1605 C1602 1.403 . S
C1605 C1606 1.392 . S
C1605 C1609 1.495 . S
C1606 C1605 1.392 . S
C1606 C1607 1.385 . S
C1606 C1608 1.478 . S
C1607 H1601 0.930 . S
C1607 C1603 1.400 . S
C1607 C1606 1.385 . S
C1608 C1606 1.478 . S
C1608 C1610 1.381 . S
C1608 C1614 1.383 . S
C1609 C1605 1.495 . S
C1609 H1615 0.959 . S
C1609 H1616 0.961 . S
C1609 H1617 0.960 . S
C1610 C1608 1.381 . S
C1610 C1611 1.394 . S
C1610 H1618 0.930 . S
C1611 C1610 1.394 . S
C1611 C1612 1.383 . S
C1611 H1619 0.929 . S
C1612 C1611 1.383 . S
C1612 C1613 1.377 . S
C1613 H1597 0.930 . S
C1613 C1612 1.377 . S
C1613 C1614 1.379 . S
C1614 H1598 0.931 . S
C1614 C1608 1.383 . S
C1614 C1613 1.379 . S
H1615 C1609 0.959 . S
H1616 C1609 0.961 . S
H1617 C1609 0.960 . S
H1618 C1610 0.930 . S
H1619 C1611 0.929 . S
H1620 C1628 0.929 . S
H1621 C1630 0.930 . S
H1622 C1632 0.930 . S
H1623 C1635 0.929 . S
H1624 C1638 0.930 . S
H1625 C1640 0.960 . S
H1626 C1640 0.960 . S
H1627 C1640 0.960 . S
C1628 H1620 0.929 . S
C1628 C1629 1.377 . S
C1628 C1630 1.384 . S
C1629 C1628 1.377 . S
C1629 C1635 1.390 . S
C1630 H1621 0.930 . S
C1630 C1628 1.384 . S
C1630 C1631 1.372 . S
C1631 C1630 1.372 . S
C1631 C1632 1.400 . S
C1631 C1636 1.490 . S
C1632 H1622 0.930 . S
C1632 C1631 1.400 . S
C1632 C1635 1.386 . S
H1633 C1649 0.930 . S
H1634 C1650 0.931 . S
C1635 H1623 0.929 . S
C1635 C1629 1.390 . S
C1635 C1632 1.386 . S
C1636 C1631 1.490 . S
C1636 C1638 1.395 . S
C1636 C1639 1.403 . S
H1637 C1643 0.930 . S
C1638 H1624 0.930 . S
C1638 C1636 1.395 . S
C1638 C1641 1.403 . S
C1639 C1636 1.403 . S
C1639 C1640 1.524 . S
C1639 C1643 1.400 . S
C1640 H1625 0.960 . S
C1640 H1626 0.960 . S
C1640 H1627 0.960 . S
C1640 C1639 1.524 . S
C1641 C1638 1.403 . S
C1641 C1642 1.392 . S
C1641 C1645 1.495 . S
C1642 C1641 1.392 . S
C1642 C1643 1.385 . S
C1642 C1644 1.478 . S
C1643 H1637 0.930 . S
C1643 C1639 1.400 . S
C1643 C1642 1.385 . S
C1644 C1642 1.478 . S
C1644 C1646 1.381 . S
C1644 C1650 1.383 . S
C1645 C1641 1.495 . S
C1645 H1651 0.959 . S
C1645 H1652 0.961 . S
C1645 H1653 0.960 . S
C1646 C1644 1.381 . S
C1646 C1647 1.394 . S
C1646 H1654 0.930 . S
C1647 C1646 1.394 . S
C1647 C1648 1.383 . S
C1647 H1655 0.929 . S
C1648 C1647 1.383 . S
C1648 C1649 1.377 . S
C1649 H1633 0.930 . S
C1649 C1648 1.377 . S
C1649 C1650 1.379 . S
C1650 H1634 0.931 . S
C1650 C1644 1.383 . S
C1650 C1649 1.379 . S
H1651 C1645 0.959 . S
H1652 C1645 0.961 . S
H1653 C1645 0.960 . S
H1654 C1646 0.930 . S
H1655 C1647 0.929 . S
H1656 C1664 0.929 . S
H1657 C1666 0.930 . S
H1658 C1668 0.930 . S
H1659 C1671 0.929 . S
H1660 C1674 0.930 . S
H1661 C1676 0.960 . S
H1662 C1676 0.960 . S
H1663 C1676 0.960 . S
C1664 H1656 0.929 . S
C1664 C1665 1.377 . S
C1664 C1666 1.384 . S
C1665 C1664 1.377 . S
C1665 C1671 1.390 . S
C1666 H1657 0.930 . S
C1666 C1664 1.384 . S
C1666 C1667 1.372 . S
C1667 C1666 1.372 . S
C1667 C1668 1.400 . S
C1667 C1672 1.490 . S
C1668 H1658 0.930 . S
C1668 C1667 1.400 . S
C1668 C1671 1.386 . S
H1669 C1685 0.930 . S
H1670 C1686 0.931 . S
C1671 H1659 0.929 . S
C1671 C1665 1.390 . S
C1671 C1668 1.386 . S
C1672 C1667 1.490 . S
C1672 C1674 1.395 . S
C1672 C1675 1.403 . S
H1673 C1679 0.930 . S
C1674 H1660 0.930 . S
C1674 C1672 1.395 . S
C1674 C1677 1.403 . S
C1675 C1672 1.403 . S
C1675 C1676 1.524 . S
C1675 C1679 1.400 . S
C1676 H1661 0.960 . S
C1676 H1662 0.960 . S
C1676 H1663 0.960 . S
C1676 C1675 1.524 . S
C1677 C1674 1.403 . S
C1677 C1678 1.392 . S
C1677 C1681 1.495 . S
C1678 C1677 1.392 . S
C1678 C1679 1.385 . S
C1678 C1680 1.478 . S
C1679 H1673 0.930 . S
C1679 C1675 1.400 . S
C1679 C1678 1.385 . S
C1680 C1678 1.478 . S
C1680 C1682 1.381 . S
C1680 C1686 1.383 . S
C1681 C1677 1.495 . S
C1681 H1687 0.959 . S
C1681 H1688 0.961 . S
C1681 H1689 0.960 . S
C1682 C1680 1.381 . S
C1682 C1683 1.394 . S
C1682 H1690 0.930 . S
C1683 C1682 1.394 . S
C1683 C1684 1.383 . S
C1683 H1691 0.929 . S
C1684 C1683 1.383 . S
C1684 C1685 1.377 . S
C1685 H1669 0.930 . S
C1685 C1684 1.377 . S
C1685 C1686 1.379 . S
C1686 H1670 0.931 . S
C1686 C1680 1.383 . S
C1686 C1685 1.379 . S
H1687 C1681 0.959 . S
H1688 C1681 0.961 . S
H1689 C1681 0.960 . S
H1690 C1682 0.930 . S
H1691 C1683 0.929 . S
H1692 C1700 0.929 . S
H1693 C1702 0.930 . S
H1694 C1704 0.930 . S
H1695 C1707 0.929 . S
H1696 C1710 0.930 . S
H1697 C1712 0.960 . S
H1698 C1712 0.960 . S
H1699 C1712 0.960 . S
C1700 H1692 0.929 . S
C1700 C1701 1.377 . S
C1700 C1702 1.384 . S
C1701 C1700 1.377 . S
C1701 C1707 1.390 . S
C1702 H1693 0.930 . S
C1702 C1700 1.384 . S
C1702 C1703 1.372 . S
C1703 C1702 1.372 . S
C1703 C1704 1.400 . S
C1703 C1708 1.490 . S
C1704 H1694 0.930 . S
C1704 C1703 1.400 . S
C1704 C1707 1.386 . S
H1705 C1721 0.930 . S
H1706 C1722 0.931 . S
C1707 H1695 0.929 . S
C1707 C1701 1.390 . S
C1707 C1704 1.386 . S
C1708 C1703 1.490 . S
C1708 C1710 1.395 . S
C1708 C1711 1.403 . S
H1709 C1715 0.930 . S
C1710 H1696 0.930 . S
C1710 C1708 1.395 . S
C1710 C1713 1.403 . S
C1711 C1708 1.403 . S
C1711 C1712 1.524 . S
C1711 C1715 1.400 . S
C1712 H1697 0.960 . S
C1712 H1698 0.960 . S
C1712 H1699 0.960 . S
C1712 C1711 1.524 . S
C1713 C1710 1.403 . S
C1713 C1714 1.392 . S
C1713 C1717 1.495 . S
C1714 C1713 1.392 . S
C1714 C1715 1.385 . S
C1714 C1716 1.478 . S
C1715 H1709 0.930 . S
C1715 C1711 1.400 . S
C1715 C1714 1.385 . S
C1716 C1714 1.478 . S
C1716 C1718 1.381 . S
C1716 C1722 1.383 . S
C1717 C1713 1.495 . S
C1717 H1723 0.959 . S
C1717 H1724 0.961 . S
C1717 H1725 0.960 . S
C1718 C1716 1.381 . S
C1718 C1719 1.394 . S
C1718 H1726 0.930 . S
C1719 C1718 1.394 . S
C1719 C1720 1.383 . S
C1719 H1727 0.929 . S
C1720 C1719 1.383 . S
C1720 C1721 1.377 . S
C1721 H1705 0.930 . S
C1721 C1720 1.377 . S
C1721 C1722 1.379 . S
C1722 H1706 0.931 . S
C1722 C1716 1.383 . S
C1722 C1721 1.379 . S
H1723 C1717 0.959 . S
H1724 C1717 0.961 . S
H1725 C1717 0.960 . S
H1726 C1718 0.930 . S
H1727 C1719 0.929 . S
H1728 C1736 0.929 . S
H1729 C1738 0.930 . S
H1730 C1740 0.930 . S
H1731 C1743 0.929 . S
H1732 C1746 0.930 . S
H1733 C1748 0.960 . S
H1734 C1748 0.960 . S
H1735 C1748 0.960 . S
C1736 H1728 0.929 . S
C1736 C1737 1.377 . S
C1736 C1738 1.384 . S
C1737 C1736 1.377 . S
C1737 C1743 1.390 . S
C1738 H1729 0.930 . S
C1738 C1736 1.384 . S
C1738 C1739 1.372 . S
C1739 C1738 1.372 . S
C1739 C1740 1.400 . S
C1739 C1744 1.490 . S
C1740 H1730 0.930 . S
C1740 C1739 1.400 . S
C1740 C1743 1.386 . S
H1741 C1757 0.930 . S
H1742 C1758 0.931 . S
C1743 H1731 0.929 . S
C1743 C1737 1.390 . S
C1743 C1740 1.386 . S
C1744 C1739 1.490 . S
C1744 C1746 1.395 . S
C1744 C1747 1.403 . S
H1745 C1751 0.930 . S
C1746 H1732 0.930 . S
C1746 C1744 1.395 . S
C1746 C1749 1.403 . S
C1747 C1744 1.403 . S
C1747 C1748 1.524 . S
C1747 C1751 1.400 . S
C1748 H1733 0.960 . S
C1748 H1734 0.960 . S
C1748 H1735 0.960 . S
C1748 C1747 1.524 . S
C1749 C1746 1.403 . S
C1749 C1750 1.392 . S
C1749 C1753 1.495 . S
C1750 C1749 1.392 . S
C1750 C1751 1.385 . S
C1750 C1752 1.478 . S
C1751 H1745 0.930 . S
C1751 C1747 1.400 . S
C1751 C1750 1.385 . S
C1752 C1750 1.478 . S
C1752 C1754 1.381 . S
C1752 C1758 1.383 . S
C1753 C1749 1.495 . S
C1753 H1759 0.959 . S
C1753 H1760 0.961 . S
C1753 H1761 0.960 . S
C1754 C1752 1.381 . S
C1754 C1755 1.394 . S
C1754 H1762 0.930 . S
C1755 C1754 1.394 . S
C1755 C1756 1.383 . S
C1755 H1763 0.929 . S
C1756 C1755 1.383 . S
C1756 C1757 1.377 . S
C1757 H1741 0.930 . S
C1757 C1756 1.377 . S
C1757 C1758 1.379 . S
C1758 H1742 0.931 . S
C1758 C1752 1.383 . S
C1758 C1757 1.379 . S
H1759 C1753 0.959 . S
H1760 C1753 0.961 . S
H1761 C1753 0.960 . S
H1762 C1754 0.930 . S
H1763 C1755 0.929 . S
H1764 C1772 0.929 . S
H1765 C1774 0.930 . S
H1766 C1776 0.930 . S
H1767 C1779 0.929 . S
H1768 C1782 0.930 . S
H1769 C1784 0.960 . S
H1770 C1784 0.960 . S
H1771 C1784 0.960 . S
C1772 H1764 0.929 . S
C1772 C1773 1.377 . S
C1772 C1774 1.384 . S
C1773 C1772 1.377 . S
C1773 C1779 1.390 . S
C1774 H1765 0.930 . S
C1774 C1772 1.384 . S
C1774 C1775 1.372 . S
C1775 C1774 1.372 . S
C1775 C1776 1.400 . S
C1775 C1780 1.490 . S
C1776 H1766 0.930 . S
C1776 C1775 1.400 . S
C1776 C1779 1.386 . S
H1777 C1793 0.930 . S
H1778 C1794 0.931 . S
C1779 H1767 0.929 . S
C1779 C1773 1.390 . S
C1779 C1776 1.386 . S
C1780 C1775 1.490 . S
C1780 C1782 1.395 . S
C1780 C1783 1.403 . S
H1781 C1787 0.930 . S
C1782 H1768 0.930 . S
C1782 C1780 1.395 . S
C1782 C1785 1.403 . S
C1783 C1780 1.403 . S
C1783 C1784 1.524 . S
C1783 C1787 1.400 . S
C1784 H1769 0.960 . S
C1784 H1770 0.960 . S
C1784 H1771 0.960 . S
C1784 C1783 1.524 . S
C1785 C1782 1.403 . S
C1785 C1786 1.392 . S
C1785 C1789 1.495 . S
C1786 C1785 1.392 . S
C1786 C1787 1.385 . S
C1786 C1788 1.478 . S
C1787 H1781 0.930 . S
C1787 C1783 1.400 . S
C1787 C1786 1.385 . S
C1788 C1786 1.478 . S
C1788 C1790 1.381 . S
C1788 C1794 1.383 . S
C1789 C1785 1.495 . S
C1789 H1795 0.959 . S
C1789 H1796 0.961 . S
C1789 H1797 0.960 . S
C1790 C1788 1.381 . S
C1790 C1791 1.394 . S
C1790 H1798 0.930 . S
C1791 C1790 1.394 . S
C1791 C1792 1.383 . S
C1791 H1799 0.929 . S
C1792 C1791 1.383 . S
C1792 C1793 1.377 . S
C1793 H1777 0.930 . S
C1793 C1792 1.377 . S
C1793 C1794 1.379 . S
C1794 H1778 0.931 . S
C1794 C1788 1.383 . S
C1794 C1793 1.379 . S
H1795 C1789 0.959 . S
H1796 C1789 0.961 . S
H1797 C1789 0.960 . S
H1798 C1790 0.930 . S
H1799 C1791 0.929 . S
H1800 C1808 0.929 . S
H1801 C1810 0.930 . S
H1802 C1812 0.930 . S
H1803 C1815 0.929 . S
H1804 C1818 0.930 . S
H1805 C1820 0.960 . S
H1806 C1820 0.960 . S
H1807 C1820 0.960 . S
C1808 H1800 0.929 . S
C1808 C1809 1.377 . S
C1808 C1810 1.384 . S
C1809 C1808 1.377 . S
C1809 C1815 1.390 . S
C1810 H1801 0.930 . S
C1810 C1808 1.384 . S
C1810 C1811 1.372 . S
C1811 C1810 1.372 . S
C1811 C1812 1.400 . S
C1811 C1816 1.490 . S
C1812 H1802 0.930 . S
C1812 C1811 1.400 . S
C1812 C1815 1.386 . S
H1813 C1829 0.930 . S
H1814 C1830 0.931 . S
C1815 H1803 0.929 . S
C1815 C1809 1.390 . S
C1815 C1812 1.386 . S
C1816 C1811 1.490 . S
C1816 C1818 1.395 . S
C1816 C1819 1.403 . S
H1817 C1823 0.930 . S
C1818 H1804 0.930 . S
C1818 C1816 1.395 . S
C1818 C1821 1.403 . S
C1819 C1816 1.403 . S
C1819 C1820 1.524 . S
C1819 C1823 1.400 . S
C1820 H1805 0.960 . S
C1820 H1806 0.960 . S
C1820 H1807 0.960 . S
C1820 C1819 1.524 . S
C1821 C1818 1.403 . S
C1821 C1822 1.392 . S
C1821 C1825 1.495 . S
C1822 C1821 1.392 . S
C1822 C1823 1.385 . S
C1822 C1824 1.478 . S
C1823 H1817 0.930 . S
C1823 C1819 1.400 . S
C1823 C1822 1.385 . S
C1824 C1822 1.478 . S
C1824 C1826 1.381 . S
C1824 C1830 1.383 . S
C1825 C1821 1.495 . S
C1825 H1831 0.959 1_655 S
C1825 H1832 0.961 . S
C1825 H1833 0.960 . S
C1826 C1824 1.381 . S
C1826 C1827 1.394 . S
C1826 H1834 0.930 . S
C1827 C1826 1.394 . S
C1827 C1828 1.383 . S
C1827 H1835 0.929 . S
C1828 C1827 1.383 . S
C1828 C1829 1.377 . S
C1829 H1813 0.930 . S
C1829 C1828 1.377 . S
C1829 C1830 1.379 . S
C1830 H1814 0.931 . S
C1830 C1824 1.383 . S
C1830 C1829 1.379 . S
H1831 C1825 0.959 1_455 S
H1832 C1825 0.961 . S
H1833 C1825 0.960 . S
H1834 C1826 0.930 . S
H1835 C1827 0.929 . S
H1836 C1844 0.929 . S
H1837 C1846 0.930 . S
H1838 C1848 0.930 . S
H1839 C1851 0.929 . S
H1840 C1854 0.930 . S
H1841 C1856 0.960 . S
H1842 C1856 0.960 . S
H1843 C1856 0.960 . S
C1844 H1836 0.929 . S
C1844 C1845 1.377 . S
C1844 C1846 1.384 . S
C1845 C1844 1.377 . S
C1845 C1851 1.390 . S
C1846 H1837 0.930 . S
C1846 C1844 1.384 . S
C1846 C1847 1.372 . S
C1847 C1846 1.372 . S
C1847 C1848 1.400 . S
C1847 C1852 1.490 . S
C1848 H1838 0.930 . S
C1848 C1847 1.400 . S
C1848 C1851 1.386 . S
H1849 C1865 0.930 . S
H1850 C1866 0.931 . S
C1851 H1839 0.929 . S
C1851 C1845 1.390 . S
C1851 C1848 1.386 . S
C1852 C1847 1.490 . S
C1852 C1854 1.395 . S
C1852 C1855 1.403 . S
H1853 C1859 0.930 . S
C1854 H1840 0.930 . S
C1854 C1852 1.395 . S
C1854 C1857 1.403 . S
C1855 C1852 1.403 . S
C1855 C1856 1.524 . S
C1855 C1859 1.400 . S
C1856 H1841 0.960 . S
C1856 H1842 0.960 . S
C1856 H1843 0.960 . S
C1856 C1855 1.524 . S
C1857 C1854 1.403 . S
C1857 C1858 1.392 . S
C1857 C1861 1.495 . S
C1858 C1857 1.392 . S
C1858 C1859 1.385 . S
C1858 C1860 1.478 . S
C1859 H1853 0.930 . S
C1859 C1855 1.400 . S
C1859 C1858 1.385 . S
C1860 C1858 1.478 . S
C1860 C1862 1.381 . S
C1860 C1866 1.383 . S
C1861 C1857 1.495 . S
C1861 H1867 0.959 . S
C1861 H1868 0.961 . S
C1861 H1869 0.960 . S
C1862 C1860 1.381 . S
C1862 C1863 1.394 . S
C1862 H1870 0.930 . S
C1863 C1862 1.394 . S
C1863 C1864 1.383 . S
C1863 H1871 0.929 . S
C1864 C1863 1.383 . S
C1864 C1865 1.377 . S
C1865 H1849 0.930 . S
C1865 C1864 1.377 . S
C1865 C1866 1.379 . S
C1866 H1850 0.931 . S
C1866 C1860 1.383 . S
C1866 C1865 1.379 . S
H1867 C1861 0.959 . S
H1868 C1861 0.961 . S
H1869 C1861 0.960 . S
H1870 C1862 0.930 . S
H1871 C1863 0.929 . S
H1872 C1880 0.929 . S
H1873 C1882 0.930 . S
H1874 C1884 0.930 . S
H1875 C1887 0.929 . S
H1876 C1890 0.930 . S
H1877 C1892 0.960 . S
H1878 C1892 0.960 . S
H1879 C1892 0.960 . S
C1880 H1872 0.929 . S
C1880 C1881 1.377 . S
C1880 C1882 1.384 . S
C1881 C1880 1.377 . S
C1881 C1887 1.390 . S
C1882 H1873 0.930 . S
C1882 C1880 1.384 . S
C1882 C1883 1.372 . S
C1883 C1882 1.372 . S
C1883 C1884 1.400 . S
C1883 C1888 1.490 . S
C1884 H1874 0.930 . S
C1884 C1883 1.400 . S
C1884 C1887 1.386 . S
H1885 C1901 0.930 . S
H1886 C1902 0.931 . S
C1887 H1875 0.929 . S
C1887 C1881 1.390 . S
C1887 C1884 1.386 . S
C1888 C1883 1.490 . S
C1888 C1890 1.395 . S
C1888 C1891 1.403 . S
H1889 C1895 0.930 . S
C1890 H1876 0.930 . S
C1890 C1888 1.395 . S
C1890 C1893 1.403 . S
C1891 C1888 1.403 . S
C1891 C1892 1.524 . S
C1891 C1895 1.400 . S
C1892 H1877 0.960 . S
C1892 H1878 0.960 . S
C1892 H1879 0.960 . S
C1892 C1891 1.524 . S
C1893 C1890 1.403 . S
C1893 C1894 1.392 . S
C1893 C1897 1.495 . S
C1894 C1893 1.392 . S
C1894 C1895 1.385 . S
C1894 C1896 1.478 . S
C1895 H1889 0.930 . S
C1895 C1891 1.400 . S
C1895 C1894 1.385 . S
C1896 C1894 1.478 . S
C1896 C1898 1.381 . S
C1896 C1902 1.383 . S
C1897 C1893 1.495 . S
C1897 H1903 0.959 . S
C1897 H1904 0.961 . S
C1897 H1905 0.960 . S
C1898 C1896 1.381 . S
C1898 C1899 1.394 . S
C1898 H1906 0.930 . S
C1899 C1898 1.394 . S
C1899 C1900 1.383 . S
C1899 H1907 0.929 . S
C1900 C1899 1.383 . S
C1900 C1901 1.377 . S
C1901 H1885 0.930 . S
C1901 C1900 1.377 . S
C1901 C1902 1.379 . S
C1902 H1886 0.931 . S
C1902 C1896 1.383 . S
C1902 C1901 1.379 . S
H1903 C1897 0.959 . S
H1904 C1897 0.961 . S
H1905 C1897 0.960 . S
H1906 C1898 0.930 . S
H1907 C1899 0.929 . S
H1908 C1916 0.929 . S
H1909 C1918 0.930 . S
H1910 C1920 0.930 . S
H1911 C1923 0.929 . S
H1912 C1926 0.930 . S
H1913 C1928 0.960 . S
H1914 C1928 0.960 . S
H1915 C1928 0.960 . S
C1916 H1908 0.929 . S
C1916 C1917 1.377 . S
C1916 C1918 1.384 . S
C1917 C1916 1.377 . S
C1917 C1923 1.390 . S
C1918 H1909 0.930 . S
C1918 C1916 1.384 . S
C1918 C1919 1.372 . S
C1919 C1918 1.372 . S
C1919 C1920 1.400 . S
C1919 C1924 1.490 . S
C1920 H1910 0.930 . S
C1920 C1919 1.400 . S
C1920 C1923 1.386 . S
H1921 C1937 0.930 . S
H1922 C1938 0.931 . S
C1923 H1911 0.929 . S
C1923 C1917 1.390 . S
C1923 C1920 1.386 . S
C1924 C1919 1.490 . S
C1924 C1926 1.395 1_655 S
C1924 C1927 1.403 . S
H1925 C1931 0.930 . S
C1926 H1912 0.930 . S
C1926 C1924 1.395 1_455 S
C1926 C1929 1.403 . S
C1927 C1924 1.403 . S
C1927 C1928 1.524 . S
C1927 C1931 1.400 1_655 S
C1928 H1913 0.960 . S
C1928 H1914 0.960 . S
C1928 H1915 0.960 . S
C1928 C1927 1.524 . S
C1929 C1926 1.403 . S
C1929 C1930 1.392 . S
C1929 C1933 1.495 . S
C1930 C1929 1.392 . S
C1930 C1931 1.385 . S
C1930 C1932 1.478 . S
C1931 H1925 0.930 . S
C1931 C1927 1.400 1_455 S
C1931 C1930 1.385 . S
C1932 C1930 1.478 . S
C1932 C1934 1.381 . S
C1932 C1938 1.383 . S
C1933 C1929 1.495 . S
C1933 H1939 0.959 . S
C1933 H1940 0.961 . S
C1933 H1941 0.960 . S
C1934 C1932 1.381 . S
C1934 C1935 1.394 . S
C1934 H1942 0.930 . S
C1935 C1934 1.394 . S
C1935 C1936 1.383 . S
C1935 H1943 0.929 . S
C1936 C1935 1.383 . S
C1936 C1937 1.377 . S
C1937 H1921 0.930 . S
C1937 C1936 1.377 . S
C1937 C1938 1.379 . S
C1938 H1922 0.931 . S
C1938 C1932 1.383 . S
C1938 C1937 1.379 . S
H1939 C1933 0.959 . S
H1940 C1933 0.961 . S
H1941 C1933 0.960 . S
H1942 C1934 0.930 . S
H1943 C1935 0.929 . S
H1944 C1952 0.929 . S
H1945 C1954 0.930 . S
H1946 C1956 0.930 . S
H1947 C1959 0.929 . S
H1948 C1962 0.930 . S
H1949 C1964 0.960 . S
H1950 C1964 0.960 . S
H1951 C1964 0.960 . S
C1952 H1944 0.929 . S
C1952 C1953 1.377 . S
C1952 C1954 1.384 . S
C1953 C1952 1.377 . S
C1953 C1959 1.390 . S
C1954 H1945 0.930 . S
C1954 C1952 1.384 . S
C1954 C1955 1.372 . S
C1955 C1954 1.372 . S
C1955 C1956 1.400 . S
C1955 C1960 1.490 . S
C1956 H1946 0.930 . S
C1956 C1955 1.400 . S
C1956 C1959 1.386 . S
H1957 C1973 0.930 . S
H1958 C1974 0.931 . S
C1959 H1947 0.929 . S
C1959 C1953 1.390 . S
C1959 C1956 1.386 . S
C1960 C1955 1.490 . S
C1960 C1962 1.395 . S
C1960 C1963 1.403 . S
H1961 C1967 0.930 . S
C1962 H1948 0.930 . S
C1962 C1960 1.395 . S
C1962 C1965 1.403 . S
C1963 C1960 1.403 . S
C1963 C1964 1.524 . S
C1963 C1967 1.400 . S
C1964 H1949 0.960 . S
C1964 H1950 0.960 . S
C1964 H1951 0.960 . S
C1964 C1963 1.524 . S
C1965 C1962 1.403 . S
C1965 C1966 1.392 . S
C1965 C1969 1.495 . S
C1966 C1965 1.392 . S
C1966 C1967 1.385 . S
C1966 C1968 1.478 . S
C1967 H1961 0.930 . S
C1967 C1963 1.400 . S
C1967 C1966 1.385 . S
C1968 C1966 1.478 . S
C1968 C1970 1.381 . S
C1968 C1974 1.383 . S
C1969 C1965 1.495 . S
C1969 H1975 0.959 . S
C1969 H1976 0.961 . S
C1969 H1977 0.960 . S
C1970 C1968 1.381 . S
C1970 C1971 1.394 . S
C1970 H1978 0.930 . S
C1971 C1970 1.394 . S
C1971 C1972 1.383 . S
C1971 H1979 0.929 . S
C1972 C1971 1.383 . S
C1972 C1973 1.377 . S
C1973 H1957 0.930 . S
C1973 C1972 1.377 . S
C1973 C1974 1.379 . S
C1974 H1958 0.931 . S
C1974 C1968 1.383 . S
C1974 C1973 1.379 . S
H1975 C1969 0.959 . S
H1976 C1969 0.961 . S
H1977 C1969 0.960 . S
H1978 C1970 0.930 . S
H1979 C1971 0.929 . S
H1980 C1988 0.929 . S
H1981 C1990 0.930 . S
H1982 C1992 0.930 . S
H1983 C1995 0.929 . S
H1984 C1998 0.930 . S
H1985 C2000 0.960 . S
H1986 C2000 0.960 . S
H1987 C2000 0.960 . S
C1988 H1980 0.929 . S
C1988 C1989 1.377 . S
C1988 C1990 1.384 . S
C1989 C1988 1.377 . S
C1989 C1995 1.390 . S
C1990 H1981 0.930 . S
C1990 C1988 1.384 . S
C1990 C1991 1.372 . S
C1991 C1990 1.372 . S
C1991 C1992 1.400 . S
C1991 C1996 1.490 . S
C1992 H1982 0.930 . S
C1992 C1991 1.400 . S
C1992 C1995 1.386 . S
H1993 C2009 0.930 . S
H1994 C2010 0.931 . S
C1995 H1983 0.929 . S
C1995 C1989 1.390 . S
C1995 C1992 1.386 . S
C1996 C1991 1.490 . S
C1996 C1998 1.395 1_565 S
C1996 C1999 1.412 1_565 S
H1997 C2003 0.930 . S
C1998 H1984 0.930 . S
C1998 C1996 1.395 1_545 S
C1998 C2001 1.403 . S
C1999 C1996 1.412 1_545 S
C1999 C2000 1.492 1_545 S
C1999 C2003 1.425 . S
C2000 H1985 0.960 . S
C2000 H1986 0.960 . S
C2000 H1987 0.960 . S
C2000 C1999 1.492 1_565 S
C2001 C1998 1.403 . S
C2001 C2002 1.392 . S
C2001 C2005 1.495 . S
C2002 C2001 1.392 . S
C2002 C2003 1.385 . S
C2002 C2004 1.478 . S
C2003 H1997 0.930 . S
C2003 C1999 1.425 . S
C2003 C2002 1.385 . S
C2004 C2002 1.478 . S
C2004 C2006 1.381 . S
C2004 C2010 1.383 . S
C2005 C2001 1.495 . S
C2005 H2011 0.959 . S
C2005 H2012 0.961 . S
C2005 H2013 0.960 . S
C2006 C2004 1.381 . S
C2006 C2007 1.394 . S
C2006 H2014 0.930 . S
C2007 C2006 1.394 . S
C2007 C2008 1.383 . S
C2007 H2015 0.929 . S
C2008 C2007 1.383 . S
C2008 C2009 1.377 . S
C2009 H1993 0.930 . S
C2009 C2008 1.377 . S
C2009 C2010 1.379 . S
C2010 H1994 0.931 . S
C2010 C2004 1.383 . S
C2010 C2009 1.379 . S
H2011 C2005 0.959 . S
H2012 C2005 0.961 . S
H2013 C2005 0.960 . S
H2014 C2006 0.930 . S
H2015 C2007 0.929 . S
H2016 C2024 0.929 . S
H2017 C2026 0.930 . S
H2018 C2028 0.930 . S
H2019 C2031 0.929 . S
H2020 C2034 0.930 . S
H2021 C2036 0.960 . S
H2022 C2036 0.960 . S
H2023 C2036 0.960 . S
C2024 H2016 0.929 . S
C2024 C2025 1.377 . S
C2024 C2026 1.384 . S
C2025 C2024 1.377 . S
C2025 C2031 1.390 . S
C2026 H2017 0.930 . S
C2026 C2024 1.384 . S
C2026 C2027 1.372 . S
C2027 C2026 1.372 . S
C2027 C2028 1.400 . S
C2027 C2032 1.490 . S
C2028 H2018 0.930 . S
C2028 C2027 1.400 . S
C2028 C2031 1.386 . S
H2029 C2045 0.930 . S
H2030 C2046 0.931 . S
C2031 H2019 0.929 . S
C2031 C2025 1.390 . S
C2031 C2028 1.386 . S
C2032 C2027 1.490 . S
C2032 C2034 1.395 . S
C2032 C2035 1.403 . S
H2033 C2039 0.930 . S
C2034 H2020 0.930 . S
C2034 C2032 1.395 . S
C2034 C2037 1.403 . S
C2035 C2032 1.403 . S
C2035 C2036 1.524 . S
C2035 C2039 1.400 . S
C2036 H2021 0.960 . S
C2036 H2022 0.960 . S
C2036 H2023 0.960 . S
C2036 C2035 1.524 . S
C2037 C2034 1.403 . S
C2037 C2038 1.392 . S
C2037 C2041 1.495 . S
C2038 C2037 1.392 . S
C2038 C2039 1.385 . S
C2038 C2040 1.478 . S
C2039 H2033 0.930 . S
C2039 C2035 1.400 . S
C2039 C2038 1.385 . S
C2040 C2038 1.478 . S
C2040 C2042 1.381 . S
C2040 C2046 1.383 . S
C2041 C2037 1.495 . S
C2041 H2047 0.959 . S
C2041 H2048 0.961 . S
C2041 H2049 0.960 . S
C2042 C2040 1.381 . S
C2042 C2043 1.394 . S
C2042 H2050 0.930 . S
C2043 C2042 1.394 . S
C2043 C2044 1.383 . S
C2043 H2051 0.929 . S
C2044 C2043 1.383 . S
C2044 C2045 1.377 . S
C2045 H2029 0.930 . S
C2045 C2044 1.377 . S
C2045 C2046 1.379 . S
C2046 H2030 0.931 . S
C2046 C2040 1.383 . S
C2046 C2045 1.379 . S
H2047 C2041 0.959 . S
H2048 C2041 0.961 . S
H2049 C2041 0.960 . S
H2050 C2042 0.930 . S
H2051 C2043 0.929 . S
H2052 C2060 0.929 . S
H2053 C2062 0.930 . S
H2054 C2064 0.930 . S
H2055 C2067 0.929 . S
H2056 C2070 0.930 . S
H2057 C2072 0.960 . S
H2058 C2072 0.960 . S
H2059 C2072 0.960 . S
C2060 H2052 0.929 . S
C2060 C2061 1.377 . S
C2060 C2062 1.384 . S
C2061 C2060 1.377 . S
C2061 C2067 1.390 . S
C2062 H2053 0.930 . S
C2062 C2060 1.384 . S
C2062 C2063 1.372 . S
C2063 C2062 1.372 . S
C2063 C2064 1.400 . S
C2063 C2068 1.490 . S
C2064 H2054 0.930 . S
C2064 C2063 1.400 . S
C2064 C2067 1.386 . S
H2065 C2081 0.930 . S
H2066 C2082 0.931 . S
C2067 H2055 0.929 . S
C2067 C2061 1.390 . S
C2067 C2064 1.386 . S
C2068 C2063 1.490 . S
C2068 C2070 1.395 . S
C2068 C2071 1.403 . S
H2069 C2075 0.930 . S
C2070 H2056 0.930 . S
C2070 C2068 1.395 . S
C2070 C2073 1.403 . S
C2071 C2068 1.403 . S
C2071 C2072 1.524 . S
C2071 C2075 1.400 . S
C2072 H2057 0.960 . S
C2072 H2058 0.960 . S
C2072 H2059 0.960 . S
C2072 C2071 1.524 . S
C2073 C2070 1.403 . S
C2073 C2074 1.392 . S
C2073 C2077 1.495 . S
C2074 C2073 1.392 . S
C2074 C2075 1.385 . S
C2074 C2076 1.478 . S
C2075 H2069 0.930 . S
C2075 C2071 1.400 . S
C2075 C2074 1.385 . S
C2076 C2074 1.478 . S
C2076 C2078 1.381 . S
C2076 C2082 1.383 . S
C2077 C2073 1.495 . S
C2077 H2083 0.959 . S
C2077 H2084 0.961 . S
C2077 H2085 0.960 . S
C2078 C2076 1.381 . S
C2078 C2079 1.394 . S
C2078 H2086 0.930 . S
C2079 C2078 1.394 . S
C2079 C2080 1.383 . S
C2079 H2087 0.929 . S
C2080 C2079 1.383 . S
C2080 C2081 1.377 . S
C2081 H2065 0.930 . S
C2081 C2080 1.377 . S
C2081 C2082 1.379 . S
C2082 H2066 0.931 . S
C2082 C2076 1.383 . S
C2082 C2081 1.379 . S
H2083 C2077 0.959 . S
H2084 C2077 0.961 . S
H2085 C2077 0.960 . S
H2086 C2078 0.930 . S
H2087 C2079 0.929 . S
H2088 C2096 0.929 . S
H2089 C2098 0.930 . S
H2090 C2100 0.930 . S
H2091 C2103 0.929 . S
H2092 C2106 0.930 . S
H2093 C2108 0.960 . S
H2094 C2108 0.960 . S
H2095 C2108 0.960 . S
C2096 H2088 0.929 . S
C2096 C2097 1.377 . S
C2096 C2098 1.384 . S
C2097 C2096 1.377 . S
C2097 C2103 1.390 . S
C2098 H2089 0.930 . S
C2098 C2096 1.384 . S
C2098 C2099 1.372 . S
C2099 C2098 1.372 . S
C2099 C2100 1.400 . S
C2099 C2104 1.490 . S
C2100 H2090 0.930 . S
C2100 C2099 1.400 . S
C2100 C2103 1.386 . S
H2101 C2117 0.930 . S
H2102 C2118 0.931 . S
C2103 H2091 0.929 . S
C2103 C2097 1.390 . S
C2103 C2100 1.386 . S
C2104 C2099 1.490 . S
C2104 C2106 1.395 . S
C2104 C2107 1.403 . S
H2105 C2111 0.930 . S
C2106 H2092 0.930 . S
C2106 C2104 1.395 . S
C2106 C2109 1.403 . S
C2107 C2104 1.403 . S
C2107 C2108 1.524 . S
C2107 C2111 1.400 . S
C2108 H2093 0.960 . S
C2108 H2094 0.960 . S
C2108 H2095 0.960 . S
C2108 C2107 1.524 . S
C2109 C2106 1.403 . S
C2109 C2110 1.392 . S
C2109 C2113 1.495 . S
C2110 C2109 1.392 . S
C2110 C2111 1.385 . S
C2110 C2112 1.478 . S
C2111 H2105 0.930 . S
C2111 C2107 1.400 . S
C2111 C2110 1.385 . S
C2112 C2110 1.478 . S
C2112 C2114 1.381 . S
C2112 C2118 1.383 . S
C2113 C2109 1.495 . S
C2113 H2119 0.959 . S
C2113 H2120 0.961 . S
C2113 H2121 0.960 . S
C2114 C2112 1.381 . S
C2114 C2115 1.394 . S
C2114 H2122 0.930 . S
C2115 C2114 1.394 . S
C2115 C2116 1.383 . S
C2115 H2123 0.929 . S
C2116 C2115 1.383 . S
C2116 C2117 1.377 . S
C2117 H2101 0.930 . S
C2117 C2116 1.377 . S
C2117 C2118 1.379 . S
C2118 H2102 0.931 . S
C2118 C2112 1.383 . S
C2118 C2117 1.379 . S
H2119 C2113 0.959 . S
H2120 C2113 0.961 . S
H2121 C2113 0.960 . S
H2122 C2114 0.930 . S
H2123 C2115 0.929 . S
H2124 C2132 0.929 . S
H2125 C2134 0.930 . S
H2126 C2136 0.930 . S
H2127 C2139 0.929 . S
H2128 C2142 0.930 . S
H2129 C2144 0.960 . S
H2130 C2144 0.960 . S
H2131 C2144 0.960 . S
C2132 H2124 0.929 . S
C2132 C2133 1.377 . S
C2132 C2134 1.384 . S
C2133 C2132 1.377 . S
C2133 C2139 1.390 . S
C2134 H2125 0.930 . S
C2134 C2132 1.384 . S
C2134 C2135 1.372 . S
C2135 C2134 1.372 . S
C2135 C2136 1.400 . S
C2135 C2140 1.490 . S
C2136 H2126 0.930 . S
C2136 C2135 1.400 . S
C2136 C2139 1.386 . S
H2137 C2153 0.930 . S
H2138 C2154 0.931 . S
C2139 H2127 0.929 . S
C2139 C2133 1.390 . S
C2139 C2136 1.386 . S
C2140 C2135 1.490 . S
C2140 C2142 1.395 . S
C2140 C2143 1.403 . S
H2141 C2147 0.930 . S
C2142 H2128 0.930 . S
C2142 C2140 1.395 . S
C2142 C2145 1.403 . S
C2143 C2140 1.403 . S
C2143 C2144 1.524 . S
C2143 C2147 1.400 . S
C2144 H2129 0.960 . S
C2144 H2130 0.960 . S
C2144 H2131 0.960 . S
C2144 C2143 1.524 . S
C2145 C2142 1.403 . S
C2145 C2146 1.392 . S
C2145 C2149 1.495 . S
C2146 C2145 1.392 . S
C2146 C2147 1.385 . S
C2146 C2148 1.478 . S
C2147 H2141 0.930 . S
C2147 C2143 1.400 . S
C2147 C2146 1.385 . S
C2148 C2146 1.478 . S
C2148 C2150 1.381 . S
C2148 C2154 1.383 . S
C2149 C2145 1.495 . S
C2149 H2155 0.959 . S
C2149 H2156 0.961 . S
C2149 H2157 0.960 . S
C2150 C2148 1.381 . S
C2150 C2151 1.394 . S
C2150 H2158 0.930 . S
C2151 C2150 1.394 . S
C2151 C2152 1.383 . S
C2151 H2159 0.929 . S
C2152 C2151 1.383 . S
C2152 C2153 1.377 . S
C2153 H2137 0.930 . S
C2153 C2152 1.377 . S
C2153 C2154 1.379 . S
C2154 H2138 0.931 . S
C2154 C2148 1.383 . S
C2154 C2153 1.379 . S
H2155 C2149 0.959 . S
H2156 C2149 0.961 . S
H2157 C2149 0.960 . S
H2158 C2150 0.930 . S
H2159 C2151 0.929 . S
H2160 C2168 0.929 . S
H2161 C2170 0.930 . S
H2162 C2172 0.930 . S
H2163 C2175 0.929 . S
H2164 C2178 0.930 . S
H2165 C2180 0.960 . S
H2166 C2180 0.960 . S
H2167 C2180 0.960 . S
C2168 H2160 0.929 . S
C2168 C2169 1.377 . S
C2168 C2170 1.384 . S
C2169 C2168 1.377 . S
C2169 C2175 1.390 . S
C2170 H2161 0.930 . S
C2170 C2168 1.384 . S
C2170 C2171 1.372 . S
C2171 C2170 1.372 . S
C2171 C2172 1.400 . S
C2171 C2176 1.490 . S
C2172 H2162 0.930 . S
C2172 C2171 1.400 . S
C2172 C2175 1.386 . S
H2173 C2189 0.930 . S
H2174 C2190 0.931 . S
C2175 H2163 0.929 . S
C2175 C2169 1.390 . S
C2175 C2172 1.386 . S
C2176 C2171 1.490 . S
C2176 C2178 1.395 . S
C2176 C2179 1.403 . S
H2177 C2183 0.930 . S
C2178 H2164 0.930 . S
C2178 C2176 1.395 . S
C2178 C2181 1.403 . S
C2179 C2176 1.403 . S
C2179 C2180 1.524 . S
C2179 C2183 1.400 . S
C2180 H2165 0.960 . S
C2180 H2166 0.960 . S
C2180 H2167 0.960 . S
C2180 C2179 1.524 . S
C2181 C2178 1.403 . S
C2181 C2182 1.392 . S
C2181 C2185 1.495 . S
C2182 C2181 1.392 . S
C2182 C2183 1.385 . S
C2182 C2184 1.478 . S
C2183 H2177 0.930 . S
C2183 C2179 1.400 . S
C2183 C2182 1.385 . S
C2184 C2182 1.478 . S
C2184 C2186 1.381 . S
C2184 C2190 1.383 . S
C2185 C2181 1.495 . S
C2185 H2191 0.959 . S
C2185 H2192 0.961 . S
C2185 H2193 0.960 . S
C2186 C2184 1.381 . S
C2186 C2187 1.394 . S
C2186 H2194 0.930 . S
C2187 C2186 1.394 . S
C2187 C2188 1.383 . S
C2187 H2195 0.929 . S
C2188 C2187 1.383 . S
C2188 C2189 1.377 . S
C2189 H2173 0.930 . S
C2189 C2188 1.377 . S
C2189 C2190 1.379 . S
C2190 H2174 0.931 . S
C2190 C2184 1.383 . S
C2190 C2189 1.379 . S
H2191 C2185 0.959 . S
H2192 C2185 0.961 . S
H2193 C2185 0.960 . S
H2194 C2186 0.930 . S
H2195 C2187 0.929 . S
H2196 C2204 0.929 . S
H2197 C2206 0.930 . S
H2198 C2208 0.930 . S
H2199 C2211 0.929 . S
H2200 C2214 0.930 . S
H2201 C2216 0.960 . S
H2202 C2216 0.960 . S
H2203 C2216 0.960 . S
C2204 H2196 0.929 . S
C2204 C2205 1.377 . S
C2204 C2206 1.384 . S
C2205 C2204 1.377 . S
C2205 C2211 1.390 . S
C2206 H2197 0.930 . S
C2206 C2204 1.384 . S
C2206 C2207 1.372 . S
C2207 C2206 1.372 . S
C2207 C2208 1.400 . S
C2207 C2212 1.490 . S
C2208 H2198 0.930 . S
C2208 C2207 1.400 . S
C2208 C2211 1.386 . S
H2209 C2225 0.930 . S
H2210 C2226 0.931 . S
C2211 H2199 0.929 . S
C2211 C2205 1.390 . S
C2211 C2208 1.386 . S
C2212 C2207 1.490 . S
C2212 C2214 1.395 . S
C2212 C2215 1.403 . S
H2213 C2219 0.930 . S
C2214 H2200 0.930 . S
C2214 C2212 1.395 . S
C2214 C2217 1.403 . S
C2215 C2212 1.403 . S
C2215 C2216 1.524 . S
C2215 C2219 1.400 . S
C2216 H2201 0.960 . S
C2216 H2202 0.960 . S
C2216 H2203 0.960 . S
C2216 C2215 1.524 . S
C2217 C2214 1.403 . S
C2217 C2218 1.392 . S
C2217 C2221 1.495 . S
C2218 C2217 1.392 . S
C2218 C2219 1.385 . S
C2218 C2220 1.478 . S
C2219 H2213 0.930 . S
C2219 C2215 1.400 . S
C2219 C2218 1.385 . S
C2220 C2218 1.478 . S
C2220 C2222 1.381 . S
C2220 C2226 1.383 . S
C2221 C2217 1.495 . S
C2221 H2227 0.959 . S
C2221 H2228 0.961 . S
C2221 H2229 0.960 . S
C2222 C2220 1.381 . S
C2222 C2223 1.394 . S
C2222 H2230 0.930 . S
C2223 C2222 1.394 . S
C2223 C2224 1.383 . S
C2223 H2231 0.929 . S
C2224 C2223 1.383 . S
C2224 C2225 1.377 . S
C2225 H2209 0.930 . S
C2225 C2224 1.377 . S
C2225 C2226 1.379 . S
C2226 H2210 0.931 . S
C2226 C2220 1.383 . S
C2226 C2225 1.379 . S
H2227 C2221 0.959 . S
H2228 C2221 0.961 . S
H2229 C2221 0.960 . S
H2230 C2222 0.930 . S
H2231 C2223 0.929 . S
H2232 C2240 0.929 . S
H2233 C2242 0.930 . S
H2234 C2244 0.930 . S
H2235 C2247 0.929 . S
H2236 C2250 0.930 . S
H2237 C2252 0.960 . S
H2238 C2252 0.960 . S
H2239 C2252 0.960 . S
C2240 H2232 0.929 . S
C2240 C2241 1.377 . S
C2240 C2242 1.384 . S
C2241 C2240 1.377 . S
C2241 C2247 1.390 . S
C2242 H2233 0.930 . S
C2242 C2240 1.384 . S
C2242 C2243 1.372 . S
C2243 C2242 1.372 . S
C2243 C2244 1.400 . S
C2243 C2248 1.490 . S
C2244 H2234 0.930 . S
C2244 C2243 1.400 . S
C2244 C2247 1.386 . S
H2245 C2261 0.930 . S
H2246 C2262 0.931 . S
C2247 H2235 0.929 . S
C2247 C2241 1.390 . S
C2247 C2244 1.386 . S
C2248 C2243 1.490 . S
C2248 C2250 1.395 . S
C2248 C2251 1.403 . S
H2249 C2255 0.930 . S
C2250 H2236 0.930 . S
C2250 C2248 1.395 . S
C2250 C2253 1.403 . S
C2251 C2248 1.403 . S
C2251 C2252 1.524 . S
C2251 C2255 1.400 . S
C2252 H2237 0.960 . S
C2252 H2238 0.960 . S
C2252 H2239 0.960 . S
C2252 C2251 1.524 . S
C2253 C2250 1.403 . S
C2253 C2254 1.392 . S
C2253 C2257 1.495 . S
C2254 C2253 1.392 . S
C2254 C2255 1.385 . S
C2254 C2256 1.478 . S
C2255 H2249 0.930 . S
C2255 C2251 1.400 . S
C2255 C2254 1.385 . S
C2256 C2254 1.478 . S
C2256 C2258 1.381 . S
C2256 C2262 1.383 . S
C2257 C2253 1.495 . S
C2257 H2263 0.959 . S
C2257 H2264 0.961 . S
C2257 H2265 0.960 . S
C2258 C2256 1.381 . S
C2258 C2259 1.394 . S
C2258 H2266 0.930 . S
C2259 C2258 1.394 . S
C2259 C2260 1.383 . S
C2259 H2267 0.929 . S
C2260 C2259 1.383 . S
C2260 C2261 1.377 . S
C2261 H2245 0.930 . S
C2261 C2260 1.377 . S
C2261 C2262 1.379 . S
C2262 H2246 0.931 . S
C2262 C2256 1.383 . S
C2262 C2261 1.379 . S
H2263 C2257 0.959 . S
H2264 C2257 0.961 . S
H2265 C2257 0.960 . S
H2266 C2258 0.930 . S
H2267 C2259 0.929 . S
H2268 C2276 0.929 . S
H2269 C2278 0.930 . S
H2270 C2280 0.930 . S
H2271 C2283 0.929 . S
H2272 C2286 0.930 . S
H2273 C2288 0.960 . S
H2274 C2288 0.960 . S
H2275 C2288 0.960 . S
C2276 H2268 0.929 . S
C2276 C2277 1.377 . S
C2276 C2278 1.384 . S
C2277 C2276 1.377 . S
C2277 C2283 1.390 . S
C2278 H2269 0.930 . S
C2278 C2276 1.384 . S
C2278 C2279 1.372 . S
C2279 C2278 1.372 . S
C2279 C2280 1.400 . S
C2279 C2284 1.490 . S
C2280 H2270 0.930 . S
C2280 C2279 1.400 . S
C2280 C2283 1.386 . S
H2281 C2297 0.930 . S
H2282 C2298 0.931 . S
C2283 H2271 0.929 . S
C2283 C2277 1.390 . S
C2283 C2280 1.386 . S
C2284 C2279 1.490 . S
C2284 C2286 1.395 . S
C2284 C2287 1.403 . S
H2285 C2291 0.930 . S
C2286 H2272 0.930 . S
C2286 C2284 1.395 . S
C2286 C2289 1.403 . S
C2287 C2284 1.403 . S
C2287 C2288 1.524 . S
C2287 C2291 1.400 . S
C2288 H2273 0.960 . S
C2288 H2274 0.960 . S
C2288 H2275 0.960 . S
C2288 C2287 1.524 . S
C2289 C2286 1.403 . S
C2289 C2290 1.392 . S
C2289 C2293 1.495 . S
C2290 C2289 1.392 . S
C2290 C2291 1.385 . S
C2290 C2292 1.478 . S
C2291 H2285 0.930 . S
C2291 C2287 1.400 . S
C2291 C2290 1.385 . S
C2292 C2290 1.478 . S
C2292 C2294 1.381 . S
C2292 C2298 1.383 . S
C2293 C2289 1.495 . S
C2293 H2299 0.959 . S
C2293 H2300 0.961 . S
C2293 H2301 0.960 . S
C2294 C2292 1.381 . S
C2294 C2295 1.394 . S
C2294 H2302 0.930 . S
C2295 C2294 1.394 . S
C2295 C2296 1.383 . S
C2295 H2303 0.929 . S
C2296 C2295 1.383 . S
C2296 C2297 1.377 . S
C2297 H2281 0.930 . S
C2297 C2296 1.377 . S
C2297 C2298 1.379 . S
C2298 H2282 0.931 . S
C2298 C2292 1.383 . S
C2298 C2297 1.379 . S
H2299 C2293 0.959 . S
H2300 C2293 0.961 . S
H2301 C2293 0.960 . S
H2302 C2294 0.930 . S
H2303 C2295 0.929 . S
H2304 C2312 0.929 . S
H2305 C2314 0.930 . S
H2306 C2316 0.930 . S
H2307 C2319 0.929 . S
H2308 C2322 0.930 . S
H2309 C2324 0.960 . S
H2310 C2324 0.960 . S
H2311 C2324 0.960 . S
C2312 H2304 0.929 . S
C2312 C2313 1.377 . S
C2312 C2314 1.384 . S
C2313 C2312 1.377 . S
C2313 C2319 1.390 . S
C2314 H2305 0.930 . S
C2314 C2312 1.384 . S
C2314 C2315 1.372 . S
C2315 C2314 1.372 . S
C2315 C2316 1.400 . S
C2315 C2320 1.490 . S
C2316 H2306 0.930 . S
C2316 C2315 1.400 . S
C2316 C2319 1.386 . S
H2317 C2333 0.930 . S
H2318 C2334 0.931 . S
C2319 H2307 0.929 . S
C2319 C2313 1.390 . S
C2319 C2316 1.386 . S
C2320 C2315 1.490 . S
C2320 C2322 1.395 . S
C2320 C2323 1.403 . S
H2321 C2327 0.930 . S
C2322 H2308 0.930 . S
C2322 C2320 1.395 . S
C2322 C2325 1.403 . S
C2323 C2320 1.403 . S
C2323 C2324 1.524 . S
C2323 C2327 1.400 . S
C2324 H2309 0.960 . S
C2324 H2310 0.960 . S
C2324 H2311 0.960 . S
C2324 C2323 1.524 . S
C2325 C2322 1.403 . S
C2325 C2326 1.392 . S
C2325 C2329 1.495 . S
C2326 C2325 1.392 . S
C2326 C2327 1.385 . S
C2326 C2328 1.478 . S
C2327 H2321 0.930 . S
C2327 C2323 1.400 . S
C2327 C2326 1.385 . S
C2328 C2326 1.478 . S
C2328 C2330 1.381 . S
C2328 C2334 1.383 . S
C2329 C2325 1.495 . S
C2329 H2335 0.959 . S
C2329 H2336 0.961 . S
C2329 H2337 0.960 . S
C2330 C2328 1.381 . S
C2330 C2331 1.394 . S
C2330 H2338 0.930 . S
C2331 C2330 1.394 . S
C2331 C2332 1.383 . S
C2331 H2339 0.929 . S
C2332 C2331 1.383 . S
C2332 C2333 1.377 . S
C2333 H2317 0.930 . S
C2333 C2332 1.377 . S
C2333 C2334 1.379 . S
C2334 H2318 0.931 . S
C2334 C2328 1.383 . S
C2334 C2333 1.379 . S
H2335 C2329 0.959 . S
H2336 C2329 0.961 . S
H2337 C2329 0.960 . S
H2338 C2330 0.930 . S
H2339 C2331 0.929 . S
H2340 C2348 0.929 . S
H2341 C2350 0.930 . S
H2342 C2352 0.930 . S
H2343 C2355 0.929 . S
H2344 C2358 0.930 . S
H2345 C2360 0.960 1_455 S
H2346 C2360 0.960 . S
H2347 C2360 0.960 . S
C2348 H2340 0.929 . S
C2348 C2349 1.377 . S
C2348 C2350 1.384 . S
C2349 C2348 1.377 . S
C2349 C2355 1.390 . S
C2350 H2341 0.930 . S
C2350 C2348 1.384 . S
C2350 C2351 1.372 . S
C2351 C2350 1.372 . S
C2351 C2352 1.400 . S
C2351 C2356 1.490 . S
C2352 H2342 0.930 . S
C2352 C2351 1.400 . S
C2352 C2355 1.386 . S
H2353 C2369 0.930 . S
H2354 C2370 0.931 . S
C2355 H2343 0.929 . S
C2355 C2349 1.390 . S
C2355 C2352 1.386 . S
C2356 C2351 1.490 . S
C2356 C2358 1.395 . S
C2356 C2359 1.422 . S
H2357 C2363 0.930 . S
C2358 H2344 0.930 . S
C2358 C2356 1.395 . S
C2358 C2361 1.403 1_655 S
C2359 C2356 1.422 . S
C2359 C2360 1.539 . S
C2359 C2363 1.364 1_655 S
C2360 H2345 0.960 1_655 S
C2360 H2346 0.960 . S
C2360 H2347 0.960 . S
C2360 C2359 1.539 . S
C2361 C2358 1.403 1_455 S
C2361 C2362 1.392 . S
C2361 C2365 1.495 . S
C2362 C2361 1.392 . S
C2362 C2363 1.385 . S
C2362 C2364 1.478 . S
C2363 H2357 0.930 . S
C2363 C2359 1.364 1_455 S
C2363 C2362 1.385 . S
C2364 C2362 1.478 . S
C2364 C2366 1.381 . S
C2364 C2370 1.383 . S
C2365 C2361 1.495 . S
C2365 H2371 0.959 1_455 S
C2365 H2372 0.961 . S
C2365 H2373 0.960 . S
C2366 C2364 1.381 . S
C2366 C2367 1.394 . S
C2366 H2374 0.930 . S
C2367 C2366 1.394 . S
C2367 C2368 1.383 . S
C2367 H2375 0.929 . S
C2368 C2367 1.383 . S
C2368 C2369 1.377 . S
C2369 H2353 0.930 . S
C2369 C2368 1.377 . S
C2369 C2370 1.379 . S
C2370 H2354 0.931 . S
C2370 C2364 1.383 . S
C2370 C2369 1.379 . S
H2371 C2365 0.959 1_655 S
H2372 C2365 0.961 . S
H2373 C2365 0.960 . S
H2374 C2366 0.930 . S
H2375 C2367 0.929 . S
H2376 C2384 0.929 . S
H2377 C2386 0.930 . S
H2378 C2388 0.930 . S
H2379 C2391 0.929 . S
H2380 C2394 0.930 . S
H2381 C2396 0.960 . S
H2382 C2396 0.960 . S
H2383 C2396 0.960 . S
C2384 H2376 0.929 . S
C2384 C2385 1.377 . S
C2384 C2386 1.384 . S
C2385 C2384 1.377 . S
C2385 C2391 1.390 . S
C2386 H2377 0.930 . S
C2386 C2384 1.384 . S
C2386 C2387 1.372 . S
C2387 C2386 1.372 . S
C2387 C2388 1.400 . S
C2387 C2392 1.490 . S
C2388 H2378 0.930 . S
C2388 C2387 1.400 . S
C2388 C2391 1.386 . S
H2389 C2405 0.930 . S
H2390 C2406 0.931 . S
C2391 H2379 0.929 . S
C2391 C2385 1.390 . S
C2391 C2388 1.386 . S
C2392 C2387 1.490 . S
C2392 C2394 1.395 . S
C2392 C2395 1.403 . S
H2393 C2399 0.930 . S
C2394 H2380 0.930 . S
C2394 C2392 1.395 . S
C2394 C2397 1.403 . S
C2395 C2392 1.403 . S
C2395 C2396 1.524 . S
C2395 C2399 1.400 . S
C2396 H2381 0.960 . S
C2396 H2382 0.960 . S
C2396 H2383 0.960 . S
C2396 C2395 1.524 . S
C2397 C2394 1.403 . S
C2397 C2398 1.392 . S
C2397 C2401 1.495 . S
C2398 C2397 1.392 . S
C2398 C2399 1.385 . S
C2398 C2400 1.478 . S
C2399 H2393 0.930 . S
C2399 C2395 1.400 . S
C2399 C2398 1.385 . S
C2400 C2398 1.478 . S
C2400 C2402 1.381 . S
C2400 C2406 1.383 . S
C2401 C2397 1.495 . S
C2401 H2407 0.959 . S
C2401 H2408 0.961 . S
C2401 H2409 0.960 . S
C2402 C2400 1.381 . S
C2402 C2403 1.394 . S
C2402 H2410 0.930 . S
C2403 C2402 1.394 . S
C2403 C2404 1.383 . S
C2403 H2411 0.929 . S
C2404 C2403 1.383 . S
C2404 C2405 1.377 . S
C2405 H2389 0.930 . S
C2405 C2404 1.377 . S
C2405 C2406 1.379 . S
C2406 H2390 0.931 . S
C2406 C2400 1.383 . S
C2406 C2405 1.379 . S
H2407 C2401 0.959 . S
H2408 C2401 0.961 . S
H2409 C2401 0.960 . S
H2410 C2402 0.930 . S
H2411 C2403 0.929 . S
H2412 C2420 0.929 . S
H2413 C2422 0.930 . S
H2414 C2424 0.930 . S
H2415 C2427 0.929 . S
H2416 C2430 0.930 1_565 S
H2417 C2432 0.960 . S
H2418 C2432 0.960 . S
H2419 C2432 0.960 1_565 S
C2420 H2412 0.929 . S
C2420 C2421 1.377 . S
C2420 C2422 1.384 . S
C2421 C2420 1.377 . S
C2421 C2427 1.390 . S
C2422 H2413 0.930 . S
C2422 C2420 1.384 . S
C2422 C2423 1.372 . S
C2423 C2422 1.372 . S
C2423 C2424 1.400 . S
C2423 C2428 1.490 . S
C2424 H2414 0.930 . S
C2424 C2423 1.400 . S
C2424 C2427 1.386 . S
H2425 C2441 0.930 . S
H2426 C2442 0.931 . S
C2427 H2415 0.929 . S
C2427 C2421 1.390 . S
C2427 C2424 1.386 . S
C2428 C2423 1.490 . S
C2428 C2430 1.395 1_565 S
C2428 C2431 1.403 1_565 S
H2429 C2435 0.930 . S
C2430 H2416 0.930 1_545 S
C2430 C2428 1.395 1_545 S
C2430 C2433 1.403 . S
C2431 C2428 1.403 1_545 S
C2431 C2432 1.524 . S
C2431 C2435 1.400 . S
C2432 H2417 0.960 . S
C2432 H2418 0.960 . S
C2432 H2419 0.960 1_545 S
C2432 C2431 1.524 . S
C2433 C2430 1.403 . S
C2433 C2434 1.392 . S
C2433 C2437 1.495 . S
C2434 C2433 1.392 . S
C2434 C2435 1.385 . S
C2434 C2436 1.478 . S
C2435 H2429 0.930 . S
C2435 C2431 1.400 . S
C2435 C2434 1.385 . S
C2436 C2434 1.478 . S
C2436 C2438 1.381 . S
C2436 C2442 1.383 . S
C2437 C2433 1.495 . S
C2437 H2443 0.959 . S
C2437 H2444 0.961 . S
C2437 H2445 0.960 . S
C2438 C2436 1.381 . S
C2438 C2439 1.394 . S
C2438 H2446 0.930 . S
C2439 C2438 1.394 . S
C2439 C2440 1.383 . S
C2439 H2447 0.929 . S
C2440 C2439 1.383 . S
C2440 C2441 1.377 . S
C2441 H2425 0.930 . S
C2441 C2440 1.377 . S
C2441 C2442 1.379 . S
C2442 H2426 0.931 . S
C2442 C2436 1.383 . S
C2442 C2441 1.379 . S
H2443 C2437 0.959 . S
H2444 C2437 0.961 . S
H2445 C2437 0.960 . S
H2446 C2438 0.930 . S
H2447 C2439 0.929 . S
H2448 C2456 0.929 . S
H2449 C2458 0.930 . S
H2450 C2460 0.930 . S
H2451 C2463 0.929 . S
H2452 C2466 0.930 . S
H2453 C2468 0.960 1_545 S
H2454 C2468 0.960 . S
H2455 C2468 0.960 . S
C2456 H2448 0.929 . S
C2456 C2457 1.377 . S
C2456 C2458 1.384 . S
C2457 C2456 1.377 . S
C2457 C2463 1.390 . S
C2458 H2449 0.930 . S
C2458 C2456 1.384 . S
C2458 C2459 1.372 . S
C2459 C2458 1.372 . S
C2459 C2460 1.400 . S
C2459 C2464 1.490 . S
C2460 H2450 0.930 . S
C2460 C2459 1.400 . S
C2460 C2463 1.386 . S
H2461 C2477 0.930 . S
H2462 C2478 0.931 . S
C2463 H2451 0.929 . S
C2463 C2457 1.390 . S
C2463 C2460 1.386 . S
C2464 C2459 1.490 . S
C2464 C2466 1.395 . S
C2464 C2467 1.403 . S
H2465 C2471 0.930 . S
C2466 H2452 0.930 . S
C2466 C2464 1.395 . S
C2466 C2469 1.403 1_565 S
C2467 C2464 1.403 . S
C2467 C2468 1.524 . S
C2467 C2471 1.400 1_565 S
C2468 H2453 0.960 1_565 S
C2468 H2454 0.960 . S
C2468 H2455 0.960 . S
C2468 C2467 1.524 . S
C2469 C2466 1.403 1_545 S
C2469 C2470 1.392 . S
C2469 C2473 1.495 . S
C2470 C2469 1.392 . S
C2470 C2471 1.385 . S
C2470 C2472 1.478 . S
C2471 H2465 0.930 . S
C2471 C2467 1.400 1_545 S
C2471 C2470 1.385 . S
C2472 C2470 1.478 . S
C2472 C2474 1.381 . S
C2472 C2478 1.383 . S
C2473 C2469 1.495 . S
C2473 H2479 0.959 . S
C2473 H2480 0.961 . S
C2473 H2481 0.960 . S
C2474 C2472 1.381 . S
C2474 C2475 1.394 . S
C2474 H2482 0.930 . S
C2475 C2474 1.394 . S
C2475 C2476 1.383 . S
C2475 H2483 0.929 . S
C2476 C2475 1.383 . S
C2476 C2477 1.377 . S
C2477 H2461 0.930 . S
C2477 C2476 1.377 . S
C2477 C2478 1.379 . S
C2478 H2462 0.931 . S
C2478 C2472 1.383 . S
C2478 C2477 1.379 . S
H2479 C2473 0.959 . S
H2480 C2473 0.961 . S
H2481 C2473 0.960 . S
H2482 C2474 0.930 . S
H2483 C2475 0.929 . S
H2484 C2492 0.929 . S
H2485 C2494 0.930 . S
H2486 C2496 0.930 . S
H2487 C2499 0.929 . S
H2488 C2502 0.930 . S
H2489 C2504 0.960 . S
H2490 C2504 0.960 . S
H2491 C2504 0.960 . S
C2492 H2484 0.929 . S
C2492 C2493 1.377 . S
C2492 C2494 1.384 . S
C2493 C2492 1.377 . S
C2493 C2499 1.390 . S
C2494 H2485 0.930 . S
C2494 C2492 1.384 . S
C2494 C2495 1.372 . S
C2495 C2494 1.372 . S
C2495 C2496 1.400 . S
C2495 C2500 1.490 . S
C2496 H2486 0.930 . S
C2496 C2495 1.400 . S
C2496 C2499 1.386 . S
H2497 C2513 0.930 . S
H2498 C2514 0.931 . S
C2499 H2487 0.929 . S
C2499 C2493 1.390 . S
C2499 C2496 1.386 . S
C2500 C2495 1.490 . S
C2500 C2502 1.395 . S
C2500 C2503 1.403 . S
H2501 C2507 0.930 1_655 S
C2502 H2488 0.930 . S
C2502 C2500 1.395 . S
C2502 C2505 1.403 . S
C2503 C2500 1.403 . S
C2503 C2504 1.524 . S
C2503 C2507 1.400 . S
C2504 H2489 0.960 . S
C2504 H2490 0.960 . S
C2504 H2491 0.960 . S
C2504 C2503 1.524 . S
C2505 C2502 1.403 . S
C2505 C2506 1.384 1_455 S
C2505 C2509 1.495 . S
C2506 C2505 1.384 1_655 S
C2506 C2507 1.389 1_655 S
C2506 C2508 1.483 . S
C2507 H2501 0.930 1_455 S
C2507 C2503 1.400 . S
C2507 C2506 1.389 1_455 S
C2508 C2506 1.483 . S
C2508 C2510 1.381 . S
C2508 C2514 1.383 . S
C2509 C2505 1.495 . S
C2509 H2515 0.959 . S
C2509 H2516 0.961 . S
C2509 H2517 0.960 . S
C2510 C2508 1.381 . S
C2510 C2511 1.394 . S
C2510 H2518 0.930 . S
C2511 C2510 1.394 . S
C2511 C2512 1.383 . S
C2511 H2519 0.929 . S
C2512 C2511 1.383 . S
C2512 C2513 1.377 . S
C2513 H2497 0.930 . S
C2513 C2512 1.377 . S
C2513 C2514 1.379 . S
C2514 H2498 0.931 . S
C2514 C2508 1.383 . S
C2514 C2513 1.379 . S
H2515 C2509 0.959 . S
H2516 C2509 0.961 . S
H2517 C2509 0.960 . S
H2518 C2510 0.930 . S
H2519 C2511 0.929 . S
H2520 C2528 0.929 . S
H2521 C2530 0.930 . S
H2522 C2532 0.930 . S
H2523 C2535 0.929 . S
H2524 C2538 0.930 . S
H2525 C2540 0.960 . S
H2526 C2540 0.960 . S
H2527 C2540 0.960 . S
C2528 H2520 0.929 . S
C2528 C2529 1.377 . S
C2528 C2530 1.384 . S
C2529 C2528 1.377 . S
C2529 C2535 1.390 . S
C2530 H2521 0.930 . S
C2530 C2528 1.384 . S
C2530 C2531 1.372 . S
C2531 C2530 1.372 . S
C2531 C2532 1.400 . S
C2531 C2536 1.490 . S
C2532 H2522 0.930 . S
C2532 C2531 1.400 . S
C2532 C2535 1.386 . S
H2533 C2549 0.930 . S
H2534 C2550 0.931 . S
C2535 H2523 0.929 . S
C2535 C2529 1.390 . S
C2535 C2532 1.386 . S
C2536 C2531 1.490 . S
C2536 C2538 1.395 . S
C2536 C2539 1.403 . S
H2537 C2543 0.930 . S
C2538 H2524 0.930 . S
C2538 C2536 1.395 . S
C2538 C2541 1.403 . S
C2539 C2536 1.403 . S
C2539 C2540 1.524 . S
C2539 C2543 1.400 . S
C2540 H2525 0.960 . S
C2540 H2526 0.960 . S
C2540 H2527 0.960 . S
C2540 C2539 1.524 . S
C2541 C2538 1.403 . S
C2541 C2542 1.392 . S
C2541 C2545 1.495 . S
C2542 C2541 1.392 . S
C2542 C2543 1.385 . S
C2542 C2544 1.478 . S
C2543 H2537 0.930 . S
C2543 C2539 1.400 . S
C2543 C2542 1.385 . S
C2544 C2542 1.478 . S
C2544 C2546 1.381 . S
C2544 C2550 1.383 . S
C2545 C2541 1.495 . S
C2545 H2551 0.959 . S
C2545 H2552 0.961 . S
C2545 H2553 0.960 . S
C2546 C2544 1.381 . S
C2546 C2547 1.394 . S
C2546 H2554 0.930 . S
C2547 C2546 1.394 . S
C2547 C2548 1.383 . S
C2547 H2555 0.929 . S
C2548 C2547 1.383 . S
C2548 C2549 1.377 . S
C2549 H2533 0.930 . S
C2549 C2548 1.377 . S
C2549 C2550 1.379 . S
C2550 H2534 0.931 . S
C2550 C2544 1.383 . S
C2550 C2549 1.379 . S
H2551 C2545 0.959 . S
H2552 C2545 0.961 . S
H2553 C2545 0.960 . S
H2554 C2546 0.930 . S
H2555 C2547 0.929 . S
H2556 C2564 0.929 . S
H2557 C2566 0.930 . S
H2558 C2568 0.930 . S
H2559 C2571 0.929 . S
H2560 C2574 0.930 . S
H2561 C2576 0.960 . S
H2562 C2576 0.960 . S
H2563 C2576 0.960 . S
C2564 H2556 0.929 . S
C2564 C2565 1.377 . S
C2564 C2566 1.384 . S
C2565 C2564 1.377 . S
C2565 C2571 1.390 . S
C2566 H2557 0.930 . S
C2566 C2564 1.384 . S
C2566 C2567 1.372 . S
C2567 C2566 1.372 . S
C2567 C2568 1.400 . S
C2567 C2572 1.490 . S
C2568 H2558 0.930 . S
C2568 C2567 1.400 . S
C2568 C2571 1.386 . S
H2569 C2585 0.930 . S
H2570 C2586 0.931 . S
C2571 H2559 0.929 . S
C2571 C2565 1.390 . S
C2571 C2568 1.386 . S
C2572 C2567 1.490 . S
C2572 C2574 1.395 . S
C2572 C2575 1.403 . S
H2573 C2579 0.930 . S
C2574 H2560 0.930 . S
C2574 C2572 1.395 . S
C2574 C2577 1.403 . S
C2575 C2572 1.403 . S
C2575 C2576 1.524 . S
C2575 C2579 1.400 . S
C2576 H2561 0.960 . S
C2576 H2562 0.960 . S
C2576 H2563 0.960 . S
C2576 C2575 1.524 . S
C2577 C2574 1.403 . S
C2577 C2578 1.392 . S
C2577 C2581 1.495 . S
C2578 C2577 1.392 . S
C2578 C2579 1.385 . S
C2578 C2580 1.478 . S
C2579 H2573 0.930 . S
C2579 C2575 1.400 . S
C2579 C2578 1.385 . S
C2580 C2578 1.478 . S
C2580 C2582 1.381 . S
C2580 C2586 1.383 . S
C2581 C2577 1.495 . S
C2581 H2587 0.959 . S
C2581 H2588 0.961 . S
C2581 H2589 0.960 . S
C2582 C2580 1.381 . S
C2582 C2583 1.394 . S
C2582 H2590 0.930 . S
C2583 C2582 1.394 . S
C2583 C2584 1.383 . S
C2583 H2591 0.929 . S
C2584 C2583 1.383 . S
C2584 C2585 1.377 . S
C2585 H2569 0.930 . S
C2585 C2584 1.377 . S
C2585 C2586 1.379 . S
C2586 H2570 0.931 . S
C2586 C2580 1.383 . S
C2586 C2585 1.379 . S
H2587 C2581 0.959 . S
H2588 C2581 0.961 . S
H2589 C2581 0.960 . S
H2590 C2582 0.930 . S
H2591 C2583 0.929 . S
H2592 C2600 0.929 . S
H2593 C2602 0.930 . S
H2594 C2604 0.930 . S
H2595 C2607 0.929 . S
H2596 C2610 0.930 . S
H2597 C2612 0.960 . S
H2598 C2612 0.960 . S
H2599 C2612 0.960 . S
C2600 H2592 0.929 . S
C2600 C2601 1.377 . S
C2600 C2602 1.384 . S
C2601 C2600 1.377 . S
C2601 C2607 1.390 . S
C2602 H2593 0.930 . S
C2602 C2600 1.384 . S
C2602 C2603 1.372 . S
C2603 C2602 1.372 . S
C2603 C2604 1.400 . S
C2603 C2608 1.490 . S
C2604 H2594 0.930 . S
C2604 C2603 1.400 . S
C2604 C2607 1.386 . S
H2605 C2621 0.930 . S
H2606 C2622 0.931 . S
C2607 H2595 0.929 . S
C2607 C2601 1.390 . S
C2607 C2604 1.386 . S
C2608 C2603 1.490 . S
C2608 C2610 1.395 . S
C2608 C2611 1.403 . S
H2609 C2615 0.930 . S
C2610 H2596 0.930 . S
C2610 C2608 1.395 . S
C2610 C2613 1.403 . S
C2611 C2608 1.403 . S
C2611 C2612 1.524 . S
C2611 C2615 1.400 . S
C2612 H2597 0.960 . S
C2612 H2598 0.960 . S
C2612 H2599 0.960 . S
C2612 C2611 1.524 . S
C2613 C2610 1.403 . S
C2613 C2614 1.392 . S
C2613 C2617 1.495 . S
C2614 C2613 1.392 . S
C2614 C2615 1.385 . S
C2614 C2616 1.478 . S
C2615 H2609 0.930 . S
C2615 C2611 1.400 . S
C2615 C2614 1.385 . S
C2616 C2614 1.478 . S
C2616 C2618 1.381 . S
C2616 C2622 1.383 . S
C2617 C2613 1.495 . S
C2617 H2623 0.959 . S
C2617 H2624 0.961 . S
C2617 H2625 0.960 . S
C2618 C2616 1.381 . S
C2618 C2619 1.394 . S
C2618 H2626 0.930 . S
C2619 C2618 1.394 . S
C2619 C2620 1.383 . S
C2619 H2627 0.929 . S
C2620 C2619 1.383 . S
C2620 C2621 1.377 . S
C2621 H2605 0.930 . S
C2621 C2620 1.377 . S
C2621 C2622 1.379 . S
C2622 H2606 0.931 . S
C2622 C2616 1.383 . S
C2622 C2621 1.379 . S
H2623 C2617 0.959 . S
H2624 C2617 0.961 . S
H2625 C2617 0.960 . S
H2626 C2618 0.930 . S
H2627 C2619 0.929 . S
H2628 C2636 0.929 . S
H2629 C2638 0.930 . S
H2630 C2640 0.930 . S
H2631 C2643 0.929 . S
H2632 C2646 0.930 . S
H2633 C2648 0.960 . S
H2634 C2648 0.960 . S
H2635 C2648 0.960 . S
C2636 H2628 0.929 . S
C2636 C2637 1.377 . S
C2636 C2638 1.384 . S
C2637 C2636 1.377 . S
C2637 C2643 1.390 . S
C2638 H2629 0.930 . S
C2638 C2636 1.384 . S
C2638 C2639 1.372 . S
C2639 C2638 1.372 . S
C2639 C2640 1.400 . S
C2639 C2644 1.490 . S
C2640 H2630 0.930 . S
C2640 C2639 1.400 . S
C2640 C2643 1.386 . S
H2641 C2657 0.930 . S
H2642 C2658 0.931 . S
C2643 H2631 0.929 . S
C2643 C2637 1.390 . S
C2643 C2640 1.386 . S
C2644 C2639 1.490 . S
C2644 C2646 1.395 . S
C2644 C2647 1.403 . S
H2645 C2651 0.930 . S
C2646 H2632 0.930 . S
C2646 C2644 1.395 . S
C2646 C2649 1.403 . S
C2647 C2644 1.403 . S
C2647 C2648 1.524 . S
C2647 C2651 1.400 . S
C2648 H2633 0.960 . S
C2648 H2634 0.960 . S
C2648 H2635 0.960 . S
C2648 C2647 1.524 . S
C2649 C2646 1.403 . S
C2649 C2650 1.392 . S
C2649 C2653 1.495 . S
C2650 C2649 1.392 . S
C2650 C2651 1.385 . S
C2650 C2652 1.478 . S
C2651 H2645 0.930 . S
C2651 C2647 1.400 . S
C2651 C2650 1.385 . S
C2652 C2650 1.478 . S
C2652 C2654 1.381 . S
C2652 C2658 1.383 . S
C2653 C2649 1.495 . S
C2653 H2659 0.959 . S
C2653 H2660 0.961 . S
C2653 H2661 0.960 . S
C2654 C2652 1.381 . S
C2654 C2655 1.394 . S
C2654 H2662 0.930 . S
C2655 C2654 1.394 . S
C2655 C2656 1.383 . S
C2655 H2663 0.929 . S
C2656 C2655 1.383 . S
C2656 C2657 1.377 . S
C2657 H2641 0.930 . S
C2657 C2656 1.377 . S
C2657 C2658 1.379 . S
C2658 H2642 0.931 . S
C2658 C2652 1.383 . S
C2658 C2657 1.379 . S
H2659 C2653 0.959 . S
H2660 C2653 0.961 . S
H2661 C2653 0.960 . S
H2662 C2654 0.930 . S
H2663 C2655 0.929 . S
C729 C15 1.142 . S
C748 C99 1.164 . S
C765 C19 1.161 . S
C784 C55 1.116 . S
C801 C59 1.161 . S
C820 C95 1.159 . S
C837 C135 1.146 . S
C856 C179 1.156 . S
C873 C219 1.162 . S
C892 C175 1.113 . S
C909 C215 1.140 . S
C928 C139 1.164 . S
C945 C339 1.161 . S
C964 C255 1.165 . S
C981 C259 1.161 . S
C1000 C295 1.164 1_545 S
C1017 C335 1.136 . S
C1036 C299 1.163 . S
C1053 C419 1.161 . S
C1072 C375 1.160 . S
C1089 C415 1.143 . S
C1108 C459 1.163 . S
C1125 C379 1.161 . S
C1144 C455 1.138 . S
C1161 C495 1.135 . S
C1180 C579 1.161 . S
C1197 C499 1.163 . S
C1216 C535 1.141 . S
C1233 C539 1.161 . S
C1252 C575 1.128 . S
C1269 C659 1.161 . S
C1288 C615 1.164 . S
C1305 C699 1.162 . S
C1324 C655 1.117 . S
C1341 C619 1.161 . S
C1360 C695 1.113 1_455 S
C1377 C18 1.781 . S
C1396 C218 1.791 . S
C1413 C138 1.783 . S
C1432 C58 1.774 . S
C1449 C178 1.781 . S
C1468 C98 1.792 . S
C1485 C258 1.787 . S
C1504 C458 1.762 . S
C1521 C298 1.781 . S
C1540 C378 1.789 . S
C1557 C418 1.783 . S
C1576 C338 1.774 . S
C1593 C498 1.787 . S
C1612 C698 1.762 . S
C1629 C618 1.783 . S
C1648 C538 1.774 . S
C1665 C658 1.783 . S
C1684 C578 1.801 . S
C1701 C409 2.032 . S
C1720 C9 2.052 1_565 S
C1737 C49 2.043 . S
C1756 C449 2.005 . S
C1773 C369 2.032 . S
C1792 C89 2.061 . S
C1809 C129 2.043 1_655 S
C1828 C569 2.007 . S
C1845 C169 2.034 . S
C1864 C489 2.063 . S
C1881 C529 2.042 . S
C1900 C209 2.004 . S
C1917 C649 2.042 . S
C1936 C249 2.034 . S
C1953 C289 2.039 . S
C1972 C689 2.009 . S
C1989 C329 2.031 . S
C2008 C609 2.057 . S
C2025 C90 1.848 . S
C2044 C6 1.854 . S
C2061 C10 1.848 . S
C2080 C46 1.853 . S
C2097 C86 1.860 . S
C2116 C50 1.854 . S
C2133 C170 1.844 . S
C2152 C126 1.863 . S
C2169 C210 1.848 . S
C2188 C166 1.855 . S
C2205 C206 1.862 . S
C2224 C130 1.831 . S
C2241 C330 1.847 . S
C2260 C246 1.855 . S
C2277 C286 1.862 . S
C2296 C250 1.832 . S
C2313 C290 1.846 . S
C2332 C326 1.857 . S
C2349 C366 1.862 . S
C2368 C410 1.836 . S
C2385 C406 1.861 . S
C2404 C450 1.848 . S
C2421 C370 1.844 . S
C2440 C446 1.863 . S
C2457 C486 1.862 . S
C2476 C570 1.839 . S
C2493 C526 1.863 . S
C2512 C490 1.831 . S
C2529 C530 1.846 . S
C2548 C566 1.857 . S
C2565 C606 1.860 . S
C2584 C650 1.854 . S
C2601 C646 1.860 . S
C2620 C690 1.852 . S
C2637 C610 1.845 . S
C2656 C686 1.861 . S
