# Generated by pormake.
# Topology ume, (4)-cn, num edge types: 1
# Building blocks:
#     Node 0, Type 0, BuildingBlock: KUFVIS_clean_sbu_0, # of connection points: 4
#     Node 1, Type 0, BuildingBlock: KUFVIS_clean_sbu_0, # of connection points: 4
#     Node 2, Type 0, BuildingBlock: KUFVIS_clean_sbu_0, # of connection points: 4
#     Node 3, Type 0, BuildingBlock: KUFVIS_clean_sbu_0, # of connection points: 4
#     Node 4, Type 0, BuildingBlock: KUFVIS_clean_sbu_0, # of connection points: 4
#     Node 5, Type 0, BuildingBlock: KUFVIS_clean_sbu_0, # of connection points: 4
#     Node 6, Type 0, BuildingBlock: KUFVIS_clean_sbu_0, # of connection points: 4
#     Node 7, Type 0, BuildingBlock: KUFVIS_clean_sbu_0, # of connection points: 4
#     Node 8, Type 0, BuildingBlock: KUFVIS_clean_sbu_0, # of connection points: 4
#     Node 9, Type 0, BuildingBlock: KUFVIS_clean_sbu_0, # of connection points: 4
#     Node 10, Type 0, BuildingBlock: KUFVIS_clean_sbu_0, # of connection points: 4
#     Node 11, Type 0, BuildingBlock: KUFVIS_clean_sbu_0, # of connection points: 4
#     Node 12, Type 0, BuildingBlock: KUFVIS_clean_sbu_0, # of connection points: 4
#     Node 13, Type 0, BuildingBlock: KUFVIS_clean_sbu_0, # of connection points: 4
#     Node 14, Type 0, BuildingBlock: KUFVIS_clean_sbu_0, # of connection points: 4
#     Node 15, Type 0, BuildingBlock: KUFVIS_clean_sbu_0, # of connection points: 4
#     Edge 16, Type (0, 0), BuildingBlock: KIFKEQ_clean_linker_1, # of connection points: 2
#     Edge 17, Type (0, 0), BuildingBlock: KIFKEQ_clean_linker_1, # of connection points: 2
#     Edge 18, Type (0, 0), BuildingBlock: KIFKEQ_clean_linker_1, # of connection points: 2
#     Edge 19, Type (0, 0), BuildingBlock: KIFKEQ_clean_linker_1, # of connection points: 2
#     Edge 20, Type (0, 0), BuildingBlock: KIFKEQ_clean_linker_1, # of connection points: 2
#     Edge 21, Type (0, 0), BuildingBlock: KIFKEQ_clean_linker_1, # of connection points: 2
#     Edge 22, Type (0, 0), BuildingBlock: KIFKEQ_clean_linker_1, # of connection points: 2
#     Edge 23, Type (0, 0), BuildingBlock: KIFKEQ_clean_linker_1, # of connection points: 2
#     Edge 24, Type (0, 0), BuildingBlock: KIFKEQ_clean_linker_1, # of connection points: 2
#     Edge 25, Type (0, 0), BuildingBlock: KIFKEQ_clean_linker_1, # of connection points: 2
#     Edge 26, Type (0, 0), BuildingBlock: KIFKEQ_clean_linker_1, # of connection points: 2
#     Edge 27, Type (0, 0), BuildingBlock: KIFKEQ_clean_linker_1, # of connection points: 2
#     Edge 28, Type (0, 0), BuildingBlock: KIFKEQ_clean_linker_1, # of connection points: 2
#     Edge 29, Type (0, 0), BuildingBlock: KIFKEQ_clean_linker_1, # of connection points: 2
#     Edge 30, Type (0, 0), BuildingBlock: KIFKEQ_clean_linker_1, # of connection points: 2
#     Edge 31, Type (0, 0), BuildingBlock: KIFKEQ_clean_linker_1, # of connection points: 2
#     Edge 32, Type (0, 0), BuildingBlock: KIFKEQ_clean_linker_1, # of connection points: 2
#     Edge 33, Type (0, 0), BuildingBlock: KIFKEQ_clean_linker_1, # of connection points: 2
#     Edge 34, Type (0, 0), BuildingBlock: KIFKEQ_clean_linker_1, # of connection points: 2
#     Edge 35, Type (0, 0), BuildingBlock: KIFKEQ_clean_linker_1, # of connection points: 2
#     Edge 36, Type (0, 0), BuildingBlock: KIFKEQ_clean_linker_1, # of connection points: 2
#     Edge 37, Type (0, 0), BuildingBlock: KIFKEQ_clean_linker_1, # of connection points: 2
#     Edge 38, Type (0, 0), BuildingBlock: KIFKEQ_clean_linker_1, # of connection points: 2
#     Edge 39, Type (0, 0), BuildingBlock: KIFKEQ_clean_linker_1, # of connection points: 2
#     Edge 40, Type (0, 0), BuildingBlock: KIFKEQ_clean_linker_1, # of connection points: 2
#     Edge 41, Type (0, 0), BuildingBlock: KIFKEQ_clean_linker_1, # of connection points: 2
#     Edge 42, Type (0, 0), BuildingBlock: KIFKEQ_clean_linker_1, # of connection points: 2
#     Edge 43, Type (0, 0), BuildingBlock: KIFKEQ_clean_linker_1, # of connection points: 2
#     Edge 44, Type (0, 0), BuildingBlock: KIFKEQ_clean_linker_1, # of connection points: 2
#     Edge 45, Type (0, 0), BuildingBlock: KIFKEQ_clean_linker_1, # of connection points: 2
#     Edge 46, Type (0, 0), BuildingBlock: KIFKEQ_clean_linker_1, # of connection points: 2
#     Edge 47, Type (0, 0), BuildingBlock: KIFKEQ_clean_linker_1, # of connection points: 2
# Relax obj value: 0.107
# Max RMSD: 0.163
# Mean RMSD: 0.163
data_MOF--net-ume--node1-KUFVIS_clean_sbu_0--edge1-KIFKEQ_clean_linker_1
_symmetry_space_group_name_H-M    P1
_symmetry_Int_Tables_number       1
_symmetry_cell_setting            triclinic
loop_
_symmetry_equiv_pos_as_xyz
'x, y, z'
_cell_length_a     26.685521
_cell_length_b     26.715061
_cell_length_c     115.95984
_cell_angle_alpha  89.99995
_cell_angle_beta   90.010847
_cell_angle_gamma 89.97274
loop_
_atom_site_label
_atom_site_type_symbol
_atom_site_fract_x
_atom_site_fract_y
_atom_site_fract_z
_atom_type_partial_charge
Mn0 Mn 0.2519 0.12384 0.31748 0.0
Mn1 Mn 0.24954 0.02531 0.33565 0.0
C2 C 0.32594 0.08599 0.323 0.0
C3 C 0.24768 0.15457 0.29868 0.0
C4 C 0.23056 0.1328 0.34302 0.0
O5 O 0.1789 0.10049 0.31709 0.0
O6 O 0.18656 0.02755 0.32679 0.0
C7 C 0.24851 0.94008 0.31933 0.0
N8 N 0.26977 0.96437 0.32842 0.0
C9 C 0.32938 0.89789 0.33124 0.0
C10 C 0.30787 0.87193 0.32197 0.0
C11 C 0.26747 0.89328 0.31594 0.0
C12 C 0.30902 0.94446 0.33419 0.0
H13 H 0.21735 0.95633 0.31471 0.0
C14 C 0.16189 0.05817 0.32047 0.0
O15 O 0.23748 0.18295 0.30746 0.0
O16 O 0.259 0.10828 0.3008 0.0
N17 N 0.30943 0.01888 0.34461 0.0
C18 C 0.32898 0.05091 0.35258 0.0
C19 C 0.37158 0.03664 0.35888 0.0
C20 C 0.39312 0.9893 0.35708 0.0
C21 C 0.37214 0.95687 0.3489 0.0
C22 C 0.33006 0.97337 0.34277 0.0
H23 H 0.3123 0.08709 0.3541 0.0
O24 O 0.32633 0.13109 0.31884 0.0
O25 O 0.28262 0.06431 0.32361 0.0
O26 O 0.24278 0.15417 0.33361 0.0
O27 O 0.22858 0.08542 0.34427 0.0
C28 C 0.39168 0.90905 0.34647 0.0
C29 C 0.37064 0.87976 0.33757 0.0
H30 H 0.32238 0.83583 0.31933 0.0
H31 H 0.25087 0.87362 0.30873 0.0
H32 H 0.3876 0.06195 0.36517 0.0
H33 H 0.42597 0.9784 0.36197 0.0
H34 H 0.42359 0.89487 0.35123 0.0
H35 H 0.3869 0.84362 0.33558 0.0
Mn36 Mn 0.86105 0.74181 0.56884 0.0
Mn37 Mn 0.95921 0.75561 0.58685 0.0
C38 C 0.89615 0.8198 0.57165 0.0
C39 C 0.83034 0.72674 0.55034 0.0
C40 C 0.85262 0.73581 0.59482 0.0
O41 O 0.88833 0.67067 0.57069 0.0
O42 O 0.96009 0.68756 0.58032 0.0
C43 C 0.04568 0.74722 0.57097 0.0
N44 N 0.01949 0.77358 0.57901 0.0
C45 C 0.0828 0.8376 0.57967 0.0
C46 C 0.1106 0.81105 0.57143 0.0
C47 C 0.09179 0.76582 0.56701 0.0
C48 C 0.03695 0.81742 0.58322 0.0
H49 H 0.03148 0.71229 0.56762 0.0
C50 C 0.93117 0.65793 0.57475 0.0
O51 O 0.80251 0.71969 0.55939 0.0
O52 O 0.87637 0.74018 0.55209 0.0
N53 N 0.96217 0.82109 0.59349 0.0
C54 C 0.92878 0.84409 0.60063 0.0
C55 C 0.94063 0.89101 0.60535 0.0
C56 C 0.98688 0.91344 0.60279 0.0
C57 C 0.02052 0.88919 0.59538 0.0
C58 C 0.00649 0.84268 0.59086 0.0
H59 H 0.8935 0.82674 0.60275 0.0
O60 O 0.85061 0.81592 0.56782 0.0
O61 O 0.91926 0.77822 0.57376 0.0
O62 O 0.8308 0.74065 0.58512 0.0
O63 O 0.89999 0.73776 0.59612 0.0
C64 C 0.06733 0.90937 0.59225 0.0
C65 C 0.09846 0.88359 0.5844 0.0
H66 H 0.14623 0.82522 0.56837 0.0
H67 H 0.11293 0.74522 0.56061 0.0
H68 H 0.91439 0.90961 0.61103 0.0
H69 H -0.00386 0.94926 0.60658 0.0
H70 H 0.07937 0.94514 0.59567 0.0
H71 H 0.13395 0.89996 0.5819 0.0
Mn72 Mn 0.22941 0.36258 0.81727 0.0
Mn73 Mn 0.22506 0.46071 0.83554 0.0
C74 C 0.15335 0.39902 0.82177 0.0
C75 C 0.23905 0.33232 0.79853 0.0
C76 C 0.24499 0.35357 0.84303 0.0
O77 O 0.30176 0.38775 0.81784 0.0
O78 O 0.29006 0.46024 0.82751 0.0
C79 C 0.22834 0.5469 0.81951 0.0
N80 N 0.20527 0.52153 0.8282 0.0
C81 C 0.14416 0.58697 0.83056 0.0
C82 C 0.16741 0.61397 0.82168 0.0
C83 C 0.20948 0.59368 0.81608 0.0
C84 C 0.16442 0.54041 0.83354 0.0
H85 H 0.26089 0.53155 0.81525 0.0
C86 C 0.31687 0.43043 0.82146 0.0
O87 O 0.24764 0.304 0.80742 0.0
O88 O 0.22609 0.37828 0.80054 0.0
N89 N 0.16289 0.46533 0.8437 0.0
C90 C 0.14203 0.43239 0.85128 0.0
C91 C 0.09782 0.44555 0.85711 0.0
C92 C 0.07603 0.49272 0.85523 0.0
C93 C 0.09828 0.52602 0.84742 0.0
C94 C 0.14189 0.51057 0.84175 0.0
H95 H 0.15896 0.39641 0.85288 0.0
O96 O 0.15486 0.35387 0.81764 0.0
O97 O 0.19604 0.42137 0.82301 0.0
O98 O 0.23536 0.33205 0.83348 0.0
O99 O 0.24537 0.40093 0.84434 0.0
C100 C 0.07866 0.57377 0.84497 0.0
C101 C 0.10135 0.6041 0.83648 0.0
H102 H 0.15303 0.65011 0.81902 0.0
H103 H 0.22748 0.61419 0.80918 0.0
H104 H 0.08082 0.41957 0.8631 0.0
H105 H 0.0421 0.50287 0.85979 0.0
H106 H 0.04538 0.58706 0.84936 0.0
H107 H 0.08509 0.6402 0.83445 0.0
Mn108 Mn 0.62714 0.72959 0.06852 0.0
Mn109 Mn 0.5307 0.72373 0.08728 0.0
C110 C 0.59102 0.65339 0.07286 0.0
C111 C 0.6563 0.73963 0.04971 0.0
C112 C 0.63863 0.74279 0.09432 0.0
O113 O 0.60166 0.80169 0.06934 0.0
O114 O 0.53096 0.78967 0.07968 0.0
C115 C 0.44285 0.73007 0.07175 0.0
N116 N 0.46904 0.7054 0.08007 0.0
C117 C 0.40394 0.64372 0.08206 0.0
C118 C 0.37617 0.66853 0.07353 0.0
C119 C 0.39584 0.71174 0.06831 0.0
C120 C 0.45064 0.66361 0.08509 0.0
H121 H 0.4577 0.7635 0.06778 0.0
C122 C 0.55969 0.81674 0.07342 0.0
O123 O 0.6851 0.74816 0.05852 0.0
O124 O 0.61034 0.72689 0.05183 0.0
N125 N 0.52642 0.66056 0.09499 0.0
C126 C 0.55994 0.63854 0.10227 0.0
C127 C 0.54728 0.59336 0.10773 0.0
C128 C 0.50009 0.5717 0.10577 0.0
C129 C 0.46623 0.59509 0.09826 0.0
C130 C 0.48111 0.63977 0.09298 0.0
H131 H 0.59601 0.65529 0.1039 0.0
O132 O 0.63606 0.65521 0.06865 0.0
O133 O 0.56871 0.69595 0.07437 0.0
O134 O 0.65913 0.73482 0.08458 0.0
O135 O 0.5914 0.74241 0.09593 0.0
C136 C 0.41851 0.57555 0.09571 0.0
C137 C 0.38748 0.59968 0.08757 0.0
H138 H 0.33989 0.65453 0.07086 0.0
H139 H 0.3747 0.73099 0.06169 0.0
H140 H 0.57369 0.57547 0.11349 0.0
H141 H 0.49033 0.53704 0.11005 0.0
H142 H 0.40573 0.54135 0.09978 0.0
H143 H 0.35135 0.5836 0.08547 0.0
Mn144 Mn 0.25923 0.36461 0.94943 0.0
Mn145 Mn 0.25717 0.46568 0.93213 0.0
C146 C 0.33343 0.40378 0.94462 0.0
C147 C 0.25315 0.33167 0.96799 0.0
C148 C 0.23865 0.35914 0.92392 0.0
O149 O 0.18598 0.38718 0.94946 0.0
O150 O 0.19423 0.46331 0.9411 0.0
C151 C 0.25764 0.54933 0.94888 0.0
N152 N 0.27846 0.52558 0.93967 0.0
C153 C 0.3397 0.59088 0.93733 0.0
C154 C 0.31858 0.61631 0.94673 0.0
C155 C 0.27756 0.59527 0.95257 0.0
C156 C 0.31826 0.54522 0.93406 0.0
H157 H 0.22622 0.53322 0.95339 0.0
C158 C 0.16929 0.43052 0.94675 0.0
O159 O 0.24432 0.30416 0.95898 0.0
O160 O 0.26418 0.37828 0.96622 0.0
N161 N 0.3172 0.47202 0.92318 0.0
C162 C 0.3364 0.44035 0.9151 0.0
C163 C 0.37961 0.45421 0.90897 0.0
C164 C 0.40226 0.50073 0.91111 0.0
C165 C 0.38173 0.53276 0.91944 0.0
C166 C 0.33889 0.51676 0.92535 0.0
H167 H 0.31901 0.40477 0.91332 0.0
O168 O 0.33386 0.35819 0.94848 0.0
O169 O 0.28993 0.42508 0.94392 0.0
O170 O 0.25224 0.33653 0.93307 0.0
O171 O 0.23513 0.40668 0.92315 0.0
C172 C 0.40252 0.57966 0.92223 0.0
C173 C 0.38176 0.60856 0.93122 0.0
H174 H 0.33392 0.65169 0.94961 0.0
H175 H 0.2613 0.61446 0.95989 0.0
H176 H 0.39529 0.42918 0.90258 0.0
H177 H 0.43563 0.51128 0.90638 0.0
H178 H 0.43515 0.59339 0.91766 0.0
H179 H 0.39893 0.64395 0.93349 0.0
Mn180 Mn 0.62193 0.763 0.19928 0.0
Mn181 Mn 0.52848 0.76438 0.17967 0.0
C182 C 0.58996 0.83813 0.19272 0.0
C183 C 0.64699 0.7628 0.21852 0.0
C184 C 0.63646 0.73824 0.17395 0.0
O185 O 0.59311 0.69231 0.20017 0.0
O186 O 0.52585 0.70128 0.18851 0.0
C187 C 0.43891 0.76637 0.19473 0.0
N188 N 0.46679 0.78725 0.18615 0.0
C189 C 0.40504 0.85148 0.18301 0.0
C190 C 0.37554 0.83055 0.19178 0.0
C191 C 0.39267 0.78794 0.19769 0.0
C192 C 0.45076 0.82835 0.18043 0.0
H193 H 0.45188 0.73353 0.19927 0.0
C194 C 0.55209 0.67642 0.19578 0.0
O195 O 0.67691 0.74676 0.21048 0.0
O196 O 0.60239 0.7764 0.21544 0.0
N197 N 0.52711 0.82473 0.17078 0.0
C198 C 0.56216 0.843 0.16334 0.0
C199 C 0.55226 0.88731 0.15724 0.0
C200 C 0.50627 0.91206 0.15875 0.0
C201 C 0.47074 0.89242 0.16641 0.0
C202 C 0.48283 0.84835 0.17232 0.0
H203 H 0.59746 0.82404 0.1621 0.0
O204 O 0.63451 0.8364 0.1972 0.0
O205 O 0.56616 0.79601 0.19211 0.0
O206 O 0.65583 0.74794 0.18375 0.0
O207 O 0.58964 0.74097 0.17185 0.0
C208 C 0.4241 0.91526 0.16856 0.0
C209 C 0.39132 0.8949 0.17687 0.0
H210 H 0.33992 0.84716 0.19411 0.0
H211 H 0.37022 0.77171 0.2045 0.0
H212 H 0.57997 0.9023 0.15137 0.0
H213 H 0.4988 0.9463 0.15404 0.0
H214 H 0.4135 0.94911 0.16403 0.0
H215 H 0.35605 0.91348 0.17863 0.0
Mn216 Mn 0.23393 0.11888 0.4492 0.0
Mn217 Mn 0.22579 0.02225 0.43051 0.0
C218 C 0.1572 0.08256 0.44537 0.0
C219 C 0.24564 0.14902 0.46789 0.0
C220 C 0.24373 0.12993 0.42326 0.0
O221 O 0.30592 0.09317 0.44807 0.0
O222 O 0.29298 0.02321 0.43754 0.0
C223 C 0.23563 0.93462 0.44597 0.0
N224 N 0.20922 0.96058 0.43789 0.0
C225 C 0.14799 0.89481 0.4364 0.0
C226 C 0.17452 0.86734 0.44471 0.0
C227 C 0.21839 0.88745 0.44955 0.0
C228 C 0.16684 0.9417 0.43322 0.0
H229 H 0.26966 0.94974 0.44962 0.0
C230 C 0.32072 0.05164 0.44372 0.0
O231 O 0.25352 0.17721 0.45895 0.0
O232 O 0.23275 0.10297 0.46596 0.0
N233 N 0.16142 0.0173 0.42333 0.0
C234 C 0.13787 0.05052 0.41625 0.0
C235 C 0.09197 0.03734 0.41116 0.0
C236 C 0.07118 0.98993 0.41328 0.0
C237 C 0.09613 0.95641 0.4206 0.0
C238 C 0.14144 0.97182 0.42553 0.0
H239 H 0.15397 0.08675 0.41448 0.0
O240 O 0.1595 0.12778 0.44944 0.0
O241 O 0.19963 0.06023 0.44363 0.0
O242 O 0.23766 0.15046 0.43307 0.0
O243 O 0.24257 0.0828 0.42165 0.0
C244 C 0.07758 0.90848 0.42329 0.0
C245 C 0.1033 0.87782 0.43125 0.0
H246 H 0.16138 0.83092 0.44748 0.0
H247 H 0.23902 0.8665 0.45598 0.0
H248 H 0.07286 0.0635 0.40556 0.0
H249 H 0.03596 0.97974 0.40929 0.0
H250 H 0.04294 0.89527 0.41949 0.0
H251 H 0.08799 0.84153 0.43346 0.0
Mn252 Mn 0.87339 0.73852 0.70067 0.0
Mn253 Mn 0.96889 0.732 0.68169 0.0
C254 C 0.90773 0.66197 0.69584 0.0
C255 C 0.84642 0.74593 0.71975 0.0
C256 C 0.86103 0.75411 0.67495 0.0
O257 O 0.90011 0.81025 0.70006 0.0
O258 O 0.97028 0.79744 0.68952 0.0
C259 C 0.05665 0.73452 0.69731 0.0
N260 N 0.03012 0.71153 0.6888 0.0
C261 C 0.09357 0.64826 0.68658 0.0
C262 C 0.12187 0.67156 0.69524 0.0
C263 C 0.10314 0.71467 0.70068 0.0
C264 C 0.04741 0.66959 0.68362 0.0
H265 H 0.04236 0.76764 0.7015 0.0
C266 C 0.94208 0.82473 0.69587 0.0
O267 O 0.81687 0.7571 0.71122 0.0
O268 O 0.89184 0.73304 0.71716 0.0
N269 N 0.97157 0.66929 0.67372 0.0
C270 C 0.93753 0.64873 0.66636 0.0
C271 C 0.94899 0.60357 0.66074 0.0
C272 C -0.00446 0.58043 0.66263 0.0
C273 C 0.02999 0.60237 0.67023 0.0
C274 C 0.01631 0.64712 0.67566 0.0
H275 H 0.90193 0.6666 0.66477 0.0
O276 O 0.86297 0.66422 0.70018 0.0
O277 O 0.93055 0.70424 0.69446 0.0
O278 O 0.84068 0.74608 0.68473 0.0
O279 O 0.90821 0.75266 0.67323 0.0
C280 C 0.07718 0.58136 0.67271 0.0
C281 C 0.10893 0.60424 0.68089 0.0
H282 H 0.15774 0.65636 0.69786 0.0
H283 H 0.12457 0.73263 0.70744 0.0
H284 H 0.92213 0.58682 0.65491 0.0
H285 H 0.00438 0.54575 0.65824 0.0
H286 H 0.08898 0.547 0.66855 0.0
H287 H 0.14464 0.58708 0.68292 0.0
Mn288 Mn 0.75359 0.62215 0.81885 0.0
Mn289 Mn 0.7591 0.52895 0.83849 0.0
C290 C 0.82979 0.58752 0.82386 0.0
C291 C 0.74641 0.64771 0.79966 0.0
C292 C 0.73897 0.63769 0.84456 0.0
O293 O 0.6818 0.59592 0.81944 0.0
O294 O 0.69304 0.52833 0.83086 0.0
C295 C 0.75243 0.43891 0.82368 0.0
N296 N 0.77738 0.46633 0.83175 0.0
C297 C 0.83986 0.40207 0.83397 0.0
C298 C 0.81479 0.37308 0.8257 0.0
C299 C 0.771 0.39169 0.82051 0.0
C300 C 0.81961 0.44885 0.83678 0.0
H301 H 0.71859 0.45295 0.81972 0.0
C302 C 0.66639 0.55528 0.82409 0.0
O303 O 0.73546 0.67789 0.80809 0.0
O304 O 0.75918 0.60246 0.80243 0.0
N305 N 0.82237 0.52564 0.84623 0.0
C306 C 0.84446 0.56013 0.85323 0.0
C307 C 0.89016 0.54858 0.85861 0.0
C308 C 0.91234 0.50151 0.85685 0.0
C309 C 0.88885 0.46661 0.84962 0.0
C310 C 0.84355 0.48037 0.84442 0.0
H311 H 0.82743 0.5962 0.85469 0.0
O312 O 0.82788 0.63199 0.81937 0.0
O313 O 0.78727 0.56512 0.82536 0.0
O314 O 0.74604 0.65664 0.8346 0.0
O315 O 0.74062 0.59088 0.84663 0.0
C316 C 0.90892 0.41896 0.84725 0.0
C317 C 0.88456 0.38677 0.8394 0.0
H318 H 0.82903 0.33668 0.82322 0.0
H319 H 0.75153 0.36959 0.8141 0.0
H320 H 0.90813 0.57579 0.86415 0.0
H321 H 0.94753 0.49267 0.86103 0.0
H322 H 0.94366 0.40708 0.85125 0.0
H323 H 0.90099 0.35066 0.83745 0.0
Mn324 Mn 0.36708 0.25358 0.06769 0.0
Mn325 Mn 0.46296 0.25941 0.0866 0.0
C326 C 0.40277 0.32987 0.07218 0.0
C327 C 0.33849 0.24371 0.04882 0.0
C328 C 0.35492 0.23967 0.09345 0.0
O329 O 0.39279 0.18152 0.0685 0.0
O330 O 0.46338 0.19376 0.07889 0.0
C331 C 0.55138 0.25425 0.07123 0.0
N332 N 0.52475 0.2784 0.07956 0.0
C333 C 0.58959 0.34011 0.0819 0.0
C334 C 0.61783 0.31583 0.07337 0.0
C335 C 0.5985 0.27288 0.06797 0.0
C336 C 0.54279 0.31999 0.08474 0.0
H337 H 0.5368 0.22099 0.06714 0.0
C338 C 0.43482 0.16664 0.07259 0.0
O339 O 0.3095 0.23492 0.05758 0.0
O340 O 0.38435 0.25659 0.05102 0.0
N341 N 0.46655 0.32231 0.09446 0.0
C342 C 0.43264 0.34385 0.10171 0.0
C343 C 0.44491 0.38877 0.10732 0.0
C344 C 0.49215 0.41063 0.10556 0.0
C345 C 0.52642 0.38772 0.09807 0.0
C346 C 0.51189 0.34332 0.09261 0.0
H347 H 0.39655 0.32692 0.10321 0.0
O348 O 0.35791 0.32796 0.06787 0.0
O349 O 0.42519 0.28737 0.07368 0.0
O350 O 0.33465 0.24805 0.08369 0.0
O351 O 0.40212 0.24 0.09511 0.0
C352 C 0.57426 0.40744 0.09572 0.0
C353 C 0.60573 0.38384 0.08759 0.0
H354 H 0.65421 0.33005 0.07084 0.0
H355 H 0.62 0.25403 0.06135 0.0
H356 H 0.41818 0.40628 0.11307 0.0
H357 H 0.50163 0.44507 0.10997 0.0
H358 H 0.58678 0.44142 0.09993 0.0
H359 H 0.64194 0.40008 0.08564 0.0
Mn360 Mn 0.72589 0.86943 0.32059 0.0
Mn361 Mn 0.7242 0.9624 0.34029 0.0
C362 C 0.65064 0.90141 0.32706 0.0
C363 C 0.72638 0.84501 0.3013 0.0
C364 C 0.74975 0.85437 0.34596 0.0
O365 O 0.7966 0.89816 0.31978 0.0
O366 O 0.78784 0.96482 0.3316 0.0
C367 C 0.72356 0.05215 0.32531 0.0
N368 N 0.70189 0.02418 0.33376 0.0
C369 C 0.63695 0.08554 0.33653 0.0
C370 C 0.65864 0.11507 0.32787 0.0
C371 C 0.70205 0.09822 0.32222 0.0
C372 C 0.66014 0.04004 0.33927 0.0
H373 H 0.757 0.0394 0.32096 0.0
C374 C 0.81269 0.93885 0.32428 0.0
O375 O 0.74219 0.8148 0.3093 0.0
O376 O 0.71288 0.88949 0.30446 0.0
N377 N 0.66329 0.96393 0.349 0.0
C378 C 0.64451 0.92894 0.35638 0.0
C379 C 0.59952 0.93866 0.36225 0.0
C380 C 0.57457 0.98438 0.36056 0.0
C381 C 0.59473 0.01986 0.35295 0.0
C382 C 0.63954 0.008 0.3473 0.0
H383 H 0.66354 0.8938 0.35774 0.0
O384 O 0.6524 0.85694 0.32256 0.0
O385 O 0.69286 0.92506 0.32776 0.0
O386 O 0.74057 0.83524 0.33611 0.0
O387 O 0.74691 0.90108 0.34812 0.0
C388 C 0.57166 0.06618 0.35061 0.0
C389 C 0.59268 0.09896 0.34239 0.0
H390 H 0.64204 0.15053 0.32543 0.0
H391 H 0.71891 0.12073 0.3155 0.0
H392 H 0.58414 0.911 0.36807 0.0
H393 H 0.53978 0.99168 0.36506 0.0
H394 H 0.53719 0.07655 0.35493 0.0
H395 H 0.574 0.13401 0.34049 0.0
Mn396 Mn 0.1212 0.21972 0.56624 0.0
Mn397 Mn 0.02083 0.20539 0.58378 0.0
C398 C 0.08306 0.1426 0.56817 0.0
C399 C 0.15582 0.2355 0.54813 0.0
C400 C 0.12742 0.21075 0.59261 0.0
O401 O 0.09774 0.29153 0.56825 0.0
O402 O 0.03283 0.27654 0.58014 0.0
C403 C 0.94272 0.24066 0.56752 0.0
N404 N 0.96045 0.20528 0.57493 0.0
C405 C 0.88437 0.15753 0.57339 0.0
C406 C 0.86513 0.19358 0.56579 0.0
C407 C 0.89462 0.23513 0.56277 0.0
C408 C 0.93278 0.16473 0.57772 0.0
H409 H 0.96498 0.27297 0.56529 0.0
C410 C 0.06036 0.30612 0.57423 0.0
O411 O 0.18228 0.2404 0.55746 0.0
O412 O 0.10906 0.22361 0.54937 0.0
N413 N 0.00292 0.13859 0.588 0.0
C414 C 0.02876 0.10505 0.59454 0.0
C415 C 0.00542 0.0604 0.59797 0.0
C416 C 0.95543 0.05112 0.59482 0.0
C417 C 0.92961 0.08616 0.58804 0.0
C418 C 0.95506 0.12967 0.58477 0.0
H419 H 0.06701 0.11218 0.597 0.0
O420 O 0.12941 0.14585 0.5649 0.0
O421 O 0.06006 0.1844 0.57034 0.0
O422 O 0.14863 0.21888 0.58291 0.0
O423 O 0.08036 0.20413 0.59378 0.0
C424 C 0.87986 0.07936 0.58426 0.0
C425 C 0.85748 0.11468 0.57682 0.0
H426 H 0.82791 0.18962 0.56218 0.0
H427 H 0.88012 0.26305 0.55689 0.0
H428 H 0.02587 0.03346 0.6031 0.0
H429 H 0.93742 0.01674 0.59751 0.0
H430 H 0.85879 0.04656 0.58683 0.0
H431 H 0.81967 0.10839 0.57374 0.0
Mn432 Mn 0.75748 0.85663 0.45181 0.0
Mn433 Mn 0.76265 0.95643 0.43404 0.0
C434 C 0.83372 0.89375 0.44777 0.0
C435 C 0.74735 0.82363 0.47028 0.0
C436 C 0.74364 0.84995 0.42597 0.0
O437 O 0.685 0.88181 0.45119 0.0
O438 O 0.69716 0.95498 0.44183 0.0
C439 C 0.75793 0.04105 0.4505 0.0
N440 N 0.78153 0.01671 0.44173 0.0
C441 C 0.84184 0.08305 0.43974 0.0
C442 C 0.81799 0.10905 0.4487 0.0
C443 C 0.77607 0.08777 0.45416 0.0
C444 C 0.82233 0.03647 0.43654 0.0
H445 H 0.72553 0.02491 0.45465 0.0
C446 C 0.67004 0.92475 0.44768 0.0
O447 O 0.73902 0.79673 0.46116 0.0
O448 O 0.75999 0.86999 0.46868 0.0
N449 N 0.82526 0.96213 0.42611 0.0
C450 C 0.84683 0.92999 0.41845 0.0
C451 C 0.89099 0.94417 0.41274 0.0
C452 C 0.91197 0.99155 0.41481 0.0
C453 C 0.88904 0.02397 0.42271 0.0
C454 C 0.84554 0.00751 0.42827 0.0
H455 H 0.83045 0.89389 0.41669 0.0
O456 O 0.83206 0.84812 0.4516 0.0
O457 O 0.79103 0.91618 0.44651 0.0
O458 O 0.75253 0.82775 0.43546 0.0
O459 O 0.74324 0.89741 0.42485 0.0
C460 C 0.90784 0.07184 0.42537 0.0
C461 C 0.88455 0.1012 0.43395 0.0
H462 H 0.83178 0.14515 0.45153 0.0
H463 H 0.75763 0.10747 0.46112 0.0
H464 H 0.90854 0.91887 0.40667 0.0
H465 H 0.94576 0.00257 0.41031 0.0
H466 H 0.941 0.08592 0.42106 0.0
H467 H 0.90023 0.13736 0.43614 0.0
Mn468 Mn 0.13267 0.26183 0.69844 0.0
Mn469 Mn 0.0351 0.2721 0.6799 0.0
C470 C 0.09558 0.33845 0.69507 0.0
C471 C 0.16323 0.24966 0.71709 0.0
C472 C 0.14307 0.26198 0.67213 0.0
O473 O 0.10857 0.19005 0.69719 0.0
O474 O 0.0439 0.20196 0.685 0.0
C475 C 0.95276 0.24524 0.69588 0.0
N476 N 0.97337 0.27762 0.68815 0.0
C477 C 0.89995 0.32987 0.68851 0.0
C478 C 0.87781 0.29696 0.69643 0.0
C479 C 0.90449 0.25464 0.70019 0.0
C480 C 0.9483 0.31877 0.68459 0.0
H481 H 0.9729 0.2124 0.69871 0.0
C482 C 0.07088 0.17413 0.6915 0.0
O483 O 0.19164 0.24256 0.70813 0.0
O484 O 0.11708 0.26222 0.71518 0.0
N485 N 0.02084 0.33814 0.67439 0.0
C486 C 0.04925 0.36851 0.6676 0.0
C487 C 0.02909 0.41388 0.66359 0.0
C488 C 0.97959 0.42699 0.6664 0.0
C489 C 0.95098 0.39499 0.67335 0.0
C490 C 0.97334 0.35069 0.67724 0.0
H491 H 0.08705 0.35832 0.66535 0.0
O492 O 0.14129 0.33592 0.69884 0.0
O493 O 0.07285 0.29627 0.69326 0.0
O494 O 0.1631 0.25806 0.68209 0.0
O495 O 0.09617 0.26759 0.67047 0.0
C496 C 0.90138 0.40562 0.67672 0.0
C497 C 0.87607 0.37339 0.6844 0.0
H498 H 0.8405 0.30398 0.69973 0.0
H499 H 0.88773 0.22914 0.70633 0.0
H500 H 0.05154 0.43853 0.65828 0.0
H501 H 0.96407 0.4619 0.66326 0.0
H502 H 0.88265 0.43902 0.67364 0.0
H503 H 0.83841 0.38265 0.68715 0.0
Mn504 Mn 0.73337 0.62582 0.94982 0.0
Mn505 Mn 0.73229 0.52749 0.93171 0.0
C506 C 0.658 0.58936 0.94477 0.0
C507 C 0.74064 0.65607 0.96859 0.0
C508 C 0.7538 0.63461 0.92436 0.0
O509 O 0.80598 0.60102 0.94961 0.0
O510 O 0.79529 0.5265 0.94066 0.0
C511 C 0.7292 0.44131 0.94775 0.0
N512 N 0.70924 0.46707 0.93873 0.0
C513 C 0.64641 0.40379 0.93574 0.0
C514 C 0.6667 0.37625 0.94492 0.0
C515 C 0.70806 0.39529 0.951 0.0
C516 C 0.66901 0.44945 0.93292 0.0
H517 H 0.76081 0.45593 0.95246 0.0
C518 C 0.82132 0.55758 0.94656 0.0
O519 O 0.75017 0.68445 0.95977 0.0
O520 O 0.72827 0.61002 0.96651 0.0
N521 N 0.67205 0.52446 0.92274 0.0
C522 C 0.65371 0.55804 0.91496 0.0
C523 C 0.61022 0.54639 0.9087 0.0
C524 C 0.58642 0.50009 0.91037 0.0
C525 C 0.60606 0.46608 0.9184 0.0
C526 C 0.64919 0.47996 0.92448 0.0
H527 H 0.672 0.59344 0.91353 0.0
O528 O 0.65885 0.63438 0.94898 0.0
O529 O 0.70092 0.5671 0.94386 0.0
O530 O 0.74085 0.65614 0.93369 0.0
O531 O 0.7561 0.58714 0.92321 0.0
C532 C 0.58417 0.41921 0.9207 0.0
C533 C 0.60409 0.38821 0.92943 0.0
H534 H 0.65044 0.34079 0.94746 0.0
H535 H 0.72364 0.3745 0.95817 0.0
H536 H 0.59524 0.57293 0.90255 0.0
H537 H 0.55288 0.49121 0.90552 0.0
H538 H 0.55126 0.40712 0.91599 0.0
H539 H 0.58605 0.35286 0.93134 0.0
Mn540 Mn 0.36669 0.23726 0.19903 0.0
Mn541 Mn 0.46387 0.23727 0.18042 0.0
C542 C 0.40425 0.16271 0.19385 0.0
C543 C 0.33687 0.24327 0.21788 0.0
C544 C 0.35578 0.25557 0.17338 0.0
O545 O 0.39051 0.31002 0.19898 0.0
O546 O 0.46221 0.30142 0.18882 0.0
C547 C 0.5508 0.24109 0.19627 0.0
N548 N 0.5255 0.21817 0.18754 0.0
C549 C 0.59142 0.15764 0.18506 0.0
C550 C 0.61833 0.18075 0.19398 0.0
C551 C 0.5978 0.22249 0.19964 0.0
C552 C 0.54474 0.17778 0.18209 0.0
H553 H 0.53522 0.27332 0.2006 0.0
C554 C 0.43243 0.32668 0.19523 0.0
O555 O 0.30811 0.25281 0.20911 0.0
O556 O 0.38311 0.23171 0.2157 0.0
N557 N 0.46954 0.17607 0.17193 0.0
C558 C 0.43673 0.1553 0.1643 0.0
C559 C 0.45019 0.11143 0.1584 0.0
C560 C 0.49749 0.08979 0.16026 0.0
C561 C 0.53071 0.11202 0.1681 0.0
C562 C 0.51503 0.15541 0.17383 0.0
H563 H 0.40053 0.17195 0.16275 0.0
O564 O 0.35924 0.16284 0.19809 0.0
O565 O 0.42589 0.2059 0.19289 0.0
O566 O 0.33517 0.24485 0.18297 0.0
O567 O 0.40309 0.25695 0.17188 0.0
C568 C 0.5785 0.09242 0.17059 0.0
C569 C 0.60871 0.11498 0.17912 0.0
H570 H 0.65457 0.16649 0.19662 0.0
H571 H 0.61824 0.24039 0.20657 0.0
H572 H 0.42427 0.09444 0.15238 0.0
H573 H 0.50774 0.05592 0.1557 0.0
H574 H 0.59196 0.05936 0.16615 0.0
H575 H 0.64486 0.09878 0.18115 0.0
H576 H 0.88292 0.89496 0.31016 0.0
H577 H 0.85409 0.02831 0.33029 0.0
H578 H 0.96614 0.92708 0.30541 0.0
H579 H 0.93682 0.05937 0.32576 0.0
H580 H 0.0826 0.11706 0.31369 0.0
H581 H -0.00446 0.09001 0.31116 0.0
H582 H 0.04009 0.93687 0.31746 0.0
H583 H 0.12603 0.96336 0.31977 0.0
C584 C 0.8941 0.9311 0.31351 0.0
C585 C 0.86217 0.95852 0.32079 0.0
C586 C 0.94164 0.94955 0.31077 0.0
C587 C 0.95799 -0.00427 0.31523 0.0
C588 C 0.92514 0.02406 0.32204 0.0
C589 C 0.87786 0.00572 0.32479 0.0
C590 C 0.07377 0.07758 0.31427 0.0
C591 C 0.11089 0.04252 0.31717 0.0
C592 C 0.02405 0.0621 0.31286 0.0
C593 C 0.01099 0.01137 0.31422 0.0
C594 C 0.04887 0.97611 0.31625 0.0
C595 C 0.09817 0.9915 0.31772 0.0
H596 H 0.02751 0.62616 0.57675 0.0
H597 H 0.87838 0.57408 0.56834 0.0
H598 H 0.05936 0.54159 0.5751 0.0
H599 H 0.91096 0.48864 0.56664 0.0
H600 H 0.97655 0.34647 0.58383 0.0
H601 H 0.94511 0.43091 0.58195 0.0
H602 H 0.07331 0.47047 0.56115 0.0
H603 H 0.10554 0.38495 0.56299 0.0
C604 C 0.00147 0.59672 0.57445 0.0
C605 C 0.95012 0.60673 0.57284 0.0
C606 C 0.02002 0.54832 0.57339 0.0
C607 C 0.98763 0.50874 0.57078 0.0
C608 C 0.93659 0.51871 0.56875 0.0
C609 C 0.91799 0.56746 0.56971 0.0
C610 C -0.00155 0.37292 0.57886 0.0
C611 C 0.0439 0.35886 0.5736 0.0
C612 C 0.97988 0.42122 0.57767 0.0
C613 C 0.0064 0.45686 0.57128 0.0
C614 C 0.05213 0.4434 0.5661 0.0
C615 C 0.07064 0.39464 0.5672 0.0
H616 H 0.59252 0.6006 0.81121 0.0
H617 H 0.62625 0.46577 0.83042 0.0
H618 H 0.50858 0.56816 0.80722 0.0
H619 H 0.54306 0.43436 0.82659 0.0
H620 H 0.39773 0.3747 0.81427 0.0
H621 H 0.48397 0.40431 0.81185 0.0
H622 H 0.43626 0.55491 0.8199 0.0
H623 H 0.35105 0.526 0.82211 0.0
C624 C 0.58223 0.56415 0.81454 0.0
C625 C 0.61587 0.53625 0.82129 0.0
C626 C 0.53431 0.54553 0.81222 0.0
C627 C 0.51942 0.49866 0.81657 0.0
C628 C 0.55367 0.47017 0.82295 0.0
C629 C 0.60124 0.4887 0.82529 0.0
C630 C 0.40567 0.4142 0.81531 0.0
C631 C 0.36784 0.44776 0.81861 0.0
C632 C 0.45491 0.43113 0.81394 0.0
C633 C 0.46678 0.48187 0.81576 0.0
C634 C 0.42828 0.51574 0.81832 0.0
C635 C 0.37944 0.4989 0.81974 0.0
H636 H 0.3832 0.08798 0.06289 0.0
H637 H 0.52895 0.13067 0.07597 0.0
H638 H 0.41413 0.00264 0.05991 0.0
H639 H 0.55896 0.04627 0.0732 0.0
H640 H 0.61075 0.89419 0.06306 0.0
H641 H 0.57974 0.97915 0.05962 0.0
H642 H 0.43625 0.93793 0.07402 0.0
H643 H 0.4663 0.85387 0.07726 0.0
C644 C 0.42176 0.07938 0.06502 0.0
C645 C 0.45321 0.11586 0.06987 0.0
C646 C 0.43947 0.03065 0.06332 0.0
C647 C 0.48893 0.01785 0.06636 0.0
C648 C 0.52092 0.05504 0.07063 0.0
C649 C 0.50331 0.10338 0.07237 0.0
C650 C 0.57247 0.90324 0.06537 0.0
C651 C 0.54141 0.86751 0.07063 0.0
C652 C 0.55471 0.95175 0.06338 0.0
C653 C 0.50558 0.96509 0.06656 0.0
C654 C 0.47399 0.92868 0.07132 0.0
C655 C 0.49166 0.88055 0.07334 0.0
H656 H 0.14132 0.51605 0.95736 0.0
H657 H 0.08327 0.3778 0.9436 0.0
H658 H 0.05653 0.54688 0.96031 0.0
H659 H -0.00195 0.40934 0.94588 0.0
H660 H 0.84755 0.46603 0.95445 0.0
H661 H 0.93143 0.43364 0.95759 0.0
H662 H 0.99284 0.57836 0.94856 0.0
H663 H 0.90818 0.61127 0.94613 0.0
C664 C 0.11016 0.49217 0.95505 0.0
C665 C 0.11844 0.4448 0.95019 0.0
C666 C 0.06159 0.50994 0.95665 0.0
C667 C 0.0203 0.4811 0.95316 0.0
C668 C 0.0288 0.43248 0.94882 0.0
C669 C 0.07754 0.4143 0.94746 0.0
C670 C 0.87902 0.49108 0.95335 0.0
C671 C 0.87165 0.54098 0.94996 0.0
C672 C 0.92716 0.47243 0.95506 0.0
C673 C 0.96911 0.50298 0.95313 0.0
C674 C 0.96149 0.55376 0.95027 0.0
C675 C 0.91307 0.57272 0.94881 0.0
H676 H 0.3772 0.40298 0.20492 0.0
H677 H 0.52624 0.36496 0.19312 0.0
H678 H 0.40545 0.48867 0.20868 0.0
H679 H 0.55367 0.44963 0.19666 0.0
H680 H 0.60128 0.60076 0.20722 0.0
H681 H 0.57044 0.51585 0.21067 0.0
H682 H 0.42853 0.55551 0.19521 0.0
H683 H 0.45847 0.63975 0.19199 0.0
C684 C 0.41593 0.41266 0.20325 0.0
C685 C 0.44913 0.37743 0.19851 0.0
C686 C 0.4321 0.4616 0.20541 0.0
C687 C 0.48176 0.47583 0.20295 0.0
C688 C 0.51542 0.43978 0.19881 0.0
C689 C 0.49932 0.39127 0.1966 0.0
C690 C 0.56326 0.59148 0.20474 0.0
C691 C 0.53279 0.62666 0.1991 0.0
C692 C 0.54561 0.54296 0.20672 0.0
C693 C 0.49719 0.529 0.20313 0.0
C694 C 0.46578 0.56516 0.19818 0.0
C695 C 0.48336 0.61337 0.19618 0.0
H696 H 0.39345 0.09501 0.45729 0.0
H697 H 0.36286 0.96466 0.43626 0.0
H698 H 0.47689 0.06171 0.46152 0.0
H699 H 0.44549 0.93242 0.44034 0.0
H700 H 0.58753 0.86846 0.45353 0.0
H701 H 0.50111 0.89858 0.45536 0.0
H702 H 0.55176 0.05016 0.44962 0.0
H703 H 0.63704 0.0207 0.44798 0.0
C704 C 0.40439 0.05946 0.45357 0.0
C705 C 0.37162 0.03294 0.44632 0.0
C706 C 0.45199 0.04029 0.45604 0.0
C707 C 0.46748 -0.00574 0.45133 0.0
C708 C 0.43431 0.96741 0.4443 0.0
C709 C 0.38707 0.98647 0.44182 0.0
C710 C 0.58015 0.90824 0.45289 0.0
C711 C 0.61888 0.94201 0.45038 0.0
C712 C 0.53082 0.92547 0.45391 0.0
C713 C 0.51975 0.97669 0.45253 0.0
C714 C 0.55905 0.0106 0.45082 0.0
C715 C 0.60797 0.99348 0.44974 0.0
H716 H 0.11276 0.10124 0.7052 0.0
H717 H 0.98863 0.1297 0.68206 0.0
H718 H 0.07951 0.01755 0.70897 0.0
H719 H 0.95614 0.04669 0.68581 0.0
H720 H 0.887 0.90885 0.70082 0.0
H721 H 0.91845 -0.00498 0.70171 0.0
H722 H 0.06959 0.94084 0.69694 0.0
H723 H 0.03867 0.85573 0.69609 0.0
C724 C 0.07869 0.08969 0.70088 0.0
C725 C 0.05366 0.12212 0.69326 0.0
C726 C 0.05954 0.04198 0.70309 0.0
C727 C 0.0149 0.02607 0.6978 0.0
C728 C 0.98998 0.05842 0.69021 0.0
C729 C 0.00916 0.10578 0.68794 0.0
C730 C 0.92695 0.91546 0.70021 0.0
C731 C 0.96026 0.87575 0.69821 0.0
C732 C 0.94491 0.96459 0.70067 0.0
C733 C -0.0036 0.97443 0.6993 0.0
C734 C 0.02983 0.93437 0.6981 0.0
C735 C 0.01194 0.8856 0.69751 0.0
H736 H 0.63103 0.99167 0.31785 0.0
H737 H 0.56233 0.86922 0.3362 0.0
H738 H 0.55184 0.03753 0.31814 0.0
H739 H 0.48186 0.91372 0.3357 0.0
H740 H 0.34867 -0.00455 0.31415 0.0
H741 H 0.42691 0.94854 0.31647 0.0
H742 H 0.48902 0.07123 0.33596 0.0
H743 H 0.40955 0.11679 0.33427 0.0
C744 C 0.59909 0.97518 0.32218 0.0
C745 C 0.60297 0.92831 0.32756 0.0
C746 C 0.5539 0.00113 0.32224 0.0
C747 C 0.51135 0.97947 0.32721 0.0
C748 C 0.51458 0.93151 0.33211 0.0
C749 C 0.5603 0.90609 0.33234 0.0
C750 C 0.37861 0.01149 0.31926 0.0
C751 C 0.37279 0.05841 0.32451 0.0
C752 C 0.42321 0.98493 0.32051 0.0
C753 C 0.46323 0.00601 0.32662 0.0
C754 C 0.45816 0.05393 0.33145 0.0
C755 C 0.41306 0.07999 0.33043 0.0
H756 H 0.98503 0.83322 0.56103 0.0
H757 H 0.86605 0.91233 0.57838 0.0
H758 H 0.03201 0.91128 0.55897 0.0
H759 H 0.91169 0.99085 0.57571 0.0
H760 H 0.99047 0.12626 0.55935 0.0
H761 H 0.94379 0.04732 0.55929 0.0
H762 H 0.0733 0.97168 0.57318 0.0
H763 H 0.1184 0.0511 0.57407 0.0
C764 C 0.96942 0.86739 0.56455 0.0
C765 C 0.92338 0.86691 0.57039 0.0
C766 C -0.00408 0.91193 0.56325 0.0
C767 C 0.97568 0.95691 0.56737 0.0
C768 C 0.92824 0.95664 0.57261 0.0
C769 C 0.90224 0.9119 0.57415 0.0
C770 C 0.00825 0.09279 0.56267 0.0
C771 C 0.05663 0.09478 0.56736 0.0
C772 C 0.9819 0.04774 0.5625 0.0
C773 C 0.00457 0.00378 0.56657 0.0
C774 C 0.05458 0.00523 0.57032 0.0
C775 C 0.0804 0.05049 0.57078 0.0
H776 H 0.1336 0.48943 0.81251 0.0
H777 H 0.06576 0.36767 0.83126 0.0
H778 H 0.05519 0.53669 0.81356 0.0
H779 H 0.98619 0.41349 0.83161 0.0
H780 H 0.84608 0.49527 0.81523 0.0
H781 H 0.92446 0.44787 0.81529 0.0
H782 H -0.00019 0.57424 0.83059 0.0
H783 H 0.92039 0.61999 0.83148 0.0
C784 C 0.10198 0.4733 0.81703 0.0
C785 C 0.10592 0.4263 0.82233 0.0
C786 C 0.05723 0.50004 0.81753 0.0
C787 C 0.01521 0.47907 0.82292 0.0
C788 C 0.01844 0.43079 0.82766 0.0
C789 C 0.06366 0.40458 0.82742 0.0
C790 C 0.87913 0.51198 0.81904 0.0
C791 C 0.87706 0.55988 0.82398 0.0
C792 C 0.92388 0.48518 0.81895 0.0
C793 C 0.96772 0.50701 0.82327 0.0
C794 C 0.9662 0.55614 0.82757 0.0
C795 C 0.92103 0.58235 0.82801 0.0
H796 H 0.62291 0.56375 0.08111 0.0
H797 H 0.49962 0.63609 0.06378 0.0
H798 H 0.57719 0.48435 0.08052 0.0
H799 H 0.45226 0.55773 0.06404 0.0
H800 H 0.49437 0.34795 0.06332 0.0
H801 H 0.54152 0.42639 0.06391 0.0
H802 H 0.41588 0.49855 0.08039 0.0
H803 H 0.37027 0.41901 0.08061 0.0
C804 C 0.58561 0.56268 0.07742 0.0
C805 C 0.56349 0.60611 0.07301 0.0
C806 C 0.55943 0.51752 0.07715 0.0
C807 C 0.51069 0.51547 0.07259 0.0
C808 C 0.48927 0.55875 0.06788 0.0
C809 C 0.51604 0.60348 0.06785 0.0
C810 C 0.47771 0.3803 0.06744 0.0
C811 C 0.43008 0.37727 0.07249 0.0
C812 C 0.50437 0.42508 0.06766 0.0
C813 C 0.48269 0.46803 0.07248 0.0
C814 C 0.43379 0.46563 0.07692 0.0
C815 C 0.40768 0.4204 0.07699 0.0
H816 H 0.41867 0.3752 0.93373 0.0
H817 H 0.35438 0.49306 0.95438 0.0
H818 H 0.49836 0.42071 0.93326 0.0
H819 H 0.43295 0.5402 0.95319 0.0
H820 H 0.57223 0.62064 0.9344 0.0
H821 H 0.49193 0.57597 0.93383 0.0
H822 H 0.55726 0.45334 0.95276 0.0
H823 H 0.63632 0.49944 0.95405 0.0
C824 C 0.42145 0.41135 0.93791 0.0
C825 C 0.38019 0.43195 0.94365 0.0
C826 C 0.46674 0.43737 0.93759 0.0
C827 C 0.47102 0.48435 0.9429 0.0
C828 C 0.42992 0.50454 0.94879 0.0
C829 C 0.38511 0.47791 0.94938 0.0
C830 C 0.56924 0.58403 0.93836 0.0
C831 C 0.61063 0.56219 0.94381 0.0
C832 C 0.52362 0.55852 0.93799 0.0
C833 C 0.51918 0.51089 0.94298 0.0
C834 C 0.56037 0.48956 0.94862 0.0
C835 C 0.60548 0.5156 0.94925 0.0
H836 H 0.62279 0.9255 0.18324 0.0
H837 H 0.4995 0.85892 0.20174 0.0
H838 H 0.57823 0.00592 0.18315 0.0
H839 H 0.45356 0.93793 0.20086 0.0
H840 H 0.37355 0.07652 0.18369 0.0
H841 H 0.41951 -0.00285 0.18294 0.0
H842 H 0.5428 0.06435 0.20133 0.0
H843 H 0.49542 0.14262 0.20278 0.0
C844 C 0.58575 0.92798 0.18702 0.0
C845 C 0.56329 0.88586 0.192 0.0
C846 C 0.56028 0.97366 0.18692 0.0
C847 C 0.51201 0.97739 0.19167 0.0
C848 C 0.4902 0.93546 0.19687 0.0
C849 C 0.51619 0.89035 0.19727 0.0
C850 C 0.41058 0.07415 0.18749 0.0
C851 C 0.43216 0.11583 0.19285 0.0
C852 C 0.43688 0.02907 0.187 0.0
C853 C 0.4851 0.02538 0.19177 0.0
C854 C 0.50619 0.06687 0.19732 0.0
C855 C 0.47936 0.1115 0.19807 0.0
H856 H 0.85276 0.9841 0.45721 0.0
H857 H 0.92224 0.86234 0.43877 0.0
H858 H 0.93116 0.03147 0.45645 0.0
H859 H 0.00178 0.90801 0.43883 0.0
H860 H 0.14174 0.99078 0.45443 0.0
H861 H 0.06343 0.94325 0.45482 0.0
H862 H 0.98653 0.06898 0.43963 0.0
H863 H 0.06574 0.11472 0.43826 0.0
C864 C 0.88473 0.968 0.45282 0.0
C865 C 0.8812 0.92104 0.44748 0.0
C866 C 0.92952 -0.00525 0.4525 0.0
C867 C 0.97202 0.97376 0.44731 0.0
C868 C 0.96921 0.9254 0.4426 0.0
C869 C 0.92396 0.89926 0.44262 0.0
C870 C 0.10832 0.00731 0.45075 0.0
C871 C 0.10989 0.05495 0.44567 0.0
C872 C 0.0636 0.98047 0.45111 0.0
C873 C 0.01933 0.00206 0.44693 0.0
C874 C 0.0204 0.05105 0.44255 0.0
C875 C 0.06549 0.07725 0.44183 0.0
H876 H 0.12985 0.42956 0.68847 0.0
H877 H 0.00281 0.35468 0.70363 0.0
H878 H 0.0845 0.50902 0.68939 0.0
H879 H 0.95583 0.43341 0.70363 0.0
H880 H 0.87776 0.57341 0.6866 0.0
H881 H 0.92417 0.49419 0.68698 0.0
H882 H 0.04446 0.56535 0.70561 0.0
H883 H -0.00282 0.64379 0.7057 0.0
C884 C 0.09189 0.43016 0.69178 0.0
C885 C 0.06856 0.38602 0.69542 0.0
C886 C 0.06592 0.47539 0.69224 0.0
C887 C 0.01621 0.47682 0.69618 0.0
C888 C 0.99369 0.43289 0.70026 0.0
C889 C 0.02021 0.38798 0.70013 0.0
C890 C 0.91412 0.57183 0.69074 0.0
C891 C 0.9351 0.61464 0.69572 0.0
C892 C 0.94054 0.52677 0.69096 0.0
C893 C 0.98803 0.52413 0.69614 0.0
C894 C 0.00829 0.56679 0.70138 0.0
C895 C 0.98153 0.61153 0.70134 0.0
H896 H 0.29568 0.2009 0.35186 0.0
H897 H 0.15455 0.12772 0.35838 0.0
H898 H 0.30065 0.22535 0.37221 0.0
H899 H 0.15871 0.15291 0.37856 0.0
H900 H 0.17393 0.19389 0.41474 0.0
H901 H 0.16718 0.21974 0.3945 0.0
H902 H 0.31377 0.15765 0.38784 0.0
H903 H 0.3197 0.13105 0.40791 0.0
C904 C 0.26448 0.19247 0.35751 0.0
C905 C 0.2247 0.16253 0.35362 0.0
C906 C 0.26748 0.20612 0.36916 0.0
C907 C 0.23021 0.19082 0.37698 0.0
C908 C 0.18773 0.16576 0.37274 0.0
C909 C 0.18531 0.15123 0.36119 0.0
C910 C 0.2056 0.18813 0.40905 0.0
C911 C 0.24746 0.16084 0.41282 0.0
C912 C 0.20162 0.20257 0.39747 0.0
C913 C 0.23986 0.19057 0.38958 0.0
C914 C 0.28397 0.16804 0.39372 0.0
C915 C 0.28744 0.15273 0.4052 0.0
H916 H 0.78975 0.80609 0.60354 0.0
H917 H 0.85351 0.66089 0.61043 0.0
H918 H 0.76691 0.81428 0.62395 0.0
H919 H 0.8298 0.66822 0.63066 0.0
H920 H 0.86453 0.82889 0.6593 0.0
H921 H 0.8365 0.8235 0.63933 0.0
H922 H 0.76404 0.68266 0.64674 0.0
H923 H 0.79132 0.68893 0.66689 0.0
C924 C 0.79631 0.77483 0.6093 0.0
C925 C 0.82304 0.73274 0.60548 0.0
C926 C 0.78359 0.77964 0.62097 0.0
C927 C 0.79671 0.74197 0.6289 0.0
C928 C 0.81859 0.69759 0.62476 0.0
C929 C 0.83222 0.69332 0.61318 0.0
C930 C 0.84037 0.79817 0.65678 0.0
C931 C 0.82977 0.75949 0.66459 0.0
C932 C 0.82424 0.79503 0.64536 0.0
C933 C 0.7983 0.75248 0.64146 0.0
C934 C 0.78387 0.71589 0.64953 0.0
C935 C 0.79913 0.71964 0.66106 0.0
H936 H 0.1762 0.29106 0.85244 0.0
H937 H 0.32296 0.3541 0.85788 0.0
H938 H 0.17132 0.26926 0.87296 0.0
H939 H 0.31893 0.33121 0.87823 0.0
H940 H 0.16361 0.36795 0.90834 0.0
H941 H 0.16618 0.34141 0.88822 0.0
H942 H 0.30574 0.26436 0.89454 0.0
H943 H 0.3023 0.28996 0.91485 0.0
C944 C 0.20851 0.29759 0.8579 0.0
C945 C 0.25007 0.32395 0.85364 0.0
C946 C 0.20558 0.2855 0.86963 0.0
C947 C 0.24466 0.29872 0.87718 0.0
C948 C 0.2885 0.32001 0.87261 0.0
C949 C 0.29089 0.33311 0.86096 0.0
C950 C 0.19359 0.34343 0.90554 0.0
C951 C 0.23266 0.33086 0.9131 0.0
C952 C 0.19504 0.32807 0.89404 0.0
C953 C 0.23625 0.30091 0.88982 0.0
C954 C 0.27347 0.28507 0.8976 0.0
C955 C 0.27135 0.29947 0.90921 0.0
H956 H 0.70322 0.67415 0.10309 0.0
H957 H 0.63938 0.81983 0.10938 0.0
H958 H 0.72901 0.66897 0.12337 0.0
H959 H 0.66598 0.81549 0.12946 0.0
H960 H 0.70693 0.80112 0.1654 0.0
H961 H 0.73358 0.80377 0.14518 0.0
H962 H 0.66157 0.66137 0.13927 0.0
H963 H 0.63417 0.65956 0.15932 0.0
C964 C 0.69725 0.70616 0.10866 0.0
C965 C 0.66962 0.7475 0.10474 0.0
C966 C 0.71167 0.70307 0.12026 0.0
C967 C 0.69939 0.74174 0.128 0.0
C968 C 0.67661 0.78538 0.1237 0.0
C969 C 0.66128 0.78793 0.1122 0.0
C970 C 0.69927 0.76921 0.15991 0.0
C971 C 0.66874 0.73003 0.16386 0.0
C972 C 0.71413 0.77091 0.14833 0.0
C973 C 0.69937 0.73295 0.14064 0.0
C974 C 0.67402 0.6909 0.145 0.0
C975 C 0.65829 0.68977 0.15648 0.0
H976 H 0.8095 0.70089 0.85288 0.0
H977 H 0.66186 0.64247 0.8596 0.0
H978 H 0.81729 0.72518 0.87319 0.0
H979 H 0.66881 0.66776 0.87974 0.0
H980 H 0.69133 0.70658 0.91607 0.0
H981 H 0.6861 0.73365 0.89589 0.0
H982 H 0.82314 0.654 0.88845 0.0
H983 H 0.82746 0.62608 0.90844 0.0
C984 C 0.77758 0.69609 0.85855 0.0
C985 C 0.73497 0.67014 0.85474 0.0
C986 C 0.78218 0.70959 0.87017 0.0
C987 C 0.74379 0.69808 0.87805 0.0
C988 C 0.69878 0.67764 0.87386 0.0
C989 C 0.69469 0.66319 0.86233 0.0
C990 C 0.72146 0.69689 0.91021 0.0
C991 C 0.75978 0.66424 0.91374 0.0
C992 C 0.71832 0.71213 0.89867 0.0
C993 C 0.75413 0.69585 0.8906 0.0
C994 C 0.79533 0.66769 0.89449 0.0
C995 C 0.79778 0.65153 0.90592 0.0
H996 H 0.28795 0.18905 0.16502 0.0
H997 H 0.35853 0.33074 0.15779 0.0
H998 H 0.26192 0.18264 0.14478 0.0
H999 H 0.33171 0.32517 0.13774 0.0
H1000 H 0.35544 0.16395 0.10887 0.0
H1001 H 0.32924 0.17 0.12895 0.0
H1002 H 0.26333 0.31459 0.12209 0.0
H1003 H 0.28871 0.30769 0.10182 0.0
C1004 C 0.29543 0.22005 0.15924 0.0
C1005 C 0.32509 0.26044 0.1629 0.0
C1006 C 0.28086 0.21624 0.14767 0.0
C1007 C 0.29495 0.25329 0.13968 0.0
C1008 C 0.31974 0.29631 0.1437 0.0
C1009 C 0.33522 0.29954 0.15517 0.0
C1010 C 0.33297 0.19571 0.11153 0.0
C1011 C 0.32379 0.23521 0.10385 0.0
C1012 C 0.31789 0.19924 0.12303 0.0
C1013 C 0.2945 0.24295 0.12711 0.0
C1014 C 0.2812 0.28047 0.11916 0.0
C1015 C 0.29537 0.27639 0.10756 0.0
H1016 H 0.82857 0.85485 0.3606 0.0
H1017 H 0.68519 0.78554 0.35451 0.0
H1018 H 0.82591 0.82783 0.38067 0.0
H1019 H 0.68167 0.75941 0.37475 0.0
H1020 H 0.66787 0.85416 0.41056 0.0
H1021 H 0.67207 0.82859 0.39039 0.0
H1022 H 0.81594 0.75965 0.39661 0.0
H1023 H 0.81083 0.78429 0.41697 0.0
C1024 C 0.79774 0.83151 0.36344 0.0
C1025 C 0.75728 0.82191 0.35605 0.0
C1026 C 0.79611 0.81604 0.37494 0.0
C1027 C 0.75336 0.79185 0.3793 0.0
C1028 C 0.71507 0.77792 0.3716 0.0
C1029 C 0.71727 0.79247 0.36001 0.0
C1030 C 0.69914 0.83136 0.40772 0.0
C1031 C 0.73886 0.82087 0.41526 0.0
C1032 C 0.70158 0.81659 0.39619 0.0
C1033 C 0.74444 0.79222 0.39192 0.0
C1034 C 0.78241 0.77818 0.39969 0.0
C1035 C 0.77937 0.79198 0.41133 0.0
H1036 H 0.15906 0.3326 0.65581 0.0
H1037 H 0.19332 0.1797 0.66463 0.0
H1038 H 0.17969 0.31606 0.63577 0.0
H1039 H 0.21548 0.16289 0.6445 0.0
H1040 H 0.12143 0.14466 0.61023 0.0
H1041 H 0.15167 0.15591 0.62969 0.0
H1042 H 0.23001 0.28989 0.61916 0.0
H1043 H 0.19899 0.27817 0.5994 0.0
C1044 C 0.17316 0.29596 0.65352 0.0
C1045 C 0.17397 0.25724 0.66168 0.0
C1046 C 0.18543 0.28646 0.64202 0.0
C1047 C 0.19825 0.23781 0.63846 0.0
C1048 C 0.20495 0.20059 0.64694 0.0
C1049 C 0.19277 0.21025 0.65848 0.0
C1050 C 0.14639 0.17562 0.61194 0.0
C1051 C 0.15731 0.21085 0.60333 0.0
C1052 C 0.16427 0.1819 0.62313 0.0
C1053 C 0.193 0.22411 0.62606 0.0
C1054 C 0.20763 0.25716 0.6172 0.0
C1055 C 0.19016 0.25037 0.60588 0.0
H1056 H 0.23387 0.10336 0.27866 0.0
H1057 H 0.26876 0.25022 0.29197 0.0
H1058 H 0.24841 0.13345 0.259 0.0
H1059 H 0.28496 0.2798 0.27227 0.0
H1060 H 0.38895 0.25659 0.23783 0.0
H1061 H 0.35914 0.24254 0.25754 0.0
H1062 H 0.21171 0.20838 0.24448 0.0
H1063 H 0.241 0.22404 0.22475 0.0
C1064 C 0.24399 0.14222 0.27736 0.0
C1065 C 0.25022 0.17449 0.28681 0.0
C1066 C 0.2521 0.15943 0.26613 0.0
C1067 C 0.26776 0.20886 0.26418 0.0
C1068 C 0.27277 0.24156 0.27359 0.0
C1069 C 0.26335 0.22469 0.28482 0.0
C1070 C 0.34992 0.24714 0.23919 0.0
C1071 C 0.31727 0.24135 0.22978 0.0
C1072 C 0.33288 0.23931 0.25045 0.0
C1073 C 0.28322 0.2244 0.25247 0.0
C1074 C 0.25014 0.21998 0.2431 0.0
C1075 C 0.26686 0.22908 0.23185 0.0
H1076 H 0.76316 0.72608 0.47623 0.0
H1077 H 0.7326 0.8719 0.49068 0.0
H1078 H 0.77587 0.6925 0.4957 0.0
H1079 H 0.74375 0.83788 0.51011 0.0
H1080 H 0.7344 0.74728 0.54378 0.0
H1081 H 0.70485 0.76409 0.52412 0.0
H1082 H 0.8499 0.72289 0.51071 0.0
H1083 H 0.87998 0.70767 0.53034 0.0
C1084 C 0.75786 0.75059 0.48357 0.0
C1085 C 0.7471 0.80163 0.48197 0.0
C1086 C 0.76526 0.73139 0.49467 0.0
C1087 C 0.76061 0.76264 0.50435 0.0
C1088 C 0.74705 0.81297 0.50278 0.0
C1089 C 0.74091 0.83244 0.49168 0.0
C1090 C 0.75951 0.74057 0.5366 0.0
C1091 C 0.80949 0.72629 0.53855 0.0
C1092 C 0.74268 0.75042 0.52539 0.0
C1093 C 0.77518 0.74477 0.51596 0.0
C1094 C 0.82406 0.72713 0.51785 0.0
C1095 C 0.84125 0.71854 0.52906 0.0
H1096 H 0.2582 0.27124 0.7243 0.0
H1097 H 0.11207 0.22756 0.73668 0.0
H1098 H 0.2859 0.28468 0.74425 0.0
H1099 H 0.14025 0.23944 0.75657 0.0
H1100 H 0.22337 0.23608 0.79146 0.0
H1101 H 0.21243 0.2066 0.77157 0.0
H1102 H 0.24618 0.35468 0.75894 0.0
H1103 H 0.25558 0.38455 0.77876 0.0
C1104 C 0.23256 0.26307 0.73129 0.0
C1105 C 0.18298 0.24853 0.72898 0.0
C1106 C 0.24833 0.27095 0.74267 0.0
C1107 C 0.21516 0.26302 0.7519 0.0
C1108 C 0.16663 0.24538 0.7496 0.0
C1109 C 0.1505 0.23877 0.73824 0.0
C1110 C 0.22938 0.26204 0.78442 0.0
C1111 C 0.24009 0.31264 0.78663 0.0
C1112 C 0.223 0.2452 0.77307 0.0
C1113 C 0.22864 0.27839 0.76377 0.0
C1114 C 0.24213 0.32828 0.76597 0.0
C1115 C 0.24725 0.34538 0.7773 0.0
H1116 H 0.72115 0.75178 0.9755 0.0
H1117 H 0.75639 0.60438 0.98846 0.0
H1118 H 0.7067 0.78094 0.99531 0.0
H1119 H 0.7436 0.63403 1.00821 0.0
H1120 H 0.75217 0.72197 0.04264 0.0
H1121 H 0.78101 0.70816 0.02281 0.0
H1122 H 0.63316 0.74326 0.01011 0.0
H1123 H 0.60381 0.75545 0.02992 0.0
C1124 C 0.72708 0.72605 0.98259 0.0
C1125 C 0.73971 0.6758 0.98048 0.0
C1126 C 0.71867 0.74268 0.99388 0.0
C1127 C 0.72421 0.70968 1.00322 0.0
C1128 C 0.73955 0.66024 1.00114 0.0
C1129 C 0.74665 0.64328 0.98986 0.0
C1130 C 0.72615 0.72772 0.0356 0.0
C1131 C 0.67573 0.7396 0.03779 0.0
C1132 C 0.74261 0.71967 0.02429 0.0
C1133 C 0.70925 0.72479 0.015 0.0
C1134 C 0.65963 0.73953 0.01715 0.0
C1135 C 0.64286 0.7463 0.02846 0.0
H1136 H 0.3918 0.23042 0.02903 0.0
H1137 H 0.24233 0.25919 0.04167 0.0
H1138 H 0.36259 0.24314 0.00923 0.0
H1139 H 0.21357 0.27345 0.02185 0.0
H1140 H 0.23451 0.38034 0.98811 0.0
H1141 H 0.24793 0.34916 1.00771 0.0
H1142 H 0.29172 0.20544 0.99405 0.0
H1143 H 0.27665 0.23611 0.97438 0.0
C1144 C 0.35256 0.23863 0.02755 0.0
C1145 C 0.31933 0.24392 0.03687 0.0
C1146 C 0.33586 0.24569 0.01624 0.0
C1147 C 0.28591 0.25928 0.01407 0.0
C1148 C 0.25224 0.26287 0.02334 0.0
C1149 C 0.26866 0.25457 0.03464 0.0
C1150 C 0.24591 0.34176 0.98931 0.0
C1151 C 0.25457 0.3106 0.97976 0.0
C1152 C 0.25339 0.32391 1.0005 0.0
C1153 C 0.27082 0.27497 1.00234 0.0
C1154 C 0.27813 0.24328 0.99282 0.0
C1155 C 0.26935 0.26076 0.98161 0.0
H1156 H 0.78407 0.78259 0.28775 0.0
H1157 H 0.64812 0.86991 0.28805 0.0
H1158 H 0.76922 0.7612 0.26741 0.0
H1159 H 0.63098 0.84594 0.26837 0.0
H1160 H 0.63178 0.84662 0.23059 0.0
H1161 H 0.65609 0.86509 0.25022 0.0
H1162 H 0.72259 0.71784 0.25325 0.0
H1163 H 0.70135 0.70133 0.23296 0.0
C1164 C 0.75082 0.79666 0.28348 0.0
C1165 C 0.71776 0.8287 0.28933 0.0
C1166 C 0.74205 0.78423 0.27187 0.0
C1167 C 0.69941 0.80274 0.26605 0.0
C1168 C 0.66535 0.83264 0.27226 0.0
C1169 C 0.67488 0.84613 0.28363 0.0
C1170 C 0.6518 0.81829 0.23545 0.0
C1171 C 0.66411 0.77237 0.23038 0.0
C1172 C 0.66539 0.82859 0.24678 0.0
C1173 C 0.69004 0.79243 0.25356 0.0
C1174 C 0.7037 0.74669 0.24834 0.0
C1175 C 0.69134 0.73699 0.23677 0.0
H1176 H 0.23144 0.24595 0.47455 0.0
H1177 H 0.25915 0.09768 0.48795 0.0
H1178 H 0.21786 0.27677 0.49423 0.0
H1179 H 0.24702 0.12889 0.50759 0.0
H1180 H 0.25196 0.21235 0.54215 0.0
H1181 H 0.28402 0.19805 0.52259 0.0
H1182 H 0.1427 0.24694 0.50843 0.0
H1183 H 0.11014 0.25974 0.52793 0.0
C1184 C 0.23599 0.2203 0.48171 0.0
C1185 C 0.24611 0.16937 0.47974 0.0
C1186 C 0.22808 0.23792 0.49294 0.0
C1187 C 0.23149 0.20518 0.50238 0.0
C1188 C 0.24465 0.15496 0.50045 0.0
C1189 C 0.25135 0.13709 0.48923 0.0
C1190 C 0.22826 0.22124 0.53484 0.0
C1191 C 0.17855 0.23702 0.53652 0.0
C1192 C 0.24651 0.21282 0.52368 0.0
C1193 C 0.21576 0.22139 0.51405 0.0
C1194 C 0.16726 0.24045 0.51572 0.0
C1195 C 0.14862 0.24764 0.52686 0.0
H1196 H 0.89971 0.71513 0.73838 0.0
H1197 H 0.75222 0.76611 0.72835 0.0
H1198 H 0.86828 0.69487 0.75749 0.0
H1199 H 0.72098 0.7463 0.7478 0.0
H1200 H 0.72597 0.7412 0.79079 0.0
H1201 H 0.74556 0.77138 0.77127 0.0
H1202 H 0.79676 0.62371 0.76193 0.0
H1203 H 0.77675 0.59331 0.78116 0.0
C1204 C 0.86075 0.72292 0.7403 0.0
C1205 C 0.82835 0.74184 0.73179 0.0
C1206 C 0.8428 0.71112 0.75125 0.0
C1207 C 0.7922 0.71854 0.75402 0.0
C1208 C 0.76019 0.74027 0.74581 0.0
C1209 C 0.77808 0.75155 0.73472 0.0
C1210 C 0.74041 0.71501 0.78449 0.0
C1211 C 0.75023 0.66497 0.78756 0.0
C1212 C 0.75154 0.7323 0.77334 0.0
C1213 C 0.77316 0.6999 0.76521 0.0
C1214 C 0.78055 0.64947 0.76811 0.0
C1215 C 0.76893 0.63211 0.77913 0.0
loop_
_geom_bond_atom_site_label_1
_geom_bond_atom_site_label_2
_geom_bond_distance
_geom_bond_site_symmetry_2
_ccdc_geom_bond_type
Mn0 O5 2.095 . S
Mn0 O15 2.162 . S
Mn0 O16 2.297 . S
Mn0 O24 2.385 . S
Mn0 O25 2.209 . S
Mn0 O26 2.094 . S
Mn1 O6 2.121 . S
Mn1 N8 2.257 1_545 S
Mn1 N17 2.282 . S
Mn1 O25 2.215 . S
Mn1 O27 2.117 . S
C2 O24 1.234 . S
C2 O25 1.283 . S
C3 O15 1.281 . S
C3 O16 1.236 . S
C4 O26 1.240 . S
C4 O27 1.264 . S
O5 Mn0 2.095 . S
O5 C14 1.250 . S
O6 Mn1 2.121 . S
O6 C14 1.258 . S
C7 N8 1.326 . S
C7 C11 1.460 . S
C7 H13 0.929 . S
N8 Mn1 2.257 1_565 S
N8 C7 1.326 . S
N8 C12 1.362 . S
C9 C10 1.258 . S
C9 C12 1.431 . S
C9 C29 1.449 . S
C10 C9 1.258 . S
C10 C11 1.477 . S
C10 H30 0.931 . S
C11 C7 1.460 . S
C11 C10 1.477 . S
C11 H31 0.930 . S
C12 N8 1.362 . S
C12 C9 1.431 . S
C12 C22 1.476 . S
H13 C7 0.929 . S
C14 O5 1.250 . S
C14 O6 1.258 . S
O15 Mn0 2.162 . S
O15 C3 1.281 . S
O16 Mn0 2.297 . S
O16 C3 1.236 . S
N17 Mn1 2.282 . S
N17 C18 1.328 . S
N17 C22 1.318 1_545 S
C18 N17 1.328 . S
C18 C19 1.457 . S
C18 H23 0.929 . S
C19 C18 1.457 . S
C19 C20 1.291 . S
C19 H32 0.931 . S
C20 C19 1.291 . S
C20 C21 1.373 1_545 S
C20 H33 0.929 . S
C21 C20 1.373 1_565 S
C21 C22 1.396 . S
C21 C28 1.403 . S
C22 C12 1.476 . S
C22 N17 1.318 1_565 S
C22 C21 1.396 . S
H23 C18 0.929 . S
O24 Mn0 2.385 . S
O24 C2 1.234 . S
O25 Mn0 2.209 . S
O25 Mn1 2.215 . S
O25 C2 1.283 . S
O26 Mn0 2.094 . S
O26 C4 1.240 . S
O27 Mn1 2.117 . S
O27 C4 1.264 . S
C28 C21 1.403 . S
C28 C29 1.399 . S
C28 H34 0.929 . S
C29 C9 1.449 . S
C29 C28 1.399 . S
C29 H35 0.930 . S
H30 C10 0.931 . S
H31 C11 0.930 . S
H32 C19 0.931 . S
H33 C20 0.929 . S
H34 C28 0.929 . S
H35 C29 0.930 . S
Mn36 O41 2.095 . S
Mn36 O51 2.162 . S
Mn36 O52 2.297 . S
Mn36 O60 2.385 . S
Mn36 O61 2.209 . S
Mn36 O62 2.094 . S
Mn37 O42 2.121 . S
Mn37 N44 2.257 1_655 S
Mn37 N53 2.282 . S
Mn37 O61 2.215 . S
Mn37 O63 2.117 . S
C38 O60 1.234 . S
C38 O61 1.283 . S
C39 O51 1.281 . S
C39 O52 1.236 . S
C40 O62 1.240 . S
C40 O63 1.264 . S
O41 Mn36 2.095 . S
O41 C50 1.250 . S
O42 Mn37 2.121 . S
O42 C50 1.258 . S
C43 N44 1.326 . S
C43 C47 1.460 . S
C43 H49 0.929 . S
N44 Mn37 2.257 1_455 S
N44 C43 1.326 . S
N44 C48 1.362 . S
C45 C46 1.258 . S
C45 C48 1.431 . S
C45 C65 1.449 . S
C46 C45 1.258 . S
C46 C47 1.477 . S
C46 H66 0.931 . S
C47 C43 1.460 . S
C47 C46 1.477 . S
C47 H67 0.930 . S
C48 N44 1.362 . S
C48 C45 1.431 . S
C48 C58 1.476 . S
H49 C43 0.929 . S
C50 O41 1.250 . S
C50 O42 1.258 . S
O51 Mn36 2.162 . S
O51 C39 1.281 . S
O52 Mn36 2.297 . S
O52 C39 1.236 . S
N53 Mn37 2.282 . S
N53 C54 1.328 . S
N53 C58 1.318 1_655 S
C54 N53 1.328 . S
C54 C55 1.457 . S
C54 H59 0.929 . S
C55 C54 1.457 . S
C55 C56 1.291 . S
C55 H68 0.931 . S
C56 C55 1.291 . S
C56 C57 1.373 1_655 S
C56 H69 0.929 . S
C57 C56 1.373 1_455 S
C57 C58 1.396 . S
C57 C64 1.403 . S
C58 C48 1.476 . S
C58 N53 1.318 1_455 S
C58 C57 1.396 . S
H59 C54 0.929 . S
O60 Mn36 2.385 . S
O60 C38 1.234 . S
O61 Mn36 2.209 . S
O61 Mn37 2.215 . S
O61 C38 1.283 . S
O62 Mn36 2.094 . S
O62 C40 1.240 . S
O63 Mn37 2.117 . S
O63 C40 1.264 . S
C64 C57 1.403 . S
C64 C65 1.399 . S
C64 H70 0.929 . S
C65 C45 1.449 . S
C65 C64 1.399 . S
C65 H71 0.930 . S
H66 C46 0.931 . S
H67 C47 0.930 . S
H68 C55 0.931 . S
H69 C56 0.929 . S
H70 C64 0.929 . S
H71 C65 0.930 . S
Mn72 O77 2.095 . S
Mn72 O87 2.162 . S
Mn72 O88 2.297 . S
Mn72 O96 2.385 . S
Mn72 O97 2.209 . S
Mn72 O98 2.094 . S
Mn73 O78 2.121 . S
Mn73 N80 2.257 . S
Mn73 N89 2.282 . S
Mn73 O97 2.215 . S
Mn73 O99 2.117 . S
C74 O96 1.234 . S
C74 O97 1.283 . S
C75 O87 1.281 . S
C75 O88 1.236 . S
C76 O98 1.240 . S
C76 O99 1.264 . S
O77 Mn72 2.095 . S
O77 C86 1.250 . S
O78 Mn73 2.121 . S
O78 C86 1.258 . S
C79 N80 1.326 . S
C79 C83 1.460 . S
C79 H85 0.929 . S
N80 Mn73 2.257 . S
N80 C79 1.326 . S
N80 C84 1.362 . S
C81 C82 1.258 . S
C81 C84 1.431 . S
C81 C101 1.449 . S
C82 C81 1.258 . S
C82 C83 1.477 . S
C82 H102 0.931 . S
C83 C79 1.460 . S
C83 C82 1.477 . S
C83 H103 0.930 . S
C84 N80 1.362 . S
C84 C81 1.431 . S
C84 C94 1.476 . S
H85 C79 0.929 . S
C86 O77 1.250 . S
C86 O78 1.258 . S
O87 Mn72 2.162 . S
O87 C75 1.281 . S
O88 Mn72 2.297 . S
O88 C75 1.236 . S
N89 Mn73 2.282 . S
N89 C90 1.328 . S
N89 C94 1.318 . S
C90 N89 1.328 . S
C90 C91 1.457 . S
C90 H95 0.929 . S
C91 C90 1.457 . S
C91 C92 1.291 . S
C91 H104 0.931 . S
C92 C91 1.291 . S
C92 C93 1.373 . S
C92 H105 0.929 . S
C93 C92 1.373 . S
C93 C94 1.396 . S
C93 C100 1.403 . S
C94 C84 1.476 . S
C94 N89 1.318 . S
C94 C93 1.396 . S
H95 C90 0.929 . S
O96 Mn72 2.385 . S
O96 C74 1.234 . S
O97 Mn72 2.209 . S
O97 Mn73 2.215 . S
O97 C74 1.283 . S
O98 Mn72 2.094 . S
O98 C76 1.240 . S
O99 Mn73 2.117 . S
O99 C76 1.264 . S
C100 C93 1.403 . S
C100 C101 1.399 . S
C100 H106 0.929 . S
C101 C81 1.449 . S
C101 C100 1.399 . S
C101 H107 0.930 . S
H102 C82 0.931 . S
H103 C83 0.930 . S
H104 C91 0.931 . S
H105 C92 0.929 . S
H106 C100 0.929 . S
H107 C101 0.930 . S
Mn108 O113 2.095 . S
Mn108 O123 2.162 . S
Mn108 O124 2.297 . S
Mn108 O132 2.385 . S
Mn108 O133 2.209 . S
Mn108 O134 2.094 . S
Mn109 O114 2.121 . S
Mn109 N116 2.257 . S
Mn109 N125 2.282 . S
Mn109 O133 2.215 . S
Mn109 O135 2.117 . S
C110 O132 1.234 . S
C110 O133 1.283 . S
C111 O123 1.281 . S
C111 O124 1.236 . S
C112 O134 1.240 . S
C112 O135 1.264 . S
O113 Mn108 2.095 . S
O113 C122 1.250 . S
O114 Mn109 2.121 . S
O114 C122 1.258 . S
C115 N116 1.326 . S
C115 C119 1.460 . S
C115 H121 0.929 . S
N116 Mn109 2.257 . S
N116 C115 1.326 . S
N116 C120 1.362 . S
C117 C118 1.258 . S
C117 C120 1.431 . S
C117 C137 1.449 . S
C118 C117 1.258 . S
C118 C119 1.477 . S
C118 H138 0.931 . S
C119 C115 1.460 . S
C119 C118 1.477 . S
C119 H139 0.930 . S
C120 N116 1.362 . S
C120 C117 1.431 . S
C120 C130 1.476 . S
H121 C115 0.929 . S
C122 O113 1.250 . S
C122 O114 1.258 . S
O123 Mn108 2.162 . S
O123 C111 1.281 . S
O124 Mn108 2.297 . S
O124 C111 1.236 . S
N125 Mn109 2.282 . S
N125 C126 1.328 . S
N125 C130 1.318 . S
C126 N125 1.328 . S
C126 C127 1.457 . S
C126 H131 0.929 . S
C127 C126 1.457 . S
C127 C128 1.291 . S
C127 H140 0.931 . S
C128 C127 1.291 . S
C128 C129 1.373 . S
C128 H141 0.929 . S
C129 C128 1.373 . S
C129 C130 1.396 . S
C129 C136 1.403 . S
C130 C120 1.476 . S
C130 N125 1.318 . S
C130 C129 1.396 . S
H131 C126 0.929 . S
O132 Mn108 2.385 . S
O132 C110 1.234 . S
O133 Mn108 2.209 . S
O133 Mn109 2.215 . S
O133 C110 1.283 . S
O134 Mn108 2.094 . S
O134 C112 1.240 . S
O135 Mn109 2.117 . S
O135 C112 1.264 . S
C136 C129 1.403 . S
C136 C137 1.399 . S
C136 H142 0.929 . S
C137 C117 1.449 . S
C137 C136 1.399 . S
C137 H143 0.930 . S
H138 C118 0.931 . S
H139 C119 0.930 . S
H140 C127 0.931 . S
H141 C128 0.929 . S
H142 C136 0.929 . S
H143 C137 0.930 . S
Mn144 O149 2.095 . S
Mn144 O159 2.162 . S
Mn144 O160 2.297 . S
Mn144 O168 2.385 . S
Mn144 O169 2.209 . S
Mn144 O170 2.094 . S
Mn145 O150 2.121 . S
Mn145 N152 2.257 . S
Mn145 N161 2.282 . S
Mn145 O169 2.215 . S
Mn145 O171 2.117 . S
C146 O168 1.234 . S
C146 O169 1.283 . S
C147 O159 1.281 . S
C147 O160 1.236 . S
C148 O170 1.240 . S
C148 O171 1.264 . S
O149 Mn144 2.095 . S
O149 C158 1.250 . S
O150 Mn145 2.121 . S
O150 C158 1.258 . S
C151 N152 1.326 . S
C151 C155 1.460 . S
C151 H157 0.929 . S
N152 Mn145 2.257 . S
N152 C151 1.326 . S
N152 C156 1.362 . S
C153 C154 1.258 . S
C153 C156 1.431 . S
C153 C173 1.449 . S
C154 C153 1.258 . S
C154 C155 1.477 . S
C154 H174 0.931 . S
C155 C151 1.460 . S
C155 C154 1.477 . S
C155 H175 0.930 . S
C156 N152 1.362 . S
C156 C153 1.431 . S
C156 C166 1.476 . S
H157 C151 0.929 . S
C158 O149 1.250 . S
C158 O150 1.258 . S
O159 Mn144 2.162 . S
O159 C147 1.281 . S
O160 Mn144 2.297 . S
O160 C147 1.236 . S
N161 Mn145 2.282 . S
N161 C162 1.328 . S
N161 C166 1.318 . S
C162 N161 1.328 . S
C162 C163 1.457 . S
C162 H167 0.929 . S
C163 C162 1.457 . S
C163 C164 1.291 . S
C163 H176 0.931 . S
C164 C163 1.291 . S
C164 C165 1.373 . S
C164 H177 0.929 . S
C165 C164 1.373 . S
C165 C166 1.396 . S
C165 C172 1.403 . S
C166 C156 1.476 . S
C166 N161 1.318 . S
C166 C165 1.396 . S
H167 C162 0.929 . S
O168 Mn144 2.385 . S
O168 C146 1.234 . S
O169 Mn144 2.209 . S
O169 Mn145 2.215 . S
O169 C146 1.283 . S
O170 Mn144 2.094 . S
O170 C148 1.240 . S
O171 Mn145 2.117 . S
O171 C148 1.264 . S
C172 C165 1.403 . S
C172 C173 1.399 . S
C172 H178 0.929 . S
C173 C153 1.449 . S
C173 C172 1.399 . S
C173 H179 0.930 . S
H174 C154 0.931 . S
H175 C155 0.930 . S
H176 C163 0.931 . S
H177 C164 0.929 . S
H178 C172 0.929 . S
H179 C173 0.930 . S
Mn180 O185 2.095 . S
Mn180 O195 2.162 . S
Mn180 O196 2.297 . S
Mn180 O204 2.385 . S
Mn180 O205 2.209 . S
Mn180 O206 2.094 . S
Mn181 O186 2.121 . S
Mn181 N188 2.257 . S
Mn181 N197 2.282 . S
Mn181 O205 2.215 . S
Mn181 O207 2.117 . S
C182 O204 1.234 . S
C182 O205 1.283 . S
C183 O195 1.281 . S
C183 O196 1.236 . S
C184 O206 1.240 . S
C184 O207 1.264 . S
O185 Mn180 2.095 . S
O185 C194 1.250 . S
O186 Mn181 2.121 . S
O186 C194 1.258 . S
C187 N188 1.326 . S
C187 C191 1.460 . S
C187 H193 0.929 . S
N188 Mn181 2.257 . S
N188 C187 1.326 . S
N188 C192 1.362 . S
C189 C190 1.258 . S
C189 C192 1.431 . S
C189 C209 1.449 . S
C190 C189 1.258 . S
C190 C191 1.477 . S
C190 H210 0.931 . S
C191 C187 1.460 . S
C191 C190 1.477 . S
C191 H211 0.930 . S
C192 N188 1.362 . S
C192 C189 1.431 . S
C192 C202 1.476 . S
H193 C187 0.929 . S
C194 O185 1.250 . S
C194 O186 1.258 . S
O195 Mn180 2.162 . S
O195 C183 1.281 . S
O196 Mn180 2.297 . S
O196 C183 1.236 . S
N197 Mn181 2.282 . S
N197 C198 1.328 . S
N197 C202 1.318 . S
C198 N197 1.328 . S
C198 C199 1.457 . S
C198 H203 0.929 . S
C199 C198 1.457 . S
C199 C200 1.291 . S
C199 H212 0.931 . S
C200 C199 1.291 . S
C200 C201 1.373 . S
C200 H213 0.929 . S
C201 C200 1.373 . S
C201 C202 1.396 . S
C201 C208 1.403 . S
C202 C192 1.476 . S
C202 N197 1.318 . S
C202 C201 1.396 . S
H203 C198 0.929 . S
O204 Mn180 2.385 . S
O204 C182 1.234 . S
O205 Mn180 2.209 . S
O205 Mn181 2.215 . S
O205 C182 1.283 . S
O206 Mn180 2.094 . S
O206 C184 1.240 . S
O207 Mn181 2.117 . S
O207 C184 1.264 . S
C208 C201 1.403 . S
C208 C209 1.399 . S
C208 H214 0.929 . S
C209 C189 1.449 . S
C209 C208 1.399 . S
C209 H215 0.930 . S
H210 C190 0.931 . S
H211 C191 0.930 . S
H212 C199 0.931 . S
H213 C200 0.929 . S
H214 C208 0.929 . S
H215 C209 0.930 . S
Mn216 O221 2.095 . S
Mn216 O231 2.162 . S
Mn216 O232 2.297 . S
Mn216 O240 2.385 . S
Mn216 O241 2.209 . S
Mn216 O242 2.094 . S
Mn217 O222 2.121 . S
Mn217 N224 2.257 1_545 S
Mn217 N233 2.282 . S
Mn217 O241 2.215 . S
Mn217 O243 2.117 . S
C218 O240 1.234 . S
C218 O241 1.283 . S
C219 O231 1.281 . S
C219 O232 1.236 . S
C220 O242 1.240 . S
C220 O243 1.264 . S
O221 Mn216 2.095 . S
O221 C230 1.250 . S
O222 Mn217 2.121 . S
O222 C230 1.258 . S
C223 N224 1.326 . S
C223 C227 1.460 . S
C223 H229 0.929 . S
N224 Mn217 2.257 1_565 S
N224 C223 1.326 . S
N224 C228 1.362 . S
C225 C226 1.258 . S
C225 C228 1.431 . S
C225 C245 1.449 . S
C226 C225 1.258 . S
C226 C227 1.477 . S
C226 H246 0.931 . S
C227 C223 1.460 . S
C227 C226 1.477 . S
C227 H247 0.930 . S
C228 N224 1.362 . S
C228 C225 1.431 . S
C228 C238 1.476 . S
H229 C223 0.929 . S
C230 O221 1.250 . S
C230 O222 1.258 . S
O231 Mn216 2.162 . S
O231 C219 1.281 . S
O232 Mn216 2.297 . S
O232 C219 1.236 . S
N233 Mn217 2.282 . S
N233 C234 1.328 . S
N233 C238 1.318 1_545 S
C234 N233 1.328 . S
C234 C235 1.457 . S
C234 H239 0.929 . S
C235 C234 1.457 . S
C235 C236 1.291 . S
C235 H248 0.931 . S
C236 C235 1.291 . S
C236 C237 1.373 1_545 S
C236 H249 0.929 . S
C237 C236 1.373 1_565 S
C237 C238 1.396 . S
C237 C244 1.403 . S
C238 C228 1.476 . S
C238 N233 1.318 1_565 S
C238 C237 1.396 . S
H239 C234 0.929 . S
O240 Mn216 2.385 . S
O240 C218 1.234 . S
O241 Mn216 2.209 . S
O241 Mn217 2.215 . S
O241 C218 1.283 . S
O242 Mn216 2.094 . S
O242 C220 1.240 . S
O243 Mn217 2.117 . S
O243 C220 1.264 . S
C244 C237 1.403 . S
C244 C245 1.399 . S
C244 H250 0.929 . S
C245 C225 1.449 . S
C245 C244 1.399 . S
C245 H251 0.930 . S
H246 C226 0.931 . S
H247 C227 0.930 . S
H248 C235 0.931 . S
H249 C236 0.929 . S
H250 C244 0.929 . S
H251 C245 0.930 . S
Mn252 O257 2.095 . S
Mn252 O267 2.162 . S
Mn252 O268 2.297 . S
Mn252 O276 2.385 . S
Mn252 O277 2.209 . S
Mn252 O278 2.094 . S
Mn253 O258 2.121 . S
Mn253 N260 2.257 1_655 S
Mn253 N269 2.282 . S
Mn253 O277 2.215 . S
Mn253 O279 2.117 . S
C254 O276 1.234 . S
C254 O277 1.283 . S
C255 O267 1.281 . S
C255 O268 1.236 . S
C256 O278 1.240 . S
C256 O279 1.264 . S
O257 Mn252 2.095 . S
O257 C266 1.250 . S
O258 Mn253 2.121 . S
O258 C266 1.258 . S
C259 N260 1.326 . S
C259 C263 1.460 . S
C259 H265 0.929 . S
N260 Mn253 2.257 1_455 S
N260 C259 1.326 . S
N260 C264 1.362 . S
C261 C262 1.258 . S
C261 C264 1.431 . S
C261 C281 1.449 . S
C262 C261 1.258 . S
C262 C263 1.477 . S
C262 H282 0.931 . S
C263 C259 1.460 . S
C263 C262 1.477 . S
C263 H283 0.930 . S
C264 N260 1.362 . S
C264 C261 1.431 . S
C264 C274 1.476 . S
H265 C259 0.929 . S
C266 O257 1.250 . S
C266 O258 1.258 . S
O267 Mn252 2.162 . S
O267 C255 1.281 . S
O268 Mn252 2.297 . S
O268 C255 1.236 . S
N269 Mn253 2.282 . S
N269 C270 1.328 . S
N269 C274 1.318 1_655 S
C270 N269 1.328 . S
C270 C271 1.457 . S
C270 H275 0.929 . S
C271 C270 1.457 . S
C271 C272 1.291 . S
C271 H284 0.931 . S
C272 C271 1.291 . S
C272 C273 1.373 1_655 S
C272 H285 0.929 . S
C273 C272 1.373 1_455 S
C273 C274 1.396 . S
C273 C280 1.403 . S
C274 C264 1.476 . S
C274 N269 1.318 1_455 S
C274 C273 1.396 . S
H275 C270 0.929 . S
O276 Mn252 2.385 . S
O276 C254 1.234 . S
O277 Mn252 2.209 . S
O277 Mn253 2.215 . S
O277 C254 1.283 . S
O278 Mn252 2.094 . S
O278 C256 1.240 . S
O279 Mn253 2.117 . S
O279 C256 1.264 . S
C280 C273 1.403 . S
C280 C281 1.399 . S
C280 H286 0.929 . S
C281 C261 1.449 . S
C281 C280 1.399 . S
C281 H287 0.930 . S
H282 C262 0.931 . S
H283 C263 0.930 . S
H284 C271 0.931 . S
H285 C272 0.929 . S
H286 C280 0.929 . S
H287 C281 0.930 . S
Mn288 O293 2.095 . S
Mn288 O303 2.162 . S
Mn288 O304 2.297 . S
Mn288 O312 2.385 . S
Mn288 O313 2.209 . S
Mn288 O314 2.094 . S
Mn289 O294 2.121 . S
Mn289 N296 2.257 . S
Mn289 N305 2.282 . S
Mn289 O313 2.215 . S
Mn289 O315 2.117 . S
C290 O312 1.234 . S
C290 O313 1.283 . S
C291 O303 1.281 . S
C291 O304 1.236 . S
C292 O314 1.240 . S
C292 O315 1.264 . S
O293 Mn288 2.095 . S
O293 C302 1.250 . S
O294 Mn289 2.121 . S
O294 C302 1.258 . S
C295 N296 1.326 . S
C295 C299 1.460 . S
C295 H301 0.929 . S
N296 Mn289 2.257 . S
N296 C295 1.326 . S
N296 C300 1.362 . S
C297 C298 1.258 . S
C297 C300 1.431 . S
C297 C317 1.449 . S
C298 C297 1.258 . S
C298 C299 1.477 . S
C298 H318 0.931 . S
C299 C295 1.460 . S
C299 C298 1.477 . S
C299 H319 0.930 . S
C300 N296 1.362 . S
C300 C297 1.431 . S
C300 C310 1.476 . S
H301 C295 0.929 . S
C302 O293 1.250 . S
C302 O294 1.258 . S
O303 Mn288 2.162 . S
O303 C291 1.281 . S
O304 Mn288 2.297 . S
O304 C291 1.236 . S
N305 Mn289 2.282 . S
N305 C306 1.328 . S
N305 C310 1.318 . S
C306 N305 1.328 . S
C306 C307 1.457 . S
C306 H311 0.929 . S
C307 C306 1.457 . S
C307 C308 1.291 . S
C307 H320 0.931 . S
C308 C307 1.291 . S
C308 C309 1.373 . S
C308 H321 0.929 . S
C309 C308 1.373 . S
C309 C310 1.396 . S
C309 C316 1.403 . S
C310 C300 1.476 . S
C310 N305 1.318 . S
C310 C309 1.396 . S
H311 C306 0.929 . S
O312 Mn288 2.385 . S
O312 C290 1.234 . S
O313 Mn288 2.209 . S
O313 Mn289 2.215 . S
O313 C290 1.283 . S
O314 Mn288 2.094 . S
O314 C292 1.240 . S
O315 Mn289 2.117 . S
O315 C292 1.264 . S
C316 C309 1.403 . S
C316 C317 1.399 . S
C316 H322 0.929 . S
C317 C297 1.449 . S
C317 C316 1.399 . S
C317 H323 0.930 . S
H318 C298 0.931 . S
H319 C299 0.930 . S
H320 C307 0.931 . S
H321 C308 0.929 . S
H322 C316 0.929 . S
H323 C317 0.930 . S
Mn324 O329 2.095 . S
Mn324 O339 2.162 . S
Mn324 O340 2.297 . S
Mn324 O348 2.385 . S
Mn324 O349 2.209 . S
Mn324 O350 2.094 . S
Mn325 O330 2.121 . S
Mn325 N332 2.257 . S
Mn325 N341 2.282 . S
Mn325 O349 2.215 . S
Mn325 O351 2.117 . S
C326 O348 1.234 . S
C326 O349 1.283 . S
C327 O339 1.281 . S
C327 O340 1.236 . S
C328 O350 1.240 . S
C328 O351 1.264 . S
O329 Mn324 2.095 . S
O329 C338 1.250 . S
O330 Mn325 2.121 . S
O330 C338 1.258 . S
C331 N332 1.326 . S
C331 C335 1.460 . S
C331 H337 0.929 . S
N332 Mn325 2.257 . S
N332 C331 1.326 . S
N332 C336 1.362 . S
C333 C334 1.258 . S
C333 C336 1.431 . S
C333 C353 1.449 . S
C334 C333 1.258 . S
C334 C335 1.477 . S
C334 H354 0.931 . S
C335 C331 1.460 . S
C335 C334 1.477 . S
C335 H355 0.930 . S
C336 N332 1.362 . S
C336 C333 1.431 . S
C336 C346 1.476 . S
H337 C331 0.929 . S
C338 O329 1.250 . S
C338 O330 1.258 . S
O339 Mn324 2.162 . S
O339 C327 1.281 . S
O340 Mn324 2.297 . S
O340 C327 1.236 . S
N341 Mn325 2.282 . S
N341 C342 1.328 . S
N341 C346 1.318 . S
C342 N341 1.328 . S
C342 C343 1.457 . S
C342 H347 0.929 . S
C343 C342 1.457 . S
C343 C344 1.291 . S
C343 H356 0.931 . S
C344 C343 1.291 . S
C344 C345 1.373 . S
C344 H357 0.929 . S
C345 C344 1.373 . S
C345 C346 1.396 . S
C345 C352 1.403 . S
C346 C336 1.476 . S
C346 N341 1.318 . S
C346 C345 1.396 . S
H347 C342 0.929 . S
O348 Mn324 2.385 . S
O348 C326 1.234 . S
O349 Mn324 2.209 . S
O349 Mn325 2.215 . S
O349 C326 1.283 . S
O350 Mn324 2.094 . S
O350 C328 1.240 . S
O351 Mn325 2.117 . S
O351 C328 1.264 . S
C352 C345 1.403 . S
C352 C353 1.399 . S
C352 H358 0.929 . S
C353 C333 1.449 . S
C353 C352 1.399 . S
C353 H359 0.930 . S
H354 C334 0.931 . S
H355 C335 0.930 . S
H356 C343 0.931 . S
H357 C344 0.929 . S
H358 C352 0.929 . S
H359 C353 0.930 . S
Mn360 O365 2.095 . S
Mn360 O375 2.162 . S
Mn360 O376 2.297 . S
Mn360 O384 2.385 . S
Mn360 O385 2.209 . S
Mn360 O386 2.094 . S
Mn361 O366 2.121 . S
Mn361 N368 2.257 1_565 S
Mn361 N377 2.282 . S
Mn361 O385 2.215 . S
Mn361 O387 2.117 . S
C362 O384 1.234 . S
C362 O385 1.283 . S
C363 O375 1.281 . S
C363 O376 1.236 . S
C364 O386 1.240 . S
C364 O387 1.264 . S
O365 Mn360 2.095 . S
O365 C374 1.250 . S
O366 Mn361 2.121 . S
O366 C374 1.258 . S
C367 N368 1.326 . S
C367 C371 1.460 . S
C367 H373 0.929 . S
N368 Mn361 2.257 1_545 S
N368 C367 1.326 . S
N368 C372 1.362 . S
C369 C370 1.258 . S
C369 C372 1.431 . S
C369 C389 1.449 . S
C370 C369 1.258 . S
C370 C371 1.477 . S
C370 H390 0.931 . S
C371 C367 1.460 . S
C371 C370 1.477 . S
C371 H391 0.930 . S
C372 N368 1.362 . S
C372 C369 1.431 . S
C372 C382 1.476 . S
H373 C367 0.929 . S
C374 O365 1.250 . S
C374 O366 1.258 . S
O375 Mn360 2.162 . S
O375 C363 1.281 . S
O376 Mn360 2.297 . S
O376 C363 1.236 . S
N377 Mn361 2.282 . S
N377 C378 1.328 . S
N377 C382 1.318 1_565 S
C378 N377 1.328 . S
C378 C379 1.457 . S
C378 H383 0.929 . S
C379 C378 1.457 . S
C379 C380 1.291 . S
C379 H392 0.931 . S
C380 C379 1.291 . S
C380 C381 1.373 1_565 S
C380 H393 0.929 . S
C381 C380 1.373 1_545 S
C381 C382 1.396 . S
C381 C388 1.403 . S
C382 C372 1.476 . S
C382 N377 1.318 1_545 S
C382 C381 1.396 . S
H383 C378 0.929 . S
O384 Mn360 2.385 . S
O384 C362 1.234 . S
O385 Mn360 2.209 . S
O385 Mn361 2.215 . S
O385 C362 1.283 . S
O386 Mn360 2.094 . S
O386 C364 1.240 . S
O387 Mn361 2.117 . S
O387 C364 1.264 . S
C388 C381 1.403 . S
C388 C389 1.399 . S
C388 H394 0.929 . S
C389 C369 1.449 . S
C389 C388 1.399 . S
C389 H395 0.930 . S
H390 C370 0.931 . S
H391 C371 0.930 . S
H392 C379 0.931 . S
H393 C380 0.929 . S
H394 C388 0.929 . S
H395 C389 0.930 . S
Mn396 O401 2.095 . S
Mn396 O411 2.162 . S
Mn396 O412 2.297 . S
Mn396 O420 2.385 . S
Mn396 O421 2.209 . S
Mn396 O422 2.094 . S
Mn397 O402 2.121 . S
Mn397 N404 2.257 1_455 S
Mn397 N413 2.282 . S
Mn397 O421 2.215 . S
Mn397 O423 2.117 . S
C398 O420 1.234 . S
C398 O421 1.283 . S
C399 O411 1.281 . S
C399 O412 1.236 . S
C400 O422 1.240 . S
C400 O423 1.264 . S
O401 Mn396 2.095 . S
O401 C410 1.250 . S
O402 Mn397 2.121 . S
O402 C410 1.258 . S
C403 N404 1.326 . S
C403 C407 1.460 . S
C403 H409 0.929 . S
N404 Mn397 2.257 1_655 S
N404 C403 1.326 . S
N404 C408 1.362 . S
C405 C406 1.258 . S
C405 C408 1.431 . S
C405 C425 1.449 . S
C406 C405 1.258 . S
C406 C407 1.477 . S
C406 H426 0.931 . S
C407 C403 1.460 . S
C407 C406 1.477 . S
C407 H427 0.930 . S
C408 N404 1.362 . S
C408 C405 1.431 . S
C408 C418 1.476 . S
H409 C403 0.929 . S
C410 O401 1.250 . S
C410 O402 1.258 . S
O411 Mn396 2.162 . S
O411 C399 1.281 . S
O412 Mn396 2.297 . S
O412 C399 1.236 . S
N413 Mn397 2.282 . S
N413 C414 1.328 . S
N413 C418 1.318 1_455 S
C414 N413 1.328 . S
C414 C415 1.457 . S
C414 H419 0.929 . S
C415 C414 1.457 . S
C415 C416 1.291 . S
C415 H428 0.931 . S
C416 C415 1.291 . S
C416 C417 1.373 1_455 S
C416 H429 0.929 . S
C417 C416 1.373 1_655 S
C417 C418 1.396 . S
C417 C424 1.403 . S
C418 C408 1.476 . S
C418 N413 1.318 1_655 S
C418 C417 1.396 . S
H419 C414 0.929 . S
O420 Mn396 2.385 . S
O420 C398 1.234 . S
O421 Mn396 2.209 . S
O421 Mn397 2.215 . S
O421 C398 1.283 . S
O422 Mn396 2.094 . S
O422 C400 1.240 . S
O423 Mn397 2.117 . S
O423 C400 1.264 . S
C424 C417 1.403 . S
C424 C425 1.399 . S
C424 H430 0.929 . S
C425 C405 1.449 . S
C425 C424 1.399 . S
C425 H431 0.930 . S
H426 C406 0.931 . S
H427 C407 0.930 . S
H428 C415 0.931 . S
H429 C416 0.929 . S
H430 C424 0.929 . S
H431 C425 0.930 . S
Mn432 O437 2.095 . S
Mn432 O447 2.162 . S
Mn432 O448 2.297 . S
Mn432 O456 2.385 . S
Mn432 O457 2.209 . S
Mn432 O458 2.094 . S
Mn433 O438 2.121 . S
Mn433 N440 2.257 1_565 S
Mn433 N449 2.282 . S
Mn433 O457 2.215 . S
Mn433 O459 2.117 . S
C434 O456 1.234 . S
C434 O457 1.283 . S
C435 O447 1.281 . S
C435 O448 1.236 . S
C436 O458 1.240 . S
C436 O459 1.264 . S
O437 Mn432 2.095 . S
O437 C446 1.250 . S
O438 Mn433 2.121 . S
O438 C446 1.258 . S
C439 N440 1.326 . S
C439 C443 1.460 . S
C439 H445 0.929 . S
N440 Mn433 2.257 1_545 S
N440 C439 1.326 . S
N440 C444 1.362 . S
C441 C442 1.258 . S
C441 C444 1.431 . S
C441 C461 1.449 . S
C442 C441 1.258 . S
C442 C443 1.477 . S
C442 H462 0.931 . S
C443 C439 1.460 . S
C443 C442 1.477 . S
C443 H463 0.930 . S
C444 N440 1.362 . S
C444 C441 1.431 . S
C444 C454 1.476 . S
H445 C439 0.929 . S
C446 O437 1.250 . S
C446 O438 1.258 . S
O447 Mn432 2.162 . S
O447 C435 1.281 . S
O448 Mn432 2.297 . S
O448 C435 1.236 . S
N449 Mn433 2.282 . S
N449 C450 1.328 . S
N449 C454 1.318 1_565 S
C450 N449 1.328 . S
C450 C451 1.457 . S
C450 H455 0.929 . S
C451 C450 1.457 . S
C451 C452 1.291 . S
C451 H464 0.931 . S
C452 C451 1.291 . S
C452 C453 1.373 1_565 S
C452 H465 0.929 . S
C453 C452 1.373 1_545 S
C453 C454 1.396 . S
C453 C460 1.403 . S
C454 C444 1.476 . S
C454 N449 1.318 1_545 S
C454 C453 1.396 . S
H455 C450 0.929 . S
O456 Mn432 2.385 . S
O456 C434 1.234 . S
O457 Mn432 2.209 . S
O457 Mn433 2.215 . S
O457 C434 1.283 . S
O458 Mn432 2.094 . S
O458 C436 1.240 . S
O459 Mn433 2.117 . S
O459 C436 1.264 . S
C460 C453 1.403 . S
C460 C461 1.399 . S
C460 H466 0.929 . S
C461 C441 1.449 . S
C461 C460 1.399 . S
C461 H467 0.930 . S
H462 C442 0.931 . S
H463 C443 0.930 . S
H464 C451 0.931 . S
H465 C452 0.929 . S
H466 C460 0.929 . S
H467 C461 0.930 . S
Mn468 O473 2.095 . S
Mn468 O483 2.162 . S
Mn468 O484 2.297 . S
Mn468 O492 2.385 . S
Mn468 O493 2.209 . S
Mn468 O494 2.094 . S
Mn469 O474 2.121 . S
Mn469 N476 2.257 1_455 S
Mn469 N485 2.282 . S
Mn469 O493 2.215 . S
Mn469 O495 2.117 . S
C470 O492 1.234 . S
C470 O493 1.283 . S
C471 O483 1.281 . S
C471 O484 1.236 . S
C472 O494 1.240 . S
C472 O495 1.264 . S
O473 Mn468 2.095 . S
O473 C482 1.250 . S
O474 Mn469 2.121 . S
O474 C482 1.258 . S
C475 N476 1.326 . S
C475 C479 1.460 . S
C475 H481 0.929 . S
N476 Mn469 2.257 1_655 S
N476 C475 1.326 . S
N476 C480 1.362 . S
C477 C478 1.258 . S
C477 C480 1.431 . S
C477 C497 1.449 . S
C478 C477 1.258 . S
C478 C479 1.477 . S
C478 H498 0.931 . S
C479 C475 1.460 . S
C479 C478 1.477 . S
C479 H499 0.930 . S
C480 N476 1.362 . S
C480 C477 1.431 . S
C480 C490 1.476 . S
H481 C475 0.929 . S
C482 O473 1.250 . S
C482 O474 1.258 . S
O483 Mn468 2.162 . S
O483 C471 1.281 . S
O484 Mn468 2.297 . S
O484 C471 1.236 . S
N485 Mn469 2.282 . S
N485 C486 1.328 . S
N485 C490 1.318 1_455 S
C486 N485 1.328 . S
C486 C487 1.457 . S
C486 H491 0.929 . S
C487 C486 1.457 . S
C487 C488 1.291 . S
C487 H500 0.931 . S
C488 C487 1.291 . S
C488 C489 1.373 1_455 S
C488 H501 0.929 . S
C489 C488 1.373 1_655 S
C489 C490 1.396 . S
C489 C496 1.403 . S
C490 C480 1.476 . S
C490 N485 1.318 1_655 S
C490 C489 1.396 . S
H491 C486 0.929 . S
O492 Mn468 2.385 . S
O492 C470 1.234 . S
O493 Mn468 2.209 . S
O493 Mn469 2.215 . S
O493 C470 1.283 . S
O494 Mn468 2.094 . S
O494 C472 1.240 . S
O495 Mn469 2.117 . S
O495 C472 1.264 . S
C496 C489 1.403 . S
C496 C497 1.399 . S
C496 H502 0.929 . S
C497 C477 1.449 . S
C497 C496 1.399 . S
C497 H503 0.930 . S
H498 C478 0.931 . S
H499 C479 0.930 . S
H500 C487 0.931 . S
H501 C488 0.929 . S
H502 C496 0.929 . S
H503 C497 0.930 . S
Mn504 O509 2.095 . S
Mn504 O519 2.162 . S
Mn504 O520 2.297 . S
Mn504 O528 2.385 . S
Mn504 O529 2.209 . S
Mn504 O530 2.094 . S
Mn505 O510 2.121 . S
Mn505 N512 2.257 . S
Mn505 N521 2.282 . S
Mn505 O529 2.215 . S
Mn505 O531 2.117 . S
C506 O528 1.234 . S
C506 O529 1.283 . S
C507 O519 1.281 . S
C507 O520 1.236 . S
C508 O530 1.240 . S
C508 O531 1.264 . S
O509 Mn504 2.095 . S
O509 C518 1.250 . S
O510 Mn505 2.121 . S
O510 C518 1.258 . S
C511 N512 1.326 . S
C511 C515 1.460 . S
C511 H517 0.929 . S
N512 Mn505 2.257 . S
N512 C511 1.326 . S
N512 C516 1.362 . S
C513 C514 1.258 . S
C513 C516 1.431 . S
C513 C533 1.449 . S
C514 C513 1.258 . S
C514 C515 1.477 . S
C514 H534 0.931 . S
C515 C511 1.460 . S
C515 C514 1.477 . S
C515 H535 0.930 . S
C516 N512 1.362 . S
C516 C513 1.431 . S
C516 C526 1.476 . S
H517 C511 0.929 . S
C518 O509 1.250 . S
C518 O510 1.258 . S
O519 Mn504 2.162 . S
O519 C507 1.281 . S
O520 Mn504 2.297 . S
O520 C507 1.236 . S
N521 Mn505 2.282 . S
N521 C522 1.328 . S
N521 C526 1.318 . S
C522 N521 1.328 . S
C522 C523 1.457 . S
C522 H527 0.929 . S
C523 C522 1.457 . S
C523 C524 1.291 . S
C523 H536 0.931 . S
C524 C523 1.291 . S
C524 C525 1.373 . S
C524 H537 0.929 . S
C525 C524 1.373 . S
C525 C526 1.396 . S
C525 C532 1.403 . S
C526 C516 1.476 . S
C526 N521 1.318 . S
C526 C525 1.396 . S
H527 C522 0.929 . S
O528 Mn504 2.385 . S
O528 C506 1.234 . S
O529 Mn504 2.209 . S
O529 Mn505 2.215 . S
O529 C506 1.283 . S
O530 Mn504 2.094 . S
O530 C508 1.240 . S
O531 Mn505 2.117 . S
O531 C508 1.264 . S
C532 C525 1.403 . S
C532 C533 1.399 . S
C532 H538 0.929 . S
C533 C513 1.449 . S
C533 C532 1.399 . S
C533 H539 0.930 . S
H534 C514 0.931 . S
H535 C515 0.930 . S
H536 C523 0.931 . S
H537 C524 0.929 . S
H538 C532 0.929 . S
H539 C533 0.930 . S
Mn540 O545 2.095 . S
Mn540 O555 2.162 . S
Mn540 O556 2.297 . S
Mn540 O564 2.385 . S
Mn540 O565 2.209 . S
Mn540 O566 2.094 . S
Mn541 O546 2.121 . S
Mn541 N548 2.257 . S
Mn541 N557 2.282 . S
Mn541 O565 2.215 . S
Mn541 O567 2.117 . S
C542 O564 1.234 . S
C542 O565 1.283 . S
C543 O555 1.281 . S
C543 O556 1.236 . S
C544 O566 1.240 . S
C544 O567 1.264 . S
O545 Mn540 2.095 . S
O545 C554 1.250 . S
O546 Mn541 2.121 . S
O546 C554 1.258 . S
C547 N548 1.326 . S
C547 C551 1.460 . S
C547 H553 0.929 . S
N548 Mn541 2.257 . S
N548 C547 1.326 . S
N548 C552 1.362 . S
C549 C550 1.258 . S
C549 C552 1.431 . S
C549 C569 1.449 . S
C550 C549 1.258 . S
C550 C551 1.477 . S
C550 H570 0.931 . S
C551 C547 1.460 . S
C551 C550 1.477 . S
C551 H571 0.930 . S
C552 N548 1.362 . S
C552 C549 1.431 . S
C552 C562 1.476 . S
H553 C547 0.929 . S
C554 O545 1.250 . S
C554 O546 1.258 . S
O555 Mn540 2.162 . S
O555 C543 1.281 . S
O556 Mn540 2.297 . S
O556 C543 1.236 . S
N557 Mn541 2.282 . S
N557 C558 1.328 . S
N557 C562 1.318 . S
C558 N557 1.328 . S
C558 C559 1.457 . S
C558 H563 0.929 . S
C559 C558 1.457 . S
C559 C560 1.291 . S
C559 H572 0.931 . S
C560 C559 1.291 . S
C560 C561 1.373 . S
C560 H573 0.929 . S
C561 C560 1.373 . S
C561 C562 1.396 . S
C561 C568 1.403 . S
C562 C552 1.476 . S
C562 N557 1.318 . S
C562 C561 1.396 . S
H563 C558 0.929 . S
O564 Mn540 2.385 . S
O564 C542 1.234 . S
O565 Mn540 2.209 . S
O565 Mn541 2.215 . S
O565 C542 1.283 . S
O566 Mn540 2.094 . S
O566 C544 1.240 . S
O567 Mn541 2.117 . S
O567 C544 1.264 . S
C568 C561 1.403 . S
C568 C569 1.399 . S
C568 H574 0.929 . S
C569 C549 1.449 . S
C569 C568 1.399 . S
C569 H575 0.930 . S
H570 C550 0.931 . S
H571 C551 0.930 . S
H572 C559 0.931 . S
H573 C560 0.929 . S
H574 C568 0.929 . S
H575 C569 0.930 . S
H576 C584 0.950 . S
H577 C589 0.950 . S
H578 C586 0.950 . S
H579 C588 0.950 1_545 S
H580 C590 0.950 . S
H581 C592 0.950 . S
H582 C594 0.950 1_565 S
H583 C595 0.950 . S
C584 H576 0.950 . S
C584 C585 1.386 . S
C584 C586 1.391 . S
C585 C584 1.386 . S
C585 C589 1.393 . S
C586 H578 0.950 . S
C586 C584 1.391 . S
C586 C587 1.400 . S
C587 C586 1.400 . S
C587 C588 1.398 . S
C587 C593 1.491 1_665 S
C588 H579 0.950 1_565 S
C588 C587 1.398 . S
C588 C589 1.391 . S
C589 H577 0.950 . S
C589 C585 1.393 . S
C589 C588 1.391 . S
C590 H580 0.950 . S
C590 C591 1.386 . S
C590 C592 1.391 . S
C591 C590 1.386 . S
C591 C595 1.393 . S
C592 H581 0.950 . S
C592 C590 1.391 . S
C592 C593 1.400 . S
C593 C587 1.491 1_445 S
C593 C592 1.400 . S
C593 C594 1.398 . S
C594 H582 0.950 1_545 S
C594 C593 1.398 . S
C594 C595 1.391 . S
C595 H583 0.950 . S
C595 C591 1.393 . S
C595 C594 1.391 . S
H596 C604 0.950 . S
H597 C609 0.950 . S
H598 C606 0.950 . S
H599 C608 0.950 . S
H600 C610 0.950 . S
H601 C612 0.950 . S
H602 C614 0.950 . S
H603 C615 0.950 . S
C604 H596 0.950 . S
C604 C605 1.386 . S
C604 C606 1.391 1_655 S
C605 C604 1.386 . S
C605 C609 1.393 . S
C606 H598 0.950 . S
C606 C604 1.391 1_455 S
C606 C607 1.400 1_455 S
C607 C606 1.400 1_655 S
C607 C608 1.398 . S
C607 C613 1.491 1_655 S
C608 H599 0.950 . S
C608 C607 1.398 . S
C608 C609 1.391 . S
C609 H597 0.950 . S
C609 C605 1.393 . S
C609 C608 1.391 . S
C610 H600 0.950 . S
C610 C611 1.386 . S
C610 C612 1.391 1_455 S
C611 C610 1.386 . S
C611 C615 1.393 . S
C612 H601 0.950 . S
C612 C610 1.391 1_655 S
C612 C613 1.400 1_655 S
C613 C607 1.491 1_455 S
C613 C612 1.400 1_455 S
C613 C614 1.398 . S
C614 H602 0.950 . S
C614 C613 1.398 . S
C614 C615 1.391 . S
C615 H603 0.950 . S
C615 C611 1.393 . S
C615 C614 1.391 . S
H616 C624 0.950 . S
H617 C629 0.950 . S
H618 C626 0.950 . S
H619 C628 0.950 . S
H620 C630 0.950 . S
H621 C632 0.950 . S
H622 C634 0.950 . S
H623 C635 0.950 . S
C624 H616 0.950 . S
C624 C625 1.386 . S
C624 C626 1.391 . S
C625 C624 1.386 . S
C625 C629 1.393 . S
C626 H618 0.950 . S
C626 C624 1.391 . S
C626 C627 1.400 . S
C627 C626 1.400 . S
C627 C628 1.398 . S
C627 C633 1.491 . S
C628 H619 0.950 . S
C628 C627 1.398 . S
C628 C629 1.391 . S
C629 H617 0.950 . S
C629 C625 1.393 . S
C629 C628 1.391 . S
C630 H620 0.950 . S
C630 C631 1.386 . S
C630 C632 1.391 . S
C631 C630 1.386 . S
C631 C635 1.393 . S
C632 H621 0.950 . S
C632 C630 1.391 . S
C632 C633 1.400 . S
C633 C627 1.491 . S
C633 C632 1.400 . S
C633 C634 1.398 . S
C634 H622 0.950 . S
C634 C633 1.398 . S
C634 C635 1.391 . S
C635 H623 0.950 . S
C635 C631 1.393 . S
C635 C634 1.391 . S
H636 C644 0.950 . S
H637 C649 0.950 . S
H638 C646 0.947 1_565 S
H639 C648 0.950 . S
H640 C650 0.950 . S
H641 C652 0.947 1_545 S
H642 C654 0.950 . S
H643 C655 0.950 . S
C644 H636 0.950 . S
C644 C645 1.386 . S
C644 C646 1.391 . S
C645 C644 1.386 . S
C645 C649 1.393 . S
C646 H638 0.947 1_545 S
C646 C644 1.391 . S
C646 C647 1.400 . S
C647 C646 1.400 . S
C647 C648 1.398 . S
C647 C653 1.491 1_545 S
C648 H639 0.950 . S
C648 C647 1.398 . S
C648 C649 1.391 . S
C649 H637 0.950 . S
C649 C645 1.393 . S
C649 C648 1.391 . S
C650 H640 0.950 . S
C650 C651 1.386 . S
C650 C652 1.391 . S
C651 C650 1.386 . S
C651 C655 1.393 . S
C652 H641 0.947 1_565 S
C652 C650 1.391 . S
C652 C653 1.400 . S
C653 C647 1.491 1_565 S
C653 C652 1.400 . S
C653 C654 1.398 . S
C654 H642 0.950 . S
C654 C653 1.398 . S
C654 C655 1.391 . S
C655 H643 0.950 . S
C655 C651 1.393 . S
C655 C654 1.391 . S
H656 C664 0.950 . S
H657 C669 0.950 . S
H658 C666 0.950 . S
H659 C668 0.950 1_655 S
H660 C670 0.950 . S
H661 C672 0.950 . S
H662 C674 0.950 1_455 S
H663 C675 0.950 . S
C664 H656 0.950 . S
C664 C665 1.386 . S
C664 C666 1.391 . S
C665 C664 1.386 . S
C665 C669 1.393 . S
C666 H658 0.950 . S
C666 C664 1.391 . S
C666 C667 1.400 . S
C667 C666 1.400 . S
C667 C668 1.398 . S
C667 C673 1.491 1_455 S
C668 H659 0.950 1_455 S
C668 C667 1.398 . S
C668 C669 1.391 . S
C669 H657 0.950 . S
C669 C665 1.393 . S
C669 C668 1.391 . S
C670 H660 0.950 . S
C670 C671 1.386 . S
C670 C672 1.391 . S
C671 C670 1.386 . S
C671 C675 1.393 . S
C672 H661 0.950 . S
C672 C670 1.391 . S
C672 C673 1.400 . S
C673 C667 1.491 1_655 S
C673 C672 1.400 . S
C673 C674 1.398 . S
C674 H662 0.950 1_655 S
C674 C673 1.398 . S
C674 C675 1.391 . S
C675 H663 0.950 . S
C675 C671 1.393 . S
C675 C674 1.391 . S
H676 C684 0.950 . S
H677 C689 0.950 . S
H678 C686 0.950 . S
H679 C688 0.950 . S
H680 C690 0.950 . S
H681 C692 0.950 . S
H682 C694 0.950 . S
H683 C695 0.950 . S
C684 H676 0.950 . S
C684 C685 1.386 . S
C684 C686 1.391 . S
C685 C684 1.386 . S
C685 C689 1.393 . S
C686 H678 0.950 . S
C686 C684 1.391 . S
C686 C687 1.400 . S
C687 C686 1.400 . S
C687 C688 1.398 . S
C687 C693 1.491 . S
C688 H679 0.950 . S
C688 C687 1.398 . S
C688 C689 1.391 . S
C689 H677 0.950 . S
C689 C685 1.393 . S
C689 C688 1.391 . S
C690 H680 0.950 . S
C690 C691 1.386 . S
C690 C692 1.391 . S
C691 C690 1.386 . S
C691 C695 1.393 . S
C692 H681 0.950 . S
C692 C690 1.391 . S
C692 C693 1.400 . S
C693 C687 1.491 . S
C693 C692 1.400 . S
C693 C694 1.398 . S
C694 H682 0.950 . S
C694 C693 1.398 . S
C694 C695 1.391 . S
C695 H683 0.950 . S
C695 C691 1.393 . S
C695 C694 1.391 . S
H696 C704 0.950 . S
H697 C709 0.950 . S
H698 C706 0.950 . S
H699 C708 0.950 . S
H700 C710 0.950 . S
H701 C712 0.950 . S
H702 C714 0.950 . S
H703 C715 0.950 . S
C704 H696 0.950 . S
C704 C705 1.386 . S
C704 C706 1.391 . S
C705 C704 1.386 . S
C705 C709 1.393 . S
C706 H698 0.950 . S
C706 C704 1.391 . S
C706 C707 1.400 . S
C707 C706 1.400 . S
C707 C708 1.398 . S
C707 C713 1.491 1_545 S
C708 H699 0.950 . S
C708 C707 1.398 . S
C708 C709 1.391 . S
C709 H697 0.950 . S
C709 C705 1.393 . S
C709 C708 1.391 . S
C710 H700 0.950 . S
C710 C711 1.386 . S
C710 C712 1.391 . S
C711 C710 1.386 . S
C711 C715 1.393 . S
C712 H701 0.950 . S
C712 C710 1.391 . S
C712 C713 1.400 . S
C713 C707 1.491 1_565 S
C713 C712 1.400 . S
C713 C714 1.398 . S
C714 H702 0.950 . S
C714 C713 1.398 . S
C714 C715 1.391 . S
C715 H703 0.950 . S
C715 C711 1.393 . S
C715 C714 1.391 . S
H716 C724 0.950 . S
H717 C729 0.950 . S
H718 C726 0.950 . S
H719 C728 0.950 1_655 S
H720 C730 0.950 . S
H721 C732 0.950 . S
H722 C734 0.950 1_455 S
H723 C735 0.950 . S
C724 H716 0.950 . S
C724 C725 1.386 . S
C724 C726 1.391 . S
C725 C724 1.386 . S
C725 C729 1.393 . S
C726 H718 0.950 . S
C726 C724 1.391 . S
C726 C727 1.400 . S
C727 C726 1.400 . S
C727 C728 1.398 . S
C727 C733 1.491 1_445 S
C728 H719 0.950 1_455 S
C728 C727 1.398 . S
C728 C729 1.391 . S
C729 H717 0.950 . S
C729 C725 1.393 . S
C729 C728 1.391 . S
C730 H720 0.950 . S
C730 C731 1.386 . S
C730 C732 1.391 . S
C731 C730 1.386 . S
C731 C735 1.393 . S
C732 H721 0.950 . S
C732 C730 1.391 . S
C732 C733 1.400 . S
C733 C727 1.491 1_665 S
C733 C732 1.400 . S
C733 C734 1.398 . S
C734 H722 0.950 1_655 S
C734 C733 1.398 . S
C734 C735 1.391 . S
C735 H723 0.950 . S
C735 C731 1.393 . S
C735 C734 1.391 . S
H736 C744 0.946 1_545 S
H737 C749 0.950 . S
H738 C746 0.950 . S
H739 C748 0.950 . S
H740 C750 0.946 1_565 S
H741 C752 0.950 . S
H742 C754 0.950 . S
H743 C755 0.950 . S
C744 H736 0.946 1_565 S
C744 C745 1.386 . S
C744 C746 1.391 1_565 S
C745 C744 1.386 . S
C745 C749 1.393 . S
C746 H738 0.950 . S
C746 C744 1.391 1_545 S
C746 C747 1.400 1_545 S
C747 C746 1.400 1_565 S
C747 C748 1.398 . S
C747 C753 1.491 1_565 S
C748 H739 0.950 . S
C748 C747 1.398 . S
C748 C749 1.391 . S
C749 H737 0.950 . S
C749 C745 1.393 . S
C749 C748 1.391 . S
C750 H740 0.946 1_545 S
C750 C751 1.386 . S
C750 C752 1.391 1_545 S
C751 C750 1.386 . S
C751 C755 1.393 . S
C752 H741 0.950 . S
C752 C750 1.391 1_565 S
C752 C753 1.400 1_565 S
C753 C747 1.491 1_545 S
C753 C752 1.400 1_545 S
C753 C754 1.398 . S
C754 H742 0.950 . S
C754 C753 1.398 . S
C754 C755 1.391 . S
C755 H743 0.950 . S
C755 C751 1.393 . S
C755 C754 1.391 . S
H756 C764 0.950 1_455 S
H757 C769 0.950 . S
H758 C766 0.950 . S
H759 C768 0.950 1_545 S
H760 C770 0.950 1_655 S
H761 C772 0.950 . S
H762 C774 0.950 1_565 S
H763 C775 0.950 . S
C764 H756 0.950 1_655 S
C764 C765 1.386 . S
C764 C766 1.391 1_655 S
C765 C764 1.386 . S
C765 C769 1.393 . S
C766 H758 0.950 . S
C766 C764 1.391 1_455 S
C766 C767 1.400 1_455 S
C767 C766 1.400 1_655 S
C767 C768 1.398 . S
C767 C773 1.491 1_665 S
C768 H759 0.950 1_565 S
C768 C767 1.398 . S
C768 C769 1.391 . S
C769 H757 0.950 . S
C769 C765 1.393 . S
C769 C768 1.391 . S
C770 H760 0.950 1_455 S
C770 C771 1.386 . S
C770 C772 1.391 1_455 S
C771 C770 1.386 . S
C771 C775 1.393 . S
C772 H761 0.950 . S
C772 C770 1.391 1_655 S
C772 C773 1.400 1_655 S
C773 C767 1.491 1_445 S
C773 C772 1.400 1_455 S
C773 C774 1.398 . S
C774 H762 0.950 1_545 S
C774 C773 1.398 . S
C774 C775 1.391 . S
C775 H763 0.950 . S
C775 C771 1.393 . S
C775 C774 1.391 . S
H776 C784 0.950 . S
H777 C789 0.950 . S
H778 C786 0.950 . S
H779 C788 0.950 . S
H780 C790 0.950 . S
H781 C792 0.950 . S
H782 C794 0.950 . S
H783 C795 0.950 . S
C784 H776 0.950 . S
C784 C785 1.386 . S
C784 C786 1.391 . S
C785 C784 1.386 . S
C785 C789 1.393 . S
C786 H778 0.950 . S
C786 C784 1.391 . S
C786 C787 1.400 . S
C787 C786 1.400 . S
C787 C788 1.398 . S
C787 C793 1.491 1_455 S
C788 H779 0.950 . S
C788 C787 1.398 . S
C788 C789 1.391 . S
C789 H777 0.950 . S
C789 C785 1.393 . S
C789 C788 1.391 . S
C790 H780 0.950 . S
C790 C791 1.386 . S
C790 C792 1.391 . S
C791 C790 1.386 . S
C791 C795 1.393 . S
C792 H781 0.950 . S
C792 C790 1.391 . S
C792 C793 1.400 . S
C793 C787 1.491 1_655 S
C793 C792 1.400 . S
C793 C794 1.398 . S
C794 H782 0.950 . S
C794 C793 1.398 . S
C794 C795 1.391 . S
C795 H783 0.950 . S
C795 C791 1.393 . S
C795 C794 1.391 . S
H796 C804 0.950 . S
H797 C809 0.950 . S
H798 C806 0.950 . S
H799 C808 0.950 . S
H800 C810 0.950 . S
H801 C812 0.950 . S
H802 C814 0.950 . S
H803 C815 0.950 . S
C804 H796 0.950 . S
C804 C805 1.386 . S
C804 C806 1.391 . S
C805 C804 1.386 . S
C805 C809 1.393 . S
C806 H798 0.950 . S
C806 C804 1.391 . S
C806 C807 1.400 . S
C807 C806 1.400 . S
C807 C808 1.398 . S
C807 C813 1.491 . S
C808 H799 0.950 . S
C808 C807 1.398 . S
C808 C809 1.391 . S
C809 H797 0.950 . S
C809 C805 1.393 . S
C809 C808 1.391 . S
C810 H800 0.950 . S
C810 C811 1.386 . S
C810 C812 1.391 . S
C811 C810 1.386 . S
C811 C815 1.393 . S
C812 H801 0.950 . S
C812 C810 1.391 . S
C812 C813 1.400 . S
C813 C807 1.491 . S
C813 C812 1.400 . S
C813 C814 1.398 . S
C814 H802 0.950 . S
C814 C813 1.398 . S
C814 C815 1.391 . S
C815 H803 0.950 . S
C815 C811 1.393 . S
C815 C814 1.391 . S
H816 C824 0.950 . S
H817 C829 0.950 . S
H818 C826 0.950 . S
H819 C828 0.950 . S
H820 C830 0.950 . S
H821 C832 0.950 . S
H822 C834 0.950 . S
H823 C835 0.950 . S
C824 H816 0.950 . S
C824 C825 1.386 . S
C824 C826 1.391 . S
C825 C824 1.386 . S
C825 C829 1.393 . S
C826 H818 0.950 . S
C826 C824 1.391 . S
C826 C827 1.400 . S
C827 C826 1.400 . S
C827 C828 1.398 . S
C827 C833 1.491 . S
C828 H819 0.950 . S
C828 C827 1.398 . S
C828 C829 1.391 . S
C829 H817 0.950 . S
C829 C825 1.393 . S
C829 C828 1.391 . S
C830 H820 0.950 . S
C830 C831 1.386 . S
C830 C832 1.391 . S
C831 C830 1.386 . S
C831 C835 1.393 . S
C832 H821 0.950 . S
C832 C830 1.391 . S
C832 C833 1.400 . S
C833 C827 1.491 . S
C833 C832 1.400 . S
C833 C834 1.398 . S
C834 H822 0.950 . S
C834 C833 1.398 . S
C834 C835 1.391 . S
C835 H823 0.950 . S
C835 C831 1.393 . S
C835 C834 1.391 . S
H836 C844 0.950 . S
H837 C849 0.950 . S
H838 C846 0.950 1_545 S
H839 C848 0.950 . S
H840 C850 0.950 . S
H841 C852 0.950 1_565 S
H842 C854 0.950 . S
H843 C855 0.950 . S
C844 H836 0.950 . S
C844 C845 1.386 . S
C844 C846 1.391 . S
C845 C844 1.386 . S
C845 C849 1.393 . S
C846 H838 0.950 1_565 S
C846 C844 1.391 . S
C846 C847 1.400 . S
C847 C846 1.400 . S
C847 C848 1.398 . S
C847 C853 1.491 1_565 S
C848 H839 0.950 . S
C848 C847 1.398 . S
C848 C849 1.391 . S
C849 H837 0.950 . S
C849 C845 1.393 . S
C849 C848 1.391 . S
C850 H840 0.950 . S
C850 C851 1.386 . S
C850 C852 1.391 . S
C851 C850 1.386 . S
C851 C855 1.393 . S
C852 H841 0.950 1_545 S
C852 C850 1.391 . S
C852 C853 1.400 . S
C853 C847 1.491 1_545 S
C853 C852 1.400 . S
C853 C854 1.398 . S
C854 H842 0.950 . S
C854 C853 1.398 . S
C854 C855 1.391 . S
C855 H843 0.950 . S
C855 C851 1.393 . S
C855 C854 1.391 . S
H856 C864 0.950 . S
H857 C869 0.950 . S
H858 C866 0.950 . S
H859 C868 0.950 . S
H860 C870 0.950 . S
H861 C872 0.950 . S
H862 C874 0.950 . S
H863 C875 0.950 . S
C864 H856 0.950 . S
C864 C865 1.386 . S
C864 C866 1.391 1_565 S
C865 C864 1.386 . S
C865 C869 1.393 . S
C866 H858 0.950 . S
C866 C864 1.391 1_545 S
C866 C867 1.400 1_545 S
C867 C866 1.400 1_565 S
C867 C868 1.398 . S
C867 C873 1.491 1_665 S
C868 H859 0.950 . S
C868 C867 1.398 . S
C868 C869 1.391 . S
C869 H857 0.950 . S
C869 C865 1.393 . S
C869 C868 1.391 . S
C870 H860 0.950 . S
C870 C871 1.386 . S
C870 C872 1.391 1_545 S
C871 C870 1.386 . S
C871 C875 1.393 . S
C872 H861 0.950 . S
C872 C870 1.391 1_565 S
C872 C873 1.400 1_565 S
C873 C867 1.491 1_445 S
C873 C872 1.400 1_545 S
C873 C874 1.398 . S
C874 H862 0.950 . S
C874 C873 1.398 . S
C874 C875 1.391 . S
C875 H863 0.950 . S
C875 C871 1.393 . S
C875 C874 1.391 . S
H876 C884 0.950 . S
H877 C889 0.950 . S
H878 C886 0.950 . S
H879 C888 0.950 . S
H880 C890 0.950 . S
H881 C892 0.950 . S
H882 C894 0.950 . S
H883 C895 0.950 . S
C884 H876 0.950 . S
C884 C885 1.386 . S
C884 C886 1.391 . S
C885 C884 1.386 . S
C885 C889 1.393 . S
C886 H878 0.950 . S
C886 C884 1.391 . S
C886 C887 1.400 . S
C887 C886 1.400 . S
C887 C888 1.398 1_455 S
C887 C893 1.491 1_455 S
C888 H879 0.950 . S
C888 C887 1.398 1_655 S
C888 C889 1.391 1_655 S
C889 H877 0.950 . S
C889 C885 1.393 . S
C889 C888 1.391 1_455 S
C890 H880 0.950 . S
C890 C891 1.386 . S
C890 C892 1.391 . S
C891 C890 1.386 . S
C891 C895 1.393 . S
C892 H881 0.950 . S
C892 C890 1.391 . S
C892 C893 1.400 . S
C893 C887 1.491 1_655 S
C893 C892 1.400 . S
C893 C894 1.398 1_655 S
C894 H882 0.950 . S
C894 C893 1.398 1_455 S
C894 C895 1.391 1_455 S
C895 H883 0.950 . S
C895 C891 1.393 . S
C895 C894 1.391 1_655 S
H896 C904 0.950 . S
H897 C909 0.950 . S
H898 C906 0.950 . S
H899 C908 0.950 . S
H900 C910 0.950 . S
H901 C912 0.950 . S
H902 C914 0.950 . S
H903 C915 0.950 . S
C904 H896 0.950 . S
C904 C905 1.386 . S
C904 C906 1.391 . S
C905 C904 1.386 . S
C905 C909 1.393 . S
C906 H898 0.950 . S
C906 C904 1.391 . S
C906 C907 1.400 . S
C907 C906 1.400 . S
C907 C908 1.398 . S
C907 C913 1.491 . S
C908 H899 0.950 . S
C908 C907 1.398 . S
C908 C909 1.391 . S
C909 H897 0.950 . S
C909 C905 1.393 . S
C909 C908 1.391 . S
C910 H900 0.950 . S
C910 C911 1.386 . S
C910 C912 1.391 . S
C911 C910 1.386 . S
C911 C915 1.393 . S
C912 H901 0.950 . S
C912 C910 1.391 . S
C912 C913 1.400 . S
C913 C907 1.491 . S
C913 C912 1.400 . S
C913 C914 1.398 . S
C914 H902 0.950 . S
C914 C913 1.398 . S
C914 C915 1.391 . S
C915 H903 0.950 . S
C915 C911 1.393 . S
C915 C914 1.391 . S
H916 C924 0.950 . S
H917 C929 0.950 . S
H918 C926 0.950 . S
H919 C928 0.950 . S
H920 C930 0.950 . S
H921 C932 0.950 . S
H922 C934 0.950 . S
H923 C935 0.950 . S
C924 H916 0.950 . S
C924 C925 1.386 . S
C924 C926 1.391 . S
C925 C924 1.386 . S
C925 C929 1.393 . S
C926 H918 0.950 . S
C926 C924 1.391 . S
C926 C927 1.400 . S
C927 C926 1.400 . S
C927 C928 1.398 . S
C927 C933 1.491 . S
C928 H919 0.950 . S
C928 C927 1.398 . S
C928 C929 1.391 . S
C929 H917 0.950 . S
C929 C925 1.393 . S
C929 C928 1.391 . S
C930 H920 0.950 . S
C930 C931 1.386 . S
C930 C932 1.391 . S
C931 C930 1.386 . S
C931 C935 1.393 . S
C932 H921 0.950 . S
C932 C930 1.391 . S
C932 C933 1.400 . S
C933 C927 1.491 . S
C933 C932 1.400 . S
C933 C934 1.398 . S
C934 H922 0.950 . S
C934 C933 1.398 . S
C934 C935 1.391 . S
C935 H923 0.950 . S
C935 C931 1.393 . S
C935 C934 1.391 . S
H936 C944 0.950 . S
H937 C949 0.950 . S
H938 C946 0.950 . S
H939 C948 0.950 . S
H940 C950 0.950 . S
H941 C952 0.950 . S
H942 C954 0.950 . S
H943 C955 0.950 . S
C944 H936 0.950 . S
C944 C945 1.386 . S
C944 C946 1.391 . S
C945 C944 1.386 . S
C945 C949 1.393 . S
C946 H938 0.950 . S
C946 C944 1.391 . S
C946 C947 1.400 . S
C947 C946 1.400 . S
C947 C948 1.398 . S
C947 C953 1.491 . S
C948 H939 0.950 . S
C948 C947 1.398 . S
C948 C949 1.391 . S
C949 H937 0.950 . S
C949 C945 1.393 . S
C949 C948 1.391 . S
C950 H940 0.950 . S
C950 C951 1.386 . S
C950 C952 1.391 . S
C951 C950 1.386 . S
C951 C955 1.393 . S
C952 H941 0.950 . S
C952 C950 1.391 . S
C952 C953 1.400 . S
C953 C947 1.491 . S
C953 C952 1.400 . S
C953 C954 1.398 . S
C954 H942 0.950 . S
C954 C953 1.398 . S
C954 C955 1.391 . S
C955 H943 0.950 . S
C955 C951 1.393 . S
C955 C954 1.391 . S
H956 C964 0.950 . S
H957 C969 0.950 . S
H958 C966 0.950 . S
H959 C968 0.950 . S
H960 C970 0.950 . S
H961 C972 0.950 . S
H962 C974 0.950 . S
H963 C975 0.950 . S
C964 H956 0.950 . S
C964 C965 1.386 . S
C964 C966 1.391 . S
C965 C964 1.386 . S
C965 C969 1.393 . S
C966 H958 0.950 . S
C966 C964 1.391 . S
C966 C967 1.400 . S
C967 C966 1.400 . S
C967 C968 1.398 . S
C967 C973 1.491 . S
C968 H959 0.950 . S
C968 C967 1.398 . S
C968 C969 1.391 . S
C969 H957 0.950 . S
C969 C965 1.393 . S
C969 C968 1.391 . S
C970 H960 0.950 . S
C970 C971 1.386 . S
C970 C972 1.391 . S
C971 C970 1.386 . S
C971 C975 1.393 . S
C972 H961 0.950 . S
C972 C970 1.391 . S
C972 C973 1.400 . S
C973 C967 1.491 . S
C973 C972 1.400 . S
C973 C974 1.398 . S
C974 H962 0.950 . S
C974 C973 1.398 . S
C974 C975 1.391 . S
C975 H963 0.950 . S
C975 C971 1.393 . S
C975 C974 1.391 . S
H976 C984 0.950 . S
H977 C989 0.950 . S
H978 C986 0.950 . S
H979 C988 0.950 . S
H980 C990 0.950 . S
H981 C992 0.950 . S
H982 C994 0.950 . S
H983 C995 0.950 . S
C984 H976 0.950 . S
C984 C985 1.386 . S
C984 C986 1.391 . S
C985 C984 1.386 . S
C985 C989 1.393 . S
C986 H978 0.950 . S
C986 C984 1.391 . S
C986 C987 1.400 . S
C987 C986 1.400 . S
C987 C988 1.398 . S
C987 C993 1.491 . S
C988 H979 0.950 . S
C988 C987 1.398 . S
C988 C989 1.391 . S
C989 H977 0.950 . S
C989 C985 1.393 . S
C989 C988 1.391 . S
C990 H980 0.950 . S
C990 C991 1.386 . S
C990 C992 1.391 . S
C991 C990 1.386 . S
C991 C995 1.393 . S
C992 H981 0.950 . S
C992 C990 1.391 . S
C992 C993 1.400 . S
C993 C987 1.491 . S
C993 C992 1.400 . S
C993 C994 1.398 . S
C994 H982 0.950 . S
C994 C993 1.398 . S
C994 C995 1.391 . S
C995 H983 0.950 . S
C995 C991 1.393 . S
C995 C994 1.391 . S
H996 C1004 0.950 . S
H997 C1009 0.950 . S
H998 C1006 0.950 . S
H999 C1008 0.950 . S
H1000 C1010 0.950 . S
H1001 C1012 0.950 . S
H1002 C1014 0.950 . S
H1003 C1015 0.950 . S
C1004 H996 0.950 . S
C1004 C1005 1.386 . S
C1004 C1006 1.391 . S
C1005 C1004 1.386 . S
C1005 C1009 1.393 . S
C1006 H998 0.950 . S
C1006 C1004 1.391 . S
C1006 C1007 1.400 . S
C1007 C1006 1.400 . S
C1007 C1008 1.398 . S
C1007 C1013 1.491 . S
C1008 H999 0.950 . S
C1008 C1007 1.398 . S
C1008 C1009 1.391 . S
C1009 H997 0.950 . S
C1009 C1005 1.393 . S
C1009 C1008 1.391 . S
C1010 H1000 0.950 . S
C1010 C1011 1.386 . S
C1010 C1012 1.391 . S
C1011 C1010 1.386 . S
C1011 C1015 1.393 . S
C1012 H1001 0.950 . S
C1012 C1010 1.391 . S
C1012 C1013 1.400 . S
C1013 C1007 1.491 . S
C1013 C1012 1.400 . S
C1013 C1014 1.398 . S
C1014 H1002 0.950 . S
C1014 C1013 1.398 . S
C1014 C1015 1.391 . S
C1015 H1003 0.950 . S
C1015 C1011 1.393 . S
C1015 C1014 1.391 . S
H1016 C1024 0.950 . S
H1017 C1029 0.950 . S
H1018 C1026 0.950 . S
H1019 C1028 0.950 . S
H1020 C1030 0.950 . S
H1021 C1032 0.950 . S
H1022 C1034 0.950 . S
H1023 C1035 0.950 . S
C1024 H1016 0.950 . S
C1024 C1025 1.386 . S
C1024 C1026 1.391 . S
C1025 C1024 1.386 . S
C1025 C1029 1.393 . S
C1026 H1018 0.950 . S
C1026 C1024 1.391 . S
C1026 C1027 1.400 . S
C1027 C1026 1.400 . S
C1027 C1028 1.398 . S
C1027 C1033 1.491 . S
C1028 H1019 0.950 . S
C1028 C1027 1.398 . S
C1028 C1029 1.391 . S
C1029 H1017 0.950 . S
C1029 C1025 1.393 . S
C1029 C1028 1.391 . S
C1030 H1020 0.950 . S
C1030 C1031 1.386 . S
C1030 C1032 1.391 . S
C1031 C1030 1.386 . S
C1031 C1035 1.393 . S
C1032 H1021 0.950 . S
C1032 C1030 1.391 . S
C1032 C1033 1.400 . S
C1033 C1027 1.491 . S
C1033 C1032 1.400 . S
C1033 C1034 1.398 . S
C1034 H1022 0.950 . S
C1034 C1033 1.398 . S
C1034 C1035 1.391 . S
C1035 H1023 0.950 . S
C1035 C1031 1.393 . S
C1035 C1034 1.391 . S
H1036 C1044 0.950 . S
H1037 C1049 0.950 . S
H1038 C1046 0.950 . S
H1039 C1048 0.950 . S
H1040 C1050 0.950 . S
H1041 C1052 0.950 . S
H1042 C1054 0.950 . S
H1043 C1055 0.950 . S
C1044 H1036 0.950 . S
C1044 C1045 1.386 . S
C1044 C1046 1.391 . S
C1045 C1044 1.386 . S
C1045 C1049 1.393 . S
C1046 H1038 0.950 . S
C1046 C1044 1.391 . S
C1046 C1047 1.400 . S
C1047 C1046 1.400 . S
C1047 C1048 1.398 . S
C1047 C1053 1.491 . S
C1048 H1039 0.950 . S
C1048 C1047 1.398 . S
C1048 C1049 1.391 . S
C1049 H1037 0.950 . S
C1049 C1045 1.393 . S
C1049 C1048 1.391 . S
C1050 H1040 0.950 . S
C1050 C1051 1.386 . S
C1050 C1052 1.391 . S
C1051 C1050 1.386 . S
C1051 C1055 1.393 . S
C1052 H1041 0.950 . S
C1052 C1050 1.391 . S
C1052 C1053 1.400 . S
C1053 C1047 1.491 . S
C1053 C1052 1.400 . S
C1053 C1054 1.398 . S
C1054 H1042 0.950 . S
C1054 C1053 1.398 . S
C1054 C1055 1.391 . S
C1055 H1043 0.950 . S
C1055 C1051 1.393 . S
C1055 C1054 1.391 . S
H1056 C1064 0.950 . S
H1057 C1069 0.950 . S
H1058 C1066 0.950 . S
H1059 C1068 0.950 . S
H1060 C1070 0.950 . S
H1061 C1072 0.950 . S
H1062 C1074 0.950 . S
H1063 C1075 0.950 . S
C1064 H1056 0.950 . S
C1064 C1065 1.386 . S
C1064 C1066 1.391 . S
C1065 C1064 1.386 . S
C1065 C1069 1.393 . S
C1066 H1058 0.950 . S
C1066 C1064 1.391 . S
C1066 C1067 1.400 . S
C1067 C1066 1.400 . S
C1067 C1068 1.398 . S
C1067 C1073 1.491 . S
C1068 H1059 0.950 . S
C1068 C1067 1.398 . S
C1068 C1069 1.391 . S
C1069 H1057 0.950 . S
C1069 C1065 1.393 . S
C1069 C1068 1.391 . S
C1070 H1060 0.950 . S
C1070 C1071 1.386 . S
C1070 C1072 1.391 . S
C1071 C1070 1.386 . S
C1071 C1075 1.393 . S
C1072 H1061 0.950 . S
C1072 C1070 1.391 . S
C1072 C1073 1.400 . S
C1073 C1067 1.491 . S
C1073 C1072 1.400 . S
C1073 C1074 1.398 . S
C1074 H1062 0.950 . S
C1074 C1073 1.398 . S
C1074 C1075 1.391 . S
C1075 H1063 0.950 . S
C1075 C1071 1.393 . S
C1075 C1074 1.391 . S
H1076 C1084 0.950 . S
H1077 C1089 0.950 . S
H1078 C1086 0.950 . S
H1079 C1088 0.950 . S
H1080 C1090 0.950 . S
H1081 C1092 0.950 . S
H1082 C1094 0.950 . S
H1083 C1095 0.950 . S
C1084 H1076 0.950 . S
C1084 C1085 1.386 . S
C1084 C1086 1.391 . S
C1085 C1084 1.386 . S
C1085 C1089 1.393 . S
C1086 H1078 0.950 . S
C1086 C1084 1.391 . S
C1086 C1087 1.400 . S
C1087 C1086 1.400 . S
C1087 C1088 1.398 . S
C1087 C1093 1.491 . S
C1088 H1079 0.950 . S
C1088 C1087 1.398 . S
C1088 C1089 1.391 . S
C1089 H1077 0.950 . S
C1089 C1085 1.393 . S
C1089 C1088 1.391 . S
C1090 H1080 0.950 . S
C1090 C1091 1.386 . S
C1090 C1092 1.391 . S
C1091 C1090 1.386 . S
C1091 C1095 1.393 . S
C1092 H1081 0.950 . S
C1092 C1090 1.391 . S
C1092 C1093 1.400 . S
C1093 C1087 1.491 . S
C1093 C1092 1.400 . S
C1093 C1094 1.398 . S
C1094 H1082 0.950 . S
C1094 C1093 1.398 . S
C1094 C1095 1.391 . S
C1095 H1083 0.950 . S
C1095 C1091 1.393 . S
C1095 C1094 1.391 . S
H1096 C1104 0.950 . S
H1097 C1109 0.950 . S
H1098 C1106 0.950 . S
H1099 C1108 0.950 . S
H1100 C1110 0.950 . S
H1101 C1112 0.950 . S
H1102 C1114 0.950 . S
H1103 C1115 0.950 . S
C1104 H1096 0.950 . S
C1104 C1105 1.386 . S
C1104 C1106 1.391 . S
C1105 C1104 1.386 . S
C1105 C1109 1.393 . S
C1106 H1098 0.950 . S
C1106 C1104 1.391 . S
C1106 C1107 1.400 . S
C1107 C1106 1.400 . S
C1107 C1108 1.398 . S
C1107 C1113 1.491 . S
C1108 H1099 0.950 . S
C1108 C1107 1.398 . S
C1108 C1109 1.391 . S
C1109 H1097 0.950 . S
C1109 C1105 1.393 . S
C1109 C1108 1.391 . S
C1110 H1100 0.950 . S
C1110 C1111 1.386 . S
C1110 C1112 1.391 . S
C1111 C1110 1.386 . S
C1111 C1115 1.393 . S
C1112 H1101 0.950 . S
C1112 C1110 1.391 . S
C1112 C1113 1.400 . S
C1113 C1107 1.491 . S
C1113 C1112 1.400 . S
C1113 C1114 1.398 . S
C1114 H1102 0.950 . S
C1114 C1113 1.398 . S
C1114 C1115 1.391 . S
C1115 H1103 0.950 . S
C1115 C1111 1.393 . S
C1115 C1114 1.391 . S
H1116 C1124 0.950 . S
H1117 C1129 0.950 . S
H1118 C1126 0.950 . S
H1119 C1128 0.950 . S
H1120 C1130 0.950 . S
H1121 C1132 0.950 . S
H1122 C1134 0.950 . S
H1123 C1135 0.950 . S
C1124 H1116 0.950 . S
C1124 C1125 1.386 . S
C1124 C1126 1.391 . S
C1125 C1124 1.386 . S
C1125 C1129 1.393 . S
C1126 H1118 0.950 . S
C1126 C1124 1.391 . S
C1126 C1127 1.400 . S
C1127 C1126 1.400 . S
C1127 C1128 1.398 . S
C1127 C1133 1.491 1_556 S
C1128 H1119 0.950 . S
C1128 C1127 1.398 . S
C1128 C1129 1.391 . S
C1129 H1117 0.950 . S
C1129 C1125 1.393 . S
C1129 C1128 1.391 . S
C1130 H1120 0.950 . S
C1130 C1131 1.386 . S
C1130 C1132 1.391 . S
C1131 C1130 1.386 . S
C1131 C1135 1.393 . S
C1132 H1121 0.950 . S
C1132 C1130 1.391 . S
C1132 C1133 1.400 . S
C1133 C1127 1.491 1_554 S
C1133 C1132 1.400 . S
C1133 C1134 1.398 . S
C1134 H1122 0.950 . S
C1134 C1133 1.398 . S
C1134 C1135 1.391 . S
C1135 H1123 0.950 . S
C1135 C1131 1.393 . S
C1135 C1134 1.391 . S
H1136 C1144 0.950 . S
H1137 C1149 0.950 . S
H1138 C1146 0.950 . S
H1139 C1148 0.950 . S
H1140 C1150 0.950 . S
H1141 C1152 0.950 . S
H1142 C1154 0.950 . S
H1143 C1155 0.950 . S
C1144 H1136 0.950 . S
C1144 C1145 1.386 . S
C1144 C1146 1.391 . S
C1145 C1144 1.386 . S
C1145 C1149 1.393 . S
C1146 H1138 0.950 . S
C1146 C1144 1.391 . S
C1146 C1147 1.400 . S
C1147 C1146 1.400 . S
C1147 C1148 1.398 . S
C1147 C1153 1.491 1_554 S
C1148 H1139 0.950 . S
C1148 C1147 1.398 . S
C1148 C1149 1.391 . S
C1149 H1137 0.950 . S
C1149 C1145 1.393 . S
C1149 C1148 1.391 . S
C1150 H1140 0.950 . S
C1150 C1151 1.386 . S
C1150 C1152 1.391 . S
C1151 C1150 1.386 . S
C1151 C1155 1.393 . S
C1152 H1141 0.950 . S
C1152 C1150 1.391 . S
C1152 C1153 1.400 . S
C1153 C1147 1.491 1_556 S
C1153 C1152 1.400 . S
C1153 C1154 1.398 . S
C1154 H1142 0.950 . S
C1154 C1153 1.398 . S
C1154 C1155 1.391 . S
C1155 H1143 0.950 . S
C1155 C1151 1.393 . S
C1155 C1154 1.391 . S
H1156 C1164 0.950 . S
H1157 C1169 0.950 . S
H1158 C1166 0.950 . S
H1159 C1168 0.950 . S
H1160 C1170 0.950 . S
H1161 C1172 0.950 . S
H1162 C1174 0.950 . S
H1163 C1175 0.950 . S
C1164 H1156 0.950 . S
C1164 C1165 1.386 . S
C1164 C1166 1.391 . S
C1165 C1164 1.386 . S
C1165 C1169 1.393 . S
C1166 H1158 0.950 . S
C1166 C1164 1.391 . S
C1166 C1167 1.400 . S
C1167 C1166 1.400 . S
C1167 C1168 1.398 . S
C1167 C1173 1.491 . S
C1168 H1159 0.950 . S
C1168 C1167 1.398 . S
C1168 C1169 1.391 . S
C1169 H1157 0.950 . S
C1169 C1165 1.393 . S
C1169 C1168 1.391 . S
C1170 H1160 0.950 . S
C1170 C1171 1.386 . S
C1170 C1172 1.391 . S
C1171 C1170 1.386 . S
C1171 C1175 1.393 . S
C1172 H1161 0.950 . S
C1172 C1170 1.391 . S
C1172 C1173 1.400 . S
C1173 C1167 1.491 . S
C1173 C1172 1.400 . S
C1173 C1174 1.398 . S
C1174 H1162 0.950 . S
C1174 C1173 1.398 . S
C1174 C1175 1.391 . S
C1175 H1163 0.950 . S
C1175 C1171 1.393 . S
C1175 C1174 1.391 . S
H1176 C1184 0.950 . S
H1177 C1189 0.950 . S
H1178 C1186 0.950 . S
H1179 C1188 0.950 . S
H1180 C1190 0.950 . S
H1181 C1192 0.950 . S
H1182 C1194 0.950 . S
H1183 C1195 0.950 . S
C1184 H1176 0.950 . S
C1184 C1185 1.386 . S
C1184 C1186 1.391 . S
C1185 C1184 1.386 . S
C1185 C1189 1.393 . S
C1186 H1178 0.950 . S
C1186 C1184 1.391 . S
C1186 C1187 1.400 . S
C1187 C1186 1.400 . S
C1187 C1188 1.398 . S
C1187 C1193 1.491 . S
C1188 H1179 0.950 . S
C1188 C1187 1.398 . S
C1188 C1189 1.391 . S
C1189 H1177 0.950 . S
C1189 C1185 1.393 . S
C1189 C1188 1.391 . S
C1190 H1180 0.950 . S
C1190 C1191 1.386 . S
C1190 C1192 1.391 . S
C1191 C1190 1.386 . S
C1191 C1195 1.393 . S
C1192 H1181 0.950 . S
C1192 C1190 1.391 . S
C1192 C1193 1.400 . S
C1193 C1187 1.491 . S
C1193 C1192 1.400 . S
C1193 C1194 1.398 . S
C1194 H1182 0.950 . S
C1194 C1193 1.398 . S
C1194 C1195 1.391 . S
C1195 H1183 0.950 . S
C1195 C1191 1.393 . S
C1195 C1194 1.391 . S
H1196 C1204 0.950 . S
H1197 C1209 0.950 . S
H1198 C1206 0.950 . S
H1199 C1208 0.950 . S
H1200 C1210 0.950 . S
H1201 C1212 0.950 . S
H1202 C1214 0.950 . S
H1203 C1215 0.950 . S
C1204 H1196 0.950 . S
C1204 C1205 1.386 . S
C1204 C1206 1.391 . S
C1205 C1204 1.386 . S
C1205 C1209 1.393 . S
C1206 H1198 0.950 . S
C1206 C1204 1.391 . S
C1206 C1207 1.400 . S
C1207 C1206 1.400 . S
C1207 C1208 1.398 . S
C1207 C1213 1.491 . S
C1208 H1199 0.950 . S
C1208 C1207 1.398 . S
C1208 C1209 1.391 . S
C1209 H1197 0.950 . S
C1209 C1205 1.393 . S
C1209 C1208 1.391 . S
C1210 H1200 0.950 . S
C1210 C1211 1.386 . S
C1210 C1212 1.391 . S
C1211 C1210 1.386 . S
C1211 C1215 1.393 . S
C1212 H1201 0.950 . S
C1212 C1210 1.391 . S
C1212 C1213 1.400 . S
C1213 C1207 1.491 . S
C1213 C1212 1.400 . S
C1213 C1214 1.398 . S
C1214 H1202 0.950 . S
C1214 C1213 1.398 . S
C1214 C1215 1.391 . S
C1215 H1203 0.950 . S
C1215 C1211 1.393 . S
C1215 C1214 1.391 . S
C585 C374 1.440 . S
C591 C14 1.434 . S
C605 C50 1.441 . S
C611 C410 1.459 . S
C625 C302 1.441 . S
C631 C86 1.434 . S
C645 C338 1.449 . S
C651 C122 1.430 . S
C665 C158 1.432 . S
C671 C518 1.457 . S
C685 C554 1.458 . S
C691 C194 1.434 . S
C705 C230 1.437 . S
C711 C446 1.436 . S
C725 C482 1.440 . S
C731 C266 1.434 . S
C745 C362 1.521 . S
C751 C2 1.519 . S
C765 C38 1.522 . S
C771 C398 1.520 . S
C785 C74 1.518 . S
C791 C290 1.517 . S
C805 C110 1.528 . S
C811 C326 1.527 . S
C825 C146 1.521 . S
C831 C506 1.523 . S
C845 C182 1.521 . S
C851 C542 1.523 . S
C865 C434 1.526 . S
C871 C218 1.524 . S
C885 C470 1.525 . S
C891 C254 1.526 . S
C905 C4 1.264 . S
C911 C220 1.233 . S
C925 C40 1.259 . S
C931 C256 1.243 . S
C945 C76 1.254 . S
C951 C148 1.248 . S
C965 C112 1.259 . S
C971 C184 1.235 . S
C985 C292 1.259 . S
C991 C508 1.236 . S
C1005 C544 1.248 . S
C1011 C328 1.254 . S
C1025 C364 1.234 . S
C1031 C436 1.264 . S
C1045 C472 1.260 . S
C1051 C400 1.241 . S
C1065 C3 1.275 . S
C1071 C543 1.267 . S
C1085 C435 1.253 . S
C1091 C39 1.260 . S
C1105 C471 1.254 . S
C1111 C75 1.255 . S
C1125 C507 1.253 . S
C1131 C111 1.264 . S
C1145 C327 1.271 . S
C1151 C147 1.258 . S
C1165 C363 1.272 . S
C1171 C183 1.274 . S
C1185 C219 1.272 . S
C1191 C399 1.274 . S
C1205 C255 1.253 . S
C1211 C291 1.263 . S
