# Generated by pormake.
# Topology hbo, (4)-cn, num edge types: 1
# Building blocks:
#     Node 0, Type 0, BuildingBlock: QUQFOY_clean_sbu_1, # of connection points: 4
#     Node 1, Type 0, BuildingBlock: QUQFOY_clean_sbu_1, # of connection points: 4
#     Node 2, Type 0, BuildingBlock: QUQFOY_clean_sbu_1, # of connection points: 4
#     Node 3, Type 0, BuildingBlock: QUQFOY_clean_sbu_1, # of connection points: 4
#     Node 4, Type 0, BuildingBlock: QUQFOY_clean_sbu_1, # of connection points: 4
#     Node 5, Type 0, BuildingBlock: QUQFOY_clean_sbu_1, # of connection points: 4
#     Node 6, Type 0, BuildingBlock: QUQFOY_clean_sbu_1, # of connection points: 4
#     Node 7, Type 0, BuildingBlock: QUQFOY_clean_sbu_1, # of connection points: 4
#     Node 8, Type 0, BuildingBlock: QUQFOY_clean_sbu_1, # of connection points: 4
#     Node 9, Type 0, BuildingBlock: QUQFOY_clean_sbu_1, # of connection points: 4
#     Node 10, Type 0, BuildingBlock: QUQFOY_clean_sbu_1, # of connection points: 4
#     Node 11, Type 0, BuildingBlock: QUQFOY_clean_sbu_1, # of connection points: 4
#     Node 12, Type 0, BuildingBlock: QUQFOY_clean_sbu_1, # of connection points: 4
#     Node 13, Type 0, BuildingBlock: QUQFOY_clean_sbu_1, # of connection points: 4
#     Node 14, Type 0, BuildingBlock: QUQFOY_clean_sbu_1, # of connection points: 4
#     Node 15, Type 0, BuildingBlock: QUQFOY_clean_sbu_1, # of connection points: 4
#     Node 16, Type 0, BuildingBlock: QUQFOY_clean_sbu_1, # of connection points: 4
#     Node 17, Type 0, BuildingBlock: QUQFOY_clean_sbu_1, # of connection points: 4
#     Node 18, Type 0, BuildingBlock: QUQFOY_clean_sbu_1, # of connection points: 4
#     Node 19, Type 0, BuildingBlock: QUQFOY_clean_sbu_1, # of connection points: 4
#     Node 20, Type 0, BuildingBlock: QUQFOY_clean_sbu_1, # of connection points: 4
#     Node 21, Type 0, BuildingBlock: QUQFOY_clean_sbu_1, # of connection points: 4
#     Node 22, Type 0, BuildingBlock: QUQFOY_clean_sbu_1, # of connection points: 4
#     Node 23, Type 0, BuildingBlock: QUQFOY_clean_sbu_1, # of connection points: 4
#     Edge 24, Type (0, 0), None
#     Edge 25, Type (0, 0), None
#     Edge 26, Type (0, 0), None
#     Edge 27, Type (0, 0), None
#     Edge 28, Type (0, 0), None
#     Edge 29, Type (0, 0), None
#     Edge 30, Type (0, 0), None
#     Edge 31, Type (0, 0), None
#     Edge 32, Type (0, 0), None
#     Edge 33, Type (0, 0), None
#     Edge 34, Type (0, 0), None
#     Edge 35, Type (0, 0), None
#     Edge 36, Type (0, 0), None
#     Edge 37, Type (0, 0), None
#     Edge 38, Type (0, 0), None
#     Edge 39, Type (0, 0), None
#     Edge 40, Type (0, 0), None
#     Edge 41, Type (0, 0), None
#     Edge 42, Type (0, 0), None
#     Edge 43, Type (0, 0), None
#     Edge 44, Type (0, 0), None
#     Edge 45, Type (0, 0), None
#     Edge 46, Type (0, 0), None
#     Edge 47, Type (0, 0), None
#     Edge 48, Type (0, 0), None
#     Edge 49, Type (0, 0), None
#     Edge 50, Type (0, 0), None
#     Edge 51, Type (0, 0), None
#     Edge 52, Type (0, 0), None
#     Edge 53, Type (0, 0), None
#     Edge 54, Type (0, 0), None
#     Edge 55, Type (0, 0), None
#     Edge 56, Type (0, 0), None
#     Edge 57, Type (0, 0), None
#     Edge 58, Type (0, 0), None
#     Edge 59, Type (0, 0), None
#     Edge 60, Type (0, 0), None
#     Edge 61, Type (0, 0), None
#     Edge 62, Type (0, 0), None
#     Edge 63, Type (0, 0), None
#     Edge 64, Type (0, 0), None
#     Edge 65, Type (0, 0), None
#     Edge 66, Type (0, 0), None
#     Edge 67, Type (0, 0), None
#     Edge 68, Type (0, 0), None
#     Edge 69, Type (0, 0), None
#     Edge 70, Type (0, 0), None
#     Edge 71, Type (0, 0), None
# Relax obj value: 0.233
# Max RMSD: 0.218
# Mean RMSD: 0.218
data_MOF--net-hbo--node1-QUQFOY_clean_sbu_1--edge1-none
_symmetry_space_group_name_H-M    P1
_symmetry_Int_Tables_number       1
_symmetry_cell_setting            triclinic
loop_
_symmetry_equiv_pos_as_xyz
'x, y, z'
_cell_length_a     25.233604
_cell_length_b     25.233604
_cell_length_c     25.234059
_cell_angle_alpha  90.0
_cell_angle_beta   90.0
_cell_angle_gamma 90.0
loop_
_atom_site_label
_atom_site_type_symbol
_atom_site_fract_x
_atom_site_fract_y
_atom_site_fract_z
_atom_type_partial_charge
O0 O 0.14694 0.28027 0.28917 0.0
Cd1 Cd 0.13216 0.33705 0.2326 0.0
Cd2 Cd 0.19023 0.39512 0.29467 0.0
O3 O 0.18383 0.33301 0.34813 0.0
O4 O 0.06803 0.31057 0.19493 0.0
O5 O 0.06904 0.38472 0.24204 0.0
C6 C 0.04269 0.35012 0.21506 0.0
C7 C 0.17716 0.48459 0.3122 0.0
C8 C 0.16855 0.28698 0.33409 0.0
C9 C 0.24031 0.35872 0.19319 0.0
O10 O 0.24701 0.38033 0.2381 0.0
O11 O 0.19427 0.34344 0.17914 0.0
O12 O 0.21671 0.45925 0.33233 0.0
O13 O 0.14256 0.45824 0.28522 0.0
O14 O 0.14695 0.74701 0.7381 0.0
Cd15 Cd 0.13216 0.69023 0.79467 0.0
Cd16 Cd 0.19023 0.63216 0.7326 0.0
O17 O 0.18384 0.69427 0.67914 0.0
O18 O 0.06803 0.71671 0.83233 0.0
O19 O 0.06904 0.64256 0.78522 0.0
C20 C 0.04269 0.67716 0.8122 0.0
C21 C 0.17716 0.54269 0.71506 0.0
C22 C 0.16856 0.74031 0.69319 0.0
C23 C 0.2403 0.66855 0.83409 0.0
O24 O 0.24701 0.64694 0.78917 0.0
O25 O 0.19427 0.68383 0.84813 0.0
O26 O 0.21671 0.56803 0.69493 0.0
O27 O 0.14256 0.56904 0.74204 0.0
O28 O 0.78027 0.64695 0.2381 0.0
Cd29 Cd 0.83705 0.63216 0.29467 0.0
Cd30 Cd 0.89512 0.69023 0.2326 0.0
O31 O 0.83301 0.68384 0.17914 0.0
O32 O 0.81057 0.56803 0.33233 0.0
O33 O 0.88472 0.56904 0.28522 0.0
C34 C 0.85012 0.54269 0.3122 0.0
C35 C 0.98459 0.67716 0.21506 0.0
C36 C 0.78697 0.66856 0.19319 0.0
C37 C 0.85873 0.7403 0.33409 0.0
O38 O 0.88034 0.74701 0.28917 0.0
O39 O 0.84345 0.69427 0.34813 0.0
O40 O 0.95925 0.71671 0.19493 0.0
O41 O 0.95824 0.64256 0.24204 0.0
O42 O 0.78027 0.38034 0.78917 0.0
Cd43 Cd 0.83705 0.39512 0.7326 0.0
Cd44 Cd 0.89512 0.33705 0.79467 0.0
O45 O 0.83301 0.34345 0.84813 0.0
O46 O 0.81057 0.45925 0.69493 0.0
O47 O 0.88472 0.45824 0.74204 0.0
C48 C 0.85012 0.48459 0.71506 0.0
C49 C 0.98459 0.35012 0.8122 0.0
C50 C 0.78698 0.35873 0.83409 0.0
C51 C 0.85872 0.28697 0.69319 0.0
O52 O 0.88033 0.28027 0.7381 0.0
O53 O 0.84344 0.33301 0.67914 0.0
O54 O 0.95925 0.31057 0.83233 0.0
O55 O 0.95824 0.38472 0.78522 0.0
O56 O 0.2381 0.24702 0.38035 0.0
Cd57 Cd 0.29467 0.19024 0.39512 0.0
Cd58 Cd 0.23259 0.13216 0.33703 0.0
O59 O 0.17913 0.19427 0.34344 0.0
O60 O 0.33234 0.2167 0.45924 0.0
O61 O 0.28524 0.14256 0.45823 0.0
C62 C 0.31221 0.17716 0.48458 0.0
C63 C 0.21506 0.0427 0.3501 0.0
C64 C 0.19318 0.2403 0.35874 0.0
C65 C 0.33408 0.16857 0.28696 0.0
O66 O 0.28916 0.14695 0.28026 0.0
O67 O 0.34812 0.18385 0.333 0.0
O68 O 0.19492 0.06804 0.31056 0.0
O69 O 0.24203 0.06905 0.3847 0.0
O70 O 0.38033 0.78916 0.78026 0.0
Cd71 Cd 0.39512 0.73259 0.83703 0.0
Cd72 Cd 0.33705 0.79467 0.89512 0.0
O73 O 0.34343 0.84812 0.833 0.0
O74 O 0.45924 0.69492 0.81056 0.0
O75 O 0.45823 0.74203 0.8847 0.0
C76 C 0.48458 0.71506 0.8501 0.0
C77 C 0.35012 0.81221 0.98458 0.0
C78 C 0.35871 0.83408 0.78696 0.0
C79 C 0.28698 0.69318 0.85874 0.0
O80 O 0.28026 0.7381 0.88035 0.0
O81 O 0.33301 0.67913 0.84344 0.0
O82 O 0.31058 0.83234 0.95924 0.0
O83 O 0.38472 0.78524 0.95823 0.0
O84 O 0.78919 0.78026 0.38035 0.0
Cd85 Cd 0.73261 0.83705 0.39512 0.0
Cd86 Cd 0.79469 0.89512 0.33703 0.0
O87 O 0.84815 0.83301 0.34344 0.0
O88 O 0.69494 0.81058 0.45924 0.0
O89 O 0.74205 0.88472 0.45823 0.0
C90 C 0.71507 0.85012 0.48458 0.0
C91 C 0.81223 0.98458 0.3501 0.0
C92 C 0.8341 0.78698 0.35874 0.0
C93 C 0.69321 0.85871 0.28696 0.0
O94 O 0.73812 0.88033 0.28026 0.0
O95 O 0.67916 0.84343 0.333 0.0
O96 O 0.83236 0.95924 0.31056 0.0
O97 O 0.78525 0.95823 0.3847 0.0
O98 O 0.64695 0.23812 0.78026 0.0
Cd99 Cd 0.63216 0.29469 0.83703 0.0
Cd100 Cd 0.69024 0.23261 0.89512 0.0
O101 O 0.68385 0.17916 0.833 0.0
O102 O 0.56804 0.33236 0.81056 0.0
O103 O 0.56905 0.28525 0.8847 0.0
C104 C 0.5427 0.31223 0.8501 0.0
C105 C 0.67716 0.21507 0.98458 0.0
C106 C 0.66857 0.19321 0.78696 0.0
C107 C 0.7403 0.3341 0.85874 0.0
O108 O 0.74702 0.28919 0.88035 0.0
O109 O 0.69427 0.34815 0.84344 0.0
O110 O 0.7167 0.19494 0.95924 0.0
O111 O 0.64256 0.24205 0.95823 0.0
O112 O 0.28917 0.88035 0.74701 0.0
Cd113 Cd 0.2326 0.89513 0.69024 0.0
Cd114 Cd 0.29468 0.83704 0.63214 0.0
O115 O 0.34813 0.84342 0.69426 0.0
O116 O 0.19493 0.95925 0.71671 0.0
O117 O 0.24203 0.95824 0.64256 0.0
C118 C 0.21506 0.98459 0.67716 0.0
C119 C 0.31223 0.85011 0.54268 0.0
C120 C 0.33409 0.85874 0.74029 0.0
C121 C 0.19319 0.78699 0.66853 0.0
O122 O 0.2381 0.78026 0.64691 0.0
O123 O 0.17914 0.83301 0.68384 0.0
O124 O 0.33235 0.81056 0.56802 0.0
O125 O 0.28525 0.88472 0.56903 0.0
O126 O 0.74702 0.7381 0.14691 0.0
Cd127 Cd 0.69024 0.79468 0.13214 0.0
Cd128 Cd 0.63215 0.7326 0.19024 0.0
O129 O 0.69427 0.67914 0.18384 0.0
O130 O 0.71672 0.83235 0.06802 0.0
O131 O 0.64257 0.78525 0.06903 0.0
C132 C 0.67717 0.81223 0.04268 0.0
C133 C 0.54269 0.71506 0.17716 0.0
C134 C 0.7403 0.69319 0.16853 0.0
C135 C 0.66855 0.83409 0.24029 0.0
O136 O 0.64693 0.78917 0.24701 0.0
O137 O 0.68386 0.84813 0.19426 0.0
O138 O 0.56803 0.69493 0.21671 0.0
O139 O 0.56904 0.74203 0.14256 0.0
O140 O 0.73811 0.14693 0.74701 0.0
Cd141 Cd 0.79468 0.13215 0.69024 0.0
Cd142 Cd 0.7326 0.19024 0.63214 0.0
O143 O 0.67915 0.18386 0.69426 0.0
O144 O 0.83235 0.06803 0.71671 0.0
O145 O 0.78525 0.06904 0.64256 0.0
C146 C 0.81222 0.04269 0.67716 0.0
C147 C 0.71505 0.17717 0.54268 0.0
C148 C 0.69319 0.16855 0.74029 0.0
C149 C 0.83409 0.2403 0.66853 0.0
O150 O 0.78918 0.24702 0.64691 0.0
O151 O 0.84814 0.19427 0.68384 0.0
O152 O 0.69493 0.21672 0.56802 0.0
O153 O 0.74203 0.14257 0.56903 0.0
O154 O 0.28026 0.28918 0.14691 0.0
Cd155 Cd 0.33704 0.2326 0.13214 0.0
Cd156 Cd 0.39513 0.29468 0.19024 0.0
O157 O 0.33301 0.34814 0.18384 0.0
O158 O 0.31056 0.19493 0.06802 0.0
O159 O 0.38472 0.24203 0.06903 0.0
C160 C 0.35011 0.21505 0.04268 0.0
C161 C 0.48459 0.31222 0.17716 0.0
C162 C 0.28699 0.33409 0.16853 0.0
C163 C 0.35874 0.19319 0.24029 0.0
O164 O 0.38035 0.23811 0.24701 0.0
O165 O 0.34342 0.17915 0.19426 0.0
O166 O 0.45925 0.33235 0.21671 0.0
O167 O 0.45824 0.28525 0.14256 0.0
O168 O 0.88034 0.74701 0.73809 0.0
Cd169 Cd 0.89512 0.69023 0.79466 0.0
Cd170 Cd 0.83705 0.63216 0.73259 0.0
O171 O 0.84345 0.69427 0.67913 0.0
O172 O 0.95925 0.71671 0.83233 0.0
O173 O 0.95824 0.64256 0.78522 0.0
C174 C 0.98458 0.67716 0.81219 0.0
C175 C 0.85012 0.5427 0.71507 0.0
C176 C 0.85873 0.7403 0.69318 0.0
C177 C 0.78697 0.66856 0.83408 0.0
O178 O 0.78027 0.64695 0.78916 0.0
O179 O 0.83301 0.68384 0.84812 0.0
O180 O 0.81057 0.56803 0.69493 0.0
O181 O 0.88472 0.56904 0.74204 0.0
O182 O 0.88033 0.28027 0.28916 0.0
Cd183 Cd 0.89512 0.33705 0.23259 0.0
Cd184 Cd 0.83705 0.39512 0.29466 0.0
O185 O 0.84344 0.33301 0.34812 0.0
O186 O 0.95925 0.31057 0.19493 0.0
O187 O 0.95824 0.38472 0.24204 0.0
C188 C 0.98458 0.35012 0.21507 0.0
C189 C 0.85012 0.48458 0.31219 0.0
C190 C 0.85872 0.28697 0.33408 0.0
C191 C 0.78698 0.35873 0.19318 0.0
O192 O 0.78027 0.38034 0.23809 0.0
O193 O 0.83301 0.34345 0.17913 0.0
O194 O 0.81057 0.45925 0.33233 0.0
O195 O 0.88472 0.45824 0.28522 0.0
O196 O 0.24701 0.38033 0.78916 0.0
Cd197 Cd 0.19023 0.39512 0.73259 0.0
Cd198 Cd 0.13216 0.33705 0.79466 0.0
O199 O 0.19427 0.34344 0.84812 0.0
O200 O 0.21671 0.45925 0.69493 0.0
O201 O 0.14256 0.45824 0.74204 0.0
C202 C 0.17716 0.48458 0.71507 0.0
C203 C 0.0427 0.35012 0.81219 0.0
C204 C 0.24031 0.35872 0.83408 0.0
C205 C 0.16855 0.28698 0.69318 0.0
O206 O 0.14694 0.28027 0.73809 0.0
O207 O 0.18383 0.33301 0.67913 0.0
O208 O 0.06803 0.31057 0.83233 0.0
O209 O 0.06904 0.38472 0.78522 0.0
O210 O 0.24701 0.64694 0.23809 0.0
Cd211 Cd 0.19023 0.63216 0.29466 0.0
Cd212 Cd 0.13216 0.69023 0.23259 0.0
O213 O 0.19427 0.68383 0.17913 0.0
O214 O 0.21671 0.56803 0.33233 0.0
O215 O 0.14256 0.56904 0.28522 0.0
C216 C 0.17716 0.5427 0.31219 0.0
C217 C 0.0427 0.67716 0.21507 0.0
C218 C 0.2403 0.66855 0.19318 0.0
C219 C 0.16856 0.74031 0.33408 0.0
O220 O 0.14695 0.74701 0.28916 0.0
O221 O 0.18384 0.69427 0.34812 0.0
O222 O 0.06803 0.71671 0.19493 0.0
O223 O 0.06904 0.64256 0.24204 0.0
O224 O 0.78919 0.78026 0.64691 0.0
Cd225 Cd 0.73261 0.83704 0.63214 0.0
Cd226 Cd 0.79469 0.89512 0.69023 0.0
O227 O 0.84815 0.83301 0.68383 0.0
O228 O 0.69494 0.81057 0.56802 0.0
O229 O 0.74205 0.88472 0.56903 0.0
C230 C 0.71507 0.85012 0.54269 0.0
C231 C 0.81222 0.98458 0.67716 0.0
C232 C 0.8341 0.78698 0.66852 0.0
C233 C 0.69321 0.85871 0.7403 0.0
O234 O 0.73812 0.88033 0.74701 0.0
O235 O 0.67916 0.84343 0.69426 0.0
O236 O 0.83236 0.95924 0.71671 0.0
O237 O 0.78525 0.95823 0.64256 0.0
O238 O 0.64695 0.23812 0.24701 0.0
Cd239 Cd 0.63216 0.29469 0.19023 0.0
Cd240 Cd 0.69024 0.23261 0.13214 0.0
O241 O 0.68385 0.17916 0.19426 0.0
O242 O 0.56804 0.33236 0.21671 0.0
O243 O 0.56905 0.28525 0.14256 0.0
C244 C 0.5427 0.31222 0.17716 0.0
C245 C 0.67716 0.21507 0.04269 0.0
C246 C 0.66857 0.19321 0.2403 0.0
C247 C 0.7403 0.3341 0.16852 0.0
O248 O 0.74702 0.28919 0.14691 0.0
O249 O 0.69427 0.34815 0.18383 0.0
O250 O 0.71671 0.19494 0.06802 0.0
O251 O 0.64256 0.24205 0.06903 0.0
O252 O 0.2381 0.24702 0.64691 0.0
Cd253 Cd 0.29467 0.19024 0.63214 0.0
Cd254 Cd 0.23259 0.13216 0.69023 0.0
O255 O 0.17913 0.19427 0.68383 0.0
O256 O 0.33234 0.21671 0.56802 0.0
O257 O 0.28523 0.14256 0.56903 0.0
C258 C 0.31221 0.17716 0.54269 0.0
C259 C 0.21506 0.0427 0.67716 0.0
C260 C 0.19318 0.2403 0.66852 0.0
C261 C 0.33408 0.16857 0.7403 0.0
O262 O 0.28916 0.14695 0.74701 0.0
O263 O 0.34812 0.18385 0.69426 0.0
O264 O 0.19492 0.06804 0.71671 0.0
O265 O 0.24203 0.06905 0.64256 0.0
O266 O 0.38033 0.78916 0.24701 0.0
Cd267 Cd 0.39512 0.73259 0.19023 0.0
Cd268 Cd 0.33704 0.79467 0.13214 0.0
O269 O 0.34343 0.84812 0.19426 0.0
O270 O 0.45924 0.69492 0.21671 0.0
O271 O 0.45823 0.74203 0.14256 0.0
C272 C 0.48458 0.71506 0.17716 0.0
C273 C 0.35012 0.81221 0.04269 0.0
C274 C 0.35871 0.83408 0.2403 0.0
C275 C 0.28698 0.69318 0.16852 0.0
O276 O 0.28026 0.7381 0.14691 0.0
O277 O 0.33301 0.67913 0.18383 0.0
O278 O 0.31057 0.83234 0.06802 0.0
O279 O 0.38472 0.78523 0.06903 0.0
O280 O 0.73811 0.14693 0.28025 0.0
Cd281 Cd 0.79468 0.13215 0.33703 0.0
Cd282 Cd 0.7326 0.19025 0.39512 0.0
O283 O 0.67915 0.18386 0.333 0.0
O284 O 0.83235 0.06803 0.31055 0.0
O285 O 0.78525 0.06904 0.3847 0.0
C286 C 0.81222 0.04269 0.3501 0.0
C287 C 0.71506 0.17717 0.48458 0.0
C288 C 0.69319 0.16855 0.28697 0.0
C289 C 0.83409 0.2403 0.35873 0.0
O290 O 0.78918 0.24702 0.38035 0.0
O291 O 0.84814 0.19427 0.34342 0.0
O292 O 0.69493 0.21672 0.45924 0.0
O293 O 0.74203 0.14256 0.45823 0.0
O294 O 0.28026 0.28918 0.88035 0.0
Cd295 Cd 0.33704 0.2326 0.89512 0.0
Cd296 Cd 0.39513 0.29468 0.83703 0.0
O297 O 0.33301 0.34814 0.84342 0.0
O298 O 0.31056 0.19493 0.95924 0.0
O299 O 0.38472 0.24203 0.95823 0.0
C300 C 0.35011 0.21506 0.98458 0.0
C301 C 0.48459 0.31222 0.8501 0.0
C302 C 0.28699 0.33409 0.85873 0.0
C303 C 0.35874 0.19319 0.78697 0.0
O304 O 0.38035 0.23811 0.78025 0.0
O305 O 0.34342 0.17915 0.833 0.0
O306 O 0.45925 0.33235 0.81055 0.0
O307 O 0.45824 0.28525 0.8847 0.0
O308 O 0.28917 0.88035 0.28025 0.0
Cd309 Cd 0.2326 0.89513 0.33703 0.0
Cd310 Cd 0.29468 0.83704 0.39512 0.0
O311 O 0.34813 0.84342 0.333 0.0
O312 O 0.19493 0.95925 0.31055 0.0
O313 O 0.24203 0.95824 0.3847 0.0
C314 C 0.21506 0.98459 0.3501 0.0
C315 C 0.31222 0.85011 0.48458 0.0
C316 C 0.33409 0.85874 0.28697 0.0
C317 C 0.19319 0.78699 0.35873 0.0
O318 O 0.2381 0.78026 0.38035 0.0
O319 O 0.17914 0.83301 0.34342 0.0
O320 O 0.33235 0.81056 0.45924 0.0
O321 O 0.28525 0.88472 0.45823 0.0
O322 O 0.74702 0.7381 0.88035 0.0
Cd323 Cd 0.69025 0.79468 0.89512 0.0
Cd324 Cd 0.63215 0.7326 0.83703 0.0
O325 O 0.69427 0.67914 0.84342 0.0
O326 O 0.71672 0.83235 0.95924 0.0
O327 O 0.64256 0.78525 0.95823 0.0
C328 C 0.67717 0.81222 0.98458 0.0
C329 C 0.54269 0.71506 0.8501 0.0
C330 C 0.7403 0.69319 0.85873 0.0
C331 C 0.66855 0.83409 0.78697 0.0
O332 O 0.64693 0.78917 0.78025 0.0
O333 O 0.68386 0.84813 0.833 0.0
O334 O 0.56803 0.69493 0.81055 0.0
O335 O 0.56904 0.74203 0.8847 0.0
loop_
_geom_bond_atom_site_label_1
_geom_bond_atom_site_label_2
_geom_bond_distance
_geom_bond_site_symmetry_2
_ccdc_geom_bond_type
O0 Cd1 2.223 . S
O0 C8 1.315 . S
Cd1 O0 2.223 . S
Cd1 O4 2.297 . S
Cd1 O5 2.439 . S
Cd1 O11 2.240 . S
Cd2 O3 2.240 . S
Cd2 O10 2.223 . S
Cd2 O12 2.297 . S
Cd2 O13 2.439 . S
O3 Cd2 2.240 . S
O3 C8 1.279 . S
O4 Cd1 2.297 . S
O4 C6 1.247 . S
O5 Cd1 2.439 . S
O5 C6 1.208 . S
C6 O4 1.247 . S
C6 O5 1.208 . S
C7 O12 1.247 . S
C7 O13 1.208 . S
C8 O0 1.315 . S
C8 O3 1.279 . S
C9 O10 1.315 . S
C9 O11 1.279 . S
O10 Cd2 2.223 . S
O10 C9 1.315 . S
O11 Cd1 2.240 . S
O11 C9 1.279 . S
O12 Cd2 2.297 . S
O12 C7 1.247 . S
O13 Cd2 2.439 . S
O13 C7 1.208 . S
O14 Cd15 2.223 . S
O14 C22 1.315 . S
Cd15 O14 2.223 . S
Cd15 O18 2.297 . S
Cd15 O19 2.439 . S
Cd15 O25 2.240 . S
Cd16 O17 2.240 . S
Cd16 O24 2.223 . S
Cd16 O26 2.297 . S
Cd16 O27 2.439 . S
O17 Cd16 2.240 . S
O17 C22 1.279 . S
O18 Cd15 2.297 . S
O18 C20 1.247 . S
O19 Cd15 2.439 . S
O19 C20 1.208 . S
C20 O18 1.247 . S
C20 O19 1.208 . S
C21 O26 1.247 . S
C21 O27 1.208 . S
C22 O14 1.315 . S
C22 O17 1.279 . S
C23 O24 1.315 . S
C23 O25 1.279 . S
O24 Cd16 2.223 . S
O24 C23 1.315 . S
O25 Cd15 2.240 . S
O25 C23 1.279 . S
O26 Cd16 2.297 . S
O26 C21 1.247 . S
O27 Cd16 2.439 . S
O27 C21 1.208 . S
O28 Cd29 2.223 . S
O28 C36 1.315 . S
Cd29 O28 2.223 . S
Cd29 O32 2.297 . S
Cd29 O33 2.439 . S
Cd29 O39 2.240 . S
Cd30 O31 2.240 . S
Cd30 O38 2.223 . S
Cd30 O40 2.297 . S
Cd30 O41 2.439 . S
O31 Cd30 2.240 . S
O31 C36 1.279 . S
O32 Cd29 2.297 . S
O32 C34 1.247 . S
O33 Cd29 2.439 . S
O33 C34 1.208 . S
C34 O32 1.247 . S
C34 O33 1.208 . S
C35 O40 1.247 . S
C35 O41 1.208 . S
C36 O28 1.315 . S
C36 O31 1.279 . S
C37 O38 1.315 . S
C37 O39 1.279 . S
O38 Cd30 2.223 . S
O38 C37 1.315 . S
O39 Cd29 2.240 . S
O39 C37 1.279 . S
O40 Cd30 2.297 . S
O40 C35 1.247 . S
O41 Cd30 2.439 . S
O41 C35 1.208 . S
O42 Cd43 2.223 . S
O42 C50 1.315 . S
Cd43 O42 2.223 . S
Cd43 O46 2.297 . S
Cd43 O47 2.439 . S
Cd43 O53 2.240 . S
Cd44 O45 2.240 . S
Cd44 O52 2.223 . S
Cd44 O54 2.297 . S
Cd44 O55 2.439 . S
O45 Cd44 2.240 . S
O45 C50 1.279 . S
O46 Cd43 2.297 . S
O46 C48 1.247 . S
O47 Cd43 2.439 . S
O47 C48 1.208 . S
C48 O46 1.247 . S
C48 O47 1.208 . S
C49 O54 1.247 . S
C49 O55 1.208 . S
C50 O42 1.315 . S
C50 O45 1.279 . S
C51 O52 1.315 . S
C51 O53 1.279 . S
O52 Cd44 2.223 . S
O52 C51 1.315 . S
O53 Cd43 2.240 . S
O53 C51 1.279 . S
O54 Cd44 2.297 . S
O54 C49 1.247 . S
O55 Cd44 2.439 . S
O55 C49 1.208 . S
O56 Cd57 2.223 . S
O56 C64 1.315 . S
Cd57 O56 2.223 . S
Cd57 O60 2.297 . S
Cd57 O61 2.439 . S
Cd57 O67 2.240 . S
Cd58 O59 2.240 . S
Cd58 O66 2.223 . S
Cd58 O68 2.297 . S
Cd58 O69 2.439 . S
O59 Cd58 2.240 . S
O59 C64 1.279 . S
O60 Cd57 2.297 . S
O60 C62 1.247 . S
O61 Cd57 2.439 . S
O61 C62 1.208 . S
C62 O60 1.247 . S
C62 O61 1.208 . S
C63 O68 1.247 . S
C63 O69 1.208 . S
C64 O56 1.315 . S
C64 O59 1.279 . S
C65 O66 1.315 . S
C65 O67 1.279 . S
O66 Cd58 2.223 . S
O66 C65 1.315 . S
O67 Cd57 2.240 . S
O67 C65 1.279 . S
O68 Cd58 2.297 . S
O68 C63 1.247 . S
O69 Cd58 2.439 . S
O69 C63 1.208 . S
O70 Cd71 2.223 . S
O70 C78 1.315 . S
Cd71 O70 2.223 . S
Cd71 O74 2.297 . S
Cd71 O75 2.439 . S
Cd71 O81 2.240 . S
Cd72 O73 2.240 . S
Cd72 O80 2.223 . S
Cd72 O82 2.297 . S
Cd72 O83 2.439 . S
O73 Cd72 2.240 . S
O73 C78 1.279 . S
O74 Cd71 2.297 . S
O74 C76 1.247 . S
O75 Cd71 2.439 . S
O75 C76 1.208 . S
C76 O74 1.247 . S
C76 O75 1.208 . S
C77 O82 1.247 . S
C77 O83 1.208 . S
C78 O70 1.315 . S
C78 O73 1.279 . S
C79 O80 1.315 . S
C79 O81 1.279 . S
O80 Cd72 2.223 . S
O80 C79 1.315 . S
O81 Cd71 2.240 . S
O81 C79 1.279 . S
O82 Cd72 2.297 . S
O82 C77 1.247 . S
O83 Cd72 2.439 . S
O83 C77 1.208 . S
O84 Cd85 2.223 . S
O84 C92 1.315 . S
Cd85 O84 2.223 . S
Cd85 O88 2.297 . S
Cd85 O89 2.439 . S
Cd85 O95 2.240 . S
Cd86 O87 2.240 . S
Cd86 O94 2.223 . S
Cd86 O96 2.297 . S
Cd86 O97 2.439 . S
O87 Cd86 2.240 . S
O87 C92 1.279 . S
O88 Cd85 2.297 . S
O88 C90 1.247 . S
O89 Cd85 2.439 . S
O89 C90 1.208 . S
C90 O88 1.247 . S
C90 O89 1.208 . S
C91 O96 1.247 . S
C91 O97 1.208 . S
C92 O84 1.315 . S
C92 O87 1.279 . S
C93 O94 1.315 . S
C93 O95 1.279 . S
O94 Cd86 2.223 . S
O94 C93 1.315 . S
O95 Cd85 2.240 . S
O95 C93 1.279 . S
O96 Cd86 2.297 . S
O96 C91 1.247 . S
O97 Cd86 2.439 . S
O97 C91 1.208 . S
O98 Cd99 2.223 . S
O98 C106 1.315 . S
Cd99 O98 2.223 . S
Cd99 O102 2.297 . S
Cd99 O103 2.439 . S
Cd99 O109 2.240 . S
Cd100 O101 2.240 . S
Cd100 O108 2.223 . S
Cd100 O110 2.297 . S
Cd100 O111 2.439 . S
O101 Cd100 2.240 . S
O101 C106 1.279 . S
O102 Cd99 2.297 . S
O102 C104 1.247 . S
O103 Cd99 2.439 . S
O103 C104 1.208 . S
C104 O102 1.247 . S
C104 O103 1.208 . S
C105 O110 1.247 . S
C105 O111 1.208 . S
C106 O98 1.315 . S
C106 O101 1.279 . S
C107 O108 1.315 . S
C107 O109 1.279 . S
O108 Cd100 2.223 . S
O108 C107 1.315 . S
O109 Cd99 2.240 . S
O109 C107 1.279 . S
O110 Cd100 2.297 . S
O110 C105 1.247 . S
O111 Cd100 2.439 . S
O111 C105 1.208 . S
O112 Cd113 2.223 . S
O112 C120 1.315 . S
Cd113 O112 2.223 . S
Cd113 O116 2.297 . S
Cd113 O117 2.439 . S
Cd113 O123 2.240 . S
Cd114 O115 2.240 . S
Cd114 O122 2.223 . S
Cd114 O124 2.297 . S
Cd114 O125 2.439 . S
O115 Cd114 2.240 . S
O115 C120 1.279 . S
O116 Cd113 2.297 . S
O116 C118 1.247 . S
O117 Cd113 2.439 . S
O117 C118 1.208 . S
C118 O116 1.247 . S
C118 O117 1.208 . S
C119 O124 1.247 . S
C119 O125 1.208 . S
C120 O112 1.315 . S
C120 O115 1.279 . S
C121 O122 1.315 . S
C121 O123 1.279 . S
O122 Cd114 2.223 . S
O122 C121 1.315 . S
O123 Cd113 2.240 . S
O123 C121 1.279 . S
O124 Cd114 2.297 . S
O124 C119 1.247 . S
O125 Cd114 2.439 . S
O125 C119 1.208 . S
O126 Cd127 2.223 . S
O126 C134 1.315 . S
Cd127 O126 2.223 . S
Cd127 O130 2.297 . S
Cd127 O131 2.439 . S
Cd127 O137 2.240 . S
Cd128 O129 2.240 . S
Cd128 O136 2.223 . S
Cd128 O138 2.297 . S
Cd128 O139 2.439 . S
O129 Cd128 2.240 . S
O129 C134 1.279 . S
O130 Cd127 2.297 . S
O130 C132 1.247 . S
O131 Cd127 2.439 . S
O131 C132 1.208 . S
C132 O130 1.247 . S
C132 O131 1.208 . S
C133 O138 1.247 . S
C133 O139 1.208 . S
C134 O126 1.315 . S
C134 O129 1.279 . S
C135 O136 1.315 . S
C135 O137 1.279 . S
O136 Cd128 2.223 . S
O136 C135 1.315 . S
O137 Cd127 2.240 . S
O137 C135 1.279 . S
O138 Cd128 2.297 . S
O138 C133 1.247 . S
O139 Cd128 2.439 . S
O139 C133 1.208 . S
O140 Cd141 2.223 . S
O140 C148 1.315 . S
Cd141 O140 2.223 . S
Cd141 O144 2.297 . S
Cd141 O145 2.439 . S
Cd141 O151 2.240 . S
Cd142 O143 2.240 . S
Cd142 O150 2.223 . S
Cd142 O152 2.297 . S
Cd142 O153 2.439 . S
O143 Cd142 2.240 . S
O143 C148 1.279 . S
O144 Cd141 2.297 . S
O144 C146 1.247 . S
O145 Cd141 2.439 . S
O145 C146 1.208 . S
C146 O144 1.247 . S
C146 O145 1.208 . S
C147 O152 1.247 . S
C147 O153 1.208 . S
C148 O140 1.315 . S
C148 O143 1.279 . S
C149 O150 1.315 . S
C149 O151 1.279 . S
O150 Cd142 2.223 . S
O150 C149 1.315 . S
O151 Cd141 2.240 . S
O151 C149 1.279 . S
O152 Cd142 2.297 . S
O152 C147 1.247 . S
O153 Cd142 2.439 . S
O153 C147 1.208 . S
O154 Cd155 2.223 . S
O154 C162 1.315 . S
Cd155 O154 2.223 . S
Cd155 O158 2.297 . S
Cd155 O159 2.439 . S
Cd155 O165 2.240 . S
Cd156 O157 2.240 . S
Cd156 O164 2.223 . S
Cd156 O166 2.297 . S
Cd156 O167 2.439 . S
O157 Cd156 2.240 . S
O157 C162 1.279 . S
O158 Cd155 2.297 . S
O158 C160 1.247 . S
O159 Cd155 2.439 . S
O159 C160 1.208 . S
C160 O158 1.247 . S
C160 O159 1.208 . S
C161 O166 1.247 . S
C161 O167 1.208 . S
C162 O154 1.315 . S
C162 O157 1.279 . S
C163 O164 1.315 . S
C163 O165 1.279 . S
O164 Cd156 2.223 . S
O164 C163 1.315 . S
O165 Cd155 2.240 . S
O165 C163 1.279 . S
O166 Cd156 2.297 . S
O166 C161 1.247 . S
O167 Cd156 2.439 . S
O167 C161 1.208 . S
O168 Cd169 2.223 . S
O168 C176 1.315 . S
Cd169 O168 2.223 . S
Cd169 O172 2.297 . S
Cd169 O173 2.439 . S
Cd169 O179 2.240 . S
Cd170 O171 2.240 . S
Cd170 O178 2.223 . S
Cd170 O180 2.297 . S
Cd170 O181 2.439 . S
O171 Cd170 2.240 . S
O171 C176 1.279 . S
O172 Cd169 2.297 . S
O172 C174 1.247 . S
O173 Cd169 2.439 . S
O173 C174 1.208 . S
C174 O172 1.247 . S
C174 O173 1.208 . S
C175 O180 1.247 . S
C175 O181 1.208 . S
C176 O168 1.315 . S
C176 O171 1.279 . S
C177 O178 1.315 . S
C177 O179 1.279 . S
O178 Cd170 2.223 . S
O178 C177 1.315 . S
O179 Cd169 2.240 . S
O179 C177 1.279 . S
O180 Cd170 2.297 . S
O180 C175 1.247 . S
O181 Cd170 2.439 . S
O181 C175 1.208 . S
O182 Cd183 2.223 . S
O182 C190 1.315 . S
Cd183 O182 2.223 . S
Cd183 O186 2.297 . S
Cd183 O187 2.439 . S
Cd183 O193 2.240 . S
Cd184 O185 2.240 . S
Cd184 O192 2.223 . S
Cd184 O194 2.297 . S
Cd184 O195 2.439 . S
O185 Cd184 2.240 . S
O185 C190 1.279 . S
O186 Cd183 2.297 . S
O186 C188 1.247 . S
O187 Cd183 2.439 . S
O187 C188 1.208 . S
C188 O186 1.247 . S
C188 O187 1.208 . S
C189 O194 1.247 . S
C189 O195 1.208 . S
C190 O182 1.315 . S
C190 O185 1.279 . S
C191 O192 1.315 . S
C191 O193 1.279 . S
O192 Cd184 2.223 . S
O192 C191 1.315 . S
O193 Cd183 2.240 . S
O193 C191 1.279 . S
O194 Cd184 2.297 . S
O194 C189 1.247 . S
O195 Cd184 2.439 . S
O195 C189 1.208 . S
O196 Cd197 2.223 . S
O196 C204 1.315 . S
Cd197 O196 2.223 . S
Cd197 O200 2.297 . S
Cd197 O201 2.439 . S
Cd197 O207 2.240 . S
Cd198 O199 2.240 . S
Cd198 O206 2.223 . S
Cd198 O208 2.297 . S
Cd198 O209 2.439 . S
O199 Cd198 2.240 . S
O199 C204 1.279 . S
O200 Cd197 2.297 . S
O200 C202 1.247 . S
O201 Cd197 2.439 . S
O201 C202 1.208 . S
C202 O200 1.247 . S
C202 O201 1.208 . S
C203 O208 1.247 . S
C203 O209 1.208 . S
C204 O196 1.315 . S
C204 O199 1.279 . S
C205 O206 1.315 . S
C205 O207 1.279 . S
O206 Cd198 2.223 . S
O206 C205 1.315 . S
O207 Cd197 2.240 . S
O207 C205 1.279 . S
O208 Cd198 2.297 . S
O208 C203 1.247 . S
O209 Cd198 2.439 . S
O209 C203 1.208 . S
O210 Cd211 2.223 . S
O210 C218 1.315 . S
Cd211 O210 2.223 . S
Cd211 O214 2.297 . S
Cd211 O215 2.439 . S
Cd211 O221 2.240 . S
Cd212 O213 2.240 . S
Cd212 O220 2.223 . S
Cd212 O222 2.297 . S
Cd212 O223 2.439 . S
O213 Cd212 2.240 . S
O213 C218 1.279 . S
O214 Cd211 2.297 . S
O214 C216 1.247 . S
O215 Cd211 2.439 . S
O215 C216 1.208 . S
C216 O214 1.247 . S
C216 O215 1.208 . S
C217 O222 1.247 . S
C217 O223 1.208 . S
C218 O210 1.315 . S
C218 O213 1.279 . S
C219 O220 1.315 . S
C219 O221 1.279 . S
O220 Cd212 2.223 . S
O220 C219 1.315 . S
O221 Cd211 2.240 . S
O221 C219 1.279 . S
O222 Cd212 2.297 . S
O222 C217 1.247 . S
O223 Cd212 2.439 . S
O223 C217 1.208 . S
O224 Cd225 2.223 . S
O224 C232 1.315 . S
Cd225 O224 2.223 . S
Cd225 O228 2.297 . S
Cd225 O229 2.439 . S
Cd225 O235 2.240 . S
Cd226 O227 2.240 . S
Cd226 O234 2.223 . S
Cd226 O236 2.297 . S
Cd226 O237 2.439 . S
O227 Cd226 2.240 . S
O227 C232 1.279 . S
O228 Cd225 2.297 . S
O228 C230 1.247 . S
O229 Cd225 2.439 . S
O229 C230 1.208 . S
C230 O228 1.247 . S
C230 O229 1.208 . S
C231 O236 1.247 . S
C231 O237 1.208 . S
C232 O224 1.315 . S
C232 O227 1.279 . S
C233 O234 1.315 . S
C233 O235 1.279 . S
O234 Cd226 2.223 . S
O234 C233 1.315 . S
O235 Cd225 2.240 . S
O235 C233 1.279 . S
O236 Cd226 2.297 . S
O236 C231 1.247 . S
O237 Cd226 2.439 . S
O237 C231 1.208 . S
O238 Cd239 2.223 . S
O238 C246 1.315 . S
Cd239 O238 2.223 . S
Cd239 O242 2.297 . S
Cd239 O243 2.439 . S
Cd239 O249 2.240 . S
Cd240 O241 2.240 . S
Cd240 O248 2.223 . S
Cd240 O250 2.297 . S
Cd240 O251 2.439 . S
O241 Cd240 2.240 . S
O241 C246 1.279 . S
O242 Cd239 2.297 . S
O242 C244 1.247 . S
O243 Cd239 2.439 . S
O243 C244 1.208 . S
C244 O242 1.247 . S
C244 O243 1.208 . S
C245 O250 1.247 . S
C245 O251 1.208 . S
C246 O238 1.315 . S
C246 O241 1.279 . S
C247 O248 1.315 . S
C247 O249 1.279 . S
O248 Cd240 2.223 . S
O248 C247 1.315 . S
O249 Cd239 2.240 . S
O249 C247 1.279 . S
O250 Cd240 2.297 . S
O250 C245 1.247 . S
O251 Cd240 2.439 . S
O251 C245 1.208 . S
O252 Cd253 2.223 . S
O252 C260 1.315 . S
Cd253 O252 2.223 . S
Cd253 O256 2.297 . S
Cd253 O257 2.439 . S
Cd253 O263 2.240 . S
Cd254 O255 2.240 . S
Cd254 O262 2.223 . S
Cd254 O264 2.297 . S
Cd254 O265 2.439 . S
O255 Cd254 2.240 . S
O255 C260 1.279 . S
O256 Cd253 2.297 . S
O256 C258 1.247 . S
O257 Cd253 2.439 . S
O257 C258 1.208 . S
C258 O256 1.247 . S
C258 O257 1.208 . S
C259 O264 1.247 . S
C259 O265 1.208 . S
C260 O252 1.315 . S
C260 O255 1.279 . S
C261 O262 1.315 . S
C261 O263 1.279 . S
O262 Cd254 2.223 . S
O262 C261 1.315 . S
O263 Cd253 2.240 . S
O263 C261 1.279 . S
O264 Cd254 2.297 . S
O264 C259 1.247 . S
O265 Cd254 2.439 . S
O265 C259 1.208 . S
O266 Cd267 2.223 . S
O266 C274 1.315 . S
Cd267 O266 2.223 . S
Cd267 O270 2.297 . S
Cd267 O271 2.439 . S
Cd267 O277 2.240 . S
Cd268 O269 2.240 . S
Cd268 O276 2.223 . S
Cd268 O278 2.297 . S
Cd268 O279 2.439 . S
O269 Cd268 2.240 . S
O269 C274 1.279 . S
O270 Cd267 2.297 . S
O270 C272 1.247 . S
O271 Cd267 2.439 . S
O271 C272 1.208 . S
C272 O270 1.247 . S
C272 O271 1.208 . S
C273 O278 1.247 . S
C273 O279 1.208 . S
C274 O266 1.315 . S
C274 O269 1.279 . S
C275 O276 1.315 . S
C275 O277 1.279 . S
O276 Cd268 2.223 . S
O276 C275 1.315 . S
O277 Cd267 2.240 . S
O277 C275 1.279 . S
O278 Cd268 2.297 . S
O278 C273 1.247 . S
O279 Cd268 2.439 . S
O279 C273 1.208 . S
O280 Cd281 2.223 . S
O280 C288 1.315 . S
Cd281 O280 2.223 . S
Cd281 O284 2.297 . S
Cd281 O285 2.439 . S
Cd281 O291 2.240 . S
Cd282 O283 2.240 . S
Cd282 O290 2.223 . S
Cd282 O292 2.297 . S
Cd282 O293 2.439 . S
O283 Cd282 2.240 . S
O283 C288 1.279 . S
O284 Cd281 2.297 . S
O284 C286 1.247 . S
O285 Cd281 2.439 . S
O285 C286 1.208 . S
C286 O284 1.247 . S
C286 O285 1.208 . S
C287 O292 1.247 . S
C287 O293 1.208 . S
C288 O280 1.315 . S
C288 O283 1.279 . S
C289 O290 1.315 . S
C289 O291 1.279 . S
O290 Cd282 2.223 . S
O290 C289 1.315 . S
O291 Cd281 2.240 . S
O291 C289 1.279 . S
O292 Cd282 2.297 . S
O292 C287 1.247 . S
O293 Cd282 2.439 . S
O293 C287 1.208 . S
O294 Cd295 2.223 . S
O294 C302 1.315 . S
Cd295 O294 2.223 . S
Cd295 O298 2.297 . S
Cd295 O299 2.439 . S
Cd295 O305 2.240 . S
Cd296 O297 2.240 . S
Cd296 O304 2.223 . S
Cd296 O306 2.297 . S
Cd296 O307 2.439 . S
O297 Cd296 2.240 . S
O297 C302 1.279 . S
O298 Cd295 2.297 . S
O298 C300 1.247 . S
O299 Cd295 2.439 . S
O299 C300 1.208 . S
C300 O298 1.247 . S
C300 O299 1.208 . S
C301 O306 1.247 . S
C301 O307 1.208 . S
C302 O294 1.315 . S
C302 O297 1.279 . S
C303 O304 1.315 . S
C303 O305 1.279 . S
O304 Cd296 2.223 . S
O304 C303 1.315 . S
O305 Cd295 2.240 . S
O305 C303 1.279 . S
O306 Cd296 2.297 . S
O306 C301 1.247 . S
O307 Cd296 2.439 . S
O307 C301 1.208 . S
O308 Cd309 2.223 . S
O308 C316 1.315 . S
Cd309 O308 2.223 . S
Cd309 O312 2.297 . S
Cd309 O313 2.439 . S
Cd309 O319 2.240 . S
Cd310 O311 2.240 . S
Cd310 O318 2.223 . S
Cd310 O320 2.297 . S
Cd310 O321 2.439 . S
O311 Cd310 2.240 . S
O311 C316 1.279 . S
O312 Cd309 2.297 . S
O312 C314 1.247 . S
O313 Cd309 2.439 . S
O313 C314 1.208 . S
C314 O312 1.247 . S
C314 O313 1.208 . S
C315 O320 1.247 . S
C315 O321 1.208 . S
C316 O308 1.315 . S
C316 O311 1.279 . S
C317 O318 1.315 . S
C317 O319 1.279 . S
O318 Cd310 2.223 . S
O318 C317 1.315 . S
O319 Cd309 2.240 . S
O319 C317 1.279 . S
O320 Cd310 2.297 . S
O320 C315 1.247 . S
O321 Cd310 2.439 . S
O321 C315 1.208 . S
O322 Cd323 2.223 . S
O322 C330 1.315 . S
Cd323 O322 2.223 . S
Cd323 O326 2.297 . S
Cd323 O327 2.439 . S
Cd323 O333 2.240 . S
Cd324 O325 2.240 . S
Cd324 O332 2.223 . S
Cd324 O334 2.297 . S
Cd324 O335 2.439 . S
O325 Cd324 2.240 . S
O325 C330 1.279 . S
O326 Cd323 2.297 . S
O326 C328 1.247 . S
O327 Cd323 2.439 . S
O327 C328 1.208 . S
C328 O326 1.247 . S
C328 O327 1.208 . S
C329 O334 1.247 . S
C329 O335 1.208 . S
C330 O322 1.315 . S
C330 O325 1.279 . S
C331 O332 1.315 . S
C331 O333 1.279 . S
O332 Cd324 2.223 . S
O332 C331 1.315 . S
O333 Cd323 2.240 . S
O333 C331 1.279 . S
O334 Cd324 2.297 . S
O334 C329 1.247 . S
O335 Cd324 2.439 . S
O335 C329 1.208 . S
C216 C7 1.488 . S
C174 C20 1.488 1_655 S
C189 C34 1.488 . S
C203 C49 1.488 1_455 S
C202 C21 1.488 . S
C35 C217 1.488 1_655 S
C175 C48 1.488 . S
C188 C6 1.488 1_655 S
C258 C62 1.488 . S
C77 C273 1.488 1_556 S
C90 C230 1.488 . S
C245 C105 1.488 1_554 S
C315 C119 1.488 . S
C132 C328 1.488 1_554 S
C147 C287 1.488 . S
C160 C300 1.488 1_554 S
C244 C161 1.488 . S
C329 C76 1.488 . S
C91 C286 1.488 1_565 S
C301 C104 1.488 . S
C314 C63 1.488 1_565 S
C133 C272 1.488 . S
C231 C146 1.488 1_565 S
C259 C118 1.488 1_545 S
C8 C64 1.041 . S
C79 C23 1.041 . S
C37 C92 1.041 . S
C50 C107 1.041 . S
C121 C22 1.041 . S
C134 C36 1.041 . S
C149 C51 1.041 . S
C9 C162 1.041 . S
C163 C65 1.041 . S
C78 C120 1.041 . S
C93 C135 1.041 . S
C148 C106 1.041 . S
C232 C176 1.041 . S
C247 C191 1.041 . S
C205 C260 1.041 . S
C218 C275 1.041 . S
C190 C289 1.041 . S
C204 C302 1.041 . S
C317 C219 1.041 . S
C177 C330 1.041 . S
C233 C331 1.041 . S
C288 C246 1.041 . S
C261 C303 1.041 . S
C316 C274 1.041 . S
