# Generated by pormake.
# Topology uog, (4)-cn, num edge types: 1
# Building blocks:
#     Node 0, Type 0, BuildingBlock: KUFVIS_clean_sbu_0, # of connection points: 4
#     Node 1, Type 0, BuildingBlock: KUFVIS_clean_sbu_0, # of connection points: 4
#     Node 2, Type 0, BuildingBlock: KUFVIS_clean_sbu_0, # of connection points: 4
#     Node 3, Type 0, BuildingBlock: KUFVIS_clean_sbu_0, # of connection points: 4
#     Node 4, Type 0, BuildingBlock: KUFVIS_clean_sbu_0, # of connection points: 4
#     Node 5, Type 0, BuildingBlock: KUFVIS_clean_sbu_0, # of connection points: 4
#     Edge 6, Type (0, 0), BuildingBlock: CIFDUS_clean_linker_0, # of connection points: 2
#     Edge 7, Type (0, 0), BuildingBlock: CIFDUS_clean_linker_0, # of connection points: 2
#     Edge 8, Type (0, 0), BuildingBlock: CIFDUS_clean_linker_0, # of connection points: 2
#     Edge 9, Type (0, 0), BuildingBlock: CIFDUS_clean_linker_0, # of connection points: 2
#     Edge 10, Type (0, 0), BuildingBlock: CIFDUS_clean_linker_0, # of connection points: 2
#     Edge 11, Type (0, 0), BuildingBlock: CIFDUS_clean_linker_0, # of connection points: 2
#     Edge 12, Type (0, 0), BuildingBlock: CIFDUS_clean_linker_0, # of connection points: 2
#     Edge 13, Type (0, 0), BuildingBlock: CIFDUS_clean_linker_0, # of connection points: 2
#     Edge 14, Type (0, 0), BuildingBlock: CIFDUS_clean_linker_0, # of connection points: 2
#     Edge 15, Type (0, 0), BuildingBlock: CIFDUS_clean_linker_0, # of connection points: 2
#     Edge 16, Type (0, 0), BuildingBlock: CIFDUS_clean_linker_0, # of connection points: 2
#     Edge 17, Type (0, 0), BuildingBlock: CIFDUS_clean_linker_0, # of connection points: 2
# Relax obj value: 0.107
# Max RMSD: 0.205
# Mean RMSD: 0.203
data_MOF--net-uog--node1-KUFVIS_clean_sbu_0--edge1-CIFDUS_clean_linker_0
_symmetry_space_group_name_H-M    P1
_symmetry_Int_Tables_number       1
_symmetry_cell_setting            triclinic
loop_
_symmetry_equiv_pos_as_xyz
'x, y, z'
_cell_length_a     24.865222
_cell_length_b     24.646013
_cell_length_c     36.208066
_cell_angle_alpha  90.059014
_cell_angle_beta   89.679244
_cell_angle_gamma 119.11615
loop_
_atom_site_label
_atom_site_type_symbol
_atom_site_fract_x
_atom_site_fract_y
_atom_site_fract_z
_atom_type_partial_charge
Mn0 Mn 0.60408 0.28715 0.1516 0.0
Mn1 Mn 0.73156 0.42731 0.15387 0.0
C2 C 0.64368 0.3387 0.09663 0.0
C3 C 0.56979 0.17932 0.1541 0.0
C4 C 0.60334 0.40873 0.17003 0.0
O5 O 0.63344 0.29484 0.20393 0.0
O6 O 0.7242 0.38256 0.20147 0.0
C7 C 0.82493 0.38561 0.15325 0.0
N8 N 0.80088 0.41951 0.13795 0.0
C9 C 0.87998 0.46019 0.09113 0.0
C10 C 0.90589 0.42604 0.10652 0.0
C11 C 0.87811 0.38843 0.13764 0.0
C12 C 0.82702 0.45554 0.1079 0.0
H13 H 0.80369 0.35675 0.1772 0.0
C14 C 0.6834 0.3345 0.21868 0.0
O15 O 0.53339 0.20127 0.16341 0.0
O16 O 0.62404 0.2194 0.1427 0.0
N17 N 0.74554 0.47671 0.11055 0.0
C18 C 0.71344 0.50484 0.09831 0.0
C19 C 0.73482 0.54392 0.06735 0.0
C20 C 0.78916 0.55406 0.04952 0.0
C21 C 0.82122 0.52426 0.06236 0.0
C22 C 0.79805 0.48635 0.09363 0.0
H23 H 0.67188 0.49763 0.11205 0.0
O24 O 0.58884 0.29115 0.0983 0.0
O25 O 0.67585 0.35178 0.12696 0.0
O26 O 0.57226 0.35 0.16323 0.0
O27 O 0.66218 0.43931 0.16924 0.0
C28 C 0.87499 0.53037 0.0453 0.0
C29 C 0.90424 0.49818 0.05961 0.0
H30 H 0.9469 0.4281 0.09458 0.0
H31 H 0.89771 0.36177 0.1496 0.0
H32 H 0.70979 0.56662 0.05743 0.0
H33 H 0.80598 0.58534 0.02628 0.0
H34 H 0.89387 0.55919 0.02097 0.0
H35 H 0.94519 0.50274 0.04606 0.0
Mn36 Mn 0.3395 0.6261 0.48497 0.0
Mn37 Mn 0.32537 0.7549 0.47818 0.0
C38 C 0.3299 0.65931 0.42753 0.0
C39 C 0.4136 0.59291 0.49208 0.0
C40 C 0.21731 0.62804 0.49715 0.0
O41 O 0.35939 0.66236 0.53577 0.0
O42 O 0.35635 0.75118 0.52872 0.0
C43 C 0.4579 0.8473 0.48133 0.0
N44 N 0.40314 0.82222 0.46327 0.0
C45 C 0.44809 0.89487 0.41309 0.0
C46 C 0.50487 0.92187 0.43132 0.0
C47 C 0.5098 0.89787 0.46554 0.0
C48 C 0.3979 0.84484 0.43029 0.0
H49 H 0.46191 0.82881 0.50757 0.0
C50 C 0.3655 0.71307 0.54828 0.0
O51 O 0.3563 0.5568 0.50153 0.0
O52 O 0.42623 0.64579 0.47802 0.0
N53 N 0.29604 0.76562 0.43149 0.0
C54 C 0.23841 0.73325 0.41707 0.0
C55 C 0.22619 0.75018 0.38238 0.0
C56 C 0.27304 0.80067 0.36314 0.0
C57 C 0.33165 0.83407 0.37888 0.0
C58 C 0.34108 0.81513 0.41357 0.0
H59 H 0.20223 0.69436 0.4317 0.0
O60 O 0.32224 0.60386 0.43223 0.0
O61 O 0.34706 0.69532 0.4565 0.0
O62 O 0.24578 0.59603 0.49501 0.0
O63 O 0.24402 0.68692 0.4923 0.0
C64 C 0.38136 0.88471 0.36123 0.0
C65 C 0.43953 0.91512 0.37833 0.0
H66 H 0.54505 0.96075 0.41917 0.0
H67 H 0.55353 0.91824 0.47969 0.0
H68 H 0.18082 0.72423 0.37045 0.0
H69 H 0.26356 0.81328 0.33627 0.0
H70 H 0.37549 0.90031 0.33435 0.0
H71 H 0.4775 0.95372 0.36437 0.0
Mn72 Mn 0.71408 0.30219 0.83523 0.0
Mn73 Mn 0.74138 0.44982 0.83715 0.0
C74 C 0.73161 0.35173 0.89131 0.0
C75 C 0.63837 0.19802 0.8316 0.0
C76 C 0.83879 0.41438 0.81664 0.0
O77 O 0.69299 0.31644 0.78392 0.0
O78 O 0.70175 0.41114 0.78897 0.0
C79 C 0.61232 0.42488 0.83989 0.0
N80 N 0.66965 0.45143 0.85484 0.0
C81 C 0.63879 0.49512 0.90471 0.0
C82 C 0.57944 0.46852 0.88975 0.0
C83 C 0.56613 0.43313 0.85725 0.0
C84 C 0.68286 0.48528 0.88619 0.0
H85 H 0.60202 0.39761 0.81495 0.0
C86 C 0.68908 0.36191 0.77049 0.0
O87 O 0.69467 0.21581 0.82103 0.0
O88 O 0.62697 0.24026 0.84464 0.0
N89 N 0.77996 0.49374 0.88127 0.0
C90 C 0.83887 0.51435 0.89269 0.0
C91 C 0.8599 0.5509 0.92459 0.0
C92 C 0.82031 0.56613 0.94425 0.0
C93 C 0.75959 0.54373 0.93228 0.0
C94 C 0.74152 0.50827 0.89995 0.0
H95 H 0.86975 0.50334 0.87749 0.0
O96 O 0.73439 0.3008 0.8878 0.0
O97 O 0.71422 0.37003 0.86204 0.0
O98 O 0.80649 0.35573 0.82247 0.0
O99 O 0.81755 0.45209 0.81992 0.0
C100 C 0.71629 0.55509 0.9511 0.0
C101 C 0.65582 0.53048 0.93744 0.0
H102 H 0.54367 0.47467 0.90309 0.0
H103 H 0.52039 0.41229 0.84563 0.0
H104 H 0.90671 0.56786 0.93379 0.0
H105 H 0.83755 0.59573 0.96815 0.0
H106 H 0.72882 0.58222 0.97625 0.0
H107 H 0.62275 0.53892 0.95237 0.0
Mn108 Mn 0.3996 0.70161 0.14914 0.0
Mn109 Mn 0.27209 0.56168 0.14473 0.0
C110 C 0.36809 0.65492 0.09236 0.0
C111 C 0.43385 0.80927 0.15351 0.0
C112 C 0.39736 0.57833 0.16657 0.0
O113 O 0.3622 0.68973 0.19984 0.0
O114 O 0.27232 0.60218 0.19279 0.0
C115 C 0.17894 0.60341 0.14057 0.0
N116 N 0.20532 0.57097 0.12601 0.0
C117 C 0.13306 0.53402 0.07588 0.0
C118 C 0.10481 0.56671 0.09046 0.0
C119 C 0.128 0.60173 0.12287 0.0
C120 C 0.18363 0.53746 0.09473 0.0
H121 H 0.1966 0.63022 0.16553 0.0
C122 C 0.31014 0.64886 0.212 0.0
O123 O 0.46859 0.78633 0.16433 0.0
O124 O 0.38132 0.77031 0.13972 0.0
N125 N 0.26476 0.51633 0.1005 0.0
C126 C 0.29873 0.4894 0.08937 0.0
C127 C 0.28175 0.45265 0.05746 0.0
C128 C 0.22987 0.44364 0.0375 0.0
C129 C 0.19607 0.47252 0.04911 0.0
C130 C 0.21477 0.50801 0.08142 0.0
H131 H 0.33833 0.49564 0.10476 0.0
O132 O 0.42274 0.70182 0.09672 0.0
O133 O 0.33156 0.63955 0.12109 0.0
O134 O 0.42938 0.6376 0.16174 0.0
O135 O 0.33887 0.54804 0.16289 0.0
C136 C 0.14469 0.46759 0.02997 0.0
C137 C 0.11338 0.49856 0.04325 0.0
H138 H 0.06548 0.56548 0.07692 0.0
H139 H 0.10657 0.62724 0.13422 0.0
H140 H 0.30817 0.43073 0.04849 0.0
H141 H 0.21621 0.41379 0.01363 0.0
H142 H 0.12915 0.44054 0.00485 0.0
H143 H 0.07432 0.49493 0.0281 0.0
Mn144 Mn 0.7264 0.42867 0.4889 0.0
Mn145 Mn 0.73821 0.2986 0.4815 0.0
C146 C 0.73733 0.39658 0.43128 0.0
C147 C 0.65322 0.4631 0.49614 0.0
C148 C 0.84759 0.42439 0.50001 0.0
O149 O 0.7052 0.39195 0.53977 0.0
O150 O 0.70744 0.30286 0.53227 0.0
C151 C 0.60479 0.20918 0.48524 0.0
N152 N 0.65958 0.23284 0.46691 0.0
C153 C 0.61294 0.16161 0.41651 0.0
C154 C 0.55611 0.13607 0.43501 0.0
C155 C 0.55202 0.16007 0.46949 0.0
C156 C 0.66399 0.21028 0.43366 0.0
H157 H 0.60138 0.22772 0.51165 0.0
C158 C 0.69841 0.3409 0.55208 0.0
O159 O 0.71044 0.49856 0.50559 0.0
O160 O 0.64011 0.41012 0.48209 0.0
N161 N 0.76698 0.2868 0.43463 0.0
C162 C 0.82505 0.317 0.42023 0.0
C163 C 0.83671 0.29945 0.38547 0.0
C164 C 0.78884 0.25045 0.36615 0.0
C165 C 0.72981 0.21903 0.38194 0.0
C166 C 0.72099 0.23846 0.41673 0.0
H167 H 0.86202 0.35473 0.43492 0.0
O168 O 0.74498 0.45193 0.43628 0.0
O169 O 0.71875 0.35972 0.45999 0.0
O170 O 0.81969 0.45705 0.49862 0.0
O171 O 0.82025 0.36549 0.49512 0.0
C172 C 0.67918 0.16983 0.36429 0.0
C173 C 0.62078 0.14114 0.38156 0.0
H174 H 0.51528 0.09831 0.42291 0.0
H175 H 0.50826 0.14084 0.48386 0.0
H176 H 0.88245 0.32376 0.37353 0.0
H177 H 0.79791 0.23738 0.33922 0.0
H178 H 0.68454 0.15401 0.3373 0.0
H179 H 0.58212 0.10362 0.36761 0.0
Mn180 Mn 0.32754 0.72918 0.83189 0.0
Mn181 Mn 0.29971 0.58129 0.82921 0.0
C182 C 0.30714 0.67471 0.88633 0.0
C183 C 0.40357 0.83343 0.83054 0.0
C184 C 0.20333 0.61894 0.81104 0.0
O185 O 0.35054 0.71914 0.78005 0.0
O186 O 0.34232 0.62446 0.78241 0.0
C187 C 0.42851 0.60559 0.83239 0.0
N188 N 0.37032 0.57766 0.84655 0.0
C189 C 0.39808 0.52864 0.8946 0.0
C190 C 0.45827 0.55658 0.88041 0.0
C191 C 0.47357 0.59535 0.84923 0.0
C192 C 0.3552 0.54057 0.87665 0.0
H193 H 0.44035 0.63546 0.80846 0.0
C194 C 0.35596 0.67524 0.76544 0.0
O195 O 0.34763 0.81656 0.82005 0.0
O196 O 0.41439 0.79018 0.84236 0.0
N197 N 0.25858 0.53313 0.87189 0.0
C198 C 0.1991 0.51169 0.88286 0.0
C199 C 0.17622 0.47205 0.91352 0.0
C200 C 0.21456 0.45461 0.93239 0.0
C201 C 0.27582 0.47776 0.9209 0.0
C202 C 0.29578 0.5164 0.88979 0.0
H203 H 0.16922 0.52452 0.86832 0.0
O204 O 0.30533 0.72635 0.88461 0.0
O205 O 0.32578 0.65882 0.85645 0.0
O206 O 0.23555 0.67696 0.81854 0.0
O207 O 0.22451 0.58098 0.8123 0.0
C208 C 0.3179 0.46428 0.9391 0.0
C209 C 0.37909 0.48997 0.92607 0.0
H210 H 0.49318 0.54889 0.89335 0.0
H211 H 0.51997 0.61726 0.83821 0.0
H212 H 0.12899 0.4545 0.92238 0.0
H213 H 0.19602 0.42283 0.95533 0.0
H214 H 0.30388 0.43472 0.96334 0.0
H215 H 0.41122 0.47986 0.94054 0.0
H216 H 0.45466 0.0762 0.1582 0.0
H217 H 0.64822 0.13236 0.1566 0.0
H218 H 0.62462 0.02422 0.15875 0.0
H219 H 0.54883 0.91217 0.15841 0.0
H220 H 0.35534 0.856 0.1564 0.0
H221 H 0.37888 0.96417 0.15855 0.0
C222 C 0.49156 0.0647 0.15857 0.0
C223 C 0.55306 0.1126 0.15711 0.0
C224 C 0.4777 1.00182 0.15906 0.0
C225 C 0.60034 0.09663 0.15741 0.0
C226 C 0.58696 0.03458 0.15871 0.0
C227 C 0.51194 0.92369 0.15877 0.0
C228 C 0.45048 0.87583 0.15717 0.0
C229 C 0.52579 0.98657 0.15915 0.0
C230 C 0.40319 0.89178 0.15736 0.0
C231 C 0.41654 0.95381 0.15862 0.0
H232 H 0.40626 0.47849 0.50202 0.0
H233 H 0.53582 0.67418 0.49369 0.0
H234 H 0.62159 0.6531 0.49738 0.0
H235 H 0.66121 0.57856 0.4989 0.0
H236 H 0.53171 0.38263 0.50414 0.0
H237 H 0.44597 0.40419 0.50609 0.0
C238 C 0.45322 0.51643 0.5014 0.0
C239 C 0.46421 0.57771 0.49733 0.0
C240 C 0.50304 0.50398 0.50284 0.0
C241 C 0.52565 0.62635 0.49643 0.0
C242 C 0.57507 0.61445 0.4986 0.0
C243 C 0.61429 0.54078 0.50097 0.0
C244 C 0.60315 0.47916 0.50122 0.0
C245 C 0.56453 0.55338 0.50121 0.0
C246 C 0.54181 0.43064 0.5036 0.0
C247 C 0.49249 0.44283 0.50471 0.0
H248 H 0.92124 0.5371 0.80843 0.0
H249 H 0.90758 0.35542 0.80676 0.0
H250 H 0.01944 0.4038 0.80028 0.0
H251 H 0.12047 0.49686 0.8008 0.0
H252 H 0.13424 0.67837 0.80703 0.0
H253 H 0.02205 0.6302 0.80543 0.0
C254 C 0.94231 0.50767 0.8063 0.0
C255 C 0.90568 0.4424 0.80844 0.0
C256 C 1.00658 0.53576 0.8035 0.0
C257 C 0.93436 0.40559 0.80541 0.0
C258 C 0.99837 0.43327 0.80176 0.0
C259 C 0.09931 0.52631 0.80139 0.0
C260 C 0.13616 0.59144 0.80442 0.0
C261 C 0.0349 0.49827 0.80164 0.0
C262 C 0.10734 0.62831 0.80489 0.0
C263 C 0.04312 0.60073 0.80413 0.0
H264 H 0.13163 0.50289 0.50202 0.0
H265 H 0.14794 0.68553 0.50596 0.0
H266 H 0.03717 0.64034 0.50889 0.0
H267 H 0.9335 0.54906 0.50624 0.0
H268 H 0.91705 0.3663 0.5045 0.0
H269 H 0.02792 0.41135 0.50512 0.0
C270 C 0.11109 0.53281 0.50396 0.0
C271 C 0.14908 0.59767 0.50326 0.0
C272 C 0.04628 0.50653 0.50582 0.0
C273 C 0.12076 0.63535 0.506 0.0
C274 C 0.05684 0.60961 0.50768 0.0
C275 C 0.95403 0.51904 0.50644 0.0
C276 C 0.91596 0.45426 0.50488 0.0
C277 C 0.01885 0.54522 0.50695 0.0
C278 C 0.94429 0.41644 0.50535 0.0
C279 C 1.00826 0.44211 0.50567 0.0
H280 H 0.39434 0.93913 0.8267 0.0
H281 H 0.52631 0.87327 0.82997 0.0
H282 H 0.61093 0.97981 0.82832 0.0
H283 H 0.64799 0.09247 0.82808 0.0
H284 H 0.51588 0.15824 0.82888 0.0
H285 H 0.43136 0.05171 0.82665 0.0
C286 C 0.44163 0.94822 0.82685 0.0
C287 C 0.45397 0.89843 0.8285 0.0
C288 C 0.49028 1.00981 0.8267 0.0
C289 C 0.51551 0.91085 0.82894 0.0
C290 C 0.56404 0.9718 0.82793 0.0
C291 C 0.6007 0.08334 0.8275 0.0
C292 C 0.58825 0.13309 0.82865 0.0
C293 C 0.55206 0.02174 0.82711 0.0
C294 C 0.52671 0.12066 0.82822 0.0
C295 C 0.47825 0.05973 0.82691 0.0
H296 H 0.52084 0.61492 0.17564 0.0
H297 H 0.34103 0.45189 0.17233 0.0
H298 H 0.38709 0.38524 0.17461 0.0
H299 H 0.47887 0.3715 0.17294 0.0
H300 H 0.65836 0.53432 0.1801 0.0
H301 H 0.61202 0.60079 0.18126 0.0
C302 C 0.49167 0.56491 0.1759 0.0
C303 C 0.42747 0.53935 0.17323 0.0
C304 C 0.51839 0.52577 0.17767 0.0
C305 C 0.39071 0.4739 0.17398 0.0
C306 C 0.41696 0.43512 0.17523 0.0
C307 C 0.50783 0.42137 0.17524 0.0
C308 C 0.5722 0.44704 0.17583 0.0
C309 C 0.48087 0.46035 0.17635 0.0
C310 C 0.60862 0.51227 0.17918 0.0
C311 C 0.58222 0.55095 0.1798 0.0
H312 H 0.65277 0.37979 0.92801 0.0
H313 H 0.82245 0.37462 0.93928 0.0
H314 H 0.81584 0.37932 0.00647 0.0
H315 H 0.74887 0.36082 0.06093 0.0
H316 H 0.58485 0.37677 0.05002 0.0
H317 H 0.60261 0.39341 0.98352 0.0
C318 C 0.69028 0.38385 0.94502 0.0
C319 C 0.73845 0.37783 0.92875 0.0
C320 C 0.68643 0.38708 0.98366 0.0
C321 C 0.78518 0.37978 0.95131 0.0
C322 C 0.78117 0.38193 0.98971 0.0
C323 C 0.71926 0.37182 0.04438 0.0
C324 C 0.66631 0.3687 0.06038 0.0
C325 C 0.73024 0.38224 0.00621 0.0
C326 C 0.62631 0.37962 0.03823 0.0
C327 C 0.63621 0.38877 0.0002 0.0
H328 H 0.38409 0.73474 0.26211 0.0
H329 H 0.20532 0.57192 0.2512 0.0
H330 H 0.19158 0.56826 0.3182 0.0
H331 H 0.2372 0.60157 0.37986 0.0
H332 H 0.42013 0.75663 0.39013 0.0
H333 H 0.42519 0.77402 0.32336 0.0
C334 C 0.34154 0.6989 0.27417 0.0
C335 C 0.29626 0.6529 0.25153 0.0
C336 C 0.33487 0.69582 0.3127 0.0
C337 C 0.24128 0.60742 0.26786 0.0
C338 C 0.23346 0.60521 0.30622 0.0
C339 C 0.27731 0.64024 0.36739 0.0
C340 C 0.32742 0.67924 0.38971 0.0
C341 C 0.28092 0.64771 0.3289 0.0
C342 C 0.38015 0.72784 0.37351 0.0
C343 C 0.38332 0.73705 0.33533 0.0
H344 H 0.67691 0.27331 0.72105 0.0
H345 H 0.67269 0.44616 0.72921 0.0
H346 H 0.6681 0.45052 0.66197 0.0
H347 H 0.6768 0.41158 0.60139 0.0
H348 H 0.68737 0.24208 0.59313 0.0
H349 H 0.67728 0.22995 0.66024 0.0
C350 C 0.67407 0.31163 0.70832 0.0
C351 C 0.67587 0.3598 0.73037 0.0
C352 C 0.67318 0.31475 0.66963 0.0
C353 C 0.67184 0.40871 0.71309 0.0
C354 C 0.66943 0.41133 0.67459 0.0
C355 C 0.67633 0.37149 0.61406 0.0
C356 C 0.68378 0.32822 0.59207 0.0
C357 C 0.67197 0.3656 0.65264 0.0
C358 C 0.68222 0.27636 0.60923 0.0
C359 C 0.67661 0.2695 0.64765 0.0
H360 H 0.38077 0.64047 0.92296 0.0
H361 H 0.21092 0.64625 0.93161 0.0
H362 H 0.20831 0.63 -0.00169 0.0
H363 H 0.26775 0.63867 0.05436 0.0
H364 H 0.43201 0.62241 0.04558 0.0
H365 H 0.42297 0.6167 0.97831 0.0
C366 C 0.34129 0.6342 0.93909 0.0
C367 C 0.29567 0.64355 0.92244 0.0
C368 C 0.33981 0.62423 0.97738 0.0
C369 C 0.24627 0.63861 0.94397 0.0
C370 C 0.24497 0.62975 0.98209 0.0
C371 C 0.29915 0.62974 0.03792 0.0
C372 C 0.34978 0.62987 0.05483 0.0
C373 C 0.29325 0.6258 -0.0007 0.0
C374 C 0.39229 0.62183 0.033 0.0
C375 C 0.3874 0.619 -0.00542 0.0
H376 H 0.65092 0.30327 0.39056 0.0
H377 H 0.83663 0.4551 0.38711 0.0
H378 H 0.83987 0.44523 0.32001 0.0
H379 H 0.7843 0.40279 0.26191 0.0
H380 H 0.59851 0.24917 0.26603 0.0
H381 H 0.60182 0.24885 0.33307 0.0
C382 C 0.69287 0.33223 0.37519 0.0
C383 C 0.74398 0.37871 0.39357 0.0
C384 C 0.69413 0.32658 0.33663 0.0
C385 C 0.79722 0.41812 0.37334 0.0
C386 C 0.79892 0.41277 0.33503 0.0
C387 C 0.74491 0.36857 0.27741 0.0
C388 C 0.69081 0.32727 0.25876 0.0
C389 C 0.74679 0.36862 0.31622 0.0
C390 C 0.64061 0.2824 0.27944 0.0
C391 C 0.64222 0.28216 0.31793 0.0
H392 H 0.36832 0.76635 0.71807 0.0
H393 H 0.38188 0.59822 0.72323 0.0
H394 H 0.39478 0.60085 0.65623 0.0
H395 H 0.39001 0.64356 0.5964 0.0
H396 H 0.36905 0.80744 0.59073 0.0
H397 H 0.37246 0.81428 0.65814 0.0
C398 C 0.37498 0.73062 0.70474 0.0
C399 C 0.37328 0.68159 0.72577 0.0
C400 C 0.38066 0.73146 0.66615 0.0
C401 C 0.38235 0.63609 0.70782 0.0
C402 C 0.38963 0.63753 0.66948 0.0
C403 C 0.38682 0.68136 0.60971 0.0
C404 C 0.3782 0.72439 0.58837 0.0
C405 C 0.38689 0.68386 0.64836 0.0
C406 C 0.37522 0.77342 0.60634 0.0
C407 C 0.37687 0.77716 0.64492 0.0
loop_
_geom_bond_atom_site_label_1
_geom_bond_atom_site_label_2
_geom_bond_distance
_geom_bond_site_symmetry_2
_ccdc_geom_bond_type
Mn0 O5 2.095 . S
Mn0 O15 2.162 . S
Mn0 O16 2.297 . S
Mn0 O24 2.385 . S
Mn0 O25 2.209 . S
Mn0 O26 2.094 . S
Mn1 O6 2.121 . S
Mn1 N8 2.257 . S
Mn1 N17 2.282 . S
Mn1 O25 2.215 . S
Mn1 O27 2.117 . S
C2 O24 1.234 . S
C2 O25 1.283 . S
C3 O15 1.281 . S
C3 O16 1.236 . S
C4 O26 1.240 . S
C4 O27 1.264 . S
O5 Mn0 2.095 . S
O5 C14 1.250 . S
O6 Mn1 2.121 . S
O6 C14 1.258 . S
C7 N8 1.326 . S
C7 C11 1.460 . S
C7 H13 0.929 . S
N8 Mn1 2.257 . S
N8 C7 1.326 . S
N8 C12 1.362 . S
C9 C10 1.258 . S
C9 C12 1.431 . S
C9 C29 1.449 . S
C10 C9 1.258 . S
C10 C11 1.477 . S
C10 H30 0.931 . S
C11 C7 1.460 . S
C11 C10 1.477 . S
C11 H31 0.930 . S
C12 N8 1.362 . S
C12 C9 1.431 . S
C12 C22 1.476 . S
H13 C7 0.929 . S
C14 O5 1.250 . S
C14 O6 1.258 . S
O15 Mn0 2.162 . S
O15 C3 1.281 . S
O16 Mn0 2.297 . S
O16 C3 1.236 . S
N17 Mn1 2.282 . S
N17 C18 1.328 . S
N17 C22 1.318 . S
C18 N17 1.328 . S
C18 C19 1.457 . S
C18 H23 0.929 . S
C19 C18 1.457 . S
C19 C20 1.291 . S
C19 H32 0.931 . S
C20 C19 1.291 . S
C20 C21 1.373 . S
C20 H33 0.929 . S
C21 C20 1.373 . S
C21 C22 1.396 . S
C21 C28 1.403 . S
C22 C12 1.476 . S
C22 N17 1.318 . S
C22 C21 1.396 . S
H23 C18 0.929 . S
O24 Mn0 2.385 . S
O24 C2 1.234 . S
O25 Mn0 2.209 . S
O25 Mn1 2.215 . S
O25 C2 1.283 . S
O26 Mn0 2.094 . S
O26 C4 1.240 . S
O27 Mn1 2.117 . S
O27 C4 1.264 . S
C28 C21 1.403 . S
C28 C29 1.399 . S
C28 H34 0.929 . S
C29 C9 1.449 . S
C29 C28 1.399 . S
C29 H35 0.930 . S
H30 C10 0.931 . S
H31 C11 0.930 . S
H32 C19 0.931 . S
H33 C20 0.929 . S
H34 C28 0.929 . S
H35 C29 0.930 . S
Mn36 O41 2.095 . S
Mn36 O51 2.162 . S
Mn36 O52 2.297 . S
Mn36 O60 2.385 . S
Mn36 O61 2.209 . S
Mn36 O62 2.094 . S
Mn37 O42 2.121 . S
Mn37 N44 2.257 . S
Mn37 N53 2.282 . S
Mn37 O61 2.215 . S
Mn37 O63 2.117 . S
C38 O60 1.234 . S
C38 O61 1.283 . S
C39 O51 1.281 . S
C39 O52 1.236 . S
C40 O62 1.240 . S
C40 O63 1.264 . S
O41 Mn36 2.095 . S
O41 C50 1.250 . S
O42 Mn37 2.121 . S
O42 C50 1.258 . S
C43 N44 1.326 . S
C43 C47 1.460 . S
C43 H49 0.929 . S
N44 Mn37 2.257 . S
N44 C43 1.326 . S
N44 C48 1.362 . S
C45 C46 1.258 . S
C45 C48 1.431 . S
C45 C65 1.449 . S
C46 C45 1.258 . S
C46 C47 1.477 . S
C46 H66 0.931 . S
C47 C43 1.460 . S
C47 C46 1.477 . S
C47 H67 0.930 . S
C48 N44 1.362 . S
C48 C45 1.431 . S
C48 C58 1.476 . S
H49 C43 0.929 . S
C50 O41 1.250 . S
C50 O42 1.258 . S
O51 Mn36 2.162 . S
O51 C39 1.281 . S
O52 Mn36 2.297 . S
O52 C39 1.236 . S
N53 Mn37 2.282 . S
N53 C54 1.328 . S
N53 C58 1.318 . S
C54 N53 1.328 . S
C54 C55 1.457 . S
C54 H59 0.929 . S
C55 C54 1.457 . S
C55 C56 1.291 . S
C55 H68 0.931 . S
C56 C55 1.291 . S
C56 C57 1.373 . S
C56 H69 0.929 . S
C57 C56 1.373 . S
C57 C58 1.396 . S
C57 C64 1.403 . S
C58 C48 1.476 . S
C58 N53 1.318 . S
C58 C57 1.396 . S
H59 C54 0.929 . S
O60 Mn36 2.385 . S
O60 C38 1.234 . S
O61 Mn36 2.209 . S
O61 Mn37 2.215 . S
O61 C38 1.283 . S
O62 Mn36 2.094 . S
O62 C40 1.240 . S
O63 Mn37 2.117 . S
O63 C40 1.264 . S
C64 C57 1.403 . S
C64 C65 1.399 . S
C64 H70 0.929 . S
C65 C45 1.449 . S
C65 C64 1.399 . S
C65 H71 0.930 . S
H66 C46 0.931 . S
H67 C47 0.930 . S
H68 C55 0.931 . S
H69 C56 0.929 . S
H70 C64 0.929 . S
H71 C65 0.930 . S
Mn72 O77 2.095 . S
Mn72 O87 2.162 . S
Mn72 O88 2.297 . S
Mn72 O96 2.385 . S
Mn72 O97 2.209 . S
Mn72 O98 2.094 . S
Mn73 O78 2.121 . S
Mn73 N80 2.257 . S
Mn73 N89 2.282 . S
Mn73 O97 2.215 . S
Mn73 O99 2.117 . S
C74 O96 1.234 . S
C74 O97 1.283 . S
C75 O87 1.281 . S
C75 O88 1.236 . S
C76 O98 1.240 . S
C76 O99 1.264 . S
O77 Mn72 2.095 . S
O77 C86 1.250 . S
O78 Mn73 2.121 . S
O78 C86 1.258 . S
C79 N80 1.326 . S
C79 C83 1.460 . S
C79 H85 0.929 . S
N80 Mn73 2.257 . S
N80 C79 1.326 . S
N80 C84 1.362 . S
C81 C82 1.258 . S
C81 C84 1.431 . S
C81 C101 1.449 . S
C82 C81 1.258 . S
C82 C83 1.477 . S
C82 H102 0.931 . S
C83 C79 1.460 . S
C83 C82 1.477 . S
C83 H103 0.930 . S
C84 N80 1.362 . S
C84 C81 1.431 . S
C84 C94 1.476 . S
H85 C79 0.929 . S
C86 O77 1.250 . S
C86 O78 1.258 . S
O87 Mn72 2.162 . S
O87 C75 1.281 . S
O88 Mn72 2.297 . S
O88 C75 1.236 . S
N89 Mn73 2.282 . S
N89 C90 1.328 . S
N89 C94 1.318 . S
C90 N89 1.328 . S
C90 C91 1.457 . S
C90 H95 0.929 . S
C91 C90 1.457 . S
C91 C92 1.291 . S
C91 H104 0.931 . S
C92 C91 1.291 . S
C92 C93 1.373 . S
C92 H105 0.929 . S
C93 C92 1.373 . S
C93 C94 1.396 . S
C93 C100 1.403 . S
C94 C84 1.476 . S
C94 N89 1.318 . S
C94 C93 1.396 . S
H95 C90 0.929 . S
O96 Mn72 2.385 . S
O96 C74 1.234 . S
O97 Mn72 2.209 . S
O97 Mn73 2.215 . S
O97 C74 1.283 . S
O98 Mn72 2.094 . S
O98 C76 1.240 . S
O99 Mn73 2.117 . S
O99 C76 1.264 . S
C100 C93 1.403 . S
C100 C101 1.399 . S
C100 H106 0.929 . S
C101 C81 1.449 . S
C101 C100 1.399 . S
C101 H107 0.930 . S
H102 C82 0.931 . S
H103 C83 0.930 . S
H104 C91 0.931 . S
H105 C92 0.929 . S
H106 C100 0.929 . S
H107 C101 0.930 . S
Mn108 O113 2.095 . S
Mn108 O123 2.162 . S
Mn108 O124 2.297 . S
Mn108 O132 2.385 . S
Mn108 O133 2.209 . S
Mn108 O134 2.094 . S
Mn109 O114 2.121 . S
Mn109 N116 2.257 . S
Mn109 N125 2.282 . S
Mn109 O133 2.215 . S
Mn109 O135 2.117 . S
C110 O132 1.234 . S
C110 O133 1.283 . S
C111 O123 1.281 . S
C111 O124 1.236 . S
C112 O134 1.240 . S
C112 O135 1.264 . S
O113 Mn108 2.095 . S
O113 C122 1.250 . S
O114 Mn109 2.121 . S
O114 C122 1.258 . S
C115 N116 1.326 . S
C115 C119 1.460 . S
C115 H121 0.929 . S
N116 Mn109 2.257 . S
N116 C115 1.326 . S
N116 C120 1.362 . S
C117 C118 1.258 . S
C117 C120 1.431 . S
C117 C137 1.449 . S
C118 C117 1.258 . S
C118 C119 1.477 . S
C118 H138 0.931 . S
C119 C115 1.460 . S
C119 C118 1.477 . S
C119 H139 0.930 . S
C120 N116 1.362 . S
C120 C117 1.431 . S
C120 C130 1.476 . S
H121 C115 0.929 . S
C122 O113 1.250 . S
C122 O114 1.258 . S
O123 Mn108 2.162 . S
O123 C111 1.281 . S
O124 Mn108 2.297 . S
O124 C111 1.236 . S
N125 Mn109 2.282 . S
N125 C126 1.328 . S
N125 C130 1.318 . S
C126 N125 1.328 . S
C126 C127 1.457 . S
C126 H131 0.929 . S
C127 C126 1.457 . S
C127 C128 1.291 . S
C127 H140 0.931 . S
C128 C127 1.291 . S
C128 C129 1.373 . S
C128 H141 0.929 . S
C129 C128 1.373 . S
C129 C130 1.396 . S
C129 C136 1.403 . S
C130 C120 1.476 . S
C130 N125 1.318 . S
C130 C129 1.396 . S
H131 C126 0.929 . S
O132 Mn108 2.385 . S
O132 C110 1.234 . S
O133 Mn108 2.209 . S
O133 Mn109 2.215 . S
O133 C110 1.283 . S
O134 Mn108 2.094 . S
O134 C112 1.240 . S
O135 Mn109 2.117 . S
O135 C112 1.264 . S
C136 C129 1.403 . S
C136 C137 1.399 . S
C136 H142 0.929 . S
C137 C117 1.449 . S
C137 C136 1.399 . S
C137 H143 0.930 . S
H138 C118 0.931 . S
H139 C119 0.930 . S
H140 C127 0.931 . S
H141 C128 0.929 . S
H142 C136 0.929 . S
H143 C137 0.930 . S
Mn144 O149 2.095 . S
Mn144 O159 2.162 . S
Mn144 O160 2.297 . S
Mn144 O168 2.385 . S
Mn144 O169 2.209 . S
Mn144 O170 2.094 . S
Mn145 O150 2.121 . S
Mn145 N152 2.257 . S
Mn145 N161 2.282 . S
Mn145 O169 2.215 . S
Mn145 O171 2.117 . S
C146 O168 1.234 . S
C146 O169 1.283 . S
C147 O159 1.281 . S
C147 O160 1.236 . S
C148 O170 1.240 . S
C148 O171 1.264 . S
O149 Mn144 2.095 . S
O149 C158 1.250 . S
O150 Mn145 2.121 . S
O150 C158 1.258 . S
C151 N152 1.326 . S
C151 C155 1.460 . S
C151 H157 0.929 . S
N152 Mn145 2.257 . S
N152 C151 1.326 . S
N152 C156 1.362 . S
C153 C154 1.258 . S
C153 C156 1.431 . S
C153 C173 1.449 . S
C154 C153 1.258 . S
C154 C155 1.477 . S
C154 H174 0.931 . S
C155 C151 1.460 . S
C155 C154 1.477 . S
C155 H175 0.930 . S
C156 N152 1.362 . S
C156 C153 1.431 . S
C156 C166 1.476 . S
H157 C151 0.929 . S
C158 O149 1.250 . S
C158 O150 1.258 . S
O159 Mn144 2.162 . S
O159 C147 1.281 . S
O160 Mn144 2.297 . S
O160 C147 1.236 . S
N161 Mn145 2.282 . S
N161 C162 1.328 . S
N161 C166 1.318 . S
C162 N161 1.328 . S
C162 C163 1.457 . S
C162 H167 0.929 . S
C163 C162 1.457 . S
C163 C164 1.291 . S
C163 H176 0.931 . S
C164 C163 1.291 . S
C164 C165 1.373 . S
C164 H177 0.929 . S
C165 C164 1.373 . S
C165 C166 1.396 . S
C165 C172 1.403 . S
C166 C156 1.476 . S
C166 N161 1.318 . S
C166 C165 1.396 . S
H167 C162 0.929 . S
O168 Mn144 2.385 . S
O168 C146 1.234 . S
O169 Mn144 2.209 . S
O169 Mn145 2.215 . S
O169 C146 1.283 . S
O170 Mn144 2.094 . S
O170 C148 1.240 . S
O171 Mn145 2.117 . S
O171 C148 1.264 . S
C172 C165 1.403 . S
C172 C173 1.399 . S
C172 H178 0.929 . S
C173 C153 1.449 . S
C173 C172 1.399 . S
C173 H179 0.930 . S
H174 C154 0.931 . S
H175 C155 0.930 . S
H176 C163 0.931 . S
H177 C164 0.929 . S
H178 C172 0.929 . S
H179 C173 0.930 . S
Mn180 O185 2.095 . S
Mn180 O195 2.162 . S
Mn180 O196 2.297 . S
Mn180 O204 2.385 . S
Mn180 O205 2.209 . S
Mn180 O206 2.094 . S
Mn181 O186 2.121 . S
Mn181 N188 2.257 . S
Mn181 N197 2.282 . S
Mn181 O205 2.215 . S
Mn181 O207 2.117 . S
C182 O204 1.234 . S
C182 O205 1.283 . S
C183 O195 1.281 . S
C183 O196 1.236 . S
C184 O206 1.240 . S
C184 O207 1.264 . S
O185 Mn180 2.095 . S
O185 C194 1.250 . S
O186 Mn181 2.121 . S
O186 C194 1.258 . S
C187 N188 1.326 . S
C187 C191 1.460 . S
C187 H193 0.929 . S
N188 Mn181 2.257 . S
N188 C187 1.326 . S
N188 C192 1.362 . S
C189 C190 1.258 . S
C189 C192 1.431 . S
C189 C209 1.449 . S
C190 C189 1.258 . S
C190 C191 1.477 . S
C190 H210 0.931 . S
C191 C187 1.460 . S
C191 C190 1.477 . S
C191 H211 0.930 . S
C192 N188 1.362 . S
C192 C189 1.431 . S
C192 C202 1.476 . S
H193 C187 0.929 . S
C194 O185 1.250 . S
C194 O186 1.258 . S
O195 Mn180 2.162 . S
O195 C183 1.281 . S
O196 Mn180 2.297 . S
O196 C183 1.236 . S
N197 Mn181 2.282 . S
N197 C198 1.328 . S
N197 C202 1.318 . S
C198 N197 1.328 . S
C198 C199 1.457 . S
C198 H203 0.929 . S
C199 C198 1.457 . S
C199 C200 1.291 . S
C199 H212 0.931 . S
C200 C199 1.291 . S
C200 C201 1.373 . S
C200 H213 0.929 . S
C201 C200 1.373 . S
C201 C202 1.396 . S
C201 C208 1.403 . S
C202 C192 1.476 . S
C202 N197 1.318 . S
C202 C201 1.396 . S
H203 C198 0.929 . S
O204 Mn180 2.385 . S
O204 C182 1.234 . S
O205 Mn180 2.209 . S
O205 Mn181 2.215 . S
O205 C182 1.283 . S
O206 Mn180 2.094 . S
O206 C184 1.240 . S
O207 Mn181 2.117 . S
O207 C184 1.264 . S
C208 C201 1.403 . S
C208 C209 1.399 . S
C208 H214 0.929 . S
C209 C189 1.449 . S
C209 C208 1.399 . S
C209 H215 0.930 . S
H210 C190 0.931 . S
H211 C191 0.930 . S
H212 C199 0.931 . S
H213 C200 0.929 . S
H214 C208 0.929 . S
H215 C209 0.930 . S
H216 C222 0.930 . S
H217 C225 0.930 . S
H218 C226 0.930 . S
H219 C227 0.930 . S
H220 C230 0.930 . S
H221 C231 0.930 . S
C222 H216 0.930 . S
C222 C223 1.355 . S
C222 C224 1.415 . S
C223 C222 1.355 . S
C223 C225 1.419 . S
C224 C222 1.415 . S
C224 C229 1.425 1_545 S
C224 C231 1.409 1_545 S
C225 H217 0.930 . S
C225 C223 1.419 . S
C225 C226 1.362 . S
C226 H218 0.930 . S
C226 C225 1.362 . S
C226 C229 1.409 1_545 S
C227 H219 0.930 . S
C227 C228 1.355 . S
C227 C229 1.415 . S
C228 C227 1.355 . S
C228 C230 1.419 . S
C229 C224 1.425 1_565 S
C229 C226 1.409 1_565 S
C229 C227 1.415 . S
C230 H220 0.930 . S
C230 C228 1.419 . S
C230 C231 1.362 . S
C231 H221 0.930 . S
C231 C224 1.409 1_565 S
C231 C230 1.362 . S
H232 C238 0.930 . S
H233 C241 0.930 . S
H234 C242 0.930 . S
H235 C243 0.930 . S
H236 C246 0.930 . S
H237 C247 0.930 . S
C238 H232 0.930 . S
C238 C239 1.355 . S
C238 C240 1.415 . S
C239 C238 1.355 . S
C239 C241 1.419 . S
C240 C238 1.415 . S
C240 C245 1.425 . S
C240 C247 1.409 . S
C241 H233 0.930 . S
C241 C239 1.419 . S
C241 C242 1.362 . S
C242 H234 0.930 . S
C242 C241 1.362 . S
C242 C245 1.409 . S
C243 H235 0.930 . S
C243 C244 1.355 . S
C243 C245 1.415 . S
C244 C243 1.355 . S
C244 C246 1.419 . S
C245 C240 1.425 . S
C245 C242 1.409 . S
C245 C243 1.415 . S
C246 H236 0.930 . S
C246 C244 1.419 . S
C246 C247 1.362 . S
C247 H237 0.930 . S
C247 C240 1.409 . S
C247 C246 1.362 . S
H248 C254 0.930 . S
H249 C257 0.930 . S
H250 C258 0.930 1_455 S
H251 C259 0.930 . S
H252 C262 0.930 . S
H253 C263 0.930 1_655 S
C254 H248 0.930 . S
C254 C255 1.355 . S
C254 C256 1.415 . S
C255 C254 1.355 . S
C255 C257 1.419 . S
C256 C254 1.415 . S
C256 C261 1.425 1_655 S
C256 C263 1.409 1_655 S
C257 H249 0.930 . S
C257 C255 1.419 . S
C257 C258 1.362 . S
C258 H250 0.930 1_655 S
C258 C257 1.362 . S
C258 C261 1.409 1_655 S
C259 H251 0.930 . S
C259 C260 1.355 . S
C259 C261 1.415 . S
C260 C259 1.355 . S
C260 C262 1.419 . S
C261 C256 1.425 1_455 S
C261 C258 1.409 1_455 S
C261 C259 1.415 . S
C262 H252 0.930 . S
C262 C260 1.419 . S
C262 C263 1.362 . S
C263 H253 0.930 1_455 S
C263 C256 1.409 1_455 S
C263 C262 1.362 . S
H264 C270 0.930 . S
H265 C273 0.930 . S
H266 C274 0.930 . S
H267 C275 0.930 . S
H268 C278 0.930 . S
H269 C279 0.930 . S
C270 H264 0.930 . S
C270 C271 1.355 . S
C270 C272 1.415 . S
C271 C270 1.355 . S
C271 C273 1.419 . S
C272 C270 1.415 . S
C272 C277 1.425 1_455 S
C272 C279 1.409 1_455 S
C273 H265 0.930 . S
C273 C271 1.419 . S
C273 C274 1.362 . S
C274 H266 0.930 . S
C274 C273 1.362 . S
C274 C277 1.409 1_455 S
C275 H267 0.930 . S
C275 C276 1.355 . S
C275 C277 1.415 . S
C276 C275 1.355 . S
C276 C278 1.419 . S
C277 C272 1.425 1_655 S
C277 C274 1.409 1_655 S
C277 C275 1.415 . S
C278 H268 0.930 . S
C278 C276 1.419 . S
C278 C279 1.362 . S
C279 H269 0.930 . S
C279 C272 1.409 1_655 S
C279 C278 1.362 . S
H280 C286 0.930 . S
H281 C289 0.930 . S
H282 C290 0.930 . S
H283 C291 0.930 . S
H284 C294 0.930 . S
H285 C295 0.930 . S
C286 H280 0.930 . S
C286 C287 1.355 . S
C286 C288 1.415 . S
C287 C286 1.355 . S
C287 C289 1.419 . S
C288 C286 1.415 . S
C288 C293 1.425 1_565 S
C288 C295 1.409 1_565 S
C289 H281 0.930 . S
C289 C287 1.419 . S
C289 C290 1.362 . S
C290 H282 0.930 . S
C290 C289 1.362 . S
C290 C293 1.409 1_565 S
C291 H283 0.930 . S
C291 C292 1.355 . S
C291 C293 1.415 . S
C292 C291 1.355 . S
C292 C294 1.419 . S
C293 C288 1.425 1_545 S
C293 C290 1.409 1_545 S
C293 C291 1.415 . S
C294 H284 0.930 . S
C294 C292 1.419 . S
C294 C295 1.362 . S
C295 H285 0.930 . S
C295 C288 1.409 1_545 S
C295 C294 1.362 . S
H296 C302 0.930 . S
H297 C305 0.930 . S
H298 C306 0.930 . S
H299 C307 0.930 . S
H300 C310 0.930 . S
H301 C311 0.930 . S
C302 H296 0.930 . S
C302 C303 1.355 . S
C302 C304 1.415 . S
C303 C302 1.355 . S
C303 C305 1.419 . S
C304 C302 1.415 . S
C304 C309 1.425 . S
C304 C311 1.409 . S
C305 H297 0.930 . S
C305 C303 1.419 . S
C305 C306 1.362 . S
C306 H298 0.930 . S
C306 C305 1.362 . S
C306 C309 1.409 . S
C307 H299 0.930 . S
C307 C308 1.355 . S
C307 C309 1.415 . S
C308 C307 1.355 . S
C308 C310 1.419 . S
C309 C304 1.425 . S
C309 C306 1.409 . S
C309 C307 1.415 . S
C310 H300 0.930 . S
C310 C308 1.419 . S
C310 C311 1.362 . S
C311 H301 0.930 . S
C311 C304 1.409 . S
C311 C310 1.362 . S
H312 C318 0.930 . S
H313 C321 0.930 . S
H314 C322 0.930 . S
H315 C323 0.930 . S
H316 C326 0.930 . S
H317 C327 0.930 . S
C318 H312 0.930 . S
C318 C319 1.355 . S
C318 C320 1.415 . S
C319 C318 1.355 . S
C319 C321 1.419 . S
C320 C318 1.415 . S
C320 C325 1.425 1_556 S
C320 C327 1.409 1_556 S
C321 H313 0.930 . S
C321 C319 1.419 . S
C321 C322 1.362 . S
C322 H314 0.930 . S
C322 C321 1.362 . S
C322 C325 1.409 1_556 S
C323 H315 0.930 . S
C323 C324 1.355 . S
C323 C325 1.415 . S
C324 C323 1.355 . S
C324 C326 1.419 . S
C325 C320 1.425 1_554 S
C325 C322 1.409 1_554 S
C325 C323 1.415 . S
C326 H316 0.930 . S
C326 C324 1.419 . S
C326 C327 1.362 . S
C327 H317 0.930 . S
C327 C320 1.409 1_554 S
C327 C326 1.362 . S
H328 C334 0.930 . S
H329 C337 0.930 . S
H330 C338 0.930 . S
H331 C339 0.930 . S
H332 C342 0.930 . S
H333 C343 0.930 . S
C334 H328 0.930 . S
C334 C335 1.355 . S
C334 C336 1.415 . S
C335 C334 1.355 . S
C335 C337 1.419 . S
C336 C334 1.415 . S
C336 C341 1.425 . S
C336 C343 1.409 . S
C337 H329 0.930 . S
C337 C335 1.419 . S
C337 C338 1.362 . S
C338 H330 0.930 . S
C338 C337 1.362 . S
C338 C341 1.409 . S
C339 H331 0.930 . S
C339 C340 1.355 . S
C339 C341 1.415 . S
C340 C339 1.355 . S
C340 C342 1.419 . S
C341 C336 1.425 . S
C341 C338 1.409 . S
C341 C339 1.415 . S
C342 H332 0.930 . S
C342 C340 1.419 . S
C342 C343 1.362 . S
C343 H333 0.930 . S
C343 C336 1.409 . S
C343 C342 1.362 . S
H344 C350 0.930 . S
H345 C353 0.930 . S
H346 C354 0.930 . S
H347 C355 0.930 . S
H348 C358 0.930 . S
H349 C359 0.930 . S
C350 H344 0.930 . S
C350 C351 1.355 . S
C350 C352 1.415 . S
C351 C350 1.355 . S
C351 C353 1.419 . S
C352 C350 1.415 . S
C352 C357 1.425 . S
C352 C359 1.409 . S
C353 H345 0.930 . S
C353 C351 1.419 . S
C353 C354 1.362 . S
C354 H346 0.930 . S
C354 C353 1.362 . S
C354 C357 1.409 . S
C355 H347 0.930 . S
C355 C356 1.355 . S
C355 C357 1.415 . S
C356 C355 1.355 . S
C356 C358 1.419 . S
C357 C352 1.425 . S
C357 C354 1.409 . S
C357 C355 1.415 . S
C358 H348 0.930 . S
C358 C356 1.419 . S
C358 C359 1.362 . S
C359 H349 0.930 . S
C359 C352 1.409 . S
C359 C358 1.362 . S
H360 C366 0.930 . S
H361 C369 0.930 . S
H362 C370 0.930 . S
H363 C371 0.930 . S
H364 C374 0.930 . S
H365 C375 0.930 . S
C366 H360 0.930 . S
C366 C367 1.355 . S
C366 C368 1.415 . S
C367 C366 1.355 . S
C367 C369 1.419 . S
C368 C366 1.415 . S
C368 C373 1.425 1_556 S
C368 C375 1.409 1_556 S
C369 H361 0.930 . S
C369 C367 1.419 . S
C369 C370 1.362 . S
C370 H362 0.930 . S
C370 C369 1.362 . S
C370 C373 1.409 1_556 S
C371 H363 0.930 . S
C371 C372 1.355 . S
C371 C373 1.415 . S
C372 C371 1.355 . S
C372 C374 1.419 . S
C373 C368 1.425 1_554 S
C373 C370 1.409 1_554 S
C373 C371 1.415 . S
C374 H364 0.930 . S
C374 C372 1.419 . S
C374 C375 1.362 . S
C375 H365 0.930 . S
C375 C368 1.409 1_554 S
C375 C374 1.362 . S
H376 C382 0.930 . S
H377 C385 0.930 . S
H378 C386 0.930 . S
H379 C387 0.930 . S
H380 C390 0.930 . S
H381 C391 0.930 . S
C382 H376 0.930 . S
C382 C383 1.355 . S
C382 C384 1.415 . S
C383 C382 1.355 . S
C383 C385 1.419 . S
C384 C382 1.415 . S
C384 C389 1.425 . S
C384 C391 1.409 . S
C385 H377 0.930 . S
C385 C383 1.419 . S
C385 C386 1.362 . S
C386 H378 0.930 . S
C386 C385 1.362 . S
C386 C389 1.409 . S
C387 H379 0.930 . S
C387 C388 1.355 . S
C387 C389 1.415 . S
C388 C387 1.355 . S
C388 C390 1.419 . S
C389 C384 1.425 . S
C389 C386 1.409 . S
C389 C387 1.415 . S
C390 H380 0.930 . S
C390 C388 1.419 . S
C390 C391 1.362 . S
C391 H381 0.930 . S
C391 C384 1.409 . S
C391 C390 1.362 . S
H392 C398 0.930 . S
H393 C401 0.930 . S
H394 C402 0.930 . S
H395 C403 0.930 . S
H396 C406 0.930 . S
H397 C407 0.930 . S
C398 H392 0.930 . S
C398 C399 1.355 . S
C398 C400 1.415 . S
C399 C398 1.355 . S
C399 C401 1.419 . S
C400 C398 1.415 . S
C400 C405 1.425 . S
C400 C407 1.409 . S
C401 H393 0.930 . S
C401 C399 1.419 . S
C401 C402 1.362 . S
C402 H394 0.930 . S
C402 C401 1.362 . S
C402 C405 1.409 . S
C403 H395 0.930 . S
C403 C404 1.355 . S
C403 C405 1.415 . S
C404 C403 1.355 . S
C404 C406 1.419 . S
C405 C400 1.425 . S
C405 C402 1.409 . S
C405 C403 1.415 . S
C406 H396 0.930 . S
C406 C404 1.419 . S
C406 C407 1.362 . S
C407 H397 0.930 . S
C407 C400 1.409 . S
C407 C406 1.362 . S
C223 C3 1.439 . S
C228 C111 1.442 . S
C239 C39 1.431 . S
C244 C147 1.428 . S
C255 C76 1.447 . S
C260 C184 1.448 . S
C271 C40 1.388 . S
C276 C148 1.388 . S
C287 C183 1.431 . S
C292 C75 1.437 . S
C303 C112 1.412 . S
C308 C4 1.415 . S
C319 C74 1.157 . S
C324 C2 1.173 . S
C335 C122 1.349 . S
C340 C38 1.226 . S
C351 C86 1.304 . S
C356 C158 1.364 . S
C367 C182 1.160 . S
C372 C110 1.164 . S
C383 C146 1.223 . S
C388 C14 1.280 . S
C399 C194 1.316 . S
C404 C50 1.371 . S
