# Generated by pormake.
# Topology umw, (4)-cn, num edge types: 1
# Building blocks:
#     Node 0, Type 0, BuildingBlock: AZAVOO_clean_sbu_0, # of connection points: 4
#     Node 1, Type 0, BuildingBlock: AZAVOO_clean_sbu_0, # of connection points: 4
#     Node 2, Type 0, BuildingBlock: AZAVOO_clean_sbu_0, # of connection points: 4
#     Node 3, Type 0, BuildingBlock: AZAVOO_clean_sbu_0, # of connection points: 4
#     Node 4, Type 0, BuildingBlock: AZAVOO_clean_sbu_0, # of connection points: 4
#     Node 5, Type 0, BuildingBlock: AZAVOO_clean_sbu_0, # of connection points: 4
#     Node 6, Type 0, BuildingBlock: AZAVOO_clean_sbu_0, # of connection points: 4
#     Node 7, Type 0, BuildingBlock: AZAVOO_clean_sbu_0, # of connection points: 4
#     Edge 8, Type (0, 0), BuildingBlock: EZIPEK_clean_linker_0, # of connection points: 2
#     Edge 9, Type (0, 0), BuildingBlock: EZIPEK_clean_linker_0, # of connection points: 2
#     Edge 10, Type (0, 0), BuildingBlock: EZIPEK_clean_linker_0, # of connection points: 2
#     Edge 11, Type (0, 0), BuildingBlock: EZIPEK_clean_linker_0, # of connection points: 2
#     Edge 12, Type (0, 0), BuildingBlock: EZIPEK_clean_linker_0, # of connection points: 2
#     Edge 13, Type (0, 0), BuildingBlock: EZIPEK_clean_linker_0, # of connection points: 2
#     Edge 14, Type (0, 0), BuildingBlock: EZIPEK_clean_linker_0, # of connection points: 2
#     Edge 15, Type (0, 0), BuildingBlock: EZIPEK_clean_linker_0, # of connection points: 2
#     Edge 16, Type (0, 0), BuildingBlock: EZIPEK_clean_linker_0, # of connection points: 2
#     Edge 17, Type (0, 0), BuildingBlock: EZIPEK_clean_linker_0, # of connection points: 2
#     Edge 18, Type (0, 0), BuildingBlock: EZIPEK_clean_linker_0, # of connection points: 2
#     Edge 19, Type (0, 0), BuildingBlock: EZIPEK_clean_linker_0, # of connection points: 2
#     Edge 20, Type (0, 0), BuildingBlock: EZIPEK_clean_linker_0, # of connection points: 2
#     Edge 21, Type (0, 0), BuildingBlock: EZIPEK_clean_linker_0, # of connection points: 2
#     Edge 22, Type (0, 0), BuildingBlock: EZIPEK_clean_linker_0, # of connection points: 2
#     Edge 23, Type (0, 0), BuildingBlock: EZIPEK_clean_linker_0, # of connection points: 2
# Relax obj value: 0.145
# Max RMSD: 0.122
# Mean RMSD: 0.122
data_MOF--net-umw--node1-AZAVOO_clean_sbu_0--edge1-EZIPEK_clean_linker_0
_symmetry_space_group_name_H-M    P1
_symmetry_Int_Tables_number       1
_symmetry_cell_setting            triclinic
loop_
_symmetry_equiv_pos_as_xyz
'x, y, z'
_cell_length_a     32.80209
_cell_length_b     32.466429
_cell_length_c     17.002965
_cell_angle_alpha  90.248044
_cell_angle_beta   89.439366
_cell_angle_gamma 88.580357
loop_
_atom_site_label
_atom_site_type_symbol
_atom_site_fract_x
_atom_site_fract_y
_atom_site_fract_z
_atom_type_partial_charge
Mg0 Mg 0.38938 0.14911 0.28229 0.0
O1 O 0.43212 0.1343 0.38669 0.0
O2 O 0.47752 0.08663 0.34355 0.0
Mg3 Mg 0.46182 0.06758 0.21812 0.0
C4 C 0.46333 0.11062 0.39741 0.0
C5 C 0.32382 0.20671 0.33357 0.0
O6 O 0.30775 0.1797 0.28603 0.0
O7 O 0.43862 0.18511 0.2174 0.0
O8 O 0.47689 0.13149 0.17347 0.0
O9 O 0.34742 0.09913 0.31877 0.0
O10 O 0.39952 0.09081 0.23629 0.0
C11 C 0.46827 0.17003 0.17631 0.0
C12 C 0.36993 0.07508 0.27466 0.0
O13 O 0.36207 0.20518 0.34485 0.0
Mg14 Mg 0.80694 0.41085 0.5569 0.0
O15 O 0.8181 0.4529 0.66478 0.0
O16 O 0.86433 0.49842 0.62632 0.0
Mg17 Mg 0.8852 0.48389 0.50023 0.0
C18 C 0.84017 0.48407 0.67817 0.0
C19 C 0.75334 0.34392 0.60151 0.0
O20 O 0.78082 0.3292 0.55144 0.0
O21 O 0.76982 0.46181 0.49528 0.0
O22 O 0.82143 0.50067 0.4549 0.0
O23 O 0.85714 0.36717 0.59208 0.0
O24 O 0.86568 0.42047 0.51407 0.0
C25 C 0.78359 0.49221 0.45659 0.0
C26 C 0.88133 0.3894 0.55058 0.0
O27 O 0.75211 0.38238 0.61596 0.0
Mg28 Mg 0.62482 0.80794 0.71169 0.0
O29 O 0.57025 0.82916 0.78605 0.0
O30 O 0.54059 0.88514 0.73386 0.0
Mg31 Mg 0.58017 0.90212 0.62682 0.0
C32 C 0.54295 0.85777 0.78745 0.0
C33 C 0.6319 0.7243 0.82055 0.0
O34 O 0.61814 0.68757 0.83632 0.0
O35 O 0.58602 0.78536 0.61177 0.0
O36 O 0.56272 0.84418 0.55864 0.0
O37 O 0.66307 0.84928 0.78771 0.0
O38 O 0.63281 0.86876 0.67859 0.0
C39 C 0.56617 0.80495 0.55944 0.0
C40 C 0.65232 0.87872 0.74046 0.0
O41 O 0.61669 0.74416 0.76352 0.0
Mg42 Mg 0.14258 0.6137 0.00402 0.0
O43 O 0.13754 0.56666 0.10371 0.0
O44 O 0.08506 0.52667 0.07667 0.0
Mg45 Mg 0.0601 0.54502 0.95611 0.0
C46 C 0.11375 0.53763 0.12186 0.0
C47 C 0.20747 0.67177 0.04698 0.0
O48 O 0.17976 0.69496 0.01209 0.0
O49 O 0.17437 0.56599 0.92679 0.0
O50 O 0.1213 0.52752 0.89473 0.0
O51 O 0.09643 0.65529 0.06289 0.0
O52 O 0.08156 0.60744 0.97547 0.0
C53 C 0.15896 0.53646 0.88874 0.0
C54 C 0.06921 0.63548 0.02441 0.0
O55 O 0.20233 0.63337 0.05236 0.0
Mg56 Mg 0.3949 0.82658 0.22206 0.0
O57 O 0.43015 0.84085 0.10833 0.0
O58 O 0.47746 0.88632 0.13936 0.0
Mg59 Mg 0.46828 0.90562 0.26798 0.0
C60 C 0.46038 0.86293 0.08966 0.0
C61 C 0.33205 0.76653 0.18766 0.0
O62 O 0.31683 0.79061 0.24347 0.0
O63 O 0.44839 0.78938 0.27093 0.0
O64 O 0.48808 0.84104 0.30742 0.0
O65 O 0.34937 0.87681 0.19714 0.0
O66 O 0.40553 0.88433 0.26657 0.0
C67 C 0.47999 0.80276 0.30471 0.0
C68 C 0.37334 0.90046 0.23581 0.0
O69 O 0.36846 0.77122 0.16453 0.0
Mg70 Mg 0.13186 0.36934 0.53181 0.0
O71 O 0.12859 0.41612 0.43129 0.0
O72 O 0.08359 0.46604 0.46493 0.0
Mg73 Mg 0.06002 0.45283 0.58918 0.0
C74 C 0.10883 0.4494 0.41603 0.0
C75 C 0.19753 0.30305 0.48926 0.0
O76 O 0.17602 0.28297 0.54146 0.0
O77 O 0.17155 0.41201 0.60262 0.0
O78 O 0.12411 0.4594 0.63872 0.0
O79 O 0.07687 0.3367 0.48566 0.0
O80 O 0.07434 0.38742 0.57255 0.0
C81 C 0.16052 0.44452 0.64027 0.0
C82 C 0.05538 0.36188 0.52955 0.0
O83 O 0.18742 0.33991 0.47252 0.0
Mg84 Mg 0.62852 0.13179 0.79938 0.0
O85 O 0.58 0.123 0.70436 0.0
O86 O 0.53583 0.07693 0.74882 0.0
Mg87 Mg 0.55844 0.05333 0.8681 0.0
C88 C 0.54796 0.10189 0.69618 0.0
C89 C 0.68097 0.20647 0.75489 0.0
O90 O 0.70545 0.18776 0.80474 0.0
O91 O 0.58376 0.16781 0.87798 0.0
O92 O 0.54595 0.11691 0.92534 0.0
O93 O 0.66773 0.0813 0.74582 0.0
O94 O 0.62067 0.07119 0.83649 0.0
C95 C 0.556 0.15468 0.92368 0.0
C96 C 0.64726 0.05572 0.78795 0.0
O97 O 0.64661 0.19123 0.7403 0.0
Mg98 Mg 0.82028 0.65216 0.08853 0.0
O99 O 0.82547 0.60209 0.99063 0.0
O100 O 0.86732 0.55201 0.03481 0.0
Mg101 Mg 0.89142 0.57111 0.15487 0.0
C102 C 0.84426 0.5673 0.98177 0.0
C103 C 0.76202 0.72038 0.02372 0.0
O104 O 0.78904 0.74417 0.05606 0.0
O105 O 0.7802 0.61158 0.16574 0.0
O106 O 0.82756 0.5666 0.20927 0.0
O107 O 0.87272 0.6843 0.03471 0.0
O108 O 0.87843 0.63558 0.12476 0.0
C109 C 0.7911 0.5813 0.20901 0.0
C110 C 0.89575 0.65949 0.07511 0.0
O111 O 0.7657 0.68145 0.0291 0.0
C112 C 0.49144 0.07035 0.51163 0.0
C113 C 0.48312 0.10916 0.47602 0.0
C114 C 0.51202 0.14348 0.59111 0.0
C115 C 0.52528 0.10463 0.62089 0.0
N116 N 0.53569 0.0315 0.59823 0.0
N117 N 0.49304 0.18271 0.47576 0.0
C118 C 0.51721 0.06813 0.5781 0.0
C119 C 0.49535 0.14584 0.51415 0.0
N120 N 0.47363 0.03562 0.48394 0.0
N121 N 0.51405 0.17797 0.63711 0.0
H122 H 0.48256 0.18572 0.41835 0.0
H123 H 0.50543 0.20957 0.49794 0.0
H124 H 0.52497 0.17738 0.69451 0.0
H125 H 0.50106 0.20631 0.6212 0.0
H126 H 0.47557 0.0074 0.51285 0.0
H127 H 0.45326 0.03588 0.4373 0.0
H128 H 0.53395 0.00496 0.56384 0.0
H129 H 0.55638 0.02857 0.64414 0.0
C130 C 0.87758 0.50746 0.79761 0.0
C131 C 0.84002 0.50325 0.75798 0.0
C132 C 0.80423 0.53632 0.87027 0.0
C133 C 0.84235 0.54526 0.90473 0.0
N134 N 0.91587 0.54674 0.89082 0.0
N135 N 0.76801 0.51993 0.75091 0.0
C136 C 0.8792 0.53281 0.86563 0.0
C137 C 0.80335 0.51927 0.79282 0.0
N138 N 0.91166 0.48614 0.77189 0.0
N139 N 0.76893 0.5426 0.91245 0.0
H140 H 0.76619 0.50847 0.6937 0.0
H141 H 0.74144 0.53523 0.77015 0.0
H142 H 0.76836 0.55393 0.96994 0.0
H143 H 0.74069 0.53278 0.89333 0.0
H144 H 0.93868 0.48462 0.8036 0.0
H145 H 0.91177 0.46644 0.72332 0.0
H146 H 0.94295 0.54231 0.85898 0.0
H147 H 0.91891 0.56638 0.93886 0.0
C148 C 0.48514 0.82373 0.96847 0.0
C149 C 0.47647 0.86182 0.00743 0.0
C150 C 0.51032 0.89837 0.90025 0.0
C151 C 0.51575 0.86064 0.858 0.0
N152 N 0.49705 0.78959 0.84327 0.0
N153 N 0.46968 0.93589 0.99719 0.0
C154 C 0.4994 0.82402 0.88932 0.0
C155 C 0.48543 0.89931 0.96901 0.0
N156 N 0.4825 0.78729 0.0079 0.0
N157 N 0.53096 0.93273 0.87897 0.0
H158 H 0.45006 0.93782 0.04574 0.0
H159 H 0.4724 0.96358 0.96697 0.0
H160 H 0.5516 0.93361 0.8322 0.0
H161 H 0.53099 0.95935 0.91348 0.0
H162 H 0.49255 0.75922 0.98379 0.0
H163 H 0.47462 0.78537 0.06725 0.0
H164 H 0.48227 0.76316 0.86141 0.0
H165 H 0.50571 0.7892 0.78403 0.0
C166 C 0.11248 0.44954 0.26723 0.0
C167 C 0.1163 0.47063 0.3401 0.0
C168 C 0.12296 0.53612 0.27017 0.0
C169 C 0.11965 0.51491 0.19706 0.0
N170 N 0.12566 0.45025 0.12695 0.0
N171 N 0.13866 0.53104 0.40873 0.0
C172 C 0.11887 0.47121 0.19594 0.0
C173 C 0.12571 0.51304 0.34084 0.0
N174 N 0.10089 0.40942 0.26532 0.0
N175 N 0.12159 0.57819 0.27343 0.0
H176 H 0.14235 0.5148 0.46108 0.0
H177 H 0.15005 0.56069 0.41097 0.0
H178 H 0.12098 0.59701 0.22421 0.0
H179 H 0.11822 0.59466 0.32592 0.0
H180 H 0.09275 0.39443 0.2137 0.0
H181 H 0.09627 0.39188 0.3155 0.0
H182 H 0.12941 0.41831 0.12389 0.0
H183 H 0.13228 0.465 0.07413 0.0
C184 C 0.29365 0.23741 0.45797 0.0
C185 C 0.29662 0.23696 0.3746 0.0
C186 C 0.23479 0.28037 0.36605 0.0
C187 C 0.2329 0.28255 0.44944 0.0
N188 N 0.26652 0.27253 0.57376 0.0
N189 N 0.27694 0.26676 0.2507 0.0
C190 C 0.26424 0.26399 0.49516 0.0
C191 C 0.26939 0.26137 0.32913 0.0
N192 N 0.31704 0.21085 0.50168 0.0
N193 N 0.20257 0.29406 0.322 0.0
H194 H 0.30257 0.25384 0.22222 0.0
H195 H 0.2603 0.28741 0.21607 0.0
H196 H 0.17583 0.30684 0.34634 0.0
H197 H 0.2007 0.28909 0.26159 0.0
H198 H 0.31255 0.20662 0.56182 0.0
H199 H 0.33871 0.19044 0.47728 0.0
H200 H 0.29105 0.26308 0.60833 0.0
H201 H 0.24606 0.29264 0.60272 0.0
C202 C 0.7056 0.28571 0.59774 0.0
C203 C 0.72692 0.31465 0.6432 0.0
C204 C 0.70761 0.278 0.76299 0.0
C205 C 0.6935 0.24506 0.71627 0.0
N206 N 0.68352 0.21549 0.58713 0.0
N207 N 0.75215 0.33606 0.76994 0.0
C208 C 0.6931 0.2485 0.63301 0.0
C209 C 0.72857 0.31062 0.72628 0.0
N210 N 0.69722 0.29397 0.52075 0.0
N211 N 0.70026 0.27857 0.84226 0.0
H212 H 0.76845 0.3602 0.74611 0.0
H213 H 0.75817 0.33109 0.82925 0.0
H214 H 0.68399 0.25573 0.87086 0.0
H215 H 0.70643 0.30377 0.87799 0.0
H216 H 0.67848 0.27581 0.48656 0.0
H217 H 0.70548 0.3214 0.49379 0.0
H218 H 0.68708 0.21518 0.52618 0.0
H219 H 0.6758 0.18695 0.60986 0.0
C220 C 0.68856 0.73885 0.00587 0.0
C221 C 0.72889 0.73794 0.97558 0.0
C222 C 0.70392 0.74537 0.84133 0.0
C223 C 0.66371 0.74129 0.87107 0.0
N224 N 0.61636 0.74913 0.97891 0.0
N225 N 0.77566 0.7536 0.87064 0.0
C226 C 0.65564 0.74335 0.95287 0.0
C227 C 0.73675 0.74618 0.8952 0.0
N228 N 0.68197 0.73344 0.08458 0.0
N229 N 0.71092 0.74524 0.76196 0.0
H230 H 0.80021 0.75369 0.90917 0.0
H231 H 0.78316 0.76312 0.81407 0.0
H232 H 0.68748 0.7461 0.72106 0.0
H233 H 0.73982 0.74289 0.73631 0.0
H234 H 0.65333 0.72914 0.10968 0.0
H235 H 0.70579 0.73202 0.12483 0.0
H236 H 0.60826 0.75369 0.03769 0.0
H237 H 0.59212 0.75311 0.94004 0.0
C238 C 0.26866 0.71486 0.03206 0.0
C239 C 0.2436 0.69073 0.08096 0.0
C240 C 0.28526 0.70759 0.19446 0.0
C241 C 0.30546 0.73717 0.14833 0.0
N242 N 0.31307 0.77294 0.02457 0.0
N243 N 0.22482 0.66731 0.211 0.0
C244 C 0.29674 0.74162 0.06714 0.0
C245 C 0.25127 0.68743 0.16274 0.0
N246 N 0.26601 0.7117 0.95207 0.0
N247 N 0.29892 0.6985 0.26822 0.0
H248 H 0.19891 0.6528 0.19085 0.0
H249 H 0.2266 0.66805 0.27212 0.0
H250 H 0.3242 0.71247 0.29268 0.0
H251 H 0.28787 0.67433 0.30171 0.0
H252 H 0.28635 0.72555 0.91353 0.0
H253 H 0.24613 0.69178 0.9244 0.0
H254 H 0.30388 0.78028 0.96774 0.0
H255 H 0.33318 0.79403 0.04783 0.0
C256 C 0.36325 0.97095 0.17877 0.0
C257 C 0.36472 0.94489 0.24527 0.0
C258 C 0.36469 0.00461 0.33358 0.0
C259 C 0.36264 0.03068 0.26707 0.0
N260 N 0.34803 0.03934 0.12926 0.0
N261 N 0.35538 0.93599 0.385 0.0
C262 C 0.35804 0.01399 0.19049 0.0
C263 C 0.36171 0.96149 0.32249 0.0
N264 N 0.36917 0.95502 0.10486 0.0
N265 N 0.37184 0.02059 0.40653 0.0
H266 H 0.35238 0.90423 0.37867 0.0
H267 H 0.34902 0.94667 0.44176 0.0
H268 H 0.37457 0.05201 0.41736 0.0
H269 H 0.37842 0.00247 0.45539 0.0
H270 H 0.37323 0.97322 0.05523 0.0
H271 H 0.37341 0.92362 0.09356 0.0
H272 H 0.34052 0.02851 0.07363 0.0
H273 H 0.34307 0.07103 0.13626 0.0
C274 C 0.94427 0.37529 0.46894 0.0
C275 C 0.9255 0.37925 0.54441 0.0
C276 C 0.99034 0.3602 0.60582 0.0
C277 C 0.01024 0.36277 0.53158 0.0
N278 N 0.00685 0.37827 0.39306 0.0
N279 N 0.93216 0.38146 0.68578 0.0
C280 C 0.98742 0.37153 0.46304 0.0
C281 C 0.94884 0.37305 0.61329 0.0
N282 N 0.92088 0.37352 0.40295 0.0
N283 N 0.01097 0.34463 0.669 0.0
H284 H 0.90218 0.3921 0.6941 0.0
H285 H 0.94921 0.38184 0.73714 0.0
H286 H 0.04117 0.33388 0.66519 0.0
H287 H -0.00306 0.33833 0.7227 0.0
H288 H 0.93286 0.36657 0.34736 0.0
H289 H 0.88909 0.37465 0.40465 0.0
H290 H -0.00802 0.38972 0.34357 0.0
H291 H 0.03834 0.37559 0.38613 0.0
C292 C 0.66652 0.94988 0.69439 0.0
C293 C 0.65763 0.92329 0.75806 0.0
C294 C 0.65153 0.98387 0.84439 0.0
C295 C 0.65229 0.01021 0.77773 0.0
N296 N 0.65047 0.01563 0.63569 0.0
N297 N 0.6332 0.91694 0.89255 0.0
C298 C 0.65726 0.99261 0.70158 0.0
C299 C 0.64806 0.94065 0.83314 0.0
N300 N 0.68417 0.93446 0.62701 0.0
N301 N 0.65534 -0.0003 0.91844 0.0
H302 H 0.62779 0.88565 0.8868 0.0
H303 H 0.62194 0.92949 0.94521 0.0
H304 H 0.66035 0.03078 0.92933 0.0
H305 H 0.65842 0.98116 0.96805 0.0
H306 H 0.69406 0.95327 0.58143 0.0
H307 H 0.69327 0.90358 0.6209 0.0
H308 H 0.65029 0.00277 0.5794 0.0
H309 H 0.63988 0.04614 0.63744 0.0
C310 C 0.96681 0.65449 0.12674 0.0
C311 C 0.94034 0.65621 0.06127 0.0
C312 C -0.00052 0.65164 0.97241 0.0
C313 C 0.02508 0.64366 0.03765 0.0
N314 N 0.03129 0.62902 0.17621 0.0
N315 N 0.93136 0.64814 0.92077 0.0
C316 C 0.00832 0.64286 0.11478 0.0
C317 C 0.95655 0.65272 0.98363 0.0
N318 N 0.95277 0.66534 0.2001 0.0
N319 N 0.01607 0.65946 0.90009 0.0
H320 H 0.89981 0.64622 0.92599 0.0
H321 H 0.94212 0.64128 0.86424 0.0
H322 H 0.04743 0.66017 0.88971 0.0
H323 H -0.00124 0.66955 0.85251 0.0
H324 H 0.97187 0.66823 0.24833 0.0
H325 H 0.92297 0.67594 0.21101 0.0
H326 H 0.01921 0.62384 0.23213 0.0
H327 H 0.06129 0.61845 0.16923 0.0
C328 C 0.49448 0.19239 0.97611 0.0
C329 C 0.53658 0.18265 0.98257 0.0
C330 C 0.53335 0.19464 0.12439 0.0
C331 C 0.49043 0.19547 0.11923 0.0
N332 N 0.43143 0.21332 0.04368 0.0
N333 N 0.59866 0.1886 0.05557 0.0
C334 C 0.47158 0.20146 0.04571 0.0
C335 C 0.55704 0.18943 0.05438 0.0
N336 N 0.47644 0.19027 0.90423 0.0
N337 N 0.55056 0.19508 0.19713 0.0
H338 H 0.61624 0.18468 0.00452 0.0
H339 H 0.61574 0.19461 0.10535 0.0
H340 H 0.53268 0.19952 0.24784 0.0
H341 H 0.58157 0.19087 0.20753 0.0
H342 H 0.44514 0.19299 0.8956 0.0
H343 H 0.49346 0.18506 0.85272 0.0
H344 H 0.4157 0.21982 0.99217 0.0
H345 H 0.41492 0.22001 0.09514 0.0
C346 C 0.75328 0.52176 0.25991 0.0
C347 C 0.7626 0.56388 0.26719 0.0
C348 C 0.75725 0.55962 0.41013 0.0
C349 C 0.7572 0.51625 0.40263 0.0
N350 N 0.73741 0.45778 0.32655 0.0
N351 N 0.7579 0.62604 0.34401 0.0
C352 C 0.7483 0.49803 0.32929 0.0
C353 C 0.75837 0.58403 0.34089 0.0
N354 N 0.75238 0.50439 0.18672 0.0
N355 N 0.75963 0.57653 0.48352 0.0
H356 H 0.75865 0.64386 0.29313 0.0
H357 H 0.75375 0.64312 0.39549 0.0
H358 H 0.75794 0.55829 0.53391 0.0
H359 H 0.76344 0.60772 0.49465 0.0
H360 H 0.74981 0.47297 0.17623 0.0
H361 H 0.75486 0.52221 0.13595 0.0
H362 H 0.72904 0.44267 0.27532 0.0
H363 H 0.73332 0.44062 0.37761 0.0
C364 C 0.57041 0.78231 0.42011 0.0
C365 C 0.54902 0.7823 0.49289 0.0
C366 C 0.48712 0.76244 0.42609 0.0
C367 C 0.50511 0.77542 0.35484 0.0
N368 N 0.56513 0.7852 0.27725 0.0
N369 N 0.48964 0.76529 0.56885 0.0
C370 C 0.54773 0.77985 0.34961 0.0
C371 C 0.50837 0.76895 0.49724 0.0
N372 N 0.61172 0.78654 0.41937 0.0
N373 N 0.44941 0.74569 0.42523 0.0
H374 H 0.50536 0.76873 0.62148 0.0
H375 H 0.45866 0.76002 0.57616 0.0
H376 H 0.43443 0.73983 0.37267 0.0
H377 H 0.43512 0.73383 0.47483 0.0
H378 H 0.62969 0.78575 0.36862 0.0
H379 H 0.6284 0.78824 0.47124 0.0
H380 H 0.5956 0.79198 0.26772 0.0
H381 H 0.54798 0.7827 0.22603 0.0
C382 C 0.19266 0.53183 0.75697 0.0
C383 C 0.18396 0.51315 0.8303 0.0
C384 C 0.1924 0.445 0.77052 0.0
C385 C 0.18819 0.46392 0.69633 0.0
N386 N 0.19618 0.52279 0.61451 0.0
N387 N 0.18541 0.45329 0.91242 0.0
C388 C 0.19363 0.50667 0.68836 0.0
C389 C 0.18813 0.46996 0.83903 0.0
N390 N 0.19775 0.57339 0.75303 0.0
N391 N 0.19821 0.40331 0.77449 0.0
H392 H 0.18406 0.47177 0.96287 0.0
H393 H 0.18421 0.42185 0.92349 0.0
H394 H 0.20188 0.38525 0.7239 0.0
H395 H 0.2028 0.38724 0.82658 0.0
H396 H 0.2052 0.58896 0.70176 0.0
H397 H 0.19739 0.59214 0.8029 0.0
H398 H 0.19655 0.55411 0.60209 0.0
H399 H 0.19785 0.50368 0.5649 0.0
loop_
_geom_bond_atom_site_label_1
_geom_bond_atom_site_label_2
_geom_bond_distance
_geom_bond_site_symmetry_2
_ccdc_geom_bond_type
Mg0 O1 2.028 . S
Mg0 O7 1.986 . S
Mg0 O9 2.114 . S
Mg0 O10 2.251 . S
Mg0 O13 2.010 . S
O1 Mg0 2.028 . S
O1 C4 1.250 . S
O2 Mg3 2.028 . S
O2 C4 1.248 . S
Mg3 O2 2.028 . S
Mg3 O8 2.032 . S
Mg3 O10 2.079 . S
C4 O1 1.250 . S
C4 O2 1.248 . S
C5 O6 1.264 . S
C5 O13 1.249 . S
O6 C5 1.264 . S
O7 Mg0 1.986 . S
O7 C11 1.246 . S
O8 Mg3 2.032 . S
O8 C11 1.259 . S
O9 Mg0 2.114 . S
O9 C12 1.252 . S
O10 Mg0 2.251 . S
O10 Mg3 2.079 . S
O10 C12 1.273 . S
C11 O7 1.246 . S
C11 O8 1.259 . S
C12 O9 1.252 . S
C12 O10 1.273 . S
O13 Mg0 2.010 . S
O13 C5 1.249 . S
Mg14 O15 2.028 . S
Mg14 O21 1.986 . S
Mg14 O23 2.114 . S
Mg14 O24 2.251 . S
Mg14 O27 2.010 . S
O15 Mg14 2.028 . S
O15 C18 1.250 . S
O16 Mg17 2.028 . S
O16 C18 1.248 . S
Mg17 O16 2.028 . S
Mg17 O22 2.032 . S
Mg17 O24 2.079 . S
C18 O15 1.250 . S
C18 O16 1.248 . S
C19 O20 1.264 . S
C19 O27 1.249 . S
O20 C19 1.264 . S
O21 Mg14 1.986 . S
O21 C25 1.246 . S
O22 Mg17 2.032 . S
O22 C25 1.259 . S
O23 Mg14 2.114 . S
O23 C26 1.252 . S
O24 Mg14 2.251 . S
O24 Mg17 2.079 . S
O24 C26 1.273 . S
C25 O21 1.246 . S
C25 O22 1.259 . S
C26 O23 1.252 . S
C26 O24 1.273 . S
O27 Mg14 2.010 . S
O27 C19 1.249 . S
Mg28 O29 2.028 . S
Mg28 O35 1.986 . S
Mg28 O37 2.114 . S
Mg28 O38 2.251 . S
Mg28 O41 2.010 . S
O29 Mg28 2.028 . S
O29 C32 1.250 . S
O30 Mg31 2.028 . S
O30 C32 1.248 . S
Mg31 O30 2.028 . S
Mg31 O36 2.032 . S
Mg31 O38 2.079 . S
C32 O29 1.250 . S
C32 O30 1.248 . S
C33 O34 1.264 . S
C33 O41 1.249 . S
O34 C33 1.264 . S
O35 Mg28 1.986 . S
O35 C39 1.246 . S
O36 Mg31 2.032 . S
O36 C39 1.259 . S
O37 Mg28 2.114 . S
O37 C40 1.252 . S
O38 Mg28 2.251 . S
O38 Mg31 2.079 . S
O38 C40 1.273 . S
C39 O35 1.246 . S
C39 O36 1.259 . S
C40 O37 1.252 . S
C40 O38 1.273 . S
O41 Mg28 2.010 . S
O41 C33 1.249 . S
Mg42 O43 2.028 . S
Mg42 O49 1.986 1_554 S
Mg42 O51 2.114 . S
Mg42 O52 2.251 . S
Mg42 O55 2.010 . S
O43 Mg42 2.028 . S
O43 C46 1.250 . S
O44 Mg45 2.028 . S
O44 C46 1.248 . S
Mg45 O44 2.028 . S
Mg45 O50 2.032 1_554 S
Mg45 O52 2.079 . S
C46 O43 1.250 . S
C46 O44 1.248 . S
C47 O48 1.264 . S
C47 O55 1.249 . S
O48 C47 1.264 . S
O49 Mg42 1.986 1_556 S
O49 C53 1.246 . S
O50 Mg45 2.032 1_556 S
O50 C53 1.259 . S
O51 Mg42 2.114 . S
O51 C54 1.252 . S
O52 Mg42 2.251 . S
O52 Mg45 2.079 . S
O52 C54 1.273 . S
C53 O49 1.246 . S
C53 O50 1.259 . S
C54 O51 1.252 . S
C54 O52 1.273 . S
O55 Mg42 2.010 . S
O55 C47 1.249 . S
Mg56 O57 2.028 . S
Mg56 O63 1.986 . S
Mg56 O65 2.114 . S
Mg56 O66 2.251 . S
Mg56 O69 2.010 . S
O57 Mg56 2.028 . S
O57 C60 1.250 . S
O58 Mg59 2.028 . S
O58 C60 1.248 . S
Mg59 O58 2.028 . S
Mg59 O64 2.032 . S
Mg59 O66 2.079 . S
C60 O57 1.250 . S
C60 O58 1.248 . S
C61 O62 1.264 . S
C61 O69 1.249 . S
O62 C61 1.264 . S
O63 Mg56 1.986 . S
O63 C67 1.246 . S
O64 Mg59 2.032 . S
O64 C67 1.259 . S
O65 Mg56 2.114 . S
O65 C68 1.252 . S
O66 Mg56 2.251 . S
O66 Mg59 2.079 . S
O66 C68 1.273 . S
C67 O63 1.246 . S
C67 O64 1.259 . S
C68 O65 1.252 . S
C68 O66 1.273 . S
O69 Mg56 2.010 . S
O69 C61 1.249 . S
Mg70 O71 2.028 . S
Mg70 O77 1.986 . S
Mg70 O79 2.114 . S
Mg70 O80 2.251 . S
Mg70 O83 2.010 . S
O71 Mg70 2.028 . S
O71 C74 1.250 . S
O72 Mg73 2.028 . S
O72 C74 1.248 . S
Mg73 O72 2.028 . S
Mg73 O78 2.032 . S
Mg73 O80 2.079 . S
C74 O71 1.250 . S
C74 O72 1.248 . S
C75 O76 1.264 . S
C75 O83 1.249 . S
O76 C75 1.264 . S
O77 Mg70 1.986 . S
O77 C81 1.246 . S
O78 Mg73 2.032 . S
O78 C81 1.259 . S
O79 Mg70 2.114 . S
O79 C82 1.252 . S
O80 Mg70 2.251 . S
O80 Mg73 2.079 . S
O80 C82 1.273 . S
C81 O77 1.246 . S
C81 O78 1.259 . S
C82 O79 1.252 . S
C82 O80 1.273 . S
O83 Mg70 2.010 . S
O83 C75 1.249 . S
Mg84 O85 2.028 . S
Mg84 O91 1.986 . S
Mg84 O93 2.114 . S
Mg84 O94 2.251 . S
Mg84 O97 2.010 . S
O85 Mg84 2.028 . S
O85 C88 1.250 . S
O86 Mg87 2.028 . S
O86 C88 1.248 . S
Mg87 O86 2.028 . S
Mg87 O92 2.032 . S
Mg87 O94 2.079 . S
C88 O85 1.250 . S
C88 O86 1.248 . S
C89 O90 1.264 . S
C89 O97 1.249 . S
O90 C89 1.264 . S
O91 Mg84 1.986 . S
O91 C95 1.246 . S
O92 Mg87 2.032 . S
O92 C95 1.259 . S
O93 Mg84 2.114 . S
O93 C96 1.252 . S
O94 Mg84 2.251 . S
O94 Mg87 2.079 . S
O94 C96 1.273 . S
C95 O91 1.246 . S
C95 O92 1.259 . S
C96 O93 1.252 . S
C96 O94 1.273 . S
O97 Mg84 2.010 . S
O97 C89 1.249 . S
Mg98 O99 2.028 1_554 S
Mg98 O105 1.986 . S
Mg98 O107 2.114 1_554 S
Mg98 O108 2.251 . S
Mg98 O111 2.010 . S
O99 Mg98 2.028 1_556 S
O99 C102 1.250 . S
O100 Mg101 2.028 1_556 S
O100 C102 1.248 . S
Mg101 O100 2.028 1_554 S
Mg101 O106 2.032 . S
Mg101 O108 2.079 . S
C102 O99 1.250 . S
C102 O100 1.248 . S
C103 O104 1.264 . S
C103 O111 1.249 . S
O104 C103 1.264 . S
O105 Mg98 1.986 . S
O105 C109 1.246 . S
O106 Mg101 2.032 . S
O106 C109 1.259 . S
O107 Mg98 2.114 1_556 S
O107 C110 1.252 1_556 S
O108 Mg98 2.251 . S
O108 Mg101 2.079 . S
O108 C110 1.273 . S
C109 O105 1.246 . S
C109 O106 1.259 . S
C110 O107 1.252 1_554 S
C110 O108 1.273 . S
O111 Mg98 2.010 . S
O111 C103 1.249 . S
C112 C113 1.363 . S
C112 C118 1.379 . S
C112 N120 1.356 . S
C113 C112 1.363 . S
C113 C119 1.363 . S
C114 C115 1.363 . S
C114 C119 1.379 . S
C114 N121 1.356 . S
C115 C114 1.363 . S
C115 C118 1.363 . S
N116 C118 1.356 . S
N116 H128 0.984 . S
N116 H129 0.985 . S
N117 C119 1.356 . S
N117 H122 0.984 . S
N117 H123 0.985 . S
C118 C112 1.379 . S
C118 C115 1.363 . S
C118 N116 1.356 . S
C119 C113 1.363 . S
C119 C114 1.379 . S
C119 N117 1.356 . S
N120 C112 1.356 . S
N120 H126 0.984 . S
N120 H127 0.984 . S
N121 C114 1.356 . S
N121 H124 0.984 . S
N121 H125 0.985 . S
H122 N117 0.984 . S
H123 N117 0.985 . S
H124 N121 0.984 . S
H125 N121 0.985 . S
H126 N120 0.984 . S
H127 N120 0.984 . S
H128 N116 0.984 . S
H129 N116 0.985 . S
C130 C131 1.363 . S
C130 C136 1.379 . S
C130 N138 1.356 . S
C131 C130 1.363 . S
C131 C137 1.363 . S
C132 C133 1.363 . S
C132 C137 1.379 . S
C132 N139 1.356 . S
C133 C132 1.363 . S
C133 C136 1.363 . S
N134 C136 1.356 . S
N134 H146 0.984 . S
N134 H147 0.985 . S
N135 C137 1.356 . S
N135 H140 0.984 . S
N135 H141 0.985 . S
C136 C130 1.379 . S
C136 C133 1.363 . S
C136 N134 1.356 . S
C137 C131 1.363 . S
C137 C132 1.379 . S
C137 N135 1.356 . S
N138 C130 1.356 . S
N138 H144 0.984 . S
N138 H145 0.984 . S
N139 C132 1.356 . S
N139 H142 0.984 . S
N139 H143 0.985 . S
H140 N135 0.984 . S
H141 N135 0.985 . S
H142 N139 0.984 . S
H143 N139 0.985 . S
H144 N138 0.984 . S
H145 N138 0.984 . S
H146 N134 0.984 . S
H147 N134 0.985 . S
C148 C149 1.363 . S
C148 C154 1.379 . S
C148 N156 1.356 . S
C149 C148 1.363 . S
C149 C155 1.363 . S
C150 C151 1.363 . S
C150 C155 1.379 1_556 S
C150 N157 1.356 . S
C151 C150 1.363 . S
C151 C154 1.363 1_556 S
N152 C154 1.356 1_556 S
N152 H164 0.984 1_556 S
N152 H165 0.985 . S
N153 C155 1.356 . S
N153 H158 0.984 . S
N153 H159 0.985 . S
C154 C148 1.379 . S
C154 C151 1.363 1_554 S
C154 N152 1.356 1_554 S
C155 C149 1.363 . S
C155 C150 1.379 1_554 S
C155 N153 1.356 . S
N156 C148 1.356 . S
N156 H162 0.984 . S
N156 H163 0.984 . S
N157 C150 1.356 . S
N157 H160 0.984 . S
N157 H161 0.985 . S
H158 N153 0.984 . S
H159 N153 0.985 . S
H160 N157 0.984 . S
H161 N157 0.985 . S
H162 N156 0.984 . S
H163 N156 0.984 . S
H164 N152 0.984 1_554 S
H165 N152 0.985 . S
C166 C167 1.363 . S
C166 C172 1.379 . S
C166 N174 1.356 . S
C167 C166 1.363 . S
C167 C173 1.363 . S
C168 C169 1.363 . S
C168 C173 1.379 . S
C168 N175 1.356 . S
C169 C168 1.363 . S
C169 C172 1.363 . S
N170 C172 1.356 . S
N170 H182 0.984 . S
N170 H183 0.985 . S
N171 C173 1.356 . S
N171 H176 0.984 . S
N171 H177 0.985 . S
C172 C166 1.379 . S
C172 C169 1.363 . S
C172 N170 1.356 . S
C173 C167 1.363 . S
C173 C168 1.379 . S
C173 N171 1.356 . S
N174 C166 1.356 . S
N174 H180 0.984 . S
N174 H181 0.984 . S
N175 C168 1.356 . S
N175 H178 0.984 . S
N175 H179 0.985 . S
H176 N171 0.984 . S
H177 N171 0.985 . S
H178 N175 0.984 . S
H179 N175 0.985 . S
H180 N174 0.984 . S
H181 N174 0.984 . S
H182 N170 0.984 . S
H183 N170 0.985 . S
C184 C185 1.363 . S
C184 C190 1.379 . S
C184 N192 1.356 . S
C185 C184 1.363 . S
C185 C191 1.363 . S
C186 C187 1.363 . S
C186 C191 1.379 . S
C186 N193 1.356 . S
C187 C186 1.363 . S
C187 C190 1.363 . S
N188 C190 1.356 . S
N188 H200 0.984 . S
N188 H201 0.985 . S
N189 C191 1.356 . S
N189 H194 0.984 . S
N189 H195 0.985 . S
C190 C184 1.379 . S
C190 C187 1.363 . S
C190 N188 1.356 . S
C191 C185 1.363 . S
C191 C186 1.379 . S
C191 N189 1.356 . S
N192 C184 1.356 . S
N192 H198 0.984 . S
N192 H199 0.984 . S
N193 C186 1.356 . S
N193 H196 0.984 . S
N193 H197 0.985 . S
H194 N189 0.984 . S
H195 N189 0.985 . S
H196 N193 0.984 . S
H197 N193 0.985 . S
H198 N192 0.984 . S
H199 N192 0.984 . S
H200 N188 0.984 . S
H201 N188 0.985 . S
C202 C203 1.363 . S
C202 C208 1.379 . S
C202 N210 1.356 . S
C203 C202 1.363 . S
C203 C209 1.363 . S
C204 C205 1.363 . S
C204 C209 1.379 . S
C204 N211 1.356 . S
C205 C204 1.363 . S
C205 C208 1.363 . S
N206 C208 1.356 . S
N206 H218 0.984 . S
N206 H219 0.985 . S
N207 C209 1.356 . S
N207 H212 0.984 . S
N207 H213 0.985 . S
C208 C202 1.379 . S
C208 C205 1.363 . S
C208 N206 1.356 . S
C209 C203 1.363 . S
C209 C204 1.379 . S
C209 N207 1.356 . S
N210 C202 1.356 . S
N210 H216 0.984 . S
N210 H217 0.984 . S
N211 C204 1.356 . S
N211 H214 0.984 . S
N211 H215 0.985 . S
H212 N207 0.984 . S
H213 N207 0.985 . S
H214 N211 0.984 . S
H215 N211 0.985 . S
H216 N210 0.984 . S
H217 N210 0.984 . S
H218 N206 0.984 . S
H219 N206 0.985 . S
C220 C221 1.363 . S
C220 C226 1.379 . S
C220 N228 1.356 . S
C221 C220 1.363 . S
C221 C227 1.363 . S
C222 C223 1.363 . S
C222 C227 1.379 . S
C222 N229 1.356 . S
C223 C222 1.363 . S
C223 C226 1.363 . S
N224 C226 1.356 . S
N224 H236 0.984 . S
N224 H237 0.985 . S
N225 C227 1.356 . S
N225 H230 0.984 1_556 S
N225 H231 0.985 . S
C226 C220 1.379 . S
C226 C223 1.363 . S
C226 N224 1.356 . S
C227 C221 1.363 . S
C227 C222 1.379 . S
C227 N225 1.356 . S
N228 C220 1.356 . S
N228 H234 0.984 . S
N228 H235 0.984 . S
N229 C222 1.356 . S
N229 H232 0.984 . S
N229 H233 0.985 . S
H230 N225 0.984 1_554 S
H231 N225 0.985 . S
H232 N229 0.984 . S
H233 N229 0.985 . S
H234 N228 0.984 . S
H235 N228 0.984 . S
H236 N224 0.984 . S
H237 N224 0.985 . S
C238 C239 1.363 . S
C238 C244 1.379 . S
C238 N246 1.356 1_554 S
C239 C238 1.363 . S
C239 C245 1.363 . S
C240 C241 1.363 . S
C240 C245 1.379 . S
C240 N247 1.356 . S
C241 C240 1.363 . S
C241 C244 1.363 . S
N242 C244 1.356 . S
N242 H254 0.984 . S
N242 H255 0.985 . S
N243 C245 1.356 . S
N243 H248 0.984 . S
N243 H249 0.985 . S
C244 C238 1.379 . S
C244 C241 1.363 . S
C244 N242 1.356 . S
C245 C239 1.363 . S
C245 C240 1.379 . S
C245 N243 1.356 . S
N246 C238 1.356 1_556 S
N246 H252 0.984 . S
N246 H253 0.984 . S
N247 C240 1.356 . S
N247 H250 0.984 . S
N247 H251 0.985 . S
H248 N243 0.984 . S
H249 N243 0.985 . S
H250 N247 0.984 . S
H251 N247 0.985 . S
H252 N246 0.984 . S
H253 N246 0.984 . S
H254 N242 0.984 . S
H255 N242 0.985 . S
C256 C257 1.363 . S
C256 C262 1.379 1_565 S
C256 N264 1.356 . S
C257 C256 1.363 . S
C257 C263 1.363 . S
C258 C259 1.363 . S
C258 C263 1.379 1_545 S
C258 N265 1.356 . S
C259 C258 1.363 . S
C259 C262 1.363 . S
N260 C262 1.356 . S
N260 H272 0.984 . S
N260 H273 0.985 . S
N261 C263 1.356 . S
N261 H266 0.984 . S
N261 H267 0.985 . S
C262 C256 1.379 1_545 S
C262 C259 1.363 . S
C262 N260 1.356 . S
C263 C257 1.363 . S
C263 C258 1.379 1_565 S
C263 N261 1.356 . S
N264 C256 1.356 . S
N264 H270 0.984 . S
N264 H271 0.984 . S
N265 C258 1.356 . S
N265 H268 0.984 . S
N265 H269 0.985 . S
H266 N261 0.984 . S
H267 N261 0.985 . S
H268 N265 0.984 . S
H269 N265 0.985 . S
H270 N264 0.984 . S
H271 N264 0.984 . S
H272 N260 0.984 . S
H273 N260 0.985 . S
C274 C275 1.363 . S
C274 C280 1.379 1_655 S
C274 N282 1.356 . S
C275 C274 1.363 . S
C275 C281 1.363 . S
C276 C277 1.363 . S
C276 C281 1.379 1_455 S
C276 N283 1.356 . S
C277 C276 1.363 . S
C277 C280 1.363 . S
N278 C280 1.356 . S
N278 H290 0.984 . S
N278 H291 0.985 . S
N279 C281 1.356 . S
N279 H284 0.984 . S
N279 H285 0.985 . S
C280 C274 1.379 1_455 S
C280 C277 1.363 . S
C280 N278 1.356 . S
C281 C275 1.363 . S
C281 C276 1.379 1_655 S
C281 N279 1.356 . S
N282 C274 1.356 . S
N282 H288 0.984 . S
N282 H289 0.984 . S
N283 C276 1.356 . S
N283 H286 0.984 . S
N283 H287 0.985 . S
H284 N279 0.984 . S
H285 N279 0.985 . S
H286 N283 0.984 . S
H287 N283 0.985 . S
H288 N282 0.984 . S
H289 N282 0.984 . S
H290 N278 0.984 . S
H291 N278 0.985 . S
C292 C293 1.363 . S
C292 C298 1.379 1_565 S
C292 N300 1.356 . S
C293 C292 1.363 . S
C293 C299 1.363 . S
C294 C295 1.363 . S
C294 C299 1.379 1_545 S
C294 N301 1.356 . S
C295 C294 1.363 . S
C295 C298 1.363 . S
N296 C298 1.356 . S
N296 H308 0.984 . S
N296 H309 0.985 . S
N297 C299 1.356 . S
N297 H302 0.984 . S
N297 H303 0.985 . S
C298 C292 1.379 1_545 S
C298 C295 1.363 . S
C298 N296 1.356 . S
C299 C293 1.363 . S
C299 C294 1.379 1_565 S
C299 N297 1.356 . S
N300 C292 1.356 . S
N300 H306 0.984 . S
N300 H307 0.984 . S
N301 C294 1.356 . S
N301 H304 0.984 . S
N301 H305 0.985 . S
H302 N297 0.984 . S
H303 N297 0.985 . S
H304 N301 0.984 . S
H305 N301 0.985 . S
H306 N300 0.984 . S
H307 N300 0.984 . S
H308 N296 0.984 . S
H309 N296 0.985 . S
C310 C311 1.363 . S
C310 C316 1.379 1_655 S
C310 N318 1.356 . S
C311 C310 1.363 . S
C311 C317 1.363 1_554 S
C312 C313 1.363 1_556 S
C312 C317 1.379 1_455 S
C312 N319 1.356 . S
C313 C312 1.363 1_554 S
C313 C316 1.363 . S
N314 C316 1.356 . S
N314 H326 0.984 . S
N314 H327 0.985 . S
N315 C317 1.356 . S
N315 H320 0.984 . S
N315 H321 0.985 . S
C316 C310 1.379 1_455 S
C316 C313 1.363 . S
C316 N314 1.356 . S
C317 C311 1.363 1_556 S
C317 C312 1.379 1_655 S
C317 N315 1.356 . S
N318 C310 1.356 . S
N318 H324 0.984 . S
N318 H325 0.984 . S
N319 C312 1.356 . S
N319 H322 0.984 . S
N319 H323 0.985 . S
H320 N315 0.984 . S
H321 N315 0.985 . S
H322 N319 0.984 . S
H323 N319 0.985 . S
H324 N318 0.984 . S
H325 N318 0.984 . S
H326 N314 0.984 . S
H327 N314 0.985 . S
C328 C329 1.363 . S
C328 C334 1.379 1_556 S
C328 N336 1.356 . S
C329 C328 1.363 . S
C329 C335 1.363 1_556 S
C330 C331 1.363 . S
C330 C335 1.379 . S
C330 N337 1.356 . S
C331 C330 1.363 . S
C331 C334 1.363 . S
N332 C334 1.356 . S
N332 H344 0.984 . S
N332 H345 0.985 . S
N333 C335 1.356 1_556 S
N333 H338 0.984 . S
N333 H339 0.985 1_556 S
C334 C328 1.379 1_554 S
C334 C331 1.363 . S
C334 N332 1.356 . S
C335 C329 1.363 1_554 S
C335 C330 1.379 . S
C335 N333 1.356 1_554 S
N336 C328 1.356 . S
N336 H342 0.984 . S
N336 H343 0.984 . S
N337 C330 1.356 . S
N337 H340 0.984 . S
N337 H341 0.985 . S
H338 N333 0.984 . S
H339 N333 0.985 1_554 S
H340 N337 0.984 . S
H341 N337 0.985 . S
H342 N336 0.984 . S
H343 N336 0.984 . S
H344 N332 0.984 . S
H345 N332 0.985 . S
C346 C347 1.363 . S
C346 C352 1.379 . S
C346 N354 1.356 . S
C347 C346 1.363 . S
C347 C353 1.363 . S
C348 C349 1.363 . S
C348 C353 1.379 . S
C348 N355 1.356 . S
C349 C348 1.363 . S
C349 C352 1.363 . S
N350 C352 1.356 . S
N350 H362 0.984 . S
N350 H363 0.985 . S
N351 C353 1.356 . S
N351 H356 0.984 . S
N351 H357 0.985 . S
C352 C346 1.379 . S
C352 C349 1.363 . S
C352 N350 1.356 . S
C353 C347 1.363 . S
C353 C348 1.379 . S
C353 N351 1.356 . S
N354 C346 1.356 . S
N354 H360 0.984 . S
N354 H361 0.984 . S
N355 C348 1.356 . S
N355 H358 0.984 . S
N355 H359 0.985 . S
H356 N351 0.984 . S
H357 N351 0.985 . S
H358 N355 0.984 . S
H359 N355 0.985 . S
H360 N354 0.984 . S
H361 N354 0.984 . S
H362 N350 0.984 . S
H363 N350 0.985 . S
C364 C365 1.363 . S
C364 C370 1.379 . S
C364 N372 1.356 . S
C365 C364 1.363 . S
C365 C371 1.363 . S
C366 C367 1.363 . S
C366 C371 1.379 . S
C366 N373 1.356 . S
C367 C366 1.363 . S
C367 C370 1.363 . S
N368 C370 1.356 . S
N368 H380 0.984 . S
N368 H381 0.985 . S
N369 C371 1.356 . S
N369 H374 0.984 . S
N369 H375 0.985 . S
C370 C364 1.379 . S
C370 C367 1.363 . S
C370 N368 1.356 . S
C371 C365 1.363 . S
C371 C366 1.379 . S
C371 N369 1.356 . S
N372 C364 1.356 . S
N372 H378 0.984 . S
N372 H379 0.984 . S
N373 C366 1.356 . S
N373 H376 0.984 . S
N373 H377 0.985 . S
H374 N369 0.984 . S
H375 N369 0.985 . S
H376 N373 0.984 . S
H377 N373 0.985 . S
H378 N372 0.984 . S
H379 N372 0.984 . S
H380 N368 0.984 . S
H381 N368 0.985 . S
C382 C383 1.363 . S
C382 C388 1.379 . S
C382 N390 1.356 . S
C383 C382 1.363 . S
C383 C389 1.363 . S
C384 C385 1.363 . S
C384 C389 1.379 . S
C384 N391 1.356 . S
C385 C384 1.363 . S
C385 C388 1.363 . S
N386 C388 1.356 . S
N386 H398 0.984 . S
N386 H399 0.985 . S
N387 C389 1.356 . S
N387 H392 0.984 . S
N387 H393 0.985 . S
C388 C382 1.379 . S
C388 C385 1.363 . S
C388 N386 1.356 . S
C389 C383 1.363 . S
C389 C384 1.379 . S
C389 N387 1.356 . S
N390 C382 1.356 . S
N390 H396 0.984 . S
N390 H397 0.984 . S
N391 C384 1.356 . S
N391 H394 0.984 . S
N391 H395 0.985 . S
H392 N387 0.984 . S
H393 N387 0.985 . S
H394 N391 0.984 . S
H395 N391 0.985 . S
H396 N390 0.984 . S
H397 N390 0.984 . S
H398 N386 0.984 . S
H399 N386 0.985 . S
C113 C4 1.438 . S
C115 C88 1.438 . S
C131 C18 1.438 . S
C133 C102 1.438 . S
C149 C60 1.438 . S
C151 C32 1.438 . S
C167 C74 1.438 . S
C169 C46 1.438 . S
C185 C5 1.243 . S
C187 C75 1.243 . S
C203 C19 1.243 . S
C205 C89 1.243 . S
C221 C103 1.243 1_556 S
C223 C33 1.243 . S
C239 C47 1.243 . S
C241 C61 1.243 . S
C257 C68 1.380 . S
C259 C12 1.380 . S
C275 C26 1.380 . S
C277 C82 1.380 . S
C293 C40 1.380 . S
C295 C96 1.380 . S
C311 C110 1.380 . S
C313 C54 1.380 . S
C329 C95 1.312 . S
C331 C11 1.312 . S
C347 C109 1.312 . S
C349 C25 1.312 . S
C365 C39 1.312 . S
C367 C67 1.312 . S
C383 C53 1.312 . S
C385 C81 1.312 . S
