# Generated by pormake.
# Topology sxc, (6)-cn, num edge types: 1
# Building blocks:
#     Node 0, Type 0, BuildingBlock: MIFKUJ_clean_sbu_0, # of connection points: 6
#     Node 1, Type 0, BuildingBlock: MIFKUJ_clean_sbu_0, # of connection points: 6
#     Node 2, Type 0, BuildingBlock: MIFKUJ_clean_sbu_0, # of connection points: 6
#     Edge 3, Type (0, 0), BuildingBlock: MIFKUJ_clean_linker_0, # of connection points: 2
#     Edge 4, Type (0, 0), BuildingBlock: MIFKUJ_clean_linker_0, # of connection points: 2
#     Edge 5, Type (0, 0), BuildingBlock: MIFKUJ_clean_linker_0, # of connection points: 2
#     Edge 6, Type (0, 0), BuildingBlock: MIFKUJ_clean_linker_0, # of connection points: 2
#     Edge 7, Type (0, 0), BuildingBlock: MIFKUJ_clean_linker_0, # of connection points: 2
#     Edge 8, Type (0, 0), BuildingBlock: MIFKUJ_clean_linker_0, # of connection points: 2
#     Edge 9, Type (0, 0), BuildingBlock: MIFKUJ_clean_linker_0, # of connection points: 2
#     Edge 10, Type (0, 0), BuildingBlock: MIFKUJ_clean_linker_0, # of connection points: 2
#     Edge 11, Type (0, 0), BuildingBlock: MIFKUJ_clean_linker_0, # of connection points: 2
# Relax obj value: 0.014
# Max RMSD: 0.062
# Mean RMSD: 0.047
data_MOF--net-sxc--node1-MIFKUJ_clean_sbu_0--edge1-MIFKUJ_clean_linker_0
_symmetry_space_group_name_H-M    P1
_symmetry_Int_Tables_number       1
_symmetry_cell_setting            triclinic
loop_
_symmetry_equiv_pos_as_xyz
'x, y, z'
_cell_length_a     22.884207
_cell_length_b     21.711709
_cell_length_c     56.443322
_cell_angle_alpha  92.441187
_cell_angle_beta   97.966858
_cell_angle_gamma 117.55685
loop_
_atom_site_label
_atom_site_type_symbol
_atom_site_fract_x
_atom_site_fract_y
_atom_site_fract_z
_atom_type_partial_charge
Zn0 Zn 0.96228 0.93132 0.98311 0.0
Zn1 Zn 0.10919 0.10632 -0.00798 0.0
C2 C 0.97946 0.8128 0.97834 0.0
O3 O 0.93262 0.80198 0.95988 0.0
C4 C 0.10636 0.22877 0.01185 0.0
O5 O 0.16055 0.23581 0.02582 0.0
O6 O 0.86397 0.86314 0.97893 0.0
O7 O 0.98219 0.00581 0.01009 0.0
O8 O 0.09099 0.04585 0.01932 0.0
C9 C 0.83683 0.84246 -0.00276 0.0
O10 O 0.87172 0.87181 0.01886 0.0
O11 O 0.00644 0.87077 -0.00804 0.0
C12 C 0.24315 0.18218 0.97926 0.0
O13 O 0.21436 0.1466 0.95781 0.0
O14 O 0.20915 0.16981 -0.00389 0.0
O15 O 0.07475 0.06289 0.95725 0.0
O16 O 0.98041 0.96207 0.95087 0.0
O17 O 0.07266 0.17442 -0.00347 0.0
C18 C 0.03425 0.02305 0.02572 0.0
C19 C 0.02688 0.01224 0.94305 0.0
Zn20 Zn 0.06686 0.01126 0.32507 0.0
Zn21 Zn 0.92954 0.04615 0.319 0.0
C22 C 0.06867 0.8928 0.34415 0.0
O23 O 0.12616 0.94258 0.35598 0.0
C24 C 0.94448 0.18013 0.31506 0.0
O25 O 0.89079 0.14072 0.29889 0.0
O26 O 0.16407 0.04541 0.32589 0.0
O27 O 0.03172 0.01516 0.29095 0.0
O28 O 0.9376 0.02215 0.28525 0.0
C29 C 0.17904 0.01307 0.31057 0.0
O30 O 0.13091 0.96405 0.29448 0.0
O31 O 0.03046 0.90912 0.33034 0.0
C32 C 0.82108 0.04156 0.33726 0.0
O33 O 0.87023 0.07831 0.35535 0.0
O34 O 0.8337 0.0184 0.31865 0.0
O35 O 0.94989 -0.0001 0.34689 0.0
O36 O 0.05887 0.06409 0.35345 0.0
O37 O 0.97611 0.15213 0.32649 0.0
C38 C 0.98376 0.01612 0.27701 0.0
C39 C 0.00477 0.03331 0.36152 0.0
Zn40 Zn 0.13203 0.09569 0.65782 0.0
Zn41 Zn 0.92255 0.96983 0.65482 0.0
C42 C 0.24686 0.08429 0.67542 0.0
O43 O 0.25178 0.13281 0.69149 0.0
C44 C 0.81178 0.9913 0.64262 0.0
O45 O 0.79995 0.94226 0.62537 0.0
O46 O 0.18498 0.1949 0.65102 0.0
O47 O 0.04862 0.03986 0.63118 0.0
O48 O 0.93933 0.97021 0.6209 0.0
C49 C 0.22714 0.20535 0.63719 0.0
O50 O 0.22728 0.1513 0.62587 0.0
O51 O 0.19552 0.05554 0.65877 0.0
C52 C 0.82803 0.86352 0.6767 0.0
O53 O 0.83211 0.91911 0.68859 0.0
O54 O 0.86928 0.87144 0.66265 0.0
O55 O 0.01176 0.02746 0.67394 0.0
O56 O 0.1122 0.09783 0.69179 0.0
O57 O 0.86637 0.01688 0.65761 0.0
C58 C -0.00343 0.00506 0.61495 0.0
C59 C 0.0517 0.05901 0.69336 0.0
H60 H -0.00783 0.22878 0.98933 0.0
H61 H 0.97124 0.32922 0.98636 0.0
H62 H 0.1645 0.46266 0.0304 0.0
H63 H 0.18471 0.36224 0.03414 0.0
H64 H 0.07655 0.49977 0.04185 0.0
H65 H 0.13832 0.45315 0.96755 0.0
H66 H 0.12914 0.37956 0.93125 0.0
H67 H 0.92764 0.34173 0.90726 0.0
H68 H 0.93537 0.41446 0.94357 0.0
H69 H 0.09052 0.82056 0.00742 0.0
H70 H 0.11514 0.72372 0.0152 0.0
H71 H 0.92717 0.57903 0.9701 0.0
H72 H 0.90389 0.67511 0.96159 0.0
H73 H 0.01873 0.55111 0.9597 0.0
H74 H 0.95631 0.59631 0.03457 0.0
H75 H 0.96584 0.66958 0.07101 0.0
H76 H 0.16885 0.71074 0.0939 0.0
H77 H 0.16072 0.63831 0.05745 0.0
C78 C 0.02986 0.27936 -0.0014 0.0
C79 C 0.09029 0.28755 0.01182 0.0
C80 C 0.01803 0.33686 -0.00321 0.0
C81 C 0.06695 0.40395 0.00772 0.0
C82 C 0.1261 0.41161 0.02173 0.0
C83 C 0.13759 0.35402 0.02381 0.0
C84 C 0.05772 0.46651 0.0038 0.0
C85 C 0.06458 0.51142 0.02388 0.0
C86 C 0.04154 0.48158 0.98039 0.0
C87 C 0.03726 0.4388 0.95836 0.0
C88 C 0.09196 0.42887 0.95458 0.0
C89 C 0.08702 0.38734 0.93401 0.0
C90 C 0.02779 0.35586 0.91699 0.0
C91 C 0.97346 0.36609 0.92047 0.0
C92 C 0.97813 0.40754 0.94102 0.0
C93 C 0.05463 0.76804 -0.0008 0.0
C94 C -0.00449 0.75559 0.98378 0.0
C95 C 0.06849 0.71263 0.00375 0.0
C96 C 0.02271 0.6437 -0.00659 0.0
C97 C 0.96353 0.63156 0.9782 0.0
C98 C 0.95026 0.68674 0.97336 0.0
C99 C 0.03618 0.58384 -0.00225 0.0
C100 C 0.03058 0.53956 0.9777 0.0
C101 C 0.05351 0.5695 0.02118 0.0
C102 C 0.05812 0.61247 0.04318 0.0
C103 C 0.0031 0.62134 0.04731 0.0
C104 C 0.00823 0.66266 0.06797 0.0
C105 C 0.06798 0.69496 0.08473 0.0
C106 C 0.12264 0.68578 0.08089 0.0
C107 C 0.11777 0.64454 0.06025 0.0
H108 H 0.07188 0.72698 0.1007 0.0
H109 H 0.02403 0.32365 0.90109 0.0
H110 H 0.22724 0.95047 0.28159 0.0
H111 H 0.33764 0.95663 0.28858 0.0
H112 H 0.39522 0.1006 0.35301 0.0
H113 H 0.2854 0.09574 0.34595 0.0
H114 H 0.49425 0.14066 0.32777 0.0
H115 H 0.35245 0.92877 0.35814 0.0
H116 H 0.25582 0.81271 0.358 0.0
H117 H 0.30437 0.73231 0.29708 0.0
H118 H 0.40159 0.84792 0.29697 0.0
H119 H 0.78216 0.1015 0.37106 0.0
H120 H 0.67321 0.09821 0.36896 0.0
H121 H 0.60092 0.96466 0.30124 0.0
H122 H 0.70911 0.9671 0.30325 0.0
H123 H 0.51026 0.92095 0.33172 0.0
H124 H 0.6555 0.13756 0.30269 0.0
H125 H 0.75482 0.25331 0.30565 0.0
H126 H 0.69984 0.32606 0.36647 0.0
H127 H 0.60085 0.21035 0.36415 0.0
C128 C 0.26361 0.98395 0.29712 0.0
C129 C 0.24761 0.02234 0.3133 0.0
C130 C 0.32642 0.98699 0.30118 0.0
C131 C 0.37393 0.02798 0.32157 0.0
C132 C 0.35899 0.06836 0.33725 0.0
C133 C 0.29629 0.06557 0.33316 0.0
C134 C 0.4392 0.02852 0.32654 0.0
C135 C 0.49788 0.09276 0.32899 0.0
C136 C 0.44365 0.96592 0.32792 0.0
C137 C 0.38393 0.89707 0.32743 0.0
C138 C 0.34213 0.88649 0.34458 0.0
C139 C 0.28739 0.82071 0.3446 0.0
C140 C 0.27381 0.7652 0.32748 0.0
C141 C 0.31494 0.77536 0.31032 0.0
C142 C 0.36999 0.84091 0.31033 0.0
C143 C 0.74281 0.07085 0.35585 0.0
C144 C 0.75413 0.0348 0.33724 0.0
C145 C 0.68086 0.06938 0.35464 0.0
C146 C 0.62963 0.03193 0.3348 0.0
C147 C 0.64009 0.99399 0.31665 0.0
C148 C 0.70191 0.99554 0.31782 0.0
C149 C 0.56515 0.03287 0.33252 0.0
C150 C 0.50661 0.96888 0.33063 0.0
C151 C 0.561 0.09579 0.33188 0.0
C152 C 0.62109 0.16504 0.33339 0.0
C153 C 0.66495 0.178 0.31685 0.0
C154 C 0.72112 0.24367 0.31838 0.0
C155 C 0.7336 0.29697 0.33625 0.0
C156 C 0.6901 0.28469 0.35265 0.0
C157 C 0.63399 0.2191 0.35124 0.0
H158 H 0.77682 0.3479 0.33739 0.0
H159 H 0.23161 0.7142 0.32752 0.0
H160 H 0.70415 0.84461 0.67983 0.0
H161 H 0.59918 0.73554 0.6716 0.0
H162 H 0.7073 0.62114 0.66077 0.0
H163 H 0.81269 0.73158 0.66753 0.0
H164 H 0.60292 0.57506 0.6274 0.0
H165 H 0.6366 0.62417 0.71401 0.0
H166 H 0.65814 0.69827 0.75191 0.0
H167 H 0.47899 0.71354 0.72875 0.0
H168 H 0.45675 0.64013 0.6906 0.0
H169 H 0.35417 0.23601 0.63412 0.0
H170 H 0.45263 0.3511 0.64063 0.0
H171 H 0.32864 0.44848 0.649 0.0
H172 H 0.22976 0.33228 0.64414 0.0
H173 H 0.43632 0.5067 0.68194 0.0
H174 H 0.39977 0.45205 0.59604 0.0
H175 H 0.37753 0.37549 0.5587 0.0
H176 H 0.5617 0.36911 0.58083 0.0
H177 H 0.58478 0.44516 0.61839 0.0
C178 C 0.70572 0.79606 0.67615 0.0
C179 C 0.76657 0.7962 0.6747 0.0
C180 C 0.6456 0.73367 0.67147 0.0
C181 C 0.64527 0.66979 0.66612 0.0
C182 C 0.70629 0.66976 0.66498 0.0
C183 C 0.76644 0.7326 0.669 0.0
C184 C 0.58107 0.60345 0.66087 0.0
C185 C 0.56692 0.55975 0.63949 0.0
C186 C 0.53286 0.58447 0.67619 0.0
C187 C 0.54529 0.62707 0.6994 0.0
C188 C 0.60192 0.64351 0.71698 0.0
C189 C 0.61424 0.68537 0.7385 0.0
C190 C 0.56999 0.71063 0.74272 0.0
C191 C 0.51317 0.69386 0.72547 0.0
C192 C 0.50064 0.65206 0.70391 0.0
C193 C 0.34763 0.28197 0.6369 0.0
C194 C 0.28433 0.27554 0.63825 0.0
C195 C 0.40392 0.34767 0.64051 0.0
C196 C 0.39789 0.40848 0.64455 0.0
C197 C 0.33443 0.40227 0.64568 0.0
C198 C 0.27806 0.33613 0.64277 0.0
C199 C 0.45872 0.4779 0.64867 0.0
C200 C 0.47216 0.52228 0.66978 0.0
C201 C 0.50632 0.49752 0.63311 0.0
C202 C 0.49389 0.45417 0.61006 0.0
C203 C 0.43552 0.43433 0.59293 0.0
C204 C 0.42275 0.39098 0.57174 0.0
C205 C 0.46817 0.36744 0.5674 0.0
C206 C 0.52664 0.38751 0.58419 0.0
C207 C 0.53969 0.4309 0.6054 0.0
H208 H 0.45805 0.33364 0.55103 0.0
H209 H 0.57971 0.74318 0.75936 0.0
H210 H 0.80864 0.06687 0.68202 0.0
H211 H 0.71514 0.08528 0.69005 0.0
H212 H 0.60022 0.97065 0.6209 0.0
H213 H 0.69339 0.95247 0.61265 0.0
H214 H 0.59147 0.0883 0.6292 0.0
H215 H 0.56846 0.89327 0.67187 0.0
H216 H 0.60396 0.83003 0.7009 0.0
H217 H 0.64033 0.98521 0.75874 0.0
H218 H 0.60504 0.04951 0.73006 0.0
H219 H 0.26238 0.00511 0.64039 0.0
H220 H 0.36242 0.99367 0.63732 0.0
H221 H 0.46192 0.12248 0.70556 0.0
H222 H 0.36183 0.13414 0.70886 0.0
H223 H 0.48377 0.0058 0.70025 0.0
H224 H 0.50765 0.20092 0.65639 0.0
H225 H 0.47352 0.26292 0.62643 0.0
H226 H 0.43234 0.1017 0.57017 0.0
H227 H 0.46775 0.03939 0.5997 0.0
C228 C 0.7637 0.04623 0.66842 0.0
C229 C 0.75828 0.00822 0.64668 0.0
C230 C 0.71017 0.05625 0.67314 0.0
C231 C 0.65052 0.02848 0.6562 0.0
C232 C 0.64578 0.99224 0.63424 0.0
C233 C 0.69906 0.98195 0.62955 0.0
C234 C 0.59293 0.03756 0.66107 0.0
C235 C 0.56758 0.06962 0.64462 0.0
C236 C 0.56286 0.01472 0.68152 0.0
C237 C 0.58486 0.97665 0.69877 0.0
C238 C 0.58461 0.91427 0.69074 0.0
C239 C 0.60453 0.87813 0.70713 0.0
C240 C 0.62478 0.9038 0.73161 0.0
C241 C 0.6248 0.96549 0.73976 0.0
C242 C 0.60469 0.00172 0.72346 0.0
C243 C 0.3052 0.03037 0.6549 0.0
C244 C 0.30434 0.07088 0.6748 0.0
C245 C 0.36245 0.02413 0.65304 0.0
C246 C 0.4198 0.05816 0.67104 0.0
C247 C 0.41822 0.09615 0.69143 0.0
C248 C 0.36102 0.10275 0.69326 0.0
C249 C 0.4818 0.05535 0.6681 0.0
C250 C 0.50807 0.02479 0.68494 0.0
C251 C 0.51261 0.07899 0.64791 0.0
C252 C 0.48967 0.11525 0.63025 0.0
C253 C 0.4908 0.17845 0.63765 0.0
C254 C 0.47143 0.21375 0.62075 0.0
C255 C 0.45008 0.18601 0.59648 0.0
C256 C 0.44867 0.12308 0.58899 0.0
C257 C 0.46877 0.08795 0.60577 0.0
H258 H 0.43499 0.21346 0.58346 0.0
H259 H 0.64024 0.87577 0.74425 0.0
H260 H 0.75381 0.79668 0.03024 0.0
H261 H 0.65233 0.68435 0.02722 0.0
H262 H 0.67294 0.63022 0.9555 0.0
H263 H 0.77269 0.74341 0.95805 0.0
H264 H 0.54631 0.58569 0.95709 0.0
H265 H 0.72798 0.57109 0.00654 0.0
H266 H 0.82199 0.61014 0.0407 0.0
H267 H 0.68813 0.58156 0.09048 0.0
H268 H 0.59344 0.54308 0.0566 0.0
H269 H 0.33172 0.2231 0.94786 0.0
H270 H 0.43564 0.33334 0.95154 0.0
H271 H 0.40986 0.39223 0.02176 0.0
H272 H 0.307 0.28158 0.01852 0.0
H273 H 0.53973 0.43352 0.02096 0.0
H274 H 0.35852 0.4491 0.97111 0.0
H275 H 0.26514 0.4106 0.93676 0.0
H276 H 0.39971 0.43742 0.8874 0.0
H277 H 0.49376 0.47527 0.92149 0.0
C278 C 0.73611 0.7612 0.01372 0.0
C279 C 0.77137 0.77869 -0.00556 0.0
C280 C 0.67841 0.69682 0.01206 0.0
C281 C 0.65592 0.64806 -0.00865 0.0
C282 C 0.68946 0.66678 0.9717 0.0
C283 C 0.74648 0.73159 0.97318 0.0
C284 C 0.59892 0.57673 -0.0096 0.0
C285 C 0.54532 0.55214 0.97091 0.0
C286 C 0.59706 0.53321 0.00862 0.0
C287 C 0.65368 0.5546 0.02902 0.0
C288 C 0.71863 0.57332 0.02477 0.0
C289 C 0.77204 0.59538 0.04408 0.0
C290 C 0.76104 0.59844 0.06774 0.0
C291 C 0.69657 0.57917 0.07214 0.0
C292 C 0.64299 0.55712 0.0529 0.0
C293 C 0.3487 0.25899 0.96425 0.0
C294 C 0.31064 0.24382 0.98278 0.0
C295 C 0.40796 0.32214 0.96628 0.0
C296 C 0.42972 0.3717 0.98671 0.0
C297 C 0.39387 0.35495 0.00579 0.0
C298 C 0.33495 0.29161 0.00387 0.0
C299 C 0.48733 0.44255 0.98762 0.0
C300 C 0.54094 0.46705 0.00712 0.0
C301 C 0.48938 0.48595 0.96937 0.0
C302 C 0.43306 0.46448 0.94885 0.0
C303 C 0.36813 0.44648 0.95293 0.0
C304 C 0.31508 0.42478 0.93351 0.0
C305 C 0.32646 0.42142 0.90991 0.0
C306 C 0.39096 0.43999 0.90569 0.0
C307 C 0.44416 0.46165 0.92505 0.0
H308 H 0.28533 0.40454 0.8949 0.0
H309 H 0.80246 0.61564 0.08266 0.0
H310 H 0.85807 0.22629 0.32398 0.0
H311 H 0.88059 0.34722 0.33225 0.0
H312 H 0.0888 0.41958 0.32824 0.0
H313 H 0.06693 0.29748 0.32159 0.0
H314 H 0.0817 0.49941 0.3612 0.0
H315 H 0.96541 0.41281 0.27965 0.0
H316 H 0.87391 0.33116 0.24736 0.0
H317 H 0.73344 0.37382 0.27839 0.0
H318 H 0.82394 0.45506 0.31104 0.0
H319 H 0.15812 0.84529 0.34235 0.0
H320 H 0.13706 0.72422 0.33902 0.0
H321 H 0.9287 0.65394 0.34201 0.0
H322 H 0.94884 0.77562 0.34345 0.0
H323 H 0.93586 0.57289 0.31027 0.0
H324 H 0.05687 0.66165 0.39237 0.0
H325 H 0.15173 0.74386 0.42365 0.0
H326 H 0.28706 0.70011 0.38956 0.0
H327 H 0.19322 0.61751 0.35816 0.0
C328 C 0.90876 0.26814 0.32507 0.0
C329 C 0.96074 0.25312 0.32187 0.0
C330 C 0.92146 0.33719 0.32961 0.0
C331 C -0.01418 0.39277 0.33 0.0
C332 C 0.03852 0.37766 0.32776 0.0
C333 C 0.02615 0.30813 0.32395 0.0
C334 C -0.00252 0.4663 0.33233 0.0
C335 C 0.05024 0.51563 0.34988 0.0
C336 C 0.9557 0.48744 0.31786 0.0
C337 C 0.9014 0.43949 0.29795 0.0
C338 C 0.91495 0.4045 0.27966 0.0
C339 C 0.86326 0.35832 0.26128 0.0
C340 C 0.79788 0.34719 0.26085 0.0
C341 C 0.78411 0.38251 0.27873 0.0
C342 C 0.8356 0.42866 0.29717 0.0
C343 C 0.10794 0.80398 0.34254 0.0
C344 C 0.05518 0.81952 0.34351 0.0
C345 C 0.09609 0.7348 0.34083 0.0
C346 C 0.0319 0.67979 0.34111 0.0
C347 C 0.97891 0.69539 0.34201 0.0
C348 C -0.00967 0.76474 0.34291 0.0
C349 C 0.01974 0.60603 0.33932 0.0
C350 C 0.967 0.55663 0.32175 0.0
C351 C 0.06191 0.58503 0.35363 0.0
C352 C 0.11805 0.63374 0.37283 0.0
C353 C 0.10688 0.6697 0.39152 0.0
C354 C 0.16044 0.71634 0.40927 0.0
C355 C 0.22533 0.72741 0.40852 0.0
C356 C 0.23678 0.69146 0.39013 0.0
C357 C 0.18341 0.64455 0.37241 0.0
H358 H 0.26671 0.76372 0.42224 0.0
H359 H 0.75791 0.3113 0.24664 0.0
H360 H 0.91169 0.04985 0.24183 0.0
H361 H 0.91786 0.04923 0.19886 0.0
H362 H 0.05979 0.9698 0.20985 0.0
H363 H 0.05533 0.97216 0.25273 0.0
H364 H 0.10222 0.0733 0.18366 0.0
H365 H 0.89074 0.86561 0.1823 0.0
H366 H 0.77604 0.79978 0.19067 0.0
H367 H 0.71585 0.92941 0.14966 0.0
H368 H 0.83041 0.99656 0.14128 0.0
H369 H 0.10829 0.99441 0.06131 0.0
H370 H 0.09659 0.98856 0.10372 0.0
H371 H 0.93939 0.047 0.09047 0.0
H372 H 0.94781 0.04764 0.04783 0.0
H373 H 0.90437 0.95472 0.11811 0.0
H374 H 0.11297 0.16402 0.11962 0.0
H375 H 0.22727 0.23333 0.11129 0.0
H376 H 0.29302 0.10747 0.15218 0.0
H377 H 0.1789 0.03685 0.16051 0.0
C378 C 0.94372 0.03166 0.23503 0.0
C379 C 0.98311 0.0112 0.25072 0.0
C380 C 0.94709 0.03116 0.21045 0.0
C381 C -0.01105 0.00895 0.20106 0.0
C382 C 0.02734 0.98739 0.21666 0.0
C383 C 0.0246 0.98865 0.2412 0.0
C384 C -0.00511 0.01025 0.17519 0.0
C385 C 0.05903 0.04668 0.1693 0.0
C386 C 0.93839 0.97727 0.15646 0.0
C387 C 0.86934 0.93651 0.16135 0.0
C388 C 0.85316 0.88036 0.1752 0.0
C389 C 0.78814 0.84277 0.17992 0.0
C390 C 0.73873 0.86051 0.17075 0.0
C391 C 0.75418 0.91577 0.15677 0.0
C392 C 0.81912 0.95355 0.15201 0.0
C393 C 0.07141 0.00607 0.06757 0.0
C394 C 0.02918 0.02179 0.05143 0.0
C395 C 0.06497 0.0032 0.09182 0.0
C396 C 0.01806 0.01888 0.10055 0.0
C397 C 0.97596 0.03466 0.0843 0.0
C398 C 0.98095 0.03531 0.05994 0.0
C399 C 0.01186 0.01797 0.12647 0.0
C400 C 0.94768 0.98159 0.1324 0.0
C401 C 0.0683 0.05176 0.14527 0.0
C402 C 0.13721 0.09479 0.14052 0.0
C403 C 0.15172 0.15092 0.12674 0.0
C404 C 0.21649 0.19045 0.12202 0.0
C405 C 0.26733 0.17471 0.13116 0.0
C406 C 0.25357 0.11956 0.1451 0.0
C407 C 0.18888 0.07981 0.14984 0.0
H408 H 0.31741 0.20534 0.12747 0.0
H409 H 0.68845 0.83137 0.17444 0.0
H410 H 0.11288 0.06887 0.39717 0.0
H411 H 0.11369 0.0644 0.44048 0.0
H412 H 0.90055 0.99115 0.42854 0.0
H413 H 0.89895 0.99413 0.38519 0.0
H414 H 0.97407 0.10039 0.4673 0.0
H415 H 0.94577 0.87736 0.4387 0.0
H416 H 0.97197 0.79691 0.4158 0.0
H417 H 0.1662 0.88367 0.46062 0.0
H418 H 0.1416 0.96577 0.48354 0.0
H419 H 0.89415 0.96631 0.57706 0.0
H420 H 0.90063 0.9734 0.53442 0.0
H421 H 0.11478 0.05507 0.55117 0.0
H422 H 0.10897 0.0489 0.59422 0.0
H423 H 0.04442 0.94412 0.51028 0.0
H424 H 0.06604 0.16616 0.53988 0.0
H425 H 0.03396 0.24379 0.56143 0.0
H426 H 0.84374 0.15244 0.51374 0.0
H427 H 0.8743 0.07342 0.49212 0.0
C428 C 0.06622 0.05205 0.40376 0.0
C429 C 0.00588 0.03205 0.38776 0.0
C430 C 0.06676 0.04939 0.42848 0.0
C431 C 0.00717 0.02744 0.43764 0.0
C432 C 0.94706 0.00848 0.42179 0.0
C433 C 0.94627 0.01006 0.39704 0.0
C434 C 0.00744 0.02316 0.46375 0.0
C435 C -0.01115 0.06581 0.47668 0.0
C436 C 0.0275 0.97855 0.47592 0.0
C437 C 0.04217 0.92832 0.46264 0.0
C438 C -0.0057 0.87972 0.44356 0.0
C439 C 0.00881 0.83378 0.43059 0.0
C440 C 0.07079 0.83538 0.4367 0.0
C441 C 0.11826 0.88266 0.45588 0.0
C442 C 0.10406 0.92892 0.46888 0.0
C443 C 0.94272 0.98544 0.57175 0.0
C444 C 0.00115 0.00718 0.58905 0.0
C445 C 0.94626 0.9896 0.54736 0.0
C446 C 0.00816 0.01502 0.53971 0.0
C447 C 0.06655 0.0353 0.55679 0.0
C448 C 0.06318 0.03203 0.58133 0.0
C449 C 0.01139 0.02171 0.51387 0.0
C450 C 0.03028 0.97919 0.50095 0.0
C451 C -0.00924 0.06584 0.50162 0.0
C452 C 0.97223 0.11339 0.51453 0.0
C453 C 0.01712 0.16216 0.53413 0.0
C454 C -0.00074 0.20651 0.54632 0.0
C455 C 0.93678 0.20293 0.539 0.0
C456 C 0.89209 0.15509 0.51941 0.0
C457 C 0.90968 0.11054 0.50717 0.0
H458 H 0.92306 0.23734 0.54846 0.0
H459 H 0.08188 0.79988 0.42657 0.0
H460 H 0.09642 0.16261 0.73019 0.0
H461 H 0.07626 0.15016 0.77155 0.0
H462 H 0.94116 0.92986 0.75122 0.0
H463 H 0.96013 0.94276 0.70949 0.0
H464 H 0.90277 0.99065 0.78731 0.0
H465 H 0.0985 0.97695 0.77202 0.0
H466 H 0.2037 0.0186 0.75605 0.0
H467 H 0.29087 0.20973 0.80409 0.0
H468 H 0.18577 0.16965 0.8201 0.0
H469 H 0.94637 0.90526 0.90714 0.0
H470 H 0.93973 0.90844 0.86365 0.0
H471 H 0.0918 0.12508 0.87588 0.0
H472 H 0.10003 0.12185 0.91931 0.0
H473 H 0.11653 0.05707 0.84278 0.0
H474 H 0.9207 0.07178 0.858 0.0
H475 H 0.81413 0.0327 0.87285 0.0
H476 H 0.72629 0.84117 0.82499 0.0
H477 H 0.83266 0.87868 0.81008 0.0
C478 C 0.06116 0.11194 0.73445 0.0
C479 C 0.02992 0.05351 0.71683 0.0
C480 C 0.04965 0.10486 0.75802 0.0
C481 C 0.00832 0.03882 0.7645 0.0
C482 C 0.97325 0.98124 0.74656 0.0
C483 C 0.98396 0.98862 0.72278 0.0
C484 C 0.00901 0.02903 0.79032 0.0
C485 C 0.9492 0.00423 0.79946 0.0
C486 C 0.06987 0.04736 0.80609 0.0
C487 C 0.1341 0.07042 0.79717 0.0
C488 C 0.14005 0.02793 0.77914 0.0
C489 C 0.19963 0.05128 0.77006 0.0
C490 C 0.2539 0.11681 0.77902 0.0
C491 C 0.24878 0.15898 0.79717 0.0
C492 C 0.18924 0.13593 0.80628 0.0
C493 C 0.97843 0.95358 0.90057 0.0
C494 C 0.02368 0.01335 0.91671 0.0
C495 C 0.97428 0.95541 0.87569 0.0
C496 C 0.01451 0.01731 0.86648 0.0
C497 C 0.06017 0.07675 0.88257 0.0
C498 C 0.06484 0.0748 0.90741 0.0
C499 C 0.01043 0.0202 0.84012 0.0
C500 C 0.06983 0.04325 0.83076 0.0
C501 C 0.94913 0.00017 0.82426 0.0
C502 C 0.88494 0.97776 0.8331 0.0
C503 C 0.87884 0.0211 0.85077 0.0
C504 C 0.81843 -0.00074 0.85918 0.0
C505 C 0.76354 0.9344 0.84992 0.0
C506 C 0.76889 0.89134 0.83218 0.0
C507 C 0.82921 0.91289 0.82373 0.0
H508 H 0.71683 0.91759 0.85646 0.0
H509 H 0.29993 0.13488 0.77193 0.0
loop_
_geom_bond_atom_site_label_1
_geom_bond_atom_site_label_2
_geom_bond_distance
_geom_bond_site_symmetry_2
_ccdc_geom_bond_type
Zn0 O6 1.976 . S
Zn0 O7 1.958 1_656 S
Zn0 O11 2.015 1_656 S
Zn0 O16 1.982 1_655 S
Zn1 O8 1.969 . S
Zn1 O14 1.969 . S
Zn1 O15 1.965 1_554 S
Zn1 O17 2.024 1_554 S
C2 O3 1.259 1_455 S
C2 O11 1.033 1_556 S
O3 C2 1.259 1_655 S
C4 O5 1.229 . S
C4 O17 1.058 1_554 S
O5 C4 1.229 . S
O6 Zn0 1.976 . S
O6 C9 1.267 1_556 S
O7 Zn0 1.958 1_454 S
O7 C18 1.260 1_565 S
O8 Zn1 1.969 . S
O8 C18 1.258 . S
C9 O6 1.267 1_554 S
C9 O10 1.228 . S
O10 C9 1.228 . S
O11 Zn0 2.015 1_454 S
O11 C2 1.033 1_554 S
C12 O13 1.247 . S
C12 O14 1.248 1_556 S
O13 C12 1.247 . S
O14 Zn1 1.969 . S
O14 C12 1.248 1_554 S
O15 Zn1 1.965 1_556 S
O15 C19 1.260 . S
O16 Zn0 1.982 1_455 S
O16 C19 1.258 1_565 S
O17 Zn1 2.024 1_556 S
O17 C4 1.058 1_556 S
C18 O7 1.260 1_545 S
C18 O8 1.258 . S
C19 O15 1.260 . S
C19 O16 1.258 1_545 S
Zn20 O26 1.969 1_565 S
Zn20 O27 1.965 1_565 S
Zn20 O31 2.024 . S
Zn20 O36 1.969 . S
Zn21 O28 1.969 . S
Zn21 O34 1.969 . S
Zn21 O35 1.965 . S
Zn21 O37 2.024 1_655 S
C22 O23 1.229 . S
C22 O31 1.058 . S
O23 C22 1.229 . S
C24 O25 1.229 . S
C24 O37 1.058 1_655 S
O25 C24 1.229 . S
O26 Zn20 1.969 1_545 S
O26 C29 1.267 . S
O27 Zn20 1.965 1_545 S
O27 C38 1.260 . S
O28 Zn21 1.969 . S
O28 C38 1.258 1_655 S
C29 O26 1.267 . S
C29 O30 1.228 1_545 S
O30 C29 1.228 1_565 S
O31 Zn20 2.024 . S
O31 C22 1.058 . S
C32 O33 1.228 . S
C32 O34 1.267 . S
O33 C32 1.228 . S
O34 Zn21 1.969 . S
O34 C32 1.267 . S
O35 Zn21 1.965 . S
O35 C39 1.260 1_655 S
O36 Zn20 1.969 . S
O36 C39 1.257 1_565 S
O37 Zn21 2.024 1_455 S
O37 C24 1.058 1_455 S
C38 O27 1.260 . S
C38 O28 1.258 1_455 S
C39 O35 1.260 1_455 S
C39 O36 1.257 1_545 S
Zn40 O46 1.969 . S
Zn40 O47 1.965 . S
Zn40 O51 2.024 . S
Zn40 O56 1.969 . S
Zn41 O48 1.969 . S
Zn41 O54 1.969 . S
Zn41 O55 1.976 . S
Zn41 O57 2.024 1_565 S
C42 O43 1.229 . S
C42 O51 1.058 . S
O43 C42 1.229 . S
C44 O45 1.229 1_545 S
C44 O57 1.058 . S
O45 C44 1.229 1_565 S
O46 Zn40 1.969 . S
O46 C49 1.267 . S
O47 Zn40 1.965 . S
O47 C58 1.260 . S
O48 Zn41 1.969 . S
O48 C58 1.258 1_665 S
C49 O46 1.267 . S
C49 O50 1.228 . S
O50 C49 1.228 . S
O51 Zn40 2.024 . S
O51 C42 1.058 . S
C52 O53 1.228 . S
C52 O54 1.267 . S
O53 C52 1.228 . S
O54 Zn41 1.969 . S
O54 C52 1.267 . S
O55 Zn41 1.976 . S
O55 C59 1.255 1_665 S
O56 Zn40 1.969 . S
O56 C59 1.258 . S
O57 Zn41 2.024 1_545 S
O57 C44 1.058 . S
C58 O47 1.260 . S
C58 O48 1.258 1_445 S
C59 O55 1.255 1_445 S
C59 O56 1.258 . S
H60 C78 0.951 . S
H61 C80 0.951 . S
H62 C82 0.950 . S
H63 C83 0.950 . S
H64 C85 0.950 . S
H65 C88 0.950 . S
H66 C89 0.950 . S
H67 C91 0.950 . S
H68 C92 0.950 . S
H69 C93 0.951 . S
H70 C95 0.951 . S
H71 C97 0.950 1_655 S
H72 C98 0.950 1_655 S
H73 C100 0.950 . S
H74 C103 0.950 . S
H75 C104 0.950 . S
H76 C106 0.950 . S
H77 C107 0.950 . S
C78 H60 0.951 . S
C78 C79 1.366 1_656 S
C78 C80 1.388 . S
C79 C78 1.366 1_454 S
C79 C83 1.385 . S
C80 H61 0.951 . S
C80 C78 1.388 . S
C80 C81 1.366 1_656 S
C81 C80 1.366 1_454 S
C81 C82 1.414 . S
C81 C84 1.499 . S
C82 H62 0.950 . S
C82 C81 1.414 . S
C82 C83 1.374 . S
C83 H63 0.950 . S
C83 C79 1.385 . S
C83 C82 1.374 . S
C84 C81 1.499 . S
C84 C85 1.373 . S
C84 C86 1.389 1_554 S
C85 H64 0.950 . S
C85 C84 1.373 . S
C85 C101 1.377 . S
C86 C84 1.389 1_556 S
C86 C87 1.524 1_455 S
C86 C100 1.377 . S
C87 C86 1.524 1_655 S
C87 C88 1.397 1_655 S
C87 C92 1.363 . S
C88 H65 0.950 . S
C88 C87 1.397 1_455 S
C88 C89 1.334 . S
C89 H66 0.950 . S
C89 C88 1.334 . S
C89 C90 1.287 1_455 S
C90 C89 1.287 1_655 S
C90 C91 1.524 . S
C90 H109 0.913 . S
C91 H67 0.950 . S
C91 C90 1.524 . S
C91 C92 1.415 . S
C92 H68 0.950 . S
C92 C87 1.363 . S
C92 C91 1.415 . S
C93 H69 0.951 . S
C93 C94 1.366 . S
C93 C95 1.388 . S
C94 C93 1.366 . S
C94 C98 1.385 1_554 S
C95 H70 0.951 . S
C95 C93 1.388 . S
C95 C96 1.366 . S
C96 C95 1.366 . S
C96 C97 1.414 1_554 S
C96 C99 1.499 . S
C97 H71 0.950 1_455 S
C97 C96 1.414 1_556 S
C97 C98 1.374 . S
C98 H72 0.950 1_455 S
C98 C94 1.385 1_556 S
C98 C97 1.374 . S
C99 C96 1.499 . S
C99 C100 1.373 1_554 S
C99 C101 1.389 . S
C100 H73 0.950 . S
C100 C86 1.377 . S
C100 C99 1.373 1_556 S
C101 C85 1.377 . S
C101 C99 1.389 . S
C101 C102 1.524 . S
C102 C101 1.524 . S
C102 C103 1.397 . S
C102 C107 1.363 . S
C103 H74 0.950 . S
C103 C102 1.397 . S
C103 C104 1.334 . S
C104 H75 0.950 . S
C104 C103 1.334 . S
C104 C105 1.287 . S
C105 C104 1.287 . S
C105 C106 1.524 . S
C105 H108 0.999 . S
C106 H76 0.950 . S
C106 C105 1.524 . S
C106 C107 1.415 . S
C107 H77 0.950 . S
C107 C102 1.363 . S
C107 C106 1.415 . S
H108 C105 0.999 . S
H109 C90 0.913 . S
H110 C128 0.951 . S
H111 C130 0.951 1_565 S
H112 C132 0.950 . S
H113 C133 0.950 . S
H114 C135 0.950 . S
H115 C138 0.950 . S
H116 C139 0.950 . S
H117 C141 0.950 . S
H118 C142 0.950 . S
H119 C143 0.951 . S
H120 C145 0.951 . S
H121 C147 0.950 1_565 S
H122 C148 0.950 1_565 S
H123 C150 0.950 . S
H124 C153 0.950 . S
H125 C154 0.950 . S
H126 C156 0.950 . S
H127 C157 0.950 . S
C128 H110 0.951 . S
C128 C129 1.366 . S
C128 C130 1.388 . S
C129 C128 1.366 . S
C129 C133 1.385 . S
C130 H111 0.951 1_545 S
C130 C128 1.388 . S
C130 C131 1.366 . S
C131 C130 1.366 . S
C131 C132 1.414 . S
C131 C134 1.499 . S
C132 H112 0.950 . S
C132 C131 1.414 . S
C132 C133 1.374 . S
C133 H113 0.950 . S
C133 C129 1.385 . S
C133 C132 1.374 . S
C134 C131 1.499 . S
C134 C135 1.373 . S
C134 C136 1.389 1_545 S
C135 H114 0.950 . S
C135 C134 1.373 . S
C135 C151 1.377 . S
C136 C134 1.389 1_565 S
C136 C137 1.524 . S
C136 C150 1.377 . S
C137 C136 1.524 . S
C137 C138 1.397 . S
C137 C142 1.363 . S
C138 H115 0.950 . S
C138 C137 1.397 . S
C138 C139 1.334 . S
C139 H116 0.950 . S
C139 C138 1.334 . S
C139 C140 1.287 . S
C140 C139 1.287 . S
C140 C141 1.524 . S
C140 H159 0.913 . S
C141 H117 0.950 . S
C141 C140 1.524 . S
C141 C142 1.415 . S
C142 H118 0.950 . S
C142 C137 1.363 . S
C142 C141 1.415 . S
C143 H119 0.951 . S
C143 C144 1.366 . S
C143 C145 1.388 . S
C144 C143 1.366 . S
C144 C148 1.385 . S
C145 H120 0.951 . S
C145 C143 1.388 . S
C145 C146 1.366 . S
C146 C145 1.366 . S
C146 C147 1.414 . S
C146 C149 1.499 . S
C147 H121 0.950 1_545 S
C147 C146 1.414 . S
C147 C148 1.374 . S
C148 H122 0.950 1_545 S
C148 C144 1.385 . S
C148 C147 1.374 . S
C149 C146 1.499 . S
C149 C150 1.373 1_545 S
C149 C151 1.389 . S
C150 H123 0.950 . S
C150 C136 1.377 . S
C150 C149 1.373 1_565 S
C151 C135 1.377 . S
C151 C149 1.389 . S
C151 C152 1.524 . S
C152 C151 1.524 . S
C152 C153 1.397 . S
C152 C157 1.363 . S
C153 H124 0.950 . S
C153 C152 1.397 . S
C153 C154 1.334 . S
C154 H125 0.950 . S
C154 C153 1.334 . S
C154 C155 1.287 . S
C155 C154 1.287 . S
C155 C156 1.524 . S
C155 H158 0.999 . S
C156 H126 0.950 . S
C156 C155 1.524 . S
C156 C157 1.415 . S
C157 H127 0.950 . S
C157 C152 1.363 . S
C157 C156 1.415 . S
H158 C155 0.999 . S
H159 C140 0.913 . S
H160 C178 0.951 . S
H161 C180 0.951 . S
H162 C182 0.950 . S
H163 C183 0.950 . S
H164 C185 0.950 . S
H165 C188 0.950 . S
H166 C189 0.950 . S
H167 C191 0.950 . S
H168 C192 0.950 . S
H169 C193 0.951 . S
H170 C195 0.951 . S
H171 C197 0.950 . S
H172 C198 0.950 . S
H173 C200 0.950 . S
H174 C203 0.950 . S
H175 C204 0.950 . S
H176 C206 0.950 . S
H177 C207 0.950 . S
C178 H160 0.951 . S
C178 C179 1.366 . S
C178 C180 1.388 . S
C179 C178 1.366 . S
C179 C183 1.385 . S
C180 H161 0.951 . S
C180 C178 1.388 . S
C180 C181 1.366 . S
C181 C180 1.366 . S
C181 C182 1.414 . S
C181 C184 1.499 . S
C182 H162 0.950 . S
C182 C181 1.414 . S
C182 C183 1.374 . S
C183 H163 0.950 . S
C183 C179 1.385 . S
C183 C182 1.374 . S
C184 C181 1.499 . S
C184 C185 1.373 . S
C184 C186 1.389 . S
C185 H164 0.950 . S
C185 C184 1.373 . S
C185 C201 1.377 . S
C186 C184 1.389 . S
C186 C187 1.524 . S
C186 C200 1.377 . S
C187 C186 1.524 . S
C187 C188 1.397 . S
C187 C192 1.363 . S
C188 H165 0.950 . S
C188 C187 1.397 . S
C188 C189 1.334 . S
C189 H166 0.950 . S
C189 C188 1.334 . S
C189 C190 1.287 . S
C190 C189 1.287 . S
C190 C191 1.524 . S
C190 H209 0.913 . S
C191 H167 0.950 . S
C191 C190 1.524 . S
C191 C192 1.415 . S
C192 H168 0.950 . S
C192 C187 1.363 . S
C192 C191 1.415 . S
C193 H169 0.951 . S
C193 C194 1.366 . S
C193 C195 1.388 . S
C194 C193 1.366 . S
C194 C198 1.385 . S
C195 H170 0.951 . S
C195 C193 1.388 . S
C195 C196 1.366 . S
C196 C195 1.366 . S
C196 C197 1.414 . S
C196 C199 1.499 . S
C197 H171 0.950 . S
C197 C196 1.414 . S
C197 C198 1.374 . S
C198 H172 0.950 . S
C198 C194 1.385 . S
C198 C197 1.374 . S
C199 C196 1.499 . S
C199 C200 1.373 . S
C199 C201 1.389 . S
C200 H173 0.950 . S
C200 C186 1.377 . S
C200 C199 1.373 . S
C201 C185 1.377 . S
C201 C199 1.389 . S
C201 C202 1.524 . S
C202 C201 1.524 . S
C202 C203 1.397 . S
C202 C207 1.363 . S
C203 H174 0.950 . S
C203 C202 1.397 . S
C203 C204 1.334 . S
C204 H175 0.950 . S
C204 C203 1.334 . S
C204 C205 1.287 . S
C205 C204 1.287 . S
C205 C206 1.524 . S
C205 H208 0.999 . S
C206 H176 0.950 . S
C206 C205 1.524 . S
C206 C207 1.415 . S
C207 H177 0.950 . S
C207 C202 1.363 . S
C207 C206 1.415 . S
H208 C205 0.999 . S
H209 C190 0.913 . S
H210 C228 0.951 . S
H211 C230 0.951 . S
H212 C232 0.950 1_565 S
H213 C233 0.950 1_565 S
H214 C235 0.950 . S
H215 C238 0.950 . S
H216 C239 0.950 . S
H217 C241 0.950 . S
H218 C242 0.950 . S
H219 C243 0.951 . S
H220 C245 0.951 . S
H221 C247 0.950 . S
H222 C248 0.950 . S
H223 C250 0.950 . S
H224 C253 0.950 . S
H225 C254 0.950 . S
H226 C256 0.950 . S
H227 C257 0.950 . S
C228 H210 0.951 . S
C228 C229 1.366 . S
C228 C230 1.388 . S
C229 C228 1.366 . S
C229 C233 1.385 . S
C230 H211 0.951 . S
C230 C228 1.388 . S
C230 C231 1.366 . S
C231 C230 1.366 . S
C231 C232 1.414 . S
C231 C234 1.499 . S
C232 H212 0.950 1_545 S
C232 C231 1.414 . S
C232 C233 1.374 . S
C233 H213 0.950 1_545 S
C233 C229 1.385 . S
C233 C232 1.374 . S
C234 C231 1.499 . S
C234 C235 1.373 . S
C234 C236 1.389 . S
C235 H214 0.950 . S
C235 C234 1.373 . S
C235 C251 1.377 . S
C236 C234 1.389 . S
C236 C237 1.524 1_545 S
C236 C250 1.377 . S
C237 C236 1.524 1_565 S
C237 C238 1.397 . S
C237 C242 1.363 1_565 S
C238 H215 0.950 . S
C238 C237 1.397 . S
C238 C239 1.334 . S
C239 H216 0.950 . S
C239 C238 1.334 . S
C239 C240 1.287 . S
C240 C239 1.287 . S
C240 C241 1.524 1_565 S
C240 H259 0.913 . S
C241 H217 0.950 . S
C241 C240 1.524 1_545 S
C241 C242 1.415 . S
C242 H218 0.950 . S
C242 C237 1.363 1_545 S
C242 C241 1.415 . S
C243 H219 0.951 . S
C243 C244 1.366 1_565 S
C243 C245 1.388 . S
C244 C243 1.366 1_545 S
C244 C248 1.385 . S
C245 H220 0.951 . S
C245 C243 1.388 . S
C245 C246 1.366 1_565 S
C246 C245 1.366 1_545 S
C246 C247 1.414 . S
C246 C249 1.499 . S
C247 H221 0.950 . S
C247 C246 1.414 . S
C247 C248 1.374 . S
C248 H222 0.950 . S
C248 C244 1.385 . S
C248 C247 1.374 . S
C249 C246 1.499 . S
C249 C250 1.373 . S
C249 C251 1.389 . S
C250 H223 0.950 . S
C250 C236 1.377 . S
C250 C249 1.373 . S
C251 C235 1.377 . S
C251 C249 1.389 . S
C251 C252 1.524 . S
C252 C251 1.524 . S
C252 C253 1.397 . S
C252 C257 1.363 . S
C253 H224 0.950 . S
C253 C252 1.397 . S
C253 C254 1.334 . S
C254 H225 0.950 . S
C254 C253 1.334 . S
C254 C255 1.287 . S
C255 C254 1.287 . S
C255 C256 1.524 . S
C255 H258 0.999 . S
C256 H226 0.950 . S
C256 C255 1.524 . S
C256 C257 1.415 . S
C257 H227 0.950 . S
C257 C252 1.363 . S
C257 C256 1.415 . S
H258 C255 0.999 . S
H259 C240 0.913 . S
H260 C278 0.951 . S
H261 C280 0.951 . S
H262 C282 0.950 . S
H263 C283 0.950 . S
H264 C285 0.950 . S
H265 C288 0.950 . S
H266 C289 0.950 . S
H267 C291 0.950 . S
H268 C292 0.950 . S
H269 C293 0.951 . S
H270 C295 0.951 . S
H271 C297 0.950 . S
H272 C298 0.950 . S
H273 C300 0.950 . S
H274 C303 0.950 . S
H275 C304 0.950 . S
H276 C306 0.950 . S
H277 C307 0.950 . S
C278 H260 0.951 . S
C278 C279 1.366 . S
C278 C280 1.388 . S
C279 C278 1.366 . S
C279 C283 1.385 1_554 S
C280 H261 0.951 . S
C280 C278 1.388 . S
C280 C281 1.366 . S
C281 C280 1.366 . S
C281 C282 1.414 1_554 S
C281 C284 1.499 . S
C282 H262 0.950 . S
C282 C281 1.414 1_556 S
C282 C283 1.374 . S
C283 H263 0.950 . S
C283 C279 1.385 1_556 S
C283 C282 1.374 . S
C284 C281 1.499 . S
C284 C285 1.373 1_554 S
C284 C286 1.389 . S
C285 H264 0.950 . S
C285 C284 1.373 1_556 S
C285 C301 1.377 . S
C286 C284 1.389 . S
C286 C287 1.524 . S
C286 C300 1.377 . S
C287 C286 1.524 . S
C287 C288 1.397 . S
C287 C292 1.363 . S
C288 H265 0.950 . S
C288 C287 1.397 . S
C288 C289 1.334 . S
C289 H266 0.950 . S
C289 C288 1.334 . S
C289 C290 1.287 . S
C290 C289 1.287 . S
C290 C291 1.524 . S
C290 H309 0.913 . S
C291 H267 0.950 . S
C291 C290 1.524 . S
C291 C292 1.415 . S
C292 H268 0.950 . S
C292 C287 1.363 . S
C292 C291 1.415 . S
C293 H269 0.951 . S
C293 C294 1.366 1_556 S
C293 C295 1.388 . S
C294 C293 1.366 1_554 S
C294 C298 1.385 . S
C295 H270 0.951 . S
C295 C293 1.388 . S
C295 C296 1.366 1_556 S
C296 C295 1.366 1_554 S
C296 C297 1.414 . S
C296 C299 1.499 . S
C297 H271 0.950 . S
C297 C296 1.414 . S
C297 C298 1.374 . S
C298 H272 0.950 . S
C298 C294 1.385 . S
C298 C297 1.374 . S
C299 C296 1.499 . S
C299 C300 1.373 . S
C299 C301 1.389 1_554 S
C300 H273 0.950 . S
C300 C286 1.377 . S
C300 C299 1.373 . S
C301 C285 1.377 . S
C301 C299 1.389 1_556 S
C301 C302 1.524 . S
C302 C301 1.524 . S
C302 C303 1.397 . S
C302 C307 1.363 . S
C303 H274 0.950 . S
C303 C302 1.397 . S
C303 C304 1.334 . S
C304 H275 0.950 . S
C304 C303 1.334 . S
C304 C305 1.287 . S
C305 C304 1.287 . S
C305 C306 1.524 . S
C305 H308 0.999 . S
C306 H276 0.950 . S
C306 C305 1.524 . S
C306 C307 1.415 . S
C307 H277 0.950 . S
C307 C302 1.363 . S
C307 C306 1.415 . S
H308 C305 0.999 . S
H309 C290 0.913 . S
H310 C328 0.951 . S
H311 C330 0.951 . S
H312 C332 0.950 . S
H313 C333 0.950 . S
H314 C335 0.950 . S
H315 C338 0.950 . S
H316 C339 0.950 . S
H317 C341 0.950 . S
H318 C342 0.950 . S
H319 C343 0.951 . S
H320 C345 0.951 . S
H321 C347 0.950 . S
H322 C348 0.950 . S
H323 C350 0.950 . S
H324 C353 0.950 . S
H325 C354 0.950 . S
H326 C356 0.950 . S
H327 C357 0.950 . S
C328 H310 0.951 . S
C328 C329 1.366 1_655 S
C328 C330 1.388 . S
C329 C328 1.366 1_455 S
C329 C333 1.385 . S
C330 H311 0.951 . S
C330 C328 1.388 . S
C330 C331 1.366 1_655 S
C331 C330 1.366 1_455 S
C331 C332 1.414 . S
C331 C334 1.499 . S
C332 H312 0.950 . S
C332 C331 1.414 . S
C332 C333 1.374 . S
C333 H313 0.950 . S
C333 C329 1.385 . S
C333 C332 1.374 . S
C334 C331 1.499 . S
C334 C335 1.373 . S
C334 C336 1.389 1_455 S
C335 H314 0.950 . S
C335 C334 1.373 . S
C335 C351 1.377 . S
C336 C334 1.389 1_655 S
C336 C337 1.524 . S
C336 C350 1.377 . S
C337 C336 1.524 . S
C337 C338 1.397 . S
C337 C342 1.363 . S
C338 H315 0.950 . S
C338 C337 1.397 . S
C338 C339 1.334 . S
C339 H316 0.950 . S
C339 C338 1.334 . S
C339 C340 1.287 . S
C340 C339 1.287 . S
C340 C341 1.524 . S
C340 H359 0.913 . S
C341 H317 0.950 . S
C341 C340 1.524 . S
C341 C342 1.415 . S
C342 H318 0.950 . S
C342 C337 1.363 . S
C342 C341 1.415 . S
C343 H319 0.951 . S
C343 C344 1.366 . S
C343 C345 1.388 . S
C344 C343 1.366 . S
C344 C348 1.385 1_455 S
C345 H320 0.951 . S
C345 C343 1.388 . S
C345 C346 1.366 . S
C346 C345 1.366 . S
C346 C347 1.414 1_455 S
C346 C349 1.499 . S
C347 H321 0.950 . S
C347 C346 1.414 1_655 S
C347 C348 1.374 . S
C348 H322 0.950 . S
C348 C344 1.385 1_655 S
C348 C347 1.374 . S
C349 C346 1.499 . S
C349 C350 1.373 1_455 S
C349 C351 1.389 . S
C350 H323 0.950 . S
C350 C336 1.377 . S
C350 C349 1.373 1_655 S
C351 C335 1.377 . S
C351 C349 1.389 . S
C351 C352 1.524 . S
C352 C351 1.524 . S
C352 C353 1.397 . S
C352 C357 1.363 . S
C353 H324 0.950 . S
C353 C352 1.397 . S
C353 C354 1.334 . S
C354 H325 0.950 . S
C354 C353 1.334 . S
C354 C355 1.287 . S
C355 C354 1.287 . S
C355 C356 1.524 . S
C355 H358 0.999 . S
C356 H326 0.950 . S
C356 C355 1.524 . S
C356 C357 1.415 . S
C357 H327 0.950 . S
C357 C352 1.363 . S
C357 C356 1.415 . S
H358 C355 0.999 . S
H359 C340 0.913 . S
H360 C378 0.951 1_655 S
H361 C380 0.951 1_655 S
H362 C382 0.950 . S
H363 C383 0.950 . S
H364 C385 0.950 . S
H365 C388 0.950 . S
H366 C389 0.950 . S
H367 C391 0.950 . S
H368 C392 0.950 . S
H369 C393 0.951 . S
H370 C395 0.951 . S
H371 C397 0.950 . S
H372 C398 0.950 . S
H373 C400 0.950 . S
H374 C403 0.950 . S
H375 C404 0.950 . S
H376 C406 0.950 . S
H377 C407 0.950 1_565 S
C378 H360 0.951 1_455 S
C378 C379 1.366 . S
C378 C380 1.388 . S
C379 C378 1.366 . S
C379 C383 1.385 1_545 S
C380 H361 0.951 1_455 S
C380 C378 1.388 . S
C380 C381 1.366 . S
C381 C380 1.366 . S
C381 C382 1.414 1_545 S
C381 C384 1.499 . S
C382 H362 0.950 . S
C382 C381 1.414 1_565 S
C382 C383 1.374 . S
C383 H363 0.950 . S
C383 C379 1.385 1_565 S
C383 C382 1.374 . S
C384 C381 1.499 . S
C384 C385 1.373 . S
C384 C386 1.389 1_455 S
C385 H364 0.950 . S
C385 C384 1.373 . S
C385 C401 1.377 . S
C386 C384 1.389 1_655 S
C386 C387 1.524 1_545 S
C386 C400 1.377 . S
C387 C386 1.524 1_565 S
C387 C388 1.397 . S
C387 C392 1.363 1_565 S
C388 H365 0.950 . S
C388 C387 1.397 . S
C388 C389 1.334 . S
C389 H366 0.950 . S
C389 C388 1.334 . S
C389 C390 1.287 . S
C390 C389 1.287 . S
C390 C391 1.524 1_565 S
C390 H409 0.913 . S
C391 H367 0.950 . S
C391 C390 1.524 1_545 S
C391 C392 1.415 . S
C392 H368 0.950 . S
C392 C387 1.363 1_545 S
C392 C391 1.415 . S
C393 H369 0.951 . S
C393 C394 1.366 1_565 S
C393 C395 1.388 . S
C394 C393 1.366 1_545 S
C394 C398 1.385 . S
C395 H370 0.951 . S
C395 C393 1.388 . S
C395 C396 1.366 1_565 S
C396 C395 1.366 1_545 S
C396 C397 1.414 . S
C396 C399 1.499 . S
C397 H371 0.950 . S
C397 C396 1.414 . S
C397 C398 1.374 . S
C398 H372 0.950 . S
C398 C394 1.385 . S
C398 C397 1.374 . S
C399 C396 1.499 . S
C399 C400 1.373 1_455 S
C399 C401 1.389 . S
C400 H373 0.950 . S
C400 C386 1.377 . S
C400 C399 1.373 1_655 S
C401 C385 1.377 . S
C401 C399 1.389 . S
C401 C402 1.524 . S
C402 C401 1.524 . S
C402 C403 1.397 . S
C402 C407 1.363 . S
C403 H374 0.950 . S
C403 C402 1.397 . S
C403 C404 1.334 . S
C404 H375 0.950 . S
C404 C403 1.334 . S
C404 C405 1.287 . S
C405 C404 1.287 . S
C405 C406 1.524 . S
C405 H408 0.999 . S
C406 H376 0.950 . S
C406 C405 1.524 . S
C406 C407 1.415 . S
C407 H377 0.950 1_545 S
C407 C402 1.363 . S
C407 C406 1.415 . S
H408 C405 0.999 . S
H409 C390 0.913 . S
H410 C428 0.951 . S
H411 C430 0.951 . S
H412 C432 0.950 . S
H413 C433 0.950 . S
H414 C435 0.952 . S
H415 C438 0.950 . S
H416 C439 0.950 . S
H417 C441 0.950 . S
H418 C442 0.950 . S
H419 C443 0.951 . S
H420 C445 0.951 . S
H421 C447 0.950 . S
H422 C448 0.950 . S
H423 C450 0.950 . S
H424 C453 0.950 . S
H425 C454 0.950 . S
H426 C456 0.950 . S
H427 C457 0.950 . S
C428 H410 0.951 . S
C428 C429 1.366 . S
C428 C430 1.388 . S
C429 C428 1.366 . S
C429 C433 1.385 1_455 S
C430 H411 0.951 . S
C430 C428 1.388 . S
C430 C431 1.366 . S
C431 C430 1.366 . S
C431 C432 1.414 1_455 S
C431 C434 1.499 . S
C432 H412 0.950 . S
C432 C431 1.414 1_655 S
C432 C433 1.374 . S
C433 H413 0.950 . S
C433 C429 1.385 1_655 S
C433 C432 1.374 . S
C434 C431 1.499 . S
C434 C435 1.373 . S
C434 C436 1.389 1_545 S
C435 H414 0.952 . S
C435 C434 1.373 . S
C435 C451 1.377 . S
C436 C434 1.389 1_565 S
C436 C437 1.524 . S
C436 C450 1.377 . S
C437 C436 1.524 . S
C437 C438 1.397 1_455 S
C437 C442 1.363 . S
C438 H415 0.950 . S
C438 C437 1.397 1_655 S
C438 C439 1.334 . S
C439 H416 0.950 . S
C439 C438 1.334 . S
C439 C440 1.287 1_655 S
C440 C439 1.287 1_455 S
C440 C441 1.524 . S
C440 H459 0.913 . S
C441 H417 0.950 . S
C441 C440 1.524 . S
C441 C442 1.415 . S
C442 H418 0.950 . S
C442 C437 1.363 . S
C442 C441 1.415 . S
C443 H419 0.951 . S
C443 C444 1.366 1_655 S
C443 C445 1.388 . S
C444 C443 1.366 1_455 S
C444 C448 1.385 . S
C445 H420 0.951 . S
C445 C443 1.388 . S
C445 C446 1.366 1_655 S
C446 C445 1.366 1_455 S
C446 C447 1.414 . S
C446 C449 1.499 . S
C447 H421 0.950 . S
C447 C446 1.414 . S
C447 C448 1.374 . S
C448 H422 0.950 . S
C448 C444 1.385 . S
C448 C447 1.374 . S
C449 C446 1.499 . S
C449 C450 1.373 1_545 S
C449 C451 1.389 . S
C450 H423 0.950 . S
C450 C436 1.377 . S
C450 C449 1.373 1_565 S
C451 C435 1.377 . S
C451 C449 1.389 . S
C451 C452 1.524 . S
C452 C451 1.524 . S
C452 C453 1.397 . S
C452 C457 1.363 1_455 S
C453 H424 0.950 . S
C453 C452 1.397 . S
C453 C454 1.334 . S
C454 H425 0.950 . S
C454 C453 1.334 . S
C454 C455 1.287 . S
C455 C454 1.287 . S
C455 C456 1.524 1_455 S
C455 H458 0.999 . S
C456 H426 0.950 . S
C456 C455 1.524 1_655 S
C456 C457 1.415 . S
C457 H427 0.950 . S
C457 C452 1.363 1_655 S
C457 C456 1.415 . S
H458 C455 0.999 . S
H459 C440 0.913 . S
H460 C478 0.951 . S
H461 C480 0.951 . S
H462 C482 0.950 1_655 S
H463 C483 0.950 1_655 S
H464 C485 0.950 . S
H465 C488 0.960 . S
H466 C489 0.950 . S
H467 C491 0.950 . S
H468 C492 0.950 . S
H469 C493 0.951 . S
H470 C495 0.951 1_655 S
H471 C497 0.950 . S
H472 C498 0.950 . S
H473 C500 0.950 . S
H474 C503 0.950 . S
H475 C504 0.950 1_545 S
H476 C506 0.950 . S
H477 C507 0.950 . S
C478 H460 0.951 . S
C478 C479 1.366 . S
C478 C480 1.388 . S
C479 C478 1.366 . S
C479 C483 1.385 1_545 S
C480 H461 0.951 . S
C480 C478 1.388 . S
C480 C481 1.366 . S
C481 C480 1.366 . S
C481 C482 1.414 1_545 S
C481 C484 1.499 . S
C482 H462 0.950 1_455 S
C482 C481 1.414 1_565 S
C482 C483 1.374 . S
C483 H463 0.950 1_455 S
C483 C479 1.385 1_565 S
C483 C482 1.374 . S
C484 C481 1.499 . S
C484 C485 1.373 1_445 S
C484 C486 1.389 . S
C485 H464 0.950 . S
C485 C484 1.373 1_665 S
C485 C501 1.377 . S
C486 C484 1.389 . S
C486 C487 1.524 . S
C486 C500 1.377 . S
C487 C486 1.524 . S
C487 C488 1.397 . S
C487 C492 1.363 . S
C488 H465 0.960 . S
C488 C487 1.397 . S
C488 C489 1.334 . S
C489 H466 0.950 . S
C489 C488 1.334 . S
C489 C490 1.287 . S
C490 C489 1.287 . S
C490 C491 1.524 . S
C490 H509 0.913 . S
C491 H467 0.950 . S
C491 C490 1.524 . S
C491 C492 1.415 . S
C492 H468 0.950 . S
C492 C487 1.363 . S
C492 C491 1.415 . S
C493 H469 0.951 . S
C493 C494 1.366 1_565 S
C493 C495 1.388 . S
C494 C493 1.366 1_545 S
C494 C498 1.385 . S
C495 H470 0.951 1_455 S
C495 C493 1.388 . S
C495 C496 1.366 1_565 S
C496 C495 1.366 1_545 S
C496 C497 1.414 . S
C496 C499 1.499 . S
C497 H471 0.950 . S
C497 C496 1.414 . S
C497 C498 1.374 . S
C498 H472 0.950 . S
C498 C494 1.385 . S
C498 C497 1.374 . S
C499 C496 1.499 . S
C499 C500 1.373 . S
C499 C501 1.389 1_445 S
C500 H473 0.950 . S
C500 C486 1.377 . S
C500 C499 1.373 . S
C501 C485 1.377 . S
C501 C499 1.389 1_665 S
C501 C502 1.524 . S
C502 C501 1.524 . S
C502 C503 1.397 1_565 S
C502 C507 1.363 . S
C503 H474 0.950 . S
C503 C502 1.397 1_545 S
C503 C504 1.334 1_545 S
C504 H475 0.950 1_565 S
C504 C503 1.334 1_565 S
C504 C505 1.287 . S
C505 C504 1.287 . S
C505 C506 1.524 . S
C505 H508 0.999 . S
C506 H476 0.950 . S
C506 C505 1.524 . S
C506 C507 1.415 . S
C507 H477 0.950 . S
C507 C502 1.363 . S
C507 C506 1.415 . S
H508 C505 0.999 . S
H509 C490 0.913 . S
C79 C4 1.387 . S
C94 C2 1.384 1_554 S
C129 C29 1.084 . S
C144 C32 1.084 . S
C179 C52 1.240 . S
C194 C49 1.240 . S
C229 C44 1.548 . S
C244 C42 1.548 . S
C279 C9 1.235 . S
C294 C12 1.237 1_554 S
C329 C24 1.386 1_455 S
C344 C22 1.386 . S
C379 C38 1.490 . S
C394 C18 1.484 . S
C429 C39 1.483 . S
C444 C58 1.493 . S
C479 C59 1.491 . S
C494 C19 1.496 . S
