# Generated by pormake.
# Topology soi, (5)-cn, num edge types: 1
# Building blocks:
#     Node 0, Type 0, BuildingBlock: XOMCOT_clean_sbu_1, # of connection points: 5
#     Node 1, Type 0, BuildingBlock: XOMCOT_clean_sbu_1, # of connection points: 5
#     Node 2, Type 0, BuildingBlock: XOMCOT_clean_sbu_1, # of connection points: 5
#     Node 3, Type 0, BuildingBlock: XOMCOT_clean_sbu_1, # of connection points: 5
#     Node 4, Type 0, BuildingBlock: XOMCOT_clean_sbu_1, # of connection points: 5
#     Node 5, Type 0, BuildingBlock: XOMCOT_clean_sbu_1, # of connection points: 5
#     Node 6, Type 0, BuildingBlock: XOMCOT_clean_sbu_1, # of connection points: 5
#     Node 7, Type 0, BuildingBlock: XOMCOT_clean_sbu_1, # of connection points: 5
#     Node 8, Type 0, BuildingBlock: XOMCOT_clean_sbu_1, # of connection points: 5
#     Node 9, Type 0, BuildingBlock: XOMCOT_clean_sbu_1, # of connection points: 5
#     Node 10, Type 0, BuildingBlock: XOMCOT_clean_sbu_1, # of connection points: 5
#     Node 11, Type 0, BuildingBlock: XOMCOT_clean_sbu_1, # of connection points: 5
#     Node 12, Type 0, BuildingBlock: XOMCOT_clean_sbu_1, # of connection points: 5
#     Node 13, Type 0, BuildingBlock: XOMCOT_clean_sbu_1, # of connection points: 5
#     Node 14, Type 0, BuildingBlock: XOMCOT_clean_sbu_1, # of connection points: 5
#     Node 15, Type 0, BuildingBlock: XOMCOT_clean_sbu_1, # of connection points: 5
#     Edge 16, Type (0, 0), BuildingBlock: XUDNAN_clean_linker_2, # of connection points: 2
#     Edge 17, Type (0, 0), BuildingBlock: XUDNAN_clean_linker_2, # of connection points: 2
#     Edge 18, Type (0, 0), BuildingBlock: XUDNAN_clean_linker_2, # of connection points: 2
#     Edge 19, Type (0, 0), BuildingBlock: XUDNAN_clean_linker_2, # of connection points: 2
#     Edge 20, Type (0, 0), BuildingBlock: XUDNAN_clean_linker_2, # of connection points: 2
#     Edge 21, Type (0, 0), BuildingBlock: XUDNAN_clean_linker_2, # of connection points: 2
#     Edge 22, Type (0, 0), BuildingBlock: XUDNAN_clean_linker_2, # of connection points: 2
#     Edge 23, Type (0, 0), BuildingBlock: XUDNAN_clean_linker_2, # of connection points: 2
#     Edge 24, Type (0, 0), BuildingBlock: XUDNAN_clean_linker_2, # of connection points: 2
#     Edge 25, Type (0, 0), BuildingBlock: XUDNAN_clean_linker_2, # of connection points: 2
#     Edge 26, Type (0, 0), BuildingBlock: XUDNAN_clean_linker_2, # of connection points: 2
#     Edge 27, Type (0, 0), BuildingBlock: XUDNAN_clean_linker_2, # of connection points: 2
#     Edge 28, Type (0, 0), BuildingBlock: XUDNAN_clean_linker_2, # of connection points: 2
#     Edge 29, Type (0, 0), BuildingBlock: XUDNAN_clean_linker_2, # of connection points: 2
#     Edge 30, Type (0, 0), BuildingBlock: XUDNAN_clean_linker_2, # of connection points: 2
#     Edge 31, Type (0, 0), BuildingBlock: XUDNAN_clean_linker_2, # of connection points: 2
#     Edge 32, Type (0, 0), BuildingBlock: XUDNAN_clean_linker_2, # of connection points: 2
#     Edge 33, Type (0, 0), BuildingBlock: XUDNAN_clean_linker_2, # of connection points: 2
#     Edge 34, Type (0, 0), BuildingBlock: XUDNAN_clean_linker_2, # of connection points: 2
#     Edge 35, Type (0, 0), BuildingBlock: XUDNAN_clean_linker_2, # of connection points: 2
#     Edge 36, Type (0, 0), BuildingBlock: XUDNAN_clean_linker_2, # of connection points: 2
#     Edge 37, Type (0, 0), BuildingBlock: XUDNAN_clean_linker_2, # of connection points: 2
#     Edge 38, Type (0, 0), BuildingBlock: XUDNAN_clean_linker_2, # of connection points: 2
#     Edge 39, Type (0, 0), BuildingBlock: XUDNAN_clean_linker_2, # of connection points: 2
#     Edge 40, Type (0, 0), BuildingBlock: XUDNAN_clean_linker_2, # of connection points: 2
#     Edge 41, Type (0, 0), BuildingBlock: XUDNAN_clean_linker_2, # of connection points: 2
#     Edge 42, Type (0, 0), BuildingBlock: XUDNAN_clean_linker_2, # of connection points: 2
#     Edge 43, Type (0, 0), BuildingBlock: XUDNAN_clean_linker_2, # of connection points: 2
#     Edge 44, Type (0, 0), BuildingBlock: XUDNAN_clean_linker_2, # of connection points: 2
#     Edge 45, Type (0, 0), BuildingBlock: XUDNAN_clean_linker_2, # of connection points: 2
#     Edge 46, Type (0, 0), BuildingBlock: XUDNAN_clean_linker_2, # of connection points: 2
#     Edge 47, Type (0, 0), BuildingBlock: XUDNAN_clean_linker_2, # of connection points: 2
#     Edge 48, Type (0, 0), BuildingBlock: XUDNAN_clean_linker_2, # of connection points: 2
#     Edge 49, Type (0, 0), BuildingBlock: XUDNAN_clean_linker_2, # of connection points: 2
#     Edge 50, Type (0, 0), BuildingBlock: XUDNAN_clean_linker_2, # of connection points: 2
#     Edge 51, Type (0, 0), BuildingBlock: XUDNAN_clean_linker_2, # of connection points: 2
#     Edge 52, Type (0, 0), BuildingBlock: XUDNAN_clean_linker_2, # of connection points: 2
#     Edge 53, Type (0, 0), BuildingBlock: XUDNAN_clean_linker_2, # of connection points: 2
#     Edge 54, Type (0, 0), BuildingBlock: XUDNAN_clean_linker_2, # of connection points: 2
#     Edge 55, Type (0, 0), BuildingBlock: XUDNAN_clean_linker_2, # of connection points: 2
# Relax obj value: 0.119
# Max RMSD: 0.164
# Mean RMSD: 0.164
data_MOF--net-soi--node1-XOMCOT_clean_sbu_1--edge1-XUDNAN_clean_linker_2
_symmetry_space_group_name_H-M    P1
_symmetry_Int_Tables_number       1
_symmetry_cell_setting            triclinic
loop_
_symmetry_equiv_pos_as_xyz
'x, y, z'
_cell_length_a     47.145826
_cell_length_b     25.853114
_cell_length_c     66.220458
_cell_angle_alpha  89.929418
_cell_angle_beta   89.956079
_cell_angle_gamma 90.175594
loop_
_atom_site_label
_atom_site_type_symbol
_atom_site_fract_x
_atom_site_fract_y
_atom_site_fract_z
_atom_type_partial_charge
C0 C 0.35105 0.04061 0.10692 0.0
C1 C 0.34472 0.04832 0.08677 0.0
N2 N 0.3207 0.07631 0.08562 0.0
N3 N 0.33108 0.06359 0.11837 0.0
C4 C 0.3129 0.08478 0.10496 0.0
H5 H 0.36851 0.0182 0.11284 0.0
Co6 Co 0.32623 0.05895 0.14629 0.0
C7 C 0.29995 0.15931 0.15822 0.0
O8 O 0.3135 0.15921 0.17555 0.0
N9 N 0.32014 0.0527 0.17457 0.0
C10 C 0.29534 0.04867 0.20325 0.0
C11 C 0.29395 0.05671 0.18281 0.0
C12 C 0.33698 0.03977 0.19041 0.0
N13 N 0.32234 0.03798 0.20797 0.0
O14 O 0.29359 0.01663 0.14188 0.0
H15 H 0.27483 0.06503 0.17441 0.0
H16 H 0.35931 0.03109 0.18927 0.0
O17 O 0.30337 0.12236 0.14562 0.0
C18 C 0.30098 0.96948 0.1436 0.0
O19 O 0.32765 0.95933 0.14778 0.0
N20 N 0.36014 0.09623 0.15001 0.0
C21 C 0.41511 0.13737 0.15257 0.0
C22 C 0.3919 0.16881 0.14743 0.0
C23 C 0.36479 0.14722 0.14563 0.0
C24 C 0.38244 0.06483 0.15439 0.0
C25 C 0.40996 0.08445 0.15583 0.0
H26 H 0.34802 0.17148 0.14004 0.0
H27 H 0.37888 0.02374 0.15621 0.0
H28 H 0.29338 0.10374 0.10924 0.0
H29 H 0.35661 0.03387 0.07398 0.0
H30 H 0.27778 0.04914 0.2138 0.0
H31 H 0.39452 0.20974 0.14455 0.0
H32 H 0.42709 0.0578 0.1589 0.0
C33 C 0.65784 0.44031 0.10419 0.0
C34 C 0.67301 0.43574 0.0865 0.0
N35 N 0.70091 0.43601 0.091 0.0
N36 N 0.67602 0.44291 0.11985 0.0
C37 C 0.70205 0.44015 0.11137 0.0
H38 H 0.63506 0.44378 0.10548 0.0
Co39 Co 0.66684 0.45784 0.1467 0.0
C40 C 0.6953 0.36838 0.16708 0.0
O41 O 0.67227 0.35763 0.17751 0.0
N42 N 0.65756 0.47612 0.17352 0.0
C43 C 0.63695 0.52395 0.19727 0.0
C44 C 0.63838 0.51364 0.17699 0.0
C45 C 0.66863 0.46613 0.19205 0.0
N46 N 0.65602 0.49405 0.20685 0.0
O47 O 0.69412 0.51334 0.14662 0.0
H48 H 0.62667 0.53364 0.16534 0.0
H49 H 0.68667 0.44145 0.19465 0.0
O50 O 0.69593 0.40812 0.1555 0.0
C51 C 0.68611 0.55295 0.13668 0.0
O52 O 0.6616 0.55163 0.12728 0.0
N53 N 0.63829 0.40553 0.14607 0.0
C54 C 0.59428 0.333 0.14597 0.0
C55 C 0.62183 0.31846 0.14054 0.0
C56 C 0.64337 0.35579 0.13999 0.0
C57 C 0.6111 0.42077 0.14977 0.0
C58 C 0.58883 0.38511 0.15001 0.0
H59 H 0.66423 0.34446 0.13492 0.0
H60 H 0.60629 0.46087 0.15231 0.0
H61 H 0.72146 0.44301 0.12001 0.0
H62 H 0.66413 0.43517 0.07144 0.0
H63 H 0.62303 0.55182 0.20429 0.0
H64 H 0.6266 0.27878 0.13659 0.0
H65 H 0.56762 0.39806 0.15369 0.0
C66 C 0.34299 0.94721 0.4552 0.0
C67 C 0.32807 0.9432 0.47291 0.0
N68 N 0.30014 0.93997 0.46856 0.0
N69 N 0.32487 0.94522 0.4395 0.0
C70 C 0.29889 0.94101 0.44808 0.0
H71 H 0.36564 0.95315 0.45386 0.0
Co72 Co 0.3352 0.95912 0.41262 0.0
C73 C 0.31792 0.86389 0.39159 0.0
O74 O 0.34322 0.86463 0.38321 0.0
N75 N 0.34556 0.97799 0.38591 0.0
C76 C 0.36387 0.03101 0.3626 0.0
C77 C 0.36191 0.02035 0.38288 0.0
C78 C 0.33673 0.96512 0.36703 0.0
N79 N 0.34822 0.99588 0.35267 0.0
O80 O 0.30501 0.00851 0.41081 0.0
H81 H 0.37141 0.04295 0.39484 0.0
H82 H 0.32096 0.93602 0.36369 0.0
O83 O 0.31052 0.90132 0.40318 0.0
C84 C 0.31225 0.05004 0.41985 0.0
O85 O 0.33705 0.05157 0.4289 0.0
N86 N 0.36658 0.91283 0.41529 0.0
C87 C 0.41315 0.8486 0.42221 0.0
C88 C 0.38588 0.83289 0.42786 0.0
C89 C 0.36293 0.86551 0.42432 0.0
C90 C 0.39326 0.92912 0.41027 0.0
C91 C 0.41676 0.89716 0.4132 0.0
H92 H 0.34212 0.85295 0.42918 0.0
H93 H 0.39684 0.96748 0.40451 0.0
H94 H 0.27947 0.942 0.43942 0.0
H95 H 0.33734 0.94421 0.48782 0.0
H96 H 0.37582 0.06214 0.35566 0.0
H97 H 0.38233 0.79575 0.43503 0.0
H98 H 0.4377 0.91107 0.40914 0.0
C99 C 0.64784 0.49912 0.45115 0.0
C100 C 0.65509 0.49432 0.47118 0.0
N101 N 0.6806 0.51696 0.47403 0.0
N102 N 0.66857 0.52485 0.44137 0.0
C103 C 0.6884 0.53481 0.45563 0.0
H104 H 0.62856 0.48521 0.44415 0.0
Co105 Co 0.66789 0.54203 0.41399 0.0
C106 C 0.71618 0.61498 0.41269 0.0
O107 O 0.73077 0.58383 0.40099 0.0
N108 N 0.66748 0.55916 0.38641 0.0
C109 C 0.66628 0.60481 0.358 0.0
C110 C 0.66603 0.60739 0.3787 0.0
C111 C 0.66845 0.52782 0.37006 0.0
N112 N 0.66774 0.5547 0.35246 0.0
O113 O 0.69961 0.49806 0.40965 0.0
H114 H 0.66483 0.64239 0.38759 0.0
H115 H 0.66931 0.4861 0.37109 0.0
O116 O 0.69179 0.60135 0.41905 0.0
C117 C 0.69425 0.44979 0.41041 0.0
O118 O 0.66809 0.43449 0.41386 0.0
N119 N 0.63565 0.58277 0.41835 0.0
C120 C 0.58599 0.63831 0.42472 0.0
C121 C 0.61015 0.64821 0.43639 0.0
C122 C 0.63487 0.62007 0.43293 0.0
C123 C 0.6121 0.57173 0.4072 0.0
C124 C 0.58712 0.59975 0.4099 0.0
H125 H 0.65319 0.62752 0.44228 0.0
H126 H 0.61271 0.54097 0.39615 0.0
H127 H 0.70786 0.5558 0.45269 0.0
H128 H 0.64251 0.47542 0.48271 0.0
H129 H 0.66582 0.63766 0.34788 0.0
H130 H 0.60995 0.67756 0.44806 0.0
H131 H 0.56866 0.5906 0.40083 0.0
C132 C 0.64609 0.9587 0.94821 0.0
C133 C 0.65655 0.96874 0.96732 0.0
N134 N 0.68489 0.97424 0.96596 0.0
N135 N 0.66787 0.95727 0.93496 0.0
C136 C 0.69113 0.96702 0.94628 0.0
H137 H 0.62408 0.95253 0.94429 0.0
Co138 Co 0.66858 0.94281 0.90711 0.0
C139 C 0.72131 0.87988 0.90544 0.0
O140 O 0.73251 0.90895 0.89121 0.0
N141 N 0.67016 0.92678 0.87922 0.0
C142 C 0.67341 0.87771 0.85175 0.0
C143 C 0.6704 0.87764 0.87229 0.0
C144 C 0.67276 0.9563 0.86231 0.0
N145 N 0.67502 0.92704 0.84537 0.0
O146 O 0.69653 0.99643 0.90366 0.0
H147 H 0.66917 0.84347 0.88168 0.0
H148 H 0.67402 0.99811 0.86245 0.0
O149 O 0.69695 0.89081 0.91253 0.0
C150 C 0.68398 0.03995 0.90495 0.0
O151 O 0.65615 0.04016 0.90624 0.0
N152 N 0.63932 0.89415 0.91042 0.0
C153 C 0.59366 0.82592 0.91028 0.0
C154 C 0.61881 0.81291 0.92026 0.0
C155 C 0.64139 0.84809 0.92044 0.0
C156 C 0.61451 0.90822 0.90144 0.0
C157 C 0.59133 0.87453 0.90116 0.0
H158 H 0.66054 0.83782 0.9283 0.0
H159 H 0.61308 0.94528 0.89391 0.0
H160 H 0.71245 0.96819 0.94021 0.0
H161 H 0.64428 0.97264 0.98106 0.0
H162 H 0.67466 0.84387 0.84217 0.0
H163 H 0.6211 0.77561 0.92754 0.0
H164 H 0.57213 0.88557 0.8933 0.0
C165 C 0.35077 0.49604 0.939 0.0
C166 C 0.34357 0.49176 0.95907 0.0
N167 N 0.31813 0.5143 0.9619 0.0
N168 N 0.33012 0.52152 0.92912 0.0
C169 C 0.31033 0.53171 0.94344 0.0
H170 H 0.36987 0.48134 0.93205 0.0
Co171 Co 0.33028 0.53748 0.90147 0.0
C172 C 0.28631 0.61894 0.89947 0.0
O173 O 0.2735 0.59646 0.88419 0.0
N174 N 0.33055 0.55368 0.87372 0.0
C175 C 0.33347 0.59866 0.8452 0.0
C176 C 0.33387 0.60146 0.86587 0.0
C177 C 0.32856 0.52224 0.8574 0.0
N178 N 0.33026 0.54875 0.83972 0.0
O179 O 0.29685 0.49657 0.89794 0.0
H180 H 0.33632 0.63648 0.87461 0.0
H181 H 0.32636 0.48069 0.85854 0.0
O182 O 0.30827 0.59847 0.90725 0.0
C183 C 0.30232 0.44833 0.89852 0.0
O184 O 0.32869 0.43366 0.90131 0.0
N185 N 0.36434 0.57396 0.90463 0.0
C186 C 0.41847 0.61852 0.90459 0.0
C187 C 0.3947 0.64674 0.91116 0.0
C188 C 0.36782 0.62354 0.91131 0.0
C189 C 0.38711 0.54555 0.89874 0.0
C190 C 0.41432 0.56672 0.89885 0.0
H191 H 0.34993 0.64612 0.91629 0.0
H192 H 0.38397 0.50612 0.89374 0.0
H193 H 0.29079 0.55218 0.94045 0.0
H194 H 0.35604 0.47295 0.97065 0.0
H195 H 0.33512 0.6314 0.83509 0.0
H196 H 0.39656 0.68686 0.91561 0.0
H197 H 0.43188 0.54248 0.89432 0.0
C198 C 0.65112 0.01037 0.60226 0.0
C199 C 0.66063 0.01301 0.58262 0.0
N200 N 0.68689 0.03362 0.58267 0.0
N201 N 0.67107 0.03022 0.61462 0.0
C202 C 0.69285 0.04344 0.60225 0.0
H203 H 0.63055 0.99664 0.60719 0.0
Co204 Co 0.66694 0.04033 0.64253 0.0
C205 C 0.71185 0.11704 0.64987 0.0
O206 O 0.72495 0.0855 0.6623 0.0
N207 N 0.66327 0.05068 0.6707 0.0
C208 C 0.6576 0.08883 0.70057 0.0
C209 C 0.65662 0.09555 0.67997 0.0
C210 C 0.66825 0.01727 0.68606 0.0
N211 N 0.66506 0.03957 0.70446 0.0
O212 O 0.69946 0.99833 0.6469 0.0
H213 H 0.65202 0.13141 0.67221 0.0
H214 H 0.67443 0.97745 0.68379 0.0
O215 O 0.6894 0.10237 0.6409 0.0
C216 C 0.69521 0.95009 0.64438 0.0
O217 O 0.66967 0.93413 0.63941 0.0
N218 N 0.63401 0.07915 0.63784 0.0
C219 C 0.58353 0.13064 0.6299 0.0
C220 C 0.60864 0.14563 0.62024 0.0
C221 C 0.63376 0.11952 0.6245 0.0
C222 C 0.60958 0.06331 0.64703 0.0
C223 C 0.58409 0.08927 0.64356 0.0
H224 H 0.65285 0.13076 0.61658 0.0
H225 H 0.60988 0.03028 0.65707 0.0
H226 H 0.71215 0.06201 0.60736 0.0
H227 H 0.64893 0.00171 0.56926 0.0
H228 H 0.65415 0.11856 0.71179 0.0
H229 H 0.60881 0.17723 0.60948 0.0
H230 H 0.5649 0.07639 0.65106 0.0
C231 C 0.34195 0.44598 0.59102 0.0
C232 C 0.32773 0.44178 0.57303 0.0
N233 N 0.29983 0.43531 0.57688 0.0
N234 N 0.32345 0.44102 0.60641 0.0
C235 C 0.29789 0.43487 0.59736 0.0
H236 H 0.36438 0.45364 0.59279 0.0
Co237 Co 0.33329 0.4528 0.63352 0.0
C238 C 0.3167 0.35777 0.65454 0.0
O239 O 0.34149 0.36086 0.66356 0.0
N240 N 0.34314 0.46982 0.66066 0.0
C241 C 0.36271 0.51772 0.68495 0.0
C242 C 0.36218 0.50752 0.66466 0.0
C243 C 0.33096 0.46032 0.67895 0.0
N244 N 0.34304 0.48799 0.69408 0.0
O245 O 0.30265 0.50042 0.63568 0.0
H246 H 0.37408 0.52858 0.65336 0.0
H247 H 0.31256 0.43587 0.68107 0.0
O248 O 0.3091 0.39399 0.64242 0.0
C249 C 0.3102 0.54578 0.63034 0.0
O250 O 0.3363 0.55296 0.62392 0.0
N251 N 0.36496 0.40689 0.63048 0.0
C252 C 0.4109 0.34047 0.62451 0.0
C253 C 0.38362 0.32577 0.61855 0.0
C254 C 0.361 0.35955 0.62157 0.0
C255 C 0.39182 0.42263 0.63525 0.0
C256 C 0.41496 0.38958 0.63287 0.0
H257 H 0.34016 0.34758 0.6166 0.0
H258 H 0.39594 0.46121 0.64039 0.0
H259 H 0.27818 0.43286 0.6057 0.0
H260 H 0.33744 0.44439 0.55826 0.0
H261 H 0.37629 0.54577 0.69228 0.0
H262 H 0.37977 0.28836 0.61171 0.0
H263 H 0.43599 0.40291 0.63696 0.0
C264 C 0.84942 0.52382 0.606 0.0
C265 C 0.83629 0.52332 0.58732 0.0
N266 N 0.80987 0.5426 0.58942 0.0
N267 N 0.83143 0.54381 0.61973 0.0
C268 C 0.80781 0.55534 0.60915 0.0
H269 H 0.86989 0.50743 0.60959 0.0
Co270 Co 0.83272 0.54231 0.64786 0.0
C271 C 0.8177 0.64675 0.66075 0.0
O272 O 0.83853 0.64236 0.67382 0.0
N273 N 0.83181 0.53961 0.67678 0.0
C274 C 0.80926 0.54396 0.70635 0.0
C275 C 0.80648 0.54743 0.68591 0.0
C276 C 0.84972 0.5299 0.69247 0.0
N277 N 0.83645 0.53323 0.71058 0.0
O278 O 0.79886 0.50176 0.64756 0.0
H279 H 0.78686 0.55573 0.67812 0.0
H280 H 0.87193 0.52087 0.69096 0.0
O281 O 0.81178 0.60878 0.64898 0.0
C282 C 0.80666 0.45482 0.6492 0.0
O283 O 0.83391 0.44511 0.65096 0.0
N284 N 0.86778 0.57724 0.64723 0.0
C285 C 0.92101 0.62387 0.64831 0.0
C286 C 0.89838 0.64813 0.63843 0.0
C287 C 0.87199 0.62357 0.63768 0.0
C288 C 0.89039 0.55046 0.65451 0.0
C289 C 0.91708 0.57364 0.65581 0.0
H290 H 0.85481 0.64228 0.62975 0.0
H291 H 0.88764 0.51094 0.65948 0.0
H292 H 0.78877 0.56997 0.61621 0.0
H293 H 0.84481 0.50654 0.57365 0.0
H294 H 0.79235 0.54813 0.7173 0.0
H295 H 0.90079 0.68631 0.63188 0.0
H296 H 0.93444 0.55257 0.66262 0.0
C297 C 0.1405 0.98777 0.60824 0.0
C298 C 0.14544 0.98977 0.58772 0.0
N299 N 0.17218 0.97374 0.58423 0.0
N300 N 0.16392 0.97008 0.6176 0.0
C301 C 0.18293 0.96247 0.60261 0.0
H302 H 0.12089 0.99744 0.61583 0.0
Co303 Co 0.16824 0.95545 0.64506 0.0
C304 C 0.21757 0.88451 0.64025 0.0
O305 O 0.23587 0.9187 0.64705 0.0
N306 N 0.17298 0.93983 0.67258 0.0
C307 C 0.17728 0.89349 0.70065 0.0
C308 C 0.17503 0.89143 0.68007 0.0
C309 C 0.17381 0.97084 0.68906 0.0
N310 N 0.17631 0.9434 0.70646 0.0
O311 O 0.20014 0.00114 0.64617 0.0
H312 H 0.17433 0.85641 0.67118 0.0
H313 H 0.17186 0.01248 0.68828 0.0
O314 O 0.19151 0.89642 0.63844 0.0
C315 C 0.19475 0.04931 0.64477 0.0
O316 O 0.16838 0.06405 0.64205 0.0
N317 N 0.13589 0.91334 0.64434 0.0
C318 C 0.0888 0.84914 0.64799 0.0
C319 C 0.10936 0.83943 0.63319 0.0
C320 C 0.13291 0.87214 0.63161 0.0
C321 C 0.115 0.92548 0.65774 0.0
C322 C 0.09146 0.8933 0.66007 0.0
H323 H 0.14893 0.8639 0.6204 0.0
H324 H 0.11718 0.95929 0.66722 0.0
H325 H 0.20402 0.94739 0.60508 0.0
H326 H 0.13047 0.00191 0.57629 0.0
H327 H 0.17946 0.86037 0.71051 0.0
H328 H 0.10778 0.80587 0.62347 0.0
H329 H 0.07566 0.90244 0.67139 0.0
C330 C 0.86446 0.44352 0.95225 0.0
C331 C 0.85909 0.4429 0.97265 0.0
N332 N 0.8308 0.43953 0.9755 0.0
N333 N 0.83976 0.43984 0.94215 0.0
C334 C 0.81961 0.43751 0.95669 0.0
H335 H 0.88507 0.44768 0.94525 0.0
Co336 Co 0.83534 0.44496 0.91426 0.0
C337 C 0.80152 0.35429 0.90222 0.0
O338 O 0.81856 0.35 0.8866 0.0
N339 N 0.83012 0.45233 0.8859 0.0
C340 C 0.80602 0.46944 0.85773 0.0
C341 C 0.80398 0.45982 0.87801 0.0
C342 C 0.84781 0.45772 0.8698 0.0
N343 N 0.83356 0.46813 0.85258 0.0
O344 O 0.80818 0.49905 0.9184 0.0
H345 H 0.78447 0.45929 0.88661 0.0
H346 H 0.87063 0.45646 0.87055 0.0
O347 O 0.80523 0.39131 0.91488 0.0
C348 C 0.81753 0.5441 0.91415 0.0
O349 O 0.84362 0.54891 0.9074 0.0
N350 N 0.86398 0.39477 0.91092 0.0
C351 C 0.91 0.32825 0.9073 0.0
C352 C 0.88451 0.31077 0.91571 0.0
C353 C 0.86207 0.34523 0.91811 0.0
C354 C 0.88941 0.41321 0.90418 0.0
C355 C 0.91269 0.38041 0.902 0.0
H356 H 0.84348 0.33211 0.92615 0.0
H357 H 0.89182 0.45397 0.90093 0.0
H358 H 0.79711 0.43677 0.95347 0.0
H359 H 0.87492 0.44545 0.98442 0.0
H360 H 0.78861 0.47726 0.84753 0.0
H361 H 0.88225 0.27121 0.9209 0.0
H362 H 0.93253 0.39557 0.89618 0.0
C363 C 0.16004 0.06413 0.95332 0.0
C364 C 0.17237 0.0802 0.97101 0.0
N365 N 0.20016 0.08786 0.96757 0.0
N366 N 0.17982 0.06286 0.93856 0.0
C367 C 0.20429 0.07686 0.94784 0.0
H368 H 0.13808 0.05297 0.95147 0.0
Co369 Co 0.17336 0.03941 0.91211 0.0
C370 C 0.18625 0.13357 0.88798 0.0
O371 O 0.16279 0.12597 0.87766 0.0
N372 N 0.16721 0.01253 0.88584 0.0
C373 C 0.15249 0.95637 0.86258 0.0
C374 C 0.15223 0.96871 0.88272 0.0
C375 C 0.17816 0.02368 0.86736 0.0
N376 N 0.16868 0.99131 0.85279 0.0
O377 O 0.20753 0.00024 0.9129 0.0
H378 H 0.14241 0.94585 0.89449 0.0
H379 H 0.19384 0.05338 0.86465 0.0
O380 O 0.19365 0.10076 0.90153 0.0
C381 C 0.20521 0.9595 0.9236 0.0
O382 O 0.18166 0.95129 0.93373 0.0
N383 N 0.13809 0.07513 0.91183 0.0
C384 C 0.08472 0.12192 0.90977 0.0
C385 C 0.10911 0.15134 0.91398 0.0
C386 C 0.13541 0.12691 0.91564 0.0
C387 C 0.1143 0.04551 0.90988 0.0
C388 C 0.08754 0.068 0.90861 0.0
H389 H 0.15372 0.14993 0.91966 0.0
H390 H 0.11577 0.00404 0.90974 0.0
H391 H 0.22472 0.07816 0.94039 0.0
H392 H 0.16198 0.08419 0.98551 0.0
H393 H 0.14152 0.92398 0.85579 0.0
H394 H 0.10817 0.19293 0.91562 0.0
H395 H 0.06923 0.04304 0.90687 0.0
C396 C 0.14167 0.47467 0.4361 0.0
C397 C 0.1467 0.47124 0.45655 0.0
N398 N 0.17394 0.45721 0.45936 0.0
N399 N 0.16551 0.46232 0.42598 0.0
C400 C 0.1849 0.45242 0.44056 0.0
H401 H 0.12184 0.48529 0.42904 0.0
Co402 Co 0.16981 0.45991 0.39787 0.0
C403 C 0.19884 0.35969 0.39095 0.0
O404 O 0.18246 0.35093 0.37525 0.0
N405 N 0.17517 0.45906 0.36925 0.0
C406 C 0.19913 0.46023 0.34012 0.0
C407 C 0.20102 0.45359 0.36065 0.0
C408 C 0.15807 0.47072 0.35338 0.0
N409 N 0.17204 0.47113 0.33545 0.0
O410 O 0.20067 0.50816 0.39956 0.0
H411 H 0.22045 0.44696 0.36892 0.0
H412 H 0.13603 0.48064 0.3548 0.0
O413 O 0.19614 0.40176 0.40095 0.0
C414 C 0.19571 0.55553 0.40353 0.0
O415 O 0.16975 0.56955 0.40815 0.0
N416 N 0.13807 0.41472 0.39648 0.0
C417 C 0.08906 0.35436 0.39394 0.0
C418 C 0.1126 0.33669 0.40475 0.0
C419 C 0.13683 0.36785 0.4061 0.0
C420 C 0.11414 0.43452 0.38793 0.0
C421 C 0.08972 0.40431 0.3858 0.0
H422 H 0.15433 0.35445 0.41519 0.0
H423 H 0.11373 0.47443 0.38317 0.0
H424 H 0.20656 0.4413 0.43743 0.0
H425 H 0.13154 0.47913 0.46842 0.0
H426 H 0.21673 0.45964 0.32963 0.0
H427 H 0.11236 0.29899 0.41191 0.0
H428 H 0.07132 0.42014 0.37822 0.0
C429 C 0.85456 0.04601 0.45014 0.0
C430 C 0.84353 0.05235 0.46936 0.0
N431 N 0.816 0.06601 0.46774 0.0
N432 N 0.8341 0.05587 0.43648 0.0
C433 C 0.81105 0.06792 0.44764 0.0
H434 H 0.87571 0.03301 0.44641 0.0
Co435 Co 0.83302 0.04497 0.40857 0.0
C436 C 0.81203 0.14156 0.39155 0.0
O437 O 0.83105 0.13502 0.37726 0.0
N438 N 0.82958 0.03244 0.38002 0.0
C439 C 0.80406 0.0185 0.3521 0.0
C440 C 0.80303 0.02935 0.37225 0.0
C441 C 0.84655 0.02374 0.36369 0.0
N442 N 0.83136 0.015 0.34667 0.0
O443 O 0.80117 0.00022 0.41277 0.0
H444 H 0.78371 0.0355 0.3807 0.0
H445 H 0.86941 0.02325 0.36397 0.0
O446 O 0.80912 0.10718 0.40539 0.0
C447 C 0.81027 0.9539 0.41339 0.0
O448 O 0.83768 0.94615 0.41142 0.0
N449 N 0.86646 0.08488 0.40553 0.0
C450 C 0.91761 0.13774 0.40043 0.0
C451 C 0.89468 0.16164 0.41006 0.0
C452 C 0.86934 0.13422 0.41274 0.0
C453 C 0.8896 0.05945 0.39831 0.0
C454 C 0.91514 0.08563 0.39493 0.0
H455 H 0.85201 0.15278 0.42055 0.0
H456 H 0.8882 0.01857 0.39506 0.0
H457 H 0.79042 0.07468 0.44102 0.0
H458 H 0.85478 0.04607 0.48338 0.0
H459 H 0.78608 0.01455 0.34204 0.0
H460 H 0.89613 0.20142 0.41509 0.0
H461 H 0.93286 0.06526 0.38826 0.0
C462 C 0.14725 0.51886 0.09317 0.0
C463 C 0.16176 0.51248 0.07522 0.0
N464 N 0.1883 0.53124 0.07751 0.0
N465 N 0.16446 0.54196 0.10669 0.0
C466 C 0.18924 0.54887 0.09674 0.0
H467 H 0.12571 0.50673 0.09629 0.0
Co468 Co 0.1574 0.55764 0.13381 0.0
C469 C 0.20119 0.63603 0.14098 0.0
O470 O 0.21253 0.60603 0.15479 0.0
N471 N 0.1508 0.57406 0.16134 0.0
C472 C 0.13909 0.62083 0.18827 0.0
C473 C 0.14347 0.62175 0.16781 0.0
C474 C 0.15104 0.54482 0.17839 0.0
N475 N 0.14383 0.57249 0.19497 0.0
O476 O 0.19002 0.51813 0.14072 0.0
H477 H 0.1411 0.65524 0.15815 0.0
H478 H 0.15571 0.50393 0.17871 0.0
O479 O 0.17952 0.62061 0.13118 0.0
C480 C 0.18495 0.47053 0.14402 0.0
O481 O 0.15856 0.45417 0.14418 0.0
N482 N 0.12431 0.59309 0.12653 0.0
C483 C 0.07328 0.64303 0.11844 0.0
C484 C 0.09847 0.65915 0.10901 0.0
C485 C 0.12387 0.6336 0.11328 0.0
C486 C 0.0998 0.57522 0.13499 0.0
C487 C 0.07409 0.60019 0.13142 0.0
H488 H 0.14315 0.64633 0.10595 0.0
H489 H 0.10035 0.54204 0.14495 0.0
H490 H 0.20775 0.5662 0.10363 0.0
H491 H 0.15361 0.49402 0.06175 0.0
H492 H 0.13298 0.65336 0.19758 0.0
H493 H 0.09862 0.69189 0.09879 0.0
H494 H 0.05499 0.58603 0.13869 0.0
C495 C 0.84656 0.99798 0.10446 0.0
C496 C 0.83837 0.00892 0.08503 0.0
N497 N 0.8104 0.99868 0.08317 0.0
N498 N 0.82402 0.98051 0.11494 0.0
C499 C 0.80222 0.98139 0.10161 0.0
H500 H 0.86771 0.00206 0.11059 0.0
Co501 Co 0.82551 0.96075 0.14206 0.0
C502 C 0.77338 0.8968 0.14714 0.0
O503 O 0.7664 0.92044 0.16397 0.0
N504 N 0.82744 0.94093 0.16941 0.0
C505 C 0.82967 0.89257 0.19716 0.0
C506 C 0.82605 0.89205 0.17659 0.0
C507 C 0.83264 0.97037 0.18591 0.0
N508 N 0.8339 0.94182 0.20302 0.0
O509 O 0.7993 0.01541 0.14857 0.0
H510 H 0.82305 0.85795 0.16738 0.0
H511 H 0.83553 0.01187 0.18542 0.0
O512 O 0.79534 0.91109 0.13736 0.0
C513 C 0.81322 0.0578 0.14937 0.0
O514 O 0.84088 0.05579 0.14695 0.0
N515 N 0.85275 0.91075 0.13561 0.0
C516 C 0.8975 0.84494 0.12603 0.0
C517 C 0.87096 0.83894 0.11673 0.0
C518 C 0.84875 0.87231 0.12176 0.0
C519 C 0.87852 0.91763 0.14453 0.0
C520 C 0.90108 0.88471 0.14017 0.0
H521 H 0.82863 0.86808 0.11412 0.0
H522 H 0.88164 0.9493 0.15496 0.0
H523 H 0.78076 0.97015 0.10546 0.0
H524 H 0.85222 0.02257 0.07312 0.0
H525 H 0.82992 0.85909 0.207 0.0
H526 H 0.86744 0.80885 0.10563 0.0
H527 H 0.9214 0.89128 0.14738 0.0
H528 H 0.3082 0.87079 0.15655 0.0
H529 H 0.24809 0.97025 0.12582 0.0
H530 H 0.21589 0.89503 0.12107 0.0
H531 H 0.29872 0.75902 0.12606 0.0
H532 H 0.3019 0.71436 0.14686 0.0
H533 H 0.31975 0.77598 0.14781 0.0
H534 H 0.29465 0.79706 0.18166 0.0
H535 H 0.27688 0.73535 0.18089 0.0
H536 H 0.2565 0.79395 0.18309 0.0
H537 H 0.19132 0.807 0.11883 0.0
H538 H 0.17483 0.71639 0.12149 0.0
H539 H 0.25117 0.67697 0.15463 0.0
C540 C 0.28826 0.87694 0.14881 0.0
C541 C 0.28066 0.92624 0.14143 0.0
C542 C 0.25425 0.93273 0.13161 0.0
C543 C 0.23594 0.89024 0.12879 0.0
C544 C 0.24433 0.84191 0.13607 0.0
C545 C 0.26977 0.83535 0.14607 0.0
C546 C 0.27384 0.77998 0.15283 0.0
C547 C 0.30011 0.75593 0.14278 0.0
C548 C 0.27556 0.77639 0.17599 0.0
C549 C 0.24678 0.75598 0.14495 0.0
C550 C 0.23007 0.79212 0.13522 0.0
C551 C 0.20421 0.77853 0.12649 0.0
C552 C 0.1951 0.72688 0.128 0.0
C553 C 0.21172 0.68957 0.13828 0.0
C554 C 0.23793 0.70454 0.14674 0.0
H555 H 0.70216 0.61934 0.16679 0.0
H556 H 0.7074 0.59358 0.10229 0.0
H557 H 0.73048 0.67901 0.09788 0.0
H558 H 0.68329 0.75125 0.16327 0.0
H559 H 0.70314 0.77204 0.18507 0.0
H560 H 0.69003 0.70664 0.18365 0.0
H561 H 0.74084 0.67126 0.18889 0.0
H562 H 0.75405 0.73656 0.19067 0.0
H563 H 0.76901 0.69271 0.17244 0.0
H564 H 0.75155 0.76803 0.10035 0.0
H565 H 0.76958 0.85476 0.10953 0.0
H566 H 0.74768 0.8259 0.17219 0.0
C567 C 0.709 0.6313 0.15187 0.0
C568 C 0.70378 0.59974 0.13489 0.0
C569 C 0.71181 0.61711 0.11545 0.0
C570 C 0.72479 0.66554 0.11283 0.0
C571 C 0.7291 0.69648 0.12978 0.0
C572 C 0.72151 0.68012 0.14894 0.0
C573 C 0.72694 0.72228 0.16441 0.0
C574 C 0.69919 0.73903 0.1747 0.0
C575 C 0.74903 0.70465 0.18002 0.0
C576 C 0.73864 0.76485 0.15095 0.0
C577 C 0.73992 0.74895 0.13105 0.0
C578 C 0.75057 0.78097 0.11587 0.0
C579 C 0.76066 0.83021 0.1212 0.0
C580 C 0.75966 0.84732 0.14149 0.0
C581 C 0.74816 0.81431 0.15649 0.0
H582 H 0.27089 0.07912 0.39252 0.0
H583 H 0.31429 0.12794 0.44708 0.0
H584 H 0.28947 0.21148 0.44586 0.0
H585 H 0.27458 0.20016 0.36767 0.0
H586 H 0.24001 0.19606 0.35616 0.0
H587 H 0.25925 0.13787 0.36202 0.0
H588 H 0.21693 0.10439 0.38339 0.0
H589 H 0.19742 0.16225 0.3774 0.0
H590 H 0.20299 0.14417 0.40339 0.0
H591 H 0.26255 0.29149 0.43789 0.0
H592 H 0.23307 0.36207 0.42435 0.0
H593 H 0.20708 0.26298 0.37471 0.0
C594 C 0.27464 0.10703 0.40441 0.0
C595 C 0.29443 0.09699 0.41994 0.0
C596 C 0.29924 0.13484 0.43503 0.0
C597 C 0.28525 0.18244 0.43449 0.0
C598 C 0.26648 0.19183 0.41873 0.0
C599 C 0.26094 0.1552 0.40403 0.0
C600 C 0.24058 0.17631 0.38834 0.0
C601 C 0.25444 0.17768 0.36731 0.0
C602 C 0.21283 0.14491 0.38813 0.0
C603 C 0.23587 0.23049 0.39646 0.0
C604 C 0.25098 0.2385 0.41403 0.0
C605 C 0.25044 0.28564 0.4242 0.0
C606 C 0.2337 0.3256 0.41634 0.0
C607 C 0.21772 0.31821 0.39847 0.0
C608 C 0.21903 0.26997 0.3884 0.0
H609 H 0.76224 0.16695 0.41117 0.0
H610 H 0.83139 0.23186 0.37585 0.0
H611 H 0.81005 0.31819 0.37843 0.0
H612 H 0.7079 0.24382 0.38833 0.0
H613 H 0.68775 0.25176 0.41126 0.0
H614 H 0.70931 0.19509 0.40781 0.0
H615 H 0.73571 0.21496 0.44124 0.0
H616 H 0.71424 0.27179 0.44477 0.0
H617 H 0.75236 0.27722 0.44461 0.0
H618 H 0.78168 0.39757 0.3846 0.0
H619 H 0.74549 0.46409 0.39183 0.0
H620 H 0.6934 0.34801 0.42156 0.0
C621 C 0.77287 0.19945 0.4041 0.0
C622 C 0.79841 0.19268 0.3933 0.0
C623 C 0.81165 0.236 0.38407 0.0
C624 C 0.79983 0.28535 0.38555 0.0
C625 C 0.7746 0.29084 0.39617 0.0
C626 C 0.76108 0.24914 0.40514 0.0
C627 C 0.73335 0.26556 0.41473 0.0
C628 C 0.70809 0.23739 0.40494 0.0
C629 C 0.73397 0.25687 0.4377 0.0
C630 C 0.73342 0.32274 0.40956 0.0
C631 C 0.75763 0.33661 0.39913 0.0
C632 C 0.76257 0.38728 0.39275 0.0
C633 C 0.74199 0.42478 0.39695 0.0
C634 C 0.71667 0.41109 0.40714 0.0
C635 C 0.71251 0.35948 0.41362 0.0
H636 H 0.7354 0.07106 0.88884 0.0
H637 H 0.66718 0.11962 0.92843 0.0
H638 H 0.69072 0.20388 0.93338 0.0
H639 H 0.79315 0.13829 0.91524 0.0
H640 H 0.81093 0.15656 0.89219 0.0
H641 H 0.78999 0.09817 0.8931 0.0
H642 H 0.76035 0.13037 0.86266 0.0
H643 H 0.78111 0.18888 0.86171 0.0
H644 H 0.74308 0.19239 0.86406 0.0
H645 H 0.72111 0.28398 0.93363 0.0
H646 H 0.75524 0.35546 0.92753 0.0
H647 H 0.80203 0.25694 0.88631 0.0
C648 C 0.72572 0.09926 0.89875 0.0
C649 C 0.69955 0.08888 0.90829 0.0
C650 C 0.6872 0.12696 0.92089 0.0
C651 C 0.70045 0.17487 0.92389 0.0
C652 C 0.72597 0.18447 0.91402 0.0
C653 C 0.73845 0.14792 0.90162 0.0
C654 C 0.76504 0.16944 0.89184 0.0
C655 C 0.79133 0.13879 0.8985 0.0
C656 C 0.76221 0.17033 0.8687 0.0
C657 C 0.7653 0.22371 0.90052 0.0
C658 C 0.74283 0.23142 0.91351 0.0
C659 C 0.73879 0.27848 0.92344 0.0
C660 C 0.75823 0.31884 0.9199 0.0
C661 C 0.78107 0.31202 0.90631 0.0
C662 C 0.78457 0.26368 0.89661 0.0
H663 H 0.30306 0.34916 0.91227 0.0
H664 H 0.25192 0.45771 0.87818 0.0
H665 H 0.21712 0.38794 0.8711 0.0
H666 H 0.29241 0.23923 0.88125 0.0
H667 H 0.29024 0.19386 0.90189 0.0
H668 H 0.31075 0.25232 0.90458 0.0
H669 H 0.28184 0.27699 0.93643 0.0
H670 H 0.26144 0.21832 0.93398 0.0
H671 H 0.2437 0.27992 0.93496 0.0
H672 H 0.18974 0.30508 0.86618 0.0
H673 H 0.16847 0.21806 0.86679 0.0
H674 H 0.23656 0.16434 0.9056 0.0
C675 C 0.28444 0.35832 0.90339 0.0
C676 C 0.28014 0.40866 0.89565 0.0
C677 C 0.25546 0.41939 0.88429 0.0
C678 C 0.23573 0.37999 0.88013 0.0
C679 C 0.2409 0.33048 0.88771 0.0
C680 C 0.2644 0.31978 0.8994 0.0
C681 C 0.26475 0.2637 0.9061 0.0
C682 C 0.29111 0.23564 0.89796 0.0
C683 C 0.26281 0.2595 0.92924 0.0
C684 C 0.23795 0.24415 0.8961 0.0
C685 C 0.22464 0.28321 0.88544 0.0
C686 C 0.19985 0.27435 0.8746 0.0
C687 C 0.18803 0.22458 0.87498 0.0
C688 C 0.20082 0.18423 0.88627 0.0
C689 C 0.22626 0.19427 0.89683 0.0
H690 H 0.69457 0.84751 0.6343 0.0
H691 H 0.74761 0.96674 0.66102 0.0
H692 H 0.78518 0.90202 0.66693 0.0
H693 H 0.71321 0.74611 0.66781 0.0
H694 H 0.71314 0.69635 0.64877 0.0
H695 H 0.69083 0.75227 0.64588 0.0
H696 H 0.71368 0.77133 0.61104 0.0
H697 H 0.73605 0.71537 0.6138 0.0
H698 H 0.75167 0.77798 0.60913 0.0
H699 H 0.8155 0.82436 0.67163 0.0
H700 H 0.83805 0.73901 0.67384 0.0
H701 H 0.76606 0.66954 0.64312 0.0
C702 C 0.71414 0.86011 0.64131 0.0
C703 C 0.7182 0.91216 0.64725 0.0
C704 C 0.74412 0.92713 0.65631 0.0
C705 C 0.76553 0.89066 0.65973 0.0
C706 C 0.76074 0.83962 0.65383 0.0
C707 C 0.73581 0.82434 0.64467 0.0
C708 C 0.73592 0.76689 0.64002 0.0
C709 C 0.71185 0.73876 0.6513 0.0
C710 C 0.73423 0.75735 0.61714 0.0
C711 C 0.76469 0.75203 0.64831 0.0
C712 C 0.77858 0.79469 0.65619 0.0
C713 C 0.80496 0.79076 0.66538 0.0
C714 C 0.8175 0.74195 0.66664 0.0
C715 C 0.80378 0.69757 0.65866 0.0
C716 C 0.77711 0.70283 0.64921 0.0
H717 H 0.27153 0.84527 0.63676 0.0
H718 H 0.18277 0.80005 0.63726 0.0
H719 H 0.19652 0.70851 0.63463 0.0
H720 H 0.29421 0.74799 0.60048 0.0
H721 H 0.32779 0.73765 0.61281 0.0
H722 H 0.31082 0.79986 0.61432 0.0
H723 H 0.31286 0.79533 0.65341 0.0
H724 H 0.32965 0.73299 0.65202 0.0
H725 H 0.29736 0.74062 0.66628 0.0
H726 H 0.2201 0.62088 0.63405 0.0
H727 H 0.25197 0.54482 0.63269 0.0
H728 H 0.32485 0.64767 0.63115 0.0
C729 C 0.25499 0.81615 0.63616 0.0
C730 C 0.22609 0.82998 0.6372 0.0
C731 C 0.20508 0.79061 0.63633 0.0
C732 C 0.21266 0.73836 0.63494 0.0
C733 C 0.24134 0.72598 0.6342 0.0
C734 C 0.26217 0.76377 0.63453 0.0
C735 C 0.29145 0.74013 0.63341 0.0
C736 C 0.30697 0.75744 0.6141 0.0
C737 C 0.30884 0.75304 0.65241 0.0
C738 C 0.28381 0.68324 0.63264 0.0
C739 C 0.25482 0.67574 0.63324 0.0
C740 C 0.24285 0.62627 0.63338 0.0
C741 C 0.26106 0.58334 0.63269 0.0
C742 C 0.2908 0.59039 0.63166 0.0
C743 C 0.30217 0.64104 0.63168 0.0
H744 H 0.81636 0.35705 0.66226 0.0
H745 H 0.75166 0.45395 0.63522 0.0
H746 H 0.71988 0.37754 0.63251 0.0
H747 H 0.80516 0.24647 0.63209 0.0
H748 H 0.8113 0.20099 0.65226 0.0
H749 H 0.8282 0.2635 0.65278 0.0
H750 H 0.80649 0.28158 0.68805 0.0
H751 H 0.78972 0.2189 0.68774 0.0
H752 H 0.76867 0.27616 0.69154 0.0
H753 H 0.69665 0.28902 0.63114 0.0
H754 H 0.68217 0.19751 0.63336 0.0
H755 H 0.76233 0.15993 0.66199 0.0
C756 C 0.79543 0.3624 0.65587 0.0
C757 C 0.78641 0.41128 0.64889 0.0
C758 C 0.75885 0.41679 0.64075 0.0
C759 C 0.74077 0.37363 0.63908 0.0
C760 C 0.75061 0.32571 0.64582 0.0
C761 C 0.77719 0.32011 0.65427 0.0
C762 C 0.78291 0.26467 0.66031 0.0
C763 C 0.80839 0.24263 0.64866 0.0
C764 C 0.78719 0.26008 0.68327 0.0
C765 C 0.75548 0.23952 0.65375 0.0
C766 C 0.73715 0.27527 0.64536 0.0
C767 C 0.71077 0.26082 0.63779 0.0
C768 C 0.70283 0.20861 0.63901 0.0
C769 C 0.72115 0.17146 0.64783 0.0
C770 C 0.74782 0.18736 0.65524 0.0
H771 H 0.26436 0.33196 0.63805 0.0
H772 H 0.33345 0.27081 0.67426 0.0
H773 H 0.31051 0.18563 0.67472 0.0
H774 H 0.20863 0.2587 0.66374 0.0
H775 H 0.1884 0.24821 0.64102 0.0
H776 H 0.21024 0.30517 0.64345 0.0
H777 H 0.23626 0.28131 0.61028 0.0
H778 H 0.2147 0.22401 0.60786 0.0
H779 H 0.25282 0.21881 0.60802 0.0
H780 H 0.28195 0.10553 0.66994 0.0
H781 H 0.24606 0.03768 0.66339 0.0
H782 H 0.19394 0.15011 0.632 0.0
C783 C 0.27448 0.30077 0.64623 0.0
C784 C 0.30078 0.30834 0.65606 0.0
C785 C 0.31332 0.26636 0.66659 0.0
C786 C 0.30052 0.21752 0.6669 0.0
C787 C 0.27495 0.21105 0.65681 0.0
C788 C 0.26176 0.25155 0.64694 0.0
C789 C 0.23393 0.23391 0.63771 0.0
C790 C 0.20882 0.26324 0.64704 0.0
C791 C 0.23448 0.23987 0.6146 0.0
C792 C 0.23377 0.17733 0.64389 0.0
C793 C 0.25783 0.16489 0.65469 0.0
C794 C 0.26287 0.11479 0.66163 0.0
C795 C 0.24248 0.07647 0.65776 0.0
C796 C 0.21723 0.0887 0.6473 0.0
C797 C 0.21299 0.13974 0.64018 0.0
H798 H 0.82153 0.63335 0.8924 0.0
H799 H 0.77319 0.55956 0.94024 0.0
H800 H 0.74515 0.63981 0.94452 0.0
H801 H 0.82421 0.76133 0.91319 0.0
H802 H 0.81959 0.79323 0.8892 0.0
H803 H 0.83633 0.73075 0.89031 0.0
H804 H 0.79952 0.69417 0.86499 0.0
H805 H 0.78286 0.75665 0.86363 0.0
H806 H 0.76221 0.70046 0.87041 0.0
H807 H 0.72397 0.72933 0.94438 0.0
H808 H 0.70659 0.81706 0.93706 0.0
H809 H 0.76647 0.83019 0.88748 0.0
C810 C 0.80508 0.63415 0.90383 0.0
C811 C 0.79961 0.59055 0.91615 0.0
C812 C 0.77763 0.59262 0.93066 0.0
C813 C 0.76177 0.63807 0.93327 0.0
C814 C 0.76794 0.68064 0.92101 0.0
C815 C 0.78874 0.67874 0.90634 0.0
C816 C 0.79022 0.72882 0.89445 0.0
C817 C 0.81932 0.75507 0.89695 0.0
C818 C 0.78328 0.71945 0.87205 0.0
C819 C 0.76708 0.75948 0.90478 0.0
C820 C 0.75476 0.73119 0.92023 0.0
C821 C 0.73318 0.7515 0.93213 0.0
C822 C 0.72334 0.80138 0.92777 0.0
C823 C 0.73467 0.83024 0.91139 0.0
C824 C 0.75727 0.8092 0.90005 0.0
H825 H 0.21271 0.89638 0.89151 0.0
H826 H 0.24048 0.92437 0.95283 0.0
H827 H 0.26676 0.84146 0.95262 0.0
H828 H 0.19773 0.76658 0.8985 0.0
H829 H 0.20899 0.74518 0.87388 0.0
H830 H 0.1967 0.81041 0.87732 0.0
H831 H 0.24373 0.84642 0.8627 0.0
H832 H 0.25602 0.78124 0.85881 0.0
H833 H 0.27701 0.82597 0.87341 0.0
H834 H 0.28635 0.75268 0.94671 0.0
H835 H 0.29847 0.66436 0.93559 0.0
H836 H 0.25512 0.69141 0.87876 0.0
C837 C 0.22537 0.88583 0.90452 0.0
C838 C 0.2256 0.91709 0.92195 0.0
C839 C 0.24094 0.90129 0.93918 0.0
C840 C 0.25573 0.85427 0.9392 0.0
C841 C 0.25447 0.82337 0.92196 0.0
C842 C 0.23978 0.83855 0.90489 0.0
C843 C 0.23941 0.79604 0.88914 0.0
C844 C 0.20889 0.77854 0.88445 0.0
C845 C 0.25498 0.81347 0.86988 0.0
C846 C 0.25574 0.75424 0.90014 0.0
C847 C 0.26454 0.77106 0.91894 0.0
C848 C 0.27973 0.7392 0.93198 0.0
C849 C 0.28642 0.68906 0.92555 0.0
C850 C 0.27761 0.67094 0.90636 0.0
C851 C 0.26191 0.70399 0.89358 0.0
H852 H 0.19701 0.65475 0.41857 0.0
H853 H 0.24429 0.54687 0.38139 0.0
H854 H 0.27903 0.61552 0.37349 0.0
H855 H 0.20722 0.7672 0.38799 0.0
H856 H 0.21187 0.81116 0.40884 0.0
H857 H 0.19053 0.75376 0.41194 0.0
H858 H 0.22144 0.72545 0.44231 0.0
H859 H 0.24264 0.78311 0.43945 0.0
H860 H 0.25933 0.72049 0.43922 0.0
H861 H 0.30676 0.69579 0.36794 0.0
H862 H 0.33034 0.78034 0.36845 0.0
H863 H 0.26731 0.83735 0.41081 0.0
C864 C 0.21481 0.64554 0.40889 0.0
C865 C 0.21793 0.59543 0.40054 0.0
C866 C 0.24156 0.58479 0.38804 0.0
C867 C 0.26129 0.62365 0.38336 0.0
C868 C 0.25733 0.67278 0.39151 0.0
C869 C 0.23504 0.68375 0.40432 0.0
C870 C 0.23633 0.73962 0.41144 0.0
C871 C 0.20991 0.7697 0.40464 0.0
C872 C 0.24017 0.74231 0.43447 0.0
C873 C 0.2627 0.75841 0.40045 0.0
C874 C 0.27417 0.71915 0.38889 0.0
C875 C 0.29818 0.72669 0.37708 0.0
C876 C 0.31137 0.77516 0.37746 0.0
C877 C 0.30084 0.81574 0.38977 0.0
C878 C 0.27586 0.80731 0.40121 0.0
H879 H 0.82271 0.85361 0.40507 0.0
H880 H 0.75454 0.95255 0.42593 0.0
H881 H 0.72342 0.87551 0.42958 0.0
H882 H 0.77942 0.76952 0.37552 0.0
H883 H 0.79988 0.71266 0.38136 0.0
H884 H 0.81668 0.77528 0.38123 0.0
H885 H 0.8339 0.76038 0.41795 0.0
H886 H 0.81702 0.69779 0.41824 0.0
H887 H 0.8084 0.74479 0.43735 0.0
H888 H 0.70019 0.78691 0.43102 0.0
H889 H 0.68535 0.6958 0.42783 0.0
H890 H 0.76882 0.65618 0.40495 0.0
C891 C 0.80128 0.85921 0.41053 0.0
C892 C 0.79104 0.90898 0.41538 0.0
C893 C 0.76276 0.91469 0.42216 0.0
C894 C 0.74503 0.87119 0.42434 0.0
C895 C 0.75593 0.82257 0.41951 0.0
C896 C 0.78334 0.81653 0.41258 0.0
C897 C 0.78974 0.76062 0.40764 0.0
C898 C 0.79684 0.75416 0.3851 0.0
C899 C 0.81368 0.73968 0.4211 0.0
C900 C 0.76159 0.73585 0.41285 0.0
C901 C 0.74245 0.77209 0.41986 0.0
C902 C 0.71503 0.75828 0.42556 0.0
C903 C 0.70685 0.70628 0.42377 0.0
C904 C 0.72595 0.6687 0.41617 0.0
C905 C 0.75374 0.68388 0.41082 0.0
H906 H 0.26355 0.21591 0.18116 0.0
H907 H 0.30198 0.20817 0.12176 0.0
H908 H 0.27994 0.29198 0.11277 0.0
H909 H 0.19669 0.26652 0.16323 0.0
H910 H 0.19104 0.30579 0.18533 0.0
H911 H 0.21124 0.24701 0.18722 0.0
H912 H 0.25317 0.29889 0.2025 0.0
H913 H 0.23323 0.35797 0.20032 0.0
H914 H 0.26772 0.35302 0.18873 0.0
H915 H 0.25579 0.37917 0.11118 0.0
H916 H 0.22341 0.45413 0.1143 0.0
H917 H 0.19651 0.3995 0.17316 0.0
C918 C 0.2672 0.23196 0.16626 0.0
C919 C 0.28456 0.2062 0.15217 0.0
C920 C 0.28865 0.22756 0.1327 0.0
C921 C 0.27645 0.27525 0.12756 0.0
C922 C 0.25978 0.30027 0.14193 0.0
C923 C 0.25449 0.27865 0.16068 0.0
C924 C 0.23396 0.31124 0.17277 0.0
C925 C 0.20661 0.28083 0.1774 0.0
C926 C 0.24786 0.33147 0.19223 0.0
C927 C 0.22862 0.35474 0.15795 0.0
C928 C 0.24428 0.34841 0.14045 0.0
C929 C 0.24331 0.38434 0.12474 0.0
C930 C 0.22513 0.42693 0.1267 0.0
C931 C 0.20784 0.4323 0.14401 0.0
C932 C 0.20979 0.39614 0.15987 0.0
H933 H 0.69102 0.26419 0.17439 0.0
H934 H 0.7503 0.38329 0.15522 0.0
H935 H 0.78693 0.31648 0.14975 0.0
H936 H 0.74194 0.17959 0.19968 0.0
H937 H 0.72511 0.12115 0.19086 0.0
H938 H 0.70431 0.1786 0.19487 0.0
H939 H 0.68623 0.17368 0.15799 0.0
H940 H 0.70711 0.11645 0.15382 0.0
H941 H 0.71151 0.17189 0.13757 0.0
H942 H 0.81648 0.23753 0.14563 0.0
H943 H 0.83735 0.15121 0.142 0.0
H944 H 0.75838 0.08103 0.1621 0.0
C945 C 0.71191 0.27635 0.16946 0.0
C946 C 0.71802 0.32913 0.16555 0.0
C947 C 0.7453 0.34323 0.1585 0.0
C948 C 0.76619 0.30554 0.15534 0.0
C949 C 0.75936 0.25385 0.15907 0.0
C950 C 0.73287 0.2391 0.1659 0.0
C951 C 0.73058 0.18057 0.16758 0.0
C952 C 0.72517 0.16401 0.18955 0.0
C953 C 0.70749 0.15942 0.15339 0.0
C954 C 0.75995 0.16468 0.1606 0.0
C955 C 0.77618 0.20777 0.15595 0.0
C956 C 0.804 0.20355 0.14925 0.0
C957 C 0.81566 0.15413 0.14726 0.0
C958 C 0.79955 0.10911 0.15177 0.0
C959 C 0.77121 0.11459 0.15848 0.0
H960 H 0.3164 0.02348 0.05006 0.0
H961 H 0.28923 0.16269 0.08089 0.0
H962 H 0.25937 0.18571 0.05166 0.0
H963 H 0.3168 0.07854 0.99807 0.0
H964 H 0.30323 0.01977 0.98703 0.0
H965 H 0.325 0.0169 1.00937 0.0
H966 H 0.28554 0.96563 0.02794 0.0
H967 H 0.26373 0.96829 1.00569 0.0
H968 H 0.25031 0.99231 0.02937 0.0
H969 H 0.2287 0.18909 1.02112 0.0
H970 H 0.19878 0.17188 0.99115 0.0
H971 H 0.24606 0.03217 0.97909 0.0
C972 C 0.30472 0.05943 0.05042 0.0
C973 C 0.30521 0.09142 0.06776 0.0
C974 C 0.28902 0.13747 0.06785 0.0
C975 C 0.27216 0.15105 0.05125 0.0
C976 C 0.27173 0.1183 0.03456 0.0
C977 C 0.28761 0.07348 0.03394 0.0
C978 C 0.28155 0.04314 1.01477 0.0
C979 C 0.30824 0.03939 1.00152 0.0
C980 C 0.26957 0.98916 1.01975 0.0
C981 C 0.25928 0.07727 1.00498 0.0
C982 C 0.25417 0.12068 1.01661 0.0
C983 C 0.23292 0.15586 1.01168 0.0
C984 C 0.21608 0.14594 0.99467 0.0
C985 C 0.22067 0.10154 0.98269 0.0
C986 C 0.24288 0.06728 0.98769 0.0
H987 H 0.77718 0.40449 0.984 0.0
H988 H 0.85028 0.48088 1.01064 0.0
H989 H 0.82551 0.48498 0.04323 0.0
H990 H 0.7246 0.47913 1.0103 0.0
H991 H 0.70044 0.4256 1.01358 0.0
H992 H 0.72425 0.42686 0.9923 0.0
H993 H 0.74399 0.33735 1.00274 0.0
H994 H 0.72028 0.33585 1.02408 0.0
H995 H 0.75791 0.32841 0.02785 0.0
H996 H 0.7927 0.48294 0.07291 0.0
H997 H 0.75362 0.47624 0.09742 0.0
H998 H 0.7014 0.40109 0.05203 0.0
C999 C 0.78797 0.42223 0.99664 0.0
C1000 C 0.81593 0.44189 0.99462 0.0
C1001 C 0.8292 0.46452 1.01171 0.0
C1002 C 0.81521 0.46736 0.03035 0.0
C1003 C 0.78783 0.4475 0.03181 0.0
C1004 C 0.77428 0.42544 1.01544 0.0
C1005 C 0.74458 0.40778 1.02111 0.0
C1006 C 0.72214 0.43657 1.00858 0.0
C1007 C 0.74152 0.34884 1.01881 0.0
C1008 C 0.74356 0.42378 0.04315 0.0
C1009 C 0.76879 0.44642 0.04901 0.0
C1010 C 0.77288 0.46495 0.06854 0.0
C1011 C 0.75054 0.46059 0.08244 0.0
C1012 C 0.72429 0.43786 0.07683 0.0
C1013 C 0.72101 0.41899 0.05686 0.0
H1014 H 0.30281 0.96219 0.50902 0.0
H1015 H 0.2439 0.92051 0.46121 0.0
H1016 H 0.2044 0.9258 0.48555 0.0
H1017 H 0.26881 0.88794 0.54821 0.0
H1018 H 0.27639 0.9352 0.56746 0.0
H1019 H 0.29984 0.92854 0.54615 0.0
H1020 H 0.29391 0.026 0.53802 0.0
H1021 H 0.27034 0.03295 0.55924 0.0
H1022 H 0.25883 0.05196 0.53437 0.0
H1023 H 0.17093 0.93764 0.51546 0.0
H1024 H 0.14714 0.95076 0.54835 0.0
H1025 H 0.2286 0.98179 0.57624 0.0
C1026 C 0.28182 0.95348 0.50346 0.0
C1027 C 0.27684 0.94107 0.4829 0.0
C1028 C 0.24857 0.93077 0.47667 0.0
C1029 C 0.22589 0.93347 0.49046 0.0
C1030 C 0.23173 0.94615 0.5105 0.0
C1031 C 0.25907 0.95558 0.51698 0.0
C1032 C 0.25991 0.96805 0.53932 0.0
C1033 C 0.27726 0.92751 0.55097 0.0
C1034 C 0.27142 0.02301 0.54294 0.0
C1035 C 0.2287 0.96435 0.54446 0.0
C1036 C 0.21272 0.95193 0.52765 0.0
C1037 C 0.18329 0.94724 0.52871 0.0
C1038 C 0.16993 0.9551 0.54744 0.0
C1039 C 0.18598 0.96723 0.56492 0.0
C1040 C 0.21576 0.97193 0.56326 0.0
H1041 H 0.8141 0.54203 0.54809 0.0
H1042 H 0.75322 0.53889 0.59739 0.0
H1043 H 0.71423 0.53523 0.57303 0.0
H1044 H 0.77175 0.61988 0.51365 0.0
H1045 H 0.78224 0.58431 0.49149 0.0
H1046 H 0.80596 0.58899 0.51274 0.0
H1047 H 0.80894 0.48906 0.51447 0.0
H1048 H 0.78525 0.4841 0.49323 0.0
H1049 H 0.77675 0.4516 0.51657 0.0
H1050 H 0.68152 0.52927 0.54387 0.0
H1051 H 0.65692 0.52157 0.51127 0.0
H1052 H 0.73791 0.5261 0.48006 0.0
C1053 C 0.79259 0.54067 0.55376 0.0
C1054 C 0.787 0.54156 0.57482 0.0
C1055 C 0.75839 0.53968 0.58149 0.0
C1056 C 0.73592 0.53714 0.56772 0.0
C1057 C 0.74217 0.53635 0.5472 0.0
C1058 C 0.76974 0.53806 0.54015 0.0
C1059 C 0.77035 0.53557 0.51721 0.0
C1060 C 0.78335 0.58515 0.50825 0.0
C1061 C 0.78626 0.4872 0.50995 0.0
C1062 C 0.73884 0.5318 0.51258 0.0
C1063 C 0.72307 0.53242 0.53016 0.0
C1064 C 0.69362 0.52867 0.52998 0.0
C1065 C 0.67983 0.52393 0.51135 0.0
C1066 C 0.69538 0.52285 0.49302 0.0
C1067 C 0.72535 0.52723 0.49373 0.0
H1068 H 0.68566 0.93706 1.00453 0.0
H1069 H 0.72909 0.04008 0.96303 0.0
H1070 H 0.7644 0.06073 0.98938 0.0
H1071 H 0.69801 0.01225 0.05064 0.0
H1072 H 0.70406 0.956 0.06614 0.0
H1073 H 0.68094 0.95176 0.04453 0.0
H1074 H 0.71096 0.87628 0.03039 0.0
H1075 H 0.73413 0.8803 0.05194 0.0
H1076 H 0.74858 0.88518 0.0268 0.0
H1077 H 0.79521 0.06938 1.01967 0.0
H1078 H 0.82162 0.06231 0.05146 0.0
H1079 H 0.76033 0.94985 0.07354 0.0
C1080 C 0.70241 0.96447 1.00118 0.0
C1081 C 0.70464 0.98725 0.98179 0.0
C1082 C 0.72714 0.02213 0.97775 0.0
C1083 C 0.74717 0.03426 0.99265 0.0
C1084 C 0.74461 0.01084 1.01153 0.0
C1085 C 0.72295 0.97642 1.01586 0.0
C1086 C 0.72619 0.95459 0.03707 0.0
C1087 C 0.70078 0.96956 0.05038 0.0
C1088 C 0.73021 0.89559 0.03651 0.0
C1089 C 0.7531 0.98194 0.04389 0.0
C1090 C 0.76311 0.01455 0.02894 0.0
C1091 C 0.78767 0.04376 0.03145 0.0
C1092 C 0.80269 0.03911 0.0496 0.0
C1093 C 0.79344 0.00501 0.06509 0.0
C1094 C 0.768 0.97653 0.06217 0.0
H1095 H 0.18438 0.52697 0.03622 0.0
H1096 H 0.24487 0.53261 0.08561 0.0
H1097 H 0.28417 0.53158 0.06119 0.0
H1098 H 0.22465 0.43927 1.00505 0.0
H1099 H 0.21495 0.4701 0.98164 0.0
H1100 H 0.19124 0.47259 1.00296 0.0
H1101 H 0.19079 0.57262 1.00082 0.0
H1102 H 0.21458 0.57044 0.97953 0.0
H1103 H 0.22387 0.60774 1.00154 0.0
H1104 H 0.31716 0.52833 0.03172 0.0
H1105 H 0.34178 0.52275 0.99898 0.0
H1106 H 0.26069 0.51792 0.9681 0.0
C1107 C 0.20586 0.52779 0.04194 0.0
C1108 C 0.21132 0.53036 0.06299 0.0
C1109 C 0.23989 0.53169 0.06968 0.0
C1110 C 0.26247 0.53078 0.05588 0.0
C1111 C 0.25633 0.52846 0.03533 0.0
C1112 C 0.22876 0.52692 0.02832 0.0
C1113 C 0.22817 0.52387 1.00539 0.0
C1114 C 0.21391 0.47346 0.99835 0.0
C1115 C 0.21348 0.57151 0.99629 0.0
C1116 C 0.25971 0.52388 1.00065 0.0
C1117 C 0.2755 0.52649 1.0182 0.0
C1118 C 0.30502 0.52619 1.01788 0.0
C1119 C 0.31884 0.5227 0.99918 0.0
C1120 C 0.30326 0.51962 0.98091 0.0
C1121 C 0.27323 0.5207 0.98174 0.0
H1122 H 0.74224 0.01113 0.57482 0.0
H1123 H 0.668 0.0875 0.55072 0.0
H1124 H 0.69453 0.10971 0.51963 0.0
H1125 H 0.7961 0.09783 0.55272 0.0
H1126 H 0.82028 0.04603 0.54694 0.0
H1127 H 0.79643 0.04028 0.56812 0.0
H1128 H 0.77673 0.95446 0.55357 0.0
H1129 H 0.80052 0.95992 0.53239 0.0
H1130 H 0.76291 0.95333 0.52819 0.0
H1131 H 0.72841 0.122 0.49103 0.0
H1132 H 0.76608 0.11814 0.46543 0.0
H1133 H 0.81812 0.02815 0.50655 0.0
C1134 C 0.73189 0.03325 0.56306 0.0
C1135 C 0.70319 0.04817 0.56513 0.0
C1136 C 0.68997 0.07594 0.54933 0.0
C1137 C 0.70491 0.08886 0.53171 0.0
C1138 C 0.73306 0.07317 0.52996 0.0
C1139 C 0.74642 0.04559 0.5451 0.0
C1140 C 0.77617 0.03017 0.53863 0.0
C1141 C 0.79857 0.05507 0.55243 0.0
C1142 C 0.77925 0.97096 0.53817 0.0
C1143 C 0.7773 0.05305 0.51748 0.0
C1144 C 0.75231 0.07827 0.51296 0.0
C1145 C 0.74802 0.10209 0.49435 0.0
C1146 C 0.76958 0.09931 0.4798 0.0
C1147 C 0.79515 0.07221 0.48368 0.0
C1148 C 0.79907 0.04948 0.503 0.0
H1149 H 0.30274 0.46154 0.53672 0.0
H1150 H 0.24469 0.40529 0.58286 0.0
H1151 H 0.20614 0.40414 0.55768 0.0
H1152 H 0.25452 0.54354 0.51107 0.0
H1153 H 0.26812 0.52878 0.4863 0.0
H1154 H 0.2911 0.52504 0.50796 0.0
H1155 H 0.30321 0.43007 0.49906 0.0
H1156 H 0.28029 0.4335 0.47735 0.0
H1157 H 0.27491 0.38366 0.49603 0.0
H1158 H 0.17344 0.41106 0.52724 0.0
H1159 H 0.14992 0.42342 0.49427 0.0
H1160 H 0.22994 0.47222 0.46801 0.0
C1161 C 0.28216 0.44828 0.54171 0.0
C1162 C 0.2771 0.43352 0.56207 0.0
C1163 C 0.24935 0.41739 0.56758 0.0
C1164 C 0.22725 0.41633 0.5533 0.0
C1165 C 0.23313 0.4312 0.53346 0.0
C1166 C 0.25997 0.44661 0.52767 0.0
C1167 C 0.26087 0.46078 0.50542 0.0
C1168 C 0.26914 0.51793 0.50253 0.0
C1169 C 0.28101 0.42485 0.49378 0.0
C1170 C 0.23024 0.45123 0.49956 0.0
C1171 C 0.21455 0.43432 0.51595 0.0
C1172 C 0.18559 0.42414 0.51433 0.0
C1173 C 0.17237 0.43157 0.49554 0.0
C1174 C 0.18802 0.4488 0.47849 0.0
C1175 C 0.21743 0.45839 0.48063 0.0
H1176 H 0.3226 0.09861 0.24093 0.0
H1177 H 0.34221 0.94493 0.21952 0.0
H1178 H 0.35097 0.91623 0.25482 0.0
H1179 H 0.37669 0.1007 0.28138 0.0
H1180 H 0.35434 0.1374 0.29814 0.0
H1181 H 0.35108 0.14533 0.27121 0.0
H1182 H 0.29751 0.12364 0.27376 0.0
H1183 H 0.30068 0.11476 0.30063 0.0
H1184 H 0.28651 0.06349 0.28519 0.0
H1185 H 0.35207 0.90292 0.29294 0.0
H1186 H 0.3532 0.9091 0.33036 0.0
H1187 H 0.33674 0.0734 0.32646 0.0
C1188 C 0.32943 0.05932 0.24378 0.0
C1189 C 0.33211 0.02387 0.22773 0.0
C1190 C 0.34061 0.97254 0.23175 0.0
C1191 C 0.34534 0.95599 0.2517 0.0
C1192 C 0.34191 0.99167 0.26733 0.0
C1193 C 0.33483 0.04263 0.26352 0.0
C1194 C 0.33264 0.07342 0.28291 0.0
C1195 C 0.35503 0.11677 0.28344 0.0
C1196 C 0.30254 0.09509 0.28578 0.0
C1197 C 0.33906 0.03169 0.29829 0.0
C1198 C 0.34396 0.98461 0.28905 0.0
C1199 C 0.34873 0.93977 0.30029 0.0
C1200 C 0.3491 0.94345 0.32147 0.0
C1201 C 0.34524 0.9917 0.33112 0.0
C1202 C 0.34006 0.03622 0.31935 0.0
H1203 H 0.64499 0.5707 0.23397 0.0
H1204 H 0.67995 0.41617 0.22889 0.0
H1205 H 0.68739 0.41428 0.26589 0.0
H1206 H 0.69088 0.61646 0.27329 0.0
H1207 H 0.66331 0.65303 0.28553 0.0
H1208 H 0.66193 0.64234 0.25869 0.0
H1209 H 0.61177 0.60208 0.2624 0.0
H1210 H 0.613 0.61258 0.28926 0.0
H1211 H 0.60644 0.5486 0.2795 0.0
H1212 H 0.68967 0.42954 0.30428 0.0
H1213 H 0.68771 0.46115 0.33952 0.0
H1214 H 0.64913 0.6036 0.31851 0.0
C1215 C 0.65407 0.53618 0.2405 0.0
C1216 C 0.66177 0.49347 0.22834 0.0
C1217 C 0.67412 0.44964 0.23774 0.0
C1218 C 0.67826 0.44809 0.2588 0.0
C1219 C 0.66998 0.49068 0.2703 0.0
C1220 C 0.6582 0.53392 0.26139 0.0
C1221 C 0.65067 0.57449 0.27692 0.0
C1222 C 0.66772 0.62452 0.27339 0.0
C1223 C 0.61857 0.58503 0.27702 0.0
C1224 C 0.65993 0.54742 0.29606 0.0
C1225 C 0.67107 0.49916 0.29204 0.0
C1226 C 0.68095 0.4673 0.30754 0.0
C1227 C 0.67958 0.48548 0.32757 0.0
C1228 C 0.66837 0.53509 0.33198 0.0
C1229 C 0.65829 0.56593 0.31585 0.0
H1230 H 0.64993 0.00595 0.82439 0.0
H1231 H 0.71113 0.88191 0.81942 0.0
H1232 H 0.7159 0.89872 0.78292 0.0
H1233 H 0.61466 0.98078 0.77826 0.0
H1234 H 0.60892 0.04752 0.77156 0.0
H1235 H 0.61186 0.02923 0.79772 0.0
H1236 H 0.65278 0.09507 0.8026 0.0
H1237 H 0.64976 0.11396 0.77648 0.0
H1238 H 0.68335 0.09225 0.78627 0.0
H1239 H 0.71168 0.92408 0.74668 0.0
H1240 H 0.70092 0.96042 0.71312 0.0
H1241 H 0.64214 0.06825 0.74073 0.0
C1242 C 0.66479 0.98333 0.81564 0.0
C1243 C 0.68019 0.94259 0.82473 0.0
C1244 C 0.69903 0.91305 0.81273 0.0
C1245 C 0.70191 0.92236 0.79199 0.0
C1246 C 0.68584 0.96157 0.78332 0.0
C1247 C 0.66784 0.99202 0.79472 0.0
C1248 C 0.65226 0.03031 0.78131 0.0
C1249 C 0.62002 0.0214 0.78228 0.0
C1250 C 0.66001 0.08622 0.78701 0.0
C1251 C 0.66409 0.01606 0.76068 0.0
C1252 C 0.68344 0.97632 0.76224 0.0
C1253 C 0.69667 0.95545 0.74527 0.0
C1254 C 0.69021 0.97606 0.7262 0.0
C1255 C 0.67067 0.01727 0.72413 0.0
C1256 C 0.65745 0.03726 0.74173 0.0
H1257 H 0.35236 0.56546 0.72113 0.0
H1258 H 0.31883 0.40963 0.71589 0.0
H1259 H 0.31079 0.4076 0.7529 0.0
H1260 H 0.39064 0.54525 0.76648 0.0
H1261 H 0.38349 0.60892 0.77626 0.0
H1262 H 0.38476 0.59853 0.74941 0.0
H1263 H 0.33418 0.63656 0.74582 0.0
H1264 H 0.33279 0.64718 0.77267 0.0
H1265 H 0.30554 0.60943 0.76049 0.0
H1266 H 0.30825 0.42299 0.79154 0.0
H1267 H 0.31038 0.45458 0.82678 0.0
H1268 H 0.3481 0.59805 0.80547 0.0
C1269 C 0.34342 0.53067 0.72763 0.0
C1270 C 0.33638 0.48757 0.71545 0.0
C1271 C 0.32417 0.44337 0.72478 0.0
C1272 C 0.31968 0.44177 0.74584 0.0
C1273 C 0.32746 0.48473 0.75739 0.0
C1274 C 0.33896 0.52837 0.74849 0.0
C1275 C 0.34616 0.5692 0.76402 0.0
C1276 C 0.37816 0.58114 0.76404 0.0
C1277 C 0.32862 0.61849 0.76054 0.0
C1278 C 0.33719 0.54173 0.78317 0.0
C1279 C 0.3263 0.49317 0.77917 0.0
C1280 C 0.31675 0.46103 0.79475 0.0
C1281 C 0.31822 0.47924 0.8148 0.0
C1282 C 0.32927 0.52913 0.81919 0.0
C1283 C 0.33901 0.5602 0.80295 0.0
H1284 H 0.81683 0.54379 0.82754 0.0
H1285 H 0.87467 0.415 0.83281 0.0
H1286 H 0.88798 0.4254 0.79667 0.0
H1287 H 0.78958 0.51317 0.7816 0.0
H1288 H 0.78646 0.57857 0.77243 0.0
H1289 H 0.78558 0.56604 0.79909 0.0
H1290 H 0.8275 0.62967 0.8045 0.0
H1291 H 0.82845 0.64263 0.77775 0.0
H1292 H 0.85997 0.62082 0.79054 0.0
H1293 H 0.88849 0.44223 0.75831 0.0
H1294 H 0.87678 0.46447 0.72276 0.0
H1295 H 0.82022 0.58434 0.74395 0.0
C1296 C 0.8328 0.51863 0.82115 0.0
C1297 C 0.84476 0.47864 0.83279 0.0
C1298 C 0.86556 0.44622 0.82408 0.0
C1299 C 0.87315 0.45187 0.8036 0.0
C1300 C 0.86017 0.49088 0.7923 0.0
C1301 C 0.84077 0.52424 0.80097 0.0
C1302 C 0.828 0.56033 0.78555 0.0
C1303 C 0.7955 0.5541 0.78462 0.0
C1304 C 0.8365 0.6167 0.78984 0.0
C1305 C 0.84207 0.54057 0.76659 0.0
C1306 C 0.86089 0.501 0.77065 0.0
C1307 C 0.87427 0.47394 0.75505 0.0
C1308 C 0.86763 0.48687 0.73491 0.0
C1309 C 0.84757 0.52603 0.73065 0.0
C1310 C 0.83557 0.55413 0.74676 0.0
H1311 H 0.16203 0.91408 0.82513 0.0
H1312 H 0.1862 0.07554 0.83104 0.0
H1313 H 0.19162 0.0815 0.794 0.0
H1314 H 0.20825 0.88215 0.78385 0.0
H1315 H 0.18251 0.8404 0.772 0.0
H1316 H 0.1822 0.84872 0.799 0.0
H1317 H 0.12957 0.87728 0.79738 0.0
H1318 H 0.12975 0.86918 0.77039 0.0
H1319 H 0.11969 0.93039 0.7812 0.0
H1320 H 0.19285 0.06956 0.7554 0.0
H1321 H 0.19075 0.04012 0.71983 0.0
H1322 H 0.16292 0.88869 0.74033 0.0
C1323 C 0.16842 0.95087 0.8188 0.0
C1324 C 0.17369 0.99428 0.83123 0.0
C1325 C 0.1824 0.04137 0.82202 0.0
C1326 C 0.18535 0.04527 0.80092 0.0
C1327 C 0.17946 0.00184 0.78916 0.0
C1328 C 0.17122 0.95555 0.79786 0.0
C1329 C 0.1654 0.91475 0.78205 0.0
C1330 C 0.18581 0.8688 0.78437 0.0
C1331 C 0.13425 0.89687 0.7828 0.0
C1332 C 0.17158 0.94521 0.76304 0.0
C1333 C 0.17975 0.99533 0.76731 0.0
C1334 C 0.18647 0.03032 0.75193 0.0
C1335 C 0.18504 0.01336 0.73173 0.0
C1336 C 0.17689 0.96188 0.72709 0.0
C1337 C 0.16984 0.92792 0.74312 0.0
H1338 H 0.19491 0.44737 0.29858 0.0
H1339 H 0.12471 0.52782 0.32705 0.0
H1340 H 0.10783 0.55555 0.29364 0.0
H1341 H 0.2094 0.5431 0.26183 0.0
H1342 H 0.21825 0.49818 0.24202 0.0
H1343 H 0.22349 0.4803 0.26802 0.0
H1344 H 0.1922 0.3989 0.26281 0.0
H1345 H 0.18683 0.41664 0.23676 0.0
H1346 H 0.15673 0.40596 0.25306 0.0
H1347 H 0.10055 0.58087 0.25761 0.0
H1348 H 0.10336 0.60174 0.22128 0.0
H1349 H 0.17815 0.50586 0.21555 0.0
C1350 C 0.17592 0.47063 0.29787 0.0
C1351 C 0.16118 0.48509 0.3157 0.0
C1352 C 0.13626 0.5153 0.31383 0.0
C1353 C 0.12651 0.53153 0.29483 0.0
C1354 C 0.14175 0.51715 0.27771 0.0
C1355 C 0.16587 0.48722 0.279 0.0
C1356 C 0.17906 0.47926 0.25827 0.0
C1357 C 0.20934 0.50155 0.2575 0.0
C1358 C 0.17867 0.42177 0.25238 0.0
C1359 C 0.15891 0.51039 0.24519 0.0
C1360 C 0.13745 0.53159 0.25675 0.0
C1361 C 0.11709 0.56407 0.24839 0.0
C1362 C 0.11891 0.57587 0.22777 0.0
C1363 C 0.14088 0.5553 0.21561 0.0
C1364 C 0.16085 0.52135 0.22441 0.0
H1365 H 0.81157 0.94188 0.32157 0.0
H1366 H 0.8714 0.06854 0.32577 0.0
H1367 H 0.88045 0.06236 0.28883 0.0
H1368 H 0.85005 0.86786 0.28232 0.0
H1369 H 0.81747 0.84727 0.27054 0.0
H1370 H 0.81849 0.85909 0.29734 0.0
H1371 H 0.77688 0.92368 0.2936 0.0
H1372 H 0.77603 0.91278 0.26678 0.0
H1373 H 0.78033 0.9775 0.27642 0.0
H1374 H 0.87771 0.04827 0.25037 0.0
H1375 H 0.8681 0.02099 0.21509 0.0
H1376 H 0.81095 0.90214 0.23713 0.0
C1377 C 0.82711 0.96738 0.31474 0.0
C1378 C 0.84096 0.00548 0.32639 0.0
C1379 C 0.86098 0.03862 0.31706 0.0
C1380 C 0.86601 0.03558 0.29611 0.0
C1381 C 0.85113 0.99861 0.28488 0.0
C1382 C 0.83254 0.96439 0.29404 0.0
C1383 C 0.81842 0.92927 0.27878 0.0
C1384 C 0.82661 0.87251 0.28247 0.0
C1385 C 0.786 0.93626 0.27891 0.0
C1386 C 0.83139 0.94969 0.25946 0.0
C1387 C 0.85015 0.98979 0.26317 0.0
C1388 C 0.86341 0.01637 0.24738 0.0
C1389 C 0.85765 0.00098 0.2274 0.0
C1390 C 0.83899 0.95917 0.2234 0.0
C1391 C 0.82574 0.93354 0.23973 0.0
H1392 H 0.54219 0.33394 0.12774 0.0
H1393 H 0.59461 0.24548 0.16888 0.0
H1394 H 0.55469 0.1848 0.17483 0.0
H1395 H 0.47759 0.3229 0.15437 0.0
H1396 H 0.45568 0.31554 0.13225 0.0
H1397 H 0.48859 0.35081 0.13065 0.0
H1398 H 0.50562 0.29069 0.10182 0.0
H1399 H 0.47261 0.25558 0.10318 0.0
H1400 H 0.50577 0.22166 0.1057 0.0
H1401 H 0.50768 0.13911 0.17862 0.0
H1402 H 0.45885 0.10557 0.17729 0.0
H1403 H 0.43851 0.21908 0.13102 0.0
C1404 C 0.54526 0.30144 0.13783 0.0
C1405 C 0.57133 0.29418 0.14791 0.0
C1406 C 0.57478 0.25127 0.16095 0.0
C1407 C 0.55222 0.21688 0.16448 0.0
C1408 C 0.52659 0.22555 0.15457 0.0
C1409 C 0.52316 0.26621 0.14122 0.0
C1410 C 0.49354 0.26662 0.13238 0.0
C1411 C 0.47794 0.31695 0.13774 0.0
C1412 C 0.49445 0.25811 0.1094 0.0
C1413 C 0.48064 0.22054 0.14317 0.0
C1414 C 0.49997 0.19762 0.15599 0.0
C1415 C 0.49252 0.15605 0.1683 0.0
C1416 C 0.46466 0.13703 0.16731 0.0
C1417 C 0.44453 0.15895 0.15386 0.0
C1418 C 0.45294 0.20139 0.14166 0.0
H1419 H 0.45426 0.81705 0.39582 0.0
H1420 H 0.42739 0.80531 0.4583 0.0
H1421 H 0.4689 0.75023 0.46583 0.0
H1422 H 0.47826 0.68506 0.3915 0.0
H1423 H 0.5078 0.70105 0.37534 0.0
H1424 H 0.47637 0.74047 0.375 0.0
H1425 H 0.50673 0.82167 0.38293 0.0
H1426 H 0.53825 0.78252 0.38329 0.0
H1427 H 0.52938 0.82176 0.40486 0.0
H1428 H 0.51408 0.6993 0.46676 0.0
H1429 H 0.55839 0.65071 0.46053 0.0
H1430 H 0.55441 0.69156 0.39707 0.0
C1431 C 0.45727 0.80295 0.41108 0.0
C1432 C 0.43784 0.81537 0.42654 0.0
C1433 C 0.44209 0.79587 0.44628 0.0
C1434 C 0.46559 0.76481 0.45069 0.0
C1435 C 0.48439 0.75318 0.43512 0.0
C1436 C 0.48037 0.7712 0.41566 0.0
C1437 C 0.50331 0.75184 0.40158 0.0
C1438 C 0.49067 0.71756 0.38487 0.0
C1439 C 0.52043 0.79715 0.39265 0.0
C1440 C 0.52099 0.72046 0.41619 0.0
C1441 C 0.50984 0.72211 0.43549 0.0
C1442 C 0.52292 0.6974 0.45169 0.0
C1443 C 0.54805 0.67012 0.44805 0.0
C1444 C 0.55955 0.66734 0.42834 0.0
C1445 C 0.54578 0.69269 0.41223 0.0
H1446 H 0.54354 0.81914 0.93111 0.0
H1447 H 0.59258 0.74734 0.88349 0.0
H1448 H 0.55334 0.68552 0.87716 0.0
H1449 H 0.51184 0.69889 0.9502 0.0
H1450 H 0.47824 0.72867 0.95584 0.0
H1451 H 0.5104 0.76643 0.95685 0.0
H1452 H 0.48886 0.83205 0.93159 0.0
H1453 H 0.45673 0.7943 0.93039 0.0
H1454 H 0.47588 0.80944 0.90755 0.0
H1455 H 0.50786 0.63654 0.87438 0.0
H1456 H 0.4604 0.59791 0.87682 0.0
H1457 H 0.44182 0.69616 0.92842 0.0
C1458 C 0.54595 0.78995 0.91952 0.0
C1459 C 0.57086 0.78745 0.90775 0.0
C1460 C 0.57355 0.74926 0.89265 0.0
C1461 C 0.55142 0.71425 0.88895 0.0
C1462 C 0.52694 0.71779 0.90067 0.0
C1463 C 0.52417 0.75417 0.91583 0.0
C1464 C 0.4956 0.74935 0.92622 0.0
C1465 C 0.49925 0.73497 0.94861 0.0
C1466 C 0.47825 0.79925 0.92378 0.0
C1467 C 0.48263 0.70512 0.91434 0.0
C1468 C 0.50104 0.68779 0.89962 0.0
C1469 C 0.49345 0.64899 0.88612 0.0
C1470 C 0.46639 0.62691 0.88779 0.0
C1471 C 0.44719 0.64294 0.90309 0.0
C1472 C 0.45566 0.6828 0.91649 0.0
H1473 H 0.44961 0.30908 0.65259 0.0
H1474 H 0.42673 0.29322 0.5895 0.0
H1475 H 0.46818 0.23629 0.58405 0.0
H1476 H 0.52475 0.31187 0.64608 0.0
H1477 H 0.53213 0.27413 0.66836 0.0
H1478 H 0.50068 0.31336 0.66723 0.0
H1479 H 0.46969 0.23282 0.67509 0.0
H1480 H 0.50106 0.19331 0.67624 0.0
H1481 H 0.4726 0.17628 0.65932 0.0
H1482 H 0.51354 0.18559 0.58514 0.0
H1483 H 0.55797 0.13904 0.59327 0.0
H1484 H 0.54948 0.18326 0.65608 0.0
C1485 C 0.45342 0.29353 0.63766 0.0
C1486 C 0.43521 0.30547 0.62141 0.0
C1487 C 0.44049 0.28417 0.60211 0.0
C1488 C 0.46396 0.25203 0.59888 0.0
C1489 C 0.4816 0.24107 0.6152 0.0
C1490 C 0.47643 0.26067 0.63426 0.0
C1491 C 0.49839 0.24226 0.6493 0.0
C1492 C 0.51497 0.28814 0.65826 0.0
C1493 C 0.4846 0.2092 0.66597 0.0
C1494 C 0.51695 0.20981 0.63566 0.0
C1495 C 0.50701 0.20994 0.61602 0.0
C1496 C 0.52135 0.18468 0.6005 0.0
C1497 C 0.5465 0.15854 0.60521 0.0
C1498 C 0.55674 0.1574 0.62527 0.0
C1499 C 0.54171 0.18307 0.64068 0.0
H1500 H 0.95203 0.68006 0.62072 0.0
H1501 H 0.95077 0.63082 0.68338 0.0
H1502 H 0.99434 0.68137 0.68983 0.0
H1503 H 0.02913 0.67684 0.61484 0.0
H1504 H 0.02999 0.73313 0.59876 0.0
H1505 H 0.99925 0.69153 0.59888 0.0
H1506 H 0.96738 0.77002 0.60743 0.0
H1507 H 0.998 0.8118 0.60741 0.0
H1508 H 0.97536 0.80877 0.62933 0.0
H1509 H 0.03563 0.74189 0.69013 0.0
H1510 H 0.07458 0.80397 0.68362 0.0
H1511 H 0.05049 0.81146 0.6205 0.0
C1512 C 0.96107 0.67977 0.63575 0.0
C1513 C 0.94814 0.65153 0.65157 0.0
C1514 C 0.96059 0.65174 0.67102 0.0
C1515 C 0.98521 0.68051 0.67485 0.0
C1516 C 0.99727 0.70837 0.659 0.0
C1517 C 0.98586 0.70779 0.63978 0.0
C1518 C 0.003 0.74138 0.62548 0.0
C1519 C 0.01612 0.70876 0.60849 0.0
C1520 C 0.98485 0.78561 0.61691 0.0
C1521 C 0.02552 0.76158 0.63975 0.0
C1522 C 0.02171 0.74219 0.65904 0.0
C1523 C 0.03904 0.75693 0.67506 0.0
C1524 C 0.06095 0.79231 0.67126 0.0
C1525 C 0.06544 0.81212 0.65159 0.0
C1526 C 0.0476 0.79632 0.63563 0.0
H1527 H 0.06345 0.21093 0.92746 0.0
H1528 H 0.04207 0.09011 0.88438 0.0
H1529 H 0.9952 0.12935 0.87943 0.0
H1530 H 0.99525 0.22567 0.94956 0.0
H1531 H 0.99751 0.2951 0.95146 0.0
H1532 H 0.02932 0.25677 0.9522 0.0
H1533 H 0.04998 0.30921 0.9222 0.0
H1534 H 0.01826 0.34783 0.92139 0.0
H1535 H 0.02998 0.31417 0.89909 0.0
H1536 H 0.94994 0.17941 0.88001 0.0
H1537 H 0.9104 0.24128 0.88443 0.0
H1538 H 0.96264 0.3338 0.9244 0.0
C1539 C 0.04918 0.19287 0.91678 0.0
C1540 C 0.05658 0.14675 0.90656 0.0
C1541 C 0.03683 0.12448 0.8929 0.0
C1542 C 0.01016 0.14676 0.8898 0.0
C1543 C 0.00361 0.1919 0.90017 0.0
C1544 C 0.02264 0.21512 0.91319 0.0
C1545 C 0.0105 0.26428 0.92209 0.0
C1546 C 0.00799 0.26018 0.94519 0.0
C1547 C 0.02824 0.31167 0.91581 0.0
C1548 C 0.98159 0.26473 0.91215 0.0
C1549 C 0.97797 0.22235 0.89969 0.0
C1550 C 0.9526 0.21307 0.88953 0.0
C1551 C 0.93032 0.24817 0.89213 0.0
C1552 C 0.9338 0.29218 0.90454 0.0
C1553 C 0.95975 0.30069 0.9146 0.0
H1554 H 0.05299 0.31654 0.42291 0.0
H1555 H 0.06872 0.31764 0.35844 0.0
H1556 H 0.02715 0.26038 0.35315 0.0
H1557 H 0.02865 0.18458 0.4272 0.0
H1558 H 0.00136 0.1991 0.44539 0.0
H1559 H 0.03289 0.23853 0.44417 0.0
H1560 H 0.00203 0.32033 0.43921 0.0
H1561 H 0.97041 0.28117 0.44045 0.0
H1562 H 0.97664 0.32224 0.41888 0.0
H1563 H 0.98504 0.20091 0.35507 0.0
H1564 H 0.9423 0.14953 0.36364 0.0
H1565 H 0.95161 0.19216 0.42658 0.0
C1566 C 0.04762 0.30443 0.40773 0.0
C1567 C 0.06397 0.32088 0.39104 0.0
C1568 C 0.05631 0.30515 0.37134 0.0
C1569 C 0.03287 0.27262 0.36823 0.0
C1570 C 0.01711 0.25692 0.38499 0.0
C1571 C 0.02391 0.2728 0.40433 0.0
C1572 C 0.00271 0.25214 0.41959 0.0
C1573 C 0.01728 0.21647 0.43499 0.0
C1574 C 0.98702 0.29662 0.43015 0.0
C1575 C 0.98305 0.22194 0.40584 0.0
C1576 C 0.99197 0.22469 0.38597 0.0
C1577 C 0.97774 0.19876 0.37055 0.0
C1578 C 0.95361 0.16957 0.37554 0.0
C1579 C 0.94374 0.16722 0.3957 0.0
C1580 C 0.95865 0.19379 0.41102 0.0
H1581 H 0.93425 0.79597 0.15164 0.0
H1582 H 0.91571 0.81891 0.08813 0.0
H1583 H 0.95818 0.76786 0.07904 0.0
H1584 H 0.009 0.80708 0.14814 0.0
H1585 H 0.0162 0.75752 0.16659 0.0
H1586 H 0.98379 0.79399 0.168 0.0
H1587 H 0.95458 0.70893 0.16716 0.0
H1588 H 0.98692 0.67215 0.16583 0.0
H1589 H 0.95996 0.6637 0.14682 0.0
H1590 H 0.00474 0.71954 0.07707 0.0
H1591 H 0.04969 0.67199 0.08238 0.0
H1592 H 0.03653 0.67835 0.14714 0.0
C1593 C 0.93908 0.78999 0.13583 0.0
C1594 C 0.92177 0.81135 0.12057 0.0
C1595 C 0.92859 0.80242 0.10004 0.0
C1596 C 0.95272 0.77374 0.09475 0.0
C1597 C 0.96957 0.75377 0.11018 0.0
C1598 C 0.96285 0.761 0.1303 0.0
C1599 C 0.98443 0.73566 0.14399 0.0
C1600 C 0.99923 0.77598 0.15747 0.0
C1601 C 0.97064 0.69254 0.1567 0.0
C1602 C 0.00462 0.7137 0.12846 0.0
C1603 C 0.99578 0.72472 0.10903 0.0
C1604 C 0.01169 0.71021 0.09221 0.0
C1605 C 0.03721 0.6835 0.09535 0.0
C1606 C 0.04637 0.67123 0.11514 0.0
C1607 C 0.02976 0.68651 0.13184 0.0
loop_
_geom_bond_atom_site_label_1
_geom_bond_atom_site_label_2
_geom_bond_distance
_geom_bond_site_symmetry_2
_ccdc_geom_bond_type
C0 C1 1.351 . S
C0 N3 1.368 . S
C0 H5 0.931 . S
C1 C0 1.351 . S
C1 N2 1.373 . S
C1 H29 0.930 . S
N2 C1 1.373 . S
N2 C4 1.340 . S
N3 C0 1.368 . S
N3 C4 1.321 . S
N3 Co6 2.135 . S
C4 N2 1.340 . S
C4 N3 1.321 . S
C4 H28 0.930 . S
H5 C0 0.931 . S
Co6 N3 2.135 . S
Co6 N9 2.121 . S
Co6 O14 2.055 . S
Co6 O17 2.039 . S
Co6 N20 2.140 . S
C7 O8 1.227 . S
C7 O17 1.265 . S
O8 C7 1.227 . S
N9 Co6 2.121 . S
N9 C11 1.375 . S
N9 C12 1.313 . S
C10 C11 1.338 . S
C10 N13 1.377 . S
C10 H30 0.930 . S
C11 N9 1.375 . S
C11 C10 1.338 . S
C11 H15 0.931 . S
C12 N9 1.313 . S
C12 N13 1.344 . S
C12 H16 0.930 . S
N13 C10 1.377 . S
N13 C12 1.344 . S
O14 Co6 2.055 . S
O14 C18 1.253 . S
H15 C11 0.931 . S
H16 C12 0.930 . S
O17 Co6 2.039 . S
O17 C7 1.265 . S
C18 O14 1.253 . S
C18 O19 1.227 . S
O19 C18 1.227 . S
N20 Co6 2.140 . S
N20 C23 1.346 . S
N20 C24 1.345 . S
C21 C22 1.387 . S
C21 C25 1.391 . S
C22 C21 1.387 . S
C22 C23 1.369 . S
C22 H31 0.929 . S
C23 N20 1.346 . S
C23 C22 1.369 . S
C23 H26 0.928 . S
C24 N20 1.345 . S
C24 C25 1.371 . S
C24 H27 0.931 . S
C25 C21 1.391 . S
C25 C24 1.371 . S
C25 H32 0.930 . S
H26 C23 0.928 . S
H27 C24 0.931 . S
H28 C4 0.930 . S
H29 C1 0.930 . S
H30 C10 0.930 . S
H31 C22 0.929 . S
H32 C25 0.930 . S
C33 C34 1.351 . S
C33 N36 1.368 . S
C33 H38 0.931 . S
C34 C33 1.351 . S
C34 N35 1.373 . S
C34 H62 0.930 . S
N35 C34 1.373 . S
N35 C37 1.340 . S
N36 C33 1.368 . S
N36 C37 1.321 . S
N36 Co39 2.135 . S
C37 N35 1.340 . S
C37 N36 1.321 . S
C37 H61 0.930 . S
H38 C33 0.931 . S
Co39 N36 2.135 . S
Co39 N42 2.121 . S
Co39 O47 2.055 . S
Co39 O50 2.039 . S
Co39 N53 2.140 . S
C40 O41 1.227 . S
C40 O50 1.265 . S
O41 C40 1.227 . S
N42 Co39 2.121 . S
N42 C44 1.375 . S
N42 C45 1.313 . S
C43 C44 1.338 . S
C43 N46 1.377 . S
C43 H63 0.930 . S
C44 N42 1.375 . S
C44 C43 1.338 . S
C44 H48 0.931 . S
C45 N42 1.313 . S
C45 N46 1.344 . S
C45 H49 0.930 . S
N46 C43 1.377 . S
N46 C45 1.344 . S
O47 Co39 2.055 . S
O47 C51 1.253 . S
H48 C44 0.931 . S
H49 C45 0.930 . S
O50 Co39 2.039 . S
O50 C40 1.265 . S
C51 O47 1.253 . S
C51 O52 1.227 . S
O52 C51 1.227 . S
N53 Co39 2.140 . S
N53 C56 1.346 . S
N53 C57 1.345 . S
C54 C55 1.387 . S
C54 C58 1.391 . S
C55 C54 1.387 . S
C55 C56 1.369 . S
C55 H64 0.929 . S
C56 N53 1.346 . S
C56 C55 1.369 . S
C56 H59 0.928 . S
C57 N53 1.345 . S
C57 C58 1.371 . S
C57 H60 0.931 . S
C58 C54 1.391 . S
C58 C57 1.371 . S
C58 H65 0.930 . S
H59 C56 0.928 . S
H60 C57 0.931 . S
H61 C37 0.930 . S
H62 C34 0.930 . S
H63 C43 0.930 . S
H64 C55 0.929 . S
H65 C58 0.930 . S
C66 C67 1.351 . S
C66 N69 1.368 . S
C66 H71 0.931 . S
C67 C66 1.351 . S
C67 N68 1.373 . S
C67 H95 0.930 . S
N68 C67 1.373 . S
N68 C70 1.340 . S
N69 C66 1.368 . S
N69 C70 1.321 . S
N69 Co72 2.135 . S
C70 N68 1.340 . S
C70 N69 1.321 . S
C70 H94 0.930 . S
H71 C66 0.931 . S
Co72 N69 2.135 . S
Co72 N75 2.121 . S
Co72 O80 2.055 . S
Co72 O83 2.039 . S
Co72 N86 2.140 . S
C73 O74 1.227 . S
C73 O83 1.265 . S
O74 C73 1.227 . S
N75 Co72 2.121 . S
N75 C77 1.375 . S
N75 C78 1.313 . S
C76 C77 1.338 . S
C76 N79 1.377 . S
C76 H96 0.930 . S
C77 N75 1.375 . S
C77 C76 1.338 . S
C77 H81 0.931 . S
C78 N75 1.313 . S
C78 N79 1.344 . S
C78 H82 0.930 . S
N79 C76 1.377 . S
N79 C78 1.344 . S
O80 Co72 2.055 . S
O80 C84 1.253 . S
H81 C77 0.931 . S
H82 C78 0.930 . S
O83 Co72 2.039 . S
O83 C73 1.265 . S
C84 O80 1.253 . S
C84 O85 1.227 . S
O85 C84 1.227 . S
N86 Co72 2.140 . S
N86 C89 1.346 . S
N86 C90 1.345 . S
C87 C88 1.387 . S
C87 C91 1.391 . S
C88 C87 1.387 . S
C88 C89 1.369 . S
C88 H97 0.929 . S
C89 N86 1.346 . S
C89 C88 1.369 . S
C89 H92 0.928 . S
C90 N86 1.345 . S
C90 C91 1.371 . S
C90 H93 0.931 . S
C91 C87 1.391 . S
C91 C90 1.371 . S
C91 H98 0.930 . S
H92 C89 0.928 . S
H93 C90 0.931 . S
H94 C70 0.930 . S
H95 C67 0.930 . S
H96 C76 0.930 . S
H97 C88 0.929 . S
H98 C91 0.930 . S
C99 C100 1.351 . S
C99 N102 1.368 . S
C99 H104 0.931 . S
C100 C99 1.351 . S
C100 N101 1.373 . S
C100 H128 0.930 . S
N101 C100 1.373 . S
N101 C103 1.340 . S
N102 C99 1.368 . S
N102 C103 1.321 . S
N102 Co105 2.135 . S
C103 N101 1.340 . S
C103 N102 1.321 . S
C103 H127 0.930 . S
H104 C99 0.931 . S
Co105 N102 2.135 . S
Co105 N108 2.121 . S
Co105 O113 2.055 . S
Co105 O116 2.039 . S
Co105 N119 2.140 . S
C106 O107 1.227 . S
C106 O116 1.265 . S
O107 C106 1.227 . S
N108 Co105 2.121 . S
N108 C110 1.375 . S
N108 C111 1.313 . S
C109 C110 1.338 . S
C109 N112 1.377 . S
C109 H129 0.930 . S
C110 N108 1.375 . S
C110 C109 1.338 . S
C110 H114 0.931 . S
C111 N108 1.313 . S
C111 N112 1.344 . S
C111 H115 0.930 . S
N112 C109 1.377 . S
N112 C111 1.344 . S
O113 Co105 2.055 . S
O113 C117 1.253 . S
H114 C110 0.931 . S
H115 C111 0.930 . S
O116 Co105 2.039 . S
O116 C106 1.265 . S
C117 O113 1.253 . S
C117 O118 1.227 . S
O118 C117 1.227 . S
N119 Co105 2.140 . S
N119 C122 1.346 . S
N119 C123 1.345 . S
C120 C121 1.387 . S
C120 C124 1.391 . S
C121 C120 1.387 . S
C121 C122 1.369 . S
C121 H130 0.929 . S
C122 N119 1.346 . S
C122 C121 1.369 . S
C122 H125 0.928 . S
C123 N119 1.345 . S
C123 C124 1.371 . S
C123 H126 0.931 . S
C124 C120 1.391 . S
C124 C123 1.371 . S
C124 H131 0.930 . S
H125 C122 0.928 . S
H126 C123 0.931 . S
H127 C103 0.930 . S
H128 C100 0.930 . S
H129 C109 0.930 . S
H130 C121 0.929 . S
H131 C124 0.930 . S
C132 C133 1.351 . S
C132 N135 1.368 . S
C132 H137 0.931 . S
C133 C132 1.351 . S
C133 N134 1.373 . S
C133 H161 0.930 . S
N134 C133 1.373 . S
N134 C136 1.340 . S
N135 C132 1.368 . S
N135 C136 1.321 . S
N135 Co138 2.135 . S
C136 N134 1.340 . S
C136 N135 1.321 . S
C136 H160 0.930 . S
H137 C132 0.931 . S
Co138 N135 2.135 . S
Co138 N141 2.121 . S
Co138 O146 2.055 . S
Co138 O149 2.039 . S
Co138 N152 2.140 . S
C139 O140 1.227 . S
C139 O149 1.265 . S
O140 C139 1.227 . S
N141 Co138 2.121 . S
N141 C143 1.375 . S
N141 C144 1.313 . S
C142 C143 1.338 . S
C142 N145 1.377 . S
C142 H162 0.930 . S
C143 N141 1.375 . S
C143 C142 1.338 . S
C143 H147 0.931 . S
C144 N141 1.313 . S
C144 N145 1.344 . S
C144 H148 0.930 . S
N145 C142 1.377 . S
N145 C144 1.344 . S
O146 Co138 2.055 . S
O146 C150 1.253 . S
H147 C143 0.931 . S
H148 C144 0.930 . S
O149 Co138 2.039 . S
O149 C139 1.265 . S
C150 O146 1.253 . S
C150 O151 1.227 . S
O151 C150 1.227 . S
N152 Co138 2.140 . S
N152 C155 1.346 . S
N152 C156 1.345 . S
C153 C154 1.387 . S
C153 C157 1.391 . S
C154 C153 1.387 . S
C154 C155 1.369 . S
C154 H163 0.929 . S
C155 N152 1.346 . S
C155 C154 1.369 . S
C155 H158 0.928 . S
C156 N152 1.345 . S
C156 C157 1.371 . S
C156 H159 0.931 . S
C157 C153 1.391 . S
C157 C156 1.371 . S
C157 H164 0.930 . S
H158 C155 0.928 . S
H159 C156 0.931 . S
H160 C136 0.930 . S
H161 C133 0.930 . S
H162 C142 0.930 . S
H163 C154 0.929 . S
H164 C157 0.930 . S
C165 C166 1.351 . S
C165 N168 1.368 . S
C165 H170 0.931 . S
C166 C165 1.351 . S
C166 N167 1.373 . S
C166 H194 0.930 . S
N167 C166 1.373 . S
N167 C169 1.340 . S
N168 C165 1.368 . S
N168 C169 1.321 . S
N168 Co171 2.135 . S
C169 N167 1.340 . S
C169 N168 1.321 . S
C169 H193 0.930 . S
H170 C165 0.931 . S
Co171 N168 2.135 . S
Co171 N174 2.121 . S
Co171 O179 2.055 . S
Co171 O182 2.039 . S
Co171 N185 2.140 . S
C172 O173 1.227 . S
C172 O182 1.265 . S
O173 C172 1.227 . S
N174 Co171 2.121 . S
N174 C176 1.375 . S
N174 C177 1.313 . S
C175 C176 1.338 . S
C175 N178 1.377 . S
C175 H195 0.930 . S
C176 N174 1.375 . S
C176 C175 1.338 . S
C176 H180 0.931 . S
C177 N174 1.313 . S
C177 N178 1.344 . S
C177 H181 0.930 . S
N178 C175 1.377 . S
N178 C177 1.344 . S
O179 Co171 2.055 . S
O179 C183 1.253 . S
H180 C176 0.931 . S
H181 C177 0.930 . S
O182 Co171 2.039 . S
O182 C172 1.265 . S
C183 O179 1.253 . S
C183 O184 1.227 . S
O184 C183 1.227 . S
N185 Co171 2.140 . S
N185 C188 1.346 . S
N185 C189 1.345 . S
C186 C187 1.387 . S
C186 C190 1.391 . S
C187 C186 1.387 . S
C187 C188 1.369 . S
C187 H196 0.929 . S
C188 N185 1.346 . S
C188 C187 1.369 . S
C188 H191 0.928 . S
C189 N185 1.345 . S
C189 C190 1.371 . S
C189 H192 0.931 . S
C190 C186 1.391 . S
C190 C189 1.371 . S
C190 H197 0.930 . S
H191 C188 0.928 . S
H192 C189 0.931 . S
H193 C169 0.930 . S
H194 C166 0.930 . S
H195 C175 0.930 . S
H196 C187 0.929 . S
H197 C190 0.930 . S
C198 C199 1.351 . S
C198 N201 1.368 . S
C198 H203 0.931 . S
C199 C198 1.351 . S
C199 N200 1.373 . S
C199 H227 0.930 . S
N200 C199 1.373 . S
N200 C202 1.340 . S
N201 C198 1.368 . S
N201 C202 1.321 . S
N201 Co204 2.135 . S
C202 N200 1.340 . S
C202 N201 1.321 . S
C202 H226 0.930 . S
H203 C198 0.931 . S
Co204 N201 2.135 . S
Co204 N207 2.121 . S
Co204 O212 2.055 . S
Co204 O215 2.039 . S
Co204 N218 2.140 . S
C205 O206 1.227 . S
C205 O215 1.265 . S
O206 C205 1.227 . S
N207 Co204 2.121 . S
N207 C209 1.375 . S
N207 C210 1.313 . S
C208 C209 1.338 . S
C208 N211 1.377 . S
C208 H228 0.930 . S
C209 N207 1.375 . S
C209 C208 1.338 . S
C209 H213 0.931 . S
C210 N207 1.313 . S
C210 N211 1.344 . S
C210 H214 0.930 . S
N211 C208 1.377 . S
N211 C210 1.344 . S
O212 Co204 2.055 . S
O212 C216 1.253 . S
H213 C209 0.931 . S
H214 C210 0.930 . S
O215 Co204 2.039 . S
O215 C205 1.265 . S
C216 O212 1.253 . S
C216 O217 1.227 . S
O217 C216 1.227 . S
N218 Co204 2.140 . S
N218 C221 1.346 . S
N218 C222 1.345 . S
C219 C220 1.387 . S
C219 C223 1.391 . S
C220 C219 1.387 . S
C220 C221 1.369 . S
C220 H229 0.929 . S
C221 N218 1.346 . S
C221 C220 1.369 . S
C221 H224 0.928 . S
C222 N218 1.345 . S
C222 C223 1.371 . S
C222 H225 0.931 . S
C223 C219 1.391 . S
C223 C222 1.371 . S
C223 H230 0.930 . S
H224 C221 0.928 . S
H225 C222 0.931 . S
H226 C202 0.930 . S
H227 C199 0.930 . S
H228 C208 0.930 . S
H229 C220 0.929 . S
H230 C223 0.930 . S
C231 C232 1.351 . S
C231 N234 1.368 . S
C231 H236 0.931 . S
C232 C231 1.351 . S
C232 N233 1.373 . S
C232 H260 0.930 . S
N233 C232 1.373 . S
N233 C235 1.340 . S
N234 C231 1.368 . S
N234 C235 1.321 . S
N234 Co237 2.135 . S
C235 N233 1.340 . S
C235 N234 1.321 . S
C235 H259 0.930 . S
H236 C231 0.931 . S
Co237 N234 2.135 . S
Co237 N240 2.121 . S
Co237 O245 2.055 . S
Co237 O248 2.039 . S
Co237 N251 2.140 . S
C238 O239 1.227 . S
C238 O248 1.265 . S
O239 C238 1.227 . S
N240 Co237 2.121 . S
N240 C242 1.375 . S
N240 C243 1.313 . S
C241 C242 1.338 . S
C241 N244 1.377 . S
C241 H261 0.930 . S
C242 N240 1.375 . S
C242 C241 1.338 . S
C242 H246 0.931 . S
C243 N240 1.313 . S
C243 N244 1.344 . S
C243 H247 0.930 . S
N244 C241 1.377 . S
N244 C243 1.344 . S
O245 Co237 2.055 . S
O245 C249 1.253 . S
H246 C242 0.931 . S
H247 C243 0.930 . S
O248 Co237 2.039 . S
O248 C238 1.265 . S
C249 O245 1.253 . S
C249 O250 1.227 . S
O250 C249 1.227 . S
N251 Co237 2.140 . S
N251 C254 1.346 . S
N251 C255 1.345 . S
C252 C253 1.387 . S
C252 C256 1.391 . S
C253 C252 1.387 . S
C253 C254 1.369 . S
C253 H262 0.929 . S
C254 N251 1.346 . S
C254 C253 1.369 . S
C254 H257 0.928 . S
C255 N251 1.345 . S
C255 C256 1.371 . S
C255 H258 0.931 . S
C256 C252 1.391 . S
C256 C255 1.371 . S
C256 H263 0.930 . S
H257 C254 0.928 . S
H258 C255 0.931 . S
H259 C235 0.930 . S
H260 C232 0.930 . S
H261 C241 0.930 . S
H262 C253 0.929 . S
H263 C256 0.930 . S
C264 C265 1.351 . S
C264 N267 1.368 . S
C264 H269 0.931 . S
C265 C264 1.351 . S
C265 N266 1.373 . S
C265 H293 0.930 . S
N266 C265 1.373 . S
N266 C268 1.340 . S
N267 C264 1.368 . S
N267 C268 1.321 . S
N267 Co270 2.135 . S
C268 N266 1.340 . S
C268 N267 1.321 . S
C268 H292 0.930 . S
H269 C264 0.931 . S
Co270 N267 2.135 . S
Co270 N273 2.121 . S
Co270 O278 2.055 . S
Co270 O281 2.039 . S
Co270 N284 2.140 . S
C271 O272 1.227 . S
C271 O281 1.265 . S
O272 C271 1.227 . S
N273 Co270 2.121 . S
N273 C275 1.375 . S
N273 C276 1.313 . S
C274 C275 1.338 . S
C274 N277 1.377 . S
C274 H294 0.930 . S
C275 N273 1.375 . S
C275 C274 1.338 . S
C275 H279 0.931 . S
C276 N273 1.313 . S
C276 N277 1.344 . S
C276 H280 0.930 . S
N277 C274 1.377 . S
N277 C276 1.344 . S
O278 Co270 2.055 . S
O278 C282 1.253 . S
H279 C275 0.931 . S
H280 C276 0.930 . S
O281 Co270 2.039 . S
O281 C271 1.265 . S
C282 O278 1.253 . S
C282 O283 1.227 . S
O283 C282 1.227 . S
N284 Co270 2.140 . S
N284 C287 1.346 . S
N284 C288 1.345 . S
C285 C286 1.387 . S
C285 C289 1.391 . S
C286 C285 1.387 . S
C286 C287 1.369 . S
C286 H295 0.929 . S
C287 N284 1.346 . S
C287 C286 1.369 . S
C287 H290 0.928 . S
C288 N284 1.345 . S
C288 C289 1.371 . S
C288 H291 0.931 . S
C289 C285 1.391 . S
C289 C288 1.371 . S
C289 H296 0.930 . S
H290 C287 0.928 . S
H291 C288 0.931 . S
H292 C268 0.930 . S
H293 C265 0.930 . S
H294 C274 0.930 . S
H295 C286 0.929 . S
H296 C289 0.930 . S
C297 C298 1.351 . S
C297 N300 1.368 . S
C297 H302 0.931 . S
C298 C297 1.351 . S
C298 N299 1.373 . S
C298 H326 0.930 . S
N299 C298 1.373 . S
N299 C301 1.340 . S
N300 C297 1.368 . S
N300 C301 1.321 . S
N300 Co303 2.135 . S
C301 N299 1.340 . S
C301 N300 1.321 . S
C301 H325 0.930 . S
H302 C297 0.931 . S
Co303 N300 2.135 . S
Co303 N306 2.121 . S
Co303 O311 2.055 . S
Co303 O314 2.039 . S
Co303 N317 2.140 . S
C304 O305 1.227 . S
C304 O314 1.265 . S
O305 C304 1.227 . S
N306 Co303 2.121 . S
N306 C308 1.375 . S
N306 C309 1.313 . S
C307 C308 1.338 . S
C307 N310 1.377 . S
C307 H327 0.930 . S
C308 N306 1.375 . S
C308 C307 1.338 . S
C308 H312 0.931 . S
C309 N306 1.313 . S
C309 N310 1.344 . S
C309 H313 0.930 . S
N310 C307 1.377 . S
N310 C309 1.344 . S
O311 Co303 2.055 . S
O311 C315 1.253 . S
H312 C308 0.931 . S
H313 C309 0.930 . S
O314 Co303 2.039 . S
O314 C304 1.265 . S
C315 O311 1.253 . S
C315 O316 1.227 . S
O316 C315 1.227 . S
N317 Co303 2.140 . S
N317 C320 1.346 . S
N317 C321 1.345 . S
C318 C319 1.387 . S
C318 C322 1.391 . S
C319 C318 1.387 . S
C319 C320 1.369 . S
C319 H328 0.929 . S
C320 N317 1.346 . S
C320 C319 1.369 . S
C320 H323 0.928 . S
C321 N317 1.345 . S
C321 C322 1.371 . S
C321 H324 0.931 . S
C322 C318 1.391 . S
C322 C321 1.371 . S
C322 H329 0.930 . S
H323 C320 0.928 . S
H324 C321 0.931 . S
H325 C301 0.930 . S
H326 C298 0.930 . S
H327 C307 0.930 . S
H328 C319 0.929 . S
H329 C322 0.930 . S
C330 C331 1.351 . S
C330 N333 1.368 . S
C330 H335 0.931 . S
C331 C330 1.351 . S
C331 N332 1.373 . S
C331 H359 0.930 . S
N332 C331 1.373 . S
N332 C334 1.340 . S
N333 C330 1.368 . S
N333 C334 1.321 . S
N333 Co336 2.135 . S
C334 N332 1.340 . S
C334 N333 1.321 . S
C334 H358 0.930 . S
H335 C330 0.931 . S
Co336 N333 2.135 . S
Co336 N339 2.121 . S
Co336 O344 2.055 . S
Co336 O347 2.039 . S
Co336 N350 2.140 . S
C337 O338 1.227 . S
C337 O347 1.265 . S
O338 C337 1.227 . S
N339 Co336 2.121 . S
N339 C341 1.375 . S
N339 C342 1.313 . S
C340 C341 1.338 . S
C340 N343 1.377 . S
C340 H360 0.930 . S
C341 N339 1.375 . S
C341 C340 1.338 . S
C341 H345 0.931 . S
C342 N339 1.313 . S
C342 N343 1.344 . S
C342 H346 0.930 . S
N343 C340 1.377 . S
N343 C342 1.344 . S
O344 Co336 2.055 . S
O344 C348 1.253 . S
H345 C341 0.931 . S
H346 C342 0.930 . S
O347 Co336 2.039 . S
O347 C337 1.265 . S
C348 O344 1.253 . S
C348 O349 1.227 . S
O349 C348 1.227 . S
N350 Co336 2.140 . S
N350 C353 1.346 . S
N350 C354 1.345 . S
C351 C352 1.387 . S
C351 C355 1.391 . S
C352 C351 1.387 . S
C352 C353 1.369 . S
C352 H361 0.929 . S
C353 N350 1.346 . S
C353 C352 1.369 . S
C353 H356 0.928 . S
C354 N350 1.345 . S
C354 C355 1.371 . S
C354 H357 0.931 . S
C355 C351 1.391 . S
C355 C354 1.371 . S
C355 H362 0.930 . S
H356 C353 0.928 . S
H357 C354 0.931 . S
H358 C334 0.930 . S
H359 C331 0.930 . S
H360 C340 0.930 . S
H361 C352 0.929 . S
H362 C355 0.930 . S
C363 C364 1.351 . S
C363 N366 1.368 . S
C363 H368 0.931 . S
C364 C363 1.351 . S
C364 N365 1.373 . S
C364 H392 0.930 . S
N365 C364 1.373 . S
N365 C367 1.340 . S
N366 C363 1.368 . S
N366 C367 1.321 . S
N366 Co369 2.135 . S
C367 N365 1.340 . S
C367 N366 1.321 . S
C367 H391 0.930 . S
H368 C363 0.931 . S
Co369 N366 2.135 . S
Co369 N372 2.121 . S
Co369 O377 2.055 . S
Co369 O380 2.039 . S
Co369 N383 2.140 . S
C370 O371 1.227 . S
C370 O380 1.265 . S
O371 C370 1.227 . S
N372 Co369 2.121 . S
N372 C374 1.375 . S
N372 C375 1.313 . S
C373 C374 1.338 . S
C373 N376 1.377 . S
C373 H393 0.930 . S
C374 N372 1.375 . S
C374 C373 1.338 . S
C374 H378 0.931 . S
C375 N372 1.313 . S
C375 N376 1.344 . S
C375 H379 0.930 . S
N376 C373 1.377 . S
N376 C375 1.344 . S
O377 Co369 2.055 . S
O377 C381 1.253 . S
H378 C374 0.931 . S
H379 C375 0.930 . S
O380 Co369 2.039 . S
O380 C370 1.265 . S
C381 O377 1.253 . S
C381 O382 1.227 . S
O382 C381 1.227 . S
N383 Co369 2.140 . S
N383 C386 1.346 . S
N383 C387 1.345 . S
C384 C385 1.387 . S
C384 C388 1.391 . S
C385 C384 1.387 . S
C385 C386 1.369 . S
C385 H394 0.929 . S
C386 N383 1.346 . S
C386 C385 1.369 . S
C386 H389 0.928 . S
C387 N383 1.345 . S
C387 C388 1.371 . S
C387 H390 0.931 . S
C388 C384 1.391 . S
C388 C387 1.371 . S
C388 H395 0.930 . S
H389 C386 0.928 . S
H390 C387 0.931 . S
H391 C367 0.930 . S
H392 C364 0.930 . S
H393 C373 0.930 . S
H394 C385 0.929 . S
H395 C388 0.930 . S
C396 C397 1.351 . S
C396 N399 1.368 . S
C396 H401 0.931 . S
C397 C396 1.351 . S
C397 N398 1.373 . S
C397 H425 0.930 . S
N398 C397 1.373 . S
N398 C400 1.340 . S
N399 C396 1.368 . S
N399 C400 1.321 . S
N399 Co402 2.135 . S
C400 N398 1.340 . S
C400 N399 1.321 . S
C400 H424 0.930 . S
H401 C396 0.931 . S
Co402 N399 2.135 . S
Co402 N405 2.121 . S
Co402 O410 2.055 . S
Co402 O413 2.039 . S
Co402 N416 2.140 . S
C403 O404 1.227 . S
C403 O413 1.265 . S
O404 C403 1.227 . S
N405 Co402 2.121 . S
N405 C407 1.375 . S
N405 C408 1.313 . S
C406 C407 1.338 . S
C406 N409 1.377 . S
C406 H426 0.930 . S
C407 N405 1.375 . S
C407 C406 1.338 . S
C407 H411 0.931 . S
C408 N405 1.313 . S
C408 N409 1.344 . S
C408 H412 0.930 . S
N409 C406 1.377 . S
N409 C408 1.344 . S
O410 Co402 2.055 . S
O410 C414 1.253 . S
H411 C407 0.931 . S
H412 C408 0.930 . S
O413 Co402 2.039 . S
O413 C403 1.265 . S
C414 O410 1.253 . S
C414 O415 1.227 . S
O415 C414 1.227 . S
N416 Co402 2.140 . S
N416 C419 1.346 . S
N416 C420 1.345 . S
C417 C418 1.387 . S
C417 C421 1.391 . S
C418 C417 1.387 . S
C418 C419 1.369 . S
C418 H427 0.929 . S
C419 N416 1.346 . S
C419 C418 1.369 . S
C419 H422 0.928 . S
C420 N416 1.345 . S
C420 C421 1.371 . S
C420 H423 0.931 . S
C421 C417 1.391 . S
C421 C420 1.371 . S
C421 H428 0.930 . S
H422 C419 0.928 . S
H423 C420 0.931 . S
H424 C400 0.930 . S
H425 C397 0.930 . S
H426 C406 0.930 . S
H427 C418 0.929 . S
H428 C421 0.930 . S
C429 C430 1.351 . S
C429 N432 1.368 . S
C429 H434 0.931 . S
C430 C429 1.351 . S
C430 N431 1.373 . S
C430 H458 0.930 . S
N431 C430 1.373 . S
N431 C433 1.340 . S
N432 C429 1.368 . S
N432 C433 1.321 . S
N432 Co435 2.135 . S
C433 N431 1.340 . S
C433 N432 1.321 . S
C433 H457 0.930 . S
H434 C429 0.931 . S
Co435 N432 2.135 . S
Co435 N438 2.121 . S
Co435 O443 2.055 . S
Co435 O446 2.039 . S
Co435 N449 2.140 . S
C436 O437 1.227 . S
C436 O446 1.265 . S
O437 C436 1.227 . S
N438 Co435 2.121 . S
N438 C440 1.375 . S
N438 C441 1.313 . S
C439 C440 1.338 . S
C439 N442 1.377 . S
C439 H459 0.930 . S
C440 N438 1.375 . S
C440 C439 1.338 . S
C440 H444 0.931 . S
C441 N438 1.313 . S
C441 N442 1.344 . S
C441 H445 0.930 . S
N442 C439 1.377 . S
N442 C441 1.344 . S
O443 Co435 2.055 . S
O443 C447 1.253 . S
H444 C440 0.931 . S
H445 C441 0.930 . S
O446 Co435 2.039 . S
O446 C436 1.265 . S
C447 O443 1.253 . S
C447 O448 1.227 . S
O448 C447 1.227 . S
N449 Co435 2.140 . S
N449 C452 1.346 . S
N449 C453 1.345 . S
C450 C451 1.387 . S
C450 C454 1.391 . S
C451 C450 1.387 . S
C451 C452 1.369 . S
C451 H460 0.929 . S
C452 N449 1.346 . S
C452 C451 1.369 . S
C452 H455 0.928 . S
C453 N449 1.345 . S
C453 C454 1.371 . S
C453 H456 0.931 . S
C454 C450 1.391 . S
C454 C453 1.371 . S
C454 H461 0.930 . S
H455 C452 0.928 . S
H456 C453 0.931 . S
H457 C433 0.930 . S
H458 C430 0.930 . S
H459 C439 0.930 . S
H460 C451 0.929 . S
H461 C454 0.930 . S
C462 C463 1.351 . S
C462 N465 1.368 . S
C462 H467 0.931 . S
C463 C462 1.351 . S
C463 N464 1.373 . S
C463 H491 0.930 . S
N464 C463 1.373 . S
N464 C466 1.340 . S
N465 C462 1.368 . S
N465 C466 1.321 . S
N465 Co468 2.135 . S
C466 N464 1.340 . S
C466 N465 1.321 . S
C466 H490 0.930 . S
H467 C462 0.931 . S
Co468 N465 2.135 . S
Co468 N471 2.121 . S
Co468 O476 2.055 . S
Co468 O479 2.039 . S
Co468 N482 2.140 . S
C469 O470 1.227 . S
C469 O479 1.265 . S
O470 C469 1.227 . S
N471 Co468 2.121 . S
N471 C473 1.375 . S
N471 C474 1.313 . S
C472 C473 1.338 . S
C472 N475 1.377 . S
C472 H492 0.930 . S
C473 N471 1.375 . S
C473 C472 1.338 . S
C473 H477 0.931 . S
C474 N471 1.313 . S
C474 N475 1.344 . S
C474 H478 0.930 . S
N475 C472 1.377 . S
N475 C474 1.344 . S
O476 Co468 2.055 . S
O476 C480 1.253 . S
H477 C473 0.931 . S
H478 C474 0.930 . S
O479 Co468 2.039 . S
O479 C469 1.265 . S
C480 O476 1.253 . S
C480 O481 1.227 . S
O481 C480 1.227 . S
N482 Co468 2.140 . S
N482 C485 1.346 . S
N482 C486 1.345 . S
C483 C484 1.387 . S
C483 C487 1.391 . S
C484 C483 1.387 . S
C484 C485 1.369 . S
C484 H493 0.929 . S
C485 N482 1.346 . S
C485 C484 1.369 . S
C485 H488 0.928 . S
C486 N482 1.345 . S
C486 C487 1.371 . S
C486 H489 0.931 . S
C487 C483 1.391 . S
C487 C486 1.371 . S
C487 H494 0.930 . S
H488 C485 0.928 . S
H489 C486 0.931 . S
H490 C466 0.930 . S
H491 C463 0.930 . S
H492 C472 0.930 . S
H493 C484 0.929 . S
H494 C487 0.930 . S
C495 C496 1.351 . S
C495 N498 1.368 . S
C495 H500 0.931 . S
C496 C495 1.351 . S
C496 N497 1.373 . S
C496 H524 0.930 . S
N497 C496 1.373 . S
N497 C499 1.340 . S
N498 C495 1.368 . S
N498 C499 1.321 . S
N498 Co501 2.135 . S
C499 N497 1.340 . S
C499 N498 1.321 . S
C499 H523 0.930 . S
H500 C495 0.931 . S
Co501 N498 2.135 . S
Co501 N504 2.121 . S
Co501 O509 2.055 . S
Co501 O512 2.039 . S
Co501 N515 2.140 . S
C502 O503 1.227 . S
C502 O512 1.265 . S
O503 C502 1.227 . S
N504 Co501 2.121 . S
N504 C506 1.375 . S
N504 C507 1.313 . S
C505 C506 1.338 . S
C505 N508 1.377 . S
C505 H525 0.930 . S
C506 N504 1.375 . S
C506 C505 1.338 . S
C506 H510 0.931 . S
C507 N504 1.313 . S
C507 N508 1.344 . S
C507 H511 0.930 . S
N508 C505 1.377 . S
N508 C507 1.344 . S
O509 Co501 2.055 . S
O509 C513 1.253 . S
H510 C506 0.931 . S
H511 C507 0.930 . S
O512 Co501 2.039 . S
O512 C502 1.265 . S
C513 O509 1.253 . S
C513 O514 1.227 . S
O514 C513 1.227 . S
N515 Co501 2.140 . S
N515 C518 1.346 . S
N515 C519 1.345 . S
C516 C517 1.387 . S
C516 C520 1.391 . S
C517 C516 1.387 . S
C517 C518 1.369 . S
C517 H526 0.929 . S
C518 N515 1.346 . S
C518 C517 1.369 . S
C518 H521 0.928 . S
C519 N515 1.345 . S
C519 C520 1.371 . S
C519 H522 0.931 . S
C520 C516 1.391 . S
C520 C519 1.371 . S
C520 H527 0.930 . S
H521 C518 0.928 . S
H522 C519 0.931 . S
H523 C499 0.930 . S
H524 C496 0.930 . S
H525 C505 0.930 . S
H526 C517 0.929 . S
H527 C520 0.930 . S
H528 C540 0.930 . S
H529 C542 0.930 . S
H530 C543 0.930 . S
H531 C547 0.959 . S
H532 C547 0.959 . S
H533 C547 0.961 . S
H534 C548 0.960 . S
H535 C548 0.961 . S
H536 C548 0.959 . S
H537 C551 0.929 . S
H538 C552 0.931 . S
H539 C554 0.930 . S
C540 H528 0.930 . S
C540 C541 1.399 1_565 S
C540 C545 1.399 . S
C541 C540 1.399 1_545 S
C541 C542 1.376 . S
C542 H529 0.930 . S
C542 C541 1.376 . S
C542 C543 1.388 1_545 S
C543 H530 0.930 . S
C543 C542 1.388 1_565 S
C543 C544 1.390 . S
C544 C543 1.390 . S
C544 C545 1.394 . S
C544 C550 1.465 . S
C545 C540 1.399 . S
C545 C544 1.394 . S
C545 C546 1.516 . S
C546 C545 1.516 . S
C546 C547 1.502 . S
C546 C548 1.561 . S
C546 C549 1.526 . S
C547 H531 0.959 . S
C547 H532 0.959 . S
C547 H533 0.961 . S
C547 C546 1.502 . S
C548 H534 0.960 . S
C548 H535 0.961 . S
C548 H536 0.959 . S
C548 C546 1.561 . S
C549 C546 1.526 . S
C549 C550 1.396 . S
C549 C554 1.390 . S
C550 C544 1.465 . S
C550 C549 1.396 . S
C550 C551 1.399 . S
C551 H537 0.929 . S
C551 C550 1.399 . S
C551 C552 1.385 . S
C552 H538 0.931 . S
C552 C551 1.385 . S
C552 C553 1.389 . S
C553 C552 1.389 . S
C553 C554 1.387 . S
C554 H539 0.930 . S
C554 C549 1.390 . S
C554 C553 1.387 . S
H555 C567 0.930 . S
H556 C569 0.930 . S
H557 C570 0.930 . S
H558 C574 0.959 . S
H559 C574 0.959 . S
H560 C574 0.961 . S
H561 C575 0.960 . S
H562 C575 0.961 . S
H563 C575 0.959 . S
H564 C578 0.929 . S
H565 C579 0.931 . S
H566 C581 0.930 . S
C567 H555 0.930 . S
C567 C568 1.399 . S
C567 C572 1.399 . S
C568 C567 1.399 . S
C568 C569 1.376 . S
C569 H556 0.930 . S
C569 C568 1.376 . S
C569 C570 1.388 . S
C570 H557 0.930 . S
C570 C569 1.388 . S
C570 C571 1.390 . S
C571 C570 1.390 . S
C571 C572 1.394 . S
C571 C577 1.465 . S
C572 C567 1.399 . S
C572 C571 1.394 . S
C572 C573 1.516 . S
C573 C572 1.516 . S
C573 C574 1.502 . S
C573 C575 1.561 . S
C573 C576 1.526 . S
C574 H558 0.959 . S
C574 H559 0.959 . S
C574 H560 0.961 . S
C574 C573 1.502 . S
C575 H561 0.960 . S
C575 H562 0.961 . S
C575 H563 0.959 . S
C575 C573 1.561 . S
C576 C573 1.526 . S
C576 C577 1.396 . S
C576 C581 1.390 . S
C577 C571 1.465 . S
C577 C576 1.396 . S
C577 C578 1.399 . S
C578 H564 0.929 . S
C578 C577 1.399 . S
C578 C579 1.385 . S
C579 H565 0.931 . S
C579 C578 1.385 . S
C579 C580 1.389 . S
C580 C579 1.389 . S
C580 C581 1.387 . S
C581 H566 0.930 . S
C581 C576 1.390 . S
C581 C580 1.387 . S
H582 C594 0.930 1_565 S
H583 C596 0.930 . S
H584 C597 0.930 . S
H585 C601 0.959 . S
H586 C601 0.959 . S
H587 C601 0.961 . S
H588 C602 0.960 . S
H589 C602 0.961 . S
H590 C602 0.959 . S
H591 C605 0.929 . S
H592 C606 0.931 . S
H593 C608 0.930 . S
C594 H582 0.930 1_545 S
C594 C595 1.399 1_545 S
C594 C599 1.399 . S
C595 C594 1.399 1_565 S
C595 C596 1.376 1_565 S
C596 H583 0.930 . S
C596 C595 1.376 1_545 S
C596 C597 1.388 . S
C597 H584 0.930 . S
C597 C596 1.388 . S
C597 C598 1.390 . S
C598 C597 1.390 . S
C598 C599 1.394 . S
C598 C604 1.465 . S
C599 C594 1.399 . S
C599 C598 1.394 . S
C599 C600 1.516 . S
C600 C599 1.516 . S
C600 C601 1.502 . S
C600 C602 1.561 . S
C600 C603 1.526 . S
C601 H585 0.959 . S
C601 H586 0.959 . S
C601 H587 0.961 . S
C601 C600 1.502 . S
C602 H588 0.960 . S
C602 H589 0.961 . S
C602 H590 0.959 . S
C602 C600 1.561 . S
C603 C600 1.526 . S
C603 C604 1.396 . S
C603 C608 1.390 . S
C604 C598 1.465 . S
C604 C603 1.396 . S
C604 C605 1.399 . S
C605 H591 0.929 . S
C605 C604 1.399 . S
C605 C606 1.385 . S
C606 H592 0.931 . S
C606 C605 1.385 . S
C606 C607 1.389 . S
C607 C606 1.389 . S
C607 C608 1.387 . S
C608 H593 0.930 . S
C608 C603 1.390 . S
C608 C607 1.387 . S
H609 C621 0.930 . S
H610 C623 0.930 . S
H611 C624 0.930 . S
H612 C628 0.959 . S
H613 C628 0.959 . S
H614 C628 0.961 . S
H615 C629 0.960 . S
H616 C629 0.961 . S
H617 C629 0.959 . S
H618 C632 0.929 . S
H619 C633 0.931 . S
H620 C635 0.930 . S
C621 H609 0.930 . S
C621 C622 1.399 . S
C621 C626 1.399 . S
C622 C621 1.399 . S
C622 C623 1.376 . S
C623 H610 0.930 . S
C623 C622 1.376 . S
C623 C624 1.388 . S
C624 H611 0.930 . S
C624 C623 1.388 . S
C624 C625 1.390 . S
C625 C624 1.390 . S
C625 C626 1.394 . S
C625 C631 1.465 . S
C626 C621 1.399 . S
C626 C625 1.394 . S
C626 C627 1.516 . S
C627 C626 1.516 . S
C627 C628 1.502 . S
C627 C629 1.561 . S
C627 C630 1.526 . S
C628 H612 0.959 . S
C628 H613 0.959 . S
C628 H614 0.961 . S
C628 C627 1.502 . S
C629 H615 0.960 . S
C629 H616 0.961 . S
C629 H617 0.959 . S
C629 C627 1.561 . S
C630 C627 1.526 . S
C630 C631 1.396 . S
C630 C635 1.390 . S
C631 C625 1.465 . S
C631 C630 1.396 . S
C631 C632 1.399 . S
C632 H618 0.929 . S
C632 C631 1.399 . S
C632 C633 1.385 . S
C633 H619 0.931 . S
C633 C632 1.385 . S
C633 C634 1.389 . S
C634 C633 1.389 . S
C634 C635 1.387 . S
C635 H620 0.930 . S
C635 C630 1.390 . S
C635 C634 1.387 . S
H636 C648 0.930 1_565 S
H637 C650 0.930 . S
H638 C651 0.930 . S
H639 C655 0.959 . S
H640 C655 0.959 . S
H641 C655 0.961 . S
H642 C656 0.960 . S
H643 C656 0.961 . S
H644 C656 0.959 . S
H645 C659 0.929 . S
H646 C660 0.931 . S
H647 C662 0.930 . S
C648 H636 0.930 1_545 S
C648 C649 1.399 1_545 S
C648 C653 1.399 . S
C649 C648 1.399 1_565 S
C649 C650 1.376 1_565 S
C650 H637 0.930 . S
C650 C649 1.376 1_545 S
C650 C651 1.388 . S
C651 H638 0.930 . S
C651 C650 1.388 . S
C651 C652 1.390 . S
C652 C651 1.390 . S
C652 C653 1.394 . S
C652 C658 1.465 . S
C653 C648 1.399 . S
C653 C652 1.394 . S
C653 C654 1.516 . S
C654 C653 1.516 . S
C654 C655 1.502 . S
C654 C656 1.561 . S
C654 C657 1.526 . S
C655 H639 0.959 . S
C655 H640 0.959 . S
C655 H641 0.961 . S
C655 C654 1.502 . S
C656 H642 0.960 . S
C656 H643 0.961 . S
C656 H644 0.959 . S
C656 C654 1.561 . S
C657 C654 1.526 . S
C657 C658 1.396 . S
C657 C662 1.390 . S
C658 C652 1.465 . S
C658 C657 1.396 . S
C658 C659 1.399 . S
C659 H645 0.929 . S
C659 C658 1.399 . S
C659 C660 1.385 . S
C660 H646 0.931 . S
C660 C659 1.385 . S
C660 C661 1.389 . S
C661 C660 1.389 . S
C661 C662 1.387 . S
C662 H647 0.930 . S
C662 C657 1.390 . S
C662 C661 1.387 . S
H663 C675 0.930 . S
H664 C677 0.930 . S
H665 C678 0.930 . S
H666 C682 0.959 . S
H667 C682 0.959 . S
H668 C682 0.961 . S
H669 C683 0.960 . S
H670 C683 0.961 . S
H671 C683 0.959 . S
H672 C686 0.929 . S
H673 C687 0.931 . S
H674 C689 0.930 . S
C675 H663 0.930 . S
C675 C676 1.399 . S
C675 C680 1.399 . S
C676 C675 1.399 . S
C676 C677 1.376 . S
C677 H664 0.930 . S
C677 C676 1.376 . S
C677 C678 1.388 . S
C678 H665 0.930 . S
C678 C677 1.388 . S
C678 C679 1.390 . S
C679 C678 1.390 . S
C679 C680 1.394 . S
C679 C685 1.465 . S
C680 C675 1.399 . S
C680 C679 1.394 . S
C680 C681 1.516 . S
C681 C680 1.516 . S
C681 C682 1.502 . S
C681 C683 1.561 . S
C681 C684 1.526 . S
C682 H666 0.959 . S
C682 H667 0.959 . S
C682 H668 0.961 . S
C682 C681 1.502 . S
C683 H669 0.960 . S
C683 H670 0.961 . S
C683 H671 0.959 . S
C683 C681 1.561 . S
C684 C681 1.526 . S
C684 C685 1.396 . S
C684 C689 1.390 . S
C685 C679 1.465 . S
C685 C684 1.396 . S
C685 C686 1.399 . S
C686 H672 0.929 . S
C686 C685 1.399 . S
C686 C687 1.385 . S
C687 H673 0.931 . S
C687 C686 1.385 . S
C687 C688 1.389 . S
C688 C687 1.389 . S
C688 C689 1.387 . S
C689 H674 0.930 . S
C689 C684 1.390 . S
C689 C688 1.387 . S
H690 C702 0.930 . S
H691 C704 0.930 . S
H692 C705 0.930 . S
H693 C709 0.959 . S
H694 C709 0.959 . S
H695 C709 0.961 . S
H696 C710 0.960 . S
H697 C710 0.961 . S
H698 C710 0.959 . S
H699 C713 0.929 . S
H700 C714 0.931 . S
H701 C716 0.930 . S
C702 H690 0.930 . S
C702 C703 1.399 1_565 S
C702 C707 1.399 . S
C703 C702 1.399 1_545 S
C703 C704 1.376 . S
C704 H691 0.930 . S
C704 C703 1.376 . S
C704 C705 1.388 1_545 S
C705 H692 0.930 . S
C705 C704 1.388 1_565 S
C705 C706 1.390 . S
C706 C705 1.390 . S
C706 C707 1.394 . S
C706 C712 1.465 . S
C707 C702 1.399 . S
C707 C706 1.394 . S
C707 C708 1.516 . S
C708 C707 1.516 . S
C708 C709 1.502 . S
C708 C710 1.561 . S
C708 C711 1.526 . S
C709 H693 0.959 . S
C709 H694 0.959 . S
C709 H695 0.961 . S
C709 C708 1.502 . S
C710 H696 0.960 . S
C710 H697 0.961 . S
C710 H698 0.959 . S
C710 C708 1.561 . S
C711 C708 1.526 . S
C711 C712 1.396 . S
C711 C716 1.390 . S
C712 C706 1.465 . S
C712 C711 1.396 . S
C712 C713 1.399 . S
C713 H699 0.929 . S
C713 C712 1.399 . S
C713 C714 1.385 . S
C714 H700 0.931 . S
C714 C713 1.385 . S
C714 C715 1.389 . S
C715 C714 1.389 . S
C715 C716 1.387 . S
C716 H701 0.930 . S
C716 C711 1.390 . S
C716 C715 1.387 . S
H717 C729 0.930 . S
H718 C731 0.930 . S
H719 C732 0.930 . S
H720 C736 0.959 . S
H721 C736 0.959 . S
H722 C736 0.961 . S
H723 C737 0.960 . S
H724 C737 0.961 . S
H725 C737 0.959 . S
H726 C740 0.929 . S
H727 C741 0.931 . S
H728 C743 0.930 . S
C729 H717 0.930 . S
C729 C730 1.399 . S
C729 C734 1.399 . S
C730 C729 1.399 . S
C730 C731 1.376 . S
C731 H718 0.930 . S
C731 C730 1.376 . S
C731 C732 1.388 . S
C732 H719 0.930 . S
C732 C731 1.388 . S
C732 C733 1.390 . S
C733 C732 1.390 . S
C733 C734 1.394 . S
C733 C739 1.465 . S
C734 C729 1.399 . S
C734 C733 1.394 . S
C734 C735 1.516 . S
C735 C734 1.516 . S
C735 C736 1.502 . S
C735 C737 1.561 . S
C735 C738 1.526 . S
C736 H720 0.959 . S
C736 H721 0.959 . S
C736 H722 0.961 . S
C736 C735 1.502 . S
C737 H723 0.960 . S
C737 H724 0.961 . S
C737 H725 0.959 . S
C737 C735 1.561 . S
C738 C735 1.526 . S
C738 C739 1.396 . S
C738 C743 1.390 . S
C739 C733 1.465 . S
C739 C738 1.396 . S
C739 C740 1.399 . S
C740 H726 0.929 . S
C740 C739 1.399 . S
C740 C741 1.385 . S
C741 H727 0.931 . S
C741 C740 1.385 . S
C741 C742 1.389 . S
C742 C741 1.389 . S
C742 C743 1.387 . S
C743 H728 0.930 . S
C743 C738 1.390 . S
C743 C742 1.387 . S
H744 C756 0.930 . S
H745 C758 0.930 . S
H746 C759 0.930 . S
H747 C763 0.959 . S
H748 C763 0.959 . S
H749 C763 0.961 . S
H750 C764 0.960 . S
H751 C764 0.961 . S
H752 C764 0.959 . S
H753 C767 0.929 . S
H754 C768 0.931 . S
H755 C770 0.930 . S
C756 H744 0.930 . S
C756 C757 1.399 . S
C756 C761 1.399 . S
C757 C756 1.399 . S
C757 C758 1.376 . S
C758 H745 0.930 . S
C758 C757 1.376 . S
C758 C759 1.388 . S
C759 H746 0.930 . S
C759 C758 1.388 . S
C759 C760 1.390 . S
C760 C759 1.390 . S
C760 C761 1.394 . S
C760 C766 1.465 . S
C761 C756 1.399 . S
C761 C760 1.394 . S
C761 C762 1.516 . S
C762 C761 1.516 . S
C762 C763 1.502 . S
C762 C764 1.561 . S
C762 C765 1.526 . S
C763 H747 0.959 . S
C763 H748 0.959 . S
C763 H749 0.961 . S
C763 C762 1.502 . S
C764 H750 0.960 . S
C764 H751 0.961 . S
C764 H752 0.959 . S
C764 C762 1.561 . S
C765 C762 1.526 . S
C765 C766 1.396 . S
C765 C770 1.390 . S
C766 C760 1.465 . S
C766 C765 1.396 . S
C766 C767 1.399 . S
C767 H753 0.929 . S
C767 C766 1.399 . S
C767 C768 1.385 . S
C768 H754 0.931 . S
C768 C767 1.385 . S
C768 C769 1.389 . S
C769 C768 1.389 . S
C769 C770 1.387 . S
C770 H755 0.930 . S
C770 C765 1.390 . S
C770 C769 1.387 . S
H771 C783 0.930 . S
H772 C785 0.930 . S
H773 C786 0.930 . S
H774 C790 0.959 . S
H775 C790 0.959 . S
H776 C790 0.961 . S
H777 C791 0.960 . S
H778 C791 0.961 . S
H779 C791 0.959 . S
H780 C794 0.929 . S
H781 C795 0.931 . S
H782 C797 0.930 . S
C783 H771 0.930 . S
C783 C784 1.399 . S
C783 C788 1.399 . S
C784 C783 1.399 . S
C784 C785 1.376 . S
C785 H772 0.930 . S
C785 C784 1.376 . S
C785 C786 1.388 . S
C786 H773 0.930 . S
C786 C785 1.388 . S
C786 C787 1.390 . S
C787 C786 1.390 . S
C787 C788 1.394 . S
C787 C793 1.465 . S
C788 C783 1.399 . S
C788 C787 1.394 . S
C788 C789 1.516 . S
C789 C788 1.516 . S
C789 C790 1.502 . S
C789 C791 1.561 . S
C789 C792 1.526 . S
C790 H774 0.959 . S
C790 H775 0.959 . S
C790 H776 0.961 . S
C790 C789 1.502 . S
C791 H777 0.960 . S
C791 H778 0.961 . S
C791 H779 0.959 . S
C791 C789 1.561 . S
C792 C789 1.526 . S
C792 C793 1.396 . S
C792 C797 1.390 . S
C793 C787 1.465 . S
C793 C792 1.396 . S
C793 C794 1.399 . S
C794 H780 0.929 . S
C794 C793 1.399 . S
C794 C795 1.385 1_545 S
C795 H781 0.931 . S
C795 C794 1.385 1_565 S
C795 C796 1.389 . S
C796 C795 1.389 . S
C796 C797 1.387 1_565 S
C797 H782 0.930 . S
C797 C792 1.390 . S
C797 C796 1.387 1_545 S
H798 C810 0.930 . S
H799 C812 0.930 . S
H800 C813 0.930 . S
H801 C817 0.959 . S
H802 C817 0.959 . S
H803 C817 0.961 . S
H804 C818 0.960 . S
H805 C818 0.961 . S
H806 C818 0.959 . S
H807 C821 0.929 . S
H808 C822 0.931 . S
H809 C824 0.930 . S
C810 H798 0.930 . S
C810 C811 1.399 . S
C810 C815 1.399 . S
C811 C810 1.399 . S
C811 C812 1.376 . S
C812 H799 0.930 . S
C812 C811 1.376 . S
C812 C813 1.388 . S
C813 H800 0.930 . S
C813 C812 1.388 . S
C813 C814 1.390 . S
C814 C813 1.390 . S
C814 C815 1.394 . S
C814 C820 1.465 . S
C815 C810 1.399 . S
C815 C814 1.394 . S
C815 C816 1.516 . S
C816 C815 1.516 . S
C816 C817 1.502 . S
C816 C818 1.561 . S
C816 C819 1.526 . S
C817 H801 0.959 . S
C817 H802 0.959 . S
C817 H803 0.961 . S
C817 C816 1.502 . S
C818 H804 0.960 . S
C818 H805 0.961 . S
C818 H806 0.959 . S
C818 C816 1.561 . S
C819 C816 1.526 . S
C819 C820 1.396 . S
C819 C824 1.390 . S
C820 C814 1.465 . S
C820 C819 1.396 . S
C820 C821 1.399 . S
C821 H807 0.929 . S
C821 C820 1.399 . S
C821 C822 1.385 . S
C822 H808 0.931 . S
C822 C821 1.385 . S
C822 C823 1.389 . S
C823 C822 1.389 . S
C823 C824 1.387 . S
C824 H809 0.930 . S
C824 C819 1.390 . S
C824 C823 1.387 . S
H825 C837 0.930 1_545 S
H826 C839 0.930 . S
H827 C840 0.930 . S
H828 C844 0.959 . S
H829 C844 0.959 . S
H830 C844 0.961 . S
H831 C845 0.960 . S
H832 C845 0.961 . S
H833 C845 0.959 . S
H834 C848 0.929 . S
H835 C849 0.931 . S
H836 C851 0.930 . S
C837 H825 0.930 1_565 S
C837 C838 1.399 1_565 S
C837 C842 1.399 . S
C838 C837 1.399 1_545 S
C838 C839 1.376 1_545 S
C839 H826 0.930 . S
C839 C838 1.376 1_565 S
C839 C840 1.388 . S
C840 H827 0.930 . S
C840 C839 1.388 . S
C840 C841 1.390 . S
C841 C840 1.390 . S
C841 C842 1.394 . S
C841 C847 1.465 . S
C842 C837 1.399 . S
C842 C841 1.394 . S
C842 C843 1.516 . S
C843 C842 1.516 . S
C843 C844 1.502 . S
C843 C845 1.561 . S
C843 C846 1.526 . S
C844 H828 0.959 . S
C844 H829 0.959 . S
C844 H830 0.961 . S
C844 C843 1.502 . S
C845 H831 0.960 . S
C845 H832 0.961 . S
C845 H833 0.959 . S
C845 C843 1.561 . S
C846 C843 1.526 . S
C846 C847 1.396 . S
C846 C851 1.390 . S
C847 C841 1.465 . S
C847 C846 1.396 . S
C847 C848 1.399 . S
C848 H834 0.929 . S
C848 C847 1.399 . S
C848 C849 1.385 . S
C849 H835 0.931 . S
C849 C848 1.385 . S
C849 C850 1.389 . S
C850 C849 1.389 . S
C850 C851 1.387 . S
C851 H836 0.930 . S
C851 C846 1.390 . S
C851 C850 1.387 . S
H852 C864 0.930 . S
H853 C866 0.930 . S
H854 C867 0.930 . S
H855 C871 0.959 . S
H856 C871 0.959 . S
H857 C871 0.961 . S
H858 C872 0.960 . S
H859 C872 0.961 . S
H860 C872 0.959 . S
H861 C875 0.929 . S
H862 C876 0.931 . S
H863 C878 0.930 . S
C864 H852 0.930 . S
C864 C865 1.399 . S
C864 C869 1.399 . S
C865 C864 1.399 . S
C865 C866 1.376 . S
C866 H853 0.930 . S
C866 C865 1.376 . S
C866 C867 1.388 . S
C867 H854 0.930 . S
C867 C866 1.388 . S
C867 C868 1.390 . S
C868 C867 1.390 . S
C868 C869 1.394 . S
C868 C874 1.465 . S
C869 C864 1.399 . S
C869 C868 1.394 . S
C869 C870 1.516 . S
C870 C869 1.516 . S
C870 C871 1.502 . S
C870 C872 1.561 . S
C870 C873 1.526 . S
C871 H855 0.959 . S
C871 H856 0.959 . S
C871 H857 0.961 . S
C871 C870 1.502 . S
C872 H858 0.960 . S
C872 H859 0.961 . S
C872 H860 0.959 . S
C872 C870 1.561 . S
C873 C870 1.526 . S
C873 C874 1.396 . S
C873 C878 1.390 . S
C874 C868 1.465 . S
C874 C873 1.396 . S
C874 C875 1.399 . S
C875 H861 0.929 . S
C875 C874 1.399 . S
C875 C876 1.385 . S
C876 H862 0.931 . S
C876 C875 1.385 . S
C876 C877 1.389 . S
C877 C876 1.389 . S
C877 C878 1.387 . S
C878 H863 0.930 . S
C878 C873 1.390 . S
C878 C877 1.387 . S
H879 C891 0.930 . S
H880 C893 0.937 . S
H881 C894 0.930 . S
H882 C898 0.959 . S
H883 C898 0.959 . S
H884 C898 0.961 . S
H885 C899 0.960 . S
H886 C899 0.961 . S
H887 C899 0.959 . S
H888 C902 0.929 . S
H889 C903 0.931 . S
H890 C905 0.930 . S
C891 H879 0.930 . S
C891 C892 1.399 1_565 S
C891 C896 1.399 . S
C892 C891 1.399 1_545 S
C892 C893 1.376 1_545 S
C893 H880 0.937 . S
C893 C892 1.376 1_565 S
C893 C894 1.388 . S
C894 H881 0.930 . S
C894 C893 1.388 . S
C894 C895 1.390 . S
C895 C894 1.390 . S
C895 C896 1.394 . S
C895 C901 1.465 . S
C896 C891 1.399 . S
C896 C895 1.394 . S
C896 C897 1.516 . S
C897 C896 1.516 . S
C897 C898 1.502 . S
C897 C899 1.561 . S
C897 C900 1.526 . S
C898 H882 0.959 . S
C898 H883 0.959 . S
C898 H884 0.961 . S
C898 C897 1.502 . S
C899 H885 0.960 . S
C899 H886 0.961 . S
C899 H887 0.959 . S
C899 C897 1.561 . S
C900 C897 1.526 . S
C900 C901 1.396 . S
C900 C905 1.390 . S
C901 C895 1.465 . S
C901 C900 1.396 . S
C901 C902 1.399 . S
C902 H888 0.929 . S
C902 C901 1.399 . S
C902 C903 1.385 . S
C903 H889 0.931 . S
C903 C902 1.385 . S
C903 C904 1.389 . S
C904 C903 1.389 . S
C904 C905 1.387 . S
C905 H890 0.930 . S
C905 C900 1.390 . S
C905 C904 1.387 . S
H906 C918 0.930 . S
H907 C920 0.930 . S
H908 C921 0.930 . S
H909 C925 0.959 . S
H910 C925 0.959 . S
H911 C925 0.961 . S
H912 C926 0.960 . S
H913 C926 0.961 . S
H914 C926 0.959 . S
H915 C929 0.929 . S
H916 C930 0.931 . S
H917 C932 0.930 . S
C918 H906 0.930 . S
C918 C919 1.399 . S
C918 C923 1.399 . S
C919 C918 1.399 . S
C919 C920 1.376 . S
C920 H907 0.930 . S
C920 C919 1.376 . S
C920 C921 1.388 . S
C921 H908 0.930 . S
C921 C920 1.388 . S
C921 C922 1.390 . S
C922 C921 1.390 . S
C922 C923 1.394 . S
C922 C928 1.465 . S
C923 C918 1.399 . S
C923 C922 1.394 . S
C923 C924 1.516 . S
C924 C923 1.516 . S
C924 C925 1.502 . S
C924 C926 1.561 . S
C924 C927 1.526 . S
C925 H909 0.959 . S
C925 H910 0.959 . S
C925 H911 0.961 . S
C925 C924 1.502 . S
C926 H912 0.960 . S
C926 H913 0.961 . S
C926 H914 0.959 . S
C926 C924 1.561 . S
C927 C924 1.526 . S
C927 C928 1.396 . S
C927 C932 1.390 . S
C928 C922 1.465 . S
C928 C927 1.396 . S
C928 C929 1.399 . S
C929 H915 0.929 . S
C929 C928 1.399 . S
C929 C930 1.385 . S
C930 H916 0.931 . S
C930 C929 1.385 . S
C930 C931 1.389 . S
C931 C930 1.389 . S
C931 C932 1.387 . S
C932 H917 0.930 . S
C932 C927 1.390 . S
C932 C931 1.387 . S
H933 C945 0.930 . S
H934 C947 0.930 . S
H935 C948 0.930 . S
H936 C952 0.959 . S
H937 C952 0.959 . S
H938 C952 0.961 . S
H939 C953 0.960 . S
H940 C953 0.961 . S
H941 C953 0.959 . S
H942 C956 0.929 . S
H943 C957 0.931 1_565 S
H944 C959 0.930 . S
C945 H933 0.930 . S
C945 C946 1.399 . S
C945 C950 1.399 . S
C946 C945 1.399 . S
C946 C947 1.376 . S
C947 H934 0.930 . S
C947 C946 1.376 . S
C947 C948 1.388 . S
C948 H935 0.930 . S
C948 C947 1.388 . S
C948 C949 1.390 . S
C949 C948 1.390 . S
C949 C950 1.394 . S
C949 C955 1.465 . S
C950 C945 1.399 . S
C950 C949 1.394 . S
C950 C951 1.516 . S
C951 C950 1.516 . S
C951 C952 1.502 . S
C951 C953 1.561 . S
C951 C954 1.526 . S
C952 H936 0.959 . S
C952 H937 0.959 . S
C952 H938 0.961 . S
C952 C951 1.502 . S
C953 H939 0.960 . S
C953 H940 0.961 . S
C953 H941 0.959 . S
C953 C951 1.561 . S
C954 C951 1.526 . S
C954 C955 1.396 . S
C954 C959 1.390 . S
C955 C949 1.465 . S
C955 C954 1.396 . S
C955 C956 1.399 . S
C956 H942 0.929 . S
C956 C955 1.399 . S
C956 C957 1.385 . S
C957 H943 0.931 1_545 S
C957 C956 1.385 . S
C957 C958 1.389 1_545 S
C958 C957 1.389 1_565 S
C958 C959 1.387 1_565 S
C959 H944 0.930 . S
C959 C954 1.390 . S
C959 C958 1.387 1_545 S
H960 C972 0.930 . S
H961 C974 0.930 . S
H962 C975 0.930 . S
H963 C979 0.959 . S
H964 C979 0.959 . S
H965 C979 0.961 . S
H966 C980 0.967 . S
H967 C980 0.952 1_556 S
H968 C980 0.963 . S
H969 C983 0.929 . S
H970 C984 0.931 . S
H971 C986 0.930 . S
C972 H960 0.930 . S
C972 C973 1.399 . S
C972 C977 1.399 . S
C973 C972 1.399 . S
C973 C974 1.376 . S
C974 H961 0.930 . S
C974 C973 1.376 . S
C974 C975 1.388 . S
C975 H962 0.930 . S
C975 C974 1.388 . S
C975 C976 1.390 . S
C976 C975 1.390 . S
C976 C977 1.394 . S
C976 C982 1.465 1_554 S
C977 C972 1.399 . S
C977 C976 1.394 . S
C977 C978 1.516 1_554 S
C978 C977 1.516 1_556 S
C978 C979 1.502 . S
C978 C980 1.559 1_556 S
C978 C981 1.526 . S
C979 H963 0.959 . S
C979 H964 0.959 . S
C979 H965 0.961 . S
C979 C978 1.502 . S
C980 H966 0.967 . S
C980 H967 0.952 1_554 S
C980 H968 0.963 . S
C980 C978 1.559 1_554 S
C981 C978 1.526 . S
C981 C982 1.396 . S
C981 C986 1.390 . S
C982 C976 1.465 1_556 S
C982 C981 1.396 . S
C982 C983 1.399 . S
C983 H969 0.929 . S
C983 C982 1.399 . S
C983 C984 1.385 . S
C984 H970 0.931 . S
C984 C983 1.385 . S
C984 C985 1.389 . S
C985 C984 1.389 . S
C985 C986 1.387 . S
C986 H971 0.930 . S
C986 C981 1.390 . S
C986 C985 1.387 . S
H987 C999 0.930 . S
H988 C1001 0.930 . S
H989 C1002 0.930 . S
H990 C1006 0.959 . S
H991 C1006 0.959 . S
H992 C1006 0.961 . S
H993 C1007 0.960 1_556 S
H994 C1007 0.961 . S
H995 C1007 0.959 . S
H996 C1010 0.929 . S
H997 C1011 0.931 . S
H998 C1013 0.930 . S
C999 H987 0.930 . S
C999 C1000 1.399 . S
C999 C1004 1.399 . S
C1000 C999 1.399 . S
C1000 C1001 1.376 . S
C1001 H988 0.930 . S
C1001 C1000 1.376 . S
C1001 C1002 1.388 . S
C1002 H989 0.930 . S
C1002 C1001 1.388 . S
C1002 C1003 1.390 . S
C1003 C1002 1.390 . S
C1003 C1004 1.394 . S
C1003 C1009 1.465 1_556 S
C1004 C999 1.399 . S
C1004 C1003 1.394 . S
C1004 C1005 1.516 . S
C1005 C1004 1.516 . S
C1005 C1006 1.502 . S
C1005 C1007 1.561 1_556 S
C1005 C1008 1.526 1_556 S
C1006 H990 0.959 . S
C1006 H991 0.959 . S
C1006 H992 0.961 . S
C1006 C1005 1.502 . S
C1007 H993 0.960 1_554 S
C1007 H994 0.961 . S
C1007 H995 0.959 . S
C1007 C1005 1.561 1_554 S
C1008 C1005 1.526 1_554 S
C1008 C1009 1.396 . S
C1008 C1013 1.390 . S
C1009 C1003 1.465 1_554 S
C1009 C1008 1.396 . S
C1009 C1010 1.399 . S
C1010 H996 0.929 . S
C1010 C1009 1.399 . S
C1010 C1011 1.385 . S
C1011 H997 0.931 . S
C1011 C1010 1.385 . S
C1011 C1012 1.389 . S
C1012 C1011 1.389 . S
C1012 C1013 1.387 . S
C1013 H998 0.930 . S
C1013 C1008 1.390 . S
C1013 C1012 1.387 . S
H1014 C1026 0.930 . S
H1015 C1028 0.930 . S
H1016 C1029 0.930 . S
H1017 C1033 0.959 . S
H1018 C1033 0.959 . S
H1019 C1033 0.961 . S
H1020 C1034 0.960 . S
H1021 C1034 0.961 . S
H1022 C1034 0.959 . S
H1023 C1037 0.929 . S
H1024 C1038 0.931 . S
H1025 C1040 0.930 . S
C1026 H1014 0.930 . S
C1026 C1027 1.399 . S
C1026 C1031 1.399 . S
C1027 C1026 1.399 . S
C1027 C1028 1.376 . S
C1028 H1015 0.930 . S
C1028 C1027 1.376 . S
C1028 C1029 1.388 . S
C1029 H1016 0.930 . S
C1029 C1028 1.388 . S
C1029 C1030 1.390 . S
C1030 C1029 1.390 . S
C1030 C1031 1.394 . S
C1030 C1036 1.465 . S
C1031 C1026 1.399 . S
C1031 C1030 1.394 . S
C1031 C1032 1.516 . S
C1032 C1031 1.516 . S
C1032 C1033 1.502 . S
C1032 C1034 1.561 . S
C1032 C1035 1.526 . S
C1033 H1017 0.959 . S
C1033 H1018 0.959 . S
C1033 H1019 0.961 . S
C1033 C1032 1.502 . S
C1034 H1020 0.960 . S
C1034 H1021 0.961 . S
C1034 H1022 0.959 . S
C1034 C1032 1.561 . S
C1035 C1032 1.526 . S
C1035 C1036 1.396 . S
C1035 C1040 1.390 . S
C1036 C1030 1.465 . S
C1036 C1035 1.396 . S
C1036 C1037 1.399 . S
C1037 H1023 0.929 . S
C1037 C1036 1.399 . S
C1037 C1038 1.385 . S
C1038 H1024 0.931 . S
C1038 C1037 1.385 . S
C1038 C1039 1.389 . S
C1039 C1038 1.389 . S
C1039 C1040 1.387 . S
C1040 H1025 0.930 . S
C1040 C1035 1.390 . S
C1040 C1039 1.387 . S
H1041 C1053 0.930 . S
H1042 C1055 0.930 . S
H1043 C1056 0.930 . S
H1044 C1060 0.959 . S
H1045 C1060 0.959 . S
H1046 C1060 0.961 . S
H1047 C1061 0.960 . S
H1048 C1061 0.961 . S
H1049 C1061 0.959 . S
H1050 C1064 0.929 . S
H1051 C1065 0.931 . S
H1052 C1067 0.930 . S
C1053 H1041 0.930 . S
C1053 C1054 1.399 . S
C1053 C1058 1.399 . S
C1054 C1053 1.399 . S
C1054 C1055 1.376 . S
C1055 H1042 0.930 . S
C1055 C1054 1.376 . S
C1055 C1056 1.388 . S
C1056 H1043 0.930 . S
C1056 C1055 1.388 . S
C1056 C1057 1.390 . S
C1057 C1056 1.390 . S
C1057 C1058 1.394 . S
C1057 C1063 1.465 . S
C1058 C1053 1.399 . S
C1058 C1057 1.394 . S
C1058 C1059 1.516 . S
C1059 C1058 1.516 . S
C1059 C1060 1.502 . S
C1059 C1061 1.561 . S
C1059 C1062 1.526 . S
C1060 H1044 0.959 . S
C1060 H1045 0.959 . S
C1060 H1046 0.961 . S
C1060 C1059 1.502 . S
C1061 H1047 0.960 . S
C1061 H1048 0.961 . S
C1061 H1049 0.959 . S
C1061 C1059 1.561 . S
C1062 C1059 1.526 . S
C1062 C1063 1.396 . S
C1062 C1067 1.390 . S
C1063 C1057 1.465 . S
C1063 C1062 1.396 . S
C1063 C1064 1.399 . S
C1064 H1050 0.929 . S
C1064 C1063 1.399 . S
C1064 C1065 1.385 . S
C1065 H1051 0.931 . S
C1065 C1064 1.385 . S
C1065 C1066 1.389 . S
C1066 C1065 1.389 . S
C1066 C1067 1.387 . S
C1067 H1052 0.930 . S
C1067 C1062 1.390 . S
C1067 C1066 1.387 . S
H1068 C1080 0.930 . S
H1069 C1082 0.930 . S
H1070 C1083 0.930 . S
H1071 C1087 0.959 . S
H1072 C1087 0.959 . S
H1073 C1087 0.961 . S
H1074 C1088 0.992 . S
H1075 C1088 0.923 1_554 S
H1076 C1088 0.976 . S
H1077 C1091 0.929 . S
H1078 C1092 0.931 . S
H1079 C1094 0.930 . S
C1080 H1068 0.930 . S
C1080 C1081 1.399 . S
C1080 C1085 1.399 . S
C1081 C1080 1.399 . S
C1081 C1082 1.376 . S
C1082 H1069 0.930 . S
C1082 C1081 1.376 . S
C1082 C1083 1.388 . S
C1083 H1070 0.930 . S
C1083 C1082 1.388 . S
C1083 C1084 1.390 . S
C1084 C1083 1.390 . S
C1084 C1085 1.394 . S
C1084 C1090 1.465 1_556 S
C1085 C1080 1.399 . S
C1085 C1084 1.394 . S
C1085 C1086 1.516 1_556 S
C1086 C1085 1.516 1_554 S
C1086 C1087 1.502 . S
C1086 C1088 1.551 1_554 S
C1086 C1089 1.526 . S
C1087 H1071 0.959 . S
C1087 H1072 0.959 . S
C1087 H1073 0.961 . S
C1087 C1086 1.502 . S
C1088 H1074 0.992 . S
C1088 H1075 0.923 1_556 S
C1088 H1076 0.976 . S
C1088 C1086 1.551 1_556 S
C1089 C1086 1.526 . S
C1089 C1090 1.396 . S
C1089 C1094 1.390 . S
C1090 C1084 1.465 1_554 S
C1090 C1089 1.396 . S
C1090 C1091 1.399 . S
C1091 H1077 0.929 . S
C1091 C1090 1.399 . S
C1091 C1092 1.385 . S
C1092 H1078 0.931 . S
C1092 C1091 1.385 . S
C1092 C1093 1.389 . S
C1093 C1092 1.389 . S
C1093 C1094 1.387 . S
C1094 H1079 0.930 . S
C1094 C1089 1.390 . S
C1094 C1093 1.387 . S
H1095 C1107 0.930 . S
H1096 C1109 0.930 . S
H1097 C1110 0.930 . S
H1098 C1114 0.959 . S
H1099 C1114 0.959 . S
H1100 C1114 0.961 . S
H1101 C1115 0.960 1_554 S
H1102 C1115 0.961 . S
H1103 C1115 0.959 1_554 S
H1104 C1118 0.929 . S
H1105 C1119 0.931 . S
H1106 C1121 0.930 . S
C1107 H1095 0.930 . S
C1107 C1108 1.399 . S
C1107 C1112 1.399 . S
C1108 C1107 1.399 . S
C1108 C1109 1.376 . S
C1109 H1096 0.930 . S
C1109 C1108 1.376 . S
C1109 C1110 1.388 . S
C1110 H1097 0.930 . S
C1110 C1109 1.388 . S
C1110 C1111 1.390 . S
C1111 C1110 1.390 . S
C1111 C1112 1.394 . S
C1111 C1117 1.465 1_554 S
C1112 C1107 1.399 . S
C1112 C1111 1.394 . S
C1112 C1113 1.516 1_554 S
C1113 C1112 1.516 1_556 S
C1113 C1114 1.502 . S
C1113 C1115 1.561 . S
C1113 C1116 1.526 . S
C1114 H1098 0.959 . S
C1114 H1099 0.959 . S
C1114 H1100 0.961 . S
C1114 C1113 1.502 . S
C1115 H1101 0.960 1_556 S
C1115 H1102 0.961 . S
C1115 H1103 0.959 1_556 S
C1115 C1113 1.561 . S
C1116 C1113 1.526 . S
C1116 C1117 1.396 . S
C1116 C1121 1.390 . S
C1117 C1111 1.465 1_556 S
C1117 C1116 1.396 . S
C1117 C1118 1.399 . S
C1118 H1104 0.929 . S
C1118 C1117 1.399 . S
C1118 C1119 1.385 . S
C1119 H1105 0.931 . S
C1119 C1118 1.385 . S
C1119 C1120 1.389 . S
C1120 C1119 1.389 . S
C1120 C1121 1.387 . S
C1121 H1106 0.930 . S
C1121 C1116 1.390 . S
C1121 C1120 1.387 . S
H1122 C1134 0.930 . S
H1123 C1136 0.930 . S
H1124 C1137 0.930 . S
H1125 C1141 0.959 . S
H1126 C1141 0.959 . S
H1127 C1141 0.961 . S
H1128 C1142 0.960 . S
H1129 C1142 0.961 . S
H1130 C1142 0.959 . S
H1131 C1145 0.929 . S
H1132 C1146 0.931 . S
H1133 C1148 0.930 . S
C1134 H1122 0.930 . S
C1134 C1135 1.399 . S
C1134 C1139 1.399 . S
C1135 C1134 1.399 . S
C1135 C1136 1.376 . S
C1136 H1123 0.930 . S
C1136 C1135 1.376 . S
C1136 C1137 1.388 . S
C1137 H1124 0.930 . S
C1137 C1136 1.388 . S
C1137 C1138 1.390 . S
C1138 C1137 1.390 . S
C1138 C1139 1.394 . S
C1138 C1144 1.465 . S
C1139 C1134 1.399 . S
C1139 C1138 1.394 . S
C1139 C1140 1.516 . S
C1140 C1139 1.516 . S
C1140 C1141 1.502 . S
C1140 C1142 1.561 . S
C1140 C1143 1.526 . S
C1141 H1125 0.959 . S
C1141 H1126 0.959 . S
C1141 H1127 0.961 . S
C1141 C1140 1.502 . S
C1142 H1128 0.960 . S
C1142 H1129 0.961 . S
C1142 H1130 0.959 . S
C1142 C1140 1.561 . S
C1143 C1140 1.526 . S
C1143 C1144 1.396 . S
C1143 C1148 1.390 . S
C1144 C1138 1.465 . S
C1144 C1143 1.396 . S
C1144 C1145 1.399 . S
C1145 H1131 0.929 . S
C1145 C1144 1.399 . S
C1145 C1146 1.385 . S
C1146 H1132 0.931 . S
C1146 C1145 1.385 . S
C1146 C1147 1.389 . S
C1147 C1146 1.389 . S
C1147 C1148 1.387 . S
C1148 H1133 0.930 . S
C1148 C1143 1.390 . S
C1148 C1147 1.387 . S
H1149 C1161 0.930 . S
H1150 C1163 0.930 . S
H1151 C1164 0.930 . S
H1152 C1168 0.959 . S
H1153 C1168 0.959 . S
H1154 C1168 0.961 . S
H1155 C1169 0.960 . S
H1156 C1169 0.961 . S
H1157 C1169 0.959 . S
H1158 C1172 0.929 . S
H1159 C1173 0.931 . S
H1160 C1175 0.930 . S
C1161 H1149 0.930 . S
C1161 C1162 1.399 . S
C1161 C1166 1.399 . S
C1162 C1161 1.399 . S
C1162 C1163 1.376 . S
C1163 H1150 0.930 . S
C1163 C1162 1.376 . S
C1163 C1164 1.388 . S
C1164 H1151 0.930 . S
C1164 C1163 1.388 . S
C1164 C1165 1.390 . S
C1165 C1164 1.390 . S
C1165 C1166 1.394 . S
C1165 C1171 1.465 . S
C1166 C1161 1.399 . S
C1166 C1165 1.394 . S
C1166 C1167 1.516 . S
C1167 C1166 1.516 . S
C1167 C1168 1.502 . S
C1167 C1169 1.561 . S
C1167 C1170 1.526 . S
C1168 H1152 0.959 . S
C1168 H1153 0.959 . S
C1168 H1154 0.961 . S
C1168 C1167 1.502 . S
C1169 H1155 0.960 . S
C1169 H1156 0.961 . S
C1169 H1157 0.959 . S
C1169 C1167 1.561 . S
C1170 C1167 1.526 . S
C1170 C1171 1.396 . S
C1170 C1175 1.390 . S
C1171 C1165 1.465 . S
C1171 C1170 1.396 . S
C1171 C1172 1.399 . S
C1172 H1158 0.929 . S
C1172 C1171 1.399 . S
C1172 C1173 1.385 . S
C1173 H1159 0.931 . S
C1173 C1172 1.385 . S
C1173 C1174 1.389 . S
C1174 C1173 1.389 . S
C1174 C1175 1.387 . S
C1175 H1160 0.930 . S
C1175 C1170 1.390 . S
C1175 C1174 1.387 . S
H1176 C1188 0.930 . S
H1177 C1190 0.930 . S
H1178 C1191 0.930 . S
H1179 C1195 0.959 . S
H1180 C1195 0.959 . S
H1181 C1195 0.961 . S
H1182 C1196 0.960 . S
H1183 C1196 0.961 . S
H1184 C1196 0.959 . S
H1185 C1199 0.929 . S
H1186 C1200 0.931 . S
H1187 C1202 0.930 . S
C1188 H1176 0.930 . S
C1188 C1189 1.399 . S
C1188 C1193 1.399 . S
C1189 C1188 1.399 . S
C1189 C1190 1.376 . S
C1190 H1177 0.930 . S
C1190 C1189 1.376 . S
C1190 C1191 1.388 1_545 S
C1191 H1178 0.930 . S
C1191 C1190 1.388 1_565 S
C1191 C1192 1.390 . S
C1192 C1191 1.390 . S
C1192 C1193 1.394 1_565 S
C1192 C1198 1.465 . S
C1193 C1188 1.399 . S
C1193 C1192 1.394 1_545 S
C1193 C1194 1.516 . S
C1194 C1193 1.516 . S
C1194 C1195 1.502 . S
C1194 C1196 1.561 . S
C1194 C1197 1.526 1_545 S
C1195 H1179 0.959 . S
C1195 H1180 0.959 . S
C1195 H1181 0.961 . S
C1195 C1194 1.502 . S
C1196 H1182 0.960 . S
C1196 H1183 0.961 . S
C1196 H1184 0.959 . S
C1196 C1194 1.561 . S
C1197 C1194 1.526 1_565 S
C1197 C1198 1.396 . S
C1197 C1202 1.390 . S
C1198 C1192 1.465 . S
C1198 C1197 1.396 . S
C1198 C1199 1.399 . S
C1199 H1185 0.929 . S
C1199 C1198 1.399 . S
C1199 C1200 1.385 . S
C1200 H1186 0.931 . S
C1200 C1199 1.385 . S
C1200 C1201 1.389 . S
C1201 C1200 1.389 . S
C1201 C1202 1.387 . S
C1202 H1187 0.930 . S
C1202 C1197 1.390 . S
C1202 C1201 1.387 . S
H1203 C1215 0.930 . S
H1204 C1217 0.930 . S
H1205 C1218 0.930 . S
H1206 C1222 0.959 . S
H1207 C1222 0.959 . S
H1208 C1222 0.961 . S
H1209 C1223 0.960 . S
H1210 C1223 0.961 . S
H1211 C1223 0.959 . S
H1212 C1226 0.929 . S
H1213 C1227 0.931 . S
H1214 C1229 0.930 . S
C1215 H1203 0.930 . S
C1215 C1216 1.399 . S
C1215 C1220 1.399 . S
C1216 C1215 1.399 . S
C1216 C1217 1.376 . S
C1217 H1204 0.930 . S
C1217 C1216 1.376 . S
C1217 C1218 1.388 . S
C1218 H1205 0.930 . S
C1218 C1217 1.388 . S
C1218 C1219 1.390 . S
C1219 C1218 1.390 . S
C1219 C1220 1.394 . S
C1219 C1225 1.465 . S
C1220 C1215 1.399 . S
C1220 C1219 1.394 . S
C1220 C1221 1.516 . S
C1221 C1220 1.516 . S
C1221 C1222 1.502 . S
C1221 C1223 1.561 . S
C1221 C1224 1.526 . S
C1222 H1206 0.959 . S
C1222 H1207 0.959 . S
C1222 H1208 0.961 . S
C1222 C1221 1.502 . S
C1223 H1209 0.960 . S
C1223 H1210 0.961 . S
C1223 H1211 0.959 . S
C1223 C1221 1.561 . S
C1224 C1221 1.526 . S
C1224 C1225 1.396 . S
C1224 C1229 1.390 . S
C1225 C1219 1.465 . S
C1225 C1224 1.396 . S
C1225 C1226 1.399 . S
C1226 H1212 0.929 . S
C1226 C1225 1.399 . S
C1226 C1227 1.385 . S
C1227 H1213 0.931 . S
C1227 C1226 1.385 . S
C1227 C1228 1.389 . S
C1228 C1227 1.389 . S
C1228 C1229 1.387 . S
C1229 H1214 0.930 . S
C1229 C1224 1.390 . S
C1229 C1228 1.387 . S
H1230 C1242 0.930 . S
H1231 C1244 0.930 . S
H1232 C1245 0.930 . S
H1233 C1249 0.959 . S
H1234 C1249 0.959 . S
H1235 C1249 0.961 . S
H1236 C1250 0.960 . S
H1237 C1250 0.961 . S
H1238 C1250 0.959 . S
H1239 C1253 0.929 . S
H1240 C1254 0.931 . S
H1241 C1256 0.930 . S
C1242 H1230 0.930 . S
C1242 C1243 1.399 . S
C1242 C1247 1.399 . S
C1243 C1242 1.399 . S
C1243 C1244 1.376 . S
C1244 H1231 0.930 . S
C1244 C1243 1.376 . S
C1244 C1245 1.388 . S
C1245 H1232 0.930 . S
C1245 C1244 1.388 . S
C1245 C1246 1.390 . S
C1246 C1245 1.390 . S
C1246 C1247 1.394 . S
C1246 C1252 1.465 1_565 S
C1247 C1242 1.399 . S
C1247 C1246 1.394 . S
C1247 C1248 1.516 1_565 S
C1248 C1247 1.516 1_545 S
C1248 C1249 1.502 . S
C1248 C1250 1.561 . S
C1248 C1251 1.526 . S
C1249 H1233 0.959 . S
C1249 H1234 0.959 . S
C1249 H1235 0.961 . S
C1249 C1248 1.502 . S
C1250 H1236 0.960 . S
C1250 H1237 0.961 . S
C1250 H1238 0.959 . S
C1250 C1248 1.561 . S
C1251 C1248 1.526 . S
C1251 C1252 1.396 . S
C1251 C1256 1.390 . S
C1252 C1246 1.465 1_545 S
C1252 C1251 1.396 . S
C1252 C1253 1.399 1_545 S
C1253 H1239 0.929 . S
C1253 C1252 1.399 1_565 S
C1253 C1254 1.385 1_565 S
C1254 H1240 0.931 . S
C1254 C1253 1.385 1_545 S
C1254 C1255 1.389 . S
C1255 C1254 1.389 . S
C1255 C1256 1.387 . S
C1256 H1241 0.930 . S
C1256 C1251 1.390 . S
C1256 C1255 1.387 . S
H1257 C1269 0.930 . S
H1258 C1271 0.930 . S
H1259 C1272 0.930 . S
H1260 C1276 0.959 . S
H1261 C1276 0.959 . S
H1262 C1276 0.961 . S
H1263 C1277 0.960 . S
H1264 C1277 0.961 . S
H1265 C1277 0.959 . S
H1266 C1280 0.929 . S
H1267 C1281 0.931 . S
H1268 C1283 0.930 . S
C1269 H1257 0.930 . S
C1269 C1270 1.399 . S
C1269 C1274 1.399 . S
C1270 C1269 1.399 . S
C1270 C1271 1.376 . S
C1271 H1258 0.930 . S
C1271 C1270 1.376 . S
C1271 C1272 1.388 . S
C1272 H1259 0.930 . S
C1272 C1271 1.388 . S
C1272 C1273 1.390 . S
C1273 C1272 1.390 . S
C1273 C1274 1.394 . S
C1273 C1279 1.465 . S
C1274 C1269 1.399 . S
C1274 C1273 1.394 . S
C1274 C1275 1.516 . S
C1275 C1274 1.516 . S
C1275 C1276 1.502 . S
C1275 C1277 1.561 . S
C1275 C1278 1.526 . S
C1276 H1260 0.959 . S
C1276 H1261 0.959 . S
C1276 H1262 0.961 . S
C1276 C1275 1.502 . S
C1277 H1263 0.960 . S
C1277 H1264 0.961 . S
C1277 H1265 0.959 . S
C1277 C1275 1.561 . S
C1278 C1275 1.526 . S
C1278 C1279 1.396 . S
C1278 C1283 1.390 . S
C1279 C1273 1.465 . S
C1279 C1278 1.396 . S
C1279 C1280 1.399 . S
C1280 H1266 0.929 . S
C1280 C1279 1.399 . S
C1280 C1281 1.385 . S
C1281 H1267 0.931 . S
C1281 C1280 1.385 . S
C1281 C1282 1.389 . S
C1282 C1281 1.389 . S
C1282 C1283 1.387 . S
C1283 H1268 0.930 . S
C1283 C1278 1.390 . S
C1283 C1282 1.387 . S
H1284 C1296 0.930 . S
H1285 C1298 0.930 . S
H1286 C1299 0.930 . S
H1287 C1303 0.959 . S
H1288 C1303 0.959 . S
H1289 C1303 0.961 . S
H1290 C1304 0.960 . S
H1291 C1304 0.961 . S
H1292 C1304 0.959 . S
H1293 C1307 0.929 . S
H1294 C1308 0.931 . S
H1295 C1310 0.930 . S
C1296 H1284 0.930 . S
C1296 C1297 1.399 . S
C1296 C1301 1.399 . S
C1297 C1296 1.399 . S
C1297 C1298 1.376 . S
C1298 H1285 0.930 . S
C1298 C1297 1.376 . S
C1298 C1299 1.388 . S
C1299 H1286 0.930 . S
C1299 C1298 1.388 . S
C1299 C1300 1.390 . S
C1300 C1299 1.390 . S
C1300 C1301 1.394 . S
C1300 C1306 1.465 . S
C1301 C1296 1.399 . S
C1301 C1300 1.394 . S
C1301 C1302 1.516 . S
C1302 C1301 1.516 . S
C1302 C1303 1.502 . S
C1302 C1304 1.561 . S
C1302 C1305 1.526 . S
C1303 H1287 0.959 . S
C1303 H1288 0.959 . S
C1303 H1289 0.961 . S
C1303 C1302 1.502 . S
C1304 H1290 0.960 . S
C1304 H1291 0.961 . S
C1304 H1292 0.959 . S
C1304 C1302 1.561 . S
C1305 C1302 1.526 . S
C1305 C1306 1.396 . S
C1305 C1310 1.390 . S
C1306 C1300 1.465 . S
C1306 C1305 1.396 . S
C1306 C1307 1.399 . S
C1307 H1293 0.929 . S
C1307 C1306 1.399 . S
C1307 C1308 1.385 . S
C1308 H1294 0.931 . S
C1308 C1307 1.385 . S
C1308 C1309 1.389 . S
C1309 C1308 1.389 . S
C1309 C1310 1.387 . S
C1310 H1295 0.930 . S
C1310 C1305 1.390 . S
C1310 C1309 1.387 . S
H1311 C1323 0.930 . S
H1312 C1325 0.930 . S
H1313 C1326 0.930 . S
H1314 C1330 0.959 . S
H1315 C1330 0.959 . S
H1316 C1330 0.961 . S
H1317 C1331 0.960 . S
H1318 C1331 0.961 . S
H1319 C1331 0.959 . S
H1320 C1334 0.929 . S
H1321 C1335 0.931 . S
H1322 C1337 0.930 . S
C1323 H1311 0.930 . S
C1323 C1324 1.399 . S
C1323 C1328 1.399 . S
C1324 C1323 1.399 . S
C1324 C1325 1.376 . S
C1325 H1312 0.930 . S
C1325 C1324 1.376 . S
C1325 C1326 1.388 1_545 S
C1326 H1313 0.930 . S
C1326 C1325 1.388 1_565 S
C1326 C1327 1.390 . S
C1327 C1326 1.390 . S
C1327 C1328 1.394 1_565 S
C1327 C1333 1.465 . S
C1328 C1323 1.399 . S
C1328 C1327 1.394 1_545 S
C1328 C1329 1.516 . S
C1329 C1328 1.516 . S
C1329 C1330 1.502 . S
C1329 C1331 1.561 . S
C1329 C1332 1.526 1_545 S
C1330 H1314 0.959 . S
C1330 H1315 0.959 . S
C1330 H1316 0.961 . S
C1330 C1329 1.502 . S
C1331 H1317 0.960 . S
C1331 H1318 0.961 . S
C1331 H1319 0.959 . S
C1331 C1329 1.561 . S
C1332 C1329 1.526 1_565 S
C1332 C1333 1.396 . S
C1332 C1337 1.390 . S
C1333 C1327 1.465 . S
C1333 C1332 1.396 . S
C1333 C1334 1.399 . S
C1334 H1320 0.929 . S
C1334 C1333 1.399 . S
C1334 C1335 1.385 . S
C1335 H1321 0.931 . S
C1335 C1334 1.385 . S
C1335 C1336 1.389 . S
C1336 C1335 1.389 . S
C1336 C1337 1.387 . S
C1337 H1322 0.930 . S
C1337 C1332 1.390 . S
C1337 C1336 1.387 . S
H1338 C1350 0.930 . S
H1339 C1352 0.930 . S
H1340 C1353 0.930 . S
H1341 C1357 0.959 . S
H1342 C1357 0.959 . S
H1343 C1357 0.961 . S
H1344 C1358 0.960 . S
H1345 C1358 0.961 . S
H1346 C1358 0.959 . S
H1347 C1361 0.929 . S
H1348 C1362 0.931 . S
H1349 C1364 0.930 . S
C1350 H1338 0.930 . S
C1350 C1351 1.399 . S
C1350 C1355 1.399 . S
C1351 C1350 1.399 . S
C1351 C1352 1.376 . S
C1352 H1339 0.930 . S
C1352 C1351 1.376 . S
C1352 C1353 1.388 . S
C1353 H1340 0.930 . S
C1353 C1352 1.388 . S
C1353 C1354 1.390 . S
C1354 C1353 1.390 . S
C1354 C1355 1.394 . S
C1354 C1360 1.465 . S
C1355 C1350 1.399 . S
C1355 C1354 1.394 . S
C1355 C1356 1.516 . S
C1356 C1355 1.516 . S
C1356 C1357 1.502 . S
C1356 C1358 1.561 . S
C1356 C1359 1.526 . S
C1357 H1341 0.959 . S
C1357 H1342 0.959 . S
C1357 H1343 0.961 . S
C1357 C1356 1.502 . S
C1358 H1344 0.960 . S
C1358 H1345 0.961 . S
C1358 H1346 0.959 . S
C1358 C1356 1.561 . S
C1359 C1356 1.526 . S
C1359 C1360 1.396 . S
C1359 C1364 1.390 . S
C1360 C1354 1.465 . S
C1360 C1359 1.396 . S
C1360 C1361 1.399 . S
C1361 H1347 0.929 . S
C1361 C1360 1.399 . S
C1361 C1362 1.385 . S
C1362 H1348 0.931 . S
C1362 C1361 1.385 . S
C1362 C1363 1.389 . S
C1363 C1362 1.389 . S
C1363 C1364 1.387 . S
C1364 H1349 0.930 . S
C1364 C1359 1.390 . S
C1364 C1363 1.387 . S
H1365 C1377 0.930 . S
H1366 C1379 0.930 . S
H1367 C1380 0.930 . S
H1368 C1384 0.959 . S
H1369 C1384 0.959 . S
H1370 C1384 0.961 . S
H1371 C1385 0.960 1_545 S
H1372 C1385 0.961 . S
H1373 C1385 0.959 1_545 S
H1374 C1388 0.944 . S
H1375 C1389 0.931 . S
H1376 C1391 0.930 . S
C1377 H1365 0.930 . S
C1377 C1378 1.399 . S
C1377 C1382 1.399 . S
C1378 C1377 1.399 . S
C1378 C1379 1.376 . S
C1379 H1366 0.930 . S
C1379 C1378 1.376 . S
C1379 C1380 1.388 . S
C1380 H1367 0.930 . S
C1380 C1379 1.388 . S
C1380 C1381 1.390 . S
C1381 C1380 1.390 . S
C1381 C1382 1.394 . S
C1381 C1387 1.471 . S
C1382 C1377 1.399 . S
C1382 C1381 1.394 . S
C1382 C1383 1.516 1_545 S
C1383 C1382 1.516 1_565 S
C1383 C1384 1.502 . S
C1383 C1385 1.561 . S
C1383 C1386 1.526 . S
C1384 H1368 0.959 . S
C1384 H1369 0.959 . S
C1384 H1370 0.961 . S
C1384 C1383 1.502 . S
C1385 H1371 0.960 1_565 S
C1385 H1372 0.961 . S
C1385 H1373 0.959 1_565 S
C1385 C1383 1.561 . S
C1386 C1383 1.526 . S
C1386 C1387 1.389 1_565 S
C1386 C1391 1.390 . S
C1387 C1381 1.471 . S
C1387 C1386 1.389 1_545 S
C1387 C1388 1.399 . S
C1388 H1374 0.944 . S
C1388 C1387 1.399 . S
C1388 C1389 1.371 1_545 S
C1389 H1375 0.931 . S
C1389 C1388 1.371 1_565 S
C1389 C1390 1.389 . S
C1390 C1389 1.389 . S
C1390 C1391 1.387 . S
C1391 H1376 0.930 . S
C1391 C1386 1.390 . S
C1391 C1390 1.387 . S
H1392 C1404 0.930 . S
H1393 C1406 0.930 . S
H1394 C1407 0.930 . S
H1395 C1411 0.959 . S
H1396 C1411 0.959 . S
H1397 C1411 0.961 . S
H1398 C1412 0.960 . S
H1399 C1412 0.961 . S
H1400 C1412 0.959 . S
H1401 C1415 0.929 . S
H1402 C1416 0.931 . S
H1403 C1418 0.930 . S
C1404 H1392 0.930 . S
C1404 C1405 1.399 . S
C1404 C1409 1.399 . S
C1405 C1404 1.399 . S
C1405 C1406 1.376 . S
C1406 H1393 0.930 . S
C1406 C1405 1.376 . S
C1406 C1407 1.388 . S
C1407 H1394 0.930 . S
C1407 C1406 1.388 . S
C1407 C1408 1.390 . S
C1408 C1407 1.390 . S
C1408 C1409 1.394 . S
C1408 C1414 1.465 . S
C1409 C1404 1.399 . S
C1409 C1408 1.394 . S
C1409 C1410 1.516 . S
C1410 C1409 1.516 . S
C1410 C1411 1.502 . S
C1410 C1412 1.561 . S
C1410 C1413 1.526 . S
C1411 H1395 0.959 . S
C1411 H1396 0.959 . S
C1411 H1397 0.961 . S
C1411 C1410 1.502 . S
C1412 H1398 0.960 . S
C1412 H1399 0.961 . S
C1412 H1400 0.959 . S
C1412 C1410 1.561 . S
C1413 C1410 1.526 . S
C1413 C1414 1.396 . S
C1413 C1418 1.390 . S
C1414 C1408 1.465 . S
C1414 C1413 1.396 . S
C1414 C1415 1.399 . S
C1415 H1401 0.929 . S
C1415 C1414 1.399 . S
C1415 C1416 1.385 . S
C1416 H1402 0.931 . S
C1416 C1415 1.385 . S
C1416 C1417 1.389 . S
C1417 C1416 1.389 . S
C1417 C1418 1.387 . S
C1418 H1403 0.930 . S
C1418 C1413 1.390 . S
C1418 C1417 1.387 . S
H1419 C1431 0.930 . S
H1420 C1433 0.930 . S
H1421 C1434 0.930 . S
H1422 C1438 0.959 . S
H1423 C1438 0.959 . S
H1424 C1438 0.961 . S
H1425 C1439 0.960 . S
H1426 C1439 0.961 . S
H1427 C1439 0.959 . S
H1428 C1442 0.929 . S
H1429 C1443 0.931 . S
H1430 C1445 0.930 . S
C1431 H1419 0.930 . S
C1431 C1432 1.399 . S
C1431 C1436 1.399 . S
C1432 C1431 1.399 . S
C1432 C1433 1.376 . S
C1433 H1420 0.930 . S
C1433 C1432 1.376 . S
C1433 C1434 1.388 . S
C1434 H1421 0.930 . S
C1434 C1433 1.388 . S
C1434 C1435 1.390 . S
C1435 C1434 1.390 . S
C1435 C1436 1.394 . S
C1435 C1441 1.465 . S
C1436 C1431 1.399 . S
C1436 C1435 1.394 . S
C1436 C1437 1.516 . S
C1437 C1436 1.516 . S
C1437 C1438 1.502 . S
C1437 C1439 1.561 . S
C1437 C1440 1.526 . S
C1438 H1422 0.959 . S
C1438 H1423 0.959 . S
C1438 H1424 0.961 . S
C1438 C1437 1.502 . S
C1439 H1425 0.960 . S
C1439 H1426 0.961 . S
C1439 H1427 0.959 . S
C1439 C1437 1.561 . S
C1440 C1437 1.526 . S
C1440 C1441 1.396 . S
C1440 C1445 1.390 . S
C1441 C1435 1.465 . S
C1441 C1440 1.396 . S
C1441 C1442 1.399 . S
C1442 H1428 0.929 . S
C1442 C1441 1.399 . S
C1442 C1443 1.385 . S
C1443 H1429 0.931 . S
C1443 C1442 1.385 . S
C1443 C1444 1.389 . S
C1444 C1443 1.389 . S
C1444 C1445 1.387 . S
C1445 H1430 0.930 . S
C1445 C1440 1.390 . S
C1445 C1444 1.387 . S
H1446 C1458 0.930 . S
H1447 C1460 0.930 . S
H1448 C1461 0.930 . S
H1449 C1465 0.959 . S
H1450 C1465 0.959 . S
H1451 C1465 0.961 . S
H1452 C1466 0.960 . S
H1453 C1466 0.961 . S
H1454 C1466 0.959 . S
H1455 C1469 0.929 . S
H1456 C1470 0.931 . S
H1457 C1472 0.930 . S
C1458 H1446 0.930 . S
C1458 C1459 1.399 . S
C1458 C1463 1.399 . S
C1459 C1458 1.399 . S
C1459 C1460 1.376 . S
C1460 H1447 0.930 . S
C1460 C1459 1.376 . S
C1460 C1461 1.388 . S
C1461 H1448 0.930 . S
C1461 C1460 1.388 . S
C1461 C1462 1.390 . S
C1462 C1461 1.390 . S
C1462 C1463 1.394 . S
C1462 C1468 1.465 . S
C1463 C1458 1.399 . S
C1463 C1462 1.394 . S
C1463 C1464 1.516 . S
C1464 C1463 1.516 . S
C1464 C1465 1.502 . S
C1464 C1466 1.561 . S
C1464 C1467 1.526 . S
C1465 H1449 0.959 . S
C1465 H1450 0.959 . S
C1465 H1451 0.961 . S
C1465 C1464 1.502 . S
C1466 H1452 0.960 . S
C1466 H1453 0.961 . S
C1466 H1454 0.959 . S
C1466 C1464 1.561 . S
C1467 C1464 1.526 . S
C1467 C1468 1.396 . S
C1467 C1472 1.390 . S
C1468 C1462 1.465 . S
C1468 C1467 1.396 . S
C1468 C1469 1.399 . S
C1469 H1455 0.929 . S
C1469 C1468 1.399 . S
C1469 C1470 1.385 . S
C1470 H1456 0.931 . S
C1470 C1469 1.385 . S
C1470 C1471 1.389 . S
C1471 C1470 1.389 . S
C1471 C1472 1.387 . S
C1472 H1457 0.930 . S
C1472 C1467 1.390 . S
C1472 C1471 1.387 . S
H1473 C1485 0.930 . S
H1474 C1487 0.930 . S
H1475 C1488 0.930 . S
H1476 C1492 0.959 . S
H1477 C1492 0.959 . S
H1478 C1492 0.961 . S
H1479 C1493 0.960 . S
H1480 C1493 0.961 . S
H1481 C1493 0.959 . S
H1482 C1496 0.929 . S
H1483 C1497 0.931 . S
H1484 C1499 0.930 . S
C1485 H1473 0.930 . S
C1485 C1486 1.399 . S
C1485 C1490 1.399 . S
C1486 C1485 1.399 . S
C1486 C1487 1.376 . S
C1487 H1474 0.930 . S
C1487 C1486 1.376 . S
C1487 C1488 1.388 . S
C1488 H1475 0.930 . S
C1488 C1487 1.388 . S
C1488 C1489 1.390 . S
C1489 C1488 1.390 . S
C1489 C1490 1.394 . S
C1489 C1495 1.465 . S
C1490 C1485 1.399 . S
C1490 C1489 1.394 . S
C1490 C1491 1.516 . S
C1491 C1490 1.516 . S
C1491 C1492 1.502 . S
C1491 C1493 1.561 . S
C1491 C1494 1.526 . S
C1492 H1476 0.959 . S
C1492 H1477 0.959 . S
C1492 H1478 0.961 . S
C1492 C1491 1.502 . S
C1493 H1479 0.960 . S
C1493 H1480 0.961 . S
C1493 H1481 0.959 . S
C1493 C1491 1.561 . S
C1494 C1491 1.526 . S
C1494 C1495 1.396 . S
C1494 C1499 1.390 . S
C1495 C1489 1.465 . S
C1495 C1494 1.396 . S
C1495 C1496 1.399 . S
C1496 H1482 0.929 . S
C1496 C1495 1.399 . S
C1496 C1497 1.385 . S
C1497 H1483 0.931 . S
C1497 C1496 1.385 . S
C1497 C1498 1.389 . S
C1498 C1497 1.389 . S
C1498 C1499 1.387 . S
C1499 H1484 0.930 . S
C1499 C1494 1.390 . S
C1499 C1498 1.387 . S
H1500 C1512 0.930 . S
H1501 C1514 0.930 . S
H1502 C1515 0.930 . S
H1503 C1519 0.959 . S
H1504 C1519 0.959 . S
H1505 C1519 0.961 . S
H1506 C1520 0.960 . S
H1507 C1520 0.961 1_455 S
H1508 C1520 0.959 . S
H1509 C1523 0.929 . S
H1510 C1524 0.931 . S
H1511 C1526 0.930 . S
C1512 H1500 0.930 . S
C1512 C1513 1.399 . S
C1512 C1517 1.399 . S
C1513 C1512 1.399 . S
C1513 C1514 1.376 . S
C1514 H1501 0.930 . S
C1514 C1513 1.376 . S
C1514 C1515 1.388 . S
C1515 H1502 0.930 . S
C1515 C1514 1.388 . S
C1515 C1516 1.390 . S
C1516 C1515 1.390 . S
C1516 C1517 1.394 . S
C1516 C1522 1.465 1_655 S
C1517 C1512 1.399 . S
C1517 C1516 1.394 . S
C1517 C1518 1.516 1_655 S
C1518 C1517 1.516 1_455 S
C1518 C1519 1.502 . S
C1518 C1520 1.561 1_455 S
C1518 C1521 1.526 . S
C1519 H1503 0.959 . S
C1519 H1504 0.959 . S
C1519 H1505 0.961 . S
C1519 C1518 1.502 . S
C1520 H1506 0.960 . S
C1520 H1507 0.961 1_655 S
C1520 H1508 0.959 . S
C1520 C1518 1.561 1_655 S
C1521 C1518 1.526 . S
C1521 C1522 1.396 . S
C1521 C1526 1.390 . S
C1522 C1516 1.465 1_455 S
C1522 C1521 1.396 . S
C1522 C1523 1.399 . S
C1523 H1509 0.929 . S
C1523 C1522 1.399 . S
C1523 C1524 1.385 . S
C1524 H1510 0.931 . S
C1524 C1523 1.385 . S
C1524 C1525 1.389 . S
C1525 C1524 1.389 . S
C1525 C1526 1.387 . S
C1526 H1511 0.930 . S
C1526 C1521 1.390 . S
C1526 C1525 1.387 . S
H1527 C1539 0.930 . S
H1528 C1541 0.930 . S
H1529 C1542 0.930 . S
H1530 C1546 0.941 1_655 S
H1531 C1546 0.958 . S
H1532 C1546 0.961 . S
H1533 C1547 0.960 . S
H1534 C1547 0.961 . S
H1535 C1547 0.959 . S
H1536 C1550 0.929 . S
H1537 C1551 0.931 . S
H1538 C1553 0.930 . S
C1539 H1527 0.930 . S
C1539 C1540 1.399 . S
C1539 C1544 1.399 . S
C1540 C1539 1.399 . S
C1540 C1541 1.376 . S
C1541 H1528 0.930 . S
C1541 C1540 1.376 . S
C1541 C1542 1.388 . S
C1542 H1529 0.930 . S
C1542 C1541 1.388 . S
C1542 C1543 1.390 . S
C1543 C1542 1.390 . S
C1543 C1544 1.394 . S
C1543 C1549 1.465 1_455 S
C1544 C1539 1.399 . S
C1544 C1543 1.394 . S
C1544 C1545 1.516 . S
C1545 C1544 1.516 . S
C1545 C1546 1.502 . S
C1545 C1547 1.561 . S
C1545 C1548 1.526 1_455 S
C1546 H1530 0.941 1_455 S
C1546 H1531 0.958 . S
C1546 H1532 0.961 . S
C1546 C1545 1.502 . S
C1547 H1533 0.960 . S
C1547 H1534 0.961 . S
C1547 H1535 0.959 . S
C1547 C1545 1.561 . S
C1548 C1545 1.526 1_655 S
C1548 C1549 1.396 . S
C1548 C1553 1.390 . S
C1549 C1543 1.465 1_655 S
C1549 C1548 1.396 . S
C1549 C1550 1.399 . S
C1550 H1536 0.929 . S
C1550 C1549 1.399 . S
C1550 C1551 1.385 . S
C1551 H1537 0.931 . S
C1551 C1550 1.385 . S
C1551 C1552 1.389 . S
C1552 C1551 1.389 . S
C1552 C1553 1.387 . S
C1553 H1538 0.930 . S
C1553 C1548 1.390 . S
C1553 C1552 1.387 . S
H1554 C1566 0.930 . S
H1555 C1568 0.930 . S
H1556 C1569 0.930 . S
H1557 C1573 0.959 . S
H1558 C1573 0.959 1_655 S
H1559 C1573 0.961 . S
H1560 C1574 0.960 1_455 S
H1561 C1574 0.961 . S
H1562 C1574 0.959 . S
H1563 C1577 0.929 . S
H1564 C1578 0.931 . S
H1565 C1580 0.930 . S
C1566 H1554 0.930 . S
C1566 C1567 1.399 . S
C1566 C1571 1.399 . S
C1567 C1566 1.399 . S
C1567 C1568 1.376 . S
C1568 H1555 0.930 . S
C1568 C1567 1.376 . S
C1568 C1569 1.388 . S
C1569 H1556 0.930 . S
C1569 C1568 1.388 . S
C1569 C1570 1.390 . S
C1570 C1569 1.390 . S
C1570 C1571 1.394 . S
C1570 C1576 1.465 1_455 S
C1571 C1566 1.399 . S
C1571 C1570 1.394 . S
C1571 C1572 1.516 . S
C1572 C1571 1.516 . S
C1572 C1573 1.502 . S
C1572 C1574 1.561 1_455 S
C1572 C1575 1.526 1_455 S
C1573 H1557 0.959 . S
C1573 H1558 0.959 1_455 S
C1573 H1559 0.961 . S
C1573 C1572 1.502 . S
C1574 H1560 0.960 1_655 S
C1574 H1561 0.961 . S
C1574 H1562 0.959 . S
C1574 C1572 1.561 1_655 S
C1575 C1572 1.526 1_655 S
C1575 C1576 1.396 . S
C1575 C1580 1.390 . S
C1576 C1570 1.465 1_655 S
C1576 C1575 1.396 . S
C1576 C1577 1.399 . S
C1577 H1563 0.929 . S
C1577 C1576 1.399 . S
C1577 C1578 1.385 . S
C1578 H1564 0.931 . S
C1578 C1577 1.385 . S
C1578 C1579 1.389 . S
C1579 C1578 1.389 . S
C1579 C1580 1.387 . S
C1580 H1565 0.930 . S
C1580 C1575 1.390 . S
C1580 C1579 1.387 . S
H1581 C1593 0.930 . S
H1582 C1595 0.930 . S
H1583 C1596 0.930 . S
H1584 C1600 0.959 . S
H1585 C1600 0.959 . S
H1586 C1600 0.961 1_655 S
H1587 C1601 0.960 . S
H1588 C1601 0.946 1_455 S
H1589 C1601 0.959 . S
H1590 C1604 0.929 . S
H1591 C1605 0.931 . S
H1592 C1607 0.930 . S
C1593 H1581 0.930 . S
C1593 C1594 1.399 . S
C1593 C1598 1.399 . S
C1594 C1593 1.399 . S
C1594 C1595 1.376 . S
C1595 H1582 0.930 . S
C1595 C1594 1.376 . S
C1595 C1596 1.388 . S
C1596 H1583 0.930 . S
C1596 C1595 1.388 . S
C1596 C1597 1.390 . S
C1597 C1596 1.390 . S
C1597 C1598 1.394 . S
C1597 C1603 1.465 1_655 S
C1598 C1593 1.399 . S
C1598 C1597 1.394 . S
C1598 C1599 1.534 . S
C1599 C1598 1.534 . S
C1599 C1600 1.493 1_655 S
C1599 C1601 1.571 . S
C1599 C1602 1.508 1_655 S
C1600 H1584 0.959 . S
C1600 H1585 0.959 . S
C1600 H1586 0.961 1_455 S
C1600 C1599 1.493 1_455 S
C1601 H1587 0.960 . S
C1601 H1588 0.946 1_655 S
C1601 H1589 0.959 . S
C1601 C1599 1.571 . S
C1602 C1599 1.508 1_455 S
C1602 C1603 1.396 . S
C1602 C1607 1.390 . S
C1603 C1597 1.465 1_455 S
C1603 C1602 1.396 . S
C1603 C1604 1.399 . S
C1604 H1590 0.929 . S
C1604 C1603 1.399 . S
C1604 C1605 1.385 . S
C1605 H1591 0.931 . S
C1605 C1604 1.385 . S
C1605 C1606 1.389 . S
C1606 C1605 1.389 . S
C1606 C1607 1.387 . S
C1607 H1592 0.930 . S
C1607 C1602 1.390 . S
C1607 C1606 1.387 . S
C541 C18 0.761 . S
C553 C469 0.737 . S
C568 C51 0.771 . S
C580 C502 0.717 . S
C595 C84 0.766 . S
C607 C403 0.801 . S
C622 C436 0.762 . S
C634 C117 0.758 . S
C649 C150 0.767 . S
C661 C337 0.764 . S
C676 C183 0.771 . S
C688 C370 0.710 . S
C703 C216 0.760 . S
C715 C271 0.773 . S
C730 C304 0.708 . S
C742 C249 0.771 . S
C757 C282 0.772 . S
C769 C205 0.728 . S
C784 C238 0.764 . S
C796 C315 0.758 . S
C811 C348 0.770 . S
C823 C139 0.711 . S
C838 C381 0.763 . S
C850 C172 0.812 . S
C865 C414 0.759 . S
C877 C73 0.783 . S
C892 C447 0.769 . S
C904 C106 0.747 . S
C919 C7 0.708 . S
C931 C480 0.771 . S
C946 C40 0.817 . S
C958 C513 0.758 . S
C973 N2 1.672 . S
C985 N365 1.710 . S
C1000 N332 1.653 . S
C1012 N35 1.626 . S
C1027 N68 1.642 . S
C1039 N299 1.693 . S
C1054 N266 1.638 . S
C1066 N101 1.630 . S
C1081 N134 1.630 . S
C1093 N497 1.651 . S
C1108 N464 1.636 . S
C1120 N167 1.661 . S
C1135 N200 1.698 . S
C1147 N431 1.673 . S
C1162 N233 1.638 . S
C1174 N398 1.663 . S
C1189 N13 1.826 . S
C1201 N79 1.827 . S
C1216 N46 1.828 . S
C1228 N112 1.828 . S
C1243 N145 1.822 . S
C1255 N211 1.824 . S
C1270 N244 1.824 . S
C1282 N178 1.827 . S
C1297 N343 1.830 . S
C1309 N277 1.830 . S
C1324 N376 1.825 . S
C1336 N310 1.825 . S
C1351 N409 1.829 . S
C1363 N475 1.827 . S
C1378 N442 1.827 . S
C1390 N508 1.829 . S
C1405 C54 1.566 . S
C1417 C21 1.557 . S
C1432 C87 1.589 . S
C1444 C120 1.571 . S
C1459 C153 1.580 . S
C1471 C186 1.556 . S
C1486 C252 1.557 . S
C1498 C219 1.589 . S
C1513 C285 1.551 . S
C1525 C318 1.574 . S
C1540 C384 1.570 . S
C1552 C351 1.554 . S
C1567 C417 1.578 . S
C1579 C450 1.558 . S
C1594 C516 1.567 . S
C1606 C483 1.582 . S
