# Generated by pormake.
# Topology unh, (4)-cn, num edge types: 1
# Building blocks:
#     Node 0, Type 0, BuildingBlock: KUFVIS_clean_sbu_0, # of connection points: 4
#     Node 1, Type 0, BuildingBlock: KUFVIS_clean_sbu_0, # of connection points: 4
#     Node 2, Type 0, BuildingBlock: KUFVIS_clean_sbu_0, # of connection points: 4
#     Node 3, Type 0, BuildingBlock: KUFVIS_clean_sbu_0, # of connection points: 4
#     Node 4, Type 0, BuildingBlock: KUFVIS_clean_sbu_0, # of connection points: 4
#     Node 5, Type 0, BuildingBlock: KUFVIS_clean_sbu_0, # of connection points: 4
#     Edge 6, Type (0, 0), BuildingBlock: CIFDUS_clean_linker_0, # of connection points: 2
#     Edge 7, Type (0, 0), BuildingBlock: CIFDUS_clean_linker_0, # of connection points: 2
#     Edge 8, Type (0, 0), BuildingBlock: CIFDUS_clean_linker_0, # of connection points: 2
#     Edge 9, Type (0, 0), BuildingBlock: CIFDUS_clean_linker_0, # of connection points: 2
#     Edge 10, Type (0, 0), BuildingBlock: CIFDUS_clean_linker_0, # of connection points: 2
#     Edge 11, Type (0, 0), BuildingBlock: CIFDUS_clean_linker_0, # of connection points: 2
#     Edge 12, Type (0, 0), BuildingBlock: CIFDUS_clean_linker_0, # of connection points: 2
#     Edge 13, Type (0, 0), BuildingBlock: CIFDUS_clean_linker_0, # of connection points: 2
#     Edge 14, Type (0, 0), BuildingBlock: CIFDUS_clean_linker_0, # of connection points: 2
#     Edge 15, Type (0, 0), BuildingBlock: CIFDUS_clean_linker_0, # of connection points: 2
#     Edge 16, Type (0, 0), BuildingBlock: CIFDUS_clean_linker_0, # of connection points: 2
#     Edge 17, Type (0, 0), BuildingBlock: CIFDUS_clean_linker_0, # of connection points: 2
# Relax obj value: 0.109
# Max RMSD: 0.223
# Mean RMSD: 0.223
data_MOF--net-unh--node1-KUFVIS_clean_sbu_0--edge1-CIFDUS_clean_linker_0
_symmetry_space_group_name_H-M    P1
_symmetry_Int_Tables_number       1
_symmetry_cell_setting            triclinic
loop_
_symmetry_equiv_pos_as_xyz
'x, y, z'
_cell_length_a     36.647041
_cell_length_b     36.691043
_cell_length_c     19.443643
_cell_angle_alpha  90.20258
_cell_angle_beta   90.264143
_cell_angle_gamma 120.01767
loop_
_atom_site_label
_atom_site_type_symbol
_atom_site_fract_x
_atom_site_fract_y
_atom_site_fract_z
_atom_type_partial_charge
Mn0 Mn 0.14319 0.56476 0.05375 0.0
Mn1 Mn 0.1084 0.63375 0.0638 0.0
C2 C 0.17859 0.62745 0.99645 0.0
C3 C 0.18224 0.53913 0.10747 0.0
C4 C 0.06668 0.55448 0.97473 0.0
O5 O 0.10247 0.5438 0.13229 0.0
O6 O 0.08736 0.59577 0.14539 0.0
C7 C 0.15635 0.68182 0.18691 0.0
N8 N 0.14664 0.68087 0.11898 0.0
C9 C 0.1956 0.75502 0.1079 0.0
C10 C 0.20586 0.75686 0.17787 0.0
C11 C 0.18616 0.72008 0.21751 0.0
C12 C 0.16541 0.71607 0.08036 0.0
H13 H 0.1416 0.65355 0.21741 0.0
C14 C 0.08546 0.56148 0.16484 0.0
O15 O 0.15242 0.51557 0.06415 0.0
O16 O 0.18972 0.57707 0.1179 0.0
N17 N 0.12702 0.67248 0.98874 0.0
C18 C 0.11469 0.66509 0.92147 0.0
C19 C 0.13202 0.69854 0.87462 0.0
C20 C 0.16172 0.7392 0.89739 0.0
C21 C 0.17354 0.74612 0.967 0.0
C22 C 0.1548 0.71168 0.0115 0.0
H23 H 0.09205 0.6339 0.90352 0.0
O24 O 0.18417 0.59631 0.97966 0.0
O25 O 0.15332 0.62098 0.04743 0.0
O26 O 0.09381 0.54283 0.9853 0.0
O27 O 0.06836 0.58661 0.00409 0.0
C28 C 0.20368 0.78571 0.99376 0.0
C29 C 0.21473 0.79015 0.06414 0.0
H30 H 0.22906 0.78625 0.20155 0.0
H31 H 0.1941 0.72119 0.27145 0.0
H32 H 0.12274 0.69293 0.82098 0.0
H33 H 0.17541 0.7648 0.86093 0.0
H34 H 0.21886 0.81287 0.96052 0.0
H35 H 0.23826 0.82067 0.08395 0.0
Mn36 Mn 0.58069 0.14531 0.22435 0.0
Mn37 Mn 0.47654 0.10949 0.23559 0.0
C38 C 0.55146 0.17757 0.1624 0.0
C39 C 0.64629 0.18649 0.27516 0.0
C40 C 0.5138 0.06626 0.15082 0.0
O41 O 0.5627 0.10736 0.30665 0.0
O42 O 0.49522 0.09111 0.3186 0.0
C43 C 0.47821 0.16072 0.35475 0.0
N44 N 0.46806 0.14886 0.28775 0.0
C45 C 0.44128 0.19634 0.27303 0.0
C46 C 0.45113 0.20881 0.34204 0.0
C47 C 0.46972 0.19095 0.38304 0.0
C48 C 0.45027 0.16592 0.24779 0.0
H49 H 0.49285 0.14735 0.38628 0.0
C50 C 0.52814 0.09039 0.33926 0.0
O51 O 0.6394 0.15521 0.23503 0.0
O52 O 0.61586 0.19421 0.28408 0.0
N53 N 0.45431 0.12526 0.15926 0.0
C54 C 0.4474 0.11033 0.09339 0.0
C55 C 0.42923 0.12528 0.04555 0.0
C56 C 0.41817 0.15522 0.06597 0.0
C57 C 0.42494 0.16959 0.13431 0.0
C58 C 0.44263 0.15314 0.17992 0.0
H59 H 0.45592 0.0874 0.07728 0.0
O60 O 0.58832 0.18338 0.14615 0.0
O61 O 0.53379 0.15427 0.21579 0.0
O62 O 0.55264 0.09374 0.16046 0.0
O63 O 0.48338 0.06838 0.17902 0.0
C64 C 0.41527 0.19995 0.15876 0.0
C65 C 0.42351 0.21337 0.22803 0.0
H66 H 0.44485 0.23229 0.36395 0.0
H67 H 0.47764 0.20061 0.43623 0.0
H68 H 0.42404 0.11397 0.99293 0.0
H69 H 0.40466 0.16707 0.02872 0.0
H70 H 0.4018 0.21342 0.12457 0.0
H71 H 0.41629 0.23701 0.24606 0.0
Mn72 Mn 0.43222 0.58665 0.38135 0.0
Mn73 Mn 0.3678 0.48141 0.36949 0.0
C74 C 0.37549 0.56049 0.30776 0.0
C75 C 0.45156 0.64786 0.44307 0.0
C76 C 0.45114 0.5284 0.29454 0.0
O77 O 0.44958 0.56432 0.46174 0.0
O78 O 0.40302 0.49518 0.45495 0.0
C79 C 0.31436 0.47242 0.48915 0.0
N80 N 0.31802 0.46668 0.42084 0.0
C81 C 0.24317 0.43511 0.40346 0.0
C82 C 0.23855 0.44036 0.47375 0.0
C83 C 0.27432 0.45918 0.51674 0.0
C84 C 0.28385 0.44884 0.37895 0.0
H85 H 0.34181 0.48714 0.52227 0.0
C86 C 0.43375 0.52713 0.48452 0.0
O87 O 0.47868 0.64473 0.40436 0.0
O88 O 0.41351 0.61616 0.4448 0.0
N89 N 0.33143 0.46218 0.29052 0.0
C90 C 0.34135 0.46002 0.22372 0.0
C91 C 0.30914 0.44251 0.17386 0.0
C92 C 0.26704 0.42681 0.19331 0.0
C93 C 0.25748 0.42835 0.26262 0.0
C94 C 0.29089 0.44592 0.3101 0.0
H95 H 0.37363 0.47201 0.20841 0.0
O96 O 0.40601 0.59908 0.30243 0.0
O97 O 0.37768 0.53894 0.35934 0.0
O98 O 0.46121 0.56548 0.3151 0.0
O99 O 0.41778 0.49507 0.31366 0.0
C100 C 0.21621 0.41381 0.28629 0.0
C101 C 0.20907 0.41731 0.35662 0.0
H102 H 0.20774 0.43033 0.49518 0.0
H103 H 0.27105 0.46357 0.57096 0.0
H104 H 0.31676 0.44126 0.12052 0.0
H105 H 0.24233 0.41371 0.1546 0.0
H106 H 0.18978 0.40033 0.25071 0.0
H107 H 0.17725 0.40646 0.37407 0.0
Mn108 Mn 0.85199 0.42838 0.56463 0.0
Mn109 Mn 0.89236 0.36449 0.53806 0.0
C110 C 0.82166 0.37551 0.48346 0.0
C111 C 0.80791 0.44552 0.62384 0.0
C112 C 0.92946 0.45155 0.47669 0.0
O113 O 0.89037 0.44067 0.64731 0.0
O114 O 0.91427 0.39601 0.62643 0.0
C115 C 0.84902 0.3059 0.65269 0.0
N116 N 0.85778 0.31258 0.58439 0.0
C117 C 0.81478 0.23866 0.55901 0.0
C118 C 0.80554 0.23094 0.62916 0.0
C119 C 0.82268 0.26472 0.67617 0.0
C120 C 0.84131 0.28033 0.53869 0.0
H121 H 0.86196 0.33181 0.68893 0.0
C122 C 0.91278 0.42429 0.66316 0.0
O123 O 0.84029 0.47404 0.59088 0.0
O124 O 0.8019 0.40756 0.62433 0.0
N125 N 0.8746 0.33168 0.45518 0.0
C126 C 0.88591 0.34458 0.38912 0.0
C127 C 0.8708 0.31468 0.33561 0.0
C128 C 0.84482 0.27181 0.35061 0.0
C129 C 0.8345 0.25919 0.41913 0.0
C130 C 0.85067 0.29039 0.47035 0.0
H131 H 0.90591 0.37748 0.37727 0.0
O132 O 0.81496 0.407 0.48241 0.0
O133 O 0.84453 0.37459 0.53439 0.0
O134 O 0.90314 0.46071 0.50271 0.0
O135 O 0.92853 0.4167 0.48725 0.0
C136 C 0.8082 0.21695 0.4385 0.0
C137 C 0.79825 0.20671 0.50837 0.0
H138 H 0.7851 0.19924 0.64745 0.0
H139 H 0.81552 0.25904 0.73035 0.0
H140 H 0.87906 0.32466 0.28289 0.0
H141 H 0.83292 0.24888 0.30914 0.0
H142 H 0.79503 0.19217 0.4 0.0
H143 H 0.7776 0.17419 0.52254 0.0
Mn144 Mn 0.42111 0.85657 0.73712 0.0
Mn145 Mn 0.52466 0.89207 0.71179 0.0
C146 C 0.44123 0.82451 0.65601 0.0
C147 C 0.3593 0.81498 0.79594 0.0
C148 C 0.47849 0.93372 0.65113 0.0
O149 O 0.44867 0.89392 0.82024 0.0
O150 O 0.51665 0.91429 0.80083 0.0
C151 C 0.53679 0.8454 0.8251 0.0
N152 N 0.53926 0.85491 0.75702 0.0
C153 C 0.56606 0.80861 0.73017 0.0
C154 C 0.56409 0.79855 0.80007 0.0
C155 C 0.54932 0.81697 0.8477 0.0
C156 C 0.55324 0.83722 0.71072 0.0
H157 H 0.52523 0.85931 0.86181 0.0
C158 C 0.48752 0.91425 0.83711 0.0
O159 O 0.36489 0.84802 0.76288 0.0
O160 O 0.38982 0.80673 0.79646 0.0
N161 N 0.53805 0.87365 0.62833 0.0
C162 C 0.53736 0.88617 0.56265 0.0
C163 C 0.55063 0.87016 0.50861 0.0
C164 C 0.56506 0.84196 0.52272 0.0
C165 C 0.5665 0.83038 0.59089 0.0
C166 C 0.55312 0.84756 0.64267 0.0
H167 H 0.52634 0.90786 0.55147 0.0
O168 O 0.40377 0.81984 0.65451 0.0
O169 O 0.46562 0.84642 0.70724 0.0
O170 O 0.44244 0.90828 0.67601 0.0
O171 O 0.51143 0.93088 0.66203 0.0
C172 C 0.58005 0.80192 0.60938 0.0
C173 C 0.57972 0.79095 0.67894 0.0
H174 H 0.57358 0.77652 0.81768 0.0
H175 H 0.54751 0.80921 0.90168 0.0
H176 H 0.54961 0.87941 0.45618 0.0
H177 H 0.57489 0.82937 0.48084 0.0
H178 H 0.59032 0.78791 0.57041 0.0
H179 H 0.58976 0.76868 0.69243 0.0
Mn180 Mn 0.55342 0.40501 0.87982 0.0
Mn181 Mn 0.61699 0.51013 0.87488 0.0
C182 C 0.61633 0.43299 0.82245 0.0
C183 C 0.53144 0.34255 0.93761 0.0
C184 C 0.53742 0.46242 0.78769 0.0
O185 O 0.53036 0.42646 0.95412 0.0
O186 O 0.57882 0.49557 0.95557 0.0
C187 C 0.66672 0.52188 0.00178 0.0
N188 N 0.66514 0.526 0.93241 0.0
C189 C 0.74024 0.55599 0.92337 0.0
C190 C 0.7427 0.55236 0.99479 0.0
C191 C 0.70577 0.53521 0.03413 0.0
C192 C 0.70048 0.54246 0.89406 0.0
H193 H 0.63837 0.50836 0.03215 0.0
C194 C 0.54613 0.46336 0.97982 0.0
O195 O 0.507 0.34582 0.89249 0.0
O196 O 0.56798 0.37534 0.94948 0.0
N197 N 0.65577 0.52819 0.79992 0.0
C198 C 0.64785 0.52842 0.73141 0.0
C199 C 0.68142 0.54402 0.68479 0.0
C200 C 0.72276 0.55938 0.70907 0.0
C201 C 0.73021 0.55938 0.77987 0.0
C202 C 0.69556 0.54392 0.82396 0.0
H203 H 0.61614 0.51649 0.71236 0.0
O204 O 0.58663 0.39477 0.80959 0.0
O205 O 0.60856 0.45325 0.86977 0.0
O206 O 0.52845 0.42548 0.80571 0.0
O207 O 0.56868 0.49596 0.81251 0.0
C208 C 0.77057 0.57356 0.80832 0.0
C209 C 0.77557 0.57183 0.88001 0.0
H210 H 0.77272 0.56234 0.01989 0.0
H211 H 0.70738 0.53208 0.08923 0.0
H212 H 0.67542 0.54393 0.63023 0.0
H213 H 0.74851 0.5709 0.67287 0.0
H214 H 0.79792 0.58549 0.77547 0.0
H215 H 0.80671 0.58244 0.90121 0.0
H216 H 0.05157 0.48574 0.8973 0.0
H217 H 0.0043 0.57064 0.93653 0.0
H218 H 0.95111 0.53617 0.8471 0.0
H219 H 0.92047 0.48491 0.75324 0.0
H220 H 0.96776 0.40026 0.71243 0.0
H221 H 0.01799 0.43148 0.80728 0.0
C222 C 0.02949 0.49657 0.88673 0.0
C223 C 0.03239 0.53105 0.92358 0.0
C224 C -0.0011 0.47674 0.83466 0.0
C225 C 0.00318 0.54436 0.90906 0.0
C226 C 0.97264 0.52468 0.85773 0.0
C227 C 0.94148 0.47296 0.76525 0.0
C228 C 0.94042 0.44047 0.72503 0.0
C229 C 0.97061 0.49128 0.81952 0.0
C230 C 0.96786 0.42537 0.74203 0.0
C231 C 0.99675 0.44327 0.7963 0.0
H232 H 0.43571 0.91934 0.9318 0.0
H233 H 0.56726 0.97007 0.88356 0.0
H234 H 0.58719 0.01962 0.97947 0.0
H235 H 0.56712 0.0522 0.07148 0.0
H236 H 0.43527 0.0015 0.11789 0.0
H237 H 0.41595 0.94833 0.02852 0.0
C238 C 0.4688 0.94097 0.94239 0.0
C239 C 0.49983 0.94118 0.89976 0.0
C240 C 0.48011 0.96968 0.99722 0.0
C241 C 0.54257 0.96924 0.91509 0.0
C242 C 0.55406 0.99773 0.96992 0.0
C243 C 0.53417 0.0293 0.06262 0.0
C244 C 0.5028 0.03134 0.1012 0.0
C245 C 0.52306 -0.00119 0.01049 0.0
C246 C 0.46024 0.0011 0.08893 0.0
C247 C 0.44904 0.97058 0.03764 0.0
H248 H 0.43695 0.45572 0.23395 0.0
H249 H 0.52365 0.58984 0.23417 0.0
H250 H 0.56154 0.58142 0.13787 0.0
H251 H 0.56758 0.5363 0.0498 0.0
H252 H 0.4788 0.40252 0.04952 0.0
H253 H 0.44413 0.41087 0.14957 0.0
C254 C 0.46433 0.48326 0.21357 0.0
C255 C 0.47721 0.52341 0.24132 0.0
C256 C 0.48539 0.47835 0.1576 0.0
C257 C 0.51291 0.55852 0.21394 0.0
C258 C 0.5345 0.55377 0.15862 0.0
C259 C 0.54069 0.50893 0.07161 0.0
C260 C 0.52573 0.4689 0.0415 0.0
C261 C 0.52058 0.51388 0.12932 0.0
C262 C 0.49095 0.43381 0.07097 0.0
C263 C 0.47107 0.43847 0.12844 0.0
H264 H 0.99223 0.44506 0.41555 0.0
H265 H 0.93633 0.52434 0.42514 0.0
H266 H 0.98171 0.56735 0.33188 0.0
H267 H 0.03319 0.57875 0.24116 0.0
H268 H 0.08689 0.49737 0.23216 0.0
H269 H 0.04629 0.45906 0.33153 0.0
C270 C 0.99011 0.47196 0.3979 0.0
C271 C 0.96055 0.48108 0.42695 0.0
C272 C 0.01563 0.49604 0.34369 0.0
C273 C 0.95869 0.5164 0.40361 0.0
C274 C 0.9845 0.54095 0.35001 0.0
C275 C 0.03623 0.55285 0.26127 0.0
C276 C 0.06259 0.54067 0.22836 0.0
C277 C 0.01243 0.53046 0.31858 0.0
C278 C 0.06637 0.50716 0.25554 0.0
C279 C 0.04325 0.48518 0.31265 0.0
H280 H 0.45942 0.04235 0.41905 0.0
H281 H 0.5932 0.08848 0.40441 0.0
H282 H 0.59006 0.04714 0.50374 0.0
H283 H 0.54895 0.99381 0.58852 0.0
H284 H 0.41495 0.94596 0.60306 0.0
H285 H 0.41896 0.99266 0.51077 0.0
C286 C 0.48795 0.04366 0.4379 0.0
C287 C 0.52628 0.068 0.40341 0.0
C288 C 0.48601 0.01946 0.49501 0.0
C289 C 0.56304 0.06958 0.42912 0.0
C290 C 0.56139 0.04599 0.48612 0.0
C291 C 0.5206 0.9938 0.57219 0.0
C292 C 0.48167 0.96597 0.60223 0.0
C293 C 0.52293 0.02015 0.51848 0.0
C294 C 0.44539 0.96684 0.58064 0.0
C295 C 0.44757 0.99344 0.52763 0.0
H296 H 0.543 0.53474 0.74081 0.0
H297 H 0.47282 0.39982 0.71228 0.0
H298 H 0.43279 0.40761 0.6185 0.0
H299 H 0.42021 0.45305 0.54054 0.0
H300 H 0.49137 0.58795 0.57004 0.0
H301 H 0.52813 0.57954 0.66754 0.0
C302 C 0.51884 0.50692 0.71445 0.0
C303 C 0.51126 0.4668 0.73351 0.0
C304 C 0.49607 0.51155 0.6604 0.0
C305 C 0.47953 0.43117 0.69877 0.0
C306 C 0.45659 0.43556 0.64496 0.0
C307 C 0.44348 0.48058 0.56863 0.0
C308 C 0.45318 0.52104 0.54727 0.0
C309 C 0.46495 0.47566 0.62476 0.0
C310 C 0.48344 0.55637 0.5846 0.0
C311 C 0.50457 0.55167 0.64055 0.0
H312 H 0.25247 0.53945 0.06769 0.0
H313 H 0.16742 0.51035 0.23726 0.0
H314 H 0.21941 0.50958 0.31595 0.0
H315 H 0.29346 0.52987 0.33883 0.0
H316 H 0.37924 0.56134 0.16961 0.0
H317 H 0.32305 0.54907 0.08816 0.0
C318 C 0.24487 0.53116 0.12133 0.0
C319 C 0.20628 0.52427 0.14691 0.0
C320 C 0.27549 0.53238 0.16642 0.0
C321 C 0.19684 0.51489 0.21669 0.0
C322 C 0.22675 0.51512 0.26172 0.0
C323 C 0.29922 0.53249 0.28391 0.0
C324 C 0.33982 0.54533 0.25966 0.0
C325 C 0.26684 0.5257 0.23764 0.0
C326 C 0.3478 0.55068 0.18884 0.0
C327 C 0.31577 0.54372 0.14243 0.0
H328 H 0.71341 0.26012 0.23901 0.0
H329 H 0.66367 0.16876 0.40119 0.0
H330 H 0.71733 0.21897 0.48116 0.0
H331 H 0.77084 0.29249 0.50851 0.0
H332 H 0.82034 0.38384 0.34613 0.0
H333 H 0.77422 0.33042 0.26241 0.0
C334 C 0.71557 0.25088 0.29115 0.0
C335 C 0.68542 0.21095 0.31439 0.0
C336 C 0.7458 0.28023 0.33696 0.0
C337 C 0.68735 0.19927 0.38232 0.0
C338 C 0.71756 0.22812 0.42815 0.0
C339 C 0.77249 0.30011 0.45435 0.0
C340 C 0.79955 0.34149 0.43281 0.0
C341 C 0.74588 0.26921 0.40668 0.0
C342 C 0.80015 0.35181 0.36324 0.0
C343 C 0.77382 0.32135 0.31551 0.0
H344 H 0.46762 0.76905 0.68238 0.0
H345 H 0.43369 0.82518 0.51829 0.0
H346 H 0.43929 0.7783 0.43452 0.0
H347 H 0.44655 0.71633 0.41031 0.0
H348 H 0.47918 0.65923 0.57442 0.0
H349 H 0.48287 0.7122 0.65588 0.0
C350 C 0.46283 0.77175 0.62796 0.0
C351 C 0.45151 0.80111 0.60581 0.0
C352 C 0.46581 0.74448 0.58038 0.0
C353 C 0.4433 0.80322 0.53583 0.0
C354 C 0.44642 0.77644 0.48811 0.0
C355 C 0.45566 0.71646 0.46353 0.0
C356 C 0.46308 0.68465 0.48677 0.0
C357 C 0.45677 0.74636 0.50999 0.0
C358 C 0.47396 0.68407 0.55581 0.0
C359 C 0.47562 0.71399 0.60232 0.0
H360 H 0.63954 0.44129 0.69009 0.0
H361 H 0.68619 0.45245 0.89717 0.0
H362 H 0.75306 0.46186 0.85382 0.0
H363 H 0.79439 0.45802 0.75644 0.0
H364 H 0.74827 0.44946 0.54948 0.0
H365 H 0.68526 0.44872 0.59268 0.0
C366 C 0.66489 0.44685 0.72532 0.0
C367 C 0.65865 0.44686 0.79628 0.0
C368 C 0.70306 0.45241 0.69997 0.0
C369 C 0.69102 0.45324 0.84213 0.0
C370 C 0.72899 0.45828 0.8174 0.0
C371 C 0.7709 0.45706 0.72115 0.0
C372 C 0.77541 0.45373 0.65025 0.0
C373 C 0.7349 0.45674 0.74643 0.0
C374 C 0.74511 0.45226 0.60436 0.0
C375 C 0.70909 0.45155 0.629 0.0
H376 H 0.33865 0.79946 0.92996 0.0
H377 H 0.28957 0.76236 0.72419 0.0
H378 H 0.22584 0.70157 0.76882 0.0
H379 H 0.18916 0.65423 0.86555 0.0
H380 H 0.23618 0.69303 0.07189 0.0
H381 H 0.2956 0.7583 0.02856 0.0
C382 C 0.31337 0.77853 0.89542 0.0
C383 C 0.31832 0.78476 0.82429 0.0
C384 C 0.27688 0.74396 0.92153 0.0
C385 C 0.28587 0.75784 0.77931 0.0
C386 C 0.24973 0.72305 0.80471 0.0
C387 C 0.21194 0.67763 0.9008 0.0
C388 C 0.20847 0.66954 0.97146 0.0
C389 C 0.2456 0.71506 0.87552 0.0
C390 C 0.2382 0.69934 0.01722 0.0
C391 C 0.27221 0.73639 0.99247 0.0
H392 H 0.52941 0.32857 0.0732 0.0
H393 H 0.51139 0.26875 0.8752 0.0
H394 H 0.51292 0.20909 0.92874 0.0
H395 H 0.53036 0.18 0.03009 0.0
H396 H 0.54378 0.23776 0.22882 0.0
H397 H 0.53303 0.29248 0.17726 0.0
C398 C 0.52455 0.30177 0.04235 0.0
C399 C 0.52054 0.3027 0.97078 0.0
C400 C 0.52538 0.26783 0.07347 0.0
C401 C 0.51422 0.26819 0.93063 0.0
C402 C 0.5156 0.23445 0.96108 0.0
C403 C 0.52986 0.20409 0.06192 0.0
C404 C 0.53741 0.20507 0.13278 0.0
C405 C 0.52288 0.23483 0.03207 0.0
C406 C 0.53739 0.23643 0.17412 0.0
C407 C 0.53143 0.26768 0.14469 0.0
loop_
_geom_bond_atom_site_label_1
_geom_bond_atom_site_label_2
_geom_bond_distance
_geom_bond_site_symmetry_2
_ccdc_geom_bond_type
Mn0 O5 2.095 . S
Mn0 O15 2.162 . S
Mn0 O16 2.297 . S
Mn0 O24 2.385 . S
Mn0 O25 2.209 . S
Mn0 O26 2.094 1_554 S
Mn1 O6 2.121 . S
Mn1 N8 2.257 . S
Mn1 N17 2.282 1_554 S
Mn1 O25 2.215 . S
Mn1 O27 2.117 1_554 S
C2 O24 1.234 . S
C2 O25 1.283 . S
C3 O15 1.281 . S
C3 O16 1.236 . S
C4 O26 1.240 . S
C4 O27 1.264 . S
O5 Mn0 2.095 . S
O5 C14 1.250 . S
O6 Mn1 2.121 . S
O6 C14 1.258 . S
C7 N8 1.326 . S
C7 C11 1.460 . S
C7 H13 0.929 . S
N8 Mn1 2.257 . S
N8 C7 1.326 . S
N8 C12 1.362 . S
C9 C10 1.258 . S
C9 C12 1.431 . S
C9 C29 1.449 1_554 S
C10 C9 1.258 . S
C10 C11 1.477 . S
C10 H30 0.931 . S
C11 C7 1.460 . S
C11 C10 1.477 . S
C11 H31 0.930 . S
C12 N8 1.362 . S
C12 C9 1.431 . S
C12 C22 1.476 1_554 S
H13 C7 0.929 . S
C14 O5 1.250 . S
C14 O6 1.258 . S
O15 Mn0 2.162 . S
O15 C3 1.281 . S
O16 Mn0 2.297 . S
O16 C3 1.236 . S
N17 Mn1 2.282 1_556 S
N17 C18 1.328 . S
N17 C22 1.318 . S
C18 N17 1.328 . S
C18 C19 1.457 . S
C18 H23 0.929 . S
C19 C18 1.457 . S
C19 C20 1.291 . S
C19 H32 0.931 . S
C20 C19 1.291 . S
C20 C21 1.373 . S
C20 H33 0.929 . S
C21 C20 1.373 . S
C21 C22 1.396 . S
C21 C28 1.403 . S
C22 C12 1.476 1_556 S
C22 N17 1.318 . S
C22 C21 1.396 . S
H23 C18 0.929 . S
O24 Mn0 2.385 . S
O24 C2 1.234 . S
O25 Mn0 2.209 . S
O25 Mn1 2.215 . S
O25 C2 1.283 . S
O26 Mn0 2.094 1_556 S
O26 C4 1.240 . S
O27 Mn1 2.117 1_556 S
O27 C4 1.264 . S
C28 C21 1.403 . S
C28 C29 1.399 . S
C28 H34 0.929 . S
C29 C9 1.449 1_556 S
C29 C28 1.399 . S
C29 H35 0.930 . S
H30 C10 0.931 . S
H31 C11 0.930 . S
H32 C19 0.931 . S
H33 C20 0.929 . S
H34 C28 0.929 . S
H35 C29 0.930 . S
Mn36 O41 2.095 . S
Mn36 O51 2.162 . S
Mn36 O52 2.297 . S
Mn36 O60 2.385 . S
Mn36 O61 2.209 . S
Mn36 O62 2.094 . S
Mn37 O42 2.121 . S
Mn37 N44 2.257 . S
Mn37 N53 2.282 . S
Mn37 O61 2.215 . S
Mn37 O63 2.117 . S
C38 O60 1.234 . S
C38 O61 1.283 . S
C39 O51 1.281 . S
C39 O52 1.236 . S
C40 O62 1.240 . S
C40 O63 1.264 . S
O41 Mn36 2.095 . S
O41 C50 1.250 . S
O42 Mn37 2.121 . S
O42 C50 1.258 . S
C43 N44 1.326 . S
C43 C47 1.460 . S
C43 H49 0.929 . S
N44 Mn37 2.257 . S
N44 C43 1.326 . S
N44 C48 1.362 . S
C45 C46 1.258 . S
C45 C48 1.431 . S
C45 C65 1.449 . S
C46 C45 1.258 . S
C46 C47 1.477 . S
C46 H66 0.931 . S
C47 C43 1.460 . S
C47 C46 1.477 . S
C47 H67 0.930 . S
C48 N44 1.362 . S
C48 C45 1.431 . S
C48 C58 1.476 . S
H49 C43 0.929 . S
C50 O41 1.250 . S
C50 O42 1.258 . S
O51 Mn36 2.162 . S
O51 C39 1.281 . S
O52 Mn36 2.297 . S
O52 C39 1.236 . S
N53 Mn37 2.282 . S
N53 C54 1.328 . S
N53 C58 1.318 . S
C54 N53 1.328 . S
C54 C55 1.457 1_554 S
C54 H59 0.929 . S
C55 C54 1.457 1_556 S
C55 C56 1.291 1_556 S
C55 H68 0.931 . S
C56 C55 1.291 1_554 S
C56 C57 1.373 . S
C56 H69 0.929 1_554 S
C57 C56 1.373 . S
C57 C58 1.396 . S
C57 C64 1.403 . S
C58 C48 1.476 . S
C58 N53 1.318 . S
C58 C57 1.396 . S
H59 C54 0.929 . S
O60 Mn36 2.385 . S
O60 C38 1.234 . S
O61 Mn36 2.209 . S
O61 Mn37 2.215 . S
O61 C38 1.283 . S
O62 Mn36 2.094 . S
O62 C40 1.240 . S
O63 Mn37 2.117 . S
O63 C40 1.264 . S
C64 C57 1.403 . S
C64 C65 1.399 . S
C64 H70 0.929 . S
C65 C45 1.449 . S
C65 C64 1.399 . S
C65 H71 0.930 . S
H66 C46 0.931 . S
H67 C47 0.930 . S
H68 C55 0.931 . S
H69 C56 0.929 1_556 S
H70 C64 0.929 . S
H71 C65 0.930 . S
Mn72 O77 2.095 . S
Mn72 O87 2.162 . S
Mn72 O88 2.297 . S
Mn72 O96 2.385 . S
Mn72 O97 2.209 . S
Mn72 O98 2.094 . S
Mn73 O78 2.121 . S
Mn73 N80 2.257 . S
Mn73 N89 2.282 . S
Mn73 O97 2.215 . S
Mn73 O99 2.117 . S
C74 O96 1.234 . S
C74 O97 1.283 . S
C75 O87 1.281 . S
C75 O88 1.236 . S
C76 O98 1.240 . S
C76 O99 1.264 . S
O77 Mn72 2.095 . S
O77 C86 1.250 . S
O78 Mn73 2.121 . S
O78 C86 1.258 . S
C79 N80 1.326 . S
C79 C83 1.460 . S
C79 H85 0.929 . S
N80 Mn73 2.257 . S
N80 C79 1.326 . S
N80 C84 1.362 . S
C81 C82 1.258 . S
C81 C84 1.431 . S
C81 C101 1.449 . S
C82 C81 1.258 . S
C82 C83 1.477 . S
C82 H102 0.931 . S
C83 C79 1.460 . S
C83 C82 1.477 . S
C83 H103 0.930 . S
C84 N80 1.362 . S
C84 C81 1.431 . S
C84 C94 1.476 . S
H85 C79 0.929 . S
C86 O77 1.250 . S
C86 O78 1.258 . S
O87 Mn72 2.162 . S
O87 C75 1.281 . S
O88 Mn72 2.297 . S
O88 C75 1.236 . S
N89 Mn73 2.282 . S
N89 C90 1.328 . S
N89 C94 1.318 . S
C90 N89 1.328 . S
C90 C91 1.457 . S
C90 H95 0.929 . S
C91 C90 1.457 . S
C91 C92 1.291 . S
C91 H104 0.931 . S
C92 C91 1.291 . S
C92 C93 1.373 . S
C92 H105 0.929 . S
C93 C92 1.373 . S
C93 C94 1.396 . S
C93 C100 1.403 . S
C94 C84 1.476 . S
C94 N89 1.318 . S
C94 C93 1.396 . S
H95 C90 0.929 . S
O96 Mn72 2.385 . S
O96 C74 1.234 . S
O97 Mn72 2.209 . S
O97 Mn73 2.215 . S
O97 C74 1.283 . S
O98 Mn72 2.094 . S
O98 C76 1.240 . S
O99 Mn73 2.117 . S
O99 C76 1.264 . S
C100 C93 1.403 . S
C100 C101 1.399 . S
C100 H106 0.929 . S
C101 C81 1.449 . S
C101 C100 1.399 . S
C101 H107 0.930 . S
H102 C82 0.931 . S
H103 C83 0.930 . S
H104 C91 0.931 . S
H105 C92 0.929 . S
H106 C100 0.929 . S
H107 C101 0.930 . S
Mn108 O113 2.095 . S
Mn108 O123 2.162 . S
Mn108 O124 2.297 . S
Mn108 O132 2.385 . S
Mn108 O133 2.209 . S
Mn108 O134 2.094 . S
Mn109 O114 2.121 . S
Mn109 N116 2.257 . S
Mn109 N125 2.282 . S
Mn109 O133 2.215 . S
Mn109 O135 2.117 . S
C110 O132 1.234 . S
C110 O133 1.283 . S
C111 O123 1.281 . S
C111 O124 1.236 . S
C112 O134 1.240 . S
C112 O135 1.264 . S
O113 Mn108 2.095 . S
O113 C122 1.250 . S
O114 Mn109 2.121 . S
O114 C122 1.258 . S
C115 N116 1.326 . S
C115 C119 1.460 . S
C115 H121 0.929 . S
N116 Mn109 2.257 . S
N116 C115 1.326 . S
N116 C120 1.362 . S
C117 C118 1.258 . S
C117 C120 1.431 . S
C117 C137 1.449 . S
C118 C117 1.258 . S
C118 C119 1.477 . S
C118 H138 0.931 . S
C119 C115 1.460 . S
C119 C118 1.477 . S
C119 H139 0.930 . S
C120 N116 1.362 . S
C120 C117 1.431 . S
C120 C130 1.476 . S
H121 C115 0.929 . S
C122 O113 1.250 . S
C122 O114 1.258 . S
O123 Mn108 2.162 . S
O123 C111 1.281 . S
O124 Mn108 2.297 . S
O124 C111 1.236 . S
N125 Mn109 2.282 . S
N125 C126 1.328 . S
N125 C130 1.318 . S
C126 N125 1.328 . S
C126 C127 1.457 . S
C126 H131 0.929 . S
C127 C126 1.457 . S
C127 C128 1.291 . S
C127 H140 0.931 . S
C128 C127 1.291 . S
C128 C129 1.373 . S
C128 H141 0.929 . S
C129 C128 1.373 . S
C129 C130 1.396 . S
C129 C136 1.403 . S
C130 C120 1.476 . S
C130 N125 1.318 . S
C130 C129 1.396 . S
H131 C126 0.929 . S
O132 Mn108 2.385 . S
O132 C110 1.234 . S
O133 Mn108 2.209 . S
O133 Mn109 2.215 . S
O133 C110 1.283 . S
O134 Mn108 2.094 . S
O134 C112 1.240 . S
O135 Mn109 2.117 . S
O135 C112 1.264 . S
C136 C129 1.403 . S
C136 C137 1.399 . S
C136 H142 0.929 . S
C137 C117 1.449 . S
C137 C136 1.399 . S
C137 H143 0.930 . S
H138 C118 0.931 . S
H139 C119 0.930 . S
H140 C127 0.931 . S
H141 C128 0.929 . S
H142 C136 0.929 . S
H143 C137 0.930 . S
Mn144 O149 2.095 . S
Mn144 O159 2.162 . S
Mn144 O160 2.297 . S
Mn144 O168 2.385 . S
Mn144 O169 2.209 . S
Mn144 O170 2.094 . S
Mn145 O150 2.121 . S
Mn145 N152 2.257 . S
Mn145 N161 2.282 . S
Mn145 O169 2.215 . S
Mn145 O171 2.117 . S
C146 O168 1.234 . S
C146 O169 1.283 . S
C147 O159 1.281 . S
C147 O160 1.236 . S
C148 O170 1.240 . S
C148 O171 1.264 . S
O149 Mn144 2.095 . S
O149 C158 1.250 . S
O150 Mn145 2.121 . S
O150 C158 1.258 . S
C151 N152 1.326 . S
C151 C155 1.460 . S
C151 H157 0.929 . S
N152 Mn145 2.257 . S
N152 C151 1.326 . S
N152 C156 1.362 . S
C153 C154 1.258 . S
C153 C156 1.431 . S
C153 C173 1.449 . S
C154 C153 1.258 . S
C154 C155 1.477 . S
C154 H174 0.931 . S
C155 C151 1.460 . S
C155 C154 1.477 . S
C155 H175 0.930 . S
C156 N152 1.362 . S
C156 C153 1.431 . S
C156 C166 1.476 . S
H157 C151 0.929 . S
C158 O149 1.250 . S
C158 O150 1.258 . S
O159 Mn144 2.162 . S
O159 C147 1.281 . S
O160 Mn144 2.297 . S
O160 C147 1.236 . S
N161 Mn145 2.282 . S
N161 C162 1.328 . S
N161 C166 1.318 . S
C162 N161 1.328 . S
C162 C163 1.457 . S
C162 H167 0.929 . S
C163 C162 1.457 . S
C163 C164 1.291 . S
C163 H176 0.931 . S
C164 C163 1.291 . S
C164 C165 1.373 . S
C164 H177 0.929 . S
C165 C164 1.373 . S
C165 C166 1.396 . S
C165 C172 1.403 . S
C166 C156 1.476 . S
C166 N161 1.318 . S
C166 C165 1.396 . S
H167 C162 0.929 . S
O168 Mn144 2.385 . S
O168 C146 1.234 . S
O169 Mn144 2.209 . S
O169 Mn145 2.215 . S
O169 C146 1.283 . S
O170 Mn144 2.094 . S
O170 C148 1.240 . S
O171 Mn145 2.117 . S
O171 C148 1.264 . S
C172 C165 1.403 . S
C172 C173 1.399 . S
C172 H178 0.929 . S
C173 C153 1.449 . S
C173 C172 1.399 . S
C173 H179 0.930 . S
H174 C154 0.931 . S
H175 C155 0.930 . S
H176 C163 0.931 . S
H177 C164 0.929 . S
H178 C172 0.929 . S
H179 C173 0.930 . S
Mn180 O185 2.095 . S
Mn180 O195 2.162 . S
Mn180 O196 2.297 . S
Mn180 O204 2.385 . S
Mn180 O205 2.209 . S
Mn180 O206 2.094 . S
Mn181 O186 2.121 . S
Mn181 N188 2.257 . S
Mn181 N197 2.282 . S
Mn181 O205 2.215 . S
Mn181 O207 2.117 . S
C182 O204 1.234 . S
C182 O205 1.283 . S
C183 O195 1.281 . S
C183 O196 1.236 . S
C184 O206 1.240 . S
C184 O207 1.264 . S
O185 Mn180 2.095 . S
O185 C194 1.250 1_556 S
O186 Mn181 2.121 . S
O186 C194 1.258 1_556 S
C187 N188 1.326 . S
C187 C191 1.460 . S
C187 H193 0.929 1_556 S
N188 Mn181 2.257 . S
N188 C187 1.326 . S
N188 C192 1.362 . S
C189 C190 1.258 . S
C189 C192 1.431 . S
C189 C209 1.449 . S
C190 C189 1.258 . S
C190 C191 1.477 . S
C190 H210 0.931 . S
C191 C187 1.460 . S
C191 C190 1.477 . S
C191 H211 0.930 1_556 S
C192 N188 1.362 . S
C192 C189 1.431 . S
C192 C202 1.476 . S
H193 C187 0.929 1_554 S
C194 O185 1.250 1_554 S
C194 O186 1.258 1_554 S
O195 Mn180 2.162 . S
O195 C183 1.281 . S
O196 Mn180 2.297 . S
O196 C183 1.236 . S
N197 Mn181 2.282 . S
N197 C198 1.328 . S
N197 C202 1.318 . S
C198 N197 1.328 . S
C198 C199 1.457 . S
C198 H203 0.929 . S
C199 C198 1.457 . S
C199 C200 1.291 . S
C199 H212 0.931 . S
C200 C199 1.291 . S
C200 C201 1.373 . S
C200 H213 0.929 . S
C201 C200 1.373 . S
C201 C202 1.396 . S
C201 C208 1.403 . S
C202 C192 1.476 . S
C202 N197 1.318 . S
C202 C201 1.396 . S
H203 C198 0.929 . S
O204 Mn180 2.385 . S
O204 C182 1.234 . S
O205 Mn180 2.209 . S
O205 Mn181 2.215 . S
O205 C182 1.283 . S
O206 Mn180 2.094 . S
O206 C184 1.240 . S
O207 Mn181 2.117 . S
O207 C184 1.264 . S
C208 C201 1.403 . S
C208 C209 1.399 . S
C208 H214 0.929 . S
C209 C189 1.449 . S
C209 C208 1.399 . S
C209 H215 0.930 . S
H210 C190 0.931 . S
H211 C191 0.930 1_554 S
H212 C199 0.931 . S
H213 C200 0.929 . S
H214 C208 0.929 . S
H215 C209 0.930 . S
H216 C222 0.930 . S
H217 C225 0.930 1_554 S
H218 C226 0.930 . S
H219 C227 0.930 . S
H220 C230 0.930 . S
H221 C231 0.930 . S
C222 H216 0.930 . S
C222 C223 1.355 . S
C222 C224 1.415 . S
C223 C222 1.355 . S
C223 C225 1.419 . S
C224 C222 1.415 . S
C224 C229 1.425 1_455 S
C224 C231 1.409 . S
C225 H217 0.930 1_556 S
C225 C223 1.419 . S
C225 C226 1.362 1_455 S
C226 H218 0.930 . S
C226 C225 1.362 1_655 S
C226 C229 1.409 . S
C227 H219 0.930 . S
C227 C228 1.355 . S
C227 C229 1.415 . S
C228 C227 1.355 . S
C228 C230 1.419 . S
C229 C224 1.425 1_655 S
C229 C226 1.409 . S
C229 C227 1.415 . S
C230 H220 0.930 . S
C230 C228 1.419 . S
C230 C231 1.362 1_655 S
C231 H221 0.930 . S
C231 C224 1.409 . S
C231 C230 1.362 1_455 S
H232 C238 0.930 . S
H233 C241 0.930 . S
H234 C242 0.930 . S
H235 C243 0.930 . S
H236 C246 0.930 . S
H237 C247 0.930 . S
C238 H232 0.930 . S
C238 C239 1.355 . S
C238 C240 1.415 1_556 S
C239 C238 1.355 . S
C239 C241 1.419 . S
C240 C238 1.415 1_554 S
C240 C245 1.425 1_564 S
C240 C247 1.409 . S
C241 H233 0.930 . S
C241 C239 1.419 . S
C241 C242 1.362 1_565 S
C242 H234 0.930 . S
C242 C241 1.362 1_545 S
C242 C245 1.409 . S
C243 H235 0.930 . S
C243 C244 1.355 . S
C243 C245 1.415 1_554 S
C244 C243 1.355 . S
C244 C246 1.419 . S
C245 C240 1.425 1_546 S
C245 C242 1.409 . S
C245 C243 1.415 1_556 S
C246 H236 0.930 . S
C246 C244 1.419 . S
C246 C247 1.362 1_545 S
C247 H237 0.930 . S
C247 C240 1.409 . S
C247 C246 1.362 1_565 S
H248 C254 0.930 . S
H249 C257 0.930 . S
H250 C258 0.930 . S
H251 C259 0.930 . S
H252 C262 0.930 . S
H253 C263 0.930 . S
C254 H248 0.930 . S
C254 C255 1.355 . S
C254 C256 1.415 . S
C255 C254 1.355 . S
C255 C257 1.419 . S
C256 C254 1.415 . S
C256 C261 1.425 . S
C256 C263 1.409 . S
C257 H249 0.930 . S
C257 C255 1.419 . S
C257 C258 1.362 . S
C258 H250 0.930 . S
C258 C257 1.362 . S
C258 C261 1.409 . S
C259 H251 0.930 . S
C259 C260 1.355 . S
C259 C261 1.415 . S
C260 C259 1.355 . S
C260 C262 1.419 . S
C261 C256 1.425 . S
C261 C258 1.409 . S
C261 C259 1.415 . S
C262 H252 0.930 . S
C262 C260 1.419 . S
C262 C263 1.362 . S
C263 H253 0.930 . S
C263 C256 1.409 . S
C263 C262 1.362 . S
H264 C270 0.930 1_455 S
H265 C273 0.930 . S
H266 C274 0.930 . S
H267 C275 0.930 . S
H268 C278 0.930 . S
H269 C279 0.930 . S
C270 H264 0.930 1_655 S
C270 C271 1.355 . S
C270 C272 1.415 1_655 S
C271 C270 1.355 . S
C271 C273 1.419 . S
C272 C270 1.415 1_455 S
C272 C277 1.425 1_455 S
C272 C279 1.409 . S
C273 H265 0.930 . S
C273 C271 1.419 . S
C273 C274 1.362 . S
C274 H266 0.930 . S
C274 C273 1.362 . S
C274 C277 1.409 . S
C275 H267 0.930 . S
C275 C276 1.355 . S
C275 C277 1.415 1_455 S
C276 C275 1.355 . S
C276 C278 1.419 . S
C277 C272 1.425 1_655 S
C277 C274 1.409 . S
C277 C275 1.415 1_655 S
C278 H268 0.930 . S
C278 C276 1.419 . S
C278 C279 1.362 . S
C279 H269 0.930 . S
C279 C272 1.409 . S
C279 C278 1.362 . S
H280 C286 0.930 . S
H281 C289 0.930 . S
H282 C290 0.930 . S
H283 C291 0.926 1_545 S
H284 C294 0.930 . S
H285 C295 0.930 . S
C286 H280 0.930 . S
C286 C287 1.355 . S
C286 C288 1.415 1_545 S
C287 C286 1.355 . S
C287 C289 1.419 . S
C288 C286 1.415 1_565 S
C288 C293 1.425 1_565 S
C288 C295 1.409 . S
C289 H281 0.930 . S
C289 C287 1.419 . S
C289 C290 1.362 . S
C290 H282 0.930 . S
C290 C289 1.362 . S
C290 C293 1.409 . S
C291 H283 0.926 1_565 S
C291 C292 1.355 . S
C291 C293 1.415 1_565 S
C292 C291 1.355 . S
C292 C294 1.419 . S
C293 C288 1.425 1_545 S
C293 C290 1.409 . S
C293 C291 1.415 1_545 S
C294 H284 0.930 . S
C294 C292 1.419 . S
C294 C295 1.362 . S
C295 H285 0.930 . S
C295 C288 1.409 . S
C295 C294 1.362 . S
H296 C302 0.930 . S
H297 C305 0.930 . S
H298 C306 0.930 . S
H299 C307 0.930 . S
H300 C310 0.930 . S
H301 C311 0.930 . S
C302 H296 0.930 . S
C302 C303 1.355 . S
C302 C304 1.415 . S
C303 C302 1.355 . S
C303 C305 1.419 . S
C304 C302 1.415 . S
C304 C309 1.425 . S
C304 C311 1.409 . S
C305 H297 0.930 . S
C305 C303 1.419 . S
C305 C306 1.362 . S
C306 H298 0.930 . S
C306 C305 1.362 . S
C306 C309 1.409 . S
C307 H299 0.930 . S
C307 C308 1.355 . S
C307 C309 1.415 . S
C308 C307 1.355 . S
C308 C310 1.419 . S
C309 C304 1.425 . S
C309 C306 1.409 . S
C309 C307 1.415 . S
C310 H300 0.930 . S
C310 C308 1.419 . S
C310 C311 1.362 . S
C311 H301 0.930 . S
C311 C304 1.409 . S
C311 C310 1.362 . S
H312 C318 0.930 . S
H313 C321 0.930 . S
H314 C322 0.930 . S
H315 C323 0.930 . S
H316 C326 0.930 . S
H317 C327 0.930 . S
C318 H312 0.930 . S
C318 C319 1.355 . S
C318 C320 1.415 . S
C319 C318 1.355 . S
C319 C321 1.419 . S
C320 C318 1.415 . S
C320 C325 1.425 . S
C320 C327 1.409 . S
C321 H313 0.930 . S
C321 C319 1.419 . S
C321 C322 1.362 . S
C322 H314 0.930 . S
C322 C321 1.362 . S
C322 C325 1.409 . S
C323 H315 0.930 . S
C323 C324 1.355 . S
C323 C325 1.415 . S
C324 C323 1.355 . S
C324 C326 1.419 . S
C325 C320 1.425 . S
C325 C322 1.409 . S
C325 C323 1.415 . S
C326 H316 0.930 . S
C326 C324 1.419 . S
C326 C327 1.362 . S
C327 H317 0.930 . S
C327 C320 1.409 . S
C327 C326 1.362 . S
H328 C334 0.930 . S
H329 C337 0.930 . S
H330 C338 0.930 . S
H331 C339 0.930 . S
H332 C342 0.930 . S
H333 C343 0.930 . S
C334 H328 0.930 . S
C334 C335 1.355 . S
C334 C336 1.415 . S
C335 C334 1.355 . S
C335 C337 1.419 . S
C336 C334 1.415 . S
C336 C341 1.425 . S
C336 C343 1.409 . S
C337 H329 0.930 . S
C337 C335 1.419 . S
C337 C338 1.362 . S
C338 H330 0.930 . S
C338 C337 1.362 . S
C338 C341 1.409 . S
C339 H331 0.930 . S
C339 C340 1.355 . S
C339 C341 1.415 . S
C340 C339 1.355 . S
C340 C342 1.419 . S
C341 C336 1.425 . S
C341 C338 1.409 . S
C341 C339 1.415 . S
C342 H332 0.930 . S
C342 C340 1.419 . S
C342 C343 1.362 . S
C343 H333 0.930 . S
C343 C336 1.409 . S
C343 C342 1.362 . S
H344 C350 0.930 . S
H345 C353 0.930 . S
H346 C354 0.930 . S
H347 C355 0.930 . S
H348 C358 0.930 . S
H349 C359 0.930 . S
C350 H344 0.930 . S
C350 C351 1.355 . S
C350 C352 1.415 . S
C351 C350 1.355 . S
C351 C353 1.419 . S
C352 C350 1.415 . S
C352 C357 1.425 . S
C352 C359 1.409 . S
C353 H345 0.930 . S
C353 C351 1.419 . S
C353 C354 1.362 . S
C354 H346 0.930 . S
C354 C353 1.362 . S
C354 C357 1.409 . S
C355 H347 0.930 . S
C355 C356 1.355 . S
C355 C357 1.415 . S
C356 C355 1.355 . S
C356 C358 1.419 . S
C357 C352 1.425 . S
C357 C354 1.409 . S
C357 C355 1.415 . S
C358 H348 0.930 . S
C358 C356 1.419 . S
C358 C359 1.362 . S
C359 H349 0.930 . S
C359 C352 1.409 . S
C359 C358 1.362 . S
H360 C366 0.930 . S
H361 C369 0.930 . S
H362 C370 0.930 . S
H363 C371 0.930 . S
H364 C374 0.930 . S
H365 C375 0.930 . S
C366 H360 0.930 . S
C366 C367 1.355 . S
C366 C368 1.415 . S
C367 C366 1.355 . S
C367 C369 1.419 . S
C368 C366 1.415 . S
C368 C373 1.425 . S
C368 C375 1.409 . S
C369 H361 0.930 . S
C369 C367 1.419 . S
C369 C370 1.362 . S
C370 H362 0.930 . S
C370 C369 1.362 . S
C370 C373 1.409 . S
C371 H363 0.930 . S
C371 C372 1.355 . S
C371 C373 1.415 . S
C372 C371 1.355 . S
C372 C374 1.419 . S
C373 C368 1.425 . S
C373 C370 1.409 . S
C373 C371 1.415 . S
C374 H364 0.930 . S
C374 C372 1.419 . S
C374 C375 1.362 . S
C375 H365 0.930 . S
C375 C368 1.409 . S
C375 C374 1.362 . S
H376 C382 0.930 . S
H377 C385 0.930 . S
H378 C386 0.930 . S
H379 C387 0.930 . S
H380 C390 0.930 . S
H381 C391 0.930 . S
C382 H376 0.930 . S
C382 C383 1.355 . S
C382 C384 1.415 . S
C383 C382 1.355 . S
C383 C385 1.419 . S
C384 C382 1.415 . S
C384 C389 1.425 . S
C384 C391 1.409 . S
C385 H377 0.930 . S
C385 C383 1.419 . S
C385 C386 1.362 . S
C386 H378 0.930 . S
C386 C385 1.362 . S
C386 C389 1.409 . S
C387 H379 0.930 . S
C387 C388 1.355 . S
C387 C389 1.415 . S
C388 C387 1.355 . S
C388 C390 1.419 . S
C389 C384 1.425 . S
C389 C386 1.409 . S
C389 C387 1.415 . S
C390 H380 0.930 . S
C390 C388 1.419 . S
C390 C391 1.362 . S
C391 H381 0.930 . S
C391 C384 1.409 . S
C391 C390 1.362 . S
H392 C398 0.930 . S
H393 C401 0.930 . S
H394 C402 0.930 . S
H395 C403 0.930 . S
H396 C406 0.930 . S
H397 C407 0.930 . S
C398 H392 0.930 . S
C398 C399 1.355 . S
C398 C400 1.415 . S
C399 C398 1.355 . S
C399 C401 1.419 1_554 S
C400 C398 1.415 . S
C400 C405 1.425 . S
C400 C407 1.409 . S
C401 H393 0.930 . S
C401 C399 1.419 1_556 S
C401 C402 1.362 1_556 S
C402 H394 0.930 . S
C402 C401 1.362 1_554 S
C402 C405 1.409 . S
C403 H395 0.930 . S
C403 C404 1.355 . S
C403 C405 1.415 . S
C404 C403 1.355 . S
C404 C406 1.419 . S
C405 C400 1.425 . S
C405 C402 1.409 . S
C405 C403 1.415 . S
C406 H396 0.930 . S
C406 C404 1.419 . S
C406 C407 1.362 . S
C407 H397 0.930 . S
C407 C400 1.409 . S
C407 C406 1.362 . S
C223 C4 1.244 . S
C228 C122 1.227 . S
C239 C158 1.260 . S
C244 C40 1.294 . S
C255 C76 1.264 . S
C260 C194 1.296 . S
C271 C112 1.268 . S
C276 C14 1.298 . S
C287 C50 1.296 . S
C292 C148 1.264 . S
C303 C184 1.247 . S
C308 C86 1.285 . S
C319 C3 1.275 . S
C324 C74 1.248 . S
C335 C39 1.314 . S
C340 C110 1.260 . S
C351 C146 1.249 . S
C356 C75 1.274 . S
C367 C182 1.281 . S
C372 C111 1.313 . S
C383 C147 1.267 . S
C388 C2 1.277 1_556 S
C399 C183 1.280 1_554 S
C404 C38 1.305 . S
