# Generated by pormake.
# Topology rhr, (4)-cn, num edge types: 1
# Building blocks:
#     Node 0, Type 0, BuildingBlock: KOZSID_clean_sbu_0, # of connection points: 4
#     Node 1, Type 0, BuildingBlock: KOZSID_clean_sbu_0, # of connection points: 4
#     Node 2, Type 0, BuildingBlock: KOZSID_clean_sbu_0, # of connection points: 4
#     Node 3, Type 0, BuildingBlock: KOZSID_clean_sbu_0, # of connection points: 4
#     Node 4, Type 0, BuildingBlock: KOZSID_clean_sbu_0, # of connection points: 4
#     Node 5, Type 0, BuildingBlock: KOZSID_clean_sbu_0, # of connection points: 4
#     Node 6, Type 0, BuildingBlock: KOZSID_clean_sbu_0, # of connection points: 4
#     Node 7, Type 0, BuildingBlock: KOZSID_clean_sbu_0, # of connection points: 4
#     Node 8, Type 0, BuildingBlock: KOZSID_clean_sbu_0, # of connection points: 4
#     Node 9, Type 0, BuildingBlock: KOZSID_clean_sbu_0, # of connection points: 4
#     Node 10, Type 0, BuildingBlock: KOZSID_clean_sbu_0, # of connection points: 4
#     Node 11, Type 0, BuildingBlock: KOZSID_clean_sbu_0, # of connection points: 4
#     Node 12, Type 0, BuildingBlock: KOZSID_clean_sbu_0, # of connection points: 4
#     Node 13, Type 0, BuildingBlock: KOZSID_clean_sbu_0, # of connection points: 4
#     Node 14, Type 0, BuildingBlock: KOZSID_clean_sbu_0, # of connection points: 4
#     Node 15, Type 0, BuildingBlock: KOZSID_clean_sbu_0, # of connection points: 4
#     Node 16, Type 0, BuildingBlock: KOZSID_clean_sbu_0, # of connection points: 4
#     Node 17, Type 0, BuildingBlock: KOZSID_clean_sbu_0, # of connection points: 4
#     Node 18, Type 0, BuildingBlock: KOZSID_clean_sbu_0, # of connection points: 4
#     Node 19, Type 0, BuildingBlock: KOZSID_clean_sbu_0, # of connection points: 4
#     Node 20, Type 0, BuildingBlock: KOZSID_clean_sbu_0, # of connection points: 4
#     Node 21, Type 0, BuildingBlock: KOZSID_clean_sbu_0, # of connection points: 4
#     Node 22, Type 0, BuildingBlock: KOZSID_clean_sbu_0, # of connection points: 4
#     Node 23, Type 0, BuildingBlock: KOZSID_clean_sbu_0, # of connection points: 4
#     Edge 24, Type (0, 0), BuildingBlock: AJUNOK_clean_linker_0, # of connection points: 2
#     Edge 25, Type (0, 0), BuildingBlock: AJUNOK_clean_linker_0, # of connection points: 2
#     Edge 26, Type (0, 0), BuildingBlock: AJUNOK_clean_linker_0, # of connection points: 2
#     Edge 27, Type (0, 0), BuildingBlock: AJUNOK_clean_linker_0, # of connection points: 2
#     Edge 28, Type (0, 0), BuildingBlock: AJUNOK_clean_linker_0, # of connection points: 2
#     Edge 29, Type (0, 0), BuildingBlock: AJUNOK_clean_linker_0, # of connection points: 2
#     Edge 30, Type (0, 0), BuildingBlock: AJUNOK_clean_linker_0, # of connection points: 2
#     Edge 31, Type (0, 0), BuildingBlock: AJUNOK_clean_linker_0, # of connection points: 2
#     Edge 32, Type (0, 0), BuildingBlock: AJUNOK_clean_linker_0, # of connection points: 2
#     Edge 33, Type (0, 0), BuildingBlock: AJUNOK_clean_linker_0, # of connection points: 2
#     Edge 34, Type (0, 0), BuildingBlock: AJUNOK_clean_linker_0, # of connection points: 2
#     Edge 35, Type (0, 0), BuildingBlock: AJUNOK_clean_linker_0, # of connection points: 2
#     Edge 36, Type (0, 0), BuildingBlock: AJUNOK_clean_linker_0, # of connection points: 2
#     Edge 37, Type (0, 0), BuildingBlock: AJUNOK_clean_linker_0, # of connection points: 2
#     Edge 38, Type (0, 0), BuildingBlock: AJUNOK_clean_linker_0, # of connection points: 2
#     Edge 39, Type (0, 0), BuildingBlock: AJUNOK_clean_linker_0, # of connection points: 2
#     Edge 40, Type (0, 0), BuildingBlock: AJUNOK_clean_linker_0, # of connection points: 2
#     Edge 41, Type (0, 0), BuildingBlock: AJUNOK_clean_linker_0, # of connection points: 2
#     Edge 42, Type (0, 0), BuildingBlock: AJUNOK_clean_linker_0, # of connection points: 2
#     Edge 43, Type (0, 0), BuildingBlock: AJUNOK_clean_linker_0, # of connection points: 2
#     Edge 44, Type (0, 0), BuildingBlock: AJUNOK_clean_linker_0, # of connection points: 2
#     Edge 45, Type (0, 0), BuildingBlock: AJUNOK_clean_linker_0, # of connection points: 2
#     Edge 46, Type (0, 0), BuildingBlock: AJUNOK_clean_linker_0, # of connection points: 2
#     Edge 47, Type (0, 0), BuildingBlock: AJUNOK_clean_linker_0, # of connection points: 2
#     Edge 48, Type (0, 0), BuildingBlock: AJUNOK_clean_linker_0, # of connection points: 2
#     Edge 49, Type (0, 0), BuildingBlock: AJUNOK_clean_linker_0, # of connection points: 2
#     Edge 50, Type (0, 0), BuildingBlock: AJUNOK_clean_linker_0, # of connection points: 2
#     Edge 51, Type (0, 0), BuildingBlock: AJUNOK_clean_linker_0, # of connection points: 2
#     Edge 52, Type (0, 0), BuildingBlock: AJUNOK_clean_linker_0, # of connection points: 2
#     Edge 53, Type (0, 0), BuildingBlock: AJUNOK_clean_linker_0, # of connection points: 2
#     Edge 54, Type (0, 0), BuildingBlock: AJUNOK_clean_linker_0, # of connection points: 2
#     Edge 55, Type (0, 0), BuildingBlock: AJUNOK_clean_linker_0, # of connection points: 2
#     Edge 56, Type (0, 0), BuildingBlock: AJUNOK_clean_linker_0, # of connection points: 2
#     Edge 57, Type (0, 0), BuildingBlock: AJUNOK_clean_linker_0, # of connection points: 2
#     Edge 58, Type (0, 0), BuildingBlock: AJUNOK_clean_linker_0, # of connection points: 2
#     Edge 59, Type (0, 0), BuildingBlock: AJUNOK_clean_linker_0, # of connection points: 2
#     Edge 60, Type (0, 0), BuildingBlock: AJUNOK_clean_linker_0, # of connection points: 2
#     Edge 61, Type (0, 0), BuildingBlock: AJUNOK_clean_linker_0, # of connection points: 2
#     Edge 62, Type (0, 0), BuildingBlock: AJUNOK_clean_linker_0, # of connection points: 2
#     Edge 63, Type (0, 0), BuildingBlock: AJUNOK_clean_linker_0, # of connection points: 2
#     Edge 64, Type (0, 0), BuildingBlock: AJUNOK_clean_linker_0, # of connection points: 2
#     Edge 65, Type (0, 0), BuildingBlock: AJUNOK_clean_linker_0, # of connection points: 2
#     Edge 66, Type (0, 0), BuildingBlock: AJUNOK_clean_linker_0, # of connection points: 2
#     Edge 67, Type (0, 0), BuildingBlock: AJUNOK_clean_linker_0, # of connection points: 2
#     Edge 68, Type (0, 0), BuildingBlock: AJUNOK_clean_linker_0, # of connection points: 2
#     Edge 69, Type (0, 0), BuildingBlock: AJUNOK_clean_linker_0, # of connection points: 2
#     Edge 70, Type (0, 0), BuildingBlock: AJUNOK_clean_linker_0, # of connection points: 2
#     Edge 71, Type (0, 0), BuildingBlock: AJUNOK_clean_linker_0, # of connection points: 2
# Relax obj value: 0.008
# Max RMSD: 0.043
# Mean RMSD: 0.027
data_MOF--net-rhr--node1-KOZSID_clean_sbu_0--edge1-AJUNOK_clean_linker_0
_symmetry_space_group_name_H-M    P1
_symmetry_Int_Tables_number       1
_symmetry_cell_setting            triclinic
loop_
_symmetry_equiv_pos_as_xyz
'x, y, z'
_cell_length_a     48.75593
_cell_length_b     48.840839
_cell_length_c     48.634289
_cell_angle_alpha  86.296795
_cell_angle_beta   84.437203
_cell_angle_gamma 91.012306
loop_
_atom_site_label
_atom_site_type_symbol
_atom_site_fract_x
_atom_site_fract_y
_atom_site_fract_z
_atom_type_partial_charge
C0 C 0.41254 0.99198 0.36157 0.0
C1 C 0.43568 0.98143 0.37259 0.0
C2 C 0.43756 0.99319 0.39707 0.0
C3 C 0.41537 0.00995 0.39995 0.0
N4 N 0.39918 1.00949 0.37893 0.0
Co5 Co 0.36424 0.03057 0.3762 0.0
N6 N 0.36787 0.04901 0.41166 0.0
C7 C 0.38905 0.04606 0.42751 0.0
C8 C 0.3866 0.06108 0.45043 0.0
C9 C 0.36224 0.0743 0.4494 0.0
C10 C 0.35092 0.0664 0.42595 0.0
N11 N 0.32895 0.05128 0.37382 0.0
C12 C 0.31488 0.0676 0.39199 0.0
C13 C 0.28991 0.07533 0.38276 0.0
C14 C 0.28822 0.06399 0.35803 0.0
C15 C 0.31197 0.04967 0.35355 0.0
N16 N 0.36088 0.01247 0.34046 0.0
C17 C 0.34051 0.01664 0.32378 0.0
C18 C 0.34406 1.00326 0.29983 0.0
C19 C 0.3683 0.98985 0.30105 0.0
C20 C 0.37821 0.99557 0.32593 0.0
N21 N 0.34262 0.99983 0.39752 0.0
C22 C 0.30898 0.95963 0.42981 0.0
C23 C 0.30214 0.96978 0.40391 0.0
C24 C 0.31914 0.9895 0.38821 0.0
C25 C 0.33361 0.96917 0.43876 0.0
C26 C 0.34994 0.98915 0.42247 0.0
N27 N 0.38585 0.06126 0.35469 0.0
C28 C 0.39248 0.09304 0.31413 0.0
C29 C 0.41898 0.10028 0.32016 0.0
C30 C 0.42811 0.08853 0.34455 0.0
C31 C 0.41136 0.06926 0.36138 0.0
C32 C 0.37638 0.07387 0.33156 0.0
H33 H 0.41962 0.06089 0.3795 0.0
H34 H 0.35652 0.06927 0.32556 0.0
H35 H 0.31258 0.99633 0.36877 0.0
H36 H 0.36824 0.99581 0.43063 0.0
C37 C 0.40995 0.02752 0.42133 0.0
C38 C 0.40458 0.98501 0.3343 0.0
C39 C 0.32385 0.07585 0.41851 0.0
C40 C 0.31854 0.0337 0.33102 0.0
H41 H 0.44998 0.96698 0.36369 0.0
H42 H 0.45349 0.99019 0.41092 0.0
H43 H 0.4006 0.06189 0.46635 0.0
H44 H 0.35366 0.08797 0.46445 0.0
H45 H 0.27422 0.08752 0.39302 0.0
H46 H 0.27136 0.0655 0.34513 0.0
H47 H 0.33083 1.0036 0.28319 0.0
H48 H 0.37777 0.97763 0.28514 0.0
H49 H 0.28336 0.96299 0.39593 0.0
H50 H 0.34036 0.96129 0.45825 0.0
H51 H 0.3843 0.10167 0.29562 0.0
H52 H 0.4481 0.09417 0.35071 0.0
C53 C 0.07494 0.40417 0.33528 0.0
C54 C 0.07336 0.43105 0.34305 0.0
C55 C 0.05565 0.43072 0.36655 0.0
C56 C 0.04656 0.40401 0.37128 0.0
N57 N 0.05718 0.38728 0.35208 0.0
Co58 Co 0.04343 0.34922 0.34692 0.0
N59 N 0.01815 0.34821 0.38221 0.0
C60 C 0.01528 0.36831 0.40009 0.0
C61 C 0.99788 0.36131 0.42341 0.0
C62 C 0.98944 0.33496 0.42054 0.0
C63 C 1.00219 0.32739 0.39548 0.0
N64 N 0.02855 0.31169 0.34102 0.0
C65 C 0.01032 0.29484 0.35734 0.0
C66 C 1.00546 0.27061 0.34501 0.0
C67 C 0.02123 0.27215 0.32014 0.0
C68 C 0.03477 0.29713 0.31863 0.0
N69 N 0.07015 0.3496 0.31266 0.0
C70 C 0.07383 0.32891 0.29556 0.0
C71 C 0.09621 0.33285 0.27635 0.0
C72 C 0.10753 0.35756 0.28138 0.0
C73 C 0.09091 0.36781 0.30303 0.0
N74 N 0.07202 0.33306 0.36835 0.0
C75 C 0.10759 0.30608 0.40212 0.0
C76 C 0.10207 0.29564 0.37723 0.0
C77 C 0.0843 0.30935 0.36077 0.0
C78 C 0.09635 0.33104 0.40923 0.0
C79 C 0.07886 0.34433 0.3919 0.0
N80 N 0.01458 0.36553 0.32529 0.0
C81 C 0.99576 0.37474 0.28151 0.0
C82 C 0.97861 0.39428 0.29307 0.0
C83 C 0.97829 0.39808 0.32116 0.0
C84 C 0.99604 0.38331 0.33687 0.0
C85 C 0.01351 0.36061 0.29794 0.0
H86 H 0.99463 0.38719 0.35816 0.0
H87 H 0.02653 0.34634 0.28783 0.0
H88 H 0.08018 0.29994 0.34243 0.0
H89 H 0.07054 0.36331 0.39818 0.0
C90 C 0.02817 0.39398 0.3936 0.0
C91 C 0.09484 0.39533 0.31302 0.0
C92 C 0.99814 0.30033 0.38507 0.0
C93 C 0.05627 0.3057 0.29863 0.0
H94 H 0.0842 0.4491 0.33308 0.0
H95 H 0.04994 0.44795 0.37864 0.0
H96 H 0.99195 0.3739 0.44042 0.0
H97 H 0.97538 0.32273 0.43522 0.0
H98 H 0.99246 0.2533 0.35346 0.0
H99 H 0.02349 0.25639 0.30547 0.0
H100 H 0.10373 0.31913 0.26085 0.0
H101 H 0.12606 0.36674 0.2703 0.0
H102 H 0.11053 0.27634 0.37105 0.0
H103 H 0.10068 0.33996 0.42822 0.0
H104 H 0.99618 0.37112 0.25972 0.0
H105 H 0.96475 0.41281 0.33083 0.0
C106 C 0.70347 0.99606 0.32801 0.0
C107 C 0.71536 0.98884 0.30252 0.0
C108 C 0.73986 1.00313 0.29749 0.0
C109 C 0.74152 0.01827 0.32009 0.0
N110 N 0.71994 0.01405 0.33961 0.0
Co111 Co 0.71317 0.03435 0.37427 0.0
N112 N 0.74742 0.05791 0.36529 0.0
C113 C 0.76514 0.05741 0.34222 0.0
C114 C 0.78506 0.07777 0.33988 0.0
C115 C 0.78044 0.09144 0.36345 0.0
C116 C 0.75856 0.07789 0.37947 0.0
N117 N 0.70602 0.0555 0.40846 0.0
C118 C 0.72322 0.07226 0.42097 0.0
C119 C 0.71162 0.07737 0.44736 0.0
C120 C 0.68625 0.06478 0.45107 0.0
C121 C 0.68376 0.0517 0.42737 0.0
N122 N 0.67932 0.01021 0.38359 0.0
C123 C 0.6621 0.01006 0.40703 0.0
C124 C 0.63982 0.99243 0.40737 0.0
C125 C 0.64277 0.98093 0.3824 0.0
C126 C 0.6667 0.99233 0.36816 0.0
N127 N 0.73523 1.00705 0.39566 0.0
C128 C 0.76722 0.97025 0.42765 0.0
C129 C 0.74553 0.98519 0.43988 0.0
C130 C 0.72955 1.00221 0.4238 0.0
C131 C 0.77268 0.9747 0.39867 0.0
C132 C 0.75698 0.99326 0.38336 0.0
N133 N 0.69083 0.06132 0.35301 0.0
C134 C 0.64643 0.08127 0.34555 0.0
C135 C 0.65679 0.0948 0.32021 0.0
C136 C 0.68483 0.09119 0.3119 0.0
C137 C 0.70118 0.07452 0.32827 0.0
C138 C 0.66362 0.06544 0.36161 0.0
H139 H 0.72211 0.07238 0.3202 0.0
H140 H 0.65417 0.05621 0.38075 0.0
H141 H 0.71281 0.01144 0.43505 0.0
H142 H 0.76287 0.99616 0.36157 0.0
C143 C 0.76165 0.03839 0.32254 0.0
C144 C 0.6758 0.98654 0.33955 0.0
C145 C 0.75084 0.08297 0.40886 0.0
C146 C 0.66491 0.03007 0.42582 0.0
H147 H 0.70678 0.97536 0.28858 0.0
H148 H 0.75415 1.0034 0.279 0.0
H149 H 0.80105 0.08217 0.32306 0.0
H150 H 0.79256 0.10878 0.36868 0.0
H151 H 0.72084 0.08738 0.46344 0.0
H152 H 0.67256 0.0629 0.47003 0.0
H153 H 0.62261 0.98953 0.42318 0.0
H154 H 0.62844 0.96657 0.37505 0.0
H155 H 0.7408 0.98445 0.46208 0.0
H156 H 0.78905 0.96396 0.38758 0.0
H157 H 0.62484 0.0822 0.35295 0.0
H158 H 0.69431 0.10118 0.29272 0.0
C159 C 0.97053 0.74859 0.3428 0.0
C160 C 0.96557 0.77291 0.32804 0.0
C161 C 0.98407 0.77448 0.30497 0.0
C162 C 0.9992 0.75115 0.30719 0.0
N163 N 0.99098 0.73445 0.32986 0.0
Co164 Co 0.00881 0.70015 0.3434 0.0
N165 N 0.03936 0.70502 0.31278 0.0
C166 C 0.04142 0.72417 0.29123 0.0
C167 C 0.06474 0.72215 0.2734 0.0
C168 C 0.0784 0.70048 0.28422 0.0
C169 C 0.0626 0.69056 0.30821 0.0
N170 N 0.0272 0.66657 0.35785 0.0
C171 C 0.05211 0.65649 0.34967 0.0
C172 C 0.05819 0.63381 0.36657 0.0
C173 C 0.03625 0.62935 0.38607 0.0
C174 C 0.0182 0.64958 0.38014 0.0
N175 N 0.97785 0.69492 0.3735 0.0
C176 C 0.97294 0.67329 0.39223 0.0
C177 C 0.95018 0.67623 0.41063 0.0
C178 C 0.94035 0.70146 0.40351 0.0
C179 C 0.95779 0.71238 0.38112 0.0
N180 N 0.98755 0.67779 0.31956 0.0
C181 C 0.95572 0.64677 0.28693 0.0
C182 C 0.96233 0.63609 0.31262 0.0
C183 C 0.97811 0.65178 0.32843 0.0
C184 C 0.96575 0.67291 0.27742 0.0
C185 C 0.98154 0.6879 0.2939 0.0
N186 N 0.02986 0.72219 0.36704 0.0
C187 C 0.04674 0.72867 0.4112 0.0
C188 C 0.06292 0.7512 0.3998 0.0
C189 C 0.06145 0.7597 0.37204 0.0
C190 C 0.04484 0.745 0.35612 0.0
C191 C 0.0304 0.71457 0.39456 0.0
H192 H 0.04456 0.75224 0.33496 0.0
H193 H 0.01865 0.69733 0.40425 0.0
H194 H 0.98219 0.64227 0.34775 0.0
H195 H 0.98856 0.70756 0.28528 0.0
C196 C 0.02255 0.74533 0.28971 0.0
C197 C 0.95677 0.74055 0.36993 0.0
C198 C 0.07047 0.66735 0.32588 0.0
C199 C 0.99262 0.65311 0.39502 0.0
H200 H 0.95071 0.78823 0.33387 0.0
H201 H 0.98695 0.79119 0.28916 0.0
H202 H 0.07137 0.7353 0.25512 0.0
H203 H 0.09795 0.69302 0.2756 0.0
H204 H 0.07662 0.62176 0.36498 0.0
H205 H 0.03383 0.6134 0.40269 0.0
H206 H 0.94274 0.66252 0.42826 0.0
H207 H 0.92323 0.71133 0.41439 0.0
H208 H 0.95501 0.61579 0.32072 0.0
H209 H 0.96163 0.6817 0.25725 0.0
H210 H 0.04715 0.72156 0.43272 0.0
H211 H 0.07308 0.77757 0.36264 0.0
C212 C 0.3579 0.97532 0.76902 0.0
C213 C 0.34467 0.96473 0.79414 0.0
C214 C 0.3177 0.97223 0.79453 0.0
C215 C 0.31603 0.98709 0.76984 0.0
N216 N 0.34029 0.98954 0.75404 0.0
Co217 Co 0.34736 0.0098 0.71729 0.0
N218 N 0.31295 0.03067 0.72348 0.0
C219 C 0.29155 0.02383 0.7425 0.0
C220 C 0.27019 0.04164 0.74154 0.0
C221 C 0.27847 0.06069 0.72036 0.0
C222 C 0.30459 0.05342 0.70954 0.0
N223 N 0.35448 0.02996 0.68047 0.0
C224 C 0.343 0.05305 0.67036 0.0
C225 C 0.35452 0.06058 0.64361 0.0
C226 C 0.37317 0.041 0.63651 0.0
C227 C 0.37226 0.02282 0.6593 0.0
N228 N 0.3816 0.98877 0.7111 0.0
C229 C 0.3959 0.98533 0.68652 0.0
C230 C 0.41854 0.96934 0.68877 0.0
C231 C 0.41837 0.96216 0.7165 0.0
C232 C 0.39556 0.9743 0.7296 0.0
N233 N 0.32704 0.98135 0.70084 0.0
C234 C 0.2989 0.94101 0.67615 0.0
C235 C 0.318 0.93366 0.69474 0.0
C236 C 0.3317 0.9542 0.70712 0.0
C237 C 0.29391 0.9687 0.67023 0.0
C238 C 0.30834 0.98857 0.68263 0.0
N239 N 0.36774 0.03818 0.7337 0.0
C240 C 0.40861 0.0664 0.73361 0.0
C241 C 0.39792 0.07734 0.75814 0.0
C242 C 0.37173 0.06863 0.77008 0.0
C243 C 0.35701 0.04891 0.75759 0.0
C244 C 0.39309 0.04702 0.72159 0.0
H245 H 0.33713 0.04207 0.76748 0.0
H246 H 0.40178 0.03894 0.70267 0.0
H247 H 0.3462 0.94811 0.72159 0.0
H248 H 0.30446 0.00976 0.67725 0.0
C249 C 0.29374 1.00287 0.76307 0.0
C250 C 0.38651 0.96987 0.75916 0.0
C251 C 0.31891 0.06627 0.68386 0.0
C252 C 0.3903 1.00123 0.66289 0.0
H253 H 0.35351 0.95273 0.81041 0.0
H254 H 0.30156 0.9683 0.8113 0.0
H255 H 0.25109 0.04114 0.75493 0.0
H256 H 0.2663 0.07756 0.71326 0.0
H257 H 0.34945 0.07803 0.63033 0.0
H258 H 0.38629 0.04047 0.61729 0.0
H259 H 0.43393 0.96436 0.6724 0.0
H260 H 0.43322 0.94933 0.72596 0.0
H261 H 0.32221 0.91229 0.69968 0.0
H262 H 0.27931 0.97494 0.65573 0.0
H263 H 0.42884 0.07275 0.72384 0.0
H264 H 0.36301 0.07644 0.78928 0.0
C265 C 0.99811 0.38135 0.69794 0.0
C266 C 0.99124 0.40626 0.68542 0.0
C267 C 1.00527 0.40837 0.6596 0.0
C268 C 0.0198 0.38465 0.65766 0.0
N269 N 0.01556 0.36726 0.68049 0.0
Co270 Co 0.03451 0.33131 0.68651 0.0
N271 N 0.05942 0.33693 0.65093 0.0
C272 C 0.05974 0.35914 0.6328 0.0
C273 C 0.07876 0.35787 0.61026 0.0
C274 C 0.09128 0.33329 0.61404 0.0
C275 C 0.07901 0.32066 0.63866 0.0
N276 N 0.05323 0.29521 0.69245 0.0
C277 C 0.07276 0.28222 0.67616 0.0
C278 C 0.07775 0.2563 0.6878 0.0
C279 C 0.06126 0.25286 0.71216 0.0
C280 C 0.04686 0.27661 0.71403 0.0
N281 N 0.01012 0.32612 0.72247 0.0
C282 C 0.0096 0.30395 0.74064 0.0
C283 C 0.99286 0.30665 0.76459 0.0
C284 C 0.98245 0.33236 0.76191 0.0
C285 C 0.99335 0.34397 0.73632 0.0
N286 N 1.00633 0.31194 0.66606 0.0
C287 C 0.96997 0.28199 0.6351 0.0
C288 C 0.975 0.27308 0.66214 0.0
C289 C 0.99282 0.28819 0.67706 0.0
C290 C 0.98334 0.30654 0.62419 0.0
C291 C 1.00099 0.32103 0.6398 0.0
N292 N 0.06233 0.35059 0.70682 0.0
C293 C 0.08704 0.35419 0.74768 0.0
C294 C 0.0948 0.38156 0.73992 0.0
C295 C 0.0873 0.39253 0.7145 0.0
C296 C 0.07161 0.37677 0.69829 0.0
C297 C 0.07086 0.33924 0.73105 0.0
H298 H 0.06665 0.38645 0.67916 0.0
H299 H 0.06487 0.31874 0.73854 0.0
H300 H 0.99558 0.27996 0.6974 0.0
H301 H 0.01027 0.33947 0.62995 0.0
C302 C 0.04074 0.38005 0.63677 0.0
C303 C 0.98807 0.37248 0.72675 0.0
C304 C 0.08661 0.29307 0.64919 0.0
C305 C 0.02688 0.28192 0.73553 0.0
H306 H 0.97815 0.4217 0.69438 0.0
H307 H 1.00595 0.4258 0.64461 0.0
H308 H 0.08273 0.37285 0.59287 0.0
H309 H 0.10742 0.32544 0.60004 0.0
H310 H 0.09156 0.24117 0.67939 0.0
H311 H 0.05962 0.23494 0.72658 0.0
H312 H 0.98952 0.29209 0.7824 0.0
H313 H 0.96901 0.3418 0.77742 0.0
H314 H 0.96577 0.25405 0.67171 0.0
H315 H 0.98012 0.31476 0.60356 0.0
H316 H 0.09259 0.34462 0.76702 0.0
H317 H 0.09337 0.41339 0.7072 0.0
C318 C 0.70512 0.04742 0.66576 0.0
C319 C 0.69608 0.05806 0.64113 0.0
C320 C 0.66933 0.04913 0.64104 0.0
C321 C 0.66349 0.03366 0.66553 0.0
N322 N 0.68492 0.03208 0.68103 0.0
Co323 Co 0.68466 0.01242 0.71831 0.0
N324 N 0.65035 0.99114 0.71345 0.0
C325 C 0.63329 0.99653 0.69367 0.0
C326 C 0.61164 0.97806 0.69478 0.0
C327 C 0.61488 0.96016 0.71698 0.0
C328 C 0.6382 0.969 0.72849 0.0
N329 N 0.68431 0.99301 0.75576 0.0
C330 C 0.6686 0.9714 0.76781 0.0
C331 C 0.6742 0.96579 0.79507 0.0
C332 C 0.6938 0.98458 0.80031 0.0
C333 C 0.69905 1.00066 0.77617 0.0
N334 N 0.71898 0.03375 0.72307 0.0
C335 C 0.72995 0.03658 0.74712 0.0
C336 C 0.75397 0.05201 0.74411 0.0
C337 C 0.75835 0.05964 0.71644 0.0
C338 C 0.73653 0.04859 0.70412 0.0
N339 N 0.66254 0.04135 0.73431 0.0
C340 C 0.63141 0.08283 0.75759 0.0
C341 C 0.65382 0.0893 0.73794 0.0
C342 C 0.66916 0.06827 0.72662 0.0
C343 C 0.62452 0.05527 0.76499 0.0
C344 C 0.64034 0.03487 0.75313 0.0
N345 N 0.70685 0.98371 0.70207 0.0
C346 C 0.74811 0.95737 0.70013 0.0
C347 C 0.74303 0.9492 0.67405 0.0
C348 C 0.71868 0.95702 0.66311 0.0
C349 C 0.70079 0.97413 0.67753 0.0
C350 C 0.72971 0.97472 0.71384 0.0
H351 H 0.68265 0.98053 0.66817 0.0
H352 H 0.73461 0.98176 0.73335 0.0
H353 H 0.68642 0.0739 0.71172 0.0
H354 H 0.63466 0.0139 0.75944 0.0
C355 C 0.63993 0.0171 0.67265 0.0
C356 C 0.73204 0.05446 0.67492 0.0
C357 C 0.64584 0.95806 0.75555 0.0
C358 C 0.71937 0.02134 0.77115 0.0
H359 H 0.7075 0.0712 0.62506 0.0
H360 H 0.65602 0.05282 0.62469 0.0
H361 H 0.59564 0.97742 0.68087 0.0
H362 H 0.6011 0.94309 0.7244 0.0
H363 H 0.66456 0.9503 0.80998 0.0
H364 H 0.7032 0.98622 0.81943 0.0
H365 H 0.76719 0.05646 0.75998 0.0
H366 H 0.7755 0.07216 0.70653 0.0
H367 H 0.65948 0.11044 0.73139 0.0
H368 H 0.60737 0.04951 0.78026 0.0
H369 H 0.76677 0.95153 0.70918 0.0
H370 H 0.71402 0.9507 0.64309 0.0
C371 C 0.98102 0.66593 0.75122 0.0
C372 C 0.97085 0.67252 0.77764 0.0
C373 C 0.98808 0.69239 0.78532 0.0
C374 C 1.00784 0.69682 0.76341 0.0
N375 N 1.00396 0.68139 0.74203 0.0
Co376 Co 0.02982 0.67989 0.70779 0.0
N377 N 0.05001 0.71387 0.71556 0.0
C378 C 0.04861 0.72579 0.7398 0.0
C379 C 0.06336 0.75013 0.73831 0.0
C380 C 0.07479 0.75375 0.71142 0.0
C381 C 0.06663 0.73113 0.6981 0.0
N382 N 0.05589 0.67823 0.67394 0.0
C383 C 0.07283 0.69804 0.66049 0.0
C384 C 0.08798 0.68816 0.63773 0.0
C385 C 0.07992 0.66126 0.63679 0.0
C386 C 0.0605 0.65622 0.65902 0.0
N387 N 0.00964 0.64601 0.69963 0.0
C388 C 0.01806 0.62847 0.68041 0.0
C389 C 0.99932 0.60765 0.67828 0.0
C390 C 0.97797 0.6119 0.6978 0.0
C391 C 0.98518 0.63487 0.7112 0.0
N392 N 1.00482 0.70268 0.68635 0.0
C393 C 0.97249 0.73765 0.65406 0.0
C394 C 0.98394 0.71367 0.64381 0.0
C395 C 0.99977 0.69653 0.66018 0.0
C396 C 0.97751 0.74342 0.68111 0.0
C397 C 0.99354 0.72581 0.69678 0.0
N398 N 0.05511 0.65736 0.72922 0.0
C399 C 0.06246 0.62047 0.76339 0.0
C400 C 0.09094 0.62625 0.76122 0.0
C401 C 0.10102 0.64781 0.7421 0.0
C402 C 0.08291 0.66304 0.72649 0.0
C403 C 0.0451 0.63609 0.74739 0.0
H404 H 0.09151 0.6795 0.71221 0.0
H405 H 0.02348 0.63096 0.75003 0.0
H406 H 1.00826 0.67847 0.65138 0.0
H407 H 0.99725 0.73132 0.71721 0.0
C408 C 0.02919 0.71651 0.76149 0.0
C409 C 0.97062 0.6424 0.73745 0.0
C410 C 0.07576 0.72594 0.6693 0.0
C411 C 0.04242 0.63356 0.66307 0.0
H412 H 0.95345 0.66329 0.79062 0.0
H413 H 0.98647 0.70229 0.80467 0.0
H414 H 0.06439 0.76434 0.75438 0.0
H415 H 0.08739 0.77121 0.70266 0.0
H416 H 0.10305 0.6993 0.62319 0.0
H417 H 0.08639 0.6475 0.62096 0.0
H418 H 1.00089 0.5914 0.66413 0.0
H419 H 0.95979 0.59878 0.70261 0.0
H420 H 0.98065 0.70806 0.62317 0.0
H421 H 0.96973 0.76187 0.68997 0.0
H422 H 0.05342 0.60418 0.77777 0.0
H423 H 0.12286 0.6528 0.73887 0.0
C424 C 0.39982 0.35047 0.05283 0.0
C425 C 0.42455 0.36332 0.05703 0.0
C426 C 0.4267 0.38693 0.0403 0.0
C427 C 0.40319 0.38736 0.02697 0.0
N428 N 0.38597 0.36551 0.03425 0.0
Co429 Co 0.34936 0.35856 0.01961 0.0
N430 N 0.3531 0.39301 0.99428 0.0
C431 C 0.37488 0.41088 0.99094 0.0
C432 C 0.37189 0.43261 0.9723 0.0
C433 C 0.34656 0.42863 0.96333 0.0
C434 C 0.33534 0.40468 0.97723 0.0
N435 N 0.31263 0.35183 1.00521 0.0
C436 C 0.29825 0.36762 0.98767 0.0
C437 C 0.27267 0.35575 0.98492 0.0
C438 C 0.27082 0.33171 1.00102 0.0
C439 C 0.29516 0.33025 0.0129 0.0
N440 N 0.34585 0.324 0.04485 0.0
C441 C 0.32463 0.30549 0.04727 0.0
C442 C 0.32809 0.28332 0.06525 0.0
C443 C 0.3531 0.28775 0.07483 0.0
C444 C 0.36354 0.31256 0.06222 0.0
N445 N 0.33072 0.37946 0.04917 0.0
C446 C 0.30132 0.41084 0.08772 0.0
C447 C 0.29236 0.38432 0.08361 0.0
C448 C 0.30737 0.36904 0.06449 0.0
C449 C 0.32549 0.42127 0.07278 0.0
C450 C 0.3399 0.40525 0.05386 0.0
N451 N 0.3679 0.33755 0.99 0.0
C452 C 0.37235 0.29555 0.96645 0.0
C453 C 0.39829 0.30416 0.95413 0.0
C454 C 0.40779 0.33056 0.95812 0.0
C455 C 0.39237 0.34681 0.97602 0.0
C456 C 0.3575 0.31257 0.98408 0.0
H457 H 0.40106 0.36641 0.97878 0.0
H458 H 0.33808 0.30467 0.99327 0.0
H459 H 0.29942 0.34902 0.06223 0.0
H460 H 0.35821 0.41427 0.04309 0.0
C461 C 0.39719 0.40744 1.00676 0.0
C462 C 0.3907 0.32388 0.06688 0.0
C463 C 0.30755 0.39426 0.97375 0.0
C464 C 0.30181 0.30948 0.03219 0.0
H465 H 0.43962 0.35625 0.07063 0.0
H466 H 0.44357 0.40187 0.03789 0.0
H467 H 0.38623 0.44961 0.96631 0.0
H468 H 0.33727 0.44205 0.94846 0.0
H469 H 0.25674 0.36382 0.97288 0.0
H470 H 0.25352 0.31729 1.00417 0.0
H471 H 0.31419 0.26584 0.07056 0.0
H472 H 0.3627 0.27407 0.08923 0.0
H473 H 0.27358 0.37556 0.09473 0.0
H474 H 0.33328 0.44168 0.07575 0.0
H475 H 0.36407 0.27534 0.96348 0.0
H476 H 0.42747 0.33835 0.94811 0.0
C477 C 0.70007 0.30824 0.07896 0.0
C478 C 0.71284 0.28881 0.09522 0.0
C479 C 0.73851 0.28524 0.08209 0.0
C480 C 0.74049 0.30353 0.05937 0.0
N481 N 0.71782 0.31869 0.05749 0.0
Co482 Co 0.71573 0.35291 0.03311 0.0
N483 N 0.75224 0.34677 0.0124 0.0
C484 C 0.76664 0.32353 0.01448 0.0
C485 C 0.78616 0.32106 0.99261 0.0
C486 C 0.78419 0.34434 0.97578 0.0
C487 C 0.76456 0.36047 0.98915 0.0
N488 N 0.71511 0.38881 0.011 0.0
C489 C 0.7359 0.40261 0.99494 0.0
C490 C 0.72991 0.43028 0.99106 0.0
C491 C 0.70384 0.43345 1.00321 0.0
C492 C 0.69579 0.40799 0.01489 0.0
N493 N 0.67769 0.35729 0.05148 0.0
C494 C 0.66035 0.3773 0.04463 0.0
C495 C 0.63338 0.37152 0.05398 0.0
C496 C 0.63349 0.3462 0.06758 0.0
C497 C 0.66086 0.33838 0.06686 0.0
N498 N 0.73284 0.37301 0.06127 0.0
C499 C 0.75908 0.40682 0.09561 0.0
C500 C 0.73104 0.40925 0.09278 0.0
C501 C 0.71834 0.39214 0.07573 0.0
C502 C 0.77344 0.38612 0.08243 0.0
C503 C 0.76 0.36947 0.06547 0.0
N504 N 0.6986 0.33302 1.00493 0.0
C505 C 0.66771 0.33235 0.96915 0.0
C506 C 0.6694 0.30393 0.96912 0.0
C507 C 0.68691 0.29034 0.98613 0.0
C508 C 0.70154 0.30526 1.0036 0.0
C509 C 0.68234 0.34647 0.98722 0.0
H510 H 0.71463 0.2938 0.01626 0.0
H511 H 0.67952 0.36814 0.98705 0.0
H512 H 0.69692 0.39527 0.07409 0.0
H513 H 0.77216 0.35429 0.05548 0.0
C514 C 0.76175 0.30513 0.0378 0.0
C515 C 0.67039 0.31392 0.08243 0.0
C516 C 0.76026 0.38966 0.98124 0.0
C517 C 0.67015 0.4011 0.02913 0.0
H518 H 0.70417 0.27749 0.11399 0.0
H519 H 0.75361 0.27058 0.08803 0.0
H520 H 0.80012 0.30435 0.98927 0.0
H521 H 0.7965 0.34918 0.9563 0.0
H522 H 0.74279 0.44665 0.98039 0.0
H523 H 0.69228 0.45216 1.00374 0.0
H524 H 0.61565 0.3839 0.0507 0.0
H525 H 0.61525 0.33494 0.07678 0.0
H526 H 0.71903 0.42456 0.10337 0.0
H527 H 0.79518 0.3834 0.08444 0.0
H528 H 0.65427 0.34348 0.95612 0.0
H529 H 0.6889 0.26827 0.98628 0.0
C530 C 0.7358 0.69957 0.08258 0.0
C531 C 0.76116 0.71101 0.08692 0.0
C532 C 0.76573 0.73314 0.06836 0.0
C533 C 0.74309 0.73379 0.05371 0.0
N534 N 0.72409 0.71376 0.06209 0.0
Co535 Co 0.6894 0.70557 0.04489 0.0
N536 N 0.69671 0.73735 0.01676 0.0
C537 C 0.71799 0.75573 0.01478 0.0
C538 C 0.71664 0.77633 0.99451 0.0
C539 C 0.69286 0.77101 0.98302 0.0
C540 C 0.6812 0.74721 0.99688 0.0
N541 N 0.65536 0.6966 0.02705 0.0
C542 C 0.64463 0.70942 1.00519 0.0
C543 C 0.62118 0.69576 0.99857 0.0
C544 C 0.61668 0.67373 0.01726 0.0
C545 C 0.63765 0.67511 0.03399 0.0
N546 N 0.68133 0.67468 0.07377 0.0
C547 C 0.65877 0.65788 0.07743 0.0
C548 C 0.65871 0.63911 0.09964 0.0
C549 C 0.68285 0.64406 0.11068 0.0
C550 C 0.69627 0.66551 0.09431 0.0
N551 N 0.66791 0.73074 0.07033 0.0
C552 C 0.63805 0.76575 0.1077 0.0
C553 C 0.62617 0.74155 0.09943 0.0
C554 C 0.64119 0.7246 0.08109 0.0
C555 C 0.66514 0.77217 0.09612 0.0
C556 C 0.67944 0.75471 0.07784 0.0
N557 N 0.71098 0.68032 0.0195 0.0
C558 C 0.71965 0.63473 1.00273 0.0
C559 C 0.74192 0.64446 0.98391 0.0
C560 C 0.74813 0.67268 0.98334 0.0
C561 C 0.73291 0.6899 1.00124 0.0
C562 C 0.70453 0.65273 0.01985 0.0
H563 H 0.73944 0.71098 0.99997 0.0
H564 H 0.68761 0.64377 0.03329 0.0
H565 H 0.63074 0.70647 0.07597 0.0
H566 H 0.69991 0.76113 0.06996 0.0
C567 C 0.73914 0.75282 0.03197 0.0
C568 C 0.72434 0.67443 0.09727 0.0
C569 C 0.65503 0.73519 0.991 0.0
C570 C 0.63969 0.65825 0.05789 0.0
H571 H 0.77517 0.70386 0.10161 0.0
H572 H 0.78364 0.74681 0.06553 0.0
H573 H 0.7311 0.79331 0.98891 0.0
H574 H 0.68492 0.78344 0.96648 0.0
H575 H 0.60833 0.70152 0.98229 0.0
H576 H 0.59968 0.65896 0.01898 0.0
H577 H 0.64351 0.62302 0.1063 0.0
H578 H 0.69034 0.63251 0.12806 0.0
H579 H 0.60533 0.73534 0.10744 0.0
H580 H 0.67535 0.79093 0.10076 0.0
H581 H 0.71353 0.61323 1.00401 0.0
H582 H 0.76517 0.68148 0.96944 0.0
C583 C 0.40655 0.7114 1.00668 0.0
C584 C 0.43008 0.69997 0.99418 0.0
C585 C 0.4335 0.67557 1.00861 0.0
C586 C 0.41175 0.67327 0.02875 0.0
N587 N 0.39447 0.69456 0.02792 0.0
Co588 Co 0.35939 0.69827 0.05242 0.0
N589 N 0.36607 0.66389 0.0755 0.0
C590 C 0.38879 0.64845 0.07308 0.0
C591 C 0.38797 0.62633 0.09201 0.0
C592 C 0.36312 0.6276 0.10738 0.0
C593 C 0.35006 0.65036 0.0967 0.0
N594 N 0.32353 0.7011 0.07605 0.0
C595 C 0.31077 0.68336 0.09621 0.0
C596 C 0.28478 0.69223 0.10542 0.0
C597 C 0.28095 0.71631 0.09062 0.0
C598 C 0.30459 0.72068 0.07311 0.0
N599 N 0.3535 0.73347 0.03026 0.0
C600 C 0.33212 0.75043 0.03456 0.0
C601 C 0.33477 0.77447 0.01832 0.0
C602 C 0.35955 0.77304 1.00293 0.0
C603 C 0.37052 0.7479 0.01042 0.0
N604 N 0.3393 0.67639 0.02654 0.0
C605 C 0.30899 0.6445 0.9919 0.0
C606 C 0.30258 0.67185 0.99641 0.0
C607 C 0.31763 0.68713 0.01369 0.0
C608 C 0.33149 0.63381 1.0046 0.0
C609 C 0.34622 0.64989 0.02151 0.0
N610 N 0.37947 0.72026 0.07821 0.0
C611 C 0.38088 0.7578 0.10874 0.0
C612 C 0.4088 0.75386 0.11202 0.0
C613 C 0.42163 0.73253 0.09815 0.0
C614 C 0.40672 0.71598 0.08181 0.0
C615 C 0.36681 0.74106 0.09193 0.0
H616 H 0.41777 0.69991 0.0721 0.0
H617 H 0.34571 0.74561 0.0901 0.0
H618 H 0.31124 0.70765 0.01638 0.0
H619 H 0.36305 0.64028 0.03047 0.0
C620 C 0.40872 0.65316 0.0506 0.0
C621 C 0.39744 0.73892 0.99864 0.0
C622 C 0.32204 0.65759 0.1067 0.0
C623 C 0.30991 0.74318 0.05409 0.0
H624 H 0.44383 0.70873 0.97692 0.0
H625 H 0.45038 0.66166 1.00541 0.0
H626 H 0.40313 0.61055 0.09373 0.0
H627 H 0.35519 0.61299 0.12406 0.0
H628 H 0.26992 0.68218 0.12096 0.0
H629 H 0.26296 0.72899 0.09224 0.0
H630 H 0.32059 0.79127 0.01807 0.0
H631 H 0.36861 0.78901 0.98824 0.0
H632 H 0.2861 0.68171 0.98646 0.0
H633 H 0.33756 0.61286 1.0019 0.0
H634 H 0.36996 0.77422 0.11863 0.0
H635 H 0.44314 0.72841 0.10008 0.0
C636 C 0.82386 0.46431 0.86948 0.0
C637 C 0.80354 0.44965 0.8581 0.0
C638 C 0.79835 0.46405 0.83426 0.0
C639 C 0.81634 0.48609 0.83186 0.0
N640 N 0.83309 0.48636 0.8524 0.0
Co641 Co 0.86601 0.51123 0.85348 0.0
N642 N 0.85828 0.53274 0.81854 0.0
C643 C 0.83649 0.52899 0.80387 0.0
C644 C 0.83692 0.54612 0.7804 0.0
C645 C 0.86045 0.56174 0.77992 0.0
C646 C 0.87304 0.55333 0.80336 0.0
N647 N 0.8995 0.5355 0.85414 0.0
C648 C 0.91013 0.55617 0.83601 0.0
C649 C 0.93359 0.56801 0.84486 0.0
C650 C 0.9386 0.55361 0.8687 0.0
C651 C 0.91783 0.53414 0.87326 0.0
N652 N 0.87301 0.49041 0.88901 0.0
C653 C 0.89338 0.49593 0.905 0.0
C654 C 0.88863 0.48492 0.93163 0.0
C655 C 0.86386 0.47141 0.93276 0.0
C656 C 0.85549 0.47356 0.9062 0.0
N657 N 0.88928 0.48488 0.83085 0.0
C658 C 0.92186 0.44778 0.79799 0.0
C659 C 0.92991 0.45641 0.82317 0.0
C660 C 0.91347 0.47455 0.83915 0.0
C661 C 0.8973 0.45869 0.78967 0.0
C662 C 0.88169 0.47683 0.80602 0.0
N663 N 0.84268 0.53749 0.87608 0.0
C664 C 0.83598 0.56613 0.91556 0.0
C665 C 0.80898 0.57239 0.91021 0.0
C666 C 0.79945 0.56117 0.88688 0.0
C667 C 0.81628 0.54376 0.8705 0.0
C668 C 0.85231 0.54926 0.89835 0.0
H669 H 0.80742 0.53533 0.8535 0.0
H670 H 0.87273 0.54597 0.90368 0.0
H671 H 0.9207 0.48 0.85824 0.0
H672 H 0.86349 0.48419 0.79789 0.0
C673 C 0.81811 0.50681 0.81061 0.0
C674 C 0.83163 0.45832 0.89773 0.0
C675 C 0.89957 0.56454 0.80966 0.0
C676 C 0.91394 0.51556 0.89625 0.0
H677 H 0.79291 0.43087 0.86649 0.0
H678 H 0.78321 0.45906 0.82037 0.0
H679 H 0.82253 0.54634 0.76479 0.0
H680 H 0.86781 0.57697 0.76364 0.0
H681 H 0.94602 0.58511 0.83493 0.0
H682 H 0.95525 0.55709 0.88136 0.0
H683 H 0.9007 0.48809 0.94875 0.0
H684 H 0.85303 0.46177 0.95141 0.0
H685 H 0.94868 0.44886 0.83083 0.0
H686 H 0.89019 0.45364 0.77017 0.0
H687 H 0.84471 0.57449 0.93297 0.0
H688 H 0.77877 0.56528 0.88163 0.0
C689 C 0.47759 0.83729 0.92591 0.0
C690 C 0.46732 0.84898 0.94997 0.0
C691 C 0.48129 0.87332 0.95066 0.0
C692 C 0.49903 0.87531 0.92695 0.0
N693 N 0.49698 0.85389 0.91087 0.0
Co694 Co 0.51876 0.84891 0.87433 0.0
N695 N 0.54054 0.88395 0.87621 0.0
C696 C 0.53819 0.90129 0.89689 0.0
C697 C 0.55629 0.92327 0.89289 0.0
C698 C 0.57089 0.92004 0.868 0.0
C699 C 0.5606 0.89632 0.858 0.0
N700 N 0.54063 0.84387 0.83782 0.0
C701 C 0.55996 0.8605 0.82269 0.0
C702 C 0.56868 0.84971 0.79766 0.0
C703 C 0.55466 0.82541 0.79703 0.0
C704 C 0.53804 0.82278 0.82145 0.0
N705 N 0.49692 0.81383 0.87252 0.0
C706 C 0.4993 0.79652 0.85182 0.0
C707 C 0.48309 0.77324 0.85695 0.0
C708 C 0.46965 0.7756 0.88256 0.0
C709 C 0.47825 0.80047 0.89159 0.0
N710 N 0.49107 0.86965 0.85471 0.0
C711 C 0.45471 0.90106 0.82483 0.0
C712 C 0.46435 0.87619 0.81558 0.0
C713 C 0.48211 0.8608 0.83088 0.0
C714 C 0.46324 0.90976 0.84945 0.0
C715 C 0.48127 0.8939 0.86392 0.0
N716 N 0.54646 0.8283 0.8939 0.0
C717 C 0.57419 0.78821 0.89965 0.0
C718 C 0.58385 0.798 0.92334 0.0
C719 C 0.5748 0.82331 0.93184 0.0
C720 C 0.55623 0.83796 0.91699 0.0
C721 C 0.5558 0.80369 0.88522 0.0
H722 H 0.54989 0.8569 0.92479 0.0
H723 H 0.54915 0.79513 0.86736 0.0
H724 H 0.48861 0.84204 0.82276 0.0
H725 H 0.48719 0.90191 0.88229 0.0
C726 C 0.51855 0.8965 0.9197 0.0
C727 C 0.46891 0.80997 0.91884 0.0
C728 C 0.56997 0.887 0.8307 0.0
C729 C 0.51863 0.80157 0.82885 0.0
H730 H 0.45167 0.84056 0.96569 0.0
H731 H 0.47911 0.88765 0.96676 0.0
H732 H 0.55846 0.93979 0.90638 0.0
H733 H 0.58706 0.93383 0.85814 0.0
H734 H 0.58324 0.85864 0.7812 0.0
H735 H 0.55589 0.81165 0.7804 0.0
H736 H 0.48194 0.75609 0.84404 0.0
H737 H 0.45568 0.76027 0.89353 0.0
H738 H 0.45875 0.86885 0.79629 0.0
H739 H 0.45609 0.92883 0.85751 0.0
H740 H 0.58027 0.76842 0.89258 0.0
H741 H 0.58192 0.83176 0.95002 0.0
C742 C 0.1517 0.54898 0.85788 0.0
C743 C 0.12633 0.55606 0.87054 0.0
C744 C 0.12257 0.54104 0.89535 0.0
C745 C 0.14583 0.52579 0.89656 0.0
N746 N 0.16441 0.53039 0.87418 0.0
Co747 Co 0.20064 0.51166 0.86747 0.0
N748 N 0.19327 0.48662 0.90199 0.0
C749 C 0.16991 0.48536 0.91949 0.0
C750 C 0.17054 0.46644 0.94149 0.0
C751 C 0.19595 0.45511 0.93806 0.0
C752 C 0.20956 0.46796 0.91417 0.0
N753 N 0.23725 0.4935 0.86121 0.0
C754 C 0.24998 0.47499 0.87763 0.0
C755 C 0.27654 0.47011 0.86629 0.0
C756 C 0.28076 0.48589 0.84201 0.0
C757 C 0.25678 0.49972 0.83994 0.0
N758 N 0.20756 0.53611 0.83246 0.0
C759 C 0.23023 0.53634 0.8141 0.0
C760 C 0.22865 0.55364 0.791 0.0
C761 C 0.20319 0.56482 0.79449 0.0
C762 C 0.19067 0.55375 0.81969 0.0
N763 N 0.21874 0.53942 0.88928 0.0
C764 C 0.24681 0.57538 0.92203 0.0
C765 C 0.25631 0.57175 0.89437 0.0
C766 C 0.24214 0.55399 0.87856 0.0
C767 C 0.22271 0.56072 0.93271 0.0
C768 C 0.20906 0.54338 0.91617 0.0
N769 N 0.18257 0.48395 0.84572 0.0
C770 C 0.1823 0.45724 0.80511 0.0
C771 C 0.15466 0.44913 0.81206 0.0
C772 C 0.14171 0.45789 0.8368 0.0
C773 C 0.15592 0.47484 0.85323 0.0
C774 C 0.19569 0.47459 0.82195 0.0
H775 H 0.1447 0.48061 0.87179 0.0
H776 H 0.21653 0.48055 0.81508 0.0
H777 H 0.25071 0.55219 0.85774 0.0
H778 H 0.19087 0.53304 0.92584 0.0
C779 C 0.14913 0.50436 0.91636 0.0
C780 C 0.16229 0.55982 0.82998 0.0
C781 C 0.23822 0.46227 0.9045 0.0
C782 C 0.25226 0.51934 0.81878 0.0
H783 H 0.11172 0.57005 0.86232 0.0
H784 H 0.10447 0.54038 0.91016 0.0
H785 H 0.15479 0.46212 0.95856 0.0
H786 H 0.20382 0.43959 0.95193 0.0
H787 H 0.29162 0.45695 0.87491 0.0
H788 H 0.29938 0.4876 0.82788 0.0
H789 H 0.24392 0.55716 0.77337 0.0
H790 H 0.19458 0.57904 0.77984 0.0
H791 H 0.27469 0.58266 0.88481 0.0
H792 H 0.21459 0.56199 0.95409 0.0
H793 H 0.19337 0.45087 0.78628 0.0
H794 H 0.12056 0.45168 0.84353 0.0
C795 C 0.48397 0.24573 0.86619 0.0
C796 C 0.47755 0.27164 0.85538 0.0
C797 C 0.498 0.27934 0.8349 0.0
C798 C 0.51572 0.25786 0.83427 0.0
N799 N 0.50748 0.23693 0.85284 0.0
Co800 Co 0.52771 0.20265 0.85946 0.0
N801 N 0.55024 0.20877 0.82338 0.0
C802 C 0.55425 0.23266 0.80804 0.0
C803 C 0.57083 0.23021 0.78387 0.0
C804 C 0.57768 0.20308 0.78415 0.0
C805 C 0.56487 0.19057 0.8086 0.0
N806 N 0.54823 0.16865 0.86613 0.0
C807 C 0.56316 0.15399 0.84774 0.0
C808 C 0.57445 0.13139 0.8609 0.0
C809 C 0.56618 0.13215 0.8886 0.0
C810 C 0.5504 0.15507 0.89076 0.0
N811 N 0.50521 0.19636 0.8956 0.0
C812 C 0.51104 0.17916 0.91695 0.0
C813 C 0.49136 0.17876 0.93913 0.0
C814 C 0.47219 0.19716 0.93144 0.0
C815 C 0.48145 0.20802 0.90498 0.0
N816 N 0.50051 0.18203 0.84186 0.0
C817 C 0.46477 0.15034 0.81487 0.0
C818 C 0.47354 0.14068 0.84015 0.0
C819 C 0.4912 0.15693 0.85343 0.0
C820 C 0.47363 0.17644 0.80361 0.0
C821 C 0.49162 0.19195 0.81741 0.0
N822 N 0.55511 0.22304 0.87706 0.0
C823 C 0.56582 0.25421 0.91087 0.0
C824 C 0.59384 0.24912 0.90541 0.0
C825 C 0.60234 0.23156 0.88485 0.0
C826 C 0.5826 0.21857 0.87099 0.0
C827 C 0.54682 0.24112 0.89629 0.0
H828 H 0.58955 0.20448 0.85576 0.0
H829 H 0.52539 0.24527 0.90092 0.0
H830 H 0.49777 0.1489 0.87279 0.0
H831 H 0.49881 0.21169 0.80801 0.0
C832 C 0.53816 0.25521 0.81446 0.0
C833 C 0.4695 0.23211 0.89143 0.0
C834 C 0.56822 0.16194 0.81815 0.0
C835 C 0.53301 0.16118 0.91402 0.0
H836 H 0.46034 0.28407 0.8621 0.0
H837 H 0.49951 0.29818 0.82177 0.0
H838 H 0.57626 0.24593 0.76743 0.0
H839 H 0.59061 0.19361 0.76824 0.0
H840 H 0.58724 0.11597 0.85148 0.0
H841 H 0.57007 0.11705 0.90496 0.0
H842 H 0.49072 0.16623 0.95838 0.0
H843 H 0.45398 0.20271 0.94423 0.0
H844 H 0.46694 0.1206 0.84947 0.0
H845 H 0.46738 0.18442 0.78393 0.0
H846 H 0.55865 0.26806 0.92641 0.0
H847 H 0.62397 0.22734 0.88013 0.0
C848 C 0.84424 0.49457 0.14342 0.0
C849 C 0.85596 0.48781 0.11764 0.0
C850 C 0.87895 0.50419 0.11143 0.0
C851 C 0.88002 0.51981 0.13372 0.0
N852 N 0.85908 0.51444 0.15383 0.0
Co853 Co 0.85311 0.53163 0.19023 0.0
N854 N 0.88621 0.55662 0.18044 0.0
C855 C 0.90259 0.55886 0.15624 0.0
C856 C 0.92336 0.57823 0.1555 0.0
C857 C 0.92017 0.58898 0.18076 0.0
C858 C 0.89761 0.57535 0.19552 0.0
N859 N 0.8478 0.5481 0.22706 0.0
C860 C 0.86348 0.56694 0.23803 0.0
C861 C 0.85326 0.57182 0.26488 0.0
C862 C 0.8303 0.55542 0.27114 0.0
C863 C 0.82791 0.54144 0.24793 0.0
N864 N 0.8194 0.50738 0.19957 0.0
C865 C 0.80172 0.50677 0.22286 0.0
C866 C 0.77989 0.48871 0.22289 0.0
C867 C 0.7837 0.4772 0.19805 0.0
C868 C 0.80782 0.48888 0.18434 0.0
N869 N 0.87631 0.50333 0.20656 0.0
C870 C 0.91015 0.46512 0.23116 0.0
C871 C 0.88312 0.46825 0.24238 0.0
C872 C 0.86668 0.4875 0.22991 0.0
C873 C 0.91987 0.48067 0.20709 0.0
C874 C 0.90262 0.49939 0.19506 0.0
N875 N 0.82989 0.55993 0.17388 0.0
C876 C 0.78962 0.5881 0.17704 0.0
C877 C 0.79586 0.59833 0.14971 0.0
C878 C 0.81971 0.58978 0.13489 0.0
C879 C 0.83633 0.57073 0.1473 0.0
C880 C 0.80678 0.56896 0.18863 0.0
H881 H 0.85413 0.56495 0.13485 0.0
H882 H 0.80072 0.56157 0.20942 0.0
H883 H 0.84645 0.48948 0.23981 0.0
H884 H 0.91119 0.51065 0.1767 0.0
C885 C 0.8993 0.54093 0.13551 0.0
C886 C 0.81869 0.48198 0.1568 0.0
C887 C 0.88841 0.58029 0.22407 0.0
C888 C 0.80683 0.52253 0.24483 0.0
H889 H 0.84846 0.47283 0.10454 0.0
H890 H 0.89294 0.50496 0.09268 0.0
H891 H 0.93934 0.58343 0.13883 0.0
H892 H 0.93324 0.60474 0.18774 0.0
H893 H 0.86161 0.58571 0.27858 0.0
H894 H 0.81696 0.55384 0.29034 0.0
H895 H 0.76327 0.48435 0.2391 0.0
H896 H 0.77024 0.46193 0.19083 0.0
H897 H 0.875 0.45652 0.26118 0.0
H898 H 0.94076 0.47855 0.19776 0.0
H899 H 0.77125 0.59434 0.18918 0.0
H900 H 0.82548 0.59771 0.11376 0.0
C901 C 0.57125 0.8669 0.17605 0.0
C902 C 0.58393 0.87958 0.15167 0.0
C903 C 0.57612 0.90642 0.15101 0.0
C904 C 0.55922 0.90872 0.17501 0.0
N905 N 0.55594 0.88508 0.19086 0.0
Co906 Co 0.5323 0.87974 0.22688 0.0
N907 N 0.51216 0.91469 0.22055 0.0
C908 C 0.51962 0.93425 0.20024 0.0
C909 C 0.50256 0.95627 0.20044 0.0
C910 C 0.48342 0.95071 0.22268 0.0
C911 C 0.49008 0.92568 0.23519 0.0
N912 N 0.50878 0.87432 0.26314 0.0
C913 C 0.48742 0.88902 0.27467 0.0
C914 C 0.47919 0.87872 0.30154 0.0
C915 C 0.49601 0.85739 0.30725 0.0
C916 C 0.51367 0.85576 0.28373 0.0
N917 N 0.55243 0.84485 0.23284 0.0
C918 C 0.5523 0.83003 0.25713 0.0
C919 C 0.56693 0.80635 0.2551 0.0
C920 C 0.57691 0.80615 0.22776 0.0
C921 C 0.56792 0.82987 0.21456 0.0
N922 N 0.56019 0.90017 0.24572 0.0
C923 C 0.59915 0.92898 0.27399 0.0
C924 C 0.6075 0.90937 0.25504 0.0
C925 C 0.58784 0.89537 0.24113 0.0
C926 C 0.57077 0.93342 0.27845 0.0
C927 C 0.55196 0.91916 0.26421 0.0
N928 N 0.50481 0.85915 0.2081 0.0
C929 C 0.47721 0.81779 0.20523 0.0
C930 C 0.47143 0.82591 0.1782 0.0
C931 C 0.48222 0.85148 0.16686 0.0
C932 C 0.49846 0.86781 0.18215 0.0
C933 C 0.49383 0.83455 0.21969 0.0
H934 H 0.50646 0.88717 0.17255 0.0
H935 H 0.49844 0.8271 0.24 0.0
H936 H 0.59508 0.88057 0.22671 0.0
H937 H 0.53063 0.92358 0.26862 0.0
C938 C 0.542 0.93066 0.18061 0.0
C939 C 0.57528 0.83791 0.18489 0.0
C940 C 0.47703 0.91505 0.26269 0.0
C941 C 0.53437 0.83649 0.27986 0.0
H942 H 0.5972 0.87031 0.13589 0.0
H943 H 0.58103 0.92201 0.13432 0.0
H944 H 0.50394 0.97432 0.1862 0.0
H945 H 0.46706 0.96411 0.22956 0.0
H946 H 0.46347 0.8865 0.31604 0.0
H947 H 0.49567 0.84484 0.32646 0.0
H948 H 0.56896 0.79042 0.27126 0.0
H949 H 0.58916 0.79023 0.21858 0.0
H950 H 0.62913 0.90501 0.25074 0.0
H951 H 0.56286 0.94757 0.29336 0.0
H952 H 0.4697 0.79814 0.2149 0.0
H953 H 0.47819 0.85886 0.14619 0.0
C954 C 0.2236 0.58464 0.1844 0.0
C955 C 0.21102 0.60212 0.16605 0.0
C956 C 0.18317 0.59731 0.17146 0.0
C957 C 0.18033 0.57727 0.19273 0.0
N958 N 0.20458 0.56907 0.20098 0.0
Co959 Co 0.20961 0.54077 0.23126 0.0
N960 N 0.17171 0.52521 0.23026 0.0
C961 C 0.15091 0.53879 0.21956 0.0
C962 C 0.12591 0.52539 0.22509 0.0
C963 C 0.13107 0.502 0.24049 0.0
C964 C 0.15925 0.50211 0.24324 0.0
N965 N 0.21483 0.51201 0.26113 0.0
C966 C 0.20077 0.48783 0.26805 0.0
C967 C 0.2147 0.4715 0.28628 0.0
C968 C 0.23671 0.48685 0.29271 0.0
C969 C 0.23575 0.5113 0.27732 0.0
N970 N 0.24711 0.55707 0.23256 0.0
C971 C 0.26322 0.55284 0.25331 0.0
C972 C 0.28833 0.56632 0.24817 0.0
C973 C 0.28797 0.57992 0.22265 0.0
C974 C 0.26249 0.57408 0.21363 0.0
N975 N 0.1949 0.56545 0.25869 0.0
C976 C 0.16217 0.60103 0.28897 0.0
C977 C 0.16018 0.57278 0.29564 0.0
C978 C 0.17678 0.55533 0.28031 0.0
C979 C 0.18319 0.61141 0.26922 0.0
C980 C 0.19968 0.59315 0.25451 0.0
N981 N 0.22414 0.51615 0.20395 0.0
C982 C 0.25891 0.48493 0.18877 0.0
C983 C 0.24527 0.48036 0.16551 0.0
C984 C 0.22107 0.49438 0.16143 0.0
C985 C 0.21072 0.51214 0.18108 0.0
C986 C 0.24804 0.50287 0.20769 0.0
H987 H 0.19192 0.52263 0.17782 0.0
H988 H 0.25911 0.50597 0.22532 0.0
H989 H 0.17328 0.53362 0.28465 0.0
H990 H 0.21482 0.60145 0.23834 0.0
C991 C 0.15596 0.56307 0.20283 0.0
C992 C 0.25326 0.58536 0.18737 0.0
C993 C 0.17273 0.48138 0.26054 0.0
C994 C 0.25675 0.53152 0.27366 0.0
H995 H 0.2209 0.61709 0.1507 0.0
H996 H 0.16701 0.60677 0.16066 0.0
H997 H 0.10621 0.53191 0.21881 0.0
H998 H 0.11545 0.48721 0.24946 0.0
H999 H 0.20929 0.45082 0.29456 0.0
H1000 H 0.25227 0.48042 0.30603 0.0
H1001 H 0.30553 0.56503 0.26066 0.0
H1002 H 0.30476 0.59225 0.21178 0.0
H1003 H 0.14449 0.5641 0.31123 0.0
H1004 H 0.18544 0.63322 0.26363 0.0
H1005 H 0.27805 0.47488 0.19219 0.0
H1006 H 0.21017 0.4914 0.14344 0.0
C1007 C 0.48974 0.20552 0.24717 0.0
C1008 C 0.47852 0.21788 0.27046 0.0
C1009 C 0.48782 0.24465 0.26768 0.0
C1010 C 0.50427 0.24713 0.24304 0.0
N1011 N 0.50583 0.2236 0.23012 0.0
Co1012 Co 0.52832 0.21768 0.19479 0.0
N1013 N 0.55145 0.25119 0.19732 0.0
C1014 C 0.54647 0.27059 0.21555 0.0
C1015 C 0.56848 0.28827 0.21629 0.0
C1016 C 0.58822 0.27995 0.19687 0.0
C1017 C 0.57675 0.25826 0.18436 0.0
N1018 N 0.55023 0.21195 0.15898 0.0
C1019 C 0.57222 0.22651 0.14562 0.0
C1020 C 0.57569 0.22064 0.11785 0.0
C1021 C 0.55627 0.20113 0.11409 0.0
C1022 C 0.54132 0.19666 0.13931 0.0
N1023 N 0.50544 0.18403 0.19265 0.0
C1024 C 0.50239 0.1708 0.16974 0.0
C1025 C 0.48542 0.14791 0.17469 0.0
C1026 C 0.47724 0.14675 0.20256 0.0
C1027 C 0.48979 0.16907 0.21296 0.0
N1028 N 0.50202 0.23954 0.17389 0.0
C1029 C 0.46522 0.26686 0.13992 0.0
C1030 C 0.49368 0.27286 0.13658 0.0
C1031 C 0.51152 0.25921 0.15365 0.0
C1032 C 0.45555 0.24769 0.16169 0.0
C1033 C 0.47414 0.23435 0.17832 0.0
N1034 N 0.55437 0.19568 0.21571 0.0
C1035 C 0.5785 0.1534 0.22458 0.0
C1036 C 0.58767 0.16271 0.24903 0.0
C1037 C 0.58053 0.18948 0.25549 0.0
C1038 C 0.56375 0.20524 0.23904 0.0
C1039 C 0.56215 0.17016 0.20822 0.0
H1040 H 0.5581 0.22514 0.24561 0.0
H1041 H 0.55531 0.1622 0.18978 0.0
H1042 H 0.53314 0.26446 0.15003 0.0
H1043 H 0.46592 0.21942 0.19449 0.0
C1044 C 0.5235 0.26838 0.2352 0.0
C1045 C 0.48465 0.17679 0.24159 0.0
C1046 C 0.58824 0.24805 0.15768 0.0
C1047 C 0.51889 0.17826 0.14525 0.0
H1048 H 0.46558 0.20848 0.28797 0.0
H1049 H 0.48457 0.25989 0.2828 0.0
H1050 H 0.57046 0.30447 0.2302 0.0
H1051 H 0.6085 0.28938 0.19204 0.0
H1052 H 0.58973 0.23031 0.10139 0.0
H1053 H 0.55286 0.19199 0.09497 0.0
H1054 H 0.48032 0.13332 0.16004 0.0
H1055 H 0.46345 0.13143 0.21387 0.0
H1056 H 0.50227 0.28815 0.12083 0.0
H1057 H 0.43378 0.24246 0.16546 0.0
H1058 H 0.58342 0.13305 0.21832 0.0
H1059 H 0.58788 0.19848 0.27324 0.0
C1060 C 0.86316 0.90674 0.50253 0.0
C1061 C 0.87477 0.93262 0.49488 0.0
C1062 C 0.9013 0.9322 0.50182 0.0
C1063 C 0.90441 0.90638 0.51374 0.0
N1064 N 0.88139 0.89049 0.51517 0.0
Co1065 Co 0.87711 0.85227 0.53289 0.0
N1066 N 0.912 0.85522 0.55117 0.0
C1067 C 0.93163 0.875 0.54498 0.0
C1068 C 0.95367 0.87198 0.56035 0.0
C1069 C 0.94784 0.8486 0.57711 0.0
C1070 C 0.92253 0.8385 0.57093 0.0
N1071 N 0.87271 0.81408 0.55063 0.0
C1072 C 0.88629 0.80091 0.57068 0.0
C1073 C 0.87693 0.77387 0.57574 0.0
C1074 C 0.85721 0.76983 0.55812 0.0
C1075 C 0.85557 0.79451 0.5433 0.0
N1076 N 0.84242 0.8491 0.51431 0.0
C1077 C 0.82934 0.82526 0.51067 0.0
C1078 C 0.80748 0.82841 0.49514 0.0
C1079 C 0.80675 0.85596 0.48825 0.0
C1080 C 0.82813 0.86829 0.50028 0.0
N1081 N 0.89769 0.83832 0.5005 0.0
C1082 C 0.92098 0.81313 0.45431 0.0
C1083 C 0.90359 0.83529 0.45117 0.0
C1084 C 0.89222 0.84762 0.47451 0.0
C1085 C 0.92807 0.80505 0.48076 0.0
C1086 C 0.91627 0.81798 0.50358 0.0
N1087 N 0.85631 0.86624 0.56503 0.0
C1088 C 0.81458 0.86603 0.59571 0.0
C1089 C 0.82284 0.89077 0.60563 0.0
C1090 C 0.84886 0.90206 0.59628 0.0
C1091 C 0.86536 0.88937 0.57608 0.0
C1092 C 0.83164 0.85409 0.57532 0.0
H1093 H 0.88495 0.89893 0.56869 0.0
H1094 H 0.82435 0.83565 0.56713 0.0
H1095 H 0.87821 0.86403 0.47142 0.0
H1096 H 0.92143 0.81073 0.52374 0.0
C1097 C 0.92709 0.89774 0.52721 0.0
C1098 C 0.83572 0.89777 0.49538 0.0
C1099 C 0.91036 0.81197 0.58283 0.0
C1100 C 0.83668 0.80075 0.52414 0.0
H1101 H 0.86523 0.95006 0.48519 0.0
H1102 H 0.91622 0.94907 0.49933 0.0
H1103 H 0.97155 0.88551 0.5599 0.0
H1104 H 0.9609 0.83984 0.59198 0.0
H1105 H 0.8842 0.7584 0.59006 0.0
H1106 H 0.84538 0.75116 0.55644 0.0
H1107 H 0.79362 0.81259 0.48956 0.0
H1108 H 0.7925 0.86567 0.47518 0.0
H1109 H 0.89821 0.84254 0.43091 0.0
H1110 H 0.94163 0.78804 0.48395 0.0
H1111 H 0.79454 0.85675 0.60259 0.0
H1112 H 0.856 0.92104 0.60386 0.0
C1113 C 0.16793 0.78757 0.57601 0.0
C1114 C 0.17513 0.76039 0.58078 0.0
C1115 C 0.19922 0.75695 0.56483 0.0
C1116 C 0.20519 0.78196 0.55098 0.0
N1117 N 0.18635 0.80124 0.55705 0.0
Co1118 Co 0.18601 0.83967 0.53973 0.0
N1119 N 0.22213 0.83489 0.5171 0.0
C1120 C 0.23759 0.81215 0.51697 0.0
C1121 C 0.26225 0.81548 0.50093 0.0
C1122 C 0.26284 0.84207 0.49043 0.0
C1123 C 0.23827 0.85342 0.50055 0.0
N1124 N 0.18535 0.87789 0.52193 0.0
C1125 C 0.20449 0.89202 0.50411 0.0
C1126 C 0.19561 0.91802 0.49648 0.0
C1127 C 0.17027 0.92068 0.51047 0.0
C1128 C 0.16501 0.89619 0.52561 0.0
N1129 N 0.15032 0.8448 0.56299 0.0
C1130 C 0.13513 0.86774 0.56343 0.0
C1131 C 0.11241 0.86573 0.58241 0.0
C1132 C 0.11306 0.83998 0.59493 0.0
C1133 C 0.13612 0.82758 0.58261 0.0
N1134 N 0.20635 0.85333 0.56948 0.0
C1135 C 0.23692 0.87478 0.60948 0.0
C1136 C 0.2147 0.88889 0.59997 0.0
C1137 C 0.19976 0.87784 0.58025 0.0
C1138 C 0.24315 0.84932 0.59928 0.0
C1139 C 0.22768 0.83903 0.57936 0.0
N1140 N 0.16549 0.82592 0.50986 0.0
C1141 C 0.12549 0.8271 0.48411 0.0
C1142 C 0.13412 0.80406 0.4705 0.0
C1143 C 0.15907 0.79253 0.47629 0.0
C1144 C 0.17441 0.80384 0.49572 0.0
C1145 C 0.14137 0.83763 0.50348 0.0
H1146 H 0.19315 0.79402 0.49923 0.0
H1147 H 0.13339 0.85501 0.51322 0.0
H1148 H 0.18323 0.88974 0.57371 0.0
H1149 H 0.23349 0.81965 0.57203 0.0
C1150 C 0.22869 0.78819 0.53273 0.0
C1151 C 0.14355 0.79942 0.59021 0.0
C1152 C 0.23164 0.88211 0.49462 0.0
C1153 C 0.14253 0.89074 0.54544 0.0
H1154 H 0.16419 0.74462 0.59445 0.0
H1155 H 0.21102 0.73844 0.56354 0.0
H1156 H 0.27817 0.80052 0.49775 0.0
H1157 H 0.27971 0.85205 0.47722 0.0
H1158 H 0.2066 0.9337 0.48271 0.0
H1159 H 0.15758 0.93865 0.51032 0.0
H1160 H 0.0972 0.88117 0.58667 0.0
H1161 H 0.09821 0.83136 0.61131 0.0
H1162 H 0.20925 0.9088 0.60719 0.0
H1163 H 0.25992 0.83747 0.6065 0.0
H1164 H 0.10638 0.83686 0.48003 0.0
H1165 H 0.1664 0.77438 0.46648 0.0
C1166 C 0.1582 0.19645 0.57847 0.0
C1167 C 0.13292 0.18464 0.58891 0.0
C1168 C 0.13151 0.15935 0.57864 0.0
C1169 C 0.15601 0.15689 0.56273 0.0
N1170 N 0.1732 0.17897 0.56235 0.0
Co1171 Co 0.21109 0.18304 0.54151 0.0
N1172 N 0.20781 0.14687 0.52408 0.0
C1173 C 0.18551 0.12968 0.52776 0.0
C1174 C 0.18818 0.10696 0.5127 0.0
C1175 C 0.21374 0.10965 0.49849 0.0
C1176 C 0.22553 0.13385 0.50588 0.0
N1177 N 0.24919 0.18681 0.52105 0.0
C1178 C 0.26372 0.16972 0.50404 0.0
C1179 C 0.29021 0.1801 0.4962 0.0
C1180 C 0.29238 0.20458 0.508 0.0
C1181 C 0.26734 0.20776 0.52271 0.0
N1182 N 0.21398 0.2196 0.5583 0.0
C1183 C 0.23586 0.23727 0.55383 0.0
C1184 C 0.23165 0.26166 0.56583 0.0
C1185 C 0.20539 0.25968 0.57856 0.0
C1186 C 0.19498 0.23393 0.57392 0.0
N1187 N 0.22719 0.16439 0.57345 0.0
C1188 C 0.25393 0.13525 0.61454 0.0
C1189 C 0.26355 0.16121 0.60389 0.0
C1190 C 0.24974 0.17546 0.58385 0.0
C1191 C 0.2299 0.1247 0.60529 0.0
C1192 C 0.217 0.13947 0.58488 0.0
N1193 N 0.19515 0.20184 0.50984 0.0
C1194 C 0.19492 0.24127 0.47738 0.0
C1195 C 0.16812 0.23459 0.4722 0.0
C1196 C 0.15587 0.21013 0.48424 0.0
C1197 C 0.16983 0.19397 0.50271 0.0
C1198 C 0.20804 0.22461 0.49611 0.0
H1199 H 0.15942 0.17567 0.51157 0.0
H1200 H 0.2282 0.23112 0.49977 0.0
H1201 H 0.25818 0.19509 0.57666 0.0
H1202 H 0.19918 0.13 0.57832 0.0
C1203 C 0.16259 0.13518 0.54603 0.0
C1204 C 0.16667 0.22445 0.5843 0.0
C1205 C 0.2536 0.14344 0.49487 0.0
C1206 C 0.25986 0.23055 0.53763 0.0
H1207 H 0.11691 0.19352 0.6023 0.0
H1208 H 0.11435 0.14475 0.58184 0.0
H1209 H 0.1733 0.09035 0.51213 0.0
H1210 H 0.22262 0.09536 0.48425 0.0
H1211 H 0.3064 0.17093 0.4833 0.0
H1212 H 0.31013 0.21843 0.50607 0.0
H1213 H 0.2458 0.27909 0.56496 0.0
H1214 H 0.19496 0.27562 0.58963 0.0
H1215 H 0.28228 0.17016 0.6101 0.0
H1216 H 0.2214 0.1048 0.61331 0.0
H1217 H 0.20528 0.25984 0.46793 0.0
H1218 H 0.13543 0.2038 0.47983 0.0
C1219 C 0.81852 0.17593 0.48141 0.0
C1220 C 0.79916 0.19178 0.46899 0.0
C1221 C 0.7933 0.21306 0.48538 0.0
C1222 C 0.81012 0.20984 0.50629 0.0
N1223 N 0.82688 0.18833 0.50369 0.0
Co1224 Co 0.85835 0.1804 0.52635 0.0
N1225 N 0.85496 0.21581 0.54484 0.0
C1226 C 0.83327 0.23247 0.54453 0.0
C1227 C 0.83641 0.25557 0.55868 0.0
C1228 C 0.86165 0.2534 0.56865 0.0
C1229 C 0.87256 0.22897 0.56009 0.0
N1230 N 0.89026 0.17295 0.54853 0.0
C1231 C 0.9054 0.18994 0.56275 0.0
C1232 C 0.9258 0.17568 0.57516 0.0
C1233 C 0.92329 0.14893 0.5687 0.0
C1234 C 0.9016 0.14835 0.55274 0.0
N1235 N 0.86124 0.14439 0.50865 0.0
C1236 C 0.87479 0.12282 0.51906 0.0
C1237 C 0.86804 0.0984 0.50894 0.0
C1238 C 0.84877 0.1046 0.49116 0.0
C1239 C 0.84544 0.13289 0.49036 0.0
N1240 N 0.88398 0.19847 0.49655 0.0
C1241 C 0.92252 0.22705 0.45755 0.0
C1242 C 0.92789 0.20063 0.46862 0.0
C1243 C 0.90831 0.18666 0.48793 0.0
C1244 C 0.89714 0.23838 0.4659 0.0
C1245 C 0.87836 0.22393 0.48533 0.0
N1246 N 0.83278 0.16221 0.55632 0.0
C1247 C 0.79571 0.12929 0.57018 0.0
C1248 C 0.8008 0.12971 0.59791 0.0
C1249 C 0.82132 0.14791 0.60469 0.0
C1250 C 0.83703 0.16401 0.5836 0.0
C1251 C 0.81153 0.14581 0.54993 0.0
H1252 H 0.85303 0.17738 0.58938 0.0
H1253 H 0.80675 0.14457 0.52901 0.0
H1254 H 0.91309 0.16651 0.49628 0.0
H1255 H 0.85955 0.23385 0.49163 0.0
C1256 C 0.81328 0.22858 0.52636 0.0
C1257 C 0.82484 0.14736 0.47431 0.0
C1258 C 0.89936 0.21877 0.56746 0.0
C1259 C 0.89282 0.12595 0.5393 0.0
H1260 H 0.78952 0.188 0.45044 0.0
H1261 H 0.77901 0.22936 0.482 0.0
H1262 H 0.82267 0.27268 0.56031 0.0
H1263 H 0.87109 0.26831 0.58054 0.0
H1264 H 0.94056 0.18367 0.58804 0.0
H1265 H 0.93602 0.13203 0.57461 0.0
H1266 H 0.87519 0.07822 0.51492 0.0
H1267 H 0.83731 0.08941 0.48149 0.0
H1268 H 0.94705 0.19082 0.46244 0.0
H1269 H 0.89209 0.25875 0.45806 0.0
H1270 H 0.7796 0.11605 0.56408 0.0
H1271 H 0.82577 0.14907 0.62597 0.0
C1272 C 0.27946 0.09962 0.48303 0.0
C1273 C 0.27164 0.12649 0.47499 0.0
C1274 C 0.29597 0.08354 0.46486 0.0
C1275 C 0.30586 0.09352 0.43769 0.0
H1276 H 0.27271 0.09087 0.50366 0.0
H1277 H 0.30108 0.06302 0.47218 0.0
S1278 S 0.29205 0.16266 0.40631 0.0
N1279 N 0.27519 0.16204 0.4375 0.0
N1280 N 0.30699 0.13267 0.40419 0.0
C1281 C 0.29848 0.12046 0.42954 0.0
C1282 C 0.28132 0.13665 0.44787 0.0
C1283 C 0.9529 0.27449 0.39619 0.0
C1284 C 0.98013 0.27925 0.4022 0.0
C1285 C 0.93474 0.25691 0.4137 0.0
C1286 C 0.94311 0.24332 0.43788 0.0
H1287 H 0.94541 0.28501 0.3782 0.0
H1288 H 0.9138 0.25425 0.40849 0.0
S1289 S 0.01257 0.24907 0.46258 0.0
N1290 N 0.01481 0.26895 0.4336 0.0
N1291 N 0.98082 0.23601 0.46662 0.0
C1292 C 0.97057 0.24752 0.4437 0.0
C1293 C 0.989 0.2655 0.42589 0.0
C1294 C 0.8287 0.92967 0.45289 0.0
C1295 C 0.81815 0.91665 0.47859 0.0
C1296 C 0.81235 0.94678 0.43684 0.0
C1297 C 0.78417 0.95103 0.44502 0.0
H1298 H 0.84989 0.92663 0.44501 0.0
H1299 H 0.82219 0.95692 0.41791 0.0
S1300 S 0.7456 0.91829 0.50918 0.0
N1301 N 0.77755 0.90831 0.51103 0.0
N1302 N 0.74606 0.93745 0.47991 0.0
C1303 C 0.77312 0.93688 0.47022 0.0
C1304 C 0.79016 0.92046 0.48707 0.0
C1305 C 0.08824 0.78629 0.46009 0.0
C1306 C 0.11637 0.7914 0.45155 0.0
C1307 C 0.07105 0.77352 0.4431 0.0
C1308 C 0.08133 0.76554 0.4169 0.0
H1309 H 0.07954 0.79175 0.48029 0.0
H1310 H 0.04954 0.76986 0.45053 0.0
S1311 S 0.15332 0.77462 0.38467 0.0
N1312 N 0.15361 0.78808 0.41494 0.0
N1313 N 0.12135 0.7635 0.38317 0.0
C1314 C 0.10935 0.77073 0.40797 0.0
C1315 C 0.12687 0.78373 0.42529 0.0
C1316 C 0.24081 0.90016 0.65188 0.0
C1317 C 0.25387 0.88757 0.62904 0.0
C1318 C 0.25584 0.91638 0.66805 0.0
C1319 C 0.28442 0.92018 0.66214 0.0
H1320 H 0.21866 0.89829 0.65664 0.0
H1321 H 0.24494 0.9268 0.68468 0.0
S1322 S 0.32864 0.89113 0.60558 0.0
N1323 N 0.29726 0.87957 0.60187 0.0
N1324 N 0.32554 0.90961 0.63294 0.0
C1325 C 0.29799 0.90672 0.64036 0.0
C1326 C 0.28269 0.89042 0.62365 0.0
C1327 C 0.10277 0.26732 0.60632 0.0
C1328 C 0.10772 0.27612 0.63257 0.0
C1329 C 0.12181 0.25109 0.5909 0.0
C1330 C 0.14682 0.24265 0.60093 0.0
H1331 H 0.08383 0.27288 0.59767 0.0
H1332 H 0.11683 0.24494 0.57093 0.0
S1333 S 0.16999 0.26001 0.66836 0.0
N1334 N 0.14014 0.27537 0.66744 0.0
N1335 N 0.17504 0.24434 0.63924 0.0
C1336 C 0.15198 0.25131 0.62712 0.0
C1337 C 0.13277 0.26807 0.64265 0.0
C1338 C 0.78302 0.08245 0.61495 0.0
C1339 C 0.78487 0.11071 0.61913 0.0
C1340 C 0.76653 0.06427 0.63347 0.0
C1341 C 0.75117 0.0737 0.65677 0.0
H1342 H 0.79424 0.07436 0.59704 0.0
H1343 H 0.76539 0.04277 0.6293 0.0
S1344 S 0.74774 0.1457 0.67656 0.0
N1345 N 0.76946 0.14717 0.6482 0.0
N1346 N 0.73808 0.11311 0.68264 0.0
C1347 C 0.75279 0.10183 0.66123 0.0
C1348 C 0.76979 0.12029 0.64255 0.0
C1349 C 0.96566 0.76382 0.60837 0.0
C1350 C 0.95619 0.75674 0.63636 0.0
C1351 C 0.951 0.78173 0.59142 0.0
C1352 C 0.92612 0.79344 0.60159 0.0
H1353 H 0.9848 0.75567 0.59948 0.0
H1354 H 0.95916 0.78641 0.57008 0.0
S1355 S 0.8912 0.78075 0.67253 0.0
N1356 N 0.91932 0.76238 0.67286 0.0
N1357 N 0.89219 0.79597 0.6411 0.0
C1358 C 0.9162 0.78637 0.62929 0.0
C1359 C 0.93112 0.76818 0.64662 0.0
C1360 C 0.40298 0.30517 0.11419 0.0
C1361 C 0.40937 0.3083 0.08524 0.0
C1362 C 0.42079 0.29152 0.13161 0.0
C1363 C 0.44596 0.28057 0.1209 0.0
H1364 H 0.38418 0.31363 0.12349 0.0
H1365 H 0.41503 0.29005 0.15373 0.0
S1366 S 0.47119 0.28161 0.04617 0.0
N1367 N 0.4419 0.29812 0.04657 0.0
N1368 N 0.47522 0.27267 0.07885 0.0
C1369 C 0.45223 0.28321 0.09185 0.0
C1370 C 0.43403 0.29696 0.0742 0.0
C1371 C 0.80435 0.43461 0.14697 0.0
C1372 C 0.80281 0.46307 0.14153 0.0
C1373 C 0.78997 0.41644 0.13211 0.0
C1374 C 0.77353 0.42629 0.11156 0.0
H1375 H 0.81689 0.42645 0.16265 0.0
H1376 H 0.79162 0.39457 0.13677 0.0
S1377 S 0.76372 0.49929 0.08934 0.0
N1378 N 0.78427 0.50045 0.11434 0.0
N1379 N 0.75723 0.46639 0.08614 0.0
C1380 C 0.77191 0.45481 0.10604 0.0
C1381 C 0.78661 0.47322 0.12111 0.0
C1382 C 0.59414 0.7898 0.12592 0.0
C1383 C 0.62232 0.78409 0.12785 0.0
C1384 C 0.57923 0.80702 0.14422 0.0
C1385 C 0.59153 0.81918 0.16569 0.0
H1386 H 0.58352 0.78123 0.1098 0.0
H1387 H 0.55781 0.81083 0.14153 0.0
S1388 S 0.66415 0.8108 0.18082 0.0
N1389 N 0.66141 0.79207 0.15409 0.0
N1390 N 0.63364 0.8243 0.18772 0.0
C1391 C 0.61952 0.81369 0.16797 0.0
C1392 C 0.63476 0.79626 0.14935 0.0
C1393 C 0.28207 0.62851 0.17408 0.0
C1394 C 0.27209 0.60291 0.16703 0.0
C1395 C 0.2984 0.64594 0.15462 0.0
C1396 C 0.30499 0.63859 0.1273 0.0
H1397 H 0.27692 0.63522 0.19471 0.0
H1398 H 0.30573 0.66544 0.16087 0.0
S1399 S 0.28328 0.57425 0.09824 0.0
N1400 N 0.26969 0.5713 0.13081 0.0
N1401 N 0.3 0.6042 0.09415 0.0
C1402 C 0.29503 0.61315 0.11999 0.0
C1403 C 0.27858 0.59535 0.13983 0.0
C1404 C 0.40712 0.76662 0.95286 0.0
C1405 C 0.41568 0.75761 0.9787 0.0
C1406 C 0.42417 0.78382 0.93383 0.0
C1407 C 0.45081 0.79189 0.93949 0.0
H1408 H 0.38706 0.76034 0.94737 0.0
H1409 H 0.41658 0.79067 0.9144 0.0
S1410 S 0.48312 0.77366 1.00395 0.0
N1411 N 0.45226 0.75864 1.00916 0.0
N1412 N 0.48497 0.78934 0.97267 0.0
C1413 C 0.45968 0.7828 0.96512 0.0
C1414 C 0.44203 0.76599 0.98481 0.0
C1415 C 0.27933 0.43643 0.96425 0.0
C1416 C 0.28905 0.41085 0.95613 0.0
C1417 C 0.26287 0.45274 0.94763 0.0
C1418 C 0.25539 0.44418 0.92219 0.0
H1419 H 0.28468 0.44397 0.98354 0.0
H1420 H 0.25611 0.47235 0.95463 0.0
S1421 S 0.27505 0.37882 0.89166 0.0
N1422 N 0.28993 0.3779 0.9208 0.0
N1423 N 0.25846 0.40801 0.89016 0.0
C1424 C 0.26466 0.4185 0.91405 0.0
C1425 C 0.2816 0.40203 0.93082 0.0
C1426 C 0.63473 0.27969 0.9085 0.0
C1427 C 0.614 0.26171 0.92166 0.0
C1428 C 0.653 0.29312 0.92397 0.0
C1429 C 0.65133 0.28843 0.95289 0.0
H1430 H 0.63634 0.2839 0.88625 0.0
H1431 H 0.66838 0.30737 0.91333 0.0
S1432 S 0.60125 0.24257 0.99685 0.0
N1433 N 0.59311 0.23948 0.96498 0.0
N1434 N 0.62777 0.26443 0.99405 0.0
C1435 C 0.63111 0.27002 0.96616 0.0
C1436 C 0.61231 0.25672 0.95052 0.0
C1437 C 0.76402 0.632 0.9364 0.0
C1438 C 0.75858 0.62551 0.96523 0.0
C1439 C 0.77956 0.61462 0.91872 0.0
C1440 C 0.79116 0.59016 0.92902 0.0
H1441 H 0.75596 0.65063 0.9273 0.0
H1442 H 0.783 0.6207 0.89683 0.0
S1443 S 0.78356 0.56353 1.00272 0.0
N1444 N 0.76627 0.59231 1.00287 0.0
N1445 N 0.79575 0.56049 0.9702 0.0
C1446 C 0.78599 0.58352 0.95776 0.0
C1447 C 0.7697 0.60086 0.97562 0.0
C1448 C 0.12097 0.42082 0.27092 0.0
C1449 C 0.11749 0.41496 0.29983 0.0
C1450 C 0.14047 0.44059 0.25851 0.0
C1451 C 0.15557 0.45734 0.27449 0.0
H1452 H 0.1081 0.41052 0.25767 0.0
H1453 H 0.14254 0.44395 0.23616 0.0
S1454 S 0.1532 0.45134 0.35131 0.0
N1455 N 0.13303 0.4259 0.34393 0.0
N1456 N 0.16399 0.46765 0.32134 0.0
C1457 C 0.15177 0.45218 0.30353 0.0
C1458 C 0.13411 0.43004 0.31593 0.0
C1459 C 0.12311 0.56502 0.79947 0.0
C1460 C 0.14444 0.57716 0.8124 0.0
C1461 C 0.10615 0.58091 0.783 0.0
C1462 C 0.1097 0.60973 0.77866 0.0
H1463 H 0.11957 0.54301 0.80205 0.0
H1464 H 0.09025 0.5704 0.77333 0.0
S1465 S 0.16179 0.65153 0.80957 0.0
N1466 N 0.16766 0.61968 0.82062 0.0
N1467 N 0.13588 0.64958 0.79021 0.0
C1468 C 0.13091 0.62204 0.79184 0.0
C1469 C 0.14816 0.60581 0.80855 0.0
C1470 C 0.4408 0.08896 0.77923 0.0
C1471 C 0.41471 0.09672 0.77195 0.0
C1472 C 0.45685 0.10651 0.79313 0.0
C1473 C 0.44749 0.13254 0.79982 0.0
H1474 H 0.44865 0.06899 0.77455 0.0
H1475 H 0.47677 0.09973 0.79861 0.0
S1476 S 0.38099 0.16275 0.78464 0.0
N1477 N 0.38035 0.13216 0.77202 0.0
N1478 N 0.41078 0.1654 0.79794 0.0
C1479 C 0.42164 0.14072 0.7923 0.0
C1480 C 0.40513 0.1227 0.77846 0.0
C1481 C 0.96766 0.43096 0.7748 0.0
C1482 C 0.93867 0.42791 0.78039 0.0
C1483 C 0.98335 0.41331 0.75752 0.0
C1484 C 0.97098 0.3914 0.7452 0.0
H1485 H 0.97835 0.44751 0.78344 0.0
H1486 H 1.00543 0.41683 0.75379 0.0
S1487 S 0.89634 0.37308 0.75388 0.0
N1488 N 0.89871 0.40002 0.77245 0.0
N1489 N 0.92797 0.36744 0.7404 0.0
C1490 C 0.9422 0.38787 0.75085 0.0
C1491 C 0.9262 0.40587 0.76823 0.0
C1492 C 0.6337 0.91349 0.78369 0.0
C1493 C 0.62588 0.93967 0.77392 0.0
C1494 C 0.61564 0.89658 0.80205 0.0
C1495 C 0.58889 0.905 0.8108 0.0
H1496 H 0.65408 0.90626 0.7774 0.0
H1497 H 0.62263 0.87679 0.80952 0.0
S1498 S 0.55862 0.97182 0.79166 0.0
N1499 N 0.59003 0.97366 0.77543 0.0
N1500 N 0.55552 0.94115 0.80821 0.0
C1501 C 0.58079 0.93101 0.80098 0.0
C1502 C 0.59939 0.9485 0.78297 0.0
C1503 C 0.94533 0.60318 0.2655 0.0
C1504 C 0.9386 0.6305 0.2702 0.0
C1505 C 0.92905 0.5871 0.25033 0.0
C1506 C 0.90552 0.59783 0.23959 0.0
H1507 H 0.96336 0.59423 0.27351 0.0
H1508 H 0.93475 0.56612 0.24709 0.0
S1509 S 0.87855 0.66761 0.24649 0.0
N1510 N 0.90647 0.66731 0.26323 0.0
N1511 N 0.87601 0.63689 0.23446 0.0
C1512 C 0.89854 0.62498 0.24399 0.0
C1513 C 0.91509 0.64141 0.25937 0.0
C1514 C 0.41404 0.94176 0.30765 0.0
C1515 C 0.42313 0.96754 0.31548 0.0
C1516 C 0.43122 0.92518 0.2906 0.0
C1517 C 0.45856 0.93332 0.28071 0.0
H1518 H 0.3934 0.93424 0.31489 0.0
H1519 H 0.42306 0.90569 0.28521 0.0
S1520 S 0.49293 0.99854 0.29559 0.0
N1521 N 0.46158 1.00025 0.31155 0.0
N1522 N 0.49397 0.96888 0.28106 0.0
C1523 C 0.46798 0.95889 0.28868 0.0
C1524 C 0.45036 0.97594 0.3056 0.0
C1525 C 0.64201 0.11216 0.27327 0.0
C1526 C 0.63867 0.11214 0.3025 0.0
C1527 C 0.62545 0.12809 0.25632 0.0
C1528 C 0.60454 0.14493 0.26759 0.0
H1529 H 0.65749 0.09953 0.26324 0.0
H1530 H 0.62943 0.12747 0.23408 0.0
S1531 S 0.58632 0.15201 0.34285 0.0
N1532 N 0.61254 0.1311 0.34175 0.0
N1533 N 0.58062 0.15927 0.31033 0.0
C1534 C 0.6006 0.14472 0.2968 0.0
C1535 C 0.61772 0.12883 0.31404 0.0
C1536 C 0.77241 0.90846 0.66593 0.0
C1537 C 0.76403 0.93469 0.65709 0.0
C1538 C 0.79162 0.89421 0.64923 0.0
C1539 C 0.80335 0.90611 0.62358 0.0
H1540 H 0.76366 0.89875 0.68556 0.0
H1541 H 0.79738 0.87384 0.65637 0.0
S1542 S 0.78857 0.97458 0.59165 0.0
N1543 N 0.76907 0.97216 0.62147 0.0
N1544 N 0.80531 0.94552 0.5902 0.0
C1545 C 0.7954 0.93249 0.6148 0.0
C1546 C 0.77569 0.94677 0.63156 0.0
C1547 C 0.09887 0.77451 0.60688 0.0
C1548 C 0.1258 0.78231 0.61173 0.0
C1549 C 0.08248 0.75703 0.62613 0.0
C1550 C 0.09257 0.74661 0.65072 0.0
H1551 H 0.09064 0.78162 0.58785 0.0
H1552 H 0.06198 0.75112 0.62151 0.0
S1553 S 0.16207 0.75998 0.67253 0.0
N1554 N 0.16174 0.77849 0.64291 0.0
N1555 N 0.13156 0.7443 0.67828 0.0
C1556 C 0.11952 0.75409 0.6557 0.0
C1557 C 0.13596 0.77233 0.63642 0.0
C1558 C 0.27444 0.09056 0.62806 0.0
C1559 C 0.27002 0.11823 0.63329 0.0
C1560 C 0.29035 0.07407 0.6445 0.0
C1561 C 0.30285 0.08473 0.66647 0.0
H1562 H 0.26587 0.08163 0.61086 0.0
H1563 H 0.29303 0.05279 0.63995 0.0
S1564 S 0.29655 0.15501 0.69011 0.0
N1565 N 0.27826 0.15503 0.66322 0.0
N1566 N 0.30911 0.12391 0.69355 0.0
C1567 C 0.29849 0.11211 0.67224 0.0
C1568 C 0.28194 0.12893 0.65571 0.0
C1569 C 0.94249 0.24697 0.57377 0.0
C1570 C 0.917 0.23502 0.585 0.0
C1571 C 0.95923 0.26212 0.58991 0.0
C1572 C 0.95147 0.26583 0.61822 0.0
H1573 H 0.94954 0.24463 0.55225 0.0
H1574 H 0.97867 0.27068 0.58015 0.0
S1575 S 0.88632 0.23867 0.65746 0.0
N1576 N 0.88485 0.22777 0.62618 0.0
N1577 N 0.91569 0.25629 0.6563 0.0
C1578 C 0.92593 0.25382 0.62961 0.0
C1579 C 0.90893 0.23846 0.61313 0.0
C1580 C 0.76046 0.12032 0.44202 0.0
C1581 C 0.77029 0.09935 0.42523 0.0
C1582 C 0.77762 0.13433 0.45856 0.0
C1583 C 0.8066 0.13159 0.45619 0.0
H1584 H 0.73909 0.12603 0.44277 0.0
H1585 H 0.76775 0.14761 0.47327 0.0
S1586 S 0.84443 0.08278 0.41165 0.0
N1587 N 0.81168 0.07584 0.40849 0.0
N1588 N 0.84464 0.10878 0.43169 0.0
C1589 C 0.81718 0.11266 0.43726 0.0
C1590 C 0.79914 0.09536 0.4236 0.0
C1591 C 0.96677 0.77308 0.40493 0.0
C1592 C 0.94772 0.76171 0.38877 0.0
C1593 C 0.95812 0.79056 0.42558 0.0
C1594 C 0.9302 0.79717 0.43052 0.0
H1595 H 0.98829 0.76771 0.40214 0.0
H1596 H 0.97324 0.79851 0.43812 0.0
S1597 S 0.87261 0.77238 0.3933 0.0
N1598 N 0.90024 0.75822 0.37837 0.0
N1599 N 0.88364 0.79097 0.4174 0.0
C1600 C 0.91113 0.78637 0.41388 0.0
C1601 C 0.92 0.7686 0.39291 0.0
C1602 C 0.27823 0.91732 0.43488 0.0
C1603 C 0.29032 0.93936 0.44715 0.0
C1604 C 0.25955 0.89874 0.45037 0.0
C1605 C 0.25239 0.90134 0.47873 0.0
H1606 H 0.28321 0.91442 0.41309 0.0
H1607 H 0.25045 0.88231 0.44006 0.0
S1608 S 0.27742 0.95531 0.52088 0.0
N1609 N 0.29296 0.96285 0.48953 0.0
N1610 N 0.2585 0.92731 0.51861 0.0
C1611 C 0.26436 0.92299 0.49137 0.0
C1612 C 0.28322 0.94207 0.47562 0.0
C1613 C 0.1642 0.2628 0.42829 0.0
C1614 C 0.15278 0.25355 0.45497 0.0
C1615 C 0.14975 0.28052 0.4115 0.0
C1616 C 0.12365 0.28983 0.42108 0.0
H1617 H 0.18418 0.25584 0.42018 0.0
H1618 H 0.15886 0.28676 0.39078 0.0
S1619 S 0.08536 0.27243 0.48975 0.0
N1620 N 0.1144 0.25563 0.4906 0.0
N1621 N 0.0871 0.28891 0.45887 0.0
C1622 C 0.11229 0.28122 0.44792 0.0
C1623 C 0.12688 0.26302 0.46491 0.0
C1624 C 0.61362 0.76312 0.98517 0.0
C1625 C 0.6372 0.75084 0.97309 0.0
C1626 C 0.59644 0.77823 0.96884 0.0
C1627 C 0.60235 0.78159 0.93989 0.0
H1628 H 0.60851 0.76103 1.00741 0.0
H1629 H 0.57828 0.7872 0.97894 0.0
S1630 S 0.66206 0.75338 0.89862 0.0
N1631 N 0.66567 0.74245 0.9309 0.0
N1632 N 0.6338 0.77163 0.89997 0.0
C1633 C 0.62594 0.76926 0.92761 0.0
C1634 C 0.6433 0.7537 0.9443 0.0
C1635 C 0.30603 0.60978 0.95534 0.0
C1636 C 0.29262 0.62731 0.97407 0.0
C1637 C 0.29123 0.59349 0.93855 0.0
C1638 C 0.26218 0.59369 0.93966 0.0
H1639 H 0.3283 0.60874 0.95341 0.0
H1640 H 0.30274 0.58025 0.92484 0.0
S1641 S 0.2168 0.63598 0.985 0.0
N1642 N 0.24816 0.64338 0.99281 0.0
N1643 N 0.22068 0.61379 0.96081 0.0
C1644 C 0.2485 0.61127 0.95816 0.0
C1645 C 0.26357 0.62778 0.97534 0.0
C1646 C 0.40636 0.27069 0.91743 0.0
C1647 C 0.41617 0.28512 0.93876 0.0
C1648 C 0.42349 0.25294 0.90247 0.0
C1649 C 0.45072 0.24904 0.90866 0.0
H1650 H 0.38554 0.27356 0.91195 0.0
H1651 H 0.41562 0.24256 0.88573 0.0
S1652 S 0.48556 0.28058 0.9637 0.0
N1653 N 0.45424 0.29306 0.96632 0.0
N1654 N 0.48653 0.26029 0.9378 0.0
C1655 C 0.46055 0.26294 0.93024 0.0
C1656 C 0.44321 0.28084 0.94544 0.0
C1657 C 0.76831 0.42299 0.93898 0.0
C1658 C 0.77935 0.40574 0.95929 0.0
C1659 C 0.78519 0.44048 0.92025 0.0
C1660 C 0.81413 0.43875 0.91794 0.0
H1661 H 0.74625 0.42385 0.93808 0.0
H1662 H 0.77527 0.4554 0.90735 0.0
S1663 S 0.85397 0.39296 0.96235 0.0
N1664 N 0.82182 0.38904 0.97635 0.0
N1665 N 0.85282 0.41384 0.93445 0.0
C1666 C 0.82545 0.41907 0.93587 0.0
C1667 C 0.80838 0.40444 0.95789 0.0
C1668 C 0.63105 0.30864 0.1205 0.0
C1669 C 0.65057 0.29627 0.1023 0.0
C1670 C 0.61051 0.29313 0.13703 0.0
C1671 C 0.61095 0.26422 0.1398 0.0
H1672 H 0.63084 0.33073 0.1213 0.0
H1673 H 0.5941 0.30421 0.1476 0.0
S1674 S 0.65975 0.22105 0.09941 0.0
N1675 N 0.6677 0.2527 0.08681 0.0
N1676 N 0.63509 0.22382 0.12478 0.0
C1677 C 0.63203 0.25146 0.12367 0.0
C1678 C 0.65048 0.26727 0.10366 0.0
C1679 C 0.76939 0.64164 0.14884 0.0
C1680 C 0.7773 0.6174 0.13643 0.0
C1681 C 0.75226 0.66022 0.13606 0.0
C1682 C 0.7427 0.65502 0.11055 0.0
H1683 H 0.77674 0.64637 0.16835 0.0
H1684 H 0.74647 0.67873 0.14608 0.0
S1685 S 0.75547 0.59355 0.07094 0.0
N1686 N 0.77279 0.58838 0.09827 0.0
N1687 N 0.74103 0.62367 0.07399 0.0
C1688 C 0.75 0.63069 0.09824 0.0
C1689 C 0.76727 0.61178 0.11124 0.0
C1690 C 0.45012 0.78424 0.11882 0.0
C1691 C 0.42447 0.77204 0.12938 0.0
C1692 C 0.46487 0.80178 0.13448 0.0
C1693 C 0.45496 0.8076 0.16168 0.0
H1694 H 0.45874 0.7805 0.09807 0.0
H1695 H 0.48445 0.81058 0.12531 0.0
S1696 S 0.3891 0.78067 0.19934 0.0
N1697 N 0.39001 0.76704 0.16906 0.0
N1698 N 0.41762 0.79962 0.19833 0.0
C1699 C 0.42944 0.79538 0.17255 0.0
C1700 C 0.41426 0.77781 0.15649 0.0
C1701 C 0.27809 0.45433 0.09901 0.0
C1702 C 0.28552 0.42763 0.10748 0.0
C1703 C 0.2639 0.47099 0.11767 0.0
C1704 C 0.257 0.46148 0.14538 0.0
H1705 H 0.28345 0.46243 0.07786 0.0
H1706 H 0.25913 0.49171 0.11065 0.0
S1707 S 0.27099 0.39294 0.17759 0.0
N1708 N 0.28444 0.39226 0.14515 0.0
N1709 N 0.25751 0.42356 0.18022 0.0
C1710 C 0.26372 0.43464 0.15393 0.0
C1711 C 0.27805 0.41768 0.13496 0.0
C1712 C 0.90761 0.60956 0.78102 0.0
C1713 C 0.91679 0.58332 0.78903 0.0
C1714 C 0.92466 0.62815 0.76346 0.0
C1715 C 0.95183 0.62157 0.75416 0.0
H1716 H 0.8873 0.6159 0.78879 0.0
H1717 H 0.91686 0.64816 0.7578 0.0
S1718 S 0.98574 0.55559 0.7696 0.0
N1719 N 0.95427 0.5513 0.78536 0.0
N1720 N 0.98717 0.58703 0.75479 0.0
C1721 C 0.9612 0.59539 0.76213 0.0
C1722 C 0.9435 0.57613 0.77897 0.0
C1723 C 0.92217 0.4187 0.25015 0.0
C1724 C 0.9286 0.44689 0.2455 0.0
C1725 C 0.93899 0.40138 0.26492 0.0
C1726 C 0.96227 0.41201 0.2758 0.0
H1727 H 0.90402 0.41009 0.24242 0.0
H1728 H 0.93342 0.37978 0.26845 0.0
S1729 S 0.98772 0.48424 0.26941 0.0
N1730 N 0.9598 0.48455 0.25267 0.0
N1731 N 0.99115 0.45202 0.28088 0.0
C1732 C 0.96897 0.44005 0.27114 0.0
C1733 C 0.95216 0.45755 0.25584 0.0
C1734 C 0.65922 0.94409 0.31751 0.0
C1735 C 0.65668 0.97217 0.32211 0.0
C1736 C 0.64107 0.93047 0.30155 0.0
C1737 C 0.61946 0.94429 0.28954 0.0
H1738 H 0.67523 0.9325 0.32654 0.0
H1739 H 0.64362 0.90875 0.29916 0.0
S1740 S 0.60558 0.01869 0.29382 0.0
N1741 N 0.63184 0.01361 0.31243 0.0
N1742 N 0.59816 0.9886 0.28232 0.0
C1743 C 0.61725 0.97263 0.29363 0.0
C1744 C 0.63568 0.98637 0.30989 0.0
C1745 C 0.11231 0.61048 0.29574 0.0
C1746 C 0.13957 0.61858 0.2991 0.0
C1747 C 0.09016 0.62658 0.30429 0.0
C1748 C 0.09452 0.65125 0.31653 0.0
H1749 H 0.10809 0.59167 0.28608 0.0
H1750 H 0.06944 0.61971 0.30136 0.0
S1751 S 0.1615 0.68172 0.33012 0.0
N1752 N 0.16964 0.65297 0.31544 0.0
N1753 N 0.12755 0.68334 0.33175 0.0
C1754 C 0.1215 0.65979 0.31996 0.0
C1755 C 0.14419 0.64342 0.31112 0.0
C1756 C 0.44074 0.16226 0.27061 0.0
C1757 C 0.46866 0.15767 0.26262 0.0
C1758 C 0.42508 0.14392 0.28958 0.0
C1759 C 0.43662 0.12004 0.30105 0.0
H1760 H 0.43089 0.1801 0.26195 0.0
H1761 H 0.4037 0.14848 0.29526 0.0
S1762 S 0.50869 0.09804 0.28523 0.0
N1763 N 0.50716 0.12747 0.26675 0.0
N1764 N 0.47771 0.09245 0.30187 0.0
C1765 C 0.46457 0.11514 0.2929 0.0
C1766 C 0.48052 0.13399 0.27371 0.0
C1767 C 0.13524 0.39068 0.76759 0.0
C1768 C 0.10987 0.39885 0.7584 0.0
C1769 C 0.14978 0.4071 0.78452 0.0
C1770 C 0.13926 0.43208 0.79356 0.0
H1771 H 0.14411 0.3716 0.76133 0.0
H1772 H 0.16925 0.39998 0.79091 0.0
S1773 S 0.07346 0.46253 0.77575 0.0
N1774 N 0.0749 0.43365 0.75984 0.0
N1775 N 0.10176 0.46405 0.79178 0.0
C1776 C 0.1138 0.4403 0.78469 0.0
C1777 C 0.09928 0.42386 0.76712 0.0
C1778 C 0.57131 0.12312 0.78751 0.0
C1779 C 0.58457 0.14376 0.80036 0.0
C1780 C 0.58668 0.1038 0.773 0.0
C1781 C 0.61568 0.10463 0.77109 0.0
H1782 H 0.549 0.12159 0.78922 0.0
H1783 H 0.57584 0.08789 0.76353 0.0
S1784 S 0.65964 0.15457 0.80222 0.0
N1785 N 0.62779 0.1641 0.81079 0.0
N1786 N 0.65689 0.12763 0.78373 0.0
C1787 C 0.62906 0.12551 0.78368 0.0
C1788 C 0.61341 0.14512 0.79835 0.0
C1789 C 0.44238 0.94666 0.80359 0.0
C1790 C 0.43656 0.9183 0.80855 0.0
C1791 C 0.4259 0.96335 0.7878 0.0
C1792 C 0.4031 0.9522 0.77661 0.0
H1793 H 0.46006 0.95594 0.81157 0.0
H1794 H 0.43108 0.98503 0.78414 0.0
S1795 S 0.37872 0.87964 0.78353 0.0
N1796 N 0.40585 0.88011 0.80138 0.0
N1797 N 0.37553 0.91149 0.77089 0.0
C1798 C 0.39706 0.92401 0.78121 0.0
C1799 C 0.41363 0.90704 0.79742 0.0
loop_
_geom_bond_atom_site_label_1
_geom_bond_atom_site_label_2
_geom_bond_distance
_geom_bond_site_symmetry_2
_ccdc_geom_bond_type
C0 C1 1.443 . S
C0 N4 1.376 1_565 S
C0 C38 1.389 . S
C1 C0 1.443 . S
C1 C2 1.360 . S
C1 H41 0.951 . S
C2 C1 1.360 . S
C2 C3 1.421 1_565 S
C2 H42 0.950 . S
C3 C2 1.421 1_545 S
C3 N4 1.374 . S
C3 C37 1.395 . S
N4 C0 1.376 1_545 S
N4 C3 1.374 . S
N4 Co5 2.008 . S
Co5 N4 2.008 . S
Co5 N6 1.995 . S
Co5 N11 2.008 . S
Co5 N16 1.995 . S
Co5 N21 2.282 1_545 S
Co5 N27 2.282 . S
N6 Co5 1.995 . S
N6 C7 1.376 . S
N6 C10 1.383 . S
C7 N6 1.376 . S
C7 C8 1.446 . S
C7 C37 1.391 . S
C8 C7 1.446 . S
C8 C9 1.339 . S
C8 H43 0.949 . S
C9 C8 1.339 . S
C9 C10 1.439 . S
C9 H44 0.950 . S
C10 N6 1.383 . S
C10 C9 1.439 . S
C10 C39 1.392 . S
N11 Co5 2.008 . S
N11 C12 1.376 . S
N11 C15 1.374 . S
C12 N11 1.376 . S
C12 C13 1.443 . S
C12 C39 1.389 . S
C13 C12 1.443 . S
C13 C14 1.340 . S
C13 H45 0.951 . S
C14 C13 1.340 . S
C14 C15 1.439 . S
C14 H46 0.950 . S
C15 N11 1.374 . S
C15 C14 1.439 . S
C15 C40 1.395 . S
N16 Co5 1.995 . S
N16 C17 1.376 . S
N16 C20 1.383 1_545 S
C17 N16 1.376 . S
C17 C18 1.446 1_545 S
C17 C40 1.391 . S
C18 C17 1.446 1_565 S
C18 C19 1.339 . S
C18 H47 0.949 . S
C19 C18 1.339 . S
C19 C20 1.439 . S
C19 H48 0.950 . S
C20 N16 1.383 1_565 S
C20 C19 1.439 . S
C20 C38 1.392 . S
N21 Co5 2.282 1_565 S
N21 C24 1.332 . S
N21 C26 1.332 . S
C22 C23 1.386 . S
C22 C25 1.388 . S
C23 C22 1.386 . S
C23 C24 1.382 . S
C23 H49 0.950 . S
C24 N21 1.332 . S
C24 C23 1.382 . S
C24 H35 0.952 . S
C25 C22 1.388 . S
C25 C26 1.382 . S
C25 H50 0.950 . S
C26 N21 1.332 . S
C26 C25 1.382 . S
C26 H36 0.948 . S
N27 Co5 2.282 . S
N27 C31 1.332 . S
N27 C32 1.332 . S
C28 C29 1.388 . S
C28 C32 1.382 . S
C28 H51 0.950 . S
C29 C28 1.388 . S
C29 C30 1.386 . S
C30 C29 1.386 . S
C30 C31 1.382 . S
C30 H52 0.950 . S
C31 N27 1.332 . S
C31 C30 1.382 . S
C31 H33 0.952 . S
C32 N27 1.332 . S
C32 C28 1.382 . S
C32 H34 0.948 . S
H33 C31 0.952 . S
H34 C32 0.948 . S
H35 C24 0.952 . S
H36 C26 0.948 . S
C37 C3 1.395 . S
C37 C7 1.391 . S
C38 C0 1.389 . S
C38 C20 1.392 . S
C39 C10 1.392 . S
C39 C12 1.389 . S
C40 C15 1.395 . S
C40 C17 1.391 . S
H41 C1 0.951 . S
H42 C2 0.950 . S
H43 C8 0.949 . S
H44 C9 0.950 . S
H45 C13 0.951 . S
H46 C14 0.950 . S
H47 C18 0.949 . S
H48 C19 0.950 . S
H49 C23 0.950 . S
H50 C25 0.950 . S
H51 C28 0.950 . S
H52 C30 0.950 . S
C53 C54 1.443 . S
C53 N57 1.376 . S
C53 C91 1.389 . S
C54 C53 1.443 . S
C54 C55 1.340 . S
C54 H94 0.951 . S
C55 C54 1.340 . S
C55 C56 1.439 . S
C55 H95 0.950 . S
C56 C55 1.439 . S
C56 N57 1.374 . S
C56 C90 1.395 . S
N57 C53 1.376 . S
N57 C56 1.374 . S
N57 Co58 2.008 . S
Co58 N57 2.008 . S
Co58 N59 1.995 . S
Co58 N64 2.008 . S
Co58 N69 1.995 . S
Co58 N74 2.282 . S
Co58 N80 2.282 1_455 S
N59 Co58 1.995 . S
N59 C60 1.376 . S
N59 C63 1.383 1_455 S
C60 N59 1.376 . S
C60 C61 1.446 1_455 S
C60 C90 1.391 . S
C61 C60 1.446 1_655 S
C61 C62 1.339 . S
C61 H96 0.949 . S
C62 C61 1.339 . S
C62 C63 1.439 . S
C62 H97 0.950 . S
C63 N59 1.383 1_655 S
C63 C62 1.439 . S
C63 C92 1.392 . S
N64 Co58 2.008 . S
N64 C65 1.376 1_455 S
N64 C68 1.374 . S
C65 N64 1.376 1_655 S
C65 C66 1.443 . S
C65 C92 1.389 . S
C66 C65 1.443 . S
C66 C67 1.340 1_655 S
C66 H98 0.951 . S
C67 C66 1.340 1_455 S
C67 C68 1.439 . S
C67 H99 0.950 . S
C68 N64 1.374 . S
C68 C67 1.439 . S
C68 C93 1.395 . S
N69 Co58 1.995 . S
N69 C70 1.376 . S
N69 C73 1.383 . S
C70 N69 1.376 . S
C70 C71 1.446 . S
C70 C93 1.391 . S
C71 C70 1.446 . S
C71 C72 1.339 . S
C71 H100 0.949 . S
C72 C71 1.339 . S
C72 C73 1.439 . S
C72 H101 0.950 . S
C73 N69 1.383 . S
C73 C72 1.439 . S
C73 C91 1.392 . S
N74 Co58 2.282 . S
N74 C77 1.332 . S
N74 C79 1.332 . S
C75 C76 1.386 . S
C75 C78 1.388 . S
C76 C75 1.386 . S
C76 C77 1.382 . S
C76 H102 0.950 . S
C77 N74 1.332 . S
C77 C76 1.382 . S
C77 H88 0.952 . S
C78 C75 1.388 . S
C78 C79 1.382 . S
C78 H103 0.950 . S
C79 N74 1.332 . S
C79 C78 1.382 . S
C79 H89 0.948 . S
N80 Co58 2.282 1_655 S
N80 C84 1.332 . S
N80 C85 1.332 . S
C81 C82 1.388 . S
C81 C85 1.382 . S
C81 H104 0.950 . S
C82 C81 1.388 . S
C82 C83 1.386 . S
C83 C82 1.386 . S
C83 C84 1.382 . S
C83 H105 0.950 . S
C84 N80 1.332 . S
C84 C83 1.382 . S
C84 H86 0.952 . S
C85 N80 1.332 . S
C85 C81 1.382 . S
C85 H87 0.948 1_655 S
H86 C84 0.952 . S
H87 C85 0.948 1_455 S
H88 C77 0.952 . S
H89 C79 0.948 . S
C90 C56 1.395 . S
C90 C60 1.391 . S
C91 C53 1.389 . S
C91 C73 1.392 . S
C92 C63 1.392 . S
C92 C65 1.389 . S
C93 C68 1.395 . S
C93 C70 1.391 . S
H94 C54 0.951 . S
H95 C55 0.950 . S
H96 C61 0.949 . S
H97 C62 0.950 . S
H98 C66 0.951 . S
H99 C67 0.950 . S
H100 C71 0.949 . S
H101 C72 0.950 . S
H102 C76 0.950 . S
H103 C78 0.950 . S
H104 C81 0.950 . S
H105 C83 0.950 . S
C106 C107 1.443 . S
C106 N110 1.376 1_565 S
C106 C144 1.389 . S
C107 C106 1.443 . S
C107 C108 1.335 1_565 S
C107 H147 0.951 . S
C108 C107 1.335 1_545 S
C108 C109 1.445 . S
C108 H148 0.950 . S
C109 C108 1.445 . S
C109 N110 1.374 . S
C109 C143 1.395 . S
N110 C106 1.376 1_545 S
N110 C109 1.374 . S
N110 Co111 2.008 . S
Co111 N110 2.008 . S
Co111 N112 1.995 . S
Co111 N117 2.008 . S
Co111 N122 1.995 . S
Co111 N127 2.282 1_545 S
Co111 N133 2.282 . S
N112 Co111 1.995 . S
N112 C113 1.376 . S
N112 C116 1.383 . S
C113 N112 1.376 . S
C113 C114 1.446 . S
C113 C143 1.391 . S
C114 C113 1.446 . S
C114 C115 1.339 . S
C114 H149 0.949 . S
C115 C114 1.339 . S
C115 C116 1.439 . S
C115 H150 0.950 . S
C116 N112 1.383 . S
C116 C115 1.439 . S
C116 C145 1.392 . S
N117 Co111 2.008 . S
N117 C118 1.376 . S
N117 C121 1.374 . S
C118 N117 1.376 . S
C118 C119 1.443 . S
C118 C145 1.389 . S
C119 C118 1.443 . S
C119 C120 1.340 . S
C119 H151 0.951 . S
C120 C119 1.340 . S
C120 C121 1.439 . S
C120 H152 0.950 . S
C121 N117 1.374 . S
C121 C120 1.439 . S
C121 C146 1.395 . S
N122 Co111 1.995 . S
N122 C123 1.377 1_545 S
N122 C126 1.383 1_545 S
C123 N122 1.377 1_565 S
C123 C124 1.454 . S
C123 C146 1.383 1_565 S
C124 C123 1.454 . S
C124 C125 1.339 . S
C124 H153 0.949 . S
C125 C124 1.339 . S
C125 C126 1.439 . S
C125 H154 0.950 . S
C126 N122 1.383 1_565 S
C126 C125 1.439 . S
C126 C144 1.392 . S
N127 Co111 2.282 1_565 S
N127 C130 1.332 . S
N127 C132 1.332 . S
C128 C129 1.386 . S
C128 C131 1.388 . S
C129 C128 1.386 . S
C129 C130 1.382 . S
C129 H155 0.950 . S
C130 N127 1.332 . S
C130 C129 1.382 . S
C130 H141 0.952 . S
C131 C128 1.388 . S
C131 C132 1.382 . S
C131 H156 0.950 . S
C132 N127 1.332 . S
C132 C131 1.382 . S
C132 H142 0.948 . S
N133 Co111 2.282 . S
N133 C137 1.332 . S
N133 C138 1.332 . S
C134 C135 1.388 . S
C134 C138 1.382 . S
C134 H157 0.950 . S
C135 C134 1.388 . S
C135 C136 1.386 . S
C136 C135 1.386 . S
C136 C137 1.382 . S
C136 H158 0.950 . S
C137 N133 1.332 . S
C137 C136 1.382 . S
C137 H139 0.952 . S
C138 N133 1.332 . S
C138 C134 1.382 . S
C138 H140 0.948 . S
H139 C137 0.952 . S
H140 C138 0.948 . S
H141 C130 0.952 . S
H142 C132 0.948 . S
C143 C109 1.395 . S
C143 C113 1.391 . S
C144 C106 1.389 . S
C144 C126 1.392 . S
C145 C116 1.392 . S
C145 C118 1.389 . S
C146 C121 1.395 . S
C146 C123 1.383 1_545 S
H147 C107 0.951 . S
H148 C108 0.950 . S
H149 C114 0.949 . S
H150 C115 0.950 . S
H151 C119 0.951 . S
H152 C120 0.950 . S
H153 C124 0.949 . S
H154 C125 0.950 . S
H155 C129 0.950 . S
H156 C131 0.950 . S
H157 C134 0.950 . S
H158 C136 0.950 . S
C159 C160 1.443 . S
C159 N163 1.376 . S
C159 C197 1.389 . S
C160 C159 1.443 . S
C160 C161 1.340 . S
C160 H200 0.951 . S
C161 C160 1.340 . S
C161 C162 1.439 . S
C161 H201 0.950 . S
C162 C161 1.439 . S
C162 N163 1.374 . S
C162 C196 1.395 1_655 S
N163 C159 1.376 . S
N163 C162 1.374 . S
N163 Co164 1.998 1_655 S
Co164 N163 1.998 1_455 S
Co164 N165 2.008 . S
Co164 N170 2.018 . S
Co164 N175 1.982 1_455 S
Co164 N180 2.264 1_455 S
Co164 N186 2.301 . S
N165 Co164 2.008 . S
N165 C166 1.376 . S
N165 C169 1.383 . S
C166 N165 1.376 . S
C166 C167 1.446 . S
C166 C196 1.391 . S
C167 C166 1.446 . S
C167 C168 1.339 . S
C167 H202 0.949 . S
C168 C167 1.339 . S
C168 C169 1.439 . S
C168 H203 0.950 . S
C169 N165 1.383 . S
C169 C168 1.439 . S
C169 C198 1.392 . S
N170 Co164 2.018 . S
N170 C171 1.376 . S
N170 C174 1.374 . S
C171 N170 1.376 . S
C171 C172 1.443 . S
C171 C198 1.389 . S
C172 C171 1.443 . S
C172 C173 1.340 . S
C172 H204 0.951 . S
C173 C172 1.340 . S
C173 C174 1.439 . S
C173 H205 0.950 . S
C174 N170 1.374 . S
C174 C173 1.439 . S
C174 C199 1.395 1_455 S
N175 Co164 1.982 1_655 S
N175 C176 1.376 . S
N175 C179 1.383 . S
C176 N175 1.376 . S
C176 C177 1.446 . S
C176 C199 1.391 . S
C177 C176 1.446 . S
C177 C178 1.339 . S
C177 H206 0.949 . S
C178 C177 1.339 . S
C178 C179 1.439 . S
C178 H207 0.950 . S
C179 N175 1.383 . S
C179 C178 1.439 . S
C179 C197 1.392 . S
N180 Co164 2.264 1_655 S
N180 C183 1.332 . S
N180 C185 1.332 . S
C181 C182 1.386 . S
C181 C184 1.388 . S
C182 C181 1.386 . S
C182 C183 1.382 . S
C182 H208 0.950 . S
C183 N180 1.332 . S
C183 C182 1.382 . S
C183 H194 0.952 . S
C184 C181 1.388 . S
C184 C185 1.382 . S
C184 H209 0.950 . S
C185 N180 1.332 . S
C185 C184 1.382 . S
C185 H195 0.948 . S
N186 Co164 2.301 . S
N186 C190 1.332 . S
N186 C191 1.332 . S
C187 C188 1.388 . S
C187 C191 1.382 . S
C187 H210 0.950 . S
C188 C187 1.388 . S
C188 C189 1.386 . S
C189 C188 1.386 . S
C189 C190 1.382 . S
C189 H211 0.950 . S
C190 N186 1.332 . S
C190 C189 1.382 . S
C190 H192 0.952 . S
C191 N186 1.332 . S
C191 C187 1.382 . S
C191 H193 0.948 . S
H192 C190 0.952 . S
H193 C191 0.948 . S
H194 C183 0.952 . S
H195 C185 0.948 . S
C196 C162 1.395 1_455 S
C196 C166 1.391 . S
C197 C159 1.389 . S
C197 C179 1.392 . S
C198 C169 1.392 . S
C198 C171 1.389 . S
C199 C174 1.395 1_655 S
C199 C176 1.391 . S
H200 C160 0.951 . S
H201 C161 0.950 . S
H202 C167 0.949 . S
H203 C168 0.950 . S
H204 C172 0.951 . S
H205 C173 0.950 . S
H206 C177 0.949 . S
H207 C178 0.950 . S
H208 C182 0.950 . S
H209 C184 0.950 . S
H210 C187 0.950 . S
H211 C189 0.950 . S
C212 C213 1.443 . S
C212 N216 1.376 . S
C212 C250 1.389 . S
C213 C212 1.443 . S
C213 C214 1.340 . S
C213 H253 0.951 . S
C214 C213 1.340 . S
C214 C215 1.439 . S
C214 H254 0.950 . S
C215 C214 1.439 . S
C215 N216 1.374 . S
C215 C249 1.395 1_565 S
N216 C212 1.376 . S
N216 C215 1.374 . S
N216 Co217 2.008 1_565 S
Co217 N216 2.008 1_545 S
Co217 N218 1.995 . S
Co217 N223 2.008 . S
Co217 N228 1.995 1_545 S
Co217 N233 2.282 1_545 S
Co217 N239 2.282 . S
N218 Co217 1.995 . S
N218 C219 1.376 . S
N218 C222 1.383 . S
C219 N218 1.376 . S
C219 C220 1.446 . S
C219 C249 1.391 . S
C220 C219 1.446 . S
C220 C221 1.339 . S
C220 H255 0.949 . S
C221 C220 1.339 . S
C221 C222 1.439 . S
C221 H256 0.950 . S
C222 N218 1.383 . S
C222 C221 1.439 . S
C222 C251 1.392 . S
N223 Co217 2.008 . S
N223 C224 1.376 . S
N223 C227 1.374 . S
C224 N223 1.376 . S
C224 C225 1.443 . S
C224 C251 1.389 . S
C225 C224 1.443 . S
C225 C226 1.340 . S
C225 H257 0.951 . S
C226 C225 1.340 . S
C226 C227 1.439 . S
C226 H258 0.950 . S
C227 N223 1.374 . S
C227 C226 1.439 . S
C227 C252 1.417 . S
N228 Co217 1.995 1_565 S
N228 C229 1.376 . S
N228 C232 1.383 . S
C229 N228 1.376 . S
C229 C230 1.446 . S
C229 C252 1.374 1_565 S
C230 C229 1.446 . S
C230 C231 1.339 . S
C230 H259 0.949 . S
C231 C230 1.339 . S
C231 C232 1.439 . S
C231 H260 0.950 . S
C232 N228 1.383 . S
C232 C231 1.439 . S
C232 C250 1.392 . S
N233 Co217 2.282 1_565 S
N233 C236 1.332 . S
N233 C238 1.332 . S
C234 C235 1.386 . S
C234 C237 1.388 . S
C235 C234 1.386 . S
C235 C236 1.382 . S
C235 H261 0.950 . S
C236 N233 1.332 . S
C236 C235 1.382 . S
C236 H247 0.952 . S
C237 C234 1.388 . S
C237 C238 1.382 . S
C237 H262 0.950 . S
C238 N233 1.332 . S
C238 C237 1.382 . S
C238 H248 0.948 . S
N239 Co217 2.282 . S
N239 C243 1.332 . S
N239 C244 1.332 . S
C240 C241 1.388 . S
C240 C244 1.382 . S
C240 H263 0.950 . S
C241 C240 1.388 . S
C241 C242 1.386 . S
C242 C241 1.386 . S
C242 C243 1.382 . S
C242 H264 0.950 . S
C243 N239 1.332 . S
C243 C242 1.382 . S
C243 H245 0.952 . S
C244 N239 1.332 . S
C244 C240 1.382 . S
C244 H246 0.948 . S
H245 C243 0.952 . S
H246 C244 0.948 . S
H247 C236 0.952 . S
H248 C238 0.948 . S
C249 C215 1.395 1_545 S
C249 C219 1.391 . S
C250 C212 1.389 . S
C250 C232 1.392 . S
C251 C222 1.392 . S
C251 C224 1.389 . S
C252 C227 1.417 . S
C252 C229 1.374 1_545 S
H253 C213 0.951 . S
H254 C214 0.950 . S
H255 C220 0.949 . S
H256 C221 0.950 . S
H257 C225 0.951 . S
H258 C226 0.950 . S
H259 C230 0.949 . S
H260 C231 0.950 . S
H261 C235 0.950 . S
H262 C237 0.950 . S
H263 C240 0.950 . S
H264 C242 0.950 . S
C265 C266 1.443 . S
C265 N269 1.376 1_655 S
C265 C303 1.389 . S
C266 C265 1.443 . S
C266 C267 1.340 1_655 S
C266 H306 0.951 . S
C267 C266 1.340 1_455 S
C267 C268 1.439 . S
C267 H307 0.950 . S
C268 C267 1.439 . S
C268 N269 1.374 . S
C268 C302 1.395 . S
N269 C265 1.376 1_455 S
N269 C268 1.374 . S
N269 Co270 2.008 . S
Co270 N269 2.008 . S
Co270 N271 1.995 . S
Co270 N276 2.008 . S
Co270 N281 1.995 . S
Co270 N286 2.282 1_455 S
Co270 N292 2.282 . S
N271 Co270 1.995 . S
N271 C272 1.376 . S
N271 C275 1.383 . S
C272 N271 1.376 . S
C272 C273 1.446 . S
C272 C302 1.391 . S
C273 C272 1.446 . S
C273 C274 1.339 . S
C273 H308 0.949 . S
C274 C273 1.339 . S
C274 C275 1.439 . S
C274 H309 0.950 . S
C275 N271 1.383 . S
C275 C274 1.439 . S
C275 C304 1.392 . S
N276 Co270 2.008 . S
N276 C277 1.376 . S
N276 C280 1.374 . S
C277 N276 1.376 . S
C277 C278 1.443 . S
C277 C304 1.389 . S
C278 C277 1.443 . S
C278 C279 1.340 . S
C278 H310 0.951 . S
C279 C278 1.340 . S
C279 C280 1.439 . S
C279 H311 0.950 . S
C280 N276 1.374 . S
C280 C279 1.439 . S
C280 C305 1.395 . S
N281 Co270 1.995 . S
N281 C282 1.376 . S
N281 C285 1.383 1_455 S
C282 N281 1.376 . S
C282 C283 1.446 1_455 S
C282 C305 1.391 . S
C283 C282 1.446 1_655 S
C283 C284 1.339 . S
C283 H312 0.949 . S
C284 C283 1.339 . S
C284 C285 1.439 . S
C284 H313 0.950 . S
C285 N281 1.383 1_655 S
C285 C284 1.439 . S
C285 C303 1.392 . S
N286 Co270 2.282 1_655 S
N286 C289 1.332 . S
N286 C291 1.332 . S
C287 C288 1.386 . S
C287 C290 1.388 . S
C288 C287 1.386 . S
C288 C289 1.382 . S
C288 H314 0.950 . S
C289 N286 1.332 . S
C289 C288 1.382 . S
C289 H300 0.952 . S
C290 C287 1.388 . S
C290 C291 1.382 . S
C290 H315 0.950 . S
C291 N286 1.332 . S
C291 C290 1.382 . S
C291 H301 0.948 1_655 S
N292 Co270 2.282 . S
N292 C296 1.332 . S
N292 C297 1.332 . S
C293 C294 1.388 . S
C293 C297 1.382 . S
C293 H316 0.950 . S
C294 C293 1.388 . S
C294 C295 1.386 . S
C295 C294 1.386 . S
C295 C296 1.382 . S
C295 H317 0.950 . S
C296 N292 1.332 . S
C296 C295 1.382 . S
C296 H298 0.952 . S
C297 N292 1.332 . S
C297 C293 1.382 . S
C297 H299 0.948 . S
H298 C296 0.952 . S
H299 C297 0.948 . S
H300 C289 0.952 . S
H301 C291 0.948 1_455 S
C302 C268 1.395 . S
C302 C272 1.391 . S
C303 C265 1.389 . S
C303 C285 1.392 . S
C304 C275 1.392 . S
C304 C277 1.389 . S
C305 C280 1.395 . S
C305 C282 1.391 . S
H306 C266 0.951 . S
H307 C267 0.950 . S
H308 C273 0.949 . S
H309 C274 0.950 . S
H310 C278 0.951 . S
H311 C279 0.950 . S
H312 C283 0.949 . S
H313 C284 0.950 . S
H314 C288 0.950 . S
H315 C290 0.950 . S
H316 C293 0.950 . S
H317 C295 0.950 . S
C318 C319 1.443 . S
C318 N322 1.376 . S
C318 C356 1.389 . S
C319 C318 1.443 . S
C319 C320 1.340 . S
C319 H359 0.951 . S
C320 C319 1.340 . S
C320 C321 1.439 . S
C320 H360 0.950 . S
C321 C320 1.439 . S
C321 N322 1.374 . S
C321 C355 1.410 . S
N322 C318 1.376 . S
N322 C321 1.374 . S
N322 Co323 2.008 . S
Co323 N322 2.008 . S
Co323 N324 1.995 1_545 S
Co323 N329 2.008 1_545 S
Co323 N334 1.995 . S
Co323 N339 2.282 . S
Co323 N345 2.282 1_545 S
N324 Co323 1.995 1_565 S
N324 C325 1.376 . S
N324 C328 1.383 . S
C325 N324 1.376 . S
C325 C326 1.446 . S
C325 C355 1.379 1_565 S
C326 C325 1.446 . S
C326 C327 1.339 . S
C326 H361 0.949 . S
C327 C326 1.339 . S
C327 C328 1.439 . S
C327 H362 0.950 . S
C328 N324 1.383 . S
C328 C327 1.439 . S
C328 C357 1.392 . S
N329 Co323 2.008 1_565 S
N329 C330 1.376 . S
N329 C333 1.374 . S
C330 N329 1.376 . S
C330 C331 1.443 . S
C330 C357 1.389 . S
C331 C330 1.443 . S
C331 C332 1.340 . S
C331 H363 0.951 . S
C332 C331 1.340 . S
C332 C333 1.439 . S
C332 H364 0.950 . S
C333 N329 1.374 . S
C333 C332 1.439 . S
C333 C358 1.395 1_565 S
N334 Co323 1.995 . S
N334 C335 1.376 . S
N334 C338 1.383 . S
C335 N334 1.376 . S
C335 C336 1.446 . S
C335 C358 1.391 . S
C336 C335 1.446 . S
C336 C337 1.339 . S
C336 H365 0.949 . S
C337 C336 1.339 . S
C337 C338 1.439 . S
C337 H366 0.950 . S
C338 N334 1.383 . S
C338 C337 1.439 . S
C338 C356 1.392 . S
N339 Co323 2.282 . S
N339 C342 1.332 . S
N339 C344 1.332 . S
C340 C341 1.386 . S
C340 C343 1.388 . S
C341 C340 1.386 . S
C341 C342 1.382 . S
C341 H367 0.950 . S
C342 N339 1.332 . S
C342 C341 1.382 . S
C342 H353 0.952 . S
C343 C340 1.388 . S
C343 C344 1.382 . S
C343 H368 0.950 . S
C344 N339 1.332 . S
C344 C343 1.382 . S
C344 H354 0.948 . S
N345 Co323 2.282 1_565 S
N345 C349 1.332 . S
N345 C350 1.332 . S
C346 C347 1.388 . S
C346 C350 1.382 . S
C346 H369 0.950 . S
C347 C346 1.388 . S
C347 C348 1.386 . S
C348 C347 1.386 . S
C348 C349 1.382 . S
C348 H370 0.950 . S
C349 N345 1.332 . S
C349 C348 1.382 . S
C349 H351 0.952 . S
C350 N345 1.332 . S
C350 C346 1.382 . S
C350 H352 0.948 . S
H351 C349 0.952 . S
H352 C350 0.948 . S
H353 C342 0.952 . S
H354 C344 0.948 . S
C355 C321 1.410 . S
C355 C325 1.379 1_545 S
C356 C318 1.389 . S
C356 C338 1.392 . S
C357 C328 1.392 . S
C357 C330 1.389 . S
C358 C333 1.395 1_545 S
C358 C335 1.391 . S
H359 C319 0.951 . S
H360 C320 0.950 . S
H361 C326 0.949 . S
H362 C327 0.950 . S
H363 C331 0.951 . S
H364 C332 0.950 . S
H365 C336 0.949 . S
H366 C337 0.950 . S
H367 C341 0.950 . S
H368 C343 0.950 . S
H369 C346 0.950 . S
H370 C348 0.950 . S
C371 C372 1.443 . S
C371 N375 1.376 1_655 S
C371 C409 1.389 . S
C372 C371 1.443 . S
C372 C373 1.340 . S
C372 H412 0.951 . S
C373 C372 1.340 . S
C373 C374 1.439 1_655 S
C373 H413 0.950 . S
C374 C373 1.439 1_455 S
C374 N375 1.374 . S
C374 C408 1.395 . S
N375 C371 1.376 1_455 S
N375 C374 1.374 . S
N375 Co376 2.008 . S
Co376 N375 2.008 . S
Co376 N377 1.995 . S
Co376 N382 2.008 . S
Co376 N387 1.995 . S
Co376 N392 2.282 1_455 S
Co376 N398 2.282 . S
N377 Co376 1.995 . S
N377 C378 1.376 . S
N377 C381 1.383 . S
C378 N377 1.376 . S
C378 C379 1.446 . S
C378 C408 1.391 . S
C379 C378 1.446 . S
C379 C380 1.339 . S
C379 H414 0.949 . S
C380 C379 1.339 . S
C380 C381 1.439 . S
C380 H415 0.950 . S
C381 N377 1.383 . S
C381 C380 1.439 . S
C381 C410 1.392 . S
N382 Co376 2.008 . S
N382 C383 1.376 . S
N382 C386 1.374 . S
C383 N382 1.376 . S
C383 C384 1.443 . S
C383 C410 1.389 . S
C384 C383 1.443 . S
C384 C385 1.340 . S
C384 H416 0.951 . S
C385 C384 1.340 . S
C385 C386 1.439 . S
C385 H417 0.950 . S
C386 N382 1.374 . S
C386 C385 1.439 . S
C386 C411 1.395 . S
N387 Co376 1.995 . S
N387 C388 1.376 . S
N387 C391 1.383 1_455 S
C388 N387 1.376 . S
C388 C389 1.446 1_455 S
C388 C411 1.391 . S
C389 C388 1.446 1_655 S
C389 C390 1.339 . S
C389 H418 0.949 . S
C390 C389 1.339 . S
C390 C391 1.439 . S
C390 H419 0.950 . S
C391 N387 1.383 1_655 S
C391 C390 1.439 . S
C391 C409 1.392 . S
N392 Co376 2.282 1_655 S
N392 C395 1.332 . S
N392 C397 1.332 . S
C393 C394 1.386 . S
C393 C396 1.388 . S
C394 C393 1.386 . S
C394 C395 1.382 . S
C394 H420 0.950 . S
C395 N392 1.332 . S
C395 C394 1.382 . S
C395 H406 0.952 . S
C396 C393 1.388 . S
C396 C397 1.382 . S
C396 H421 0.950 . S
C397 N392 1.332 . S
C397 C396 1.382 . S
C397 H407 0.964 . S
N398 Co376 2.282 . S
N398 C402 1.332 . S
N398 C403 1.332 . S
C399 C400 1.388 . S
C399 C403 1.382 . S
C399 H422 0.950 . S
C400 C399 1.388 . S
C400 C401 1.386 . S
C401 C400 1.386 . S
C401 C402 1.382 . S
C401 H423 0.950 . S
C402 N398 1.332 . S
C402 C401 1.382 . S
C402 H404 0.952 . S
C403 N398 1.332 . S
C403 C399 1.382 . S
C403 H405 0.948 . S
H404 C402 0.952 . S
H405 C403 0.948 . S
H406 C395 0.952 . S
H407 C397 0.964 . S
C408 C374 1.395 . S
C408 C378 1.391 . S
C409 C371 1.389 . S
C409 C391 1.392 . S
C410 C381 1.392 . S
C410 C383 1.389 . S
C411 C386 1.395 . S
C411 C388 1.391 . S
H412 C372 0.951 . S
H413 C373 0.950 . S
H414 C379 0.949 . S
H415 C380 0.950 . S
H416 C384 0.951 . S
H417 C385 0.950 . S
H418 C389 0.949 . S
H419 C390 0.950 . S
H420 C394 0.950 . S
H421 C396 0.950 . S
H422 C399 0.950 . S
H423 C401 0.950 . S
C424 C425 1.443 . S
C424 N428 1.376 . S
C424 C462 1.389 . S
C425 C424 1.443 . S
C425 C426 1.340 . S
C425 H465 0.951 . S
C426 C425 1.340 . S
C426 C427 1.439 . S
C426 H466 0.950 . S
C427 C426 1.439 . S
C427 N428 1.374 . S
C427 C461 1.395 1_554 S
N428 C424 1.376 . S
N428 C427 1.374 . S
N428 Co429 2.008 . S
Co429 N428 2.008 . S
Co429 N430 1.995 1_554 S
Co429 N435 2.008 1_554 S
Co429 N440 1.995 . S
Co429 N445 2.282 . S
Co429 N451 2.282 1_554 S
N430 Co429 1.995 1_556 S
N430 C431 1.376 . S
N430 C434 1.383 . S
C431 N430 1.376 . S
C431 C432 1.446 . S
C431 C461 1.391 . S
C432 C431 1.446 . S
C432 C433 1.339 . S
C432 H467 0.949 . S
C433 C432 1.339 . S
C433 C434 1.439 . S
C433 H468 0.950 . S
C434 N430 1.383 . S
C434 C433 1.439 . S
C434 C463 1.392 . S
N435 Co429 2.008 1_556 S
N435 C436 1.376 . S
N435 C439 1.381 . S
C436 N435 1.376 . S
C436 C437 1.443 . S
C436 C463 1.389 . S
C437 C436 1.443 . S
C437 C438 1.340 . S
C437 H469 0.951 . S
C438 C437 1.340 . S
C438 C439 1.453 . S
C438 H470 0.950 . S
C439 N435 1.381 . S
C439 C438 1.453 . S
C439 C464 1.375 1_556 S
N440 Co429 1.995 . S
N440 C441 1.376 . S
N440 C444 1.383 . S
C441 N440 1.376 . S
C441 C442 1.446 . S
C441 C464 1.391 . S
C442 C441 1.446 . S
C442 C443 1.339 . S
C442 H471 0.949 . S
C443 C442 1.339 . S
C443 C444 1.439 . S
C443 H472 0.950 . S
C444 N440 1.383 . S
C444 C443 1.439 . S
C444 C462 1.392 . S
N445 Co429 2.282 . S
N445 C448 1.332 . S
N445 C450 1.332 . S
C446 C447 1.386 . S
C446 C449 1.388 . S
C447 C446 1.386 . S
C447 C448 1.382 . S
C447 H473 0.950 . S
C448 N445 1.332 . S
C448 C447 1.382 . S
C448 H459 0.952 . S
C449 C446 1.388 . S
C449 C450 1.382 . S
C449 H474 0.950 . S
C450 N445 1.332 . S
C450 C449 1.382 . S
C450 H460 0.948 . S
N451 Co429 2.282 1_556 S
N451 C455 1.332 . S
N451 C456 1.332 . S
C452 C453 1.388 . S
C452 C456 1.382 . S
C452 H475 0.950 . S
C453 C452 1.388 . S
C453 C454 1.386 . S
C454 C453 1.386 . S
C454 C455 1.382 . S
C454 H476 0.950 . S
C455 N451 1.332 . S
C455 C454 1.382 . S
C455 H457 0.952 . S
C456 N451 1.332 . S
C456 C452 1.382 . S
C456 H458 0.948 . S
H457 C455 0.952 . S
H458 C456 0.948 . S
H459 C448 0.952 . S
H460 C450 0.948 . S
C461 C427 1.395 1_556 S
C461 C431 1.391 . S
C462 C424 1.389 . S
C462 C444 1.392 . S
C463 C434 1.392 . S
C463 C436 1.389 . S
C464 C439 1.375 1_554 S
C464 C441 1.391 . S
H465 C425 0.951 . S
H466 C426 0.950 . S
H467 C432 0.949 . S
H468 C433 0.950 . S
H469 C437 0.951 . S
H470 C438 0.950 . S
H471 C442 0.949 . S
H472 C443 0.950 . S
H473 C447 0.950 . S
H474 C449 0.950 . S
H475 C452 0.950 . S
H476 C454 0.950 . S
C477 C478 1.443 . S
C477 N481 1.376 . S
C477 C515 1.389 . S
C478 C477 1.443 . S
C478 C479 1.340 . S
C478 H518 0.951 . S
C479 C478 1.340 . S
C479 C480 1.439 . S
C479 H519 0.950 . S
C480 C479 1.439 . S
C480 N481 1.374 . S
C480 C514 1.395 . S
N481 C477 1.376 . S
N481 C480 1.374 . S
N481 Co482 2.008 . S
Co482 N481 2.008 . S
Co482 N483 1.995 . S
Co482 N488 2.008 . S
Co482 N493 1.995 . S
Co482 N498 2.282 . S
Co482 N504 2.282 1_554 S
N483 Co482 1.995 . S
N483 C484 1.376 . S
N483 C487 1.383 1_554 S
C484 N483 1.376 . S
C484 C485 1.446 1_554 S
C484 C514 1.391 . S
C485 C484 1.446 1_556 S
C485 C486 1.339 . S
C485 H520 0.949 . S
C486 C485 1.339 . S
C486 C487 1.439 . S
C486 H521 0.950 . S
C487 N483 1.383 1_556 S
C487 C486 1.439 . S
C487 C516 1.392 . S
N488 Co482 2.008 . S
N488 C489 1.376 1_554 S
N488 C492 1.374 . S
C489 N488 1.376 1_556 S
C489 C490 1.443 . S
C489 C516 1.389 . S
C490 C489 1.443 . S
C490 C491 1.340 . S
C490 H522 0.951 . S
C491 C490 1.340 . S
C491 C492 1.439 1_556 S
C491 H523 0.950 . S
C492 N488 1.374 . S
C492 C491 1.439 1_554 S
C492 C517 1.395 . S
N493 Co482 1.995 . S
N493 C494 1.376 . S
N493 C497 1.383 . S
C494 N493 1.376 . S
C494 C495 1.446 . S
C494 C517 1.391 . S
C495 C494 1.446 . S
C495 C496 1.339 . S
C495 H524 0.949 . S
C496 C495 1.339 . S
C496 C497 1.439 . S
C496 H525 0.950 . S
C497 N493 1.383 . S
C497 C496 1.439 . S
C497 C515 1.392 . S
N498 Co482 2.282 . S
N498 C501 1.332 . S
N498 C503 1.332 . S
C499 C500 1.386 . S
C499 C502 1.388 . S
C500 C499 1.386 . S
C500 C501 1.382 . S
C500 H526 0.950 . S
C501 N498 1.332 . S
C501 C500 1.382 . S
C501 H512 0.952 . S
C502 C499 1.388 . S
C502 C503 1.382 . S
C502 H527 0.950 . S
C503 N498 1.332 . S
C503 C502 1.382 . S
C503 H513 0.948 . S
N504 Co482 2.282 1_556 S
N504 C508 1.332 . S
N504 C509 1.332 . S
C505 C506 1.388 . S
C505 C509 1.382 . S
C505 H528 0.950 . S
C506 C505 1.388 . S
C506 C507 1.386 . S
C507 C506 1.386 . S
C507 C508 1.382 . S
C507 H529 0.950 . S
C508 N504 1.332 . S
C508 C507 1.382 . S
C508 H510 0.952 . S
C509 N504 1.332 . S
C509 C505 1.382 . S
C509 H511 0.948 . S
H510 C508 0.952 . S
H511 C509 0.948 . S
H512 C501 0.952 . S
H513 C503 0.948 . S
C514 C480 1.395 . S
C514 C484 1.391 . S
C515 C477 1.389 . S
C515 C497 1.392 . S
C516 C487 1.392 . S
C516 C489 1.389 . S
C517 C492 1.395 . S
C517 C494 1.391 . S
H518 C478 0.951 . S
H519 C479 0.950 . S
H520 C485 0.949 . S
H521 C486 0.950 . S
H522 C490 0.951 . S
H523 C491 0.950 . S
H524 C495 0.949 . S
H525 C496 0.950 . S
H526 C500 0.950 . S
H527 C502 0.950 . S
H528 C505 0.950 . S
H529 C507 0.950 . S
C530 C531 1.443 . S
C530 N534 1.376 . S
C530 C568 1.389 . S
C531 C530 1.443 . S
C531 C532 1.340 . S
C531 H571 0.951 . S
C532 C531 1.340 . S
C532 C533 1.439 . S
C532 H572 0.950 . S
C533 C532 1.439 . S
C533 N534 1.374 . S
C533 C567 1.395 . S
N534 C530 1.376 . S
N534 C533 1.374 . S
N534 Co535 2.008 . S
Co535 N534 2.008 . S
Co535 N536 1.995 . S
Co535 N541 2.008 . S
Co535 N546 1.995 . S
Co535 N551 2.282 . S
Co535 N557 2.282 . S
N536 Co535 1.995 . S
N536 C537 1.376 . S
N536 C540 1.383 1_554 S
C537 N536 1.376 . S
C537 C538 1.446 1_554 S
C537 C567 1.391 . S
C538 C537 1.446 1_556 S
C538 C539 1.339 . S
C538 H573 0.949 . S
C539 C538 1.339 . S
C539 C540 1.439 . S
C539 H574 0.950 . S
C540 N536 1.383 1_556 S
C540 C539 1.439 . S
C540 C569 1.392 . S
N541 Co535 2.008 . S
N541 C542 1.376 . S
N541 C545 1.374 . S
C542 N541 1.376 . S
C542 C543 1.443 . S
C542 C569 1.389 1_554 S
C543 C542 1.443 . S
C543 C544 1.340 . S
C543 H575 0.933 1_554 S
C544 C543 1.340 . S
C544 C545 1.439 . S
C544 H576 0.950 . S
C545 N541 1.374 . S
C545 C544 1.439 . S
C545 C570 1.395 . S
N546 Co535 1.995 . S
N546 C547 1.376 . S
N546 C550 1.383 . S
C547 N546 1.376 . S
C547 C548 1.446 . S
C547 C570 1.391 . S
C548 C547 1.446 . S
C548 C549 1.339 . S
C548 H577 0.949 . S
C549 C548 1.339 . S
C549 C550 1.439 . S
C549 H578 0.950 . S
C550 N546 1.383 . S
C550 C549 1.439 . S
C550 C568 1.392 . S
N551 Co535 2.282 . S
N551 C554 1.332 . S
N551 C556 1.332 . S
C552 C553 1.386 . S
C552 C555 1.388 . S
C553 C552 1.386 . S
C553 C554 1.382 . S
C553 H579 0.950 . S
C554 N551 1.332 . S
C554 C553 1.382 . S
C554 H565 0.952 . S
C555 C552 1.388 . S
C555 C556 1.382 . S
C555 H580 0.950 . S
C556 N551 1.332 . S
C556 C555 1.382 . S
C556 H566 0.948 . S
N557 Co535 2.282 . S
N557 C561 1.332 1_554 S
N557 C562 1.332 . S
C558 C559 1.388 . S
C558 C562 1.382 1_556 S
C558 H581 0.950 . S
C559 C558 1.388 . S
C559 C560 1.386 . S
C560 C559 1.386 . S
C560 C561 1.382 . S
C560 H582 0.950 . S
C561 N557 1.332 1_556 S
C561 C560 1.382 . S
C561 H563 0.952 . S
C562 N557 1.332 . S
C562 C558 1.382 1_554 S
C562 H564 0.948 . S
H563 C561 0.952 . S
H564 C562 0.948 . S
H565 C554 0.952 . S
H566 C556 0.948 . S
C567 C533 1.395 . S
C567 C537 1.391 . S
C568 C530 1.389 . S
C568 C550 1.392 . S
C569 C540 1.392 . S
C569 C542 1.389 1_556 S
C570 C545 1.395 . S
C570 C547 1.391 . S
H571 C531 0.951 . S
H572 C532 0.950 . S
H573 C538 0.949 . S
H574 C539 0.950 . S
H575 C543 0.933 1_556 S
H576 C544 0.950 . S
H577 C548 0.949 . S
H578 C549 0.950 . S
H579 C553 0.950 . S
H580 C555 0.950 . S
H581 C558 0.950 . S
H582 C560 0.950 . S
C583 C584 1.443 . S
C583 N587 1.376 . S
C583 C621 1.389 1_554 S
C584 C583 1.443 . S
C584 C585 1.340 . S
C584 H624 0.951 1_554 S
C585 C584 1.340 . S
C585 C586 1.439 . S
C585 H625 0.950 . S
C586 C585 1.439 . S
C586 N587 1.374 . S
C586 C620 1.395 . S
N587 C583 1.376 . S
N587 C586 1.374 . S
N587 Co588 2.008 . S
Co588 N587 2.008 . S
Co588 N589 1.995 . S
Co588 N594 2.008 . S
Co588 N599 1.995 . S
Co588 N604 2.282 . S
Co588 N610 2.282 . S
N589 Co588 1.995 . S
N589 C590 1.376 . S
N589 C593 1.383 . S
C590 N589 1.376 . S
C590 C591 1.446 . S
C590 C620 1.391 . S
C591 C590 1.446 . S
C591 C592 1.339 . S
C591 H626 0.949 . S
C592 C591 1.339 . S
C592 C593 1.439 . S
C592 H627 0.950 . S
C593 N589 1.383 . S
C593 C592 1.439 . S
C593 C622 1.392 . S
N594 Co588 2.008 . S
N594 C595 1.376 . S
N594 C598 1.374 . S
C595 N594 1.376 . S
C595 C596 1.443 . S
C595 C622 1.389 . S
C596 C595 1.443 . S
C596 C597 1.340 . S
C596 H628 0.951 . S
C597 C596 1.340 . S
C597 C598 1.439 . S
C597 H629 0.950 . S
C598 N594 1.374 . S
C598 C597 1.439 . S
C598 C623 1.395 . S
N599 Co588 1.995 . S
N599 C600 1.376 . S
N599 C603 1.389 . S
C600 N599 1.376 . S
C600 C601 1.446 1_554 S
C600 C623 1.391 . S
C601 C600 1.446 1_556 S
C601 C602 1.339 . S
C601 H630 0.949 . S
C602 C601 1.339 . S
C602 C603 1.434 1_556 S
C602 H631 0.950 . S
C603 N599 1.389 . S
C603 C602 1.434 1_554 S
C603 C621 1.391 1_554 S
N604 Co588 2.282 . S
N604 C607 1.332 1_554 S
N604 C609 1.332 . S
C605 C606 1.386 . S
C605 C608 1.388 . S
C606 C605 1.386 . S
C606 C607 1.382 . S
C606 H632 0.950 . S
C607 N604 1.332 1_556 S
C607 C606 1.382 . S
C607 H618 0.952 . S
C608 C605 1.388 . S
C608 C609 1.382 1_556 S
C608 H633 0.950 . S
C609 N604 1.332 . S
C609 C608 1.382 1_554 S
C609 H619 0.948 . S
N610 Co588 2.282 . S
N610 C614 1.332 . S
N610 C615 1.332 . S
C611 C612 1.388 . S
C611 C615 1.382 . S
C611 H634 0.950 . S
C612 C611 1.388 . S
C612 C613 1.386 . S
C613 C612 1.386 . S
C613 C614 1.382 . S
C613 H635 0.950 . S
C614 N610 1.332 . S
C614 C613 1.382 . S
C614 H616 0.952 . S
C615 N610 1.332 . S
C615 C611 1.382 . S
C615 H617 0.948 . S
H616 C614 0.952 . S
H617 C615 0.948 . S
H618 C607 0.952 . S
H619 C609 0.948 . S
C620 C586 1.395 . S
C620 C590 1.391 . S
C621 C583 1.389 1_556 S
C621 C603 1.391 1_556 S
C622 C593 1.392 . S
C622 C595 1.389 . S
C623 C598 1.395 . S
C623 C600 1.391 . S
H624 C584 0.951 1_556 S
H625 C585 0.950 . S
H626 C591 0.949 . S
H627 C592 0.950 . S
H628 C596 0.951 . S
H629 C597 0.950 . S
H630 C601 0.949 . S
H631 C602 0.950 . S
H632 C606 0.950 . S
H633 C608 0.950 . S
H634 C611 0.950 . S
H635 C613 0.950 . S
C636 C637 1.443 . S
C636 N640 1.376 . S
C636 C674 1.389 . S
C637 C636 1.443 . S
C637 C638 1.340 . S
C637 H677 0.951 . S
C638 C637 1.340 . S
C638 C639 1.439 . S
C638 H678 0.950 . S
C639 C638 1.439 . S
C639 N640 1.374 . S
C639 C673 1.395 . S
N640 C636 1.376 . S
N640 C639 1.374 . S
N640 Co641 2.008 . S
Co641 N640 2.008 . S
Co641 N642 1.995 . S
Co641 N647 2.008 . S
Co641 N652 1.995 . S
Co641 N657 2.282 . S
Co641 N663 2.282 . S
N642 Co641 1.995 . S
N642 C643 1.376 . S
N642 C646 1.383 . S
C643 N642 1.376 . S
C643 C644 1.446 . S
C643 C673 1.391 . S
C644 C643 1.446 . S
C644 C645 1.339 . S
C644 H679 0.949 . S
C645 C644 1.339 . S
C645 C646 1.439 . S
C645 H680 0.950 . S
C646 N642 1.383 . S
C646 C645 1.439 . S
C646 C675 1.392 . S
N647 Co641 2.008 . S
N647 C648 1.376 . S
N647 C651 1.374 . S
C648 N647 1.376 . S
C648 C649 1.443 . S
C648 C675 1.389 . S
C649 C648 1.443 . S
C649 C650 1.340 . S
C649 H681 0.951 . S
C650 C649 1.340 . S
C650 C651 1.439 . S
C650 H682 0.950 . S
C651 N647 1.374 . S
C651 C650 1.439 . S
C651 C676 1.395 . S
N652 Co641 1.995 . S
N652 C653 1.376 . S
N652 C656 1.383 . S
C653 N652 1.376 . S
C653 C654 1.446 . S
C653 C676 1.391 . S
C654 C653 1.446 . S
C654 C655 1.339 . S
C654 H683 0.949 . S
C655 C654 1.339 . S
C655 C656 1.439 . S
C655 H684 0.950 . S
C656 N652 1.383 . S
C656 C655 1.439 . S
C656 C674 1.392 . S
N657 Co641 2.282 . S
N657 C660 1.332 . S
N657 C662 1.332 . S
C658 C659 1.386 . S
C658 C661 1.388 . S
C659 C658 1.386 . S
C659 C660 1.382 . S
C659 H685 0.950 . S
C660 N657 1.332 . S
C660 C659 1.382 . S
C660 H671 0.952 . S
C661 C658 1.388 . S
C661 C662 1.382 . S
C661 H686 0.950 . S
C662 N657 1.332 . S
C662 C661 1.382 . S
C662 H672 0.948 . S
N663 Co641 2.282 . S
N663 C667 1.332 . S
N663 C668 1.332 . S
C664 C665 1.388 . S
C664 C668 1.382 . S
C664 H687 0.950 . S
C665 C664 1.388 . S
C665 C666 1.386 . S
C666 C665 1.386 . S
C666 C667 1.382 . S
C666 H688 0.950 . S
C667 N663 1.332 . S
C667 C666 1.382 . S
C667 H669 0.952 . S
C668 N663 1.332 . S
C668 C664 1.382 . S
C668 H670 0.948 . S
H669 C667 0.952 . S
H670 C668 0.948 . S
H671 C660 0.952 . S
H672 C662 0.948 . S
C673 C639 1.395 . S
C673 C643 1.391 . S
C674 C636 1.389 . S
C674 C656 1.392 . S
C675 C646 1.392 . S
C675 C648 1.389 . S
C676 C651 1.395 . S
C676 C653 1.391 . S
H677 C637 0.951 . S
H678 C638 0.950 . S
H679 C644 0.949 . S
H680 C645 0.950 . S
H681 C649 0.951 . S
H682 C650 0.950 . S
H683 C654 0.949 . S
H684 C655 0.950 . S
H685 C659 0.950 . S
H686 C661 0.950 . S
H687 C664 0.950 . S
H688 C666 0.950 . S
C689 C690 1.443 . S
C689 N693 1.376 . S
C689 C727 1.389 . S
C690 C689 1.443 . S
C690 C691 1.340 . S
C690 H730 0.951 . S
C691 C690 1.340 . S
C691 C692 1.439 . S
C691 H731 0.950 . S
C692 C691 1.439 . S
C692 N693 1.374 . S
C692 C726 1.395 . S
N693 C689 1.376 . S
N693 C692 1.374 . S
N693 Co694 2.008 . S
Co694 N693 2.008 . S
Co694 N695 1.995 . S
Co694 N700 2.008 . S
Co694 N705 1.995 . S
Co694 N710 2.282 . S
Co694 N716 2.282 . S
N695 Co694 1.995 . S
N695 C696 1.376 . S
N695 C699 1.383 . S
C696 N695 1.376 . S
C696 C697 1.446 . S
C696 C726 1.391 . S
C697 C696 1.446 . S
C697 C698 1.339 . S
C697 H732 0.949 . S
C698 C697 1.339 . S
C698 C699 1.439 . S
C698 H733 0.950 . S
C699 N695 1.383 . S
C699 C698 1.439 . S
C699 C728 1.392 . S
N700 Co694 2.008 . S
N700 C701 1.376 . S
N700 C704 1.374 . S
C701 N700 1.376 . S
C701 C702 1.443 . S
C701 C728 1.389 . S
C702 C701 1.443 . S
C702 C703 1.340 . S
C702 H734 0.951 . S
C703 C702 1.340 . S
C703 C704 1.439 . S
C703 H735 0.950 . S
C704 N700 1.374 . S
C704 C703 1.439 . S
C704 C729 1.395 . S
N705 Co694 1.995 . S
N705 C706 1.376 . S
N705 C709 1.383 . S
C706 N705 1.376 . S
C706 C707 1.446 . S
C706 C729 1.391 . S
C707 C706 1.446 . S
C707 C708 1.339 . S
C707 H736 0.949 . S
C708 C707 1.339 . S
C708 C709 1.439 . S
C708 H737 0.950 . S
C709 N705 1.383 . S
C709 C708 1.439 . S
C709 C727 1.392 . S
N710 Co694 2.282 . S
N710 C713 1.332 . S
N710 C715 1.332 . S
C711 C712 1.386 . S
C711 C714 1.388 . S
C712 C711 1.386 . S
C712 C713 1.382 . S
C712 H738 0.950 . S
C713 N710 1.332 . S
C713 C712 1.382 . S
C713 H724 0.952 . S
C714 C711 1.388 . S
C714 C715 1.382 . S
C714 H739 0.950 . S
C715 N710 1.332 . S
C715 C714 1.382 . S
C715 H725 0.948 . S
N716 Co694 2.282 . S
N716 C720 1.332 . S
N716 C721 1.332 . S
C717 C718 1.388 . S
C717 C721 1.382 . S
C717 H740 0.950 . S
C718 C717 1.388 . S
C718 C719 1.386 . S
C719 C718 1.386 . S
C719 C720 1.382 . S
C719 H741 0.950 . S
C720 N716 1.332 . S
C720 C719 1.382 . S
C720 H722 0.952 . S
C721 N716 1.332 . S
C721 C717 1.382 . S
C721 H723 0.948 . S
H722 C720 0.952 . S
H723 C721 0.948 . S
H724 C713 0.952 . S
H725 C715 0.948 . S
C726 C692 1.395 . S
C726 C696 1.391 . S
C727 C689 1.389 . S
C727 C709 1.392 . S
C728 C699 1.392 . S
C728 C701 1.389 . S
C729 C704 1.395 . S
C729 C706 1.391 . S
H730 C690 0.951 . S
H731 C691 0.950 . S
H732 C697 0.949 . S
H733 C698 0.950 . S
H734 C702 0.951 . S
H735 C703 0.950 . S
H736 C707 0.949 . S
H737 C708 0.950 . S
H738 C712 0.950 . S
H739 C714 0.950 . S
H740 C717 0.950 . S
H741 C719 0.950 . S
C742 C743 1.443 . S
C742 N746 1.376 . S
C742 C780 1.389 . S
C743 C742 1.443 . S
C743 C744 1.340 . S
C743 H783 0.951 . S
C744 C743 1.340 . S
C744 C745 1.439 . S
C744 H784 0.950 . S
C745 C744 1.439 . S
C745 N746 1.374 . S
C745 C779 1.395 . S
N746 C742 1.376 . S
N746 C745 1.374 . S
N746 Co747 2.008 . S
Co747 N746 2.008 . S
Co747 N748 1.995 . S
Co747 N753 2.008 . S
Co747 N758 1.995 . S
Co747 N763 2.282 . S
Co747 N769 2.282 . S
N748 Co747 1.995 . S
N748 C749 1.376 . S
N748 C752 1.383 . S
C749 N748 1.376 . S
C749 C750 1.446 . S
C749 C779 1.391 . S
C750 C749 1.446 . S
C750 C751 1.339 . S
C750 H785 0.949 . S
C751 C750 1.339 . S
C751 C752 1.439 . S
C751 H786 0.950 . S
C752 N748 1.383 . S
C752 C751 1.439 . S
C752 C781 1.392 . S
N753 Co747 2.008 . S
N753 C754 1.376 . S
N753 C757 1.374 . S
C754 N753 1.376 . S
C754 C755 1.443 . S
C754 C781 1.389 . S
C755 C754 1.443 . S
C755 C756 1.340 . S
C755 H787 0.951 . S
C756 C755 1.340 . S
C756 C757 1.439 . S
C756 H788 0.950 . S
C757 N753 1.374 . S
C757 C756 1.439 . S
C757 C782 1.395 . S
N758 Co747 1.995 . S
N758 C759 1.376 . S
N758 C762 1.383 . S
C759 N758 1.376 . S
C759 C760 1.446 . S
C759 C782 1.391 . S
C760 C759 1.446 . S
C760 C761 1.339 . S
C760 H789 0.949 . S
C761 C760 1.339 . S
C761 C762 1.439 . S
C761 H790 0.950 . S
C762 N758 1.383 . S
C762 C761 1.439 . S
C762 C780 1.392 . S
N763 Co747 2.282 . S
N763 C766 1.332 . S
N763 C768 1.332 . S
C764 C765 1.386 . S
C764 C767 1.388 . S
C765 C764 1.386 . S
C765 C766 1.382 . S
C765 H791 0.950 . S
C766 N763 1.332 . S
C766 C765 1.382 . S
C766 H777 0.952 . S
C767 C764 1.388 . S
C767 C768 1.382 . S
C767 H792 0.950 . S
C768 N763 1.332 . S
C768 C767 1.382 . S
C768 H778 0.948 . S
N769 Co747 2.282 . S
N769 C773 1.332 . S
N769 C774 1.332 . S
C770 C771 1.388 . S
C770 C774 1.382 . S
C770 H793 0.950 . S
C771 C770 1.388 . S
C771 C772 1.386 . S
C772 C771 1.386 . S
C772 C773 1.382 . S
C772 H794 0.950 . S
C773 N769 1.332 . S
C773 C772 1.382 . S
C773 H775 0.952 . S
C774 N769 1.332 . S
C774 C770 1.382 . S
C774 H776 0.948 . S
H775 C773 0.952 . S
H776 C774 0.948 . S
H777 C766 0.952 . S
H778 C768 0.948 . S
C779 C745 1.395 . S
C779 C749 1.391 . S
C780 C742 1.389 . S
C780 C762 1.392 . S
C781 C752 1.392 . S
C781 C754 1.389 . S
C782 C757 1.395 . S
C782 C759 1.391 . S
H783 C743 0.951 . S
H784 C744 0.950 . S
H785 C750 0.949 . S
H786 C751 0.950 . S
H787 C755 0.951 . S
H788 C756 0.950 . S
H789 C760 0.949 . S
H790 C761 0.950 . S
H791 C765 0.950 . S
H792 C767 0.950 . S
H793 C770 0.950 . S
H794 C772 0.950 . S
C795 C796 1.443 . S
C795 N799 1.376 . S
C795 C833 1.389 . S
C796 C795 1.443 . S
C796 C797 1.340 . S
C796 H836 0.951 . S
C797 C796 1.340 . S
C797 C798 1.439 . S
C797 H837 0.950 . S
C798 C797 1.439 . S
C798 N799 1.374 . S
C798 C832 1.395 . S
N799 C795 1.376 . S
N799 C798 1.374 . S
N799 Co800 2.008 . S
Co800 N799 2.008 . S
Co800 N801 1.995 . S
Co800 N806 2.008 . S
Co800 N811 1.995 . S
Co800 N816 2.282 . S
Co800 N822 2.282 . S
N801 Co800 1.995 . S
N801 C802 1.376 . S
N801 C805 1.383 . S
C802 N801 1.376 . S
C802 C803 1.446 . S
C802 C832 1.391 . S
C803 C802 1.446 . S
C803 C804 1.339 . S
C803 H838 0.949 . S
C804 C803 1.339 . S
C804 C805 1.439 . S
C804 H839 0.950 . S
C805 N801 1.383 . S
C805 C804 1.439 . S
C805 C834 1.392 . S
N806 Co800 2.008 . S
N806 C807 1.376 . S
N806 C810 1.374 . S
C807 N806 1.376 . S
C807 C808 1.443 . S
C807 C834 1.389 . S
C808 C807 1.443 . S
C808 C809 1.340 . S
C808 H840 0.951 . S
C809 C808 1.340 . S
C809 C810 1.439 . S
C809 H841 0.950 . S
C810 N806 1.374 . S
C810 C809 1.439 . S
C810 C835 1.395 . S
N811 Co800 1.995 . S
N811 C812 1.376 . S
N811 C815 1.383 . S
C812 N811 1.376 . S
C812 C813 1.446 . S
C812 C835 1.391 . S
C813 C812 1.446 . S
C813 C814 1.339 . S
C813 H842 0.949 . S
C814 C813 1.339 . S
C814 C815 1.439 . S
C814 H843 0.950 . S
C815 N811 1.383 . S
C815 C814 1.439 . S
C815 C833 1.392 . S
N816 Co800 2.282 . S
N816 C819 1.332 . S
N816 C821 1.332 . S
C817 C818 1.386 . S
C817 C820 1.388 . S
C818 C817 1.386 . S
C818 C819 1.382 . S
C818 H844 0.950 . S
C819 N816 1.332 . S
C819 C818 1.382 . S
C819 H830 0.952 . S
C820 C817 1.388 . S
C820 C821 1.382 . S
C820 H845 0.950 . S
C821 N816 1.332 . S
C821 C820 1.382 . S
C821 H831 0.948 . S
N822 Co800 2.282 . S
N822 C826 1.332 . S
N822 C827 1.332 . S
C823 C824 1.388 . S
C823 C827 1.382 . S
C823 H846 0.950 . S
C824 C823 1.388 . S
C824 C825 1.386 . S
C825 C824 1.386 . S
C825 C826 1.382 . S
C825 H847 0.950 . S
C826 N822 1.332 . S
C826 C825 1.382 . S
C826 H828 0.952 . S
C827 N822 1.332 . S
C827 C823 1.382 . S
C827 H829 0.948 . S
H828 C826 0.952 . S
H829 C827 0.948 . S
H830 C819 0.952 . S
H831 C821 0.948 . S
C832 C798 1.395 . S
C832 C802 1.391 . S
C833 C795 1.389 . S
C833 C815 1.392 . S
C834 C805 1.392 . S
C834 C807 1.389 . S
C835 C810 1.395 . S
C835 C812 1.391 . S
H836 C796 0.951 . S
H837 C797 0.950 . S
H838 C803 0.949 . S
H839 C804 0.950 . S
H840 C808 0.951 . S
H841 C809 0.950 . S
H842 C813 0.949 . S
H843 C814 0.950 . S
H844 C818 0.950 . S
H845 C820 0.950 . S
H846 C823 0.950 . S
H847 C825 0.950 . S
C848 C849 1.443 . S
C848 N852 1.376 . S
C848 C886 1.389 . S
C849 C848 1.443 . S
C849 C850 1.340 . S
C849 H889 0.951 . S
C850 C849 1.340 . S
C850 C851 1.439 . S
C850 H890 0.950 . S
C851 C850 1.439 . S
C851 N852 1.374 . S
C851 C885 1.395 . S
N852 C848 1.376 . S
N852 C851 1.374 . S
N852 Co853 2.008 . S
Co853 N852 2.008 . S
Co853 N854 1.995 . S
Co853 N859 2.008 . S
Co853 N864 1.995 . S
Co853 N869 2.282 . S
Co853 N875 2.282 . S
N854 Co853 1.995 . S
N854 C855 1.376 . S
N854 C858 1.383 . S
C855 N854 1.376 . S
C855 C856 1.446 . S
C855 C885 1.391 . S
C856 C855 1.446 . S
C856 C857 1.339 . S
C856 H891 0.949 . S
C857 C856 1.339 . S
C857 C858 1.439 . S
C857 H892 0.950 . S
C858 N854 1.383 . S
C858 C857 1.439 . S
C858 C887 1.392 . S
N859 Co853 2.008 . S
N859 C860 1.376 . S
N859 C863 1.374 . S
C860 N859 1.376 . S
C860 C861 1.443 . S
C860 C887 1.389 . S
C861 C860 1.443 . S
C861 C862 1.340 . S
C861 H893 0.951 . S
C862 C861 1.340 . S
C862 C863 1.439 . S
C862 H894 0.950 . S
C863 N859 1.374 . S
C863 C862 1.439 . S
C863 C888 1.395 . S
N864 Co853 1.995 . S
N864 C865 1.376 . S
N864 C868 1.383 . S
C865 N864 1.376 . S
C865 C866 1.446 . S
C865 C888 1.391 . S
C866 C865 1.446 . S
C866 C867 1.339 . S
C866 H895 0.949 . S
C867 C866 1.339 . S
C867 C868 1.439 . S
C867 H896 0.950 . S
C868 N864 1.383 . S
C868 C867 1.439 . S
C868 C886 1.392 . S
N869 Co853 2.282 . S
N869 C872 1.332 . S
N869 C874 1.332 . S
C870 C871 1.386 . S
C870 C873 1.388 . S
C871 C870 1.386 . S
C871 C872 1.382 . S
C871 H897 0.950 . S
C872 N869 1.332 . S
C872 C871 1.382 . S
C872 H883 0.952 . S
C873 C870 1.388 . S
C873 C874 1.382 . S
C873 H898 0.950 . S
C874 N869 1.332 . S
C874 C873 1.382 . S
C874 H884 0.948 . S
N875 Co853 2.282 . S
N875 C879 1.332 . S
N875 C880 1.332 . S
C876 C877 1.388 . S
C876 C880 1.382 . S
C876 H899 0.950 . S
C877 C876 1.388 . S
C877 C878 1.386 . S
C878 C877 1.386 . S
C878 C879 1.382 . S
C878 H900 0.950 . S
C879 N875 1.332 . S
C879 C878 1.382 . S
C879 H881 0.952 . S
C880 N875 1.332 . S
C880 C876 1.382 . S
C880 H882 0.948 . S
H881 C879 0.952 . S
H882 C880 0.948 . S
H883 C872 0.952 . S
H884 C874 0.948 . S
C885 C851 1.395 . S
C885 C855 1.391 . S
C886 C848 1.389 . S
C886 C868 1.392 . S
C887 C858 1.392 . S
C887 C860 1.389 . S
C888 C863 1.395 . S
C888 C865 1.391 . S
H889 C849 0.951 . S
H890 C850 0.950 . S
H891 C856 0.949 . S
H892 C857 0.950 . S
H893 C861 0.951 . S
H894 C862 0.950 . S
H895 C866 0.949 . S
H896 C867 0.950 . S
H897 C871 0.950 . S
H898 C873 0.950 . S
H899 C876 0.950 . S
H900 C878 0.950 . S
C901 C902 1.443 . S
C901 N905 1.376 . S
C901 C939 1.389 . S
C902 C901 1.443 . S
C902 C903 1.340 . S
C902 H942 0.951 . S
C903 C902 1.340 . S
C903 C904 1.439 . S
C903 H943 0.950 . S
C904 C903 1.439 . S
C904 N905 1.374 . S
C904 C938 1.395 . S
N905 C901 1.376 . S
N905 C904 1.374 . S
N905 Co906 2.008 . S
Co906 N905 2.008 . S
Co906 N907 1.995 . S
Co906 N912 2.008 . S
Co906 N917 1.995 . S
Co906 N922 2.282 . S
Co906 N928 2.282 . S
N907 Co906 1.995 . S
N907 C908 1.376 . S
N907 C911 1.383 . S
C908 N907 1.376 . S
C908 C909 1.446 . S
C908 C938 1.391 . S
C909 C908 1.446 . S
C909 C910 1.339 . S
C909 H944 0.949 . S
C910 C909 1.339 . S
C910 C911 1.439 . S
C910 H945 0.950 . S
C911 N907 1.383 . S
C911 C910 1.439 . S
C911 C940 1.392 . S
N912 Co906 2.008 . S
N912 C913 1.376 . S
N912 C916 1.374 . S
C913 N912 1.376 . S
C913 C914 1.443 . S
C913 C940 1.389 . S
C914 C913 1.443 . S
C914 C915 1.340 . S
C914 H946 0.951 . S
C915 C914 1.340 . S
C915 C916 1.439 . S
C915 H947 0.950 . S
C916 N912 1.374 . S
C916 C915 1.439 . S
C916 C941 1.395 . S
N917 Co906 1.995 . S
N917 C918 1.376 . S
N917 C921 1.383 . S
C918 N917 1.376 . S
C918 C919 1.446 . S
C918 C941 1.391 . S
C919 C918 1.446 . S
C919 C920 1.339 . S
C919 H948 0.949 . S
C920 C919 1.339 . S
C920 C921 1.439 . S
C920 H949 0.950 . S
C921 N917 1.383 . S
C921 C920 1.439 . S
C921 C939 1.392 . S
N922 Co906 2.282 . S
N922 C925 1.332 . S
N922 C927 1.332 . S
C923 C924 1.386 . S
C923 C926 1.388 . S
C924 C923 1.386 . S
C924 C925 1.382 . S
C924 H950 0.950 . S
C925 N922 1.332 . S
C925 C924 1.382 . S
C925 H936 0.952 . S
C926 C923 1.388 . S
C926 C927 1.382 . S
C926 H951 0.950 . S
C927 N922 1.332 . S
C927 C926 1.382 . S
C927 H937 0.948 . S
N928 Co906 2.282 . S
N928 C932 1.332 . S
N928 C933 1.332 . S
C929 C930 1.388 . S
C929 C933 1.382 . S
C929 H952 0.950 . S
C930 C929 1.388 . S
C930 C931 1.386 . S
C931 C930 1.386 . S
C931 C932 1.382 . S
C931 H953 0.950 . S
C932 N928 1.332 . S
C932 C931 1.382 . S
C932 H934 0.952 . S
C933 N928 1.332 . S
C933 C929 1.382 . S
C933 H935 0.948 . S
H934 C932 0.952 . S
H935 C933 0.948 . S
H936 C925 0.952 . S
H937 C927 0.948 . S
C938 C904 1.395 . S
C938 C908 1.391 . S
C939 C901 1.389 . S
C939 C921 1.392 . S
C940 C911 1.392 . S
C940 C913 1.389 . S
C941 C916 1.395 . S
C941 C918 1.391 . S
H942 C902 0.951 . S
H943 C903 0.950 . S
H944 C909 0.949 . S
H945 C910 0.950 . S
H946 C914 0.951 . S
H947 C915 0.950 . S
H948 C919 0.949 . S
H949 C920 0.950 . S
H950 C924 0.950 . S
H951 C926 0.950 . S
H952 C929 0.950 . S
H953 C931 0.950 . S
C954 C955 1.443 . S
C954 N958 1.376 . S
C954 C992 1.389 . S
C955 C954 1.443 . S
C955 C956 1.340 . S
C955 H995 0.951 . S
C956 C955 1.340 . S
C956 C957 1.439 . S
C956 H996 0.950 . S
C957 C956 1.439 . S
C957 N958 1.374 . S
C957 C991 1.395 . S
N958 C954 1.376 . S
N958 C957 1.374 . S
N958 Co959 2.008 . S
Co959 N958 2.008 . S
Co959 N960 1.995 . S
Co959 N965 2.008 . S
Co959 N970 1.995 . S
Co959 N975 2.282 . S
Co959 N981 2.282 . S
N960 Co959 1.995 . S
N960 C961 1.376 . S
N960 C964 1.383 . S
C961 N960 1.376 . S
C961 C962 1.446 . S
C961 C991 1.391 . S
C962 C961 1.446 . S
C962 C963 1.339 . S
C962 H997 0.949 . S
C963 C962 1.339 . S
C963 C964 1.439 . S
C963 H998 0.950 . S
C964 N960 1.383 . S
C964 C963 1.439 . S
C964 C993 1.392 . S
N965 Co959 2.008 . S
N965 C966 1.376 . S
N965 C969 1.374 . S
C966 N965 1.376 . S
C966 C967 1.443 . S
C966 C993 1.389 . S
C967 C966 1.443 . S
C967 C968 1.340 . S
C967 H999 0.951 . S
C968 C967 1.340 . S
C968 C969 1.439 . S
C968 H1000 0.950 . S
C969 N965 1.374 . S
C969 C968 1.439 . S
C969 C994 1.395 . S
N970 Co959 1.995 . S
N970 C971 1.376 . S
N970 C974 1.383 . S
C971 N970 1.376 . S
C971 C972 1.446 . S
C971 C994 1.391 . S
C972 C971 1.446 . S
C972 C973 1.339 . S
C972 H1001 0.949 . S
C973 C972 1.339 . S
C973 C974 1.439 . S
C973 H1002 0.950 . S
C974 N970 1.383 . S
C974 C973 1.439 . S
C974 C992 1.392 . S
N975 Co959 2.282 . S
N975 C978 1.332 . S
N975 C980 1.332 . S
C976 C977 1.386 . S
C976 C979 1.388 . S
C977 C976 1.386 . S
C977 C978 1.382 . S
C977 H1003 0.950 . S
C978 N975 1.332 . S
C978 C977 1.382 . S
C978 H989 0.952 . S
C979 C976 1.388 . S
C979 C980 1.382 . S
C979 H1004 0.950 . S
C980 N975 1.332 . S
C980 C979 1.382 . S
C980 H990 0.948 . S
N981 Co959 2.282 . S
N981 C985 1.332 . S
N981 C986 1.332 . S
C982 C983 1.388 . S
C982 C986 1.382 . S
C982 H1005 0.950 . S
C983 C982 1.388 . S
C983 C984 1.386 . S
C984 C983 1.386 . S
C984 C985 1.382 . S
C984 H1006 0.950 . S
C985 N981 1.332 . S
C985 C984 1.382 . S
C985 H987 0.952 . S
C986 N981 1.332 . S
C986 C982 1.382 . S
C986 H988 0.948 . S
H987 C985 0.952 . S
H988 C986 0.948 . S
H989 C978 0.952 . S
H990 C980 0.948 . S
C991 C957 1.395 . S
C991 C961 1.391 . S
C992 C954 1.389 . S
C992 C974 1.392 . S
C993 C964 1.392 . S
C993 C966 1.389 . S
C994 C969 1.395 . S
C994 C971 1.391 . S
H995 C955 0.951 . S
H996 C956 0.950 . S
H997 C962 0.949 . S
H998 C963 0.950 . S
H999 C967 0.951 . S
H1000 C968 0.950 . S
H1001 C972 0.949 . S
H1002 C973 0.950 . S
H1003 C977 0.950 . S
H1004 C979 0.950 . S
H1005 C982 0.950 . S
H1006 C984 0.950 . S
C1007 C1008 1.443 . S
C1007 N1011 1.376 . S
C1007 C1045 1.389 . S
C1008 C1007 1.443 . S
C1008 C1009 1.340 . S
C1008 H1048 0.951 . S
C1009 C1008 1.340 . S
C1009 C1010 1.439 . S
C1009 H1049 0.950 . S
C1010 C1009 1.439 . S
C1010 N1011 1.374 . S
C1010 C1044 1.395 . S
N1011 C1007 1.376 . S
N1011 C1010 1.374 . S
N1011 Co1012 2.008 . S
Co1012 N1011 2.008 . S
Co1012 N1013 1.995 . S
Co1012 N1018 2.008 . S
Co1012 N1023 1.995 . S
Co1012 N1028 2.282 . S
Co1012 N1034 2.282 . S
N1013 Co1012 1.995 . S
N1013 C1014 1.376 . S
N1013 C1017 1.383 . S
C1014 N1013 1.376 . S
C1014 C1015 1.446 . S
C1014 C1044 1.391 . S
C1015 C1014 1.446 . S
C1015 C1016 1.339 . S
C1015 H1050 0.949 . S
C1016 C1015 1.339 . S
C1016 C1017 1.439 . S
C1016 H1051 0.950 . S
C1017 N1013 1.383 . S
C1017 C1016 1.439 . S
C1017 C1046 1.392 . S
N1018 Co1012 2.008 . S
N1018 C1019 1.376 . S
N1018 C1022 1.374 . S
C1019 N1018 1.376 . S
C1019 C1020 1.443 . S
C1019 C1046 1.389 . S
C1020 C1019 1.443 . S
C1020 C1021 1.340 . S
C1020 H1052 0.951 . S
C1021 C1020 1.340 . S
C1021 C1022 1.439 . S
C1021 H1053 0.950 . S
C1022 N1018 1.374 . S
C1022 C1021 1.439 . S
C1022 C1047 1.395 . S
N1023 Co1012 1.995 . S
N1023 C1024 1.376 . S
N1023 C1027 1.383 . S
C1024 N1023 1.376 . S
C1024 C1025 1.446 . S
C1024 C1047 1.391 . S
C1025 C1024 1.446 . S
C1025 C1026 1.339 . S
C1025 H1054 0.949 . S
C1026 C1025 1.339 . S
C1026 C1027 1.439 . S
C1026 H1055 0.950 . S
C1027 N1023 1.383 . S
C1027 C1026 1.439 . S
C1027 C1045 1.392 . S
N1028 Co1012 2.282 . S
N1028 C1031 1.332 . S
N1028 C1033 1.332 . S
C1029 C1030 1.386 . S
C1029 C1032 1.388 . S
C1030 C1029 1.386 . S
C1030 C1031 1.382 . S
C1030 H1056 0.950 . S
C1031 N1028 1.332 . S
C1031 C1030 1.382 . S
C1031 H1042 0.952 . S
C1032 C1029 1.388 . S
C1032 C1033 1.382 . S
C1032 H1057 0.950 . S
C1033 N1028 1.332 . S
C1033 C1032 1.382 . S
C1033 H1043 0.948 . S
N1034 Co1012 2.282 . S
N1034 C1038 1.332 . S
N1034 C1039 1.332 . S
C1035 C1036 1.388 . S
C1035 C1039 1.382 . S
C1035 H1058 0.950 . S
C1036 C1035 1.388 . S
C1036 C1037 1.386 . S
C1037 C1036 1.386 . S
C1037 C1038 1.382 . S
C1037 H1059 0.950 . S
C1038 N1034 1.332 . S
C1038 C1037 1.382 . S
C1038 H1040 0.952 . S
C1039 N1034 1.332 . S
C1039 C1035 1.382 . S
C1039 H1041 0.948 . S
H1040 C1038 0.952 . S
H1041 C1039 0.948 . S
H1042 C1031 0.952 . S
H1043 C1033 0.948 . S
C1044 C1010 1.395 . S
C1044 C1014 1.391 . S
C1045 C1007 1.389 . S
C1045 C1027 1.392 . S
C1046 C1017 1.392 . S
C1046 C1019 1.389 . S
C1047 C1022 1.395 . S
C1047 C1024 1.391 . S
H1048 C1008 0.951 . S
H1049 C1009 0.950 . S
H1050 C1015 0.949 . S
H1051 C1016 0.950 . S
H1052 C1020 0.951 . S
H1053 C1021 0.950 . S
H1054 C1025 0.949 . S
H1055 C1026 0.950 . S
H1056 C1030 0.950 . S
H1057 C1032 0.950 . S
H1058 C1035 0.950 . S
H1059 C1037 0.950 . S
C1060 C1061 1.443 . S
C1060 N1064 1.376 . S
C1060 C1098 1.389 . S
C1061 C1060 1.443 . S
C1061 C1062 1.340 . S
C1061 H1101 0.951 . S
C1062 C1061 1.340 . S
C1062 C1063 1.439 . S
C1062 H1102 0.950 . S
C1063 C1062 1.439 . S
C1063 N1064 1.374 . S
C1063 C1097 1.395 . S
N1064 C1060 1.376 . S
N1064 C1063 1.374 . S
N1064 Co1065 2.008 . S
Co1065 N1064 2.008 . S
Co1065 N1066 1.995 . S
Co1065 N1071 2.008 . S
Co1065 N1076 1.995 . S
Co1065 N1081 2.282 . S
Co1065 N1087 2.282 . S
N1066 Co1065 1.995 . S
N1066 C1067 1.376 . S
N1066 C1070 1.383 . S
C1067 N1066 1.376 . S
C1067 C1068 1.446 . S
C1067 C1097 1.391 . S
C1068 C1067 1.446 . S
C1068 C1069 1.339 . S
C1068 H1103 0.949 . S
C1069 C1068 1.339 . S
C1069 C1070 1.439 . S
C1069 H1104 0.950 . S
C1070 N1066 1.383 . S
C1070 C1069 1.439 . S
C1070 C1099 1.392 . S
N1071 Co1065 2.008 . S
N1071 C1072 1.376 . S
N1071 C1075 1.374 . S
C1072 N1071 1.376 . S
C1072 C1073 1.443 . S
C1072 C1099 1.389 . S
C1073 C1072 1.443 . S
C1073 C1074 1.340 . S
C1073 H1105 0.951 . S
C1074 C1073 1.340 . S
C1074 C1075 1.439 . S
C1074 H1106 0.950 . S
C1075 N1071 1.374 . S
C1075 C1074 1.439 . S
C1075 C1100 1.395 . S
N1076 Co1065 1.995 . S
N1076 C1077 1.376 . S
N1076 C1080 1.383 . S
C1077 N1076 1.376 . S
C1077 C1078 1.446 . S
C1077 C1100 1.391 . S
C1078 C1077 1.446 . S
C1078 C1079 1.339 . S
C1078 H1107 0.949 . S
C1079 C1078 1.339 . S
C1079 C1080 1.439 . S
C1079 H1108 0.950 . S
C1080 N1076 1.383 . S
C1080 C1079 1.439 . S
C1080 C1098 1.392 . S
N1081 Co1065 2.282 . S
N1081 C1084 1.332 . S
N1081 C1086 1.332 . S
C1082 C1083 1.386 . S
C1082 C1085 1.388 . S
C1083 C1082 1.386 . S
C1083 C1084 1.382 . S
C1083 H1109 0.950 . S
C1084 N1081 1.332 . S
C1084 C1083 1.382 . S
C1084 H1095 0.952 . S
C1085 C1082 1.388 . S
C1085 C1086 1.382 . S
C1085 H1110 0.950 . S
C1086 N1081 1.332 . S
C1086 C1085 1.382 . S
C1086 H1096 0.948 . S
N1087 Co1065 2.282 . S
N1087 C1091 1.332 . S
N1087 C1092 1.332 . S
C1088 C1089 1.388 . S
C1088 C1092 1.382 . S
C1088 H1111 0.950 . S
C1089 C1088 1.388 . S
C1089 C1090 1.386 . S
C1090 C1089 1.386 . S
C1090 C1091 1.382 . S
C1090 H1112 0.950 . S
C1091 N1087 1.332 . S
C1091 C1090 1.382 . S
C1091 H1093 0.952 . S
C1092 N1087 1.332 . S
C1092 C1088 1.382 . S
C1092 H1094 0.948 . S
H1093 C1091 0.952 . S
H1094 C1092 0.948 . S
H1095 C1084 0.952 . S
H1096 C1086 0.948 . S
C1097 C1063 1.395 . S
C1097 C1067 1.391 . S
C1098 C1060 1.389 . S
C1098 C1080 1.392 . S
C1099 C1070 1.392 . S
C1099 C1072 1.389 . S
C1100 C1075 1.395 . S
C1100 C1077 1.391 . S
H1101 C1061 0.951 . S
H1102 C1062 0.950 . S
H1103 C1068 0.949 . S
H1104 C1069 0.950 . S
H1105 C1073 0.951 . S
H1106 C1074 0.950 . S
H1107 C1078 0.949 . S
H1108 C1079 0.950 . S
H1109 C1083 0.950 . S
H1110 C1085 0.950 . S
H1111 C1088 0.950 . S
H1112 C1090 0.950 . S
C1113 C1114 1.443 . S
C1113 N1117 1.376 . S
C1113 C1151 1.389 . S
C1114 C1113 1.443 . S
C1114 C1115 1.340 . S
C1114 H1154 0.951 . S
C1115 C1114 1.340 . S
C1115 C1116 1.439 . S
C1115 H1155 0.950 . S
C1116 C1115 1.439 . S
C1116 N1117 1.374 . S
C1116 C1150 1.395 . S
N1117 C1113 1.376 . S
N1117 C1116 1.374 . S
N1117 Co1118 2.008 . S
Co1118 N1117 2.008 . S
Co1118 N1119 1.995 . S
Co1118 N1124 2.008 . S
Co1118 N1129 1.995 . S
Co1118 N1134 2.282 . S
Co1118 N1140 2.282 . S
N1119 Co1118 1.995 . S
N1119 C1120 1.376 . S
N1119 C1123 1.383 . S
C1120 N1119 1.376 . S
C1120 C1121 1.446 . S
C1120 C1150 1.391 . S
C1121 C1120 1.446 . S
C1121 C1122 1.339 . S
C1121 H1156 0.949 . S
C1122 C1121 1.339 . S
C1122 C1123 1.439 . S
C1122 H1157 0.950 . S
C1123 N1119 1.383 . S
C1123 C1122 1.439 . S
C1123 C1152 1.392 . S
N1124 Co1118 2.008 . S
N1124 C1125 1.376 . S
N1124 C1128 1.374 . S
C1125 N1124 1.376 . S
C1125 C1126 1.443 . S
C1125 C1152 1.389 . S
C1126 C1125 1.443 . S
C1126 C1127 1.340 . S
C1126 H1158 0.951 . S
C1127 C1126 1.340 . S
C1127 C1128 1.439 . S
C1127 H1159 0.950 . S
C1128 N1124 1.374 . S
C1128 C1127 1.439 . S
C1128 C1153 1.395 . S
N1129 Co1118 1.995 . S
N1129 C1130 1.376 . S
N1129 C1133 1.383 . S
C1130 N1129 1.376 . S
C1130 C1131 1.446 . S
C1130 C1153 1.391 . S
C1131 C1130 1.446 . S
C1131 C1132 1.339 . S
C1131 H1160 0.949 . S
C1132 C1131 1.339 . S
C1132 C1133 1.439 . S
C1132 H1161 0.950 . S
C1133 N1129 1.383 . S
C1133 C1132 1.439 . S
C1133 C1151 1.392 . S
N1134 Co1118 2.282 . S
N1134 C1137 1.332 . S
N1134 C1139 1.332 . S
C1135 C1136 1.386 . S
C1135 C1138 1.388 . S
C1136 C1135 1.386 . S
C1136 C1137 1.382 . S
C1136 H1162 0.950 . S
C1137 N1134 1.332 . S
C1137 C1136 1.382 . S
C1137 H1148 0.952 . S
C1138 C1135 1.388 . S
C1138 C1139 1.382 . S
C1138 H1163 0.950 . S
C1139 N1134 1.332 . S
C1139 C1138 1.382 . S
C1139 H1149 0.948 . S
N1140 Co1118 2.282 . S
N1140 C1144 1.332 . S
N1140 C1145 1.332 . S
C1141 C1142 1.388 . S
C1141 C1145 1.382 . S
C1141 H1164 0.950 . S
C1142 C1141 1.388 . S
C1142 C1143 1.386 . S
C1143 C1142 1.386 . S
C1143 C1144 1.382 . S
C1143 H1165 0.950 . S
C1144 N1140 1.332 . S
C1144 C1143 1.382 . S
C1144 H1146 0.952 . S
C1145 N1140 1.332 . S
C1145 C1141 1.382 . S
C1145 H1147 0.948 . S
H1146 C1144 0.952 . S
H1147 C1145 0.948 . S
H1148 C1137 0.952 . S
H1149 C1139 0.948 . S
C1150 C1116 1.395 . S
C1150 C1120 1.391 . S
C1151 C1113 1.389 . S
C1151 C1133 1.392 . S
C1152 C1123 1.392 . S
C1152 C1125 1.389 . S
C1153 C1128 1.395 . S
C1153 C1130 1.391 . S
H1154 C1114 0.951 . S
H1155 C1115 0.950 . S
H1156 C1121 0.949 . S
H1157 C1122 0.950 . S
H1158 C1126 0.951 . S
H1159 C1127 0.950 . S
H1160 C1131 0.949 . S
H1161 C1132 0.950 . S
H1162 C1136 0.950 . S
H1163 C1138 0.950 . S
H1164 C1141 0.950 . S
H1165 C1143 0.950 . S
C1166 C1167 1.443 . S
C1166 N1170 1.376 . S
C1166 C1204 1.389 . S
C1167 C1166 1.443 . S
C1167 C1168 1.340 . S
C1167 H1207 0.951 . S
C1168 C1167 1.340 . S
C1168 C1169 1.439 . S
C1168 H1208 0.950 . S
C1169 C1168 1.439 . S
C1169 N1170 1.374 . S
C1169 C1203 1.395 . S
N1170 C1166 1.376 . S
N1170 C1169 1.374 . S
N1170 Co1171 2.008 . S
Co1171 N1170 2.008 . S
Co1171 N1172 1.995 . S
Co1171 N1177 2.008 . S
Co1171 N1182 1.995 . S
Co1171 N1187 2.282 . S
Co1171 N1193 2.282 . S
N1172 Co1171 1.995 . S
N1172 C1173 1.376 . S
N1172 C1176 1.383 . S
C1173 N1172 1.376 . S
C1173 C1174 1.446 . S
C1173 C1203 1.391 . S
C1174 C1173 1.446 . S
C1174 C1175 1.339 . S
C1174 H1209 0.949 . S
C1175 C1174 1.339 . S
C1175 C1176 1.439 . S
C1175 H1210 0.950 . S
C1176 N1172 1.383 . S
C1176 C1175 1.439 . S
C1176 C1205 1.392 . S
N1177 Co1171 2.008 . S
N1177 C1178 1.376 . S
N1177 C1181 1.374 . S
C1178 N1177 1.376 . S
C1178 C1179 1.443 . S
C1178 C1205 1.389 . S
C1179 C1178 1.443 . S
C1179 C1180 1.340 . S
C1179 H1211 0.951 . S
C1180 C1179 1.340 . S
C1180 C1181 1.439 . S
C1180 H1212 0.950 . S
C1181 N1177 1.374 . S
C1181 C1180 1.439 . S
C1181 C1206 1.395 . S
N1182 Co1171 1.995 . S
N1182 C1183 1.376 . S
N1182 C1186 1.383 . S
C1183 N1182 1.376 . S
C1183 C1184 1.446 . S
C1183 C1206 1.391 . S
C1184 C1183 1.446 . S
C1184 C1185 1.339 . S
C1184 H1213 0.949 . S
C1185 C1184 1.339 . S
C1185 C1186 1.439 . S
C1185 H1214 0.950 . S
C1186 N1182 1.383 . S
C1186 C1185 1.439 . S
C1186 C1204 1.392 . S
N1187 Co1171 2.282 . S
N1187 C1190 1.332 . S
N1187 C1192 1.332 . S
C1188 C1189 1.386 . S
C1188 C1191 1.388 . S
C1189 C1188 1.386 . S
C1189 C1190 1.382 . S
C1189 H1215 0.950 . S
C1190 N1187 1.332 . S
C1190 C1189 1.382 . S
C1190 H1201 0.952 . S
C1191 C1188 1.388 . S
C1191 C1192 1.382 . S
C1191 H1216 0.950 . S
C1192 N1187 1.332 . S
C1192 C1191 1.382 . S
C1192 H1202 0.948 . S
N1193 Co1171 2.282 . S
N1193 C1197 1.332 . S
N1193 C1198 1.332 . S
C1194 C1195 1.388 . S
C1194 C1198 1.382 . S
C1194 H1217 0.950 . S
C1195 C1194 1.388 . S
C1195 C1196 1.386 . S
C1196 C1195 1.386 . S
C1196 C1197 1.382 . S
C1196 H1218 0.950 . S
C1197 N1193 1.332 . S
C1197 C1196 1.382 . S
C1197 H1199 0.952 . S
C1198 N1193 1.332 . S
C1198 C1194 1.382 . S
C1198 H1200 0.948 . S
H1199 C1197 0.952 . S
H1200 C1198 0.948 . S
H1201 C1190 0.952 . S
H1202 C1192 0.948 . S
C1203 C1169 1.395 . S
C1203 C1173 1.391 . S
C1204 C1166 1.389 . S
C1204 C1186 1.392 . S
C1205 C1176 1.392 . S
C1205 C1178 1.389 . S
C1206 C1181 1.395 . S
C1206 C1183 1.391 . S
H1207 C1167 0.951 . S
H1208 C1168 0.950 . S
H1209 C1174 0.949 . S
H1210 C1175 0.950 . S
H1211 C1179 0.951 . S
H1212 C1180 0.950 . S
H1213 C1184 0.949 . S
H1214 C1185 0.950 . S
H1215 C1189 0.950 . S
H1216 C1191 0.950 . S
H1217 C1194 0.950 . S
H1218 C1196 0.950 . S
C1219 C1220 1.443 . S
C1219 N1223 1.376 . S
C1219 C1257 1.389 . S
C1220 C1219 1.443 . S
C1220 C1221 1.340 . S
C1220 H1260 0.951 . S
C1221 C1220 1.340 . S
C1221 C1222 1.439 . S
C1221 H1261 0.950 . S
C1222 C1221 1.439 . S
C1222 N1223 1.374 . S
C1222 C1256 1.395 . S
N1223 C1219 1.376 . S
N1223 C1222 1.374 . S
N1223 Co1224 2.008 . S
Co1224 N1223 2.008 . S
Co1224 N1225 1.995 . S
Co1224 N1230 2.008 . S
Co1224 N1235 1.995 . S
Co1224 N1240 2.282 . S
Co1224 N1246 2.282 . S
N1225 Co1224 1.995 . S
N1225 C1226 1.376 . S
N1225 C1229 1.383 . S
C1226 N1225 1.376 . S
C1226 C1227 1.446 . S
C1226 C1256 1.391 . S
C1227 C1226 1.446 . S
C1227 C1228 1.339 . S
C1227 H1262 0.949 . S
C1228 C1227 1.339 . S
C1228 C1229 1.439 . S
C1228 H1263 0.950 . S
C1229 N1225 1.383 . S
C1229 C1228 1.439 . S
C1229 C1258 1.392 . S
N1230 Co1224 2.008 . S
N1230 C1231 1.376 . S
N1230 C1234 1.374 . S
C1231 N1230 1.376 . S
C1231 C1232 1.443 . S
C1231 C1258 1.389 . S
C1232 C1231 1.443 . S
C1232 C1233 1.340 . S
C1232 H1264 0.951 . S
C1233 C1232 1.340 . S
C1233 C1234 1.439 . S
C1233 H1265 0.950 . S
C1234 N1230 1.374 . S
C1234 C1233 1.439 . S
C1234 C1259 1.395 . S
N1235 Co1224 1.995 . S
N1235 C1236 1.376 . S
N1235 C1239 1.383 . S
C1236 N1235 1.376 . S
C1236 C1237 1.446 . S
C1236 C1259 1.391 . S
C1237 C1236 1.446 . S
C1237 C1238 1.339 . S
C1237 H1266 0.949 . S
C1238 C1237 1.339 . S
C1238 C1239 1.439 . S
C1238 H1267 0.950 . S
C1239 N1235 1.383 . S
C1239 C1238 1.439 . S
C1239 C1257 1.392 . S
N1240 Co1224 2.282 . S
N1240 C1243 1.332 . S
N1240 C1245 1.332 . S
C1241 C1242 1.386 . S
C1241 C1244 1.388 . S
C1242 C1241 1.386 . S
C1242 C1243 1.382 . S
C1242 H1268 0.950 . S
C1243 N1240 1.332 . S
C1243 C1242 1.382 . S
C1243 H1254 0.952 . S
C1244 C1241 1.388 . S
C1244 C1245 1.382 . S
C1244 H1269 0.950 . S
C1245 N1240 1.332 . S
C1245 C1244 1.382 . S
C1245 H1255 0.948 . S
N1246 Co1224 2.282 . S
N1246 C1250 1.332 . S
N1246 C1251 1.332 . S
C1247 C1248 1.388 . S
C1247 C1251 1.382 . S
C1247 H1270 0.950 . S
C1248 C1247 1.388 . S
C1248 C1249 1.386 . S
C1249 C1248 1.386 . S
C1249 C1250 1.382 . S
C1249 H1271 0.950 . S
C1250 N1246 1.332 . S
C1250 C1249 1.382 . S
C1250 H1252 0.952 . S
C1251 N1246 1.332 . S
C1251 C1247 1.382 . S
C1251 H1253 0.948 . S
H1252 C1250 0.952 . S
H1253 C1251 0.948 . S
H1254 C1243 0.952 . S
H1255 C1245 0.948 . S
C1256 C1222 1.395 . S
C1256 C1226 1.391 . S
C1257 C1219 1.389 . S
C1257 C1239 1.392 . S
C1258 C1229 1.392 . S
C1258 C1231 1.389 . S
C1259 C1234 1.395 . S
C1259 C1236 1.391 . S
H1260 C1220 0.951 . S
H1261 C1221 0.950 . S
H1262 C1227 0.949 . S
H1263 C1228 0.950 . S
H1264 C1232 0.951 . S
H1265 C1233 0.950 . S
H1266 C1237 0.949 . S
H1267 C1238 0.950 . S
H1268 C1242 0.950 . S
H1269 C1244 0.950 . S
H1270 C1247 0.950 . S
H1271 C1249 0.950 . S
C1272 C1273 1.369 . S
C1272 C1274 1.419 . S
C1272 H1276 0.930 . S
C1273 C1272 1.369 . S
C1273 C1282 1.429 . S
C1274 C1272 1.419 . S
C1274 C1275 1.363 . S
C1274 H1277 0.929 . S
C1275 C1274 1.363 . S
C1275 C1281 1.428 . S
H1276 C1272 0.930 . S
H1277 C1274 0.929 . S
S1278 N1279 1.613 . S
S1278 N1280 1.610 . S
N1279 S1278 1.613 . S
N1279 C1282 1.350 . S
N1280 S1278 1.610 . S
N1280 C1281 1.351 . S
C1281 C1275 1.428 . S
C1281 N1280 1.351 . S
C1281 C1282 1.434 . S
C1282 C1273 1.429 . S
C1282 N1279 1.350 . S
C1282 C1281 1.434 . S
C1283 C1284 1.369 . S
C1283 C1285 1.419 . S
C1283 H1287 0.930 . S
C1284 C1283 1.369 . S
C1284 C1293 1.429 . S
C1285 C1283 1.419 . S
C1285 C1286 1.363 . S
C1285 H1288 0.929 . S
C1286 C1285 1.363 . S
C1286 C1292 1.428 . S
H1287 C1283 0.930 . S
H1288 C1285 0.929 . S
S1289 N1290 1.613 . S
S1289 N1291 1.610 . S
N1290 S1289 1.613 . S
N1290 C1293 1.350 . S
N1291 S1289 1.610 . S
N1291 C1292 1.351 . S
C1292 C1286 1.428 . S
C1292 N1291 1.351 . S
C1292 C1293 1.434 . S
C1293 C1284 1.429 . S
C1293 N1290 1.350 . S
C1293 C1292 1.434 . S
C1294 C1295 1.369 . S
C1294 C1296 1.419 . S
C1294 H1298 0.930 . S
C1295 C1294 1.369 . S
C1295 C1304 1.429 . S
C1296 C1294 1.419 . S
C1296 C1297 1.363 . S
C1296 H1299 0.929 . S
C1297 C1296 1.363 . S
C1297 C1303 1.428 . S
H1298 C1294 0.930 . S
H1299 C1296 0.929 . S
S1300 N1301 1.613 . S
S1300 N1302 1.610 . S
N1301 S1300 1.613 . S
N1301 C1304 1.350 . S
N1302 S1300 1.610 . S
N1302 C1303 1.351 . S
C1303 C1297 1.428 . S
C1303 N1302 1.351 . S
C1303 C1304 1.434 . S
C1304 C1295 1.429 . S
C1304 N1301 1.350 . S
C1304 C1303 1.434 . S
C1305 C1306 1.369 . S
C1305 C1307 1.419 . S
C1305 H1309 0.930 . S
C1306 C1305 1.369 . S
C1306 C1315 1.429 . S
C1307 C1305 1.419 . S
C1307 C1308 1.363 . S
C1307 H1310 0.929 . S
C1308 C1307 1.363 . S
C1308 C1314 1.428 . S
H1309 C1305 0.930 . S
H1310 C1307 0.929 . S
S1311 N1312 1.613 . S
S1311 N1313 1.610 . S
N1312 S1311 1.613 . S
N1312 C1315 1.350 . S
N1313 S1311 1.610 . S
N1313 C1314 1.351 . S
C1314 C1308 1.428 . S
C1314 N1313 1.351 . S
C1314 C1315 1.434 . S
C1315 C1306 1.429 . S
C1315 N1312 1.350 . S
C1315 C1314 1.434 . S
C1316 C1317 1.369 . S
C1316 C1318 1.419 . S
C1316 H1320 0.930 . S
C1317 C1316 1.369 . S
C1317 C1326 1.429 . S
C1318 C1316 1.419 . S
C1318 C1319 1.363 . S
C1318 H1321 0.929 . S
C1319 C1318 1.363 . S
C1319 C1325 1.428 . S
H1320 C1316 0.930 . S
H1321 C1318 0.929 . S
S1322 N1323 1.613 . S
S1322 N1324 1.610 . S
N1323 S1322 1.613 . S
N1323 C1326 1.350 . S
N1324 S1322 1.610 . S
N1324 C1325 1.351 . S
C1325 C1319 1.428 . S
C1325 N1324 1.351 . S
C1325 C1326 1.434 . S
C1326 C1317 1.429 . S
C1326 N1323 1.350 . S
C1326 C1325 1.434 . S
C1327 C1328 1.369 . S
C1327 C1329 1.419 . S
C1327 H1331 0.930 . S
C1328 C1327 1.369 . S
C1328 C1337 1.429 . S
C1329 C1327 1.419 . S
C1329 C1330 1.363 . S
C1329 H1332 0.929 . S
C1330 C1329 1.363 . S
C1330 C1336 1.428 . S
H1331 C1327 0.930 . S
H1332 C1329 0.929 . S
S1333 N1334 1.613 . S
S1333 N1335 1.610 . S
N1334 S1333 1.613 . S
N1334 C1337 1.350 . S
N1335 S1333 1.610 . S
N1335 C1336 1.351 . S
C1336 C1330 1.428 . S
C1336 N1335 1.351 . S
C1336 C1337 1.434 . S
C1337 C1328 1.429 . S
C1337 N1334 1.350 . S
C1337 C1336 1.434 . S
C1338 C1339 1.369 . S
C1338 C1340 1.419 . S
C1338 H1342 0.930 . S
C1339 C1338 1.369 . S
C1339 C1348 1.429 . S
C1340 C1338 1.419 . S
C1340 C1341 1.363 . S
C1340 H1343 0.929 . S
C1341 C1340 1.363 . S
C1341 C1347 1.428 . S
H1342 C1338 0.930 . S
H1343 C1340 0.929 . S
S1344 N1345 1.613 . S
S1344 N1346 1.610 . S
N1345 S1344 1.613 . S
N1345 C1348 1.350 . S
N1346 S1344 1.610 . S
N1346 C1347 1.351 . S
C1347 C1341 1.428 . S
C1347 N1346 1.351 . S
C1347 C1348 1.434 . S
C1348 C1339 1.429 . S
C1348 N1345 1.350 . S
C1348 C1347 1.434 . S
C1349 C1350 1.369 . S
C1349 C1351 1.419 . S
C1349 H1353 0.930 . S
C1350 C1349 1.369 . S
C1350 C1359 1.429 . S
C1351 C1349 1.419 . S
C1351 C1352 1.363 . S
C1351 H1354 0.929 . S
C1352 C1351 1.363 . S
C1352 C1358 1.428 . S
H1353 C1349 0.930 . S
H1354 C1351 0.929 . S
S1355 N1356 1.613 . S
S1355 N1357 1.610 . S
N1356 S1355 1.613 . S
N1356 C1359 1.350 . S
N1357 S1355 1.610 . S
N1357 C1358 1.351 . S
C1358 C1352 1.428 . S
C1358 N1357 1.351 . S
C1358 C1359 1.434 . S
C1359 C1350 1.429 . S
C1359 N1356 1.350 . S
C1359 C1358 1.434 . S
C1360 C1361 1.369 . S
C1360 C1362 1.419 . S
C1360 H1364 0.930 . S
C1361 C1360 1.369 . S
C1361 C1370 1.429 . S
C1362 C1360 1.419 . S
C1362 C1363 1.363 . S
C1362 H1365 0.929 . S
C1363 C1362 1.363 . S
C1363 C1369 1.428 . S
H1364 C1360 0.930 . S
H1365 C1362 0.929 . S
S1366 N1367 1.613 . S
S1366 N1368 1.610 . S
N1367 S1366 1.613 . S
N1367 C1370 1.350 . S
N1368 S1366 1.610 . S
N1368 C1369 1.351 . S
C1369 C1363 1.428 . S
C1369 N1368 1.351 . S
C1369 C1370 1.434 . S
C1370 C1361 1.429 . S
C1370 N1367 1.350 . S
C1370 C1369 1.434 . S
C1371 C1372 1.369 . S
C1371 C1373 1.419 . S
C1371 H1375 0.930 . S
C1372 C1371 1.369 . S
C1372 C1381 1.429 . S
C1373 C1371 1.419 . S
C1373 C1374 1.363 . S
C1373 H1376 0.929 . S
C1374 C1373 1.363 . S
C1374 C1380 1.428 . S
H1375 C1371 0.930 . S
H1376 C1373 0.929 . S
S1377 N1378 1.613 . S
S1377 N1379 1.610 . S
N1378 S1377 1.613 . S
N1378 C1381 1.350 . S
N1379 S1377 1.610 . S
N1379 C1380 1.351 . S
C1380 C1374 1.428 . S
C1380 N1379 1.351 . S
C1380 C1381 1.434 . S
C1381 C1372 1.429 . S
C1381 N1378 1.350 . S
C1381 C1380 1.434 . S
C1382 C1383 1.369 . S
C1382 C1384 1.419 . S
C1382 H1386 0.930 . S
C1383 C1382 1.369 . S
C1383 C1392 1.429 . S
C1384 C1382 1.419 . S
C1384 C1385 1.363 . S
C1384 H1387 0.929 . S
C1385 C1384 1.363 . S
C1385 C1391 1.428 . S
H1386 C1382 0.930 . S
H1387 C1384 0.929 . S
S1388 N1389 1.613 . S
S1388 N1390 1.610 . S
N1389 S1388 1.613 . S
N1389 C1392 1.350 . S
N1390 S1388 1.610 . S
N1390 C1391 1.351 . S
C1391 C1385 1.428 . S
C1391 N1390 1.351 . S
C1391 C1392 1.434 . S
C1392 C1383 1.429 . S
C1392 N1389 1.350 . S
C1392 C1391 1.434 . S
C1393 C1394 1.369 . S
C1393 C1395 1.419 . S
C1393 H1397 0.930 . S
C1394 C1393 1.369 . S
C1394 C1403 1.429 . S
C1395 C1393 1.419 . S
C1395 C1396 1.363 . S
C1395 H1398 0.929 . S
C1396 C1395 1.363 . S
C1396 C1402 1.428 . S
H1397 C1393 0.930 . S
H1398 C1395 0.929 . S
S1399 N1400 1.613 . S
S1399 N1401 1.610 . S
N1400 S1399 1.613 . S
N1400 C1403 1.350 . S
N1401 S1399 1.610 . S
N1401 C1402 1.351 . S
C1402 C1396 1.428 . S
C1402 N1401 1.351 . S
C1402 C1403 1.434 . S
C1403 C1394 1.429 . S
C1403 N1400 1.350 . S
C1403 C1402 1.434 . S
C1404 C1405 1.369 . S
C1404 C1406 1.419 . S
C1404 H1408 0.930 . S
C1405 C1404 1.369 . S
C1405 C1414 1.429 . S
C1406 C1404 1.419 . S
C1406 C1407 1.363 . S
C1406 H1409 0.929 . S
C1407 C1406 1.363 . S
C1407 C1413 1.428 . S
H1408 C1404 0.930 . S
H1409 C1406 0.929 . S
S1410 N1411 1.613 . S
S1410 N1412 1.610 1_554 S
N1411 S1410 1.613 . S
N1411 C1414 1.350 1_554 S
N1412 S1410 1.610 1_556 S
N1412 C1413 1.351 . S
C1413 C1407 1.428 . S
C1413 N1412 1.351 . S
C1413 C1414 1.434 . S
C1414 C1405 1.429 . S
C1414 N1411 1.350 1_556 S
C1414 C1413 1.434 . S
C1415 C1416 1.369 . S
C1415 C1417 1.419 . S
C1415 H1419 0.930 . S
C1416 C1415 1.369 . S
C1416 C1425 1.429 . S
C1417 C1415 1.419 . S
C1417 C1418 1.363 . S
C1417 H1420 0.929 . S
C1418 C1417 1.363 . S
C1418 C1424 1.428 . S
H1419 C1415 0.930 . S
H1420 C1417 0.929 . S
S1421 N1422 1.613 . S
S1421 N1423 1.610 . S
N1422 S1421 1.613 . S
N1422 C1425 1.350 . S
N1423 S1421 1.610 . S
N1423 C1424 1.351 . S
C1424 C1418 1.428 . S
C1424 N1423 1.351 . S
C1424 C1425 1.434 . S
C1425 C1416 1.429 . S
C1425 N1422 1.350 . S
C1425 C1424 1.434 . S
C1426 C1427 1.369 . S
C1426 C1428 1.419 . S
C1426 H1430 0.930 . S
C1427 C1426 1.369 . S
C1427 C1436 1.429 . S
C1428 C1426 1.419 . S
C1428 C1429 1.363 . S
C1428 H1431 0.929 . S
C1429 C1428 1.363 . S
C1429 C1435 1.428 . S
H1430 C1426 0.930 . S
H1431 C1428 0.929 . S
S1432 N1433 1.613 . S
S1432 N1434 1.610 . S
N1433 S1432 1.613 . S
N1433 C1436 1.350 . S
N1434 S1432 1.610 . S
N1434 C1435 1.351 . S
C1435 C1429 1.428 . S
C1435 N1434 1.351 . S
C1435 C1436 1.434 . S
C1436 C1427 1.429 . S
C1436 N1433 1.350 . S
C1436 C1435 1.434 . S
C1437 C1438 1.369 . S
C1437 C1439 1.419 . S
C1437 H1441 0.930 . S
C1438 C1437 1.369 . S
C1438 C1447 1.429 . S
C1439 C1437 1.419 . S
C1439 C1440 1.363 . S
C1439 H1442 0.929 . S
C1440 C1439 1.363 . S
C1440 C1446 1.428 . S
H1441 C1437 0.930 . S
H1442 C1439 0.929 . S
S1443 N1444 1.613 . S
S1443 N1445 1.610 . S
N1444 S1443 1.613 . S
N1444 C1447 1.350 . S
N1445 S1443 1.610 . S
N1445 C1446 1.351 . S
C1446 C1440 1.428 . S
C1446 N1445 1.351 . S
C1446 C1447 1.434 . S
C1447 C1438 1.429 . S
C1447 N1444 1.350 . S
C1447 C1446 1.434 . S
C1448 C1449 1.369 . S
C1448 C1450 1.419 . S
C1448 H1452 0.930 . S
C1449 C1448 1.369 . S
C1449 C1458 1.429 . S
C1450 C1448 1.419 . S
C1450 C1451 1.363 . S
C1450 H1453 0.929 . S
C1451 C1450 1.363 . S
C1451 C1457 1.428 . S
H1452 C1448 0.930 . S
H1453 C1450 0.929 . S
S1454 N1455 1.613 . S
S1454 N1456 1.610 . S
N1455 S1454 1.613 . S
N1455 C1458 1.350 . S
N1456 S1454 1.610 . S
N1456 C1457 1.351 . S
C1457 C1451 1.428 . S
C1457 N1456 1.351 . S
C1457 C1458 1.434 . S
C1458 C1449 1.429 . S
C1458 N1455 1.350 . S
C1458 C1457 1.434 . S
C1459 C1460 1.369 . S
C1459 C1461 1.419 . S
C1459 H1463 0.930 . S
C1460 C1459 1.369 . S
C1460 C1469 1.429 . S
C1461 C1459 1.419 . S
C1461 C1462 1.363 . S
C1461 H1464 0.929 . S
C1462 C1461 1.363 . S
C1462 C1468 1.428 . S
H1463 C1459 0.930 . S
H1464 C1461 0.929 . S
S1465 N1466 1.613 . S
S1465 N1467 1.610 . S
N1466 S1465 1.613 . S
N1466 C1469 1.350 . S
N1467 S1465 1.610 . S
N1467 C1468 1.351 . S
C1468 C1462 1.428 . S
C1468 N1467 1.351 . S
C1468 C1469 1.434 . S
C1469 C1460 1.429 . S
C1469 N1466 1.350 . S
C1469 C1468 1.434 . S
C1470 C1471 1.369 . S
C1470 C1472 1.419 . S
C1470 H1474 0.930 . S
C1471 C1470 1.369 . S
C1471 C1480 1.429 . S
C1472 C1470 1.419 . S
C1472 C1473 1.363 . S
C1472 H1475 0.929 . S
C1473 C1472 1.363 . S
C1473 C1479 1.428 . S
H1474 C1470 0.930 . S
H1475 C1472 0.929 . S
S1476 N1477 1.613 . S
S1476 N1478 1.610 . S
N1477 S1476 1.613 . S
N1477 C1480 1.350 . S
N1478 S1476 1.610 . S
N1478 C1479 1.351 . S
C1479 C1473 1.428 . S
C1479 N1478 1.351 . S
C1479 C1480 1.434 . S
C1480 C1471 1.429 . S
C1480 N1477 1.350 . S
C1480 C1479 1.434 . S
C1481 C1482 1.369 . S
C1481 C1483 1.419 . S
C1481 H1485 0.930 . S
C1482 C1481 1.369 . S
C1482 C1491 1.429 . S
C1483 C1481 1.419 . S
C1483 C1484 1.363 . S
C1483 H1486 0.929 . S
C1484 C1483 1.363 . S
C1484 C1490 1.428 . S
H1485 C1481 0.930 . S
H1486 C1483 0.929 . S
S1487 N1488 1.613 . S
S1487 N1489 1.610 . S
N1488 S1487 1.613 . S
N1488 C1491 1.350 . S
N1489 S1487 1.610 . S
N1489 C1490 1.351 . S
C1490 C1484 1.428 . S
C1490 N1489 1.351 . S
C1490 C1491 1.434 . S
C1491 C1482 1.429 . S
C1491 N1488 1.350 . S
C1491 C1490 1.434 . S
C1492 C1493 1.369 . S
C1492 C1494 1.419 . S
C1492 H1496 0.930 . S
C1493 C1492 1.369 . S
C1493 C1502 1.429 . S
C1494 C1492 1.419 . S
C1494 C1495 1.363 . S
C1494 H1497 0.929 . S
C1495 C1494 1.363 . S
C1495 C1501 1.428 . S
H1496 C1492 0.930 . S
H1497 C1494 0.929 . S
S1498 N1499 1.613 . S
S1498 N1500 1.610 . S
N1499 S1498 1.613 . S
N1499 C1502 1.350 . S
N1500 S1498 1.610 . S
N1500 C1501 1.351 . S
C1501 C1495 1.428 . S
C1501 N1500 1.351 . S
C1501 C1502 1.434 . S
C1502 C1493 1.429 . S
C1502 N1499 1.350 . S
C1502 C1501 1.434 . S
C1503 C1504 1.369 . S
C1503 C1505 1.419 . S
C1503 H1507 0.930 . S
C1504 C1503 1.369 . S
C1504 C1513 1.429 . S
C1505 C1503 1.419 . S
C1505 C1506 1.363 . S
C1505 H1508 0.929 . S
C1506 C1505 1.363 . S
C1506 C1512 1.428 . S
H1507 C1503 0.930 . S
H1508 C1505 0.929 . S
S1509 N1510 1.613 . S
S1509 N1511 1.610 . S
N1510 S1509 1.613 . S
N1510 C1513 1.350 . S
N1511 S1509 1.610 . S
N1511 C1512 1.351 . S
C1512 C1506 1.428 . S
C1512 N1511 1.351 . S
C1512 C1513 1.434 . S
C1513 C1504 1.429 . S
C1513 N1510 1.350 . S
C1513 C1512 1.434 . S
C1514 C1515 1.369 . S
C1514 C1516 1.419 . S
C1514 H1518 0.930 . S
C1515 C1514 1.369 . S
C1515 C1524 1.429 . S
C1516 C1514 1.419 . S
C1516 C1517 1.363 . S
C1516 H1519 0.929 . S
C1517 C1516 1.363 . S
C1517 C1523 1.428 . S
H1518 C1514 0.930 . S
H1519 C1516 0.929 . S
S1520 N1521 1.613 . S
S1520 N1522 1.610 . S
N1521 S1520 1.613 . S
N1521 C1524 1.350 . S
N1522 S1520 1.610 . S
N1522 C1523 1.351 . S
C1523 C1517 1.428 . S
C1523 N1522 1.351 . S
C1523 C1524 1.434 . S
C1524 C1515 1.429 . S
C1524 N1521 1.350 . S
C1524 C1523 1.434 . S
C1525 C1526 1.369 . S
C1525 C1527 1.419 . S
C1525 H1529 0.930 . S
C1526 C1525 1.369 . S
C1526 C1535 1.429 . S
C1527 C1525 1.419 . S
C1527 C1528 1.363 . S
C1527 H1530 0.929 . S
C1528 C1527 1.363 . S
C1528 C1534 1.428 . S
H1529 C1525 0.930 . S
H1530 C1527 0.929 . S
S1531 N1532 1.613 . S
S1531 N1533 1.610 . S
N1532 S1531 1.613 . S
N1532 C1535 1.350 . S
N1533 S1531 1.610 . S
N1533 C1534 1.351 . S
C1534 C1528 1.428 . S
C1534 N1533 1.351 . S
C1534 C1535 1.434 . S
C1535 C1526 1.429 . S
C1535 N1532 1.350 . S
C1535 C1534 1.434 . S
C1536 C1537 1.369 . S
C1536 C1538 1.419 . S
C1536 H1540 0.930 . S
C1537 C1536 1.369 . S
C1537 C1546 1.429 . S
C1538 C1536 1.419 . S
C1538 C1539 1.363 . S
C1538 H1541 0.929 . S
C1539 C1538 1.363 . S
C1539 C1545 1.428 . S
H1540 C1536 0.930 . S
H1541 C1538 0.929 . S
S1542 N1543 1.613 . S
S1542 N1544 1.610 . S
N1543 S1542 1.613 . S
N1543 C1546 1.350 . S
N1544 S1542 1.610 . S
N1544 C1545 1.351 . S
C1545 C1539 1.428 . S
C1545 N1544 1.351 . S
C1545 C1546 1.434 . S
C1546 C1537 1.429 . S
C1546 N1543 1.350 . S
C1546 C1545 1.434 . S
C1547 C1548 1.369 . S
C1547 C1549 1.419 . S
C1547 H1551 0.930 . S
C1548 C1547 1.369 . S
C1548 C1557 1.429 . S
C1549 C1547 1.419 . S
C1549 C1550 1.363 . S
C1549 H1552 0.929 . S
C1550 C1549 1.363 . S
C1550 C1556 1.428 . S
H1551 C1547 0.930 . S
H1552 C1549 0.929 . S
S1553 N1554 1.613 . S
S1553 N1555 1.610 . S
N1554 S1553 1.613 . S
N1554 C1557 1.350 . S
N1555 S1553 1.610 . S
N1555 C1556 1.351 . S
C1556 C1550 1.428 . S
C1556 N1555 1.351 . S
C1556 C1557 1.434 . S
C1557 C1548 1.429 . S
C1557 N1554 1.350 . S
C1557 C1556 1.434 . S
C1558 C1559 1.369 . S
C1558 C1560 1.419 . S
C1558 H1562 0.930 . S
C1559 C1558 1.369 . S
C1559 C1568 1.429 . S
C1560 C1558 1.419 . S
C1560 C1561 1.363 . S
C1560 H1563 0.929 . S
C1561 C1560 1.363 . S
C1561 C1567 1.428 . S
H1562 C1558 0.930 . S
H1563 C1560 0.929 . S
S1564 N1565 1.613 . S
S1564 N1566 1.610 . S
N1565 S1564 1.613 . S
N1565 C1568 1.350 . S
N1566 S1564 1.610 . S
N1566 C1567 1.351 . S
C1567 C1561 1.428 . S
C1567 N1566 1.351 . S
C1567 C1568 1.434 . S
C1568 C1559 1.429 . S
C1568 N1565 1.350 . S
C1568 C1567 1.434 . S
C1569 C1570 1.369 . S
C1569 C1571 1.419 . S
C1569 H1573 0.930 . S
C1570 C1569 1.369 . S
C1570 C1579 1.429 . S
C1571 C1569 1.419 . S
C1571 C1572 1.363 . S
C1571 H1574 0.929 . S
C1572 C1571 1.363 . S
C1572 C1578 1.428 . S
H1573 C1569 0.930 . S
H1574 C1571 0.929 . S
S1575 N1576 1.613 . S
S1575 N1577 1.610 . S
N1576 S1575 1.613 . S
N1576 C1579 1.350 . S
N1577 S1575 1.610 . S
N1577 C1578 1.351 . S
C1578 C1572 1.428 . S
C1578 N1577 1.351 . S
C1578 C1579 1.434 . S
C1579 C1570 1.429 . S
C1579 N1576 1.350 . S
C1579 C1578 1.434 . S
C1580 C1581 1.369 . S
C1580 C1582 1.419 . S
C1580 H1584 0.930 . S
C1581 C1580 1.369 . S
C1581 C1590 1.429 . S
C1582 C1580 1.419 . S
C1582 C1583 1.363 . S
C1582 H1585 0.929 . S
C1583 C1582 1.363 . S
C1583 C1589 1.428 . S
H1584 C1580 0.930 . S
H1585 C1582 0.929 . S
S1586 N1587 1.613 . S
S1586 N1588 1.610 . S
N1587 S1586 1.613 . S
N1587 C1590 1.350 . S
N1588 S1586 1.610 . S
N1588 C1589 1.351 . S
C1589 C1583 1.428 . S
C1589 N1588 1.351 . S
C1589 C1590 1.434 . S
C1590 C1581 1.429 . S
C1590 N1587 1.350 . S
C1590 C1589 1.434 . S
C1591 C1592 1.369 . S
C1591 C1593 1.419 . S
C1591 H1595 0.930 . S
C1592 C1591 1.369 . S
C1592 C1601 1.429 . S
C1593 C1591 1.419 . S
C1593 C1594 1.363 . S
C1593 H1596 0.929 . S
C1594 C1593 1.363 . S
C1594 C1600 1.428 . S
H1595 C1591 0.930 . S
H1596 C1593 0.929 . S
S1597 N1598 1.613 . S
S1597 N1599 1.610 . S
N1598 S1597 1.613 . S
N1598 C1601 1.350 . S
N1599 S1597 1.610 . S
N1599 C1600 1.351 . S
C1600 C1594 1.428 . S
C1600 N1599 1.351 . S
C1600 C1601 1.434 . S
C1601 C1592 1.429 . S
C1601 N1598 1.350 . S
C1601 C1600 1.434 . S
C1602 C1603 1.369 . S
C1602 C1604 1.419 . S
C1602 H1606 0.930 . S
C1603 C1602 1.369 . S
C1603 C1612 1.429 . S
C1604 C1602 1.419 . S
C1604 C1605 1.363 . S
C1604 H1607 0.929 . S
C1605 C1604 1.363 . S
C1605 C1611 1.428 . S
H1606 C1602 0.930 . S
H1607 C1604 0.929 . S
S1608 N1609 1.613 . S
S1608 N1610 1.610 . S
N1609 S1608 1.613 . S
N1609 C1612 1.350 . S
N1610 S1608 1.610 . S
N1610 C1611 1.351 . S
C1611 C1605 1.428 . S
C1611 N1610 1.351 . S
C1611 C1612 1.434 . S
C1612 C1603 1.429 . S
C1612 N1609 1.350 . S
C1612 C1611 1.434 . S
C1613 C1614 1.369 . S
C1613 C1615 1.419 . S
C1613 H1617 0.930 . S
C1614 C1613 1.369 . S
C1614 C1623 1.429 . S
C1615 C1613 1.419 . S
C1615 C1616 1.363 . S
C1615 H1618 0.929 . S
C1616 C1615 1.363 . S
C1616 C1622 1.428 . S
H1617 C1613 0.930 . S
H1618 C1615 0.929 . S
S1619 N1620 1.613 . S
S1619 N1621 1.610 . S
N1620 S1619 1.613 . S
N1620 C1623 1.350 . S
N1621 S1619 1.610 . S
N1621 C1622 1.351 . S
C1622 C1616 1.428 . S
C1622 N1621 1.351 . S
C1622 C1623 1.434 . S
C1623 C1614 1.429 . S
C1623 N1620 1.350 . S
C1623 C1622 1.434 . S
C1624 C1625 1.369 . S
C1624 C1626 1.419 . S
C1624 H1628 0.930 . S
C1625 C1624 1.369 . S
C1625 C1634 1.429 . S
C1626 C1624 1.419 . S
C1626 C1627 1.363 . S
C1626 H1629 0.929 . S
C1627 C1626 1.363 . S
C1627 C1633 1.428 . S
H1628 C1624 0.930 . S
H1629 C1626 0.929 . S
S1630 N1631 1.613 . S
S1630 N1632 1.610 . S
N1631 S1630 1.613 . S
N1631 C1634 1.350 . S
N1632 S1630 1.610 . S
N1632 C1633 1.351 . S
C1633 C1627 1.428 . S
C1633 N1632 1.351 . S
C1633 C1634 1.434 . S
C1634 C1625 1.429 . S
C1634 N1631 1.350 . S
C1634 C1633 1.434 . S
C1635 C1636 1.369 . S
C1635 C1637 1.419 . S
C1635 H1639 0.930 . S
C1636 C1635 1.369 . S
C1636 C1645 1.429 . S
C1637 C1635 1.419 . S
C1637 C1638 1.363 . S
C1637 H1640 0.929 . S
C1638 C1637 1.363 . S
C1638 C1644 1.428 . S
H1639 C1635 0.930 . S
H1640 C1637 0.929 . S
S1641 N1642 1.613 . S
S1641 N1643 1.610 . S
N1642 S1641 1.613 . S
N1642 C1645 1.350 . S
N1643 S1641 1.610 . S
N1643 C1644 1.351 . S
C1644 C1638 1.428 . S
C1644 N1643 1.351 . S
C1644 C1645 1.434 . S
C1645 C1636 1.429 . S
C1645 N1642 1.350 . S
C1645 C1644 1.434 . S
C1646 C1647 1.369 . S
C1646 C1648 1.419 . S
C1646 H1650 0.930 . S
C1647 C1646 1.369 . S
C1647 C1656 1.429 . S
C1648 C1646 1.419 . S
C1648 C1649 1.363 . S
C1648 H1651 0.929 . S
C1649 C1648 1.363 . S
C1649 C1655 1.428 . S
H1650 C1646 0.930 . S
H1651 C1648 0.929 . S
S1652 N1653 1.613 . S
S1652 N1654 1.610 . S
N1653 S1652 1.613 . S
N1653 C1656 1.350 . S
N1654 S1652 1.610 . S
N1654 C1655 1.351 . S
C1655 C1649 1.428 . S
C1655 N1654 1.351 . S
C1655 C1656 1.434 . S
C1656 C1647 1.429 . S
C1656 N1653 1.350 . S
C1656 C1655 1.434 . S
C1657 C1658 1.369 . S
C1657 C1659 1.419 . S
C1657 H1661 0.930 . S
C1658 C1657 1.369 . S
C1658 C1667 1.429 . S
C1659 C1657 1.419 . S
C1659 C1660 1.363 . S
C1659 H1662 0.929 . S
C1660 C1659 1.363 . S
C1660 C1666 1.428 . S
H1661 C1657 0.930 . S
H1662 C1659 0.929 . S
S1663 N1664 1.613 . S
S1663 N1665 1.610 . S
N1664 S1663 1.613 . S
N1664 C1667 1.350 . S
N1665 S1663 1.610 . S
N1665 C1666 1.351 . S
C1666 C1660 1.428 . S
C1666 N1665 1.351 . S
C1666 C1667 1.434 . S
C1667 C1658 1.429 . S
C1667 N1664 1.350 . S
C1667 C1666 1.434 . S
C1668 C1669 1.369 . S
C1668 C1670 1.419 . S
C1668 H1672 0.930 . S
C1669 C1668 1.369 . S
C1669 C1678 1.429 . S
C1670 C1668 1.419 . S
C1670 C1671 1.363 . S
C1670 H1673 0.929 . S
C1671 C1670 1.363 . S
C1671 C1677 1.428 . S
H1672 C1668 0.930 . S
H1673 C1670 0.929 . S
S1674 N1675 1.613 . S
S1674 N1676 1.610 . S
N1675 S1674 1.613 . S
N1675 C1678 1.350 . S
N1676 S1674 1.610 . S
N1676 C1677 1.351 . S
C1677 C1671 1.428 . S
C1677 N1676 1.351 . S
C1677 C1678 1.434 . S
C1678 C1669 1.429 . S
C1678 N1675 1.350 . S
C1678 C1677 1.434 . S
C1679 C1680 1.369 . S
C1679 C1681 1.419 . S
C1679 H1683 0.930 . S
C1680 C1679 1.369 . S
C1680 C1689 1.429 . S
C1681 C1679 1.419 . S
C1681 C1682 1.363 . S
C1681 H1684 0.929 . S
C1682 C1681 1.363 . S
C1682 C1688 1.428 . S
H1683 C1679 0.930 . S
H1684 C1681 0.929 . S
S1685 N1686 1.613 . S
S1685 N1687 1.610 . S
N1686 S1685 1.613 . S
N1686 C1689 1.350 . S
N1687 S1685 1.610 . S
N1687 C1688 1.351 . S
C1688 C1682 1.428 . S
C1688 N1687 1.351 . S
C1688 C1689 1.434 . S
C1689 C1680 1.429 . S
C1689 N1686 1.350 . S
C1689 C1688 1.434 . S
C1690 C1691 1.369 . S
C1690 C1692 1.419 . S
C1690 H1694 0.930 . S
C1691 C1690 1.369 . S
C1691 C1700 1.429 . S
C1692 C1690 1.419 . S
C1692 C1693 1.363 . S
C1692 H1695 0.929 . S
C1693 C1692 1.363 . S
C1693 C1699 1.428 . S
H1694 C1690 0.930 . S
H1695 C1692 0.929 . S
S1696 N1697 1.613 . S
S1696 N1698 1.610 . S
N1697 S1696 1.613 . S
N1697 C1700 1.350 . S
N1698 S1696 1.610 . S
N1698 C1699 1.351 . S
C1699 C1693 1.428 . S
C1699 N1698 1.351 . S
C1699 C1700 1.434 . S
C1700 C1691 1.429 . S
C1700 N1697 1.350 . S
C1700 C1699 1.434 . S
C1701 C1702 1.369 . S
C1701 C1703 1.419 . S
C1701 H1705 0.930 . S
C1702 C1701 1.369 . S
C1702 C1711 1.429 . S
C1703 C1701 1.419 . S
C1703 C1704 1.363 . S
C1703 H1706 0.929 . S
C1704 C1703 1.363 . S
C1704 C1710 1.428 . S
H1705 C1701 0.930 . S
H1706 C1703 0.929 . S
S1707 N1708 1.613 . S
S1707 N1709 1.610 . S
N1708 S1707 1.613 . S
N1708 C1711 1.350 . S
N1709 S1707 1.610 . S
N1709 C1710 1.351 . S
C1710 C1704 1.428 . S
C1710 N1709 1.351 . S
C1710 C1711 1.434 . S
C1711 C1702 1.429 . S
C1711 N1708 1.350 . S
C1711 C1710 1.434 . S
C1712 C1713 1.369 . S
C1712 C1714 1.419 . S
C1712 H1716 0.930 . S
C1713 C1712 1.369 . S
C1713 C1722 1.429 . S
C1714 C1712 1.419 . S
C1714 C1715 1.363 . S
C1714 H1717 0.929 . S
C1715 C1714 1.363 . S
C1715 C1721 1.428 . S
H1716 C1712 0.930 . S
H1717 C1714 0.929 . S
S1718 N1719 1.613 . S
S1718 N1720 1.610 . S
N1719 S1718 1.613 . S
N1719 C1722 1.350 . S
N1720 S1718 1.610 . S
N1720 C1721 1.351 . S
C1721 C1715 1.428 . S
C1721 N1720 1.351 . S
C1721 C1722 1.434 . S
C1722 C1713 1.429 . S
C1722 N1719 1.350 . S
C1722 C1721 1.434 . S
C1723 C1724 1.369 . S
C1723 C1725 1.419 . S
C1723 H1727 0.930 . S
C1724 C1723 1.369 . S
C1724 C1733 1.429 . S
C1725 C1723 1.419 . S
C1725 C1726 1.363 . S
C1725 H1728 0.929 . S
C1726 C1725 1.363 . S
C1726 C1732 1.428 . S
H1727 C1723 0.930 . S
H1728 C1725 0.929 . S
S1729 N1730 1.613 . S
S1729 N1731 1.610 . S
N1730 S1729 1.613 . S
N1730 C1733 1.350 . S
N1731 S1729 1.610 . S
N1731 C1732 1.351 . S
C1732 C1726 1.428 . S
C1732 N1731 1.351 . S
C1732 C1733 1.434 . S
C1733 C1724 1.429 . S
C1733 N1730 1.350 . S
C1733 C1732 1.434 . S
C1734 C1735 1.369 . S
C1734 C1736 1.419 . S
C1734 H1738 0.930 . S
C1735 C1734 1.369 . S
C1735 C1744 1.429 . S
C1736 C1734 1.419 . S
C1736 C1737 1.363 . S
C1736 H1739 0.929 . S
C1737 C1736 1.363 . S
C1737 C1743 1.428 . S
H1738 C1734 0.930 . S
H1739 C1736 0.929 . S
S1740 N1741 1.613 . S
S1740 N1742 1.610 . S
N1741 S1740 1.613 . S
N1741 C1744 1.350 . S
N1742 S1740 1.610 . S
N1742 C1743 1.351 . S
C1743 C1737 1.428 . S
C1743 N1742 1.351 . S
C1743 C1744 1.434 . S
C1744 C1735 1.429 . S
C1744 N1741 1.350 . S
C1744 C1743 1.434 . S
C1745 C1746 1.369 . S
C1745 C1747 1.419 . S
C1745 H1749 0.930 . S
C1746 C1745 1.369 . S
C1746 C1755 1.429 . S
C1747 C1745 1.419 . S
C1747 C1748 1.363 . S
C1747 H1750 0.929 . S
C1748 C1747 1.363 . S
C1748 C1754 1.428 . S
H1749 C1745 0.930 . S
H1750 C1747 0.929 . S
S1751 N1752 1.613 . S
S1751 N1753 1.610 . S
N1752 S1751 1.613 . S
N1752 C1755 1.350 . S
N1753 S1751 1.610 . S
N1753 C1754 1.351 . S
C1754 C1748 1.428 . S
C1754 N1753 1.351 . S
C1754 C1755 1.434 . S
C1755 C1746 1.429 . S
C1755 N1752 1.350 . S
C1755 C1754 1.434 . S
C1756 C1757 1.369 . S
C1756 C1758 1.419 . S
C1756 H1760 0.930 . S
C1757 C1756 1.369 . S
C1757 C1766 1.429 . S
C1758 C1756 1.419 . S
C1758 C1759 1.363 . S
C1758 H1761 0.929 . S
C1759 C1758 1.363 . S
C1759 C1765 1.428 . S
H1760 C1756 0.930 . S
H1761 C1758 0.929 . S
S1762 N1763 1.613 . S
S1762 N1764 1.610 . S
N1763 S1762 1.613 . S
N1763 C1766 1.350 . S
N1764 S1762 1.610 . S
N1764 C1765 1.351 . S
C1765 C1759 1.428 . S
C1765 N1764 1.351 . S
C1765 C1766 1.434 . S
C1766 C1757 1.429 . S
C1766 N1763 1.350 . S
C1766 C1765 1.434 . S
C1767 C1768 1.369 . S
C1767 C1769 1.419 . S
C1767 H1771 0.930 . S
C1768 C1767 1.369 . S
C1768 C1777 1.429 . S
C1769 C1767 1.419 . S
C1769 C1770 1.363 . S
C1769 H1772 0.929 . S
C1770 C1769 1.363 . S
C1770 C1776 1.428 . S
H1771 C1767 0.930 . S
H1772 C1769 0.929 . S
S1773 N1774 1.613 . S
S1773 N1775 1.610 . S
N1774 S1773 1.613 . S
N1774 C1777 1.350 . S
N1775 S1773 1.610 . S
N1775 C1776 1.351 . S
C1776 C1770 1.428 . S
C1776 N1775 1.351 . S
C1776 C1777 1.434 . S
C1777 C1768 1.429 . S
C1777 N1774 1.350 . S
C1777 C1776 1.434 . S
C1778 C1779 1.369 . S
C1778 C1780 1.419 . S
C1778 H1782 0.930 . S
C1779 C1778 1.369 . S
C1779 C1788 1.429 . S
C1780 C1778 1.419 . S
C1780 C1781 1.363 . S
C1780 H1783 0.929 . S
C1781 C1780 1.363 . S
C1781 C1787 1.428 . S
H1782 C1778 0.930 . S
H1783 C1780 0.929 . S
S1784 N1785 1.613 . S
S1784 N1786 1.610 . S
N1785 S1784 1.613 . S
N1785 C1788 1.350 . S
N1786 S1784 1.610 . S
N1786 C1787 1.351 . S
C1787 C1781 1.428 . S
C1787 N1786 1.351 . S
C1787 C1788 1.434 . S
C1788 C1779 1.429 . S
C1788 N1785 1.350 . S
C1788 C1787 1.434 . S
C1789 C1790 1.369 . S
C1789 C1791 1.419 . S
C1789 H1793 0.930 . S
C1790 C1789 1.369 . S
C1790 C1799 1.429 . S
C1791 C1789 1.419 . S
C1791 C1792 1.363 . S
C1791 H1794 0.929 . S
C1792 C1791 1.363 . S
C1792 C1798 1.428 . S
H1793 C1789 0.930 . S
H1794 C1791 0.929 . S
S1795 N1796 1.613 . S
S1795 N1797 1.610 . S
N1796 S1795 1.613 . S
N1796 C1799 1.350 . S
N1797 S1795 1.610 . S
N1797 C1798 1.351 . S
C1798 C1792 1.428 . S
C1798 N1797 1.351 . S
C1798 C1799 1.434 . S
C1799 C1790 1.429 . S
C1799 N1796 1.350 . S
C1799 C1798 1.434 . S
C1273 C1205 1.901 . S
C1275 C39 1.901 . S
C1284 C92 1.473 . S
C1286 C1241 1.473 . S
C1295 C1098 1.595 . S
C1297 C128 1.595 . S
C1306 C1142 1.354 . S
C1308 C188 1.358 . S
C1317 C1135 1.299 . S
C1319 C234 1.296 . S
C1328 C304 1.853 . S
C1330 C1204 1.858 . S
C1339 C1248 1.477 . S
C1341 C356 1.481 . S
C1350 C393 1.713 . S
C1352 C1099 1.714 . S
C1361 C462 1.717 . S
C1363 C1029 1.717 . S
C1372 C886 1.513 . S
C1374 C499 1.516 . S
C1383 C552 1.669 . S
C1385 C939 1.670 . S
C1394 C992 1.601 . S
C1396 C622 1.603 . S
C1405 C621 1.574 . S
C1407 C727 1.573 . S
C1416 C463 1.717 . S
C1418 C781 1.718 . S
C1427 C824 1.334 . S
C1429 C506 1.335 . S
C1438 C559 1.685 . S
C1440 C665 1.685 . S
C1449 C91 1.622 . S
C1451 C993 1.619 . S
C1460 C780 1.691 . S
C1462 C400 1.691 . S
C1471 C241 1.220 . S
C1473 C817 1.226 . S
C1482 C658 1.834 . S
C1484 C303 1.834 . S
C1493 C357 1.584 . S
C1495 C728 1.581 . S
C1504 C181 1.379 . S
C1506 C887 1.381 . S
C1515 C38 1.878 . S
C1517 C940 1.880 . S
C1526 C135 1.520 . S
C1528 C1036 1.520 . S
C1537 C347 1.287 . S
C1539 C1089 1.287 . S
C1548 C1151 1.519 . S
C1550 C410 1.519 . S
C1559 C1188 1.421 . S
C1561 C251 1.421 . S
C1570 C1258 1.723 . S
C1572 C287 1.719 . S
C1581 C145 1.854 . S
C1583 C1257 1.855 . S
C1592 C197 1.226 . S
C1594 C1082 1.224 . S
C1603 C22 1.535 . S
C1605 C1152 1.537 . S
C1614 C1195 1.363 . S
C1616 C75 1.362 . S
C1625 C569 1.482 . S
C1627 C718 1.482 . S
C1636 C605 1.584 . S
C1638 C764 1.582 . S
C1647 C453 1.177 . S
C1649 C833 1.179 . S
C1658 C516 1.527 . S
C1660 C674 1.530 . S
C1669 C515 1.573 . S
C1671 C1046 1.566 . S
C1680 C877 1.256 . S
C1682 C568 1.257 . S
C1691 C612 1.573 . S
C1693 C930 1.577 . S
C1702 C446 1.249 . S
C1704 C983 1.255 . S
C1713 C675 1.596 . S
C1715 C409 1.599 . S
C1724 C870 1.256 . S
C1726 C82 1.257 . S
C1735 C144 1.674 . S
C1737 C923 1.669 . S
C1746 C976 1.270 . S
C1748 C198 1.269 . S
C1757 C1045 1.600 . S
C1759 C29 1.599 . S
C1768 C294 1.498 . S
C1770 C771 1.495 . S
C1779 C834 1.310 . S
C1781 C340 1.306 . S
C1790 C711 1.429 . S
C1792 C250 1.432 . S
