# Generated by pormake.
# Topology zfc, (5)-cn, num edge types: 1
# Building blocks:
#     Node 0, Type 0, BuildingBlock: XOMCOT_clean_sbu_0, # of connection points: 5
#     Node 1, Type 0, BuildingBlock: XOMCOT_clean_sbu_0, # of connection points: 5
#     Node 2, Type 0, BuildingBlock: XOMCOT_clean_sbu_0, # of connection points: 5
#     Node 3, Type 0, BuildingBlock: XOMCOT_clean_sbu_0, # of connection points: 5
#     Node 4, Type 0, BuildingBlock: XOMCOT_clean_sbu_0, # of connection points: 5
#     Node 5, Type 0, BuildingBlock: XOMCOT_clean_sbu_0, # of connection points: 5
#     Node 6, Type 0, BuildingBlock: XOMCOT_clean_sbu_0, # of connection points: 5
#     Node 7, Type 0, BuildingBlock: XOMCOT_clean_sbu_0, # of connection points: 5
#     Node 8, Type 0, BuildingBlock: XOMCOT_clean_sbu_0, # of connection points: 5
#     Node 9, Type 0, BuildingBlock: XOMCOT_clean_sbu_0, # of connection points: 5
#     Node 10, Type 0, BuildingBlock: XOMCOT_clean_sbu_0, # of connection points: 5
#     Node 11, Type 0, BuildingBlock: XOMCOT_clean_sbu_0, # of connection points: 5
#     Node 12, Type 0, BuildingBlock: XOMCOT_clean_sbu_0, # of connection points: 5
#     Node 13, Type 0, BuildingBlock: XOMCOT_clean_sbu_0, # of connection points: 5
#     Node 14, Type 0, BuildingBlock: XOMCOT_clean_sbu_0, # of connection points: 5
#     Node 15, Type 0, BuildingBlock: XOMCOT_clean_sbu_0, # of connection points: 5
#     Edge 16, Type (0, 0), BuildingBlock: AJUNOK_clean_linker_0, # of connection points: 2
#     Edge 17, Type (0, 0), BuildingBlock: AJUNOK_clean_linker_0, # of connection points: 2
#     Edge 18, Type (0, 0), BuildingBlock: AJUNOK_clean_linker_0, # of connection points: 2
#     Edge 19, Type (0, 0), BuildingBlock: AJUNOK_clean_linker_0, # of connection points: 2
#     Edge 20, Type (0, 0), BuildingBlock: AJUNOK_clean_linker_0, # of connection points: 2
#     Edge 21, Type (0, 0), BuildingBlock: AJUNOK_clean_linker_0, # of connection points: 2
#     Edge 22, Type (0, 0), BuildingBlock: AJUNOK_clean_linker_0, # of connection points: 2
#     Edge 23, Type (0, 0), BuildingBlock: AJUNOK_clean_linker_0, # of connection points: 2
#     Edge 24, Type (0, 0), BuildingBlock: AJUNOK_clean_linker_0, # of connection points: 2
#     Edge 25, Type (0, 0), BuildingBlock: AJUNOK_clean_linker_0, # of connection points: 2
#     Edge 26, Type (0, 0), BuildingBlock: AJUNOK_clean_linker_0, # of connection points: 2
#     Edge 27, Type (0, 0), BuildingBlock: AJUNOK_clean_linker_0, # of connection points: 2
#     Edge 28, Type (0, 0), BuildingBlock: AJUNOK_clean_linker_0, # of connection points: 2
#     Edge 29, Type (0, 0), BuildingBlock: AJUNOK_clean_linker_0, # of connection points: 2
#     Edge 30, Type (0, 0), BuildingBlock: AJUNOK_clean_linker_0, # of connection points: 2
#     Edge 31, Type (0, 0), BuildingBlock: AJUNOK_clean_linker_0, # of connection points: 2
#     Edge 32, Type (0, 0), BuildingBlock: AJUNOK_clean_linker_0, # of connection points: 2
#     Edge 33, Type (0, 0), BuildingBlock: AJUNOK_clean_linker_0, # of connection points: 2
#     Edge 34, Type (0, 0), BuildingBlock: AJUNOK_clean_linker_0, # of connection points: 2
#     Edge 35, Type (0, 0), BuildingBlock: AJUNOK_clean_linker_0, # of connection points: 2
#     Edge 36, Type (0, 0), BuildingBlock: AJUNOK_clean_linker_0, # of connection points: 2
#     Edge 37, Type (0, 0), BuildingBlock: AJUNOK_clean_linker_0, # of connection points: 2
#     Edge 38, Type (0, 0), BuildingBlock: AJUNOK_clean_linker_0, # of connection points: 2
#     Edge 39, Type (0, 0), BuildingBlock: AJUNOK_clean_linker_0, # of connection points: 2
#     Edge 40, Type (0, 0), BuildingBlock: AJUNOK_clean_linker_0, # of connection points: 2
#     Edge 41, Type (0, 0), BuildingBlock: AJUNOK_clean_linker_0, # of connection points: 2
#     Edge 42, Type (0, 0), BuildingBlock: AJUNOK_clean_linker_0, # of connection points: 2
#     Edge 43, Type (0, 0), BuildingBlock: AJUNOK_clean_linker_0, # of connection points: 2
#     Edge 44, Type (0, 0), BuildingBlock: AJUNOK_clean_linker_0, # of connection points: 2
#     Edge 45, Type (0, 0), BuildingBlock: AJUNOK_clean_linker_0, # of connection points: 2
#     Edge 46, Type (0, 0), BuildingBlock: AJUNOK_clean_linker_0, # of connection points: 2
#     Edge 47, Type (0, 0), BuildingBlock: AJUNOK_clean_linker_0, # of connection points: 2
#     Edge 48, Type (0, 0), BuildingBlock: AJUNOK_clean_linker_0, # of connection points: 2
#     Edge 49, Type (0, 0), BuildingBlock: AJUNOK_clean_linker_0, # of connection points: 2
#     Edge 50, Type (0, 0), BuildingBlock: AJUNOK_clean_linker_0, # of connection points: 2
#     Edge 51, Type (0, 0), BuildingBlock: AJUNOK_clean_linker_0, # of connection points: 2
#     Edge 52, Type (0, 0), BuildingBlock: AJUNOK_clean_linker_0, # of connection points: 2
#     Edge 53, Type (0, 0), BuildingBlock: AJUNOK_clean_linker_0, # of connection points: 2
#     Edge 54, Type (0, 0), BuildingBlock: AJUNOK_clean_linker_0, # of connection points: 2
#     Edge 55, Type (0, 0), BuildingBlock: AJUNOK_clean_linker_0, # of connection points: 2
# Relax obj value: 0.132
# Max RMSD: 0.149
# Mean RMSD: 0.149
data_MOF--net-zfc--node1-XOMCOT_clean_sbu_0--edge1-AJUNOK_clean_linker_0
_symmetry_space_group_name_H-M    P1
_symmetry_Int_Tables_number       1
_symmetry_cell_setting            triclinic
loop_
_symmetry_equiv_pos_as_xyz
'x, y, z'
_cell_length_a     56.342512
_cell_length_b     56.377442
_cell_length_c     13.583092
_cell_angle_alpha  89.907491
_cell_angle_beta   89.951315
_cell_angle_gamma 89.9545
loop_
_atom_site_label
_atom_site_type_symbol
_atom_site_fract_x
_atom_site_fract_y
_atom_site_fract_z
_atom_type_partial_charge
Co0 Co 0.28566 0.09378 0.1055 0.0
C1 C 0.28549 0.09529 0.88595 0.0
C2 C 0.32035 0.09982 0.94547 0.0
C3 C 0.32212 0.09889 0.8444 0.0
N4 N 0.29727 0.09823 0.9717 0.0
N5 N 0.30019 0.0958 0.8075 0.0
H6 H 0.26678 0.09178 0.88018 0.0
H7 H 0.33503 0.10063 0.99656 0.0
C8 C 0.31598 0.13697 0.1199 0.0
O9 O 0.30586 0.14399 0.03769 0.0
N10 N 0.27462 0.08863 0.23808 0.0
C11 C 0.25214 0.08423 0.2663 0.0
C12 C 0.25152 0.0827 0.36749 0.0
C13 C 0.28741 0.0896 0.32175 0.0
N14 N 0.27373 0.08601 0.40206 0.0
C15 C 0.24304 0.11554 0.03041 0.0
C16 C 0.24527 0.15637 0.14225 0.0
C17 C 0.22706 0.1539 0.07327 0.0
C18 C 0.2256 0.13294 0.01891 0.0
C19 C 0.26206 0.13828 0.15283 0.0
N20 N 0.26188 0.11891 0.09206 0.0
H21 H 0.24084 0.09904 0.99182 0.0
H22 H 0.27499 0.13982 0.21099 0.0
H23 H 0.23717 0.08281 0.21686 0.0
H24 H 0.3063 0.09295 0.32397 0.0
O25 O 0.26682 0.06737 0.06148 0.0
O26 O 0.30406 0.06464 0.11182 0.0
O27 O 0.31027 0.11691 0.1572 0.0
C28 C 0.28524 0.05406 0.07747 0.0
H29 H 0.33833 0.09927 0.8016 0.0
H30 H 0.23581 0.08023 0.41217 0.0
H31 H 0.24625 0.17194 0.18876 0.0
H32 H 0.21112 0.13006 0.9679 0.0
Co33 Co 0.91491 0.2826 0.09995 0.0
C34 C 0.91301 0.28224 0.88387 0.0
C35 C 0.90457 0.31677 0.94039 0.0
C36 C 0.9044 0.31774 0.83883 0.0
N37 N 0.90988 0.29446 0.9681 0.0
N38 N 0.90965 0.29598 0.8035 0.0
H39 H 0.91859 0.26388 0.88196 0.0
H40 H 0.90158 0.3314 0.99026 0.0
C41 C 0.87367 0.30114 0.21247 0.0
O42 O 0.87046 0.27906 0.24073 0.0
N43 N 0.92103 0.27108 0.23386 0.0
C44 C 0.93166 0.25062 0.26165 0.0
C45 C 0.93297 0.24976 0.36279 0.0
C46 C 0.91791 0.28311 0.31919 0.0
N47 N 0.92403 0.27012 0.39868 0.0
C48 C 0.89481 0.23544 0.08726 0.0
C49 C 0.8508 0.24947 0.01858 0.0
C50 C 0.85489 0.22545 0.03792 0.0
C51 C 0.87727 0.2184 0.07123 0.0
C52 C 0.86871 0.26599 0.03749 0.0
N53 N 0.89008 0.25904 0.07608 0.0
H54 H 0.91229 0.22944 0.10592 0.0
H55 H 0.86531 0.28448 0.02191 0.0
H56 H 0.93908 0.23751 0.21274 0.0
H57 H 0.91131 0.30107 0.3239 0.0
O58 O 0.94164 0.2647 0.05284 0.0
O59 O 0.9436 0.30159 0.10852 0.0
O60 O 0.89079 0.30617 0.15373 0.0
C61 C 0.95455 0.28324 0.07161 0.0
H62 H 0.9009 0.33332 0.79445 0.0
H63 H 0.94048 0.23555 0.40649 0.0
H64 H 0.83382 0.25543 0.99047 0.0
H65 H 0.88128 0.19982 0.08307 0.0
Co66 Co 0.7222 0.91332 0.08563 0.0
C67 C 0.72156 0.91179 0.86575 0.0
C68 C 0.68676 0.90892 0.92787 0.0
C69 C 0.6847 0.90955 0.82688 0.0
N70 N 0.70994 0.9097 0.95249 0.0
N71 N 0.70663 0.91153 0.78804 0.0
H72 H 0.74031 0.91497 0.85857 0.0
H73 H 0.67224 0.90848 0.97997 0.0
C74 C 0.69029 0.87099 0.10149 0.0
O75 O 0.69931 0.86373 0.01749 0.0
N76 N 0.73384 0.91754 0.21786 0.0
C77 C 0.75659 0.91973 0.24665 0.0
C78 C 0.75718 0.92054 0.34809 0.0
C79 C 0.72091 0.91735 0.30132 0.0
N80 N 0.73472 0.91909 0.38219 0.0
C81 C 0.76421 0.89173 1.00533 0.0
C82 C 0.76151 0.84942 0.10714 0.0
C83 C 0.7795 0.85229 0.03665 0.0
C84 C 0.78116 0.87416 0.98806 0.0
C85 C 0.74508 0.86766 0.12309 0.0
N86 N 0.74549 0.88788 0.0672 0.0
H87 H 0.76669 0.90874 0.97075 0.0
H88 H 0.73226 0.86551 0.18144 0.0
H89 H 0.7717 0.92014 0.19748 0.0
H90 H 0.70187 0.9152 0.30275 0.0
O91 O 0.74122 0.93972 0.04202 0.0
O92 O 0.70426 0.94266 0.09583 0.0
O93 O 0.69738 0.89056 0.13864 0.0
C94 C 0.72302 0.95316 0.06041 0.0
H95 H 0.6683 0.90873 0.78564 0.0
H96 H 0.77293 0.92188 0.39334 0.0
H97 H 0.7601 0.83322 0.14972 0.0
H98 H 0.79576 0.87793 0.93856 0.0
Co99 Co 0.09314 0.72172 0.08801 0.0
C100 C 0.09447 0.72113 0.86765 0.0
C101 C 0.10104 0.68693 0.93043 0.0
C102 C 0.101 0.68474 0.82951 0.0
N103 N 0.09773 0.70992 0.95465 0.0
N104 N 0.09695 0.70632 0.79041 0.0
H105 H 0.08932 0.7394 0.85966 0.0
H106 H 0.10262 0.67253 0.9827 0.0
C107 C 0.13771 0.69362 0.10457 0.0
O108 O 0.14454 0.70415 0.02292 0.0
N109 N 0.08801 0.73261 0.22056 0.0
C110 C 0.08301 0.75484 0.25025 0.0
C111 C 0.08249 0.75512 0.35176 0.0
C112 C 0.09026 0.71967 0.30339 0.0
N113 N 0.0873 0.73304 0.38476 0.0
C114 C 0.11406 0.76409 1.0067 0.0
C115 C 0.15384 0.76499 0.12522 0.0
C116 C 0.15133 0.78237 0.05207 0.0
C117 C 0.13098 0.78186 0.99301 0.0
C118 C 0.13646 0.74744 0.13605 0.0
N119 N 0.11757 0.7462 0.07291 0.0
H120 H 0.09776 0.76536 0.96615 0.0
H121 H 0.13813 0.73505 0.19634 0.0
H122 H 0.08052 0.76984 0.20161 0.0
H123 H 0.09402 0.70085 0.30397 0.0
O124 O 0.06612 0.73986 0.04461 0.0
O125 O 0.06448 0.70262 0.09613 0.0
O126 O 0.11712 0.6979 0.13995 0.0
C127 C 0.05329 0.72121 0.06252 0.0
H128 H 0.10273 0.66841 0.78835 0.0
H129 H 0.07954 0.7705 0.3978 0.0
H130 H 0.16884 0.76525 0.17505 0.0
H131 H 0.12802 0.79517 0.93674 0.0
Co132 Co 0.28429 0.9134 0.95768 0.0
C133 C 0.28498 0.91263 0.17776 0.0
C134 C 0.3193 0.90621 0.11589 0.0
C135 C 0.32145 0.90687 0.21684 0.0
N136 N 0.29627 0.90908 0.09113 0.0
N137 N 0.29981 0.91103 0.25546 0.0
H138 H 0.26671 0.91792 0.18493 0.0
H139 H 0.33374 0.90437 0.064 0.0
C140 C 0.31399 0.86964 0.94115 0.0
O141 O 0.30371 0.86235 0.02268 0.0
N142 N 0.27304 0.91836 0.82527 0.0
C143 C 0.25051 0.92227 0.79652 0.0
C144 C 0.25 0.92333 0.69513 0.0
C145 C 0.28595 0.91738 0.74186 0.0
N146 N 0.27231 0.9203 0.66104 0.0
C147 C 0.24215 0.89223 0.03946 0.0
C148 C 0.24181 0.85206 0.92353 0.0
C149 C 0.22415 0.85478 0.99539 0.0
C150 C 0.22442 0.87529 0.05332 0.0
C151 C 0.25934 0.86946 0.91251 0.0
N152 N 0.2602 0.88866 0.97401 0.0
H153 H 0.24071 0.90863 0.07917 0.0
H154 H 0.27192 0.86764 0.853 0.0
H155 H 0.23547 0.9237 0.84571 0.0
H156 H 0.30478 0.91382 0.74038 0.0
O157 O 0.26592 0.94023 1.00121 0.0
O158 O 0.3031 0.94218 0.94885 0.0
O159 O 0.30845 0.88988 0.90525 0.0
C160 C 0.2845 0.95317 0.98325 0.0
H161 H 0.33769 0.90459 0.2582 0.0
H162 H 0.2344 0.92591 0.6499 0.0
H163 H 0.24175 0.83689 0.87468 0.0
H164 H 0.21094 0.87838 0.10868 0.0
Co165 Co 0.09468 0.28318 0.9393 0.0
C166 C 0.09537 0.28338 0.15582 0.0
C167 C 0.10629 0.31713 0.09809 0.0
C168 C 0.10575 0.31847 0.19961 0.0
N169 N 0.09984 0.29508 0.0711 0.0
N170 N 0.0986 0.29731 0.23537 0.0
H171 H 0.08964 0.26507 0.15904 0.0
H172 H 0.11048 0.3314 0.04774 0.0
C173 C 0.13541 0.30161 0.82418 0.0
O174 O 0.13848 0.27938 0.79794 0.0
N175 N 0.08835 0.27177 0.80554 0.0
C176 C 0.07789 0.25133 0.77715 0.0
C177 C 0.07569 0.25118 0.67615 0.0
C178 C 0.09062 0.28437 0.72102 0.0
N179 N 0.08381 0.27199 0.64092 0.0
C180 C 0.11525 0.23619 0.95247 0.0
C181 C 0.15891 0.25057 0.02288 0.0
C182 C 0.15518 0.22636 1.00505 0.0
C183 C 0.13283 0.21926 0.97063 0.0
C184 C 0.14098 0.26695 1.00171 0.0
N185 N 0.11975 0.25982 0.96284 0.0
H186 H 0.09788 0.23006 0.93302 0.0
H187 H 0.1442 0.28548 1.01679 0.0
H188 H 0.07121 0.23771 0.8256 0.0
H189 H 0.0966 0.30257 0.71769 0.0
O190 O 0.06828 0.26502 0.98757 0.0
O191 O 0.06571 0.30187 0.93184 0.0
O192 O 0.11851 0.30687 0.88369 0.0
C193 C 0.05508 0.28342 0.96976 0.0
H194 H 0.10951 0.33402 0.24361 0.0
H195 H 0.06881 0.23672 0.63237 0.0
H196 H 0.17537 0.25686 0.05443 0.0
H197 H 0.12882 0.20073 0.95818 0.0
Co198 Co 0.72376 0.0936 0.934 0.0
C199 C 0.72409 0.09664 0.15319 0.0
C200 C 0.68894 0.09852 0.09411 0.0
C201 C 0.68742 0.09888 0.19534 0.0
N202 N 0.71201 0.09774 0.06751 0.0
N203 N 0.7096 0.09785 0.23219 0.0
H204 H 0.74284 0.09332 0.15878 0.0
H205 H 0.67417 0.09828 0.04329 0.0
C206 C 0.69304 0.1367 0.92157 0.0
O207 O 0.70282 0.1435 1.0047 0.0
N208 N 0.73508 0.08894 0.80155 0.0
C209 C 0.75763 0.08447 0.7743 0.0
C210 C 0.75882 0.08457 0.67302 0.0
C211 C 0.72278 0.09145 0.7171 0.0
N212 N 0.73693 0.08914 0.63747 0.0
C213 C 0.76675 0.11428 1.00923 0.0
C214 C 0.76427 0.15646 0.90628 0.0
C215 C 0.7826 0.15333 0.97487 0.0
C216 C 0.78417 0.13149 0.02383 0.0
C217 C 0.74743 0.13854 0.89276 0.0
N218 N 0.74769 0.11849 0.94969 0.0
H219 H 0.76909 0.09727 0.04404 0.0
H220 H 0.73437 0.14085 0.83553 0.0
H221 H 0.77227 0.08187 0.82463 0.0
H222 H 0.70406 0.09558 0.71377 0.0
O223 O 0.74232 0.06684 0.97744 0.0
O224 O 0.70516 0.06466 0.92566 0.0
O225 O 0.69928 0.11699 0.88286 0.0
C226 C 0.7238 0.05379 0.96037 0.0
H227 H 0.67127 0.09946 0.23844 0.0
H228 H 0.77455 0.08158 0.62898 0.0
H229 H 0.76288 0.17261 0.86342 0.0
H230 H 0.79899 0.12748 0.07177 0.0
Co231 Co 0.91224 0.72075 0.94443 0.0
C232 C 0.90993 0.72046 0.16408 0.0
C233 C 0.90162 0.68656 0.10266 0.0
C234 C 0.90151 0.68457 0.20372 0.0
N235 N 0.90623 0.70926 0.07746 0.0
N236 N 0.90665 0.70596 0.24213 0.0
H237 H 0.91609 0.73846 0.1709 0.0
H238 H 0.8996 0.67208 0.05127 0.0
C239 C 0.86852 0.6911 0.91297 0.0
O240 O 0.85839 0.70156 0.98853 0.0
N241 N 0.91857 0.73144 0.81204 0.0
C242 C 0.92335 0.75371 0.782 0.0
C243 C 0.92379 0.75403 0.68042 0.0
C244 C 0.91639 0.71852 0.72917 0.0
N245 N 0.91912 0.73194 0.6476 0.0
C246 C 0.88957 0.76267 0.02071 0.0
C247 C 0.85064 0.76225 0.89741 0.0
C248 C 0.85196 0.77969 0.97082 0.0
C249 C 0.87205 0.78 0.03146 0.0
C250 C 0.86883 0.74547 0.88823 0.0
N251 N 0.88718 0.74474 0.95408 0.0
H252 H 0.90541 0.76425 0.06415 0.0
H253 H 0.86802 0.73305 0.82794 0.0
H254 H 0.92543 0.76878 0.8304 0.0
H255 H 0.91257 0.69972 0.72855 0.0
O256 O 0.93851 0.73939 0.99195 0.0
O257 O 0.9412 0.70209 0.94252 0.0
O258 O 0.88976 0.69631 0.88845 0.0
C259 C 0.95178 0.72085 0.97724 0.0
H260 H 0.89911 0.66836 0.24534 0.0
H261 H 0.92635 0.76949 0.63423 0.0
H262 H 0.83564 0.76136 0.84781 0.0
H263 H 0.87446 0.79381 0.08589 0.0
Co264 Co 0.78481 0.59371 0.58557 0.0
C265 C 0.78605 0.59425 0.36576 0.0
C266 C 0.81665 0.61112 0.42665 0.0
C267 C 0.81892 0.61075 0.32571 0.0
N268 N 0.79558 0.60148 0.45225 0.0
N269 N 0.79952 0.60032 0.28742 0.0
H270 H 0.76983 0.58413 0.3598 0.0
H271 H 0.83023 0.61686 0.47722 0.0
C272 C 0.81132 0.63835 0.63401 0.0
O273 O 0.79831 0.64997 0.56982 0.0
N274 N 0.77515 0.58522 0.71795 0.0
C275 C 0.75358 0.57794 0.74848 0.0
C276 C 0.75365 0.57674 0.85008 0.0
C277 C 0.78809 0.58797 0.80071 0.0
N278 N 0.77527 0.58339 0.88245 0.0
C279 C 0.74619 0.62106 0.50344 0.0
C280 C 0.73856 0.64978 0.6647 0.0
C281 C 0.72489 0.65363 0.57962 0.0
C282 C 0.729 0.6388 0.49853 0.0
C283 C 0.75641 0.63247 0.66479 0.0
N284 N 0.76052 0.61866 0.58369 0.0
H285 H 0.74751 0.60911 0.44259 0.0
H286 H 0.767 0.6303 0.73044 0.0
H287 H 0.73857 0.57482 0.70064 0.0
H288 H 0.80636 0.59382 0.80155 0.0
O289 O 0.76593 0.56814 0.53444 0.0
O290 O 0.80364 0.56494 0.57882 0.0
O291 O 0.80911 0.61593 0.64437 0.0
C292 C 0.78461 0.55479 0.54399 0.0
H293 H 0.83425 0.61665 0.28436 0.0
H294 H 0.73863 0.57253 0.8967 0.0
H295 H 0.73543 0.65971 0.73151 0.0
H296 H 0.71894 0.64068 0.4311 0.0
Co297 Co 0.41413 0.78385 0.61321 0.0
C298 C 0.4126 0.78434 0.3962 0.0
C299 C 0.40247 0.81812 0.45573 0.0
C300 C 0.40296 0.81981 0.35432 0.0
N301 N 0.4085 0.79587 0.48167 0.0
N302 N 0.40958 0.79861 0.31708 0.0
H303 H 0.41857 0.76612 0.39222 0.0
H304 H 0.39858 0.83229 0.50682 0.0
C305 C 0.37395 0.80122 0.73513 0.0
O306 O 0.37201 0.77909 0.76479 0.0
N307 N 0.42066 0.77224 0.74658 0.0
C308 C 0.42695 0.7503 0.77685 0.0
C309 C 0.4287 0.75014 0.87804 0.0
C310 C 0.42015 0.78535 0.83014 0.0
N311 N 0.42421 0.77217 0.91167 0.0
C312 C 0.39659 0.73638 0.58092 0.0
C313 C 0.34996 0.74904 0.54572 0.0
C314 C 0.35608 0.72501 0.54632 0.0
C315 C 0.37982 0.71873 0.56176 0.0
C316 C 0.36739 0.76611 0.56347 0.0
N317 N 0.39004 0.75964 0.58828 0.0
H318 H 0.41495 0.73131 0.58659 0.0
H319 H 0.36258 0.78459 0.55706 0.0
H320 H 0.43041 0.7353 0.73017 0.0
H321 H 0.41576 0.80402 0.8315 0.0
O322 O 0.44152 0.76698 0.56486 0.0
O323 O 0.44219 0.80375 0.62192 0.0
O324 O 0.3896 0.80664 0.67016 0.0
C325 C 0.45373 0.78601 0.58314 0.0
H326 H 0.39881 0.83548 0.31159 0.0
H327 H 0.43288 0.73492 0.9235 0.0
H328 H 0.33195 0.75459 0.52967 0.0
H329 H 0.38537 0.70034 0.55893 0.0
Co330 Co 0.22215 0.41434 0.59004 0.0
C331 C 0.2226 0.41128 0.37048 0.0
C332 C 0.18778 0.40672 0.43086 0.0
C333 C 0.18607 0.40634 0.32982 0.0
N334 N 0.2108 0.40908 0.45669 0.0
N335 N 0.208 0.40919 0.29234 0.0
H336 H 0.24117 0.41546 0.36375 0.0
H337 H 0.17308 0.4062 0.48204 0.0
C338 C 0.19242 0.37081 0.60834 0.0
O339 O 0.20304 0.36326 0.52805 0.0
N340 N 0.23283 0.42012 0.7225 0.0
C341 C 0.25504 0.42556 0.75125 0.0
C342 C 0.25569 0.4258 0.85269 0.0
C343 C 0.22026 0.41726 0.80603 0.0
N344 N 0.23386 0.42032 0.88673 0.0
C345 C 0.26517 0.39276 0.51801 0.0
C346 C 0.26378 0.35282 0.63612 0.0
C347 C 0.28222 0.35531 0.56802 0.0
C348 C 0.28315 0.37578 0.51006 0.0
C349 C 0.24641 0.37049 0.64303 0.0
N350 N 0.24629 0.38943 0.57968 0.0
H351 H 0.26703 0.40897 0.4769 0.0
H352 H 0.23332 0.36901 0.70074 0.0
H353 H 0.26987 0.42839 0.70197 0.0
H354 H 0.20158 0.41288 0.80773 0.0
O355 O 0.24078 0.44073 0.54399 0.0
O356 O 0.20343 0.44337 0.59305 0.0
O357 O 0.19765 0.39122 0.64307 0.0
C358 C 0.22222 0.45396 0.55819 0.0
H359 H 0.16987 0.40528 0.28726 0.0
H360 H 0.27118 0.42892 0.89795 0.0
H361 H 0.26313 0.33765 0.6851 0.0
H362 H 0.29773 0.37869 0.45944 0.0
Co363 Co 0.59397 0.22444 0.5988 0.0
C364 C 0.59462 0.22386 0.38167 0.0
C365 C 0.60616 0.19052 0.44138 0.0
C366 C 0.60577 0.18883 0.34012 0.0
N367 N 0.59924 0.21251 0.4671 0.0
N368 N 0.59824 0.20974 0.30273 0.0
H369 H 0.58804 0.24187 0.37758 0.0
H370 H 0.61077 0.17654 0.49245 0.0
C371 C 0.63532 0.20671 0.71313 0.0
O372 O 0.63807 0.22888 0.74072 0.0
N373 N 0.58766 0.23579 0.73265 0.0
C374 C 0.57739 0.2563 0.76174 0.0
C375 C 0.57555 0.25644 0.86291 0.0
C376 C 0.59013 0.22312 0.81689 0.0
N377 N 0.58363 0.23556 0.89735 0.0
C378 C 0.61308 0.27199 0.58294 0.0
C379 C 0.65757 0.25859 0.51735 0.0
C380 C 0.65296 0.2826 0.53456 0.0
C381 C 0.63034 0.28933 0.56632 0.0
C382 C 0.63993 0.2418 0.53682 0.0
N383 N 0.61833 0.24845 0.57404 0.0
H384 H 0.59539 0.27769 0.59994 0.0
H385 H 0.64374 0.22333 0.52266 0.0
H386 H 0.57049 0.2699 0.71381 0.0
H387 H 0.59665 0.20512 0.81975 0.0
O388 O 0.56672 0.24171 0.55167 0.0
O389 O 0.56579 0.20482 0.60818 0.0
O390 O 0.61853 0.20139 0.65339 0.0
C391 C 0.55435 0.22277 0.57036 0.0
H392 H 0.61076 0.17339 0.29766 0.0
H393 H 0.56829 0.27058 0.90762 0.0
H394 H 0.67473 0.25286 0.49033 0.0
H395 H 0.62591 0.30787 0.57626 0.0
Co396 Co 0.78366 0.41457 0.41796 0.0
C397 C 0.78346 0.41179 0.63731 0.0
C398 C 0.81864 0.41117 0.57775 0.0
C399 C 0.82021 0.41081 0.67895 0.0
N400 N 0.79555 0.41118 0.55151 0.0
N401 N 0.79803 0.41103 0.71608 0.0
H402 H 0.7646 0.41431 0.64315 0.0
H403 H 0.83336 0.41181 0.52664 0.0
C404 C 0.81477 0.37173 0.41031 0.0
O405 O 0.80513 0.36542 0.49453 0.0
N406 N 0.77221 0.41851 0.28545 0.0
C407 C 0.74955 0.42236 0.25812 0.0
C408 C 0.74842 0.42217 0.15685 0.0
C409 C 0.78462 0.41632 0.20112 0.0
N410 N 0.77045 0.41821 0.12147 0.0
C411 C 0.74058 0.39433 0.49509 0.0
C412 C 0.74339 0.35139 0.3985 0.0
C413 C 0.72484 0.35501 0.46574 0.0
C414 C 0.72313 0.37721 0.51149 0.0
C415 C 0.76024 0.36922 0.383 0.0
N416 N 0.75979 0.38971 0.43685 0.0
H417 H 0.73817 0.41158 0.52762 0.0
H418 H 0.77342 0.3665 0.32651 0.0
H419 H 0.73484 0.42468 0.30838 0.0
H420 H 0.80347 0.4128 0.19796 0.0
O421 O 0.76512 0.44155 0.45894 0.0
O422 O 0.80223 0.44346 0.40601 0.0
O423 O 0.80819 0.39102 0.36883 0.0
C424 C 0.78362 0.4545 0.43991 0.0
H425 H 0.83639 0.41071 0.72184 0.0
H426 H 0.73264 0.42476 0.1127 0.0
H427 H 0.74494 0.33492 0.35808 0.0
H428 H 0.70818 0.38157 0.55823 0.0
Co429 Co 0.59357 0.78493 0.44629 0.0
C430 C 0.59531 0.78564 0.66314 0.0
C431 C 0.60331 0.81996 0.60312 0.0
C432 C 0.60269 0.82161 0.70463 0.0
N433 N 0.59868 0.79739 0.57744 0.0
N434 N 0.59745 0.80003 0.74215 0.0
H435 H 0.59043 0.76709 0.66738 0.0
H436 H 0.6063 0.83433 0.55177 0.0
C437 C 0.63288 0.80273 0.3207 0.0
O438 O 0.63523 0.78055 0.29259 0.0
N439 N 0.58762 0.77273 0.31361 0.0
C440 C 0.58456 0.75016 0.28334 0.0
C441 C 0.58297 0.74987 0.18206 0.0
C442 C 0.58668 0.78587 0.22996 0.0
N443 N 0.58458 0.77232 0.1482 0.0
C444 C 0.61132 0.73825 0.49211 0.0
C445 C 0.65827 0.75099 0.51595 0.0
C446 C 0.65203 0.72708 0.52893 0.0
C447 C 0.62797 0.72102 0.51888 0.0
C448 C 0.64084 0.76781 0.49405 0.0
N449 N 0.61798 0.76115 0.47459 0.0
H450 H 0.5929 0.73318 0.48844 0.0
H451 H 0.64592 0.78624 0.49289 0.0
H452 H 0.58378 0.73475 0.33007 0.0
H453 H 0.58912 0.80489 0.22889 0.0
O454 O 0.56632 0.76785 0.49475 0.0
O455 O 0.56517 0.80436 0.43485 0.0
O456 O 0.61768 0.808 0.38774 0.0
C457 C 0.55383 0.78659 0.4745 0.0
H458 H 0.60579 0.8375 0.74728 0.0
H459 H 0.5812 0.73422 0.13666 0.0
H460 H 0.67646 0.7569 0.52152 0.0
H461 H 0.62189 0.70309 0.53246 0.0
Co462 Co 0.22475 0.59418 0.42546 0.0
C463 C 0.22512 0.59633 0.64153 0.0
C464 C 0.19073 0.60536 0.58472 0.0
C465 C 0.18973 0.60551 0.68636 0.0
N466 N 0.21295 0.59965 0.55714 0.0
N467 N 0.21141 0.59989 0.72184 0.0
H468 H 0.24339 0.59046 0.64367 0.0
H469 H 0.17616 0.60864 0.53471 0.0
C470 C 0.20745 0.63553 0.31025 0.0
O471 O 0.22959 0.63735 0.28064 0.0
N472 N 0.23628 0.58776 0.29193 0.0
C473 C 0.25731 0.57838 0.26408 0.0
C474 C 0.25812 0.57708 0.16291 0.0
C475 C 0.22402 0.5903 0.2067 0.0
N476 N 0.23729 0.58495 0.12697 0.0
C477 C 0.27238 0.61223 0.44832 0.0
C478 C 0.25969 0.65809 0.49664 0.0
C479 C 0.28383 0.65261 0.48576 0.0
C480 C 0.29007 0.62909 0.46471 0.0
C481 C 0.24259 0.64055 0.48095 0.0
N482 N 0.24895 0.61836 0.44973 0.0
H483 H 0.27766 0.5941 0.43789 0.0
H484 H 0.22414 0.64496 0.49251 0.0
H485 H 0.27098 0.572 0.31278 0.0
H486 H 0.20585 0.5964 0.20242 0.0
O487 O 0.24204 0.56715 0.47334 0.0
O488 O 0.2052 0.56574 0.41721 0.0
O489 O 0.20173 0.61883 0.37015 0.0
C490 C 0.22336 0.5545 0.45459 0.0
H491 H 0.1742 0.60924 0.73069 0.0
H492 H 0.27277 0.57046 0.11923 0.0
H493 H 0.254 0.67582 0.5162 0.0
H494 H 0.30849 0.6236 0.46271 0.0
Co495 Co 0.41414 0.22511 0.44239 0.0
C496 C 0.41236 0.22542 0.65842 0.0
C497 C 0.40323 0.19108 0.60199 0.0
C498 C 0.40302 0.19012 0.70357 0.0
N499 N 0.40899 0.21327 0.57423 0.0
N500 N 0.40869 0.21178 0.73884 0.0
H501 H 0.41828 0.24366 0.66025 0.0
H502 H 0.39991 0.17653 0.55215 0.0
C503 C 0.37249 0.20736 0.33024 0.0
O504 O 0.36941 0.22955 0.30314 0.0
N505 N 0.42035 0.23659 0.30852 0.0
C506 C 0.43126 0.25687 0.28063 0.0
C507 C 0.43251 0.25772 0.17944 0.0
C508 C 0.41697 0.22463 0.2232 0.0
N509 N 0.42323 0.23753 0.14362 0.0
C510 C 0.39505 0.27274 0.45766 0.0
C511 C 0.35098 0.25955 0.52818 0.0
C512 C 0.35558 0.2837 0.51256 0.0
C513 C 0.37803 0.29017 0.47688 0.0
C514 C 0.36839 0.24267 0.50629 0.0
N515 N 0.38984 0.24922 0.46744 0.0
H516 H 0.41256 0.27837 0.43752 0.0
H517 H 0.36458 0.2242 0.52066 0.0
H518 H 0.43894 0.26982 0.32946 0.0
H519 H 0.41011 0.20677 0.21858 0.0
O520 O 0.4415 0.24222 0.4892 0.0
O521 O 0.44224 0.20536 0.43269 0.0
O522 O 0.38954 0.20208 0.38877 0.0
C523 C 0.45377 0.22321 0.47047 0.0
H524 H 0.39917 0.17464 0.748 0.0
H525 H 0.44025 0.2718 0.13567 0.0
H526 H 0.33414 0.25371 0.55806 0.0
H527 H 0.38251 0.30855 0.46345 0.0
C528 C 0.30435 0.10674 0.63242 0.0
C529 C 0.29397 0.09246 0.70566 0.0
C530 C 0.29792 0.10432 0.53317 0.0
C531 C 0.28094 0.08746 0.50367 0.0
H532 H 0.31712 0.12024 0.65246 0.0
H533 H 0.30584 0.11612 0.47948 0.0
S534 S 0.25111 0.04356 0.66542 0.0
N535 N 0.26762 0.05943 0.741 0.0
N536 N 0.25557 0.05482 0.55462 0.0
C537 C 0.27107 0.07253 0.57587 0.0
C538 C 0.27758 0.07504 0.67683 0.0
C539 C 0.92181 0.30569 0.63279 0.0
C540 C 0.91277 0.28928 0.70163 0.0
C541 C 0.92549 0.29934 0.53399 0.0
C542 C 0.92049 0.2763 0.50056 0.0
H543 H 0.92644 0.32346 0.65573 0.0
H544 H 0.93262 0.31243 0.48361 0.0
S545 S 0.89401 0.22756 0.64751 0.0
N546 N 0.89701 0.24956 0.72655 0.0
N547 N 0.90443 0.23759 0.54171 0.0
C548 C 0.91105 0.25987 0.56788 0.0
C549 C 0.90707 0.26637 0.66814 0.0
C550 C 0.74143 0.90544 0.55283 0.0
C551 C 0.72733 0.91759 0.48377 0.0
C552 C 0.73448 0.90348 0.65165 0.0
C553 C 0.71316 0.91361 0.68554 0.0
H554 H 0.75781 0.89703 0.52995 0.0
H555 H 0.74577 0.89367 0.70179 0.0
S556 S 0.67086 0.94904 0.53601 0.0
N557 N 0.69167 0.94099 0.45718 0.0
N558 N 0.67865 0.93745 0.64292 0.0
C559 C 0.69902 0.92609 0.6175 0.0
C560 C 0.70609 0.92804 0.51671 0.0
C561 C 0.07477 0.7353 0.55856 0.0
C562 C 0.08971 0.72567 0.48588 0.0
C563 C 0.07708 0.72874 0.65768 0.0
C564 C 0.09443 0.71231 0.68781 0.0
H565 H 0.06105 0.74786 0.5384 0.0
H566 H 0.06507 0.73643 0.71108 0.0
S567 S 0.13929 0.68345 0.52777 0.0
N568 N 0.12335 0.69987 0.45179 0.0
N569 N 0.12757 0.68746 0.63799 0.0
C570 C 0.1096 0.70267 0.61608 0.0
C571 C 0.10729 0.70937 0.51516 0.0
C572 C 0.27134 0.90523 0.39144 0.0
C573 C 0.29343 0.91361 0.35782 0.0
C574 C 0.26455 0.90759 0.49022 0.0
C575 C 0.27958 0.91843 0.55946 0.0
H576 H 0.25933 0.89646 0.34113 0.0
H577 H 0.24755 0.90051 0.51291 0.0
S578 S 0.33844 0.94516 0.50778 0.0
N579 N 0.32977 0.9344 0.40071 0.0
N580 N 0.31701 0.93878 0.58645 0.0
C581 C 0.3016 0.92716 0.52674 0.0
C582 C 0.30853 0.92476 0.42598 0.0
C583 C 0.10631 0.29264 0.5099 0.0
C584 C 0.08658 0.27897 0.5391 0.0
C585 C 0.11002 0.29874 0.41081 0.0
C586 C 0.09424 0.29127 0.337 0.0
H587 H 0.1193 0.29823 0.5638 0.0
H588 H 0.12561 0.30895 0.39138 0.0
S589 S 0.03838 0.25773 0.3753 0.0
N590 N 0.05 0.25996 0.48651 0.0
N591 N 0.05715 0.27122 0.30048 0.0
C592 C 0.07414 0.27815 0.36525 0.0
C593 C 0.07027 0.27204 0.46617 0.0
C594 C 0.7086 0.08239 0.50197 0.0
C595 C 0.73014 0.0919 0.53593 0.0
C596 C 0.70188 0.08455 0.40292 0.0
C597 C 0.71639 0.09646 0.33442 0.0
H598 H 0.69711 0.0728 0.55204 0.0
H599 H 0.68543 0.07643 0.37943 0.0
S600 S 0.77302 0.12727 0.38955 0.0
N601 N 0.76498 0.11535 0.49556 0.0
N602 N 0.75224 0.11975 0.30993 0.0
C603 C 0.73761 0.10673 0.36838 0.0
C604 C 0.74451 0.10437 0.46898 0.0
C605 C 0.93055 0.73433 0.47239 0.0
C606 C 0.91601 0.72473 0.54659 0.0
C607 C 0.92752 0.72799 0.37337 0.0
C608 C 0.90977 0.71187 0.34466 0.0
H609 H 0.94451 0.74669 0.49128 0.0
H610 H 0.93933 0.73561 0.31899 0.0
S611 S 0.86569 0.68322 0.50948 0.0
N612 N 0.88234 0.69926 0.58393 0.0
N613 N 0.87667 0.68737 0.39801 0.0
C614 C 0.89496 0.70229 0.41805 0.0
C615 C 0.89806 0.70872 0.51891 0.0
C616 C 0.78148 0.57563 0.15654 0.0
C617 C 0.7943 0.59596 0.18481 0.0
C618 C 0.77546 0.57155 0.05767 0.0
C619 C 0.7822 0.58751 0.98318 0.0
H620 H 0.77613 0.56268 0.21114 0.0
H621 H 0.76558 0.55571 0.03909 0.0
S622 S 0.81425 0.64433 0.0185 0.0
N623 N 0.81234 0.63288 0.13014 0.0
N624 N 0.80131 0.62504 0.94474 0.0
C625 C 0.79492 0.60795 1.01025 0.0
C626 C 0.80092 0.61219 0.11087 0.0
C627 C 0.40778 0.76959 0.18082 0.0
C628 C 0.41348 0.79244 0.21494 0.0
C629 C 0.41152 0.7631 0.08224 0.0
C630 C 0.42121 0.77915 1.01347 0.0
H631 H 0.40001 0.75672 0.2305 0.0
H632 H 0.40636 0.74547 0.05931 0.0
S633 S 0.44131 0.84042 0.06721 0.0
N634 N 0.43072 0.83068 0.1732 0.0
N635 N 0.43775 0.81847 0.98827 0.0
C636 C 0.42736 0.80193 0.04691 0.0
C637 C 0.42351 0.80857 0.14741 0.0
C638 C 0.23016 0.42955 0.1603 0.0
C639 C 0.21428 0.41171 0.19022 0.0
C640 C 0.23639 0.43231 0.06099 0.0
C641 C 0.227 0.41729 0.98817 0.0
H642 H 0.23754 0.44165 0.21397 0.0
H643 H 0.24843 0.44646 0.04076 0.0
S644 S 0.18686 0.36611 0.03066 0.0
N645 N 0.19056 0.37786 0.14088 0.0
N646 N 0.20249 0.38275 0.95428 0.0
C647 C 0.21147 0.39906 0.01758 0.0
C648 C 0.20506 0.39635 0.11862 0.0
C649 C 0.59822 0.23912 0.16728 0.0
C650 C 0.59424 0.2158 0.20059 0.0
C651 C 0.59439 0.24549 0.06862 0.0
C652 C 0.58651 0.22877 0.99915 0.0
H653 H 0.60472 0.2525 0.21757 0.0
H654 H 0.59812 0.26353 0.04598 0.0
S655 S 0.57113 0.16601 0.04988 0.0
N656 N 0.58026 0.17637 0.15697 0.0
N657 N 0.57339 0.18832 0.9716 0.0
C658 C 0.58206 0.20552 0.03155 0.0
C659 C 0.58584 0.19903 0.13216 0.0
C660 C 0.79855 0.42609 0.98598 0.0
C661 C 0.77737 0.41576 0.01998 0.0
C662 C 0.80532 0.42432 0.88685 0.0
C663 C 0.79123 0.412 0.81838 0.0
H664 H 0.80968 0.43603 0.03606 0.0
H665 H 0.82145 0.43307 0.86328 0.0
S666 S 0.73577 0.37907 0.87373 0.0
N667 N 0.74339 0.39114 0.97977 0.0
N668 N 0.75626 0.38743 0.79399 0.0
C669 C 0.77041 0.4009 0.85243 0.0
C670 C 0.76345 0.40287 0.95308 0.0
C671 C 0.59841 0.76453 0.97778 0.0
C672 C 0.58719 0.77963 0.04627 0.0
C673 C 0.60168 0.77131 0.8791 0.0
C674 C 0.59403 0.79357 0.84445 0.0
H675 H 0.60513 0.74742 1.00089 0.0
H676 H 0.6106 0.75916 0.82971 0.0
S677 S 0.5619 0.83897 0.99074 0.0
N678 N 0.56719 0.81739 0.07012 0.0
N679 N 0.57351 0.83019 0.88523 0.0
C680 C 0.58256 0.80877 0.91157 0.0
C681 C 0.57911 0.80181 1.01214 0.0
C682 C 0.20806 0.58359 0.99113 0.0
C683 C 0.23108 0.58868 0.025 0.0
C684 C 0.2017 0.58742 0.89231 0.0
C685 C 0.21807 0.59665 0.82377 0.0
H686 H 0.195 0.57627 0.04115 0.0
H687 H 0.18394 0.58275 0.86907 0.0
S688 S 0.27966 0.61577 0.87863 0.0
N689 N 0.26968 0.60519 0.98421 0.0
N690 N 0.25769 0.61266 0.79939 0.0
C691 C 0.24094 0.60243 0.85758 0.0
C692 C 0.24745 0.59839 0.95788 0.0
C693 C 0.42418 0.2082 1.00856 0.0
C694 C 0.41964 0.23137 0.04177 0.0
C695 C 0.42047 0.20189 0.90978 0.0
C696 C 0.41184 0.21846 0.8407 0.0
H697 H 0.431 0.19498 0.0591 0.0
H698 H 0.42474 0.184 0.88704 0.0
S699 S 0.39433 0.28062 0.89408 0.0
N700 N 0.40443 0.27041 1.00007 0.0
N701 N 0.39694 0.25851 0.81529 0.0
C702 C 0.40659 0.24151 0.87395 0.0
C703 C 0.4106 0.24797 0.97419 0.0
C704 C 0.33287 0.17752 0.14204 0.0
C705 C 0.33128 0.1539 0.17496 0.0
C706 C 0.346 0.19447 0.19356 0.0
C707 C 0.35839 0.18864 0.28025 0.0
H708 H 0.32366 0.18321 0.07614 0.0
H709 H 0.34653 0.21233 0.16411 0.0
S710 S 0.36041 0.12925 0.39819 0.0
N711 N 0.34349 0.12546 0.30022 0.0
N712 N 0.36837 0.15744 0.39689 0.0
C713 C 0.35723 0.16505 0.31399 0.0
C714 C 0.34364 0.14769 0.26154 0.0
C715 C 0.83372 0.33183 0.39729 0.0
C716 C 0.83078 0.35481 0.35862 0.0
C717 C 0.84754 0.31483 0.34905 0.0
C718 C 0.8593 0.32001 0.26012 0.0
H719 H 0.82501 0.32665 0.46512 0.0
H720 H 0.84907 0.29745 0.38259 0.0
S721 S 0.85802 0.37762 0.12789 0.0
N722 N 0.84124 0.38199 0.22598 0.0
N723 N 0.86739 0.34991 0.13549 0.0
C724 C 0.85692 0.34299 0.22094 0.0
C725 C 0.84262 0.36038 0.27 0.0
C726 C 0.656 0.81573 0.17394 0.0
C727 C 0.64657 0.82122 0.26722 0.0
C728 C 0.66947 0.83215 0.12066 0.0
C729 C 0.67432 0.85488 0.15812 0.0
H730 H 0.65298 0.7985 0.14111 0.0
H731 H 0.67642 0.82671 0.04983 0.0
S732 S 0.65309 0.87854 0.39805 0.0
N733 N 0.64244 0.85127 0.39412 0.0
N734 N 0.66782 0.88231 0.29402 0.0
C735 C 0.66458 0.86087 0.25068 0.0
C736 C 0.6507 0.84404 0.30506 0.0
C737 C 0.16498 0.64603 0.26948 0.0
C738 C 0.18935 0.6516 0.26618 0.0
C739 C 0.14814 0.65994 0.21878 0.0
C740 C 0.15517 0.67966 0.16216 0.0
H741 H 0.15891 0.63049 0.30916 0.0
H742 H 0.12963 0.65481 0.22155 0.0
S743 S 0.21612 0.70407 0.1425 0.0
N744 N 0.21907 0.68007 0.21108 0.0
N745 N 0.18764 0.70563 0.11516 0.0
C746 C 0.17926 0.68604 0.16223 0.0
C747 C 0.19628 0.67216 0.21442 0.0
C748 C 0.3481 0.81387 0.87445 0.0
C749 C 0.35929 0.81959 0.78478 0.0
C750 C 0.33398 0.83031 0.92451 0.0
C751 C 0.33023 0.85331 0.8873 0.0
H752 H 0.35027 0.79646 0.90711 0.0
H753 H 0.32576 0.82472 0.99281 0.0
S754 S 0.35577 0.87751 0.6555 0.0
N755 N 0.36594 0.85006 0.66101 0.0
N756 N 0.33937 0.88113 0.75516 0.0
C757 C 0.34155 0.85946 0.79807 0.0
C758 C 0.35608 0.84261 0.74695 0.0
C759 C 0.16533 0.31321 0.69774 0.0
C760 C 0.14976 0.32016 0.77363 0.0
C761 C 0.17861 0.32977 0.64461 0.0
C762 C 0.17721 0.35415 0.66513 0.0
H763 H 0.16726 0.2947 0.67794 0.0
H764 H 0.19032 0.32322 0.58747 0.0
S765 S 0.13892 0.38206 0.85513 0.0
N766 N 0.13346 0.35339 0.86577 0.0
N767 N 0.15876 0.38464 0.76616 0.0
C768 C 0.1618 0.36153 0.74095 0.0
C769 C 0.14801 0.34454 0.79499 0.0
C770 C 0.67573 0.17715 0.89989 0.0
C771 C 0.67745 0.15355 0.86718 0.0
C772 C 0.66227 0.19399 0.84886 0.0
C773 C 0.64966 0.18806 0.7629 0.0
H774 H 0.68513 0.18291 0.96515 0.0
H775 H 0.66169 0.21185 0.87803 0.0
S776 S 0.6477 0.1286 0.64638 0.0
N777 N 0.665 0.12497 0.74336 0.0
N778 N 0.63953 0.15674 0.64755 0.0
C779 C 0.65091 0.16447 0.72955 0.0
C780 C 0.66483 0.14723 0.78149 0.0
C781 C 0.81736 0.67176 0.75101 0.0
C782 C 0.82645 0.65158 0.70335 0.0
C783 C 0.83084 0.68398 0.82133 0.0
C784 C 0.85407 0.67676 0.8446 0.0
H785 H 0.79953 0.67788 0.73516 0.0
H786 H 0.8232 0.69948 0.85618 0.0
S787 S 0.88622 0.62548 0.73788 0.0
N788 N 0.85994 0.62489 0.68401 0.0
N789 N 0.88574 0.6485 0.81302 0.0
C790 C 0.86347 0.65682 0.79635 0.0
C791 C 0.8495 0.64401 0.72671 0.0
C792 C 0.30609 0.01541 0.04488 0.0
C793 C 0.2848 0.02833 0.05423 0.0
C794 C 0.30594 0.99122 0.01974 0.0
C795 C 0.28448 0.97898 1.00447 0.0
H796 H 0.32301 0.02409 0.05611 0.0
H797 H 0.32273 0.98196 1.01381 0.0
S798 S 0.22388 0.00467 0.01891 0.0
N799 N 0.24169 0.02701 0.04497 0.0
N800 N 0.24143 0.98173 0.999 0.0
C801 C 0.26311 0.99171 1.01347 0.0
C802 C 0.26326 0.01632 0.03798 0.0
C803 C 0.01652 0.30459 1.00249 0.0
C804 C 0.02943 0.28326 0.99491 0.0
C805 C 0.99242 0.3046 0.02984 0.0
C806 C 0.9803 0.28326 0.04909 0.0
H807 H 0.02514 0.32141 0.98811 0.0
H808 H 0.98312 0.32139 0.03414 0.0
S809 S 0.00601 0.22265 0.04125 0.0
N810 N 0.0282 0.24025 1.01048 0.0
N811 N 0.98314 0.24032 0.0607 0.0
C812 C 0.99303 0.26187 0.04209 0.0
C813 C 0.01751 0.26185 1.01531 0.0
C814 C 0.7022 0.99161 0.02424 0.0
C815 C 0.72348 0.97889 0.03726 0.0
C816 C 0.70238 0.01572 0.99731 0.0
C817 C 0.72386 0.02806 0.98384 0.0
H818 H 0.68525 0.98282 0.03351 0.0
H819 H 0.68557 0.0248 0.98831 0.0
S820 S 0.78448 1.00294 1.01009 0.0
N821 N 0.76662 0.98053 0.0349 0.0
N822 N 0.76697 0.02566 0.98555 0.0
C823 C 0.74524 0.01555 0.99722 0.0
C824 C 0.74505 0.99102 0.02357 0.0
C825 C 0.99047 0.69987 1.00833 0.0
C826 C 0.97759 0.7212 0.99967 0.0
C827 C 0.01486 0.69992 0.03066 0.0
C828 C 0.02733 0.72131 0.04362 0.0
H829 H 0.98165 0.68298 0.99844 0.0
H830 H 0.02406 0.6831 0.03618 0.0
S831 S 1.00185 0.782 0.02945 0.0
N832 N 0.97921 0.76428 1.00688 0.0
N833 N 0.02483 0.76438 0.04753 0.0
C834 C 0.01463 0.74273 0.03529 0.0
C835 C 0.98983 0.74268 1.01371 0.0
C836 C 0.80515 0.4925 0.47598 0.0
C837 C 0.78365 0.4803 0.46119 0.0
C838 C 0.80537 0.51655 0.50327 0.0
C839 C 0.78411 0.52937 0.51542 0.0
H840 H 0.82193 0.48328 0.46858 0.0
H841 H 0.82233 0.52514 0.51471 0.0
S842 S 0.72309 0.50583 0.48164 0.0
N843 N 0.74058 0.48303 0.45843 0.0
N844 N 0.74096 0.52806 0.50852 0.0
C845 C 0.76252 0.51745 0.49903 0.0
C846 C 0.7623 0.49298 0.47227 0.0
C847 C 0.49197 0.76594 0.54316 0.0
C848 C 0.4793 0.78717 0.5573 0.0
C849 C 0.51593 0.76608 0.51569 0.0
C850 C 0.5282 0.78745 0.49948 0.0
H851 H 0.48336 0.74896 0.55404 0.0
H852 H 0.52486 0.7492 0.50666 0.0
S853 S 0.50315 0.84803 0.52501 0.0
N854 N 0.4808 0.83027 0.55258 0.0
N855 N 0.52585 0.83052 0.4994 0.0
C856 C 0.51575 0.80887 0.51243 0.0
C857 C 0.49133 0.80874 0.54193 0.0
C858 C 0.20132 0.49241 0.51972 0.0
C859 C 0.22258 0.47961 0.53268 0.0
C860 C 0.20156 0.51651 0.49203 0.0
C861 C 0.22307 0.52873 0.47769 0.0
H862 H 0.18436 0.48372 0.53008 0.0
H863 H 0.1848 0.5257 0.48346 0.0
S864 S 0.28365 0.50331 0.5018 0.0
N865 N 0.26573 0.48107 0.52832 0.0
N866 N 0.26617 0.52604 0.47722 0.0
C867 C 0.24441 0.51608 0.49032 0.0
C868 C 0.24417 0.49163 0.51757 0.0
C869 C 0.51618 0.24331 0.53305 0.0
C870 C 0.52866 0.22194 0.54675 0.0
C871 C 0.49206 0.24342 0.50807 0.0
C872 C 0.47946 0.22216 0.49408 0.0
H873 H 0.52506 0.2602 0.54232 0.0
H874 H 0.48328 0.26038 0.49905 0.0
S875 S 0.5039 0.16132 0.51995 0.0
N876 N 0.52661 0.17886 0.54432 0.0
N877 N 0.48128 0.17906 0.49586 0.0
C878 C 0.49172 0.20061 0.5068 0.0
C879 C 0.51629 0.2005 0.53371 0.0
C880 C 0.18551 0.16905 0.08535 0.0
C881 C 0.2093 0.17289 0.05915 0.0
C882 C 0.16826 0.18657 0.06922 0.0
C883 C 0.1741 0.20844 0.02472 0.0
H884 H 0.18025 0.15241 0.11879 0.0
H885 H 0.1502 0.18294 0.09206 0.0
S886 S 0.23406 0.22626 0.93783 0.0
N887 N 0.23801 0.19962 0.98586 0.0
N888 N 0.20555 0.23229 0.95133 0.0
C889 C 0.19796 0.21231 0.99772 0.0
C890 C 0.21555 0.19458 1.0158 0.0
C891 C 0.82758 0.20262 0.92824 0.0
C892 C 0.83597 0.20768 0.02323 0.0
C893 C 0.81024 0.18513 0.9131 0.0
C894 C 0.80051 0.17229 0.99264 0.0
H895 H 0.83483 0.21192 0.86516 0.0
H896 H 0.80477 0.18135 0.83834 0.0
S897 S 0.81513 0.18089 0.25686 0.0
N898 N 0.8327 0.1996 0.19809 0.0
N899 N 0.79949 0.16739 0.17083 0.0
C900 C 0.80837 0.17782 0.08837 0.0
C901 C 0.82624 0.19536 0.10336 0.0
C902 C 0.82501 0.80339 0.08025 0.0
C903 C 0.83282 0.79769 0.98458 0.0
C904 C 0.80758 0.82074 0.09632 0.0
C905 C 0.79718 0.83315 0.01739 0.0
H906 H 0.83245 0.79436 0.14356 0.0
H907 H 0.80258 0.82478 0.17147 0.0
S908 S 0.81077 0.82455 0.75221 0.0
N909 N 0.8287 0.80595 0.80957 0.0
N910 N 0.79526 0.83778 0.83946 0.0
C911 C 0.80448 0.82733 0.92116 0.0
C912 C 0.82238 0.80978 0.90482 0.0
C913 C 0.19378 0.79509 0.0325 0.0
C914 C 0.16959 0.80119 0.03872 0.0
C915 C 0.21126 0.81246 0.0172 0.0
C916 C 0.20524 0.83661 1.00848 0.0
H917 H 0.19922 0.77671 0.03831 0.0
H918 H 0.22967 0.80698 1.01341 0.0
S919 S 0.14446 0.86191 0.02005 0.0
N920 N 0.14059 0.83317 0.03676 0.0
N921 N 0.1733 0.86565 1.0054 0.0
C922 C 0.18111 0.84293 1.0145 0.0
C923 C 0.16334 0.82528 0.03016 0.0
C924 C 0.66792 0.68576 0.50726 0.0
C925 C 0.67031 0.7084 0.54972 0.0
C926 C 0.68513 0.66814 0.52054 0.0
C927 C 0.70607 0.67241 0.57438 0.0
H928 H 0.65281 0.6816 0.46123 0.0
H929 H 0.68195 0.65102 0.48713 0.0
S930 S 0.72064 0.72827 0.70623 0.0
N931 N 0.69441 0.73335 0.65655 0.0
N932 N 0.72797 0.70116 0.67234 0.0
C933 C 0.70863 0.69487 0.61868 0.0
C934 C 0.69059 0.71262 0.60813 0.0
C935 C 0.31812 0.70487 0.59188 0.0
C936 C 0.33783 0.70662 0.52883 0.0
C937 C 0.30078 0.68736 0.57767 0.0
C938 C 0.3024 0.67112 0.49919 0.0
H939 H 0.3163 0.71691 0.65352 0.0
H940 H 0.28618 0.68635 0.6294 0.0
S941 S 0.3496 0.66994 0.30812 0.0
N942 N 0.35752 0.69163 0.38272 0.0
N943 N 0.32466 0.65914 0.35377 0.0
C944 C 0.32184 0.67312 0.43436 0.0
C945 C 0.33961 0.69077 0.44968 0.0
C946 C 0.31334 0.29786 0.50187 0.0
C947 C 0.33693 0.30192 0.53208 0.0
C948 C 0.2956 0.31504 0.5156 0.0
C949 C 0.30086 0.33698 0.55908 0.0
H950 H 0.30861 0.28147 0.46532 0.0
H951 H 0.27776 0.31136 0.4901 0.0
S952 S 0.35889 0.35588 0.65946 0.0
N953 N 0.36389 0.32906 0.61524 0.0
N954 N 0.33065 0.36159 0.63705 0.0
C955 C 0.3241 0.34119 0.59137 0.0
C956 C 0.34211 0.32362 0.5788 0.0
C957 C 0.6976 0.32261 0.40694 0.0
C958 C 0.70686 0.33617 0.48515 0.0
C959 C 0.68036 0.30507 0.42348 0.0
C960 C 0.67158 0.30067 0.51854 0.0
H961 H 0.70339 0.32582 0.33206 0.0
H962 H 0.67356 0.29516 0.36135 0.0
S963 S 0.69104 0.32954 0.7494 0.0
N964 N 0.70696 0.34251 0.66253 0.0
N965 N 0.67392 0.31021 0.69225 0.0
C966 C 0.68077 0.31377 0.59741 0.0
C967 C 0.69856 0.33136 0.58106 0.0
loop_
_geom_bond_atom_site_label_1
_geom_bond_atom_site_label_2
_geom_bond_distance
_geom_bond_site_symmetry_2
_ccdc_geom_bond_type
Co0 N4 2.148 1_554 S
Co0 N10 2.128 . S
Co0 N20 2.194 . S
Co0 O25 2.351 . S
Co0 O26 2.155 . S
Co0 O27 2.096 . S
C1 N4 1.301 . S
C1 N5 1.328 . S
C1 H6 0.930 . S
C2 C3 1.333 . S
C2 N4 1.317 . S
C2 H7 0.930 . S
C3 C2 1.333 . S
C3 N5 1.350 . S
C3 H29 0.931 . S
N4 Co0 2.148 1_556 S
N4 C1 1.301 . S
N4 C2 1.317 . S
N5 C1 1.328 . S
N5 C3 1.350 . S
H6 C1 0.930 . S
H7 C2 0.930 . S
C8 O9 1.224 . S
C8 O27 1.247 . S
O9 C8 1.224 . S
N10 Co0 2.128 . S
N10 C11 1.355 . S
N10 C13 1.311 . S
C11 N10 1.355 . S
C11 C12 1.363 . S
C11 H23 0.929 . S
C12 C11 1.363 . S
C12 N14 1.375 . S
C12 H30 0.931 . S
C13 N10 1.311 . S
C13 N14 1.347 . S
C13 H24 0.929 . S
N14 C12 1.375 . S
N14 C13 1.347 . S
C15 C18 1.365 . S
C15 N20 1.328 . S
C15 H21 0.929 . S
C16 C17 1.362 . S
C16 C19 1.378 . S
C16 H31 0.929 . S
C17 C16 1.362 . S
C17 C18 1.366 . S
C18 C15 1.365 . S
C18 C17 1.366 . S
C18 H32 0.930 1_554 S
C19 C16 1.378 . S
C19 N20 1.315 . S
C19 H22 0.930 . S
N20 Co0 2.194 . S
N20 C15 1.328 . S
N20 C19 1.315 . S
H21 C15 0.929 . S
H22 C19 0.930 . S
H23 C11 0.929 . S
H24 C13 0.929 . S
O25 Co0 2.351 . S
O25 C28 1.244 . S
O26 Co0 2.155 . S
O26 C28 1.240 . S
O27 Co0 2.096 . S
O27 C8 1.247 . S
C28 O25 1.244 . S
C28 O26 1.240 . S
H29 C3 0.931 . S
H30 C12 0.931 . S
H31 C16 0.929 . S
H32 C18 0.930 1_556 S
Co33 N37 2.148 1_554 S
Co33 N43 2.128 . S
Co33 N53 2.194 . S
Co33 O58 2.351 . S
Co33 O59 2.155 . S
Co33 O60 2.096 . S
C34 N37 1.301 . S
C34 N38 1.328 . S
C34 H39 0.930 . S
C35 C36 1.333 . S
C35 N37 1.317 . S
C35 H40 0.930 . S
C36 C35 1.333 . S
C36 N38 1.350 . S
C36 H62 0.931 . S
N37 Co33 2.148 1_556 S
N37 C34 1.301 . S
N37 C35 1.317 . S
N38 C34 1.328 . S
N38 C36 1.350 . S
H39 C34 0.930 . S
H40 C35 0.930 . S
C41 O42 1.224 . S
C41 O60 1.247 . S
O42 C41 1.224 . S
N43 Co33 2.128 . S
N43 C44 1.355 . S
N43 C46 1.311 . S
C44 N43 1.355 . S
C44 C45 1.363 . S
C44 H56 0.929 . S
C45 C44 1.363 . S
C45 N47 1.375 . S
C45 H63 0.931 . S
C46 N43 1.311 . S
C46 N47 1.347 . S
C46 H57 0.929 . S
N47 C45 1.375 . S
N47 C46 1.347 . S
C48 C51 1.365 . S
C48 N53 1.328 . S
C48 H54 0.929 . S
C49 C50 1.362 . S
C49 C52 1.378 . S
C49 H64 0.929 . S
C50 C49 1.362 . S
C50 C51 1.366 . S
C51 C48 1.365 . S
C51 C50 1.366 . S
C51 H65 0.930 1_554 S
C52 C49 1.378 . S
C52 N53 1.315 . S
C52 H55 0.930 . S
N53 Co33 2.194 . S
N53 C48 1.328 . S
N53 C52 1.315 . S
H54 C48 0.929 . S
H55 C52 0.930 . S
H56 C44 0.929 . S
H57 C46 0.929 . S
O58 Co33 2.351 . S
O58 C61 1.244 . S
O59 Co33 2.155 . S
O59 C61 1.240 . S
O60 Co33 2.096 . S
O60 C41 1.247 . S
C61 O58 1.244 . S
C61 O59 1.240 . S
H62 C36 0.931 . S
H63 C45 0.931 . S
H64 C49 0.929 . S
H65 C51 0.930 1_556 S
Co66 N70 2.148 1_554 S
Co66 N76 2.128 . S
Co66 N86 2.194 . S
Co66 O91 2.351 . S
Co66 O92 2.155 . S
Co66 O93 2.096 . S
C67 N70 1.301 . S
C67 N71 1.328 . S
C67 H72 0.930 . S
C68 C69 1.333 . S
C68 N70 1.317 . S
C68 H73 0.930 . S
C69 C68 1.333 . S
C69 N71 1.350 . S
C69 H95 0.931 . S
N70 Co66 2.148 1_556 S
N70 C67 1.301 . S
N70 C68 1.317 . S
N71 C67 1.328 . S
N71 C69 1.350 . S
H72 C67 0.930 . S
H73 C68 0.930 . S
C74 O75 1.224 . S
C74 O93 1.247 . S
O75 C74 1.224 . S
N76 Co66 2.128 . S
N76 C77 1.355 . S
N76 C79 1.311 . S
C77 N76 1.355 . S
C77 C78 1.363 . S
C77 H89 0.929 . S
C78 C77 1.363 . S
C78 N80 1.375 . S
C78 H96 0.931 . S
C79 N76 1.311 . S
C79 N80 1.347 . S
C79 H90 0.929 . S
N80 C78 1.375 . S
N80 C79 1.347 . S
C81 C84 1.365 . S
C81 N86 1.328 . S
C81 H87 0.929 . S
C82 C83 1.362 . S
C82 C85 1.378 . S
C82 H97 0.929 . S
C83 C82 1.362 . S
C83 C84 1.366 . S
C84 C81 1.365 . S
C84 C83 1.366 . S
C84 H98 0.930 1_554 S
C85 C82 1.378 . S
C85 N86 1.315 . S
C85 H88 0.930 . S
N86 Co66 2.194 . S
N86 C81 1.328 . S
N86 C85 1.315 . S
H87 C81 0.929 . S
H88 C85 0.930 . S
H89 C77 0.929 . S
H90 C79 0.929 . S
O91 Co66 2.351 . S
O91 C94 1.244 . S
O92 Co66 2.155 . S
O92 C94 1.240 . S
O93 Co66 2.096 . S
O93 C74 1.247 . S
C94 O91 1.244 . S
C94 O92 1.240 . S
H95 C69 0.931 . S
H96 C78 0.931 . S
H97 C82 0.929 . S
H98 C84 0.930 1_556 S
Co99 N103 2.148 1_554 S
Co99 N109 2.128 . S
Co99 N119 2.194 . S
Co99 O124 2.351 . S
Co99 O125 2.155 . S
Co99 O126 2.096 . S
C100 N103 1.301 . S
C100 N104 1.328 . S
C100 H105 0.930 . S
C101 C102 1.333 . S
C101 N103 1.317 . S
C101 H106 0.930 . S
C102 C101 1.333 . S
C102 N104 1.350 . S
C102 H128 0.931 . S
N103 Co99 2.148 1_556 S
N103 C100 1.301 . S
N103 C101 1.317 . S
N104 C100 1.328 . S
N104 C102 1.350 . S
H105 C100 0.930 . S
H106 C101 0.930 . S
C107 O108 1.224 . S
C107 O126 1.247 . S
O108 C107 1.224 . S
N109 Co99 2.128 . S
N109 C110 1.355 . S
N109 C112 1.311 . S
C110 N109 1.355 . S
C110 C111 1.363 . S
C110 H122 0.929 . S
C111 C110 1.363 . S
C111 N113 1.375 . S
C111 H129 0.931 . S
C112 N109 1.311 . S
C112 N113 1.347 . S
C112 H123 0.929 . S
N113 C111 1.375 . S
N113 C112 1.347 . S
C114 C117 1.365 . S
C114 N119 1.328 . S
C114 H120 0.929 . S
C115 C116 1.362 . S
C115 C118 1.378 . S
C115 H130 0.929 . S
C116 C115 1.362 . S
C116 C117 1.366 . S
C117 C114 1.365 . S
C117 C116 1.366 . S
C117 H131 0.930 1_554 S
C118 C115 1.378 . S
C118 N119 1.315 . S
C118 H121 0.930 . S
N119 Co99 2.194 . S
N119 C114 1.328 . S
N119 C118 1.315 . S
H120 C114 0.929 . S
H121 C118 0.930 . S
H122 C110 0.929 . S
H123 C112 0.929 . S
O124 Co99 2.351 . S
O124 C127 1.244 . S
O125 Co99 2.155 . S
O125 C127 1.240 . S
O126 Co99 2.096 . S
O126 C107 1.247 . S
C127 O124 1.244 . S
C127 O125 1.240 . S
H128 C102 0.931 . S
H129 C111 0.931 . S
H130 C115 0.929 . S
H131 C117 0.930 1_556 S
Co132 N136 2.148 1_556 S
Co132 N142 2.128 . S
Co132 N152 2.194 . S
Co132 O157 2.351 . S
Co132 O158 2.155 . S
Co132 O159 2.096 . S
C133 N136 1.301 . S
C133 N137 1.328 . S
C133 H138 0.930 . S
C134 C135 1.333 . S
C134 N136 1.317 . S
C134 H139 0.930 . S
C135 C134 1.333 . S
C135 N137 1.350 . S
C135 H161 0.931 . S
N136 Co132 2.148 1_554 S
N136 C133 1.301 . S
N136 C134 1.317 . S
N137 C133 1.328 . S
N137 C135 1.350 . S
H138 C133 0.930 . S
H139 C134 0.930 . S
C140 O141 1.224 . S
C140 O159 1.247 . S
O141 C140 1.224 . S
N142 Co132 2.128 . S
N142 C143 1.355 . S
N142 C145 1.311 . S
C143 N142 1.355 . S
C143 C144 1.363 . S
C143 H155 0.929 . S
C144 C143 1.363 . S
C144 N146 1.375 . S
C144 H162 0.931 . S
C145 N142 1.311 . S
C145 N146 1.347 . S
C145 H156 0.929 . S
N146 C144 1.375 . S
N146 C145 1.347 . S
C147 C150 1.365 . S
C147 N152 1.328 . S
C147 H153 0.929 . S
C148 C149 1.362 . S
C148 C151 1.378 . S
C148 H163 0.929 . S
C149 C148 1.362 . S
C149 C150 1.366 . S
C150 C147 1.365 . S
C150 C149 1.366 . S
C150 H164 0.930 1_556 S
C151 C148 1.378 . S
C151 N152 1.315 . S
C151 H154 0.930 . S
N152 Co132 2.194 . S
N152 C147 1.328 . S
N152 C151 1.315 . S
H153 C147 0.929 . S
H154 C151 0.930 . S
H155 C143 0.929 . S
H156 C145 0.929 . S
O157 Co132 2.351 . S
O157 C160 1.244 . S
O158 Co132 2.155 . S
O158 C160 1.240 . S
O159 Co132 2.096 . S
O159 C140 1.247 . S
C160 O157 1.244 . S
C160 O158 1.240 . S
H161 C135 0.931 . S
H162 C144 0.931 . S
H163 C148 0.929 . S
H164 C150 0.930 1_554 S
Co165 N169 2.148 1_556 S
Co165 N175 2.128 . S
Co165 N185 2.194 . S
Co165 O190 2.351 . S
Co165 O191 2.155 . S
Co165 O192 2.096 . S
C166 N169 1.301 . S
C166 N170 1.328 . S
C166 H171 0.930 . S
C167 C168 1.333 . S
C167 N169 1.317 . S
C167 H172 0.930 . S
C168 C167 1.333 . S
C168 N170 1.350 . S
C168 H194 0.931 . S
N169 Co165 2.148 1_554 S
N169 C166 1.301 . S
N169 C167 1.317 . S
N170 C166 1.328 . S
N170 C168 1.350 . S
H171 C166 0.930 . S
H172 C167 0.930 . S
C173 O174 1.224 . S
C173 O192 1.247 . S
O174 C173 1.224 . S
N175 Co165 2.128 . S
N175 C176 1.355 . S
N175 C178 1.311 . S
C176 N175 1.355 . S
C176 C177 1.363 . S
C176 H188 0.929 . S
C177 C176 1.363 . S
C177 N179 1.375 . S
C177 H195 0.931 . S
C178 N175 1.311 . S
C178 N179 1.347 . S
C178 H189 0.929 . S
N179 C177 1.375 . S
N179 C178 1.347 . S
C180 C183 1.365 . S
C180 N185 1.328 . S
C180 H186 0.929 . S
C181 C182 1.362 . S
C181 C184 1.378 . S
C181 H196 0.929 . S
C182 C181 1.362 . S
C182 C183 1.366 . S
C183 C180 1.365 . S
C183 C182 1.366 . S
C183 H197 0.930 1_556 S
C184 C181 1.378 . S
C184 N185 1.315 . S
C184 H187 0.930 . S
N185 Co165 2.194 . S
N185 C180 1.328 . S
N185 C184 1.315 . S
H186 C180 0.929 . S
H187 C184 0.930 . S
H188 C176 0.929 . S
H189 C178 0.929 . S
O190 Co165 2.351 . S
O190 C193 1.244 . S
O191 Co165 2.155 . S
O191 C193 1.240 . S
O192 Co165 2.096 . S
O192 C173 1.247 . S
C193 O190 1.244 . S
C193 O191 1.240 . S
H194 C168 0.931 . S
H195 C177 0.931 . S
H196 C181 0.929 . S
H197 C183 0.930 1_554 S
Co198 N202 2.148 1_556 S
Co198 N208 2.128 . S
Co198 N218 2.194 . S
Co198 O223 2.351 . S
Co198 O224 2.155 . S
Co198 O225 2.096 . S
C199 N202 1.301 . S
C199 N203 1.328 . S
C199 H204 0.930 . S
C200 C201 1.333 . S
C200 N202 1.317 . S
C200 H205 0.930 . S
C201 C200 1.333 . S
C201 N203 1.350 . S
C201 H227 0.931 . S
N202 Co198 2.148 1_554 S
N202 C199 1.301 . S
N202 C200 1.317 . S
N203 C199 1.328 . S
N203 C201 1.350 . S
H204 C199 0.930 . S
H205 C200 0.930 . S
C206 O207 1.224 . S
C206 O225 1.247 . S
O207 C206 1.224 . S
N208 Co198 2.128 . S
N208 C209 1.355 . S
N208 C211 1.311 . S
C209 N208 1.355 . S
C209 C210 1.363 . S
C209 H221 0.929 . S
C210 C209 1.363 . S
C210 N212 1.375 . S
C210 H228 0.931 . S
C211 N208 1.311 . S
C211 N212 1.347 . S
C211 H222 0.929 . S
N212 C210 1.375 . S
N212 C211 1.347 . S
C213 C216 1.365 . S
C213 N218 1.328 . S
C213 H219 0.929 . S
C214 C215 1.362 . S
C214 C217 1.378 . S
C214 H229 0.929 . S
C215 C214 1.362 . S
C215 C216 1.366 . S
C216 C213 1.365 . S
C216 C215 1.366 . S
C216 H230 0.930 1_556 S
C217 C214 1.378 . S
C217 N218 1.315 . S
C217 H220 0.930 . S
N218 Co198 2.194 . S
N218 C213 1.328 . S
N218 C217 1.315 . S
H219 C213 0.929 . S
H220 C217 0.930 . S
H221 C209 0.929 . S
H222 C211 0.929 . S
O223 Co198 2.351 . S
O223 C226 1.244 . S
O224 Co198 2.155 . S
O224 C226 1.240 . S
O225 Co198 2.096 . S
O225 C206 1.247 . S
C226 O223 1.244 . S
C226 O224 1.240 . S
H227 C201 0.931 . S
H228 C210 0.931 . S
H229 C214 0.929 . S
H230 C216 0.930 1_554 S
Co231 N235 2.148 1_556 S
Co231 N241 2.128 . S
Co231 N251 2.194 . S
Co231 O256 2.351 . S
Co231 O257 2.155 . S
Co231 O258 2.096 . S
C232 N235 1.301 . S
C232 N236 1.328 . S
C232 H237 0.930 . S
C233 C234 1.333 . S
C233 N235 1.317 . S
C233 H238 0.930 . S
C234 C233 1.333 . S
C234 N236 1.350 . S
C234 H260 0.931 . S
N235 Co231 2.148 1_554 S
N235 C232 1.301 . S
N235 C233 1.317 . S
N236 C232 1.328 . S
N236 C234 1.350 . S
H237 C232 0.930 . S
H238 C233 0.930 . S
C239 O240 1.224 . S
C239 O258 1.247 . S
O240 C239 1.224 . S
N241 Co231 2.128 . S
N241 C242 1.355 . S
N241 C244 1.311 . S
C242 N241 1.355 . S
C242 C243 1.363 . S
C242 H254 0.929 . S
C243 C242 1.363 . S
C243 N245 1.375 . S
C243 H261 0.931 . S
C244 N241 1.311 . S
C244 N245 1.347 . S
C244 H255 0.929 . S
N245 C243 1.375 . S
N245 C244 1.347 . S
C246 C249 1.365 . S
C246 N251 1.328 . S
C246 H252 0.929 . S
C247 C248 1.362 . S
C247 C250 1.378 . S
C247 H262 0.929 . S
C248 C247 1.362 . S
C248 C249 1.366 . S
C249 C246 1.365 . S
C249 C248 1.366 . S
C249 H263 0.930 1_556 S
C250 C247 1.378 . S
C250 N251 1.315 . S
C250 H253 0.930 . S
N251 Co231 2.194 . S
N251 C246 1.328 . S
N251 C250 1.315 . S
H252 C246 0.929 . S
H253 C250 0.930 . S
H254 C242 0.929 . S
H255 C244 0.929 . S
O256 Co231 2.351 . S
O256 C259 1.244 . S
O257 Co231 2.155 . S
O257 C259 1.240 . S
O258 Co231 2.096 . S
O258 C239 1.247 . S
C259 O256 1.244 . S
C259 O257 1.240 . S
H260 C234 0.931 . S
H261 C243 0.931 . S
H262 C247 0.929 . S
H263 C249 0.930 1_554 S
Co264 N268 2.148 . S
Co264 N274 2.128 . S
Co264 N284 2.194 . S
Co264 O289 2.351 . S
Co264 O290 2.155 . S
Co264 O291 2.096 . S
C265 N268 1.301 . S
C265 N269 1.328 . S
C265 H270 0.930 . S
C266 C267 1.333 . S
C266 N268 1.317 . S
C266 H271 0.930 . S
C267 C266 1.333 . S
C267 N269 1.350 . S
C267 H293 0.931 . S
N268 Co264 2.148 . S
N268 C265 1.301 . S
N268 C266 1.317 . S
N269 C265 1.328 . S
N269 C267 1.350 . S
H270 C265 0.930 . S
H271 C266 0.930 . S
C272 O273 1.224 . S
C272 O291 1.247 . S
O273 C272 1.224 . S
N274 Co264 2.128 . S
N274 C275 1.355 . S
N274 C277 1.311 . S
C275 N274 1.355 . S
C275 C276 1.363 . S
C275 H287 0.929 . S
C276 C275 1.363 . S
C276 N278 1.375 . S
C276 H294 0.931 . S
C277 N274 1.311 . S
C277 N278 1.347 . S
C277 H288 0.929 . S
N278 C276 1.375 . S
N278 C277 1.347 . S
C279 C282 1.365 . S
C279 N284 1.328 . S
C279 H285 0.929 . S
C280 C281 1.362 . S
C280 C283 1.378 . S
C280 H295 0.929 . S
C281 C280 1.362 . S
C281 C282 1.366 . S
C282 C279 1.365 . S
C282 C281 1.366 . S
C282 H296 0.930 . S
C283 C280 1.378 . S
C283 N284 1.315 . S
C283 H286 0.930 . S
N284 Co264 2.194 . S
N284 C279 1.328 . S
N284 C283 1.315 . S
H285 C279 0.929 . S
H286 C283 0.930 . S
H287 C275 0.929 . S
H288 C277 0.929 . S
O289 Co264 2.351 . S
O289 C292 1.244 . S
O290 Co264 2.155 . S
O290 C292 1.240 . S
O291 Co264 2.096 . S
O291 C272 1.247 . S
C292 O289 1.244 . S
C292 O290 1.240 . S
H293 C267 0.931 . S
H294 C276 0.931 . S
H295 C280 0.929 . S
H296 C282 0.930 . S
Co297 N301 2.148 . S
Co297 N307 2.128 . S
Co297 N317 2.194 . S
Co297 O322 2.351 . S
Co297 O323 2.155 . S
Co297 O324 2.096 . S
C298 N301 1.301 . S
C298 N302 1.328 . S
C298 H303 0.930 . S
C299 C300 1.333 . S
C299 N301 1.317 . S
C299 H304 0.930 . S
C300 C299 1.333 . S
C300 N302 1.350 . S
C300 H326 0.931 . S
N301 Co297 2.148 . S
N301 C298 1.301 . S
N301 C299 1.317 . S
N302 C298 1.328 . S
N302 C300 1.350 . S
H303 C298 0.930 . S
H304 C299 0.930 . S
C305 O306 1.224 . S
C305 O324 1.247 . S
O306 C305 1.224 . S
N307 Co297 2.128 . S
N307 C308 1.355 . S
N307 C310 1.311 . S
C308 N307 1.355 . S
C308 C309 1.363 . S
C308 H320 0.929 . S
C309 C308 1.363 . S
C309 N311 1.375 . S
C309 H327 0.931 . S
C310 N307 1.311 . S
C310 N311 1.347 . S
C310 H321 0.929 . S
N311 C309 1.375 . S
N311 C310 1.347 . S
C312 C315 1.365 . S
C312 N317 1.328 . S
C312 H318 0.929 . S
C313 C314 1.362 . S
C313 C316 1.378 . S
C313 H328 0.929 . S
C314 C313 1.362 . S
C314 C315 1.366 . S
C315 C312 1.365 . S
C315 C314 1.366 . S
C315 H329 0.930 . S
C316 C313 1.378 . S
C316 N317 1.315 . S
C316 H319 0.930 . S
N317 Co297 2.194 . S
N317 C312 1.328 . S
N317 C316 1.315 . S
H318 C312 0.929 . S
H319 C316 0.930 . S
H320 C308 0.929 . S
H321 C310 0.929 . S
O322 Co297 2.351 . S
O322 C325 1.244 . S
O323 Co297 2.155 . S
O323 C325 1.240 . S
O324 Co297 2.096 . S
O324 C305 1.247 . S
C325 O322 1.244 . S
C325 O323 1.240 . S
H326 C300 0.931 . S
H327 C309 0.931 . S
H328 C313 0.929 . S
H329 C315 0.930 . S
Co330 N334 2.148 . S
Co330 N340 2.128 . S
Co330 N350 2.194 . S
Co330 O355 2.351 . S
Co330 O356 2.155 . S
Co330 O357 2.096 . S
C331 N334 1.301 . S
C331 N335 1.328 . S
C331 H336 0.930 . S
C332 C333 1.333 . S
C332 N334 1.317 . S
C332 H337 0.930 . S
C333 C332 1.333 . S
C333 N335 1.350 . S
C333 H359 0.931 . S
N334 Co330 2.148 . S
N334 C331 1.301 . S
N334 C332 1.317 . S
N335 C331 1.328 . S
N335 C333 1.350 . S
H336 C331 0.930 . S
H337 C332 0.930 . S
C338 O339 1.224 . S
C338 O357 1.247 . S
O339 C338 1.224 . S
N340 Co330 2.128 . S
N340 C341 1.355 . S
N340 C343 1.311 . S
C341 N340 1.355 . S
C341 C342 1.363 . S
C341 H353 0.929 . S
C342 C341 1.363 . S
C342 N344 1.375 . S
C342 H360 0.931 . S
C343 N340 1.311 . S
C343 N344 1.347 . S
C343 H354 0.929 . S
N344 C342 1.375 . S
N344 C343 1.347 . S
C345 C348 1.365 . S
C345 N350 1.328 . S
C345 H351 0.929 . S
C346 C347 1.362 . S
C346 C349 1.378 . S
C346 H361 0.929 . S
C347 C346 1.362 . S
C347 C348 1.366 . S
C348 C345 1.365 . S
C348 C347 1.366 . S
C348 H362 0.930 . S
C349 C346 1.378 . S
C349 N350 1.315 . S
C349 H352 0.930 . S
N350 Co330 2.194 . S
N350 C345 1.328 . S
N350 C349 1.315 . S
H351 C345 0.929 . S
H352 C349 0.930 . S
H353 C341 0.929 . S
H354 C343 0.929 . S
O355 Co330 2.351 . S
O355 C358 1.244 . S
O356 Co330 2.155 . S
O356 C358 1.240 . S
O357 Co330 2.096 . S
O357 C338 1.247 . S
C358 O355 1.244 . S
C358 O356 1.240 . S
H359 C333 0.931 . S
H360 C342 0.931 . S
H361 C346 0.929 . S
H362 C348 0.930 . S
Co363 N367 2.148 . S
Co363 N373 2.128 . S
Co363 N383 2.194 . S
Co363 O388 2.351 . S
Co363 O389 2.155 . S
Co363 O390 2.096 . S
C364 N367 1.301 . S
C364 N368 1.328 . S
C364 H369 0.930 . S
C365 C366 1.333 . S
C365 N367 1.317 . S
C365 H370 0.930 . S
C366 C365 1.333 . S
C366 N368 1.350 . S
C366 H392 0.931 . S
N367 Co363 2.148 . S
N367 C364 1.301 . S
N367 C365 1.317 . S
N368 C364 1.328 . S
N368 C366 1.350 . S
H369 C364 0.930 . S
H370 C365 0.930 . S
C371 O372 1.224 . S
C371 O390 1.247 . S
O372 C371 1.224 . S
N373 Co363 2.128 . S
N373 C374 1.355 . S
N373 C376 1.311 . S
C374 N373 1.355 . S
C374 C375 1.363 . S
C374 H386 0.929 . S
C375 C374 1.363 . S
C375 N377 1.375 . S
C375 H393 0.931 . S
C376 N373 1.311 . S
C376 N377 1.347 . S
C376 H387 0.929 . S
N377 C375 1.375 . S
N377 C376 1.347 . S
C378 C381 1.365 . S
C378 N383 1.328 . S
C378 H384 0.929 . S
C379 C380 1.362 . S
C379 C382 1.378 . S
C379 H394 0.929 . S
C380 C379 1.362 . S
C380 C381 1.366 . S
C381 C378 1.365 . S
C381 C380 1.366 . S
C381 H395 0.930 . S
C382 C379 1.378 . S
C382 N383 1.315 . S
C382 H385 0.930 . S
N383 Co363 2.194 . S
N383 C378 1.328 . S
N383 C382 1.315 . S
H384 C378 0.929 . S
H385 C382 0.930 . S
H386 C374 0.929 . S
H387 C376 0.929 . S
O388 Co363 2.351 . S
O388 C391 1.244 . S
O389 Co363 2.155 . S
O389 C391 1.240 . S
O390 Co363 2.096 . S
O390 C371 1.247 . S
C391 O388 1.244 . S
C391 O389 1.240 . S
H392 C366 0.931 . S
H393 C375 0.931 . S
H394 C379 0.929 . S
H395 C381 0.930 . S
Co396 N400 2.148 . S
Co396 N406 2.128 . S
Co396 N416 2.194 . S
Co396 O421 2.351 . S
Co396 O422 2.155 . S
Co396 O423 2.096 . S
C397 N400 1.301 . S
C397 N401 1.328 . S
C397 H402 0.930 . S
C398 C399 1.333 . S
C398 N400 1.317 . S
C398 H403 0.930 . S
C399 C398 1.333 . S
C399 N401 1.350 . S
C399 H425 0.931 . S
N400 Co396 2.148 . S
N400 C397 1.301 . S
N400 C398 1.317 . S
N401 C397 1.328 . S
N401 C399 1.350 . S
H402 C397 0.930 . S
H403 C398 0.930 . S
C404 O405 1.224 . S
C404 O423 1.247 . S
O405 C404 1.224 . S
N406 Co396 2.128 . S
N406 C407 1.355 . S
N406 C409 1.311 . S
C407 N406 1.355 . S
C407 C408 1.363 . S
C407 H419 0.929 . S
C408 C407 1.363 . S
C408 N410 1.375 . S
C408 H426 0.931 . S
C409 N406 1.311 . S
C409 N410 1.347 . S
C409 H420 0.929 . S
N410 C408 1.375 . S
N410 C409 1.347 . S
C411 C414 1.365 . S
C411 N416 1.328 . S
C411 H417 0.929 . S
C412 C413 1.362 . S
C412 C415 1.378 . S
C412 H427 0.929 . S
C413 C412 1.362 . S
C413 C414 1.366 . S
C414 C411 1.365 . S
C414 C413 1.366 . S
C414 H428 0.930 . S
C415 C412 1.378 . S
C415 N416 1.315 . S
C415 H418 0.930 . S
N416 Co396 2.194 . S
N416 C411 1.328 . S
N416 C415 1.315 . S
H417 C411 0.929 . S
H418 C415 0.930 . S
H419 C407 0.929 . S
H420 C409 0.929 . S
O421 Co396 2.351 . S
O421 C424 1.244 . S
O422 Co396 2.155 . S
O422 C424 1.240 . S
O423 Co396 2.096 . S
O423 C404 1.247 . S
C424 O421 1.244 . S
C424 O422 1.240 . S
H425 C399 0.931 . S
H426 C408 0.931 . S
H427 C412 0.929 . S
H428 C414 0.930 . S
Co429 N433 2.148 . S
Co429 N439 2.128 . S
Co429 N449 2.194 . S
Co429 O454 2.351 . S
Co429 O455 2.155 . S
Co429 O456 2.096 . S
C430 N433 1.301 . S
C430 N434 1.328 . S
C430 H435 0.930 . S
C431 C432 1.333 . S
C431 N433 1.317 . S
C431 H436 0.930 . S
C432 C431 1.333 . S
C432 N434 1.350 . S
C432 H458 0.931 . S
N433 Co429 2.148 . S
N433 C430 1.301 . S
N433 C431 1.317 . S
N434 C430 1.328 . S
N434 C432 1.350 . S
H435 C430 0.930 . S
H436 C431 0.930 . S
C437 O438 1.224 . S
C437 O456 1.247 . S
O438 C437 1.224 . S
N439 Co429 2.128 . S
N439 C440 1.355 . S
N439 C442 1.311 . S
C440 N439 1.355 . S
C440 C441 1.363 . S
C440 H452 0.929 . S
C441 C440 1.363 . S
C441 N443 1.375 . S
C441 H459 0.931 . S
C442 N439 1.311 . S
C442 N443 1.347 . S
C442 H453 0.929 . S
N443 C441 1.375 . S
N443 C442 1.347 . S
C444 C447 1.365 . S
C444 N449 1.328 . S
C444 H450 0.929 . S
C445 C446 1.362 . S
C445 C448 1.378 . S
C445 H460 0.929 . S
C446 C445 1.362 . S
C446 C447 1.366 . S
C447 C444 1.365 . S
C447 C446 1.366 . S
C447 H461 0.930 . S
C448 C445 1.378 . S
C448 N449 1.315 . S
C448 H451 0.930 . S
N449 Co429 2.194 . S
N449 C444 1.328 . S
N449 C448 1.315 . S
H450 C444 0.929 . S
H451 C448 0.930 . S
H452 C440 0.929 . S
H453 C442 0.929 . S
O454 Co429 2.351 . S
O454 C457 1.244 . S
O455 Co429 2.155 . S
O455 C457 1.240 . S
O456 Co429 2.096 . S
O456 C437 1.247 . S
C457 O454 1.244 . S
C457 O455 1.240 . S
H458 C432 0.931 . S
H459 C441 0.931 . S
H460 C445 0.929 . S
H461 C447 0.930 . S
Co462 N466 2.148 . S
Co462 N472 2.128 . S
Co462 N482 2.194 . S
Co462 O487 2.351 . S
Co462 O488 2.155 . S
Co462 O489 2.096 . S
C463 N466 1.301 . S
C463 N467 1.328 . S
C463 H468 0.930 . S
C464 C465 1.333 . S
C464 N466 1.317 . S
C464 H469 0.930 . S
C465 C464 1.333 . S
C465 N467 1.350 . S
C465 H491 0.931 . S
N466 Co462 2.148 . S
N466 C463 1.301 . S
N466 C464 1.317 . S
N467 C463 1.328 . S
N467 C465 1.350 . S
H468 C463 0.930 . S
H469 C464 0.930 . S
C470 O471 1.224 . S
C470 O489 1.247 . S
O471 C470 1.224 . S
N472 Co462 2.128 . S
N472 C473 1.355 . S
N472 C475 1.311 . S
C473 N472 1.355 . S
C473 C474 1.363 . S
C473 H485 0.929 . S
C474 C473 1.363 . S
C474 N476 1.375 . S
C474 H492 0.931 . S
C475 N472 1.311 . S
C475 N476 1.347 . S
C475 H486 0.929 . S
N476 C474 1.375 . S
N476 C475 1.347 . S
C477 C480 1.365 . S
C477 N482 1.328 . S
C477 H483 0.929 . S
C478 C479 1.362 . S
C478 C481 1.378 . S
C478 H493 0.929 . S
C479 C478 1.362 . S
C479 C480 1.366 . S
C480 C477 1.365 . S
C480 C479 1.366 . S
C480 H494 0.930 . S
C481 C478 1.378 . S
C481 N482 1.315 . S
C481 H484 0.930 . S
N482 Co462 2.194 . S
N482 C477 1.328 . S
N482 C481 1.315 . S
H483 C477 0.929 . S
H484 C481 0.930 . S
H485 C473 0.929 . S
H486 C475 0.929 . S
O487 Co462 2.351 . S
O487 C490 1.244 . S
O488 Co462 2.155 . S
O488 C490 1.240 . S
O489 Co462 2.096 . S
O489 C470 1.247 . S
C490 O487 1.244 . S
C490 O488 1.240 . S
H491 C465 0.931 . S
H492 C474 0.931 . S
H493 C478 0.929 . S
H494 C480 0.930 . S
Co495 N499 2.148 . S
Co495 N505 2.128 . S
Co495 N515 2.194 . S
Co495 O520 2.351 . S
Co495 O521 2.155 . S
Co495 O522 2.096 . S
C496 N499 1.301 . S
C496 N500 1.328 . S
C496 H501 0.930 . S
C497 C498 1.333 . S
C497 N499 1.317 . S
C497 H502 0.930 . S
C498 C497 1.333 . S
C498 N500 1.350 . S
C498 H524 0.931 . S
N499 Co495 2.148 . S
N499 C496 1.301 . S
N499 C497 1.317 . S
N500 C496 1.328 . S
N500 C498 1.350 . S
H501 C496 0.930 . S
H502 C497 0.930 . S
C503 O504 1.224 . S
C503 O522 1.247 . S
O504 C503 1.224 . S
N505 Co495 2.128 . S
N505 C506 1.355 . S
N505 C508 1.311 . S
C506 N505 1.355 . S
C506 C507 1.363 . S
C506 H518 0.929 . S
C507 C506 1.363 . S
C507 N509 1.375 . S
C507 H525 0.931 . S
C508 N505 1.311 . S
C508 N509 1.347 . S
C508 H519 0.929 . S
N509 C507 1.375 . S
N509 C508 1.347 . S
C510 C513 1.365 . S
C510 N515 1.328 . S
C510 H516 0.929 . S
C511 C512 1.362 . S
C511 C514 1.378 . S
C511 H526 0.929 . S
C512 C511 1.362 . S
C512 C513 1.366 . S
C513 C510 1.365 . S
C513 C512 1.366 . S
C513 H527 0.930 . S
C514 C511 1.378 . S
C514 N515 1.315 . S
C514 H517 0.930 . S
N515 Co495 2.194 . S
N515 C510 1.328 . S
N515 C514 1.315 . S
H516 C510 0.929 . S
H517 C514 0.930 . S
H518 C506 0.929 . S
H519 C508 0.929 . S
O520 Co495 2.351 . S
O520 C523 1.244 . S
O521 Co495 2.155 . S
O521 C523 1.240 . S
O522 Co495 2.096 . S
O522 C503 1.247 . S
C523 O520 1.244 . S
C523 O521 1.240 . S
H524 C498 0.931 . S
H525 C507 0.931 . S
H526 C511 0.929 . S
H527 C513 0.930 . S
C528 C529 1.369 . S
C528 C530 1.419 . S
C528 H532 0.930 . S
C529 C528 1.369 . S
C529 C538 1.429 . S
C530 C528 1.419 . S
C530 C531 1.363 . S
C530 H533 0.929 . S
C531 C530 1.363 . S
C531 C537 1.428 . S
H532 C528 0.930 . S
H533 C530 0.929 . S
S534 N535 1.613 . S
S534 N536 1.610 . S
N535 S534 1.613 . S
N535 C538 1.350 . S
N536 S534 1.610 . S
N536 C537 1.351 . S
C537 C531 1.428 . S
C537 N536 1.351 . S
C537 C538 1.434 . S
C538 C529 1.429 . S
C538 N535 1.350 . S
C538 C537 1.434 . S
C539 C540 1.369 . S
C539 C541 1.419 . S
C539 H543 0.930 . S
C540 C539 1.369 . S
C540 C549 1.429 . S
C541 C539 1.419 . S
C541 C542 1.363 . S
C541 H544 0.929 . S
C542 C541 1.363 . S
C542 C548 1.428 . S
H543 C539 0.930 . S
H544 C541 0.929 . S
S545 N546 1.613 . S
S545 N547 1.610 . S
N546 S545 1.613 . S
N546 C549 1.350 . S
N547 S545 1.610 . S
N547 C548 1.351 . S
C548 C542 1.428 . S
C548 N547 1.351 . S
C548 C549 1.434 . S
C549 C540 1.429 . S
C549 N546 1.350 . S
C549 C548 1.434 . S
C550 C551 1.369 . S
C550 C552 1.419 . S
C550 H554 0.930 . S
C551 C550 1.369 . S
C551 C560 1.429 . S
C552 C550 1.419 . S
C552 C553 1.363 . S
C552 H555 0.929 . S
C553 C552 1.363 . S
C553 C559 1.428 . S
H554 C550 0.930 . S
H555 C552 0.929 . S
S556 N557 1.613 . S
S556 N558 1.610 . S
N557 S556 1.613 . S
N557 C560 1.350 . S
N558 S556 1.610 . S
N558 C559 1.351 . S
C559 C553 1.428 . S
C559 N558 1.351 . S
C559 C560 1.434 . S
C560 C551 1.429 . S
C560 N557 1.350 . S
C560 C559 1.434 . S
C561 C562 1.369 . S
C561 C563 1.419 . S
C561 H565 0.930 . S
C562 C561 1.369 . S
C562 C571 1.429 . S
C563 C561 1.419 . S
C563 C564 1.363 . S
C563 H566 0.929 . S
C564 C563 1.363 . S
C564 C570 1.428 . S
H565 C561 0.930 . S
H566 C563 0.929 . S
S567 N568 1.613 . S
S567 N569 1.610 . S
N568 S567 1.613 . S
N568 C571 1.350 . S
N569 S567 1.610 . S
N569 C570 1.351 . S
C570 C564 1.428 . S
C570 N569 1.351 . S
C570 C571 1.434 . S
C571 C562 1.429 . S
C571 N568 1.350 . S
C571 C570 1.434 . S
C572 C573 1.369 . S
C572 C574 1.419 . S
C572 H576 0.930 . S
C573 C572 1.369 . S
C573 C582 1.429 . S
C574 C572 1.419 . S
C574 C575 1.363 . S
C574 H577 0.929 . S
C575 C574 1.363 . S
C575 C581 1.428 . S
H576 C572 0.930 . S
H577 C574 0.929 . S
S578 N579 1.613 . S
S578 N580 1.610 . S
N579 S578 1.613 . S
N579 C582 1.350 . S
N580 S578 1.610 . S
N580 C581 1.351 . S
C581 C575 1.428 . S
C581 N580 1.351 . S
C581 C582 1.434 . S
C582 C573 1.429 . S
C582 N579 1.350 . S
C582 C581 1.434 . S
C583 C584 1.369 . S
C583 C585 1.419 . S
C583 H587 0.930 . S
C584 C583 1.369 . S
C584 C593 1.429 . S
C585 C583 1.419 . S
C585 C586 1.363 . S
C585 H588 0.929 . S
C586 C585 1.363 . S
C586 C592 1.428 . S
H587 C583 0.930 . S
H588 C585 0.929 . S
S589 N590 1.613 . S
S589 N591 1.610 . S
N590 S589 1.613 . S
N590 C593 1.350 . S
N591 S589 1.610 . S
N591 C592 1.351 . S
C592 C586 1.428 . S
C592 N591 1.351 . S
C592 C593 1.434 . S
C593 C584 1.429 . S
C593 N590 1.350 . S
C593 C592 1.434 . S
C594 C595 1.369 . S
C594 C596 1.419 . S
C594 H598 0.930 . S
C595 C594 1.369 . S
C595 C604 1.429 . S
C596 C594 1.419 . S
C596 C597 1.363 . S
C596 H599 0.929 . S
C597 C596 1.363 . S
C597 C603 1.428 . S
H598 C594 0.930 . S
H599 C596 0.929 . S
S600 N601 1.613 . S
S600 N602 1.610 . S
N601 S600 1.613 . S
N601 C604 1.350 . S
N602 S600 1.610 . S
N602 C603 1.351 . S
C603 C597 1.428 . S
C603 N602 1.351 . S
C603 C604 1.434 . S
C604 C595 1.429 . S
C604 N601 1.350 . S
C604 C603 1.434 . S
C605 C606 1.369 . S
C605 C607 1.419 . S
C605 H609 0.930 . S
C606 C605 1.369 . S
C606 C615 1.429 . S
C607 C605 1.419 . S
C607 C608 1.363 . S
C607 H610 0.929 . S
C608 C607 1.363 . S
C608 C614 1.428 . S
H609 C605 0.930 . S
H610 C607 0.929 . S
S611 N612 1.613 . S
S611 N613 1.610 . S
N612 S611 1.613 . S
N612 C615 1.350 . S
N613 S611 1.610 . S
N613 C614 1.351 . S
C614 C608 1.428 . S
C614 N613 1.351 . S
C614 C615 1.434 . S
C615 C606 1.429 . S
C615 N612 1.350 . S
C615 C614 1.434 . S
C616 C617 1.369 . S
C616 C618 1.419 . S
C616 H620 0.930 . S
C617 C616 1.369 . S
C617 C626 1.429 . S
C618 C616 1.419 . S
C618 C619 1.363 1_554 S
C618 H621 0.929 . S
C619 C618 1.363 1_556 S
C619 C625 1.428 1_556 S
H620 C616 0.930 . S
H621 C618 0.929 . S
S622 N623 1.613 . S
S622 N624 1.610 1_554 S
N623 S622 1.613 . S
N623 C626 1.350 . S
N624 S622 1.610 1_556 S
N624 C625 1.351 1_556 S
C625 C619 1.428 1_554 S
C625 N624 1.351 1_554 S
C625 C626 1.434 . S
C626 C617 1.429 . S
C626 N623 1.350 . S
C626 C625 1.434 . S
C627 C628 1.369 . S
C627 C629 1.419 . S
C627 H631 0.930 . S
C628 C627 1.369 . S
C628 C637 1.429 . S
C629 C627 1.419 . S
C629 C630 1.363 1_554 S
C629 H632 0.929 . S
C630 C629 1.363 1_556 S
C630 C636 1.428 1_556 S
H631 C627 0.930 . S
H632 C629 0.929 . S
S633 N634 1.613 . S
S633 N635 1.610 1_554 S
N634 S633 1.613 . S
N634 C637 1.350 . S
N635 S633 1.610 1_556 S
N635 C636 1.351 1_556 S
C636 C630 1.428 1_554 S
C636 N635 1.351 1_554 S
C636 C637 1.434 . S
C637 C628 1.429 . S
C637 N634 1.350 . S
C637 C636 1.434 . S
C638 C639 1.369 . S
C638 C640 1.419 . S
C638 H642 0.930 . S
C639 C638 1.369 . S
C639 C648 1.429 . S
C640 C638 1.419 . S
C640 C641 1.363 1_554 S
C640 H643 0.929 . S
C641 C640 1.363 1_556 S
C641 C647 1.428 1_556 S
H642 C638 0.930 . S
H643 C640 0.929 . S
S644 N645 1.613 . S
S644 N646 1.610 1_554 S
N645 S644 1.613 . S
N645 C648 1.350 . S
N646 S644 1.610 1_556 S
N646 C647 1.351 1_556 S
C647 C641 1.428 1_554 S
C647 N646 1.351 1_554 S
C647 C648 1.434 . S
C648 C639 1.429 . S
C648 N645 1.350 . S
C648 C647 1.434 . S
C649 C650 1.369 . S
C649 C651 1.419 . S
C649 H653 0.930 . S
C650 C649 1.369 . S
C650 C659 1.429 . S
C651 C649 1.419 . S
C651 C652 1.363 1_554 S
C651 H654 0.929 . S
C652 C651 1.363 1_556 S
C652 C658 1.428 1_556 S
H653 C649 0.930 . S
H654 C651 0.929 . S
S655 N656 1.613 . S
S655 N657 1.610 1_554 S
N656 S655 1.613 . S
N656 C659 1.350 . S
N657 S655 1.610 1_556 S
N657 C658 1.351 1_556 S
C658 C652 1.428 1_554 S
C658 N657 1.351 1_554 S
C658 C659 1.434 . S
C659 C650 1.429 . S
C659 N656 1.350 . S
C659 C658 1.434 . S
C660 C661 1.369 1_556 S
C660 C662 1.419 . S
C660 H664 0.930 1_556 S
C661 C660 1.369 1_554 S
C661 C670 1.429 1_554 S
C662 C660 1.419 . S
C662 C663 1.363 . S
C662 H665 0.929 . S
C663 C662 1.363 . S
C663 C669 1.428 . S
H664 C660 0.930 1_554 S
H665 C662 0.929 . S
S666 N667 1.613 . S
S666 N668 1.610 . S
N667 S666 1.613 . S
N667 C670 1.350 . S
N668 S666 1.610 . S
N668 C669 1.351 . S
C669 C663 1.428 . S
C669 N668 1.351 . S
C669 C670 1.434 . S
C670 C661 1.429 1_556 S
C670 N667 1.350 . S
C670 C669 1.434 . S
C671 C672 1.369 1_556 S
C671 C673 1.419 . S
C671 H675 0.930 . S
C672 C671 1.369 1_554 S
C672 C681 1.429 1_554 S
C673 C671 1.419 . S
C673 C674 1.363 . S
C673 H676 0.929 . S
C674 C673 1.363 . S
C674 C680 1.428 . S
H675 C671 0.930 . S
H676 C673 0.929 . S
S677 N678 1.613 1_556 S
S677 N679 1.610 . S
N678 S677 1.613 1_554 S
N678 C681 1.350 1_554 S
N679 S677 1.610 . S
N679 C680 1.351 . S
C680 C674 1.428 . S
C680 N679 1.351 . S
C680 C681 1.434 . S
C681 C672 1.429 1_556 S
C681 N678 1.350 1_556 S
C681 C680 1.434 . S
C682 C683 1.369 1_556 S
C682 C684 1.419 . S
C682 H686 0.930 1_556 S
C683 C682 1.369 1_554 S
C683 C692 1.429 1_554 S
C684 C682 1.419 . S
C684 C685 1.363 . S
C684 H687 0.929 . S
C685 C684 1.363 . S
C685 C691 1.428 . S
H686 C682 0.930 1_554 S
H687 C684 0.929 . S
S688 N689 1.613 . S
S688 N690 1.610 . S
N689 S688 1.613 . S
N689 C692 1.350 . S
N690 S688 1.610 . S
N690 C691 1.351 . S
C691 C685 1.428 . S
C691 N690 1.351 . S
C691 C692 1.434 . S
C692 C683 1.429 1_556 S
C692 N689 1.350 . S
C692 C691 1.434 . S
C693 C694 1.369 1_556 S
C693 C695 1.419 . S
C693 H697 0.930 1_556 S
C694 C693 1.369 1_554 S
C694 C703 1.429 1_554 S
C695 C693 1.419 . S
C695 C696 1.363 . S
C695 H698 0.929 . S
C696 C695 1.363 . S
C696 C702 1.428 . S
H697 C693 0.930 1_554 S
H698 C695 0.929 . S
S699 N700 1.613 . S
S699 N701 1.610 . S
N700 S699 1.613 . S
N700 C703 1.350 . S
N701 S699 1.610 . S
N701 C702 1.351 . S
C702 C696 1.428 . S
C702 N701 1.351 . S
C702 C703 1.434 . S
C703 C694 1.429 1_556 S
C703 N700 1.350 . S
C703 C702 1.434 . S
C704 C705 1.369 . S
C704 C706 1.419 . S
C704 H708 0.930 . S
C705 C704 1.369 . S
C705 C714 1.429 . S
C706 C704 1.419 . S
C706 C707 1.363 . S
C706 H709 0.929 . S
C707 C706 1.363 . S
C707 C713 1.428 . S
H708 C704 0.930 . S
H709 C706 0.929 . S
S710 N711 1.613 . S
S710 N712 1.610 . S
N711 S710 1.613 . S
N711 C714 1.350 . S
N712 S710 1.610 . S
N712 C713 1.351 . S
C713 C707 1.428 . S
C713 N712 1.351 . S
C713 C714 1.434 . S
C714 C705 1.429 . S
C714 N711 1.350 . S
C714 C713 1.434 . S
C715 C716 1.369 . S
C715 C717 1.419 . S
C715 H719 0.930 . S
C716 C715 1.369 . S
C716 C725 1.429 . S
C717 C715 1.419 . S
C717 C718 1.363 . S
C717 H720 0.929 . S
C718 C717 1.363 . S
C718 C724 1.428 . S
H719 C715 0.930 . S
H720 C717 0.929 . S
S721 N722 1.613 . S
S721 N723 1.610 . S
N722 S721 1.613 . S
N722 C725 1.350 . S
N723 S721 1.610 . S
N723 C724 1.351 . S
C724 C718 1.428 . S
C724 N723 1.351 . S
C724 C725 1.434 . S
C725 C716 1.429 . S
C725 N722 1.350 . S
C725 C724 1.434 . S
C726 C727 1.369 . S
C726 C728 1.419 . S
C726 H730 0.930 . S
C727 C726 1.369 . S
C727 C736 1.429 . S
C728 C726 1.419 . S
C728 C729 1.363 . S
C728 H731 0.929 . S
C729 C728 1.363 . S
C729 C735 1.428 . S
H730 C726 0.930 . S
H731 C728 0.929 . S
S732 N733 1.613 . S
S732 N734 1.610 . S
N733 S732 1.613 . S
N733 C736 1.350 . S
N734 S732 1.610 . S
N734 C735 1.351 . S
C735 C729 1.428 . S
C735 N734 1.351 . S
C735 C736 1.434 . S
C736 C727 1.429 . S
C736 N733 1.350 . S
C736 C735 1.434 . S
C737 C738 1.369 . S
C737 C739 1.419 . S
C737 H741 0.930 . S
C738 C737 1.369 . S
C738 C747 1.429 . S
C739 C737 1.419 . S
C739 C740 1.363 . S
C739 H742 0.929 . S
C740 C739 1.363 . S
C740 C746 1.428 . S
H741 C737 0.930 . S
H742 C739 0.929 . S
S743 N744 1.613 . S
S743 N745 1.610 . S
N744 S743 1.613 . S
N744 C747 1.350 . S
N745 S743 1.610 . S
N745 C746 1.351 . S
C746 C740 1.428 . S
C746 N745 1.351 . S
C746 C747 1.434 . S
C747 C738 1.429 . S
C747 N744 1.350 . S
C747 C746 1.434 . S
C748 C749 1.369 . S
C748 C750 1.419 . S
C748 H752 0.930 . S
C749 C748 1.369 . S
C749 C758 1.429 . S
C750 C748 1.419 . S
C750 C751 1.363 . S
C750 H753 0.929 . S
C751 C750 1.363 . S
C751 C757 1.428 . S
H752 C748 0.930 . S
H753 C750 0.929 . S
S754 N755 1.613 . S
S754 N756 1.610 . S
N755 S754 1.613 . S
N755 C758 1.350 . S
N756 S754 1.610 . S
N756 C757 1.351 . S
C757 C751 1.428 . S
C757 N756 1.351 . S
C757 C758 1.434 . S
C758 C749 1.429 . S
C758 N755 1.350 . S
C758 C757 1.434 . S
C759 C760 1.369 . S
C759 C761 1.419 . S
C759 H763 0.930 . S
C760 C759 1.369 . S
C760 C769 1.429 . S
C761 C759 1.419 . S
C761 C762 1.363 . S
C761 H764 0.929 . S
C762 C761 1.363 . S
C762 C768 1.428 . S
H763 C759 0.930 . S
H764 C761 0.929 . S
S765 N766 1.613 . S
S765 N767 1.610 . S
N766 S765 1.613 . S
N766 C769 1.350 . S
N767 S765 1.610 . S
N767 C768 1.351 . S
C768 C762 1.428 . S
C768 N767 1.351 . S
C768 C769 1.434 . S
C769 C760 1.429 . S
C769 N766 1.350 . S
C769 C768 1.434 . S
C770 C771 1.369 . S
C770 C772 1.419 . S
C770 H774 0.930 . S
C771 C770 1.369 . S
C771 C780 1.429 . S
C772 C770 1.419 . S
C772 C773 1.363 . S
C772 H775 0.929 . S
C773 C772 1.363 . S
C773 C779 1.428 . S
H774 C770 0.930 . S
H775 C772 0.929 . S
S776 N777 1.613 . S
S776 N778 1.610 . S
N777 S776 1.613 . S
N777 C780 1.350 . S
N778 S776 1.610 . S
N778 C779 1.351 . S
C779 C773 1.428 . S
C779 N778 1.351 . S
C779 C780 1.434 . S
C780 C771 1.429 . S
C780 N777 1.350 . S
C780 C779 1.434 . S
C781 C782 1.369 . S
C781 C783 1.419 . S
C781 H785 0.930 . S
C782 C781 1.369 . S
C782 C791 1.429 . S
C783 C781 1.419 . S
C783 C784 1.363 . S
C783 H786 0.929 . S
C784 C783 1.363 . S
C784 C790 1.428 . S
H785 C781 0.930 . S
H786 C783 0.929 . S
S787 N788 1.613 . S
S787 N789 1.610 . S
N788 S787 1.613 . S
N788 C791 1.350 . S
N789 S787 1.610 . S
N789 C790 1.351 . S
C790 C784 1.428 . S
C790 N789 1.351 . S
C790 C791 1.434 . S
C791 C782 1.429 . S
C791 N788 1.350 . S
C791 C790 1.434 . S
C792 C793 1.369 1_556 S
C792 C794 1.419 1_545 S
C792 H796 0.930 . S
C793 C792 1.369 1_554 S
C793 C802 1.429 . S
C794 C792 1.419 1_565 S
C794 C795 1.363 . S
C794 H797 0.929 . S
C795 C794 1.363 . S
C795 C801 1.428 1_556 S
H796 C792 0.930 . S
H797 C794 0.929 . S
S798 N799 1.613 1_565 S
S798 N800 1.610 . S
N799 S798 1.613 1_545 S
N799 C802 1.350 . S
N800 S798 1.610 . S
N800 C801 1.351 . S
C801 C795 1.428 1_554 S
C801 N800 1.351 . S
C801 C802 1.434 1_565 S
C802 C793 1.429 . S
C802 N799 1.350 . S
C802 C801 1.434 1_545 S
C803 C804 1.369 . S
C803 C805 1.419 1_455 S
C803 H807 0.930 . S
C804 C803 1.369 . S
C804 C813 1.429 1_556 S
C805 C803 1.419 1_655 S
C805 C806 1.363 1_556 S
C805 H808 0.929 . S
C806 C805 1.363 1_554 S
C806 C812 1.428 . S
H807 C803 0.930 . S
H808 C805 0.929 . S
S809 N810 1.613 . S
S809 N811 1.610 1_455 S
N810 S809 1.613 . S
N810 C813 1.350 . S
N811 S809 1.610 1_655 S
N811 C812 1.351 . S
C812 C806 1.428 . S
C812 N811 1.351 . S
C812 C813 1.434 1_655 S
C813 C804 1.429 1_554 S
C813 N810 1.350 . S
C813 C812 1.434 1_455 S
C814 C815 1.369 1_556 S
C814 C816 1.419 1_565 S
C814 H818 0.930 . S
C815 C814 1.369 1_554 S
C815 C824 1.429 . S
C816 C814 1.419 1_545 S
C816 C817 1.363 . S
C816 H819 0.929 . S
C817 C816 1.363 . S
C817 C823 1.428 1_556 S
H818 C814 0.930 . S
H819 C816 0.929 . S
S820 N821 1.613 1_545 S
S820 N822 1.610 . S
N821 S820 1.613 1_565 S
N821 C824 1.350 . S
N822 S820 1.610 . S
N822 C823 1.351 . S
C823 C817 1.428 1_554 S
C823 N822 1.351 . S
C823 C824 1.434 1_545 S
C824 C815 1.429 . S
C824 N821 1.350 . S
C824 C823 1.434 1_565 S
C825 C826 1.369 . S
C825 C827 1.419 1_655 S
C825 H829 0.930 . S
C826 C825 1.369 . S
C826 C835 1.429 1_556 S
C827 C825 1.419 1_455 S
C827 C828 1.363 1_556 S
C827 H830 0.929 . S
C828 C827 1.363 1_554 S
C828 C834 1.428 . S
H829 C825 0.930 . S
H830 C827 0.929 . S
S831 N832 1.613 . S
S831 N833 1.610 1_655 S
N832 S831 1.613 . S
N832 C835 1.350 . S
N833 S831 1.610 1_455 S
N833 C834 1.351 . S
C834 C828 1.428 . S
C834 N833 1.351 . S
C834 C835 1.434 1_455 S
C835 C826 1.429 1_554 S
C835 N832 1.350 . S
C835 C834 1.434 1_655 S
C836 C837 1.369 . S
C836 C838 1.419 . S
C836 H840 0.930 . S
C837 C836 1.369 . S
C837 C846 1.429 . S
C838 C836 1.419 . S
C838 C839 1.363 . S
C838 H841 0.929 . S
C839 C838 1.363 . S
C839 C845 1.428 . S
H840 C836 0.930 . S
H841 C838 0.929 . S
S842 N843 1.613 . S
S842 N844 1.610 . S
N843 S842 1.613 . S
N843 C846 1.350 . S
N844 S842 1.610 . S
N844 C845 1.351 . S
C845 C839 1.428 . S
C845 N844 1.351 . S
C845 C846 1.434 . S
C846 C837 1.429 . S
C846 N843 1.350 . S
C846 C845 1.434 . S
C847 C848 1.369 . S
C847 C849 1.419 . S
C847 H851 0.930 . S
C848 C847 1.369 . S
C848 C857 1.429 . S
C849 C847 1.419 . S
C849 C850 1.363 . S
C849 H852 0.929 . S
C850 C849 1.363 . S
C850 C856 1.428 . S
H851 C847 0.930 . S
H852 C849 0.929 . S
S853 N854 1.613 . S
S853 N855 1.610 . S
N854 S853 1.613 . S
N854 C857 1.350 . S
N855 S853 1.610 . S
N855 C856 1.351 . S
C856 C850 1.428 . S
C856 N855 1.351 . S
C856 C857 1.434 . S
C857 C848 1.429 . S
C857 N854 1.350 . S
C857 C856 1.434 . S
C858 C859 1.369 . S
C858 C860 1.419 . S
C858 H862 0.930 . S
C859 C858 1.369 . S
C859 C868 1.429 . S
C860 C858 1.419 . S
C860 C861 1.363 . S
C860 H863 0.929 . S
C861 C860 1.363 . S
C861 C867 1.428 . S
H862 C858 0.930 . S
H863 C860 0.929 . S
S864 N865 1.613 . S
S864 N866 1.610 . S
N865 S864 1.613 . S
N865 C868 1.350 . S
N866 S864 1.610 . S
N866 C867 1.351 . S
C867 C861 1.428 . S
C867 N866 1.351 . S
C867 C868 1.434 . S
C868 C859 1.429 . S
C868 N865 1.350 . S
C868 C867 1.434 . S
C869 C870 1.369 . S
C869 C871 1.419 . S
C869 H873 0.930 . S
C870 C869 1.369 . S
C870 C879 1.429 . S
C871 C869 1.419 . S
C871 C872 1.363 . S
C871 H874 0.929 . S
C872 C871 1.363 . S
C872 C878 1.428 . S
H873 C869 0.930 . S
H874 C871 0.929 . S
S875 N876 1.613 . S
S875 N877 1.610 . S
N876 S875 1.613 . S
N876 C879 1.350 . S
N877 S875 1.610 . S
N877 C878 1.351 . S
C878 C872 1.428 . S
C878 N877 1.351 . S
C878 C879 1.434 . S
C879 C870 1.429 . S
C879 N876 1.350 . S
C879 C878 1.434 . S
C880 C881 1.369 . S
C880 C882 1.419 . S
C880 H884 0.930 . S
C881 C880 1.369 . S
C881 C890 1.429 1_554 S
C882 C880 1.419 . S
C882 C883 1.363 1_554 S
C882 H885 0.929 . S
C883 C882 1.363 1_556 S
C883 C889 1.428 . S
H884 C880 0.930 . S
H885 C882 0.929 . S
S886 N887 1.613 . S
S886 N888 1.610 . S
N887 S886 1.613 . S
N887 C890 1.350 . S
N888 S886 1.610 . S
N888 C889 1.351 . S
C889 C883 1.428 . S
C889 N888 1.351 . S
C889 C890 1.434 . S
C890 C881 1.429 1_556 S
C890 N887 1.350 . S
C890 C889 1.434 . S
C891 C892 1.369 1_556 S
C891 C893 1.419 . S
C891 H895 0.930 . S
C892 C891 1.369 1_554 S
C892 C901 1.429 . S
C893 C891 1.419 . S
C893 C894 1.363 . S
C893 H896 0.929 . S
C894 C893 1.363 . S
C894 C900 1.428 1_556 S
H895 C891 0.930 . S
H896 C893 0.929 . S
S897 N898 1.613 . S
S897 N899 1.610 . S
N898 S897 1.613 . S
N898 C901 1.350 . S
N899 S897 1.610 . S
N899 C900 1.351 . S
C900 C894 1.428 1_554 S
C900 N899 1.351 . S
C900 C901 1.434 . S
C901 C892 1.429 . S
C901 N898 1.350 . S
C901 C900 1.434 . S
C902 C903 1.369 1_554 S
C902 C904 1.419 . S
C902 H906 0.930 . S
C903 C902 1.369 1_556 S
C903 C912 1.429 . S
C904 C902 1.419 . S
C904 C905 1.363 . S
C904 H907 0.929 . S
C905 C904 1.363 . S
C905 C911 1.428 1_554 S
H906 C902 0.930 . S
H907 C904 0.929 . S
S908 N909 1.613 . S
S908 N910 1.610 . S
N909 S908 1.613 . S
N909 C912 1.350 . S
N910 S908 1.610 . S
N910 C911 1.351 . S
C911 C905 1.428 1_556 S
C911 N910 1.351 . S
C911 C912 1.434 . S
C912 C903 1.429 . S
C912 N909 1.350 . S
C912 C911 1.434 . S
C913 C914 1.369 . S
C913 C915 1.419 . S
C913 H917 0.930 . S
C914 C913 1.369 . S
C914 C923 1.429 1_554 S
C915 C913 1.419 . S
C915 C916 1.362 1_554 S
C915 H918 0.929 . S
C916 C915 1.362 1_556 S
C916 C922 1.428 . S
H917 C913 0.930 . S
H918 C915 0.929 . S
S919 N920 1.613 . S
S919 N921 1.610 . S
N920 S919 1.613 . S
N920 C923 1.350 . S
N921 S919 1.610 . S
N921 C922 1.351 . S
C922 C916 1.428 . S
C922 N921 1.351 . S
C922 C923 1.434 . S
C923 C914 1.429 1_556 S
C923 N920 1.350 . S
C923 C922 1.434 . S
C924 C925 1.369 . S
C924 C926 1.419 . S
C924 H928 0.930 . S
C925 C924 1.369 . S
C925 C934 1.429 . S
C926 C924 1.419 . S
C926 C927 1.363 . S
C926 H929 0.929 . S
C927 C926 1.363 . S
C927 C933 1.428 . S
H928 C924 0.930 . S
H929 C926 0.929 . S
S930 N931 1.613 . S
S930 N932 1.610 . S
N931 S930 1.613 . S
N931 C934 1.350 . S
N932 S930 1.610 . S
N932 C933 1.351 . S
C933 C927 1.428 . S
C933 N932 1.351 . S
C933 C934 1.434 . S
C934 C925 1.429 . S
C934 N931 1.350 . S
C934 C933 1.434 . S
C935 C936 1.369 . S
C935 C937 1.419 . S
C935 H939 0.930 . S
C936 C935 1.369 . S
C936 C945 1.429 . S
C937 C935 1.419 . S
C937 C938 1.363 . S
C937 H940 0.929 . S
C938 C937 1.363 . S
C938 C944 1.428 . S
H939 C935 0.930 . S
H940 C937 0.929 . S
S941 N942 1.613 . S
S941 N943 1.610 . S
N942 S941 1.613 . S
N942 C945 1.350 . S
N943 S941 1.610 . S
N943 C944 1.351 . S
C944 C938 1.428 . S
C944 N943 1.351 . S
C944 C945 1.434 . S
C945 C936 1.429 . S
C945 N942 1.350 . S
C945 C944 1.434 . S
C946 C947 1.369 . S
C946 C948 1.419 . S
C946 H950 0.930 . S
C947 C946 1.369 . S
C947 C956 1.429 . S
C948 C946 1.419 . S
C948 C949 1.363 . S
C948 H951 0.929 . S
C949 C948 1.363 . S
C949 C955 1.428 . S
H950 C946 0.930 . S
H951 C948 0.929 . S
S952 N953 1.613 . S
S952 N954 1.610 . S
N953 S952 1.613 . S
N953 C956 1.350 . S
N954 S952 1.610 . S
N954 C955 1.351 . S
C955 C949 1.428 . S
C955 N954 1.351 . S
C955 C956 1.434 . S
C956 C947 1.429 . S
C956 N953 1.350 . S
C956 C955 1.434 . S
C957 C958 1.369 . S
C957 C959 1.419 . S
C957 H961 0.930 . S
C958 C957 1.369 . S
C958 C967 1.429 . S
C959 C957 1.419 . S
C959 C960 1.363 . S
C959 H962 0.929 . S
C960 C959 1.363 . S
C960 C966 1.428 . S
H961 C957 0.930 . S
H962 C959 0.929 . S
S963 N964 1.613 . S
S963 N965 1.610 . S
N964 S963 1.613 . S
N964 C967 1.350 . S
N965 S963 1.610 . S
N965 C966 1.351 . S
C966 C960 1.428 . S
C966 N965 1.351 . S
C966 C967 1.434 . S
C967 C958 1.429 . S
C967 N964 1.350 . S
C967 C966 1.434 . S
C529 N5 1.441 . S
C531 N14 1.440 . S
C540 N38 1.440 . S
C542 N47 1.441 . S
C551 N80 1.440 . S
C553 N71 1.441 . S
C562 N113 1.442 . S
C564 N104 1.439 . S
C573 N137 1.441 . S
C575 N146 1.441 . S
C584 N179 1.440 . S
C586 N170 1.440 . S
C595 N212 1.442 . S
C597 N203 1.439 . S
C606 N245 1.442 . S
C608 N236 1.440 . S
C617 N269 1.438 . S
C619 N278 1.442 . S
C628 N302 1.440 . S
C630 N311 1.441 . S
C639 N335 1.438 . S
C641 N344 1.442 . S
C650 N368 1.440 . S
C652 N377 1.441 . S
C661 N410 1.442 . S
C663 N401 1.439 . S
C672 N443 1.441 . S
C674 N434 1.440 . S
C683 N476 1.443 . S
C685 N467 1.439 . S
C694 N509 1.442 . S
C696 N500 1.439 . S
C705 C8 1.442 . S
C707 C503 1.440 . S
C716 C404 1.435 . S
C718 C41 1.439 . S
C727 C437 1.440 . S
C729 C74 1.436 . S
C738 C470 1.439 . S
C740 C107 1.436 . S
C749 C305 1.440 . S
C751 C140 1.436 . S
C760 C173 1.437 . S
C762 C338 1.441 . S
C771 C206 1.441 . S
C773 C371 1.441 . S
C782 C272 1.441 . S
C784 C239 1.441 . S
C793 C28 1.190 . S
C795 C160 1.189 . S
C804 C193 1.190 . S
C806 C61 1.190 . S
C815 C94 1.191 . S
C817 C226 1.190 . S
C826 C259 1.190 . S
C828 C127 1.190 . S
C837 C424 1.191 . S
C839 C292 1.190 . S
C848 C325 1.189 . S
C850 C457 1.190 . S
C859 C358 1.191 . S
C861 C490 1.190 . S
C870 C391 1.190 . S
C872 C523 1.189 . S
C881 C17 1.549 . S
C883 C182 1.550 . S
C892 C50 1.554 . S
C894 C215 1.550 . S
C903 C248 1.554 . S
C905 C83 1.550 . S
C914 C116 1.551 . S
C916 C149 1.553 . S
C925 C446 1.550 . S
C927 C281 1.550 . S
C936 C314 1.549 . S
C938 C479 1.553 . S
C947 C512 1.550 . S
C949 C347 1.553 . S
C958 C413 1.549 . S
C960 C380 1.553 . S
