# Generated by pormake.
# Topology wiu, (6)-cn, num edge types: 1
# Building blocks:
#     Node 0, Type 0, BuildingBlock: IZENUY_clean_sbu_0, # of connection points: 6
#     Node 1, Type 0, BuildingBlock: IZENUY_clean_sbu_0, # of connection points: 6
#     Node 2, Type 0, BuildingBlock: IZENUY_clean_sbu_0, # of connection points: 6
#     Node 3, Type 0, BuildingBlock: IZENUY_clean_sbu_0, # of connection points: 6
#     Node 4, Type 0, BuildingBlock: IZENUY_clean_sbu_0, # of connection points: 6
#     Node 5, Type 0, BuildingBlock: IZENUY_clean_sbu_0, # of connection points: 6
#     Node 6, Type 0, BuildingBlock: IZENUY_clean_sbu_0, # of connection points: 6
#     Node 7, Type 0, BuildingBlock: IZENUY_clean_sbu_0, # of connection points: 6
#     Node 8, Type 0, BuildingBlock: IZENUY_clean_sbu_0, # of connection points: 6
#     Node 9, Type 0, BuildingBlock: IZENUY_clean_sbu_0, # of connection points: 6
#     Node 10, Type 0, BuildingBlock: IZENUY_clean_sbu_0, # of connection points: 6
#     Node 11, Type 0, BuildingBlock: IZENUY_clean_sbu_0, # of connection points: 6
#     Node 12, Type 0, BuildingBlock: IZENUY_clean_sbu_0, # of connection points: 6
#     Node 13, Type 0, BuildingBlock: IZENUY_clean_sbu_0, # of connection points: 6
#     Node 14, Type 0, BuildingBlock: IZENUY_clean_sbu_0, # of connection points: 6
#     Node 15, Type 0, BuildingBlock: IZENUY_clean_sbu_0, # of connection points: 6
#     Edge 16, Type (0, 0), None
#     Edge 17, Type (0, 0), None
#     Edge 18, Type (0, 0), None
#     Edge 19, Type (0, 0), None
#     Edge 20, Type (0, 0), None
#     Edge 21, Type (0, 0), None
#     Edge 22, Type (0, 0), None
#     Edge 23, Type (0, 0), None
#     Edge 24, Type (0, 0), None
#     Edge 25, Type (0, 0), None
#     Edge 26, Type (0, 0), None
#     Edge 27, Type (0, 0), None
#     Edge 28, Type (0, 0), None
#     Edge 29, Type (0, 0), None
#     Edge 30, Type (0, 0), None
#     Edge 31, Type (0, 0), None
#     Edge 32, Type (0, 0), None
#     Edge 33, Type (0, 0), None
#     Edge 34, Type (0, 0), None
#     Edge 35, Type (0, 0), None
#     Edge 36, Type (0, 0), None
#     Edge 37, Type (0, 0), None
#     Edge 38, Type (0, 0), None
#     Edge 39, Type (0, 0), None
#     Edge 40, Type (0, 0), None
#     Edge 41, Type (0, 0), None
#     Edge 42, Type (0, 0), None
#     Edge 43, Type (0, 0), None
#     Edge 44, Type (0, 0), None
#     Edge 45, Type (0, 0), None
#     Edge 46, Type (0, 0), None
#     Edge 47, Type (0, 0), None
#     Edge 48, Type (0, 0), None
#     Edge 49, Type (0, 0), None
#     Edge 50, Type (0, 0), None
#     Edge 51, Type (0, 0), None
#     Edge 52, Type (0, 0), None
#     Edge 53, Type (0, 0), None
#     Edge 54, Type (0, 0), None
#     Edge 55, Type (0, 0), None
#     Edge 56, Type (0, 0), None
#     Edge 57, Type (0, 0), None
#     Edge 58, Type (0, 0), None
#     Edge 59, Type (0, 0), None
#     Edge 60, Type (0, 0), None
#     Edge 61, Type (0, 0), None
#     Edge 62, Type (0, 0), None
#     Edge 63, Type (0, 0), None
# Relax obj value: 0.192
# Max RMSD: 0.208
# Mean RMSD: 0.207
data_MOF--net-wiu--node1-IZENUY_clean_sbu_0--edge1-none
_symmetry_space_group_name_H-M    P1
_symmetry_Int_Tables_number       1
_symmetry_cell_setting            triclinic
loop_
_symmetry_equiv_pos_as_xyz
'x, y, z'
_cell_length_a     14.864587
_cell_length_b     14.866801
_cell_length_c     25.389249
_cell_angle_alpha  90.008879
_cell_angle_beta   89.992029
_cell_angle_gamma 89.998278
loop_
_atom_site_label
_atom_site_type_symbol
_atom_site_fract_x
_atom_site_fract_y
_atom_site_fract_z
_atom_type_partial_charge
Fe0 Fe 0.34959 0.05186 0.07378 0.0
Fe1 Fe 0.43163 0.23576 0.05383 0.0
O2 O 0.36712 0.16394 0.09274 0.0
Fe3 Fe 0.33802 0.20382 0.15698 0.0
O4 O 0.41371 0.12769 0.18463 0.0
O5 O 0.37116 1.00768 0.1409 0.0
O6 O 0.46818 1.02725 0.05542 0.0
C7 C 0.51248 0.06986 0.02049 0.0
C8 C 0.19534 0.07797 0.13386 0.0
O9 O 0.49943 0.15318 0.01575 0.0
C10 C 0.29713 0.35348 0.1058 0.0
O11 O 0.32796 0.08707 0.0055 0.0
O12 O 0.35231 0.23594 0.00192 0.0
O13 O 0.23885 0.12756 0.16578 0.0
O14 O 0.22831 0.06048 0.08871 0.0
C15 C 0.51079 0.26389 0.14592 0.0
O16 O 0.37287 0.3412 0.08153 0.0
O17 O 0.26335 0.28864 0.13088 0.0
C18 C 0.33425 0.16148 0.98017 0.0
O19 O 0.51473 0.22086 0.1042 0.0
O20 O 0.43324 0.28356 0.16263 0.0
C21 C 0.41078 1.04551 0.17958 0.0
Fe22 Fe 0.78977 0.60079 0.32377 0.0
Fe23 Fe 0.63777 0.58931 0.40697 0.0
O24 O 0.67766 0.61833 0.34272 0.0
Fe25 Fe 0.60583 0.68275 0.30378 0.0
O26 O 0.60566 0.60336 0.25191 0.0
O27 O 0.75457 0.57909 0.2555 0.0
O28 O 0.78116 0.47954 0.33873 0.0
C29 C 0.76364 0.44661 0.38388 0.0
C30 C 0.77172 0.76361 0.27045 0.0
O31 O 0.71404 0.49016 0.41579 0.0
C32 C 0.57766 0.76203 0.39583 0.0
O33 O 0.83395 0.62243 0.39089 0.0
O34 O 0.71389 0.66504 0.43459 0.0
O35 O 0.68841 0.7505 0.26569 0.0
O36 O 0.81434 0.71937 0.3054 0.0
C37 C 0.48811 0.54832 0.35577 0.0
O38 O 0.55801 0.68453 0.41259 0.0
O39 O 0.6207 0.76593 0.35411 0.0
C40 C 0.79608 0.66199 0.42959 0.0
O41 O 0.55295 0.5146 0.38088 0.0
O42 O 0.50038 0.62403 0.33151 0.0
C43 C 0.68013 0.58529 0.23018 0.0
Fe44 Fe 0.25232 0.88896 0.65697 0.0
Fe45 Fe 0.24082 1.04092 0.57378 0.0
O46 O 0.22326 0.92883 0.59273 0.0
Fe47 Fe 0.15877 0.85701 0.55381 0.0
O48 O 0.07563 0.87189 0.60418 0.0
O49 O 0.15711 0.80923 0.66261 0.0
O50 O 0.17662 0.96509 0.68461 0.0
C51 C 0.17959 0.04727 0.67958 0.0
C52 C 0.29325 0.73929 0.60578 0.0
O53 O 0.21922 0.08509 0.64091 0.0
C54 C 0.25618 0.93129 0.48017 0.0
O55 O 0.35149 0.96521 0.66579 0.0
O56 O 0.3621 1.03228 0.58873 0.0
O57 O 0.21753 0.75157 0.5815 0.0
O58 O 0.32702 0.80414 0.63086 0.0
C59 C 0.07794 1.02293 0.52049 0.0
O60 O 0.26247 1.0057 0.5055 0.0
O61 O 0.23811 0.85683 0.5019 0.0
C62 C 0.39503 1.0148 0.63388 0.0
O63 O 0.12223 0.06554 0.55542 0.0
O64 O 0.09097 0.93961 0.51575 0.0
C65 C 0.07957 0.82889 0.64591 0.0
Fe66 Fe 0.80065 0.49202 0.82377 0.0
Fe67 Fe 0.9846 0.41004 0.80378 0.0
O68 O 0.91276 0.47449 0.84272 0.0
Fe69 Fe 0.95262 0.50356 0.90696 0.0
O70 O 0.87649 0.42787 0.9346 0.0
O71 O 0.75647 0.47043 0.8909 0.0
O72 O 0.77607 0.37344 0.80542 0.0
C73 C 0.81869 0.32918 0.77047 0.0
C74 C 0.82678 0.64624 0.88386 0.0
O75 O 0.90201 0.34226 0.7657 0.0
C76 C 0.10231 0.5445 0.85577 0.0
O77 O 0.83585 0.51367 0.75549 0.0
O78 O 0.98476 0.48939 0.75189 0.0
O79 O 0.87635 0.60271 0.91577 0.0
O80 O 0.80927 0.61327 0.83872 0.0
C81 C 1.0127 0.33083 0.89588 0.0
O82 O 0.09005 0.46878 0.83149 0.0
O83 O 1.03745 0.57825 0.88086 0.0
C84 C 0.91028 0.50745 0.73016 0.0
O85 O 0.96974 0.32689 0.85413 0.0
O86 O 1.03237 0.40836 0.91259 0.0
C87 C 0.7943 0.43078 0.92956 0.0
Fe88 Fe 0.74085 1.04092 0.93007 0.0
Fe89 Fe 0.65879 0.85702 0.95001 0.0
O90 O 0.7233 0.92883 0.91111 0.0
Fe91 Fe 0.75238 0.88897 0.84685 0.0
O92 O 0.67668 0.96511 0.81922 0.0
O93 O 0.71927 0.0851 0.86295 0.0
O94 O 0.62226 0.06553 0.94843 0.0
C95 C 0.57797 1.02292 0.98337 0.0
C96 C 0.89508 1.01481 0.86997 0.0
O97 O 0.591 0.9396 0.9881 0.0
C98 C 0.79327 0.73932 0.89803 0.0
O99 O 0.76249 1.00569 0.99835 0.0
O100 O 0.73811 0.85682 0.00192 0.0
O101 O 0.85155 0.96523 0.83805 0.0
O102 O 0.86213 1.03228 0.91512 0.0
C103 C 0.57961 0.8289 0.85792 0.0
O104 O 0.71754 0.75158 0.9223 0.0
O105 O 0.82706 0.80415 0.87294 0.0
C106 C 0.75619 0.93127 0.02367 0.0
O107 O 0.57568 0.87193 0.89965 0.0
O108 O 0.65715 0.80923 0.84121 0.0
C109 C 0.67963 0.04728 0.82427 0.0
Fe110 Fe 0.48459 0.41005 0.70003 0.0
Fe111 Fe 0.45262 0.50351 0.59686 0.0
O112 O 0.41275 0.47449 0.66111 0.0
Fe113 Fe 0.30065 0.49202 0.68007 0.0
O114 O 0.27607 0.37344 0.69843 0.0
O115 O 0.40201 0.34228 0.73813 0.0
O116 O 0.46971 0.32689 0.64969 0.0
C117 C 0.51272 0.33079 0.60796 0.0
C118 C 0.41028 0.50749 0.77366 0.0
O119 O 0.53239 0.4083 0.59123 0.0
C120 C 0.32675 0.6462 0.61996 0.0
O121 O 0.59003 0.46878 0.67232 0.0
O122 O 0.53744 0.57822 0.62295 0.0
O123 O 0.33585 0.51371 0.74834 0.0
O124 O 0.48476 0.48942 0.75193 0.0
C125 C 0.2943 0.43074 0.57428 0.0
O126 O 0.37634 0.60265 0.58805 0.0
O127 O 0.30925 0.61328 0.66511 0.0
C128 C 0.60229 0.54449 0.64804 0.0
O129 O 0.37649 0.42779 0.56923 0.0
O130 O 0.25647 0.47039 0.61295 0.0
C131 C 0.3187 0.32919 0.73337 0.0
Fe132 Fe 0.83806 0.20384 0.34687 0.0
Fe133 Fe 0.84958 0.05189 0.43006 0.0
O134 O 0.86712 0.16398 0.41111 0.0
Fe135 Fe 0.93161 0.2358 0.45003 0.0
O136 O 1.01475 0.22092 0.39967 0.0
O137 O 0.93328 0.28357 0.34123 0.0
O138 O 0.91376 0.12771 0.31922 0.0
C139 C 0.9108 1.04553 0.32425 0.0
C140 C 0.79715 0.35351 0.39806 0.0
O141 O 0.87118 1.00771 0.36293 0.0
C142 C 0.83419 0.16152 0.52368 0.0
O143 O 0.73889 0.12759 0.33806 0.0
O144 O 0.7283 0.06051 0.41511 0.0
O145 O 0.87286 0.34125 0.42234 0.0
O146 O 0.76336 0.28868 0.37297 0.0
C147 C 1.01244 0.06988 0.48336 0.0
O148 O 0.82791 0.0871 0.49834 0.0
O149 O 0.85226 0.23598 0.50194 0.0
C150 C 0.69536 0.07798 0.36996 0.0
O151 O 0.96817 1.02727 0.44842 0.0
O152 O 0.9994 0.15321 0.48811 0.0
C153 C 1.01082 0.26391 0.35794 0.0
Fe154 Fe 0.28974 0.60078 0.18007 0.0
Fe155 Fe 0.10578 0.68273 0.20008 0.0
O156 O 0.17763 0.6183 0.16113 0.0
Fe157 Fe 0.13776 0.58923 0.09689 0.0
O158 O 0.21388 0.66493 0.06924 0.0
O159 O 0.3339 0.62238 0.11294 0.0
O160 O 0.31431 0.71936 0.19843 0.0
C161 C 0.27169 0.76362 0.23338 0.0
C162 C 0.26362 0.44656 0.11998 0.0
O163 O 0.18837 0.75052 0.23815 0.0
C164 C 0.98808 0.54828 0.14808 0.0
O165 O 0.25455 0.57912 0.24835 0.0
O166 O 0.10564 0.60337 0.25196 0.0
O167 O 0.21404 0.49008 0.08807 0.0
O168 O 0.28113 0.47952 0.16512 0.0
C169 C 0.07765 0.76195 0.10798 0.0
O170 O 1.00033 0.62398 0.17237 0.0
O171 O 0.05294 0.51453 0.12299 0.0
C172 C 0.18013 0.58533 0.27369 0.0
O173 O 0.1206 0.7659 0.14974 0.0
O174 O 0.058 0.68442 0.09127 0.0
C175 C 0.29607 0.66202 0.07428 0.0
Fe176 Fe 0.83802 0.70391 0.65697 0.0
Fe177 Fe 0.84965 0.55185 0.57381 0.0
O178 O 0.86717 0.66397 0.59274 0.0
Fe179 Fe 0.93161 0.73578 0.55378 0.0
O180 O 1.01482 0.72104 0.60409 0.0
O181 O 0.93325 0.78363 0.66261 0.0
O182 O 0.91365 0.62782 0.6847 0.0
C183 C 0.91096 0.54564 0.67956 0.0
C184 C 0.79716 0.85354 0.60573 0.0
O185 O 0.87127 0.50775 0.64093 0.0
C186 C 0.83429 0.66136 0.48017 0.0
O187 O 0.73885 0.62768 0.66577 0.0
O188 O 0.72838 0.56045 0.58874 0.0
O189 O 0.87289 0.84125 0.58147 0.0
O190 O 0.76336 0.78871 0.63081 0.0
C191 C 1.01249 0.56988 0.52049 0.0
O192 O 0.82798 0.58698 0.50552 0.0
O193 O 0.85222 0.73586 0.5019 0.0
C194 C 0.69538 0.57801 0.63387 0.0
O195 O 0.96825 0.52729 0.55545 0.0
O196 O 0.99941 0.65318 0.51571 0.0
C197 C 1.01075 0.76389 0.64587 0.0
Fe198 Fe 0.13777 0.08937 0.907 0.0
Fe199 Fe 0.10586 0.18278 0.80377 0.0
O200 O 0.1777 0.1184 0.84275 0.0
Fe201 Fe 0.28983 0.10086 0.82382 0.0
O202 O 0.28123 0.97961 0.83879 0.0
O203 O 0.21405 0.99023 0.91583 0.0
O204 O 0.05299 1.01465 0.8809 0.0
C205 C 0.98816 0.04836 0.85578 0.0
C206 C 0.29605 0.1622 0.92958 0.0
O207 O 1.00041 0.12406 0.83149 0.0
C208 C 0.27177 0.26367 0.77047 0.0
O209 O 0.05801 0.18459 0.91261 0.0
O210 O 0.12064 0.26603 0.85406 0.0
O211 O 0.33397 0.12254 0.89094 0.0
O212 O 0.21387 0.16509 0.93466 0.0
C213 C 0.18028 0.0854 0.7302 0.0
O214 O 0.18846 0.25054 0.76569 0.0
O215 O 0.31439 0.21944 0.80543 0.0
C216 C 0.07772 0.26204 0.89581 0.0
O217 O 0.10577 0.10334 0.75193 0.0
O218 O 0.25468 0.07913 0.75553 0.0
C219 C 0.26369 0.94668 0.88394 0.0
Fe220 Fe 0.75233 0.38886 0.15696 0.0
Fe221 Fe 0.74075 0.54092 0.07382 0.0
O222 O 0.72321 0.4288 0.09273 0.0
Fe223 Fe 0.65878 0.35698 0.05376 0.0
O224 O 0.57554 0.37172 0.10407 0.0
O225 O 0.6571 0.30915 0.16258 0.0
O226 O 0.67668 0.46496 0.18468 0.0
C227 C 0.67941 0.54713 0.17957 0.0
C228 C 0.79322 0.23922 0.10571 0.0
O229 O 0.71912 0.58503 0.14095 0.0
C230 C 0.75614 0.43141 0.98017 0.0
O231 O 0.8515 0.4651 0.16578 0.0
O232 O 0.86203 0.53231 0.08876 0.0
O233 O 0.71751 0.25152 0.08144 0.0
O234 O 0.82701 0.30407 0.13079 0.0
C235 C 0.57792 0.52292 0.02049 0.0
O236 O 0.76245 0.50579 0.00553 0.0
O237 O 0.7382 0.3569 0.00188 0.0
C238 C 0.89499 0.51476 0.13389 0.0
O239 O 0.62216 0.56551 0.05545 0.0
O240 O 0.59099 0.43961 0.01571 0.0
C241 C 0.5796 0.32889 0.14586 0.0
Fe242 Fe 0.45261 1.0035 0.40699 0.0
Fe243 Fe 0.30059 0.99195 0.32382 0.0
O244 O 0.41272 0.97442 0.34275 0.0
Fe245 Fe 0.48456 0.91001 0.30377 0.0
O246 O 0.46979 0.82679 0.35407 0.0
O247 O 0.53237 0.9083 0.4126 0.0
O248 O 0.37651 0.92781 0.43467 0.0
C249 C 0.29433 0.93057 0.42955 0.0
C250 C 0.60227 1.04445 0.35578 0.0
O251 O 0.25645 0.97032 0.39095 0.0
C252 C 0.41014 1.00734 0.23018 0.0
O253 O 0.37633 0.10264 0.41582 0.0
O254 O 0.3092 0.1132 0.33878 0.0
O255 O 0.59002 0.96876 0.33148 0.0
O256 O 0.53741 0.0782 0.38088 0.0
C257 C 0.31864 0.82912 0.27049 0.0
O258 O 0.33574 1.01363 0.25553 0.0
O259 O 0.48465 0.98941 0.25191 0.0
C260 C 0.32673 0.14616 0.38392 0.0
O261 O 0.27602 0.87337 0.30545 0.0
O262 O 0.40195 0.84222 0.26571 0.0
C263 C 0.51264 0.83081 0.39586 0.0
Fe264 Fe 0.25238 0.38887 0.34687 0.0
Fe265 Fe 0.24079 0.54092 0.43004 0.0
O266 O 0.22325 0.42881 0.4111 0.0
Fe267 Fe 0.1588 0.35699 0.45007 0.0
O268 O 0.07559 0.37176 0.39976 0.0
O269 O 0.15715 0.30916 0.34124 0.0
O270 O 0.17674 0.46497 0.31915 0.0
C271 C 0.17945 0.54715 0.32429 0.0
C272 C 0.29324 0.23925 0.3981 0.0
O273 O 0.21916 0.58503 0.36291 0.0
C274 C 0.25615 0.43139 0.52367 0.0
O275 O 0.35155 0.46512 0.33806 0.0
O276 O 0.36206 0.53232 0.41509 0.0
O277 O 0.21752 0.25153 0.42237 0.0
O278 O 0.32705 0.30408 0.37301 0.0
C279 C 0.07795 0.52291 0.48336 0.0
O280 O 0.26246 0.50578 0.49832 0.0
O281 O 0.23821 0.35689 0.50194 0.0
C282 C 0.39504 0.51477 0.36995 0.0
O283 O 0.1222 0.5655 0.4484 0.0
O284 O 0.09102 0.4396 0.48814 0.0
C285 C 0.07964 0.3289 0.35797 0.0
Fe286 Fe 0.80059 0.99195 0.18002 0.0
Fe287 Fe 0.98455 0.91002 0.20004 0.0
O288 O 0.91271 0.97441 0.16108 0.0
Fe289 Fe 0.95261 1.00345 0.09683 0.0
O290 O 0.87651 0.92773 0.06917 0.0
O291 O 0.75645 0.97029 0.1129 0.0
O292 O 0.77602 0.87337 0.1984 0.0
C293 C 0.81865 0.82913 0.23335 0.0
C294 C 0.82671 0.14613 0.1199 0.0
O295 O 0.90196 0.84224 0.23812 0.0
C296 C 0.10225 1.04444 0.14803 0.0
O297 O 0.83574 1.01367 0.24831 0.0
O298 O 0.98465 0.98944 0.25191 0.0
O299 O 0.87633 0.10258 0.088 0.0
O300 O 0.80918 0.1132 0.16505 0.0
C301 C 1.01266 0.83078 0.10798 0.0
O302 O 0.09 0.96875 0.17233 0.0
O303 O 1.03741 0.07817 0.12293 0.0
C304 C 0.91014 1.00737 0.27365 0.0
O305 O 0.96977 0.82679 0.14975 0.0
O306 O 1.03239 0.90825 0.09122 0.0
C307 C 0.79433 0.93053 0.07429 0.0
Fe308 Fe 0.34964 0.55189 0.93003 0.0
Fe309 Fe 0.4316 0.73582 0.95009 0.0
O310 O 0.36718 0.664 0.91111 0.0
Fe311 Fe 0.33805 0.70394 0.84688 0.0
O312 O 0.4137 0.62784 0.81915 0.0
O313 O 0.37129 0.50777 0.8629 0.0
O314 O 0.46823 0.52731 0.94839 0.0
C315 C 0.51246 0.5699 0.98336 0.0
C316 C 0.1954 0.57802 0.86995 0.0
O317 O 0.49938 0.6532 0.98814 0.0
C318 C 0.29717 0.85358 0.89813 0.0
O319 O 0.32794 0.58701 0.99832 0.0
O320 O 0.35217 0.7359 0.00196 0.0
O321 O 0.23888 0.6277 0.83807 0.0
O322 O 0.22837 0.56047 0.91508 0.0
C323 C 0.51079 0.76391 0.85799 0.0
O324 O 0.37288 0.8413 0.92241 0.0
O325 O 0.26338 0.78875 0.87304 0.0
C326 C 0.33423 0.6614 0.02368 0.0
O327 O 0.51484 0.72109 0.89978 0.0
O328 O 0.43328 0.78364 0.84126 0.0
C329 C 0.41098 0.54566 0.82427 0.0
Fe330 Fe 0.7898 0.10085 0.68002 0.0
Fe331 Fe 0.60582 0.18276 0.70009 0.0
O332 O 0.67767 0.11837 0.6611 0.0
Fe333 Fe 0.63777 0.08928 0.59686 0.0
O334 O 0.71386 0.16499 0.56918 0.0
O335 O 0.83393 0.12249 0.6129 0.0
O336 O 0.81436 0.21943 0.6984 0.0
C337 C 0.77174 0.26367 0.73336 0.0
C338 C 0.76367 0.94663 0.61992 0.0
O339 O 0.68842 0.25056 0.73815 0.0
C340 C 0.48812 0.04833 0.64807 0.0
O341 O 0.75467 0.07916 0.74831 0.0
O342 O 0.60575 0.10335 0.75194 0.0
O343 O 0.71405 0.99015 0.58802 0.0
O344 O 0.7812 0.97959 0.66506 0.0
C345 C 0.57772 0.26196 0.608 0.0
O346 O 0.50036 0.12401 0.67238 0.0
O347 O 0.55298 1.01458 0.62297 0.0
C348 C 0.68027 0.08545 0.77367 0.0
O349 O 0.62054 0.266 0.64979 0.0
O350 O 0.558 0.18448 0.59125 0.0
C351 C 0.79604 0.16223 0.57429 0.0
loop_
_geom_bond_atom_site_label_1
_geom_bond_atom_site_label_2
_geom_bond_distance
_geom_bond_site_symmetry_2
_ccdc_geom_bond_type
Fe0 O2 1.918 . S
Fe0 O5 1.997 1_545 S
Fe0 O6 2.002 1_545 S
Fe0 O11 1.976 . S
Fe0 O14 1.996 . S
Fe1 O2 1.918 . S
Fe1 O9 1.997 . S
Fe1 O12 1.996 1_554 S
Fe1 O16 1.976 . S
Fe1 O19 2.002 . S
O2 Fe0 1.918 . S
O2 Fe1 1.918 . S
O2 Fe3 1.918 . S
Fe3 O2 1.918 . S
Fe3 O4 2.002 . S
Fe3 O13 1.976 . S
Fe3 O17 1.996 . S
Fe3 O20 1.997 . S
O4 Fe3 2.002 . S
O4 C21 1.295 . S
O5 Fe0 1.997 1_565 S
O5 C21 1.235 1_565 S
O6 Fe0 2.002 1_565 S
O6 C7 1.295 1_565 S
C7 O6 1.295 1_545 S
C7 O9 1.235 . S
C8 O13 1.287 . S
C8 O14 1.255 . S
O9 Fe1 1.997 . S
O9 C7 1.235 . S
C10 O16 1.287 . S
C10 O17 1.255 . S
O11 Fe0 1.976 . S
O11 C18 1.287 1_554 S
O12 Fe1 1.996 1_556 S
O12 C18 1.255 . S
O13 Fe3 1.976 . S
O13 C8 1.287 . S
O14 Fe0 1.996 . S
O14 C8 1.255 . S
C15 O19 1.295 . S
C15 O20 1.235 . S
O16 Fe1 1.976 . S
O16 C10 1.287 . S
O17 Fe3 1.996 . S
O17 C10 1.255 . S
C18 O11 1.287 1_556 S
C18 O12 1.255 . S
O19 Fe1 2.002 . S
O19 C15 1.295 . S
O20 Fe3 1.997 . S
O20 C15 1.235 . S
C21 O4 1.295 . S
C21 O5 1.235 1_545 S
Fe22 O24 1.918 . S
Fe22 O27 1.997 . S
Fe22 O28 2.002 . S
Fe22 O33 1.976 . S
Fe22 O36 1.996 . S
Fe23 O24 1.918 . S
Fe23 O31 1.997 . S
Fe23 O34 1.996 . S
Fe23 O38 1.976 . S
Fe23 O41 2.002 . S
O24 Fe22 1.918 . S
O24 Fe23 1.918 . S
O24 Fe25 1.918 . S
Fe25 O24 1.918 . S
Fe25 O26 2.002 . S
Fe25 O35 1.976 . S
Fe25 O39 1.996 . S
Fe25 O42 1.997 . S
O26 Fe25 2.002 . S
O26 C43 1.295 . S
O27 Fe22 1.997 . S
O27 C43 1.235 . S
O28 Fe22 2.002 . S
O28 C29 1.295 . S
C29 O28 1.295 . S
C29 O31 1.235 . S
C30 O35 1.287 . S
C30 O36 1.255 . S
O31 Fe23 1.997 . S
O31 C29 1.235 . S
C32 O38 1.287 . S
C32 O39 1.255 . S
O33 Fe22 1.976 . S
O33 C40 1.287 . S
O34 Fe23 1.996 . S
O34 C40 1.255 . S
O35 Fe25 1.976 . S
O35 C30 1.287 . S
O36 Fe22 1.996 . S
O36 C30 1.255 . S
C37 O41 1.295 . S
C37 O42 1.235 . S
O38 Fe23 1.976 . S
O38 C32 1.287 . S
O39 Fe25 1.996 . S
O39 C32 1.255 . S
C40 O33 1.287 . S
C40 O34 1.255 . S
O41 Fe23 2.002 . S
O41 C37 1.295 . S
O42 Fe25 1.997 . S
O42 C37 1.235 . S
C43 O26 1.295 . S
C43 O27 1.235 . S
Fe44 O46 1.918 . S
Fe44 O49 1.997 . S
Fe44 O50 2.002 . S
Fe44 O55 1.976 . S
Fe44 O58 1.996 . S
Fe45 O46 1.918 . S
Fe45 O53 1.997 1_565 S
Fe45 O56 1.996 . S
Fe45 O60 1.976 . S
Fe45 O63 2.002 1_565 S
O46 Fe44 1.918 . S
O46 Fe45 1.918 . S
O46 Fe47 1.918 . S
Fe47 O46 1.918 . S
Fe47 O48 2.002 . S
Fe47 O57 1.976 . S
Fe47 O61 1.996 . S
Fe47 O64 1.997 . S
O48 Fe47 2.002 . S
O48 C65 1.295 . S
O49 Fe44 1.997 . S
O49 C65 1.235 . S
O50 Fe44 2.002 . S
O50 C51 1.295 . S
C51 O50 1.295 . S
C51 O53 1.235 1_565 S
C52 O57 1.287 . S
C52 O58 1.255 . S
O53 Fe45 1.997 1_545 S
O53 C51 1.235 1_545 S
C54 O60 1.287 . S
C54 O61 1.255 . S
O55 Fe44 1.976 . S
O55 C62 1.287 . S
O56 Fe45 1.996 . S
O56 C62 1.255 . S
O57 Fe47 1.976 . S
O57 C52 1.287 . S
O58 Fe44 1.996 . S
O58 C52 1.255 . S
C59 O63 1.295 1_565 S
C59 O64 1.235 . S
O60 Fe45 1.976 . S
O60 C54 1.287 . S
O61 Fe47 1.996 . S
O61 C54 1.255 . S
C62 O55 1.287 . S
C62 O56 1.255 . S
O63 Fe45 2.002 1_545 S
O63 C59 1.295 1_545 S
O64 Fe47 1.997 . S
O64 C59 1.235 . S
C65 O48 1.295 . S
C65 O49 1.235 . S
Fe66 O68 1.918 . S
Fe66 O71 1.997 . S
Fe66 O72 2.002 . S
Fe66 O77 1.976 . S
Fe66 O80 1.996 . S
Fe67 O68 1.918 . S
Fe67 O75 1.997 . S
Fe67 O78 1.996 . S
Fe67 O82 1.976 1_655 S
Fe67 O85 2.002 . S
O68 Fe66 1.918 . S
O68 Fe67 1.918 . S
O68 Fe69 1.918 . S
Fe69 O68 1.918 . S
Fe69 O70 2.002 . S
Fe69 O79 1.976 . S
Fe69 O83 1.996 1_655 S
Fe69 O86 1.997 . S
O70 Fe69 2.002 . S
O70 C87 1.295 . S
O71 Fe66 1.997 . S
O71 C87 1.235 . S
O72 Fe66 2.002 . S
O72 C73 1.295 . S
C73 O72 1.295 . S
C73 O75 1.235 . S
C74 O79 1.287 . S
C74 O80 1.255 . S
O75 Fe67 1.997 . S
O75 C73 1.235 . S
C76 O82 1.287 . S
C76 O83 1.255 . S
O77 Fe66 1.976 . S
O77 C84 1.287 . S
O78 Fe67 1.996 . S
O78 C84 1.255 . S
O79 Fe69 1.976 . S
O79 C74 1.287 . S
O80 Fe66 1.996 . S
O80 C74 1.255 . S
C81 O85 1.295 1_455 S
C81 O86 1.235 1_455 S
O82 Fe67 1.976 1_455 S
O82 C76 1.287 . S
O83 Fe69 1.996 1_455 S
O83 C76 1.255 . S
C84 O77 1.287 . S
C84 O78 1.255 . S
O85 Fe67 2.002 . S
O85 C81 1.295 1_655 S
O86 Fe69 1.997 . S
O86 C81 1.235 1_655 S
C87 O70 1.295 . S
C87 O71 1.235 . S
Fe88 O90 1.918 . S
Fe88 O93 1.997 1_565 S
Fe88 O94 2.002 1_565 S
Fe88 O99 1.976 . S
Fe88 O102 1.996 . S
Fe89 O90 1.918 . S
Fe89 O97 1.997 . S
Fe89 O100 1.996 1_556 S
Fe89 O104 1.976 . S
Fe89 O107 2.002 . S
O90 Fe88 1.918 . S
O90 Fe89 1.918 . S
O90 Fe91 1.918 . S
Fe91 O90 1.918 . S
Fe91 O92 2.002 . S
Fe91 O101 1.976 . S
Fe91 O105 1.996 . S
Fe91 O108 1.997 . S
O92 Fe91 2.002 . S
O92 C109 1.295 . S
O93 Fe88 1.997 1_545 S
O93 C109 1.235 1_545 S
O94 Fe88 2.002 1_545 S
O94 C95 1.295 1_545 S
C95 O94 1.295 1_565 S
C95 O97 1.235 . S
C96 O101 1.287 . S
C96 O102 1.255 . S
O97 Fe89 1.997 . S
O97 C95 1.235 . S
C98 O104 1.287 . S
C98 O105 1.255 . S
O99 Fe88 1.976 . S
O99 C106 1.287 1_556 S
O100 Fe89 1.996 1_554 S
O100 C106 1.255 . S
O101 Fe91 1.976 . S
O101 C96 1.287 . S
O102 Fe88 1.996 . S
O102 C96 1.255 . S
C103 O107 1.295 . S
C103 O108 1.235 . S
O104 Fe89 1.976 . S
O104 C98 1.287 . S
O105 Fe91 1.996 . S
O105 C98 1.255 . S
C106 O99 1.287 1_554 S
C106 O100 1.255 . S
O107 Fe89 2.002 . S
O107 C103 1.295 . S
O108 Fe91 1.997 . S
O108 C103 1.235 . S
C109 O92 1.295 . S
C109 O93 1.235 1_565 S
Fe110 O112 1.918 . S
Fe110 O115 1.997 . S
Fe110 O116 2.002 . S
Fe110 O121 1.976 . S
Fe110 O124 1.996 . S
Fe111 O112 1.918 . S
Fe111 O119 1.997 . S
Fe111 O122 1.996 . S
Fe111 O126 1.976 . S
Fe111 O129 2.002 . S
O112 Fe110 1.918 . S
O112 Fe111 1.918 . S
O112 Fe113 1.918 . S
Fe113 O112 1.918 . S
Fe113 O114 2.002 . S
Fe113 O123 1.976 . S
Fe113 O127 1.996 . S
Fe113 O130 1.997 . S
O114 Fe113 2.002 . S
O114 C131 1.295 . S
O115 Fe110 1.997 . S
O115 C131 1.235 . S
O116 Fe110 2.002 . S
O116 C117 1.295 . S
C117 O116 1.295 . S
C117 O119 1.235 . S
C118 O123 1.287 . S
C118 O124 1.255 . S
O119 Fe111 1.997 . S
O119 C117 1.235 . S
C120 O126 1.287 . S
C120 O127 1.255 . S
O121 Fe110 1.976 . S
O121 C128 1.287 . S
O122 Fe111 1.996 . S
O122 C128 1.255 . S
O123 Fe113 1.976 . S
O123 C118 1.287 . S
O124 Fe110 1.996 . S
O124 C118 1.255 . S
C125 O129 1.295 . S
C125 O130 1.235 . S
O126 Fe111 1.976 . S
O126 C120 1.287 . S
O127 Fe113 1.996 . S
O127 C120 1.255 . S
C128 O121 1.287 . S
C128 O122 1.255 . S
O129 Fe111 2.002 . S
O129 C125 1.295 . S
O130 Fe113 1.997 . S
O130 C125 1.235 . S
C131 O114 1.295 . S
C131 O115 1.235 . S
Fe132 O134 1.918 . S
Fe132 O137 1.997 . S
Fe132 O138 2.002 . S
Fe132 O143 1.976 . S
Fe132 O146 1.996 . S
Fe133 O134 1.918 . S
Fe133 O141 1.997 1_545 S
Fe133 O144 1.996 . S
Fe133 O148 1.976 . S
Fe133 O151 2.002 1_545 S
O134 Fe132 1.918 . S
O134 Fe133 1.918 . S
O134 Fe135 1.918 . S
Fe135 O134 1.918 . S
Fe135 O136 2.002 . S
Fe135 O145 1.976 . S
Fe135 O149 1.996 . S
Fe135 O152 1.997 . S
O136 Fe135 2.002 . S
O136 C153 1.295 . S
O137 Fe132 1.997 . S
O137 C153 1.235 . S
O138 Fe132 2.002 . S
O138 C139 1.295 . S
C139 O138 1.295 . S
C139 O141 1.235 1_545 S
C140 O145 1.287 . S
C140 O146 1.255 . S
O141 Fe133 1.997 1_565 S
O141 C139 1.235 1_565 S
C142 O148 1.287 . S
C142 O149 1.255 . S
O143 Fe132 1.976 . S
O143 C150 1.287 . S
O144 Fe133 1.996 . S
O144 C150 1.255 . S
O145 Fe135 1.976 . S
O145 C140 1.287 . S
O146 Fe132 1.996 . S
O146 C140 1.255 . S
C147 O151 1.295 1_545 S
C147 O152 1.235 . S
O148 Fe133 1.976 . S
O148 C142 1.287 . S
O149 Fe135 1.996 . S
O149 C142 1.255 . S
C150 O143 1.287 . S
C150 O144 1.255 . S
O151 Fe133 2.002 1_565 S
O151 C147 1.295 1_565 S
O152 Fe135 1.997 . S
O152 C147 1.235 . S
C153 O136 1.295 . S
C153 O137 1.235 . S
Fe154 O156 1.918 . S
Fe154 O159 1.997 . S
Fe154 O160 2.002 . S
Fe154 O165 1.976 . S
Fe154 O168 1.996 . S
Fe155 O156 1.918 . S
Fe155 O163 1.997 . S
Fe155 O166 1.996 . S
Fe155 O170 1.976 1_455 S
Fe155 O173 2.002 . S
O156 Fe154 1.918 . S
O156 Fe155 1.918 . S
O156 Fe157 1.918 . S
Fe157 O156 1.918 . S
Fe157 O158 2.002 . S
Fe157 O167 1.976 . S
Fe157 O171 1.996 1_455 S
Fe157 O174 1.997 . S
O158 Fe157 2.002 . S
O158 C175 1.295 . S
O159 Fe154 1.997 . S
O159 C175 1.235 . S
O160 Fe154 2.002 . S
O160 C161 1.295 . S
C161 O160 1.295 . S
C161 O163 1.235 . S
C162 O167 1.287 . S
C162 O168 1.255 . S
O163 Fe155 1.997 . S
O163 C161 1.235 . S
C164 O170 1.287 . S
C164 O171 1.255 . S
O165 Fe154 1.976 . S
O165 C172 1.287 . S
O166 Fe155 1.996 . S
O166 C172 1.255 . S
O167 Fe157 1.976 . S
O167 C162 1.287 . S
O168 Fe154 1.996 . S
O168 C162 1.255 . S
C169 O173 1.295 1_655 S
C169 O174 1.235 1_655 S
O170 Fe155 1.976 1_655 S
O170 C164 1.287 . S
O171 Fe157 1.996 1_655 S
O171 C164 1.255 . S
C172 O165 1.287 . S
C172 O166 1.255 . S
O173 Fe155 2.002 . S
O173 C169 1.295 1_455 S
O174 Fe157 1.997 . S
O174 C169 1.235 1_455 S
C175 O158 1.295 . S
C175 O159 1.235 . S
Fe176 O178 1.918 . S
Fe176 O181 1.997 . S
Fe176 O182 2.002 . S
Fe176 O187 1.976 . S
Fe176 O190 1.996 . S
Fe177 O178 1.918 . S
Fe177 O185 1.997 . S
Fe177 O188 1.996 . S
Fe177 O192 1.976 . S
Fe177 O195 2.002 . S
O178 Fe176 1.918 . S
O178 Fe177 1.918 . S
O178 Fe179 1.918 . S
Fe179 O178 1.918 . S
Fe179 O180 2.002 . S
Fe179 O189 1.976 . S
Fe179 O193 1.996 . S
Fe179 O196 1.997 . S
O180 Fe179 2.002 . S
O180 C197 1.295 . S
O181 Fe176 1.997 . S
O181 C197 1.235 . S
O182 Fe176 2.002 . S
O182 C183 1.295 . S
C183 O182 1.295 . S
C183 O185 1.235 . S
C184 O189 1.287 . S
C184 O190 1.255 . S
O185 Fe177 1.997 . S
O185 C183 1.235 . S
C186 O192 1.287 . S
C186 O193 1.255 . S
O187 Fe176 1.976 . S
O187 C194 1.287 . S
O188 Fe177 1.996 . S
O188 C194 1.255 . S
O189 Fe179 1.976 . S
O189 C184 1.287 . S
O190 Fe176 1.996 . S
O190 C184 1.255 . S
C191 O195 1.295 . S
C191 O196 1.235 . S
O192 Fe177 1.976 . S
O192 C186 1.287 . S
O193 Fe179 1.996 . S
O193 C186 1.255 . S
C194 O187 1.287 . S
C194 O188 1.255 . S
O195 Fe177 2.002 . S
O195 C191 1.295 . S
O196 Fe179 1.997 . S
O196 C191 1.235 . S
C197 O180 1.295 . S
C197 O181 1.235 . S
Fe198 O200 1.918 . S
Fe198 O203 1.997 1_545 S
Fe198 O204 2.002 1_455 S
Fe198 O209 1.976 . S
Fe198 O212 1.996 . S
Fe199 O200 1.918 . S
Fe199 O207 1.997 1_455 S
Fe199 O210 1.996 1_455 S
Fe199 O214 1.976 . S
Fe199 O217 2.002 . S
O200 Fe198 1.918 . S
O200 Fe199 1.918 . S
O200 Fe201 1.918 . S
Fe201 O200 1.918 . S
Fe201 O202 2.002 1_545 S
Fe201 O211 1.976 . S
Fe201 O215 1.996 . S
Fe201 O218 1.997 1_545 S
O202 Fe201 2.002 1_565 S
O202 C219 1.295 . S
O203 Fe198 1.997 1_565 S
O203 C219 1.235 . S
O204 Fe198 2.002 1_655 S
O204 C205 1.295 . S
C205 O204 1.295 . S
C205 O207 1.235 . S
C206 O211 1.287 . S
C206 O212 1.255 . S
O207 Fe199 1.997 1_655 S
O207 C205 1.235 . S
C208 O214 1.287 . S
C208 O215 1.255 . S
O209 Fe198 1.976 . S
O209 C216 1.287 1_455 S
O210 Fe199 1.996 1_655 S
O210 C216 1.255 . S
O211 Fe201 1.976 . S
O211 C206 1.287 . S
O212 Fe198 1.996 . S
O212 C206 1.255 . S
C213 O217 1.295 1_565 S
C213 O218 1.235 . S
O214 Fe199 1.976 . S
O214 C208 1.287 . S
O215 Fe201 1.996 . S
O215 C208 1.255 . S
C216 O209 1.287 1_655 S
C216 O210 1.255 . S
O217 Fe199 2.002 . S
O217 C213 1.295 1_545 S
O218 Fe201 1.997 1_565 S
O218 C213 1.235 . S
C219 O202 1.295 . S
C219 O203 1.235 . S
Fe220 O222 1.918 . S
Fe220 O225 1.997 . S
Fe220 O226 2.002 . S
Fe220 O231 1.976 . S
Fe220 O234 1.996 . S
Fe221 O222 1.918 . S
Fe221 O229 1.997 . S
Fe221 O232 1.996 . S
Fe221 O236 1.976 . S
Fe221 O239 2.002 . S
O222 Fe220 1.918 . S
O222 Fe221 1.918 . S
O222 Fe223 1.918 . S
Fe223 O222 1.918 . S
Fe223 O224 2.002 . S
Fe223 O233 1.976 . S
Fe223 O237 1.996 1_554 S
Fe223 O240 1.997 . S
O224 Fe223 2.002 . S
O224 C241 1.295 . S
O225 Fe220 1.997 . S
O225 C241 1.235 . S
O226 Fe220 2.002 . S
O226 C227 1.295 . S
C227 O226 1.295 . S
C227 O229 1.235 . S
C228 O233 1.287 . S
C228 O234 1.255 . S
O229 Fe221 1.997 . S
O229 C227 1.235 . S
C230 O236 1.287 1_556 S
C230 O237 1.255 . S
O231 Fe220 1.976 . S
O231 C238 1.287 . S
O232 Fe221 1.996 . S
O232 C238 1.255 . S
O233 Fe223 1.976 . S
O233 C228 1.287 . S
O234 Fe220 1.996 . S
O234 C228 1.255 . S
C235 O239 1.295 . S
C235 O240 1.235 . S
O236 Fe221 1.976 . S
O236 C230 1.287 1_554 S
O237 Fe223 1.996 1_556 S
O237 C230 1.255 . S
C238 O231 1.287 . S
C238 O232 1.255 . S
O239 Fe221 2.002 . S
O239 C235 1.295 . S
O240 Fe223 1.997 . S
O240 C235 1.235 . S
C241 O224 1.295 . S
C241 O225 1.235 . S
Fe242 O244 1.918 . S
Fe242 O247 1.997 . S
Fe242 O248 2.002 . S
Fe242 O253 1.976 1_565 S
Fe242 O256 1.996 . S
Fe243 O244 1.918 . S
Fe243 O251 1.997 . S
Fe243 O254 1.996 1_565 S
Fe243 O258 1.976 1_565 S
Fe243 O261 2.002 . S
O244 Fe242 1.918 . S
O244 Fe243 1.918 . S
O244 Fe245 1.918 . S
Fe245 O244 1.918 . S
Fe245 O246 2.002 . S
Fe245 O255 1.976 . S
Fe245 O259 1.996 . S
Fe245 O262 1.997 . S
O246 Fe245 2.002 . S
O246 C263 1.295 . S
O247 Fe242 1.997 . S
O247 C263 1.235 . S
O248 Fe242 2.002 . S
O248 C249 1.295 . S
C249 O248 1.295 . S
C249 O251 1.235 . S
C250 O255 1.287 . S
C250 O256 1.255 . S
O251 Fe243 1.997 . S
O251 C249 1.235 . S
C252 O258 1.287 . S
C252 O259 1.255 1_545 S
O253 Fe242 1.976 1_545 S
O253 C260 1.287 . S
O254 Fe243 1.996 1_545 S
O254 C260 1.255 . S
O255 Fe245 1.976 . S
O255 C250 1.287 . S
O256 Fe242 1.996 . S
O256 C250 1.255 . S
C257 O261 1.295 . S
C257 O262 1.235 . S
O258 Fe243 1.976 1_545 S
O258 C252 1.287 . S
O259 Fe245 1.996 . S
O259 C252 1.255 1_565 S
C260 O253 1.287 . S
C260 O254 1.255 . S
O261 Fe243 2.002 . S
O261 C257 1.295 . S
O262 Fe245 1.997 . S
O262 C257 1.235 . S
C263 O246 1.295 . S
C263 O247 1.235 . S
Fe264 O266 1.918 . S
Fe264 O269 1.997 . S
Fe264 O270 2.002 . S
Fe264 O275 1.976 . S
Fe264 O278 1.996 . S
Fe265 O266 1.918 . S
Fe265 O273 1.997 . S
Fe265 O276 1.996 . S
Fe265 O280 1.976 . S
Fe265 O283 2.002 . S
O266 Fe264 1.918 . S
O266 Fe265 1.918 . S
O266 Fe267 1.918 . S
Fe267 O266 1.918 . S
Fe267 O268 2.002 . S
Fe267 O277 1.976 . S
Fe267 O281 1.996 . S
Fe267 O284 1.997 . S
O268 Fe267 2.002 . S
O268 C285 1.295 . S
O269 Fe264 1.997 . S
O269 C285 1.235 . S
O270 Fe264 2.002 . S
O270 C271 1.295 . S
C271 O270 1.295 . S
C271 O273 1.235 . S
C272 O277 1.287 . S
C272 O278 1.255 . S
O273 Fe265 1.997 . S
O273 C271 1.235 . S
C274 O280 1.287 . S
C274 O281 1.255 . S
O275 Fe264 1.976 . S
O275 C282 1.287 . S
O276 Fe265 1.996 . S
O276 C282 1.255 . S
O277 Fe267 1.976 . S
O277 C272 1.287 . S
O278 Fe264 1.996 . S
O278 C272 1.255 . S
C279 O283 1.295 . S
C279 O284 1.235 . S
O280 Fe265 1.976 . S
O280 C274 1.287 . S
O281 Fe267 1.996 . S
O281 C274 1.255 . S
C282 O275 1.287 . S
C282 O276 1.255 . S
O283 Fe265 2.002 . S
O283 C279 1.295 . S
O284 Fe267 1.997 . S
O284 C279 1.235 . S
C285 O268 1.295 . S
C285 O269 1.235 . S
Fe286 O288 1.918 . S
Fe286 O291 1.997 . S
Fe286 O292 2.002 . S
Fe286 O297 1.976 1_565 S
Fe286 O300 1.996 1_565 S
Fe287 O288 1.918 . S
Fe287 O295 1.997 . S
Fe287 O298 1.996 . S
Fe287 O302 1.976 1_655 S
Fe287 O305 2.007 . S
O288 Fe286 1.918 . S
O288 Fe287 1.918 . S
O288 Fe289 1.918 . S
Fe289 O288 1.918 . S
Fe289 O290 2.002 . S
Fe289 O299 1.976 1_565 S
Fe289 O303 1.996 1_655 S
Fe289 O306 1.997 . S
O290 Fe289 2.002 . S
O290 C307 1.295 . S
O291 Fe286 1.997 . S
O291 C307 1.235 . S
O292 Fe286 2.002 . S
O292 C293 1.295 . S
C293 O292 1.295 . S
C293 O295 1.235 . S
C294 O299 1.287 . S
C294 O300 1.255 . S
O295 Fe287 1.997 . S
O295 C293 1.235 . S
C296 O302 1.287 . S
C296 O303 1.255 . S
O297 Fe286 1.976 1_545 S
O297 C304 1.287 . S
O298 Fe287 1.996 . S
O298 C304 1.255 1_565 S
O299 Fe289 1.976 1_545 S
O299 C294 1.287 . S
O300 Fe286 1.996 1_545 S
O300 C294 1.255 . S
C301 O305 1.294 1_455 S
C301 O306 1.235 1_455 S
O302 Fe287 1.976 1_455 S
O302 C296 1.287 . S
O303 Fe289 1.996 1_455 S
O303 C296 1.255 . S
C304 O297 1.287 . S
C304 O298 1.255 1_545 S
O305 Fe287 2.007 . S
O305 C301 1.294 1_655 S
O306 Fe289 1.997 . S
O306 C301 1.235 1_655 S
C307 O290 1.295 . S
C307 O291 1.235 . S
Fe308 O310 1.918 . S
Fe308 O313 1.997 . S
Fe308 O314 2.002 . S
Fe308 O319 1.976 . S
Fe308 O322 1.996 . S
Fe309 O310 1.918 . S
Fe309 O317 1.997 . S
Fe309 O320 1.996 1_556 S
Fe309 O324 1.976 . S
Fe309 O327 2.002 . S
O310 Fe308 1.918 . S
O310 Fe309 1.918 . S
O310 Fe311 1.918 . S
Fe311 O310 1.918 . S
Fe311 O312 2.002 . S
Fe311 O321 1.976 . S
Fe311 O325 1.996 . S
Fe311 O328 1.997 . S
O312 Fe311 2.002 . S
O312 C329 1.295 . S
O313 Fe308 1.997 . S
O313 C329 1.235 . S
O314 Fe308 2.002 . S
O314 C315 1.295 . S
C315 O314 1.295 . S
C315 O317 1.235 . S
C316 O321 1.287 . S
C316 O322 1.255 . S
O317 Fe309 1.997 . S
O317 C315 1.235 . S
C318 O324 1.287 . S
C318 O325 1.255 . S
O319 Fe308 1.976 . S
O319 C326 1.287 1_556 S
O320 Fe309 1.996 1_554 S
O320 C326 1.255 . S
O321 Fe311 1.976 . S
O321 C316 1.287 . S
O322 Fe308 1.996 . S
O322 C316 1.255 . S
C323 O327 1.295 . S
C323 O328 1.235 . S
O324 Fe309 1.976 . S
O324 C318 1.287 . S
O325 Fe311 1.996 . S
O325 C318 1.255 . S
C326 O319 1.287 1_554 S
C326 O320 1.255 . S
O327 Fe309 2.002 . S
O327 C323 1.295 . S
O328 Fe311 1.997 . S
O328 C323 1.235 . S
C329 O312 1.295 . S
C329 O313 1.235 . S
Fe330 O332 1.918 . S
Fe330 O335 1.997 . S
Fe330 O336 2.002 . S
Fe330 O341 1.976 1_545 S
Fe330 O344 1.996 1_545 S
Fe331 O332 1.918 . S
Fe331 O339 1.997 . S
Fe331 O342 1.996 . S
Fe331 O346 1.976 . S
Fe331 O349 2.002 . S
O332 Fe330 1.918 . S
O332 Fe331 1.918 . S
O332 Fe333 1.918 . S
Fe333 O332 1.918 . S
Fe333 O334 2.002 . S
Fe333 O343 1.976 1_545 S
Fe333 O347 1.996 . S
Fe333 O350 1.997 . S
O334 Fe333 2.002 . S
O334 C351 1.295 . S
O335 Fe330 1.997 . S
O335 C351 1.235 . S
O336 Fe330 2.002 . S
O336 C337 1.295 . S
C337 O336 1.295 . S
C337 O339 1.235 . S
C338 O343 1.287 . S
C338 O344 1.255 . S
O339 Fe331 1.997 . S
O339 C337 1.235 . S
C340 O346 1.287 . S
C340 O347 1.255 . S
O341 Fe330 1.976 1_565 S
O341 C348 1.287 . S
O342 Fe331 1.996 . S
O342 C348 1.255 1_545 S
O343 Fe333 1.976 1_565 S
O343 C338 1.287 . S
O344 Fe330 1.996 1_565 S
O344 C338 1.255 . S
C345 O349 1.295 . S
C345 O350 1.235 . S
O346 Fe331 1.976 . S
O346 C340 1.287 . S
O347 Fe333 1.996 . S
O347 C340 1.255 . S
C348 O341 1.287 . S
C348 O342 1.255 1_565 S
O349 Fe331 2.002 . S
O349 C345 1.295 . S
O350 Fe333 1.997 . S
O350 C345 1.235 . S
C351 O334 1.295 . S
C351 O335 1.235 . S
C15 C241 0.995 . S
C32 C263 0.980 . S
C65 C197 0.995 1_455 S
C216 C81 0.980 1_655 S
C103 C323 1.048 . S
C345 C117 1.034 . S
C285 C153 1.048 1_455 S
C169 C301 1.034 1_655 S
C7 C95 2.086 1_544 S
C30 C293 2.039 . S
C59 C147 2.104 1_465 S
C73 C337 2.077 . S
C131 C208 2.039 . S
C257 C161 2.077 . S
C279 C191 2.086 1_455 S
C235 C315 2.104 1_554 S
C10 C162 1.889 . S
C37 C282 1.929 . S
C52 C120 1.888 . S
C76 C316 1.885 . S
C74 C98 1.843 . S
C128 C194 1.863 . S
C140 C29 1.926 . S
C238 C164 1.882 . S
C184 C338 1.889 . S
C96 C205 1.929 1_565 S
C294 C228 1.888 . S
C150 C250 1.885 1_545 S
C272 C260 1.843 . S
C296 C8 1.863 1_565 S
C219 C318 1.926 . S
C340 C62 1.882 1_545 S
C18 C206 1.055 . S
C227 C43 1.125 . S
C54 C249 1.095 . S
C183 C84 1.075 . S
C307 C106 1.075 . S
C329 C118 1.085 . S
C351 C142 1.082 . S
C271 C172 1.066 . S
C40 C186 1.055 . S
C51 C213 1.125 . S
C87 C230 1.095 . S
C252 C21 1.075 . S
C125 C274 1.075 . S
C139 C304 1.085 . S
C175 C326 1.082 . S
C109 C348 1.066 . S
