# Generated by pormake.
# Topology mmt, (4)-cn, num edge types: 1
# Building blocks:
#     Node 0, Type 0, BuildingBlock: UXUYUI_clean_sbu_0, # of connection points: 4
#     Node 1, Type 0, BuildingBlock: UXUYUI_clean_sbu_0, # of connection points: 4
#     Node 2, Type 0, BuildingBlock: UXUYUI_clean_sbu_0, # of connection points: 4
#     Node 3, Type 0, BuildingBlock: UXUYUI_clean_sbu_0, # of connection points: 4
#     Node 4, Type 0, BuildingBlock: UXUYUI_clean_sbu_0, # of connection points: 4
#     Node 5, Type 0, BuildingBlock: UXUYUI_clean_sbu_0, # of connection points: 4
#     Node 6, Type 0, BuildingBlock: UXUYUI_clean_sbu_0, # of connection points: 4
#     Node 7, Type 0, BuildingBlock: UXUYUI_clean_sbu_0, # of connection points: 4
#     Edge 8, Type (0, 0), BuildingBlock: CIFDUS_clean_linker_0, # of connection points: 2
#     Edge 9, Type (0, 0), BuildingBlock: CIFDUS_clean_linker_0, # of connection points: 2
#     Edge 10, Type (0, 0), BuildingBlock: CIFDUS_clean_linker_0, # of connection points: 2
#     Edge 11, Type (0, 0), BuildingBlock: CIFDUS_clean_linker_0, # of connection points: 2
#     Edge 12, Type (0, 0), BuildingBlock: CIFDUS_clean_linker_0, # of connection points: 2
#     Edge 13, Type (0, 0), BuildingBlock: CIFDUS_clean_linker_0, # of connection points: 2
#     Edge 14, Type (0, 0), BuildingBlock: CIFDUS_clean_linker_0, # of connection points: 2
#     Edge 15, Type (0, 0), BuildingBlock: CIFDUS_clean_linker_0, # of connection points: 2
#     Edge 16, Type (0, 0), BuildingBlock: CIFDUS_clean_linker_0, # of connection points: 2
#     Edge 17, Type (0, 0), BuildingBlock: CIFDUS_clean_linker_0, # of connection points: 2
#     Edge 18, Type (0, 0), BuildingBlock: CIFDUS_clean_linker_0, # of connection points: 2
#     Edge 19, Type (0, 0), BuildingBlock: CIFDUS_clean_linker_0, # of connection points: 2
#     Edge 20, Type (0, 0), BuildingBlock: CIFDUS_clean_linker_0, # of connection points: 2
#     Edge 21, Type (0, 0), BuildingBlock: CIFDUS_clean_linker_0, # of connection points: 2
#     Edge 22, Type (0, 0), BuildingBlock: CIFDUS_clean_linker_0, # of connection points: 2
#     Edge 23, Type (0, 0), BuildingBlock: CIFDUS_clean_linker_0, # of connection points: 2
# Relax obj value: 0.161
# Max RMSD: 0.176
# Mean RMSD: 0.176
data_MOF--net-mmt--node1-UXUYUI_clean_sbu_0--edge1-CIFDUS_clean_linker_0
_symmetry_space_group_name_H-M    P1
_symmetry_Int_Tables_number       1
_symmetry_cell_setting            triclinic
loop_
_symmetry_equiv_pos_as_xyz
'x, y, z'
_cell_length_a     28.995823
_cell_length_b     52.583495
_cell_length_c     58.245853
_cell_angle_alpha  90.027936
_cell_angle_beta   89.988912
_cell_angle_gamma 90.010647
loop_
_atom_site_label
_atom_site_type_symbol
_atom_site_fract_x
_atom_site_fract_y
_atom_site_fract_z
_atom_type_partial_charge
Li0 Li 0.10043 0.56587 0.33209 0.0
Li1 Li 0.12297 0.55759 0.37265 0.0
Li2 Li 0.15003 0.59664 0.35178 0.0
Li3 Li 0.17786 0.55565 0.3415 0.0
C4 C 0.04066 0.58452 0.36707 0.0
N5 N 0.95076 0.57972 0.38217 0.0
C6 C 0.01918 0.56071 0.36711 0.0
C7 C 0.01647 0.60587 0.37475 0.0
C8 C 0.97371 0.55868 0.37482 0.0
C9 C 0.97101 0.60306 0.38228 0.0
C10 C 0.14285 0.51056 0.34473 0.0
C11 C 0.19329 0.47837 0.36023 0.0
N12 N 0.18671 0.46408 0.34104 0.0
C13 C 0.13638 0.49548 0.32523 0.0
C14 C 0.17143 0.50192 0.36242 0.0
C15 C 0.15895 0.47207 0.32366 0.0
C16 C 0.07025 0.54611 0.29117 0.0
N17 N 0.05484 0.5604 0.30901 0.0
C18 C 0.97852 0.56054 0.29345 0.0
C19 C 0.01032 0.5685 0.31003 0.0
C20 C 0.99295 0.54435 0.27563 0.0
C21 C 0.03983 0.53779 0.27425 0.0
H22 H 0.10617 0.54065 0.29045 0.0
H23 H 0.99904 0.58056 0.32394 0.0
C24 C 0.09481 0.56025 0.41935 0.0
N25 N 0.10041 0.54447 0.40107 0.0
C26 C 0.07359 0.55142 0.43941 0.0
C27 C 0.06534 0.51019 0.42158 0.0
C28 C 0.08607 0.51988 0.40183 0.0
C29 C 0.05813 0.52607 0.44067 0.0
H30 H 0.10559 0.5799 0.41808 0.0
H31 H 0.08953 0.50789 0.38689 0.0
C32 C 0.14419 0.60059 0.30469 0.0
N33 N 0.119 0.63706 0.27293 0.0
C34 C 0.1693 0.60341 0.28437 0.0
C35 C 0.10617 0.6163 0.30883 0.0
C36 C 0.15606 0.62197 0.26853 0.0
C37 C 0.09402 0.63463 0.29257 0.0
C38 C 0.23028 0.57359 0.37771 0.0
C39 C 0.26197 0.58672 0.36407 0.0
C40 C 0.2453 0.56102 0.39747 0.0
C41 C 0.30843 0.58697 0.37041 0.0
C42 C 0.29205 0.56173 0.40324 0.0
N43 N 0.32238 0.57458 0.3897 0.0
C44 C 0.15044 0.64522 0.37344 0.0
C45 C 0.19741 0.64182 0.34031 0.0
C46 C 0.16453 0.67043 0.37673 0.0
N47 N 0.16709 0.63151 0.35547 0.0
C48 C 0.21208 0.66693 0.34281 0.0
C49 C 0.19599 0.68161 0.36133 0.0
H50 H 0.12669 0.63645 0.38539 0.0
H51 H 0.21064 0.63048 0.32631 0.0
C52 C 0.22764 0.536 0.30534 0.0
N53 N 0.22956 0.53794 0.32858 0.0
C54 C 0.26221 0.52332 0.29329 0.0
C55 C 0.30036 0.51457 0.32932 0.0
C56 C 0.26477 0.52735 0.34072 0.0
C57 C 0.2993 0.51245 0.30527 0.0
H58 H 0.19895 0.54427 0.29614 0.0
H59 H 0.26507 0.52844 0.35922 0.0
O60 O 0.08549 0.58696 0.36011 0.0
O61 O 0.12201 0.53384 0.3464 0.0
O62 O 0.15694 0.58238 0.32024 0.0
O63 O 0.18474 0.57291 0.37177 0.0
H64 H 0.03729 0.54398 0.36117 0.0
H65 H 0.03274 0.6244 0.37492 0.0
H66 H 0.95666 0.54038 0.37493 0.0
H67 H 0.95185 0.61942 0.38827 0.0
H68 H 0.21573 0.47155 0.37372 0.0
H69 H 0.11418 0.50172 0.31144 0.0
H70 H 0.17726 0.51349 0.37752 0.0
H71 H 0.15437 0.46025 0.30863 0.0
H72 H 0.94275 0.56614 0.29513 0.0
H73 H 0.05272 0.52592 0.26047 0.0
H74 H 0.06816 0.56455 0.45348 0.0
H75 H 0.05476 0.49044 0.42174 0.0
H76 H 0.19881 0.5914 0.28089 0.0
H77 H 0.08619 0.61448 0.32439 0.0
H78 H 0.17523 0.62437 0.25275 0.0
H79 H 0.06471 0.64692 0.29556 0.0
H80 H 0.25094 0.59623 0.34856 0.0
H81 H 0.22109 0.55074 0.40815 0.0
H82 H 0.33342 0.59693 0.35996 0.0
H83 H 0.30424 0.55205 0.41845 0.0
H84 H 0.15158 0.68085 0.39142 0.0
H85 H 0.23565 0.67475 0.33024 0.0
H86 H 0.26026 0.5224 0.27474 0.0
H87 H 0.32804 0.50616 0.33921 0.0
Li88 Li 0.34252 0.94441 0.33909 0.0
Li89 Li 0.36373 0.90407 0.35445 0.0
Li90 Li 0.38941 0.9448 0.3742 0.0
Li91 Li 0.42162 0.93021 0.33637 0.0
C92 C 0.28423 0.94183 0.37534 0.0
N93 N 0.20037 0.96366 0.38638 0.0
C94 C 0.24354 0.93267 0.36545 0.0
C95 C 0.28221 0.96211 0.39084 0.0
C96 C 0.2015 0.94397 0.37124 0.0
C97 C 0.23949 0.97288 0.39621 0.0
C98 C 0.35064 0.89405 0.31101 0.0
C99 C 0.36225 0.85206 0.29534 0.0
N100 N 0.31668 0.85082 0.28993 0.0
C101 C 0.30392 0.89238 0.30525 0.0
C102 C 0.3801 0.87377 0.30595 0.0
C103 C 0.28743 0.87037 0.2946 0.0
C104 C 0.30141 0.95834 0.298 0.0
N105 N 0.29789 0.96277 0.32092 0.0
C106 C 0.23348 0.9904 0.31461 0.0
C107 C 0.26585 0.97926 0.32931 0.0
C108 C 0.23477 0.98492 0.29098 0.0
C109 C 0.27015 0.96916 0.28271 0.0
H110 H 0.32843 0.94612 0.29154 0.0
H111 H 0.26501 0.9837 0.34738 0.0
C112 C 0.37477 0.85171 0.36646 0.0
N113 N 0.34396 0.86965 0.35959 0.0
C114 C 0.36135 0.82624 0.36836 0.0
C115 C 0.28458 0.83823 0.35653 0.0
C116 C 0.29935 0.86344 0.35513 0.0
C117 C 0.31581 0.81909 0.36301 0.0
H118 H 0.40993 0.85711 0.37018 0.0
H119 H 0.27546 0.87793 0.34971 0.0
C120 C 0.38884 0.98711 0.33669 0.0
N121 N 0.36358 0.03291 0.31729 0.0
C122 C 0.39929 0.99216 0.31373 0.0
C123 C 0.36581 0.00534 0.34985 0.0
C124 C 0.38614 0.01544 0.30422 0.0
C125 C 0.35329 0.02839 0.33971 0.0
C126 C 0.47143 0.90704 0.3677 0.0
C127 C 0.50142 0.92062 0.38195 0.0
C128 C 0.48874 0.88762 0.35375 0.0
C129 C 0.54841 0.91473 0.38178 0.0
C130 C 0.53595 0.88234 0.35405 0.0
N131 N 0.56456 0.8959 0.36793 0.0
C132 C 0.39306 0.95221 0.42279 0.0
C133 C 0.43493 0.98181 0.40029 0.0
C134 C 0.40845 0.96383 0.443 0.0
N135 N 0.40648 0.96136 0.40201 0.0
C136 C 0.45137 0.99388 0.42 0.0
C137 C 0.43834 0.9849 0.4418 0.0
H138 H 0.37065 0.93578 0.42363 0.0
H139 H 0.44574 0.98838 0.38353 0.0
C140 C 0.47694 0.92313 0.29636 0.0
N141 N 0.47553 0.93296 0.31795 0.0
C142 C 0.51474 0.92799 0.28211 0.0
C143 C 0.54898 0.95268 0.31271 0.0
C144 C 0.51048 0.94749 0.32627 0.0
C145 C 0.5512 0.94318 0.29018 0.0
H146 H 0.4481 0.91223 0.28994 0.0
H147 H 0.50772 0.95573 0.34323 0.0
O148 O 0.32567 0.93072 0.37026 0.0
O149 O 0.36734 0.91529 0.32177 0.0
O150 O 0.40015 0.96415 0.3461 0.0
O151 O 0.42543 0.91284 0.3673 0.0
H152 H 0.24438 0.91735 0.35312 0.0
H153 H 0.31324 0.9696 0.39856 0.0
H154 H 0.16981 0.93717 0.36361 0.0
H155 H 0.23747 0.9886 0.40815 0.0
H156 H 0.38463 0.83618 0.29144 0.0
H157 H 0.28039 0.90767 0.30936 0.0
H158 H 0.41629 0.87469 0.3103 0.0
H159 H 0.25131 0.86876 0.29018 0.0
H160 H 0.20709 0.00261 0.32178 0.0
H161 H 0.27356 0.96508 0.26456 0.0
H162 H 0.38652 0.81231 0.37386 0.0
H163 H 0.24938 0.83376 0.35184 0.0
H164 H 0.41691 0.97814 0.30332 0.0
H165 H 0.35722 1.00158 0.36762 0.0
H166 H 0.39374 0.01959 0.28643 0.0
H167 H 0.33521 0.04265 0.34963 0.0
H168 H 0.48866 0.93562 0.39293 0.0
H169 H 0.46604 0.87691 0.34266 0.0
H170 H 0.57204 0.92517 0.39263 0.0
H171 H 0.54984 0.86748 0.34322 0.0
H172 H 0.397 0.9564 0.45937 0.0
H173 H 0.47499 0.00969 0.41814 0.0
H174 H 0.51511 0.92028 0.26487 0.0
H175 H 0.5758 0.96491 0.31946 0.0
Li176 Li 0.67323 0.45151 0.15703 0.0
Li177 Li 0.65185 0.40747 0.14735 0.0
Li178 Li 0.61716 0.44447 0.1256 0.0
Li179 Li 0.59324 0.43461 0.16476 0.0
C180 C 0.72153 0.44078 0.11592 0.0
N181 N 0.79997 0.45628 0.09286 0.0
C182 C 0.7594 0.42446 0.11404 0.0
C183 C 0.72333 0.46483 0.10576 0.0
C184 C 0.79881 0.43269 0.1024 0.0
C185 C 0.76334 0.47236 0.09426 0.0
C186 C 0.67273 0.40741 0.19331 0.0
C187 C 0.66791 0.37053 0.21781 0.0
N188 N 0.71294 0.37368 0.22369 0.0
C189 C 0.7188 0.41047 0.19983 0.0
C190 C 0.64691 0.38745 0.20258 0.0
C191 C 0.73856 0.39315 0.21511 0.0
C192 C 0.70774 0.49077 0.18464 0.0
N193 N 0.72074 0.47239 0.16955 0.0
C194 C 0.80029 0.48121 0.17669 0.0
C195 C 0.76599 0.46753 0.1653 0.0
C196 C 0.78796 0.49986 0.19286 0.0
C197 C 0.74092 0.50489 0.19647 0.0
H198 H 0.67149 0.4939 0.18801 0.0
H199 H 0.77562 0.45236 0.15381 0.0
C200 C 0.65143 0.35478 0.13557 0.0
N201 N 0.6766 0.37389 0.14507 0.0
C202 C 0.66984 0.33026 0.13388 0.0
C203 C 0.73981 0.34562 0.15163 0.0
C204 C 0.72019 0.36981 0.1528 0.0
C205 C 0.71464 0.32537 0.14206 0.0
H206 H 0.61718 0.3586 0.1291 0.0
H207 H 0.73994 0.38542 0.15977 0.0
C208 C 0.60271 0.49237 0.14534 0.0
N209 N 0.58306 0.54155 0.13173 0.0
C210 C 0.55756 0.50159 0.14653 0.0
C211 C 0.638 0.50837 0.13771 0.0
C212 C 0.54827 0.52644 0.13942 0.0
C213 C 0.62736 0.53311 0.13079 0.0
C214 C 0.54559 0.40066 0.13976 0.0
C215 C 0.50735 0.40789 0.1267 0.0
C216 C 0.54128 0.38102 0.15576 0.0
C217 C 0.46511 0.39571 0.13026 0.0
C218 C 0.49848 0.3693 0.15882 0.0
N219 N 0.46157 0.37686 0.14614 0.0
C220 C 0.62017 0.45329 0.07725 0.0
C221 C 0.55231 0.46721 0.09605 0.0
C222 C 0.60332 0.46188 0.05616 0.0
N223 N 0.59483 0.45637 0.09669 0.0
C224 C 0.53393 0.47586 0.07534 0.0
C225 C 0.55955 0.47335 0.05497 0.0
H226 H 0.65337 0.44401 0.07806 0.0
H227 H 0.5322 0.4687 0.11161 0.0
C228 C 0.54994 0.43434 0.20839 0.0
N229 N 0.54269 0.43719 0.18548 0.0
C230 C 0.51434 0.4391 0.22399 0.0
C231 C 0.46437 0.44927 0.19208 0.0
C232 C 0.50089 0.44433 0.17713 0.0
C233 C 0.47101 0.44706 0.2159 0.0
H234 H 0.58375 0.42915 0.21461 0.0
H235 H 0.49637 0.44712 0.1589 0.0
O236 O 0.68279 0.43306 0.12741 0.0
O237 O 0.65289 0.42411 0.17824 0.0
O238 O 0.61242 0.46807 0.15228 0.0
O239 O 0.5871 0.4126 0.13675 0.0
H240 H 0.75849 0.40568 0.12154 0.0
H241 H 0.69395 0.47741 0.10645 0.0
H242 H 0.82846 0.42031 0.10094 0.0
H243 H 0.76518 0.49094 0.08635 0.0
H244 H 0.64836 0.35493 0.22502 0.0
H245 H 0.73924 0.42588 0.193 0.0
H246 H 0.61097 0.38513 0.19819 0.0
H247 H 0.77429 0.39518 0.22015 0.0
H248 H 0.83611 0.47683 0.17324 0.0
H249 H 0.72981 0.5188 0.20902 0.0
H250 H 0.64942 0.31542 0.12598 0.0
H251 H 0.77422 0.34282 0.15839 0.0
H252 H 0.52989 0.48965 0.15271 0.0
H253 H 0.67334 0.50191 0.13736 0.0
H254 H 0.5134 0.53372 0.14005 0.0
H255 H 0.65435 0.54565 0.12476 0.0
H256 H 0.51013 0.4228 0.11403 0.0
H257 H 0.57071 0.37482 0.16563 0.0
H258 H 0.43516 0.40124 0.12038 0.0
H259 H 0.49464 0.35416 0.17124 0.0
H260 H 0.62452 0.45965 0.04099 0.0
H261 H 0.49959 0.48394 0.07526 0.0
H262 H 0.52091 0.43699 0.24219 0.0
H263 H 0.43189 0.45582 0.18507 0.0
Li264 Li 0.83685 0.05383 0.16185 0.0
Li265 Li 0.85246 0.0969 0.15108 0.0
Li266 Li 0.88535 0.05903 0.12861 0.0
Li267 Li 0.9119 0.06932 0.16887 0.0
C268 C 0.77685 0.06364 0.12725 0.0
N269 N 0.68746 0.04915 0.11749 0.0
C270 C 0.74029 0.0732 0.14028 0.0
C271 C 0.76803 0.04694 0.10911 0.0
C272 C 0.69532 0.06555 0.13513 0.0
C273 C 0.72255 0.0398 0.10448 0.0
C274 C 0.8621 0.10186 0.19754 0.0
C275 C 0.90524 0.13933 0.20814 0.0
N276 N 0.87868 0.14187 0.22725 0.0
C277 C 0.83508 0.10495 0.21724 0.0
C278 C 0.8973 0.11928 0.1929 0.0
C279 C 0.84407 0.12526 0.23206 0.0
C280 C 0.78641 0.03544 0.19885 0.0
N281 N 0.79047 0.03262 0.17576 0.0
C282 C 0.73052 1.0013 0.17569 0.0
C283 C 0.76387 0.01563 0.16411 0.0
C284 C 0.72501 0.00427 0.19952 0.0
C285 C 0.75379 0.02149 0.2111 0.0
H286 H 0.8087 0.04853 0.20783 0.0
H287 H 0.76865 0.013 0.14588 0.0
C288 C 0.84343 0.14686 0.13224 0.0
N289 N 0.82785 0.13031 0.1484 0.0
C290 C 0.82426 0.17122 0.13057 0.0
C291 C 0.77367 0.16094 0.16222 0.0
C292 C 0.79354 0.13682 0.16317 0.0
C293 C 0.78879 0.17855 0.1457 0.0
H294 H 0.87049 0.14107 0.12057 0.0
H295 H 0.78159 0.12324 0.17576 0.0
C296 C 0.8864 0.01293 0.16399 0.0
N297 N 0.86409 0.9663 0.18279 0.0
C298 C 0.8949 0.00815 0.18721 0.0
C299 C 0.86668 0.99398 0.15031 0.0
C300 C 0.88333 0.98446 0.1964 0.0
C301 C 0.85565 0.97053 0.16014 0.0
C302 C 0.96006 0.09859 0.13437 0.0
C303 C 0.99141 0.08141 0.1248 0.0
C304 C 0.97282 0.12405 0.13717 0.0
C305 C 0.03534 0.08986 0.11858 0.0
C306 C 0.01709 0.13177 0.13074 0.0
N307 N 0.04718 0.11466 0.12167 0.0
C308 C 0.90297 0.06442 0.08116 0.0
C309 C 0.92379 0.02436 0.09666 0.0
C310 C 0.92048 0.05746 0.05968 0.0
N311 N 0.9051 0.04791 0.09908 0.0
C312 C 0.94128 0.01653 0.07546 0.0
C313 C 0.94011 0.03325 0.05666 0.0
H314 H 0.88839 0.08315 0.08369 0.0
H315 H 0.92621 0.01188 0.11134 0.0
C316 C 0.96255 0.07142 0.21158 0.0
N317 N 0.96469 0.06613 0.18871 0.0
C318 C 0.9998 0.06587 0.22594 0.0
C319 C 0.04058 0.04894 0.19318 0.0
C320 C 0.00268 0.05497 0.17945 0.0
C321 C 0.03922 0.05413 0.21682 0.0
H322 H 0.93136 0.07886 0.21906 0.0
H323 H 0.00284 0.04969 0.16155 0.0
O324 O 0.82109 0.07084 0.13199 0.0
O325 O 0.8528 0.08242 0.18257 0.0
O326 O 0.89642 0.03623 0.15485 0.0
O327 O 0.91656 0.0908 0.14021 0.0
H328 H 0.74664 0.08612 0.15439 0.0
H329 H 0.79605 0.03948 0.09883 0.0
H330 H 0.66668 0.07263 0.14517 0.0
H331 H 0.71516 0.02679 0.09056 0.0
H332 H 0.93253 0.15285 0.20477 0.0
H333 H 0.80717 0.09194 0.22097 0.0
H334 H 0.91853 0.11724 0.17785 0.0
H335 H 0.82341 0.12785 0.24735 0.0
H336 H 0.70956 0.98793 0.16615 0.0
H337 H 0.75057 0.02458 0.22942 0.0
H338 H 0.83664 0.18401 0.11738 0.0
H339 H 0.74704 0.16578 0.1745 0.0
H340 H 0.90978 0.02268 0.19808 0.0
H341 H 0.85911 0.99751 0.1324 0.0
H342 H 0.88949 0.98054 0.21437 0.0
H343 H 0.84008 0.95575 0.1498 0.0
H344 H 0.98209 0.06169 0.12234 0.0
H345 H 0.94877 0.13776 0.14414 0.0
H346 H 0.06001 0.07671 0.11129 0.0
H347 H 0.02746 0.15139 0.13288 0.0
H348 H 0.91871 0.07087 0.0456 0.0
H349 H 0.9568 0.99787 0.07397 0.0
H350 H 0.99686 0.06958 0.24417 0.0
H351 H 0.07023 0.03978 0.18547 0.0
Li352 Li 0.83647 0.45281 0.66002 0.0
Li353 Li 0.91128 0.43643 0.66881 0.0
Li354 Li 0.89153 0.44758 0.62902 0.0
Li355 Li 0.85461 0.4093 0.64937 0.0
C356 C 0.90317 0.49519 0.65586 0.0
N357 N 0.91706 0.54719 0.65593 0.0
C358 C 0.92424 0.50698 0.67466 0.0
C359 C 0.88951 0.50984 0.63703 0.0
C360 C 0.93084 0.53329 0.67439 0.0
C361 C 0.89675 0.5361 0.63742 0.0
C362 C 0.84386 0.42946 0.70308 0.0
C363 C 0.81463 0.41819 0.74047 0.0
N364 N 0.82737 0.44143 0.74853 0.0
C365 C 0.85661 0.45324 0.71172 0.0
C366 C 0.82262 0.41178 0.71753 0.0
C367 C 0.84801 0.45893 0.73475 0.0
C368 C 0.7498 0.4589 0.67982 0.0
N369 N 0.78687 0.47259 0.67266 0.0
C370 C 0.75491 0.51052 0.68884 0.0
C371 C 0.78969 0.49803 0.67663 0.0
C372 C 0.71676 0.49672 0.697 0.0
C373 C 0.71404 0.47064 0.69182 0.0
H374 H 0.74871 0.43862 0.6768 0.0
H375 H 0.81952 0.5086 0.67115 0.0
C376 C 0.99821 0.45242 0.6819 0.0
N377 N 0.96232 0.43801 0.68933 0.0
C378 C 0.03592 0.45691 0.69616 0.0
C379 C 0.9996 0.43113 0.72539 0.0
C380 C 0.96272 0.42688 0.7104 0.0
C381 C 0.03653 0.44659 0.71838 0.0
H382 H 0.9969 0.46098 0.66502 0.0
H383 H 0.93408 0.41515 0.71578 0.0
C384 C 0.78159 0.44403 0.62507 0.0
N385 N 0.69246 0.46058 0.61745 0.0
C386 C 0.7445 0.42739 0.62807 0.0
C387 C 0.77342 0.46898 0.6179 0.0
C388 C 0.69968 0.43614 0.6242 0.0
C389 C 0.72809 0.47702 0.61423 0.0
C390 C 0.95777 0.40119 0.64728 0.0
C391 C 0.00147 0.40637 0.63832 0.0
C392 C 0.95249 0.38216 0.66382 0.0
C393 C 0.03934 0.39243 0.64616 0.0
C394 C 0.99121 0.36864 0.6712 0.0
N395 N 0.03347 0.37403 0.6623 0.0
C396 C 0.96226 0.46742 0.60215 0.0
C397 C 0.89086 0.46489 0.58251 0.0
C398 C 0.98346 0.47802 0.5829 0.0
N399 N 0.91694 0.46097 0.60156 0.0
C400 C 0.91053 0.47577 0.5629 0.0
C401 C 0.95758 0.48247 0.56288 0.0
H402 H 0.98189 0.46444 0.61771 0.0
H403 H 0.85469 0.45986 0.58265 0.0
C404 C 0.7952 0.36842 0.65919 0.0
N405 N 0.83203 0.37554 0.64627 0.0
C406 C 0.77852 0.34352 0.65808 0.0
C407 C 0.83815 0.33373 0.63043 0.0
C408 C 0.85347 0.35888 0.63196 0.0
C409 C 0.80027 0.32573 0.64367 0.0
H410 H 0.779 0.38208 0.6705 0.0
H411 H 0.88279 0.36509 0.62193 0.0
O412 O 0.89679 0.46941 0.65579 0.0
O413 O 0.85121 0.42357 0.6805 0.0
O414 O 0.82564 0.43594 0.62922 0.0
O415 O 0.92043 0.41512 0.64042 0.0
H416 H 0.93534 0.49595 0.68932 0.0
H417 H 0.87348 0.50109 0.62228 0.0
H418 H 0.94697 0.54266 0.68884 0.0
H419 H 0.88625 0.54766 0.62298 0.0
H420 H 0.79824 0.40469 0.75187 0.0
H421 H 0.87279 0.46718 0.70076 0.0
H422 H 0.81241 0.39331 0.71108 0.0
H423 H 0.85767 0.47728 0.74165 0.0
H424 H 0.75892 0.53056 0.69263 0.0
H425 H 0.68499 0.45925 0.69735 0.0
H426 H 0.06348 0.46914 0.69017 0.0
H427 H 0.9991 0.42262 0.74232 0.0
H428 H 0.75022 0.40798 0.63347 0.0
H429 H 0.80169 0.48207 0.61538 0.0
H430 H 0.67062 0.42351 0.6266 0.0
H431 H 0.72125 0.49634 0.60884 0.0
H432 H 0.00616 0.42103 0.62552 0.0
H433 H 0.91894 0.37812 0.67111 0.0
H434 H 0.07341 0.39626 0.63943 0.0
H435 H 0.98769 0.35395 0.68408 0.0
H436 H 0.01988 0.48246 0.5837 0.0
H437 H 0.88889 0.47922 0.54809 0.0
H438 H 0.74961 0.33809 0.66879 0.0
H439 H 0.85567 0.3207 0.61897 0.0
Li440 Li 0.58078 0.07399 0.67061 0.0
Li441 Li 0.65903 0.06299 0.66094 0.0
Li442 Li 0.63104 0.10436 0.65066 0.0
Li443 Li 0.60305 0.0651 0.62995 0.0
C444 C 0.6439 0.08614 0.70473 0.0
N445 N 0.6556 0.07737 0.75112 0.0
C446 C 0.64115 0.06142 0.71341 0.0
C447 C 0.65266 0.10641 0.71963 0.0
C448 C 0.64717 0.05737 0.73691 0.0
C449 C 0.65844 0.10158 0.74304 0.0
C450 C 0.60691 0.01637 0.65737 0.0
C451 C 0.62513 0.97643 0.63908 0.0
N452 N 0.61334 0.96394 0.65865 0.0
C453 C 0.5944 0.00309 0.67721 0.0
C454 C 0.62193 0.00292 0.63805 0.0
C455 C 0.59814 0.9766 0.67756 0.0
C456 C 0.50158 0.05005 0.68617 0.0
N457 N 0.5317 0.06882 0.69177 0.0
C458 C 0.49406 0.07513 0.72785 0.0
C459 C 0.52794 0.08182 0.71188 0.0
C460 C 0.46351 0.05507 0.72294 0.0
C461 C 0.46698 0.04291 0.7015 0.0
H462 H 0.50517 0.04022 0.66995 0.0
H463 H 0.5519 0.09693 0.71582 0.0
C464 C 0.74149 0.06202 0.68559 0.0
N465 N 0.71393 0.04674 0.67268 0.0
C466 C 0.77987 0.05212 0.69686 0.0
C467 C 0.76305 0.01111 0.68022 0.0
C468 C 0.72457 0.0218 0.66942 0.0
C469 C 0.79088 0.02622 0.69455 0.0
H470 H 0.7331 0.08193 0.68753 0.0
H471 H 0.70327 0.01006 0.65861 0.0
C472 C 0.53525 0.11323 0.64815 0.0
N473 N 0.47326 0.15114 0.65936 0.0
C474 C 0.49663 0.11751 0.63434 0.0
C475 C 0.54233 0.1282 0.66768 0.0
C476 C 0.46569 0.13679 0.64029 0.0
C477 C 0.5106 0.14728 0.67305 0.0
C478 C 0.7098 0.07346 0.62554 0.0
C479 C 0.74669 0.08823 0.63331 0.0
C480 C 0.71841 0.05112 0.61327 0.0
C481 C 0.79177 0.08016 0.62899 0.0
C482 C 0.76398 0.0437 0.60929 0.0
N483 N 0.7994 0.05823 0.61719 0.0
C484 C 0.68264 0.14742 0.66162 0.0
C485 C 0.62706 0.15499 0.63258 0.0
C486 C 0.69771 0.1726 0.66045 0.0
N487 N 0.64804 0.13915 0.64778 0.0
C488 C 0.64081 0.18044 0.63096 0.0
C489 C 0.67677 0.18949 0.64496 0.0
H490 H 0.69865 0.13437 0.67355 0.0
H491 H 0.59973 0.14786 0.6217 0.0
C492 C 0.54475 0.0341 0.6039 0.0
N493 N 0.5799 0.0511 0.60212 0.0
C494 C 0.52642 0.02271 0.58428 0.0
C495 C 0.57973 0.04715 0.56122 0.0
C496 C 0.59751 0.05786 0.58137 0.0
C497 C 0.54391 0.02918 0.56257 0.0
H498 H 0.53118 0.02929 0.62065 0.0
H499 H 0.6254 0.07149 0.58049 0.0
O500 O 0.63792 0.09065 0.68179 0.0
O501 O 0.60259 0.04227 0.65658 0.0
O502 O 0.56571 0.09436 0.64256 0.0
O503 O 0.66548 0.08062 0.63023 0.0
H504 H 0.63474 0.04556 0.7021 0.0
H505 H 0.65477 0.12567 0.71316 0.0
H506 H 0.64518 0.03832 0.74385 0.0
H507 H 0.66517 0.11709 0.75478 0.0
H508 H 0.63701 0.96582 0.6243 0.0
H509 H 0.58163 0.01308 0.69216 0.0
H510 H 0.63138 0.01279 0.62249 0.0
H511 H 0.58876 0.96611 0.69283 0.0
H512 H 0.49288 0.085 0.74416 0.0
H513 H 0.44355 0.02779 0.69666 0.0
H514 H 0.79983 0.06458 0.70783 0.0
H515 H 0.77074 0.9912 0.67743 0.0
H516 H 0.49066 0.10604 0.61919 0.0
H517 H 0.57199 0.12517 0.67859 0.0
H518 H 0.43565 0.14032 0.62976 0.0
H519 H 0.51566 0.15901 0.6881 0.0
H520 H 0.74057 0.10557 0.64285 0.0
H521 H 0.69023 0.03959 0.60698 0.0
H522 H 0.82067 0.09129 0.63507 0.0
H523 H 0.77118 0.02637 0.59993 0.0
H524 H 0.72511 0.17885 0.67177 0.0
H525 H 0.624 0.19278 0.61866 0.0
H526 H 0.49847 0.00917 0.58604 0.0
H527 H 0.59431 0.05253 0.5448 0.0
Li528 Li 0.37958 0.56295 0.8746 0.0
Li529 Li 0.34831 0.59641 0.84903 0.0
Li530 Li 0.32705 0.55174 0.84394 0.0
Li531 Li 0.40344 0.56535 0.83555 0.0
C532 C 0.29754 0.58777 0.88874 0.0
N533 N 0.26483 0.61647 0.92498 0.0
C534 C 0.32601 0.60579 0.89927 0.0
C535 C 0.25243 0.5844 0.89658 0.0
C536 C 0.30882 0.6201 0.91758 0.0
C537 C 0.23654 0.59907 0.91496 0.0
C538 C 0.45152 0.60277 0.85124 0.0
C539 C 0.48889 0.62876 0.82266 0.0
N540 N 0.53044 0.62349 0.83239 0.0
C541 C 0.49454 0.59769 0.86102 0.0
C542 C 0.44857 0.61848 0.83195 0.0
C543 C 0.53406 0.60832 0.85121 0.0
C544 C 0.44558 0.54603 0.90548 0.0
N545 N 0.40086 0.55368 0.90449 0.0
C546 C 0.39115 0.54527 0.94455 0.0
C547 C 0.37334 0.55309 0.9234 0.0
C548 C 0.4374 0.5375 0.9461 0.0
C549 C 0.46467 0.53785 0.92619 0.0
H550 H 0.46626 0.54597 0.89003 0.0
H551 H 0.33741 0.55824 0.92212 0.0
C552 C 0.2809 0.63218 0.83842 0.0
N553 N 0.32403 0.62989 0.84726 0.0
C554 C 0.25952 0.65593 0.8374 0.0
C555 C 0.32744 0.67458 0.85462 0.0
C556 C 0.34749 0.6504 0.85536 0.0
C557 C 0.28279 0.67759 0.84556 0.0
H558 H 0.26291 0.61541 0.83241 0.0
H559 H 0.38159 0.64796 0.86255 0.0
C560 C 0.37618 0.51224 0.86354 0.0
N561 N 0.35836 0.46703 0.88602 0.0
C562 C 0.40485 0.49122 0.86014 0.0
C563 C 0.33846 0.51028 0.8784 0.0
C564 C 0.39525 0.46852 0.87165 0.0
C565 C 0.33004 0.48726 0.8896 0.0
C566 C 0.33794 0.56713 0.79891 0.0
C567 C 0.35463 0.54312 0.79283 0.0
C568 C 0.31167 0.58101 0.7832 0.0
C569 C 0.34489 0.53342 0.77103 0.0
C570 C 0.3027 0.57066 0.76156 0.0
N571 N 0.31935 0.54728 0.75597 0.0
C572 C 0.23489 0.54096 0.83314 0.0
C573 C 0.2866 0.50735 0.82455 0.0
C574 C 0.19866 0.52787 0.82264 0.0
N575 N 0.27788 0.53071 0.83359 0.0
C576 C 0.25146 0.49365 0.81381 0.0
C577 C 0.20699 0.50412 0.81236 0.0
H578 H 0.22922 0.55977 0.84014 0.0
H579 H 0.32124 0.49977 0.82481 0.0
C580 C 0.48821 0.54358 0.82562 0.0
N581 N 0.45544 0.55887 0.81633 0.0
C582 C 0.52499 0.53501 0.81229 0.0
C583 C 0.49433 0.55861 0.78013 0.0
C584 C 0.45849 0.56712 0.79426 0.0
C585 C 0.52768 0.5418 0.78896 0.0
H586 H 0.48506 0.53754 0.8433 0.0
H587 H 0.43218 0.5795 0.78734 0.0
O588 O 0.31318 0.57374 0.87055 0.0
O589 O 0.41252 0.59198 0.86014 0.0
O590 O 0.38561 0.53458 0.85247 0.0
O591 O 0.34628 0.57689 0.82028 0.0
H592 H 0.36103 0.60869 0.89346 0.0
H593 H 0.22993 0.57058 0.88853 0.0
H594 H 0.33047 0.6341 0.9259 0.0
H595 H 0.2017 0.59664 0.92123 0.0
H596 H 0.48717 0.64083 0.80765 0.0
H597 H 0.49743 0.58561 0.87597 0.0
H598 H 0.41555 0.62238 0.82404 0.0
H599 H 0.56761 0.60449 0.85855 0.0
H600 H 0.36873 0.54479 0.95942 0.0
H601 H 0.50049 0.53202 0.92665 0.0
H602 H 0.22481 0.65721 0.83065 0.0
H603 H 0.34687 0.69074 0.86089 0.0
H604 H 0.43423 0.49245 0.84873 0.0
H605 H 0.31587 0.5263 0.88131 0.0
H606 H 0.41715 0.45209 0.86917 0.0
H607 H 0.30099 0.48548 0.90114 0.0
H608 H 0.37475 0.53203 0.80483 0.0
H609 H 0.2983 0.59958 0.78772 0.0
H610 H 0.35756 0.51485 0.76611 0.0
H611 H 0.28243 0.5812 0.74921 0.0
H612 H 0.16506 0.53679 0.82163 0.0
H613 H 0.25926 0.47533 0.80625 0.0
H614 H 0.55049 0.52273 0.82011 0.0
H615 H 0.49465 0.56431 0.76228 0.0
Li616 Li 0.10129 0.94122 0.87201 0.0
Li617 Li 0.13014 0.90332 0.85187 0.0
Li618 Li 0.16065 0.94598 0.84319 0.0
Li619 Li 0.08168 0.93385 0.83164 0.0
C620 C 0.20848 0.93028 0.8796 0.0
N621 N 0.29928 0.93789 0.89223 0.0
C622 C 0.23943 0.9099 0.87971 0.0
C623 C 0.22363 0.95449 0.88602 0.0
C624 C 0.28521 0.91415 0.88614 0.0
C625 C 0.2697 0.95796 0.8923 0.0
C626 C 0.04605 0.89042 0.8651 0.0
C627 C 0.01189 0.84981 0.85612 0.0
N628 N 0.01093 0.84404 0.87888 0.0
C629 C 0.04455 0.88416 0.88841 0.0
C630 C 0.02941 0.8732 0.84882 0.0
C631 C 0.02671 0.86059 0.89503 0.0
C632 C 0.02974 0.95041 0.90332 0.0
N633 N 0.0758 0.95373 0.90014 0.0
C634 C 0.08242 0.97435 0.93661 0.0
C635 C 0.10227 0.96551 0.91622 0.0
C636 C 0.03507 0.9707 0.94055 0.0
C637 C 0.00862 0.95864 0.92354 0.0
H638 H 0.00941 0.94124 0.89013 0.0
H639 H 0.13876 0.96799 0.91327 0.0
C640 C 0.16453 0.85669 0.83529 0.0
N641 N 0.14816 0.86844 0.8544 0.0
C642 C 0.18168 0.83194 0.83649 0.0
C643 C 0.16466 0.83162 0.87709 0.0
C644 C 0.14811 0.85651 0.87511 0.0
C645 C 0.18214 0.81903 0.85762 0.0
H646 H 0.16558 0.86679 0.81917 0.0
H647 H 0.13624 0.86652 0.89021 0.0
C648 C 0.08304 0.98624 0.85598 0.0
N649 N 0.04036 0.02617 0.87827 0.0
C650 C 0.03506 0.98863 0.85532 0.0
C651 C 0.10937 0.00421 0.86784 0.0
C652 C 0.01412 0.00895 0.86673 0.0
C653 C 0.08712 0.02426 0.87903 0.0
C654 C 0.13705 0.91508 0.7987 0.0
C655 C 0.16166 0.93029 0.78328 0.0
C656 C 0.10728 0.89634 0.79033 0.0
C657 C 0.15563 0.92665 0.75971 0.0
C658 C 0.10216 0.89332 0.76664 0.0
N659 N 0.12622 0.90842 0.75195 0.0
C660 C 0.25311 0.94972 0.8291 0.0
C661 C 0.2091 0.98711 0.82319 0.0
C662 C 0.29009 0.96003 0.81697 0.0
N663 N 0.21356 0.96323 0.83183 0.0
C664 C 0.24498 0.99799 0.81051 0.0
C665 C 0.28585 0.98415 0.80676 0.0
H666 H 0.25518 0.93043 0.83539 0.0
H667 H 0.1767 0.9971 0.82499 0.0
C668 C 0.99194 0.9318 0.81172 0.0
N669 N 0.03607 0.93987 0.80877 0.0
C670 C 0.95781 0.9386 0.7959 0.0
C671 C 0.0156 0.96112 0.77399 0.0
C672 C 0.04826 0.95438 0.79047 0.0
C673 C 0.96931 0.9537 0.77676 0.0
H674 H 0.98294 0.92082 0.82677 0.0
H675 H 0.08327 0.96119 0.7889 0.0
O676 O 0.16359 0.92652 0.87326 0.0
O677 O 0.06389 0.91326 0.85825 0.0
O678 O 0.10402 0.96602 0.84559 0.0
O679 O 0.14208 0.91852 0.82185 0.0
H680 H 0.22833 0.89104 0.87476 0.0
H681 H 0.20027 0.97051 0.8858 0.0
H682 H 0.30958 0.89857 0.88624 0.0
H683 H 0.28198 0.97663 0.89716 0.0
H684 H 0.99903 0.83625 0.8437 0.0
H685 H 0.05761 0.8972 0.90123 0.0
H686 H 0.03004 0.87783 0.83073 0.0
H687 H 0.02558 0.85542 0.91299 0.0
H688 H 0.10404 0.98343 0.94938 0.0
H689 H 0.97191 0.95575 0.92578 0.0
H690 H 0.19577 0.82334 0.82112 0.0
H691 H 0.16404 0.82245 0.89372 0.0
H692 H 0.0142 0.97476 0.84634 0.0
H693 H 0.14654 0.00257 0.86854 0.0
H694 H 0.977 0.01096 0.8665 0.0
H695 H 0.10701 0.03824 0.88839 0.0
H696 H 0.18491 0.94486 0.78941 0.0
H697 H 0.08816 0.88434 0.80202 0.0
H698 H 0.17429 0.93836 0.74759 0.0
H699 H 0.07904 0.87898 0.75994 0.0
H700 H 0.32107 0.94876 0.81493 0.0
H701 H 0.23964 0.01643 0.8027 0.0
H702 H 0.92259 0.93281 0.79914 0.0
H703 H 0.02661 0.97234 0.75942 0.0
H704 H 0.29113 0.4794 0.26958 0.0
H705 H 0.39215 0.51666 0.31232 0.0
H706 H 0.45433 0.49823 0.28938 0.0
H707 H 0.47968 0.47425 0.25547 0.0
H708 H 0.37857 0.43722 0.21255 0.0
H709 H 0.3167 0.45322 0.23706 0.0
C710 C 0.32677 0.48349 0.27386 0.0
C711 C 0.33698 0.49954 0.29252 0.0
C712 C 0.36229 0.47307 0.26045 0.0
C713 C 0.38334 0.50424 0.29815 0.0
C714 C 0.41891 0.49385 0.28494 0.0
C715 C 0.44419 0.46924 0.25171 0.0
C716 C 0.43382 0.45466 0.2321 0.0
C717 C 0.40876 0.47855 0.26585 0.0
C718 C 0.38751 0.44872 0.22733 0.0
C719 C 0.35211 0.45778 0.24138 0.0
H720 H 0.08258 0.00853 0.21642 0.0
H721 H 0.08007 0.08048 0.25194 0.0
H722 H 0.14056 0.06562 0.27803 0.0
H723 H 0.19411 0.03198 0.2907 0.0
H724 H 0.19387 0.95965 0.25552 0.0
H725 H 0.13532 0.97509 0.22907 0.0
C726 C 0.09571 0.02109 0.22967 0.0
C727 C 0.07712 0.04562 0.23214 0.0
C728 C 0.13012 0.01237 0.24464 0.0
C729 C 0.09373 0.06147 0.24975 0.0
C730 C 0.12836 0.053 0.26462 0.0
C731 C 0.18101 0.01953 0.27736 0.0
C732 C 0.19879 0.99473 0.27506 0.0
C733 C 0.14668 0.02842 0.2623 0.0
C734 C 0.18163 0.97899 0.25747 0.0
C735 C 0.14784 0.98773 0.24239 0.0
H736 H 0.86374 0.4784 0.21205 0.0
H737 H 0.7922 0.55001 0.20586 0.0
H738 H 0.84942 0.57028 0.23074 0.0
H739 H 0.91958 0.56743 0.25463 0.0
H740 H 0.99 0.49539 0.26055 0.0
H741 H 0.93409 0.47575 0.23489 0.0
C742 C 0.86102 0.49855 0.21579 0.0
C743 C 0.8238 0.51266 0.20701 0.0
C744 C 0.89398 0.51005 0.23002 0.0
C745 C 0.82029 0.53864 0.21254 0.0
C746 C 0.85309 0.55027 0.22669 0.0
C747 C 0.92257 0.54743 0.25034 0.0
C748 C 0.95914 0.53297 0.25942 0.0
C749 C 0.88995 0.53611 0.23566 0.0
C750 C 0.96274 0.50711 0.25351 0.0
C751 C 0.93056 0.49578 0.23896 0.0
H752 H 0.73249 0.9816 0.24135 0.0
H753 H 0.63585 0.99545 0.18644 0.0
H754 H 0.57427 0.97584 0.20895 0.0
H755 H 0.54657 0.95806 0.24548 0.0
H756 H 0.64296 0.94518 0.30069 0.0
H757 H 0.70579 0.96148 0.27695 0.0
C758 C 0.69794 0.98033 0.2343 0.0
C759 C 0.68874 0.99018 0.21231 0.0
C760 C 0.66256 0.96942 0.24748 0.0
C761 C 0.644 0.98788 0.20324 0.0
C762 C 0.60867 0.97683 0.21618 0.0
C763 C 0.58146 0.95836 0.25217 0.0
C764 C 0.58999 0.95054 0.27488 0.0
C765 C 0.61738 0.96794 0.23847 0.0
C766 C 0.63535 0.9514 0.28338 0.0
C767 C 0.67132 0.96066 0.26979 0.0
H768 H 0.57342 0.56362 0.75265 0.0
H769 H 0.56185 0.49336 0.79071 0.0
H770 H 0.61965 0.47384 0.76621 0.0
H771 H 0.67324 0.47633 0.73405 0.0
H772 H 0.68104 0.54506 0.69371 0.0
H773 H 0.62489 0.56542 0.71903 0.0
C774 C 0.58313 0.54397 0.75549 0.0
C775 C 0.56341 0.5302 0.77379 0.0
C776 C 0.61576 0.53249 0.7409 0.0
C777 C 0.57709 0.50478 0.77724 0.0
C778 C 0.6099 0.49343 0.76305 0.0
C779 C 0.66217 0.49562 0.73046 0.0
C780 C 0.68137 0.50903 0.71187 0.0
C781 C 0.62936 0.50707 0.74483 0.0
C782 C 0.66733 0.5343 0.70801 0.0
C783 C 0.63499 0.54594 0.72242 0.0
H784 H 0.79618 0.97925 0.71462 0.0
H785 H 0.87447 0.04817 0.70403 0.0
H786 H 0.93576 0.03191 0.72852 0.0
H787 H 0.96546 0.99926 0.75429 0.0
H788 H 0.89093 0.92867 0.76244 0.0
H789 H 0.82975 0.94466 0.7376 0.0
C790 C 0.82699 0.99057 0.71726 0.0
C791 C 0.83018 0.0151 0.70764 0.0
C792 C 0.86264 0.98094 0.73112 0.0
C793 C 0.87034 0.0295 0.71159 0.0
C794 C 0.90564 0.02016 0.72551 0.0
C795 C 0.93649 0.987 0.75031 0.0
C796 C 0.93309 0.96274 0.76045 0.0
C797 C 0.90189 0.99605 0.73558 0.0
C798 C 0.89434 0.94761 0.75535 0.0
C799 C 0.8594 0.95666 0.74096 0.0
H800 H 0.21582 0.48188 0.77055 0.0
H801 H 0.11588 0.49811 0.82344 0.0
H802 H 0.05465 0.48005 0.79958 0.0
H803 H 0.02896 0.46198 0.76275 0.0
H804 H 0.12898 0.44659 0.7097 0.0
H805 H 0.19091 0.4617 0.7347 0.0
C806 C 0.18079 0.48103 0.77705 0.0
C807 C 0.17042 0.49131 0.79875 0.0
C808 C 0.14578 0.47086 0.76317 0.0
C809 C 0.12468 0.49053 0.80671 0.0
C810 C 0.0897 0.48014 0.79311 0.0
C811 C 0.06443 0.46151 0.75684 0.0
C812 C 0.07441 0.45322 0.73442 0.0
C813 C 0.09976 0.47058 0.77118 0.0
C814 C 0.12043 0.45309 0.72683 0.0
C815 C 0.15582 0.4617 0.74111 0.0
H816 H 0.31497 0.03335 0.8003 0.0
H817 H 0.33772 0.95649 0.77652 0.0
H818 H 0.39542 0.97157 0.74958 0.0
H819 H 0.43848 0.00632 0.73207 0.0
H820 H 0.41224 0.08368 0.75317 0.0
H821 H 0.35691 0.06859 0.78176 0.0
C822 C 0.33227 0.01989 0.78914 0.0
C823 C 0.32208 0.99373 0.79077 0.0
C824 C 0.3648 0.02876 0.7731 0.0
C825 C 0.34544 0.97663 0.77623 0.0
C826 C 0.37822 0.98526 0.76056 0.0
C827 C 0.42023 0.01999 0.74265 0.0
C828 C 0.42943 0.04613 0.74029 0.0
C829 C 0.38796 0.01125 0.75875 0.0
C830 C 0.40625 0.06342 0.75469 0.0
C831 C 0.37437 0.05482 0.77098 0.0
H832 H 0.07463 0.53763 0.48579 0.0
H833 H 0.98577 0.49256 0.44231 0.0
H834 H 0.94771 0.475 0.47599 0.0
H835 H 0.9404 0.47167 0.51776 0.0
H836 H 0.02471 0.51929 0.56125 0.0
H837 H 0.06349 0.53655 0.52758 0.0
C838 C 0.04653 0.52425 0.4836 0.0
C839 C 0.03371 0.51627 0.46141 0.0
C840 C 0.02397 0.51452 0.50309 0.0
C841 C 0.99742 0.49864 0.4591 0.0
C842 C 0.97524 0.4887 0.47839 0.0
C843 C 0.96671 0.48612 0.51995 0.0
C844 C 0.97969 0.49391 0.54217 0.0
C845 C 0.98838 0.49639 0.50047 0.0
C846 C 0.01452 0.51241 0.54448 0.0
C847 C 0.03658 0.52249 0.52519 0.0
H848 H 0.46517 0.96186 0.48167 0.0
H849 H 0.45305 0.03566 0.44975 0.0
H850 H 0.486 0.05566 0.48378 0.0
H851 H 0.51788 0.05236 0.52286 0.0
H852 H 0.52703 0.97883 0.55529 0.0
H853 H 0.49486 0.95868 0.52102 0.0
C854 C 0.46908 0.98236 0.48223 0.0
C855 C 0.4567 0.99714 0.46303 0.0
C856 C 0.48754 0.99384 0.502 0.0
C857 C 0.4629 0.02368 0.46405 0.0
C858 C 0.48154 0.0352 0.48359 0.0
C859 C 0.51308 0.03191 0.52232 0.0
C860 C 0.52489 0.0171 0.54155 0.0
C861 C 0.49415 0.02047 0.50263 0.0
C862 C 0.51789 0.99066 0.54076 0.0
C863 C 0.49962 0.97912 0.52116 0.0
H864 H 0.50761 0.51574 0.04684 0.0
H865 H 0.568 0.45087 0.01269 0.0
H866 H 0.53663 0.4653 0.97612 0.0
H867 H 0.49072 0.49586 0.95385 0.0
H868 H 0.42782 0.55974 0.98819 0.0
H869 H 0.46043 0.54575 0.02477 0.0
C870 C 0.51354 0.50455 0.03148 0.0
C871 C 0.54036 0.48225 0.03263 0.0
C872 C 0.49466 0.5127 0.01053 0.0
C873 C 0.54825 0.46833 0.01236 0.0
C874 C 0.52999 0.47646 0.99142 0.0
C875 C 0.48444 0.5068 0.96933 0.0
C876 C 0.457 0.52883 0.96831 0.0
C877 C 0.50313 0.49859 0.9903 0.0
C878 C 0.44851 0.54259 0.98856 0.0
C879 C 0.46733 0.53468 0.00945 0.0
H880 H 0.04476 0.01616 0.9625 0.0
H881 H 0.97662 0.94347 0.96767 0.0
H882 H 0.9409 0.95642 0.00383 0.0
H883 H 0.92941 0.98829 0.03417 0.0
H884 H 0.9966 0.06123 0.0289 0.0
H885 H 0.03205 0.04841 0.9926 0.0
C886 C 0.02226 0.00315 0.97164 0.0
C887 C 0.01341 0.97888 0.96245 0.0
C888 C 0.00154 0.0108 0.99236 0.0
C889 C 0.98367 0.96233 0.97429 0.0
C890 C 0.96338 0.96968 0.99501 0.0
C891 C 0.95197 1.00132 0.02511 0.0
C892 C 0.96042 0.02565 0.03425 0.0
C893 C 0.97212 0.99385 0.00422 0.0
C894 C 0.98918 0.04248 0.02213 0.0
C895 C 0.00968 0.03511 1.00143 0.0
H896 H 0.28219 0.70069 0.35362 0.0
H897 H 0.14609 0.72287 0.37609 0.0
H898 H 0.17193 0.76683 0.38004 0.0
H899 H 0.23233 0.79925 0.37584 0.0
H900 H 0.36653 0.77738 0.35038 0.0
H901 H 0.34217 0.73308 0.34902 0.0
C902 C 0.25792 0.71513 0.35915 0.0
C903 C 0.21211 0.70834 0.36442 0.0
C904 C 0.27271 0.7405 0.36093 0.0
C905 C 0.18166 0.72735 0.37215 0.0
C906 C 0.19633 0.75259 0.37426 0.0
C907 C 0.25623 0.78488 0.36981 0.0
C908 C 0.30131 0.79185 0.36324 0.0
C909 C 0.24166 0.75942 0.36849 0.0
C910 C 0.33192 0.77271 0.35593 0.0
C911 C 0.31788 0.74732 0.35493 0.0
H912 H 0.83155 0.22389 0.13715 0.0
H913 H 0.69792 0.19125 0.15138 0.0
H914 H 0.66346 0.23352 0.15152 0.0
H915 H 0.67141 0.27982 0.14869 0.0
H916 H 0.80414 0.31238 0.13235 0.0
H917 H 0.83857 0.27008 0.13193 0.0
C918 C 0.79477 0.22594 0.13995 0.0
C919 C 0.76757 0.20433 0.14445 0.0
C920 C 0.77494 0.25034 0.13977 0.0
C921 C 0.72 0.20752 0.14834 0.0
C922 C 0.70012 0.2317 0.14828 0.0
C923 C 0.70773 0.27771 0.14468 0.0
C924 C 0.73507 0.2994 0.14073 0.0
C925 C 0.72731 0.25327 0.14418 0.0
C926 C 0.7823 0.29615 0.13592 0.0
C927 C 0.80204 0.27191 0.13552 0.0
H928 H 0.765 0.20707 0.64436 0.0
H929 H 0.62352 0.23232 0.64237 0.0
H930 H 0.64911 0.27662 0.6413 0.0
H931 H 0.71178 0.30824 0.64181 0.0
H932 H 0.85317 0.2828 0.64409 0.0
H933 H 0.82754 0.23857 0.64413 0.0
C934 C 0.73976 0.22228 0.64381 0.0
C935 C 0.69241 0.21639 0.64356 0.0
C936 C 0.75472 0.24768 0.64324 0.0
C937 C 0.66017 0.23631 0.6424 0.0
C938 C 0.67477 0.26166 0.64192 0.0
C939 C 0.73695 0.29301 0.64242 0.0
C940 C 0.78433 0.29885 0.64299 0.0
C941 C 0.72196 0.26757 0.64247 0.0
C942 C 0.81653 0.27886 0.6434 0.0
C943 C 0.8019 0.25355 0.64356 0.0
H944 H 0.28549 0.71534 0.8778 0.0
H945 H 0.22968 0.69724 0.81104 0.0
H946 H 0.19205 0.73866 0.80944 0.0
H947 H 0.17552 0.78017 0.8267 0.0
H948 H 0.23478 0.79933 0.89247 0.0
H949 H 0.27007 0.75731 0.89478 0.0
C950 C 0.26551 0.72053 0.86278 0.0
C951 C 0.26047 0.70309 0.84459 0.0
C952 C 0.24428 0.74455 0.86183 0.0
C953 C 0.23369 0.71007 0.82546 0.0
C954 C 0.21232 0.73384 0.82445 0.0
C955 C 0.19647 0.7753 0.84147 0.0
C956 C 0.20234 0.79302 0.85937 0.0
C957 C 0.21745 0.75125 0.84251 0.0
C958 C 0.22894 0.78604 0.87857 0.0
C959 C 0.24954 0.76204 0.87983 0.0
loop_
_geom_bond_atom_site_label_1
_geom_bond_atom_site_label_2
_geom_bond_distance
_geom_bond_site_symmetry_2
_ccdc_geom_bond_type
Li0 N17 1.990 . S
Li0 O60 1.956 . S
Li0 O61 1.970 . S
Li0 O62 1.961 . S
Li1 N25 1.990 . S
Li1 O60 1.970 . S
Li1 O61 1.956 . S
Li1 O63 1.961 . S
Li2 N47 1.990 . S
Li2 O60 1.961 . S
Li2 O62 1.956 . S
Li2 O63 1.970 . S
Li3 N53 1.990 . S
Li3 O61 1.961 . S
Li3 O62 1.970 . S
Li3 O63 1.956 . S
C4 C6 1.348 . S
C4 C7 1.356 . S
C4 O60 1.325 . S
N5 C8 1.314 . S
N5 C9 1.279 . S
C6 C4 1.348 . S
C6 C8 1.353 1_455 S
C6 H64 0.929 . S
C7 C4 1.356 . S
C7 C9 1.358 1_455 S
C7 H65 0.930 . S
C8 N5 1.314 . S
C8 C6 1.353 1_655 S
C8 H66 0.930 . S
C9 N5 1.279 . S
C9 C7 1.358 1_655 S
C9 H67 0.930 . S
C10 C13 1.348 . S
C10 C14 1.356 . S
C10 O61 1.325 . S
C11 N12 1.279 . S
C11 C14 1.358 . S
C11 H68 0.930 . S
N12 C11 1.279 . S
N12 C15 1.314 . S
C13 C10 1.348 . S
C13 C15 1.353 . S
C13 H69 0.929 . S
C14 C10 1.356 . S
C14 C11 1.358 . S
C14 H70 0.930 . S
C15 N12 1.314 . S
C15 C13 1.353 . S
C15 H71 0.930 . S
C16 N17 1.314 . S
C16 C21 1.353 1_455 S
C16 H22 0.930 . S
N17 Li0 1.990 . S
N17 C16 1.314 . S
N17 C19 1.279 1_455 S
C18 C19 1.358 . S
C18 C20 1.356 . S
C18 H72 0.930 . S
C19 N17 1.279 1_655 S
C19 C18 1.358 . S
C19 H23 0.930 . S
C20 C18 1.356 . S
C20 C21 1.348 . S
C21 C16 1.353 1_655 S
C21 C20 1.348 . S
C21 H73 0.929 . S
H22 C16 0.930 . S
H23 C19 0.930 . S
C24 N25 1.314 . S
C24 C26 1.353 . S
C24 H30 0.930 . S
N25 Li1 1.990 . S
N25 C24 1.314 . S
N25 C28 1.279 . S
C26 C24 1.353 . S
C26 C29 1.348 . S
C26 H74 0.929 . S
C27 C28 1.358 . S
C27 C29 1.356 . S
C27 H75 0.930 . S
C28 N25 1.279 . S
C28 C27 1.358 . S
C28 H31 0.930 . S
C29 C26 1.348 . S
C29 C27 1.356 . S
H30 C24 0.930 . S
H31 C28 0.930 . S
C32 C34 1.348 . S
C32 C35 1.356 . S
C32 O62 1.325 . S
N33 C36 1.314 . S
N33 C37 1.279 . S
C34 C32 1.348 . S
C34 C36 1.353 . S
C34 H76 0.929 . S
C35 C32 1.356 . S
C35 C37 1.358 . S
C35 H77 0.930 . S
C36 N33 1.314 . S
C36 C34 1.353 . S
C36 H78 0.930 . S
C37 N33 1.279 . S
C37 C35 1.358 . S
C37 H79 0.930 . S
C38 C39 1.348 . S
C38 C40 1.356 . S
C38 O63 1.325 . S
C39 C38 1.348 . S
C39 C41 1.353 . S
C39 H80 0.929 . S
C40 C38 1.356 . S
C40 C42 1.358 . S
C40 H81 0.930 . S
C41 C39 1.353 . S
C41 N43 1.314 . S
C41 H82 0.930 . S
C42 C40 1.358 . S
C42 N43 1.279 . S
C42 H83 0.930 . S
N43 C41 1.314 . S
N43 C42 1.279 . S
C44 C46 1.353 . S
C44 N47 1.314 . S
C44 H50 0.930 . S
C45 N47 1.279 . S
C45 C48 1.358 . S
C45 H51 0.930 . S
C46 C44 1.353 . S
C46 C49 1.348 . S
C46 H84 0.929 . S
N47 Li2 1.990 . S
N47 C44 1.314 . S
N47 C45 1.279 . S
C48 C45 1.358 . S
C48 C49 1.356 . S
C48 H85 0.930 . S
C49 C46 1.348 . S
C49 C48 1.356 . S
H50 C44 0.930 . S
H51 C45 0.930 . S
C52 N53 1.314 . S
C52 C54 1.353 . S
C52 H58 0.930 . S
N53 Li3 1.990 . S
N53 C52 1.314 . S
N53 C56 1.279 . S
C54 C52 1.353 . S
C54 C57 1.348 . S
C54 H86 0.929 . S
C55 C56 1.358 . S
C55 C57 1.356 . S
C55 H87 0.930 . S
C56 N53 1.279 . S
C56 C55 1.358 . S
C56 H59 0.930 . S
C57 C54 1.348 . S
C57 C55 1.356 . S
H58 C52 0.930 . S
H59 C56 0.930 . S
O60 Li0 1.956 . S
O60 Li1 1.970 . S
O60 Li2 1.961 . S
O60 C4 1.325 . S
O61 Li0 1.970 . S
O61 Li1 1.956 . S
O61 Li3 1.961 . S
O61 C10 1.325 . S
O62 Li0 1.961 . S
O62 Li2 1.956 . S
O62 Li3 1.970 . S
O62 C32 1.325 . S
O63 Li1 1.961 . S
O63 Li2 1.970 . S
O63 Li3 1.956 . S
O63 C38 1.325 . S
H64 C6 0.929 . S
H65 C7 0.930 . S
H66 C8 0.930 . S
H67 C9 0.930 . S
H68 C11 0.930 . S
H69 C13 0.929 . S
H70 C14 0.930 . S
H71 C15 0.930 . S
H72 C18 0.930 . S
H73 C21 0.929 . S
H74 C26 0.929 . S
H75 C27 0.930 . S
H76 C34 0.929 . S
H77 C35 0.930 . S
H78 C36 0.930 . S
H79 C37 0.930 . S
H80 C39 0.929 . S
H81 C40 0.930 . S
H82 C41 0.930 . S
H83 C42 0.930 . S
H84 C46 0.929 . S
H85 C48 0.930 . S
H86 C54 0.929 . S
H87 C55 0.930 . S
Li88 N105 1.990 . S
Li88 O148 1.956 . S
Li88 O149 1.970 . S
Li88 O150 1.961 . S
Li89 N113 1.990 . S
Li89 O148 1.970 . S
Li89 O149 1.956 . S
Li89 O151 1.961 . S
Li90 N135 1.990 . S
Li90 O148 1.961 . S
Li90 O150 1.956 . S
Li90 O151 1.970 . S
Li91 N141 1.990 . S
Li91 O149 1.961 . S
Li91 O150 1.970 . S
Li91 O151 1.956 . S
C92 C94 1.348 . S
C92 C95 1.356 . S
C92 O148 1.325 . S
N93 C96 1.314 . S
N93 C97 1.279 . S
C94 C92 1.348 . S
C94 C96 1.353 . S
C94 H152 0.929 . S
C95 C92 1.356 . S
C95 C97 1.358 . S
C95 H153 0.930 . S
C96 N93 1.314 . S
C96 C94 1.353 . S
C96 H154 0.930 . S
C97 N93 1.279 . S
C97 C95 1.358 . S
C97 H155 0.930 . S
C98 C101 1.348 . S
C98 C102 1.356 . S
C98 O149 1.325 . S
C99 N100 1.279 . S
C99 C102 1.358 . S
C99 H156 0.930 . S
N100 C99 1.279 . S
N100 C103 1.314 . S
C101 C98 1.348 . S
C101 C103 1.353 . S
C101 H157 0.929 . S
C102 C98 1.356 . S
C102 C99 1.358 . S
C102 H158 0.930 . S
C103 N100 1.314 . S
C103 C101 1.353 . S
C103 H159 0.930 . S
C104 N105 1.314 . S
C104 C109 1.353 . S
C104 H110 0.930 . S
N105 Li88 1.990 . S
N105 C104 1.314 . S
N105 C107 1.279 . S
C106 C107 1.358 . S
C106 C108 1.356 . S
C106 H160 0.930 . S
C107 N105 1.279 . S
C107 C106 1.358 . S
C107 H111 0.930 . S
C108 C106 1.356 . S
C108 C109 1.348 . S
C109 C104 1.353 . S
C109 C108 1.348 . S
C109 H161 0.929 1_565 S
H110 C104 0.930 . S
H111 C107 0.930 . S
C112 N113 1.314 . S
C112 C114 1.353 . S
C112 H118 0.930 . S
N113 Li89 1.990 . S
N113 C112 1.314 . S
N113 C116 1.279 . S
C114 C112 1.353 . S
C114 C117 1.348 . S
C114 H162 0.929 . S
C115 C116 1.358 . S
C115 C117 1.356 . S
C115 H163 0.930 . S
C116 N113 1.279 . S
C116 C115 1.358 . S
C116 H119 0.930 . S
C117 C114 1.348 . S
C117 C115 1.356 . S
H118 C112 0.930 . S
H119 C116 0.930 . S
C120 C122 1.348 1_565 S
C120 C123 1.356 1_565 S
C120 O150 1.325 . S
N121 C124 1.314 . S
N121 C125 1.279 . S
C122 C120 1.348 1_545 S
C122 C124 1.353 . S
C122 H164 0.929 1_545 S
C123 C120 1.356 1_545 S
C123 C125 1.358 . S
C123 H165 0.930 . S
C124 N121 1.314 . S
C124 C122 1.353 . S
C124 H166 0.930 . S
C125 N121 1.279 . S
C125 C123 1.358 . S
C125 H167 0.930 . S
C126 C127 1.348 . S
C126 C128 1.356 . S
C126 O151 1.325 . S
C127 C126 1.348 . S
C127 C129 1.353 . S
C127 H168 0.929 . S
C128 C126 1.356 . S
C128 C130 1.358 . S
C128 H169 0.930 . S
C129 C127 1.353 . S
C129 N131 1.314 . S
C129 H170 0.930 . S
C130 C128 1.358 . S
C130 N131 1.279 . S
C130 H171 0.930 . S
N131 C129 1.314 . S
N131 C130 1.279 . S
C132 C134 1.353 . S
C132 N135 1.314 . S
C132 H138 0.930 . S
C133 N135 1.279 . S
C133 C136 1.358 . S
C133 H139 0.930 . S
C134 C132 1.353 . S
C134 C137 1.348 . S
C134 H172 0.929 . S
N135 Li90 1.990 . S
N135 C132 1.314 . S
N135 C133 1.279 . S
C136 C133 1.358 . S
C136 C137 1.356 . S
C136 H173 0.930 1_565 S
C137 C134 1.348 . S
C137 C136 1.356 . S
H138 C132 0.930 . S
H139 C133 0.930 . S
C140 N141 1.314 . S
C140 C142 1.353 . S
C140 H146 0.930 . S
N141 Li91 1.990 . S
N141 C140 1.314 . S
N141 C144 1.279 . S
C142 C140 1.353 . S
C142 C145 1.348 . S
C142 H174 0.929 . S
C143 C144 1.358 . S
C143 C145 1.356 . S
C143 H175 0.930 . S
C144 N141 1.279 . S
C144 C143 1.358 . S
C144 H147 0.930 . S
C145 C142 1.348 . S
C145 C143 1.356 . S
H146 C140 0.930 . S
H147 C144 0.930 . S
O148 Li88 1.956 . S
O148 Li89 1.970 . S
O148 Li90 1.961 . S
O148 C92 1.325 . S
O149 Li88 1.970 . S
O149 Li89 1.956 . S
O149 Li91 1.961 . S
O149 C98 1.325 . S
O150 Li88 1.961 . S
O150 Li90 1.956 . S
O150 Li91 1.970 . S
O150 C120 1.325 . S
O151 Li89 1.961 . S
O151 Li90 1.970 . S
O151 Li91 1.956 . S
O151 C126 1.325 . S
H152 C94 0.929 . S
H153 C95 0.930 . S
H154 C96 0.930 . S
H155 C97 0.930 . S
H156 C99 0.930 . S
H157 C101 0.929 . S
H158 C102 0.930 . S
H159 C103 0.930 . S
H160 C106 0.930 . S
H161 C109 0.929 1_545 S
H162 C114 0.929 . S
H163 C115 0.930 . S
H164 C122 0.929 1_565 S
H165 C123 0.930 . S
H166 C124 0.930 . S
H167 C125 0.930 . S
H168 C127 0.929 . S
H169 C128 0.930 . S
H170 C129 0.930 . S
H171 C130 0.930 . S
H172 C134 0.929 . S
H173 C136 0.930 1_545 S
H174 C142 0.929 . S
H175 C143 0.930 . S
Li176 N193 1.990 . S
Li176 O236 1.956 . S
Li176 O237 1.970 . S
Li176 O238 1.961 . S
Li177 N201 1.990 . S
Li177 O236 1.970 . S
Li177 O237 1.956 . S
Li177 O239 1.961 . S
Li178 N223 1.990 . S
Li178 O236 1.961 . S
Li178 O238 1.956 . S
Li178 O239 1.970 . S
Li179 N229 1.990 . S
Li179 O237 1.961 . S
Li179 O238 1.970 . S
Li179 O239 1.956 . S
C180 C182 1.348 . S
C180 C183 1.356 . S
C180 O236 1.325 . S
N181 C184 1.314 . S
N181 C185 1.279 . S
C182 C180 1.348 . S
C182 C184 1.353 . S
C182 H240 0.929 . S
C183 C180 1.356 . S
C183 C185 1.358 . S
C183 H241 0.930 . S
C184 N181 1.314 . S
C184 C182 1.353 . S
C184 H242 0.930 . S
C185 N181 1.279 . S
C185 C183 1.358 . S
C185 H243 0.930 . S
C186 C189 1.348 . S
C186 C190 1.356 . S
C186 O237 1.325 . S
C187 N188 1.279 . S
C187 C190 1.358 . S
C187 H244 0.930 . S
N188 C187 1.279 . S
N188 C191 1.314 . S
C189 C186 1.348 . S
C189 C191 1.353 . S
C189 H245 0.929 . S
C190 C186 1.356 . S
C190 C187 1.358 . S
C190 H246 0.930 . S
C191 N188 1.314 . S
C191 C189 1.353 . S
C191 H247 0.930 . S
C192 N193 1.314 . S
C192 C197 1.353 . S
C192 H198 0.930 . S
N193 Li176 1.990 . S
N193 C192 1.314 . S
N193 C195 1.279 . S
C194 C195 1.358 . S
C194 C196 1.356 . S
C194 H248 0.930 . S
C195 N193 1.279 . S
C195 C194 1.358 . S
C195 H199 0.930 . S
C196 C194 1.356 . S
C196 C197 1.348 . S
C197 C192 1.353 . S
C197 C196 1.348 . S
C197 H249 0.929 . S
H198 C192 0.930 . S
H199 C195 0.930 . S
C200 N201 1.314 . S
C200 C202 1.353 . S
C200 H206 0.930 . S
N201 Li177 1.990 . S
N201 C200 1.314 . S
N201 C204 1.279 . S
C202 C200 1.353 . S
C202 C205 1.348 . S
C202 H250 0.929 . S
C203 C204 1.358 . S
C203 C205 1.356 . S
C203 H251 0.930 . S
C204 N201 1.279 . S
C204 C203 1.358 . S
C204 H207 0.930 . S
C205 C202 1.348 . S
C205 C203 1.356 . S
H206 C200 0.930 . S
H207 C204 0.930 . S
C208 C210 1.348 . S
C208 C211 1.356 . S
C208 O238 1.325 . S
N209 C212 1.314 . S
N209 C213 1.279 . S
C210 C208 1.348 . S
C210 C212 1.353 . S
C210 H252 0.929 . S
C211 C208 1.356 . S
C211 C213 1.358 . S
C211 H253 0.930 . S
C212 N209 1.314 . S
C212 C210 1.353 . S
C212 H254 0.930 . S
C213 N209 1.279 . S
C213 C211 1.358 . S
C213 H255 0.930 . S
C214 C215 1.348 . S
C214 C216 1.356 . S
C214 O239 1.325 . S
C215 C214 1.348 . S
C215 C217 1.353 . S
C215 H256 0.929 . S
C216 C214 1.356 . S
C216 C218 1.358 . S
C216 H257 0.930 . S
C217 C215 1.353 . S
C217 N219 1.314 . S
C217 H258 0.930 . S
C218 C216 1.358 . S
C218 N219 1.279 . S
C218 H259 0.930 . S
N219 C217 1.314 . S
N219 C218 1.279 . S
C220 C222 1.353 . S
C220 N223 1.314 . S
C220 H226 0.930 . S
C221 N223 1.279 . S
C221 C224 1.358 . S
C221 H227 0.930 . S
C222 C220 1.353 . S
C222 C225 1.348 . S
C222 H260 0.929 . S
N223 Li178 1.990 . S
N223 C220 1.314 . S
N223 C221 1.279 . S
C224 C221 1.358 . S
C224 C225 1.356 . S
C224 H261 0.930 . S
C225 C222 1.348 . S
C225 C224 1.356 . S
H226 C220 0.930 . S
H227 C221 0.930 . S
C228 N229 1.314 . S
C228 C230 1.353 . S
C228 H234 0.930 . S
N229 Li179 1.990 . S
N229 C228 1.314 . S
N229 C232 1.279 . S
C230 C228 1.353 . S
C230 C233 1.348 . S
C230 H262 0.929 . S
C231 C232 1.358 . S
C231 C233 1.356 . S
C231 H263 0.930 . S
C232 N229 1.279 . S
C232 C231 1.358 . S
C232 H235 0.930 . S
C233 C230 1.348 . S
C233 C231 1.356 . S
H234 C228 0.930 . S
H235 C232 0.930 . S
O236 Li176 1.956 . S
O236 Li177 1.970 . S
O236 Li178 1.961 . S
O236 C180 1.325 . S
O237 Li176 1.970 . S
O237 Li177 1.956 . S
O237 Li179 1.961 . S
O237 C186 1.325 . S
O238 Li176 1.961 . S
O238 Li178 1.956 . S
O238 Li179 1.970 . S
O238 C208 1.325 . S
O239 Li177 1.961 . S
O239 Li178 1.970 . S
O239 Li179 1.956 . S
O239 C214 1.325 . S
H240 C182 0.929 . S
H241 C183 0.930 . S
H242 C184 0.930 . S
H243 C185 0.930 . S
H244 C187 0.930 . S
H245 C189 0.929 . S
H246 C190 0.930 . S
H247 C191 0.930 . S
H248 C194 0.930 . S
H249 C197 0.929 . S
H250 C202 0.929 . S
H251 C203 0.930 . S
H252 C210 0.929 . S
H253 C211 0.930 . S
H254 C212 0.930 . S
H255 C213 0.930 . S
H256 C215 0.929 . S
H257 C216 0.930 . S
H258 C217 0.930 . S
H259 C218 0.930 . S
H260 C222 0.929 . S
H261 C224 0.930 . S
H262 C230 0.929 . S
H263 C231 0.930 . S
Li264 N281 1.990 . S
Li264 O324 1.956 . S
Li264 O325 1.970 . S
Li264 O326 1.961 . S
Li265 N289 1.990 . S
Li265 O324 1.970 . S
Li265 O325 1.956 . S
Li265 O327 1.961 . S
Li266 N311 1.990 . S
Li266 O324 1.961 . S
Li266 O326 1.956 . S
Li266 O327 1.970 . S
Li267 N317 1.990 . S
Li267 O325 1.961 . S
Li267 O326 1.970 . S
Li267 O327 1.956 . S
C268 C270 1.348 . S
C268 C271 1.356 . S
C268 O324 1.325 . S
N269 C272 1.314 . S
N269 C273 1.279 . S
C270 C268 1.348 . S
C270 C272 1.353 . S
C270 H328 0.929 . S
C271 C268 1.356 . S
C271 C273 1.358 . S
C271 H329 0.930 . S
C272 N269 1.314 . S
C272 C270 1.353 . S
C272 H330 0.930 . S
C273 N269 1.279 . S
C273 C271 1.358 . S
C273 H331 0.930 . S
C274 C277 1.348 . S
C274 C278 1.356 . S
C274 O325 1.325 . S
C275 N276 1.279 . S
C275 C278 1.358 . S
C275 H332 0.930 . S
N276 C275 1.279 . S
N276 C279 1.314 . S
C277 C274 1.348 . S
C277 C279 1.353 . S
C277 H333 0.929 . S
C278 C274 1.356 . S
C278 C275 1.358 . S
C278 H334 0.930 . S
C279 N276 1.314 . S
C279 C277 1.353 . S
C279 H335 0.930 . S
C280 N281 1.314 . S
C280 C285 1.353 . S
C280 H286 0.930 . S
N281 Li264 1.990 . S
N281 C280 1.314 . S
N281 C283 1.279 . S
C282 C283 1.358 . S
C282 C284 1.356 . S
C282 H336 0.930 . S
C283 N281 1.279 . S
C283 C282 1.358 . S
C283 H287 0.930 . S
C284 C282 1.356 . S
C284 C285 1.348 . S
C285 C280 1.353 . S
C285 C284 1.348 . S
C285 H337 0.929 1_545 S
H286 C280 0.930 . S
H287 C283 0.930 . S
C288 N289 1.314 . S
C288 C290 1.353 . S
C288 H294 0.930 . S
N289 Li265 1.990 . S
N289 C288 1.314 . S
N289 C292 1.279 . S
C290 C288 1.353 . S
C290 C293 1.348 . S
C290 H338 0.929 . S
C291 C292 1.358 . S
C291 C293 1.356 . S
C291 H339 0.930 . S
C292 N289 1.279 . S
C292 C291 1.358 . S
C292 H295 0.930 . S
C293 C290 1.348 . S
C293 C291 1.356 . S
H294 C288 0.930 . S
H295 C292 0.930 . S
C296 C298 1.348 1_545 S
C296 C299 1.356 1_545 S
C296 O326 1.325 . S
N297 C300 1.314 . S
N297 C301 1.279 . S
C298 C296 1.348 1_565 S
C298 C300 1.353 . S
C298 H340 0.929 1_565 S
C299 C296 1.356 1_565 S
C299 C301 1.358 . S
C299 H341 0.930 . S
C300 N297 1.314 . S
C300 C298 1.353 . S
C300 H342 0.930 . S
C301 N297 1.279 . S
C301 C299 1.358 . S
C301 H343 0.930 . S
C302 C303 1.348 . S
C302 C304 1.356 . S
C302 O327 1.325 . S
C303 C302 1.348 . S
C303 C305 1.353 1_655 S
C303 H344 0.929 . S
C304 C302 1.356 . S
C304 C306 1.358 1_655 S
C304 H345 0.930 . S
C305 C303 1.353 1_455 S
C305 N307 1.314 . S
C305 H346 0.930 . S
C306 C304 1.358 1_455 S
C306 N307 1.279 . S
C306 H347 0.930 . S
N307 C305 1.314 . S
N307 C306 1.279 . S
C308 C310 1.353 . S
C308 N311 1.314 . S
C308 H314 0.930 . S
C309 N311 1.279 . S
C309 C312 1.358 . S
C309 H315 0.930 . S
C310 C308 1.353 . S
C310 C313 1.348 . S
C310 H348 0.929 . S
N311 Li266 1.990 . S
N311 C308 1.314 . S
N311 C309 1.279 . S
C312 C309 1.358 . S
C312 C313 1.356 . S
C312 H349 0.930 1_545 S
C313 C310 1.348 . S
C313 C312 1.356 . S
H314 C308 0.930 . S
H315 C309 0.930 . S
C316 N317 1.314 . S
C316 C318 1.353 1_655 S
C316 H322 0.930 . S
N317 Li267 1.990 . S
N317 C316 1.314 . S
N317 C320 1.279 1_655 S
C318 C316 1.353 1_455 S
C318 C321 1.348 . S
C318 H350 0.929 . S
C319 C320 1.358 . S
C319 C321 1.356 . S
C319 H351 0.930 . S
C320 N317 1.279 1_455 S
C320 C319 1.358 . S
C320 H323 0.930 . S
C321 C318 1.348 . S
C321 C319 1.356 . S
H322 C316 0.930 . S
H323 C320 0.930 . S
O324 Li264 1.956 . S
O324 Li265 1.970 . S
O324 Li266 1.961 . S
O324 C268 1.325 . S
O325 Li264 1.970 . S
O325 Li265 1.956 . S
O325 Li267 1.961 . S
O325 C274 1.325 . S
O326 Li264 1.961 . S
O326 Li266 1.956 . S
O326 Li267 1.970 . S
O326 C296 1.325 . S
O327 Li265 1.961 . S
O327 Li266 1.970 . S
O327 Li267 1.956 . S
O327 C302 1.325 . S
H328 C270 0.929 . S
H329 C271 0.930 . S
H330 C272 0.930 . S
H331 C273 0.930 . S
H332 C275 0.930 . S
H333 C277 0.929 . S
H334 C278 0.930 . S
H335 C279 0.930 . S
H336 C282 0.930 . S
H337 C285 0.929 1_565 S
H338 C290 0.929 . S
H339 C291 0.930 . S
H340 C298 0.929 1_545 S
H341 C299 0.930 . S
H342 C300 0.930 . S
H343 C301 0.930 . S
H344 C303 0.929 . S
H345 C304 0.930 . S
H346 C305 0.930 . S
H347 C306 0.930 . S
H348 C310 0.929 . S
H349 C312 0.930 1_565 S
H350 C318 0.929 . S
H351 C319 0.930 . S
Li352 N369 1.990 . S
Li352 O412 1.956 . S
Li352 O413 1.970 . S
Li352 O414 1.961 . S
Li353 N377 1.990 . S
Li353 O412 1.970 . S
Li353 O413 1.956 . S
Li353 O415 1.961 . S
Li354 N399 1.990 . S
Li354 O412 1.961 . S
Li354 O414 1.956 . S
Li354 O415 1.970 . S
Li355 N405 1.990 . S
Li355 O413 1.961 . S
Li355 O414 1.970 . S
Li355 O415 1.956 . S
C356 C358 1.348 . S
C356 C359 1.356 . S
C356 O412 1.325 . S
N357 C360 1.314 . S
N357 C361 1.279 . S
C358 C356 1.348 . S
C358 C360 1.353 . S
C358 H416 0.929 . S
C359 C356 1.356 . S
C359 C361 1.358 . S
C359 H417 0.930 . S
C360 N357 1.314 . S
C360 C358 1.353 . S
C360 H418 0.930 . S
C361 N357 1.279 . S
C361 C359 1.358 . S
C361 H419 0.930 . S
C362 C365 1.348 . S
C362 C366 1.356 . S
C362 O413 1.325 . S
C363 N364 1.279 . S
C363 C366 1.358 . S
C363 H420 0.930 . S
N364 C363 1.279 . S
N364 C367 1.314 . S
C365 C362 1.348 . S
C365 C367 1.353 . S
C365 H421 0.929 . S
C366 C362 1.356 . S
C366 C363 1.358 . S
C366 H422 0.930 . S
C367 N364 1.314 . S
C367 C365 1.353 . S
C367 H423 0.930 . S
C368 N369 1.314 . S
C368 C373 1.353 . S
C368 H374 0.930 . S
N369 Li352 1.990 . S
N369 C368 1.314 . S
N369 C371 1.279 . S
C370 C371 1.358 . S
C370 C372 1.356 . S
C370 H424 0.930 . S
C371 N369 1.279 . S
C371 C370 1.358 . S
C371 H375 0.930 . S
C372 C370 1.356 . S
C372 C373 1.348 . S
C373 C368 1.353 . S
C373 C372 1.348 . S
C373 H425 0.929 . S
H374 C368 0.930 . S
H375 C371 0.930 . S
C376 N377 1.314 1_455 S
C376 C378 1.353 . S
C376 H382 0.930 . S
N377 Li353 1.990 . S
N377 C376 1.314 1_655 S
N377 C380 1.279 . S
C378 C376 1.353 . S
C378 C381 1.348 . S
C378 H426 0.929 . S
C379 C380 1.358 1_455 S
C379 C381 1.356 . S
C379 H427 0.930 . S
C380 N377 1.279 . S
C380 C379 1.358 1_655 S
C380 H383 0.930 . S
C381 C378 1.348 . S
C381 C379 1.356 . S
H382 C376 0.930 . S
H383 C380 0.930 . S
C384 C386 1.348 . S
C384 C387 1.356 . S
C384 O414 1.325 . S
N385 C388 1.314 . S
N385 C389 1.279 . S
C386 C384 1.348 . S
C386 C388 1.353 . S
C386 H428 0.929 . S
C387 C384 1.356 . S
C387 C389 1.358 . S
C387 H429 0.930 . S
C388 N385 1.314 . S
C388 C386 1.353 . S
C388 H430 0.930 . S
C389 N385 1.279 . S
C389 C387 1.358 . S
C389 H431 0.930 . S
C390 C391 1.348 . S
C390 C392 1.356 . S
C390 O415 1.325 . S
C391 C390 1.348 . S
C391 C393 1.353 1_655 S
C391 H432 0.929 . S
C392 C390 1.356 . S
C392 C394 1.358 1_655 S
C392 H433 0.930 . S
C393 C391 1.353 1_455 S
C393 N395 1.314 . S
C393 H434 0.930 . S
C394 C392 1.358 1_455 S
C394 N395 1.279 . S
C394 H435 0.930 . S
N395 C393 1.314 . S
N395 C394 1.279 . S
C396 C398 1.353 . S
C396 N399 1.314 . S
C396 H402 0.930 . S
C397 N399 1.279 . S
C397 C400 1.358 . S
C397 H403 0.930 . S
C398 C396 1.353 . S
C398 C401 1.348 . S
C398 H436 0.929 . S
N399 Li354 1.990 . S
N399 C396 1.314 . S
N399 C397 1.279 . S
C400 C397 1.358 . S
C400 C401 1.356 . S
C400 H437 0.930 . S
C401 C398 1.348 . S
C401 C400 1.356 . S
H402 C396 0.930 . S
H403 C397 0.930 . S
C404 N405 1.314 . S
C404 C406 1.353 . S
C404 H410 0.930 . S
N405 Li355 1.990 . S
N405 C404 1.314 . S
N405 C408 1.279 . S
C406 C404 1.353 . S
C406 C409 1.348 . S
C406 H438 0.929 . S
C407 C408 1.358 . S
C407 C409 1.356 . S
C407 H439 0.930 . S
C408 N405 1.279 . S
C408 C407 1.358 . S
C408 H411 0.930 . S
C409 C406 1.348 . S
C409 C407 1.356 . S
H410 C404 0.930 . S
H411 C408 0.930 . S
O412 Li352 1.956 . S
O412 Li353 1.970 . S
O412 Li354 1.961 . S
O412 C356 1.325 . S
O413 Li352 1.970 . S
O413 Li353 1.956 . S
O413 Li355 1.961 . S
O413 C362 1.325 . S
O414 Li352 1.961 . S
O414 Li354 1.956 . S
O414 Li355 1.970 . S
O414 C384 1.325 . S
O415 Li353 1.961 . S
O415 Li354 1.970 . S
O415 Li355 1.956 . S
O415 C390 1.325 . S
H416 C358 0.929 . S
H417 C359 0.930 . S
H418 C360 0.930 . S
H419 C361 0.930 . S
H420 C363 0.930 . S
H421 C365 0.929 . S
H422 C366 0.930 . S
H423 C367 0.930 . S
H424 C370 0.930 . S
H425 C373 0.929 . S
H426 C378 0.929 . S
H427 C379 0.930 . S
H428 C386 0.929 . S
H429 C387 0.930 . S
H430 C388 0.930 . S
H431 C389 0.930 . S
H432 C391 0.929 . S
H433 C392 0.930 . S
H434 C393 0.930 . S
H435 C394 0.930 . S
H436 C398 0.929 . S
H437 C400 0.930 . S
H438 C406 0.929 . S
H439 C407 0.930 . S
Li440 N457 1.990 . S
Li440 O500 1.956 . S
Li440 O501 1.970 . S
Li440 O502 1.961 . S
Li441 N465 1.990 . S
Li441 O500 1.970 . S
Li441 O501 1.956 . S
Li441 O503 1.961 . S
Li442 N487 1.990 . S
Li442 O500 1.961 . S
Li442 O502 1.956 . S
Li442 O503 1.970 . S
Li443 N493 1.990 . S
Li443 O501 1.961 . S
Li443 O502 1.970 . S
Li443 O503 1.956 . S
C444 C446 1.348 . S
C444 C447 1.356 . S
C444 O500 1.325 . S
N445 C448 1.314 . S
N445 C449 1.279 . S
C446 C444 1.348 . S
C446 C448 1.353 . S
C446 H504 0.929 . S
C447 C444 1.356 . S
C447 C449 1.358 . S
C447 H505 0.930 . S
C448 N445 1.314 . S
C448 C446 1.353 . S
C448 H506 0.930 . S
C449 N445 1.279 . S
C449 C447 1.358 . S
C449 H507 0.930 . S
C450 C453 1.348 1_545 S
C450 C454 1.356 1_545 S
C450 O501 1.325 . S
C451 N452 1.279 . S
C451 C454 1.358 . S
C451 H508 0.930 . S
N452 C451 1.279 . S
N452 C455 1.314 . S
C453 C450 1.348 1_565 S
C453 C455 1.353 . S
C453 H509 0.929 1_565 S
C454 C450 1.356 1_565 S
C454 C451 1.358 . S
C454 H510 0.930 . S
C455 N452 1.314 . S
C455 C453 1.353 . S
C455 H511 0.930 . S
C456 N457 1.314 . S
C456 C461 1.353 . S
C456 H462 0.930 . S
N457 Li440 1.990 . S
N457 C456 1.314 . S
N457 C459 1.279 . S
C458 C459 1.358 . S
C458 C460 1.356 . S
C458 H512 0.930 . S
C459 N457 1.279 . S
C459 C458 1.358 . S
C459 H463 0.930 . S
C460 C458 1.356 . S
C460 C461 1.348 . S
C461 C456 1.353 . S
C461 C460 1.348 . S
C461 H513 0.929 . S
H462 C456 0.930 . S
H463 C459 0.930 . S
C464 N465 1.314 . S
C464 C466 1.353 . S
C464 H470 0.930 . S
N465 Li441 1.990 . S
N465 C464 1.314 . S
N465 C468 1.279 . S
C466 C464 1.353 . S
C466 C469 1.348 . S
C466 H514 0.929 . S
C467 C468 1.358 1_565 S
C467 C469 1.356 1_565 S
C467 H515 0.930 . S
C468 N465 1.279 . S
C468 C467 1.358 1_545 S
C468 H471 0.915 1_545 S
C469 C466 1.348 . S
C469 C467 1.356 1_545 S
H470 C464 0.930 . S
H471 C468 0.915 1_565 S
C472 C474 1.348 . S
C472 C475 1.356 . S
C472 O502 1.325 . S
N473 C476 1.314 . S
N473 C477 1.279 . S
C474 C472 1.348 . S
C474 C476 1.353 . S
C474 H516 0.929 . S
C475 C472 1.356 . S
C475 C477 1.358 . S
C475 H517 0.930 . S
C476 N473 1.314 . S
C476 C474 1.353 . S
C476 H518 0.930 . S
C477 N473 1.279 . S
C477 C475 1.358 . S
C477 H519 0.930 . S
C478 C479 1.348 . S
C478 C480 1.356 . S
C478 O503 1.325 . S
C479 C478 1.348 . S
C479 C481 1.353 . S
C479 H520 0.929 . S
C480 C478 1.356 . S
C480 C482 1.358 . S
C480 H521 0.930 . S
C481 C479 1.353 . S
C481 N483 1.314 . S
C481 H522 0.930 . S
C482 C480 1.358 . S
C482 N483 1.279 . S
C482 H523 0.930 . S
N483 C481 1.314 . S
N483 C482 1.279 . S
C484 C486 1.353 . S
C484 N487 1.314 . S
C484 H490 0.930 . S
C485 N487 1.279 . S
C485 C488 1.358 . S
C485 H491 0.930 . S
C486 C484 1.353 . S
C486 C489 1.348 . S
C486 H524 0.929 . S
N487 Li442 1.990 . S
N487 C484 1.314 . S
N487 C485 1.279 . S
C488 C485 1.358 . S
C488 C489 1.356 . S
C488 H525 0.930 . S
C489 C486 1.348 . S
C489 C488 1.356 . S
H490 C484 0.930 . S
H491 C485 0.930 . S
C492 N493 1.314 . S
C492 C494 1.353 . S
C492 H498 0.930 . S
N493 Li443 1.990 . S
N493 C492 1.314 . S
N493 C496 1.279 . S
C494 C492 1.353 . S
C494 C497 1.348 . S
C494 H526 0.929 . S
C495 C496 1.358 . S
C495 C497 1.356 . S
C495 H527 0.930 . S
C496 N493 1.279 . S
C496 C495 1.358 . S
C496 H499 0.930 . S
C497 C494 1.348 . S
C497 C495 1.356 . S
H498 C492 0.930 . S
H499 C496 0.930 . S
O500 Li440 1.956 . S
O500 Li441 1.970 . S
O500 Li442 1.961 . S
O500 C444 1.325 . S
O501 Li440 1.970 . S
O501 Li441 1.956 . S
O501 Li443 1.961 . S
O501 C450 1.325 . S
O502 Li440 1.961 . S
O502 Li442 1.956 . S
O502 Li443 1.970 . S
O502 C472 1.325 . S
O503 Li441 1.961 . S
O503 Li442 1.970 . S
O503 Li443 1.956 . S
O503 C478 1.325 . S
H504 C446 0.929 . S
H505 C447 0.930 . S
H506 C448 0.930 . S
H507 C449 0.930 . S
H508 C451 0.930 . S
H509 C453 0.929 1_545 S
H510 C454 0.930 . S
H511 C455 0.930 . S
H512 C458 0.930 . S
H513 C461 0.929 . S
H514 C466 0.929 . S
H515 C467 0.930 . S
H516 C474 0.929 . S
H517 C475 0.930 . S
H518 C476 0.930 . S
H519 C477 0.930 . S
H520 C479 0.929 . S
H521 C480 0.930 . S
H522 C481 0.930 . S
H523 C482 0.930 . S
H524 C486 0.929 . S
H525 C488 0.930 . S
H526 C494 0.929 . S
H527 C495 0.930 . S
Li528 N545 1.990 . S
Li528 O588 1.956 . S
Li528 O589 1.970 . S
Li528 O590 1.961 . S
Li529 N553 1.990 . S
Li529 O588 1.970 . S
Li529 O589 1.956 . S
Li529 O591 1.961 . S
Li530 N575 1.990 . S
Li530 O588 1.961 . S
Li530 O590 1.956 . S
Li530 O591 1.970 . S
Li531 N581 1.990 . S
Li531 O589 1.961 . S
Li531 O590 1.970 . S
Li531 O591 1.956 . S
C532 C534 1.348 . S
C532 C535 1.356 . S
C532 O588 1.325 . S
N533 C536 1.314 . S
N533 C537 1.279 . S
C534 C532 1.348 . S
C534 C536 1.353 . S
C534 H592 0.929 . S
C535 C532 1.356 . S
C535 C537 1.358 . S
C535 H593 0.930 . S
C536 N533 1.314 . S
C536 C534 1.353 . S
C536 H594 0.930 . S
C537 N533 1.279 . S
C537 C535 1.358 . S
C537 H595 0.930 . S
C538 C541 1.348 . S
C538 C542 1.356 . S
C538 O589 1.325 . S
C539 N540 1.279 . S
C539 C542 1.358 . S
C539 H596 0.930 . S
N540 C539 1.279 . S
N540 C543 1.314 . S
C541 C538 1.348 . S
C541 C543 1.353 . S
C541 H597 0.929 . S
C542 C538 1.356 . S
C542 C539 1.358 . S
C542 H598 0.930 . S
C543 N540 1.314 . S
C543 C541 1.353 . S
C543 H599 0.930 . S
C544 N545 1.314 . S
C544 C549 1.353 . S
C544 H550 0.930 . S
N545 Li528 1.990 . S
N545 C544 1.314 . S
N545 C547 1.279 . S
C546 C547 1.358 . S
C546 C548 1.356 . S
C546 H600 0.930 . S
C547 N545 1.279 . S
C547 C546 1.358 . S
C547 H551 0.930 . S
C548 C546 1.356 . S
C548 C549 1.348 . S
C549 C544 1.353 . S
C549 C548 1.348 . S
C549 H601 0.929 . S
H550 C544 0.930 . S
H551 C547 0.930 . S
C552 N553 1.314 . S
C552 C554 1.353 . S
C552 H558 0.930 . S
N553 Li529 1.990 . S
N553 C552 1.314 . S
N553 C556 1.279 . S
C554 C552 1.353 . S
C554 C557 1.348 . S
C554 H602 0.929 . S
C555 C556 1.358 . S
C555 C557 1.356 . S
C555 H603 0.930 . S
C556 N553 1.279 . S
C556 C555 1.358 . S
C556 H559 0.930 . S
C557 C554 1.348 . S
C557 C555 1.356 . S
H558 C552 0.930 . S
H559 C556 0.930 . S
C560 C562 1.348 . S
C560 C563 1.356 . S
C560 O590 1.325 . S
N561 C564 1.314 . S
N561 C565 1.279 . S
C562 C560 1.348 . S
C562 C564 1.353 . S
C562 H604 0.929 . S
C563 C560 1.356 . S
C563 C565 1.358 . S
C563 H605 0.930 . S
C564 N561 1.314 . S
C564 C562 1.353 . S
C564 H606 0.930 . S
C565 N561 1.279 . S
C565 C563 1.358 . S
C565 H607 0.930 . S
C566 C567 1.348 . S
C566 C568 1.356 . S
C566 O591 1.325 . S
C567 C566 1.348 . S
C567 C569 1.353 . S
C567 H608 0.929 . S
C568 C566 1.356 . S
C568 C570 1.358 . S
C568 H609 0.930 . S
C569 C567 1.353 . S
C569 N571 1.314 . S
C569 H610 0.930 . S
C570 C568 1.358 . S
C570 N571 1.279 . S
C570 H611 0.930 . S
N571 C569 1.314 . S
N571 C570 1.279 . S
C572 C574 1.353 . S
C572 N575 1.314 . S
C572 H578 0.930 . S
C573 N575 1.279 . S
C573 C576 1.358 . S
C573 H579 0.930 . S
C574 C572 1.353 . S
C574 C577 1.348 . S
C574 H612 0.929 . S
N575 Li530 1.990 . S
N575 C572 1.314 . S
N575 C573 1.279 . S
C576 C573 1.358 . S
C576 C577 1.356 . S
C576 H613 0.930 . S
C577 C574 1.348 . S
C577 C576 1.356 . S
H578 C572 0.930 . S
H579 C573 0.930 . S
C580 N581 1.314 . S
C580 C582 1.353 . S
C580 H586 0.930 . S
N581 Li531 1.990 . S
N581 C580 1.314 . S
N581 C584 1.279 . S
C582 C580 1.353 . S
C582 C585 1.348 . S
C582 H614 0.929 . S
C583 C584 1.358 . S
C583 C585 1.356 . S
C583 H615 0.930 . S
C584 N581 1.279 . S
C584 C583 1.358 . S
C584 H587 0.930 . S
C585 C582 1.348 . S
C585 C583 1.356 . S
H586 C580 0.930 . S
H587 C584 0.930 . S
O588 Li528 1.956 . S
O588 Li529 1.970 . S
O588 Li530 1.961 . S
O588 C532 1.325 . S
O589 Li528 1.970 . S
O589 Li529 1.956 . S
O589 Li531 1.961 . S
O589 C538 1.325 . S
O590 Li528 1.961 . S
O590 Li530 1.956 . S
O590 Li531 1.970 . S
O590 C560 1.325 . S
O591 Li529 1.961 . S
O591 Li530 1.970 . S
O591 Li531 1.956 . S
O591 C566 1.325 . S
H592 C534 0.929 . S
H593 C535 0.930 . S
H594 C536 0.930 . S
H595 C537 0.930 . S
H596 C539 0.930 . S
H597 C541 0.929 . S
H598 C542 0.930 . S
H599 C543 0.930 . S
H600 C546 0.930 . S
H601 C549 0.929 . S
H602 C554 0.929 . S
H603 C555 0.930 . S
H604 C562 0.929 . S
H605 C563 0.930 . S
H606 C564 0.930 . S
H607 C565 0.930 . S
H608 C567 0.929 . S
H609 C568 0.930 . S
H610 C569 0.930 . S
H611 C570 0.930 . S
H612 C574 0.929 . S
H613 C576 0.930 . S
H614 C582 0.929 . S
H615 C583 0.930 . S
Li616 N633 1.990 . S
Li616 O676 1.956 . S
Li616 O677 1.970 . S
Li616 O678 1.961 . S
Li617 N641 1.990 . S
Li617 O676 1.970 . S
Li617 O677 1.956 . S
Li617 O679 1.961 . S
Li618 N663 1.990 . S
Li618 O676 1.961 . S
Li618 O678 1.956 . S
Li618 O679 1.970 . S
Li619 N669 1.990 . S
Li619 O677 1.961 . S
Li619 O678 1.970 . S
Li619 O679 1.956 . S
C620 C622 1.348 . S
C620 C623 1.356 . S
C620 O676 1.325 . S
N621 C624 1.314 . S
N621 C625 1.279 . S
C622 C620 1.348 . S
C622 C624 1.353 . S
C622 H680 0.929 . S
C623 C620 1.356 . S
C623 C625 1.358 . S
C623 H681 0.930 . S
C624 N621 1.314 . S
C624 C622 1.353 . S
C624 H682 0.930 . S
C625 N621 1.279 . S
C625 C623 1.358 . S
C625 H683 0.930 . S
C626 C629 1.348 . S
C626 C630 1.356 . S
C626 O677 1.325 . S
C627 N628 1.279 . S
C627 C630 1.358 1_655 S
C627 H684 0.930 . S
N628 C627 1.279 . S
N628 C631 1.314 . S
C629 C626 1.348 . S
C629 C631 1.353 1_455 S
C629 H685 0.929 . S
C630 C626 1.356 . S
C630 C627 1.358 1_455 S
C630 H686 0.930 . S
C631 N628 1.314 . S
C631 C629 1.353 1_655 S
C631 H687 0.930 . S
C632 N633 1.314 . S
C632 C637 1.353 . S
C632 H638 0.930 . S
N633 Li616 1.990 . S
N633 C632 1.314 . S
N633 C635 1.279 . S
C634 C635 1.358 . S
C634 C636 1.356 . S
C634 H688 0.930 . S
C635 N633 1.279 . S
C635 C634 1.358 . S
C635 H639 0.930 . S
C636 C634 1.356 . S
C636 C637 1.348 . S
C637 C632 1.353 . S
C637 C636 1.348 . S
C637 H689 0.929 . S
H638 C632 0.930 . S
H639 C635 0.930 . S
C640 N641 1.314 . S
C640 C642 1.353 . S
C640 H646 0.930 . S
N641 Li617 1.990 . S
N641 C640 1.314 . S
N641 C644 1.279 . S
C642 C640 1.353 . S
C642 C645 1.348 . S
C642 H690 0.929 . S
C643 C644 1.358 . S
C643 C645 1.356 . S
C643 H691 0.930 . S
C644 N641 1.279 . S
C644 C643 1.358 . S
C644 H647 0.930 . S
C645 C642 1.348 . S
C645 C643 1.356 . S
H646 C640 0.930 . S
H647 C644 0.930 . S
C648 C650 1.348 1_565 S
C648 C651 1.356 1_565 S
C648 O678 1.325 . S
N649 C652 1.314 . S
N649 C653 1.279 . S
C650 C648 1.348 1_545 S
C650 C652 1.353 . S
C650 H692 0.929 1_545 S
C651 C648 1.356 1_545 S
C651 C653 1.358 . S
C651 H693 0.930 . S
C652 N649 1.314 . S
C652 C650 1.353 . S
C652 H694 0.930 . S
C653 N649 1.279 . S
C653 C651 1.358 . S
C653 H695 0.930 . S
C654 C655 1.348 . S
C654 C656 1.356 . S
C654 O679 1.325 . S
C655 C654 1.348 . S
C655 C657 1.353 . S
C655 H696 0.929 . S
C656 C654 1.356 . S
C656 C658 1.358 . S
C656 H697 0.930 . S
C657 C655 1.353 . S
C657 N659 1.314 . S
C657 H698 0.930 . S
C658 C656 1.358 . S
C658 N659 1.279 . S
C658 H699 0.930 . S
N659 C657 1.314 . S
N659 C658 1.279 . S
C660 C662 1.353 . S
C660 N663 1.314 . S
C660 H666 0.930 . S
C661 N663 1.279 . S
C661 C664 1.358 1_565 S
C661 H667 0.915 1_565 S
C662 C660 1.353 . S
C662 C665 1.348 . S
C662 H700 0.929 . S
N663 Li618 1.990 . S
N663 C660 1.314 . S
N663 C661 1.279 . S
C664 C661 1.358 1_545 S
C664 C665 1.356 1_545 S
C664 H701 0.930 . S
C665 C662 1.348 . S
C665 C664 1.356 1_565 S
H666 C660 0.930 . S
H667 C661 0.915 1_545 S
C668 N669 1.314 1_655 S
C668 C670 1.353 . S
C668 H674 0.930 . S
N669 Li619 1.990 . S
N669 C668 1.314 1_455 S
N669 C672 1.279 . S
C670 C668 1.353 . S
C670 C673 1.348 . S
C670 H702 0.929 . S
C671 C672 1.358 1_655 S
C671 C673 1.356 . S
C671 H703 0.930 . S
C672 N669 1.279 . S
C672 C671 1.358 1_455 S
C672 H675 0.930 . S
C673 C670 1.348 . S
C673 C671 1.356 . S
H674 C668 0.930 . S
H675 C672 0.930 . S
O676 Li616 1.956 . S
O676 Li617 1.970 . S
O676 Li618 1.961 . S
O676 C620 1.325 . S
O677 Li616 1.970 . S
O677 Li617 1.956 . S
O677 Li619 1.961 . S
O677 C626 1.325 . S
O678 Li616 1.961 . S
O678 Li618 1.956 . S
O678 Li619 1.970 . S
O678 C648 1.325 . S
O679 Li617 1.961 . S
O679 Li618 1.970 . S
O679 Li619 1.956 . S
O679 C654 1.325 . S
H680 C622 0.929 . S
H681 C623 0.930 . S
H682 C624 0.930 . S
H683 C625 0.930 . S
H684 C627 0.930 . S
H685 C629 0.929 . S
H686 C630 0.930 . S
H687 C631 0.930 . S
H688 C634 0.930 . S
H689 C637 0.929 . S
H690 C642 0.929 . S
H691 C643 0.930 . S
H692 C650 0.929 1_565 S
H693 C651 0.930 . S
H694 C652 0.930 . S
H695 C653 0.930 . S
H696 C655 0.929 . S
H697 C656 0.930 . S
H698 C657 0.930 . S
H699 C658 0.930 . S
H700 C662 0.929 . S
H701 C664 0.930 . S
H702 C670 0.929 . S
H703 C671 0.930 . S
H704 C710 0.930 . S
H705 C713 0.930 . S
H706 C714 0.930 . S
H707 C715 0.930 . S
H708 C718 0.930 . S
H709 C719 0.930 . S
C710 H704 0.930 . S
C710 C711 1.355 . S
C710 C712 1.415 . S
C711 C710 1.355 . S
C711 C713 1.419 . S
C712 C710 1.415 . S
C712 C717 1.425 . S
C712 C719 1.409 . S
C713 H705 0.930 . S
C713 C711 1.419 . S
C713 C714 1.362 . S
C714 H706 0.930 . S
C714 C713 1.362 . S
C714 C717 1.409 . S
C715 H707 0.930 . S
C715 C716 1.355 . S
C715 C717 1.415 . S
C716 C715 1.355 . S
C716 C718 1.419 . S
C717 C712 1.425 . S
C717 C714 1.409 . S
C717 C715 1.415 . S
C718 H708 0.930 . S
C718 C716 1.419 . S
C718 C719 1.362 . S
C719 H709 0.930 . S
C719 C712 1.409 . S
C719 C718 1.362 . S
H720 C726 0.930 . S
H721 C729 0.930 . S
H722 C730 0.930 . S
H723 C731 0.930 . S
H724 C734 0.930 1_565 S
H725 C735 0.930 . S
C726 H720 0.930 . S
C726 C727 1.355 . S
C726 C728 1.415 . S
C727 C726 1.355 . S
C727 C729 1.419 . S
C728 C726 1.415 . S
C728 C733 1.425 . S
C728 C735 1.409 . S
C729 H721 0.930 . S
C729 C727 1.419 . S
C729 C730 1.362 . S
C730 H722 0.930 . S
C730 C729 1.362 . S
C730 C733 1.409 . S
C731 H723 0.930 . S
C731 C732 1.355 . S
C731 C733 1.415 . S
C732 C731 1.355 . S
C732 C734 1.419 . S
C733 C728 1.425 . S
C733 C730 1.409 . S
C733 C731 1.415 . S
C734 H724 0.930 1_545 S
C734 C732 1.419 . S
C734 C735 1.362 . S
C735 H725 0.930 . S
C735 C728 1.409 . S
C735 C734 1.362 . S
H736 C742 0.930 . S
H737 C745 0.930 . S
H738 C746 0.930 . S
H739 C747 0.930 . S
H740 C750 0.930 . S
H741 C751 0.930 . S
C742 H736 0.930 . S
C742 C743 1.355 . S
C742 C744 1.415 . S
C743 C742 1.355 . S
C743 C745 1.419 . S
C744 C742 1.415 . S
C744 C749 1.425 . S
C744 C751 1.409 . S
C745 H737 0.930 . S
C745 C743 1.419 . S
C745 C746 1.362 . S
C746 H738 0.930 . S
C746 C745 1.362 . S
C746 C749 1.409 . S
C747 H739 0.930 . S
C747 C748 1.355 . S
C747 C749 1.415 . S
C748 C747 1.355 . S
C748 C750 1.419 . S
C749 C744 1.425 . S
C749 C746 1.409 . S
C749 C747 1.415 . S
C750 H740 0.930 . S
C750 C748 1.419 . S
C750 C751 1.362 . S
C751 H741 0.930 . S
C751 C744 1.409 . S
C751 C750 1.362 . S
H752 C758 0.930 . S
H753 C761 0.930 . S
H754 C762 0.930 . S
H755 C763 0.930 . S
H756 C766 0.930 . S
H757 C767 0.930 . S
C758 H752 0.930 . S
C758 C759 1.327 1_565 S
C758 C760 1.415 . S
C759 C758 1.327 1_545 S
C759 C761 1.439 . S
C760 C758 1.415 . S
C760 C765 1.425 . S
C760 C767 1.409 . S
C761 H753 0.930 . S
C761 C759 1.439 . S
C761 C762 1.362 . S
C762 H754 0.930 . S
C762 C761 1.362 . S
C762 C765 1.409 1_545 S
C763 H755 0.930 . S
C763 C764 1.355 . S
C763 C765 1.415 . S
C764 C763 1.355 . S
C764 C766 1.419 . S
C765 C760 1.425 . S
C765 C762 1.409 1_565 S
C765 C763 1.415 . S
C766 H756 0.930 . S
C766 C764 1.419 . S
C766 C767 1.362 . S
C767 H757 0.930 . S
C767 C760 1.409 . S
C767 C766 1.362 . S
H768 C774 0.930 . S
H769 C777 0.930 . S
H770 C778 0.930 . S
H771 C779 0.930 . S
H772 C782 0.930 . S
H773 C783 0.930 . S
C774 H768 0.930 . S
C774 C775 1.355 . S
C774 C776 1.415 . S
C775 C774 1.355 . S
C775 C777 1.419 . S
C776 C774 1.415 . S
C776 C781 1.425 . S
C776 C783 1.409 . S
C777 H769 0.930 . S
C777 C775 1.419 . S
C777 C778 1.362 . S
C778 H770 0.930 . S
C778 C777 1.362 . S
C778 C781 1.409 . S
C779 H771 0.930 . S
C779 C780 1.355 . S
C779 C781 1.415 . S
C780 C779 1.355 . S
C780 C782 1.419 . S
C781 C776 1.425 . S
C781 C778 1.409 . S
C781 C779 1.415 . S
C782 H772 0.930 . S
C782 C780 1.419 . S
C782 C783 1.362 . S
C783 H773 0.930 . S
C783 C776 1.409 . S
C783 C782 1.362 . S
H784 C790 0.930 . S
H785 C793 0.930 . S
H786 C794 0.930 . S
H787 C795 0.930 . S
H788 C798 0.930 . S
H789 C799 0.930 . S
C790 H784 0.930 . S
C790 C791 1.355 1_565 S
C790 C792 1.415 . S
C791 C790 1.355 1_545 S
C791 C793 1.419 . S
C792 C790 1.415 . S
C792 C797 1.425 . S
C792 C799 1.409 . S
C793 H785 0.930 . S
C793 C791 1.419 . S
C793 C794 1.362 . S
C794 H786 0.930 . S
C794 C793 1.362 . S
C794 C797 1.409 1_545 S
C795 H787 0.930 . S
C795 C796 1.355 . S
C795 C797 1.415 . S
C796 C795 1.355 . S
C796 C798 1.419 . S
C797 C792 1.425 . S
C797 C794 1.409 1_565 S
C797 C795 1.415 . S
C798 H788 0.930 . S
C798 C796 1.419 . S
C798 C799 1.362 . S
C799 H789 0.930 . S
C799 C792 1.409 . S
C799 C798 1.362 . S
H800 C806 0.930 . S
H801 C809 0.930 . S
H802 C810 0.930 . S
H803 C811 0.930 . S
H804 C814 0.930 . S
H805 C815 0.930 . S
C806 H800 0.930 . S
C806 C807 1.355 . S
C806 C808 1.415 . S
C807 C806 1.355 . S
C807 C809 1.419 . S
C808 C806 1.415 . S
C808 C813 1.425 . S
C808 C815 1.409 . S
C809 H801 0.930 . S
C809 C807 1.419 . S
C809 C810 1.362 . S
C810 H802 0.930 . S
C810 C809 1.362 . S
C810 C813 1.409 . S
C811 H803 0.930 . S
C811 C812 1.355 . S
C811 C813 1.415 . S
C812 C811 1.355 . S
C812 C814 1.419 . S
C813 C808 1.425 . S
C813 C810 1.409 . S
C813 C811 1.415 . S
C814 H804 0.930 . S
C814 C812 1.419 . S
C814 C815 1.362 . S
C815 H805 0.930 . S
C815 C808 1.409 . S
C815 C814 1.362 . S
H816 C822 0.930 . S
H817 C825 0.930 . S
H818 C826 0.930 . S
H819 C827 0.930 . S
H820 C830 0.930 . S
H821 C831 0.930 . S
C822 H816 0.930 . S
C822 C823 1.355 1_545 S
C822 C824 1.415 . S
C823 C822 1.355 1_565 S
C823 C825 1.419 . S
C824 C822 1.415 . S
C824 C829 1.425 . S
C824 C831 1.409 . S
C825 H817 0.930 . S
C825 C823 1.419 . S
C825 C826 1.362 . S
C826 H818 0.930 . S
C826 C825 1.362 . S
C826 C829 1.409 1_565 S
C827 H819 0.930 . S
C827 C828 1.355 . S
C827 C829 1.415 . S
C828 C827 1.355 . S
C828 C830 1.419 . S
C829 C824 1.425 . S
C829 C826 1.409 1_545 S
C829 C827 1.415 . S
C830 H820 0.930 . S
C830 C828 1.419 . S
C830 C831 1.362 . S
C831 H821 0.930 . S
C831 C824 1.409 . S
C831 C830 1.362 . S
H832 C838 0.930 . S
H833 C841 0.930 . S
H834 C842 0.930 . S
H835 C843 0.930 . S
H836 C846 0.930 . S
H837 C847 0.930 . S
C838 H832 0.930 . S
C838 C839 1.355 . S
C838 C840 1.415 . S
C839 C838 1.355 . S
C839 C841 1.419 . S
C840 C838 1.415 . S
C840 C845 1.425 1_455 S
C840 C847 1.409 . S
C841 H833 0.930 . S
C841 C839 1.419 . S
C841 C842 1.362 1_455 S
C842 H834 0.930 . S
C842 C841 1.362 1_655 S
C842 C845 1.409 . S
C843 H835 0.930 . S
C843 C844 1.355 . S
C843 C845 1.415 . S
C844 C843 1.355 . S
C844 C846 1.419 . S
C845 C840 1.425 1_655 S
C845 C842 1.409 . S
C845 C843 1.415 . S
C846 H836 0.930 . S
C846 C844 1.419 . S
C846 C847 1.362 1_655 S
C847 H837 0.930 . S
C847 C840 1.409 . S
C847 C846 1.362 1_455 S
H848 C854 0.930 . S
H849 C857 0.930 . S
H850 C858 0.930 . S
H851 C859 0.930 . S
H852 C862 0.930 . S
H853 C863 0.930 . S
C854 H848 0.930 . S
C854 C855 1.355 . S
C854 C856 1.415 . S
C855 C854 1.355 . S
C855 C857 1.419 1_565 S
C856 C854 1.415 . S
C856 C861 1.425 1_565 S
C856 C863 1.409 . S
C857 H849 0.930 . S
C857 C855 1.419 1_545 S
C857 C858 1.362 . S
C858 H850 0.930 . S
C858 C857 1.362 . S
C858 C861 1.409 . S
C859 H851 0.930 . S
C859 C860 1.355 . S
C859 C861 1.415 . S
C860 C859 1.355 . S
C860 C862 1.419 1_545 S
C861 C856 1.425 1_545 S
C861 C858 1.409 . S
C861 C859 1.415 . S
C862 H852 0.930 . S
C862 C860 1.419 1_565 S
C862 C863 1.362 . S
C863 H853 0.930 . S
C863 C856 1.409 . S
C863 C862 1.362 . S
H864 C870 0.930 . S
H865 C873 0.930 . S
H866 C874 0.930 1_556 S
H867 C875 0.930 . S
H868 C878 0.930 . S
H869 C879 0.930 1_554 S
C870 H864 0.930 . S
C870 C871 1.355 . S
C870 C872 1.415 . S
C871 C870 1.355 . S
C871 C873 1.419 . S
C872 C870 1.415 . S
C872 C877 1.425 1_554 S
C872 C879 1.409 1_554 S
C873 H865 0.930 . S
C873 C871 1.419 . S
C873 C874 1.362 . S
C874 H866 0.930 1_554 S
C874 C873 1.362 . S
C874 C877 1.409 1_554 S
C875 H867 0.930 . S
C875 C876 1.355 . S
C875 C877 1.415 . S
C876 C875 1.355 . S
C876 C878 1.419 . S
C877 C872 1.425 1_556 S
C877 C874 1.409 1_556 S
C877 C875 1.415 . S
C878 H868 0.930 . S
C878 C876 1.419 . S
C878 C879 1.362 . S
C879 H869 0.930 1_556 S
C879 C872 1.409 1_556 S
C879 C878 1.362 . S
H880 C886 0.915 1_545 S
H881 C889 0.930 . S
H882 C890 0.930 . S
H883 C891 0.930 1_565 S
H884 C894 0.930 . S
H885 C895 0.930 . S
C886 H880 0.915 1_565 S
C886 C887 1.380 . S
C886 C888 1.405 1_566 S
C887 C886 1.380 . S
C887 C889 1.419 . S
C888 C886 1.405 1_544 S
C888 C893 1.425 1_444 S
C888 C895 1.409 . S
C889 H881 0.930 . S
C889 C887 1.419 . S
C889 C890 1.362 1_455 S
C890 H882 0.930 . S
C890 C889 1.362 1_655 S
C890 C893 1.409 . S
C891 H883 0.930 1_545 S
C891 C892 1.355 . S
C891 C893 1.415 1_544 S
C892 C891 1.355 . S
C892 C894 1.419 . S
C893 C888 1.425 1_666 S
C893 C890 1.409 . S
C893 C891 1.415 1_566 S
C894 H884 0.930 . S
C894 C892 1.419 . S
C894 C895 1.362 1_655 S
C895 H885 0.930 . S
C895 C888 1.409 . S
C895 C894 1.362 1_455 S
H896 C902 0.930 . S
H897 C905 0.930 . S
H898 C906 0.930 . S
H899 C907 0.930 . S
H900 C910 0.930 . S
H901 C911 0.930 . S
C902 H896 0.930 . S
C902 C903 1.355 . S
C902 C904 1.415 . S
C903 C902 1.355 . S
C903 C905 1.419 . S
C904 C902 1.415 . S
C904 C909 1.425 . S
C904 C911 1.409 . S
C905 H897 0.930 . S
C905 C903 1.419 . S
C905 C906 1.362 . S
C906 H898 0.930 . S
C906 C905 1.362 . S
C906 C909 1.409 . S
C907 H899 0.930 . S
C907 C908 1.355 . S
C907 C909 1.415 . S
C908 C907 1.355 . S
C908 C910 1.419 . S
C909 C904 1.425 . S
C909 C906 1.409 . S
C909 C907 1.415 . S
C910 H900 0.930 . S
C910 C908 1.419 . S
C910 C911 1.362 . S
C911 H901 0.930 . S
C911 C904 1.409 . S
C911 C910 1.362 . S
H912 C918 0.930 . S
H913 C921 0.930 . S
H914 C922 0.930 . S
H915 C923 0.930 . S
H916 C926 0.930 . S
H917 C927 0.930 . S
C918 H912 0.930 . S
C918 C919 1.355 . S
C918 C920 1.415 . S
C919 C918 1.355 . S
C919 C921 1.419 . S
C920 C918 1.415 . S
C920 C925 1.425 . S
C920 C927 1.409 . S
C921 H913 0.930 . S
C921 C919 1.419 . S
C921 C922 1.362 . S
C922 H914 0.930 . S
C922 C921 1.362 . S
C922 C925 1.409 . S
C923 H915 0.930 . S
C923 C924 1.355 . S
C923 C925 1.415 . S
C924 C923 1.355 . S
C924 C926 1.419 . S
C925 C920 1.425 . S
C925 C922 1.409 . S
C925 C923 1.415 . S
C926 H916 0.930 . S
C926 C924 1.419 . S
C926 C927 1.362 . S
C927 H917 0.930 . S
C927 C920 1.409 . S
C927 C926 1.362 . S
H928 C934 0.930 . S
H929 C937 0.930 . S
H930 C938 0.930 . S
H931 C939 0.930 . S
H932 C942 0.930 . S
H933 C943 0.930 . S
C934 H928 0.930 . S
C934 C935 1.355 . S
C934 C936 1.415 . S
C935 C934 1.355 . S
C935 C937 1.419 . S
C936 C934 1.415 . S
C936 C941 1.425 . S
C936 C943 1.409 . S
C937 H929 0.930 . S
C937 C935 1.419 . S
C937 C938 1.362 . S
C938 H930 0.930 . S
C938 C937 1.362 . S
C938 C941 1.409 . S
C939 H931 0.930 . S
C939 C940 1.355 . S
C939 C941 1.415 . S
C940 C939 1.355 . S
C940 C942 1.419 . S
C941 C936 1.425 . S
C941 C938 1.409 . S
C941 C939 1.415 . S
C942 H932 0.930 . S
C942 C940 1.419 . S
C942 C943 1.362 . S
C943 H933 0.930 . S
C943 C936 1.409 . S
C943 C942 1.362 . S
H944 C950 0.930 . S
H945 C953 0.930 . S
H946 C954 0.930 . S
H947 C955 0.930 . S
H948 C958 0.930 . S
H949 C959 0.930 . S
C950 H944 0.930 . S
C950 C951 1.355 . S
C950 C952 1.415 . S
C951 C950 1.355 . S
C951 C953 1.419 . S
C952 C950 1.415 . S
C952 C957 1.425 . S
C952 C959 1.409 . S
C953 H945 0.930 . S
C953 C951 1.419 . S
C953 C954 1.362 . S
C954 H946 0.930 . S
C954 C953 1.362 . S
C954 C957 1.409 . S
C955 H947 0.930 . S
C955 C956 1.355 . S
C955 C957 1.415 . S
C956 C955 1.355 . S
C956 C958 1.419 . S
C957 C952 1.425 . S
C957 C954 1.409 . S
C957 C955 1.415 . S
C958 H948 0.930 . S
C958 C956 1.419 . S
C958 C959 1.362 . S
C959 H949 0.930 . S
C959 C952 1.409 . S
C959 C958 1.362 . S
C711 C57 1.063 . S
C716 C233 1.064 . S
C727 C321 1.002 . S
C732 C108 0.996 1_545 S
C743 C196 1.026 . S
C748 C20 1.007 . S
C759 C284 1.067 . S
C764 C145 1.066 . S
C775 C585 1.013 . S
C780 C372 1.036 . S
C791 C469 1.035 . S
C796 C673 1.057 . S
C807 C577 1.059 . S
C812 C381 1.059 . S
C823 C665 1.001 . S
C828 C460 1.032 . S
C839 C29 1.714 . S
C844 C401 1.720 . S
C855 C137 1.748 . S
C860 C497 1.752 . S
C871 C225 1.713 . S
C876 C548 1.717 . S
C887 C636 1.711 . S
C892 C313 1.707 . S
C903 C49 1.745 . S
C908 C117 1.740 . S
C919 C293 1.694 . S
C924 C205 1.696 . S
C935 C489 1.759 . S
C940 C409 1.761 . S
C951 C557 1.729 . S
C956 C645 1.735 . S
